# Generated by pormake.
# Topology ecs, (8)-cn, num edge types: 1
# Building blocks:
#     Node 0, Type 0, BuildingBlock: TAGTUT_clean_sbu_3, # of connection points: 8
#     Node 1, Type 0, BuildingBlock: TAGTUT_clean_sbu_3, # of connection points: 8
#     Node 2, Type 0, BuildingBlock: TAGTUT_clean_sbu_3, # of connection points: 8
#     Node 3, Type 0, BuildingBlock: TAGTUT_clean_sbu_3, # of connection points: 8
#     Node 4, Type 0, BuildingBlock: TAGTUT_clean_sbu_3, # of connection points: 8
#     Node 5, Type 0, BuildingBlock: TAGTUT_clean_sbu_3, # of connection points: 8
#     Node 6, Type 0, BuildingBlock: TAGTUT_clean_sbu_3, # of connection points: 8
#     Node 7, Type 0, BuildingBlock: TAGTUT_clean_sbu_3, # of connection points: 8
#     Node 8, Type 0, BuildingBlock: TAGTUT_clean_sbu_3, # of connection points: 8
#     Node 9, Type 0, BuildingBlock: TAGTUT_clean_sbu_3, # of connection points: 8
#     Node 10, Type 0, BuildingBlock: TAGTUT_clean_sbu_3, # of connection points: 8
#     Node 11, Type 0, BuildingBlock: TAGTUT_clean_sbu_3, # of connection points: 8
#     Edge 12, Type (0, 0), BuildingBlock: XUDNAN_clean_linker_2, # of connection points: 2
#     Edge 13, Type (0, 0), BuildingBlock: XUDNAN_clean_linker_2, # of connection points: 2
#     Edge 14, Type (0, 0), BuildingBlock: XUDNAN_clean_linker_2, # of connection points: 2
#     Edge 15, Type (0, 0), BuildingBlock: XUDNAN_clean_linker_2, # of connection points: 2
#     Edge 16, Type (0, 0), BuildingBlock: XUDNAN_clean_linker_2, # of connection points: 2
#     Edge 17, Type (0, 0), BuildingBlock: XUDNAN_clean_linker_2, # of connection points: 2
#     Edge 18, Type (0, 0), BuildingBlock: XUDNAN_clean_linker_2, # of connection points: 2
#     Edge 19, Type (0, 0), BuildingBlock: XUDNAN_clean_linker_2, # of connection points: 2
#     Edge 20, Type (0, 0), BuildingBlock: XUDNAN_clean_linker_2, # of connection points: 2
#     Edge 21, Type (0, 0), BuildingBlock: XUDNAN_clean_linker_2, # of connection points: 2
#     Edge 22, Type (0, 0), BuildingBlock: XUDNAN_clean_linker_2, # of connection points: 2
#     Edge 23, Type (0, 0), BuildingBlock: XUDNAN_clean_linker_2, # of connection points: 2
#     Edge 24, Type (0, 0), BuildingBlock: XUDNAN_clean_linker_2, # of connection points: 2
#     Edge 25, Type (0, 0), BuildingBlock: XUDNAN_clean_linker_2, # of connection points: 2
#     Edge 26, Type (0, 0), BuildingBlock: XUDNAN_clean_linker_2, # of connection points: 2
#     Edge 27, Type (0, 0), BuildingBlock: XUDNAN_clean_linker_2, # of connection points: 2
#     Edge 28, Type (0, 0), BuildingBlock: XUDNAN_clean_linker_2, # of connection points: 2
#     Edge 29, Type (0, 0), BuildingBlock: XUDNAN_clean_linker_2, # of connection points: 2
#     Edge 30, Type (0, 0), BuildingBlock: XUDNAN_clean_linker_2, # of connection points: 2
#     Edge 31, Type (0, 0), BuildingBlock: XUDNAN_clean_linker_2, # of connection points: 2
#     Edge 32, Type (0, 0), BuildingBlock: XUDNAN_clean_linker_2, # of connection points: 2
#     Edge 33, Type (0, 0), BuildingBlock: XUDNAN_clean_linker_2, # of connection points: 2
#     Edge 34, Type (0, 0), BuildingBlock: XUDNAN_clean_linker_2, # of connection points: 2
#     Edge 35, Type (0, 0), BuildingBlock: XUDNAN_clean_linker_2, # of connection points: 2
#     Edge 36, Type (0, 0), BuildingBlock: XUDNAN_clean_linker_2, # of connection points: 2
#     Edge 37, Type (0, 0), BuildingBlock: XUDNAN_clean_linker_2, # of connection points: 2
#     Edge 38, Type (0, 0), BuildingBlock: XUDNAN_clean_linker_2, # of connection points: 2
#     Edge 39, Type (0, 0), BuildingBlock: XUDNAN_clean_linker_2, # of connection points: 2
#     Edge 40, Type (0, 0), BuildingBlock: XUDNAN_clean_linker_2, # of connection points: 2
#     Edge 41, Type (0, 0), BuildingBlock: XUDNAN_clean_linker_2, # of connection points: 2
#     Edge 42, Type (0, 0), BuildingBlock: XUDNAN_clean_linker_2, # of connection points: 2
#     Edge 43, Type (0, 0), BuildingBlock: XUDNAN_clean_linker_2, # of connection points: 2
#     Edge 44, Type (0, 0), BuildingBlock: XUDNAN_clean_linker_2, # of connection points: 2
#     Edge 45, Type (0, 0), BuildingBlock: XUDNAN_clean_linker_2, # of connection points: 2
#     Edge 46, Type (0, 0), BuildingBlock: XUDNAN_clean_linker_2, # of connection points: 2
#     Edge 47, Type (0, 0), BuildingBlock: XUDNAN_clean_linker_2, # of connection points: 2
#     Edge 48, Type (0, 0), BuildingBlock: XUDNAN_clean_linker_2, # of connection points: 2
#     Edge 49, Type (0, 0), BuildingBlock: XUDNAN_clean_linker_2, # of connection points: 2
#     Edge 50, Type (0, 0), BuildingBlock: XUDNAN_clean_linker_2, # of connection points: 2
#     Edge 51, Type (0, 0), BuildingBlock: XUDNAN_clean_linker_2, # of connection points: 2
#     Edge 52, Type (0, 0), BuildingBlock: XUDNAN_clean_linker_2, # of connection points: 2
#     Edge 53, Type (0, 0), BuildingBlock: XUDNAN_clean_linker_2, # of connection points: 2
#     Edge 54, Type (0, 0), BuildingBlock: XUDNAN_clean_linker_2, # of connection points: 2
#     Edge 55, Type (0, 0), BuildingBlock: XUDNAN_clean_linker_2, # of connection points: 2
#     Edge 56, Type (0, 0), BuildingBlock: XUDNAN_clean_linker_2, # of connection points: 2
#     Edge 57, Type (0, 0), BuildingBlock: XUDNAN_clean_linker_2, # of connection points: 2
#     Edge 58, Type (0, 0), BuildingBlock: XUDNAN_clean_linker_2, # of connection points: 2
#     Edge 59, Type (0, 0), BuildingBlock: XUDNAN_clean_linker_2, # of connection points: 2
# Relax obj value: 0.345
# Max RMSD: 0.276
# Mean RMSD: 0.276
data_MOF--net-ecs--node1-TAGTUT_clean_sbu_3--edge1-XUDNAN_clean_linker_2
_symmetry_space_group_name_H-M    P1
_symmetry_Int_Tables_number       1
_symmetry_cell_setting            triclinic
loop_
_symmetry_equiv_pos_as_xyz
'x, y, z'
_cell_length_a     51.515479
_cell_length_b     51.438026
_cell_length_c     27.352955
_cell_angle_alpha  90.058007
_cell_angle_beta   89.949313
_cell_angle_gamma 120.04254
loop_
_atom_site_label
_atom_site_type_symbol
_atom_site_fract_x
_atom_site_fract_y
_atom_site_fract_z
_atom_type_partial_charge
C0 C 0.44789 0.29299 0.08109 0.0
C1 C 0.47618 0.39535 0.98477 0.0
C2 C 0.47831 0.42611 0.12921 0.0
Mg3 Mg 0.46305 0.28729 0.19477 0.0
Mg4 Mg 0.52183 0.34177 0.25207 0.0
O5 O 0.48694 0.3305 0.21613 0.0
Mg6 Mg 0.48949 0.34922 0.15146 0.0
O7 O 0.4882 0.36503 0.08515 0.0
Mg8 Mg 0.44492 0.35508 0.08599 0.0
Mg9 Mg 0.51558 0.40536 0.07735 0.0
C10 C 0.53247 0.40584 0.22542 0.0
O11 O 0.5377 0.36018 0.13448 0.0
O12 O 0.46155 0.27566 0.27759 0.0
O13 O 0.55535 0.40237 0.0892 0.0
O14 O 0.50592 0.284 0.18294 0.0
O15 O 0.5002 0.31496 0.31514 0.0
O16 O 0.54566 0.32466 0.21361 0.0
O17 O 0.44284 0.33982 0.16603 0.0
O18 O 0.42288 0.2951 0.20319 0.0
C19 C 0.4209 0.31758 0.18759 0.0
C20 C 0.47648 0.28903 0.31633 0.0
O21 O 0.51261 0.39515 0.19145 0.0
O22 O 0.45316 0.37336 0.00538 0.0
O23 O 0.54029 0.38978 0.25029 0.0
O24 O 0.45547 0.40276 0.1117 0.0
O25 O 0.50148 0.41057 0.0064 0.0
O26 O 0.50404 0.42838 0.12892 0.0
O27 O 0.46742 0.30379 0.11542 0.0
O28 O 0.43678 0.30833 0.06282 0.0
C29 C 0.53426 0.30023 0.18958 0.0
C30 C 0.55883 0.38228 0.11106 0.0
C31 C 0.70263 0.14508 0.07549 0.0
C32 C 0.59442 0.07885 0.98853 0.0
C33 C 0.56759 0.04924 0.12949 0.0
Mg34 Mg 0.71424 0.16843 0.18652 0.0
Mg35 Mg 0.66785 0.18223 0.2513 0.0
O36 O 0.67277 0.15516 0.21165 0.0
Mg37 Mg 0.65043 0.13832 0.14909 0.0
O38 O 0.63066 0.12007 0.08493 0.0
Mg39 Mg 0.63726 0.08428 0.08356 0.0
Mg40 Mg 0.59014 0.10786 0.08667 0.0
C41 C 0.59967 0.13387 0.22865 0.0
O42 O 0.64326 0.17801 0.1313 0.0
O43 O 0.72978 0.1786 0.26736 0.0
O44 O 0.59647 0.15179 0.10043 0.0
O45 O 0.72399 0.2175 0.17508 0.0
O46 O 0.69567 0.18368 0.31139 0.0
O47 O 0.69033 0.2248 0.21538 0.0
O48 O 0.65452 0.09741 0.16314 0.0
O49 O 0.70029 0.11815 0.19626 0.0
C50 C 0.67557 0.09493 0.18326 0.0
C51 C 0.71998 0.18263 0.30826 0.0
O52 O 0.60679 0.12163 0.19409 0.0
O53 O 0.61683 0.07668 0.00453 0.0
O54 O 0.6189 0.1575 0.25182 0.0
O55 O 0.58932 0.04891 0.10776 0.0
O56 O 0.58039 0.08853 0.01471 0.0
O57 O 0.57042 0.07428 0.14187 0.0
O58 O 0.69449 0.15683 0.10905 0.0
O59 O 0.68464 0.1188 0.05877 0.0
C60 C 0.71295 0.23408 0.1872 0.0
C61 C 0.61912 0.1765 0.11486 0.0
C62 C 0.90026 0.58731 0.18123 0.0
C63 C 0.81395 0.53699 0.31063 0.0
C64 C 0.76718 0.47592 0.18808 0.0
Mg65 Mg 0.91246 0.5607 0.0814 0.0
Mg66 Mg 0.89539 0.49092 0.08664 0.0
O67 O 0.87952 0.51637 0.08582 0.0
Mg68 Mg 0.86186 0.51715 0.15121 0.0
O69 O 0.84504 0.52179 0.21432 0.0
Mg70 Mg 0.82722 0.54607 0.18869 0.0
Mg71 Mg 0.81998 0.48839 0.25305 0.0
C72 C 0.8284 0.44635 0.11959 0.0
O73 O 0.88355 0.49516 0.19668 0.0
O74 O 0.9182 0.54795 0.00184 0.0
O75 O 0.84914 0.46937 0.25524 0.0
O76 O 0.9526 0.55349 0.10044 0.0
O77 O 0.91189 0.50158 0.01269 0.0
O78 O 0.92923 0.51171 0.14063 0.0
O79 O 0.8384 0.53812 0.11113 0.0
O80 O 0.87428 0.56858 0.05953 0.0
C81 C 0.84784 0.5577 0.077 0.0
C82 C 0.91784 0.52424 0.98553 0.0
O83 O 0.82477 0.46756 0.13721 0.0
O84 O 0.81707 0.55091 0.27008 0.0
O85 O 0.85355 0.4508 0.10272 0.0
O86 O 0.78067 0.50397 0.17816 0.0
O87 O 0.81476 0.51252 0.31304 0.0
O88 O 0.77862 0.46415 0.21507 0.0
O89 O 0.90054 0.56471 0.16215 0.0
O90 O 0.8758 0.5857 0.19579 0.0
C91 C 0.95283 0.53101 0.11948 0.0
C92 C 0.8735 0.4763 0.23219 0.0
C93 C 0.27694 0.43288 0.41015 0.0
C94 C 0.36513 0.47501 0.53359 0.0
C95 C 0.41762 0.48631 0.40605 0.0
Mg96 Mg 0.27545 0.44351 0.29449 0.0
Mg97 Mg 0.32813 0.5012 0.23384 0.0
O98 O 0.31911 0.47075 0.27851 0.0
Mg99 Mg 0.33498 0.4787 0.34664 0.0
O100 O 0.34654 0.48139 0.41675 0.0
Mg101 Mg 0.34334 0.44072 0.4239 0.0
Mg102 Mg 0.38077 0.51404 0.43972 0.0
C103 C 0.39327 0.52319 0.27659 0.0
O104 O 0.33991 0.52596 0.35301 0.0
O105 O 0.26723 0.43675 0.21012 0.0
O106 O 0.37542 0.54973 0.41065 0.0
O107 O 0.26492 0.48293 0.29319 0.0
O108 O 0.30669 0.47416 0.17109 0.0
O109 O 0.30346 0.52175 0.25633 0.0
O110 O 0.33283 0.43426 0.34152 0.0
O111 O 0.29017 0.40778 0.29922 0.0
C112 C 0.31341 0.4099 0.32055 0.0
C113 C 0.28148 0.44962 0.17063 0.0
O114 O 0.38348 0.50543 0.31374 0.0
O115 O 0.35351 0.45095 0.50756 0.0
O116 O 0.37592 0.52551 0.24542 0.0
O117 O 0.39474 0.46017 0.41281 0.0
O118 O 0.37588 0.50128 0.51507 0.0
O119 O 0.41563 0.50995 0.40781 0.0
O120 O 0.28749 0.45284 0.37625 0.0
O121 O 0.29357 0.42492 0.43311 0.0
C122 C 0.27856 0.51035 0.27882 0.0
C123 C 0.35809 0.54974 0.37713 0.0
C124 C 0.57564 0.89334 0.32053 0.0
C125 C 0.53727 0.81849 0.17813 0.0
C126 C 0.47214 0.75889 0.28524 0.0
Mg127 Mg 0.54606 0.89778 0.42094 0.0
Mg128 Mg 0.47428 0.87049 0.42647 0.0
O129 O 0.50423 0.86121 0.41744 0.0
Mg130 Mg 0.50645 0.84802 0.34925 0.0
O131 O 0.51399 0.8373 0.28287 0.0
Mg132 Mg 0.54044 0.82083 0.30254 0.0
Mg133 Mg 0.48508 0.81733 0.23496 0.0
C134 C 0.43635 0.80482 0.38361 0.0
O135 O 0.48034 0.86868 0.31187 0.0
O136 O 0.53521 0.90212 0.50229 0.0
O137 O 0.46162 0.84216 0.24205 0.0
O138 O 0.53107 0.93259 0.40308 0.0
O139 O 0.48571 0.88643 0.50012 0.0
O140 O 0.48354 0.90712 0.38023 0.0
O141 O 0.53126 0.8262 0.3836 0.0
O142 O 0.55929 0.86247 0.43731 0.0
C143 C 0.55107 0.83683 0.41769 0.0
C144 C 0.51079 0.89751 0.52283 0.0
O145 O 0.45889 0.8065 0.36034 0.0
O146 O 0.54846 0.81755 0.21961 0.0
O147 O 0.43772 0.82679 0.40801 0.0
O148 O 0.49899 0.77169 0.30223 0.0
O149 O 0.51324 0.81998 0.17468 0.0
O150 O 0.46222 0.77273 0.25979 0.0
O151 O 0.55141 0.8894 0.34028 0.0
O152 O 0.57768 0.87114 0.30343 0.0
C153 C 0.50756 0.932 0.3866 0.0
C154 C 0.46368 0.86158 0.27361 0.0
C155 C 0.09727 0.68166 0.31699 0.0
C156 C 0.17666 0.70919 0.17874 0.0
C157 C 0.22988 0.70126 0.2975 0.0
Mg158 Mg 0.0874 0.64555 0.41924 0.0
Mg159 Mg 0.10345 0.59215 0.4161 0.0
O160 O 0.11989 0.63359 0.41427 0.0
Mg161 Mg 0.13541 0.64966 0.3467 0.0
O162 O 0.1503 0.66846 0.28131 0.0
Mg163 Mg 0.1698 0.71174 0.3018 0.0
Mg164 Mg 0.17327 0.65781 0.24155 0.0
C165 C 0.16778 0.61136 0.37333 0.0
O166 O 0.11169 0.60389 0.306 0.0
O167 O 0.08225 0.62863 0.49946 0.0
O168 O 0.14419 0.6096 0.24567 0.0
O169 O 0.04602 0.59784 0.40439 0.0
O170 O 0.089 0.58859 0.49125 0.0
O171 O 0.06772 0.57742 0.36497 0.0
O172 O 0.16099 0.69569 0.38197 0.0
O173 O 0.12739 0.69174 0.43726 0.0
C174 C 0.15327 0.70676 0.41727 0.0
C175 C 0.08287 0.60572 0.51698 0.0
O176 O 0.17176 0.6368 0.35825 0.0
O177 O 0.17679 0.72293 0.21822 0.0
O178 O 0.14317 0.59138 0.39299 0.0
O179 O 0.21666 0.71589 0.30873 0.0
O180 O 0.17457 0.68331 0.17911 0.0
O181 O 0.21708 0.67711 0.27265 0.0
O182 O 0.09754 0.65946 0.33773 0.0
O183 O 0.12132 0.70358 0.2989 0.0
C184 C 0.04476 0.57433 0.38664 0.0
C185 C 0.12063 0.59338 0.27131 0.0
C186 C 0.55756 0.70985 0.92205 0.0
C187 C 0.52394 0.61238 0.03078 0.0
C188 C 0.52372 0.57271 0.90252 0.0
Mg189 Mg 0.5434 0.7144 0.80926 0.0
Mg190 Mg 0.48698 0.66233 0.74668 0.0
O191 O 0.51818 0.67106 0.78971 0.0
Mg192 Mg 0.51345 0.65185 0.85554 0.0
O193 O 0.51366 0.63648 0.9229 0.0
Mg194 Mg 0.55719 0.64645 0.92556 0.0
Mg195 Mg 0.48609 0.59624 0.93431 0.0
C196 C 0.46915 0.59615 0.78084 0.0
O197 O 0.46492 0.64155 0.87121 0.0
O198 O 0.5484 0.72625 0.7261 0.0
O199 O 0.44689 0.59833 0.91393 0.0
O200 O 0.50109 0.72088 0.81494 0.0
O201 O 0.5115 0.68831 0.68389 0.0
O202 O 0.46319 0.68183 0.77714 0.0
O203 O 0.55997 0.65889 0.84361 0.0
O204 O 0.58214 0.70335 0.8054 0.0
C205 C 0.58279 0.6803 0.82215 0.0
C206 C 0.5354 0.71407 0.68549 0.0
O207 O 0.48791 0.60463 0.81673 0.0
O208 O 0.54776 0.63211 0.00845 0.0
O209 O 0.46578 0.61452 0.75352 0.0
O210 O 0.54686 0.59825 0.91059 0.0
O211 O 0.49874 0.59633 0.00915 0.0
O212 O 0.49955 0.57149 0.88918 0.0
O213 O 0.5368 0.69887 0.8896 0.0
O214 O 0.56752 0.69394 0.9414 0.0
C215 C 0.47341 0.70591 0.8019 0.0
C216 C 0.44318 0.61821 0.89178 0.0
C217 C 0.313 0.89642 0.81948 0.0
C218 C 0.28296 0.81571 0.68141 0.0
C219 C 0.28332 0.76072 0.80273 0.0
Mg220 Mg 0.34455 0.90223 0.92495 0.0
Mg221 Mg 0.39261 0.87925 0.93483 0.0
O222 O 0.35268 0.86759 0.92293 0.0
Mg223 Mg 0.33865 0.85348 0.85454 0.0
O224 O 0.32158 0.84028 0.78746 0.0
Mg225 Mg 0.278 0.82366 0.80396 0.0
Mg226 Mg 0.33122 0.8162 0.74901 0.0
C227 C 0.37017 0.8146 0.89016 0.0
O228 O 0.38553 0.87547 0.81928 0.0
O229 O 0.35798 0.90648 0.00787 0.0
O230 O 0.37947 0.84351 0.7576 0.0
O231 O 0.39377 0.93824 0.91006 0.0
O232 O 0.39418 0.89393 0.00927 0.0
O233 O 0.42 0.91665 0.88976 0.0
O234 O 0.29154 0.83107 0.88525 0.0
O235 O 0.29635 0.86547 0.93978 0.0
C236 C 0.28045 0.83997 0.91885 0.0
C237 C 0.37812 0.90324 0.03048 0.0
O238 O 0.34752 0.81399 0.86892 0.0
O239 O 0.26886 0.81685 0.71954 0.0
O240 O 0.38971 0.8375 0.91427 0.0
O241 O 0.26997 0.77544 0.81227 0.0
O242 O 0.30817 0.81651 0.68414 0.0
O243 O 0.30806 0.77221 0.77956 0.0
O244 O 0.33315 0.89373 0.84255 0.0
O245 O 0.2903 0.87364 0.80004 0.0
C246 C 0.41854 0.94026 0.89694 0.0
C247 C 0.39595 0.86615 0.78508 0.0
C248 C 0.15292 0.43857 0.91994 0.0
C249 C 0.0839 0.47156 0.02144 0.0
C250 C 0.05313 0.47489 0.88433 0.0
Mg251 Mg 0.17155 0.45147 0.80719 0.0
Mg252 Mg 0.17829 0.50997 0.74603 0.0
O253 O 0.15434 0.47722 0.78578 0.0
Mg254 Mg 0.14019 0.48234 0.85122 0.0
O255 O 0.12464 0.4827 0.91869 0.0
Mg256 Mg 0.0903 0.43959 0.91995 0.0
Mg257 Mg 0.11218 0.51057 0.92713 0.0
C258 C 0.12771 0.52494 0.77483 0.0
O259 O 0.1791 0.53084 0.86588 0.0
O260 O 0.17947 0.44679 0.72525 0.0
O261 O 0.15528 0.54915 0.91178 0.0
O262 O 0.21989 0.49347 0.81574 0.0
O263 O 0.18186 0.48587 0.68436 0.0
O264 O 0.21963 0.53301 0.78257 0.0
O265 O 0.10113 0.43657 0.83944 0.0
O266 O 0.12161 0.41288 0.80096 0.0
C267 C 0.09851 0.41346 0.81743 0.0
C268 C 0.18206 0.46105 0.6854 0.0
O269 O 0.11853 0.50644 0.81093 0.0
O270 O 0.08266 0.44847 0.00083 0.0
O271 O 0.15048 0.53032 0.74843 0.0
O272 O 0.05455 0.45225 0.90013 0.0
O273 O 0.09361 0.4968 0.99953 0.0
O274 O 0.07702 0.49962 0.8767 0.0
O275 O 0.16213 0.45853 0.88632 0.0
O276 O 0.12706 0.42866 0.93967 0.0
C277 C 0.23264 0.52174 0.80683 0.0
C278 C 0.17851 0.55237 0.88901 0.0
C279 C 0.68547 0.58379 0.68461 0.0
C280 C 0.71706 0.53126 0.81317 0.0
C281 C 0.70118 0.46832 0.6929 0.0
Mg282 Mg 0.64773 0.55964 0.58429 0.0
Mg283 Mg 0.59441 0.48983 0.57916 0.0
O284 O 0.63569 0.51558 0.58461 0.0
Mg285 Mg 0.65266 0.5145 0.64999 0.0
O286 O 0.67266 0.51757 0.71386 0.0
Mg287 Mg 0.71537 0.54057 0.69067 0.0
Mg288 Mg 0.66183 0.48473 0.7549 0.0
C289 C 0.6154 0.44432 0.6132 0.0
O290 O 0.60756 0.49303 0.6919 0.0
O291 O 0.62972 0.55074 0.50367 0.0
O292 O 0.61396 0.46809 0.75459 0.0
O293 O 0.60139 0.55122 0.60591 0.0
O294 O 0.59018 0.50353 0.50665 0.0
O295 O 0.57278 0.50438 0.62958 0.0
O296 O 0.69822 0.53534 0.6116 0.0
O297 O 0.69348 0.56754 0.5628 0.0
C298 C 0.70889 0.55622 0.57927 0.0
C299 C 0.60683 0.52817 0.48377 0.0
O300 O 0.63925 0.46509 0.63394 0.0
O301 O 0.72867 0.54427 0.77237 0.0
O302 O 0.59556 0.44907 0.59338 0.0
O303 O 0.71766 0.49619 0.68166 0.0
O304 O 0.6909 0.50792 0.81592 0.0
O305 O 0.67757 0.4589 0.71874 0.0
O306 O 0.66279 0.56175 0.66421 0.0
O307 O 0.70813 0.58165 0.69867 0.0
C308 C 0.57611 0.53014 0.62085 0.0
C309 C 0.59759 0.47501 0.72852 0.0
C310 C 0.41347 0.09879 0.68438 0.0
C311 C 0.47012 0.18429 0.8152 0.0
C312 C 0.52306 0.23328 0.68752 0.0
Mg313 Mg 0.43564 0.08986 0.57717 0.0
Mg314 Mg 0.50521 0.10723 0.56804 0.0
O315 O 0.47941 0.12222 0.57792 0.0
Mg316 Mg 0.48156 0.13879 0.64541 0.0
O317 O 0.47992 0.15451 0.7116 0.0
Mg318 Mg 0.45373 0.1719 0.69458 0.0
Mg319 Mg 0.51542 0.17945 0.74575 0.0
C320 C 0.55032 0.17353 0.60357 0.0
O321 O 0.50477 0.11572 0.68322 0.0
O322 O 0.44375 0.0834 0.49449 0.0
O323 O 0.53398 0.14973 0.74026 0.0
O324 O 0.44506 0.0516 0.59301 0.0
O325 O 0.49095 0.09117 0.49488 0.0
O326 O 0.49201 0.07022 0.61602 0.0
O327 O 0.45846 0.1624 0.61369 0.0
O328 O 0.42741 0.12854 0.56006 0.0
C329 C 0.43867 0.15447 0.58005 0.0
C330 C 0.46624 0.08385 0.47291 0.0
O331 O 0.53 0.17597 0.6272 0.0
O332 O 0.45362 0.18151 0.77801 0.0
O333 O 0.54543 0.1492 0.58236 0.0
O334 O 0.49458 0.21921 0.6823 0.0
O335 O 0.49442 0.18328 0.81147 0.0
O336 O 0.53685 0.2218 0.70904 0.0
O337 O 0.43526 0.10076 0.65921 0.0
O338 O 0.41472 0.12228 0.70332 0.0
C339 C 0.4666 0.04764 0.60616 0.0
C340 C 0.52528 0.12522 0.71628 0.0
C341 C 0.89516 0.31365 0.68607 0.0
C342 C 0.8092 0.27055 0.81127 0.0
C343 C 0.75776 0.27773 0.68943 0.0
Mg344 Mg 0.90589 0.35151 0.58791 0.0
Mg345 Mg 0.87954 0.39699 0.58013 0.0
O346 O 0.8695 0.35709 0.58561 0.0
Mg347 Mg 0.85144 0.33829 0.65022 0.0
O348 O 0.83538 0.31677 0.71337 0.0
Mg349 Mg 0.82228 0.27508 0.68933 0.0
Mg350 Mg 0.80931 0.32236 0.75405 0.0
C351 C 0.81166 0.36844 0.61211 0.0
O352 O 0.8687 0.38231 0.69353 0.0
O353 O 0.91589 0.37048 0.5086 0.0
O354 O 0.83477 0.37123 0.75415 0.0
O355 O 0.93849 0.40025 0.61224 0.0
O356 O 0.89988 0.40415 0.5091 0.0
O357 O 0.91252 0.4219 0.63363 0.0
O358 O 0.83326 0.29376 0.61095 0.0
O359 O 0.87237 0.30365 0.56314 0.0
C360 C 0.84564 0.28574 0.57817 0.0
C361 C 0.91254 0.39109 0.48809 0.0
O362 O 0.81127 0.34552 0.63206 0.0
O363 O 0.81261 0.26028 0.77041 0.0
O364 O 0.83544 0.39012 0.5931 0.0
O365 O 0.77385 0.26612 0.67755 0.0
O366 O 0.80837 0.29499 0.8142 0.0
O367 O 0.76712 0.30014 0.71815 0.0
O368 O 0.89209 0.33445 0.66627 0.0
O369 O 0.87231 0.28867 0.699 0.0
C370 C 0.93756 0.42319 0.6279 0.0
C371 C 0.85766 0.38998 0.72911 0.0
H372 H 0.51914 0.25065 0.13332 0.0
H373 H 0.59488 0.32723 0.20115 0.0
H374 H 0.62804 0.30805 0.17554 0.0
H375 H 0.53521 0.19832 0.17228 0.0
H376 H 0.52362 0.17553 0.11781 0.0
H377 H 0.50747 0.19845 0.13222 0.0
H378 H 0.52409 0.22473 0.04766 0.0
H379 H 0.53997 0.20142 0.03294 0.0
H380 H 0.56284 0.24173 0.02956 0.0
H381 H 0.65062 0.27613 0.156 0.0
H382 H 0.66032 0.23414 0.14367 0.0
H383 H 0.56992 0.17933 0.08763 0.0
C384 C 0.54285 0.26379 0.14177 0.0
C385 C 0.55446 0.29035 0.16955 0.0
C386 C 0.58556 0.30681 0.18003 0.0
C387 C 0.60459 0.29618 0.1653 0.0
C388 C 0.59223 0.26932 0.13942 0.0
C389 C 0.5621 0.25353 0.12719 0.0
C390 C 0.55359 0.22365 0.10419 0.0
C391 C 0.52852 0.19748 0.1334 0.0
C392 C 0.5446 0.22285 0.05039 0.0
C393 C 0.58311 0.22424 0.10849 0.0
C394 C 0.60536 0.25099 0.1278 0.0
C395 C 0.63357 0.2553 0.13988 0.0
C396 C 0.63882 0.23128 0.13315 0.0
C397 C 0.61584 0.20338 0.11519 0.0
C398 C 0.58809 0.20038 0.1012 0.0
H399 H 0.78956 0.41228 0.19278 0.0
H400 H 0.81279 0.41024 0.04107 0.0
H401 H 0.78026 0.35528 0.03963 0.0
H402 H 0.79362 0.35173 0.22924 0.0
H403 H 0.76229 0.33586 0.2709 0.0
H404 H 0.78163 0.37546 0.25816 0.0
H405 H 0.73193 0.37221 0.23058 0.0
H406 H 0.71219 0.3326 0.2444 0.0
H407 H 0.7093 0.34537 0.18439 0.0
H408 H 0.75471 0.30137 0.05826 0.0
H409 H 0.73209 0.25062 0.09436 0.0
H410 H 0.72316 0.28574 0.23338 0.0
C411 C 0.7865 0.40027 0.15878 0.0
C412 C 0.80322 0.41532 0.11681 0.0
C413 C 0.79982 0.39897 0.07337 0.0
C414 C 0.78143 0.36778 0.0722 0.0
C415 C 0.7664 0.35326 0.11475 0.0
C416 C 0.76814 0.36887 0.15706 0.0
C417 C 0.75214 0.34735 0.19895 0.0
C418 C 0.77371 0.35294 0.24181 0.0
C419 C 0.72476 0.34951 0.21555 0.0
C420 C 0.74263 0.31749 0.17411 0.0
C421 C 0.75092 0.3215 0.12543 0.0
C422 C 0.74739 0.2978 0.096 0.0
C423 C 0.7349 0.26917 0.11679 0.0
C424 C 0.72595 0.26444 0.16628 0.0
C425 C 0.72946 0.28881 0.19514 0.0
H426 H 0.71514 0.44097 0.23626 0.0
H427 H 0.75363 0.46838 0.0918 0.0
H428 H 0.70331 0.43811 0.05483 0.0
H429 H 0.65234 0.36411 0.20596 0.0
H430 H 0.62804 0.36907 0.248 0.0
H431 H 0.66774 0.38771 0.25903 0.0
H432 H 0.66714 0.43808 0.26361 0.0
H433 H 0.62777 0.4189 0.24965 0.0
H434 H 0.65376 0.44961 0.21174 0.0
H435 H 0.64953 0.41193 0.03498 0.0
H436 H 0.59519 0.39382 0.033 0.0
H437 H 0.59075 0.38284 0.19029 0.0
C438 C 0.71285 0.43979 0.19683 0.0
C439 C 0.73781 0.45649 0.16645 0.0
C440 C 0.73441 0.45552 0.1152 0.0
C441 C 0.70607 0.4382 0.09406 0.0
C442 C 0.68158 0.42225 0.12499 0.0
C443 C 0.68463 0.4231 0.17529 0.0
C444 C 0.65447 0.40766 0.20054 0.0
C445 C 0.65038 0.38047 0.23004 0.0
C446 C 0.65057 0.42989 0.23328 0.0
C447 C 0.63387 0.39831 0.15657 0.0
C448 C 0.65005 0.40672 0.11334 0.0
C449 C 0.63648 0.40443 0.06829 0.0
C450 C 0.60572 0.3942 0.06748 0.0
C451 C 0.58901 0.38631 0.11134 0.0
C452 C 0.60299 0.38751 0.15619 0.0
H453 H 0.16035 0.55511 0.37552 0.0
H454 H 0.22655 0.64808 0.34617 0.0
H455 H 0.26219 0.63222 0.31817 0.0
H456 H 0.21009 0.53167 0.41945 0.0
H457 H 0.19032 0.49512 0.39043 0.0
H458 H 0.17032 0.51388 0.40883 0.0
H459 H 0.15068 0.50965 0.32164 0.0
H460 H 0.1706 0.49115 0.30149 0.0
H461 H 0.17662 0.52483 0.27116 0.0
H462 H 0.28851 0.60544 0.28777 0.0
H463 H 0.30625 0.57094 0.26437 0.0
H464 H 0.22333 0.49534 0.31789 0.0
C465 C 0.18246 0.5723 0.36387 0.0
C466 C 0.19065 0.60292 0.36253 0.0
C467 C 0.21974 0.62454 0.34672 0.0
C468 C 0.24006 0.61569 0.33083 0.0
C469 C 0.23076 0.58514 0.33107 0.0
C470 C 0.20273 0.56384 0.34741 0.0
C471 C 0.19792 0.53243 0.34322 0.0
C472 C 0.19183 0.51737 0.39354 0.0
C473 C 0.17245 0.51341 0.30719 0.0
C474 C 0.22799 0.53931 0.32297 0.0
C475 C 0.24637 0.56982 0.31541 0.0
C476 C 0.27456 0.58158 0.29436 0.0
C477 C 0.28444 0.5617 0.28135 0.0
C478 C 0.26651 0.5304 0.2904 0.0
C479 C 0.23778 0.51913 0.31122 0.0
H480 H 0.38445 0.60319 0.4269 0.0
H481 H 0.35044 0.56356 0.28485 0.0
H482 H 0.3708 0.61352 0.24893 0.0
H483 H 0.3803 0.67472 0.40848 0.0
H484 H 0.4155 0.69689 0.43971 0.0
H485 H 0.3908 0.65841 0.45748 0.0
H486 H 0.43418 0.64718 0.44416 0.0
H487 H 0.45834 0.6855 0.4261 0.0
H488 H 0.45286 0.65545 0.38565 0.0
H489 H 0.40066 0.66621 0.2255 0.0
H490 H 0.43841 0.71969 0.21562 0.0
H491 H 0.45906 0.72624 0.37043 0.0
C492 C 0.38009 0.60512 0.38874 0.0
C493 C 0.36422 0.57928 0.35912 0.0
C494 C 0.36038 0.58272 0.30888 0.0
C495 C 0.37247 0.61118 0.28794 0.0
C496 C 0.38887 0.63609 0.31765 0.0
C497 C 0.39267 0.63351 0.36705 0.0
C498 C 0.41499 0.66367 0.38901 0.0
C499 C 0.39946 0.67403 0.42584 0.0
C500 C 0.44167 0.66284 0.41257 0.0
C501 C 0.42444 0.6831 0.3436 0.0
C502 C 0.40834 0.66679 0.30325 0.0
C503 C 0.41321 0.67934 0.25683 0.0
C504 C 0.4348 0.70957 0.25154 0.0
C505 C 0.4517 0.72669 0.29217 0.0
C506 C 0.44665 0.71333 0.33879 0.0
H507 H 0.28199 0.71415 0.25041 0.0
H508 H 0.24353 0.70937 0.39335 0.0
H509 H 0.29228 0.72406 0.43194 0.0
H510 H 0.33875 0.69205 0.2878 0.0
H511 H 0.36715 0.71942 0.24797 0.0
H512 H 0.3281 0.70221 0.23135 0.0
H513 H 0.33301 0.75478 0.223 0.0
H514 H 0.37205 0.77198 0.2385 0.0
H515 H 0.34775 0.78073 0.27354 0.0
H516 H 0.34469 0.74401 0.45456 0.0
H517 H 0.39931 0.77751 0.45945 0.0
H518 H 0.40625 0.77327 0.30214 0.0
C519 C 0.28393 0.71568 0.28987 0.0
C520 C 0.25924 0.71045 0.31925 0.0
C521 C 0.26239 0.71336 0.37054 0.0
C522 C 0.28981 0.72123 0.3927 0.0
C523 C 0.31392 0.72646 0.36293 0.0
C524 C 0.31151 0.72441 0.31254 0.0
C525 C 0.34205 0.73626 0.28885 0.0
C526 C 0.34412 0.71097 0.26242 0.0
C527 C 0.34912 0.76249 0.25395 0.0
C528 C 0.36208 0.74672 0.33367 0.0
C529 C 0.34514 0.73962 0.37603 0.0
C530 C 0.35822 0.74927 0.42183 0.0
C531 C 0.38924 0.76821 0.42429 0.0
C532 C 0.40677 0.77753 0.38123 0.0
C533 C 0.39331 0.76558 0.33559 0.0
H534 H 0.48225 0.75225 0.86364 0.0
H535 H 0.41589 0.68269 0.76941 0.0
H536 H 0.3798 0.69903 0.7896 0.0
H537 H 0.42606 0.7488 0.95699 0.0
H538 H 0.44956 0.78869 0.96657 0.0
H539 H 0.46574 0.76616 0.94852 0.0
H540 H 0.49092 0.80473 0.87467 0.0
H541 H 0.47164 0.82409 0.8934 0.0
H542 H 0.46642 0.8089 0.83248 0.0
H543 H 0.35129 0.72455 0.8169 0.0
H544 H 0.33526 0.76023 0.84387 0.0
H545 H 0.4205 0.81344 0.91749 0.0
C546 C 0.4601 0.74036 0.8475 0.0
C547 C 0.45204 0.71618 0.81502 0.0
C548 C 0.42274 0.70127 0.79458 0.0
C549 C 0.4019 0.71024 0.80597 0.0
C550 C 0.41054 0.73416 0.83796 0.0
C551 C 0.43892 0.74904 0.85841 0.0
C552 C 0.443 0.77511 0.88955 0.0
C553 C 0.44629 0.76942 0.94366 0.0
C554 C 0.46956 0.80495 0.87145 0.0
C555 C 0.41335 0.77363 0.88098 0.0
C556 C 0.3945 0.74935 0.85239 0.0
C557 C 0.36598 0.74372 0.83925 0.0
C558 C 0.35706 0.76416 0.85448 0.0
C559 C 0.37672 0.79002 0.88173 0.0
C560 C 0.40481 0.79405 0.89644 0.0
H561 H 0.2111 0.58359 0.80912 0.0
H562 H 0.20165 0.59024 0.96533 0.0
H563 H 0.23339 0.64522 0.96078 0.0
H564 H 0.29045 0.65141 0.7985 0.0
H565 H 0.28213 0.66334 0.74158 0.0
H566 H 0.26448 0.62397 0.7558 0.0
H567 H 0.21211 0.61728 0.74424 0.0
H568 H 0.22851 0.6563 0.7286 0.0
H569 H 0.20165 0.64084 0.77772 0.0
H570 H 0.25398 0.69786 0.93759 0.0
H571 H 0.27094 0.74697 0.89808 0.0
H572 H 0.27017 0.70817 0.75698 0.0
C573 C 0.21728 0.59661 0.84257 0.0
C574 C 0.20446 0.5829 0.8877 0.0
C575 C 0.21168 0.60051 0.93062 0.0
C576 C 0.22962 0.63171 0.92835 0.0
C577 C 0.24033 0.64488 0.88291 0.0
C578 C 0.23521 0.62799 0.84083 0.0
C579 C 0.24629 0.64806 0.79602 0.0
C580 C 0.27241 0.6466 0.7716 0.0
C581 C 0.22061 0.64015 0.75954 0.0
C582 C 0.25693 0.67848 0.81935 0.0
C583 C 0.25328 0.67606 0.86952 0.0
C584 C 0.25793 0.7003 0.89857 0.0
C585 C 0.26714 0.72792 0.87586 0.0
C586 C 0.27193 0.73105 0.82484 0.0
C587 C 0.26705 0.70619 0.79624 0.0
H588 H 0.26869 0.5089 0.86462 0.0
H589 H 0.26611 0.58171 0.78872 0.0
H590 H 0.31812 0.6164 0.8129 0.0
H591 H 0.31897 0.5576 0.96616 0.0
H592 H 0.33832 0.53659 0.96933 0.0
H593 H 0.29932 0.51804 0.95208 0.0
H594 H 0.31145 0.49946 0.87169 0.0
H595 H 0.35018 0.51744 0.88962 0.0
H596 H 0.34009 0.52645 0.83176 0.0
H597 H 0.37187 0.64161 0.83517 0.0
H598 H 0.42406 0.65524 0.85441 0.0
H599 H 0.3918 0.5668 0.91696 0.0
C600 C 0.27895 0.53222 0.85373 0.0
C601 C 0.26334 0.54248 0.82449 0.0
C602 C 0.27757 0.57323 0.81102 0.0
C603 C 0.30711 0.59324 0.82481 0.0
C604 C 0.32208 0.58234 0.85275 0.0
C605 C 0.30847 0.55265 0.86757 0.0
C606 C 0.3303 0.54638 0.8948 0.0
C607 C 0.32118 0.53924 0.9488 0.0
C608 C 0.33316 0.52093 0.87048 0.0
C609 C 0.35872 0.57652 0.8894 0.0
C610 C 0.35333 0.59718 0.86624 0.0
C611 C 0.37643 0.62583 0.85398 0.0
C612 C 0.40598 0.63333 0.86465 0.0
C613 C 0.41209 0.61215 0.88672 0.0
C614 C 0.38797 0.5837 0.9004 0.0
H615 H 0.74378 0.47507 0.62497 0.0
H616 H 0.67892 0.41162 0.72766 0.0
H617 H 0.69377 0.3745 0.70585 0.0
H618 H 0.73862 0.41689 0.53273 0.0
H619 H 0.77823 0.44008 0.52107 0.0
H620 H 0.75616 0.45692 0.53834 0.0
H621 H 0.79511 0.48389 0.61131 0.0
H622 H 0.8148 0.46509 0.59201 0.0
H623 H 0.80081 0.46051 0.65368 0.0
H624 H 0.71993 0.34661 0.68089 0.0
H625 H 0.758 0.33275 0.65962 0.0
H626 H 0.80598 0.41432 0.57418 0.0
C627 C 0.73232 0.45316 0.64212 0.0
C628 C 0.70973 0.44604 0.67736 0.0
C629 C 0.69562 0.41726 0.69952 0.0
C630 C 0.70394 0.39599 0.68742 0.0
C631 C 0.72641 0.40374 0.65284 0.0
C632 C 0.74042 0.43163 0.63049 0.0
C633 C 0.76609 0.43549 0.59862 0.0
C634 C 0.75943 0.43748 0.54446 0.0
C635 C 0.79594 0.46285 0.61485 0.0
C636 C 0.76546 0.40632 0.60898 0.0
C637 C 0.74192 0.38787 0.63921 0.0
C638 C 0.73827 0.36076 0.65671 0.0
C639 C 0.76004 0.35303 0.64455 0.0
C640 C 0.78523 0.37251 0.61588 0.0
C641 C 0.78705 0.3988 0.59624 0.0
H642 H 0.61719 0.41128 0.69012 0.0
H643 H 0.59774 0.40724 0.53529 0.0
H644 H 0.57724 0.35243 0.53592 0.0
H645 H 0.63452 0.34936 0.69477 0.0
H646 H 0.61405 0.33293 0.75042 0.0
H647 H 0.63166 0.37277 0.74136 0.0
H648 H 0.58331 0.374 0.7529 0.0
H649 H 0.56448 0.33453 0.76671 0.0
H650 H 0.55027 0.34826 0.71913 0.0
H651 H 0.5507 0.2984 0.55551 0.0
H652 H 0.52332 0.24773 0.59249 0.0
H653 H 0.56043 0.28563 0.73429 0.0
C654 C 0.60989 0.39891 0.65607 0.0
C655 C 0.6095 0.41329 0.61241 0.0
C656 C 0.5985 0.39645 0.56885 0.0
C657 C 0.58685 0.36539 0.56887 0.0
C658 C 0.58629 0.35154 0.61284 0.0
C659 C 0.59778 0.36768 0.65565 0.0
C660 C 0.59078 0.34677 0.69895 0.0
C661 C 0.61952 0.35071 0.72266 0.0
C662 C 0.57104 0.35115 0.73662 0.0
C663 C 0.57351 0.3166 0.67378 0.0
C664 C 0.57105 0.31988 0.62414 0.0
C665 C 0.55321 0.29545 0.59404 0.0
C666 C 0.53765 0.26689 0.61526 0.0
C667 C 0.54044 0.26312 0.66575 0.0
C668 C 0.55878 0.28812 0.69528 0.0
H669 H 0.58241 0.21146 0.67815 0.0
H670 H 0.58814 0.18993 0.52676 0.0
H671 H 0.64308 0.22131 0.5297 0.0
H672 H 0.65254 0.29145 0.6751 0.0
H673 H 0.66227 0.28657 0.73632 0.0
H674 H 0.6234 0.2694 0.71857 0.0
H675 H 0.61549 0.21776 0.74649 0.0
H676 H 0.65436 0.23442 0.76279 0.0
H677 H 0.6381 0.2037 0.71988 0.0
H678 H 0.69551 0.24297 0.55369 0.0
H679 H 0.74404 0.26069 0.59514 0.0
H680 H 0.70614 0.2705 0.73056 0.0
C681 C 0.59523 0.21486 0.64502 0.0
C682 C 0.58127 0.19866 0.60213 0.0
C683 C 0.59861 0.20241 0.55984 0.0
C684 C 0.62979 0.22021 0.56113 0.0
C685 C 0.64319 0.23437 0.60485 0.0
C686 C 0.62655 0.23263 0.64579 0.0
C687 C 0.64671 0.24688 0.68975 0.0
C688 C 0.6462 0.27526 0.70588 0.0
C689 C 0.63815 0.22434 0.73218 0.0
C690 C 0.67681 0.25474 0.66788 0.0
C691 C 0.67425 0.24768 0.6187 0.0
C692 C 0.69806 0.24947 0.5918 0.0
C693 C 0.72535 0.25904 0.61569 0.0
C694 C 0.72857 0.26674 0.66574 0.0
C695 C 0.70416 0.265 0.692 0.0
H696 H 0.47187 0.52127 0.93009 0.0
H697 H 0.56819 0.5707 0.95464 0.0
H698 H 0.56066 0.54575 0.03427 0.0
H699 H 0.44958 0.52168 0.05406 0.0
H700 H 0.41829 0.48382 0.05278 0.0
H701 H 0.4301 0.50581 0.99746 0.0
H702 H 0.43868 0.46556 0.95211 0.0
H703 H 0.42276 0.44306 0.00591 0.0
H704 H 0.45875 0.45048 0.98424 0.0
H705 H 0.54236 0.52235 0.11637 0.0
H706 H 0.52043 0.47884 0.17129 0.0
H707 H 0.43767 0.43963 0.0886 0.0
C708 C 0.49154 0.52644 0.95155 0.0
C709 C 0.52055 0.54906 0.9369 0.0
C710 C 0.54563 0.55417 0.96556 0.0
C711 C 0.54157 0.54061 0.01135 0.0
C712 C 0.5124 0.52153 0.02736 0.0
C713 C 0.48801 0.51277 0.99707 0.0
C714 C 0.45946 0.48874 0.02081 0.0
C715 C 0.4381 0.50074 0.03191 0.0
C716 C 0.44405 0.4603 0.98883 0.0
C717 C 0.47213 0.48386 0.06771 0.0
C718 C 0.50223 0.50493 0.07241 0.0
C719 C 0.51909 0.50513 0.11223 0.0
C720 C 0.50616 0.48051 0.14384 0.0
C721 C 0.47849 0.4549 0.13099 0.0
C722 C 0.45946 0.45844 0.09781 0.0
H723 H 0.55043 0.99553 0.0815 0.0
H724 H 0.5152 0.04985 0.14192 0.0
H725 H 0.47778 0.03275 0.07653 0.0
H726 H 0.55072 0.00199 0.97361 0.0
H727 H 0.5303 0.96667 0.9419 0.0
H728 H 0.54736 0.96897 0.00032 0.0
H729 H 0.50147 0.93429 0.05045 0.0
H730 H 0.48551 0.92281 0.99037 0.0
H731 H 0.46625 0.9321 0.03555 0.0
H732 H 0.45501 0.02209 0.99426 0.0
H733 H 0.42585 0.99512 0.92162 0.0
H734 H 0.47286 0.94475 0.91669 0.0
C735 C 0.53379 0.00251 0.08273 0.0
C736 C 0.53709 0.02571 0.11472 0.0
C737 C 0.51408 0.0332 0.1164 0.0
C738 C 0.49291 0.02393 0.07895 0.0
C739 C 0.49367 0.00528 0.04292 0.0
C740 C 0.51144 0.99228 0.04683 0.0
C741 C 0.50598 0.97115 0.00422 0.0
C742 C 0.53522 0.97768 0.97834 0.0
C743 C 0.4888 0.93819 0.0213 0.0
C744 C 0.48581 0.97796 0.97278 0.0
C745 C 0.47875 0.99738 0.99636 0.0
C746 C 0.45938 0.00595 0.97618 0.0
C747 C 0.44338 0.99096 0.93426 0.0
C748 C 0.44607 0.9669 0.91481 0.0
C749 C 0.46994 0.96278 0.93093 0.0
H750 H -0.00024 0.56056 0.05395 0.0
H751 H 0.94063 0.4728 0.11768 0.0
H752 H 0.95346 0.44896 0.05191 0.0
H753 H 0.98836 0.54264 0.9296 0.0
H754 H 0.0269 0.56393 0.91136 0.0
H755 H 0.01402 0.57519 0.96422 0.0
H756 H 0.05408 0.57186 0.02069 0.0
H757 H 0.06752 0.56508 0.96406 0.0
H758 H 0.0584 0.53928 0.01377 0.0
H759 H 0.96811 0.43367 0.97641 0.0
H760 H -0.00193 0.42859 0.91115 0.0
H761 H 0.04955 0.52579 0.89736 0.0
C762 C 0.99004 0.53641 0.0547 0.0
C763 C 0.96842 0.51862 0.09031 0.0
C764 C 0.95676 0.48707 0.09045 0.0
C765 C 0.9636 0.47315 0.05285 0.0
C766 C 0.98292 0.49107 0.01624 0.0
C767 C -0.00276 0.52206 0.018 0.0
C768 C 0.0192 0.53591 0.97597 0.0
C769 C 0.01161 0.55554 0.94343 0.0
C770 C 0.05166 0.55408 0.99487 0.0
C771 C 0.01391 0.50771 0.94966 0.0
C772 C 0.99262 0.48217 0.97327 0.0
C773 C 0.98514 0.45346 0.95782 0.0
C774 C 0.00196 0.45079 0.92009 0.0
C775 C 0.0267 0.47675 0.89998 0.0
C776 C 0.03089 0.50542 0.91195 0.0
H777 H 0.43304 0.45054 0.45721 0.0
H778 H 0.47043 0.53467 0.37784 0.0
H779 H 0.51391 0.55677 0.43306 0.0
H780 H 0.4477 0.47863 0.56778 0.0
H781 H 0.45858 0.45406 0.59654 0.0
H782 H 0.4341 0.44114 0.5443 0.0
H783 H 0.47148 0.43039 0.49388 0.0
H784 H 0.49249 0.43928 0.55005 0.0
H785 H 0.51078 0.45857 0.49475 0.0
H786 H 0.54418 0.57352 0.5094 0.0
H787 H 0.5746 0.57854 0.58181 0.0
H788 H 0.51851 0.483 0.61016 0.0
C789 C 0.45135 0.47287 0.44915 0.0
C790 C 0.44798 0.49123 0.41432 0.0
C791 C 0.47239 0.52043 0.40503 0.0
C792 C 0.49694 0.53336 0.43673 0.0
C793 C 0.49732 0.51611 0.47551 0.0
C794 C 0.47628 0.48597 0.48013 0.0
C795 C 0.48109 0.47312 0.52688 0.0
C796 C 0.45369 0.46098 0.56083 0.0
C797 C 0.48944 0.44891 0.51564 0.0
C798 C 0.50727 0.50097 0.54834 0.0
C799 C 0.51589 0.5256 0.51858 0.0
C800 C 0.5385 0.55413 0.53199 0.0
C801 C 0.5552 0.55684 0.57391 0.0
C802 C 0.54995 0.53087 0.60028 0.0
C803 C 0.52375 0.50321 0.59015 0.0
H804 H 0.54503 0.98401 0.43676 0.0
H805 H 0.46044 0.93878 0.35845 0.0
H806 H 0.43963 0.96106 0.41429 0.0
H807 H 0.52342 0.97546 0.5463 0.0
H808 H 0.54599 0.01171 0.57389 0.0
H809 H 0.55947 0.0013 0.52088 0.0
H810 H 0.56468 0.04619 0.46741 0.0
H811 H 0.55762 0.05862 0.52496 0.0
H812 H 0.53544 0.05568 0.47259 0.0
H813 H 0.42347 0.9728 0.49287 0.0
H814 H 0.41881 0.99762 0.56648 0.0
H815 H 0.51495 0.03967 0.58997 0.0
C816 C 0.52282 0.98035 0.42924 0.0
C817 C 0.50373 0.95828 0.39514 0.0
C818 C 0.47508 0.95474 0.38561 0.0
C819 C 0.46288 0.96697 0.41757 0.0
C820 C 0.48054 0.98442 0.45621 0.0
C821 C 0.51063 0.99336 0.45986 0.0
C822 C 0.52434 0.01235 0.50535 0.0
C823 C 0.53917 -0.00059 0.53855 0.0
C824 C 0.54684 0.04511 0.49164 0.0
C825 C 0.49654 0.0099 0.52872 0.0
C826 C 0.47157 0.99353 0.49985 0.0
C827 C 0.44309 0.98693 0.5147 0.0
C828 C 0.4406 0.00063 0.55724 0.0
C829 C 0.46668 0.02171 0.58288 0.0
C830 C 0.49458 0.02423 0.57078 0.0
H831 H 0.93477 0.47221 0.59746 0.0
H832 H -0.00353 0.43877 0.61878 0.0
H833 H 0.02972 0.47382 0.55577 0.0
H834 H 0.93944 0.47195 0.47235 0.0
H835 H 0.93562 0.5044 0.46162 0.0
H836 H 0.91929 0.48177 0.51535 0.0
H837 H 0.94714 0.52776 0.56904 0.0
H838 H 0.96527 0.55188 0.51749 0.0
H839 H 0.98715 0.55018 0.56737 0.0
H840 H 0.04771 0.50022 0.47729 0.0
H841 H 0.0628 0.53375 0.40682 0.0
H842 H 0.9916 0.5535 0.43792 0.0
C843 C 0.95609 0.47338 0.59115 0.0
C844 C 0.9629 0.45244 0.61277 0.0
C845 C 0.99085 0.45458 0.60275 0.0
C846 C 0.00956 0.47399 0.56632 0.0
C847 C 7e-05 0.49128 0.54115 0.0
C848 C 0.97468 0.4922 0.55429 0.0
C849 C 0.96824 0.51084 0.51854 0.0
C850 C 0.93892 0.49106 0.49033 0.0
C851 C 0.96701 0.53674 0.54457 0.0
C852 C 0.995 0.52153 0.48476 0.0
C853 C 0.01194 0.50849 0.49712 0.0
C854 C 0.03545 0.51157 0.46826 0.0
C855 C 0.04355 0.53049 0.42779 0.0
C856 C 0.02908 0.54728 0.41781 0.0
C857 C 0.00355 0.54162 0.44542 0.0
H858 H 0.49994 0.45071 0.9463 0.0
H859 H 0.4537 0.3566 0.90761 0.0
H860 H 0.46962 0.37011 0.82178 0.0
H861 H 0.49037 0.47897 0.8127 0.0
H862 H 0.52623 0.51221 0.82291 0.0
H863 H 0.50038 0.49491 0.873 0.0
H864 H 0.54323 0.4932 0.92019 0.0
H865 H 0.56791 0.50849 0.8691 0.0
H866 H 0.56002 0.47281 0.8941 0.0
H867 H 0.50486 0.39162 0.75324 0.0
H868 H 0.55241 0.41916 0.70748 0.0
H869 H 0.57424 0.50028 0.78659 0.0
C870 C 0.49141 0.43316 0.91889 0.0
C871 C 0.47531 0.40273 0.93305 0.0
C872 C 0.46546 0.38005 0.89711 0.0
C873 C 0.47446 0.38762 0.84825 0.0
C874 C 0.49239 0.41794 0.83593 0.0
C875 C 0.49975 0.44051 0.87002 0.0
C876 C 0.52329 0.47083 0.85032 0.0
C877 C 0.50924 0.49039 0.83902 0.0
C878 C 0.55018 0.4872 0.88549 0.0
C879 C 0.53165 0.46111 0.80351 0.0
C880 C 0.51256 0.43076 0.79451 0.0
C881 C 0.51902 0.41558 0.75847 0.0
C882 C 0.54606 0.43131 0.73264 0.0
C883 C 0.56616 0.46185 0.74295 0.0
C884 C 0.55834 0.47721 0.77708 0.0
H885 H 0.62484 0.1087 0.90738 0.0
H886 H 0.53939 0.0376 0.95797 0.0
H887 H 0.51861 0.03072 0.87525 0.0
H888 H 0.59278 0.14339 0.8575 0.0
H889 H 0.61785 0.16049 0.80645 0.0
H890 H 0.63078 0.15052 0.86008 0.0
H891 H 0.64568 0.11816 0.80726 0.0
H892 H 0.63246 0.12804 0.75324 0.0
H893 H 0.61812 0.08911 0.76848 0.0
H894 H 0.50365 0.03779 0.79416 0.0
H895 H 0.49098 0.06581 0.7351 0.0
H896 H 0.58205 0.14032 0.74227 0.0
C897 C 0.60246 0.0904 0.89966 0.0
C898 C 0.5845 0.07138 0.93757 0.0
C899 C 0.55424 0.04998 0.92818 0.0
C900 C 0.54222 0.04629 0.88123 0.0
C901 C 0.56018 0.06572 0.84442 0.0
C902 C 0.58949 0.0881 0.85358 0.0
C903 C 0.60062 0.112 0.81408 0.0
C904 C 0.61107 0.14341 0.83585 0.0
C905 C 0.62571 0.1118 0.78398 0.0
C906 C 0.57236 0.10081 0.7838 0.0
C907 C 0.55006 0.073 0.79982 0.0
C908 C 0.52105 0.05932 0.78072 0.0
C909 C 0.51404 0.07533 0.74699 0.0
C910 C 0.53564 0.1051 0.73445 0.0
C911 C 0.56544 0.11735 0.751 0.0
H912 H 0.90672 0.41444 0.7849 0.0
H913 H 0.84244 0.4332 0.71601 0.0
H914 H 0.86304 0.48095 0.76235 0.0
H915 H 0.89413 0.42886 0.8941 0.0
H916 H 0.93122 0.44561 0.91956 0.0
H917 H 0.92136 0.42019 0.86914 0.0
H918 H 0.96496 0.45918 0.81814 0.0
H919 H 0.9764 0.48662 0.86642 0.0
H920 H 0.96879 0.49547 0.80661 0.0
H921 H 0.88309 0.52023 0.82815 0.0
H922 H 0.89491 0.54223 0.9112 0.0
H923 H 0.94184 0.49402 0.94199 0.0
C924 C 0.89824 0.42956 0.77782 0.0
C925 C 0.87383 0.42103 0.74629 0.0
C926 C 0.8618 0.44012 0.73935 0.0
C927 C 0.87346 0.46724 0.76536 0.0
C928 C 0.89684 0.47457 0.79833 0.0
C929 C 0.90904 0.45612 0.80453 0.0
C930 C 0.92888 0.46487 0.84912 0.0
C931 C 0.91825 0.43832 0.88504 0.0
C932 C 0.9617 0.47723 0.83409 0.0
C933 C 0.92413 0.4895 0.86944 0.0
C934 C 0.9069 0.49595 0.83847 0.0
C935 C 0.89721 0.5159 0.85209 0.0
C936 C 0.90413 0.52842 0.89927 0.0
C937 C 0.91965 0.52006 0.93257 0.0
C938 C 0.93057 0.50126 0.9167 0.0
H939 H 0.41106 0.57147 0.76084 0.0
H940 H 0.48198 0.55007 0.77252 0.0
H941 H 0.4508 0.50287 0.72641 0.0
H942 H 0.34353 0.49278 0.74817 0.0
H943 H 0.32785 0.50436 0.69964 0.0
H944 H 0.34837 0.53007 0.74826 0.0
H945 H 0.38508 0.57031 0.68992 0.0
H946 H 0.36432 0.54691 0.63972 0.0
H947 H 0.40402 0.56057 0.64421 0.0
H948 H 0.41845 0.46629 0.66101 0.0
H949 H 0.39345 0.4495 0.58042 0.0
H950 H 0.34805 0.49974 0.60396 0.0
C951 C 0.41932 0.55597 0.75578 0.0
C952 C 0.44868 0.56411 0.77017 0.0
C953 C 0.45926 0.54387 0.76245 0.0
C954 C 0.44164 0.51705 0.73616 0.0
C955 C 0.41366 0.51103 0.71823 0.0
C956 C 0.40257 0.53008 0.72817 0.0
C957 C 0.37649 0.52391 0.69527 0.0
C958 C 0.34733 0.51201 0.72466 0.0
C959 C 0.38292 0.55206 0.66553 0.0
C960 C 0.37567 0.49972 0.663 0.0
C961 C 0.39623 0.49146 0.67799 0.0
C962 C 0.4019 0.47216 0.64977 0.0
C963 C 0.38767 0.46271 0.60407 0.0
C964 C 0.36916 0.47362 0.58651 0.0
C965 C 0.36179 0.49081 0.61739 0.0
H966 H 0.41959 0.91382 0.7268 0.0
H967 H 0.44065 0.85482 0.80778 0.0
H968 H 0.48669 0.87201 0.75883 0.0
H969 H 0.42668 0.8931 0.62305 0.0
H970 H 0.44316 0.92804 0.58967 0.0
H971 H 0.42198 0.92385 0.64367 0.0
H972 H 0.46707 0.9709 0.68048 0.0
H973 H 0.48908 0.97506 0.62667 0.0
H974 H 0.50289 0.97287 0.68605 0.0
H975 H 0.51989 0.88255 0.68756 0.0
H976 H 0.53331 0.88178 0.6008 0.0
H977 H 0.48522 0.92731 0.56034 0.0
C978 C 0.43525 0.90637 0.73614 0.0
C979 C 0.42752 0.88394 0.77155 0.0
C980 C 0.44705 0.87286 0.78166 0.0
C981 C 0.47321 0.88255 0.75395 0.0
C982 C 0.47915 0.90298 0.71601 0.0
C983 C 0.46074 0.91507 0.70746 0.0
C984 C 0.46678 0.92992 0.65776 0.0
C985 C 0.43795 0.91793 0.62678 0.0
C986 C 0.48238 0.96423 0.66313 0.0
C987 C 0.48819 0.92066 0.63724 0.0
C988 C 0.49685 0.90715 0.67232 0.0
C989 C 0.51401 0.8939 0.66021 0.0
C990 C 0.52148 0.89344 0.61091 0.0
C991 C 0.51066 0.90503 0.57455 0.0
C992 C 0.49458 0.91938 0.58807 0.0
H993 H 0.15045 0.58256 0.74739 0.0
H994 H 0.06706 0.49876 0.76446 0.0
H995 H 0.0413 0.51844 0.71319 0.0
H996 H 0.11404 0.63361 0.73249 0.0
H997 H 0.14259 0.6561 0.68844 0.0
H998 H 0.15155 0.63993 0.73964 0.0
H999 H 0.17145 0.6149 0.6799 0.0
H1000 H 0.16237 0.63055 0.62888 0.0
H1001 H 0.14711 0.59049 0.63249 0.0
H1002 H 0.03046 0.53844 0.63944 0.0
H1003 H 0.0342 0.55984 0.55734 0.0
H1004 H 0.12232 0.63313 0.59031 0.0
C1005 C 0.12641 0.56914 0.7424 0.0
C1006 C 0.11059 0.53935 0.75965 0.0
C1007 C 0.07935 0.52185 0.75205 0.0
C1008 C 0.06461 0.5329 0.72292 0.0
C1009 C 0.08135 0.56171 0.70309 0.0
C1010 C 0.11146 0.58004 0.71386 0.0
C1011 C 0.12565 0.60784 0.68196 0.0
C1012 C 0.13393 0.63604 0.71246 0.0
C1013 C 0.15321 0.61107 0.65417 0.0
C1014 C 0.09983 0.60073 0.64782 0.0
C1015 C 0.07419 0.57439 0.66141 0.0
C1016 C 0.04964 0.55996 0.63007 0.0
C1017 C 0.05169 0.57221 0.58359 0.0
C1018 C 0.07763 0.59878 0.56915 0.0
C1019 C 0.10157 0.61375 0.6021 0.0
H1020 H 0.42244 0.58074 0.2485 0.0
H1021 H 0.43562 0.50556 0.27765 0.0
H1022 H 0.48371 0.531 0.23234 0.0
H1023 H 0.43736 0.58621 0.1344 0.0
H1024 H 0.45627 0.62648 0.12778 0.0
H1025 H 0.43051 0.60891 0.17705 0.0
H1026 H 0.47163 0.64181 0.23962 0.0
H1027 H 0.49777 0.65992 0.19016 0.0
H1028 H 0.50699 0.64256 0.23919 0.0
H1029 H 0.52059 0.55656 0.16463 0.0
H1030 H 0.54084 0.57819 0.08321 0.0
H1031 H 0.50271 0.63586 0.09596 0.0
C1032 C 0.4364 0.57051 0.24752 0.0
C1033 C 0.42565 0.54144 0.26652 0.0
C1034 C 0.44384 0.52812 0.26398 0.0
C1035 C 0.47116 0.54246 0.23818 0.0
C1036 C 0.48004 0.57024 0.21614 0.0
C1037 C 0.46336 0.58442 0.22161 0.0
C1038 C 0.47384 0.61082 0.18716 0.0
C1039 C 0.44797 0.60786 0.1547 0.0
C1040 C 0.48844 0.64054 0.21575 0.0
C1041 C 0.49697 0.60758 0.15786 0.0
C1042 C 0.50123 0.58489 0.1763 0.0
C1043 C 0.51816 0.57493 0.15086 0.0
C1044 C 0.52961 0.5873 0.10461 0.0
C1045 C 0.52367 0.60896 0.08413 0.0
C1046 C 0.50844 0.62015 0.11202 0.0
H1047 H 0.42805 0.94141 0.08139 0.0
H1048 H 0.33599 0.87064 0.09815 0.0
H1049 H 0.3464 0.86265 0.18303 0.0
H1050 H 0.46252 0.91356 0.12655 0.0
H1051 H 0.49113 0.94316 0.16355 0.0
H1052 H 0.47423 0.95253 0.11516 0.0
H1053 H 0.45871 0.98135 0.17262 0.0
H1054 H 0.47617 0.97282 0.22239 0.0
H1055 H 0.43753 0.96337 0.22698 0.0
H1056 H 0.37015 0.8491 0.24727 0.0
H1057 H 0.40396 0.83472 0.28722 0.0
H1058 H 0.48084 0.91645 0.23631 0.0
C1059 C 0.40978 0.92572 0.1044 0.0
C1060 C 0.38121 0.90685 0.08392 0.0
C1061 C 0.35781 0.88573 0.11376 0.0
C1062 C 0.36359 0.88109 0.16209 0.0
C1063 C 0.39263 0.89854 0.1805 0.0
C1064 C 0.41513 0.92152 0.15332 0.0
C1065 C 0.4453 0.9338 0.1786 0.0
C1066 C 0.46968 0.93569 0.14389 0.0
C1067 C 0.45498 0.96465 0.20152 0.0
C1068 C 0.43729 0.91037 0.21805 0.0
C1069 C 0.40649 0.89128 0.22051 0.0
C1070 C 0.39406 0.86465 0.24739 0.0
C1071 C 0.4134 0.85655 0.26991 0.0
C1072 C 0.44477 0.875 0.26548 0.0
C1073 C 0.45684 0.90282 0.24149 0.0
H1074 H 0.04755 0.48947 0.06218 0.0
H1075 H 0.10564 0.45392 0.0968 0.0
H1076 H 0.1075 0.46911 0.18277 0.0
H1077 H 0.07788 0.54955 0.11193 0.0
H1078 H 0.04849 0.55284 0.1423 0.0
H1079 H 0.03927 0.52743 0.09251 0.0
H1080 H 0.00183 0.48199 0.14298 0.0
H1081 H 0.00874 0.50794 0.19242 0.0
H1082 H 0.01269 0.47543 0.20208 0.0
H1083 H 0.11962 0.50445 0.24897 0.0
H1084 H 0.13749 0.55275 0.29126 0.0
H1085 H 0.0689 0.56391 0.2205 0.0
C1086 C 0.05903 0.48329 0.08888 0.0
C1087 C 0.07637 0.47054 0.07351 0.0
C1088 C 0.09185 0.46323 0.10834 0.0
C1089 C 0.09291 0.47175 0.15731 0.0
C1090 C 0.07746 0.48651 0.17098 0.0
C1091 C 0.05958 0.49099 0.13821 0.0
C1092 C 0.04927 0.51151 0.15984 0.0
C1093 C 0.05421 0.53693 0.12458 0.0
C1094 C 0.01618 0.49315 0.17529 0.0
C1095 C 0.06926 0.52291 0.20447 0.0
C1096 C 0.08379 0.50669 0.21207 0.0
C1097 C 0.10741 0.51636 0.24519 0.0
C1098 C 0.11748 0.54384 0.26904 0.0
C1099 C 0.10384 0.56125 0.25993 0.0
C1100 C 0.07862 0.55008 0.22923 0.0
H1101 H 0.5067 0.43125 0.27737 0.0
H1102 H 0.58978 0.44942 0.20932 0.0
H1103 H 0.61702 0.49682 0.2556 0.0
H1104 H 0.53102 0.51647 0.30236 0.0
H1105 H 0.51212 0.50612 0.3604 0.0
H1106 H 0.49652 0.48119 0.30881 0.0
H1107 H 0.4958 0.43782 0.35758 0.0
H1108 H 0.50956 0.46219 0.40919 0.0
H1109 H 0.52966 0.44403 0.38759 0.0
H1110 H 0.63688 0.5323 0.32392 0.0
H1111 H 0.64771 0.54855 0.40995 0.0
H1112 H 0.55257 0.5056 0.43976 0.0
C1113 C 0.53029 0.44639 0.27024 0.0
C1114 C 0.54618 0.43752 0.23913 0.0
C1115 C 0.57726 0.45658 0.23206 0.0
C1116 C 0.59284 0.48355 0.2582 0.0
C1117 C 0.57698 0.49093 0.29151 0.0
C1118 C 0.5462 0.47298 0.29721 0.0
C1119 C 0.53545 0.48188 0.34234 0.0
C1120 C 0.51772 0.49733 0.32752 0.0
C1121 C 0.5166 0.45485 0.37613 0.0
C1122 C 0.56529 0.50427 0.36503 0.0
C1123 C 0.58881 0.51083 0.33347 0.0
C1124 C 0.61866 0.52805 0.3484 0.0
C1125 C 0.62468 0.53726 0.39739 0.0
C1126 C 0.60093 0.52835 0.43108 0.0
C1127 C 0.57101 0.51302 0.41418 0.0
H1128 H 0.48173 0.04819 0.42258 0.0
H1129 H 0.45497 0.115 0.40481 0.0
H1130 H 0.47662 0.12607 0.32198 0.0
H1131 H 0.54541 0.08066 0.38419 0.0
H1132 H 0.54885 0.05387 0.34605 0.0
H1133 H 0.52048 0.04073 0.39195 0.0
H1134 H 0.47849 0.01126 0.33092 0.0
H1135 H 0.50648 0.02235 0.28363 0.0
H1136 H 0.47574 0.02932 0.27637 0.0
H1137 H 0.51671 0.14337 0.26123 0.0
H1138 H 0.56551 0.15998 0.22123 0.0
H1139 H 0.56425 0.0796 0.27087 0.0
C1140 C 0.47855 0.0635 0.39956 0.0
C1141 C 0.46646 0.08053 0.41947 0.0
C1142 C 0.46351 0.10127 0.38964 0.0
C1143 C 0.47588 0.10774 0.34251 0.0
C1144 C 0.49003 0.09241 0.32518 0.0
C1145 C 0.49006 0.0695 0.35178 0.0
C1146 C 0.5104 0.05957 0.32809 0.0
C1147 C 0.53267 0.05882 0.36478 0.0
C1148 C 0.49166 0.02882 0.30326 0.0
C1149 C 0.52589 0.08402 0.29009 0.0
C1150 C 0.51279 0.10185 0.28734 0.0
C1151 C 0.52628 0.12883 0.26135 0.0
C1152 C 0.55409 0.13825 0.23906 0.0
C1153 C 0.56803 0.12068 0.24263 0.0
C1154 C 0.55328 0.09274 0.26663 0.0
H1155 H 0.85176 0.41844 0.2567 0.0
H1156 H 0.93378 0.50428 0.24962 0.0
H1157 H 0.95929 0.48422 0.30083 0.0
H1158 H 0.85196 0.40659 0.37127 0.0
H1159 H 0.83776 0.36665 0.37066 0.0
H1160 H 0.82963 0.38381 0.32076 0.0
H1161 H 0.85263 0.36228 0.26008 0.0
H1162 H 0.86086 0.34477 0.31018 0.0
H1163 H 0.89036 0.36958 0.26925 0.0
H1164 H 0.96961 0.46149 0.37254 0.0
H1165 H 0.96439 0.43744 0.45289 0.0
H1166 H 0.87715 0.36484 0.41122 0.0
C1167 C 0.87551 0.4324 0.26409 0.0
C1168 C 0.89095 0.46269 0.24956 0.0
C1169 C 0.9218 0.48081 0.26007 0.0
C1170 C 0.93642 0.46954 0.28908 0.0
C1171 C 0.91999 0.43995 0.30588 0.0
C1172 C 0.89033 0.42133 0.29249 0.0
C1173 C 0.87601 0.39238 0.32135 0.0
C1174 C 0.84721 0.38712 0.34757 0.0
C1175 C 0.86961 0.36568 0.28823 0.0
C1176 C 0.90101 0.39899 0.35699 0.0
C1177 C 0.92662 0.4261 0.34655 0.0
C1178 C 0.95039 0.43958 0.37971 0.0
C1179 C 0.94736 0.42577 0.42523 0.0
C1180 C 0.92083 0.39884 0.43686 0.0
C1181 C 0.89815 0.38465 0.40166 0.0
H1182 H 0.36895 0.41692 0.32689 0.0
H1183 H 0.27694 0.35148 0.29019 0.0
H1184 H 0.29383 0.31711 0.25909 0.0
H1185 H 0.39823 0.40971 0.22043 0.0
H1186 H 0.43299 0.41538 0.24568 0.0
H1187 H 0.41328 0.43153 0.27544 0.0
H1188 H 0.41163 0.40457 0.35634 0.0
H1189 H 0.43202 0.38882 0.32712 0.0
H1190 H 0.39661 0.36449 0.35643 0.0
H1191 H 0.32223 0.29235 0.22396 0.0
H1192 H 0.35944 0.28098 0.18599 0.0
H1193 H 0.43159 0.366 0.23907 0.0
C1194 C 0.35208 0.3949 0.31415 0.0
C1195 C 0.32158 0.38666 0.31154 0.0
C1196 C 0.30041 0.35805 0.29297 0.0
C1197 C 0.3098 0.33842 0.27527 0.0
C1198 C 0.34037 0.34798 0.27616 0.0
C1199 C 0.36113 0.37562 0.29527 0.0
C1200 C 0.39291 0.38282 0.28601 0.0
C1201 C 0.41033 0.41153 0.25505 0.0
C1202 C 0.40924 0.38529 0.33435 0.0
C1203 C 0.38688 0.35524 0.25764 0.0
C1204 C 0.35657 0.33496 0.25314 0.0
C1205 C 0.34601 0.30803 0.22742 0.0
C1206 C 0.36711 0.3018 0.20583 0.0
C1207 C 0.39803 0.32296 0.20906 0.0
C1208 C 0.40791 0.34976 0.23546 0.0
H1209 H 0.56595 0.93975 0.30721 0.0
H1210 H 0.63571 0.91606 0.29975 0.0
H1211 H 0.67084 0.96668 0.26618 0.0
H1212 H 0.58183 0.97489 0.19387 0.0
H1213 H 0.57255 0.00299 0.21174 0.0
H1214 H 0.55475 0.96704 0.24165 0.0
H1215 H 0.57277 0.99287 0.32608 0.0
H1216 H 0.59014 0.02897 0.29652 0.0
H1217 H 0.61205 0.01912 0.33561 0.0
H1218 H 0.69771 0.02064 0.23129 0.0
H1219 H 0.71219 0.07036 0.19451 0.0
H1220 H 0.62173 0.05336 0.21786 0.0
C1221 C 0.58886 0.94536 0.29995 0.0
C1222 C 0.59837 0.92427 0.30706 0.0
C1223 C 0.62819 0.93217 0.29521 0.0
C1224 C 0.6482 0.96077 0.2761 0.0
C1225 C 0.63771 0.98077 0.26833 0.0
C1226 C 0.60859 0.97316 0.2797 0.0
C1227 C 0.60147 0.99697 0.26386 0.0
C1228 C 0.57617 0.98473 0.22551 0.0
C1229 C 0.59367 0.01027 0.30816 0.0
C1230 C 0.63116 0.01934 0.24165 0.0
C1231 C 0.65208 0.01008 0.24512 0.0
C1232 C 0.6814 0.02795 0.22806 0.0
C1233 C 0.68942 0.05601 0.20716 0.0
C1234 C 0.66789 0.06524 0.20249 0.0
C1235 C 0.63849 0.04654 0.21984 0.0
H1236 H 0.04222 0.63582 0.34231 0.0
H1237 H 0.086 0.71998 0.26257 0.0
H1238 H 0.0372 0.70823 0.22721 0.0
H1239 H 0.00046 0.59398 0.24904 0.0
H1240 H 0.96767 0.56882 0.2839 0.0
H1241 H 0.00382 0.58698 0.31265 0.0
H1242 H 0.98481 0.6094 0.37892 0.0
H1243 H 0.94822 0.59086 0.35094 0.0
H1244 H 0.96745 0.63087 0.36094 0.0
H1245 H 0.98536 0.68279 0.18898 0.0
H1246 H 0.93547 0.64645 0.154 0.0
H1247 H 0.92781 0.57902 0.25672 0.0
C1248 C 0.0415 0.65239 0.31894 0.0
C1249 C 0.06794 0.6788 0.30532 0.0
C1250 C 0.06599 0.69963 0.27385 0.0
C1251 C 0.03834 0.69315 0.25355 0.0
C1252 C 0.01295 0.66592 0.26549 0.0
C1253 C 0.01432 0.64607 0.29805 0.0
C1254 C 0.98515 0.61659 0.3 0.0
C1255 C 0.98956 0.59007 0.2855 0.0
C1256 C 0.97054 0.61166 0.35072 0.0
C1257 C 0.96754 0.62239 0.26185 0.0
C1258 C 0.98354 0.65112 0.24289 0.0
C1259 C 0.97239 0.66049 0.20429 0.0
C1260 C 0.94425 0.63984 0.18452 0.0
C1261 C 0.92825 0.61033 0.20311 0.0
C1262 C 0.9398 0.60171 0.24246 0.0
H1263 H 0.58616 0.62983 0.83781 0.0
H1264 H 0.6354 0.71882 0.7739 0.0
H1265 H 0.67195 0.70599 0.73902 0.0
H1266 H 0.65085 0.61858 0.86231 0.0
H1267 H 0.62926 0.57953 0.84532 0.0
H1268 H 0.61091 0.59796 0.87269 0.0
H1269 H 0.57459 0.58201 0.79904 0.0
H1270 H 0.59294 0.56389 0.77119 0.0
H1271 H 0.58963 0.59236 0.73805 0.0
H1272 H 0.69939 0.68053 0.7022 0.0
H1273 H 0.71385 0.64482 0.66713 0.0
H1274 H 0.64436 0.57298 0.75296 0.0
C1275 C 0.60513 0.6471 0.81795 0.0
C1276 C 0.60798 0.67544 0.80901 0.0
C1277 C 0.63286 0.69703 0.78166 0.0
C1278 C 0.65374 0.68993 0.76169 0.0
C1279 C 0.64943 0.66122 0.76954 0.0
C1280 C 0.62575 0.64025 0.79738 0.0
C1281 C 0.62369 0.60992 0.79608 0.0
C1282 C 0.62902 0.60099 0.84714 0.0
C1283 C 0.59344 0.58565 0.7748 0.0
C1284 C 0.64936 0.61675 0.76193 0.0
C1285 C 0.66442 0.64652 0.74753 0.0
C1286 C 0.68801 0.65731 0.71381 0.0
C1287 C 0.69608 0.63702 0.69406 0.0
C1288 C 0.68016 0.60645 0.70767 0.0
C1289 C 0.6569 0.59642 0.74236 0.0
H1290 H 0.36457 0.93547 0.77615 0.0
H1291 H 0.27908 0.92429 0.82209 0.0
H1292 H 0.29413 0.9752 0.78969 0.0
H1293 H 0.41055 0.01317 0.80098 0.0
H1294 H 0.43342 0.02004 0.7473 0.0
H1295 H 0.41564 0.98364 0.77573 0.0
H1296 H 0.39045 0.95929 0.69312 0.0
H1297 H 0.40794 0.99573 0.66473 0.0
H1298 H 0.36779 0.97185 0.66227 0.0
H1299 H 0.32156 0.02972 0.75623 0.0
H1300 H 0.35638 0.07976 0.72019 0.0
H1301 H 0.42007 0.05002 0.68952 0.0
C1302 C 0.34912 0.94389 0.77982 0.0
C1303 C 0.32102 0.92656 0.8024 0.0
C1304 C 0.30091 0.93767 0.80534 0.0
C1305 C 0.30926 0.96641 0.78699 0.0
C1306 C 0.33733 0.98302 0.76471 0.0
C1307 C 0.35667 0.9718 0.76051 0.0
C1308 C 0.38504 0.99309 0.73366 0.0
C1309 C 0.41278 0.00308 0.76638 0.0
C1310 C 0.38794 0.97915 0.6856 0.0
C1311 C 0.37908 0.0185 0.72412 0.0
C1312 C 0.35168 0.01266 0.74251 0.0
C1313 C 0.34278 0.03425 0.74087 0.0
C1314 C 0.3626 0.06253 0.72034 0.0
C1315 C 0.39059 0.06855 0.70107 0.0
C1316 C 0.39848 0.04595 0.70251 0.0
H1317 H 0.93825 0.36804 0.71639 0.0
H1318 H 0.9195 0.27665 0.69595 0.0
H1319 H 0.9702 0.29134 0.72836 0.0
H1320 H 0.01576 0.4066 0.68593 0.0
H1321 H 0.02547 0.43474 0.73265 0.0
H1322 H 0.98866 0.41682 0.70579 0.0
H1323 H 0.96462 0.40067 0.79162 0.0
H1324 H 0.00137 0.41865 0.81867 0.0
H1325 H 0.97544 0.37957 0.8309 0.0
H1326 H 0.02519 0.31839 0.76045 0.0
H1327 H 0.07589 0.35335 0.79425 0.0
H1328 H 0.05316 0.42391 0.79989 0.0
C1329 C 0.94488 0.35112 0.71801 0.0
C1330 C 0.92536 0.32138 0.7028 0.0
C1331 C 0.93445 0.29968 0.70698 0.0
C1332 C 0.96309 0.30783 0.72534 0.0
C1333 C 0.9818 0.33751 0.74034 0.0
C1334 C 0.9727 0.3586 0.73736 0.0
C1335 C -0.0042 0.38859 0.75779 0.0
C1336 C 0.0071 0.41312 0.71816 0.0
C1337 C 0.98356 0.39734 0.8024 0.0
C1338 C 0.01967 0.38135 0.7724 0.0
C1339 C 0.01165 0.35201 0.76169 0.0
C1340 C 0.03143 0.34126 0.76968 0.0
C1341 C 0.06009 0.36115 0.78888 0.0
C1342 C 0.06816 0.39105 0.80073 0.0
C1343 C 0.04745 0.40093 0.79261 0.0
H1344 H 0.43474 0.20868 0.83526 0.0
H1345 H 0.488 0.17529 0.90473 0.0
H1346 H 0.47923 0.19139 0.98507 0.0
H1347 H 0.46423 0.2738 0.90005 0.0
H1348 H 0.43023 0.27555 0.90464 0.0
H1349 H 0.43518 0.25577 0.85469 0.0
H1350 H 0.3856 0.20767 0.87799 0.0
H1351 H 0.38055 0.22739 0.92832 0.0
H1352 H 0.38068 0.1929 0.93916 0.0
H1353 H 0.47113 0.21747 0.05535 0.0
H1354 H 0.46749 0.25434 0.10817 0.0
H1355 H 0.42011 0.27151 0.99299 0.0
C1356 C 0.44369 0.20383 0.86758 0.0
C1357 C 0.46179 0.19047 0.86381 0.0
C1358 C 0.47394 0.18539 0.90678 0.0
C1359 C 0.46891 0.19426 0.95265 0.0
C1360 C 0.45162 0.20813 0.95498 0.0
C1361 C 0.43916 0.21287 0.91354 0.0
C1362 C 0.42505 0.2319 0.92484 0.0
C1363 C 0.43955 0.26096 0.89427 0.0
C1364 C 0.39094 0.21388 0.91712 0.0
C1365 C 0.43275 0.2383 0.97854 0.0
C1366 C 0.44741 0.22378 0.99555 0.0
C1367 C 0.45924 0.22856 0.04266 0.0
C1368 C 0.45708 0.2496 0.07246 0.0
C1369 C 0.44352 0.26588 0.05482 0.0
C1370 C 0.43018 0.25914 0.00794 0.0
H1371 H 0.73062 0.20538 0.06193 0.0
H1372 H 0.73608 0.12628 0.02563 0.0
H1373 H 0.77439 0.15516 0.96327 0.0
H1374 H 0.72777 0.22502 0.9488 0.0
H1375 H 0.74944 0.26522 0.95612 0.0
H1376 H 0.73039 0.24192 0.00762 0.0
H1377 H 0.7813 0.26483 0.05561 0.0
H1378 H 0.79943 0.28864 0.00363 0.0
H1379 H 0.81288 0.26486 0.02742 0.0
H1380 H 0.80116 0.18742 0.89315 0.0
H1381 H 0.81542 0.22097 0.82185 0.0
H1382 H 0.79187 0.27929 0.90155 0.0
C1383 C 0.74118 0.19471 0.04272 0.0
C1384 C 0.73079 0.16382 0.04883 0.0
C1385 C 0.74403 0.15006 0.02167 0.0
C1386 C 0.76588 0.16633 0.98632 0.0
C1387 C 0.77426 0.19633 0.97877 0.0
C1388 C 0.76264 0.21058 0.0067 0.0
C1389 C 0.77103 0.24103 0.98564 0.0
C1390 C 0.74301 0.24339 0.97386 0.0
C1391 C 0.79243 0.26634 0.02011 0.0
C1392 C 0.78706 0.24059 0.93958 0.0
C1393 C 0.78951 0.21506 0.93705 0.0
C1394 C 0.80016 0.20791 0.8953 0.0
C1395 C 0.80797 0.227 0.85478 0.0
C1396 C 0.80476 0.25279 0.85611 0.0
C1397 C 0.79501 0.26002 0.89964 0.0
H1398 H 0.78866 0.51897 0.06005 0.0
H1399 H 0.86038 0.6096 0.03125 0.0
H1400 H 0.82907 0.6156 0.96928 0.0
H1401 H 0.77216 0.49898 0.9442 0.0
H1402 H 0.73202 0.47588 0.94984 0.0
H1403 H 0.75554 0.48126 0.00163 0.0
H1404 H 0.72701 0.50162 0.05296 0.0
H1405 H 0.70277 0.49509 0.00129 0.0
H1406 H 0.72259 0.53179 0.02904 0.0
H1407 H 0.79634 0.60805 0.89922 0.0
H1408 H 0.76304 0.58836 0.82767 0.0
H1409 H 0.71198 0.502 0.89962 0.0
C1410 C 0.79702 0.54057 0.04254 0.0
C1411 C 0.82666 0.564 0.05077 0.0
C1412 C 0.83756 0.59156 0.02573 0.0
C1413 C 0.8199 0.59516 0.99057 0.0
C1414 C 0.7914 0.571 0.981 0.0
C1415 C 0.77977 0.54431 0.00672 0.0
C1416 C 0.75069 0.52029 0.98406 0.0
C1417 C 0.75277 0.4925 0.96904 0.0
C1418 C 0.72419 0.5117 0.0189 0.0
C1419 C 0.74893 0.53704 0.93981 0.0
C1420 C 0.77226 0.56645 0.93944 0.0
C1421 C 0.77749 0.58535 0.89969 0.0
C1422 C 0.75862 0.57387 0.85901 0.0
C1423 C 0.73485 0.54371 0.85823 0.0
C1424 C 0.72959 0.52533 0.89966 0.0
H1425 H 0.26154 0.47398 0.43391 0.0
H1426 H 0.23363 0.37979 0.44864 0.0
H1427 H 0.19847 0.3748 0.51453 0.0
H1428 H 0.26923 0.48633 0.55471 0.0
H1429 H 0.25833 0.51458 0.55679 0.0
H1430 H 0.27395 0.50909 0.5017 0.0
H1431 H 0.22751 0.49976 0.45277 0.0
H1432 H 0.21173 0.50624 0.5072 0.0
H1433 H 0.19044 0.47192 0.47299 0.0
H1434 H 0.1757 0.38287 0.58971 0.0
H1435 H 0.16494 0.40251 0.66489 0.0
H1436 H 0.2098 0.49212 0.60282 0.0
C1437 C 0.2466 0.45191 0.44889 0.0
C1438 C 0.24941 0.42701 0.43537 0.0
C1439 C 0.231 0.39885 0.45778 0.0
C1440 C 0.21117 0.39592 0.49538 0.0
C1441 C 0.21046 0.42149 0.51033 0.0
C1442 C 0.22761 0.44893 0.48751 0.0
C1443 C 0.22731 0.47403 0.51581 0.0
C1444 C 0.25908 0.49735 0.53327 0.0
C1445 C 0.21334 0.48885 0.4854 0.0
C1446 C 0.20749 0.45661 0.5582 0.0
C1447 C 0.1979 0.42631 0.55448 0.0
C1448 C 0.18237 0.40639 0.59234 0.0
C1449 C 0.17657 0.41778 0.635 0.0
C1450 C 0.18625 0.44876 0.63929 0.0
C1451 C 0.20145 0.46821 0.60002 0.0
H1452 H 0.50723 0.70414 0.59649 0.0
H1453 H 0.5908 0.76332 0.67101 0.0
H1454 H 0.60876 0.7957 0.59818 0.0
H1455 H 0.54167 0.71688 0.46931 0.0
H1456 H 0.5105 0.71703 0.44014 0.0
H1457 H 0.50427 0.69331 0.49263 0.0
H1458 H 0.47812 0.71663 0.54089 0.0
H1459 H 0.48137 0.73877 0.48819 0.0
H1460 H 0.49599 0.75692 0.54623 0.0
H1461 H 0.61386 0.82634 0.52599 0.0
H1462 H 0.60424 0.85448 0.46273 0.0
H1463 H 0.51768 0.77622 0.43299 0.0
C1464 C 0.52971 0.72336 0.59685 0.0
C1465 C 0.54764 0.73112 0.63946 0.0
C1466 C 0.57665 0.75686 0.63886 0.0
C1467 C 0.58717 0.77527 0.59743 0.0
C1468 C 0.56859 0.76756 0.55658 0.0
C1469 C 0.54051 0.74209 0.55575 0.0
C1470 C 0.5235 0.74106 0.50981 0.0
C1471 C 0.51973 0.71552 0.47602 0.0
C1472 C 0.49298 0.73822 0.52206 0.0
C1473 C 0.54514 0.77135 0.48764 0.0
C1474 C 0.57156 0.78564 0.51411 0.0
C1475 C 0.59363 0.81513 0.50425 0.0
C1476 C 0.58798 0.83095 0.46822 0.0
C1477 C 0.56036 0.8174 0.44276 0.0
C1478 C 0.53932 0.7868 0.45094 0.0
H1479 H 0.22353 0.79336 0.66054 0.0
H1480 H 0.31044 0.82593 0.59227 0.0
H1481 H 0.28608 0.80995 0.51176 0.0
H1482 H 0.18793 0.72861 0.59744 0.0
H1483 H 0.15235 0.72707 0.59136 0.0
H1484 H 0.1767 0.74728 0.64135 0.0
H1485 H 0.17592 0.79538 0.61556 0.0
H1486 H 0.1514 0.77518 0.56528 0.0
H1487 H 0.18623 0.8094 0.55405 0.0
H1488 H 0.25237 0.78198 0.44229 0.0
H1489 H 0.21206 0.74401 0.39038 0.0
H1490 H 0.14699 0.73024 0.50305 0.0
C1491 C 0.23751 0.79821 0.62841 0.0
C1492 C 0.26886 0.81102 0.63267 0.0
C1493 C 0.28634 0.81617 0.5899 0.0
C1494 C 0.27273 0.80735 0.5439 0.0
C1495 C 0.24162 0.79363 0.54114 0.0
C1496 C 0.22422 0.78933 0.58223 0.0
C1497 C 0.19116 0.77038 0.57058 0.0
C1498 C 0.17619 0.74165 0.60202 0.0
C1499 C 0.17524 0.78869 0.57672 0.0
C1500 C 0.19277 0.76333 0.51729 0.0
C1501 C 0.22202 0.77744 0.50063 0.0
C1502 C 0.22931 0.77143 0.45444 0.0
C1503 C 0.20624 0.74976 0.42518 0.0
C1504 C 0.1763 0.73417 0.44244 0.0
C1505 C 0.16952 0.74206 0.4883 0.0
H1506 H 0.52498 0.73821 0.93084 0.0
H1507 H 0.61058 0.74643 0.96731 0.0
H1508 H 0.61998 0.78597 0.02705 0.0
H1509 H 0.54931 0.82246 0.96091 0.0
H1510 H 0.51189 0.80955 0.98301 0.0
H1511 H 0.51818 0.79065 0.93243 0.0
H1512 H 0.4889 0.73988 0.9823 0.0
H1513 H 0.48425 0.75986 0.03223 0.0
H1514 H 0.50253 0.73823 0.04214 0.0
H1515 H 0.6137 0.81249 0.09714 0.0
H1516 H 0.59368 0.8264 0.16805 0.0
H1517 H 0.51219 0.80191 0.08716 0.0
C1518 C 0.54639 0.74959 0.94945 0.0
C1519 C 0.56704 0.73937 0.9445 0.0
C1520 C 0.59448 0.75404 0.97052 0.0
C1521 C 0.60007 0.77662 0.00448 0.0
C1522 C 0.57819 0.7846 0.01153 0.0
C1523 C 0.55217 0.77204 0.98393 0.0
C1524 C 0.53028 0.78091 0.00381 0.0
C1525 C 0.52717 0.80214 0.96794 0.0
C1526 C 0.49971 0.75309 0.0158 0.0
C1527 C 0.54655 0.79757 0.04964 0.0
C1528 C 0.57463 0.80038 0.05257 0.0
C1529 C 0.59219 0.81133 0.09453 0.0
C1530 C 0.5805 0.81895 0.13483 0.0
C1531 C 0.55141 0.81536 0.13307 0.0
C1532 C 0.53475 0.80552 0.08926 0.0
H1533 H 0.25727 0.84691 0.00416 0.0
H1534 H 0.24047 0.78266 0.88837 0.0
H1535 H 0.20221 0.74232 0.93957 0.0
H1536 H 0.26056 0.80624 0.09258 0.0
H1537 H 0.24297 0.81627 0.14022 0.0
H1538 H 0.26114 0.84157 0.09036 0.0
H1539 H 0.21224 0.84193 0.0699 0.0
H1540 H 0.19388 0.81697 0.12063 0.0
H1541 H 0.17792 0.80693 0.06021 0.0
H1542 H 0.17657 0.70808 0.00856 0.0
H1543 H 0.16403 0.6828 0.08853 0.0
H1544 H 0.19822 0.76892 0.16097 0.0
C1545 C 0.24453 0.82464 0.98854 0.0
C1546 C 0.25192 0.81795 0.94225 0.0
C1547 C 0.23517 0.78837 0.92364 0.0
C1548 C 0.21328 0.76529 0.95248 0.0
C1549 C 0.20817 0.77227 0.99952 0.0
C1550 C 0.22298 0.80138 0.01716 0.0
C1551 C 0.2176 0.80234 0.07142 0.0
C1552 C 0.24732 0.81747 0.10028 0.0
C1553 C 0.19931 0.81796 0.0811 0.0
C1554 C 0.19934 0.76912 0.08229 0.0
C1555 C 0.19343 0.75218 0.04012 0.0
C1556 C 0.18026 0.72105 0.04162 0.0
C1557 C 0.17348 0.70692 0.08731 0.0
C1558 C 0.18012 0.72394 0.13098 0.0
C1559 C 0.19236 0.75531 0.1282 0.0
H1560 H 0.14494 0.40587 0.00273 0.0
H1561 H 0.20945 0.45432 0.88797 0.0
H1562 H 0.24841 0.45099 0.93488 0.0
H1563 H 0.18832 0.44359 0.09444 0.0
H1564 H 0.17624 0.41321 0.13758 0.0
H1565 H 0.15153 0.41081 0.08952 0.0
H1566 H 0.14653 0.36058 0.06021 0.0
H1567 H 0.17121 0.36269 0.10874 0.0
H1568 H 0.17975 0.35869 0.04622 0.0
H1569 H 0.28222 0.45384 0.00099 0.0
H1570 H 0.30788 0.46274 0.08031 0.0
H1571 H 0.22186 0.41237 0.15306 0.0
C1572 C 0.1669 0.41458 0.9864 0.0
C1573 C 0.17412 0.43036 0.94167 0.0
C1574 C 0.20333 0.44207 0.9221 0.0
C1575 C 0.2256 0.44009 0.94841 0.0
C1576 C 0.21819 0.42593 0.99387 0.0
C1577 C 0.18937 0.41295 0.01242 0.0
C1578 C 0.18825 0.40372 0.06529 0.0
C1579 C 0.17536 0.41875 0.09861 0.0
C1580 C 0.17038 0.36937 0.07039 0.0
C1581 C 0.22126 0.41577 0.07478 0.0
C1582 C 0.23806 0.42764 0.03272 0.0
C1583 C 0.26929 0.4438 0.03381 0.0
C1584 C 0.28368 0.44889 0.07913 0.0
C1585 C 0.26683 0.43811 0.12282 0.0
C1586 C 0.23533 0.42025 0.12019 0.0
H1587 H 0.79349 0.50839 0.39852 0.0
H1588 H 0.82123 0.593 0.32475 0.0
H1589 H 0.80746 0.6116 0.39769 0.0
H1590 H 0.73025 0.49986 0.44667 0.0
H1591 H 0.7318 0.48422 0.50476 0.0
H1592 H 0.75063 0.47996 0.45276 0.0
H1593 H 0.80024 0.50414 0.50093 0.0
H1594 H 0.78281 0.51041 0.55357 0.0
H1595 H 0.81519 0.54136 0.52591 0.0
H1596 H 0.78323 0.61781 0.47118 0.0
H1597 H 0.74625 0.60937 0.53524 0.0
H1598 H 0.73344 0.52066 0.56209 0.0
C1599 C 0.79754 0.53118 0.39823 0.0
C1600 C 0.80854 0.54927 0.35596 0.0
C1601 C 0.81285 0.57871 0.35668 0.0
C1602 C 0.80539 0.5896 0.39818 0.0
C1603 C 0.79389 0.5709 0.43882 0.0
C1604 C 0.79004 0.54232 0.43924 0.0
C1605 C 0.77341 0.52526 0.48463 0.0
C1606 C 0.74484 0.4956 0.47139 0.0
C1607 C 0.79416 0.51993 0.51819 0.0
C1608 C 0.76612 0.54765 0.50746 0.0
C1609 C 0.77927 0.57433 0.48153 0.0
C1610 C 0.77336 0.5973 0.49238 0.0
C1611 C 0.7523 0.59228 0.52884 0.0
C1612 C 0.73712 0.56438 0.55358 0.0
C1613 C 0.74526 0.54242 0.5445 0.0
H1614 H 0.4376 0.22942 0.33404 0.0
H1615 H 0.49284 0.31483 0.40684 0.0
H1616 H 0.47918 0.28936 0.48672 0.0
H1617 H 0.37862 0.19386 0.4325 0.0
H1618 H 0.37583 0.15785 0.42319 0.0
H1619 H 0.38472 0.18335 0.37252 0.0
H1620 H 0.43297 0.18085 0.35529 0.0
H1621 H 0.42403 0.15523 0.40534 0.0
H1622 H 0.45975 0.18951 0.40383 0.0
H1623 H 0.46655 0.25444 0.5566 0.0
H1624 H 0.45916 0.21258 0.60951 0.0
H1625 H 0.41183 0.14977 0.49196 0.0
C1626 C 0.44608 0.24287 0.36687 0.0
C1627 C 0.46615 0.27409 0.36422 0.0
C1628 C 0.47742 0.29084 0.40795 0.0
C1629 C 0.46954 0.27663 0.45357 0.0
C1630 C 0.4502 0.2457 0.45491 0.0
C1631 C 0.4386 0.22899 0.41269 0.0
C1632 C 0.42183 0.19569 0.42352 0.0
C1633 C 0.38825 0.18188 0.41227 0.0
C1634 C 0.43548 0.17939 0.39537 0.0
C1635 C 0.42724 0.19625 0.47798 0.0
C1636 C 0.44296 0.2253 0.49565 0.0
C1637 C 0.45365 0.23156 0.5435 0.0
C1638 C 0.44941 0.20761 0.57333 0.0
C1639 C 0.43505 0.1779 0.55491 0.0
C1640 C 0.4225 0.17214 0.50749 0.0
H1641 H 0.7122 0.2009 0.39862 0.0
H1642 H 0.76951 0.17639 0.31824 0.0
H1643 H 0.80336 0.19061 0.38911 0.0
H1644 H 0.76736 0.26478 0.44642 0.0
H1645 H 0.7506 0.26221 0.50532 0.0
H1646 H 0.72718 0.24364 0.45364 0.0
H1647 H 0.70289 0.19322 0.49978 0.0
H1648 H 0.72638 0.21083 0.55227 0.0
H1649 H 0.72603 0.1791 0.52381 0.0
H1650 H 0.83561 0.21636 0.46043 0.0
H1651 H 0.8641 0.25272 0.52571 0.0
H1652 H 0.78577 0.25946 0.56156 0.0
C1653 C 0.73134 0.19759 0.39644 0.0
C1654 C 0.73813 0.18748 0.35284 0.0
C1655 C 0.76377 0.18408 0.3512 0.0
C1656 C 0.78304 0.19187 0.39147 0.0
C1657 C 0.77621 0.20268 0.43337 0.0
C1658 C 0.75083 0.20531 0.43631 0.0
C1659 C 0.75064 0.22122 0.48281 0.0
C1660 C 0.74887 0.24963 0.47134 0.0
C1661 C 0.72496 0.19982 0.51666 0.0
C1662 C 0.78083 0.22889 0.50392 0.0
C1663 C 0.7949 0.21734 0.47547 0.0
C1664 C 0.82453 0.22479 0.48384 0.0
C1665 C 0.84057 0.24549 0.52093 0.0
C1666 C 0.82692 0.25848 0.54907 0.0
C1667 C 0.79636 0.24906 0.54173 0.0
loop_
_geom_bond_atom_site_label_1
_geom_bond_atom_site_label_2
_geom_bond_distance
_geom_bond_site_symmetry_2
_ccdc_geom_bond_type
C0 O27 1.312 . S
C0 O28 1.208 . S
C1 O22 1.331 . S
C1 O25 1.244 . S
C2 O24 1.264 . S
C2 O26 1.273 . S
Mg3 O5 1.936 . S
Mg3 O12 2.081 . S
Mg3 O14 2.023 . S
Mg3 O18 2.031 . S
Mg3 O27 2.291 . S
Mg4 O5 1.963 . S
Mg4 O15 1.942 . S
Mg4 O16 1.955 . S
Mg4 O23 1.986 . S
O5 Mg3 1.936 . S
O5 Mg4 1.963 . S
O5 Mg6 1.915 . S
Mg6 O5 1.915 . S
Mg6 O7 1.915 . S
Mg6 O11 2.013 . S
Mg6 O17 2.114 . S
Mg6 O21 2.013 . S
Mg6 O27 2.114 . S
O7 Mg6 1.915 . S
O7 Mg8 1.936 . S
O7 Mg9 1.963 . S
Mg8 O7 1.936 . S
Mg8 O17 2.291 . S
Mg8 O22 2.081 1_554 S
Mg8 O24 2.023 . S
Mg8 O28 2.031 . S
Mg9 O7 1.963 . S
Mg9 O13 1.986 . S
Mg9 O25 1.942 1_554 S
Mg9 O26 1.955 . S
C10 O21 1.191 . S
C10 O23 1.307 . S
O11 Mg6 2.013 . S
O11 C30 1.191 . S
O12 Mg3 2.081 . S
O12 C20 1.331 . S
O13 Mg9 1.986 . S
O13 C30 1.307 . S
O14 Mg3 2.023 . S
O14 C29 1.264 . S
O15 Mg4 1.942 . S
O15 C20 1.244 . S
O16 Mg4 1.955 . S
O16 C29 1.273 . S
O17 Mg6 2.114 . S
O17 Mg8 2.291 . S
O17 C19 1.312 . S
O18 Mg3 2.031 . S
O18 C19 1.208 . S
C19 O17 1.312 . S
C19 O18 1.208 . S
C20 O12 1.331 . S
C20 O15 1.244 . S
O21 Mg6 2.013 . S
O21 C10 1.191 . S
O22 C1 1.331 . S
O22 Mg8 2.081 1_556 S
O23 Mg4 1.986 . S
O23 C10 1.307 . S
O24 C2 1.264 . S
O24 Mg8 2.023 . S
O25 C1 1.244 . S
O25 Mg9 1.942 1_556 S
O26 C2 1.273 . S
O26 Mg9 1.955 . S
O27 C0 1.312 . S
O27 Mg3 2.291 . S
O27 Mg6 2.114 . S
O28 C0 1.208 . S
O28 Mg8 2.031 . S
C29 O14 1.264 . S
C29 O16 1.273 . S
C30 O11 1.191 . S
C30 O13 1.307 . S
C31 O58 1.312 . S
C31 O59 1.208 . S
C32 O53 1.331 . S
C32 O56 1.244 . S
C33 O55 1.264 . S
C33 O57 1.273 . S
Mg34 O36 1.936 . S
Mg34 O43 2.081 . S
Mg34 O45 2.023 . S
Mg34 O49 2.031 . S
Mg34 O58 2.291 . S
Mg35 O36 1.963 . S
Mg35 O46 1.942 . S
Mg35 O47 1.955 . S
Mg35 O54 1.986 . S
O36 Mg34 1.936 . S
O36 Mg35 1.963 . S
O36 Mg37 1.915 . S
Mg37 O36 1.915 . S
Mg37 O38 1.915 . S
Mg37 O42 2.013 . S
Mg37 O48 2.114 . S
Mg37 O52 2.013 . S
Mg37 O58 2.114 . S
O38 Mg37 1.915 . S
O38 Mg39 1.936 . S
O38 Mg40 1.963 . S
Mg39 O38 1.936 . S
Mg39 O48 2.291 . S
Mg39 O53 2.081 1_554 S
Mg39 O55 2.023 . S
Mg39 O59 2.031 . S
Mg40 O38 1.963 . S
Mg40 O44 1.986 . S
Mg40 O56 1.942 1_554 S
Mg40 O57 1.955 . S
C41 O52 1.191 . S
C41 O54 1.307 . S
O42 Mg37 2.013 . S
O42 C61 1.191 . S
O43 Mg34 2.081 . S
O43 C51 1.331 . S
O44 Mg40 1.986 . S
O44 C61 1.307 . S
O45 Mg34 2.023 . S
O45 C60 1.264 . S
O46 Mg35 1.942 . S
O46 C51 1.244 . S
O47 Mg35 1.955 . S
O47 C60 1.273 . S
O48 Mg37 2.114 . S
O48 Mg39 2.291 . S
O48 C50 1.312 . S
O49 Mg34 2.031 . S
O49 C50 1.208 . S
C50 O48 1.312 . S
C50 O49 1.208 . S
C51 O43 1.331 . S
C51 O46 1.244 . S
O52 Mg37 2.013 . S
O52 C41 1.191 . S
O53 C32 1.331 . S
O53 Mg39 2.081 1_556 S
O54 Mg35 1.986 . S
O54 C41 1.307 . S
O55 C33 1.264 . S
O55 Mg39 2.023 . S
O56 C32 1.244 . S
O56 Mg40 1.942 1_556 S
O57 C33 1.273 . S
O57 Mg40 1.955 . S
O58 C31 1.312 . S
O58 Mg34 2.291 . S
O58 Mg37 2.114 . S
O59 C31 1.208 . S
O59 Mg39 2.031 . S
C60 O45 1.264 . S
C60 O47 1.273 . S
C61 O42 1.191 . S
C61 O44 1.307 . S
C62 O89 1.312 . S
C62 O90 1.208 . S
C63 O84 1.331 . S
C63 O87 1.244 . S
C64 O86 1.264 . S
C64 O88 1.273 . S
Mg65 O67 1.936 . S
Mg65 O74 2.081 1_554 S
Mg65 O76 2.023 . S
Mg65 O80 2.031 . S
Mg65 O89 2.291 . S
Mg66 O67 1.963 . S
Mg66 O77 1.942 1_554 S
Mg66 O78 1.955 . S
Mg66 O85 1.986 . S
O67 Mg65 1.936 . S
O67 Mg66 1.963 . S
O67 Mg68 1.915 . S
Mg68 O67 1.915 . S
Mg68 O69 1.915 . S
Mg68 O73 2.013 . S
Mg68 O79 2.114 . S
Mg68 O83 2.013 . S
Mg68 O89 2.114 . S
O69 Mg68 1.915 . S
O69 Mg70 1.936 . S
O69 Mg71 1.963 . S
Mg70 O69 1.936 . S
Mg70 O79 2.291 . S
Mg70 O84 2.081 . S
Mg70 O86 2.023 . S
Mg70 O90 2.031 . S
Mg71 O69 1.963 . S
Mg71 O75 1.986 . S
Mg71 O87 1.942 . S
Mg71 O88 1.955 . S
C72 O83 1.191 . S
C72 O85 1.307 . S
O73 Mg68 2.013 . S
O73 C92 1.191 . S
O74 Mg65 2.081 1_556 S
O74 C82 1.331 . S
O75 Mg71 1.986 . S
O75 C92 1.307 . S
O76 Mg65 2.023 . S
O76 C91 1.264 . S
O77 Mg66 1.942 1_556 S
O77 C82 1.244 . S
O78 Mg66 1.955 . S
O78 C91 1.273 . S
O79 Mg68 2.114 . S
O79 Mg70 2.291 . S
O79 C81 1.312 . S
O80 Mg65 2.031 . S
O80 C81 1.208 . S
C81 O79 1.312 . S
C81 O80 1.208 . S
C82 O74 1.331 . S
C82 O77 1.244 . S
O83 Mg68 2.013 . S
O83 C72 1.191 . S
O84 C63 1.331 . S
O84 Mg70 2.081 . S
O85 Mg66 1.986 . S
O85 C72 1.307 . S
O86 C64 1.264 . S
O86 Mg70 2.023 . S
O87 C63 1.244 . S
O87 Mg71 1.942 . S
O88 C64 1.273 . S
O88 Mg71 1.955 . S
O89 C62 1.312 . S
O89 Mg65 2.291 . S
O89 Mg68 2.114 . S
O90 C62 1.208 . S
O90 Mg70 2.031 . S
C91 O76 1.264 . S
C91 O78 1.273 . S
C92 O73 1.191 . S
C92 O75 1.307 . S
C93 O120 1.312 . S
C93 O121 1.208 . S
C94 O115 1.331 . S
C94 O118 1.244 . S
C95 O117 1.264 . S
C95 O119 1.273 . S
Mg96 O98 1.936 . S
Mg96 O105 2.081 . S
Mg96 O107 2.023 . S
Mg96 O111 2.031 . S
Mg96 O120 2.291 . S
Mg97 O98 1.963 . S
Mg97 O108 1.942 . S
Mg97 O109 1.955 . S
Mg97 O116 1.986 . S
O98 Mg96 1.936 . S
O98 Mg97 1.963 . S
O98 Mg99 1.915 . S
Mg99 O98 1.915 . S
Mg99 O100 1.915 . S
Mg99 O104 2.013 . S
Mg99 O110 2.114 . S
Mg99 O114 2.013 . S
Mg99 O120 2.114 . S
O100 Mg99 1.915 . S
O100 Mg101 1.936 . S
O100 Mg102 1.963 . S
Mg101 O100 1.936 . S
Mg101 O110 2.291 . S
Mg101 O115 2.081 . S
Mg101 O117 2.023 . S
Mg101 O121 2.031 . S
Mg102 O100 1.963 . S
Mg102 O106 1.986 . S
Mg102 O118 1.942 . S
Mg102 O119 1.955 . S
C103 O114 1.191 . S
C103 O116 1.307 . S
O104 Mg99 2.013 . S
O104 C123 1.191 . S
O105 Mg96 2.081 . S
O105 C113 1.331 . S
O106 Mg102 1.986 . S
O106 C123 1.307 . S
O107 Mg96 2.023 . S
O107 C122 1.264 . S
O108 Mg97 1.942 . S
O108 C113 1.244 . S
O109 Mg97 1.955 . S
O109 C122 1.273 . S
O110 Mg99 2.114 . S
O110 Mg101 2.291 . S
O110 C112 1.312 . S
O111 Mg96 2.031 . S
O111 C112 1.208 . S
C112 O110 1.312 . S
C112 O111 1.208 . S
C113 O105 1.331 . S
C113 O108 1.244 . S
O114 Mg99 2.013 . S
O114 C103 1.191 . S
O115 C94 1.331 . S
O115 Mg101 2.081 . S
O116 Mg97 1.986 . S
O116 C103 1.307 . S
O117 C95 1.264 . S
O117 Mg101 2.023 . S
O118 C94 1.244 . S
O118 Mg102 1.942 . S
O119 C95 1.273 . S
O119 Mg102 1.955 . S
O120 C93 1.312 . S
O120 Mg96 2.291 . S
O120 Mg99 2.114 . S
O121 C93 1.208 . S
O121 Mg101 2.031 . S
C122 O107 1.264 . S
C122 O109 1.273 . S
C123 O104 1.191 . S
C123 O106 1.307 . S
C124 O151 1.312 . S
C124 O152 1.208 . S
C125 O146 1.331 . S
C125 O149 1.244 . S
C126 O148 1.264 . S
C126 O150 1.273 . S
Mg127 O129 1.936 . S
Mg127 O136 2.081 . S
Mg127 O138 2.023 . S
Mg127 O142 2.031 . S
Mg127 O151 2.291 . S
Mg128 O129 1.963 . S
Mg128 O139 1.942 . S
Mg128 O140 1.955 . S
Mg128 O147 1.986 . S
O129 Mg127 1.936 . S
O129 Mg128 1.963 . S
O129 Mg130 1.915 . S
Mg130 O129 1.915 . S
Mg130 O131 1.915 . S
Mg130 O135 2.013 . S
Mg130 O141 2.114 . S
Mg130 O145 2.013 . S
Mg130 O151 2.114 . S
O131 Mg130 1.915 . S
O131 Mg132 1.936 . S
O131 Mg133 1.963 . S
Mg132 O131 1.936 . S
Mg132 O141 2.291 . S
Mg132 O146 2.081 . S
Mg132 O148 2.023 . S
Mg132 O152 2.031 . S
Mg133 O131 1.963 . S
Mg133 O137 1.986 . S
Mg133 O149 1.942 . S
Mg133 O150 1.955 . S
C134 O145 1.191 . S
C134 O147 1.307 . S
O135 Mg130 2.013 . S
O135 C154 1.191 . S
O136 Mg127 2.081 . S
O136 C144 1.331 . S
O137 Mg133 1.986 . S
O137 C154 1.307 . S
O138 Mg127 2.023 . S
O138 C153 1.264 . S
O139 Mg128 1.942 . S
O139 C144 1.244 . S
O140 Mg128 1.955 . S
O140 C153 1.273 . S
O141 Mg130 2.114 . S
O141 Mg132 2.291 . S
O141 C143 1.312 . S
O142 Mg127 2.031 . S
O142 C143 1.208 . S
C143 O141 1.312 . S
C143 O142 1.208 . S
C144 O136 1.331 . S
C144 O139 1.244 . S
O145 Mg130 2.013 . S
O145 C134 1.191 . S
O146 C125 1.331 . S
O146 Mg132 2.081 . S
O147 Mg128 1.986 . S
O147 C134 1.307 . S
O148 C126 1.264 . S
O148 Mg132 2.023 . S
O149 C125 1.244 . S
O149 Mg133 1.942 . S
O150 C126 1.273 . S
O150 Mg133 1.955 . S
O151 C124 1.312 . S
O151 Mg127 2.291 . S
O151 Mg130 2.114 . S
O152 C124 1.208 . S
O152 Mg132 2.031 . S
C153 O138 1.264 . S
C153 O140 1.273 . S
C154 O135 1.191 . S
C154 O137 1.307 . S
C155 O182 1.312 . S
C155 O183 1.208 . S
C156 O177 1.331 . S
C156 O180 1.244 . S
C157 O179 1.264 . S
C157 O181 1.273 . S
Mg158 O160 1.936 . S
Mg158 O167 2.081 . S
Mg158 O169 2.023 . S
Mg158 O173 2.031 . S
Mg158 O182 2.291 . S
Mg159 O160 1.963 . S
Mg159 O170 1.942 . S
Mg159 O171 1.955 . S
Mg159 O178 1.986 . S
O160 Mg158 1.936 . S
O160 Mg159 1.963 . S
O160 Mg161 1.915 . S
Mg161 O160 1.915 . S
Mg161 O162 1.915 . S
Mg161 O166 2.013 . S
Mg161 O172 2.114 . S
Mg161 O176 2.013 . S
Mg161 O182 2.114 . S
O162 Mg161 1.915 . S
O162 Mg163 1.936 . S
O162 Mg164 1.963 . S
Mg163 O162 1.936 . S
Mg163 O172 2.291 . S
Mg163 O177 2.081 . S
Mg163 O179 2.023 . S
Mg163 O183 2.031 . S
Mg164 O162 1.963 . S
Mg164 O168 1.986 . S
Mg164 O180 1.942 . S
Mg164 O181 1.955 . S
C165 O176 1.191 . S
C165 O178 1.307 . S
O166 Mg161 2.013 . S
O166 C185 1.191 . S
O167 Mg158 2.081 . S
O167 C175 1.331 . S
O168 Mg164 1.986 . S
O168 C185 1.307 . S
O169 Mg158 2.023 . S
O169 C184 1.264 . S
O170 Mg159 1.942 . S
O170 C175 1.244 . S
O171 Mg159 1.955 . S
O171 C184 1.273 . S
O172 Mg161 2.114 . S
O172 Mg163 2.291 . S
O172 C174 1.312 . S
O173 Mg158 2.031 . S
O173 C174 1.208 . S
C174 O172 1.312 . S
C174 O173 1.208 . S
C175 O167 1.331 . S
C175 O170 1.244 . S
O176 Mg161 2.013 . S
O176 C165 1.191 . S
O177 C156 1.331 . S
O177 Mg163 2.081 . S
O178 Mg159 1.986 . S
O178 C165 1.307 . S
O179 C157 1.264 . S
O179 Mg163 2.023 . S
O180 C156 1.244 . S
O180 Mg164 1.942 . S
O181 C157 1.273 . S
O181 Mg164 1.955 . S
O182 C155 1.312 . S
O182 Mg158 2.291 . S
O182 Mg161 2.114 . S
O183 C155 1.208 . S
O183 Mg163 2.031 . S
C184 O169 1.264 . S
C184 O171 1.273 . S
C185 O166 1.191 . S
C185 O168 1.307 . S
C186 O213 1.312 . S
C186 O214 1.208 . S
C187 O208 1.331 . S
C187 O211 1.244 . S
C188 O210 1.264 . S
C188 O212 1.273 . S
Mg189 O191 1.936 . S
Mg189 O198 2.081 . S
Mg189 O200 2.023 . S
Mg189 O204 2.031 . S
Mg189 O213 2.291 . S
Mg190 O191 1.963 . S
Mg190 O201 1.942 . S
Mg190 O202 1.955 . S
Mg190 O209 1.986 . S
O191 Mg189 1.936 . S
O191 Mg190 1.963 . S
O191 Mg192 1.915 . S
Mg192 O191 1.915 . S
Mg192 O193 1.915 . S
Mg192 O197 2.013 . S
Mg192 O203 2.114 . S
Mg192 O207 2.013 . S
Mg192 O213 2.114 . S
O193 Mg192 1.915 . S
O193 Mg194 1.936 . S
O193 Mg195 1.963 . S
Mg194 O193 1.936 . S
Mg194 O203 2.291 . S
Mg194 O208 2.081 1_556 S
Mg194 O210 2.023 . S
Mg194 O214 2.031 . S
Mg195 O193 1.963 . S
Mg195 O199 1.986 . S
Mg195 O211 1.942 1_556 S
Mg195 O212 1.955 . S
C196 O207 1.191 . S
C196 O209 1.307 . S
O197 Mg192 2.013 . S
O197 C216 1.191 . S
O198 Mg189 2.081 . S
O198 C206 1.331 . S
O199 Mg195 1.986 . S
O199 C216 1.307 . S
O200 Mg189 2.023 . S
O200 C215 1.264 . S
O201 Mg190 1.942 . S
O201 C206 1.244 . S
O202 Mg190 1.955 . S
O202 C215 1.273 . S
O203 Mg192 2.114 . S
O203 Mg194 2.291 . S
O203 C205 1.312 . S
O204 Mg189 2.031 . S
O204 C205 1.208 . S
C205 O203 1.312 . S
C205 O204 1.208 . S
C206 O198 1.331 . S
C206 O201 1.244 . S
O207 Mg192 2.013 . S
O207 C196 1.191 . S
O208 C187 1.331 . S
O208 Mg194 2.081 1_554 S
O209 Mg190 1.986 . S
O209 C196 1.307 . S
O210 C188 1.264 . S
O210 Mg194 2.023 . S
O211 C187 1.244 . S
O211 Mg195 1.942 1_554 S
O212 C188 1.273 . S
O212 Mg195 1.955 . S
O213 C186 1.312 . S
O213 Mg189 2.291 . S
O213 Mg192 2.114 . S
O214 C186 1.208 . S
O214 Mg194 2.031 . S
C215 O200 1.264 . S
C215 O202 1.273 . S
C216 O197 1.191 . S
C216 O199 1.307 . S
C217 O244 1.312 . S
C217 O245 1.208 . S
C218 O239 1.331 . S
C218 O242 1.244 . S
C219 O241 1.264 . S
C219 O243 1.273 . S
Mg220 O222 1.936 . S
Mg220 O229 2.081 1_556 S
Mg220 O231 2.023 . S
Mg220 O235 2.031 . S
Mg220 O244 2.291 . S
Mg221 O222 1.963 . S
Mg221 O232 1.942 1_556 S
Mg221 O233 1.955 . S
Mg221 O240 1.986 . S
O222 Mg220 1.936 . S
O222 Mg221 1.963 . S
O222 Mg223 1.915 . S
Mg223 O222 1.915 . S
Mg223 O224 1.915 . S
Mg223 O228 2.013 . S
Mg223 O234 2.114 . S
Mg223 O238 2.013 . S
Mg223 O244 2.114 . S
O224 Mg223 1.915 . S
O224 Mg225 1.936 . S
O224 Mg226 1.963 . S
Mg225 O224 1.936 . S
Mg225 O234 2.291 . S
Mg225 O239 2.081 . S
Mg225 O241 2.023 . S
Mg225 O245 2.031 . S
Mg226 O224 1.963 . S
Mg226 O230 1.986 . S
Mg226 O242 1.942 . S
Mg226 O243 1.955 . S
C227 O238 1.191 . S
C227 O240 1.307 . S
O228 Mg223 2.013 . S
O228 C247 1.191 . S
O229 Mg220 2.081 1_554 S
O229 C237 1.331 . S
O230 Mg226 1.986 . S
O230 C247 1.307 . S
O231 Mg220 2.023 . S
O231 C246 1.264 . S
O232 Mg221 1.942 1_554 S
O232 C237 1.244 . S
O233 Mg221 1.955 . S
O233 C246 1.273 . S
O234 Mg223 2.114 . S
O234 Mg225 2.291 . S
O234 C236 1.312 . S
O235 Mg220 2.031 . S
O235 C236 1.208 . S
C236 O234 1.312 . S
C236 O235 1.208 . S
C237 O229 1.331 . S
C237 O232 1.244 . S
O238 Mg223 2.013 . S
O238 C227 1.191 . S
O239 C218 1.331 . S
O239 Mg225 2.081 . S
O240 Mg221 1.986 . S
O240 C227 1.307 . S
O241 C219 1.264 . S
O241 Mg225 2.023 . S
O242 C218 1.244 . S
O242 Mg226 1.942 . S
O243 C219 1.273 . S
O243 Mg226 1.955 . S
O244 C217 1.312 . S
O244 Mg220 2.291 . S
O244 Mg223 2.114 . S
O245 C217 1.208 . S
O245 Mg225 2.031 . S
C246 O231 1.264 . S
C246 O233 1.273 . S
C247 O228 1.191 . S
C247 O230 1.307 . S
C248 O275 1.312 . S
C248 O276 1.208 . S
C249 O270 1.331 . S
C249 O273 1.244 . S
C250 O272 1.264 . S
C250 O274 1.273 . S
Mg251 O253 1.936 . S
Mg251 O260 2.081 . S
Mg251 O262 2.023 . S
Mg251 O266 2.031 . S
Mg251 O275 2.291 . S
Mg252 O253 1.963 . S
Mg252 O263 1.942 . S
Mg252 O264 1.955 . S
Mg252 O271 1.986 . S
O253 Mg251 1.936 . S
O253 Mg252 1.963 . S
O253 Mg254 1.915 . S
Mg254 O253 1.915 . S
Mg254 O255 1.915 . S
Mg254 O259 2.013 . S
Mg254 O265 2.114 . S
Mg254 O269 2.013 . S
Mg254 O275 2.114 . S
O255 Mg254 1.915 . S
O255 Mg256 1.936 . S
O255 Mg257 1.963 . S
Mg256 O255 1.936 . S
Mg256 O265 2.291 . S
Mg256 O270 2.081 1_556 S
Mg256 O272 2.023 . S
Mg256 O276 2.031 . S
Mg257 O255 1.963 . S
Mg257 O261 1.986 . S
Mg257 O273 1.942 1_556 S
Mg257 O274 1.955 . S
C258 O269 1.191 . S
C258 O271 1.307 . S
O259 Mg254 2.013 . S
O259 C278 1.191 . S
O260 Mg251 2.081 . S
O260 C268 1.331 . S
O261 Mg257 1.986 . S
O261 C278 1.307 . S
O262 Mg251 2.023 . S
O262 C277 1.264 . S
O263 Mg252 1.942 . S
O263 C268 1.244 . S
O264 Mg252 1.955 . S
O264 C277 1.273 . S
O265 Mg254 2.114 . S
O265 Mg256 2.291 . S
O265 C267 1.312 . S
O266 Mg251 2.031 . S
O266 C267 1.208 . S
C267 O265 1.312 . S
C267 O266 1.208 . S
C268 O260 1.331 . S
C268 O263 1.244 . S
O269 Mg254 2.013 . S
O269 C258 1.191 . S
O270 C249 1.331 . S
O270 Mg256 2.081 1_554 S
O271 Mg252 1.986 . S
O271 C258 1.307 . S
O272 C250 1.264 . S
O272 Mg256 2.023 . S
O273 C249 1.244 . S
O273 Mg257 1.942 1_554 S
O274 C250 1.273 . S
O274 Mg257 1.955 . S
O275 C248 1.312 . S
O275 Mg251 2.291 . S
O275 Mg254 2.114 . S
O276 C248 1.208 . S
O276 Mg256 2.031 . S
C277 O262 1.264 . S
C277 O264 1.273 . S
C278 O259 1.191 . S
C278 O261 1.307 . S
C279 O306 1.312 . S
C279 O307 1.208 . S
C280 O301 1.331 . S
C280 O304 1.244 . S
C281 O303 1.264 . S
C281 O305 1.273 . S
Mg282 O284 1.936 . S
Mg282 O291 2.081 . S
Mg282 O293 2.023 . S
Mg282 O297 2.031 . S
Mg282 O306 2.291 . S
Mg283 O284 1.963 . S
Mg283 O294 1.942 . S
Mg283 O295 1.955 . S
Mg283 O302 1.986 . S
O284 Mg282 1.936 . S
O284 Mg283 1.963 . S
O284 Mg285 1.915 . S
Mg285 O284 1.915 . S
Mg285 O286 1.915 . S
Mg285 O290 2.013 . S
Mg285 O296 2.114 . S
Mg285 O300 2.013 . S
Mg285 O306 2.114 . S
O286 Mg285 1.915 . S
O286 Mg287 1.936 . S
O286 Mg288 1.963 . S
Mg287 O286 1.936 . S
Mg287 O296 2.291 . S
Mg287 O301 2.081 . S
Mg287 O303 2.023 . S
Mg287 O307 2.031 . S
Mg288 O286 1.963 . S
Mg288 O292 1.986 . S
Mg288 O304 1.942 . S
Mg288 O305 1.955 . S
C289 O300 1.191 . S
C289 O302 1.307 . S
O290 Mg285 2.013 . S
O290 C309 1.191 . S
O291 Mg282 2.081 . S
O291 C299 1.331 . S
O292 Mg288 1.986 . S
O292 C309 1.307 . S
O293 Mg282 2.023 . S
O293 C308 1.264 . S
O294 Mg283 1.942 . S
O294 C299 1.244 . S
O295 Mg283 1.955 . S
O295 C308 1.273 . S
O296 Mg285 2.114 . S
O296 Mg287 2.291 . S
O296 C298 1.312 . S
O297 Mg282 2.031 . S
O297 C298 1.208 . S
C298 O296 1.312 . S
C298 O297 1.208 . S
C299 O291 1.331 . S
C299 O294 1.244 . S
O300 Mg285 2.013 . S
O300 C289 1.191 . S
O301 C280 1.331 . S
O301 Mg287 2.081 . S
O302 Mg283 1.986 . S
O302 C289 1.307 . S
O303 C281 1.264 . S
O303 Mg287 2.023 . S
O304 C280 1.244 . S
O304 Mg288 1.942 . S
O305 C281 1.273 . S
O305 Mg288 1.955 . S
O306 C279 1.312 . S
O306 Mg282 2.291 . S
O306 Mg285 2.114 . S
O307 C279 1.208 . S
O307 Mg287 2.031 . S
C308 O293 1.264 . S
C308 O295 1.273 . S
C309 O290 1.191 . S
C309 O292 1.307 . S
C310 O337 1.312 . S
C310 O338 1.208 . S
C311 O332 1.331 . S
C311 O335 1.244 . S
C312 O334 1.264 . S
C312 O336 1.273 . S
Mg313 O315 1.936 . S
Mg313 O322 2.081 . S
Mg313 O324 2.023 . S
Mg313 O328 2.031 . S
Mg313 O337 2.291 . S
Mg314 O315 1.963 . S
Mg314 O325 1.942 . S
Mg314 O326 1.955 . S
Mg314 O333 1.986 . S
O315 Mg313 1.936 . S
O315 Mg314 1.963 . S
O315 Mg316 1.915 . S
Mg316 O315 1.915 . S
Mg316 O317 1.915 . S
Mg316 O321 2.013 . S
Mg316 O327 2.114 . S
Mg316 O331 2.013 . S
Mg316 O337 2.114 . S
O317 Mg316 1.915 . S
O317 Mg318 1.936 . S
O317 Mg319 1.963 . S
Mg318 O317 1.936 . S
Mg318 O327 2.291 . S
Mg318 O332 2.081 . S
Mg318 O334 2.023 . S
Mg318 O338 2.031 . S
Mg319 O317 1.963 . S
Mg319 O323 1.986 . S
Mg319 O335 1.942 . S
Mg319 O336 1.955 . S
C320 O331 1.191 . S
C320 O333 1.307 . S
O321 Mg316 2.013 . S
O321 C340 1.191 . S
O322 Mg313 2.081 . S
O322 C330 1.331 . S
O323 Mg319 1.986 . S
O323 C340 1.307 . S
O324 Mg313 2.023 . S
O324 C339 1.264 . S
O325 Mg314 1.942 . S
O325 C330 1.244 . S
O326 Mg314 1.955 . S
O326 C339 1.273 . S
O327 Mg316 2.114 . S
O327 Mg318 2.291 . S
O327 C329 1.312 . S
O328 Mg313 2.031 . S
O328 C329 1.208 . S
C329 O327 1.312 . S
C329 O328 1.208 . S
C330 O322 1.331 . S
C330 O325 1.244 . S
O331 Mg316 2.013 . S
O331 C320 1.191 . S
O332 C311 1.331 . S
O332 Mg318 2.081 . S
O333 Mg314 1.986 . S
O333 C320 1.307 . S
O334 C312 1.264 . S
O334 Mg318 2.023 . S
O335 C311 1.244 . S
O335 Mg319 1.942 . S
O336 C312 1.273 . S
O336 Mg319 1.955 . S
O337 C310 1.312 . S
O337 Mg313 2.291 . S
O337 Mg316 2.114 . S
O338 C310 1.208 . S
O338 Mg318 2.031 . S
C339 O324 1.264 . S
C339 O326 1.273 . S
C340 O321 1.191 . S
C340 O323 1.307 . S
C341 O368 1.312 . S
C341 O369 1.208 . S
C342 O363 1.331 . S
C342 O366 1.244 . S
C343 O365 1.264 . S
C343 O367 1.273 . S
Mg344 O346 1.936 . S
Mg344 O353 2.081 . S
Mg344 O355 2.023 . S
Mg344 O359 2.031 . S
Mg344 O368 2.291 . S
Mg345 O346 1.963 . S
Mg345 O356 1.942 . S
Mg345 O357 1.955 . S
Mg345 O364 1.986 . S
O346 Mg344 1.936 . S
O346 Mg345 1.963 . S
O346 Mg347 1.915 . S
Mg347 O346 1.915 . S
Mg347 O348 1.915 . S
Mg347 O352 2.013 . S
Mg347 O358 2.114 . S
Mg347 O362 2.013 . S
Mg347 O368 2.114 . S
O348 Mg347 1.915 . S
O348 Mg349 1.936 . S
O348 Mg350 1.963 . S
Mg349 O348 1.936 . S
Mg349 O358 2.291 . S
Mg349 O363 2.081 . S
Mg349 O365 2.023 . S
Mg349 O369 2.031 . S
Mg350 O348 1.963 . S
Mg350 O354 1.986 . S
Mg350 O366 1.942 . S
Mg350 O367 1.955 . S
C351 O362 1.191 . S
C351 O364 1.307 . S
O352 Mg347 2.013 . S
O352 C371 1.191 . S
O353 Mg344 2.081 . S
O353 C361 1.331 . S
O354 Mg350 1.986 . S
O354 C371 1.307 . S
O355 Mg344 2.023 . S
O355 C370 1.264 . S
O356 Mg345 1.942 . S
O356 C361 1.244 . S
O357 Mg345 1.955 . S
O357 C370 1.273 . S
O358 Mg347 2.114 . S
O358 Mg349 2.291 . S
O358 C360 1.312 . S
O359 Mg344 2.031 . S
O359 C360 1.208 . S
C360 O358 1.312 . S
C360 O359 1.208 . S
C361 O353 1.331 . S
C361 O356 1.244 . S
O362 Mg347 2.013 . S
O362 C351 1.191 . S
O363 C342 1.331 . S
O363 Mg349 2.081 . S
O364 Mg345 1.986 . S
O364 C351 1.307 . S
O365 C343 1.264 . S
O365 Mg349 2.023 . S
O366 C342 1.244 . S
O366 Mg350 1.942 . S
O367 C343 1.273 . S
O367 Mg350 1.955 . S
O368 C341 1.312 . S
O368 Mg344 2.291 . S
O368 Mg347 2.114 . S
O369 C341 1.208 . S
O369 Mg349 2.031 . S
C370 O355 1.264 . S
C370 O357 1.273 . S
C371 O352 1.191 . S
C371 O354 1.307 . S
H372 C384 0.930 . S
H373 C386 0.930 . S
H374 C387 0.930 . S
H375 C391 0.959 . S
H376 C391 0.959 1_556 S
H377 C391 0.962 1_556 S
H378 C392 0.960 . S
H379 C392 0.961 . S
H380 C392 0.959 . S
H381 C395 0.929 . S
H382 C396 0.931 . S
H383 C398 0.930 . S
C384 H372 0.930 . S
C384 C385 1.399 . S
C384 C389 1.399 . S
C385 C384 1.399 . S
C385 C386 1.376 . S
C386 H373 0.930 . S
C386 C385 1.376 . S
C386 C387 1.388 . S
C387 H374 0.930 . S
C387 C386 1.388 . S
C387 C388 1.390 . S
C388 C387 1.390 . S
C388 C389 1.394 . S
C388 C394 1.465 . S
C389 C384 1.399 . S
C389 C388 1.394 . S
C389 C390 1.516 . S
C390 C389 1.516 . S
C390 C391 1.502 . S
C390 C392 1.561 . S
C390 C393 1.526 . S
C391 H375 0.959 . S
C391 H376 0.959 1_554 S
C391 H377 0.962 1_554 S
C391 C390 1.502 . S
C392 H378 0.960 . S
C392 H379 0.961 . S
C392 H380 0.959 . S
C392 C390 1.561 . S
C393 C390 1.526 . S
C393 C394 1.396 . S
C393 C398 1.390 . S
C394 C388 1.465 . S
C394 C393 1.396 . S
C394 C395 1.399 . S
C395 H381 0.929 . S
C395 C394 1.399 . S
C395 C396 1.385 . S
C396 H382 0.931 . S
C396 C395 1.385 . S
C396 C397 1.389 . S
C397 C396 1.389 . S
C397 C398 1.387 . S
C398 H383 0.930 . S
C398 C393 1.390 . S
C398 C397 1.387 . S
H399 C411 0.930 . S
H400 C413 0.930 . S
H401 C414 0.930 . S
H402 C418 0.959 . S
H403 C418 0.959 . S
H404 C418 0.961 . S
H405 C419 0.960 . S
H406 C419 0.961 . S
H407 C419 0.959 . S
H408 C422 0.929 . S
H409 C423 0.931 . S
H410 C425 0.930 . S
C411 H399 0.930 . S
C411 C412 1.399 . S
C411 C416 1.399 . S
C412 C411 1.399 . S
C412 C413 1.376 . S
C413 H400 0.930 . S
C413 C412 1.376 . S
C413 C414 1.388 . S
C414 H401 0.930 . S
C414 C413 1.388 . S
C414 C415 1.390 . S
C415 C414 1.390 . S
C415 C416 1.394 . S
C415 C421 1.465 . S
C416 C411 1.399 . S
C416 C415 1.394 . S
C416 C417 1.516 . S
C417 C416 1.516 . S
C417 C418 1.502 . S
C417 C419 1.561 . S
C417 C420 1.526 . S
C418 H402 0.959 . S
C418 H403 0.959 . S
C418 H404 0.961 . S
C418 C417 1.502 . S
C419 H405 0.960 . S
C419 H406 0.961 . S
C419 H407 0.959 . S
C419 C417 1.561 . S
C420 C417 1.526 . S
C420 C421 1.396 . S
C420 C425 1.390 . S
C421 C415 1.465 . S
C421 C420 1.396 . S
C421 C422 1.399 . S
C422 H408 0.929 . S
C422 C421 1.399 . S
C422 C423 1.385 . S
C423 H409 0.931 . S
C423 C422 1.385 . S
C423 C424 1.389 . S
C424 C423 1.389 . S
C424 C425 1.387 . S
C425 H410 0.930 . S
C425 C420 1.390 . S
C425 C424 1.387 . S
H426 C438 0.930 . S
H427 C440 0.930 . S
H428 C441 0.930 . S
H429 C445 0.959 . S
H430 C445 0.959 . S
H431 C445 0.961 . S
H432 C446 0.960 . S
H433 C446 0.961 . S
H434 C446 0.959 . S
H435 C449 0.929 . S
H436 C450 0.931 . S
H437 C452 0.930 . S
C438 H426 0.930 . S
C438 C439 1.399 . S
C438 C443 1.399 . S
C439 C438 1.399 . S
C439 C440 1.376 . S
C440 H427 0.930 . S
C440 C439 1.376 . S
C440 C441 1.388 . S
C441 H428 0.930 . S
C441 C440 1.388 . S
C441 C442 1.390 . S
C442 C441 1.390 . S
C442 C443 1.394 . S
C442 C448 1.465 . S
C443 C438 1.399 . S
C443 C442 1.394 . S
C443 C444 1.516 . S
C444 C443 1.516 . S
C444 C445 1.502 . S
C444 C446 1.561 . S
C444 C447 1.526 . S
C445 H429 0.959 . S
C445 H430 0.959 . S
C445 H431 0.961 . S
C445 C444 1.502 . S
C446 H432 0.960 . S
C446 H433 0.961 . S
C446 H434 0.959 . S
C446 C444 1.561 . S
C447 C444 1.526 . S
C447 C448 1.396 . S
C447 C452 1.390 . S
C448 C442 1.465 . S
C448 C447 1.396 . S
C448 C449 1.399 . S
C449 H435 0.929 . S
C449 C448 1.399 . S
C449 C450 1.385 . S
C450 H436 0.931 . S
C450 C449 1.385 . S
C450 C451 1.389 . S
C451 C450 1.389 . S
C451 C452 1.387 . S
C452 H437 0.930 . S
C452 C447 1.390 . S
C452 C451 1.387 . S
H453 C465 0.930 . S
H454 C467 0.930 . S
H455 C468 0.930 . S
H456 C472 0.959 . S
H457 C472 0.959 . S
H458 C472 0.961 . S
H459 C473 0.960 . S
H460 C473 0.961 . S
H461 C473 0.959 . S
H462 C476 0.929 . S
H463 C477 0.931 . S
H464 C479 0.930 . S
C465 H453 0.930 . S
C465 C466 1.399 . S
C465 C470 1.399 . S
C466 C465 1.399 . S
C466 C467 1.376 . S
C467 H454 0.930 . S
C467 C466 1.376 . S
C467 C468 1.388 . S
C468 H455 0.930 . S
C468 C467 1.388 . S
C468 C469 1.390 . S
C469 C468 1.390 . S
C469 C470 1.394 . S
C469 C475 1.465 . S
C470 C465 1.399 . S
C470 C469 1.394 . S
C470 C471 1.516 . S
C471 C470 1.516 . S
C471 C472 1.502 . S
C471 C473 1.561 . S
C471 C474 1.526 . S
C472 H456 0.959 . S
C472 H457 0.959 . S
C472 H458 0.961 . S
C472 C471 1.502 . S
C473 H459 0.960 . S
C473 H460 0.961 . S
C473 H461 0.959 . S
C473 C471 1.561 . S
C474 C471 1.526 . S
C474 C475 1.396 . S
C474 C479 1.390 . S
C475 C469 1.465 . S
C475 C474 1.396 . S
C475 C476 1.399 . S
C476 H462 0.929 . S
C476 C475 1.399 . S
C476 C477 1.385 . S
C477 H463 0.931 . S
C477 C476 1.385 . S
C477 C478 1.389 . S
C478 C477 1.389 . S
C478 C479 1.387 . S
C479 H464 0.930 . S
C479 C474 1.390 . S
C479 C478 1.387 . S
H480 C492 0.930 . S
H481 C494 0.930 . S
H482 C495 0.930 . S
H483 C499 0.959 . S
H484 C499 0.959 . S
H485 C499 0.961 . S
H486 C500 0.960 . S
H487 C500 0.961 . S
H488 C500 0.959 . S
H489 C503 0.929 . S
H490 C504 0.931 . S
H491 C506 0.930 . S
C492 H480 0.930 . S
C492 C493 1.399 . S
C492 C497 1.399 . S
C493 C492 1.399 . S
C493 C494 1.376 . S
C494 H481 0.930 . S
C494 C493 1.376 . S
C494 C495 1.388 . S
C495 H482 0.930 . S
C495 C494 1.388 . S
C495 C496 1.390 . S
C496 C495 1.390 . S
C496 C497 1.394 . S
C496 C502 1.465 . S
C497 C492 1.399 . S
C497 C496 1.394 . S
C497 C498 1.516 . S
C498 C497 1.516 . S
C498 C499 1.502 . S
C498 C500 1.561 . S
C498 C501 1.526 . S
C499 H483 0.959 . S
C499 H484 0.959 . S
C499 H485 0.961 . S
C499 C498 1.502 . S
C500 H486 0.960 . S
C500 H487 0.961 . S
C500 H488 0.959 . S
C500 C498 1.561 . S
C501 C498 1.526 . S
C501 C502 1.396 . S
C501 C506 1.390 . S
C502 C496 1.465 . S
C502 C501 1.396 . S
C502 C503 1.399 . S
C503 H489 0.929 . S
C503 C502 1.399 . S
C503 C504 1.385 . S
C504 H490 0.931 . S
C504 C503 1.385 . S
C504 C505 1.389 . S
C505 C504 1.389 . S
C505 C506 1.387 . S
C506 H491 0.930 . S
C506 C501 1.390 . S
C506 C505 1.387 . S
H507 C519 0.930 . S
H508 C521 0.930 . S
H509 C522 0.930 . S
H510 C526 0.959 . S
H511 C526 0.959 . S
H512 C526 0.961 . S
H513 C527 0.960 . S
H514 C527 0.961 . S
H515 C527 0.959 . S
H516 C530 0.929 . S
H517 C531 0.931 . S
H518 C533 0.930 . S
C519 H507 0.930 . S
C519 C520 1.399 . S
C519 C524 1.399 . S
C520 C519 1.399 . S
C520 C521 1.376 . S
C521 H508 0.930 . S
C521 C520 1.376 . S
C521 C522 1.388 . S
C522 H509 0.930 . S
C522 C521 1.388 . S
C522 C523 1.390 . S
C523 C522 1.390 . S
C523 C524 1.394 . S
C523 C529 1.465 . S
C524 C519 1.399 . S
C524 C523 1.394 . S
C524 C525 1.516 . S
C525 C524 1.516 . S
C525 C526 1.502 . S
C525 C527 1.561 . S
C525 C528 1.526 . S
C526 H510 0.959 . S
C526 H511 0.959 . S
C526 H512 0.961 . S
C526 C525 1.502 . S
C527 H513 0.960 . S
C527 H514 0.961 . S
C527 H515 0.959 . S
C527 C525 1.561 . S
C528 C525 1.526 . S
C528 C529 1.396 . S
C528 C533 1.390 . S
C529 C523 1.465 . S
C529 C528 1.396 . S
C529 C530 1.399 . S
C530 H516 0.929 . S
C530 C529 1.399 . S
C530 C531 1.385 . S
C531 H517 0.931 . S
C531 C530 1.385 . S
C531 C532 1.389 . S
C532 C531 1.389 . S
C532 C533 1.387 . S
C533 H518 0.930 . S
C533 C528 1.390 . S
C533 C532 1.387 . S
H534 C546 0.930 . S
H535 C548 0.930 . S
H536 C549 0.930 . S
H537 C553 0.959 . S
H538 C553 0.959 1_554 S
H539 C553 0.961 . S
H540 C554 0.960 . S
H541 C554 0.961 1_554 S
H542 C554 0.959 . S
H543 C557 0.929 . S
H544 C558 0.931 . S
H545 C560 0.930 . S
C546 H534 0.930 . S
C546 C547 1.399 . S
C546 C551 1.399 . S
C547 C546 1.399 . S
C547 C548 1.376 . S
C548 H535 0.930 . S
C548 C547 1.376 . S
C548 C549 1.388 . S
C549 H536 0.930 . S
C549 C548 1.388 . S
C549 C550 1.390 . S
C550 C549 1.390 . S
C550 C551 1.394 . S
C550 C556 1.465 . S
C551 C546 1.399 . S
C551 C550 1.394 . S
C551 C552 1.516 . S
C552 C551 1.516 . S
C552 C553 1.502 . S
C552 C554 1.561 . S
C552 C555 1.526 . S
C553 H537 0.959 . S
C553 H538 0.959 1_556 S
C553 H539 0.961 . S
C553 C552 1.502 . S
C554 H540 0.960 . S
C554 H541 0.961 1_556 S
C554 H542 0.959 . S
C554 C552 1.561 . S
C555 C552 1.526 . S
C555 C556 1.396 . S
C555 C560 1.390 . S
C556 C550 1.465 . S
C556 C555 1.396 . S
C556 C557 1.399 . S
C557 H543 0.929 . S
C557 C556 1.399 . S
C557 C558 1.385 . S
C558 H544 0.931 . S
C558 C557 1.385 . S
C558 C559 1.389 . S
C559 C558 1.389 . S
C559 C560 1.387 . S
C560 H545 0.930 . S
C560 C555 1.390 . S
C560 C559 1.387 . S
H561 C573 0.930 . S
H562 C575 0.930 . S
H563 C576 0.930 . S
H564 C580 0.959 . S
H565 C580 0.959 . S
H566 C580 0.961 . S
H567 C581 0.960 . S
H568 C581 0.961 . S
H569 C581 0.959 . S
H570 C584 0.929 . S
H571 C585 0.931 . S
H572 C587 0.930 . S
C573 H561 0.930 . S
C573 C574 1.399 . S
C573 C578 1.399 . S
C574 C573 1.399 . S
C574 C575 1.376 . S
C575 H562 0.930 . S
C575 C574 1.376 . S
C575 C576 1.388 . S
C576 H563 0.930 . S
C576 C575 1.388 . S
C576 C577 1.390 . S
C577 C576 1.390 . S
C577 C578 1.394 . S
C577 C583 1.465 . S
C578 C573 1.399 . S
C578 C577 1.394 . S
C578 C579 1.516 . S
C579 C578 1.516 . S
C579 C580 1.502 . S
C579 C581 1.561 . S
C579 C582 1.526 . S
C580 H564 0.959 . S
C580 H565 0.959 . S
C580 H566 0.961 . S
C580 C579 1.502 . S
C581 H567 0.960 . S
C581 H568 0.961 . S
C581 H569 0.959 . S
C581 C579 1.561 . S
C582 C579 1.526 . S
C582 C583 1.396 . S
C582 C587 1.390 . S
C583 C577 1.465 . S
C583 C582 1.396 . S
C583 C584 1.399 . S
C584 H570 0.929 . S
C584 C583 1.399 . S
C584 C585 1.385 . S
C585 H571 0.931 . S
C585 C584 1.385 . S
C585 C586 1.389 . S
C586 C585 1.389 . S
C586 C587 1.387 . S
C587 H572 0.930 . S
C587 C582 1.390 . S
C587 C586 1.387 . S
H588 C600 0.930 . S
H589 C602 0.930 . S
H590 C603 0.930 . S
H591 C607 0.959 . S
H592 C607 0.959 . S
H593 C607 0.961 . S
H594 C608 0.953 1_554 S
H595 C608 0.961 1_554 S
H596 C608 0.959 . S
H597 C611 0.929 . S
H598 C612 0.931 . S
H599 C614 0.930 . S
C600 H588 0.930 . S
C600 C601 1.399 . S
C600 C605 1.399 . S
C601 C600 1.399 . S
C601 C602 1.376 . S
C602 H589 0.930 . S
C602 C601 1.376 . S
C602 C603 1.388 . S
C603 H590 0.930 . S
C603 C602 1.388 . S
C603 C604 1.390 . S
C604 C603 1.390 . S
C604 C605 1.394 . S
C604 C610 1.465 . S
C605 C600 1.399 . S
C605 C604 1.394 . S
C605 C606 1.516 . S
C606 C605 1.516 . S
C606 C607 1.502 . S
C606 C608 1.561 . S
C606 C609 1.526 . S
C607 H591 0.959 . S
C607 H592 0.959 . S
C607 H593 0.961 . S
C607 C606 1.502 . S
C608 H594 0.953 1_556 S
C608 H595 0.961 1_556 S
C608 H596 0.959 . S
C608 C606 1.561 . S
C609 C606 1.526 . S
C609 C610 1.396 . S
C609 C614 1.390 . S
C610 C604 1.465 . S
C610 C609 1.396 . S
C610 C611 1.399 . S
C611 H597 0.929 . S
C611 C610 1.399 . S
C611 C612 1.385 . S
C612 H598 0.931 . S
C612 C611 1.385 . S
C612 C613 1.389 . S
C613 C612 1.389 . S
C613 C614 1.387 . S
C614 H599 0.930 . S
C614 C609 1.390 . S
C614 C613 1.387 . S
H615 C627 0.930 . S
H616 C629 0.930 . S
H617 C630 0.930 . S
H618 C634 0.959 . S
H619 C634 0.959 . S
H620 C634 0.961 . S
H621 C635 0.960 . S
H622 C635 0.961 . S
H623 C635 0.959 . S
H624 C638 0.929 . S
H625 C639 0.931 . S
H626 C641 0.930 . S
C627 H615 0.930 . S
C627 C628 1.399 . S
C627 C632 1.399 . S
C628 C627 1.399 . S
C628 C629 1.376 . S
C629 H616 0.930 . S
C629 C628 1.376 . S
C629 C630 1.388 . S
C630 H617 0.930 . S
C630 C629 1.388 . S
C630 C631 1.390 . S
C631 C630 1.390 . S
C631 C632 1.394 . S
C631 C637 1.465 . S
C632 C627 1.399 . S
C632 C631 1.394 . S
C632 C633 1.516 . S
C633 C632 1.516 . S
C633 C634 1.502 . S
C633 C635 1.561 . S
C633 C636 1.526 . S
C634 H618 0.959 . S
C634 H619 0.959 . S
C634 H620 0.961 . S
C634 C633 1.502 . S
C635 H621 0.960 . S
C635 H622 0.961 . S
C635 H623 0.959 . S
C635 C633 1.561 . S
C636 C633 1.526 . S
C636 C637 1.396 . S
C636 C641 1.390 . S
C637 C631 1.465 . S
C637 C636 1.396 . S
C637 C638 1.399 . S
C638 H624 0.929 . S
C638 C637 1.399 . S
C638 C639 1.385 . S
C639 H625 0.931 . S
C639 C638 1.385 . S
C639 C640 1.389 . S
C640 C639 1.389 . S
C640 C641 1.387 . S
C641 H626 0.930 . S
C641 C636 1.390 . S
C641 C640 1.387 . S
H642 C654 0.930 . S
H643 C656 0.930 . S
H644 C657 0.930 . S
H645 C661 0.959 . S
H646 C661 0.959 . S
H647 C661 0.961 . S
H648 C662 0.960 . S
H649 C662 0.961 . S
H650 C662 0.959 . S
H651 C665 0.929 . S
H652 C666 0.931 . S
H653 C668 0.930 . S
C654 H642 0.930 . S
C654 C655 1.399 . S
C654 C659 1.399 . S
C655 C654 1.399 . S
C655 C656 1.376 . S
C656 H643 0.930 . S
C656 C655 1.376 . S
C656 C657 1.388 . S
C657 H644 0.930 . S
C657 C656 1.388 . S
C657 C658 1.390 . S
C658 C657 1.390 . S
C658 C659 1.394 . S
C658 C664 1.465 . S
C659 C654 1.399 . S
C659 C658 1.394 . S
C659 C660 1.516 . S
C660 C659 1.516 . S
C660 C661 1.502 . S
C660 C662 1.561 . S
C660 C663 1.526 . S
C661 H645 0.959 . S
C661 H646 0.959 . S
C661 H647 0.961 . S
C661 C660 1.502 . S
C662 H648 0.960 . S
C662 H649 0.961 . S
C662 H650 0.959 . S
C662 C660 1.561 . S
C663 C660 1.526 . S
C663 C664 1.396 . S
C663 C668 1.390 . S
C664 C658 1.465 . S
C664 C663 1.396 . S
C664 C665 1.399 . S
C665 H651 0.929 . S
C665 C664 1.399 . S
C665 C666 1.385 . S
C666 H652 0.931 . S
C666 C665 1.385 . S
C666 C667 1.389 . S
C667 C666 1.389 . S
C667 C668 1.387 . S
C668 H653 0.930 . S
C668 C663 1.390 . S
C668 C667 1.387 . S
H669 C681 0.930 . S
H670 C683 0.930 . S
H671 C684 0.930 . S
H672 C688 0.959 . S
H673 C688 0.959 . S
H674 C688 0.961 . S
H675 C689 0.960 . S
H676 C689 0.961 . S
H677 C689 0.959 . S
H678 C692 0.929 . S
H679 C693 0.931 . S
H680 C695 0.930 . S
C681 H669 0.930 . S
C681 C682 1.399 . S
C681 C686 1.399 . S
C682 C681 1.399 . S
C682 C683 1.376 . S
C683 H670 0.930 . S
C683 C682 1.376 . S
C683 C684 1.388 . S
C684 H671 0.930 . S
C684 C683 1.388 . S
C684 C685 1.390 . S
C685 C684 1.390 . S
C685 C686 1.394 . S
C685 C691 1.465 . S
C686 C681 1.399 . S
C686 C685 1.394 . S
C686 C687 1.516 . S
C687 C686 1.516 . S
C687 C688 1.502 . S
C687 C689 1.561 . S
C687 C690 1.526 . S
C688 H672 0.959 . S
C688 H673 0.959 . S
C688 H674 0.961 . S
C688 C687 1.502 . S
C689 H675 0.960 . S
C689 H676 0.961 . S
C689 H677 0.959 . S
C689 C687 1.561 . S
C690 C687 1.526 . S
C690 C691 1.396 . S
C690 C695 1.390 . S
C691 C685 1.465 . S
C691 C690 1.396 . S
C691 C692 1.399 . S
C692 H678 0.929 . S
C692 C691 1.399 . S
C692 C693 1.385 . S
C693 H679 0.931 . S
C693 C692 1.385 . S
C693 C694 1.389 . S
C694 C693 1.389 . S
C694 C695 1.387 . S
C695 H680 0.930 . S
C695 C690 1.390 . S
C695 C694 1.387 . S
H696 C708 0.930 . S
H697 C710 0.930 . S
H698 C711 0.930 . S
H699 C715 0.959 . S
H700 C715 0.959 . S
H701 C715 0.961 . S
H702 C716 0.960 . S
H703 C716 0.961 . S
H704 C716 0.959 . S
H705 C719 0.929 . S
H706 C720 0.931 . S
H707 C722 0.930 . S
C708 H696 0.930 . S
C708 C709 1.399 . S
C708 C713 1.399 . S
C709 C708 1.399 . S
C709 C710 1.376 . S
C710 H697 0.930 . S
C710 C709 1.376 . S
C710 C711 1.388 1_556 S
C711 H698 0.930 . S
C711 C710 1.388 1_554 S
C711 C712 1.390 . S
C712 C711 1.390 . S
C712 C713 1.394 1_554 S
C712 C718 1.465 . S
C713 C708 1.399 . S
C713 C712 1.394 1_556 S
C713 C714 1.516 . S
C714 C713 1.516 . S
C714 C715 1.502 . S
C714 C716 1.561 . S
C714 C717 1.526 1_556 S
C715 H699 0.959 . S
C715 H700 0.959 . S
C715 H701 0.961 . S
C715 C714 1.502 . S
C716 H702 0.960 . S
C716 H703 0.961 . S
C716 H704 0.959 . S
C716 C714 1.561 . S
C717 C714 1.526 1_554 S
C717 C718 1.396 . S
C717 C722 1.390 . S
C718 C712 1.465 . S
C718 C717 1.396 . S
C718 C719 1.399 . S
C719 H705 0.929 . S
C719 C718 1.399 . S
C719 C720 1.385 . S
C720 H706 0.931 . S
C720 C719 1.385 . S
C720 C721 1.389 . S
C721 C720 1.389 . S
C721 C722 1.387 . S
C722 H707 0.930 . S
C722 C717 1.390 . S
C722 C721 1.387 . S
H723 C735 0.930 1_565 S
H724 C737 0.930 . S
H725 C738 0.930 . S
H726 C742 0.959 . S
H727 C742 0.959 . S
H728 C742 0.961 1_554 S
H729 C743 0.960 . S
H730 C743 0.961 . S
H731 C743 0.959 . S
H732 C746 0.929 . S
H733 C747 0.931 . S
H734 C749 0.930 . S
C735 H723 0.930 1_545 S
C735 C736 1.399 . S
C735 C740 1.398 . S
C736 C735 1.399 . S
C736 C737 1.376 . S
C737 H724 0.930 . S
C737 C736 1.376 . S
C737 C738 1.388 . S
C738 H725 0.930 . S
C738 C737 1.388 . S
C738 C739 1.390 . S
C739 C738 1.390 . S
C739 C740 1.420 . S
C739 C745 1.465 1_554 S
C740 C735 1.398 . S
C740 C739 1.420 . S
C740 C741 1.495 1_545 S
C741 C740 1.495 1_565 S
C741 C742 1.502 1_554 S
C741 C743 1.561 . S
C741 C744 1.526 1_554 S
C742 H726 0.959 . S
C742 H727 0.959 . S
C742 H728 0.961 1_556 S
C742 C741 1.502 1_556 S
C743 H729 0.960 . S
C743 H730 0.961 . S
C743 H731 0.959 . S
C743 C741 1.561 . S
C744 C741 1.526 1_556 S
C744 C745 1.396 1_565 S
C744 C749 1.390 . S
C745 C739 1.465 1_556 S
C745 C744 1.396 1_545 S
C745 C746 1.399 . S
C746 H732 0.929 . S
C746 C745 1.399 . S
C746 C747 1.385 1_545 S
C747 H733 0.931 . S
C747 C746 1.385 1_565 S
C747 C748 1.389 . S
C748 C747 1.389 . S
C748 C749 1.387 . S
C749 H734 0.930 . S
C749 C744 1.390 . S
C749 C748 1.387 . S
H750 C762 0.930 . S
H751 C764 0.930 . S
H752 C765 0.930 . S
H753 C769 0.969 . S
H754 C769 0.947 1_455 S
H755 C769 0.977 . S
H756 C770 0.968 . S
H757 C770 0.961 . S
H758 C770 0.959 1_554 S
H759 C773 0.929 1_554 S
H760 C774 0.931 . S
H761 C776 0.930 . S
C762 H750 0.930 . S
C762 C763 1.399 . S
C762 C767 1.399 . S
C763 C762 1.399 . S
C763 C764 1.376 . S
C764 H751 0.930 . S
C764 C763 1.376 . S
C764 C765 1.388 . S
C765 H752 0.930 . S
C765 C764 1.388 . S
C765 C766 1.390 . S
C766 C765 1.390 . S
C766 C767 1.394 . S
C766 C772 1.465 1_654 S
C767 C762 1.399 . S
C767 C766 1.394 . S
C767 C768 1.516 1_654 S
C768 C767 1.516 1_456 S
C768 C769 1.489 1_455 S
C768 C770 1.561 . S
C768 C771 1.526 . S
C769 H753 0.969 . S
C769 H754 0.947 1_655 S
C769 H755 0.977 . S
C769 C768 1.489 1_655 S
C770 H756 0.968 . S
C770 H757 0.961 . S
C770 H758 0.959 1_556 S
C770 C768 1.561 . S
C771 C768 1.526 . S
C771 C772 1.396 . S
C771 C776 1.390 . S
C772 C766 1.465 1_456 S
C772 C771 1.396 . S
C772 C773 1.399 . S
C773 H759 0.929 1_556 S
C773 C772 1.399 . S
C773 C774 1.385 . S
C774 H760 0.931 . S
C774 C773 1.385 . S
C774 C775 1.389 . S
C775 C774 1.389 . S
C775 C776 1.387 . S
C776 H761 0.930 . S
C776 C771 1.390 . S
C776 C775 1.387 . S
H777 C789 0.930 . S
H778 C791 0.930 . S
H779 C792 0.930 . S
H780 C796 0.959 . S
H781 C796 0.959 . S
H782 C796 0.961 . S
H783 C797 0.960 . S
H784 C797 0.961 . S
H785 C797 0.959 . S
H786 C800 0.929 . S
H787 C801 0.931 . S
H788 C803 0.930 . S
C789 H777 0.930 . S
C789 C790 1.399 . S
C789 C794 1.399 . S
C790 C789 1.399 . S
C790 C791 1.376 . S
C791 H778 0.930 . S
C791 C790 1.376 . S
C791 C792 1.388 . S
C792 H779 0.930 . S
C792 C791 1.388 . S
C792 C793 1.390 . S
C793 C792 1.390 . S
C793 C794 1.394 . S
C793 C799 1.465 . S
C794 C789 1.399 . S
C794 C793 1.394 . S
C794 C795 1.516 . S
C795 C794 1.516 . S
C795 C796 1.502 . S
C795 C797 1.561 . S
C795 C798 1.526 . S
C796 H780 0.959 . S
C796 H781 0.959 . S
C796 H782 0.961 . S
C796 C795 1.502 . S
C797 H783 0.960 . S
C797 H784 0.961 . S
C797 H785 0.959 . S
C797 C795 1.561 . S
C798 C795 1.526 . S
C798 C799 1.396 . S
C798 C803 1.390 . S
C799 C793 1.465 . S
C799 C798 1.396 . S
C799 C800 1.399 . S
C800 H786 0.929 . S
C800 C799 1.399 . S
C800 C801 1.385 . S
C801 H787 0.931 . S
C801 C800 1.385 . S
C801 C802 1.389 . S
C802 C801 1.389 . S
C802 C803 1.387 . S
C803 H788 0.930 . S
C803 C798 1.390 . S
C803 C802 1.387 . S
H804 C816 0.930 . S
H805 C818 0.930 . S
H806 C819 0.930 . S
H807 C823 0.959 . S
H808 C823 0.959 . S
H809 C823 0.961 . S
H810 C824 0.960 . S
H811 C824 0.961 . S
H812 C824 0.962 . S
H813 C827 0.929 . S
H814 C828 0.931 . S
H815 C830 0.930 . S
C816 H804 0.930 . S
C816 C817 1.399 . S
C816 C821 1.399 . S
C817 C816 1.399 . S
C817 C818 1.376 . S
C818 H805 0.930 . S
C818 C817 1.376 . S
C818 C819 1.388 1_565 S
C819 H806 0.930 . S
C819 C818 1.388 1_545 S
C819 C820 1.390 . S
C820 C819 1.390 . S
C820 C821 1.394 1_545 S
C820 C826 1.465 . S
C821 C816 1.399 . S
C821 C820 1.394 1_565 S
C821 C822 1.516 . S
C822 C821 1.516 . S
C822 C823 1.502 . S
C822 C824 1.561 . S
C822 C825 1.526 1_565 S
C823 H807 0.959 . S
C823 H808 0.959 . S
C823 H809 0.961 . S
C823 C822 1.502 . S
C824 H810 0.960 . S
C824 H811 0.961 . S
C824 H812 0.962 . S
C824 C822 1.561 . S
C825 C822 1.526 1_545 S
C825 C826 1.396 . S
C825 C830 1.390 . S
C826 C820 1.465 . S
C826 C825 1.396 . S
C826 C827 1.399 . S
C827 H813 0.929 . S
C827 C826 1.399 . S
C827 C828 1.385 . S
C828 H814 0.931 . S
C828 C827 1.385 . S
C828 C829 1.389 . S
C829 C828 1.389 . S
C829 C830 1.387 . S
C830 H815 0.930 . S
C830 C825 1.390 . S
C830 C829 1.387 . S
H831 C843 0.930 . S
H832 C845 0.930 . S
H833 C846 0.930 . S
H834 C850 0.959 . S
H835 C850 0.959 1_455 S
H836 C850 0.961 . S
H837 C851 0.960 . S
H838 C851 0.961 . S
H839 C851 0.959 . S
H840 C854 0.929 . S
H841 C855 0.931 . S
H842 C857 0.930 . S
C843 H831 0.930 . S
C843 C844 1.399 . S
C843 C848 1.399 . S
C844 C843 1.399 . S
C844 C845 1.376 . S
C845 H832 0.930 . S
C845 C844 1.376 . S
C845 C846 1.388 . S
C846 H833 0.930 . S
C846 C845 1.388 . S
C846 C847 1.390 . S
C847 C846 1.390 . S
C847 C848 1.394 . S
C847 C853 1.465 1_655 S
C848 C843 1.399 . S
C848 C847 1.394 . S
C848 C849 1.516 1_655 S
C849 C848 1.516 1_455 S
C849 C850 1.502 1_455 S
C849 C851 1.561 . S
C849 C852 1.526 . S
C850 H834 0.959 . S
C850 H835 0.959 1_655 S
C850 H836 0.961 . S
C850 C849 1.502 1_655 S
C851 H837 0.960 . S
C851 H838 0.961 . S
C851 H839 0.959 . S
C851 C849 1.561 . S
C852 C849 1.526 . S
C852 C853 1.396 . S
C852 C857 1.390 . S
C853 C847 1.465 1_455 S
C853 C852 1.396 . S
C853 C854 1.399 . S
C854 H840 0.929 . S
C854 C853 1.399 . S
C854 C855 1.385 . S
C855 H841 0.931 . S
C855 C854 1.385 . S
C855 C856 1.389 . S
C856 C855 1.389 . S
C856 C857 1.387 . S
C857 H842 0.930 . S
C857 C852 1.390 . S
C857 C856 1.387 . S
H858 C870 0.930 . S
H859 C872 0.930 . S
H860 C873 0.930 . S
H861 C877 0.959 . S
H862 C877 0.959 . S
H863 C877 0.961 . S
H864 C878 0.960 . S
H865 C878 0.961 . S
H866 C878 0.959 . S
H867 C881 0.929 . S
H868 C882 0.931 . S
H869 C884 0.930 . S
C870 H858 0.930 . S
C870 C871 1.399 . S
C870 C875 1.399 . S
C871 C870 1.399 . S
C871 C872 1.376 . S
C872 H859 0.930 . S
C872 C871 1.376 . S
C872 C873 1.388 . S
C873 H860 0.930 . S
C873 C872 1.388 . S
C873 C874 1.390 . S
C874 C873 1.390 . S
C874 C875 1.394 . S
C874 C880 1.465 . S
C875 C870 1.399 . S
C875 C874 1.394 . S
C875 C876 1.516 . S
C876 C875 1.516 . S
C876 C877 1.502 . S
C876 C878 1.561 . S
C876 C879 1.526 . S
C877 H861 0.959 . S
C877 H862 0.959 . S
C877 H863 0.961 . S
C877 C876 1.502 . S
C878 H864 0.960 . S
C878 H865 0.961 . S
C878 H866 0.959 . S
C878 C876 1.561 . S
C879 C876 1.526 . S
C879 C880 1.396 . S
C879 C884 1.390 . S
C880 C874 1.465 . S
C880 C879 1.396 . S
C880 C881 1.399 . S
C881 H867 0.929 . S
C881 C880 1.399 . S
C881 C882 1.385 . S
C882 H868 0.931 . S
C882 C881 1.385 . S
C882 C883 1.389 . S
C883 C882 1.389 . S
C883 C884 1.387 . S
C884 H869 0.930 . S
C884 C879 1.390 . S
C884 C883 1.387 . S
H885 C897 0.930 . S
H886 C899 0.930 . S
H887 C900 0.930 . S
H888 C904 0.959 . S
H889 C904 0.959 . S
H890 C904 0.961 . S
H891 C905 0.960 . S
H892 C905 0.961 . S
H893 C905 0.959 . S
H894 C908 0.929 . S
H895 C909 0.931 . S
H896 C911 0.930 . S
C897 H885 0.930 . S
C897 C898 1.399 . S
C897 C902 1.399 . S
C898 C897 1.399 . S
C898 C899 1.376 . S
C899 H886 0.930 . S
C899 C898 1.376 . S
C899 C900 1.388 . S
C900 H887 0.930 . S
C900 C899 1.388 . S
C900 C901 1.390 . S
C901 C900 1.390 . S
C901 C902 1.394 . S
C901 C907 1.465 . S
C902 C897 1.399 . S
C902 C901 1.394 . S
C902 C903 1.516 . S
C903 C902 1.516 . S
C903 C904 1.502 . S
C903 C905 1.561 . S
C903 C906 1.526 . S
C904 H888 0.959 . S
C904 H889 0.959 . S
C904 H890 0.961 . S
C904 C903 1.502 . S
C905 H891 0.960 . S
C905 H892 0.961 . S
C905 H893 0.959 . S
C905 C903 1.561 . S
C906 C903 1.526 . S
C906 C907 1.396 . S
C906 C911 1.390 . S
C907 C901 1.465 . S
C907 C906 1.396 . S
C907 C908 1.399 . S
C908 H894 0.929 . S
C908 C907 1.399 . S
C908 C909 1.385 . S
C909 H895 0.931 . S
C909 C908 1.385 . S
C909 C910 1.389 . S
C910 C909 1.389 . S
C910 C911 1.387 . S
C911 H896 0.930 . S
C911 C906 1.390 . S
C911 C910 1.387 . S
H912 C924 0.930 . S
H913 C926 0.930 . S
H914 C927 0.930 . S
H915 C931 0.959 . S
H916 C931 0.959 . S
H917 C931 0.961 . S
H918 C932 0.960 . S
H919 C932 0.961 . S
H920 C932 0.959 . S
H921 C935 0.929 . S
H922 C936 0.931 . S
H923 C938 0.930 . S
C924 H912 0.930 . S
C924 C925 1.399 . S
C924 C929 1.399 . S
C925 C924 1.399 . S
C925 C926 1.376 . S
C926 H913 0.930 . S
C926 C925 1.376 . S
C926 C927 1.388 . S
C927 H914 0.930 . S
C927 C926 1.388 . S
C927 C928 1.390 . S
C928 C927 1.390 . S
C928 C929 1.394 . S
C928 C934 1.465 . S
C929 C924 1.399 . S
C929 C928 1.394 . S
C929 C930 1.516 . S
C930 C929 1.516 . S
C930 C931 1.502 . S
C930 C932 1.561 . S
C930 C933 1.526 . S
C931 H915 0.959 . S
C931 H916 0.959 . S
C931 H917 0.961 . S
C931 C930 1.502 . S
C932 H918 0.960 . S
C932 H919 0.961 . S
C932 H920 0.959 . S
C932 C930 1.561 . S
C933 C930 1.526 . S
C933 C934 1.396 . S
C933 C938 1.390 . S
C934 C928 1.465 . S
C934 C933 1.396 . S
C934 C935 1.399 . S
C935 H921 0.929 . S
C935 C934 1.399 . S
C935 C936 1.385 . S
C936 H922 0.931 . S
C936 C935 1.385 . S
C936 C937 1.389 . S
C937 C936 1.389 . S
C937 C938 1.387 . S
C938 H923 0.930 . S
C938 C933 1.390 . S
C938 C937 1.387 . S
H939 C951 0.930 . S
H940 C953 0.930 . S
H941 C954 0.930 . S
H942 C958 0.959 . S
H943 C958 0.959 . S
H944 C958 0.961 . S
H945 C959 0.960 . S
H946 C959 0.961 . S
H947 C959 0.959 . S
H948 C962 0.929 . S
H949 C963 0.931 . S
H950 C965 0.930 . S
C951 H939 0.930 . S
C951 C952 1.399 . S
C951 C956 1.399 . S
C952 C951 1.399 . S
C952 C953 1.376 . S
C953 H940 0.930 . S
C953 C952 1.376 . S
C953 C954 1.388 . S
C954 H941 0.930 . S
C954 C953 1.388 . S
C954 C955 1.390 . S
C955 C954 1.390 . S
C955 C956 1.394 . S
C955 C961 1.465 . S
C956 C951 1.399 . S
C956 C955 1.394 . S
C956 C957 1.516 . S
C957 C956 1.516 . S
C957 C958 1.502 . S
C957 C959 1.561 . S
C957 C960 1.526 . S
C958 H942 0.959 . S
C958 H943 0.959 . S
C958 H944 0.961 . S
C958 C957 1.502 . S
C959 H945 0.960 . S
C959 H946 0.961 . S
C959 H947 0.959 . S
C959 C957 1.561 . S
C960 C957 1.526 . S
C960 C961 1.396 . S
C960 C965 1.390 . S
C961 C955 1.465 . S
C961 C960 1.396 . S
C961 C962 1.399 . S
C962 H948 0.929 . S
C962 C961 1.399 . S
C962 C963 1.385 . S
C963 H949 0.931 . S
C963 C962 1.385 . S
C963 C964 1.389 . S
C964 C963 1.389 . S
C964 C965 1.387 . S
C965 H950 0.930 . S
C965 C960 1.390 . S
C965 C964 1.387 . S
H966 C978 0.930 . S
H967 C980 0.930 . S
H968 C981 0.930 . S
H969 C985 0.959 . S
H970 C985 0.959 . S
H971 C985 0.961 . S
H972 C986 0.960 . S
H973 C986 0.961 . S
H974 C986 0.959 . S
H975 C989 0.929 . S
H976 C990 0.931 . S
H977 C992 0.930 . S
C978 H966 0.930 . S
C978 C979 1.399 . S
C978 C983 1.399 . S
C979 C978 1.399 . S
C979 C980 1.376 . S
C980 H967 0.930 . S
C980 C979 1.376 . S
C980 C981 1.388 . S
C981 H968 0.930 . S
C981 C980 1.388 . S
C981 C982 1.390 . S
C982 C981 1.390 . S
C982 C983 1.394 . S
C982 C988 1.465 . S
C983 C978 1.399 . S
C983 C982 1.394 . S
C983 C984 1.516 . S
C984 C983 1.516 . S
C984 C985 1.502 . S
C984 C986 1.561 . S
C984 C987 1.526 . S
C985 H969 0.959 . S
C985 H970 0.959 . S
C985 H971 0.961 . S
C985 C984 1.502 . S
C986 H972 0.960 . S
C986 H973 0.961 . S
C986 H974 0.959 . S
C986 C984 1.561 . S
C987 C984 1.526 . S
C987 C988 1.396 . S
C987 C992 1.390 . S
C988 C982 1.465 . S
C988 C987 1.396 . S
C988 C989 1.399 . S
C989 H975 0.929 . S
C989 C988 1.399 . S
C989 C990 1.385 . S
C990 H976 0.931 . S
C990 C989 1.385 . S
C990 C991 1.389 . S
C991 C990 1.389 . S
C991 C992 1.387 . S
C992 H977 0.930 . S
C992 C987 1.390 . S
C992 C991 1.387 . S
H993 C1005 0.930 . S
H994 C1007 0.930 . S
H995 C1008 0.930 . S
H996 C1012 0.959 . S
H997 C1012 0.959 . S
H998 C1012 0.961 . S
H999 C1013 0.960 . S
H1000 C1013 0.961 . S
H1001 C1013 0.959 . S
H1002 C1016 0.929 . S
H1003 C1017 0.931 . S
H1004 C1019 0.930 . S
C1005 H993 0.930 . S
C1005 C1006 1.399 . S
C1005 C1010 1.399 . S
C1006 C1005 1.399 . S
C1006 C1007 1.376 . S
C1007 H994 0.930 . S
C1007 C1006 1.376 . S
C1007 C1008 1.388 . S
C1008 H995 0.930 . S
C1008 C1007 1.388 . S
C1008 C1009 1.390 . S
C1009 C1008 1.390 . S
C1009 C1010 1.394 . S
C1009 C1015 1.465 . S
C1010 C1005 1.399 . S
C1010 C1009 1.394 . S
C1010 C1011 1.516 . S
C1011 C1010 1.516 . S
C1011 C1012 1.502 . S
C1011 C1013 1.561 . S
C1011 C1014 1.526 . S
C1012 H996 0.959 . S
C1012 H997 0.959 . S
C1012 H998 0.961 . S
C1012 C1011 1.502 . S
C1013 H999 0.960 . S
C1013 H1000 0.961 . S
C1013 H1001 0.959 . S
C1013 C1011 1.561 . S
C1014 C1011 1.526 . S
C1014 C1015 1.396 . S
C1014 C1019 1.390 . S
C1015 C1009 1.465 . S
C1015 C1014 1.396 . S
C1015 C1016 1.399 . S
C1016 H1002 0.929 . S
C1016 C1015 1.399 . S
C1016 C1017 1.385 . S
C1017 H1003 0.931 . S
C1017 C1016 1.385 . S
C1017 C1018 1.389 . S
C1018 C1017 1.389 . S
C1018 C1019 1.387 . S
C1019 H1004 0.930 . S
C1019 C1014 1.390 . S
C1019 C1018 1.387 . S
H1020 C1032 0.930 . S
H1021 C1034 0.930 . S
H1022 C1035 0.930 . S
H1023 C1039 0.959 . S
H1024 C1039 0.959 . S
H1025 C1039 0.961 . S
H1026 C1040 0.960 . S
H1027 C1040 0.961 . S
H1028 C1040 0.959 . S
H1029 C1043 0.929 . S
H1030 C1044 0.931 . S
H1031 C1046 0.930 . S
C1032 H1020 0.930 . S
C1032 C1033 1.399 . S
C1032 C1037 1.399 . S
C1033 C1032 1.399 . S
C1033 C1034 1.376 . S
C1034 H1021 0.930 . S
C1034 C1033 1.376 . S
C1034 C1035 1.388 . S
C1035 H1022 0.930 . S
C1035 C1034 1.388 . S
C1035 C1036 1.390 . S
C1036 C1035 1.390 . S
C1036 C1037 1.394 . S
C1036 C1042 1.465 . S
C1037 C1032 1.399 . S
C1037 C1036 1.394 . S
C1037 C1038 1.516 . S
C1038 C1037 1.516 . S
C1038 C1039 1.502 . S
C1038 C1040 1.561 . S
C1038 C1041 1.526 . S
C1039 H1023 0.959 . S
C1039 H1024 0.959 . S
C1039 H1025 0.961 . S
C1039 C1038 1.502 . S
C1040 H1026 0.960 . S
C1040 H1027 0.961 . S
C1040 H1028 0.959 . S
C1040 C1038 1.561 . S
C1041 C1038 1.526 . S
C1041 C1042 1.396 . S
C1041 C1046 1.390 . S
C1042 C1036 1.465 . S
C1042 C1041 1.396 . S
C1042 C1043 1.399 . S
C1043 H1029 0.929 . S
C1043 C1042 1.399 . S
C1043 C1044 1.385 . S
C1044 H1030 0.931 . S
C1044 C1043 1.385 . S
C1044 C1045 1.389 . S
C1045 C1044 1.389 . S
C1045 C1046 1.387 . S
C1046 H1031 0.930 . S
C1046 C1041 1.390 . S
C1046 C1045 1.387 . S
H1047 C1059 0.930 . S
H1048 C1061 0.930 . S
H1049 C1062 0.930 . S
H1050 C1066 0.959 . S
H1051 C1066 0.959 . S
H1052 C1066 0.961 . S
H1053 C1067 0.960 . S
H1054 C1067 0.961 . S
H1055 C1067 0.959 . S
H1056 C1070 0.929 . S
H1057 C1071 0.931 . S
H1058 C1073 0.930 . S
C1059 H1047 0.930 . S
C1059 C1060 1.399 . S
C1059 C1064 1.399 . S
C1060 C1059 1.399 . S
C1060 C1061 1.376 . S
C1061 H1048 0.930 . S
C1061 C1060 1.376 . S
C1061 C1062 1.388 . S
C1062 H1049 0.930 . S
C1062 C1061 1.388 . S
C1062 C1063 1.390 . S
C1063 C1062 1.390 . S
C1063 C1064 1.394 . S
C1063 C1069 1.465 . S
C1064 C1059 1.399 . S
C1064 C1063 1.394 . S
C1064 C1065 1.516 . S
C1065 C1064 1.516 . S
C1065 C1066 1.502 . S
C1065 C1067 1.561 . S
C1065 C1068 1.526 . S
C1066 H1050 0.959 . S
C1066 H1051 0.959 . S
C1066 H1052 0.961 . S
C1066 C1065 1.502 . S
C1067 H1053 0.960 . S
C1067 H1054 0.961 . S
C1067 H1055 0.959 . S
C1067 C1065 1.561 . S
C1068 C1065 1.526 . S
C1068 C1069 1.396 . S
C1068 C1073 1.390 . S
C1069 C1063 1.465 . S
C1069 C1068 1.396 . S
C1069 C1070 1.399 . S
C1070 H1056 0.929 . S
C1070 C1069 1.399 . S
C1070 C1071 1.385 . S
C1071 H1057 0.931 . S
C1071 C1070 1.385 . S
C1071 C1072 1.389 . S
C1072 C1071 1.389 . S
C1072 C1073 1.387 . S
C1073 H1058 0.930 . S
C1073 C1068 1.390 . S
C1073 C1072 1.387 . S
H1074 C1086 0.930 . S
H1075 C1088 0.930 . S
H1076 C1089 0.930 . S
H1077 C1093 0.959 . S
H1078 C1093 0.959 . S
H1079 C1093 0.961 . S
H1080 C1094 0.960 . S
H1081 C1094 0.961 . S
H1082 C1094 0.959 . S
H1083 C1097 0.929 . S
H1084 C1098 0.931 . S
H1085 C1100 0.930 . S
C1086 H1074 0.930 . S
C1086 C1087 1.399 . S
C1086 C1091 1.399 . S
C1087 C1086 1.399 . S
C1087 C1088 1.376 . S
C1088 H1075 0.930 . S
C1088 C1087 1.376 . S
C1088 C1089 1.388 . S
C1089 H1076 0.930 . S
C1089 C1088 1.388 . S
C1089 C1090 1.390 . S
C1090 C1089 1.390 . S
C1090 C1091 1.394 . S
C1090 C1096 1.465 . S
C1091 C1086 1.399 . S
C1091 C1090 1.394 . S
C1091 C1092 1.516 . S
C1092 C1091 1.516 . S
C1092 C1093 1.502 . S
C1092 C1094 1.561 . S
C1092 C1095 1.526 . S
C1093 H1077 0.959 . S
C1093 H1078 0.959 . S
C1093 H1079 0.961 . S
C1093 C1092 1.502 . S
C1094 H1080 0.960 . S
C1094 H1081 0.961 . S
C1094 H1082 0.959 . S
C1094 C1092 1.561 . S
C1095 C1092 1.526 . S
C1095 C1096 1.396 . S
C1095 C1100 1.390 . S
C1096 C1090 1.465 . S
C1096 C1095 1.396 . S
C1096 C1097 1.399 . S
C1097 H1083 0.929 . S
C1097 C1096 1.399 . S
C1097 C1098 1.385 . S
C1098 H1084 0.931 . S
C1098 C1097 1.385 . S
C1098 C1099 1.389 . S
C1099 C1098 1.389 . S
C1099 C1100 1.387 . S
C1100 H1085 0.930 . S
C1100 C1095 1.390 . S
C1100 C1099 1.387 . S
H1101 C1113 0.930 . S
H1102 C1115 0.930 . S
H1103 C1116 0.930 . S
H1104 C1120 0.959 . S
H1105 C1120 0.959 . S
H1106 C1120 0.961 . S
H1107 C1121 0.960 . S
H1108 C1121 0.961 . S
H1109 C1121 0.959 . S
H1110 C1124 0.929 . S
H1111 C1125 0.931 . S
H1112 C1127 0.930 . S
C1113 H1101 0.930 . S
C1113 C1114 1.399 . S
C1113 C1118 1.399 . S
C1114 C1113 1.399 . S
C1114 C1115 1.376 . S
C1115 H1102 0.930 . S
C1115 C1114 1.376 . S
C1115 C1116 1.388 . S
C1116 H1103 0.930 . S
C1116 C1115 1.388 . S
C1116 C1117 1.390 . S
C1117 C1116 1.390 . S
C1117 C1118 1.394 . S
C1117 C1123 1.465 . S
C1118 C1113 1.399 . S
C1118 C1117 1.394 . S
C1118 C1119 1.516 . S
C1119 C1118 1.516 . S
C1119 C1120 1.502 . S
C1119 C1121 1.561 . S
C1119 C1122 1.526 . S
C1120 H1104 0.959 . S
C1120 H1105 0.959 . S
C1120 H1106 0.961 . S
C1120 C1119 1.502 . S
C1121 H1107 0.960 . S
C1121 H1108 0.961 . S
C1121 H1109 0.959 . S
C1121 C1119 1.561 . S
C1122 C1119 1.526 . S
C1122 C1123 1.396 . S
C1122 C1127 1.390 . S
C1123 C1117 1.465 . S
C1123 C1122 1.396 . S
C1123 C1124 1.399 . S
C1124 H1110 0.929 . S
C1124 C1123 1.399 . S
C1124 C1125 1.385 . S
C1125 H1111 0.931 . S
C1125 C1124 1.385 . S
C1125 C1126 1.389 . S
C1126 C1125 1.389 . S
C1126 C1127 1.387 . S
C1127 H1112 0.930 . S
C1127 C1122 1.390 . S
C1127 C1126 1.387 . S
H1128 C1140 0.930 . S
H1129 C1142 0.930 . S
H1130 C1143 0.930 . S
H1131 C1147 0.959 . S
H1132 C1147 0.959 . S
H1133 C1147 0.961 . S
H1134 C1148 0.960 . S
H1135 C1148 0.961 . S
H1136 C1148 0.959 . S
H1137 C1151 0.929 . S
H1138 C1152 0.931 . S
H1139 C1154 0.930 . S
C1140 H1128 0.930 . S
C1140 C1141 1.399 . S
C1140 C1145 1.399 . S
C1141 C1140 1.399 . S
C1141 C1142 1.376 . S
C1142 H1129 0.930 . S
C1142 C1141 1.376 . S
C1142 C1143 1.388 . S
C1143 H1130 0.930 . S
C1143 C1142 1.388 . S
C1143 C1144 1.390 . S
C1144 C1143 1.390 . S
C1144 C1145 1.394 . S
C1144 C1150 1.465 . S
C1145 C1140 1.399 . S
C1145 C1144 1.394 . S
C1145 C1146 1.516 . S
C1146 C1145 1.516 . S
C1146 C1147 1.502 . S
C1146 C1148 1.561 . S
C1146 C1149 1.526 . S
C1147 H1131 0.959 . S
C1147 H1132 0.959 . S
C1147 H1133 0.961 . S
C1147 C1146 1.502 . S
C1148 H1134 0.960 . S
C1148 H1135 0.961 . S
C1148 H1136 0.959 . S
C1148 C1146 1.561 . S
C1149 C1146 1.526 . S
C1149 C1150 1.396 . S
C1149 C1154 1.390 . S
C1150 C1144 1.465 . S
C1150 C1149 1.396 . S
C1150 C1151 1.399 . S
C1151 H1137 0.929 . S
C1151 C1150 1.399 . S
C1151 C1152 1.385 . S
C1152 H1138 0.931 . S
C1152 C1151 1.385 . S
C1152 C1153 1.389 . S
C1153 C1152 1.389 . S
C1153 C1154 1.387 . S
C1154 H1139 0.930 . S
C1154 C1149 1.390 . S
C1154 C1153 1.387 . S
H1155 C1167 0.930 . S
H1156 C1169 0.930 . S
H1157 C1170 0.930 . S
H1158 C1174 0.959 . S
H1159 C1174 0.959 . S
H1160 C1174 0.961 . S
H1161 C1175 0.960 . S
H1162 C1175 0.961 . S
H1163 C1175 0.959 . S
H1164 C1178 0.929 . S
H1165 C1179 0.931 . S
H1166 C1181 0.930 . S
C1167 H1155 0.930 . S
C1167 C1168 1.399 . S
C1167 C1172 1.399 . S
C1168 C1167 1.399 . S
C1168 C1169 1.376 . S
C1169 H1156 0.930 . S
C1169 C1168 1.376 . S
C1169 C1170 1.388 . S
C1170 H1157 0.930 . S
C1170 C1169 1.388 . S
C1170 C1171 1.390 . S
C1171 C1170 1.390 . S
C1171 C1172 1.394 . S
C1171 C1177 1.465 . S
C1172 C1167 1.399 . S
C1172 C1171 1.394 . S
C1172 C1173 1.516 . S
C1173 C1172 1.516 . S
C1173 C1174 1.502 . S
C1173 C1175 1.561 . S
C1173 C1176 1.526 . S
C1174 H1158 0.959 . S
C1174 H1159 0.959 . S
C1174 H1160 0.961 . S
C1174 C1173 1.502 . S
C1175 H1161 0.960 . S
C1175 H1162 0.961 . S
C1175 H1163 0.959 . S
C1175 C1173 1.561 . S
C1176 C1173 1.526 . S
C1176 C1177 1.396 . S
C1176 C1181 1.390 . S
C1177 C1171 1.465 . S
C1177 C1176 1.396 . S
C1177 C1178 1.399 . S
C1178 H1164 0.929 . S
C1178 C1177 1.399 . S
C1178 C1179 1.385 . S
C1179 H1165 0.931 . S
C1179 C1178 1.385 . S
C1179 C1180 1.389 . S
C1180 C1179 1.389 . S
C1180 C1181 1.387 . S
C1181 H1166 0.930 . S
C1181 C1176 1.390 . S
C1181 C1180 1.387 . S
H1182 C1194 0.930 . S
H1183 C1196 0.930 . S
H1184 C1197 0.930 . S
H1185 C1201 0.959 . S
H1186 C1201 0.959 . S
H1187 C1201 0.961 . S
H1188 C1202 0.960 . S
H1189 C1202 0.961 . S
H1190 C1202 0.959 . S
H1191 C1205 0.929 . S
H1192 C1206 0.931 . S
H1193 C1208 0.930 . S
C1194 H1182 0.930 . S
C1194 C1195 1.399 . S
C1194 C1199 1.399 . S
C1195 C1194 1.399 . S
C1195 C1196 1.376 . S
C1196 H1183 0.930 . S
C1196 C1195 1.376 . S
C1196 C1197 1.388 . S
C1197 H1184 0.930 . S
C1197 C1196 1.388 . S
C1197 C1198 1.390 . S
C1198 C1197 1.390 . S
C1198 C1199 1.394 . S
C1198 C1204 1.465 . S
C1199 C1194 1.399 . S
C1199 C1198 1.394 . S
C1199 C1200 1.516 . S
C1200 C1199 1.516 . S
C1200 C1201 1.502 . S
C1200 C1202 1.561 . S
C1200 C1203 1.526 . S
C1201 H1185 0.959 . S
C1201 H1186 0.959 . S
C1201 H1187 0.961 . S
C1201 C1200 1.502 . S
C1202 H1188 0.960 . S
C1202 H1189 0.961 . S
C1202 H1190 0.959 . S
C1202 C1200 1.561 . S
C1203 C1200 1.526 . S
C1203 C1204 1.396 . S
C1203 C1208 1.390 . S
C1204 C1198 1.465 . S
C1204 C1203 1.396 . S
C1204 C1205 1.399 . S
C1205 H1191 0.929 . S
C1205 C1204 1.399 . S
C1205 C1206 1.385 . S
C1206 H1192 0.931 . S
C1206 C1205 1.385 . S
C1206 C1207 1.389 . S
C1207 C1206 1.389 . S
C1207 C1208 1.387 . S
C1208 H1193 0.930 . S
C1208 C1203 1.390 . S
C1208 C1207 1.387 . S
H1209 C1221 0.930 . S
H1210 C1223 0.930 . S
H1211 C1224 0.930 . S
H1212 C1228 0.959 . S
H1213 C1228 0.959 . S
H1214 C1228 0.961 . S
H1215 C1229 0.960 . S
H1216 C1229 0.961 . S
H1217 C1229 0.959 . S
H1218 C1232 0.929 1_565 S
H1219 C1233 0.931 . S
H1220 C1235 0.930 . S
C1221 H1209 0.930 . S
C1221 C1222 1.399 . S
C1221 C1226 1.399 . S
C1222 C1221 1.399 . S
C1222 C1223 1.376 . S
C1223 H1210 0.930 . S
C1223 C1222 1.376 . S
C1223 C1224 1.388 . S
C1224 H1211 0.930 . S
C1224 C1223 1.388 . S
C1224 C1225 1.390 . S
C1225 C1224 1.390 . S
C1225 C1226 1.394 . S
C1225 C1231 1.465 1_565 S
C1226 C1221 1.399 . S
C1226 C1225 1.394 . S
C1226 C1227 1.516 1_565 S
C1227 C1226 1.516 1_545 S
C1227 C1228 1.502 . S
C1227 C1229 1.561 . S
C1227 C1230 1.526 . S
C1228 H1212 0.959 . S
C1228 H1213 0.959 . S
C1228 H1214 0.961 . S
C1228 C1227 1.502 . S
C1229 H1215 0.960 . S
C1229 H1216 0.961 . S
C1229 H1217 0.959 . S
C1229 C1227 1.561 . S
C1230 C1227 1.526 . S
C1230 C1231 1.396 . S
C1230 C1235 1.390 . S
C1231 C1225 1.465 1_545 S
C1231 C1230 1.396 . S
C1231 C1232 1.399 . S
C1232 H1218 0.929 1_545 S
C1232 C1231 1.399 . S
C1232 C1233 1.385 . S
C1233 H1219 0.931 . S
C1233 C1232 1.385 . S
C1233 C1234 1.389 . S
C1234 C1233 1.389 . S
C1234 C1235 1.387 . S
C1235 H1220 0.930 . S
C1235 C1230 1.390 . S
C1235 C1234 1.387 . S
H1236 C1248 0.930 . S
H1237 C1250 0.930 . S
H1238 C1251 0.930 . S
H1239 C1255 0.959 . S
H1240 C1255 0.959 1_655 S
H1241 C1255 0.961 . S
H1242 C1256 0.960 . S
H1243 C1256 0.961 . S
H1244 C1256 0.959 . S
H1245 C1259 0.929 . S
H1246 C1260 0.931 . S
H1247 C1262 0.930 . S
C1248 H1236 0.930 . S
C1248 C1249 1.399 . S
C1248 C1253 1.399 . S
C1249 C1248 1.399 . S
C1249 C1250 1.376 . S
C1250 H1237 0.930 . S
C1250 C1249 1.376 . S
C1250 C1251 1.388 . S
C1251 H1238 0.930 . S
C1251 C1250 1.388 . S
C1251 C1252 1.390 . S
C1252 C1251 1.390 . S
C1252 C1253 1.394 . S
C1252 C1258 1.465 1_455 S
C1253 C1248 1.399 . S
C1253 C1252 1.394 . S
C1253 C1254 1.516 1_455 S
C1254 C1253 1.516 1_655 S
C1254 C1255 1.502 1_655 S
C1254 C1256 1.561 . S
C1254 C1257 1.526 . S
C1255 H1239 0.959 . S
C1255 H1240 0.959 1_455 S
C1255 H1241 0.961 . S
C1255 C1254 1.502 1_455 S
C1256 H1242 0.960 . S
C1256 H1243 0.961 . S
C1256 H1244 0.959 . S
C1256 C1254 1.561 . S
C1257 C1254 1.526 . S
C1257 C1258 1.396 . S
C1257 C1262 1.390 . S
C1258 C1252 1.465 1_655 S
C1258 C1257 1.396 . S
C1258 C1259 1.399 . S
C1259 H1245 0.929 . S
C1259 C1258 1.399 . S
C1259 C1260 1.385 . S
C1260 H1246 0.931 . S
C1260 C1259 1.385 . S
C1260 C1261 1.389 . S
C1261 C1260 1.389 . S
C1261 C1262 1.387 . S
C1262 H1247 0.930 . S
C1262 C1257 1.390 . S
C1262 C1261 1.387 . S
H1263 C1275 0.930 . S
H1264 C1277 0.930 . S
H1265 C1278 0.930 . S
H1266 C1282 0.959 . S
H1267 C1282 0.959 . S
H1268 C1282 0.961 . S
H1269 C1283 0.960 . S
H1270 C1283 0.961 . S
H1271 C1283 0.959 . S
H1272 C1286 0.929 . S
H1273 C1287 0.931 . S
H1274 C1289 0.930 . S
C1275 H1263 0.930 . S
C1275 C1276 1.399 . S
C1275 C1280 1.399 . S
C1276 C1275 1.399 . S
C1276 C1277 1.376 . S
C1277 H1264 0.930 . S
C1277 C1276 1.376 . S
C1277 C1278 1.388 . S
C1278 H1265 0.930 . S
C1278 C1277 1.388 . S
C1278 C1279 1.390 . S
C1279 C1278 1.390 . S
C1279 C1280 1.394 . S
C1279 C1285 1.465 . S
C1280 C1275 1.399 . S
C1280 C1279 1.394 . S
C1280 C1281 1.516 . S
C1281 C1280 1.516 . S
C1281 C1282 1.502 . S
C1281 C1283 1.561 . S
C1281 C1284 1.526 . S
C1282 H1266 0.959 . S
C1282 H1267 0.959 . S
C1282 H1268 0.961 . S
C1282 C1281 1.502 . S
C1283 H1269 0.960 . S
C1283 H1270 0.961 . S
C1283 H1271 0.959 . S
C1283 C1281 1.561 . S
C1284 C1281 1.526 . S
C1284 C1285 1.396 . S
C1284 C1289 1.390 . S
C1285 C1279 1.465 . S
C1285 C1284 1.396 . S
C1285 C1286 1.399 . S
C1286 H1272 0.929 . S
C1286 C1285 1.399 . S
C1286 C1287 1.385 . S
C1287 H1273 0.931 . S
C1287 C1286 1.385 . S
C1287 C1288 1.389 . S
C1288 C1287 1.389 . S
C1288 C1289 1.387 . S
C1289 H1274 0.930 . S
C1289 C1284 1.390 . S
C1289 C1288 1.387 . S
H1290 C1302 0.930 . S
H1291 C1304 0.930 . S
H1292 C1305 0.930 1_545 S
H1293 C1309 0.959 . S
H1294 C1309 0.959 . S
H1295 C1309 0.961 . S
H1296 C1310 0.960 . S
H1297 C1310 0.961 . S
H1298 C1310 0.959 . S
H1299 C1313 0.929 . S
H1300 C1314 0.931 . S
H1301 C1316 0.930 . S
C1302 H1290 0.930 . S
C1302 C1303 1.399 . S
C1302 C1307 1.399 . S
C1303 C1302 1.399 . S
C1303 C1304 1.376 . S
C1304 H1291 0.930 . S
C1304 C1303 1.376 . S
C1304 C1305 1.388 . S
C1305 H1292 0.930 1_565 S
C1305 C1304 1.388 . S
C1305 C1306 1.390 . S
C1306 C1305 1.390 . S
C1306 C1307 1.394 . S
C1306 C1312 1.465 1_565 S
C1307 C1302 1.399 . S
C1307 C1306 1.394 . S
C1307 C1308 1.516 . S
C1308 C1307 1.516 . S
C1308 C1309 1.502 . S
C1308 C1310 1.561 . S
C1308 C1311 1.526 1_565 S
C1309 H1293 0.959 . S
C1309 H1294 0.959 . S
C1309 H1295 0.961 . S
C1309 C1308 1.502 . S
C1310 H1296 0.960 . S
C1310 H1297 0.961 . S
C1310 H1298 0.959 . S
C1310 C1308 1.561 . S
C1311 C1308 1.526 1_545 S
C1311 C1312 1.396 . S
C1311 C1316 1.390 . S
C1312 C1306 1.465 1_545 S
C1312 C1311 1.396 . S
C1312 C1313 1.399 . S
C1313 H1299 0.929 . S
C1313 C1312 1.399 . S
C1313 C1314 1.385 . S
C1314 H1300 0.931 . S
C1314 C1313 1.385 . S
C1314 C1315 1.389 . S
C1315 C1314 1.389 . S
C1315 C1316 1.387 . S
C1316 H1301 0.930 . S
C1316 C1311 1.390 . S
C1316 C1315 1.387 . S
H1317 C1329 0.930 . S
H1318 C1331 0.930 . S
H1319 C1332 0.930 . S
H1320 C1336 0.959 . S
H1321 C1336 0.959 . S
H1322 C1336 0.961 . S
H1323 C1337 0.960 1_655 S
H1324 C1337 0.961 . S
H1325 C1337 0.959 1_655 S
H1326 C1340 0.929 1_655 S
H1327 C1341 0.931 . S
H1328 C1343 0.930 . S
C1329 H1317 0.930 . S
C1329 C1330 1.399 . S
C1329 C1334 1.399 . S
C1330 C1329 1.399 . S
C1330 C1331 1.376 . S
C1331 H1318 0.930 . S
C1331 C1330 1.376 . S
C1331 C1332 1.388 . S
C1332 H1319 0.930 . S
C1332 C1331 1.388 . S
C1332 C1333 1.390 . S
C1333 C1332 1.390 . S
C1333 C1334 1.394 . S
C1333 C1339 1.465 1_655 S
C1334 C1329 1.399 . S
C1334 C1333 1.394 . S
C1334 C1335 1.516 1_655 S
C1335 C1334 1.516 1_455 S
C1335 C1336 1.502 . S
C1335 C1337 1.561 . S
C1335 C1338 1.526 . S
C1336 H1320 0.959 . S
C1336 H1321 0.959 . S
C1336 H1322 0.961 . S
C1336 C1335 1.502 . S
C1337 H1323 0.960 1_455 S
C1337 H1324 0.961 . S
C1337 H1325 0.959 1_455 S
C1337 C1335 1.561 . S
C1338 C1335 1.526 . S
C1338 C1339 1.396 . S
C1338 C1343 1.390 . S
C1339 C1333 1.465 1_455 S
C1339 C1338 1.396 . S
C1339 C1340 1.399 . S
C1340 H1326 0.929 1_455 S
C1340 C1339 1.399 . S
C1340 C1341 1.385 . S
C1341 H1327 0.931 . S
C1341 C1340 1.385 . S
C1341 C1342 1.389 . S
C1342 C1341 1.389 . S
C1342 C1343 1.387 . S
C1343 H1328 0.930 . S
C1343 C1338 1.390 . S
C1343 C1342 1.387 . S
H1344 C1356 0.930 . S
H1345 C1358 0.930 . S
H1346 C1359 0.930 . S
H1347 C1363 0.959 . S
H1348 C1363 0.959 . S
H1349 C1363 0.961 . S
H1350 C1364 0.960 . S
H1351 C1364 0.961 . S
H1352 C1364 0.959 . S
H1353 C1367 0.929 . S
H1354 C1368 0.931 . S
H1355 C1370 0.930 1_554 S
C1356 H1344 0.930 . S
C1356 C1357 1.399 . S
C1356 C1361 1.399 . S
C1357 C1356 1.399 . S
C1357 C1358 1.376 . S
C1358 H1345 0.930 . S
C1358 C1357 1.376 . S
C1358 C1359 1.388 . S
C1359 H1346 0.930 . S
C1359 C1358 1.388 . S
C1359 C1360 1.390 . S
C1360 C1359 1.390 . S
C1360 C1361 1.394 . S
C1360 C1366 1.465 . S
C1361 C1356 1.399 . S
C1361 C1360 1.394 . S
C1361 C1362 1.516 . S
C1362 C1361 1.516 . S
C1362 C1363 1.502 . S
C1362 C1364 1.561 . S
C1362 C1365 1.526 . S
C1363 H1347 0.959 . S
C1363 H1348 0.959 . S
C1363 H1349 0.961 . S
C1363 C1362 1.502 . S
C1364 H1350 0.960 . S
C1364 H1351 0.961 . S
C1364 H1352 0.959 . S
C1364 C1362 1.561 . S
C1365 C1362 1.526 . S
C1365 C1366 1.396 . S
C1365 C1370 1.390 . S
C1366 C1360 1.465 . S
C1366 C1365 1.396 . S
C1366 C1367 1.399 . S
C1367 H1353 0.929 . S
C1367 C1366 1.399 . S
C1367 C1368 1.385 . S
C1368 H1354 0.931 . S
C1368 C1367 1.385 . S
C1368 C1369 1.389 . S
C1369 C1368 1.389 . S
C1369 C1370 1.387 . S
C1370 H1355 0.930 1_556 S
C1370 C1365 1.390 . S
C1370 C1369 1.387 . S
H1371 C1383 0.930 . S
H1372 C1385 0.930 . S
H1373 C1386 0.930 . S
H1374 C1390 0.959 . S
H1375 C1390 0.959 . S
H1376 C1390 0.961 . S
H1377 C1391 0.960 . S
H1378 C1391 0.961 . S
H1379 C1391 0.959 . S
H1380 C1394 0.929 . S
H1381 C1395 0.931 . S
H1382 C1397 0.930 . S
C1383 H1371 0.930 . S
C1383 C1384 1.399 . S
C1383 C1388 1.399 . S
C1384 C1383 1.399 . S
C1384 C1385 1.376 1_556 S
C1385 H1372 0.930 . S
C1385 C1384 1.376 1_554 S
C1385 C1386 1.388 1_554 S
C1386 H1373 0.930 . S
C1386 C1385 1.388 1_556 S
C1386 C1387 1.390 . S
C1387 C1386 1.390 . S
C1387 C1388 1.394 . S
C1387 C1393 1.465 . S
C1388 C1383 1.399 . S
C1388 C1387 1.394 . S
C1388 C1389 1.516 . S
C1389 C1388 1.516 . S
C1389 C1390 1.502 . S
C1389 C1391 1.561 . S
C1389 C1392 1.526 . S
C1390 H1374 0.959 . S
C1390 H1375 0.959 . S
C1390 H1376 0.961 . S
C1390 C1389 1.502 . S
C1391 H1377 0.960 . S
C1391 H1378 0.961 . S
C1391 H1379 0.959 . S
C1391 C1389 1.561 . S
C1392 C1389 1.526 . S
C1392 C1393 1.396 . S
C1392 C1397 1.390 . S
C1393 C1387 1.465 . S
C1393 C1392 1.396 . S
C1393 C1394 1.399 . S
C1394 H1380 0.929 . S
C1394 C1393 1.399 . S
C1394 C1395 1.385 . S
C1395 H1381 0.931 . S
C1395 C1394 1.385 . S
C1395 C1396 1.389 . S
C1396 C1395 1.389 . S
C1396 C1397 1.387 . S
C1397 H1382 0.930 . S
C1397 C1392 1.390 . S
C1397 C1396 1.387 . S
H1398 C1410 0.930 . S
H1399 C1412 0.930 1_554 S
H1400 C1413 0.930 . S
H1401 C1417 0.959 . S
H1402 C1417 0.959 . S
H1403 C1417 0.961 . S
H1404 C1418 0.960 . S
H1405 C1418 0.961 . S
H1406 C1418 0.959 . S
H1407 C1421 0.929 . S
H1408 C1422 0.931 . S
H1409 C1424 0.930 . S
C1410 H1398 0.930 . S
C1410 C1411 1.399 . S
C1410 C1415 1.399 . S
C1411 C1410 1.399 . S
C1411 C1412 1.376 . S
C1412 H1399 0.930 1_556 S
C1412 C1411 1.376 . S
C1412 C1413 1.388 . S
C1413 H1400 0.930 . S
C1413 C1412 1.388 . S
C1413 C1414 1.390 . S
C1414 C1413 1.390 . S
C1414 C1415 1.394 . S
C1414 C1420 1.465 . S
C1415 C1410 1.399 . S
C1415 C1414 1.394 . S
C1415 C1416 1.516 . S
C1416 C1415 1.516 . S
C1416 C1417 1.502 . S
C1416 C1418 1.561 . S
C1416 C1419 1.526 . S
C1417 H1401 0.959 . S
C1417 H1402 0.959 . S
C1417 H1403 0.961 . S
C1417 C1416 1.502 . S
C1418 H1404 0.960 . S
C1418 H1405 0.961 . S
C1418 H1406 0.959 . S
C1418 C1416 1.561 . S
C1419 C1416 1.526 . S
C1419 C1420 1.396 . S
C1419 C1424 1.390 . S
C1420 C1414 1.465 . S
C1420 C1419 1.396 . S
C1420 C1421 1.399 . S
C1421 H1407 0.929 . S
C1421 C1420 1.399 . S
C1421 C1422 1.385 . S
C1422 H1408 0.931 . S
C1422 C1421 1.385 . S
C1422 C1423 1.389 . S
C1423 C1422 1.389 . S
C1423 C1424 1.387 . S
C1424 H1409 0.930 . S
C1424 C1419 1.390 . S
C1424 C1423 1.387 . S
H1425 C1437 0.930 . S
H1426 C1439 0.930 . S
H1427 C1440 0.930 . S
H1428 C1444 0.959 . S
H1429 C1444 0.959 . S
H1430 C1444 0.961 . S
H1431 C1445 0.960 . S
H1432 C1445 0.961 . S
H1433 C1445 0.959 . S
H1434 C1448 0.929 . S
H1435 C1449 0.931 . S
H1436 C1451 0.930 . S
C1437 H1425 0.930 . S
C1437 C1438 1.399 . S
C1437 C1442 1.399 . S
C1438 C1437 1.399 . S
C1438 C1439 1.376 . S
C1439 H1426 0.930 . S
C1439 C1438 1.376 . S
C1439 C1440 1.388 . S
C1440 H1427 0.930 . S
C1440 C1439 1.388 . S
C1440 C1441 1.390 . S
C1441 C1440 1.390 . S
C1441 C1442 1.394 . S
C1441 C1447 1.465 . S
C1442 C1437 1.399 . S
C1442 C1441 1.394 . S
C1442 C1443 1.516 . S
C1443 C1442 1.516 . S
C1443 C1444 1.502 . S
C1443 C1445 1.561 . S
C1443 C1446 1.526 . S
C1444 H1428 0.959 . S
C1444 H1429 0.959 . S
C1444 H1430 0.961 . S
C1444 C1443 1.502 . S
C1445 H1431 0.960 . S
C1445 H1432 0.961 . S
C1445 H1433 0.959 . S
C1445 C1443 1.561 . S
C1446 C1443 1.526 . S
C1446 C1447 1.396 . S
C1446 C1451 1.390 . S
C1447 C1441 1.465 . S
C1447 C1446 1.396 . S
C1447 C1448 1.399 . S
C1448 H1434 0.929 . S
C1448 C1447 1.399 . S
C1448 C1449 1.385 . S
C1449 H1435 0.931 . S
C1449 C1448 1.385 . S
C1449 C1450 1.389 . S
C1450 C1449 1.389 . S
C1450 C1451 1.387 . S
C1451 H1436 0.930 . S
C1451 C1446 1.390 . S
C1451 C1450 1.387 . S
H1452 C1464 0.930 . S
H1453 C1466 0.930 . S
H1454 C1467 0.930 . S
H1455 C1471 0.959 . S
H1456 C1471 0.959 . S
H1457 C1471 0.961 . S
H1458 C1472 0.960 . S
H1459 C1472 0.961 . S
H1460 C1472 0.959 . S
H1461 C1475 0.929 . S
H1462 C1476 0.931 . S
H1463 C1478 0.930 . S
C1464 H1452 0.930 . S
C1464 C1465 1.399 . S
C1464 C1469 1.399 . S
C1465 C1464 1.399 . S
C1465 C1466 1.376 . S
C1466 H1453 0.930 . S
C1466 C1465 1.376 . S
C1466 C1467 1.388 . S
C1467 H1454 0.930 . S
C1467 C1466 1.388 . S
C1467 C1468 1.390 . S
C1468 C1467 1.390 . S
C1468 C1469 1.394 . S
C1468 C1474 1.465 . S
C1469 C1464 1.399 . S
C1469 C1468 1.394 . S
C1469 C1470 1.516 . S
C1470 C1469 1.516 . S
C1470 C1471 1.502 . S
C1470 C1472 1.561 . S
C1470 C1473 1.526 . S
C1471 H1455 0.959 . S
C1471 H1456 0.959 . S
C1471 H1457 0.961 . S
C1471 C1470 1.502 . S
C1472 H1458 0.960 . S
C1472 H1459 0.961 . S
C1472 H1460 0.959 . S
C1472 C1470 1.561 . S
C1473 C1470 1.526 . S
C1473 C1474 1.396 . S
C1473 C1478 1.390 . S
C1474 C1468 1.465 . S
C1474 C1473 1.396 . S
C1474 C1475 1.399 . S
C1475 H1461 0.929 . S
C1475 C1474 1.399 . S
C1475 C1476 1.385 . S
C1476 H1462 0.931 . S
C1476 C1475 1.385 . S
C1476 C1477 1.389 . S
C1477 C1476 1.389 . S
C1477 C1478 1.387 . S
C1478 H1463 0.930 . S
C1478 C1473 1.390 . S
C1478 C1477 1.387 . S
H1479 C1491 0.930 . S
H1480 C1493 0.930 . S
H1481 C1494 0.930 . S
H1482 C1498 0.959 . S
H1483 C1498 0.959 . S
H1484 C1498 0.961 . S
H1485 C1499 0.960 . S
H1486 C1499 0.961 . S
H1487 C1499 0.959 . S
H1488 C1502 0.929 . S
H1489 C1503 0.931 . S
H1490 C1505 0.930 . S
C1491 H1479 0.930 . S
C1491 C1492 1.399 . S
C1491 C1496 1.399 . S
C1492 C1491 1.399 . S
C1492 C1493 1.376 . S
C1493 H1480 0.930 . S
C1493 C1492 1.376 . S
C1493 C1494 1.388 . S
C1494 H1481 0.930 . S
C1494 C1493 1.388 . S
C1494 C1495 1.390 . S
C1495 C1494 1.390 . S
C1495 C1496 1.394 . S
C1495 C1501 1.465 . S
C1496 C1491 1.399 . S
C1496 C1495 1.394 . S
C1496 C1497 1.516 . S
C1497 C1496 1.516 . S
C1497 C1498 1.502 . S
C1497 C1499 1.561 . S
C1497 C1500 1.526 . S
C1498 H1482 0.959 . S
C1498 H1483 0.959 . S
C1498 H1484 0.961 . S
C1498 C1497 1.502 . S
C1499 H1485 0.960 . S
C1499 H1486 0.961 . S
C1499 H1487 0.959 . S
C1499 C1497 1.561 . S
C1500 C1497 1.526 . S
C1500 C1501 1.396 . S
C1500 C1505 1.390 . S
C1501 C1495 1.465 . S
C1501 C1500 1.396 . S
C1501 C1502 1.399 . S
C1502 H1488 0.929 . S
C1502 C1501 1.399 . S
C1502 C1503 1.385 . S
C1503 H1489 0.931 . S
C1503 C1502 1.385 . S
C1503 C1504 1.389 . S
C1504 C1503 1.389 . S
C1504 C1505 1.387 . S
C1505 H1490 0.930 . S
C1505 C1500 1.390 . S
C1505 C1504 1.387 . S
H1506 C1518 0.930 1_556 S
H1507 C1520 0.930 . S
H1508 C1521 0.930 . S
H1509 C1525 0.959 . S
H1510 C1525 0.959 . S
H1511 C1525 0.961 . S
H1512 C1526 0.960 . S
H1513 C1526 0.961 . S
H1514 C1526 0.959 . S
H1515 C1529 0.929 . S
H1516 C1530 0.931 . S
H1517 C1532 0.930 . S
C1518 H1506 0.930 1_554 S
C1518 C1519 1.399 . S
C1518 C1523 1.399 . S
C1519 C1518 1.399 . S
C1519 C1520 1.376 . S
C1520 H1507 0.930 . S
C1520 C1519 1.376 . S
C1520 C1521 1.388 . S
C1521 H1508 0.930 . S
C1521 C1520 1.388 . S
C1521 C1522 1.390 . S
C1522 C1521 1.390 . S
C1522 C1523 1.394 . S
C1522 C1528 1.465 . S
C1523 C1518 1.399 . S
C1523 C1522 1.394 . S
C1523 C1524 1.516 . S
C1524 C1523 1.516 . S
C1524 C1525 1.502 . S
C1524 C1526 1.561 . S
C1524 C1527 1.526 . S
C1525 H1509 0.959 . S
C1525 H1510 0.959 . S
C1525 H1511 0.961 . S
C1525 C1524 1.502 . S
C1526 H1512 0.960 . S
C1526 H1513 0.961 . S
C1526 H1514 0.959 . S
C1526 C1524 1.561 . S
C1527 C1524 1.526 . S
C1527 C1528 1.396 . S
C1527 C1532 1.390 . S
C1528 C1522 1.465 . S
C1528 C1527 1.396 . S
C1528 C1529 1.399 . S
C1529 H1515 0.929 . S
C1529 C1528 1.399 . S
C1529 C1530 1.385 . S
C1530 H1516 0.931 . S
C1530 C1529 1.385 . S
C1530 C1531 1.389 . S
C1531 C1530 1.389 . S
C1531 C1532 1.387 . S
C1532 H1517 0.930 . S
C1532 C1527 1.390 . S
C1532 C1531 1.387 . S
H1533 C1545 0.930 . S
H1534 C1547 0.930 . S
H1535 C1548 0.930 . S
H1536 C1552 0.959 . S
H1537 C1552 0.959 . S
H1538 C1552 0.961 . S
H1539 C1553 0.960 . S
H1540 C1553 0.961 . S
H1541 C1553 0.959 . S
H1542 C1556 0.929 . S
H1543 C1557 0.931 . S
H1544 C1559 0.930 . S
C1545 H1533 0.930 . S
C1545 C1546 1.399 . S
C1545 C1550 1.399 . S
C1546 C1545 1.399 . S
C1546 C1547 1.376 1_554 S
C1547 H1534 0.930 . S
C1547 C1546 1.376 1_556 S
C1547 C1548 1.388 1_556 S
C1548 H1535 0.930 . S
C1548 C1547 1.388 1_554 S
C1548 C1549 1.390 . S
C1549 C1548 1.390 . S
C1549 C1550 1.394 . S
C1549 C1555 1.465 . S
C1550 C1545 1.399 . S
C1550 C1549 1.394 . S
C1550 C1551 1.516 . S
C1551 C1550 1.516 . S
C1551 C1552 1.502 . S
C1551 C1553 1.561 . S
C1551 C1554 1.526 . S
C1552 H1536 0.959 . S
C1552 H1537 0.959 . S
C1552 H1538 0.961 . S
C1552 C1551 1.502 . S
C1553 H1539 0.960 . S
C1553 H1540 0.961 . S
C1553 H1541 0.959 . S
C1553 C1551 1.561 . S
C1554 C1551 1.526 . S
C1554 C1555 1.396 . S
C1554 C1559 1.390 . S
C1555 C1549 1.465 . S
C1555 C1554 1.396 . S
C1555 C1556 1.399 . S
C1556 H1542 0.929 . S
C1556 C1555 1.399 . S
C1556 C1557 1.385 . S
C1557 H1543 0.931 . S
C1557 C1556 1.385 . S
C1557 C1558 1.389 . S
C1558 C1557 1.389 . S
C1558 C1559 1.387 . S
C1559 H1544 0.930 . S
C1559 C1554 1.390 . S
C1559 C1558 1.387 . S
H1560 C1572 0.930 . S
H1561 C1574 0.930 1_556 S
H1562 C1575 0.930 . S
H1563 C1579 0.959 . S
H1564 C1579 0.959 . S
H1565 C1579 0.961 . S
H1566 C1580 0.960 . S
H1567 C1580 0.961 . S
H1568 C1580 0.959 . S
H1569 C1583 0.929 . S
H1570 C1584 0.931 . S
H1571 C1586 0.930 . S
C1572 H1560 0.930 . S
C1572 C1573 1.399 . S
C1572 C1577 1.399 . S
C1573 C1572 1.399 . S
C1573 C1574 1.376 . S
C1574 H1561 0.930 1_554 S
C1574 C1573 1.376 . S
C1574 C1575 1.388 . S
C1575 H1562 0.930 . S
C1575 C1574 1.388 . S
C1575 C1576 1.390 . S
C1576 C1575 1.390 . S
C1576 C1577 1.394 . S
C1576 C1582 1.465 . S
C1577 C1572 1.399 . S
C1577 C1576 1.394 . S
C1577 C1578 1.516 . S
C1578 C1577 1.516 . S
C1578 C1579 1.502 . S
C1578 C1580 1.561 . S
C1578 C1581 1.526 . S
C1579 H1563 0.959 . S
C1579 H1564 0.959 . S
C1579 H1565 0.961 . S
C1579 C1578 1.502 . S
C1580 H1566 0.960 . S
C1580 H1567 0.961 . S
C1580 H1568 0.959 . S
C1580 C1578 1.561 . S
C1581 C1578 1.526 . S
C1581 C1582 1.396 . S
C1581 C1586 1.390 . S
C1582 C1576 1.465 . S
C1582 C1581 1.396 . S
C1582 C1583 1.399 . S
C1583 H1569 0.929 . S
C1583 C1582 1.399 . S
C1583 C1584 1.385 . S
C1584 H1570 0.931 . S
C1584 C1583 1.385 . S
C1584 C1585 1.389 . S
C1585 C1584 1.389 . S
C1585 C1586 1.387 . S
C1586 H1571 0.930 . S
C1586 C1581 1.390 . S
C1586 C1585 1.387 . S
H1587 C1599 0.930 . S
H1588 C1601 0.930 . S
H1589 C1602 0.930 . S
H1590 C1606 0.959 . S
H1591 C1606 0.959 . S
H1592 C1606 0.961 . S
H1593 C1607 0.960 . S
H1594 C1607 0.961 . S
H1595 C1607 0.959 . S
H1596 C1610 0.929 . S
H1597 C1611 0.931 . S
H1598 C1613 0.930 . S
C1599 H1587 0.930 . S
C1599 C1600 1.399 . S
C1599 C1604 1.399 . S
C1600 C1599 1.399 . S
C1600 C1601 1.376 . S
C1601 H1588 0.930 . S
C1601 C1600 1.376 . S
C1601 C1602 1.388 . S
C1602 H1589 0.930 . S
C1602 C1601 1.388 . S
C1602 C1603 1.390 . S
C1603 C1602 1.390 . S
C1603 C1604 1.394 . S
C1603 C1609 1.465 . S
C1604 C1599 1.399 . S
C1604 C1603 1.394 . S
C1604 C1605 1.516 . S
C1605 C1604 1.516 . S
C1605 C1606 1.502 . S
C1605 C1607 1.561 . S
C1605 C1608 1.526 . S
C1606 H1590 0.959 . S
C1606 H1591 0.959 . S
C1606 H1592 0.961 . S
C1606 C1605 1.502 . S
C1607 H1593 0.960 . S
C1607 H1594 0.961 . S
C1607 H1595 0.959 . S
C1607 C1605 1.561 . S
C1608 C1605 1.526 . S
C1608 C1609 1.396 . S
C1608 C1613 1.390 . S
C1609 C1603 1.465 . S
C1609 C1608 1.396 . S
C1609 C1610 1.399 . S
C1610 H1596 0.929 . S
C1610 C1609 1.399 . S
C1610 C1611 1.385 . S
C1611 H1597 0.931 . S
C1611 C1610 1.385 . S
C1611 C1612 1.389 . S
C1612 C1611 1.389 . S
C1612 C1613 1.387 . S
C1613 H1598 0.930 . S
C1613 C1608 1.390 . S
C1613 C1612 1.387 . S
H1614 C1626 0.930 . S
H1615 C1628 0.930 . S
H1616 C1629 0.930 . S
H1617 C1633 0.959 . S
H1618 C1633 0.959 . S
H1619 C1633 0.961 . S
H1620 C1634 0.960 . S
H1621 C1634 0.961 . S
H1622 C1634 0.959 . S
H1623 C1637 0.929 . S
H1624 C1638 0.931 . S
H1625 C1640 0.930 . S
C1626 H1614 0.930 . S
C1626 C1627 1.399 . S
C1626 C1631 1.399 . S
C1627 C1626 1.399 . S
C1627 C1628 1.376 . S
C1628 H1615 0.930 . S
C1628 C1627 1.376 . S
C1628 C1629 1.388 . S
C1629 H1616 0.930 . S
C1629 C1628 1.388 . S
C1629 C1630 1.390 . S
C1630 C1629 1.390 . S
C1630 C1631 1.394 . S
C1630 C1636 1.465 . S
C1631 C1626 1.399 . S
C1631 C1630 1.394 . S
C1631 C1632 1.516 . S
C1632 C1631 1.516 . S
C1632 C1633 1.502 . S
C1632 C1634 1.561 . S
C1632 C1635 1.526 . S
C1633 H1617 0.959 . S
C1633 H1618 0.959 . S
C1633 H1619 0.961 . S
C1633 C1632 1.502 . S
C1634 H1620 0.960 . S
C1634 H1621 0.961 . S
C1634 H1622 0.959 . S
C1634 C1632 1.561 . S
C1635 C1632 1.526 . S
C1635 C1636 1.396 . S
C1635 C1640 1.390 . S
C1636 C1630 1.465 . S
C1636 C1635 1.396 . S
C1636 C1637 1.399 . S
C1637 H1623 0.929 . S
C1637 C1636 1.399 . S
C1637 C1638 1.385 . S
C1638 H1624 0.931 . S
C1638 C1637 1.385 . S
C1638 C1639 1.389 . S
C1639 C1638 1.389 . S
C1639 C1640 1.387 . S
C1640 H1625 0.930 . S
C1640 C1635 1.390 . S
C1640 C1639 1.387 . S
H1641 C1653 0.930 . S
H1642 C1655 0.930 . S
H1643 C1656 0.930 . S
H1644 C1660 0.959 . S
H1645 C1660 0.959 . S
H1646 C1660 0.961 . S
H1647 C1661 0.960 . S
H1648 C1661 0.961 . S
H1649 C1661 0.959 . S
H1650 C1664 0.929 . S
H1651 C1665 0.931 . S
H1652 C1667 0.930 . S
C1653 H1641 0.930 . S
C1653 C1654 1.399 . S
C1653 C1658 1.399 . S
C1654 C1653 1.399 . S
C1654 C1655 1.376 . S
C1655 H1642 0.930 . S
C1655 C1654 1.376 . S
C1655 C1656 1.388 . S
C1656 H1643 0.930 . S
C1656 C1655 1.388 . S
C1656 C1657 1.390 . S
C1657 C1656 1.390 . S
C1657 C1658 1.394 . S
C1657 C1663 1.465 . S
C1658 C1653 1.399 . S
C1658 C1657 1.394 . S
C1658 C1659 1.516 . S
C1659 C1658 1.516 . S
C1659 C1660 1.502 . S
C1659 C1661 1.561 . S
C1659 C1662 1.526 . S
C1660 H1644 0.959 . S
C1660 H1645 0.959 . S
C1660 H1646 0.961 . S
C1660 C1659 1.502 . S
C1661 H1647 0.960 . S
C1661 H1648 0.961 . S
C1661 H1649 0.959 . S
C1661 C1659 1.561 . S
C1662 C1659 1.526 . S
C1662 C1663 1.396 . S
C1662 C1667 1.390 . S
C1663 C1657 1.465 . S
C1663 C1662 1.396 . S
C1663 C1664 1.399 . S
C1664 H1650 0.929 . S
C1664 C1663 1.399 . S
C1664 C1665 1.385 . S
C1665 H1651 0.931 . S
C1665 C1664 1.385 . S
C1665 C1666 1.389 . S
C1666 C1665 1.389 . S
C1666 C1667 1.387 . S
C1667 H1652 0.930 . S
C1667 C1662 1.390 . S
C1667 C1666 1.387 . S
C385 C29 1.530 . S
C397 C61 1.340 . S
C412 C72 1.424 . S
C424 C60 1.549 . S
C439 C64 1.560 . S
C451 C30 1.389 . S
C466 C165 1.448 . S
C478 C122 1.528 . S
C493 C123 1.317 . S
C505 C126 1.552 . S
C520 C157 1.546 . S
C532 C134 1.429 . S
C547 C215 1.544 . S
C559 C227 1.344 . S
C574 C278 1.332 . S
C586 C219 1.563 . S
C601 C277 1.549 . S
C613 C216 1.334 . S
C628 C281 1.537 . S
C640 C351 1.359 . S
C655 C289 1.360 . S
C667 C312 1.557 . S
C682 C320 1.319 . S
C694 C343 1.563 . S
C709 C188 1.017 . S
C721 C2 1.130 . S
C736 C33 1.029 . S
C748 C246 1.121 . S
C763 C91 1.115 . S
C775 C250 1.040 . S
C790 C95 1.130 . S
C802 C308 1.020 . S
C817 C153 1.154 . S
C829 C339 0.965 . S
C844 C370 1.047 . S
C856 C184 1.108 . S
C871 C1 1.015 . S
C883 C309 0.929 . S
C898 C32 1.029 . S
C910 C340 1.047 . S
C925 C371 1.050 . S
C937 C82 1.023 . S
C952 C196 1.046 . S
C964 C94 0.990 . S
C979 C247 0.947 . S
C991 C144 1.039 . S
C1006 C258 0.962 . S
C1018 C175 0.967 . S
C1033 C103 1.038 . S
C1045 C187 0.964 . S
C1060 C237 0.991 . S
C1072 C154 0.955 . S
C1087 C249 1.038 . S
C1099 C185 0.928 . S
C1114 C10 0.994 . S
C1126 C299 1.045 . S
C1141 C330 1.046 . S
C1153 C41 0.933 . S
C1168 C92 1.028 . S
C1180 C361 0.962 . S
C1195 C112 2.247 . S
C1207 C19 2.274 . S
C1222 C124 2.264 . S
C1234 C50 2.282 . S
C1249 C155 2.278 . S
C1261 C62 2.274 . S
C1276 C205 2.242 . S
C1288 C279 2.274 . S
C1303 C217 2.282 . S
C1315 C310 2.251 . S
C1330 C341 2.251 . S
C1342 C267 2.282 . S
C1357 C311 1.341 . S
C1369 C0 1.561 1_556 S
C1384 C31 1.571 1_556 S
C1396 C342 1.459 . S
C1411 C81 1.565 1_556 S
C1423 C280 1.456 . S
C1438 C93 1.572 . S
C1450 C268 1.459 . S
C1465 C206 1.338 . S
C1477 C143 1.548 . S
C1492 C218 1.454 . S
C1504 C174 1.563 . S
C1519 C186 1.546 1_554 S
C1531 C125 1.382 . S
C1546 C236 1.575 1_554 S
C1558 C156 1.431 . S
C1573 C248 1.577 1_554 S
C1585 C113 1.376 . S
C1600 C63 1.460 . S
C1612 C298 1.562 . S
C1627 C20 1.337 . S
C1639 C329 1.556 . S
C1654 C51 1.355 . S
C1666 C360 1.550 . S
