# Generated by pormake.
# Topology sxg, (6)-cn, num edge types: 1
# Building blocks:
#     Node 0, Type 0, BuildingBlock: IZENUY_clean_sbu_0, # of connection points: 6
#     Node 1, Type 0, BuildingBlock: IZENUY_clean_sbu_0, # of connection points: 6
#     Node 2, Type 0, BuildingBlock: IZENUY_clean_sbu_0, # of connection points: 6
#     Node 3, Type 0, BuildingBlock: IZENUY_clean_sbu_0, # of connection points: 6
#     Node 4, Type 0, BuildingBlock: IZENUY_clean_sbu_0, # of connection points: 6
#     Node 5, Type 0, BuildingBlock: IZENUY_clean_sbu_0, # of connection points: 6
#     Node 6, Type 0, BuildingBlock: IZENUY_clean_sbu_0, # of connection points: 6
#     Node 7, Type 0, BuildingBlock: IZENUY_clean_sbu_0, # of connection points: 6
#     Node 8, Type 0, BuildingBlock: IZENUY_clean_sbu_0, # of connection points: 6
#     Node 9, Type 0, BuildingBlock: IZENUY_clean_sbu_0, # of connection points: 6
#     Node 10, Type 0, BuildingBlock: IZENUY_clean_sbu_0, # of connection points: 6
#     Node 11, Type 0, BuildingBlock: IZENUY_clean_sbu_0, # of connection points: 6
#     Node 12, Type 0, BuildingBlock: IZENUY_clean_sbu_0, # of connection points: 6
#     Node 13, Type 0, BuildingBlock: IZENUY_clean_sbu_0, # of connection points: 6
#     Node 14, Type 0, BuildingBlock: IZENUY_clean_sbu_0, # of connection points: 6
#     Node 15, Type 0, BuildingBlock: IZENUY_clean_sbu_0, # of connection points: 6
#     Node 16, Type 0, BuildingBlock: IZENUY_clean_sbu_0, # of connection points: 6
#     Node 17, Type 0, BuildingBlock: IZENUY_clean_sbu_0, # of connection points: 6
#     Node 18, Type 0, BuildingBlock: IZENUY_clean_sbu_0, # of connection points: 6
#     Node 19, Type 0, BuildingBlock: IZENUY_clean_sbu_0, # of connection points: 6
#     Node 20, Type 0, BuildingBlock: IZENUY_clean_sbu_0, # of connection points: 6
#     Node 21, Type 0, BuildingBlock: IZENUY_clean_sbu_0, # of connection points: 6
#     Node 22, Type 0, BuildingBlock: IZENUY_clean_sbu_0, # of connection points: 6
#     Node 23, Type 0, BuildingBlock: IZENUY_clean_sbu_0, # of connection points: 6
#     Edge 24, Type (0, 0), BuildingBlock: CIFDUS_clean_linker_0, # of connection points: 2
#     Edge 25, Type (0, 0), BuildingBlock: CIFDUS_clean_linker_0, # of connection points: 2
#     Edge 26, Type (0, 0), BuildingBlock: CIFDUS_clean_linker_0, # of connection points: 2
#     Edge 27, Type (0, 0), BuildingBlock: CIFDUS_clean_linker_0, # of connection points: 2
#     Edge 28, Type (0, 0), BuildingBlock: CIFDUS_clean_linker_0, # of connection points: 2
#     Edge 29, Type (0, 0), BuildingBlock: CIFDUS_clean_linker_0, # of connection points: 2
#     Edge 30, Type (0, 0), BuildingBlock: CIFDUS_clean_linker_0, # of connection points: 2
#     Edge 31, Type (0, 0), BuildingBlock: CIFDUS_clean_linker_0, # of connection points: 2
#     Edge 32, Type (0, 0), BuildingBlock: CIFDUS_clean_linker_0, # of connection points: 2
#     Edge 33, Type (0, 0), BuildingBlock: CIFDUS_clean_linker_0, # of connection points: 2
#     Edge 34, Type (0, 0), BuildingBlock: CIFDUS_clean_linker_0, # of connection points: 2
#     Edge 35, Type (0, 0), BuildingBlock: CIFDUS_clean_linker_0, # of connection points: 2
#     Edge 36, Type (0, 0), BuildingBlock: CIFDUS_clean_linker_0, # of connection points: 2
#     Edge 37, Type (0, 0), BuildingBlock: CIFDUS_clean_linker_0, # of connection points: 2
#     Edge 38, Type (0, 0), BuildingBlock: CIFDUS_clean_linker_0, # of connection points: 2
#     Edge 39, Type (0, 0), BuildingBlock: CIFDUS_clean_linker_0, # of connection points: 2
#     Edge 40, Type (0, 0), BuildingBlock: CIFDUS_clean_linker_0, # of connection points: 2
#     Edge 41, Type (0, 0), BuildingBlock: CIFDUS_clean_linker_0, # of connection points: 2
#     Edge 42, Type (0, 0), BuildingBlock: CIFDUS_clean_linker_0, # of connection points: 2
#     Edge 43, Type (0, 0), BuildingBlock: CIFDUS_clean_linker_0, # of connection points: 2
#     Edge 44, Type (0, 0), BuildingBlock: CIFDUS_clean_linker_0, # of connection points: 2
#     Edge 45, Type (0, 0), BuildingBlock: CIFDUS_clean_linker_0, # of connection points: 2
#     Edge 46, Type (0, 0), BuildingBlock: CIFDUS_clean_linker_0, # of connection points: 2
#     Edge 47, Type (0, 0), BuildingBlock: CIFDUS_clean_linker_0, # of connection points: 2
#     Edge 48, Type (0, 0), BuildingBlock: CIFDUS_clean_linker_0, # of connection points: 2
#     Edge 49, Type (0, 0), BuildingBlock: CIFDUS_clean_linker_0, # of connection points: 2
#     Edge 50, Type (0, 0), BuildingBlock: CIFDUS_clean_linker_0, # of connection points: 2
#     Edge 51, Type (0, 0), BuildingBlock: CIFDUS_clean_linker_0, # of connection points: 2
#     Edge 52, Type (0, 0), BuildingBlock: CIFDUS_clean_linker_0, # of connection points: 2
#     Edge 53, Type (0, 0), BuildingBlock: CIFDUS_clean_linker_0, # of connection points: 2
#     Edge 54, Type (0, 0), BuildingBlock: CIFDUS_clean_linker_0, # of connection points: 2
#     Edge 55, Type (0, 0), BuildingBlock: CIFDUS_clean_linker_0, # of connection points: 2
#     Edge 56, Type (0, 0), BuildingBlock: CIFDUS_clean_linker_0, # of connection points: 2
#     Edge 57, Type (0, 0), BuildingBlock: CIFDUS_clean_linker_0, # of connection points: 2
#     Edge 58, Type (0, 0), BuildingBlock: CIFDUS_clean_linker_0, # of connection points: 2
#     Edge 59, Type (0, 0), BuildingBlock: CIFDUS_clean_linker_0, # of connection points: 2
#     Edge 60, Type (0, 0), BuildingBlock: CIFDUS_clean_linker_0, # of connection points: 2
#     Edge 61, Type (0, 0), BuildingBlock: CIFDUS_clean_linker_0, # of connection points: 2
#     Edge 62, Type (0, 0), BuildingBlock: CIFDUS_clean_linker_0, # of connection points: 2
#     Edge 63, Type (0, 0), BuildingBlock: CIFDUS_clean_linker_0, # of connection points: 2
#     Edge 64, Type (0, 0), BuildingBlock: CIFDUS_clean_linker_0, # of connection points: 2
#     Edge 65, Type (0, 0), BuildingBlock: CIFDUS_clean_linker_0, # of connection points: 2
#     Edge 66, Type (0, 0), BuildingBlock: CIFDUS_clean_linker_0, # of connection points: 2
#     Edge 67, Type (0, 0), BuildingBlock: CIFDUS_clean_linker_0, # of connection points: 2
#     Edge 68, Type (0, 0), BuildingBlock: CIFDUS_clean_linker_0, # of connection points: 2
#     Edge 69, Type (0, 0), BuildingBlock: CIFDUS_clean_linker_0, # of connection points: 2
#     Edge 70, Type (0, 0), BuildingBlock: CIFDUS_clean_linker_0, # of connection points: 2
#     Edge 71, Type (0, 0), BuildingBlock: CIFDUS_clean_linker_0, # of connection points: 2
#     Edge 72, Type (0, 0), BuildingBlock: CIFDUS_clean_linker_0, # of connection points: 2
#     Edge 73, Type (0, 0), BuildingBlock: CIFDUS_clean_linker_0, # of connection points: 2
#     Edge 74, Type (0, 0), BuildingBlock: CIFDUS_clean_linker_0, # of connection points: 2
#     Edge 75, Type (0, 0), BuildingBlock: CIFDUS_clean_linker_0, # of connection points: 2
#     Edge 76, Type (0, 0), BuildingBlock: CIFDUS_clean_linker_0, # of connection points: 2
#     Edge 77, Type (0, 0), BuildingBlock: CIFDUS_clean_linker_0, # of connection points: 2
#     Edge 78, Type (0, 0), BuildingBlock: CIFDUS_clean_linker_0, # of connection points: 2
#     Edge 79, Type (0, 0), BuildingBlock: CIFDUS_clean_linker_0, # of connection points: 2
#     Edge 80, Type (0, 0), BuildingBlock: CIFDUS_clean_linker_0, # of connection points: 2
#     Edge 81, Type (0, 0), BuildingBlock: CIFDUS_clean_linker_0, # of connection points: 2
#     Edge 82, Type (0, 0), BuildingBlock: CIFDUS_clean_linker_0, # of connection points: 2
#     Edge 83, Type (0, 0), BuildingBlock: CIFDUS_clean_linker_0, # of connection points: 2
#     Edge 84, Type (0, 0), BuildingBlock: CIFDUS_clean_linker_0, # of connection points: 2
#     Edge 85, Type (0, 0), BuildingBlock: CIFDUS_clean_linker_0, # of connection points: 2
#     Edge 86, Type (0, 0), BuildingBlock: CIFDUS_clean_linker_0, # of connection points: 2
#     Edge 87, Type (0, 0), BuildingBlock: CIFDUS_clean_linker_0, # of connection points: 2
#     Edge 88, Type (0, 0), BuildingBlock: CIFDUS_clean_linker_0, # of connection points: 2
#     Edge 89, Type (0, 0), BuildingBlock: CIFDUS_clean_linker_0, # of connection points: 2
#     Edge 90, Type (0, 0), BuildingBlock: CIFDUS_clean_linker_0, # of connection points: 2
#     Edge 91, Type (0, 0), BuildingBlock: CIFDUS_clean_linker_0, # of connection points: 2
#     Edge 92, Type (0, 0), BuildingBlock: CIFDUS_clean_linker_0, # of connection points: 2
#     Edge 93, Type (0, 0), BuildingBlock: CIFDUS_clean_linker_0, # of connection points: 2
#     Edge 94, Type (0, 0), BuildingBlock: CIFDUS_clean_linker_0, # of connection points: 2
#     Edge 95, Type (0, 0), BuildingBlock: CIFDUS_clean_linker_0, # of connection points: 2
# Relax obj value: 0.224
# Max RMSD: 0.255
# Mean RMSD: 0.255
data_MOF--net-sxg--node1-IZENUY_clean_sbu_0--edge1-CIFDUS_clean_linker_0
_symmetry_space_group_name_H-M    P1
_symmetry_Int_Tables_number       1
_symmetry_cell_setting            triclinic
loop_
_symmetry_equiv_pos_as_xyz
'x, y, z'
_cell_length_a     39.710018
_cell_length_b     39.585391
_cell_length_c     39.567741
_cell_angle_alpha  89.908089
_cell_angle_beta   90.03009
_cell_angle_gamma 89.972944
loop_
_atom_site_label
_atom_site_type_symbol
_atom_site_fract_x
_atom_site_fract_y
_atom_site_fract_z
_atom_type_partial_charge
Fe0 Fe 0.07235 0.36864 0.18233 0.0
Fe1 Fe 0.06175 0.34952 0.25672 0.0
O2 O 0.06434 0.33779 0.21366 0.0
Fe3 Fe 0.05941 0.29515 0.20127 0.0
O4 O 0.02287 0.30527 0.17553 0.0
O5 O 0.04869 0.3467 0.14913 0.0
O6 O 0.03392 0.38982 0.1921 0.0
C7 C 0.02464 0.39993 0.22071 0.0
C8 C 0.11283 0.31855 0.16038 0.0
O9 O 0.04005 0.39045 0.24749 0.0
C10 C 0.09918 0.28765 0.25675 0.0
O11 O 0.09689 0.3969 0.20943 0.0
O12 O 0.10375 0.36819 0.25613 0.0
O13 O 0.08823 0.29856 0.16489 0.0
O14 O 0.11149 0.34849 0.17092 0.0
C15 C 0.01306 0.30106 0.25641 0.0
O16 O 0.08211 0.30997 0.27243 0.0
O17 O 0.09554 0.28294 0.22557 0.0
C18 C 0.11371 0.39055 0.23576 0.0
O19 O 0.02002 0.33171 0.26106 0.0
O20 O 0.03052 0.28344 0.23616 0.0
C21 C 0.02428 0.32624 0.1515 0.0
Fe22 Fe 0.44694 0.64836 0.68023 0.0
Fe23 Fe 0.45212 0.65857 0.75705 0.0
O24 O 0.45342 0.67508 0.71551 0.0
Fe25 Fe 0.46091 0.71838 0.70874 0.0
O26 O 0.49834 0.70963 0.68449 0.0
O27 O 0.47354 0.67353 0.6508 0.0
O28 O 0.484 0.6247 0.69057 0.0
C29 C 0.48958 0.61073 0.71866 0.0
C30 C 0.40836 0.70236 0.66357 0.0
O31 O 0.47186 0.61777 0.74465 0.0
C32 C 0.4188 0.72258 0.76252 0.0
O33 O 0.41947 0.61814 0.70282 0.0
O34 O 0.40936 0.643 0.75122 0.0
O35 O 0.43355 0.72076 0.671 0.0
O36 O 0.40924 0.67099 0.66868 0.0
C37 C 0.5048 0.70242 0.7635 0.0
O38 O 0.43329 0.69738 0.77641 0.0
O39 O 0.42419 0.72947 0.73208 0.0
C40 C 0.40092 0.62226 0.7286 0.0
O41 O 0.49443 0.67253 0.76584 0.0
O42 O 0.48885 0.72395 0.74586 0.0
C43 C 0.49784 0.69346 0.65721 0.0
Fe44 Fe 0.55849 0.16595 0.75689 0.0
Fe45 Fe 0.55365 0.21957 0.81309 0.0
O46 O 0.56014 0.17737 0.80019 0.0
Fe47 Fe 0.56933 0.1464 0.83124 0.0
O48 O 0.53128 0.12448 0.82129 0.0
O49 O 0.53835 0.12435 0.76583 0.0
O50 O 0.5161 0.1822 0.752 0.0
C51 C 0.50708 0.21206 0.75825 0.0
C52 C 0.61174 0.12693 0.77836 0.0
O53 O 0.52325 0.22996 0.7793 0.0
C54 C 0.60958 0.19796 0.85089 0.0
O55 O 0.57722 0.2061 0.74117 0.0
O56 O 0.5883 0.23376 0.78803 0.0
O57 O 0.59395 0.11904 0.80353 0.0
O58 O 0.60139 0.14912 0.75798 0.0
C59 C 0.52144 0.18753 0.86418 0.0
O60 O 0.58395 0.21698 0.8482 0.0
O61 O 0.60818 0.16741 0.8422 0.0
C62 C 0.59222 0.22979 0.7568 0.0
O63 O 0.51837 0.20803 0.83995 0.0
O64 O 0.5461 0.16732 0.8653 0.0
C65 C 0.52302 0.11413 0.79234 0.0
Fe66 Fe 0.96012 0.84663 0.25981 0.0
Fe67 Fe 0.95426 0.78694 0.30864 0.0
O68 O 0.95432 0.83083 0.30126 0.0
Fe69 Fe 0.94765 0.85895 0.33536 0.0
O70 O 0.98847 0.87808 0.3287 0.0
O71 O 0.98186 0.88537 0.27393 0.0
O72 O 1.00131 0.82697 0.25655 0.0
C73 C 1.00588 0.79545 0.25895 0.0
C74 C 0.90965 0.88812 0.28246 0.0
O75 O 0.98509 0.77719 0.27512 0.0
C76 C 0.90018 0.81057 0.34766 0.0
O77 O 0.94039 0.81012 0.23833 0.0
O78 O 0.919 0.78139 0.28046 0.0
O79 O 0.92614 0.89133 0.30973 0.0
O80 O 0.91894 0.86695 0.26046 0.0
C81 C 0.98944 0.80787 0.3638 0.0
O82 O 0.92318 0.78885 0.34298 0.0
O83 O 0.90618 0.8415 0.34334 0.0
C84 C 0.9205 0.78764 0.24936 0.0
O85 O 0.98949 0.79005 0.33745 0.0
O86 O 0.96804 0.83151 0.36732 0.0
C87 C 0.99787 0.89116 0.30116 0.0
Fe88 Fe 0.20038 0.05351 0.29394 0.0
Fe89 Fe 0.18143 0.06895 0.36752 0.0
O90 O 0.21269 0.0622 0.33608 0.0
Fe91 Fe 0.25601 0.06449 0.34661 0.0
O92 O 0.26896 0.0323 0.31603 0.0
O93 O 0.22188 0.01255 0.29385 0.0
O94 O 0.16109 0.03168 0.30527 0.0
C95 C 0.15212 0.01742 0.33247 0.0
C96 C 0.2557 0.0968 0.28532 0.0
O97 O 0.16333 0.02752 0.36047 0.0
C98 C 0.22701 0.11789 0.38488 0.0
O99 O 0.17971 0.0945 0.29138 0.0
O100 O 0.15141 0.08942 0.3387 0.0
O101 O 0.26356 0.09875 0.31626 0.0
O102 O 0.23675 0.07352 0.27485 0.0
C103 C 0.22927 0.0281 0.39977 0.0
O104 O 0.1971 0.11083 0.37704 0.0
O105 O 0.25073 0.09715 0.37928 0.0
C106 C 0.15812 0.10561 0.31196 0.0
O107 O 0.20602 0.04985 0.40169 0.0
O108 O 0.2512 0.03001 0.37674 0.0
C109 C 0.25297 0.00926 0.30064 0.0
Fe110 Fe 0.26086 0.95848 0.8528 0.0
Fe111 Fe 0.31621 0.95945 0.79839 0.0
O112 O 0.30371 0.95458 0.84098 0.0
Fe113 Fe 0.3347 0.94465 0.8718 0.0
O114 O 0.32688 0.98381 0.89333 0.0
O115 O 0.27129 0.97951 0.89371 0.0
O116 O 0.25758 1.00067 0.83531 0.0
C117 C 0.2632 1.00849 0.80495 0.0
C118 C 0.27998 0.90533 0.89362 0.0
O119 O 0.28348 0.99106 0.7873 0.0
C120 C 0.35157 0.90204 0.82074 0.0
O121 O 0.24389 0.93925 0.81318 0.0
O122 O 0.28986 0.9253 0.78562 0.0
O123 O 0.30647 0.92161 0.90029 0.0
O124 O 0.26018 0.91601 0.87108 0.0
C125 C 0.36873 0.99054 0.82877 0.0
O126 O 0.35009 0.92766 0.80137 0.0
O127 O 0.34353 0.90461 0.85144 0.0
C128 C 0.25859 0.92315 0.78953 0.0
O129 O 0.34433 0.99408 0.80867 0.0
O130 O 0.36924 0.96618 0.8496 0.0
C131 C 0.29849 0.99386 0.90354 0.0
Fe132 Fe 0.7591 0.4672 0.6704 0.0
Fe133 Fe 0.70091 0.46534 0.72118 0.0
O134 O 0.71613 0.45994 0.6795 0.0
Fe135 Fe 0.6878 0.4468 0.6474 0.0
O136 O 0.69477 0.48496 0.62398 0.0
O137 O 0.75018 0.48658 0.62819 0.0
O138 O 0.75734 0.50975 0.68663 0.0
C139 C 0.75178 0.51653 0.71709 0.0
C140 C 0.7477 0.41129 0.63053 0.0
O141 O 0.73218 0.49782 0.73409 0.0
C142 C 0.66839 0.40645 0.69927 0.0
O143 O 0.77442 0.4494 0.71175 0.0
O144 O 0.72751 0.43227 0.73594 0.0
O145 O 0.71911 0.42297 0.62235 0.0
O146 O 0.76478 0.42522 0.65337 0.0
C147 C 0.64964 0.4936 0.68646 0.0
O148 O 0.66795 0.43291 0.71729 0.0
O149 O 0.67923 0.40762 0.66942 0.0
C150 C 0.75906 0.43185 0.73414 0.0
O151 O 0.6726 0.49865 0.70796 0.0
O152 O 0.65119 0.46864 0.66626 0.0
C153 C 0.72258 0.49785 0.61584 0.0
Fe154 Fe 0.81422 0.55159 0.22434 0.0
Fe155 Fe 0.83408 0.5711 0.15155 0.0
O156 O 0.80255 0.56109 0.18199 0.0
Fe157 Fe 0.7595 0.56184 0.17079 0.0
O158 O 0.74778 0.52795 0.20013 0.0
O159 O 0.79525 0.50934 0.22268 0.0
O160 O 0.85517 0.53319 0.21365 0.0
C161 C 0.8661 0.52058 0.18649 0.0
C162 C 0.75787 0.592 0.23376 0.0
O163 O 0.85497 0.53067 0.1583 0.0
C164 C 0.78584 0.61778 0.1336 0.0
O165 O 0.83169 0.59386 0.22814 0.0
O166 O 0.86163 0.59249 0.18176 0.0
O167 O 0.7506 0.59514 0.20261 0.0
O168 O 0.77611 0.56799 0.24351 0.0
C169 C 0.78904 0.52931 0.11615 0.0
O170 O 0.81593 0.61233 0.14225 0.0
O171 O 0.76327 0.59579 0.13905 0.0
C172 C 0.85186 0.60788 0.20785 0.0
O173 O 0.81171 0.5517 0.11624 0.0
O174 O 0.76664 0.52859 0.13906 0.0
C175 C 0.76431 0.50508 0.21537 0.0
Fe176 Fe 0.3007 0.20619 0.04923 0.0
Fe177 Fe 0.37196 0.18966 0.07336 0.0
O178 O 0.34217 0.21953 0.05839 0.0
Fe179 Fe 0.35376 0.26238 0.05307 0.0
O180 O 0.34222 0.26193 0.00899 0.0
O181 O 0.29307 0.23756 0.01505 0.0
O182 O 0.31502 0.17673 0.0174 0.0
C183 C 0.33455 0.1525 0.02406 0.0
C184 C 0.28732 0.2655 0.08049 0.0
O185 O 0.35334 0.15347 0.05013 0.0
C186 C 0.38796 0.24822 0.11162 0.0
O187 O 0.30022 0.17348 0.08249 0.0
O188 O 0.34705 0.18171 0.11077 0.0
O189 O 0.31214 0.27968 0.06597 0.0
O190 O 0.28408 0.23399 0.08045 0.0
C191 C 0.40785 0.22471 0.02598 0.0
O192 O 0.39647 0.21995 0.0992 0.0
O193 O 0.36628 0.26622 0.0969 0.0
C194 C 0.31665 0.17271 0.11006 0.0
O195 O 0.39779 0.1965 0.03678 0.0
O196 O 0.39686 0.25213 0.03859 0.0
C197 C 0.31307 0.25603 0.99813 0.0
Fe198 Fe 0.86193 0.33437 0.95293 0.0
Fe199 Fe 0.8453 0.25947 0.96571 0.0
O200 O 0.83243 0.30207 0.96234 0.0
Fe201 Fe 0.78974 0.31251 0.96826 0.0
O202 O 0.7997 0.33868 1.00401 0.0
O203 O 0.83946 0.36751 0.9782 0.0
O204 O 0.88519 0.32498 0.99068 0.0
C205 C 0.89647 0.29645 0.99909 0.0
C206 C 0.80963 0.35317 0.91296 0.0
O207 O 0.88691 0.26978 0.98403 0.0
C208 C 0.78283 0.25609 0.93055 0.0
O209 O 0.8895 0.307 0.9262 0.0
O210 O 0.86104 0.25949 0.92307 0.0
O211 O 0.79046 0.34842 0.93826 0.0
O212 O 0.84024 0.34532 0.91445 0.0
C213 C 0.80039 0.26061 0.01726 0.0
O214 O 0.80548 0.2417 0.9482 0.0
O215 O 0.77801 0.2873 0.93292 0.0
C216 C 0.88318 0.27906 0.91152 0.0
O217 O 0.83055 0.2566 1.0087 0.0
O218 O 0.78059 0.27778 0.99875 0.0
C219 C 0.81843 0.36427 1.00244 0.0
Fe220 Fe 0.64414 0.69212 0.44734 0.0
Fe221 Fe 0.66446 0.76509 0.46363 0.0
O222 O 0.6757 0.72206 0.45847 0.0
Fe223 Fe 0.71825 0.7091 0.46355 0.0
O224 O 0.70792 0.66739 0.48111 0.0
O225 O 0.65259 0.66721 0.48541 0.0
O226 O 0.61052 0.71339 0.47042 0.0
C227 C 0.61221 0.73267 0.49574 0.0
C228 C 0.69794 0.67378 0.4065 0.0
O229 O 0.63589 0.75394 0.49838 0.0
C230 C 0.72362 0.77011 0.42772 0.0
O231 O 0.63377 0.7148 0.40821 0.0
O232 O 0.63034 0.76445 0.43237 0.0
O233 O 0.71926 0.69321 0.42008 0.0
O234 O 0.67173 0.66545 0.42227 0.0
C235 C 0.71428 0.75598 0.51472 0.0
O236 O 0.69283 0.77845 0.4294 0.0
O237 O 0.73582 0.74795 0.44709 0.0
C238 C 0.62562 0.74566 0.40694 0.0
O239 O 0.69636 0.77408 0.49549 0.0
O240 O 0.72109 0.72557 0.50701 0.0
C241 C 0.68115 0.65557 0.49391 0.0
Fe242 Fe 0.16969 0.76308 0.55033 0.0
Fe243 Fe 0.2215 0.82035 0.55119 0.0
O244 O 0.17968 0.80617 0.55682 0.0
Fe245 Fe 0.1484 0.8355 0.56968 0.0
O246 O 0.12426 0.82812 0.53212 0.0
O247 O 0.12746 0.77231 0.53203 0.0
O248 O 0.1853 0.76384 0.50738 0.0
C249 C 0.21566 0.76924 0.50021 0.0
C250 C 0.13106 0.77641 0.60645 0.0
O251 O 0.23309 0.78857 0.51881 0.0
C252 C 0.20057 0.85431 0.60981 0.0
O253 O 0.21065 0.74702 0.56742 0.0
O254 O 0.23582 0.79347 0.58445 0.0
O255 O 0.12321 0.80493 0.59419 0.0
O256 O 0.15343 0.75856 0.59275 0.0
C257 C 0.18826 0.87249 0.5223 0.0
O258 O 0.21875 0.85378 0.58346 0.0
O259 O 0.17059 0.8443 0.60858 0.0
C260 C 0.23324 0.76186 0.58491 0.0
O261 O 0.20889 0.84868 0.51764 0.0
O262 O 0.16782 0.87162 0.54708 0.0
C263 C 0.11439 0.79983 0.5215 0.0
Fe264 Fe 0.9463 0.65422 0.8286 0.0
Fe265 Fe 0.96218 0.67316 0.75466 0.0
O266 O 0.95576 0.68477 0.79726 0.0
Fe267 Fe 0.95855 0.72765 0.80875 0.0
O268 O 0.99408 0.71914 0.83543 0.0
O269 O 0.96983 0.67705 0.86264 0.0
O270 O 0.98501 0.63219 0.8207 0.0
C271 C 0.99608 0.6222 0.79267 0.0
C272 C 0.9044 0.70432 0.84866 0.0
O273 O 0.98291 0.63234 0.7651 0.0
C274 C 0.92271 0.73357 0.7512 0.0
O275 O 0.92152 0.62633 0.79998 0.0
O276 O 0.92107 0.65443 0.75198 0.0
O277 O 0.92879 0.7245 0.84436 0.0
O278 O 0.90661 0.67435 0.83863 0.0
C279 C 0.00908 0.72239 0.75781 0.0
O280 O 0.94253 0.71246 0.73714 0.0
O281 O 0.92304 0.73742 0.78273 0.0
C282 C 0.90857 0.63236 0.77114 0.0
O283 O 1.00396 0.6913 0.75414 0.0
O284 O 0.98858 0.73988 0.77502 0.0
C285 C 0.99288 0.69953 0.86051 0.0
Fe286 Fe 0.55538 0.29783 0.3191 0.0
Fe287 Fe 0.5738 0.37146 0.33314 0.0
O288 O 0.56139 0.33954 0.30419 0.0
Fe289 Fe 0.55542 0.34878 0.26079 0.0
O290 O 0.51268 0.33305 0.26123 0.0
O291 O 0.52363 0.2855 0.28689 0.0
O292 O 0.52148 0.31094 0.34652 0.0
C293 C 0.52565 0.33211 0.36998 0.0
C294 C 0.58995 0.28497 0.26156 0.0
O295 O 0.55033 0.35272 0.36922 0.0
C296 C 0.61125 0.38803 0.27393 0.0
O297 O 0.58679 0.30122 0.35318 0.0
O298 O 0.61226 0.34925 0.34329 0.0
O299 O 0.57287 0.30742 0.24588 0.0
O300 O 0.58901 0.28305 0.29321 0.0
C301 C 0.52503 0.40382 0.29613 0.0
O302 O 0.59913 0.39611 0.30247 0.0
O303 O 0.59759 0.36542 0.25631 0.0
C304 C 0.61304 0.31941 0.35408 0.0
O305 O 0.53644 0.3954 0.3246 0.0
O306 O 0.53664 0.391 0.26896 0.0
C307 C 0.50528 0.30279 0.26713 0.0
Fe308 Fe 0.45988 0.84941 0.25722 0.0
Fe309 Fe 0.45954 0.79774 0.19956 0.0
O310 O 0.45318 0.83959 0.21402 0.0
Fe311 Fe 0.43959 0.87095 0.1848 0.0
O312 O 0.47642 0.89602 0.19236 0.0
O313 O 0.47819 0.89161 0.24812 0.0
O314 O 0.50272 0.83387 0.25637 0.0
C315 C 0.51043 0.80365 0.25066 0.0
C316 C 0.40339 0.88805 0.24449 0.0
O317 O 0.49212 0.78609 0.2312 0.0
C318 C 0.40096 0.81803 0.16489 0.0
O319 O 0.44297 0.80824 0.27306 0.0
O320 O 0.42671 0.78281 0.22638 0.0
O321 O 0.41443 0.89545 0.21538 0.0
O322 O 0.41772 0.86597 0.26235 0.0
C323 C 0.48772 0.83203 0.14772 0.0
O324 O 0.42742 0.80014 0.16601 0.0
O325 O 0.40135 0.84792 0.17548 0.0
C326 C 0.42612 0.78529 0.25801 0.0
O327 O 0.49265 0.81099 0.17122 0.0
O328 O 0.46278 0.85227 0.14871 0.0
C329 C 0.48804 0.90501 0.22054 0.0
Fe330 Fe 0.07113 0.15011 0.69391 0.0
Fe331 Fe 0.05544 0.16887 0.76762 0.0
O332 O 0.05915 0.18086 0.72456 0.0
Fe333 Fe 0.05154 0.22374 0.71311 0.0
O334 O 0.03374 0.21453 0.67147 0.0
O335 O 0.0348 0.15916 0.66751 0.0
O336 O 0.04525 0.11656 0.71314 0.0
C337 C 0.02081 0.11863 0.73381 0.0
C338 C 0.10969 0.20779 0.67686 0.0
O339 O 0.02068 0.14066 0.75711 0.0
C340 C 0.08965 0.22865 0.77264 0.0
O341 O 0.10939 0.13788 0.71704 0.0
O342 O 0.08547 0.13405 0.76635 0.0
O343 O 0.09374 0.22764 0.69605 0.0
O344 O 0.09832 0.17879 0.66973 0.0
C345 C 1.00292 0.21715 0.76147 0.0
O346 O 0.0902 0.19729 0.77944 0.0
O347 O 0.06839 0.24079 0.75225 0.0
C348 C 0.11043 0.12876 0.74753 0.0
O349 O 0.02422 0.20074 0.77854 0.0
O350 O 0.0086 0.22379 0.73063 0.0
C351 C 0.02442 0.18752 0.65734 0.0
Fe352 Fe 0.82841 0.94938 0.6493 0.0
Fe353 Fe 0.75496 0.96546 0.66993 0.0
O354 O 0.79838 0.96227 0.68018 0.0
Fe355 Fe 0.81104 0.9717 0.72216 0.0
O356 O 0.8532 0.98632 0.71181 0.0
O357 O 0.8554 0.98638 0.65659 0.0
O358 O 0.80855 0.97413 0.61522 0.0
C359 C 0.78668 0.9976 0.61645 0.0
C360 C 0.84404 0.91177 0.70793 0.0
O361 O 0.76405 0.998 0.63898 0.0
C362 C 0.75188 0.93538 0.73215 0.0
O363 O 0.80513 0.91057 0.63859 0.0
O364 O 0.75481 0.93279 0.6376 0.0
O365 O 0.82566 0.92878 0.72771 0.0
O366 O 0.8524 0.92299 0.67905 0.0
C367 C 0.7656 0.02211 0.71153 0.0
O368 O 0.74382 0.93274 0.70125 0.0
O369 O 0.77169 0.95844 0.74135 0.0
C370 C 0.7742 0.90834 0.63157 0.0
O371 O 0.74645 0.99954 0.69972 0.0
O372 O 0.79599 0.01539 0.71873 0.0
C373 C 0.86649 0.99643 0.68478 0.0
Fe374 Fe 0.68041 0.06529 0.1562 0.0
Fe375 Fe 0.75647 0.05781 0.16808 0.0
O376 O 0.71479 0.05798 0.18388 0.0
Fe377 Fe 0.70699 0.05133 0.22725 0.0
O378 O 0.68097 0.01477 0.21881 0.0
O379 O 0.64966 0.0404 0.18108 0.0
O380 O 0.68991 0.02731 0.13345 0.0
C381 C 0.71801 0.02069 0.12017 0.0
C382 C 0.66435 0.10562 0.20913 0.0
O383 O 0.74422 0.03784 0.12743 0.0
C384 C 0.76209 0.092 0.23151 0.0
O385 O 0.70419 0.09155 0.12596 0.0
O386 O 0.75213 0.10054 0.15172 0.0
O387 O 0.67065 0.0806 0.2284 0.0
O388 O 0.66982 0.10382 0.17787 0.0
C389 C 0.7609 1.00555 0.21303 0.0
O390 O 0.77578 0.0768 0.20672 0.0
O391 O 0.73167 0.08722 0.23841 0.0
C392 C 0.73008 0.10964 0.13065 0.0
O393 O 0.76382 0.01541 0.18298 0.0
O394 O 0.74288 0.02184 0.23395 0.0
C395 C 0.65406 0.01649 0.20206 0.0
Fe396 Fe 0.31559 0.5497 0.30014 0.0
Fe397 Fe 0.32979 0.57214 0.37273 0.0
O398 O 0.30092 0.55843 0.34136 0.0
Fe399 Fe 0.25771 0.55375 0.35102 0.0
O400 O 0.25796 0.50988 0.33903 0.0
O401 O 0.28376 0.51657 0.29063 0.0
O402 O 0.34337 0.51686 0.31526 0.0
C403 C 0.36708 0.52267 0.33562 0.0
C404 C 0.25808 0.5833 0.2847 0.0
O405 O 0.36594 0.54821 0.35513 0.0
C406 C 0.27143 0.61145 0.38664 0.0
O407 O 0.34908 0.58195 0.30148 0.0
O408 O 0.33987 0.60955 0.34871 0.0
O409 O 0.24256 0.568 0.30846 0.0
O410 O 0.28956 0.58207 0.28284 0.0
C411 C 0.29247 0.52546 0.40721 0.0
O412 O 0.29911 0.59851 0.3962 0.0
O413 O 0.25412 0.59732 0.36407 0.0
C414 C 0.35036 0.60897 0.31872 0.0
O415 O 0.32113 0.53554 0.39809 0.0
O416 O 0.26576 0.53817 0.39458 0.0
C417 C 0.26502 0.49929 0.31005 0.0
Fe418 Fe 0.25689 0.45469 0.84637 0.0
Fe419 Fe 0.18266 0.44869 0.86794 0.0
O420 O 0.21342 0.45507 0.83608 0.0
Fe421 Fe 0.2006 0.46158 0.79377 0.0
O422 O 0.23764 0.44205 0.77552 0.0
O423 O 0.2652 0.41917 0.8179 0.0
O424 O 0.25291 0.42362 0.8808 0.0
C425 C 0.23022 0.40193 0.88696 0.0
C426 C 0.25174 0.50771 0.79827 0.0
O427 O 0.19995 0.40763 0.87911 0.0
C428 C 0.15115 0.49767 0.83058 0.0
O429 O 0.25101 0.49052 0.87476 0.0
O430 O 0.2069 0.46981 0.90099 0.0
O431 O 0.22061 0.5034 0.79233 0.0
O432 O 0.26874 0.48547 0.81377 0.0
C433 C 0.16002 0.40911 0.8143 0.0
O434 O 0.16295 0.48928 0.85904 0.0
O435 O 0.16057 0.48247 0.80412 0.0
C436 C 0.22923 0.49236 0.898 0.0
O437 O 0.15325 0.42634 0.84028 0.0
O438 O 0.18121 0.41969 0.79295 0.0
C439 C 0.25685 0.41942 0.78703 0.0
Fe440 Fe 0.64626 0.83327 0.94635 0.0
Fe441 Fe 0.66266 0.75867 0.95962 0.0
O442 O 0.67561 0.80146 0.95758 0.0
Fe443 Fe 0.71776 0.81311 0.96602 0.0
O444 O 0.70546 0.84103 1.00015 0.0
O445 O 0.66723 0.8672 0.96992 0.0
O446 O 0.62222 0.82495 0.9838 0.0
C447 C 0.61078 0.79645 0.99225 0.0
C448 C 0.69998 0.85083 0.90775 0.0
O449 O 0.62067 0.76945 0.97761 0.0
C450 C 0.72867 0.75566 0.93015 0.0
O451 O 0.61906 0.80604 0.92098 0.0
O452 O 0.64753 0.75908 0.91606 0.0
O453 O 0.71791 0.84764 0.9343 0.0
O454 O 0.66934 0.84258 0.9081 0.0
C455 C 0.70553 0.75989 0.01397 0.0
O456 O 0.70323 0.74109 0.94327 0.0
O457 O 0.73266 0.78695 0.93267 0.0
C458 C 0.62572 0.77939 0.90489 0.0
O459 O 0.67633 0.75456 1.00288 0.0
O460 O 0.72548 0.77956 0.9983 0.0
C461 C 0.68604 0.8658 0.9957 0.0
Fe462 Fe 0.14572 0.681 0.07111 0.0
Fe463 Fe 0.16308 0.75411 0.05065 0.0
O464 O 0.1751 0.71152 0.05665 0.0
Fe465 Fe 0.21707 0.69912 0.04861 0.0
O466 O 0.20378 0.67053 0.01577 0.0
O467 O 0.16534 0.64573 0.04729 0.0
O468 O 0.11929 0.68741 0.03501 0.0
C469 C 0.10802 0.71528 0.02474 0.0
C470 C 0.20042 0.66306 0.10802 0.0
O471 O 0.12034 0.74327 0.03477 0.0
C472 C 0.22803 0.75772 0.0822 0.0
O473 O 0.12077 0.71071 0.09706 0.0
O474 O 0.14922 0.75811 0.09379 0.0
O475 O 0.21755 0.66534 0.081 0.0
O476 O 0.17032 0.67278 0.10858 0.0
C477 C 0.20555 0.74905 0.99747 0.0
O478 O 0.20436 0.77185 0.06546 0.0
O479 O 0.232 0.7263 0.08109 0.0
C480 C 0.12799 0.73973 0.10852 0.0
O481 O 0.17577 0.75356 1.00689 0.0
O482 O 0.22545 0.73159 0.01554 0.0
C483 C 0.18456 0.64581 0.02149 0.0
Fe484 Fe 0.29348 0.31187 0.55067 0.0
Fe485 Fe 0.36583 0.32697 0.57253 0.0
O486 O 0.33515 0.2978 0.55812 0.0
Fe487 Fe 0.34598 0.255 0.55167 0.0
O488 O 0.33281 0.25659 0.50825 0.0
O489 O 0.28415 0.28127 0.51634 0.0
O490 O 0.30729 0.34163 0.51881 0.0
C491 C 0.32733 0.36544 0.52535 0.0
C492 C 0.28127 0.25254 0.58345 0.0
O493 O 0.3467 0.36376 0.5509 0.0
C494 C 0.38289 0.26741 0.60872 0.0
O495 O 0.29472 0.34388 0.58443 0.0
O496 O 0.34231 0.33411 0.61093 0.0
O497 O 0.3045 0.23804 0.56656 0.0
O498 O 0.2774 0.28395 0.58213 0.0
C499 C 0.40043 0.29284 0.52365 0.0
O500 O 0.39099 0.29594 0.59666 0.0
O501 O 0.36041 0.24996 0.59475 0.0
C502 C 0.31197 0.34335 0.61149 0.0
O503 O 0.39058 0.32089 0.53499 0.0
O504 O 0.38868 0.26514 0.53527 0.0
C505 C 0.30365 0.26347 0.49823 0.0
Fe506 Fe 0.85302 0.26116 0.46526 0.0
Fe507 Fe 0.80108 0.20406 0.46413 0.0
O508 O 0.84294 0.21807 0.45897 0.0
Fe509 Fe 0.87437 0.18847 0.44699 0.0
O510 O 0.89711 0.19596 0.48544 0.0
O511 O 0.89465 0.25168 0.48469 0.0
O512 O 0.83655 0.26107 0.50788 0.0
C513 C 0.80614 0.25566 0.51474 0.0
C514 C 0.89296 0.24728 0.41023 0.0
O515 O 0.78899 0.23605 0.49616 0.0
C516 C 0.82284 0.16984 0.40594 0.0
O517 O 0.81251 0.27733 0.4472 0.0
O518 O 0.78735 0.23076 0.43052 0.0
O519 O 0.90046 0.21884 0.42295 0.0
O520 O 0.87019 0.26517 0.42318 0.0
C521 C 0.83357 0.1518 0.49377 0.0
O522 O 0.80438 0.17049 0.4321 0.0
O523 O 0.85297 0.17953 0.40752 0.0
C524 C 0.79 0.26236 0.42973 0.0
O525 O 0.81313 0.17586 0.49805 0.0
O526 O 0.85429 0.1524 0.46921 0.0
C527 C 0.90601 0.22417 0.49712 0.0
H528 H 0.15566 0.38641 0.29072 0.0
H529 H 0.14113 0.44077 0.19715 0.0
H530 H 0.18997 0.4759 0.20939 0.0
H531 H 0.23423 0.49461 0.24883 0.0
H532 H 0.247 0.44232 0.34358 0.0
H533 H 0.20228 0.40269 0.32841 0.0
C534 C 0.16322 0.40584 0.27293 0.0
C535 C 0.14428 0.41108 0.24326 0.0
C536 C 0.1914 0.42626 0.28019 0.0
C537 C 0.15483 0.43627 0.2204 0.0
C538 C 0.18294 0.45639 0.22729 0.0
C539 C 0.2279 0.47387 0.26563 0.0
C540 C 0.24418 0.47112 0.29708 0.0
C541 C 0.20116 0.45197 0.25732 0.0
C542 C 0.23505 0.44471 0.31906 0.0
C543 C 0.20924 0.42225 0.31055 0.0
H544 H 0.29655 0.50308 0.74764 0.0
H545 H 0.25164 0.57419 0.81635 0.0
H546 H 0.29346 0.61698 0.80005 0.0
H547 H 0.34633 0.63201 0.77002 0.0
H548 H 0.38988 0.56048 0.70036 0.0
H549 H 0.34518 0.52019 0.71305 0.0
C550 C 0.29539 0.52833 0.75824 0.0
C551 C 0.27081 0.53578 0.78271 0.0
C552 C 0.31969 0.55251 0.74897 0.0
C553 C 0.26988 0.56823 0.79689 0.0
C554 C 0.29407 0.59249 0.78787 0.0
C555 C 0.34587 0.6077 0.75744 0.0
C556 C 0.3718 0.59921 0.73455 0.0
C557 C 0.31967 0.58461 0.76457 0.0
C558 C 0.37045 0.56775 0.71813 0.0
C559 C 0.34486 0.5446 0.72541 0.0
H560 H 0.65733 0.13442 0.72633 0.0
H561 H 0.63901 0.07788 0.81799 0.0
H562 H 0.68995 0.04526 0.80884 0.0
H563 H 0.7361 0.02793 0.77178 0.0
H564 H 0.75334 0.08095 0.67845 0.0
H565 H 0.70748 0.12037 0.69167 0.0
C566 C 0.66459 0.11509 0.74437 0.0
C567 C 0.64381 0.10833 0.77248 0.0
C568 C 0.69417 0.09604 0.73891 0.0
C569 C 0.65401 0.08342 0.79581 0.0
C570 C 0.68336 0.06477 0.79075 0.0
C571 C 0.73074 0.04912 0.75517 0.0
C572 C 0.74862 0.05231 0.72477 0.0
C573 C 0.70326 0.07036 0.76211 0.0
C574 C 0.7406 0.07883 0.70257 0.0
C575 C 0.71393 0.10089 0.70984 0.0
H576 H 0.86883 0.88965 0.22674 0.0
H577 H 0.88438 0.93788 0.32325 0.0
H578 H 0.83736 0.97604 0.31217 0.0
H579 H 0.79359 0.99821 0.27351 0.0
H580 H 0.77975 0.95105 0.17634 0.0
H581 H 0.82365 0.90988 0.18947 0.0
C582 C 0.86196 0.90845 0.24541 0.0
C583 C 0.88054 0.91097 0.27564 0.0
C584 C 0.83487 0.93051 0.23886 0.0
C585 C 0.87088 0.93541 0.2996 0.0
C586 C 0.84384 0.95727 0.29335 0.0
C587 C 0.7997 0.97843 0.25559 0.0
C588 C 0.78327 0.97759 0.22408 0.0
C589 C 0.8258 0.95531 0.26292 0.0
C590 C 0.79196 0.9522 0.20081 0.0
C591 C 0.81722 0.92874 0.20822 0.0
H592 H 0.23965 0.24051 0.4862 0.0
H593 H 0.34029 0.24119 0.44512 0.0
H594 H 0.32495 0.19715 0.40505 0.0
H595 H 0.28521 0.15362 0.38636 0.0
H596 H 0.18418 0.15282 0.42619 0.0
H597 H 0.19732 0.20152 0.46186 0.0
C598 C 0.25787 0.23175 0.46777 0.0
C599 C 0.29114 0.24396 0.46885 0.0
C600 C 0.24905 0.20578 0.44503 0.0
C601 C 0.31456 0.23207 0.44497 0.0
C602 C 0.3059 0.20668 0.42217 0.0
C603 C 0.26601 0.16427 0.40268 0.0
C604 C 0.234 0.14925 0.40408 0.0
C605 C 0.27363 0.19247 0.42284 0.0
C606 C 0.20914 0.16377 0.42482 0.0
C607 C 0.21664 0.19163 0.44526 0.0
H608 H 0.22509 0.86331 0.88812 0.0
H609 H 0.31719 0.87718 0.94445 0.0
H610 H 0.30467 0.8274 0.97839 0.0
H611 H 0.26579 0.78186 0.99506 0.0
H612 H 0.17257 0.76927 0.94072 0.0
H613 H 0.1876 0.81576 0.90283 0.0
C614 C 0.24246 0.85544 0.90776 0.0
C615 C 0.27187 0.87445 0.91379 0.0
C616 C 0.23507 0.82661 0.92748 0.0
C617 C 0.29417 0.86346 0.93927 0.0
C618 C 0.28713 0.83479 0.95872 0.0
C619 C 0.24925 0.78867 0.97431 0.0
C620 C 0.2183 0.77181 0.97047 0.0
C621 C 0.2575 0.81632 0.95334 0.0
C622 C 0.1967 0.78162 0.94401 0.0
C623 C 0.20514 0.80844 0.92251 0.0
H624 H 0.83547 0.29774 0.56052 0.0
H625 H 0.73827 0.26723 0.52261 0.0
H626 H 0.71135 0.31251 0.55485 0.0
H627 H 0.71588 0.3635 0.5912 0.0
H628 H 0.81367 0.39277 0.62885 0.0
H629 H 0.83961 0.3457 0.59919 0.0
C630 C 0.80832 0.30061 0.55961 0.0
C631 C 0.78906 0.27896 0.53898 0.0
C632 C 0.79303 0.327 0.57784 0.0
C633 C 0.75385 0.28322 0.53836 0.0
C634 C 0.73842 0.3094 0.55658 0.0
C635 C 0.74285 0.35959 0.59284 0.0
C636 C 0.76272 0.38206 0.61206 0.0
C637 C 0.75782 0.33195 0.57588 0.0
C638 C 0.79762 0.37614 0.61426 0.0
C639 C 0.81258 0.34911 0.59729 0.0
H640 H 0.72413 0.64647 0.12446 0.0
H641 H 0.82858 0.65876 0.09748 0.0
H642 H 0.81388 0.70611 0.06041 0.0
H643 H 0.77032 0.74124 0.03178 0.0
H644 H 0.66622 0.72883 0.06064 0.0
H645 H 0.6819 0.68505 0.10086 0.0
C646 C 0.74375 0.65962 0.11066 0.0
C647 C 0.77736 0.64862 0.1135 0.0
C648 C 0.73516 0.68703 0.08955 0.0
C649 C 0.80246 0.66645 0.09576 0.0
C650 C 0.79405 0.69358 0.07444 0.0
C651 C 0.75119 0.7295 0.04741 0.0
C652 C 0.71704 0.7383 0.04277 0.0
C653 C 0.76035 0.70379 0.07063 0.0
C654 C 0.69265 0.72251 0.06327 0.0
C655 C 0.70155 0.69728 0.08631 0.0
H656 H 0.42808 0.21505 0.15794 0.0
H657 H 0.38719 0.3133 0.13388 0.0
H658 H 0.41703 0.3379 0.18153 0.0
H659 H 0.4574 0.33275 0.22802 0.0
H660 H 0.4985 0.23505 0.25337 0.0
H661 H 0.46552 0.20915 0.208 0.0
C662 C 0.42566 0.24181 0.16318 0.0
C663 C 0.4056 0.26224 0.14187 0.0
C664 C 0.44281 0.256 0.19111 0.0
C665 C 0.40246 0.29684 0.14951 0.0
C666 C 0.41956 0.31104 0.17689 0.0
C667 C 0.45881 0.30568 0.22402 0.0
C668 C 0.48059 0.286 0.24417 0.0
C669 C 0.44011 0.291 0.19761 0.0
C670 C 0.48185 0.25091 0.23854 0.0
C671 C 0.4632 0.23608 0.2123 0.0
H672 H 0.90783 0.30874 0.85256 0.0
H673 H 0.90822 0.21636 0.91073 0.0
H674 H 0.9412 0.18842 0.86739 0.0
H675 H 0.97124 0.18974 0.81423 0.0
H676 H 0.97364 0.28059 0.75432 0.0
H677 H 0.93747 0.30914 0.7961 0.0
C678 C 0.9155 0.28264 0.85573 0.0
C679 C 0.90574 0.26477 0.88511 0.0
C680 C 0.93437 0.26618 0.83005 0.0
C681 C 0.91536 0.23075 0.88853 0.0
C682 C 0.93414 0.21462 0.86365 0.0
C683 C 0.96343 0.21568 0.80994 0.0
C684 C 0.97503 0.23289 0.78109 0.0
C685 C 0.94372 0.23198 0.83439 0.0
C686 C 0.96464 0.2665 0.77599 0.0
C687 C 0.94439 0.28297 0.80022 0.0
H688 H 0.55114 0.83401 0.29681 0.0
H689 H 0.52667 0.73601 0.25613 0.0
H690 H 0.56155 0.70899 0.2996 0.0
H691 H 0.59557 0.71315 0.35255 0.0
H692 H 0.61704 0.81212 0.39303 0.0
H693 H 0.58683 0.83838 0.34661 0.0
C694 C 0.55367 0.80672 0.29703 0.0
C695 C 0.53603 0.78721 0.27309 0.0
C696 C 0.57301 0.79133 0.32259 0.0
C697 C 0.53993 0.75184 0.27403 0.0
C698 C 0.55973 0.7363 0.29913 0.0
C699 C 0.59378 0.74044 0.35107 0.0
C700 C 0.60831 0.76046 0.37678 0.0
C701 C 0.57581 0.75575 0.32411 0.0
C702 C 0.60579 0.79586 0.37414 0.0
C703 C 0.58856 0.81106 0.34742 0.0
H704 H 0.08807 0.80934 0.64961 0.0
H705 H 0.13247 0.71169 0.62998 0.0
H706 H 0.10116 0.68736 0.67688 0.0
H707 H 0.05892 0.69264 0.72146 0.0
H708 H 0.01398 0.78975 0.74187 0.0
H709 H 0.04819 0.8154 0.69731 0.0
C710 C 0.09091 0.78275 0.65562 0.0
C711 C 0.11238 0.76239 0.63589 0.0
C712 C 0.07287 0.76876 0.68297 0.0
C713 C 0.11606 0.72805 0.64446 0.0
C714 C 0.09816 0.71402 0.67138 0.0
C715 C 0.05686 0.71952 0.7165 0.0
C716 C 0.03372 0.73912 0.73497 0.0
C717 C 0.07622 0.73401 0.69055 0.0
C718 C 0.03163 0.77399 0.72823 0.0
C719 C 0.05101 0.78866 0.70251 0.0
H720 H 0.86158 0.59308 0.80552 0.0
H721 H 0.88946 0.62764 0.7057 0.0
H722 H 0.84178 0.59845 0.68142 0.0
H723 H 0.79333 0.5617 0.68713 0.0
H724 H 0.76424 0.52457 0.78537 0.0
H725 H 0.81028 0.55668 0.81142 0.0
C726 C 0.85727 0.59402 0.77848 0.0
C727 C 0.87949 0.61258 0.75764 0.0
C728 C 0.82919 0.57704 0.76424 0.0
C729 C 0.87307 0.61375 0.72261 0.0
C730 C 0.84562 0.59705 0.70852 0.0
C731 C 0.79666 0.56086 0.71434 0.0
C732 C 0.77518 0.54064 0.73413 0.0
C733 C 0.8236 0.57858 0.72897 0.0
C734 C 0.78009 0.54011 0.7694 0.0
C735 C 0.80673 0.55821 0.7843 0.0
H736 H 0.66827 0.41383 0.30453 0.0
H737 H 0.61784 0.40553 0.20828 0.0
H738 H 0.6627 0.43755 0.18116 0.0
H739 H 0.71441 0.47087 0.18491 0.0
H740 H 0.76725 0.4784 0.27964 0.0
H741 H 0.72415 0.44311 0.30696 0.0
C742 C 0.66719 0.41913 0.27766 0.0
C743 C 0.63939 0.40765 0.25857 0.0
C744 C 0.69379 0.43705 0.26183 0.0
C745 C 0.63875 0.41413 0.22362 0.0
C746 C 0.66447 0.43242 0.20803 0.0
C747 C 0.71692 0.46411 0.21139 0.0
C748 C 0.74411 0.47708 0.23014 0.0
C749 C 0.69193 0.44423 0.22686 0.0
C750 C 0.74693 0.46826 0.26447 0.0
C751 C 0.72196 0.4485 0.28019 0.0
H752 H 0.34707 0.91439 0.21363 0.0
H753 H 0.39696 0.90585 0.31017 0.0
H754 H 0.35314 0.93994 0.33652 0.0
H755 H 0.30265 0.97518 0.33178 0.0
H756 H 0.25012 0.98221 0.23679 0.0
H757 H 0.29227 0.94521 0.21037 0.0
C758 C 0.34821 0.92 0.24042 0.0
C759 C 0.37554 0.90794 0.25981 0.0
C760 C 0.32227 0.9391 0.25576 0.0
C761 C 0.37634 0.91487 0.29464 0.0
C762 C 0.35126 0.93438 0.30977 0.0
C763 C 0.30007 0.96803 0.30544 0.0
C764 C 0.27332 0.98133 0.28627 0.0
C765 C 0.32434 0.94692 0.29056 0.0
C766 C 0.27023 0.97191 0.25218 0.0
C767 C 0.29459 0.9511 0.237 0.0
H768 H 0.21725 0.04931 0.83544 0.0
H769 H 0.25812 0.02541 0.73737 0.0
H770 H 0.2158 0.0617 0.71051 0.0
H771 H 0.16395 0.09733 0.71476 0.0
H772 H 0.12362 0.11858 0.81387 0.0
H773 H 0.1686 0.08638 0.83996 0.0
C774 C 0.21729 0.05222 0.80818 0.0
C775 C 0.24098 0.03437 0.78861 0.0
C776 C 0.19248 0.07252 0.79285 0.0
C777 C 0.2404 0.0388 0.75326 0.0
C778 C 0.21597 0.05944 0.7378 0.0
C779 C 0.16516 0.09506 0.74204 0.0
C780 C 0.13989 0.11018 0.76212 0.0
C781 C 0.19135 0.07595 0.75729 0.0
C782 C 0.14217 0.10696 0.79753 0.0
C783 C 0.16808 0.08856 0.81265 0.0
H784 H 0.80597 0.85154 0.60377 0.0
H785 H 0.70797 0.89551 0.62213 0.0
H786 H 0.6812 0.8495 0.59245 0.0
H787 H 0.68475 0.79996 0.55652 0.0
H788 H 0.78091 0.75459 0.53534 0.0
H789 H 0.80885 0.79691 0.57133 0.0
C790 C 0.77878 0.85089 0.60146 0.0
C791 C 0.75931 0.87775 0.61484 0.0
C792 C 0.76298 0.82382 0.58393 0.0
C793 C 0.72398 0.87594 0.61177 0.0
C794 C 0.7084 0.84938 0.59484 0.0
C795 C 0.71178 0.79874 0.5605 0.0
C796 C 0.73063 0.77398 0.54343 0.0
C797 C 0.72757 0.82363 0.58024 0.0
C798 C 0.76567 0.77294 0.54865 0.0
C799 C 0.78168 0.79755 0.56883 0.0
H800 H 0.74065 0.22643 0.02106 0.0
H801 H 0.83302 0.245 0.07522 0.0
H802 H 0.81859 0.20122 0.11626 0.0
H803 H 0.78248 0.15417 0.13382 0.0
H804 H 0.69098 0.13359 0.07868 0.0
H805 H 0.70228 0.18135 0.04118 0.0
C806 C 0.75711 0.22146 0.04237 0.0
C807 C 0.78776 0.23911 0.04523 0.0
C808 C 0.74915 0.19536 0.06539 0.0
C809 C 0.80923 0.23186 0.07257 0.0
C810 C 0.80111 0.20665 0.09592 0.0
C811 C 0.76487 0.16016 0.11373 0.0
C812 C 0.73611 0.13989 0.10896 0.0
C813 C 0.77161 0.18759 0.09207 0.0
C814 C 0.71348 0.14845 0.08289 0.0
C815 C 0.71989 0.17587 0.0614 0.0
H816 H 0.18606 0.72876 0.4532 0.0
H817 H 0.28323 0.75573 0.49379 0.0
H818 H 0.30942 0.70963 0.46217 0.0
H819 H 0.30402 0.6586 0.42606 0.0
H820 H 0.20635 0.63297 0.38552 0.0
H821 H 0.18136 0.68116 0.41411 0.0
C822 C 0.21307 0.72496 0.45477 0.0
C823 C 0.23251 0.74579 0.47603 0.0
C824 C 0.22794 0.69811 0.43686 0.0
C825 C 0.26754 0.74037 0.47752 0.0
C826 C 0.28255 0.71372 0.45967 0.0
C827 C 0.27729 0.6636 0.42349 0.0
C828 C 0.25716 0.64176 0.40387 0.0
C829 C 0.26288 0.69187 0.43984 0.0
C830 C 0.2226 0.64907 0.40046 0.0
C831 C 0.20817 0.67674 0.41683 0.0
H832 H 0.24828 0.27599 0.98438 0.0
H833 H 0.35065 0.28566 0.94905 0.0
H834 H 0.33378 0.33081 0.91069 0.0
H835 H 0.29134 0.37146 0.89122 0.0
H836 H 0.18869 0.36205 0.92543 0.0
H837 H 0.20422 0.31311 0.95998 0.0
C838 C 0.2667 0.28736 0.96764 0.0
C839 C 0.30076 0.27749 0.96982 0.0
C840 C 0.25692 0.31391 0.94586 0.0
C841 C 0.32432 0.29281 0.94809 0.0
C842 C 0.31474 0.31883 0.92624 0.0
C843 C 0.27232 0.35863 0.90614 0.0
C844 C 0.23903 0.37082 0.90616 0.0
C845 C 0.28136 0.33032 0.92569 0.0
C846 C 0.21457 0.35341 0.92511 0.0
C847 C 0.22344 0.32538 0.9449 0.0
H848 H 0.51977 0.76569 0.7865 0.0
H849 H 0.55303 0.66201 0.79112 0.0
H850 H 0.59514 0.67684 0.83348 0.0
H851 H 0.6196 0.71838 0.87273 0.0
H852 H 0.58479 0.82166 0.86937 0.0
H853 H 0.54665 0.80789 0.8232 0.0
C854 C 0.5366 0.74647 0.79637 0.0
C855 C 0.53306 0.71279 0.78575 0.0
C856 C 0.56038 0.75501 0.82135 0.0
C857 C 0.55498 0.68813 0.79902 0.0
C858 C 0.5791 0.69656 0.82333 0.0
C859 C 0.60393 0.73794 0.86167 0.0
C860 C 0.60488 0.7709 0.87487 0.0
C861 C 0.58154 0.72978 0.83527 0.0
C862 C 0.58435 0.79593 0.86009 0.0
C863 C 0.5625 0.78813 0.83357 0.0
H864 H 0.05392 0.82578 0.22025 0.0
H865 H 0.01362 0.72785 0.24613 0.0
H866 H 0.0482 0.70162 0.20246 0.0
H867 H 0.08712 0.707 0.15396 0.0
H868 H 0.12744 0.8053 0.12919 0.0
H869 H 0.09569 0.83055 0.17514 0.0
C870 C 0.05297 0.79863 0.21669 0.0
C871 C 0.03088 0.77898 0.23635 0.0
C872 C 0.07272 0.78367 0.19133 0.0
C873 C 0.03031 0.74374 0.23144 0.0
C874 C 0.04995 0.72867 0.20625 0.0
C875 C 0.089 0.73391 0.15868 0.0
C876 C 0.10942 0.75415 0.13776 0.0
C877 C 0.07073 0.74848 0.18552 0.0
C878 C 0.11187 0.78897 0.14464 0.0
C879 C 0.09369 0.80356 0.171 0.0
H880 H 0.4616 0.18068 0.71738 0.0
H881 H 0.49543 0.27957 0.74807 0.0
H882 H 0.45971 0.30563 0.70499 0.0
H883 H 0.42162 0.30012 0.65576 0.0
H884 H 0.38712 0.201 0.62646 0.0
H885 H 0.4203 0.17548 0.67158 0.0
C886 C 0.46089 0.20797 0.71496 0.0
C887 C 0.48141 0.22803 0.73591 0.0
C888 C 0.4404 0.22283 0.69 0.0
C889 C 0.47987 0.26341 0.73247 0.0
C890 C 0.45961 0.27837 0.70761 0.0
C891 C 0.42134 0.27295 0.65931 0.0
C892 C 0.40216 0.25256 0.6374 0.0
C893 C 0.44028 0.2583 0.68573 0.0
C894 C 0.40168 0.2174 0.64277 0.0
C895 C 0.4207 0.2027 0.66862 0.0
H896 H 0.93447 0.21393 0.36551 0.0
H897 H 0.89462 0.31266 0.38906 0.0
H898 H 0.9259 0.33716 0.34229 0.0
H899 H 0.96628 0.33157 0.29609 0.0
H900 H 1.00647 0.23347 0.27115 0.0
H901 H 0.97302 0.20785 0.3164 0.0
C902 C 0.93269 0.24079 0.36041 0.0
C903 C 0.91234 0.26136 0.38117 0.0
C904 C 0.95064 0.25492 0.33296 0.0
C905 C 0.91004 0.29609 0.37376 0.0
C906 C 0.92795 0.31023 0.3469 0.0
C907 C 0.96749 0.3045 0.30023 0.0
C908 C 0.98898 0.28458 0.28015 0.0
C909 C 0.94849 0.28999 0.32649 0.0
C910 C 0.99 0.24949 0.28594 0.0
C911 C 0.97107 0.23482 0.31207 0.0
H912 H 0.18617 0.15952 0.28093 0.0
H913 H 0.096 0.12741 0.33238 0.0
H914 H 0.07156 0.18385 0.32522 0.0
H915 H 0.07444 0.24126 0.30037 0.0
H916 H 0.16477 0.27259 0.24896 0.0
H917 H 0.19113 0.21808 0.26116 0.0
C918 C 0.16107 0.16484 0.29036 0.0
C919 C 0.14254 0.13914 0.30639 0.0
C920 C 0.1476 0.1975 0.28693 0.0
C921 C 0.1105 0.14666 0.31944 0.0
C922 C 0.09664 0.17898 0.31558 0.0
C923 C 0.1004 0.23655 0.29322 0.0
C924 C 0.11805 0.26108 0.27457 0.0
C925 C 0.11487 0.20458 0.29916 0.0
C926 C 0.15115 0.25432 0.26414 0.0
C927 C 0.16596 0.22296 0.27056 0.0
H928 H 0.37719 0.84646 0.85394 0.0
H929 H 0.34606 0.88257 0.75567 0.0
H930 H 0.35761 0.82752 0.73129 0.0
H931 H 0.37925 0.77094 0.73655 0.0
H932 H 0.41913 0.73533 0.83161 0.0
H933 H 0.40005 0.78776 0.85901 0.0
C934 C 0.37311 0.8422 0.82718 0.0
C935 C 0.36098 0.86874 0.80659 0.0
C936 C 0.38088 0.81047 0.81292 0.0
C937 C 0.35572 0.86284 0.77201 0.0
C938 C 0.36208 0.83125 0.75806 0.0
C939 C 0.38369 0.77432 0.76341 0.0
C940 C 0.40095 0.74927 0.78191 0.0
C941 C 0.37497 0.80512 0.77816 0.0
C942 C 0.40579 0.75404 0.81676 0.0
C943 C 0.39532 0.78426 0.83227 0.0
H944 H 0.64469 0.35055 0.66593 0.0
H945 H 0.66684 0.38973 0.76534 0.0
H946 H 0.64987 0.33647 0.79075 0.0
H947 H 0.62665 0.28069 0.78547 0.0
H948 H 0.5979 0.2415 0.68787 0.0
H949 H 0.62057 0.29261 0.66078 0.0
C950 C 0.64568 0.34733 0.69314 0.0
C951 C 0.65671 0.37416 0.71378 0.0
C952 C 0.63504 0.31669 0.7078 0.0
C953 C 0.65799 0.3697 0.74896 0.0
C954 C 0.64851 0.33917 0.76351 0.0
C955 C 0.62531 0.28296 0.75819 0.0
C956 C 0.61024 0.25729 0.73879 0.0
C957 C 0.6367 0.31275 0.74322 0.0
C958 C 0.60936 0.26081 0.70345 0.0
C959 C 0.62204 0.29017 0.68802 0.0
H960 H 0.91012 0.64222 0.19366 0.0
H961 H 0.80688 0.65646 0.22305 0.0
H962 H 0.81746 0.71566 0.23571 0.0
H963 H 0.85816 0.76161 0.24448 0.0
H964 H 0.95942 0.75061 0.2073 0.0
H965 H 0.94743 0.69255 0.18985 0.0
C966 C 0.89007 0.6584 0.20282 0.0
C967 C 0.85866 0.64437 0.21114 0.0
C968 C 0.89587 0.69316 0.20775 0.0
C969 C 0.83225 0.66592 0.22069 0.0
C970 C 0.838 0.70005 0.22668 0.0
C971 C 0.87707 0.74692 0.23123 0.0
C972 C 0.90954 0.76008 0.22722 0.0
C973 C 0.87003 0.71367 0.22142 0.0
C974 C 0.93409 0.74093 0.2103 0.0
C975 C 0.9274 0.70756 0.20083 0.0
H976 H 0.2269 0.11434 0.22709 0.0
H977 H 0.3184 0.1274 0.28429 0.0
H978 H 0.34542 0.15338 0.23467 0.0
H979 H 0.344 0.16729 0.17346 0.0
H980 H 0.25213 0.15081 0.11715 0.0
H981 H 0.22445 0.13051 0.16806 0.0
C982 C 0.25274 0.12313 0.22886 0.0
C983 C 0.27083 0.11862 0.2591 0.0
C984 C 0.26817 0.13674 0.20022 0.0
C985 C 0.30398 0.1307 0.26128 0.0
C986 C 0.31947 0.14515 0.23281 0.0
C987 C 0.31794 0.15917 0.17232 0.0
C988 C 0.30035 0.16007 0.14128 0.0
C989 C 0.30205 0.14736 0.20185 0.0
C990 C 0.26646 0.14996 0.14044 0.0
C991 C 0.25051 0.13852 0.16961 0.0
H992 H 0.28578 0.88743 0.73865 0.0
H993 H 0.18981 0.9222 0.77626 0.0
H994 H 0.1627 0.9027 0.72384 0.0
H995 H 0.16772 0.87957 0.66535 0.0
H996 H 0.26614 0.85234 0.6277 0.0
H997 H 0.29109 0.86612 0.68209 0.0
C998 C 0.25884 0.89081 0.73577 0.0
C999 C 0.23994 0.90658 0.76147 0.0
C1000 C 0.24405 0.88152 0.70517 0.0
C1001 C 0.20499 0.91008 0.75706 0.0
C1002 C 0.1896 0.89927 0.72692 0.0
C1003 C 0.19464 0.87688 0.66911 0.0
C1004 C 0.21514 0.86519 0.6424 0.0
C1005 C 0.20909 0.88572 0.70043 0.0
C1006 C 0.24992 0.86171 0.6476 0.0
C1007 C 0.26417 0.86933 0.67878 0.0
H1008 H 0.72988 0.39404 0.78253 0.0
H1009 H 0.82686 0.43299 0.75212 0.0
H1010 H 0.85143 0.4116 0.80516 0.0
H1011 H 0.84398 0.38436 0.86155 0.0
H1012 H 0.74472 0.3516 0.89195 0.0
H1013 H 0.72209 0.36923 0.8375 0.0
C1014 C 0.75651 0.39804 0.78713 0.0
C1015 C 0.77645 0.41538 0.76318 0.0
C1016 C 0.76981 0.38738 0.81803 0.0
C1017 C 0.81092 0.41966 0.76988 0.0
C1018 C 0.82484 0.40773 0.80037 0.0
C1019 C 0.81735 0.38135 0.85629 0.0
C1020 C 0.79596 0.3669 0.88095 0.0
C1021 C 0.80431 0.3921 0.82491 0.0
C1022 C 0.76158 0.36308 0.87374 0.0
C1023 C 0.7487 0.37287 0.84248 0.0
H1024 H 0.69577 0.6069 0.2607 0.0
H1025 H 0.80172 0.62727 0.27103 0.0
H1026 H 0.79232 0.65825 0.32231 0.0
H1027 H 0.75559 0.67316 0.36916 0.0
H1028 H 0.6507 0.64533 0.36522 0.0
H1029 H 0.65802 0.62314 0.30817 0.0
C1030 C 0.71643 0.61937 0.27356 0.0
C1031 C 0.74914 0.617 0.26018 0.0
C1032 C 0.71122 0.63464 0.30548 0.0
C1033 C 0.77598 0.63117 0.27863 0.0
C1034 C 0.77078 0.64808 0.30891 0.0
C1035 C 0.7343 0.66241 0.35579 0.0
C1036 C 0.70287 0.66052 0.37175 0.0
C1037 C 0.73873 0.64906 0.32319 0.0
C1038 C 0.67548 0.64655 0.35386 0.0
C1039 C 0.67953 0.63403 0.32102 0.0
H1040 H 0.22349 0.24654 0.07435 0.0
H1041 H 0.28521 0.32716 0.11338 0.0
H1042 H 0.23515 0.35261 0.14003 0.0
H1043 H 0.17485 0.34807 0.15634 0.0
H1044 H 0.11589 0.26439 0.1187 0.0
H1045 H 0.16436 0.24359 0.08755 0.0
C1046 C 0.22611 0.26979 0.08864 0.0
C1047 C 0.25796 0.28471 0.09257 0.0
C1048 C 0.19785 0.28337 0.10435 0.0
C1049 C 0.26086 0.31525 0.11023 0.0
C1050 C 0.23235 0.32954 0.12559 0.0
C1051 C 0.17261 0.32547 0.14103 0.0
C1052 C 0.14189 0.3076 0.14003 0.0
C1053 C 0.20087 0.31326 0.12351 0.0
C1054 C 0.13929 0.27837 0.12019 0.0
C1055 C 0.16694 0.26652 0.10228 0.0
H1056 H 0.73708 0.28223 0.88827 0.0
H1057 H 0.76899 0.18743 0.93191 0.0
H1058 H 0.71818 0.16007 0.90925 0.0
H1059 H 0.66205 0.16507 0.88149 0.0
H1060 H 0.62904 0.26294 0.84609 0.0
H1061 H 0.68277 0.28749 0.86211 0.0
C1062 C 0.7332 0.25548 0.8929 0.0
C1063 C 0.75661 0.23698 0.91217 0.0
C1064 C 0.70334 0.24074 0.8819 0.0
C1065 C 0.75136 0.20224 0.91715 0.0
C1066 C 0.72215 0.18674 0.90455 0.0
C1067 C 0.66672 0.19177 0.87748 0.0
C1068 C 0.64159 0.21228 0.86286 0.0
C1069 C 0.69747 0.20605 0.88776 0.0
C1070 C 0.64781 0.24678 0.85767 0.0
C1071 C 0.6786 0.26078 0.86658 0.0
H1072 H 0.76596 0.73715 0.38823 0.0
H1073 H 0.73708 0.83781 0.41732 0.0
H1074 H 0.78965 0.86012 0.3929 0.0
H1075 H 0.84716 0.84915 0.37023 0.0
H1076 H 0.87604 0.74654 0.34674 0.0
H1077 H 0.82038 0.72669 0.36266 0.0
C1078 C 0.77078 0.76414 0.38839 0.0
C1079 C 0.74781 0.78589 0.40434 0.0
C1080 C 0.80157 0.77618 0.37631 0.0
C1081 C 0.75421 0.82073 0.40463 0.0
C1082 C 0.78453 0.83329 0.39126 0.0
C1083 C 0.84123 0.82247 0.36863 0.0
C1084 C 0.86609 0.79928 0.35796 0.0
C1085 C 0.80901 0.81101 0.37829 0.0
C1086 C 0.85779 0.76486 0.35557 0.0
C1087 C 0.82582 0.75347 0.36437 0.0
H1088 H 0.35581 0.67083 0.63187 0.0
H1089 H 0.39063 0.7685 0.66575 0.0
H1090 H 0.33778 0.79402 0.64781 0.0
H1091 H 0.28288 0.78913 0.62233 0.0
H1092 H 0.24797 0.69338 0.58361 0.0
H1093 H 0.29954 0.6662 0.60478 0.0
C1094 C 0.35188 0.69774 0.63507 0.0
C1095 C 0.37732 0.71781 0.64986 0.0
C1096 C 0.3214 0.71241 0.62437 0.0
C1097 C 0.37179 0.75259 0.65399 0.0
C1098 C 0.34145 0.76715 0.64402 0.0
C1099 C 0.28622 0.76223 0.61841 0.0
C1100 C 0.26148 0.74336 0.60117 0.0
C1101 C 0.31622 0.74732 0.6292 0.0
C1102 C 0.26644 0.7085 0.59687 0.0
C1103 C 0.29607 0.69307 0.60869 0.0
H1104 H 0.88743 0.86836 0.67564 0.0
H1105 H 0.82245 0.87686 0.76289 0.0
H1106 H 0.83616 0.81948 0.7794 0.0
H1107 H 0.86903 0.7686 0.77184 0.0
H1108 H 0.9387 0.76026 0.68874 0.0
H1109 H 0.91945 0.8151 0.66684 0.0
C1110 C 0.8764 0.85768 0.69833 0.0
C1111 C 0.85433 0.87727 0.71825 0.0
C1112 C 0.88468 0.82443 0.70804 0.0
C1113 C 0.83995 0.86279 0.74734 0.0
C1114 C 0.84751 0.82977 0.7567 0.0
C1115 C 0.87964 0.77847 0.74854 0.0
C1116 C 0.90536 0.76053 0.73203 0.0
C1117 C 0.87007 0.81059 0.7375 0.0
C1118 C 0.91863 0.77343 0.70174 0.0
C1119 C 0.90804 0.80506 0.6896 0.0
H1120 H 0.63399 0.15782 0.17551 0.0
H1121 H 0.66719 0.12587 0.27456 0.0
H1122 H 0.65095 0.18039 0.29786 0.0
H1123 H 0.62698 0.23591 0.29066 0.0
H1124 H 0.58847 0.26786 0.19361 0.0
H1125 H 0.60842 0.21469 0.16854 0.0
C1126 C 0.63742 0.16274 0.20225 0.0
C1127 C 0.65152 0.13764 0.22337 0.0
C1128 C 0.62764 0.19417 0.21562 0.0
C1129 C 0.65594 0.14445 0.25789 0.0
C1130 C 0.64695 0.17574 0.27116 0.0
C1131 C 0.62286 0.23158 0.26391 0.0
C1132 C 0.606 0.25595 0.24408 0.0
C1133 C 0.63279 0.20064 0.25028 0.0
C1134 C 0.60146 0.2497 0.20944 0.0
C1135 C 0.61255 0.21916 0.19524 0.0
H1136 H 0.39588 0.73142 0.2299 0.0
H1137 H 0.42102 0.77408 0.32713 0.0
H1138 H 0.39916 0.72296 0.35495 0.0
H1139 H 0.37493 0.66509 0.35077 0.0
H1140 H 0.35505 0.62304 0.25203 0.0
H1141 H 0.37371 0.67522 0.22553 0.0
C1142 C 0.39667 0.72996 0.25727 0.0
C1143 C 0.41021 0.75674 0.27639 0.0
C1144 C 0.38548 0.70036 0.27271 0.0
C1145 C 0.41068 0.75397 0.31179 0.0
C1146 C 0.3984 0.72466 0.32763 0.0
C1147 C 0.37489 0.66738 0.32345 0.0
C1148 C 0.36387 0.64012 0.30334 0.0
C1149 C 0.38616 0.69748 0.30824 0.0
C1150 C 0.36387 0.64339 0.26803 0.0
C1151 C 0.37428 0.67332 0.25286 0.0
H1152 H 0.06932 0.27875 0.81255 0.0
H1153 H 0.15737 0.23638 0.76554 0.0
H1154 H 0.18749 0.29003 0.7731 0.0
H1155 H 0.18607 0.35119 0.78752 0.0
H1156 H 0.09674 0.39268 0.8336 0.0
H1157 H 0.06946 0.33753 0.8313 0.0
C1158 C 0.09562 0.28089 0.80536 0.0
C1159 C 0.11147 0.25352 0.78936 0.0
C1160 C 0.112 0.31212 0.80837 0.0
C1161 C 0.14512 0.25677 0.77903 0.0
C1162 C 0.162 0.28771 0.7826 0.0
C1163 C 0.16052 0.3481 0.79672 0.0
C1164 C 0.14311 0.37612 0.81002 0.0
C1165 C 0.14521 0.31595 0.79608 0.0
C1166 C 0.11043 0.37162 0.8228 0.0
C1167 C 0.09493 0.34004 0.82178 0.0
H1168 H 0.67063 0.85679 0.84524 0.0
H1169 H 0.76226 0.87861 0.90006 0.0
H1170 H 0.78655 0.90379 0.84949 0.0
H1171 H 0.78138 0.92157 0.79115 0.0
H1172 H 0.69063 0.90142 0.73476 0.0
H1173 H 0.66652 0.8728 0.78454 0.0
C1174 C 0.69588 0.86716 0.84616 0.0
C1175 C 0.71442 0.86619 0.87671 0.0
C1176 C 0.70987 0.88161 0.81677 0.0
C1177 C 0.74728 0.87925 0.87718 0.0
C1178 C 0.76126 0.89358 0.84821 0.0
C1179 C 0.75628 0.91085 0.78954 0.0
C1180 C 0.7376 0.914 0.75941 0.0
C1181 C 0.74269 0.89515 0.8181 0.0
C1182 C 0.70548 0.89935 0.75763 0.0
C1183 C 0.69168 0.88326 0.78617 0.0
H1184 H 0.73647 0.13311 0.2787 0.0
H1185 H 0.83112 0.093 0.24325 0.0
H1186 H 0.85928 0.11558 0.29386 0.0
H1187 H 0.85521 0.14195 0.35115 0.0
H1188 H 0.7577 0.1739 0.3874 0.0
H1189 H 0.73224 0.15841 0.33377 0.0
C1190 C 0.76338 0.12931 0.28172 0.0
C1191 C 0.78158 0.111 0.25729 0.0
C1192 C 0.77869 0.1403 0.3115 0.0
C1193 C 0.8165 0.10706 0.26154 0.0
C1194 C 0.83247 0.1196 0.29071 0.0
C1195 C 0.82841 0.1454 0.34719 0.0
C1196 C 0.80829 0.15883 0.37336 0.0
C1197 C 0.81356 0.13537 0.31638 0.0
C1198 C 0.77363 0.16326 0.36792 0.0
C1199 C 0.75908 0.15462 0.33716 0.0
H1200 H 0.16792 0.63992 0.16463 0.0
H1201 H 0.26683 0.65343 0.12115 0.0
H1202 H 0.29254 0.63174 0.17267 0.0
H1203 H 0.28739 0.60925 0.229 0.0
H1204 H 0.18952 0.59209 0.27347 0.0
H1205 H 0.16281 0.6155 0.22239 0.0
C1206 C 0.1951 0.63797 0.16641 0.0
C1207 C 0.21545 0.64816 0.13891 0.0
C1208 C 0.20982 0.62513 0.19619 0.0
C1209 C 0.25059 0.64547 0.14166 0.0
C1210 C 0.26532 0.63324 0.1712 0.0
C1211 C 0.26012 0.61053 0.22793 0.0
C1212 C 0.2405 0.59888 0.25533 0.0
C1213 C 0.2452 0.62307 0.1985 0.0
C1214 C 0.20526 0.60092 0.25294 0.0
C1215 C 0.19004 0.61418 0.22367 0.0
H1216 H 0.22512 0.39412 0.73378 0.0
H1217 H 0.32182 0.39468 0.78325 0.0
H1218 H 0.34761 0.36906 0.73286 0.0
H1219 H 0.34313 0.3531 0.67243 0.0
H1220 H 0.24594 0.35683 0.62328 0.0
H1221 H 0.21988 0.37485 0.67587 0.0
C1222 C 0.25181 0.38811 0.73374 0.0
C1223 C 0.2717 0.39647 0.76187 0.0
C1224 C 0.2664 0.37502 0.70448 0.0
C1225 C 0.30605 0.38824 0.76187 0.0
C1226 C 0.32079 0.37409 0.73292 0.0
C1227 C 0.31626 0.35788 0.67324 0.0
C1228 C 0.29663 0.35432 0.6437 0.0
C1229 C 0.30136 0.36855 0.70364 0.0
C1230 C 0.26177 0.36007 0.64535 0.0
C1231 C 0.24677 0.37012 0.67548 0.0
H1232 H 0.84185 0.6748 0.8514 0.0
H1233 H 0.90018 0.75839 0.89021 0.0
H1234 H 0.85142 0.77874 0.9211 0.0
H1235 H 0.79265 0.77497 0.93482 0.0
H1236 H 0.73096 0.69468 0.895 0.0
H1237 H 0.78106 0.67012 0.86739 0.0
C1238 C 0.84385 0.69732 0.86684 0.0
C1239 C 0.87465 0.71518 0.86834 0.0
C1240 C 0.81531 0.70933 0.88431 0.0
C1241 C 0.87684 0.74435 0.88833 0.0
C1242 C 0.84899 0.75596 0.90611 0.0
C1243 C 0.78987 0.75206 0.92003 0.0
C1244 C 0.75797 0.737 0.91639 0.0
C1245 C 0.81815 0.73897 0.90384 0.0
C1246 C 0.75521 0.70681 0.89804 0.0
C1247 C 0.78379 0.693 0.88213 0.0
H1248 H 0.27707 0.73116 0.12065 0.0
H1249 H 0.24129 0.82687 0.08228 0.0
H1250 H 0.29154 0.85474 0.10587 0.0
H1251 H 0.34757 0.85053 0.13467 0.0
H1252 H 0.38335 0.75237 0.16634 0.0
H1253 H 0.33116 0.72663 0.14723 0.0
C1254 C 0.27993 0.75821 0.11721 0.0
C1255 C 0.25537 0.77683 0.09936 0.0
C1256 C 0.30921 0.77346 0.12923 0.0
C1257 C 0.25967 0.8119 0.09591 0.0
C1258 C 0.28854 0.82773 0.10916 0.0
C1259 C 0.34384 0.82351 0.13723 0.0
C1260 C 0.36942 0.80329 0.15168 0.0
C1261 C 0.31382 0.80859 0.12534 0.0
C1262 C 0.36433 0.76837 0.1549 0.0
C1263 C 0.3344 0.75366 0.1442 0.0
H1264 H 0.24786 0.27493 0.63745 0.0
H1265 H 0.25378 0.1895 0.57028 0.0
H1266 H 0.20098 0.16717 0.59413 0.0
H1267 H 0.15037 0.1754 0.63057 0.0
H1268 H 0.14491 0.26399 0.69417 0.0
H1269 H 0.19992 0.28199 0.6745 0.0
C1270 C 0.23789 0.25112 0.62824 0.0
C1271 C 0.25464 0.23395 0.60201 0.0
C1272 C 0.20711 0.23949 0.64086 0.0
C1273 C 0.24158 0.20302 0.59066 0.0
C1274 C 0.21114 0.19058 0.60397 0.0
C1275 C 0.16119 0.19868 0.64005 0.0
C1276 C 0.14304 0.21853 0.66351 0.0
C1277 C 0.19315 0.20918 0.6284 0.0
C1278 C 0.15778 0.24842 0.67575 0.0
C1279 C 0.18946 0.25867 0.66471 0.0
H1280 H 0.66738 0.35279 0.38086 0.0
H1281 H 0.63055 0.2536 0.35443 0.0
H1282 H 0.68392 0.22866 0.3713 0.0
H1283 H 0.73939 0.2343 0.39452 0.0
H1284 H 0.77634 0.33126 0.42794 0.0
H1285 H 0.72471 0.35814 0.40632 0.0
C1286 C 0.67111 0.32572 0.37902 0.0
C1287 C 0.64496 0.30499 0.36664 0.0
C1288 C 0.70182 0.31131 0.38959 0.0
C1289 C 0.65004 0.27 0.36429 0.0
C1290 C 0.68064 0.25575 0.37369 0.0
C1291 C 0.73655 0.26141 0.3972 0.0
C1292 C 0.76183 0.28068 0.4131 0.0
C1293 C 0.70649 0.27612 0.38648 0.0
C1294 C 0.75741 0.31579 0.41577 0.0
C1295 C 0.72776 0.33107 0.40368 0.0
H1296 H 0.99128 0.27136 0.12554 0.0
H1297 H 1.00272 0.37927 0.11487 0.0
H1298 H 0.96506 0.37918 0.0663 0.0
H1299 H 0.92985 0.34891 0.02661 0.0
H1300 H 0.91816 0.24083 0.03491 0.0
H1301 H 0.95555 0.24037 0.0843 0.0
C1302 C 0.98519 0.29479 0.11267 0.0
C1303 C 0.9996 0.32531 0.12373 0.0
C1304 C 0.96398 0.29446 0.08413 0.0
C1305 C 0.99197 0.35549 0.10669 0.0
C1306 C 0.97051 0.35546 0.0789 0.0
C1307 C 0.93548 0.32512 0.03905 0.0
C1308 C 0.92125 0.29494 0.02702 0.0
C1309 C 0.95665 0.32512 0.06728 0.0
C1310 C 0.92903 0.2644 0.04347 0.0
C1311 C 0.95019 0.26417 0.07185 0.0
H1312 H 0.6173 0.7441 0.5638 0.0
H1313 H 0.54818 0.71108 0.48646 0.0
H1314 H 0.50723 0.69491 0.5293 0.0
H1315 H 0.49169 0.68755 0.58886 0.0
H1316 H 0.56011 0.72074 0.66668 0.0
H1317 H 0.60056 0.73891 0.62383 0.0
C1318 C 0.59299 0.73404 0.55639 0.0
C1319 C 0.58583 0.72891 0.52197 0.0
C1320 C 0.56958 0.72411 0.58132 0.0
C1321 C 0.55438 0.7153 0.51279 0.0
C1322 C 0.53096 0.70582 0.53729 0.0
C1323 C 0.51555 0.69851 0.59643 0.0
C1324 C 0.52294 0.70247 0.63092 0.0
C1325 C 0.53851 0.70946 0.57164 0.0
C1326 C 0.5538 0.71728 0.64027 0.0
C1327 C 0.57694 0.72782 0.61577 0.0
H1328 H 0.44026 0.17114 0.99912 0.0
H1329 H 0.42681 0.27861 0.98624 0.0
H1330 H 0.45942 0.27659 0.93368 0.0
H1331 H 0.49079 0.24354 0.89061 0.0
H1332 H 0.50358 0.13623 0.90519 0.0
H1333 H 0.47142 0.13886 0.95755 0.0
C1334 C 0.44462 0.19429 0.98508 0.0
C1335 C 0.43119 0.22501 0.99675 0.0
C1336 C 0.4628 0.19283 0.95483 0.0
C1337 C 0.43718 0.25466 0.97807 0.0
C1338 C 0.45553 0.25345 0.94783 0.0
C1339 C 0.48614 0.22077 0.90513 0.0
C1340 C 0.49933 0.18968 0.89403 0.0
C1341 C 0.46814 0.22257 0.93575 0.0
C1342 C 0.49366 0.16041 0.91328 0.0
C1343 C 0.47541 0.1619 0.94326 0.0
H1344 H 0.10493 0.76145 0.46474 0.0
H1345 H 0.05972 0.84005 0.52489 0.0
H1346 H 0.01624 0.84855 0.48223 0.0
H1347 H 0.99347 0.83698 0.42604 0.0
H1348 H 0.0392 0.75981 0.36426 0.0
H1349 H 0.07981 0.74759 0.40902 0.0
C1350 C 0.08509 0.77985 0.46871 0.0
C1351 C 0.08547 0.80002 0.49792 0.0
C1352 C 0.06049 0.78532 0.4435 0.0
C1353 C 0.05996 0.82424 0.50255 0.0
C1354 C 0.03515 0.82924 0.47811 0.0
C1355 C 0.01216 0.81734 0.42236 0.0
C1356 C 0.01324 0.79954 0.39166 0.0
C1357 C 0.03561 0.81052 0.44813 0.0
C1358 C 0.03771 0.77407 0.38755 0.0
C1359 C 0.06101 0.76699 0.41319 0.0
H1360 H 0.11455 0.99738 0.27843 0.0
H1361 H 0.12884 0.97912 0.38513 0.0
H1362 H 0.08268 0.93844 0.38471 0.0
H1363 H 0.0375 0.90897 0.35447 0.0
H1364 H 0.02292 0.92746 0.24785 0.0
H1365 H 0.06995 0.96715 0.24796 0.0
C1366 C 0.10771 0.98442 0.3016 0.0
C1367 C 0.12513 0.9915 0.33179 0.0
C1368 C 0.08095 0.96121 0.30127 0.0
C1369 C 0.11582 0.97438 0.36154 0.0
C1370 C 0.08939 0.95109 0.36135 0.0
C1371 C 0.04451 0.9217 0.33122 0.0
C1372 C 0.02644 0.91534 0.30124 0.0
C1373 C 0.0716 0.94452 0.33143 0.0
C1374 C 0.03618 0.93194 0.27135 0.0
C1375 C 0.06314 0.95464 0.27136 0.0
H1376 H 0.50302 0.07299 0.84245 0.0
H1377 H 0.4803 0.09974 0.73921 0.0
H1378 H 0.42965 0.06404 0.74122 0.0
H1379 H 0.39046 0.02726 0.77393 0.0
H1380 H 0.41508 1.00207 0.8773 0.0
H1381 H 0.46612 0.03579 0.87377 0.0
C1382 C 0.48718 0.07093 0.82019 0.0
C1383 C 0.49535 0.08909 0.79074 0.0
C1384 C 0.45816 0.05103 0.82178 0.0
C1385 C 0.47471 0.08578 0.76209 0.0
C1386 C 0.44559 0.06566 0.76339 0.0
C1387 C 0.40697 0.02935 0.79566 0.0
C1388 C 0.3989 0.01226 0.82591 0.0
C1389 C 0.43676 0.0486 0.79335 0.0
C1390 C 0.42072 0.01485 0.85373 0.0
C1391 C 0.44995 0.03409 0.85175 0.0
H1392 H 0.62202 0.52516 0.74117 0.0
H1393 H 0.60693 0.50692 0.63472 0.0
H1394 H 0.55474 0.53951 0.63612 0.0
H1395 H 0.51446 0.57428 0.66689 0.0
H1396 H 0.52787 0.59233 0.77353 0.0
H1397 H 0.57934 0.55794 0.77301 0.0
C1398 C 0.60732 0.52848 0.71829 0.0
C1399 C 0.61843 0.51393 0.68777 0.0
C1400 C 0.57693 0.54677 0.71943 0.0
C1401 C 0.5989 0.5179 0.65845 0.0
C1402 C 0.56906 0.53648 0.65925 0.0
C1403 C 0.52843 0.57046 0.69016 0.0
C1404 C 0.51742 0.58589 0.72021 0.0
C1405 C 0.55793 0.55106 0.68953 0.0
C1406 C 0.53565 0.58044 0.75016 0.0
C1407 C 0.56524 0.56109 0.74976 0.0
H1408 H 0.98715 0.41981 0.16729 0.0
H1409 H 0.99594 0.43313 0.27527 0.0
H1410 H 0.94704 0.47123 0.2742 0.0
H1411 H 0.90219 0.50079 0.24212 0.0
H1412 H 0.89482 0.48619 0.13413 0.0
H1413 H 0.94306 0.44813 0.1359 0.0
C1414 C 0.97871 0.43104 0.19079 0.0
C1415 C 0.99558 0.42372 0.22139 0.0
C1416 C 0.95076 0.45257 0.18995 0.0
C1417 C 0.98369 0.43842 0.25138 0.0
C1418 C 0.95569 0.46014 0.25074 0.0
C1419 C 0.91105 0.48924 0.21895 0.0
C1420 C 0.89483 0.49654 0.18794 0.0
C1421 C 0.93905 0.4674 0.22011 0.0
C1422 C 0.90676 0.48125 0.15826 0.0
C1423 C 0.93439 0.45947 0.15926 0.0
H1424 H 0.28095 0.12908 0.98745 0.0
H1425 H 0.38325 0.10486 0.01527 0.0
H1426 H 0.3804 0.05307 0.98179 0.0
H1427 H 0.34957 0.01545 0.94366 0.0
H1428 H 0.24659 0.03789 0.91697 0.0
H1429 H 0.24878 0.0893 0.95146 0.0
C1430 C 0.30265 0.11249 0.98611 0.0
C1431 C 0.33244 0.12103 1.00365 0.0
C1432 C 0.30059 0.08231 0.96728 0.0
C1433 C 0.36009 0.09895 1.00205 0.0
C1434 C 0.35845 0.06932 0.98291 0.0
C1435 C 0.32743 0.0314 0.94554 0.0
C1436 C 0.29792 0.02276 0.92761 0.0
C1437 C 0.32891 0.06082 0.96535 0.0
C1438 C 0.2695 0.0437 0.93065 0.0
C1439 C 0.27086 0.07326 0.95017 0.0
H1440 H 0.82956 0.43266 0.99555 0.0
H1441 H 0.79126 0.3579 0.06502 0.0
H1442 H 0.77541 0.40206 0.10478 0.0
H1443 H 0.77319 0.46223 0.12087 0.0
H1444 H 0.81208 0.53706 0.05196 0.0
H1445 H 0.82607 0.49308 0.01112 0.0
C1446 C 0.81805 0.42605 0.01951 0.0
C1447 C 0.81184 0.39188 0.0272 0.0
C1448 C 0.80846 0.45178 0.04234 0.0
C1449 C 0.79641 0.38394 0.0583 0.0
C1450 C 0.78715 0.40923 0.08111 0.0
C1451 C 0.78398 0.46893 0.09659 0.0
C1452 C 0.79118 0.50298 0.08942 0.0
C1453 C 0.79286 0.4433 0.07341 0.0
C1454 C 0.80601 0.51108 0.05809 0.0
C1455 C 0.81431 0.48588 0.03477 0.0
H1456 H 0.73823 0.62323 0.51622 0.0
H1457 H 0.62976 0.62092 0.52447 0.0
H1458 H 0.63354 0.57196 0.56182 0.0
H1459 H 0.66703 0.53008 0.59205 0.0
H1460 H 0.77556 0.5319 0.58549 0.0
H1461 H 0.77222 0.58081 0.54735 0.0
C1462 C 0.71535 0.61206 0.52614 0.0
C1463 C 0.68365 0.62592 0.51725 0.0
C1464 C 0.71769 0.58375 0.54779 0.0
C1465 C 0.65444 0.61098 0.53062 0.0
C1466 C 0.65659 0.58288 0.55202 0.0
C1467 C 0.69015 0.54084 0.58221 0.0
C1468 C 0.72161 0.52686 0.59157 0.0
C1469 C 0.68802 0.56904 0.56068 0.0
C1470 C 0.75104 0.54179 0.57868 0.0
C1471 C 0.7491 0.56985 0.55691 0.0
H1472 H 0.23862 0.88936 0.47842 0.0
H1473 H 0.14519 0.92629 0.52025 0.0
H1474 H 0.15093 0.97846 0.48779 0.0
H1475 H 0.18173 0.01309 0.44689 0.0
H1476 H 0.27496 0.97628 0.40451 0.0
H1477 H 0.27023 0.92478 0.43835 0.0
C1478 C 0.21942 0.90875 0.48041 0.0
C1479 C 0.19141 0.90376 0.50174 0.0
C1480 C 0.22301 0.93887 0.46185 0.0
C1481 C 0.16698 0.92936 0.50409 0.0
C1482 C 0.17028 0.95927 0.48557 0.0
C1483 C 0.20133 0.99407 0.44531 0.0
C1484 C 0.2288 0.99878 0.42325 0.0
C1485 C 0.19818 0.96429 0.4644 0.0
C1486 C 0.25368 0.97355 0.42141 0.0
C1487 C 0.25087 0.94395 0.4406 0.0
H1488 H 0.99232 0.67294 0.92475 0.0
H1489 H 0.04588 0.74309 0.86065 0.0
H1490 H 0.08325 0.75762 0.90698 0.0
H1491 H 0.10293 0.74883 0.96524 0.0
H1492 H 0.05194 0.67666 0.02866 0.0
H1493 H 0.0112 0.66521 0.98371 0.0
C1494 C 0.01218 0.69133 0.92092 0.0
C1495 C 0.01611 0.70674 0.88912 0.0
C1496 C 0.03393 0.69968 0.94783 0.0
C1497 C 0.04205 0.7307 0.88477 0.0
C1498 C 0.06351 0.73921 0.91134 0.0
C1499 C 0.08232 0.73132 0.96941 0.0
C1500 C 0.08002 0.71403 1.00027 0.0
C1501 C 0.0598 0.72385 0.94297 0.0
C1502 C 0.05387 0.69057 1.00512 0.0
C1503 C 0.03078 0.68377 0.97934 0.0
H1504 H 0.48958 0.27769 0.39204 0.0
H1505 H 0.51411 0.38082 0.41728 0.0
H1506 H 0.47899 0.37704 0.46789 0.0
H1507 H 0.4403 0.34509 0.50406 0.0
H1508 H 0.41649 0.24151 0.47993 0.0
H1509 H 0.45286 0.24467 0.43005 0.0
C1510 C 0.48718 0.29939 0.40856 0.0
C1511 C 0.50427 0.32965 0.40069 0.0
C1512 C 0.46733 0.29685 0.43795 0.0
C1513 C 0.50125 0.3573 0.42269 0.0
C1514 C 0.48117 0.35513 0.45164 0.0
C1515 C 0.44323 0.32303 0.4881 0.0
C1516 C 0.4256 0.29306 0.49582 0.0
C1517 C 0.46403 0.32509 0.45944 0.0
C1518 C 0.42992 0.26478 0.47484 0.0
C1519 C 0.45052 0.26667 0.44613 0.0
H1520 H 0.5709 0.84779 0.01297 0.0
H1521 H 0.59466 0.7435 0.03415 0.0
H1522 H 0.55877 0.74535 0.08456 0.0
H1523 H 0.52293 0.77774 0.12406 0.0
H1524 H 0.4987 0.88165 0.10141 0.0
H1525 H 0.5329 0.87889 0.05018 0.0
C1526 C 0.56803 0.82529 0.0284 0.0
C1527 C 0.58551 0.79553 0.01983 0.0
C1528 C 0.54763 0.82665 0.05729 0.0
C1529 C 0.58126 0.76661 0.03999 0.0
C1530 C 0.56099 0.76778 0.06898 0.0
C1531 C 0.52522 0.7998 0.10794 0.0
C1532 C 0.50854 0.83002 0.11672 0.0
C1533 C 0.5445 0.79785 0.07816 0.0
C1534 C 0.5113 0.85817 0.09528 0.0
C1535 C 0.53083 0.85659 0.06598 0.0
H1536 H 0.93093 0.16941 0.5298 0.0
H1537 H 0.93438 0.27844 0.53052 0.0
H1538 H 0.97123 0.27676 0.58029 0.0
H1539 H 1.00178 0.24401 0.62403 0.0
H1540 H 0.9966 0.13496 0.62257 0.0
H1541 H 0.96085 0.13717 0.57262 0.0
C1542 C 0.93982 0.19298 0.54053 0.0
C1543 C 0.92994 0.22407 0.52612 0.0
C1544 C 0.96056 0.1918 0.5692 0.0
C1545 C 0.94167 0.25416 0.54084 0.0
C1546 C 0.96266 0.25318 0.56939 0.0
C1547 C 0.99282 0.2207 0.61283 0.0
C1548 C 1.00206 0.18932 0.62718 0.0
C1549 C 0.97213 0.22211 0.5839 0.0
C1550 C 0.99012 0.15945 0.61218 0.0
C1551 C 0.96964 0.16067 0.58354 0.0
H1552 H 0.88934 0.0287 0.74083 0.0
H1553 H 0.91161 0.01525 0.63495 0.0
H1554 H 0.96203 0.05056 0.64116 0.0
H1555 H 0.99992 0.08526 0.67699 0.0
H1556 H 0.97539 0.09995 0.78221 0.0
H1557 H 0.92592 0.06383 0.77592 0.0
C1558 C 0.90516 0.03333 0.71898 0.0
C1559 C 0.89661 0.01896 0.68744 0.0
C1560 C 0.93392 0.05374 0.72272 0.0
C1561 C 0.91743 0.02581 0.65951 0.0
C1562 C 0.94636 0.04595 0.66311 0.0
C1563 C 0.98396 0.08024 0.69866 0.0
C1564 C 0.99175 0.09502 0.73023 0.0
C1565 C 0.95497 0.05993 0.69466 0.0
C1566 C 0.97026 0.08882 0.75775 0.0
C1567 C 0.94187 0.0682 0.75413 0.0
H1568 H 0.58893 0.02019 0.18064 0.0
H1569 H 0.65546 0.96083 0.24336 0.0
H1570 H 0.6089 0.92335 0.25829 0.0
H1571 H 0.54949 0.90552 0.25118 0.0
H1572 H 0.48419 0.96404 0.1867 0.0
H1573 H 0.52964 1.00407 0.17553 0.0
C1574 C 0.59333 0.99907 0.19757 0.0
C1575 C 0.6258 0.99332 0.21061 0.0
C1576 C 0.56642 0.97762 0.20615 0.0
C1577 C 0.63081 0.96588 0.23276 0.0
C1578 C 0.60413 0.94444 0.24145 0.0
C1579 C 0.54511 0.92758 0.23546 0.0
C1580 C 0.51349 0.93217 0.22014 0.0
C1581 C 0.57181 0.94993 0.22818 0.0
C1582 C 0.50828 0.96027 0.19902 0.0
C1583 C 0.53433 0.98298 0.19239 0.0
H1584 H 0.50598 0.44596 0.34649 0.0
H1585 H 0.47915 0.41554 0.24529 0.0
H1586 H 0.42753 0.44938 0.2488 0.0
H1587 H 0.38874 0.48527 0.28191 0.0
H1588 H 0.41663 0.51575 0.38283 0.0
H1589 H 0.46903 0.48369 0.37825 0.0
C1590 C 0.48906 0.44692 0.32497 0.0
C1591 C 0.49648 0.42812 0.29564 0.0
C1592 C 0.45938 0.46602 0.32735 0.0
C1593 C 0.47428 0.42994 0.26803 0.0
C1594 C 0.44459 0.44903 0.27018 0.0
C1595 C 0.40622 0.48479 0.30298 0.0
C1596 C 0.39857 0.50265 0.33287 0.0
C1597 C 0.43661 0.4667 0.29995 0.0
C1598 C 0.4218 0.50219 0.35964 0.0
C1599 C 0.4518 0.48391 0.357 0.0
H1600 H 0.11574 0.51739 0.77444 0.0
H1601 H 0.1237 0.53463 0.88197 0.0
H1602 H 0.07667 0.57415 0.87925 0.0
H1603 H 0.03303 0.60309 0.84703 0.0
H1604 H 0.02436 0.58707 0.73946 0.0
H1605 H 0.07204 0.54767 0.74163 0.0
C1606 C 0.10728 0.52983 0.79731 0.0
C1607 C 0.12329 0.52278 0.82845 0.0
C1608 C 0.08002 0.5526 0.79561 0.0
C1609 C 0.11191 0.53933 0.85771 0.0
C1610 C 0.08495 0.56196 0.85619 0.0
C1611 C 0.04131 0.59094 0.82393 0.0
C1612 C 0.02475 0.5979 0.79311 0.0
C1613 C 0.06872 0.56859 0.82536 0.0
C1614 C 0.03639 0.58212 0.76354 0.0
C1615 C 0.0637 0.55961 0.76479 0.0
H1616 H 0.74043 0.89074 0.02998 0.0
H1617 H 0.63456 0.90727 0.0116 0.0
H1618 H 0.63568 0.95748 0.0472 0.0
H1619 H 0.6662 0.99623 0.08368 0.0
H1620 H 0.77244 0.9821 0.10156 0.0
H1621 H 0.77197 0.93176 0.0654 0.0
C1622 C 0.71764 0.9053 0.03403 0.0
C1623 C 0.68737 0.89527 0.01844 0.0
C1624 C 0.71864 0.93471 0.05399 0.0
C1625 C 0.65811 0.91456 0.02335 0.0
C1626 C 0.65875 0.94327 0.04364 0.0
C1627 C 0.68937 0.9823 0.07955 0.0
C1628 C 0.71931 0.99284 0.09531 0.0
C1629 C 0.68883 0.95358 0.05899 0.0
C1630 C 0.74913 0.97466 0.08944 0.0
C1631 C 0.74878 0.94573 0.06903 0.0
H1632 H 0.18362 0.50456 0.94765 0.0
H1633 H 0.27101 0.54764 0.89904 0.0
H1634 H 0.26451 0.59905 0.93263 0.0
H1635 H 0.23296 0.63234 0.97443 0.0
H1636 H 0.14534 0.58906 0.02249 0.0
H1637 H 0.15287 0.5372 0.99001 0.0
C1638 C 0.20156 0.52498 0.94458 0.0
C1639 C 0.22794 0.52203 0.9209 0.0
C1640 C 0.19737 0.55461 0.96355 0.0
C1641 C 0.25067 0.549 0.91721 0.0
C1642 C 0.24682 0.57852 0.93627 0.0
C1643 C 0.21539 0.61164 0.97778 0.0
C1644 C 0.1885 0.61473 1.00088 0.0
C1645 C 0.22003 0.58174 0.95922 0.0
C1646 C 0.16621 0.58747 1.00494 0.0
C1647 C 0.17054 0.55775 0.98642 0.0
H1648 H 0.27417 0.389 0.48819 0.0
H1649 H 0.37533 0.41403 0.51928 0.0
H1650 H 0.37223 0.46698 0.48771 0.0
H1651 H 0.34182 0.5051 0.44985 0.0
H1652 H 0.24042 0.48124 0.41878 0.0
H1653 H 0.24228 0.42924 0.45247 0.0
C1654 C 0.29556 0.40601 0.48797 0.0
C1655 C 0.3251 0.39739 0.50584 0.0
C1656 C 0.29341 0.43677 0.47013 0.0
C1657 C 0.35237 0.41999 0.50572 0.0
C1658 C 0.35059 0.4503 0.48771 0.0
C1659 C 0.3199 0.48876 0.45071 0.0
C1660 C 0.291 0.4971 0.43176 0.0
C1661 C 0.32133 0.45885 0.46973 0.0
C1662 C 0.26284 0.47566 0.43337 0.0
C1663 C 0.26405 0.44574 0.45235 0.0
H1664 H 0.7815 0.13504 0.53536 0.0
H1665 H 0.87683 0.09806 0.49829 0.0
H1666 H 0.86984 0.0462 0.53124 0.0
H1667 H 0.83716 0.01182 0.57155 0.0
H1668 H 0.74177 0.04931 0.60821 0.0
H1669 H 0.7482 0.10017 0.57409 0.0
C1670 C 0.80086 0.11573 0.5345 0.0
C1671 C 0.82975 0.12062 0.51442 0.0
C1672 C 0.79654 0.08583 0.55323 0.0
C1673 C 0.85435 0.09505 0.5135 0.0
C1674 C 0.85034 0.06533 0.53231 0.0
C1675 C 0.81751 0.03085 0.57173 0.0
C1676 C 0.78891 0.02646 0.59241 0.0
C1677 C 0.82152 0.06042 0.55228 0.0
C1678 C 0.76397 0.05175 0.5925 0.0
C1679 C 0.7677 0.08102 0.5731 0.0
loop_
_geom_bond_atom_site_label_1
_geom_bond_atom_site_label_2
_geom_bond_distance
_geom_bond_site_symmetry_2
_ccdc_geom_bond_type
Fe0 O2 1.918 . S
Fe0 O5 1.997 . S
Fe0 O6 2.002 . S
Fe0 O11 1.976 . S
Fe0 O14 1.996 . S
Fe1 O2 1.918 . S
Fe1 O9 1.997 . S
Fe1 O12 1.996 . S
Fe1 O16 1.976 . S
Fe1 O19 2.002 . S
O2 Fe0 1.918 . S
O2 Fe1 1.918 . S
O2 Fe3 1.918 . S
Fe3 O2 1.918 . S
Fe3 O4 2.002 . S
Fe3 O13 1.976 . S
Fe3 O17 1.996 . S
Fe3 O20 1.997 . S
O4 Fe3 2.002 . S
O4 C21 1.295 . S
O5 Fe0 1.997 . S
O5 C21 1.235 . S
O6 Fe0 2.002 . S
O6 C7 1.295 . S
C7 O6 1.295 . S
C7 O9 1.235 . S
C8 O13 1.287 . S
C8 O14 1.255 . S
O9 Fe1 1.997 . S
O9 C7 1.235 . S
C10 O16 1.287 . S
C10 O17 1.255 . S
O11 Fe0 1.976 . S
O11 C18 1.287 . S
O12 Fe1 1.996 . S
O12 C18 1.255 . S
O13 Fe3 1.976 . S
O13 C8 1.287 . S
O14 Fe0 1.996 . S
O14 C8 1.255 . S
C15 O19 1.295 1_655 S
C15 O20 1.235 1_655 S
O16 Fe1 1.976 . S
O16 C10 1.287 . S
O17 Fe3 1.996 . S
O17 C10 1.255 . S
C18 O11 1.287 . S
C18 O12 1.255 . S
O19 Fe1 2.002 . S
O19 C15 1.295 1_455 S
O20 Fe3 1.997 . S
O20 C15 1.235 1_455 S
C21 O4 1.295 . S
C21 O5 1.235 . S
Fe22 O24 1.918 . S
Fe22 O27 1.997 . S
Fe22 O28 2.002 . S
Fe22 O33 1.976 . S
Fe22 O36 1.996 . S
Fe23 O24 1.918 . S
Fe23 O31 1.997 . S
Fe23 O34 1.996 . S
Fe23 O38 1.976 . S
Fe23 O41 2.002 . S
O24 Fe22 1.918 . S
O24 Fe23 1.918 . S
O24 Fe25 1.918 . S
Fe25 O24 1.918 . S
Fe25 O26 2.002 . S
Fe25 O35 1.976 . S
Fe25 O39 1.996 . S
Fe25 O42 1.997 . S
O26 Fe25 2.002 . S
O26 C43 1.295 . S
O27 Fe22 1.997 . S
O27 C43 1.235 . S
O28 Fe22 2.002 . S
O28 C29 1.295 . S
C29 O28 1.295 . S
C29 O31 1.235 . S
C30 O35 1.287 . S
C30 O36 1.255 . S
O31 Fe23 1.997 . S
O31 C29 1.235 . S
C32 O38 1.287 . S
C32 O39 1.255 . S
O33 Fe22 1.976 . S
O33 C40 1.287 . S
O34 Fe23 1.996 . S
O34 C40 1.255 . S
O35 Fe25 1.976 . S
O35 C30 1.287 . S
O36 Fe22 1.996 . S
O36 C30 1.255 . S
C37 O41 1.295 . S
C37 O42 1.235 . S
O38 Fe23 1.976 . S
O38 C32 1.287 . S
O39 Fe25 1.996 . S
O39 C32 1.255 . S
C40 O33 1.287 . S
C40 O34 1.255 . S
O41 Fe23 2.002 . S
O41 C37 1.295 . S
O42 Fe25 1.997 . S
O42 C37 1.235 . S
C43 O26 1.295 . S
C43 O27 1.235 . S
Fe44 O46 1.918 . S
Fe44 O49 1.997 . S
Fe44 O50 2.002 . S
Fe44 O55 1.976 . S
Fe44 O58 1.996 . S
Fe45 O46 1.918 . S
Fe45 O53 1.997 . S
Fe45 O56 1.996 . S
Fe45 O60 1.976 . S
Fe45 O63 2.002 . S
O46 Fe44 1.918 . S
O46 Fe45 1.918 . S
O46 Fe47 1.918 . S
Fe47 O46 1.918 . S
Fe47 O48 2.002 . S
Fe47 O57 1.976 . S
Fe47 O61 1.996 . S
Fe47 O64 1.997 . S
O48 Fe47 2.002 . S
O48 C65 1.295 . S
O49 Fe44 1.997 . S
O49 C65 1.235 . S
O50 Fe44 2.002 . S
O50 C51 1.295 . S
C51 O50 1.295 . S
C51 O53 1.235 . S
C52 O57 1.287 . S
C52 O58 1.255 . S
O53 Fe45 1.997 . S
O53 C51 1.235 . S
C54 O60 1.287 . S
C54 O61 1.255 . S
O55 Fe44 1.976 . S
O55 C62 1.287 . S
O56 Fe45 1.996 . S
O56 C62 1.255 . S
O57 Fe47 1.976 . S
O57 C52 1.287 . S
O58 Fe44 1.996 . S
O58 C52 1.255 . S
C59 O63 1.295 . S
C59 O64 1.235 . S
O60 Fe45 1.976 . S
O60 C54 1.287 . S
O61 Fe47 1.996 . S
O61 C54 1.255 . S
C62 O55 1.287 . S
C62 O56 1.255 . S
O63 Fe45 2.002 . S
O63 C59 1.295 . S
O64 Fe47 1.997 . S
O64 C59 1.235 . S
C65 O48 1.295 . S
C65 O49 1.235 . S
Fe66 O68 1.918 . S
Fe66 O71 1.997 . S
Fe66 O72 2.002 . S
Fe66 O77 1.976 . S
Fe66 O80 1.996 . S
Fe67 O68 1.918 . S
Fe67 O75 1.997 . S
Fe67 O78 1.996 . S
Fe67 O82 1.976 . S
Fe67 O85 2.002 . S
O68 Fe66 1.918 . S
O68 Fe67 1.918 . S
O68 Fe69 1.918 . S
Fe69 O68 1.918 . S
Fe69 O70 2.002 . S
Fe69 O79 1.976 . S
Fe69 O83 1.996 . S
Fe69 O86 1.997 . S
O70 Fe69 2.002 . S
O70 C87 1.295 . S
O71 Fe66 1.997 . S
O71 C87 1.235 . S
O72 Fe66 2.002 . S
O72 C73 1.295 1_655 S
C73 O72 1.295 1_455 S
C73 O75 1.235 1_455 S
C74 O79 1.287 . S
C74 O80 1.255 . S
O75 Fe67 1.997 . S
O75 C73 1.235 1_655 S
C76 O82 1.287 . S
C76 O83 1.255 . S
O77 Fe66 1.976 . S
O77 C84 1.287 . S
O78 Fe67 1.996 . S
O78 C84 1.255 . S
O79 Fe69 1.976 . S
O79 C74 1.287 . S
O80 Fe66 1.996 . S
O80 C74 1.255 . S
C81 O85 1.295 . S
C81 O86 1.235 . S
O82 Fe67 1.976 . S
O82 C76 1.287 . S
O83 Fe69 1.996 . S
O83 C76 1.255 . S
C84 O77 1.287 . S
C84 O78 1.255 . S
O85 Fe67 2.002 . S
O85 C81 1.295 . S
O86 Fe69 1.997 . S
O86 C81 1.235 . S
C87 O70 1.295 . S
C87 O71 1.235 . S
Fe88 O90 1.918 . S
Fe88 O93 1.997 . S
Fe88 O94 2.002 . S
Fe88 O99 1.976 . S
Fe88 O102 1.996 . S
Fe89 O90 1.918 . S
Fe89 O97 1.997 . S
Fe89 O100 1.996 . S
Fe89 O104 1.976 . S
Fe89 O107 2.002 . S
O90 Fe88 1.918 . S
O90 Fe89 1.918 . S
O90 Fe91 1.918 . S
Fe91 O90 1.918 . S
Fe91 O92 2.002 . S
Fe91 O101 1.976 . S
Fe91 O105 1.996 . S
Fe91 O108 1.997 . S
O92 Fe91 2.002 . S
O92 C109 1.295 1_545 S
O93 Fe88 1.997 . S
O93 C109 1.235 1_545 S
O94 Fe88 2.002 . S
O94 C95 1.295 . S
C95 O94 1.295 . S
C95 O97 1.235 . S
C96 O101 1.287 . S
C96 O102 1.255 . S
O97 Fe89 1.997 . S
O97 C95 1.235 . S
C98 O104 1.287 . S
C98 O105 1.255 . S
O99 Fe88 1.976 . S
O99 C106 1.287 . S
O100 Fe89 1.996 . S
O100 C106 1.255 . S
O101 Fe91 1.976 . S
O101 C96 1.287 . S
O102 Fe88 1.996 . S
O102 C96 1.255 . S
C103 O107 1.295 . S
C103 O108 1.235 . S
O104 Fe89 1.976 . S
O104 C98 1.287 . S
O105 Fe91 1.996 . S
O105 C98 1.255 . S
C106 O99 1.287 . S
C106 O100 1.255 . S
O107 Fe89 2.002 . S
O107 C103 1.295 . S
O108 Fe91 1.997 . S
O108 C103 1.235 . S
C109 O92 1.295 1_565 S
C109 O93 1.235 1_565 S
Fe110 O112 1.918 . S
Fe110 O115 1.997 . S
Fe110 O116 2.002 . S
Fe110 O121 1.976 . S
Fe110 O124 1.996 . S
Fe111 O112 1.918 . S
Fe111 O119 1.997 . S
Fe111 O122 1.996 . S
Fe111 O126 1.976 . S
Fe111 O129 2.002 . S
O112 Fe110 1.918 . S
O112 Fe111 1.918 . S
O112 Fe113 1.918 . S
Fe113 O112 1.918 . S
Fe113 O114 2.002 . S
Fe113 O123 1.976 . S
Fe113 O127 1.996 . S
Fe113 O130 1.997 . S
O114 Fe113 2.002 . S
O114 C131 1.295 . S
O115 Fe110 1.997 . S
O115 C131 1.235 . S
O116 Fe110 2.002 . S
O116 C117 1.295 1_565 S
C117 O116 1.295 1_545 S
C117 O119 1.235 1_545 S
C118 O123 1.287 . S
C118 O124 1.255 . S
O119 Fe111 1.997 . S
O119 C117 1.235 1_565 S
C120 O126 1.287 . S
C120 O127 1.255 . S
O121 Fe110 1.976 . S
O121 C128 1.287 . S
O122 Fe111 1.996 . S
O122 C128 1.255 . S
O123 Fe113 1.976 . S
O123 C118 1.287 . S
O124 Fe110 1.996 . S
O124 C118 1.255 . S
C125 O129 1.295 . S
C125 O130 1.235 . S
O126 Fe111 1.976 . S
O126 C120 1.287 . S
O127 Fe113 1.996 . S
O127 C120 1.255 . S
C128 O121 1.287 . S
C128 O122 1.255 . S
O129 Fe111 2.002 . S
O129 C125 1.295 . S
O130 Fe113 1.997 . S
O130 C125 1.235 . S
C131 O114 1.295 . S
C131 O115 1.235 . S
Fe132 O134 1.918 . S
Fe132 O137 1.997 . S
Fe132 O138 2.002 . S
Fe132 O143 1.976 . S
Fe132 O146 1.996 . S
Fe133 O134 1.918 . S
Fe133 O141 1.997 . S
Fe133 O144 1.996 . S
Fe133 O148 1.976 . S
Fe133 O151 2.002 . S
O134 Fe132 1.918 . S
O134 Fe133 1.918 . S
O134 Fe135 1.918 . S
Fe135 O134 1.918 . S
Fe135 O136 2.002 . S
Fe135 O145 1.976 . S
Fe135 O149 1.996 . S
Fe135 O152 1.997 . S
O136 Fe135 2.002 . S
O136 C153 1.295 . S
O137 Fe132 1.997 . S
O137 C153 1.235 . S
O138 Fe132 2.002 . S
O138 C139 1.295 . S
C139 O138 1.295 . S
C139 O141 1.235 . S
C140 O145 1.287 . S
C140 O146 1.255 . S
O141 Fe133 1.997 . S
O141 C139 1.235 . S
C142 O148 1.287 . S
C142 O149 1.255 . S
O143 Fe132 1.976 . S
O143 C150 1.287 . S
O144 Fe133 1.996 . S
O144 C150 1.255 . S
O145 Fe135 1.976 . S
O145 C140 1.287 . S
O146 Fe132 1.996 . S
O146 C140 1.255 . S
C147 O151 1.295 . S
C147 O152 1.235 . S
O148 Fe133 1.976 . S
O148 C142 1.287 . S
O149 Fe135 1.996 . S
O149 C142 1.255 . S
C150 O143 1.287 . S
C150 O144 1.255 . S
O151 Fe133 2.002 . S
O151 C147 1.295 . S
O152 Fe135 1.997 . S
O152 C147 1.235 . S
C153 O136 1.295 . S
C153 O137 1.235 . S
Fe154 O156 1.918 . S
Fe154 O159 1.997 . S
Fe154 O160 2.002 . S
Fe154 O165 1.976 . S
Fe154 O168 1.996 . S
Fe155 O156 1.918 . S
Fe155 O163 1.997 . S
Fe155 O166 1.996 . S
Fe155 O170 1.976 . S
Fe155 O173 2.002 . S
O156 Fe154 1.918 . S
O156 Fe155 1.918 . S
O156 Fe157 1.918 . S
Fe157 O156 1.918 . S
Fe157 O158 2.002 . S
Fe157 O167 1.976 . S
Fe157 O171 1.996 . S
Fe157 O174 1.997 . S
O158 Fe157 2.002 . S
O158 C175 1.295 . S
O159 Fe154 1.997 . S
O159 C175 1.235 . S
O160 Fe154 2.002 . S
O160 C161 1.295 . S
C161 O160 1.295 . S
C161 O163 1.235 . S
C162 O167 1.287 . S
C162 O168 1.255 . S
O163 Fe155 1.997 . S
O163 C161 1.235 . S
C164 O170 1.287 . S
C164 O171 1.255 . S
O165 Fe154 1.976 . S
O165 C172 1.287 . S
O166 Fe155 1.996 . S
O166 C172 1.255 . S
O167 Fe157 1.976 . S
O167 C162 1.287 . S
O168 Fe154 1.996 . S
O168 C162 1.255 . S
C169 O173 1.295 . S
C169 O174 1.235 . S
O170 Fe155 1.976 . S
O170 C164 1.287 . S
O171 Fe157 1.996 . S
O171 C164 1.255 . S
C172 O165 1.287 . S
C172 O166 1.255 . S
O173 Fe155 2.002 . S
O173 C169 1.295 . S
O174 Fe157 1.997 . S
O174 C169 1.235 . S
C175 O158 1.295 . S
C175 O159 1.235 . S
Fe176 O178 1.918 . S
Fe176 O181 1.997 . S
Fe176 O182 2.002 . S
Fe176 O187 1.976 . S
Fe176 O190 1.996 . S
Fe177 O178 1.918 . S
Fe177 O185 1.997 . S
Fe177 O188 1.996 . S
Fe177 O192 1.976 . S
Fe177 O195 2.002 . S
O178 Fe176 1.918 . S
O178 Fe177 1.918 . S
O178 Fe179 1.918 . S
Fe179 O178 1.918 . S
Fe179 O180 2.002 . S
Fe179 O189 1.976 . S
Fe179 O193 1.996 . S
Fe179 O196 1.997 . S
O180 Fe179 2.002 . S
O180 C197 1.295 1_554 S
O181 Fe176 1.997 . S
O181 C197 1.235 1_554 S
O182 Fe176 2.002 . S
O182 C183 1.295 . S
C183 O182 1.295 . S
C183 O185 1.235 . S
C184 O189 1.287 . S
C184 O190 1.255 . S
O185 Fe177 1.997 . S
O185 C183 1.235 . S
C186 O192 1.287 . S
C186 O193 1.255 . S
O187 Fe176 1.976 . S
O187 C194 1.287 . S
O188 Fe177 1.996 . S
O188 C194 1.255 . S
O189 Fe179 1.976 . S
O189 C184 1.287 . S
O190 Fe176 1.996 . S
O190 C184 1.255 . S
C191 O195 1.295 . S
C191 O196 1.235 . S
O192 Fe177 1.976 . S
O192 C186 1.287 . S
O193 Fe179 1.996 . S
O193 C186 1.255 . S
C194 O187 1.287 . S
C194 O188 1.255 . S
O195 Fe177 2.002 . S
O195 C191 1.295 . S
O196 Fe179 1.997 . S
O196 C191 1.235 . S
C197 O180 1.295 1_556 S
C197 O181 1.235 1_556 S
Fe198 O200 1.918 . S
Fe198 O203 1.997 . S
Fe198 O204 2.002 . S
Fe198 O209 1.976 . S
Fe198 O212 1.996 . S
Fe199 O200 1.918 . S
Fe199 O207 1.997 . S
Fe199 O210 1.996 . S
Fe199 O214 1.976 . S
Fe199 O217 2.002 . S
O200 Fe198 1.918 . S
O200 Fe199 1.918 . S
O200 Fe201 1.918 . S
Fe201 O200 1.918 . S
Fe201 O202 2.002 . S
Fe201 O211 1.976 . S
Fe201 O215 1.996 . S
Fe201 O218 1.997 . S
O202 Fe201 2.002 . S
O202 C219 1.295 . S
O203 Fe198 1.997 . S
O203 C219 1.235 . S
O204 Fe198 2.002 . S
O204 C205 1.295 . S
C205 O204 1.295 . S
C205 O207 1.235 . S
C206 O211 1.287 . S
C206 O212 1.255 . S
O207 Fe199 1.997 . S
O207 C205 1.235 . S
C208 O214 1.287 . S
C208 O215 1.255 . S
O209 Fe198 1.976 . S
O209 C216 1.287 . S
O210 Fe199 1.996 . S
O210 C216 1.255 . S
O211 Fe201 1.976 . S
O211 C206 1.287 . S
O212 Fe198 1.996 . S
O212 C206 1.255 . S
C213 O217 1.295 1_554 S
C213 O218 1.235 1_554 S
O214 Fe199 1.976 . S
O214 C208 1.287 . S
O215 Fe201 1.996 . S
O215 C208 1.255 . S
C216 O209 1.287 . S
C216 O210 1.255 . S
O217 Fe199 2.002 . S
O217 C213 1.295 1_556 S
O218 Fe201 1.997 . S
O218 C213 1.235 1_556 S
C219 O202 1.295 . S
C219 O203 1.235 . S
Fe220 O222 1.918 . S
Fe220 O225 1.997 . S
Fe220 O226 2.002 . S
Fe220 O231 1.976 . S
Fe220 O234 1.996 . S
Fe221 O222 1.918 . S
Fe221 O229 1.997 . S
Fe221 O232 1.996 . S
Fe221 O236 1.976 . S
Fe221 O239 2.002 . S
O222 Fe220 1.918 . S
O222 Fe221 1.918 . S
O222 Fe223 1.918 . S
Fe223 O222 1.918 . S
Fe223 O224 2.002 . S
Fe223 O233 1.976 . S
Fe223 O237 1.996 . S
Fe223 O240 1.997 . S
O224 Fe223 2.002 . S
O224 C241 1.295 . S
O225 Fe220 1.997 . S
O225 C241 1.235 . S
O226 Fe220 2.002 . S
O226 C227 1.295 . S
C227 O226 1.295 . S
C227 O229 1.235 . S
C228 O233 1.287 . S
C228 O234 1.255 . S
O229 Fe221 1.997 . S
O229 C227 1.235 . S
C230 O236 1.287 . S
C230 O237 1.255 . S
O231 Fe220 1.976 . S
O231 C238 1.287 . S
O232 Fe221 1.996 . S
O232 C238 1.255 . S
O233 Fe223 1.976 . S
O233 C228 1.287 . S
O234 Fe220 1.996 . S
O234 C228 1.255 . S
C235 O239 1.295 . S
C235 O240 1.235 . S
O236 Fe221 1.976 . S
O236 C230 1.287 . S
O237 Fe223 1.996 . S
O237 C230 1.255 . S
C238 O231 1.287 . S
C238 O232 1.255 . S
O239 Fe221 2.002 . S
O239 C235 1.295 . S
O240 Fe223 1.997 . S
O240 C235 1.235 . S
C241 O224 1.295 . S
C241 O225 1.235 . S
Fe242 O244 1.918 . S
Fe242 O247 1.997 . S
Fe242 O248 2.002 . S
Fe242 O253 1.976 . S
Fe242 O256 1.996 . S
Fe243 O244 1.918 . S
Fe243 O251 1.997 . S
Fe243 O254 1.996 . S
Fe243 O258 1.976 . S
Fe243 O261 2.002 . S
O244 Fe242 1.918 . S
O244 Fe243 1.918 . S
O244 Fe245 1.918 . S
Fe245 O244 1.918 . S
Fe245 O246 2.002 . S
Fe245 O255 1.976 . S
Fe245 O259 1.996 . S
Fe245 O262 1.997 . S
O246 Fe245 2.002 . S
O246 C263 1.295 . S
O247 Fe242 1.997 . S
O247 C263 1.235 . S
O248 Fe242 2.002 . S
O248 C249 1.295 . S
C249 O248 1.295 . S
C249 O251 1.235 . S
C250 O255 1.287 . S
C250 O256 1.255 . S
O251 Fe243 1.997 . S
O251 C249 1.235 . S
C252 O258 1.287 . S
C252 O259 1.255 . S
O253 Fe242 1.976 . S
O253 C260 1.287 . S
O254 Fe243 1.996 . S
O254 C260 1.255 . S
O255 Fe245 1.976 . S
O255 C250 1.287 . S
O256 Fe242 1.996 . S
O256 C250 1.255 . S
C257 O261 1.295 . S
C257 O262 1.235 . S
O258 Fe243 1.976 . S
O258 C252 1.287 . S
O259 Fe245 1.996 . S
O259 C252 1.255 . S
C260 O253 1.287 . S
C260 O254 1.255 . S
O261 Fe243 2.002 . S
O261 C257 1.295 . S
O262 Fe245 1.997 . S
O262 C257 1.235 . S
C263 O246 1.295 . S
C263 O247 1.235 . S
Fe264 O266 1.918 . S
Fe264 O269 1.997 . S
Fe264 O270 2.002 . S
Fe264 O275 1.976 . S
Fe264 O278 1.996 . S
Fe265 O266 1.918 . S
Fe265 O273 1.997 . S
Fe265 O276 1.996 . S
Fe265 O280 1.976 . S
Fe265 O283 2.002 . S
O266 Fe264 1.918 . S
O266 Fe265 1.918 . S
O266 Fe267 1.918 . S
Fe267 O266 1.918 . S
Fe267 O268 2.002 . S
Fe267 O277 1.976 . S
Fe267 O281 1.996 . S
Fe267 O284 1.997 . S
O268 Fe267 2.002 . S
O268 C285 1.295 . S
O269 Fe264 1.997 . S
O269 C285 1.235 . S
O270 Fe264 2.002 . S
O270 C271 1.295 . S
C271 O270 1.295 . S
C271 O273 1.235 . S
C272 O277 1.287 . S
C272 O278 1.255 . S
O273 Fe265 1.997 . S
O273 C271 1.235 . S
C274 O280 1.287 . S
C274 O281 1.255 . S
O275 Fe264 1.976 . S
O275 C282 1.287 . S
O276 Fe265 1.996 . S
O276 C282 1.255 . S
O277 Fe267 1.976 . S
O277 C272 1.287 . S
O278 Fe264 1.996 . S
O278 C272 1.255 . S
C279 O283 1.295 1_455 S
C279 O284 1.235 1_455 S
O280 Fe265 1.976 . S
O280 C274 1.287 . S
O281 Fe267 1.996 . S
O281 C274 1.255 . S
C282 O275 1.287 . S
C282 O276 1.255 . S
O283 Fe265 2.002 . S
O283 C279 1.295 1_655 S
O284 Fe267 1.997 . S
O284 C279 1.235 1_655 S
C285 O268 1.295 . S
C285 O269 1.235 . S
Fe286 O288 1.918 . S
Fe286 O291 1.997 . S
Fe286 O292 2.002 . S
Fe286 O297 1.976 . S
Fe286 O300 1.996 . S
Fe287 O288 1.918 . S
Fe287 O295 1.997 . S
Fe287 O298 1.996 . S
Fe287 O302 1.976 . S
Fe287 O305 2.002 . S
O288 Fe286 1.918 . S
O288 Fe287 1.918 . S
O288 Fe289 1.918 . S
Fe289 O288 1.918 . S
Fe289 O290 2.002 . S
Fe289 O299 1.976 . S
Fe289 O303 1.996 . S
Fe289 O306 1.997 . S
O290 Fe289 2.002 . S
O290 C307 1.295 . S
O291 Fe286 1.997 . S
O291 C307 1.235 . S
O292 Fe286 2.002 . S
O292 C293 1.295 . S
C293 O292 1.295 . S
C293 O295 1.235 . S
C294 O299 1.287 . S
C294 O300 1.255 . S
O295 Fe287 1.997 . S
O295 C293 1.235 . S
C296 O302 1.287 . S
C296 O303 1.255 . S
O297 Fe286 1.976 . S
O297 C304 1.287 . S
O298 Fe287 1.996 . S
O298 C304 1.255 . S
O299 Fe289 1.976 . S
O299 C294 1.287 . S
O300 Fe286 1.996 . S
O300 C294 1.255 . S
C301 O305 1.295 . S
C301 O306 1.235 . S
O302 Fe287 1.976 . S
O302 C296 1.287 . S
O303 Fe289 1.996 . S
O303 C296 1.255 . S
C304 O297 1.287 . S
C304 O298 1.255 . S
O305 Fe287 2.002 . S
O305 C301 1.295 . S
O306 Fe289 1.997 . S
O306 C301 1.235 . S
C307 O290 1.295 . S
C307 O291 1.235 . S
Fe308 O310 1.918 . S
Fe308 O313 1.997 . S
Fe308 O314 2.002 . S
Fe308 O319 1.976 . S
Fe308 O322 1.996 . S
Fe309 O310 1.918 . S
Fe309 O317 1.997 . S
Fe309 O320 1.996 . S
Fe309 O324 1.976 . S
Fe309 O327 2.002 . S
O310 Fe308 1.918 . S
O310 Fe309 1.918 . S
O310 Fe311 1.918 . S
Fe311 O310 1.918 . S
Fe311 O312 2.002 . S
Fe311 O321 1.976 . S
Fe311 O325 1.996 . S
Fe311 O328 1.997 . S
O312 Fe311 2.002 . S
O312 C329 1.295 . S
O313 Fe308 1.997 . S
O313 C329 1.235 . S
O314 Fe308 2.002 . S
O314 C315 1.295 . S
C315 O314 1.295 . S
C315 O317 1.235 . S
C316 O321 1.287 . S
C316 O322 1.255 . S
O317 Fe309 1.997 . S
O317 C315 1.235 . S
C318 O324 1.287 . S
C318 O325 1.255 . S
O319 Fe308 1.976 . S
O319 C326 1.287 . S
O320 Fe309 1.996 . S
O320 C326 1.255 . S
O321 Fe311 1.976 . S
O321 C316 1.287 . S
O322 Fe308 1.996 . S
O322 C316 1.255 . S
C323 O327 1.295 . S
C323 O328 1.235 . S
O324 Fe309 1.976 . S
O324 C318 1.287 . S
O325 Fe311 1.996 . S
O325 C318 1.255 . S
C326 O319 1.287 . S
C326 O320 1.255 . S
O327 Fe309 2.002 . S
O327 C323 1.295 . S
O328 Fe311 1.997 . S
O328 C323 1.235 . S
C329 O312 1.295 . S
C329 O313 1.235 . S
Fe330 O332 1.918 . S
Fe330 O335 1.997 . S
Fe330 O336 2.002 . S
Fe330 O341 1.976 . S
Fe330 O344 1.996 . S
Fe331 O332 1.918 . S
Fe331 O339 1.997 . S
Fe331 O342 1.996 . S
Fe331 O346 1.976 . S
Fe331 O349 2.002 . S
O332 Fe330 1.918 . S
O332 Fe331 1.918 . S
O332 Fe333 1.918 . S
Fe333 O332 1.918 . S
Fe333 O334 2.002 . S
Fe333 O343 1.976 . S
Fe333 O347 1.996 . S
Fe333 O350 1.997 . S
O334 Fe333 2.002 . S
O334 C351 1.295 . S
O335 Fe330 1.997 . S
O335 C351 1.235 . S
O336 Fe330 2.002 . S
O336 C337 1.295 . S
C337 O336 1.295 . S
C337 O339 1.235 . S
C338 O343 1.287 . S
C338 O344 1.255 . S
O339 Fe331 1.997 . S
O339 C337 1.235 . S
C340 O346 1.287 . S
C340 O347 1.255 . S
O341 Fe330 1.976 . S
O341 C348 1.287 . S
O342 Fe331 1.996 . S
O342 C348 1.255 . S
O343 Fe333 1.976 . S
O343 C338 1.287 . S
O344 Fe330 1.996 . S
O344 C338 1.255 . S
C345 O349 1.295 1_655 S
C345 O350 1.235 1_655 S
O346 Fe331 1.976 . S
O346 C340 1.287 . S
O347 Fe333 1.996 . S
O347 C340 1.255 . S
C348 O341 1.287 . S
C348 O342 1.255 . S
O349 Fe331 2.002 . S
O349 C345 1.295 1_455 S
O350 Fe333 1.997 . S
O350 C345 1.235 1_455 S
C351 O334 1.295 . S
C351 O335 1.235 . S
Fe352 O354 1.918 . S
Fe352 O357 1.997 . S
Fe352 O358 2.002 . S
Fe352 O363 1.976 . S
Fe352 O366 1.996 . S
Fe353 O354 1.918 . S
Fe353 O361 1.997 . S
Fe353 O364 1.996 . S
Fe353 O368 1.976 . S
Fe353 O371 2.002 . S
O354 Fe352 1.918 . S
O354 Fe353 1.918 . S
O354 Fe355 1.918 . S
Fe355 O354 1.918 . S
Fe355 O356 2.002 . S
Fe355 O365 1.976 . S
Fe355 O369 1.996 . S
Fe355 O372 1.997 . S
O356 Fe355 2.002 . S
O356 C373 1.295 . S
O357 Fe352 1.997 . S
O357 C373 1.235 . S
O358 Fe352 2.002 . S
O358 C359 1.295 . S
C359 O358 1.295 . S
C359 O361 1.235 . S
C360 O365 1.287 . S
C360 O366 1.255 . S
O361 Fe353 1.997 . S
O361 C359 1.235 . S
C362 O368 1.287 . S
C362 O369 1.255 . S
O363 Fe352 1.976 . S
O363 C370 1.287 . S
O364 Fe353 1.996 . S
O364 C370 1.255 . S
O365 Fe355 1.976 . S
O365 C360 1.287 . S
O366 Fe352 1.996 . S
O366 C360 1.255 . S
C367 O371 1.295 1_545 S
C367 O372 1.235 1_545 S
O368 Fe353 1.976 . S
O368 C362 1.287 . S
O369 Fe355 1.996 . S
O369 C362 1.255 . S
C370 O363 1.287 . S
C370 O364 1.255 . S
O371 Fe353 2.002 . S
O371 C367 1.295 1_565 S
O372 Fe355 1.997 . S
O372 C367 1.235 1_565 S
C373 O356 1.295 . S
C373 O357 1.235 . S
Fe374 O376 1.918 . S
Fe374 O379 1.997 . S
Fe374 O380 2.002 . S
Fe374 O385 1.976 . S
Fe374 O388 1.996 . S
Fe375 O376 1.918 . S
Fe375 O383 1.997 . S
Fe375 O386 1.996 . S
Fe375 O390 1.976 . S
Fe375 O393 2.002 . S
O376 Fe374 1.918 . S
O376 Fe375 1.918 . S
O376 Fe377 1.918 . S
Fe377 O376 1.918 . S
Fe377 O378 2.002 . S
Fe377 O387 1.976 . S
Fe377 O391 1.996 . S
Fe377 O394 1.997 . S
O378 Fe377 2.002 . S
O378 C395 1.295 . S
O379 Fe374 1.997 . S
O379 C395 1.235 . S
O380 Fe374 2.002 . S
O380 C381 1.295 . S
C381 O380 1.295 . S
C381 O383 1.235 . S
C382 O387 1.287 . S
C382 O388 1.255 . S
O383 Fe375 1.997 . S
O383 C381 1.235 . S
C384 O390 1.287 . S
C384 O391 1.255 . S
O385 Fe374 1.976 . S
O385 C392 1.287 . S
O386 Fe375 1.996 . S
O386 C392 1.255 . S
O387 Fe377 1.976 . S
O387 C382 1.287 . S
O388 Fe374 1.996 . S
O388 C382 1.255 . S
C389 O393 1.295 1_565 S
C389 O394 1.235 1_565 S
O390 Fe375 1.976 . S
O390 C384 1.287 . S
O391 Fe377 1.996 . S
O391 C384 1.255 . S
C392 O385 1.287 . S
C392 O386 1.255 . S
O393 Fe375 2.002 . S
O393 C389 1.295 1_545 S
O394 Fe377 1.997 . S
O394 C389 1.235 1_545 S
C395 O378 1.295 . S
C395 O379 1.235 . S
Fe396 O398 1.918 . S
Fe396 O401 1.997 . S
Fe396 O402 2.002 . S
Fe396 O407 1.976 . S
Fe396 O410 1.996 . S
Fe397 O398 1.918 . S
Fe397 O405 1.997 . S
Fe397 O408 1.996 . S
Fe397 O412 1.976 . S
Fe397 O415 2.002 . S
O398 Fe396 1.918 . S
O398 Fe397 1.918 . S
O398 Fe399 1.918 . S
Fe399 O398 1.918 . S
Fe399 O400 2.002 . S
Fe399 O409 1.976 . S
Fe399 O413 1.996 . S
Fe399 O416 1.997 . S
O400 Fe399 2.002 . S
O400 C417 1.295 . S
O401 Fe396 1.997 . S
O401 C417 1.235 . S
O402 Fe396 2.002 . S
O402 C403 1.295 . S
C403 O402 1.295 . S
C403 O405 1.235 . S
C404 O409 1.287 . S
C404 O410 1.255 . S
O405 Fe397 1.997 . S
O405 C403 1.235 . S
C406 O412 1.287 . S
C406 O413 1.255 . S
O407 Fe396 1.976 . S
O407 C414 1.287 . S
O408 Fe397 1.996 . S
O408 C414 1.255 . S
O409 Fe399 1.976 . S
O409 C404 1.287 . S
O410 Fe396 1.996 . S
O410 C404 1.255 . S
C411 O415 1.295 . S
C411 O416 1.235 . S
O412 Fe397 1.976 . S
O412 C406 1.287 . S
O413 Fe399 1.996 . S
O413 C406 1.255 . S
C414 O407 1.287 . S
C414 O408 1.255 . S
O415 Fe397 2.002 . S
O415 C411 1.295 . S
O416 Fe399 1.997 . S
O416 C411 1.235 . S
C417 O400 1.295 . S
C417 O401 1.235 . S
Fe418 O420 1.918 . S
Fe418 O423 1.997 . S
Fe418 O424 2.002 . S
Fe418 O429 1.976 . S
Fe418 O432 1.996 . S
Fe419 O420 1.918 . S
Fe419 O427 1.997 . S
Fe419 O430 1.996 . S
Fe419 O434 1.976 . S
Fe419 O437 2.002 . S
O420 Fe418 1.918 . S
O420 Fe419 1.918 . S
O420 Fe421 1.918 . S
Fe421 O420 1.918 . S
Fe421 O422 2.002 . S
Fe421 O431 1.976 . S
Fe421 O435 1.996 . S
Fe421 O438 1.997 . S
O422 Fe421 2.002 . S
O422 C439 1.295 . S
O423 Fe418 1.997 . S
O423 C439 1.235 . S
O424 Fe418 2.002 . S
O424 C425 1.295 . S
C425 O424 1.295 . S
C425 O427 1.235 . S
C426 O431 1.287 . S
C426 O432 1.255 . S
O427 Fe419 1.997 . S
O427 C425 1.235 . S
C428 O434 1.287 . S
C428 O435 1.255 . S
O429 Fe418 1.976 . S
O429 C436 1.287 . S
O430 Fe419 1.996 . S
O430 C436 1.255 . S
O431 Fe421 1.976 . S
O431 C426 1.287 . S
O432 Fe418 1.996 . S
O432 C426 1.255 . S
C433 O437 1.295 . S
C433 O438 1.235 . S
O434 Fe419 1.976 . S
O434 C428 1.287 . S
O435 Fe421 1.996 . S
O435 C428 1.255 . S
C436 O429 1.287 . S
C436 O430 1.255 . S
O437 Fe419 2.002 . S
O437 C433 1.295 . S
O438 Fe421 1.997 . S
O438 C433 1.235 . S
C439 O422 1.295 . S
C439 O423 1.235 . S
Fe440 O442 1.918 . S
Fe440 O445 1.997 . S
Fe440 O446 2.002 . S
Fe440 O451 1.976 . S
Fe440 O454 1.996 . S
Fe441 O442 1.918 . S
Fe441 O449 1.997 . S
Fe441 O452 1.996 . S
Fe441 O456 1.976 . S
Fe441 O459 2.002 . S
O442 Fe440 1.918 . S
O442 Fe441 1.918 . S
O442 Fe443 1.918 . S
Fe443 O442 1.918 . S
Fe443 O444 2.002 . S
Fe443 O453 1.976 . S
Fe443 O457 1.996 . S
Fe443 O460 1.997 . S
O444 Fe443 2.002 . S
O444 C461 1.295 . S
O445 Fe440 1.997 . S
O445 C461 1.235 . S
O446 Fe440 2.002 . S
O446 C447 1.295 . S
C447 O446 1.295 . S
C447 O449 1.235 . S
C448 O453 1.287 . S
C448 O454 1.255 . S
O449 Fe441 1.997 . S
O449 C447 1.235 . S
C450 O456 1.287 . S
C450 O457 1.255 . S
O451 Fe440 1.976 . S
O451 C458 1.287 . S
O452 Fe441 1.996 . S
O452 C458 1.255 . S
O453 Fe443 1.976 . S
O453 C448 1.287 . S
O454 Fe440 1.996 . S
O454 C448 1.255 . S
C455 O459 1.295 1_554 S
C455 O460 1.235 1_554 S
O456 Fe441 1.976 . S
O456 C450 1.287 . S
O457 Fe443 1.996 . S
O457 C450 1.255 . S
C458 O451 1.287 . S
C458 O452 1.255 . S
O459 Fe441 2.002 . S
O459 C455 1.295 1_556 S
O460 Fe443 1.997 . S
O460 C455 1.235 1_556 S
C461 O444 1.295 . S
C461 O445 1.235 . S
Fe462 O464 1.918 . S
Fe462 O467 1.997 . S
Fe462 O468 2.002 . S
Fe462 O473 1.976 . S
Fe462 O476 1.996 . S
Fe463 O464 1.918 . S
Fe463 O471 1.997 . S
Fe463 O474 1.996 . S
Fe463 O478 1.976 . S
Fe463 O481 2.002 . S
O464 Fe462 1.918 . S
O464 Fe463 1.918 . S
O464 Fe465 1.918 . S
Fe465 O464 1.918 . S
Fe465 O466 2.002 . S
Fe465 O475 1.976 . S
Fe465 O479 1.996 . S
Fe465 O482 1.997 . S
O466 Fe465 2.002 . S
O466 C483 1.295 . S
O467 Fe462 1.997 . S
O467 C483 1.235 . S
O468 Fe462 2.002 . S
O468 C469 1.295 . S
C469 O468 1.295 . S
C469 O471 1.235 . S
C470 O475 1.287 . S
C470 O476 1.255 . S
O471 Fe463 1.997 . S
O471 C469 1.235 . S
C472 O478 1.287 . S
C472 O479 1.255 . S
O473 Fe462 1.976 . S
O473 C480 1.287 . S
O474 Fe463 1.996 . S
O474 C480 1.255 . S
O475 Fe465 1.976 . S
O475 C470 1.287 . S
O476 Fe462 1.996 . S
O476 C470 1.255 . S
C477 O481 1.295 1_556 S
C477 O482 1.235 1_556 S
O478 Fe463 1.976 . S
O478 C472 1.287 . S
O479 Fe465 1.996 . S
O479 C472 1.255 . S
C480 O473 1.287 . S
C480 O474 1.255 . S
O481 Fe463 2.002 . S
O481 C477 1.295 1_554 S
O482 Fe465 1.997 . S
O482 C477 1.235 1_554 S
C483 O466 1.295 . S
C483 O467 1.235 . S
Fe484 O486 1.918 . S
Fe484 O489 1.997 . S
Fe484 O490 2.002 . S
Fe484 O495 1.976 . S
Fe484 O498 1.996 . S
Fe485 O486 1.918 . S
Fe485 O493 1.997 . S
Fe485 O496 1.996 . S
Fe485 O500 1.976 . S
Fe485 O503 2.002 . S
O486 Fe484 1.918 . S
O486 Fe485 1.918 . S
O486 Fe487 1.918 . S
Fe487 O486 1.918 . S
Fe487 O488 2.002 . S
Fe487 O497 1.976 . S
Fe487 O501 1.996 . S
Fe487 O504 1.997 . S
O488 Fe487 2.002 . S
O488 C505 1.295 . S
O489 Fe484 1.997 . S
O489 C505 1.235 . S
O490 Fe484 2.002 . S
O490 C491 1.295 . S
C491 O490 1.295 . S
C491 O493 1.235 . S
C492 O497 1.287 . S
C492 O498 1.255 . S
O493 Fe485 1.997 . S
O493 C491 1.235 . S
C494 O500 1.287 . S
C494 O501 1.255 . S
O495 Fe484 1.976 . S
O495 C502 1.287 . S
O496 Fe485 1.996 . S
O496 C502 1.255 . S
O497 Fe487 1.976 . S
O497 C492 1.287 . S
O498 Fe484 1.996 . S
O498 C492 1.255 . S
C499 O503 1.295 . S
C499 O504 1.235 . S
O500 Fe485 1.976 . S
O500 C494 1.287 . S
O501 Fe487 1.996 . S
O501 C494 1.255 . S
C502 O495 1.287 . S
C502 O496 1.255 . S
O503 Fe485 2.002 . S
O503 C499 1.295 . S
O504 Fe487 1.997 . S
O504 C499 1.235 . S
C505 O488 1.295 . S
C505 O489 1.235 . S
Fe506 O508 1.918 . S
Fe506 O511 1.997 . S
Fe506 O512 2.002 . S
Fe506 O517 1.976 . S
Fe506 O520 1.996 . S
Fe507 O508 1.918 . S
Fe507 O515 1.997 . S
Fe507 O518 1.996 . S
Fe507 O522 1.976 . S
Fe507 O525 2.002 . S
O508 Fe506 1.918 . S
O508 Fe507 1.918 . S
O508 Fe509 1.918 . S
Fe509 O508 1.918 . S
Fe509 O510 2.002 . S
Fe509 O519 1.976 . S
Fe509 O523 1.996 . S
Fe509 O526 1.997 . S
O510 Fe509 2.002 . S
O510 C527 1.295 . S
O511 Fe506 1.997 . S
O511 C527 1.235 . S
O512 Fe506 2.002 . S
O512 C513 1.295 . S
C513 O512 1.295 . S
C513 O515 1.235 . S
C514 O519 1.287 . S
C514 O520 1.255 . S
O515 Fe507 1.997 . S
O515 C513 1.235 . S
C516 O522 1.287 . S
C516 O523 1.255 . S
O517 Fe506 1.976 . S
O517 C524 1.287 . S
O518 Fe507 1.996 . S
O518 C524 1.255 . S
O519 Fe509 1.976 . S
O519 C514 1.287 . S
O520 Fe506 1.996 . S
O520 C514 1.255 . S
C521 O525 1.295 . S
C521 O526 1.235 . S
O522 Fe507 1.976 . S
O522 C516 1.287 . S
O523 Fe509 1.996 . S
O523 C516 1.255 . S
C524 O517 1.287 . S
C524 O518 1.255 . S
O525 Fe507 2.002 . S
O525 C521 1.295 . S
O526 Fe509 1.997 . S
O526 C521 1.235 . S
C527 O510 1.295 . S
C527 O511 1.235 . S
H528 C534 0.930 . S
H529 C537 0.930 . S
H530 C538 0.930 . S
H531 C539 0.930 . S
H532 C542 0.930 . S
H533 C543 0.930 . S
C534 H528 0.930 . S
C534 C535 1.355 . S
C534 C536 1.415 . S
C535 C534 1.355 . S
C535 C537 1.419 . S
C536 C534 1.415 . S
C536 C541 1.425 . S
C536 C543 1.409 . S
C537 H529 0.930 . S
C537 C535 1.419 . S
C537 C538 1.362 . S
C538 H530 0.930 . S
C538 C537 1.362 . S
C538 C541 1.409 . S
C539 H531 0.930 . S
C539 C540 1.355 . S
C539 C541 1.415 . S
C540 C539 1.355 . S
C540 C542 1.419 . S
C541 C536 1.425 . S
C541 C538 1.409 . S
C541 C539 1.415 . S
C542 H532 0.930 . S
C542 C540 1.419 . S
C542 C543 1.362 . S
C543 H533 0.930 . S
C543 C536 1.409 . S
C543 C542 1.362 . S
H544 C550 0.930 . S
H545 C553 0.930 . S
H546 C554 0.930 . S
H547 C555 0.930 . S
H548 C558 0.930 . S
H549 C559 0.930 . S
C550 H544 0.930 . S
C550 C551 1.355 . S
C550 C552 1.415 . S
C551 C550 1.355 . S
C551 C553 1.419 . S
C552 C550 1.415 . S
C552 C557 1.425 . S
C552 C559 1.409 . S
C553 H545 0.930 . S
C553 C551 1.419 . S
C553 C554 1.362 . S
C554 H546 0.930 . S
C554 C553 1.362 . S
C554 C557 1.409 . S
C555 H547 0.930 . S
C555 C556 1.355 . S
C555 C557 1.415 . S
C556 C555 1.355 . S
C556 C558 1.419 . S
C557 C552 1.425 . S
C557 C554 1.409 . S
C557 C555 1.415 . S
C558 H548 0.930 . S
C558 C556 1.419 . S
C558 C559 1.362 . S
C559 H549 0.930 . S
C559 C552 1.409 . S
C559 C558 1.362 . S
H560 C566 0.930 . S
H561 C569 0.930 . S
H562 C570 0.930 . S
H563 C571 0.930 . S
H564 C574 0.930 . S
H565 C575 0.930 . S
C566 H560 0.930 . S
C566 C567 1.355 . S
C566 C568 1.415 . S
C567 C566 1.355 . S
C567 C569 1.419 . S
C568 C566 1.415 . S
C568 C573 1.425 . S
C568 C575 1.409 . S
C569 H561 0.930 . S
C569 C567 1.419 . S
C569 C570 1.362 . S
C570 H562 0.930 . S
C570 C569 1.362 . S
C570 C573 1.409 . S
C571 H563 0.930 . S
C571 C572 1.355 . S
C571 C573 1.415 . S
C572 C571 1.355 . S
C572 C574 1.419 . S
C573 C568 1.425 . S
C573 C570 1.409 . S
C573 C571 1.415 . S
C574 H564 0.930 . S
C574 C572 1.419 . S
C574 C575 1.362 . S
C575 H565 0.930 . S
C575 C568 1.409 . S
C575 C574 1.362 . S
H576 C582 0.930 . S
H577 C585 0.930 . S
H578 C586 0.930 . S
H579 C587 0.930 . S
H580 C590 0.930 . S
H581 C591 0.930 . S
C582 H576 0.930 . S
C582 C583 1.355 . S
C582 C584 1.415 . S
C583 C582 1.355 . S
C583 C585 1.419 . S
C584 C582 1.415 . S
C584 C589 1.425 . S
C584 C591 1.409 . S
C585 H577 0.930 . S
C585 C583 1.419 . S
C585 C586 1.362 . S
C586 H578 0.930 . S
C586 C585 1.362 . S
C586 C589 1.409 . S
C587 H579 0.930 . S
C587 C588 1.355 . S
C587 C589 1.415 . S
C588 C587 1.355 . S
C588 C590 1.419 . S
C589 C584 1.425 . S
C589 C586 1.409 . S
C589 C587 1.415 . S
C590 H580 0.930 . S
C590 C588 1.419 . S
C590 C591 1.362 . S
C591 H581 0.930 . S
C591 C584 1.409 . S
C591 C590 1.362 . S
H592 C598 0.930 . S
H593 C601 0.930 . S
H594 C602 0.930 . S
H595 C603 0.930 . S
H596 C606 0.930 . S
H597 C607 0.930 . S
C598 H592 0.930 . S
C598 C599 1.355 . S
C598 C600 1.415 . S
C599 C598 1.355 . S
C599 C601 1.419 . S
C600 C598 1.415 . S
C600 C605 1.425 . S
C600 C607 1.409 . S
C601 H593 0.930 . S
C601 C599 1.419 . S
C601 C602 1.362 . S
C602 H594 0.930 . S
C602 C601 1.362 . S
C602 C605 1.409 . S
C603 H595 0.930 . S
C603 C604 1.355 . S
C603 C605 1.415 . S
C604 C603 1.355 . S
C604 C606 1.419 . S
C605 C600 1.425 . S
C605 C602 1.409 . S
C605 C603 1.415 . S
C606 H596 0.930 . S
C606 C604 1.419 . S
C606 C607 1.362 . S
C607 H597 0.930 . S
C607 C600 1.409 . S
C607 C606 1.362 . S
H608 C614 0.930 . S
H609 C617 0.930 . S
H610 C618 0.930 . S
H611 C619 0.930 . S
H612 C622 0.930 . S
H613 C623 0.930 . S
C614 H608 0.930 . S
C614 C615 1.355 . S
C614 C616 1.415 . S
C615 C614 1.355 . S
C615 C617 1.419 . S
C616 C614 1.415 . S
C616 C621 1.425 . S
C616 C623 1.409 . S
C617 H609 0.930 . S
C617 C615 1.419 . S
C617 C618 1.362 . S
C618 H610 0.930 . S
C618 C617 1.362 . S
C618 C621 1.409 . S
C619 H611 0.930 . S
C619 C620 1.355 . S
C619 C621 1.415 . S
C620 C619 1.355 . S
C620 C622 1.419 . S
C621 C616 1.425 . S
C621 C618 1.409 . S
C621 C619 1.415 . S
C622 H612 0.930 . S
C622 C620 1.419 . S
C622 C623 1.362 . S
C623 H613 0.930 . S
C623 C616 1.409 . S
C623 C622 1.362 . S
H624 C630 0.930 . S
H625 C633 0.930 . S
H626 C634 0.930 . S
H627 C635 0.930 . S
H628 C638 0.930 . S
H629 C639 0.930 . S
C630 H624 0.930 . S
C630 C631 1.355 . S
C630 C632 1.415 . S
C631 C630 1.355 . S
C631 C633 1.419 . S
C632 C630 1.415 . S
C632 C637 1.425 . S
C632 C639 1.409 . S
C633 H625 0.930 . S
C633 C631 1.419 . S
C633 C634 1.362 . S
C634 H626 0.930 . S
C634 C633 1.362 . S
C634 C637 1.409 . S
C635 H627 0.930 . S
C635 C636 1.355 . S
C635 C637 1.415 . S
C636 C635 1.355 . S
C636 C638 1.419 . S
C637 C632 1.425 . S
C637 C634 1.409 . S
C637 C635 1.415 . S
C638 H628 0.930 . S
C638 C636 1.419 . S
C638 C639 1.362 . S
C639 H629 0.930 . S
C639 C632 1.409 . S
C639 C638 1.362 . S
H640 C646 0.930 . S
H641 C649 0.930 . S
H642 C650 0.930 . S
H643 C651 0.930 . S
H644 C654 0.953 . S
H645 C655 0.930 . S
C646 H640 0.930 . S
C646 C647 1.355 . S
C646 C648 1.415 . S
C647 C646 1.355 . S
C647 C649 1.419 . S
C648 C646 1.415 . S
C648 C653 1.425 . S
C648 C655 1.409 . S
C649 H641 0.930 . S
C649 C647 1.419 . S
C649 C650 1.362 . S
C650 H642 0.930 . S
C650 C649 1.362 . S
C650 C653 1.409 . S
C651 H643 0.930 . S
C651 C652 1.355 . S
C651 C653 1.415 . S
C652 C651 1.355 . S
C652 C654 1.419 . S
C653 C648 1.425 . S
C653 C650 1.409 . S
C653 C651 1.415 . S
C654 H644 0.953 . S
C654 C652 1.419 . S
C654 C655 1.362 . S
C655 H645 0.930 . S
C655 C648 1.409 . S
C655 C654 1.362 . S
H656 C662 0.930 . S
H657 C665 0.930 . S
H658 C666 0.930 . S
H659 C667 0.930 . S
H660 C670 0.930 . S
H661 C671 0.930 . S
C662 H656 0.930 . S
C662 C663 1.355 . S
C662 C664 1.415 . S
C663 C662 1.355 . S
C663 C665 1.419 . S
C664 C662 1.415 . S
C664 C669 1.425 . S
C664 C671 1.409 . S
C665 H657 0.930 . S
C665 C663 1.419 . S
C665 C666 1.362 . S
C666 H658 0.930 . S
C666 C665 1.362 . S
C666 C669 1.409 . S
C667 H659 0.930 . S
C667 C668 1.355 . S
C667 C669 1.415 . S
C668 C667 1.355 . S
C668 C670 1.419 . S
C669 C664 1.425 . S
C669 C666 1.409 . S
C669 C667 1.415 . S
C670 H660 0.930 . S
C670 C668 1.419 . S
C670 C671 1.362 . S
C671 H661 0.930 . S
C671 C664 1.409 . S
C671 C670 1.362 . S
H672 C678 0.930 . S
H673 C681 0.930 . S
H674 C682 0.930 . S
H675 C683 0.930 . S
H676 C686 0.930 1_455 S
H677 C687 0.930 . S
C678 H672 0.930 . S
C678 C679 1.355 . S
C678 C680 1.415 . S
C679 C678 1.355 . S
C679 C681 1.419 . S
C680 C678 1.415 . S
C680 C685 1.425 . S
C680 C687 1.409 . S
C681 H673 0.930 . S
C681 C679 1.419 . S
C681 C682 1.362 . S
C682 H674 0.930 . S
C682 C681 1.362 . S
C682 C685 1.409 . S
C683 H675 0.930 . S
C683 C684 1.355 . S
C683 C685 1.415 . S
C684 C683 1.355 . S
C684 C686 1.419 . S
C685 C680 1.425 . S
C685 C682 1.409 . S
C685 C683 1.415 . S
C686 H676 0.930 1_655 S
C686 C684 1.419 . S
C686 C687 1.362 . S
C687 H677 0.930 . S
C687 C680 1.409 . S
C687 C686 1.362 . S
H688 C694 0.930 . S
H689 C697 0.930 . S
H690 C698 0.930 . S
H691 C699 0.930 . S
H692 C702 0.930 . S
H693 C703 0.930 . S
C694 H688 0.930 . S
C694 C695 1.355 . S
C694 C696 1.415 . S
C695 C694 1.355 . S
C695 C697 1.419 . S
C696 C694 1.415 . S
C696 C701 1.425 . S
C696 C703 1.409 . S
C697 H689 0.930 . S
C697 C695 1.419 . S
C697 C698 1.362 . S
C698 H690 0.930 . S
C698 C697 1.362 . S
C698 C701 1.409 . S
C699 H691 0.930 . S
C699 C700 1.355 . S
C699 C701 1.415 . S
C700 C699 1.355 . S
C700 C702 1.419 . S
C701 C696 1.425 . S
C701 C698 1.409 . S
C701 C699 1.415 . S
C702 H692 0.930 . S
C702 C700 1.419 . S
C702 C703 1.362 . S
C703 H693 0.930 . S
C703 C696 1.409 . S
C703 C702 1.362 . S
H704 C710 0.930 . S
H705 C713 0.930 . S
H706 C714 0.930 . S
H707 C715 0.930 . S
H708 C718 0.930 1_655 S
H709 C719 0.930 . S
C710 H704 0.930 . S
C710 C711 1.355 . S
C710 C712 1.415 . S
C711 C710 1.355 . S
C711 C713 1.419 . S
C712 C710 1.415 . S
C712 C717 1.425 . S
C712 C719 1.409 . S
C713 H705 0.930 . S
C713 C711 1.419 . S
C713 C714 1.362 . S
C714 H706 0.930 . S
C714 C713 1.362 . S
C714 C717 1.409 . S
C715 H707 0.930 . S
C715 C716 1.355 . S
C715 C717 1.415 . S
C716 C715 1.355 . S
C716 C718 1.419 . S
C717 C712 1.425 . S
C717 C714 1.409 . S
C717 C715 1.415 . S
C718 H708 0.930 1_455 S
C718 C716 1.419 . S
C718 C719 1.362 . S
C719 H709 0.930 . S
C719 C712 1.409 . S
C719 C718 1.362 . S
H720 C726 0.930 . S
H721 C729 0.930 . S
H722 C730 0.930 . S
H723 C731 0.930 . S
H724 C734 0.930 . S
H725 C735 0.930 . S
C726 H720 0.930 . S
C726 C727 1.355 . S
C726 C728 1.415 . S
C727 C726 1.355 . S
C727 C729 1.419 . S
C728 C726 1.415 . S
C728 C733 1.425 . S
C728 C735 1.409 . S
C729 H721 0.930 . S
C729 C727 1.419 . S
C729 C730 1.362 . S
C730 H722 0.930 . S
C730 C729 1.362 . S
C730 C733 1.409 . S
C731 H723 0.930 . S
C731 C732 1.355 . S
C731 C733 1.415 . S
C732 C731 1.355 . S
C732 C734 1.419 . S
C733 C728 1.425 . S
C733 C730 1.409 . S
C733 C731 1.415 . S
C734 H724 0.930 . S
C734 C732 1.419 . S
C734 C735 1.362 . S
C735 H725 0.930 . S
C735 C728 1.409 . S
C735 C734 1.362 . S
H736 C742 0.930 . S
H737 C745 0.930 . S
H738 C746 0.930 . S
H739 C747 0.930 . S
H740 C750 0.930 . S
H741 C751 0.930 . S
C742 H736 0.930 . S
C742 C743 1.355 . S
C742 C744 1.415 . S
C743 C742 1.355 . S
C743 C745 1.419 . S
C744 C742 1.415 . S
C744 C749 1.425 . S
C744 C751 1.409 . S
C745 H737 0.930 . S
C745 C743 1.419 . S
C745 C746 1.362 . S
C746 H738 0.930 . S
C746 C745 1.362 . S
C746 C749 1.409 . S
C747 H739 0.930 . S
C747 C748 1.355 . S
C747 C749 1.415 . S
C748 C747 1.355 . S
C748 C750 1.419 . S
C749 C744 1.425 . S
C749 C746 1.409 . S
C749 C747 1.415 . S
C750 H740 0.930 . S
C750 C748 1.419 . S
C750 C751 1.362 . S
C751 H741 0.930 . S
C751 C744 1.409 . S
C751 C750 1.362 . S
H752 C758 0.930 . S
H753 C761 0.930 . S
H754 C762 0.930 . S
H755 C763 0.930 . S
H756 C766 0.930 1_545 S
H757 C767 0.930 . S
C758 H752 0.930 . S
C758 C759 1.355 . S
C758 C760 1.415 . S
C759 C758 1.355 . S
C759 C761 1.419 . S
C760 C758 1.415 . S
C760 C765 1.425 . S
C760 C767 1.409 . S
C761 H753 0.930 . S
C761 C759 1.419 . S
C761 C762 1.362 . S
C762 H754 0.930 . S
C762 C761 1.362 . S
C762 C765 1.409 . S
C763 H755 0.930 . S
C763 C764 1.355 . S
C763 C765 1.415 . S
C764 C763 1.355 . S
C764 C766 1.419 . S
C765 C760 1.425 . S
C765 C762 1.409 . S
C765 C763 1.415 . S
C766 H756 0.930 1_565 S
C766 C764 1.419 . S
C766 C767 1.362 . S
C767 H757 0.930 . S
C767 C760 1.409 . S
C767 C766 1.362 . S
H768 C774 0.930 . S
H769 C777 0.930 1_565 S
H770 C778 0.930 . S
H771 C779 0.930 . S
H772 C782 0.930 . S
H773 C783 0.930 . S
C774 H768 0.930 . S
C774 C775 1.355 . S
C774 C776 1.415 . S
C775 C774 1.355 . S
C775 C777 1.419 . S
C776 C774 1.415 . S
C776 C781 1.425 . S
C776 C783 1.409 . S
C777 H769 0.930 1_545 S
C777 C775 1.419 . S
C777 C778 1.362 . S
C778 H770 0.930 . S
C778 C777 1.362 . S
C778 C781 1.409 . S
C779 H771 0.930 . S
C779 C780 1.355 . S
C779 C781 1.415 . S
C780 C779 1.355 . S
C780 C782 1.419 . S
C781 C776 1.425 . S
C781 C778 1.409 . S
C781 C779 1.415 . S
C782 H772 0.930 . S
C782 C780 1.419 . S
C782 C783 1.362 . S
C783 H773 0.930 . S
C783 C776 1.409 . S
C783 C782 1.362 . S
H784 C790 0.930 . S
H785 C793 0.930 . S
H786 C794 0.930 . S
H787 C795 0.930 . S
H788 C798 0.930 . S
H789 C799 0.930 . S
C790 H784 0.930 . S
C790 C791 1.355 . S
C790 C792 1.415 . S
C791 C790 1.355 . S
C791 C793 1.419 . S
C792 C790 1.415 . S
C792 C797 1.425 . S
C792 C799 1.409 . S
C793 H785 0.930 . S
C793 C791 1.419 . S
C793 C794 1.362 . S
C794 H786 0.930 . S
C794 C793 1.362 . S
C794 C797 1.409 . S
C795 H787 0.930 . S
C795 C796 1.355 . S
C795 C797 1.415 . S
C796 C795 1.355 . S
C796 C798 1.419 . S
C797 C792 1.425 . S
C797 C794 1.409 . S
C797 C795 1.415 . S
C798 H788 0.930 . S
C798 C796 1.419 . S
C798 C799 1.362 . S
C799 H789 0.930 . S
C799 C792 1.409 . S
C799 C798 1.362 . S
H800 C806 0.930 . S
H801 C809 0.930 . S
H802 C810 0.930 . S
H803 C811 0.930 . S
H804 C814 0.930 . S
H805 C815 0.930 . S
C806 H800 0.930 . S
C806 C807 1.355 . S
C806 C808 1.415 . S
C807 C806 1.355 . S
C807 C809 1.419 . S
C808 C806 1.415 . S
C808 C813 1.425 . S
C808 C815 1.409 . S
C809 H801 0.930 . S
C809 C807 1.419 . S
C809 C810 1.362 . S
C810 H802 0.930 . S
C810 C809 1.362 . S
C810 C813 1.409 . S
C811 H803 0.930 . S
C811 C812 1.355 . S
C811 C813 1.415 . S
C812 C811 1.355 . S
C812 C814 1.419 . S
C813 C808 1.425 . S
C813 C810 1.409 . S
C813 C811 1.415 . S
C814 H804 0.930 . S
C814 C812 1.419 . S
C814 C815 1.362 . S
C815 H805 0.930 . S
C815 C808 1.409 . S
C815 C814 1.362 . S
H816 C822 0.930 . S
H817 C825 0.930 . S
H818 C826 0.930 . S
H819 C827 0.930 . S
H820 C830 0.930 . S
H821 C831 0.930 . S
C822 H816 0.930 . S
C822 C823 1.355 . S
C822 C824 1.415 . S
C823 C822 1.355 . S
C823 C825 1.419 . S
C824 C822 1.415 . S
C824 C829 1.425 . S
C824 C831 1.409 . S
C825 H817 0.930 . S
C825 C823 1.419 . S
C825 C826 1.362 . S
C826 H818 0.930 . S
C826 C825 1.362 . S
C826 C829 1.409 . S
C827 H819 0.930 . S
C827 C828 1.355 . S
C827 C829 1.415 . S
C828 C827 1.355 . S
C828 C830 1.419 . S
C829 C824 1.425 . S
C829 C826 1.409 . S
C829 C827 1.415 . S
C830 H820 0.930 . S
C830 C828 1.419 . S
C830 C831 1.362 . S
C831 H821 0.930 . S
C831 C824 1.409 . S
C831 C830 1.362 . S
H832 C838 0.930 . S
H833 C841 0.930 1_554 S
H834 C842 0.930 . S
H835 C843 0.930 . S
H836 C846 0.930 . S
H837 C847 0.930 . S
C838 H832 0.930 . S
C838 C839 1.355 . S
C838 C840 1.415 . S
C839 C838 1.355 . S
C839 C841 1.419 . S
C840 C838 1.415 . S
C840 C845 1.425 . S
C840 C847 1.409 . S
C841 H833 0.930 1_556 S
C841 C839 1.419 . S
C841 C842 1.362 . S
C842 H834 0.930 . S
C842 C841 1.362 . S
C842 C845 1.409 . S
C843 H835 0.930 . S
C843 C844 1.355 . S
C843 C845 1.415 . S
C844 C843 1.355 . S
C844 C846 1.419 . S
C845 C840 1.425 . S
C845 C842 1.409 . S
C845 C843 1.415 . S
C846 H836 0.930 . S
C846 C844 1.419 . S
C846 C847 1.362 . S
C847 H837 0.930 . S
C847 C840 1.409 . S
C847 C846 1.362 . S
H848 C854 0.930 . S
H849 C857 0.930 . S
H850 C858 0.930 . S
H851 C859 0.930 . S
H852 C862 0.930 . S
H853 C863 0.930 . S
C854 H848 0.930 . S
C854 C855 1.355 . S
C854 C856 1.415 . S
C855 C854 1.355 . S
C855 C857 1.419 . S
C856 C854 1.415 . S
C856 C861 1.425 . S
C856 C863 1.409 . S
C857 H849 0.930 . S
C857 C855 1.419 . S
C857 C858 1.362 . S
C858 H850 0.930 . S
C858 C857 1.362 . S
C858 C861 1.409 . S
C859 H851 0.930 . S
C859 C860 1.355 . S
C859 C861 1.415 . S
C860 C859 1.355 . S
C860 C862 1.419 . S
C861 C856 1.425 . S
C861 C858 1.409 . S
C861 C859 1.415 . S
C862 H852 0.930 . S
C862 C860 1.419 . S
C862 C863 1.362 . S
C863 H853 0.930 . S
C863 C856 1.409 . S
C863 C862 1.362 . S
H864 C870 0.930 . S
H865 C873 0.930 . S
H866 C874 0.930 . S
H867 C875 0.930 . S
H868 C878 0.930 . S
H869 C879 0.930 . S
C870 H864 0.930 . S
C870 C871 1.355 . S
C870 C872 1.415 . S
C871 C870 1.355 . S
C871 C873 1.419 . S
C872 C870 1.415 . S
C872 C877 1.425 . S
C872 C879 1.409 . S
C873 H865 0.930 . S
C873 C871 1.419 . S
C873 C874 1.362 . S
C874 H866 0.930 . S
C874 C873 1.362 . S
C874 C877 1.409 . S
C875 H867 0.930 . S
C875 C876 1.355 . S
C875 C877 1.415 . S
C876 C875 1.355 . S
C876 C878 1.419 . S
C877 C872 1.425 . S
C877 C874 1.409 . S
C877 C875 1.415 . S
C878 H868 0.930 . S
C878 C876 1.419 . S
C878 C879 1.362 . S
C879 H869 0.930 . S
C879 C872 1.409 . S
C879 C878 1.362 . S
H880 C886 0.930 . S
H881 C889 0.930 . S
H882 C890 0.930 . S
H883 C891 0.930 . S
H884 C894 0.930 . S
H885 C895 0.930 . S
C886 H880 0.930 . S
C886 C887 1.355 . S
C886 C888 1.415 . S
C887 C886 1.355 . S
C887 C889 1.419 . S
C888 C886 1.415 . S
C888 C893 1.425 . S
C888 C895 1.409 . S
C889 H881 0.930 . S
C889 C887 1.419 . S
C889 C890 1.362 . S
C890 H882 0.930 . S
C890 C889 1.362 . S
C890 C893 1.409 . S
C891 H883 0.930 . S
C891 C892 1.355 . S
C891 C893 1.415 . S
C892 C891 1.355 . S
C892 C894 1.419 . S
C893 C888 1.425 . S
C893 C890 1.409 . S
C893 C891 1.415 . S
C894 H884 0.930 . S
C894 C892 1.419 . S
C894 C895 1.362 . S
C895 H885 0.930 . S
C895 C888 1.409 . S
C895 C894 1.362 . S
H896 C902 0.930 . S
H897 C905 0.930 . S
H898 C906 0.930 . S
H899 C907 0.930 . S
H900 C910 0.930 . S
H901 C911 0.930 . S
C902 H896 0.930 . S
C902 C903 1.355 . S
C902 C904 1.415 . S
C903 C902 1.355 . S
C903 C905 1.419 . S
C904 C902 1.415 . S
C904 C909 1.425 . S
C904 C911 1.409 . S
C905 H897 0.930 . S
C905 C903 1.419 . S
C905 C906 1.362 . S
C906 H898 0.930 . S
C906 C905 1.362 . S
C906 C909 1.409 . S
C907 H899 0.930 . S
C907 C908 1.355 . S
C907 C909 1.415 . S
C908 C907 1.355 . S
C908 C910 1.419 . S
C909 C904 1.425 . S
C909 C906 1.409 . S
C909 C907 1.415 . S
C910 H900 0.930 . S
C910 C908 1.419 . S
C910 C911 1.362 . S
C911 H901 0.930 . S
C911 C904 1.409 . S
C911 C910 1.362 . S
H912 C918 0.930 . S
H913 C921 0.930 . S
H914 C922 0.930 . S
H915 C923 0.930 . S
H916 C926 0.930 . S
H917 C927 0.930 . S
C918 H912 0.930 . S
C918 C919 1.355 . S
C918 C920 1.415 . S
C919 C918 1.355 . S
C919 C921 1.419 . S
C920 C918 1.415 . S
C920 C925 1.425 . S
C920 C927 1.409 . S
C921 H913 0.930 . S
C921 C919 1.419 . S
C921 C922 1.362 . S
C922 H914 0.930 . S
C922 C921 1.362 . S
C922 C925 1.409 . S
C923 H915 0.930 . S
C923 C924 1.355 . S
C923 C925 1.415 . S
C924 C923 1.355 . S
C924 C926 1.419 . S
C925 C920 1.425 . S
C925 C922 1.409 . S
C925 C923 1.415 . S
C926 H916 0.930 . S
C926 C924 1.419 . S
C926 C927 1.362 . S
C927 H917 0.930 . S
C927 C920 1.409 . S
C927 C926 1.362 . S
H928 C934 0.930 . S
H929 C937 0.930 . S
H930 C938 0.930 . S
H931 C939 0.930 . S
H932 C942 0.930 . S
H933 C943 0.930 . S
C934 H928 0.930 . S
C934 C935 1.355 . S
C934 C936 1.415 . S
C935 C934 1.355 . S
C935 C937 1.419 . S
C936 C934 1.415 . S
C936 C941 1.425 . S
C936 C943 1.409 . S
C937 H929 0.930 . S
C937 C935 1.419 . S
C937 C938 1.362 . S
C938 H930 0.930 . S
C938 C937 1.362 . S
C938 C941 1.409 . S
C939 H931 0.930 . S
C939 C940 1.355 . S
C939 C941 1.415 . S
C940 C939 1.355 . S
C940 C942 1.419 . S
C941 C936 1.425 . S
C941 C938 1.409 . S
C941 C939 1.415 . S
C942 H932 0.930 . S
C942 C940 1.419 . S
C942 C943 1.362 . S
C943 H933 0.930 . S
C943 C936 1.409 . S
C943 C942 1.362 . S
H944 C950 0.930 . S
H945 C953 0.930 . S
H946 C954 0.930 . S
H947 C955 0.930 . S
H948 C958 0.930 . S
H949 C959 0.930 . S
C950 H944 0.930 . S
C950 C951 1.355 . S
C950 C952 1.415 . S
C951 C950 1.355 . S
C951 C953 1.419 . S
C952 C950 1.415 . S
C952 C957 1.425 . S
C952 C959 1.409 . S
C953 H945 0.930 . S
C953 C951 1.419 . S
C953 C954 1.362 . S
C954 H946 0.930 . S
C954 C953 1.362 . S
C954 C957 1.409 . S
C955 H947 0.930 . S
C955 C956 1.355 . S
C955 C957 1.415 . S
C956 C955 1.355 . S
C956 C958 1.419 . S
C957 C952 1.425 . S
C957 C954 1.409 . S
C957 C955 1.415 . S
C958 H948 0.930 . S
C958 C956 1.419 . S
C958 C959 1.362 . S
C959 H949 0.930 . S
C959 C952 1.409 . S
C959 C958 1.362 . S
H960 C966 0.930 . S
H961 C969 0.930 . S
H962 C970 0.930 . S
H963 C971 0.930 . S
H964 C974 0.930 . S
H965 C975 0.930 . S
C966 H960 0.930 . S
C966 C967 1.355 . S
C966 C968 1.415 . S
C967 C966 1.355 . S
C967 C969 1.419 . S
C968 C966 1.415 . S
C968 C973 1.425 . S
C968 C975 1.409 . S
C969 H961 0.930 . S
C969 C967 1.419 . S
C969 C970 1.362 . S
C970 H962 0.930 . S
C970 C969 1.362 . S
C970 C973 1.409 . S
C971 H963 0.930 . S
C971 C972 1.355 . S
C971 C973 1.415 . S
C972 C971 1.355 . S
C972 C974 1.419 . S
C973 C968 1.425 . S
C973 C970 1.409 . S
C973 C971 1.415 . S
C974 H964 0.930 . S
C974 C972 1.419 . S
C974 C975 1.362 . S
C975 H965 0.930 . S
C975 C968 1.409 . S
C975 C974 1.362 . S
H976 C982 0.930 . S
H977 C985 0.930 . S
H978 C986 0.930 . S
H979 C987 0.930 . S
H980 C990 0.930 . S
H981 C991 0.930 . S
C982 H976 0.930 . S
C982 C983 1.355 . S
C982 C984 1.415 . S
C983 C982 1.355 . S
C983 C985 1.419 . S
C984 C982 1.415 . S
C984 C989 1.425 . S
C984 C991 1.409 . S
C985 H977 0.930 . S
C985 C983 1.419 . S
C985 C986 1.362 . S
C986 H978 0.930 . S
C986 C985 1.362 . S
C986 C989 1.409 . S
C987 H979 0.930 . S
C987 C988 1.355 . S
C987 C989 1.415 . S
C988 C987 1.355 . S
C988 C990 1.419 . S
C989 C984 1.425 . S
C989 C986 1.409 . S
C989 C987 1.415 . S
C990 H980 0.930 . S
C990 C988 1.419 . S
C990 C991 1.362 . S
C991 H981 0.930 . S
C991 C984 1.409 . S
C991 C990 1.362 . S
H992 C998 0.930 . S
H993 C1001 0.930 . S
H994 C1002 0.930 . S
H995 C1003 0.930 . S
H996 C1006 0.930 . S
H997 C1007 0.930 . S
C998 H992 0.930 . S
C998 C999 1.355 . S
C998 C1000 1.415 . S
C999 C998 1.355 . S
C999 C1001 1.419 . S
C1000 C998 1.415 . S
C1000 C1005 1.425 . S
C1000 C1007 1.409 . S
C1001 H993 0.930 . S
C1001 C999 1.419 . S
C1001 C1002 1.362 . S
C1002 H994 0.930 . S
C1002 C1001 1.362 . S
C1002 C1005 1.409 . S
C1003 H995 0.930 . S
C1003 C1004 1.355 . S
C1003 C1005 1.415 . S
C1004 C1003 1.355 . S
C1004 C1006 1.419 . S
C1005 C1000 1.425 . S
C1005 C1002 1.409 . S
C1005 C1003 1.415 . S
C1006 H996 0.930 . S
C1006 C1004 1.419 . S
C1006 C1007 1.362 . S
C1007 H997 0.930 . S
C1007 C1000 1.409 . S
C1007 C1006 1.362 . S
H1008 C1014 0.930 . S
H1009 C1017 0.930 . S
H1010 C1018 0.930 . S
H1011 C1019 0.930 . S
H1012 C1022 0.930 . S
H1013 C1023 0.930 . S
C1014 H1008 0.930 . S
C1014 C1015 1.355 . S
C1014 C1016 1.415 . S
C1015 C1014 1.355 . S
C1015 C1017 1.419 . S
C1016 C1014 1.415 . S
C1016 C1021 1.425 . S
C1016 C1023 1.409 . S
C1017 H1009 0.930 . S
C1017 C1015 1.419 . S
C1017 C1018 1.362 . S
C1018 H1010 0.930 . S
C1018 C1017 1.362 . S
C1018 C1021 1.409 . S
C1019 H1011 0.930 . S
C1019 C1020 1.355 . S
C1019 C1021 1.415 . S
C1020 C1019 1.355 . S
C1020 C1022 1.419 . S
C1021 C1016 1.425 . S
C1021 C1018 1.409 . S
C1021 C1019 1.415 . S
C1022 H1012 0.930 . S
C1022 C1020 1.419 . S
C1022 C1023 1.362 . S
C1023 H1013 0.930 . S
C1023 C1016 1.409 . S
C1023 C1022 1.362 . S
H1024 C1030 0.930 . S
H1025 C1033 0.930 . S
H1026 C1034 0.930 . S
H1027 C1035 0.930 . S
H1028 C1038 0.930 . S
H1029 C1039 0.930 . S
C1030 H1024 0.930 . S
C1030 C1031 1.355 . S
C1030 C1032 1.415 . S
C1031 C1030 1.355 . S
C1031 C1033 1.419 . S
C1032 C1030 1.415 . S
C1032 C1037 1.425 . S
C1032 C1039 1.409 . S
C1033 H1025 0.930 . S
C1033 C1031 1.419 . S
C1033 C1034 1.362 . S
C1034 H1026 0.930 . S
C1034 C1033 1.362 . S
C1034 C1037 1.409 . S
C1035 H1027 0.930 . S
C1035 C1036 1.355 . S
C1035 C1037 1.415 . S
C1036 C1035 1.355 . S
C1036 C1038 1.419 . S
C1037 C1032 1.425 . S
C1037 C1034 1.409 . S
C1037 C1035 1.415 . S
C1038 H1028 0.930 . S
C1038 C1036 1.419 . S
C1038 C1039 1.362 . S
C1039 H1029 0.930 . S
C1039 C1032 1.409 . S
C1039 C1038 1.362 . S
H1040 C1046 0.930 . S
H1041 C1049 0.930 . S
H1042 C1050 0.930 . S
H1043 C1051 0.930 . S
H1044 C1054 0.930 . S
H1045 C1055 0.930 . S
C1046 H1040 0.930 . S
C1046 C1047 1.355 . S
C1046 C1048 1.415 . S
C1047 C1046 1.355 . S
C1047 C1049 1.419 . S
C1048 C1046 1.415 . S
C1048 C1053 1.425 . S
C1048 C1055 1.409 . S
C1049 H1041 0.930 . S
C1049 C1047 1.419 . S
C1049 C1050 1.362 . S
C1050 H1042 0.930 . S
C1050 C1049 1.362 . S
C1050 C1053 1.409 . S
C1051 H1043 0.930 . S
C1051 C1052 1.355 . S
C1051 C1053 1.415 . S
C1052 C1051 1.355 . S
C1052 C1054 1.419 . S
C1053 C1048 1.425 . S
C1053 C1050 1.409 . S
C1053 C1051 1.415 . S
C1054 H1044 0.930 . S
C1054 C1052 1.419 . S
C1054 C1055 1.362 . S
C1055 H1045 0.930 . S
C1055 C1048 1.409 . S
C1055 C1054 1.362 . S
H1056 C1062 0.930 . S
H1057 C1065 0.930 . S
H1058 C1066 0.930 . S
H1059 C1067 0.930 . S
H1060 C1070 0.930 . S
H1061 C1071 0.930 . S
C1062 H1056 0.930 . S
C1062 C1063 1.355 . S
C1062 C1064 1.415 . S
C1063 C1062 1.355 . S
C1063 C1065 1.419 . S
C1064 C1062 1.415 . S
C1064 C1069 1.425 . S
C1064 C1071 1.409 . S
C1065 H1057 0.930 . S
C1065 C1063 1.419 . S
C1065 C1066 1.362 . S
C1066 H1058 0.930 . S
C1066 C1065 1.362 . S
C1066 C1069 1.409 . S
C1067 H1059 0.930 . S
C1067 C1068 1.355 . S
C1067 C1069 1.415 . S
C1068 C1067 1.355 . S
C1068 C1070 1.419 . S
C1069 C1064 1.425 . S
C1069 C1066 1.409 . S
C1069 C1067 1.415 . S
C1070 H1060 0.930 . S
C1070 C1068 1.419 . S
C1070 C1071 1.362 . S
C1071 H1061 0.930 . S
C1071 C1064 1.409 . S
C1071 C1070 1.362 . S
H1072 C1078 0.930 . S
H1073 C1081 0.930 . S
H1074 C1082 0.930 . S
H1075 C1083 0.930 . S
H1076 C1086 0.930 . S
H1077 C1087 0.930 . S
C1078 H1072 0.930 . S
C1078 C1079 1.355 . S
C1078 C1080 1.415 . S
C1079 C1078 1.355 . S
C1079 C1081 1.419 . S
C1080 C1078 1.415 . S
C1080 C1085 1.425 . S
C1080 C1087 1.409 . S
C1081 H1073 0.930 . S
C1081 C1079 1.419 . S
C1081 C1082 1.362 . S
C1082 H1074 0.930 . S
C1082 C1081 1.362 . S
C1082 C1085 1.409 . S
C1083 H1075 0.930 . S
C1083 C1084 1.355 . S
C1083 C1085 1.415 . S
C1084 C1083 1.355 . S
C1084 C1086 1.419 . S
C1085 C1080 1.425 . S
C1085 C1082 1.409 . S
C1085 C1083 1.415 . S
C1086 H1076 0.930 . S
C1086 C1084 1.419 . S
C1086 C1087 1.362 . S
C1087 H1077 0.930 . S
C1087 C1080 1.409 . S
C1087 C1086 1.362 . S
H1088 C1094 0.930 . S
H1089 C1097 0.930 . S
H1090 C1098 0.930 . S
H1091 C1099 0.930 . S
H1092 C1102 0.930 . S
H1093 C1103 0.930 . S
C1094 H1088 0.930 . S
C1094 C1095 1.355 . S
C1094 C1096 1.415 . S
C1095 C1094 1.355 . S
C1095 C1097 1.419 . S
C1096 C1094 1.415 . S
C1096 C1101 1.425 . S
C1096 C1103 1.409 . S
C1097 H1089 0.930 . S
C1097 C1095 1.419 . S
C1097 C1098 1.362 . S
C1098 H1090 0.930 . S
C1098 C1097 1.362 . S
C1098 C1101 1.409 . S
C1099 H1091 0.930 . S
C1099 C1100 1.355 . S
C1099 C1101 1.415 . S
C1100 C1099 1.355 . S
C1100 C1102 1.419 . S
C1101 C1096 1.425 . S
C1101 C1098 1.409 . S
C1101 C1099 1.415 . S
C1102 H1092 0.930 . S
C1102 C1100 1.419 . S
C1102 C1103 1.362 . S
C1103 H1093 0.930 . S
C1103 C1096 1.409 . S
C1103 C1102 1.362 . S
H1104 C1110 0.930 . S
H1105 C1113 0.930 . S
H1106 C1114 0.930 . S
H1107 C1115 0.930 . S
H1108 C1118 0.930 . S
H1109 C1119 0.930 . S
C1110 H1104 0.930 . S
C1110 C1111 1.355 . S
C1110 C1112 1.415 . S
C1111 C1110 1.355 . S
C1111 C1113 1.419 . S
C1112 C1110 1.415 . S
C1112 C1117 1.425 . S
C1112 C1119 1.409 . S
C1113 H1105 0.930 . S
C1113 C1111 1.419 . S
C1113 C1114 1.362 . S
C1114 H1106 0.930 . S
C1114 C1113 1.362 . S
C1114 C1117 1.409 . S
C1115 H1107 0.930 . S
C1115 C1116 1.355 . S
C1115 C1117 1.415 . S
C1116 C1115 1.355 . S
C1116 C1118 1.419 . S
C1117 C1112 1.425 . S
C1117 C1114 1.409 . S
C1117 C1115 1.415 . S
C1118 H1108 0.930 . S
C1118 C1116 1.419 . S
C1118 C1119 1.362 . S
C1119 H1109 0.930 . S
C1119 C1112 1.409 . S
C1119 C1118 1.362 . S
H1120 C1126 0.930 . S
H1121 C1129 0.930 . S
H1122 C1130 0.930 . S
H1123 C1131 0.930 . S
H1124 C1134 0.930 . S
H1125 C1135 0.930 . S
C1126 H1120 0.930 . S
C1126 C1127 1.355 . S
C1126 C1128 1.415 . S
C1127 C1126 1.355 . S
C1127 C1129 1.419 . S
C1128 C1126 1.415 . S
C1128 C1133 1.425 . S
C1128 C1135 1.409 . S
C1129 H1121 0.930 . S
C1129 C1127 1.419 . S
C1129 C1130 1.362 . S
C1130 H1122 0.930 . S
C1130 C1129 1.362 . S
C1130 C1133 1.409 . S
C1131 H1123 0.930 . S
C1131 C1132 1.355 . S
C1131 C1133 1.415 . S
C1132 C1131 1.355 . S
C1132 C1134 1.419 . S
C1133 C1128 1.425 . S
C1133 C1130 1.409 . S
C1133 C1131 1.415 . S
C1134 H1124 0.930 . S
C1134 C1132 1.419 . S
C1134 C1135 1.362 . S
C1135 H1125 0.930 . S
C1135 C1128 1.409 . S
C1135 C1134 1.362 . S
H1136 C1142 0.930 . S
H1137 C1145 0.930 . S
H1138 C1146 0.930 . S
H1139 C1147 0.930 . S
H1140 C1150 0.930 . S
H1141 C1151 0.930 . S
C1142 H1136 0.930 . S
C1142 C1143 1.355 . S
C1142 C1144 1.415 . S
C1143 C1142 1.355 . S
C1143 C1145 1.419 . S
C1144 C1142 1.415 . S
C1144 C1149 1.425 . S
C1144 C1151 1.409 . S
C1145 H1137 0.930 . S
C1145 C1143 1.419 . S
C1145 C1146 1.362 . S
C1146 H1138 0.930 . S
C1146 C1145 1.362 . S
C1146 C1149 1.409 . S
C1147 H1139 0.930 . S
C1147 C1148 1.355 . S
C1147 C1149 1.415 . S
C1148 C1147 1.355 . S
C1148 C1150 1.419 . S
C1149 C1144 1.425 . S
C1149 C1146 1.409 . S
C1149 C1147 1.415 . S
C1150 H1140 0.930 . S
C1150 C1148 1.419 . S
C1150 C1151 1.362 . S
C1151 H1141 0.930 . S
C1151 C1144 1.409 . S
C1151 C1150 1.362 . S
H1152 C1158 0.930 . S
H1153 C1161 0.930 . S
H1154 C1162 0.930 . S
H1155 C1163 0.930 . S
H1156 C1166 0.930 . S
H1157 C1167 0.930 . S
C1158 H1152 0.930 . S
C1158 C1159 1.355 . S
C1158 C1160 1.415 . S
C1159 C1158 1.355 . S
C1159 C1161 1.419 . S
C1160 C1158 1.415 . S
C1160 C1165 1.425 . S
C1160 C1167 1.409 . S
C1161 H1153 0.930 . S
C1161 C1159 1.419 . S
C1161 C1162 1.362 . S
C1162 H1154 0.930 . S
C1162 C1161 1.362 . S
C1162 C1165 1.409 . S
C1163 H1155 0.930 . S
C1163 C1164 1.355 . S
C1163 C1165 1.415 . S
C1164 C1163 1.355 . S
C1164 C1166 1.419 . S
C1165 C1160 1.425 . S
C1165 C1162 1.409 . S
C1165 C1163 1.415 . S
C1166 H1156 0.930 . S
C1166 C1164 1.419 . S
C1166 C1167 1.362 . S
C1167 H1157 0.930 . S
C1167 C1160 1.409 . S
C1167 C1166 1.362 . S
H1168 C1174 0.930 . S
H1169 C1177 0.930 . S
H1170 C1178 0.930 . S
H1171 C1179 0.930 . S
H1172 C1182 0.930 . S
H1173 C1183 0.930 . S
C1174 H1168 0.930 . S
C1174 C1175 1.355 . S
C1174 C1176 1.415 . S
C1175 C1174 1.355 . S
C1175 C1177 1.419 . S
C1176 C1174 1.415 . S
C1176 C1181 1.425 . S
C1176 C1183 1.409 . S
C1177 H1169 0.930 . S
C1177 C1175 1.419 . S
C1177 C1178 1.362 . S
C1178 H1170 0.930 . S
C1178 C1177 1.362 . S
C1178 C1181 1.409 . S
C1179 H1171 0.930 . S
C1179 C1180 1.355 . S
C1179 C1181 1.415 . S
C1180 C1179 1.355 . S
C1180 C1182 1.419 . S
C1181 C1176 1.425 . S
C1181 C1178 1.409 . S
C1181 C1179 1.415 . S
C1182 H1172 0.930 . S
C1182 C1180 1.419 . S
C1182 C1183 1.362 . S
C1183 H1173 0.930 . S
C1183 C1176 1.409 . S
C1183 C1182 1.362 . S
H1184 C1190 0.930 . S
H1185 C1193 0.930 . S
H1186 C1194 0.930 . S
H1187 C1195 0.930 . S
H1188 C1198 0.930 . S
H1189 C1199 0.930 . S
C1190 H1184 0.930 . S
C1190 C1191 1.355 . S
C1190 C1192 1.415 . S
C1191 C1190 1.355 . S
C1191 C1193 1.419 . S
C1192 C1190 1.415 . S
C1192 C1197 1.425 . S
C1192 C1199 1.409 . S
C1193 H1185 0.930 . S
C1193 C1191 1.419 . S
C1193 C1194 1.362 . S
C1194 H1186 0.930 . S
C1194 C1193 1.362 . S
C1194 C1197 1.409 . S
C1195 H1187 0.930 . S
C1195 C1196 1.355 . S
C1195 C1197 1.415 . S
C1196 C1195 1.355 . S
C1196 C1198 1.419 . S
C1197 C1192 1.425 . S
C1197 C1194 1.409 . S
C1197 C1195 1.415 . S
C1198 H1188 0.930 . S
C1198 C1196 1.419 . S
C1198 C1199 1.362 . S
C1199 H1189 0.930 . S
C1199 C1192 1.409 . S
C1199 C1198 1.362 . S
H1200 C1206 0.930 . S
H1201 C1209 0.930 . S
H1202 C1210 0.930 . S
H1203 C1211 0.930 . S
H1204 C1214 0.930 . S
H1205 C1215 0.930 . S
C1206 H1200 0.930 . S
C1206 C1207 1.355 . S
C1206 C1208 1.415 . S
C1207 C1206 1.355 . S
C1207 C1209 1.419 . S
C1208 C1206 1.415 . S
C1208 C1213 1.425 . S
C1208 C1215 1.409 . S
C1209 H1201 0.930 . S
C1209 C1207 1.419 . S
C1209 C1210 1.362 . S
C1210 H1202 0.930 . S
C1210 C1209 1.362 . S
C1210 C1213 1.409 . S
C1211 H1203 0.930 . S
C1211 C1212 1.355 . S
C1211 C1213 1.415 . S
C1212 C1211 1.355 . S
C1212 C1214 1.419 . S
C1213 C1208 1.425 . S
C1213 C1210 1.409 . S
C1213 C1211 1.415 . S
C1214 H1204 0.930 . S
C1214 C1212 1.419 . S
C1214 C1215 1.362 . S
C1215 H1205 0.930 . S
C1215 C1208 1.409 . S
C1215 C1214 1.362 . S
H1216 C1222 0.930 . S
H1217 C1225 0.930 . S
H1218 C1226 0.930 . S
H1219 C1227 0.930 . S
H1220 C1230 0.930 . S
H1221 C1231 0.930 . S
C1222 H1216 0.930 . S
C1222 C1223 1.355 . S
C1222 C1224 1.415 . S
C1223 C1222 1.355 . S
C1223 C1225 1.419 . S
C1224 C1222 1.415 . S
C1224 C1229 1.425 . S
C1224 C1231 1.409 . S
C1225 H1217 0.930 . S
C1225 C1223 1.419 . S
C1225 C1226 1.362 . S
C1226 H1218 0.930 . S
C1226 C1225 1.362 . S
C1226 C1229 1.409 . S
C1227 H1219 0.930 . S
C1227 C1228 1.355 . S
C1227 C1229 1.415 . S
C1228 C1227 1.355 . S
C1228 C1230 1.419 . S
C1229 C1224 1.425 . S
C1229 C1226 1.409 . S
C1229 C1227 1.415 . S
C1230 H1220 0.930 . S
C1230 C1228 1.419 . S
C1230 C1231 1.362 . S
C1231 H1221 0.930 . S
C1231 C1224 1.409 . S
C1231 C1230 1.362 . S
H1232 C1238 0.930 . S
H1233 C1241 0.930 . S
H1234 C1242 0.930 . S
H1235 C1243 0.930 . S
H1236 C1246 0.930 . S
H1237 C1247 0.930 . S
C1238 H1232 0.930 . S
C1238 C1239 1.355 . S
C1238 C1240 1.415 . S
C1239 C1238 1.355 . S
C1239 C1241 1.419 . S
C1240 C1238 1.415 . S
C1240 C1245 1.425 . S
C1240 C1247 1.409 . S
C1241 H1233 0.930 . S
C1241 C1239 1.419 . S
C1241 C1242 1.362 . S
C1242 H1234 0.930 . S
C1242 C1241 1.362 . S
C1242 C1245 1.409 . S
C1243 H1235 0.930 . S
C1243 C1244 1.355 . S
C1243 C1245 1.415 . S
C1244 C1243 1.355 . S
C1244 C1246 1.419 . S
C1245 C1240 1.425 . S
C1245 C1242 1.409 . S
C1245 C1243 1.415 . S
C1246 H1236 0.930 . S
C1246 C1244 1.419 . S
C1246 C1247 1.362 . S
C1247 H1237 0.930 . S
C1247 C1240 1.409 . S
C1247 C1246 1.362 . S
H1248 C1254 0.930 . S
H1249 C1257 0.930 . S
H1250 C1258 0.930 . S
H1251 C1259 0.930 . S
H1252 C1262 0.930 . S
H1253 C1263 0.930 . S
C1254 H1248 0.930 . S
C1254 C1255 1.355 . S
C1254 C1256 1.415 . S
C1255 C1254 1.355 . S
C1255 C1257 1.419 . S
C1256 C1254 1.415 . S
C1256 C1261 1.425 . S
C1256 C1263 1.409 . S
C1257 H1249 0.930 . S
C1257 C1255 1.419 . S
C1257 C1258 1.362 . S
C1258 H1250 0.930 . S
C1258 C1257 1.362 . S
C1258 C1261 1.409 . S
C1259 H1251 0.930 . S
C1259 C1260 1.355 . S
C1259 C1261 1.415 . S
C1260 C1259 1.355 . S
C1260 C1262 1.419 . S
C1261 C1256 1.425 . S
C1261 C1258 1.409 . S
C1261 C1259 1.415 . S
C1262 H1252 0.930 . S
C1262 C1260 1.419 . S
C1262 C1263 1.362 . S
C1263 H1253 0.930 . S
C1263 C1256 1.409 . S
C1263 C1262 1.362 . S
H1264 C1270 0.930 . S
H1265 C1273 0.930 . S
H1266 C1274 0.930 . S
H1267 C1275 0.930 . S
H1268 C1278 0.930 . S
H1269 C1279 0.930 . S
C1270 H1264 0.930 . S
C1270 C1271 1.355 . S
C1270 C1272 1.415 . S
C1271 C1270 1.355 . S
C1271 C1273 1.419 . S
C1272 C1270 1.415 . S
C1272 C1277 1.425 . S
C1272 C1279 1.409 . S
C1273 H1265 0.930 . S
C1273 C1271 1.419 . S
C1273 C1274 1.362 . S
C1274 H1266 0.930 . S
C1274 C1273 1.362 . S
C1274 C1277 1.409 . S
C1275 H1267 0.930 . S
C1275 C1276 1.355 . S
C1275 C1277 1.415 . S
C1276 C1275 1.355 . S
C1276 C1278 1.419 . S
C1277 C1272 1.425 . S
C1277 C1274 1.409 . S
C1277 C1275 1.415 . S
C1278 H1268 0.930 . S
C1278 C1276 1.419 . S
C1278 C1279 1.362 . S
C1279 H1269 0.930 . S
C1279 C1272 1.409 . S
C1279 C1278 1.362 . S
H1280 C1286 0.930 . S
H1281 C1289 0.930 . S
H1282 C1290 0.930 . S
H1283 C1291 0.930 . S
H1284 C1294 0.930 . S
H1285 C1295 0.930 . S
C1286 H1280 0.930 . S
C1286 C1287 1.355 . S
C1286 C1288 1.415 . S
C1287 C1286 1.355 . S
C1287 C1289 1.419 . S
C1288 C1286 1.415 . S
C1288 C1293 1.425 . S
C1288 C1295 1.409 . S
C1289 H1281 0.930 . S
C1289 C1287 1.419 . S
C1289 C1290 1.362 . S
C1290 H1282 0.930 . S
C1290 C1289 1.362 . S
C1290 C1293 1.409 . S
C1291 H1283 0.930 . S
C1291 C1292 1.355 . S
C1291 C1293 1.415 . S
C1292 C1291 1.355 . S
C1292 C1294 1.419 . S
C1293 C1288 1.425 . S
C1293 C1290 1.409 . S
C1293 C1291 1.415 . S
C1294 H1284 0.930 . S
C1294 C1292 1.419 . S
C1294 C1295 1.362 . S
C1295 H1285 0.930 . S
C1295 C1288 1.409 . S
C1295 C1294 1.362 . S
H1296 C1302 0.930 1_455 S
H1297 C1305 0.930 . S
H1298 C1306 0.930 . S
H1299 C1307 0.930 . S
H1300 C1310 0.930 1_556 S
H1301 C1311 0.930 . S
C1302 H1296 0.930 1_655 S
C1302 C1303 1.355 . S
C1302 C1304 1.415 . S
C1303 C1302 1.355 . S
C1303 C1305 1.419 . S
C1304 C1302 1.415 . S
C1304 C1309 1.425 . S
C1304 C1311 1.409 . S
C1305 H1297 0.930 . S
C1305 C1303 1.419 . S
C1305 C1306 1.362 . S
C1306 H1298 0.930 . S
C1306 C1305 1.362 . S
C1306 C1309 1.409 . S
C1307 H1299 0.930 . S
C1307 C1308 1.355 . S
C1307 C1309 1.415 . S
C1308 C1307 1.355 . S
C1308 C1310 1.419 . S
C1309 C1304 1.425 . S
C1309 C1306 1.409 . S
C1309 C1307 1.415 . S
C1310 H1300 0.930 1_554 S
C1310 C1308 1.419 . S
C1310 C1311 1.362 . S
C1311 H1301 0.930 . S
C1311 C1304 1.409 . S
C1311 C1310 1.362 . S
H1312 C1318 0.930 . S
H1313 C1321 0.930 . S
H1314 C1322 0.930 . S
H1315 C1323 0.930 . S
H1316 C1326 0.930 . S
H1317 C1327 0.930 . S
C1318 H1312 0.930 . S
C1318 C1319 1.355 . S
C1318 C1320 1.415 . S
C1319 C1318 1.355 . S
C1319 C1321 1.419 . S
C1320 C1318 1.415 . S
C1320 C1325 1.425 . S
C1320 C1327 1.409 . S
C1321 H1313 0.930 . S
C1321 C1319 1.419 . S
C1321 C1322 1.362 . S
C1322 H1314 0.930 . S
C1322 C1321 1.362 . S
C1322 C1325 1.409 . S
C1323 H1315 0.930 . S
C1323 C1324 1.355 . S
C1323 C1325 1.415 . S
C1324 C1323 1.355 . S
C1324 C1326 1.419 . S
C1325 C1320 1.425 . S
C1325 C1322 1.409 . S
C1325 C1323 1.415 . S
C1326 H1316 0.930 . S
C1326 C1324 1.419 . S
C1326 C1327 1.362 . S
C1327 H1317 0.930 . S
C1327 C1320 1.409 . S
C1327 C1326 1.362 . S
H1328 C1334 0.930 1_554 S
H1329 C1337 0.930 . S
H1330 C1338 0.930 . S
H1331 C1339 0.930 . S
H1332 C1342 0.930 . S
H1333 C1343 0.930 . S
C1334 H1328 0.930 1_556 S
C1334 C1335 1.355 . S
C1334 C1336 1.415 . S
C1335 C1334 1.355 . S
C1335 C1337 1.419 . S
C1336 C1334 1.415 . S
C1336 C1341 1.425 . S
C1336 C1343 1.409 . S
C1337 H1329 0.930 . S
C1337 C1335 1.419 . S
C1337 C1338 1.362 . S
C1338 H1330 0.930 . S
C1338 C1337 1.362 . S
C1338 C1341 1.409 . S
C1339 H1331 0.930 . S
C1339 C1340 1.355 . S
C1339 C1341 1.415 . S
C1340 C1339 1.355 . S
C1340 C1342 1.419 . S
C1341 C1336 1.425 . S
C1341 C1338 1.409 . S
C1341 C1339 1.415 . S
C1342 H1332 0.930 . S
C1342 C1340 1.419 . S
C1342 C1343 1.362 . S
C1343 H1333 0.930 . S
C1343 C1336 1.409 . S
C1343 C1342 1.362 . S
H1344 C1350 0.930 . S
H1345 C1353 0.930 . S
H1346 C1354 0.930 . S
H1347 C1355 0.930 . S
H1348 C1358 0.930 . S
H1349 C1359 0.930 . S
C1350 H1344 0.930 . S
C1350 C1351 1.355 . S
C1350 C1352 1.415 . S
C1351 C1350 1.355 . S
C1351 C1353 1.419 . S
C1352 C1350 1.415 . S
C1352 C1357 1.425 . S
C1352 C1359 1.409 . S
C1353 H1345 0.930 . S
C1353 C1351 1.419 . S
C1353 C1354 1.362 . S
C1354 H1346 0.930 . S
C1354 C1353 1.362 . S
C1354 C1357 1.409 . S
C1355 H1347 0.930 . S
C1355 C1356 1.355 . S
C1355 C1357 1.415 . S
C1356 C1355 1.355 . S
C1356 C1358 1.419 . S
C1357 C1352 1.425 . S
C1357 C1354 1.409 . S
C1357 C1355 1.415 . S
C1358 H1348 0.930 . S
C1358 C1356 1.419 . S
C1358 C1359 1.362 . S
C1359 H1349 0.930 . S
C1359 C1352 1.409 . S
C1359 C1358 1.362 . S
H1360 C1366 0.930 . S
H1361 C1369 0.930 1_545 S
H1362 C1370 0.930 . S
H1363 C1371 0.930 . S
H1364 C1374 0.930 . S
H1365 C1375 0.930 . S
C1366 H1360 0.930 . S
C1366 C1367 1.355 . S
C1366 C1368 1.415 . S
C1367 C1366 1.355 . S
C1367 C1369 1.419 . S
C1368 C1366 1.415 . S
C1368 C1373 1.425 . S
C1368 C1375 1.409 . S
C1369 H1361 0.930 1_565 S
C1369 C1367 1.419 . S
C1369 C1370 1.362 . S
C1370 H1362 0.930 . S
C1370 C1369 1.362 . S
C1370 C1373 1.409 . S
C1371 H1363 0.930 . S
C1371 C1372 1.355 . S
C1371 C1373 1.415 . S
C1372 C1371 1.355 . S
C1372 C1374 1.419 . S
C1373 C1368 1.425 . S
C1373 C1370 1.409 . S
C1373 C1371 1.415 . S
C1374 H1364 0.930 . S
C1374 C1372 1.419 . S
C1374 C1375 1.362 . S
C1375 H1365 0.930 . S
C1375 C1368 1.409 . S
C1375 C1374 1.362 . S
H1376 C1382 0.930 . S
H1377 C1385 0.930 . S
H1378 C1386 0.930 . S
H1379 C1387 0.930 . S
H1380 C1390 0.930 . S
H1381 C1391 0.930 . S
C1382 H1376 0.930 . S
C1382 C1383 1.355 . S
C1382 C1384 1.415 . S
C1383 C1382 1.355 . S
C1383 C1385 1.419 . S
C1384 C1382 1.415 . S
C1384 C1389 1.425 . S
C1384 C1391 1.409 . S
C1385 H1377 0.930 . S
C1385 C1383 1.419 . S
C1385 C1386 1.362 . S
C1386 H1378 0.930 . S
C1386 C1385 1.362 . S
C1386 C1389 1.409 . S
C1387 H1379 0.930 . S
C1387 C1388 1.355 . S
C1387 C1389 1.415 . S
C1388 C1387 1.355 . S
C1388 C1390 1.419 . S
C1389 C1384 1.425 . S
C1389 C1386 1.409 . S
C1389 C1387 1.415 . S
C1390 H1380 0.930 . S
C1390 C1388 1.419 . S
C1390 C1391 1.362 . S
C1391 H1381 0.930 . S
C1391 C1384 1.409 . S
C1391 C1390 1.362 . S
H1392 C1398 0.930 . S
H1393 C1401 0.930 . S
H1394 C1402 0.930 . S
H1395 C1403 0.930 . S
H1396 C1406 0.930 . S
H1397 C1407 0.930 . S
C1398 H1392 0.930 . S
C1398 C1399 1.355 . S
C1398 C1400 1.415 . S
C1399 C1398 1.355 . S
C1399 C1401 1.419 . S
C1400 C1398 1.415 . S
C1400 C1405 1.425 . S
C1400 C1407 1.409 . S
C1401 H1393 0.930 . S
C1401 C1399 1.419 . S
C1401 C1402 1.362 . S
C1402 H1394 0.930 . S
C1402 C1401 1.362 . S
C1402 C1405 1.409 . S
C1403 H1395 0.930 . S
C1403 C1404 1.355 . S
C1403 C1405 1.415 . S
C1404 C1403 1.355 . S
C1404 C1406 1.419 . S
C1405 C1400 1.425 . S
C1405 C1402 1.409 . S
C1405 C1403 1.415 . S
C1406 H1396 0.930 . S
C1406 C1404 1.419 . S
C1406 C1407 1.362 . S
C1407 H1397 0.930 . S
C1407 C1400 1.409 . S
C1407 C1406 1.362 . S
H1408 C1414 0.930 . S
H1409 C1417 0.930 1_455 S
H1410 C1418 0.930 . S
H1411 C1419 0.930 . S
H1412 C1422 0.930 . S
H1413 C1423 0.930 . S
C1414 H1408 0.930 . S
C1414 C1415 1.355 . S
C1414 C1416 1.415 . S
C1415 C1414 1.355 . S
C1415 C1417 1.419 . S
C1416 C1414 1.415 . S
C1416 C1421 1.425 . S
C1416 C1423 1.409 . S
C1417 H1409 0.930 1_655 S
C1417 C1415 1.419 . S
C1417 C1418 1.362 . S
C1418 H1410 0.930 . S
C1418 C1417 1.362 . S
C1418 C1421 1.409 . S
C1419 H1411 0.930 . S
C1419 C1420 1.355 . S
C1419 C1421 1.415 . S
C1420 C1419 1.355 . S
C1420 C1422 1.419 . S
C1421 C1416 1.425 . S
C1421 C1418 1.409 . S
C1421 C1419 1.415 . S
C1422 H1412 0.930 . S
C1422 C1420 1.419 . S
C1422 C1423 1.362 . S
C1423 H1413 0.930 . S
C1423 C1416 1.409 . S
C1423 C1422 1.362 . S
H1424 C1430 0.930 . S
H1425 C1433 0.930 . S
H1426 C1434 0.930 . S
H1427 C1435 0.930 . S
H1428 C1438 0.930 1_565 S
H1429 C1439 0.930 . S
C1430 H1424 0.930 . S
C1430 C1431 1.355 . S
C1430 C1432 1.415 . S
C1431 C1430 1.355 . S
C1431 C1433 1.419 . S
C1432 C1430 1.415 . S
C1432 C1437 1.425 . S
C1432 C1439 1.409 . S
C1433 H1425 0.930 . S
C1433 C1431 1.419 . S
C1433 C1434 1.362 . S
C1434 H1426 0.930 . S
C1434 C1433 1.362 . S
C1434 C1437 1.409 . S
C1435 H1427 0.930 . S
C1435 C1436 1.355 . S
C1435 C1437 1.415 . S
C1436 C1435 1.355 . S
C1436 C1438 1.419 . S
C1437 C1432 1.425 . S
C1437 C1434 1.409 . S
C1437 C1435 1.415 . S
C1438 H1428 0.930 1_545 S
C1438 C1436 1.419 . S
C1438 C1439 1.362 . S
C1439 H1429 0.930 . S
C1439 C1432 1.409 . S
C1439 C1438 1.362 . S
H1440 C1446 0.930 1_556 S
H1441 C1449 0.930 . S
H1442 C1450 0.930 . S
H1443 C1451 0.930 . S
H1444 C1454 0.930 . S
H1445 C1455 0.930 . S
C1446 H1440 0.930 1_554 S
C1446 C1447 1.355 . S
C1446 C1448 1.415 . S
C1447 C1446 1.355 . S
C1447 C1449 1.419 . S
C1448 C1446 1.415 . S
C1448 C1453 1.425 . S
C1448 C1455 1.409 . S
C1449 H1441 0.930 . S
C1449 C1447 1.419 . S
C1449 C1450 1.362 . S
C1450 H1442 0.930 . S
C1450 C1449 1.362 . S
C1450 C1453 1.409 . S
C1451 H1443 0.930 . S
C1451 C1452 1.355 . S
C1451 C1453 1.415 . S
C1452 C1451 1.355 . S
C1452 C1454 1.419 . S
C1453 C1448 1.425 . S
C1453 C1450 1.409 . S
C1453 C1451 1.415 . S
C1454 H1444 0.930 . S
C1454 C1452 1.419 . S
C1454 C1455 1.362 . S
C1455 H1445 0.930 . S
C1455 C1448 1.409 . S
C1455 C1454 1.362 . S
H1456 C1462 0.930 . S
H1457 C1465 0.930 . S
H1458 C1466 0.930 . S
H1459 C1467 0.930 . S
H1460 C1470 0.930 . S
H1461 C1471 0.930 . S
C1462 H1456 0.930 . S
C1462 C1463 1.355 . S
C1462 C1464 1.415 . S
C1463 C1462 1.355 . S
C1463 C1465 1.419 . S
C1464 C1462 1.415 . S
C1464 C1469 1.425 . S
C1464 C1471 1.409 . S
C1465 H1457 0.930 . S
C1465 C1463 1.419 . S
C1465 C1466 1.362 . S
C1466 H1458 0.930 . S
C1466 C1465 1.362 . S
C1466 C1469 1.409 . S
C1467 H1459 0.930 . S
C1467 C1468 1.355 . S
C1467 C1469 1.415 . S
C1468 C1467 1.355 . S
C1468 C1470 1.419 . S
C1469 C1464 1.425 . S
C1469 C1466 1.409 . S
C1469 C1467 1.415 . S
C1470 H1460 0.930 . S
C1470 C1468 1.419 . S
C1470 C1471 1.362 . S
C1471 H1461 0.930 . S
C1471 C1464 1.409 . S
C1471 C1470 1.362 . S
H1472 C1478 0.930 . S
H1473 C1481 0.930 . S
H1474 C1482 0.930 . S
H1475 C1483 0.930 . S
H1476 C1486 0.930 . S
H1477 C1487 0.930 . S
C1478 H1472 0.930 . S
C1478 C1479 1.355 . S
C1478 C1480 1.415 . S
C1479 C1478 1.355 . S
C1479 C1481 1.419 . S
C1480 C1478 1.415 . S
C1480 C1485 1.425 . S
C1480 C1487 1.409 . S
C1481 H1473 0.930 . S
C1481 C1479 1.419 . S
C1481 C1482 1.362 . S
C1482 H1474 0.930 . S
C1482 C1481 1.362 . S
C1482 C1485 1.409 . S
C1483 H1475 0.930 . S
C1483 C1484 1.355 . S
C1483 C1485 1.415 . S
C1484 C1483 1.355 . S
C1484 C1486 1.419 . S
C1485 C1480 1.425 . S
C1485 C1482 1.409 . S
C1485 C1483 1.415 . S
C1486 H1476 0.930 . S
C1486 C1484 1.419 . S
C1486 C1487 1.362 . S
C1487 H1477 0.930 . S
C1487 C1480 1.409 . S
C1487 C1486 1.362 . S
H1488 C1494 0.930 1_655 S
H1489 C1497 0.930 . S
H1490 C1498 0.930 . S
H1491 C1499 0.930 . S
H1492 C1502 0.930 1_554 S
H1493 C1503 0.930 . S
C1494 H1488 0.930 1_455 S
C1494 C1495 1.355 . S
C1494 C1496 1.415 . S
C1495 C1494 1.355 . S
C1495 C1497 1.419 . S
C1496 C1494 1.415 . S
C1496 C1501 1.425 . S
C1496 C1503 1.409 . S
C1497 H1489 0.930 . S
C1497 C1495 1.419 . S
C1497 C1498 1.362 . S
C1498 H1490 0.930 . S
C1498 C1497 1.362 . S
C1498 C1501 1.409 . S
C1499 H1491 0.930 . S
C1499 C1500 1.355 . S
C1499 C1501 1.415 . S
C1500 C1499 1.355 . S
C1500 C1502 1.419 . S
C1501 C1496 1.425 . S
C1501 C1498 1.409 . S
C1501 C1499 1.415 . S
C1502 H1492 0.930 1_556 S
C1502 C1500 1.419 . S
C1502 C1503 1.362 . S
C1503 H1493 0.930 . S
C1503 C1496 1.409 . S
C1503 C1502 1.362 . S
H1504 C1510 0.930 . S
H1505 C1513 0.930 . S
H1506 C1514 0.930 . S
H1507 C1515 0.930 . S
H1508 C1518 0.930 . S
H1509 C1519 0.930 . S
C1510 H1504 0.930 . S
C1510 C1511 1.355 . S
C1510 C1512 1.415 . S
C1511 C1510 1.355 . S
C1511 C1513 1.419 . S
C1512 C1510 1.415 . S
C1512 C1517 1.425 . S
C1512 C1519 1.409 . S
C1513 H1505 0.930 . S
C1513 C1511 1.419 . S
C1513 C1514 1.362 . S
C1514 H1506 0.930 . S
C1514 C1513 1.362 . S
C1514 C1517 1.409 . S
C1515 H1507 0.930 . S
C1515 C1516 1.355 . S
C1515 C1517 1.415 . S
C1516 C1515 1.355 . S
C1516 C1518 1.419 . S
C1517 C1512 1.425 . S
C1517 C1514 1.409 . S
C1517 C1515 1.415 . S
C1518 H1508 0.930 . S
C1518 C1516 1.419 . S
C1518 C1519 1.362 . S
C1519 H1509 0.930 . S
C1519 C1512 1.409 . S
C1519 C1518 1.362 . S
H1520 C1526 0.930 . S
H1521 C1529 0.930 . S
H1522 C1530 0.930 . S
H1523 C1531 0.930 . S
H1524 C1534 0.930 . S
H1525 C1535 0.930 . S
C1526 H1520 0.930 . S
C1526 C1527 1.355 . S
C1526 C1528 1.415 . S
C1527 C1526 1.355 . S
C1527 C1529 1.419 . S
C1528 C1526 1.415 . S
C1528 C1533 1.425 . S
C1528 C1535 1.409 . S
C1529 H1521 0.930 . S
C1529 C1527 1.419 . S
C1529 C1530 1.362 . S
C1530 H1522 0.930 . S
C1530 C1529 1.362 . S
C1530 C1533 1.409 . S
C1531 H1523 0.930 . S
C1531 C1532 1.355 . S
C1531 C1533 1.415 . S
C1532 C1531 1.355 . S
C1532 C1534 1.419 . S
C1533 C1528 1.425 . S
C1533 C1530 1.409 . S
C1533 C1531 1.415 . S
C1534 H1524 0.930 . S
C1534 C1532 1.419 . S
C1534 C1535 1.362 . S
C1535 H1525 0.930 . S
C1535 C1528 1.409 . S
C1535 C1534 1.362 . S
H1536 C1542 0.930 . S
H1537 C1545 0.930 . S
H1538 C1546 0.930 . S
H1539 C1547 0.930 1_455 S
H1540 C1550 0.930 . S
H1541 C1551 0.930 . S
C1542 H1536 0.930 . S
C1542 C1543 1.355 . S
C1542 C1544 1.415 . S
C1543 C1542 1.355 . S
C1543 C1545 1.419 . S
C1544 C1542 1.415 . S
C1544 C1549 1.425 . S
C1544 C1551 1.409 . S
C1545 H1537 0.930 . S
C1545 C1543 1.419 . S
C1545 C1546 1.362 . S
C1546 H1538 0.930 . S
C1546 C1545 1.362 . S
C1546 C1549 1.409 . S
C1547 H1539 0.930 1_655 S
C1547 C1548 1.355 . S
C1547 C1549 1.415 . S
C1548 C1547 1.355 . S
C1548 C1550 1.419 . S
C1549 C1544 1.425 . S
C1549 C1546 1.409 . S
C1549 C1547 1.415 . S
C1550 H1540 0.930 . S
C1550 C1548 1.419 . S
C1550 C1551 1.362 . S
C1551 H1541 0.930 . S
C1551 C1544 1.409 . S
C1551 C1550 1.362 . S
H1552 C1558 0.930 . S
H1553 C1561 0.930 . S
H1554 C1562 0.928 1_565 S
H1555 C1563 0.935 . S
H1556 C1566 0.930 . S
H1557 C1567 0.930 . S
C1558 H1552 0.930 . S
C1558 C1559 1.355 . S
C1558 C1560 1.415 . S
C1559 C1558 1.355 . S
C1559 C1561 1.419 1_545 S
C1560 C1558 1.415 . S
C1560 C1565 1.425 . S
C1560 C1567 1.409 . S
C1561 H1553 0.930 . S
C1561 C1559 1.419 1_565 S
C1561 C1562 1.362 1_565 S
C1562 H1554 0.928 1_545 S
C1562 C1561 1.362 1_545 S
C1562 C1565 1.409 . S
C1563 H1555 0.935 . S
C1563 C1564 1.355 . S
C1563 C1565 1.415 . S
C1564 C1563 1.355 . S
C1564 C1566 1.419 . S
C1565 C1560 1.425 . S
C1565 C1562 1.409 . S
C1565 C1563 1.415 . S
C1566 H1556 0.930 . S
C1566 C1564 1.419 . S
C1566 C1567 1.362 . S
C1567 H1557 0.930 . S
C1567 C1560 1.409 . S
C1567 C1566 1.362 . S
H1568 C1574 0.930 1_545 S
H1569 C1577 0.930 . S
H1570 C1578 0.930 . S
H1571 C1579 0.930 . S
H1572 C1582 0.930 . S
H1573 C1583 0.930 . S
C1574 H1568 0.930 1_565 S
C1574 C1575 1.355 . S
C1574 C1576 1.415 . S
C1575 C1574 1.355 . S
C1575 C1577 1.419 . S
C1576 C1574 1.415 . S
C1576 C1581 1.425 . S
C1576 C1583 1.409 . S
C1577 H1569 0.930 . S
C1577 C1575 1.419 . S
C1577 C1578 1.362 . S
C1578 H1570 0.930 . S
C1578 C1577 1.362 . S
C1578 C1581 1.409 . S
C1579 H1571 0.930 . S
C1579 C1580 1.355 . S
C1579 C1581 1.415 . S
C1580 C1579 1.355 . S
C1580 C1582 1.419 . S
C1581 C1576 1.425 . S
C1581 C1578 1.409 . S
C1581 C1579 1.415 . S
C1582 H1572 0.930 . S
C1582 C1580 1.419 . S
C1582 C1583 1.362 . S
C1583 H1573 0.930 . S
C1583 C1576 1.409 . S
C1583 C1582 1.362 . S
H1584 C1590 0.930 . S
H1585 C1593 0.930 . S
H1586 C1594 0.930 . S
H1587 C1595 0.930 . S
H1588 C1598 0.930 . S
H1589 C1599 0.930 . S
C1590 H1584 0.930 . S
C1590 C1591 1.355 . S
C1590 C1592 1.415 . S
C1591 C1590 1.355 . S
C1591 C1593 1.419 . S
C1592 C1590 1.415 . S
C1592 C1597 1.425 . S
C1592 C1599 1.409 . S
C1593 H1585 0.930 . S
C1593 C1591 1.419 . S
C1593 C1594 1.362 . S
C1594 H1586 0.930 . S
C1594 C1593 1.362 . S
C1594 C1597 1.409 . S
C1595 H1587 0.930 . S
C1595 C1596 1.355 . S
C1595 C1597 1.415 . S
C1596 C1595 1.355 . S
C1596 C1598 1.419 . S
C1597 C1592 1.425 . S
C1597 C1594 1.409 . S
C1597 C1595 1.415 . S
C1598 H1588 0.930 . S
C1598 C1596 1.419 . S
C1598 C1599 1.362 . S
C1599 H1589 0.930 . S
C1599 C1592 1.409 . S
C1599 C1598 1.362 . S
H1600 C1606 0.930 . S
H1601 C1609 0.930 . S
H1602 C1610 0.930 . S
H1603 C1611 0.930 . S
H1604 C1614 0.930 . S
H1605 C1615 0.930 . S
C1606 H1600 0.930 . S
C1606 C1607 1.355 . S
C1606 C1608 1.415 . S
C1607 C1606 1.355 . S
C1607 C1609 1.419 . S
C1608 C1606 1.415 . S
C1608 C1613 1.425 . S
C1608 C1615 1.409 . S
C1609 H1601 0.930 . S
C1609 C1607 1.419 . S
C1609 C1610 1.362 . S
C1610 H1602 0.930 . S
C1610 C1609 1.362 . S
C1610 C1613 1.409 . S
C1611 H1603 0.930 . S
C1611 C1612 1.355 . S
C1611 C1613 1.415 . S
C1612 C1611 1.355 . S
C1612 C1614 1.419 . S
C1613 C1608 1.425 . S
C1613 C1610 1.409 . S
C1613 C1611 1.415 . S
C1614 H1604 0.930 . S
C1614 C1612 1.419 . S
C1614 C1615 1.362 . S
C1615 H1605 0.930 . S
C1615 C1608 1.409 . S
C1615 C1614 1.362 . S
H1616 C1622 0.930 . S
H1617 C1625 0.930 1_556 S
H1618 C1626 0.930 . S
H1619 C1627 0.930 . S
H1620 C1630 0.930 . S
H1621 C1631 0.930 . S
C1622 H1616 0.930 . S
C1622 C1623 1.355 . S
C1622 C1624 1.415 . S
C1623 C1622 1.355 . S
C1623 C1625 1.419 . S
C1624 C1622 1.415 . S
C1624 C1629 1.425 . S
C1624 C1631 1.409 . S
C1625 H1617 0.930 1_554 S
C1625 C1623 1.419 . S
C1625 C1626 1.362 . S
C1626 H1618 0.930 . S
C1626 C1625 1.362 . S
C1626 C1629 1.409 . S
C1627 H1619 0.930 . S
C1627 C1628 1.355 . S
C1627 C1629 1.415 . S
C1628 C1627 1.355 . S
C1628 C1630 1.419 . S
C1629 C1624 1.425 . S
C1629 C1626 1.409 . S
C1629 C1627 1.415 . S
C1630 H1620 0.930 . S
C1630 C1628 1.419 . S
C1630 C1631 1.362 . S
C1631 H1621 0.930 . S
C1631 C1624 1.409 . S
C1631 C1630 1.362 . S
H1632 C1638 0.930 . S
H1633 C1641 0.930 . S
H1634 C1642 0.930 . S
H1635 C1643 0.930 . S
H1636 C1646 0.930 . S
H1637 C1647 0.930 1_554 S
C1638 H1632 0.930 . S
C1638 C1639 1.355 . S
C1638 C1640 1.415 . S
C1639 C1638 1.355 . S
C1639 C1641 1.419 . S
C1640 C1638 1.415 . S
C1640 C1645 1.425 . S
C1640 C1647 1.409 . S
C1641 H1633 0.930 . S
C1641 C1639 1.419 . S
C1641 C1642 1.362 . S
C1642 H1634 0.930 . S
C1642 C1641 1.362 . S
C1642 C1645 1.409 . S
C1643 H1635 0.930 . S
C1643 C1644 1.355 . S
C1643 C1645 1.415 . S
C1644 C1643 1.355 . S
C1644 C1646 1.419 1_556 S
C1645 C1640 1.425 . S
C1645 C1642 1.409 . S
C1645 C1643 1.415 . S
C1646 H1636 0.930 . S
C1646 C1644 1.419 1_554 S
C1646 C1647 1.362 1_554 S
C1647 H1637 0.930 1_556 S
C1647 C1640 1.409 . S
C1647 C1646 1.362 1_556 S
H1648 C1654 0.930 . S
H1649 C1657 0.930 . S
H1650 C1658 0.930 . S
H1651 C1659 0.930 . S
H1652 C1662 0.930 . S
H1653 C1663 0.930 . S
C1654 H1648 0.930 . S
C1654 C1655 1.355 . S
C1654 C1656 1.415 . S
C1655 C1654 1.355 . S
C1655 C1657 1.419 . S
C1656 C1654 1.415 . S
C1656 C1661 1.425 . S
C1656 C1663 1.409 . S
C1657 H1649 0.930 . S
C1657 C1655 1.419 . S
C1657 C1658 1.362 . S
C1658 H1650 0.930 . S
C1658 C1657 1.362 . S
C1658 C1661 1.409 . S
C1659 H1651 0.930 . S
C1659 C1660 1.355 . S
C1659 C1661 1.415 . S
C1660 C1659 1.355 . S
C1660 C1662 1.419 . S
C1661 C1656 1.425 . S
C1661 C1658 1.409 . S
C1661 C1659 1.415 . S
C1662 H1652 0.930 . S
C1662 C1660 1.419 . S
C1662 C1663 1.362 . S
C1663 H1653 0.930 . S
C1663 C1656 1.409 . S
C1663 C1662 1.362 . S
H1664 C1670 0.930 . S
H1665 C1673 0.930 . S
H1666 C1674 0.930 . S
H1667 C1675 0.930 . S
H1668 C1678 0.930 1_565 S
H1669 C1679 0.930 . S
C1670 H1664 0.930 . S
C1670 C1671 1.355 . S
C1670 C1672 1.415 . S
C1671 C1670 1.355 . S
C1671 C1673 1.419 . S
C1672 C1670 1.415 . S
C1672 C1677 1.425 . S
C1672 C1679 1.409 . S
C1673 H1665 0.930 . S
C1673 C1671 1.419 . S
C1673 C1674 1.362 . S
C1674 H1666 0.930 . S
C1674 C1673 1.362 . S
C1674 C1677 1.409 . S
C1675 H1667 0.930 . S
C1675 C1676 1.355 . S
C1675 C1677 1.415 . S
C1676 C1675 1.355 . S
C1676 C1678 1.419 . S
C1677 C1672 1.425 . S
C1677 C1674 1.409 . S
C1677 C1675 1.415 . S
C1678 H1668 0.930 1_545 S
C1678 C1676 1.419 . S
C1678 C1679 1.362 . S
C1679 H1669 0.930 . S
C1679 C1672 1.409 . S
C1679 C1678 1.362 . S
C535 C18 1.667 . S
C540 C417 1.629 . S
C551 C426 1.585 . S
C556 C40 1.622 . S
C567 C52 1.665 . S
C572 C367 1.631 . S
C583 C74 1.668 . S
C588 C389 1.609 . S
C599 C505 1.576 . S
C604 C98 1.663 . S
C615 C118 1.673 . S
C620 C477 1.630 . S
C631 C513 1.589 . S
C636 C140 1.654 . S
C647 C164 1.661 . S
C652 C455 1.572 . S
C663 C186 1.671 . S
C668 C307 1.578 . S
C679 C216 1.661 . S
C684 C345 1.569 . S
C695 C315 1.614 . S
C700 C238 1.658 . S
C711 C250 1.668 . S
C716 C279 1.578 . S
C727 C282 1.658 . S
C732 C139 1.623 . S
C743 C296 1.662 . S
C748 C175 1.607 . S
C759 C316 1.660 . S
C764 C109 1.593 . S
C775 C117 1.567 . S
C780 C348 1.652 . S
C791 C370 1.668 . S
C796 C235 1.634 . S
C807 C213 1.573 . S
C812 C392 1.661 . S
C823 C249 1.571 . S
C828 C406 1.656 . S
C839 C197 1.609 . S
C844 C425 1.705 . S
C855 C37 1.626 . S
C860 C458 1.666 . S
C871 C73 1.604 . S
C876 C480 1.652 . S
C887 C51 1.618 . S
C892 C494 1.652 . S
C903 C514 1.657 . S
C908 C15 1.605 . S
C919 C106 1.203 . S
C924 C10 1.161 . S
C935 C120 1.165 . S
C940 C32 1.157 . S
C951 C142 1.214 . S
C956 C62 1.199 . S
C967 C172 1.136 . S
C972 C84 1.106 . S
C983 C96 1.137 . S
C988 C194 1.192 . S
C999 C128 1.194 . S
C1004 C252 1.200 . S
C1015 C150 1.197 . S
C1020 C206 1.205 . S
C1031 C162 1.107 . S
C1036 C228 1.165 . S
C1047 C184 1.172 . S
C1052 C8 1.210 . S
C1063 C208 1.091 . S
C1068 C54 1.133 . S
C1079 C230 1.194 . S
C1084 C76 1.212 . S
C1095 C30 1.198 . S
C1100 C260 1.193 . S
C1111 C360 1.134 . S
C1116 C274 1.086 . S
C1127 C382 1.218 . S
C1132 C294 1.197 . S
C1143 C326 1.111 . S
C1148 C414 1.169 . S
C1159 C340 1.109 . S
C1164 C433 1.189 . S
C1175 C448 1.180 . S
C1180 C362 1.175 . S
C1191 C384 1.139 . S
C1196 C516 1.190 . S
C1207 C470 1.182 . S
C1212 C404 1.179 . S
C1223 C439 1.227 . S
C1228 C502 1.252 . S
C1239 C272 1.195 . S
C1244 C450 1.189 . S
C1255 C472 1.116 . S
C1260 C318 1.139 . S
C1271 C492 1.084 . S
C1276 C338 1.121 . S
C1287 C304 1.143 . S
C1292 C524 1.092 . S
C1303 C21 1.350 1_655 S
C1308 C205 1.354 1_554 S
C1319 C227 1.324 . S
C1324 C43 1.340 . S
C1335 C191 1.334 1_556 S
C1340 C59 1.329 . S
C1351 C263 1.326 . S
C1356 C81 1.343 1_455 S
C1367 C95 1.335 1_565 S
C1372 C87 1.341 1_455 S
C1383 C65 1.358 . S
C1388 C125 1.350 1_545 S
C1399 C147 1.334 . S
C1404 C29 1.318 . S
C1415 C7 1.348 1_655 S
C1420 C161 1.359 . S
C1431 C183 1.340 1_556 S
C1436 C131 1.323 1_545 S
C1447 C219 1.357 1_554 S
C1452 C169 1.357 . S
C1463 C241 1.333 . S
C1468 C153 1.328 . S
C1479 C257 1.349 . S
C1484 C103 1.357 1_565 S
C1495 C285 1.363 1_455 S
C1500 C469 1.346 1_556 S
C1511 C293 1.354 . S
C1516 C499 1.363 . S
C1527 C447 1.328 1_554 S
C1532 C323 1.343 . S
C1543 C527 1.366 . S
C1548 C351 1.363 1_655 S
C1559 C373 1.338 1_545 S
C1564 C337 1.340 1_655 S
C1575 C395 1.355 1_565 S
C1580 C329 1.341 . S
C1591 C301 1.355 . S
C1596 C403 1.347 . S
C1607 C428 1.308 . S
C1612 C271 1.315 1_455 S
C1623 C461 1.333 1_554 S
C1628 C381 1.324 1_565 S
C1639 C436 1.277 . S
C1644 C483 1.303 1_556 S
C1655 C491 1.343 . S
C1660 C411 1.351 . S
C1671 C521 1.355 . S
C1676 C359 1.352 1_545 S
