# Generated by pormake.
# Topology tfs, (6)-cn, num edge types: 1
# Building blocks:
#     Node 0, Type 0, BuildingBlock: PAMTUU_clean_sbu_0, # of connection points: 6
#     Node 1, Type 0, BuildingBlock: PAMTUU_clean_sbu_0, # of connection points: 6
#     Node 2, Type 0, BuildingBlock: PAMTUU_clean_sbu_0, # of connection points: 6
#     Node 3, Type 0, BuildingBlock: PAMTUU_clean_sbu_0, # of connection points: 6
#     Node 4, Type 0, BuildingBlock: PAMTUU_clean_sbu_0, # of connection points: 6
#     Node 5, Type 0, BuildingBlock: PAMTUU_clean_sbu_0, # of connection points: 6
#     Edge 6, Type (0, 0), BuildingBlock: KIFKEQ_clean_linker_1, # of connection points: 2
#     Edge 7, Type (0, 0), BuildingBlock: KIFKEQ_clean_linker_1, # of connection points: 2
#     Edge 8, Type (0, 0), BuildingBlock: KIFKEQ_clean_linker_1, # of connection points: 2
#     Edge 9, Type (0, 0), BuildingBlock: KIFKEQ_clean_linker_1, # of connection points: 2
#     Edge 10, Type (0, 0), BuildingBlock: KIFKEQ_clean_linker_1, # of connection points: 2
#     Edge 11, Type (0, 0), BuildingBlock: KIFKEQ_clean_linker_1, # of connection points: 2
#     Edge 12, Type (0, 0), BuildingBlock: KIFKEQ_clean_linker_1, # of connection points: 2
#     Edge 13, Type (0, 0), BuildingBlock: KIFKEQ_clean_linker_1, # of connection points: 2
#     Edge 14, Type (0, 0), BuildingBlock: KIFKEQ_clean_linker_1, # of connection points: 2
#     Edge 15, Type (0, 0), BuildingBlock: KIFKEQ_clean_linker_1, # of connection points: 2
#     Edge 16, Type (0, 0), BuildingBlock: KIFKEQ_clean_linker_1, # of connection points: 2
#     Edge 17, Type (0, 0), BuildingBlock: KIFKEQ_clean_linker_1, # of connection points: 2
#     Edge 18, Type (0, 0), BuildingBlock: KIFKEQ_clean_linker_1, # of connection points: 2
#     Edge 19, Type (0, 0), BuildingBlock: KIFKEQ_clean_linker_1, # of connection points: 2
#     Edge 20, Type (0, 0), BuildingBlock: KIFKEQ_clean_linker_1, # of connection points: 2
#     Edge 21, Type (0, 0), BuildingBlock: KIFKEQ_clean_linker_1, # of connection points: 2
#     Edge 22, Type (0, 0), BuildingBlock: KIFKEQ_clean_linker_1, # of connection points: 2
#     Edge 23, Type (0, 0), BuildingBlock: KIFKEQ_clean_linker_1, # of connection points: 2
# Relax obj value: 0.385
# Max RMSD: 0.383
# Mean RMSD: 0.313
data_MOF--net-tfs--node1-PAMTUU_clean_sbu_0--edge1-KIFKEQ_clean_linker_1
_symmetry_space_group_name_H-M    P1
_symmetry_Int_Tables_number       1
_symmetry_cell_setting            triclinic
loop_
_symmetry_equiv_pos_as_xyz
'x, y, z'
_cell_length_a     59.353926
_cell_length_b     51.842669
_cell_length_c     14.423427
_cell_angle_alpha  79.053307
_cell_angle_beta   98.339339
_cell_angle_gamma 134.15343
loop_
_atom_site_label
_atom_site_type_symbol
_atom_site_fract_x
_atom_site_fract_y
_atom_site_fract_z
_atom_type_partial_charge
Tb0 Tb 0.26196 0.5549 0.05635 0.0
Tb1 Tb 0.28803 0.51453 0.13404 0.0
C2 C 0.2807 0.54766 0.2639 0.0
C3 C 0.2471 0.61649 0.01457 0.0
C4 C 0.24919 0.67138 0.03353 0.0
C5 C 0.22811 0.63707 0.08657 0.0
C6 C 0.22701 0.60991 0.07697 0.0
C7 C 0.26871 0.65105 0.96317 0.0
C8 C 0.26982 0.67825 0.97281 0.0
C9 C 0.24316 0.58643 -0.00403 0.0
O10 O 0.31273 0.59772 0.07651 0.0
O11 O 0.32431 0.56591 0.04954 0.0
O12 O 0.26108 0.49047 0.0084 0.0
O13 O 0.26412 0.53671 0.93807 0.0
O14 O 0.29662 0.49115 0.25072 0.0
O15 O 0.31306 0.50133 0.11203 0.0
O16 O 0.23925 0.47597 0.1783 0.0
O17 O 0.22038 0.49696 0.07254 0.0
O18 O 0.26053 0.54618 0.20798 0.0
O19 O 0.30192 0.55109 0.22939 0.0
C20 C 0.33276 0.59689 0.0525 0.0
O21 O 0.26685 0.59465 0.96107 0.0
O22 O 0.22887 0.55817 0.05975 0.0
C23 C 0.25794 0.5071 0.93521 0.0
C24 C 0.30127 0.45182 0.21608 0.0
C25 C 0.29346 0.39052 0.26199 0.0
C26 C 0.30916 0.41465 0.17965 0.0
C27 C 0.31312 0.44502 0.1572 0.0
C28 C 0.28434 0.42685 0.29624 0.0
C29 C 0.28043 0.39648 0.31882 0.0
C30 C 0.31002 0.4869 0.19949 0.0
C31 C 0.21582 0.47216 0.13757 0.0
H32 H 0.21157 0.63069 0.13286 0.0
H33 H 0.2097 0.58341 0.11645 0.0
H34 H 0.28425 0.65687 0.9137 0.0
H35 H 0.28656 0.70453 0.93171 0.0
H36 H 0.31989 0.41119 0.13505 0.0
H37 H 0.32664 0.464 0.09571 0.0
H38 H 0.27505 0.43136 0.3435 0.0
H39 H 0.26794 0.37819 0.38223 0.0
Tb40 Tb 0.85604 0.16452 0.57218 0.0
Tb41 Tb 0.77705 0.09595 0.59229 0.0
C42 C 0.82166 0.11397 0.75775 0.0
C43 C 0.94406 0.23408 0.52314 0.0
C44 C 1.00105 0.27577 0.42832 0.0
C45 C 1.00111 0.27968 0.52233 0.0
C46 C 0.97297 0.25903 0.56903 0.0
C47 C 0.94357 0.22936 0.42996 0.0
C48 C 0.97185 0.25 0.38296 0.0
C49 C 0.91522 0.21567 0.57273 0.0
O50 O 0.84445 0.11874 0.52352 0.0
O51 O 0.78973 0.07361 0.52714 0.0
O52 O 0.78615 0.12581 0.4521 0.0
O53 O 0.83812 0.15681 0.42991 0.0
O54 O 0.73922 0.05513 0.68243 0.0
O55 O 0.73116 0.06291 0.53393 0.0
O56 O 0.79018 0.14147 0.64506 0.0
O57 O 0.83752 0.18894 0.57133 0.0
O58 O 0.84245 0.14743 0.71821 0.0
O59 O 0.80034 0.08804 0.70614 0.0
C60 C 0.81709 0.08646 0.50659 0.0
O61 O 0.89615 0.2187 0.52937 0.0
O62 O 0.9002 0.18321 0.61753 0.0
C63 C 0.81028 0.14324 0.39778 0.0
C64 C 0.69343 0.0438 0.63785 0.0
C65 C 0.64576 0.04033 0.67211 0.0
C66 C 0.64011 0.01796 0.61158 0.0
C67 C 0.66371 0.01959 0.59496 0.0
C68 C 0.69905 0.06581 0.6996 0.0
C69 C 0.67532 0.06391 0.71703 0.0
C70 C 0.71829 0.04608 0.61621 0.0
C71 C 0.81287 0.17607 0.61516 0.0
H72 H 0.0229 0.29962 0.55927 0.0
H73 H 0.97382 0.26331 0.64065 0.0
H74 H 0.92142 0.21025 0.39322 0.0
H75 H 0.97083 0.24592 0.31104 0.0
H76 H 0.61746 0.99938 0.57657 0.0
H77 H 0.6589 1.00227 0.54754 0.0
H78 H 0.72187 0.08482 0.73333 0.0
H79 H 0.68042 0.08173 0.76317 0.0
Tb80 Tb 0.62341 0.9045 -0.00683 0.0
Tb81 Tb 0.63258 0.84629 0.01633 0.0
C82 C 0.64433 0.89444 0.83481 0.0
C83 C 0.59145 0.94866 0.97112 0.0
C84 C 0.5496 0.95797 0.96434 0.0
C85 C 0.54449 0.93534 0.90609 0.0
C86 C 0.56517 0.93068 0.90949 0.0
C87 C 0.59647 0.97111 0.02949 0.0
C88 C 0.57575 0.97564 0.02641 0.0
C89 C 0.61546 0.9473 0.96972 0.0
O90 O 0.578 0.85264 0.95632 0.0
O91 O 0.58321 0.81397 0.03532 0.0
O92 O 0.64261 0.86376 0.15206 0.0
O93 O 0.6113 0.87549 0.13417 0.0
O94 O 0.65047 0.83013 0.95504 0.0
O95 O 0.62134 0.79852 0.07866 0.0
O96 O 0.68022 0.89847 0.03356 0.0
O97 O 0.67206 0.93602 0.04066 0.0
O98 O 0.65129 0.9188 0.87955 0.0
O99 O 0.62585 0.86056 0.87201 0.0
C100 C 0.56575 0.81999 -0.00579 0.0
O101 O 0.62385 0.93936 0.05037 0.0
O102 O 0.61339 0.93216 0.90206 0.0
C103 C 0.62966 0.87251 0.18597 0.0
C104 C 0.65908 0.79592 0.05902 0.0
C105 C 0.69172 0.77403 0.12131 0.0
C106 C 0.67051 0.76658 0.1808 0.0
C107 C 0.6543 0.77729 0.14992 0.0
C108 C 0.6811 0.80448 0.00087 0.0
C109 C 0.6973 0.79379 0.03174 0.0
C110 C 0.6387 0.8025 0.0201 0.0
C111 C 0.69027 0.92957 0.04787 0.0
H112 H 0.52441 0.92109 0.85813 0.0
H113 H 0.56078 0.91339 0.863 0.0
H114 H 0.61684 0.98576 0.07636 0.0
H115 H 0.58064 0.9937 0.07114 0.0
H116 H 0.66533 0.75101 0.24974 0.0
H117 H 0.63719 0.76978 0.19611 0.0
H118 H 0.6851 0.81847 0.93009 0.0
H119 H 0.71376 0.80038 0.98459 0.0
Tb120 Tb 0.76162 0.51482 0.56231 0.0
Tb121 Tb 0.78554 0.47106 0.63173 0.0
C122 C 0.7758 0.49978 0.76624 0.0
C123 C 0.75183 0.58082 0.46117 0.0
C124 C 0.75365 0.63501 0.36336 0.0
C125 C 0.75904 0.63312 0.46155 0.0
C126 C 0.75808 0.60633 0.50974 0.0
C127 C 0.74799 0.58368 0.36238 0.0
C128 C 0.749 0.61059 0.31396 0.0
C129 C 0.74474 0.54883 0.51662 0.0
O130 O 0.81287 0.55587 0.56002 0.0
O131 O 0.8209 0.51991 0.5398 0.0
O132 O 0.75803 0.44951 0.50531 0.0
O133 O 0.76394 0.49832 0.43991 0.0
O134 O 0.79009 0.44189 0.74274 0.0
O135 O 0.81386 0.46243 0.6103 0.0
O136 O 0.73537 0.4291 0.66061 0.0
O137 O 0.71857 0.45839 0.59817 0.0
O138 O 0.75535 0.49768 0.71092 0.0
O139 O 0.79837 0.50621 0.72976 0.0
C140 C 0.83055 0.55189 0.53398 0.0
O141 O 0.7354 0.52297 0.47205 0.0
O142 O 0.76307 0.55437 0.589 0.0
C143 C 0.756 0.46777 0.43412 0.0
C144 C 0.80092 0.41002 0.69532 0.0
C145 C 0.79691 0.35268 0.6923 0.0
C146 C 0.78348 0.36062 0.61848 0.0
C147 C 0.78549 0.38911 0.61992 0.0
C148 C 0.81294 0.40104 0.77101 0.0
C149 C 0.81093 0.37263 0.76969 0.0
C150 C 0.80769 0.44337 0.69273 0.0
C151 C 0.71321 0.42951 0.6391 0.0
H152 H 0.76223 0.65102 0.5023 0.0
H153 H 0.76065 0.60444 0.58602 0.0
H154 H 0.74298 0.56432 0.32287 0.0
H155 H 0.7452 0.61159 0.23814 0.0
H156 H 0.77268 0.34591 0.55762 0.0
H157 H 0.77604 0.39562 0.56067 0.0
H158 H 0.82489 0.41685 0.82986 0.0
H159 H 0.82098 0.36678 0.82843 0.0
Tb160 Tb 0.26618 0.93221 0.04082 0.0
Tb161 Tb 0.18822 0.86348 0.0863 0.0
C162 C 0.24024 0.8929 0.24693 0.0
C163 C 0.34747 0.98186 0.97854 0.0
C164 C 0.39538 0.98376 0.96046 0.0
C165 C 0.40269 0.01375 -0.01337 0.0
C166 C 0.37893 0.01279 -0.00465 0.0
C167 C 0.34 0.95181 0.95288 0.0
C168 C 0.36369 0.95276 0.9438 0.0
C169 C 0.32266 0.981 -0.01066 0.0
O170 O 0.25296 0.88303 0.01696 0.0
O171 O 0.20629 0.83814 0.0975 0.0
O172 O 0.19772 0.86982 0.94123 0.0
O173 O 0.23591 0.92996 0.93315 0.0
O174 O 0.14946 0.81229 0.15099 0.0
O175 O 0.14314 0.84241 0.04324 0.0
O176 O 0.20087 0.91255 0.11237 0.0
O177 O 0.25533 0.95781 0.09779 0.0
O178 O 0.26313 0.90997 0.18751 0.0
O179 O 0.21146 0.87789 0.22165 0.0
C180 C 0.23069 0.84947 0.05588 0.0
O181 O 0.29863 0.963 0.93134 0.0
O182 O 0.31398 0.97415 0.0755 0.0
C183 C 0.21723 0.90113 0.89025 0.0
C184 C 0.10182 0.79848 0.15399 0.0
C185 C 0.04354 0.75705 0.23995 0.0
C186 C 0.04738 0.7697 0.14289 0.0
C187 C 0.07617 0.7901 0.10046 0.0
C188 C 0.09868 0.78786 0.25213 0.0
C189 C 0.06981 0.76742 0.29473 0.0
C190 C 0.12942 0.8131 0.10369 0.0
C191 C 0.22843 0.94572 0.12037 0.0
H192 H 0.42675 0.03804 0.00023 0.0
H193 H 0.38511 0.03613 0.01589 0.0
H194 H 0.31581 0.92748 0.94045 0.0
H195 H 0.35704 0.92884 0.92573 0.0
H196 H 0.02776 0.76268 0.09895 0.0
H197 H 0.07792 0.7978 0.02467 0.0
H198 H 0.11802 0.79379 0.29532 0.0
H199 H 0.06761 0.75795 0.36955 0.0
Tb200 Tb 0.41439 0.18311 0.63395 0.0
Tb201 Tb 0.4242 0.12526 0.672 0.0
C202 C 0.43367 0.16791 0.47759 0.0
C203 C 0.38745 0.23227 0.56092 0.0
C204 C 0.35331 0.25013 0.47368 0.0
C205 C 0.38567 0.27388 0.45862 0.0
C206 C 0.40253 0.26507 0.502 0.0
C207 C 0.35486 0.20783 0.57352 0.0
C208 C 0.33797 0.21672 0.53036 0.0
C209 C 0.40669 0.22596 0.61488 0.0
O210 O 0.36845 0.13188 0.60168 0.0
O211 O 0.37972 0.09745 0.59456 0.0
O212 O 0.39165 0.10917 0.77166 0.0
O213 O 0.41534 0.16666 0.78167 0.0
O214 O 0.42216 0.08777 0.62553 0.0
O215 O 0.43426 0.09879 0.77097 0.0
O216 O 0.46797 0.17602 0.72065 0.0
O217 O 0.46444 0.21647 0.64388 0.0
O218 O 0.41618 0.17274 0.49916 0.0
O219 O 0.4464 0.1594 0.54118 0.0
C220 C 0.36079 0.10294 0.5804 0.0
O221 O 0.39266 0.1975 0.67833 0.0
O222 O 0.42718 0.23147 0.56789 0.0
C223 C 0.39725 0.1326 0.81686 0.0
C224 C 0.45523 0.07991 0.70821 0.0
C225 C 0.4953 0.06813 0.7125 0.0
C226 C 0.48589 0.0679 0.79687 0.0
C227 C 0.466 0.07362 0.79466 0.0
C228 C 0.46518 0.08093 0.62378 0.0
C229 C 0.48505 0.07521 0.62597 0.0
C230 C 0.43134 0.08166 0.70745 0.0
C231 C 0.48076 0.20933 0.68894 0.0
H232 H 0.39832 0.30006 0.41662 0.0
H233 H 0.42766 0.28453 0.49196 0.0
H234 H 0.34253 0.18229 0.61863 0.0
H235 H 0.31301 0.19773 0.54264 0.0
H236 H 0.49322 0.06234 0.86465 0.0
H237 H 0.45853 0.07241 0.86074 0.0
H238 H 0.45723 0.08551 0.55584 0.0
H239 H 0.49232 0.07623 0.55963 0.0
H240 H 0.31091 0.24195 0.56443 0.0
H241 H 0.35803 0.28505 0.29866 0.0
H242 H 0.28887 0.2682 0.51083 0.0
H243 H 0.33701 0.31245 0.24648 0.0
H244 H 0.2837 0.34515 0.15376 0.0
H245 H 0.29127 0.30377 0.20146 0.0
H246 H 0.31183 0.32994 0.48716 0.0
H247 H 0.3042 0.37098 0.43975 0.0
C248 C 0.3161 0.25645 0.49388 0.0
C249 C 0.33646 0.2617 0.43609 0.0
C250 C 0.30374 0.27183 0.46357 0.0
C251 C 0.31143 0.29277 0.37479 0.0
C252 C 0.33039 0.2963 0.31501 0.0
C253 C 0.34275 0.28094 0.34532 0.0
C254 C 0.28952 0.34173 0.22693 0.0
C255 C 0.29352 0.36153 0.2928 0.0
C256 C 0.29387 0.31806 0.25423 0.0
C257 C 0.30236 0.3137 0.34798 0.0
C258 C 0.30485 0.33219 0.41469 0.0
C259 C 0.30047 0.35579 0.38745 0.0
H260 H 0.19461 0.41015 0.25052 0.0
H261 H 0.16322 0.4609 0.09835 0.0
H262 H 0.14196 0.35915 0.31187 0.0
H263 H 0.1111 0.41086 0.16245 0.0
H264 H 1.01347 0.30656 0.24257 0.0
H265 H 0.06389 0.34971 0.16434 0.0
H266 H 0.10834 0.34469 0.42299 0.0
H267 H 0.05772 0.29981 0.49892 0.0
C268 C 0.17647 0.41041 0.22986 0.0
C269 C 0.18325 0.43971 0.1694 0.0
C270 C 0.14625 0.38123 0.26568 0.0
C271 C 0.12206 0.38074 0.24287 0.0
C272 C 0.12878 0.40976 0.18064 0.0
C273 C 0.15887 0.43871 0.1441 0.0
C274 C 0.03384 0.31397 0.28219 0.0
C275 C 0.03138 0.29977 0.3776 0.0
C276 C 0.06296 0.33924 0.23761 0.0
C277 C 0.0905 0.35124 0.2873 0.0
C278 C 0.0878 0.33605 0.38173 0.0
C279 C 0.05868 0.31058 0.42597 0.0
H280 H 0.78203 0.01424 0.52929 0.0
H281 H 0.84556 0.11203 0.33823 0.0
H282 H 0.76195 0.97809 0.40124 0.0
H283 H 0.8254 0.07589 0.20887 0.0
H284 H 0.72898 1.00297 0.03159 0.0
H285 H 0.77306 0.04343 0.13609 0.0
H286 H 0.76571 0.95623 0.27187 0.0
H287 H 0.72216 0.91587 0.16509 0.0
C288 C 0.79291 0.02787 0.46086 0.0
C289 C 0.81545 0.06584 0.44378 0.0
C290 C 0.78137 1.00717 0.3871 0.0
C291 C 0.79181 0.0241 0.29437 0.0
C292 C 0.81677 0.06205 0.2794 0.0
C293 C 0.82865 0.08276 0.35377 0.0
C294 C 0.73749 0.99278 0.08149 0.0
C295 C 0.72182 0.95613 0.09112 0.0
C296 C 0.76282 0.01601 0.14136 0.0
C297 C 0.77242 1.00288 0.21383 0.0
C298 C 0.75862 0.96707 0.21752 0.0
C299 C 0.73376 0.94401 0.15598 0.0
H300 H 0.71056 0.6212 0.22619 0.0
H301 H 0.78765 0.70507 0.39275 0.0
H302 H 0.69988 0.6587 0.16157 0.0
H303 H 0.77667 0.74255 0.32842 0.0
H304 H 0.7159 0.77031 0.29514 0.0
H305 H 0.73466 0.74021 0.34527 0.0
H306 H 0.71956 0.71421 0.06204 0.0
H307 H 0.69982 0.74316 0.01272 0.0
C308 C 0.72574 0.64798 0.24746 0.0
C309 C 0.74991 0.65998 0.31509 0.0
C310 C 0.71953 0.6695 0.21048 0.0
C311 C 0.73728 0.70356 0.24028 0.0
C312 C 0.76223 0.71619 0.30518 0.0
C313 C 0.76852 0.69471 0.34197 0.0
C314 C 0.71665 0.75824 0.24354 0.0
C315 C 0.70617 0.75901 0.15004 0.0
C316 C 0.72774 0.74133 0.272 0.0
C317 C 0.7285 0.72466 0.20773 0.0
C318 C 0.71896 0.72643 0.11356 0.0
C319 C 0.70796 0.74341 0.08506 0.0
H320 H 0.98924 0.69874 0.16311 0.0
H321 H 0.02572 0.75377 0.41125 0.0
H322 H 0.93771 0.65152 0.23398 0.0
H323 H 0.9738 0.70579 0.48312 0.0
H324 H 0.86464 0.62444 0.53206 0.0
H325 H 0.91605 0.67641 0.46078 0.0
H326 H 0.91821 0.60323 0.37187 0.0
H327 H 0.86745 0.55176 0.44235 0.0
C328 C 0.98616 0.7011 0.23224 0.0
C329 C 1.01165 0.73011 0.28142 0.0
C330 C 0.95667 0.67381 0.27323 0.0
C331 C 0.95177 0.67481 0.36437 0.0
C332 C 0.97687 0.7044 0.4126 0.0
C333 C 1.00661 0.73168 0.37178 0.0
C334 C 0.87615 0.61951 0.49737 0.0
C335 C 0.86185 0.58388 0.49292 0.0
C336 C 0.9056 0.64925 0.45698 0.0
C337 C 0.92102 0.64385 0.41017 0.0
C338 C 0.90674 0.60827 0.4063 0.0
C339 C 0.87766 0.57873 0.44737 0.0
H340 H 0.26478 0.01853 0.08903 0.0
H341 H 0.20113 0.92359 0.2881 0.0
H342 H 0.28826 0.05673 0.21511 0.0
H343 H 0.22527 0.96171 0.41471 0.0
H344 H 0.32616 0.11547 0.47606 0.0
H345 H 0.28265 0.07684 0.36604 0.0
H346 H 0.28572 0.99507 0.45228 0.0
H347 H 0.32887 0.0331 0.56221 0.0
C348 C 0.25459 1.00608 0.15857 0.0
C349 C 0.23121 0.96818 0.17895 0.0
C350 C 0.26811 0.02792 0.23086 0.0
C351 C 0.25878 0.01202 0.32457 0.0
C352 C 0.23278 0.97453 0.34285 0.0
C353 C 0.21877 0.95277 0.27012 0.0
C354 C 0.31688 0.08875 0.47378 0.0
C355 C 0.33101 0.07734 0.52773 0.0
C356 C 0.29205 0.06677 0.41074 0.0
C357 C 0.28054 0.03277 0.40234 0.0
C358 C 0.29355 0.02066 0.45989 0.0
C359 C 0.31851 0.04267 0.52187 0.0
H360 H 0.19555 0.78062 0.14883 0.0
H361 H 0.27197 0.85924 0.95364 0.0
H362 H 0.2009 0.73832 0.14374 0.0
H363 H 0.27763 0.81727 0.95027 0.0
H364 H 0.25305 0.71627 0.88688 0.0
H365 H 0.24878 0.7594 0.89238 0.0
H366 H 0.23843 0.73183 0.19501 0.0
H367 H 0.2429 0.68876 0.1897 0.0
C368 C 0.21348 0.78892 0.10492 0.0
C369 C 0.23338 0.82338 0.05189 0.0
C370 C 0.2167 0.76478 0.10262 0.0
C371 C 0.23976 0.77453 0.04688 0.0
C372 C 0.25946 0.80885 -0.00671 0.0
C373 C 0.25633 0.83301 -0.00419 0.0
C374 C 0.25038 0.71981 0.95482 0.0
C375 C 0.24835 0.69909 0.03789 0.0
C376 C 0.24784 0.74445 0.9579 0.0
C377 C 0.24315 0.74891 0.04408 0.0
C378 C 0.24152 0.72855 0.12734 0.0
C379 C 0.24413 0.70394 0.1243 0.0
H380 H 0.48947 0.02633 0.60214 0.0
H381 H 0.54635 0.0925 0.8275 0.0
H382 H 0.52376 0.01644 0.59815 0.0
H383 H 0.58105 0.08303 0.82285 0.0
H384 H 0.62545 0.03764 0.83596 0.0
H385 H 0.5873 0.04135 0.85185 0.0
H386 H 0.57469 0.04921 0.5482 0.0
H387 H 0.61203 0.04467 0.53318 0.0
C388 C 0.50949 0.03905 0.65032 0.0
C389 C 0.51544 0.06067 0.71412 0.0
C390 C 0.52922 0.03342 0.64798 0.0
C391 C 0.55552 0.04937 0.70919 0.0
C392 C 0.5609 0.07006 0.77517 0.0
C393 C 0.54104 0.07558 0.77774 0.0
C394 C 0.61436 0.04007 0.7729 0.0
C395 C 0.62162 0.0408 0.68334 0.0
C396 C 0.59261 0.04232 0.78184 0.0
C397 C 0.57781 0.04554 0.7013 0.0
C398 C 0.58502 0.04597 0.61198 0.0
C399 C 0.60652 0.04346 0.6032 0.0
H400 H 0.53386 0.74909 0.05446 0.0
H401 H 0.51878 0.81918 0.93475 0.0
H402 H 0.47776 0.6974 0.06144 0.0
H403 H 0.46182 0.76652 0.94014 0.0
H404 H 0.3628 0.66639 0.07547 0.0
H405 H 0.41856 0.72143 0.05362 0.0
H406 H 0.43321 0.65984 0.95946 0.0
H407 H 0.3781 0.60512 0.98314 0.0
C408 C 0.5186 0.75356 0.02879 0.0
C409 C 0.53106 0.78852 -0.00621 0.0
C410 C 0.48623 0.72366 0.03223 0.0
C411 C 0.46511 0.72758 0.00062 0.0
C412 C 0.47741 0.76252 0.96553 0.0
C413 C 0.51006 0.79267 0.96185 0.0
C414 C 0.37791 0.66469 0.04952 0.0
C415 C 0.36596 0.63115 0.0323 0.0
C416 C 0.40987 0.6963 0.03649 0.0
C417 C 0.43055 0.69507 0.00589 0.0
C418 C 0.4182 0.66175 0.98515 0.0
C419 C 0.38645 0.63028 -0.00158 0.0
H420 H 0.75063 0.28558 0.63193 0.0
H421 H 0.84647 0.35851 0.73706 0.0
H422 H 0.75423 0.24248 0.61505 0.0
H423 H 0.84971 0.31514 0.72296 0.0
H424 H 0.85624 0.24997 0.57472 0.0
H425 H 0.85152 0.29154 0.59552 0.0
H426 H 0.75914 0.20157 0.7108 0.0
H427 H 0.76357 0.15974 0.68893 0.0
C428 C 0.77238 0.29234 0.65177 0.0
C429 C 0.79822 0.32545 0.68598 0.0
C430 C 0.77436 0.26753 0.64293 0.0
C431 C 0.80229 0.27545 0.66746 0.0
C432 C 0.82798 0.30839 0.70248 0.0
C433 C 0.82597 0.33306 0.71165 0.0
C434 C 0.83491 0.23896 0.60465 0.0
C435 C 0.81031 0.20147 0.63014 0.0
C436 C 0.83229 0.26286 0.61704 0.0
C437 C 0.80497 0.24986 0.65495 0.0
C438 C 0.78035 0.21239 0.68053 0.0
C439 C 0.78302 0.18846 0.66853 0.0
H440 H 0.3999 0.95503 0.83112 0.0
H441 H 0.44778 0.01344 0.07397 0.0
H442 H 0.43756 0.94996 0.82997 0.0
H443 H 0.4868 1.01071 0.06874 0.0
H444 H 0.52677 0.95979 0.11195 0.0
H445 H 0.49147 0.96874 0.10618 0.0
H446 H 0.48828 0.97782 0.80139 0.0
H447 H 0.5232 0.96815 0.80758 0.0
C448 C 0.4186 0.96702 0.88398 0.0
C449 C 0.42041 0.9841 0.95363 0.0
C450 C 0.44057 0.9646 0.88246 0.0
C451 C 0.46517 0.97953 0.95003 0.0
C452 C 0.46778 0.99805 0.01701 0.0
C453 C 0.44561 1.00014 0.01911 0.0
C454 C 0.51877 0.96406 0.04362 0.0
C455 C 0.52792 0.96338 0.96025 0.0
C456 C 0.4986 0.96941 0.04016 0.0
C457 C 0.48721 0.97453 0.95311 0.0
C458 C 0.49635 0.97377 0.86971 0.0
C459 C 0.51636 0.96815 0.87323 0.0
H460 H 0.68422 0.35876 0.64539 0.0
H461 H 0.66811 0.42487 0.68907 0.0
H462 H 0.62837 0.30434 0.67015 0.0
H463 H 0.61309 0.37095 0.71853 0.0
H464 H 0.51373 0.28014 0.62494 0.0
H465 H 0.56965 0.33105 0.62381 0.0
H466 H 0.58338 0.26203 0.77181 0.0
H467 H 0.52635 0.20973 0.76946 0.0
C468 C 0.66882 0.36155 0.66189 0.0
C469 C 0.68033 0.39606 0.66334 0.0
C470 C 0.63685 0.33038 0.67669 0.0
C471 C 0.61594 0.33316 0.69467 0.0
C472 C 0.62814 0.36769 0.70183 0.0
C473 C 0.65977 0.39869 0.68527 0.0
C474 C 0.5284 0.27549 0.65814 0.0
C475 C 0.51528 0.24057 0.69747 0.0
C476 C 0.56076 0.30505 0.65815 0.0
C477 C 0.58129 0.30099 0.69863 0.0
C478 C 0.56831 0.26617 0.73941 0.0
C479 C 0.53561 0.23623 0.73877 0.0
H480 H 0.27683 0.48022 0.86164 0.0
H481 H 0.221 0.50664 0.80285 0.0
H482 H 0.27583 0.47755 0.69313 0.0
H483 H 0.22028 0.50459 0.63624 0.0
H484 H 0.22308 0.50262 0.33929 0.0
H485 H 0.20864 0.47542 0.50225 0.0
H486 H 0.30556 0.53191 0.57473 0.0
H487 H 0.31982 0.55799 0.41003 0.0
C488 C 0.26338 0.48404 0.81301 0.0
C489 C 0.2496 0.49446 0.84344 0.0
C490 C 0.26298 0.48278 0.71701 0.0
C491 C 0.24858 0.49164 0.6518 0.0
C492 C 0.23153 0.49756 0.68466 0.0
C493 C 0.23214 0.49906 0.77992 0.0
C494 C 0.24136 0.5094 0.39015 0.0
C495 C 0.2728 0.53336 0.3633 0.0
C496 C 0.23297 0.49339 0.48297 0.0
C497 C 0.25595 0.50159 0.55092 0.0
C498 C 0.28724 0.52459 0.52338 0.0
C499 C 0.29556 0.54016 0.42987 0.0
H500 H 0.85031 0.19439 0.25841 0.0
H501 H 0.75902 0.0862 0.31085 0.0
H502 H 0.84971 0.18304 0.1018 0.0
H503 H 0.75855 0.07419 0.15533 0.0
H504 H 0.76568 0.07456 0.84017 0.0
H505 H 0.75868 0.08273 -0.00979 0.0
H506 H 0.85792 0.14962 0.05281 0.0
H507 H 0.86502 0.14353 0.89895 0.0
C508 C 0.82973 0.16852 0.23503 0.0
C509 C 0.80486 0.14107 0.29632 0.0
C510 C 0.82962 0.16167 0.14629 0.0
C511 C 0.80489 0.127 0.11812 0.0
C512 C 0.77838 0.10089 0.17553 0.0
C513 C 0.77837 0.10792 0.2642 0.0
C514 C 0.7858 0.09023 0.88699 0.0
C515 C 0.81594 0.10869 0.858 0.0
C516 C 0.78184 0.09515 0.97294 0.0
C517 C 0.80793 0.11799 0.03203 0.0
C518 C 0.83753 0.13324 0.00695 0.0
C519 C 0.84158 0.12913 0.91997 0.0
H520 H 0.6539 0.86073 0.75075 0.0
H521 H 0.66248 0.9521 0.70887 0.0
H522 H 0.66448 0.8707 0.5854 0.0
H523 H 0.67298 0.96204 0.54164 0.0
H524 H 0.60833 0.89175 0.28408 0.0
H525 H 0.6276 0.91431 0.43679 0.0
H526 H 0.69814 0.91037 0.44182 0.0
H527 H 0.67854 0.88697 0.29039 0.0
C528 C 0.65872 0.88341 0.70622 0.0
C529 C 0.65629 0.90484 0.7406 0.0
C530 C 0.66537 0.88957 0.61213 0.0
C531 C 0.66916 0.9169 0.5513 0.0
C532 C 0.66993 0.94072 0.5878 0.0
C533 C 0.6637 0.93485 0.68273 0.0
C534 C 0.62804 0.89587 0.31755 0.0
C535 C 0.64117 0.88637 0.27729 0.0
C536 C 0.63955 0.90961 0.40366 0.0
C537 C 0.66435 0.91405 0.4502 0.0
C538 C 0.67895 0.90704 0.40679 0.0
C539 C 0.66731 0.89305 0.32118 0.0
H540 H 0.72612 0.47671 0.29314 0.0
H541 H 0.76789 0.43268 0.36711 0.0
H542 H 0.72328 0.47017 0.12871 0.0
H543 H 0.76514 0.42618 0.20106 0.0
H544 H 0.81371 0.50578 0.91085 0.0
H545 H 0.79941 0.48125 0.07637 0.0
H546 H 0.70389 0.43054 0.00508 0.0
H547 H 0.71816 0.45559 0.84104 0.0
C548 C 0.73388 0.4647 0.27414 0.0
C549 C 0.74785 0.45595 0.34128 0.0
C550 C 0.73194 0.46055 0.18043 0.0
C551 C 0.7443 0.44799 0.1528 0.0
C552 C 0.75566 0.4361 0.22132 0.0
C553 C 0.75719 0.43979 0.31573 0.0
C554 C 0.78966 0.48915 0.93079 0.0
C555 C 0.76737 0.4837 0.86448 0.0
C556 C 0.78133 0.47456 0.02476 0.0
C557 C 0.75057 0.45419 0.05268 0.0
C558 C 0.72777 0.44644 0.98488 0.0
C559 C 0.73614 0.46128 0.89154 0.0
H560 H 0.20334 0.83723 0.38141 0.0
H561 H 0.29117 0.94905 0.3391 0.0
H562 H 0.20517 0.84138 0.54708 0.0
H563 H 0.29364 0.9532 0.50763 0.0
H564 H 0.21367 0.85006 0.84433 0.0
H565 H 0.23005 0.8502 0.69983 0.0
H566 H 0.26044 0.95387 0.59277 0.0
H567 H 0.24558 0.95474 0.74096 0.0
C568 C 0.22369 0.86231 0.40889 0.0
C569 C 0.247 0.89285 0.34832 0.0
C570 C 0.22486 0.86473 0.50387 0.0
C571 C 0.24937 0.89783 0.53994 0.0
C572 C 0.27425 0.92758 0.48094 0.0
C573 C 0.2731 0.92507 0.38526 0.0
C574 C 0.22397 0.87304 0.79017 0.0
C575 C 0.2275 0.90198 0.80226 0.0
C576 C 0.23358 0.8732 0.70775 0.0
C577 C 0.24621 0.90184 0.63458 0.0
C578 C 0.25115 0.93164 0.64837 0.0
C579 C 0.24214 0.93188 0.73223 0.0
H580 H 0.43915 0.20862 0.31872 0.0
H581 H 0.41904 0.11075 0.42431 0.0
H582 H 0.42219 0.19013 0.16117 0.0
H583 H 0.39995 0.09075 0.26831 0.0
H584 H 0.4106 0.09986 0.94536 0.0
H585 H 0.41685 0.10345 0.11398 0.0
H586 H 0.37455 0.14701 0.07977 0.0
H587 H 0.37059 0.14577 0.9097 0.0
C588 C 0.43152 0.18342 0.30721 0.0
C589 C 0.43079 0.16133 0.38173 0.0
C590 C 0.42107 0.17232 0.21811 0.0
C591 C 0.40884 0.13843 0.20338 0.0
C592 C 0.40924 0.11695 0.27774 0.0
C593 C 0.42049 0.12856 0.36641 0.0
C594 C 0.40166 0.10893 0.97498 0.0
C595 C 0.39069 0.12318 0.91638 0.0
C596 C 0.40521 0.11102 0.07129 0.0
C597 C 0.39724 0.12679 0.10904 0.0
C598 C 0.38207 0.13615 0.05143 0.0
C599 C 0.37943 0.13508 0.95486 0.0
loop_
_geom_bond_atom_site_label_1
_geom_bond_atom_site_label_2
_geom_bond_distance
_geom_bond_site_symmetry_2
_ccdc_geom_bond_type
Tb0 C9 2.764 1_554 S
Tb0 O10 2.325 . S
Tb0 O13 2.303 1_554 S
Tb0 O17 2.322 . S
Tb0 O18 2.349 . S
Tb0 O21 2.415 1_554 S
Tb0 O22 2.399 . S
Tb1 O11 2.322 . S
Tb1 O12 2.349 1_554 S
Tb1 O14 2.415 . S
Tb1 O15 2.399 . S
Tb1 O16 2.325 . S
Tb1 O19 2.303 . S
Tb1 C30 2.764 . S
C2 O18 1.261 . S
C2 O19 1.257 . S
C3 C6 1.358 1_556 S
C3 C7 1.332 . S
C3 C9 1.504 . S
C4 C5 1.373 . S
C4 C8 1.308 . S
C5 C4 1.373 . S
C5 C6 1.429 1_556 S
C5 H32 0.932 1_556 S
C6 C3 1.358 1_554 S
C6 C5 1.429 1_554 S
C6 H33 0.930 . S
C7 C3 1.332 . S
C7 C8 1.394 . S
C7 H34 0.932 . S
C8 C4 1.308 . S
C8 C7 1.394 . S
C8 H35 0.929 . S
C9 Tb0 2.764 1_556 S
C9 C3 1.504 . S
C9 O21 1.239 . S
C9 O22 1.263 1_556 S
O10 Tb0 2.325 . S
O10 C20 1.236 . S
O11 Tb1 2.322 . S
O11 C20 1.257 . S
O12 Tb1 2.349 1_556 S
O12 C23 1.261 . S
O13 Tb0 2.303 1_556 S
O13 C23 1.257 . S
O14 Tb1 2.415 . S
O14 C30 1.239 . S
O15 Tb1 2.399 . S
O15 C30 1.263 . S
O16 Tb1 2.325 . S
O16 C31 1.236 . S
O17 Tb0 2.322 . S
O17 C31 1.257 . S
O18 Tb0 2.349 . S
O18 C2 1.261 . S
O19 Tb1 2.303 . S
O19 C2 1.257 . S
C20 O10 1.236 . S
C20 O11 1.257 . S
O21 Tb0 2.415 1_556 S
O21 C9 1.239 . S
O22 Tb0 2.399 . S
O22 C9 1.263 1_554 S
C23 O12 1.261 . S
C23 O13 1.257 . S
C24 C27 1.358 . S
C24 C28 1.332 . S
C24 C30 1.504 . S
C25 C26 1.373 . S
C25 C29 1.308 . S
C26 C25 1.373 . S
C26 C27 1.429 . S
C26 H36 0.932 . S
C27 C24 1.358 . S
C27 C26 1.429 . S
C27 H37 0.930 . S
C28 C24 1.332 . S
C28 C29 1.394 . S
C28 H38 0.932 . S
C29 C25 1.308 . S
C29 C28 1.394 . S
C29 H39 0.929 . S
C30 Tb1 2.764 . S
C30 O14 1.239 . S
C30 O15 1.263 . S
C30 C24 1.504 . S
C31 O16 1.236 . S
C31 O17 1.257 . S
H32 C5 0.932 1_554 S
H33 C6 0.930 . S
H34 C7 0.932 . S
H35 C8 0.929 . S
H36 C26 0.932 . S
H37 C27 0.930 . S
H38 C28 0.932 . S
H39 C29 0.929 . S
Tb40 C49 2.764 . S
Tb40 O50 2.325 . S
Tb40 O53 2.303 . S
Tb40 O57 2.322 . S
Tb40 O58 2.349 . S
Tb40 O61 2.415 . S
Tb40 O62 2.399 . S
Tb41 O51 2.322 . S
Tb41 O52 2.349 . S
Tb41 O54 2.415 . S
Tb41 O55 2.399 . S
Tb41 O56 2.325 . S
Tb41 O59 2.303 . S
Tb41 C70 2.764 . S
C42 O58 1.261 . S
C42 O59 1.257 . S
C43 C46 1.358 . S
C43 C47 1.332 . S
C43 C49 1.504 . S
C44 C45 1.373 . S
C44 C48 1.308 . S
C45 C44 1.373 . S
C45 C46 1.429 . S
C45 H72 0.932 . S
C46 C43 1.358 . S
C46 C45 1.429 . S
C46 H73 0.930 . S
C47 C43 1.332 . S
C47 C48 1.394 . S
C47 H74 0.932 . S
C48 C44 1.308 . S
C48 C47 1.394 . S
C48 H75 0.929 . S
C49 Tb40 2.764 . S
C49 C43 1.504 . S
C49 O61 1.239 . S
C49 O62 1.263 . S
O50 Tb40 2.325 . S
O50 C60 1.236 . S
O51 Tb41 2.322 . S
O51 C60 1.257 . S
O52 Tb41 2.349 . S
O52 C63 1.261 . S
O53 Tb40 2.303 . S
O53 C63 1.257 . S
O54 Tb41 2.415 . S
O54 C70 1.239 . S
O55 Tb41 2.399 . S
O55 C70 1.263 . S
O56 Tb41 2.325 . S
O56 C71 1.236 . S
O57 Tb40 2.322 . S
O57 C71 1.257 . S
O58 Tb40 2.349 . S
O58 C42 1.261 . S
O59 Tb41 2.303 . S
O59 C42 1.257 . S
C60 O50 1.236 . S
C60 O51 1.257 . S
O61 Tb40 2.415 . S
O61 C49 1.239 . S
O62 Tb40 2.399 . S
O62 C49 1.263 . S
C63 O52 1.261 . S
C63 O53 1.257 . S
C64 C67 1.358 . S
C64 C68 1.332 . S
C64 C70 1.504 . S
C65 C66 1.373 . S
C65 C69 1.308 . S
C66 C65 1.373 . S
C66 C67 1.429 . S
C66 H76 0.932 . S
C67 C64 1.358 . S
C67 C66 1.429 . S
C67 H77 0.930 . S
C68 C64 1.332 . S
C68 C69 1.394 . S
C68 H78 0.932 . S
C69 C65 1.308 . S
C69 C68 1.394 . S
C69 H79 0.929 . S
C70 Tb41 2.764 . S
C70 O54 1.239 . S
C70 O55 1.263 . S
C70 C64 1.504 . S
C71 O56 1.236 . S
C71 O57 1.257 . S
H72 C45 0.932 . S
H73 C46 0.930 . S
H74 C47 0.932 . S
H75 C48 0.929 . S
H76 C66 0.932 . S
H77 C67 0.930 . S
H78 C68 0.932 . S
H79 C69 0.929 . S
Tb80 C89 2.764 . S
Tb80 O90 2.325 . S
Tb80 O93 2.303 1_556 S
Tb80 O97 2.322 . S
Tb80 O98 2.349 . S
Tb80 O101 2.415 1_556 S
Tb80 O102 2.399 . S
Tb81 O91 2.322 . S
Tb81 O92 2.349 . S
Tb81 O94 2.415 1_554 S
Tb81 O95 2.399 . S
Tb81 O96 2.325 . S
Tb81 O99 2.303 1_554 S
Tb81 C110 2.764 . S
C82 O98 1.261 . S
C82 O99 1.257 . S
C83 C86 1.358 . S
C83 C87 1.332 1_556 S
C83 C89 1.504 . S
C84 C85 1.373 . S
C84 C88 1.308 . S
C85 C84 1.373 . S
C85 C86 1.429 . S
C85 H112 0.932 . S
C86 C83 1.358 . S
C86 C85 1.429 . S
C86 H113 0.930 . S
C87 C83 1.332 1_554 S
C87 C88 1.394 1_554 S
C87 H114 0.932 . S
C88 C84 1.308 . S
C88 C87 1.394 1_556 S
C88 H115 0.929 1_556 S
C89 Tb80 2.764 . S
C89 C83 1.504 . S
C89 O101 1.239 1_556 S
C89 O102 1.263 . S
O90 Tb80 2.325 . S
O90 C100 1.236 . S
O91 Tb81 2.322 . S
O91 C100 1.257 1_554 S
O92 Tb81 2.349 . S
O92 C103 1.261 . S
O93 Tb80 2.303 1_554 S
O93 C103 1.257 . S
O94 Tb81 2.415 1_556 S
O94 C110 1.239 1_556 S
O95 Tb81 2.399 . S
O95 C110 1.263 . S
O96 Tb81 2.325 . S
O96 C111 1.236 . S
O97 Tb80 2.322 . S
O97 C111 1.257 1_556 S
O98 Tb80 2.349 . S
O98 C82 1.261 . S
O99 Tb81 2.303 1_556 S
O99 C82 1.257 . S
C100 O90 1.236 . S
C100 O91 1.257 1_556 S
O101 Tb80 2.415 1_554 S
O101 C89 1.239 1_554 S
O102 Tb80 2.399 . S
O102 C89 1.263 . S
C103 O92 1.261 . S
C103 O93 1.257 . S
C104 C107 1.358 . S
C104 C108 1.327 1_554 S
C104 C110 1.504 . S
C105 C106 1.373 . S
C105 C109 1.308 . S
C106 C105 1.373 . S
C106 C107 1.429 . S
C106 H116 0.932 . S
C107 C104 1.358 . S
C107 C106 1.429 . S
C107 H117 0.930 . S
C108 C104 1.327 1_556 S
C108 C109 1.395 1_556 S
C108 H118 0.936 . S
C109 C105 1.308 . S
C109 C108 1.395 1_554 S
C109 H119 0.929 1_554 S
C110 Tb81 2.764 . S
C110 O94 1.239 1_554 S
C110 O95 1.263 . S
C110 C104 1.504 . S
C111 O96 1.236 . S
C111 O97 1.257 1_554 S
H112 C85 0.932 . S
H113 C86 0.930 . S
H114 C87 0.932 . S
H115 C88 0.929 1_554 S
H116 C106 0.932 . S
H117 C107 0.930 . S
H118 C108 0.936 . S
H119 C109 0.929 1_556 S
Tb120 C129 2.764 . S
Tb120 O130 2.325 . S
Tb120 O133 2.303 . S
Tb120 O137 2.322 . S
Tb120 O138 2.349 . S
Tb120 O141 2.415 . S
Tb120 O142 2.399 . S
Tb121 O131 2.322 . S
Tb121 O132 2.349 . S
Tb121 O134 2.415 . S
Tb121 O135 2.399 . S
Tb121 O136 2.325 . S
Tb121 O139 2.303 . S
Tb121 C150 2.764 . S
C122 O138 1.261 . S
C122 O139 1.257 . S
C123 C126 1.358 . S
C123 C127 1.332 . S
C123 C129 1.504 . S
C124 C125 1.373 . S
C124 C128 1.308 . S
C125 C124 1.373 . S
C125 C126 1.429 . S
C125 H152 0.932 . S
C126 C123 1.358 . S
C126 C125 1.429 . S
C126 H153 0.930 . S
C127 C123 1.332 . S
C127 C128 1.394 . S
C127 H154 0.932 . S
C128 C124 1.308 . S
C128 C127 1.394 . S
C128 H155 0.929 . S
C129 Tb120 2.764 . S
C129 C123 1.504 . S
C129 O141 1.239 . S
C129 O142 1.263 . S
O130 Tb120 2.325 . S
O130 C140 1.236 . S
O131 Tb121 2.322 . S
O131 C140 1.257 . S
O132 Tb121 2.349 . S
O132 C143 1.261 . S
O133 Tb120 2.303 . S
O133 C143 1.257 . S
O134 Tb121 2.415 . S
O134 C150 1.239 . S
O135 Tb121 2.399 . S
O135 C150 1.263 . S
O136 Tb121 2.325 . S
O136 C151 1.236 . S
O137 Tb120 2.322 . S
O137 C151 1.257 . S
O138 Tb120 2.349 . S
O138 C122 1.261 . S
O139 Tb121 2.303 . S
O139 C122 1.257 . S
C140 O130 1.236 . S
C140 O131 1.257 . S
O141 Tb120 2.415 . S
O141 C129 1.239 . S
O142 Tb120 2.399 . S
O142 C129 1.263 . S
C143 O132 1.261 . S
C143 O133 1.257 . S
C144 C147 1.358 . S
C144 C148 1.332 . S
C144 C150 1.504 . S
C145 C146 1.373 . S
C145 C149 1.308 . S
C146 C145 1.373 . S
C146 C147 1.429 . S
C146 H156 0.932 . S
C147 C144 1.358 . S
C147 C146 1.429 . S
C147 H157 0.930 . S
C148 C144 1.332 . S
C148 C149 1.394 . S
C148 H158 0.932 . S
C149 C145 1.308 . S
C149 C148 1.394 . S
C149 H159 0.929 . S
C150 Tb121 2.764 . S
C150 O134 1.239 . S
C150 O135 1.263 . S
C150 C144 1.504 . S
C151 O136 1.236 . S
C151 O137 1.257 . S
H152 C125 0.932 . S
H153 C126 0.930 . S
H154 C127 0.932 . S
H155 C128 0.929 . S
H156 C146 0.932 . S
H157 C147 0.930 . S
H158 C148 0.932 . S
H159 C149 0.929 . S
Tb160 C169 2.764 . S
Tb160 O170 2.325 . S
Tb160 O173 2.303 1_554 S
Tb160 O177 2.322 . S
Tb160 O178 2.349 . S
Tb160 O181 2.415 1_554 S
Tb160 O182 2.399 . S
Tb161 O171 2.322 . S
Tb161 O172 2.349 1_554 S
Tb161 O174 2.415 . S
Tb161 O175 2.399 1_554 S
Tb161 O176 2.325 . S
Tb161 O179 2.303 . S
Tb161 C190 2.764 . S
C162 O178 1.261 . S
C162 O179 1.257 . S
C163 C166 1.358 1_556 S
C163 C167 1.332 . S
C163 C169 1.504 1_556 S
C164 C165 1.373 1_556 S
C164 C168 1.308 . S
C165 C164 1.373 1_554 S
C165 C166 1.429 . S
C165 H192 0.932 . S
C166 C163 1.358 1_554 S
C166 C165 1.429 . S
C166 H193 0.930 . S
C167 C163 1.332 . S
C167 C168 1.394 . S
C167 H194 0.932 . S
C168 C164 1.308 . S
C168 C167 1.394 . S
C168 H195 0.929 . S
C169 Tb160 2.764 . S
C169 C163 1.504 1_554 S
C169 O181 1.239 1_554 S
C169 O182 1.263 . S
O170 Tb160 2.325 . S
O170 C180 1.236 . S
O171 Tb161 2.322 . S
O171 C180 1.257 . S
O172 Tb161 2.349 1_556 S
O172 C183 1.261 . S
O173 Tb160 2.303 1_556 S
O173 C183 1.257 . S
O174 Tb161 2.415 . S
O174 C190 1.239 . S
O175 Tb161 2.399 1_556 S
O175 C190 1.263 1_556 S
O176 Tb161 2.325 . S
O176 C191 1.236 . S
O177 Tb160 2.322 . S
O177 C191 1.257 . S
O178 Tb160 2.349 . S
O178 C162 1.261 . S
O179 Tb161 2.303 . S
O179 C162 1.257 . S
C180 O170 1.236 . S
C180 O171 1.257 . S
O181 Tb160 2.415 1_556 S
O181 C169 1.239 1_556 S
O182 Tb160 2.399 . S
O182 C169 1.263 . S
C183 O172 1.261 . S
C183 O173 1.257 . S
C184 C187 1.358 . S
C184 C188 1.332 . S
C184 C190 1.504 . S
C185 C186 1.373 . S
C185 C189 1.308 . S
C186 C185 1.373 . S
C186 C187 1.429 . S
C186 H196 0.932 . S
C187 C184 1.358 . S
C187 C186 1.429 . S
C187 H197 0.930 1_554 S
C188 C184 1.332 . S
C188 C189 1.394 . S
C188 H198 0.932 . S
C189 C185 1.308 . S
C189 C188 1.394 . S
C189 H199 0.929 . S
C190 Tb161 2.764 . S
C190 O174 1.239 . S
C190 O175 1.263 1_554 S
C190 C184 1.504 . S
C191 O176 1.236 . S
C191 O177 1.257 . S
H192 C165 0.932 . S
H193 C166 0.930 . S
H194 C167 0.932 . S
H195 C168 0.929 . S
H196 C186 0.932 . S
H197 C187 0.930 1_556 S
H198 C188 0.932 . S
H199 C189 0.929 . S
Tb200 C209 2.764 . S
Tb200 O210 2.325 . S
Tb200 O213 2.303 . S
Tb200 O217 2.322 . S
Tb200 O218 2.349 . S
Tb200 O221 2.415 . S
Tb200 O222 2.399 . S
Tb201 O211 2.322 . S
Tb201 O212 2.349 . S
Tb201 O214 2.415 . S
Tb201 O215 2.399 . S
Tb201 O216 2.325 . S
Tb201 O219 2.303 . S
Tb201 C230 2.764 . S
C202 O218 1.261 . S
C202 O219 1.257 . S
C203 C206 1.358 . S
C203 C207 1.332 . S
C203 C209 1.504 . S
C204 C205 1.373 . S
C204 C208 1.308 . S
C205 C204 1.373 . S
C205 C206 1.429 . S
C205 H232 0.932 . S
C206 C203 1.358 . S
C206 C205 1.429 . S
C206 H233 0.930 . S
C207 C203 1.332 . S
C207 C208 1.394 . S
C207 H234 0.932 . S
C208 C204 1.308 . S
C208 C207 1.394 . S
C208 H235 0.929 . S
C209 Tb200 2.764 . S
C209 C203 1.504 . S
C209 O221 1.239 . S
C209 O222 1.263 . S
O210 Tb200 2.325 . S
O210 C220 1.236 . S
O211 Tb201 2.322 . S
O211 C220 1.257 . S
O212 Tb201 2.349 . S
O212 C223 1.261 . S
O213 Tb200 2.303 . S
O213 C223 1.257 . S
O214 Tb201 2.415 . S
O214 C230 1.239 . S
O215 Tb201 2.399 . S
O215 C230 1.263 . S
O216 Tb201 2.325 . S
O216 C231 1.236 . S
O217 Tb200 2.322 . S
O217 C231 1.257 . S
O218 Tb200 2.349 . S
O218 C202 1.261 . S
O219 Tb201 2.303 . S
O219 C202 1.257 . S
C220 O210 1.236 . S
C220 O211 1.257 . S
O221 Tb200 2.415 . S
O221 C209 1.239 . S
O222 Tb200 2.399 . S
O222 C209 1.263 . S
C223 O212 1.261 . S
C223 O213 1.257 . S
C224 C227 1.358 . S
C224 C228 1.332 . S
C224 C230 1.504 . S
C225 C226 1.373 . S
C225 C229 1.308 . S
C226 C225 1.373 . S
C226 C227 1.429 . S
C226 H236 0.932 . S
C227 C224 1.358 . S
C227 C226 1.429 . S
C227 H237 0.930 . S
C228 C224 1.332 . S
C228 C229 1.394 . S
C228 H238 0.932 . S
C229 C225 1.308 . S
C229 C228 1.394 . S
C229 H239 0.929 . S
C230 Tb201 2.764 . S
C230 O214 1.239 . S
C230 O215 1.263 . S
C230 C224 1.504 . S
C231 O216 1.236 . S
C231 O217 1.257 . S
H232 C205 0.932 . S
H233 C206 0.930 . S
H234 C207 0.932 . S
H235 C208 0.929 . S
H236 C226 0.932 . S
H237 C227 0.930 . S
H238 C228 0.932 . S
H239 C229 0.929 . S
H240 C248 0.950 . S
H241 C253 0.950 . S
H242 C250 0.950 . S
H243 C252 0.950 . S
H244 C254 0.950 . S
H245 C256 0.950 . S
H246 C258 0.950 . S
H247 C259 0.950 . S
C248 H240 0.950 . S
C248 C249 1.386 . S
C248 C250 1.391 . S
C249 C248 1.386 . S
C249 C253 1.393 . S
C250 H242 0.950 . S
C250 C248 1.391 . S
C250 C251 1.400 . S
C251 C250 1.400 . S
C251 C252 1.398 . S
C251 C257 1.491 . S
C252 H243 0.950 . S
C252 C251 1.398 . S
C252 C253 1.391 . S
C253 H241 0.950 . S
C253 C249 1.393 . S
C253 C252 1.391 . S
C254 H244 0.950 . S
C254 C255 1.386 . S
C254 C256 1.391 . S
C255 C254 1.386 . S
C255 C259 1.393 . S
C256 H245 0.950 . S
C256 C254 1.391 . S
C256 C257 1.400 . S
C257 C251 1.491 . S
C257 C256 1.400 . S
C257 C258 1.398 . S
C258 H246 0.950 . S
C258 C257 1.398 . S
C258 C259 1.391 . S
C259 H247 0.950 . S
C259 C255 1.393 . S
C259 C258 1.391 . S
H260 C268 0.950 . S
H261 C273 0.950 . S
H262 C270 0.950 . S
H263 C272 0.950 . S
H264 C274 0.906 1_655 S
H265 C276 0.950 . S
H266 C278 0.950 . S
H267 C279 0.950 . S
C268 H260 0.950 . S
C268 C269 1.386 . S
C268 C270 1.391 . S
C269 C268 1.386 . S
C269 C273 1.393 . S
C270 H262 0.950 . S
C270 C268 1.391 . S
C270 C271 1.400 . S
C271 C270 1.400 . S
C271 C272 1.398 . S
C271 C277 1.491 . S
C272 H263 0.950 . S
C272 C271 1.398 . S
C272 C273 1.391 . S
C273 H261 0.950 . S
C273 C269 1.393 . S
C273 C272 1.391 . S
C274 H264 0.906 1_455 S
C274 C275 1.386 . S
C274 C276 1.391 . S
C275 C274 1.386 . S
C275 C279 1.393 . S
C276 H265 0.950 . S
C276 C274 1.391 . S
C276 C277 1.400 . S
C277 C271 1.491 . S
C277 C276 1.400 . S
C277 C278 1.398 . S
C278 H266 0.950 . S
C278 C277 1.398 . S
C278 C279 1.391 . S
C279 H267 0.950 . S
C279 C275 1.393 . S
C279 C278 1.391 . S
H280 C288 0.950 . S
H281 C293 0.950 . S
H282 C290 0.950 . S
H283 C292 0.950 . S
H284 C294 0.950 . S
H285 C296 0.950 . S
H286 C298 0.950 . S
H287 C299 0.950 . S
C288 H280 0.950 . S
C288 C289 1.386 1_565 S
C288 C290 1.391 . S
C289 C288 1.386 1_545 S
C289 C293 1.393 . S
C290 H282 0.950 . S
C290 C288 1.391 . S
C290 C291 1.400 1_565 S
C291 C290 1.400 1_545 S
C291 C292 1.398 . S
C291 C297 1.491 1_545 S
C292 H283 0.950 . S
C292 C291 1.398 . S
C292 C293 1.391 . S
C293 H281 0.950 . S
C293 C289 1.393 . S
C293 C292 1.391 . S
C294 H284 0.950 . S
C294 C295 1.386 1_545 S
C294 C296 1.391 . S
C295 C294 1.386 1_565 S
C295 C299 1.393 . S
C296 H285 0.950 . S
C296 C294 1.391 . S
C296 C297 1.400 1_545 S
C297 C291 1.491 1_565 S
C297 C296 1.400 1_565 S
C297 C298 1.398 . S
C298 H286 0.950 . S
C298 C297 1.398 . S
C298 C299 1.391 . S
C299 H287 0.950 . S
C299 C295 1.393 . S
C299 C298 1.391 . S
H300 C308 0.950 . S
H301 C313 0.950 . S
H302 C310 0.950 . S
H303 C312 0.950 . S
H304 C314 0.950 . S
H305 C316 0.950 . S
H306 C318 0.950 . S
H307 C319 0.950 . S
C308 H300 0.950 . S
C308 C309 1.386 . S
C308 C310 1.391 . S
C309 C308 1.386 . S
C309 C313 1.393 . S
C310 H302 0.950 . S
C310 C308 1.391 . S
C310 C311 1.400 . S
C311 C310 1.400 . S
C311 C312 1.398 . S
C311 C317 1.491 . S
C312 H303 0.950 . S
C312 C311 1.398 . S
C312 C313 1.391 . S
C313 H301 0.950 . S
C313 C309 1.393 . S
C313 C312 1.391 . S
C314 H304 0.950 . S
C314 C315 1.386 . S
C314 C316 1.391 . S
C315 C314 1.386 . S
C315 C319 1.393 . S
C316 H305 0.950 . S
C316 C314 1.391 . S
C316 C317 1.400 . S
C317 C311 1.491 . S
C317 C316 1.400 . S
C317 C318 1.398 . S
C318 H306 0.950 . S
C318 C317 1.398 . S
C318 C319 1.391 . S
C319 H307 0.950 . S
C319 C315 1.393 . S
C319 C318 1.391 . S
H320 C328 0.950 . S
H321 C333 0.950 . S
H322 C330 0.950 . S
H323 C332 0.950 . S
H324 C334 0.950 . S
H325 C336 0.950 . S
H326 C338 0.950 . S
H327 C339 0.950 . S
C328 H320 0.950 . S
C328 C329 1.386 . S
C328 C330 1.391 . S
C329 C328 1.386 . S
C329 C333 1.393 . S
C330 H322 0.950 . S
C330 C328 1.391 . S
C330 C331 1.400 . S
C331 C330 1.400 . S
C331 C332 1.398 . S
C331 C337 1.491 . S
C332 H323 0.950 . S
C332 C331 1.398 . S
C332 C333 1.391 . S
C333 H321 0.950 . S
C333 C329 1.393 . S
C333 C332 1.391 . S
C334 H324 0.950 . S
C334 C335 1.386 . S
C334 C336 1.391 . S
C335 C334 1.386 . S
C335 C339 1.393 . S
C336 H325 0.950 . S
C336 C334 1.391 . S
C336 C337 1.400 . S
C337 C331 1.491 . S
C337 C336 1.400 . S
C337 C338 1.398 . S
C338 H326 0.950 . S
C338 C337 1.398 . S
C338 C339 1.391 . S
C339 H327 0.950 . S
C339 C335 1.393 . S
C339 C338 1.391 . S
H340 C348 0.950 . S
H341 C353 0.950 . S
H342 C350 0.950 . S
H343 C352 0.950 1_545 S
H344 C354 0.950 . S
H345 C356 0.950 . S
H346 C358 0.950 . S
H347 C359 0.950 . S
C348 H340 0.950 . S
C348 C349 1.386 . S
C348 C350 1.391 . S
C349 C348 1.386 . S
C349 C353 1.393 . S
C350 H342 0.950 . S
C350 C348 1.391 . S
C350 C351 1.400 . S
C351 C350 1.400 . S
C351 C352 1.398 . S
C351 C357 1.491 1_565 S
C352 H343 0.950 1_565 S
C352 C351 1.398 . S
C352 C353 1.391 . S
C353 H341 0.950 . S
C353 C349 1.393 . S
C353 C352 1.391 . S
C354 H344 0.950 . S
C354 C355 1.386 . S
C354 C356 1.391 . S
C355 C354 1.386 . S
C355 C359 1.393 . S
C356 H345 0.950 . S
C356 C354 1.391 . S
C356 C357 1.400 . S
C357 C351 1.491 1_545 S
C357 C356 1.400 . S
C357 C358 1.398 1_545 S
C358 H346 0.950 . S
C358 C357 1.398 1_565 S
C358 C359 1.391 1_565 S
C359 H347 0.950 . S
C359 C355 1.393 . S
C359 C358 1.391 1_545 S
H360 C368 0.950 . S
H361 C373 0.950 . S
H362 C370 0.950 . S
H363 C372 0.950 . S
H364 C374 0.950 . S
H365 C376 0.950 . S
H366 C378 0.949 1_554 S
H367 C379 0.950 1_554 S
C368 H360 0.950 . S
C368 C369 1.386 1_554 S
C368 C370 1.391 . S
C369 C368 1.386 1_556 S
C369 C373 1.393 . S
C370 H362 0.950 . S
C370 C368 1.391 . S
C370 C371 1.400 1_554 S
C371 C370 1.400 1_556 S
C371 C372 1.398 . S
C371 C377 1.491 . S
C372 H363 0.950 . S
C372 C371 1.398 . S
C372 C373 1.391 . S
C373 H361 0.950 . S
C373 C369 1.393 . S
C373 C372 1.391 . S
C374 H364 0.950 . S
C374 C375 1.386 . S
C374 C376 1.391 . S
C375 C374 1.386 . S
C375 C379 1.393 . S
C376 H365 0.950 . S
C376 C374 1.391 . S
C376 C377 1.400 . S
C377 C371 1.491 . S
C377 C376 1.400 . S
C377 C378 1.399 . S
C378 H366 0.949 1_556 S
C378 C377 1.399 . S
C378 C379 1.391 . S
C379 H367 0.950 1_556 S
C379 C375 1.393 . S
C379 C378 1.391 . S
H380 C388 0.950 . S
H381 C393 0.950 . S
H382 C390 0.950 . S
H383 C392 0.950 . S
H384 C394 0.950 . S
H385 C396 0.950 . S
H386 C398 0.950 . S
H387 C399 0.950 . S
C388 H380 0.950 . S
C388 C389 1.386 . S
C388 C390 1.391 . S
C389 C388 1.386 . S
C389 C393 1.393 . S
C390 H382 0.950 . S
C390 C388 1.391 . S
C390 C391 1.400 . S
C391 C390 1.400 . S
C391 C392 1.398 . S
C391 C397 1.491 . S
C392 H383 0.950 . S
C392 C391 1.398 . S
C392 C393 1.391 . S
C393 H381 0.950 . S
C393 C389 1.393 . S
C393 C392 1.391 . S
C394 H384 0.950 . S
C394 C395 1.386 . S
C394 C396 1.391 . S
C395 C394 1.386 . S
C395 C399 1.393 . S
C396 H385 0.950 . S
C396 C394 1.391 . S
C396 C397 1.400 . S
C397 C391 1.491 . S
C397 C396 1.400 . S
C397 C398 1.398 . S
C398 H386 0.950 . S
C398 C397 1.398 . S
C398 C399 1.391 . S
C399 H387 0.950 . S
C399 C395 1.393 . S
C399 C398 1.391 . S
H400 C408 0.950 . S
H401 C413 0.950 . S
H402 C410 0.950 . S
H403 C412 0.950 . S
H404 C414 0.950 . S
H405 C416 0.950 . S
H406 C418 0.950 . S
H407 C419 0.950 . S
C408 H400 0.950 . S
C408 C409 1.386 1_554 S
C408 C410 1.391 . S
C409 C408 1.386 1_556 S
C409 C413 1.393 . S
C410 H402 0.950 . S
C410 C408 1.391 . S
C410 C411 1.400 1_554 S
C411 C410 1.400 1_556 S
C411 C412 1.398 . S
C411 C417 1.491 . S
C412 H403 0.950 . S
C412 C411 1.398 . S
C412 C413 1.391 . S
C413 H401 0.950 . S
C413 C409 1.393 . S
C413 C412 1.391 . S
C414 H404 0.950 . S
C414 C415 1.386 1_556 S
C414 C416 1.391 . S
C415 C414 1.386 1_554 S
C415 C419 1.393 . S
C416 H405 0.950 . S
C416 C414 1.391 . S
C416 C417 1.401 . S
C417 C411 1.491 . S
C417 C416 1.401 . S
C417 C418 1.397 1_556 S
C418 H406 0.950 . S
C418 C417 1.397 1_554 S
C418 C419 1.391 . S
C419 H407 0.950 . S
C419 C415 1.393 . S
C419 C418 1.391 . S
H420 C428 0.950 . S
H421 C433 0.950 . S
H422 C430 0.950 . S
H423 C432 0.950 . S
H424 C434 0.950 . S
H425 C436 0.950 . S
H426 C438 0.950 . S
H427 C439 0.950 . S
C428 H420 0.950 . S
C428 C429 1.386 . S
C428 C430 1.391 . S
C429 C428 1.386 . S
C429 C433 1.393 . S
C430 H422 0.950 . S
C430 C428 1.391 . S
C430 C431 1.400 . S
C431 C430 1.400 . S
C431 C432 1.398 . S
C431 C437 1.491 . S
C432 H423 0.950 . S
C432 C431 1.398 . S
C432 C433 1.391 . S
C433 H421 0.950 . S
C433 C429 1.393 . S
C433 C432 1.391 . S
C434 H424 0.950 . S
C434 C435 1.386 . S
C434 C436 1.391 . S
C435 C434 1.386 . S
C435 C439 1.393 . S
C436 H425 0.950 . S
C436 C434 1.391 . S
C436 C437 1.400 . S
C437 C431 1.491 . S
C437 C436 1.400 . S
C437 C438 1.398 . S
C438 H426 0.950 . S
C438 C437 1.398 . S
C438 C439 1.391 . S
C439 H427 0.950 . S
C439 C435 1.393 . S
C439 C438 1.391 . S
H440 C448 0.950 1_545 S
H441 C453 0.950 . S
H442 C450 0.950 1_545 S
H443 C452 0.950 . S
H444 C454 0.950 1_554 S
H445 C456 0.950 1_554 S
H446 C458 0.950 . S
H447 C459 0.950 . S
C448 H440 0.950 1_565 S
C448 C449 1.386 . S
C448 C450 1.391 . S
C449 C448 1.386 . S
C449 C453 1.393 1_556 S
C450 H442 0.950 1_565 S
C450 C448 1.391 . S
C450 C451 1.400 . S
C451 C450 1.400 . S
C451 C452 1.398 1_556 S
C451 C457 1.491 . S
C452 H443 0.950 . S
C452 C451 1.398 1_554 S
C452 C453 1.391 . S
C453 H441 0.950 . S
C453 C449 1.393 1_554 S
C453 C452 1.391 . S
C454 H444 0.950 1_556 S
C454 C455 1.386 . S
C454 C456 1.391 . S
C455 C454 1.386 . S
C455 C459 1.393 . S
C456 H445 0.950 1_556 S
C456 C454 1.391 . S
C456 C457 1.400 . S
C457 C451 1.491 . S
C457 C456 1.400 . S
C457 C458 1.398 . S
C458 H446 0.950 . S
C458 C457 1.398 . S
C458 C459 1.391 . S
C459 H447 0.950 . S
C459 C455 1.393 . S
C459 C458 1.391 . S
H460 C468 0.950 . S
H461 C473 0.950 . S
H462 C470 0.950 . S
H463 C472 0.950 . S
H464 C474 0.950 . S
H465 C476 0.950 . S
H466 C478 0.950 . S
H467 C479 0.950 . S
C468 H460 0.950 . S
C468 C469 1.386 . S
C468 C470 1.391 . S
C469 C468 1.386 . S
C469 C473 1.393 . S
C470 H462 0.950 . S
C470 C468 1.391 . S
C470 C471 1.400 . S
C471 C470 1.400 . S
C471 C472 1.398 . S
C471 C477 1.491 . S
C472 H463 0.950 . S
C472 C471 1.398 . S
C472 C473 1.391 . S
C473 H461 0.950 . S
C473 C469 1.393 . S
C473 C472 1.391 . S
C474 H464 0.950 . S
C474 C475 1.386 . S
C474 C476 1.391 . S
C475 C474 1.386 . S
C475 C479 1.393 . S
C476 H465 0.950 . S
C476 C474 1.391 . S
C476 C477 1.400 . S
C477 C471 1.491 . S
C477 C476 1.400 . S
C477 C478 1.398 . S
C478 H466 0.950 . S
C478 C477 1.398 . S
C478 C479 1.391 . S
C479 H467 0.950 . S
C479 C475 1.393 . S
C479 C478 1.391 . S
H480 C488 0.950 . S
H481 C493 0.950 . S
H482 C490 0.950 . S
H483 C492 0.950 . S
H484 C494 0.950 . S
H485 C496 0.950 . S
H486 C498 0.950 . S
H487 C499 0.950 . S
C488 H480 0.950 . S
C488 C489 1.386 . S
C488 C490 1.391 . S
C489 C488 1.386 . S
C489 C493 1.393 . S
C490 H482 0.950 . S
C490 C488 1.391 . S
C490 C491 1.400 . S
C491 C490 1.400 . S
C491 C492 1.398 . S
C491 C497 1.491 . S
C492 H483 0.950 . S
C492 C491 1.398 . S
C492 C493 1.391 . S
C493 H481 0.950 . S
C493 C489 1.393 . S
C493 C492 1.391 . S
C494 H484 0.950 . S
C494 C495 1.386 . S
C494 C496 1.391 . S
C495 C494 1.386 . S
C495 C499 1.393 . S
C496 H485 0.950 . S
C496 C494 1.391 . S
C496 C497 1.400 . S
C497 C491 1.491 . S
C497 C496 1.400 . S
C497 C498 1.398 . S
C498 H486 0.950 . S
C498 C497 1.398 . S
C498 C499 1.391 . S
C499 H487 0.950 . S
C499 C495 1.393 . S
C499 C498 1.391 . S
H500 C508 0.950 . S
H501 C513 0.950 . S
H502 C510 0.950 . S
H503 C512 0.950 . S
H504 C514 0.950 . S
H505 C516 0.950 . S
H506 C518 0.950 . S
H507 C519 0.950 . S
C508 H500 0.950 . S
C508 C509 1.386 . S
C508 C510 1.391 . S
C509 C508 1.386 . S
C509 C513 1.393 . S
C510 H502 0.950 . S
C510 C508 1.391 . S
C510 C511 1.400 . S
C511 C510 1.400 . S
C511 C512 1.398 . S
C511 C517 1.491 . S
C512 H503 0.950 . S
C512 C511 1.398 . S
C512 C513 1.391 . S
C513 H501 0.950 . S
C513 C509 1.393 . S
C513 C512 1.391 . S
C514 H504 0.950 . S
C514 C515 1.386 . S
C514 C516 1.391 1_556 S
C515 C514 1.386 . S
C515 C519 1.393 . S
C516 H505 0.950 . S
C516 C514 1.391 1_554 S
C516 C517 1.400 . S
C517 C511 1.491 . S
C517 C516 1.400 . S
C517 C518 1.398 . S
C518 H506 0.950 . S
C518 C517 1.398 . S
C518 C519 1.391 1_554 S
C519 H507 0.950 . S
C519 C515 1.393 . S
C519 C518 1.391 1_556 S
H520 C528 0.950 . S
H521 C533 0.950 . S
H522 C530 0.950 . S
H523 C532 0.950 . S
H524 C534 0.950 . S
H525 C536 0.950 . S
H526 C538 0.950 . S
H527 C539 0.950 . S
C528 H520 0.950 . S
C528 C529 1.386 . S
C528 C530 1.391 . S
C529 C528 1.386 . S
C529 C533 1.393 . S
C530 H522 0.950 . S
C530 C528 1.391 . S
C530 C531 1.400 . S
C531 C530 1.400 . S
C531 C532 1.398 . S
C531 C537 1.491 . S
C532 H523 0.950 . S
C532 C531 1.398 . S
C532 C533 1.391 . S
C533 H521 0.950 . S
C533 C529 1.393 . S
C533 C532 1.391 . S
C534 H524 0.950 . S
C534 C535 1.386 . S
C534 C536 1.391 . S
C535 C534 1.386 . S
C535 C539 1.393 . S
C536 H525 0.950 . S
C536 C534 1.391 . S
C536 C537 1.400 . S
C537 C531 1.491 . S
C537 C536 1.400 . S
C537 C538 1.398 . S
C538 H526 0.950 . S
C538 C537 1.398 . S
C538 C539 1.391 . S
C539 H527 0.950 . S
C539 C535 1.393 . S
C539 C538 1.391 . S
H540 C548 0.950 . S
H541 C553 0.950 . S
H542 C550 0.950 . S
H543 C552 0.950 . S
H544 C554 0.950 . S
H545 C556 0.950 . S
H546 C558 0.950 1_554 S
H547 C559 0.950 . S
C548 H540 0.950 . S
C548 C549 1.386 . S
C548 C550 1.391 . S
C549 C548 1.386 . S
C549 C553 1.393 . S
C550 H542 0.950 . S
C550 C548 1.391 . S
C550 C551 1.400 . S
C551 C550 1.400 . S
C551 C552 1.398 . S
C551 C557 1.491 . S
C552 H543 0.950 . S
C552 C551 1.398 . S
C552 C553 1.391 . S
C553 H541 0.950 . S
C553 C549 1.393 . S
C553 C552 1.391 . S
C554 H544 0.950 . S
C554 C555 1.386 . S
C554 C556 1.391 1_556 S
C555 C554 1.386 . S
C555 C559 1.393 . S
C556 H545 0.950 . S
C556 C554 1.391 1_554 S
C556 C557 1.400 . S
C557 C551 1.491 . S
C557 C556 1.400 . S
C557 C558 1.398 1_554 S
C558 H546 0.950 1_556 S
C558 C557 1.398 1_556 S
C558 C559 1.391 . S
C559 H547 0.950 . S
C559 C555 1.393 . S
C559 C558 1.391 . S
H560 C568 0.950 . S
H561 C573 0.950 . S
H562 C570 0.950 . S
H563 C572 0.950 . S
H564 C574 0.950 . S
H565 C576 0.950 . S
H566 C578 0.950 . S
H567 C579 0.950 . S
C568 H560 0.950 . S
C568 C569 1.386 . S
C568 C570 1.391 . S
C569 C568 1.386 . S
C569 C573 1.393 . S
C570 H562 0.950 . S
C570 C568 1.391 . S
C570 C571 1.400 . S
C571 C570 1.400 . S
C571 C572 1.398 . S
C571 C577 1.491 . S
C572 H563 0.950 . S
C572 C571 1.398 . S
C572 C573 1.391 . S
C573 H561 0.950 . S
C573 C569 1.393 . S
C573 C572 1.391 . S
C574 H564 0.950 . S
C574 C575 1.386 . S
C574 C576 1.391 . S
C575 C574 1.386 . S
C575 C579 1.393 . S
C576 H565 0.950 . S
C576 C574 1.391 . S
C576 C577 1.400 . S
C577 C571 1.491 . S
C577 C576 1.400 . S
C577 C578 1.398 . S
C578 H566 0.950 . S
C578 C577 1.398 . S
C578 C579 1.391 . S
C579 H567 0.950 . S
C579 C575 1.393 . S
C579 C578 1.391 . S
H580 C588 0.950 . S
H581 C593 0.950 . S
H582 C590 0.950 . S
H583 C592 0.950 . S
H584 C594 0.950 1_556 S
H585 C596 0.950 . S
H586 C598 0.950 . S
H587 C599 0.950 . S
C588 H580 0.950 . S
C588 C589 1.386 . S
C588 C590 1.391 . S
C589 C588 1.386 . S
C589 C593 1.393 . S
C590 H582 0.950 . S
C590 C588 1.391 . S
C590 C591 1.400 . S
C591 C590 1.400 . S
C591 C592 1.398 . S
C591 C597 1.491 . S
C592 H583 0.950 . S
C592 C591 1.398 . S
C592 C593 1.391 . S
C593 H581 0.950 . S
C593 C589 1.393 . S
C593 C592 1.391 . S
C594 H584 0.950 1_554 S
C594 C595 1.386 1_554 S
C594 C596 1.391 . S
C595 C594 1.386 1_556 S
C595 C599 1.393 . S
C596 H585 0.950 . S
C596 C594 1.391 . S
C596 C597 1.400 . S
C597 C591 1.491 . S
C597 C596 1.400 . S
C597 C598 1.398 . S
C598 H586 0.950 . S
C598 C597 1.398 . S
C598 C599 1.391 1_554 S
C599 H587 0.950 . S
C599 C595 1.393 . S
C599 C598 1.391 1_556 S
C249 C204 2.502 . S
C255 C25 2.613 . S
C269 C31 3.359 . S
C275 C44 3.056 1_455 S
C289 C60 1.184 . S
C295 C111 1.179 . S
C309 C124 2.616 . S
C315 C105 2.517 . S
C329 C185 3.047 1_655 S
C335 C140 3.358 . S
C349 C191 1.231 . S
C355 C220 1.201 . S
C369 C180 2.178 1_556 S
C375 C4 2.123 . S
C389 C225 1.549 . S
C395 C65 1.544 . S
C409 C100 2.633 . S
C415 C20 2.594 . S
C429 C145 2.106 . S
C435 C71 2.173 . S
C449 C164 1.541 . S
C455 C84 1.554 . S
C469 C151 2.592 . S
C475 C231 2.633 . S
C489 C23 0.941 . S
C495 C2 0.941 . S
C509 C63 1.006 . S
C515 C42 1.006 . S
C529 C82 0.990 . S
C535 C103 0.990 . S
C549 C143 0.920 . S
C555 C122 0.920 . S
C569 C162 1.031 . S
C575 C183 1.031 . S
C589 C202 1.028 . S
C595 C223 1.028 . S
