# Generated by pormake.
# Topology fny, (5)-cn, num edge types: 1
# Building blocks:
#     Node 0, Type 0, BuildingBlock: XOMCOT_clean_sbu_1, # of connection points: 5
#     Node 1, Type 0, BuildingBlock: XOMCOT_clean_sbu_1, # of connection points: 5
#     Node 2, Type 0, BuildingBlock: XOMCOT_clean_sbu_1, # of connection points: 5
#     Node 3, Type 0, BuildingBlock: XOMCOT_clean_sbu_1, # of connection points: 5
#     Node 4, Type 0, BuildingBlock: XOMCOT_clean_sbu_1, # of connection points: 5
#     Node 5, Type 0, BuildingBlock: XOMCOT_clean_sbu_1, # of connection points: 5
#     Node 6, Type 0, BuildingBlock: XOMCOT_clean_sbu_1, # of connection points: 5
#     Node 7, Type 0, BuildingBlock: XOMCOT_clean_sbu_1, # of connection points: 5
#     Node 8, Type 0, BuildingBlock: XOMCOT_clean_sbu_1, # of connection points: 5
#     Node 9, Type 0, BuildingBlock: XOMCOT_clean_sbu_1, # of connection points: 5
#     Node 10, Type 0, BuildingBlock: XOMCOT_clean_sbu_1, # of connection points: 5
#     Node 11, Type 0, BuildingBlock: XOMCOT_clean_sbu_1, # of connection points: 5
#     Edge 12, Type (0, 0), BuildingBlock: XUDNAN_clean_linker_2, # of connection points: 2
#     Edge 13, Type (0, 0), BuildingBlock: XUDNAN_clean_linker_2, # of connection points: 2
#     Edge 14, Type (0, 0), BuildingBlock: XUDNAN_clean_linker_2, # of connection points: 2
#     Edge 15, Type (0, 0), BuildingBlock: XUDNAN_clean_linker_2, # of connection points: 2
#     Edge 16, Type (0, 0), BuildingBlock: XUDNAN_clean_linker_2, # of connection points: 2
#     Edge 17, Type (0, 0), BuildingBlock: XUDNAN_clean_linker_2, # of connection points: 2
#     Edge 18, Type (0, 0), BuildingBlock: XUDNAN_clean_linker_2, # of connection points: 2
#     Edge 19, Type (0, 0), BuildingBlock: XUDNAN_clean_linker_2, # of connection points: 2
#     Edge 20, Type (0, 0), BuildingBlock: XUDNAN_clean_linker_2, # of connection points: 2
#     Edge 21, Type (0, 0), BuildingBlock: XUDNAN_clean_linker_2, # of connection points: 2
#     Edge 22, Type (0, 0), BuildingBlock: XUDNAN_clean_linker_2, # of connection points: 2
#     Edge 23, Type (0, 0), BuildingBlock: XUDNAN_clean_linker_2, # of connection points: 2
#     Edge 24, Type (0, 0), BuildingBlock: XUDNAN_clean_linker_2, # of connection points: 2
#     Edge 25, Type (0, 0), BuildingBlock: XUDNAN_clean_linker_2, # of connection points: 2
#     Edge 26, Type (0, 0), BuildingBlock: XUDNAN_clean_linker_2, # of connection points: 2
#     Edge 27, Type (0, 0), BuildingBlock: XUDNAN_clean_linker_2, # of connection points: 2
#     Edge 28, Type (0, 0), BuildingBlock: XUDNAN_clean_linker_2, # of connection points: 2
#     Edge 29, Type (0, 0), BuildingBlock: XUDNAN_clean_linker_2, # of connection points: 2
#     Edge 30, Type (0, 0), BuildingBlock: XUDNAN_clean_linker_2, # of connection points: 2
#     Edge 31, Type (0, 0), BuildingBlock: XUDNAN_clean_linker_2, # of connection points: 2
#     Edge 32, Type (0, 0), BuildingBlock: XUDNAN_clean_linker_2, # of connection points: 2
#     Edge 33, Type (0, 0), BuildingBlock: XUDNAN_clean_linker_2, # of connection points: 2
#     Edge 34, Type (0, 0), BuildingBlock: XUDNAN_clean_linker_2, # of connection points: 2
#     Edge 35, Type (0, 0), BuildingBlock: XUDNAN_clean_linker_2, # of connection points: 2
#     Edge 36, Type (0, 0), BuildingBlock: XUDNAN_clean_linker_2, # of connection points: 2
#     Edge 37, Type (0, 0), BuildingBlock: XUDNAN_clean_linker_2, # of connection points: 2
#     Edge 38, Type (0, 0), BuildingBlock: XUDNAN_clean_linker_2, # of connection points: 2
#     Edge 39, Type (0, 0), BuildingBlock: XUDNAN_clean_linker_2, # of connection points: 2
#     Edge 40, Type (0, 0), BuildingBlock: XUDNAN_clean_linker_2, # of connection points: 2
#     Edge 41, Type (0, 0), BuildingBlock: XUDNAN_clean_linker_2, # of connection points: 2
# Relax obj value: 0.263
# Max RMSD: 0.208
# Mean RMSD: 0.208
data_MOF--net-fny--node1-XOMCOT_clean_sbu_1--edge1-XUDNAN_clean_linker_2
_symmetry_space_group_name_H-M    P1
_symmetry_Int_Tables_number       1
_symmetry_cell_setting            triclinic
loop_
_symmetry_equiv_pos_as_xyz
'x, y, z'
_cell_length_a     61.508969
_cell_length_b     61.543248
_cell_length_c     24.022292
_cell_angle_alpha  90.026533
_cell_angle_beta   90.009211
_cell_angle_gamma 120.01636
loop_
_atom_site_label
_atom_site_type_symbol
_atom_site_fract_x
_atom_site_fract_y
_atom_site_fract_z
_atom_type_partial_charge
C0 C 0.30779 0.48691 0.26284 0.0
C1 C 0.29139 0.47495 0.21969 0.0
N2 N 0.30302 0.48615 0.17203 0.0
N3 N 0.32939 0.5059 0.24234 0.0
C4 C 0.32602 0.50474 0.18665 0.0
H5 H 0.30387 0.48249 0.3065 0.0
Co6 Co 0.35594 0.52926 0.28481 0.0
C7 C 0.39159 0.5684 0.20614 0.0
O8 O 0.40973 0.56899 0.23617 0.0
N9 N 0.38236 0.55303 0.32876 0.0
C10 C 0.4084 0.57023 0.39974 0.0
C11 C 0.3991 0.55106 0.36157 0.0
C12 C 0.38334 0.57443 0.34552 0.0
N13 N 0.39757 0.5843 0.39097 0.0
O14 O 0.33415 0.54175 0.3148 0.0
H15 H 0.40232 0.5354 0.36283 0.0
H16 H 0.37084 0.5807 0.33027 0.0
O17 O 0.36862 0.5536 0.22051 0.0
C18 C 0.32585 0.53167 0.36278 0.0
O19 O 0.33185 0.51517 0.38056 0.0
N20 N 0.37462 0.51368 0.26395 0.0
C21 C 0.39656 0.48322 0.25687 0.0
C22 C 0.39879 0.4993 0.21275 0.0
C23 C 0.38718 0.51407 0.21659 0.0
C24 C 0.37123 0.4972 0.30537 0.0
C25 C 0.38244 0.48242 0.30345 0.0
H26 H 0.38794 0.52519 0.18117 0.0
H27 H 0.36018 0.49608 0.34139 0.0
H28 H 0.33962 0.51789 0.15743 0.0
H29 H 0.27223 0.45963 0.22301 0.0
H30 H 0.4189 0.57115 0.43674 0.0
H31 H 0.4088 0.49997 0.17513 0.0
H32 H 0.38016 0.4706 0.33889 0.0
C33 C 0.81133 0.30463 0.77934 0.0
C34 C 0.8052 0.28676 0.73857 0.0
N35 N 0.81334 0.29869 0.68957 0.0
N36 N 0.8228 0.32761 0.7557 0.0
C37 C 0.82401 0.32333 0.70109 0.0
H38 H 0.80751 0.30091 0.82322 0.0
Co39 Co 0.83467 0.35869 0.78917 0.0
C40 C 0.82359 0.38978 0.70462 0.0
O41 O 0.83488 0.41033 0.7345 0.0
N42 N 0.84687 0.38982 0.82419 0.0
C43 C 0.85021 0.42306 0.86848 0.0
C44 C 0.83376 0.40012 0.84548 0.0
C45 C 0.87103 0.40634 0.83708 0.0
N46 N 0.87366 0.42692 0.86271 0.0
O47 O 0.80274 0.34568 0.82947 0.0
H48 H 0.81355 0.39161 0.84409 0.0
H49 H 0.88655 0.40323 0.82954 0.0
O50 O 0.82229 0.36949 0.72286 0.0
C51 C 0.80509 0.33826 0.87783 0.0
O52 O 0.82722 0.34153 0.89161 0.0
N53 N 0.86637 0.3698 0.75571 0.0
C54 C 0.91784 0.39019 0.73573 0.0
C55 C 0.90382 0.39899 0.70696 0.0
C56 C 0.8781 0.38848 0.71728 0.0
C57 C 0.87925 0.35989 0.78129 0.0
C58 C 0.90495 0.36977 0.77196 0.0
H59 H 0.86837 0.39672 0.69715 0.0
H60 H 0.86982 0.34519 0.81188 0.0
H61 H 0.83218 0.33803 0.67011 0.0
H62 H 0.79555 0.26662 0.74441 0.0
H63 H 0.8452 0.43534 0.89029 0.0
H64 H 0.91283 0.41483 0.67891 0.0
H65 H 0.9147 0.36189 0.79419 0.0
C66 C 0.56004 0.85308 0.24592 0.0
C67 C 0.57276 0.84753 0.20656 0.0
N68 N 0.55581 0.83012 0.17169 0.0
N69 N 0.5352 0.83938 0.23569 0.0
C70 C 0.53318 0.82545 0.19058 0.0
H71 H 0.56838 0.86621 0.27994 0.0
Co72 Co 0.50983 0.83947 0.27684 0.0
C73 C 0.47206 0.83622 0.19487 0.0
O74 O 0.47073 0.85325 0.22533 0.0
N75 N 0.48383 0.83889 0.31899 0.0
C76 C 0.46183 0.84462 0.38444 0.0
C77 C 0.48243 0.85636 0.35037 0.0
C78 C 0.46295 0.81717 0.33243 0.0
N79 N 0.45009 0.81977 0.37436 0.0
O80 O 0.49898 0.80515 0.30267 0.0
H81 H 0.49641 0.87596 0.35295 0.0
H82 H 0.45871 0.79899 0.31689 0.0
O83 O 0.48698 0.82829 0.20988 0.0
C84 C 0.51136 0.80672 0.34706 0.0
O85 O 0.5301 0.82891 0.36072 0.0
N86 N 0.52377 0.87393 0.26036 0.0
C87 C 0.55465 0.92607 0.25509 0.0
C88 C 0.54075 0.9125 0.20831 0.0
C89 C 0.52578 0.88616 0.21138 0.0
C90 C 0.53772 0.88703 0.30529 0.0
C91 C 0.55292 0.91297 0.30387 0.0
H92 H 0.51686 0.87575 0.174 0.0
H93 H 0.53733 0.87701 0.34261 0.0
H94 H 0.51538 0.81174 0.17274 0.0
H95 H 0.59293 0.85586 0.20372 0.0
H96 H 0.45812 0.85318 0.41985 0.0
H97 H 0.54244 0.922 0.16924 0.0
H98 H 0.56382 0.92269 0.34037 0.0
C99 C 0.71778 0.54746 0.76036 0.0
C100 C 0.73997 0.55892 0.73064 0.0
N101 N 0.74461 0.5409 0.71285 0.0
N102 N 0.7084 0.52237 0.75973 0.0
C103 C 0.72527 0.51909 0.7308 0.0
H104 H 0.70882 0.55683 0.77963 0.0
Co105 Co 0.67859 0.49578 0.78648 0.0
C106 C 0.65046 0.46868 0.68423 0.0
O107 O 0.63037 0.46719 0.70713 0.0
N108 N 0.64877 0.46821 0.81195 0.0
C109 C 0.61053 0.44079 0.84181 0.0
C110 C 0.62818 0.46579 0.83789 0.0
C111 C 0.64322 0.44437 0.80176 0.0
N112 N 0.61993 0.42732 0.81844 0.0
O113 O 0.69701 0.47929 0.8131 0.0
H114 H 0.62573 0.48084 0.85349 0.0
H115 H 0.656 0.43965 0.78139 0.0
O116 O 0.67154 0.47965 0.7105 0.0
C117 C 0.70729 0.48985 0.85945 0.0
O118 O 0.70449 0.50858 0.87661 0.0
N119 N 0.66203 0.51398 0.77081 0.0
C120 C 0.6351 0.53934 0.77612 0.0
C121 C 0.64048 0.53241 0.72435 0.0
C122 C 0.6546 0.52012 0.72247 0.0
C123 C 0.65981 0.5237 0.82001 0.0
C124 C 0.64607 0.53595 0.82387 0.0
H125 H 0.65899 0.51519 0.68257 0.0
H126 H 0.66759 0.52051 0.85744 0.0
H127 H 0.72286 0.50085 0.72089 0.0
H128 H 0.75153 0.57876 0.72194 0.0
H129 H 0.59261 0.43313 0.8628 0.0
H130 H 0.63317 0.53565 0.68617 0.0
H131 H 0.6434 0.54204 0.86434 0.0
C132 C 0.18029 0.70973 0.24042 0.0
C133 C 0.18428 0.72587 0.19715 0.0
N134 N 0.20169 0.72584 0.16316 0.0
N135 N 0.19497 0.69943 0.23352 0.0
C136 C 0.20794 0.70971 0.18637 0.0
H137 H 0.16754 0.70572 0.27495 0.0
Co138 Co 0.19611 0.67676 0.28229 0.0
C139 C 0.19356 0.63793 0.20363 0.0
O140 O 0.17483 0.62132 0.23398 0.0
N141 N 0.19822 0.65573 0.3336 0.0
C142 C 0.21824 0.64177 0.38648 0.0
C143 C 0.21038 0.64255 0.3332 0.0
C144 C 0.19918 0.66282 0.38687 0.0
N145 N 0.2116 0.6551 0.41986 0.0
O146 O 0.23128 0.70064 0.30156 0.0
H147 H 0.21633 0.63682 0.29651 0.0
H148 H 0.19389 0.67644 0.39925 0.0
O149 O 0.20517 0.66109 0.21902 0.0
C150 C 0.23312 0.71738 0.33628 0.0
O151 O 0.21368 0.72062 0.34178 0.0
N152 N 0.16079 0.65452 0.2707 0.0
C153 C 0.10836 0.63075 0.26251 0.0
C154 C 0.12331 0.63867 0.21453 0.0
C155 C 0.14955 0.65038 0.21946 0.0
C156 C 0.14614 0.64652 0.31742 0.0
C157 C 0.12002 0.63425 0.31415 0.0
H158 H 0.1609 0.65739 0.18231 0.0
H159 H 0.15441 0.65085 0.35819 0.0
H160 H 0.22156 0.7053 0.16929 0.0
H161 H 0.17543 0.73713 0.19181 0.0
H162 H 0.22959 0.63365 0.39847 0.0
H163 H 0.11488 0.63676 0.17393 0.0
H164 H 0.10906 0.62903 0.35216 0.0
C165 C 0.49366 0.1908 0.75406 0.0
C166 C 0.48712 0.20516 0.72206 0.0
N167 N 0.50819 0.22378 0.69945 0.0
N168 N 0.51871 0.19999 0.75044 0.0
C169 C 0.527 0.22038 0.71755 0.0
H170 H 0.48075 0.17509 0.77907 0.0
Co171 Co 0.53877 0.18914 0.78545 0.0
C172 C 0.58236 0.21802 0.70203 0.0
O173 O 0.59641 0.23727 0.7343 0.0
N174 N 0.55819 0.17817 0.82034 0.0
C175 C 0.5846 0.16461 0.84005 0.0
C176 C 0.58124 0.18164 0.80956 0.0
C177 C 0.54818 0.15948 0.85784 0.0
N178 N 0.56357 0.15047 0.8698 0.0
O179 O 0.55673 0.22132 0.82504 0.0
H180 H 0.59448 0.19488 0.78018 0.0
H181 H 0.52936 0.15186 0.874 0.0
O182 O 0.56129 0.20036 0.72003 0.0
C183 C 0.54335 0.21951 0.86769 0.0
O184 O 0.52208 0.19837 0.87441 0.0
N185 N 0.51983 0.15662 0.75408 0.0
C186 C 0.49711 0.1044 0.74631 0.0
C187 C 0.51878 0.11999 0.71554 0.0
C188 C 0.52984 0.14612 0.71975 0.0
C189 C 0.4982 0.14154 0.78254 0.0
C190 C 0.48624 0.11545 0.77827 0.0
H191 H 0.54783 0.15749 0.7002 0.0
H192 H 0.49185 0.14949 0.81425 0.0
H193 H 0.54649 0.23259 0.70684 0.0
H194 H 0.46844 0.20244 0.71668 0.0
H195 H 0.60128 0.16292 0.84045 0.0
H196 H 0.52798 0.11207 0.69127 0.0
H197 H 0.47003 0.10403 0.80416 0.0
C198 C 0.55297 0.7128 0.77349 0.0
C199 C 0.56736 0.73243 0.80897 0.0
N200 N 0.55182 0.73538 0.84373 0.0
N201 N 0.52854 0.70338 0.78628 0.0
C202 C 0.52843 0.71763 0.82873 0.0
H203 H 0.55985 0.70558 0.74111 0.0
Co204 Co 0.50096 0.67603 0.7547 0.0
C205 C 0.46741 0.64765 0.84917 0.0
O206 O 0.46535 0.62756 0.82503 0.0
N207 N 0.47246 0.64882 0.7236 0.0
C208 C 0.44229 0.61383 0.68536 0.0
C209 C 0.46737 0.62707 0.69879 0.0
C210 C 0.45016 0.64813 0.7247 0.0
N211 N 0.43149 0.62718 0.70176 0.0
O212 O 0.49024 0.69851 0.72199 0.0
H213 H 0.4807 0.62107 0.68954 0.0
H214 H 0.44767 0.6631 0.74124 0.0
O215 O 0.48117 0.66938 0.82659 0.0
C216 C 0.50266 0.70705 0.67645 0.0
O217 O 0.52008 0.70133 0.66494 0.0
N218 N 0.51443 0.65578 0.77698 0.0
C219 C 0.5399 0.62916 0.79202 0.0
C220 C 0.53161 0.63723 0.83805 0.0
C221 C 0.51948 0.65115 0.82966 0.0
C222 C 0.52419 0.64988 0.73241 0.0
C223 C 0.53638 0.63611 0.73871 0.0
H224 H 0.51462 0.65851 0.86539 0.0
H225 H 0.52226 0.65581 0.69121 0.0
H226 H 0.51151 0.71453 0.84942 0.0
H227 H 0.58765 0.74354 0.80929 0.0
H228 H 0.43318 0.59662 0.66142 0.0
H229 H 0.53494 0.63332 0.88016 0.0
H230 H 0.54267 0.63071 0.70187 0.0
C231 C 0.8147 0.52288 0.28183 0.0
C232 C 0.80796 0.53141 0.32799 0.0
N233 N 0.81693 0.52579 0.37372 0.0
N234 N 0.82766 0.51171 0.29835 0.0
C235 C 0.82888 0.51397 0.35423 0.0
H236 H 0.81039 0.52478 0.23913 0.0
Co237 Co 0.84209 0.49716 0.25561 0.0
C238 C 0.83524 0.45222 0.32569 0.0
O239 O 0.85142 0.44908 0.29628 0.0
N240 N 0.85679 0.48304 0.21199 0.0
C241 C 0.86367 0.45767 0.15859 0.0
C242 C 0.846 0.45989 0.18924 0.0
C243 C 0.88049 0.49489 0.19205 0.0
N244 N 0.88536 0.47967 0.16119 0.0
O245 O 0.81096 0.47884 0.21181 0.0
H246 H 0.82651 0.44562 0.19434 0.0
H247 H 0.8937 0.51464 0.19741 0.0
O248 O 0.83067 0.46987 0.31337 0.0
C249 C 0.8137 0.49132 0.16699 0.0
O250 O 0.83512 0.51229 0.16007 0.0
N251 N 0.87315 0.51755 0.2916 0.0
C252 C 0.92469 0.55087 0.30474 0.0
C253 C 0.91302 0.52709 0.33033 0.0
C254 C 0.88715 0.51064 0.32327 0.0
C255 C 0.88366 0.54131 0.27108 0.0
C256 C 0.9093 0.55814 0.2767 0.0
H257 H 0.87907 0.49207 0.34034 0.0
H258 H 0.87249 0.54643 0.24535 0.0
H259 H 0.8388 0.50731 0.37981 0.0
H260 H 0.79695 0.54066 0.3275 0.0
H261 H 0.86044 0.44178 0.13322 0.0
H262 H 0.92389 0.5208 0.35374 0.0
H263 H 0.91709 0.57598 0.25543 0.0
C264 C 0.32189 0.84961 0.7774 0.0
C265 C 0.3019 0.84276 0.81295 0.0
N266 N 0.29932 0.82348 0.84443 0.0
N267 N 0.33176 0.83472 0.7868 0.0
C268 C 0.31752 0.81891 0.8273 0.0
H269 H 0.32878 0.86448 0.7468 0.0
Co270 Co 0.35847 0.83479 0.75176 0.0
C271 C 0.38869 0.82876 0.84152 0.0
O272 O 0.40864 0.84613 0.81564 0.0
N273 N 0.38498 0.83388 0.71674 0.0
C274 C 0.41873 0.83912 0.67166 0.0
C275 C 0.40588 0.85078 0.68956 0.0
C276 C 0.38574 0.81235 0.71489 0.0
N277 N 0.40591 0.8149 0.6877 0.0
O278 O 0.33545 0.8013 0.72024 0.0
H279 H 0.41134 0.87006 0.68139 0.0
H280 H 0.37131 0.79471 0.73198 0.0
O281 O 0.36663 0.8218 0.82182 0.0
C282 C 0.32734 0.80536 0.67432 0.0
O283 O 0.33385 0.82872 0.66275 0.0
N284 N 0.37913 0.86862 0.77329 0.0
C285 C 0.40713 0.9207 0.78581 0.0
C286 C 0.40197 0.90482 0.83193 0.0
C287 C 0.38705 0.87872 0.82511 0.0
C288 C 0.38259 0.88396 0.72919 0.0
C289 C 0.39669 0.90996 0.7343 0.0
H290 H 0.38174 0.86686 0.86143 0.0
H291 H 0.37455 0.8758 0.68922 0.0
H292 H 0.32017 0.80395 0.84318 0.0
H293 H 0.29045 0.85152 0.8159 0.0
H294 H 0.43512 0.84731 0.645 0.0
H295 H 0.40896 0.91253 0.87288 0.0
H296 H 0.39987 0.92155 0.69788 0.0
C297 C 0.49797 0.32543 0.29601 0.0
C298 C 0.48994 0.31286 0.34604 0.0
N299 N 0.51038 0.31703 0.37521 0.0
N300 N 0.52328 0.33733 0.2942 0.0
C301 C 0.53017 0.33142 0.34246 0.0
H302 H 0.48625 0.32648 0.26378 0.0
Co303 Co 0.54482 0.35874 0.24002 0.0
C304 C 0.58213 0.39916 0.31545 0.0
O305 O 0.57919 0.41581 0.28725 0.0
N306 N 0.56638 0.37879 0.18454 0.0
C307 C 0.60062 0.39007 0.13393 0.0
C308 C 0.59177 0.39207 0.18503 0.0
C309 C 0.56041 0.36962 0.13237 0.0
N310 N 0.58079 0.37529 0.10155 0.0
O311 O 0.55627 0.33488 0.22241 0.0
H312 H 0.60344 0.39935 0.22149 0.0
H313 H 0.54156 0.35554 0.12047 0.0
O314 O 0.57106 0.37626 0.29884 0.0
C315 C 0.54047 0.3174 0.19038 0.0
O316 O 0.51795 0.31472 0.18612 0.0
N317 N 0.53148 0.38076 0.25113 0.0
C318 C 0.50277 0.40449 0.26117 0.0
C319 C 0.51097 0.39733 0.30857 0.0
C320 C 0.5254 0.38563 0.30272 0.0
C321 C 0.52391 0.38806 0.20473 0.0
C322 C 0.51 0.40035 0.20885 0.0
H323 H 0.5307 0.37944 0.33979 0.0
H324 H 0.52734 0.38326 0.16382 0.0
H325 H 0.54943 0.33764 0.35373 0.0
H326 H 0.47074 0.30223 0.36056 0.0
H327 H 0.62009 0.39693 0.1234 0.0
H328 H 0.50555 0.39998 0.34979 0.0
H329 H 0.50353 0.40505 0.17123 0.0
C330 C 0.19469 0.4782 0.7563 0.0
C331 C 0.20483 0.4668 0.78789 0.0
N332 N 0.21266 0.47933 0.83635 0.0
N333 N 0.19643 0.49795 0.78463 0.0
C334 C 0.20734 0.49804 0.83342 0.0
H335 H 0.18754 0.47308 0.71436 0.0
Co336 Co 0.18959 0.5218 0.75575 0.0
C337 C 0.18918 0.5529 0.85286 0.0
O338 O 0.1699 0.55297 0.82956 0.0
N339 N 0.18332 0.54605 0.7264 0.0
C340 C 0.16695 0.56898 0.69707 0.0
C341 C 0.16234 0.54495 0.70581 0.0
C342 C 0.20043 0.57073 0.72834 0.0
N343 N 0.19084 0.58505 0.712 0.0
O344 O 0.22396 0.54008 0.72478 0.0
H345 H 0.14465 0.52804 0.69859 0.0
H346 H 0.21944 0.57819 0.74345 0.0
O347 O 0.19917 0.5412 0.82903 0.0
C348 C 0.22216 0.53199 0.67461 0.0
O349 O 0.19978 0.51537 0.65643 0.0
N350 N 0.15533 0.50125 0.77534 0.0
C351 C 0.10301 0.47329 0.7659 0.0
C352 C 0.11438 0.48567 0.81604 0.0
C353 C 0.14081 0.49912 0.82048 0.0
C354 C 0.14445 0.48657 0.7298 0.0
C355 C 0.11853 0.47246 0.72431 0.0
H356 H 0.14923 0.50833 0.85923 0.0
H357 H 0.15601 0.48722 0.69537 0.0
H358 H 0.21275 0.51237 0.86499 0.0
H359 H 0.20693 0.45101 0.77569 0.0
H360 H 0.154 0.57423 0.67961 0.0
H361 H 0.10312 0.48597 0.85036 0.0
H362 H 0.11077 0.46204 0.68613 0.0
C363 C 0.73017 0.21362 0.24818 0.0
C364 C 0.75125 0.22341 0.28095 0.0
N365 N 0.7442 0.22267 0.33432 0.0
N366 N 0.70986 0.20685 0.28052 0.0
C367 C 0.71895 0.21216 0.33287 0.0
H368 H 0.72973 0.21149 0.2035 0.0
Co369 Co 0.67728 0.19301 0.2538 0.0
C370 C 0.67062 0.2204 0.35397 0.0
O371 O 0.69024 0.24251 0.34382 0.0
N372 N 0.645 0.17893 0.22662 0.0
C373 C 0.60449 0.16556 0.21702 0.0
C374 C 0.6267 0.18401 0.23927 0.0
C375 C 0.63377 0.15783 0.19594 0.0
N376 N 0.60887 0.14883 0.19007 0.0
O377 O 0.68656 0.22477 0.21639 0.0
H378 H 0.62914 0.1997 0.26424 0.0
H379 H 0.64392 0.14918 0.17927 0.0
O380 O 0.66568 0.20183 0.32212 0.0
C381 C 0.69243 0.22314 0.16594 0.0
O382 O 0.68891 0.20134 0.14876 0.0
N383 N 0.66919 0.16156 0.28362 0.0
C384 C 0.6513 0.11005 0.29283 0.0
C385 C 0.63949 0.12124 0.32148 0.0
C386 C 0.64888 0.14718 0.31671 0.0
C387 C 0.68143 0.15112 0.25752 0.0
C388 C 0.673 0.12554 0.26202 0.0
H389 H 0.63857 0.1552 0.33569 0.0
H390 H 0.6967 0.16231 0.22934 0.0
H391 H 0.70733 0.2088 0.36914 0.0
H392 H 0.77027 0.23057 0.26636 0.0
H393 H 0.58665 0.16489 0.22045 0.0
H394 H 0.62269 0.10993 0.34575 0.0
H395 H 0.68247 0.11771 0.23844 0.0
H396 H 0.43232 0.57974 0.14208 0.0
H397 H 0.36691 0.58881 0.14795 0.0
H398 H 0.38127 0.61426 0.06105 0.0
H399 H 0.47686 0.64038 0.0893 0.0
H400 H 0.49221 0.62851 0.04493 0.0
H401 H 0.47713 0.61216 0.1081 0.0
H402 H 0.44987 0.57127 0.05224 0.0
H403 H 0.4652 0.58738 0.98913 0.0
H404 H 0.43147 0.57172 0.99432 0.0
H405 H 0.40445 0.63971 0.97111 0.0
H406 H 0.42973 0.65636 0.88449 0.0
H407 H 0.47812 0.62823 0.9387 0.0
C408 C 0.42101 0.58719 0.12546 0.0
C409 C 0.39861 0.58254 0.1524 0.0
C410 C 0.38414 0.59216 0.12823 0.0
C411 C 0.3923 0.60678 0.07904 0.0
C412 C 0.41479 0.61133 0.05405 0.0
C413 C 0.42861 0.60133 0.0763 0.0
C414 C 0.45116 0.60723 0.04041 0.0
C415 C 0.47579 0.62301 0.07263 0.0
C416 C 0.4493 0.58296 1.01768 0.0
C417 C 0.44821 0.62237 0.99442 0.0
C418 C 0.42734 0.62491 1.00294 0.0
C419 C 0.42084 0.63785 0.96454 0.0
C420 C 0.43547 0.64756 0.91573 0.0
C421 C 0.45623 0.64413 0.90558 0.0
C422 C 0.46273 0.6317 0.94603 0.0
H423 H 0.82563 0.43076 0.6535 0.0
H424 H 0.80854 0.35446 0.62056 0.0
H425 H 0.80477 0.36091 0.52026 0.0
H426 H 0.78354 0.43267 0.54459 0.0
H427 H 0.80514 0.46494 0.52736 0.0
H428 H 0.80393 0.45391 0.59742 0.0
H429 H 0.85141 0.46911 0.59473 0.0
H430 H 0.85307 0.48071 0.52526 0.0
H431 H 0.86379 0.45881 0.53909 0.0
H432 H 0.80871 0.37762 0.42252 0.0
H433 H 0.81847 0.40249 0.33604 0.0
H434 H 0.83126 0.46756 0.43155 0.0
C435 C 0.82053 0.41514 0.6255 0.0
C436 C 0.81743 0.39202 0.64539 0.0
C437 C 0.81099 0.37229 0.60683 0.0
C438 C 0.80878 0.37581 0.5496 0.0
C439 C 0.81267 0.39906 0.53139 0.0
C440 C 0.81809 0.4183 0.56834 0.0
C441 C 0.82281 0.44194 0.53781 0.0
C442 C 0.80266 0.44876 0.55271 0.0
C443 C 0.84935 0.46393 0.54995 0.0
C444 C 0.82026 0.43337 0.47767 0.0
C445 C 0.81416 0.40847 0.47499 0.0
C446 C 0.81291 0.39692 0.42422 0.0
C447 C 0.81848 0.4112 0.37525 0.0
C448 C 0.82503 0.43678 0.37686 0.0
C449 C 0.82543 0.44783 0.42881 0.0
H450 H 0.45568 0.8629 0.13542 0.0
H451 H 0.45626 0.79278 0.13226 0.0
H452 H 0.43063 0.78067 0.04553 0.0
H453 H 0.39322 0.84041 0.08406 0.0
H454 H 0.40198 0.86801 0.04268 0.0
H455 H 0.41924 0.87028 0.1051 0.0
H456 H 0.46077 0.88975 0.04893 0.0
H457 H 0.44369 0.88795 0.98665 0.0
H458 H 0.4629 0.87345 0.98865 0.0
H459 H 0.40431 0.77692 0.95655 0.0
H460 H 0.38575 0.7843 0.87159 0.0
H461 H 0.40444 0.8575 0.93434 0.0
C462 C 0.45031 0.84485 0.11692 0.0
C463 C 0.45776 0.82863 0.14128 0.0
C464 C 0.45075 0.80549 0.11462 0.0
C465 C 0.43604 0.79843 0.0655 0.0
C466 C 0.42871 0.81482 0.04315 0.0
C467 C 0.43605 0.83776 0.06787 0.0
C468 C 0.4274 0.85294 0.03449 0.0
C469 C 0.40939 0.85821 0.06864 0.0
C470 C 0.45003 0.87746 1.01343 0.0
C471 C 0.4138 0.83503 0.98699 0.0
C472 C 0.41441 0.81296 0.99267 0.0
C473 C 0.40362 0.79407 0.95229 0.0
C474 C 0.3928 0.79823 0.90443 0.0
C475 C 0.39288 0.82111 0.89726 0.0
C476 C 0.40327 0.83947 0.93958 0.0
H477 H 0.58892 0.43753 0.38326 0.0
H478 H 0.60672 0.37793 0.3698 0.0
H479 H 0.6301 0.39169 0.45931 0.0
H480 H 0.64647 0.48477 0.44768 0.0
H481 H 0.63058 0.49573 0.4929 0.0
H482 H 0.61725 0.48234 0.42614 0.0
H483 H 0.57578 0.44985 0.47388 0.0
H484 H 0.58888 0.46329 0.54063 0.0
H485 H 0.57672 0.43029 0.52858 0.0
H486 H 0.65211 0.4132 0.55272 0.0
H487 H 0.66453 0.43555 0.64375 0.0
H488 H 0.62897 0.47825 0.59651 0.0
C489 C 0.59805 0.42755 0.39859 0.0
C490 C 0.59641 0.40694 0.36885 0.0
C491 C 0.60794 0.39393 0.39151 0.0
C492 C 0.62134 0.40171 0.44224 0.0
C493 C 0.62271 0.42229 0.47034 0.0
C494 C 0.61094 0.43469 0.44945 0.0
C495 C 0.61317 0.45483 0.48919 0.0
C496 C 0.62773 0.48096 0.46236 0.0
C497 C 0.58709 0.44922 0.50926 0.0
C498 C 0.62808 0.452 0.53592 0.0
C499 C 0.6339 0.43348 0.5242 0.0
C500 C 0.6476 0.4277 0.56202 0.0
C501 C 0.65481 0.44062 0.61341 0.0
C502 C 0.64792 0.45876 0.62681 0.0
C503 C 0.6347 0.46462 0.58709 0.0
H504 H 0.16146 0.59795 0.14044 0.0
H505 H 0.23898 0.65789 0.14656 0.0
H506 H 0.24793 0.64069 0.06119 0.0
H507 H 0.17149 0.54866 0.09114 0.0
H508 H 0.1443 0.53533 0.04641 0.0
H509 H 0.14474 0.5519 0.10861 0.0
H510 H 0.13529 0.58168 0.05041 0.0
H511 H 0.13445 0.56496 0.98824 0.0
H512 H 0.1553 0.5984 0.9924 0.0
H513 H 0.24766 0.61487 0.9731 0.0
H514 H 0.23697 0.58806 0.88834 0.0
H515 H 0.15924 0.5474 0.94047 0.0
C516 C 0.18043 0.60746 0.12419 0.0
C517 C 0.19961 0.62914 0.15082 0.0
C518 C 0.22398 0.64124 0.12712 0.0
C519 C 0.22923 0.63146 0.07878 0.0
C520 C 0.20982 0.60975 0.05404 0.0
C521 C 0.1858 0.59826 0.0758 0.0
C522 C 0.16767 0.57619 0.04039 0.0
C523 C 0.15639 0.55157 0.07364 0.0
C524 C 0.14696 0.58058 1.01644 0.0
C525 C 0.18508 0.57677 0.99512 0.0
C526 C 0.20946 0.59595 1.00372 0.0
C527 C 0.2286 0.59986 0.96636 0.0
C528 C 0.22246 0.58437 0.91857 0.0
C529 C 0.19734 0.56544 0.90814 0.0
C530 C 0.17867 0.56153 0.9476 0.0
H531 H 0.68098 0.24891 0.45045 0.0
H532 H 0.62186 0.18332 0.36697 0.0
H533 H 0.59319 0.17668 0.44491 0.0
H534 H 0.66547 0.22235 0.58915 0.0
H535 H 0.67278 0.25146 0.62259 0.0
H536 H 0.68869 0.2518 0.55934 0.0
H537 H 0.67453 0.28068 0.5132 0.0
H538 H 0.65852 0.28042 0.57623 0.0
H539 H 0.6416 0.271 0.51127 0.0
H540 H 0.57029 0.17749 0.53033 0.0
H541 H 0.55553 0.18369 0.6209 0.0
H542 H 0.62956 0.24731 0.65413 0.0
C543 C 0.66195 0.23324 0.44849 0.0
C544 C 0.65371 0.21673 0.40208 0.0
C545 C 0.62875 0.19624 0.40176 0.0
C546 C 0.61222 0.19234 0.44589 0.0
C547 C 0.62087 0.2089 0.49081 0.0
C548 C 0.64521 0.22881 0.49288 0.0
C549 C 0.64984 0.24318 0.54733 0.0
C550 C 0.67041 0.24213 0.58163 0.0
C551 C 0.65652 0.27044 0.53633 0.0
C552 C 0.62426 0.22834 0.5752 0.0
C553 C 0.60785 0.20876 0.54149 0.0
C554 C 0.58307 0.19259 0.55734 0.0
C555 C 0.57488 0.19622 0.60925 0.0
C556 C 0.59138 0.21571 0.64561 0.0
C557 C 0.61641 0.23215 0.62772 0.0
H558 H 0.54641 0.36025 1.02073 0.0
H559 H 0.61561 0.36337 0.06741 0.0
H560 H 0.62041 0.35177 0.97289 0.0
H561 H 0.53829 0.315 0.8785 0.0
H562 H 0.52432 0.33089 0.84345 0.0
H563 H 0.51584 0.32057 0.91443 0.0
H564 H 0.52704 0.3648 0.94398 0.0
H565 H 0.53517 0.37538 0.87409 0.0
H566 H 0.55786 0.39099 0.92902 0.0
H567 H 0.63031 0.36376 0.87955 0.0
H568 H 0.64553 0.40198 0.82558 0.0
H569 H 0.57119 0.39239 0.8224 0.0
C570 C 0.56175 0.35709 1.01093 0.0
C571 C 0.58097 0.36344 0.05016 0.0
C572 C 0.6011 0.35953 0.03712 0.0
C573 C 0.60356 0.35223 0.9836 0.0
C574 C 0.58606 0.34939 0.94292 0.0
C575 C 0.56469 0.35055 0.95669 0.0
C576 C 0.55281 0.35416 0.90496 0.0
C577 C 0.5316 0.32864 0.88411 0.0
C578 C 0.54276 0.3725 0.91362 0.0
C579 C 0.57515 0.36392 0.86597 0.0
C580 C 0.59239 0.35724 0.88521 0.0
C581 C 0.61691 0.3689 0.86445 0.0
C582 C 0.62559 0.39091 0.83361 0.0
C583 C 0.60953 0.40063 0.82309 0.0
C584 C 0.5836 0.38526 0.83234 0.0
H585 H 0.24939 0.65487 0.47712 0.0
H586 H 0.18989 0.67265 0.49182 0.0
H587 H 0.19597 0.677 0.59181 0.0
H588 H 0.23447 0.61427 0.55526 0.0
H589 H 0.26211 0.62074 0.59463 0.0
H590 H 0.26558 0.63508 0.52849 0.0
H591 H 0.29246 0.67878 0.57275 0.0
H592 H 0.28893 0.6642 0.63987 0.0
H593 H 0.28063 0.68821 0.63092 0.0
H594 H 0.19053 0.65756 0.67832 0.0
H595 H 0.17434 0.61771 0.72816 0.0
H596 H 0.23718 0.61105 0.67135 0.0
C597 C 0.23826 0.66041 0.50163 0.0
C598 C 0.21873 0.66261 0.47677 0.0
C599 C 0.20497 0.67066 0.50947 0.0
C600 C 0.20855 0.67351 0.56685 0.0
C601 C 0.22583 0.6681 0.59146 0.0
C602 C 0.24141 0.66277 0.55946 0.0
C603 C 0.25364 0.65156 0.59496 0.0
C604 C 0.25383 0.62905 0.56665 0.0
C605 C 0.28049 0.6719 0.61058 0.0
C606 C 0.23667 0.64428 0.64555 0.0
C607 C 0.22283 0.65654 0.64562 0.0
C608 C 0.20166 0.64843 0.67948 0.0
C609 C 0.19233 0.62559 0.70734 0.0
C610 C 0.20451 0.61151 0.70216 0.0
C611 C 0.22807 0.62209 0.67594 0.0
H612 H 0.56037 0.13448 0.16595 0.0
H613 H 0.61791 0.11512 0.13434 0.0
H614 H 0.59688 0.09429 0.04851 0.0
H615 H 0.50815 0.07714 0.06496 0.0
H616 H 0.49663 0.09796 0.04664 0.0
H617 H 0.50554 0.09659 0.11757 0.0
H618 H 0.53532 0.14453 0.11633 0.0
H619 H 0.52671 0.14595 0.04641 0.0
H620 H 0.5594 0.15827 0.06352 0.0
H621 H 0.58661 0.0981 0.95443 0.0
H622 H 0.5851 0.1212 0.8727 0.0
H623 H 0.53269 0.13701 0.95799 0.0
C624 C 0.56795 0.12495 0.14219 0.0
C625 C 0.59182 0.12827 0.15481 0.0
C626 C 0.60044 0.11437 0.12423 0.0
C627 C 0.58822 0.10188 0.07547 0.0
C628 C 0.56701 0.10281 0.0586 0.0
C629 C 0.55597 0.11276 0.09283 0.0
C630 C 0.5372 0.11698 0.06074 0.0
C631 C 0.5103 0.0959 0.0732 0.0
C632 C 0.53994 0.14299 0.07236 0.0
C633 C 0.54455 0.11448 1.00199 0.0
C634 C 0.5601 0.10417 1.00151 0.0
C635 C 0.57376 0.10529 0.95404 0.0
C636 C 0.5732 0.11889 0.90798 0.0
C637 C 0.55915 0.13131 0.90976 0.0
C638 C 0.54328 0.12739 0.95549 0.0
H639 H 0.38884 0.5839 0.68581 0.0
H640 H 0.42194 0.6638 0.66889 0.0
H641 H 0.39702 0.65822 0.58574 0.0
H642 H 0.3955 0.56733 0.58442 0.0
H643 H 0.36659 0.54041 0.5616 0.0
H644 H 0.37088 0.54844 0.63343 0.0
H645 H 0.33019 0.55023 0.63351 0.0
H646 H 0.32587 0.54301 0.56013 0.0
H647 H 0.32623 0.57067 0.58627 0.0
H648 H 0.39571 0.64766 0.48937 0.0
H649 H 0.40595 0.63154 0.40487 0.0
H650 H 0.36955 0.55725 0.47533 0.0
C651 C 0.38908 0.59985 0.66636 0.0
C652 C 0.40829 0.62407 0.68041 0.0
C653 C 0.40813 0.64498 0.65678 0.0
C654 C 0.39374 0.64189 0.60942 0.0
C655 C 0.37898 0.61773 0.58814 0.0
C656 C 0.37475 0.59667 0.61856 0.0
C657 C 0.36317 0.5735 0.58207 0.0
C658 C 0.37483 0.55654 0.59086 0.0
C659 C 0.33465 0.55846 0.59103 0.0
C660 C 0.36912 0.58596 0.52562 0.0
C661 C 0.37644 0.6112 0.52947 0.0
C662 C 0.38888 0.62776 0.48533 0.0
C663 C 0.39514 0.61872 0.43795 0.0
C664 C 0.38904 0.59349 0.43557 0.0
C665 C 0.37452 0.57675 0.47786 0.0
H666 H 0.89665 0.51182 0.07898 0.0
H667 H 0.91775 0.4625 0.15799 0.0
H668 H 0.94031 0.46238 0.07386 0.0
H669 H 0.87136 0.48333 0.9841 0.0
H670 H 0.88082 0.50411 0.92476 0.0
H671 H 0.88452 0.51677 0.9929 0.0
H672 H 0.93162 0.54645 0.97512 0.0
H673 H 0.92793 0.5338 0.90575 0.0
H674 H 0.95119 0.53415 0.95191 0.0
H675 H 0.939 0.44877 0.98193 0.0
H676 H 0.911 0.42179 0.9089 0.0
H677 H 0.88595 0.4748 0.87775 0.0
C678 C 0.90777 0.50268 0.07866 0.0
C679 C 0.90586 0.48731 0.12365 0.0
C680 C 0.9194 0.47452 0.12341 0.0
C681 C 0.93237 0.47457 0.07564 0.0
C682 C 0.9307 0.48671 0.02789 0.0
C683 C 0.9193 0.50139 0.02955 0.0
C684 C 0.9123 0.50544 0.9715 0.0
C685 C 0.88565 0.5021 0.96827 0.0
C686 C 0.93194 0.53149 0.9498 0.0
C687 C 0.91457 0.48521 0.9407 0.0
C688 C 0.92825 0.47707 0.97163 0.0
C689 C 0.92877 0.45536 0.95712 0.0
C690 C 0.91258 0.43992 0.91548 0.0
C691 C 0.89591 0.44617 0.88922 0.0
C692 C 0.89856 0.46993 0.89833 0.0
H693 H 0.47624 0.81804 0.45915 0.0
H694 H 0.40237 0.78159 0.38652 0.0
H695 H 0.385 0.75647 0.47208 0.0
H696 H 0.46102 0.76401 0.57775 0.0
H697 H 0.4805 0.78903 0.62483 0.0
H698 H 0.48946 0.79088 0.55278 0.0
H699 H 0.49217 0.83384 0.54457 0.0
H700 H 0.48339 0.83208 0.61558 0.0
H701 H 0.46516 0.83663 0.56268 0.0
H702 H 0.37345 0.75008 0.56749 0.0
H703 H 0.36829 0.77106 0.64814 0.0
H704 H 0.44843 0.81462 0.66945 0.0
C705 C 0.45658 0.80387 0.46152 0.0
C706 C 0.44034 0.80174 0.41815 0.0
C707 C 0.41483 0.78338 0.42028 0.0
C708 C 0.40506 0.76883 0.46842 0.0
C709 C 0.42111 0.7732 0.51383 0.0
C710 C 0.44668 0.79022 0.51026 0.0
C711 C 0.45858 0.79803 0.56729 0.0
C712 C 0.47326 0.78466 0.58147 0.0
C713 C 0.47571 0.82682 0.57276 0.0
C714 C 0.43509 0.78766 0.60238 0.0
C715 C 0.41402 0.77084 0.57205 0.0
C716 C 0.3898 0.76276 0.59163 0.0
C717 C 0.38696 0.77484 0.63784 0.0
C718 C 0.40824 0.79498 0.66306 0.0
C719 C 0.43224 0.79929 0.64958 0.0
H720 H 0.2076 0.48274 0.94698 0.0
H721 H 0.25006 0.46883 0.82235 0.0
H722 H 0.2773 0.46711 0.89617 0.0
H723 H 0.25812 0.52223 0.03344 0.0
H724 H 0.24137 0.51013 0.09792 0.0
H725 H 0.22451 0.50882 0.03562 0.0
H726 H 0.19606 0.46073 0.04738 0.0
H727 H 0.21277 0.4619 0.10996 0.0
H728 H 0.2102 0.4413 0.05381 0.0
H729 H 0.30273 0.47199 0.98276 0.0
H730 H 0.32146 0.47823 0.07723 0.0
H731 H 0.26028 0.48548 0.14526 0.0
C732 C 0.22247 0.47903 0.93556 0.0
C733 C 0.22686 0.4759 0.87934 0.0
C734 C 0.24635 0.471 0.86544 0.0
C735 C 0.26193 0.47013 0.90697 0.0
C736 C 0.25737 0.47371 0.9621 0.0
C737 C 0.23781 0.4776 0.97653 0.0
C738 C 0.23699 0.48112 0.03864 0.0
C739 C 0.24046 0.50712 0.05217 0.0
C740 C 0.21255 0.46 0.06393 0.0
C741 C 0.25947 0.47915 0.05685 0.0
C742 C 0.27114 0.47509 1.0121 0.0
C743 C 0.29346 0.47461 1.01826 0.0
C744 C 0.30399 0.47823 0.07166 0.0
C745 C 0.29192 0.4818 0.11788 0.0
C746 C 0.26938 0.48212 0.11041 0.0
H747 H 0.77215 0.25679 0.65313 0.0
H748 H 0.84569 0.31647 0.60322 0.0
H749 H 0.83753 0.30011 0.50687 0.0
H750 H 0.76887 0.20737 0.55854 0.0
H751 H 0.73596 0.19514 0.54469 0.0
H752 H 0.74902 0.20939 0.61106 0.0
H753 H 0.73214 0.24012 0.59734 0.0
H754 H 0.71921 0.22612 0.53094 0.0
H755 H 0.7408 0.25938 0.53572 0.0
H756 H 0.81983 0.28013 0.41538 0.0
H757 H 0.79357 0.2588 0.33398 0.0
H758 H 0.73141 0.21158 0.44353 0.0
C759 C 0.78678 0.26588 0.62219 0.0
C760 C 0.80963 0.28767 0.63533 0.0
C761 C 0.82808 0.29971 0.59361 0.0
C762 C 0.82367 0.29047 0.53905 0.0
C763 C 0.80069 0.26922 0.52711 0.0
C764 C 0.78254 0.25705 0.56746 0.0
C765 C 0.75853 0.23613 0.54263 0.0
C766 C 0.75276 0.21049 0.5656 0.0
C767 C 0.73638 0.24073 0.55222 0.0
C768 C 0.76586 0.23886 0.48187 0.0
C769 C 0.79033 0.25782 0.47392 0.0
C770 C 0.80078 0.26493 0.42108 0.0
C771 C 0.78567 0.25256 0.375 0.0
C772 C 0.76032 0.23337 0.38201 0.0
C773 C 0.75059 0.2262 0.43642 0.0
H774 H 0.52544 0.80804 0.08218 0.0
H775 H 0.59732 0.82599 0.15402 0.0
H776 H 0.60542 0.80596 0.07401 0.0
H777 H 0.50955 0.74737 0.03355 0.0
H778 H 0.4945 0.74945 0.97102 0.0
H779 H 0.49516 0.76668 0.03217 0.0
H780 H 0.51604 0.808 0.97534 0.0
H781 H 0.51551 0.79091 0.91396 0.0
H782 H 0.54472 0.81698 0.93794 0.0
H783 H 0.60484 0.78226 0.98796 0.0
H784 H 0.59501 0.75574 0.9041 0.0
H785 H 0.52349 0.75331 0.88945 0.0
C786 C 0.54286 0.80774 0.08141 0.0
C787 C 0.56075 0.81871 0.12458 0.0
C788 C 0.58345 0.81809 0.12122 0.0
C789 C 0.5882 0.80665 0.07599 0.0
C790 C 0.57009 0.79594 0.03439 0.0
C791 C 0.54786 0.79636 0.03676 0.0
C792 C 0.53106 0.78273 0.98776 0.0
C793 C 0.5061 0.76022 1.00731 0.0
C794 C 0.52658 0.80074 0.95161 0.0
C795 C 0.54718 0.77426 0.95785 0.0
C796 C 0.5697 0.78221 0.98512 0.0
C797 C 0.58735 0.77608 0.96599 0.0
C798 C 0.58166 0.76113 0.91812 0.0
C799 C 0.55846 0.75239 0.89012 0.0
C800 C 0.54125 0.75943 0.9101 0.0
H801 H 0.75841 0.56665 0.61635 0.0
H802 H 0.77214 0.51842 0.72381 0.0
H803 H 0.79849 0.51467 0.65099 0.0
H804 H 0.74819 0.53231 0.49991 0.0
H805 H 0.76274 0.55781 0.45086 0.0
H806 H 0.75036 0.56203 0.51511 0.0
H807 H 0.79362 0.60032 0.5398 0.0
H808 H 0.80612 0.5965 0.47499 0.0
H809 H 0.82117 0.59707 0.53981 0.0
H810 H 0.81642 0.51003 0.56283 0.0
H811 H 0.82535 0.50499 0.46598 0.0
H812 H 0.80005 0.55635 0.41367 0.0
C813 C 0.76803 0.55636 0.62517 0.0
C814 C 0.76382 0.54318 0.67564 0.0
C815 C 0.77559 0.52885 0.6854 0.0
C816 C 0.79057 0.52669 0.64442 0.0
C817 C 0.79352 0.53902 0.59397 0.0
C818 C 0.78279 0.55378 0.58427 0.0
C819 C 0.78591 0.56208 0.52402 0.0
C820 C 0.76028 0.553 0.49585 0.0
C821 C 0.80272 0.5907 0.5194 0.0
C822 C 0.79894 0.54867 0.50091 0.0
C823 C 0.80359 0.53591 0.54217 0.0
C824 C 0.81343 0.52042 0.53029 0.0
C825 C 0.81846 0.51769 0.4747 0.0
C826 C 0.81353 0.53029 0.43128 0.0
C827 C 0.80406 0.54635 0.44522 0.0
H828 H 0.24786 0.74189 0.11859 0.0
H829 H 0.17849 0.743 0.09455 0.0
H830 H 0.1962 0.7689 1.01028 0.0
H831 H 0.28952 0.80484 0.07468 0.0
H832 H 0.31095 0.79728 0.04031 0.0
H833 H 0.29274 0.77884 0.09873 0.0
H834 H 0.2749 0.73844 0.03879 0.0
H835 H 0.29312 0.75677 0.98025 0.0
H836 H 0.2596 0.73689 0.97369 0.0
H837 H 0.22167 0.79474 0.92835 0.0
H838 H 0.25273 0.81788 0.85438 0.0
H839 H 0.30509 0.79966 0.93332 0.0
C840 C 0.23626 0.74732 0.09537 0.0
C841 C 0.21179 0.74043 0.11328 0.0
C842 C 0.19741 0.74832 0.08207 0.0
C843 C 0.20725 0.76293 0.03399 0.0
C844 C 0.23149 0.76947 1.01771 0.0
C845 C 0.24578 0.76189 0.04742 0.0
C846 C 0.27132 0.77146 0.02126 0.0
C847 C 0.29237 0.78916 0.06112 0.0
C848 C 0.27493 0.74958 1.00237 0.0
C849 C 0.26913 0.78556 0.97208 0.0
C850 C 0.24607 0.78426 0.97071 0.0
C851 C 0.23982 0.79592 0.929 0.0
C852 C 0.25761 0.80913 0.88738 0.0
C853 C 0.28129 0.81049 0.88784 0.0
C854 C 0.28703 0.79863 0.93111 0.0
H855 H 0.47579 0.21812 0.6172 0.0
H856 H 0.54571 0.27201 0.69572 0.0
H857 H 0.55129 0.30378 0.62558 0.0
H858 H 0.49681 0.23385 0.48144 0.0
H859 H 0.46778 0.22957 0.45312 0.0
H860 H 0.46732 0.21232 0.51393 0.0
H861 H 0.44298 0.22984 0.5682 0.0
H862 H 0.44328 0.24712 0.50735 0.0
H863 H 0.45566 0.26329 0.57236 0.0
H864 H 0.55135 0.32796 0.54301 0.0
H865 H 0.54666 0.34299 0.4512 0.0
H866 H 0.47705 0.27313 0.42444 0.0
C867 C 0.49187 0.23685 0.62039 0.0
C868 C 0.51026 0.24281 0.66185 0.0
C869 C 0.5315 0.26719 0.66402 0.0
C870 C 0.5347 0.28534 0.62471 0.0
C871 C 0.51646 0.27872 0.58362 0.0
C872 C 0.49545 0.25508 0.58113 0.0
C873 C 0.47997 0.25202 0.5296 0.0
C874 C 0.47786 0.23069 0.49234 0.0
C875 C 0.45393 0.24783 0.54534 0.0
C876 C 0.49596 0.27741 0.50272 0.0
C877 C 0.51671 0.29262 0.53505 0.0
C878 C 0.53506 0.31635 0.51757 0.0
C879 C 0.53234 0.32461 0.46521 0.0
C880 C 0.51155 0.30912 0.43078 0.0
C881 C 0.49289 0.28544 0.45035 0.0
H882 H 0.75137 0.52119 0.90938 0.0
H883 H 0.696 0.44237 0.89501 0.0
H884 H 0.71681 0.43287 0.97278 0.0
H885 H 0.80525 0.51301 0.94436 0.0
H886 H 0.81816 0.53959 0.99079 0.0
H887 H 0.79991 0.53882 0.9314 0.0
H888 H 0.77047 0.54583 0.99685 0.0
H889 H 0.78826 0.54605 0.05652 0.0
H890 H 0.75497 0.52426 0.05339 0.0
H891 H 0.74272 0.43375 0.0623 0.0
H892 H 0.7726 0.4442 0.14148 0.0
H893 H 0.81023 0.52234 0.09187 0.0
C894 C 0.74402 0.50179 0.92145 0.0
C895 C 0.72229 0.48247 0.89548 0.0
C896 C 0.71299 0.4574 0.9133 0.0
C897 C 0.72457 0.45193 0.95798 0.0
C898 C 0.74559 0.4717 0.98402 0.0
C899 C 0.75542 0.49608 0.96519 0.0
C900 C 0.77764 0.51432 1.0 0.0
C901 C 0.80166 0.52719 0.96453 0.0
C902 C 0.77251 0.53375 0.02835 0.0
C903 C 0.77877 0.49667 0.04221 0.0
C904 C 0.76018 0.47211 0.03307 0.0
C905 C 0.75746 0.45294 0.06902 0.0
C906 C 0.77439 0.45903 0.11427 0.0
C907 C 0.79393 0.48407 0.12304 0.0
C908 C 0.79575 0.50292 0.08638 0.0
H909 H 0.24776 0.76047 0.39405 0.0
H910 H 0.26132 0.69802 0.38325 0.0
H911 H 0.28557 0.71181 0.47176 0.0
H912 H 0.30879 0.80594 0.45182 0.0
H913 H 0.29529 0.82029 0.49437 0.0
H914 H 0.28072 0.80572 0.42936 0.0
H915 H 0.23887 0.7779 0.48152 0.0
H916 H 0.25348 0.7919 0.5469 0.0
H917 H 0.23814 0.75834 0.53818 0.0
H918 H 0.3061 0.73217 0.56974 0.0
H919 H 0.3247 0.75929 0.65345 0.0
H920 H 0.29734 0.80778 0.59478 0.0
C921 C 0.25632 0.74996 0.40942 0.0
C922 C 0.25272 0.72823 0.38108 0.0
C923 C 0.2641 0.71497 0.40337 0.0
C924 C 0.27767 0.72253 0.45418 0.0
C925 C 0.27997 0.74359 0.48215 0.0
C926 C 0.26994 0.75732 0.45945 0.0
C927 C 0.27467 0.77917 0.4965 0.0
C928 C 0.29083 0.80426 0.46622 0.0
C929 C 0.24981 0.77666 0.51697 0.0
C930 C 0.28894 0.77582 0.54394 0.0
C931 C 0.29174 0.75511 0.53584 0.0
C932 C 0.30413 0.74852 0.57571 0.0
C933 C 0.31454 0.76394 0.62349 0.0
C934 C 0.31278 0.78588 0.63081 0.0
C935 C 0.29927 0.7913 0.59068 0.0
H936 H 0.50926 0.27943 0.12153 0.0
H937 H 0.58828 0.32674 0.15968 0.0
H938 H 0.59894 0.30862 0.07848 0.0
H939 H 0.51114 0.22494 0.07584 0.0
H940 H 0.48801 0.21791 0.02229 0.0
H941 H 0.48772 0.23411 0.0844 0.0
H942 H 0.49004 0.27002 0.02359 0.0
H943 H 0.491 0.2543 0.96118 0.0
H944 H 0.51557 0.28599 0.97507 0.0
H945 H 0.59992 0.28523 0.98561 0.0
H946 H 0.59078 0.25694 0.90375 0.0
H947 H 0.51118 0.227 0.93039 0.0
C948 C 0.5289 0.2859 0.11363 0.0
C949 C 0.54789 0.30446 0.14774 0.0
C950 C 0.57329 0.31227 0.13501 0.0
C951 C 0.5795 0.30222 0.08845 0.0
C952 C 0.56015 0.28452 0.0546 0.0
C953 C 0.53534 0.27635 0.0675 0.0
C954 C 0.51766 0.25741 0.02554 0.0
C955 C 0.50011 0.2321 0.0537 0.0
C956 C 0.50268 0.26753 0.99452 0.0
C957 C 0.53616 0.25561 0.98711 0.0
C958 C 0.56069 0.27153 1.00349 0.0
C959 C 0.58071 0.2727 0.97299 0.0
C960 C 0.5754 0.25672 0.92615 0.0
C961 C 0.55026 0.23964 0.91049 0.0
C962 C 0.53064 0.23968 0.94116 0.0
H963 H 0.28638 0.49958 0.42602 0.0
H964 H 0.33326 0.57878 0.39111 0.0
H965 H 0.31378 0.58869 0.47084 0.0
H966 H 0.23023 0.50246 0.46692 0.0
H967 H 0.22164 0.47829 0.5186 0.0
H968 H 0.23854 0.47847 0.45726 0.0
H969 H 0.273 0.47851 0.51982 0.0
H970 H 0.25606 0.47853 0.58087 0.0
H971 H 0.28829 0.50265 0.57175 0.0
H972 H 0.28946 0.58898 0.56228 0.0
H973 H 0.26071 0.57938 0.64338 0.0
H974 H 0.2305 0.50001 0.61407 0.0
C975 C 0.29212 0.51903 0.43416 0.0
C976 C 0.31106 0.53837 0.40152 0.0
C977 C 0.31831 0.56359 0.41436 0.0
C978 C 0.30748 0.56936 0.46011 0.0
C979 C 0.28915 0.54969 0.49228 0.0
C980 C 0.28133 0.52499 0.47885 0.0
C981 C 0.26153 0.507 0.51911 0.0
C982 C 0.2365 0.4906 0.48866 0.0
C983 C 0.27027 0.49074 0.54965 0.0
C984 C 0.25972 0.52524 0.55855 0.0
C985 C 0.2757 0.54986 0.54298 0.0
C986 C 0.27689 0.5697 0.57428 0.0
C987 C 0.26078 0.56414 0.62094 0.0
C988 C 0.24366 0.53895 0.63583 0.0
C989 C 0.24363 0.51948 0.60438 0.0
H990 H 0.73405 0.23346 0.1082 0.0
H991 H 0.68351 0.262 0.13819 0.0
H992 H 0.70555 0.29444 0.06475 0.0
H993 H 0.79002 0.29397 0.08522 0.0
H994 H 0.80199 0.28143 0.03351 0.0
H995 H 0.78226 0.26162 0.08874 0.0
H996 H 0.75208 0.23 1.01538 0.0
H997 H 0.77144 0.24995 0.95991 0.0
H998 H 0.73862 0.24059 0.96271 0.0
H999 H 0.73285 0.32226 0.9795 0.0
H1000 H 0.76479 0.34493 0.90547 0.0
H1001 H 0.79743 0.29815 0.93868 0.0
C1002 C 0.72778 0.24675 0.09996 0.0
C1003 C 0.7071 0.24525 0.12905 0.0
C1004 C 0.6995 0.26299 0.11691 0.0
C1005 C 0.71181 0.28131 0.07485 0.0
C1006 C 0.73188 0.28183 0.04593 0.0
C1007 C 0.74001 0.26519 0.05918 0.0
C1008 C 0.76212 0.26943 0.02369 0.0
C1009 C 0.78548 0.27708 0.05995 0.0
C1010 C 0.75566 0.24611 0.98834 0.0
C1011 C 0.76527 0.29097 0.98766 0.0
C1012 C 0.74759 0.29785 1.00011 0.0
C1013 C 0.74683 0.31702 0.97014 0.0
C1014 C 0.76489 0.32969 0.92777 0.0
C1015 C 0.78365 0.32338 0.91635 0.0
C1016 C 0.78346 0.30358 0.94658 0.0
H1017 H 0.54203 0.80029 0.4181 0.0
H1018 H 0.46364 0.7672 0.37272 0.0
H1019 H 0.45193 0.73887 0.45474 0.0
H1020 H 0.53873 0.74235 0.46825 0.0
H1021 H 0.56136 0.75879 0.52251 0.0
H1022 H 0.56269 0.77468 0.45858 0.0
H1023 H 0.56056 0.80941 0.51529 0.0
H1024 H 0.55865 0.7933 0.57921 0.0
H1025 H 0.5347 0.80092 0.56231 0.0
H1026 H 0.44939 0.71594 0.54961 0.0
H1027 H 0.45679 0.69854 0.63642 0.0
H1028 H 0.53686 0.74635 0.61497 0.0
C1029 C 0.52238 0.78667 0.42447 0.0
C1030 C 0.5038 0.78588 0.38831 0.0
C1031 C 0.47831 0.76791 0.39889 0.0
C1032 C 0.47149 0.75186 0.44584 0.0
C1033 C 0.49039 0.75367 0.48148 0.0
C1034 C 0.51537 0.77045 0.47042 0.0
C1035 C 0.53234 0.76935 0.51476 0.0
C1036 C 0.5498 0.76077 0.48952 0.0
C1037 C 0.54744 0.79475 0.54463 0.0
C1038 C 0.51317 0.74962 0.5534 0.0
C1039 C 0.48899 0.74075 0.53409 0.0
C1040 C 0.46834 0.72272 0.56439 0.0
C1041 C 0.47262 0.71313 0.61423 0.0
C1042 C 0.49733 0.72118 0.63302 0.0
C1043 C 0.51769 0.73994 0.6022 0.0
H1044 H 0.44312 0.49371 0.21498 0.0
H1045 H 0.37601 0.43501 0.29502 0.0
H1046 H 0.3963 0.40959 0.30567 0.0
H1047 H 0.45697 0.44981 0.13796 0.0
H1048 H 0.49048 0.46966 0.14504 0.0
H1049 H 0.47058 0.48338 0.14235 0.0
H1050 H 0.48924 0.50593 0.23596 0.0
H1051 H 0.50895 0.49203 0.23931 0.0
H1052 H 0.48794 0.48772 0.29595 0.0
H1053 H 0.42463 0.39193 0.316 0.0
H1054 H 0.45758 0.3802 0.31278 0.0
H1055 H 0.5056 0.44774 0.219 0.0
C1056 C 0.43253 0.47533 0.2338 0.0
C1057 C 0.40808 0.46676 0.25536 0.0
C1058 C 0.39499 0.4425 0.27971 0.0
C1059 C 0.40631 0.42776 0.28572 0.0
C1060 C 0.43065 0.43713 0.26611 0.0
C1061 C 0.44347 0.46005 0.23945 0.0
C1062 C 0.46941 0.46531 0.22168 0.0
C1063 C 0.47201 0.46714 0.15796 0.0
C1064 C 0.4901 0.48916 0.24992 0.0
C1065 C 0.46919 0.44197 0.24341 0.0
C1066 C 0.44667 0.42614 0.2694 0.0
C1067 C 0.44223 0.404 0.29514 0.0
C1068 C 0.46111 0.39758 0.29351 0.0
C1069 C 0.48408 0.41303 0.26575 0.0
C1070 C 0.48814 0.43554 0.2403 0.0
H1071 H 0.06142 0.44715 0.83576 0.0
H1072 H 0.08262 0.47674 0.66804 0.0
H1073 H 0.03823 0.45787 0.6425 0.0
H1074 H 1.00686 0.38886 0.79919 0.0
H1075 H 0.98801 0.38866 0.85685 0.0
H1076 H 0.02169 0.40444 0.86337 0.0
H1077 H 0.02261 0.44565 0.89031 0.0
H1078 H 0.98891 0.42992 0.88436 0.0
H1079 H 1.00811 0.45807 0.84493 0.0
H1080 H 0.99195 0.43458 0.63251 0.0
H1081 H 0.94593 0.41104 0.6414 0.0
H1082 H 0.95337 0.39855 0.81673 0.0
C1083 C 0.05671 0.4498 0.79385 0.0
C1084 C 0.07572 0.46294 0.75361 0.0
C1085 C 0.06859 0.46608 0.69927 0.0
C1086 C 0.04334 0.45557 0.68429 0.0
C1087 C 0.02514 0.4422 0.72419 0.0
C1088 C 0.03136 0.43954 0.77809 0.0
C1089 C 1.00778 0.42455 0.81278 0.0
C1090 C 1.00599 0.40018 0.83431 0.0
C1091 C 1.0068 0.4405 0.86095 0.0
C1092 C 0.98754 0.4191 0.76969 0.0
C1093 C 0.99808 0.4294 0.71887 0.0
C1094 C 0.98342 0.42666 0.67229 0.0
C1095 C 0.95722 0.41333 0.67786 0.0
C1096 C 0.94577 0.403 0.7298 0.0
C1097 C 0.96133 0.40588 0.77619 0.0
H1098 H 0.60196 0.07324 0.27581 0.0
H1099 H 0.67645 0.08425 0.30492 0.0
H1100 H 0.65994 0.03884 0.29275 0.0
H1101 H 0.56765 0.01333 0.34792 0.0
H1102 H 0.54203 1.00047 0.29888 0.0
H1103 H 0.55965 0.03383 0.31077 0.0
H1104 H 0.56898 0.04107 0.20516 0.0
H1105 H 0.55168 1.0077 0.19307 0.0
H1106 H 0.58383 0.02596 0.17032 0.0
H1107 H 0.63591 0.99271 0.27698 0.0
H1108 H 0.60497 0.94772 0.26475 0.0
H1109 H 0.54562 0.96559 0.24482 0.0
C1110 C 0.61468 0.066 0.28055 0.0
C1111 C 0.64054 0.08233 0.29143 0.0
C1112 C 0.65665 0.07216 0.2963 0.0
C1113 C 0.64744 0.04639 0.28939 0.0
C1114 C 0.62205 0.03092 0.27746 0.0
C1115 C 0.60579 0.04022 0.2735 0.0
C1116 C 0.5793 0.01933 0.26036 0.0
C1117 C 0.56108 0.01658 0.30729 0.0
C1118 C 0.57043 0.02379 0.20387 0.0
C1119 C 0.5832 0.99683 0.258 0.0
C1120 C 0.60809 1.00409 0.2677 0.0
C1121 C 0.61641 0.9868 0.26911 0.0
C1122 C 0.59876 0.96134 0.26187 0.0
C1123 C 0.57308 0.95332 0.25313 0.0
C1124 C 0.56525 0.97134 0.25029 0.0
H1125 H 0.57972 0.63166 0.73309 0.0
H1126 H 0.5271 0.59073 0.86601 0.0
H1127 H 0.54519 0.56301 0.87416 0.0
H1128 H 0.57752 0.57796 0.66773 0.0
H1129 H 0.61041 0.59412 0.65008 0.0
H1130 H 0.59389 0.61133 0.65537 0.0
H1131 H 0.62631 0.64126 0.7277 0.0
H1132 H 0.64303 0.62427 0.72235 0.0
H1133 H 0.6323 0.62834 0.78928 0.0
H1134 H 0.56819 0.5393 0.86699 0.0
H1135 H 0.59619 0.52224 0.84852 0.0
H1136 H 0.63366 0.57771 0.71876 0.0
C1137 C 0.57187 0.6168 0.76377 0.0
C1138 C 0.55189 0.61342 0.79895 0.0
C1139 C 0.54257 0.59397 0.83913 0.0
C1140 C 0.55259 0.57797 0.84372 0.0
C1141 C 0.57194 0.5816 0.80786 0.0
C1142 C 0.58161 0.6006 0.76884 0.0
C1143 C 0.60255 0.60047 0.73559 0.0
C1144 C 0.59567 0.59568 0.67351 0.0
C1145 C 0.62753 0.62504 0.74427 0.0
C1146 C 0.60315 0.5784 0.76204 0.0
C1147 C 0.58526 0.56781 0.80356 0.0
C1148 C 0.5823 0.54746 0.8347 0.0
C1149 C 0.59832 0.53794 0.82394 0.0
C1150 C 0.61716 0.54872 0.7824 0.0
C1151 C 0.61931 0.56898 0.75042 0.0
H1152 H 0.06804 0.58285 0.27217 0.0
H1153 H 0.08814 0.66066 0.25251 0.0
H1154 H 0.04359 0.6489 0.26452 0.0
H1155 H 1.00788 0.55668 0.19616 0.0
H1156 H 0.99235 0.52973 0.24115 0.0
H1157 H 0.02567 0.54431 0.22945 0.0
H1158 H 0.03316 0.54967 0.33595 0.0
H1159 H 0.99989 0.53554 0.34789 0.0
H1160 H 0.0211 0.56633 0.37522 0.0
H1161 H 0.9978 0.6293 0.28719 0.0
H1162 H 0.95252 0.6026 0.30408 0.0
H1163 H 0.9609 0.53653 0.3005 0.0
C1164 C 0.06285 0.59722 0.26924 0.0
C1165 C 0.0813 0.62262 0.26079 0.0
C1166 C 0.07409 0.64109 0.25811 0.0
C1167 C 0.04892 0.6346 0.26534 0.0
C1168 C 0.03116 0.60948 0.27465 0.0
C1169 C 0.03765 0.59097 0.27537 0.0
C1170 C 1.0147 0.56535 0.28521 0.0
C1171 C 1.00986 0.548 0.235 0.0
C1172 C 1.01739 0.55353 0.33928 0.0
C1173 C 0.99441 0.57242 0.29059 0.0
C1174 C 1.00442 0.59801 0.28507 0.0
C1175 C 0.98965 0.60917 0.29039 0.0
C1176 C 0.96382 0.59373 0.29977 0.0
C1177 C 0.95271 0.56723 0.30271 0.0
C1178 C 0.96852 0.55662 0.29895 0.0
H1179 H 0.397 0.95735 0.75274 0.0
H1180 H 0.45488 0.94611 0.82681 0.0
H1181 H 0.48456 0.99193 0.82295 0.0
H1182 H 0.43556 1.00574 0.65906 0.0
H1183 H 0.41978 0.02353 0.66805 0.0
H1184 H 0.40285 0.99006 0.6783 0.0
H1185 H 0.39037 0.99598 0.77779 0.0
H1186 H 0.40696 0.02946 0.76756 0.0
H1187 H 0.4145 0.01616 0.82617 0.0
H1188 H 0.50874 0.03857 0.80374 0.0
H1189 H 0.52415 0.08333 0.78284 0.0
H1190 H 0.44981 0.06457 0.72655 0.0
C1191 C 0.41585 0.96463 0.76875 0.0
C1192 C 0.42374 0.94829 0.7901 0.0
C1193 C 0.44848 0.9584 0.81081 0.0
C1194 C 0.46547 0.98434 0.80836 0.0
C1195 C 0.45727 0.9999 0.78589 0.0
C1196 C 0.43288 0.99049 0.76753 0.0
C1197 C 0.42868 1.01129 0.74611 0.0
C1198 C 0.42129 1.00741 0.68421 0.0
C1199 C 0.40896 0.01334 0.78153 0.0
C1200 C 0.45462 0.03385 0.75441 0.0
C1201 C 0.47091 0.02684 0.77684 0.0
C1202 C 0.4961 0.04428 0.78659 0.0
C1203 C 0.50474 0.06959 0.77412 0.0
C1204 C 0.48819 0.07726 0.75273 0.0
C1205 C 0.46283 0.05912 0.74272 0.0
loop_
_geom_bond_atom_site_label_1
_geom_bond_atom_site_label_2
_geom_bond_distance
_geom_bond_site_symmetry_2
_ccdc_geom_bond_type
C0 C1 1.351 . S
C0 N3 1.368 . S
C0 H5 0.931 . S
C1 C0 1.351 . S
C1 N2 1.373 . S
C1 H29 0.930 . S
N2 C1 1.373 . S
N2 C4 1.340 . S
N3 C0 1.368 . S
N3 C4 1.321 . S
N3 Co6 2.135 . S
C4 N2 1.340 . S
C4 N3 1.321 . S
C4 H28 0.930 . S
H5 C0 0.931 . S
Co6 N3 2.135 . S
Co6 N9 2.121 . S
Co6 O14 2.055 . S
Co6 O17 2.039 . S
Co6 N20 2.140 . S
C7 O8 1.227 . S
C7 O17 1.265 . S
O8 C7 1.227 . S
N9 Co6 2.121 . S
N9 C11 1.375 . S
N9 C12 1.313 . S
C10 C11 1.338 . S
C10 N13 1.377 . S
C10 H30 0.930 . S
C11 N9 1.375 . S
C11 C10 1.338 . S
C11 H15 0.931 . S
C12 N9 1.313 . S
C12 N13 1.344 . S
C12 H16 0.930 . S
N13 C10 1.377 . S
N13 C12 1.344 . S
O14 Co6 2.055 . S
O14 C18 1.253 . S
H15 C11 0.931 . S
H16 C12 0.930 . S
O17 Co6 2.039 . S
O17 C7 1.265 . S
C18 O14 1.253 . S
C18 O19 1.227 . S
O19 C18 1.227 . S
N20 Co6 2.140 . S
N20 C23 1.346 . S
N20 C24 1.345 . S
C21 C22 1.387 . S
C21 C25 1.391 . S
C22 C21 1.387 . S
C22 C23 1.369 . S
C22 H31 0.929 . S
C23 N20 1.346 . S
C23 C22 1.369 . S
C23 H26 0.928 . S
C24 N20 1.345 . S
C24 C25 1.371 . S
C24 H27 0.931 . S
C25 C21 1.391 . S
C25 C24 1.371 . S
C25 H32 0.930 . S
H26 C23 0.928 . S
H27 C24 0.931 . S
H28 C4 0.930 . S
H29 C1 0.930 . S
H30 C10 0.930 . S
H31 C22 0.929 . S
H32 C25 0.930 . S
C33 C34 1.351 . S
C33 N36 1.368 . S
C33 H38 0.931 . S
C34 C33 1.351 . S
C34 N35 1.373 . S
C34 H62 0.930 . S
N35 C34 1.373 . S
N35 C37 1.340 . S
N36 C33 1.368 . S
N36 C37 1.321 . S
N36 Co39 2.135 . S
C37 N35 1.340 . S
C37 N36 1.321 . S
C37 H61 0.930 . S
H38 C33 0.931 . S
Co39 N36 2.135 . S
Co39 N42 2.121 . S
Co39 O47 2.055 . S
Co39 O50 2.039 . S
Co39 N53 2.140 . S
C40 O41 1.227 . S
C40 O50 1.265 . S
O41 C40 1.227 . S
N42 Co39 2.121 . S
N42 C44 1.375 . S
N42 C45 1.313 . S
C43 C44 1.338 . S
C43 N46 1.377 . S
C43 H63 0.930 . S
C44 N42 1.375 . S
C44 C43 1.338 . S
C44 H48 0.931 . S
C45 N42 1.313 . S
C45 N46 1.344 . S
C45 H49 0.930 . S
N46 C43 1.377 . S
N46 C45 1.344 . S
O47 Co39 2.055 . S
O47 C51 1.253 . S
H48 C44 0.931 . S
H49 C45 0.930 . S
O50 Co39 2.039 . S
O50 C40 1.265 . S
C51 O47 1.253 . S
C51 O52 1.227 . S
O52 C51 1.227 . S
N53 Co39 2.140 . S
N53 C56 1.346 . S
N53 C57 1.345 . S
C54 C55 1.387 . S
C54 C58 1.391 . S
C55 C54 1.387 . S
C55 C56 1.369 . S
C55 H64 0.929 . S
C56 N53 1.346 . S
C56 C55 1.369 . S
C56 H59 0.928 . S
C57 N53 1.345 . S
C57 C58 1.371 . S
C57 H60 0.931 . S
C58 C54 1.391 . S
C58 C57 1.371 . S
C58 H65 0.930 . S
H59 C56 0.928 . S
H60 C57 0.931 . S
H61 C37 0.930 . S
H62 C34 0.930 . S
H63 C43 0.930 . S
H64 C55 0.929 . S
H65 C58 0.930 . S
C66 C67 1.351 . S
C66 N69 1.368 . S
C66 H71 0.931 . S
C67 C66 1.351 . S
C67 N68 1.373 . S
C67 H95 0.930 . S
N68 C67 1.373 . S
N68 C70 1.340 . S
N69 C66 1.368 . S
N69 C70 1.321 . S
N69 Co72 2.135 . S
C70 N68 1.340 . S
C70 N69 1.321 . S
C70 H94 0.930 . S
H71 C66 0.931 . S
Co72 N69 2.135 . S
Co72 N75 2.121 . S
Co72 O80 2.055 . S
Co72 O83 2.039 . S
Co72 N86 2.140 . S
C73 O74 1.227 . S
C73 O83 1.265 . S
O74 C73 1.227 . S
N75 Co72 2.121 . S
N75 C77 1.375 . S
N75 C78 1.313 . S
C76 C77 1.338 . S
C76 N79 1.377 . S
C76 H96 0.930 . S
C77 N75 1.375 . S
C77 C76 1.338 . S
C77 H81 0.931 . S
C78 N75 1.313 . S
C78 N79 1.344 . S
C78 H82 0.930 . S
N79 C76 1.377 . S
N79 C78 1.344 . S
O80 Co72 2.055 . S
O80 C84 1.253 . S
H81 C77 0.931 . S
H82 C78 0.930 . S
O83 Co72 2.039 . S
O83 C73 1.265 . S
C84 O80 1.253 . S
C84 O85 1.227 . S
O85 C84 1.227 . S
N86 Co72 2.140 . S
N86 C89 1.346 . S
N86 C90 1.345 . S
C87 C88 1.387 . S
C87 C91 1.391 . S
C88 C87 1.387 . S
C88 C89 1.369 . S
C88 H97 0.929 . S
C89 N86 1.346 . S
C89 C88 1.369 . S
C89 H92 0.928 . S
C90 N86 1.345 . S
C90 C91 1.371 . S
C90 H93 0.931 . S
C91 C87 1.391 . S
C91 C90 1.371 . S
C91 H98 0.930 . S
H92 C89 0.928 . S
H93 C90 0.931 . S
H94 C70 0.930 . S
H95 C67 0.930 . S
H96 C76 0.930 . S
H97 C88 0.929 . S
H98 C91 0.930 . S
C99 C100 1.351 . S
C99 N102 1.368 . S
C99 H104 0.931 . S
C100 C99 1.351 . S
C100 N101 1.373 . S
C100 H128 0.930 . S
N101 C100 1.373 . S
N101 C103 1.340 . S
N102 C99 1.368 . S
N102 C103 1.321 . S
N102 Co105 2.135 . S
C103 N101 1.340 . S
C103 N102 1.321 . S
C103 H127 0.930 . S
H104 C99 0.931 . S
Co105 N102 2.135 . S
Co105 N108 2.121 . S
Co105 O113 2.055 . S
Co105 O116 2.039 . S
Co105 N119 2.140 . S
C106 O107 1.227 . S
C106 O116 1.265 . S
O107 C106 1.227 . S
N108 Co105 2.121 . S
N108 C110 1.375 . S
N108 C111 1.313 . S
C109 C110 1.338 . S
C109 N112 1.377 . S
C109 H129 0.930 . S
C110 N108 1.375 . S
C110 C109 1.338 . S
C110 H114 0.931 . S
C111 N108 1.313 . S
C111 N112 1.344 . S
C111 H115 0.930 . S
N112 C109 1.377 . S
N112 C111 1.344 . S
O113 Co105 2.055 . S
O113 C117 1.253 . S
H114 C110 0.931 . S
H115 C111 0.930 . S
O116 Co105 2.039 . S
O116 C106 1.265 . S
C117 O113 1.253 . S
C117 O118 1.227 . S
O118 C117 1.227 . S
N119 Co105 2.140 . S
N119 C122 1.346 . S
N119 C123 1.345 . S
C120 C121 1.387 . S
C120 C124 1.391 . S
C121 C120 1.387 . S
C121 C122 1.369 . S
C121 H130 0.929 . S
C122 N119 1.346 . S
C122 C121 1.369 . S
C122 H125 0.928 . S
C123 N119 1.345 . S
C123 C124 1.371 . S
C123 H126 0.931 . S
C124 C120 1.391 . S
C124 C123 1.371 . S
C124 H131 0.930 . S
H125 C122 0.928 . S
H126 C123 0.931 . S
H127 C103 0.930 . S
H128 C100 0.930 . S
H129 C109 0.930 . S
H130 C121 0.929 . S
H131 C124 0.930 . S
C132 C133 1.351 . S
C132 N135 1.368 . S
C132 H137 0.931 . S
C133 C132 1.351 . S
C133 N134 1.373 . S
C133 H161 0.930 . S
N134 C133 1.373 . S
N134 C136 1.340 . S
N135 C132 1.368 . S
N135 C136 1.321 . S
N135 Co138 2.135 . S
C136 N134 1.340 . S
C136 N135 1.321 . S
C136 H160 0.930 . S
H137 C132 0.931 . S
Co138 N135 2.135 . S
Co138 N141 2.121 . S
Co138 O146 2.055 . S
Co138 O149 2.039 . S
Co138 N152 2.140 . S
C139 O140 1.227 . S
C139 O149 1.265 . S
O140 C139 1.227 . S
N141 Co138 2.121 . S
N141 C143 1.375 . S
N141 C144 1.313 . S
C142 C143 1.338 . S
C142 N145 1.377 . S
C142 H162 0.930 . S
C143 N141 1.375 . S
C143 C142 1.338 . S
C143 H147 0.931 . S
C144 N141 1.313 . S
C144 N145 1.344 . S
C144 H148 0.930 . S
N145 C142 1.377 . S
N145 C144 1.344 . S
O146 Co138 2.055 . S
O146 C150 1.253 . S
H147 C143 0.931 . S
H148 C144 0.930 . S
O149 Co138 2.039 . S
O149 C139 1.265 . S
C150 O146 1.253 . S
C150 O151 1.227 . S
O151 C150 1.227 . S
N152 Co138 2.140 . S
N152 C155 1.346 . S
N152 C156 1.345 . S
C153 C154 1.387 . S
C153 C157 1.391 . S
C154 C153 1.387 . S
C154 C155 1.369 . S
C154 H163 0.929 . S
C155 N152 1.346 . S
C155 C154 1.369 . S
C155 H158 0.928 . S
C156 N152 1.345 . S
C156 C157 1.371 . S
C156 H159 0.931 . S
C157 C153 1.391 . S
C157 C156 1.371 . S
C157 H164 0.930 . S
H158 C155 0.928 . S
H159 C156 0.931 . S
H160 C136 0.930 . S
H161 C133 0.930 . S
H162 C142 0.930 . S
H163 C154 0.929 . S
H164 C157 0.930 . S
C165 C166 1.351 . S
C165 N168 1.368 . S
C165 H170 0.931 . S
C166 C165 1.351 . S
C166 N167 1.373 . S
C166 H194 0.930 . S
N167 C166 1.373 . S
N167 C169 1.340 . S
N168 C165 1.368 . S
N168 C169 1.321 . S
N168 Co171 2.135 . S
C169 N167 1.340 . S
C169 N168 1.321 . S
C169 H193 0.930 . S
H170 C165 0.931 . S
Co171 N168 2.135 . S
Co171 N174 2.121 . S
Co171 O179 2.055 . S
Co171 O182 2.039 . S
Co171 N185 2.140 . S
C172 O173 1.227 . S
C172 O182 1.265 . S
O173 C172 1.227 . S
N174 Co171 2.121 . S
N174 C176 1.375 . S
N174 C177 1.313 . S
C175 C176 1.338 . S
C175 N178 1.377 . S
C175 H195 0.930 . S
C176 N174 1.375 . S
C176 C175 1.338 . S
C176 H180 0.931 . S
C177 N174 1.313 . S
C177 N178 1.344 . S
C177 H181 0.930 . S
N178 C175 1.377 . S
N178 C177 1.344 . S
O179 Co171 2.055 . S
O179 C183 1.253 . S
H180 C176 0.931 . S
H181 C177 0.930 . S
O182 Co171 2.039 . S
O182 C172 1.265 . S
C183 O179 1.253 . S
C183 O184 1.227 . S
O184 C183 1.227 . S
N185 Co171 2.140 . S
N185 C188 1.346 . S
N185 C189 1.345 . S
C186 C187 1.387 . S
C186 C190 1.391 . S
C187 C186 1.387 . S
C187 C188 1.369 . S
C187 H196 0.929 . S
C188 N185 1.346 . S
C188 C187 1.369 . S
C188 H191 0.928 . S
C189 N185 1.345 . S
C189 C190 1.371 . S
C189 H192 0.931 . S
C190 C186 1.391 . S
C190 C189 1.371 . S
C190 H197 0.930 . S
H191 C188 0.928 . S
H192 C189 0.931 . S
H193 C169 0.930 . S
H194 C166 0.930 . S
H195 C175 0.930 . S
H196 C187 0.929 . S
H197 C190 0.930 . S
C198 C199 1.351 . S
C198 N201 1.368 . S
C198 H203 0.931 . S
C199 C198 1.351 . S
C199 N200 1.373 . S
C199 H227 0.930 . S
N200 C199 1.373 . S
N200 C202 1.340 . S
N201 C198 1.368 . S
N201 C202 1.321 . S
N201 Co204 2.135 . S
C202 N200 1.340 . S
C202 N201 1.321 . S
C202 H226 0.930 . S
H203 C198 0.931 . S
Co204 N201 2.135 . S
Co204 N207 2.121 . S
Co204 O212 2.055 . S
Co204 O215 2.039 . S
Co204 N218 2.140 . S
C205 O206 1.227 . S
C205 O215 1.265 . S
O206 C205 1.227 . S
N207 Co204 2.121 . S
N207 C209 1.375 . S
N207 C210 1.313 . S
C208 C209 1.338 . S
C208 N211 1.377 . S
C208 H228 0.930 . S
C209 N207 1.375 . S
C209 C208 1.338 . S
C209 H213 0.931 . S
C210 N207 1.313 . S
C210 N211 1.344 . S
C210 H214 0.930 . S
N211 C208 1.377 . S
N211 C210 1.344 . S
O212 Co204 2.055 . S
O212 C216 1.253 . S
H213 C209 0.931 . S
H214 C210 0.930 . S
O215 Co204 2.039 . S
O215 C205 1.265 . S
C216 O212 1.253 . S
C216 O217 1.227 . S
O217 C216 1.227 . S
N218 Co204 2.140 . S
N218 C221 1.346 . S
N218 C222 1.345 . S
C219 C220 1.387 . S
C219 C223 1.391 . S
C220 C219 1.387 . S
C220 C221 1.369 . S
C220 H229 0.929 . S
C221 N218 1.346 . S
C221 C220 1.369 . S
C221 H224 0.928 . S
C222 N218 1.345 . S
C222 C223 1.371 . S
C222 H225 0.931 . S
C223 C219 1.391 . S
C223 C222 1.371 . S
C223 H230 0.930 . S
H224 C221 0.928 . S
H225 C222 0.931 . S
H226 C202 0.930 . S
H227 C199 0.930 . S
H228 C208 0.930 . S
H229 C220 0.929 . S
H230 C223 0.930 . S
C231 C232 1.351 . S
C231 N234 1.368 . S
C231 H236 0.931 . S
C232 C231 1.351 . S
C232 N233 1.373 . S
C232 H260 0.930 . S
N233 C232 1.373 . S
N233 C235 1.340 . S
N234 C231 1.368 . S
N234 C235 1.321 . S
N234 Co237 2.135 . S
C235 N233 1.340 . S
C235 N234 1.321 . S
C235 H259 0.930 . S
H236 C231 0.931 . S
Co237 N234 2.135 . S
Co237 N240 2.121 . S
Co237 O245 2.055 . S
Co237 O248 2.039 . S
Co237 N251 2.140 . S
C238 O239 1.227 . S
C238 O248 1.265 . S
O239 C238 1.227 . S
N240 Co237 2.121 . S
N240 C242 1.375 . S
N240 C243 1.313 . S
C241 C242 1.338 . S
C241 N244 1.377 . S
C241 H261 0.930 . S
C242 N240 1.375 . S
C242 C241 1.338 . S
C242 H246 0.931 . S
C243 N240 1.313 . S
C243 N244 1.344 . S
C243 H247 0.930 . S
N244 C241 1.377 . S
N244 C243 1.344 . S
O245 Co237 2.055 . S
O245 C249 1.253 . S
H246 C242 0.931 . S
H247 C243 0.930 . S
O248 Co237 2.039 . S
O248 C238 1.265 . S
C249 O245 1.253 . S
C249 O250 1.227 . S
O250 C249 1.227 . S
N251 Co237 2.140 . S
N251 C254 1.346 . S
N251 C255 1.345 . S
C252 C253 1.387 . S
C252 C256 1.391 . S
C253 C252 1.387 . S
C253 C254 1.369 . S
C253 H262 0.929 . S
C254 N251 1.346 . S
C254 C253 1.369 . S
C254 H257 0.928 . S
C255 N251 1.345 . S
C255 C256 1.371 . S
C255 H258 0.931 . S
C256 C252 1.391 . S
C256 C255 1.371 . S
C256 H263 0.930 . S
H257 C254 0.928 . S
H258 C255 0.931 . S
H259 C235 0.930 . S
H260 C232 0.930 . S
H261 C241 0.930 . S
H262 C253 0.929 . S
H263 C256 0.930 . S
C264 C265 1.351 . S
C264 N267 1.368 . S
C264 H269 0.931 . S
C265 C264 1.351 . S
C265 N266 1.373 . S
C265 H293 0.930 . S
N266 C265 1.373 . S
N266 C268 1.340 . S
N267 C264 1.368 . S
N267 C268 1.321 . S
N267 Co270 2.135 . S
C268 N266 1.340 . S
C268 N267 1.321 . S
C268 H292 0.930 . S
H269 C264 0.931 . S
Co270 N267 2.135 . S
Co270 N273 2.121 . S
Co270 O278 2.055 . S
Co270 O281 2.039 . S
Co270 N284 2.140 . S
C271 O272 1.227 . S
C271 O281 1.265 . S
O272 C271 1.227 . S
N273 Co270 2.121 . S
N273 C275 1.375 . S
N273 C276 1.313 . S
C274 C275 1.338 . S
C274 N277 1.377 . S
C274 H294 0.930 . S
C275 N273 1.375 . S
C275 C274 1.338 . S
C275 H279 0.931 . S
C276 N273 1.313 . S
C276 N277 1.344 . S
C276 H280 0.930 . S
N277 C274 1.377 . S
N277 C276 1.344 . S
O278 Co270 2.055 . S
O278 C282 1.253 . S
H279 C275 0.931 . S
H280 C276 0.930 . S
O281 Co270 2.039 . S
O281 C271 1.265 . S
C282 O278 1.253 . S
C282 O283 1.227 . S
O283 C282 1.227 . S
N284 Co270 2.140 . S
N284 C287 1.346 . S
N284 C288 1.345 . S
C285 C286 1.387 . S
C285 C289 1.391 . S
C286 C285 1.387 . S
C286 C287 1.369 . S
C286 H295 0.929 . S
C287 N284 1.346 . S
C287 C286 1.369 . S
C287 H290 0.928 . S
C288 N284 1.345 . S
C288 C289 1.371 . S
C288 H291 0.931 . S
C289 C285 1.391 . S
C289 C288 1.371 . S
C289 H296 0.930 . S
H290 C287 0.928 . S
H291 C288 0.931 . S
H292 C268 0.930 . S
H293 C265 0.930 . S
H294 C274 0.930 . S
H295 C286 0.929 . S
H296 C289 0.930 . S
C297 C298 1.351 . S
C297 N300 1.368 . S
C297 H302 0.931 . S
C298 C297 1.351 . S
C298 N299 1.373 . S
C298 H326 0.930 . S
N299 C298 1.373 . S
N299 C301 1.340 . S
N300 C297 1.368 . S
N300 C301 1.321 . S
N300 Co303 2.135 . S
C301 N299 1.340 . S
C301 N300 1.321 . S
C301 H325 0.930 . S
H302 C297 0.931 . S
Co303 N300 2.135 . S
Co303 N306 2.121 . S
Co303 O311 2.055 . S
Co303 O314 2.039 . S
Co303 N317 2.140 . S
C304 O305 1.227 . S
C304 O314 1.265 . S
O305 C304 1.227 . S
N306 Co303 2.121 . S
N306 C308 1.375 . S
N306 C309 1.313 . S
C307 C308 1.338 . S
C307 N310 1.377 . S
C307 H327 0.930 . S
C308 N306 1.375 . S
C308 C307 1.338 . S
C308 H312 0.931 . S
C309 N306 1.313 . S
C309 N310 1.344 . S
C309 H313 0.930 . S
N310 C307 1.377 . S
N310 C309 1.344 . S
O311 Co303 2.055 . S
O311 C315 1.253 . S
H312 C308 0.931 . S
H313 C309 0.930 . S
O314 Co303 2.039 . S
O314 C304 1.265 . S
C315 O311 1.253 . S
C315 O316 1.227 . S
O316 C315 1.227 . S
N317 Co303 2.140 . S
N317 C320 1.346 . S
N317 C321 1.345 . S
C318 C319 1.387 . S
C318 C322 1.391 . S
C319 C318 1.387 . S
C319 C320 1.369 . S
C319 H328 0.929 . S
C320 N317 1.346 . S
C320 C319 1.369 . S
C320 H323 0.928 . S
C321 N317 1.345 . S
C321 C322 1.371 . S
C321 H324 0.931 . S
C322 C318 1.391 . S
C322 C321 1.371 . S
C322 H329 0.930 . S
H323 C320 0.928 . S
H324 C321 0.931 . S
H325 C301 0.930 . S
H326 C298 0.930 . S
H327 C307 0.930 . S
H328 C319 0.929 . S
H329 C322 0.930 . S
C330 C331 1.351 . S
C330 N333 1.368 . S
C330 H335 0.931 . S
C331 C330 1.351 . S
C331 N332 1.373 . S
C331 H359 0.930 . S
N332 C331 1.373 . S
N332 C334 1.340 . S
N333 C330 1.368 . S
N333 C334 1.321 . S
N333 Co336 2.135 . S
C334 N332 1.340 . S
C334 N333 1.321 . S
C334 H358 0.930 . S
H335 C330 0.931 . S
Co336 N333 2.135 . S
Co336 N339 2.121 . S
Co336 O344 2.055 . S
Co336 O347 2.039 . S
Co336 N350 2.140 . S
C337 O338 1.227 . S
C337 O347 1.265 . S
O338 C337 1.227 . S
N339 Co336 2.121 . S
N339 C341 1.375 . S
N339 C342 1.313 . S
C340 C341 1.338 . S
C340 N343 1.377 . S
C340 H360 0.930 . S
C341 N339 1.375 . S
C341 C340 1.338 . S
C341 H345 0.931 . S
C342 N339 1.313 . S
C342 N343 1.344 . S
C342 H346 0.930 . S
N343 C340 1.377 . S
N343 C342 1.344 . S
O344 Co336 2.055 . S
O344 C348 1.253 . S
H345 C341 0.931 . S
H346 C342 0.930 . S
O347 Co336 2.039 . S
O347 C337 1.265 . S
C348 O344 1.253 . S
C348 O349 1.227 . S
O349 C348 1.227 . S
N350 Co336 2.140 . S
N350 C353 1.346 . S
N350 C354 1.345 . S
C351 C352 1.387 . S
C351 C355 1.391 . S
C352 C351 1.387 . S
C352 C353 1.369 . S
C352 H361 0.929 . S
C353 N350 1.346 . S
C353 C352 1.369 . S
C353 H356 0.928 . S
C354 N350 1.345 . S
C354 C355 1.371 . S
C354 H357 0.931 . S
C355 C351 1.391 . S
C355 C354 1.371 . S
C355 H362 0.930 . S
H356 C353 0.928 . S
H357 C354 0.931 . S
H358 C334 0.930 . S
H359 C331 0.930 . S
H360 C340 0.930 . S
H361 C352 0.929 . S
H362 C355 0.930 . S
C363 C364 1.351 . S
C363 N366 1.368 . S
C363 H368 0.931 . S
C364 C363 1.351 . S
C364 N365 1.373 . S
C364 H392 0.930 . S
N365 C364 1.373 . S
N365 C367 1.340 . S
N366 C363 1.368 . S
N366 C367 1.321 . S
N366 Co369 2.135 . S
C367 N365 1.340 . S
C367 N366 1.321 . S
C367 H391 0.930 . S
H368 C363 0.931 . S
Co369 N366 2.135 . S
Co369 N372 2.121 . S
Co369 O377 2.055 . S
Co369 O380 2.039 . S
Co369 N383 2.140 . S
C370 O371 1.227 . S
C370 O380 1.265 . S
O371 C370 1.227 . S
N372 Co369 2.121 . S
N372 C374 1.375 . S
N372 C375 1.313 . S
C373 C374 1.338 . S
C373 N376 1.377 . S
C373 H393 0.930 . S
C374 N372 1.375 . S
C374 C373 1.338 . S
C374 H378 0.931 . S
C375 N372 1.313 . S
C375 N376 1.344 . S
C375 H379 0.930 . S
N376 C373 1.377 . S
N376 C375 1.344 . S
O377 Co369 2.055 . S
O377 C381 1.253 . S
H378 C374 0.931 . S
H379 C375 0.930 . S
O380 Co369 2.039 . S
O380 C370 1.265 . S
C381 O377 1.253 . S
C381 O382 1.227 . S
O382 C381 1.227 . S
N383 Co369 2.140 . S
N383 C386 1.346 . S
N383 C387 1.345 . S
C384 C385 1.387 . S
C384 C388 1.391 . S
C385 C384 1.387 . S
C385 C386 1.369 . S
C385 H394 0.929 . S
C386 N383 1.346 . S
C386 C385 1.369 . S
C386 H389 0.928 . S
C387 N383 1.345 . S
C387 C388 1.371 . S
C387 H390 0.931 . S
C388 C384 1.391 . S
C388 C387 1.371 . S
C388 H395 0.930 . S
H389 C386 0.928 . S
H390 C387 0.931 . S
H391 C367 0.930 . S
H392 C364 0.930 . S
H393 C373 0.930 . S
H394 C385 0.929 . S
H395 C388 0.930 . S
H396 C408 0.930 . S
H397 C410 0.930 . S
H398 C411 0.930 . S
H399 C415 0.959 . S
H400 C415 0.959 . S
H401 C415 0.961 . S
H402 C416 0.960 . S
H403 C416 0.961 . S
H404 C416 0.959 . S
H405 C419 0.929 1_554 S
H406 C420 0.931 . S
H407 C422 0.930 . S
C408 H396 0.930 . S
C408 C409 1.399 . S
C408 C413 1.399 . S
C409 C408 1.399 . S
C409 C410 1.376 . S
C410 H397 0.930 . S
C410 C409 1.376 . S
C410 C411 1.388 . S
C411 H398 0.930 . S
C411 C410 1.388 . S
C411 C412 1.390 . S
C412 C411 1.390 . S
C412 C413 1.394 . S
C412 C418 1.465 1_554 S
C413 C408 1.399 . S
C413 C412 1.394 . S
C413 C414 1.516 1_554 S
C414 C413 1.516 1_556 S
C414 C415 1.502 . S
C414 C416 1.561 . S
C414 C417 1.526 . S
C415 H399 0.959 . S
C415 H400 0.959 . S
C415 H401 0.961 . S
C415 C414 1.502 . S
C416 H402 0.960 . S
C416 H403 0.961 . S
C416 H404 0.959 . S
C416 C414 1.561 . S
C417 C414 1.526 . S
C417 C418 1.396 . S
C417 C422 1.390 . S
C418 C412 1.465 1_556 S
C418 C417 1.396 . S
C418 C419 1.399 . S
C419 H405 0.929 1_556 S
C419 C418 1.399 . S
C419 C420 1.385 . S
C420 H406 0.931 . S
C420 C419 1.385 . S
C420 C421 1.389 . S
C421 C420 1.389 . S
C421 C422 1.387 . S
C422 H407 0.930 . S
C422 C417 1.390 . S
C422 C421 1.387 . S
H423 C435 0.930 . S
H424 C437 0.930 . S
H425 C438 0.930 . S
H426 C442 0.959 . S
H427 C442 0.959 . S
H428 C442 0.961 . S
H429 C443 0.960 . S
H430 C443 0.961 . S
H431 C443 0.959 . S
H432 C446 0.929 . S
H433 C447 0.931 . S
H434 C449 0.930 . S
C435 H423 0.930 . S
C435 C436 1.399 . S
C435 C440 1.399 . S
C436 C435 1.399 . S
C436 C437 1.376 . S
C437 H424 0.930 . S
C437 C436 1.376 . S
C437 C438 1.388 . S
C438 H425 0.930 . S
C438 C437 1.388 . S
C438 C439 1.390 . S
C439 C438 1.390 . S
C439 C440 1.394 . S
C439 C445 1.465 . S
C440 C435 1.399 . S
C440 C439 1.394 . S
C440 C441 1.516 . S
C441 C440 1.516 . S
C441 C442 1.502 . S
C441 C443 1.561 . S
C441 C444 1.526 . S
C442 H426 0.959 . S
C442 H427 0.959 . S
C442 H428 0.961 . S
C442 C441 1.502 . S
C443 H429 0.960 . S
C443 H430 0.961 . S
C443 H431 0.959 . S
C443 C441 1.561 . S
C444 C441 1.526 . S
C444 C445 1.396 . S
C444 C449 1.390 . S
C445 C439 1.465 . S
C445 C444 1.396 . S
C445 C446 1.399 . S
C446 H432 0.929 . S
C446 C445 1.399 . S
C446 C447 1.385 . S
C447 H433 0.931 . S
C447 C446 1.385 . S
C447 C448 1.389 . S
C448 C447 1.389 . S
C448 C449 1.387 . S
C449 H434 0.930 . S
C449 C444 1.390 . S
C449 C448 1.387 . S
H450 C462 0.930 . S
H451 C464 0.930 . S
H452 C465 0.930 . S
H453 C469 0.959 . S
H454 C469 0.959 . S
H455 C469 0.961 . S
H456 C470 0.960 . S
H457 C470 0.961 . S
H458 C470 0.959 . S
H459 C473 0.929 . S
H460 C474 0.931 . S
H461 C476 0.930 . S
C462 H450 0.930 . S
C462 C463 1.399 . S
C462 C467 1.399 . S
C463 C462 1.399 . S
C463 C464 1.376 . S
C464 H451 0.930 . S
C464 C463 1.376 . S
C464 C465 1.388 . S
C465 H452 0.930 . S
C465 C464 1.388 . S
C465 C466 1.390 . S
C466 C465 1.390 . S
C466 C467 1.394 . S
C466 C472 1.465 1_554 S
C467 C462 1.399 . S
C467 C466 1.394 . S
C467 C468 1.524 . S
C468 C467 1.524 . S
C468 C469 1.509 . S
C468 C470 1.553 1_554 S
C468 C471 1.517 1_554 S
C469 H453 0.959 . S
C469 H454 0.959 . S
C469 H455 0.961 . S
C469 C468 1.509 . S
C470 H456 0.960 . S
C470 H457 0.961 . S
C470 H458 0.959 . S
C470 C468 1.553 1_556 S
C471 C468 1.517 1_556 S
C471 C472 1.396 . S
C471 C476 1.390 . S
C472 C466 1.465 1_556 S
C472 C471 1.396 . S
C472 C473 1.399 . S
C473 H459 0.929 . S
C473 C472 1.399 . S
C473 C474 1.385 . S
C474 H460 0.931 . S
C474 C473 1.385 . S
C474 C475 1.389 . S
C475 C474 1.389 . S
C475 C476 1.387 . S
C476 H461 0.930 . S
C476 C471 1.390 . S
C476 C475 1.387 . S
H477 C489 0.930 . S
H478 C491 0.930 . S
H479 C492 0.930 . S
H480 C496 0.959 . S
H481 C496 0.959 . S
H482 C496 0.961 . S
H483 C497 0.960 . S
H484 C497 0.961 . S
H485 C497 0.959 . S
H486 C500 0.929 . S
H487 C501 0.931 . S
H488 C503 0.930 . S
C489 H477 0.930 . S
C489 C490 1.399 . S
C489 C494 1.399 . S
C490 C489 1.399 . S
C490 C491 1.376 . S
C491 H478 0.930 . S
C491 C490 1.376 . S
C491 C492 1.388 . S
C492 H479 0.930 . S
C492 C491 1.388 . S
C492 C493 1.390 . S
C493 C492 1.390 . S
C493 C494 1.394 . S
C493 C499 1.465 . S
C494 C489 1.399 . S
C494 C493 1.394 . S
C494 C495 1.516 . S
C495 C494 1.516 . S
C495 C496 1.502 . S
C495 C497 1.561 . S
C495 C498 1.526 . S
C496 H480 0.959 . S
C496 H481 0.959 . S
C496 H482 0.961 . S
C496 C495 1.502 . S
C497 H483 0.960 . S
C497 H484 0.961 . S
C497 H485 0.959 . S
C497 C495 1.561 . S
C498 C495 1.526 . S
C498 C499 1.396 . S
C498 C503 1.390 . S
C499 C493 1.465 . S
C499 C498 1.396 . S
C499 C500 1.399 . S
C500 H486 0.929 . S
C500 C499 1.399 . S
C500 C501 1.385 . S
C501 H487 0.931 . S
C501 C500 1.385 . S
C501 C502 1.389 . S
C502 C501 1.389 . S
C502 C503 1.387 . S
C503 H488 0.930 . S
C503 C498 1.390 . S
C503 C502 1.387 . S
H504 C516 0.930 . S
H505 C518 0.930 . S
H506 C519 0.930 . S
H507 C523 0.959 . S
H508 C523 0.959 . S
H509 C523 0.961 . S
H510 C524 0.960 . S
H511 C524 0.961 . S
H512 C524 0.959 . S
H513 C527 0.929 1_554 S
H514 C528 0.931 . S
H515 C530 0.930 . S
C516 H504 0.930 . S
C516 C517 1.399 . S
C516 C521 1.399 . S
C517 C516 1.399 . S
C517 C518 1.376 . S
C518 H505 0.930 . S
C518 C517 1.376 . S
C518 C519 1.388 . S
C519 H506 0.930 . S
C519 C518 1.388 . S
C519 C520 1.390 . S
C520 C519 1.390 . S
C520 C521 1.394 . S
C520 C526 1.465 1_554 S
C521 C516 1.399 . S
C521 C520 1.394 . S
C521 C522 1.516 1_554 S
C522 C521 1.516 1_556 S
C522 C523 1.502 . S
C522 C524 1.561 . S
C522 C525 1.526 . S
C523 H507 0.959 . S
C523 H508 0.959 . S
C523 H509 0.961 . S
C523 C522 1.502 . S
C524 H510 0.960 . S
C524 H511 0.961 . S
C524 H512 0.959 . S
C524 C522 1.561 . S
C525 C522 1.526 . S
C525 C526 1.396 . S
C525 C530 1.390 . S
C526 C520 1.465 1_556 S
C526 C525 1.396 . S
C526 C527 1.399 . S
C527 H513 0.929 1_556 S
C527 C526 1.399 . S
C527 C528 1.385 . S
C528 H514 0.931 . S
C528 C527 1.385 . S
C528 C529 1.389 . S
C529 C528 1.389 . S
C529 C530 1.387 . S
C530 H515 0.930 . S
C530 C525 1.390 . S
C530 C529 1.387 . S
H531 C543 0.930 . S
H532 C545 0.930 . S
H533 C546 0.930 . S
H534 C550 0.959 . S
H535 C550 0.959 . S
H536 C550 0.961 . S
H537 C551 0.960 . S
H538 C551 0.961 . S
H539 C551 0.959 . S
H540 C554 0.929 . S
H541 C555 0.931 . S
H542 C557 0.930 . S
C543 H531 0.930 . S
C543 C544 1.399 . S
C543 C548 1.399 . S
C544 C543 1.399 . S
C544 C545 1.376 . S
C545 H532 0.930 . S
C545 C544 1.376 . S
C545 C546 1.388 . S
C546 H533 0.930 . S
C546 C545 1.388 . S
C546 C547 1.390 . S
C547 C546 1.390 . S
C547 C548 1.394 . S
C547 C553 1.465 . S
C548 C543 1.399 . S
C548 C547 1.394 . S
C548 C549 1.516 . S
C549 C548 1.516 . S
C549 C550 1.502 . S
C549 C551 1.561 . S
C549 C552 1.526 . S
C550 H534 0.959 . S
C550 H535 0.959 . S
C550 H536 0.961 . S
C550 C549 1.502 . S
C551 H537 0.960 . S
C551 H538 0.961 . S
C551 H539 0.959 . S
C551 C549 1.561 . S
C552 C549 1.526 . S
C552 C553 1.396 . S
C552 C557 1.390 . S
C553 C547 1.465 . S
C553 C552 1.396 . S
C553 C554 1.399 . S
C554 H540 0.929 . S
C554 C553 1.399 . S
C554 C555 1.385 . S
C555 H541 0.931 . S
C555 C554 1.385 . S
C555 C556 1.389 . S
C556 C555 1.389 . S
C556 C557 1.387 . S
C557 H542 0.930 . S
C557 C552 1.390 . S
C557 C556 1.387 . S
H558 C570 0.930 . S
H559 C572 0.930 . S
H560 C573 0.930 1_556 S
H561 C577 0.959 1_556 S
H562 C577 0.959 . S
H563 C577 0.961 . S
H564 C578 0.960 . S
H565 C578 0.961 . S
H566 C578 0.959 . S
H567 C581 0.929 . S
H568 C582 0.931 . S
H569 C584 0.930 . S
C570 H558 0.930 . S
C570 C571 1.399 . S
C570 C575 1.399 . S
C571 C570 1.399 . S
C571 C572 1.376 . S
C572 H559 0.930 . S
C572 C571 1.376 . S
C572 C573 1.388 . S
C573 H560 0.930 1_554 S
C573 C572 1.388 . S
C573 C574 1.390 . S
C574 C573 1.390 . S
C574 C575 1.394 . S
C574 C580 1.465 1_554 S
C575 C570 1.399 . S
C575 C574 1.394 . S
C575 C576 1.516 . S
C576 C575 1.516 . S
C576 C577 1.502 . S
C576 C578 1.561 . S
C576 C579 1.526 1_554 S
C577 H561 0.959 1_554 S
C577 H562 0.959 . S
C577 H563 0.961 . S
C577 C576 1.502 . S
C578 H564 0.960 . S
C578 H565 0.961 . S
C578 H566 0.959 . S
C578 C576 1.561 . S
C579 C576 1.526 1_556 S
C579 C580 1.396 . S
C579 C584 1.390 . S
C580 C574 1.465 1_556 S
C580 C579 1.396 . S
C580 C581 1.399 . S
C581 H567 0.929 . S
C581 C580 1.399 . S
C581 C582 1.385 . S
C582 H568 0.931 . S
C582 C581 1.385 . S
C582 C583 1.389 . S
C583 C582 1.389 . S
C583 C584 1.387 . S
C584 H569 0.930 . S
C584 C579 1.390 . S
C584 C583 1.387 . S
H585 C597 0.930 . S
H586 C599 0.930 . S
H587 C600 0.930 . S
H588 C604 0.959 . S
H589 C604 0.959 . S
H590 C604 0.961 . S
H591 C605 0.960 . S
H592 C605 0.961 . S
H593 C605 0.959 . S
H594 C608 0.929 . S
H595 C609 0.931 . S
H596 C611 0.930 . S
C597 H585 0.930 . S
C597 C598 1.399 . S
C597 C602 1.399 . S
C598 C597 1.399 . S
C598 C599 1.376 . S
C599 H586 0.930 . S
C599 C598 1.376 . S
C599 C600 1.388 . S
C600 H587 0.930 . S
C600 C599 1.388 . S
C600 C601 1.390 . S
C601 C600 1.390 . S
C601 C602 1.394 . S
C601 C607 1.465 . S
C602 C597 1.399 . S
C602 C601 1.394 . S
C602 C603 1.516 . S
C603 C602 1.516 . S
C603 C604 1.502 . S
C603 C605 1.561 . S
C603 C606 1.526 . S
C604 H588 0.959 . S
C604 H589 0.959 . S
C604 H590 0.961 . S
C604 C603 1.502 . S
C605 H591 0.960 . S
C605 H592 0.961 . S
C605 H593 0.959 . S
C605 C603 1.561 . S
C606 C603 1.526 . S
C606 C607 1.396 . S
C606 C611 1.390 . S
C607 C601 1.465 . S
C607 C606 1.396 . S
C607 C608 1.399 . S
C608 H594 0.929 . S
C608 C607 1.399 . S
C608 C609 1.385 . S
C609 H595 0.931 . S
C609 C608 1.385 . S
C609 C610 1.389 . S
C610 C609 1.389 . S
C610 C611 1.387 . S
C611 H596 0.930 . S
C611 C606 1.390 . S
C611 C610 1.387 . S
H612 C624 0.930 . S
H613 C626 0.930 . S
H614 C627 0.930 1_556 S
H615 C631 0.959 . S
H616 C631 0.959 . S
H617 C631 0.961 . S
H618 C632 0.960 1_554 S
H619 C632 0.961 . S
H620 C632 0.959 . S
H621 C635 0.929 . S
H622 C636 0.931 . S
H623 C638 0.930 . S
C624 H612 0.930 . S
C624 C625 1.399 . S
C624 C629 1.399 . S
C625 C624 1.399 . S
C625 C626 1.376 . S
C626 H613 0.930 . S
C626 C625 1.376 . S
C626 C627 1.388 . S
C627 H614 0.930 1_554 S
C627 C626 1.388 . S
C627 C628 1.390 . S
C628 C627 1.390 . S
C628 C629 1.394 . S
C628 C634 1.465 1_554 S
C629 C624 1.399 . S
C629 C628 1.394 . S
C629 C630 1.516 . S
C630 C629 1.516 . S
C630 C631 1.502 . S
C630 C632 1.561 1_554 S
C630 C633 1.526 1_554 S
C631 H615 0.959 . S
C631 H616 0.959 . S
C631 H617 0.961 . S
C631 C630 1.502 . S
C632 H618 0.960 1_556 S
C632 H619 0.961 . S
C632 H620 0.959 . S
C632 C630 1.561 1_556 S
C633 C630 1.526 1_556 S
C633 C634 1.396 . S
C633 C638 1.390 . S
C634 C628 1.465 1_556 S
C634 C633 1.396 . S
C634 C635 1.399 . S
C635 H621 0.929 . S
C635 C634 1.399 . S
C635 C636 1.385 . S
C636 H622 0.931 . S
C636 C635 1.385 . S
C636 C637 1.389 . S
C637 C636 1.389 . S
C637 C638 1.387 . S
C638 H623 0.930 . S
C638 C633 1.390 . S
C638 C637 1.387 . S
H639 C651 0.930 . S
H640 C653 0.930 . S
H641 C654 0.930 . S
H642 C658 0.959 . S
H643 C658 0.959 . S
H644 C658 0.961 . S
H645 C659 0.960 . S
H646 C659 0.961 . S
H647 C659 0.959 . S
H648 C662 0.929 . S
H649 C663 0.931 . S
H650 C665 0.930 . S
C651 H639 0.930 . S
C651 C652 1.399 . S
C651 C656 1.399 . S
C652 C651 1.399 . S
C652 C653 1.376 . S
C653 H640 0.930 . S
C653 C652 1.376 . S
C653 C654 1.388 . S
C654 H641 0.930 . S
C654 C653 1.388 . S
C654 C655 1.390 . S
C655 C654 1.390 . S
C655 C656 1.394 . S
C655 C661 1.465 . S
C656 C651 1.399 . S
C656 C655 1.394 . S
C656 C657 1.516 . S
C657 C656 1.516 . S
C657 C658 1.502 . S
C657 C659 1.561 . S
C657 C660 1.526 . S
C658 H642 0.959 . S
C658 H643 0.959 . S
C658 H644 0.961 . S
C658 C657 1.502 . S
C659 H645 0.960 . S
C659 H646 0.961 . S
C659 H647 0.959 . S
C659 C657 1.561 . S
C660 C657 1.526 . S
C660 C661 1.396 . S
C660 C665 1.390 . S
C661 C655 1.465 . S
C661 C660 1.396 . S
C661 C662 1.399 . S
C662 H648 0.929 . S
C662 C661 1.399 . S
C662 C663 1.385 . S
C663 H649 0.931 . S
C663 C662 1.385 . S
C663 C664 1.389 . S
C664 C663 1.389 . S
C664 C665 1.387 . S
C665 H650 0.930 . S
C665 C660 1.390 . S
C665 C664 1.387 . S
H666 C678 0.930 . S
H667 C680 0.930 . S
H668 C681 0.930 . S
H669 C685 0.959 . S
H670 C685 0.959 . S
H671 C685 0.961 . S
H672 C686 0.960 . S
H673 C686 0.961 . S
H674 C686 0.959 . S
H675 C689 0.929 . S
H676 C690 0.931 . S
H677 C692 0.930 . S
C678 H666 0.930 . S
C678 C679 1.399 . S
C678 C683 1.399 . S
C679 C678 1.399 . S
C679 C680 1.376 . S
C680 H667 0.930 . S
C680 C679 1.376 . S
C680 C681 1.388 . S
C681 H668 0.930 . S
C681 C680 1.388 . S
C681 C682 1.390 . S
C682 C681 1.390 . S
C682 C683 1.394 . S
C682 C688 1.465 . S
C683 C678 1.399 . S
C683 C682 1.394 . S
C683 C684 1.516 1_554 S
C684 C683 1.516 1_556 S
C684 C685 1.502 . S
C684 C686 1.561 . S
C684 C687 1.526 . S
C685 H669 0.959 . S
C685 H670 0.959 . S
C685 H671 0.961 . S
C685 C684 1.502 . S
C686 H672 0.960 . S
C686 H673 0.961 . S
C686 H674 0.959 . S
C686 C684 1.561 . S
C687 C684 1.526 . S
C687 C688 1.396 1_556 S
C687 C692 1.390 . S
C688 C682 1.465 . S
C688 C687 1.396 1_554 S
C688 C689 1.399 . S
C689 H675 0.929 . S
C689 C688 1.399 . S
C689 C690 1.385 1_554 S
C690 H676 0.931 . S
C690 C689 1.385 1_556 S
C690 C691 1.389 . S
C691 C690 1.389 . S
C691 C692 1.387 . S
C692 H677 0.930 . S
C692 C687 1.390 . S
C692 C691 1.387 . S
H693 C705 0.930 . S
H694 C707 0.930 . S
H695 C708 0.930 . S
H696 C712 0.959 . S
H697 C712 0.959 . S
H698 C712 0.961 . S
H699 C713 0.960 . S
H700 C713 0.961 . S
H701 C713 0.959 . S
H702 C716 0.929 . S
H703 C717 0.931 . S
H704 C719 0.930 . S
C705 H693 0.930 . S
C705 C706 1.399 . S
C705 C710 1.399 . S
C706 C705 1.399 . S
C706 C707 1.376 . S
C707 H694 0.930 . S
C707 C706 1.376 . S
C707 C708 1.388 . S
C708 H695 0.930 . S
C708 C707 1.388 . S
C708 C709 1.390 . S
C709 C708 1.390 . S
C709 C710 1.394 . S
C709 C715 1.465 . S
C710 C705 1.399 . S
C710 C709 1.394 . S
C710 C711 1.516 . S
C711 C710 1.516 . S
C711 C712 1.502 . S
C711 C713 1.561 . S
C711 C714 1.526 . S
C712 H696 0.959 . S
C712 H697 0.959 . S
C712 H698 0.961 . S
C712 C711 1.502 . S
C713 H699 0.960 . S
C713 H700 0.961 . S
C713 H701 0.959 . S
C713 C711 1.561 . S
C714 C711 1.526 . S
C714 C715 1.396 . S
C714 C719 1.390 . S
C715 C709 1.465 . S
C715 C714 1.396 . S
C715 C716 1.399 . S
C716 H702 0.929 . S
C716 C715 1.399 . S
C716 C717 1.385 . S
C717 H703 0.931 . S
C717 C716 1.385 . S
C717 C718 1.389 . S
C718 C717 1.389 . S
C718 C719 1.387 . S
C719 H704 0.930 . S
C719 C714 1.390 . S
C719 C718 1.387 . S
H720 C732 0.930 . S
H721 C734 0.930 . S
H722 C735 0.930 . S
H723 C739 0.959 . S
H724 C739 0.959 . S
H725 C739 0.961 . S
H726 C740 0.960 . S
H727 C740 0.961 . S
H728 C740 0.959 1_556 S
H729 C743 0.929 1_556 S
H730 C744 0.931 . S
H731 C746 0.930 . S
C732 H720 0.930 . S
C732 C733 1.399 . S
C732 C737 1.399 . S
C733 C732 1.399 . S
C733 C734 1.376 . S
C734 H721 0.930 . S
C734 C733 1.376 . S
C734 C735 1.388 . S
C735 H722 0.930 . S
C735 C734 1.388 . S
C735 C736 1.390 . S
C736 C735 1.390 . S
C736 C737 1.394 . S
C736 C742 1.465 1_556 S
C737 C732 1.399 . S
C737 C736 1.394 . S
C737 C738 1.516 1_556 S
C738 C737 1.516 1_554 S
C738 C739 1.502 . S
C738 C740 1.561 . S
C738 C741 1.526 . S
C739 H723 0.959 . S
C739 H724 0.959 . S
C739 H725 0.961 . S
C739 C738 1.502 . S
C740 H726 0.960 . S
C740 H727 0.961 . S
C740 H728 0.959 1_554 S
C740 C738 1.561 . S
C741 C738 1.526 . S
C741 C742 1.396 . S
C741 C746 1.390 . S
C742 C736 1.465 1_554 S
C742 C741 1.396 . S
C742 C743 1.399 . S
C743 H729 0.929 1_554 S
C743 C742 1.399 . S
C743 C744 1.385 . S
C744 H730 0.931 . S
C744 C743 1.385 . S
C744 C745 1.389 . S
C745 C744 1.389 . S
C745 C746 1.387 . S
C746 H731 0.930 . S
C746 C741 1.390 . S
C746 C745 1.387 . S
H747 C759 0.930 . S
H748 C761 0.930 . S
H749 C762 0.930 . S
H750 C766 0.959 . S
H751 C766 0.959 . S
H752 C766 0.961 . S
H753 C767 0.960 . S
H754 C767 0.961 . S
H755 C767 0.959 . S
H756 C770 0.929 . S
H757 C771 0.931 . S
H758 C773 0.930 . S
C759 H747 0.930 . S
C759 C760 1.399 . S
C759 C764 1.399 . S
C760 C759 1.399 . S
C760 C761 1.376 . S
C761 H748 0.930 . S
C761 C760 1.376 . S
C761 C762 1.388 . S
C762 H749 0.930 . S
C762 C761 1.388 . S
C762 C763 1.390 . S
C763 C762 1.390 . S
C763 C764 1.394 . S
C763 C769 1.465 . S
C764 C759 1.399 . S
C764 C763 1.394 . S
C764 C765 1.516 . S
C765 C764 1.516 . S
C765 C766 1.502 . S
C765 C767 1.561 . S
C765 C768 1.526 . S
C766 H750 0.959 . S
C766 H751 0.959 . S
C766 H752 0.961 . S
C766 C765 1.502 . S
C767 H753 0.960 . S
C767 H754 0.961 . S
C767 H755 0.959 . S
C767 C765 1.561 . S
C768 C765 1.526 . S
C768 C769 1.396 . S
C768 C773 1.390 . S
C769 C763 1.465 . S
C769 C768 1.396 . S
C769 C770 1.399 . S
C770 H756 0.929 . S
C770 C769 1.399 . S
C770 C771 1.385 . S
C771 H757 0.931 . S
C771 C770 1.385 . S
C771 C772 1.389 . S
C772 C771 1.389 . S
C772 C773 1.387 . S
C773 H758 0.930 . S
C773 C768 1.390 . S
C773 C772 1.387 . S
H774 C786 0.930 . S
H775 C788 0.930 . S
H776 C789 0.930 . S
H777 C793 0.959 . S
H778 C793 0.959 . S
H779 C793 0.961 . S
H780 C794 0.960 . S
H781 C794 0.961 . S
H782 C794 0.959 . S
H783 C797 0.929 1_554 S
H784 C798 0.931 . S
H785 C800 0.930 . S
C786 H774 0.930 . S
C786 C787 1.399 . S
C786 C791 1.399 . S
C787 C786 1.399 . S
C787 C788 1.376 . S
C788 H775 0.930 . S
C788 C787 1.376 . S
C788 C789 1.388 . S
C789 H776 0.930 . S
C789 C788 1.388 . S
C789 C790 1.390 . S
C790 C789 1.390 . S
C790 C791 1.394 . S
C790 C796 1.465 1_554 S
C791 C786 1.399 . S
C791 C790 1.394 . S
C791 C792 1.516 1_554 S
C792 C791 1.516 1_556 S
C792 C793 1.502 . S
C792 C794 1.561 . S
C792 C795 1.526 . S
C793 H777 0.959 . S
C793 H778 0.959 . S
C793 H779 0.961 . S
C793 C792 1.502 . S
C794 H780 0.960 . S
C794 H781 0.961 . S
C794 H782 0.959 . S
C794 C792 1.561 . S
C795 C792 1.526 . S
C795 C796 1.396 . S
C795 C800 1.390 . S
C796 C790 1.465 1_556 S
C796 C795 1.396 . S
C796 C797 1.399 . S
C797 H783 0.929 1_556 S
C797 C796 1.399 . S
C797 C798 1.385 . S
C798 H784 0.931 . S
C798 C797 1.385 . S
C798 C799 1.389 . S
C799 C798 1.389 . S
C799 C800 1.387 . S
C800 H785 0.930 . S
C800 C795 1.390 . S
C800 C799 1.387 . S
H801 C813 0.930 . S
H802 C815 0.930 . S
H803 C816 0.930 . S
H804 C820 0.959 . S
H805 C820 0.959 . S
H806 C820 0.961 . S
H807 C821 0.960 . S
H808 C821 0.961 . S
H809 C821 0.959 . S
H810 C824 0.929 . S
H811 C825 0.931 . S
H812 C827 0.930 . S
C813 H801 0.930 . S
C813 C814 1.399 . S
C813 C818 1.399 . S
C814 C813 1.399 . S
C814 C815 1.376 . S
C815 H802 0.930 . S
C815 C814 1.376 . S
C815 C816 1.388 . S
C816 H803 0.930 . S
C816 C815 1.388 . S
C816 C817 1.390 . S
C817 C816 1.390 . S
C817 C818 1.394 . S
C817 C823 1.465 . S
C818 C813 1.399 . S
C818 C817 1.394 . S
C818 C819 1.516 . S
C819 C818 1.516 . S
C819 C820 1.502 . S
C819 C821 1.561 . S
C819 C822 1.526 . S
C820 H804 0.959 . S
C820 H805 0.959 . S
C820 H806 0.961 . S
C820 C819 1.502 . S
C821 H807 0.960 . S
C821 H808 0.961 . S
C821 H809 0.959 . S
C821 C819 1.561 . S
C822 C819 1.526 . S
C822 C823 1.396 . S
C822 C827 1.390 . S
C823 C817 1.465 . S
C823 C822 1.396 . S
C823 C824 1.399 . S
C824 H810 0.929 . S
C824 C823 1.399 . S
C824 C825 1.385 . S
C825 H811 0.931 . S
C825 C824 1.385 . S
C825 C826 1.389 . S
C826 C825 1.389 . S
C826 C827 1.387 . S
C827 H812 0.930 . S
C827 C822 1.390 . S
C827 C826 1.387 . S
H828 C840 0.930 . S
H829 C842 0.930 . S
H830 C843 0.930 . S
H831 C847 0.959 . S
H832 C847 0.959 1_556 S
H833 C847 0.961 . S
H834 C848 0.960 . S
H835 C848 0.961 . S
H836 C848 0.959 . S
H837 C851 0.929 . S
H838 C852 0.931 . S
H839 C854 0.930 . S
C840 H828 0.930 . S
C840 C841 1.399 . S
C840 C845 1.399 . S
C841 C840 1.399 . S
C841 C842 1.376 . S
C842 H829 0.930 . S
C842 C841 1.376 . S
C842 C843 1.388 . S
C843 H830 0.930 . S
C843 C842 1.388 . S
C843 C844 1.390 . S
C844 C843 1.390 . S
C844 C845 1.394 . S
C844 C850 1.465 1_554 S
C845 C840 1.399 . S
C845 C844 1.394 . S
C845 C846 1.516 1_554 S
C846 C845 1.516 1_556 S
C846 C847 1.502 1_556 S
C846 C848 1.561 . S
C846 C849 1.526 . S
C847 H831 0.959 . S
C847 H832 0.959 1_554 S
C847 H833 0.961 . S
C847 C846 1.502 1_554 S
C848 H834 0.960 . S
C848 H835 0.961 . S
C848 H836 0.959 . S
C848 C846 1.561 . S
C849 C846 1.526 . S
C849 C850 1.396 . S
C849 C854 1.390 . S
C850 C844 1.465 1_556 S
C850 C849 1.396 . S
C850 C851 1.399 . S
C851 H837 0.929 . S
C851 C850 1.399 . S
C851 C852 1.385 . S
C852 H838 0.931 . S
C852 C851 1.385 . S
C852 C853 1.389 . S
C853 C852 1.389 . S
C853 C854 1.387 . S
C854 H839 0.930 . S
C854 C849 1.390 . S
C854 C853 1.387 . S
H855 C867 0.930 . S
H856 C869 0.930 . S
H857 C870 0.930 . S
H858 C874 0.959 . S
H859 C874 0.959 . S
H860 C874 0.961 . S
H861 C875 0.960 . S
H862 C875 0.961 . S
H863 C875 0.959 . S
H864 C878 0.929 . S
H865 C879 0.931 . S
H866 C881 0.930 . S
C867 H855 0.930 . S
C867 C868 1.399 . S
C867 C872 1.399 . S
C868 C867 1.399 . S
C868 C869 1.376 . S
C869 H856 0.930 . S
C869 C868 1.376 . S
C869 C870 1.388 . S
C870 H857 0.930 . S
C870 C869 1.388 . S
C870 C871 1.390 . S
C871 C870 1.390 . S
C871 C872 1.394 . S
C871 C877 1.465 . S
C872 C867 1.399 . S
C872 C871 1.394 . S
C872 C873 1.516 . S
C873 C872 1.516 . S
C873 C874 1.502 . S
C873 C875 1.561 . S
C873 C876 1.526 . S
C874 H858 0.959 . S
C874 H859 0.959 . S
C874 H860 0.961 . S
C874 C873 1.502 . S
C875 H861 0.960 . S
C875 H862 0.961 . S
C875 H863 0.959 . S
C875 C873 1.561 . S
C876 C873 1.526 . S
C876 C877 1.396 . S
C876 C881 1.390 . S
C877 C871 1.465 . S
C877 C876 1.396 . S
C877 C878 1.399 . S
C878 H864 0.929 . S
C878 C877 1.399 . S
C878 C879 1.385 . S
C879 H865 0.931 . S
C879 C878 1.385 . S
C879 C880 1.389 . S
C880 C879 1.389 . S
C880 C881 1.387 . S
C881 H866 0.930 . S
C881 C876 1.390 . S
C881 C880 1.387 . S
H882 C894 0.930 . S
H883 C896 0.930 . S
H884 C897 0.930 . S
H885 C901 0.959 . S
H886 C901 0.959 . S
H887 C901 0.961 . S
H888 C902 0.960 1_556 S
H889 C902 0.961 . S
H890 C902 0.959 . S
H891 C905 0.929 . S
H892 C906 0.931 . S
H893 C908 0.930 . S
C894 H882 0.930 . S
C894 C895 1.399 . S
C894 C899 1.399 . S
C895 C894 1.399 . S
C895 C896 1.376 . S
C896 H883 0.930 . S
C896 C895 1.376 . S
C896 C897 1.388 . S
C897 H884 0.930 . S
C897 C896 1.388 . S
C897 C898 1.390 . S
C898 C897 1.390 . S
C898 C899 1.394 . S
C898 C904 1.465 1_556 S
C899 C894 1.399 . S
C899 C898 1.394 . S
C899 C900 1.516 . S
C900 C899 1.516 . S
C900 C901 1.502 . S
C900 C902 1.561 1_556 S
C900 C903 1.526 1_556 S
C901 H885 0.959 . S
C901 H886 0.959 . S
C901 H887 0.961 . S
C901 C900 1.502 . S
C902 H888 0.960 1_554 S
C902 H889 0.961 . S
C902 H890 0.959 . S
C902 C900 1.561 1_554 S
C903 C900 1.526 1_554 S
C903 C904 1.396 . S
C903 C908 1.390 . S
C904 C898 1.465 1_554 S
C904 C903 1.396 . S
C904 C905 1.399 . S
C905 H891 0.929 . S
C905 C904 1.399 . S
C905 C906 1.385 . S
C906 H892 0.931 . S
C906 C905 1.385 . S
C906 C907 1.389 . S
C907 C906 1.389 . S
C907 C908 1.387 . S
C908 H893 0.930 . S
C908 C903 1.390 . S
C908 C907 1.387 . S
H909 C921 0.930 . S
H910 C923 0.930 . S
H911 C924 0.930 . S
H912 C928 0.959 . S
H913 C928 0.959 . S
H914 C928 0.961 . S
H915 C929 0.960 . S
H916 C929 0.961 . S
H917 C929 0.959 . S
H918 C932 0.929 . S
H919 C933 0.931 . S
H920 C935 0.930 . S
C921 H909 0.930 . S
C921 C922 1.399 . S
C921 C926 1.399 . S
C922 C921 1.399 . S
C922 C923 1.376 . S
C923 H910 0.930 . S
C923 C922 1.376 . S
C923 C924 1.388 . S
C924 H911 0.930 . S
C924 C923 1.388 . S
C924 C925 1.390 . S
C925 C924 1.390 . S
C925 C926 1.394 . S
C925 C931 1.465 . S
C926 C921 1.399 . S
C926 C925 1.394 . S
C926 C927 1.516 . S
C927 C926 1.516 . S
C927 C928 1.502 . S
C927 C929 1.561 . S
C927 C930 1.526 . S
C928 H912 0.959 . S
C928 H913 0.959 . S
C928 H914 0.961 . S
C928 C927 1.502 . S
C929 H915 0.960 . S
C929 H916 0.961 . S
C929 H917 0.959 . S
C929 C927 1.561 . S
C930 C927 1.526 . S
C930 C931 1.396 . S
C930 C935 1.390 . S
C931 C925 1.465 . S
C931 C930 1.396 . S
C931 C932 1.399 . S
C932 H918 0.929 . S
C932 C931 1.399 . S
C932 C933 1.385 . S
C933 H919 0.931 . S
C933 C932 1.385 . S
C933 C934 1.389 . S
C934 C933 1.389 . S
C934 C935 1.387 . S
C935 H920 0.930 . S
C935 C930 1.390 . S
C935 C934 1.387 . S
H936 C948 0.930 . S
H937 C950 0.930 . S
H938 C951 0.930 1_556 S
H939 C955 0.959 . S
H940 C955 0.959 . S
H941 C955 0.961 . S
H942 C956 0.960 . S
H943 C956 0.961 . S
H944 C956 0.959 1_556 S
H945 C959 0.929 . S
H946 C960 0.931 . S
H947 C962 0.930 . S
C948 H936 0.930 . S
C948 C949 1.399 . S
C948 C953 1.399 . S
C949 C948 1.399 . S
C949 C950 1.376 . S
C950 H937 0.930 . S
C950 C949 1.376 . S
C950 C951 1.388 . S
C951 H938 0.930 1_554 S
C951 C950 1.388 . S
C951 C952 1.390 . S
C952 C951 1.390 . S
C952 C953 1.394 . S
C952 C958 1.465 1_554 S
C953 C948 1.399 . S
C953 C952 1.394 . S
C953 C954 1.516 . S
C954 C953 1.516 . S
C954 C955 1.502 . S
C954 C956 1.561 . S
C954 C957 1.526 1_554 S
C955 H939 0.959 . S
C955 H940 0.959 . S
C955 H941 0.961 . S
C955 C954 1.502 . S
C956 H942 0.960 . S
C956 H943 0.961 . S
C956 H944 0.959 1_554 S
C956 C954 1.561 . S
C957 C954 1.526 1_556 S
C957 C958 1.396 . S
C957 C962 1.390 . S
C958 C952 1.465 1_556 S
C958 C957 1.396 . S
C958 C959 1.399 . S
C959 H945 0.929 . S
C959 C958 1.399 . S
C959 C960 1.385 . S
C960 H946 0.931 . S
C960 C959 1.385 . S
C960 C961 1.389 . S
C961 C960 1.389 . S
C961 C962 1.387 . S
C962 H947 0.930 . S
C962 C957 1.390 . S
C962 C961 1.387 . S
H963 C975 0.930 . S
H964 C977 0.930 . S
H965 C978 0.930 . S
H966 C982 0.959 . S
H967 C982 0.959 . S
H968 C982 0.961 . S
H969 C983 0.960 . S
H970 C983 0.961 . S
H971 C983 0.959 . S
H972 C986 0.929 . S
H973 C987 0.931 . S
H974 C989 0.930 . S
C975 H963 0.930 . S
C975 C976 1.399 . S
C975 C980 1.399 . S
C976 C975 1.399 . S
C976 C977 1.376 . S
C977 H964 0.930 . S
C977 C976 1.376 . S
C977 C978 1.388 . S
C978 H965 0.930 . S
C978 C977 1.388 . S
C978 C979 1.390 . S
C979 C978 1.390 . S
C979 C980 1.394 . S
C979 C985 1.465 . S
C980 C975 1.399 . S
C980 C979 1.394 . S
C980 C981 1.516 . S
C981 C980 1.516 . S
C981 C982 1.502 . S
C981 C983 1.561 . S
C981 C984 1.526 . S
C982 H966 0.959 . S
C982 H967 0.959 . S
C982 H968 0.961 . S
C982 C981 1.502 . S
C983 H969 0.960 . S
C983 H970 0.961 . S
C983 H971 0.959 . S
C983 C981 1.561 . S
C984 C981 1.526 . S
C984 C985 1.396 . S
C984 C989 1.390 . S
C985 C979 1.465 . S
C985 C984 1.396 . S
C985 C986 1.399 . S
C986 H972 0.929 . S
C986 C985 1.399 . S
C986 C987 1.385 . S
C987 H973 0.931 . S
C987 C986 1.385 . S
C987 C988 1.389 . S
C988 C987 1.389 . S
C988 C989 1.387 . S
C989 H974 0.930 . S
C989 C984 1.390 . S
C989 C988 1.387 . S
H990 C1002 0.930 . S
H991 C1004 0.930 . S
H992 C1005 0.930 . S
H993 C1009 0.959 . S
H994 C1009 0.959 . S
H995 C1009 0.961 . S
H996 C1010 0.960 . S
H997 C1010 0.961 . S
H998 C1010 0.959 . S
H999 C1013 0.929 . S
H1000 C1014 0.931 . S
H1001 C1016 0.930 . S
C1002 H990 0.930 . S
C1002 C1003 1.399 . S
C1002 C1007 1.399 . S
C1003 C1002 1.399 . S
C1003 C1004 1.376 . S
C1004 H991 0.930 . S
C1004 C1003 1.376 . S
C1004 C1005 1.388 . S
C1005 H992 0.930 . S
C1005 C1004 1.388 . S
C1005 C1006 1.390 . S
C1006 C1005 1.390 . S
C1006 C1007 1.394 . S
C1006 C1012 1.465 1_554 S
C1007 C1002 1.399 . S
C1007 C1006 1.394 . S
C1007 C1008 1.516 1_554 S
C1008 C1007 1.516 1_556 S
C1008 C1009 1.502 . S
C1008 C1010 1.561 . S
C1008 C1011 1.526 . S
C1009 H993 0.959 . S
C1009 H994 0.959 . S
C1009 H995 0.961 . S
C1009 C1008 1.502 . S
C1010 H996 0.960 . S
C1010 H997 0.961 . S
C1010 H998 0.959 . S
C1010 C1008 1.561 . S
C1011 C1008 1.526 . S
C1011 C1012 1.396 . S
C1011 C1016 1.390 . S
C1012 C1006 1.465 1_556 S
C1012 C1011 1.396 . S
C1012 C1013 1.399 . S
C1013 H999 0.929 . S
C1013 C1012 1.399 . S
C1013 C1014 1.385 . S
C1014 H1000 0.931 . S
C1014 C1013 1.385 . S
C1014 C1015 1.389 . S
C1015 C1014 1.389 . S
C1015 C1016 1.387 . S
C1016 H1001 0.930 . S
C1016 C1011 1.390 . S
C1016 C1015 1.387 . S
H1017 C1029 0.930 . S
H1018 C1031 0.930 . S
H1019 C1032 0.930 . S
H1020 C1036 0.959 . S
H1021 C1036 0.959 . S
H1022 C1036 0.961 . S
H1023 C1037 0.960 . S
H1024 C1037 0.961 . S
H1025 C1037 0.959 . S
H1026 C1040 0.929 . S
H1027 C1041 0.931 . S
H1028 C1043 0.930 . S
C1029 H1017 0.930 . S
C1029 C1030 1.399 . S
C1029 C1034 1.399 . S
C1030 C1029 1.399 . S
C1030 C1031 1.376 . S
C1031 H1018 0.930 . S
C1031 C1030 1.376 . S
C1031 C1032 1.388 . S
C1032 H1019 0.930 . S
C1032 C1031 1.388 . S
C1032 C1033 1.390 . S
C1033 C1032 1.390 . S
C1033 C1034 1.394 . S
C1033 C1039 1.465 . S
C1034 C1029 1.399 . S
C1034 C1033 1.394 . S
C1034 C1035 1.516 . S
C1035 C1034 1.516 . S
C1035 C1036 1.502 . S
C1035 C1037 1.561 . S
C1035 C1038 1.526 . S
C1036 H1020 0.959 . S
C1036 H1021 0.959 . S
C1036 H1022 0.961 . S
C1036 C1035 1.502 . S
C1037 H1023 0.960 . S
C1037 H1024 0.961 . S
C1037 H1025 0.959 . S
C1037 C1035 1.561 . S
C1038 C1035 1.526 . S
C1038 C1039 1.396 . S
C1038 C1043 1.390 . S
C1039 C1033 1.465 . S
C1039 C1038 1.396 . S
C1039 C1040 1.399 . S
C1040 H1026 0.929 . S
C1040 C1039 1.399 . S
C1040 C1041 1.385 . S
C1041 H1027 0.931 . S
C1041 C1040 1.385 . S
C1041 C1042 1.389 . S
C1042 C1041 1.389 . S
C1042 C1043 1.387 . S
C1043 H1028 0.930 . S
C1043 C1038 1.390 . S
C1043 C1042 1.387 . S
H1044 C1056 0.930 . S
H1045 C1058 0.930 . S
H1046 C1059 0.930 . S
H1047 C1063 0.959 . S
H1048 C1063 0.959 . S
H1049 C1063 0.961 . S
H1050 C1064 0.960 . S
H1051 C1064 0.961 . S
H1052 C1064 0.959 . S
H1053 C1067 0.929 . S
H1054 C1068 0.931 . S
H1055 C1070 0.930 . S
C1056 H1044 0.930 . S
C1056 C1057 1.399 . S
C1056 C1061 1.399 . S
C1057 C1056 1.399 . S
C1057 C1058 1.376 . S
C1058 H1045 0.930 . S
C1058 C1057 1.376 . S
C1058 C1059 1.388 . S
C1059 H1046 0.930 . S
C1059 C1058 1.388 . S
C1059 C1060 1.390 . S
C1060 C1059 1.390 . S
C1060 C1061 1.394 . S
C1060 C1066 1.465 . S
C1061 C1056 1.399 . S
C1061 C1060 1.394 . S
C1061 C1062 1.516 . S
C1062 C1061 1.516 . S
C1062 C1063 1.502 . S
C1062 C1064 1.561 . S
C1062 C1065 1.526 . S
C1063 H1047 0.959 . S
C1063 H1048 0.959 . S
C1063 H1049 0.961 . S
C1063 C1062 1.502 . S
C1064 H1050 0.960 . S
C1064 H1051 0.961 . S
C1064 H1052 0.959 . S
C1064 C1062 1.561 . S
C1065 C1062 1.526 . S
C1065 C1066 1.396 . S
C1065 C1070 1.390 . S
C1066 C1060 1.465 . S
C1066 C1065 1.396 . S
C1066 C1067 1.399 . S
C1067 H1053 0.929 . S
C1067 C1066 1.399 . S
C1067 C1068 1.385 . S
C1068 H1054 0.931 . S
C1068 C1067 1.385 . S
C1068 C1069 1.389 . S
C1069 C1068 1.389 . S
C1069 C1070 1.387 . S
C1070 H1055 0.930 . S
C1070 C1065 1.390 . S
C1070 C1069 1.387 . S
H1071 C1083 0.930 . S
H1072 C1085 0.930 . S
H1073 C1086 0.930 . S
H1074 C1090 0.959 . S
H1075 C1090 0.959 . S
H1076 C1090 0.961 1_455 S
H1077 C1091 0.960 1_455 S
H1078 C1091 0.961 . S
H1079 C1091 0.959 . S
H1080 C1094 0.929 . S
H1081 C1095 0.931 . S
H1082 C1097 0.930 . S
C1083 H1071 0.930 . S
C1083 C1084 1.399 . S
C1083 C1088 1.399 . S
C1084 C1083 1.399 . S
C1084 C1085 1.376 . S
C1085 H1072 0.930 . S
C1085 C1084 1.376 . S
C1085 C1086 1.388 . S
C1086 H1073 0.930 . S
C1086 C1085 1.388 . S
C1086 C1087 1.390 . S
C1087 C1086 1.390 . S
C1087 C1088 1.394 . S
C1087 C1093 1.465 1_455 S
C1088 C1083 1.399 . S
C1088 C1087 1.394 . S
C1088 C1089 1.516 1_455 S
C1089 C1088 1.516 1_655 S
C1089 C1090 1.502 . S
C1089 C1091 1.561 . S
C1089 C1092 1.526 . S
C1090 H1074 0.959 . S
C1090 H1075 0.959 . S
C1090 H1076 0.961 1_655 S
C1090 C1089 1.502 . S
C1091 H1077 0.960 1_655 S
C1091 H1078 0.961 . S
C1091 H1079 0.959 . S
C1091 C1089 1.561 . S
C1092 C1089 1.526 . S
C1092 C1093 1.396 . S
C1092 C1097 1.390 . S
C1093 C1087 1.465 1_655 S
C1093 C1092 1.396 . S
C1093 C1094 1.399 . S
C1094 H1080 0.929 . S
C1094 C1093 1.399 . S
C1094 C1095 1.385 . S
C1095 H1081 0.931 . S
C1095 C1094 1.385 . S
C1095 C1096 1.389 . S
C1096 C1095 1.389 . S
C1096 C1097 1.387 . S
C1097 H1082 0.930 . S
C1097 C1092 1.390 . S
C1097 C1096 1.387 . S
H1098 C1110 0.930 . S
H1099 C1112 0.930 . S
H1100 C1113 0.930 . S
H1101 C1117 0.971 1_565 S
H1102 C1117 0.959 1_565 S
H1103 C1117 0.961 . S
H1104 C1118 0.960 . S
H1105 C1118 0.961 1_565 S
H1106 C1118 0.964 . S
H1107 C1121 0.929 . S
H1108 C1122 0.931 . S
H1109 C1124 0.930 . S
C1110 H1098 0.930 . S
C1110 C1111 1.399 . S
C1110 C1115 1.399 . S
C1111 C1110 1.399 . S
C1111 C1112 1.376 . S
C1112 H1099 0.930 . S
C1112 C1111 1.376 . S
C1112 C1113 1.388 . S
C1113 H1100 0.930 . S
C1113 C1112 1.388 . S
C1113 C1114 1.390 . S
C1114 C1113 1.390 . S
C1114 C1115 1.394 . S
C1114 C1120 1.465 1_545 S
C1115 C1110 1.399 . S
C1115 C1114 1.394 . S
C1115 C1116 1.516 . S
C1116 C1115 1.516 . S
C1116 C1117 1.502 . S
C1116 C1118 1.561 . S
C1116 C1119 1.526 1_545 S
C1117 H1101 0.971 1_545 S
C1117 H1102 0.959 1_545 S
C1117 H1103 0.961 . S
C1117 C1116 1.502 . S
C1118 H1104 0.960 . S
C1118 H1105 0.961 1_545 S
C1118 H1106 0.964 . S
C1118 C1116 1.561 . S
C1119 C1116 1.526 1_565 S
C1119 C1120 1.396 . S
C1119 C1124 1.390 . S
C1120 C1114 1.465 1_565 S
C1120 C1119 1.396 . S
C1120 C1121 1.399 . S
C1121 H1107 0.929 . S
C1121 C1120 1.399 . S
C1121 C1122 1.385 . S
C1122 H1108 0.931 . S
C1122 C1121 1.385 . S
C1122 C1123 1.389 . S
C1123 C1122 1.389 . S
C1123 C1124 1.387 . S
C1124 H1109 0.930 . S
C1124 C1119 1.390 . S
C1124 C1123 1.387 . S
H1125 C1137 0.930 . S
H1126 C1139 0.930 . S
H1127 C1140 0.930 . S
H1128 C1144 0.959 . S
H1129 C1144 0.959 . S
H1130 C1144 0.961 . S
H1131 C1145 0.960 . S
H1132 C1145 0.961 . S
H1133 C1145 0.959 . S
H1134 C1148 0.929 . S
H1135 C1149 0.931 . S
H1136 C1151 0.930 . S
C1137 H1125 0.930 . S
C1137 C1138 1.399 . S
C1137 C1142 1.399 . S
C1138 C1137 1.399 . S
C1138 C1139 1.376 . S
C1139 H1126 0.930 . S
C1139 C1138 1.376 . S
C1139 C1140 1.388 . S
C1140 H1127 0.930 . S
C1140 C1139 1.388 . S
C1140 C1141 1.390 . S
C1141 C1140 1.390 . S
C1141 C1142 1.394 . S
C1141 C1147 1.465 . S
C1142 C1137 1.399 . S
C1142 C1141 1.394 . S
C1142 C1143 1.516 . S
C1143 C1142 1.516 . S
C1143 C1144 1.502 . S
C1143 C1145 1.561 . S
C1143 C1146 1.526 . S
C1144 H1128 0.959 . S
C1144 H1129 0.959 . S
C1144 H1130 0.961 . S
C1144 C1143 1.502 . S
C1145 H1131 0.960 . S
C1145 H1132 0.961 . S
C1145 H1133 0.959 . S
C1145 C1143 1.561 . S
C1146 C1143 1.526 . S
C1146 C1147 1.396 . S
C1146 C1151 1.390 . S
C1147 C1141 1.465 . S
C1147 C1146 1.396 . S
C1147 C1148 1.399 . S
C1148 H1134 0.929 . S
C1148 C1147 1.399 . S
C1148 C1149 1.385 . S
C1149 H1135 0.931 . S
C1149 C1148 1.385 . S
C1149 C1150 1.389 . S
C1150 C1149 1.389 . S
C1150 C1151 1.387 . S
C1151 H1136 0.930 . S
C1151 C1146 1.390 . S
C1151 C1150 1.387 . S
H1152 C1164 0.930 . S
H1153 C1166 0.930 . S
H1154 C1167 0.930 . S
H1155 C1171 0.968 1_655 S
H1156 C1171 0.959 1_655 S
H1157 C1171 0.961 . S
H1158 C1172 0.960 . S
H1159 C1172 0.961 1_655 S
H1160 C1172 0.957 . S
H1161 C1175 0.929 . S
H1162 C1176 0.931 . S
H1163 C1178 0.930 . S
C1164 H1152 0.930 . S
C1164 C1165 1.399 . S
C1164 C1169 1.399 . S
C1165 C1164 1.399 . S
C1165 C1166 1.376 . S
C1166 H1153 0.930 . S
C1166 C1165 1.376 . S
C1166 C1167 1.388 . S
C1167 H1154 0.930 . S
C1167 C1166 1.388 . S
C1167 C1168 1.390 . S
C1168 C1167 1.390 . S
C1168 C1169 1.394 . S
C1168 C1174 1.465 1_455 S
C1169 C1164 1.399 . S
C1169 C1168 1.394 . S
C1169 C1170 1.516 . S
C1170 C1169 1.516 . S
C1170 C1171 1.502 . S
C1170 C1172 1.561 . S
C1170 C1173 1.526 1_455 S
C1171 H1155 0.968 1_455 S
C1171 H1156 0.959 1_455 S
C1171 H1157 0.961 . S
C1171 C1170 1.502 . S
C1172 H1158 0.960 . S
C1172 H1159 0.961 1_455 S
C1172 H1160 0.957 . S
C1172 C1170 1.561 . S
C1173 C1170 1.526 1_655 S
C1173 C1174 1.396 . S
C1173 C1178 1.390 . S
C1174 C1168 1.465 1_655 S
C1174 C1173 1.396 . S
C1174 C1175 1.399 . S
C1175 H1161 0.929 . S
C1175 C1174 1.399 . S
C1175 C1176 1.385 . S
C1176 H1162 0.931 . S
C1176 C1175 1.385 . S
C1176 C1177 1.389 . S
C1177 C1176 1.389 . S
C1177 C1178 1.387 . S
C1178 H1163 0.930 . S
C1178 C1173 1.390 . S
C1178 C1177 1.387 . S
H1179 C1191 0.930 . S
H1180 C1193 0.930 . S
H1181 C1194 0.930 . S
H1182 C1198 0.959 . S
H1183 C1198 0.959 . S
H1184 C1198 0.961 1_565 S
H1185 C1199 0.960 1_565 S
H1186 C1199 0.961 . S
H1187 C1199 0.959 . S
H1188 C1202 0.929 . S
H1189 C1203 0.931 . S
H1190 C1205 0.930 . S
C1191 H1179 0.930 . S
C1191 C1192 1.399 . S
C1191 C1196 1.399 . S
C1192 C1191 1.399 . S
C1192 C1193 1.376 . S
C1193 H1180 0.930 . S
C1193 C1192 1.376 . S
C1193 C1194 1.388 . S
C1194 H1181 0.930 . S
C1194 C1193 1.388 . S
C1194 C1195 1.390 . S
C1195 C1194 1.390 . S
C1195 C1196 1.394 . S
C1195 C1201 1.465 1_565 S
C1196 C1191 1.399 . S
C1196 C1195 1.394 . S
C1196 C1197 1.516 1_565 S
C1197 C1196 1.516 1_545 S
C1197 C1198 1.502 . S
C1197 C1199 1.561 . S
C1197 C1200 1.526 . S
C1198 H1182 0.959 . S
C1198 H1183 0.959 . S
C1198 H1184 0.961 1_545 S
C1198 C1197 1.502 . S
C1199 H1185 0.960 1_545 S
C1199 H1186 0.961 . S
C1199 H1187 0.959 . S
C1199 C1197 1.561 . S
C1200 C1197 1.526 . S
C1200 C1201 1.396 . S
C1200 C1205 1.390 . S
C1201 C1195 1.465 1_545 S
C1201 C1200 1.396 . S
C1201 C1202 1.399 . S
C1202 H1188 0.929 . S
C1202 C1201 1.399 . S
C1202 C1203 1.385 . S
C1203 H1189 0.931 . S
C1203 C1202 1.385 . S
C1203 C1204 1.389 . S
C1204 C1203 1.389 . S
C1204 C1205 1.387 . S
C1205 H1190 0.930 . S
C1205 C1200 1.390 . S
C1205 C1204 1.387 . S
C409 C7 2.326 . S
C421 C205 2.304 . S
C436 C40 2.296 . S
C448 C238 2.323 . S
C463 C73 2.314 . S
C475 C271 2.324 . S
C490 C304 2.314 . S
C502 C106 2.324 . S
C517 C139 2.326 . S
C529 C337 2.302 . S
C544 C370 2.307 . S
C556 C172 2.291 . S
C571 N310 0.953 . S
C583 N112 0.914 . S
C598 N145 1.000 . S
C610 N343 0.881 . S
C625 N376 0.993 . S
C637 N178 0.912 . S
C652 N211 0.988 . S
C664 N13 0.886 . S
C679 N244 0.882 . S
C691 N46 1.004 . S
C706 N79 0.939 . S
C718 N277 0.927 . S
C733 N332 0.738 . S
C745 N2 0.871 . S
C760 N35 0.846 . S
C772 N365 0.742 . S
C787 N68 0.837 . S
C799 N200 0.889 . S
C814 N101 0.743 . S
C826 N233 0.840 . S
C841 N134 0.880 . S
C853 N266 0.852 . S
C868 N167 0.760 . S
C880 N299 0.809 . S
C895 C117 1.751 . S
C907 C249 1.772 . S
C922 C150 1.746 . S
C934 C282 1.781 . S
C949 C315 1.747 . S
C961 C183 1.778 . S
C976 C18 1.780 . S
C988 C348 1.751 . S
C1003 C381 1.771 . S
C1015 C51 1.752 . S
C1030 C84 1.758 . S
C1042 C216 1.775 . S
C1057 C21 1.221 . S
C1069 C318 1.241 . S
C1084 C351 1.220 . S
C1096 C54 1.239 . S
C1111 C384 1.264 . S
C1123 C87 1.248 . S
C1138 C219 1.235 . S
C1150 C120 1.217 . S
C1165 C153 1.261 . S
C1177 C252 1.243 . S
C1192 C285 1.213 . S
C1204 C186 1.227 . S
