# Generated by pormake.
# Topology neb, (4)-cn, num edge types: 1
# Building blocks:
#     Node 0, Type 0, BuildingBlock: GALJAG_clean_sbu_0, # of connection points: 4
#     Node 1, Type 0, BuildingBlock: GALJAG_clean_sbu_0, # of connection points: 4
#     Node 2, Type 0, BuildingBlock: GALJAG_clean_sbu_0, # of connection points: 4
#     Node 3, Type 0, BuildingBlock: GALJAG_clean_sbu_0, # of connection points: 4
#     Node 4, Type 0, BuildingBlock: GALJAG_clean_sbu_0, # of connection points: 4
#     Node 5, Type 0, BuildingBlock: GALJAG_clean_sbu_0, # of connection points: 4
#     Node 6, Type 0, BuildingBlock: GALJAG_clean_sbu_0, # of connection points: 4
#     Node 7, Type 0, BuildingBlock: GALJAG_clean_sbu_0, # of connection points: 4
#     Node 8, Type 0, BuildingBlock: GALJAG_clean_sbu_0, # of connection points: 4
#     Node 9, Type 0, BuildingBlock: GALJAG_clean_sbu_0, # of connection points: 4
#     Node 10, Type 0, BuildingBlock: GALJAG_clean_sbu_0, # of connection points: 4
#     Node 11, Type 0, BuildingBlock: GALJAG_clean_sbu_0, # of connection points: 4
#     Node 12, Type 0, BuildingBlock: GALJAG_clean_sbu_0, # of connection points: 4
#     Node 13, Type 0, BuildingBlock: GALJAG_clean_sbu_0, # of connection points: 4
#     Node 14, Type 0, BuildingBlock: GALJAG_clean_sbu_0, # of connection points: 4
#     Node 15, Type 0, BuildingBlock: GALJAG_clean_sbu_0, # of connection points: 4
#     Edge 16, Type (0, 0), BuildingBlock: MIFKUJ_clean_linker_0, # of connection points: 2
#     Edge 17, Type (0, 0), BuildingBlock: MIFKUJ_clean_linker_0, # of connection points: 2
#     Edge 18, Type (0, 0), BuildingBlock: MIFKUJ_clean_linker_0, # of connection points: 2
#     Edge 19, Type (0, 0), BuildingBlock: MIFKUJ_clean_linker_0, # of connection points: 2
#     Edge 20, Type (0, 0), BuildingBlock: MIFKUJ_clean_linker_0, # of connection points: 2
#     Edge 21, Type (0, 0), BuildingBlock: MIFKUJ_clean_linker_0, # of connection points: 2
#     Edge 22, Type (0, 0), BuildingBlock: MIFKUJ_clean_linker_0, # of connection points: 2
#     Edge 23, Type (0, 0), BuildingBlock: MIFKUJ_clean_linker_0, # of connection points: 2
#     Edge 24, Type (0, 0), BuildingBlock: MIFKUJ_clean_linker_0, # of connection points: 2
#     Edge 25, Type (0, 0), BuildingBlock: MIFKUJ_clean_linker_0, # of connection points: 2
#     Edge 26, Type (0, 0), BuildingBlock: MIFKUJ_clean_linker_0, # of connection points: 2
#     Edge 27, Type (0, 0), BuildingBlock: MIFKUJ_clean_linker_0, # of connection points: 2
#     Edge 28, Type (0, 0), BuildingBlock: MIFKUJ_clean_linker_0, # of connection points: 2
#     Edge 29, Type (0, 0), BuildingBlock: MIFKUJ_clean_linker_0, # of connection points: 2
#     Edge 30, Type (0, 0), BuildingBlock: MIFKUJ_clean_linker_0, # of connection points: 2
#     Edge 31, Type (0, 0), BuildingBlock: MIFKUJ_clean_linker_0, # of connection points: 2
#     Edge 32, Type (0, 0), BuildingBlock: MIFKUJ_clean_linker_0, # of connection points: 2
#     Edge 33, Type (0, 0), BuildingBlock: MIFKUJ_clean_linker_0, # of connection points: 2
#     Edge 34, Type (0, 0), BuildingBlock: MIFKUJ_clean_linker_0, # of connection points: 2
#     Edge 35, Type (0, 0), BuildingBlock: MIFKUJ_clean_linker_0, # of connection points: 2
#     Edge 36, Type (0, 0), BuildingBlock: MIFKUJ_clean_linker_0, # of connection points: 2
#     Edge 37, Type (0, 0), BuildingBlock: MIFKUJ_clean_linker_0, # of connection points: 2
#     Edge 38, Type (0, 0), BuildingBlock: MIFKUJ_clean_linker_0, # of connection points: 2
#     Edge 39, Type (0, 0), BuildingBlock: MIFKUJ_clean_linker_0, # of connection points: 2
#     Edge 40, Type (0, 0), BuildingBlock: MIFKUJ_clean_linker_0, # of connection points: 2
#     Edge 41, Type (0, 0), BuildingBlock: MIFKUJ_clean_linker_0, # of connection points: 2
#     Edge 42, Type (0, 0), BuildingBlock: MIFKUJ_clean_linker_0, # of connection points: 2
#     Edge 43, Type (0, 0), BuildingBlock: MIFKUJ_clean_linker_0, # of connection points: 2
#     Edge 44, Type (0, 0), BuildingBlock: MIFKUJ_clean_linker_0, # of connection points: 2
#     Edge 45, Type (0, 0), BuildingBlock: MIFKUJ_clean_linker_0, # of connection points: 2
#     Edge 46, Type (0, 0), BuildingBlock: MIFKUJ_clean_linker_0, # of connection points: 2
#     Edge 47, Type (0, 0), BuildingBlock: MIFKUJ_clean_linker_0, # of connection points: 2
# Relax obj value: 0.003
# Max RMSD: 0.033
# Mean RMSD: 0.033
data_MOF--net-neb--node1-GALJAG_clean_sbu_0--edge1-MIFKUJ_clean_linker_0
_symmetry_space_group_name_H-M    P1
_symmetry_Int_Tables_number       1
_symmetry_cell_setting            triclinic
loop_
_symmetry_equiv_pos_as_xyz
'x, y, z'
_cell_length_a     54.868779
_cell_length_b     32.438747
_cell_length_c     91.568997
_cell_angle_alpha  89.987803
_cell_angle_beta   90.385075
_cell_angle_gamma 89.996158
loop_
_atom_site_label
_atom_site_type_symbol
_atom_site_fract_x
_atom_site_fract_y
_atom_site_fract_z
_atom_type_partial_charge
In0 In 0.12596 0.12643 0.43805 0.0
O1 O 0.13494 0.05751 0.4369 0.0
O2 O 0.13175 0.09001 0.41693 0.0
C3 C 0.16199 0.15873 0.45477 0.0
C4 C 0.08774 0.10449 0.45485 0.0
C5 C 0.11864 0.19007 0.41956 0.0
O6 O 0.16458 0.12536 0.44785 0.0
O7 O 0.14132 0.17524 0.45335 0.0
O8 O 0.10211 0.17721 0.42797 0.0
O9 O 0.13842 0.17032 0.42033 0.0
C10 C 0.13552 0.05598 0.42317 0.0
O11 O 0.08559 0.11049 0.44127 0.0
O12 O 0.10886 0.11057 0.45989 0.0
In13 In 0.1244 0.12794 0.81464 0.0
O14 O 0.1026 0.07032 0.8208 0.0
O15 O 0.13349 0.08628 0.8338 0.0
C16 C 0.08757 0.15885 0.79825 0.0
C17 C 0.15999 0.09534 0.79788 0.0
C18 C 0.13308 0.19529 0.8313 0.0
O19 O 0.08372 0.13842 0.80976 0.0
O20 O 0.10974 0.16313 0.79508 0.0
O21 O 0.13908 0.19335 0.81806 0.0
O22 O 0.12301 0.1633 0.83619 0.0
C23 C 0.11614 0.06147 0.83158 0.0
O24 O 0.16458 0.11797 0.80876 0.0
O25 O 0.13764 0.08957 0.79545 0.0
In26 In 0.87515 0.87909 0.56411 0.0
O27 O 0.85227 0.93268 0.57293 0.0
O28 O 0.88907 0.92723 0.5801 0.0
C29 C 0.83848 0.84767 0.54772 0.0
C30 C 0.90807 0.91153 0.54555 0.0
C31 C 0.88467 0.81348 0.58161 0.0
O32 O 0.83457 0.86985 0.5588 0.0
O33 O 0.86068 0.8417 0.54497 0.0
O34 O 0.89306 0.81657 0.56888 0.0
O35 O 0.87183 0.84358 0.58558 0.0
C36 C 0.86938 0.94725 0.58066 0.0
O37 O 0.91424 0.8903 0.55653 0.0
O38 O 0.88539 0.91599 0.54388 0.0
In39 In 0.87638 0.87674 0.18697 0.0
O40 O 0.83751 0.87969 0.19569 0.0
O41 O 0.86487 0.91446 0.20672 0.0
C42 C 0.87109 0.8139 0.16775 0.0
C43 C 0.88162 0.9444 0.16996 0.0
C44 C 0.90947 0.84476 0.20577 0.0
O45 O 0.85433 0.82453 0.17634 0.0
O46 O 0.89012 0.83552 0.16863 0.0
O47 O 0.91321 0.87781 0.19883 0.0
O48 O 0.88904 0.82825 0.20331 0.0
C49 C 0.84269 0.90432 0.20595 0.0
O50 O 0.89969 0.92489 0.17503 0.0
O51 O 0.86121 0.92941 0.17325 0.0
In52 In 0.12336 0.62733 0.93611 0.0
O53 O 0.14334 0.56781 0.93041 0.0
O54 O 0.11531 0.58828 0.91597 0.0
C55 C 0.15842 0.65867 0.95389 0.0
C56 C 0.08688 0.59428 0.95203 0.0
C57 C 0.11663 0.69277 0.91827 0.0
O58 O 0.16325 0.63677 0.94291 0.0
O59 O 0.136 0.6644 0.95595 0.0
O60 O 0.10421 0.68743 0.92967 0.0
O61 O 0.13224 0.6651 0.91587 0.0
C62 C 0.13123 0.56135 0.91886 0.0
O63 O 0.08329 0.62297 0.94296 0.0
O64 O 0.10874 0.58277 0.95314 0.0
In65 In 0.12594 0.62725 0.31652 0.0
O66 O 0.10262 0.57973 0.32854 0.0
O67 O 0.1412 0.57498 0.33035 0.0
C68 C 0.09034 0.65953 0.29941 0.0
C69 C 0.15877 0.59743 0.29735 0.0
C70 C 0.13451 0.68964 0.33552 0.0
O71 O 0.08751 0.6264 0.30643 0.0
O72 O 0.11097 0.67601 0.30102 0.0
O73 O 0.14561 0.68627 0.32357 0.0
O74 O 0.11942 0.66126 0.338 0.0
C75 C 0.12069 0.56033 0.33373 0.0
O76 O 0.16462 0.62142 0.30765 0.0
O77 O 0.13637 0.58884 0.29665 0.0
In78 In 0.87587 0.3768 0.06409 0.0
O79 O 0.85399 0.42704 0.07568 0.0
O80 O 0.89226 0.42506 0.07933 0.0
C81 C 0.84112 0.34492 0.04633 0.0
C82 C 0.90749 0.40719 0.04434 0.0
C83 C 0.88259 0.31376 0.0831 0.0
O84 O 0.83736 0.37604 0.05427 0.0
O85 O 0.86233 0.33022 0.04729 0.0
O86 O 0.89829 0.32344 0.07369 0.0
O87 O 0.86386 0.33627 0.08307 0.0
C88 C 0.87232 0.44291 0.08191 0.0
O89 O 0.9131 0.37833 0.053 0.0
O90 O 0.88596 0.42031 0.04558 0.0
In91 In 0.87548 0.3805 0.68586 0.0
O92 O 0.8347 0.39215 0.68991 0.0
O93 O 0.86022 0.41253 0.70585 0.0
C94 C 0.86986 0.31331 0.66879 0.0
C95 C 0.88645 0.4469 0.66906 0.0
C96 C 0.90801 0.34752 0.70476 0.0
O97 O 0.85203 0.33035 0.67506 0.0
O98 O 0.89021 0.33033 0.67109 0.0
O99 O 0.9141 0.37298 0.69499 0.0
O100 O 0.88559 0.33889 0.70498 0.0
C101 C 0.83821 0.41013 0.70198 0.0
O102 O 0.89168 0.44497 0.68245 0.0
O103 O 0.87613 0.41521 0.66407 0.0
In104 In 0.62538 0.12222 0.93639 0.0
O105 O 0.64697 0.06582 0.92898 0.0
O106 O 0.61372 0.07904 0.91794 0.0
C107 C 0.65906 0.15617 0.95441 0.0
C108 C 0.59139 0.09082 0.95456 0.0
C109 C 0.61988 0.18598 0.91762 0.0
O110 O 0.66413 0.1278 0.9455 0.0
O111 O 0.63702 0.16718 0.95429 0.0
O112 O 0.6038 0.17639 0.92682 0.0
O113 O 0.63846 0.16307 0.91776 0.0
C114 C 0.63187 0.05539 0.91921 0.0
O115 O 0.58633 0.11763 0.94502 0.0
O116 O 0.61349 0.08033 0.95501 0.0
In117 In 0.62652 0.12802 0.31358 0.0
O118 O 0.66589 0.12037 0.30609 0.0
O119 O 0.63839 0.08642 0.29488 0.0
C120 C 0.63363 0.19394 0.3313 0.0
C121 C 0.62088 0.06157 0.33101 0.0
C122 C 0.59173 0.15884 0.29555 0.0
O123 O 0.64523 0.18902 0.31959 0.0
O124 O 0.61879 0.16548 0.33415 0.0
O125 O 0.58671 0.1357 0.3062 0.0
O126 O 0.61413 0.16588 0.29395 0.0
C127 C 0.66077 0.09484 0.29612 0.0
O128 O 0.60384 0.07498 0.32296 0.0
O129 O 0.64045 0.08187 0.33033 0.0
In130 In 0.3743 0.87835 0.06445 0.0
O131 O 0.41394 0.88019 0.05646 0.0
O132 O 0.38838 0.92111 0.04675 0.0
C133 C 0.37917 0.8113 0.0817 0.0
C134 C 0.36658 0.94336 0.08247 0.0
C135 C 0.34061 0.84712 0.04585 0.0
O136 O 0.39714 0.82764 0.07534 0.0
O137 O 0.35903 0.82913 0.07949 0.0
O138 O 0.33515 0.87122 0.05615 0.0
O139 O 0.36303 0.83911 0.04487 0.0
C140 C 0.41007 0.90846 0.04724 0.0
O141 O 0.35696 0.94059 0.06998 0.0
O142 O 0.37982 0.91318 0.086 0.0
In143 In 0.37344 0.87738 0.68752 0.0
O144 O 0.33445 0.88414 0.6958 0.0
O145 O 0.36279 0.91341 0.70787 0.0
C146 C 0.36793 0.8144 0.66841 0.0
C147 C 0.37937 0.94526 0.67072 0.0
C148 C 0.40653 0.8431 0.70573 0.0
O149 O 0.35155 0.82439 0.67735 0.0
O150 O 0.38675 0.83666 0.66893 0.0
O151 O 0.4111 0.87488 0.69825 0.0
O152 O 0.38527 0.82894 0.70409 0.0
C153 C 0.34028 0.90627 0.70662 0.0
O154 O 0.3968 0.92894 0.67768 0.0
O155 O 0.35924 0.92702 0.67207 0.0
In156 In 0.6248 0.62756 0.43615 0.0
O157 O 0.6461 0.57085 0.42861 0.0
O158 O 0.61553 0.58937 0.41591 0.0
C159 C 0.65715 0.65873 0.45559 0.0
C160 C 0.59019 0.59366 0.45325 0.0
C161 C 0.61974 0.69469 0.41889 0.0
O162 O 0.66345 0.63626 0.44501 0.0
O163 O 0.63452 0.66512 0.45645 0.0
O164 O 0.6019 0.67855 0.4254 0.0
O165 O 0.63983 0.67667 0.42095 0.0
C166 C 0.63263 0.56384 0.41767 0.0
O167 O 0.58591 0.62428 0.44509 0.0
O168 O 0.61181 0.58059 0.45281 0.0
In169 In 0.62542 0.62344 0.81399 0.0
O170 O 0.66429 0.61498 0.80572 0.0
O171 O 0.6353 0.59133 0.79268 0.0
C172 C 0.63444 0.68544 0.83315 0.0
C173 C 0.62045 0.55413 0.83004 0.0
C174 C 0.58912 0.65548 0.79744 0.0
O175 O 0.6447 0.68302 0.8209 0.0
O176 O 0.62011 0.65615 0.83589 0.0
O177 O 0.58662 0.62228 0.80447 0.0
O178 O 0.60975 0.67215 0.79879 0.0
C179 C 0.658 0.59603 0.79425 0.0
O180 O 0.60234 0.5758 0.82624 0.0
O181 O 0.6408 0.56771 0.8259 0.0
In182 In 0.37812 0.37736 0.56534 0.0
O183 O 0.35465 0.42601 0.57675 0.0
O184 O 0.39285 0.42724 0.58052 0.0
C185 C 0.34521 0.34492 0.54655 0.0
C186 C 0.41123 0.40585 0.54613 0.0
C187 C 0.38328 0.31506 0.58474 0.0
O188 O 0.34163 0.37853 0.55316 0.0
O189 O 0.36541 0.32799 0.54934 0.0
O190 O 0.40075 0.32773 0.57704 0.0
O191 O 0.36354 0.33426 0.58284 0.0
C192 C 0.37242 0.44349 0.583 0.0
O193 O 0.41614 0.37763 0.5552 0.0
O194 O 0.38966 0.41917 0.54668 0.0
In195 In 0.37276 0.3779 0.18711 0.0
O196 O 0.33334 0.38344 0.19488 0.0
O197 O 0.36018 0.42116 0.20509 0.0
C198 C 0.36518 0.31002 0.17032 0.0
C199 C 0.37822 0.44406 0.16955 0.0
C200 C 0.40895 0.35094 0.20495 0.0
O201 O 0.35769 0.31279 0.18326 0.0
O202 O 0.37606 0.34161 0.16575 0.0
O203 O 0.41323 0.36995 0.1932 0.0
O204 O 0.38667 0.34619 0.20767 0.0
C205 C 0.33805 0.41077 0.20432 0.0
O206 O 0.39561 0.42988 0.17717 0.0
O207 O 0.3584 0.4246 0.1707 0.0
H208 H 0.34677 0.26888 0.53391 0.0
H209 H 0.3162 0.23718 0.51797 0.0
H210 H 0.27226 0.34728 0.52047 0.0
H211 H 0.30252 0.37872 0.53678 0.0
H212 H 0.24481 0.28132 0.52378 0.0
H213 H 0.30636 0.32272 0.48966 0.0
H214 H 0.34798 0.32656 0.47974 0.0
H215 H 0.34959 0.19484 0.47519 0.0
H216 H 0.30809 0.19017 0.48526 0.0
H217 H 0.16257 0.23561 0.4666 0.0
H218 H 0.19444 0.26694 0.48164 0.0
H219 H 0.23711 0.15554 0.47862 0.0
H220 H 0.20548 0.12441 0.46312 0.0
H221 H 0.26545 0.22116 0.47561 0.0
H222 H 0.20389 0.17985 0.5097 0.0
H223 H 0.16227 0.17605 0.51962 0.0
H224 H 0.16078 0.30774 0.52429 0.0
H225 H 0.20228 0.31237 0.51422 0.0
C226 C 0.33064 0.2864 0.53101 0.0
C227 C 0.32704 0.32632 0.53656 0.0
C228 C 0.31323 0.26832 0.52184 0.0
C229 C 0.29207 0.29004 0.51785 0.0
C230 C 0.28846 0.32994 0.52338 0.0
C231 C 0.30578 0.34792 0.53267 0.0
C232 C 0.27339 0.27079 0.50821 0.0
C233 C 0.24927 0.2687 0.51316 0.0
C234 C 0.27931 0.25328 0.49451 0.0
C235 C 0.3042 0.25608 0.48834 0.0
C236 C 0.31565 0.29455 0.48663 0.0
C237 C 0.33921 0.29688 0.48097 0.0
C238 C 0.35144 0.26096 0.47687 0.0
C239 C 0.3401 0.22264 0.47838 0.0
C240 C 0.31655 0.22014 0.48405 0.0
C241 C 0.17874 0.21775 0.46914 0.0
C242 C 0.18148 0.17744 0.46378 0.0
C243 C 0.1969 0.23565 0.47779 0.0
C244 C 0.21798 0.21334 0.4815 0.0
C245 C 0.22096 0.17328 0.47595 0.0
C246 C 0.20287 0.15549 0.46714 0.0
C247 C 0.23687 0.2319 0.49116 0.0
C248 C 0.26101 0.23379 0.48624 0.0
C249 C 0.23099 0.24924 0.50489 0.0
C250 C 0.20612 0.24647 0.51109 0.0
C251 C 0.19463 0.20801 0.51276 0.0
C252 C 0.17107 0.20571 0.51842 0.0
C253 C 0.15887 0.24163 0.52256 0.0
C254 C 0.17024 0.27994 0.52108 0.0
C255 C 0.19379 0.28242 0.51541 0.0
H256 H 0.14063 0.23979 0.52693 0.0
H257 H 0.36968 0.26283 0.47249 0.0
H258 H 0.95683 0.92234 0.55024 0.0
H259 H 0.98595 0.95741 0.53429 0.0
H260 H 0.92885 0.97895 0.50262 0.0
H261 H 0.89953 0.94453 0.51861 0.0
H262 H 0.97423 0.94814 0.49082 0.0
H263 H 0.94369 0.05548 0.52204 0.0
H264 H 0.93371 0.08721 0.54572 0.0
H265 H 0.00904 0.0818 0.55858 0.0
H266 H 0.01942 0.04941 0.53505 0.0
H267 H 0.04056 0.0883 0.44673 0.0
H268 H 0.00847 0.05783 0.46176 0.0
H269 H 0.05794 0.05372 0.49857 0.0
H270 H 0.08979 0.08496 0.48374 0.0
H271 H 0.01463 0.07696 0.50737 0.0
H272 H 0.0458 0.96777 0.47759 0.0
H273 H 0.05717 0.93321 0.45464 0.0
H274 H 0.98281 0.93851 0.43986 0.0
H275 H 0.97105 0.97368 0.46265 0.0
C276 C 0.95052 0.93438 0.53985 0.0
C277 C 0.92592 0.93083 0.53567 0.0
C278 C 0.96713 0.95448 0.53078 0.0
C279 C 0.95947 0.97091 0.51733 0.0
C280 C 0.93507 0.96647 0.51296 0.0
C281 C 0.91837 0.94694 0.52212 0.0
C282 C 0.97689 0.99335 0.50795 0.0
C283 C 0.98282 0.97664 0.49431 0.0
C284 C 0.98846 0.02994 0.51271 0.0
C285 C 0.98229 0.04963 0.52684 0.0
C286 C 0.9581 0.06071 0.52997 0.0
C287 C 0.95237 0.07888 0.54335 0.0
C288 C 0.97072 0.08642 0.55367 0.0
C289 C 0.99484 0.07589 0.55059 0.0
C290 C 0.00066 0.05765 0.53723 0.0
C291 C 0.04449 0.08123 0.45806 0.0
C292 C 0.06771 0.08885 0.46404 0.0
C293 C 0.0262 0.06361 0.46662 0.0
C294 C 0.03091 0.05288 0.48125 0.0
C295 C 0.05387 0.06165 0.48732 0.0
C296 C 0.07209 0.07944 0.47881 0.0
C297 C 0.01218 0.0317 0.49019 0.0
C298 C 0.00598 0.0486 0.50379 0.0
C299 C 0.0006 0.99497 0.48546 0.0
C300 C 0.0076 0.97378 0.47175 0.0
C301 C 0.03191 0.96188 0.46939 0.0
C302 C 0.03842 0.94213 0.45643 0.0
C303 C 0.02074 0.93378 0.44578 0.0
C304 C 0.99649 0.94508 0.4481 0.0
C305 C 0.98989 0.9649 0.46104 0.0
H306 H 0.02581 0.91847 0.43575 0.0
H307 H 0.96625 0.1005 0.56402 0.0
H308 H 0.29078 0.9067 0.70351 0.0
H309 H 0.26094 0.93912 0.71963 0.0
H310 H 0.31888 0.97775 0.7486 0.0
H311 H 0.34887 0.94565 0.73247 0.0
H312 H 0.27824 0.94443 0.76321 0.0
H313 H 0.29608 0.04629 0.72687 0.0
H314 H 0.30098 0.07288 0.70184 0.0
H315 H 0.22557 0.04786 0.69265 0.0
H316 H 0.22032 0.02049 0.71758 0.0
H317 H 0.2091 0.09292 0.80317 0.0
H318 H 0.24045 0.06009 0.78815 0.0
H319 H 0.18534 0.0226 0.75708 0.0
H320 H 0.15397 0.05508 0.77204 0.0
H321 H 0.22563 0.05657 0.74385 0.0
H322 H 0.20772 0.95302 0.77952 0.0
H323 H 0.20242 0.92426 0.80421 0.0
H324 H 0.2772 0.95128 0.81449 0.0
H325 H 0.28288 0.98062 0.78987 0.0
C326 C 0.29714 0.92189 0.71336 0.0
C327 C 0.32214 0.92382 0.71671 0.0
C328 C 0.2801 0.94048 0.72252 0.0
C329 C 0.28776 0.96108 0.73523 0.0
C330 C 0.31264 0.96203 0.73883 0.0
C331 C 0.32972 0.94381 0.72959 0.0
C332 C 0.2698 0.98244 0.74457 0.0
C333 C 0.26698 0.96936 0.75907 0.0
C334 C 0.25481 0.01438 0.73903 0.0
C335 C 0.25787 0.03094 0.72405 0.0
C336 C 0.2806 0.0461 0.71947 0.0
C337 C 0.28343 0.06138 0.70531 0.0
C338 C 0.26361 0.06195 0.69565 0.0
C339 C 0.24091 0.04733 0.70014 0.0
C340 C 0.23799 0.03196 0.71429 0.0
C341 C 0.20371 0.07774 0.79312 0.0
C342 C 0.17911 0.0765 0.78877 0.0
C343 C 0.22159 0.05888 0.78459 0.0
C344 C 0.21516 0.03872 0.77155 0.0
C345 C 0.19066 0.038 0.7671 0.0
C346 C 0.17277 0.05647 0.77568 0.0
C347 C 0.23395 0.01843 0.76249 0.0
C348 C 0.23695 0.03175 0.74803 0.0
C349 C 0.24904 0.98664 0.76806 0.0
C350 C 0.24565 0.96946 0.78292 0.0
C351 C 0.22297 0.95323 0.7871 0.0
C352 C 0.2199 0.93674 0.80107 0.0
C353 C 0.23943 0.93609 0.81094 0.0
C354 C 0.26207 0.95189 0.80685 0.0
C355 C 0.26524 0.96841 0.79288 0.0
H356 H 0.23705 0.92316 0.82173 0.0
H357 H 0.26584 0.07381 0.68469 0.0
H358 H 0.09274 0.20837 0.77452 0.0
H359 H 0.0607 0.24026 0.75976 0.0
H360 H 0.006 0.18328 0.7867 0.0
H361 H 0.03815 0.151 0.8016 0.0
H362 H 0.99586 0.17687 0.75694 0.0
H363 H 0.01752 0.28251 0.79116 0.0
H364 H 0.04559 0.32813 0.80471 0.0
H365 H 0.06915 0.38253 0.76446 0.0
H366 H 0.04147 0.33677 0.75064 0.0
H367 H 0.89849 0.29566 0.72747 0.0
H368 H 0.92777 0.26375 0.74423 0.0
H369 H 0.98677 0.32435 0.72188 0.0
H370 H 0.95748 0.35706 0.70525 0.0
H371 H 0.99321 0.32878 0.75065 0.0
H372 H 0.97375 0.2217 0.71629 0.0
H373 H 0.94666 0.17542 0.70229 0.0
H374 H 0.91995 0.12328 0.7422 0.0
H375 H 0.94665 0.16967 0.75645 0.0
C376 C 0.0739 0.20254 0.77732 0.0
C377 C 0.06794 0.17728 0.78925 0.0
C378 C 0.05562 0.22093 0.7689 0.0
C379 C 0.031 0.21452 0.77224 0.0
C380 C 0.02492 0.18871 0.78398 0.0
C381 C 0.04327 0.1704 0.79249 0.0
C382 C 0.01174 0.23483 0.76337 0.0
C383 C 0.99498 0.21012 0.75575 0.0
C384 C 0.01102 0.27815 0.76157 0.0
C385 C 0.02756 0.30595 0.76986 0.0
C386 C 0.02882 0.30398 0.78519 0.0
C387 C 0.04464 0.3299 0.79292 0.0
C388 C 0.05919 0.35815 0.78545 0.0
C389 C 0.05789 0.36061 0.77023 0.0
C390 C 0.04212 0.33471 0.76244 0.0
C391 C 0.91771 0.30223 0.72614 0.0
C392 C 0.92572 0.32874 0.71501 0.0
C393 C 0.93443 0.28383 0.73569 0.0
C394 C 0.95951 0.2912 0.7342 0.0
C395 C 0.96751 0.31816 0.72323 0.0
C396 C 0.95078 0.33675 0.71371 0.0
C397 C 0.97742 0.27083 0.74407 0.0
C398 C 0.99395 0.29554 0.75189 0.0
C399 C 0.97801 0.22749 0.74598 0.0
C400 C 0.96201 0.19947 0.73744 0.0
C401 C 0.96196 0.20059 0.72208 0.0
C402 C 0.9467 0.1743 0.7141 0.0
C403 C 0.93155 0.14651 0.72135 0.0
C404 C 0.93167 0.14487 0.7366 0.0
C405 C 0.94688 0.17113 0.74464 0.0
H406 H 0.91975 0.12618 0.71515 0.0
H407 H 0.07143 0.37819 0.79145 0.0
H408 H 0.78922 0.85056 0.55236 0.0
H409 H 0.75699 0.81947 0.53728 0.0
H410 H 0.81121 0.77302 0.50761 0.0
H411 H 0.84337 0.80405 0.52254 0.0
H412 H 0.77324 0.80771 0.49309 0.0
H413 H 0.78493 0.70977 0.53193 0.0
H414 H 0.7874 0.68674 0.55756 0.0
H415 H 0.71313 0.72352 0.56424 0.0
H416 H 0.71032 0.74734 0.53868 0.0
H417 H 0.70676 0.657 0.45392 0.0
H418 H 0.73612 0.69056 0.47025 0.0
H419 H 0.6772 0.73616 0.49668 0.0
H420 H 0.64767 0.70264 0.48037 0.0
H421 H 0.71562 0.70479 0.51326 0.0
H422 H 0.70357 0.80011 0.47397 0.0
H423 H 0.70123 0.82219 0.44823 0.0
H424 H 0.77641 0.78981 0.44235 0.0
H425 H 0.7791 0.76692 0.46801 0.0
C426 C 0.79422 0.83376 0.54261 0.0
C427 C 0.8188 0.82965 0.53864 0.0
C428 C 0.77583 0.81591 0.53404 0.0
C429 C 0.78173 0.79368 0.52138 0.0
C430 C 0.80625 0.79005 0.51733 0.0
C431 C 0.8246 0.8077 0.5259 0.0
C432 C 0.76248 0.7741 0.51228 0.0
C433 C 0.7608 0.7849 0.49747 0.0
C434 C 0.74587 0.74508 0.51808 0.0
C435 C 0.74751 0.73078 0.53345 0.0
C436 C 0.76919 0.7133 0.5389 0.0
C437 C 0.77064 0.70004 0.55341 0.0
C438 C 0.75046 0.70379 0.56254 0.0
C439 C 0.72876 0.72072 0.55716 0.0
C440 C 0.72723 0.73408 0.54267 0.0
C441 C 0.70005 0.674 0.46325 0.0
C442 C 0.67492 0.67736 0.46584 0.0
C443 C 0.71684 0.69327 0.47254 0.0
C444 C 0.7088 0.71619 0.48459 0.0
C445 C 0.68375 0.71868 0.48743 0.0
C446 C 0.66693 0.69963 0.47808 0.0
C447 C 0.72661 0.73809 0.49405 0.0
C448 C 0.72798 0.72776 0.50892 0.0
C449 C 0.74297 0.76753 0.4883 0.0
C450 C 0.74147 0.78143 0.47288 0.0
C451 C 0.71955 0.79737 0.46716 0.0
C452 C 0.71817 0.81009 0.45259 0.0
C453 C 0.73864 0.80731 0.44365 0.0
C454 C 0.76056 0.7919 0.44928 0.0
C455 C 0.76203 0.77908 0.46384 0.0
H456 H 0.73754 0.81718 0.43237 0.0
H457 H 0.75161 0.69348 0.57376 0.0
H458 H 0.71018 0.1041 0.29793 0.0
H459 H 0.74114 0.07086 0.28285 0.0
H460 H 0.68468 0.00916 0.25817 0.0
H461 H 0.65367 0.04168 0.2734 0.0
H462 H 0.72055 0.95695 0.2648 0.0
H463 H 0.71521 0.09299 0.24429 0.0
H464 H 0.71562 0.169 0.24476 0.0
H465 H 0.78922 0.16779 0.26098 0.0
H466 H 0.78914 0.09173 0.2608 0.0
H467 H 0.79338 0.89262 0.20492 0.0
H468 H 0.76261 0.92409 0.2206 0.0
H469 H 0.81925 0.98602 0.24506 0.0
H470 H 0.85005 0.9553 0.22924 0.0
H471 H 0.78335 0.03793 0.23867 0.0
H472 H 0.7888 0.90177 0.25898 0.0
H473 H 0.78837 0.82577 0.25847 0.0
H474 H 0.71459 0.82713 0.24254 0.0
H475 H 0.71469 0.90319 0.24278 0.0
C476 C 0.70437 0.08355 0.28926 0.0
C477 C 0.6795 0.0756 0.28681 0.0
C478 C 0.72207 0.06467 0.28062 0.0
C479 C 0.71522 0.03785 0.26927 0.0
C480 C 0.69039 0.02975 0.26685 0.0
C481 C 0.67269 0.04847 0.27553 0.0
C482 C 0.73394 0.01786 0.26 0.0
C483 C 0.73409 0.97468 0.25893 0.0
C484 C 0.75196 0.04092 0.25261 0.0
C485 C 0.75209 0.08666 0.25267 0.0
C486 C 0.73142 0.10893 0.24806 0.0
C487 C 0.7316 0.15202 0.24826 0.0
C488 C 0.75241 0.17321 0.25293 0.0
C489 C 0.77311 0.15134 0.25738 0.0
C490 C 0.77301 0.10824 0.25722 0.0
C491 C 0.79927 0.91272 0.21371 0.0
C492 C 0.82412 0.92145 0.21587 0.0
C493 C 0.78168 0.93058 0.22269 0.0
C494 C 0.78862 0.95714 0.2341 0.0
C495 C 0.81346 0.96565 0.23632 0.0
C496 C 0.83104 0.94796 0.22731 0.0
C497 C 0.76999 0.977 0.24347 0.0
C498 C 0.76984 0.02017 0.24455 0.0
C499 C 0.75197 0.95392 0.25086 0.0
C500 C 0.75184 0.90818 0.25077 0.0
C501 C 0.77255 0.88587 0.25527 0.0
C502 C 0.77235 0.84278 0.25504 0.0
C503 C 0.75149 0.82164 0.25044 0.0
C504 C 0.73075 0.84355 0.24609 0.0
C505 C 0.73085 0.88665 0.24628 0.0
H506 H 0.75137 0.78827 0.25028 0.0
H507 H 0.75251 0.20657 0.25308 0.0
H508 H 0.90519 0.77368 0.22142 0.0
H509 H 0.93555 0.74204 0.23754 0.0
H510 H 0.98516 0.84218 0.22891 0.0
H511 H 0.95492 0.87377 0.21259 0.0
H512 H 0.00781 0.7685 0.22728 0.0
H513 H 0.95479 0.83644 0.26115 0.0
H514 H 0.91536 0.85373 0.27237 0.0
H515 H 0.90468 0.72671 0.28386 0.0
H516 H 0.94392 0.70855 0.27253 0.0
H517 H 0.09288 0.73105 0.28395 0.0
H518 H 0.06161 0.76149 0.26823 0.0
H519 H 0.01342 0.65995 0.27765 0.0
H520 H 0.04464 0.6295 0.29364 0.0
H521 H 0.98971 0.73295 0.2788 0.0
H522 H 0.04281 0.66495 0.24523 0.0
H523 H 0.08219 0.64736 0.23401 0.0
H524 H 0.09262 0.77396 0.22186 0.0
H525 H 0.05344 0.79243 0.23319 0.0
C526 C 0.92253 0.78905 0.223 0.0
C527 C 0.92767 0.82627 0.21578 0.0
C528 C 0.93983 0.771 0.23225 0.0
C529 C 0.96253 0.78996 0.23455 0.0
C530 C 0.96774 0.82706 0.22731 0.0
C531 C 0.95044 0.84514 0.21803 0.0
C532 C 0.98098 0.77071 0.24432 0.0
C533 C 0.00397 0.76125 0.23861 0.0
C534 C 0.97573 0.7602 0.25898 0.0
C535 C 0.95218 0.77108 0.26587 0.0
C536 C 0.94395 0.81214 0.26597 0.0
C537 C 0.92165 0.82211 0.27237 0.0
C538 C 0.90749 0.79132 0.27879 0.0
C539 C 0.91565 0.75051 0.27887 0.0
C540 C 0.93793 0.74037 0.27247 0.0
C541 C 0.07563 0.71514 0.28268 0.0
C542 C 0.07123 0.67778 0.28998 0.0
C543 C 0.05781 0.73252 0.27364 0.0
C544 C 0.0353 0.71272 0.27161 0.0
C545 C 0.0307 0.67567 0.27904 0.0
C546 C 0.04855 0.65827 0.28813 0.0
C547 C 0.01658 0.73094 0.26177 0.0
C548 C 0.99354 0.74016 0.26747 0.0
C549 C 0.02177 0.74118 0.24708 0.0
C550 C 0.04528 0.73013 0.24018 0.0
C551 C 0.05358 0.6891 0.24026 0.0
C552 C 0.07586 0.67896 0.23387 0.0
C553 C 0.08993 0.70954 0.22726 0.0
C554 C 0.08171 0.75031 0.22699 0.0
C555 C 0.05946 0.76063 0.23339 0.0
H556 H 0.10717 0.70163 0.22232 0.0
H557 H 0.89023 0.7991 0.28374 0.0
H558 H 0.29123 0.85759 0.04649 0.0
H559 H 0.26068 0.82514 0.03065 0.0
H560 H 0.31766 0.76223 0.00728 0.0
H561 H 0.34832 0.79492 0.02298 0.0
H562 H 0.28373 0.7938 0.98878 0.0
H563 H 0.2842 0.71132 0.03229 0.0
H564 H 0.28184 0.69849 0.05878 0.0
H565 H 0.20923 0.7478 0.05941 0.0
H566 H 0.21129 0.76148 0.03293 0.0
H567 H 0.2078 0.64902 0.95206 0.0
H568 H 0.23913 0.68056 0.96759 0.0
H569 H 0.18329 0.74167 0.99252 0.0
H570 H 0.15191 0.70963 0.97721 0.0
H571 H 0.2172 0.71015 0.01018 0.0
H572 H 0.21682 0.79349 0.96678 0.0
H573 H 0.21918 0.80676 0.94031 0.0
H574 H 0.2915 0.75625 0.93949 0.0
H575 H 0.28944 0.74216 0.96593 0.0
C576 C 0.29725 0.83695 0.03795 0.0
C577 C 0.32215 0.82866 0.036 0.0
C578 C 0.27978 0.8183 0.02895 0.0
C579 C 0.28688 0.79087 0.0179 0.0
C580 C 0.31178 0.78323 0.01575 0.0
C581 C 0.32926 0.80184 0.02475 0.0
C582 C 0.26835 0.76995 0.00864 0.0
C583 C 0.26936 0.77505 0.99344 0.0
C584 C 0.24933 0.74617 0.01475 0.0
C585 C 0.248 0.73779 0.03065 0.0
C586 C 0.2678 0.71972 0.03809 0.0
C587 C 0.26651 0.71225 0.0531 0.0
C588 C 0.24542 0.72242 0.06078 0.0
C589 C 0.22556 0.73999 0.05345 0.0
C590 C 0.22678 0.74758 0.03844 0.0
C591 C 0.20222 0.66911 0.96087 0.0
C592 C 0.17742 0.67696 0.9634 0.0
C593 C 0.22014 0.68727 0.9697 0.0
C594 C 0.21357 0.71392 0.98111 0.0
C595 C 0.18879 0.72127 0.98377 0.0
C596 C 0.17088 0.70301 0.97499 0.0
C597 C 0.23249 0.73414 0.99031 0.0
C598 C 0.23156 0.72887 0.00551 0.0
C599 C 0.25157 0.7578 0.9842 0.0
C600 C 0.25288 0.76639 0.96831 0.0
C601 C 0.23315 0.78492 0.96093 0.0
C602 C 0.23445 0.79265 0.94594 0.0
C603 C 0.25545 0.78226 0.93821 0.0
C604 C 0.27523 0.76423 0.94548 0.0
C605 C 0.27402 0.7564 0.96048 0.0
H606 H 0.25642 0.78826 0.92661 0.0
H607 H 0.24445 0.7166 0.0724 0.0
H608 H 0.08926 0.52379 0.96809 0.0
H609 H 0.05685 0.49189 0.98238 0.0
H610 H 0.00765 0.58955 0.96983 0.0
H611 H 0.04003 0.62154 0.95533 0.0
H612 H 0.00713 0.57253 0.99972 0.0
H613 H 0.99955 0.50027 0.95481 0.0
H614 H 0.01256 0.45994 0.93343 0.0
H615 H 0.03584 0.3614 0.96154 0.0
H616 H 0.02331 0.40142 0.98315 0.0
H617 H 0.9008 0.47469 0.02704 0.0
H618 H 0.93008 0.50621 0.01039 0.0
H619 H 0.98274 0.41221 0.02129 0.0
H620 H 0.9535 0.38047 0.03802 0.0
H621 H 0.97988 0.42853 0.99132 0.0
H622 H 0.98826 0.50382 0.0364 0.0
H623 H 0.9735 0.54442 0.05731 0.0
H624 H 0.94727 0.63826 0.0281 0.0
H625 H 0.96157 0.5979 0.00698 0.0
C626 C 0.07153 0.53846 0.96834 0.0
C627 C 0.06715 0.57516 0.9606 0.0
C628 C 0.05301 0.52009 0.97646 0.0
C629 C 0.02983 0.53822 0.97708 0.0
C630 C 0.02543 0.57506 0.96946 0.0
C631 C 0.04389 0.59322 0.96117 0.0
C632 C 0.01044 0.51899 0.98598 0.0
C633 C 0.00087 0.54129 0.99775 0.0
C634 C 0.00264 0.47796 0.98354 0.0
C635 C 0.01069 0.45404 0.97062 0.0
C636 C 0.00771 0.47021 0.95646 0.0
C637 C 0.01492 0.44735 0.94429 0.0
C638 C 0.02499 0.40814 0.94613 0.0
C639 C 0.028 0.39177 0.96014 0.0
C640 C 0.02084 0.41453 0.97235 0.0
C641 C 0.91858 0.46062 0.02585 0.0
C642 C 0.92491 0.4252 0.03387 0.0
C643 C 0.9353 0.47873 0.01637 0.0
C644 C 0.95864 0.46174 0.01471 0.0
C645 C 0.96482 0.4258 0.02243 0.0
C646 C 0.94814 0.4078 0.03201 0.0
C647 C 0.97675 0.48195 0.00513 0.0
C648 C 0.98609 0.45981 0.99325 0.0
C649 C 0.98424 0.52322 0.00741 0.0
C650 C 0.97575 0.54763 0.0201 0.0
C651 C 0.97916 0.53295 0.03442 0.0
C652 C 0.97091 0.55594 0.04632 0.0
C653 C 0.95939 0.59384 0.04403 0.0
C654 C 0.95616 0.60887 0.02985 0.0
C655 C 0.96435 0.58596 0.01791 0.0
H656 H 0.95302 0.6116 0.05326 0.0
H657 H 0.03036 0.39037 0.93668 0.0
H658 H 0.34424 0.47114 0.22469 0.0
H659 H 0.31323 0.50271 0.2401 0.0
H660 H 0.25832 0.42455 0.22063 0.0
H661 H 0.28929 0.3932 0.20498 0.0
H662 H 0.24247 0.50313 0.22301 0.0
H663 H 0.28074 0.40408 0.25462 0.0
H664 H 0.31524 0.36967 0.26698 0.0
H665 H 0.3345 0.48323 0.28819 0.0
H666 H 0.3003 0.51848 0.27579 0.0
H667 H 0.15079 0.5404 0.27595 0.0
H668 H 0.18087 0.50902 0.25981 0.0
H669 H 0.23747 0.58309 0.27959 0.0
H670 H 0.20751 0.61393 0.29599 0.0
H671 H 0.25209 0.50562 0.27692 0.0
H672 H 0.21408 0.60496 0.24527 0.0
H673 H 0.17964 0.63961 0.23294 0.0
H674 H 0.15994 0.52611 0.21182 0.0
H675 H 0.19408 0.49063 0.22419 0.0
C676 C 0.32557 0.46061 0.2237 0.0
C677 C 0.31921 0.42955 0.21368 0.0
C678 C 0.30788 0.47859 0.23255 0.0
C679 C 0.2835 0.46564 0.23165 0.0
C680 C 0.27703 0.43495 0.22153 0.0
C681 C 0.29474 0.41698 0.21264 0.0
C682 C 0.2648 0.48429 0.24126 0.0
C683 C 0.24438 0.50318 0.23481 0.0
C684 C 0.26759 0.48518 0.25664 0.0
C685 C 0.28809 0.46399 0.26417 0.0
C686 C 0.29244 0.42178 0.26183 0.0
C687 C 0.31192 0.40212 0.26886 0.0
C688 C 0.32709 0.42427 0.27834 0.0
C689 C 0.32276 0.46612 0.28084 0.0
C690 C 0.30331 0.48595 0.27382 0.0
C691 C 0.16963 0.55015 0.27681 0.0
C692 C 0.1768 0.57969 0.28721 0.0
C693 C 0.18679 0.53231 0.26754 0.0
C694 C 0.21141 0.54403 0.26837 0.0
C695 C 0.21858 0.57359 0.27874 0.0
C696 C 0.20144 0.59128 0.28807 0.0
C697 C 0.22978 0.5247 0.25869 0.0
C698 C 0.25015 0.50561 0.26512 0.0
C699 C 0.22694 0.5237 0.2433 0.0
C700 C 0.20651 0.54505 0.23577 0.0
C701 C 0.2023 0.58732 0.23808 0.0
C702 C 0.18285 0.60712 0.23107 0.0
C703 C 0.16757 0.58505 0.22163 0.0
C704 C 0.17177 0.54316 0.21915 0.0
C705 C 0.19118 0.52319 0.22615 0.0
H706 H 0.15251 0.60044 0.21622 0.0
H707 H 0.34217 0.40899 0.28376 0.0
H708 H 0.65299 0.22172 0.9727 0.0
H709 H 0.6837 0.25428 0.9884 0.0
H710 H 0.73744 0.16693 0.97362 0.0
H711 H 0.70678 0.13412 0.95792 0.0
H712 H 0.73902 0.17747 0.00323 0.0
H713 H 0.73724 0.26251 0.96058 0.0
H714 H 0.71859 0.30582 0.94152 0.0
H715 H 0.69476 0.39194 0.97407 0.0
H716 H 0.71284 0.34844 0.99342 0.0
H717 H 0.84556 0.27818 0.02847 0.0
H718 H 0.81413 0.24681 0.01306 0.0
H719 H 0.76237 0.3382 0.02734 0.0
H720 H 0.7939 0.37015 0.04266 0.0
H721 H 0.75914 0.32595 0.99829 0.0
H722 H 0.76106 0.24128 0.04096 0.0
H723 H 0.77978 0.1981 0.06005 0.0
H724 H 0.80324 0.11149 0.02757 0.0
H725 H 0.78503 0.15475 0.00821 0.0
C726 C 0.67134 0.20941 0.97281 0.0
C727 C 0.67751 0.17543 0.96406 0.0
C728 C 0.68888 0.22814 0.98174 0.0
C729 C 0.7129 0.21324 0.98208 0.0
C730 C 0.71901 0.17892 0.97351 0.0
C731 C 0.7015 0.1603 0.96452 0.0
C732 C 0.73166 0.23343 0.99136 0.0
C733 C 0.74366 0.20981 0.00203 0.0
C734 C 0.73723 0.27588 0.99004 0.0
C735 C 0.72617 0.30197 0.97846 0.0
C736 C 0.7278 0.29044 0.9637 0.0
C737 C 0.71735 0.31511 0.95283 0.0
C738 C 0.70547 0.35169 0.95656 0.0
C739 C 0.70395 0.36358 0.97119 0.0
C740 C 0.71428 0.3389 0.98212 0.0
C741 C 0.82749 0.29165 0.02832 0.0
C742 C 0.82215 0.32654 0.03681 0.0
C743 C 0.80952 0.27358 0.01955 0.0
C744 C 0.78581 0.28983 0.01919 0.0
C745 C 0.78053 0.3251 0.02748 0.0
C746 C 0.79853 0.34325 0.03625 0.0
C747 C 0.76656 0.26996 0.01015 0.0
C748 C 0.75447 0.29364 0.99952 0.0
C749 C 0.76087 0.22757 0.01153 0.0
C750 C 0.77188 0.20147 0.02313 0.0
C751 C 0.77041 0.21323 0.03787 0.0
C752 C 0.78091 0.18867 0.04875 0.0
C753 C 0.79273 0.15201 0.04504 0.0
C754 C 0.7941 0.1399 0.03043 0.0
C755 C 0.78368 0.16444 0.0195 0.0
H756 H 0.80078 0.13291 0.05348 0.0
H757 H 0.69753 0.37092 0.94813 0.0
H758 H 0.70747 0.59253 0.79723 0.0
H759 H 0.73668 0.56188 0.78038 0.0
H760 H 0.67802 0.53132 0.75068 0.0
H761 H 0.64863 0.56091 0.76772 0.0
H762 H 0.70774 0.46831 0.75322 0.0
H763 H 0.71808 0.6124 0.74394 0.0
H764 H 0.7252 0.68536 0.7502 0.0
H765 H 0.79526 0.65443 0.76827 0.0
H766 H 0.78843 0.58117 0.7623 0.0
H767 H 0.78944 0.41454 0.69534 0.0
H768 H 0.75732 0.44708 0.70987 0.0
H769 H 0.81034 0.47856 0.74304 0.0
H770 H 0.84242 0.44685 0.72854 0.0
H771 H 0.78173 0.54282 0.73703 0.0
H772 H 0.77007 0.39814 0.7474 0.0
H773 H 0.76276 0.32527 0.74106 0.0
H774 H 0.69488 0.35802 0.72054 0.0
H775 H 0.70194 0.4312 0.7266 0.0
C776 C 0.70082 0.57951 0.78707 0.0
C777 C 0.67579 0.57923 0.78377 0.0
C778 C 0.71754 0.56213 0.77741 0.0
C779 C 0.70961 0.54477 0.76414 0.0
C780 C 0.68458 0.54457 0.76082 0.0
C781 C 0.66783 0.56162 0.77055 0.0
C782 C 0.72736 0.52585 0.75394 0.0
C783 C 0.72371 0.48487 0.74948 0.0
C784 C 0.74842 0.54714 0.74924 0.0
C785 C 0.75265 0.59123 0.75277 0.0
C786 C 0.73493 0.62111 0.74934 0.0
C787 C 0.73893 0.66253 0.75282 0.0
C788 C 0.76064 0.67451 0.75966 0.0
C789 C 0.77844 0.6451 0.76299 0.0
C790 C 0.77453 0.60363 0.75954 0.0
C791 C 0.79418 0.42825 0.70576 0.0
C792 C 0.81842 0.42812 0.71082 0.0
C793 C 0.77582 0.44673 0.71407 0.0
C794 C 0.78141 0.46505 0.72759 0.0
C795 C 0.80561 0.46474 0.73263 0.0
C796 C 0.82391 0.44645 0.72435 0.0
C797 C 0.76227 0.48517 0.7365 0.0
C798 C 0.76566 0.52641 0.74069 0.0
C799 C 0.74095 0.46416 0.74091 0.0
C800 C 0.73666 0.42018 0.73731 0.0
C801 C 0.75368 0.38984 0.74144 0.0
C802 C 0.74956 0.34847 0.73791 0.0
C803 C 0.7284 0.33704 0.73036 0.0
C804 C 0.71128 0.36693 0.72636 0.0
C805 C 0.71532 0.40835 0.72985 0.0
H806 H 0.72525 0.305 0.72765 0.0
H807 H 0.7637 0.70659 0.76235 0.0
H808 H 0.59804 0.02922 0.97444 0.0
H809 H 0.56749 0.99764 0.99021 0.0
H810 H 0.5125 0.07869 0.9724 0.0
H811 H 0.54307 0.11063 0.9566 0.0
H812 H 0.50998 0.07338 0.00211 0.0
H813 H 0.51479 0.98006 0.96167 0.0
H814 H 0.53516 0.93447 0.94401 0.0
H815 H 0.56105 0.85793 0.97909 0.0
H816 H 0.54112 0.90345 0.99699 0.0
H817 H 0.40513 0.97006 0.02727 0.0
H818 H 0.43658 1.00008 0.01184 0.0
H819 H 0.48983 0.91699 0.03037 0.0
H820 H 0.45823 0.88638 0.04582 0.0
H821 H 0.49391 0.92287 1.00066 0.0
H822 H 0.48855 0.0161 0.04108 0.0
H823 H 0.46774 0.06156 0.05861 0.0
H824 H 0.44266 0.13833 0.02338 0.0
H825 H 0.46303 0.09296 0.00561 0.0
C826 C 0.57945 0.04037 0.97389 0.0
C827 C 0.57292 0.07235 0.96426 0.0
C828 C 0.562 0.02217 0.98286 0.0
C829 C 0.53767 0.03551 0.98237 0.0
C830 C 0.53117 0.06787 0.97293 0.0
C831 C 0.54862 0.08602 0.96389 0.0
C832 C 0.51907 0.01584 0.99178 0.0
C833 C 0.50623 0.04056 0.00166 0.0
C834 C 0.51464 0.97284 0.99143 0.0
C835 C 0.52666 0.94542 0.98069 0.0
C836 C 0.52501 0.95372 0.96563 0.0
C837 C 0.53644 0.92785 0.95557 0.0
C838 C 0.54944 0.89338 0.96042 0.0
C839 C 0.551 0.88468 0.97535 0.0
C840 C 0.53962 0.91049 0.98546 0.0
C841 C 0.42353 0.95811 0.02808 0.0
C842 C 0.42925 0.92596 0.03781 0.0
C843 C 0.4415 0.97542 0.01928 0.0
C844 C 0.46562 0.96115 0.02008 0.0
C845 C 0.47134 0.92854 0.02961 0.0
C846 C 0.45331 0.91118 0.03845 0.0
C847 C 0.48476 0.98044 0.01096 0.0
C848 C 0.49771 0.95566 0.00113 0.0
C849 C 0.48929 0.02341 0.01134 0.0
C850 C 0.47713 0.05091 0.02201 0.0
C851 C 0.47844 0.0425 0.03706 0.0
C852 C 0.46675 0.06828 0.04704 0.0
C853 C 0.45384 0.10276 0.04211 0.0
C854 C 0.45264 0.11158 0.02719 0.0
C855 C 0.46428 0.08587 0.01716 0.0
H856 H 0.4448 0.12268 0.04986 0.0
H857 H 0.55824 0.87333 0.95262 0.0
H858 H 0.4584 0.35393 0.20108 0.0
H859 H 0.48995 0.32268 0.21659 0.0
H860 H 0.43459 0.278 0.24585 0.0
H861 H 0.40309 0.30957 0.23055 0.0
H862 H 0.47265 0.308 0.2609 0.0
H863 H 0.46033 0.21483 0.22095 0.0
H864 H 0.45736 0.19529 0.19502 0.0
H865 H 0.53216 0.2296 0.18873 0.0
H866 H 0.53541 0.2502 0.21462 0.0
H867 H 0.54216 0.15561 0.29845 0.0
H868 H 0.51141 0.18918 0.28297 0.0
H869 H 0.56821 0.23771 0.25554 0.0
H870 H 0.59899 0.20423 0.27092 0.0
H871 H 0.52992 0.20648 0.23953 0.0
H872 H 0.54184 0.29897 0.27999 0.0
H873 H 0.54398 0.31833 0.306 0.0
H874 H 0.4691 0.28339 0.31143 0.0
H875 H 0.46662 0.26324 0.28547 0.0
C876 C 0.453 0.33767 0.21087 0.0
C877 C 0.42828 0.33403 0.21456 0.0
C878 C 0.47102 0.31969 0.21969 0.0
C879 C 0.4646 0.29757 0.2323 0.0
C880 C 0.43997 0.29488 0.23618 0.0
C881 C 0.42198 0.31284 0.22739 0.0
C882 C 0.48343 0.27636 0.24129 0.0
C883 C 0.485 0.28547 0.25625 0.0
C884 C 0.49979 0.24742 0.2352 0.0
C885 C 0.49803 0.23448 0.21969 0.0
C886 C 0.4761 0.2185 0.21402 0.0
C887 C 0.47437 0.2072 0.19932 0.0
C888 C 0.49455 0.21126 0.19021 0.0
C889 C 0.51653 0.22653 0.1958 0.0
C890 C 0.51832 0.23804 0.21048 0.0
C891 C 0.54807 0.17327 0.28908 0.0
C892 C 0.57297 0.17742 0.28592 0.0
C893 C 0.5305 0.19256 0.28028 0.0
C894 C 0.53756 0.21628 0.26818 0.0
C895 C 0.56238 0.21961 0.26482 0.0
C896 C 0.57994 0.20055 0.27365 0.0
C897 C 0.51911 0.23811 0.25913 0.0
C898 C 0.51761 0.22907 0.24416 0.0
C899 C 0.50271 0.26694 0.26523 0.0
C900 C 0.50412 0.27921 0.28082 0.0
C901 C 0.52589 0.2951 0.28675 0.0
C902 C 0.52715 0.30627 0.30148 0.0
C903 C 0.50671 0.30199 0.31037 0.0
C904 C 0.48493 0.28663 0.30453 0.0
C905 C 0.48358 0.27536 0.28981 0.0
H906 H 0.50772 0.31067 0.32177 0.0
H907 H 0.49318 0.20255 0.17883 0.0
H908 H 0.45345 0.86748 0.71091 0.0
H909 H 0.48373 0.83395 0.72665 0.0
H910 H 0.43113 0.74072 0.7381 0.0
H911 H 0.40067 0.7744 0.72253 0.0
H912 H 0.45597 0.76676 0.76181 0.0
H913 H 0.47562 0.7199 0.71372 0.0
H914 H 0.4853 0.7271 0.68759 0.0
H915 H 0.54948 0.7966 0.69852 0.0
H916 H 0.53999 0.79032 0.72472 0.0
H917 H 0.54258 0.62714 0.79323 0.0
H918 H 0.5107 0.65768 0.77775 0.0
H919 H 0.56001 0.75509 0.76544 0.0
H920 H 0.59188 0.72466 0.78074 0.0
H921 H 0.53606 0.72419 0.74199 0.0
H922 H 0.51563 0.77244 0.79009 0.0
H923 H 0.50586 0.765 0.8162 0.0
H924 H 0.44305 0.69212 0.80517 0.0
H925 H 0.45265 0.69866 0.77898 0.0
C926 C 0.44833 0.83988 0.7168 0.0
C927 C 0.42473 0.82347 0.71545 0.0
C928 C 0.46567 0.82066 0.72574 0.0
C929 C 0.45977 0.78454 0.73341 0.0
C930 C 0.43608 0.76851 0.73226 0.0
C931 C 0.41873 0.78773 0.72334 0.0
C932 C 0.47833 0.76345 0.7426 0.0
C933 C 0.47335 0.7569 0.75744 0.0
C934 C 0.50115 0.75123 0.73694 0.0
C935 C 0.50696 0.75496 0.72118 0.0
C936 C 0.49169 0.737 0.71055 0.0
C937 C 0.49716 0.74087 0.69573 0.0
C938 C 0.51796 0.76239 0.6914 0.0
C939 C 0.53336 0.77999 0.70189 0.0
C940 C 0.52795 0.77625 0.71673 0.0
C941 C 0.54657 0.65508 0.78723 0.0
C942 C 0.56969 0.67357 0.78821 0.0
C943 C 0.52835 0.67255 0.77843 0.0
C944 C 0.53295 0.70883 0.77053 0.0
C945 C 0.55608 0.72709 0.77143 0.0
C946 C 0.57424 0.70972 0.78022 0.0
C947 C 0.51378 0.72783 0.76122 0.0
C948 C 0.51864 0.73393 0.74635 0.0
C949 C 0.49084 0.73955 0.76685 0.0
C950 C 0.48501 0.73566 0.78259 0.0
C951 C 0.49985 0.75453 0.79323 0.0
C952 C 0.49432 0.75054 0.80805 0.0
C953 C 0.47389 0.728 0.81234 0.0
C954 C 0.4589 0.70951 0.80183 0.0
C955 C 0.46437 0.71337 0.787 0.0
H956 H 0.46963 0.72495 0.82382 0.0
H957 H 0.52216 0.76534 0.67991 0.0
H958 H 0.40462 0.46777 0.52638 0.0
H959 H 0.43493 0.49819 0.5102 0.0
H960 H 0.48917 0.41343 0.52663 0.0
H961 H 0.45894 0.3832 0.54304 0.0
H962 H 0.50677 0.49044 0.52547 0.0
H963 H 0.46372 0.40066 0.49277 0.0
H964 H 0.42759 0.37103 0.48054 0.0
H965 H 0.41017 0.48936 0.46221 0.0
H966 H 0.44602 0.51985 0.47451 0.0
H967 H 0.596 0.52823 0.47158 0.0
H968 H 0.56528 0.49579 0.48697 0.0
H969 H 0.51146 0.58259 0.47145 0.0
H970 H 0.54215 0.61503 0.45585 0.0
H971 H 0.49367 0.5042 0.47201 0.0
H972 H 0.53666 0.59386 0.50496 0.0
H973 H 0.57285 0.62318 0.51723 0.0
H974 H 0.59046 0.50433 0.53506 0.0
H975 H 0.55454 0.47416 0.52273 0.0
C976 C 0.42297 0.45543 0.52649 0.0
C977 C 0.42941 0.42303 0.53595 0.0
C978 C 0.44025 0.47276 0.51719 0.0
C979 C 0.46426 0.45781 0.51708 0.0
C980 C 0.47073 0.4254 0.52652 0.0
C981 C 0.45344 0.40808 0.53585 0.0
C982 C 0.48275 0.47679 0.5074 0.0
C983 C 0.50407 0.49287 0.51375 0.0
C984 C 0.47895 0.48091 0.49216 0.0
C985 C 0.45744 0.46262 0.48468 0.0
C986 C 0.45208 0.42044 0.48623 0.0
C987 C 0.43167 0.40348 0.47926 0.0
C988 C 0.41656 0.42832 0.47063 0.0
C989 C 0.42188 0.47016 0.46891 0.0
C990 C 0.44225 0.48729 0.47587 0.0
C991 C 0.57763 0.54048 0.47145 0.0
C992 C 0.57149 0.57431 0.46256 0.0
C993 C 0.56011 0.52197 0.48029 0.0
C994 C 0.53614 0.53706 0.48048 0.0
C995 C 0.52987 0.57051 0.47148 0.0
C996 C 0.54742 0.58909 0.46262 0.0
C997 C 0.51767 0.51777 0.49009 0.0
C998 C 0.49636 0.50168 0.48373 0.0
C999 C 0.52149 0.51357 0.50532 0.0
C1000 C 0.54304 0.53168 0.5128 0.0
C1001 C 0.54836 0.57391 0.51141 0.0
C1002 C 0.5688 0.59069 0.51839 0.0
C1003 C 0.58398 0.56561 0.52689 0.0
C1004 C 0.5787 0.52371 0.52846 0.0
C1005 C 0.55829 0.50676 0.52148 0.0
H1006 H 0.5998 0.57867 0.53229 0.0
H1007 H 0.40077 0.41513 0.46525 0.0
H1008 H 0.12069 0.69584 0.36397 0.0
H1009 H 0.12397 0.7561 0.3799 0.0
H1010 H 0.15792 0.82448 0.34507 0.0
H1011 H 0.15571 0.7636 0.32936 0.0
H1012 H 0.179 0.84436 0.36915 0.0
H1013 H 0.09557 0.83438 0.3541 0.0
H1014 H 0.05552 0.80128 0.35047 0.0
H1015 H 0.04873 0.78443 0.39677 0.0
H1016 H 0.0889 0.81695 0.40067 0.0
H1017 H 0.14648 0.04693 0.39433 0.0
H1018 H 0.1496 0.98243 0.38051 0.0
H1019 H 0.13445 0.91314 0.41961 0.0
H1020 H 0.13178 0.97747 0.43356 0.0
H1021 H 0.10457 0.89345 0.39425 0.0
H1022 H 0.18887 0.90921 0.40832 0.0
H1023 H 0.22782 0.94668 0.4105 0.0
H1024 H 0.23121 0.95815 0.36384 0.0
H1025 H 0.19207 0.92126 0.36139 0.0
C1026 C 0.12903 0.72365 0.35977 0.0
C1027 C 0.13782 0.72517 0.34542 0.0
C1028 C 0.13076 0.75818 0.36885 0.0
C1029 C 0.1407 0.79525 0.36361 0.0
C1030 C 0.15012 0.79635 0.34938 0.0
C1031 C 0.14881 0.76157 0.34039 0.0
C1032 C 0.14079 0.83307 0.37281 0.0
C1033 C 0.16263 0.85525 0.3745 0.0
C1034 C 0.11953 0.84724 0.37997 0.0
C1035 C 0.09536 0.82769 0.37766 0.0
C1036 C 0.08561 0.82333 0.3635 0.0
C1037 C 0.06288 0.80472 0.36139 0.0
C1038 C 0.04962 0.79065 0.37338 0.0
C1039 C 0.05904 0.79527 0.3875 0.0
C1040 C 0.08178 0.81381 0.38967 0.0
C1041 C 0.14407 0.01792 0.4 0.0
C1042 C 0.13892 0.01715 0.41501 0.0
C1043 C 0.1459 0.98117 0.39211 0.0
C1044 C 0.1423 0.94313 0.39907 0.0
C1045 C 0.13732 0.94225 0.41407 0.0
C1046 C 0.1359 0.97895 0.42202 0.0
C1047 C 0.14269 0.90439 0.39053 0.0
C1048 C 0.12091 0.88224 0.38894 0.0
C1049 C 0.16383 0.89079 0.38323 0.0
C1050 C 0.18742 0.91282 0.38468 0.0
C1051 C 0.1978 0.92005 0.39853 0.0
C1052 C 0.21994 0.94111 0.39981 0.0
C1053 C 0.23195 0.95488 0.38732 0.0
C1054 C 0.22188 0.94751 0.37351 0.0
C1055 C 0.19973 0.92649 0.37217 0.0
H1056 H 0.24909 0.97117 0.38834 0.0
H1057 H 0.03202 0.77626 0.37172 0.0
H1058 H 0.15282 0.22436 0.40196 0.0
H1059 H 0.14961 0.28785 0.38778 0.0
H1060 H 0.07518 0.30287 0.40166 0.0
H1061 H 0.07824 0.23894 0.41595 0.0
H1062 H 0.08249 0.32039 0.37167 0.0
H1063 H 0.11667 0.35788 0.41815 0.0
H1064 H 0.14536 0.35176 0.43888 0.0
H1065 H 0.20544 0.37581 0.4103 0.0
H1066 H 0.17713 0.38145 0.38935 0.0
H1067 H 0.07925 0.52879 0.34594 0.0
H1068 H 0.07567 0.4668 0.36108 0.0
H1069 H 0.15291 0.4451 0.35675 0.0
H1070 H 0.15667 0.50757 0.3421 0.0
H1071 H 0.14053 0.43294 0.38361 0.0
H1072 H 0.10797 0.38995 0.33698 0.0
H1073 H 0.08034 0.39348 0.31565 0.0
H1074 H 0.01856 0.37797 0.34366 0.0
H1075 H 0.04582 0.37487 0.36518 0.0
C1076 C 0.13569 0.24094 0.40193 0.0
C1077 C 0.11582 0.22681 0.41014 0.0
C1078 C 0.13391 0.27728 0.39385 0.0
C1079 C 0.11227 0.30031 0.39383 0.0
C1080 C 0.09207 0.28557 0.40158 0.0
C1081 C 0.09386 0.24915 0.40974 0.0
C1082 C 0.11125 0.34042 0.38609 0.0
C1083 C 0.09487 0.34534 0.3744 0.0
C1084 C 0.12772 0.37258 0.38954 0.0
C1085 C 0.14478 0.36979 0.40216 0.0
C1086 C 0.13601 0.3616 0.41627 0.0
C1087 C 0.15221 0.35825 0.42806 0.0
C1088 C 0.17721 0.36332 0.4259 0.0
C1089 C 0.18607 0.37187 0.41196 0.0
C1090 C 0.16995 0.37519 0.40012 0.0
C1091 C 0.09543 0.51075 0.34825 0.0
C1092 C 0.11823 0.52298 0.34284 0.0
C1093 C 0.09336 0.47522 0.35684 0.0
C1094 C 0.11397 0.45092 0.35993 0.0
C1095 C 0.13674 0.46331 0.35455 0.0
C1096 C 0.13886 0.499 0.34615 0.0
C1097 C 0.11214 0.41278 0.36888 0.0
C1098 C 0.12797 0.40824 0.38089 0.0
C1099 C 0.0953 0.38088 0.36562 0.0
C1100 C 0.07891 0.38265 0.3527 0.0
C1101 C 0.08848 0.38761 0.3386 0.0
C1102 C 0.07289 0.38948 0.32647 0.0
C1103 C 0.04771 0.38608 0.3283 0.0
C1104 C 0.03806 0.38068 0.34226 0.0
C1105 C 0.05357 0.37884 0.35442 0.0
H1106 H 0.03567 0.38753 0.31891 0.0
H1107 H 0.18973 0.36069 0.43505 0.0
H1108 H 0.13278 0.27498 0.82213 0.0
H1109 H 0.13541 0.33696 0.8372 0.0
H1110 H 0.14529 0.26131 0.87564 0.0
H1111 H 0.14069 0.19936 0.86064 0.0
H1112 H 0.1174 0.31675 0.88278 0.0
H1113 H 0.19317 0.32196 0.85821 0.0
H1114 H 0.22174 0.3209 0.83754 0.0
H1115 H 0.18789 0.42925 0.81967 0.0
H1116 H 0.15889 0.43066 0.84014 0.0
H1117 H 0.15516 0.49038 0.92607 0.0
H1118 H 0.15895 0.42778 0.91123 0.0
H1119 H 0.11962 0.48685 0.87608 0.0
H1120 H 0.11531 0.54923 0.89094 0.0
H1121 H 0.16523 0.43987 0.86843 0.0
H1122 H 0.08851 0.42808 0.89538 0.0
H1123 H 0.06546 0.42801 0.91843 0.0
H1124 H 0.10923 0.32784 0.93449 0.0
H1125 H 0.13278 0.32776 0.91163 0.0
C1126 C 0.13569 0.27173 0.83379 0.0
C1127 C 0.13662 0.23256 0.84025 0.0
C1128 C 0.13739 0.30718 0.84241 0.0
C1129 C 0.14106 0.30413 0.8576 0.0
C1130 C 0.14242 0.26474 0.86399 0.0
C1131 C 0.13991 0.22932 0.85542 0.0
C1132 C 0.14229 0.34184 0.8669 0.0
C1133 C 0.12824 0.34326 0.87968 0.0
C1134 C 0.15632 0.37687 0.86299 0.0
C1135 C 0.17371 0.37619 0.85065 0.0
C1136 C 0.1917 0.34539 0.84982 0.0
C1137 C 0.20799 0.34476 0.83815 0.0
C1138 C 0.20659 0.37493 0.82728 0.0
C1139 C 0.18894 0.40587 0.82809 0.0
C1140 C 0.17258 0.40663 0.83973 0.0
C1141 C 0.14749 0.4901 0.91514 0.0
C1142 C 0.13485 0.52454 0.90966 0.0
C1143 C 0.14966 0.45439 0.9067 0.0
C1144 C 0.13953 0.45283 0.89261 0.0
C1145 C 0.12759 0.48761 0.88694 0.0
C1146 C 0.12506 0.52307 0.89545 0.0
C1147 C 0.14031 0.4143 0.884 0.0
C1148 C 0.15465 0.41294 0.87142 0.0
C1149 C 0.12728 0.37887 0.88834 0.0
C1150 C 0.11256 0.3782 0.90186 0.0
C1151 C 0.09331 0.40622 0.90387 0.0
C1152 C 0.08014 0.40618 0.91689 0.0
C1153 C 0.08595 0.37804 0.92794 0.0
C1154 C 0.10479 0.34967 0.92594 0.0
C1155 C 0.11803 0.34963 0.91295 0.0
H1156 H 0.07588 0.37816 0.93806 0.0
H1157 H 0.21923 0.37439 0.81825 0.0
H1158 H 0.09205 0.76423 0.92392 0.0
H1159 H 0.08927 0.82551 0.9084 0.0
H1160 H 0.13112 0.76366 0.8752 0.0
H1161 H 0.13474 0.70308 0.89091 0.0
H1162 H 0.14785 0.83634 0.87821 0.0
H1163 H 0.06762 0.78155 0.87212 0.0
H1164 H 0.02775 0.75457 0.87992 0.0
H1165 H 0.01191 0.86951 0.90109 0.0
H1166 H 0.05182 0.897 0.89357 0.0
H1167 H 0.08589 0.9959 0.82636 0.0
H1168 H 0.08333 0.93169 0.84042 0.0
H1169 H 0.13576 0.97947 0.8714 0.0
H1170 H 0.13889 0.04294 0.85722 0.0
H1171 H 0.07077 0.91072 0.86744 0.0
H1172 H 0.17355 0.90452 0.88258 0.0
H1173 H 0.21278 0.92843 0.87266 0.0
H1174 H 0.18248 0.9277 0.82931 0.0
H1175 H 0.14321 0.90313 0.83893 0.0
C1176 C 0.1005 0.76368 0.91327 0.0
C1177 C 0.11364 0.72895 0.90862 0.0
C1178 C 0.0988 0.79863 0.90436 0.0
C1179 C 0.10976 0.79914 0.89053 0.0
C1180 C 0.12256 0.76412 0.88582 0.0
C1181 C 0.12457 0.72946 0.8948 0.0
C1182 C 0.10891 0.83673 0.88122 0.0
C1183 C 0.13095 0.85245 0.87585 0.0
C1184 C 0.08686 0.85758 0.87789 0.0
C1185 C 0.0628 0.8412 0.88238 0.0
C1186 C 0.0557 0.80097 0.87852 0.0
C1187 C 0.03308 0.7856 0.88288 0.0
C1188 C 0.01733 0.81028 0.89102 0.0
C1189 C 0.02414 0.85042 0.89479 0.0
C1190 C 0.04674 0.86592 0.89047 0.0
C1191 C 0.09674 0.99273 0.83622 0.0
C1192 C 0.11279 0.02419 0.84062 0.0
C1193 C 0.09522 0.95611 0.84426 0.0
C1194 C 0.10968 0.95047 0.85682 0.0
C1195 C 0.12483 0.98273 0.86157 0.0
C1196 C 0.12655 0.01906 0.85348 0.0
C1197 C 0.10972 0.91043 0.86469 0.0
C1198 C 0.0876 0.89438 0.8698 0.0
C1199 C 0.13162 0.8886 0.86746 0.0
C1200 C 0.15537 0.90236 0.86151 0.0
C1201 C 0.17531 0.90922 0.87092 0.0
C1202 C 0.19755 0.92291 0.86535 0.0
C1203 C 0.2001 0.9297 0.85037 0.0
C1204 C 0.18047 0.92254 0.84091 0.0
C1205 C 0.15821 0.90875 0.84642 0.0
H1206 H 0.2173 0.94048 0.8461 0.0
H1207 H 0.99983 0.79832 0.89439 0.0
H1208 H 0.90628 0.26453 0.65868 0.0
H1209 H 0.90281 0.20378 0.64316 0.0
H1210 H 0.8246 0.21789 0.64197 0.0
H1211 H 0.82797 0.27823 0.65803 0.0
H1212 H 0.83563 0.13959 0.64488 0.0
H1213 H 0.86101 0.24589 0.61251 0.0
H1214 H 0.88606 0.30392 0.60382 0.0
H1215 H 0.94918 0.22572 0.60311 0.0
H1216 H 0.92459 0.16735 0.61199 0.0
H1217 H 0.82821 0.99295 0.58564 0.0
H1218 H 0.82497 0.05653 0.60005 0.0
H1219 H 0.9019 0.05065 0.60983 0.0
H1220 H 0.90526 0.98741 0.59553 0.0
H1221 H 0.88724 0.12781 0.6008 0.0
H1222 H 0.86115 0.02308 0.63506 0.0
H1223 H 0.83519 0.96568 0.64332 0.0
H1224 H 0.77178 0.0426 0.63941 0.0
H1225 H 0.79735 0.10031 0.63093 0.0
C1226 C 0.88833 0.25476 0.65511 0.0
C1227 C 0.8674 0.27631 0.65948 0.0
C1228 C 0.88637 0.22011 0.64616 0.0
C1229 C 0.86348 0.20671 0.6411 0.0
C1230 C 0.84247 0.22777 0.64566 0.0
C1231 C 0.84441 0.26226 0.6548 0.0
C1232 C 0.86169 0.1705 0.63118 0.0
C1233 C 0.84658 0.13738 0.6351 0.0
C1234 C 0.87611 0.16731 0.61845 0.0
C1235 C 0.89097 0.2023 0.61302 0.0
C1236 C 0.88026 0.24113 0.61059 0.0
C1237 C 0.89438 0.27408 0.60562 0.0
C1238 C 0.9192 0.26853 0.60294 0.0
C1239 C 0.92995 0.22998 0.60519 0.0
C1240 C 0.91593 0.19694 0.61018 0.0
C1241 C 0.84439 0.00522 0.59091 0.0
C1242 C 0.86698 0.98519 0.58948 0.0
C1243 C 0.8425 0.04143 0.59915 0.0
C1244 C 0.86319 0.05819 0.60605 0.0
C1245 C 0.88573 0.03827 0.60458 0.0
C1246 C 0.88759 0.00205 0.59644 0.0
C1247 C 0.86167 0.09676 0.61471 0.0
C1248 C 0.87611 0.13034 0.6105 0.0
C1249 C 0.84646 0.10048 0.62706 0.0
C1250 C 0.83112 0.06584 0.6322 0.0
C1251 C 0.84165 0.02764 0.63584 0.0
C1252 C 0.82701 0.99507 0.64059 0.0
C1253 C 0.80184 1.00045 0.64184 0.0
C1254 C 0.79127 0.03845 0.6384 0.0
C1255 C 0.80583 0.0711 0.63363 0.0
H1256 H 0.79054 0.9752 0.64552 0.0
H1257 H 0.9301 0.29408 0.59909 0.0
H1258 H 0.89541 0.525 0.67869 0.0
H1259 H 0.89842 0.58786 0.66394 0.0
H1260 H 0.89002 0.51589 0.62465 0.0
H1261 H 0.88639 0.45297 0.63935 0.0
H1262 H 0.92905 0.58205 0.62499 0.0
H1263 H 0.84301 0.55766 0.63397 0.0
H1264 H 0.80784 0.54436 0.64993 0.0
H1265 H 0.82198 0.65695 0.67314 0.0
H1266 H 0.85749 0.67058 0.65745 0.0
H1267 H 0.89892 0.73664 0.57312 0.0
H1268 H 0.90238 0.67485 0.58827 0.0
H1269 H 0.88353 0.74631 0.62635 0.0
H1270 H 0.8788 0.80761 0.61105 0.0
H1271 H 0.85974 0.68004 0.62739 0.0
H1272 H 0.94377 0.7084 0.61892 0.0
H1273 H 0.98064 0.72317 0.60459 0.0
H1274 H 0.97328 0.60703 0.58251 0.0
H1275 H 0.93616 0.59179 0.59657 0.0
C1276 C 0.89449 0.52253 0.6669 0.0
C1277 C 0.89058 0.48417 0.66015 0.0
C1278 C 0.89618 0.55841 0.65851 0.0
C1279 C 0.8944 0.55638 0.64324 0.0
C1280 C 0.8915 0.51796 0.63643 0.0
C1281 C 0.88934 0.48215 0.64483 0.0
C1282 C 0.89406 0.59463 0.63443 0.0
C1283 C 0.91385 0.60341 0.62535 0.0
C1284 C 0.87453 0.62287 0.63532 0.0
C1285 C 0.85306 0.61489 0.64465 0.0
C1286 C 0.83875 0.57938 0.64257 0.0
C1287 C 0.81873 0.57182 0.65154 0.0
C1288 C 0.81272 0.59973 0.66257 0.0
C1289 C 0.82668 0.63532 0.66461 0.0
C1290 C 0.84674 0.64299 0.65567 0.0
C1291 C 0.89573 0.73916 0.58475 0.0
C1292 C 0.88861 0.77687 0.59092 0.0
C1293 C 0.89785 0.70386 0.59344 0.0
C1294 C 0.89358 0.70584 0.60855 0.0
C1295 C 0.8869 0.74382 0.61474 0.0
C1296 C 0.88427 0.7789 0.606 0.0
C1297 C 0.89486 0.66806 0.61779 0.0
C1298 C 0.87515 0.65912 0.62699 0.0
C1299 C 0.91473 0.64011 0.61719 0.0
C1300 C 0.93705 0.64914 0.60871 0.0
C1301 C 0.94991 0.68615 0.61093 0.0
C1302 C 0.97087 0.69458 0.60287 0.0
C1303 C 0.97926 0.6661 0.59262 0.0
C1304 C 0.96674 0.62908 0.59044 0.0
C1305 C 0.94575 0.62051 0.59846 0.0
H1306 H 0.9955 0.67269 0.58639 0.0
H1307 H 0.79722 0.59383 0.66951 0.0
H1308 H 0.90982 0.49056 0.09173 0.0
H1309 H 0.90749 0.55328 0.10635 0.0
H1310 H 0.82917 0.54194 0.10785 0.0
H1311 H 0.83138 0.47982 0.09269 0.0
H1312 H 0.84042 0.6186 0.10333 0.0
H1313 H 0.86682 0.51769 0.13781 0.0
H1314 H 0.8922 0.46129 0.14765 0.0
H1315 H 0.95524 0.53963 0.14655 0.0
H1316 H 0.9303 0.59635 0.13651 0.0
H1317 H 0.83101 0.76598 0.16214 0.0
H1318 H 0.82919 0.7029 0.14738 0.0
H1319 H 0.90545 0.71595 0.13724 0.0
H1320 H 0.90736 0.779 0.15183 0.0
H1321 H 0.89278 0.63717 0.14722 0.0
H1322 H 0.86483 0.7375 0.11186 0.0
H1323 H 0.83808 0.79308 0.10277 0.0
H1324 H 0.77579 0.7139 0.10692 0.0
H1325 H 0.80216 0.65799 0.11623 0.0
C1326 C 0.8921 0.50132 0.09523 0.0
C1327 C 0.87079 0.48017 0.09115 0.0
C1328 C 0.89079 0.53711 0.10366 0.0
C1329 C 0.86818 0.55203 0.10846 0.0
C1330 C 0.84683 0.53101 0.10433 0.0
C1331 C 0.84811 0.49546 0.09571 0.0
C1332 C 0.8669 0.58995 0.11758 0.0
C1333 C 0.85158 0.62232 0.11307 0.0
C1334 C 0.88165 0.59518 0.13021 0.0
C1335 C 0.89671 0.56117 0.13629 0.0
C1336 C 0.88613 0.52281 0.13957 0.0
C1337 C 0.90043 0.49079 0.1452 0.0
C1338 C 0.92532 0.49684 0.14769 0.0
C1339 C 0.93596 0.53497 0.1446 0.0
C1340 C 0.92174 0.56708 0.13895 0.0
C1341 C 0.84731 0.75557 0.15665 0.0
C1342 C 0.86932 0.77741 0.15812 0.0
C1343 C 0.84624 0.71961 0.14822 0.0
C1344 C 0.86719 0.70483 0.14122 0.0
C1345 C 0.8891 0.72682 0.14258 0.0
C1346 C 0.89012 0.76292 0.15086 0.0
C1347 C 0.86661 0.66574 0.13283 0.0
C1348 C 0.88154 0.63318 0.13753 0.0
C1349 C 0.85127 0.66017 0.12052 0.0
C1350 C 0.83543 0.69373 0.11489 0.0
C1351 C 0.8454 0.73206 0.11096 0.0
C1352 C 0.83032 0.76359 0.10574 0.0
C1353 C 0.80524 0.75706 0.10431 0.0
C1354 C 0.79521 0.71893 0.10806 0.0
C1355 C 0.81022 0.68731 0.11329 0.0
H1356 H 0.79359 0.78151 0.10027 0.0
H1357 H 0.93637 0.47201 0.15205 0.0
H1358 H 0.92138 0.9723 0.15495 0.0
H1359 H 0.9242 0.03503 0.1401 0.0
H1360 H 0.85008 0.06595 0.15129 0.0
H1361 H 0.84687 0.00249 0.16539 0.0
H1362 H 0.8551 0.07882 0.12444 0.0
H1363 H 0.9036 0.1152 0.16642 0.0
H1364 H 0.93684 0.10735 0.18447 0.0
H1365 H 0.98972 0.11408 0.15019 0.0
H1366 H 0.95676 0.12146 0.13191 0.0
H1367 H 0.85084 0.28782 0.10392 0.0
H1368 H 0.8534 0.22548 0.11882 0.0
H1369 H 0.92229 0.19509 0.09913 0.0
H1370 H 0.91998 0.25788 0.08425 0.0
H1371 H 0.92215 0.18064 0.12896 0.0
H1372 H 0.87051 0.14952 0.08738 0.0
H1373 H 0.8355 0.15928 0.0707 0.0
H1374 H 0.78616 0.14566 0.10658 0.0
H1375 H 0.82087 0.13664 0.12352 0.0
C1376 C 0.90575 0.9926 0.1542 0.0
C1377 C 0.88388 0.98252 0.16126 0.0
C1378 C 0.90741 0.0286 0.14581 0.0
C1379 C 0.88745 0.05569 0.14468 0.0
C1380 C 0.86572 0.04563 0.1519 0.0
C1381 C 0.8639 0.00933 0.15999 0.0
C1382 C 0.88862 0.09383 0.13564 0.0
C1383 C 0.86964 0.10127 0.12562 0.0
C1384 C 0.90787 0.12281 0.13682 0.0
C1385 C 0.92771 0.11842 0.14779 0.0
C1386 C 0.92231 0.11469 0.16272 0.0
C1387 C 0.9411 0.11038 0.17299 0.0
C1388 C 0.96538 0.11009 0.16848 0.0
C1389 C 0.97091 0.11423 0.15367 0.0
C1390 C 0.95219 0.11851 0.14335 0.0
C1391 C 0.86664 0.26806 0.10283 0.0
C1392 C 0.88514 0.2776 0.09284 0.0
C1393 C 0.86803 0.23236 0.11132 0.0
C1394 C 0.88785 0.2053 0.10992 0.0
C1395 C 0.90679 0.21547 0.10034 0.0
C1396 C 0.90543 0.25128 0.09183 0.0
C1397 C 0.88832 0.16583 0.11814 0.0
C1398 C 0.90767 0.15806 0.12786 0.0
C1399 C 0.86914 0.13685 0.11694 0.0
C1400 C 0.84831 0.14269 0.10673 0.0
C1401 C 0.85221 0.14898 0.09173 0.0
C1402 C 0.8324 0.15432 0.08223 0.0
C1403 C 0.80863 0.15305 0.08759 0.0
C1404 C 0.80459 0.14661 0.10246 0.0
C1405 C 0.82431 0.1414 0.112 0.0
H1406 H 0.79329 0.15687 0.08026 0.0
H1407 H 0.9799 0.10675 0.17645 0.0
H1408 H 0.65401 0.76046 0.82671 0.0
H1409 H 0.65596 0.82127 0.8424 0.0
H1410 H 0.62451 0.75142 0.87772 0.0
H1411 H 0.62149 0.69107 0.86179 0.0
H1412 H 0.60344 0.82055 0.87693 0.0
H1413 H 0.68691 0.78143 0.87681 0.0
H1414 H 0.72648 0.76146 0.86635 0.0
H1415 H 0.73092 0.87788 0.8442 0.0
H1416 H 0.6912 0.89835 0.85437 0.0
H1417 H 0.66649 0.99537 0.92214 0.0
H1418 H 0.66924 0.93042 0.90864 0.0
H1419 H 0.60653 0.96527 0.88277 0.0
H1420 H 0.60334 0.0297 0.89646 0.0
H1421 H 0.6765 0.90989 0.88134 0.0
H1422 H 0.57199 0.88181 0.87526 0.0
H1423 H 0.53432 0.89716 0.88878 0.0
H1424 H 0.57534 0.90598 0.92876 0.0
H1425 H 0.61314 0.88989 0.91555 0.0
C1426 C 0.64775 0.75799 0.83787 0.0
C1427 C 0.63764 0.72104 0.84304 0.0
C1428 C 0.64897 0.79274 0.84687 0.0
C1429 C 0.64068 0.79096 0.86135 0.0
C1430 C 0.631 0.75372 0.8666 0.0
C1431 C 0.62937 0.71917 0.85751 0.0
C1432 C 0.64102 0.82839 0.87078 0.0
C1433 C 0.61947 0.83994 0.8779 0.0
C1434 C 0.66205 0.85341 0.87239 0.0
C1435 C 0.68597 0.84127 0.86626 0.0
C1436 C 0.69624 0.80266 0.86962 0.0
C1437 C 0.71871 0.79127 0.86376 0.0
C1438 C 0.73118 0.81835 0.85459 0.0
C1439 C 0.72123 0.85692 0.8513 0.0
C1440 C 0.69875 0.86845 0.85712 0.0
C1441 C 0.65335 0.98923 0.91353 0.0
C1442 C 0.63459 0.01747 0.91042 0.0
C1443 C 0.65498 0.95215 0.9058 0.0
C1444 C 0.63788 0.94265 0.89483 0.0
C1445 C 0.61964 0.97152 0.89138 0.0
C1446 C 0.6179 0.00843 0.89917 0.0
C1447 C 0.6388 0.90231 0.88715 0.0
C1448 C 0.66054 0.89031 0.88037 0.0
C1449 C 0.61821 0.8761 0.88628 0.0
C1450 C 0.59544 0.88505 0.89437 0.0
C1451 C 0.57295 0.88679 0.88695 0.0
C1452 C 0.55157 0.89563 0.89456 0.0
C1453 C 0.55244 0.90262 0.90962 0.0
C1454 C 0.57468 0.90062 0.9171 0.0
C1455 C 0.59609 0.89168 0.90955 0.0
H1456 H 0.53587 0.90953 0.91549 0.0
H1457 H 0.74858 0.80947 0.85006 0.0
H1458 H 0.65245 0.21223 0.89727 0.0
H1459 H 0.65013 0.27423 0.88216 0.0
H1460 H 0.58044 0.30415 0.90093 0.0
H1461 H 0.58251 0.24173 0.916 0.0
H1462 H 0.58094 0.31767 0.87138 0.0
H1463 H 0.63185 0.35109 0.91279 0.0
H1464 H 0.66652 0.34343 0.92983 0.0
H1465 H 0.71662 0.35697 0.89432 0.0
H1466 H 0.68224 0.36377 0.87702 0.0
H1467 H 0.58113 0.52636 0.84551 0.0
H1468 H 0.5786 0.46343 0.86026 0.0
H1469 H 0.65206 0.43162 0.84795 0.0
H1470 H 0.65496 0.49505 0.83379 0.0
H1471 H 0.64764 0.42031 0.87533 0.0
H1472 H 0.59885 0.38254 0.83362 0.0
H1473 H 0.56537 0.38989 0.81571 0.0
H1474 H 0.51294 0.38327 0.85024 0.0
H1475 H 0.54615 0.3764 0.86838 0.0
C1476 C 0.63655 0.23185 0.89813 0.0
C1477 C 0.61773 0.22224 0.90789 0.0
C1478 C 0.63529 0.26736 0.88952 0.0
C1479 C 0.61527 0.29415 0.89058 0.0
C1480 C 0.59608 0.28398 0.89998 0.0
C1481 C 0.59732 0.24838 0.9086 0.0
C1482 C 0.61473 0.33322 0.88212 0.0
C1483 C 0.59536 0.34041 0.87235 0.0
C1484 C 0.6338 0.36248 0.88318 0.0
C1485 C 0.65445 0.35763 0.89359 0.0
C1486 C 0.65025 0.352 0.90859 0.0
C1487 C 0.66986 0.34788 0.9183 0.0
C1488 C 0.69376 0.3498 0.91316 0.0
C1489 C 0.6981 0.35553 0.89829 0.0
C1490 C 0.67856 0.35948 0.88853 0.0
C1491 C 0.59667 0.5058 0.84595 0.0
C1492 C 0.61826 0.51562 0.83855 0.0
C1493 C 0.59517 0.46971 0.8543 0.0
C1494 C 0.61506 0.44242 0.85512 0.0
C1495 C 0.63649 0.45214 0.84756 0.0
C1496 C 0.63812 0.48842 0.83944 0.0
C1497 C 0.61416 0.4045 0.86427 0.0
C1498 C 0.6332 0.39764 0.87429 0.0
C1499 C 0.59498 0.37536 0.86326 0.0
C1500 C 0.575 0.3794 0.85237 0.0
C1501 C 0.58019 0.38297 0.8374 0.0
C1502 C 0.56126 0.38699 0.82721 0.0
C1503 C 0.53705 0.38717 0.83184 0.0
C1504 C 0.53171 0.3832 0.84667 0.0
C1505 C 0.55058 0.37921 0.85691 0.0
H1506 H 0.52242 0.39029 0.82392 0.0
H1507 H 0.70895 0.34704 0.92067 0.0
H1508 H 0.65632 0.26648 0.32468 0.0
H1509 H 0.65838 0.3289 0.33963 0.0
H1510 H 0.61968 0.26657 0.37408 0.0
H1511 H 0.61677 0.20472 0.35894 0.0
H1512 H 0.60124 0.33813 0.37091 0.0
H1513 H 0.68279 0.28829 0.37581 0.0
H1514 H 0.72277 0.26318 0.36747 0.0
H1515 H 0.73516 0.37772 0.34521 0.0
H1516 H 0.6951 0.40333 0.35326 0.0
H1517 H 0.66414 0.49945 0.42145 0.0
H1518 H 0.66647 0.43615 0.40698 0.0
H1519 H 0.61067 0.48276 0.37794 0.0
H1520 H 0.60783 0.54558 0.39258 0.0
H1521 H 0.67734 0.4171 0.37979 0.0
H1522 H 0.57378 0.40531 0.36714 0.0
H1523 H 0.53468 0.42577 0.37816 0.0
H1524 H 0.56799 0.4255 0.42073 0.0
H1525 H 0.60716 0.40449 0.40999 0.0
C1526 C 0.64843 0.26606 0.33549 0.0
C1527 C 0.63639 0.23077 0.34065 0.0
C1528 C 0.6497 0.3017 0.34406 0.0
C1529 C 0.63941 0.30243 0.35808 0.0
C1530 C 0.62771 0.26689 0.36331 0.0
C1531 C 0.62612 0.2315 0.35466 0.0
C1532 C 0.63994 0.34061 0.36709 0.0
C1533 C 0.61792 0.3553 0.37284 0.0
C1534 C 0.66172 0.36283 0.36987 0.0
C1535 C 0.68585 0.34758 0.36503 0.0
C1536 C 0.69396 0.30801 0.36905 0.0
C1537 C 0.71665 0.29371 0.36439 0.0
C1538 C 0.73147 0.3188 0.35578 0.0
C1539 C 0.72365 0.3583 0.35186 0.0
C1540 C 0.70097 0.37274 0.35648 0.0
C1541 C 0.65249 0.4963 0.41192 0.0
C1542 C 0.63565 0.52729 0.40821 0.0
C1543 C 0.65388 0.46016 0.40364 0.0
C1544 C 0.63848 0.4544 0.3915 0.0
C1545 C 0.62239 0.48614 0.38743 0.0
C1546 C 0.62086 0.52211 0.39576 0.0
C1547 C 0.63862 0.41469 0.3834 0.0
C1548 C 0.66071 0.39983 0.37783 0.0
C1549 C 0.61703 0.39159 0.38114 0.0
C1550 C 0.59346 0.40376 0.38773 0.0
C1551 C 0.57272 0.40948 0.37885 0.0
C1552 C 0.55056 0.42119 0.38505 0.0
C1553 C 0.54887 0.42707 0.40013 0.0
C1554 C 0.56933 0.42109 0.40905 0.0
C1555 C 0.59153 0.40933 0.40291 0.0
H1556 H 0.5317 0.43617 0.40491 0.0
H1557 H 0.74903 0.30767 0.35219 0.0
H1558 H 0.57811 0.73427 0.40992 0.0
H1559 H 0.57516 0.79755 0.39529 0.0
H1560 H 0.65358 0.80352 0.39314 0.0
H1561 H 0.65666 0.7404 0.4076 0.0
H1562 H 0.63195 0.8784 0.40078 0.0
H1563 H 0.62256 0.77116 0.36436 0.0
H1564 H 0.60313 0.70973 0.35352 0.0
H1565 H 0.535 0.77443 0.35048 0.0
H1566 H 0.55397 0.8361 0.3615 0.0
H1567 H 0.65705 0.02086 0.34544 0.0
H1568 H 0.65357 0.95967 0.36074 0.0
H1569 H 0.57578 0.95798 0.35345 0.0
H1570 H 0.57933 0.01871 0.33762 0.0
H1571 H 0.59268 0.88282 0.35184 0.0
H1572 H 0.60146 0.99134 0.38642 0.0
H1573 H 0.61957 0.05327 0.39771 0.0
H1574 H 0.68648 0.98771 0.40521 0.0
H1575 H 0.66889 0.92554 0.39378 0.0
C1576 C 0.59469 0.74905 0.40627 0.0
C1577 C 0.61761 0.73236 0.40987 0.0
C1578 C 0.59298 0.7851 0.39791 0.0
C1579 C 0.61416 0.80512 0.3931 0.0
C1580 C 0.63702 0.78857 0.39675 0.0
C1581 C 0.63874 0.75242 0.40497 0.0
C1582 C 0.61273 0.84355 0.38436 0.0
C1583 C 0.62355 0.87936 0.39002 0.0
C1584 C 0.60099 0.84507 0.37057 0.0
C1585 C 0.58961 0.80806 0.36391 0.0
C1586 C 0.60338 0.77216 0.3615 0.0
C1587 C 0.59246 0.73733 0.3553 0.0
C1588 C 0.56782 0.73813 0.35135 0.0
C1589 C 0.55407 0.77382 0.35356 0.0
C1590 C 0.5649 0.80873 0.35978 0.0
C1591 C 0.63918 0.00756 0.34712 0.0
C1592 C 0.61844 0.02472 0.3404 0.0
C1593 C 0.63718 0.97266 0.35594 0.0
C1594 C 0.61434 0.9546 0.35852 0.0
C1595 C 0.59359 0.97145 0.35169 0.0
C1596 C 0.59562 0.00619 0.34269 0.0
C1597 C 0.61238 0.91772 0.36811 0.0
C1598 C 0.60088 0.88216 0.36265 0.0
C1599 C 0.62326 0.91655 0.38219 0.0
C1600 C 0.6339 0.95385 0.38913 0.0
C1601 C 0.62009 0.9902 0.39038 0.0
C1602 C 0.63026 0.02534 0.39683 0.0
C1603 C 0.65417 0.02445 0.40215 0.0
C1604 C 0.66796 0.98837 0.40108 0.0
C1605 C 0.65789 0.95315 0.39463 0.0
H1606 H 0.66201 0.05169 0.40713 0.0
H1607 H 0.5594 0.71113 0.34655 0.0
H1608 H 0.35612 0.23197 0.17995 0.0
H1609 H 0.3544 0.1686 0.16534 0.0
H1610 H 0.36617 0.23943 0.12618 0.0
H1611 H 0.36861 0.30278 0.14075 0.0
H1612 H 0.32565 0.17544 0.12596 0.0
H1613 H 0.41173 0.19573 0.13681 0.0
H1614 H 0.4474 0.20549 0.15299 0.0
H1615 H 0.43095 0.09227 0.17512 0.0
H1616 H 0.39494 0.08218 0.15923 0.0
H1617 H 0.35364 0.021 0.07423 0.0
H1618 H 0.35119 0.08239 0.08958 0.0
H1619 H 0.36914 0.00896 0.12751 0.0
H1620 H 0.37308 0.948 0.11196 0.0
H1621 H 0.39319 0.07416 0.12938 0.0
H1622 H 0.30905 0.04977 0.11947 0.0
H1623 H 0.27228 0.03687 0.10453 0.0
H1624 H 0.28184 0.15306 0.08284 0.0
H1625 H 0.31887 0.16643 0.09751 0.0
C1626 C 0.35818 0.23404 0.16822 0.0
C1627 C 0.36252 0.27223 0.16146 0.0
C1628 C 0.35725 0.19787 0.15991 0.0
C1629 C 0.36021 0.19948 0.14472 0.0
C1630 C 0.36383 0.23769 0.1379 0.0
C1631 C 0.36527 0.27374 0.14622 0.0
C1632 C 0.36018 0.16114 0.13597 0.0
C1633 C 0.34047 0.15335 0.12655 0.0
C1634 C 0.37914 0.13187 0.1372 0.0
C1635 C 0.40048 0.13846 0.14695 0.0
C1636 C 0.41552 0.17321 0.14526 0.0
C1637 C 0.43585 0.17873 0.15434 0.0
C1638 C 0.44141 0.14953 0.16508 0.0
C1639 C 0.4266 0.11487 0.16681 0.0
C1640 C 0.40624 0.10924 0.15777 0.0
C1641 C 0.35688 0.01798 0.08586 0.0
C1642 C 0.36349 0.97979 0.09193 0.0
C1643 C 0.35531 0.05306 0.09467 0.0
C1644 C 0.35953 0.05041 0.10981 0.0
C1645 C 0.3658 0.01198 0.11588 0.0
C1646 C 0.36797 0.97711 0.10701 0.0
C1647 C 0.35856 0.08795 0.11919 0.0
C1648 C 0.37814 0.0958 0.12877 0.0
C1649 C 0.33916 0.1168 0.11834 0.0
C1650 C 0.31687 0.10893 0.10951 0.0
C1651 C 0.30341 0.07244 0.11144 0.0
C1652 C 0.2825 0.06507 0.10303 0.0
C1653 C 0.27476 0.09409 0.09272 0.0
C1654 C 0.28788 0.13059 0.09082 0.0
C1655 C 0.30881 0.13811 0.09919 0.0
H1656 H 0.25857 0.08832 0.08622 0.0
H1657 H 0.45727 0.15361 0.172 0.0
H1658 H 0.34174 0.4859 0.15582 0.0
H1659 H 0.34503 0.54719 0.14055 0.0
H1660 H 0.42313 0.54672 0.14644 0.0
H1661 H 0.41982 0.48584 0.16221 0.0
H1662 H 0.40682 0.62245 0.14853 0.0
H1663 H 0.39564 0.51438 0.11393 0.0
H1664 H 0.37641 0.45302 0.1029 0.0
H1665 H 0.30982 0.52042 0.0966 0.0
H1666 H 0.32853 0.58204 0.10778 0.0
H1667 H 0.42071 0.77119 0.09055 0.0
H1668 H 0.42352 0.70793 0.10519 0.0
H1669 H 0.3451 0.70313 0.10771 0.0
H1670 H 0.34216 0.76617 0.0932 0.0
H1671 H 0.36569 0.62816 0.10015 0.0
H1672 H 0.37733 0.73493 0.13643 0.0
H1673 H 0.39758 0.79583 0.14711 0.0
H1674 H 0.46524 0.72952 0.14939 0.0
H1675 H 0.44545 0.66837 0.13852 0.0
C1676 C 0.35964 0.49874 0.15383 0.0
C1677 C 0.38055 0.48091 0.16014 0.0
C1678 C 0.36152 0.53371 0.14503 0.0
C1679 C 0.38438 0.5512 0.14208 0.0
C1680 C 0.4053 0.53369 0.14849 0.0
C1681 C 0.4034 0.49887 0.15746 0.0
C1682 C 0.38621 0.58815 0.1325 0.0
C1683 C 0.39821 0.62339 0.13783 0.0
C1684 C 0.37476 0.58971 0.1186 0.0
C1685 C 0.36345 0.55275 0.1118 0.0
C1686 C 0.37684 0.51604 0.11028 0.0
C1687 C 0.36604 0.48122 0.10399 0.0
C1688 C 0.34189 0.4828 0.09908 0.0
C1689 C 0.32851 0.51924 0.10042 0.0
C1690 C 0.33922 0.55414 0.10671 0.0
C1691 C 0.40409 0.75668 0.09428 0.0
C1692 C 0.38122 0.77366 0.09076 0.0
C1693 C 0.40573 0.72063 0.10265 0.0
C1694 C 0.38451 0.70093 0.10757 0.0
C1695 C 0.36169 0.71781 0.10401 0.0
C1696 C 0.36006 0.75393 0.09577 0.0
C1697 C 0.38586 0.66245 0.11631 0.0
C1698 C 0.3745 0.62694 0.11079 0.0
C1699 C 0.3981 0.66056 0.12994 0.0
C1700 C 0.40998 0.69726 0.1365 0.0
C1701 C 0.39658 0.73346 0.13908 0.0
C1702 C 0.40796 0.76799 0.1452 0.0
C1703 C 0.4327 0.76659 0.14889 0.0
C1704 C 0.44609 0.73059 0.1465 0.0
C1705 C 0.4348 0.69599 0.14037 0.0
H1706 H 0.44148 0.79335 0.15362 0.0
H1707 H 0.33357 0.45581 0.09422 0.0
H1708 H 0.32799 0.76572 0.66347 0.0
H1709 H 0.32561 0.7037 0.64828 0.0
H1710 H 0.40125 0.71848 0.63675 0.0
H1711 H 0.40347 0.78106 0.65149 0.0
H1712 H 0.37674 0.69649 0.61371 0.0
H1713 H 0.38152 0.64823 0.66327 0.0
H1714 H 0.36907 0.64264 0.68902 0.0
H1715 H 0.29924 0.59576 0.67562 0.0
H1716 H 0.31117 0.60159 0.64976 0.0
H1717 H 0.40863 0.49365 0.59296 0.0
H1718 H 0.40449 0.55755 0.60689 0.0
H1719 H 0.32644 0.5422 0.60739 0.0
H1720 H 0.3304 0.47825 0.59324 0.0
H1721 H 0.34845 0.56453 0.63516 0.0
H1722 H 0.34667 0.60872 0.58507 0.0
H1723 H 0.36163 0.61215 0.55977 0.0
H1724 H 0.42898 0.66484 0.57493 0.0
H1725 H 0.41456 0.66113 0.60036 0.0
C1726 C 0.34404 0.75584 0.6576 0.0
C1727 C 0.36593 0.77814 0.6587 0.0
C1728 C 0.34271 0.72027 0.64899 0.0
C1729 C 0.36336 0.70598 0.64153 0.0
C1730 C 0.38507 0.72882 0.64239 0.0
C1731 C 0.38633 0.76457 0.65085 0.0
C1732 C 0.36263 0.66701 0.63298 0.0
C1733 C 0.37074 0.66763 0.61847 0.0
C1734 C 0.35434 0.62936 0.63905 0.0
C1735 C 0.34713 0.6258 0.65458 0.0
C1736 C 0.36344 0.63704 0.66581 0.0
C1737 C 0.35649 0.63377 0.68043 0.0
C1738 C 0.33335 0.61898 0.68395 0.0
C1739 C 0.31714 0.6073 0.67287 0.0
C1740 C 0.32399 0.61056 0.65823 0.0
C1741 C 0.39058 0.50375 0.59608 0.0
C1742 C 0.36982 0.48104 0.59198 0.0
C1743 C 0.38825 0.5403 0.60399 0.0
C1744 C 0.36516 0.55468 0.60805 0.0
C1745 C 0.34441 0.53158 0.60432 0.0
C1746 C 0.3467 0.49519 0.59622 0.0
C1747 C 0.36286 0.59416 0.61605 0.0
C1748 C 0.35421 0.59357 0.63042 0.0
C1749 C 0.37096 0.63173 0.60993 0.0
C1750 C 0.37961 0.63432 0.59463 0.0
C1751 C 0.36475 0.62073 0.58302 0.0
C1752 C 0.37311 0.62278 0.56865 0.0
C1753 C 0.39626 0.63862 0.56574 0.0
C1754 C 0.41106 0.65254 0.5772 0.0
C1755 C 0.40279 0.65051 0.59159 0.0
H1756 H 0.40271 0.64017 0.55461 0.0
H1757 H 0.32801 0.61646 0.69527 0.0
H1758 H 0.34643 0.27564 0.59872 0.0
H1759 H 0.34906 0.21464 0.61419 0.0
H1760 H 0.42719 0.21279 0.60903 0.0
H1761 H 0.42451 0.2733 0.59304 0.0
H1762 H 0.41032 0.13814 0.60633 0.0
H1763 H 0.39954 0.24418 0.64158 0.0
H1764 H 0.3808 0.30531 0.65291 0.0
H1765 H 0.31351 0.2394 0.65789 0.0
H1766 H 0.33173 0.17802 0.64641 0.0
H1767 H 0.42142 0.98547 0.66334 0.0
H1768 H 0.42517 0.04984 0.64943 0.0
H1769 H 0.34695 0.05582 0.64496 0.0
H1770 H 0.34308 0.99157 0.65871 0.0
H1771 H 0.36813 0.13023 0.654 0.0
H1772 H 0.37948 0.02585 0.61686 0.0
H1773 H 0.39938 0.96514 0.60597 0.0
H1774 H 0.46778 0.02945 0.60554 0.0
H1775 H 0.44832 0.09038 0.61663 0.0
C1776 C 0.36421 0.26245 0.60095 0.0
C1777 C 0.38529 0.27936 0.59472 0.0
C1778 C 0.36571 0.22765 0.60988 0.0
C1779 C 0.38838 0.20944 0.61302 0.0
C1780 C 0.4095 0.22635 0.60682 0.0
C1781 C 0.40797 0.26099 0.59773 0.0
C1782 C 0.38975 0.17194 0.62235 0.0
C1783 C 0.4015 0.13673 0.61689 0.0
C1784 C 0.378 0.16976 0.63606 0.0
C1785 C 0.36697 0.20658 0.64303 0.0
C1786 C 0.3807 0.2428 0.645 0.0
C1787 C 0.37017 0.27749 0.65146 0.0
C1788 C 0.34597 0.27626 0.65609 0.0
C1789 C 0.33226 0.24031 0.6543 0.0
C1790 C 0.34268 0.20554 0.64783 0.0
C1791 C 0.40506 1.00048 0.65934 0.0
C1792 C 0.38196 0.98347 0.66207 0.0
C1793 C 0.40723 0.03716 0.65139 0.0
C1794 C 0.38633 0.0575 0.64615 0.0
C1795 C 0.36329 0.04062 0.64893 0.0
C1796 C 0.36112 0.00383 0.65673 0.0
C1797 C 0.38828 0.09656 0.63783 0.0
C1798 C 0.37718 0.13198 0.64352 0.0
C1799 C 0.40084 0.09904 0.62443 0.0
C1800 C 0.41251 0.06248 0.61773 0.0
C1801 C 0.39881 0.02691 0.61457 0.0
C1802 C 0.41 0.99249 0.60833 0.0
C1803 C 0.43485 0.99339 0.60511 0.0
C1804 C 0.44854 0.02877 0.60807 0.0
C1805 C 0.43744 0.06326 0.61432 0.0
H1806 H 0.44348 0.96672 0.60028 0.0
H1807 H 0.33786 0.30315 0.66109 0.0
loop_
_geom_bond_atom_site_label_1
_geom_bond_atom_site_label_2
_geom_bond_distance
_geom_bond_site_symmetry_2
_ccdc_geom_bond_type
In0 O1 2.294 . S
In0 O2 2.326 . S
In0 O6 2.266 . S
In0 O7 2.326 . S
In0 O8 2.266 . S
In0 O9 2.326 . S
In0 O11 2.294 . S
In0 O12 2.326 . S
O1 In0 2.294 . S
O1 C10 1.240 . S
O2 In0 2.326 . S
O2 C10 1.252 . S
C3 O6 1.252 . S
C3 O7 1.260 . S
C4 O11 1.240 . S
C4 O12 1.252 . S
C5 O8 1.252 . S
C5 O9 1.260 . S
O6 In0 2.266 . S
O6 C3 1.252 . S
O7 In0 2.326 . S
O7 C3 1.260 . S
O8 In0 2.266 . S
O8 C5 1.252 . S
O9 In0 2.326 . S
O9 C5 1.260 . S
C10 O1 1.240 . S
C10 O2 1.252 . S
O11 In0 2.294 . S
O11 C4 1.240 . S
O12 In0 2.326 . S
O12 C4 1.252 . S
In13 O14 2.294 . S
In13 O15 2.326 . S
In13 O19 2.266 . S
In13 O20 2.326 . S
In13 O21 2.266 . S
In13 O22 2.326 . S
In13 O24 2.294 . S
In13 O25 2.326 . S
O14 In13 2.294 . S
O14 C23 1.240 . S
O15 In13 2.326 . S
O15 C23 1.252 . S
C16 O19 1.252 . S
C16 O20 1.260 . S
C17 O24 1.240 . S
C17 O25 1.252 . S
C18 O21 1.252 . S
C18 O22 1.260 . S
O19 In13 2.266 . S
O19 C16 1.252 . S
O20 In13 2.326 . S
O20 C16 1.260 . S
O21 In13 2.266 . S
O21 C18 1.252 . S
O22 In13 2.326 . S
O22 C18 1.260 . S
C23 O14 1.240 . S
C23 O15 1.252 . S
O24 In13 2.294 . S
O24 C17 1.240 . S
O25 In13 2.326 . S
O25 C17 1.252 . S
In26 O27 2.294 . S
In26 O28 2.326 . S
In26 O32 2.266 . S
In26 O33 2.326 . S
In26 O34 2.266 . S
In26 O35 2.326 . S
In26 O37 2.294 . S
In26 O38 2.326 . S
O27 In26 2.294 . S
O27 C36 1.240 . S
O28 In26 2.326 . S
O28 C36 1.252 . S
C29 O32 1.252 . S
C29 O33 1.260 . S
C30 O37 1.240 . S
C30 O38 1.252 . S
C31 O34 1.252 . S
C31 O35 1.260 . S
O32 In26 2.266 . S
O32 C29 1.252 . S
O33 In26 2.326 . S
O33 C29 1.260 . S
O34 In26 2.266 . S
O34 C31 1.252 . S
O35 In26 2.326 . S
O35 C31 1.260 . S
C36 O27 1.240 . S
C36 O28 1.252 . S
O37 In26 2.294 . S
O37 C30 1.240 . S
O38 In26 2.326 . S
O38 C30 1.252 . S
In39 O40 2.294 . S
In39 O41 2.326 . S
In39 O45 2.266 . S
In39 O46 2.326 . S
In39 O47 2.266 . S
In39 O48 2.326 . S
In39 O50 2.294 . S
In39 O51 2.326 . S
O40 In39 2.294 . S
O40 C49 1.240 . S
O41 In39 2.326 . S
O41 C49 1.252 . S
C42 O45 1.252 . S
C42 O46 1.260 . S
C43 O50 1.240 . S
C43 O51 1.252 . S
C44 O47 1.252 . S
C44 O48 1.260 . S
O45 In39 2.266 . S
O45 C42 1.252 . S
O46 In39 2.326 . S
O46 C42 1.260 . S
O47 In39 2.266 . S
O47 C44 1.252 . S
O48 In39 2.326 . S
O48 C44 1.260 . S
C49 O40 1.240 . S
C49 O41 1.252 . S
O50 In39 2.294 . S
O50 C43 1.240 . S
O51 In39 2.326 . S
O51 C43 1.252 . S
In52 O53 2.294 . S
In52 O54 2.326 . S
In52 O58 2.266 . S
In52 O59 2.326 . S
In52 O60 2.266 . S
In52 O61 2.326 . S
In52 O63 2.294 . S
In52 O64 2.326 . S
O53 In52 2.294 . S
O53 C62 1.240 . S
O54 In52 2.326 . S
O54 C62 1.252 . S
C55 O58 1.252 . S
C55 O59 1.260 . S
C56 O63 1.240 . S
C56 O64 1.252 . S
C57 O60 1.252 . S
C57 O61 1.260 . S
O58 In52 2.266 . S
O58 C55 1.252 . S
O59 In52 2.326 . S
O59 C55 1.260 . S
O60 In52 2.266 . S
O60 C57 1.252 . S
O61 In52 2.326 . S
O61 C57 1.260 . S
C62 O53 1.240 . S
C62 O54 1.252 . S
O63 In52 2.294 . S
O63 C56 1.240 . S
O64 In52 2.326 . S
O64 C56 1.252 . S
In65 O66 2.294 . S
In65 O67 2.326 . S
In65 O71 2.266 . S
In65 O72 2.326 . S
In65 O73 2.266 . S
In65 O74 2.326 . S
In65 O76 2.294 . S
In65 O77 2.326 . S
O66 In65 2.294 . S
O66 C75 1.240 . S
O67 In65 2.326 . S
O67 C75 1.252 . S
C68 O71 1.252 . S
C68 O72 1.260 . S
C69 O76 1.240 . S
C69 O77 1.252 . S
C70 O73 1.252 . S
C70 O74 1.260 . S
O71 In65 2.266 . S
O71 C68 1.252 . S
O72 In65 2.326 . S
O72 C68 1.260 . S
O73 In65 2.266 . S
O73 C70 1.252 . S
O74 In65 2.326 . S
O74 C70 1.260 . S
C75 O66 1.240 . S
C75 O67 1.252 . S
O76 In65 2.294 . S
O76 C69 1.240 . S
O77 In65 2.326 . S
O77 C69 1.252 . S
In78 O79 2.294 . S
In78 O80 2.326 . S
In78 O84 2.266 . S
In78 O85 2.326 . S
In78 O86 2.266 . S
In78 O87 2.326 . S
In78 O89 2.294 . S
In78 O90 2.326 . S
O79 In78 2.294 . S
O79 C88 1.240 . S
O80 In78 2.326 . S
O80 C88 1.252 . S
C81 O84 1.252 . S
C81 O85 1.260 . S
C82 O89 1.240 . S
C82 O90 1.252 . S
C83 O86 1.252 . S
C83 O87 1.260 . S
O84 In78 2.266 . S
O84 C81 1.252 . S
O85 In78 2.326 . S
O85 C81 1.260 . S
O86 In78 2.266 . S
O86 C83 1.252 . S
O87 In78 2.326 . S
O87 C83 1.260 . S
C88 O79 1.240 . S
C88 O80 1.252 . S
O89 In78 2.294 . S
O89 C82 1.240 . S
O90 In78 2.326 . S
O90 C82 1.252 . S
In91 O92 2.294 . S
In91 O93 2.326 . S
In91 O97 2.266 . S
In91 O98 2.326 . S
In91 O99 2.266 . S
In91 O100 2.326 . S
In91 O102 2.294 . S
In91 O103 2.326 . S
O92 In91 2.294 . S
O92 C101 1.240 . S
O93 In91 2.326 . S
O93 C101 1.252 . S
C94 O97 1.252 . S
C94 O98 1.260 . S
C95 O102 1.240 . S
C95 O103 1.252 . S
C96 O99 1.252 . S
C96 O100 1.260 . S
O97 In91 2.266 . S
O97 C94 1.252 . S
O98 In91 2.326 . S
O98 C94 1.260 . S
O99 In91 2.266 . S
O99 C96 1.252 . S
O100 In91 2.326 . S
O100 C96 1.260 . S
C101 O92 1.240 . S
C101 O93 1.252 . S
O102 In91 2.294 . S
O102 C95 1.240 . S
O103 In91 2.326 . S
O103 C95 1.252 . S
In104 O105 2.294 . S
In104 O106 2.326 . S
In104 O110 2.266 . S
In104 O111 2.326 . S
In104 O112 2.266 . S
In104 O113 2.326 . S
In104 O115 2.294 . S
In104 O116 2.326 . S
O105 In104 2.294 . S
O105 C114 1.240 . S
O106 In104 2.326 . S
O106 C114 1.252 . S
C107 O110 1.252 . S
C107 O111 1.260 . S
C108 O115 1.240 . S
C108 O116 1.252 . S
C109 O112 1.252 . S
C109 O113 1.260 . S
O110 In104 2.266 . S
O110 C107 1.252 . S
O111 In104 2.326 . S
O111 C107 1.260 . S
O112 In104 2.266 . S
O112 C109 1.252 . S
O113 In104 2.326 . S
O113 C109 1.260 . S
C114 O105 1.240 . S
C114 O106 1.252 . S
O115 In104 2.294 . S
O115 C108 1.240 . S
O116 In104 2.326 . S
O116 C108 1.252 . S
In117 O118 2.294 . S
In117 O119 2.326 . S
In117 O123 2.266 . S
In117 O124 2.326 . S
In117 O125 2.266 . S
In117 O126 2.326 . S
In117 O128 2.294 . S
In117 O129 2.326 . S
O118 In117 2.294 . S
O118 C127 1.240 . S
O119 In117 2.326 . S
O119 C127 1.252 . S
C120 O123 1.252 . S
C120 O124 1.260 . S
C121 O128 1.240 . S
C121 O129 1.252 . S
C122 O125 1.252 . S
C122 O126 1.260 . S
O123 In117 2.266 . S
O123 C120 1.252 . S
O124 In117 2.326 . S
O124 C120 1.260 . S
O125 In117 2.266 . S
O125 C122 1.252 . S
O126 In117 2.326 . S
O126 C122 1.260 . S
C127 O118 1.240 . S
C127 O119 1.252 . S
O128 In117 2.294 . S
O128 C121 1.240 . S
O129 In117 2.326 . S
O129 C121 1.252 . S
In130 O131 2.294 . S
In130 O132 2.326 . S
In130 O136 2.266 . S
In130 O137 2.326 . S
In130 O138 2.266 . S
In130 O139 2.326 . S
In130 O141 2.294 . S
In130 O142 2.326 . S
O131 In130 2.294 . S
O131 C140 1.240 . S
O132 In130 2.326 . S
O132 C140 1.252 . S
C133 O136 1.252 . S
C133 O137 1.260 . S
C134 O141 1.240 . S
C134 O142 1.252 . S
C135 O138 1.252 . S
C135 O139 1.260 . S
O136 In130 2.266 . S
O136 C133 1.252 . S
O137 In130 2.326 . S
O137 C133 1.260 . S
O138 In130 2.266 . S
O138 C135 1.252 . S
O139 In130 2.326 . S
O139 C135 1.260 . S
C140 O131 1.240 . S
C140 O132 1.252 . S
O141 In130 2.294 . S
O141 C134 1.240 . S
O142 In130 2.326 . S
O142 C134 1.252 . S
In143 O144 2.294 . S
In143 O145 2.326 . S
In143 O149 2.266 . S
In143 O150 2.326 . S
In143 O151 2.266 . S
In143 O152 2.326 . S
In143 O154 2.294 . S
In143 O155 2.326 . S
O144 In143 2.294 . S
O144 C153 1.240 . S
O145 In143 2.326 . S
O145 C153 1.252 . S
C146 O149 1.252 . S
C146 O150 1.260 . S
C147 O154 1.240 . S
C147 O155 1.252 . S
C148 O151 1.252 . S
C148 O152 1.260 . S
O149 In143 2.266 . S
O149 C146 1.252 . S
O150 In143 2.326 . S
O150 C146 1.260 . S
O151 In143 2.266 . S
O151 C148 1.252 . S
O152 In143 2.326 . S
O152 C148 1.260 . S
C153 O144 1.240 . S
C153 O145 1.252 . S
O154 In143 2.294 . S
O154 C147 1.240 . S
O155 In143 2.326 . S
O155 C147 1.252 . S
In156 O157 2.294 . S
In156 O158 2.326 . S
In156 O162 2.266 . S
In156 O163 2.326 . S
In156 O164 2.266 . S
In156 O165 2.326 . S
In156 O167 2.294 . S
In156 O168 2.326 . S
O157 In156 2.294 . S
O157 C166 1.240 . S
O158 In156 2.326 . S
O158 C166 1.252 . S
C159 O162 1.252 . S
C159 O163 1.260 . S
C160 O167 1.240 . S
C160 O168 1.252 . S
C161 O164 1.252 . S
C161 O165 1.260 . S
O162 In156 2.266 . S
O162 C159 1.252 . S
O163 In156 2.326 . S
O163 C159 1.260 . S
O164 In156 2.266 . S
O164 C161 1.252 . S
O165 In156 2.326 . S
O165 C161 1.260 . S
C166 O157 1.240 . S
C166 O158 1.252 . S
O167 In156 2.294 . S
O167 C160 1.240 . S
O168 In156 2.326 . S
O168 C160 1.252 . S
In169 O170 2.294 . S
In169 O171 2.326 . S
In169 O175 2.266 . S
In169 O176 2.326 . S
In169 O177 2.266 . S
In169 O178 2.326 . S
In169 O180 2.294 . S
In169 O181 2.326 . S
O170 In169 2.294 . S
O170 C179 1.240 . S
O171 In169 2.326 . S
O171 C179 1.252 . S
C172 O175 1.252 . S
C172 O176 1.260 . S
C173 O180 1.240 . S
C173 O181 1.252 . S
C174 O177 1.252 . S
C174 O178 1.260 . S
O175 In169 2.266 . S
O175 C172 1.252 . S
O176 In169 2.326 . S
O176 C172 1.260 . S
O177 In169 2.266 . S
O177 C174 1.252 . S
O178 In169 2.326 . S
O178 C174 1.260 . S
C179 O170 1.240 . S
C179 O171 1.252 . S
O180 In169 2.294 . S
O180 C173 1.240 . S
O181 In169 2.326 . S
O181 C173 1.252 . S
In182 O183 2.294 . S
In182 O184 2.326 . S
In182 O188 2.266 . S
In182 O189 2.326 . S
In182 O190 2.266 . S
In182 O191 2.326 . S
In182 O193 2.294 . S
In182 O194 2.326 . S
O183 In182 2.294 . S
O183 C192 1.240 . S
O184 In182 2.326 . S
O184 C192 1.252 . S
C185 O188 1.252 . S
C185 O189 1.260 . S
C186 O193 1.240 . S
C186 O194 1.252 . S
C187 O190 1.252 . S
C187 O191 1.260 . S
O188 In182 2.266 . S
O188 C185 1.252 . S
O189 In182 2.326 . S
O189 C185 1.260 . S
O190 In182 2.266 . S
O190 C187 1.252 . S
O191 In182 2.326 . S
O191 C187 1.260 . S
C192 O183 1.240 . S
C192 O184 1.252 . S
O193 In182 2.294 . S
O193 C186 1.240 . S
O194 In182 2.326 . S
O194 C186 1.252 . S
In195 O196 2.294 . S
In195 O197 2.326 . S
In195 O201 2.266 . S
In195 O202 2.326 . S
In195 O203 2.266 . S
In195 O204 2.326 . S
In195 O206 2.294 . S
In195 O207 2.326 . S
O196 In195 2.294 . S
O196 C205 1.240 . S
O197 In195 2.326 . S
O197 C205 1.252 . S
C198 O201 1.252 . S
C198 O202 1.260 . S
C199 O206 1.240 . S
C199 O207 1.252 . S
C200 O203 1.252 . S
C200 O204 1.260 . S
O201 In195 2.266 . S
O201 C198 1.252 . S
O202 In195 2.326 . S
O202 C198 1.260 . S
O203 In195 2.266 . S
O203 C200 1.252 . S
O204 In195 2.326 . S
O204 C200 1.260 . S
C205 O196 1.240 . S
C205 O197 1.252 . S
O206 In195 2.294 . S
O206 C199 1.240 . S
O207 In195 2.326 . S
O207 C199 1.252 . S
H208 C226 0.951 . S
H209 C228 0.951 . S
H210 C230 0.950 . S
H211 C231 0.950 . S
H212 C233 0.950 . S
H213 C236 0.950 . S
H214 C237 0.950 . S
H215 C239 0.950 . S
H216 C240 0.950 . S
H217 C241 0.951 . S
H218 C243 0.951 . S
H219 C245 0.950 . S
H220 C246 0.950 . S
H221 C248 0.950 . S
H222 C251 0.950 . S
H223 C252 0.950 . S
H224 C254 0.950 . S
H225 C255 0.950 . S
C226 H208 0.951 . S
C226 C227 1.366 . S
C226 C228 1.388 . S
C227 C226 1.366 . S
C227 C231 1.385 . S
C228 H209 0.951 . S
C228 C226 1.388 . S
C228 C229 1.366 . S
C229 C228 1.366 . S
C229 C230 1.414 . S
C229 C232 1.499 . S
C230 H210 0.950 . S
C230 C229 1.414 . S
C230 C231 1.374 . S
C231 H211 0.950 . S
C231 C227 1.385 . S
C231 C230 1.374 . S
C232 C229 1.499 . S
C232 C233 1.373 . S
C232 C234 1.389 . S
C233 H212 0.950 . S
C233 C232 1.373 . S
C233 C249 1.377 . S
C234 C232 1.389 . S
C234 C235 1.524 . S
C234 C248 1.377 . S
C235 C234 1.524 . S
C235 C236 1.397 . S
C235 C240 1.363 . S
C236 H213 0.950 . S
C236 C235 1.397 . S
C236 C237 1.334 . S
C237 H214 0.950 . S
C237 C236 1.334 . S
C237 C238 1.287 . S
C238 C237 1.287 . S
C238 C239 1.524 . S
C238 H257 0.913 . S
C239 H215 0.950 . S
C239 C238 1.524 . S
C239 C240 1.415 . S
C240 H216 0.950 . S
C240 C235 1.363 . S
C240 C239 1.415 . S
C241 H217 0.951 . S
C241 C242 1.366 . S
C241 C243 1.388 . S
C242 C241 1.366 . S
C242 C246 1.385 . S
C243 H218 0.951 . S
C243 C241 1.388 . S
C243 C244 1.366 . S
C244 C243 1.366 . S
C244 C245 1.414 . S
C244 C247 1.499 . S
C245 H219 0.950 . S
C245 C244 1.414 . S
C245 C246 1.374 . S
C246 H220 0.950 . S
C246 C242 1.385 . S
C246 C245 1.374 . S
C247 C244 1.499 . S
C247 C248 1.373 . S
C247 C249 1.389 . S
C248 H221 0.950 . S
C248 C234 1.377 . S
C248 C247 1.373 . S
C249 C233 1.377 . S
C249 C247 1.389 . S
C249 C250 1.524 . S
C250 C249 1.524 . S
C250 C251 1.397 . S
C250 C255 1.363 . S
C251 H222 0.950 . S
C251 C250 1.397 . S
C251 C252 1.334 . S
C252 H223 0.950 . S
C252 C251 1.334 . S
C252 C253 1.287 . S
C253 C252 1.287 . S
C253 C254 1.524 . S
C253 H256 0.999 . S
C254 H224 0.950 . S
C254 C253 1.524 . S
C254 C255 1.415 . S
C255 H225 0.950 . S
C255 C250 1.363 . S
C255 C254 1.415 . S
H256 C253 0.999 . S
H257 C238 0.913 . S
H258 C276 0.951 . S
H259 C278 0.951 . S
H260 C280 0.950 . S
H261 C281 0.950 . S
H262 C283 0.950 . S
H263 C286 0.950 . S
H264 C287 0.950 . S
H265 C289 0.950 . S
H266 C290 0.950 1_455 S
H267 C291 0.951 . S
H268 C293 0.951 . S
H269 C295 0.950 . S
H270 C296 0.950 . S
H271 C298 0.950 . S
H272 C301 0.950 . S
H273 C302 0.950 . S
H274 C304 0.950 . S
H275 C305 0.950 1_655 S
C276 H258 0.951 . S
C276 C277 1.366 . S
C276 C278 1.388 . S
C277 C276 1.366 . S
C277 C281 1.385 . S
C278 H259 0.951 . S
C278 C276 1.388 . S
C278 C279 1.366 . S
C279 C278 1.366 . S
C279 C280 1.414 . S
C279 C282 1.499 . S
C280 H260 0.950 . S
C280 C279 1.414 . S
C280 C281 1.374 . S
C281 H261 0.950 . S
C281 C277 1.385 . S
C281 C280 1.374 . S
C282 C279 1.499 . S
C282 C283 1.373 . S
C282 C284 1.389 1_565 S
C283 H262 0.950 . S
C283 C282 1.373 . S
C283 C299 1.377 1_655 S
C284 C282 1.389 1_545 S
C284 C285 1.524 . S
C284 C298 1.377 1_655 S
C285 C284 1.524 . S
C285 C286 1.397 . S
C285 C290 1.363 . S
C286 H263 0.950 . S
C286 C285 1.397 . S
C286 C287 1.334 . S
C287 H264 0.950 . S
C287 C286 1.334 . S
C287 C288 1.287 . S
C288 C287 1.287 . S
C288 C289 1.524 . S
C288 H307 0.913 . S
C289 H265 0.950 . S
C289 C288 1.524 . S
C289 C290 1.415 . S
C290 H266 0.950 1_655 S
C290 C285 1.363 . S
C290 C289 1.415 . S
C291 H267 0.951 . S
C291 C292 1.366 . S
C291 C293 1.388 . S
C292 C291 1.366 . S
C292 C296 1.385 . S
C293 H268 0.951 . S
C293 C291 1.388 . S
C293 C294 1.366 . S
C294 C293 1.366 . S
C294 C295 1.414 . S
C294 C297 1.499 . S
C295 H269 0.950 . S
C295 C294 1.414 . S
C295 C296 1.374 . S
C296 H270 0.950 . S
C296 C292 1.385 . S
C296 C295 1.374 . S
C297 C294 1.499 . S
C297 C298 1.373 . S
C297 C299 1.389 1_545 S
C298 H271 0.950 . S
C298 C284 1.377 1_455 S
C298 C297 1.373 . S
C299 C283 1.377 1_455 S
C299 C297 1.389 1_565 S
C299 C300 1.524 . S
C300 C299 1.524 . S
C300 C301 1.397 . S
C300 C305 1.363 . S
C301 H272 0.950 . S
C301 C300 1.397 . S
C301 C302 1.334 . S
C302 H273 0.950 . S
C302 C301 1.334 . S
C302 C303 1.287 . S
C303 C302 1.287 . S
C303 C304 1.524 . S
C303 H306 0.999 . S
C304 H274 0.950 . S
C304 C303 1.524 . S
C304 C305 1.415 . S
C305 H275 0.950 1_455 S
C305 C300 1.363 . S
C305 C304 1.415 . S
H306 C303 0.999 . S
H307 C288 0.913 . S
H308 C326 0.951 . S
H309 C328 0.951 . S
H310 C330 0.950 . S
H311 C331 0.950 . S
H312 C333 0.950 . S
H313 C336 0.950 . S
H314 C337 0.950 . S
H315 C339 0.950 . S
H316 C340 0.950 . S
H317 C341 0.951 . S
H318 C343 0.951 . S
H319 C345 0.950 . S
H320 C346 0.950 . S
H321 C348 0.950 . S
H322 C351 0.950 . S
H323 C352 0.950 . S
H324 C354 0.950 . S
H325 C355 0.950 . S
C326 H308 0.951 . S
C326 C327 1.366 . S
C326 C328 1.388 . S
C327 C326 1.366 . S
C327 C331 1.385 . S
C328 H309 0.951 . S
C328 C326 1.388 . S
C328 C329 1.366 . S
C329 C328 1.366 . S
C329 C330 1.414 . S
C329 C332 1.499 . S
C330 H310 0.950 . S
C330 C329 1.414 . S
C330 C331 1.374 . S
C331 H311 0.950 . S
C331 C327 1.385 . S
C331 C330 1.374 . S
C332 C329 1.499 . S
C332 C333 1.373 . S
C332 C334 1.389 1_565 S
C333 H312 0.950 . S
C333 C332 1.373 . S
C333 C349 1.377 . S
C334 C332 1.389 1_545 S
C334 C335 1.524 . S
C334 C348 1.377 . S
C335 C334 1.524 . S
C335 C336 1.397 . S
C335 C340 1.363 . S
C336 H313 0.950 . S
C336 C335 1.397 . S
C336 C337 1.334 . S
C337 H314 0.950 . S
C337 C336 1.334 . S
C337 C338 1.287 . S
C338 C337 1.287 . S
C338 C339 1.524 . S
C338 H357 0.913 . S
C339 H315 0.950 . S
C339 C338 1.524 . S
C339 C340 1.415 . S
C340 H316 0.950 . S
C340 C335 1.363 . S
C340 C339 1.415 . S
C341 H317 0.951 . S
C341 C342 1.366 . S
C341 C343 1.388 . S
C342 C341 1.366 . S
C342 C346 1.385 . S
C343 H318 0.951 . S
C343 C341 1.388 . S
C343 C344 1.366 . S
C344 C343 1.366 . S
C344 C345 1.414 . S
C344 C347 1.499 . S
C345 H319 0.950 . S
C345 C344 1.414 . S
C345 C346 1.374 . S
C346 H320 0.950 . S
C346 C342 1.385 . S
C346 C345 1.374 . S
C347 C344 1.499 . S
C347 C348 1.373 . S
C347 C349 1.389 1_545 S
C348 H321 0.950 . S
C348 C334 1.377 . S
C348 C347 1.373 . S
C349 C333 1.377 . S
C349 C347 1.389 1_565 S
C349 C350 1.524 . S
C350 C349 1.524 . S
C350 C351 1.397 . S
C350 C355 1.363 . S
C351 H322 0.950 . S
C351 C350 1.397 . S
C351 C352 1.334 . S
C352 H323 0.950 . S
C352 C351 1.334 . S
C352 C353 1.287 . S
C353 C352 1.287 . S
C353 C354 1.524 . S
C353 H356 0.999 . S
C354 H324 0.950 . S
C354 C353 1.524 . S
C354 C355 1.415 . S
C355 H325 0.950 . S
C355 C350 1.363 . S
C355 C354 1.415 . S
H356 C353 0.999 . S
H357 C338 0.913 . S
H358 C376 0.951 . S
H359 C378 0.951 . S
H360 C380 0.950 . S
H361 C381 0.950 . S
H362 C383 0.950 . S
H363 C386 0.950 . S
H364 C387 0.950 . S
H365 C389 0.950 . S
H366 C390 0.950 . S
H367 C391 0.951 . S
H368 C393 0.951 . S
H369 C395 0.950 . S
H370 C396 0.950 . S
H371 C398 0.950 . S
H372 C401 0.950 . S
H373 C402 0.950 . S
H374 C404 0.950 . S
H375 C405 0.950 . S
C376 H358 0.951 . S
C376 C377 1.366 . S
C376 C378 1.388 . S
C377 C376 1.366 . S
C377 C381 1.385 . S
C378 H359 0.951 . S
C378 C376 1.388 . S
C378 C379 1.366 . S
C379 C378 1.366 . S
C379 C380 1.414 . S
C379 C382 1.499 . S
C380 H360 0.950 . S
C380 C379 1.414 . S
C380 C381 1.374 . S
C381 H361 0.950 . S
C381 C377 1.385 . S
C381 C380 1.374 . S
C382 C379 1.499 . S
C382 C383 1.373 1_455 S
C382 C384 1.389 . S
C383 H362 0.950 . S
C383 C382 1.373 1_655 S
C383 C399 1.377 . S
C384 C382 1.389 . S
C384 C385 1.524 . S
C384 C398 1.377 . S
C385 C384 1.524 . S
C385 C386 1.397 . S
C385 C390 1.363 . S
C386 H363 0.950 . S
C386 C385 1.397 . S
C386 C387 1.334 . S
C387 H364 0.950 . S
C387 C386 1.334 . S
C387 C388 1.287 . S
C388 C387 1.287 . S
C388 C389 1.524 . S
C388 H407 0.913 . S
C389 H365 0.950 . S
C389 C388 1.524 . S
C389 C390 1.415 . S
C390 H366 0.950 . S
C390 C385 1.363 . S
C390 C389 1.415 . S
C391 H367 0.951 . S
C391 C392 1.366 . S
C391 C393 1.388 . S
C392 C391 1.366 . S
C392 C396 1.385 . S
C393 H368 0.951 . S
C393 C391 1.388 . S
C393 C394 1.366 . S
C394 C393 1.366 . S
C394 C395 1.414 . S
C394 C397 1.499 . S
C395 H369 0.950 . S
C395 C394 1.414 . S
C395 C396 1.374 . S
C396 H370 0.950 . S
C396 C392 1.385 . S
C396 C395 1.374 . S
C397 C394 1.499 . S
C397 C398 1.373 1_655 S
C397 C399 1.389 . S
C398 H371 0.950 . S
C398 C384 1.377 . S
C398 C397 1.373 1_455 S
C399 C383 1.377 . S
C399 C397 1.389 . S
C399 C400 1.524 . S
C400 C399 1.524 . S
C400 C401 1.397 . S
C400 C405 1.363 . S
C401 H372 0.950 . S
C401 C400 1.397 . S
C401 C402 1.334 . S
C402 H373 0.950 . S
C402 C401 1.334 . S
C402 C403 1.287 . S
C403 C402 1.287 . S
C403 C404 1.524 . S
C403 H406 0.999 . S
C404 H374 0.950 . S
C404 C403 1.524 . S
C404 C405 1.415 . S
C405 H375 0.950 . S
C405 C400 1.363 . S
C405 C404 1.415 . S
H406 C403 0.999 . S
H407 C388 0.913 . S
H408 C426 0.951 . S
H409 C428 0.951 . S
H410 C430 0.950 . S
H411 C431 0.950 . S
H412 C433 0.950 . S
H413 C436 0.950 . S
H414 C437 0.950 . S
H415 C439 0.950 . S
H416 C440 0.950 . S
H417 C441 0.951 . S
H418 C443 0.951 . S
H419 C445 0.950 . S
H420 C446 0.950 . S
H421 C448 0.950 . S
H422 C451 0.950 . S
H423 C452 0.950 . S
H424 C454 0.950 . S
H425 C455 0.950 . S
C426 H408 0.951 . S
C426 C427 1.366 . S
C426 C428 1.388 . S
C427 C426 1.366 . S
C427 C431 1.385 . S
C428 H409 0.951 . S
C428 C426 1.388 . S
C428 C429 1.366 . S
C429 C428 1.366 . S
C429 C430 1.414 . S
C429 C432 1.499 . S
C430 H410 0.950 . S
C430 C429 1.414 . S
C430 C431 1.374 . S
C431 H411 0.950 . S
C431 C427 1.385 . S
C431 C430 1.374 . S
C432 C429 1.499 . S
C432 C433 1.373 . S
C432 C434 1.389 . S
C433 H412 0.950 . S
C433 C432 1.373 . S
C433 C449 1.377 . S
C434 C432 1.389 . S
C434 C435 1.524 . S
C434 C448 1.377 . S
C435 C434 1.524 . S
C435 C436 1.397 . S
C435 C440 1.363 . S
C436 H413 0.950 . S
C436 C435 1.397 . S
C436 C437 1.334 . S
C437 H414 0.950 . S
C437 C436 1.334 . S
C437 C438 1.287 . S
C438 C437 1.287 . S
C438 C439 1.524 . S
C438 H457 0.913 . S
C439 H415 0.950 . S
C439 C438 1.524 . S
C439 C440 1.415 . S
C440 H416 0.950 . S
C440 C435 1.363 . S
C440 C439 1.415 . S
C441 H417 0.951 . S
C441 C442 1.366 . S
C441 C443 1.388 . S
C442 C441 1.366 . S
C442 C446 1.385 . S
C443 H418 0.951 . S
C443 C441 1.388 . S
C443 C444 1.366 . S
C444 C443 1.366 . S
C444 C445 1.414 . S
C444 C447 1.499 . S
C445 H419 0.950 . S
C445 C444 1.414 . S
C445 C446 1.374 . S
C446 H420 0.950 . S
C446 C442 1.385 . S
C446 C445 1.374 . S
C447 C444 1.499 . S
C447 C448 1.373 . S
C447 C449 1.389 . S
C448 H421 0.950 . S
C448 C434 1.377 . S
C448 C447 1.373 . S
C449 C433 1.377 . S
C449 C447 1.389 . S
C449 C450 1.524 . S
C450 C449 1.524 . S
C450 C451 1.397 . S
C450 C455 1.363 . S
C451 H422 0.950 . S
C451 C450 1.397 . S
C451 C452 1.334 . S
C452 H423 0.950 . S
C452 C451 1.334 . S
C452 C453 1.287 . S
C453 C452 1.287 . S
C453 C454 1.524 . S
C453 H456 0.999 . S
C454 H424 0.950 . S
C454 C453 1.524 . S
C454 C455 1.415 . S
C455 H425 0.950 . S
C455 C450 1.363 . S
C455 C454 1.415 . S
H456 C453 0.999 . S
H457 C438 0.913 . S
H458 C476 0.951 . S
H459 C478 0.951 . S
H460 C480 0.950 . S
H461 C481 0.950 . S
H462 C483 0.950 . S
H463 C486 0.950 . S
H464 C487 0.950 . S
H465 C489 0.950 . S
H466 C490 0.950 . S
H467 C491 0.951 . S
H468 C493 0.951 . S
H469 C495 0.950 . S
H470 C496 0.950 . S
H471 C498 0.950 . S
H472 C501 0.950 . S
H473 C502 0.950 . S
H474 C504 0.950 . S
H475 C505 0.950 . S
C476 H458 0.951 . S
C476 C477 1.366 . S
C476 C478 1.388 . S
C477 C476 1.366 . S
C477 C481 1.385 . S
C478 H459 0.951 . S
C478 C476 1.388 . S
C478 C479 1.366 . S
C479 C478 1.366 . S
C479 C480 1.414 . S
C479 C482 1.499 . S
C480 H460 0.950 . S
C480 C479 1.414 . S
C480 C481 1.374 . S
C481 H461 0.950 . S
C481 C477 1.385 . S
C481 C480 1.374 . S
C482 C479 1.499 . S
C482 C483 1.373 1_545 S
C482 C484 1.389 . S
C483 H462 0.950 . S
C483 C482 1.373 1_565 S
C483 C499 1.377 . S
C484 C482 1.389 . S
C484 C485 1.524 . S
C484 C498 1.377 . S
C485 C484 1.524 . S
C485 C486 1.397 . S
C485 C490 1.363 . S
C486 H463 0.950 . S
C486 C485 1.397 . S
C486 C487 1.334 . S
C487 H464 0.950 . S
C487 C486 1.334 . S
C487 C488 1.287 . S
C488 C487 1.287 . S
C488 C489 1.524 . S
C488 H507 0.913 . S
C489 H465 0.950 . S
C489 C488 1.524 . S
C489 C490 1.415 . S
C490 H466 0.950 . S
C490 C485 1.363 . S
C490 C489 1.415 . S
C491 H467 0.951 . S
C491 C492 1.366 . S
C491 C493 1.388 . S
C492 C491 1.366 . S
C492 C496 1.385 . S
C493 H468 0.951 . S
C493 C491 1.388 . S
C493 C494 1.366 . S
C494 C493 1.366 . S
C494 C495 1.414 . S
C494 C497 1.499 . S
C495 H469 0.950 . S
C495 C494 1.414 . S
C495 C496 1.374 . S
C496 H470 0.950 . S
C496 C492 1.385 . S
C496 C495 1.374 . S
C497 C494 1.499 . S
C497 C498 1.373 1_565 S
C497 C499 1.389 . S
C498 H471 0.950 . S
C498 C484 1.377 . S
C498 C497 1.373 1_545 S
C499 C483 1.377 . S
C499 C497 1.389 . S
C499 C500 1.524 . S
C500 C499 1.524 . S
C500 C501 1.397 . S
C500 C505 1.363 . S
C501 H472 0.950 . S
C501 C500 1.397 . S
C501 C502 1.334 . S
C502 H473 0.950 . S
C502 C501 1.334 . S
C502 C503 1.287 . S
C503 C502 1.287 . S
C503 C504 1.524 . S
C503 H506 0.999 . S
C504 H474 0.950 . S
C504 C503 1.524 . S
C504 C505 1.415 . S
C505 H475 0.950 . S
C505 C500 1.363 . S
C505 C504 1.415 . S
H506 C503 0.999 . S
H507 C488 0.913 . S
H508 C526 0.951 . S
H509 C528 0.951 . S
H510 C530 0.950 . S
H511 C531 0.950 . S
H512 C533 0.950 . S
H513 C536 0.950 . S
H514 C537 0.950 . S
H515 C539 0.950 . S
H516 C540 0.950 . S
H517 C541 0.951 . S
H518 C543 0.951 . S
H519 C545 0.950 . S
H520 C546 0.950 . S
H521 C548 0.950 . S
H522 C551 0.950 . S
H523 C552 0.950 . S
H524 C554 0.950 . S
H525 C555 0.950 . S
C526 H508 0.951 . S
C526 C527 1.366 . S
C526 C528 1.388 . S
C527 C526 1.366 . S
C527 C531 1.385 . S
C528 H509 0.951 . S
C528 C526 1.388 . S
C528 C529 1.366 . S
C529 C528 1.366 . S
C529 C530 1.414 . S
C529 C532 1.499 . S
C530 H510 0.950 . S
C530 C529 1.414 . S
C530 C531 1.374 . S
C531 H511 0.950 . S
C531 C527 1.385 . S
C531 C530 1.374 . S
C532 C529 1.499 . S
C532 C533 1.373 1_655 S
C532 C534 1.389 . S
C533 H512 0.950 . S
C533 C532 1.373 1_455 S
C533 C549 1.377 . S
C534 C532 1.389 . S
C534 C535 1.524 . S
C534 C548 1.377 . S
C535 C534 1.524 . S
C535 C536 1.397 . S
C535 C540 1.363 . S
C536 H513 0.950 . S
C536 C535 1.397 . S
C536 C537 1.334 . S
C537 H514 0.950 . S
C537 C536 1.334 . S
C537 C538 1.287 . S
C538 C537 1.287 . S
C538 C539 1.524 . S
C538 H557 0.913 . S
C539 H515 0.950 . S
C539 C538 1.524 . S
C539 C540 1.415 . S
C540 H516 0.950 . S
C540 C535 1.363 . S
C540 C539 1.415 . S
C541 H517 0.951 . S
C541 C542 1.366 . S
C541 C543 1.388 . S
C542 C541 1.366 . S
C542 C546 1.385 . S
C543 H518 0.951 . S
C543 C541 1.388 . S
C543 C544 1.366 . S
C544 C543 1.366 . S
C544 C545 1.414 . S
C544 C547 1.499 . S
C545 H519 0.950 . S
C545 C544 1.414 . S
C545 C546 1.374 . S
C546 H520 0.950 . S
C546 C542 1.385 . S
C546 C545 1.374 . S
C547 C544 1.499 . S
C547 C548 1.373 1_455 S
C547 C549 1.389 . S
C548 H521 0.950 . S
C548 C534 1.377 . S
C548 C547 1.373 1_655 S
C549 C533 1.377 . S
C549 C547 1.389 . S
C549 C550 1.524 . S
C550 C549 1.524 . S
C550 C551 1.397 . S
C550 C555 1.363 . S
C551 H522 0.950 . S
C551 C550 1.397 . S
C551 C552 1.334 . S
C552 H523 0.950 . S
C552 C551 1.334 . S
C552 C553 1.287 . S
C553 C552 1.287 . S
C553 C554 1.524 . S
C553 H556 0.999 . S
C554 H524 0.950 . S
C554 C553 1.524 . S
C554 C555 1.415 . S
C555 H525 0.950 . S
C555 C550 1.363 . S
C555 C554 1.415 . S
H556 C553 0.999 . S
H557 C538 0.913 . S
H558 C576 0.951 . S
H559 C578 0.951 . S
H560 C580 0.950 . S
H561 C581 0.950 . S
H562 C583 0.950 . S
H563 C586 0.950 . S
H564 C587 0.950 . S
H565 C589 0.950 . S
H566 C590 0.950 . S
H567 C591 0.951 . S
H568 C593 0.951 . S
H569 C595 0.950 . S
H570 C596 0.950 . S
H571 C598 0.950 . S
H572 C601 0.950 . S
H573 C602 0.950 . S
H574 C604 0.950 . S
H575 C605 0.950 . S
C576 H558 0.951 . S
C576 C577 1.366 . S
C576 C578 1.388 . S
C577 C576 1.366 . S
C577 C581 1.385 . S
C578 H559 0.951 . S
C578 C576 1.388 . S
C578 C579 1.366 . S
C579 C578 1.366 . S
C579 C580 1.414 . S
C579 C582 1.499 . S
C580 H560 0.950 . S
C580 C579 1.414 . S
C580 C581 1.374 . S
C581 H561 0.950 . S
C581 C577 1.385 . S
C581 C580 1.374 . S
C582 C579 1.499 . S
C582 C583 1.373 1_554 S
C582 C584 1.389 . S
C583 H562 0.950 . S
C583 C582 1.373 1_556 S
C583 C599 1.377 . S
C584 C582 1.389 . S
C584 C585 1.524 . S
C584 C598 1.377 . S
C585 C584 1.524 . S
C585 C586 1.397 . S
C585 C590 1.363 . S
C586 H563 0.950 . S
C586 C585 1.397 . S
C586 C587 1.334 . S
C587 H564 0.950 . S
C587 C586 1.334 . S
C587 C588 1.287 . S
C588 C587 1.287 . S
C588 C589 1.524 . S
C588 H607 0.913 . S
C589 H565 0.950 . S
C589 C588 1.524 . S
C589 C590 1.415 . S
C590 H566 0.950 . S
C590 C585 1.363 . S
C590 C589 1.415 . S
C591 H567 0.951 . S
C591 C592 1.366 . S
C591 C593 1.388 . S
C592 C591 1.366 . S
C592 C596 1.385 . S
C593 H568 0.951 . S
C593 C591 1.388 . S
C593 C594 1.366 . S
C594 C593 1.366 . S
C594 C595 1.414 . S
C594 C597 1.499 . S
C595 H569 0.950 . S
C595 C594 1.414 . S
C595 C596 1.374 . S
C596 H570 0.950 . S
C596 C592 1.385 . S
C596 C595 1.374 . S
C597 C594 1.499 . S
C597 C598 1.373 1_556 S
C597 C599 1.389 . S
C598 H571 0.950 . S
C598 C584 1.377 . S
C598 C597 1.373 1_554 S
C599 C583 1.377 . S
C599 C597 1.389 . S
C599 C600 1.524 . S
C600 C599 1.524 . S
C600 C601 1.397 . S
C600 C605 1.363 . S
C601 H572 0.950 . S
C601 C600 1.397 . S
C601 C602 1.334 . S
C602 H573 0.950 . S
C602 C601 1.334 . S
C602 C603 1.287 . S
C603 C602 1.287 . S
C603 C604 1.524 . S
C603 H606 0.999 . S
C604 H574 0.950 . S
C604 C603 1.524 . S
C604 C605 1.415 . S
C605 H575 0.950 . S
C605 C600 1.363 . S
C605 C604 1.415 . S
H606 C603 0.999 . S
H607 C588 0.913 . S
H608 C626 0.951 . S
H609 C628 0.951 . S
H610 C630 0.950 . S
H611 C631 0.950 . S
H612 C633 0.950 . S
H613 C636 0.952 . S
H614 C637 0.950 . S
H615 C639 0.950 . S
H616 C640 0.950 . S
H617 C641 0.951 . S
H618 C643 0.951 . S
H619 C645 0.950 . S
H620 C646 0.950 . S
H621 C648 0.950 . S
H622 C651 0.952 . S
H623 C652 0.950 . S
H624 C654 0.950 . S
H625 C655 0.950 . S
C626 H608 0.951 . S
C626 C627 1.366 . S
C626 C628 1.388 . S
C627 C626 1.366 . S
C627 C631 1.385 . S
C628 H609 0.951 . S
C628 C626 1.388 . S
C628 C629 1.366 . S
C629 C628 1.366 . S
C629 C630 1.414 . S
C629 C632 1.499 . S
C630 H610 0.950 . S
C630 C629 1.414 . S
C630 C631 1.374 . S
C631 H611 0.950 . S
C631 C627 1.385 . S
C631 C630 1.374 . S
C632 C629 1.499 . S
C632 C633 1.373 1_556 S
C632 C634 1.389 . S
C633 H612 0.950 . S
C633 C632 1.373 1_554 S
C633 C649 1.377 1_455 S
C634 C632 1.389 . S
C634 C635 1.524 . S
C634 C648 1.377 1_455 S
C635 C634 1.524 . S
C635 C636 1.397 . S
C635 C640 1.363 . S
C636 H613 0.952 . S
C636 C635 1.397 . S
C636 C637 1.334 . S
C637 H614 0.950 . S
C637 C636 1.334 . S
C637 C638 1.287 . S
C638 C637 1.287 . S
C638 C639 1.524 . S
C638 H657 0.913 . S
C639 H615 0.950 . S
C639 C638 1.524 . S
C639 C640 1.415 . S
C640 H616 0.950 . S
C640 C635 1.363 . S
C640 C639 1.415 . S
C641 H617 0.951 . S
C641 C642 1.366 . S
C641 C643 1.388 . S
C642 C641 1.366 . S
C642 C646 1.385 . S
C643 H618 0.951 . S
C643 C641 1.388 . S
C643 C644 1.366 . S
C644 C643 1.366 . S
C644 C645 1.414 . S
C644 C647 1.499 . S
C645 H619 0.950 . S
C645 C644 1.414 . S
C645 C646 1.374 . S
C646 H620 0.950 . S
C646 C642 1.385 . S
C646 C645 1.374 . S
C647 C644 1.499 . S
C647 C648 1.373 1_554 S
C647 C649 1.389 . S
C648 H621 0.950 . S
C648 C634 1.377 1_655 S
C648 C647 1.373 1_556 S
C649 C633 1.377 1_655 S
C649 C647 1.389 . S
C649 C650 1.524 . S
C650 C649 1.524 . S
C650 C651 1.397 . S
C650 C655 1.363 . S
C651 H622 0.952 . S
C651 C650 1.397 . S
C651 C652 1.334 . S
C652 H623 0.950 . S
C652 C651 1.334 . S
C652 C653 1.287 . S
C653 C652 1.287 . S
C653 C654 1.524 . S
C653 H656 0.999 . S
C654 H624 0.950 . S
C654 C653 1.524 . S
C654 C655 1.415 . S
C655 H625 0.950 . S
C655 C650 1.363 . S
C655 C654 1.415 . S
H656 C653 0.999 . S
H657 C638 0.913 . S
H658 C676 0.951 . S
H659 C678 0.951 . S
H660 C680 0.950 . S
H661 C681 0.950 . S
H662 C683 0.950 . S
H663 C686 0.950 . S
H664 C687 0.950 . S
H665 C689 0.950 . S
H666 C690 0.950 . S
H667 C691 0.951 . S
H668 C693 0.951 . S
H669 C695 0.950 . S
H670 C696 0.950 . S
H671 C698 0.950 . S
H672 C701 0.950 . S
H673 C702 0.950 . S
H674 C704 0.950 . S
H675 C705 0.950 . S
C676 H658 0.951 . S
C676 C677 1.366 . S
C676 C678 1.388 . S
C677 C676 1.366 . S
C677 C681 1.385 . S
C678 H659 0.951 . S
C678 C676 1.388 . S
C678 C679 1.366 . S
C679 C678 1.366 . S
C679 C680 1.414 . S
C679 C682 1.499 . S
C680 H660 0.950 . S
C680 C679 1.414 . S
C680 C681 1.374 . S
C681 H661 0.950 . S
C681 C677 1.385 . S
C681 C680 1.374 . S
C682 C679 1.499 . S
C682 C683 1.373 . S
C682 C684 1.389 . S
C683 H662 0.950 . S
C683 C682 1.373 . S
C683 C699 1.377 . S
C684 C682 1.389 . S
C684 C685 1.524 . S
C684 C698 1.377 . S
C685 C684 1.524 . S
C685 C686 1.397 . S
C685 C690 1.363 . S
C686 H663 0.950 . S
C686 C685 1.397 . S
C686 C687 1.334 . S
C687 H664 0.950 . S
C687 C686 1.334 . S
C687 C688 1.287 . S
C688 C687 1.287 . S
C688 C689 1.524 . S
C688 H707 0.913 . S
C689 H665 0.950 . S
C689 C688 1.524 . S
C689 C690 1.415 . S
C690 H666 0.950 . S
C690 C685 1.363 . S
C690 C689 1.415 . S
C691 H667 0.951 . S
C691 C692 1.366 . S
C691 C693 1.388 . S
C692 C691 1.366 . S
C692 C696 1.385 . S
C693 H668 0.951 . S
C693 C691 1.388 . S
C693 C694 1.366 . S
C694 C693 1.366 . S
C694 C695 1.414 . S
C694 C697 1.499 . S
C695 H669 0.950 . S
C695 C694 1.414 . S
C695 C696 1.374 . S
C696 H670 0.950 . S
C696 C692 1.385 . S
C696 C695 1.374 . S
C697 C694 1.499 . S
C697 C698 1.373 . S
C697 C699 1.389 . S
C698 H671 0.950 . S
C698 C684 1.377 . S
C698 C697 1.373 . S
C699 C683 1.377 . S
C699 C697 1.389 . S
C699 C700 1.524 . S
C700 C699 1.524 . S
C700 C701 1.397 . S
C700 C705 1.363 . S
C701 H672 0.950 . S
C701 C700 1.397 . S
C701 C702 1.334 . S
C702 H673 0.950 . S
C702 C701 1.334 . S
C702 C703 1.287 . S
C703 C702 1.287 . S
C703 C704 1.524 . S
C703 H706 0.999 . S
C704 H674 0.950 . S
C704 C703 1.524 . S
C704 C705 1.415 . S
C705 H675 0.950 . S
C705 C700 1.363 . S
C705 C704 1.415 . S
H706 C703 0.999 . S
H707 C688 0.913 . S
H708 C726 0.951 . S
H709 C728 0.951 . S
H710 C730 0.950 . S
H711 C731 0.950 . S
H712 C733 0.950 . S
H713 C736 0.950 . S
H714 C737 0.950 . S
H715 C739 0.950 . S
H716 C740 0.950 . S
H717 C741 0.951 . S
H718 C743 0.951 . S
H719 C745 0.950 . S
H720 C746 0.950 . S
H721 C748 0.950 . S
H722 C751 0.950 . S
H723 C752 0.950 . S
H724 C754 0.950 . S
H725 C755 0.950 . S
C726 H708 0.951 . S
C726 C727 1.366 . S
C726 C728 1.388 . S
C727 C726 1.366 . S
C727 C731 1.385 . S
C728 H709 0.951 . S
C728 C726 1.388 . S
C728 C729 1.366 . S
C729 C728 1.366 . S
C729 C730 1.414 . S
C729 C732 1.499 . S
C730 H710 0.950 . S
C730 C729 1.414 . S
C730 C731 1.374 . S
C731 H711 0.950 . S
C731 C727 1.385 . S
C731 C730 1.374 . S
C732 C729 1.499 . S
C732 C733 1.373 1_556 S
C732 C734 1.389 . S
C733 H712 0.950 . S
C733 C732 1.373 1_554 S
C733 C749 1.377 . S
C734 C732 1.389 . S
C734 C735 1.524 . S
C734 C748 1.377 . S
C735 C734 1.524 . S
C735 C736 1.397 . S
C735 C740 1.363 . S
C736 H713 0.950 . S
C736 C735 1.397 . S
C736 C737 1.334 . S
C737 H714 0.950 . S
C737 C736 1.334 . S
C737 C738 1.287 . S
C738 C737 1.287 . S
C738 C739 1.524 . S
C738 H757 0.913 . S
C739 H715 0.950 . S
C739 C738 1.524 . S
C739 C740 1.415 . S
C740 H716 0.950 . S
C740 C735 1.363 . S
C740 C739 1.415 . S
C741 H717 0.951 . S
C741 C742 1.366 . S
C741 C743 1.388 . S
C742 C741 1.366 . S
C742 C746 1.385 . S
C743 H718 0.951 . S
C743 C741 1.388 . S
C743 C744 1.366 . S
C744 C743 1.366 . S
C744 C745 1.414 . S
C744 C747 1.499 . S
C745 H719 0.950 . S
C745 C744 1.414 . S
C745 C746 1.374 . S
C746 H720 0.950 . S
C746 C742 1.385 . S
C746 C745 1.374 . S
C747 C744 1.499 . S
C747 C748 1.373 1_554 S
C747 C749 1.389 . S
C748 H721 0.950 . S
C748 C734 1.377 . S
C748 C747 1.373 1_556 S
C749 C733 1.377 . S
C749 C747 1.389 . S
C749 C750 1.524 . S
C750 C749 1.524 . S
C750 C751 1.397 . S
C750 C755 1.363 . S
C751 H722 0.950 . S
C751 C750 1.397 . S
C751 C752 1.334 . S
C752 H723 0.950 . S
C752 C751 1.334 . S
C752 C753 1.287 . S
C753 C752 1.287 . S
C753 C754 1.524 . S
C753 H756 0.999 . S
C754 H724 0.950 . S
C754 C753 1.524 . S
C754 C755 1.415 . S
C755 H725 0.950 . S
C755 C750 1.363 . S
C755 C754 1.415 . S
H756 C753 0.999 . S
H757 C738 0.913 . S
H758 C776 0.951 . S
H759 C778 0.951 . S
H760 C780 0.950 . S
H761 C781 0.950 . S
H762 C783 0.950 . S
H763 C786 0.950 . S
H764 C787 0.950 . S
H765 C789 0.950 . S
H766 C790 0.950 . S
H767 C791 0.951 . S
H768 C793 0.951 . S
H769 C795 0.950 . S
H770 C796 0.950 . S
H771 C798 0.950 . S
H772 C801 0.950 . S
H773 C802 0.950 . S
H774 C804 0.950 . S
H775 C805 0.950 . S
C776 H758 0.951 . S
C776 C777 1.366 . S
C776 C778 1.388 . S
C777 C776 1.366 . S
C777 C781 1.385 . S
C778 H759 0.951 . S
C778 C776 1.388 . S
C778 C779 1.366 . S
C779 C778 1.366 . S
C779 C780 1.414 . S
C779 C782 1.499 . S
C780 H760 0.950 . S
C780 C779 1.414 . S
C780 C781 1.374 . S
C781 H761 0.950 . S
C781 C777 1.385 . S
C781 C780 1.374 . S
C782 C779 1.499 . S
C782 C783 1.373 . S
C782 C784 1.389 . S
C783 H762 0.950 . S
C783 C782 1.373 . S
C783 C799 1.377 . S
C784 C782 1.389 . S
C784 C785 1.524 . S
C784 C798 1.377 . S
C785 C784 1.524 . S
C785 C786 1.397 . S
C785 C790 1.363 . S
C786 H763 0.950 . S
C786 C785 1.397 . S
C786 C787 1.334 . S
C787 H764 0.950 . S
C787 C786 1.334 . S
C787 C788 1.287 . S
C788 C787 1.287 . S
C788 C789 1.524 . S
C788 H807 0.913 . S
C789 H765 0.950 . S
C789 C788 1.524 . S
C789 C790 1.415 . S
C790 H766 0.950 . S
C790 C785 1.363 . S
C790 C789 1.415 . S
C791 H767 0.951 . S
C791 C792 1.366 . S
C791 C793 1.388 . S
C792 C791 1.366 . S
C792 C796 1.385 . S
C793 H768 0.951 . S
C793 C791 1.388 . S
C793 C794 1.366 . S
C794 C793 1.366 . S
C794 C795 1.414 . S
C794 C797 1.499 . S
C795 H769 0.950 . S
C795 C794 1.414 . S
C795 C796 1.374 . S
C796 H770 0.950 . S
C796 C792 1.385 . S
C796 C795 1.374 . S
C797 C794 1.499 . S
C797 C798 1.373 . S
C797 C799 1.389 . S
C798 H771 0.950 . S
C798 C784 1.377 . S
C798 C797 1.373 . S
C799 C783 1.377 . S
C799 C797 1.389 . S
C799 C800 1.524 . S
C800 C799 1.524 . S
C800 C801 1.397 . S
C800 C805 1.363 . S
C801 H772 0.950 . S
C801 C800 1.397 . S
C801 C802 1.334 . S
C802 H773 0.950 . S
C802 C801 1.334 . S
C802 C803 1.287 . S
C803 C802 1.287 . S
C803 C804 1.524 . S
C803 H806 0.999 . S
C804 H774 0.950 . S
C804 C803 1.524 . S
C804 C805 1.415 . S
C805 H775 0.950 . S
C805 C800 1.363 . S
C805 C804 1.415 . S
H806 C803 0.999 . S
H807 C788 0.913 . S
H808 C826 0.951 . S
H809 C828 0.951 1_565 S
H810 C830 0.950 . S
H811 C831 0.950 . S
H812 C833 0.949 . S
H813 C836 0.950 . S
H814 C837 0.950 . S
H815 C839 0.950 . S
H816 C840 0.950 . S
H817 C841 0.951 . S
H818 C843 0.951 1_545 S
H819 C845 0.950 . S
H820 C846 0.950 . S
H821 C848 0.949 . S
H822 C851 0.950 . S
H823 C852 0.950 . S
H824 C854 0.950 . S
H825 C855 0.950 . S
C826 H808 0.951 . S
C826 C827 1.366 . S
C826 C828 1.388 . S
C827 C826 1.366 . S
C827 C831 1.385 . S
C828 H809 0.951 1_545 S
C828 C826 1.388 . S
C828 C829 1.366 . S
C829 C828 1.366 . S
C829 C830 1.414 . S
C829 C832 1.499 . S
C830 H810 0.950 . S
C830 C829 1.414 . S
C830 C831 1.374 . S
C831 H811 0.950 . S
C831 C827 1.385 . S
C831 C830 1.374 . S
C832 C829 1.499 . S
C832 C833 1.346 1_556 S
C832 C834 1.389 1_545 S
C833 H812 0.949 . S
C833 C832 1.346 1_554 S
C833 C849 1.403 . S
C834 C832 1.389 1_565 S
C834 C835 1.524 . S
C834 C848 1.403 . S
C835 C834 1.524 . S
C835 C836 1.397 . S
C835 C840 1.363 . S
C836 H813 0.950 . S
C836 C835 1.397 . S
C836 C837 1.334 . S
C837 H814 0.950 . S
C837 C836 1.334 . S
C837 C838 1.287 . S
C838 C837 1.287 . S
C838 C839 1.524 . S
C838 H857 0.913 . S
C839 H815 0.950 . S
C839 C838 1.524 . S
C839 C840 1.415 . S
C840 H816 0.950 . S
C840 C835 1.363 . S
C840 C839 1.415 . S
C841 H817 0.951 . S
C841 C842 1.366 . S
C841 C843 1.388 . S
C842 C841 1.366 . S
C842 C846 1.385 . S
C843 H818 0.951 1_565 S
C843 C841 1.388 . S
C843 C844 1.366 . S
C844 C843 1.366 . S
C844 C845 1.414 . S
C844 C847 1.499 . S
C845 H819 0.950 . S
C845 C844 1.414 . S
C845 C846 1.374 . S
C846 H820 0.950 . S
C846 C842 1.385 . S
C846 C845 1.374 . S
C847 C844 1.499 . S
C847 C848 1.346 1_554 S
C847 C849 1.389 1_565 S
C848 H821 0.949 . S
C848 C834 1.403 . S
C848 C847 1.346 1_556 S
C849 C833 1.403 . S
C849 C847 1.389 1_545 S
C849 C850 1.524 . S
C850 C849 1.524 . S
C850 C851 1.397 . S
C850 C855 1.363 . S
C851 H822 0.950 . S
C851 C850 1.397 . S
C851 C852 1.334 . S
C852 H823 0.950 . S
C852 C851 1.334 . S
C852 C853 1.287 . S
C853 C852 1.287 . S
C853 C854 1.524 . S
C853 H856 0.999 . S
C854 H824 0.950 . S
C854 C853 1.524 . S
C854 C855 1.415 . S
C855 H825 0.950 . S
C855 C850 1.363 . S
C855 C854 1.415 . S
H856 C853 0.999 . S
H857 C838 0.913 . S
H858 C876 0.951 . S
H859 C878 0.951 . S
H860 C880 0.950 . S
H861 C881 0.950 . S
H862 C883 0.950 . S
H863 C886 0.950 . S
H864 C887 0.950 . S
H865 C889 0.950 . S
H866 C890 0.950 . S
H867 C891 0.951 . S
H868 C893 0.951 . S
H869 C895 0.950 . S
H870 C896 0.950 . S
H871 C898 0.950 . S
H872 C901 0.950 . S
H873 C902 0.950 . S
H874 C904 0.950 . S
H875 C905 0.950 . S
C876 H858 0.951 . S
C876 C877 1.366 . S
C876 C878 1.388 . S
C877 C876 1.366 . S
C877 C881 1.385 . S
C878 H859 0.951 . S
C878 C876 1.388 . S
C878 C879 1.366 . S
C879 C878 1.366 . S
C879 C880 1.414 . S
C879 C882 1.499 . S
C880 H860 0.950 . S
C880 C879 1.414 . S
C880 C881 1.374 . S
C881 H861 0.950 . S
C881 C877 1.385 . S
C881 C880 1.374 . S
C882 C879 1.499 . S
C882 C883 1.373 . S
C882 C884 1.389 . S
C883 H862 0.950 . S
C883 C882 1.373 . S
C883 C899 1.377 . S
C884 C882 1.389 . S
C884 C885 1.524 . S
C884 C898 1.377 . S
C885 C884 1.524 . S
C885 C886 1.397 . S
C885 C890 1.363 . S
C886 H863 0.950 . S
C886 C885 1.397 . S
C886 C887 1.334 . S
C887 H864 0.950 . S
C887 C886 1.334 . S
C887 C888 1.287 . S
C888 C887 1.287 . S
C888 C889 1.524 . S
C888 H907 0.913 . S
C889 H865 0.950 . S
C889 C888 1.524 . S
C889 C890 1.415 . S
C890 H866 0.950 . S
C890 C885 1.363 . S
C890 C889 1.415 . S
C891 H867 0.951 . S
C891 C892 1.366 . S
C891 C893 1.388 . S
C892 C891 1.366 . S
C892 C896 1.385 . S
C893 H868 0.951 . S
C893 C891 1.388 . S
C893 C894 1.366 . S
C894 C893 1.366 . S
C894 C895 1.414 . S
C894 C897 1.499 . S
C895 H869 0.950 . S
C895 C894 1.414 . S
C895 C896 1.374 . S
C896 H870 0.950 . S
C896 C892 1.385 . S
C896 C895 1.374 . S
C897 C894 1.499 . S
C897 C898 1.373 . S
C897 C899 1.389 . S
C898 H871 0.950 . S
C898 C884 1.377 . S
C898 C897 1.373 . S
C899 C883 1.377 . S
C899 C897 1.389 . S
C899 C900 1.524 . S
C900 C899 1.524 . S
C900 C901 1.397 . S
C900 C905 1.363 . S
C901 H872 0.950 . S
C901 C900 1.397 . S
C901 C902 1.334 . S
C902 H873 0.950 . S
C902 C901 1.334 . S
C902 C903 1.287 . S
C903 C902 1.287 . S
C903 C904 1.524 . S
C903 H906 0.999 . S
C904 H874 0.950 . S
C904 C903 1.524 . S
C904 C905 1.415 . S
C905 H875 0.950 . S
C905 C900 1.363 . S
C905 C904 1.415 . S
H906 C903 0.999 . S
H907 C888 0.913 . S
H908 C926 0.951 . S
H909 C928 0.951 . S
H910 C930 0.950 . S
H911 C931 0.950 . S
H912 C933 0.950 . S
H913 C936 0.950 . S
H914 C937 0.950 . S
H915 C939 0.950 . S
H916 C940 0.950 . S
H917 C941 0.951 . S
H918 C943 0.951 . S
H919 C945 0.950 . S
H920 C946 0.950 . S
H921 C948 0.950 . S
H922 C951 0.950 . S
H923 C952 0.950 . S
H924 C954 0.950 . S
H925 C955 0.950 . S
C926 H908 0.951 . S
C926 C927 1.366 . S
C926 C928 1.388 . S
C927 C926 1.366 . S
C927 C931 1.385 . S
C928 H909 0.951 . S
C928 C926 1.388 . S
C928 C929 1.366 . S
C929 C928 1.366 . S
C929 C930 1.414 . S
C929 C932 1.499 . S
C930 H910 0.950 . S
C930 C929 1.414 . S
C930 C931 1.374 . S
C931 H911 0.950 . S
C931 C927 1.385 . S
C931 C930 1.374 . S
C932 C929 1.499 . S
C932 C933 1.373 . S
C932 C934 1.389 . S
C933 H912 0.950 . S
C933 C932 1.373 . S
C933 C949 1.377 . S
C934 C932 1.389 . S
C934 C935 1.524 . S
C934 C948 1.377 . S
C935 C934 1.524 . S
C935 C936 1.397 . S
C935 C940 1.363 . S
C936 H913 0.950 . S
C936 C935 1.397 . S
C936 C937 1.334 . S
C937 H914 0.950 . S
C937 C936 1.334 . S
C937 C938 1.287 . S
C938 C937 1.287 . S
C938 C939 1.524 . S
C938 H957 0.913 . S
C939 H915 0.950 . S
C939 C938 1.524 . S
C939 C940 1.415 . S
C940 H916 0.950 . S
C940 C935 1.363 . S
C940 C939 1.415 . S
C941 H917 0.951 . S
C941 C942 1.366 . S
C941 C943 1.388 . S
C942 C941 1.366 . S
C942 C946 1.385 . S
C943 H918 0.951 . S
C943 C941 1.388 . S
C943 C944 1.366 . S
C944 C943 1.366 . S
C944 C945 1.414 . S
C944 C947 1.499 . S
C945 H919 0.950 . S
C945 C944 1.414 . S
C945 C946 1.374 . S
C946 H920 0.950 . S
C946 C942 1.385 . S
C946 C945 1.374 . S
C947 C944 1.499 . S
C947 C948 1.373 . S
C947 C949 1.389 . S
C948 H921 0.950 . S
C948 C934 1.377 . S
C948 C947 1.373 . S
C949 C933 1.377 . S
C949 C947 1.389 . S
C949 C950 1.524 . S
C950 C949 1.524 . S
C950 C951 1.397 . S
C950 C955 1.363 . S
C951 H922 0.950 . S
C951 C950 1.397 . S
C951 C952 1.334 . S
C952 H923 0.950 . S
C952 C951 1.334 . S
C952 C953 1.287 . S
C953 C952 1.287 . S
C953 C954 1.524 . S
C953 H956 0.999 . S
C954 H924 0.950 . S
C954 C953 1.524 . S
C954 C955 1.415 . S
C955 H925 0.950 . S
C955 C950 1.363 . S
C955 C954 1.415 . S
H956 C953 0.999 . S
H957 C938 0.913 . S
H958 C976 0.951 . S
H959 C978 0.951 . S
H960 C980 0.950 . S
H961 C981 0.950 . S
H962 C983 0.950 . S
H963 C986 0.950 . S
H964 C987 0.950 . S
H965 C989 0.950 . S
H966 C990 0.950 . S
H967 C991 0.951 . S
H968 C993 0.951 . S
H969 C995 0.950 . S
H970 C996 0.950 . S
H971 C998 0.950 . S
H972 C1001 0.950 . S
H973 C1002 0.950 . S
H974 C1004 0.950 . S
H975 C1005 0.950 . S
C976 H958 0.951 . S
C976 C977 1.366 . S
C976 C978 1.388 . S
C977 C976 1.366 . S
C977 C981 1.385 . S
C978 H959 0.951 . S
C978 C976 1.388 . S
C978 C979 1.366 . S
C979 C978 1.366 . S
C979 C980 1.414 . S
C979 C982 1.499 . S
C980 H960 0.950 . S
C980 C979 1.414 . S
C980 C981 1.374 . S
C981 H961 0.950 . S
C981 C977 1.385 . S
C981 C980 1.374 . S
C982 C979 1.499 . S
C982 C983 1.373 . S
C982 C984 1.389 . S
C983 H962 0.950 . S
C983 C982 1.373 . S
C983 C999 1.377 . S
C984 C982 1.389 . S
C984 C985 1.524 . S
C984 C998 1.377 . S
C985 C984 1.524 . S
C985 C986 1.397 . S
C985 C990 1.363 . S
C986 H963 0.950 . S
C986 C985 1.397 . S
C986 C987 1.334 . S
C987 H964 0.950 . S
C987 C986 1.334 . S
C987 C988 1.287 . S
C988 C987 1.287 . S
C988 C989 1.524 . S
C988 H1007 0.913 . S
C989 H965 0.950 . S
C989 C988 1.524 . S
C989 C990 1.415 . S
C990 H966 0.950 . S
C990 C985 1.363 . S
C990 C989 1.415 . S
C991 H967 0.951 . S
C991 C992 1.366 . S
C991 C993 1.388 . S
C992 C991 1.366 . S
C992 C996 1.385 . S
C993 H968 0.951 . S
C993 C991 1.388 . S
C993 C994 1.366 . S
C994 C993 1.366 . S
C994 C995 1.414 . S
C994 C997 1.499 . S
C995 H969 0.950 . S
C995 C994 1.414 . S
C995 C996 1.374 . S
C996 H970 0.950 . S
C996 C992 1.385 . S
C996 C995 1.374 . S
C997 C994 1.499 . S
C997 C998 1.373 . S
C997 C999 1.389 . S
C998 H971 0.950 . S
C998 C984 1.377 . S
C998 C997 1.373 . S
C999 C983 1.377 . S
C999 C997 1.389 . S
C999 C1000 1.524 . S
C1000 C999 1.524 . S
C1000 C1001 1.397 . S
C1000 C1005 1.363 . S
C1001 H972 0.950 . S
C1001 C1000 1.397 . S
C1001 C1002 1.334 . S
C1002 H973 0.950 . S
C1002 C1001 1.334 . S
C1002 C1003 1.287 . S
C1003 C1002 1.287 . S
C1003 C1004 1.524 . S
C1003 H1006 0.999 . S
C1004 H974 0.950 . S
C1004 C1003 1.524 . S
C1004 C1005 1.415 . S
C1005 H975 0.950 . S
C1005 C1000 1.363 . S
C1005 C1004 1.415 . S
H1006 C1003 0.999 . S
H1007 C988 0.913 . S
H1008 C1026 0.951 . S
H1009 C1028 0.951 . S
H1010 C1030 0.950 . S
H1011 C1031 0.950 . S
H1012 C1033 0.950 . S
H1013 C1036 0.950 . S
H1014 C1037 0.950 . S
H1015 C1039 0.950 . S
H1016 C1040 0.950 . S
H1017 C1041 0.951 . S
H1018 C1043 0.951 . S
H1019 C1045 0.950 . S
H1020 C1046 0.950 . S
H1021 C1048 0.950 . S
H1022 C1051 0.950 . S
H1023 C1052 0.950 . S
H1024 C1054 0.950 . S
H1025 C1055 0.950 . S
C1026 H1008 0.951 . S
C1026 C1027 1.366 . S
C1026 C1028 1.388 . S
C1027 C1026 1.366 . S
C1027 C1031 1.385 . S
C1028 H1009 0.951 . S
C1028 C1026 1.388 . S
C1028 C1029 1.366 . S
C1029 C1028 1.366 . S
C1029 C1030 1.414 . S
C1029 C1032 1.499 . S
C1030 H1010 0.950 . S
C1030 C1029 1.414 . S
C1030 C1031 1.374 . S
C1031 H1011 0.950 . S
C1031 C1027 1.385 . S
C1031 C1030 1.374 . S
C1032 C1029 1.499 . S
C1032 C1033 1.373 . S
C1032 C1034 1.389 . S
C1033 H1012 0.950 . S
C1033 C1032 1.373 . S
C1033 C1049 1.377 . S
C1034 C1032 1.389 . S
C1034 C1035 1.524 . S
C1034 C1048 1.377 . S
C1035 C1034 1.524 . S
C1035 C1036 1.397 . S
C1035 C1040 1.363 . S
C1036 H1013 0.950 . S
C1036 C1035 1.397 . S
C1036 C1037 1.334 . S
C1037 H1014 0.950 . S
C1037 C1036 1.334 . S
C1037 C1038 1.287 . S
C1038 C1037 1.287 . S
C1038 C1039 1.524 . S
C1038 H1057 0.913 . S
C1039 H1015 0.950 . S
C1039 C1038 1.524 . S
C1039 C1040 1.415 . S
C1040 H1016 0.950 . S
C1040 C1035 1.363 . S
C1040 C1039 1.415 . S
C1041 H1017 0.951 . S
C1041 C1042 1.366 . S
C1041 C1043 1.388 1_545 S
C1042 C1041 1.366 . S
C1042 C1046 1.385 1_545 S
C1043 H1018 0.951 . S
C1043 C1041 1.388 1_565 S
C1043 C1044 1.366 . S
C1044 C1043 1.366 . S
C1044 C1045 1.414 . S
C1044 C1047 1.499 . S
C1045 H1019 0.950 . S
C1045 C1044 1.414 . S
C1045 C1046 1.374 . S
C1046 H1020 0.950 . S
C1046 C1042 1.385 1_565 S
C1046 C1045 1.374 . S
C1047 C1044 1.499 . S
C1047 C1048 1.373 . S
C1047 C1049 1.389 . S
C1048 H1021 0.950 . S
C1048 C1034 1.377 . S
C1048 C1047 1.373 . S
C1049 C1033 1.377 . S
C1049 C1047 1.389 . S
C1049 C1050 1.524 . S
C1050 C1049 1.524 . S
C1050 C1051 1.397 . S
C1050 C1055 1.363 . S
C1051 H1022 0.950 . S
C1051 C1050 1.397 . S
C1051 C1052 1.334 . S
C1052 H1023 0.950 . S
C1052 C1051 1.334 . S
C1052 C1053 1.287 . S
C1053 C1052 1.287 . S
C1053 C1054 1.524 . S
C1053 H1056 0.999 . S
C1054 H1024 0.950 . S
C1054 C1053 1.524 . S
C1054 C1055 1.415 . S
C1055 H1025 0.950 . S
C1055 C1050 1.363 . S
C1055 C1054 1.415 . S
H1056 C1053 0.999 . S
H1057 C1038 0.913 . S
H1058 C1076 0.951 . S
H1059 C1078 0.951 . S
H1060 C1080 0.950 . S
H1061 C1081 0.950 . S
H1062 C1083 0.950 . S
H1063 C1086 0.950 . S
H1064 C1087 0.950 . S
H1065 C1089 0.950 . S
H1066 C1090 0.950 . S
H1067 C1091 0.951 . S
H1068 C1093 0.951 . S
H1069 C1095 0.950 . S
H1070 C1096 0.950 . S
H1071 C1098 0.950 . S
H1072 C1101 0.950 . S
H1073 C1102 0.950 . S
H1074 C1104 0.950 . S
H1075 C1105 0.950 . S
C1076 H1058 0.951 . S
C1076 C1077 1.366 . S
C1076 C1078 1.388 . S
C1077 C1076 1.366 . S
C1077 C1081 1.385 . S
C1078 H1059 0.951 . S
C1078 C1076 1.388 . S
C1078 C1079 1.366 . S
C1079 C1078 1.366 . S
C1079 C1080 1.414 . S
C1079 C1082 1.499 . S
C1080 H1060 0.950 . S
C1080 C1079 1.414 . S
C1080 C1081 1.374 . S
C1081 H1061 0.950 . S
C1081 C1077 1.385 . S
C1081 C1080 1.374 . S
C1082 C1079 1.499 . S
C1082 C1083 1.373 . S
C1082 C1084 1.389 . S
C1083 H1062 0.950 . S
C1083 C1082 1.373 . S
C1083 C1099 1.377 . S
C1084 C1082 1.389 . S
C1084 C1085 1.524 . S
C1084 C1098 1.377 . S
C1085 C1084 1.524 . S
C1085 C1086 1.397 . S
C1085 C1090 1.363 . S
C1086 H1063 0.950 . S
C1086 C1085 1.397 . S
C1086 C1087 1.334 . S
C1087 H1064 0.950 . S
C1087 C1086 1.334 . S
C1087 C1088 1.287 . S
C1088 C1087 1.287 . S
C1088 C1089 1.524 . S
C1088 H1107 0.913 . S
C1089 H1065 0.950 . S
C1089 C1088 1.524 . S
C1089 C1090 1.415 . S
C1090 H1066 0.950 . S
C1090 C1085 1.363 . S
C1090 C1089 1.415 . S
C1091 H1067 0.951 . S
C1091 C1092 1.366 . S
C1091 C1093 1.388 . S
C1092 C1091 1.366 . S
C1092 C1096 1.385 . S
C1093 H1068 0.951 . S
C1093 C1091 1.388 . S
C1093 C1094 1.366 . S
C1094 C1093 1.366 . S
C1094 C1095 1.414 . S
C1094 C1097 1.499 . S
C1095 H1069 0.950 . S
C1095 C1094 1.414 . S
C1095 C1096 1.374 . S
C1096 H1070 0.950 . S
C1096 C1092 1.385 . S
C1096 C1095 1.374 . S
C1097 C1094 1.499 . S
C1097 C1098 1.373 . S
C1097 C1099 1.389 . S
C1098 H1071 0.950 . S
C1098 C1084 1.377 . S
C1098 C1097 1.373 . S
C1099 C1083 1.377 . S
C1099 C1097 1.389 . S
C1099 C1100 1.524 . S
C1100 C1099 1.524 . S
C1100 C1101 1.397 . S
C1100 C1105 1.363 . S
C1101 H1072 0.950 . S
C1101 C1100 1.397 . S
C1101 C1102 1.334 . S
C1102 H1073 0.950 . S
C1102 C1101 1.334 . S
C1102 C1103 1.287 . S
C1103 C1102 1.287 . S
C1103 C1104 1.524 . S
C1103 H1106 0.999 . S
C1104 H1074 0.950 . S
C1104 C1103 1.524 . S
C1104 C1105 1.415 . S
C1105 H1075 0.950 . S
C1105 C1100 1.363 . S
C1105 C1104 1.415 . S
H1106 C1103 0.999 . S
H1107 C1088 0.913 . S
H1108 C1126 0.951 . S
H1109 C1128 0.951 . S
H1110 C1130 0.950 . S
H1111 C1131 0.950 . S
H1112 C1133 0.950 . S
H1113 C1136 0.950 . S
H1114 C1137 0.950 . S
H1115 C1139 0.950 . S
H1116 C1140 0.950 . S
H1117 C1141 0.951 . S
H1118 C1143 0.951 . S
H1119 C1145 0.950 . S
H1120 C1146 0.950 . S
H1121 C1148 0.950 . S
H1122 C1151 0.950 . S
H1123 C1152 0.950 . S
H1124 C1154 0.950 . S
H1125 C1155 0.950 . S
C1126 H1108 0.951 . S
C1126 C1127 1.366 . S
C1126 C1128 1.388 . S
C1127 C1126 1.366 . S
C1127 C1131 1.385 . S
C1128 H1109 0.951 . S
C1128 C1126 1.388 . S
C1128 C1129 1.366 . S
C1129 C1128 1.366 . S
C1129 C1130 1.414 . S
C1129 C1132 1.499 . S
C1130 H1110 0.950 . S
C1130 C1129 1.414 . S
C1130 C1131 1.374 . S
C1131 H1111 0.950 . S
C1131 C1127 1.385 . S
C1131 C1130 1.374 . S
C1132 C1129 1.499 . S
C1132 C1133 1.373 . S
C1132 C1134 1.389 . S
C1133 H1112 0.950 . S
C1133 C1132 1.373 . S
C1133 C1149 1.377 . S
C1134 C1132 1.389 . S
C1134 C1135 1.524 . S
C1134 C1148 1.377 . S
C1135 C1134 1.524 . S
C1135 C1136 1.397 . S
C1135 C1140 1.363 . S
C1136 H1113 0.950 . S
C1136 C1135 1.397 . S
C1136 C1137 1.334 . S
C1137 H1114 0.950 . S
C1137 C1136 1.334 . S
C1137 C1138 1.287 . S
C1138 C1137 1.287 . S
C1138 C1139 1.524 . S
C1138 H1157 0.913 . S
C1139 H1115 0.950 . S
C1139 C1138 1.524 . S
C1139 C1140 1.415 . S
C1140 H1116 0.950 . S
C1140 C1135 1.363 . S
C1140 C1139 1.415 . S
C1141 H1117 0.951 . S
C1141 C1142 1.366 . S
C1141 C1143 1.388 . S
C1142 C1141 1.366 . S
C1142 C1146 1.385 . S
C1143 H1118 0.951 . S
C1143 C1141 1.388 . S
C1143 C1144 1.366 . S
C1144 C1143 1.366 . S
C1144 C1145 1.414 . S
C1144 C1147 1.499 . S
C1145 H1119 0.950 . S
C1145 C1144 1.414 . S
C1145 C1146 1.374 . S
C1146 H1120 0.950 . S
C1146 C1142 1.385 . S
C1146 C1145 1.374 . S
C1147 C1144 1.499 . S
C1147 C1148 1.373 . S
C1147 C1149 1.389 . S
C1148 H1121 0.950 . S
C1148 C1134 1.377 . S
C1148 C1147 1.373 . S
C1149 C1133 1.377 . S
C1149 C1147 1.389 . S
C1149 C1150 1.524 . S
C1150 C1149 1.524 . S
C1150 C1151 1.397 . S
C1150 C1155 1.363 . S
C1151 H1122 0.950 . S
C1151 C1150 1.397 . S
C1151 C1152 1.334 . S
C1152 H1123 0.950 . S
C1152 C1151 1.334 . S
C1152 C1153 1.287 . S
C1153 C1152 1.287 . S
C1153 C1154 1.524 . S
C1153 H1156 0.999 . S
C1154 H1124 0.950 . S
C1154 C1153 1.524 . S
C1154 C1155 1.415 . S
C1155 H1125 0.950 . S
C1155 C1150 1.363 . S
C1155 C1154 1.415 . S
H1156 C1153 0.999 . S
H1157 C1138 0.913 . S
H1158 C1176 0.951 . S
H1159 C1178 0.951 . S
H1160 C1180 0.950 . S
H1161 C1181 0.950 . S
H1162 C1183 0.950 . S
H1163 C1186 0.950 . S
H1164 C1187 0.950 . S
H1165 C1189 0.950 . S
H1166 C1190 0.950 . S
H1167 C1191 0.951 . S
H1168 C1193 0.951 . S
H1169 C1195 0.950 . S
H1170 C1196 0.950 . S
H1171 C1198 0.950 . S
H1172 C1201 0.950 . S
H1173 C1202 0.950 . S
H1174 C1204 0.950 . S
H1175 C1205 0.950 . S
C1176 H1158 0.951 . S
C1176 C1177 1.366 . S
C1176 C1178 1.388 . S
C1177 C1176 1.366 . S
C1177 C1181 1.385 . S
C1178 H1159 0.951 . S
C1178 C1176 1.388 . S
C1178 C1179 1.366 . S
C1179 C1178 1.366 . S
C1179 C1180 1.414 . S
C1179 C1182 1.499 . S
C1180 H1160 0.950 . S
C1180 C1179 1.414 . S
C1180 C1181 1.374 . S
C1181 H1161 0.950 . S
C1181 C1177 1.385 . S
C1181 C1180 1.374 . S
C1182 C1179 1.499 . S
C1182 C1183 1.373 . S
C1182 C1184 1.389 . S
C1183 H1162 0.950 . S
C1183 C1182 1.373 . S
C1183 C1199 1.377 . S
C1184 C1182 1.389 . S
C1184 C1185 1.524 . S
C1184 C1198 1.377 . S
C1185 C1184 1.524 . S
C1185 C1186 1.397 . S
C1185 C1190 1.363 . S
C1186 H1163 0.950 . S
C1186 C1185 1.397 . S
C1186 C1187 1.334 . S
C1187 H1164 0.950 . S
C1187 C1186 1.334 . S
C1187 C1188 1.287 . S
C1188 C1187 1.287 . S
C1188 C1189 1.524 . S
C1188 H1207 0.913 . S
C1189 H1165 0.950 . S
C1189 C1188 1.524 . S
C1189 C1190 1.415 . S
C1190 H1166 0.950 . S
C1190 C1185 1.363 . S
C1190 C1189 1.415 . S
C1191 H1167 0.951 . S
C1191 C1192 1.366 1_565 S
C1191 C1193 1.388 . S
C1192 C1191 1.366 1_545 S
C1192 C1196 1.385 . S
C1193 H1168 0.951 . S
C1193 C1191 1.388 . S
C1193 C1194 1.366 . S
C1194 C1193 1.366 . S
C1194 C1195 1.414 . S
C1194 C1197 1.499 . S
C1195 H1169 0.950 . S
C1195 C1194 1.414 . S
C1195 C1196 1.374 1_565 S
C1196 H1170 0.950 . S
C1196 C1192 1.385 . S
C1196 C1195 1.374 1_545 S
C1197 C1194 1.499 . S
C1197 C1198 1.373 . S
C1197 C1199 1.389 . S
C1198 H1171 0.950 . S
C1198 C1184 1.377 . S
C1198 C1197 1.373 . S
C1199 C1183 1.377 . S
C1199 C1197 1.389 . S
C1199 C1200 1.524 . S
C1200 C1199 1.524 . S
C1200 C1201 1.397 . S
C1200 C1205 1.363 . S
C1201 H1172 0.950 . S
C1201 C1200 1.397 . S
C1201 C1202 1.334 . S
C1202 H1173 0.950 . S
C1202 C1201 1.334 . S
C1202 C1203 1.287 . S
C1203 C1202 1.287 . S
C1203 C1204 1.524 . S
C1203 H1206 0.999 . S
C1204 H1174 0.950 . S
C1204 C1203 1.524 . S
C1204 C1205 1.415 . S
C1205 H1175 0.950 . S
C1205 C1200 1.363 . S
C1205 C1204 1.415 . S
H1206 C1203 0.999 . S
H1207 C1188 0.913 . S
H1208 C1226 0.951 . S
H1209 C1228 0.951 . S
H1210 C1230 0.950 . S
H1211 C1231 0.950 . S
H1212 C1233 0.950 . S
H1213 C1236 0.950 . S
H1214 C1237 0.950 . S
H1215 C1239 0.950 . S
H1216 C1240 0.950 . S
H1217 C1241 0.951 . S
H1218 C1243 0.951 . S
H1219 C1245 0.950 . S
H1220 C1246 0.950 . S
H1221 C1248 0.950 . S
H1222 C1251 0.950 . S
H1223 C1252 0.950 1_565 S
H1224 C1254 0.950 . S
H1225 C1255 0.950 . S
C1226 H1208 0.951 . S
C1226 C1227 1.366 . S
C1226 C1228 1.388 . S
C1227 C1226 1.366 . S
C1227 C1231 1.385 . S
C1228 H1209 0.951 . S
C1228 C1226 1.388 . S
C1228 C1229 1.366 . S
C1229 C1228 1.366 . S
C1229 C1230 1.414 . S
C1229 C1232 1.499 . S
C1230 H1210 0.950 . S
C1230 C1229 1.414 . S
C1230 C1231 1.374 . S
C1231 H1211 0.950 . S
C1231 C1227 1.385 . S
C1231 C1230 1.374 . S
C1232 C1229 1.499 . S
C1232 C1233 1.373 . S
C1232 C1234 1.389 . S
C1233 H1212 0.950 . S
C1233 C1232 1.373 . S
C1233 C1249 1.377 . S
C1234 C1232 1.389 . S
C1234 C1235 1.524 . S
C1234 C1248 1.377 . S
C1235 C1234 1.524 . S
C1235 C1236 1.397 . S
C1235 C1240 1.363 . S
C1236 H1213 0.950 . S
C1236 C1235 1.397 . S
C1236 C1237 1.334 . S
C1237 H1214 0.950 . S
C1237 C1236 1.334 . S
C1237 C1238 1.287 . S
C1238 C1237 1.287 . S
C1238 C1239 1.524 . S
C1238 H1257 0.913 . S
C1239 H1215 0.950 . S
C1239 C1238 1.524 . S
C1239 C1240 1.415 . S
C1240 H1216 0.950 . S
C1240 C1235 1.363 . S
C1240 C1239 1.415 . S
C1241 H1217 0.951 . S
C1241 C1242 1.366 1_545 S
C1241 C1243 1.388 . S
C1242 C1241 1.366 1_565 S
C1242 C1246 1.385 . S
C1243 H1218 0.951 . S
C1243 C1241 1.388 . S
C1243 C1244 1.366 . S
C1244 C1243 1.366 . S
C1244 C1245 1.414 . S
C1244 C1247 1.499 . S
C1245 H1219 0.950 . S
C1245 C1244 1.414 . S
C1245 C1246 1.374 1_545 S
C1246 H1220 0.950 . S
C1246 C1242 1.385 . S
C1246 C1245 1.374 1_565 S
C1247 C1244 1.499 . S
C1247 C1248 1.373 . S
C1247 C1249 1.389 . S
C1248 H1221 0.950 . S
C1248 C1234 1.377 . S
C1248 C1247 1.373 . S
C1249 C1233 1.377 . S
C1249 C1247 1.389 . S
C1249 C1250 1.524 . S
C1250 C1249 1.524 . S
C1250 C1251 1.397 . S
C1250 C1255 1.363 . S
C1251 H1222 0.950 . S
C1251 C1250 1.397 . S
C1251 C1252 1.334 . S
C1252 H1223 0.950 1_545 S
C1252 C1251 1.334 . S
C1252 C1253 1.287 . S
C1253 C1252 1.287 . S
C1253 C1254 1.524 . S
C1253 H1256 1.009 . S
C1254 H1224 0.950 . S
C1254 C1253 1.524 . S
C1254 C1255 1.415 . S
C1255 H1225 0.950 . S
C1255 C1250 1.363 . S
C1255 C1254 1.415 . S
H1256 C1253 1.009 . S
H1257 C1238 0.913 . S
H1258 C1276 0.951 . S
H1259 C1278 0.951 . S
H1260 C1280 0.950 . S
H1261 C1281 0.950 . S
H1262 C1283 0.950 . S
H1263 C1286 0.950 . S
H1264 C1287 0.950 . S
H1265 C1289 0.950 . S
H1266 C1290 0.950 . S
H1267 C1291 0.951 . S
H1268 C1293 0.951 . S
H1269 C1295 0.950 . S
H1270 C1296 0.950 . S
H1271 C1298 0.950 . S
H1272 C1301 0.950 . S
H1273 C1302 0.950 . S
H1274 C1304 0.950 . S
H1275 C1305 0.950 . S
C1276 H1258 0.951 . S
C1276 C1277 1.366 . S
C1276 C1278 1.388 . S
C1277 C1276 1.366 . S
C1277 C1281 1.385 . S
C1278 H1259 0.951 . S
C1278 C1276 1.388 . S
C1278 C1279 1.366 . S
C1279 C1278 1.366 . S
C1279 C1280 1.414 . S
C1279 C1282 1.499 . S
C1280 H1260 0.950 . S
C1280 C1279 1.414 . S
C1280 C1281 1.374 . S
C1281 H1261 0.950 . S
C1281 C1277 1.385 . S
C1281 C1280 1.374 . S
C1282 C1279 1.499 . S
C1282 C1283 1.373 . S
C1282 C1284 1.389 . S
C1283 H1262 0.950 . S
C1283 C1282 1.373 . S
C1283 C1299 1.377 . S
C1284 C1282 1.389 . S
C1284 C1285 1.524 . S
C1284 C1298 1.377 . S
C1285 C1284 1.524 . S
C1285 C1286 1.397 . S
C1285 C1290 1.363 . S
C1286 H1263 0.950 . S
C1286 C1285 1.397 . S
C1286 C1287 1.334 . S
C1287 H1264 0.950 . S
C1287 C1286 1.334 . S
C1287 C1288 1.287 . S
C1288 C1287 1.287 . S
C1288 C1289 1.524 . S
C1288 H1307 0.913 . S
C1289 H1265 0.950 . S
C1289 C1288 1.524 . S
C1289 C1290 1.415 . S
C1290 H1266 0.950 . S
C1290 C1285 1.363 . S
C1290 C1289 1.415 . S
C1291 H1267 0.951 . S
C1291 C1292 1.366 . S
C1291 C1293 1.388 . S
C1292 C1291 1.366 . S
C1292 C1296 1.385 . S
C1293 H1268 0.951 . S
C1293 C1291 1.388 . S
C1293 C1294 1.366 . S
C1294 C1293 1.366 . S
C1294 C1295 1.414 . S
C1294 C1297 1.499 . S
C1295 H1269 0.950 . S
C1295 C1294 1.414 . S
C1295 C1296 1.374 . S
C1296 H1270 0.950 . S
C1296 C1292 1.385 . S
C1296 C1295 1.374 . S
C1297 C1294 1.499 . S
C1297 C1298 1.373 . S
C1297 C1299 1.389 . S
C1298 H1271 0.950 . S
C1298 C1284 1.377 . S
C1298 C1297 1.373 . S
C1299 C1283 1.377 . S
C1299 C1297 1.389 . S
C1299 C1300 1.524 . S
C1300 C1299 1.524 . S
C1300 C1301 1.397 . S
C1300 C1305 1.363 . S
C1301 H1272 0.950 . S
C1301 C1300 1.397 . S
C1301 C1302 1.334 . S
C1302 H1273 0.950 . S
C1302 C1301 1.334 . S
C1302 C1303 1.287 . S
C1303 C1302 1.287 . S
C1303 C1304 1.524 . S
C1303 H1306 0.999 . S
C1304 H1274 0.950 . S
C1304 C1303 1.524 . S
C1304 C1305 1.415 . S
C1305 H1275 0.950 . S
C1305 C1300 1.363 . S
C1305 C1304 1.415 . S
H1306 C1303 0.999 . S
H1307 C1288 0.913 . S
H1308 C1326 0.951 . S
H1309 C1328 0.951 . S
H1310 C1330 0.950 . S
H1311 C1331 0.950 . S
H1312 C1333 0.950 . S
H1313 C1336 0.950 . S
H1314 C1337 0.950 . S
H1315 C1339 0.950 . S
H1316 C1340 0.950 . S
H1317 C1341 0.951 . S
H1318 C1343 0.951 . S
H1319 C1345 0.950 . S
H1320 C1346 0.950 . S
H1321 C1348 0.950 . S
H1322 C1351 0.950 . S
H1323 C1352 0.950 . S
H1324 C1354 0.950 . S
H1325 C1355 0.950 . S
C1326 H1308 0.951 . S
C1326 C1327 1.366 . S
C1326 C1328 1.388 . S
C1327 C1326 1.366 . S
C1327 C1331 1.385 . S
C1328 H1309 0.951 . S
C1328 C1326 1.388 . S
C1328 C1329 1.366 . S
C1329 C1328 1.366 . S
C1329 C1330 1.414 . S
C1329 C1332 1.499 . S
C1330 H1310 0.950 . S
C1330 C1329 1.414 . S
C1330 C1331 1.374 . S
C1331 H1311 0.950 . S
C1331 C1327 1.385 . S
C1331 C1330 1.374 . S
C1332 C1329 1.499 . S
C1332 C1333 1.373 . S
C1332 C1334 1.389 . S
C1333 H1312 0.950 . S
C1333 C1332 1.373 . S
C1333 C1349 1.377 . S
C1334 C1332 1.389 . S
C1334 C1335 1.524 . S
C1334 C1348 1.377 . S
C1335 C1334 1.524 . S
C1335 C1336 1.397 . S
C1335 C1340 1.363 . S
C1336 H1313 0.950 . S
C1336 C1335 1.397 . S
C1336 C1337 1.334 . S
C1337 H1314 0.950 . S
C1337 C1336 1.334 . S
C1337 C1338 1.287 . S
C1338 C1337 1.287 . S
C1338 C1339 1.524 . S
C1338 H1357 0.913 . S
C1339 H1315 0.950 . S
C1339 C1338 1.524 . S
C1339 C1340 1.415 . S
C1340 H1316 0.950 . S
C1340 C1335 1.363 . S
C1340 C1339 1.415 . S
C1341 H1317 0.951 . S
C1341 C1342 1.366 . S
C1341 C1343 1.388 . S
C1342 C1341 1.366 . S
C1342 C1346 1.385 . S
C1343 H1318 0.951 . S
C1343 C1341 1.388 . S
C1343 C1344 1.366 . S
C1344 C1343 1.366 . S
C1344 C1345 1.414 . S
C1344 C1347 1.499 . S
C1345 H1319 0.950 . S
C1345 C1344 1.414 . S
C1345 C1346 1.374 . S
C1346 H1320 0.950 . S
C1346 C1342 1.385 . S
C1346 C1345 1.374 . S
C1347 C1344 1.499 . S
C1347 C1348 1.373 . S
C1347 C1349 1.389 . S
C1348 H1321 0.950 . S
C1348 C1334 1.377 . S
C1348 C1347 1.373 . S
C1349 C1333 1.377 . S
C1349 C1347 1.389 . S
C1349 C1350 1.524 . S
C1350 C1349 1.524 . S
C1350 C1351 1.397 . S
C1350 C1355 1.363 . S
C1351 H1322 0.950 . S
C1351 C1350 1.397 . S
C1351 C1352 1.334 . S
C1352 H1323 0.950 . S
C1352 C1351 1.334 . S
C1352 C1353 1.287 . S
C1353 C1352 1.287 . S
C1353 C1354 1.524 . S
C1353 H1356 0.999 . S
C1354 H1324 0.950 . S
C1354 C1353 1.524 . S
C1354 C1355 1.415 . S
C1355 H1325 0.950 . S
C1355 C1350 1.363 . S
C1355 C1354 1.415 . S
H1356 C1353 0.999 . S
H1357 C1338 0.913 . S
H1358 C1376 0.951 . S
H1359 C1378 0.951 . S
H1360 C1380 0.950 . S
H1361 C1381 0.950 . S
H1362 C1383 0.950 . S
H1363 C1386 0.950 . S
H1364 C1387 0.950 . S
H1365 C1389 0.950 . S
H1366 C1390 0.950 . S
H1367 C1391 0.951 . S
H1368 C1393 0.951 . S
H1369 C1395 0.950 . S
H1370 C1396 0.950 . S
H1371 C1398 0.950 . S
H1372 C1401 0.950 . S
H1373 C1402 0.950 . S
H1374 C1404 0.950 . S
H1375 C1405 0.950 . S
C1376 H1358 0.951 . S
C1376 C1377 1.366 . S
C1376 C1378 1.388 1_565 S
C1377 C1376 1.366 . S
C1377 C1381 1.385 1_565 S
C1378 H1359 0.951 . S
C1378 C1376 1.388 1_545 S
C1378 C1379 1.366 . S
C1379 C1378 1.366 . S
C1379 C1380 1.414 . S
C1379 C1382 1.499 . S
C1380 H1360 0.950 . S
C1380 C1379 1.414 . S
C1380 C1381 1.374 . S
C1381 H1361 0.950 . S
C1381 C1377 1.385 1_545 S
C1381 C1380 1.374 . S
C1382 C1379 1.499 . S
C1382 C1383 1.373 . S
C1382 C1384 1.389 . S
C1383 H1362 0.950 . S
C1383 C1382 1.373 . S
C1383 C1399 1.377 . S
C1384 C1382 1.389 . S
C1384 C1385 1.524 . S
C1384 C1398 1.377 . S
C1385 C1384 1.524 . S
C1385 C1386 1.397 . S
C1385 C1390 1.363 . S
C1386 H1363 0.950 . S
C1386 C1385 1.397 . S
C1386 C1387 1.334 . S
C1387 H1364 0.950 . S
C1387 C1386 1.334 . S
C1387 C1388 1.287 . S
C1388 C1387 1.287 . S
C1388 C1389 1.524 . S
C1388 H1407 0.913 . S
C1389 H1365 0.950 . S
C1389 C1388 1.524 . S
C1389 C1390 1.415 . S
C1390 H1366 0.950 . S
C1390 C1385 1.363 . S
C1390 C1389 1.415 . S
C1391 H1367 0.951 . S
C1391 C1392 1.366 . S
C1391 C1393 1.388 . S
C1392 C1391 1.366 . S
C1392 C1396 1.385 . S
C1393 H1368 0.951 . S
C1393 C1391 1.388 . S
C1393 C1394 1.366 . S
C1394 C1393 1.366 . S
C1394 C1395 1.414 . S
C1394 C1397 1.499 . S
C1395 H1369 0.950 . S
C1395 C1394 1.414 . S
C1395 C1396 1.374 . S
C1396 H1370 0.950 . S
C1396 C1392 1.385 . S
C1396 C1395 1.374 . S
C1397 C1394 1.499 . S
C1397 C1398 1.373 . S
C1397 C1399 1.389 . S
C1398 H1371 0.950 . S
C1398 C1384 1.377 . S
C1398 C1397 1.373 . S
C1399 C1383 1.377 . S
C1399 C1397 1.389 . S
C1399 C1400 1.524 . S
C1400 C1399 1.524 . S
C1400 C1401 1.397 . S
C1400 C1405 1.363 . S
C1401 H1372 0.950 . S
C1401 C1400 1.397 . S
C1401 C1402 1.334 . S
C1402 H1373 0.950 . S
C1402 C1401 1.334 . S
C1402 C1403 1.287 . S
C1403 C1402 1.287 . S
C1403 C1404 1.524 . S
C1403 H1406 0.999 . S
C1404 H1374 0.950 . S
C1404 C1403 1.524 . S
C1404 C1405 1.415 . S
C1405 H1375 0.950 . S
C1405 C1400 1.363 . S
C1405 C1404 1.415 . S
H1406 C1403 0.999 . S
H1407 C1388 0.913 . S
H1408 C1426 0.951 . S
H1409 C1428 0.951 . S
H1410 C1430 0.950 . S
H1411 C1431 0.950 . S
H1412 C1433 0.950 . S
H1413 C1436 0.950 . S
H1414 C1437 0.950 . S
H1415 C1439 0.950 . S
H1416 C1440 0.950 . S
H1417 C1441 0.951 . S
H1418 C1443 0.951 . S
H1419 C1445 0.950 . S
H1420 C1446 0.950 . S
H1421 C1448 0.950 . S
H1422 C1451 0.950 . S
H1423 C1452 0.950 . S
H1424 C1454 0.950 . S
H1425 C1455 0.950 . S
C1426 H1408 0.951 . S
C1426 C1427 1.366 . S
C1426 C1428 1.388 . S
C1427 C1426 1.366 . S
C1427 C1431 1.385 . S
C1428 H1409 0.951 . S
C1428 C1426 1.388 . S
C1428 C1429 1.366 . S
C1429 C1428 1.366 . S
C1429 C1430 1.414 . S
C1429 C1432 1.499 . S
C1430 H1410 0.950 . S
C1430 C1429 1.414 . S
C1430 C1431 1.374 . S
C1431 H1411 0.950 . S
C1431 C1427 1.385 . S
C1431 C1430 1.374 . S
C1432 C1429 1.499 . S
C1432 C1433 1.373 . S
C1432 C1434 1.389 . S
C1433 H1412 0.950 . S
C1433 C1432 1.373 . S
C1433 C1449 1.377 . S
C1434 C1432 1.389 . S
C1434 C1435 1.524 . S
C1434 C1448 1.377 . S
C1435 C1434 1.524 . S
C1435 C1436 1.397 . S
C1435 C1440 1.363 . S
C1436 H1413 0.950 . S
C1436 C1435 1.397 . S
C1436 C1437 1.334 . S
C1437 H1414 0.950 . S
C1437 C1436 1.334 . S
C1437 C1438 1.287 . S
C1438 C1437 1.287 . S
C1438 C1439 1.524 . S
C1438 H1457 0.913 . S
C1439 H1415 0.950 . S
C1439 C1438 1.524 . S
C1439 C1440 1.415 . S
C1440 H1416 0.950 . S
C1440 C1435 1.363 . S
C1440 C1439 1.415 . S
C1441 H1417 0.951 . S
C1441 C1442 1.366 1_565 S
C1441 C1443 1.388 . S
C1442 C1441 1.366 1_545 S
C1442 C1446 1.385 . S
C1443 H1418 0.951 . S
C1443 C1441 1.388 . S
C1443 C1444 1.366 . S
C1444 C1443 1.366 . S
C1444 C1445 1.414 . S
C1444 C1447 1.499 . S
C1445 H1419 0.950 . S
C1445 C1444 1.414 . S
C1445 C1446 1.374 1_565 S
C1446 H1420 0.950 . S
C1446 C1442 1.385 . S
C1446 C1445 1.374 1_545 S
C1447 C1444 1.499 . S
C1447 C1448 1.373 . S
C1447 C1449 1.389 . S
C1448 H1421 0.950 . S
C1448 C1434 1.377 . S
C1448 C1447 1.373 . S
C1449 C1433 1.377 . S
C1449 C1447 1.389 . S
C1449 C1450 1.524 . S
C1450 C1449 1.524 . S
C1450 C1451 1.397 . S
C1450 C1455 1.363 . S
C1451 H1422 0.950 . S
C1451 C1450 1.397 . S
C1451 C1452 1.334 . S
C1452 H1423 0.950 . S
C1452 C1451 1.334 . S
C1452 C1453 1.287 . S
C1453 C1452 1.287 . S
C1453 C1454 1.524 . S
C1453 H1456 0.999 . S
C1454 H1424 0.950 . S
C1454 C1453 1.524 . S
C1454 C1455 1.415 . S
C1455 H1425 0.950 . S
C1455 C1450 1.363 . S
C1455 C1454 1.415 . S
H1456 C1453 0.999 . S
H1457 C1438 0.913 . S
H1458 C1476 0.951 . S
H1459 C1478 0.951 . S
H1460 C1480 0.950 . S
H1461 C1481 0.950 . S
H1462 C1483 0.950 . S
H1463 C1486 0.950 . S
H1464 C1487 0.950 . S
H1465 C1489 0.950 . S
H1466 C1490 0.950 . S
H1467 C1491 0.951 . S
H1468 C1493 0.951 . S
H1469 C1495 0.950 . S
H1470 C1496 0.950 . S
H1471 C1498 0.950 . S
H1472 C1501 0.950 . S
H1473 C1502 0.950 . S
H1474 C1504 0.950 . S
H1475 C1505 0.950 . S
C1476 H1458 0.951 . S
C1476 C1477 1.366 . S
C1476 C1478 1.388 . S
C1477 C1476 1.366 . S
C1477 C1481 1.385 . S
C1478 H1459 0.951 . S
C1478 C1476 1.388 . S
C1478 C1479 1.366 . S
C1479 C1478 1.366 . S
C1479 C1480 1.414 . S
C1479 C1482 1.499 . S
C1480 H1460 0.950 . S
C1480 C1479 1.414 . S
C1480 C1481 1.374 . S
C1481 H1461 0.950 . S
C1481 C1477 1.385 . S
C1481 C1480 1.374 . S
C1482 C1479 1.499 . S
C1482 C1483 1.373 . S
C1482 C1484 1.389 . S
C1483 H1462 0.950 . S
C1483 C1482 1.373 . S
C1483 C1499 1.377 . S
C1484 C1482 1.389 . S
C1484 C1485 1.524 . S
C1484 C1498 1.377 . S
C1485 C1484 1.524 . S
C1485 C1486 1.397 . S
C1485 C1490 1.363 . S
C1486 H1463 0.950 . S
C1486 C1485 1.397 . S
C1486 C1487 1.334 . S
C1487 H1464 0.950 . S
C1487 C1486 1.334 . S
C1487 C1488 1.287 . S
C1488 C1487 1.287 . S
C1488 C1489 1.524 . S
C1488 H1507 0.913 . S
C1489 H1465 0.950 . S
C1489 C1488 1.524 . S
C1489 C1490 1.415 . S
C1490 H1466 0.950 . S
C1490 C1485 1.363 . S
C1490 C1489 1.415 . S
C1491 H1467 0.951 . S
C1491 C1492 1.366 . S
C1491 C1493 1.388 . S
C1492 C1491 1.366 . S
C1492 C1496 1.385 . S
C1493 H1468 0.951 . S
C1493 C1491 1.388 . S
C1493 C1494 1.366 . S
C1494 C1493 1.366 . S
C1494 C1495 1.414 . S
C1494 C1497 1.499 . S
C1495 H1469 0.950 . S
C1495 C1494 1.414 . S
C1495 C1496 1.374 . S
C1496 H1470 0.950 . S
C1496 C1492 1.385 . S
C1496 C1495 1.374 . S
C1497 C1494 1.499 . S
C1497 C1498 1.373 . S
C1497 C1499 1.389 . S
C1498 H1471 0.950 . S
C1498 C1484 1.377 . S
C1498 C1497 1.373 . S
C1499 C1483 1.377 . S
C1499 C1497 1.389 . S
C1499 C1500 1.524 . S
C1500 C1499 1.524 . S
C1500 C1501 1.397 . S
C1500 C1505 1.363 . S
C1501 H1472 0.950 . S
C1501 C1500 1.397 . S
C1501 C1502 1.334 . S
C1502 H1473 0.950 . S
C1502 C1501 1.334 . S
C1502 C1503 1.287 . S
C1503 C1502 1.287 . S
C1503 C1504 1.524 . S
C1503 H1506 0.999 . S
C1504 H1474 0.950 . S
C1504 C1503 1.524 . S
C1504 C1505 1.415 . S
C1505 H1475 0.950 . S
C1505 C1500 1.363 . S
C1505 C1504 1.415 . S
H1506 C1503 0.999 . S
H1507 C1488 0.913 . S
H1508 C1526 0.951 . S
H1509 C1528 0.951 . S
H1510 C1530 0.950 . S
H1511 C1531 0.950 . S
H1512 C1533 0.950 . S
H1513 C1536 0.950 . S
H1514 C1537 0.950 . S
H1515 C1539 0.950 . S
H1516 C1540 0.950 . S
H1517 C1541 0.951 . S
H1518 C1543 0.951 . S
H1519 C1545 0.950 . S
H1520 C1546 0.950 . S
H1521 C1548 0.950 . S
H1522 C1551 0.950 . S
H1523 C1552 0.950 . S
H1524 C1554 0.950 . S
H1525 C1555 0.950 . S
C1526 H1508 0.951 . S
C1526 C1527 1.366 . S
C1526 C1528 1.388 . S
C1527 C1526 1.366 . S
C1527 C1531 1.385 . S
C1528 H1509 0.951 . S
C1528 C1526 1.388 . S
C1528 C1529 1.366 . S
C1529 C1528 1.366 . S
C1529 C1530 1.414 . S
C1529 C1532 1.499 . S
C1530 H1510 0.950 . S
C1530 C1529 1.414 . S
C1530 C1531 1.374 . S
C1531 H1511 0.950 . S
C1531 C1527 1.385 . S
C1531 C1530 1.374 . S
C1532 C1529 1.499 . S
C1532 C1533 1.373 . S
C1532 C1534 1.389 . S
C1533 H1512 0.950 . S
C1533 C1532 1.373 . S
C1533 C1549 1.377 . S
C1534 C1532 1.389 . S
C1534 C1535 1.524 . S
C1534 C1548 1.377 . S
C1535 C1534 1.524 . S
C1535 C1536 1.397 . S
C1535 C1540 1.363 . S
C1536 H1513 0.950 . S
C1536 C1535 1.397 . S
C1536 C1537 1.334 . S
C1537 H1514 0.950 . S
C1537 C1536 1.334 . S
C1537 C1538 1.287 . S
C1538 C1537 1.287 . S
C1538 C1539 1.524 . S
C1538 H1557 0.913 . S
C1539 H1515 0.950 . S
C1539 C1538 1.524 . S
C1539 C1540 1.415 . S
C1540 H1516 0.950 . S
C1540 C1535 1.363 . S
C1540 C1539 1.415 . S
C1541 H1517 0.951 . S
C1541 C1542 1.366 . S
C1541 C1543 1.388 . S
C1542 C1541 1.366 . S
C1542 C1546 1.385 . S
C1543 H1518 0.951 . S
C1543 C1541 1.388 . S
C1543 C1544 1.366 . S
C1544 C1543 1.366 . S
C1544 C1545 1.414 . S
C1544 C1547 1.499 . S
C1545 H1519 0.950 . S
C1545 C1544 1.414 . S
C1545 C1546 1.374 . S
C1546 H1520 0.950 . S
C1546 C1542 1.385 . S
C1546 C1545 1.374 . S
C1547 C1544 1.499 . S
C1547 C1548 1.373 . S
C1547 C1549 1.389 . S
C1548 H1521 0.950 . S
C1548 C1534 1.377 . S
C1548 C1547 1.373 . S
C1549 C1533 1.377 . S
C1549 C1547 1.389 . S
C1549 C1550 1.524 . S
C1550 C1549 1.524 . S
C1550 C1551 1.397 . S
C1550 C1555 1.363 . S
C1551 H1522 0.950 . S
C1551 C1550 1.397 . S
C1551 C1552 1.334 . S
C1552 H1523 0.950 . S
C1552 C1551 1.334 . S
C1552 C1553 1.287 . S
C1553 C1552 1.287 . S
C1553 C1554 1.524 . S
C1553 H1556 0.999 . S
C1554 H1524 0.950 . S
C1554 C1553 1.524 . S
C1554 C1555 1.415 . S
C1555 H1525 0.950 . S
C1555 C1550 1.363 . S
C1555 C1554 1.415 . S
H1556 C1553 0.999 . S
H1557 C1538 0.913 . S
H1558 C1576 0.951 . S
H1559 C1578 0.951 . S
H1560 C1580 0.950 . S
H1561 C1581 0.950 . S
H1562 C1583 0.950 . S
H1563 C1586 0.950 . S
H1564 C1587 0.950 . S
H1565 C1589 0.950 . S
H1566 C1590 0.950 . S
H1567 C1591 0.947 1_545 S
H1568 C1593 0.951 . S
H1569 C1595 0.950 . S
H1570 C1596 0.958 . S
H1571 C1598 0.950 . S
H1572 C1601 0.950 . S
H1573 C1602 0.950 . S
H1574 C1604 0.950 . S
H1575 C1605 0.950 . S
C1576 H1558 0.951 . S
C1576 C1577 1.366 . S
C1576 C1578 1.388 . S
C1577 C1576 1.366 . S
C1577 C1581 1.385 . S
C1578 H1559 0.951 . S
C1578 C1576 1.388 . S
C1578 C1579 1.366 . S
C1579 C1578 1.366 . S
C1579 C1580 1.414 . S
C1579 C1582 1.499 . S
C1580 H1560 0.950 . S
C1580 C1579 1.414 . S
C1580 C1581 1.374 . S
C1581 H1561 0.950 . S
C1581 C1577 1.385 . S
C1581 C1580 1.374 . S
C1582 C1579 1.499 . S
C1582 C1583 1.373 . S
C1582 C1584 1.389 . S
C1583 H1562 0.950 . S
C1583 C1582 1.373 . S
C1583 C1599 1.377 . S
C1584 C1582 1.389 . S
C1584 C1585 1.524 . S
C1584 C1598 1.377 . S
C1585 C1584 1.524 . S
C1585 C1586 1.397 . S
C1585 C1590 1.363 . S
C1586 H1563 0.950 . S
C1586 C1585 1.397 . S
C1586 C1587 1.334 . S
C1587 H1564 0.950 . S
C1587 C1586 1.334 . S
C1587 C1588 1.287 . S
C1588 C1587 1.287 . S
C1588 C1589 1.524 . S
C1588 H1607 0.913 . S
C1589 H1565 0.950 . S
C1589 C1588 1.524 . S
C1589 C1590 1.415 . S
C1590 H1566 0.950 . S
C1590 C1585 1.363 . S
C1590 C1589 1.415 . S
C1591 H1567 0.947 1_565 S
C1591 C1592 1.361 1_565 S
C1591 C1593 1.396 . S
C1592 C1591 1.361 1_545 S
C1592 C1596 1.392 . S
C1593 H1568 0.951 . S
C1593 C1591 1.396 . S
C1593 C1594 1.366 . S
C1594 C1593 1.366 . S
C1594 C1595 1.414 . S
C1594 C1597 1.499 . S
C1595 H1569 0.950 . S
C1595 C1594 1.414 . S
C1595 C1596 1.359 1_565 S
C1596 H1570 0.958 . S
C1596 C1592 1.392 . S
C1596 C1595 1.359 1_545 S
C1597 C1594 1.499 . S
C1597 C1598 1.373 . S
C1597 C1599 1.389 . S
C1598 H1571 0.950 . S
C1598 C1584 1.377 . S
C1598 C1597 1.373 . S
C1599 C1583 1.377 . S
C1599 C1597 1.389 . S
C1599 C1600 1.524 . S
C1600 C1599 1.524 . S
C1600 C1601 1.397 . S
C1600 C1605 1.363 . S
C1601 H1572 0.950 . S
C1601 C1600 1.397 . S
C1601 C1602 1.334 1_565 S
C1602 H1573 0.950 . S
C1602 C1601 1.334 1_545 S
C1602 C1603 1.287 . S
C1603 C1602 1.287 . S
C1603 C1604 1.524 1_545 S
C1603 H1606 0.999 . S
C1604 H1574 0.950 . S
C1604 C1603 1.524 1_565 S
C1604 C1605 1.415 . S
C1605 H1575 0.950 . S
C1605 C1600 1.363 . S
C1605 C1604 1.415 . S
H1606 C1603 0.999 . S
H1607 C1588 0.913 . S
H1608 C1626 0.951 . S
H1609 C1628 0.951 . S
H1610 C1630 0.950 . S
H1611 C1631 0.950 . S
H1612 C1633 0.950 . S
H1613 C1636 0.950 . S
H1614 C1637 0.950 . S
H1615 C1639 0.950 . S
H1616 C1640 0.950 . S
H1617 C1641 0.951 . S
H1618 C1643 0.951 . S
H1619 C1645 0.950 . S
H1620 C1646 0.950 . S
H1621 C1648 0.950 . S
H1622 C1651 0.950 . S
H1623 C1652 0.950 . S
H1624 C1654 0.950 . S
H1625 C1655 0.950 . S
C1626 H1608 0.951 . S
C1626 C1627 1.366 . S
C1626 C1628 1.388 . S
C1627 C1626 1.366 . S
C1627 C1631 1.385 . S
C1628 H1609 0.951 . S
C1628 C1626 1.388 . S
C1628 C1629 1.366 . S
C1629 C1628 1.366 . S
C1629 C1630 1.414 . S
C1629 C1632 1.499 . S
C1630 H1610 0.950 . S
C1630 C1629 1.414 . S
C1630 C1631 1.374 . S
C1631 H1611 0.950 . S
C1631 C1627 1.385 . S
C1631 C1630 1.374 . S
C1632 C1629 1.499 . S
C1632 C1633 1.373 . S
C1632 C1634 1.389 . S
C1633 H1612 0.950 . S
C1633 C1632 1.373 . S
C1633 C1649 1.377 . S
C1634 C1632 1.389 . S
C1634 C1635 1.524 . S
C1634 C1648 1.377 . S
C1635 C1634 1.524 . S
C1635 C1636 1.397 . S
C1635 C1640 1.363 . S
C1636 H1613 0.950 . S
C1636 C1635 1.397 . S
C1636 C1637 1.334 . S
C1637 H1614 0.950 . S
C1637 C1636 1.334 . S
C1637 C1638 1.287 . S
C1638 C1637 1.287 . S
C1638 C1639 1.524 . S
C1638 H1657 0.913 . S
C1639 H1615 0.950 . S
C1639 C1638 1.524 . S
C1639 C1640 1.415 . S
C1640 H1616 0.950 . S
C1640 C1635 1.363 . S
C1640 C1639 1.415 . S
C1641 H1617 0.951 . S
C1641 C1642 1.366 1_545 S
C1641 C1643 1.388 . S
C1642 C1641 1.366 1_565 S
C1642 C1646 1.385 . S
C1643 H1618 0.951 . S
C1643 C1641 1.388 . S
C1643 C1644 1.366 . S
C1644 C1643 1.366 . S
C1644 C1645 1.414 . S
C1644 C1647 1.499 . S
C1645 H1619 0.950 . S
C1645 C1644 1.414 . S
C1645 C1646 1.374 1_545 S
C1646 H1620 0.950 . S
C1646 C1642 1.385 . S
C1646 C1645 1.374 1_565 S
C1647 C1644 1.499 . S
C1647 C1648 1.373 . S
C1647 C1649 1.389 . S
C1648 H1621 0.950 . S
C1648 C1634 1.377 . S
C1648 C1647 1.373 . S
C1649 C1633 1.377 . S
C1649 C1647 1.389 . S
C1649 C1650 1.524 . S
C1650 C1649 1.524 . S
C1650 C1651 1.397 . S
C1650 C1655 1.363 . S
C1651 H1622 0.950 . S
C1651 C1650 1.397 . S
C1651 C1652 1.334 . S
C1652 H1623 0.950 . S
C1652 C1651 1.334 . S
C1652 C1653 1.287 . S
C1653 C1652 1.287 . S
C1653 C1654 1.524 . S
C1653 H1656 0.999 . S
C1654 H1624 0.950 . S
C1654 C1653 1.524 . S
C1654 C1655 1.415 . S
C1655 H1625 0.950 . S
C1655 C1650 1.363 . S
C1655 C1654 1.415 . S
H1656 C1653 0.999 . S
H1657 C1638 0.913 . S
H1658 C1676 0.951 . S
H1659 C1678 0.951 . S
H1660 C1680 0.950 . S
H1661 C1681 0.950 . S
H1662 C1683 0.950 . S
H1663 C1686 0.950 . S
H1664 C1687 0.950 . S
H1665 C1689 0.950 . S
H1666 C1690 0.950 . S
H1667 C1691 0.951 . S
H1668 C1693 0.951 . S
H1669 C1695 0.950 . S
H1670 C1696 0.950 . S
H1671 C1698 0.950 . S
H1672 C1701 0.950 . S
H1673 C1702 0.950 . S
H1674 C1704 0.950 . S
H1675 C1705 0.950 . S
C1676 H1658 0.951 . S
C1676 C1677 1.366 . S
C1676 C1678 1.388 . S
C1677 C1676 1.366 . S
C1677 C1681 1.385 . S
C1678 H1659 0.951 . S
C1678 C1676 1.388 . S
C1678 C1679 1.366 . S
C1679 C1678 1.366 . S
C1679 C1680 1.414 . S
C1679 C1682 1.499 . S
C1680 H1660 0.950 . S
C1680 C1679 1.414 . S
C1680 C1681 1.374 . S
C1681 H1661 0.950 . S
C1681 C1677 1.385 . S
C1681 C1680 1.374 . S
C1682 C1679 1.499 . S
C1682 C1683 1.373 . S
C1682 C1684 1.389 . S
C1683 H1662 0.950 . S
C1683 C1682 1.373 . S
C1683 C1699 1.377 . S
C1684 C1682 1.389 . S
C1684 C1685 1.524 . S
C1684 C1698 1.377 . S
C1685 C1684 1.524 . S
C1685 C1686 1.397 . S
C1685 C1690 1.363 . S
C1686 H1663 0.950 . S
C1686 C1685 1.397 . S
C1686 C1687 1.334 . S
C1687 H1664 0.950 . S
C1687 C1686 1.334 . S
C1687 C1688 1.287 . S
C1688 C1687 1.287 . S
C1688 C1689 1.524 . S
C1688 H1707 0.913 . S
C1689 H1665 0.950 . S
C1689 C1688 1.524 . S
C1689 C1690 1.415 . S
C1690 H1666 0.950 . S
C1690 C1685 1.363 . S
C1690 C1689 1.415 . S
C1691 H1667 0.951 . S
C1691 C1692 1.366 . S
C1691 C1693 1.388 . S
C1692 C1691 1.366 . S
C1692 C1696 1.385 . S
C1693 H1668 0.951 . S
C1693 C1691 1.388 . S
C1693 C1694 1.366 . S
C1694 C1693 1.366 . S
C1694 C1695 1.414 . S
C1694 C1697 1.499 . S
C1695 H1669 0.950 . S
C1695 C1694 1.414 . S
C1695 C1696 1.374 . S
C1696 H1670 0.950 . S
C1696 C1692 1.385 . S
C1696 C1695 1.374 . S
C1697 C1694 1.499 . S
C1697 C1698 1.373 . S
C1697 C1699 1.389 . S
C1698 H1671 0.950 . S
C1698 C1684 1.377 . S
C1698 C1697 1.373 . S
C1699 C1683 1.377 . S
C1699 C1697 1.389 . S
C1699 C1700 1.524 . S
C1700 C1699 1.524 . S
C1700 C1701 1.397 . S
C1700 C1705 1.363 . S
C1701 H1672 0.950 . S
C1701 C1700 1.397 . S
C1701 C1702 1.334 . S
C1702 H1673 0.950 . S
C1702 C1701 1.334 . S
C1702 C1703 1.287 . S
C1703 C1702 1.287 . S
C1703 C1704 1.524 . S
C1703 H1706 0.999 . S
C1704 H1674 0.950 . S
C1704 C1703 1.524 . S
C1704 C1705 1.415 . S
C1705 H1675 0.950 . S
C1705 C1700 1.363 . S
C1705 C1704 1.415 . S
H1706 C1703 0.999 . S
H1707 C1688 0.913 . S
H1708 C1726 0.951 . S
H1709 C1728 0.951 . S
H1710 C1730 0.950 . S
H1711 C1731 0.950 . S
H1712 C1733 0.950 . S
H1713 C1736 0.950 . S
H1714 C1737 0.950 . S
H1715 C1739 0.950 . S
H1716 C1740 0.950 . S
H1717 C1741 0.951 . S
H1718 C1743 0.951 . S
H1719 C1745 0.950 . S
H1720 C1746 0.950 . S
H1721 C1748 0.950 . S
H1722 C1751 0.950 . S
H1723 C1752 0.950 . S
H1724 C1754 0.950 . S
H1725 C1755 0.950 . S
C1726 H1708 0.951 . S
C1726 C1727 1.366 . S
C1726 C1728 1.388 . S
C1727 C1726 1.366 . S
C1727 C1731 1.385 . S
C1728 H1709 0.951 . S
C1728 C1726 1.388 . S
C1728 C1729 1.366 . S
C1729 C1728 1.366 . S
C1729 C1730 1.414 . S
C1729 C1732 1.499 . S
C1730 H1710 0.950 . S
C1730 C1729 1.414 . S
C1730 C1731 1.374 . S
C1731 H1711 0.950 . S
C1731 C1727 1.385 . S
C1731 C1730 1.374 . S
C1732 C1729 1.499 . S
C1732 C1733 1.373 . S
C1732 C1734 1.389 . S
C1733 H1712 0.950 . S
C1733 C1732 1.373 . S
C1733 C1749 1.377 . S
C1734 C1732 1.389 . S
C1734 C1735 1.524 . S
C1734 C1748 1.377 . S
C1735 C1734 1.524 . S
C1735 C1736 1.397 . S
C1735 C1740 1.363 . S
C1736 H1713 0.950 . S
C1736 C1735 1.397 . S
C1736 C1737 1.334 . S
C1737 H1714 0.950 . S
C1737 C1736 1.334 . S
C1737 C1738 1.287 . S
C1738 C1737 1.287 . S
C1738 C1739 1.524 . S
C1738 H1757 0.913 . S
C1739 H1715 0.950 . S
C1739 C1738 1.524 . S
C1739 C1740 1.415 . S
C1740 H1716 0.950 . S
C1740 C1735 1.363 . S
C1740 C1739 1.415 . S
C1741 H1717 0.951 . S
C1741 C1742 1.366 . S
C1741 C1743 1.388 . S
C1742 C1741 1.366 . S
C1742 C1746 1.385 . S
C1743 H1718 0.951 . S
C1743 C1741 1.388 . S
C1743 C1744 1.366 . S
C1744 C1743 1.366 . S
C1744 C1745 1.414 . S
C1744 C1747 1.499 . S
C1745 H1719 0.950 . S
C1745 C1744 1.414 . S
C1745 C1746 1.374 . S
C1746 H1720 0.950 . S
C1746 C1742 1.385 . S
C1746 C1745 1.374 . S
C1747 C1744 1.499 . S
C1747 C1748 1.373 . S
C1747 C1749 1.389 . S
C1748 H1721 0.950 . S
C1748 C1734 1.377 . S
C1748 C1747 1.373 . S
C1749 C1733 1.377 . S
C1749 C1747 1.389 . S
C1749 C1750 1.524 . S
C1750 C1749 1.524 . S
C1750 C1751 1.397 . S
C1750 C1755 1.363 . S
C1751 H1722 0.950 . S
C1751 C1750 1.397 . S
C1751 C1752 1.334 . S
C1752 H1723 0.950 . S
C1752 C1751 1.334 . S
C1752 C1753 1.287 . S
C1753 C1752 1.287 . S
C1753 C1754 1.524 . S
C1753 H1756 0.999 . S
C1754 H1724 0.950 . S
C1754 C1753 1.524 . S
C1754 C1755 1.415 . S
C1755 H1725 0.950 . S
C1755 C1750 1.363 . S
C1755 C1754 1.415 . S
H1756 C1753 0.999 . S
H1757 C1738 0.913 . S
H1758 C1776 0.951 . S
H1759 C1778 0.951 . S
H1760 C1780 0.950 . S
H1761 C1781 0.950 . S
H1762 C1783 0.950 . S
H1763 C1786 0.950 . S
H1764 C1787 0.950 . S
H1765 C1789 0.950 . S
H1766 C1790 0.950 . S
H1767 C1791 0.951 1_565 S
H1768 C1793 0.951 . S
H1769 C1795 0.950 . S
H1770 C1796 0.950 . S
H1771 C1798 0.950 . S
H1772 C1801 0.950 . S
H1773 C1802 0.950 . S
H1774 C1804 0.950 . S
H1775 C1805 0.950 . S
C1776 H1758 0.951 . S
C1776 C1777 1.366 . S
C1776 C1778 1.388 . S
C1777 C1776 1.366 . S
C1777 C1781 1.385 . S
C1778 H1759 0.951 . S
C1778 C1776 1.388 . S
C1778 C1779 1.366 . S
C1779 C1778 1.366 . S
C1779 C1780 1.414 . S
C1779 C1782 1.499 . S
C1780 H1760 0.950 . S
C1780 C1779 1.414 . S
C1780 C1781 1.374 . S
C1781 H1761 0.950 . S
C1781 C1777 1.385 . S
C1781 C1780 1.374 . S
C1782 C1779 1.499 . S
C1782 C1783 1.373 . S
C1782 C1784 1.389 . S
C1783 H1762 0.950 . S
C1783 C1782 1.373 . S
C1783 C1799 1.377 . S
C1784 C1782 1.389 . S
C1784 C1785 1.524 . S
C1784 C1798 1.377 . S
C1785 C1784 1.524 . S
C1785 C1786 1.397 . S
C1785 C1790 1.363 . S
C1786 H1763 0.950 . S
C1786 C1785 1.397 . S
C1786 C1787 1.334 . S
C1787 H1764 0.950 . S
C1787 C1786 1.334 . S
C1787 C1788 1.287 . S
C1788 C1787 1.287 . S
C1788 C1789 1.524 . S
C1788 H1807 0.913 . S
C1789 H1765 0.950 . S
C1789 C1788 1.524 . S
C1789 C1790 1.415 . S
C1790 H1766 0.950 . S
C1790 C1785 1.363 . S
C1790 C1789 1.415 . S
C1791 H1767 0.951 1_545 S
C1791 C1792 1.366 1_545 S
C1791 C1793 1.388 . S
C1792 C1791 1.366 1_565 S
C1792 C1796 1.385 . S
C1793 H1768 0.951 . S
C1793 C1791 1.388 . S
C1793 C1794 1.366 . S
C1794 C1793 1.366 . S
C1794 C1795 1.414 . S
C1794 C1797 1.499 . S
C1795 H1769 0.950 . S
C1795 C1794 1.414 . S
C1795 C1796 1.374 1_545 S
C1796 H1770 0.950 . S
C1796 C1792 1.385 . S
C1796 C1795 1.374 1_565 S
C1797 C1794 1.499 . S
C1797 C1798 1.373 . S
C1797 C1799 1.389 . S
C1798 H1771 0.950 . S
C1798 C1784 1.377 . S
C1798 C1797 1.373 . S
C1799 C1783 1.377 . S
C1799 C1797 1.389 . S
C1799 C1800 1.524 . S
C1800 C1799 1.524 . S
C1800 C1801 1.397 . S
C1800 C1805 1.363 . S
C1801 H1772 0.950 . S
C1801 C1800 1.397 . S
C1801 C1802 1.334 1_545 S
C1802 H1773 0.950 . S
C1802 C1801 1.334 1_565 S
C1802 C1803 1.287 . S
C1803 C1802 1.287 . S
C1803 C1804 1.524 1_565 S
C1803 H1806 0.999 . S
C1804 H1774 0.950 . S
C1804 C1803 1.524 1_545 S
C1804 C1805 1.415 . S
C1805 H1775 0.950 . S
C1805 C1800 1.363 . S
C1805 C1804 1.415 . S
H1806 C1803 0.999 . S
H1807 C1788 0.913 . S
C227 C185 1.509 . S
C242 C3 1.509 . S
C277 C30 1.509 . S
C292 C4 1.509 . S
C327 C153 1.509 . S
C342 C17 1.509 . S
C377 C16 1.509 . S
C392 C96 1.509 . S
C427 C29 1.509 . S
C442 C159 1.509 . S
C477 C127 1.509 . S
C492 C49 1.509 . S
C527 C44 1.509 . S
C542 C68 1.509 . S
C577 C135 1.509 . S
C592 C55 1.509 . S
C627 C56 1.509 . S
C642 C82 1.509 . S
C677 C205 1.509 . S
C692 C69 1.509 . S
C727 C107 1.509 . S
C742 C81 1.509 . S
C777 C179 1.509 . S
C792 C101 1.509 . S
C827 C108 1.509 . S
C842 C140 1.509 . S
C877 C200 1.509 . S
C892 C122 1.509 . S
C927 C148 1.509 . S
C942 C174 1.509 . S
C977 C186 1.509 . S
C992 C160 1.509 . S
C1027 C70 1.597 . S
C1042 C10 1.597 . S
C1077 C5 1.598 . S
C1092 C75 1.597 . S
C1127 C18 1.597 . S
C1142 C62 1.597 . S
C1177 C57 1.598 . S
C1192 C23 1.597 . S
C1227 C94 1.597 . S
C1242 C36 1.597 . S
C1277 C95 1.597 . S
C1292 C31 1.598 . S
C1327 C88 1.597 . S
C1342 C42 1.597 . S
C1377 C43 1.597 . S
C1392 C83 1.598 . S
C1427 C172 1.597 . S
C1442 C114 1.597 . S
C1477 C109 1.598 . S
C1492 C173 1.597 . S
C1527 C120 1.597 . S
C1542 C166 1.597 . S
C1577 C161 1.598 . S
C1592 C121 1.597 . S
C1627 C198 1.597 . S
C1642 C134 1.597 . S
C1677 C199 1.597 . S
C1692 C133 1.598 . S
C1727 C146 1.597 . S
C1742 C192 1.597 . S
C1777 C187 1.598 . S
C1792 C147 1.597 . S
