# Generated by pormake.
# Topology umn, (4)-cn, num edge types: 1
# Building blocks:
#     Node 0, Type 0, BuildingBlock: ESEHIV_clean_sbu_0, # of connection points: 4
#     Node 1, Type 0, BuildingBlock: ESEHIV_clean_sbu_0, # of connection points: 4
#     Node 2, Type 0, BuildingBlock: ESEHIV_clean_sbu_0, # of connection points: 4
#     Node 3, Type 0, BuildingBlock: ESEHIV_clean_sbu_0, # of connection points: 4
#     Node 4, Type 0, BuildingBlock: ESEHIV_clean_sbu_0, # of connection points: 4
#     Node 5, Type 0, BuildingBlock: ESEHIV_clean_sbu_0, # of connection points: 4
#     Node 6, Type 0, BuildingBlock: ESEHIV_clean_sbu_0, # of connection points: 4
#     Node 7, Type 0, BuildingBlock: ESEHIV_clean_sbu_0, # of connection points: 4
#     Node 8, Type 0, BuildingBlock: ESEHIV_clean_sbu_0, # of connection points: 4
#     Node 9, Type 0, BuildingBlock: ESEHIV_clean_sbu_0, # of connection points: 4
#     Node 10, Type 0, BuildingBlock: ESEHIV_clean_sbu_0, # of connection points: 4
#     Node 11, Type 0, BuildingBlock: ESEHIV_clean_sbu_0, # of connection points: 4
#     Node 12, Type 0, BuildingBlock: ESEHIV_clean_sbu_0, # of connection points: 4
#     Node 13, Type 0, BuildingBlock: ESEHIV_clean_sbu_0, # of connection points: 4
#     Node 14, Type 0, BuildingBlock: ESEHIV_clean_sbu_0, # of connection points: 4
#     Node 15, Type 0, BuildingBlock: ESEHIV_clean_sbu_0, # of connection points: 4
#     Node 16, Type 0, BuildingBlock: ESEHIV_clean_sbu_0, # of connection points: 4
#     Node 17, Type 0, BuildingBlock: ESEHIV_clean_sbu_0, # of connection points: 4
#     Node 18, Type 0, BuildingBlock: ESEHIV_clean_sbu_0, # of connection points: 4
#     Node 19, Type 0, BuildingBlock: ESEHIV_clean_sbu_0, # of connection points: 4
#     Node 20, Type 0, BuildingBlock: ESEHIV_clean_sbu_0, # of connection points: 4
#     Node 21, Type 0, BuildingBlock: ESEHIV_clean_sbu_0, # of connection points: 4
#     Node 22, Type 0, BuildingBlock: ESEHIV_clean_sbu_0, # of connection points: 4
#     Node 23, Type 0, BuildingBlock: ESEHIV_clean_sbu_0, # of connection points: 4
#     Node 24, Type 0, BuildingBlock: ESEHIV_clean_sbu_0, # of connection points: 4
#     Node 25, Type 0, BuildingBlock: ESEHIV_clean_sbu_0, # of connection points: 4
#     Node 26, Type 0, BuildingBlock: ESEHIV_clean_sbu_0, # of connection points: 4
#     Node 27, Type 0, BuildingBlock: ESEHIV_clean_sbu_0, # of connection points: 4
#     Node 28, Type 0, BuildingBlock: ESEHIV_clean_sbu_0, # of connection points: 4
#     Node 29, Type 0, BuildingBlock: ESEHIV_clean_sbu_0, # of connection points: 4
#     Node 30, Type 0, BuildingBlock: ESEHIV_clean_sbu_0, # of connection points: 4
#     Node 31, Type 0, BuildingBlock: ESEHIV_clean_sbu_0, # of connection points: 4
#     Node 32, Type 0, BuildingBlock: ESEHIV_clean_sbu_0, # of connection points: 4
#     Node 33, Type 0, BuildingBlock: ESEHIV_clean_sbu_0, # of connection points: 4
#     Node 34, Type 0, BuildingBlock: ESEHIV_clean_sbu_0, # of connection points: 4
#     Node 35, Type 0, BuildingBlock: ESEHIV_clean_sbu_0, # of connection points: 4
#     Edge 36, Type (0, 0), BuildingBlock: KIFKEQ_clean_linker_1, # of connection points: 2
#     Edge 37, Type (0, 0), BuildingBlock: KIFKEQ_clean_linker_1, # of connection points: 2
#     Edge 38, Type (0, 0), BuildingBlock: KIFKEQ_clean_linker_1, # of connection points: 2
#     Edge 39, Type (0, 0), BuildingBlock: KIFKEQ_clean_linker_1, # of connection points: 2
#     Edge 40, Type (0, 0), BuildingBlock: KIFKEQ_clean_linker_1, # of connection points: 2
#     Edge 41, Type (0, 0), BuildingBlock: KIFKEQ_clean_linker_1, # of connection points: 2
#     Edge 42, Type (0, 0), BuildingBlock: KIFKEQ_clean_linker_1, # of connection points: 2
#     Edge 43, Type (0, 0), BuildingBlock: KIFKEQ_clean_linker_1, # of connection points: 2
#     Edge 44, Type (0, 0), BuildingBlock: KIFKEQ_clean_linker_1, # of connection points: 2
#     Edge 45, Type (0, 0), BuildingBlock: KIFKEQ_clean_linker_1, # of connection points: 2
#     Edge 46, Type (0, 0), BuildingBlock: KIFKEQ_clean_linker_1, # of connection points: 2
#     Edge 47, Type (0, 0), BuildingBlock: KIFKEQ_clean_linker_1, # of connection points: 2
#     Edge 48, Type (0, 0), BuildingBlock: KIFKEQ_clean_linker_1, # of connection points: 2
#     Edge 49, Type (0, 0), BuildingBlock: KIFKEQ_clean_linker_1, # of connection points: 2
#     Edge 50, Type (0, 0), BuildingBlock: KIFKEQ_clean_linker_1, # of connection points: 2
#     Edge 51, Type (0, 0), BuildingBlock: KIFKEQ_clean_linker_1, # of connection points: 2
#     Edge 52, Type (0, 0), BuildingBlock: KIFKEQ_clean_linker_1, # of connection points: 2
#     Edge 53, Type (0, 0), BuildingBlock: KIFKEQ_clean_linker_1, # of connection points: 2
#     Edge 54, Type (0, 0), BuildingBlock: KIFKEQ_clean_linker_1, # of connection points: 2
#     Edge 55, Type (0, 0), BuildingBlock: KIFKEQ_clean_linker_1, # of connection points: 2
#     Edge 56, Type (0, 0), BuildingBlock: KIFKEQ_clean_linker_1, # of connection points: 2
#     Edge 57, Type (0, 0), BuildingBlock: KIFKEQ_clean_linker_1, # of connection points: 2
#     Edge 58, Type (0, 0), BuildingBlock: KIFKEQ_clean_linker_1, # of connection points: 2
#     Edge 59, Type (0, 0), BuildingBlock: KIFKEQ_clean_linker_1, # of connection points: 2
#     Edge 60, Type (0, 0), BuildingBlock: KIFKEQ_clean_linker_1, # of connection points: 2
#     Edge 61, Type (0, 0), BuildingBlock: KIFKEQ_clean_linker_1, # of connection points: 2
#     Edge 62, Type (0, 0), BuildingBlock: KIFKEQ_clean_linker_1, # of connection points: 2
#     Edge 63, Type (0, 0), BuildingBlock: KIFKEQ_clean_linker_1, # of connection points: 2
#     Edge 64, Type (0, 0), BuildingBlock: KIFKEQ_clean_linker_1, # of connection points: 2
#     Edge 65, Type (0, 0), BuildingBlock: KIFKEQ_clean_linker_1, # of connection points: 2
#     Edge 66, Type (0, 0), BuildingBlock: KIFKEQ_clean_linker_1, # of connection points: 2
#     Edge 67, Type (0, 0), BuildingBlock: KIFKEQ_clean_linker_1, # of connection points: 2
#     Edge 68, Type (0, 0), BuildingBlock: KIFKEQ_clean_linker_1, # of connection points: 2
#     Edge 69, Type (0, 0), BuildingBlock: KIFKEQ_clean_linker_1, # of connection points: 2
#     Edge 70, Type (0, 0), BuildingBlock: KIFKEQ_clean_linker_1, # of connection points: 2
#     Edge 71, Type (0, 0), BuildingBlock: KIFKEQ_clean_linker_1, # of connection points: 2
#     Edge 72, Type (0, 0), BuildingBlock: KIFKEQ_clean_linker_1, # of connection points: 2
#     Edge 73, Type (0, 0), BuildingBlock: KIFKEQ_clean_linker_1, # of connection points: 2
#     Edge 74, Type (0, 0), BuildingBlock: KIFKEQ_clean_linker_1, # of connection points: 2
#     Edge 75, Type (0, 0), BuildingBlock: KIFKEQ_clean_linker_1, # of connection points: 2
#     Edge 76, Type (0, 0), BuildingBlock: KIFKEQ_clean_linker_1, # of connection points: 2
#     Edge 77, Type (0, 0), BuildingBlock: KIFKEQ_clean_linker_1, # of connection points: 2
#     Edge 78, Type (0, 0), BuildingBlock: KIFKEQ_clean_linker_1, # of connection points: 2
#     Edge 79, Type (0, 0), BuildingBlock: KIFKEQ_clean_linker_1, # of connection points: 2
#     Edge 80, Type (0, 0), BuildingBlock: KIFKEQ_clean_linker_1, # of connection points: 2
#     Edge 81, Type (0, 0), BuildingBlock: KIFKEQ_clean_linker_1, # of connection points: 2
#     Edge 82, Type (0, 0), BuildingBlock: KIFKEQ_clean_linker_1, # of connection points: 2
#     Edge 83, Type (0, 0), BuildingBlock: KIFKEQ_clean_linker_1, # of connection points: 2
#     Edge 84, Type (0, 0), BuildingBlock: KIFKEQ_clean_linker_1, # of connection points: 2
#     Edge 85, Type (0, 0), BuildingBlock: KIFKEQ_clean_linker_1, # of connection points: 2
#     Edge 86, Type (0, 0), BuildingBlock: KIFKEQ_clean_linker_1, # of connection points: 2
#     Edge 87, Type (0, 0), BuildingBlock: KIFKEQ_clean_linker_1, # of connection points: 2
#     Edge 88, Type (0, 0), BuildingBlock: KIFKEQ_clean_linker_1, # of connection points: 2
#     Edge 89, Type (0, 0), BuildingBlock: KIFKEQ_clean_linker_1, # of connection points: 2
#     Edge 90, Type (0, 0), BuildingBlock: KIFKEQ_clean_linker_1, # of connection points: 2
#     Edge 91, Type (0, 0), BuildingBlock: KIFKEQ_clean_linker_1, # of connection points: 2
#     Edge 92, Type (0, 0), BuildingBlock: KIFKEQ_clean_linker_1, # of connection points: 2
#     Edge 93, Type (0, 0), BuildingBlock: KIFKEQ_clean_linker_1, # of connection points: 2
#     Edge 94, Type (0, 0), BuildingBlock: KIFKEQ_clean_linker_1, # of connection points: 2
#     Edge 95, Type (0, 0), BuildingBlock: KIFKEQ_clean_linker_1, # of connection points: 2
#     Edge 96, Type (0, 0), BuildingBlock: KIFKEQ_clean_linker_1, # of connection points: 2
#     Edge 97, Type (0, 0), BuildingBlock: KIFKEQ_clean_linker_1, # of connection points: 2
#     Edge 98, Type (0, 0), BuildingBlock: KIFKEQ_clean_linker_1, # of connection points: 2
#     Edge 99, Type (0, 0), BuildingBlock: KIFKEQ_clean_linker_1, # of connection points: 2
#     Edge 100, Type (0, 0), BuildingBlock: KIFKEQ_clean_linker_1, # of connection points: 2
#     Edge 101, Type (0, 0), BuildingBlock: KIFKEQ_clean_linker_1, # of connection points: 2
#     Edge 102, Type (0, 0), BuildingBlock: KIFKEQ_clean_linker_1, # of connection points: 2
#     Edge 103, Type (0, 0), BuildingBlock: KIFKEQ_clean_linker_1, # of connection points: 2
#     Edge 104, Type (0, 0), BuildingBlock: KIFKEQ_clean_linker_1, # of connection points: 2
#     Edge 105, Type (0, 0), BuildingBlock: KIFKEQ_clean_linker_1, # of connection points: 2
#     Edge 106, Type (0, 0), BuildingBlock: KIFKEQ_clean_linker_1, # of connection points: 2
#     Edge 107, Type (0, 0), BuildingBlock: KIFKEQ_clean_linker_1, # of connection points: 2
# Relax obj value: 0.199
# Max RMSD: 0.205
# Mean RMSD: 0.205
data_MOF--net-umn--node1-ESEHIV_clean_sbu_0--edge1-KIFKEQ_clean_linker_1
_symmetry_space_group_name_H-M    P1
_symmetry_Int_Tables_number       1
_symmetry_cell_setting            triclinic
loop_
_symmetry_equiv_pos_as_xyz
'x, y, z'
_cell_length_a     99.964317
_cell_length_b     100.0978
_cell_length_c     36.066258
_cell_angle_alpha  90.083504
_cell_angle_beta   89.807195
_cell_angle_gamma 120.03195
loop_
_atom_site_label
_atom_site_type_symbol
_atom_site_fract_x
_atom_site_fract_y
_atom_site_fract_z
_atom_type_partial_charge
Cu0 Cu 0.359 0.09597 0.24514 0.0
N1 N 0.33849 0.08202 0.23311 0.0
N2 N 0.31681 0.05919 0.23843 0.0
C3 C 0.33239 0.06685 0.23933 0.0
C4 C 0.31293 0.07001 0.2308 0.0
C5 C 0.32632 0.0841 0.2278 0.0
O6 O 0.37213 0.09042 0.21588 0.0
C7 C 0.35059 0.09542 0.31819 0.0
O8 O 0.34257 0.10081 0.30165 0.0
H9 H 0.33929 0.06189 0.24836 0.0
H10 H 0.32687 0.09511 0.22571 0.0
N11 N 0.3643 0.11657 0.23713 0.0
N12 N 0.36272 0.13762 0.22395 0.0
C13 C 0.35682 0.12235 0.21768 0.0
C14 C 0.3755 0.12866 0.25559 0.0
C15 C 0.37458 0.14162 0.24755 0.0
C16 C 0.3714 0.09075 0.1806 0.0
O17 O 0.36254 0.09553 0.16582 0.0
H18 H 0.34709 0.1155 0.19986 0.0
H19 H 0.38325 0.1279 0.2752 0.0
O20 O 0.35982 0.09298 0.29859 0.0
H21 H 0.30128 0.0681 0.22999 0.0
H22 H 0.38152 0.15289 0.25996 0.0
Cu23 Cu 0.91937 0.25978 0.23216 0.0
N24 N 0.93306 0.25251 0.2248 0.0
N25 N 0.95589 0.25372 0.2295 0.0
C26 C 0.94836 0.26173 0.22869 0.0
C27 C 0.94488 0.23878 0.22582 0.0
C28 C 0.93076 0.23806 0.22271 0.0
O29 O 0.92764 0.27878 0.20268 0.0
C30 C 0.91538 0.25222 0.30803 0.0
O31 O 0.90876 0.23818 0.29445 0.0
H32 H 0.95371 0.274 0.23397 0.0
H33 H 0.91964 0.22767 0.22125 0.0
N34 N 0.89942 0.24544 0.21545 0.0
N35 N 0.87775 0.22334 0.20168 0.0
C36 C 0.89145 0.22996 0.21966 0.0
C37 C 0.89041 0.24872 0.19414 0.0
C38 C 0.87708 0.23518 0.18567 0.0
C39 C 0.92326 0.28874 0.20419 0.0
O40 O 0.91246 0.28677 0.22805 0.0
H41 H 0.89559 0.22364 0.2355 0.0
H42 H 0.89348 0.26014 0.18465 0.0
O43 O 0.9201 0.26359 0.28571 0.0
H44 H 0.94683 0.22908 0.22695 0.0
H45 H 0.86787 0.23415 0.16807 0.0
Cu46 Cu 0.74625 0.65736 0.22735 0.0
N47 N 0.75586 0.67875 0.22306 0.0
N48 N 0.75824 0.70194 0.23077 0.0
C49 C 0.7486 0.68699 0.22238 0.0
C50 C 0.77217 0.70325 0.23626 0.0
C51 C 0.77069 0.68892 0.23129 0.0
O52 O 0.7269 0.64828 0.19923 0.0
C53 C 0.73678 0.65892 0.30002 0.0
O54 O 0.72945 0.66491 0.28284 0.0
H55 H 0.73618 0.68182 0.22018 0.0
H56 H 0.77946 0.68592 0.23691 0.0
N57 N 0.75965 0.6512 0.20755 0.0
N58 N 0.78154 0.65089 0.19573 0.0
C59 C 0.77393 0.65522 0.21966 0.0
C60 C 0.75806 0.64394 0.1751 0.0
C61 C 0.77147 0.64368 0.1678 0.0
C62 C 0.71823 0.63389 0.19305 0.0
O63 O 0.72179 0.6241 0.20792 0.0
H64 H 0.77878 0.66165 0.24493 0.0
H65 H 0.74816 0.63984 0.15704 0.0
O66 O 0.74359 0.65339 0.28071 0.0
H67 H 0.78234 0.71351 0.24614 0.0
H68 H 0.77387 0.6393 0.14272 0.0
Cu69 Cu 0.09781 0.35656 0.32299 0.0
N70 N 0.08354 0.33641 0.33629 0.0
N71 N 0.06105 0.31435 0.33392 0.0
C72 C 0.06884 0.3294 0.32477 0.0
C73 C 0.07129 0.31168 0.35189 0.0
C74 C 0.08523 0.32541 0.35348 0.0
O75 O 0.09238 0.37017 0.35038 0.0
C76 C 0.10591 0.35999 0.24537 0.0
O77 O 0.12015 0.36536 0.25684 0.0
H78 H 0.06418 0.33508 0.30803 0.0
H79 H 0.09591 0.32709 0.36519 0.0
N80 N 0.11778 0.36103 0.33598 0.0
N81 N 0.13903 0.35926 0.34492 0.0
C82 C 0.12442 0.35224 0.33159 0.0
C83 C 0.12851 0.37401 0.35264 0.0
C84 C 0.14159 0.37297 0.35817 0.0
C85 C 0.08084 0.37168 0.34177 0.0
O86 O 0.07299 0.36484 0.31172 0.0
H87 H 0.11867 0.341 0.31851 0.0
H88 H 0.12686 0.38352 0.36049 0.0
O89 O 0.09529 0.35691 0.26913 0.0
H90 H 0.06896 0.3006 0.36246 0.0
H91 H 0.15204 0.38157 0.37165 0.0
Cu92 Cu 0.6605 0.74506 0.31276 0.0
N93 N 0.68141 0.75417 0.32484 0.0
N94 N 0.7044 0.75557 0.32281 0.0
C95 C 0.68899 0.74623 0.32598 0.0
C96 C 0.70667 0.76997 0.31993 0.0
C97 C 0.69248 0.76908 0.32112 0.0
O98 O 0.64896 0.72575 0.34073 0.0
C99 C 0.66663 0.75382 0.23891 0.0
O100 O 0.67188 0.76734 0.25485 0.0
H101 H 0.68322 0.73377 0.32429 0.0
H102 H 0.69044 0.77847 0.31504 0.0
N103 N 0.65263 0.75824 0.32259 0.0
N104 N 0.65147 0.7797 0.33318 0.0
C105 C 0.65981 0.77255 0.3374 0.0
C106 C 0.63912 0.75614 0.30955 0.0
C107 C 0.63837 0.76931 0.31596 0.0
C108 C 0.64952 0.72632 0.37607 0.0
O109 O 0.65751 0.73987 0.39206 0.0
H110 H 0.67127 0.77797 0.3491 0.0
H111 H 0.63079 0.74603 0.29448 0.0
O112 O 0.66002 0.74174 0.25912 0.0
H113 H 0.71763 0.78019 0.31383 0.0
H114 H 0.62916 0.7713 0.30724 0.0
Cu115 Cu 0.26635 0.91677 0.32806 0.0
N116 N 0.25973 0.93063 0.34101 0.0
N117 N 0.26078 0.95344 0.34377 0.0
C118 C 0.26892 0.94601 0.34316 0.0
C119 C 0.2458 0.94219 0.34351 0.0
C120 C 0.2452 0.92814 0.34188 0.0
O121 O 0.28565 0.92281 0.35485 0.0
C122 C 0.27195 0.92844 0.25359 0.0
O123 O 0.27732 0.94187 0.2699 0.0
H124 H 0.28133 0.95169 0.34002 0.0
H125 H 0.23489 0.91703 0.33866 0.0
N126 N 0.25156 0.89711 0.34466 0.0
N127 N 0.22895 0.87572 0.35621 0.0
C128 C 0.23638 0.88897 0.33643 0.0
C129 C 0.25388 0.88865 0.37002 0.0
C130 C 0.24 0.87548 0.37719 0.0
C131 C 0.29897 0.93418 0.34719 0.0
O132 O 0.30079 0.94224 0.31699 0.0
H133 H 0.23084 0.89293 0.3172 0.0
H134 H 0.26486 0.89201 0.38297 0.0
O135 O 0.26766 0.91642 0.27352 0.0
H136 H 0.236 0.94398 0.34197 0.0
H137 H 0.23823 0.86651 0.39659 0.0
Cu138 Cu 0.656 0.91477 0.81708 0.0
N139 N 0.67674 0.92704 0.83047 0.0
N140 N 0.69942 0.94901 0.83136 0.0
C141 C 0.68391 0.94251 0.83222 0.0
C142 C 0.70218 0.93716 0.82941 0.0
C143 C 0.68818 0.92362 0.82887 0.0
O144 O 0.64352 0.92055 0.84824 0.0
C145 C 0.66371 0.91512 0.74331 0.0
O146 O 0.67064 0.90832 0.75867 0.0
H147 H 0.6779 0.94894 0.82969 0.0
H148 H 0.6866 0.9123 0.82345 0.0
N149 N 0.64937 0.89376 0.82338 0.0
N150 N 0.6496 0.87185 0.83437 0.0
C151 C 0.65649 0.88718 0.84109 0.0
C152 C 0.6374 0.88216 0.80556 0.0
C153 C 0.63748 0.86866 0.81226 0.0
C154 C 0.64217 0.93239 0.84243 0.0
O155 O 0.6486 0.94076 0.81267 0.0
H156 H 0.66673 0.89356 0.85778 0.0
H157 H 0.62965 0.88359 0.78725 0.0
O158 O 0.65549 0.91862 0.76387 0.0
H159 H 0.71343 0.93826 0.82549 0.0
H160 H 0.62979 0.85756 0.79985 0.0
Cu161 Cu 0.09433 0.74192 0.80754 0.0
N162 N 0.07984 0.74817 0.81386 0.0
N163 N 0.05749 0.74736 0.80336 0.0
C164 C 0.06575 0.74021 0.79882 0.0
C165 C 0.06681 0.76045 0.82212 0.0
C166 C 0.08067 0.7609 0.82874 0.0
O167 O 0.08563 0.72242 0.83505 0.0
C168 C 0.09685 0.7513 0.73423 0.0
O169 O 0.09918 0.7638 0.7517 0.0
H170 H 0.06197 0.72969 0.78319 0.0
H171 H 0.09071 0.77004 0.84238 0.0
N172 N 0.11348 0.75659 0.8274 0.0
N173 N 0.1345 0.77899 0.84242 0.0
C174 C 0.121 0.77209 0.82359 0.0
C175 C 0.12248 0.75363 0.84959 0.0
C176 C 0.13542 0.76736 0.85879 0.0
C177 C 0.09092 0.71328 0.83917 0.0
O178 O 0.10366 0.71614 0.82181 0.0
H179 H 0.11669 0.77819 0.80735 0.0
H180 H 0.11974 0.74229 0.85895 0.0
O181 O 0.09536 0.73992 0.75349 0.0
H182 H 0.06391 0.76913 0.83009 0.0
H183 H 0.14463 0.76867 0.87686 0.0
Cu184 Cu 0.26458 0.35121 0.81781 0.0
N185 N 0.25765 0.33084 0.83224 0.0
N186 N 0.25813 0.30885 0.83748 0.0
C187 C 0.26656 0.32434 0.83412 0.0
C188 C 0.24329 0.30552 0.839 0.0
C189 C 0.24303 0.31912 0.83592 0.0
O190 O 0.28385 0.3646 0.84459 0.0
C191 C 0.27081 0.34497 0.7436 0.0
O192 O 0.27669 0.33739 0.75997 0.0
H193 H 0.27891 0.33069 0.82942 0.0
H194 H 0.23282 0.32015 0.83408 0.0
N195 N 0.25004 0.35669 0.83271 0.0
N196 N 0.22765 0.35617 0.84283 0.0
C197 C 0.23478 0.34947 0.8253 0.0
C198 C 0.25274 0.36853 0.85508 0.0
C199 C 0.23902 0.36826 0.86135 0.0
C200 C 0.29719 0.36643 0.83763 0.0
O201 O 0.29911 0.35988 0.80811 0.0
H202 H 0.229 0.33927 0.80815 0.0
H203 H 0.26391 0.37664 0.86652 0.0
O204 O 0.26595 0.35229 0.76334 0.0
H205 H 0.23329 0.29403 0.83995 0.0
H206 H 0.2376 0.37634 0.87849 0.0
Cu207 Cu 0.91782 0.65541 0.71785 0.0
N208 N 0.93041 0.67612 0.70461 0.0
N209 N 0.95225 0.69881 0.69975 0.0
C210 C 0.94581 0.68331 0.69985 0.0
C211 C 0.94035 0.70146 0.70333 0.0
C212 C 0.92689 0.68744 0.70618 0.0
O213 O 0.92455 0.64291 0.68995 0.0
C214 C 0.9305 0.66233 0.79117 0.0
O215 O 0.94353 0.67129 0.77379 0.0
H216 H 0.95233 0.67736 0.70086 0.0
H217 H 0.91555 0.68576 0.71201 0.0
N218 N 0.89763 0.64938 0.70333 0.0
N219 N 0.8756 0.64965 0.69453 0.0
C220 C 0.8889 0.65548 0.71406 0.0
C221 C 0.88954 0.63919 0.67651 0.0
C222 C 0.87596 0.63931 0.67105 0.0
C223 C 0.93656 0.64194 0.69652 0.0
O224 O 0.94498 0.64894 0.72573 0.0
H225 H 0.89242 0.66427 0.73521 0.0
H226 H 0.89354 0.63261 0.66095 0.0
O227 O 0.91836 0.65387 0.7722 0.0
H228 H 0.94139 0.7127 0.70644 0.0
H229 H 0.86743 0.63284 0.65005 0.0
Cu230 Cu 0.35299 0.26155 0.71775 0.0
N231 N 0.33217 0.25557 0.71609 0.0
N232 N 0.3109 0.25669 0.72882 0.0
C233 C 0.32645 0.26462 0.72626 0.0
C234 C 0.30666 0.24204 0.71943 0.0
C235 C 0.31985 0.24139 0.71156 0.0
O236 O 0.36412 0.2817 0.6932 0.0
C237 C 0.3572 0.27161 0.79265 0.0
O238 O 0.35664 0.28347 0.77899 0.0
H239 H 0.33367 0.27658 0.73407 0.0
H240 H 0.32045 0.23116 0.70493 0.0
N241 N 0.3555 0.24644 0.69351 0.0
N242 N 0.35272 0.22329 0.68068 0.0
C243 C 0.35095 0.23215 0.70636 0.0
C244 C 0.36028 0.24665 0.6585 0.0
C245 C 0.35868 0.23244 0.65059 0.0
C246 C 0.37749 0.28788 0.67834 0.0
O247 O 0.38566 0.28095 0.68097 0.0
H248 H 0.34608 0.22827 0.73372 0.0
H249 H 0.36407 0.25625 0.63956 0.0
O250 O 0.3574 0.26179 0.77045 0.0
H251 H 0.29496 0.23239 0.71952 0.0
H252 H 0.36106 0.22894 0.62414 0.0
Cu253 Cu 0.74628 0.09242 0.72523 0.0
N254 N 0.75371 0.07873 0.72157 0.0
N255 N 0.75237 0.05613 0.73275 0.0
C256 C 0.74457 0.06333 0.72266 0.0
C257 C 0.7672 0.06751 0.73651 0.0
C258 C 0.76797 0.08143 0.72979 0.0
O259 O 0.72691 0.08347 0.69721 0.0
C260 C 0.73581 0.08236 0.79808 0.0
O261 O 0.72687 0.06925 0.78106 0.0
H262 H 0.73217 0.05772 0.71953 0.0
H263 H 0.77789 0.0927 0.73448 0.0
N264 N 0.76083 0.1114 0.70459 0.0
N265 N 0.78338 0.13253 0.69085 0.0
C266 C 0.7758 0.12037 0.71408 0.0
C267 C 0.75881 0.11817 0.67465 0.0
C268 C 0.77264 0.13119 0.66615 0.0
C269 C 0.7184 0.08951 0.69342 0.0
O270 O 0.72212 0.10242 0.71093 0.0
H271 H 0.78112 0.11772 0.73677 0.0
H272 H 0.74812 0.11373 0.65941 0.0
O273 O 0.74403 0.0944 0.77862 0.0
H274 H 0.77652 0.06609 0.74718 0.0
H275 H 0.77461 0.13894 0.64326 0.0
Cu276 Cu 0.02491 0.4285 0.57389 0.0
N277 N 1.00407 0.41674 0.56195 0.0
N278 N 0.98114 0.3951 0.5606 0.0
C279 C 0.99659 0.40134 0.55778 0.0
C280 C 0.97878 0.40708 0.56644 0.0
C281 C 0.99295 0.42041 0.5674 0.0
O282 O 0.03658 0.42112 0.54483 0.0
C283 C 0.02016 0.43108 0.64963 0.0
O284 O 0.01579 0.44054 0.63658 0.0
H285 H 1.00244 0.3947 0.55721 0.0
H286 H 0.99499 0.43168 0.57543 0.0
N287 N 0.03202 0.44942 0.56465 0.0
N288 N 0.03172 0.47107 0.55055 0.0
C289 C 0.02452 0.45556 0.54679 0.0
C290 C 0.04458 0.46147 0.57955 0.0
C291 C 0.04445 0.47482 0.57092 0.0
C292 C 0.03719 0.42249 0.50962 0.0
O293 O 0.03031 0.42927 0.49392 0.0
H294 H 0.01377 0.44872 0.53223 0.0
H295 H 0.05278 0.46052 0.59722 0.0
O296 O 0.02554 0.42507 0.62712 0.0
H297 H 0.96773 0.40612 0.57267 0.0
H298 H 0.05261 0.48626 0.58085 0.0
Cu299 Cu 0.58582 0.59972 0.562 0.0
N300 N 0.59956 0.59307 0.54878 0.0
N301 N 0.62006 0.58989 0.55318 0.0
C302 C 0.61221 0.59625 0.56834 0.0
C303 C 0.61206 0.58248 0.5225 0.0
C304 C 0.59933 0.58441 0.51995 0.0
O305 O 0.59213 0.61922 0.53604 0.0
C306 C 0.58506 0.58996 0.63459 0.0
O307 O 0.58167 0.57726 0.61645 0.0
H308 H 0.61572 0.60341 0.59293 0.0
H309 H 0.59055 0.57985 0.49866 0.0
N310 N 0.56578 0.58497 0.54771 0.0
N311 N 0.54456 0.56239 0.53512 0.0
C312 C 0.55946 0.5695 0.54635 0.0
C313 C 0.55454 0.58776 0.53696 0.0
C314 C 0.54147 0.57389 0.52915 0.0
C315 C 0.60572 0.63077 0.5393 0.0
O316 O 0.61529 0.62986 0.56268 0.0
H317 H 0.56573 0.56361 0.55311 0.0
H318 H 0.55577 0.5991 0.53521 0.0
O319 O 0.58687 0.60164 0.6162 0.0
H320 H 0.61514 0.5761 0.50339 0.0
H321 H 0.53045 0.5724 0.52047 0.0
Cu322 Cu 0.41666 0.99638 0.56097 0.0
N323 N 0.42655 0.01761 0.55275 0.0
N324 N 0.42931 0.04108 0.55733 0.0
C325 C 0.41941 0.02596 0.55145 0.0
C326 C 0.4433 0.04238 0.5616 0.0
C327 C 0.44158 0.02789 0.55854 0.0
O328 O 0.39683 0.98698 0.53477 0.0
C329 C 0.40903 1.00048 0.63402 0.0
O330 O 0.40195 0.00666 0.61654 0.0
H331 H 0.40696 0.02083 0.55109 0.0
H332 H 0.45041 0.02497 0.56413 0.0
N333 N 0.42923 0.98909 0.54161 0.0
N334 N 0.45059 0.98808 0.52776 0.0
C335 C 0.44398 0.99377 0.55095 0.0
C336 C 0.4263 0.97993 0.51186 0.0
C337 C 0.43938 0.97923 0.50334 0.0
C338 C 0.38762 0.97252 0.53117 0.0
O339 O 0.39083 0.96283 0.54796 0.0
H340 H 0.44996 1.00182 0.57317 0.0
H341 H 0.41562 0.97468 0.49638 0.0
O342 O 0.41497 0.99397 0.61504 0.0
H343 H 0.45369 0.05279 0.56989 0.0
H344 H 0.44061 0.97301 0.48025 0.0
Cu345 Cu 0.75885 0.6836 0.64796 0.0
N346 N 0.74592 0.66253 0.65484 0.0
N347 N 0.72578 0.63906 0.64441 0.0
C348 C 0.73381 0.65384 0.63289 0.0
C349 C 0.73317 0.63845 0.67511 0.0
C350 C 0.74566 0.65299 0.68143 0.0
O351 O 0.751 0.69418 0.67932 0.0
C352 C 0.76357 0.68121 0.5725 0.0
O353 O 0.77162 0.67528 0.58618 0.0
H354 H 0.73058 0.65851 0.60978 0.0
H355 H 0.75376 0.65643 0.70414 0.0
N356 N 0.77907 0.6893 0.66172 0.0
N357 N 0.80045 0.68826 0.67433 0.0
C358 C 0.78535 0.68017 0.66485 0.0
C359 C 0.79052 0.70363 0.66969 0.0
C360 C 0.80371 0.70304 0.67743 0.0
C361 C 0.75461 0.70827 0.67621 0.0
O362 O 0.76403 0.71664 0.64946 0.0
H363 H 0.77908 0.6679 0.65927 0.0
H364 H 0.78939 0.71382 0.66965 0.0
O365 O 0.75763 0.68672 0.5948 0.0
H366 H 0.72968 0.62832 0.6921 0.0
H367 H 0.81481 0.71275 0.68496 0.0
Cu368 Cu 0.32729 0.07576 0.66532 0.0
N369 N 0.34859 0.08505 0.6713 0.0
N370 N 0.37214 0.08822 0.66391 0.0
C371 C 0.35696 0.07798 0.66789 0.0
C372 C 0.37344 0.10227 0.66532 0.0
C373 C 0.35888 0.10028 0.67012 0.0
O374 O 0.31743 0.05583 0.69116 0.0
C375 C 0.32849 0.06715 0.59074 0.0
O376 O 0.33312 0.05823 0.60584 0.0
H377 H 0.3519 0.06563 0.66468 0.0
H378 H 0.35594 0.10929 0.66971 0.0
N379 N 0.32112 0.08904 0.68565 0.0
N380 N 0.32077 0.11088 0.69682 0.0
C381 C 0.32509 0.10323 0.67313 0.0
C382 C 0.31388 0.08754 0.71816 0.0
C383 C 0.3136 0.10095 0.72508 0.0
C384 C 0.30297 0.04779 0.69757 0.0
O385 O 0.29378 0.05249 0.68442 0.0
H386 H 0.33183 0.10815 0.64818 0.0
H387 H 0.30967 0.07765 0.73633 0.0
O388 O 0.32409 0.07449 0.61175 0.0
H389 H 0.384 0.11311 0.66072 0.0
H390 H 0.30882 0.10331 0.74953 0.0
Cu391 Cu 0.93432 0.25031 0.65467 0.0
N392 N 0.92686 0.26396 0.65816 0.0
N393 N 0.92795 0.28649 0.64793 0.0
C394 C 0.93589 0.27937 0.65747 0.0
C395 C 0.91316 0.27504 0.64405 0.0
C396 C 0.91254 0.26115 0.6502 0.0
O397 O 0.95391 0.25955 0.68193 0.0
C398 C 0.94334 0.25964 0.58063 0.0
O399 O 0.9518 0.27317 0.5963 0.0
H400 H 0.9483 0.28508 0.66052 0.0
H401 H 0.90267 0.24983 0.64549 0.0
N402 N 0.91976 0.23158 0.67621 0.0
N403 N 0.89706 0.21056 0.68939 0.0
C404 C 0.90504 0.2223 0.66532 0.0
C405 C 0.92121 0.22548 0.7081 0.0
C406 C 0.90727 0.21251 0.71623 0.0
C407 C 0.96187 0.25307 0.68829 0.0
O408 O 0.95739 0.23938 0.67408 0.0
H409 H 0.90024 0.22433 0.64056 0.0
H410 H 0.9315 0.23046 0.72501 0.0
O411 O 0.93607 0.24777 0.60127 0.0
H412 H 0.90377 0.27644 0.63378 0.0
H413 H 0.90472 0.2055 0.74091 0.0
Cu414 Cu 0.32609 0.2487 0.13878 0.0
N415 N 0.34689 0.26103 0.15134 0.0
N416 N 0.36969 0.28284 0.14992 0.0
C417 C 0.35423 0.27654 0.15231 0.0
C418 C 0.37224 0.27086 0.14767 0.0
C419 C 0.35817 0.25743 0.14847 0.0
O420 O 0.31385 0.25632 0.16436 0.0
C421 C 0.33261 0.24548 0.06525 0.0
O422 O 0.33812 0.23758 0.0818 0.0
H423 H 0.34829 0.28307 0.15007 0.0
H424 H 0.35638 0.24606 0.14279 0.0
N425 N 0.31879 0.22786 0.15005 0.0
N426 N 0.31865 0.20592 0.16354 0.0
C427 C 0.32631 0.22148 0.16679 0.0
C428 C 0.30574 0.21591 0.13664 0.0
C429 C 0.3056 0.2024 0.14488 0.0
C430 C 0.31452 0.25792 0.19954 0.0
O431 O 0.32328 0.25401 0.21833 0.0
H432 H 0.33754 0.22812 0.17939 0.0
H433 H 0.29731 0.21703 0.12023 0.0
O434 O 0.32579 0.2509 0.08492 0.0
H435 H 0.38334 0.27179 0.14236 0.0
H436 H 0.2968 0.19094 0.13658 0.0
Cu437 Cu 0.75848 0.0745 0.1452 0.0
N438 N 0.74661 0.08332 0.15845 0.0
N439 N 0.72756 0.08878 0.15472 0.0
C440 C 0.7349 0.08219 0.13796 0.0
C441 C 0.73503 0.09432 0.18719 0.0
C442 C 0.74684 0.09097 0.18935 0.0
O443 O 0.75163 0.0553 0.1735 0.0
C444 C 0.76199 0.08289 0.07006 0.0
O445 O 0.77109 0.09654 0.08451 0.0
H446 H 0.73134 0.07587 0.11212 0.0
H447 H 0.75477 0.09356 0.21217 0.0
N448 N 0.77923 0.08843 0.1559 0.0
N449 N 0.80127 0.11041 0.1673 0.0
C450 C 0.78584 0.10373 0.16214 0.0
C451 C 0.79082 0.08529 0.15738 0.0
C452 C 0.80441 0.0988 0.16436 0.0
C453 C 0.73787 0.04724 0.18597 0.0
O454 O 0.72766 0.05138 0.1778 0.0
H455 H 0.77953 0.1099 0.16169 0.0
H456 H 0.78947 0.07398 0.15325 0.0
O457 O 0.7557 0.07116 0.09149 0.0
H458 H 0.73198 0.10006 0.20822 0.0
H459 H 0.81572 0.09996 0.16714 0.0
Cu460 Cu 0.92993 0.67899 0.14289 0.0
N461 N 0.92037 0.65771 0.14933 0.0
N462 N 0.91938 0.63495 0.14714 0.0
C463 C 0.92824 0.65019 0.1538 0.0
C464 C 0.90531 0.63274 0.13836 0.0
C465 C 0.90595 0.64683 0.13976 0.0
O466 O 0.94846 0.6883 0.17428 0.0
C467 C 0.92354 0.67776 0.06719 0.0
O468 O 0.90964 0.6731 0.08052 0.0
H469 H 0.94064 0.65605 0.15765 0.0
H470 H 0.89696 0.64912 0.13099 0.0
N471 N 0.91628 0.68606 0.15524 0.0
N472 N 0.89436 0.68591 0.1696 0.0
C473 C 0.90202 0.67795 0.17022 0.0
C474 C 0.91777 0.69966 0.14514 0.0
C475 C 0.90435 0.69964 0.15401 0.0
C476 C 0.95686 0.70259 0.18205 0.0
O477 O 0.95347 0.71255 0.16754 0.0
H478 H 0.89721 0.66626 0.18024 0.0
H479 H 0.9276 0.70863 0.13037 0.0
O480 O 0.93473 0.68199 0.08984 0.0
H481 H 0.89563 0.62196 0.12893 0.0
H482 H 0.90187 0.70871 0.14735 0.0
Cu483 Cu 0.58867 0.99535 0.06141 0.0
N484 N 0.60191 0.01645 0.05559 0.0
N485 N 0.62201 0.0399 0.06641 0.0
C486 C 0.61443 0.02493 0.07658 0.0
C487 C 0.61397 0.04087 0.03755 0.0
C488 C 0.60148 0.02634 0.03104 0.0
O489 O 0.59807 0.98504 0.03431 0.0
C490 C 0.59709 0.99174 0.13499 0.0
O491 O 0.60832 0.99076 0.1186 0.0
H492 H 0.61816 0.0201 0.09823 0.0
H493 H 0.59279 0.02319 1.0098 0.0
N494 N 0.56949 0.99033 0.04123 0.0
N495 N 0.54842 0.99171 0.02678 0.0
C496 C 0.56129 0.99746 0.04792 0.0
C497 C 0.56154 0.97971 1.01508 0.0
C498 C 0.54856 0.9805 1.00616 0.0
C499 C 0.59261 0.97055 0.03049 0.0
O500 O 0.57972 0.96093 0.04767 0.0
H501 H 0.56503 0.00704 0.06695 0.0
H502 H 0.56509 0.97212 1.00275 0.0
O503 O 0.58682 0.99222 0.11512 0.0
H504 H 0.61691 0.05127 1.02219 0.0
H505 H 0.53994 0.9734 0.98591 0.0
Cu506 Cu 0.02609 0.59709 0.05987 0.0
N507 N 1.00562 0.59145 0.05134 0.0
N508 N 0.98355 0.59153 0.05982 0.0
C509 C 0.99813 0.5969 0.07161 0.0
C510 C 0.98171 0.58211 0.03104 0.0
C511 C 0.99543 0.58212 0.02578 0.0
O512 O 0.03924 0.6152 0.0292 0.0
C513 C 0.02211 0.58971 0.1354 0.0
O514 O 0.0148 0.57571 0.12155 0.0
H515 H 1.00337 0.60471 0.09472 0.0
H516 H 0.99786 0.57594 1.00466 0.0
N517 N 0.02975 0.58111 0.04657 0.0
N518 N 0.02695 0.55782 0.0354 0.0
C519 C 0.01984 0.56574 0.04567 0.0
C520 C 0.0435 0.58298 0.03617 0.0
C521 C 0.04184 0.5687 0.02927 0.0
C522 C 0.03874 0.62767 0.03074 0.0
O523 O 0.0298 0.6289 0.05563 0.0
H524 H 0.00777 0.56051 0.05324 0.0
H525 H 0.05404 0.59401 0.03391 0.0
O526 O 0.02894 0.60114 0.11327 0.0
H527 H 0.97137 0.57601 1.01442 0.0
H528 H 0.05092 0.56655 1.02019 0.0
Cu529 Cu 0.41237 0.42301 0.06064 0.0
N530 N 0.42253 0.4118 0.05471 0.0
N531 N 0.42465 0.3908 0.06194 0.0
C532 C 0.41514 0.39629 0.05388 0.0
C533 C 0.43862 0.40331 0.06784 0.0
C534 C 0.43729 0.41625 0.06336 0.0
O535 O 0.39378 0.41324 0.0296 0.0
C536 C 0.41977 0.42863 0.13515 0.0
O537 O 0.43324 0.43799 0.11995 0.0
H538 H 0.40269 0.38918 0.05211 0.0
H539 H 0.44607 0.4279 0.07019 0.0
N540 N 0.42533 0.44373 0.04713 0.0
N541 N 0.44669 0.4659 0.03202 0.0
C542 C 0.43972 0.45031 0.03271 0.0
C543 C 0.423 0.45553 0.05521 0.0
C544 C 0.43606 0.46916 0.04583 0.0
C545 C 0.38437 0.41819 0.02502 0.0
O546 O 0.38658 0.43048 0.04333 0.0
H547 H 0.44523 0.44384 0.02467 0.0
H548 H 0.4128 0.45436 0.06875 0.0
O549 O 0.40807 0.42149 0.11398 0.0
H550 H 0.44868 0.40305 0.07793 0.0
H551 H 0.4377 0.48058 0.05008 0.0
Cu552 Cu 0.68792 0.75884 0.8915 0.0
N553 N 0.66703 0.74431 0.88827 0.0
N554 N 0.64549 0.72192 0.89907 0.0
C555 C 0.66105 0.72939 0.89727 0.0
C556 C 0.64151 0.73258 0.89037 0.0
C557 C 0.65487 0.74642 0.88367 0.0
O558 O 0.69904 0.75007 0.86571 0.0
C559 C 0.69125 0.75186 0.96629 0.0
O560 O 0.69032 0.73933 0.95212 0.0
H561 H 0.66807 0.72441 0.90486 0.0
H562 H 0.65565 0.75738 0.87783 0.0
N563 N 0.69121 0.77704 0.86898 0.0
N564 N 0.68892 0.7977 0.85625 0.0
C565 C 0.68552 0.78606 0.88031 0.0
C566 C 0.69847 0.78315 0.83671 0.0
C567 C 0.69714 0.7959 0.82886 0.0
C568 C 0.7133 0.75721 0.85685 0.0
O569 O 0.72207 0.77161 0.86737 0.0
H570 H 0.67877 0.78391 0.90539 0.0
H571 H 0.70392 0.77836 0.81948 0.0
O572 O 0.69197 0.76223 0.94454 0.0
H573 H 0.62986 0.7307 0.8902 0.0
H574 H 0.70136 0.8029 0.80408 0.0
Cu575 Cu 0.25393 0.92721 0.90289 0.0
N576 N 0.26678 0.91878 0.89752 0.0
N577 N 0.28947 0.91949 0.89996 0.0
C578 C 0.28213 0.92738 0.89217 0.0
C579 C 0.27828 0.9053 0.91029 0.0
C580 C 0.26432 0.90491 0.90894 0.0
O581 O 0.26289 0.94605 0.87272 0.0
C582 C 0.24741 0.92018 0.9787 0.0
O583 O 0.23851 0.90625 0.96544 0.0
H584 H 0.28795 0.93968 0.88694 0.0
H585 H 0.25351 0.8957 0.91947 0.0
N586 N 0.23379 0.91348 0.88624 0.0
N587 N 0.21187 0.89187 0.87133 0.0
C588 C 0.22625 0.89791 0.88548 0.0
C589 C 0.22381 0.91739 0.87184 0.0
C590 C 0.21032 0.90413 0.8626 0.0
C591 C 0.25948 0.95669 0.87557 0.0
O592 O 0.24954 0.9555 0.90112 0.0
H593 H 0.23121 0.8911 0.89469 0.0
H594 H 0.22618 0.9291 0.8683 0.0
O595 O 0.25437 0.93139 0.95605 0.0
H596 H 0.28018 0.89629 0.92098 0.0
H597 H 0.2001 0.90358 0.85088 0.0
Cu598 Cu 0.07892 0.32245 0.90533 0.0
N599 N 0.08872 0.34378 0.89964 0.0
N600 N 0.09084 0.36689 0.9069 0.0
C601 C 0.08132 0.35189 0.89872 0.0
C602 C 0.10479 0.36834 0.913 0.0
C603 C 0.10345 0.35405 0.90859 0.0
O604 O 0.05998 0.31308 0.87544 0.0
C605 C 0.08716 0.32302 0.97945 0.0
O606 O 0.10013 0.32586 0.96337 0.0
H607 H 0.06888 0.34656 0.89673 0.0
H608 H 0.11218 0.35113 0.91555 0.0
N609 N 0.09217 0.31532 0.88959 0.0
N610 N 0.11395 0.31591 0.87177 0.0
C611 C 0.10614 0.32369 0.87345 0.0
C612 C 0.09093 0.30162 0.89764 0.0
C613 C 0.10431 0.30194 0.88663 0.0
C614 C 0.05076 0.29859 0.87263 0.0
O615 O 0.05344 0.28914 0.89227 0.0
H616 H 0.11074 0.33547 0.86435 0.0
H617 H 0.0814 0.29242 0.91268 0.0
O618 O 0.0755 0.31981 0.95909 0.0
H619 H 0.11485 0.37865 0.92312 0.0
H620 H 0.10712 0.29296 0.8916 0.0
Cu621 Cu 0.43374 0.02979 0.9807 0.0
N622 N 0.4193 0.00928 0.99027 0.0
N623 N 0.39739 0.98692 0.98282 0.0
C624 C 0.40647 1.00135 0.96994 0.0
C625 C 0.40493 0.98562 1.01236 0.0
C626 C 0.41849 0.99954 1.017 0.0
O627 O 0.4279 0.04271 1.00986 0.0
C628 C 0.43719 0.02485 0.90578 0.0
O629 O 0.44396 0.01781 0.92074 0.0
H630 H 0.40383 0.00619 0.94614 0.0
H631 H 0.42698 1.00241 0.03861 0.0
N632 N 0.4536 0.03412 0.99423 0.0
N633 N 0.47429 0.0318 1.00696 0.0
C634 C 0.45912 0.02433 0.99787 0.0
C635 C 0.46564 0.04822 1.00132 0.0
C636 C 0.47837 0.04685 1.00915 0.0
C637 C 0.41467 0.04157 1.00654 0.0
O638 O 0.40519 0.03227 0.98111 0.0
H639 H 0.45212 0.01201 0.99377 0.0
H640 H 0.4652 0.0588 1.0003 0.0
O641 O 0.43253 0.03193 0.92695 0.0
H642 H 0.40072 0.97556 0.02999 0.0
H643 H 0.48984 0.05631 1.01502 0.0
Cu644 Cu 0.99074 0.40758 0.99255 0.0
N645 N 0.01202 0.41684 0.99952 0.0
N646 N 0.03538 0.41923 0.9955 0.0
C647 C 0.02015 0.40947 1.00076 0.0
C648 C 0.03696 0.43333 0.99151 0.0
C649 C 0.02253 0.43184 0.9942 0.0
O650 O 0.98081 0.38787 1.01944 0.0
C651 C 0.99393 0.39952 0.91922 0.0
O652 O 0.99999 0.39219 0.9361 0.0
H653 H 0.01486 0.39702 1.00134 0.0
H654 H 0.01982 0.44086 0.98929 0.0
N655 N 0.98455 0.42108 1.01139 0.0
N656 N 0.985 0.44337 1.02201 0.0
C657 C 0.98919 0.43543 0.99888 0.0
C658 C 0.97696 0.41976 0.04326 0.0
C659 C 0.97715 0.43344 0.0498 0.0
C660 C 0.96633 0.37971 0.02559 0.0
O661 O 0.95704 0.38411 1.01154 0.0
H662 H 0.99606 0.44014 0.97405 0.0
H663 H 0.9724 0.40989 0.06158 0.0
O664 O 0.98785 0.40573 0.93874 0.0
H665 H 0.0476 0.44373 0.98436 0.0
H666 H 0.97275 0.43618 0.07437 0.0
Cu667 Cu 0.5984 0.58069 0.98516 0.0
N668 N 0.59151 0.59418 0.99951 0.0
N669 N 0.59194 0.61664 1.00481 0.0
C670 C 0.60041 0.6096 1.00171 0.0
C671 C 0.5771 0.60512 1.00586 0.0
C672 C 0.57687 0.59128 1.00275 0.0
O673 O 0.6174 0.58619 1.01287 0.0
C674 C 0.60523 0.59356 0.91131 0.0
O675 O 0.61103 0.60696 0.92803 0.0
H676 H 0.61277 0.6156 0.99741 0.0
H677 H 0.56668 0.58002 1.00054 0.0
N678 N 0.58335 0.56069 0.99867 0.0
N679 N 0.56044 0.53914 1.00541 0.0
C680 C 0.56839 0.553 0.98842 0.0
C681 C 0.585 0.55131 0.02254 0.0
C682 C 0.57091 0.53801 0.02673 0.0
C683 C 0.63073 0.59778 1.00646 0.0
O684 O 0.63272 0.60638 0.97721 0.0
H685 H 0.56341 0.55757 0.96919 0.0
H686 H 0.59563 0.55414 0.03668 0.0
O687 O 0.60024 0.58131 0.93074 0.0
H688 H 0.56709 0.6066 1.0065 0.0
H689 H 0.56844 0.52853 0.04523 0.0
Cu690 Cu 0.99845 0.58606 0.48117 0.0
N691 N 0.01982 0.59799 0.4863 0.0
N692 N 0.04294 0.61888 0.47769 0.0
C693 C 0.02795 0.6135 0.48598 0.0
C694 C 0.04441 0.6063 0.47343 0.0
C695 C 0.03014 0.59342 0.47901 0.0
O696 O 0.98904 0.59632 0.50826 0.0
C697 C 1.00062 0.59667 0.40779 0.0
O698 O 1.00663 0.61013 0.4244 0.0
H699 H 0.02263 0.62064 0.48696 0.0
H700 H 0.02727 0.58165 0.47408 0.0
N701 N 0.9923 0.56664 0.50148 0.0
N702 N 0.99271 0.54498 0.51469 0.0
C703 C 0.99687 0.55668 0.49031 0.0
C704 C 0.9848 0.56096 0.53373 0.0
C705 C 0.98497 0.5476 0.54187 0.0
C706 C 0.9746 0.59045 0.51432 0.0
O707 O 0.96497 0.57691 0.49997 0.0
H708 H 1.00362 0.55834 0.46549 0.0
H709 H 0.98033 0.56663 0.55122 0.0
O710 O 0.99486 0.58448 0.42759 0.0
H711 H 0.0547 0.60641 0.46349 0.0
H712 H 0.98061 0.54093 0.56709 0.0
Cu713 Cu 0.42974 0.41096 0.48139 0.0
N714 N 0.41541 0.41699 0.49342 0.0
N715 N 0.39454 0.41954 0.4882 0.0
C716 C 0.40344 0.41458 0.472 0.0
C717 C 0.40126 0.4254 0.52125 0.0
C718 C 0.41421 0.42388 0.5243 0.0
O719 O 0.42374 0.39097 0.50464 0.0
C720 C 0.42084 0.40119 0.40566 0.0
O721 O 0.40945 0.38843 0.41965 0.0
H722 H 0.4009 0.40859 0.44576 0.0
H723 H 0.42201 0.42725 0.54763 0.0
N724 N 0.44903 0.42574 0.49959 0.0
N725 N 0.47003 0.44842 0.51261 0.0
C726 C 0.45587 0.44122 0.49675 0.0
C727 C 0.45912 0.42302 0.5179 0.0
C728 C 0.47207 0.43696 0.52594 0.0
C729 C 0.4097 0.38082 0.51115 0.0
O730 O 0.39867 0.38324 0.49939 0.0
H731 H 0.45065 0.44704 0.48282 0.0
H732 H 0.45717 0.41168 0.52486 0.0
O733 O 0.43093 0.41123 0.42731 0.0
H734 H 0.39701 0.43019 0.54199 0.0
H735 H 0.48211 0.4385 0.54088 0.0
Cu736 Cu 0.60094 0.02039 0.47921 0.0
N737 N 0.59347 0.99934 0.48361 0.0
N738 N 0.59193 0.97681 0.47045 0.0
C739 C 0.60091 0.99232 0.47031 0.0
C740 C 0.57832 0.97398 0.48527 0.0
C741 C 0.5793 0.98793 0.49323 0.0
O742 O 0.62065 0.03091 0.50586 0.0
C743 C 0.61286 0.02403 0.40576 0.0
O744 O 0.62493 0.02477 0.42216 0.0
H745 H 0.61258 0.99858 0.45966 0.0
H746 H 0.57007 0.98961 0.5035 0.0
N747 N 0.5866 0.02488 0.50074 0.0
N748 N 0.56398 0.02312 0.51552 0.0
C749 C 0.57157 0.01873 0.49174 0.0
C750 C 0.58864 0.03352 0.53107 0.0
C751 C 0.57477 0.0325 0.54018 0.0
C752 C 0.62893 0.04542 0.51076 0.0
O753 O 0.62478 0.05462 0.49511 0.0
H754 H 0.56629 0.01088 0.46873 0.0
H755 H 0.59933 0.03964 0.54637 0.0
O756 O 0.60219 0.02382 0.42565 0.0
H757 H 0.56815 0.96271 0.48837 0.0
H758 H 0.57268 0.03773 0.56413 0.0
Cu759 Cu 0.25326 0.32145 0.3936 0.0
N760 N 0.26782 0.34194 0.38355 0.0
N761 N 0.28892 0.36487 0.39259 0.0
C762 C 0.28085 0.34996 0.40315 0.0
C763 C 0.28069 0.36624 0.36471 0.0
C764 C 0.26758 0.35203 0.35932 0.0
O765 O 0.26015 0.30833 0.36924 0.0
C766 C 0.25143 0.32991 0.4663 0.0
O767 O 0.24913 0.33994 0.4481 0.0
H768 H 0.28427 0.34487 0.42493 0.0
H769 H 0.25844 0.34933 0.33964 0.0
N770 N 0.23377 0.31685 0.37616 0.0
N771 N 0.21289 0.31869 0.36238 0.0
C772 C 0.22744 0.32601 0.3761 0.0
C773 C 0.22291 0.30331 0.36196 0.0
C774 C 0.21005 0.30439 0.35344 0.0
C775 C 0.26381 0.31047 0.33493 0.0
O776 O 0.26227 0.32102 0.31689 0.0
H777 H 0.23344 0.33782 0.38573 0.0
H778 H 0.22421 0.29328 0.35849 0.0
O779 O 0.25285 0.31979 0.44784 0.0
H780 H 0.28374 0.37677 0.34987 0.0
H781 H 0.19934 0.29521 0.34231 0.0
Cu782 Cu 0.68305 0.92733 0.39452 0.0
N783 N 0.66162 0.9171 0.39047 0.0
N784 N 0.63815 0.91453 0.39202 0.0
C785 C 0.65319 0.92388 0.38362 0.0
C786 C 0.63702 0.9013 0.40433 0.0
C787 C 0.65152 0.90291 0.40326 0.0
O788 O 0.69135 0.9465 0.36575 0.0
C789 C 0.68146 0.93691 0.46723 0.0
O790 O 0.67481 0.94369 0.45039 0.0
H791 H 0.65825 0.93599 0.37675 0.0
H792 H 0.65464 0.89484 0.41444 0.0
N793 N 0.69002 0.91459 0.37477 0.0
N794 N 0.69054 0.89313 0.35984 0.0
C795 C 0.685 0.89971 0.38346 0.0
C796 C 0.69925 0.9176 0.34503 0.0
C797 C 0.6996 0.90441 0.33576 0.0
C798 C 0.70554 0.9569 0.36318 0.0
O799 O 0.71588 0.95544 0.38241 0.0
H800 H 0.67678 0.89359 0.40536 0.0
H801 H 0.70476 0.92841 0.33006 0.0
O802 O 0.6871 0.93027 0.44768 0.0
H803 H 0.62672 0.89169 0.41609 0.0
H804 H 0.70566 0.9031 0.31236 0.0
Cu805 Cu 0.07866 0.7565 0.38413 0.0
N806 N 0.08689 0.74399 0.37098 0.0
N807 N 0.08935 0.72304 0.37048 0.0
C808 C 0.07944 0.72847 0.37125 0.0
C809 C 0.10357 0.73558 0.3686 0.0
C810 C 0.10201 0.74848 0.36861 0.0
O811 O 0.05915 0.74976 0.35737 0.0
C812 C 0.07297 0.74463 0.45886 0.0
O813 O 0.06682 0.73104 0.44303 0.0
H814 H 0.06715 0.72133 0.37603 0.0
H815 H 0.11136 0.76027 0.37002 0.0
N816 N 0.09274 0.77654 0.3684 0.0
N817 N 0.11509 0.79853 0.3592 0.0
C818 C 0.10745 0.78551 0.37972 0.0
C819 C 0.09088 0.78422 0.34019 0.0
C820 C 0.10461 0.79778 0.33449 0.0
C821 C 0.04627 0.73745 0.36296 0.0
O822 O 0.045 0.72837 0.39059 0.0
H823 H 0.11255 0.78229 0.40189 0.0
H824 H 0.08047 0.77994 0.32388 0.0
O825 O 0.07759 0.75664 0.43867 0.0
H826 H 0.11432 0.73544 0.37011 0.0
H827 H 0.10688 0.80603 0.31257 0.0
H828 H 0.28916 0.97691 0.36105 0.0
H829 H 0.24668 0.96654 0.30613 0.0
H830 H 0.30172 1.00287 0.33502 0.0
H831 H 0.2592 0.99267 0.2809 0.0
H832 H 0.32278 0.0357 0.23618 0.0
H833 H 0.30805 0.01064 0.26608 0.0
H834 H 0.27339 0.02192 0.29948 0.0
H835 H 0.28835 0.04729 0.27046 0.0
C836 C 0.28244 0.98023 0.34393 0.0
C837 C 0.26701 0.96955 0.3352 0.0
C838 C 0.28963 0.99507 0.32901 0.0
C839 C 0.28147 0.99961 0.30542 0.0
C840 C 0.26572 0.9894 0.29898 0.0
C841 C 0.25855 0.97447 0.31365 0.0
C842 C 0.31205 0.0329 0.24994 0.0
C843 C 0.3069 0.04363 0.25135 0.0
C844 C 0.30364 0.01856 0.2671 0.0
C845 C 0.28977 0.01452 0.28566 0.0
C846 C 0.2841 0.02483 0.28544 0.0
C847 C 0.29264 0.03931 0.26858 0.0
H848 H 0.03765 0.3201 0.32824 0.0
H849 H 0.04928 0.28428 0.31438 0.0
H850 H 0.01251 0.30357 0.30042 0.0
H851 H 0.02381 0.26749 0.28644 0.0
H852 H 0.96815 0.24077 0.27403 0.0
H853 H 0.99421 0.25405 0.30073 0.0
H854 H 1.00544 0.29426 0.23455 0.0
H855 H 0.97955 0.28106 0.20819 0.0
C856 C 0.03476 0.30862 0.31938 0.0
C857 C 0.04548 0.30356 0.32288 0.0
C858 C 0.02041 0.29918 0.30336 0.0
C859 C 0.0164 0.28441 0.29046 0.0
C860 C 0.02669 0.27888 0.29598 0.0
C861 C 0.04119 0.28843 0.31208 0.0
C862 C 0.97636 0.25228 0.26452 0.0
C863 C 0.97183 0.26002 0.23948 0.0
C864 C 0.99122 0.25988 0.27986 0.0
C865 C 1.00167 0.27528 0.27029 0.0
C866 C 0.99747 0.28251 0.24308 0.0
C867 C 0.98271 0.27497 0.22791 0.0
H868 H 0.76575 0.71792 0.29478 0.0
H869 H 0.73935 0.70924 0.19438 0.0
H870 H 0.75463 0.73316 0.31909 0.0
H871 H 0.7285 0.72483 0.21822 0.0
H872 H 0.72436 0.76593 0.26531 0.0
H873 H 0.73979 0.75483 0.24231 0.0
H874 H 0.7237 0.72261 0.33356 0.0
H875 H 0.70794 0.73351 0.35602 0.0
C876 C 0.7579 0.71967 0.27757 0.0
C877 C 0.75345 0.71259 0.24263 0.0
C878 C 0.75148 0.72825 0.29154 0.0
C879 C 0.7408 0.73014 0.2704 0.0
C880 C 0.73684 0.72361 0.23482 0.0
C881 C 0.74299 0.71473 0.22123 0.0
C882 C 0.72442 0.75672 0.28085 0.0
C883 C 0.7151 0.75059 0.31255 0.0
C884 C 0.73313 0.75033 0.26758 0.0
C885 C 0.73289 0.73794 0.28628 0.0
C886 C 0.72413 0.73226 0.31891 0.0
C887 C 0.71514 0.73843 0.3317 0.0
H888 H 0.72289 0.9603 0.78169 0.0
H889 H 0.69939 0.97357 0.86129 0.0
H890 H 0.73718 0.98678 0.75877 0.0
H891 H 0.71398 1.00018 0.83939 0.0
H892 H 0.76663 0.03921 0.74038 0.0
H893 H 0.75594 0.01378 0.76914 0.0
H894 H 0.71224 0.01215 0.78394 0.0
H895 H 0.72299 0.03756 0.75748 0.0
C896 C 0.72118 0.96902 0.79509 0.0
C897 C 0.70998 0.96494 0.82308 0.0
C898 C 0.72934 0.98418 0.78193 0.0
C899 C 0.72651 0.99554 0.79676 0.0
C900 C 0.71612 0.99162 0.82666 0.0
C901 C 0.70786 0.97646 0.83945 0.0
C902 C 0.75477 0.03343 0.74994 0.0
C903 C 0.74573 0.04053 0.74644 0.0
C904 C 0.74862 0.01883 0.76624 0.0
C905 C 0.7333 0.01102 0.77934 0.0
C906 C 0.7242 0.01797 0.775 0.0
C907 C 0.73033 0.03252 0.75898 0.0
H908 H 0.03534 0.7179 0.79146 0.0
H909 H 0.04517 0.76497 0.78157 0.0
H910 H 0.01085 0.70887 0.76027 0.0
H911 H 0.02018 0.75576 0.75069 0.0
H912 H 0.97647 0.6972 0.67218 0.0
H913 H 1.00296 0.71125 0.69505 0.0
H914 H 0.99099 0.73848 0.76602 0.0
H915 H 0.96446 0.72438 0.74323 0.0
C916 C 0.0323 0.72634 0.78245 0.0
C917 C 0.04233 0.74217 0.78843 0.0
C918 C 0.01828 0.72116 0.76449 0.0
C919 C 0.01382 0.73165 0.75228 0.0
C920 C 0.02345 0.74746 0.7596 0.0
C921 C 0.03766 0.7527 0.77745 0.0
C922 C 0.97959 0.70641 0.69203 0.0
C923 C 0.96835 0.70951 0.7063 0.0
C924 C 0.99471 0.71442 0.70518 0.0
C925 C 0.99889 0.72572 0.73283 0.0
C926 C 0.98805 0.72983 0.74467 0.0
C927 C 0.97287 0.72178 0.73152 0.0
H928 H 0.31703 0.2862 0.72735 0.0
H929 H 0.28332 0.24047 0.76483 0.0
H930 H 0.30307 0.29681 0.75959 0.0
H931 H 0.26903 0.25119 0.79635 0.0
H932 H 0.28632 0.31326 0.85431 0.0
H933 H 0.29804 0.29885 0.82922 0.0
H934 H 0.25463 0.26636 0.77881 0.0
H935 H 0.24293 0.28092 0.8033 0.0
C936 C 0.30664 0.27839 0.74245 0.0
C937 C 0.30146 0.26251 0.74397 0.0
C938 C 0.29866 0.28448 0.76094 0.0
C939 C 0.28518 0.27483 0.78105 0.0
C940 C 0.27947 0.25885 0.78117 0.0
C941 C 0.2876 0.25273 0.76292 0.0
C942 C 0.27922 0.30292 0.83835 0.0
C943 C 0.2638 0.29841 0.83024 0.0
C944 C 0.28591 0.2947 0.82401 0.0
C945 C 0.27728 0.28171 0.80154 0.0
C946 C 0.26151 0.27636 0.79605 0.0
C947 C 0.25481 0.28468 0.81024 0.0
H948 H 0.98034 0.37102 0.52548 0.0
H949 H 0.95803 0.38298 0.61131 0.0
H950 H 0.96549 0.34396 0.544 0.0
H951 H 0.94348 0.35605 0.63068 0.0
H952 H 0.91367 0.30348 0.64382 0.0
H953 H 0.92426 0.32934 0.61741 0.0
H954 H 0.96762 0.33085 0.59712 0.0
H955 H 0.95697 0.30507 0.62139 0.0
C956 C 0.97207 0.36777 0.54795 0.0
C957 C 0.97039 0.37905 0.56708 0.0
C958 C 0.96366 0.35234 0.55877 0.0
C959 C 0.95354 0.34791 0.58934 0.0
C960 C 0.95111 0.35906 0.60693 0.0
C961 C 0.95943 0.37449 0.59581 0.0
C962 C 0.92544 0.30934 0.63354 0.0
C963 C 0.93445 0.30216 0.63501 0.0
C964 C 0.93152 0.32417 0.61858 0.0
C965 C 0.94672 0.33208 0.60475 0.0
C966 C 0.95576 0.32497 0.60675 0.0
C967 C 0.9497 0.31022 0.6215 0.0
H968 H 0.63019 0.59461 0.62398 0.0
H969 H 0.6427 0.58935 0.51245 0.0
H970 H 0.65611 0.60254 0.64483 0.0
H971 H 0.66859 0.59647 0.53374 0.0
H972 H 0.70253 0.61466 0.68075 0.0
H973 H 0.67649 0.59772 0.65751 0.0
H974 H 0.69004 0.62048 0.55096 0.0
H975 H 0.71613 0.63665 0.57352 0.0
C976 C 0.63843 0.59492 0.60398 0.0
C977 C 0.6345 0.59177 0.56634 0.0
C978 C 0.65328 0.59922 0.61609 0.0
C979 C 0.66456 0.60035 0.59091 0.0
C980 C 0.66027 0.59601 0.55375 0.0
C981 C 0.64539 0.59179 0.54158 0.0
C982 C 0.70006 0.61571 0.65206 0.0
C983 C 0.71131 0.62728 0.62927 0.0
C984 C 0.68508 0.6061 0.63881 0.0
C985 C 0.68103 0.60792 0.60257 0.0
C986 C 0.69266 0.61865 0.57896 0.0
C987 C 0.70761 0.62814 0.59211 0.0
H988 H 0.3915 0.10113 0.60601 0.0
H989 H 0.37789 0.06675 0.69182 0.0
H990 H 0.4083 0.09238 0.57856 0.0
H991 H 0.39501 0.05826 0.66506 0.0
H992 H 0.4378 0.05715 0.6211 0.0
H993 H 0.42621 0.07142 0.64853 0.0
H994 H 0.39851 0.06292 0.55039 0.0
H995 H 0.40986 0.04827 0.52339 0.0
C996 C 0.39248 0.092 0.6195 0.0
C997 C 0.38355 0.08462 0.65106 0.0
C998 C 0.40197 0.08696 0.60374 0.0
C999 C 0.40292 0.07474 0.6199 0.0
C1000 C 0.39453 0.06782 0.65241 0.0
C1001 C 0.38477 0.07261 0.66762 0.0
C1002 C 0.42958 0.05875 0.60503 0.0
C1003 C 0.42477 0.0518 0.57005 0.0
C1004 C 0.4229 0.06678 0.62079 0.0
C1005 C 0.41156 0.06824 0.60143 0.0
C1006 C 0.40737 0.06204 0.56559 0.0
C1007 C 0.4138 0.05371 0.5502 0.0
H1008 H 0.40568 0.36493 0.02454 0.0
H1009 H 0.43184 0.3818 0.12554 0.0
H1010 H 0.39444 0.33832 0.04735 0.0
H1011 H 0.42031 0.35527 0.14885 0.0
H1012 H 0.37263 0.30826 0.18298 0.0
H1013 H 0.38865 0.33503 0.16157 0.0
H1014 H 0.40587 0.31934 0.07158 0.0
H1015 H 0.3902 0.2927 0.09358 0.0
C1016 C 0.40918 0.36285 0.0513 0.0
C1017 C 0.41968 0.37527 0.07318 0.0
C1018 C 0.40281 0.34774 0.0643 0.0
C1019 C 0.40657 0.34488 0.09977 0.0
C1020 C 0.41731 0.35726 0.12138 0.0
C1021 C 0.42396 0.37235 0.10799 0.0
C1022 C 0.38011 0.31066 0.15915 0.0
C1023 C 0.38034 0.29856 0.14009 0.0
C1024 C 0.38925 0.32587 0.14698 0.0
C1025 C 0.39843 0.32911 0.11503 0.0
C1026 C 0.39889 0.31705 0.09635 0.0
C1027 C 0.39004 0.3019 0.10904 0.0
H1028 H 0.63227 0.04147 0.13635 0.0
H1029 H 0.64452 0.0652 0.0311 0.0
H1030 H 0.65832 0.05802 0.15851 0.0
H1031 H 0.67056 0.08252 0.05404 0.0
H1032 H 0.70508 0.08882 0.19732 0.0
H1033 H 0.6792 0.08202 0.17713 0.0
H1034 H 0.69174 0.07864 0.06408 0.0
H1035 H 0.71773 0.08634 0.08397 0.0
C1036 C 0.64049 0.05043 0.11814 0.0
C1037 C 0.63645 0.05172 0.08159 0.0
C1038 C 0.65542 0.06015 0.1311 0.0
C1039 C 0.66668 0.07152 0.10793 0.0
C1040 C 0.66227 0.07367 0.07238 0.0
C1041 C 0.64729 0.06385 0.05931 0.0
C1042 C 0.70245 0.08711 0.16803 0.0
C1043 C 0.71336 0.08772 0.14239 0.0
C1044 C 0.68755 0.08305 0.15646 0.0
C1045 C 0.68322 0.07942 0.11907 0.0
C1046 C 0.69457 0.08136 0.09307 0.0
C1047 C 0.70947 0.08555 0.10458 0.0
H1048 H 0.91147 0.61409 0.09166 0.0
H1049 H 0.94086 0.63292 0.18732 0.0
H1050 H 0.92564 0.60114 0.07294 0.0
H1051 H 0.95484 0.61972 0.16929 0.0
H1052 H 0.99058 0.61847 0.0928 0.0
H1053 H 0.97289 0.62591 0.11842 0.0
H1054 H 0.93416 0.58218 0.08483 0.0
H1055 H 0.95214 0.57462 0.05893 0.0
C1056 C 0.92061 0.615 0.10936 0.0
C1057 C 0.92523 0.62463 0.14072 0.0
C1058 C 0.92874 0.6076 0.09863 0.0
C1059 C 0.94156 0.60967 0.11923 0.0
C1060 C 0.94526 0.61822 0.15233 0.0
C1061 C 0.93724 0.6257 0.16281 0.0
C1062 C 0.97832 0.61028 0.09134 0.0
C1063 C 0.97279 0.59586 0.0742 0.0
C1064 C 0.96814 0.61455 0.10616 0.0
C1065 C 0.95211 0.60453 0.10431 0.0
C1066 C 0.94647 0.59015 0.08672 0.0
C1067 C 0.95674 0.58584 0.0718 0.0
H1068 H 0.62008 0.6404 1.02221 0.0
H1069 H 0.57685 0.62942 0.97043 0.0
H1070 H 0.63188 0.66653 0.9974 0.0
H1071 H 0.58864 0.65571 0.94629 0.0
H1072 H 0.65118 0.69828 0.89598 0.0
H1073 H 0.63693 0.67353 0.92728 0.0
H1074 H 0.6032 0.68543 0.96505 0.0
H1075 H 0.61779 0.7106 0.93453 0.0
C1076 C 0.61303 0.64365 1.00615 0.0
C1077 C 0.59763 0.63275 0.99772 0.0
C1078 C 0.61977 0.65858 0.99197 0.0
C1079 C 0.61121 0.66297 0.9694 0.0
C1080 C 0.59546 0.65256 0.96361 0.0
C1081 C 0.58872 0.63753 0.9776 0.0
C1082 C 0.64079 0.69571 0.91107 0.0
C1083 C 0.63579 0.70655 0.91326 0.0
C1084 C 0.63264 0.68154 0.92901 0.0
C1085 C 0.61918 0.67777 0.94918 0.0
C1086 C 0.61363 0.68817 0.94982 0.0
C1087 C 0.62192 0.7025 0.93214 0.0
H1088 H 0.37704 0.99329 0.94998 0.0
H1089 H 0.38346 0.95564 0.98482 0.0
H1090 H 0.35184 0.97515 0.92557 0.0
H1091 H 0.35794 0.93719 0.95992 0.0
H1092 H 0.31229 0.9419 0.85939 0.0
H1093 H 0.33955 0.95689 0.87622 0.0
H1094 H 0.33066 0.92802 0.97267 0.0
H1095 H 0.30354 0.91288 0.95521 0.0
C1096 C 0.37316 0.9811 0.95187 0.0
C1097 C 0.38233 0.97591 0.96899 0.0
C1098 C 0.35869 0.97066 0.93772 0.0
C1099 C 0.35296 0.9547 0.94019 0.0
C1100 C 0.36204 0.94943 0.95763 0.0
C1101 C 0.3766 0.95995 0.97195 0.0
C1102 C 0.31628 0.93861 0.88374 0.0
C1103 C 0.30581 0.92635 0.90613 0.0
C1104 C 0.33184 0.94721 0.89352 0.0
C1105 C 0.33721 0.94383 0.92621 0.0
C1106 C 0.32693 0.93088 0.94723 0.0
C1107 C 0.31137 0.92219 0.93722 0.0
H1108 H 0.0988 0.38405 0.96921 0.0
H1109 H 0.07126 0.37312 0.87009 0.0
H1110 H 0.08747 0.39927 0.99221 0.0
H1111 H 0.06015 0.38866 0.89267 0.0
H1112 H 0.05444 0.42914 0.93633 0.0
H1113 H 0.07044 0.4186 0.91377 0.0
H1114 H 0.0569 0.3883 1.00864 0.0
H1115 H 0.04059 0.39863 0.03068 0.0
C1116 C 0.09064 0.38529 0.95195 0.0
C1117 C 0.08591 0.37755 0.91781 0.0
C1118 C 0.08411 0.39387 0.96519 0.0
C1119 C 0.07301 0.3951 0.94411 0.0
C1120 C 0.06881 0.38795 0.90921 0.0
C1121 C 0.07509 0.37909 0.89636 0.0
C1122 C 0.0552 0.42049 0.95272 0.0
C1123 C 0.04643 0.41471 0.98533 0.0
C1124 C 0.06422 0.41441 0.93972 0.0
C1125 C 0.06486 0.40271 0.95959 0.0
C1126 C 0.05666 0.39743 0.99308 0.0
C1127 C 0.04736 0.40327 1.00562 0.0
H1128 H 0.06627 0.69623 0.34434 0.0
H1129 H 0.10357 0.71573 0.42331 0.0
H1130 H 0.05751 0.67041 0.36997 0.0
H1131 H 0.09461 0.69004 0.44958 0.0
H1132 H 0.05158 0.6459 0.51145 0.0
H1133 H 0.06572 0.67163 0.48293 0.0
H1134 H 0.07001 0.65121 0.38138 0.0
H1135 H 0.05629 0.6256 0.41033 0.0
C1136 C 0.07272 0.69488 0.36666 0.0
C1137 C 0.08563 0.70782 0.38167 0.0
C1138 C 0.06777 0.68021 0.38124 0.0
C1139 C 0.07545 0.67837 0.41162 0.0
C1140 C 0.08859 0.69125 0.42605 0.0
C1141 C 0.09375 0.70586 0.41089 0.0
C1142 C 0.05597 0.64707 0.48344 0.0
C1143 C 0.05312 0.63396 0.46316 0.0
C1144 C 0.064 0.66167 0.46718 0.0
C1145 C 0.06891 0.66327 0.4301 0.0
C1146 C 0.06637 0.65019 0.41007 0.0
C1147 C 0.05867 0.63564 0.42664 0.0
H1148 H 0.29917 0.36587 0.4624 0.0
H1149 H 0.31138 0.39054 0.35837 0.0
H1150 H 0.32483 0.38304 0.48591 0.0
H1151 H 0.33701 0.40847 0.38275 0.0
H1152 H 0.37025 0.41666 0.52877 0.0
H1153 H 0.34413 0.40761 0.50639 0.0
H1154 H 0.35923 0.40647 0.39455 0.0
H1155 H 0.38538 0.41639 0.41661 0.0
C1156 C 0.3073 0.37509 0.44464 0.0
C1157 C 0.30335 0.37656 0.40811 0.0
C1158 C 0.32199 0.38518 0.45842 0.0
C1159 C 0.33311 0.39712 0.43616 0.0
C1160 C 0.32882 0.39923 0.40044 0.0
C1161 C 0.31409 0.38905 0.38654 0.0
C1162 C 0.36809 0.41493 0.4993 0.0
C1163 C 0.37984 0.41688 0.47463 0.0
C1164 C 0.35306 0.40957 0.48647 0.0
C1165 C 0.34945 0.40596 0.44875 0.0
C1166 C 0.3615 0.40912 0.42376 0.0
C1167 C 0.37651 0.4146 0.43653 0.0
H1168 H 0.62044 0.90969 0.45253 0.0
H1169 H 0.63168 0.93126 0.34489 0.0
H1170 H 0.60631 0.92292 0.4678 0.0
H1171 H 0.61679 0.94395 0.35896 0.0
H1172 H 0.57851 0.94614 0.48575 0.0
H1173 H 0.5859 0.92807 0.46086 0.0
H1174 H 0.62198 0.96496 0.39628 0.0
H1175 H 0.61393 0.98249 0.41874 0.0
C1176 C 0.61934 0.91683 0.43162 0.0
C1177 C 0.62718 0.91959 0.39765 0.0
C1178 C 0.61121 0.92441 0.44028 0.0
C1179 C 0.6106 0.93474 0.41487 0.0
C1180 C 0.61739 0.93643 0.37963 0.0
C1181 C 0.62578 0.92909 0.37133 0.0
C1182 C 0.58783 0.95029 0.46572 0.0
C1183 C 0.59578 0.96588 0.45486 0.0
C1184 C 0.59216 0.93996 0.45166 0.0
C1185 C 0.60459 0.94502 0.42662 0.0
C1186 C 0.6122 0.9605 0.41502 0.0
C1187 C 0.60777 0.97072 0.42867 0.0
H1188 H 0.32585 0.08927 0.55214 0.0
H1189 H 0.33639 0.05268 0.53764 0.0
H1190 H 0.33182 0.09626 0.48717 0.0
H1191 H 0.34186 0.05932 0.47215 0.0
H1192 H 0.36564 0.0853 0.36471 0.0
H1193 H 0.36008 0.07823 0.43027 0.0
H1194 H 0.32282 0.08833 0.42666 0.0
H1195 H 0.32871 0.09585 0.3623 0.0
C1196 C 0.32918 0.08253 0.53494 0.0
C1197 C 0.33057 0.07037 0.55021 0.0
C1198 C 0.3326 0.08652 0.49751 0.0
C1199 C 0.33736 0.07838 0.4741 0.0
C1200 C 0.33849 0.06604 0.48929 0.0
C1201 C 0.33518 0.06211 0.52684 0.0
C1202 C 0.35634 0.08609 0.37808 0.0
C1203 C 0.34772 0.09126 0.3582 0.0
C1204 C 0.35305 0.08191 0.41562 0.0
C1205 C 0.341 0.08273 0.43407 0.0
C1206 C 0.33238 0.08783 0.4139 0.0
C1207 C 0.33573 0.09208 0.37669 0.0
H1208 H 0.94919 0.28338 0.53398 0.0
H1209 H 0.9303 0.23403 0.53553 0.0
H1210 H 0.94206 0.28214 0.46933 0.0
H1211 H 0.92389 0.23281 0.46994 0.0
H1212 H 0.8999 0.23198 0.36374 0.0
H1213 H 0.90687 0.23401 0.42883 0.0
H1214 H 0.94666 0.27898 0.40808 0.0
H1215 H 0.93905 0.27718 0.34321 0.0
C1216 C 0.94378 0.27226 0.52028 0.0
C1217 C 0.94033 0.25879 0.54006 0.0
C1218 C 0.93972 0.27155 0.48292 0.0
C1219 C 0.93228 0.25737 0.46392 0.0
C1220 C 0.92925 0.24393 0.48355 0.0
C1221 C 0.93308 0.24462 0.52118 0.0
C1222 C 0.91002 0.2424 0.37324 0.0
C1223 C 0.91887 0.25445 0.34832 0.0
C1224 C 0.91417 0.2435 0.41061 0.0
C1225 C 0.92751 0.25657 0.42413 0.0
C1226 C 0.9362 0.26879 0.39917 0.0
C1227 C 0.93186 0.26779 0.36182 0.0
H1228 H 0.77958 0.67698 0.51705 0.0
H1229 H 0.73904 0.68078 0.5372 0.0
H1230 H 0.77253 0.6713 0.45214 0.0
H1231 H 0.73151 0.67441 0.47236 0.0
H1232 H 0.73012 0.67663 0.34561 0.0
H1233 H 0.73667 0.68266 0.41059 0.0
H1234 H 0.75526 0.65187 0.41239 0.0
H1235 H 0.74931 0.64641 0.34667 0.0
C1236 C 0.76914 0.67663 0.50753 0.0
C1237 C 0.75991 0.6794 0.53229 0.0
C1238 C 0.76497 0.67317 0.47029 0.0
C1239 C 0.75129 0.67214 0.45673 0.0
C1240 C 0.74221 0.67524 0.48145 0.0
C1241 C 0.74652 0.67891 0.51872 0.0
C1242 C 0.73547 0.67101 0.3599 0.0
C1243 C 0.73921 0.66103 0.34078 0.0
C1244 C 0.7392 0.67445 0.3974 0.0
C1245 C 0.74664 0.66789 0.41706 0.0
C1246 C 0.74989 0.65747 0.39815 0.0
C1247 C 0.74632 0.65418 0.36047 0.0
H1248 H 0.12584 0.36639 0.18739 0.0
H1249 H 0.07713 0.34316 0.21357 0.0
H1250 H 0.11986 0.35672 0.12424 0.0
H1251 H 0.07111 0.33315 0.15017 0.0
H1252 H 0.06789 0.32998 1.01978 0.0
H1253 H 0.07155 0.3393 0.08399 0.0
H1254 H 0.11067 0.33232 0.0942 0.0
H1255 H 0.10722 0.32341 0.03044 0.0
C1256 C 0.11383 0.35928 0.17965 0.0
C1257 C 0.102 0.35551 0.20576 0.0
C1258 C 0.11038 0.35359 0.14341 0.0
C1259 C 0.09499 0.34387 0.13214 0.0
C1260 C 0.08309 0.3406 0.15779 0.0
C1261 C 0.08655 0.34635 0.19418 0.0
C1262 C 0.07708 0.33018 0.03604 0.0
C1263 C 0.08732 0.32604 1.01988 0.0
C1264 C 0.07922 0.33557 0.07282 0.0
C1265 C 0.09163 0.33691 0.09414 0.0
C1266 C 0.10128 0.33192 0.07841 0.0
C1267 C 0.0992 0.32664 0.04185 0.0
H1268 H 0.68362 0.77805 0.19287 0.0
H1269 H 0.65722 0.72824 0.19413 0.0
H1270 H 0.69028 0.77767 0.12846 0.0
H1271 H 0.66347 0.72785 0.12855 0.0
H1272 H 0.68998 0.73224 1.02099 0.0
H1273 H 0.68393 0.73244 0.08653 0.0
H1274 H 0.68015 0.77308 0.06826 0.0
H1275 H 0.68671 0.77318 1.00328 0.0
C1276 C 0.67904 0.76697 0.17927 0.0
C1277 C 0.6698 0.75316 0.1988 0.0
C1278 C 0.68283 0.76676 0.14205 0.0
C1279 C 0.67739 0.75274 0.12293 0.0
C1280 C 0.66805 0.73888 0.14239 0.0
C1281 C 0.66434 0.73909 0.17993 0.0
C1282 C 0.68804 0.74133 0.03109 0.0
C1283 C 0.68895 0.75276 1.00681 0.0
C1284 C 0.68439 0.74134 0.06866 0.0
C1285 C 0.68146 0.75273 0.08293 0.0
C1286 C 0.68255 0.76425 0.05862 0.0
C1287 C 0.68631 0.7643 1.02118 0.0
H1288 H 0.27657 0.9516 0.20622 0.0
H1289 H 0.26139 0.90292 0.20835 0.0
H1290 H 0.27054 0.94991 0.14073 0.0
H1291 H 0.25586 0.90131 0.14203 0.0
H1292 H 0.23167 0.89963 0.03406 0.0
H1293 H 0.23808 0.9017 0.09959 0.0
H1294 H 0.27761 0.94695 0.08036 0.0
H1295 H 0.27082 0.94504 1.01488 0.0
C1296 C 0.27215 0.94054 0.1926 0.0
C1297 C 0.26945 0.92737 0.21275 0.0
C1298 C 0.26875 0.93959 0.15478 0.0
C1299 C 0.26264 0.92547 0.13576 0.0
C1300 C 0.26027 0.91235 0.15574 0.0
C1301 C 0.26358 0.91327 0.19378 0.0
C1302 C 0.24166 0.9101 0.04385 0.0
C1303 C 0.25069 0.9222 1.01915 0.0
C1304 C 0.24545 0.91122 0.08149 0.0
C1305 C 0.25849 0.92443 0.09554 0.0
C1306 C 0.26739 0.93665 0.07085 0.0
C1307 C 0.2635 0.93557 0.03318 0.0
H1308 H 0.68634 0.91596 0.69996 0.0
H1309 H 0.64765 0.92381 0.69606 0.0
H1310 H 0.69144 0.92234 0.63486 0.0
H1311 H 0.65235 0.92961 0.6297 0.0
H1312 H 0.67278 0.95177 0.51734 0.0
H1313 H 0.66875 0.94728 0.58395 0.0
H1314 H 0.68229 0.91257 0.57607 0.0
H1315 H 0.6869 0.91754 0.50998 0.0
C1316 C 0.67878 0.9189 0.68506 0.0
C1317 C 0.66648 0.91924 0.70329 0.0
C1318 C 0.68167 0.92249 0.64743 0.0
C1319 C 0.67223 0.92633 0.6265 0.0
C1320 C 0.66 0.92686 0.64483 0.0
C1321 C 0.65721 0.92344 0.68286 0.0
C1322 C 0.67508 0.94331 0.52996 0.0
C1323 C 0.68028 0.9351 0.50826 0.0
C1324 C 0.6726 0.94061 0.56819 0.0
C1325 C 0.67512 0.92952 0.58575 0.0
C1326 C 0.68047 0.92142 0.56395 0.0
C1327 C 0.6831 0.92424 0.52584 0.0
H1328 H 0.09222 0.7705 0.49916 0.0
H1329 H 0.06097 0.7215 0.51039 0.0
H1330 H 0.09893 0.77196 0.5645 0.0
H1331 H 0.06717 0.72301 0.57604 0.0
H1332 H 0.09166 0.72764 0.68602 0.0
H1333 H 0.08623 0.7262 0.6195 0.0
H1334 H 0.08987 0.77105 0.62455 0.0
H1335 H 0.09588 0.77272 0.68984 0.0
C1336 C 0.08658 0.76008 0.51572 0.0
C1337 C 0.07601 0.7459 0.49946 0.0
C1338 C 0.09041 0.76089 0.55334 0.0
C1339 C 0.08365 0.74759 0.57592 0.0
C1340 C 0.07288 0.73346 0.55963 0.0
C1341 C 0.06918 0.73263 0.52195 0.0
C1342 C 0.09146 0.73723 0.67274 0.0
C1343 C 0.09428 0.7503 0.6934 0.0
C1344 C 0.0882 0.73637 0.63461 0.0
C1345 C 0.08757 0.74852 0.6163 0.0
C1346 C 0.09052 0.76158 0.63715 0.0
C1347 C 0.09389 0.76249 0.67494 0.0
H1348 H 0.25509 0.31087 0.51544 0.0
H1349 H 0.25319 0.35298 0.50981 0.0
H1350 H 0.25958 0.31453 0.58227 0.0
H1351 H 0.25823 0.35695 0.57573 0.0
H1352 H 0.25301 0.35283 0.70121 0.0
H1353 H 0.24766 0.34846 0.63504 0.0
H1354 H 0.27834 0.32983 0.62711 0.0
H1355 H 0.2832 0.33368 0.69343 0.0
C1356 C 0.25564 0.3209 0.5284 0.0
C1357 C 0.2537 0.33156 0.50717 0.0
C1358 C 0.25835 0.32309 0.56673 0.0
C1359 C 0.2593 0.33608 0.58471 0.0
C1360 C 0.2573 0.34667 0.56329 0.0
C1361 C 0.25449 0.34442 0.52522 0.0
C1362 C 0.2587 0.34791 0.68528 0.0
C1363 C 0.26855 0.34364 0.70271 0.0
C1364 C 0.25566 0.34541 0.6472 0.0
C1365 C 0.26251 0.33871 0.62543 0.0
C1366 C 0.27258 0.33471 0.64289 0.0
C1367 C 0.27551 0.33708 0.68098 0.0
H1368 H 0.9028 0.67271 1.01248 0.0
H1369 H 0.94845 0.67937 0.03018 0.0
H1370 H 0.90472 0.66843 0.94684 0.0
H1371 H 0.95023 0.67462 0.96432 0.0
H1372 H 0.95399 0.68107 0.8377 0.0
H1373 H 0.95274 0.68501 0.90378 0.0
H1374 H 0.9044 0.65005 0.9045 0.0
H1375 H 0.90555 0.64645 0.83781 0.0
C1376 C 0.91328 0.67327 1.00235 0.0
C1377 C 0.92549 0.67642 0.02669 0.0
C1378 C 0.91432 0.67064 0.96463 0.0
C1379 C 0.92755 0.67097 0.95008 0.0
C1380 C 0.9399 0.67439 0.97435 0.0
C1381 C 0.93889 0.67712 1.01217 0.0
C1382 C 0.94309 0.67411 0.8519 0.0
C1383 C 0.92984 0.66347 0.83224 0.0
C1384 C 0.9424 0.67634 0.89002 0.0
C1385 C 0.92845 0.66795 0.90972 0.0
C1386 C 0.91529 0.65696 0.89023 0.0
C1387 C 0.91596 0.65478 0.85198 0.0
H1388 H 0.32345 0.26169 1.02019 0.0
H1389 H 0.34915 0.23754 1.01923 0.0
H1390 H 0.32975 0.26814 0.95464 0.0
H1391 H 0.35584 0.24437 0.95466 0.0
H1392 H 0.35219 0.24549 0.82908 0.0
H1393 H 0.34567 0.23902 0.89411 0.0
H1394 H 0.3506 0.28389 0.91335 0.0
H1395 H 0.35666 0.29017 0.84789 0.0
C1396 C 0.33042 0.25775 1.00605 0.0
C1397 C 0.33571 0.24903 0.02504 0.0
C1398 C 0.33417 0.26157 0.96852 0.0
C1399 C 0.34335 0.25681 0.94914 0.0
C1400 C 0.34855 0.24804 0.96827 0.0
C1401 C 0.34475 0.24417 1.00554 0.0
C1402 C 0.35206 0.25406 0.84721 0.0
C1403 C 0.355 0.26837 0.83315 0.0
C1404 C 0.34832 0.25035 0.88466 0.0
C1405 C 0.34752 0.2609 0.90922 0.0
C1406 C 0.35081 0.27535 0.89526 0.0
C1407 C 0.35447 0.27903 0.85773 0.0
H1408 H 0.72677 0.05741 0.84322 0.0
H1409 H 0.75065 0.1072 0.84506 0.0
H1410 H 0.73302 0.05705 0.90803 0.0
H1411 H 0.75628 0.10689 0.91072 0.0
H1412 H 0.77887 0.10305 1.01535 0.0
H1413 H 0.77199 0.10275 0.95069 0.0
H1414 H 0.72884 0.06049 0.96985 0.0
H1415 H 0.7362 0.06049 0.03436 0.0
C1416 C 0.7331 0.06832 0.85769 0.0
C1417 C 0.73821 0.08236 0.8388 0.0
C1418 C 0.73666 0.0681 0.89512 0.0
C1419 C 0.74529 0.08193 0.91503 0.0
C1420 C 0.74995 0.09598 0.89634 0.0
C1421 C 0.74657 0.09619 0.85868 0.0
C1422 C 0.76797 0.0936 1.00565 0.0
C1423 C 0.75812 0.08175 0.03 0.0
C1424 C 0.76391 0.09352 0.96853 0.0
C1425 C 0.74972 0.08171 0.95469 0.0
C1426 C 0.73994 0.06971 0.97907 0.0
C1427 C 0.74414 0.06968 1.01619 0.0
H1428 H 0.01869 0.40568 0.6829 0.0
H1429 H 0.01465 0.44584 0.70603 0.0
H1430 H 0.01126 0.39695 0.74677 0.0
H1431 H 0.00789 0.43756 0.77001 0.0
H1432 H 0.98182 0.41267 0.87325 0.0
H1433 H 0.98797 0.41964 0.80809 0.0
H1434 H 0.01888 0.40116 0.80905 0.0
H1435 H 0.0122 0.39363 0.87343 0.0
C1436 C 0.01648 0.41278 0.70179 0.0
C1437 C 0.01726 0.42645 0.6893 0.0
C1438 C 0.01222 0.40779 0.73853 0.0
C1439 C 0.00879 0.41644 0.76383 0.0
C1440 C 0.01001 0.43033 0.75136 0.0
C1441 C 0.01408 0.4352 0.71463 0.0
C1442 C 0.98977 0.40992 0.85937 0.0
C1443 C 0.99647 0.40256 0.87867 0.0
C1444 C 0.99345 0.41407 0.82202 0.0
C1445 C 1.0041 0.41115 0.80305 0.0
C1446 C 0.0105 0.40346 0.82228 0.0
C1447 C 1.00669 0.39917 0.85944 0.0
H1448 H 0.61803 0.61738 0.86169 0.0
H1449 H 0.58731 0.56812 0.86832 0.0
H1450 H 0.61328 0.61665 0.79538 0.0
H1451 H 0.58206 0.56742 0.80219 0.0
H1452 H 0.58699 0.56854 0.67709 0.0
H1453 H 0.59243 0.56949 0.74275 0.0
H1454 H 0.59466 0.61365 0.75077 0.0
H1455 H 0.58977 0.61294 0.68417 0.0
C1456 C 0.61025 0.60636 0.84898 0.0
C1457 C 0.60311 0.59279 0.8704 0.0
C1458 C 0.60739 0.60597 0.81089 0.0
C1459 C 0.59718 0.592 0.79313 0.0
C1460 C 0.59017 0.57839 0.81458 0.0
C1461 C 0.59315 0.57877 0.85264 0.0
C1462 C 0.58858 0.57847 0.69277 0.0
C1463 C 0.58789 0.59066 0.67523 0.0
C1464 C 0.59163 0.57897 0.73069 0.0
C1465 C 0.59394 0.5916 0.75247 0.0
C1466 C 0.59317 0.6038 0.73495 0.0
C1467 C 0.59025 0.60337 0.69675 0.0
H1468 H 0.41423 0.02679 0.86874 0.0
H1469 H 0.45164 0.01762 0.85197 0.0
H1470 H 0.40651 0.02009 0.80412 0.0
H1471 H 0.4445 0.01164 0.7872 0.0
H1472 H 0.42012 0.98702 0.68218 0.0
H1473 H 0.42649 0.99303 0.74759 0.0
H1474 H 0.41205 0.02711 0.74207 0.0
H1475 H 0.40502 0.02054 0.67752 0.0
C1476 C 0.42101 0.02366 0.85103 0.0
C1477 C 0.43355 0.02275 0.86553 0.0
C1478 C 0.4166 0.01981 0.81385 0.0
C1479 C 0.42475 0.01513 0.79008 0.0
C1480 C 0.43762 0.01475 0.80456 0.0
C1481 C 0.44186 0.01837 0.84174 0.0
C1482 C 0.41815 0.99566 0.69511 0.0
C1483 C 0.41199 1.00322 0.67453 0.0
C1484 C 0.42196 0.99926 0.73263 0.0
C1485 C 0.41996 0.01071 0.75047 0.0
C1486 C 0.41358 0.01808 0.72982 0.0
C1487 C 0.40958 0.01433 0.69254 0.0
H1488 H 0.61538 0.98883 0.18696 0.0
H1489 H 0.58121 1.00283 0.17454 0.0
H1490 H 0.61882 0.99682 0.25168 0.0
H1491 H 0.58509 0.01144 0.2388 0.0
H1492 H 0.58605 0.01322 0.36594 0.0
H1493 H 0.58149 0.00461 0.30165 0.0
H1494 H 0.62984 0.0188 0.28934 0.0
H1495 H 0.63418 0.02678 0.35403 0.0
C1496 C 0.60855 0.99357 0.19807 0.0
C1497 C 0.59799 0.99513 0.17545 0.0
C1498 C 0.61066 0.99835 0.2352 0.0
C1499 C 0.6024 0.00502 0.25074 0.0
C1500 C 0.59156 0.00623 0.22823 0.0
C1501 C 0.58934 1.00129 0.1912 0.0
C1502 C 0.59574 0.01467 0.34939 0.0
C1503 C 0.61049 0.0207 0.36528 0.0
C1504 C 0.59314 0.00972 0.31235 0.0
C1505 C 0.60524 0.01081 0.29 0.0
C1506 C 0.6201 0.01736 0.30568 0.0
C1507 C 0.62266 0.02214 0.3428 0.0
H1508 H 0.01982 0.6204 0.36229 0.0
H1509 H 0.98698 0.57152 0.36144 0.0
H1510 H 0.0258 0.61925 0.29748 0.0
H1511 H 0.99236 0.57045 0.29582 0.0
H1512 H 0.01612 0.56901 0.19067 0.0
H1513 H 0.01086 0.57099 0.25565 0.0
H1514 H 0.01806 0.61674 0.23581 0.0
H1515 H 0.02407 0.61493 0.17093 0.0
C1516 C 0.01362 0.60942 0.34805 0.0
C1517 C 1.00289 0.59603 0.36718 0.0
C1518 C 0.01704 0.60878 0.31064 0.0
C1519 C 0.00968 0.59475 0.29102 0.0
C1520 C 0.99858 0.58143 0.30998 0.0
C1521 C 0.99533 0.58204 0.34761 0.0
C1522 C 0.01676 0.57957 0.2003 0.0
C1523 C 0.02058 0.59183 0.17564 0.0
C1524 C 0.01354 0.58065 0.2376 0.0
C1525 C 0.01377 0.59394 0.25131 0.0
C1526 C 0.01791 0.60636 0.22666 0.0
C1527 C 0.02138 0.60536 0.18935 0.0
H1528 H 0.39443 0.40904 0.17798 0.0
H1529 H 0.44376 0.43994 0.18352 0.0
H1530 H 0.39434 0.40238 0.24339 0.0
H1531 H 0.4438 0.4329 0.24753 0.0
H1532 H 0.43842 0.429 0.37139 0.0
H1533 H 0.4371 0.43584 0.30754 0.0
H1534 H 0.40181 0.38875 0.28506 0.0
H1535 H 0.4027 0.38206 0.34978 0.0
C1536 C 0.40522 0.41445 0.19311 0.0
C1537 C 0.41907 0.4251 0.17543 0.0
C1538 C 0.40522 0.41052 0.23054 0.0
C1539 C 0.41907 0.41709 0.25105 0.0
C1540 C 0.43283 0.4278 0.23318 0.0
C1541 C 0.43282 0.4318 0.19613 0.0
C1542 C 0.43044 0.42005 0.35284 0.0
C1543 C 0.42076 0.40494 0.36577 0.0
C1544 C 0.4297 0.42397 0.31601 0.0
C1545 C 0.41939 0.41286 0.29075 0.0
C1546 C 0.40974 0.39769 0.30366 0.0
C1547 C 0.41037 0.3938 0.34074 0.0
H1548 H 0.31092 0.17839 0.13142 0.0
H1549 H 0.33952 0.21002 0.21683 0.0
H1550 H 0.32156 0.16178 0.14486 0.0
H1551 H 0.3502 0.19335 0.23029 0.0
H1552 H 0.37804 0.16879 0.21705 0.0
H1553 H 0.36707 0.18512 0.20271 0.0
H1554 H 0.32196 0.14459 0.1914 0.0
H1555 H 0.33293 0.12828 0.20569 0.0
C1556 C 0.3193 0.18172 0.15346 0.0
C1557 C 0.32433 0.19561 0.17303 0.0
C1558 C 0.32545 0.17217 0.16111 0.0
C1559 C 0.33681 0.17623 0.18854 0.0
C1560 C 0.34168 0.18999 0.20849 0.0
C1561 C 0.33553 0.19955 0.20084 0.0
C1562 C 0.36578 0.16335 0.21155 0.0
C1563 C 0.3564 0.14719 0.21262 0.0
C1564 C 0.35947 0.17273 0.20344 0.0
C1565 C 0.3436 0.1662 0.19617 0.0
C1566 C 0.33426 0.15003 0.19646 0.0
C1567 C 0.34058 0.14065 0.20456 0.0
H1568 H 0.8317 0.12591 0.14906 0.0
H1569 H 0.79564 0.13174 0.19902 0.0
H1570 H 0.85004 0.15318 0.15846 0.0
H1571 H 0.81404 0.15905 0.20888 0.0
H1572 H 0.84727 0.21024 0.18433 0.0
H1573 H 0.82878 0.18294 0.1762 0.0
H1574 H 0.864 0.17187 0.2054 0.0
H1575 H 0.88267 0.19917 0.21171 0.0
C1576 C 0.82771 0.13297 0.16246 0.0
C1577 C 0.81217 0.12658 0.1733 0.0
C1578 C 0.83826 0.14864 0.16793 0.0
C1579 C 0.83358 0.15838 0.18454 0.0
C1580 C 0.81803 0.15198 0.19549 0.0
C1581 C 0.80746 0.1363 0.18987 0.0
C1582 C 0.85115 0.20203 0.18873 0.0
C1583 C 0.86657 0.20705 0.19854 0.0
C1584 C 0.84045 0.18631 0.18451 0.0
C1585 C 0.84486 0.17513 0.19006 0.0
C1586 C 0.86021 0.18013 0.20037 0.0
C1587 C 0.87092 0.19585 0.20449 0.0
H1588 H 0.79499 0.63701 0.15844 0.0
H1589 H 0.80488 0.67385 0.2357 0.0
H1590 H 0.82229 0.64519 0.15551 0.0
H1591 H 0.83208 0.68147 0.23436 0.0
H1592 H 0.88087 0.70312 0.18451 0.0
H1593 H 0.85357 0.69397 0.19376 0.0
H1594 H 0.84386 0.64685 0.18701 0.0
H1595 H 0.87107 0.65601 0.17565 0.0
C1596 C 0.80292 0.64678 0.17507 0.0
C1597 C 0.79759 0.65483 0.19698 0.0
C1598 C 0.81863 0.65136 0.17377 0.0
C1599 C 0.8295 0.66407 0.19456 0.0
C1600 C 0.82412 0.6718 0.21747 0.0
C1601 C 0.80841 0.66727 0.21861 0.0
C1602 C 0.87295 0.69081 0.18481 0.0
C1603 C 0.87831 0.68037 0.17886 0.0
C1604 C 0.85724 0.68552 0.19065 0.0
C1605 C 0.8464 0.66963 0.191 0.0
C1606 C 0.8518 0.65917 0.18632 0.0
C1607 C 0.86752 0.66446 0.18027 0.0
H1608 H 0.13197 0.32923 0.34283 0.0
H1609 H 0.17036 0.3759 0.34889 0.0
H1610 H 0.1499 0.31943 0.34631 0.0
H1611 H 0.18822 0.36612 0.35253 0.0
H1612 H 0.21363 0.34255 0.40052 0.0
H1613 H 0.19577 0.3523 0.39528 0.0
H1614 H 0.17022 0.31816 0.31138 0.0
H1615 H 0.18813 0.30844 0.31641 0.0
C1616 C 0.14422 0.33743 0.34452 0.0
C1617 C 0.14965 0.35339 0.34576 0.0
C1618 C 0.15452 0.3318 0.34655 0.0
C1619 C 0.17053 0.34198 0.34991 0.0
C1620 C 0.17596 0.35792 0.35068 0.0
C1621 C 0.16568 0.36355 0.34858 0.0
C1622 C 0.20433 0.3372 0.38063 0.0
C1623 C 0.2024 0.32467 0.35891 0.0
C1624 C 0.19405 0.3428 0.37765 0.0
C1625 C 0.18152 0.33602 0.35291 0.0
C1626 C 0.17959 0.32352 0.33113 0.0
C1627 C 0.1899 0.31794 0.33404 0.0
H1628 H 0.68178 0.87257 0.41649 0.0
H1629 H 0.68846 0.87688 0.29785 0.0
H1630 H 0.67221 0.84481 0.41178 0.0
H1631 H 0.67915 0.84933 0.29325 0.0
H1632 H 0.64382 0.79791 0.29381 0.0
H1633 H 0.65366 0.82541 0.30197 0.0
H1634 H 0.68124 0.82597 0.39443 0.0
H1635 H 0.67116 0.79821 0.38655 0.0
C1636 C 0.68127 0.86761 0.38947 0.0
C1637 C 0.68588 0.87696 0.35756 0.0
C1638 C 0.6759 0.85175 0.38681 0.0
C1639 C 0.67482 0.84486 0.35211 0.0
C1640 C 0.67967 0.85425 0.32034 0.0
C1641 C 0.68518 0.8701 0.32303 0.0
C1642 C 0.65179 0.80379 0.31625 0.0
C1643 C 0.65666 0.79582 0.33959 0.0
C1644 C 0.65758 0.81962 0.32064 0.0
C1645 C 0.66833 0.8279 0.34865 0.0
C1646 C 0.67294 0.8199 0.37265 0.0
C1647 C 0.66725 0.80404 0.368 0.0
H1648 H 0.13845 0.79476 0.38559 0.0
H1649 H 0.12891 0.8282 0.33503 0.0
H1650 H 0.16594 0.81354 0.38493 0.0
H1651 H 0.15649 0.847 0.33427 0.0
H1652 H 0.20796 0.87028 0.30196 0.0
H1653 H 0.1803 0.85182 0.30345 0.0
H1654 H 0.18492 0.8376 0.41339 0.0
H1655 H 0.21246 0.85602 0.41201 0.0
C1656 C 0.14215 0.80617 0.3748 0.0
C1657 C 0.13137 0.80992 0.36039 0.0
C1658 C 0.15797 0.81696 0.37434 0.0
C1659 C 0.16346 0.83179 0.35946 0.0
C1660 C 0.15269 0.8356 0.34538 0.0
C1661 C 0.13686 0.82482 0.34588 0.0
C1662 C 0.20309 0.86331 0.32656 0.0
C1663 C 0.21255 0.86467 0.35678 0.0
C1664 C 0.18719 0.85272 0.32744 0.0
C1665 C 0.18036 0.84319 0.35854 0.0
C1666 C 0.18981 0.84456 0.38874 0.0
C1667 C 0.20567 0.85515 0.38789 0.0
H1668 H 0.63293 0.84064 0.83982 0.0
H1669 H 0.67926 0.87947 0.84929 0.0
H1670 H 0.64284 0.82303 0.84831 0.0
H1671 H 0.68907 0.86188 0.85927 0.0
H1672 H 0.70255 0.82592 0.82371 0.0
H1673 H 0.69306 0.84405 0.82227 0.0
H1674 H 0.65445 0.81342 0.8916 0.0
H1675 H 0.66363 0.795 0.89182 0.0
C1676 C 0.64521 0.84544 0.84407 0.0
C1677 C 0.65527 0.86151 0.84357 0.0
C1678 C 0.65088 0.83533 0.84935 0.0
C1679 C 0.66679 0.84102 0.85427 0.0
C1680 C 0.67679 0.85709 0.85503 0.0
C1681 C 0.67111 0.8672 0.84978 0.0
C1682 C 0.69201 0.823 0.83856 0.0
C1683 C 0.68383 0.80891 0.85767 0.0
C1684 C 0.68666 0.83351 0.83812 0.0
C1685 C 0.67296 0.83022 0.8568 0.0
C1686 C 0.66495 0.81627 0.87658 0.0
C1687 C 0.67032 0.80576 0.87705 0.0
H1688 H 0.12898 0.80285 0.83525 0.0
H1689 H 0.16521 0.79227 0.85579 0.0
H1690 H 0.14758 0.83031 0.84189 0.0
H1691 H 0.18377 0.81963 0.86224 0.0
H1692 H 0.20918 0.86788 0.91198 0.0
H1693 H 0.19031 0.84065 0.90431 0.0
H1694 H 0.16984 0.85179 0.81281 0.0
H1695 H 0.18872 0.87911 0.82072 0.0
C1696 C 0.14092 0.80637 0.84079 0.0
C1697 C 0.14555 0.7953 0.84518 0.0
C1698 C 0.15161 0.82213 0.8446 0.0
C1699 C 0.16719 0.82722 0.85284 0.0
C1700 C 0.17182 0.81615 0.85667 0.0
C1701 C 0.16116 0.80042 0.85293 0.0
C1702 C 0.20076 0.86454 0.89001 0.0
C1703 C 0.20055 0.87572 0.86687 0.0
C1704 C 0.18991 0.84889 0.88558 0.0
C1705 C 0.17857 0.84397 0.8578 0.0
C1706 C 0.17828 0.85516 0.8348 0.0
C1707 C 0.18912 0.87084 0.83931 0.0
H1708 H 0.12776 0.30005 0.84753 0.0
H1709 H 0.13691 0.34583 0.87563 0.0
H1710 H 0.1554 0.31016 0.83788 0.0
H1711 H 0.16435 0.35594 0.865 0.0
H1712 H 0.21223 0.36324 0.89441 0.0
H1713 H 0.18472 0.35387 0.89756 0.0
H1714 H 0.17778 0.32732 0.79781 0.0
H1715 H 0.20549 0.33688 0.79415 0.0
C1716 C 0.13563 0.31228 0.85131 0.0
C1717 C 0.13007 0.32209 0.86249 0.0
C1718 C 0.15145 0.3181 0.84546 0.0
C1719 C 0.1621 0.33385 0.85091 0.0
C1720 C 0.15649 0.34372 0.86101 0.0
C1721 C 0.14069 0.33793 0.86667 0.0
C1722 C 0.20499 0.35562 0.87269 0.0
C1723 C 0.21126 0.3509 0.84394 0.0
C1724 C 0.18913 0.35021 0.87458 0.0
C1725 C 0.17903 0.33988 0.84789 0.0
C1726 C 0.18523 0.33516 0.81903 0.0
C1727 C 0.20115 0.34065 0.81699 0.0
H1728 H 0.87957 0.67711 0.71939 0.0
H1729 H 0.8458 0.63367 0.67105 0.0
H1730 H 0.86101 0.68603 0.71722 0.0
H1731 H 0.82748 0.64289 0.66722 0.0
H1732 H 0.7934 0.65934 0.69474 0.0
H1733 H 0.81127 0.64963 0.70244 0.0
H1734 H 0.84933 0.69434 0.67181 0.0
H1735 H 0.83152 0.70402 0.66452 0.0
C1736 C 0.86818 0.66938 0.70855 0.0
C1737 C 0.86428 0.65464 0.69527 0.0
C1738 C 0.85756 0.6746 0.70683 0.0
C1739 C 0.84276 0.66526 0.6917 0.0
C1740 C 0.83872 0.65038 0.67929 0.0
C1741 C 0.84932 0.64514 0.68109 0.0
C1742 C 0.80557 0.66707 0.68948 0.0
C1743 C 0.811 0.68248 0.67907 0.0
C1744 C 0.81583 0.6615 0.69389 0.0
C1745 C 0.83179 0.6712 0.68787 0.0
C1746 C 0.83719 0.68661 0.67744 0.0
C1747 C 0.82694 0.69217 0.67318 0.0
H1748 H 0.36426 0.208 0.64204 0.0
H1749 H 0.33059 0.20172 0.7257 0.0
H1750 H 0.35611 0.18066 0.64574 0.0
H1751 H 0.32242 0.17441 0.72937 0.0
H1752 H 0.32368 0.13002 0.75369 0.0
H1753 H 0.3313 0.15716 0.74988 0.0
H1754 H 0.33445 0.15544 0.63068 0.0
H1755 H 0.32682 0.12822 0.6345 0.0
C1756 C 0.35506 0.20079 0.66106 0.0
C1757 C 0.34812 0.20714 0.68358 0.0
C1758 C 0.35035 0.18509 0.66314 0.0
C1759 C 0.33857 0.17529 0.68779 0.0
C1760 C 0.33168 0.18164 0.71044 0.0
C1761 C 0.33639 0.19735 0.70838 0.0
C1762 C 0.32578 0.13532 0.72659 0.0
C1763 C 0.32463 0.12685 0.69439 0.0
C1764 C 0.33018 0.15094 0.72441 0.0
C1765 C 0.33355 0.15854 0.68998 0.0
C1766 C 0.33221 0.15004 0.65773 0.0
C1767 C 0.32781 0.1344 0.65991 0.0
H1768 H 0.87411 0.21269 0.65446 0.0
H1769 H 0.88281 0.18243 0.7227 0.0
H1770 H 0.84661 0.19385 0.65493 0.0
H1771 H 0.85527 0.1636 0.72327 0.0
H1772 H 0.80337 0.14129 0.74887 0.0
H1773 H 0.83094 0.16006 0.74811 0.0
H1774 H 0.82818 0.16835 0.63167 0.0
H1775 H 0.80072 0.14959 0.63232 0.0
C1776 C 0.87023 0.20196 0.6692 0.0
C1777 C 0.88077 0.19914 0.68854 0.0
C1778 C 0.85441 0.19114 0.66953 0.0
C1779 C 0.84869 0.1772 0.68923 0.0
C1780 C 0.85923 0.17432 0.70833 0.0
C1781 C 0.87505 0.18513 0.70795 0.0
C1782 C 0.80863 0.14702 0.72303 0.0
C1783 C 0.7997 0.14388 0.6907 0.0
C1784 C 0.82447 0.1578 0.72259 0.0
C1785 C 0.83181 0.16574 0.68982 0.0
C1786 C 0.82289 0.16264 0.65754 0.0
C1787 C 0.80707 0.15186 0.65796 0.0
H1788 H 1.00188 0.46319 0.53685 0.0
H1789 H 0.04835 0.50213 0.54063 0.0
H1790 H 0.99202 0.48047 0.52338 0.0
H1791 H 0.03839 0.51948 0.52886 0.0
H1792 H 0.01764 0.54648 0.47982 0.0
H1793 H 0.02661 0.52798 0.4838 0.0
H1794 H 0.98815 0.49922 0.55564 0.0
H1795 H 0.97878 0.51738 0.55028 0.0
C1796 C 0.01005 0.47541 0.53447 0.0
C1797 C 0.02596 0.48122 0.53999 0.0
C1798 C 1.00435 0.48536 0.5272 0.0
C1799 C 0.01437 0.50141 0.5253 0.0
C1800 C 0.03032 0.50719 0.52979 0.0
C1801 C 0.03603 0.49723 0.53699 0.0
C1802 C 0.01089 0.53608 0.49587 0.0
C1803 C 0.99747 0.5335 0.51483 0.0
C1804 C 0.01618 0.52554 0.49855 0.0
C1805 C 0.00819 0.51213 0.52027 0.0
C1806 C 0.99454 0.50934 0.53838 0.0
C1807 C 0.98925 0.51986 0.53566 0.0
H1808 H 0.51956 0.54838 0.49001 0.0
H1809 H 0.54553 0.53907 0.57112 0.0
H1810 H 0.50155 0.52081 0.48391 0.0
H1811 H 0.52747 0.5115 0.56524 0.0
H1812 H 0.50124 0.46264 0.51828 0.0
H1813 H 0.51936 0.49021 0.5231 0.0
H1814 H 0.48141 0.49918 0.51714 0.0
H1815 H 0.46329 0.47157 0.51206 0.0
C1816 C 0.52138 0.54047 0.50678 0.0
C1817 C 0.53403 0.546 0.53108 0.0
C1818 C 0.51101 0.52463 0.50331 0.0
C1819 C 0.513 0.51387 0.52411 0.0
C1820 C 0.52569 0.51941 0.54832 0.0
C1821 C 0.53608 0.53525 0.55172 0.0
C1822 C 0.49673 0.47046 0.51827 0.0
C1823 C 0.48077 0.46482 0.51488 0.0
C1824 C 0.50714 0.48631 0.52106 0.0
C1825 C 0.50188 0.49698 0.52064 0.0
C1826 C 0.48592 0.49135 0.51702 0.0
C1827 C 0.4755 0.47548 0.51413 0.0
H1828 H 0.55004 0.03749 0.5481 0.0
H1829 H 0.54054 0.99688 0.48535 0.0
H1830 H 0.52248 0.02838 0.55173 0.0
H1831 H 0.51298 0.98788 0.48871 0.0
H1832 H 0.46661 0.98629 0.46851 0.0
H1833 H 0.49393 0.99447 0.46559 0.0
H1834 H 0.49887 0.00772 0.58088 0.0
H1835 H 0.47144 0.99939 0.58406 0.0
C1836 C 0.54212 0.02658 0.53524 0.0
C1837 C 0.54763 0.01795 0.51647 0.0
C1838 C 0.52627 0.02135 0.53737 0.0
C1839 C 0.5155 0.00736 0.52065 0.0
C1840 C 0.52098 0.99879 0.50155 0.0
C1841 C 0.53683 1.00399 0.49953 0.0
C1842 C 0.47338 0.99071 0.49348 0.0
C1843 C 0.46668 0.99217 0.52655 0.0
C1844 C 0.48912 0.99544 0.49173 0.0
C1845 C 0.49863 1.00183 0.52293 0.0
C1846 C 0.49193 1.00309 0.55614 0.0
C1847 C 0.47617 0.9983 0.55796 0.0
H1848 H 0.47014 1.00453 0.98004 0.0
H1849 H 0.50134 0.04431 0.04502 0.0
H1850 H 0.48743 0.99414 0.98677 0.0
H1851 H 0.51893 0.0343 0.05021 0.0
H1852 H 0.54107 0.00567 0.08139 0.0
H1853 H 0.5225 0.01467 0.07826 0.0
H1854 H 0.51204 0.99876 0.96498 0.0
H1855 H 0.53045 0.98965 0.96831 0.0
C1856 C 0.48063 0.01106 0.99589 0.0
C1857 C 0.4843 0.02534 1.01182 0.0
C1858 C 0.49067 0.00518 0.99938 0.0
C1859 C 0.50467 0.0134 1.01887 0.0
C1860 C 0.50821 0.02754 0.0353 0.0
C1861 C 0.49817 0.03341 0.03188 0.0
C1862 C 0.53486 1.00415 0.05578 0.0
C1863 C 0.53729 0.99691 0.02514 0.0
C1864 C 0.52419 0.00933 0.05394 0.0
C1865 C 0.51571 0.00746 1.02135 0.0
C1866 C 0.51811 1.00016 0.99078 0.0
C1867 C 0.52873 0.99494 0.99267 0.0
H1868 H 0.04204 0.54166 0.04029 0.0
H1869 H 0.99673 0.53617 0.02444 0.0
H1870 H 0.03116 0.51397 0.03487 0.0
H1871 H 0.98579 0.50827 1.01918 0.0
H1872 H 0.971 0.45784 0.05384 0.0
H1873 H 0.98069 0.48559 0.05627 0.0
H1874 H 0.01981 0.49362 0.98885 0.0
H1875 H 0.01048 0.46608 0.98751 0.0
C1876 C 0.02977 0.5346 0.03523 0.0
C1877 C 0.02032 0.54127 0.03255 0.0
C1878 C 0.02351 0.51866 0.03211 0.0
C1879 C 0.0076 0.50887 0.02628 0.0
C1880 C 0.99807 0.51546 0.02397 0.0
C1881 C 1.00436 0.53147 0.02702 0.0
C1882 C 0.98167 0.46553 0.03955 0.0
C1883 C 0.98996 0.45965 1.02065 0.0
C1884 C 0.98715 0.48143 0.04065 0.0
C1885 C 1.0011 0.49187 0.023 0.0
C1886 C 0.00915 0.48595 1.00323 0.0
C1887 C 1.00367 0.47008 1.00206 0.0
H1888 H 0.4666 0.46063 0.99115 0.0
H1889 H 0.46363 0.49598 0.05356 0.0
H1890 H 0.49409 0.4783 0.98105 0.0
H1891 H 0.49092 0.51356 0.0429 0.0
H1892 H 0.53776 0.54587 0.99205 0.0
H1893 H 0.50994 0.52814 0.99402 0.0
H1894 H 0.51787 0.49051 1.01921 0.0
H1895 H 0.54572 0.5082 1.01637 0.0
C1896 C 0.47172 0.47211 1.00273 0.0
C1897 C 0.46274 0.47673 0.02341 0.0
C1898 C 0.48751 0.48226 0.99686 0.0
C1899 C 0.49472 0.49734 1.01122 0.0
C1900 C 0.4857 0.5021 0.031 0.0
C1901 C 0.46996 0.49195 0.03708 0.0
C1902 C 0.53359 0.53378 0.99738 0.0
C1903 C 0.544 0.52847 1.00416 0.0
C1904 C 0.51763 0.52363 0.99888 0.0
C1905 C 0.51167 0.50791 1.00696 0.0
C1906 C 0.52207 0.50252 1.01265 0.0
C1907 C 0.53803 0.51269 1.01139 0.0
H1908 H 0.4295 0.05917 0.06812 0.0
H1909 H 0.38787 0.04251 1.00345 0.0
H1910 H 0.42018 0.07184 0.11081 0.0
H1911 H 0.37856 0.05489 0.046 0.0
H1912 H 0.37228 0.09102 0.10503 0.0
H1913 H 0.38371 0.08023 0.06389 0.0
H1914 H 0.40005 0.06614 0.15844 0.0
H1915 H 0.38869 0.07724 0.20003 0.0
C1916 C 0.41841 0.05825 0.06289 0.0
C1917 C 0.4095 0.04985 0.03213 0.0
C1918 C 0.41301 0.06542 0.08754 0.0
C1919 C 0.39862 0.06448 0.08189 0.0
C1920 C 0.38979 0.05612 0.05104 0.0
C1921 C 0.39513 0.04892 0.02662 0.0
C1922 C 0.37837 0.08571 0.11725 0.0
C1923 C 0.37944 0.08494 0.15601 0.0
C1924 C 0.38487 0.07941 0.09352 0.0
C1925 C 0.39268 0.07211 0.10769 0.0
C1926 C 0.3942 0.07174 0.14647 0.0
C1927 C 0.38763 0.07805 0.17036 0.0
H1928 H 0.94595 0.2965 0.15161 0.0
H1929 H 0.91565 0.31143 0.19759 0.0
H1930 H 0.95627 0.31803 0.10796 0.0
H1931 H 0.92614 0.33308 0.15441 0.0
H1932 H 0.93628 0.36064 0.04702 0.0
H1933 H 0.92613 0.33878 0.08947 0.0
H1934 H 0.9721 0.34584 0.10392 0.0
H1935 H 0.98223 0.36758 0.06089 0.0
C1936 C 0.94153 0.30441 0.15259 0.0
C1937 C 0.92992 0.30216 0.1782 0.0
C1938 C 0.94752 0.31683 0.12761 0.0
C1939 C 0.94204 0.32734 0.12743 0.0
C1940 C 0.9305 0.32513 0.15324 0.0
C1941 C 0.92454 0.31274 0.17826 0.0
C1942 C 0.94424 0.35751 0.05907 0.0
C1943 C 0.9601 0.36594 0.05042 0.0
C1944 C 0.93842 0.34501 0.08372 0.0
C1945 C 0.94827 0.34052 0.10046 0.0
C1946 C 0.96411 0.34882 0.09138 0.0
C1947 C 0.96994 0.36136 0.06676 0.0
H1948 H 0.65998 0.62278 1.00298 0.0
H1949 H 0.63069 0.58335 0.07139 0.0
H1950 H 0.68066 0.63116 0.04829 0.0
H1951 H 0.65136 0.59189 0.11712 0.0
H1952 H 0.6977 0.60406 0.1727 0.0
H1953 H 0.67673 0.59504 0.12781 0.0
H1954 H 0.68737 0.64201 0.10987 0.0
H1955 H 0.70849 0.65105 0.15429 0.0
C1956 C 0.65794 0.61585 0.02765 0.0
C1957 C 0.64361 0.60236 0.0334 0.0
C1958 C 0.66979 0.62075 0.05387 0.0
C1959 C 0.66771 0.6123 0.08665 0.0
C1960 C 0.65346 0.59865 0.09213 0.0
C1961 C 0.64157 0.59377 0.0659 0.0
C1962 C 0.69554 0.61248 0.15932 0.0
C1963 C 0.70486 0.62831 0.16716 0.0
C1964 C 0.68344 0.60728 0.13363 0.0
C1965 C 0.68034 0.61777 0.11492 0.0
C1966 C 0.68954 0.63359 0.12319 0.0
C1967 C 0.70161 0.63878 0.14895 0.0
H1968 H 0.05658 0.37656 0.33097 0.0
H1969 H 0.09289 0.38576 0.40893 0.0
H1970 H 0.0469 0.38908 0.37203 0.0
H1971 H 0.08332 0.39866 0.45 0.0
H1972 H 0.0505 0.40528 0.53087 0.0
H1973 H 0.06179 0.39368 0.49085 0.0
H1974 H 0.0529 0.41384 0.39498 0.0
H1975 H 0.04142 0.42507 0.4346 0.0
C1976 C 0.06262 0.38139 0.35675 0.0
C1977 C 0.07557 0.38015 0.36646 0.0
C1978 C 0.05708 0.38867 0.38033 0.0
C1979 C 0.06432 0.39499 0.41444 0.0
C1980 C 0.07734 0.39382 0.42417 0.0
C1981 C 0.08291 0.38652 0.40046 0.0
C1982 C 0.05103 0.40728 0.50126 0.0
C1983 C 0.04493 0.41604 0.48604 0.0
C1984 C 0.05758 0.40068 0.47828 0.0
C1985 C 0.05818 0.40267 0.43949 0.0
C1986 C 0.05239 0.41175 0.42454 0.0
C1987 C 0.04586 0.4183 0.44741 0.0
H1988 H 0.63322 0.65779 0.54354 0.0
H1989 H 0.59079 0.63547 0.48089 0.0
H1990 H 0.64294 0.68034 0.50366 0.0
H1991 H 0.60054 0.65827 0.44092 0.0
H1992 H 0.63196 0.69592 0.35377 0.0
H1993 H 0.62062 0.67279 0.39295 0.0
H1994 H 0.63846 0.70149 0.49026 0.0
H1995 H 0.64984 0.72441 0.45147 0.0
C1996 C 0.62589 0.65771 0.5214 0.0
C1997 C 0.61117 0.64477 0.51562 0.0
C1998 C 0.63146 0.67072 0.49853 0.0
C1999 C 0.62253 0.6712 0.46903 0.0
C2000 C 0.60779 0.65826 0.46316 0.0
C2001 C 0.60215 0.64523 0.48627 0.0
C2002 C 0.63341 0.69728 0.38353 0.0
C2003 C 0.64192 0.71208 0.39933 0.0
C2004 C 0.62683 0.68401 0.40603 0.0
C2005 C 0.6287 0.68523 0.44484 0.0
C2006 C 0.63698 0.70005 0.46051 0.0
C2007 C 0.64346 0.71325 0.43816 0.0
H2008 H 0.36635 0.94245 0.51459 0.0
H2009 H 0.37824 0.98932 0.48966 0.0
H2010 H 0.34516 0.93293 0.47024 0.0
H2011 H 0.35687 0.97978 0.44584 0.0
H2012 H 0.32842 0.95877 0.34113 0.0
H2013 H 0.3494 0.96772 0.38582 0.0
H2014 H 0.32008 0.93011 0.45894 0.0
H2015 H 0.29915 0.92098 0.41386 0.0
C2016 C 0.36437 0.95074 0.49992 0.0
C2017 C 0.37408 0.96668 0.50577 0.0
C2018 C 0.35215 0.94526 0.47452 0.0
C2019 C 0.34927 0.95555 0.45416 0.0
C2020 C 0.35885 0.97149 0.46046 0.0
C2021 C 0.37106 0.97697 0.48589 0.0
C2022 C 0.32644 0.95233 0.36661 0.0
C2023 C 0.31203 0.93912 0.37375 0.0
C2024 C 0.33847 0.95756 0.39247 0.0
C2025 C 0.33647 0.94974 0.42627 0.0
C2026 C 0.32213 0.93638 0.43314 0.0
C2027 C 0.31008 0.93115 0.40728 0.0
H2028 H 0.63805 0.95742 0.8388 0.0
H2029 H 0.62859 0.91871 0.9089 0.0
H2030 H 0.6262 0.96623 0.8845 0.0
H2031 H 0.61695 0.92771 0.95512 0.0
H2032 H 0.58338 0.94044 1.01272 0.0
H2033 H 0.59495 0.93093 0.96776 0.0
H2034 H 0.63072 0.97775 0.94486 0.0
H2035 H 0.61899 0.98726 0.98921 0.0
C2036 C 0.63344 0.95076 0.86397 0.0
C2037 C 0.63431 0.93733 0.87001 0.0
C2038 C 0.62673 0.9559 0.89043 0.0
C2039 C 0.62067 0.94779 0.92383 0.0
C2040 C 0.62135 0.93422 0.92967 0.0
C2041 C 0.62809 0.92907 0.90316 0.0
C2042 C 0.59375 0.94872 0.99824 0.0
C2043 C 0.60019 0.96465 1.00465 0.0
C2044 C 0.60045 0.94324 0.97248 0.0
C2045 C 0.61376 0.95354 0.95232 0.0
C2046 C 0.62033 0.96945 0.95925 0.0
C2047 C 0.61365 0.97492 0.985 0.0
H2048 H 0.04123 0.65615 0.02903 0.0
H2049 H 0.05551 0.62782 0.96984 0.0
H2050 H 0.05399 0.67638 0.98284 0.0
H2051 H 0.06797 0.64796 0.92284 0.0
H2052 H 0.10101 0.69377 0.86336 0.0
H2053 H 0.08905 0.67329 0.90971 0.0
H2054 H 0.05121 0.68226 0.92075 0.0
H2055 H 0.06334 0.70292 0.87537 0.0
C2056 C 0.04709 0.65421 1.00612 0.0
C2057 C 0.04728 0.64029 1.00324 0.0
C2058 C 0.05433 0.66581 0.97933 0.0
C2059 C 0.06193 0.66384 0.94866 0.0
C2060 C 0.06237 0.65001 0.94613 0.0
C2061 C 0.05516 0.6384 0.97307 0.0
C2062 C 0.0901 0.69132 0.87556 0.0
C2063 C 0.08321 0.70009 0.86563 0.0
C2064 C 0.08319 0.67951 0.90212 0.0
C2065 C 0.06917 0.67611 0.91942 0.0
C2066 C 0.06215 0.6847 0.90879 0.0
C2067 C 0.06907 0.69652 0.88243 0.0
H2068 H 0.29694 0.38001 0.90372 0.0
H2069 H 0.32683 0.37173 0.83239 0.0
H2070 H 0.31769 0.39228 0.94904 0.0
H2071 H 0.34767 0.38429 0.87729 0.0
H2072 H 0.37624 0.39248 0.98242 0.0
H2073 H 0.35533 0.38036 0.93746 0.0
H2074 H 0.34236 0.41472 0.96075 0.0
H2075 H 0.36304 0.42661 1.00626 0.0
C2076 C 0.30798 0.38093 0.89748 0.0
C2077 C 0.31015 0.37484 0.8643 0.0
C2078 C 0.31994 0.38804 0.92349 0.0
C2079 C 0.33442 0.38926 0.91707 0.0
C2080 C 0.33663 0.38335 0.8836 0.0
C2081 C 0.32468 0.37625 0.85762 0.0
C2082 C 0.36891 0.39743 0.97807 0.0
C2083 C 0.37137 0.41054 0.9981 0.0
C2084 C 0.35695 0.39054 0.95201 0.0
C2085 C 0.34711 0.39655 0.94519 0.0
C2086 C 0.34953 0.40961 0.96546 0.0
C2087 C 0.36148 0.4165 0.99152 0.0
H2088 H 0.96231 0.63895 0.70051 0.0
H2089 H 0.92241 0.6267 0.63217 0.0
H2090 H 0.97121 0.62666 0.65623 0.0
H2091 H 0.93147 0.61462 0.58747 0.0
H2092 H 0.94464 0.58072 0.5348 0.0
H2093 H 0.93527 0.59279 0.57858 0.0
H2094 H 0.98199 0.63011 0.59469 0.0
H2095 H 0.99139 0.6179 0.5514 0.0
C2096 C 0.95541 0.63362 0.67606 0.0
C2097 C 0.94161 0.63384 0.67005 0.0
C2098 C 0.9606 0.62667 0.65043 0.0
C2099 C 0.95214 0.61969 0.61801 0.0
C2100 C 0.93824 0.61973 0.61223 0.0
C2101 C 0.93305 0.62673 0.63785 0.0
C2102 C 0.95293 0.59154 0.54753 0.0
C2103 C 0.9688 0.59829 0.53951 0.0
C2104 C 0.94753 0.59851 0.57259 0.0
C2105 C 0.95785 0.61243 0.59045 0.0
C2106 C 0.9737 0.61928 0.58202 0.0
C2107 C 0.9791 0.61232 0.55691 0.0
H2108 H 0.40369 0.30229 0.6352 0.0
H2109 H 0.36413 0.3058 0.66954 0.0
H2110 H 0.41187 0.32451 0.5944 0.0
H2111 H 0.37249 0.3282 0.62963 0.0
H2112 H 0.38098 0.35635 0.52522 0.0
H2113 H 0.37392 0.33438 0.56561 0.0
H2114 H 0.42207 0.35196 0.59115 0.0
H2115 H 0.42919 0.37387 0.54975 0.0
C2116 C 0.39682 0.3079 0.63441 0.0
C2117 C 0.38318 0.30216 0.6556 0.0
C2118 C 0.40155 0.32071 0.61105 0.0
C2119 C 0.3928 0.32815 0.60829 0.0
C2120 C 0.37938 0.32262 0.63028 0.0
C2121 C 0.37463 0.3098 0.65349 0.0
C2122 C 0.39011 0.35553 0.53925 0.0
C2123 C 0.40567 0.36695 0.5342 0.0
C2124 C 0.38603 0.34295 0.56277 0.0
C2125 C 0.39737 0.3414 0.58218 0.0
C2126 C 0.413 0.35266 0.57654 0.0
C2127 C 0.41709 0.36527 0.55283 0.0
H2128 H 0.64931 0.07576 0.52707 0.0
H2129 H 0.63921 0.0295 0.55275 0.0
H2130 H 0.67076 0.08611 0.5707 0.0
H2131 H 0.66039 0.03981 0.59713 0.0
H2132 H 0.70889 0.06426 0.64818 0.0
H2133 H 0.68781 0.05376 0.60348 0.0
H2134 H 0.67624 0.08838 0.63542 0.0
H2135 H 0.69757 0.09911 0.67937 0.0
C2136 C 0.65164 0.06778 0.54201 0.0
C2137 C 0.64248 0.05177 0.53626 0.0
C2138 C 0.66391 0.07372 0.56736 0.0
C2139 C 0.66735 0.06384 0.58782 0.0
C2140 C 0.65828 0.04783 0.58169 0.0
C2141 C 0.64604 0.04189 0.55626 0.0
C2142 C 0.70183 0.06962 0.64578 0.0
C2143 C 0.705 0.08258 0.66745 0.0
C2144 C 0.68965 0.06353 0.62018 0.0
C2145 C 0.68026 0.0702 0.61553 0.0
C2146 C 0.68334 0.08306 0.6376 0.0
C2147 C 0.69554 0.08916 0.66312 0.0
H2148 H 0.76046 0.73811 0.67866 0.0
H2149 H 0.73497 0.69433 0.73506 0.0
H2150 H 0.75067 0.74962 0.72291 0.0
H2151 H 0.72541 0.70591 0.77975 0.0
H2152 H 0.69818 0.72785 0.82835 0.0
H2153 H 0.7081 0.71606 0.7853 0.0
H2154 H 0.75279 0.75759 0.78682 0.0
H2155 H 0.74278 0.7695 0.82934 0.0
C2156 C 0.7528 0.73093 0.70054 0.0
C2157 C 0.74851 0.71526 0.70314 0.0
C2158 C 0.74726 0.73758 0.72615 0.0
C2159 C 0.73725 0.72875 0.75511 0.0
C2160 C 0.73293 0.71306 0.75763 0.0
C2161 C 0.7385 0.70641 0.73204 0.0
C2162 C 0.71015 0.73446 0.81968 0.0
C2163 C 0.71965 0.74967 0.83236 0.0
C2164 C 0.71588 0.72765 0.79505 0.0
C2165 C 0.73127 0.73585 0.78232 0.0
C2166 C 0.74082 0.75098 0.79547 0.0
C2167 C 0.7351 0.75779 0.82015 0.0
H2168 H 0.31857 0.0348 0.73043 0.0
H2169 H 0.27303 0.02927 0.72038 0.0
H2170 H 0.30834 0.0129 0.77309 0.0
H2171 H 0.26279 0.00731 0.76251 0.0
H2172 H 0.25309 0.98026 0.87089 0.0
H2173 H 0.26367 1.00184 0.82756 0.0
H2174 H 0.2916 0.98497 0.77701 0.0
H2175 H 0.28116 0.96345 0.82078 0.0
C2176 C 0.30635 0.02886 0.73705 0.0
C2177 C 0.29666 0.03388 0.72194 0.0
C2178 C 0.30046 0.01623 0.76145 0.0
C2179 C 0.28473 0.00833 0.77154 0.0
C2180 C 0.27501 0.01323 0.75594 0.0
C2181 C 0.28088 0.0258 0.73149 0.0
C2182 C 0.26152 0.98114 0.85063 0.0
C2183 C 0.26623 0.97005 0.84943 0.0
C2184 C 0.26752 0.99349 0.82552 0.0
C2185 C 0.27847 0.99518 0.79853 0.0
C2186 C 0.28331 0.98417 0.79757 0.0
C2187 C 0.27725 0.97176 0.82261 0.0
H2188 H 0.97307 0.28028 0.72695 0.0
H2189 H 0.98141 0.24247 0.70773 0.0
H2190 H 0.99428 0.29141 0.77137 0.0
H2191 H 1.00282 0.25376 0.75139 0.0
H2192 H 0.02886 0.26837 0.8608 0.0
H2193 H 0.0078 0.2579 0.81624 0.0
H2194 H 0.02183 0.30403 0.77853 0.0
H2195 H 0.04274 0.31454 0.82386 0.0
C2196 C 0.97951 0.2744 0.7319 0.0
C2197 C 0.97543 0.26041 0.71374 0.0
C2198 C 0.99176 0.28084 0.75733 0.0
C2199 C 1.0003 0.27349 0.76533 0.0
C2200 C 0.99637 0.25965 0.7466 0.0
C2201 C 0.98413 0.2532 0.72125 0.0
C2202 C 0.02745 0.27632 0.84314 0.0
C2203 C 0.03757 0.29233 0.84605 0.0
C2204 C 0.0154 0.27028 0.81726 0.0
C2205 C 0.01308 0.28006 0.79338 0.0
C2206 C 0.0231 0.29611 0.7966 0.0
C2207 C 0.03517 0.30215 0.82255 0.0
H2208 H 0.31476 0.26375 0.27379 0.0
H2209 H 0.29508 0.26725 0.17039 0.0
H2210 H 0.30198 0.27562 0.30625 0.0
H2211 H 0.28188 0.27874 0.20307 0.0
H2212 H 0.27546 0.31512 0.26458 0.0
H2213 H 0.28689 0.30193 0.23248 0.0
H2214 H 0.27813 0.27263 0.32797 0.0
H2215 H 0.26705 0.28628 0.36069 0.0
C2216 C 0.30759 0.26693 0.25794 0.0
C2217 C 0.30605 0.26458 0.21932 0.0
C2218 C 0.30013 0.27366 0.27671 0.0
C2219 C 0.29085 0.27823 0.25748 0.0
C2220 C 0.28911 0.27564 0.21888 0.0
C2221 C 0.29661 0.26893 0.20007 0.0
C2222 C 0.27589 0.30583 0.27882 0.0
C2223 C 0.27031 0.30181 0.31537 0.0
C2224 C 0.28239 0.29815 0.26019 0.0
C2225 C 0.28345 0.2861 0.27736 0.0
C2226 C 0.27773 0.28196 0.31388 0.0
C2227 C 0.27128 0.28974 0.33265 0.0
H2228 H 0.755 0.03376 0.20653 0.0
H2229 H 0.71054 0.03026 0.2228 0.0
H2230 H 0.74735 0.0119 0.24846 0.0
H2231 H 0.70313 0.00893 0.26538 0.0
H2232 H 0.68777 0.96155 0.31285 0.0
H2233 H 0.69578 0.98276 0.26928 0.0
H2234 H 0.74238 1.00388 0.31153 0.0
H2235 H 0.73443 0.98232 0.3543 0.0
C2236 C 0.74361 0.02836 0.21907 0.0
C2237 C 0.73339 0.03378 0.21102 0.0
C2238 C 0.73925 0.01587 0.2434 0.0
C2239 C 0.72456 0.0085 0.26049 0.0
C2240 C 0.7144 0.014 0.25237 0.0
C2241 C 0.71872 0.02637 0.22797 0.0
C2242 C 0.69973 0.97072 0.31294 0.0
C2243 C 0.71042 0.97018 0.33728 0.0
C2244 C 0.70434 0.98299 0.28797 0.0
C2245 C 0.71977 0.9952 0.28672 0.0
C2246 C 0.73046 0.99465 0.31113 0.0
C2247 C 0.72586 0.9823 0.33597 0.0
H2248 H 0.04495 0.75276 0.301 0.0
H2249 H 0.01754 0.71161 0.36597 0.0
H2250 H 0.02367 0.74448 0.25719 0.0
H2251 H 0.9962 0.7035 0.32267 0.0
H2252 H 0.96715 0.68516 0.21753 0.0
H2253 H 0.98863 0.69382 0.26075 0.0
H2254 H 0.99805 0.7407 0.24965 0.0
H2255 H 0.97676 0.73209 0.20586 0.0
C2256 C 0.03435 0.74201 0.30615 0.0
C2257 C 0.03303 0.73287 0.33711 0.0
C2258 C 0.02209 0.73727 0.28105 0.0
C2259 C 0.00815 0.72325 0.28613 0.0
C2260 C 1.0068 0.71422 0.31737 0.0
C2261 C 0.01904 0.71896 0.34245 0.0
C2262 C 0.97381 0.69733 0.2242 0.0
C2263 C 0.97016 0.7079 0.20809 0.0
C2264 C 0.9861 0.7023 0.24927 0.0
C2265 C 0.99513 0.71799 0.25898 0.0
C2266 C 0.99153 0.72857 0.24262 0.0
C2267 C 0.97923 0.7236 0.21757 0.0
loop_
_geom_bond_atom_site_label_1
_geom_bond_atom_site_label_2
_geom_bond_distance
_geom_bond_site_symmetry_2
_ccdc_geom_bond_type
Cu0 N1 1.999 . S
Cu0 O6 1.974 . S
Cu0 N11 1.985 . S
Cu0 O20 1.959 . S
N1 Cu0 1.999 . S
N1 C3 1.263 . S
N1 C5 1.389 . S
N2 C3 1.358 . S
N2 C4 1.400 . S
C3 N1 1.263 . S
C3 N2 1.358 . S
C3 H9 0.930 . S
C4 N2 1.400 . S
C4 C5 1.351 . S
C4 H21 0.930 . S
C5 N1 1.389 . S
C5 C4 1.351 . S
C5 H10 0.930 . S
O6 Cu0 1.974 . S
O6 C16 1.282 . S
C7 O8 1.261 . S
C7 O20 1.251 . S
O8 C7 1.261 . S
H9 C3 0.930 . S
H10 C5 0.930 . S
N11 Cu0 1.985 . S
N11 C13 1.335 . S
N11 C14 1.390 . S
N12 C13 1.345 . S
N12 C15 1.336 . S
C13 N11 1.335 . S
C13 N12 1.345 . S
C13 H18 0.930 . S
C14 N11 1.390 . S
C14 C15 1.346 . S
C14 H19 0.930 . S
C15 N12 1.336 . S
C15 C14 1.346 . S
C15 H22 0.929 . S
C16 O6 1.282 . S
C16 O17 1.216 . S
O17 C16 1.216 . S
H18 C13 0.930 . S
H19 C14 0.930 . S
O20 Cu0 1.959 . S
O20 C7 1.251 . S
H21 C4 0.930 . S
H22 C15 0.929 . S
Cu23 N24 1.999 . S
Cu23 O29 1.974 . S
Cu23 N34 1.985 . S
Cu23 O43 1.959 . S
N24 Cu23 1.999 . S
N24 C26 1.263 . S
N24 C28 1.389 . S
N25 C26 1.358 . S
N25 C27 1.400 . S
C26 N24 1.263 . S
C26 N25 1.358 . S
C26 H32 0.930 . S
C27 N25 1.400 . S
C27 C28 1.351 . S
C27 H44 0.930 . S
C28 N24 1.389 . S
C28 C27 1.351 . S
C28 H33 0.930 . S
O29 Cu23 1.974 . S
O29 C39 1.282 . S
C30 O31 1.261 . S
C30 O43 1.251 . S
O31 C30 1.261 . S
H32 C26 0.930 . S
H33 C28 0.930 . S
N34 Cu23 1.985 . S
N34 C36 1.335 . S
N34 C37 1.390 . S
N35 C36 1.345 . S
N35 C38 1.336 . S
C36 N34 1.335 . S
C36 N35 1.345 . S
C36 H41 0.930 . S
C37 N34 1.390 . S
C37 C38 1.346 . S
C37 H42 0.930 . S
C38 N35 1.336 . S
C38 C37 1.346 . S
C38 H45 0.929 . S
C39 O29 1.282 . S
C39 O40 1.216 . S
O40 C39 1.216 . S
H41 C36 0.930 . S
H42 C37 0.930 . S
O43 Cu23 1.959 . S
O43 C30 1.251 . S
H44 C27 0.930 . S
H45 C38 0.929 . S
Cu46 N47 1.999 . S
Cu46 O52 1.974 . S
Cu46 N57 1.985 . S
Cu46 O66 1.959 . S
N47 Cu46 1.999 . S
N47 C49 1.263 . S
N47 C51 1.389 . S
N48 C49 1.358 . S
N48 C50 1.400 . S
C49 N47 1.263 . S
C49 N48 1.358 . S
C49 H55 0.930 . S
C50 N48 1.400 . S
C50 C51 1.351 . S
C50 H67 0.930 . S
C51 N47 1.389 . S
C51 C50 1.351 . S
C51 H56 0.930 . S
O52 Cu46 1.974 . S
O52 C62 1.282 . S
C53 O54 1.261 . S
C53 O66 1.251 . S
O54 C53 1.261 . S
H55 C49 0.930 . S
H56 C51 0.930 . S
N57 Cu46 1.985 . S
N57 C59 1.335 . S
N57 C60 1.390 . S
N58 C59 1.345 . S
N58 C61 1.336 . S
C59 N57 1.335 . S
C59 N58 1.345 . S
C59 H64 0.930 . S
C60 N57 1.390 . S
C60 C61 1.346 . S
C60 H65 0.930 . S
C61 N58 1.336 . S
C61 C60 1.346 . S
C61 H68 0.929 . S
C62 O52 1.282 . S
C62 O63 1.216 . S
O63 C62 1.216 . S
H64 C59 0.930 . S
H65 C60 0.930 . S
O66 Cu46 1.959 . S
O66 C53 1.251 . S
H67 C50 0.930 . S
H68 C61 0.929 . S
Cu69 N70 1.999 . S
Cu69 O75 1.974 . S
Cu69 N80 1.985 . S
Cu69 O89 1.959 . S
N70 Cu69 1.999 . S
N70 C72 1.263 . S
N70 C74 1.389 . S
N71 C72 1.358 . S
N71 C73 1.400 . S
C72 N70 1.263 . S
C72 N71 1.358 . S
C72 H78 0.930 . S
C73 N71 1.400 . S
C73 C74 1.351 . S
C73 H90 0.930 . S
C74 N70 1.389 . S
C74 C73 1.351 . S
C74 H79 0.930 . S
O75 Cu69 1.974 . S
O75 C85 1.282 . S
C76 O77 1.261 . S
C76 O89 1.251 . S
O77 C76 1.261 . S
H78 C72 0.930 . S
H79 C74 0.930 . S
N80 Cu69 1.985 . S
N80 C82 1.335 . S
N80 C83 1.390 . S
N81 C82 1.345 . S
N81 C84 1.336 . S
C82 N80 1.335 . S
C82 N81 1.345 . S
C82 H87 0.930 . S
C83 N80 1.390 . S
C83 C84 1.346 . S
C83 H88 0.930 . S
C84 N81 1.336 . S
C84 C83 1.346 . S
C84 H91 0.929 . S
C85 O75 1.282 . S
C85 O86 1.216 . S
O86 C85 1.216 . S
H87 C82 0.930 . S
H88 C83 0.930 . S
O89 Cu69 1.959 . S
O89 C76 1.251 . S
H90 C73 0.930 . S
H91 C84 0.929 . S
Cu92 N93 1.999 . S
Cu92 O98 1.974 . S
Cu92 N103 1.985 . S
Cu92 O112 1.959 . S
N93 Cu92 1.999 . S
N93 C95 1.263 . S
N93 C97 1.389 . S
N94 C95 1.358 . S
N94 C96 1.400 . S
C95 N93 1.263 . S
C95 N94 1.358 . S
C95 H101 0.930 . S
C96 N94 1.400 . S
C96 C97 1.351 . S
C96 H113 0.930 . S
C97 N93 1.389 . S
C97 C96 1.351 . S
C97 H102 0.930 . S
O98 Cu92 1.974 . S
O98 C108 1.282 . S
C99 O100 1.261 . S
C99 O112 1.251 . S
O100 C99 1.261 . S
H101 C95 0.930 . S
H102 C97 0.930 . S
N103 Cu92 1.985 . S
N103 C105 1.335 . S
N103 C106 1.390 . S
N104 C105 1.345 . S
N104 C107 1.336 . S
C105 N103 1.335 . S
C105 N104 1.345 . S
C105 H110 0.930 . S
C106 N103 1.390 . S
C106 C107 1.346 . S
C106 H111 0.930 . S
C107 N104 1.336 . S
C107 C106 1.346 . S
C107 H114 0.929 . S
C108 O98 1.282 . S
C108 O109 1.216 . S
O109 C108 1.216 . S
H110 C105 0.930 . S
H111 C106 0.930 . S
O112 Cu92 1.959 . S
O112 C99 1.251 . S
H113 C96 0.930 . S
H114 C107 0.929 . S
Cu115 N116 1.999 . S
Cu115 O121 1.974 . S
Cu115 N126 1.985 . S
Cu115 O135 1.959 . S
N116 Cu115 1.999 . S
N116 C118 1.263 . S
N116 C120 1.389 . S
N117 C118 1.358 . S
N117 C119 1.400 . S
C118 N116 1.263 . S
C118 N117 1.358 . S
C118 H124 0.930 . S
C119 N117 1.400 . S
C119 C120 1.351 . S
C119 H136 0.930 . S
C120 N116 1.389 . S
C120 C119 1.351 . S
C120 H125 0.930 . S
O121 Cu115 1.974 . S
O121 C131 1.282 . S
C122 O123 1.261 . S
C122 O135 1.251 . S
O123 C122 1.261 . S
H124 C118 0.930 . S
H125 C120 0.930 . S
N126 Cu115 1.985 . S
N126 C128 1.335 . S
N126 C129 1.390 . S
N127 C128 1.345 . S
N127 C130 1.336 . S
C128 N126 1.335 . S
C128 N127 1.345 . S
C128 H133 0.930 . S
C129 N126 1.390 . S
C129 C130 1.346 . S
C129 H134 0.930 . S
C130 N127 1.336 . S
C130 C129 1.346 . S
C130 H137 0.929 . S
C131 O121 1.282 . S
C131 O132 1.216 . S
O132 C131 1.216 . S
H133 C128 0.930 . S
H134 C129 0.930 . S
O135 Cu115 1.959 . S
O135 C122 1.251 . S
H136 C119 0.930 . S
H137 C130 0.929 . S
Cu138 N139 1.999 . S
Cu138 O144 1.974 . S
Cu138 N149 1.985 . S
Cu138 O158 1.959 . S
N139 Cu138 1.999 . S
N139 C141 1.263 . S
N139 C143 1.389 . S
N140 C141 1.358 . S
N140 C142 1.400 . S
C141 N139 1.263 . S
C141 N140 1.358 . S
C141 H147 0.930 . S
C142 N140 1.400 . S
C142 C143 1.351 . S
C142 H159 0.930 . S
C143 N139 1.389 . S
C143 C142 1.351 . S
C143 H148 0.930 . S
O144 Cu138 1.974 . S
O144 C154 1.282 . S
C145 O146 1.261 . S
C145 O158 1.251 . S
O146 C145 1.261 . S
H147 C141 0.930 . S
H148 C143 0.930 . S
N149 Cu138 1.985 . S
N149 C151 1.335 . S
N149 C152 1.390 . S
N150 C151 1.345 . S
N150 C153 1.336 . S
C151 N149 1.335 . S
C151 N150 1.345 . S
C151 H156 0.930 . S
C152 N149 1.390 . S
C152 C153 1.346 . S
C152 H157 0.930 . S
C153 N150 1.336 . S
C153 C152 1.346 . S
C153 H160 0.929 . S
C154 O144 1.282 . S
C154 O155 1.216 . S
O155 C154 1.216 . S
H156 C151 0.930 . S
H157 C152 0.930 . S
O158 Cu138 1.959 . S
O158 C145 1.251 . S
H159 C142 0.930 . S
H160 C153 0.929 . S
Cu161 N162 1.999 . S
Cu161 O167 1.974 . S
Cu161 N172 1.985 . S
Cu161 O181 1.959 . S
N162 Cu161 1.999 . S
N162 C164 1.263 . S
N162 C166 1.389 . S
N163 C164 1.358 . S
N163 C165 1.400 . S
C164 N162 1.263 . S
C164 N163 1.358 . S
C164 H170 0.930 . S
C165 N163 1.400 . S
C165 C166 1.351 . S
C165 H182 0.930 . S
C166 N162 1.389 . S
C166 C165 1.351 . S
C166 H171 0.930 . S
O167 Cu161 1.974 . S
O167 C177 1.282 . S
C168 O169 1.261 . S
C168 O181 1.251 . S
O169 C168 1.261 . S
H170 C164 0.930 . S
H171 C166 0.930 . S
N172 Cu161 1.985 . S
N172 C174 1.335 . S
N172 C175 1.390 . S
N173 C174 1.345 . S
N173 C176 1.336 . S
C174 N172 1.335 . S
C174 N173 1.345 . S
C174 H179 0.930 . S
C175 N172 1.390 . S
C175 C176 1.346 . S
C175 H180 0.930 . S
C176 N173 1.336 . S
C176 C175 1.346 . S
C176 H183 0.929 . S
C177 O167 1.282 . S
C177 O178 1.216 . S
O178 C177 1.216 . S
H179 C174 0.930 . S
H180 C175 0.930 . S
O181 Cu161 1.959 . S
O181 C168 1.251 . S
H182 C165 0.930 . S
H183 C176 0.929 . S
Cu184 N185 1.999 . S
Cu184 O190 1.974 . S
Cu184 N195 1.985 . S
Cu184 O204 1.959 . S
N185 Cu184 1.999 . S
N185 C187 1.263 . S
N185 C189 1.389 . S
N186 C187 1.358 . S
N186 C188 1.400 . S
C187 N185 1.263 . S
C187 N186 1.358 . S
C187 H193 0.930 . S
C188 N186 1.400 . S
C188 C189 1.351 . S
C188 H205 0.930 . S
C189 N185 1.389 . S
C189 C188 1.351 . S
C189 H194 0.930 . S
O190 Cu184 1.974 . S
O190 C200 1.282 . S
C191 O192 1.261 . S
C191 O204 1.251 . S
O192 C191 1.261 . S
H193 C187 0.930 . S
H194 C189 0.930 . S
N195 Cu184 1.985 . S
N195 C197 1.335 . S
N195 C198 1.390 . S
N196 C197 1.345 . S
N196 C199 1.336 . S
C197 N195 1.335 . S
C197 N196 1.345 . S
C197 H202 0.930 . S
C198 N195 1.390 . S
C198 C199 1.346 . S
C198 H203 0.930 . S
C199 N196 1.336 . S
C199 C198 1.346 . S
C199 H206 0.929 . S
C200 O190 1.282 . S
C200 O201 1.216 . S
O201 C200 1.216 . S
H202 C197 0.930 . S
H203 C198 0.930 . S
O204 Cu184 1.959 . S
O204 C191 1.251 . S
H205 C188 0.930 . S
H206 C199 0.929 . S
Cu207 N208 1.999 . S
Cu207 O213 1.974 . S
Cu207 N218 1.985 . S
Cu207 O227 1.959 . S
N208 Cu207 1.999 . S
N208 C210 1.263 . S
N208 C212 1.389 . S
N209 C210 1.358 . S
N209 C211 1.400 . S
C210 N208 1.263 . S
C210 N209 1.358 . S
C210 H216 0.930 . S
C211 N209 1.400 . S
C211 C212 1.351 . S
C211 H228 0.930 . S
C212 N208 1.389 . S
C212 C211 1.351 . S
C212 H217 0.930 . S
O213 Cu207 1.974 . S
O213 C223 1.282 . S
C214 O215 1.261 . S
C214 O227 1.251 . S
O215 C214 1.261 . S
H216 C210 0.930 . S
H217 C212 0.930 . S
N218 Cu207 1.985 . S
N218 C220 1.335 . S
N218 C221 1.390 . S
N219 C220 1.345 . S
N219 C222 1.336 . S
C220 N218 1.335 . S
C220 N219 1.345 . S
C220 H225 0.930 . S
C221 N218 1.390 . S
C221 C222 1.346 . S
C221 H226 0.930 . S
C222 N219 1.336 . S
C222 C221 1.346 . S
C222 H229 0.929 . S
C223 O213 1.282 . S
C223 O224 1.216 . S
O224 C223 1.216 . S
H225 C220 0.930 . S
H226 C221 0.930 . S
O227 Cu207 1.959 . S
O227 C214 1.251 . S
H228 C211 0.930 . S
H229 C222 0.929 . S
Cu230 N231 1.999 . S
Cu230 O236 1.974 . S
Cu230 N241 1.985 . S
Cu230 O250 1.959 . S
N231 Cu230 1.999 . S
N231 C233 1.263 . S
N231 C235 1.389 . S
N232 C233 1.358 . S
N232 C234 1.400 . S
C233 N231 1.263 . S
C233 N232 1.358 . S
C233 H239 0.930 . S
C234 N232 1.400 . S
C234 C235 1.351 . S
C234 H251 0.930 . S
C235 N231 1.389 . S
C235 C234 1.351 . S
C235 H240 0.930 . S
O236 Cu230 1.974 . S
O236 C246 1.282 . S
C237 O238 1.261 . S
C237 O250 1.251 . S
O238 C237 1.261 . S
H239 C233 0.930 . S
H240 C235 0.930 . S
N241 Cu230 1.985 . S
N241 C243 1.335 . S
N241 C244 1.390 . S
N242 C243 1.345 . S
N242 C245 1.336 . S
C243 N241 1.335 . S
C243 N242 1.345 . S
C243 H248 0.930 . S
C244 N241 1.390 . S
C244 C245 1.346 . S
C244 H249 0.930 . S
C245 N242 1.336 . S
C245 C244 1.346 . S
C245 H252 0.929 . S
C246 O236 1.282 . S
C246 O247 1.216 . S
O247 C246 1.216 . S
H248 C243 0.930 . S
H249 C244 0.930 . S
O250 Cu230 1.959 . S
O250 C237 1.251 . S
H251 C234 0.930 . S
H252 C245 0.929 . S
Cu253 N254 1.999 . S
Cu253 O259 1.974 . S
Cu253 N264 1.985 . S
Cu253 O273 1.959 . S
N254 Cu253 1.999 . S
N254 C256 1.263 . S
N254 C258 1.389 . S
N255 C256 1.358 . S
N255 C257 1.400 . S
C256 N254 1.263 . S
C256 N255 1.358 . S
C256 H262 0.930 . S
C257 N255 1.400 . S
C257 C258 1.351 . S
C257 H274 0.930 . S
C258 N254 1.389 . S
C258 C257 1.351 . S
C258 H263 0.930 . S
O259 Cu253 1.974 . S
O259 C269 1.282 . S
C260 O261 1.261 . S
C260 O273 1.251 . S
O261 C260 1.261 . S
H262 C256 0.930 . S
H263 C258 0.930 . S
N264 Cu253 1.985 . S
N264 C266 1.335 . S
N264 C267 1.390 . S
N265 C266 1.345 . S
N265 C268 1.336 . S
C266 N264 1.335 . S
C266 N265 1.345 . S
C266 H271 0.930 . S
C267 N264 1.390 . S
C267 C268 1.346 . S
C267 H272 0.930 . S
C268 N265 1.336 . S
C268 C267 1.346 . S
C268 H275 0.929 . S
C269 O259 1.282 . S
C269 O270 1.216 . S
O270 C269 1.216 . S
H271 C266 0.930 . S
H272 C267 0.930 . S
O273 Cu253 1.959 . S
O273 C260 1.251 . S
H274 C257 0.930 . S
H275 C268 0.929 . S
Cu276 N277 1.999 . S
Cu276 O282 1.974 . S
Cu276 N287 1.985 . S
Cu276 O296 1.959 . S
N277 Cu276 1.999 . S
N277 C279 1.263 . S
N277 C281 1.389 . S
N278 C279 1.358 . S
N278 C280 1.400 . S
C279 N277 1.263 . S
C279 N278 1.358 . S
C279 H285 0.930 . S
C280 N278 1.400 . S
C280 C281 1.351 . S
C280 H297 0.930 . S
C281 N277 1.389 . S
C281 C280 1.351 . S
C281 H286 0.930 . S
O282 Cu276 1.974 . S
O282 C292 1.282 . S
C283 O284 1.261 . S
C283 O296 1.251 . S
O284 C283 1.261 . S
H285 C279 0.930 . S
H286 C281 0.930 . S
N287 Cu276 1.985 . S
N287 C289 1.335 . S
N287 C290 1.390 . S
N288 C289 1.345 . S
N288 C291 1.336 . S
C289 N287 1.335 . S
C289 N288 1.345 . S
C289 H294 0.930 . S
C290 N287 1.390 . S
C290 C291 1.346 . S
C290 H295 0.930 . S
C291 N288 1.336 . S
C291 C290 1.346 . S
C291 H298 0.929 . S
C292 O282 1.282 . S
C292 O293 1.216 . S
O293 C292 1.216 . S
H294 C289 0.930 . S
H295 C290 0.930 . S
O296 Cu276 1.959 . S
O296 C283 1.251 . S
H297 C280 0.930 . S
H298 C291 0.929 . S
Cu299 N300 1.999 . S
Cu299 O305 1.974 . S
Cu299 N310 1.985 . S
Cu299 O319 1.959 . S
N300 Cu299 1.999 . S
N300 C302 1.263 . S
N300 C304 1.389 . S
N301 C302 1.358 . S
N301 C303 1.400 . S
C302 N300 1.263 . S
C302 N301 1.358 . S
C302 H308 0.930 . S
C303 N301 1.400 . S
C303 C304 1.351 . S
C303 H320 0.930 . S
C304 N300 1.389 . S
C304 C303 1.351 . S
C304 H309 0.930 . S
O305 Cu299 1.974 . S
O305 C315 1.282 . S
C306 O307 1.261 . S
C306 O319 1.251 . S
O307 C306 1.261 . S
H308 C302 0.930 . S
H309 C304 0.930 . S
N310 Cu299 1.985 . S
N310 C312 1.335 . S
N310 C313 1.390 . S
N311 C312 1.345 . S
N311 C314 1.336 . S
C312 N310 1.335 . S
C312 N311 1.345 . S
C312 H317 0.930 . S
C313 N310 1.390 . S
C313 C314 1.346 . S
C313 H318 0.930 . S
C314 N311 1.336 . S
C314 C313 1.346 . S
C314 H321 0.929 . S
C315 O305 1.282 . S
C315 O316 1.216 . S
O316 C315 1.216 . S
H317 C312 0.930 . S
H318 C313 0.930 . S
O319 Cu299 1.959 . S
O319 C306 1.251 . S
H320 C303 0.930 . S
H321 C314 0.929 . S
Cu322 N323 1.999 . S
Cu322 O328 1.974 . S
Cu322 N333 1.985 . S
Cu322 O342 1.959 . S
N323 Cu322 1.999 . S
N323 C325 1.263 . S
N323 C327 1.389 . S
N324 C325 1.358 . S
N324 C326 1.400 . S
C325 N323 1.263 . S
C325 N324 1.358 . S
C325 H331 0.930 . S
C326 N324 1.400 . S
C326 C327 1.351 . S
C326 H343 0.930 . S
C327 N323 1.389 . S
C327 C326 1.351 . S
C327 H332 0.930 . S
O328 Cu322 1.974 . S
O328 C338 1.282 . S
C329 O330 1.261 . S
C329 O342 1.251 . S
O330 C329 1.261 . S
H331 C325 0.930 . S
H332 C327 0.930 . S
N333 Cu322 1.985 . S
N333 C335 1.335 . S
N333 C336 1.390 . S
N334 C335 1.345 . S
N334 C337 1.336 . S
C335 N333 1.335 . S
C335 N334 1.345 . S
C335 H340 0.930 . S
C336 N333 1.390 . S
C336 C337 1.346 . S
C336 H341 0.930 . S
C337 N334 1.336 . S
C337 C336 1.346 . S
C337 H344 0.929 . S
C338 O328 1.282 . S
C338 O339 1.216 . S
O339 C338 1.216 . S
H340 C335 0.930 . S
H341 C336 0.930 . S
O342 Cu322 1.959 . S
O342 C329 1.251 . S
H343 C326 0.930 . S
H344 C337 0.929 . S
Cu345 N346 1.999 . S
Cu345 O351 1.974 . S
Cu345 N356 1.985 . S
Cu345 O365 1.959 . S
N346 Cu345 1.999 . S
N346 C348 1.263 . S
N346 C350 1.389 . S
N347 C348 1.358 . S
N347 C349 1.400 . S
C348 N346 1.263 . S
C348 N347 1.358 . S
C348 H354 0.930 . S
C349 N347 1.400 . S
C349 C350 1.351 . S
C349 H366 0.930 . S
C350 N346 1.389 . S
C350 C349 1.351 . S
C350 H355 0.930 . S
O351 Cu345 1.974 . S
O351 C361 1.282 . S
C352 O353 1.261 . S
C352 O365 1.251 . S
O353 C352 1.261 . S
H354 C348 0.930 . S
H355 C350 0.930 . S
N356 Cu345 1.985 . S
N356 C358 1.335 . S
N356 C359 1.390 . S
N357 C358 1.345 . S
N357 C360 1.336 . S
C358 N356 1.335 . S
C358 N357 1.345 . S
C358 H363 0.930 . S
C359 N356 1.390 . S
C359 C360 1.346 . S
C359 H364 0.930 . S
C360 N357 1.336 . S
C360 C359 1.346 . S
C360 H367 0.929 . S
C361 O351 1.282 . S
C361 O362 1.216 . S
O362 C361 1.216 . S
H363 C358 0.930 . S
H364 C359 0.930 . S
O365 Cu345 1.959 . S
O365 C352 1.251 . S
H366 C349 0.930 . S
H367 C360 0.929 . S
Cu368 N369 1.999 . S
Cu368 O374 1.974 . S
Cu368 N379 1.985 . S
Cu368 O388 1.959 . S
N369 Cu368 1.999 . S
N369 C371 1.263 . S
N369 C373 1.389 . S
N370 C371 1.358 . S
N370 C372 1.400 . S
C371 N369 1.263 . S
C371 N370 1.358 . S
C371 H377 0.930 . S
C372 N370 1.400 . S
C372 C373 1.351 . S
C372 H389 0.930 . S
C373 N369 1.389 . S
C373 C372 1.351 . S
C373 H378 0.930 . S
O374 Cu368 1.974 . S
O374 C384 1.282 . S
C375 O376 1.261 . S
C375 O388 1.251 . S
O376 C375 1.261 . S
H377 C371 0.930 . S
H378 C373 0.930 . S
N379 Cu368 1.985 . S
N379 C381 1.335 . S
N379 C382 1.390 . S
N380 C381 1.345 . S
N380 C383 1.336 . S
C381 N379 1.335 . S
C381 N380 1.345 . S
C381 H386 0.930 . S
C382 N379 1.390 . S
C382 C383 1.346 . S
C382 H387 0.930 . S
C383 N380 1.336 . S
C383 C382 1.346 . S
C383 H390 0.929 . S
C384 O374 1.282 . S
C384 O385 1.216 . S
O385 C384 1.216 . S
H386 C381 0.930 . S
H387 C382 0.930 . S
O388 Cu368 1.959 . S
O388 C375 1.251 . S
H389 C372 0.930 . S
H390 C383 0.929 . S
Cu391 N392 1.999 . S
Cu391 O397 1.974 . S
Cu391 N402 1.985 . S
Cu391 O411 1.959 . S
N392 Cu391 1.999 . S
N392 C394 1.263 . S
N392 C396 1.389 . S
N393 C394 1.358 . S
N393 C395 1.400 . S
C394 N392 1.263 . S
C394 N393 1.358 . S
C394 H400 0.930 . S
C395 N393 1.400 . S
C395 C396 1.351 . S
C395 H412 0.930 . S
C396 N392 1.389 . S
C396 C395 1.351 . S
C396 H401 0.930 . S
O397 Cu391 1.974 . S
O397 C407 1.282 . S
C398 O399 1.261 . S
C398 O411 1.251 . S
O399 C398 1.261 . S
H400 C394 0.930 . S
H401 C396 0.930 . S
N402 Cu391 1.985 . S
N402 C404 1.335 . S
N402 C405 1.390 . S
N403 C404 1.345 . S
N403 C406 1.336 . S
C404 N402 1.335 . S
C404 N403 1.345 . S
C404 H409 0.930 . S
C405 N402 1.390 . S
C405 C406 1.346 . S
C405 H410 0.930 . S
C406 N403 1.336 . S
C406 C405 1.346 . S
C406 H413 0.929 . S
C407 O397 1.282 . S
C407 O408 1.216 . S
O408 C407 1.216 . S
H409 C404 0.930 . S
H410 C405 0.930 . S
O411 Cu391 1.959 . S
O411 C398 1.251 . S
H412 C395 0.930 . S
H413 C406 0.929 . S
Cu414 N415 1.999 . S
Cu414 O420 1.974 . S
Cu414 N425 1.985 . S
Cu414 O434 1.959 . S
N415 Cu414 1.999 . S
N415 C417 1.263 . S
N415 C419 1.389 . S
N416 C417 1.358 . S
N416 C418 1.400 . S
C417 N415 1.263 . S
C417 N416 1.358 . S
C417 H423 0.930 . S
C418 N416 1.400 . S
C418 C419 1.351 . S
C418 H435 0.930 . S
C419 N415 1.389 . S
C419 C418 1.351 . S
C419 H424 0.930 . S
O420 Cu414 1.974 . S
O420 C430 1.282 . S
C421 O422 1.261 . S
C421 O434 1.251 . S
O422 C421 1.261 . S
H423 C417 0.930 . S
H424 C419 0.930 . S
N425 Cu414 1.985 . S
N425 C427 1.335 . S
N425 C428 1.390 . S
N426 C427 1.345 . S
N426 C429 1.336 . S
C427 N425 1.335 . S
C427 N426 1.345 . S
C427 H432 0.930 . S
C428 N425 1.390 . S
C428 C429 1.346 . S
C428 H433 0.930 . S
C429 N426 1.336 . S
C429 C428 1.346 . S
C429 H436 0.929 . S
C430 O420 1.282 . S
C430 O431 1.216 . S
O431 C430 1.216 . S
H432 C427 0.930 . S
H433 C428 0.930 . S
O434 Cu414 1.959 . S
O434 C421 1.251 . S
H435 C418 0.930 . S
H436 C429 0.929 . S
Cu437 N438 1.999 . S
Cu437 O443 1.974 . S
Cu437 N448 1.985 . S
Cu437 O457 1.959 . S
N438 Cu437 1.999 . S
N438 C440 1.263 . S
N438 C442 1.389 . S
N439 C440 1.358 . S
N439 C441 1.400 . S
C440 N438 1.263 . S
C440 N439 1.358 . S
C440 H446 0.930 . S
C441 N439 1.400 . S
C441 C442 1.351 . S
C441 H458 0.930 . S
C442 N438 1.389 . S
C442 C441 1.351 . S
C442 H447 0.930 . S
O443 Cu437 1.974 . S
O443 C453 1.282 . S
C444 O445 1.261 . S
C444 O457 1.251 . S
O445 C444 1.261 . S
H446 C440 0.930 . S
H447 C442 0.930 . S
N448 Cu437 1.985 . S
N448 C450 1.335 . S
N448 C451 1.390 . S
N449 C450 1.345 . S
N449 C452 1.336 . S
C450 N448 1.335 . S
C450 N449 1.345 . S
C450 H455 0.930 . S
C451 N448 1.390 . S
C451 C452 1.346 . S
C451 H456 0.930 . S
C452 N449 1.336 . S
C452 C451 1.346 . S
C452 H459 0.929 . S
C453 O443 1.282 . S
C453 O454 1.216 . S
O454 C453 1.216 . S
H455 C450 0.930 . S
H456 C451 0.930 . S
O457 Cu437 1.959 . S
O457 C444 1.251 . S
H458 C441 0.930 . S
H459 C452 0.929 . S
Cu460 N461 1.999 . S
Cu460 O466 1.974 . S
Cu460 N471 1.985 . S
Cu460 O480 1.959 . S
N461 Cu460 1.999 . S
N461 C463 1.263 . S
N461 C465 1.389 . S
N462 C463 1.358 . S
N462 C464 1.400 . S
C463 N461 1.263 . S
C463 N462 1.358 . S
C463 H469 0.930 . S
C464 N462 1.400 . S
C464 C465 1.351 . S
C464 H481 0.930 . S
C465 N461 1.389 . S
C465 C464 1.351 . S
C465 H470 0.930 . S
O466 Cu460 1.974 . S
O466 C476 1.282 . S
C467 O468 1.261 . S
C467 O480 1.251 . S
O468 C467 1.261 . S
H469 C463 0.930 . S
H470 C465 0.930 . S
N471 Cu460 1.985 . S
N471 C473 1.335 . S
N471 C474 1.390 . S
N472 C473 1.345 . S
N472 C475 1.336 . S
C473 N471 1.335 . S
C473 N472 1.345 . S
C473 H478 0.930 . S
C474 N471 1.390 . S
C474 C475 1.346 . S
C474 H479 0.930 . S
C475 N472 1.336 . S
C475 C474 1.346 . S
C475 H482 0.929 . S
C476 O466 1.282 . S
C476 O477 1.216 . S
O477 C476 1.216 . S
H478 C473 0.930 . S
H479 C474 0.930 . S
O480 Cu460 1.959 . S
O480 C467 1.251 . S
H481 C464 0.930 . S
H482 C475 0.929 . S
Cu483 N484 1.999 . S
Cu483 O489 1.974 . S
Cu483 N494 1.985 . S
Cu483 O503 1.959 . S
N484 Cu483 1.999 . S
N484 C486 1.263 . S
N484 C488 1.389 . S
N485 C486 1.358 . S
N485 C487 1.400 . S
C486 N484 1.263 . S
C486 N485 1.358 . S
C486 H492 0.930 . S
C487 N485 1.400 . S
C487 C488 1.351 . S
C487 H504 0.930 . S
C488 N484 1.389 . S
C488 C487 1.351 . S
C488 H493 0.930 . S
O489 Cu483 1.974 . S
O489 C499 1.282 . S
C490 O491 1.261 . S
C490 O503 1.251 . S
O491 C490 1.261 . S
H492 C486 0.930 . S
H493 C488 0.930 . S
N494 Cu483 1.985 . S
N494 C496 1.335 . S
N494 C497 1.390 . S
N495 C496 1.345 . S
N495 C498 1.336 . S
C496 N494 1.335 . S
C496 N495 1.345 . S
C496 H501 0.930 . S
C497 N494 1.390 . S
C497 C498 1.346 . S
C497 H502 0.930 . S
C498 N495 1.336 . S
C498 C497 1.346 . S
C498 H505 0.929 . S
C499 O489 1.282 . S
C499 O500 1.216 . S
O500 C499 1.216 . S
H501 C496 0.930 . S
H502 C497 0.930 . S
O503 Cu483 1.959 . S
O503 C490 1.251 . S
H504 C487 0.930 . S
H505 C498 0.929 . S
Cu506 N507 1.999 . S
Cu506 O512 1.974 . S
Cu506 N517 1.985 . S
Cu506 O526 1.959 . S
N507 Cu506 1.999 . S
N507 C509 1.263 . S
N507 C511 1.389 . S
N508 C509 1.358 . S
N508 C510 1.400 . S
C509 N507 1.263 . S
C509 N508 1.358 . S
C509 H515 0.930 . S
C510 N508 1.400 . S
C510 C511 1.351 . S
C510 H527 0.930 . S
C511 N507 1.389 . S
C511 C510 1.351 . S
C511 H516 0.930 . S
O512 Cu506 1.974 . S
O512 C522 1.282 . S
C513 O514 1.261 . S
C513 O526 1.251 . S
O514 C513 1.261 . S
H515 C509 0.930 . S
H516 C511 0.930 . S
N517 Cu506 1.985 . S
N517 C519 1.335 . S
N517 C520 1.390 . S
N518 C519 1.345 . S
N518 C521 1.336 . S
C519 N517 1.335 . S
C519 N518 1.345 . S
C519 H524 0.930 . S
C520 N517 1.390 . S
C520 C521 1.346 . S
C520 H525 0.930 . S
C521 N518 1.336 . S
C521 C520 1.346 . S
C521 H528 0.929 . S
C522 O512 1.282 . S
C522 O523 1.216 . S
O523 C522 1.216 . S
H524 C519 0.930 . S
H525 C520 0.930 . S
O526 Cu506 1.959 . S
O526 C513 1.251 . S
H527 C510 0.930 . S
H528 C521 0.929 . S
Cu529 N530 1.999 . S
Cu529 O535 1.974 . S
Cu529 N540 1.985 . S
Cu529 O549 1.959 . S
N530 Cu529 1.999 . S
N530 C532 1.263 . S
N530 C534 1.389 . S
N531 C532 1.358 . S
N531 C533 1.400 . S
C532 N530 1.263 . S
C532 N531 1.358 . S
C532 H538 0.930 . S
C533 N531 1.400 . S
C533 C534 1.351 . S
C533 H550 0.930 . S
C534 N530 1.389 . S
C534 C533 1.351 . S
C534 H539 0.930 . S
O535 Cu529 1.974 . S
O535 C545 1.282 . S
C536 O537 1.261 . S
C536 O549 1.251 . S
O537 C536 1.261 . S
H538 C532 0.930 . S
H539 C534 0.930 . S
N540 Cu529 1.985 . S
N540 C542 1.335 . S
N540 C543 1.390 . S
N541 C542 1.345 . S
N541 C544 1.336 . S
C542 N540 1.335 . S
C542 N541 1.345 . S
C542 H547 0.930 . S
C543 N540 1.390 . S
C543 C544 1.346 . S
C543 H548 0.930 . S
C544 N541 1.336 . S
C544 C543 1.346 . S
C544 H551 0.929 . S
C545 O535 1.282 . S
C545 O546 1.216 . S
O546 C545 1.216 . S
H547 C542 0.930 . S
H548 C543 0.930 . S
O549 Cu529 1.959 . S
O549 C536 1.251 . S
H550 C533 0.930 . S
H551 C544 0.929 . S
Cu552 N553 1.999 . S
Cu552 O558 1.974 . S
Cu552 N563 1.985 . S
Cu552 O572 1.959 . S
N553 Cu552 1.999 . S
N553 C555 1.263 . S
N553 C557 1.389 . S
N554 C555 1.358 . S
N554 C556 1.400 . S
C555 N553 1.263 . S
C555 N554 1.358 . S
C555 H561 0.930 . S
C556 N554 1.400 . S
C556 C557 1.351 . S
C556 H573 0.930 . S
C557 N553 1.389 . S
C557 C556 1.351 . S
C557 H562 0.930 . S
O558 Cu552 1.974 . S
O558 C568 1.282 . S
C559 O560 1.261 . S
C559 O572 1.251 . S
O560 C559 1.261 . S
H561 C555 0.930 . S
H562 C557 0.930 . S
N563 Cu552 1.985 . S
N563 C565 1.335 . S
N563 C566 1.390 . S
N564 C565 1.345 . S
N564 C567 1.336 . S
C565 N563 1.335 . S
C565 N564 1.345 . S
C565 H570 0.930 . S
C566 N563 1.390 . S
C566 C567 1.346 . S
C566 H571 0.930 . S
C567 N564 1.336 . S
C567 C566 1.346 . S
C567 H574 0.929 . S
C568 O558 1.282 . S
C568 O569 1.216 . S
O569 C568 1.216 . S
H570 C565 0.930 . S
H571 C566 0.930 . S
O572 Cu552 1.959 . S
O572 C559 1.251 . S
H573 C556 0.930 . S
H574 C567 0.929 . S
Cu575 N576 1.999 . S
Cu575 O581 1.974 . S
Cu575 N586 1.985 . S
Cu575 O595 1.959 . S
N576 Cu575 1.999 . S
N576 C578 1.263 . S
N576 C580 1.389 . S
N577 C578 1.358 . S
N577 C579 1.400 . S
C578 N576 1.263 . S
C578 N577 1.358 . S
C578 H584 0.930 . S
C579 N577 1.400 . S
C579 C580 1.351 . S
C579 H596 0.930 . S
C580 N576 1.389 . S
C580 C579 1.351 . S
C580 H585 0.930 . S
O581 Cu575 1.974 . S
O581 C591 1.282 . S
C582 O583 1.261 . S
C582 O595 1.251 . S
O583 C582 1.261 . S
H584 C578 0.930 . S
H585 C580 0.930 . S
N586 Cu575 1.985 . S
N586 C588 1.335 . S
N586 C589 1.390 . S
N587 C588 1.345 . S
N587 C590 1.336 . S
C588 N586 1.335 . S
C588 N587 1.345 . S
C588 H593 0.930 . S
C589 N586 1.390 . S
C589 C590 1.346 . S
C589 H594 0.930 . S
C590 N587 1.336 . S
C590 C589 1.346 . S
C590 H597 0.929 . S
C591 O581 1.282 . S
C591 O592 1.216 . S
O592 C591 1.216 . S
H593 C588 0.930 . S
H594 C589 0.930 . S
O595 Cu575 1.959 . S
O595 C582 1.251 . S
H596 C579 0.930 . S
H597 C590 0.929 . S
Cu598 N599 1.999 . S
Cu598 O604 1.974 . S
Cu598 N609 1.985 . S
Cu598 O618 1.959 . S
N599 Cu598 1.999 . S
N599 C601 1.263 . S
N599 C603 1.389 . S
N600 C601 1.358 . S
N600 C602 1.400 . S
C601 N599 1.263 . S
C601 N600 1.358 . S
C601 H607 0.930 . S
C602 N600 1.400 . S
C602 C603 1.351 . S
C602 H619 0.930 . S
C603 N599 1.389 . S
C603 C602 1.351 . S
C603 H608 0.930 . S
O604 Cu598 1.974 . S
O604 C614 1.282 . S
C605 O606 1.261 . S
C605 O618 1.251 . S
O606 C605 1.261 . S
H607 C601 0.930 . S
H608 C603 0.930 . S
N609 Cu598 1.985 . S
N609 C611 1.335 . S
N609 C612 1.390 . S
N610 C611 1.345 . S
N610 C613 1.336 . S
C611 N609 1.335 . S
C611 N610 1.345 . S
C611 H616 0.930 . S
C612 N609 1.390 . S
C612 C613 1.346 . S
C612 H617 0.930 . S
C613 N610 1.336 . S
C613 C612 1.346 . S
C613 H620 0.929 . S
C614 O604 1.282 . S
C614 O615 1.216 . S
O615 C614 1.216 . S
H616 C611 0.930 . S
H617 C612 0.930 . S
O618 Cu598 1.959 . S
O618 C605 1.251 . S
H619 C602 0.930 . S
H620 C613 0.929 . S
Cu621 N622 1.999 . S
Cu621 O627 1.974 . S
Cu621 N632 1.985 . S
Cu621 O641 1.959 . S
N622 Cu621 1.999 . S
N622 C624 1.263 . S
N622 C626 1.389 . S
N623 C624 1.358 . S
N623 C625 1.400 . S
C624 N622 1.263 . S
C624 N623 1.358 . S
C624 H630 0.930 . S
C625 N623 1.400 . S
C625 C626 1.351 . S
C625 H642 0.930 . S
C626 N622 1.389 . S
C626 C625 1.351 . S
C626 H631 0.930 . S
O627 Cu621 1.974 . S
O627 C637 1.282 . S
C628 O629 1.261 . S
C628 O641 1.251 . S
O629 C628 1.261 . S
H630 C624 0.930 . S
H631 C626 0.930 . S
N632 Cu621 1.985 . S
N632 C634 1.335 . S
N632 C635 1.390 . S
N633 C634 1.345 . S
N633 C636 1.336 . S
C634 N632 1.335 . S
C634 N633 1.345 . S
C634 H639 0.930 . S
C635 N632 1.390 . S
C635 C636 1.346 . S
C635 H640 0.930 . S
C636 N633 1.336 . S
C636 C635 1.346 . S
C636 H643 0.929 . S
C637 O627 1.282 . S
C637 O638 1.216 . S
O638 C637 1.216 . S
H639 C634 0.930 . S
H640 C635 0.930 . S
O641 Cu621 1.959 . S
O641 C628 1.251 . S
H642 C625 0.930 . S
H643 C636 0.929 . S
Cu644 N645 1.999 . S
Cu644 O650 1.974 . S
Cu644 N655 1.985 . S
Cu644 O664 1.959 . S
N645 Cu644 1.999 . S
N645 C647 1.263 . S
N645 C649 1.389 . S
N646 C647 1.358 . S
N646 C648 1.400 . S
C647 N645 1.263 . S
C647 N646 1.358 . S
C647 H653 0.930 . S
C648 N646 1.400 . S
C648 C649 1.351 . S
C648 H665 0.930 . S
C649 N645 1.389 . S
C649 C648 1.351 . S
C649 H654 0.930 . S
O650 Cu644 1.974 . S
O650 C660 1.282 . S
C651 O652 1.261 . S
C651 O664 1.251 . S
O652 C651 1.261 . S
H653 C647 0.930 . S
H654 C649 0.930 . S
N655 Cu644 1.985 . S
N655 C657 1.335 . S
N655 C658 1.390 . S
N656 C657 1.345 . S
N656 C659 1.336 . S
C657 N655 1.335 . S
C657 N656 1.345 . S
C657 H662 0.930 . S
C658 N655 1.390 . S
C658 C659 1.346 . S
C658 H663 0.930 . S
C659 N656 1.336 . S
C659 C658 1.346 . S
C659 H666 0.929 . S
C660 O650 1.282 . S
C660 O661 1.216 . S
O661 C660 1.216 . S
H662 C657 0.930 . S
H663 C658 0.930 . S
O664 Cu644 1.959 . S
O664 C651 1.251 . S
H665 C648 0.930 . S
H666 C659 0.929 . S
Cu667 N668 1.999 . S
Cu667 O673 1.974 . S
Cu667 N678 1.985 . S
Cu667 O687 1.959 . S
N668 Cu667 1.999 . S
N668 C670 1.263 . S
N668 C672 1.389 . S
N669 C670 1.358 . S
N669 C671 1.400 . S
C670 N668 1.263 . S
C670 N669 1.358 . S
C670 H676 0.930 . S
C671 N669 1.400 . S
C671 C672 1.351 . S
C671 H688 0.930 . S
C672 N668 1.389 . S
C672 C671 1.351 . S
C672 H677 0.930 . S
O673 Cu667 1.974 . S
O673 C683 1.282 . S
C674 O675 1.261 . S
C674 O687 1.251 . S
O675 C674 1.261 . S
H676 C670 0.930 . S
H677 C672 0.930 . S
N678 Cu667 1.985 . S
N678 C680 1.335 . S
N678 C681 1.390 . S
N679 C680 1.345 . S
N679 C682 1.336 . S
C680 N678 1.335 . S
C680 N679 1.345 . S
C680 H685 0.930 . S
C681 N678 1.390 . S
C681 C682 1.346 . S
C681 H686 0.930 . S
C682 N679 1.336 . S
C682 C681 1.346 . S
C682 H689 0.929 . S
C683 O673 1.282 . S
C683 O684 1.216 . S
O684 C683 1.216 . S
H685 C680 0.930 . S
H686 C681 0.930 . S
O687 Cu667 1.959 . S
O687 C674 1.251 . S
H688 C671 0.930 . S
H689 C682 0.929 . S
Cu690 N691 1.999 . S
Cu690 O696 1.974 . S
Cu690 N701 1.985 . S
Cu690 O710 1.959 . S
N691 Cu690 1.999 . S
N691 C693 1.263 . S
N691 C695 1.389 . S
N692 C693 1.358 . S
N692 C694 1.400 . S
C693 N691 1.263 . S
C693 N692 1.358 . S
C693 H699 0.930 . S
C694 N692 1.400 . S
C694 C695 1.351 . S
C694 H711 0.930 . S
C695 N691 1.389 . S
C695 C694 1.351 . S
C695 H700 0.930 . S
O696 Cu690 1.974 . S
O696 C706 1.282 . S
C697 O698 1.261 . S
C697 O710 1.251 . S
O698 C697 1.261 . S
H699 C693 0.930 . S
H700 C695 0.930 . S
N701 Cu690 1.985 . S
N701 C703 1.335 . S
N701 C704 1.390 . S
N702 C703 1.345 . S
N702 C705 1.336 . S
C703 N701 1.335 . S
C703 N702 1.345 . S
C703 H708 0.930 . S
C704 N701 1.390 . S
C704 C705 1.346 . S
C704 H709 0.930 . S
C705 N702 1.336 . S
C705 C704 1.346 . S
C705 H712 0.929 . S
C706 O696 1.282 . S
C706 O707 1.216 . S
O707 C706 1.216 . S
H708 C703 0.930 . S
H709 C704 0.930 . S
O710 Cu690 1.959 . S
O710 C697 1.251 . S
H711 C694 0.930 . S
H712 C705 0.929 . S
Cu713 N714 1.999 . S
Cu713 O719 1.974 . S
Cu713 N724 1.985 . S
Cu713 O733 1.959 . S
N714 Cu713 1.999 . S
N714 C716 1.263 . S
N714 C718 1.389 . S
N715 C716 1.358 . S
N715 C717 1.400 . S
C716 N714 1.263 . S
C716 N715 1.358 . S
C716 H722 0.930 . S
C717 N715 1.400 . S
C717 C718 1.351 . S
C717 H734 0.930 . S
C718 N714 1.389 . S
C718 C717 1.351 . S
C718 H723 0.930 . S
O719 Cu713 1.974 . S
O719 C729 1.282 . S
C720 O721 1.261 . S
C720 O733 1.251 . S
O721 C720 1.261 . S
H722 C716 0.930 . S
H723 C718 0.930 . S
N724 Cu713 1.985 . S
N724 C726 1.335 . S
N724 C727 1.390 . S
N725 C726 1.345 . S
N725 C728 1.336 . S
C726 N724 1.335 . S
C726 N725 1.345 . S
C726 H731 0.930 . S
C727 N724 1.390 . S
C727 C728 1.346 . S
C727 H732 0.930 . S
C728 N725 1.336 . S
C728 C727 1.346 . S
C728 H735 0.929 . S
C729 O719 1.282 . S
C729 O730 1.216 . S
O730 C729 1.216 . S
H731 C726 0.930 . S
H732 C727 0.930 . S
O733 Cu713 1.959 . S
O733 C720 1.251 . S
H734 C717 0.930 . S
H735 C728 0.929 . S
Cu736 N737 1.999 . S
Cu736 O742 1.974 . S
Cu736 N747 1.985 . S
Cu736 O756 1.959 . S
N737 Cu736 1.999 . S
N737 C739 1.263 . S
N737 C741 1.389 . S
N738 C739 1.358 . S
N738 C740 1.400 . S
C739 N737 1.263 . S
C739 N738 1.358 . S
C739 H745 0.930 . S
C740 N738 1.400 . S
C740 C741 1.351 . S
C740 H757 0.930 . S
C741 N737 1.389 . S
C741 C740 1.351 . S
C741 H746 0.930 . S
O742 Cu736 1.974 . S
O742 C752 1.282 . S
C743 O744 1.261 . S
C743 O756 1.251 . S
O744 C743 1.261 . S
H745 C739 0.930 . S
H746 C741 0.930 . S
N747 Cu736 1.985 . S
N747 C749 1.335 . S
N747 C750 1.390 . S
N748 C749 1.345 . S
N748 C751 1.336 . S
C749 N747 1.335 . S
C749 N748 1.345 . S
C749 H754 0.930 . S
C750 N747 1.390 . S
C750 C751 1.346 . S
C750 H755 0.930 . S
C751 N748 1.336 . S
C751 C750 1.346 . S
C751 H758 0.929 . S
C752 O742 1.282 . S
C752 O753 1.216 . S
O753 C752 1.216 . S
H754 C749 0.930 . S
H755 C750 0.930 . S
O756 Cu736 1.959 . S
O756 C743 1.251 . S
H757 C740 0.930 . S
H758 C751 0.929 . S
Cu759 N760 1.999 . S
Cu759 O765 1.974 . S
Cu759 N770 1.985 . S
Cu759 O779 1.959 . S
N760 Cu759 1.999 . S
N760 C762 1.263 . S
N760 C764 1.389 . S
N761 C762 1.358 . S
N761 C763 1.400 . S
C762 N760 1.263 . S
C762 N761 1.358 . S
C762 H768 0.930 . S
C763 N761 1.400 . S
C763 C764 1.351 . S
C763 H780 0.930 . S
C764 N760 1.389 . S
C764 C763 1.351 . S
C764 H769 0.930 . S
O765 Cu759 1.974 . S
O765 C775 1.282 . S
C766 O767 1.261 . S
C766 O779 1.251 . S
O767 C766 1.261 . S
H768 C762 0.930 . S
H769 C764 0.930 . S
N770 Cu759 1.985 . S
N770 C772 1.335 . S
N770 C773 1.390 . S
N771 C772 1.345 . S
N771 C774 1.336 . S
C772 N770 1.335 . S
C772 N771 1.345 . S
C772 H777 0.930 . S
C773 N770 1.390 . S
C773 C774 1.346 . S
C773 H778 0.930 . S
C774 N771 1.336 . S
C774 C773 1.346 . S
C774 H781 0.929 . S
C775 O765 1.282 . S
C775 O776 1.216 . S
O776 C775 1.216 . S
H777 C772 0.930 . S
H778 C773 0.930 . S
O779 Cu759 1.959 . S
O779 C766 1.251 . S
H780 C763 0.930 . S
H781 C774 0.929 . S
Cu782 N783 1.999 . S
Cu782 O788 1.974 . S
Cu782 N793 1.985 . S
Cu782 O802 1.959 . S
N783 Cu782 1.999 . S
N783 C785 1.263 . S
N783 C787 1.389 . S
N784 C785 1.358 . S
N784 C786 1.400 . S
C785 N783 1.263 . S
C785 N784 1.358 . S
C785 H791 0.930 . S
C786 N784 1.400 . S
C786 C787 1.351 . S
C786 H803 0.930 . S
C787 N783 1.389 . S
C787 C786 1.351 . S
C787 H792 0.930 . S
O788 Cu782 1.974 . S
O788 C798 1.282 . S
C789 O790 1.261 . S
C789 O802 1.251 . S
O790 C789 1.261 . S
H791 C785 0.930 . S
H792 C787 0.930 . S
N793 Cu782 1.985 . S
N793 C795 1.335 . S
N793 C796 1.390 . S
N794 C795 1.345 . S
N794 C797 1.336 . S
C795 N793 1.335 . S
C795 N794 1.345 . S
C795 H800 0.930 . S
C796 N793 1.390 . S
C796 C797 1.346 . S
C796 H801 0.930 . S
C797 N794 1.336 . S
C797 C796 1.346 . S
C797 H804 0.929 . S
C798 O788 1.282 . S
C798 O799 1.216 . S
O799 C798 1.216 . S
H800 C795 0.930 . S
H801 C796 0.930 . S
O802 Cu782 1.959 . S
O802 C789 1.251 . S
H803 C786 0.930 . S
H804 C797 0.929 . S
Cu805 N806 1.999 . S
Cu805 O811 1.974 . S
Cu805 N816 1.985 . S
Cu805 O825 1.959 . S
N806 Cu805 1.999 . S
N806 C808 1.263 . S
N806 C810 1.389 . S
N807 C808 1.358 . S
N807 C809 1.400 . S
C808 N806 1.263 . S
C808 N807 1.358 . S
C808 H814 0.930 . S
C809 N807 1.400 . S
C809 C810 1.351 . S
C809 H826 0.930 . S
C810 N806 1.389 . S
C810 C809 1.351 . S
C810 H815 0.930 . S
O811 Cu805 1.974 . S
O811 C821 1.282 . S
C812 O813 1.261 . S
C812 O825 1.251 . S
O813 C812 1.261 . S
H814 C808 0.930 . S
H815 C810 0.930 . S
N816 Cu805 1.985 . S
N816 C818 1.335 . S
N816 C819 1.390 . S
N817 C818 1.345 . S
N817 C820 1.336 . S
C818 N816 1.335 . S
C818 N817 1.345 . S
C818 H823 0.930 . S
C819 N816 1.390 . S
C819 C820 1.346 . S
C819 H824 0.930 . S
C820 N817 1.336 . S
C820 C819 1.346 . S
C820 H827 0.929 . S
C821 O811 1.282 . S
C821 O822 1.216 . S
O822 C821 1.216 . S
H823 C818 0.930 . S
H824 C819 0.930 . S
O825 Cu805 1.959 . S
O825 C812 1.251 . S
H826 C809 0.930 . S
H827 C820 0.929 . S
H828 C836 0.950 . S
H829 C841 0.950 . S
H830 C838 0.950 . S
H831 C840 0.950 . S
H832 C842 0.950 . S
H833 C844 0.950 . S
H834 C846 0.950 . S
H835 C847 0.950 . S
C836 H828 0.950 . S
C836 C837 1.386 . S
C836 C838 1.391 . S
C837 C836 1.386 . S
C837 C841 1.393 . S
C838 H830 0.950 . S
C838 C836 1.391 . S
C838 C839 1.400 . S
C839 C838 1.400 . S
C839 C840 1.398 . S
C839 C845 1.491 1_565 S
C840 H831 0.950 . S
C840 C839 1.398 . S
C840 C841 1.391 . S
C841 H829 0.950 . S
C841 C837 1.393 . S
C841 C840 1.391 . S
C842 H832 0.950 . S
C842 C843 1.386 . S
C842 C844 1.391 . S
C843 C842 1.386 . S
C843 C847 1.393 . S
C844 H833 0.950 . S
C844 C842 1.391 . S
C844 C845 1.400 . S
C845 C839 1.491 1_545 S
C845 C844 1.400 . S
C845 C846 1.398 . S
C846 H834 0.950 . S
C846 C845 1.398 . S
C846 C847 1.391 . S
C847 H835 0.950 . S
C847 C843 1.393 . S
C847 C846 1.391 . S
H848 C856 0.950 . S
H849 C861 0.950 . S
H850 C858 0.950 . S
H851 C860 0.950 . S
H852 C862 0.950 . S
H853 C864 0.950 . S
H854 C866 0.950 . S
H855 C867 0.950 . S
C856 H848 0.950 . S
C856 C857 1.386 . S
C856 C858 1.391 . S
C857 C856 1.386 . S
C857 C861 1.393 . S
C858 H850 0.950 . S
C858 C856 1.391 . S
C858 C859 1.400 . S
C859 C858 1.400 . S
C859 C860 1.398 . S
C859 C865 1.491 1_455 S
C860 H851 0.950 . S
C860 C859 1.398 . S
C860 C861 1.391 . S
C861 H849 0.950 . S
C861 C857 1.393 . S
C861 C860 1.391 . S
C862 H852 0.950 . S
C862 C863 1.386 . S
C862 C864 1.391 . S
C863 C862 1.386 . S
C863 C867 1.393 . S
C864 H853 0.950 . S
C864 C862 1.391 . S
C864 C865 1.400 . S
C865 C859 1.491 1_655 S
C865 C864 1.400 . S
C865 C866 1.398 . S
C866 H854 0.950 . S
C866 C865 1.398 . S
C866 C867 1.391 . S
C867 H855 0.950 . S
C867 C863 1.393 . S
C867 C866 1.391 . S
H868 C876 0.950 . S
H869 C881 0.950 . S
H870 C878 0.950 . S
H871 C880 0.950 . S
H872 C882 0.950 . S
H873 C884 0.950 . S
H874 C886 0.950 . S
H875 C887 0.950 . S
C876 H868 0.950 . S
C876 C877 1.386 . S
C876 C878 1.391 . S
C877 C876 1.386 . S
C877 C881 1.393 . S
C878 H870 0.950 . S
C878 C876 1.391 . S
C878 C879 1.400 . S
C879 C878 1.400 . S
C879 C880 1.398 . S
C879 C885 1.491 . S
C880 H871 0.950 . S
C880 C879 1.398 . S
C880 C881 1.391 . S
C881 H869 0.950 . S
C881 C877 1.393 . S
C881 C880 1.391 . S
C882 H872 0.950 . S
C882 C883 1.386 . S
C882 C884 1.391 . S
C883 C882 1.386 . S
C883 C887 1.393 . S
C884 H873 0.950 . S
C884 C882 1.391 . S
C884 C885 1.400 . S
C885 C879 1.491 . S
C885 C884 1.400 . S
C885 C886 1.398 . S
C886 H874 0.950 . S
C886 C885 1.398 . S
C886 C887 1.391 . S
C887 H875 0.950 . S
C887 C883 1.393 . S
C887 C886 1.391 . S
H888 C896 0.950 . S
H889 C901 0.950 . S
H890 C898 0.950 . S
H891 C900 0.950 . S
H892 C902 0.950 . S
H893 C904 0.950 . S
H894 C906 0.950 . S
H895 C907 0.950 . S
C896 H888 0.950 . S
C896 C897 1.386 . S
C896 C898 1.391 . S
C897 C896 1.386 . S
C897 C901 1.393 . S
C898 H890 0.950 . S
C898 C896 1.391 . S
C898 C899 1.400 . S
C899 C898 1.400 . S
C899 C900 1.398 . S
C899 C905 1.491 1_565 S
C900 H891 0.950 . S
C900 C899 1.398 . S
C900 C901 1.391 . S
C901 H889 0.950 . S
C901 C897 1.393 . S
C901 C900 1.391 . S
C902 H892 0.950 . S
C902 C903 1.386 . S
C902 C904 1.391 . S
C903 C902 1.386 . S
C903 C907 1.393 . S
C904 H893 0.950 . S
C904 C902 1.391 . S
C904 C905 1.400 . S
C905 C899 1.491 1_545 S
C905 C904 1.400 . S
C905 C906 1.398 . S
C906 H894 0.950 . S
C906 C905 1.398 . S
C906 C907 1.391 . S
C907 H895 0.950 . S
C907 C903 1.393 . S
C907 C906 1.391 . S
H908 C916 0.950 . S
H909 C921 0.950 . S
H910 C918 0.950 . S
H911 C920 0.950 . S
H912 C922 0.950 . S
H913 C924 0.950 . S
H914 C926 0.950 . S
H915 C927 0.950 . S
C916 H908 0.950 . S
C916 C917 1.386 . S
C916 C918 1.391 . S
C917 C916 1.386 . S
C917 C921 1.393 . S
C918 H910 0.950 . S
C918 C916 1.391 . S
C918 C919 1.400 . S
C919 C918 1.400 . S
C919 C920 1.398 . S
C919 C925 1.491 1_455 S
C920 H911 0.950 . S
C920 C919 1.398 . S
C920 C921 1.391 . S
C921 H909 0.950 . S
C921 C917 1.393 . S
C921 C920 1.391 . S
C922 H912 0.950 . S
C922 C923 1.386 . S
C922 C924 1.391 . S
C923 C922 1.386 . S
C923 C927 1.393 . S
C924 H913 0.950 . S
C924 C922 1.391 . S
C924 C925 1.400 . S
C925 C919 1.491 1_655 S
C925 C924 1.400 . S
C925 C926 1.398 . S
C926 H914 0.950 . S
C926 C925 1.398 . S
C926 C927 1.391 . S
C927 H915 0.950 . S
C927 C923 1.393 . S
C927 C926 1.391 . S
H928 C936 0.950 . S
H929 C941 0.950 . S
H930 C938 0.950 . S
H931 C940 0.950 . S
H932 C942 0.950 . S
H933 C944 0.950 . S
H934 C946 0.950 . S
H935 C947 0.950 . S
C936 H928 0.950 . S
C936 C937 1.386 . S
C936 C938 1.391 . S
C937 C936 1.386 . S
C937 C941 1.393 . S
C938 H930 0.950 . S
C938 C936 1.391 . S
C938 C939 1.400 . S
C939 C938 1.400 . S
C939 C940 1.398 . S
C939 C945 1.491 . S
C940 H931 0.950 . S
C940 C939 1.398 . S
C940 C941 1.391 . S
C941 H929 0.950 . S
C941 C937 1.393 . S
C941 C940 1.391 . S
C942 H932 0.950 . S
C942 C943 1.386 . S
C942 C944 1.391 . S
C943 C942 1.386 . S
C943 C947 1.393 . S
C944 H933 0.950 . S
C944 C942 1.391 . S
C944 C945 1.400 . S
C945 C939 1.491 . S
C945 C944 1.400 . S
C945 C946 1.398 . S
C946 H934 0.950 . S
C946 C945 1.398 . S
C946 C947 1.391 . S
C947 H935 0.950 . S
C947 C943 1.393 . S
C947 C946 1.391 . S
H948 C956 0.950 . S
H949 C961 0.950 . S
H950 C958 0.950 . S
H951 C960 0.950 1_655 S
H952 C962 0.950 . S
H953 C964 0.950 . S
H954 C966 0.950 . S
H955 C967 0.898 1_455 S
C956 H948 0.950 . S
C956 C957 1.386 . S
C956 C958 1.391 . S
C957 C956 1.386 . S
C957 C961 1.393 . S
C958 H950 0.950 . S
C958 C956 1.391 . S
C958 C959 1.400 . S
C959 C958 1.400 . S
C959 C960 1.398 . S
C959 C965 1.491 . S
C960 H951 0.950 1_455 S
C960 C959 1.398 . S
C960 C961 1.391 . S
C961 H949 0.950 . S
C961 C957 1.393 . S
C961 C960 1.391 . S
C962 H952 0.950 . S
C962 C963 1.386 . S
C962 C964 1.391 . S
C963 C962 1.386 . S
C963 C967 1.446 . S
C964 H953 0.950 . S
C964 C962 1.391 . S
C964 C965 1.400 1_655 S
C965 C959 1.491 . S
C965 C964 1.400 1_455 S
C965 C966 1.398 . S
C966 H954 0.950 . S
C966 C965 1.398 . S
C966 C967 1.393 1_455 S
C967 H955 0.898 1_655 S
C967 C963 1.446 . S
C967 C966 1.393 1_655 S
H968 C976 0.950 . S
H969 C981 0.950 . S
H970 C978 0.950 . S
H971 C980 0.950 . S
H972 C982 0.950 . S
H973 C984 0.950 . S
H974 C986 0.950 . S
H975 C987 0.950 . S
C976 H968 0.950 . S
C976 C977 1.386 . S
C976 C978 1.391 . S
C977 C976 1.386 . S
C977 C981 1.393 . S
C978 H970 0.950 . S
C978 C976 1.391 . S
C978 C979 1.400 . S
C979 C978 1.400 . S
C979 C980 1.398 . S
C979 C985 1.491 . S
C980 H971 0.950 . S
C980 C979 1.398 . S
C980 C981 1.391 . S
C981 H969 0.950 . S
C981 C977 1.393 . S
C981 C980 1.391 . S
C982 H972 0.950 . S
C982 C983 1.386 . S
C982 C984 1.391 . S
C983 C982 1.386 . S
C983 C987 1.393 . S
C984 H973 0.950 . S
C984 C982 1.391 . S
C984 C985 1.400 . S
C985 C979 1.491 . S
C985 C984 1.400 . S
C985 C986 1.398 . S
C986 H974 0.950 . S
C986 C985 1.398 . S
C986 C987 1.391 . S
C987 H975 0.950 . S
C987 C983 1.393 . S
C987 C986 1.391 . S
H988 C996 0.950 . S
H989 C1001 0.950 . S
H990 C998 0.950 . S
H991 C1000 0.950 1_565 S
H992 C1002 0.950 . S
H993 C1004 0.950 . S
H994 C1006 0.950 . S
H995 C1007 0.950 . S
C996 H988 0.950 . S
C996 C997 1.386 . S
C996 C998 1.391 . S
C997 C996 1.386 . S
C997 C1001 1.393 . S
C998 H990 0.950 . S
C998 C996 1.391 . S
C998 C999 1.400 1_545 S
C999 C998 1.400 1_565 S
C999 C1000 1.398 1_565 S
C999 C1005 1.491 . S
C1000 H991 0.950 1_545 S
C1000 C999 1.398 1_545 S
C1000 C1001 1.391 . S
C1001 H989 0.950 . S
C1001 C997 1.393 . S
C1001 C1000 1.391 . S
C1002 H992 0.950 . S
C1002 C1003 1.386 . S
C1002 C1004 1.391 . S
C1003 C1002 1.386 . S
C1003 C1007 1.393 . S
C1004 H993 0.950 . S
C1004 C1002 1.391 . S
C1004 C1005 1.400 . S
C1005 C999 1.491 . S
C1005 C1004 1.400 . S
C1005 C1006 1.398 . S
C1006 H994 0.950 . S
C1006 C1005 1.398 . S
C1006 C1007 1.391 . S
C1007 H995 0.950 . S
C1007 C1003 1.393 . S
C1007 C1006 1.391 . S
H1008 C1016 0.950 . S
H1009 C1021 0.950 . S
H1010 C1018 0.950 . S
H1011 C1020 0.950 . S
H1012 C1022 0.950 . S
H1013 C1024 0.950 . S
H1014 C1026 0.950 . S
H1015 C1027 0.950 . S
C1016 H1008 0.950 . S
C1016 C1017 1.386 . S
C1016 C1018 1.391 . S
C1017 C1016 1.386 . S
C1017 C1021 1.393 . S
C1018 H1010 0.950 . S
C1018 C1016 1.391 . S
C1018 C1019 1.400 . S
C1019 C1018 1.400 . S
C1019 C1020 1.398 . S
C1019 C1025 1.491 . S
C1020 H1011 0.950 . S
C1020 C1019 1.398 . S
C1020 C1021 1.391 . S
C1021 H1009 0.950 . S
C1021 C1017 1.393 . S
C1021 C1020 1.391 . S
C1022 H1012 0.950 . S
C1022 C1023 1.386 . S
C1022 C1024 1.391 . S
C1023 C1022 1.386 . S
C1023 C1027 1.393 . S
C1024 H1013 0.950 . S
C1024 C1022 1.391 . S
C1024 C1025 1.400 . S
C1025 C1019 1.491 . S
C1025 C1024 1.400 . S
C1025 C1026 1.398 . S
C1026 H1014 0.950 . S
C1026 C1025 1.398 . S
C1026 C1027 1.391 . S
C1027 H1015 0.950 . S
C1027 C1023 1.393 . S
C1027 C1026 1.391 . S
H1028 C1036 0.950 . S
H1029 C1041 0.950 . S
H1030 C1038 0.950 . S
H1031 C1040 0.950 1_545 S
H1032 C1042 0.950 . S
H1033 C1044 0.950 . S
H1034 C1046 0.950 . S
H1035 C1047 1.002 . S
C1036 H1028 0.950 . S
C1036 C1037 1.386 . S
C1036 C1038 1.391 . S
C1037 C1036 1.386 . S
C1037 C1041 1.393 . S
C1038 H1030 0.950 . S
C1038 C1036 1.391 . S
C1038 C1039 1.400 . S
C1039 C1038 1.400 . S
C1039 C1040 1.398 . S
C1039 C1045 1.491 . S
C1040 H1031 0.950 1_565 S
C1040 C1039 1.398 . S
C1040 C1041 1.391 . S
C1041 H1029 0.950 . S
C1041 C1037 1.393 . S
C1041 C1040 1.391 . S
C1042 H1032 0.950 . S
C1042 C1043 1.386 . S
C1042 C1044 1.391 . S
C1043 C1042 1.386 . S
C1043 C1047 1.342 1_545 S
C1044 H1033 0.950 . S
C1044 C1042 1.391 . S
C1044 C1045 1.400 1_545 S
C1045 C1039 1.491 . S
C1045 C1044 1.400 1_565 S
C1045 C1046 1.398 . S
C1046 H1034 0.950 . S
C1046 C1045 1.398 . S
C1046 C1047 1.392 . S
C1047 H1035 1.002 . S
C1047 C1043 1.342 1_565 S
C1047 C1046 1.392 . S
H1048 C1056 0.950 . S
H1049 C1061 0.949 . S
H1050 C1058 0.950 . S
H1051 C1060 0.950 . S
H1052 C1062 0.950 . S
H1053 C1064 0.950 . S
H1054 C1066 0.950 1_655 S
H1055 C1067 0.950 . S
C1056 H1048 0.950 . S
C1056 C1057 1.386 . S
C1056 C1058 1.391 . S
C1057 C1056 1.386 . S
C1057 C1061 1.377 1_655 S
C1058 H1050 0.950 . S
C1058 C1056 1.391 . S
C1058 C1059 1.400 1_655 S
C1059 C1058 1.400 1_455 S
C1059 C1060 1.398 . S
C1059 C1065 1.491 . S
C1060 H1051 0.950 . S
C1060 C1059 1.398 . S
C1060 C1061 1.407 . S
C1061 H1049 0.949 . S
C1061 C1057 1.377 1_455 S
C1061 C1060 1.407 . S
C1062 H1052 0.950 . S
C1062 C1063 1.386 . S
C1062 C1064 1.391 . S
C1063 C1062 1.386 . S
C1063 C1067 1.393 . S
C1064 H1053 0.950 . S
C1064 C1062 1.391 . S
C1064 C1065 1.400 . S
C1065 C1059 1.491 . S
C1065 C1064 1.400 . S
C1065 C1066 1.398 . S
C1066 H1054 0.950 1_455 S
C1066 C1065 1.398 . S
C1066 C1067 1.391 . S
C1067 H1055 0.950 . S
C1067 C1063 1.393 . S
C1067 C1066 1.391 . S
H1068 C1076 0.950 . S
H1069 C1081 0.950 . S
H1070 C1078 0.950 . S
H1071 C1080 0.950 . S
H1072 C1082 0.950 . S
H1073 C1084 0.950 . S
H1074 C1086 0.950 . S
H1075 C1087 0.950 . S
C1076 H1068 0.950 . S
C1076 C1077 1.386 . S
C1076 C1078 1.391 . S
C1077 C1076 1.386 . S
C1077 C1081 1.393 . S
C1078 H1070 0.950 . S
C1078 C1076 1.391 . S
C1078 C1079 1.400 . S
C1079 C1078 1.400 . S
C1079 C1080 1.398 . S
C1079 C1085 1.491 . S
C1080 H1071 0.950 . S
C1080 C1079 1.398 . S
C1080 C1081 1.391 . S
C1081 H1069 0.950 . S
C1081 C1077 1.393 . S
C1081 C1080 1.391 . S
C1082 H1072 0.950 . S
C1082 C1083 1.386 . S
C1082 C1084 1.391 . S
C1083 C1082 1.386 . S
C1083 C1087 1.393 . S
C1084 H1073 0.950 . S
C1084 C1082 1.391 . S
C1084 C1085 1.400 . S
C1085 C1079 1.491 . S
C1085 C1084 1.400 . S
C1085 C1086 1.398 . S
C1086 H1074 0.950 . S
C1086 C1085 1.398 . S
C1086 C1087 1.391 . S
C1087 H1075 0.950 . S
C1087 C1083 1.393 . S
C1087 C1086 1.391 . S
H1088 C1096 0.950 . S
H1089 C1101 0.950 . S
H1090 C1098 0.969 . S
H1091 C1100 0.950 . S
H1092 C1102 0.950 . S
H1093 C1104 0.950 . S
H1094 C1106 0.950 . S
H1095 C1107 0.950 . S
C1096 H1088 0.950 . S
C1096 C1097 1.386 . S
C1096 C1098 1.391 . S
C1097 C1096 1.386 . S
C1097 C1101 1.393 . S
C1098 H1090 0.969 . S
C1098 C1096 1.391 . S
C1098 C1099 1.400 . S
C1099 C1098 1.400 . S
C1099 C1100 1.398 . S
C1099 C1105 1.491 . S
C1100 H1091 0.950 . S
C1100 C1099 1.398 . S
C1100 C1101 1.391 . S
C1101 H1089 0.950 . S
C1101 C1097 1.393 . S
C1101 C1100 1.391 . S
C1102 H1092 0.950 . S
C1102 C1103 1.386 . S
C1102 C1104 1.391 1_565 S
C1103 C1102 1.386 . S
C1103 C1107 1.393 . S
C1104 H1093 0.950 . S
C1104 C1102 1.391 1_545 S
C1104 C1105 1.400 . S
C1105 C1099 1.491 . S
C1105 C1104 1.400 . S
C1105 C1106 1.398 1_545 S
C1106 H1094 0.950 . S
C1106 C1105 1.398 1_565 S
C1106 C1107 1.391 . S
C1107 H1095 0.950 . S
C1107 C1103 1.393 . S
C1107 C1106 1.391 . S
H1108 C1116 0.950 . S
H1109 C1121 0.950 . S
H1110 C1118 0.950 . S
H1111 C1120 0.950 1_655 S
H1112 C1122 0.950 . S
H1113 C1124 0.950 . S
H1114 C1126 0.950 . S
H1115 C1127 0.950 . S
C1116 H1108 0.950 . S
C1116 C1117 1.386 . S
C1116 C1118 1.391 . S
C1117 C1116 1.386 . S
C1117 C1121 1.393 . S
C1118 H1110 0.950 . S
C1118 C1116 1.391 . S
C1118 C1119 1.400 1_455 S
C1119 C1118 1.400 1_655 S
C1119 C1120 1.398 1_655 S
C1119 C1125 1.491 . S
C1120 H1111 0.950 1_455 S
C1120 C1119 1.398 1_455 S
C1120 C1121 1.391 . S
C1121 H1109 0.950 . S
C1121 C1117 1.393 . S
C1121 C1120 1.391 . S
C1122 H1112 0.950 . S
C1122 C1123 1.386 . S
C1122 C1124 1.391 . S
C1123 C1122 1.386 . S
C1123 C1127 1.393 . S
C1124 H1113 0.950 . S
C1124 C1122 1.391 . S
C1124 C1125 1.400 . S
C1125 C1119 1.491 . S
C1125 C1124 1.400 . S
C1125 C1126 1.398 . S
C1126 H1114 0.950 . S
C1126 C1125 1.398 . S
C1126 C1127 1.391 . S
C1127 H1115 0.950 . S
C1127 C1123 1.393 . S
C1127 C1126 1.391 . S
H1128 C1136 0.950 . S
H1129 C1141 0.950 . S
H1130 C1138 0.950 . S
H1131 C1140 0.951 1_655 S
H1132 C1142 0.950 . S
H1133 C1144 0.950 . S
H1134 C1146 0.950 . S
H1135 C1147 0.950 . S
C1136 H1128 0.950 . S
C1136 C1137 1.386 . S
C1136 C1138 1.391 . S
C1137 C1136 1.386 . S
C1137 C1141 1.393 . S
C1138 H1130 0.950 . S
C1138 C1136 1.391 . S
C1138 C1139 1.400 1_455 S
C1139 C1138 1.400 1_655 S
C1139 C1140 1.398 1_655 S
C1139 C1145 1.491 . S
C1140 H1131 0.951 1_455 S
C1140 C1139 1.398 1_455 S
C1140 C1141 1.391 . S
C1141 H1129 0.950 . S
C1141 C1137 1.393 . S
C1141 C1140 1.391 . S
C1142 H1132 0.950 . S
C1142 C1143 1.386 . S
C1142 C1144 1.391 . S
C1143 C1142 1.386 . S
C1143 C1147 1.393 . S
C1144 H1133 0.950 . S
C1144 C1142 1.391 . S
C1144 C1145 1.400 . S
C1145 C1139 1.491 . S
C1145 C1144 1.400 . S
C1145 C1146 1.398 . S
C1146 H1134 0.950 . S
C1146 C1145 1.398 . S
C1146 C1147 1.391 . S
C1147 H1135 0.950 . S
C1147 C1143 1.393 . S
C1147 C1146 1.391 . S
H1148 C1156 0.950 . S
H1149 C1161 0.950 . S
H1150 C1158 0.950 . S
H1151 C1160 0.950 . S
H1152 C1162 0.950 . S
H1153 C1164 0.950 . S
H1154 C1166 0.950 . S
H1155 C1167 0.950 . S
C1156 H1148 0.950 . S
C1156 C1157 1.386 . S
C1156 C1158 1.391 . S
C1157 C1156 1.386 . S
C1157 C1161 1.393 . S
C1158 H1150 0.950 . S
C1158 C1156 1.391 . S
C1158 C1159 1.400 . S
C1159 C1158 1.400 . S
C1159 C1160 1.398 . S
C1159 C1165 1.491 . S
C1160 H1151 0.950 . S
C1160 C1159 1.398 . S
C1160 C1161 1.391 . S
C1161 H1149 0.950 . S
C1161 C1157 1.393 . S
C1161 C1160 1.391 . S
C1162 H1152 0.950 . S
C1162 C1163 1.386 . S
C1162 C1164 1.391 . S
C1163 C1162 1.386 . S
C1163 C1167 1.393 . S
C1164 H1153 0.950 . S
C1164 C1162 1.391 . S
C1164 C1165 1.400 . S
C1165 C1159 1.491 . S
C1165 C1164 1.400 . S
C1165 C1166 1.398 . S
C1166 H1154 0.950 . S
C1166 C1165 1.398 . S
C1166 C1167 1.391 . S
C1167 H1155 0.950 . S
C1167 C1163 1.393 . S
C1167 C1166 1.391 . S
H1168 C1176 0.950 . S
H1169 C1181 0.950 . S
H1170 C1178 0.950 . S
H1171 C1180 0.950 . S
H1172 C1182 0.950 . S
H1173 C1184 0.950 1_565 S
H1174 C1186 0.950 . S
H1175 C1187 0.950 . S
C1176 H1168 0.950 . S
C1176 C1177 1.386 1_545 S
C1176 C1178 1.391 . S
C1177 C1176 1.386 1_565 S
C1177 C1181 1.393 . S
C1178 H1170 0.950 . S
C1178 C1176 1.391 . S
C1178 C1179 1.400 . S
C1179 C1178 1.400 . S
C1179 C1180 1.398 1_545 S
C1179 C1185 1.491 . S
C1180 H1171 0.950 . S
C1180 C1179 1.398 1_565 S
C1180 C1181 1.391 . S
C1181 H1169 0.950 . S
C1181 C1177 1.393 . S
C1181 C1180 1.391 . S
C1182 H1172 0.950 . S
C1182 C1183 1.386 . S
C1182 C1184 1.391 . S
C1183 C1182 1.386 . S
C1183 C1187 1.393 . S
C1184 H1173 0.950 1_545 S
C1184 C1182 1.391 . S
C1184 C1185 1.400 . S
C1185 C1179 1.491 . S
C1185 C1184 1.400 . S
C1185 C1186 1.398 . S
C1186 H1174 0.950 . S
C1186 C1185 1.398 . S
C1186 C1187 1.391 . S
C1187 H1175 0.950 . S
C1187 C1183 1.393 . S
C1187 C1186 1.391 . S
H1188 C1196 0.950 . S
H1189 C1201 0.950 . S
H1190 C1198 0.950 . S
H1191 C1200 0.950 . S
H1192 C1202 0.950 . S
H1193 C1204 0.950 . S
H1194 C1206 0.950 . S
H1195 C1207 0.950 . S
C1196 H1188 0.950 . S
C1196 C1197 1.386 . S
C1196 C1198 1.391 . S
C1197 C1196 1.386 . S
C1197 C1201 1.393 . S
C1198 H1190 0.950 . S
C1198 C1196 1.391 . S
C1198 C1199 1.400 . S
C1199 C1198 1.400 . S
C1199 C1200 1.398 . S
C1199 C1205 1.491 . S
C1200 H1191 0.950 . S
C1200 C1199 1.398 . S
C1200 C1201 1.391 . S
C1201 H1189 0.950 . S
C1201 C1197 1.393 . S
C1201 C1200 1.391 . S
C1202 H1192 0.950 . S
C1202 C1203 1.386 . S
C1202 C1204 1.391 . S
C1203 C1202 1.386 . S
C1203 C1207 1.393 . S
C1204 H1193 0.950 . S
C1204 C1202 1.391 . S
C1204 C1205 1.400 . S
C1205 C1199 1.491 . S
C1205 C1204 1.400 . S
C1205 C1206 1.398 . S
C1206 H1194 0.950 . S
C1206 C1205 1.398 . S
C1206 C1207 1.391 . S
C1207 H1195 0.950 . S
C1207 C1203 1.393 . S
C1207 C1206 1.391 . S
H1208 C1216 0.950 . S
H1209 C1221 0.950 . S
H1210 C1218 0.950 . S
H1211 C1220 0.950 . S
H1212 C1222 0.950 . S
H1213 C1224 0.950 . S
H1214 C1226 0.950 . S
H1215 C1227 0.950 . S
C1216 H1208 0.950 . S
C1216 C1217 1.386 . S
C1216 C1218 1.391 . S
C1217 C1216 1.386 . S
C1217 C1221 1.393 . S
C1218 H1210 0.950 . S
C1218 C1216 1.391 . S
C1218 C1219 1.400 . S
C1219 C1218 1.400 . S
C1219 C1220 1.398 . S
C1219 C1225 1.491 . S
C1220 H1211 0.950 . S
C1220 C1219 1.398 . S
C1220 C1221 1.391 . S
C1221 H1209 0.950 . S
C1221 C1217 1.393 . S
C1221 C1220 1.391 . S
C1222 H1212 0.950 . S
C1222 C1223 1.386 . S
C1222 C1224 1.391 . S
C1223 C1222 1.386 . S
C1223 C1227 1.393 . S
C1224 H1213 0.950 . S
C1224 C1222 1.391 . S
C1224 C1225 1.400 . S
C1225 C1219 1.491 . S
C1225 C1224 1.400 . S
C1225 C1226 1.398 . S
C1226 H1214 0.950 . S
C1226 C1225 1.398 . S
C1226 C1227 1.391 . S
C1227 H1215 0.950 . S
C1227 C1223 1.393 . S
C1227 C1226 1.391 . S
H1228 C1236 0.950 . S
H1229 C1241 0.950 . S
H1230 C1238 0.950 . S
H1231 C1240 0.950 . S
H1232 C1242 0.950 . S
H1233 C1244 0.950 . S
H1234 C1246 0.950 . S
H1235 C1247 0.950 . S
C1236 H1228 0.950 . S
C1236 C1237 1.386 . S
C1236 C1238 1.391 . S
C1237 C1236 1.386 . S
C1237 C1241 1.393 . S
C1238 H1230 0.950 . S
C1238 C1236 1.391 . S
C1238 C1239 1.400 . S
C1239 C1238 1.400 . S
C1239 C1240 1.398 . S
C1239 C1245 1.491 . S
C1240 H1231 0.950 . S
C1240 C1239 1.398 . S
C1240 C1241 1.391 . S
C1241 H1229 0.950 . S
C1241 C1237 1.393 . S
C1241 C1240 1.391 . S
C1242 H1232 0.950 . S
C1242 C1243 1.386 . S
C1242 C1244 1.391 . S
C1243 C1242 1.386 . S
C1243 C1247 1.393 . S
C1244 H1233 0.950 . S
C1244 C1242 1.391 . S
C1244 C1245 1.400 . S
C1245 C1239 1.491 . S
C1245 C1244 1.400 . S
C1245 C1246 1.398 . S
C1246 H1234 0.950 . S
C1246 C1245 1.398 . S
C1246 C1247 1.391 . S
C1247 H1235 0.950 . S
C1247 C1243 1.393 . S
C1247 C1246 1.391 . S
H1248 C1256 0.950 . S
H1249 C1261 0.950 . S
H1250 C1258 0.950 . S
H1251 C1260 0.950 . S
H1252 C1262 0.950 . S
H1253 C1264 0.950 . S
H1254 C1266 0.950 . S
H1255 C1267 0.950 . S
C1256 H1248 0.950 . S
C1256 C1257 1.386 . S
C1256 C1258 1.391 . S
C1257 C1256 1.386 . S
C1257 C1261 1.393 . S
C1258 H1250 0.950 . S
C1258 C1256 1.391 . S
C1258 C1259 1.400 . S
C1259 C1258 1.400 . S
C1259 C1260 1.398 . S
C1259 C1265 1.491 . S
C1260 H1251 0.950 . S
C1260 C1259 1.398 . S
C1260 C1261 1.391 . S
C1261 H1249 0.950 . S
C1261 C1257 1.393 . S
C1261 C1260 1.391 . S
C1262 H1252 0.950 . S
C1262 C1263 1.386 . S
C1262 C1264 1.391 . S
C1263 C1262 1.386 . S
C1263 C1267 1.393 . S
C1264 H1253 0.950 . S
C1264 C1262 1.391 . S
C1264 C1265 1.400 . S
C1265 C1259 1.491 . S
C1265 C1264 1.400 . S
C1265 C1266 1.398 . S
C1266 H1254 0.950 . S
C1266 C1265 1.398 . S
C1266 C1267 1.391 . S
C1267 H1255 0.950 . S
C1267 C1263 1.393 . S
C1267 C1266 1.391 . S
H1268 C1276 0.950 . S
H1269 C1281 0.950 . S
H1270 C1278 0.950 . S
H1271 C1280 0.950 . S
H1272 C1282 0.950 . S
H1273 C1284 0.950 . S
H1274 C1286 0.950 . S
H1275 C1287 0.950 . S
C1276 H1268 0.950 . S
C1276 C1277 1.386 . S
C1276 C1278 1.391 . S
C1277 C1276 1.386 . S
C1277 C1281 1.393 . S
C1278 H1270 0.950 . S
C1278 C1276 1.391 . S
C1278 C1279 1.400 . S
C1279 C1278 1.400 . S
C1279 C1280 1.398 . S
C1279 C1285 1.491 . S
C1280 H1271 0.950 . S
C1280 C1279 1.398 . S
C1280 C1281 1.391 . S
C1281 H1269 0.950 . S
C1281 C1277 1.393 . S
C1281 C1280 1.391 . S
C1282 H1272 0.950 . S
C1282 C1283 1.386 . S
C1282 C1284 1.391 . S
C1283 C1282 1.386 . S
C1283 C1287 1.393 . S
C1284 H1273 0.950 . S
C1284 C1282 1.391 . S
C1284 C1285 1.400 . S
C1285 C1279 1.491 . S
C1285 C1284 1.400 . S
C1285 C1286 1.398 . S
C1286 H1274 0.950 . S
C1286 C1285 1.398 . S
C1286 C1287 1.391 . S
C1287 H1275 0.950 . S
C1287 C1283 1.393 . S
C1287 C1286 1.391 . S
H1288 C1296 0.950 . S
H1289 C1301 0.950 . S
H1290 C1298 0.950 . S
H1291 C1300 0.950 . S
H1292 C1302 0.950 . S
H1293 C1304 0.950 . S
H1294 C1306 0.950 . S
H1295 C1307 0.950 1_556 S
C1296 H1288 0.950 . S
C1296 C1297 1.386 . S
C1296 C1298 1.391 . S
C1297 C1296 1.386 . S
C1297 C1301 1.393 . S
C1298 H1290 0.950 . S
C1298 C1296 1.391 . S
C1298 C1299 1.400 . S
C1299 C1298 1.400 . S
C1299 C1300 1.398 . S
C1299 C1305 1.491 . S
C1300 H1291 0.950 . S
C1300 C1299 1.398 . S
C1300 C1301 1.391 . S
C1301 H1289 0.950 . S
C1301 C1297 1.393 . S
C1301 C1300 1.391 . S
C1302 H1292 0.950 . S
C1302 C1303 1.386 . S
C1302 C1304 1.391 . S
C1303 C1302 1.386 . S
C1303 C1307 1.393 . S
C1304 H1293 0.950 . S
C1304 C1302 1.391 . S
C1304 C1305 1.400 . S
C1305 C1299 1.491 . S
C1305 C1304 1.400 . S
C1305 C1306 1.398 . S
C1306 H1294 0.950 . S
C1306 C1305 1.398 . S
C1306 C1307 1.391 . S
C1307 H1295 0.950 1_554 S
C1307 C1303 1.393 . S
C1307 C1306 1.391 . S
H1308 C1316 0.950 . S
H1309 C1321 0.950 . S
H1310 C1318 0.950 . S
H1311 C1320 0.950 . S
H1312 C1322 0.950 . S
H1313 C1324 0.950 . S
H1314 C1326 0.950 . S
H1315 C1327 0.950 . S
C1316 H1308 0.950 . S
C1316 C1317 1.386 . S
C1316 C1318 1.391 . S
C1317 C1316 1.386 . S
C1317 C1321 1.393 . S
C1318 H1310 0.950 . S
C1318 C1316 1.391 . S
C1318 C1319 1.400 . S
C1319 C1318 1.400 . S
C1319 C1320 1.398 . S
C1319 C1325 1.491 . S
C1320 H1311 0.950 . S
C1320 C1319 1.398 . S
C1320 C1321 1.391 . S
C1321 H1309 0.950 . S
C1321 C1317 1.393 . S
C1321 C1320 1.391 . S
C1322 H1312 0.950 . S
C1322 C1323 1.386 . S
C1322 C1324 1.391 . S
C1323 C1322 1.386 . S
C1323 C1327 1.393 . S
C1324 H1313 0.950 . S
C1324 C1322 1.391 . S
C1324 C1325 1.400 . S
C1325 C1319 1.491 . S
C1325 C1324 1.400 . S
C1325 C1326 1.398 . S
C1326 H1314 0.950 . S
C1326 C1325 1.398 . S
C1326 C1327 1.391 . S
C1327 H1315 0.950 . S
C1327 C1323 1.393 . S
C1327 C1326 1.391 . S
H1328 C1336 0.950 . S
H1329 C1341 0.950 . S
H1330 C1338 0.950 . S
H1331 C1340 0.950 . S
H1332 C1342 0.950 . S
H1333 C1344 0.950 . S
H1334 C1346 0.950 . S
H1335 C1347 0.950 . S
C1336 H1328 0.950 . S
C1336 C1337 1.386 . S
C1336 C1338 1.391 . S
C1337 C1336 1.386 . S
C1337 C1341 1.393 . S
C1338 H1330 0.950 . S
C1338 C1336 1.391 . S
C1338 C1339 1.400 . S
C1339 C1338 1.400 . S
C1339 C1340 1.398 . S
C1339 C1345 1.491 . S
C1340 H1331 0.950 . S
C1340 C1339 1.398 . S
C1340 C1341 1.391 . S
C1341 H1329 0.950 . S
C1341 C1337 1.393 . S
C1341 C1340 1.391 . S
C1342 H1332 0.950 . S
C1342 C1343 1.386 . S
C1342 C1344 1.391 . S
C1343 C1342 1.386 . S
C1343 C1347 1.393 . S
C1344 H1333 0.950 . S
C1344 C1342 1.391 . S
C1344 C1345 1.400 . S
C1345 C1339 1.491 . S
C1345 C1344 1.400 . S
C1345 C1346 1.398 . S
C1346 H1334 0.950 . S
C1346 C1345 1.398 . S
C1346 C1347 1.391 . S
C1347 H1335 0.950 . S
C1347 C1343 1.393 . S
C1347 C1346 1.391 . S
H1348 C1356 0.950 . S
H1349 C1361 0.950 . S
H1350 C1358 0.950 . S
H1351 C1360 0.950 . S
H1352 C1362 0.950 . S
H1353 C1364 0.950 . S
H1354 C1366 0.950 . S
H1355 C1367 0.950 . S
C1356 H1348 0.950 . S
C1356 C1357 1.386 . S
C1356 C1358 1.391 . S
C1357 C1356 1.386 . S
C1357 C1361 1.393 . S
C1358 H1350 0.950 . S
C1358 C1356 1.391 . S
C1358 C1359 1.400 . S
C1359 C1358 1.400 . S
C1359 C1360 1.398 . S
C1359 C1365 1.491 . S
C1360 H1351 0.950 . S
C1360 C1359 1.398 . S
C1360 C1361 1.391 . S
C1361 H1349 0.950 . S
C1361 C1357 1.393 . S
C1361 C1360 1.391 . S
C1362 H1352 0.950 . S
C1362 C1363 1.386 . S
C1362 C1364 1.391 . S
C1363 C1362 1.386 . S
C1363 C1367 1.393 . S
C1364 H1353 0.950 . S
C1364 C1362 1.391 . S
C1364 C1365 1.400 . S
C1365 C1359 1.491 . S
C1365 C1364 1.400 . S
C1365 C1366 1.398 . S
C1366 H1354 0.950 . S
C1366 C1365 1.398 . S
C1366 C1367 1.391 . S
C1367 H1355 0.950 . S
C1367 C1363 1.393 . S
C1367 C1366 1.391 . S
H1368 C1376 0.950 . S
H1369 C1381 0.950 1_554 S
H1370 C1378 0.950 . S
H1371 C1380 0.950 . S
H1372 C1382 0.950 . S
H1373 C1384 0.950 . S
H1374 C1386 0.950 . S
H1375 C1387 0.950 . S
C1376 H1368 0.950 . S
C1376 C1377 1.386 . S
C1376 C1378 1.391 . S
C1377 C1376 1.386 . S
C1377 C1381 1.393 . S
C1378 H1370 0.950 . S
C1378 C1376 1.391 . S
C1378 C1379 1.400 . S
C1379 C1378 1.400 . S
C1379 C1380 1.398 . S
C1379 C1385 1.491 . S
C1380 H1371 0.950 . S
C1380 C1379 1.398 . S
C1380 C1381 1.391 . S
C1381 H1369 0.950 1_556 S
C1381 C1377 1.393 . S
C1381 C1380 1.391 . S
C1382 H1372 0.950 . S
C1382 C1383 1.386 . S
C1382 C1384 1.391 . S
C1383 C1382 1.386 . S
C1383 C1387 1.393 . S
C1384 H1373 0.950 . S
C1384 C1382 1.391 . S
C1384 C1385 1.400 . S
C1385 C1379 1.491 . S
C1385 C1384 1.400 . S
C1385 C1386 1.398 . S
C1386 H1374 0.950 . S
C1386 C1385 1.398 . S
C1386 C1387 1.391 . S
C1387 H1375 0.950 . S
C1387 C1383 1.393 . S
C1387 C1386 1.391 . S
H1388 C1396 0.950 1_554 S
H1389 C1401 0.950 . S
H1390 C1398 0.950 . S
H1391 C1400 0.950 . S
H1392 C1402 0.950 . S
H1393 C1404 0.950 . S
H1394 C1406 0.950 . S
H1395 C1407 0.950 . S
C1396 H1388 0.950 1_556 S
C1396 C1397 1.386 . S
C1396 C1398 1.391 . S
C1397 C1396 1.386 . S
C1397 C1401 1.393 . S
C1398 H1390 0.950 . S
C1398 C1396 1.391 . S
C1398 C1399 1.400 . S
C1399 C1398 1.400 . S
C1399 C1400 1.398 . S
C1399 C1405 1.491 . S
C1400 H1391 0.950 . S
C1400 C1399 1.398 . S
C1400 C1401 1.391 . S
C1401 H1389 0.950 . S
C1401 C1397 1.393 . S
C1401 C1400 1.391 . S
C1402 H1392 0.950 . S
C1402 C1403 1.386 . S
C1402 C1404 1.391 . S
C1403 C1402 1.386 . S
C1403 C1407 1.393 . S
C1404 H1393 0.950 . S
C1404 C1402 1.391 . S
C1404 C1405 1.400 . S
C1405 C1399 1.491 . S
C1405 C1404 1.400 . S
C1405 C1406 1.398 . S
C1406 H1394 0.950 . S
C1406 C1405 1.398 . S
C1406 C1407 1.391 . S
C1407 H1395 0.950 . S
C1407 C1403 1.393 . S
C1407 C1406 1.391 . S
H1408 C1416 0.950 . S
H1409 C1421 0.950 . S
H1410 C1418 0.950 . S
H1411 C1420 0.950 . S
H1412 C1422 0.950 . S
H1413 C1424 0.950 . S
H1414 C1426 0.950 . S
H1415 C1427 0.950 1_554 S
C1416 H1408 0.950 . S
C1416 C1417 1.386 . S
C1416 C1418 1.391 . S
C1417 C1416 1.386 . S
C1417 C1421 1.393 . S
C1418 H1410 0.950 . S
C1418 C1416 1.391 . S
C1418 C1419 1.400 . S
C1419 C1418 1.400 . S
C1419 C1420 1.398 . S
C1419 C1425 1.491 . S
C1420 H1411 0.950 . S
C1420 C1419 1.398 . S
C1420 C1421 1.391 . S
C1421 H1409 0.950 . S
C1421 C1417 1.393 . S
C1421 C1420 1.391 . S
C1422 H1412 0.950 . S
C1422 C1423 1.386 . S
C1422 C1424 1.391 . S
C1423 C1422 1.386 . S
C1423 C1427 1.393 . S
C1424 H1413 0.950 . S
C1424 C1422 1.391 . S
C1424 C1425 1.400 . S
C1425 C1419 1.491 . S
C1425 C1424 1.400 . S
C1425 C1426 1.398 . S
C1426 H1414 0.950 . S
C1426 C1425 1.398 . S
C1426 C1427 1.391 . S
C1427 H1415 0.950 1_556 S
C1427 C1423 1.393 . S
C1427 C1426 1.391 . S
H1428 C1436 0.950 . S
H1429 C1441 0.950 . S
H1430 C1438 0.983 . S
H1431 C1440 0.950 . S
H1432 C1442 0.950 . S
H1433 C1444 0.983 . S
H1434 C1446 0.950 . S
H1435 C1447 0.950 . S
C1436 H1428 0.950 . S
C1436 C1437 1.386 . S
C1436 C1438 1.366 1_455 S
C1437 C1436 1.386 . S
C1437 C1441 1.393 . S
C1438 H1430 0.983 . S
C1438 C1436 1.366 1_655 S
C1438 C1439 1.395 1_655 S
C1439 C1438 1.395 1_455 S
C1439 C1440 1.398 . S
C1439 C1445 1.491 1_455 S
C1440 H1431 0.950 . S
C1440 C1439 1.398 . S
C1440 C1441 1.391 . S
C1441 H1429 0.950 . S
C1441 C1437 1.393 . S
C1441 C1440 1.391 . S
C1442 H1432 0.950 . S
C1442 C1443 1.386 . S
C1442 C1444 1.366 1_655 S
C1443 C1442 1.386 . S
C1443 C1447 1.393 . S
C1444 H1433 0.983 . S
C1444 C1442 1.366 1_455 S
C1444 C1445 1.395 1_455 S
C1445 C1439 1.491 1_655 S
C1445 C1444 1.395 1_655 S
C1445 C1446 1.398 . S
C1446 H1434 0.950 . S
C1446 C1445 1.398 . S
C1446 C1447 1.391 . S
C1447 H1435 0.950 . S
C1447 C1443 1.393 . S
C1447 C1446 1.391 . S
H1448 C1456 0.950 . S
H1449 C1461 0.950 . S
H1450 C1458 0.950 . S
H1451 C1460 0.950 . S
H1452 C1462 0.950 . S
H1453 C1464 0.950 . S
H1454 C1466 0.950 . S
H1455 C1467 0.950 . S
C1456 H1448 0.950 . S
C1456 C1457 1.386 . S
C1456 C1458 1.391 . S
C1457 C1456 1.386 . S
C1457 C1461 1.393 . S
C1458 H1450 0.950 . S
C1458 C1456 1.391 . S
C1458 C1459 1.400 . S
C1459 C1458 1.400 . S
C1459 C1460 1.398 . S
C1459 C1465 1.491 . S
C1460 H1451 0.950 . S
C1460 C1459 1.398 . S
C1460 C1461 1.391 . S
C1461 H1449 0.950 . S
C1461 C1457 1.393 . S
C1461 C1460 1.391 . S
C1462 H1452 0.950 . S
C1462 C1463 1.386 . S
C1462 C1464 1.391 . S
C1463 C1462 1.386 . S
C1463 C1467 1.393 . S
C1464 H1453 0.950 . S
C1464 C1462 1.391 . S
C1464 C1465 1.400 . S
C1465 C1459 1.491 . S
C1465 C1464 1.400 . S
C1465 C1466 1.398 . S
C1466 H1454 0.950 . S
C1466 C1465 1.398 . S
C1466 C1467 1.391 . S
C1467 H1455 0.950 . S
C1467 C1463 1.393 . S
C1467 C1466 1.391 . S
H1468 C1476 0.950 . S
H1469 C1481 0.950 . S
H1470 C1478 0.950 . S
H1471 C1480 0.950 . S
H1472 C1482 0.950 . S
H1473 C1484 0.950 . S
H1474 C1486 0.950 . S
H1475 C1487 0.950 . S
C1476 H1468 0.950 . S
C1476 C1477 1.386 . S
C1476 C1478 1.391 1_545 S
C1477 C1476 1.386 . S
C1477 C1481 1.393 . S
C1478 H1470 0.950 . S
C1478 C1476 1.391 1_565 S
C1478 C1479 1.400 1_565 S
C1479 C1478 1.400 1_545 S
C1479 C1480 1.398 . S
C1479 C1485 1.491 1_545 S
C1480 H1471 0.950 . S
C1480 C1479 1.398 . S
C1480 C1481 1.391 . S
C1481 H1469 0.950 . S
C1481 C1477 1.393 . S
C1481 C1480 1.391 . S
C1482 H1472 0.950 . S
C1482 C1483 1.386 . S
C1482 C1484 1.391 1_565 S
C1483 C1482 1.386 . S
C1483 C1487 1.393 . S
C1484 H1473 0.950 . S
C1484 C1482 1.391 1_545 S
C1484 C1485 1.400 1_545 S
C1485 C1479 1.491 1_565 S
C1485 C1484 1.400 1_565 S
C1485 C1486 1.398 . S
C1486 H1474 0.950 . S
C1486 C1485 1.398 . S
C1486 C1487 1.391 . S
C1487 H1475 0.950 . S
C1487 C1483 1.393 . S
C1487 C1486 1.391 . S
H1488 C1496 0.950 . S
H1489 C1501 0.950 . S
H1490 C1498 0.950 . S
H1491 C1500 0.950 . S
H1492 C1502 0.950 . S
H1493 C1504 0.950 . S
H1494 C1506 0.950 . S
H1495 C1507 0.950 . S
C1496 H1488 0.950 . S
C1496 C1497 1.386 . S
C1496 C1498 1.391 . S
C1497 C1496 1.386 . S
C1497 C1501 1.393 . S
C1498 H1490 0.950 . S
C1498 C1496 1.391 . S
C1498 C1499 1.400 . S
C1499 C1498 1.400 . S
C1499 C1500 1.398 . S
C1499 C1505 1.491 1_565 S
C1500 H1491 0.950 . S
C1500 C1499 1.398 . S
C1500 C1501 1.391 . S
C1501 H1489 0.950 . S
C1501 C1497 1.393 . S
C1501 C1500 1.391 . S
C1502 H1492 0.950 . S
C1502 C1503 1.386 . S
C1502 C1504 1.391 . S
C1503 C1502 1.386 . S
C1503 C1507 1.393 . S
C1504 H1493 0.950 . S
C1504 C1502 1.391 . S
C1504 C1505 1.400 . S
C1505 C1499 1.491 1_545 S
C1505 C1504 1.400 . S
C1505 C1506 1.398 . S
C1506 H1494 0.950 . S
C1506 C1505 1.398 . S
C1506 C1507 1.391 . S
C1507 H1495 0.950 . S
C1507 C1503 1.393 . S
C1507 C1506 1.391 . S
H1508 C1516 0.950 . S
H1509 C1521 0.950 . S
H1510 C1518 0.950 . S
H1511 C1520 1.015 . S
H1512 C1522 0.950 . S
H1513 C1524 0.950 . S
H1514 C1526 1.016 . S
H1515 C1527 0.950 . S
C1516 H1508 0.950 . S
C1516 C1517 1.386 . S
C1516 C1518 1.391 . S
C1517 C1516 1.386 . S
C1517 C1521 1.393 . S
C1518 H1510 0.950 . S
C1518 C1516 1.391 . S
C1518 C1519 1.400 . S
C1519 C1518 1.400 . S
C1519 C1520 1.367 1_655 S
C1519 C1525 1.491 1_655 S
C1520 H1511 1.015 . S
C1520 C1519 1.367 1_455 S
C1520 C1521 1.361 1_455 S
C1521 H1509 0.950 . S
C1521 C1517 1.393 . S
C1521 C1520 1.361 1_655 S
C1522 H1512 0.950 . S
C1522 C1523 1.386 . S
C1522 C1524 1.391 . S
C1523 C1522 1.386 . S
C1523 C1527 1.393 . S
C1524 H1513 0.950 . S
C1524 C1522 1.391 . S
C1524 C1525 1.400 . S
C1525 C1519 1.491 1_455 S
C1525 C1524 1.400 . S
C1525 C1526 1.367 1_455 S
C1526 H1514 1.016 . S
C1526 C1525 1.367 1_655 S
C1526 C1527 1.360 1_655 S
C1527 H1515 0.950 . S
C1527 C1523 1.393 . S
C1527 C1526 1.360 1_455 S
H1528 C1536 0.950 . S
H1529 C1541 0.950 . S
H1530 C1538 0.950 . S
H1531 C1540 0.950 . S
H1532 C1542 0.950 . S
H1533 C1544 0.950 . S
H1534 C1546 0.950 . S
H1535 C1547 0.950 . S
C1536 H1528 0.950 . S
C1536 C1537 1.386 . S
C1536 C1538 1.391 . S
C1537 C1536 1.386 . S
C1537 C1541 1.393 . S
C1538 H1530 0.950 . S
C1538 C1536 1.391 . S
C1538 C1539 1.400 . S
C1539 C1538 1.400 . S
C1539 C1540 1.398 . S
C1539 C1545 1.491 . S
C1540 H1531 0.950 . S
C1540 C1539 1.398 . S
C1540 C1541 1.391 . S
C1541 H1529 0.950 . S
C1541 C1537 1.393 . S
C1541 C1540 1.391 . S
C1542 H1532 0.950 . S
C1542 C1543 1.386 . S
C1542 C1544 1.391 . S
C1543 C1542 1.386 . S
C1543 C1547 1.393 . S
C1544 H1533 0.950 . S
C1544 C1542 1.391 . S
C1544 C1545 1.400 . S
C1545 C1539 1.491 . S
C1545 C1544 1.400 . S
C1545 C1546 1.398 . S
C1546 H1534 0.950 . S
C1546 C1545 1.398 . S
C1546 C1547 1.391 . S
C1547 H1535 0.950 . S
C1547 C1543 1.393 . S
C1547 C1546 1.391 . S
H1548 C1556 0.950 . S
H1549 C1561 0.950 . S
H1550 C1558 0.950 . S
H1551 C1560 0.950 . S
H1552 C1562 0.950 . S
H1553 C1564 0.950 . S
H1554 C1566 0.950 . S
H1555 C1567 0.950 . S
C1556 H1548 0.950 . S
C1556 C1557 1.386 . S
C1556 C1558 1.391 . S
C1557 C1556 1.386 . S
C1557 C1561 1.393 . S
C1558 H1550 0.950 . S
C1558 C1556 1.391 . S
C1558 C1559 1.400 . S
C1559 C1558 1.400 . S
C1559 C1560 1.398 . S
C1559 C1565 1.491 . S
C1560 H1551 0.950 . S
C1560 C1559 1.398 . S
C1560 C1561 1.391 . S
C1561 H1549 0.950 . S
C1561 C1557 1.393 . S
C1561 C1560 1.391 . S
C1562 H1552 0.950 . S
C1562 C1563 1.386 . S
C1562 C1564 1.391 . S
C1563 C1562 1.386 . S
C1563 C1567 1.393 . S
C1564 H1553 0.950 . S
C1564 C1562 1.391 . S
C1564 C1565 1.400 . S
C1565 C1559 1.491 . S
C1565 C1564 1.400 . S
C1565 C1566 1.398 . S
C1566 H1554 0.950 . S
C1566 C1565 1.398 . S
C1566 C1567 1.391 . S
C1567 H1555 0.950 . S
C1567 C1563 1.393 . S
C1567 C1566 1.391 . S
H1568 C1576 0.950 . S
H1569 C1581 0.950 . S
H1570 C1578 0.950 . S
H1571 C1580 0.950 . S
H1572 C1582 0.950 . S
H1573 C1584 0.950 . S
H1574 C1586 0.950 . S
H1575 C1587 0.950 . S
C1576 H1568 0.950 . S
C1576 C1577 1.386 . S
C1576 C1578 1.391 . S
C1577 C1576 1.386 . S
C1577 C1581 1.393 . S
C1578 H1570 0.950 . S
C1578 C1576 1.391 . S
C1578 C1579 1.400 . S
C1579 C1578 1.400 . S
C1579 C1580 1.398 . S
C1579 C1585 1.491 . S
C1580 H1571 0.950 . S
C1580 C1579 1.398 . S
C1580 C1581 1.391 . S
C1581 H1569 0.950 . S
C1581 C1577 1.393 . S
C1581 C1580 1.391 . S
C1582 H1572 0.950 . S
C1582 C1583 1.386 . S
C1582 C1584 1.391 . S
C1583 C1582 1.386 . S
C1583 C1587 1.393 . S
C1584 H1573 0.950 . S
C1584 C1582 1.391 . S
C1584 C1585 1.400 . S
C1585 C1579 1.491 . S
C1585 C1584 1.400 . S
C1585 C1586 1.398 . S
C1586 H1574 0.950 . S
C1586 C1585 1.398 . S
C1586 C1587 1.391 . S
C1587 H1575 0.950 . S
C1587 C1583 1.393 . S
C1587 C1586 1.391 . S
H1588 C1596 0.950 . S
H1589 C1601 0.950 . S
H1590 C1598 0.950 . S
H1591 C1600 0.950 . S
H1592 C1602 0.950 . S
H1593 C1604 0.950 . S
H1594 C1606 0.950 . S
H1595 C1607 0.950 . S
C1596 H1588 0.950 . S
C1596 C1597 1.386 . S
C1596 C1598 1.391 . S
C1597 C1596 1.386 . S
C1597 C1601 1.393 . S
C1598 H1590 0.950 . S
C1598 C1596 1.391 . S
C1598 C1599 1.400 . S
C1599 C1598 1.400 . S
C1599 C1600 1.398 . S
C1599 C1605 1.491 . S
C1600 H1591 0.950 . S
C1600 C1599 1.398 . S
C1600 C1601 1.391 . S
C1601 H1589 0.950 . S
C1601 C1597 1.393 . S
C1601 C1600 1.391 . S
C1602 H1592 0.950 . S
C1602 C1603 1.386 . S
C1602 C1604 1.391 . S
C1603 C1602 1.386 . S
C1603 C1607 1.393 . S
C1604 H1593 0.950 . S
C1604 C1602 1.391 . S
C1604 C1605 1.400 . S
C1605 C1599 1.491 . S
C1605 C1604 1.400 . S
C1605 C1606 1.398 . S
C1606 H1594 0.950 . S
C1606 C1605 1.398 . S
C1606 C1607 1.391 . S
C1607 H1595 0.950 . S
C1607 C1603 1.393 . S
C1607 C1606 1.391 . S
H1608 C1616 0.950 . S
H1609 C1621 0.950 . S
H1610 C1618 0.950 . S
H1611 C1620 0.950 . S
H1612 C1622 0.950 . S
H1613 C1624 0.950 . S
H1614 C1626 0.950 . S
H1615 C1627 0.950 . S
C1616 H1608 0.950 . S
C1616 C1617 1.386 . S
C1616 C1618 1.391 . S
C1617 C1616 1.386 . S
C1617 C1621 1.393 . S
C1618 H1610 0.950 . S
C1618 C1616 1.391 . S
C1618 C1619 1.400 . S
C1619 C1618 1.400 . S
C1619 C1620 1.398 . S
C1619 C1625 1.491 . S
C1620 H1611 0.950 . S
C1620 C1619 1.398 . S
C1620 C1621 1.391 . S
C1621 H1609 0.950 . S
C1621 C1617 1.393 . S
C1621 C1620 1.391 . S
C1622 H1612 0.950 . S
C1622 C1623 1.386 . S
C1622 C1624 1.391 . S
C1623 C1622 1.386 . S
C1623 C1627 1.393 . S
C1624 H1613 0.950 . S
C1624 C1622 1.391 . S
C1624 C1625 1.400 . S
C1625 C1619 1.491 . S
C1625 C1624 1.400 . S
C1625 C1626 1.398 . S
C1626 H1614 0.950 . S
C1626 C1625 1.398 . S
C1626 C1627 1.391 . S
C1627 H1615 0.950 . S
C1627 C1623 1.393 . S
C1627 C1626 1.391 . S
H1628 C1636 0.950 . S
H1629 C1641 0.950 . S
H1630 C1638 0.950 . S
H1631 C1640 0.950 . S
H1632 C1642 0.950 . S
H1633 C1644 0.950 . S
H1634 C1646 0.950 . S
H1635 C1647 0.950 . S
C1636 H1628 0.950 . S
C1636 C1637 1.386 . S
C1636 C1638 1.391 . S
C1637 C1636 1.386 . S
C1637 C1641 1.393 . S
C1638 H1630 0.950 . S
C1638 C1636 1.391 . S
C1638 C1639 1.400 . S
C1639 C1638 1.400 . S
C1639 C1640 1.398 . S
C1639 C1645 1.491 . S
C1640 H1631 0.950 . S
C1640 C1639 1.398 . S
C1640 C1641 1.391 . S
C1641 H1629 0.950 . S
C1641 C1637 1.393 . S
C1641 C1640 1.391 . S
C1642 H1632 0.950 . S
C1642 C1643 1.386 . S
C1642 C1644 1.391 . S
C1643 C1642 1.386 . S
C1643 C1647 1.393 . S
C1644 H1633 0.950 . S
C1644 C1642 1.391 . S
C1644 C1645 1.400 . S
C1645 C1639 1.491 . S
C1645 C1644 1.400 . S
C1645 C1646 1.398 . S
C1646 H1634 0.950 . S
C1646 C1645 1.398 . S
C1646 C1647 1.391 . S
C1647 H1635 0.950 . S
C1647 C1643 1.393 . S
C1647 C1646 1.391 . S
H1648 C1656 0.950 . S
H1649 C1661 0.950 . S
H1650 C1658 0.950 . S
H1651 C1660 0.950 . S
H1652 C1662 0.950 . S
H1653 C1664 0.950 . S
H1654 C1666 0.950 . S
H1655 C1667 0.950 . S
C1656 H1648 0.950 . S
C1656 C1657 1.386 . S
C1656 C1658 1.391 . S
C1657 C1656 1.386 . S
C1657 C1661 1.393 . S
C1658 H1650 0.950 . S
C1658 C1656 1.391 . S
C1658 C1659 1.400 . S
C1659 C1658 1.400 . S
C1659 C1660 1.398 . S
C1659 C1665 1.491 . S
C1660 H1651 0.950 . S
C1660 C1659 1.398 . S
C1660 C1661 1.391 . S
C1661 H1649 0.950 . S
C1661 C1657 1.393 . S
C1661 C1660 1.391 . S
C1662 H1652 0.950 . S
C1662 C1663 1.386 . S
C1662 C1664 1.391 . S
C1663 C1662 1.386 . S
C1663 C1667 1.393 . S
C1664 H1653 0.950 . S
C1664 C1662 1.391 . S
C1664 C1665 1.400 . S
C1665 C1659 1.491 . S
C1665 C1664 1.400 . S
C1665 C1666 1.398 . S
C1666 H1654 0.950 . S
C1666 C1665 1.398 . S
C1666 C1667 1.391 . S
C1667 H1655 0.950 . S
C1667 C1663 1.393 . S
C1667 C1666 1.391 . S
H1668 C1676 0.950 . S
H1669 C1681 0.950 . S
H1670 C1678 0.950 . S
H1671 C1680 0.950 . S
H1672 C1682 0.950 . S
H1673 C1684 0.950 . S
H1674 C1686 0.950 . S
H1675 C1687 0.950 . S
C1676 H1668 0.950 . S
C1676 C1677 1.386 . S
C1676 C1678 1.391 . S
C1677 C1676 1.386 . S
C1677 C1681 1.393 . S
C1678 H1670 0.950 . S
C1678 C1676 1.391 . S
C1678 C1679 1.400 . S
C1679 C1678 1.400 . S
C1679 C1680 1.398 . S
C1679 C1685 1.491 . S
C1680 H1671 0.950 . S
C1680 C1679 1.398 . S
C1680 C1681 1.391 . S
C1681 H1669 0.950 . S
C1681 C1677 1.393 . S
C1681 C1680 1.391 . S
C1682 H1672 0.950 . S
C1682 C1683 1.386 . S
C1682 C1684 1.391 . S
C1683 C1682 1.386 . S
C1683 C1687 1.393 . S
C1684 H1673 0.950 . S
C1684 C1682 1.391 . S
C1684 C1685 1.400 . S
C1685 C1679 1.491 . S
C1685 C1684 1.400 . S
C1685 C1686 1.398 . S
C1686 H1674 0.950 . S
C1686 C1685 1.398 . S
C1686 C1687 1.391 . S
C1687 H1675 0.950 . S
C1687 C1683 1.393 . S
C1687 C1686 1.391 . S
H1688 C1696 0.950 . S
H1689 C1701 0.950 . S
H1690 C1698 0.950 . S
H1691 C1700 0.950 . S
H1692 C1702 0.950 . S
H1693 C1704 0.950 . S
H1694 C1706 0.950 . S
H1695 C1707 0.950 . S
C1696 H1688 0.950 . S
C1696 C1697 1.386 . S
C1696 C1698 1.391 . S
C1697 C1696 1.386 . S
C1697 C1701 1.393 . S
C1698 H1690 0.950 . S
C1698 C1696 1.391 . S
C1698 C1699 1.400 . S
C1699 C1698 1.400 . S
C1699 C1700 1.398 . S
C1699 C1705 1.491 . S
C1700 H1691 0.950 . S
C1700 C1699 1.398 . S
C1700 C1701 1.391 . S
C1701 H1689 0.950 . S
C1701 C1697 1.393 . S
C1701 C1700 1.391 . S
C1702 H1692 0.950 . S
C1702 C1703 1.386 . S
C1702 C1704 1.391 . S
C1703 C1702 1.386 . S
C1703 C1707 1.393 . S
C1704 H1693 0.950 . S
C1704 C1702 1.391 . S
C1704 C1705 1.400 . S
C1705 C1699 1.491 . S
C1705 C1704 1.400 . S
C1705 C1706 1.398 . S
C1706 H1694 0.950 . S
C1706 C1705 1.398 . S
C1706 C1707 1.391 . S
C1707 H1695 0.950 . S
C1707 C1703 1.393 . S
C1707 C1706 1.391 . S
H1708 C1716 0.950 . S
H1709 C1721 0.950 . S
H1710 C1718 0.950 . S
H1711 C1720 0.950 . S
H1712 C1722 0.950 . S
H1713 C1724 0.950 . S
H1714 C1726 0.950 . S
H1715 C1727 0.950 . S
C1716 H1708 0.950 . S
C1716 C1717 1.386 . S
C1716 C1718 1.391 . S
C1717 C1716 1.386 . S
C1717 C1721 1.393 . S
C1718 H1710 0.950 . S
C1718 C1716 1.391 . S
C1718 C1719 1.400 . S
C1719 C1718 1.400 . S
C1719 C1720 1.398 . S
C1719 C1725 1.491 . S
C1720 H1711 0.950 . S
C1720 C1719 1.398 . S
C1720 C1721 1.391 . S
C1721 H1709 0.950 . S
C1721 C1717 1.393 . S
C1721 C1720 1.391 . S
C1722 H1712 0.950 . S
C1722 C1723 1.386 . S
C1722 C1724 1.391 . S
C1723 C1722 1.386 . S
C1723 C1727 1.393 . S
C1724 H1713 0.950 . S
C1724 C1722 1.391 . S
C1724 C1725 1.400 . S
C1725 C1719 1.491 . S
C1725 C1724 1.400 . S
C1725 C1726 1.398 . S
C1726 H1714 0.950 . S
C1726 C1725 1.398 . S
C1726 C1727 1.391 . S
C1727 H1715 0.950 . S
C1727 C1723 1.393 . S
C1727 C1726 1.391 . S
H1728 C1736 0.950 . S
H1729 C1741 0.950 . S
H1730 C1738 0.950 . S
H1731 C1740 0.950 . S
H1732 C1742 0.950 . S
H1733 C1744 0.950 . S
H1734 C1746 0.950 . S
H1735 C1747 0.950 . S
C1736 H1728 0.950 . S
C1736 C1737 1.386 . S
C1736 C1738 1.391 . S
C1737 C1736 1.386 . S
C1737 C1741 1.393 . S
C1738 H1730 0.950 . S
C1738 C1736 1.391 . S
C1738 C1739 1.400 . S
C1739 C1738 1.400 . S
C1739 C1740 1.398 . S
C1739 C1745 1.491 . S
C1740 H1731 0.950 . S
C1740 C1739 1.398 . S
C1740 C1741 1.391 . S
C1741 H1729 0.950 . S
C1741 C1737 1.393 . S
C1741 C1740 1.391 . S
C1742 H1732 0.950 . S
C1742 C1743 1.386 . S
C1742 C1744 1.391 . S
C1743 C1742 1.386 . S
C1743 C1747 1.393 . S
C1744 H1733 0.950 . S
C1744 C1742 1.391 . S
C1744 C1745 1.400 . S
C1745 C1739 1.491 . S
C1745 C1744 1.400 . S
C1745 C1746 1.398 . S
C1746 H1734 0.950 . S
C1746 C1745 1.398 . S
C1746 C1747 1.391 . S
C1747 H1735 0.950 . S
C1747 C1743 1.393 . S
C1747 C1746 1.391 . S
H1748 C1756 0.950 . S
H1749 C1761 0.950 . S
H1750 C1758 0.950 . S
H1751 C1760 0.950 . S
H1752 C1762 0.950 . S
H1753 C1764 0.950 . S
H1754 C1766 0.950 . S
H1755 C1767 0.950 . S
C1756 H1748 0.950 . S
C1756 C1757 1.386 . S
C1756 C1758 1.391 . S
C1757 C1756 1.386 . S
C1757 C1761 1.393 . S
C1758 H1750 0.950 . S
C1758 C1756 1.391 . S
C1758 C1759 1.400 . S
C1759 C1758 1.400 . S
C1759 C1760 1.398 . S
C1759 C1765 1.491 . S
C1760 H1751 0.950 . S
C1760 C1759 1.398 . S
C1760 C1761 1.391 . S
C1761 H1749 0.950 . S
C1761 C1757 1.393 . S
C1761 C1760 1.391 . S
C1762 H1752 0.950 . S
C1762 C1763 1.386 . S
C1762 C1764 1.391 . S
C1763 C1762 1.386 . S
C1763 C1767 1.393 . S
C1764 H1753 0.950 . S
C1764 C1762 1.391 . S
C1764 C1765 1.400 . S
C1765 C1759 1.491 . S
C1765 C1764 1.400 . S
C1765 C1766 1.398 . S
C1766 H1754 0.950 . S
C1766 C1765 1.398 . S
C1766 C1767 1.391 . S
C1767 H1755 0.950 . S
C1767 C1763 1.393 . S
C1767 C1766 1.391 . S
H1768 C1776 0.950 . S
H1769 C1781 0.950 . S
H1770 C1778 0.950 . S
H1771 C1780 0.950 . S
H1772 C1782 0.950 . S
H1773 C1784 0.950 . S
H1774 C1786 0.950 . S
H1775 C1787 0.950 . S
C1776 H1768 0.950 . S
C1776 C1777 1.386 . S
C1776 C1778 1.391 . S
C1777 C1776 1.386 . S
C1777 C1781 1.393 . S
C1778 H1770 0.950 . S
C1778 C1776 1.391 . S
C1778 C1779 1.400 . S
C1779 C1778 1.400 . S
C1779 C1780 1.398 . S
C1779 C1785 1.491 . S
C1780 H1771 0.950 . S
C1780 C1779 1.398 . S
C1780 C1781 1.391 . S
C1781 H1769 0.950 . S
C1781 C1777 1.393 . S
C1781 C1780 1.391 . S
C1782 H1772 0.950 . S
C1782 C1783 1.386 . S
C1782 C1784 1.391 . S
C1783 C1782 1.386 . S
C1783 C1787 1.393 . S
C1784 H1773 0.950 . S
C1784 C1782 1.391 . S
C1784 C1785 1.400 . S
C1785 C1779 1.491 . S
C1785 C1784 1.400 . S
C1785 C1786 1.398 . S
C1786 H1774 0.950 . S
C1786 C1785 1.398 . S
C1786 C1787 1.391 . S
C1787 H1775 0.950 . S
C1787 C1783 1.393 . S
C1787 C1786 1.391 . S
H1788 C1796 0.950 . S
H1789 C1801 0.950 . S
H1790 C1798 0.950 1_655 S
H1791 C1800 0.950 . S
H1792 C1802 0.950 . S
H1793 C1804 0.950 1_455 S
H1794 C1806 0.950 . S
H1795 C1807 0.950 . S
C1796 H1788 0.950 . S
C1796 C1797 1.386 . S
C1796 C1798 1.391 . S
C1797 C1796 1.386 . S
C1797 C1801 1.393 . S
C1798 H1790 0.950 1_455 S
C1798 C1796 1.391 . S
C1798 C1799 1.400 . S
C1799 C1798 1.400 . S
C1799 C1800 1.398 . S
C1799 C1805 1.491 1_455 S
C1800 H1791 0.950 . S
C1800 C1799 1.398 . S
C1800 C1801 1.391 . S
C1801 H1789 0.950 . S
C1801 C1797 1.393 . S
C1801 C1800 1.391 . S
C1802 H1792 0.950 . S
C1802 C1803 1.386 . S
C1802 C1804 1.391 . S
C1803 C1802 1.386 . S
C1803 C1807 1.393 . S
C1804 H1793 0.950 1_655 S
C1804 C1802 1.391 . S
C1804 C1805 1.400 . S
C1805 C1799 1.491 1_655 S
C1805 C1804 1.400 . S
C1805 C1806 1.398 . S
C1806 H1794 0.950 . S
C1806 C1805 1.398 . S
C1806 C1807 1.391 . S
C1807 H1795 0.950 . S
C1807 C1803 1.393 . S
C1807 C1806 1.391 . S
H1808 C1816 0.950 . S
H1809 C1821 0.950 . S
H1810 C1818 0.950 . S
H1811 C1820 0.950 . S
H1812 C1822 0.950 . S
H1813 C1824 0.950 . S
H1814 C1826 0.950 . S
H1815 C1827 0.950 . S
C1816 H1808 0.950 . S
C1816 C1817 1.386 . S
C1816 C1818 1.391 . S
C1817 C1816 1.386 . S
C1817 C1821 1.393 . S
C1818 H1810 0.950 . S
C1818 C1816 1.391 . S
C1818 C1819 1.400 . S
C1819 C1818 1.400 . S
C1819 C1820 1.398 . S
C1819 C1825 1.491 . S
C1820 H1811 0.950 . S
C1820 C1819 1.398 . S
C1820 C1821 1.391 . S
C1821 H1809 0.950 . S
C1821 C1817 1.393 . S
C1821 C1820 1.391 . S
C1822 H1812 0.950 . S
C1822 C1823 1.386 . S
C1822 C1824 1.391 . S
C1823 C1822 1.386 . S
C1823 C1827 1.393 . S
C1824 H1813 0.950 . S
C1824 C1822 1.391 . S
C1824 C1825 1.400 . S
C1825 C1819 1.491 . S
C1825 C1824 1.400 . S
C1825 C1826 1.398 . S
C1826 H1814 0.950 . S
C1826 C1825 1.398 . S
C1826 C1827 1.391 . S
C1827 H1815 0.950 . S
C1827 C1823 1.393 . S
C1827 C1826 1.391 . S
H1828 C1836 0.950 . S
H1829 C1841 0.950 . S
H1830 C1838 0.950 . S
H1831 C1840 0.950 . S
H1832 C1842 0.950 . S
H1833 C1844 0.950 . S
H1834 C1846 0.950 . S
H1835 C1847 0.950 . S
C1836 H1828 0.950 . S
C1836 C1837 1.386 . S
C1836 C1838 1.391 . S
C1837 C1836 1.386 . S
C1837 C1841 1.393 . S
C1838 H1830 0.950 . S
C1838 C1836 1.391 . S
C1838 C1839 1.400 . S
C1839 C1838 1.400 . S
C1839 C1840 1.398 . S
C1839 C1845 1.491 1_545 S
C1840 H1831 0.950 . S
C1840 C1839 1.398 . S
C1840 C1841 1.391 . S
C1841 H1829 0.950 . S
C1841 C1837 1.393 . S
C1841 C1840 1.391 . S
C1842 H1832 0.950 . S
C1842 C1843 1.386 . S
C1842 C1844 1.391 . S
C1843 C1842 1.386 . S
C1843 C1847 1.393 . S
C1844 H1833 0.950 . S
C1844 C1842 1.391 . S
C1844 C1845 1.400 . S
C1845 C1839 1.491 1_565 S
C1845 C1844 1.400 . S
C1845 C1846 1.398 . S
C1846 H1834 0.950 . S
C1846 C1845 1.398 . S
C1846 C1847 1.391 . S
C1847 H1835 0.950 . S
C1847 C1843 1.393 . S
C1847 C1846 1.391 . S
H1848 C1856 0.950 . S
H1849 C1861 0.950 1_554 S
H1850 C1858 0.950 . S
H1851 C1860 0.950 . S
H1852 C1862 0.950 . S
H1853 C1864 0.950 . S
H1854 C1866 0.950 . S
H1855 C1867 0.950 1_556 S
C1856 H1848 0.950 . S
C1856 C1857 1.386 . S
C1856 C1858 1.391 . S
C1857 C1856 1.386 . S
C1857 C1861 1.393 . S
C1858 H1850 0.950 . S
C1858 C1856 1.391 . S
C1858 C1859 1.400 . S
C1859 C1858 1.400 . S
C1859 C1860 1.398 1_556 S
C1859 C1865 1.491 1_546 S
C1860 H1851 0.950 . S
C1860 C1859 1.398 1_554 S
C1860 C1861 1.391 1_554 S
C1861 H1849 0.950 1_556 S
C1861 C1857 1.393 . S
C1861 C1860 1.391 1_556 S
C1862 H1852 0.950 . S
C1862 C1863 1.386 . S
C1862 C1864 1.391 . S
C1863 C1862 1.386 . S
C1863 C1867 1.393 . S
C1864 H1853 0.950 . S
C1864 C1862 1.391 . S
C1864 C1865 1.400 . S
C1865 C1859 1.491 1_564 S
C1865 C1864 1.400 . S
C1865 C1866 1.398 1_554 S
C1866 H1854 0.950 . S
C1866 C1865 1.398 1_556 S
C1866 C1867 1.391 1_556 S
C1867 H1855 0.950 1_554 S
C1867 C1863 1.393 . S
C1867 C1866 1.391 1_554 S
H1868 C1876 0.950 . S
H1869 C1881 0.950 . S
H1870 C1878 0.950 . S
H1871 C1880 0.953 . S
H1872 C1882 0.950 . S
H1873 C1884 0.950 . S
H1874 C1886 0.953 . S
H1875 C1887 0.950 . S
C1876 H1868 0.950 . S
C1876 C1877 1.386 . S
C1876 C1878 1.391 . S
C1877 C1876 1.386 . S
C1877 C1881 1.393 . S
C1878 H1870 0.950 . S
C1878 C1876 1.391 . S
C1878 C1879 1.400 . S
C1879 C1878 1.400 . S
C1879 C1880 1.396 1_455 S
C1879 C1885 1.491 1_454 S
C1880 H1871 0.953 . S
C1880 C1879 1.396 1_655 S
C1880 C1881 1.390 1_655 S
C1881 H1869 0.950 . S
C1881 C1877 1.393 . S
C1881 C1880 1.390 1_455 S
C1882 H1872 0.950 . S
C1882 C1883 1.386 . S
C1882 C1884 1.391 . S
C1883 C1882 1.386 . S
C1883 C1887 1.393 . S
C1884 H1873 0.950 . S
C1884 C1882 1.391 . S
C1884 C1885 1.400 . S
C1885 C1879 1.491 1_656 S
C1885 C1884 1.400 . S
C1885 C1886 1.396 1_655 S
C1886 H1874 0.953 . S
C1886 C1885 1.396 1_455 S
C1886 C1887 1.390 1_455 S
C1887 H1875 0.950 . S
C1887 C1883 1.393 . S
C1887 C1886 1.390 1_655 S
H1888 C1896 0.950 . S
H1889 C1901 0.950 . S
H1890 C1898 0.934 1_556 S
H1891 C1900 0.950 . S
H1892 C1902 0.950 . S
H1893 C1904 0.934 1_554 S
H1894 C1906 0.950 . S
H1895 C1907 0.950 . S
C1896 H1888 0.950 . S
C1896 C1897 1.386 . S
C1896 C1898 1.403 . S
C1897 C1896 1.386 . S
C1897 C1901 1.393 . S
C1898 H1890 0.934 1_554 S
C1898 C1896 1.403 . S
C1898 C1899 1.405 . S
C1899 C1898 1.405 . S
C1899 C1900 1.398 . S
C1899 C1905 1.491 1_554 S
C1900 H1891 0.950 . S
C1900 C1899 1.398 . S
C1900 C1901 1.391 . S
C1901 H1889 0.950 . S
C1901 C1897 1.393 . S
C1901 C1900 1.391 . S
C1902 H1892 0.950 . S
C1902 C1903 1.386 . S
C1902 C1904 1.403 . S
C1903 C1902 1.386 . S
C1903 C1907 1.393 . S
C1904 H1893 0.934 1_556 S
C1904 C1902 1.403 . S
C1904 C1905 1.405 . S
C1905 C1899 1.491 1_556 S
C1905 C1904 1.405 . S
C1905 C1906 1.398 . S
C1906 H1894 0.950 . S
C1906 C1905 1.398 . S
C1906 C1907 1.391 . S
C1907 H1895 0.950 . S
C1907 C1903 1.393 . S
C1907 C1906 1.391 . S
H1908 C1916 0.950 . S
H1909 C1921 0.950 . S
H1910 C1918 0.950 . S
H1911 C1920 0.950 . S
H1912 C1922 0.950 . S
H1913 C1924 0.950 . S
H1914 C1926 0.950 . S
H1915 C1927 0.950 . S
C1916 H1908 0.950 . S
C1916 C1917 1.386 . S
C1916 C1918 1.391 . S
C1917 C1916 1.386 . S
C1917 C1921 1.393 . S
C1918 H1910 0.950 . S
C1918 C1916 1.391 . S
C1918 C1919 1.400 . S
C1919 C1918 1.400 . S
C1919 C1920 1.398 . S
C1919 C1925 1.491 . S
C1920 H1911 0.950 . S
C1920 C1919 1.398 . S
C1920 C1921 1.391 . S
C1921 H1909 0.950 . S
C1921 C1917 1.393 . S
C1921 C1920 1.391 . S
C1922 H1912 0.950 . S
C1922 C1923 1.386 . S
C1922 C1924 1.391 . S
C1923 C1922 1.386 . S
C1923 C1927 1.393 . S
C1924 H1913 0.950 . S
C1924 C1922 1.391 . S
C1924 C1925 1.400 . S
C1925 C1919 1.491 . S
C1925 C1924 1.400 . S
C1925 C1926 1.398 . S
C1926 H1914 0.950 . S
C1926 C1925 1.398 . S
C1926 C1927 1.391 . S
C1927 H1915 0.950 . S
C1927 C1923 1.393 . S
C1927 C1926 1.391 . S
H1928 C1936 0.950 . S
H1929 C1941 0.950 . S
H1930 C1938 0.950 . S
H1931 C1940 0.950 . S
H1932 C1942 0.950 . S
H1933 C1944 0.950 . S
H1934 C1946 0.950 . S
H1935 C1947 0.950 . S
C1936 H1928 0.950 . S
C1936 C1937 1.386 . S
C1936 C1938 1.391 . S
C1937 C1936 1.386 . S
C1937 C1941 1.393 . S
C1938 H1930 0.950 . S
C1938 C1936 1.391 . S
C1938 C1939 1.400 . S
C1939 C1938 1.400 . S
C1939 C1940 1.398 . S
C1939 C1945 1.491 . S
C1940 H1931 0.950 . S
C1940 C1939 1.398 . S
C1940 C1941 1.391 . S
C1941 H1929 0.950 . S
C1941 C1937 1.393 . S
C1941 C1940 1.391 . S
C1942 H1932 0.950 . S
C1942 C1943 1.386 . S
C1942 C1944 1.391 . S
C1943 C1942 1.386 . S
C1943 C1947 1.393 . S
C1944 H1933 0.950 . S
C1944 C1942 1.391 . S
C1944 C1945 1.400 . S
C1945 C1939 1.491 . S
C1945 C1944 1.400 . S
C1945 C1946 1.398 . S
C1946 H1934 0.950 . S
C1946 C1945 1.398 . S
C1946 C1947 1.391 . S
C1947 H1935 0.950 . S
C1947 C1943 1.393 . S
C1947 C1946 1.391 . S
H1948 C1956 0.950 1_556 S
H1949 C1961 0.950 . S
H1950 C1958 0.950 . S
H1951 C1960 0.950 . S
H1952 C1962 0.950 . S
H1953 C1964 0.950 . S
H1954 C1966 0.950 . S
H1955 C1967 0.950 . S
C1956 H1948 0.950 1_554 S
C1956 C1957 1.386 . S
C1956 C1958 1.391 . S
C1957 C1956 1.386 . S
C1957 C1961 1.393 . S
C1958 H1950 0.950 . S
C1958 C1956 1.391 . S
C1958 C1959 1.400 . S
C1959 C1958 1.400 . S
C1959 C1960 1.398 . S
C1959 C1965 1.491 . S
C1960 H1951 0.950 . S
C1960 C1959 1.398 . S
C1960 C1961 1.391 . S
C1961 H1949 0.950 . S
C1961 C1957 1.393 . S
C1961 C1960 1.391 . S
C1962 H1952 0.950 . S
C1962 C1963 1.386 . S
C1962 C1964 1.391 . S
C1963 C1962 1.386 . S
C1963 C1967 1.393 . S
C1964 H1953 0.950 . S
C1964 C1962 1.391 . S
C1964 C1965 1.400 . S
C1965 C1959 1.491 . S
C1965 C1964 1.400 . S
C1965 C1966 1.398 . S
C1966 H1954 0.950 . S
C1966 C1965 1.398 . S
C1966 C1967 1.391 . S
C1967 H1955 0.950 . S
C1967 C1963 1.393 . S
C1967 C1966 1.391 . S
H1968 C1976 0.950 . S
H1969 C1981 0.950 . S
H1970 C1978 0.950 . S
H1971 C1980 0.950 . S
H1972 C1982 0.950 . S
H1973 C1984 0.950 . S
H1974 C1986 0.950 . S
H1975 C1987 0.950 . S
C1976 H1968 0.950 . S
C1976 C1977 1.386 . S
C1976 C1978 1.391 . S
C1977 C1976 1.386 . S
C1977 C1981 1.393 . S
C1978 H1970 0.950 . S
C1978 C1976 1.391 . S
C1978 C1979 1.400 . S
C1979 C1978 1.400 . S
C1979 C1980 1.398 . S
C1979 C1985 1.491 . S
C1980 H1971 0.950 . S
C1980 C1979 1.398 . S
C1980 C1981 1.391 . S
C1981 H1969 0.950 . S
C1981 C1977 1.393 . S
C1981 C1980 1.391 . S
C1982 H1972 0.950 . S
C1982 C1983 1.386 . S
C1982 C1984 1.391 . S
C1983 C1982 1.386 . S
C1983 C1987 1.393 . S
C1984 H1973 0.950 . S
C1984 C1982 1.391 . S
C1984 C1985 1.400 . S
C1985 C1979 1.491 . S
C1985 C1984 1.400 . S
C1985 C1986 1.398 . S
C1986 H1974 0.950 . S
C1986 C1985 1.398 . S
C1986 C1987 1.391 . S
C1987 H1975 0.950 . S
C1987 C1983 1.393 . S
C1987 C1986 1.391 . S
H1988 C1996 0.950 . S
H1989 C2001 0.950 . S
H1990 C1998 0.950 . S
H1991 C2000 0.950 . S
H1992 C2002 0.950 . S
H1993 C2004 0.950 . S
H1994 C2006 0.950 . S
H1995 C2007 0.950 . S
C1996 H1988 0.950 . S
C1996 C1997 1.386 . S
C1996 C1998 1.391 . S
C1997 C1996 1.386 . S
C1997 C2001 1.393 . S
C1998 H1990 0.950 . S
C1998 C1996 1.391 . S
C1998 C1999 1.400 . S
C1999 C1998 1.400 . S
C1999 C2000 1.398 . S
C1999 C2005 1.491 . S
C2000 H1991 0.950 . S
C2000 C1999 1.398 . S
C2000 C2001 1.391 . S
C2001 H1989 0.950 . S
C2001 C1997 1.393 . S
C2001 C2000 1.391 . S
C2002 H1992 0.950 . S
C2002 C2003 1.386 . S
C2002 C2004 1.391 . S
C2003 C2002 1.386 . S
C2003 C2007 1.393 . S
C2004 H1993 0.950 . S
C2004 C2002 1.391 . S
C2004 C2005 1.400 . S
C2005 C1999 1.491 . S
C2005 C2004 1.400 . S
C2005 C2006 1.398 . S
C2006 H1994 0.950 . S
C2006 C2005 1.398 . S
C2006 C2007 1.391 . S
C2007 H1995 0.950 . S
C2007 C2003 1.393 . S
C2007 C2006 1.391 . S
H2008 C2016 0.950 . S
H2009 C2021 0.950 . S
H2010 C2018 0.950 . S
H2011 C2020 0.950 . S
H2012 C2022 0.950 . S
H2013 C2024 0.950 . S
H2014 C2026 0.950 . S
H2015 C2027 0.950 . S
C2016 H2008 0.950 . S
C2016 C2017 1.386 . S
C2016 C2018 1.391 . S
C2017 C2016 1.386 . S
C2017 C2021 1.393 . S
C2018 H2010 0.950 . S
C2018 C2016 1.391 . S
C2018 C2019 1.400 . S
C2019 C2018 1.400 . S
C2019 C2020 1.398 . S
C2019 C2025 1.491 . S
C2020 H2011 0.950 . S
C2020 C2019 1.398 . S
C2020 C2021 1.391 . S
C2021 H2009 0.950 . S
C2021 C2017 1.393 . S
C2021 C2020 1.391 . S
C2022 H2012 0.950 . S
C2022 C2023 1.386 . S
C2022 C2024 1.391 . S
C2023 C2022 1.386 . S
C2023 C2027 1.393 . S
C2024 H2013 0.950 . S
C2024 C2022 1.391 . S
C2024 C2025 1.400 . S
C2025 C2019 1.491 . S
C2025 C2024 1.400 . S
C2025 C2026 1.398 . S
C2026 H2014 0.950 . S
C2026 C2025 1.398 . S
C2026 C2027 1.391 . S
C2027 H2015 0.950 . S
C2027 C2023 1.393 . S
C2027 C2026 1.391 . S
H2028 C2036 0.950 . S
H2029 C2041 0.950 . S
H2030 C2038 0.950 . S
H2031 C2040 0.950 . S
H2032 C2042 0.950 1_554 S
H2033 C2044 0.950 . S
H2034 C2046 0.950 . S
H2035 C2047 0.950 . S
C2036 H2028 0.950 . S
C2036 C2037 1.386 . S
C2036 C2038 1.391 . S
C2037 C2036 1.386 . S
C2037 C2041 1.393 . S
C2038 H2030 0.950 . S
C2038 C2036 1.391 . S
C2038 C2039 1.400 . S
C2039 C2038 1.400 . S
C2039 C2040 1.398 . S
C2039 C2045 1.491 . S
C2040 H2031 0.950 . S
C2040 C2039 1.398 . S
C2040 C2041 1.391 . S
C2041 H2029 0.950 . S
C2041 C2037 1.393 . S
C2041 C2040 1.391 . S
C2042 H2032 0.950 1_556 S
C2042 C2043 1.386 . S
C2042 C2044 1.391 . S
C2043 C2042 1.386 . S
C2043 C2047 1.393 . S
C2044 H2033 0.950 . S
C2044 C2042 1.391 . S
C2044 C2045 1.400 . S
C2045 C2039 1.491 . S
C2045 C2044 1.400 . S
C2045 C2046 1.398 . S
C2046 H2034 0.950 . S
C2046 C2045 1.398 . S
C2046 C2047 1.391 . S
C2047 H2035 0.950 . S
C2047 C2043 1.393 . S
C2047 C2046 1.391 . S
H2048 C2056 0.950 1_554 S
H2049 C2061 0.950 . S
H2050 C2058 0.950 . S
H2051 C2060 0.950 . S
H2052 C2062 0.950 . S
H2053 C2064 0.950 . S
H2054 C2066 0.950 . S
H2055 C2067 0.950 . S
C2056 H2048 0.950 1_556 S
C2056 C2057 1.386 . S
C2056 C2058 1.391 . S
C2057 C2056 1.386 . S
C2057 C2061 1.393 . S
C2058 H2050 0.950 . S
C2058 C2056 1.391 . S
C2058 C2059 1.400 . S
C2059 C2058 1.400 . S
C2059 C2060 1.398 . S
C2059 C2065 1.491 . S
C2060 H2051 0.950 . S
C2060 C2059 1.398 . S
C2060 C2061 1.391 . S
C2061 H2049 0.950 . S
C2061 C2057 1.393 . S
C2061 C2060 1.391 . S
C2062 H2052 0.950 . S
C2062 C2063 1.386 . S
C2062 C2064 1.391 . S
C2063 C2062 1.386 . S
C2063 C2067 1.393 . S
C2064 H2053 0.950 . S
C2064 C2062 1.391 . S
C2064 C2065 1.400 . S
C2065 C2059 1.491 . S
C2065 C2064 1.400 . S
C2065 C2066 1.398 . S
C2066 H2054 0.950 . S
C2066 C2065 1.398 . S
C2066 C2067 1.391 . S
C2067 H2055 0.950 . S
C2067 C2063 1.393 . S
C2067 C2066 1.391 . S
H2068 C2076 0.950 . S
H2069 C2081 0.950 . S
H2070 C2078 0.950 . S
H2071 C2080 0.950 . S
H2072 C2082 0.950 . S
H2073 C2084 0.950 . S
H2074 C2086 0.950 . S
H2075 C2087 0.950 1_554 S
C2076 H2068 0.950 . S
C2076 C2077 1.386 . S
C2076 C2078 1.391 . S
C2077 C2076 1.386 . S
C2077 C2081 1.393 . S
C2078 H2070 0.950 . S
C2078 C2076 1.391 . S
C2078 C2079 1.400 . S
C2079 C2078 1.400 . S
C2079 C2080 1.398 . S
C2079 C2085 1.491 . S
C2080 H2071 0.950 . S
C2080 C2079 1.398 . S
C2080 C2081 1.391 . S
C2081 H2069 0.950 . S
C2081 C2077 1.393 . S
C2081 C2080 1.391 . S
C2082 H2072 0.950 . S
C2082 C2083 1.386 . S
C2082 C2084 1.391 . S
C2083 C2082 1.386 . S
C2083 C2087 1.393 . S
C2084 H2073 0.950 . S
C2084 C2082 1.391 . S
C2084 C2085 1.400 . S
C2085 C2079 1.491 . S
C2085 C2084 1.400 . S
C2085 C2086 1.398 . S
C2086 H2074 0.950 . S
C2086 C2085 1.398 . S
C2086 C2087 1.391 . S
C2087 H2075 0.950 1_556 S
C2087 C2083 1.393 . S
C2087 C2086 1.391 . S
H2088 C2096 0.950 . S
H2089 C2101 0.950 . S
H2090 C2098 0.950 . S
H2091 C2100 0.950 . S
H2092 C2102 0.950 . S
H2093 C2104 0.950 . S
H2094 C2106 0.950 . S
H2095 C2107 0.950 . S
C2096 H2088 0.950 . S
C2096 C2097 1.386 . S
C2096 C2098 1.391 . S
C2097 C2096 1.386 . S
C2097 C2101 1.393 . S
C2098 H2090 0.950 . S
C2098 C2096 1.391 . S
C2098 C2099 1.400 . S
C2099 C2098 1.400 . S
C2099 C2100 1.398 . S
C2099 C2105 1.491 . S
C2100 H2091 0.950 . S
C2100 C2099 1.398 . S
C2100 C2101 1.391 . S
C2101 H2089 0.950 . S
C2101 C2097 1.393 . S
C2101 C2100 1.391 . S
C2102 H2092 0.950 . S
C2102 C2103 1.386 . S
C2102 C2104 1.391 . S
C2103 C2102 1.386 . S
C2103 C2107 1.393 . S
C2104 H2093 0.950 . S
C2104 C2102 1.391 . S
C2104 C2105 1.400 . S
C2105 C2099 1.491 . S
C2105 C2104 1.400 . S
C2105 C2106 1.398 . S
C2106 H2094 0.950 . S
C2106 C2105 1.398 . S
C2106 C2107 1.391 . S
C2107 H2095 0.950 . S
C2107 C2103 1.393 . S
C2107 C2106 1.391 . S
H2108 C2116 0.950 . S
H2109 C2121 0.950 . S
H2110 C2118 0.950 . S
H2111 C2120 0.950 . S
H2112 C2122 0.950 . S
H2113 C2124 0.950 . S
H2114 C2126 0.950 . S
H2115 C2127 0.950 . S
C2116 H2108 0.950 . S
C2116 C2117 1.386 . S
C2116 C2118 1.391 . S
C2117 C2116 1.386 . S
C2117 C2121 1.393 . S
C2118 H2110 0.950 . S
C2118 C2116 1.391 . S
C2118 C2119 1.400 . S
C2119 C2118 1.400 . S
C2119 C2120 1.398 . S
C2119 C2125 1.491 . S
C2120 H2111 0.950 . S
C2120 C2119 1.398 . S
C2120 C2121 1.391 . S
C2121 H2109 0.950 . S
C2121 C2117 1.393 . S
C2121 C2120 1.391 . S
C2122 H2112 0.950 . S
C2122 C2123 1.386 . S
C2122 C2124 1.391 . S
C2123 C2122 1.386 . S
C2123 C2127 1.393 . S
C2124 H2113 0.950 . S
C2124 C2122 1.391 . S
C2124 C2125 1.400 . S
C2125 C2119 1.491 . S
C2125 C2124 1.400 . S
C2125 C2126 1.398 . S
C2126 H2114 0.950 . S
C2126 C2125 1.398 . S
C2126 C2127 1.391 . S
C2127 H2115 0.950 . S
C2127 C2123 1.393 . S
C2127 C2126 1.391 . S
H2128 C2136 0.950 . S
H2129 C2141 0.950 . S
H2130 C2138 0.950 . S
H2131 C2140 0.950 . S
H2132 C2142 0.950 . S
H2133 C2144 0.950 . S
H2134 C2146 0.950 . S
H2135 C2147 0.950 . S
C2136 H2128 0.950 . S
C2136 C2137 1.386 . S
C2136 C2138 1.391 . S
C2137 C2136 1.386 . S
C2137 C2141 1.393 . S
C2138 H2130 0.950 . S
C2138 C2136 1.391 . S
C2138 C2139 1.400 . S
C2139 C2138 1.400 . S
C2139 C2140 1.398 . S
C2139 C2145 1.491 . S
C2140 H2131 0.950 . S
C2140 C2139 1.398 . S
C2140 C2141 1.391 . S
C2141 H2129 0.950 . S
C2141 C2137 1.393 . S
C2141 C2140 1.391 . S
C2142 H2132 0.950 . S
C2142 C2143 1.386 . S
C2142 C2144 1.391 . S
C2143 C2142 1.386 . S
C2143 C2147 1.393 . S
C2144 H2133 0.950 . S
C2144 C2142 1.391 . S
C2144 C2145 1.400 . S
C2145 C2139 1.491 . S
C2145 C2144 1.400 . S
C2145 C2146 1.398 . S
C2146 H2134 0.950 . S
C2146 C2145 1.398 . S
C2146 C2147 1.391 . S
C2147 H2135 0.950 . S
C2147 C2143 1.393 . S
C2147 C2146 1.391 . S
H2148 C2156 0.950 . S
H2149 C2161 0.950 . S
H2150 C2158 0.950 . S
H2151 C2160 0.950 . S
H2152 C2162 0.950 . S
H2153 C2164 0.950 . S
H2154 C2166 0.950 . S
H2155 C2167 0.950 . S
C2156 H2148 0.950 . S
C2156 C2157 1.386 . S
C2156 C2158 1.391 . S
C2157 C2156 1.386 . S
C2157 C2161 1.393 . S
C2158 H2150 0.950 . S
C2158 C2156 1.391 . S
C2158 C2159 1.400 . S
C2159 C2158 1.400 . S
C2159 C2160 1.398 . S
C2159 C2165 1.491 . S
C2160 H2151 0.950 . S
C2160 C2159 1.398 . S
C2160 C2161 1.391 . S
C2161 H2149 0.950 . S
C2161 C2157 1.393 . S
C2161 C2160 1.391 . S
C2162 H2152 0.950 . S
C2162 C2163 1.386 . S
C2162 C2164 1.391 . S
C2163 C2162 1.386 . S
C2163 C2167 1.393 . S
C2164 H2153 0.950 . S
C2164 C2162 1.391 . S
C2164 C2165 1.400 . S
C2165 C2159 1.491 . S
C2165 C2164 1.400 . S
C2165 C2166 1.398 . S
C2166 H2154 0.950 . S
C2166 C2165 1.398 . S
C2166 C2167 1.391 . S
C2167 H2155 0.950 . S
C2167 C2163 1.393 . S
C2167 C2166 1.391 . S
H2168 C2176 0.950 . S
H2169 C2181 0.950 . S
H2170 C2178 0.950 . S
H2171 C2180 0.950 . S
H2172 C2182 0.950 . S
H2173 C2184 0.950 . S
H2174 C2186 0.950 . S
H2175 C2187 0.950 . S
C2176 H2168 0.950 . S
C2176 C2177 1.386 . S
C2176 C2178 1.391 . S
C2177 C2176 1.386 . S
C2177 C2181 1.393 . S
C2178 H2170 0.950 . S
C2178 C2176 1.391 . S
C2178 C2179 1.400 . S
C2179 C2178 1.400 . S
C2179 C2180 1.398 . S
C2179 C2185 1.491 1_545 S
C2180 H2171 0.950 . S
C2180 C2179 1.398 . S
C2180 C2181 1.391 . S
C2181 H2169 0.950 . S
C2181 C2177 1.393 . S
C2181 C2180 1.391 . S
C2182 H2172 0.950 . S
C2182 C2183 1.386 . S
C2182 C2184 1.391 . S
C2183 C2182 1.386 . S
C2183 C2187 1.393 . S
C2184 H2173 0.950 . S
C2184 C2182 1.391 . S
C2184 C2185 1.400 . S
C2185 C2179 1.491 1_565 S
C2185 C2184 1.400 . S
C2185 C2186 1.398 . S
C2186 H2174 0.950 . S
C2186 C2185 1.398 . S
C2186 C2187 1.391 . S
C2187 H2175 0.950 . S
C2187 C2183 1.393 . S
C2187 C2186 1.391 . S
H2188 C2196 0.950 . S
H2189 C2201 0.950 . S
H2190 C2198 0.950 . S
H2191 C2200 0.937 1_455 S
H2192 C2202 0.950 . S
H2193 C2204 0.950 . S
H2194 C2206 0.937 1_655 S
H2195 C2207 0.950 . S
C2196 H2188 0.950 . S
C2196 C2197 1.386 . S
C2196 C2198 1.391 . S
C2197 C2196 1.386 . S
C2197 C2201 1.393 . S
C2198 H2190 0.950 . S
C2198 C2196 1.391 . S
C2198 C2199 1.400 . S
C2199 C2198 1.400 . S
C2199 C2200 1.398 . S
C2199 C2205 1.491 1_655 S
C2200 H2191 0.937 1_655 S
C2200 C2199 1.398 . S
C2200 C2201 1.391 . S
C2201 H2189 0.950 . S
C2201 C2197 1.393 . S
C2201 C2200 1.391 . S
C2202 H2192 0.950 . S
C2202 C2203 1.386 . S
C2202 C2204 1.391 . S
C2203 C2202 1.386 . S
C2203 C2207 1.393 . S
C2204 H2193 0.950 . S
C2204 C2202 1.391 . S
C2204 C2205 1.400 . S
C2205 C2199 1.491 1_455 S
C2205 C2204 1.400 . S
C2205 C2206 1.398 . S
C2206 H2194 0.937 1_455 S
C2206 C2205 1.398 . S
C2206 C2207 1.391 . S
C2207 H2195 0.950 . S
C2207 C2203 1.393 . S
C2207 C2206 1.391 . S
H2208 C2216 0.950 . S
H2209 C2221 0.950 . S
H2210 C2218 0.950 . S
H2211 C2220 0.950 . S
H2212 C2222 0.950 . S
H2213 C2224 0.950 . S
H2214 C2226 0.950 . S
H2215 C2227 0.950 . S
C2216 H2208 0.950 . S
C2216 C2217 1.386 . S
C2216 C2218 1.391 . S
C2217 C2216 1.386 . S
C2217 C2221 1.393 . S
C2218 H2210 0.950 . S
C2218 C2216 1.391 . S
C2218 C2219 1.400 . S
C2219 C2218 1.400 . S
C2219 C2220 1.398 . S
C2219 C2225 1.491 . S
C2220 H2211 0.950 . S
C2220 C2219 1.398 . S
C2220 C2221 1.391 . S
C2221 H2209 0.950 . S
C2221 C2217 1.393 . S
C2221 C2220 1.391 . S
C2222 H2212 0.950 . S
C2222 C2223 1.386 . S
C2222 C2224 1.391 . S
C2223 C2222 1.386 . S
C2223 C2227 1.393 . S
C2224 H2213 0.950 . S
C2224 C2222 1.391 . S
C2224 C2225 1.400 . S
C2225 C2219 1.491 . S
C2225 C2224 1.400 . S
C2225 C2226 1.398 . S
C2226 H2214 0.950 . S
C2226 C2225 1.398 . S
C2226 C2227 1.391 . S
C2227 H2215 0.950 . S
C2227 C2223 1.393 . S
C2227 C2226 1.391 . S
H2228 C2236 0.950 . S
H2229 C2241 0.950 . S
H2230 C2238 0.950 . S
H2231 C2240 0.950 1_565 S
H2232 C2242 0.950 . S
H2233 C2244 0.950 . S
H2234 C2246 0.950 1_545 S
H2235 C2247 0.950 . S
C2236 H2228 0.950 . S
C2236 C2237 1.386 . S
C2236 C2238 1.391 . S
C2237 C2236 1.386 . S
C2237 C2241 1.393 . S
C2238 H2230 0.950 . S
C2238 C2236 1.391 . S
C2238 C2239 1.400 . S
C2239 C2238 1.400 . S
C2239 C2240 1.398 . S
C2239 C2245 1.491 1_545 S
C2240 H2231 0.950 1_545 S
C2240 C2239 1.398 . S
C2240 C2241 1.391 . S
C2241 H2229 0.950 . S
C2241 C2237 1.393 . S
C2241 C2240 1.391 . S
C2242 H2232 0.950 . S
C2242 C2243 1.386 . S
C2242 C2244 1.391 . S
C2243 C2242 1.386 . S
C2243 C2247 1.393 . S
C2244 H2233 0.950 . S
C2244 C2242 1.391 . S
C2244 C2245 1.400 . S
C2245 C2239 1.491 1_565 S
C2245 C2244 1.400 . S
C2245 C2246 1.398 . S
C2246 H2234 0.950 1_565 S
C2246 C2245 1.398 . S
C2246 C2247 1.391 . S
C2247 H2235 0.950 . S
C2247 C2243 1.393 . S
C2247 C2246 1.391 . S
H2248 C2256 0.950 . S
H2249 C2261 0.950 . S
H2250 C2258 0.950 . S
H2251 C2260 0.950 1_655 S
H2252 C2262 0.950 . S
H2253 C2264 0.950 . S
H2254 C2266 0.950 1_455 S
H2255 C2267 0.950 . S
C2256 H2248 0.950 . S
C2256 C2257 1.386 . S
C2256 C2258 1.391 . S
C2257 C2256 1.386 . S
C2257 C2261 1.393 . S
C2258 H2250 0.950 . S
C2258 C2256 1.391 . S
C2258 C2259 1.400 . S
C2259 C2258 1.400 . S
C2259 C2260 1.398 . S
C2259 C2265 1.491 1_455 S
C2260 H2251 0.950 1_455 S
C2260 C2259 1.398 . S
C2260 C2261 1.391 . S
C2261 H2249 0.950 . S
C2261 C2257 1.393 . S
C2261 C2260 1.391 . S
C2262 H2252 0.950 . S
C2262 C2263 1.386 . S
C2262 C2264 1.391 . S
C2263 C2262 1.386 . S
C2263 C2267 1.393 . S
C2264 H2253 0.950 . S
C2264 C2262 1.391 . S
C2264 C2265 1.400 . S
C2265 C2259 1.491 1_655 S
C2265 C2264 1.400 . S
C2265 C2266 1.398 . S
C2266 H2254 0.950 1_655 S
C2266 C2265 1.398 . S
C2266 C2267 1.391 . S
C2267 H2255 0.950 . S
C2267 C2263 1.393 . S
C2267 C2266 1.391 . S
C837 N117 1.466 . S
C843 N2 1.433 . S
C857 N71 1.433 . S
C863 N25 1.466 . S
C877 N48 1.431 . S
C883 N94 1.469 . S
C897 N140 1.453 . S
C903 N255 1.448 . S
C917 N163 1.431 . S
C923 N209 1.469 . S
C937 N232 1.432 . S
C943 N186 1.468 . S
C957 N278 1.457 . S
C963 N393 1.441 . S
C977 N301 1.446 . S
C983 N347 1.452 . S
C997 N370 1.432 . S
C1003 N324 1.469 . S
C1017 N531 1.431 . S
C1023 N416 1.469 . S
C1037 N485 1.453 . S
C1043 N439 1.448 . S
C1057 N462 1.460 . S
C1063 N508 1.439 . S
C1077 N669 1.466 . S
C1083 N554 1.433 . S
C1097 N623 1.467 . S
C1103 N577 1.433 . S
C1117 N600 1.431 . S
C1123 N646 1.469 . S
C1137 N807 1.431 . S
C1143 N692 1.469 . S
C1157 N761 1.447 . S
C1163 N715 1.454 . S
C1177 N784 1.450 . S
C1183 N738 1.451 . S
C1197 C375 1.522 . S
C1203 C7 1.532 . S
C1217 C398 1.540 . S
C1223 C30 1.519 . S
C1237 C352 1.538 . S
C1243 C53 1.519 . S
C1257 C76 1.526 . S
C1263 C605 1.527 1_554 S
C1277 C99 1.527 . S
C1283 C559 1.526 1_554 S
C1297 C122 1.541 . S
C1303 C582 1.520 1_554 S
C1317 C145 1.531 . S
C1323 C789 1.536 . S
C1337 C812 1.538 . S
C1343 C168 1.530 . S
C1357 C766 1.533 . S
C1363 C191 1.521 . S
C1377 C467 1.521 1_556 S
C1383 C214 1.541 . S
C1397 C421 1.533 1_556 S
C1403 C237 1.521 . S
C1417 C260 1.519 . S
C1423 C444 1.539 1_556 S
C1437 C283 1.523 . S
C1443 C651 1.541 . S
C1457 C674 1.538 . S
C1463 C306 1.530 . S
C1477 C628 1.521 . S
C1483 C329 1.541 . S
C1497 C490 1.528 . S
C1503 C743 1.525 . S
C1517 C697 1.519 . S
C1523 C513 1.536 . S
C1537 C536 1.532 . S
C1543 C720 1.522 . S
C1557 N426 2.622 . S
C1563 N12 2.622 . S
C1577 N449 2.616 . S
C1583 N35 2.616 . S
C1597 N58 2.609 . S
C1603 N472 2.609 . S
C1617 N81 2.627 . S
C1623 N771 2.627 . S
C1637 N794 2.614 . S
C1643 N104 2.614 . S
C1657 N817 2.610 . S
C1663 N127 2.610 . S
C1677 N150 2.616 . S
C1683 N564 2.616 . S
C1697 N173 2.611 . S
C1703 N587 2.611 . S
C1717 N610 2.609 . S
C1723 N196 2.609 . S
C1737 N219 2.612 . S
C1743 N357 2.612 . S
C1757 N242 2.625 . S
C1763 N380 2.625 . S
C1777 N403 2.626 . S
C1783 N265 2.626 . S
C1797 N288 2.627 . S
C1803 N702 2.627 . S
C1817 N311 2.607 . S
C1823 N725 2.607 . S
C1837 N748 2.620 . S
C1843 N334 2.620 . S
C1857 N633 2.618 . S
C1863 N495 2.618 . S
C1877 N518 2.624 . S
C1883 N656 2.624 . S
C1897 N541 2.615 . S
C1903 N679 2.615 . S
C1917 C637 1.906 1_554 S
C1923 C16 1.906 . S
C1937 C39 1.905 . S
C1943 C660 1.905 1_554 S
C1957 C683 1.904 1_554 S
C1963 C62 1.902 . S
C1977 C85 1.895 . S
C1983 C292 1.895 . S
C1997 C315 1.895 . S
C2003 C108 1.895 . S
C2017 C338 1.899 . S
C2023 C131 1.897 . S
C2037 C154 1.896 . S
C2043 C499 1.898 1_556 S
C2057 C522 1.900 1_556 S
C2063 C177 1.902 . S
C2077 C200 1.899 . S
C2083 C545 1.897 1_556 S
C2097 C223 1.898 . S
C2103 C706 1.900 . S
C2117 C246 1.901 . S
C2123 C729 1.903 . S
C2137 C752 1.905 . S
C2143 C269 1.905 . S
C2157 C361 1.895 . S
C2163 C568 1.895 . S
C2177 C384 1.904 . S
C2183 C591 1.905 . S
C2197 C407 1.903 . S
C2203 C614 1.905 . S
C2217 C430 1.901 . S
C2223 C775 1.903 . S
C2237 C453 1.896 . S
C2243 C798 1.895 . S
C2257 C821 1.900 . S
C2263 C476 1.898 . S
