# Generated by pormake.
# Topology cag, (4)-cn, num edge types: 1
# Building blocks:
#     Node 0, Type 0, BuildingBlock: KUFVIS_clean_sbu_0, # of connection points: 4
#     Node 1, Type 0, BuildingBlock: KUFVIS_clean_sbu_0, # of connection points: 4
#     Node 2, Type 0, BuildingBlock: KUFVIS_clean_sbu_0, # of connection points: 4
#     Node 3, Type 0, BuildingBlock: KUFVIS_clean_sbu_0, # of connection points: 4
#     Node 4, Type 0, BuildingBlock: KUFVIS_clean_sbu_0, # of connection points: 4
#     Node 5, Type 0, BuildingBlock: KUFVIS_clean_sbu_0, # of connection points: 4
#     Node 6, Type 0, BuildingBlock: KUFVIS_clean_sbu_0, # of connection points: 4
#     Node 7, Type 0, BuildingBlock: KUFVIS_clean_sbu_0, # of connection points: 4
#     Node 8, Type 0, BuildingBlock: KUFVIS_clean_sbu_0, # of connection points: 4
#     Node 9, Type 0, BuildingBlock: KUFVIS_clean_sbu_0, # of connection points: 4
#     Node 10, Type 0, BuildingBlock: KUFVIS_clean_sbu_0, # of connection points: 4
#     Node 11, Type 0, BuildingBlock: KUFVIS_clean_sbu_0, # of connection points: 4
#     Node 12, Type 0, BuildingBlock: KUFVIS_clean_sbu_0, # of connection points: 4
#     Node 13, Type 0, BuildingBlock: KUFVIS_clean_sbu_0, # of connection points: 4
#     Node 14, Type 0, BuildingBlock: KUFVIS_clean_sbu_0, # of connection points: 4
#     Node 15, Type 0, BuildingBlock: KUFVIS_clean_sbu_0, # of connection points: 4
#     Edge 16, Type (0, 0), BuildingBlock: OJICUG_clean_linker_0, # of connection points: 2
#     Edge 17, Type (0, 0), BuildingBlock: OJICUG_clean_linker_0, # of connection points: 2
#     Edge 18, Type (0, 0), BuildingBlock: OJICUG_clean_linker_0, # of connection points: 2
#     Edge 19, Type (0, 0), BuildingBlock: OJICUG_clean_linker_0, # of connection points: 2
#     Edge 20, Type (0, 0), BuildingBlock: OJICUG_clean_linker_0, # of connection points: 2
#     Edge 21, Type (0, 0), BuildingBlock: OJICUG_clean_linker_0, # of connection points: 2
#     Edge 22, Type (0, 0), BuildingBlock: OJICUG_clean_linker_0, # of connection points: 2
#     Edge 23, Type (0, 0), BuildingBlock: OJICUG_clean_linker_0, # of connection points: 2
#     Edge 24, Type (0, 0), BuildingBlock: OJICUG_clean_linker_0, # of connection points: 2
#     Edge 25, Type (0, 0), BuildingBlock: OJICUG_clean_linker_0, # of connection points: 2
#     Edge 26, Type (0, 0), BuildingBlock: OJICUG_clean_linker_0, # of connection points: 2
#     Edge 27, Type (0, 0), BuildingBlock: OJICUG_clean_linker_0, # of connection points: 2
#     Edge 28, Type (0, 0), BuildingBlock: OJICUG_clean_linker_0, # of connection points: 2
#     Edge 29, Type (0, 0), BuildingBlock: OJICUG_clean_linker_0, # of connection points: 2
#     Edge 30, Type (0, 0), BuildingBlock: OJICUG_clean_linker_0, # of connection points: 2
#     Edge 31, Type (0, 0), BuildingBlock: OJICUG_clean_linker_0, # of connection points: 2
#     Edge 32, Type (0, 0), BuildingBlock: OJICUG_clean_linker_0, # of connection points: 2
#     Edge 33, Type (0, 0), BuildingBlock: OJICUG_clean_linker_0, # of connection points: 2
#     Edge 34, Type (0, 0), BuildingBlock: OJICUG_clean_linker_0, # of connection points: 2
#     Edge 35, Type (0, 0), BuildingBlock: OJICUG_clean_linker_0, # of connection points: 2
#     Edge 36, Type (0, 0), BuildingBlock: OJICUG_clean_linker_0, # of connection points: 2
#     Edge 37, Type (0, 0), BuildingBlock: OJICUG_clean_linker_0, # of connection points: 2
#     Edge 38, Type (0, 0), BuildingBlock: OJICUG_clean_linker_0, # of connection points: 2
#     Edge 39, Type (0, 0), BuildingBlock: OJICUG_clean_linker_0, # of connection points: 2
#     Edge 40, Type (0, 0), BuildingBlock: OJICUG_clean_linker_0, # of connection points: 2
#     Edge 41, Type (0, 0), BuildingBlock: OJICUG_clean_linker_0, # of connection points: 2
#     Edge 42, Type (0, 0), BuildingBlock: OJICUG_clean_linker_0, # of connection points: 2
#     Edge 43, Type (0, 0), BuildingBlock: OJICUG_clean_linker_0, # of connection points: 2
#     Edge 44, Type (0, 0), BuildingBlock: OJICUG_clean_linker_0, # of connection points: 2
#     Edge 45, Type (0, 0), BuildingBlock: OJICUG_clean_linker_0, # of connection points: 2
#     Edge 46, Type (0, 0), BuildingBlock: OJICUG_clean_linker_0, # of connection points: 2
#     Edge 47, Type (0, 0), BuildingBlock: OJICUG_clean_linker_0, # of connection points: 2
# Relax obj value: 0.085
# Max RMSD: 0.121
# Mean RMSD: 0.117
data_MOF--net-cag--node1-KUFVIS_clean_sbu_0--edge1-OJICUG_clean_linker_0
_symmetry_space_group_name_H-M    P1
_symmetry_Int_Tables_number       1
_symmetry_cell_setting            triclinic
loop_
_symmetry_equiv_pos_as_xyz
'x, y, z'
_cell_length_a     31.261846
_cell_length_b     35.464614
_cell_length_c     29.652367
_cell_angle_alpha  90.038089
_cell_angle_beta   90.003752
_cell_angle_gamma 89.995476
loop_
_atom_site_label
_atom_site_type_symbol
_atom_site_fract_x
_atom_site_fract_y
_atom_site_fract_z
_atom_type_partial_charge
Mn0 Mn 0.32834 0.15772 0.10745 0.0
Mn1 Mn 0.35912 0.23842 0.15737 0.0
C2 C 0.39945 0.17731 0.10383 0.0
C3 C 0.31828 0.09429 0.08554 0.0
C4 C 0.30437 0.23682 0.07487 0.0
O5 O 0.28604 0.16086 0.16115 0.0
O6 O 0.30614 0.21896 0.18627 0.0
C7 C 0.37054 0.23127 0.25633 0.0
N8 N 0.38851 0.23815 0.21524 0.0
C9 C 0.44713 0.27728 0.2595 0.0
C10 C 0.42486 0.26821 0.29858 0.0
C11 C 0.38812 0.24541 0.29684 0.0
C12 C 0.42388 0.25955 0.21207 0.0
H13 H 0.34124 0.21541 0.2587 0.0
C14 C 0.28314 0.18886 0.18894 0.0
O15 O 0.29405 0.12119 0.07199 0.0
O16 O 0.34572 0.10289 0.117 0.0
N17 N 0.4105 0.25566 0.12914 0.0
C18 C 0.41738 0.26199 0.08447 0.0
C19 C 0.45725 0.27358 0.06815 0.0
C20 C 0.49204 0.2813 0.09631 0.0
C21 C 0.48754 0.28097 0.14473 0.0
C22 C 0.44061 0.26192 0.15972 0.0
H23 H 0.39261 0.25623 0.06008 0.0
O24 O 0.38107 0.16135 0.06937 0.0
O25 O 0.37468 0.18606 0.13776 0.0
O26 O 0.29945 0.20159 0.07432 0.0
O27 O 0.32797 0.25244 0.10343 0.0
C28 C 0.52644 0.30835 0.21701 0.0
C29 C 0.49524 0.30005 0.26375 0.0
H30 H 0.43673 0.27764 0.33097 0.0
H31 H 0.37207 0.23879 0.3282 0.0
H32 H 0.46145 0.27621 0.03204 0.0
H33 H 0.52075 0.28931 0.07851 0.0
H34 H 0.55662 0.32349 0.22158 0.0
H35 H 0.50657 0.3091 0.29647 0.0
Mn36 Mn 0.14368 0.90445 0.60798 0.0
Mn37 Mn 0.11242 0.82391 0.65781 0.0
C38 C 0.0725 0.88508 0.60414 0.0
C39 C 0.15395 0.96781 0.58597 0.0
C40 C 0.16744 0.82523 0.5755 0.0
O41 O 0.18585 0.90123 0.66181 0.0
O42 O 0.16545 0.8432 0.68682 0.0
C43 C 0.10082 0.83134 0.75673 0.0
N44 N 0.0829 0.82444 0.7156 0.0
C45 C 0.02395 0.78569 0.7598 0.0
C46 C 0.04618 0.79478 0.79891 0.0
C47 C 0.08305 0.8174 0.79723 0.0
C48 C 0.04739 0.80322 0.71239 0.0
H49 H 0.13023 0.84706 0.75914 0.0
C50 C 0.18861 0.8732 0.68954 0.0
O51 O 0.17818 0.94083 0.57258 0.0
O52 O 0.12644 0.95934 0.61739 0.0
N53 N 0.06099 0.80683 0.62949 0.0
C54 C 0.05419 0.80041 0.58481 0.0
C55 C 0.0143 0.78892 0.56841 0.0
C56 C 0.97942 0.78138 0.59648 0.0
C57 C 0.98381 0.78181 0.64492 0.0
C58 C 0.03077 0.80076 0.65999 0.0
H59 H 0.07904 0.80602 0.56048 0.0
O60 O 0.09104 0.90091 0.56973 0.0
O61 O 0.09715 0.8763 0.63815 0.0
O62 O 0.1725 0.86045 0.575 0.0
O63 O 0.14363 0.80969 0.60393 0.0
C64 C 0.94463 0.75474 0.71714 0.0
C65 C 0.97574 0.76308 0.76395 0.0
H66 H 0.03419 0.78548 0.83129 0.0
H67 H 0.09907 0.82403 0.82862 0.0
H68 H 0.01017 0.78621 0.53229 0.0
H69 H 0.95072 0.7734 0.57862 0.0
H70 H 0.91437 0.73971 0.72167 0.0
H71 H 0.9643 0.75415 0.79667 0.0
Mn72 Mn 0.32852 0.90443 0.93993 0.0
Mn73 Mn 0.35971 0.82392 0.88987 0.0
C74 C 0.39972 0.88512 0.94356 0.0
C75 C 0.31823 0.9678 0.96194 0.0
C76 C 0.30492 0.82519 0.97234 0.0
O77 O 0.28621 0.90118 0.88622 0.0
O78 O 0.30661 0.84318 0.86102 0.0
C79 C 0.37109 0.83133 0.79093 0.0
N80 N 0.3891 0.82445 0.83201 0.0
C81 C 0.44805 0.78581 0.78763 0.0
C82 C 0.42573 0.79487 0.74857 0.0
C83 C 0.38881 0.81742 0.75038 0.0
C84 C 0.42465 0.80327 0.83511 0.0
H85 H 0.34164 0.847 0.78861 0.0
C86 C 0.28342 0.87318 0.85843 0.0
O87 O 0.29408 0.94082 0.97544 0.0
O88 O 0.34568 0.95931 0.93045 0.0
N89 N 0.4112 0.80686 0.91805 0.0
C90 C 0.4181 0.80045 0.96271 0.0
C91 C 0.45804 0.78901 0.97901 0.0
C92 C 0.49289 0.78154 0.95085 0.0
C93 C 0.48841 0.78199 0.90242 0.0
C94 C 0.44136 0.80083 0.88747 0.0
H95 H 0.39329 0.80602 0.98711 0.0
O96 O 0.38124 0.90095 0.97803 0.0
O97 O 0.37501 0.8763 0.90959 0.0
O98 O 0.29983 0.86041 0.97295 0.0
O99 O 0.32863 0.80969 0.94378 0.0
C100 C 0.52755 0.75504 0.83006 0.0
C101 C 0.49633 0.76332 0.78333 0.0
H102 H 0.43769 0.7856 0.71615 0.0
H103 H 0.37272 0.82403 0.71903 0.0
H104 H 0.46224 0.7863 1.01511 0.0
H105 H 0.52165 0.77362 0.96863 0.0
H106 H 0.55785 0.74008 0.82544 0.0
H107 H 0.50775 0.75443 0.75057 0.0
Mn108 Mn 0.14367 0.15709 0.43955 0.0
Mn109 Mn 0.11247 0.23757 0.38953 0.0
C110 C 0.0725 0.17655 0.44332 0.0
C111 C 0.15391 0.09376 0.46172 0.0
C112 C 0.16751 0.23636 0.47181 0.0
O113 O 0.18588 0.16019 0.38571 0.0
O114 O 0.16549 0.21821 0.36065 0.0
C115 C 0.10094 0.22988 0.29063 0.0
N116 N 0.08301 0.23694 0.33171 0.0
C117 C 0.02433 0.27586 0.28732 0.0
C118 C 0.04655 0.26659 0.24826 0.0
C119 C 0.08329 0.2438 0.25006 0.0
C120 C 0.04759 0.2583 0.3348 0.0
H121 H 0.13027 0.21403 0.28831 0.0
C122 C 0.18867 0.18822 0.35798 0.0
O123 O 0.17815 0.12075 0.47505 0.0
O124 O 0.1264 0.1022 0.43027 0.0
N125 N 0.06107 0.25478 0.41774 0.0
C126 C 0.05427 0.26132 0.4624 0.0
C127 C 0.01443 0.27304 0.47871 0.0
C128 C 0.97965 0.28073 0.45057 0.0
C129 C 0.9841 0.2802 0.40213 0.0
C130 C 0.03093 0.26095 0.38717 0.0
H131 H 0.07906 0.25564 0.48677 0.0
O132 O 0.09101 0.16075 0.47777 0.0
O133 O 0.09716 0.18524 0.40931 0.0
O134 O 0.17257 0.20114 0.47239 0.0
O135 O 0.14366 0.25185 0.44338 0.0
C136 C 0.94518 0.30735 0.32979 0.0
C137 C 0.97629 0.29874 0.28303 0.0
H138 H 0.03465 0.27588 0.21584 0.0
H139 H 0.09931 0.23703 0.21872 0.0
H140 H 0.01028 0.27582 0.51482 0.0
H141 H 0.95099 0.2889 0.46837 0.0
H142 H 0.91504 0.32255 0.32518 0.0
H143 H 0.96494 0.30767 0.25028 0.0
Mn144 Mn 0.65507 0.90545 0.94528 0.0
Mn145 Mn 0.629 0.82628 0.89025 0.0
C146 C 0.585 0.89568 0.92269 0.0
C147 C 0.66358 0.9542 0.99735 0.0
C148 C 0.68231 0.88711 0.84993 0.0
O149 O 0.69904 0.8683 0.97004 0.0
O150 O 0.6821 0.81734 0.92673 0.0
C151 C 0.61773 0.7602 0.95052 0.0
N152 N 0.6 0.78501 0.92083 0.0
C153 C 0.54185 0.73242 0.90515 0.0
C154 C 0.56409 0.71005 0.93567 0.0
C155 C 0.60047 0.72393 0.95807 0.0
C156 C 0.56496 0.77537 0.89721 0.0
H157 H 0.64645 0.76766 0.96848 0.0
C158 C 0.70457 0.83383 0.95756 0.0
O159 O 0.6879 0.95011 0.96292 0.0
O160 O 0.6365 0.92709 1.00558 0.0
N161 N 0.57797 0.83598 0.8566 0.0
C162 C 0.57083 0.86416 0.82639 0.0
C163 C 0.53105 0.86902 0.80556 0.0
C164 C 0.49648 0.84476 0.81271 0.0
C165 C 0.50114 0.81092 0.83924 0.0
C166 C 0.5481 0.81081 0.86647 0.0
H167 H 0.59523 0.88486 0.81953 0.0
O168 O 0.60224 0.92904 0.92044 0.0
O169 O 0.6106 0.86757 0.93239 0.0
O170 O 0.68545 0.90617 0.88523 0.0
O171 O 0.66001 0.85785 0.84791 0.0
C172 C 0.46245 0.74525 0.85095 0.0
C173 C 0.49377 0.71699 0.8846 0.0
H174 H 0.55234 0.68216 0.94375 0.0
H175 H 0.61635 0.7057 0.98208 0.0
H176 H 0.5267 0.89305 0.78352 0.0
H177 H 0.46777 0.85277 0.79489 0.0
H178 H 0.43227 0.73377 0.83827 0.0
H179 H 0.4825 0.6891 0.8933 0.0
Mn180 Mn 0.81722 0.15799 0.44605 0.0
Mn181 Mn 0.8432 0.23682 0.39053 0.0
C182 C 0.88709 0.16733 0.42272 0.0
C183 C 0.80903 0.10923 0.49806 0.0
C184 C 0.78918 0.17614 0.35098 0.0
O185 O 0.77378 0.19536 0.4713 0.0
O186 O 0.79037 0.24603 0.42743 0.0
C187 C 0.85517 0.3031 0.45047 0.0
N188 N 0.87259 0.27809 0.42076 0.0
C189 C 0.9312 0.33022 0.40487 0.0
C190 C 0.90925 0.35281 0.43541 0.0
C191 C 0.87278 0.33925 0.45791 0.0
C192 C 0.90763 0.28744 0.39699 0.0
H193 H 0.82644 0.29587 0.46853 0.0
C194 C 0.76817 0.22976 0.45862 0.0
O195 O 0.78428 0.11354 0.46401 0.0
O196 O 0.83636 0.1362 0.50606 0.0
N197 N 0.89395 0.22683 0.35653 0.0
C198 C 0.90077 0.19854 0.32632 0.0
C199 C 0.94045 0.19337 0.30539 0.0
C200 C 0.97529 0.21736 0.31247 0.0
C201 C 0.97101 0.25127 0.33898 0.0
C202 C 0.92407 0.25182 0.36626 0.0
H203 H 0.87616 0.178 0.31954 0.0
O204 O 0.86957 0.13408 0.42055 0.0
O205 O 0.86178 0.19561 0.43265 0.0
O206 O 0.78609 0.15737 0.38645 0.0
O207 O 0.81178 0.20519 0.34851 0.0
C208 C 0.01041 0.31664 0.35062 0.0
C209 C 0.97942 0.34521 0.38427 0.0
H210 H 0.9213 0.38062 0.44344 0.0
H211 H 0.85713 0.35764 0.48194 0.0
H212 H 0.94452 0.16927 0.28335 0.0
H213 H 0.00389 0.20909 0.29461 0.0
H214 H 0.04069 0.32785 0.33791 0.0
H215 H -0.009 0.37302 0.39293 0.0
Mn216 Mn 0.65489 0.15815 0.10259 0.0
Mn217 Mn 0.6284 0.23743 0.15718 0.0
C218 C 0.58475 0.16775 0.12498 0.0
C219 C 0.66367 0.10928 0.05073 0.0
C220 C 0.68189 0.17685 0.19792 0.0
O221 O 0.6988 0.19536 0.07784 0.0
O222 O 0.68144 0.24649 0.12067 0.0
C223 C 0.61674 0.3033 0.09665 0.0
N224 N 0.59915 0.27848 0.12642 0.0
C225 C 0.54063 0.33082 0.14183 0.0
C226 C 0.56273 0.3532 0.11123 0.0
C227 C 0.59922 0.33945 0.08892 0.0
C228 C 0.56403 0.28801 0.14998 0.0
H229 H 0.64553 0.29593 0.07876 0.0
C230 C 0.70409 0.22993 0.09005 0.0
O231 O 0.68792 0.11353 0.08519 0.0
O232 O 0.63655 0.13632 0.04231 0.0
N233 N 0.57744 0.22759 0.19086 0.0
C234 C 0.57047 0.19945 0.22117 0.0
C235 C 0.53072 0.19446 0.242 0.0
C236 C 0.49599 0.21852 0.23473 0.0
C237 C 0.50043 0.2523 0.20805 0.0
C238 C 0.54741 0.25258 0.18086 0.0
H239 H 0.59499 0.17888 0.2281 0.0
O240 O 0.60212 0.13445 0.12735 0.0
O241 O 0.61024 0.19592 0.11522 0.0
O242 O 0.68503 0.15758 0.16278 0.0
O243 O 0.65962 0.20615 0.19966 0.0
C244 C 0.46128 0.31772 0.19602 0.0
C245 C 0.49242 0.34605 0.16227 0.0
H246 H 0.55079 0.38101 0.10301 0.0
H247 H 0.615 0.35769 0.06485 0.0
H248 H 0.52652 0.17047 0.26413 0.0
H249 H 0.46732 0.21041 0.25256 0.0
H250 H 0.43101 0.32908 0.20862 0.0
H251 H 0.48096 0.37385 0.15344 0.0
Mn252 Mn 0.81725 0.90496 0.60172 0.0
Mn253 Mn 0.84309 0.82584 0.65676 0.0
C254 C 0.88717 0.89526 0.6247 0.0
C255 C 0.80898 0.9539 0.54995 0.0
C256 C 0.7895 0.88663 0.69685 0.0
O257 O 0.7735 0.86782 0.57653 0.0
O258 O 0.79014 0.8169 0.61997 0.0
C259 C 0.85466 0.75972 0.5965 0.0
N260 N 0.87226 0.78457 0.62626 0.0
C261 C 0.93054 0.73211 0.64198 0.0
C262 C 0.90843 0.7097 0.61137 0.0
C263 C 0.87204 0.7235 0.58892 0.0
C264 C 0.90727 0.77501 0.64996 0.0
H265 H 0.82595 0.76712 0.57849 0.0
C266 C 0.76787 0.83337 0.58898 0.0
O267 O 0.78442 0.94958 0.58413 0.0
O268 O 0.83616 0.92687 0.54169 0.0
N269 N 0.89398 0.83557 0.69066 0.0
C270 C 0.90098 0.86375 0.72096 0.0
C271 C 0.94069 0.86868 0.74189 0.0
C272 C 0.97537 0.84452 0.73476 0.0
C273 C 0.97087 0.81069 0.70813 0.0
C274 C 0.92395 0.81047 0.68081 0.0
H275 H 0.8765 0.8844 0.72781 0.0
O276 O 0.86985 0.92859 0.62703 0.0
O277 O 0.86169 0.86712 0.61477 0.0
O278 O 0.78646 0.9056 0.66151 0.0
O279 O 0.81189 0.85742 0.69903 0.0
C280 C 0.0098 0.74512 0.69636 0.0
C281 C 0.97864 0.7168 0.66259 0.0
H282 H 0.92029 0.68184 0.60326 0.0
H283 H 0.85626 0.70523 0.56485 0.0
H284 H 0.94492 0.89271 0.764 0.0
H285 H 0.00402 0.8526 0.75265 0.0
H286 H 0.03999 0.73371 0.70908 0.0
H287 H -0.00999 0.68893 0.65386 0.0
Mn288 Mn 0.82854 0.65836 0.1071 0.0
Mn289 Mn 0.85969 0.7389 0.15713 0.0
C290 C 0.89972 0.6777 0.10344 0.0
C291 C 0.81827 0.59498 0.08511 0.0
C292 C 0.80486 0.73758 0.07468 0.0
O293 O 0.78625 0.66161 0.16084 0.0
O294 O 0.80663 0.71961 0.18605 0.0
C295 C 0.87116 0.73155 0.25607 0.0
N296 N 0.88914 0.73841 0.21497 0.0
C297 C 0.94811 0.77707 0.25928 0.0
C298 C 0.92583 0.76804 0.29836 0.0
C299 C 0.8889 0.74549 0.2966 0.0
C300 C 0.92466 0.7596 0.21182 0.0
H301 H 0.84172 0.71588 0.25843 0.0
C302 C 0.78346 0.6896 0.18864 0.0
O303 O 0.7941 0.62195 0.07162 0.0
O304 O 0.84573 0.60349 0.11659 0.0
N305 N 0.91114 0.75597 0.1289 0.0
C306 C 0.91801 0.76236 0.08423 0.0
C307 C 0.95794 0.77379 0.0679 0.0
C308 C -0.00719 0.78125 0.09602 0.0
C309 C -0.01162 0.78083 0.14445 0.0
C310 C 0.94134 0.76201 0.15945 0.0
H311 H 0.89317 0.75679 0.05986 0.0
O312 O 0.88124 0.66185 0.06898 0.0
O313 O 0.87502 0.68651 0.13741 0.0
O314 O 0.79981 0.70236 0.07407 0.0
O315 O 0.82855 0.7531 0.10325 0.0
C316 C 0.02759 0.8078 0.21676 0.0
C317 C -0.0036 0.79956 0.26352 0.0
H318 H 0.93782 0.77733 0.33076 0.0
H319 H 0.87284 0.7389 0.32796 0.0
H320 H 0.9621 0.77649 0.03178 0.0
H321 H 0.02156 0.78915 0.0782 0.0
H322 H 0.05789 0.82275 0.22134 0.0
H323 H 0.00785 0.80846 0.29626 0.0
Mn324 Mn 0.64373 0.40552 0.60763 0.0
Mn325 Mn 0.61252 0.32506 0.65765 0.0
C326 C 0.57254 0.3861 0.60388 0.0
C327 C 0.65399 0.46885 0.58543 0.0
C328 C 0.66753 0.32625 0.57536 0.0
O329 O 0.68595 0.4024 0.66147 0.0
O330 O 0.66554 0.3444 0.68655 0.0
C331 C 0.601 0.33272 0.75656 0.0
N332 N 0.58306 0.32568 0.71547 0.0
C333 C 0.52442 0.28672 0.75984 0.0
C334 C 0.54664 0.29597 0.7989 0.0
C335 C 0.58337 0.31877 0.79711 0.0
C336 C 0.54765 0.30432 0.71236 0.0
H337 H 0.63033 0.34857 0.75888 0.0
C338 C 0.68873 0.37438 0.68921 0.0
O339 O 0.67821 0.44185 0.57211 0.0
O340 O 0.62648 0.46044 0.61688 0.0
N341 N 0.56111 0.30786 0.62943 0.0
C342 C 0.5543 0.30134 0.58477 0.0
C343 C 0.51447 0.28963 0.56845 0.0
C344 C 0.4797 0.28191 0.5966 0.0
C345 C 0.48416 0.28242 0.64503 0.0
C346 C 0.53098 0.30169 0.65999 0.0
H347 H 0.57909 0.30704 0.5604 0.0
O348 O 0.59105 0.40189 0.56942 0.0
O349 O 0.59722 0.37739 0.63789 0.0
O350 O 0.6726 0.36147 0.57477 0.0
O351 O 0.6437 0.31077 0.6038 0.0
C352 C 0.44529 0.2552 0.71736 0.0
C353 C 0.47639 0.2638 0.76411 0.0
H354 H 0.53476 0.28665 0.83131 0.0
H355 H 0.59939 0.32552 0.82846 0.0
H356 H 0.51031 0.28686 0.53234 0.0
H357 H 0.45103 0.27374 0.57879 0.0
H358 H 0.41516 0.23998 0.72195 0.0
H359 H 0.46507 0.25484 0.79686 0.0
Mn360 Mn 0.82832 0.40494 0.93982 0.0
Mn361 Mn 0.85905 0.32417 0.89003 0.0
C362 C 0.89943 0.38534 0.94346 0.0
C363 C 0.81828 0.46841 0.96163 0.0
C364 C 0.80428 0.3259 0.97251 0.0
O365 O 0.78601 0.40177 0.88611 0.0
O366 O 0.80612 0.34365 0.86103 0.0
C367 C 0.87054 0.33109 0.79106 0.0
N368 N 0.88848 0.3243 0.83219 0.0
C369 C 0.9471 0.28503 0.7881 0.0
C370 C 0.92485 0.29401 0.74898 0.0
C371 C 0.88813 0.31684 0.75061 0.0
C372 C 0.92383 0.30287 0.83546 0.0
H373 H 0.84125 0.34697 0.78862 0.0
C374 C 0.78313 0.37376 0.85833 0.0
O375 O 0.79405 0.44153 0.97522 0.0
O376 O 0.84572 0.45976 0.93019 0.0
N377 N 0.91041 0.30695 0.91835 0.0
C378 C 0.91725 0.30072 0.96306 0.0
C379 C 0.95712 0.28916 0.97944 0.0
C380 C -0.00807 0.28139 0.95134 0.0
C381 C -0.01254 0.28161 0.90291 0.0
C382 C 0.94054 0.30063 0.88783 0.0
H383 H 0.89247 0.30653 0.98741 0.0
O384 O 0.88107 0.40134 0.97789 0.0
O385 O 0.87465 0.37655 0.90955 0.0
O386 O 0.79941 0.36114 0.97305 0.0
O387 O 0.82786 0.31025 0.94395 0.0
C388 C 0.02639 0.25405 0.83076 0.0
C389 C -0.00479 0.26224 0.78397 0.0
H390 H 0.93673 0.2845 0.71663 0.0
H391 H 0.87209 0.32339 0.71922 0.0
H392 H 0.9613 0.28661 1.01557 0.0
H393 H 0.02064 0.27342 0.96919 0.0
H394 H 0.05658 0.2389 0.82625 0.0
H395 H 0.00656 0.25311 0.75128 0.0
Mn396 Mn 0.6437 0.6581 0.43905 0.0
Mn397 Mn 0.6124 0.73864 0.38924 0.0
C398 C 0.57251 0.67744 0.44287 0.0
C399 C 0.65402 0.59474 0.46108 0.0
C400 C 0.66741 0.73732 0.47156 0.0
O401 O 0.68589 0.66135 0.38523 0.0
O402 O 0.66544 0.71938 0.36024 0.0
C403 C 0.60082 0.73125 0.29031 0.0
N404 N 0.58288 0.73812 0.33144 0.0
C405 C 0.52393 0.77688 0.28725 0.0
C406 C 0.54617 0.76782 0.24814 0.0
C407 C 0.58305 0.7452 0.24982 0.0
C408 C 0.54736 0.75933 0.33465 0.0
H409 H 0.63024 0.71554 0.28791 0.0
C410 C 0.68863 0.68939 0.35751 0.0
O411 O 0.67823 0.62173 0.47446 0.0
O412 O 0.6265 0.6032 0.42964 0.0
N413 N 0.56096 0.75569 0.41756 0.0
C414 C 0.55415 0.7621 0.46224 0.0
C415 C 0.51425 0.77358 0.47863 0.0
C416 C 0.47938 0.78113 0.45056 0.0
C417 C 0.48377 0.78072 0.40212 0.0
C418 C 0.53074 0.76177 0.38705 0.0
H419 H 0.579 0.75648 0.48657 0.0
O420 O 0.59106 0.66161 0.47729 0.0
O421 O 0.59716 0.68624 0.40887 0.0
O422 O 0.6725 0.70211 0.47205 0.0
O423 O 0.64359 0.75285 0.44313 0.0
C424 C 0.4446 0.80783 0.3299 0.0
C425 C 0.47573 0.7995 0.28309 0.0
H426 H 0.53418 0.77713 0.21576 0.0
H427 H 0.59908 0.73859 0.21843 0.0
H428 H 0.51012 0.77627 0.51476 0.0
H429 H 0.45067 0.7891 0.46841 0.0
H430 H 0.41435 0.82287 0.32538 0.0
H431 H 0.46429 0.80845 0.25038 0.0
Mn432 Mn 0.15495 0.40452 0.94452 0.0
Mn433 Mn 0.12835 0.32507 0.89031 0.0
C434 C 0.08475 0.39487 0.9223 0.0
C435 C 0.16383 0.4535 0.99622 0.0
C436 C 0.18181 0.38552 0.84922 0.0
O437 O 0.19892 0.36735 0.96931 0.0
O438 O 0.1814 0.31609 0.9268 0.0
C439 C 0.11668 0.25939 0.95111 0.0
N440 N 0.09908 0.28414 0.92125 0.0
C441 C 0.04056 0.23177 0.90602 0.0
C442 C 0.06266 0.20946 0.93671 0.0
C443 C 0.09915 0.22327 0.95897 0.0
C444 C 0.06396 0.27456 0.89774 0.0
H445 H 0.14549 0.26679 0.96895 0.0
C446 C 0.20414 0.33273 0.95726 0.0
O447 O 0.18801 0.44919 0.96171 0.0
O448 O 0.13674 0.42647 1.00478 0.0
N449 N 0.07738 0.33486 0.85663 0.0
C450 C 0.07041 0.36293 0.82622 0.0
C451 C 0.03067 0.36788 0.80536 0.0
C452 C -0.00406 0.34384 0.8127 0.0
C453 C 0.00037 0.31012 0.8395 0.0
C454 C 0.04734 0.30991 0.86671 0.0
H455 H 0.09494 0.38348 0.81921 0.0
O456 O 0.10211 0.42816 0.91981 0.0
O457 O 0.11027 0.36672 0.93212 0.0
O458 O 0.18493 0.40496 0.88423 0.0
O459 O 0.15957 0.35619 0.84767 0.0
C460 C 0.96122 0.24473 0.85174 0.0
C461 C -0.00764 0.21649 0.88561 0.0
H462 H 0.05071 0.18168 0.94503 0.0
H463 H 0.11493 0.20508 0.98311 0.0
H464 H 0.02647 0.39182 0.78314 0.0
H465 H 0.96728 0.35191 0.79483 0.0
H466 H 0.93096 0.23335 0.83916 0.0
H467 H 0.9809 0.18871 0.89453 0.0
Mn468 Mn 0.31728 0.65759 0.4453 0.0
Mn469 Mn 0.34306 0.73671 0.39025 0.0
C470 C 0.38718 0.66728 0.42226 0.0
C471 C 0.30908 0.60864 0.49707 0.0
C472 C 0.28945 0.67594 0.3502 0.0
O473 O 0.27356 0.69473 0.47055 0.0
O474 O 0.29012 0.74563 0.42706 0.0
C475 C 0.35463 0.80282 0.45053 0.0
N476 N 0.37223 0.77797 0.42075 0.0
C477 C 0.43051 0.83043 0.40507 0.0
C478 C 0.4084 0.85283 0.43569 0.0
C479 C 0.37202 0.83903 0.45813 0.0
C480 C 0.40724 0.78755 0.39706 0.0
H481 H 0.32592 0.79541 0.46853 0.0
C482 C 0.26789 0.72917 0.45808 0.0
O483 O 0.28448 0.61296 0.46291 0.0
O484 O 0.33626 0.63567 0.50531 0.0
N485 N 0.39394 0.727 0.35633 0.0
C486 C 0.40094 0.69883 0.32601 0.0
C487 C 0.44066 0.6939 0.30508 0.0
C488 C 0.47534 0.71805 0.31224 0.0
C489 C 0.47084 0.75188 0.33888 0.0
C490 C 0.42392 0.75209 0.3662 0.0
H491 H 0.37646 0.67819 0.31914 0.0
O492 O 0.36986 0.63396 0.41992 0.0
O493 O 0.3617 0.69542 0.43222 0.0
O494 O 0.28641 0.65699 0.38555 0.0
O495 O 0.31186 0.70512 0.34798 0.0
C496 C 0.50978 0.81743 0.35071 0.0
C497 C 0.47861 0.84574 0.38448 0.0
H498 H 0.42026 0.88069 0.44382 0.0
H499 H 0.35624 0.85729 0.48221 0.0
H500 H 0.44488 0.66988 0.28295 0.0
H501 H 0.50399 0.70998 0.29434 0.0
H502 H 0.53997 0.82884 0.33801 0.0
H503 H 0.48999 0.8736 0.39324 0.0
Mn504 Mn 0.15512 0.65732 0.10168 0.0
Mn505 Mn 0.12899 0.73652 0.15662 0.0
C506 C 0.08503 0.6671 0.12419 0.0
C507 C 0.16369 0.60859 0.04958 0.0
C508 C 0.18227 0.67569 0.19706 0.0
O509 O 0.19914 0.69446 0.07699 0.0
O510 O 0.18209 0.74545 0.12017 0.0
C511 C 0.1177 0.80256 0.09628 0.0
N512 N 0.09997 0.77776 0.12599 0.0
C513 C 0.04184 0.83037 0.14165 0.0
C514 C 0.06407 0.85272 0.1111 0.0
C515 C 0.10044 0.83882 0.0887 0.0
C516 C 0.06494 0.78742 0.1496 0.0
H517 H 0.14642 0.79508 0.07833 0.0
C518 C 0.20462 0.72895 0.08942 0.0
O519 O 0.18796 0.61264 0.08406 0.0
O520 O 0.13663 0.63571 0.04134 0.0
N521 N 0.07796 0.72683 0.19025 0.0
C522 C 0.07083 0.69866 0.22049 0.0
C523 C 0.03107 0.69383 0.24134 0.0
C524 C -0.0035 0.7181 0.2342 0.0
C525 C 0.00115 0.75192 0.20764 0.0
C526 C 0.04809 0.752 0.18038 0.0
H527 H 0.09523 0.67796 0.22735 0.0
O528 O 0.10226 0.63373 0.12643 0.0
O529 O 0.11064 0.6952 0.11451 0.0
O530 O 0.1854 0.65657 0.1618 0.0
O531 O 0.16001 0.70499 0.199 0.0
C532 C 0.96247 0.8176 0.19591 0.0
C533 C -0.00623 0.84583 0.16222 0.0
H534 H 0.05231 0.88061 0.103 0.0
H535 H 0.11631 0.85703 0.06467 0.0
H536 H 0.02672 0.66981 0.2634 0.0
H537 H 0.96779 0.7101 0.25204 0.0
H538 H 0.9323 0.8291 0.2086 0.0
H539 H 0.98251 0.87372 0.15351 0.0
Mn540 Mn 0.31729 0.40457 0.6011 0.0
Mn541 Mn 0.34323 0.32573 0.65664 0.0
C542 C 0.38713 0.39523 0.62453 0.0
C543 C 0.30916 0.45333 0.5491 0.0
C544 C 0.28913 0.38638 0.69613 0.0
O545 O 0.2739 0.3672 0.57578 0.0
O546 O 0.29042 0.31654 0.6197 0.0
C547 C 0.35525 0.25948 0.59668 0.0
N548 N 0.37265 0.28447 0.62641 0.0
C549 C 0.43131 0.23237 0.64225 0.0
C550 C 0.40938 0.20979 0.61169 0.0
C551 C 0.3729 0.22334 0.5892 0.0
C552 C 0.4077 0.27513 0.65017 0.0
H553 H 0.32651 0.26669 0.57862 0.0
C554 C 0.26826 0.33281 0.58847 0.0
O555 O 0.28437 0.44902 0.58311 0.0
O556 O 0.33651 0.42637 0.54114 0.0
N557 N 0.39397 0.33571 0.69069 0.0
C558 C 0.40076 0.36397 0.72093 0.0
C559 C 0.44044 0.36915 0.74187 0.0
C560 C 0.4753 0.3452 0.73476 0.0
C561 C 0.47106 0.3113 0.7082 0.0
C562 C 0.42411 0.31074 0.68093 0.0
H563 H 0.37613 0.38448 0.72775 0.0
O564 O 0.3696 0.42848 0.6267 0.0
O565 O 0.36185 0.36695 0.61457 0.0
O566 O 0.28606 0.40514 0.66065 0.0
O567 O 0.31176 0.35735 0.69865 0.0
C568 C 0.51052 0.24597 0.6965 0.0
C569 C 0.47955 0.2174 0.66284 0.0
H570 H 0.42145 0.18199 0.60363 0.0
H571 H 0.35726 0.20495 0.56516 0.0
H572 H 0.44448 0.39323 0.76394 0.0
H573 H 0.5039 0.35347 0.75262 0.0
H574 H 0.54081 0.23476 0.7092 0.0
H575 H 0.49115 0.1896 0.65414 0.0
C576 C 0.2808 0.30071 0.04864 0.0
C577 C 0.28164 0.26135 0.04207 0.0
H578 H 0.25629 0.35403 0.02714 0.0
C579 C 0.26038 0.24623 1.0045 0.0
H580 H 0.29714 0.3135 0.077 0.0
C581 C 0.23751 0.26976 0.97522 0.0
C582 C 0.23462 0.30892 0.98331 0.0
H583 H 0.26092 0.21617 0.99801 0.0
H584 H 0.22083 0.25694 0.94713 0.0
C585 C 0.25748 0.32413 1.01981 0.0
C586 C 0.23416 0.79207 0.4758 0.0
C587 C 0.23742 0.753 0.48418 0.0
H588 H 0.21039 0.84566 0.4983 0.0
C589 C 0.21489 0.73789 0.52095 0.0
H590 H 0.25057 0.80482 0.44749 0.0
C591 C 0.1915 0.76134 0.54971 0.0
C592 C 0.19026 0.80064 0.54282 0.0
H593 H 0.21636 0.70804 0.52851 0.0
H594 H 0.17541 0.74863 0.57826 0.0
C595 C 0.21123 0.81565 0.50502 0.0
C596 C 0.26113 0.81552 0.04278 0.0
C597 C 0.28222 0.80055 1.00502 0.0
H598 H 0.22171 0.80461 0.10019 0.0
C599 C 0.28121 0.76123 0.99813 0.0
H600 H 0.26182 0.84554 0.04951 0.0
C601 C 0.25787 0.73773 0.02683 0.0
C602 C 0.23517 0.7528 0.06352 0.0
H603 H 0.29742 0.74855 0.96962 0.0
H604 H 0.25653 0.70787 1.01925 0.0
C605 C 0.23825 0.79189 0.07194 0.0
C606 C 0.21512 0.32384 0.52581 0.0
C607 C 0.23782 0.30885 0.56253 0.0
H608 H 0.1754 0.31293 0.46874 0.0
C609 C 0.23465 0.26979 0.57107 0.0
H610 H 0.21651 0.35368 0.51814 0.0
C611 C 0.21162 0.24612 0.54204 0.0
C612 C 0.19045 0.26103 0.50431 0.0
H613 H 0.25119 0.25714 0.59935 0.0
H614 H 0.21083 0.21613 0.54888 0.0
C615 C 0.19162 0.30031 0.49726 0.0
C616 C 0.78108 0.80153 0.04892 0.0
C617 C 0.78214 0.76222 0.042 0.0
H618 H 0.75638 0.85489 0.02781 0.0
C619 C 0.7611 0.74725 1.00421 0.0
H620 H 0.79725 0.81421 0.07746 0.0
C621 C 0.73823 0.77089 0.97503 0.0
C622 C 0.7351 0.80997 0.98348 0.0
H623 H 0.76182 0.71724 0.99745 0.0
H624 H 0.72173 0.75817 0.94675 0.0
C625 C 0.75775 0.82504 1.02021 0.0
C626 C 0.7346 0.29279 0.47604 0.0
C627 C 0.73773 0.25373 0.48457 0.0
H628 H 0.71083 0.34647 0.49827 0.0
C629 C 0.71504 0.23874 0.52129 0.0
H630 H 0.75113 0.30544 0.44776 0.0
C631 C 0.69158 0.26229 0.54986 0.0
C632 C 0.69044 0.30157 0.54283 0.0
H633 H 0.71641 0.20891 0.52895 0.0
H634 H 0.67535 0.24967 0.57838 0.0
C635 C 0.71159 0.31647 0.50509 0.0
C636 C 0.76032 0.31648 0.04291 0.0
C637 C 0.78155 0.30138 1.00531 0.0
H638 H 0.7208 0.30573 0.1003 0.0
C639 C 0.78068 0.26203 0.99869 0.0
H640 H 0.76088 0.34653 0.04943 0.0
C641 C 0.75738 0.23859 0.0275 0.0
C642 C 0.73455 0.25378 0.06404 0.0
H643 H 0.797 0.24924 0.97032 0.0
H644 H 0.75619 0.2087 1.02013 0.0
C645 C 0.73745 0.29292 0.07218 0.0
C646 C 0.73417 0.77046 0.57125 0.0
C647 C 0.73738 0.80954 0.5629 0.0
H648 H 0.71042 0.71688 0.54873 0.0
C649 C 0.7148 0.82466 0.52616 0.0
H650 H 0.75061 0.75771 0.59953 0.0
C651 C 0.69141 0.80121 0.4974 0.0
C652 C 0.69022 0.76191 0.50426 0.0
H653 H 0.71625 0.85451 0.51862 0.0
H654 H 0.67529 0.81393 0.46887 0.0
C655 C 0.71123 0.74689 0.54203 0.0
C656 C 0.35802 0.04498 0.04073 0.0
C657 C 0.31929 0.05912 0.05818 0.0
H658 H 0.38822 1.0062 0.99454 0.0
C659 C 0.28074 0.04493 0.04062 0.0
H660 H 0.38827 0.05626 0.05239 0.0
C661 C 0.28071 1.01686 1.00736 0.0
C662 C 0.31922 1.00292 0.98942 0.0
H663 H 0.25038 0.05593 0.05238 0.0
H664 H 0.25034 1.00569 0.99588 0.0
C665 C 0.35799 1.01729 1.00651 0.0
C666 C 0.11419 1.01699 0.541 0.0
C667 C 0.15294 1.00285 0.55839 0.0
H668 H 0.08394 0.05562 0.49474 0.0
C669 C 0.19146 1.01688 0.54061 0.0
H670 H 0.08395 1.00583 0.55284 0.0
C671 C 0.19146 0.04479 0.50721 0.0
C672 C 0.15292 0.05874 0.48934 0.0
H673 H 0.22184 1.00587 0.55232 0.0
H674 H 0.22182 0.05585 0.49556 0.0
C675 C 0.11418 0.04453 0.50664 0.0
C676 C 0.62325 1.01212 1.02051 0.0
C677 C 0.66204 0.99215 1.01757 0.0
H678 H 0.59315 0.06612 0.03099 0.0
C679 C 0.70063 1.01215 1.02117 0.0
H680 H 0.59305 0.99761 1.01602 0.0
C681 C 0.7007 0.05103 0.02786 0.0
C682 C 0.66219 0.07123 0.03073 0.0
H683 H 0.73101 0.9977 1.01761 0.0
H684 H 0.73111 0.06532 0.03193 0.0
C685 C 0.62332 0.05145 0.02709 0.0
C686 C 0.84948 0.05121 0.52074 0.0
C687 C 0.81066 0.07116 0.5179 0.0
H688 H 0.87962 0.99717 0.53083 0.0
C689 C 0.77209 0.0511 0.52116 0.0
H690 H 0.87967 0.06578 0.51651 0.0
C691 C 0.77206 1.01218 0.52733 0.0
C692 C 0.81058 0.99199 0.53017 0.0
H693 H 0.7417 0.06552 0.5177 0.0
H694 H 0.74164 0.99784 0.5311 0.0
C695 C 0.84944 1.01183 0.52693 0.0
C696 C 0.78077 0.51781 1.00649 0.0
C697 C 0.81932 0.50361 0.98895 0.0
H698 H 0.75037 0.55709 0.05119 0.0
C699 C 0.85805 0.51774 1.00639 0.0
H700 H 0.75041 0.50681 0.99474 0.0
C701 C 0.85801 0.54546 0.04059 0.0
C702 C 0.81925 0.55985 0.05766 0.0
H703 H 0.88829 0.50644 0.99475 0.0
H704 H 0.88825 0.55654 0.05255 0.0
C705 C 0.78074 0.5459 0.03972 0.0
C706 C 0.69153 0.51779 0.5399 0.0
C707 C 0.653 0.50386 0.55778 0.0
H708 H 0.7219 0.55668 0.49476 0.0
C709 C 0.61425 0.51807 0.54046 0.0
H710 H 0.72189 0.50674 0.55155 0.0
C711 C 0.61426 0.54559 0.50608 0.0
C712 C 0.65301 0.55971 0.48868 0.0
H713 H 0.58401 0.50698 0.55237 0.0
H714 H 0.58402 0.55674 0.49424 0.0
C715 C 0.69153 0.54569 0.50647 0.0
C716 C 0.20077 0.55071 0.02557 0.0
C717 C 0.16216 0.57066 0.02932 0.0
H718 H 0.2313 0.49758 1.01466 0.0
C719 C 0.12339 0.55064 0.02652 0.0
H720 H 0.23113 0.56519 0.02903 0.0
C721 C 0.1235 0.51131 1.01993 0.0
C722 C 0.16239 0.49158 1.01614 0.0
H723 H 0.09319 0.56511 0.03114 0.0
H724 H 0.09334 0.4966 1.01617 0.0
C725 C 0.20088 0.51183 1.01885 0.0
C726 C 0.34956 0.55072 0.52014 0.0
C727 C 0.31069 0.57055 0.51687 0.0
H728 H 0.3798 0.49679 0.53061 0.0
C729 C 0.27217 0.55037 0.51975 0.0
H730 H 0.37972 0.56539 0.51622 0.0
C731 C 0.27222 0.51146 0.52596 0.0
C732 C 0.3108 0.4914 0.52924 0.0
H733 H 0.24175 0.5647 0.51596 0.0
H734 H 0.24183 0.49703 0.52944 0.0
C735 C 0.34961 0.51135 0.52637 0.0
C736 C 0.51935 0.18741 0.08143 0.0
C737 C 0.53731 0.17091 0.12017 0.0
H738 H 0.46194 0.19863 0.04359 0.0
C739 C 0.50953 0.15403 0.15146 0.0
H740 H 0.53987 0.19879 0.05534 0.0
C741 C 0.46495 0.15807 0.14731 0.0
C742 C 0.44695 0.17531 0.10906 0.0
H743 H 0.52231 0.13841 0.17975 0.0
H744 H 0.44446 0.14637 0.17323 0.0
C745 C 0.47475 0.18768 0.07487 0.0
C746 C 0.96239 0.90887 0.65138 0.0
C747 C 0.93462 0.89201 0.62003 0.0
H748 H 0.02743 0.91635 0.67335 0.0
C749 C 0.95263 0.87536 0.58136 0.0
H750 H 0.9496 0.92457 0.67962 0.0
C751 C -0.00275 0.87493 0.57496 0.0
C752 C 0.025 0.88727 0.60922 0.0
H753 H 0.93214 0.86399 0.55523 0.0
H754 H 0.01009 0.86386 0.54374 0.0
C755 C 0.00697 0.90467 0.64738 0.0
C756 C 0.46514 0.90487 0.90026 0.0
C757 C 0.44722 0.88736 0.93837 0.0
H758 H 0.5224 0.92496 0.868 0.0
C759 C 0.47506 0.87502 0.97253 0.0
H760 H 0.4446 0.91657 0.87438 0.0
C761 C 0.51967 0.87556 0.96605 0.0
C762 C 0.53757 0.89233 0.92743 0.0
H763 H 0.4623 0.86389 1.00374 0.0
H764 H 0.54024 0.86419 0.99211 0.0
C765 C 0.5097 0.90918 0.8962 0.0
C766 C -0.00271 0.18703 0.47252 0.0
C767 C 0.02497 0.17456 0.43826 0.0
H768 H 0.93225 0.19832 0.49223 0.0
C769 C 0.00682 0.15729 0.40008 0.0
H770 H 0.01021 0.19804 0.50374 0.0
C771 C 0.96222 0.15335 0.39605 0.0
C772 C 0.93456 0.17034 0.4274 0.0
H773 H 0.02722 0.14552 0.3741 0.0
H774 H 0.94933 0.13771 0.3678 0.0
C775 C 0.95268 0.18685 0.46609 0.0
C776 C 0.00974 0.65363 0.15073 0.0
C777 C 0.03759 0.67047 0.11948 0.0
H778 H 0.94465 0.64625 0.1726 0.0
C779 C 0.01966 0.68725 0.08087 0.0
H780 H 0.02246 0.63784 0.17892 0.0
C781 C 0.97505 0.68779 0.07442 0.0
C782 C 0.94723 0.67546 0.1086 0.0
H783 H 0.04021 0.69861 0.05481 0.0
H784 H 0.96227 0.69892 0.04323 0.0
C785 C 0.96518 0.65794 0.14671 0.0
C786 C 0.50687 0.40528 0.64718 0.0
C787 C 0.52501 0.38807 0.60895 0.0
H788 H 0.44937 0.42479 0.6795 0.0
C789 C 0.49734 0.37563 0.57467 0.0
H790 H 0.52726 0.41702 0.67317 0.0
C791 C 0.45272 0.37579 0.58111 0.0
C792 C 0.4346 0.39224 0.61985 0.0
H793 H 0.51024 0.36467 0.54343 0.0
H794 H 0.4323 0.36435 0.55496 0.0
C795 C 0.46227 0.4092 0.65122 0.0
C796 C 0.00952 0.40852 0.89578 0.0
C797 C 0.03731 0.3917 0.92711 0.0
H798 H 0.94445 0.41614 0.87397 0.0
C799 C 0.01934 0.37527 0.9659 0.0
H800 H 0.02229 0.42408 0.86744 0.0
C801 C 0.97474 0.37502 0.97245 0.0
C802 C 0.94694 0.38732 0.93822 0.0
H803 H 0.03987 0.36395 0.99203 0.0
H804 H 0.96194 0.36414 1.00376 0.0
C805 C 0.96494 0.40449 0.89993 0.0
C806 C 0.49725 0.68757 0.47205 0.0
C807 C 0.525 0.67525 0.43778 0.0
H808 H 0.43214 0.69849 0.49178 0.0
C809 C 0.50698 0.65789 0.39959 0.0
H810 H 0.51009 0.69861 0.50328 0.0
C811 C 0.4624 0.6537 0.39558 0.0
C812 C 0.43463 0.67052 0.42694 0.0
H813 H 0.52745 0.64623 0.37361 0.0
H814 H 0.44961 0.63801 0.36732 0.0
C815 C 0.45264 0.68714 0.46563 0.0
C816 C 0.24567 0.15233 0.25171 0.0
C817 C 0.25568 0.18666 0.23013 0.0
H818 H 0.21752 0.12544 0.30998 0.0
C819 C 0.24554 0.22045 0.25258 0.0
H820 H 0.25383 0.12575 0.23591 0.0
C821 C 0.22679 0.22026 0.29512 0.0
C822 C 0.2163 0.18628 0.31691 0.0
H823 H 0.25291 0.24753 0.23758 0.0
H824 H 0.21966 0.24721 0.31064 0.0
C825 C 0.226 0.15214 0.2947 0.0
C826 C 0.24534 0.84133 0.79528 0.0
C827 C 0.25578 0.87521 0.81736 0.0
H828 H 0.21908 0.81431 0.73758 0.0
C829 C 0.24594 0.90945 0.79547 0.0
H830 H 0.25259 0.81432 0.81054 0.0
C831 C 0.22617 0.90945 0.75253 0.0
C832 C 0.21617 0.87521 0.73068 0.0
H833 H 0.25435 0.93609 0.81097 0.0
H834 H 0.2179 0.93609 0.737 0.0
C835 C 0.22644 0.84133 0.7528 0.0
C836 C 0.75364 0.89818 0.81659 0.0
C837 C 0.70915 0.89621 0.81113 0.0
H838 H 0.8146 0.89603 0.78361 0.0
C839 C 0.69139 0.89669 0.76771 0.0
H840 H 0.76781 0.89734 0.84994 0.0
C841 C 0.71801 0.89721 0.72999 0.0
C842 C 0.76252 0.89586 0.73549 0.0
H843 H 0.65708 0.89489 0.76301 0.0
H844 H 0.70386 0.89562 0.69667 0.0
C845 C 0.78027 0.89732 0.77888 0.0
C846 C 0.77933 0.16384 0.26936 0.0
C847 C 0.76172 0.16715 0.31266 0.0
H848 H 0.76682 0.16273 0.19832 0.0
C849 C 0.71722 0.16812 0.31819 0.0
H850 H 0.81369 0.16337 0.26465 0.0
C851 C 0.69064 0.16903 0.28046 0.0
C852 C 0.70834 0.16767 0.23703 0.0
H853 H 0.70324 0.17118 0.35144 0.0
H854 H 0.6565 0.17256 0.28512 0.0
C855 C 0.75265 0.16339 0.23166 0.0
C856 C 0.72656 0.72133 0.29438 0.0
C857 C 0.71623 0.68742 0.3164 0.0
H858 H 0.75277 0.74842 0.23673 0.0
C859 C 0.72617 0.65321 0.29445 0.0
H860 H 0.71924 0.74832 0.30968 0.0
C861 C 0.74595 0.65327 0.25152 0.0
C862 C 0.75586 0.68753 0.22974 0.0
H863 H 0.71784 0.62655 0.30991 0.0
H864 H 0.75431 0.62665 0.23594 0.0
C865 C 0.74547 0.72138 0.25191 0.0
C866 C 0.72605 0.41046 0.7525 0.0
C867 C 0.71635 0.37632 0.7303 0.0
H868 H 0.75386 0.43686 0.8113 0.0
C869 C 0.72684 0.34235 0.75211 0.0
H870 H 0.71759 0.43716 0.73721 0.0
C871 C 0.74556 0.34216 0.79466 0.0
C872 C 0.75569 0.37595 0.81711 0.0
H873 H 0.71971 0.3154 0.73659 0.0
H874 H 0.75293 0.31508 0.80967 0.0
C875 C 0.7457 0.41028 0.7955 0.0
C876 C 0.21703 0.39338 0.72881 0.0
C877 C 0.2615 0.39528 0.73432 0.0
H878 H 0.15642 0.38823 0.76192 0.0
C879 C 0.27902 0.3994 0.77756 0.0
H880 H 0.20314 0.38968 0.69561 0.0
C881 C 0.25231 0.39979 0.81525 0.0
C882 C 0.20811 0.39464 0.80995 0.0
H883 H 0.31336 0.40056 0.78226 0.0
H884 H 0.26646 0.40111 0.84858 0.0
C885 C 0.19047 0.39243 0.76654 0.0
C886 C 0.21784 0.66594 0.3171 0.0
C887 C 0.26237 0.66676 0.31161 0.0
H888 H 0.15696 0.66872 0.28405 0.0
C889 C 0.28011 0.66487 0.26824 0.0
H890 H 0.20372 0.66787 0.3504 0.0
C891 C 0.25347 0.66407 0.23052 0.0
C892 C 0.20901 0.66657 0.23595 0.0
H893 H 0.31446 0.66575 0.26353 0.0
H894 H 0.26766 0.66457 0.19718 0.0
C895 C 0.19124 0.66652 0.27937 0.0
loop_
_geom_bond_atom_site_label_1
_geom_bond_atom_site_label_2
_geom_bond_distance
_geom_bond_site_symmetry_2
_ccdc_geom_bond_type
Mn0 O5 2.095 . S
Mn0 O15 2.162 . S
Mn0 O16 2.297 . S
Mn0 O24 2.385 . S
Mn0 O25 2.209 . S
Mn0 O26 2.094 . S
Mn1 O6 2.121 . S
Mn1 N8 2.257 . S
Mn1 N17 2.282 . S
Mn1 O25 2.215 . S
Mn1 O27 2.117 . S
C2 O24 1.234 . S
C2 O25 1.283 . S
C3 O15 1.281 . S
C3 O16 1.236 . S
C4 O26 1.240 . S
C4 O27 1.264 . S
O5 Mn0 2.095 . S
O5 C14 1.250 . S
O6 Mn1 2.121 . S
O6 C14 1.258 . S
C7 N8 1.326 . S
C7 C11 1.460 . S
C7 H13 0.929 . S
N8 Mn1 2.257 . S
N8 C7 1.326 . S
N8 C12 1.362 . S
C9 C10 1.258 . S
C9 C12 1.431 . S
C9 C29 1.449 . S
C10 C9 1.258 . S
C10 C11 1.477 . S
C10 H30 0.931 . S
C11 C7 1.460 . S
C11 C10 1.477 . S
C11 H31 0.930 . S
C12 N8 1.362 . S
C12 C9 1.431 . S
C12 C22 1.476 . S
H13 C7 0.929 . S
C14 O5 1.250 . S
C14 O6 1.258 . S
O15 Mn0 2.162 . S
O15 C3 1.281 . S
O16 Mn0 2.297 . S
O16 C3 1.236 . S
N17 Mn1 2.282 . S
N17 C18 1.328 . S
N17 C22 1.318 . S
C18 N17 1.328 . S
C18 C19 1.457 . S
C18 H23 0.929 . S
C19 C18 1.457 . S
C19 C20 1.291 . S
C19 H32 0.931 . S
C20 C19 1.291 . S
C20 C21 1.373 . S
C20 H33 0.929 . S
C21 C20 1.373 . S
C21 C22 1.396 . S
C21 C28 1.403 . S
C22 C12 1.476 . S
C22 N17 1.318 . S
C22 C21 1.396 . S
H23 C18 0.929 . S
O24 Mn0 2.385 . S
O24 C2 1.234 . S
O25 Mn0 2.209 . S
O25 Mn1 2.215 . S
O25 C2 1.283 . S
O26 Mn0 2.094 . S
O26 C4 1.240 . S
O27 Mn1 2.117 . S
O27 C4 1.264 . S
C28 C21 1.403 . S
C28 C29 1.399 . S
C28 H34 0.929 . S
C29 C9 1.449 . S
C29 C28 1.399 . S
C29 H35 0.930 . S
H30 C10 0.931 . S
H31 C11 0.930 . S
H32 C19 0.931 . S
H33 C20 0.929 . S
H34 C28 0.929 . S
H35 C29 0.930 . S
Mn36 O41 2.095 . S
Mn36 O51 2.162 . S
Mn36 O52 2.297 . S
Mn36 O60 2.385 . S
Mn36 O61 2.209 . S
Mn36 O62 2.094 . S
Mn37 O42 2.121 . S
Mn37 N44 2.257 . S
Mn37 N53 2.282 . S
Mn37 O61 2.215 . S
Mn37 O63 2.117 . S
C38 O60 1.234 . S
C38 O61 1.283 . S
C39 O51 1.281 . S
C39 O52 1.236 . S
C40 O62 1.240 . S
C40 O63 1.264 . S
O41 Mn36 2.095 . S
O41 C50 1.250 . S
O42 Mn37 2.121 . S
O42 C50 1.258 . S
C43 N44 1.326 . S
C43 C47 1.460 . S
C43 H49 0.929 . S
N44 Mn37 2.257 . S
N44 C43 1.326 . S
N44 C48 1.362 . S
C45 C46 1.258 . S
C45 C48 1.431 . S
C45 C65 1.449 1_455 S
C46 C45 1.258 . S
C46 C47 1.477 . S
C46 H66 0.931 1_455 S
C47 C43 1.460 . S
C47 C46 1.477 . S
C47 H67 0.930 . S
C48 N44 1.362 . S
C48 C45 1.431 . S
C48 C58 1.476 . S
H49 C43 0.929 . S
C50 O41 1.250 . S
C50 O42 1.258 . S
O51 Mn36 2.162 . S
O51 C39 1.281 . S
O52 Mn36 2.297 . S
O52 C39 1.236 . S
N53 Mn37 2.282 . S
N53 C54 1.328 . S
N53 C58 1.318 . S
C54 N53 1.328 . S
C54 C55 1.457 . S
C54 H59 0.929 . S
C55 C54 1.457 . S
C55 C56 1.288 1_455 S
C55 H68 0.931 . S
C56 C55 1.288 1_655 S
C56 C57 1.372 1_655 S
C56 H69 0.933 . S
C57 C56 1.372 1_455 S
C57 C58 1.396 . S
C57 C64 1.403 1_455 S
C58 C48 1.476 . S
C58 N53 1.318 . S
C58 C57 1.396 . S
H59 C54 0.929 . S
O60 Mn36 2.385 . S
O60 C38 1.234 . S
O61 Mn36 2.209 . S
O61 Mn37 2.215 . S
O61 C38 1.283 . S
O62 Mn36 2.094 . S
O62 C40 1.240 . S
O63 Mn37 2.117 . S
O63 C40 1.264 . S
C64 C57 1.403 1_655 S
C64 C65 1.399 . S
C64 H70 0.929 . S
C65 C45 1.449 1_655 S
C65 C64 1.399 . S
C65 H71 0.930 . S
H66 C46 0.931 1_655 S
H67 C47 0.930 . S
H68 C55 0.931 . S
H69 C56 0.933 . S
H70 C64 0.929 . S
H71 C65 0.930 . S
Mn72 O77 2.095 . S
Mn72 O87 2.162 . S
Mn72 O88 2.297 . S
Mn72 O96 2.385 . S
Mn72 O97 2.209 . S
Mn72 O98 2.094 . S
Mn73 O78 2.121 . S
Mn73 N80 2.257 . S
Mn73 N89 2.282 . S
Mn73 O97 2.215 . S
Mn73 O99 2.117 . S
C74 O96 1.234 . S
C74 O97 1.283 . S
C75 O87 1.281 . S
C75 O88 1.236 . S
C76 O98 1.240 . S
C76 O99 1.264 . S
O77 Mn72 2.095 . S
O77 C86 1.250 . S
O78 Mn73 2.121 . S
O78 C86 1.258 . S
C79 N80 1.326 . S
C79 C83 1.460 . S
C79 H85 0.929 . S
N80 Mn73 2.257 . S
N80 C79 1.326 . S
N80 C84 1.362 . S
C81 C82 1.258 . S
C81 C84 1.431 . S
C81 C101 1.449 . S
C82 C81 1.258 . S
C82 C83 1.477 . S
C82 H102 0.931 . S
C83 C79 1.460 . S
C83 C82 1.477 . S
C83 H103 0.930 . S
C84 N80 1.362 . S
C84 C81 1.431 . S
C84 C94 1.476 . S
H85 C79 0.929 . S
C86 O77 1.250 . S
C86 O78 1.258 . S
O87 Mn72 2.162 . S
O87 C75 1.281 . S
O88 Mn72 2.297 . S
O88 C75 1.236 . S
N89 Mn73 2.282 . S
N89 C90 1.328 . S
N89 C94 1.318 . S
C90 N89 1.328 . S
C90 C91 1.457 . S
C90 H95 0.929 . S
C91 C90 1.457 . S
C91 C92 1.291 . S
C91 H104 0.931 . S
C92 C91 1.291 . S
C92 C93 1.373 . S
C92 H105 0.929 . S
C93 C92 1.373 . S
C93 C94 1.396 . S
C93 C100 1.403 . S
C94 C84 1.476 . S
C94 N89 1.318 . S
C94 C93 1.396 . S
H95 C90 0.929 . S
O96 Mn72 2.385 . S
O96 C74 1.234 . S
O97 Mn72 2.209 . S
O97 Mn73 2.215 . S
O97 C74 1.283 . S
O98 Mn72 2.094 . S
O98 C76 1.240 . S
O99 Mn73 2.117 . S
O99 C76 1.264 . S
C100 C93 1.403 . S
C100 C101 1.399 . S
C100 H106 0.929 . S
C101 C81 1.449 . S
C101 C100 1.399 . S
C101 H107 0.930 . S
H102 C82 0.931 . S
H103 C83 0.930 . S
H104 C91 0.931 . S
H105 C92 0.929 . S
H106 C100 0.929 . S
H107 C101 0.930 . S
Mn108 O113 2.095 . S
Mn108 O123 2.162 . S
Mn108 O124 2.297 . S
Mn108 O132 2.385 . S
Mn108 O133 2.209 . S
Mn108 O134 2.094 . S
Mn109 O114 2.121 . S
Mn109 N116 2.257 . S
Mn109 N125 2.282 . S
Mn109 O133 2.215 . S
Mn109 O135 2.117 . S
C110 O132 1.234 . S
C110 O133 1.283 . S
C111 O123 1.281 . S
C111 O124 1.236 . S
C112 O134 1.240 . S
C112 O135 1.264 . S
O113 Mn108 2.095 . S
O113 C122 1.250 . S
O114 Mn109 2.121 . S
O114 C122 1.258 . S
C115 N116 1.326 . S
C115 C119 1.460 . S
C115 H121 0.929 . S
N116 Mn109 2.257 . S
N116 C115 1.326 . S
N116 C120 1.362 . S
C117 C118 1.258 . S
C117 C120 1.431 . S
C117 C137 1.449 1_455 S
C118 C117 1.258 . S
C118 C119 1.477 . S
C118 H138 0.931 1_455 S
C119 C115 1.460 . S
C119 C118 1.477 . S
C119 H139 0.930 . S
C120 N116 1.362 . S
C120 C117 1.431 . S
C120 C130 1.476 . S
H121 C115 0.929 . S
C122 O113 1.250 . S
C122 O114 1.258 . S
O123 Mn108 2.162 . S
O123 C111 1.281 . S
O124 Mn108 2.297 . S
O124 C111 1.236 . S
N125 Mn109 2.282 . S
N125 C126 1.328 . S
N125 C130 1.318 . S
C126 N125 1.328 . S
C126 C127 1.457 . S
C126 H131 0.929 . S
C127 C126 1.457 . S
C127 C128 1.288 1_455 S
C127 H140 0.931 . S
C128 C127 1.288 1_655 S
C128 C129 1.372 1_655 S
C128 H141 0.933 . S
C129 C128 1.372 1_455 S
C129 C130 1.396 . S
C129 C136 1.403 1_455 S
C130 C120 1.476 . S
C130 N125 1.318 . S
C130 C129 1.396 . S
H131 C126 0.929 . S
O132 Mn108 2.385 . S
O132 C110 1.234 . S
O133 Mn108 2.209 . S
O133 Mn109 2.215 . S
O133 C110 1.283 . S
O134 Mn108 2.094 . S
O134 C112 1.240 . S
O135 Mn109 2.117 . S
O135 C112 1.264 . S
C136 C129 1.403 1_655 S
C136 C137 1.399 . S
C136 H142 0.929 . S
C137 C117 1.449 1_655 S
C137 C136 1.399 . S
C137 H143 0.930 . S
H138 C118 0.931 1_655 S
H139 C119 0.930 . S
H140 C127 0.931 . S
H141 C128 0.933 . S
H142 C136 0.929 . S
H143 C137 0.930 . S
Mn144 O149 2.095 . S
Mn144 O159 2.162 . S
Mn144 O160 2.297 . S
Mn144 O168 2.385 . S
Mn144 O169 2.209 . S
Mn144 O170 2.094 . S
Mn145 O150 2.121 . S
Mn145 N152 2.257 . S
Mn145 N161 2.282 . S
Mn145 O169 2.215 . S
Mn145 O171 2.117 . S
C146 O168 1.234 . S
C146 O169 1.283 . S
C147 O159 1.281 . S
C147 O160 1.236 . S
C148 O170 1.240 . S
C148 O171 1.264 . S
O149 Mn144 2.095 . S
O149 C158 1.250 . S
O150 Mn145 2.121 . S
O150 C158 1.258 . S
C151 N152 1.326 . S
C151 C155 1.460 . S
C151 H157 0.929 . S
N152 Mn145 2.257 . S
N152 C151 1.326 . S
N152 C156 1.362 . S
C153 C154 1.258 . S
C153 C156 1.431 . S
C153 C173 1.449 . S
C154 C153 1.258 . S
C154 C155 1.477 . S
C154 H174 0.931 . S
C155 C151 1.460 . S
C155 C154 1.477 . S
C155 H175 0.930 . S
C156 N152 1.362 . S
C156 C153 1.431 . S
C156 C166 1.476 . S
H157 C151 0.929 . S
C158 O149 1.250 . S
C158 O150 1.258 . S
O159 Mn144 2.162 . S
O159 C147 1.281 . S
O160 Mn144 2.297 . S
O160 C147 1.236 . S
N161 Mn145 2.282 . S
N161 C162 1.328 . S
N161 C166 1.318 . S
C162 N161 1.328 . S
C162 C163 1.457 . S
C162 H167 0.929 . S
C163 C162 1.457 . S
C163 C164 1.291 . S
C163 H176 0.931 . S
C164 C163 1.291 . S
C164 C165 1.373 . S
C164 H177 0.929 . S
C165 C164 1.373 . S
C165 C166 1.396 . S
C165 C172 1.403 . S
C166 C156 1.476 . S
C166 N161 1.318 . S
C166 C165 1.396 . S
H167 C162 0.929 . S
O168 Mn144 2.385 . S
O168 C146 1.234 . S
O169 Mn144 2.209 . S
O169 Mn145 2.215 . S
O169 C146 1.283 . S
O170 Mn144 2.094 . S
O170 C148 1.240 . S
O171 Mn145 2.117 . S
O171 C148 1.264 . S
C172 C165 1.403 . S
C172 C173 1.399 . S
C172 H178 0.929 . S
C173 C153 1.449 . S
C173 C172 1.399 . S
C173 H179 0.930 . S
H174 C154 0.931 . S
H175 C155 0.930 . S
H176 C163 0.931 . S
H177 C164 0.929 . S
H178 C172 0.929 . S
H179 C173 0.930 . S
Mn180 O185 2.095 . S
Mn180 O195 2.162 . S
Mn180 O196 2.297 . S
Mn180 O204 2.385 . S
Mn180 O205 2.209 . S
Mn180 O206 2.094 . S
Mn181 O186 2.121 . S
Mn181 N188 2.257 . S
Mn181 N197 2.282 . S
Mn181 O205 2.215 . S
Mn181 O207 2.117 . S
C182 O204 1.234 . S
C182 O205 1.283 . S
C183 O195 1.281 . S
C183 O196 1.236 . S
C184 O206 1.240 . S
C184 O207 1.264 . S
O185 Mn180 2.095 . S
O185 C194 1.250 . S
O186 Mn181 2.121 . S
O186 C194 1.258 . S
C187 N188 1.326 . S
C187 C191 1.460 . S
C187 H193 0.929 . S
N188 Mn181 2.257 . S
N188 C187 1.326 . S
N188 C192 1.362 . S
C189 C190 1.258 . S
C189 C192 1.431 . S
C189 C209 1.449 1_655 S
C190 C189 1.258 . S
C190 C191 1.477 . S
C190 H210 0.931 . S
C191 C187 1.460 . S
C191 C190 1.477 . S
C191 H211 0.930 . S
C192 N188 1.362 . S
C192 C189 1.431 . S
C192 C202 1.476 . S
H193 C187 0.929 . S
C194 O185 1.250 . S
C194 O186 1.258 . S
O195 Mn180 2.162 . S
O195 C183 1.281 . S
O196 Mn180 2.297 . S
O196 C183 1.236 . S
N197 Mn181 2.282 . S
N197 C198 1.328 . S
N197 C202 1.318 . S
C198 N197 1.328 . S
C198 C199 1.457 . S
C198 H203 0.929 . S
C199 C198 1.457 . S
C199 C200 1.291 . S
C199 H212 0.931 . S
C200 C199 1.291 . S
C200 C201 1.373 . S
C200 H213 0.929 1_655 S
C201 C200 1.373 . S
C201 C202 1.396 . S
C201 C208 1.403 1_655 S
C202 C192 1.476 . S
C202 N197 1.318 . S
C202 C201 1.396 . S
H203 C198 0.929 . S
O204 Mn180 2.385 . S
O204 C182 1.234 . S
O205 Mn180 2.209 . S
O205 Mn181 2.215 . S
O205 C182 1.283 . S
O206 Mn180 2.094 . S
O206 C184 1.240 . S
O207 Mn181 2.117 . S
O207 C184 1.264 . S
C208 C201 1.403 1_455 S
C208 C209 1.399 . S
C208 H214 0.929 . S
C209 C189 1.449 1_455 S
C209 C208 1.399 . S
C209 H215 0.930 . S
H210 C190 0.931 . S
H211 C191 0.930 . S
H212 C199 0.931 . S
H213 C200 0.929 1_455 S
H214 C208 0.929 . S
H215 C209 0.930 . S
Mn216 O221 2.095 . S
Mn216 O231 2.162 . S
Mn216 O232 2.297 . S
Mn216 O240 2.385 . S
Mn216 O241 2.209 . S
Mn216 O242 2.094 . S
Mn217 O222 2.121 . S
Mn217 N224 2.257 . S
Mn217 N233 2.282 . S
Mn217 O241 2.215 . S
Mn217 O243 2.117 . S
C218 O240 1.234 . S
C218 O241 1.283 . S
C219 O231 1.281 . S
C219 O232 1.236 . S
C220 O242 1.240 . S
C220 O243 1.264 . S
O221 Mn216 2.095 . S
O221 C230 1.250 . S
O222 Mn217 2.121 . S
O222 C230 1.258 . S
C223 N224 1.326 . S
C223 C227 1.460 . S
C223 H229 0.929 . S
N224 Mn217 2.257 . S
N224 C223 1.326 . S
N224 C228 1.362 . S
C225 C226 1.258 . S
C225 C228 1.431 . S
C225 C245 1.449 . S
C226 C225 1.258 . S
C226 C227 1.477 . S
C226 H246 0.931 . S
C227 C223 1.460 . S
C227 C226 1.477 . S
C227 H247 0.930 . S
C228 N224 1.362 . S
C228 C225 1.431 . S
C228 C238 1.476 . S
H229 C223 0.929 . S
C230 O221 1.250 . S
C230 O222 1.258 . S
O231 Mn216 2.162 . S
O231 C219 1.281 . S
O232 Mn216 2.297 . S
O232 C219 1.236 . S
N233 Mn217 2.282 . S
N233 C234 1.328 . S
N233 C238 1.318 . S
C234 N233 1.328 . S
C234 C235 1.457 . S
C234 H239 0.929 . S
C235 C234 1.457 . S
C235 C236 1.291 . S
C235 H248 0.931 . S
C236 C235 1.291 . S
C236 C237 1.373 . S
C236 H249 0.929 . S
C237 C236 1.373 . S
C237 C238 1.396 . S
C237 C244 1.403 . S
C238 C228 1.476 . S
C238 N233 1.318 . S
C238 C237 1.396 . S
H239 C234 0.929 . S
O240 Mn216 2.385 . S
O240 C218 1.234 . S
O241 Mn216 2.209 . S
O241 Mn217 2.215 . S
O241 C218 1.283 . S
O242 Mn216 2.094 . S
O242 C220 1.240 . S
O243 Mn217 2.117 . S
O243 C220 1.264 . S
C244 C237 1.403 . S
C244 C245 1.399 . S
C244 H250 0.929 . S
C245 C225 1.449 . S
C245 C244 1.399 . S
C245 H251 0.930 . S
H246 C226 0.931 . S
H247 C227 0.930 . S
H248 C235 0.931 . S
H249 C236 0.929 . S
H250 C244 0.929 . S
H251 C245 0.930 . S
Mn252 O257 2.095 . S
Mn252 O267 2.162 . S
Mn252 O268 2.297 . S
Mn252 O276 2.385 . S
Mn252 O277 2.209 . S
Mn252 O278 2.094 . S
Mn253 O258 2.121 . S
Mn253 N260 2.257 . S
Mn253 N269 2.282 . S
Mn253 O277 2.215 . S
Mn253 O279 2.117 . S
C254 O276 1.234 . S
C254 O277 1.283 . S
C255 O267 1.281 . S
C255 O268 1.236 . S
C256 O278 1.240 . S
C256 O279 1.264 . S
O257 Mn252 2.095 . S
O257 C266 1.250 . S
O258 Mn253 2.121 . S
O258 C266 1.258 . S
C259 N260 1.326 . S
C259 C263 1.460 . S
C259 H265 0.929 . S
N260 Mn253 2.257 . S
N260 C259 1.326 . S
N260 C264 1.362 . S
C261 C262 1.258 . S
C261 C264 1.431 . S
C261 C281 1.449 1_655 S
C262 C261 1.258 . S
C262 C263 1.477 . S
C262 H282 0.931 . S
C263 C259 1.460 . S
C263 C262 1.477 . S
C263 H283 0.930 . S
C264 N260 1.362 . S
C264 C261 1.431 . S
C264 C274 1.476 . S
H265 C259 0.929 . S
C266 O257 1.250 . S
C266 O258 1.258 . S
O267 Mn252 2.162 . S
O267 C255 1.281 . S
O268 Mn252 2.297 . S
O268 C255 1.236 . S
N269 Mn253 2.282 . S
N269 C270 1.328 . S
N269 C274 1.318 . S
C270 N269 1.328 . S
C270 C271 1.457 . S
C270 H275 0.929 . S
C271 C270 1.457 . S
C271 C272 1.291 . S
C271 H284 0.931 . S
C272 C271 1.291 . S
C272 C273 1.373 . S
C272 H285 0.929 1_655 S
C273 C272 1.373 . S
C273 C274 1.396 . S
C273 C280 1.403 1_655 S
C274 C264 1.476 . S
C274 N269 1.318 . S
C274 C273 1.396 . S
H275 C270 0.929 . S
O276 Mn252 2.385 . S
O276 C254 1.234 . S
O277 Mn252 2.209 . S
O277 Mn253 2.215 . S
O277 C254 1.283 . S
O278 Mn252 2.094 . S
O278 C256 1.240 . S
O279 Mn253 2.117 . S
O279 C256 1.264 . S
C280 C273 1.403 1_455 S
C280 C281 1.399 . S
C280 H286 0.929 . S
C281 C261 1.449 1_455 S
C281 C280 1.399 . S
C281 H287 0.930 . S
H282 C262 0.931 . S
H283 C263 0.930 . S
H284 C271 0.931 . S
H285 C272 0.929 1_455 S
H286 C280 0.929 . S
H287 C281 0.930 . S
Mn288 O293 2.095 . S
Mn288 O303 2.162 . S
Mn288 O304 2.297 . S
Mn288 O312 2.385 . S
Mn288 O313 2.209 . S
Mn288 O314 2.094 . S
Mn289 O294 2.121 . S
Mn289 N296 2.257 . S
Mn289 N305 2.282 . S
Mn289 O313 2.215 . S
Mn289 O315 2.117 . S
C290 O312 1.234 . S
C290 O313 1.283 . S
C291 O303 1.281 . S
C291 O304 1.236 . S
C292 O314 1.240 . S
C292 O315 1.264 . S
O293 Mn288 2.095 . S
O293 C302 1.250 . S
O294 Mn289 2.121 . S
O294 C302 1.258 . S
C295 N296 1.326 . S
C295 C299 1.460 . S
C295 H301 0.929 . S
N296 Mn289 2.257 . S
N296 C295 1.326 . S
N296 C300 1.362 . S
C297 C298 1.258 . S
C297 C300 1.431 . S
C297 C317 1.449 1_655 S
C298 C297 1.258 . S
C298 C299 1.477 . S
C298 H318 0.931 1_655 S
C299 C295 1.460 . S
C299 C298 1.477 . S
C299 H319 0.930 . S
C300 N296 1.362 . S
C300 C297 1.431 . S
C300 C310 1.476 . S
H301 C295 0.929 . S
C302 O293 1.250 . S
C302 O294 1.258 . S
O303 Mn288 2.162 . S
O303 C291 1.281 . S
O304 Mn288 2.297 . S
O304 C291 1.236 . S
N305 Mn289 2.282 . S
N305 C306 1.328 . S
N305 C310 1.318 . S
C306 N305 1.328 . S
C306 C307 1.457 . S
C306 H311 0.929 . S
C307 C306 1.457 . S
C307 C308 1.288 1_655 S
C307 H320 0.931 . S
C308 C307 1.288 1_455 S
C308 C309 1.372 1_455 S
C308 H321 0.933 . S
C309 C308 1.372 1_655 S
C309 C310 1.396 . S
C309 C316 1.403 1_655 S
C310 C300 1.476 . S
C310 N305 1.318 . S
C310 C309 1.396 . S
H311 C306 0.929 . S
O312 Mn288 2.385 . S
O312 C290 1.234 . S
O313 Mn288 2.209 . S
O313 Mn289 2.215 . S
O313 C290 1.283 . S
O314 Mn288 2.094 . S
O314 C292 1.240 . S
O315 Mn289 2.117 . S
O315 C292 1.264 . S
C316 C309 1.403 1_455 S
C316 C317 1.399 . S
C316 H322 0.929 . S
C317 C297 1.449 1_455 S
C317 C316 1.399 . S
C317 H323 0.930 . S
H318 C298 0.931 1_455 S
H319 C299 0.930 . S
H320 C307 0.931 . S
H321 C308 0.933 . S
H322 C316 0.929 . S
H323 C317 0.930 . S
Mn324 O329 2.095 . S
Mn324 O339 2.162 . S
Mn324 O340 2.297 . S
Mn324 O348 2.385 . S
Mn324 O349 2.209 . S
Mn324 O350 2.094 . S
Mn325 O330 2.121 . S
Mn325 N332 2.257 . S
Mn325 N341 2.282 . S
Mn325 O349 2.215 . S
Mn325 O351 2.117 . S
C326 O348 1.234 . S
C326 O349 1.283 . S
C327 O339 1.281 . S
C327 O340 1.236 . S
C328 O350 1.240 . S
C328 O351 1.264 . S
O329 Mn324 2.095 . S
O329 C338 1.250 . S
O330 Mn325 2.121 . S
O330 C338 1.258 . S
C331 N332 1.326 . S
C331 C335 1.460 . S
C331 H337 0.929 . S
N332 Mn325 2.257 . S
N332 C331 1.326 . S
N332 C336 1.362 . S
C333 C334 1.258 . S
C333 C336 1.431 . S
C333 C353 1.449 . S
C334 C333 1.258 . S
C334 C335 1.477 . S
C334 H354 0.931 . S
C335 C331 1.460 . S
C335 C334 1.477 . S
C335 H355 0.930 . S
C336 N332 1.362 . S
C336 C333 1.431 . S
C336 C346 1.476 . S
H337 C331 0.929 . S
C338 O329 1.250 . S
C338 O330 1.258 . S
O339 Mn324 2.162 . S
O339 C327 1.281 . S
O340 Mn324 2.297 . S
O340 C327 1.236 . S
N341 Mn325 2.282 . S
N341 C342 1.328 . S
N341 C346 1.318 . S
C342 N341 1.328 . S
C342 C343 1.457 . S
C342 H347 0.929 . S
C343 C342 1.457 . S
C343 C344 1.291 . S
C343 H356 0.931 . S
C344 C343 1.291 . S
C344 C345 1.373 . S
C344 H357 0.929 . S
C345 C344 1.373 . S
C345 C346 1.396 . S
C345 C352 1.403 . S
C346 C336 1.476 . S
C346 N341 1.318 . S
C346 C345 1.396 . S
H347 C342 0.929 . S
O348 Mn324 2.385 . S
O348 C326 1.234 . S
O349 Mn324 2.209 . S
O349 Mn325 2.215 . S
O349 C326 1.283 . S
O350 Mn324 2.094 . S
O350 C328 1.240 . S
O351 Mn325 2.117 . S
O351 C328 1.264 . S
C352 C345 1.403 . S
C352 C353 1.399 . S
C352 H358 0.929 . S
C353 C333 1.449 . S
C353 C352 1.399 . S
C353 H359 0.930 . S
H354 C334 0.931 . S
H355 C335 0.930 . S
H356 C343 0.931 . S
H357 C344 0.929 . S
H358 C352 0.929 . S
H359 C353 0.930 . S
Mn360 O365 2.095 . S
Mn360 O375 2.162 . S
Mn360 O376 2.297 . S
Mn360 O384 2.385 . S
Mn360 O385 2.209 . S
Mn360 O386 2.094 . S
Mn361 O366 2.121 . S
Mn361 N368 2.257 . S
Mn361 N377 2.282 . S
Mn361 O385 2.215 . S
Mn361 O387 2.117 . S
C362 O384 1.234 . S
C362 O385 1.283 . S
C363 O375 1.281 . S
C363 O376 1.236 . S
C364 O386 1.240 . S
C364 O387 1.264 . S
O365 Mn360 2.095 . S
O365 C374 1.250 . S
O366 Mn361 2.121 . S
O366 C374 1.258 . S
C367 N368 1.326 . S
C367 C371 1.460 . S
C367 H373 0.929 . S
N368 Mn361 2.257 . S
N368 C367 1.326 . S
N368 C372 1.362 . S
C369 C370 1.258 . S
C369 C372 1.431 . S
C369 C389 1.449 1_655 S
C370 C369 1.258 . S
C370 C371 1.477 . S
C370 H390 0.931 1_655 S
C371 C367 1.460 . S
C371 C370 1.477 . S
C371 H391 0.930 . S
C372 N368 1.362 . S
C372 C369 1.431 . S
C372 C382 1.476 . S
H373 C367 0.929 . S
C374 O365 1.250 . S
C374 O366 1.258 . S
O375 Mn360 2.162 . S
O375 C363 1.281 . S
O376 Mn360 2.297 . S
O376 C363 1.236 . S
N377 Mn361 2.282 . S
N377 C378 1.328 . S
N377 C382 1.318 . S
C378 N377 1.328 . S
C378 C379 1.457 . S
C378 H383 0.929 . S
C379 C378 1.457 . S
C379 C380 1.288 1_655 S
C379 H392 0.931 . S
C380 C379 1.288 1_455 S
C380 C381 1.372 1_455 S
C380 H393 0.933 . S
C381 C380 1.372 1_655 S
C381 C382 1.396 . S
C381 C388 1.403 1_655 S
C382 C372 1.476 . S
C382 N377 1.318 . S
C382 C381 1.396 . S
H383 C378 0.929 . S
O384 Mn360 2.385 . S
O384 C362 1.234 . S
O385 Mn360 2.209 . S
O385 Mn361 2.215 . S
O385 C362 1.283 . S
O386 Mn360 2.094 . S
O386 C364 1.240 . S
O387 Mn361 2.117 . S
O387 C364 1.264 . S
C388 C381 1.403 1_455 S
C388 C389 1.399 . S
C388 H394 0.929 . S
C389 C369 1.449 1_455 S
C389 C388 1.399 . S
C389 H395 0.930 . S
H390 C370 0.931 1_455 S
H391 C371 0.930 . S
H392 C379 0.931 . S
H393 C380 0.933 . S
H394 C388 0.929 . S
H395 C389 0.930 . S
Mn396 O401 2.095 . S
Mn396 O411 2.162 . S
Mn396 O412 2.297 . S
Mn396 O420 2.385 . S
Mn396 O421 2.209 . S
Mn396 O422 2.094 . S
Mn397 O402 2.121 . S
Mn397 N404 2.257 . S
Mn397 N413 2.282 . S
Mn397 O421 2.215 . S
Mn397 O423 2.117 . S
C398 O420 1.234 . S
C398 O421 1.283 . S
C399 O411 1.281 . S
C399 O412 1.236 . S
C400 O422 1.240 . S
C400 O423 1.264 . S
O401 Mn396 2.095 . S
O401 C410 1.250 . S
O402 Mn397 2.121 . S
O402 C410 1.258 . S
C403 N404 1.326 . S
C403 C407 1.460 . S
C403 H409 0.929 . S
N404 Mn397 2.257 . S
N404 C403 1.326 . S
N404 C408 1.362 . S
C405 C406 1.258 . S
C405 C408 1.431 . S
C405 C425 1.449 . S
C406 C405 1.258 . S
C406 C407 1.477 . S
C406 H426 0.931 . S
C407 C403 1.460 . S
C407 C406 1.477 . S
C407 H427 0.930 . S
C408 N404 1.362 . S
C408 C405 1.431 . S
C408 C418 1.476 . S
H409 C403 0.929 . S
C410 O401 1.250 . S
C410 O402 1.258 . S
O411 Mn396 2.162 . S
O411 C399 1.281 . S
O412 Mn396 2.297 . S
O412 C399 1.236 . S
N413 Mn397 2.282 . S
N413 C414 1.328 . S
N413 C418 1.318 . S
C414 N413 1.328 . S
C414 C415 1.457 . S
C414 H419 0.929 . S
C415 C414 1.457 . S
C415 C416 1.291 . S
C415 H428 0.931 . S
C416 C415 1.291 . S
C416 C417 1.373 . S
C416 H429 0.929 . S
C417 C416 1.373 . S
C417 C418 1.396 . S
C417 C424 1.403 . S
C418 C408 1.476 . S
C418 N413 1.318 . S
C418 C417 1.396 . S
H419 C414 0.929 . S
O420 Mn396 2.385 . S
O420 C398 1.234 . S
O421 Mn396 2.209 . S
O421 Mn397 2.215 . S
O421 C398 1.283 . S
O422 Mn396 2.094 . S
O422 C400 1.240 . S
O423 Mn397 2.117 . S
O423 C400 1.264 . S
C424 C417 1.403 . S
C424 C425 1.399 . S
C424 H430 0.929 . S
C425 C405 1.449 . S
C425 C424 1.399 . S
C425 H431 0.930 . S
H426 C406 0.931 . S
H427 C407 0.930 . S
H428 C415 0.931 . S
H429 C416 0.929 . S
H430 C424 0.929 . S
H431 C425 0.930 . S
Mn432 O437 2.095 . S
Mn432 O447 2.162 . S
Mn432 O448 2.297 . S
Mn432 O456 2.385 . S
Mn432 O457 2.209 . S
Mn432 O458 2.094 . S
Mn433 O438 2.121 . S
Mn433 N440 2.257 . S
Mn433 N449 2.282 . S
Mn433 O457 2.215 . S
Mn433 O459 2.117 . S
C434 O456 1.234 . S
C434 O457 1.283 . S
C435 O447 1.281 . S
C435 O448 1.236 . S
C436 O458 1.240 . S
C436 O459 1.264 . S
O437 Mn432 2.095 . S
O437 C446 1.250 . S
O438 Mn433 2.121 . S
O438 C446 1.258 . S
C439 N440 1.326 . S
C439 C443 1.460 . S
C439 H445 0.929 . S
N440 Mn433 2.257 . S
N440 C439 1.326 . S
N440 C444 1.362 . S
C441 C442 1.258 . S
C441 C444 1.431 . S
C441 C461 1.449 1_455 S
C442 C441 1.258 . S
C442 C443 1.477 . S
C442 H462 0.931 . S
C443 C439 1.460 . S
C443 C442 1.477 . S
C443 H463 0.930 . S
C444 N440 1.362 . S
C444 C441 1.431 . S
C444 C454 1.476 . S
H445 C439 0.929 . S
C446 O437 1.250 . S
C446 O438 1.258 . S
O447 Mn432 2.162 . S
O447 C435 1.281 . S
O448 Mn432 2.297 . S
O448 C435 1.236 . S
N449 Mn433 2.282 . S
N449 C450 1.328 . S
N449 C454 1.318 . S
C450 N449 1.328 . S
C450 C451 1.457 . S
C450 H455 0.929 . S
C451 C450 1.457 . S
C451 C452 1.291 . S
C451 H464 0.931 . S
C452 C451 1.291 . S
C452 C453 1.373 . S
C452 H465 0.929 1_455 S
C453 C452 1.373 . S
C453 C454 1.396 . S
C453 C460 1.403 1_455 S
C454 C444 1.476 . S
C454 N449 1.318 . S
C454 C453 1.396 . S
H455 C450 0.929 . S
O456 Mn432 2.385 . S
O456 C434 1.234 . S
O457 Mn432 2.209 . S
O457 Mn433 2.215 . S
O457 C434 1.283 . S
O458 Mn432 2.094 . S
O458 C436 1.240 . S
O459 Mn433 2.117 . S
O459 C436 1.264 . S
C460 C453 1.403 1_655 S
C460 C461 1.399 . S
C460 H466 0.929 . S
C461 C441 1.449 1_655 S
C461 C460 1.399 . S
C461 H467 0.930 . S
H462 C442 0.931 . S
H463 C443 0.930 . S
H464 C451 0.931 . S
H465 C452 0.929 1_655 S
H466 C460 0.929 . S
H467 C461 0.930 . S
Mn468 O473 2.095 . S
Mn468 O483 2.162 . S
Mn468 O484 2.297 . S
Mn468 O492 2.385 . S
Mn468 O493 2.209 . S
Mn468 O494 2.094 . S
Mn469 O474 2.121 . S
Mn469 N476 2.257 . S
Mn469 N485 2.282 . S
Mn469 O493 2.215 . S
Mn469 O495 2.117 . S
C470 O492 1.234 . S
C470 O493 1.283 . S
C471 O483 1.281 . S
C471 O484 1.236 . S
C472 O494 1.240 . S
C472 O495 1.264 . S
O473 Mn468 2.095 . S
O473 C482 1.250 . S
O474 Mn469 2.121 . S
O474 C482 1.258 . S
C475 N476 1.326 . S
C475 C479 1.460 . S
C475 H481 0.929 . S
N476 Mn469 2.257 . S
N476 C475 1.326 . S
N476 C480 1.362 . S
C477 C478 1.258 . S
C477 C480 1.431 . S
C477 C497 1.449 . S
C478 C477 1.258 . S
C478 C479 1.477 . S
C478 H498 0.931 . S
C479 C475 1.460 . S
C479 C478 1.477 . S
C479 H499 0.930 . S
C480 N476 1.362 . S
C480 C477 1.431 . S
C480 C490 1.476 . S
H481 C475 0.929 . S
C482 O473 1.250 . S
C482 O474 1.258 . S
O483 Mn468 2.162 . S
O483 C471 1.281 . S
O484 Mn468 2.297 . S
O484 C471 1.236 . S
N485 Mn469 2.282 . S
N485 C486 1.328 . S
N485 C490 1.318 . S
C486 N485 1.328 . S
C486 C487 1.457 . S
C486 H491 0.929 . S
C487 C486 1.457 . S
C487 C488 1.291 . S
C487 H500 0.931 . S
C488 C487 1.291 . S
C488 C489 1.373 . S
C488 H501 0.929 . S
C489 C488 1.373 . S
C489 C490 1.396 . S
C489 C496 1.403 . S
C490 C480 1.476 . S
C490 N485 1.318 . S
C490 C489 1.396 . S
H491 C486 0.929 . S
O492 Mn468 2.385 . S
O492 C470 1.234 . S
O493 Mn468 2.209 . S
O493 Mn469 2.215 . S
O493 C470 1.283 . S
O494 Mn468 2.094 . S
O494 C472 1.240 . S
O495 Mn469 2.117 . S
O495 C472 1.264 . S
C496 C489 1.403 . S
C496 C497 1.399 . S
C496 H502 0.929 . S
C497 C477 1.449 . S
C497 C496 1.399 . S
C497 H503 0.930 . S
H498 C478 0.931 . S
H499 C479 0.930 . S
H500 C487 0.931 . S
H501 C488 0.929 . S
H502 C496 0.929 . S
H503 C497 0.930 . S
Mn504 O509 2.095 . S
Mn504 O519 2.162 . S
Mn504 O520 2.297 . S
Mn504 O528 2.385 . S
Mn504 O529 2.209 . S
Mn504 O530 2.094 . S
Mn505 O510 2.121 . S
Mn505 N512 2.257 . S
Mn505 N521 2.282 . S
Mn505 O529 2.215 . S
Mn505 O531 2.117 . S
C506 O528 1.234 . S
C506 O529 1.283 . S
C507 O519 1.281 . S
C507 O520 1.236 . S
C508 O530 1.240 . S
C508 O531 1.264 . S
O509 Mn504 2.095 . S
O509 C518 1.250 . S
O510 Mn505 2.121 . S
O510 C518 1.258 . S
C511 N512 1.326 . S
C511 C515 1.460 . S
C511 H517 0.929 . S
N512 Mn505 2.257 . S
N512 C511 1.326 . S
N512 C516 1.362 . S
C513 C514 1.258 . S
C513 C516 1.431 . S
C513 C533 1.449 1_455 S
C514 C513 1.258 . S
C514 C515 1.477 . S
C514 H534 0.931 . S
C515 C511 1.460 . S
C515 C514 1.477 . S
C515 H535 0.930 . S
C516 N512 1.362 . S
C516 C513 1.431 . S
C516 C526 1.476 . S
H517 C511 0.929 . S
C518 O509 1.250 . S
C518 O510 1.258 . S
O519 Mn504 2.162 . S
O519 C507 1.281 . S
O520 Mn504 2.297 . S
O520 C507 1.236 . S
N521 Mn505 2.282 . S
N521 C522 1.328 . S
N521 C526 1.318 . S
C522 N521 1.328 . S
C522 C523 1.457 . S
C522 H527 0.929 . S
C523 C522 1.457 . S
C523 C524 1.291 . S
C523 H536 0.931 . S
C524 C523 1.291 . S
C524 C525 1.373 . S
C524 H537 0.929 1_455 S
C525 C524 1.373 . S
C525 C526 1.396 . S
C525 C532 1.403 1_455 S
C526 C516 1.476 . S
C526 N521 1.318 . S
C526 C525 1.396 . S
H527 C522 0.929 . S
O528 Mn504 2.385 . S
O528 C506 1.234 . S
O529 Mn504 2.209 . S
O529 Mn505 2.215 . S
O529 C506 1.283 . S
O530 Mn504 2.094 . S
O530 C508 1.240 . S
O531 Mn505 2.117 . S
O531 C508 1.264 . S
C532 C525 1.403 1_655 S
C532 C533 1.399 . S
C532 H538 0.929 . S
C533 C513 1.449 1_655 S
C533 C532 1.399 . S
C533 H539 0.930 . S
H534 C514 0.931 . S
H535 C515 0.930 . S
H536 C523 0.931 . S
H537 C524 0.929 1_655 S
H538 C532 0.929 . S
H539 C533 0.930 . S
Mn540 O545 2.095 . S
Mn540 O555 2.162 . S
Mn540 O556 2.297 . S
Mn540 O564 2.385 . S
Mn540 O565 2.209 . S
Mn540 O566 2.094 . S
Mn541 O546 2.121 . S
Mn541 N548 2.257 . S
Mn541 N557 2.282 . S
Mn541 O565 2.215 . S
Mn541 O567 2.117 . S
C542 O564 1.234 . S
C542 O565 1.283 . S
C543 O555 1.281 . S
C543 O556 1.236 . S
C544 O566 1.240 . S
C544 O567 1.264 . S
O545 Mn540 2.095 . S
O545 C554 1.250 . S
O546 Mn541 2.121 . S
O546 C554 1.258 . S
C547 N548 1.326 . S
C547 C551 1.460 . S
C547 H553 0.929 . S
N548 Mn541 2.257 . S
N548 C547 1.326 . S
N548 C552 1.362 . S
C549 C550 1.258 . S
C549 C552 1.431 . S
C549 C569 1.449 . S
C550 C549 1.258 . S
C550 C551 1.477 . S
C550 H570 0.931 . S
C551 C547 1.460 . S
C551 C550 1.477 . S
C551 H571 0.930 . S
C552 N548 1.362 . S
C552 C549 1.431 . S
C552 C562 1.476 . S
H553 C547 0.929 . S
C554 O545 1.250 . S
C554 O546 1.258 . S
O555 Mn540 2.162 . S
O555 C543 1.281 . S
O556 Mn540 2.297 . S
O556 C543 1.236 . S
N557 Mn541 2.282 . S
N557 C558 1.328 . S
N557 C562 1.318 . S
C558 N557 1.328 . S
C558 C559 1.457 . S
C558 H563 0.929 . S
C559 C558 1.457 . S
C559 C560 1.291 . S
C559 H572 0.931 . S
C560 C559 1.291 . S
C560 C561 1.373 . S
C560 H573 0.929 . S
C561 C560 1.373 . S
C561 C562 1.396 . S
C561 C568 1.403 . S
C562 C552 1.476 . S
C562 N557 1.318 . S
C562 C561 1.396 . S
H563 C558 0.929 . S
O564 Mn540 2.385 . S
O564 C542 1.234 . S
O565 Mn540 2.209 . S
O565 Mn541 2.215 . S
O565 C542 1.283 . S
O566 Mn540 2.094 . S
O566 C544 1.240 . S
O567 Mn541 2.117 . S
O567 C544 1.264 . S
C568 C561 1.403 . S
C568 C569 1.399 . S
C568 H574 0.929 . S
C569 C549 1.449 . S
C569 C568 1.399 . S
C569 H575 0.930 . S
H570 C550 0.931 . S
H571 C551 0.930 . S
H572 C559 0.931 . S
H573 C560 0.929 . S
H574 C568 0.929 . S
H575 C569 0.930 . S
C576 C577 1.387 . S
C576 H580 0.950 . S
C576 C585 1.390 . S
C577 C576 1.387 . S
C577 C579 1.387 1_554 S
H578 C585 0.950 . S
C579 C577 1.387 1_556 S
C579 C581 1.390 . S
C579 H583 0.950 . S
H580 C576 0.950 . S
C581 C579 1.390 . S
C581 C582 1.387 . S
C581 H584 0.950 . S
C582 C581 1.387 . S
C582 C585 1.387 1_556 S
H583 C579 0.950 . S
H584 C581 0.950 . S
C585 C576 1.390 . S
C585 H578 0.950 . S
C585 C582 1.387 1_554 S
C586 C587 1.387 . S
C586 H590 0.950 . S
C586 C595 1.390 . S
C587 C586 1.387 . S
C587 C589 1.387 . S
H588 C595 0.950 . S
C589 C587 1.387 . S
C589 C591 1.390 . S
C589 H593 0.950 . S
H590 C586 0.950 . S
C591 C589 1.390 . S
C591 C592 1.387 . S
C591 H594 0.950 . S
C592 C591 1.387 . S
C592 C595 1.387 . S
H593 C589 0.950 . S
H594 C591 0.950 . S
C595 C586 1.390 . S
C595 H588 0.950 . S
C595 C592 1.387 . S
C596 C597 1.387 1_554 S
C596 H600 0.950 . S
C596 C605 1.390 . S
C597 C596 1.387 1_556 S
C597 C599 1.387 . S
H598 C605 0.950 . S
C599 C597 1.387 . S
C599 C601 1.390 . S
C599 H603 0.950 . S
H600 C596 0.950 . S
C601 C599 1.390 . S
C601 C602 1.387 1_556 S
C601 H604 0.950 . S
C602 C601 1.387 1_554 S
C602 C605 1.387 . S
H603 C599 0.950 . S
H604 C601 0.950 . S
C605 C596 1.390 . S
C605 H598 0.950 . S
C605 C602 1.387 . S
C606 C607 1.387 . S
C606 H610 0.950 . S
C606 C615 1.390 . S
C607 C606 1.387 . S
C607 C609 1.387 . S
H608 C615 0.950 . S
C609 C607 1.387 . S
C609 C611 1.390 . S
C609 H613 0.950 . S
H610 C606 0.950 . S
C611 C609 1.390 . S
C611 C612 1.387 . S
C611 H614 0.950 . S
C612 C611 1.387 . S
C612 C615 1.387 . S
H613 C609 0.950 . S
H614 C611 0.950 . S
C615 C606 1.390 . S
C615 H608 0.950 . S
C615 C612 1.387 . S
C616 C617 1.387 . S
C616 H620 0.950 . S
C616 C625 1.390 . S
C617 C616 1.387 . S
C617 C619 1.387 1_554 S
H618 C625 0.950 . S
C619 C617 1.387 1_556 S
C619 C621 1.390 . S
C619 H623 0.950 . S
H620 C616 0.950 . S
C621 C619 1.390 . S
C621 C622 1.387 . S
C621 H624 0.950 . S
C622 C621 1.387 . S
C622 C625 1.387 1_556 S
H623 C619 0.950 . S
H624 C621 0.950 . S
C625 C616 1.390 . S
C625 H618 0.950 . S
C625 C622 1.387 1_554 S
C626 C627 1.387 . S
C626 H630 0.950 . S
C626 C635 1.390 . S
C627 C626 1.387 . S
C627 C629 1.387 . S
H628 C635 0.950 . S
C629 C627 1.387 . S
C629 C631 1.390 . S
C629 H633 0.950 . S
H630 C626 0.950 . S
C631 C629 1.390 . S
C631 C632 1.387 . S
C631 H634 0.950 . S
C632 C631 1.387 . S
C632 C635 1.387 . S
H633 C629 0.950 . S
H634 C631 0.950 . S
C635 C626 1.390 . S
C635 H628 0.950 . S
C635 C632 1.387 . S
C636 C637 1.387 1_554 S
C636 H640 0.950 . S
C636 C645 1.390 . S
C637 C636 1.387 1_556 S
C637 C639 1.387 . S
H638 C645 0.950 . S
C639 C637 1.387 . S
C639 C641 1.390 . S
C639 H643 0.950 . S
H640 C636 0.950 . S
C641 C639 1.390 . S
C641 C642 1.387 1_556 S
C641 H644 0.950 . S
C642 C641 1.387 1_554 S
C642 C645 1.387 . S
H643 C639 0.950 . S
H644 C641 0.950 . S
C645 C636 1.390 . S
C645 H638 0.950 . S
C645 C642 1.387 . S
C646 C647 1.387 . S
C646 H650 0.950 . S
C646 C655 1.390 . S
C647 C646 1.387 . S
C647 C649 1.387 . S
H648 C655 0.950 . S
C649 C647 1.387 . S
C649 C651 1.390 . S
C649 H653 0.950 . S
H650 C646 0.950 . S
C651 C649 1.390 . S
C651 C652 1.387 . S
C651 H654 0.950 . S
C652 C651 1.387 . S
C652 C655 1.387 . S
H653 C649 0.950 . S
H654 C651 0.950 . S
C655 C646 1.390 . S
C655 H648 0.950 . S
C655 C652 1.387 . S
C656 C657 1.387 . S
C656 H660 0.950 . S
C656 C665 1.390 1_544 S
C657 C656 1.387 . S
C657 C659 1.387 . S
H658 C665 0.950 . S
C659 C657 1.387 . S
C659 C661 1.390 1_544 S
C659 H663 0.950 . S
H660 C656 0.950 . S
C661 C659 1.390 1_566 S
C661 C662 1.387 . S
C661 H664 0.950 . S
C662 C661 1.387 . S
C662 C665 1.387 . S
H663 C659 0.950 . S
H664 C661 0.950 . S
C665 C656 1.390 1_566 S
C665 H658 0.950 . S
C665 C662 1.387 . S
C666 C667 1.387 . S
C666 H670 0.950 . S
C666 C675 1.390 1_565 S
C667 C666 1.387 . S
C667 C669 1.387 . S
H668 C675 0.950 . S
C669 C667 1.387 . S
C669 C671 1.390 1_565 S
C669 H673 0.950 . S
H670 C666 0.950 . S
C671 C669 1.390 1_545 S
C671 C672 1.387 . S
C671 H674 0.950 . S
C672 C671 1.387 . S
C672 C675 1.387 . S
H673 C669 0.950 . S
H674 C671 0.950 . S
C675 C666 1.390 1_545 S
C675 H668 0.950 . S
C675 C672 1.387 . S
C676 C677 1.387 . S
C676 H680 0.950 . S
C676 C685 1.390 1_566 S
C677 C676 1.387 . S
C677 C679 1.387 . S
H678 C685 0.950 . S
C679 C677 1.387 . S
C679 C681 1.390 1_566 S
C679 H683 0.950 . S
H680 C676 0.950 . S
C681 C679 1.390 1_544 S
C681 C682 1.387 . S
C681 H684 0.950 . S
C682 C681 1.387 . S
C682 C685 1.387 . S
H683 C679 0.950 . S
H684 C681 0.950 . S
C685 C676 1.390 1_544 S
C685 H678 0.950 . S
C685 C682 1.387 . S
C686 C687 1.387 . S
C686 H690 0.950 . S
C686 C695 1.390 1_545 S
C687 C686 1.387 . S
C687 C689 1.387 . S
H688 C695 0.950 . S
C689 C687 1.387 . S
C689 C691 1.390 1_545 S
C689 H693 0.950 . S
H690 C686 0.950 . S
C691 C689 1.390 1_565 S
C691 C692 1.387 . S
C691 H694 0.950 . S
C692 C691 1.387 . S
C692 C695 1.387 . S
H693 C689 0.950 . S
H694 C691 0.950 . S
C695 C686 1.390 1_565 S
C695 H688 0.950 . S
C695 C692 1.387 . S
C696 C697 1.387 . S
C696 H700 0.950 . S
C696 C705 1.390 1_556 S
C697 C696 1.387 . S
C697 C699 1.387 . S
H698 C705 0.950 . S
C699 C697 1.387 . S
C699 C701 1.390 1_556 S
C699 H703 0.950 . S
H700 C696 0.950 . S
C701 C699 1.390 1_554 S
C701 C702 1.387 . S
C701 H704 0.950 . S
C702 C701 1.387 . S
C702 C705 1.387 . S
H703 C699 0.950 . S
H704 C701 0.950 . S
C705 C696 1.390 1_554 S
C705 H698 0.950 . S
C705 C702 1.387 . S
C706 C707 1.387 . S
C706 H710 0.950 . S
C706 C715 1.390 . S
C707 C706 1.387 . S
C707 C709 1.387 . S
H708 C715 0.950 . S
C709 C707 1.387 . S
C709 C711 1.390 . S
C709 H713 0.950 . S
H710 C706 0.950 . S
C711 C709 1.390 . S
C711 C712 1.387 . S
C711 H714 0.950 . S
C712 C711 1.387 . S
C712 C715 1.387 . S
H713 C709 0.950 . S
H714 C711 0.950 . S
C715 C706 1.390 . S
C715 H708 0.950 . S
C715 C712 1.387 . S
C716 C717 1.387 . S
C716 H720 0.950 . S
C716 C725 1.390 1_554 S
C717 C716 1.387 . S
C717 C719 1.387 . S
H718 C725 0.950 . S
C719 C717 1.387 . S
C719 C721 1.390 1_554 S
C719 H723 0.950 . S
H720 C716 0.950 . S
C721 C719 1.390 1_556 S
C721 C722 1.387 . S
C721 H724 0.950 . S
C722 C721 1.387 . S
C722 C725 1.387 . S
H723 C719 0.950 . S
H724 C721 0.950 . S
C725 C716 1.390 1_556 S
C725 H718 0.950 . S
C725 C722 1.387 . S
C726 C727 1.387 . S
C726 H730 0.950 . S
C726 C735 1.390 . S
C727 C726 1.387 . S
C727 C729 1.387 . S
H728 C735 0.950 . S
C729 C727 1.387 . S
C729 C731 1.390 . S
C729 H733 0.950 . S
H730 C726 0.950 . S
C731 C729 1.390 . S
C731 C732 1.387 . S
C731 H734 0.950 . S
C732 C731 1.387 . S
C732 C735 1.387 . S
H733 C729 0.950 . S
H734 C731 0.950 . S
C735 C726 1.390 . S
C735 H728 0.950 . S
C735 C732 1.387 . S
C736 C737 1.387 . S
C736 H740 0.950 . S
C736 C745 1.390 . S
C737 C736 1.387 . S
C737 C739 1.387 . S
H738 C745 0.950 . S
C739 C737 1.387 . S
C739 C741 1.390 . S
C739 H743 0.950 . S
H740 C736 0.950 . S
C741 C739 1.390 . S
C741 C742 1.387 . S
C741 H744 0.950 . S
C742 C741 1.387 . S
C742 C745 1.387 . S
H743 C739 0.950 . S
H744 C741 0.950 . S
C745 C736 1.390 . S
C745 H738 0.950 . S
C745 C742 1.387 . S
C746 C747 1.387 . S
C746 H750 0.950 . S
C746 C755 1.390 1_655 S
C747 C746 1.387 . S
C747 C749 1.387 . S
H748 C755 0.950 . S
C749 C747 1.387 . S
C749 C751 1.390 1_655 S
C749 H753 0.950 . S
H750 C746 0.950 . S
C751 C749 1.390 1_455 S
C751 C752 1.387 . S
C751 H754 0.950 . S
C752 C751 1.387 . S
C752 C755 1.387 . S
H753 C749 0.950 . S
H754 C751 0.950 . S
C755 C746 1.390 1_455 S
C755 H748 0.950 . S
C755 C752 1.387 . S
C756 C757 1.387 . S
C756 H760 0.950 . S
C756 C765 1.390 . S
C757 C756 1.387 . S
C757 C759 1.387 . S
H758 C765 0.950 . S
C759 C757 1.387 . S
C759 C761 1.390 . S
C759 H763 0.950 . S
H760 C756 0.950 . S
C761 C759 1.390 . S
C761 C762 1.387 . S
C761 H764 0.950 . S
C762 C761 1.387 . S
C762 C765 1.387 . S
H763 C759 0.950 . S
H764 C761 0.950 . S
C765 C756 1.390 . S
C765 H758 0.950 . S
C765 C762 1.387 . S
C766 C767 1.387 . S
C766 H770 0.950 . S
C766 C775 1.390 1_455 S
C767 C766 1.387 . S
C767 C769 1.387 . S
H768 C775 0.950 . S
C769 C767 1.387 . S
C769 C771 1.390 1_455 S
C769 H773 0.950 . S
H770 C766 0.950 . S
C771 C769 1.390 1_655 S
C771 C772 1.387 . S
C771 H774 0.950 . S
C772 C771 1.387 . S
C772 C775 1.387 . S
H773 C769 0.950 . S
H774 C771 0.950 . S
C775 C766 1.390 1_655 S
C775 H768 0.950 . S
C775 C772 1.387 . S
C776 C777 1.387 . S
C776 H780 0.950 . S
C776 C785 1.390 1_455 S
C777 C776 1.387 . S
C777 C779 1.387 . S
H778 C785 0.950 . S
C779 C777 1.387 . S
C779 C781 1.390 1_455 S
C779 H783 0.950 . S
H780 C776 0.950 . S
C781 C779 1.390 1_655 S
C781 C782 1.387 . S
C781 H784 0.950 . S
C782 C781 1.387 . S
C782 C785 1.387 . S
H783 C779 0.950 . S
H784 C781 0.950 . S
C785 C776 1.390 1_655 S
C785 H778 0.950 . S
C785 C782 1.387 . S
C786 C787 1.387 . S
C786 H790 0.950 . S
C786 C795 1.390 . S
C787 C786 1.387 . S
C787 C789 1.387 . S
H788 C795 0.950 . S
C789 C787 1.387 . S
C789 C791 1.390 . S
C789 H793 0.950 . S
H790 C786 0.950 . S
C791 C789 1.390 . S
C791 C792 1.387 . S
C791 H794 0.950 . S
C792 C791 1.387 . S
C792 C795 1.387 . S
H793 C789 0.950 . S
H794 C791 0.950 . S
C795 C786 1.390 . S
C795 H788 0.950 . S
C795 C792 1.387 . S
C796 C797 1.387 . S
C796 H800 0.950 . S
C796 C805 1.390 1_455 S
C797 C796 1.387 . S
C797 C799 1.387 . S
H798 C805 0.950 . S
C799 C797 1.387 . S
C799 C801 1.390 1_455 S
C799 H803 0.950 . S
H800 C796 0.950 . S
C801 C799 1.390 1_655 S
C801 C802 1.387 . S
C801 H804 0.950 . S
C802 C801 1.387 . S
C802 C805 1.387 . S
H803 C799 0.950 . S
H804 C801 0.950 . S
C805 C796 1.390 1_655 S
C805 H798 0.950 . S
C805 C802 1.387 . S
C806 C807 1.387 . S
C806 H810 0.950 . S
C806 C815 1.390 . S
C807 C806 1.387 . S
C807 C809 1.387 . S
H808 C815 0.950 . S
C809 C807 1.387 . S
C809 C811 1.390 . S
C809 H813 0.950 . S
H810 C806 0.950 . S
C811 C809 1.390 . S
C811 C812 1.387 . S
C811 H814 0.950 . S
C812 C811 1.387 . S
C812 C815 1.387 . S
H813 C809 0.950 . S
H814 C811 0.950 . S
C815 C806 1.390 . S
C815 H808 0.950 . S
C815 C812 1.387 . S
C816 C817 1.387 . S
C816 H820 0.950 . S
C816 C825 1.390 . S
C817 C816 1.387 . S
C817 C819 1.387 . S
H818 C825 0.950 . S
C819 C817 1.387 . S
C819 C821 1.390 . S
C819 H823 0.950 . S
H820 C816 0.950 . S
C821 C819 1.390 . S
C821 C822 1.387 . S
C821 H824 0.950 . S
C822 C821 1.387 . S
C822 C825 1.387 . S
H823 C819 0.950 . S
H824 C821 0.950 . S
C825 C816 1.390 . S
C825 H818 0.950 . S
C825 C822 1.387 . S
C826 C827 1.387 . S
C826 H830 0.950 . S
C826 C835 1.390 . S
C827 C826 1.387 . S
C827 C829 1.387 . S
H828 C835 0.950 . S
C829 C827 1.387 . S
C829 C831 1.390 . S
C829 H833 0.950 . S
H830 C826 0.950 . S
C831 C829 1.390 . S
C831 C832 1.387 . S
C831 H834 0.950 . S
C832 C831 1.387 . S
C832 C835 1.387 . S
H833 C829 0.950 . S
H834 C831 0.950 . S
C835 C826 1.390 . S
C835 H828 0.950 . S
C835 C832 1.387 . S
C836 C837 1.387 . S
C836 H840 0.950 . S
C836 C845 1.390 . S
C837 C836 1.387 . S
C837 C839 1.387 . S
H838 C845 0.950 . S
C839 C837 1.387 . S
C839 C841 1.390 . S
C839 H843 0.950 . S
H840 C836 0.950 . S
C841 C839 1.390 . S
C841 C842 1.387 . S
C841 H844 0.950 . S
C842 C841 1.387 . S
C842 C845 1.387 . S
H843 C839 0.950 . S
H844 C841 0.950 . S
C845 C836 1.390 . S
C845 H838 0.950 . S
C845 C842 1.387 . S
C846 C847 1.387 . S
C846 H850 0.950 . S
C846 C855 1.390 . S
C847 C846 1.387 . S
C847 C849 1.387 . S
H848 C855 0.950 . S
C849 C847 1.387 . S
C849 C851 1.390 . S
C849 H853 0.950 . S
H850 C846 0.950 . S
C851 C849 1.390 . S
C851 C852 1.387 . S
C851 H854 0.950 . S
C852 C851 1.387 . S
C852 C855 1.387 . S
H853 C849 0.950 . S
H854 C851 0.950 . S
C855 C846 1.390 . S
C855 H848 0.950 . S
C855 C852 1.387 . S
C856 C857 1.387 . S
C856 H860 0.950 . S
C856 C865 1.390 . S
C857 C856 1.387 . S
C857 C859 1.387 . S
H858 C865 0.950 . S
C859 C857 1.387 . S
C859 C861 1.390 . S
C859 H863 0.950 . S
H860 C856 0.950 . S
C861 C859 1.390 . S
C861 C862 1.387 . S
C861 H864 0.950 . S
C862 C861 1.387 . S
C862 C865 1.387 . S
H863 C859 0.950 . S
H864 C861 0.950 . S
C865 C856 1.390 . S
C865 H858 0.950 . S
C865 C862 1.387 . S
C866 C867 1.387 . S
C866 H870 0.950 . S
C866 C875 1.390 . S
C867 C866 1.387 . S
C867 C869 1.387 . S
H868 C875 0.950 . S
C869 C867 1.387 . S
C869 C871 1.390 . S
C869 H873 0.950 . S
H870 C866 0.950 . S
C871 C869 1.390 . S
C871 C872 1.387 . S
C871 H874 0.950 . S
C872 C871 1.387 . S
C872 C875 1.387 . S
H873 C869 0.950 . S
H874 C871 0.950 . S
C875 C866 1.390 . S
C875 H868 0.950 . S
C875 C872 1.387 . S
C876 C877 1.387 . S
C876 H880 0.950 . S
C876 C885 1.390 . S
C877 C876 1.387 . S
C877 C879 1.387 . S
H878 C885 0.950 . S
C879 C877 1.387 . S
C879 C881 1.390 . S
C879 H883 0.950 . S
H880 C876 0.950 . S
C881 C879 1.390 . S
C881 C882 1.387 . S
C881 H884 0.950 . S
C882 C881 1.387 . S
C882 C885 1.387 . S
H883 C879 0.950 . S
H884 C881 0.950 . S
C885 C876 1.390 . S
C885 H878 0.950 . S
C885 C882 1.387 . S
C886 C887 1.387 . S
C886 H890 0.950 . S
C886 C895 1.390 . S
C887 C886 1.387 . S
C887 C889 1.387 . S
H888 C895 0.950 . S
C889 C887 1.387 . S
C889 C891 1.390 . S
C889 H893 0.950 . S
H890 C886 0.950 . S
C891 C889 1.390 . S
C891 C892 1.387 . S
C891 H894 0.950 . S
C892 C891 1.387 . S
C892 C895 1.387 . S
H893 C889 0.950 . S
H894 C891 0.950 . S
C895 C886 1.390 . S
C895 H888 0.950 . S
C895 C892 1.387 . S
C577 C4 1.507 . S
C582 C446 1.453 . S
C587 C482 1.451 . S
C592 C40 1.507 . S
C597 C76 1.507 . S
C602 C518 1.451 . S
C607 C554 1.451 . S
C612 C112 1.507 . S
C617 C292 1.507 . S
C622 C158 1.452 . S
C627 C194 1.452 . S
C632 C328 1.507 . S
C637 C364 1.507 . S
C642 C230 1.450 . S
C647 C266 1.450 . S
C652 C400 1.507 . S
C657 C3 1.613 . S
C662 C75 1.613 . S
C667 C39 1.613 . S
C672 C111 1.613 . S
C677 C147 1.521 . S
C682 C219 1.521 . S
C687 C183 1.521 . S
C692 C255 1.521 . S
C697 C363 1.616 . S
C702 C291 1.616 . S
C707 C327 1.615 . S
C712 C399 1.615 . S
C717 C507 1.523 . S
C722 C435 1.523 . S
C727 C471 1.521 . S
C732 C543 1.521 . S
C737 C218 1.495 . S
C742 C2 1.486 . S
C747 C254 1.494 . S
C752 C38 1.487 . S
C757 C74 1.487 . S
C762 C146 1.494 . S
C767 C110 1.486 . S
C772 C182 1.495 . S
C777 C506 1.494 . S
C782 C290 1.487 . S
C787 C326 1.487 . S
C792 C542 1.494 . S
C797 C434 1.494 . S
C802 C362 1.488 . S
C807 C398 1.487 . S
C812 C470 1.495 . S
C817 C14 1.596 . S
C822 C122 1.596 . S
C827 C86 1.594 . S
C832 C50 1.594 . S
C837 C148 1.330 . S
C842 C256 1.330 . S
C847 C184 1.330 . S
C852 C220 1.330 . S
C857 C410 1.594 . S
C862 C302 1.594 . S
C867 C338 1.596 . S
C872 C374 1.596 . S
C877 C544 1.331 . S
C882 C436 1.331 . S
C887 C472 1.331 . S
C892 C508 1.331 . S
