# Generated by pormake.
# Topology wmc, (6)-cn, num edge types: 1
# Building blocks:
#     Node 0, Type 0, BuildingBlock: JUFBIX_clean_sbu_0, # of connection points: 6
#     Node 1, Type 0, BuildingBlock: JUFBIX_clean_sbu_0, # of connection points: 6
#     Node 2, Type 0, BuildingBlock: JUFBIX_clean_sbu_0, # of connection points: 6
#     Node 3, Type 0, BuildingBlock: JUFBIX_clean_sbu_0, # of connection points: 6
#     Node 4, Type 0, BuildingBlock: JUFBIX_clean_sbu_0, # of connection points: 6
#     Node 5, Type 0, BuildingBlock: JUFBIX_clean_sbu_0, # of connection points: 6
#     Node 6, Type 0, BuildingBlock: JUFBIX_clean_sbu_0, # of connection points: 6
#     Node 7, Type 0, BuildingBlock: JUFBIX_clean_sbu_0, # of connection points: 6
#     Node 8, Type 0, BuildingBlock: JUFBIX_clean_sbu_0, # of connection points: 6
#     Node 9, Type 0, BuildingBlock: JUFBIX_clean_sbu_0, # of connection points: 6
#     Node 10, Type 0, BuildingBlock: JUFBIX_clean_sbu_0, # of connection points: 6
#     Node 11, Type 0, BuildingBlock: JUFBIX_clean_sbu_0, # of connection points: 6
#     Node 12, Type 0, BuildingBlock: JUFBIX_clean_sbu_0, # of connection points: 6
#     Node 13, Type 0, BuildingBlock: JUFBIX_clean_sbu_0, # of connection points: 6
#     Node 14, Type 0, BuildingBlock: JUFBIX_clean_sbu_0, # of connection points: 6
#     Node 15, Type 0, BuildingBlock: JUFBIX_clean_sbu_0, # of connection points: 6
#     Node 16, Type 0, BuildingBlock: JUFBIX_clean_sbu_0, # of connection points: 6
#     Node 17, Type 0, BuildingBlock: JUFBIX_clean_sbu_0, # of connection points: 6
#     Edge 18, Type (0, 0), None
#     Edge 19, Type (0, 0), None
#     Edge 20, Type (0, 0), None
#     Edge 21, Type (0, 0), None
#     Edge 22, Type (0, 0), None
#     Edge 23, Type (0, 0), None
#     Edge 24, Type (0, 0), None
#     Edge 25, Type (0, 0), None
#     Edge 26, Type (0, 0), None
#     Edge 27, Type (0, 0), None
#     Edge 28, Type (0, 0), None
#     Edge 29, Type (0, 0), None
#     Edge 30, Type (0, 0), None
#     Edge 31, Type (0, 0), None
#     Edge 32, Type (0, 0), None
#     Edge 33, Type (0, 0), None
#     Edge 34, Type (0, 0), None
#     Edge 35, Type (0, 0), None
#     Edge 36, Type (0, 0), None
#     Edge 37, Type (0, 0), None
#     Edge 38, Type (0, 0), None
#     Edge 39, Type (0, 0), None
#     Edge 40, Type (0, 0), None
#     Edge 41, Type (0, 0), None
#     Edge 42, Type (0, 0), None
#     Edge 43, Type (0, 0), None
#     Edge 44, Type (0, 0), None
#     Edge 45, Type (0, 0), None
#     Edge 46, Type (0, 0), None
#     Edge 47, Type (0, 0), None
#     Edge 48, Type (0, 0), None
#     Edge 49, Type (0, 0), None
#     Edge 50, Type (0, 0), None
#     Edge 51, Type (0, 0), None
#     Edge 52, Type (0, 0), None
#     Edge 53, Type (0, 0), None
#     Edge 54, Type (0, 0), None
#     Edge 55, Type (0, 0), None
#     Edge 56, Type (0, 0), None
#     Edge 57, Type (0, 0), None
#     Edge 58, Type (0, 0), None
#     Edge 59, Type (0, 0), None
#     Edge 60, Type (0, 0), None
#     Edge 61, Type (0, 0), None
#     Edge 62, Type (0, 0), None
#     Edge 63, Type (0, 0), None
#     Edge 64, Type (0, 0), None
#     Edge 65, Type (0, 0), None
#     Edge 66, Type (0, 0), None
#     Edge 67, Type (0, 0), None
#     Edge 68, Type (0, 0), None
#     Edge 69, Type (0, 0), None
#     Edge 70, Type (0, 0), None
#     Edge 71, Type (0, 0), None
# Relax obj value: 0.573
# Max RMSD: 0.269
# Mean RMSD: 0.269
data_MOF--net-wmc--node1-JUFBIX_clean_sbu_0--edge1-none
_symmetry_space_group_name_H-M    P1
_symmetry_Int_Tables_number       1
_symmetry_cell_setting            triclinic
loop_
_symmetry_equiv_pos_as_xyz
'x, y, z'
_cell_length_a     25.404802
_cell_length_b     25.403818
_cell_length_c     12.803667
_cell_angle_alpha  90.000616
_cell_angle_beta   90.004332
_cell_angle_gamma 119.99631
loop_
_atom_site_label
_atom_site_type_symbol
_atom_site_fract_x
_atom_site_fract_y
_atom_site_fract_z
_atom_type_partial_charge
Co0 Co 0.64777 0.12597 -0.00575 0.0
C1 C 0.52208 0.07885 0.95915 0.0
Co2 Co 0.62606 0.19973 0.98556 0.0
C3 C 0.75043 0.12574 0.10095 0.0
C4 C 0.71242 1.05236 -0.00886 0.0
N5 N 0.69971 0.09218 0.03725 0.0
N6 N 0.79528 0.11187 0.08976 0.0
C7 C 0.76914 0.06315 0.02452 0.0
H8 H 0.75666 0.16382 0.14819 0.0
H9 H 0.68536 1.02155 0.92965 0.0
C10 C 0.74423 0.24744 -0.00223 0.0
N11 N 0.60055 0.25543 0.96815 0.0
C12 C 0.63403 0.3156 -0.0127 0.0
C13 C 0.54344 0.24502 0.95238 0.0
N14 N 0.60023 0.34225 0.98526 0.0
C15 C 0.54319 0.29853 0.96267 0.0
C16 C 0.62081 0.16233 0.18362 0.0
O17 O 0.72554 0.19223 -0.01083 0.0
O18 O 0.70588 0.26418 0.00906 0.0
O19 O 0.60924 0.19761 0.13121 0.0
O20 O 0.63921 0.13093 0.1376 0.0
O21 O 0.54636 0.1362 0.95796 0.0
H22 H 0.50366 0.2014 0.93825 0.0
H23 H 0.68199 0.34013 0.0053 0.0
O24 O 0.55686 1.05636 0.98493 0.0
O25 O 0.657 0.12111 0.84955 0.0
O26 O 0.64399 0.20115 0.84001 0.0
C27 C 0.65686 0.16364 0.79658 0.0
H28 H 0.79176 1.03987 -0.00579 0.0
H29 H 0.50421 0.30477 0.95463 0.0
Co30 Co 1.01999 0.55098 -0.00584 0.0
C31 C 1.06713 0.47243 0.95903 0.0
Co32 Co 0.94625 0.45552 0.98551 0.0
C33 C 1.02021 0.65388 0.10083 0.0
C34 C 0.09362 0.68924 -0.0089 0.0
N35 N 1.05377 0.63671 0.03715 0.0
N36 N 1.0341 0.7126 0.08967 0.0
C37 C 1.08284 0.73518 0.0245 0.0
H38 H 0.98212 0.62202 0.14804 0.0
H39 H 0.12445 0.693 0.92966 0.0
C40 C 0.89852 0.52595 -0.00222 0.0
N41 N 0.89057 0.3743 0.96809 0.0
C42 C 0.83038 0.34762 -0.01301 0.0
C43 C 0.901 0.32759 0.95263 0.0
N44 N 0.80373 0.28717 0.98511 0.0
C45 C 0.84749 0.27384 0.96286 0.0
C46 C 0.98369 0.48767 0.18354 0.0
O47 O 0.95372 0.56247 -0.01091 0.0
O48 O 0.8818 0.47087 0.00911 0.0
O49 O 0.94843 0.44081 0.13114 0.0
O50 O 1.01505 0.53748 0.13752 0.0
O51 O 1.00979 0.43936 0.95783 0.0
H52 H 0.94465 0.33142 0.93878 0.0
H53 H 0.80582 0.37106 0.0047 0.0
O54 O 0.08961 0.5297 0.98483 0.0
O55 O 1.02482 0.56506 0.84946 0.0
O56 O 0.94478 0.47202 0.83996 0.0
C57 C 0.98228 0.5224 0.79651 0.0
H58 H 0.10615 0.78109 -0.00574 0.0
H59 H 0.84127 0.22861 0.95505 0.0
Co60 Co 0.59498 0.49822 -0.00576 0.0
C61 C 0.67353 0.6239 0.95912 0.0
Co62 Co 0.69043 0.51992 0.98566 0.0
C63 C 0.49208 0.39553 0.10086 0.0
C64 C 0.45672 0.43358 -0.00889 0.0
N65 N 0.50925 0.44626 0.03719 0.0
N66 N 0.43336 0.3507 0.08968 0.0
C67 C 0.41078 0.37686 0.02448 0.0
H68 H 0.52393 0.38929 0.14809 0.0
H69 H 0.45297 0.46066 0.92967 0.0
C70 C 0.62 0.40177 -0.00211 0.0
N71 N 0.77165 0.54544 0.96826 0.0
C72 C 0.79833 0.51193 -0.01287 0.0
C73 C 0.81834 0.60257 0.95274 0.0
N74 N 0.85878 0.54572 0.98518 0.0
C75 C 0.87209 0.6028 0.96291 0.0
C76 C 0.65828 0.52522 0.18366 0.0
O77 O 0.58349 0.42046 -0.01086 0.0
O78 O 0.67508 0.44011 0.00932 0.0
O79 O 0.70514 0.53682 0.13128 0.0
O80 O 0.60848 0.50677 0.13761 0.0
O81 O 0.70659 0.59961 0.95794 0.0
H82 H 0.81451 0.64239 0.93886 0.0
H83 H 0.7749 0.46393 0.00486 0.0
O84 O 0.61627 0.58913 0.98493 0.0
O85 O 0.58091 0.48899 0.84954 0.0
O86 O 0.67393 0.50193 0.84011 0.0
C87 C 0.62357 0.48909 0.79662 0.0
H88 H 0.36489 0.35426 -0.0058 0.0
H89 H 0.91732 0.64181 0.95503 0.0
Co90 Co 0.94625 0.51993 0.48549 0.0
C91 C 0.89852 0.40176 0.49773 0.0
Co92 Co 1.02 0.49821 0.49417 0.0
C93 C 0.83038 0.51196 0.48711 0.0
C94 C 0.90098 0.60258 0.45249 0.0
N95 N 0.89056 0.54546 0.46808 0.0
N96 N 0.80373 0.54577 0.4852 0.0
C97 C 0.84747 0.60283 0.46278 0.0
H98 H 0.80583 0.46398 0.50495 0.0
H99 H 0.94461 0.64238 0.4385 0.0
C100 C 1.06713 0.6239 0.45906 0.0
N101 N 1.05378 0.44626 0.53718 0.0
C102 C 1.02022 0.39554 0.60087 0.0
C103 C 0.09361 0.43355 0.49112 0.0
N104 N 1.0341 0.3507 0.58972 0.0
C105 C 1.08283 0.37684 0.52452 0.0
C106 C 0.9823 0.48908 0.29652 0.0
O107 O 1.00978 0.59963 0.45788 0.0
O108 O 0.08961 0.58911 0.48484 0.0
O109 O 1.02483 0.48895 0.34947 0.0
O110 O 0.9448 0.50198 0.33994 0.0
O111 O 0.95373 0.42044 0.4891 0.0
H112 H 0.12443 0.46062 0.42966 0.0
H113 H 0.98213 0.38931 0.6481 0.0
O114 O 0.88179 0.44012 0.50901 0.0
O115 O 0.94839 0.53677 0.63114 0.0
O116 O 1.01506 0.50678 0.63752 0.0
C117 C 0.98367 0.52519 0.68354 0.0
H118 H 0.84124 0.64183 0.45487 0.0
H119 H 0.10613 0.35423 0.49427 0.0
Co120 Co 0.62606 0.45554 0.48562 0.0
C121 C 0.74422 0.52599 0.49783 0.0
Co122 Co 0.64776 0.551 0.49427 0.0
C123 C 0.63404 0.34764 0.48732 0.0
C124 C 0.54345 0.32763 0.45246 0.0
N125 N 0.60055 0.37433 0.46821 0.0
N126 N 0.60025 0.28719 0.48529 0.0
C127 C 0.5432 0.27388 0.46272 0.0
H128 H 0.682 0.37107 0.5053 0.0
H129 H 0.50366 0.33147 0.43835 0.0
C130 C 0.52208 0.47244 0.45916 0.0
N131 N 0.69971 0.63674 0.53726 0.0
C132 C 0.75044 0.65391 0.60095 0.0
C133 C 0.71242 0.68926 0.49114 0.0
N134 N 0.79528 0.71262 0.58975 0.0
C135 C 0.76914 0.73519 0.52451 0.0
C136 C 0.65687 0.52242 0.29663 0.0
O137 O 0.54636 0.43937 0.45798 0.0
O138 O 0.55685 0.52971 0.48495 0.0
O139 O 0.65699 0.56509 0.34957 0.0
O140 O 0.644 0.47204 0.34006 0.0
O141 O 0.72553 0.56251 0.48919 0.0
H142 H 0.68535 0.69301 0.42965 0.0
H143 H 0.75666 0.62205 0.6482 0.0
O144 O 0.70588 0.47091 0.50917 0.0
O145 O 0.60922 0.44084 0.63125 0.0
O146 O 0.63921 0.5375 0.63763 0.0
C147 C 0.6208 0.4877 0.68365 0.0
H148 H 0.50422 0.22866 0.45468 0.0
H149 H 0.79175 0.78108 0.49419 0.0
Co150 Co 0.69045 0.19971 0.48563 0.0
C151 C 0.62002 0.24745 0.49789 0.0
Co152 Co 0.59499 0.12597 0.4942 0.0
C153 C 0.79834 0.3156 0.48703 0.0
C154 C 0.81836 0.24496 0.45281 0.0
N155 N 0.77166 0.2554 0.46823 0.0
N156 N 0.85879 0.34225 0.48514 0.0
C157 C 0.87211 0.29848 0.46297 0.0
H158 H 0.7749 0.34017 0.50466 0.0
H159 H 0.81454 0.2013 0.43903 0.0
C160 C 0.67354 0.07883 0.45906 0.0
N161 N 0.50926 0.09219 0.53714 0.0
C162 C 0.49209 0.12576 0.60081 0.0
C163 C 0.45673 1.05234 0.49109 0.0
N164 N 0.43337 0.11186 0.58965 0.0
C165 C 0.41079 0.06312 0.52447 0.0
C166 C 0.62358 0.16371 0.29659 0.0
O167 O 0.7066 0.13618 0.45788 0.0
O168 O 0.61627 1.05634 0.48487 0.0
O169 O 0.58093 0.12114 0.34949 0.0
O170 O 0.67395 0.20122 0.34007 0.0
O171 O 0.58351 0.19224 0.48912 0.0
H172 H 0.45297 1.0215 0.42965 0.0
H173 H 0.52394 0.16386 0.64804 0.0
O174 O 0.67509 0.26417 0.50932 0.0
O175 O 0.70515 0.19751 0.63125 0.0
O176 O 0.60848 0.1309 0.63756 0.0
C177 C 0.65828 0.16225 0.68361 0.0
H178 H 0.91734 0.30469 0.45517 0.0
H179 H 0.36488 1.0398 0.49421 0.0
Co180 Co 0.31443 0.4593 0.32759 0.0
C181 C 0.18874 0.41218 0.29249 0.0
Co182 Co 0.29273 0.53306 0.31891 0.0
C183 C 0.4171 0.45907 0.43428 0.0
C184 C 0.37909 0.3857 0.32446 0.0
N185 N 0.36638 0.42551 0.37059 0.0
N186 N 0.46196 0.44522 0.42304 0.0
C187 C 0.43581 0.39649 0.35783 0.0
H188 H 0.42332 0.49714 0.48155 0.0
H189 H 0.35203 0.35489 0.26298 0.0
C190 C 0.41089 0.58077 0.33111 0.0
N191 N 0.26721 0.58876 0.30149 0.0
C192 C 0.3007 0.64893 0.32064 0.0
C193 C 0.21011 0.57835 0.28573 0.0
N194 N 0.2669 0.67559 0.3186 0.0
C195 C 0.20986 0.63186 0.29602 0.0
C196 C 0.28748 0.49566 0.51696 0.0
O197 O 0.3922 0.52556 0.32251 0.0
O198 O 0.37255 0.59751 0.3424 0.0
O199 O 0.2759 0.53094 0.46455 0.0
O200 O 0.30588 0.46426 0.47094 0.0
O201 O 0.21302 0.46953 0.2913 0.0
H202 H 0.17032 0.53473 0.2716 0.0
H203 H 0.34865 0.67346 0.33863 0.0
O204 O 0.22353 0.38969 0.31827 0.0
O205 O 0.32367 0.45444 0.18289 0.0
O206 O 0.31065 0.53448 0.17335 0.0
C207 C 0.32353 0.49697 0.12992 0.0
H208 H 0.45843 0.37322 0.32751 0.0
H209 H 0.17087 0.6381 0.28797 0.0
Co210 Co 0.68666 0.88431 0.3275 0.0
C211 C 0.7338 0.80576 0.29237 0.0
Co212 Co 0.61292 0.78885 0.31885 0.0
C213 C 0.68688 0.98721 0.43416 0.0
C214 C 0.76028 1.02257 0.32442 0.0
N215 N 0.72045 0.97005 0.37048 0.0
N216 N 0.70075 1.04592 0.42296 0.0
C217 C 0.7495 0.06851 0.3578 0.0
H218 H 0.6488 0.95536 0.4814 0.0
H219 H 0.79112 1.02633 0.26299 0.0
C220 C 0.56518 0.85928 0.33112 0.0
N221 N 0.55723 0.70763 0.30144 0.0
C222 C 0.49704 0.68095 0.32034 0.0
C223 C 0.56767 0.66093 0.28597 0.0
N224 N 0.4704 0.6205 0.31846 0.0
C225 C 0.51416 0.60718 0.2962 0.0
C226 C 0.65036 0.82101 0.51688 0.0
O227 O 0.62039 0.8958 0.32243 0.0
O228 O 0.54846 0.80421 0.34245 0.0
O229 O 0.61509 0.77415 0.46449 0.0
O230 O 0.68172 0.87081 0.47086 0.0
O231 O 0.67645 0.77269 0.29118 0.0
H232 H 0.61131 0.66475 0.27211 0.0
H233 H 0.47248 0.70439 0.33805 0.0
O234 O 0.75628 0.86303 0.31817 0.0
O235 O 0.69149 0.89839 0.1828 0.0
O236 O 0.61144 0.80535 0.1733 0.0
C237 C 0.64895 0.85573 0.12985 0.0
H238 H 0.77281 0.11442 0.32757 0.0
H239 H 0.50794 0.56195 0.28838 0.0
Co240 Co 0.26165 0.83156 0.32758 0.0
C241 C 0.3402 0.95723 0.29246 0.0
Co242 Co 0.3571 0.85326 0.319 0.0
C243 C 0.15875 0.72886 0.43419 0.0
C244 C 0.12339 0.76691 0.32444 0.0
N245 N 0.17591 0.7796 0.37053 0.0
N246 N 0.10004 0.68402 0.42296 0.0
C247 C 1.07745 0.71019 0.35779 0.0
H248 H 0.1906 0.72263 0.48145 0.0
H249 H 0.11963 0.79399 0.263 0.0
C250 C 0.28667 0.7351 0.33124 0.0
N251 N 0.43832 0.87878 0.3016 0.0
C252 C 0.465 0.84526 0.32048 0.0
C253 C 0.48501 0.93591 0.28607 0.0
N254 N 0.52544 0.87906 0.31852 0.0
C255 C 0.53876 0.93614 0.29624 0.0
C256 C 0.32494 0.85855 0.517 0.0
O257 O 0.25016 0.7538 0.32248 0.0
O258 O 0.34174 0.77345 0.34265 0.0
O259 O 0.37181 0.87016 0.46462 0.0
O260 O 0.27514 0.8401 0.47095 0.0
O261 O 0.37326 0.93295 0.29128 0.0
H262 H 0.48118 0.97572 0.27219 0.0
H263 H 0.44156 0.79727 0.33821 0.0
O264 O 0.28293 0.92246 0.31827 0.0
O265 O 0.24758 0.82233 0.18288 0.0
O266 O 0.3406 0.83527 0.17344 0.0
C267 C 0.29024 0.82243 0.12996 0.0
H268 H 1.03155 0.68759 0.32751 0.0
H269 H 0.58399 0.97514 0.28836 0.0
Co270 Co 0.61291 0.85326 0.81883 0.0
C271 C 0.56519 0.73509 0.83107 0.0
Co272 Co 0.68667 0.83154 0.82751 0.0
C273 C 0.49705 0.8453 0.82046 0.0
C274 C 0.56764 0.93592 0.78583 0.0
N275 N 0.55722 0.87879 0.80143 0.0
N276 N 0.4704 0.8791 0.81855 0.0
C277 C 0.51414 0.93616 0.79612 0.0
H278 H 0.4725 0.79732 0.8383 0.0
H279 H 0.61128 0.97572 0.77184 0.0
C280 C 0.73379 0.95723 0.7924 0.0
N281 N 0.72045 0.77959 0.87052 0.0
C282 C 0.68689 0.72887 0.93421 0.0
C283 C 0.76027 0.76688 0.82444 0.0
N284 N 0.70075 0.68402 0.923 0.0
C285 C 0.74949 0.71016 0.85783 0.0
C286 C 0.64896 0.82242 0.62986 0.0
O287 O 0.67645 0.93296 0.79122 0.0
O288 O 0.75628 0.92245 0.81818 0.0
O289 O 0.6915 0.82229 0.68281 0.0
O290 O 0.61147 0.83531 0.67328 0.0
O291 O 0.6204 0.75378 0.82245 0.0
H292 H 0.7911 0.79395 0.76299 0.0
H293 H 0.64881 0.72265 0.98145 0.0
O294 O 0.54846 0.77345 0.84235 0.0
O295 O 0.61506 0.87011 0.96448 0.0
O296 O 0.68173 0.84011 0.97086 0.0
C297 C 0.65033 0.85852 0.01688 0.0
H298 H 0.50791 0.97516 0.7882 0.0
H299 H 0.77278 0.68755 0.82757 0.0
Co300 Co 0.29273 0.78888 0.81896 0.0
C301 C 0.41089 0.85932 0.83117 0.0
Co302 Co 0.31442 0.88434 0.82761 0.0
C303 C 0.30071 0.68097 0.82067 0.0
C304 C 0.21012 0.66097 0.7858 0.0
N305 N 0.26722 0.70766 0.80155 0.0
N306 N 0.26691 0.62052 0.81863 0.0
C307 C 0.20987 0.60721 0.79607 0.0
H308 H 0.34867 0.7044 0.83864 0.0
H309 H 0.17032 0.6648 0.77169 0.0
C310 C 0.18874 0.80577 0.7925 0.0
N311 N 0.36637 0.97007 0.8706 0.0
C312 C 0.4171 0.98724 0.93428 0.0
C313 C 0.37909 1.02259 0.82446 0.0
N314 N 0.46196 1.04594 0.92303 0.0
C315 C 0.43581 0.06852 0.85781 0.0
C316 C 0.32354 0.85576 0.62997 0.0
O317 O 0.21303 0.7727 0.79132 0.0
O318 O 0.22352 0.86304 0.81829 0.0
O319 O 0.32366 0.89842 0.68291 0.0
O320 O 0.31067 0.80537 0.6734 0.0
O321 O 0.39219 0.89584 0.82253 0.0
H322 H 0.35202 1.02634 0.76298 0.0
H323 H 0.42332 0.95539 0.98156 0.0
O324 O 0.37255 0.80425 0.84251 0.0
O325 O 0.27588 0.77417 0.96459 0.0
O326 O 0.30588 0.87083 0.97097 0.0
C327 C 0.28746 0.82103 0.01699 0.0
H328 H 0.17088 0.56199 0.78802 0.0
H329 H 0.45843 0.11441 0.82749 0.0
Co330 Co 0.35711 0.53305 0.81897 0.0
C331 C 0.28669 0.58078 0.83123 0.0
Co332 Co 0.26166 0.4593 0.82754 0.0
C333 C 0.46501 0.64894 0.82037 0.0
C334 C 0.48503 0.57829 0.78615 0.0
N335 N 0.43833 0.58873 0.80157 0.0
N336 N 0.52545 0.67558 0.81848 0.0
C337 C 0.53878 0.63181 0.79631 0.0
H338 H 0.44157 0.67351 0.83801 0.0
H339 H 0.4812 0.53464 0.77236 0.0
C340 C 0.3402 0.41217 0.7924 0.0
N341 N 0.17592 0.42552 0.87048 0.0
C342 C 0.15875 0.45909 0.93415 0.0
C343 C 0.1234 0.38568 0.82441 0.0
N344 N 0.10004 0.44522 0.92293 0.0
C345 C 1.07746 0.39646 0.85777 0.0
C346 C 0.29025 0.49704 0.62994 0.0
O347 O 0.37327 0.46951 0.79122 0.0
O348 O 0.28294 0.38968 0.81821 0.0
O349 O 0.24759 0.45447 0.68283 0.0
O350 O 0.34061 0.53456 0.67341 0.0
O351 O 0.25017 0.52558 0.82246 0.0
H352 H 0.11964 0.35484 0.76298 0.0
H353 H 0.1906 0.49718 0.98139 0.0
O354 O 0.34176 0.5975 0.84266 0.0
O355 O 0.37182 0.53084 0.96459 0.0
O356 O 0.27514 0.46423 0.9709 0.0
C357 C 0.32495 0.49558 0.01695 0.0
H358 H 0.584 0.63803 0.7885 0.0
H359 H 1.03155 0.37315 0.82752 0.0
Co360 Co 0.98109 0.79263 0.66093 0.0
C361 C 0.85541 0.74552 0.62581 0.0
Co362 Co 0.9594 0.8664 0.65224 0.0
C363 C 1.08376 0.7924 0.76762 0.0
C364 C 1.04576 0.71903 0.65779 0.0
N365 N 1.03304 0.75884 0.70392 0.0
N366 N 0.12862 0.77855 0.75638 0.0
C367 C 0.10248 0.72983 0.69116 0.0
H368 H 0.08998 0.83047 0.81489 0.0
H369 H 1.01869 0.68822 0.59631 0.0
C370 C 1.07756 0.91411 0.66445 0.0
N371 N 0.93388 0.9221 0.63482 0.0
C372 C 0.96736 0.98227 0.65397 0.0
C373 C 0.87678 0.91169 0.61907 0.0
N374 N 0.93357 1.00892 0.65194 0.0
C375 C 0.87653 0.9652 0.62936 0.0
C376 C 0.95414 0.829 0.85029 0.0
O377 O 1.05887 0.85889 0.65584 0.0
O378 O 1.03921 0.93084 0.67573 0.0
O379 O 0.94257 0.86428 0.79788 0.0
O380 O 0.97254 0.79759 0.80428 0.0
O381 O 0.87969 0.80287 0.62464 0.0
H382 H 0.83699 0.86806 0.60495 0.0
H383 H 1.01532 1.0068 0.67196 0.0
O384 O 0.89019 0.72302 0.6516 0.0
O385 O 0.99033 0.78778 0.51623 0.0
O386 O 0.97732 0.86782 0.50668 0.0
C387 C 0.9902 0.8303 0.46326 0.0
H388 H 0.1251 0.70655 0.66085 0.0
H389 H 0.83754 0.97143 0.62132 0.0
Co390 Co 0.35333 0.21764 0.66084 0.0
C391 C 0.40046 0.13909 0.62569 0.0
Co392 Co 0.27958 0.12218 0.65218 0.0
C393 C 0.35355 0.32055 0.7675 0.0
C394 C 0.42695 0.35591 0.65776 0.0
N395 N 0.38711 0.30338 0.70382 0.0
N396 N 0.36742 0.37926 0.75629 0.0
C397 C 0.41616 0.40184 0.69114 0.0
H398 H 0.31547 0.28869 0.81474 0.0
H399 H 0.45778 0.35966 0.59632 0.0
C400 C 0.23185 0.19262 0.66445 0.0
N401 N 0.2239 1.04096 0.63477 0.0
C402 C 0.16371 1.01429 0.65367 0.0
C403 C 0.23433 0.99426 0.61931 0.0
N404 N 0.13707 0.95384 0.65179 0.0
C405 C 0.18082 0.94051 0.62954 0.0
C406 C 0.31702 0.15434 0.85022 0.0
O407 O 0.28706 0.22914 0.65577 0.0
O408 O 0.21513 0.13754 0.67578 0.0
O409 O 0.28176 0.10748 0.79782 0.0
O410 O 0.34839 0.20414 0.80419 0.0
O411 O 0.34312 0.10602 0.62451 0.0
H412 H 0.27798 0.99808 0.60546 0.0
H413 H 0.13915 1.03772 0.67137 0.0
O414 O 0.42295 0.19636 0.65151 0.0
O415 O 0.35816 0.23172 0.51614 0.0
O416 O 0.27811 0.13869 0.50663 0.0
C417 C 0.31561 0.18906 0.46319 0.0
H418 H 0.43947 0.44775 0.6609 0.0
H419 H 0.1746 0.89528 0.62173 0.0
Co420 Co 0.92832 0.16489 0.66092 0.0
C421 C 1.00687 0.29057 0.62578 0.0
Co422 Co 1.02377 0.18659 0.65233 0.0
C423 C 0.82541 0.0622 0.76753 0.0
C424 C 0.79006 0.10024 0.65777 0.0
N425 N 0.84258 0.11293 0.70387 0.0
N426 N 0.76671 1.01736 0.7563 0.0
C427 C 0.74412 1.04352 0.69112 0.0
H428 H 0.85726 1.05597 0.81479 0.0
H429 H 0.7863 0.12732 0.59632 0.0
C430 C 0.95334 0.06844 0.66457 0.0
N431 N 0.10498 0.21211 0.63493 0.0
C432 C 0.13166 0.17859 0.65381 0.0
C433 C 0.15168 0.26924 0.61941 0.0
N434 N 0.19211 0.21239 0.65186 0.0
C435 C 0.20543 0.26947 0.62958 0.0
C436 C 0.99161 0.19189 0.85033 0.0
O437 O 0.91683 0.08713 0.65582 0.0
O438 O 1.00841 0.10678 0.67599 0.0
O439 O 1.03848 0.20349 0.79795 0.0
O440 O 0.94181 0.17344 0.80428 0.0
O441 O 1.03993 0.26628 0.62461 0.0
H442 H 0.14785 0.30906 0.60554 0.0
H443 H 0.10823 0.1306 0.67153 0.0
O444 O 0.9496 0.2558 0.6516 0.0
O445 O 0.91425 0.15566 0.51622 0.0
O446 O 1.00727 0.1686 0.50678 0.0
C447 C 0.95691 0.15576 0.4633 0.0
H448 H 0.69822 1.02092 0.66084 0.0
H449 H 0.25065 0.30847 0.62171 0.0
Co450 Co 0.27958 0.18659 0.15216 0.0
C451 C 0.23186 0.06843 0.16441 0.0
Co452 Co 0.35333 0.16488 0.16085 0.0
C453 C 0.16371 0.17863 0.15379 0.0
C454 C 0.23431 0.26925 0.11917 0.0
N455 N 0.22389 0.21213 0.13476 0.0
N456 N 0.13706 0.21244 0.15188 0.0
C457 C 0.1808 0.2695 0.12946 0.0
H458 H 0.13916 0.13065 0.17162 0.0
H459 H 0.27794 0.30905 0.10518 0.0
C460 C 0.40046 0.29056 0.12572 0.0
N461 N 0.38712 0.11293 0.20385 0.0
C462 C 0.35356 0.06221 0.26754 0.0
C463 C 0.42694 0.10022 0.15777 0.0
N464 N 0.36741 1.01736 0.25634 0.0
C465 C 0.41615 1.0435 0.19116 0.0
C466 C 0.31563 0.15575 0.96319 0.0
O467 O 0.34311 0.26629 0.12455 0.0
O468 O 0.42295 0.25578 0.15152 0.0
O469 O 0.35817 0.15562 0.01615 0.0
O470 O 0.27813 0.16864 0.00661 0.0
O471 O 0.28707 0.08711 0.15578 0.0
H472 H 0.45776 0.12729 0.09631 0.0
H473 H 0.31548 1.05599 0.31479 0.0
O474 O 0.21513 0.10678 0.17569 0.0
O475 O 0.28172 0.20344 0.29781 0.0
O476 O 0.34839 0.17345 0.30419 0.0
C477 C 0.317 0.19186 0.35021 0.0
H478 H 0.17457 0.3085 0.12155 0.0
H479 H 0.43945 1.02089 0.16091 0.0
Co480 Co 0.9594 0.12221 0.15229 0.0
C481 C 1.07755 0.19266 0.16451 0.0
Co482 Co 0.98109 0.21767 0.16095 0.0
C483 C 0.96738 1.0143 0.154 0.0
C484 C 0.87678 0.9943 0.11914 0.0
N485 N 0.93389 1.04099 0.13488 0.0
N486 N 0.93358 0.95386 0.15197 0.0
C487 C 0.87654 0.94054 0.12941 0.0
H488 H 1.01534 1.03773 0.17196 0.0
H489 H 0.83699 0.99814 0.10504 0.0
C490 C 0.85541 0.1391 0.12582 0.0
N491 N 1.03304 0.30341 0.20393 0.0
C492 C 1.08377 0.32057 0.26762 0.0
C493 C 1.04575 0.35593 0.15779 0.0
N494 N 0.12862 0.37927 0.25637 0.0
C495 C 0.10248 0.40186 0.19115 0.0
C496 C 0.99021 0.18909 0.96331 0.0
O497 O 0.8797 0.10604 0.12465 0.0
O498 O 0.89018 0.19637 0.15162 0.0
O499 O 0.99032 0.23175 0.01625 0.0
O500 O 0.97734 0.13871 0.00674 0.0
O501 O 1.05886 0.22918 0.15587 0.0
H502 H 1.01869 0.35967 0.09631 0.0
H503 H 0.08999 0.28872 0.3149 0.0
O504 O 1.03921 0.13758 0.17584 0.0
O505 O 0.94255 0.1075 0.29793 0.0
O506 O 0.97254 0.20417 0.3043 0.0
C507 C 0.95413 0.15436 0.35032 0.0
H508 H 0.83755 0.89532 0.12137 0.0
H509 H 0.12509 0.44775 0.16082 0.0
Co510 Co 1.02378 0.86638 0.1523 0.0
C511 C 0.95335 0.91411 0.16457 0.0
Co512 Co 0.92833 0.79263 0.16087 0.0
C513 C 0.13167 0.98227 0.1537 0.0
C514 C 0.1517 0.91162 0.11949 0.0
N515 N 0.105 0.92207 0.1349 0.0
N516 N 0.19212 1.00891 0.15182 0.0
C517 C 0.20545 0.96515 0.12965 0.0
H518 H 0.10824 1.00684 0.17133 0.0
H519 H 0.14787 0.86797 0.1057 0.0
C520 C 1.00687 0.7455 0.12573 0.0
N521 N 0.84259 0.75886 0.20382 0.0
C522 C 0.82542 0.79242 0.26748 0.0
C523 C 0.79006 0.71902 0.15774 0.0
N524 N 0.76671 0.77855 0.25627 0.0
C525 C 0.74413 0.7298 0.19111 0.0
C526 C 0.95691 0.83038 0.96327 0.0
O527 O 1.03993 0.80285 0.12455 0.0
O528 O 0.94961 0.72301 0.15155 0.0
O529 O 0.91426 0.78781 0.01617 0.0
O530 O 1.00728 0.86789 0.00674 0.0
O531 O 0.91684 0.85891 0.1558 0.0
H532 H 0.78631 0.68817 0.09631 0.0
H533 H 0.85727 0.83051 0.31473 0.0
O534 O 1.00843 0.93084 0.17599 0.0
O535 O 1.03849 0.86417 0.29792 0.0
O536 O 0.94181 0.79757 0.30424 0.0
C537 C 0.99162 0.82891 0.35028 0.0
H538 H 0.25067 0.97136 0.12185 0.0
H539 H 0.69822 0.70648 0.16085 0.0
loop_
_geom_bond_atom_site_label_1
_geom_bond_atom_site_label_2
_geom_bond_distance
_geom_bond_site_symmetry_2
_ccdc_geom_bond_type
Co0 N5 2.057 . S
Co0 O17 2.021 . S
Co0 O20 2.062 . S
Co0 O24 2.117 . S
Co0 O25 2.020 1_554 S
C1 O21 1.259 1_556 S
C1 O24 1.258 1_556 S
Co2 N11 2.057 . S
Co2 O18 2.117 . S
Co2 O19 2.020 . S
Co2 O21 2.021 . S
Co2 O26 2.062 1_554 S
C3 N5 1.316 . S
C3 N6 1.347 . S
C3 H8 0.931 . S
C4 N5 1.375 . S
C4 C7 1.350 1_545 S
C4 H9 0.930 1_544 S
N5 Co0 2.057 . S
N5 C3 1.316 . S
N5 C4 1.375 . S
N6 C3 1.347 . S
N6 C7 1.373 1_545 S
C7 C4 1.350 1_565 S
C7 N6 1.373 1_565 S
C7 H28 0.931 . S
H8 C3 0.931 . S
H9 C4 0.930 1_566 S
C10 O17 1.259 . S
C10 O18 1.258 . S
N11 Co2 2.057 . S
N11 C12 1.316 1_554 S
N11 C13 1.375 . S
C12 N11 1.316 1_556 S
C12 N14 1.347 . S
C12 H23 0.931 . S
C13 N11 1.375 . S
C13 C15 1.350 1_554 S
C13 H22 0.930 . S
N14 C12 1.347 . S
N14 C15 1.373 . S
C15 C13 1.350 1_556 S
C15 N14 1.373 . S
C15 H29 0.931 . S
C16 O19 1.256 . S
C16 O20 1.255 . S
O17 Co0 2.021 . S
O17 C10 1.259 . S
O18 Co2 2.117 . S
O18 C10 1.258 . S
O19 Co2 2.020 . S
O19 C16 1.256 . S
O20 Co0 2.062 . S
O20 C16 1.255 . S
O21 C1 1.259 1_554 S
O21 Co2 2.021 . S
H22 C13 0.930 . S
H23 C12 0.931 . S
O24 Co0 2.117 . S
O24 C1 1.258 1_554 S
O25 Co0 2.020 1_556 S
O25 C27 1.256 . S
O26 Co2 2.062 1_556 S
O26 C27 1.255 . S
C27 O25 1.256 . S
C27 O26 1.255 . S
H28 C7 0.931 . S
H29 C15 0.931 . S
Co30 N35 2.057 . S
Co30 O47 2.021 . S
Co30 O50 2.062 . S
Co30 O54 2.117 . S
Co30 O55 2.020 1_554 S
C31 O51 1.259 1_556 S
C31 O54 1.258 1_556 S
Co32 N41 2.057 . S
Co32 O48 2.117 . S
Co32 O49 2.020 . S
Co32 O51 2.021 . S
Co32 O56 2.062 1_554 S
C33 N35 1.316 . S
C33 N36 1.347 . S
C33 H38 0.931 . S
C34 N35 1.375 . S
C34 C37 1.350 1_655 S
C34 H39 0.930 1_654 S
N35 Co30 2.057 . S
N35 C33 1.316 . S
N35 C34 1.375 . S
N36 C33 1.347 . S
N36 C37 1.373 1_655 S
C37 C34 1.350 1_455 S
C37 N36 1.373 1_455 S
C37 H58 0.931 . S
H38 C33 0.931 . S
H39 C34 0.930 1_456 S
C40 O47 1.259 . S
C40 O48 1.258 . S
N41 Co32 2.057 . S
N41 C42 1.316 1_554 S
N41 C43 1.375 . S
C42 N41 1.316 1_556 S
C42 N44 1.347 . S
C42 H53 0.931 . S
C43 N41 1.375 . S
C43 C45 1.350 1_554 S
C43 H52 0.930 . S
N44 C42 1.347 . S
N44 C45 1.373 . S
C45 C43 1.350 1_556 S
C45 N44 1.373 . S
C45 H59 0.931 . S
C46 O49 1.256 . S
C46 O50 1.255 . S
O47 Co30 2.021 . S
O47 C40 1.259 . S
O48 Co32 2.117 . S
O48 C40 1.258 . S
O49 Co32 2.020 . S
O49 C46 1.256 . S
O50 Co30 2.062 . S
O50 C46 1.255 . S
O51 C31 1.259 1_554 S
O51 Co32 2.021 . S
H52 C43 0.930 . S
H53 C42 0.931 . S
O54 Co30 2.117 . S
O54 C31 1.258 1_554 S
O55 Co30 2.020 1_556 S
O55 C57 1.256 . S
O56 Co32 2.062 1_556 S
O56 C57 1.255 . S
C57 O55 1.256 . S
C57 O56 1.255 . S
H58 C37 0.931 . S
H59 C45 0.931 . S
Co60 N65 2.057 . S
Co60 O77 2.021 . S
Co60 O80 2.062 . S
Co60 O84 2.117 . S
Co60 O85 2.020 1_554 S
C61 O81 1.259 1_556 S
C61 O84 1.258 1_556 S
Co62 N71 2.057 . S
Co62 O78 2.117 . S
Co62 O79 2.020 . S
Co62 O81 2.021 . S
Co62 O86 2.062 1_554 S
C63 N65 1.316 . S
C63 N66 1.347 . S
C63 H68 0.931 . S
C64 N65 1.375 . S
C64 C67 1.350 . S
C64 H69 0.930 1_554 S
N65 Co60 2.057 . S
N65 C63 1.316 . S
N65 C64 1.375 . S
N66 C63 1.347 . S
N66 C67 1.373 . S
C67 C64 1.350 . S
C67 N66 1.373 . S
C67 H88 0.931 . S
H68 C63 0.931 . S
H69 C64 0.930 1_556 S
C70 O77 1.259 . S
C70 O78 1.258 . S
N71 Co62 2.057 . S
N71 C72 1.316 1_554 S
N71 C73 1.375 . S
C72 N71 1.316 1_556 S
C72 N74 1.347 . S
C72 H83 0.931 . S
C73 N71 1.375 . S
C73 C75 1.350 1_554 S
C73 H82 0.930 . S
N74 C72 1.347 . S
N74 C75 1.373 . S
C75 C73 1.350 1_556 S
C75 N74 1.373 . S
C75 H89 0.931 . S
C76 O79 1.256 . S
C76 O80 1.255 . S
O77 Co60 2.021 . S
O77 C70 1.259 . S
O78 Co62 2.117 . S
O78 C70 1.258 . S
O79 Co62 2.020 . S
O79 C76 1.256 . S
O80 Co60 2.062 . S
O80 C76 1.255 . S
O81 C61 1.259 1_554 S
O81 Co62 2.021 . S
H82 C73 0.930 . S
H83 C72 0.931 . S
O84 Co60 2.117 . S
O84 C61 1.258 1_554 S
O85 Co60 2.020 1_556 S
O85 C87 1.256 . S
O86 Co62 2.062 1_556 S
O86 C87 1.255 . S
C87 O85 1.256 . S
C87 O86 1.255 . S
H88 C67 0.931 . S
H89 C75 0.931 . S
Co90 N95 2.057 . S
Co90 O107 2.021 . S
Co90 O110 2.062 . S
Co90 O114 2.117 . S
Co90 O115 2.020 . S
C91 O111 1.259 . S
C91 O114 1.258 . S
Co92 N101 2.057 . S
Co92 O108 2.117 . S
Co92 O109 2.020 . S
Co92 O111 2.021 . S
Co92 O116 2.062 . S
C93 N95 1.316 . S
C93 N96 1.347 . S
C93 H98 0.931 . S
C94 N95 1.375 . S
C94 C97 1.350 . S
C94 H99 0.930 . S
N95 Co90 2.057 . S
N95 C93 1.316 . S
N95 C94 1.375 . S
N96 C93 1.347 . S
N96 C97 1.373 . S
C97 C94 1.350 . S
C97 N96 1.373 . S
C97 H118 0.931 . S
H98 C93 0.931 . S
H99 C94 0.930 . S
C100 O107 1.259 . S
C100 O108 1.258 . S
N101 Co92 2.057 . S
N101 C102 1.316 . S
N101 C103 1.375 . S
C102 N101 1.316 . S
C102 N104 1.347 . S
C102 H113 0.931 . S
C103 N101 1.375 . S
C103 C105 1.350 1_655 S
C103 H112 0.930 1_655 S
N104 C102 1.347 . S
N104 C105 1.373 1_655 S
C105 C103 1.350 1_455 S
C105 N104 1.373 1_455 S
C105 H119 0.931 . S
C106 O109 1.256 . S
C106 O110 1.255 . S
O107 Co90 2.021 . S
O107 C100 1.259 . S
O108 Co92 2.117 . S
O108 C100 1.258 . S
O109 Co92 2.020 . S
O109 C106 1.256 . S
O110 Co90 2.062 . S
O110 C106 1.255 . S
O111 C91 1.259 . S
O111 Co92 2.021 . S
H112 C103 0.930 1_455 S
H113 C102 0.931 . S
O114 Co90 2.117 . S
O114 C91 1.258 . S
O115 Co90 2.020 . S
O115 C117 1.256 . S
O116 Co92 2.062 . S
O116 C117 1.255 . S
C117 O115 1.256 . S
C117 O116 1.255 . S
H118 C97 0.931 . S
H119 C105 0.931 . S
Co120 N125 2.057 . S
Co120 O137 2.021 . S
Co120 O140 2.062 . S
Co120 O144 2.117 . S
Co120 O145 2.020 . S
C121 O141 1.259 . S
C121 O144 1.258 . S
Co122 N131 2.057 . S
Co122 O138 2.117 . S
Co122 O139 2.020 . S
Co122 O141 2.021 . S
Co122 O146 2.062 . S
C123 N125 1.316 . S
C123 N126 1.347 . S
C123 H128 0.931 . S
C124 N125 1.375 . S
C124 C127 1.350 . S
C124 H129 0.930 . S
N125 Co120 2.057 . S
N125 C123 1.316 . S
N125 C124 1.375 . S
N126 C123 1.347 . S
N126 C127 1.373 . S
C127 C124 1.350 . S
C127 N126 1.373 . S
C127 H148 0.931 . S
H128 C123 0.931 . S
H129 C124 0.930 . S
C130 O137 1.259 . S
C130 O138 1.258 . S
N131 Co122 2.057 . S
N131 C132 1.316 . S
N131 C133 1.375 . S
C132 N131 1.316 . S
C132 N134 1.347 . S
C132 H143 0.931 . S
C133 N131 1.375 . S
C133 C135 1.350 . S
C133 H142 0.930 . S
N134 C132 1.347 . S
N134 C135 1.373 . S
C135 C133 1.350 . S
C135 N134 1.373 . S
C135 H149 0.931 . S
C136 O139 1.256 . S
C136 O140 1.255 . S
O137 Co120 2.021 . S
O137 C130 1.259 . S
O138 Co122 2.117 . S
O138 C130 1.258 . S
O139 Co122 2.020 . S
O139 C136 1.256 . S
O140 Co120 2.062 . S
O140 C136 1.255 . S
O141 C121 1.259 . S
O141 Co122 2.021 . S
H142 C133 0.930 . S
H143 C132 0.931 . S
O144 Co120 2.117 . S
O144 C121 1.258 . S
O145 Co120 2.020 . S
O145 C147 1.256 . S
O146 Co122 2.062 . S
O146 C147 1.255 . S
C147 O145 1.256 . S
C147 O146 1.255 . S
H148 C127 0.931 . S
H149 C135 0.931 . S
Co150 N155 2.057 . S
Co150 O167 2.021 . S
Co150 O170 2.062 . S
Co150 O174 2.117 . S
Co150 O175 2.020 . S
C151 O171 1.259 . S
C151 O174 1.258 . S
Co152 N161 2.057 . S
Co152 O168 2.117 . S
Co152 O169 2.020 . S
Co152 O171 2.021 . S
Co152 O176 2.062 . S
C153 N155 1.316 . S
C153 N156 1.347 . S
C153 H158 0.931 . S
C154 N155 1.375 . S
C154 C157 1.350 . S
C154 H159 0.930 . S
N155 Co150 2.057 . S
N155 C153 1.316 . S
N155 C154 1.375 . S
N156 C153 1.347 . S
N156 C157 1.373 . S
C157 C154 1.350 . S
C157 N156 1.373 . S
C157 H178 0.931 . S
H158 C153 0.931 . S
H159 C154 0.930 . S
C160 O167 1.259 . S
C160 O168 1.258 . S
N161 Co152 2.057 . S
N161 C162 1.316 . S
N161 C163 1.375 . S
C162 N161 1.316 . S
C162 N164 1.347 . S
C162 H173 0.931 . S
C163 N161 1.375 . S
C163 C165 1.350 1_545 S
C163 H172 0.930 1_545 S
N164 C162 1.347 . S
N164 C165 1.373 1_545 S
C165 C163 1.350 1_565 S
C165 N164 1.373 1_565 S
C165 H179 0.931 . S
C166 O169 1.256 . S
C166 O170 1.255 . S
O167 Co150 2.021 . S
O167 C160 1.259 . S
O168 Co152 2.117 . S
O168 C160 1.258 . S
O169 Co152 2.020 . S
O169 C166 1.256 . S
O170 Co150 2.062 . S
O170 C166 1.255 . S
O171 C151 1.259 . S
O171 Co152 2.021 . S
H172 C163 0.930 1_565 S
H173 C162 0.931 . S
O174 Co150 2.117 . S
O174 C151 1.258 . S
O175 Co150 2.020 . S
O175 C177 1.256 . S
O176 Co152 2.062 . S
O176 C177 1.255 . S
C177 O175 1.256 . S
C177 O176 1.255 . S
H178 C157 0.931 . S
H179 C165 0.931 . S
Co180 N185 2.057 . S
Co180 O197 2.021 . S
Co180 O200 2.062 . S
Co180 O204 2.117 . S
Co180 O205 2.020 . S
C181 O201 1.259 . S
C181 O204 1.258 . S
Co182 N191 2.057 . S
Co182 O198 2.117 . S
Co182 O199 2.020 . S
Co182 O201 2.021 . S
Co182 O206 2.062 . S
C183 N185 1.316 . S
C183 N186 1.347 . S
C183 H188 0.931 . S
C184 N185 1.375 . S
C184 C187 1.350 . S
C184 H189 0.930 . S
N185 Co180 2.057 . S
N185 C183 1.316 . S
N185 C184 1.375 . S
N186 C183 1.347 . S
N186 C187 1.373 . S
C187 C184 1.350 . S
C187 N186 1.373 . S
C187 H208 0.931 . S
H188 C183 0.931 . S
H189 C184 0.930 . S
C190 O197 1.259 . S
C190 O198 1.258 . S
N191 Co182 2.057 . S
N191 C192 1.316 . S
N191 C193 1.375 . S
C192 N191 1.316 . S
C192 N194 1.347 . S
C192 H203 0.931 . S
C193 N191 1.375 . S
C193 C195 1.350 . S
C193 H202 0.930 . S
N194 C192 1.347 . S
N194 C195 1.373 . S
C195 C193 1.350 . S
C195 N194 1.373 . S
C195 H209 0.931 . S
C196 O199 1.256 . S
C196 O200 1.255 . S
O197 Co180 2.021 . S
O197 C190 1.259 . S
O198 Co182 2.117 . S
O198 C190 1.258 . S
O199 Co182 2.020 . S
O199 C196 1.256 . S
O200 Co180 2.062 . S
O200 C196 1.255 . S
O201 C181 1.259 . S
O201 Co182 2.021 . S
H202 C193 0.930 . S
H203 C192 0.931 . S
O204 Co180 2.117 . S
O204 C181 1.258 . S
O205 Co180 2.020 . S
O205 C207 1.256 . S
O206 Co182 2.062 . S
O206 C207 1.255 . S
C207 O205 1.256 . S
C207 O206 1.255 . S
H208 C187 0.931 . S
H209 C195 0.931 . S
Co210 N215 2.057 . S
Co210 O227 2.021 . S
Co210 O230 2.062 . S
Co210 O234 2.117 . S
Co210 O235 2.020 . S
C211 O231 1.259 . S
C211 O234 1.258 . S
Co212 N221 2.057 . S
Co212 O228 2.117 . S
Co212 O229 2.020 . S
Co212 O231 2.021 . S
Co212 O236 2.062 . S
C213 N215 1.316 . S
C213 N216 1.347 1_565 S
C213 H218 0.931 . S
C214 N215 1.375 . S
C214 C217 1.350 1_565 S
C214 H219 0.930 . S
N215 Co210 2.057 . S
N215 C213 1.316 . S
N215 C214 1.375 . S
N216 C213 1.347 1_545 S
N216 C217 1.373 . S
C217 C214 1.350 1_545 S
C217 N216 1.373 . S
C217 H238 0.931 . S
H218 C213 0.931 . S
H219 C214 0.930 . S
C220 O227 1.259 . S
C220 O228 1.258 . S
N221 Co212 2.057 . S
N221 C222 1.316 . S
N221 C223 1.375 . S
C222 N221 1.316 . S
C222 N224 1.347 . S
C222 H233 0.931 . S
C223 N221 1.375 . S
C223 C225 1.350 . S
C223 H232 0.930 . S
N224 C222 1.347 . S
N224 C225 1.373 . S
C225 C223 1.350 . S
C225 N224 1.373 . S
C225 H239 0.931 . S
C226 O229 1.256 . S
C226 O230 1.255 . S
O227 Co210 2.021 . S
O227 C220 1.259 . S
O228 Co212 2.117 . S
O228 C220 1.258 . S
O229 Co212 2.020 . S
O229 C226 1.256 . S
O230 Co210 2.062 . S
O230 C226 1.255 . S
O231 C211 1.259 . S
O231 Co212 2.021 . S
H232 C223 0.930 . S
H233 C222 0.931 . S
O234 Co210 2.117 . S
O234 C211 1.258 . S
O235 Co210 2.020 . S
O235 C237 1.256 . S
O236 Co212 2.062 . S
O236 C237 1.255 . S
C237 O235 1.256 . S
C237 O236 1.255 . S
H238 C217 0.931 . S
H239 C225 0.931 . S
Co240 N245 2.057 . S
Co240 O257 2.021 . S
Co240 O260 2.062 . S
Co240 O264 2.117 . S
Co240 O265 2.020 . S
C241 O261 1.259 . S
C241 O264 1.258 . S
Co242 N251 2.057 . S
Co242 O258 2.117 . S
Co242 O259 2.020 . S
Co242 O261 2.021 . S
Co242 O266 2.062 . S
C243 N245 1.316 . S
C243 N246 1.347 1_455 S
C243 H248 0.931 . S
C244 N245 1.375 . S
C244 C247 1.350 1_455 S
C244 H249 0.930 . S
N245 Co240 2.057 . S
N245 C243 1.316 . S
N245 C244 1.375 . S
N246 C243 1.347 1_655 S
N246 C247 1.373 . S
C247 C244 1.350 1_655 S
C247 N246 1.373 . S
C247 H268 0.931 . S
H248 C243 0.931 . S
H249 C244 0.930 . S
C250 O257 1.259 . S
C250 O258 1.258 . S
N251 Co242 2.057 . S
N251 C252 1.316 . S
N251 C253 1.375 . S
C252 N251 1.316 . S
C252 N254 1.347 . S
C252 H263 0.931 . S
C253 N251 1.375 . S
C253 C255 1.350 . S
C253 H262 0.930 . S
N254 C252 1.347 . S
N254 C255 1.373 . S
C255 C253 1.350 . S
C255 N254 1.373 . S
C255 H269 0.931 . S
C256 O259 1.256 . S
C256 O260 1.255 . S
O257 Co240 2.021 . S
O257 C250 1.259 . S
O258 Co242 2.117 . S
O258 C250 1.258 . S
O259 Co242 2.020 . S
O259 C256 1.256 . S
O260 Co240 2.062 . S
O260 C256 1.255 . S
O261 C241 1.259 . S
O261 Co242 2.021 . S
H262 C253 0.930 . S
H263 C252 0.931 . S
O264 Co240 2.117 . S
O264 C241 1.258 . S
O265 Co240 2.020 . S
O265 C267 1.256 . S
O266 Co242 2.062 . S
O266 C267 1.255 . S
C267 O265 1.256 . S
C267 O266 1.255 . S
H268 C247 0.931 . S
H269 C255 0.931 . S
Co270 N275 2.057 . S
Co270 O287 2.021 . S
Co270 O290 2.062 . S
Co270 O294 2.117 . S
Co270 O295 2.020 1_556 S
C271 O291 1.259 . S
C271 O294 1.258 . S
Co272 N281 2.057 . S
Co272 O288 2.117 . S
Co272 O289 2.020 . S
Co272 O291 2.021 . S
Co272 O296 2.062 1_556 S
C273 N275 1.316 . S
C273 N276 1.347 . S
C273 H278 0.931 . S
C274 N275 1.375 . S
C274 C277 1.350 . S
C274 H279 0.930 . S
N275 Co270 2.057 . S
N275 C273 1.316 . S
N275 C274 1.375 . S
N276 C273 1.347 . S
N276 C277 1.373 . S
C277 C274 1.350 . S
C277 N276 1.373 . S
C277 H298 0.931 . S
H278 C273 0.931 . S
H279 C274 0.930 . S
C280 O287 1.259 . S
C280 O288 1.258 . S
N281 Co272 2.057 . S
N281 C282 1.316 . S
N281 C283 1.375 . S
C282 N281 1.316 . S
C282 N284 1.347 . S
C282 H293 0.931 . S
C283 N281 1.375 . S
C283 C285 1.350 . S
C283 H292 0.930 . S
N284 C282 1.347 . S
N284 C285 1.373 . S
C285 C283 1.350 . S
C285 N284 1.373 . S
C285 H299 0.931 . S
C286 O289 1.256 . S
C286 O290 1.255 . S
O287 Co270 2.021 . S
O287 C280 1.259 . S
O288 Co272 2.117 . S
O288 C280 1.258 . S
O289 Co272 2.020 . S
O289 C286 1.256 . S
O290 Co270 2.062 . S
O290 C286 1.255 . S
O291 C271 1.259 . S
O291 Co272 2.021 . S
H292 C283 0.930 . S
H293 C282 0.931 . S
O294 Co270 2.117 . S
O294 C271 1.258 . S
O295 Co270 2.020 1_554 S
O295 C297 1.256 . S
O296 Co272 2.062 1_554 S
O296 C297 1.255 . S
C297 O295 1.256 . S
C297 O296 1.255 . S
H298 C277 0.931 . S
H299 C285 0.931 . S
Co300 N305 2.057 . S
Co300 O317 2.021 . S
Co300 O320 2.062 . S
Co300 O324 2.117 . S
Co300 O325 2.020 1_556 S
C301 O321 1.259 . S
C301 O324 1.258 . S
Co302 N311 2.057 . S
Co302 O318 2.117 . S
Co302 O319 2.020 . S
Co302 O321 2.021 . S
Co302 O326 2.062 1_556 S
C303 N305 1.316 . S
C303 N306 1.347 . S
C303 H308 0.931 . S
C304 N305 1.375 . S
C304 C307 1.350 . S
C304 H309 0.930 . S
N305 Co300 2.057 . S
N305 C303 1.316 . S
N305 C304 1.375 . S
N306 C303 1.347 . S
N306 C307 1.373 . S
C307 C304 1.350 . S
C307 N306 1.373 . S
C307 H328 0.931 . S
H308 C303 0.931 . S
H309 C304 0.930 . S
C310 O317 1.259 . S
C310 O318 1.258 . S
N311 Co302 2.057 . S
N311 C312 1.316 . S
N311 C313 1.375 . S
C312 N311 1.316 . S
C312 N314 1.347 1_565 S
C312 H323 0.931 . S
C313 N311 1.375 . S
C313 C315 1.350 1_565 S
C313 H322 0.930 . S
N314 C312 1.347 1_545 S
N314 C315 1.373 . S
C315 C313 1.350 1_545 S
C315 N314 1.373 . S
C315 H329 0.931 . S
C316 O319 1.256 . S
C316 O320 1.255 . S
O317 Co300 2.021 . S
O317 C310 1.259 . S
O318 Co302 2.117 . S
O318 C310 1.258 . S
O319 Co302 2.020 . S
O319 C316 1.256 . S
O320 Co300 2.062 . S
O320 C316 1.255 . S
O321 C301 1.259 . S
O321 Co302 2.021 . S
H322 C313 0.930 . S
H323 C312 0.931 . S
O324 Co300 2.117 . S
O324 C301 1.258 . S
O325 Co300 2.020 1_554 S
O325 C327 1.256 . S
O326 Co302 2.062 1_554 S
O326 C327 1.255 . S
C327 O325 1.256 . S
C327 O326 1.255 . S
H328 C307 0.931 . S
H329 C315 0.931 . S
Co330 N335 2.057 . S
Co330 O347 2.021 . S
Co330 O350 2.062 . S
Co330 O354 2.117 . S
Co330 O355 2.020 1_556 S
C331 O351 1.259 . S
C331 O354 1.258 . S
Co332 N341 2.057 . S
Co332 O348 2.117 . S
Co332 O349 2.020 . S
Co332 O351 2.021 . S
Co332 O356 2.062 1_556 S
C333 N335 1.316 . S
C333 N336 1.347 . S
C333 H338 0.931 . S
C334 N335 1.375 . S
C334 C337 1.350 . S
C334 H339 0.930 . S
N335 Co330 2.057 . S
N335 C333 1.316 . S
N335 C334 1.375 . S
N336 C333 1.347 . S
N336 C337 1.373 . S
C337 C334 1.350 . S
C337 N336 1.373 . S
C337 H358 0.931 . S
H338 C333 0.931 . S
H339 C334 0.930 . S
C340 O347 1.259 . S
C340 O348 1.258 . S
N341 Co332 2.057 . S
N341 C342 1.316 . S
N341 C343 1.375 . S
C342 N341 1.316 . S
C342 N344 1.347 1_455 S
C342 H353 0.931 . S
C343 N341 1.375 . S
C343 C345 1.350 1_455 S
C343 H352 0.930 . S
N344 C342 1.347 1_655 S
N344 C345 1.373 . S
C345 C343 1.350 1_655 S
C345 N344 1.373 . S
C345 H359 0.931 . S
C346 O349 1.256 . S
C346 O350 1.255 . S
O347 Co330 2.021 . S
O347 C340 1.259 . S
O348 Co332 2.117 . S
O348 C340 1.258 . S
O349 Co332 2.020 . S
O349 C346 1.256 . S
O350 Co330 2.062 . S
O350 C346 1.255 . S
O351 C331 1.259 . S
O351 Co332 2.021 . S
H352 C343 0.930 . S
H353 C342 0.931 . S
O354 Co330 2.117 . S
O354 C331 1.258 . S
O355 Co330 2.020 1_554 S
O355 C357 1.256 . S
O356 Co332 2.062 1_554 S
O356 C357 1.255 . S
C357 O355 1.256 . S
C357 O356 1.255 . S
H358 C337 0.931 . S
H359 C345 0.931 . S
Co360 N365 2.043 1_655 S
Co360 O377 2.021 1_655 S
Co360 O380 2.062 . S
Co360 O384 2.117 . S
Co360 O385 2.020 . S
C361 O381 1.259 . S
C361 O384 1.258 . S
Co362 N371 2.057 . S
Co362 O378 2.117 . S
Co362 O379 2.020 . S
Co362 O381 2.021 . S
Co362 O386 2.062 . S
C363 N365 1.333 . S
C363 N366 1.347 . S
C363 H368 0.931 . S
C364 N365 1.375 1_655 S
C364 C367 1.350 1_655 S
C364 H369 0.930 . S
N365 Co360 2.043 1_455 S
N365 C363 1.333 . S
N365 C364 1.375 1_455 S
N366 C363 1.347 . S
N366 C367 1.373 . S
C367 C364 1.350 1_455 S
C367 N366 1.373 . S
C367 H388 0.931 1_455 S
H368 C363 0.931 . S
H369 C364 0.930 . S
C370 O377 1.259 . S
C370 O378 1.258 1_455 S
N371 Co362 2.057 . S
N371 C372 1.316 . S
N371 C373 1.375 . S
C372 N371 1.316 . S
C372 N374 1.347 . S
C372 H383 0.931 . S
C373 N371 1.375 . S
C373 C375 1.350 . S
C373 H382 0.930 . S
N374 C372 1.347 . S
N374 C375 1.373 . S
C375 C373 1.350 . S
C375 N374 1.373 . S
C375 H389 0.931 . S
C376 O379 1.256 . S
C376 O380 1.255 . S
O377 Co360 2.021 1_455 S
O377 C370 1.259 . S
O378 Co362 2.117 . S
O378 C370 1.258 1_655 S
O379 Co362 2.020 . S
O379 C376 1.256 . S
O380 Co360 2.062 . S
O380 C376 1.255 . S
O381 C361 1.259 . S
O381 Co362 2.021 . S
H382 C373 0.930 . S
H383 C372 0.931 . S
O384 Co360 2.117 . S
O384 C361 1.258 . S
O385 Co360 2.020 . S
O385 C387 1.256 . S
O386 Co362 2.062 . S
O386 C387 1.255 . S
C387 O385 1.256 . S
C387 O386 1.255 . S
H388 C367 0.931 1_655 S
H389 C375 0.931 . S
Co390 N395 2.057 . S
Co390 O407 2.021 . S
Co390 O410 2.062 . S
Co390 O414 2.117 . S
Co390 O415 2.020 . S
C391 O411 1.259 . S
C391 O414 1.258 . S
Co392 N401 2.057 1_545 S
Co392 O408 2.117 . S
Co392 O409 2.020 . S
Co392 O411 2.021 . S
Co392 O416 2.062 . S
C393 N395 1.316 . S
C393 N396 1.347 . S
C393 H398 0.931 . S
C394 N395 1.375 . S
C394 C397 1.350 . S
C394 H399 0.930 . S
N395 Co390 2.057 . S
N395 C393 1.316 . S
N395 C394 1.375 . S
N396 C393 1.347 . S
N396 C397 1.373 . S
C397 C394 1.350 . S
C397 N396 1.373 . S
C397 H418 0.931 . S
H398 C393 0.931 . S
H399 C394 0.930 . S
C400 O407 1.259 . S
C400 O408 1.258 . S
N401 Co392 2.057 1_565 S
N401 C402 1.316 . S
N401 C403 1.375 . S
C402 N401 1.316 . S
C402 N404 1.347 . S
C402 H413 0.931 . S
C403 N401 1.375 . S
C403 C405 1.350 . S
C403 H412 0.930 . S
N404 C402 1.347 . S
N404 C405 1.373 . S
C405 C403 1.350 . S
C405 N404 1.373 . S
C405 H419 0.931 . S
C406 O409 1.256 . S
C406 O410 1.255 . S
O407 Co390 2.021 . S
O407 C400 1.259 . S
O408 Co392 2.117 . S
O408 C400 1.258 . S
O409 Co392 2.020 . S
O409 C406 1.256 . S
O410 Co390 2.062 . S
O410 C406 1.255 . S
O411 C391 1.259 . S
O411 Co392 2.021 . S
H412 C403 0.930 . S
H413 C402 0.931 . S
O414 Co390 2.117 . S
O414 C391 1.258 . S
O415 Co390 2.020 . S
O415 C417 1.256 . S
O416 Co392 2.062 . S
O416 C417 1.255 . S
C417 O415 1.256 . S
C417 O416 1.255 . S
H418 C397 0.931 . S
H419 C405 0.931 . S
Co420 N425 2.060 1_545 S
Co420 O437 2.021 1_545 S
Co420 O440 2.062 . S
Co420 O444 2.117 . S
Co420 O445 2.020 . S
C421 O441 1.259 . S
C421 O444 1.258 . S
Co422 N431 2.057 1_655 S
Co422 O438 2.117 . S
Co422 O439 2.020 . S
Co422 O441 2.021 . S
Co422 O446 2.062 . S
C423 N425 1.329 . S
C423 N426 1.347 . S
C423 H428 0.931 . S
C424 N425 1.359 1_545 S
C424 C427 1.350 1_545 S
C424 H429 0.930 . S
N425 Co420 2.060 1_565 S
N425 C423 1.329 . S
N425 C424 1.359 1_565 S
N426 C423 1.347 . S
N426 C427 1.373 . S
C427 C424 1.350 1_565 S
C427 N426 1.373 . S
C427 H448 0.931 1_565 S
H428 C423 0.931 . S
H429 C424 0.930 . S
C430 O437 1.259 . S
C430 O438 1.258 1_565 S
N431 Co422 2.057 1_455 S
N431 C432 1.316 . S
N431 C433 1.375 . S
C432 N431 1.316 . S
C432 N434 1.347 . S
C432 H443 0.931 . S
C433 N431 1.375 . S
C433 C435 1.350 . S
C433 H442 0.930 . S
N434 C432 1.347 . S
N434 C435 1.373 . S
C435 C433 1.350 . S
C435 N434 1.373 . S
C435 H449 0.931 . S
C436 O439 1.256 . S
C436 O440 1.255 . S
O437 Co420 2.021 1_565 S
O437 C430 1.259 . S
O438 Co422 2.117 . S
O438 C430 1.258 1_545 S
O439 Co422 2.020 . S
O439 C436 1.256 . S
O440 Co420 2.062 . S
O440 C436 1.255 . S
O441 C421 1.259 . S
O441 Co422 2.021 . S
H442 C433 0.930 . S
H443 C432 0.931 . S
O444 Co420 2.117 . S
O444 C421 1.258 . S
O445 Co420 2.020 . S
O445 C447 1.256 . S
O446 Co422 2.062 . S
O446 C447 1.255 . S
C447 O445 1.256 . S
C447 O446 1.255 . S
H448 C427 0.931 1_545 S
H449 C435 0.931 . S
Co450 N455 2.057 . S
Co450 O467 2.021 . S
Co450 O470 2.062 . S
Co450 O474 2.117 . S
Co450 O475 2.020 . S
C451 O471 1.259 . S
C451 O474 1.258 1_565 S
Co452 N461 2.043 1_545 S
Co452 O468 2.117 . S
Co452 O469 2.020 . S
Co452 O471 2.021 1_545 S
Co452 O476 2.062 . S
C453 N455 1.316 . S
C453 N456 1.347 . S
C453 H458 0.931 . S
C454 N455 1.375 . S
C454 C457 1.350 . S
C454 H459 0.930 . S
N455 Co450 2.057 . S
N455 C453 1.316 . S
N455 C454 1.375 . S
N456 C453 1.347 . S
N456 C457 1.373 . S
C457 C454 1.350 . S
C457 N456 1.373 . S
C457 H478 0.931 . S
H458 C453 0.931 . S
H459 C454 0.930 . S
C460 O467 1.259 . S
C460 O468 1.258 . S
N461 Co452 2.043 1_565 S
N461 C462 1.333 . S
N461 C463 1.375 1_565 S
C462 N461 1.333 . S
C462 N464 1.347 . S
C462 H473 0.931 . S
C463 N461 1.375 1_545 S
C463 C465 1.350 1_545 S
C463 H472 0.930 . S
N464 C462 1.347 . S
N464 C465 1.373 . S
C465 C463 1.350 1_565 S
C465 N464 1.373 . S
C465 H479 0.931 1_565 S
C466 O469 1.256 1_556 S
C466 O470 1.255 1_556 S
O467 Co450 2.021 . S
O467 C460 1.259 . S
O468 Co452 2.117 . S
O468 C460 1.258 . S
O469 Co452 2.020 . S
O469 C466 1.256 1_554 S
O470 Co450 2.062 . S
O470 C466 1.255 1_554 S
O471 C451 1.259 . S
O471 Co452 2.021 1_565 S
H472 C463 0.930 . S
H473 C462 0.931 . S
O474 Co450 2.117 . S
O474 C451 1.258 1_545 S
O475 Co450 2.020 . S
O475 C477 1.256 . S
O476 Co452 2.062 . S
O476 C477 1.255 . S
C477 O475 1.256 . S
C477 O476 1.255 . S
H478 C457 0.931 . S
H479 C465 0.931 1_545 S
Co480 N485 2.057 1_545 S
Co480 O497 2.021 . S
Co480 O500 2.062 . S
Co480 O504 2.117 . S
Co480 O505 2.020 . S
C481 O501 1.259 . S
C481 O504 1.258 1_455 S
Co482 N491 2.060 1_655 S
Co482 O498 2.117 . S
Co482 O499 2.020 . S
Co482 O501 2.021 1_655 S
Co482 O506 2.062 . S
C483 N485 1.316 . S
C483 N486 1.347 . S
C483 H488 0.931 . S
C484 N485 1.375 . S
C484 C487 1.350 . S
C484 H489 0.930 . S
N485 Co480 2.057 1_565 S
N485 C483 1.316 . S
N485 C484 1.375 . S
N486 C483 1.347 . S
N486 C487 1.373 . S
C487 C484 1.350 . S
C487 N486 1.373 . S
C487 H508 0.931 . S
H488 C483 0.931 . S
H489 C484 0.930 . S
C490 O497 1.259 . S
C490 O498 1.258 . S
N491 Co482 2.060 1_455 S
N491 C492 1.329 . S
N491 C493 1.359 1_455 S
C492 N491 1.329 . S
C492 N494 1.347 . S
C492 H503 0.931 . S
C493 N491 1.359 1_655 S
C493 C495 1.350 1_655 S
C493 H502 0.930 . S
N494 C492 1.347 . S
N494 C495 1.373 . S
C495 C493 1.350 1_455 S
C495 N494 1.373 . S
C495 H509 0.931 1_455 S
C496 O499 1.256 1_556 S
C496 O500 1.255 1_556 S
O497 Co480 2.021 . S
O497 C490 1.259 . S
O498 Co482 2.117 . S
O498 C490 1.258 . S
O499 Co482 2.020 . S
O499 C496 1.256 1_554 S
O500 Co480 2.062 . S
O500 C496 1.255 1_554 S
O501 C481 1.259 . S
O501 Co482 2.021 1_455 S
H502 C493 0.930 . S
H503 C492 0.931 . S
O504 Co480 2.117 . S
O504 C481 1.258 1_655 S
O505 Co480 2.020 . S
O505 C507 1.256 . S
O506 Co482 2.062 . S
O506 C507 1.255 . S
C507 O505 1.256 . S
C507 O506 1.255 . S
H508 C487 0.931 . S
H509 C495 0.931 1_655 S
Co510 N515 2.057 1_655 S
Co510 O527 2.021 . S
Co510 O530 2.062 . S
Co510 O534 2.117 . S
Co510 O535 2.020 . S
C511 O531 1.259 . S
C511 O534 1.258 . S
Co512 N521 2.057 . S
Co512 O528 2.117 . S
Co512 O529 2.020 . S
Co512 O531 2.021 . S
Co512 O536 2.062 . S
C513 N515 1.316 . S
C513 N516 1.347 . S
C513 H518 0.931 . S
C514 N515 1.375 . S
C514 C517 1.350 . S
C514 H519 0.930 . S
N515 Co510 2.057 1_455 S
N515 C513 1.316 . S
N515 C514 1.375 . S
N516 C513 1.347 . S
N516 C517 1.373 . S
C517 C514 1.350 . S
C517 N516 1.373 . S
C517 H538 0.931 . S
H518 C513 0.931 . S
H519 C514 0.930 . S
C520 O527 1.259 . S
C520 O528 1.258 . S
N521 Co512 2.057 . S
N521 C522 1.316 . S
N521 C523 1.375 . S
C522 N521 1.316 . S
C522 N524 1.347 . S
C522 H533 0.931 . S
C523 N521 1.375 . S
C523 C525 1.350 . S
C523 H532 0.930 . S
N524 C522 1.347 . S
N524 C525 1.373 . S
C525 C523 1.350 . S
C525 N524 1.373 . S
C525 H539 0.931 . S
C526 O529 1.256 1_556 S
C526 O530 1.255 1_556 S
O527 Co510 2.021 . S
O527 C520 1.259 . S
O528 Co512 2.117 . S
O528 C520 1.258 . S
O529 Co512 2.020 . S
O529 C526 1.256 1_554 S
O530 Co510 2.062 . S
O530 C526 1.255 1_554 S
O531 C511 1.259 . S
O531 Co512 2.021 . S
H532 C523 0.930 . S
H533 C522 0.931 . S
O534 Co510 2.117 . S
O534 C511 1.258 . S
O535 Co510 2.020 . S
O535 C537 1.256 . S
O536 Co512 2.062 . S
O536 C537 1.255 . S
C537 O535 1.256 . S
C537 O536 1.255 . S
H538 C517 0.931 . S
H539 C525 0.931 . S
N14 C70 2.035 1_556 S
C10 N44 2.035 1_554 S
N74 C40 2.036 1_556 S
C121 N96 2.035 . S
C151 N126 2.036 . S
N156 C91 2.035 . S
C250 N194 2.035 . S
N224 C190 2.035 . S
C220 N254 2.036 . S
N276 C301 2.035 . S
C331 N306 2.036 . S
N336 C271 2.035 . S
C430 N374 2.035 . S
N404 C370 2.035 . S
N434 C400 2.036 . S
N456 C481 2.035 . S
C511 N486 2.036 . S
C451 N516 2.035 . S
C166 C16 1.945 . S
C106 C46 1.945 . S
C136 C76 1.945 . S
C57 C117 1.945 . S
C147 C87 1.945 . S
C27 C177 1.945 . S
C196 C346 1.945 . S
C226 C286 1.945 . S
C316 C256 1.945 . S
C297 C237 1.945 . S
C327 C267 1.945 . S
C357 C207 1.945 . S
C376 C526 1.945 . S
C406 C466 1.945 . S
C436 C496 1.945 . S
C477 C417 1.945 . S
C507 C447 1.945 . S
C537 C387 1.945 . S
N314 C1 3.330 . S
C31 N344 3.331 . S
N284 C61 3.331 . S
C100 N246 3.331 . S
C130 N186 3.330 . S
N216 C160 3.330 . S
C181 N494 3.330 . S
C211 N524 3.330 . S
C241 N464 3.330 . S
N426 C280 3.330 . S
N366 C310 3.330 . S
N396 C340 3.330 . S
N134 C361 3.330 . S
C391 N164 3.330 . S
N104 C421 3.330 . S
C460 N66 3.330 . S
C490 N6 3.331 . S
N36 C520 3.330 . S
