# Generated by pormake.
# Topology wle, (5)-cn, num edge types: 1
# Building blocks:
#     Node 0, Type 0, BuildingBlock: BEQFEK_clean_sbu_0, # of connection points: 5
#     Node 1, Type 0, BuildingBlock: BEQFEK_clean_sbu_0, # of connection points: 5
#     Node 2, Type 0, BuildingBlock: BEQFEK_clean_sbu_0, # of connection points: 5
#     Node 3, Type 0, BuildingBlock: BEQFEK_clean_sbu_0, # of connection points: 5
#     Node 4, Type 0, BuildingBlock: BEQFEK_clean_sbu_0, # of connection points: 5
#     Node 5, Type 0, BuildingBlock: BEQFEK_clean_sbu_0, # of connection points: 5
#     Node 6, Type 0, BuildingBlock: BEQFEK_clean_sbu_0, # of connection points: 5
#     Node 7, Type 0, BuildingBlock: BEQFEK_clean_sbu_0, # of connection points: 5
#     Node 8, Type 0, BuildingBlock: BEQFEK_clean_sbu_0, # of connection points: 5
#     Node 9, Type 0, BuildingBlock: BEQFEK_clean_sbu_0, # of connection points: 5
#     Node 10, Type 0, BuildingBlock: BEQFEK_clean_sbu_0, # of connection points: 5
#     Node 11, Type 0, BuildingBlock: BEQFEK_clean_sbu_0, # of connection points: 5
#     Node 12, Type 0, BuildingBlock: BEQFEK_clean_sbu_0, # of connection points: 5
#     Node 13, Type 0, BuildingBlock: BEQFEK_clean_sbu_0, # of connection points: 5
#     Node 14, Type 0, BuildingBlock: BEQFEK_clean_sbu_0, # of connection points: 5
#     Node 15, Type 0, BuildingBlock: BEQFEK_clean_sbu_0, # of connection points: 5
#     Node 16, Type 0, BuildingBlock: BEQFEK_clean_sbu_0, # of connection points: 5
#     Node 17, Type 0, BuildingBlock: BEQFEK_clean_sbu_0, # of connection points: 5
#     Node 18, Type 0, BuildingBlock: BEQFEK_clean_sbu_0, # of connection points: 5
#     Node 19, Type 0, BuildingBlock: BEQFEK_clean_sbu_0, # of connection points: 5
#     Node 20, Type 0, BuildingBlock: BEQFEK_clean_sbu_0, # of connection points: 5
#     Node 21, Type 0, BuildingBlock: BEQFEK_clean_sbu_0, # of connection points: 5
#     Node 22, Type 0, BuildingBlock: BEQFEK_clean_sbu_0, # of connection points: 5
#     Node 23, Type 0, BuildingBlock: BEQFEK_clean_sbu_0, # of connection points: 5
#     Node 24, Type 0, BuildingBlock: BEQFEK_clean_sbu_0, # of connection points: 5
#     Node 25, Type 0, BuildingBlock: BEQFEK_clean_sbu_0, # of connection points: 5
#     Node 26, Type 0, BuildingBlock: BEQFEK_clean_sbu_0, # of connection points: 5
#     Node 27, Type 0, BuildingBlock: BEQFEK_clean_sbu_0, # of connection points: 5
#     Node 28, Type 0, BuildingBlock: BEQFEK_clean_sbu_0, # of connection points: 5
#     Node 29, Type 0, BuildingBlock: BEQFEK_clean_sbu_0, # of connection points: 5
#     Node 30, Type 0, BuildingBlock: BEQFEK_clean_sbu_0, # of connection points: 5
#     Node 31, Type 0, BuildingBlock: BEQFEK_clean_sbu_0, # of connection points: 5
#     Node 32, Type 0, BuildingBlock: BEQFEK_clean_sbu_0, # of connection points: 5
#     Node 33, Type 0, BuildingBlock: BEQFEK_clean_sbu_0, # of connection points: 5
#     Node 34, Type 0, BuildingBlock: BEQFEK_clean_sbu_0, # of connection points: 5
#     Node 35, Type 0, BuildingBlock: BEQFEK_clean_sbu_0, # of connection points: 5
#     Edge 36, Type (0, 0), BuildingBlock: AJUNOK_clean_linker_0, # of connection points: 2
#     Edge 37, Type (0, 0), BuildingBlock: AJUNOK_clean_linker_0, # of connection points: 2
#     Edge 38, Type (0, 0), BuildingBlock: AJUNOK_clean_linker_0, # of connection points: 2
#     Edge 39, Type (0, 0), BuildingBlock: AJUNOK_clean_linker_0, # of connection points: 2
#     Edge 40, Type (0, 0), BuildingBlock: AJUNOK_clean_linker_0, # of connection points: 2
#     Edge 41, Type (0, 0), BuildingBlock: AJUNOK_clean_linker_0, # of connection points: 2
#     Edge 42, Type (0, 0), BuildingBlock: AJUNOK_clean_linker_0, # of connection points: 2
#     Edge 43, Type (0, 0), BuildingBlock: AJUNOK_clean_linker_0, # of connection points: 2
#     Edge 44, Type (0, 0), BuildingBlock: AJUNOK_clean_linker_0, # of connection points: 2
#     Edge 45, Type (0, 0), BuildingBlock: AJUNOK_clean_linker_0, # of connection points: 2
#     Edge 46, Type (0, 0), BuildingBlock: AJUNOK_clean_linker_0, # of connection points: 2
#     Edge 47, Type (0, 0), BuildingBlock: AJUNOK_clean_linker_0, # of connection points: 2
#     Edge 48, Type (0, 0), BuildingBlock: AJUNOK_clean_linker_0, # of connection points: 2
#     Edge 49, Type (0, 0), BuildingBlock: AJUNOK_clean_linker_0, # of connection points: 2
#     Edge 50, Type (0, 0), BuildingBlock: AJUNOK_clean_linker_0, # of connection points: 2
#     Edge 51, Type (0, 0), BuildingBlock: AJUNOK_clean_linker_0, # of connection points: 2
#     Edge 52, Type (0, 0), BuildingBlock: AJUNOK_clean_linker_0, # of connection points: 2
#     Edge 53, Type (0, 0), BuildingBlock: AJUNOK_clean_linker_0, # of connection points: 2
#     Edge 54, Type (0, 0), BuildingBlock: AJUNOK_clean_linker_0, # of connection points: 2
#     Edge 55, Type (0, 0), BuildingBlock: AJUNOK_clean_linker_0, # of connection points: 2
#     Edge 56, Type (0, 0), BuildingBlock: AJUNOK_clean_linker_0, # of connection points: 2
#     Edge 57, Type (0, 0), BuildingBlock: AJUNOK_clean_linker_0, # of connection points: 2
#     Edge 58, Type (0, 0), BuildingBlock: AJUNOK_clean_linker_0, # of connection points: 2
#     Edge 59, Type (0, 0), BuildingBlock: AJUNOK_clean_linker_0, # of connection points: 2
#     Edge 60, Type (0, 0), BuildingBlock: AJUNOK_clean_linker_0, # of connection points: 2
#     Edge 61, Type (0, 0), BuildingBlock: AJUNOK_clean_linker_0, # of connection points: 2
#     Edge 62, Type (0, 0), BuildingBlock: AJUNOK_clean_linker_0, # of connection points: 2
#     Edge 63, Type (0, 0), BuildingBlock: AJUNOK_clean_linker_0, # of connection points: 2
#     Edge 64, Type (0, 0), BuildingBlock: AJUNOK_clean_linker_0, # of connection points: 2
#     Edge 65, Type (0, 0), BuildingBlock: AJUNOK_clean_linker_0, # of connection points: 2
#     Edge 66, Type (0, 0), BuildingBlock: AJUNOK_clean_linker_0, # of connection points: 2
#     Edge 67, Type (0, 0), BuildingBlock: AJUNOK_clean_linker_0, # of connection points: 2
#     Edge 68, Type (0, 0), BuildingBlock: AJUNOK_clean_linker_0, # of connection points: 2
#     Edge 69, Type (0, 0), BuildingBlock: AJUNOK_clean_linker_0, # of connection points: 2
#     Edge 70, Type (0, 0), BuildingBlock: AJUNOK_clean_linker_0, # of connection points: 2
#     Edge 71, Type (0, 0), BuildingBlock: AJUNOK_clean_linker_0, # of connection points: 2
#     Edge 72, Type (0, 0), BuildingBlock: AJUNOK_clean_linker_0, # of connection points: 2
#     Edge 73, Type (0, 0), BuildingBlock: AJUNOK_clean_linker_0, # of connection points: 2
#     Edge 74, Type (0, 0), BuildingBlock: AJUNOK_clean_linker_0, # of connection points: 2
#     Edge 75, Type (0, 0), BuildingBlock: AJUNOK_clean_linker_0, # of connection points: 2
#     Edge 76, Type (0, 0), BuildingBlock: AJUNOK_clean_linker_0, # of connection points: 2
#     Edge 77, Type (0, 0), BuildingBlock: AJUNOK_clean_linker_0, # of connection points: 2
#     Edge 78, Type (0, 0), BuildingBlock: AJUNOK_clean_linker_0, # of connection points: 2
#     Edge 79, Type (0, 0), BuildingBlock: AJUNOK_clean_linker_0, # of connection points: 2
#     Edge 80, Type (0, 0), BuildingBlock: AJUNOK_clean_linker_0, # of connection points: 2
#     Edge 81, Type (0, 0), BuildingBlock: AJUNOK_clean_linker_0, # of connection points: 2
#     Edge 82, Type (0, 0), BuildingBlock: AJUNOK_clean_linker_0, # of connection points: 2
#     Edge 83, Type (0, 0), BuildingBlock: AJUNOK_clean_linker_0, # of connection points: 2
#     Edge 84, Type (0, 0), BuildingBlock: AJUNOK_clean_linker_0, # of connection points: 2
#     Edge 85, Type (0, 0), BuildingBlock: AJUNOK_clean_linker_0, # of connection points: 2
#     Edge 86, Type (0, 0), BuildingBlock: AJUNOK_clean_linker_0, # of connection points: 2
#     Edge 87, Type (0, 0), BuildingBlock: AJUNOK_clean_linker_0, # of connection points: 2
#     Edge 88, Type (0, 0), BuildingBlock: AJUNOK_clean_linker_0, # of connection points: 2
#     Edge 89, Type (0, 0), BuildingBlock: AJUNOK_clean_linker_0, # of connection points: 2
#     Edge 90, Type (0, 0), BuildingBlock: AJUNOK_clean_linker_0, # of connection points: 2
#     Edge 91, Type (0, 0), BuildingBlock: AJUNOK_clean_linker_0, # of connection points: 2
#     Edge 92, Type (0, 0), BuildingBlock: AJUNOK_clean_linker_0, # of connection points: 2
#     Edge 93, Type (0, 0), BuildingBlock: AJUNOK_clean_linker_0, # of connection points: 2
#     Edge 94, Type (0, 0), BuildingBlock: AJUNOK_clean_linker_0, # of connection points: 2
#     Edge 95, Type (0, 0), BuildingBlock: AJUNOK_clean_linker_0, # of connection points: 2
#     Edge 96, Type (0, 0), BuildingBlock: AJUNOK_clean_linker_0, # of connection points: 2
#     Edge 97, Type (0, 0), BuildingBlock: AJUNOK_clean_linker_0, # of connection points: 2
#     Edge 98, Type (0, 0), BuildingBlock: AJUNOK_clean_linker_0, # of connection points: 2
#     Edge 99, Type (0, 0), BuildingBlock: AJUNOK_clean_linker_0, # of connection points: 2
#     Edge 100, Type (0, 0), BuildingBlock: AJUNOK_clean_linker_0, # of connection points: 2
#     Edge 101, Type (0, 0), BuildingBlock: AJUNOK_clean_linker_0, # of connection points: 2
#     Edge 102, Type (0, 0), BuildingBlock: AJUNOK_clean_linker_0, # of connection points: 2
#     Edge 103, Type (0, 0), BuildingBlock: AJUNOK_clean_linker_0, # of connection points: 2
#     Edge 104, Type (0, 0), BuildingBlock: AJUNOK_clean_linker_0, # of connection points: 2
#     Edge 105, Type (0, 0), BuildingBlock: AJUNOK_clean_linker_0, # of connection points: 2
#     Edge 106, Type (0, 0), BuildingBlock: AJUNOK_clean_linker_0, # of connection points: 2
#     Edge 107, Type (0, 0), BuildingBlock: AJUNOK_clean_linker_0, # of connection points: 2
#     Edge 108, Type (0, 0), BuildingBlock: AJUNOK_clean_linker_0, # of connection points: 2
#     Edge 109, Type (0, 0), BuildingBlock: AJUNOK_clean_linker_0, # of connection points: 2
#     Edge 110, Type (0, 0), BuildingBlock: AJUNOK_clean_linker_0, # of connection points: 2
#     Edge 111, Type (0, 0), BuildingBlock: AJUNOK_clean_linker_0, # of connection points: 2
#     Edge 112, Type (0, 0), BuildingBlock: AJUNOK_clean_linker_0, # of connection points: 2
#     Edge 113, Type (0, 0), BuildingBlock: AJUNOK_clean_linker_0, # of connection points: 2
#     Edge 114, Type (0, 0), BuildingBlock: AJUNOK_clean_linker_0, # of connection points: 2
#     Edge 115, Type (0, 0), BuildingBlock: AJUNOK_clean_linker_0, # of connection points: 2
#     Edge 116, Type (0, 0), BuildingBlock: AJUNOK_clean_linker_0, # of connection points: 2
#     Edge 117, Type (0, 0), BuildingBlock: AJUNOK_clean_linker_0, # of connection points: 2
#     Edge 118, Type (0, 0), BuildingBlock: AJUNOK_clean_linker_0, # of connection points: 2
#     Edge 119, Type (0, 0), BuildingBlock: AJUNOK_clean_linker_0, # of connection points: 2
#     Edge 120, Type (0, 0), BuildingBlock: AJUNOK_clean_linker_0, # of connection points: 2
#     Edge 121, Type (0, 0), BuildingBlock: AJUNOK_clean_linker_0, # of connection points: 2
#     Edge 122, Type (0, 0), BuildingBlock: AJUNOK_clean_linker_0, # of connection points: 2
#     Edge 123, Type (0, 0), BuildingBlock: AJUNOK_clean_linker_0, # of connection points: 2
#     Edge 124, Type (0, 0), BuildingBlock: AJUNOK_clean_linker_0, # of connection points: 2
#     Edge 125, Type (0, 0), BuildingBlock: AJUNOK_clean_linker_0, # of connection points: 2
# Relax obj value: 0.569
# Max RMSD: 0.268
# Mean RMSD: 0.262
data_MOF--net-wle--node1-BEQFEK_clean_sbu_0--edge1-AJUNOK_clean_linker_0
_symmetry_space_group_name_H-M    P1
_symmetry_Int_Tables_number       1
_symmetry_cell_setting            triclinic
loop_
_symmetry_equiv_pos_as_xyz
'x, y, z'
_cell_length_a     72.302934
_cell_length_b     72.268334
_cell_length_c     22.432974
_cell_angle_alpha  90.030382
_cell_angle_beta   89.940774
_cell_angle_gamma 119.97088
loop_
_atom_site_label
_atom_site_type_symbol
_atom_site_fract_x
_atom_site_fract_y
_atom_site_fract_z
_atom_type_partial_charge
Co0 Co 0.26924 0.08431 0.06358 0.0
Co1 Co 0.24467 0.098 0.15127 0.0
C2 C 0.29204 0.1246 0.13507 0.0
O3 O 0.29229 0.11128 0.0984 0.0
O4 O 0.27458 0.12163 0.15745 0.0
C5 C 0.30083 0.07526 0.01721 0.0
O6 O 0.30993 0.08209 0.06943 0.0
C7 C 0.23603 0.11031 0.26634 0.0
C8 C 0.20265 0.1032 0.25864 0.0
C9 C 0.21985 0.11091 0.29717 0.0
N10 N 0.22878 0.1022 0.21202 0.0
N11 N 0.20878 0.09793 0.20754 0.0
C12 C 0.25826 0.11775 0.28781 0.0
H13 H 0.26869 0.13463 0.27423 0.0
H14 H 0.26457 0.10802 0.26746 0.0
H15 H 0.25875 0.11685 0.33712 0.0
C16 C 0.24865 0.0452 0.13639 0.0
N17 N 0.253 0.06514 0.12374 0.0
N18 N 0.24333 0.07115 0.16243 0.0
C19 C 0.23308 0.05539 0.20257 0.0
C20 C 0.23604 0.03839 0.18728 0.0
C21 C 0.25472 0.03242 0.09673 0.0
H22 H 0.25324 0.03587 0.04937 0.0
H23 H 0.27164 0.03715 0.10503 0.0
H24 H 0.2445 0.01502 0.10481 0.0
O25 O 0.25059 0.08972 0.01292 0.0
O26 O 0.23246 0.09938 0.07275 0.0
H27 H 0.20764 0.05847 0.24111 0.0
H28 H 0.21596 0.04315 0.28626 0.0
C29 C 0.22149 0.05701 0.25593 0.0
H30 H 0.23236 0.07147 0.28164 0.0
H31 H 0.1994 0.0916 0.16951 0.0
O32 O 0.28252 0.0731 0.00857 0.0
C33 C 0.23673 0.09536 0.0209 0.0
Co34 Co 0.91237 0.18888 0.04948 0.0
Co35 Co 0.90105 0.1488 0.1272 0.0
C36 C 0.87128 0.16674 0.11563 0.0
O37 O 0.88421 0.18178 0.08172 0.0
O38 O 0.87568 0.15281 0.13507 0.0
C39 C 0.91857 0.22898 0.00546 0.0
O40 O 0.90895 0.22928 0.05489 0.0
C41 C 0.89275 0.12833 0.24225 0.0
C42 C 0.89451 0.09913 0.22544 0.0
C43 C 0.891 0.11041 0.26962 0.0
N44 N 0.89761 0.12806 0.18474 0.0
N45 N 0.89881 0.11065 0.17482 0.0
C46 C 0.88811 0.14457 0.26892 0.0
H47 H 0.87056 0.13791 0.27014 0.0
H48 H 0.89542 0.15938 0.24173 0.0
H49 H 0.89414 0.1484 0.3153 0.0
C50 C 0.94923 0.20878 0.13049 0.0
N51 N 0.93094 0.19197 0.11136 0.0
N52 N 0.92674 0.17495 0.14293 0.0
C53 C 0.94256 0.18039 0.18277 0.0
C54 C 0.95711 0.20196 0.17648 0.0
C55 C 0.95849 0.2309 0.10598 0.0
H56 H 0.94623 0.23582 0.10743 0.0
H57 H 0.97268 0.24257 0.13162 0.0
H58 H 0.96298 0.23096 0.05864 0.0
O59 O 0.90993 0.16674 0.99438 0.0
O60 O 0.90199 0.13777 0.04697 0.0
H61 H 0.96155 0.1713 0.23653 0.0
H62 H 0.93509 0.16261 0.26392 0.0
C63 C 0.94469 0.16505 0.22306 0.0
H64 H 0.93885 0.14949 0.20038 0.0
H65 H 0.9021 0.10641 0.13334 0.0
O66 O 0.92312 0.21431 -0.00169 0.0
C67 C 0.90621 0.14763 0.99745 0.0
Co68 Co 0.81312 0.73018 0.03421 0.0
Co69 Co 0.85281 0.75562 0.11639 0.0
C70 C 0.8343 0.70876 0.0973 0.0
O71 O 0.81969 0.70808 0.06398 0.0
O72 O 0.84859 0.72633 0.11976 0.0
C73 C 0.77142 0.69764 0.99571 0.0
O74 O 0.77056 0.68857 0.04719 0.0
C75 C 0.8807 0.76768 0.2205 0.0
C76 C 0.89509 0.80281 0.22258 0.0
C77 C 0.8941 0.78571 0.25299 0.0
N78 N 0.87397 0.77369 0.17249 0.0
N79 N 0.88287 0.79475 0.17344 0.0
C80 C 0.87268 0.74494 0.23805 0.0
H81 H 0.88065 0.7384 0.20981 0.0
H82 H 0.85522 0.73533 0.23048 0.0
H83 H 0.87611 0.74351 0.28549 0.0
C84 C 0.79421 0.74771 0.11768 0.0
N85 N 0.81046 0.74525 0.0983 0.0
N86 N 0.82653 0.7545 0.13572 0.0
C87 C 0.82054 0.7621 0.18222 0.0
C88 C 0.79995 0.7583 0.17216 0.0
C89 C 0.77462 0.74174 0.08156 0.0
H90 H 0.77867 0.74387 0.03342 0.0
H91 H 0.7628 0.72465 0.08925 0.0
H92 H 0.76737 0.7516 0.09381 0.0
O93 O 0.83524 0.74964 0.97953 0.0
O94 O 0.86387 0.76809 0.0358 0.0
H95 H 0.84617 0.78805 0.22886 0.0
H96 H 0.82361 0.77103 0.27543 0.0
C97 C 0.83359 0.77131 0.23746 0.0
H98 H 0.84128 0.76194 0.25007 0.0
H99 H 0.8799 0.80354 0.14185 0.0
O100 O 0.7873 0.7159 0.98471 0.0
C101 C 0.8547 0.76388 0.9852 0.0
Co102 Co 0.07774 0.27302 0.44412 0.0
Co103 Co 0.08914 0.24316 0.37125 0.0
C104 C 0.11959 0.2908 0.38257 0.0
O105 O 0.10641 0.2934 0.41398 0.0
O106 O 0.11506 0.27226 0.36455 0.0
C107 C 0.07329 0.30813 0.48577 0.0
O108 O 0.08413 0.31772 0.43747 0.0
C109 C 0.09753 0.23029 0.25709 0.0
C110 C 0.09614 0.19963 0.27589 0.0
C111 C 0.09949 0.21406 0.23076 0.0
N112 N 0.09282 0.22558 0.3149 0.0
N113 N 0.09185 0.20715 0.32598 0.0
C114 C 0.10165 0.25078 0.22887 0.0
H115 H 0.11887 0.26055 0.21772 0.0
H116 H 0.09707 0.25992 0.25933 0.0
H117 H 0.0925 0.2475 0.18679 0.0
C118 C 0.04203 0.25644 0.35896 0.0
N119 N 0.05986 0.25761 0.38096 0.0
N120 N 0.064 0.24424 0.35197 0.0
C121 C 0.04854 0.23372 0.3113 0.0
C122 C 0.03445 0.24144 0.31366 0.0
C123 C 0.03269 0.26954 0.38104 0.0
H124 H 0.0453 0.28661 0.38221 0.0
H125 H 0.01936 0.26766 0.35238 0.0
H126 H 0.02682 0.26464 0.4273 0.0
O127 O 0.07903 0.25314 0.50101 0.0
O128 O 0.08678 0.23119 0.4524 0.0
H129 H 0.02889 0.20441 0.26302 0.0
H130 H 0.0553 0.22086 0.2338 0.0
C131 C 0.04586 0.21504 0.27544 0.0
H132 H 0.05145 0.20569 0.30116 0.0
H133 H 0.08867 0.19992 0.36785 0.0
O134 O 0.067 0.28844 0.49273 0.0
C135 C 0.08222 0.23738 0.50053 0.0
Co136 Co 0.72271 0.80546 0.43011 0.0
Co137 Co 0.75011 0.84596 0.35188 0.0
C138 C 0.70291 0.82785 0.36687 0.0
O139 O 0.70129 0.81253 0.39874 0.0
O140 O 0.72098 0.84216 0.34717 0.0
C141 C 0.68854 0.76526 0.4731 0.0
O142 O 0.67887 0.76509 0.42337 0.0
C143 C 0.76131 0.87033 0.2419 0.0
C144 C 0.79587 0.89299 0.25145 0.0
C145 C 0.77883 0.88628 0.21274 0.0
N146 N 0.76759 0.86729 0.29541 0.0
N147 N 0.78826 0.88097 0.30117 0.0
C148 C 0.73899 0.85775 0.21854 0.0
H149 H 0.72978 0.86537 0.23385 0.0
H150 H 0.73113 0.84117 0.23597 0.0
H151 H 0.73878 0.85745 0.16908 0.0
C152 C 0.74277 0.7875 0.35186 0.0
N153 N 0.73884 0.80313 0.36815 0.0
N154 N 0.74945 0.81978 0.33312 0.0
C155 C 0.75977 0.8149 0.29152 0.0
C156 C 0.75613 0.7944 0.30235 0.0
C157 C 0.73576 0.76756 0.38742 0.0
H158 H 0.73636 0.77116 0.43568 0.0
H159 H 0.71898 0.75582 0.37588 0.0
H160 H 0.74597 0.76044 0.37838 0.0
O161 O 0.74189 0.8274 0.4856 0.0
O162 O 0.7624 0.85651 0.43295 0.0
H163 H 0.78671 0.8435 0.25864 0.0
H164 H 0.77704 0.82115 0.20766 0.0
C165 C 0.77227 0.82931 0.241 0.0
H166 H 0.76232 0.83467 0.21767 0.0
H167 H 0.79723 0.88189 0.33863 0.0
O168 O 0.70783 0.77974 0.4805 0.0
C169 C 0.75694 0.84664 0.48258 0.0
Co170 Co 0.18346 0.91322 0.43773 0.0
Co171 Co 0.14341 0.89944 0.35769 0.0
C172 C 0.16187 0.87081 0.37463 0.0
O173 O 0.1768 0.8846 0.40738 0.0
O174 O 0.14753 0.87431 0.35369 0.0
C175 C 0.22527 0.92222 0.47411 0.0
O176 O 0.22572 0.9139 0.42243 0.0
C177 C 0.11639 0.88437 0.25236 0.0
C178 C 0.09902 0.9023 0.25576 0.0
C179 C 0.10188 0.88793 0.22198 0.0
N180 N 0.12197 0.89603 0.30242 0.0
N181 N 0.11135 0.90654 0.3047 0.0
C182 C 0.12635 0.87169 0.23113 0.0
H183 H 0.11815 0.85583 0.25301 0.0
H184 H 0.1435 0.87989 0.24329 0.0
H185 H 0.12474 0.86926 0.18215 0.0
C186 C 0.20161 0.95041 0.35718 0.0
N187 N 0.18581 0.93115 0.37459 0.0
N188 N 0.16949 0.92468 0.33818 0.0
C189 C 0.17484 0.93918 0.29428 0.0
C190 C 0.19527 0.95609 0.30513 0.0
C191 C 0.2211 0.96389 0.39386 0.0
H192 H 0.21704 0.96123 0.44195 0.0
H193 H 0.23322 0.95914 0.38455 0.0
H194 H 0.22798 0.98112 0.38373 0.0
O195 O 0.16165 0.91085 0.49334 0.0
O196 O 0.13285 0.90132 0.43828 0.0
H197 H 0.14797 0.93933 0.25504 0.0
H198 H 0.17033 0.94766 0.20497 0.0
C199 C 0.16107 0.93646 0.24143 0.0
H200 H 0.15406 0.91998 0.22411 0.0
H201 H 0.11309 0.91718 0.33859 0.0
O202 O 0.20952 0.92474 0.48608 0.0
C203 C 0.14233 0.90622 0.48843 0.0
Co204 Co 0.72447 0.9124 0.93113 0.0
Co205 Co 0.7496 0.89667 0.85226 0.0
C206 C 0.70236 0.8696 0.86999 0.0
O207 O 0.70177 0.88399 0.9015 0.0
O208 O 0.71997 0.87229 0.84948 0.0
C209 C 0.69223 0.92155 0.97308 0.0
O210 O 0.6822 0.9123 0.92349 0.0
C211 C 0.76057 0.88078 0.74594 0.0
C212 C 0.79583 0.89771 0.74905 0.0
C213 C 0.77842 0.88394 0.71495 0.0
N214 N 0.76696 0.8922 0.79649 0.0
N215 N 0.78807 0.90206 0.79856 0.0
C216 C 0.73791 0.86871 0.72487 0.0
H217 H 0.73013 0.85248 0.74452 0.0
H218 H 0.72911 0.87684 0.7394 0.0
H219 H 0.73705 0.86712 0.67559 0.0
C220 C 0.74543 0.94951 0.84961 0.0
N221 N 0.74079 0.92992 0.86787 0.0
N222 N 0.74982 0.92241 0.83176 0.0
C223 C 0.7594 0.93645 0.78706 0.0
C224 C 0.75754 0.9544 0.7978 0.0
C225 C 0.73956 0.96364 0.88373 0.0
H226 H 0.73939 0.96058 0.93221 0.0
H227 H 0.7233 0.95996 0.87036 0.0
H228 H 0.75093 0.98075 0.87468 0.0
O229 O 0.74324 0.90909 0.98666 0.0
O230 O 0.76204 0.89851 0.93323 0.0
H231 H 0.7834 0.93266 0.74173 0.0
H232 H 0.77029 0.94307 0.69533 0.0
C233 C 0.76796 0.93173 0.73178 0.0
H234 H 0.75658 0.9154 0.71608 0.0
H235 H 0.79721 0.91245 0.83261 0.0
O236 O 0.71102 0.92487 0.98083 0.0
C237 C 0.7576 0.90397 0.98284 0.0
Co238 Co 0.08241 0.81173 0.93084 0.0
Co239 Co 0.09399 0.85326 0.86028 0.0
C240 C 0.12401 0.83526 0.86923 0.0
O241 O 0.11093 0.81929 0.90027 0.0
O242 O 0.11945 0.84939 0.85284 0.0
C243 C 0.07536 0.7708 0.97057 0.0
O244 O 0.08634 0.77156 0.92298 0.0
C245 C 0.10203 0.87394 0.74611 0.0
C246 C 0.10249 0.90419 0.76444 0.0
C247 C 0.1045 0.89222 0.71934 0.0
N248 N 0.09809 0.8746 0.80419 0.0
N249 N 0.09824 0.89267 0.81507 0.0
C250 C 0.10499 0.85682 0.71775 0.0
H251 H 0.12181 0.86377 0.7028 0.0
H252 H 0.10102 0.84356 0.74933 0.0
H253 H 0.09472 0.85043 0.67774 0.0
C254 C 0.04665 0.79328 0.84573 0.0
N255 N 0.06452 0.80975 0.86823 0.0
N256 N 0.06862 0.82747 0.84066 0.0
C257 C 0.05308 0.82288 0.80053 0.0
C258 C 0.039 0.80108 0.80166 0.0
C259 C 0.03739 0.77063 0.8659 0.0
H260 H 0.04993 0.76609 0.86436 0.0
H261 H 0.02376 0.75947 0.83763 0.0
H262 H 0.03201 0.76928 0.91285 0.0
O263 O 0.08417 0.83297 0.9887 0.0
O264 O 0.09189 0.86286 0.94129 0.0
H265 H 0.05651 0.85412 0.79252 0.0
H266 H 0.03323 0.83309 0.75598 0.0
C267 C 0.05032 0.83916 0.76644 0.0
H268 H 0.05914 0.84265 0.72372 0.0
H269 H 0.09588 0.89731 0.85712 0.0
O270 O 0.07071 0.78538 0.97831 0.0
C271 C 0.08741 0.85195 0.98901 0.0
Co272 Co 0.17937 0.26648 0.9487 0.0
Co273 Co 0.13879 0.24241 0.86874 0.0
C274 C 0.15925 0.2894 0.8886 0.0
O275 O 0.17394 0.2895 0.92029 0.0
O276 O 0.14418 0.27205 0.86734 0.0
C277 C 0.2216 0.29767 0.98841 0.0
O278 O 0.22298 0.30741 0.93775 0.0
C279 C 0.11052 0.23202 0.76583 0.0
C280 C 0.09546 0.19686 0.76075 0.0
C281 C 0.09675 0.21442 0.73224 0.0
N282 N 0.11709 0.22527 0.81265 0.0
N283 N 0.10776 0.20419 0.80996 0.0
C284 C 0.11916 0.25503 0.75001 0.0
H285 H 0.11149 0.26167 0.77909 0.0
H286 H 0.13663 0.26418 0.7577 0.0
H287 H 0.11593 0.25704 0.70284 0.0
C288 C 0.19655 0.24833 0.86154 0.0
N289 N 0.18077 0.25104 0.88361 0.0
N290 N 0.16444 0.24264 0.84685 0.0
C291 C 0.16986 0.23554 0.79803 0.0
C292 C 0.19021 0.23842 0.80625 0.0
C293 C 0.2168 0.25438 0.89437 0.0
H294 H 0.21392 0.25321 0.94313 0.0
H295 H 0.22881 0.27115 0.88341 0.0
H296 H 0.22328 0.24387 0.88172 0.0
O297 O 0.15722 0.24744 0.00363 0.0
O298 O 0.12794 0.22964 0.94934 0.0
H299 H 0.14339 0.21282 0.74592 0.0
H300 H 0.16704 0.22981 0.70274 0.0
C301 C 0.15718 0.22922 0.74142 0.0
H302 H 0.15104 0.24024 0.73265 0.0
H303 H 0.11059 0.19491 0.84018 0.0
O304 O 0.20529 0.27957 -0.002 0.0
C305 C 0.13763 0.23348 -0.00091 0.0
Co306 Co 0.91768 0.72943 0.53623 0.0
Co307 Co 0.90525 0.75779 0.61266 0.0
C308 C 0.87622 0.71004 0.60094 0.0
O309 O 0.88955 0.70832 0.56779 0.0
O310 O 0.88013 0.72823 0.62029 0.0
C311 C 0.92343 0.69512 0.49522 0.0
O312 O 0.91363 0.68591 0.54509 0.0
C313 C 0.89634 0.76958 0.72759 0.0
C314 C 0.89756 0.8003 0.7111 0.0
C315 C 0.89424 0.78553 0.75516 0.0
N316 N 0.90122 0.77481 0.67012 0.0
N317 N 0.90208 0.79328 0.66039 0.0
C318 C 0.89205 0.74878 0.75402 0.0
H319 H 0.87455 0.73765 0.755 0.0
H320 H 0.89962 0.74155 0.7268 0.0
H321 H 0.89802 0.75099 0.80045 0.0
C322 C 0.95436 0.74732 0.61778 0.0
N323 N 0.93583 0.74521 0.59839 0.0
N324 N 0.93115 0.75781 0.62946 0.0
C325 C 0.94686 0.76862 0.66928 0.0
C326 C 0.96186 0.76216 0.66343 0.0
C327 C 0.9643 0.73506 0.59339 0.0
H328 H 0.95242 0.71775 0.59433 0.0
H329 H 0.97857 0.73799 0.61936 0.0
H330 H 0.96888 0.73968 0.54619 0.0
O331 O 0.91519 0.74891 0.48072 0.0
O332 O 0.90646 0.76968 0.53186 0.0
H333 H 0.96529 0.79696 0.72268 0.0
H334 H 0.93888 0.77888 0.74974 0.0
C335 C 0.94852 0.78605 0.70897 0.0
H336 H 0.94245 0.79546 0.68569 0.0
H337 H 0.90533 0.80086 0.61902 0.0
O338 O 0.92865 0.71448 0.48649 0.0
C339 C 0.91117 0.76411 0.48286 0.0
Co340 Co 0.27714 0.19593 0.57228 0.0
Co341 Co 0.24909 0.15682 0.65471 0.0
C342 C 0.29668 0.17543 0.64558 0.0
O343 O 0.29889 0.19015 0.60992 0.0
O344 O 0.27831 0.16165 0.66471 0.0
C345 C 0.31098 0.23539 0.52491 0.0
O346 O 0.32095 0.23611 0.57452 0.0
C347 C 0.23518 0.13505 0.76944 0.0
C348 C 0.20331 0.10771 0.74892 0.0
C349 C 0.21783 0.11755 0.7946 0.0
N350 N 0.23097 0.13608 0.71169 0.0
N351 N 0.21183 0.11973 0.69966 0.0
C352 C 0.25584 0.14996 0.79957 0.0
H353 H 0.26394 0.141 0.81285 0.0
H354 H 0.26635 0.16344 0.76997 0.0
H355 H 0.25278 0.1564 0.84094 0.0
C356 C 0.25386 0.21374 0.63753 0.0
N357 N 0.25948 0.19875 0.62892 0.0
N358 N 0.24841 0.1826 0.66523 0.0
C359 C 0.23596 0.18714 0.69968 0.0
C360 C 0.23854 0.20671 0.68223 0.0
C361 C 0.26153 0.23322 0.5995 0.0
H362 H 0.25989 0.22859 0.55179 0.0
H363 H 0.27875 0.24419 0.60834 0.0
H364 H 0.25252 0.24164 0.60833 0.0
O365 O 0.25897 0.17267 0.51781 0.0
O366 O 0.23835 0.14463 0.57434 0.0
H367 H 0.20989 0.15778 0.73257 0.0
H368 H 0.21505 0.181 0.77609 0.0
C369 C 0.22249 0.17338 0.75008 0.0
H370 H 0.23269 0.17063 0.78118 0.0
H371 H 0.20473 0.11658 0.65763 0.0
O372 O 0.29165 0.22083 0.51888 0.0
C373 C 0.2442 0.15336 0.52334 0.0
Co374 Co 0.80901 0.08138 0.55031 0.0
Co375 Co 0.84887 0.09457 0.63099 0.0
C376 C 0.82921 0.12245 0.61893 0.0
O377 O 0.81431 0.10906 0.58527 0.0
O378 O 0.8436 0.11879 0.63821 0.0
C379 C 0.76771 0.07247 0.50758 0.0
O380 O 0.76644 0.08091 0.55821 0.0
C381 C 0.87216 0.1068 0.74274 0.0
C382 C 0.89772 0.09894 0.72892 0.0
C383 C 0.8893 0.10699 0.77004 0.0
N384 N 0.87004 0.0986 0.68792 0.0
N385 N 0.88535 0.09389 0.67978 0.0
C386 C 0.85809 0.11446 0.76875 0.0
H387 H 0.84247 0.10705 0.74565 0.0
H388 H 0.85552 0.11067 0.81704 0.0
H389 H 0.86609 0.13206 0.76404 0.0
C390 C 0.79165 0.04223 0.62394 0.0
N391 N 0.80696 0.06218 0.60977 0.0
N392 N 0.82334 0.0682 0.64581 0.0
C393 C 0.81858 0.05259 0.68585 0.0
C394 C 0.79856 0.03541 0.6725 0.0
C395 C 0.77157 0.02961 0.58881 0.0
H396 H 0.77507 0.03261 0.54051 0.0
H397 H 0.76008 0.03493 0.60098 0.0
H398 H 0.76417 0.01224 0.5976 0.0
O399 O 0.83197 0.08619 0.49519 0.0
O400 O 0.86063 0.09504 0.55039 0.0
H401 H 0.84739 0.05611 0.72365 0.0
H402 H 0.82402 0.0413 0.77033 0.0
C403 C 0.83218 0.05482 0.73878 0.0
H404 H 0.83585 0.06952 0.76333 0.0
H405 H 0.88745 0.08736 0.64061 0.0
O406 O 0.78359 0.06984 0.49883 0.0
C407 C 0.85145 0.09127 0.49987 0.0
Co408 Co 0.94396 0.41655 0.39899 0.0
Co409 Co 0.91683 0.42858 0.48155 0.0
C410 C 0.96377 0.45825 0.46571 0.0
O411 O 0.96533 0.44503 0.43145 0.0
O412 O 0.94578 0.454 0.4874 0.0
C413 C 0.97796 0.40994 0.36044 0.0
O414 O 0.98621 0.41802 0.41275 0.0
C415 C 0.90432 0.43924 0.59347 0.0
C416 C 0.86997 0.4279 0.58079 0.0
C417 C 0.88641 0.4371 0.62173 0.0
N418 N 0.89882 0.43129 0.53829 0.0
N419 N 0.87828 0.42461 0.53067 0.0
C420 C 0.92634 0.44849 0.61879 0.0
H421 H 0.93533 0.46586 0.60917 0.0
H422 H 0.93487 0.44097 0.59791 0.0
H423 H 0.9258 0.44633 0.66786 0.0
C424 C 0.92288 0.37708 0.47064 0.0
N425 N 0.92798 0.39738 0.45961 0.0
N426 N 0.91763 0.40304 0.4969 0.0
C427 C 0.90641 0.38683 0.53496 0.0
C428 C 0.90883 0.36963 0.5185 0.0
C429 C 0.9294 0.36454 0.43151 0.0
H430 H 0.92866 0.36844 0.38408 0.0
H431 H 0.94617 0.36913 0.44173 0.0
H432 H 0.91906 0.34709 0.4383 0.0
O433 O 0.92424 0.41899 0.34478 0.0
O434 O 0.90427 0.42721 0.40159 0.0
H435 H 0.88025 0.38907 0.57197 0.0
H436 H 0.8888 0.37402 0.61738 0.0
C437 C 0.89425 0.38803 0.58753 0.0
H438 H 0.9047 0.4025 0.61382 0.0
H439 H 0.86988 0.41757 0.49159 0.0
O440 O 0.95928 0.4063 0.34864 0.0
C441 C 0.90908 0.42292 0.35083 0.0
Co442 Co 0.57489 0.5202 0.4096 0.0
Co443 Co 0.56445 0.48177 0.49383 0.0
C444 C 0.53465 0.49906 0.48197 0.0
O445 O 0.54722 0.51377 0.44641 0.0
O446 O 0.53928 0.48543 0.50213 0.0
C447 C 0.58148 0.56045 0.36345 0.0
O448 O 0.57318 0.56199 0.41403 0.0
C449 C 0.55518 0.45992 0.608 0.0
C450 C 0.56405 0.4351 0.59351 0.0
C451 C 0.5563 0.44349 0.63568 0.0
N452 N 0.56244 0.46173 0.55208 0.0
N453 N 0.56781 0.4469 0.5436 0.0
C454 C 0.5465 0.47315 0.63393 0.0
H455 H 0.52881 0.46379 0.63295 0.0
H456 H 0.5521 0.48812 0.60831 0.0
H457 H 0.55146 0.47711 0.68115 0.0
C458 C 0.6148 0.54007 0.47904 0.0
N459 N 0.59497 0.524 0.4678 0.0
N460 N 0.59001 0.50838 0.50593 0.0
C461 C 0.60619 0.51451 0.54487 0.0
C462 C 0.62265 0.53456 0.52822 0.0
C463 C 0.62648 0.55931 0.43996 0.0
H464 H 0.62246 0.55469 0.39258 0.0
H465 H 0.62135 0.57101 0.45129 0.0
H466 H 0.64402 0.56697 0.4457 0.0
O467 O 0.5711 0.49727 0.35656 0.0
O468 O 0.56408 0.4695 0.41377 0.0
H469 H 0.60435 0.48698 0.58679 0.0
H470 H 0.61903 0.51142 0.6295 0.0
C471 C 0.60518 0.50219 0.59967 0.0
H472 H 0.59066 0.49849 0.62523 0.0
H473 H 0.57379 0.44466 0.50358 0.0
O474 O 0.58472 0.5449 0.35603 0.0
C475 C 0.56718 0.47819 0.36264 0.0
Co476 Co 0.47432 0.05643 0.39615 0.0
Co477 Co 0.51296 0.0858 0.47768 0.0
C478 C 0.49648 0.03832 0.46605 0.0
O479 O 0.48172 0.03584 0.43044 0.0
O480 O 0.5097 0.05674 0.48641 0.0
C481 C 0.43531 0.02157 0.35034 0.0
O482 O 0.43535 0.01189 0.39987 0.0
C483 C 0.53079 0.09765 0.59568 0.0
C484 C 0.56113 0.12775 0.58196 0.0
C485 C 0.54855 0.11317 0.62519 0.0
N486 N 0.5324 0.10297 0.53792 0.0
N487 N 0.55046 0.12115 0.5299 0.0
C488 C 0.51365 0.0769 0.62068 0.0
H489 H 0.50041 0.06858 0.58838 0.0
H490 H 0.50732 0.07968 0.66269 0.0
H491 H 0.52054 0.06658 0.6313 0.0
C492 C 0.45276 0.07331 0.47161 0.0
N493 N 0.46985 0.07164 0.45639 0.0
N494 N 0.48631 0.08476 0.48928 0.0
C495 C 0.48023 0.09549 0.52603 0.0
C496 C 0.4588 0.08844 0.51635 0.0
C497 C 0.43118 0.06054 0.44382 0.0
H498 H 0.42627 0.04336 0.44524 0.0
H499 H 0.41902 0.06298 0.46715 0.0
H500 H 0.43207 0.06519 0.39631 0.0
O501 O 0.49707 0.07673 0.34315 0.0
O502 O 0.52512 0.09817 0.39847 0.0
H503 H 0.48857 0.12433 0.57542 0.0
H504 H 0.49689 0.10703 0.60847 0.0
C505 C 0.495 0.11356 0.56566 0.0
H506 H 0.51086 0.12296 0.54426 0.0
H507 H 0.55585 0.12859 0.48864 0.0
O508 O 0.44949 0.04099 0.34309 0.0
C509 C 0.516 0.09237 0.34795 0.0
Co510 Co 0.75591 0.61457 0.74282 0.0
Co511 Co 0.76682 0.58714 0.65795 0.0
C512 C 0.79693 0.63403 0.67349 0.0
O513 O 0.78417 0.63611 0.70851 0.0
O514 O 0.79218 0.61585 0.65234 0.0
C515 C 0.74675 0.64696 0.78689 0.0
O516 O 0.75317 0.65606 0.73448 0.0
C517 C 0.77639 0.57452 0.54408 0.0
C518 C 0.76589 0.54037 0.55767 0.0
C519 C 0.77437 0.55663 0.51604 0.0
N520 N 0.76899 0.56917 0.59988 0.0
N521 N 0.76275 0.54872 0.60791 0.0
C522 C 0.78524 0.59636 0.51773 0.0
H523 H 0.7805 0.60622 0.54445 0.0
H524 H 0.77956 0.59524 0.47121 0.0
H525 H 0.8029 0.60419 0.51627 0.0
C526 C 0.71595 0.59395 0.67287 0.0
N527 N 0.73618 0.59869 0.68314 0.0
N528 N 0.74157 0.58852 0.64444 0.0
C529 C 0.72538 0.578 0.6059 0.0
C530 C 0.70836 0.58051 0.62374 0.0
C531 C 0.70359 0.60022 0.71358 0.0
H532 H 0.70813 0.59979 0.76055 0.0
H533 H 0.70758 0.61681 0.70308 0.0
H534 H 0.68613 0.58948 0.70856 0.0
O535 O 0.75875 0.59473 0.79547 0.0
O536 O 0.76593 0.57433 0.73719 0.0
H537 H 0.72774 0.55263 0.5636 0.0
H538 H 0.71264 0.56196 0.5214 0.0
C539 C 0.72661 0.56686 0.55096 0.0
H540 H 0.74103 0.57787 0.52532 0.0
H541 H 0.75628 0.54046 0.64758 0.0
O542 O 0.74574 0.62917 0.79625 0.0
C543 C 0.7622 0.5793 0.78841 0.0
Co544 Co 0.38829 0.14265 0.76823 0.0
Co545 Co 0.41799 0.18292 0.69257 0.0
C546 C 0.37109 0.16786 0.70942 0.0
O547 O 0.36857 0.15216 0.74102 0.0
O548 O 0.38937 0.18111 0.68815 0.0
C549 C 0.35261 0.10333 0.80861 0.0
O550 O 0.34325 0.10506 0.76045 0.0
C551 C 0.43104 0.20338 0.5782 0.0
C552 C 0.46245 0.23194 0.59519 0.0
C553 C 0.44771 0.22083 0.55082 0.0
N554 N 0.4358 0.20364 0.63594 0.0
N555 N 0.45466 0.22069 0.64605 0.0
C556 C 0.41018 0.18745 0.55087 0.0
H557 H 0.40095 0.17383 0.5815 0.0
H558 H 0.41288 0.18144 0.50815 0.0
H559 H 0.40075 0.19537 0.54103 0.0
C560 C 0.40314 0.12198 0.6827 0.0
N561 N 0.40239 0.13905 0.70341 0.0
N562 N 0.4158 0.15615 0.6731 0.0
C563 C 0.42594 0.15053 0.63279 0.0
C564 C 0.41794 0.12868 0.63687 0.0
C565 C 0.39019 0.0999 0.70739 0.0
H566 H 0.37314 0.09549 0.70877 0.0
H567 H 0.39185 0.08799 0.68016 0.0
H568 H 0.39535 0.09963 0.75379 0.0
O569 O 0.40927 0.16349 0.82377 0.0
O570 O 0.43079 0.19263 0.77252 0.0
H571 H 0.45518 0.15925 0.58499 0.0
H572 H 0.43922 0.16961 0.55467 0.0
C573 C 0.44483 0.166 0.59668 0.0
H574 H 0.45444 0.18103 0.62187 0.0
H575 H 0.46204 0.22481 0.6877 0.0
O576 O 0.37223 0.11665 0.81673 0.0
C577 C 0.42516 0.18234 0.82137 0.0
Co578 Co 0.84905 0.24198 0.75566 0.0
Co579 Co 0.80979 0.22815 0.67194 0.0
C580 C 0.82895 0.20023 0.6891 0.0
O581 O 0.84329 0.21397 0.72336 0.0
O582 O 0.81451 0.20338 0.66724 0.0
C583 C 0.89076 0.25157 0.79577 0.0
O584 O 0.89225 0.24411 0.74367 0.0
C585 C 0.78403 0.21337 0.56401 0.0
C586 C 0.76668 0.23134 0.56472 0.0
C587 C 0.76993 0.21704 0.5318 0.0
N588 N 0.78909 0.22499 0.61414 0.0
N589 N 0.77851 0.23556 0.6147 0.0
C590 C 0.79375 0.2002 0.54527 0.0
H591 H 0.78622 0.18511 0.57113 0.0
H592 H 0.8111 0.2089 0.55503 0.0
H593 H 0.79126 0.19625 0.49707 0.0
C594 C 0.86752 0.27989 0.6779 0.0
N595 N 0.85173 0.26043 0.69382 0.0
N596 N 0.8359 0.25389 0.65562 0.0
C597 C 0.84166 0.26853 0.61193 0.0
C598 C 0.86168 0.28574 0.62535 0.0
C599 C 0.88699 0.29307 0.71492 0.0
H600 H 0.88308 0.28972 0.76291 0.0
H601 H 0.89933 0.28881 0.7035 0.0
H602 H 0.89359 0.31039 0.70679 0.0
O603 O 0.82639 0.23847 0.80915 0.0
O604 O 0.798 0.22892 0.7522 0.0
H605 H 0.81522 0.26694 0.56453 0.0
H606 H 0.83921 0.27654 0.52031 0.0
C607 C 0.82928 0.26508 0.55554 0.0
H608 H 0.82356 0.24867 0.53891 0.0
H609 H 0.77986 0.24614 0.64833 0.0
O610 O 0.87448 0.25332 0.80669 0.0
C611 C 0.80701 0.2335 0.8031 0.0
Co612 Co 0.39129 0.24331 0.27086 0.0
Co613 Co 0.41771 0.22989 0.1894 0.0
C614 C 0.37068 0.20118 0.20643 0.0
O615 O 0.36934 0.21486 0.23939 0.0
O616 O 0.38856 0.20484 0.18545 0.0
C617 C 0.35926 0.25356 0.31165 0.0
O618 O 0.34949 0.24549 0.26086 0.0
C619 C 0.42979 0.21593 0.08169 0.0
C620 C 0.46489 0.23136 0.08973 0.0
C621 C 0.44784 0.21858 0.05314 0.0
N622 N 0.43565 0.22655 0.1335 0.0
N623 N 0.45665 0.23563 0.1384 0.0
C624 C 0.40757 0.20503 0.05708 0.0
H625 H 0.39987 0.18771 0.06679 0.0
H626 H 0.39805 0.21158 0.07721 0.0
H627 H 0.40789 0.20695 0.00792 0.0
C628 C 0.41078 0.28106 0.19188 0.0
N629 N 0.40712 0.26164 0.20845 0.0
N630 N 0.41695 0.25526 0.17151 0.0
C631 C 0.42624 0.26995 0.12814 0.0
C632 C 0.42309 0.28703 0.14038 0.0
C633 C 0.404 0.29416 0.2276 0.0
H634 H 0.4046 0.29119 0.27585 0.0
H635 H 0.3873 0.2894 0.21588 0.0
H636 H 0.41437 0.31147 0.21862 0.0
O637 O 0.41069 0.24048 0.32541 0.0
O638 O 0.43013 0.23134 0.26949 0.0
H639 H 0.45156 0.2678 0.08506 0.0
H640 H 0.43893 0.27874 0.03844 0.0
C641 C 0.43618 0.26676 0.07333 0.0
H642 H 0.42544 0.25071 0.05466 0.0
H643 H 0.46542 0.24516 0.1743 0.0
O644 O 0.37714 0.25486 0.32138 0.0
C645 C 0.42543 0.23593 0.31993 0.0
Co646 Co 0.7491 0.13689 0.25289 0.0
Co647 Co 0.75938 0.17628 0.17301 0.0
C648 C 0.79052 0.16039 0.18742 0.0
O649 O 0.77771 0.14474 0.22004 0.0
O650 O 0.78543 0.1738 0.16808 0.0
C651 C 0.7416 0.09574 0.29588 0.0
O652 O 0.74941 0.09402 0.24458 0.0
C653 C 0.77008 0.1995 0.0608 0.0
C654 C 0.75857 0.22239 0.07321 0.0
C655 C 0.76803 0.21531 0.03255 0.0
N656 N 0.76183 0.19685 0.11576 0.0
N657 N 0.75502 0.21064 0.12313 0.0
C658 C 0.77925 0.1867 0.03502 0.0
H659 H 0.77324 0.17137 0.0592 0.0
H660 H 0.77518 0.18349 0.98703 0.0
H661 H 0.79689 0.19604 0.03867 0.0
C662 C 0.71018 0.11702 0.17874 0.0
N663 N 0.72977 0.1332 0.19216 0.0
N664 N 0.73467 0.14939 0.15619 0.0
C665 C 0.71875 0.14361 0.11658 0.0
C666 C 0.70257 0.12304 0.12995 0.0
C667 C 0.69812 0.09768 0.21722 0.0
H668 H 0.70174 0.10216 0.26483 0.0
H669 H 0.70329 0.08596 0.20653 0.0
H670 H 0.68063 0.09011 0.21032 0.0
O671 O 0.75104 0.15876 0.30735 0.0
O672 O 0.75726 0.18696 0.25347 0.0
H673 H 0.719 0.17162 0.08415 0.0
H674 H 0.70557 0.14874 0.03518 0.0
C675 C 0.71917 0.15742 0.06617 0.0
H676 H 0.73395 0.16281 0.04005 0.0
H677 H 0.74782 0.21193 0.16203 0.0
O678 O 0.73918 0.11173 0.30473 0.0
C679 C 0.75368 0.17743 0.30347 0.0
Co680 Co 0.85544 0.61147 0.24042 0.0
Co681 Co 0.81695 0.5839 0.15616 0.0
C682 C 0.83527 0.63127 0.16679 0.0
O683 O 0.84975 0.63312 0.2027 0.0
O684 O 0.82142 0.61307 0.14683 0.0
C685 C 0.8966 0.64412 0.28542 0.0
O686 O 0.89907 0.65349 0.2335 0.0
C687 C 0.79606 0.5716 0.0411 0.0
C688 C 0.76896 0.53911 0.05686 0.0
C689 C 0.77888 0.55469 0.01363 0.0
N690 N 0.7968 0.56623 0.09785 0.0
N691 N 0.78062 0.54673 0.1071 0.0
C692 C 0.81093 0.59299 0.01443 0.0
H693 H 0.82554 0.60177 0.04186 0.0
H694 H 0.81546 0.59112 0.96851 0.0
H695 H 0.80265 0.60239 0.0116 0.0
C696 C 0.8738 0.58888 0.17567 0.0
N697 N 0.85872 0.59436 0.18356 0.0
N698 N 0.84301 0.5837 0.14572 0.0
C699 C 0.84807 0.57182 0.11048 0.0
C700 C 0.86745 0.57424 0.12934 0.0
C701 C 0.89257 0.59578 0.21616 0.0
H702 H 0.88757 0.59545 0.26309 0.0
H703 H 0.9048 0.61247 0.20521 0.0
H704 H 0.89972 0.58538 0.21167 0.0
O705 O 0.83218 0.59273 0.29334 0.0
O706 O 0.80438 0.57228 0.23584 0.0
H707 H 0.8195 0.54599 0.07323 0.0
H708 H 0.84345 0.55278 0.0309 0.0
C709 C 0.83511 0.55925 0.05788 0.0
H710 H 0.83223 0.56982 0.02851 0.0
H711 H 0.77731 0.53879 0.14792 0.0
O712 O 0.88009 0.62608 0.29428 0.0
C713 C 0.81303 0.57777 0.28702 0.0
Co714 Co 0.57305 0.05309 0.89554 0.0
Co715 Co 0.56125 0.0795 0.98273 0.0
C716 C 0.53269 0.03205 0.96914 0.0
O717 O 0.5453 0.03115 0.93087 0.0
O718 O 0.53662 0.0498 0.99244 0.0
C719 C 0.58379 0.02178 0.8497 0.0
O720 O 0.5777 0.01213 0.90156 0.0
C721 C 0.54983 0.09441 0.09074 0.0
C722 C 0.56827 0.1295 0.08151 0.0
C723 C 0.55449 0.1132 0.11887 0.0
N724 N 0.56024 0.09904 0.03865 0.0
N725 N 0.57116 0.1201 0.03307 0.0
C726 C 0.53683 0.07241 0.11512 0.0
H727 H 0.52074 0.06507 0.09469 0.0
H728 H 0.54447 0.06288 0.10337 0.0
H729 H 0.5351 0.07249 0.16427 0.0
C730 C 0.61201 0.07207 0.96937 0.0
N731 N 0.59256 0.06894 0.95563 0.0
N732 N 0.58695 0.07878 0.99484 0.0
C733 C 0.60215 0.08743 0.03705 0.0
C734 C 0.61867 0.08369 0.02209 0.0
C735 C 0.62466 0.06606 0.92897 0.0
H736 H 0.62108 0.06759 0.88177 0.0
H737 H 0.62004 0.04915 0.93712 0.0
H738 H 0.64206 0.07633 0.93665 0.0
O739 O 0.56918 0.07223 0.84303 0.0
O740 O 0.56039 0.09107 0.90246 0.0
H741 H 0.60332 0.11414 0.08185 0.0
H742 H 0.61176 0.09906 0.12727 0.0
C743 C 0.60028 0.09789 0.09262 0.0
H744 H 0.58397 0.08845 0.11107 0.0
H745 H 0.58097 0.12807 0.99684 0.0
O746 O 0.5837 0.03909 0.84152 0.0
C747 C 0.56425 0.0866 0.85073 0.0
Co748 Co 0.93915 0.51597 0.9023 0.0
Co749 Co 0.91277 0.47646 0.98428 0.0
C750 C 0.96007 0.49568 0.97049 0.0
O751 O 0.96136 0.51046 0.93668 0.0
O752 O 0.94214 0.4812 0.99041 0.0
C753 C 0.97077 0.55797 0.85918 0.0
O754 O 0.98055 0.56036 0.91035 0.0
C755 C 0.90124 0.4522 0.09457 0.0
C756 C 0.86642 0.43062 0.08563 0.0
C757 C 0.8835 0.43663 0.1237 0.0
N758 N 0.89515 0.45559 0.04126 0.0
N759 N 0.87431 0.44257 0.03589 0.0
C760 C 0.92349 0.46438 0.11873 0.0
H761 H 0.93193 0.45551 0.10821 0.0
H762 H 0.93231 0.48051 0.09853 0.0
H763 H 0.9233 0.4659 0.16793 0.0
C764 C 0.91852 0.53403 0.97723 0.0
N765 N 0.92263 0.51841 0.96256 0.0
N766 N 0.91285 0.50243 0.00015 0.0
C767 C 0.90319 0.5079 0.0423 0.0
C768 C 0.90602 0.5279 0.02838 0.0
C769 C 0.92507 0.55353 0.93998 0.0
H770 H 0.92486 0.54961 0.89211 0.0
H771 H 0.94159 0.56586 0.95206 0.0
H772 H 0.91431 0.56014 0.94703 0.0
O773 O 0.92049 0.49327 0.84818 0.0
O774 O 0.90073 0.46477 0.90399 0.0
H775 H 0.87838 0.48039 0.0866 0.0
H776 H 0.89009 0.50449 0.13139 0.0
C777 C 0.8934 0.49523 0.09785 0.0
H778 H 0.90454 0.49078 0.11822 0.0
H779 H 0.86543 0.44209 -0.00129 0.0
O780 O 0.95298 0.54119 0.85035 0.0
C781 C 0.90583 0.47395 0.8534 0.0
Co782 Co 0.47164 0.41588 0.90474 0.0
Co783 Co 0.51042 0.42958 0.99016 0.0
C784 C 0.49139 0.4576 0.97154 0.0
O785 O 0.47727 0.44405 0.93643 0.0
O786 O 0.50541 0.45408 0.99477 0.0
C787 C 0.43076 0.40743 0.86284 0.0
O788 O 0.42967 0.41528 0.91471 0.0
C789 C 0.53312 0.44132 0.10321 0.0
C790 C 0.55678 0.43068 0.09252 0.0
C791 C 0.54906 0.43976 0.13247 0.0
N792 N 0.53104 0.43312 0.0484 0.0
N793 N 0.54529 0.42685 0.04205 0.0
C794 C 0.51995 0.45035 0.12713 0.0
H795 H 0.528 0.46763 0.11641 0.0
H796 H 0.50392 0.44238 0.10614 0.0
H797 H 0.51829 0.44856 0.17628 0.0
C798 C 0.45388 0.37679 0.9781 0.0
N799 N 0.46881 0.39711 0.96614 0.0
N800 N 0.48461 0.40343 0.00442 0.0
C801 C 0.47972 0.38765 0.04396 0.0
C802 C 0.4604 0.37005 0.02761 0.0
C803 C 0.43502 0.36365 0.93898 0.0
H804 H 0.43966 0.36744 0.89149 0.0
H805 H 0.42243 0.36776 0.94865 0.0
H806 H 0.42843 0.3463 0.94644 0.0
O807 O 0.49462 0.41934 0.85222 0.0
O808 O 0.52268 0.42912 0.9109 0.0
H809 H 0.50804 0.39104 0.08483 0.0
H810 H 0.48411 0.37607 0.1291 0.0
C811 C 0.49269 0.38977 0.09827 0.0
H812 H 0.4961 0.40442 0.12276 0.0
H813 H 0.547 0.41975 0.00353 0.0
O814 O 0.44645 0.40464 0.8526 0.0
C815 C 0.51395 0.42428 0.8597 0.0
Co816 Co 0.60585 0.75038 0.73315 0.0
Co817 Co 0.57698 0.76217 0.8094 0.0
C818 C 0.62493 0.79116 0.80057 0.0
O819 O 0.62719 0.77823 0.76694 0.0
O820 O 0.60651 0.78691 0.81854 0.0
C821 C 0.63975 0.74443 0.68728 0.0
O822 O 0.65027 0.75537 0.73449 0.0
C823 C 0.56498 0.76998 0.92511 0.0
C824 C 0.53601 0.77204 0.90783 0.0
C825 C 0.54987 0.77345 0.95248 0.0
N826 N 0.56009 0.76613 0.86715 0.0
N827 N 0.5426 0.76715 0.85698 0.0
C828 C 0.58495 0.77236 0.95239 0.0
H829 H 0.59309 0.7668 0.92134 0.0
H830 H 0.58116 0.7631 0.99442 0.0
H831 H 0.59585 0.78941 0.96357 0.0
C832 C 0.58701 0.71284 0.81271 0.0
N833 N 0.58943 0.73159 0.79402 0.0
N834 N 0.5765 0.73601 0.82431 0.0
C835 C 0.56508 0.7199 0.86255 0.0
C836 C 0.57164 0.70495 0.85714 0.0
C837 C 0.59929 0.70292 0.78837 0.0
H838 H 0.61651 0.71506 0.78673 0.0
H839 H 0.597 0.68916 0.81584 0.0
H840 H 0.59395 0.69746 0.74208 0.0
O841 O 0.58687 0.75389 0.67746 0.0
O842 O 0.56575 0.76206 0.72901 0.0
H843 H 0.53535 0.70069 0.9096 0.0
H844 H 0.5528 0.72643 0.94167 0.0
C845 C 0.54672 0.71769 0.89907 0.0
H846 H 0.53811 0.72444 0.87475 0.0
H847 H 0.53561 0.76523 0.81509 0.0
O848 O 0.62024 0.73912 0.68193 0.0
C849 C 0.57175 0.75803 0.67976 0.0
Co850 Co 0.24304 0.85684 0.72351 0.0
Co851 Co 0.22906 0.816 0.79987 0.0
C852 C 0.20221 0.83732 0.79091 0.0
O853 O 0.21561 0.85197 0.75682 0.0
O854 O 0.20547 0.82253 0.80953 0.0
C855 C 0.25228 0.89815 0.68161 0.0
O856 O 0.24309 0.89894 0.7314 0.0
C857 C 0.22017 0.7951 0.91389 0.0
C858 C 0.21769 0.76398 0.89419 0.0
C859 C 0.21641 0.77622 0.93975 0.0
N860 N 0.22405 0.79443 0.85582 0.0
N861 N 0.22273 0.77587 0.84412 0.0
C862 C 0.21825 0.81277 0.94266 0.0
H863 H 0.20111 0.80739 0.94988 0.0
H864 H 0.22539 0.8272 0.91399 0.0
H865 H 0.22622 0.81679 0.98678 0.0
C866 C 0.28048 0.87379 0.80302 0.0
N867 N 0.26131 0.85817 0.78451 0.0
N868 N 0.25592 0.84064 0.815 0.0
C869 C 0.27178 0.84444 0.8532 0.0
C870 C 0.28761 0.86562 0.8475 0.0
C871 C 0.29144 0.89604 0.77871 0.0
H872 H 0.28033 0.90242 0.78031 0.0
H873 H 0.30606 0.9068 0.80426 0.0
H874 H 0.29567 0.89569 0.73132 0.0
O875 O 0.23852 0.83409 0.66703 0.0
O876 O 0.2286 0.80471 0.71988 0.0
H877 H 0.28957 0.83251 0.90141 0.0
H878 H 0.26387 0.82535 0.93207 0.0
C879 C 0.27282 0.82769 0.88999 0.0
H880 H 0.26561 0.81235 0.8654 0.0
H881 H 0.22473 0.77112 0.80182 0.0
O882 O 0.25548 0.88262 0.67345 0.0
C883 C 0.23311 0.81446 0.67025 0.0
Co884 Co 0.14194 0.38876 0.74475 0.0
Co885 Co 0.1819 0.41591 0.82477 0.0
C886 C 0.16173 0.36812 0.81501 0.0
O887 O 0.14691 0.36654 0.78095 0.0
O888 O 0.17633 0.38626 0.83323 0.0
C889 C 0.10041 0.35683 0.6995 0.0
O890 O 0.09816 0.34664 0.74987 0.0
C891 C 0.20368 0.42666 0.93844 0.0
C892 C 0.23148 0.45882 0.92393 0.0
C893 C 0.22135 0.44291 0.96613 0.0
N894 N 0.2029 0.4327 0.88247 0.0
N895 N 0.21955 0.45198 0.8739 0.0
C896 C 0.18806 0.40543 0.9646 0.0
H897 H 0.195 0.3948 0.96291 0.0
H898 H 0.17285 0.39798 0.93936 0.0
H899 H 0.18489 0.40722 0.01205 0.0
C900 C 0.12451 0.41066 0.81657 0.0
N901 N 0.13992 0.40608 0.80344 0.0
N902 N 0.15638 0.41695 0.83885 0.0
C903 C 0.15165 0.42829 0.87733 0.0
C904 C 0.13134 0.42476 0.86434 0.0
C905 C 0.10489 0.40352 0.77946 0.0
H906 H 0.10903 0.40437 0.73154 0.0
H907 H 0.09322 0.38662 0.79022 0.0
H908 H 0.09746 0.41351 0.78745 0.0
O909 O 0.16493 0.40683 0.69024 0.0
O910 O 0.19374 0.42727 0.74414 0.0
H911 H 0.18139 0.45434 0.90798 0.0
H912 H 0.15885 0.44897 0.95496 0.0
C913 C 0.16607 0.44166 0.92681 0.0
H914 H 0.16943 0.43144 0.95624 0.0
H915 H 0.2229 0.46035 0.83377 0.0
O916 O 0.11684 0.37504 0.6921 0.0
C917 C 0.18425 0.4216 0.69405 0.0
Co918 Co 0.41296 0.93546 0.09693 0.0
Co919 Co 0.42458 0.90668 0.01925 0.0
C920 C 0.45435 0.95414 0.03295 0.0
O921 O 0.44123 0.95607 0.06641 0.0
O922 O 0.45004 0.93607 0.01176 0.0
C923 C 0.40899 0.97046 0.1401 0.0
O924 O 0.4199 0.97996 0.09178 0.0
C925 C 0.43276 0.89536 0.90286 0.0
C926 C 0.43437 0.86605 0.91858 0.0
C927 C 0.43647 0.8805 0.87474 0.0
N928 N 0.42837 0.8899 0.96041 0.0
N929 N 0.42908 0.8722 0.96959 0.0
C930 C 0.43553 0.91568 0.87691 0.0
H931 H 0.43043 0.92394 0.909 0.0
H932 H 0.42598 0.91224 0.83554 0.0
H933 H 0.45255 0.92631 0.86496 0.0
C934 C 0.37612 0.91814 0.01669 0.0
N935 N 0.39469 0.92006 0.03475 0.0
N936 N 0.39879 0.90705 0.00377 0.0
C937 C 0.38256 0.89601 0.96557 0.0
C938 C 0.36782 0.9028 0.97234 0.0
C939 C 0.36685 0.93099 0.04133 0.0
H940 H 0.37936 0.94809 0.04273 0.0
H941 H 0.35324 0.92918 0.01409 0.0
H942 H 0.3614 0.92579 0.08773 0.0
O943 O 0.41518 0.91569 0.15156 0.0
O944 O 0.42367 0.89475 0.10023 0.0
H945 H 0.38676 0.86897 0.95029 0.0
H946 H 0.36307 0.86679 0.9167 0.0
C947 C 0.38011 0.87793 0.92734 0.0
H948 H 0.38883 0.88441 0.88487 0.0
H949 H 0.42674 0.86478 0.01098 0.0
O950 O 0.40251 0.95073 0.14722 0.0
C951 C 0.41912 0.90044 0.14935 0.0
Co952 Co 0.0619 0.48083 0.11419 0.0
Co953 Co 0.08613 0.51969 0.02837 0.0
C954 C 0.03901 0.49931 0.04665 0.0
O955 O 0.03888 0.48537 0.08168 0.0
O956 O 0.05638 0.51402 0.02446 0.0
C957 C 0.03117 0.43872 0.15597 0.0
O958 O 0.02227 0.43633 0.10336 0.0
C959 C 0.0957 0.54501 0.92019 0.0
C960 C 0.131 0.56356 0.91949 0.0
C961 C 0.11307 0.55964 0.88746 0.0
N962 N 0.10288 0.54041 0.96984 0.0
N963 N 0.124 0.55169 0.96959 0.0
C964 C 0.07274 0.53395 0.90162 0.0
H965 H 0.06453 0.54118 0.92579 0.0
H966 H 0.06489 0.51676 0.91335 0.0
H967 H 0.07104 0.5355 0.853 0.0
C968 C 0.08131 0.46248 0.03588 0.0
N969 N 0.07759 0.47825 0.05181 0.0
N970 N 0.08645 0.4939 0.01288 0.0
C971 C 0.09512 0.48805 0.96879 0.0
C972 C 0.09232 0.46802 0.98206 0.0
C973 C 0.07635 0.44379 0.07505 0.0
H974 H 0.07821 0.44866 0.12255 0.0
H975 H 0.05952 0.43113 0.06797 0.0
H976 H 0.08699 0.43722 0.06519 0.0
O977 O 0.0809 0.50414 0.16631 0.0
O978 O 0.09884 0.53218 0.10738 0.0
H979 H 0.12079 0.51441 0.92342 0.0
H980 H 0.10607 0.49098 0.87742 0.0
C981 C 0.1047 0.50081 0.91325 0.0
H982 H 0.09457 0.50717 0.89668 0.0
H983 H 0.13364 0.55082 0.00277 0.0
O984 O 0.04862 0.45569 0.16668 0.0
C985 C 0.0949 0.52361 0.15879 0.0
Co986 Co 0.51719 0.5783 0.10354 0.0
Co987 Co 0.47693 0.56778 0.02776 0.0
C988 C 0.49458 0.53755 0.03656 0.0
O989 O 0.50994 0.55029 0.06993 0.0
O990 O 0.48076 0.54229 0.01833 0.0
C991 C 0.55703 0.58394 0.14852 0.0
O992 O 0.55686 0.57336 0.10066 0.0
C993 C 0.45631 0.5607 0.9131 0.0
C994 C 0.42635 0.5606 0.9332 0.0
C995 C 0.43791 0.55835 0.88732 0.0
N996 N 0.45603 0.56472 0.97131 0.0
N997 N 0.43818 0.56486 0.98316 0.0
C998 C 0.4729 0.55708 0.88415 0.0
H999 H 0.48666 0.56175 0.91441 0.0
H1000 H 0.47858 0.56642 0.84229 0.0
H1001 H 0.46573 0.53994 0.87236 0.0
C1002 C 0.53685 0.61598 0.02548 0.0
N1003 N 0.52013 0.59737 0.04318 0.0
N1004 N 0.50306 0.59357 0.01256 0.0
C1005 C 0.50839 0.60999 0.97483 0.0
C1006 C 0.52995 0.62455 0.98156 0.0
C1007 C 0.55896 0.62502 0.04982 0.0
H1008 H 0.56361 0.61254 0.04909 0.0
H1009 H 0.57072 0.63902 0.02369 0.0
H1010 H 0.55915 0.62981 0.09692 0.0
O1011 O 0.49507 0.57526 0.15962 0.0
O1012 O 0.46607 0.5682 0.10869 0.0
H1013 H 0.49904 0.62977 0.92593 0.0
H1014 H 0.49052 0.6039 0.8943 0.0
C1015 C 0.49292 0.6127 0.93671 0.0
H1016 H 0.47736 0.60628 0.95984 0.0
H1017 H 0.43378 0.56721 0.02557 0.0
O1018 O 0.54268 0.58901 0.15439 0.0
C1019 C 0.47598 0.57162 0.15791 0.0
Co1020 Co 0.05462 0.58017 0.60192 0.0
Co1021 Co 0.08559 0.57127 0.52645 0.0
C1022 C 0.03808 0.53959 0.53441 0.0
O1023 O 0.03471 0.55185 0.56785 0.0
O1024 O 0.05688 0.54509 0.51657 0.0
C1025 C 0.01922 0.58388 0.64593 0.0
O1026 O 0.00933 0.57294 0.59805 0.0
C1027 C 0.10001 0.56542 0.41184 0.0
C1028 C 0.13077 0.56719 0.43147 0.0
C1029 C 0.11677 0.56438 0.38571 0.0
N1030 N 0.10408 0.56927 0.47014 0.0
N1031 N 0.12261 0.57053 0.48176 0.0
C1032 C 0.07948 0.56085 0.38298 0.0
H1033 H 0.06983 0.56475 0.41348 0.0
H1034 H 0.08272 0.57025 0.3414 0.0
H1035 H 0.07026 0.54369 0.37076 0.0
C1036 C 0.07161 0.61795 0.52404 0.0
N1037 N 0.07037 0.5996 0.54178 0.0
N1038 N 0.08412 0.59643 0.51139 0.0
C1039 C 0.09487 0.61296 0.47382 0.0
C1040 C 0.08712 0.62692 0.48025 0.0
C1041 C 0.05809 0.62647 0.54853 0.0
H1042 H 0.04108 0.61375 0.54733 0.0
H1043 H 0.06015 0.6405 0.52285 0.0
H1044 H 0.06246 0.6311 0.59582 0.0
O1045 O 0.07422 0.57804 0.65827 0.0
O1046 O 0.09698 0.57216 0.60715 0.0
H1047 H 0.124 0.63367 0.42597 0.0
H1048 H 0.10762 0.60772 0.39374 0.0
C1049 C 0.11352 0.61648 0.43639 0.0
H1050 H 0.12304 0.6106 0.45992 0.0
H1051 H 0.12937 0.57309 0.52415 0.0
O1052 O 0.03887 0.58997 0.65232 0.0
C1053 C 0.09019 0.57519 0.6564 0.0
Co1054 Co 0.41348 0.47547 0.61601 0.0
Co1055 Co 0.42674 0.51421 0.53047 0.0
C1056 C 0.45595 0.49701 0.55284 0.0
O1057 O 0.44227 0.48246 0.58681 0.0
O1058 O 0.45224 0.51085 0.52926 0.0
C1059 C 0.40507 0.4342 0.65664 0.0
O1060 O 0.41282 0.43302 0.60466 0.0
C1061 C 0.44195 0.54037 0.42318 0.0
C1062 C 0.42242 0.55609 0.42094 0.0
C1063 C 0.43779 0.55396 0.3899 0.0
N1064 N 0.42967 0.53465 0.47213 0.0
N1065 N 0.4182 0.5443 0.471 0.0
C1066 C 0.45563 0.53111 0.40546 0.0
H1067 H 0.44783 0.51404 0.41842 0.0
H1068 H 0.4587 0.53247 0.35674 0.0
H1069 H 0.47114 0.53989 0.42901 0.0
C1070 C 0.3771 0.45505 0.53293 0.0
N1071 N 0.39567 0.47171 0.55123 0.0
N1072 N 0.40212 0.4874 0.51254 0.0
C1073 C 0.38842 0.48074 0.46635 0.0
C1074 C 0.37195 0.46011 0.47789 0.0
C1075 C 0.36373 0.43585 0.57083 0.0
H1076 H 0.36601 0.4404 0.61861 0.0
H1077 H 0.36886 0.42389 0.56373 0.0
H1078 H 0.34654 0.42853 0.5596 0.0
O1079 O 0.41542 0.49788 0.66831 0.0
O1080 O 0.42471 0.52578 0.60947 0.0
H1081 H 0.38795 0.50627 0.41939 0.0
H1082 H 0.38146 0.48322 0.37365 0.0
C1083 C 0.39169 0.4934 0.41056 0.0
H1084 H 0.40854 0.50075 0.39619 0.0
H1085 H 0.40695 0.54224 0.50337 0.0
O1086 O 0.4027 0.45012 0.66742 0.0
C1087 C 0.41996 0.5171 0.66075 0.0
Co1088 Co 0.51986 0.93979 0.59807 0.0
Co1089 Co 0.48003 0.91442 0.51635 0.0
C1090 C 0.49887 0.96135 0.53385 0.0
O1091 O 0.51341 0.962 0.56743 0.0
O1092 O 0.48451 0.94374 0.51164 0.0
C1093 C 0.5609 0.97286 0.6377 0.0
O1094 O 0.56114 0.98215 0.58715 0.0
C1095 C 0.45217 0.90122 0.41157 0.0
C1096 C 0.43741 0.86605 0.41416 0.0
C1097 C 0.43867 0.88272 0.3809 0.0
N1098 N 0.45877 0.89587 0.4611 0.0
N1099 N 0.44965 0.87479 0.46289 0.0
C1100 C 0.45998 0.92369 0.39167 0.0
H1101 H 0.45151 0.93027 0.41761 0.0
H1102 H 0.47733 0.93367 0.40046 0.0
H1103 H 0.45688 0.92447 0.34355 0.0
C1104 C 0.5376 0.92004 0.5174 0.0
N1105 N 0.52212 0.924 0.53509 0.0
N1106 N 0.50606 0.91506 0.49756 0.0
C1107 C 0.51139 0.90637 0.45239 0.0
C1108 C 0.53127 0.90858 0.46433 0.0
C1109 C 0.55727 0.92595 0.55301 0.0
H1110 H 0.55394 0.926 0.60124 0.0
H1111 H 0.56993 0.94226 0.54015 0.0
H1112 H 0.56318 0.91465 0.54476 0.0
O1113 O 0.49782 0.92053 0.65334 0.0
O1114 O 0.46909 0.90218 0.5973 0.0
H1115 H 0.48496 0.88254 0.40232 0.0
H1116 H 0.50896 0.89784 0.359 0.0
C1117 C 0.499 0.89863 0.3955 0.0
H1118 H 0.49326 0.90962 0.38191 0.0
H1119 H 0.45248 0.86643 0.49618 0.0
O1120 O 0.54573 0.95406 0.64742 0.0
C1121 C 0.47839 0.90624 0.64771 0.0
Co1122 Co 0.24203 0.38205 0.24197 0.0
Co1123 Co 0.23239 0.41106 0.32435 0.0
C1124 C 0.20107 0.36421 0.31046 0.0
O1125 O 0.21348 0.36129 0.27624 0.0
O1126 O 0.20652 0.3827 0.33054 0.0
C1127 C 0.24815 0.34775 0.19874 0.0
O1128 O 0.23999 0.33852 0.25008 0.0
C1129 C 0.22268 0.42378 0.43766 0.0
C1130 C 0.23238 0.45768 0.42342 0.0
C1131 C 0.22409 0.44147 0.46527 0.0
N1132 N 0.23031 0.42921 0.38206 0.0
N1133 N 0.23612 0.44953 0.37368 0.0
C1134 C 0.21404 0.40196 0.46399 0.0
H1135 H 0.21954 0.39248 0.43838 0.0
H1136 H 0.21913 0.40316 0.51116 0.0
H1137 H 0.19635 0.39368 0.46344 0.0
C1138 C 0.2816 0.40115 0.31415 0.0
N1139 N 0.26189 0.39769 0.30196 0.0
N1140 N 0.25724 0.40899 0.33866 0.0
C1141 C 0.27346 0.41927 0.37724 0.0
C1142 C 0.28958 0.41494 0.36255 0.0
C1143 C 0.29332 0.39357 0.27529 0.0
H1144 H 0.2896 0.39446 0.22779 0.0
H1145 H 0.2879 0.37663 0.28592 0.0
H1146 H 0.31084 0.40324 0.28194 0.0
O1147 O 0.2397 0.40203 0.18787 0.0
O1148 O 0.23351 0.4235 0.24452 0.0
H1149 H 0.27307 0.44692 0.41021 0.0
H1150 H 0.28736 0.43802 0.45768 0.0
C1151 C 0.27339 0.43276 0.42792 0.0
H1152 H 0.25897 0.42329 0.45533 0.0
H1153 H 0.24248 0.45779 0.33392 0.0
O1154 O 0.25153 0.36652 0.18968 0.0
C1155 C 0.23662 0.41777 0.19361 0.0
Co1156 Co 0.60906 0.85576 0.23008 0.0
Co1157 Co 0.58071 0.81668 0.31181 0.0
C1158 C 0.62782 0.83363 0.29953 0.0
O1159 O 0.63027 0.84878 0.26527 0.0
O1160 O 0.60945 0.82013 0.31926 0.0
C1161 C 0.64304 0.89615 0.18602 0.0
O1162 O 0.65272 0.89694 0.23628 0.0
C1163 C 0.56816 0.79397 0.42447 0.0
C1164 C 0.53485 0.76857 0.40864 0.0
C1165 C 0.55084 0.77698 0.45108 0.0
N1166 N 0.56274 0.79605 0.36882 0.0
N1167 N 0.54276 0.78085 0.3595 0.0
C1168 C 0.58971 0.80776 0.45164 0.0
H1169 H 0.59886 0.82286 0.42635 0.0
H1170 H 0.58803 0.81143 0.49871 0.0
H1171 H 0.59859 0.79893 0.45164 0.0
C1172 C 0.58833 0.87496 0.30111 0.0
N1173 N 0.59256 0.85918 0.28918 0.0
N1174 N 0.58152 0.84308 0.32563 0.0
C1175 C 0.5706 0.84847 0.36372 0.0
C1176 C 0.57409 0.8686 0.34852 0.0
C1177 C 0.59629 0.89472 0.26407 0.0
H1178 H 0.5953 0.89055 0.21614 0.0
H1179 H 0.61332 0.90579 0.27489 0.0
H1180 H 0.58701 0.9029 0.27226 0.0
O1181 O 0.58991 0.83314 0.17542 0.0
O1182 O 0.56898 0.80512 0.2316 0.0
H1183 H 0.54417 0.82001 0.3995 0.0
H1184 H 0.55237 0.84354 0.4452 0.0
C1185 C 0.55801 0.83506 0.41572 0.0
H1186 H 0.56828 0.83105 0.44284 0.0
H1187 H 0.53463 0.7787 0.31941 0.0
O1188 O 0.62412 0.88095 0.17797 0.0
C1189 C 0.5747 0.81404 0.18079 0.0
Co1190 Co 0.13766 0.75194 0.22909 0.0
Co1191 Co 0.17837 0.76311 0.3026 0.0
C1192 C 0.15949 0.79229 0.29794 0.0
O1193 O 0.14409 0.77961 0.26451 0.0
O1194 O 0.17368 0.78782 0.31416 0.0
C1195 C 0.09748 0.74548 0.18466 0.0
O1196 O 0.09767 0.75635 0.23186 0.0
C1197 C 0.19903 0.77072 0.41608 0.0
C1198 C 0.23 0.77299 0.39595 0.0
C1199 C 0.21786 0.77434 0.4417 0.0
N1200 N 0.1996 0.76683 0.358 0.0
N1201 N 0.21805 0.76796 0.34603 0.0
C1202 C 0.18169 0.77317 0.44502 0.0
H1203 H 0.18776 0.79031 0.45468 0.0
H1204 H 0.16751 0.76707 0.41563 0.0
H1205 H 0.17698 0.76444 0.48802 0.0
C1206 C 0.11891 0.71448 0.30846 0.0
N1207 N 0.13543 0.7329 0.28876 0.0
N1208 N 0.15281 0.73699 0.31812 0.0
C1209 C 0.14796 0.72097 0.35686 0.0
C1210 C 0.1263 0.70646 0.35265 0.0
C1211 C 0.09654 0.70517 0.28605 0.0
H1212 H 0.09183 0.71761 0.28681 0.0
H1213 H 0.08511 0.69134 0.31333 0.0
H1214 H 0.09584 0.70003 0.2391 0.0
O1215 O 0.15988 0.75584 0.17144 0.0
O1216 O 0.18918 0.76349 0.22183 0.0
H1217 H 0.17929 0.72509 0.36916 0.0
H1218 H 0.15806 0.70151 0.40416 0.0
C1219 C 0.16393 0.71855 0.39346 0.0
H1220 H 0.16666 0.72735 0.43599 0.0
H1221 H 0.22279 0.7661 0.30356 0.0
O1222 O 0.1119 0.74048 0.17928 0.0
C1223 C 0.17918 0.76009 0.17287 0.0
C1224 C 0.31716 0.07988 0.85589 0.0
C1225 C 0.33954 0.09032 0.85972 0.0
C1226 C 0.30446 0.07291 0.9072 0.0
C1227 C 0.31366 0.07622 0.96437 0.0
H1228 H 0.30938 0.07851 0.81355 0.0
H1229 H 0.28742 0.06641 0.90204 0.0
S1230 S 0.37108 0.09745 0.99718 0.0
N1231 N 0.37007 0.09954 0.92414 0.0
N1232 N 0.34617 0.08665 0.02063 0.0
C1233 C 0.33577 0.08411 0.96816 0.0
C1234 C 0.34873 0.09113 0.91578 0.0
C1235 C 0.90014 0.25785 0.90364 0.0
C1236 C 0.90408 0.2522 0.84682 0.0
C1237 C 0.90698 0.2523 0.95548 0.0
C1238 C 0.91809 0.24099 0.95242 0.0
H1239 H 0.8902 0.26505 0.90858 0.0
H1240 H 0.90193 0.25535 -0.00196 0.0
S1241 S 0.93798 0.22825 0.8144 0.0
N1242 N 0.92382 0.23892 0.79043 0.0
N1243 N 0.93694 0.22872 0.88786 0.0
C1244 C 0.92479 0.23803 0.89588 0.0
C1245 C 0.91771 0.24361 0.843 0.0
C1246 C 0.74839 0.66223 0.9481 0.0
C1247 C 0.75841 0.6846 0.94479 0.0
C1248 C 0.74243 0.64979 0.8963 0.0
C1249 C 0.74634 0.65927 0.83932 0.0
H1250 H 0.74688 0.65436 0.99037 0.0
H1251 H 0.73637 0.6328 0.90106 0.0
S1252 S 0.76596 0.71654 0.808 0.0
N1253 N 0.7673 0.71523 0.88122 0.0
N1254 N 0.75627 0.69183 0.78368 0.0
C1255 C 0.75347 0.68125 0.83597 0.0
C1256 C 0.75948 0.69394 0.88883 0.0
C1257 C 0.07514 0.32281 0.64785 0.0
C1258 C 0.08777 0.34519 0.64625 0.0
C1259 C 0.06844 0.31086 0.59513 0.0
C1260 C 0.07421 0.32085 0.53884 0.0
H1261 H 0.07185 0.31428 0.68975 0.0
H1262 H 0.06021 0.29361 0.59884 0.0
S1263 S 0.10173 0.37924 0.51094 0.0
N1264 N 0.10169 0.37705 0.58419 0.0
N1265 N 0.08929 0.35455 0.48514 0.0
C1266 C 0.08434 0.34327 0.53686 0.0
C1267 C 0.09109 0.35546 0.5906 0.0
C1268 C 0.6415 0.73934 0.57759 0.0
C1269 C 0.65147 0.74362 0.63387 0.0
C1270 C 0.65344 0.74434 0.52487 0.0
C1271 C 0.6758 0.75373 0.5264 0.0
H1272 H 0.62457 0.7337 0.5739 0.0
H1273 H 0.64522 0.74243 0.48301 0.0
S1274 S 0.70873 0.76237 0.66174 0.0
N1275 N 0.68435 0.7536 0.68756 0.0
N1276 N 0.70681 0.76278 0.58848 0.0
C1277 C 0.68556 0.75541 0.58207 0.0
C1278 C 0.67339 0.75043 0.63582 0.0
C1279 C 0.24228 0.92289 0.63278 0.0
C1280 C 0.2525 0.91072 0.6291 0.0
C1281 C 0.23562 0.92881 0.5813 0.0
C1282 C 0.23884 0.9227 0.52429 0.0
H1283 H 0.23766 0.92626 0.67559 0.0
H1284 H 0.22624 0.93661 0.58676 0.0
S1285 S 0.27078 0.89672 0.49016 0.0
N1286 N 0.27013 0.89734 0.56367 0.0
N1287 N 0.2573 0.90823 0.46689 0.0
C1288 C 0.25181 0.91335 0.51977 0.0
C1289 C 0.25871 0.90741 0.57228 0.0
C1290 C 0.64549 0.9039 0.07688 0.0
C1291 C 0.65541 0.90864 0.13329 0.0
C1292 C 0.65754 0.91021 0.02432 0.0
C1293 C 0.67997 0.92159 0.02614 0.0
H1294 H 0.62835 0.89374 0.07294 0.0
H1295 H 0.6492 0.90453 0.98232 0.0
S1296 S 0.71336 0.94351 0.16193 0.0
N1297 N 0.68872 0.9294 0.18746 0.0
N1298 N 0.7114 0.9415 0.08863 0.0
C1299 C 0.68992 0.92901 0.08196 0.0
C1300 C 0.67762 0.92248 0.1356 0.0
C1301 C 0.0862 0.7471 0.02173 0.0
C1302 C 0.07429 0.75763 0.02251 0.0
C1303 C 0.09164 0.74084 0.07481 0.0
C1304 C 0.08549 0.74503 0.13059 0.0
H1305 H 0.093 0.74535 0.98052 0.0
H1306 H 0.10237 0.73448 0.07201 0.0
S1307 S 0.04812 0.7654 0.15517 0.0
N1308 N 0.05191 0.76688 0.08234 0.0
N1309 N 0.06248 0.75538 0.18227 0.0
C1310 C 0.07096 0.75257 0.13131 0.0
C1311 C 0.06526 0.7588 0.07714 0.0
C1312 C 0.24635 0.33235 0.03749 0.0
C1313 C 0.23468 0.30994 0.04028 0.0
C1314 C 0.2528 0.34465 0.08958 0.0
C1315 C 0.24774 0.33498 0.14637 0.0
H1316 H 0.24891 0.34055 0.99525 0.0
H1317 H 0.26022 0.36183 0.08506 0.0
S1318 S 0.2233 0.27696 0.17693 0.0
N1319 N 0.22278 0.27864 0.10363 0.0
N1320 N 0.23469 0.30178 0.20162 0.0
C1321 C 0.2388 0.31269 0.14943 0.0
C1322 C 0.23231 0.30015 0.09628 0.0
C1323 C 0.92792 0.69143 0.38615 0.0
C1324 C 0.92258 0.682 0.44322 0.0
C1325 C 0.92131 0.67892 0.33442 0.0
C1326 C 0.90917 0.65652 0.33784 0.0
H1327 H 0.93575 0.70862 0.38108 0.0
H1328 H 0.92423 0.68697 0.29183 0.0
S1329 S 0.89644 0.62398 0.47582 0.0
N1330 N 0.90844 0.64892 0.49963 0.0
N1331 N 0.89616 0.62539 0.40241 0.0
C1332 C 0.90627 0.6469 0.3943 0.0
C1333 C 0.91296 0.65965 0.44703 0.0
C1334 C 0.325 0.24484 0.36168 0.0
C1335 C 0.34741 0.25543 0.36309 0.0
C1336 C 0.31314 0.24044 0.4144 0.0
C1337 C 0.32327 0.24638 0.47046 0.0
H1338 H 0.31646 0.23825 0.32037 0.0
H1339 H 0.29593 0.23071 0.41127 0.0
S1340 S 0.38154 0.28024 0.49606 0.0
N1341 N 0.37925 0.27612 0.42337 0.0
N1342 N 0.35694 0.26767 0.52256 0.0
C1343 C 0.3456 0.25957 0.47153 0.0
C1344 C 0.35768 0.26413 0.41777 0.0
C1345 C 0.75981 0.0669 0.39859 0.0
C1346 C 0.75491 0.07187 0.45514 0.0
C1347 C 0.75337 0.07258 0.34619 0.0
C1348 C 0.74173 0.08338 0.34844 0.0
H1349 H 0.7702 0.06018 0.39444 0.0
H1350 H 0.75918 0.07015 0.30407 0.0
S1351 S 0.71915 0.09392 0.48452 0.0
N1352 N 0.73358 0.08371 0.50975 0.0
N1353 N 0.7213 0.09423 0.41121 0.0
C1354 C 0.73411 0.08559 0.40432 0.0
C1355 C 0.74074 0.07986 0.45776 0.0
C1356 C 0.99619 0.4128 0.20166 0.0
C1357 C 0.01847 0.42546 0.20708 0.0
C1358 C 0.98311 0.40572 0.25226 0.0
C1359 C 0.99183 0.4111 0.31009 0.0
H1360 H 0.98861 0.40988 0.15837 0.0
H1361 H 0.96598 0.3975 0.24567 0.0
S1362 S 0.04949 0.43845 0.34786 0.0
N1363 N 0.0489 0.43893 0.27434 0.0
N1364 N 0.02429 0.42579 0.36948 0.0
C1365 C 0.01415 0.42117 0.31595 0.0
C1366 C 0.02749 0.42833 0.26436 0.0
C1367 C 0.58649 0.56729 0.25396 0.0
C1368 C 0.58145 0.57251 0.30995 0.0
C1369 C 0.58049 0.57304 0.20094 0.0
C1370 C 0.56934 0.58434 0.20187 0.0
H1371 H 0.59358 0.55719 0.25081 0.0
H1372 H 0.58311 0.56706 0.15937 0.0
S1373 S 0.55825 0.60747 0.33596 0.0
N1374 N 0.56898 0.59367 0.36255 0.0
N1375 N 0.55794 0.60477 0.26283 0.0
C1376 C 0.56698 0.59228 0.2571 0.0
C1377 C 0.57299 0.5863 0.31122 0.0
C1378 C 0.41181 0.98644 0.30131 0.0
C1379 C 0.423 0.00887 0.29791 0.0
C1380 C 0.40529 0.9739 0.24965 0.0
C1381 C 0.40982 0.98333 0.19261 0.0
H1382 H 0.40945 0.97845 0.34381 0.0
H1383 H 0.39819 0.95678 0.25469 0.0
S1384 S 0.43335 0.04111 0.16007 0.0
N1385 N 0.43426 0.03981 0.23339 0.0
N1386 N 0.42221 0.0162 0.13631 0.0
C1387 C 0.41856 0.00558 0.18889 0.0
C1388 C 0.4251 0.01837 0.24157 0.0
C1389 C 0.56998 0.97583 0.7459 0.0
C1390 C 0.5735 0.98571 0.68957 0.0
C1391 C 0.57555 0.98786 0.79849 0.0
C1392 C 0.58491 0.01019 0.79658 0.0
H1393 H 0.56119 0.95858 0.74981 0.0
H1394 H 0.57072 0.97941 0.84059 0.0
S1395 S 0.60354 0.04407 0.66078 0.0
N1396 N 0.59135 0.01934 0.63524 0.0
N1397 N 0.60204 0.04197 0.73412 0.0
C1398 C 0.59137 0.02038 0.74073 0.0
C1399 C 0.58562 0.00812 0.68712 0.0
C1400 C 0.00506 0.58267 0.8081 0.0
C1401 C 0.98264 0.57084 0.80659 0.0
C1402 C 0.01697 0.589 0.75528 0.0
C1403 C 0.00687 0.58361 0.6991 0.0
H1404 H 0.01355 0.58544 0.84988 0.0
H1405 H 0.03417 0.59651 0.75879 0.0
S1406 S 0.94867 0.55878 0.67193 0.0
N1407 N 0.95088 0.55851 0.74513 0.0
N1408 N 0.9733 0.57019 0.64578 0.0
C1409 C 0.98457 0.5745 0.69735 0.0
C1410 C 0.97243 0.56816 0.75119 0.0
C1411 C 0.42288 0.40361 0.75374 0.0
C1412 C 0.41812 0.40788 0.81134 0.0
C1413 C 0.41657 0.41018 0.70277 0.0
C1414 C 0.4052 0.4212 0.70754 0.0
H1415 H 0.43306 0.39672 0.74777 0.0
H1416 H 0.42227 0.40822 0.65987 0.0
S1417 S 0.38332 0.43058 0.84689 0.0
N1418 N 0.39738 0.4196 0.86939 0.0
N1419 N 0.38534 0.43178 0.77352 0.0
C1420 C 0.39779 0.42286 0.76431 0.0
C1421 C 0.40429 0.41623 0.81629 0.0
C1422 C 0.31192 0.1606 0.18355 0.0
C1423 C 0.31236 0.14378 0.1531 0.0
C1424 C 0.33078 0.17887 0.20141 0.0
C1425 C 0.35094 0.18109 0.18983 0.0
H1426 H 0.29687 0.15983 0.19321 0.0
H1427 H 0.32949 0.19146 0.22378 0.0
S1428 S 0.36092 0.14092 0.11528 0.0
N1429 N 0.33472 0.13016 0.11427 0.0
N1430 N 0.37008 0.1642 0.14884 0.0
C1431 C 0.35161 0.16416 0.16058 0.0
C1432 C 0.33239 0.14562 0.14194 0.0
C1433 C 0.81599 0.14628 0.18284 0.0
C1434 C 0.81147 0.1627 0.17009 0.0
C1435 C 0.8353 0.14773 0.16516 0.0
C1436 C 0.85092 0.16562 0.13374 0.0
H1437 H 0.80445 0.13203 0.20623 0.0
H1438 H 0.83788 0.13458 0.17597 0.0
S1439 S 0.84753 0.21362 0.09186 0.0
N1440 N 0.82478 0.19795 0.12624 0.0
N1441 N 0.86076 0.2005 0.09232 0.0
C1442 C 0.84672 0.18229 0.12129 0.0
C1443 C 0.82712 0.18088 0.13962 0.0
C1444 C 0.85127 0.67105 0.16362 0.0
C1445 C 0.83463 0.65065 0.14746 0.0
C1446 C 0.85114 0.68961 0.14632 0.0
C1447 C 0.83434 0.68869 0.11225 0.0
H1448 H 0.86461 0.6728 0.18991 0.0
H1449 H 0.8644 0.70482 0.16005 0.0
S1450 S 0.78688 0.6392 0.0574 0.0
N1451 N 0.80082 0.63065 0.09469 0.0
N1452 N 0.80065 0.66549 0.06212 0.0
C1453 C 0.81766 0.66839 0.09513 0.0
C1454 C 0.81778 0.64943 0.11278 0.0
C1455 C 0.15543 0.30713 0.33213 0.0
C1456 C 0.14031 0.30975 0.36515 0.0
C1457 C 0.1749 0.32475 0.31428 0.0
C1458 C 0.18008 0.34578 0.3285 0.0
H1459 H 0.15228 0.29131 0.31989 0.0
H1460 H 0.18601 0.32178 0.2894 0.0
S1461 S 0.1457 0.36158 0.41236 0.0
N1462 N 0.13183 0.33527 0.41051 0.0
N1463 N 0.16802 0.36821 0.37615 0.0
C1464 C 0.16498 0.34866 0.36093 0.0
C1465 C 0.14524 0.33073 0.37944 0.0
C1466 C 0.68539 0.84656 0.31887 0.0
C1467 C 0.68347 0.82896 0.35123 0.0
C1468 C 0.66739 0.84789 0.30225 0.0
C1469 C 0.64663 0.8317 0.3173 0.0
H1470 H 0.70095 0.85954 0.30619 0.0
H1471 H 0.66986 0.86182 0.27757 0.0
S1472 S 0.63264 0.78201 0.40143 0.0
N1473 N 0.65894 0.7949 0.39775 0.0
N1474 N 0.62521 0.79724 0.36609 0.0
C1475 C 0.64444 0.81396 0.34967 0.0
C1476 C 0.66279 0.81265 0.36676 0.0
C1477 C 0.1445 0.83515 0.32385 0.0
C1478 C 0.16151 0.85064 0.35818 0.0
C1479 C 0.14408 0.81651 0.30469 0.0
C1480 C 0.16059 0.81235 0.31921 0.0
H1481 H 0.13131 0.83739 0.31131 0.0
H1482 H 0.13059 0.80526 0.27819 0.0
S1483 S 0.20856 0.84731 0.41025 0.0
N1484 N 0.19516 0.86025 0.40732 0.0
N1485 N 0.19433 0.82517 0.37164 0.0
C1486 C 0.17759 0.82751 0.35445 0.0
C1487 C 0.17804 0.8466 0.37389 0.0
C1488 C 0.68307 0.83422 0.81818 0.0
C1489 C 0.68223 0.8496 0.85489 0.0
C1490 C 0.66454 0.81557 0.80093 0.0
C1491 C 0.6442 0.81129 0.8198 0.0
H1492 H 0.69819 0.83653 0.80223 0.0
H1493 H 0.66628 0.80443 0.77245 0.0
S1494 S 0.63299 0.84589 0.91855 0.0
N1495 N 0.65921 0.85896 0.911 0.0
N1496 N 0.62435 0.82386 0.87884 0.0
C1497 C 0.64304 0.82636 0.8573 0.0
C1498 C 0.66201 0.84546 0.8748 0.0
C1499 C 0.14989 0.82172 0.87038 0.0
C1500 C 0.14446 0.83681 0.84985 0.0
C1501 C 0.16851 0.82208 0.85115 0.0
C1502 C 0.18259 0.83752 0.81033 0.0
H1503 H 0.13963 0.80936 0.90151 0.0
H1504 H 0.17181 0.81005 0.86854 0.0
S1505 S 0.17594 0.88083 0.74281 0.0
N1506 N 0.15491 0.86786 0.78646 0.0
N1507 N 0.1898 0.86847 0.75012 0.0
C1508 C 0.17747 0.85284 0.78961 0.0
C1509 C 0.15849 0.85251 0.80939 0.0
C1510 C 0.14283 0.30948 0.84321 0.0
C1511 C 0.16013 0.30986 0.8732 0.0
C1512 C 0.14357 0.32832 0.82448 0.0
C1513 C 0.16161 0.34845 0.83512 0.0
H1514 H 0.12851 0.29449 0.83384 0.0
H1515 H 0.12978 0.327 0.8016 0.0
S1516 S 0.21121 0.35848 0.91273 0.0
N1517 N 0.19584 0.33226 0.91345 0.0
N1518 N 0.19728 0.36764 0.87814 0.0
C1519 C 0.17898 0.34915 0.86574 0.0
C1520 C 0.17821 0.3299 0.88486 0.0
C1521 C 0.82201 0.67375 0.67253 0.0
C1522 C 0.81743 0.65313 0.6555 0.0
C1523 C 0.84094 0.69201 0.65458 0.0
C1524 C 0.8561 0.69045 0.61862 0.0
H1525 H 0.81083 0.67591 0.69972 0.0
H1526 H 0.84364 0.70747 0.66904 0.0
S1527 S 0.85217 0.64009 0.56305 0.0
N1528 N 0.8301 0.63226 0.60184 0.0
N1529 N 0.86527 0.66638 0.56731 0.0
C1530 C 0.85177 0.66989 0.60149 0.0
C1531 C 0.83259 0.65132 0.62011 0.0
C1532 C 0.33587 0.18736 0.63885 0.0
C1533 C 0.31567 0.1739 0.66436 0.0
C1534 C 0.35375 0.18556 0.65423 0.0
C1535 C 0.35222 0.17027 0.69593 0.0
H1536 H 0.3379 0.19921 0.606 0.0
H1537 H 0.36882 0.19606 0.6325 0.0
S1538 S 0.30324 0.13187 0.77838 0.0
N1539 N 0.29547 0.14515 0.73513 0.0
N1540 N 0.3289 0.14202 0.76448 0.0
C1541 C 0.33221 0.15704 0.72281 0.0
C1542 C 0.31402 0.15879 0.70695 0.0
C1543 C 0.81178 0.16364 0.64342 0.0
C1544 C 0.82937 0.18047 0.67277 0.0
C1545 C 0.81192 0.14508 0.62592 0.0
C1546 C 0.82966 0.1425 0.63699 0.0
H1547 H 0.79765 0.16469 0.63407 0.0
H1548 H 0.79789 0.1326 0.60387 0.0
S1549 S 0.8802 0.18212 0.71079 0.0
N1550 N 0.86524 0.19343 0.71132 0.0
N1551 N 0.86564 0.15879 0.67792 0.0
C1552 C 0.84745 0.15927 0.66604 0.0
C1553 C 0.84726 0.17815 0.68409 0.0
C1554 C 0.98123 0.49317 0.5203 0.0
C1555 C 0.98313 0.47886 0.48159 0.0
C1556 C -0.00097 0.51258 0.53697 0.0
C1557 C 0.01964 0.51869 0.51576 0.0
H1558 H 0.96583 0.48942 0.53817 0.0
H1559 H 0.99649 0.52287 0.56691 0.0
S1560 S 0.0335 0.48717 0.41245 0.0
N1561 N 0.00745 0.4723 0.42188 0.0
N1562 N 0.04089 0.50877 0.45321 0.0
C1563 C 0.02185 0.50458 0.47677 0.0
C1564 C 0.00365 0.48473 0.45972 0.0
C1565 C 0.51092 0.51503 0.48765 0.0
C1566 C 0.51451 0.49809 0.5013 0.0
C1567 C 0.49219 0.51469 0.50558 0.0
C1568 C 0.47616 0.49736 0.53783 0.0
H1569 H 0.52269 0.5288 0.46299 0.0
H1570 H 0.49033 0.52819 0.49385 0.0
S1571 S 0.47761 0.44882 0.58514 0.0
N1572 N 0.50031 0.46334 0.5492 0.0
N1573 N 0.46524 0.46279 0.58315 0.0
C1574 C 0.47959 0.48036 0.55237 0.0
C1575 C 0.49869 0.48068 0.53399 0.0
C1576 C 0.48313 0.98051 0.47959 0.0
C1577 C 0.49877 0.98139 0.51871 0.0
C1578 C 0.48268 -0.00107 0.46291 0.0
C1579 C 0.49782 0.01922 0.48463 0.0
H1580 H 0.47103 0.96543 0.46128 0.0
H1581 H 0.47022 0.99713 0.43262 0.0
S1582 S 0.54209 0.03055 0.58935 0.0
N1583 N 0.5298 0.00443 0.57948 0.0
N1584 N 0.52894 0.03909 0.54823 0.0
C1585 C 0.51356 0.02044 0.52416 0.0
C1586 C 0.51403 0.00157 0.54116 0.0
C1587 C 0.48533 0.97523 0.96403 0.0
C1588 C 0.47488 0.97349 0.01845 0.0
C1589 C 0.50411 0.99414 0.94855 0.0
C1590 C 0.51315 0.01195 0.98704 0.0
H1591 H 0.47869 0.96211 0.93255 0.0
H1592 H 0.51135 0.99493 0.90564 0.0
S1593 S 0.49349 0.01418 0.13851 0.0
N1594 N 0.4759 0.99038 0.113 0.0
N1595 N 0.51124 0.02544 0.08471 0.0
C1596 C 0.50324 0.00993 0.04257 0.0
C1597 C 0.48412 0.99084 0.05807 0.0
C1598 C 0.01878 0.51545 0.00048 0.0
C1599 C 0.01857 0.49798 0.02897 0.0
C1600 C -0.00012 0.51444 0.98108 0.0
C1601 C 0.9799 0.4959 0.98931 0.0
H1602 H 0.03368 0.53016 0.99335 0.0
H1603 H 0.00099 0.52845 0.96005 0.0
S1604 S 0.97054 0.44526 0.05894 0.0
N1605 N 0.99661 0.46131 0.06314 0.0
N1606 N 0.96117 0.4593 0.02602 0.0
C1607 C 0.97944 0.47821 0.01724 0.0
C1608 C -0.00129 0.47928 0.03729 0.0
C1609 C 0.50804 0.51169 0.04103 0.0
C1610 C 0.49306 0.51696 0.01871 0.0
C1611 C 0.50732 0.4926 0.02531 0.0
C1612 C 0.49159 0.4778 0.98647 0.0
H1613 H 0.52055 0.52238 0.07113 0.0
H1614 H 0.51932 0.48951 0.044 0.0
S1615 S 0.44859 0.48388 0.91472 0.0
N1616 N 0.46196 0.50574 0.95507 0.0
N1617 N 0.46061 0.46985 0.9255 0.0
C1618 C 0.47648 0.48283 0.96351 0.0
C1619 C 0.4772 0.50236 0.97962 0.0
C1620 C 0.22419 0.08586 0.91655 0.0
C1621 C 0.2267 0.09836 0.9674 0.0
C1622 C 0.21933 0.09113 0.86104 0.0
C1623 C 0.21704 0.10915 0.85461 0.0
H1624 H 0.22711 0.07256 0.91903 0.0
H1625 H 0.21889 0.08196 0.82228 0.0
S1626 S 0.21918 0.14543 0.9744 0.0
N1627 N 0.22424 0.12819 0.00865 0.0
N1628 N 0.21524 0.13816 0.9036 0.0
C1629 C 0.21786 0.12082 0.90552 0.0
C1630 C 0.22261 0.11536 0.9623 0.0
C1631 C 0.89188 0.11439 0.93608 0.0
C1632 C 0.9055 0.1366 0.94134 0.0
C1633 C 0.88791 0.10435 0.8803 0.0
C1634 C 0.8978 0.11617 0.82869 0.0
H1635 H 0.88314 0.10496 0.97444 0.0
H1636 H 0.87612 0.08753 0.87696 0.0
S1637 S 0.9368 0.17394 0.81923 0.0
N1638 N 0.93051 0.16962 0.89063 0.0
N1639 N 0.92293 0.15051 0.78617 0.0
C1640 C 0.91255 0.13796 0.83381 0.0
C1641 C 0.91647 0.14825 0.89019 0.0
C1642 C 0.86547 0.78089 0.82402 0.0
C1643 C 0.88635 0.78485 0.81593 0.0
C1644 C 0.85582 0.77551 0.88025 0.0
C1645 C 0.86683 0.77412 0.93031 0.0
H1646 H 0.85609 0.78063 0.78604 0.0
H1647 H 0.83926 0.77142 0.88398 0.0
S1648 S 0.92294 0.78579 0.93272 0.0
N1649 N 0.91855 0.78914 0.86236 0.0
N1650 N 0.90052 0.77917 0.96869 0.0
C1651 C 0.88833 0.77969 0.92339 0.0
C1652 C 0.89806 0.78497 0.86588 0.0
C1653 C 0.09355 0.21656 0.56534 0.0
C1654 C 0.08193 0.22729 0.55816 0.0
C1655 C 0.09682 0.2106 0.62217 0.0
C1656 C 0.08845 0.21509 0.67311 0.0
H1657 H 0.10133 0.21401 0.5275 0.0
H1658 H 0.10716 0.20384 0.62666 0.0
S1659 S 0.05385 0.23924 0.67785 0.0
N1660 N 0.05958 0.23934 0.60655 0.0
N1661 N 0.06607 0.2283 0.71293 0.0
C1662 C 0.07537 0.22408 0.66617 0.0
C1663 C 0.072 0.23014 0.60869 0.0
C1664 C 0.76963 0.85387 0.64692 0.0
C1665 C 0.7784 0.87589 0.65491 0.0
C1666 C 0.7642 0.84483 0.59012 0.0
C1667 C 0.76704 0.85747 0.53928 0.0
H1668 H 0.76586 0.84344 0.6852 0.0
H1669 H 0.75669 0.82762 0.58654 0.0
S1670 S 0.79102 0.9164 0.5373 0.0
N1671 N 0.79112 0.91046 0.60837 0.0
N1672 N 0.78078 0.89351 0.50079 0.0
C1673 C 0.77712 0.87977 0.5465 0.0
C1674 C 0.78277 0.88897 0.60466 0.0
C1675 C 0.13309 0.91511 0.64874 0.0
C1676 C 0.11192 0.89902 0.65814 0.0
C1677 C 0.14241 0.91822 0.5923 0.0
C1678 C 0.13077 0.90545 0.54345 0.0
H1679 H 0.14293 0.92432 0.68598 0.0
H1680 H 0.15916 0.93005 0.58756 0.0
S1681 S 0.0738 0.86299 0.54455 0.0
N1682 N 0.07884 0.87162 0.6141 0.0
N1683 N 0.09628 0.8775 0.50737 0.0
C1684 C 0.10904 0.89044 0.55153 0.0
C1685 C 0.09963 0.88718 0.60923 0.0
C1686 C 0.77886 0.88279 0.10264 0.0
C1687 C 0.77882 0.89438 0.15287 0.0
C1688 C 0.77363 0.8871 0.04608 0.0
C1689 C 0.76783 0.90287 0.03866 0.0
H1690 H 0.78171 0.86951 0.10775 0.0
H1691 H 0.77265 0.87705 0.00899 0.0
S1692 S 0.76772 0.93907 0.15613 0.0
N1693 N 0.7745 0.9233 0.19148 0.0
N1694 N 0.76461 0.93156 0.08557 0.0
C1695 C 0.76918 0.91547 0.08826 0.0
C1696 C 0.77465 0.91115 0.14542 0.0
C1697 C 0.1024 0.89275 0.11241 0.0
C1698 C 0.0934 0.87965 0.16258 0.0
C1699 C 0.09922 0.88382 0.05518 0.0
C1700 C 0.08712 0.86155 0.04694 0.0
H1701 H 0.11318 0.90974 0.11788 0.0
H1702 H 0.10745 0.89427 0.01793 0.0
S1703 S 0.05753 0.82112 0.16436 0.0
N1704 N 0.0701 0.84402 0.2006 0.0
N1705 N 0.06375 0.82704 0.0934 0.0
C1706 C 0.07664 0.84859 0.09668 0.0
C1707 C 0.07991 0.85771 0.15455 0.0
C1708 C 0.10531 0.22032 0.06355 0.0
C1709 C 0.12593 0.22344 0.05456 0.0
C1710 C 0.09613 0.2159 0.1206 0.0
C1711 C 0.10715 0.21415 0.16991 0.0
H1712 H 0.09689 0.22281 0.02734 0.0
H1713 H 0.08074 0.21479 0.12671 0.0
S1714 S 0.16009 0.21787 0.16824 0.0
N1715 N 0.15606 0.22219 0.09843 0.0
N1716 N 0.13858 0.21364 0.20533 0.0
C1717 C 0.12691 0.21545 0.1606 0.0
C1718 C 0.13638 0.22019 0.10289 0.0
C1719 C 0.89753 0.7833 0.41963 0.0
C1720 C 0.91073 0.77426 0.42609 0.0
C1721 C 0.89361 0.78895 0.36313 0.0
C1722 C 0.90292 0.78585 0.31192 0.0
H1723 H 0.88905 0.78466 0.45767 0.0
H1724 H 0.88208 0.79429 0.35902 0.0
S1725 S 0.94146 0.7664 0.30559 0.0
N1726 N 0.9354 0.76537 0.37696 0.0
N1727 N 0.92764 0.77574 0.27117 0.0
C1728 C 0.91747 0.77859 0.31825 0.0
C1729 C 0.9215 0.77287 0.37536 0.0
C1730 C 0.22768 0.14161 0.36188 0.0
C1731 C 0.22162 0.12001 0.35665 0.0
C1732 C 0.234 0.15201 0.41692 0.0
C1733 C 0.23436 0.14107 0.46851 0.0
H1734 H 0.22861 0.15079 0.32265 0.0
H1735 H 0.23934 0.16893 0.41866 0.0
S1736 S 0.21869 0.08384 0.47761 0.0
N1737 N 0.21542 0.08766 0.40669 0.0
N1738 N 0.22697 0.10706 0.51098 0.0
C1739 C 0.2272 0.11911 0.46419 0.0
C1740 C 0.22097 0.1086 0.40788 0.0
C1741 C 0.85241 0.0817 0.39394 0.0
C1742 C 0.86345 0.09379 0.44437 0.0
C1743 C 0.86209 0.08618 0.33776 0.0
C1744 C 0.88302 0.10304 0.33015 0.0
H1745 H 0.83585 0.06922 0.39745 0.0
H1746 H 0.85273 0.07725 0.29952 0.0
S1747 S 0.91957 0.13815 0.44787 0.0
N1748 N 0.89713 0.12219 0.48353 0.0
N1749 N 0.91521 0.13075 0.37721 0.0
C1750 C 0.89471 0.11443 0.38036 0.0
C1751 C 0.88495 0.10973 0.43782 0.0
C1752 C 0.89788 0.41149 0.24636 0.0
C1753 C 0.89763 0.42308 0.29658 0.0
C1754 C 0.89102 0.41432 0.19072 0.0
C1755 C 0.88352 0.42868 0.18361 0.0
H1756 H 0.90451 0.40099 0.24927 0.0
H1757 H 0.89299 0.40638 0.15227 0.0
S1758 S 0.87758 0.46133 0.30097 0.0
N1759 N 0.8875 0.44814 0.33619 0.0
N1760 N 0.87468 0.45348 0.23073 0.0
C1761 C 0.88166 0.43919 0.2338 0.0
C1762 C 0.88864 0.43633 0.29072 0.0
C1763 C 0.57789 0.47727 0.25815 0.0
C1764 C 0.56532 0.46614 0.30786 0.0
C1765 C 0.5736 0.46786 0.20166 0.0
C1766 C 0.55657 0.4471 0.19317 0.0
H1767 H 0.59048 0.49377 0.26239 0.0
H1768 H 0.58278 0.47734 0.16385 0.0
S1769 S 0.51997 0.41055 0.30862 0.0
N1770 N 0.53615 0.43264 0.34538 0.0
N1771 N 0.52794 0.41506 0.23839 0.0
C1772 C 0.54471 0.43529 0.2427 0.0
C1773 C 0.54918 0.44479 0.30047 0.0
C1774 C 0.52489 0.10717 0.18526 0.0
C1775 C 0.54676 0.11472 0.17811 0.0
C1776 C 0.51538 0.10147 0.2415 0.0
C1777 C 0.52742 0.103 0.29249 0.0
H1778 H 0.51481 0.10415 0.14657 0.0
H1779 H 0.49823 0.09466 0.24444 0.0
S1780 S 0.58584 0.12393 0.29716 0.0
N1781 N 0.58063 0.12513 0.22602 0.0
N1782 N 0.56282 0.11454 0.33259 0.0
C1783 C 0.54967 0.11218 0.28642 0.0
C1784 C 0.55934 0.11797 0.22884 0.0
C1785 C 0.77899 0.5625 0.84807 0.0
C1786 C 0.76298 0.568 0.84203 0.0
C1787 C 0.78306 0.5564 0.90361 0.0
C1788 C 0.77093 0.5552 0.95397 0.0
H1789 H 0.78943 0.56449 0.81098 0.0
H1790 H 0.79655 0.55386 0.90806 0.0
S1791 S 0.72533 0.56486 0.9594 0.0
N1792 N 0.7335 0.56957 0.88941 0.0
N1793 N 0.7411 0.5578 0.99348 0.0
C1794 C 0.75379 0.55885 0.94735 0.0
C1795 C 0.74982 0.56534 0.89129 0.0
C1796 C 0.43219 0.17951 0.92846 0.0
C1797 C 0.43594 0.19252 0.87795 0.0
C1798 C 0.43811 0.18836 0.98533 0.0
C1799 C 0.44825 0.21049 0.99361 0.0
H1800 H 0.42348 0.16225 0.92463 0.0
H1801 H 0.43344 0.17776 0.02348 0.0
S1802 S 0.46414 0.25178 0.87665 0.0
N1803 N 0.45241 0.22892 0.83986 0.0
N1804 N 0.46357 0.24545 0.94764 0.0
C1805 C 0.45374 0.22383 0.9436 0.0
C1806 C 0.44763 0.21485 0.88538 0.0
C1807 C 0.80624 0.2439 0.90822 0.0
C1808 C 0.79494 0.2319 0.85788 0.0
C1809 C 0.79669 0.23966 0.96451 0.0
C1810 C 0.77553 0.22336 0.97226 0.0
H1811 H 0.82298 0.25592 0.90472 0.0
H1812 H 0.80632 0.24823 0.00277 0.0
S1813 S 0.73831 0.1887 0.85514 0.0
N1814 N 0.7608 0.20419 0.81911 0.0
N1815 N 0.74294 0.19617 0.92571 0.0
C1816 C 0.76356 0.21221 0.92216 0.0
C1817 C 0.77323 0.21657 0.86457 0.0
C1818 C 0.43799 0.24811 0.42309 0.0
C1819 C 0.43611 0.23487 0.37464 0.0
C1820 C 0.4438 0.24468 0.47965 0.0
C1821 C 0.44769 0.22779 0.48951 0.0
H1822 H 0.43389 0.26054 0.41794 0.0
H1823 H 0.44374 0.25429 0.51665 0.0
S1824 S 0.44737 0.19014 0.377 0.0
N1825 N 0.44066 0.20555 0.33931 0.0
N1826 N 0.45138 0.199 0.44636 0.0
C1827 C 0.4474 0.21542 0.44095 0.0
C1828 C 0.4417 0.21903 0.38311 0.0
C1829 C 0.76677 0.21056 0.36521 0.0
C1830 C 0.75377 0.18828 0.35941 0.0
C1831 C 0.77057 0.22035 0.42144 0.0
C1832 C 0.76128 0.20813 0.47293 0.0
H1833 H 0.77524 0.22025 0.32695 0.0
H1834 H 0.78196 0.23727 0.42517 0.0
S1835 S 0.72334 0.15004 0.48073 0.0
N1836 N 0.7294 0.15482 0.40931 0.0
N1837 N 0.73688 0.17336 0.51452 0.0
C1838 C 0.74695 0.18625 0.46716 0.0
C1839 C 0.74307 0.17627 0.41037 0.0
C1840 C 0.80241 0.56006 0.44711 0.0
C1841 C 0.78153 0.55601 0.45548 0.0
C1842 C 0.81199 0.56568 0.39092 0.0
C1843 C 0.80092 0.56733 0.34145 0.0
H1844 H 0.81188 0.56037 0.48493 0.0
H1845 H 0.82856 0.56983 0.38685 0.0
S1846 S 0.74506 0.55627 0.34028 0.0
N1847 N 0.74944 0.55244 0.41027 0.0
N1848 N 0.76735 0.56272 0.30375 0.0
C1849 C 0.77945 0.56172 0.34855 0.0
C1850 C 0.76977 0.55618 0.40603 0.0
C1851 C 0.57163 0.10649 0.6923 0.0
C1852 C 0.55515 0.11118 0.68559 0.0
C1853 C 0.57519 0.09966 0.74718 0.0
C1854 C 0.56252 0.09754 0.79731 0.0
H1855 H 0.58094 0.10678 0.65405 0.0
H1856 H 0.58741 0.09518 0.74973 0.0
S1857 S 0.51896 0.11045 0.80363 0.0
N1858 N 0.52727 0.11518 0.73372 0.0
N1859 N 0.53408 0.10254 0.8377 0.0
C1860 C 0.54698 0.1037 0.79207 0.0
C1861 C 0.54322 0.11043 0.73583 0.0
C1862 C 0.8893 0.46458 0.69225 0.0
C1863 C 0.88556 0.44385 0.68268 0.0
C1864 C 0.8943 0.47363 0.74916 0.0
C1865 C 0.89568 0.46221 0.79819 0.0
H1866 H 0.88978 0.47433 0.65493 0.0
H1867 H 0.89824 0.49012 0.75418 0.0
S1868 S 0.88527 0.40653 0.79605 0.0
N1869 N 0.88196 0.41149 0.72617 0.0
N1870 N 0.89116 0.42841 0.83394 0.0
C1871 C 0.89039 0.44086 0.78975 0.0
C1872 C 0.88544 0.43171 0.73156 0.0
C1873 C 0.55818 0.44729 0.74573 0.0
C1874 C 0.54789 0.43503 0.69506 0.0
C1875 C 0.54772 0.4426 0.80097 0.0
C1876 C 0.52655 0.4258 0.80643 0.0
H1877 H 0.57384 0.46137 0.74172 0.0
H1878 H 0.55563 0.45317 0.83826 0.0
S1879 S 0.49389 0.38748 0.68803 0.0
N1880 N 0.51654 0.40425 0.65461 0.0
N1881 N 0.49664 0.39543 0.75814 0.0
C1882 C 0.51677 0.41251 0.75686 0.0
C1883 C 0.52753 0.41714 0.70108 0.0
C1884 C 0.54933 0.77849 0.56126 0.0
C1885 C 0.55091 0.76826 0.50989 0.0
C1886 C 0.55465 0.77397 0.61736 0.0
C1887 C 0.56215 0.75945 0.62317 0.0
H1888 H 0.54512 0.79088 0.55755 0.0
H1889 H 0.55425 0.78292 0.65559 0.0
S1890 S 0.56703 0.72717 0.50181 0.0
N1891 N 0.55869 0.74198 0.46812 0.0
N1892 N 0.56887 0.73342 0.57322 0.0
C1893 C 0.56252 0.74823 0.57223 0.0
C1894 C 0.55688 0.7527 0.51551 0.0
C1895 C 0.23972 0.80473 0.50822 0.0
C1896 C 0.22505 0.78292 0.50162 0.0
C1897 C 0.24288 0.81462 0.56378 0.0
C1898 C 0.23157 0.80294 0.6145 0.0
H1899 H 0.24776 0.81446 0.46958 0.0
H1900 H 0.25371 0.83169 0.5665 0.0
S1901 S 0.1929 0.74473 0.62027 0.0
N1902 N 0.20033 0.74949 0.54969 0.0
N1903 N 0.20637 0.76792 0.65491 0.0
C1904 C 0.21789 0.78075 0.60889 0.0
C1905 C 0.21457 0.77077 0.5521 0.0
C1906 C 0.22716 0.44213 0.57556 0.0
C1907 C 0.21572 0.44171 0.52453 0.0
C1908 C 0.21737 0.43719 0.63183 0.0
C1909 C 0.19574 0.43126 0.63806 0.0
H1910 H 0.24336 0.44511 0.57139 0.0
H1911 H 0.22631 0.43657 0.66975 0.0
S1912 S 0.15976 0.42987 0.51793 0.0
N1913 N 0.18253 0.43672 0.48374 0.0
N1914 N 0.16389 0.42729 0.58906 0.0
C1915 C 0.18463 0.43211 0.58754 0.0
C1916 C 0.19469 0.43735 0.53072 0.0
C1917 C 0.43901 0.87852 0.27099 0.0
C1918 C 0.42951 0.8816 0.32184 0.0
C1919 C 0.43428 0.88297 0.21389 0.0
C1920 C 0.42006 0.89076 0.20649 0.0
H1921 H 0.45123 0.87412 0.27572 0.0
H1922 H 0.44296 0.8818 0.17605 0.0
S1923 S 0.38865 0.89808 0.326 0.0
N1924 N 0.40368 0.8904 0.36145 0.0
N1925 N 0.39438 0.89845 0.25458 0.0
C1926 C 0.40916 0.89208 0.25702 0.0
C1927 C 0.41404 0.88762 0.31473 0.0
C1928 C 0.10784 0.52592 0.26244 0.0
C1929 C 0.10551 0.53632 0.21234 0.0
C1930 C 0.11349 0.53598 0.318 0.0
C1931 C 0.11678 0.55666 0.32526 0.0
H1932 H 0.10419 0.50947 0.2594 0.0
H1933 H 0.11376 0.52697 0.35626 0.0
S1934 S 0.11555 0.59188 0.20744 0.0
N1935 N 0.10923 0.56934 0.17253 0.0
N1936 N 0.11975 0.58819 0.27771 0.0
C1937 C 0.11615 0.56787 0.27501 0.0
C1938 C 0.11059 0.55771 0.21816 0.0
C1939 C 0.46868 0.57445 0.32356 0.0
C1940 C 0.44649 0.56235 0.33056 0.0
C1941 C 0.47793 0.57848 0.26698 0.0
C1942 C 0.4653 0.57037 0.2153 0.0
H1943 H 0.47901 0.57987 0.3623 0.0
H1944 H 0.49519 0.58721 0.2641 0.0
S1945 S 0.40609 0.5394 0.21058 0.0
N1946 N 0.41189 0.5437 0.28227 0.0
N1947 N 0.42921 0.55119 0.17506 0.0
C1948 C 0.44293 0.55948 0.22169 0.0
C1949 C 0.43353 0.55546 0.27966 0.0
C1950 C 0.10101 0.57884 0.82171 0.0
C1951 C 0.11215 0.56774 0.82828 0.0
C1952 C 0.09514 0.58227 0.76536 0.0
C1953 C 0.10004 0.57453 0.71354 0.0
H1954 H 0.09579 0.58388 0.86066 0.0
H1955 H 0.08584 0.59023 0.76279 0.0
S1956 S 0.13081 0.54604 0.70774 0.0
N1957 N 0.12937 0.55036 0.77947 0.0
N1958 N 0.11833 0.55673 0.67265 0.0
C1959 C 0.11249 0.56462 0.71947 0.0
C1960 C 0.11853 0.56122 0.77719 0.0
C1961 C 0.41358 0.52902 0.82055 0.0
C1962 C 0.43022 0.55013 0.82717 0.0
C1963 C 0.40933 0.51889 0.76505 0.0
C1964 C 0.42147 0.52964 0.71434 0.0
H1965 H 0.40481 0.51981 0.8592 0.0
H1966 H 0.39719 0.50217 0.76251 0.0
S1967 S 0.46482 0.58621 0.70783 0.0
N1968 N 0.45736 0.58228 0.77848 0.0
N1969 N 0.44932 0.56334 0.67349 0.0
C1970 C 0.43696 0.55136 0.71964 0.0
C1971 C 0.4414 0.56158 0.77641 0.0
C1972 C 0.43492 0.88461 0.76474 0.0
C1973 C 0.44554 0.88262 0.81464 0.0
C1974 C 0.4451 0.89077 0.70911 0.0
C1975 C 0.46634 0.89546 0.70218 0.0
H1976 H 0.41895 0.88221 0.76933 0.0
H1977 H 0.43678 0.89316 0.67245 0.0
S1978 S 0.5001 0.89019 0.81782 0.0
N1979 N 0.47752 0.88376 0.85253 0.0
N1980 N 0.49684 0.89558 0.74838 0.0
C1981 C 0.47659 0.89218 0.75098 0.0
C1982 C 0.46611 0.88564 0.80718 0.0
C1983 C 0.24698 0.42828 0.08798 0.0
C1984 C 0.23573 0.42863 0.1389 0.0
C1985 C 0.24362 0.43484 0.0324 0.0
C1986 C 0.22885 0.44186 0.02598 0.0
H1987 H 0.25778 0.42199 0.09055 0.0
H1988 H 0.25158 0.43311 0.99361 0.0
S1989 S 0.19656 0.44748 0.14512 0.0
N1990 N 0.21038 0.43814 0.17967 0.0
N1991 N 0.20387 0.45017 0.07441 0.0
C1992 C 0.21843 0.44352 0.07668 0.0
C1993 C 0.22197 0.43703 0.13353 0.0
C1994 C 0.55751 0.80352 0.01974 0.0
C1995 C 0.55151 0.78197 0.01282 0.0
C1996 C 0.56394 0.81348 0.07532 0.0
C1997 C 0.56433 0.80213 0.12587 0.0
H1998 H 0.55852 0.81306 0.9813 0.0
H1999 H 0.56943 0.83041 0.07822 0.0
S2000 S 0.54774 0.7446 0.13131 0.0
N2001 N 0.54459 0.74903 0.06082 0.0
N2002 N 0.55644 0.76766 0.16604 0.0
C2003 C 0.55692 0.78015 0.12013 0.0
C2004 C 0.55061 0.77009 0.06326 0.0
C2005 C 0.18691 0.75421 0.00896 0.0
C2006 C 0.20852 0.76922 0.00041 0.0
C2007 C 0.17778 0.75064 0.06575 0.0
C2008 C 0.19005 0.76182 0.11576 0.0
H2009 H 0.17674 0.74612 0.97111 0.0
H2010 H 0.16081 0.73957 0.07013 0.0
S2011 S 0.24804 0.80127 0.11638 0.0
N2012 N 0.24243 0.79416 0.04579 0.0
N2013 N 0.2254 0.78732 0.15326 0.0
C2014 C 0.21206 0.77587 0.10806 0.0
C2015 C 0.22127 0.77964 0.05003 0.0
C2016 C 0.19454 0.98691 0.25849 0.0
C2017 C 0.20615 0.97673 0.27334 0.0
C2018 C 0.20425 0.00652 0.22902 0.0
C2019 C 0.22615 0.01716 0.21574 0.0
H2020 H 0.17782 0.97977 0.27014 0.0
H2021 H 0.19456 0.01354 0.21718 0.0
S2022 S 0.26366 0.99728 0.24466 0.0
N2023 N 0.24041 0.97808 0.26936 0.0
N2024 N 0.2593 0.01626 0.21978 0.0
C2025 C 0.23803 0.00727 0.23051 0.0
C2026 C 0.2279 0.9868 0.25834 0.0
C2027 C 0.97624 0.21506 0.27261 0.0
C2028 C 0.97698 0.21436 0.21013 0.0
C2029 C 0.99505 0.22484 0.30613 0.0
C2030 C 0.01503 0.23403 0.2779 0.0
H2031 H 0.96103 0.20752 0.29565 0.0
H2032 H 0.99397 0.22446 0.35433 0.0
S2033 S 0.02542 0.23699 0.11552 0.0
N2034 N -0.00088 0.22399 0.12129 0.0
N2035 N 0.0346 0.24277 0.18442 0.0
C2036 C 0.01596 0.23403 0.21546 0.0
C2037 C 0.99685 0.22409 0.18141 0.0
C2038 C 0.78887 0.79592 0.26207 0.0
C2039 C 0.76678 0.78399 0.27253 0.0
C2040 C 0.79929 0.78745 0.22923 0.0
C2041 C 0.78826 0.76635 0.20806 0.0
H2042 H 0.79815 0.81217 0.27825 0.0
H2043 H 0.8161 0.7977 0.21965 0.0
S2044 S 0.73067 0.7276 0.22932 0.0
N2045 N 0.73419 0.74984 0.26055 0.0
N2046 N 0.75438 0.733 0.20463 0.0
C2047 C 0.76637 0.7538 0.22099 0.0
C2048 C 0.75552 0.76278 0.2523 0.0
C2049 C 0.7665 0.00486 0.71988 0.0
C2050 C 0.78787 0.01418 0.70128 0.0
C2051 C 0.75663 0.98533 0.7505 0.0
C2052 C 0.76801 0.97484 0.76475 0.0
H2053 H 0.75745 0.01283 0.71144 0.0
H2054 H 0.74003 0.97846 0.76329 0.0
S2055 S 0.82435 0.99273 0.72534 0.0
N2056 N 0.81957 0.01072 0.69508 0.0
N2057 N 0.80208 0.97574 0.75982 0.0
C2058 C 0.78945 0.98418 0.74674 0.0
C2059 C 0.79911 0.00342 0.71313 0.0
C2060 C 0.98094 0.76856 0.75963 0.0
C2061 C 0.98176 0.77023 0.69722 0.0
C2062 C -0.00031 0.77792 0.79338 0.0
C2063 C 0.01968 0.78928 0.76546 0.0
H2064 H 0.96569 0.76038 0.78244 0.0
H2065 H -0.00146 0.77691 0.84155 0.0
S2066 S 0.03025 0.79777 0.60333 0.0
N2067 N 0.00396 0.78373 0.60873 0.0
N2068 N 0.03936 0.80111 0.67231 0.0
C2069 C 0.02071 0.7906 0.70306 0.0
C2070 C 0.00165 0.78107 0.66877 0.0
C2071 C 0.23589 0.23695 0.72704 0.0
C2072 C 0.2258 0.21625 0.70313 0.0
C2073 C 0.22407 0.24449 0.75776 0.0
C2074 C 0.20196 0.23131 0.76702 0.0
H2075 H 0.25308 0.24698 0.72432 0.0
H2076 H 0.23242 0.26048 0.77607 0.0
S2077 S 0.16805 0.17646 0.70764 0.0
N2078 N 0.19225 0.18387 0.68281 0.0
N2079 N 0.17049 0.19675 0.74751 0.0
C2080 C 0.19166 0.21089 0.7409 0.0
C2081 C 0.2035 0.20372 0.70708 0.0
C2082 C 0.89535 0.31605 0.58392 0.0
C2083 C 0.87326 0.3065 0.59428 0.0
C2084 C 0.90682 0.33639 0.55821 0.0
C2085 C 0.89643 0.34753 0.54083 0.0
H2086 H 0.90388 0.30789 0.59664 0.0
H2087 H 0.92395 0.34361 0.55301 0.0
S2088 S 0.83861 0.32887 0.55388 0.0
N2089 N 0.84153 0.30986 0.58533 0.0
N2090 N 0.86258 0.34673 0.52997 0.0
C2091 C 0.87419 0.33764 0.54785 0.0
C2092 C 0.86271 0.31745 0.57636 0.0
C2093 C 0.67492 0.5792 0.58878 0.0
C2094 C 0.68624 0.56855 0.60152 0.0
C2095 C 0.65419 0.56807 0.56552 0.0
C2096 C 0.64446 0.54612 0.5528 0.0
H2097 H 0.68218 0.59622 0.59644 0.0
H2098 H 0.64574 0.57668 0.5573 0.0
S2099 S 0.66747 0.51102 0.57836 0.0
N2100 N 0.68556 0.53456 0.60428 0.0
N2101 N 0.64812 0.51444 0.55184 0.0
C2102 C 0.65582 0.53545 0.56439 0.0
C2103 C 0.67633 0.54647 0.59107 0.0
C2104 C 0.43436 0.10559 0.63724 0.0
C2105 C 0.42582 0.11622 0.60496 0.0
C2106 C 0.44436 0.09589 0.60782 0.0
C2107 C 0.44602 0.09651 0.54541 0.0
H2108 H 0.43405 0.10551 0.68553 0.0
H2109 H 0.45136 0.08836 0.63405 0.0
S2110 S 0.42566 0.12184 0.4409 0.0
N2111 N 0.41889 0.12617 0.50762 0.0
N2112 N 0.43815 0.10825 0.4522 0.0
C2113 C 0.43704 0.10656 0.51258 0.0
C2114 C 0.42683 0.1164 0.5425 0.0
C2115 C 0.42002 0.31708 0.09572 0.0
C2116 C 0.43258 0.3078 0.10932 0.0
C2117 C 0.42901 0.33717 0.06835 0.0
C2118 C 0.45071 0.3483 0.05258 0.0
H2119 H 0.40319 0.30887 0.10685 0.0
H2120 H 0.41904 0.34417 0.06036 0.0
S2121 S 0.49012 0.33037 0.07533 0.0
N2122 N 0.46792 0.31152 0.10606 0.0
N2123 N 0.48407 0.34782 0.04759 0.0
C2124 C 0.46317 0.33873 0.06344 0.0
C2125 C 0.45429 0.31883 0.09363 0.0
C2126 C 0.65017 0.11425 0.06927 0.0
C2127 C 0.63967 0.09274 0.05159 0.0
C2128 C 0.67009 0.12354 0.0967 0.0
C2129 C 0.68083 0.11204 0.10461 0.0
H2130 H 0.64305 0.12412 0.0614 0.0
H2131 H 0.6773 0.14003 0.11094 0.0
S2132 S 0.66006 0.05502 0.0678 0.0
N2133 N 0.64069 0.05962 0.04825 0.0
N2134 N 0.67953 0.07795 0.09342 0.0
C2135 C 0.67059 0.0905 0.08732 0.0
C2136 C 0.64975 0.08069 0.06184 0.0
C2137 C 0.89925 0.57259 0.0932 0.0
C2138 C 0.87756 0.56198 0.10895 0.0
C2139 C 0.90855 0.56132 0.06879 0.0
C2140 C 0.89628 0.53925 0.05782 0.0
H2141 H 0.90896 0.58973 0.09858 0.0
H2142 H 0.92536 0.57001 0.0575 0.0
S2143 S 0.83894 0.50409 0.09396 0.0
N2144 N 0.84463 0.52792 0.11809 0.0
N2145 N 0.86123 0.50731 0.0641 0.0
C2146 C 0.8746 0.52849 0.07394 0.0
C2147 C 0.86546 0.53974 0.1016 0.0
C2148 C 0.54317 0.64577 0.88837 0.0
C2149 C 0.54225 0.64515 0.95092 0.0
C2150 C 0.55351 0.66528 0.85804 0.0
C2151 C 0.56304 0.68465 0.88955 0.0
H2152 H 0.53554 0.63108 0.86285 0.0
H2153 H 0.55345 0.66525 0.80974 0.0
S2154 S 0.56526 0.69151 0.05351 0.0
N2155 N 0.55178 0.66538 0.04334 0.0
N2156 N 0.57159 0.70215 0.98621 0.0
C2157 C 0.56262 0.68421 0.95206 0.0
C2158 C 0.55212 0.66439 0.98288 0.0
C2159 C 0.34674 0.89458 0.87901 0.0
C2160 C 0.34728 0.89442 0.94156 0.0
C2161 C 0.32729 0.88574 0.84859 0.0
C2162 C 0.30792 0.87648 0.88003 0.0
H2163 H 0.36144 0.90138 0.85356 0.0
H2164 H 0.32737 0.88566 0.8003 0.0
S2165 S 0.30086 0.87212 0.04395 0.0
N2166 N 0.32696 0.88414 0.0339 0.0
N2167 N 0.29032 0.86802 0.97659 0.0
C2168 C 0.30827 0.87651 0.94253 0.0
C2169 C 0.32803 0.8854 0.97343 0.0
C2170 C 0.13177 0.45755 0.89979 0.0
C2171 C 0.12049 0.43531 0.89183 0.0
C2172 C 0.12254 0.4679 0.92944 0.0
C2173 C 0.10131 0.45654 0.94949 0.0
H2174 H 0.14805 0.46701 0.88397 0.0
H2175 H 0.13224 0.48491 0.93731 0.0
S2176 S 0.06418 0.39832 0.93391 0.0
N2177 N 0.08691 0.4022 0.90534 0.0
N2178 N 0.0686 0.42212 0.95464 0.0
C2179 C 0.08945 0.43443 0.93903 0.0
C2180 C 0.09921 0.42372 0.91129 0.0
C2181 C 0.10391 0.66694 0.35541 0.0
C2182 C 0.11426 0.68646 0.3861 0.0
C2183 C 0.09442 0.6476 0.38657 0.0
C2184 C 0.09487 0.64733 0.44913 0.0
H2185 H 0.10387 0.66664 0.30712 0.0
H2186 H 0.08714 0.63277 0.36167 0.0
S2187 S 0.11921 0.6942 0.54972 0.0
N2188 N 0.12369 0.7045 0.48196 0.0
N2189 N 0.10598 0.66801 0.54071 0.0
C2190 C 0.10457 0.66672 0.4803 0.0
C2191 C 0.11428 0.68638 0.44862 0.0
C2192 C 0.32205 0.44817 0.39382 0.0
C2193 C 0.31148 0.4259 0.38671 0.0
C2194 C 0.34155 0.45896 0.42337 0.0
C2195 C 0.35185 0.4481 0.44399 0.0
H2196 H 0.31482 0.45729 0.37826 0.0
H2197 H 0.34832 0.47591 0.43127 0.0
S2198 S 0.33227 0.39012 0.42861 0.0
N2199 N 0.31304 0.39334 0.39987 0.0
N2200 N 0.35119 0.41414 0.44934 0.0
C2201 C 0.34218 0.42601 0.43347 0.0
C2202 C 0.32172 0.4148 0.40574 0.0
C2203 C 0.57444 0.90063 0.3925 0.0
C2204 C 0.5629 0.87934 0.37292 0.0
C2205 C 0.56405 0.91024 0.42083 0.0
C2206 C 0.54193 0.89866 0.43174 0.0
H2207 H 0.59161 0.90974 0.38702 0.0
H2208 H 0.57344 0.92673 0.4349 0.0
S2209 S 0.5046 0.84258 0.38708 0.0
N2210 N 0.52801 0.84767 0.36098 0.0
N2211 N 0.50902 0.86458 0.4216 0.0
C2212 C 0.5303 0.87739 0.41194 0.0
C2213 C 0.54066 0.86803 0.3806 0.0
loop_
_geom_bond_atom_site_label_1
_geom_bond_atom_site_label_2
_geom_bond_distance
_geom_bond_site_symmetry_2
_ccdc_geom_bond_type
Co0 O3 1.970 . S
Co0 N17 1.989 . S
Co0 O25 1.967 . S
Co0 O32 1.920 . S
Co1 O4 1.966 . S
Co1 N10 2.022 . S
Co1 N18 1.993 . S
Co1 O26 1.941 . S
C2 O3 1.258 . S
C2 O4 1.263 . S
O3 Co0 1.970 . S
O3 C2 1.258 . S
O4 Co1 1.966 . S
O4 C2 1.263 . S
C5 O6 1.235 . S
C5 O32 1.289 . S
O6 C5 1.235 . S
C7 C9 1.400 . S
C7 N10 1.351 . S
C7 C12 1.501 . S
C8 C9 1.387 . S
C8 N11 1.341 . S
C9 C7 1.400 . S
C9 C8 1.387 . S
N10 Co1 2.022 . S
N10 C7 1.351 . S
N10 N11 1.365 . S
N11 C8 1.341 . S
N11 N10 1.365 . S
N11 H31 0.862 . S
C12 C7 1.501 . S
C12 H13 0.961 . S
C12 H14 0.961 . S
C12 H15 0.960 . S
H13 C12 0.961 . S
H14 C12 0.961 . S
H15 C12 0.960 . S
C16 N17 1.342 . S
C16 C20 1.401 . S
C16 C21 1.499 . S
N17 Co0 1.989 . S
N17 C16 1.342 . S
N17 N18 1.388 . S
N18 Co1 1.993 . S
N18 N17 1.388 . S
N18 C19 1.346 . S
C19 N18 1.346 . S
C19 C20 1.396 . S
C19 C29 1.510 . S
C20 C16 1.401 . S
C20 C19 1.396 . S
C21 C16 1.499 . S
C21 H22 0.959 . S
C21 H23 0.960 . S
C21 H24 0.961 . S
H22 C21 0.959 . S
H23 C21 0.960 . S
H24 C21 0.961 . S
O25 Co0 1.967 . S
O25 C33 1.258 . S
O26 Co1 1.941 . S
O26 C33 1.266 . S
H27 C29 0.959 . S
H28 C29 0.961 . S
C29 C19 1.510 . S
C29 H27 0.959 . S
C29 H28 0.961 . S
C29 H30 0.960 . S
H30 C29 0.960 . S
H31 N11 0.862 . S
O32 Co0 1.920 . S
O32 C5 1.289 . S
C33 O25 1.258 . S
C33 O26 1.266 . S
Co34 O37 1.970 . S
Co34 N51 1.989 . S
Co34 O59 1.967 . S
Co34 O66 1.920 . S
Co35 O38 1.966 . S
Co35 N44 2.022 . S
Co35 N52 1.993 . S
Co35 O60 1.941 . S
C36 O37 1.258 . S
C36 O38 1.263 . S
O37 Co34 1.970 . S
O37 C36 1.258 . S
O38 Co35 1.966 . S
O38 C36 1.263 . S
C39 O40 1.235 . S
C39 O66 1.289 . S
O40 C39 1.235 . S
C41 C43 1.400 . S
C41 N44 1.351 . S
C41 C46 1.501 . S
C42 C43 1.387 . S
C42 N45 1.341 . S
C43 C41 1.400 . S
C43 C42 1.387 . S
N44 Co35 2.022 . S
N44 C41 1.351 . S
N44 N45 1.365 . S
N45 C42 1.341 . S
N45 N44 1.365 . S
N45 H65 0.862 . S
C46 C41 1.501 . S
C46 H47 0.961 . S
C46 H48 0.961 . S
C46 H49 0.960 . S
H47 C46 0.961 . S
H48 C46 0.961 . S
H49 C46 0.960 . S
C50 N51 1.342 . S
C50 C54 1.401 . S
C50 C55 1.499 . S
N51 Co34 1.989 . S
N51 C50 1.342 . S
N51 N52 1.388 . S
N52 Co35 1.993 . S
N52 N51 1.388 . S
N52 C53 1.346 . S
C53 N52 1.346 . S
C53 C54 1.396 . S
C53 C63 1.510 . S
C54 C50 1.401 . S
C54 C53 1.396 . S
C55 C50 1.499 . S
C55 H56 0.959 . S
C55 H57 0.960 . S
C55 H58 0.961 . S
H56 C55 0.959 . S
H57 C55 0.960 . S
H58 C55 0.961 . S
O59 Co34 1.967 . S
O59 C67 1.258 . S
O60 Co35 1.941 . S
O60 C67 1.266 . S
H61 C63 0.959 . S
H62 C63 0.961 . S
C63 C53 1.510 . S
C63 H61 0.959 . S
C63 H62 0.961 . S
C63 H64 0.960 . S
H64 C63 0.960 . S
H65 N45 0.862 . S
O66 Co34 1.920 . S
O66 C39 1.289 . S
C67 O59 1.258 . S
C67 O60 1.266 . S
Co68 O71 1.970 . S
Co68 N85 1.989 . S
Co68 O93 1.967 . S
Co68 O100 1.920 . S
Co69 O72 1.966 . S
Co69 N78 2.022 . S
Co69 N86 1.993 . S
Co69 O94 1.941 . S
C70 O71 1.258 . S
C70 O72 1.263 . S
O71 Co68 1.970 . S
O71 C70 1.258 . S
O72 Co69 1.966 . S
O72 C70 1.263 . S
C73 O74 1.235 . S
C73 O100 1.289 . S
O74 C73 1.235 . S
C75 C77 1.400 . S
C75 N78 1.351 . S
C75 C80 1.501 . S
C76 C77 1.387 . S
C76 N79 1.341 . S
C77 C75 1.400 . S
C77 C76 1.387 . S
N78 Co69 2.022 . S
N78 C75 1.351 . S
N78 N79 1.365 . S
N79 C76 1.341 . S
N79 N78 1.365 . S
N79 H99 0.862 . S
C80 C75 1.501 . S
C80 H81 0.961 . S
C80 H82 0.961 . S
C80 H83 0.960 . S
H81 C80 0.961 . S
H82 C80 0.961 . S
H83 C80 0.960 . S
C84 N85 1.342 . S
C84 C88 1.401 . S
C84 C89 1.499 . S
N85 Co68 1.989 . S
N85 C84 1.342 . S
N85 N86 1.388 . S
N86 Co69 1.993 . S
N86 N85 1.388 . S
N86 C87 1.346 . S
C87 N86 1.346 . S
C87 C88 1.396 . S
C87 C97 1.510 . S
C88 C84 1.401 . S
C88 C87 1.396 . S
C89 C84 1.499 . S
C89 H90 0.959 . S
C89 H91 0.960 . S
C89 H92 0.961 . S
H90 C89 0.959 . S
H91 C89 0.960 . S
H92 C89 0.961 . S
O93 Co68 1.967 . S
O93 C101 1.258 . S
O94 Co69 1.941 . S
O94 C101 1.266 . S
H95 C97 0.959 . S
H96 C97 0.961 . S
C97 C87 1.510 . S
C97 H95 0.959 . S
C97 H96 0.961 . S
C97 H98 0.960 . S
H98 C97 0.960 . S
H99 N79 0.862 . S
O100 Co68 1.920 . S
O100 C73 1.289 . S
C101 O93 1.258 . S
C101 O94 1.266 . S
Co102 O105 1.970 . S
Co102 N119 1.989 . S
Co102 O127 1.967 . S
Co102 O134 1.920 . S
Co103 O106 1.966 . S
Co103 N112 2.022 . S
Co103 N120 1.993 . S
Co103 O128 1.941 . S
C104 O105 1.258 . S
C104 O106 1.263 . S
O105 Co102 1.970 . S
O105 C104 1.258 . S
O106 Co103 1.966 . S
O106 C104 1.263 . S
C107 O108 1.235 . S
C107 O134 1.289 . S
O108 C107 1.235 . S
C109 C111 1.400 . S
C109 N112 1.351 . S
C109 C114 1.501 . S
C110 C111 1.387 . S
C110 N113 1.341 . S
C111 C109 1.400 . S
C111 C110 1.387 . S
N112 Co103 2.022 . S
N112 C109 1.351 . S
N112 N113 1.365 . S
N113 C110 1.341 . S
N113 N112 1.365 . S
N113 H133 0.862 . S
C114 C109 1.501 . S
C114 H115 0.961 . S
C114 H116 0.961 . S
C114 H117 0.960 . S
H115 C114 0.961 . S
H116 C114 0.961 . S
H117 C114 0.960 . S
C118 N119 1.342 . S
C118 C122 1.401 . S
C118 C123 1.499 . S
N119 Co102 1.989 . S
N119 C118 1.342 . S
N119 N120 1.388 . S
N120 Co103 1.993 . S
N120 N119 1.388 . S
N120 C121 1.346 . S
C121 N120 1.346 . S
C121 C122 1.396 . S
C121 C131 1.510 . S
C122 C118 1.401 . S
C122 C121 1.396 . S
C123 C118 1.499 . S
C123 H124 0.959 . S
C123 H125 0.960 . S
C123 H126 0.961 . S
H124 C123 0.959 . S
H125 C123 0.960 . S
H126 C123 0.961 . S
O127 Co102 1.967 . S
O127 C135 1.258 . S
O128 Co103 1.941 . S
O128 C135 1.266 . S
H129 C131 0.959 . S
H130 C131 0.961 . S
C131 C121 1.510 . S
C131 H129 0.959 . S
C131 H130 0.961 . S
C131 H132 0.960 . S
H132 C131 0.960 . S
H133 N113 0.862 . S
O134 Co102 1.920 . S
O134 C107 1.289 . S
C135 O127 1.258 . S
C135 O128 1.266 . S
Co136 O139 1.970 . S
Co136 N153 1.989 . S
Co136 O161 1.967 . S
Co136 O168 1.920 . S
Co137 O140 1.966 . S
Co137 N146 2.022 . S
Co137 N154 1.993 . S
Co137 O162 1.941 . S
C138 O139 1.258 . S
C138 O140 1.263 . S
O139 Co136 1.970 . S
O139 C138 1.258 . S
O140 Co137 1.966 . S
O140 C138 1.263 . S
C141 O142 1.235 . S
C141 O168 1.289 . S
O142 C141 1.235 . S
C143 C145 1.400 . S
C143 N146 1.351 . S
C143 C148 1.501 . S
C144 C145 1.387 . S
C144 N147 1.341 . S
C145 C143 1.400 . S
C145 C144 1.387 . S
N146 Co137 2.022 . S
N146 C143 1.351 . S
N146 N147 1.365 . S
N147 C144 1.341 . S
N147 N146 1.365 . S
N147 H167 0.862 . S
C148 C143 1.501 . S
C148 H149 0.961 . S
C148 H150 0.961 . S
C148 H151 0.960 . S
H149 C148 0.961 . S
H150 C148 0.961 . S
H151 C148 0.960 . S
C152 N153 1.342 . S
C152 C156 1.401 . S
C152 C157 1.499 . S
N153 Co136 1.989 . S
N153 C152 1.342 . S
N153 N154 1.388 . S
N154 Co137 1.993 . S
N154 N153 1.388 . S
N154 C155 1.346 . S
C155 N154 1.346 . S
C155 C156 1.396 . S
C155 C165 1.510 . S
C156 C152 1.401 . S
C156 C155 1.396 . S
C157 C152 1.499 . S
C157 H158 0.959 . S
C157 H159 0.960 . S
C157 H160 0.961 . S
H158 C157 0.959 . S
H159 C157 0.960 . S
H160 C157 0.961 . S
O161 Co136 1.967 . S
O161 C169 1.258 . S
O162 Co137 1.941 . S
O162 C169 1.266 . S
H163 C165 0.959 . S
H164 C165 0.961 . S
C165 C155 1.510 . S
C165 H163 0.959 . S
C165 H164 0.961 . S
C165 H166 0.960 . S
H166 C165 0.960 . S
H167 N147 0.862 . S
O168 Co136 1.920 . S
O168 C141 1.289 . S
C169 O161 1.258 . S
C169 O162 1.266 . S
Co170 O173 1.970 . S
Co170 N187 1.989 . S
Co170 O195 1.967 . S
Co170 O202 1.920 . S
Co171 O174 1.966 . S
Co171 N180 2.022 . S
Co171 N188 1.993 . S
Co171 O196 1.941 . S
C172 O173 1.258 . S
C172 O174 1.263 . S
O173 Co170 1.970 . S
O173 C172 1.258 . S
O174 Co171 1.966 . S
O174 C172 1.263 . S
C175 O176 1.235 . S
C175 O202 1.289 . S
O176 C175 1.235 . S
C177 C179 1.400 . S
C177 N180 1.351 . S
C177 C182 1.501 . S
C178 C179 1.387 . S
C178 N181 1.341 . S
C179 C177 1.400 . S
C179 C178 1.387 . S
N180 Co171 2.022 . S
N180 C177 1.351 . S
N180 N181 1.365 . S
N181 C178 1.341 . S
N181 N180 1.365 . S
N181 H201 0.862 . S
C182 C177 1.501 . S
C182 H183 0.961 . S
C182 H184 0.961 . S
C182 H185 0.960 . S
H183 C182 0.961 . S
H184 C182 0.961 . S
H185 C182 0.960 . S
C186 N187 1.342 . S
C186 C190 1.401 . S
C186 C191 1.499 . S
N187 Co170 1.989 . S
N187 C186 1.342 . S
N187 N188 1.388 . S
N188 Co171 1.993 . S
N188 N187 1.388 . S
N188 C189 1.346 . S
C189 N188 1.346 . S
C189 C190 1.396 . S
C189 C199 1.510 . S
C190 C186 1.401 . S
C190 C189 1.396 . S
C191 C186 1.499 . S
C191 H192 0.959 . S
C191 H193 0.960 . S
C191 H194 0.961 . S
H192 C191 0.959 . S
H193 C191 0.960 . S
H194 C191 0.961 . S
O195 Co170 1.967 . S
O195 C203 1.258 . S
O196 Co171 1.941 . S
O196 C203 1.266 . S
H197 C199 0.959 . S
H198 C199 0.961 . S
C199 C189 1.510 . S
C199 H197 0.959 . S
C199 H198 0.961 . S
C199 H200 0.960 . S
H200 C199 0.960 . S
H201 N181 0.862 . S
O202 Co170 1.920 . S
O202 C175 1.289 . S
C203 O195 1.258 . S
C203 O196 1.266 . S
Co204 O207 1.970 . S
Co204 N221 1.989 . S
Co204 O229 1.967 . S
Co204 O236 1.920 . S
Co205 O208 1.966 . S
Co205 N214 2.022 . S
Co205 N222 1.993 . S
Co205 O230 1.941 . S
C206 O207 1.258 . S
C206 O208 1.263 . S
O207 Co204 1.970 . S
O207 C206 1.258 . S
O208 Co205 1.966 . S
O208 C206 1.263 . S
C209 O210 1.235 . S
C209 O236 1.289 . S
O210 C209 1.235 . S
C211 C213 1.400 . S
C211 N214 1.351 . S
C211 C216 1.501 . S
C212 C213 1.387 . S
C212 N215 1.341 . S
C213 C211 1.400 . S
C213 C212 1.387 . S
N214 Co205 2.022 . S
N214 C211 1.351 . S
N214 N215 1.365 . S
N215 C212 1.341 . S
N215 N214 1.365 . S
N215 H235 0.862 . S
C216 C211 1.501 . S
C216 H217 0.961 . S
C216 H218 0.961 . S
C216 H219 0.960 . S
H217 C216 0.961 . S
H218 C216 0.961 . S
H219 C216 0.960 . S
C220 N221 1.342 . S
C220 C224 1.401 . S
C220 C225 1.499 . S
N221 Co204 1.989 . S
N221 C220 1.342 . S
N221 N222 1.388 . S
N222 Co205 1.993 . S
N222 N221 1.388 . S
N222 C223 1.346 . S
C223 N222 1.346 . S
C223 C224 1.396 . S
C223 C233 1.510 . S
C224 C220 1.401 . S
C224 C223 1.396 . S
C225 C220 1.499 . S
C225 H226 0.959 . S
C225 H227 0.960 . S
C225 H228 0.961 . S
H226 C225 0.959 . S
H227 C225 0.960 . S
H228 C225 0.961 . S
O229 Co204 1.967 . S
O229 C237 1.258 . S
O230 Co205 1.941 . S
O230 C237 1.266 . S
H231 C233 0.959 . S
H232 C233 0.961 . S
C233 C223 1.510 . S
C233 H231 0.959 . S
C233 H232 0.961 . S
C233 H234 0.960 . S
H234 C233 0.960 . S
H235 N215 0.862 . S
O236 Co204 1.920 . S
O236 C209 1.289 . S
C237 O229 1.258 . S
C237 O230 1.266 . S
Co238 O241 1.970 . S
Co238 N255 1.989 . S
Co238 O263 1.967 . S
Co238 O270 1.920 . S
Co239 O242 1.966 . S
Co239 N248 2.022 . S
Co239 N256 1.993 . S
Co239 O264 1.941 . S
C240 O241 1.258 . S
C240 O242 1.263 . S
O241 Co238 1.970 . S
O241 C240 1.258 . S
O242 Co239 1.966 . S
O242 C240 1.263 . S
C243 O244 1.235 . S
C243 O270 1.289 . S
O244 C243 1.235 . S
C245 C247 1.400 . S
C245 N248 1.351 . S
C245 C250 1.501 . S
C246 C247 1.387 . S
C246 N249 1.341 . S
C247 C245 1.400 . S
C247 C246 1.387 . S
N248 Co239 2.022 . S
N248 C245 1.351 . S
N248 N249 1.365 . S
N249 C246 1.341 . S
N249 N248 1.365 . S
N249 H269 0.862 . S
C250 C245 1.501 . S
C250 H251 0.961 . S
C250 H252 0.961 . S
C250 H253 0.960 . S
H251 C250 0.961 . S
H252 C250 0.961 . S
H253 C250 0.960 . S
C254 N255 1.342 . S
C254 C258 1.401 . S
C254 C259 1.499 . S
N255 Co238 1.989 . S
N255 C254 1.342 . S
N255 N256 1.388 . S
N256 Co239 1.993 . S
N256 N255 1.388 . S
N256 C257 1.346 . S
C257 N256 1.346 . S
C257 C258 1.396 . S
C257 C267 1.510 . S
C258 C254 1.401 . S
C258 C257 1.396 . S
C259 C254 1.499 . S
C259 H260 0.959 . S
C259 H261 0.960 . S
C259 H262 0.961 . S
H260 C259 0.959 . S
H261 C259 0.960 . S
H262 C259 0.961 . S
O263 Co238 1.967 . S
O263 C271 1.258 . S
O264 Co239 1.941 . S
O264 C271 1.266 . S
H265 C267 0.959 . S
H266 C267 0.961 . S
C267 C257 1.510 . S
C267 H265 0.959 . S
C267 H266 0.961 . S
C267 H268 0.960 . S
H268 C267 0.960 . S
H269 N249 0.862 . S
O270 Co238 1.920 . S
O270 C243 1.289 . S
C271 O263 1.258 . S
C271 O264 1.266 . S
Co272 O275 1.970 . S
Co272 N289 1.989 . S
Co272 O297 1.967 . S
Co272 O304 1.920 . S
Co273 O276 1.966 . S
Co273 N282 2.022 . S
Co273 N290 1.993 . S
Co273 O298 1.941 . S
C274 O275 1.258 . S
C274 O276 1.263 . S
O275 Co272 1.970 . S
O275 C274 1.258 . S
O276 Co273 1.966 . S
O276 C274 1.263 . S
C277 O278 1.235 . S
C277 O304 1.289 . S
O278 C277 1.235 . S
C279 C281 1.400 . S
C279 N282 1.351 . S
C279 C284 1.501 . S
C280 C281 1.387 . S
C280 N283 1.341 . S
C281 C279 1.400 . S
C281 C280 1.387 . S
N282 Co273 2.022 . S
N282 C279 1.351 . S
N282 N283 1.365 . S
N283 C280 1.341 . S
N283 N282 1.365 . S
N283 H303 0.862 . S
C284 C279 1.501 . S
C284 H285 0.961 . S
C284 H286 0.961 . S
C284 H287 0.960 . S
H285 C284 0.961 . S
H286 C284 0.961 . S
H287 C284 0.960 . S
C288 N289 1.342 . S
C288 C292 1.401 . S
C288 C293 1.499 . S
N289 Co272 1.989 . S
N289 C288 1.342 . S
N289 N290 1.388 . S
N290 Co273 1.993 . S
N290 N289 1.388 . S
N290 C291 1.346 . S
C291 N290 1.346 . S
C291 C292 1.396 . S
C291 C301 1.510 . S
C292 C288 1.401 . S
C292 C291 1.396 . S
C293 C288 1.499 . S
C293 H294 0.959 . S
C293 H295 0.960 . S
C293 H296 0.961 . S
H294 C293 0.959 . S
H295 C293 0.960 . S
H296 C293 0.961 . S
O297 Co272 1.967 . S
O297 C305 1.258 . S
O298 Co273 1.941 . S
O298 C305 1.266 . S
H299 C301 0.959 . S
H300 C301 0.961 . S
C301 C291 1.510 . S
C301 H299 0.959 . S
C301 H300 0.961 . S
C301 H302 0.960 . S
H302 C301 0.960 . S
H303 N283 0.862 . S
O304 Co272 1.920 . S
O304 C277 1.289 . S
C305 O297 1.258 . S
C305 O298 1.266 . S
Co306 O309 1.970 . S
Co306 N323 1.989 . S
Co306 O331 1.967 . S
Co306 O338 1.920 . S
Co307 O310 1.966 . S
Co307 N316 2.022 . S
Co307 N324 1.993 . S
Co307 O332 1.941 . S
C308 O309 1.258 . S
C308 O310 1.263 . S
O309 Co306 1.970 . S
O309 C308 1.258 . S
O310 Co307 1.966 . S
O310 C308 1.263 . S
C311 O312 1.235 . S
C311 O338 1.289 . S
O312 C311 1.235 . S
C313 C315 1.400 . S
C313 N316 1.351 . S
C313 C318 1.501 . S
C314 C315 1.387 . S
C314 N317 1.341 . S
C315 C313 1.400 . S
C315 C314 1.387 . S
N316 Co307 2.022 . S
N316 C313 1.351 . S
N316 N317 1.365 . S
N317 C314 1.341 . S
N317 N316 1.365 . S
N317 H337 0.862 . S
C318 C313 1.501 . S
C318 H319 0.961 . S
C318 H320 0.961 . S
C318 H321 0.960 . S
H319 C318 0.961 . S
H320 C318 0.961 . S
H321 C318 0.960 . S
C322 N323 1.342 . S
C322 C326 1.401 . S
C322 C327 1.499 . S
N323 Co306 1.989 . S
N323 C322 1.342 . S
N323 N324 1.388 . S
N324 Co307 1.993 . S
N324 N323 1.388 . S
N324 C325 1.346 . S
C325 N324 1.346 . S
C325 C326 1.396 . S
C325 C335 1.510 . S
C326 C322 1.401 . S
C326 C325 1.396 . S
C327 C322 1.499 . S
C327 H328 0.959 . S
C327 H329 0.960 . S
C327 H330 0.961 . S
H328 C327 0.959 . S
H329 C327 0.960 . S
H330 C327 0.961 . S
O331 Co306 1.967 . S
O331 C339 1.258 . S
O332 Co307 1.941 . S
O332 C339 1.266 . S
H333 C335 0.959 . S
H334 C335 0.961 . S
C335 C325 1.510 . S
C335 H333 0.959 . S
C335 H334 0.961 . S
C335 H336 0.960 . S
H336 C335 0.960 . S
H337 N317 0.862 . S
O338 Co306 1.920 . S
O338 C311 1.289 . S
C339 O331 1.258 . S
C339 O332 1.266 . S
Co340 O343 1.970 . S
Co340 N357 1.989 . S
Co340 O365 1.967 . S
Co340 O372 1.920 . S
Co341 O344 1.966 . S
Co341 N350 2.022 . S
Co341 N358 1.993 . S
Co341 O366 1.941 . S
C342 O343 1.258 . S
C342 O344 1.263 . S
O343 Co340 1.970 . S
O343 C342 1.258 . S
O344 Co341 1.966 . S
O344 C342 1.263 . S
C345 O346 1.235 . S
C345 O372 1.289 . S
O346 C345 1.235 . S
C347 C349 1.400 . S
C347 N350 1.351 . S
C347 C352 1.501 . S
C348 C349 1.387 . S
C348 N351 1.341 . S
C349 C347 1.400 . S
C349 C348 1.387 . S
N350 Co341 2.022 . S
N350 C347 1.351 . S
N350 N351 1.365 . S
N351 C348 1.341 . S
N351 N350 1.365 . S
N351 H371 0.862 . S
C352 C347 1.501 . S
C352 H353 0.961 . S
C352 H354 0.961 . S
C352 H355 0.960 . S
H353 C352 0.961 . S
H354 C352 0.961 . S
H355 C352 0.960 . S
C356 N357 1.342 . S
C356 C360 1.401 . S
C356 C361 1.499 . S
N357 Co340 1.989 . S
N357 C356 1.342 . S
N357 N358 1.388 . S
N358 Co341 1.993 . S
N358 N357 1.388 . S
N358 C359 1.346 . S
C359 N358 1.346 . S
C359 C360 1.396 . S
C359 C369 1.510 . S
C360 C356 1.401 . S
C360 C359 1.396 . S
C361 C356 1.499 . S
C361 H362 0.959 . S
C361 H363 0.960 . S
C361 H364 0.961 . S
H362 C361 0.959 . S
H363 C361 0.960 . S
H364 C361 0.961 . S
O365 Co340 1.967 . S
O365 C373 1.258 . S
O366 Co341 1.941 . S
O366 C373 1.266 . S
H367 C369 0.959 . S
H368 C369 0.961 . S
C369 C359 1.510 . S
C369 H367 0.959 . S
C369 H368 0.961 . S
C369 H370 0.960 . S
H370 C369 0.960 . S
H371 N351 0.862 . S
O372 Co340 1.920 . S
O372 C345 1.289 . S
C373 O365 1.258 . S
C373 O366 1.266 . S
Co374 O377 1.970 . S
Co374 N391 1.989 . S
Co374 O399 1.967 . S
Co374 O406 1.920 . S
Co375 O378 1.966 . S
Co375 N384 2.022 . S
Co375 N392 1.993 . S
Co375 O400 1.941 . S
C376 O377 1.258 . S
C376 O378 1.263 . S
O377 Co374 1.970 . S
O377 C376 1.258 . S
O378 Co375 1.966 . S
O378 C376 1.263 . S
C379 O380 1.235 . S
C379 O406 1.289 . S
O380 C379 1.235 . S
C381 C383 1.400 . S
C381 N384 1.351 . S
C381 C386 1.501 . S
C382 C383 1.387 . S
C382 N385 1.341 . S
C383 C381 1.400 . S
C383 C382 1.387 . S
N384 Co375 2.022 . S
N384 C381 1.351 . S
N384 N385 1.365 . S
N385 C382 1.341 . S
N385 N384 1.365 . S
N385 H405 0.862 . S
C386 C381 1.501 . S
C386 H387 0.961 . S
C386 H388 0.961 . S
C386 H389 0.960 . S
H387 C386 0.961 . S
H388 C386 0.961 . S
H389 C386 0.960 . S
C390 N391 1.342 . S
C390 C394 1.401 . S
C390 C395 1.499 . S
N391 Co374 1.989 . S
N391 C390 1.342 . S
N391 N392 1.388 . S
N392 Co375 1.993 . S
N392 N391 1.388 . S
N392 C393 1.346 . S
C393 N392 1.346 . S
C393 C394 1.396 . S
C393 C403 1.510 . S
C394 C390 1.401 . S
C394 C393 1.396 . S
C395 C390 1.499 . S
C395 H396 0.959 . S
C395 H397 0.960 . S
C395 H398 0.961 . S
H396 C395 0.959 . S
H397 C395 0.960 . S
H398 C395 0.961 . S
O399 Co374 1.967 . S
O399 C407 1.258 . S
O400 Co375 1.941 . S
O400 C407 1.266 . S
H401 C403 0.959 . S
H402 C403 0.961 . S
C403 C393 1.510 . S
C403 H401 0.959 . S
C403 H402 0.961 . S
C403 H404 0.960 . S
H404 C403 0.960 . S
H405 N385 0.862 . S
O406 Co374 1.920 . S
O406 C379 1.289 . S
C407 O399 1.258 . S
C407 O400 1.266 . S
Co408 O411 1.970 . S
Co408 N425 1.989 . S
Co408 O433 1.967 . S
Co408 O440 1.920 . S
Co409 O412 1.966 . S
Co409 N418 2.022 . S
Co409 N426 1.993 . S
Co409 O434 1.941 . S
C410 O411 1.258 . S
C410 O412 1.263 . S
O411 Co408 1.970 . S
O411 C410 1.258 . S
O412 Co409 1.966 . S
O412 C410 1.263 . S
C413 O414 1.235 . S
C413 O440 1.289 . S
O414 C413 1.235 . S
C415 C417 1.400 . S
C415 N418 1.351 . S
C415 C420 1.501 . S
C416 C417 1.387 . S
C416 N419 1.341 . S
C417 C415 1.400 . S
C417 C416 1.387 . S
N418 Co409 2.022 . S
N418 C415 1.351 . S
N418 N419 1.365 . S
N419 C416 1.341 . S
N419 N418 1.365 . S
N419 H439 0.862 . S
C420 C415 1.501 . S
C420 H421 0.961 . S
C420 H422 0.961 . S
C420 H423 0.960 . S
H421 C420 0.961 . S
H422 C420 0.961 . S
H423 C420 0.960 . S
C424 N425 1.342 . S
C424 C428 1.401 . S
C424 C429 1.499 . S
N425 Co408 1.989 . S
N425 C424 1.342 . S
N425 N426 1.388 . S
N426 Co409 1.993 . S
N426 N425 1.388 . S
N426 C427 1.346 . S
C427 N426 1.346 . S
C427 C428 1.396 . S
C427 C437 1.510 . S
C428 C424 1.401 . S
C428 C427 1.396 . S
C429 C424 1.499 . S
C429 H430 0.959 . S
C429 H431 0.960 . S
C429 H432 0.961 . S
H430 C429 0.959 . S
H431 C429 0.960 . S
H432 C429 0.961 . S
O433 Co408 1.967 . S
O433 C441 1.258 . S
O434 Co409 1.941 . S
O434 C441 1.266 . S
H435 C437 0.959 . S
H436 C437 0.961 . S
C437 C427 1.510 . S
C437 H435 0.959 . S
C437 H436 0.961 . S
C437 H438 0.960 . S
H438 C437 0.960 . S
H439 N419 0.862 . S
O440 Co408 1.920 . S
O440 C413 1.289 . S
C441 O433 1.258 . S
C441 O434 1.266 . S
Co442 O445 1.970 . S
Co442 N459 1.989 . S
Co442 O467 1.967 . S
Co442 O474 1.920 . S
Co443 O446 1.966 . S
Co443 N452 2.022 . S
Co443 N460 1.993 . S
Co443 O468 1.941 . S
C444 O445 1.258 . S
C444 O446 1.263 . S
O445 Co442 1.970 . S
O445 C444 1.258 . S
O446 Co443 1.966 . S
O446 C444 1.263 . S
C447 O448 1.235 . S
C447 O474 1.289 . S
O448 C447 1.235 . S
C449 C451 1.400 . S
C449 N452 1.351 . S
C449 C454 1.501 . S
C450 C451 1.387 . S
C450 N453 1.341 . S
C451 C449 1.400 . S
C451 C450 1.387 . S
N452 Co443 2.022 . S
N452 C449 1.351 . S
N452 N453 1.365 . S
N453 C450 1.341 . S
N453 N452 1.365 . S
N453 H473 0.862 . S
C454 C449 1.501 . S
C454 H455 0.961 . S
C454 H456 0.961 . S
C454 H457 0.960 . S
H455 C454 0.961 . S
H456 C454 0.961 . S
H457 C454 0.960 . S
C458 N459 1.342 . S
C458 C462 1.401 . S
C458 C463 1.499 . S
N459 Co442 1.989 . S
N459 C458 1.342 . S
N459 N460 1.388 . S
N460 Co443 1.993 . S
N460 N459 1.388 . S
N460 C461 1.346 . S
C461 N460 1.346 . S
C461 C462 1.396 . S
C461 C471 1.510 . S
C462 C458 1.401 . S
C462 C461 1.396 . S
C463 C458 1.499 . S
C463 H464 0.959 . S
C463 H465 0.960 . S
C463 H466 0.961 . S
H464 C463 0.959 . S
H465 C463 0.960 . S
H466 C463 0.961 . S
O467 Co442 1.967 . S
O467 C475 1.258 . S
O468 Co443 1.941 . S
O468 C475 1.266 . S
H469 C471 0.959 . S
H470 C471 0.961 . S
C471 C461 1.510 . S
C471 H469 0.959 . S
C471 H470 0.961 . S
C471 H472 0.960 . S
H472 C471 0.960 . S
H473 N453 0.862 . S
O474 Co442 1.920 . S
O474 C447 1.289 . S
C475 O467 1.258 . S
C475 O468 1.266 . S
Co476 O479 1.970 . S
Co476 N493 1.989 . S
Co476 O501 1.967 . S
Co476 O508 1.920 . S
Co477 O480 1.966 . S
Co477 N486 2.022 . S
Co477 N494 1.993 . S
Co477 O502 1.941 . S
C478 O479 1.258 . S
C478 O480 1.263 . S
O479 Co476 1.970 . S
O479 C478 1.258 . S
O480 Co477 1.966 . S
O480 C478 1.263 . S
C481 O482 1.235 . S
C481 O508 1.289 . S
O482 C481 1.235 . S
C483 C485 1.400 . S
C483 N486 1.351 . S
C483 C488 1.501 . S
C484 C485 1.387 . S
C484 N487 1.341 . S
C485 C483 1.400 . S
C485 C484 1.387 . S
N486 Co477 2.022 . S
N486 C483 1.351 . S
N486 N487 1.365 . S
N487 C484 1.341 . S
N487 N486 1.365 . S
N487 H507 0.862 . S
C488 C483 1.501 . S
C488 H489 0.961 . S
C488 H490 0.961 . S
C488 H491 0.960 . S
H489 C488 0.961 . S
H490 C488 0.961 . S
H491 C488 0.960 . S
C492 N493 1.342 . S
C492 C496 1.401 . S
C492 C497 1.499 . S
N493 Co476 1.989 . S
N493 C492 1.342 . S
N493 N494 1.388 . S
N494 Co477 1.993 . S
N494 N493 1.388 . S
N494 C495 1.346 . S
C495 N494 1.346 . S
C495 C496 1.396 . S
C495 C505 1.510 . S
C496 C492 1.401 . S
C496 C495 1.396 . S
C497 C492 1.499 . S
C497 H498 0.959 . S
C497 H499 0.960 . S
C497 H500 0.961 . S
H498 C497 0.959 . S
H499 C497 0.960 . S
H500 C497 0.961 . S
O501 Co476 1.967 . S
O501 C509 1.258 . S
O502 Co477 1.941 . S
O502 C509 1.266 . S
H503 C505 0.959 . S
H504 C505 0.961 . S
C505 C495 1.510 . S
C505 H503 0.959 . S
C505 H504 0.961 . S
C505 H506 0.960 . S
H506 C505 0.960 . S
H507 N487 0.862 . S
O508 Co476 1.920 . S
O508 C481 1.289 . S
C509 O501 1.258 . S
C509 O502 1.266 . S
Co510 O513 1.970 . S
Co510 N527 1.989 . S
Co510 O535 1.967 . S
Co510 O542 1.920 . S
Co511 O514 1.966 . S
Co511 N520 2.022 . S
Co511 N528 1.993 . S
Co511 O536 1.941 . S
C512 O513 1.258 . S
C512 O514 1.263 . S
O513 Co510 1.970 . S
O513 C512 1.258 . S
O514 Co511 1.966 . S
O514 C512 1.263 . S
C515 O516 1.235 . S
C515 O542 1.289 . S
O516 C515 1.235 . S
C517 C519 1.400 . S
C517 N520 1.351 . S
C517 C522 1.501 . S
C518 C519 1.387 . S
C518 N521 1.341 . S
C519 C517 1.400 . S
C519 C518 1.387 . S
N520 Co511 2.022 . S
N520 C517 1.351 . S
N520 N521 1.365 . S
N521 C518 1.341 . S
N521 N520 1.365 . S
N521 H541 0.862 . S
C522 C517 1.501 . S
C522 H523 0.961 . S
C522 H524 0.961 . S
C522 H525 0.960 . S
H523 C522 0.961 . S
H524 C522 0.961 . S
H525 C522 0.960 . S
C526 N527 1.342 . S
C526 C530 1.401 . S
C526 C531 1.499 . S
N527 Co510 1.989 . S
N527 C526 1.342 . S
N527 N528 1.388 . S
N528 Co511 1.993 . S
N528 N527 1.388 . S
N528 C529 1.346 . S
C529 N528 1.346 . S
C529 C530 1.396 . S
C529 C539 1.510 . S
C530 C526 1.401 . S
C530 C529 1.396 . S
C531 C526 1.499 . S
C531 H532 0.959 . S
C531 H533 0.960 . S
C531 H534 0.961 . S
H532 C531 0.959 . S
H533 C531 0.960 . S
H534 C531 0.961 . S
O535 Co510 1.967 . S
O535 C543 1.258 . S
O536 Co511 1.941 . S
O536 C543 1.266 . S
H537 C539 0.959 . S
H538 C539 0.961 . S
C539 C529 1.510 . S
C539 H537 0.959 . S
C539 H538 0.961 . S
C539 H540 0.960 . S
H540 C539 0.960 . S
H541 N521 0.862 . S
O542 Co510 1.920 . S
O542 C515 1.289 . S
C543 O535 1.258 . S
C543 O536 1.266 . S
Co544 O547 1.970 . S
Co544 N561 1.989 . S
Co544 O569 1.967 . S
Co544 O576 1.920 . S
Co545 O548 1.966 . S
Co545 N554 2.022 . S
Co545 N562 1.993 . S
Co545 O570 1.941 . S
C546 O547 1.258 . S
C546 O548 1.263 . S
O547 Co544 1.970 . S
O547 C546 1.258 . S
O548 Co545 1.966 . S
O548 C546 1.263 . S
C549 O550 1.235 . S
C549 O576 1.289 . S
O550 C549 1.235 . S
C551 C553 1.400 . S
C551 N554 1.351 . S
C551 C556 1.501 . S
C552 C553 1.387 . S
C552 N555 1.341 . S
C553 C551 1.400 . S
C553 C552 1.387 . S
N554 Co545 2.022 . S
N554 C551 1.351 . S
N554 N555 1.365 . S
N555 C552 1.341 . S
N555 N554 1.365 . S
N555 H575 0.862 . S
C556 C551 1.501 . S
C556 H557 0.961 . S
C556 H558 0.961 . S
C556 H559 0.960 . S
H557 C556 0.961 . S
H558 C556 0.961 . S
H559 C556 0.960 . S
C560 N561 1.342 . S
C560 C564 1.401 . S
C560 C565 1.499 . S
N561 Co544 1.989 . S
N561 C560 1.342 . S
N561 N562 1.388 . S
N562 Co545 1.993 . S
N562 N561 1.388 . S
N562 C563 1.346 . S
C563 N562 1.346 . S
C563 C564 1.396 . S
C563 C573 1.510 . S
C564 C560 1.401 . S
C564 C563 1.396 . S
C565 C560 1.499 . S
C565 H566 0.959 . S
C565 H567 0.960 . S
C565 H568 0.961 . S
H566 C565 0.959 . S
H567 C565 0.960 . S
H568 C565 0.961 . S
O569 Co544 1.967 . S
O569 C577 1.258 . S
O570 Co545 1.941 . S
O570 C577 1.266 . S
H571 C573 0.959 . S
H572 C573 0.961 . S
C573 C563 1.510 . S
C573 H571 0.959 . S
C573 H572 0.961 . S
C573 H574 0.960 . S
H574 C573 0.960 . S
H575 N555 0.862 . S
O576 Co544 1.920 . S
O576 C549 1.289 . S
C577 O569 1.258 . S
C577 O570 1.266 . S
Co578 O581 1.970 . S
Co578 N595 1.989 . S
Co578 O603 1.967 . S
Co578 O610 1.920 . S
Co579 O582 1.966 . S
Co579 N588 2.022 . S
Co579 N596 1.993 . S
Co579 O604 1.941 . S
C580 O581 1.258 . S
C580 O582 1.263 . S
O581 Co578 1.970 . S
O581 C580 1.258 . S
O582 Co579 1.966 . S
O582 C580 1.263 . S
C583 O584 1.235 . S
C583 O610 1.289 . S
O584 C583 1.235 . S
C585 C587 1.400 . S
C585 N588 1.351 . S
C585 C590 1.501 . S
C586 C587 1.387 . S
C586 N589 1.341 . S
C587 C585 1.400 . S
C587 C586 1.387 . S
N588 Co579 2.022 . S
N588 C585 1.351 . S
N588 N589 1.365 . S
N589 C586 1.341 . S
N589 N588 1.365 . S
N589 H609 0.862 . S
C590 C585 1.501 . S
C590 H591 0.961 . S
C590 H592 0.961 . S
C590 H593 0.960 . S
H591 C590 0.961 . S
H592 C590 0.961 . S
H593 C590 0.960 . S
C594 N595 1.342 . S
C594 C598 1.401 . S
C594 C599 1.499 . S
N595 Co578 1.989 . S
N595 C594 1.342 . S
N595 N596 1.388 . S
N596 Co579 1.993 . S
N596 N595 1.388 . S
N596 C597 1.346 . S
C597 N596 1.346 . S
C597 C598 1.396 . S
C597 C607 1.510 . S
C598 C594 1.401 . S
C598 C597 1.396 . S
C599 C594 1.499 . S
C599 H600 0.959 . S
C599 H601 0.960 . S
C599 H602 0.961 . S
H600 C599 0.959 . S
H601 C599 0.960 . S
H602 C599 0.961 . S
O603 Co578 1.967 . S
O603 C611 1.258 . S
O604 Co579 1.941 . S
O604 C611 1.266 . S
H605 C607 0.959 . S
H606 C607 0.961 . S
C607 C597 1.510 . S
C607 H605 0.959 . S
C607 H606 0.961 . S
C607 H608 0.960 . S
H608 C607 0.960 . S
H609 N589 0.862 . S
O610 Co578 1.920 . S
O610 C583 1.289 . S
C611 O603 1.258 . S
C611 O604 1.266 . S
Co612 O615 1.970 . S
Co612 N629 1.989 . S
Co612 O637 1.967 . S
Co612 O644 1.920 . S
Co613 O616 1.966 . S
Co613 N622 2.022 . S
Co613 N630 1.993 . S
Co613 O638 1.941 . S
C614 O615 1.258 . S
C614 O616 1.263 . S
O615 Co612 1.970 . S
O615 C614 1.258 . S
O616 Co613 1.966 . S
O616 C614 1.263 . S
C617 O618 1.235 . S
C617 O644 1.289 . S
O618 C617 1.235 . S
C619 C621 1.400 . S
C619 N622 1.351 1_556 S
C619 C624 1.501 . S
C620 C621 1.387 . S
C620 N623 1.341 1_556 S
C621 C619 1.400 . S
C621 C620 1.387 . S
N622 Co613 2.022 . S
N622 C619 1.351 1_554 S
N622 N623 1.365 . S
N623 C620 1.341 1_554 S
N623 N622 1.365 . S
N623 H643 0.862 . S
C624 C619 1.501 . S
C624 H625 0.961 1_556 S
C624 H626 0.961 . S
C624 H627 0.960 . S
H625 C624 0.961 1_554 S
H626 C624 0.961 . S
H627 C624 0.960 . S
C628 N629 1.342 . S
C628 C632 1.401 . S
C628 C633 1.499 . S
N629 Co612 1.989 . S
N629 C628 1.342 . S
N629 N630 1.388 . S
N630 Co613 1.993 . S
N630 N629 1.388 . S
N630 C631 1.346 . S
C631 N630 1.346 . S
C631 C632 1.396 . S
C631 C641 1.510 . S
C632 C628 1.401 . S
C632 C631 1.396 . S
C633 C628 1.499 . S
C633 H634 0.959 . S
C633 H635 0.960 . S
C633 H636 0.961 . S
H634 C633 0.959 . S
H635 C633 0.960 . S
H636 C633 0.961 . S
O637 Co612 1.967 . S
O637 C645 1.258 . S
O638 Co613 1.941 . S
O638 C645 1.266 . S
H639 C641 0.959 . S
H640 C641 0.961 1_556 S
C641 C631 1.510 . S
C641 H639 0.959 . S
C641 H640 0.961 1_554 S
C641 H642 0.960 . S
H642 C641 0.960 . S
H643 N623 0.862 . S
O644 Co612 1.920 . S
O644 C617 1.289 . S
C645 O637 1.258 . S
C645 O638 1.266 . S
Co646 O649 1.970 . S
Co646 N663 1.989 . S
Co646 O671 1.967 . S
Co646 O678 1.920 . S
Co647 O650 1.966 . S
Co647 N656 2.022 . S
Co647 N664 1.993 . S
Co647 O672 1.941 . S
C648 O649 1.258 . S
C648 O650 1.263 . S
O649 Co646 1.970 . S
O649 C648 1.258 . S
O650 Co647 1.966 . S
O650 C648 1.263 . S
C651 O652 1.235 . S
C651 O678 1.289 . S
O652 C651 1.235 . S
C653 C655 1.400 . S
C653 N656 1.351 1_556 S
C653 C658 1.501 . S
C654 C655 1.387 . S
C654 N657 1.341 1_556 S
C655 C653 1.400 . S
C655 C654 1.387 . S
N656 Co647 2.022 . S
N656 C653 1.351 1_554 S
N656 N657 1.365 . S
N657 C654 1.341 1_554 S
N657 N656 1.365 . S
N657 H677 0.862 . S
C658 C653 1.501 . S
C658 H659 0.961 1_556 S
C658 H660 0.961 . S
C658 H661 0.960 . S
H659 C658 0.961 1_554 S
H660 C658 0.961 . S
H661 C658 0.960 . S
C662 N663 1.342 . S
C662 C666 1.401 . S
C662 C667 1.499 . S
N663 Co646 1.989 . S
N663 C662 1.342 . S
N663 N664 1.388 . S
N664 Co647 1.993 . S
N664 N663 1.388 . S
N664 C665 1.346 . S
C665 N664 1.346 . S
C665 C666 1.396 . S
C665 C675 1.510 . S
C666 C662 1.401 . S
C666 C665 1.396 . S
C667 C662 1.499 . S
C667 H668 0.959 . S
C667 H669 0.960 . S
C667 H670 0.961 . S
H668 C667 0.959 . S
H669 C667 0.960 . S
H670 C667 0.961 . S
O671 Co646 1.967 . S
O671 C679 1.258 . S
O672 Co647 1.941 . S
O672 C679 1.266 . S
H673 C675 0.959 . S
H674 C675 0.961 1_556 S
C675 C665 1.510 . S
C675 H673 0.959 . S
C675 H674 0.961 1_554 S
C675 H676 0.960 . S
H676 C675 0.960 . S
H677 N657 0.862 . S
O678 Co646 1.920 . S
O678 C651 1.289 . S
C679 O671 1.258 . S
C679 O672 1.266 . S
Co680 O683 1.970 . S
Co680 N697 1.989 . S
Co680 O705 1.967 . S
Co680 O712 1.920 . S
Co681 O684 1.966 . S
Co681 N690 2.022 . S
Co681 N698 1.993 . S
Co681 O706 1.941 . S
C682 O683 1.258 . S
C682 O684 1.263 . S
O683 Co680 1.970 . S
O683 C682 1.258 . S
O684 Co681 1.966 . S
O684 C682 1.263 . S
C685 O686 1.235 . S
C685 O712 1.289 . S
O686 C685 1.235 . S
C687 C689 1.400 . S
C687 N690 1.351 1_556 S
C687 C692 1.501 . S
C688 C689 1.387 . S
C688 N691 1.341 1_556 S
C689 C687 1.400 . S
C689 C688 1.387 . S
N690 Co681 2.022 . S
N690 C687 1.351 1_554 S
N690 N691 1.365 . S
N691 C688 1.341 1_554 S
N691 N690 1.365 . S
N691 H711 0.862 . S
C692 C687 1.501 . S
C692 H693 0.961 1_556 S
C692 H694 0.961 . S
C692 H695 0.960 . S
H693 C692 0.961 1_554 S
H694 C692 0.961 . S
H695 C692 0.960 . S
C696 N697 1.342 . S
C696 C700 1.401 . S
C696 C701 1.499 . S
N697 Co680 1.989 . S
N697 C696 1.342 . S
N697 N698 1.388 . S
N698 Co681 1.993 . S
N698 N697 1.388 . S
N698 C699 1.346 . S
C699 N698 1.346 . S
C699 C700 1.396 . S
C699 C709 1.510 . S
C700 C696 1.401 . S
C700 C699 1.396 . S
C701 C696 1.499 . S
C701 H702 0.959 . S
C701 H703 0.960 . S
C701 H704 0.961 . S
H702 C701 0.959 . S
H703 C701 0.960 . S
H704 C701 0.961 . S
O705 Co680 1.967 . S
O705 C713 1.258 . S
O706 Co681 1.941 . S
O706 C713 1.266 . S
H707 C709 0.959 . S
H708 C709 0.961 1_556 S
C709 C699 1.510 . S
C709 H707 0.959 . S
C709 H708 0.961 1_554 S
C709 H710 0.960 . S
H710 C709 0.960 . S
H711 N691 0.862 . S
O712 Co680 1.920 . S
O712 C685 1.289 . S
C713 O705 1.258 . S
C713 O706 1.266 . S
Co714 O717 1.970 . S
Co714 N731 1.989 . S
Co714 O739 1.967 . S
Co714 O746 1.920 . S
Co715 O718 1.966 . S
Co715 N724 2.022 . S
Co715 N732 1.993 . S
Co715 O740 1.941 1_554 S
C716 O717 1.258 1_554 S
C716 O718 1.263 . S
O717 Co714 1.970 . S
O717 C716 1.258 1_556 S
O718 Co715 1.966 . S
O718 C716 1.263 . S
C719 O720 1.235 . S
C719 O746 1.289 . S
O720 C719 1.235 . S
C721 C723 1.400 . S
C721 N724 1.351 . S
C721 C726 1.501 . S
C722 C723 1.387 . S
C722 N725 1.341 . S
C723 C721 1.400 . S
C723 C722 1.387 . S
N724 Co715 2.022 . S
N724 C721 1.351 . S
N724 N725 1.365 . S
N725 C722 1.341 . S
N725 N724 1.365 . S
N725 H745 0.862 . S
C726 C721 1.501 . S
C726 H727 0.961 . S
C726 H728 0.961 . S
C726 H729 0.960 . S
H727 C726 0.961 . S
H728 C726 0.961 . S
H729 C726 0.960 . S
C730 N731 1.342 . S
C730 C734 1.401 1_556 S
C730 C735 1.499 . S
N731 Co714 1.989 . S
N731 C730 1.342 . S
N731 N732 1.388 1_556 S
N732 Co715 1.993 . S
N732 N731 1.388 1_554 S
N732 C733 1.346 . S
C733 N732 1.346 . S
C733 C734 1.396 . S
C733 C743 1.510 . S
C734 C730 1.401 1_554 S
C734 C733 1.396 . S
C735 C730 1.499 . S
C735 H736 0.959 . S
C735 H737 0.960 . S
C735 H738 0.961 . S
H736 C735 0.959 . S
H737 C735 0.960 . S
H738 C735 0.961 . S
O739 Co714 1.967 . S
O739 C747 1.258 . S
O740 Co715 1.941 1_556 S
O740 C747 1.266 . S
H741 C743 0.959 . S
H742 C743 0.961 . S
C743 C733 1.510 . S
C743 H741 0.959 . S
C743 H742 0.961 . S
C743 H744 0.960 . S
H744 C743 0.960 . S
H745 N725 0.862 . S
O746 Co714 1.920 . S
O746 C719 1.289 . S
C747 O739 1.258 . S
C747 O740 1.266 . S
Co748 O751 1.970 . S
Co748 N765 1.989 . S
Co748 O773 1.967 . S
Co748 O780 1.920 . S
Co749 O752 1.966 . S
Co749 N758 2.022 . S
Co749 N766 1.993 . S
Co749 O774 1.941 1_554 S
C750 O751 1.258 1_554 S
C750 O752 1.263 . S
O751 Co748 1.970 . S
O751 C750 1.258 1_556 S
O752 Co749 1.966 . S
O752 C750 1.263 . S
C753 O754 1.235 . S
C753 O780 1.289 . S
O754 C753 1.235 . S
C755 C757 1.400 . S
C755 N758 1.351 . S
C755 C760 1.501 . S
C756 C757 1.387 . S
C756 N759 1.341 . S
C757 C755 1.400 . S
C757 C756 1.387 . S
N758 Co749 2.022 . S
N758 C755 1.351 . S
N758 N759 1.365 . S
N759 C756 1.341 . S
N759 N758 1.365 . S
N759 H779 0.862 . S
C760 C755 1.501 . S
C760 H761 0.961 . S
C760 H762 0.961 . S
C760 H763 0.960 . S
H761 C760 0.961 . S
H762 C760 0.961 . S
H763 C760 0.960 . S
C764 N765 1.342 . S
C764 C768 1.401 1_556 S
C764 C769 1.499 . S
N765 Co748 1.989 . S
N765 C764 1.342 . S
N765 N766 1.388 1_556 S
N766 Co749 1.993 . S
N766 N765 1.388 1_554 S
N766 C767 1.346 . S
C767 N766 1.346 . S
C767 C768 1.396 . S
C767 C777 1.510 . S
C768 C764 1.401 1_554 S
C768 C767 1.396 . S
C769 C764 1.499 . S
C769 H770 0.959 . S
C769 H771 0.960 . S
C769 H772 0.961 . S
H770 C769 0.959 . S
H771 C769 0.960 . S
H772 C769 0.961 . S
O773 Co748 1.967 . S
O773 C781 1.258 . S
O774 Co749 1.941 1_556 S
O774 C781 1.266 . S
H775 C777 0.959 . S
H776 C777 0.961 . S
C777 C767 1.510 . S
C777 H775 0.959 . S
C777 H776 0.961 . S
C777 H778 0.960 . S
H778 C777 0.960 . S
H779 N759 0.862 . S
O780 Co748 1.920 . S
O780 C753 1.289 . S
C781 O773 1.258 . S
C781 O774 1.266 . S
Co782 O785 1.970 . S
Co782 N799 1.989 . S
Co782 O807 1.967 . S
Co782 O814 1.920 . S
Co783 O786 1.966 . S
Co783 N792 2.022 . S
Co783 N800 1.993 . S
Co783 O808 1.941 1_554 S
C784 O785 1.258 1_554 S
C784 O786 1.263 . S
O785 Co782 1.970 . S
O785 C784 1.258 1_556 S
O786 Co783 1.966 . S
O786 C784 1.263 . S
C787 O788 1.235 . S
C787 O814 1.289 . S
O788 C787 1.235 . S
C789 C791 1.400 . S
C789 N792 1.351 . S
C789 C794 1.501 . S
C790 C791 1.387 . S
C790 N793 1.341 . S
C791 C789 1.400 . S
C791 C790 1.387 . S
N792 Co783 2.022 . S
N792 C789 1.351 . S
N792 N793 1.365 . S
N793 C790 1.341 . S
N793 N792 1.365 . S
N793 H813 0.862 . S
C794 C789 1.501 . S
C794 H795 0.961 . S
C794 H796 0.961 . S
C794 H797 0.960 . S
H795 C794 0.961 . S
H796 C794 0.961 . S
H797 C794 0.960 . S
C798 N799 1.342 . S
C798 C802 1.401 1_556 S
C798 C803 1.499 . S
N799 Co782 1.989 . S
N799 C798 1.342 . S
N799 N800 1.388 1_556 S
N800 Co783 1.993 . S
N800 N799 1.388 1_554 S
N800 C801 1.346 . S
C801 N800 1.346 . S
C801 C802 1.396 . S
C801 C811 1.510 . S
C802 C798 1.401 1_554 S
C802 C801 1.396 . S
C803 C798 1.499 . S
C803 H804 0.959 . S
C803 H805 0.960 . S
C803 H806 0.961 . S
H804 C803 0.959 . S
H805 C803 0.960 . S
H806 C803 0.961 . S
O807 Co782 1.967 . S
O807 C815 1.258 . S
O808 Co783 1.941 1_556 S
O808 C815 1.266 . S
H809 C811 0.959 . S
H810 C811 0.961 . S
C811 C801 1.510 . S
C811 H809 0.959 . S
C811 H810 0.961 . S
C811 H812 0.960 . S
H812 C811 0.960 . S
H813 N793 0.862 . S
O814 Co782 1.920 . S
O814 C787 1.289 . S
C815 O807 1.258 . S
C815 O808 1.266 . S
Co816 O819 1.970 . S
Co816 N833 1.989 . S
Co816 O841 1.967 . S
Co816 O848 1.920 . S
Co817 O820 1.966 . S
Co817 N826 2.022 . S
Co817 N834 1.993 . S
Co817 O842 1.941 . S
C818 O819 1.258 . S
C818 O820 1.263 . S
O819 Co816 1.970 . S
O819 C818 1.258 . S
O820 Co817 1.966 . S
O820 C818 1.263 . S
C821 O822 1.235 . S
C821 O848 1.289 . S
O822 C821 1.235 . S
C823 C825 1.400 . S
C823 N826 1.351 1_554 S
C823 C828 1.501 . S
C824 C825 1.387 . S
C824 N827 1.341 1_554 S
C825 C823 1.400 . S
C825 C824 1.387 . S
N826 Co817 2.022 . S
N826 C823 1.351 1_556 S
N826 N827 1.365 . S
N827 C824 1.341 1_556 S
N827 N826 1.365 . S
N827 H847 0.862 . S
C828 C823 1.501 . S
C828 H829 0.961 1_554 S
C828 H830 0.961 . S
C828 H831 0.960 . S
H829 C828 0.961 1_556 S
H830 C828 0.961 . S
H831 C828 0.960 . S
C832 N833 1.342 . S
C832 C836 1.401 . S
C832 C837 1.499 . S
N833 Co816 1.989 . S
N833 C832 1.342 . S
N833 N834 1.388 . S
N834 Co817 1.993 . S
N834 N833 1.388 . S
N834 C835 1.346 . S
C835 N834 1.346 . S
C835 C836 1.396 . S
C835 C845 1.510 . S
C836 C832 1.401 . S
C836 C835 1.396 . S
C837 C832 1.499 . S
C837 H838 0.959 . S
C837 H839 0.960 . S
C837 H840 0.961 . S
H838 C837 0.959 . S
H839 C837 0.960 . S
H840 C837 0.961 . S
O841 Co816 1.967 . S
O841 C849 1.258 . S
O842 Co817 1.941 . S
O842 C849 1.266 . S
H843 C845 0.959 . S
H844 C845 0.961 1_554 S
C845 C835 1.510 . S
C845 H843 0.959 . S
C845 H844 0.961 1_556 S
C845 H846 0.960 . S
H846 C845 0.960 . S
H847 N827 0.862 . S
O848 Co816 1.920 . S
O848 C821 1.289 . S
C849 O841 1.258 . S
C849 O842 1.266 . S
Co850 O853 1.970 . S
Co850 N867 1.989 . S
Co850 O875 1.967 . S
Co850 O882 1.920 . S
Co851 O854 1.966 . S
Co851 N860 2.022 . S
Co851 N868 1.993 . S
Co851 O876 1.941 . S
C852 O853 1.258 . S
C852 O854 1.263 . S
O853 Co850 1.970 . S
O853 C852 1.258 . S
O854 Co851 1.966 . S
O854 C852 1.263 . S
C855 O856 1.235 . S
C855 O882 1.289 . S
O856 C855 1.235 . S
C857 C859 1.400 . S
C857 N860 1.351 1_554 S
C857 C862 1.501 . S
C858 C859 1.387 . S
C858 N861 1.341 1_554 S
C859 C857 1.400 . S
C859 C858 1.387 . S
N860 Co851 2.022 . S
N860 C857 1.351 1_556 S
N860 N861 1.365 . S
N861 C858 1.341 1_556 S
N861 N860 1.365 . S
N861 H881 0.862 . S
C862 C857 1.501 . S
C862 H863 0.961 1_554 S
C862 H864 0.961 . S
C862 H865 0.960 . S
H863 C862 0.961 1_556 S
H864 C862 0.961 . S
H865 C862 0.960 . S
C866 N867 1.342 . S
C866 C870 1.401 . S
C866 C871 1.499 . S
N867 Co850 1.989 . S
N867 C866 1.342 . S
N867 N868 1.388 . S
N868 Co851 1.993 . S
N868 N867 1.388 . S
N868 C869 1.346 . S
C869 N868 1.346 . S
C869 C870 1.396 . S
C869 C879 1.510 . S
C870 C866 1.401 . S
C870 C869 1.396 . S
C871 C866 1.499 . S
C871 H872 0.959 . S
C871 H873 0.960 . S
C871 H874 0.961 . S
H872 C871 0.959 . S
H873 C871 0.960 . S
H874 C871 0.961 . S
O875 Co850 1.967 . S
O875 C883 1.258 . S
O876 Co851 1.941 . S
O876 C883 1.266 . S
H877 C879 0.959 . S
H878 C879 0.961 1_554 S
C879 C869 1.510 . S
C879 H877 0.959 . S
C879 H878 0.961 1_556 S
C879 H880 0.960 . S
H880 C879 0.960 . S
H881 N861 0.862 . S
O882 Co850 1.920 . S
O882 C855 1.289 . S
C883 O875 1.258 . S
C883 O876 1.266 . S
Co884 O887 1.970 . S
Co884 N901 1.989 . S
Co884 O909 1.967 . S
Co884 O916 1.920 . S
Co885 O888 1.966 . S
Co885 N894 2.022 . S
Co885 N902 1.993 . S
Co885 O910 1.941 . S
C886 O887 1.258 . S
C886 O888 1.263 . S
O887 Co884 1.970 . S
O887 C886 1.258 . S
O888 Co885 1.966 . S
O888 C886 1.263 . S
C889 O890 1.235 . S
C889 O916 1.289 . S
O890 C889 1.235 . S
C891 C893 1.400 . S
C891 N894 1.351 1_554 S
C891 C896 1.501 . S
C892 C893 1.387 . S
C892 N895 1.341 1_554 S
C893 C891 1.400 . S
C893 C892 1.387 . S
N894 Co885 2.022 . S
N894 C891 1.351 1_556 S
N894 N895 1.365 . S
N895 C892 1.341 1_556 S
N895 N894 1.365 . S
N895 H915 0.862 . S
C896 C891 1.501 . S
C896 H897 0.961 1_554 S
C896 H898 0.961 . S
C896 H899 0.960 . S
H897 C896 0.961 1_556 S
H898 C896 0.961 . S
H899 C896 0.960 . S
C900 N901 1.342 . S
C900 C904 1.401 . S
C900 C905 1.499 . S
N901 Co884 1.989 . S
N901 C900 1.342 . S
N901 N902 1.388 . S
N902 Co885 1.993 . S
N902 N901 1.388 . S
N902 C903 1.346 . S
C903 N902 1.346 . S
C903 C904 1.396 . S
C903 C913 1.510 . S
C904 C900 1.401 . S
C904 C903 1.396 . S
C905 C900 1.499 . S
C905 H906 0.959 . S
C905 H907 0.960 . S
C905 H908 0.961 . S
H906 C905 0.959 . S
H907 C905 0.960 . S
H908 C905 0.961 . S
O909 Co884 1.967 . S
O909 C917 1.258 . S
O910 Co885 1.941 . S
O910 C917 1.266 . S
H911 C913 0.959 . S
H912 C913 0.961 1_554 S
C913 C903 1.510 . S
C913 H911 0.959 . S
C913 H912 0.961 1_556 S
C913 H914 0.960 . S
H914 C913 0.960 . S
H915 N895 0.862 . S
O916 Co884 1.920 . S
O916 C889 1.289 . S
C917 O909 1.258 . S
C917 O910 1.266 . S
Co918 O921 1.970 . S
Co918 N935 1.989 . S
Co918 O943 1.967 . S
Co918 O950 1.920 . S
Co919 O922 1.966 . S
Co919 N928 2.022 . S
Co919 N936 1.993 . S
Co919 O944 1.941 1_556 S
C920 O921 1.258 1_556 S
C920 O922 1.263 . S
O921 Co918 1.970 . S
O921 C920 1.258 1_554 S
O922 Co919 1.966 . S
O922 C920 1.263 . S
C923 O924 1.235 . S
C923 O950 1.289 . S
O924 C923 1.235 . S
C925 C927 1.400 . S
C925 N928 1.351 . S
C925 C930 1.501 . S
C926 C927 1.387 . S
C926 N929 1.341 . S
C927 C925 1.400 . S
C927 C926 1.387 . S
N928 Co919 2.022 . S
N928 C925 1.351 . S
N928 N929 1.365 . S
N929 C926 1.341 . S
N929 N928 1.365 . S
N929 H949 0.862 . S
C930 C925 1.501 . S
C930 H931 0.961 . S
C930 H932 0.961 . S
C930 H933 0.960 . S
H931 C930 0.961 . S
H932 C930 0.961 . S
H933 C930 0.960 . S
C934 N935 1.342 . S
C934 C938 1.401 1_554 S
C934 C939 1.499 . S
N935 Co918 1.989 . S
N935 C934 1.342 . S
N935 N936 1.388 1_554 S
N936 Co919 1.993 . S
N936 N935 1.388 1_556 S
N936 C937 1.346 . S
C937 N936 1.346 . S
C937 C938 1.396 . S
C937 C947 1.510 . S
C938 C934 1.401 1_556 S
C938 C937 1.396 . S
C939 C934 1.499 . S
C939 H940 0.959 . S
C939 H941 0.960 . S
C939 H942 0.961 . S
H940 C939 0.959 . S
H941 C939 0.960 . S
H942 C939 0.961 . S
O943 Co918 1.967 . S
O943 C951 1.258 . S
O944 Co919 1.941 1_554 S
O944 C951 1.266 . S
H945 C947 0.959 . S
H946 C947 0.961 . S
C947 C937 1.510 . S
C947 H945 0.959 . S
C947 H946 0.961 . S
C947 H948 0.960 . S
H948 C947 0.960 . S
H949 N929 0.862 . S
O950 Co918 1.920 . S
O950 C923 1.289 . S
C951 O943 1.258 . S
C951 O944 1.266 . S
Co952 O955 1.970 . S
Co952 N969 1.989 . S
Co952 O977 1.967 . S
Co952 O984 1.920 . S
Co953 O956 1.966 . S
Co953 N962 2.022 . S
Co953 N970 1.993 . S
Co953 O978 1.941 1_556 S
C954 O955 1.258 1_556 S
C954 O956 1.263 . S
O955 Co952 1.970 . S
O955 C954 1.258 1_554 S
O956 Co953 1.966 . S
O956 C954 1.263 . S
C957 O958 1.235 . S
C957 O984 1.289 . S
O958 C957 1.235 . S
C959 C961 1.400 . S
C959 N962 1.351 . S
C959 C964 1.501 . S
C960 C961 1.387 . S
C960 N963 1.341 . S
C961 C959 1.400 . S
C961 C960 1.387 . S
N962 Co953 2.022 . S
N962 C959 1.351 . S
N962 N963 1.365 . S
N963 C960 1.341 . S
N963 N962 1.365 . S
N963 H983 0.862 . S
C964 C959 1.501 . S
C964 H965 0.961 . S
C964 H966 0.961 . S
C964 H967 0.960 . S
H965 C964 0.961 . S
H966 C964 0.961 . S
H967 C964 0.960 . S
C968 N969 1.342 . S
C968 C972 1.401 1_554 S
C968 C973 1.499 . S
N969 Co952 1.989 . S
N969 C968 1.342 . S
N969 N970 1.388 1_554 S
N970 Co953 1.993 . S
N970 N969 1.388 1_556 S
N970 C971 1.346 . S
C971 N970 1.346 . S
C971 C972 1.396 . S
C971 C981 1.510 . S
C972 C968 1.401 1_556 S
C972 C971 1.396 . S
C973 C968 1.499 . S
C973 H974 0.959 . S
C973 H975 0.960 . S
C973 H976 0.961 . S
H974 C973 0.959 . S
H975 C973 0.960 . S
H976 C973 0.961 . S
O977 Co952 1.967 . S
O977 C985 1.258 . S
O978 Co953 1.941 1_554 S
O978 C985 1.266 . S
H979 C981 0.959 . S
H980 C981 0.961 . S
C981 C971 1.510 . S
C981 H979 0.959 . S
C981 H980 0.961 . S
C981 H982 0.960 . S
H982 C981 0.960 . S
H983 N963 0.862 . S
O984 Co952 1.920 . S
O984 C957 1.289 . S
C985 O977 1.258 . S
C985 O978 1.266 . S
Co986 O989 1.970 . S
Co986 N1003 1.989 . S
Co986 O1011 1.967 . S
Co986 O1018 1.920 . S
Co987 O990 1.966 . S
Co987 N996 2.022 . S
Co987 N1004 1.993 . S
Co987 O1012 1.941 1_556 S
C988 O989 1.258 1_556 S
C988 O990 1.263 . S
O989 Co986 1.970 . S
O989 C988 1.258 1_554 S
O990 Co987 1.966 . S
O990 C988 1.263 . S
C991 O992 1.235 . S
C991 O1018 1.289 . S
O992 C991 1.235 . S
C993 C995 1.400 . S
C993 N996 1.351 . S
C993 C998 1.501 . S
C994 C995 1.387 . S
C994 N997 1.341 . S
C995 C993 1.400 . S
C995 C994 1.387 . S
N996 Co987 2.022 . S
N996 C993 1.351 . S
N996 N997 1.365 . S
N997 C994 1.341 . S
N997 N996 1.365 . S
N997 H1017 0.862 . S
C998 C993 1.501 . S
C998 H999 0.961 . S
C998 H1000 0.961 . S
C998 H1001 0.960 . S
H999 C998 0.961 . S
H1000 C998 0.961 . S
H1001 C998 0.960 . S
C1002 N1003 1.342 . S
C1002 C1006 1.401 1_554 S
C1002 C1007 1.499 . S
N1003 Co986 1.989 . S
N1003 C1002 1.342 . S
N1003 N1004 1.388 1_554 S
N1004 Co987 1.993 . S
N1004 N1003 1.388 1_556 S
N1004 C1005 1.346 . S
C1005 N1004 1.346 . S
C1005 C1006 1.396 . S
C1005 C1015 1.510 . S
C1006 C1002 1.401 1_556 S
C1006 C1005 1.396 . S
C1007 C1002 1.499 . S
C1007 H1008 0.959 . S
C1007 H1009 0.960 . S
C1007 H1010 0.961 . S
H1008 C1007 0.959 . S
H1009 C1007 0.960 . S
H1010 C1007 0.961 . S
O1011 Co986 1.967 . S
O1011 C1019 1.258 . S
O1012 Co987 1.941 1_554 S
O1012 C1019 1.266 . S
H1013 C1015 0.959 . S
H1014 C1015 0.961 . S
C1015 C1005 1.510 . S
C1015 H1013 0.959 . S
C1015 H1014 0.961 . S
C1015 H1016 0.960 . S
H1016 C1015 0.960 . S
H1017 N997 0.862 . S
O1018 Co986 1.920 . S
O1018 C991 1.289 . S
C1019 O1011 1.258 . S
C1019 O1012 1.266 . S
Co1020 O1023 1.970 . S
Co1020 N1037 1.989 . S
Co1020 O1045 1.967 . S
Co1020 O1052 1.920 . S
Co1021 O1024 1.966 . S
Co1021 N1030 2.022 . S
Co1021 N1038 1.993 . S
Co1021 O1046 1.941 . S
C1022 O1023 1.258 . S
C1022 O1024 1.263 . S
O1023 Co1020 1.970 . S
O1023 C1022 1.258 . S
O1024 Co1021 1.966 . S
O1024 C1022 1.263 . S
C1025 O1026 1.235 . S
C1025 O1052 1.289 . S
O1026 C1025 1.235 . S
C1027 C1029 1.400 . S
C1027 N1030 1.351 . S
C1027 C1032 1.501 . S
C1028 C1029 1.387 . S
C1028 N1031 1.341 . S
C1029 C1027 1.400 . S
C1029 C1028 1.387 . S
N1030 Co1021 2.022 . S
N1030 C1027 1.351 . S
N1030 N1031 1.365 . S
N1031 C1028 1.341 . S
N1031 N1030 1.365 . S
N1031 H1051 0.862 . S
C1032 C1027 1.501 . S
C1032 H1033 0.961 . S
C1032 H1034 0.961 . S
C1032 H1035 0.960 . S
H1033 C1032 0.961 . S
H1034 C1032 0.961 . S
H1035 C1032 0.960 . S
C1036 N1037 1.342 . S
C1036 C1040 1.401 . S
C1036 C1041 1.499 . S
N1037 Co1020 1.989 . S
N1037 C1036 1.342 . S
N1037 N1038 1.388 . S
N1038 Co1021 1.993 . S
N1038 N1037 1.388 . S
N1038 C1039 1.346 . S
C1039 N1038 1.346 . S
C1039 C1040 1.396 . S
C1039 C1049 1.510 . S
C1040 C1036 1.401 . S
C1040 C1039 1.396 . S
C1041 C1036 1.499 . S
C1041 H1042 0.959 . S
C1041 H1043 0.960 . S
C1041 H1044 0.961 . S
H1042 C1041 0.959 . S
H1043 C1041 0.960 . S
H1044 C1041 0.961 . S
O1045 Co1020 1.967 . S
O1045 C1053 1.258 . S
O1046 Co1021 1.941 . S
O1046 C1053 1.266 . S
H1047 C1049 0.959 . S
H1048 C1049 0.961 . S
C1049 C1039 1.510 . S
C1049 H1047 0.959 . S
C1049 H1048 0.961 . S
C1049 H1050 0.960 . S
H1050 C1049 0.960 . S
H1051 N1031 0.862 . S
O1052 Co1020 1.920 . S
O1052 C1025 1.289 . S
C1053 O1045 1.258 . S
C1053 O1046 1.266 . S
Co1054 O1057 1.970 . S
Co1054 N1071 1.989 . S
Co1054 O1079 1.967 . S
Co1054 O1086 1.920 . S
Co1055 O1058 1.966 . S
Co1055 N1064 2.022 . S
Co1055 N1072 1.993 . S
Co1055 O1080 1.941 . S
C1056 O1057 1.258 . S
C1056 O1058 1.263 . S
O1057 Co1054 1.970 . S
O1057 C1056 1.258 . S
O1058 Co1055 1.966 . S
O1058 C1056 1.263 . S
C1059 O1060 1.235 . S
C1059 O1086 1.289 . S
O1060 C1059 1.235 . S
C1061 C1063 1.400 . S
C1061 N1064 1.351 . S
C1061 C1066 1.501 . S
C1062 C1063 1.387 . S
C1062 N1065 1.341 . S
C1063 C1061 1.400 . S
C1063 C1062 1.387 . S
N1064 Co1055 2.022 . S
N1064 C1061 1.351 . S
N1064 N1065 1.365 . S
N1065 C1062 1.341 . S
N1065 N1064 1.365 . S
N1065 H1085 0.862 . S
C1066 C1061 1.501 . S
C1066 H1067 0.961 . S
C1066 H1068 0.961 . S
C1066 H1069 0.960 . S
H1067 C1066 0.961 . S
H1068 C1066 0.961 . S
H1069 C1066 0.960 . S
C1070 N1071 1.342 . S
C1070 C1074 1.401 . S
C1070 C1075 1.499 . S
N1071 Co1054 1.989 . S
N1071 C1070 1.342 . S
N1071 N1072 1.388 . S
N1072 Co1055 1.993 . S
N1072 N1071 1.388 . S
N1072 C1073 1.346 . S
C1073 N1072 1.346 . S
C1073 C1074 1.396 . S
C1073 C1083 1.510 . S
C1074 C1070 1.401 . S
C1074 C1073 1.396 . S
C1075 C1070 1.499 . S
C1075 H1076 0.959 . S
C1075 H1077 0.960 . S
C1075 H1078 0.961 . S
H1076 C1075 0.959 . S
H1077 C1075 0.960 . S
H1078 C1075 0.961 . S
O1079 Co1054 1.967 . S
O1079 C1087 1.258 . S
O1080 Co1055 1.941 . S
O1080 C1087 1.266 . S
H1081 C1083 0.959 . S
H1082 C1083 0.961 . S
C1083 C1073 1.510 . S
C1083 H1081 0.959 . S
C1083 H1082 0.961 . S
C1083 H1084 0.960 . S
H1084 C1083 0.960 . S
H1085 N1065 0.862 . S
O1086 Co1054 1.920 . S
O1086 C1059 1.289 . S
C1087 O1079 1.258 . S
C1087 O1080 1.266 . S
Co1088 O1091 1.970 . S
Co1088 N1105 1.989 . S
Co1088 O1113 1.967 . S
Co1088 O1120 1.920 . S
Co1089 O1092 1.966 . S
Co1089 N1098 2.022 . S
Co1089 N1106 1.993 . S
Co1089 O1114 1.941 . S
C1090 O1091 1.258 . S
C1090 O1092 1.263 . S
O1091 Co1088 1.970 . S
O1091 C1090 1.258 . S
O1092 Co1089 1.966 . S
O1092 C1090 1.263 . S
C1093 O1094 1.235 . S
C1093 O1120 1.289 . S
O1094 C1093 1.235 . S
C1095 C1097 1.400 . S
C1095 N1098 1.351 . S
C1095 C1100 1.501 . S
C1096 C1097 1.387 . S
C1096 N1099 1.341 . S
C1097 C1095 1.400 . S
C1097 C1096 1.387 . S
N1098 Co1089 2.022 . S
N1098 C1095 1.351 . S
N1098 N1099 1.365 . S
N1099 C1096 1.341 . S
N1099 N1098 1.365 . S
N1099 H1119 0.862 . S
C1100 C1095 1.501 . S
C1100 H1101 0.961 . S
C1100 H1102 0.961 . S
C1100 H1103 0.960 . S
H1101 C1100 0.961 . S
H1102 C1100 0.961 . S
H1103 C1100 0.960 . S
C1104 N1105 1.342 . S
C1104 C1108 1.401 . S
C1104 C1109 1.499 . S
N1105 Co1088 1.989 . S
N1105 C1104 1.342 . S
N1105 N1106 1.388 . S
N1106 Co1089 1.993 . S
N1106 N1105 1.388 . S
N1106 C1107 1.346 . S
C1107 N1106 1.346 . S
C1107 C1108 1.396 . S
C1107 C1117 1.510 . S
C1108 C1104 1.401 . S
C1108 C1107 1.396 . S
C1109 C1104 1.499 . S
C1109 H1110 0.959 . S
C1109 H1111 0.960 . S
C1109 H1112 0.961 . S
H1110 C1109 0.959 . S
H1111 C1109 0.960 . S
H1112 C1109 0.961 . S
O1113 Co1088 1.967 . S
O1113 C1121 1.258 . S
O1114 Co1089 1.941 . S
O1114 C1121 1.266 . S
H1115 C1117 0.959 . S
H1116 C1117 0.961 . S
C1117 C1107 1.510 . S
C1117 H1115 0.959 . S
C1117 H1116 0.961 . S
C1117 H1118 0.960 . S
H1118 C1117 0.960 . S
H1119 N1099 0.862 . S
O1120 Co1088 1.920 . S
O1120 C1093 1.289 . S
C1121 O1113 1.258 . S
C1121 O1114 1.266 . S
Co1122 O1125 1.970 . S
Co1122 N1139 1.989 . S
Co1122 O1147 1.967 . S
Co1122 O1154 1.920 . S
Co1123 O1126 1.966 . S
Co1123 N1132 2.022 . S
Co1123 N1140 1.993 . S
Co1123 O1148 1.941 . S
C1124 O1125 1.258 . S
C1124 O1126 1.263 . S
O1125 Co1122 1.970 . S
O1125 C1124 1.258 . S
O1126 Co1123 1.966 . S
O1126 C1124 1.263 . S
C1127 O1128 1.235 . S
C1127 O1154 1.289 . S
O1128 C1127 1.235 . S
C1129 C1131 1.400 . S
C1129 N1132 1.351 . S
C1129 C1134 1.501 . S
C1130 C1131 1.387 . S
C1130 N1133 1.341 . S
C1131 C1129 1.400 . S
C1131 C1130 1.387 . S
N1132 Co1123 2.022 . S
N1132 C1129 1.351 . S
N1132 N1133 1.365 . S
N1133 C1130 1.341 . S
N1133 N1132 1.365 . S
N1133 H1153 0.862 . S
C1134 C1129 1.501 . S
C1134 H1135 0.961 . S
C1134 H1136 0.961 . S
C1134 H1137 0.960 . S
H1135 C1134 0.961 . S
H1136 C1134 0.961 . S
H1137 C1134 0.960 . S
C1138 N1139 1.342 . S
C1138 C1142 1.401 . S
C1138 C1143 1.499 . S
N1139 Co1122 1.989 . S
N1139 C1138 1.342 . S
N1139 N1140 1.388 . S
N1140 Co1123 1.993 . S
N1140 N1139 1.388 . S
N1140 C1141 1.346 . S
C1141 N1140 1.346 . S
C1141 C1142 1.396 . S
C1141 C1151 1.510 . S
C1142 C1138 1.401 . S
C1142 C1141 1.396 . S
C1143 C1138 1.499 . S
C1143 H1144 0.959 . S
C1143 H1145 0.960 . S
C1143 H1146 0.961 . S
H1144 C1143 0.959 . S
H1145 C1143 0.960 . S
H1146 C1143 0.961 . S
O1147 Co1122 1.967 . S
O1147 C1155 1.258 . S
O1148 Co1123 1.941 . S
O1148 C1155 1.266 . S
H1149 C1151 0.959 . S
H1150 C1151 0.961 . S
C1151 C1141 1.510 . S
C1151 H1149 0.959 . S
C1151 H1150 0.961 . S
C1151 H1152 0.960 . S
H1152 C1151 0.960 . S
H1153 N1133 0.862 . S
O1154 Co1122 1.920 . S
O1154 C1127 1.289 . S
C1155 O1147 1.258 . S
C1155 O1148 1.266 . S
Co1156 O1159 1.970 . S
Co1156 N1173 1.989 . S
Co1156 O1181 1.967 . S
Co1156 O1188 1.920 . S
Co1157 O1160 1.966 . S
Co1157 N1166 2.022 . S
Co1157 N1174 1.993 . S
Co1157 O1182 1.941 . S
C1158 O1159 1.258 . S
C1158 O1160 1.263 . S
O1159 Co1156 1.970 . S
O1159 C1158 1.258 . S
O1160 Co1157 1.966 . S
O1160 C1158 1.263 . S
C1161 O1162 1.235 . S
C1161 O1188 1.289 . S
O1162 C1161 1.235 . S
C1163 C1165 1.400 . S
C1163 N1166 1.351 . S
C1163 C1168 1.501 . S
C1164 C1165 1.387 . S
C1164 N1167 1.341 . S
C1165 C1163 1.400 . S
C1165 C1164 1.387 . S
N1166 Co1157 2.022 . S
N1166 C1163 1.351 . S
N1166 N1167 1.365 . S
N1167 C1164 1.341 . S
N1167 N1166 1.365 . S
N1167 H1187 0.862 . S
C1168 C1163 1.501 . S
C1168 H1169 0.961 . S
C1168 H1170 0.961 . S
C1168 H1171 0.960 . S
H1169 C1168 0.961 . S
H1170 C1168 0.961 . S
H1171 C1168 0.960 . S
C1172 N1173 1.342 . S
C1172 C1176 1.401 . S
C1172 C1177 1.499 . S
N1173 Co1156 1.989 . S
N1173 C1172 1.342 . S
N1173 N1174 1.388 . S
N1174 Co1157 1.993 . S
N1174 N1173 1.388 . S
N1174 C1175 1.346 . S
C1175 N1174 1.346 . S
C1175 C1176 1.396 . S
C1175 C1185 1.510 . S
C1176 C1172 1.401 . S
C1176 C1175 1.396 . S
C1177 C1172 1.499 . S
C1177 H1178 0.959 . S
C1177 H1179 0.960 . S
C1177 H1180 0.961 . S
H1178 C1177 0.959 . S
H1179 C1177 0.960 . S
H1180 C1177 0.961 . S
O1181 Co1156 1.967 . S
O1181 C1189 1.258 . S
O1182 Co1157 1.941 . S
O1182 C1189 1.266 . S
H1183 C1185 0.959 . S
H1184 C1185 0.961 . S
C1185 C1175 1.510 . S
C1185 H1183 0.959 . S
C1185 H1184 0.961 . S
C1185 H1186 0.960 . S
H1186 C1185 0.960 . S
H1187 N1167 0.862 . S
O1188 Co1156 1.920 . S
O1188 C1161 1.289 . S
C1189 O1181 1.258 . S
C1189 O1182 1.266 . S
Co1190 O1193 1.970 . S
Co1190 N1207 1.989 . S
Co1190 O1215 1.967 . S
Co1190 O1222 1.920 . S
Co1191 O1194 1.966 . S
Co1191 N1200 2.022 . S
Co1191 N1208 1.993 . S
Co1191 O1216 1.941 . S
C1192 O1193 1.258 . S
C1192 O1194 1.263 . S
O1193 Co1190 1.970 . S
O1193 C1192 1.258 . S
O1194 Co1191 1.966 . S
O1194 C1192 1.263 . S
C1195 O1196 1.235 . S
C1195 O1222 1.289 . S
O1196 C1195 1.235 . S
C1197 C1199 1.400 . S
C1197 N1200 1.351 . S
C1197 C1202 1.501 . S
C1198 C1199 1.387 . S
C1198 N1201 1.341 . S
C1199 C1197 1.400 . S
C1199 C1198 1.387 . S
N1200 Co1191 2.022 . S
N1200 C1197 1.351 . S
N1200 N1201 1.365 . S
N1201 C1198 1.341 . S
N1201 N1200 1.365 . S
N1201 H1221 0.862 . S
C1202 C1197 1.501 . S
C1202 H1203 0.961 . S
C1202 H1204 0.961 . S
C1202 H1205 0.960 . S
H1203 C1202 0.961 . S
H1204 C1202 0.961 . S
H1205 C1202 0.960 . S
C1206 N1207 1.342 . S
C1206 C1210 1.401 . S
C1206 C1211 1.499 . S
N1207 Co1190 1.989 . S
N1207 C1206 1.342 . S
N1207 N1208 1.388 . S
N1208 Co1191 1.993 . S
N1208 N1207 1.388 . S
N1208 C1209 1.346 . S
C1209 N1208 1.346 . S
C1209 C1210 1.396 . S
C1209 C1219 1.510 . S
C1210 C1206 1.401 . S
C1210 C1209 1.396 . S
C1211 C1206 1.499 . S
C1211 H1212 0.959 . S
C1211 H1213 0.960 . S
C1211 H1214 0.961 . S
H1212 C1211 0.959 . S
H1213 C1211 0.960 . S
H1214 C1211 0.961 . S
O1215 Co1190 1.967 . S
O1215 C1223 1.258 . S
O1216 Co1191 1.941 . S
O1216 C1223 1.266 . S
H1217 C1219 0.959 . S
H1218 C1219 0.961 . S
C1219 C1209 1.510 . S
C1219 H1217 0.959 . S
C1219 H1218 0.961 . S
C1219 H1220 0.960 . S
H1220 C1219 0.960 . S
H1221 N1201 0.862 . S
O1222 Co1190 1.920 . S
O1222 C1195 1.289 . S
C1223 O1215 1.258 . S
C1223 O1216 1.266 . S
C1224 C1225 1.369 . S
C1224 C1226 1.419 . S
C1224 H1228 0.930 . S
C1225 C1224 1.369 . S
C1225 C1234 1.429 . S
C1226 C1224 1.419 . S
C1226 C1227 1.363 . S
C1226 H1229 0.929 . S
C1227 C1226 1.363 . S
C1227 C1233 1.428 . S
H1228 C1224 0.930 . S
H1229 C1226 0.929 . S
S1230 N1231 1.613 . S
S1230 N1232 1.616 . S
N1231 S1230 1.613 . S
N1231 C1234 1.350 . S
N1232 S1230 1.616 . S
N1232 C1233 1.359 . S
C1233 C1227 1.428 . S
C1233 N1232 1.359 . S
C1233 C1234 1.434 . S
C1234 C1225 1.429 . S
C1234 N1231 1.350 . S
C1234 C1233 1.434 . S
C1235 C1236 1.369 . S
C1235 C1237 1.419 . S
C1235 H1239 0.930 . S
C1236 C1235 1.369 . S
C1236 C1245 1.429 . S
C1237 C1235 1.419 . S
C1237 C1238 1.363 . S
C1237 H1240 0.929 . S
C1238 C1237 1.363 . S
C1238 C1244 1.428 . S
H1239 C1235 0.930 . S
H1240 C1237 0.929 . S
S1241 N1242 1.613 . S
S1241 N1243 1.610 . S
N1242 S1241 1.613 . S
N1242 C1245 1.350 . S
N1243 S1241 1.610 . S
N1243 C1244 1.351 . S
C1244 C1238 1.428 . S
C1244 N1243 1.351 . S
C1244 C1245 1.434 . S
C1245 C1236 1.429 . S
C1245 N1242 1.350 . S
C1245 C1244 1.434 . S
C1246 C1247 1.369 . S
C1246 C1248 1.419 . S
C1246 H1250 0.930 . S
C1247 C1246 1.369 . S
C1247 C1256 1.429 . S
C1248 C1246 1.419 . S
C1248 C1249 1.363 . S
C1248 H1251 0.929 . S
C1249 C1248 1.363 . S
C1249 C1255 1.428 . S
H1250 C1246 0.930 . S
H1251 C1248 0.929 . S
S1252 N1253 1.613 . S
S1252 N1254 1.610 . S
N1253 S1252 1.613 . S
N1253 C1256 1.350 . S
N1254 S1252 1.610 . S
N1254 C1255 1.351 . S
C1255 C1249 1.428 . S
C1255 N1254 1.351 . S
C1255 C1256 1.434 . S
C1256 C1247 1.429 . S
C1256 N1253 1.350 . S
C1256 C1255 1.434 . S
C1257 C1258 1.369 . S
C1257 C1259 1.419 . S
C1257 H1261 0.930 . S
C1258 C1257 1.369 . S
C1258 C1267 1.429 . S
C1259 C1257 1.419 . S
C1259 C1260 1.363 . S
C1259 H1262 0.929 . S
C1260 C1259 1.363 . S
C1260 C1266 1.428 . S
H1261 C1257 0.930 . S
H1262 C1259 0.929 . S
S1263 N1264 1.613 . S
S1263 N1265 1.610 . S
N1264 S1263 1.613 . S
N1264 C1267 1.350 . S
N1265 S1263 1.610 . S
N1265 C1266 1.351 . S
C1266 C1260 1.428 . S
C1266 N1265 1.351 . S
C1266 C1267 1.434 . S
C1267 C1258 1.429 . S
C1267 N1264 1.350 . S
C1267 C1266 1.434 . S
C1268 C1269 1.369 . S
C1268 C1270 1.419 . S
C1268 H1272 0.930 . S
C1269 C1268 1.369 . S
C1269 C1278 1.429 . S
C1270 C1268 1.419 . S
C1270 C1271 1.363 . S
C1270 H1273 0.929 . S
C1271 C1270 1.363 . S
C1271 C1277 1.428 . S
H1272 C1268 0.930 . S
H1273 C1270 0.929 . S
S1274 N1275 1.613 . S
S1274 N1276 1.610 . S
N1275 S1274 1.613 . S
N1275 C1278 1.350 . S
N1276 S1274 1.610 . S
N1276 C1277 1.351 . S
C1277 C1271 1.428 . S
C1277 N1276 1.351 . S
C1277 C1278 1.434 . S
C1278 C1269 1.429 . S
C1278 N1275 1.350 . S
C1278 C1277 1.434 . S
C1279 C1280 1.369 . S
C1279 C1281 1.419 . S
C1279 H1283 0.930 . S
C1280 C1279 1.369 . S
C1280 C1289 1.429 . S
C1281 C1279 1.419 . S
C1281 C1282 1.363 . S
C1281 H1284 0.929 . S
C1282 C1281 1.363 . S
C1282 C1288 1.428 . S
H1283 C1279 0.930 . S
H1284 C1281 0.929 . S
S1285 N1286 1.613 . S
S1285 N1287 1.610 . S
N1286 S1285 1.613 . S
N1286 C1289 1.350 . S
N1287 S1285 1.610 . S
N1287 C1288 1.351 . S
C1288 C1282 1.428 . S
C1288 N1287 1.351 . S
C1288 C1289 1.434 . S
C1289 C1280 1.429 . S
C1289 N1286 1.350 . S
C1289 C1288 1.434 . S
C1290 C1291 1.369 . S
C1290 C1292 1.419 . S
C1290 H1294 0.930 . S
C1291 C1290 1.369 . S
C1291 C1300 1.429 . S
C1292 C1290 1.419 . S
C1292 C1293 1.363 . S
C1292 H1295 0.929 . S
C1293 C1292 1.363 . S
C1293 C1299 1.428 . S
H1294 C1290 0.930 . S
H1295 C1292 0.929 . S
S1296 N1297 1.613 . S
S1296 N1298 1.610 . S
N1297 S1296 1.613 . S
N1297 C1300 1.350 . S
N1298 S1296 1.610 . S
N1298 C1299 1.351 . S
C1299 C1293 1.428 . S
C1299 N1298 1.351 . S
C1299 C1300 1.434 . S
C1300 C1291 1.429 . S
C1300 N1297 1.350 . S
C1300 C1299 1.434 . S
C1301 C1302 1.369 . S
C1301 C1303 1.419 . S
C1301 H1305 0.930 . S
C1302 C1301 1.369 . S
C1302 C1311 1.429 . S
C1303 C1301 1.419 . S
C1303 C1304 1.363 . S
C1303 H1306 0.929 . S
C1304 C1303 1.363 . S
C1304 C1310 1.428 . S
H1305 C1301 0.930 . S
H1306 C1303 0.929 . S
S1307 N1308 1.613 . S
S1307 N1309 1.610 . S
N1308 S1307 1.613 . S
N1308 C1311 1.350 . S
N1309 S1307 1.610 . S
N1309 C1310 1.351 . S
C1310 C1304 1.428 . S
C1310 N1309 1.351 . S
C1310 C1311 1.434 . S
C1311 C1302 1.429 . S
C1311 N1308 1.350 . S
C1311 C1310 1.434 . S
C1312 C1313 1.369 . S
C1312 C1314 1.419 . S
C1312 H1316 0.930 . S
C1313 C1312 1.369 . S
C1313 C1322 1.429 . S
C1314 C1312 1.419 . S
C1314 C1315 1.363 . S
C1314 H1317 0.929 . S
C1315 C1314 1.363 . S
C1315 C1321 1.428 . S
H1316 C1312 0.930 . S
H1317 C1314 0.929 . S
S1318 N1319 1.613 . S
S1318 N1320 1.610 . S
N1319 S1318 1.613 . S
N1319 C1322 1.350 . S
N1320 S1318 1.610 . S
N1320 C1321 1.351 . S
C1321 C1315 1.428 . S
C1321 N1320 1.351 . S
C1321 C1322 1.434 . S
C1322 C1313 1.429 . S
C1322 N1319 1.350 . S
C1322 C1321 1.434 . S
C1323 C1324 1.369 . S
C1323 C1325 1.419 . S
C1323 H1327 0.930 . S
C1324 C1323 1.369 . S
C1324 C1333 1.429 . S
C1325 C1323 1.419 . S
C1325 C1326 1.363 . S
C1325 H1328 0.929 . S
C1326 C1325 1.363 . S
C1326 C1332 1.428 . S
H1327 C1323 0.930 . S
H1328 C1325 0.929 . S
S1329 N1330 1.613 . S
S1329 N1331 1.610 . S
N1330 S1329 1.613 . S
N1330 C1333 1.350 . S
N1331 S1329 1.610 . S
N1331 C1332 1.351 . S
C1332 C1326 1.428 . S
C1332 N1331 1.351 . S
C1332 C1333 1.434 . S
C1333 C1324 1.429 . S
C1333 N1330 1.350 . S
C1333 C1332 1.434 . S
C1334 C1335 1.369 . S
C1334 C1336 1.419 . S
C1334 H1338 0.930 . S
C1335 C1334 1.369 . S
C1335 C1344 1.429 . S
C1336 C1334 1.419 . S
C1336 C1337 1.363 . S
C1336 H1339 0.929 . S
C1337 C1336 1.363 . S
C1337 C1343 1.428 . S
H1338 C1334 0.930 . S
H1339 C1336 0.929 . S
S1340 N1341 1.613 . S
S1340 N1342 1.610 . S
N1341 S1340 1.613 . S
N1341 C1344 1.350 . S
N1342 S1340 1.610 . S
N1342 C1343 1.351 . S
C1343 C1337 1.428 . S
C1343 N1342 1.351 . S
C1343 C1344 1.434 . S
C1344 C1335 1.429 . S
C1344 N1341 1.350 . S
C1344 C1343 1.434 . S
C1345 C1346 1.369 . S
C1345 C1347 1.419 . S
C1345 H1349 0.930 . S
C1346 C1345 1.369 . S
C1346 C1355 1.429 . S
C1347 C1345 1.419 . S
C1347 C1348 1.363 . S
C1347 H1350 0.929 . S
C1348 C1347 1.363 . S
C1348 C1354 1.428 . S
H1349 C1345 0.930 . S
H1350 C1347 0.929 . S
S1351 N1352 1.613 . S
S1351 N1353 1.610 . S
N1352 S1351 1.613 . S
N1352 C1355 1.350 . S
N1353 S1351 1.610 . S
N1353 C1354 1.351 . S
C1354 C1348 1.428 . S
C1354 N1353 1.351 . S
C1354 C1355 1.434 . S
C1355 C1346 1.429 . S
C1355 N1352 1.350 . S
C1355 C1354 1.434 . S
C1356 C1357 1.369 . S
C1356 C1358 1.419 1_455 S
C1356 H1360 0.930 . S
C1357 C1356 1.369 . S
C1357 C1366 1.429 . S
C1358 C1356 1.419 1_655 S
C1358 C1359 1.363 . S
C1358 H1361 0.929 . S
C1359 C1358 1.363 . S
C1359 C1365 1.428 1_655 S
H1360 C1356 0.930 . S
H1361 C1358 0.929 . S
S1362 N1363 1.613 . S
S1362 N1364 1.610 . S
N1363 S1362 1.613 . S
N1363 C1366 1.350 . S
N1364 S1362 1.610 . S
N1364 C1365 1.351 . S
C1365 C1359 1.428 1_455 S
C1365 N1364 1.351 . S
C1365 C1366 1.434 . S
C1366 C1357 1.429 . S
C1366 N1363 1.350 . S
C1366 C1365 1.434 . S
C1367 C1368 1.369 . S
C1367 C1369 1.419 . S
C1367 H1371 0.930 . S
C1368 C1367 1.369 . S
C1368 C1377 1.429 . S
C1369 C1367 1.419 . S
C1369 C1370 1.363 . S
C1369 H1372 0.929 . S
C1370 C1369 1.363 . S
C1370 C1376 1.428 . S
H1371 C1367 0.930 . S
H1372 C1369 0.929 . S
S1373 N1374 1.613 . S
S1373 N1375 1.610 . S
N1374 S1373 1.613 . S
N1374 C1377 1.350 . S
N1375 S1373 1.610 . S
N1375 C1376 1.351 . S
C1376 C1370 1.428 . S
C1376 N1375 1.351 . S
C1376 C1377 1.434 . S
C1377 C1368 1.429 . S
C1377 N1374 1.350 . S
C1377 C1376 1.434 . S
C1378 C1379 1.369 1_565 S
C1378 C1380 1.419 . S
C1378 H1382 0.930 . S
C1379 C1378 1.369 1_545 S
C1379 C1388 1.429 . S
C1380 C1378 1.419 . S
C1380 C1381 1.363 . S
C1380 H1383 0.929 . S
C1381 C1380 1.363 . S
C1381 C1387 1.428 1_565 S
H1382 C1378 0.930 . S
H1383 C1380 0.929 . S
S1384 N1385 1.613 . S
S1384 N1386 1.610 . S
N1385 S1384 1.613 . S
N1385 C1388 1.350 . S
N1386 S1384 1.610 . S
N1386 C1387 1.351 . S
C1387 C1381 1.428 1_545 S
C1387 N1386 1.351 . S
C1387 C1388 1.434 . S
C1388 C1379 1.429 . S
C1388 N1385 1.350 . S
C1388 C1387 1.434 . S
C1389 C1390 1.369 . S
C1389 C1391 1.419 . S
C1389 H1393 0.930 . S
C1390 C1389 1.369 . S
C1390 C1399 1.429 1_565 S
C1391 C1389 1.419 . S
C1391 C1392 1.363 1_565 S
C1391 H1394 0.929 . S
C1392 C1391 1.363 1_545 S
C1392 C1398 1.428 . S
H1393 C1389 0.930 . S
H1394 C1391 0.929 . S
S1395 N1396 1.613 . S
S1395 N1397 1.610 . S
N1396 S1395 1.613 . S
N1396 C1399 1.350 . S
N1397 S1395 1.610 . S
N1397 C1398 1.351 . S
C1398 C1392 1.428 . S
C1398 N1397 1.351 . S
C1398 C1399 1.434 . S
C1399 C1390 1.429 1_545 S
C1399 N1396 1.350 . S
C1399 C1398 1.434 . S
C1400 C1401 1.369 1_455 S
C1400 C1402 1.419 . S
C1400 H1404 0.930 . S
C1401 C1400 1.369 1_655 S
C1401 C1410 1.429 . S
C1402 C1400 1.419 . S
C1402 C1403 1.363 . S
C1402 H1405 0.929 . S
C1403 C1402 1.363 . S
C1403 C1409 1.428 1_455 S
H1404 C1400 0.930 . S
H1405 C1402 0.929 . S
S1406 N1407 1.613 . S
S1406 N1408 1.610 . S
N1407 S1406 1.613 . S
N1407 C1410 1.350 . S
N1408 S1406 1.610 . S
N1408 C1409 1.351 . S
C1409 C1403 1.428 1_655 S
C1409 N1408 1.351 . S
C1409 C1410 1.434 . S
C1410 C1401 1.429 . S
C1410 N1407 1.350 . S
C1410 C1409 1.434 . S
C1411 C1412 1.369 . S
C1411 C1413 1.419 . S
C1411 H1415 0.930 . S
C1412 C1411 1.369 . S
C1412 C1421 1.429 . S
C1413 C1411 1.419 . S
C1413 C1414 1.363 . S
C1413 H1416 0.929 . S
C1414 C1413 1.363 . S
C1414 C1420 1.428 . S
H1415 C1411 0.930 . S
H1416 C1413 0.929 . S
S1417 N1418 1.613 . S
S1417 N1419 1.610 . S
N1418 S1417 1.613 . S
N1418 C1421 1.350 . S
N1419 S1417 1.610 . S
N1419 C1420 1.351 . S
C1420 C1414 1.428 . S
C1420 N1419 1.351 . S
C1420 C1421 1.434 . S
C1421 C1412 1.429 . S
C1421 N1418 1.350 . S
C1421 C1420 1.434 . S
C1422 C1423 1.369 . S
C1422 C1424 1.419 . S
C1422 H1426 0.930 . S
C1423 C1422 1.369 . S
C1423 C1432 1.429 . S
C1424 C1422 1.419 . S
C1424 C1425 1.363 . S
C1424 H1427 0.929 . S
C1425 C1424 1.363 . S
C1425 C1431 1.428 . S
H1426 C1422 0.930 . S
H1427 C1424 0.929 . S
S1428 N1429 1.613 . S
S1428 N1430 1.610 . S
N1429 S1428 1.613 . S
N1429 C1432 1.350 . S
N1430 S1428 1.610 . S
N1430 C1431 1.351 . S
C1431 C1425 1.428 . S
C1431 N1430 1.351 . S
C1431 C1432 1.434 . S
C1432 C1423 1.429 . S
C1432 N1429 1.350 . S
C1432 C1431 1.434 . S
C1433 C1434 1.369 . S
C1433 C1435 1.419 . S
C1433 H1437 0.930 . S
C1434 C1433 1.369 . S
C1434 C1443 1.429 . S
C1435 C1433 1.419 . S
C1435 C1436 1.363 . S
C1435 H1438 0.929 . S
C1436 C1435 1.363 . S
C1436 C1442 1.428 . S
H1437 C1433 0.930 . S
H1438 C1435 0.929 . S
S1439 N1440 1.613 . S
S1439 N1441 1.610 . S
N1440 S1439 1.613 . S
N1440 C1443 1.350 . S
N1441 S1439 1.610 . S
N1441 C1442 1.351 . S
C1442 C1436 1.428 . S
C1442 N1441 1.351 . S
C1442 C1443 1.434 . S
C1443 C1434 1.429 . S
C1443 N1440 1.350 . S
C1443 C1442 1.434 . S
C1444 C1445 1.369 . S
C1444 C1446 1.419 . S
C1444 H1448 0.930 . S
C1445 C1444 1.369 . S
C1445 C1454 1.429 . S
C1446 C1444 1.419 . S
C1446 C1447 1.363 . S
C1446 H1449 0.929 . S
C1447 C1446 1.363 . S
C1447 C1453 1.428 . S
H1448 C1444 0.930 . S
H1449 C1446 0.929 . S
S1450 N1451 1.613 . S
S1450 N1452 1.610 . S
N1451 S1450 1.613 . S
N1451 C1454 1.350 . S
N1452 S1450 1.610 . S
N1452 C1453 1.351 . S
C1453 C1447 1.428 . S
C1453 N1452 1.351 . S
C1453 C1454 1.434 . S
C1454 C1445 1.429 . S
C1454 N1451 1.350 . S
C1454 C1453 1.434 . S
C1455 C1456 1.369 . S
C1455 C1457 1.419 . S
C1455 H1459 0.930 . S
C1456 C1455 1.369 . S
C1456 C1465 1.429 . S
C1457 C1455 1.419 . S
C1457 C1458 1.363 . S
C1457 H1460 0.929 . S
C1458 C1457 1.363 . S
C1458 C1464 1.428 . S
H1459 C1455 0.930 . S
H1460 C1457 0.929 . S
S1461 N1462 1.613 . S
S1461 N1463 1.610 . S
N1462 S1461 1.613 . S
N1462 C1465 1.350 . S
N1463 S1461 1.610 . S
N1463 C1464 1.351 . S
C1464 C1458 1.428 . S
C1464 N1463 1.351 . S
C1464 C1465 1.434 . S
C1465 C1456 1.429 . S
C1465 N1462 1.350 . S
C1465 C1464 1.434 . S
C1466 C1467 1.369 . S
C1466 C1468 1.419 . S
C1466 H1470 0.930 . S
C1467 C1466 1.369 . S
C1467 C1476 1.429 . S
C1468 C1466 1.419 . S
C1468 C1469 1.363 . S
C1468 H1471 0.929 . S
C1469 C1468 1.363 . S
C1469 C1475 1.428 . S
H1470 C1466 0.930 . S
H1471 C1468 0.929 . S
S1472 N1473 1.613 . S
S1472 N1474 1.610 . S
N1473 S1472 1.613 . S
N1473 C1476 1.350 . S
N1474 S1472 1.610 . S
N1474 C1475 1.351 . S
C1475 C1469 1.428 . S
C1475 N1474 1.351 . S
C1475 C1476 1.434 . S
C1476 C1467 1.429 . S
C1476 N1473 1.350 . S
C1476 C1475 1.434 . S
C1477 C1478 1.369 . S
C1477 C1479 1.419 . S
C1477 H1481 0.930 . S
C1478 C1477 1.369 . S
C1478 C1487 1.429 . S
C1479 C1477 1.419 . S
C1479 C1480 1.363 . S
C1479 H1482 0.929 . S
C1480 C1479 1.363 . S
C1480 C1486 1.428 . S
H1481 C1477 0.930 . S
H1482 C1479 0.929 . S
S1483 N1484 1.613 . S
S1483 N1485 1.610 . S
N1484 S1483 1.613 . S
N1484 C1487 1.350 . S
N1485 S1483 1.610 . S
N1485 C1486 1.351 . S
C1486 C1480 1.428 . S
C1486 N1485 1.351 . S
C1486 C1487 1.434 . S
C1487 C1478 1.429 . S
C1487 N1484 1.350 . S
C1487 C1486 1.434 . S
C1488 C1489 1.369 . S
C1488 C1490 1.419 . S
C1488 H1492 0.930 . S
C1489 C1488 1.369 . S
C1489 C1498 1.429 . S
C1490 C1488 1.419 . S
C1490 C1491 1.363 . S
C1490 H1493 0.929 . S
C1491 C1490 1.363 . S
C1491 C1497 1.428 . S
H1492 C1488 0.930 . S
H1493 C1490 0.929 . S
S1494 N1495 1.613 . S
S1494 N1496 1.610 . S
N1495 S1494 1.613 . S
N1495 C1498 1.350 . S
N1496 S1494 1.610 . S
N1496 C1497 1.351 . S
C1497 C1491 1.428 . S
C1497 N1496 1.351 . S
C1497 C1498 1.434 . S
C1498 C1489 1.429 . S
C1498 N1495 1.350 . S
C1498 C1497 1.434 . S
C1499 C1500 1.369 . S
C1499 C1501 1.419 . S
C1499 H1503 0.930 . S
C1500 C1499 1.369 . S
C1500 C1509 1.429 . S
C1501 C1499 1.419 . S
C1501 C1502 1.363 . S
C1501 H1504 0.929 . S
C1502 C1501 1.363 . S
C1502 C1508 1.428 . S
H1503 C1499 0.930 . S
H1504 C1501 0.929 . S
S1505 N1506 1.613 . S
S1505 N1507 1.610 . S
N1506 S1505 1.613 . S
N1506 C1509 1.350 . S
N1507 S1505 1.610 . S
N1507 C1508 1.351 . S
C1508 C1502 1.428 . S
C1508 N1507 1.351 . S
C1508 C1509 1.434 . S
C1509 C1500 1.429 . S
C1509 N1506 1.350 . S
C1509 C1508 1.434 . S
C1510 C1511 1.369 . S
C1510 C1512 1.419 . S
C1510 H1514 0.930 . S
C1511 C1510 1.369 . S
C1511 C1520 1.429 . S
C1512 C1510 1.419 . S
C1512 C1513 1.363 . S
C1512 H1515 0.929 . S
C1513 C1512 1.363 . S
C1513 C1519 1.428 . S
H1514 C1510 0.930 . S
H1515 C1512 0.929 . S
S1516 N1517 1.613 . S
S1516 N1518 1.610 . S
N1517 S1516 1.613 . S
N1517 C1520 1.350 . S
N1518 S1516 1.610 . S
N1518 C1519 1.351 . S
C1519 C1513 1.428 . S
C1519 N1518 1.351 . S
C1519 C1520 1.434 . S
C1520 C1511 1.429 . S
C1520 N1517 1.350 . S
C1520 C1519 1.434 . S
C1521 C1522 1.369 . S
C1521 C1523 1.419 . S
C1521 H1525 0.930 . S
C1522 C1521 1.369 . S
C1522 C1531 1.429 . S
C1523 C1521 1.419 . S
C1523 C1524 1.363 . S
C1523 H1526 0.929 . S
C1524 C1523 1.363 . S
C1524 C1530 1.428 . S
H1525 C1521 0.930 . S
H1526 C1523 0.929 . S
S1527 N1528 1.613 . S
S1527 N1529 1.610 . S
N1528 S1527 1.613 . S
N1528 C1531 1.350 . S
N1529 S1527 1.610 . S
N1529 C1530 1.351 . S
C1530 C1524 1.428 . S
C1530 N1529 1.351 . S
C1530 C1531 1.434 . S
C1531 C1522 1.429 . S
C1531 N1528 1.350 . S
C1531 C1530 1.434 . S
C1532 C1533 1.369 . S
C1532 C1534 1.419 . S
C1532 H1536 0.930 . S
C1533 C1532 1.369 . S
C1533 C1542 1.429 . S
C1534 C1532 1.419 . S
C1534 C1535 1.363 . S
C1534 H1537 0.929 . S
C1535 C1534 1.363 . S
C1535 C1541 1.428 . S
H1536 C1532 0.930 . S
H1537 C1534 0.929 . S
S1538 N1539 1.613 . S
S1538 N1540 1.610 . S
N1539 S1538 1.613 . S
N1539 C1542 1.350 . S
N1540 S1538 1.610 . S
N1540 C1541 1.351 . S
C1541 C1535 1.428 . S
C1541 N1540 1.351 . S
C1541 C1542 1.434 . S
C1542 C1533 1.429 . S
C1542 N1539 1.350 . S
C1542 C1541 1.434 . S
C1543 C1544 1.369 . S
C1543 C1545 1.419 . S
C1543 H1547 0.930 . S
C1544 C1543 1.369 . S
C1544 C1553 1.429 . S
C1545 C1543 1.419 . S
C1545 C1546 1.363 . S
C1545 H1548 0.929 . S
C1546 C1545 1.363 . S
C1546 C1552 1.428 . S
H1547 C1543 0.930 . S
H1548 C1545 0.929 . S
S1549 N1550 1.613 . S
S1549 N1551 1.610 . S
N1550 S1549 1.613 . S
N1550 C1553 1.350 . S
N1551 S1549 1.610 . S
N1551 C1552 1.351 . S
C1552 C1546 1.428 . S
C1552 N1551 1.351 . S
C1552 C1553 1.434 . S
C1553 C1544 1.429 . S
C1553 N1550 1.350 . S
C1553 C1552 1.434 . S
C1554 C1555 1.369 1_455 S
C1554 C1556 1.419 . S
C1554 H1558 0.930 . S
C1555 C1554 1.369 1_655 S
C1555 C1564 1.429 . S
C1556 C1554 1.419 . S
C1556 C1557 1.363 . S
C1556 H1559 0.929 . S
C1557 C1556 1.363 . S
C1557 C1563 1.428 1_455 S
H1558 C1554 0.930 . S
H1559 C1556 0.929 . S
S1560 N1561 1.613 . S
S1560 N1562 1.610 . S
N1561 S1560 1.613 . S
N1561 C1564 1.350 . S
N1562 S1560 1.610 . S
N1562 C1563 1.351 . S
C1563 C1557 1.428 1_655 S
C1563 N1562 1.351 . S
C1563 C1564 1.434 . S
C1564 C1555 1.429 . S
C1564 N1561 1.350 . S
C1564 C1563 1.434 . S
C1565 C1566 1.369 . S
C1565 C1567 1.419 . S
C1565 H1569 0.930 . S
C1566 C1565 1.369 . S
C1566 C1575 1.429 . S
C1567 C1565 1.419 . S
C1567 C1568 1.363 . S
C1567 H1570 0.929 . S
C1568 C1567 1.363 . S
C1568 C1574 1.428 . S
H1569 C1565 0.930 . S
H1570 C1567 0.929 . S
S1571 N1572 1.613 . S
S1571 N1573 1.610 . S
N1572 S1571 1.613 . S
N1572 C1575 1.350 . S
N1573 S1571 1.610 . S
N1573 C1574 1.351 . S
C1574 C1568 1.428 . S
C1574 N1573 1.351 . S
C1574 C1575 1.434 . S
C1575 C1566 1.429 . S
C1575 N1572 1.350 . S
C1575 C1574 1.434 . S
C1576 C1577 1.369 . S
C1576 C1578 1.419 . S
C1576 H1580 0.930 . S
C1577 C1576 1.369 . S
C1577 C1586 1.429 1_565 S
C1578 C1576 1.419 . S
C1578 C1579 1.363 1_565 S
C1578 H1581 0.929 . S
C1579 C1578 1.363 1_545 S
C1579 C1585 1.428 . S
H1580 C1576 0.930 . S
H1581 C1578 0.929 . S
S1582 N1583 1.613 . S
S1582 N1584 1.610 . S
N1583 S1582 1.613 . S
N1583 C1586 1.350 . S
N1584 S1582 1.610 . S
N1584 C1585 1.351 . S
C1585 C1579 1.428 . S
C1585 N1584 1.351 . S
C1585 C1586 1.434 . S
C1586 C1577 1.429 1_545 S
C1586 N1583 1.350 . S
C1586 C1585 1.434 . S
C1587 C1588 1.369 . S
C1587 C1589 1.419 1_565 S
C1587 H1591 0.930 . S
C1588 C1587 1.369 . S
C1588 C1597 1.429 1_556 S
C1589 C1587 1.419 1_545 S
C1589 C1590 1.363 1_556 S
C1589 H1592 0.929 . S
C1590 C1589 1.363 1_554 S
C1590 C1596 1.428 . S
H1591 C1587 0.930 . S
H1592 C1589 0.929 . S
S1593 N1594 1.613 . S
S1593 N1595 1.610 1_565 S
N1594 S1593 1.613 . S
N1594 C1597 1.350 . S
N1595 S1593 1.610 1_545 S
N1595 C1596 1.351 . S
C1596 C1590 1.428 . S
C1596 N1595 1.351 . S
C1596 C1597 1.434 1_545 S
C1597 C1588 1.429 1_554 S
C1597 N1594 1.350 . S
C1597 C1596 1.434 1_565 S
C1598 C1599 1.369 . S
C1598 C1600 1.418 1_556 S
C1598 H1602 0.930 . S
C1599 C1598 1.369 . S
C1599 C1608 1.429 1_455 S
C1600 C1598 1.418 1_554 S
C1600 C1601 1.364 1_455 S
C1600 H1603 0.929 1_554 S
C1601 C1600 1.364 1_655 S
C1601 C1607 1.428 . S
H1602 C1598 0.930 . S
H1603 C1600 0.929 1_556 S
S1604 N1605 1.613 1_554 S
S1604 N1606 1.610 . S
N1605 S1604 1.613 1_556 S
N1605 C1608 1.350 . S
N1606 S1604 1.610 . S
N1606 C1607 1.351 . S
C1607 C1601 1.428 . S
C1607 N1606 1.351 . S
C1607 C1608 1.434 1_554 S
C1608 C1599 1.429 1_655 S
C1608 N1605 1.350 . S
C1608 C1607 1.434 1_556 S
C1609 C1610 1.369 1_554 S
C1609 C1611 1.419 . S
C1609 H1613 0.930 . S
C1610 C1609 1.369 1_556 S
C1610 C1619 1.429 . S
C1611 C1609 1.419 . S
C1611 C1612 1.363 . S
C1611 H1614 0.929 . S
C1612 C1611 1.363 . S
C1612 C1618 1.428 1_554 S
H1613 C1609 0.930 . S
H1614 C1611 0.929 . S
S1615 N1616 1.613 . S
S1615 N1617 1.610 . S
N1616 S1615 1.613 . S
N1616 C1619 1.350 . S
N1617 S1615 1.610 . S
N1617 C1618 1.351 . S
C1618 C1612 1.428 1_556 S
C1618 N1617 1.351 . S
C1618 C1619 1.434 . S
C1619 C1610 1.429 . S
C1619 N1616 1.350 . S
C1619 C1618 1.434 . S
C1620 C1621 1.369 . S
C1620 C1622 1.419 1_554 S
C1620 H1624 0.930 . S
C1621 C1620 1.369 . S
C1621 C1630 1.429 . S
C1622 C1620 1.419 1_556 S
C1622 C1623 1.363 . S
C1622 H1625 0.929 . S
C1623 C1622 1.363 . S
C1623 C1629 1.428 . S
H1624 C1620 0.930 . S
H1625 C1622 0.929 . S
S1626 N1627 1.613 1_556 S
S1626 N1628 1.610 . S
N1627 S1626 1.613 1_554 S
N1627 C1630 1.350 . S
N1628 S1626 1.610 . S
N1628 C1629 1.351 . S
C1629 C1623 1.428 . S
C1629 N1628 1.351 . S
C1629 C1630 1.434 1_556 S
C1630 C1621 1.429 . S
C1630 N1627 1.350 . S
C1630 C1629 1.434 1_554 S
C1631 C1632 1.369 . S
C1631 C1633 1.419 1_554 S
C1631 H1635 0.930 . S
C1632 C1631 1.369 . S
C1632 C1641 1.429 1_554 S
C1633 C1631 1.419 1_556 S
C1633 C1634 1.363 . S
C1633 H1636 0.929 . S
C1634 C1633 1.363 . S
C1634 C1640 1.428 . S
H1635 C1631 0.930 . S
H1636 C1633 0.929 . S
S1637 N1638 1.613 . S
S1637 N1639 1.610 . S
N1638 S1637 1.613 . S
N1638 C1641 1.350 . S
N1639 S1637 1.610 . S
N1639 C1640 1.351 . S
C1640 C1634 1.428 . S
C1640 N1639 1.351 . S
C1640 C1641 1.434 . S
C1641 C1632 1.429 1_556 S
C1641 N1638 1.350 . S
C1641 C1640 1.434 . S
C1642 C1643 1.369 . S
C1642 C1644 1.419 1_556 S
C1642 H1646 0.930 . S
C1643 C1642 1.369 . S
C1643 C1652 1.429 . S
C1644 C1642 1.419 1_554 S
C1644 C1645 1.363 . S
C1644 H1647 0.929 . S
C1645 C1644 1.363 . S
C1645 C1651 1.428 . S
H1646 C1642 0.930 . S
H1647 C1644 0.929 . S
S1648 N1649 1.613 . S
S1648 N1650 1.610 1_556 S
N1649 S1648 1.613 . S
N1649 C1652 1.350 . S
N1650 S1648 1.610 1_554 S
N1650 C1651 1.351 . S
C1651 C1645 1.428 . S
C1651 N1650 1.351 . S
C1651 C1652 1.434 1_554 S
C1652 C1643 1.429 . S
C1652 N1649 1.350 . S
C1652 C1651 1.434 1_556 S
C1653 C1654 1.369 . S
C1653 C1655 1.419 . S
C1653 H1657 0.930 . S
C1654 C1653 1.369 . S
C1654 C1663 1.429 . S
C1655 C1653 1.419 . S
C1655 C1656 1.363 . S
C1655 H1658 0.929 . S
C1656 C1655 1.363 . S
C1656 C1662 1.428 . S
H1657 C1653 0.930 . S
H1658 C1655 0.929 . S
S1659 N1660 1.613 . S
S1659 N1661 1.610 . S
N1660 S1659 1.613 . S
N1660 C1663 1.350 . S
N1661 S1659 1.610 . S
N1661 C1662 1.351 . S
C1662 C1656 1.428 . S
C1662 N1661 1.351 . S
C1662 C1663 1.434 . S
C1663 C1654 1.429 . S
C1663 N1660 1.350 . S
C1663 C1662 1.434 . S
C1664 C1665 1.369 . S
C1664 C1666 1.419 . S
C1664 H1668 0.930 . S
C1665 C1664 1.369 . S
C1665 C1674 1.429 . S
C1666 C1664 1.419 . S
C1666 C1667 1.363 . S
C1666 H1669 0.929 . S
C1667 C1666 1.363 . S
C1667 C1673 1.428 . S
H1668 C1664 0.930 . S
H1669 C1666 0.929 . S
S1670 N1671 1.613 . S
S1670 N1672 1.610 . S
N1671 S1670 1.613 . S
N1671 C1674 1.350 . S
N1672 S1670 1.610 . S
N1672 C1673 1.351 . S
C1673 C1667 1.428 . S
C1673 N1672 1.351 . S
C1673 C1674 1.434 . S
C1674 C1665 1.429 . S
C1674 N1671 1.350 . S
C1674 C1673 1.434 . S
C1675 C1676 1.369 . S
C1675 C1677 1.419 . S
C1675 H1679 0.930 . S
C1676 C1675 1.369 . S
C1676 C1685 1.429 . S
C1677 C1675 1.419 . S
C1677 C1678 1.363 . S
C1677 H1680 0.929 . S
C1678 C1677 1.363 . S
C1678 C1684 1.428 . S
H1679 C1675 0.930 . S
H1680 C1677 0.929 . S
S1681 N1682 1.613 . S
S1681 N1683 1.610 . S
N1682 S1681 1.613 . S
N1682 C1685 1.350 . S
N1683 S1681 1.610 . S
N1683 C1684 1.351 . S
C1684 C1678 1.428 . S
C1684 N1683 1.351 . S
C1684 C1685 1.434 . S
C1685 C1676 1.429 . S
C1685 N1682 1.350 . S
C1685 C1684 1.434 . S
C1686 C1687 1.369 . S
C1686 C1688 1.419 1_554 S
C1686 H1690 0.930 . S
C1687 C1686 1.369 . S
C1687 C1696 1.429 . S
C1688 C1686 1.419 1_556 S
C1688 C1689 1.363 . S
C1688 H1691 0.929 . S
C1689 C1688 1.363 . S
C1689 C1695 1.428 . S
H1690 C1686 0.930 . S
H1691 C1688 0.929 . S
S1692 N1693 1.613 . S
S1692 N1694 1.610 1_554 S
N1693 S1692 1.613 . S
N1693 C1696 1.350 . S
N1694 S1692 1.610 1_556 S
N1694 C1695 1.351 . S
C1695 C1689 1.428 . S
C1695 N1694 1.351 . S
C1695 C1696 1.434 1_556 S
C1696 C1687 1.429 . S
C1696 N1693 1.350 . S
C1696 C1695 1.434 1_554 S
C1697 C1698 1.369 . S
C1697 C1699 1.419 1_554 S
C1697 H1701 0.930 . S
C1698 C1697 1.369 . S
C1698 C1707 1.429 . S
C1699 C1697 1.419 1_556 S
C1699 C1700 1.363 . S
C1699 H1702 0.929 . S
C1700 C1699 1.363 . S
C1700 C1706 1.428 1_556 S
H1701 C1697 0.930 . S
H1702 C1699 0.929 . S
S1703 N1704 1.613 . S
S1703 N1705 1.610 . S
N1704 S1703 1.613 . S
N1704 C1707 1.350 . S
N1705 S1703 1.610 . S
N1705 C1706 1.351 . S
C1706 C1700 1.428 1_554 S
C1706 N1705 1.351 . S
C1706 C1707 1.434 . S
C1707 C1698 1.429 . S
C1707 N1704 1.350 . S
C1707 C1706 1.434 . S
C1708 C1709 1.369 . S
C1708 C1710 1.419 1_556 S
C1708 H1712 0.930 . S
C1709 C1708 1.369 . S
C1709 C1718 1.429 . S
C1710 C1708 1.419 1_554 S
C1710 C1711 1.363 . S
C1710 H1713 0.929 . S
C1711 C1710 1.363 . S
C1711 C1717 1.428 . S
H1712 C1708 0.930 . S
H1713 C1710 0.929 . S
S1714 N1715 1.613 1_554 S
S1714 N1716 1.610 . S
N1715 S1714 1.613 1_556 S
N1715 C1718 1.350 . S
N1716 S1714 1.610 . S
N1716 C1717 1.351 . S
C1717 C1711 1.428 . S
C1717 N1716 1.351 . S
C1717 C1718 1.434 1_554 S
C1718 C1709 1.429 . S
C1718 N1715 1.350 . S
C1718 C1717 1.434 1_556 S
C1719 C1720 1.369 . S
C1719 C1721 1.419 . S
C1719 H1723 0.930 . S
C1720 C1719 1.369 . S
C1720 C1729 1.429 . S
C1721 C1719 1.419 . S
C1721 C1722 1.363 . S
C1721 H1724 0.929 . S
C1722 C1721 1.363 . S
C1722 C1728 1.428 . S
H1723 C1719 0.930 . S
H1724 C1721 0.929 . S
S1725 N1726 1.613 . S
S1725 N1727 1.610 . S
N1726 S1725 1.613 . S
N1726 C1729 1.350 . S
N1727 S1725 1.610 . S
N1727 C1728 1.351 . S
C1728 C1722 1.428 . S
C1728 N1727 1.351 . S
C1728 C1729 1.434 . S
C1729 C1720 1.429 . S
C1729 N1726 1.350 . S
C1729 C1728 1.434 . S
C1730 C1731 1.369 . S
C1730 C1732 1.419 . S
C1730 H1734 0.930 . S
C1731 C1730 1.369 . S
C1731 C1740 1.429 . S
C1732 C1730 1.419 . S
C1732 C1733 1.363 . S
C1732 H1735 0.929 . S
C1733 C1732 1.363 . S
C1733 C1739 1.428 . S
H1734 C1730 0.930 . S
H1735 C1732 0.929 . S
S1736 N1737 1.613 . S
S1736 N1738 1.610 . S
N1737 S1736 1.613 . S
N1737 C1740 1.350 . S
N1738 S1736 1.610 . S
N1738 C1739 1.351 . S
C1739 C1733 1.428 . S
C1739 N1738 1.351 . S
C1739 C1740 1.434 . S
C1740 C1731 1.429 . S
C1740 N1737 1.350 . S
C1740 C1739 1.434 . S
C1741 C1742 1.369 . S
C1741 C1743 1.419 . S
C1741 H1745 0.930 . S
C1742 C1741 1.369 . S
C1742 C1751 1.429 . S
C1743 C1741 1.419 . S
C1743 C1744 1.363 . S
C1743 H1746 0.929 . S
C1744 C1743 1.363 . S
C1744 C1750 1.428 . S
H1745 C1741 0.930 . S
H1746 C1743 0.929 . S
S1747 N1748 1.613 . S
S1747 N1749 1.610 . S
N1748 S1747 1.613 . S
N1748 C1751 1.350 . S
N1749 S1747 1.610 . S
N1749 C1750 1.351 . S
C1750 C1744 1.428 . S
C1750 N1749 1.351 . S
C1750 C1751 1.434 . S
C1751 C1742 1.429 . S
C1751 N1748 1.350 . S
C1751 C1750 1.434 . S
C1752 C1753 1.369 . S
C1752 C1754 1.419 . S
C1752 H1756 0.930 . S
C1753 C1752 1.369 . S
C1753 C1762 1.429 . S
C1754 C1752 1.419 . S
C1754 C1755 1.363 . S
C1754 H1757 0.929 . S
C1755 C1754 1.363 . S
C1755 C1761 1.428 . S
H1756 C1752 0.930 . S
H1757 C1754 0.929 . S
S1758 N1759 1.613 . S
S1758 N1760 1.610 . S
N1759 S1758 1.613 . S
N1759 C1762 1.350 . S
N1760 S1758 1.610 . S
N1760 C1761 1.351 . S
C1761 C1755 1.428 . S
C1761 N1760 1.351 . S
C1761 C1762 1.434 . S
C1762 C1753 1.429 . S
C1762 N1759 1.350 . S
C1762 C1761 1.434 . S
C1763 C1764 1.369 . S
C1763 C1765 1.419 . S
C1763 H1767 0.930 . S
C1764 C1763 1.369 . S
C1764 C1773 1.429 . S
C1765 C1763 1.419 . S
C1765 C1766 1.363 . S
C1765 H1768 0.929 . S
C1766 C1765 1.363 . S
C1766 C1772 1.428 . S
H1767 C1763 0.930 . S
H1768 C1765 0.929 . S
S1769 N1770 1.613 . S
S1769 N1771 1.610 . S
N1770 S1769 1.613 . S
N1770 C1773 1.350 . S
N1771 S1769 1.610 . S
N1771 C1772 1.351 . S
C1772 C1766 1.428 . S
C1772 N1771 1.351 . S
C1772 C1773 1.434 . S
C1773 C1764 1.429 . S
C1773 N1770 1.350 . S
C1773 C1772 1.434 . S
C1774 C1775 1.369 . S
C1774 C1776 1.419 . S
C1774 H1778 0.930 . S
C1775 C1774 1.369 . S
C1775 C1784 1.429 . S
C1776 C1774 1.419 . S
C1776 C1777 1.363 . S
C1776 H1779 0.929 . S
C1777 C1776 1.363 . S
C1777 C1783 1.428 . S
H1778 C1774 0.930 . S
H1779 C1776 0.929 . S
S1780 N1781 1.613 . S
S1780 N1782 1.610 . S
N1781 S1780 1.613 . S
N1781 C1784 1.350 . S
N1782 S1780 1.610 . S
N1782 C1783 1.351 . S
C1783 C1777 1.428 . S
C1783 N1782 1.351 . S
C1783 C1784 1.434 . S
C1784 C1775 1.429 . S
C1784 N1781 1.350 . S
C1784 C1783 1.434 . S
C1785 C1786 1.369 . S
C1785 C1787 1.419 . S
C1785 H1789 0.930 . S
C1786 C1785 1.369 . S
C1786 C1795 1.429 . S
C1787 C1785 1.419 . S
C1787 C1788 1.363 . S
C1787 H1790 0.929 . S
C1788 C1787 1.363 . S
C1788 C1794 1.428 . S
H1789 C1785 0.930 . S
H1790 C1787 0.929 . S
S1791 N1792 1.613 . S
S1791 N1793 1.610 . S
N1792 S1791 1.613 . S
N1792 C1795 1.350 . S
N1793 S1791 1.610 . S
N1793 C1794 1.351 . S
C1794 C1788 1.428 . S
C1794 N1793 1.351 . S
C1794 C1795 1.434 . S
C1795 C1786 1.429 . S
C1795 N1792 1.350 . S
C1795 C1794 1.434 . S
C1796 C1797 1.369 . S
C1796 C1798 1.419 . S
C1796 H1800 0.930 . S
C1797 C1796 1.369 . S
C1797 C1806 1.429 . S
C1798 C1796 1.419 . S
C1798 C1799 1.363 . S
C1798 H1801 0.929 . S
C1799 C1798 1.363 . S
C1799 C1805 1.428 . S
H1800 C1796 0.930 . S
H1801 C1798 0.929 . S
S1802 N1803 1.613 . S
S1802 N1804 1.610 . S
N1803 S1802 1.613 . S
N1803 C1806 1.350 . S
N1804 S1802 1.610 . S
N1804 C1805 1.351 . S
C1805 C1799 1.428 . S
C1805 N1804 1.351 . S
C1805 C1806 1.434 . S
C1806 C1797 1.429 . S
C1806 N1803 1.350 . S
C1806 C1805 1.434 . S
C1807 C1808 1.369 . S
C1807 C1809 1.419 . S
C1807 H1811 0.930 . S
C1808 C1807 1.369 . S
C1808 C1817 1.429 . S
C1809 C1807 1.419 . S
C1809 C1810 1.363 . S
C1809 H1812 0.929 . S
C1810 C1809 1.363 . S
C1810 C1816 1.428 . S
H1811 C1807 0.930 . S
H1812 C1809 0.929 . S
S1813 N1814 1.613 . S
S1813 N1815 1.610 . S
N1814 S1813 1.613 . S
N1814 C1817 1.350 . S
N1815 S1813 1.610 . S
N1815 C1816 1.351 . S
C1816 C1810 1.428 . S
C1816 N1815 1.351 . S
C1816 C1817 1.434 . S
C1817 C1808 1.429 . S
C1817 N1814 1.350 . S
C1817 C1816 1.434 . S
C1818 C1819 1.369 . S
C1818 C1820 1.419 . S
C1818 H1822 0.930 . S
C1819 C1818 1.369 . S
C1819 C1828 1.429 . S
C1820 C1818 1.419 . S
C1820 C1821 1.363 . S
C1820 H1823 0.929 . S
C1821 C1820 1.363 . S
C1821 C1827 1.428 . S
H1822 C1818 0.930 . S
H1823 C1820 0.929 . S
S1824 N1825 1.613 . S
S1824 N1826 1.610 . S
N1825 S1824 1.613 . S
N1825 C1828 1.350 . S
N1826 S1824 1.610 . S
N1826 C1827 1.351 . S
C1827 C1821 1.428 . S
C1827 N1826 1.351 . S
C1827 C1828 1.434 . S
C1828 C1819 1.429 . S
C1828 N1825 1.350 . S
C1828 C1827 1.434 . S
C1829 C1830 1.369 . S
C1829 C1831 1.419 . S
C1829 H1833 0.930 . S
C1830 C1829 1.369 . S
C1830 C1839 1.429 . S
C1831 C1829 1.419 . S
C1831 C1832 1.363 . S
C1831 H1834 0.929 . S
C1832 C1831 1.363 . S
C1832 C1838 1.428 . S
H1833 C1829 0.930 . S
H1834 C1831 0.929 . S
S1835 N1836 1.613 . S
S1835 N1837 1.610 . S
N1836 S1835 1.613 . S
N1836 C1839 1.350 . S
N1837 S1835 1.610 . S
N1837 C1838 1.351 . S
C1838 C1832 1.428 . S
C1838 N1837 1.351 . S
C1838 C1839 1.434 . S
C1839 C1830 1.429 . S
C1839 N1836 1.350 . S
C1839 C1838 1.434 . S
C1840 C1841 1.369 . S
C1840 C1842 1.419 . S
C1840 H1844 0.930 . S
C1841 C1840 1.369 . S
C1841 C1850 1.429 . S
C1842 C1840 1.419 . S
C1842 C1843 1.363 . S
C1842 H1845 0.929 . S
C1843 C1842 1.363 . S
C1843 C1849 1.428 . S
H1844 C1840 0.930 . S
H1845 C1842 0.929 . S
S1846 N1847 1.613 . S
S1846 N1848 1.610 . S
N1847 S1846 1.613 . S
N1847 C1850 1.350 . S
N1848 S1846 1.610 . S
N1848 C1849 1.351 . S
C1849 C1843 1.428 . S
C1849 N1848 1.351 . S
C1849 C1850 1.434 . S
C1850 C1841 1.429 . S
C1850 N1847 1.350 . S
C1850 C1849 1.434 . S
C1851 C1852 1.369 . S
C1851 C1853 1.419 . S
C1851 H1855 0.930 . S
C1852 C1851 1.369 . S
C1852 C1861 1.429 . S
C1853 C1851 1.419 . S
C1853 C1854 1.363 . S
C1853 H1856 0.929 . S
C1854 C1853 1.363 . S
C1854 C1860 1.428 . S
H1855 C1851 0.930 . S
H1856 C1853 0.929 . S
S1857 N1858 1.613 . S
S1857 N1859 1.610 . S
N1858 S1857 1.613 . S
N1858 C1861 1.350 . S
N1859 S1857 1.610 . S
N1859 C1860 1.351 . S
C1860 C1854 1.428 . S
C1860 N1859 1.351 . S
C1860 C1861 1.434 . S
C1861 C1852 1.429 . S
C1861 N1858 1.350 . S
C1861 C1860 1.434 . S
C1862 C1863 1.369 . S
C1862 C1864 1.419 . S
C1862 H1866 0.930 . S
C1863 C1862 1.369 . S
C1863 C1872 1.429 . S
C1864 C1862 1.419 . S
C1864 C1865 1.363 . S
C1864 H1867 0.929 . S
C1865 C1864 1.363 . S
C1865 C1871 1.428 . S
H1866 C1862 0.930 . S
H1867 C1864 0.929 . S
S1868 N1869 1.613 . S
S1868 N1870 1.610 . S
N1869 S1868 1.613 . S
N1869 C1872 1.350 . S
N1870 S1868 1.610 . S
N1870 C1871 1.351 . S
C1871 C1865 1.428 . S
C1871 N1870 1.351 . S
C1871 C1872 1.434 . S
C1872 C1863 1.429 . S
C1872 N1869 1.350 . S
C1872 C1871 1.434 . S
C1873 C1874 1.369 . S
C1873 C1875 1.419 . S
C1873 H1877 0.930 . S
C1874 C1873 1.369 . S
C1874 C1883 1.429 . S
C1875 C1873 1.419 . S
C1875 C1876 1.363 . S
C1875 H1878 0.929 . S
C1876 C1875 1.363 . S
C1876 C1882 1.428 . S
H1877 C1873 0.930 . S
H1878 C1875 0.929 . S
S1879 N1880 1.613 . S
S1879 N1881 1.610 . S
N1880 S1879 1.613 . S
N1880 C1883 1.350 . S
N1881 S1879 1.610 . S
N1881 C1882 1.351 . S
C1882 C1876 1.428 . S
C1882 N1881 1.351 . S
C1882 C1883 1.434 . S
C1883 C1874 1.429 . S
C1883 N1880 1.350 . S
C1883 C1882 1.434 . S
C1884 C1885 1.369 . S
C1884 C1886 1.419 . S
C1884 H1888 0.930 . S
C1885 C1884 1.369 . S
C1885 C1894 1.429 . S
C1886 C1884 1.419 . S
C1886 C1887 1.363 . S
C1886 H1889 0.929 . S
C1887 C1886 1.363 . S
C1887 C1893 1.428 . S
H1888 C1884 0.930 . S
H1889 C1886 0.929 . S
S1890 N1891 1.613 . S
S1890 N1892 1.610 . S
N1891 S1890 1.613 . S
N1891 C1894 1.350 . S
N1892 S1890 1.610 . S
N1892 C1893 1.351 . S
C1893 C1887 1.428 . S
C1893 N1892 1.351 . S
C1893 C1894 1.434 . S
C1894 C1885 1.429 . S
C1894 N1891 1.350 . S
C1894 C1893 1.434 . S
C1895 C1896 1.369 . S
C1895 C1897 1.419 . S
C1895 H1899 0.930 . S
C1896 C1895 1.369 . S
C1896 C1905 1.429 . S
C1897 C1895 1.419 . S
C1897 C1898 1.363 . S
C1897 H1900 0.929 . S
C1898 C1897 1.363 . S
C1898 C1904 1.428 . S
H1899 C1895 0.930 . S
H1900 C1897 0.929 . S
S1901 N1902 1.613 . S
S1901 N1903 1.610 . S
N1902 S1901 1.613 . S
N1902 C1905 1.350 . S
N1903 S1901 1.610 . S
N1903 C1904 1.351 . S
C1904 C1898 1.428 . S
C1904 N1903 1.351 . S
C1904 C1905 1.434 . S
C1905 C1896 1.429 . S
C1905 N1902 1.350 . S
C1905 C1904 1.434 . S
C1906 C1907 1.369 . S
C1906 C1908 1.419 . S
C1906 H1910 0.930 . S
C1907 C1906 1.369 . S
C1907 C1916 1.429 . S
C1908 C1906 1.419 . S
C1908 C1909 1.363 . S
C1908 H1911 0.929 . S
C1909 C1908 1.363 . S
C1909 C1915 1.428 . S
H1910 C1906 0.930 . S
H1911 C1908 0.929 . S
S1912 N1913 1.613 . S
S1912 N1914 1.610 . S
N1913 S1912 1.613 . S
N1913 C1916 1.350 . S
N1914 S1912 1.610 . S
N1914 C1915 1.351 . S
C1915 C1909 1.428 . S
C1915 N1914 1.351 . S
C1915 C1916 1.434 . S
C1916 C1907 1.429 . S
C1916 N1913 1.350 . S
C1916 C1915 1.434 . S
C1917 C1918 1.369 . S
C1917 C1919 1.419 . S
C1917 H1921 0.930 . S
C1918 C1917 1.369 . S
C1918 C1927 1.429 . S
C1919 C1917 1.419 . S
C1919 C1920 1.363 . S
C1919 H1922 0.929 . S
C1920 C1919 1.363 . S
C1920 C1926 1.428 . S
H1921 C1917 0.930 . S
H1922 C1919 0.929 . S
S1923 N1924 1.613 . S
S1923 N1925 1.610 . S
N1924 S1923 1.613 . S
N1924 C1927 1.350 . S
N1925 S1923 1.610 . S
N1925 C1926 1.351 . S
C1926 C1920 1.428 . S
C1926 N1925 1.351 . S
C1926 C1927 1.434 . S
C1927 C1918 1.429 . S
C1927 N1924 1.350 . S
C1927 C1926 1.434 . S
C1928 C1929 1.369 . S
C1928 C1930 1.419 . S
C1928 H1932 0.930 . S
C1929 C1928 1.369 . S
C1929 C1938 1.429 . S
C1930 C1928 1.419 . S
C1930 C1931 1.363 . S
C1930 H1933 0.929 . S
C1931 C1930 1.363 . S
C1931 C1937 1.428 . S
H1932 C1928 0.930 . S
H1933 C1930 0.929 . S
S1934 N1935 1.613 . S
S1934 N1936 1.610 . S
N1935 S1934 1.613 . S
N1935 C1938 1.350 . S
N1936 S1934 1.610 . S
N1936 C1937 1.351 . S
C1937 C1931 1.428 . S
C1937 N1936 1.351 . S
C1937 C1938 1.434 . S
C1938 C1929 1.429 . S
C1938 N1935 1.350 . S
C1938 C1937 1.434 . S
C1939 C1940 1.369 . S
C1939 C1941 1.419 . S
C1939 H1943 0.930 . S
C1940 C1939 1.369 . S
C1940 C1949 1.429 . S
C1941 C1939 1.419 . S
C1941 C1942 1.363 . S
C1941 H1944 0.929 . S
C1942 C1941 1.363 . S
C1942 C1948 1.428 . S
H1943 C1939 0.930 . S
H1944 C1941 0.929 . S
S1945 N1946 1.613 . S
S1945 N1947 1.610 . S
N1946 S1945 1.613 . S
N1946 C1949 1.350 . S
N1947 S1945 1.610 . S
N1947 C1948 1.351 . S
C1948 C1942 1.428 . S
C1948 N1947 1.351 . S
C1948 C1949 1.434 . S
C1949 C1940 1.429 . S
C1949 N1946 1.350 . S
C1949 C1948 1.434 . S
C1950 C1951 1.369 . S
C1950 C1952 1.419 . S
C1950 H1954 0.930 . S
C1951 C1950 1.369 . S
C1951 C1960 1.429 . S
C1952 C1950 1.419 . S
C1952 C1953 1.363 . S
C1952 H1955 0.929 . S
C1953 C1952 1.363 . S
C1953 C1959 1.428 . S
H1954 C1950 0.930 . S
H1955 C1952 0.929 . S
S1956 N1957 1.613 . S
S1956 N1958 1.610 . S
N1957 S1956 1.613 . S
N1957 C1960 1.350 . S
N1958 S1956 1.610 . S
N1958 C1959 1.351 . S
C1959 C1953 1.428 . S
C1959 N1958 1.351 . S
C1959 C1960 1.434 . S
C1960 C1951 1.429 . S
C1960 N1957 1.350 . S
C1960 C1959 1.434 . S
C1961 C1962 1.369 . S
C1961 C1963 1.419 . S
C1961 H1965 0.930 . S
C1962 C1961 1.369 . S
C1962 C1971 1.429 . S
C1963 C1961 1.419 . S
C1963 C1964 1.363 . S
C1963 H1966 0.929 . S
C1964 C1963 1.363 . S
C1964 C1970 1.428 . S
H1965 C1961 0.930 . S
H1966 C1963 0.929 . S
S1967 N1968 1.613 . S
S1967 N1969 1.610 . S
N1968 S1967 1.613 . S
N1968 C1971 1.350 . S
N1969 S1967 1.610 . S
N1969 C1970 1.351 . S
C1970 C1964 1.428 . S
C1970 N1969 1.351 . S
C1970 C1971 1.434 . S
C1971 C1962 1.429 . S
C1971 N1968 1.350 . S
C1971 C1970 1.434 . S
C1972 C1973 1.369 . S
C1972 C1974 1.419 . S
C1972 H1976 0.930 . S
C1973 C1972 1.369 . S
C1973 C1982 1.429 . S
C1974 C1972 1.419 . S
C1974 C1975 1.363 . S
C1974 H1977 0.929 . S
C1975 C1974 1.363 . S
C1975 C1981 1.428 . S
H1976 C1972 0.930 . S
H1977 C1974 0.929 . S
S1978 N1979 1.613 . S
S1978 N1980 1.610 . S
N1979 S1978 1.613 . S
N1979 C1982 1.350 . S
N1980 S1978 1.610 . S
N1980 C1981 1.351 . S
C1981 C1975 1.428 . S
C1981 N1980 1.351 . S
C1981 C1982 1.434 . S
C1982 C1973 1.429 . S
C1982 N1979 1.350 . S
C1982 C1981 1.434 . S
C1983 C1984 1.369 . S
C1983 C1985 1.419 . S
C1983 H1987 0.930 . S
C1984 C1983 1.369 . S
C1984 C1993 1.429 . S
C1985 C1983 1.419 . S
C1985 C1986 1.363 . S
C1985 H1988 0.929 . S
C1986 C1985 1.363 . S
C1986 C1992 1.428 . S
H1987 C1983 0.930 . S
H1988 C1985 0.929 . S
S1989 N1990 1.613 . S
S1989 N1991 1.610 . S
N1990 S1989 1.613 . S
N1990 C1993 1.350 . S
N1991 S1989 1.610 . S
N1991 C1992 1.351 . S
C1992 C1986 1.428 . S
C1992 N1991 1.351 . S
C1992 C1993 1.434 . S
C1993 C1984 1.429 . S
C1993 N1990 1.350 . S
C1993 C1992 1.434 . S
C1994 C1995 1.369 . S
C1994 C1996 1.419 . S
C1994 H1998 0.930 . S
C1995 C1994 1.369 . S
C1995 C2004 1.429 . S
C1996 C1994 1.419 . S
C1996 C1997 1.363 . S
C1996 H1999 0.929 . S
C1997 C1996 1.363 . S
C1997 C2003 1.428 . S
H1998 C1994 0.930 . S
H1999 C1996 0.929 . S
S2000 N2001 1.613 . S
S2000 N2002 1.610 . S
N2001 S2000 1.613 . S
N2001 C2004 1.350 . S
N2002 S2000 1.610 . S
N2002 C2003 1.351 . S
C2003 C1997 1.428 . S
C2003 N2002 1.351 . S
C2003 C2004 1.434 . S
C2004 C1995 1.429 . S
C2004 N2001 1.350 . S
C2004 C2003 1.434 . S
C2005 C2006 1.369 . S
C2005 C2007 1.419 . S
C2005 H2009 0.930 . S
C2006 C2005 1.369 . S
C2006 C2015 1.429 . S
C2007 C2005 1.419 . S
C2007 C2008 1.363 . S
C2007 H2010 0.929 . S
C2008 C2007 1.363 . S
C2008 C2014 1.428 . S
H2009 C2005 0.930 . S
H2010 C2007 0.929 . S
S2011 N2012 1.613 . S
S2011 N2013 1.610 . S
N2012 S2011 1.613 . S
N2012 C2015 1.350 . S
N2013 S2011 1.610 . S
N2013 C2014 1.351 . S
C2014 C2008 1.428 . S
C2014 N2013 1.351 . S
C2014 C2015 1.434 . S
C2015 C2006 1.429 . S
C2015 N2012 1.350 . S
C2015 C2014 1.434 . S
C2016 C2017 1.369 . S
C2016 C2018 1.419 1_565 S
C2016 H2020 0.930 . S
C2017 C2016 1.369 . S
C2017 C2026 1.429 . S
C2018 C2016 1.419 1_545 S
C2018 C2019 1.363 . S
C2018 H2021 0.929 . S
C2019 C2018 1.363 . S
C2019 C2025 1.428 . S
H2020 C2016 0.930 . S
H2021 C2018 0.929 . S
S2022 N2023 1.613 1_545 S
S2022 N2024 1.610 . S
N2023 S2022 1.613 1_565 S
N2023 C2026 1.350 . S
N2024 S2022 1.610 . S
N2024 C2025 1.351 . S
C2025 C2019 1.428 . S
C2025 N2024 1.351 . S
C2025 C2026 1.434 1_545 S
C2026 C2017 1.429 . S
C2026 N2023 1.350 . S
C2026 C2025 1.434 1_565 S
C2027 C2028 1.369 . S
C2027 C2029 1.419 1_655 S
C2027 H2031 0.930 . S
C2028 C2027 1.369 . S
C2028 C2037 1.429 . S
C2029 C2027 1.419 1_455 S
C2029 C2030 1.363 . S
C2029 H2032 0.929 . S
C2030 C2029 1.363 . S
C2030 C2036 1.428 . S
H2031 C2027 0.930 . S
H2032 C2029 0.929 . S
S2033 N2034 1.613 1_455 S
S2033 N2035 1.610 . S
N2034 S2033 1.613 1_655 S
N2034 C2037 1.350 . S
N2035 S2033 1.610 . S
N2035 C2036 1.351 . S
C2036 C2030 1.428 . S
C2036 N2035 1.351 . S
C2036 C2037 1.434 1_455 S
C2037 C2028 1.429 . S
C2037 N2034 1.350 . S
C2037 C2036 1.434 1_655 S
C2038 C2039 1.369 . S
C2038 C2040 1.419 . S
C2038 H2042 0.930 . S
C2039 C2038 1.369 . S
C2039 C2048 1.429 . S
C2040 C2038 1.419 . S
C2040 C2041 1.363 . S
C2040 H2043 0.929 . S
C2041 C2040 1.363 . S
C2041 C2047 1.428 . S
H2042 C2038 0.930 . S
H2043 C2040 0.929 . S
S2044 N2045 1.613 . S
S2044 N2046 1.610 . S
N2045 S2044 1.613 . S
N2045 C2048 1.350 . S
N2046 S2044 1.610 . S
N2046 C2047 1.351 . S
C2047 C2041 1.428 . S
C2047 N2046 1.351 . S
C2047 C2048 1.434 . S
C2048 C2039 1.429 . S
C2048 N2045 1.350 . S
C2048 C2047 1.434 . S
C2049 C2050 1.369 . S
C2049 C2051 1.419 1_545 S
C2049 H2053 0.930 . S
C2050 C2049 1.369 . S
C2050 C2059 1.429 . S
C2051 C2049 1.419 1_565 S
C2051 C2052 1.363 . S
C2051 H2054 0.929 . S
C2052 C2051 1.363 . S
C2052 C2058 1.428 . S
H2053 C2049 0.930 . S
H2054 C2051 0.929 . S
S2055 N2056 1.613 1_565 S
S2055 N2057 1.610 . S
N2056 S2055 1.613 1_545 S
N2056 C2059 1.350 . S
N2057 S2055 1.610 . S
N2057 C2058 1.351 . S
C2058 C2052 1.428 . S
C2058 N2057 1.351 . S
C2058 C2059 1.434 1_565 S
C2059 C2050 1.429 . S
C2059 N2056 1.350 . S
C2059 C2058 1.434 1_545 S
C2060 C2061 1.369 . S
C2060 C2062 1.419 1_655 S
C2060 H2064 0.930 . S
C2061 C2060 1.369 . S
C2061 C2070 1.429 . S
C2062 C2060 1.419 1_455 S
C2062 C2063 1.363 . S
C2062 H2065 0.929 . S
C2063 C2062 1.363 . S
C2063 C2069 1.428 . S
H2064 C2060 0.930 . S
H2065 C2062 0.929 . S
S2066 N2067 1.613 1_455 S
S2066 N2068 1.610 . S
N2067 S2066 1.613 1_655 S
N2067 C2070 1.350 . S
N2068 S2066 1.610 . S
N2068 C2069 1.351 . S
C2069 C2063 1.428 . S
C2069 N2068 1.351 . S
C2069 C2070 1.434 1_455 S
C2070 C2061 1.429 . S
C2070 N2067 1.350 . S
C2070 C2069 1.434 1_655 S
C2071 C2072 1.369 . S
C2071 C2073 1.419 . S
C2071 H2075 0.930 . S
C2072 C2071 1.369 . S
C2072 C2081 1.429 . S
C2073 C2071 1.419 . S
C2073 C2074 1.363 . S
C2073 H2076 0.929 . S
C2074 C2073 1.363 . S
C2074 C2080 1.428 . S
H2075 C2071 0.930 . S
H2076 C2073 0.929 . S
S2077 N2078 1.613 . S
S2077 N2079 1.610 . S
N2078 S2077 1.613 . S
N2078 C2081 1.350 . S
N2079 S2077 1.610 . S
N2079 C2080 1.351 . S
C2080 C2074 1.428 . S
C2080 N2079 1.351 . S
C2080 C2081 1.434 . S
C2081 C2072 1.429 . S
C2081 N2078 1.350 . S
C2081 C2080 1.434 . S
C2082 C2083 1.369 . S
C2082 C2084 1.419 . S
C2082 H2086 0.930 . S
C2083 C2082 1.369 . S
C2083 C2092 1.429 . S
C2084 C2082 1.419 . S
C2084 C2085 1.363 . S
C2084 H2087 0.929 . S
C2085 C2084 1.363 . S
C2085 C2091 1.428 . S
H2086 C2082 0.930 . S
H2087 C2084 0.929 . S
S2088 N2089 1.613 . S
S2088 N2090 1.610 . S
N2089 S2088 1.613 . S
N2089 C2092 1.350 . S
N2090 S2088 1.610 . S
N2090 C2091 1.351 . S
C2091 C2085 1.428 . S
C2091 N2090 1.351 . S
C2091 C2092 1.434 . S
C2092 C2083 1.429 . S
C2092 N2089 1.350 . S
C2092 C2091 1.434 . S
C2093 C2094 1.369 . S
C2093 C2095 1.419 . S
C2093 H2097 0.930 . S
C2094 C2093 1.369 . S
C2094 C2103 1.429 . S
C2095 C2093 1.419 . S
C2095 C2096 1.363 . S
C2095 H2098 0.929 . S
C2096 C2095 1.363 . S
C2096 C2102 1.428 . S
H2097 C2093 0.930 . S
H2098 C2095 0.929 . S
S2099 N2100 1.613 . S
S2099 N2101 1.610 . S
N2100 S2099 1.613 . S
N2100 C2103 1.350 . S
N2101 S2099 1.610 . S
N2101 C2102 1.351 . S
C2102 C2096 1.428 . S
C2102 N2101 1.351 . S
C2102 C2103 1.434 . S
C2103 C2094 1.429 . S
C2103 N2100 1.350 . S
C2103 C2102 1.434 . S
C2104 C2105 1.369 . S
C2104 C2106 1.419 . S
C2104 H2108 0.930 . S
C2105 C2104 1.369 . S
C2105 C2114 1.429 . S
C2106 C2104 1.419 . S
C2106 C2107 1.363 . S
C2106 H2109 0.929 . S
C2107 C2106 1.363 . S
C2107 C2113 1.428 . S
H2108 C2104 0.930 . S
H2109 C2106 0.929 . S
S2110 N2111 1.613 . S
S2110 N2112 1.610 . S
N2111 S2110 1.613 . S
N2111 C2114 1.350 . S
N2112 S2110 1.610 . S
N2112 C2113 1.351 . S
C2113 C2107 1.428 . S
C2113 N2112 1.351 . S
C2113 C2114 1.434 . S
C2114 C2105 1.429 . S
C2114 N2111 1.350 . S
C2114 C2113 1.434 . S
C2115 C2116 1.369 . S
C2115 C2117 1.419 . S
C2115 H2119 0.930 . S
C2116 C2115 1.369 . S
C2116 C2125 1.429 . S
C2117 C2115 1.419 . S
C2117 C2118 1.363 . S
C2117 H2120 0.929 . S
C2118 C2117 1.363 . S
C2118 C2124 1.428 . S
H2119 C2115 0.930 . S
H2120 C2117 0.929 . S
S2121 N2122 1.613 1_556 S
S2121 N2123 1.610 . S
N2122 S2121 1.613 1_554 S
N2122 C2125 1.350 . S
N2123 S2121 1.610 . S
N2123 C2124 1.351 1_556 S
C2124 C2118 1.428 . S
C2124 N2123 1.351 1_554 S
C2124 C2125 1.434 . S
C2125 C2116 1.429 . S
C2125 N2122 1.350 . S
C2125 C2124 1.434 . S
C2126 C2127 1.369 . S
C2126 C2128 1.419 . S
C2126 H2130 0.930 . S
C2127 C2126 1.369 . S
C2127 C2136 1.429 . S
C2128 C2126 1.419 . S
C2128 C2129 1.363 . S
C2128 H2131 0.929 . S
C2129 C2128 1.363 . S
C2129 C2135 1.428 . S
H2130 C2126 0.930 . S
H2131 C2128 0.929 . S
S2132 N2133 1.613 . S
S2132 N2134 1.610 . S
N2133 S2132 1.613 . S
N2133 C2136 1.350 . S
N2134 S2132 1.610 . S
N2134 C2135 1.351 . S
C2135 C2129 1.428 . S
C2135 N2134 1.351 . S
C2135 C2136 1.434 . S
C2136 C2127 1.429 . S
C2136 N2133 1.350 . S
C2136 C2135 1.434 . S
C2137 C2138 1.369 . S
C2137 C2139 1.419 . S
C2137 H2141 0.930 . S
C2138 C2137 1.369 . S
C2138 C2147 1.429 . S
C2139 C2137 1.419 . S
C2139 C2140 1.363 . S
C2139 H2142 0.929 1_554 S
C2140 C2139 1.363 . S
C2140 C2146 1.428 . S
H2141 C2137 0.930 . S
H2142 C2139 0.929 1_556 S
S2143 N2144 1.613 . S
S2143 N2145 1.610 . S
N2144 S2143 1.613 . S
N2144 C2147 1.350 . S
N2145 S2143 1.610 . S
N2145 C2146 1.351 . S
C2146 C2140 1.428 . S
C2146 N2145 1.351 . S
C2146 C2147 1.434 . S
C2147 C2138 1.429 . S
C2147 N2144 1.350 . S
C2147 C2146 1.434 . S
C2148 C2149 1.369 . S
C2148 C2150 1.419 . S
C2148 H2152 0.930 . S
C2149 C2148 1.369 . S
C2149 C2158 1.429 . S
C2150 C2148 1.419 . S
C2150 C2151 1.363 . S
C2150 H2153 0.929 . S
C2151 C2150 1.363 . S
C2151 C2157 1.428 . S
H2152 C2148 0.930 . S
H2153 C2150 0.929 . S
S2154 N2155 1.613 . S
S2154 N2156 1.610 . S
N2155 S2154 1.613 . S
N2155 C2158 1.350 1_554 S
N2156 S2154 1.610 . S
N2156 C2157 1.351 1_554 S
C2157 C2151 1.428 . S
C2157 N2156 1.351 1_556 S
C2157 C2158 1.434 . S
C2158 C2149 1.429 . S
C2158 N2155 1.350 1_556 S
C2158 C2157 1.434 . S
C2159 C2160 1.369 . S
C2159 C2161 1.419 . S
C2159 H2163 0.930 . S
C2160 C2159 1.369 . S
C2160 C2169 1.429 . S
C2161 C2159 1.419 . S
C2161 C2162 1.363 . S
C2161 H2164 0.929 . S
C2162 C2161 1.363 . S
C2162 C2168 1.428 . S
H2163 C2159 0.930 . S
H2164 C2161 0.929 . S
S2165 N2166 1.613 . S
S2165 N2167 1.610 . S
N2166 S2165 1.613 . S
N2166 C2169 1.350 1_554 S
N2167 S2165 1.610 . S
N2167 C2168 1.351 1_554 S
C2168 C2162 1.428 . S
C2168 N2167 1.351 1_556 S
C2168 C2169 1.434 . S
C2169 C2160 1.429 . S
C2169 N2166 1.350 1_556 S
C2169 C2168 1.434 . S
C2170 C2171 1.369 . S
C2170 C2172 1.419 . S
C2170 H2174 0.930 . S
C2171 C2170 1.369 . S
C2171 C2180 1.429 . S
C2172 C2170 1.419 . S
C2172 C2173 1.363 . S
C2172 H2175 0.929 . S
C2173 C2172 1.363 . S
C2173 C2179 1.428 . S
H2174 C2170 0.930 . S
H2175 C2172 0.929 . S
S2176 N2177 1.613 1_554 S
S2176 N2178 1.610 . S
N2177 S2176 1.613 1_556 S
N2177 C2180 1.350 . S
N2178 S2176 1.610 . S
N2178 C2179 1.351 1_554 S
C2179 C2173 1.428 . S
C2179 N2178 1.351 1_556 S
C2179 C2180 1.434 . S
C2180 C2171 1.429 . S
C2180 N2177 1.350 . S
C2180 C2179 1.434 . S
C2181 C2182 1.369 . S
C2181 C2183 1.419 . S
C2181 H2185 0.930 . S
C2182 C2181 1.369 . S
C2182 C2191 1.429 . S
C2183 C2181 1.419 . S
C2183 C2184 1.363 . S
C2183 H2186 0.929 . S
C2184 C2183 1.363 . S
C2184 C2190 1.428 . S
H2185 C2181 0.930 . S
H2186 C2183 0.929 . S
S2187 N2188 1.613 . S
S2187 N2189 1.610 . S
N2188 S2187 1.613 . S
N2188 C2191 1.350 . S
N2189 S2187 1.610 . S
N2189 C2190 1.351 . S
C2190 C2184 1.428 . S
C2190 N2189 1.351 . S
C2190 C2191 1.434 . S
C2191 C2182 1.429 . S
C2191 N2188 1.350 . S
C2191 C2190 1.434 . S
C2192 C2193 1.369 . S
C2192 C2194 1.419 . S
C2192 H2196 0.930 . S
C2193 C2192 1.369 . S
C2193 C2202 1.429 . S
C2194 C2192 1.419 . S
C2194 C2195 1.363 . S
C2194 H2197 0.929 . S
C2195 C2194 1.363 . S
C2195 C2201 1.428 . S
H2196 C2192 0.930 . S
H2197 C2194 0.929 . S
S2198 N2199 1.613 . S
S2198 N2200 1.610 . S
N2199 S2198 1.613 . S
N2199 C2202 1.350 . S
N2200 S2198 1.610 . S
N2200 C2201 1.351 . S
C2201 C2195 1.428 . S
C2201 N2200 1.351 . S
C2201 C2202 1.434 . S
C2202 C2193 1.429 . S
C2202 N2199 1.350 . S
C2202 C2201 1.434 . S
C2203 C2204 1.369 . S
C2203 C2205 1.419 . S
C2203 H2207 0.930 . S
C2204 C2203 1.369 . S
C2204 C2213 1.429 . S
C2205 C2203 1.419 . S
C2205 C2206 1.363 . S
C2205 H2208 0.929 . S
C2206 C2205 1.363 . S
C2206 C2212 1.428 . S
H2207 C2203 0.930 . S
H2208 C2205 0.929 . S
S2209 N2210 1.613 . S
S2209 N2211 1.610 . S
N2210 S2209 1.613 . S
N2210 C2213 1.350 . S
N2211 S2209 1.610 . S
N2211 C2212 1.351 . S
C2212 C2206 1.428 . S
C2212 N2211 1.351 . S
C2212 C2213 1.434 . S
C2213 C2204 1.429 . S
C2213 N2210 1.350 . S
C2213 C2212 1.434 . S
C1225 C549 1.479 . S
C1227 C5 1.485 1_556 S
C1236 C583 1.480 . S
C1238 C39 1.487 1_556 S
C1247 C73 1.487 1_556 S
C1249 C515 1.479 . S
C1258 C889 1.483 . S
C1260 C107 1.489 . S
C1269 C821 1.484 . S
C1271 C141 1.491 . S
C1280 C855 1.482 . S
C1282 C175 1.488 . S
C1291 C1161 1.481 . S
C1293 C209 1.488 1_554 S
C1302 C243 1.482 1_554 S
C1304 C1195 1.475 . S
C1313 C277 1.484 1_554 S
C1315 C1127 1.477 . S
C1324 C311 1.489 . S
C1326 C685 1.484 . S
C1335 C617 1.483 . S
C1337 C345 1.490 . S
C1346 C379 1.493 . S
C1348 C651 1.487 . S
C1357 C957 1.381 . S
C1359 C413 1.375 . S
C1368 C447 1.376 . S
C1370 C991 1.378 . S
C1379 C481 1.383 . S
C1381 C923 1.381 . S
C1390 C1093 1.381 . S
C1392 C719 1.382 . S
C1401 C753 1.381 . S
C1403 C1025 1.375 . S
C1412 C787 1.385 . S
C1414 C1059 1.380 . S
C1423 C2 0.902 . S
C1425 C614 0.882 . S
C1434 C648 0.883 . S
C1436 C36 0.896 . S
C1445 C682 0.897 . S
C1447 C70 0.884 . S
C1456 C104 0.905 . S
C1458 C1124 0.895 . S
C1467 C138 0.902 . S
C1469 C1158 0.896 . S
C1478 C172 0.908 . S
C1480 C1192 0.890 . S
C1489 C206 0.883 . S
C1491 C818 0.896 . S
C1500 C240 0.885 . S
C1502 C852 0.895 . S
C1511 C274 0.897 . S
C1513 C886 0.882 . S
C1522 C512 0.894 . S
C1524 C308 0.903 . S
C1533 C342 0.909 . S
C1535 C546 0.889 . S
C1544 C580 0.898 . S
C1546 C376 0.899 . S
C1555 C410 0.938 . S
C1557 C1022 0.950 . S
C1566 C444 0.951 . S
C1568 C1056 0.941 . S
C1577 C1090 0.943 . S
C1579 C478 0.945 . S
C1588 C920 0.980 . S
C1590 C716 0.986 . S
C1599 C954 0.987 . S
C1601 C750 0.980 . S
C1610 C988 0.980 . S
C1612 C784 0.986 . S
C1621 C33 1.301 . S
C1623 C349 1.293 . S
C1632 C67 1.304 . S
C1634 C383 1.288 . S
C1643 C315 1.290 . S
C1645 C101 1.302 . S
C1654 C135 1.311 . S
C1656 C281 1.296 . S
C1665 C213 1.300 . S
C1667 C169 1.312 . S
C1676 C247 1.302 . S
C1678 C203 1.315 . S
C1687 C145 1.288 . S
C1689 C237 1.307 . S
C1698 C179 1.287 . S
C1700 C271 1.305 . S
C1709 C305 1.308 . S
C1711 C111 1.289 . S
C1720 C339 1.318 . S
C1722 C77 1.296 . S
C1731 C9 1.302 . S
C1733 C373 1.315 . S
C1742 C407 1.312 . S
C1744 C43 1.296 . S
C1753 C441 1.380 . S
C1755 C757 1.365 . S
C1764 C475 1.381 . S
C1766 C791 1.365 . S
C1775 C723 1.358 . S
C1777 C509 1.380 . S
C1786 C543 1.314 . S
C1788 C689 1.291 . S
C1797 C577 1.315 . S
C1799 C621 1.297 . S
C1808 C611 1.316 . S
C1810 C655 1.294 . S
C1819 C645 1.329 . S
C1821 C553 1.311 . S
C1830 C679 1.331 . S
C1832 C587 1.309 . S
C1841 C519 1.313 . S
C1843 C713 1.329 . S
C1852 C485 1.223 . S
C1854 C747 1.237 . S
C1863 C417 1.221 . S
C1865 C781 1.232 . S
C1874 C451 1.220 . S
C1876 C815 1.238 . S
C1885 C1165 1.305 . S
C1887 C849 1.330 . S
C1896 C1199 1.313 . S
C1898 C883 1.328 . S
C1907 C1131 1.304 . S
C1909 C917 1.329 . S
C1918 C1097 1.222 . S
C1920 C951 1.237 . S
C1929 C985 1.238 . S
C1931 C1029 1.222 . S
C1940 C1063 1.225 . S
C1942 C1019 1.235 . S
C1951 C961 1.362 . S
C1953 C1053 1.381 . S
C1962 C995 1.359 . S
C1964 C1087 1.384 . S
C1973 C927 1.357 . S
C1975 C1121 1.380 . S
C1984 C1155 1.310 . S
C1986 C893 1.297 . S
C1995 C825 1.298 . S
C1997 C1189 1.314 . S
C2006 C859 1.297 . S
C2008 C1223 1.310 . S
C2017 C190 1.123 . S
C2019 C20 1.120 . S
C2028 C54 1.124 . S
C2030 C122 1.121 . S
C2039 C156 1.123 . S
C2041 C88 1.120 . S
C2050 C394 1.123 . S
C2052 C224 1.121 . S
C2061 C326 1.124 . S
C2063 C258 1.120 . S
C2072 C360 1.123 . S
C2074 C292 1.121 . S
C2083 C598 1.142 . S
C2085 C428 1.144 . S
C2094 C530 1.144 . S
C2096 C462 1.146 . S
C2105 C564 1.143 . S
C2107 C496 1.144 . S
C2116 C632 1.164 . S
C2118 C802 1.165 . S
C2127 C734 1.159 . S
C2129 C666 1.168 . S
C2138 C700 1.167 . S
C2140 C768 1.160 . S
C2149 C1006 1.165 . S
C2151 C836 1.165 . S
C2160 C938 1.165 . S
C2162 C870 1.165 . S
C2171 C904 1.165 . S
C2173 C972 1.161 . S
C2182 C1210 1.142 . S
C2184 C1040 1.144 . S
C2193 C1142 1.146 . S
C2195 C1074 1.143 . S
C2204 C1176 1.146 . S
C2206 C1108 1.142 . S
