# Generated by pormake.
# Topology uot, (4)-cn, num edge types: 1
# Building blocks:
#     Node 0, Type 0, BuildingBlock: CEKHIL_clean_sbu_0, # of connection points: 4
#     Node 1, Type 0, BuildingBlock: CEKHIL_clean_sbu_0, # of connection points: 4
#     Node 2, Type 0, BuildingBlock: CEKHIL_clean_sbu_0, # of connection points: 4
#     Node 3, Type 0, BuildingBlock: CEKHIL_clean_sbu_0, # of connection points: 4
#     Node 4, Type 0, BuildingBlock: CEKHIL_clean_sbu_0, # of connection points: 4
#     Node 5, Type 0, BuildingBlock: CEKHIL_clean_sbu_0, # of connection points: 4
#     Node 6, Type 0, BuildingBlock: CEKHIL_clean_sbu_0, # of connection points: 4
#     Node 7, Type 0, BuildingBlock: CEKHIL_clean_sbu_0, # of connection points: 4
#     Node 8, Type 0, BuildingBlock: CEKHIL_clean_sbu_0, # of connection points: 4
#     Node 9, Type 0, BuildingBlock: CEKHIL_clean_sbu_0, # of connection points: 4
#     Node 10, Type 0, BuildingBlock: CEKHIL_clean_sbu_0, # of connection points: 4
#     Node 11, Type 0, BuildingBlock: CEKHIL_clean_sbu_0, # of connection points: 4
#     Node 12, Type 0, BuildingBlock: CEKHIL_clean_sbu_0, # of connection points: 4
#     Node 13, Type 0, BuildingBlock: CEKHIL_clean_sbu_0, # of connection points: 4
#     Node 14, Type 0, BuildingBlock: CEKHIL_clean_sbu_0, # of connection points: 4
#     Node 15, Type 0, BuildingBlock: CEKHIL_clean_sbu_0, # of connection points: 4
#     Edge 16, Type (0, 0), BuildingBlock: CIFDUS_clean_linker_0, # of connection points: 2
#     Edge 17, Type (0, 0), BuildingBlock: CIFDUS_clean_linker_0, # of connection points: 2
#     Edge 18, Type (0, 0), BuildingBlock: CIFDUS_clean_linker_0, # of connection points: 2
#     Edge 19, Type (0, 0), BuildingBlock: CIFDUS_clean_linker_0, # of connection points: 2
#     Edge 20, Type (0, 0), BuildingBlock: CIFDUS_clean_linker_0, # of connection points: 2
#     Edge 21, Type (0, 0), BuildingBlock: CIFDUS_clean_linker_0, # of connection points: 2
#     Edge 22, Type (0, 0), BuildingBlock: CIFDUS_clean_linker_0, # of connection points: 2
#     Edge 23, Type (0, 0), BuildingBlock: CIFDUS_clean_linker_0, # of connection points: 2
#     Edge 24, Type (0, 0), BuildingBlock: CIFDUS_clean_linker_0, # of connection points: 2
#     Edge 25, Type (0, 0), BuildingBlock: CIFDUS_clean_linker_0, # of connection points: 2
#     Edge 26, Type (0, 0), BuildingBlock: CIFDUS_clean_linker_0, # of connection points: 2
#     Edge 27, Type (0, 0), BuildingBlock: CIFDUS_clean_linker_0, # of connection points: 2
#     Edge 28, Type (0, 0), BuildingBlock: CIFDUS_clean_linker_0, # of connection points: 2
#     Edge 29, Type (0, 0), BuildingBlock: CIFDUS_clean_linker_0, # of connection points: 2
#     Edge 30, Type (0, 0), BuildingBlock: CIFDUS_clean_linker_0, # of connection points: 2
#     Edge 31, Type (0, 0), BuildingBlock: CIFDUS_clean_linker_0, # of connection points: 2
#     Edge 32, Type (0, 0), BuildingBlock: CIFDUS_clean_linker_0, # of connection points: 2
#     Edge 33, Type (0, 0), BuildingBlock: CIFDUS_clean_linker_0, # of connection points: 2
#     Edge 34, Type (0, 0), BuildingBlock: CIFDUS_clean_linker_0, # of connection points: 2
#     Edge 35, Type (0, 0), BuildingBlock: CIFDUS_clean_linker_0, # of connection points: 2
#     Edge 36, Type (0, 0), BuildingBlock: CIFDUS_clean_linker_0, # of connection points: 2
#     Edge 37, Type (0, 0), BuildingBlock: CIFDUS_clean_linker_0, # of connection points: 2
#     Edge 38, Type (0, 0), BuildingBlock: CIFDUS_clean_linker_0, # of connection points: 2
#     Edge 39, Type (0, 0), BuildingBlock: CIFDUS_clean_linker_0, # of connection points: 2
#     Edge 40, Type (0, 0), BuildingBlock: CIFDUS_clean_linker_0, # of connection points: 2
#     Edge 41, Type (0, 0), BuildingBlock: CIFDUS_clean_linker_0, # of connection points: 2
#     Edge 42, Type (0, 0), BuildingBlock: CIFDUS_clean_linker_0, # of connection points: 2
#     Edge 43, Type (0, 0), BuildingBlock: CIFDUS_clean_linker_0, # of connection points: 2
#     Edge 44, Type (0, 0), BuildingBlock: CIFDUS_clean_linker_0, # of connection points: 2
#     Edge 45, Type (0, 0), BuildingBlock: CIFDUS_clean_linker_0, # of connection points: 2
#     Edge 46, Type (0, 0), BuildingBlock: CIFDUS_clean_linker_0, # of connection points: 2
#     Edge 47, Type (0, 0), BuildingBlock: CIFDUS_clean_linker_0, # of connection points: 2
# Relax obj value: 0.066
# Max RMSD: 0.082
# Mean RMSD: 0.082
data_MOF--net-uot--node1-CEKHIL_clean_sbu_0--edge1-CIFDUS_clean_linker_0
_symmetry_space_group_name_H-M    P1
_symmetry_Int_Tables_number       1
_symmetry_cell_setting            triclinic
loop_
_symmetry_equiv_pos_as_xyz
'x, y, z'
_cell_length_a     38.737794
_cell_length_b     38.71294
_cell_length_c     35.368706
_cell_angle_alpha  89.985057
_cell_angle_beta   89.942777
_cell_angle_gamma 89.920222
loop_
_atom_site_label
_atom_site_type_symbol
_atom_site_fract_x
_atom_site_fract_y
_atom_site_fract_z
_atom_type_partial_charge
Co0 Co 0.1839 0.40874 0.34313 0.0
O1 O 0.2041 0.3679 0.36474 0.0
O2 O 0.23154 0.40485 0.32755 0.0
C3 C 0.13471 0.38323 0.32307 0.0
O4 O 0.17171 0.4527 0.31415 0.0
Co5 Co 0.11403 0.43945 0.3713 0.0
O6 O 0.11521 0.46397 0.32219 0.0
C7 C 0.17899 0.45397 0.41289 0.0
C8 C 0.23212 0.37618 0.3467 0.0
C9 C 0.14386 0.46904 0.30548 0.0
O10 O 0.19727 0.43685 0.38894 0.0
O11 O 0.14608 0.4566 0.41136 0.0
O12 O 0.16286 0.38083 0.30324 0.0
O13 O 0.13795 0.39819 0.35545 0.0
Co14 Co 0.41278 0.80782 0.66242 0.0
O15 O 0.37291 0.78733 0.64014 0.0
O16 O 0.41497 0.75793 0.66803 0.0
C17 C 0.38409 0.84971 0.69402 0.0
O18 O 0.45756 0.82119 0.68877 0.0
Co19 Co 0.43061 0.88446 0.6424 0.0
O20 O 0.46296 0.87916 0.68552 0.0
C21 C 0.44293 0.82844 0.58712 0.0
C22 C 0.38555 0.75773 0.65023 0.0
C23 C 0.47249 0.84971 0.69786 0.0
O24 O 0.43757 0.80526 0.61245 0.0
O25 O 0.43801 0.8608 0.59256 0.0
O26 O 0.38677 0.81896 0.70849 0.0
O27 O 0.39587 0.85292 0.66015 0.0
Co28 Co 0.8088 0.60066 0.34585 0.0
O29 O 0.78653 0.64069 0.36696 0.0
O30 O 0.75902 0.59449 0.34601 0.0
C31 C 0.84449 0.62996 0.30666 0.0
O32 O 0.82309 0.55519 0.32079 0.0
Co33 Co 0.88819 0.58933 0.35518 0.0
O34 O 0.88091 0.55548 0.3138 0.0
C35 C 0.84057 0.57581 0.41923 0.0
C36 C 0.75738 0.62556 0.35995 0.0
C37 C 0.85126 0.54268 0.30695 0.0
O38 O 0.81384 0.5793 0.39785 0.0
O39 O 0.87148 0.58189 0.40817 0.0
O40 O 0.81278 0.62384 0.29686 0.0
O41 O 0.85238 0.62115 0.3407 0.0
Co42 Co 0.59004 0.19173 0.65283 0.0
O43 O 0.63254 0.20657 0.63065 0.0
O44 O 0.59735 0.24041 0.66338 0.0
C45 C 0.61019 0.14246 0.6786 0.0
O46 O 0.54438 0.18405 0.68064 0.0
Co47 Co 0.55765 0.12297 0.62277 0.0
O48 O 0.52184 0.13323 0.66118 0.0
C49 C 0.55931 0.18482 0.57535 0.0
C50 C 0.62581 0.237 0.64407 0.0
C51 C 0.52095 0.1604 0.68153 0.0
O52 O 0.56515 0.20369 0.60448 0.0
O53 O 0.55986 0.15181 0.57594 0.0
O54 O 0.6148 0.17169 0.69594 0.0
O55 O 0.59748 0.14471 0.64507 0.0
Co56 Co 0.20035 0.58183 0.67302 0.0
O57 O 0.22404 0.62238 0.65648 0.0
O58 O 0.24961 0.57605 0.68067 0.0
C59 C 0.15879 0.60925 0.70604 0.0
O60 O 0.18381 0.53585 0.69415 0.0
Co61 Co 0.12458 0.56938 0.64707 0.0
O62 O 0.12789 0.52736 0.67903 0.0
C63 C 0.18187 0.5638 0.59299 0.0
C64 C 0.25233 0.60699 0.66657 0.0
C65 C 0.15578 0.51806 0.69523 0.0
O66 O 0.20366 0.56213 0.62031 0.0
O67 O 0.14992 0.57107 0.59768 0.0
O68 O 0.18879 0.60359 0.72127 0.0
O69 O 0.15616 0.60129 0.67078 0.0
Co70 Co 0.59201 0.82448 0.33728 0.0
O71 O 0.62776 0.80864 0.37074 0.0
O72 O 0.59582 0.77439 0.33512 0.0
C73 C 0.62398 0.86756 0.31158 0.0
O74 O 0.55312 0.83148 0.29887 0.0
Co75 Co 0.56361 0.90026 0.34071 0.0
O76 O 0.54225 0.88829 0.29169 0.0
C77 C 0.5371 0.84603 0.39333 0.0
C78 C 0.62107 0.77759 0.35912 0.0
C79 C 0.53792 0.85689 0.28222 0.0
O80 O 0.55654 0.82228 0.37913 0.0
O81 O 0.53786 0.87775 0.38301 0.0
O82 O 0.62687 0.83619 0.29887 0.0
O83 O 0.60385 0.87125 0.34023 0.0
Co84 Co 0.8145 0.41242 0.66595 0.0
O85 O 0.79163 0.37399 0.64302 0.0
O86 O 0.7649 0.41759 0.6712 0.0
C87 C 0.85356 0.38109 0.6986 0.0
O88 O 0.82995 0.45586 0.69374 0.0
Co89 Co 0.89217 0.42696 0.65 0.0
O90 O 0.88801 0.45507 0.69663 0.0
C91 C 0.83855 0.45186 0.59638 0.0
C92 C 0.76286 0.38791 0.65405 0.0
C93 C 0.85883 0.46701 0.70688 0.0
O94 O 0.81424 0.43861 0.61652 0.0
O95 O 0.87068 0.44897 0.60435 0.0
O96 O 0.82261 0.38562 0.71176 0.0
O97 O 0.85886 0.39253 0.66478 0.0
Co98 Co 0.40219 0.17485 0.33302 0.0
O99 O 0.35973 0.18746 0.35732 0.0
O100 O 0.39029 0.22201 0.32027 0.0
C101 C 0.3849 0.12276 0.31151 0.0
O102 O 0.44677 0.17019 0.3025 0.0
Co103 Co 0.44283 0.11011 0.36245 0.0
O104 O 0.47417 0.12118 0.32006 0.0
C105 C 0.44667 0.17612 0.40379 0.0
C106 C 0.36327 0.21754 0.34162 0.0
C107 C 0.47175 0.1483 0.29985 0.0
O108 O 0.42906 0.19173 0.37823 0.0
O109 O 0.45275 0.14365 0.40388 0.0
O110 O 0.37687 0.15066 0.29307 0.0
O111 O 0.39943 0.12759 0.34385 0.0
Co112 Co 0.68548 0.91884 0.84466 0.0
O113 O 0.70465 0.87773 0.86623 0.0
O114 O 0.73383 0.91515 0.83115 0.0
C115 C 0.63687 0.89408 0.82189 0.0
O116 O 0.67389 0.96355 0.81713 0.0
Co117 Co 0.61489 0.94742 0.87419 0.0
O118 O 0.61819 0.97706 0.8286 0.0
C119 C 0.67808 0.95408 0.92016 0.0
C120 C 0.73358 0.8865 0.8504 0.0
C121 C 0.6466 0.98175 0.81118 0.0
O122 O 0.69724 0.94549 0.89198 0.0
O123 O 0.64507 0.9527 0.9197 0.0
O124 O 0.66555 0.89197 0.80293 0.0
O125 O 0.63943 0.90792 0.85488 0.0
Co126 Co 0.90933 0.33101 0.14917 0.0
O127 O 0.86779 0.31616 0.12427 0.0
O128 O 0.90149 0.28252 0.15897 0.0
C129 C 0.8874 0.38037 0.17412 0.0
O130 O 0.95348 0.33683 0.1799 0.0
Co131 Co 0.94595 0.4001 0.12826 0.0
O132 O 0.97119 0.39209 0.17609 0.0
C133 C 0.95719 0.33755 0.08137 0.0
C134 C 0.87383 0.2858 0.13848 0.0
C135 C 0.97302 0.36194 0.19027 0.0
O136 O 0.93757 0.31927 0.10283 0.0
O137 O 0.96251 0.3699 0.08605 0.0
O138 O 0.88212 0.35088 0.1907 0.0
O139 O 0.90275 0.37862 0.14178 0.0
Co140 Co 0.31889 0.08682 0.83624 0.0
O141 O 0.29929 0.12287 0.86658 0.0
O142 O 0.26898 0.08222 0.8378 0.0
C143 C 0.35378 0.12159 0.80173 0.0
O144 O 0.33044 0.04603 0.80199 0.0
Co145 Co 0.39835 0.07243 0.8384 0.0
O146 O 0.38815 0.0432 0.79386 0.0
C147 C 0.35172 0.04154 0.89641 0.0
C148 C 0.2693 0.11025 0.85812 0.0
C149 C 0.3576 0.03331 0.78624 0.0
O150 O 0.32474 0.05582 0.88188 0.0
O151 O 0.38249 0.0468 0.88439 0.0
O152 O 0.32152 0.11796 0.79282 0.0
O153 O 0.36302 0.10696 0.83288 0.0
Co154 Co 0.08106 0.67646 0.14731 0.0
O155 O 0.12091 0.69071 0.11912 0.0
O156 O 0.0912 0.72478 0.15739 0.0
C157 C 0.10378 0.6265 0.1695 0.0
O158 O 0.03889 0.66986 0.18153 0.0
Co159 Co 0.04419 0.60737 0.124 0.0
O160 O 0.01425 0.61851 0.16755 0.0
C161 C 0.02984 0.67197 0.08225 0.0
C162 C 0.11734 0.72086 0.1346 0.0
C163 C 0.01553 0.64653 0.18639 0.0
O164 O 0.04955 0.68975 0.10407 0.0
O165 O 0.02629 0.63919 0.08428 0.0
O166 O 0.11075 0.6556 0.186 0.0
O167 O 0.08682 0.62905 0.1383 0.0
Co168 Co 0.69257 0.10307 0.16968 0.0
O169 O 0.71306 0.13984 0.14109 0.0
O170 O 0.74232 0.10194 0.17531 0.0
C171 C 0.65123 0.13583 0.19722 0.0
O172 O 0.68004 0.06229 0.20369 0.0
Co173 Co 0.61543 0.08209 0.15747 0.0
O174 O 0.62208 0.05787 0.20622 0.0
C175 C 0.67095 0.05324 0.10827 0.0
C176 C 0.74258 0.12948 0.15418 0.0
C177 C 0.65211 0.04948 0.21759 0.0
O178 O 0.69464 0.07083 0.12492 0.0
O179 O 0.63878 0.05525 0.11637 0.0
O180 O 0.68231 0.13507 0.21087 0.0
O181 O 0.64705 0.11958 0.16574 0.0
Co182 Co 0.09413 0.29637 0.82676 0.0
O183 O 0.1345 0.27354 0.84568 0.0
O184 O 0.08859 0.24663 0.8228 0.0
C185 C 0.12156 0.33588 0.79087 0.0
O186 O 0.04851 0.31193 0.80361 0.0
Co187 Co 0.0822 0.374 0.8471 0.0
O188 O 0.04154 0.36916 0.81348 0.0
C189 C 0.07383 0.3202 0.9049 0.0
C190 C 0.11936 0.24466 0.83745 0.0
C191 C 0.03175 0.34045 0.7995 0.0
O192 O 0.07347 0.29657 0.87933 0.0
O193 O 0.08136 0.35177 0.89816 0.0
O194 O 0.11642 0.30491 0.77789 0.0
O195 O 0.11357 0.34049 0.82586 0.0
Co196 Co 0.31321 0.8931 0.15348 0.0
O197 O 0.29078 0.85326 0.13216 0.0
O198 O 0.2638 0.8961 0.16129 0.0
C199 C 0.35583 0.86378 0.18363 0.0
O200 O 0.32717 0.9376 0.18005 0.0
Co201 Co 0.38973 0.91181 0.13441 0.0
O202 O 0.38494 0.94355 0.17813 0.0
C203 C 0.33359 0.9266 0.07945 0.0
C204 C 0.26199 0.86627 0.14454 0.0
C205 C 0.35526 0.95278 0.18999 0.0
O206 O 0.30996 0.91868 0.10364 0.0
O207 O 0.36593 0.92244 0.08557 0.0
O208 O 0.32541 0.8665 0.19888 0.0
O209 O 0.35838 0.87601 0.14989 0.0
Co210 Co 0.91194 0.70081 0.814 0.0
O211 O 0.87169 0.72328 0.83292 0.0
O212 O 0.91344 0.74975 0.80136 0.0
C213 C 0.88437 0.65514 0.78835 0.0
O214 O 0.95702 0.68424 0.79026 0.0
Co215 Co 0.92893 0.62835 0.84879 0.0
O216 O 0.96844 0.63089 0.81325 0.0
C217 C 0.93968 0.69142 0.89309 0.0
C218 C 0.88393 0.75166 0.81898 0.0
C219 C 0.97589 0.65683 0.79254 0.0
O220 O 0.93655 0.70998 0.8632 0.0
O221 O 0.93305 0.65906 0.89413 0.0
O222 O 0.8864 0.68405 0.76983 0.0
O223 O 0.89548 0.65628 0.82264 0.0
H224 H 0.23828 0.31469 0.38223 0.0
H225 H 0.29271 0.38396 0.30755 0.0
H226 H 0.33901 0.34139 0.30017 0.0
H227 H 0.3623 0.28292 0.31227 0.0
H228 H 0.30636 0.21402 0.38622 0.0
H229 H 0.26242 0.258 0.3964 0.0
C230 C 0.26041 0.32067 0.3646 0.0
C231 C 0.26197 0.35237 0.34537 0.0
C232 C 0.28656 0.29597 0.36006 0.0
C233 C 0.29088 0.35971 0.32269 0.0
C234 C 0.31729 0.33532 0.31832 0.0
C235 C 0.34055 0.27763 0.33069 0.0
C236 C 0.33751 0.24512 0.3482 0.0
C237 C 0.31512 0.3031 0.33639 0.0
C238 C 0.30926 0.23871 0.37216 0.0
C239 C 0.28409 0.26387 0.37809 0.0
H240 H 0.38449 0.69758 0.69106 0.0
H241 H 0.34184 0.74739 0.59238 0.0
H242 H 0.29963 0.70138 0.58559 0.0
H243 H 0.26927 0.65259 0.61309 0.0
H244 H 0.3091 0.60254 0.71272 0.0
H245 H 0.35829 0.64256 0.71357 0.0
C246 C 0.36648 0.69776 0.66761 0.0
C247 C 0.3658 0.72602 0.64261 0.0
C248 C 0.34152 0.67148 0.66437 0.0
C249 C 0.34242 0.72612 0.61231 0.0
C250 C 0.31824 0.69987 0.6084 0.0
C251 C 0.28909 0.65007 0.6346 0.0
C252 C 0.28548 0.62524 0.66313 0.0
C253 C 0.31665 0.67332 0.63516 0.0
C254 C 0.31146 0.62166 0.69051 0.0
C255 C 0.33939 0.64468 0.69112 0.0
H256 H 0.62198 0.71146 0.33086 0.0
H257 H 0.67192 0.77828 0.41174 0.0
H258 H 0.71629 0.73493 0.42261 0.0
H259 H 0.74509 0.68154 0.40342 0.0
H260 H 0.69647 0.61398 0.32266 0.0
H261 H 0.64727 0.65365 0.318 0.0
C262 C 0.6422 0.71622 0.35138 0.0
C263 C 0.64386 0.74837 0.36998 0.0
C264 C 0.6681 0.69112 0.35734 0.0
C265 C 0.67017 0.75401 0.39664 0.0
C266 C 0.69567 0.72921 0.40289 0.0
C267 C 0.72341 0.67516 0.38533 0.0
C268 C 0.72459 0.6451 0.36312 0.0
C269 C 0.69554 0.69822 0.38249 0.0
C270 C 0.69617 0.63697 0.34011 0.0
C271 C 0.66815 0.65981 0.33721 0.0
H272 H 0.62764 0.30059 0.67851 0.0
H273 H 0.67873 0.23786 0.59432 0.0
H274 H 0.7231 0.28151 0.5866 0.0
H275 H 0.75074 0.33422 0.60794 0.0
H276 H 0.70229 0.39732 0.69329 0.0
H277 H 0.65323 0.35733 0.69577 0.0
C278 C 0.64827 0.29676 0.6582 0.0
C279 C 0.65015 0.26576 0.63749 0.0
C280 C 0.67422 0.32199 0.65412 0.0
C281 C 0.67692 0.26121 0.61109 0.0
C282 C 0.70234 0.28621 0.60653 0.0
C283 C 0.72921 0.33955 0.62672 0.0
C284 C 0.73027 0.3684 0.65068 0.0
C285 C 0.70173 0.3162 0.62856 0.0
C286 C 0.70203 0.37522 0.67452 0.0
C287 C 0.67413 0.3522 0.67617 0.0
H288 H 0.79084 0.8847 0.80479 0.0
H289 H 0.74416 0.83673 0.90249 0.0
H290 H 0.7894 0.7932 0.90356 0.0
H291 H 0.83804 0.76521 0.8733 0.0
H292 H 0.88501 0.8101 0.77434 0.0
H293 H 0.84425 0.85881 0.77749 0.0
C294 C 0.791 0.86502 0.82661 0.0
C295 C 0.76396 0.86364 0.85325 0.0
C296 C 0.81693 0.83945 0.82667 0.0
C297 C 0.76441 0.83807 0.8814 0.0
C298 C 0.79028 0.81315 0.88207 0.0
C299 C 0.83962 0.78582 0.85257 0.0
C300 C 0.86402 0.78391 0.8233 0.0
C301 C 0.81597 0.81303 0.85424 0.0
C302 C 0.86629 0.81106 0.79709 0.0
C303 C 0.84287 0.83873 0.79878 0.0
H304 H 0.74911 0.18572 0.10958 0.0
H305 H 0.80581 0.12212 0.1882 0.0
H306 H 0.85321 0.16393 0.18803 0.0
H307 H 0.8756 0.22156 0.17049 0.0
H308 H 0.81701 0.28532 0.09353 0.0
H309 H 0.77333 0.24041 0.08815 0.0
C310 C 0.77204 0.18068 0.12629 0.0
C311 C 0.77379 0.15101 0.14913 0.0
C312 C 0.79869 0.20512 0.12671 0.0
C313 C 0.8038 0.14479 0.17038 0.0
C314 C 0.83081 0.16882 0.17049 0.0
C315 C 0.85346 0.22543 0.15223 0.0
C316 C 0.8494 0.25693 0.13278 0.0
C317 C 0.82809 0.19956 0.14958 0.0
C318 C 0.82064 0.26149 0.1091 0.0
C319 C 0.79562 0.2358 0.10597 0.0
H320 H 0.16728 0.23101 0.89014 0.0
H321 H 0.11303 0.18468 0.79679 0.0
H322 H 0.15217 0.13477 0.79876 0.0
H323 H 0.20732 0.10915 0.82113 0.0
H324 H 0.2613 0.15745 0.91373 0.0
H325 H 0.21639 0.20129 0.91856 0.0
C326 C 0.16366 0.20967 0.87066 0.0
C327 C 0.13779 0.21165 0.84299 0.0
C328 C 0.18634 0.18147 0.87178 0.0
C329 C 0.13291 0.18369 0.81829 0.0
C330 C 0.15541 0.15528 0.81929 0.0
C331 C 0.20863 0.12867 0.84306 0.0
C332 C 0.2378 0.13034 0.86675 0.0
C333 C 0.18301 0.15449 0.84508 0.0
C334 C 0.23929 0.15584 0.89494 0.0
C335 C 0.2137 0.18104 0.89761 0.0
H336 H 0.24922 0.8103 0.10112 0.0
H337 H 0.20179 0.87733 0.18355 0.0
H338 H 0.15114 0.83955 0.18601 0.0
H339 H 0.12267 0.78443 0.1686 0.0
H340 H 0.17132 0.71827 0.08589 0.0
H341 H 0.21883 0.75879 0.07956 0.0
C342 C 0.22765 0.81688 0.11933 0.0
C343 C 0.22942 0.84637 0.14236 0.0
C344 C 0.19882 0.79501 0.12075 0.0
C345 C 0.20108 0.85473 0.16552 0.0
C346 C 0.17218 0.83304 0.16708 0.0
C347 C 0.14345 0.77916 0.14886 0.0
C348 C 0.14355 0.74811 0.12811 0.0
C349 C 0.17108 0.80265 0.14542 0.0
C350 C 0.17064 0.74175 0.10252 0.0
C351 C 0.19793 0.76492 0.09885 0.0
H352 H 0.09956 0.48104 0.24844 0.0
H353 H 0.191 0.52085 0.30211 0.0
H354 H 0.1874 0.57351 0.26374 0.0
H355 H 0.15496 0.61009 0.21869 0.0
H356 H 0.06622 0.56756 0.16181 0.0
H357 H 0.07201 0.5141 0.19744 0.0
C358 C 0.11898 0.50107 0.25115 0.0
C359 C 0.14534 0.49744 0.27799 0.0
C360 C 0.11698 0.53086 0.22874 0.0
C361 C 0.17061 0.52321 0.28132 0.0
C362 C 0.16838 0.55336 0.25965 0.0
C363 C 0.13715 0.58894 0.21394 0.0
C364 C 0.10986 0.59299 0.18818 0.0
C365 C 0.14118 0.55779 0.23389 0.0
C366 C 0.08729 0.56526 0.18166 0.0
C367 C 0.09054 0.53462 0.20208 0.0
H368 H 0.48472 0.88702 0.76034 0.0
H369 H 0.53028 0.81118 0.68648 0.0
H370 H 0.58605 0.81782 0.71859 0.0
H371 H 0.62266 0.84896 0.76484 0.0
H372 H 0.57457 0.92081 0.84193 0.0
H373 H 0.51912 0.9121 0.81152 0.0
C374 C 0.50678 0.87154 0.75185 0.0
C375 C 0.50375 0.84879 0.72126 0.0
C376 C 0.53837 0.87518 0.77067 0.0
C377 C 0.53221 0.82866 0.71031 0.0
C378 C 0.56407 0.83269 0.72841 0.0
C379 C 0.59995 0.8625 0.77502 0.0
C380 C 0.60295 0.88612 0.80502 0.0
C381 C 0.56764 0.85648 0.75812 0.0
C382 C 0.57322 0.90292 0.81855 0.0
C383 C 0.54136 0.8979 0.80122 0.0
H384 H 0.84463 0.39402 0.23387 0.0
H385 H 0.91626 0.44238 0.1568 0.0
H386 H 0.91062 0.4968 0.19045 0.0
H387 H 0.88769 0.53028 0.24359 0.0
H388 H 0.81247 0.48463 0.31812 0.0
H389 H 0.81661 0.42983 0.28344 0.0
C390 C 0.85883 0.41655 0.22441 0.0
C391 C 0.88137 0.41386 0.19329 0.0
C392 C 0.85472 0.44832 0.24337 0.0
C393 C 0.89909 0.44345 0.1809 0.0
C394 C 0.89586 0.47472 0.20012 0.0
C395 C 0.87198 0.50837 0.25196 0.0
C396 C 0.85006 0.51122 0.28344 0.0
C397 C 0.87413 0.47734 0.23163 0.0
C398 C 0.82944 0.48295 0.29382 0.0
C399 C 0.832 0.45161 0.27417 0.0
H400 H 0.45405 0.14955 0.66579 0.0
H401 H 0.52297 0.17661 0.75655 0.0
H402 H 0.47603 0.16902 0.80251 0.0
H403 H 0.41708 0.14815 0.81693 0.0
H404 H 0.34805 0.12343 0.72524 0.0
H405 H 0.39325 0.13684 0.67939 0.0
C406 C 0.45851 0.15448 0.69559 0.0
C407 C 0.49175 0.16338 0.708 0.0
C408 C 0.43153 0.1501 0.72157 0.0
C409 C 0.49742 0.16995 0.7465 0.0
C410 C 0.4707 0.16529 0.77272 0.0
C411 C 0.41189 0.14624 0.78688 0.0
C412 C 0.37949 0.13451 0.77441 0.0
C413 C 0.43793 0.15436 0.76064 0.0
C414 C 0.3728 0.13244 0.73547 0.0
C415 C 0.39867 0.13995 0.70926 0.0
H416 H 0.13044 0.45666 0.6722 0.0
H417 H 0.18052 0.50694 0.76595 0.0
H418 H 0.17549 0.45411 0.80377 0.0
H419 H 0.15375 0.39475 0.81105 0.0
H420 H 0.10732 0.34311 0.71587 0.0
H421 H 0.11439 0.39519 0.67731 0.0
C422 C 0.14044 0.45582 0.70084 0.0
C423 C 0.15549 0.48548 0.71661 0.0
C424 C 0.13815 0.42521 0.72195 0.0
C425 C 0.16888 0.48424 0.75341 0.0
C426 C 0.1659 0.45415 0.77499 0.0
C427 C 0.14559 0.39486 0.78171 0.0
C428 C 0.12989 0.36538 0.76626 0.0
C429 C 0.15018 0.42465 0.75969 0.0
C430 C 0.11964 0.36554 0.72821 0.0
C431 C 0.12347 0.39533 0.70629 0.0
H432 H 0.42229 0.86513 0.15963 0.0
H433 H 0.35937 0.84066 0.25674 0.0
H434 H 0.41143 0.83082 0.29445 0.0
H435 H 0.47463 0.83559 0.30149 0.0
H436 H 0.5367 0.86585 0.20606 0.0
H437 H 0.48526 0.86668 0.16565 0.0
C438 C 0.41988 0.85736 0.18896 0.0
C439 C 0.38695 0.85399 0.20547 0.0
C440 C 0.44986 0.85274 0.21065 0.0
C441 C 0.38438 0.84362 0.24342 0.0
C442 C 0.41415 0.83804 0.26499 0.0
C443 C 0.47684 0.84132 0.27155 0.0
C444 C 0.50922 0.84991 0.2563 0.0
C445 C 0.44698 0.84332 0.24913 0.0
C446 C 0.51199 0.85849 0.21794 0.0
C447 C 0.48259 0.85927 0.19506 0.0
H448 H 0.83556 0.52996 0.68788 0.0
H449 H 0.88522 0.47317 0.77735 0.0
H450 H 0.89484 0.52689 0.81249 0.0
H451 H 0.89362 0.59013 0.81474 0.0
H452 H 0.8496 0.64751 0.72194 0.0
H453 H 0.83321 0.59351 0.69087 0.0
C454 C 0.8477 0.52948 0.71551 0.0
C455 C 0.85917 0.49799 0.7306 0.0
C456 C 0.85461 0.56053 0.73449 0.0
C457 C 0.87585 0.49733 0.76574 0.0
C458 C 0.88153 0.52797 0.78558 0.0
C459 C 0.8802 0.59084 0.78788 0.0
C460 C 0.8729 0.62269 0.77056 0.0
C461 C 0.87176 0.55977 0.76978 0.0
C462 C 0.85564 0.62323 0.73568 0.0
C463 C 0.84621 0.5924 0.71797 0.0
H464 H 0.58506 0.1448 0.17388 0.0
H465 H 0.65052 0.15112 0.27233 0.0
H466 H 0.60001 0.15982 0.31248 0.0
H467 H 0.53714 0.15829 0.32044 0.0
H468 H 0.4711 0.1523 0.22283 0.0
H469 H 0.52194 0.15125 0.18118 0.0
C470 C 0.58825 0.14865 0.20405 0.0
C471 C 0.62139 0.14684 0.22023 0.0
C472 C 0.55904 0.15352 0.22701 0.0
C473 C 0.62528 0.15225 0.25924 0.0
C474 C 0.5964 0.15709 0.28225 0.0
C475 C 0.53403 0.15759 0.28995 0.0
C476 C 0.50081 0.15531 0.27442 0.0
C477 C 0.56319 0.15672 0.26656 0.0
C478 C 0.49663 0.15436 0.23509 0.0
C479 C 0.52564 0.15346 0.21145 0.0
H480 H 0.60299 0.99574 0.75425 0.0
H481 H 0.69366 0.03364 0.81101 0.0
H482 H 0.69069 0.08754 0.77462 0.0
H483 H 0.65937 0.12532 0.72977 0.0
H484 H 0.57182 0.08455 0.66932 0.0
H485 H 0.57634 0.03031 0.70391 0.0
C486 C 0.62236 0.01566 0.75807 0.0
C487 C 0.64837 0.01114 0.78512 0.0
C488 C 0.62076 0.0461 0.73674 0.0
C489 C 0.67357 0.03675 0.78998 0.0
C490 C 0.67169 0.06757 0.76946 0.0
C491 C 0.6415 0.1044 0.72413 0.0
C492 C 0.61497 0.10901 0.69759 0.0
C493 C 0.64495 0.0728 0.74331 0.0
C494 C 0.5923 0.08166 0.68983 0.0
C495 C 0.59486 0.05062 0.7096 0.0
H496 H 0.11999 0.3454 0.26034 0.0
H497 H 0.0721 0.40478 0.34938 0.0
H498 H 0.0166 0.40109 0.31753 0.0
H499 H 0.98291 0.38633 0.26076 0.0
H500 H 0.02915 0.32355 0.17391 0.0
H501 H 0.08388 0.32263 0.20863 0.0
C502 C 0.09729 0.35712 0.27296 0.0
C503 C 0.10041 0.37619 0.30657 0.0
C504 C 0.06514 0.35424 0.25489 0.0
C505 C 0.07066 0.3906 0.32309 0.0
C506 C 0.0388 0.38846 0.30494 0.0
C507 C 0.00479 0.37171 0.25015 0.0
C508 C 0.00235 0.35494 0.21519 0.0
C509 C 0.03593 0.37115 0.27034 0.0
C510 C 0.03064 0.33624 0.20117 0.0
C511 C 0.06192 0.336 0.2208 0.0
H512 H 0.35173 0.96829 0.81087 0.0
H513 H 0.35889 0.02971 0.70966 0.0
H514 H 0.36473 0.97715 0.67137 0.0
H515 H 0.3736 0.9145 0.66788 0.0
H516 H 0.3697 0.85311 0.76965 0.0
H517 H 0.35668 0.90486 0.80679 0.0
C518 C 0.35369 0.9699 0.7803 0.0
C519 C 0.35438 0.0024 0.76272 0.0
C520 C 0.35816 0.93973 0.75886 0.0
C521 C 0.35781 0.00471 0.72339 0.0
C522 C 0.36142 0.97476 0.70168 0.0
C523 C 0.36959 0.91238 0.69815 0.0
C524 C 0.37288 0.8801 0.71609 0.0
C525 C 0.36256 0.94223 0.71926 0.0
C526 C 0.36736 0.87769 0.75524 0.0
C527 C 0.35998 0.90726 0.77646 0.0
H528 H 0.90954 0.65259 0.32083 0.0
H529 H 0.83998 0.62643 0.23 0.0
H530 H 0.88685 0.63244 0.18431 0.0
H531 H 0.94849 0.63932 0.17109 0.0
H532 H 0.01857 0.6666 0.2607 0.0
H533 H 0.97048 0.66651 0.30617 0.0
C534 C 0.9046 0.64871 0.29095 0.0
C535 C 0.87147 0.63872 0.27879 0.0
C536 C 0.93172 0.65226 0.26481 0.0
C537 C 0.86525 0.63409 0.24004 0.0
C538 C 0.89206 0.63738 0.21393 0.0
C539 C 0.95307 0.64572 0.20054 0.0
C540 C 0.98684 0.65257 0.21287 0.0
C541 C 0.9255 0.64557 0.22614 0.0
C542 C 0.99266 0.66131 0.25078 0.0
C543 C 0.96525 0.66101 0.27669 0.0
H544 H 0.67537 0.98553 0.20213 0.0
H545 H 0.63047 0.048 0.29018 0.0
H546 H 0.62134 0.9965 0.32913 0.0
H547 H 0.61986 0.93376 0.33462 0.0
H548 H 0.65978 0.87006 0.24449 0.0
H549 H 0.67742 0.92195 0.20972 0.0
C550 C 0.6646 0.98775 0.23036 0.0
C551 C 0.65413 0.02028 0.24386 0.0
C552 C 0.65798 0.95785 0.25171 0.0
C553 C 0.63917 0.02313 0.27978 0.0
C554 C 0.63369 0.99372 0.30178 0.0
C555 C 0.63269 0.93112 0.30749 0.0
C556 C 0.63814 0.89812 0.2919 0.0
C557 C 0.64196 0.96092 0.28748 0.0
C558 C 0.65512 0.89519 0.25696 0.0
C559 C 0.66516 0.92484 0.23709 0.0
H560 H 0.91196 0.34654 0.67954 0.0
H561 H 0.85981 0.3951 0.77331 0.0
H562 H 0.91025 0.38567 0.81346 0.0
H563 H 0.97056 0.36702 0.82061 0.0
H564 H 0.02168 0.31458 0.72886 0.0
H565 H 0.97021 0.32165 0.68913 0.0
C566 C 0.91163 0.35459 0.70891 0.0
C567 C 0.88245 0.37155 0.72353 0.0
C568 C 0.94049 0.34845 0.73203 0.0
C569 C 0.88198 0.38175 0.76161 0.0
C570 C 0.91085 0.37655 0.78449 0.0
C571 C 0.97014 0.35681 0.79204 0.0
C572 C 0.99965 0.34056 0.77737 0.0
C573 C 0.9404 0.36042 0.76983 0.0
C574 C 0.99902 0.32705 0.74058 0.0
C575 C 0.96974 0.33128 0.71789 0.0
H576 H 0.33691 0.10073 0.26125 0.0
H577 H 0.4261 0.06703 0.32419 0.0
H578 H 0.42421 0.01099 0.29301 0.0
H579 H 0.39898 0.97244 0.24537 0.0
H580 H 0.30696 0.0037 0.18603 0.0
H581 H 0.30773 0.05953 0.21858 0.0
C582 C 0.35576 0.08098 0.26818 0.0
C583 C 0.38189 0.08814 0.29452 0.0
C584 C 0.35392 0.04835 0.25088 0.0
C585 C 0.40584 0.06224 0.30388 0.0
C586 C 0.40481 0.03015 0.28602 0.0
C587 C 0.37893 0.9914 0.23994 0.0
C588 C 0.35313 0.98426 0.21326 0.0
C589 C 0.37923 0.02307 0.25916 0.0
C590 C 0.32699 0.0087 0.20666 0.0
C591 C 0.32757 0.04066 0.22504 0.0
H592 H 0.10115 0.64115 0.68023 0.0
H593 H 0.1489 0.60175 0.78164 0.0
H594 H 0.09662 0.61476 0.81771 0.0
H595 H 0.03627 0.63367 0.81939 0.0
H596 H 0.98886 0.67599 0.71938 0.0
H597 H 0.04235 0.66594 0.68358 0.0
C598 C 0.1001 0.63569 0.71029 0.0
C599 C 0.12856 0.62019 0.72829 0.0
C600 C 0.07014 0.6437 0.73091 0.0
C601 C 0.12725 0.61366 0.76727 0.0
C602 C 0.09736 0.62097 0.78783 0.0
C603 C 0.03781 0.64091 0.78979 0.0
C604 C 0.00876 0.65506 0.77173 0.0
C605 C 0.06852 0.63542 0.76979 0.0
C606 C 0.01103 0.66501 0.73368 0.0
C607 C 0.04147 0.6591 0.71328 0.0
H608 H 0.21891 0.50729 0.57227 0.0
H609 H 0.16663 0.59707 0.52825 0.0
H610 H 0.16835 0.57277 0.46466 0.0
H611 H 0.17316 0.52138 0.42527 0.0
H612 H 0.22087 0.42921 0.46901 0.0
H613 H 0.23322 0.45895 0.52889 0.0
C614 C 0.20912 0.52193 0.54842 0.0
C615 C 0.19239 0.55369 0.55465 0.0
C616 C 0.20884 0.50703 0.51214 0.0
C617 C 0.17939 0.57245 0.52386 0.0
C618 C 0.1802 0.5585 0.48763 0.0
C619 C 0.18728 0.50826 0.44758 0.0
C620 C 0.19587 0.47332 0.44331 0.0
C621 C 0.19309 0.52509 0.48192 0.0
C622 C 0.21418 0.45626 0.47196 0.0
C623 C 0.22088 0.47316 0.50622 0.0
H624 H 0.54277 0.79974 0.45176 0.0
H625 H 0.47359 0.87324 0.39986 0.0
H626 H 0.43482 0.8697 0.45374 0.0
H627 H 0.42557 0.85357 0.51935 0.0
H628 H 0.49411 0.78129 0.57359 0.0
H629 H 0.52776 0.77584 0.51502 0.0
C630 C 0.51879 0.81424 0.45203 0.0
C631 C 0.51141 0.83737 0.42249 0.0
C632 C 0.49672 0.8126 0.48365 0.0
C633 C 0.48017 0.8559 0.42282 0.0
C634 C 0.45795 0.85389 0.45355 0.0
C635 C 0.44744 0.83604 0.518 0.0
C636 C 0.45783 0.81832 0.55055 0.0
C637 C 0.46676 0.83359 0.48475 0.0
C638 C 0.48579 0.79524 0.54864 0.0
C639 C 0.50516 0.79237 0.51531 0.0
H640 H 0.79602 0.52579 0.44404 0.0
H641 H 0.8781 0.5933 0.48039 0.0
H642 H 0.88293 0.56177 0.53968 0.0
H643 H 0.86903 0.51128 0.57759 0.0
H644 H 0.78731 0.44274 0.5434 0.0
H645 H 0.77698 0.47832 0.48684 0.0
C646 C 0.81424 0.53407 0.46545 0.0
C647 C 0.83692 0.56161 0.45777 0.0
C648 C 0.81746 0.51521 0.49938 0.0
C649 C 0.86061 0.57199 0.48557 0.0
C650 C 0.86353 0.55388 0.51938 0.0
C651 C 0.84886 0.50419 0.55779 0.0
C652 C 0.82952 0.4741 0.56396 0.0
C653 C 0.84304 0.52474 0.5259 0.0
C654 C 0.80278 0.46566 0.53884 0.0
C655 C 0.79692 0.48598 0.50659 0.0
H656 H 0.51403 0.18706 0.41071 0.0
H657 H 0.41625 0.20766 0.46401 0.0
H658 H 0.4457 0.2224 0.52325 0.0
H659 H 0.49773 0.21439 0.56256 0.0
H660 H 0.59416 0.18737 0.50954 0.0
H661 H 0.56742 0.19133 0.44715 0.0
C662 C 0.49944 0.19618 0.43498 0.0
C663 C 0.46331 0.19618 0.43362 0.0
C664 C 0.51646 0.2031 0.46898 0.0
C665 C 0.4442 0.20771 0.46481 0.0
C666 C 0.46104 0.21576 0.49865 0.0
C667 C 0.51308 0.21111 0.53712 0.0
C668 C 0.54767 0.20069 0.54014 0.0
C669 C 0.49696 0.21146 0.5016 0.0
C670 C 0.56749 0.19566 0.50744 0.0
C671 C 0.55211 0.19753 0.47192 0.0
H672 H 0.71229 0.05994 0.04583 0.0
H673 H 0.65066 0.98731 0.10898 0.0
H674 H 0.65477 0.94552 0.05775 0.0
H675 H 0.66546 0.93474 0.99108 0.0
H676 H 0.72359 0.00769 0.92497 0.0
H677 H 0.73224 0.04388 0.98118 0.0
C678 C 0.70066 0.0346 0.04853 0.0
C679 C 0.68059 0.02677 0.08049 0.0
C680 C 0.70225 0.01095 0.01831 0.0
C681 C 0.66563 0.99393 0.0841 0.0
C682 C 0.66798 0.97006 0.05491 0.0
C683 C 0.68106 0.95797 0.98941 0.0
C684 C 0.6936 0.9689 0.95429 0.0
C685 C 0.68468 0.97899 0.02125 0.0
C686 C 0.71386 0.99886 0.95202 0.0
C687 C 0.71837 0.01973 0.98401 0.0
H688 H 0.01442 0.28799 0.92519 0.0
H689 H 0.10519 0.33751 0.97003 0.0
H690 H 0.07789 0.34208 0.03201 0.0
H691 H 0.02485 0.34239 0.06915 0.0
H692 H 0.93243 0.29592 0.02489 0.0
H693 H 0.96353 0.27939 0.96698 0.0
C694 C 0.02855 0.29852 0.94901 0.0
C695 C 0.06162 0.31254 0.94332 0.0
C696 C 0.01206 0.30236 0.98424 0.0
C697 C 0.07967 0.32663 0.974 0.0
C698 C 0.06398 0.32951 0.00928 0.0
C699 C 0.0118 0.32797 0.04707 0.0
C700 C 0.97648 0.32083 0.05061 0.0
C701 C 0.02964 0.31915 0.01407 0.0
C702 C 0.95969 0.30174 0.02241 0.0
C703 C 0.97742 0.2925 0.98934 0.0
H704 H 0.30208 0.0359 0.95236 0.0
H705 H 0.39213 0.98576 0.90535 0.0
H706 H 0.39017 0.94215 0.95438 0.0
H707 H 0.3675 0.92165 0.01385 0.0
H708 H 0.28014 0.97198 0.06551 0.0
H709 H 0.27562 0.01124 0.01106 0.0
C710 C 0.32103 0.01526 0.95287 0.0
C711 C 0.34775 0.01465 0.9258 0.0
C712 C 0.32017 0.99017 0.98187 0.0
C713 C 0.3719 0.98749 0.92645 0.0
C714 C 0.37069 0.96229 0.95432 0.0
C715 C 0.34707 0.94084 0.01295 0.0
C716 C 0.32449 0.94422 0.04374 0.0
C717 C 0.3456 0.96392 0.98265 0.0
C718 C 0.2978 0.96882 0.04199 0.0
C719 C 0.29552 0.99154 0.0111 0.0
H720 H 0.91563 0.6893 0.96403 0.0
H721 H 0.00143 0.72426 0.89686 0.0
H722 H 0.03733 0.72876 0.95367 0.0
H723 H 0.04724 0.7091 0.01963 0.0
H724 H 0.96101 0.67209 0.08508 0.0
H725 H 0.922 0.68294 0.03235 0.0
C726 C 0.94177 0.69925 0.96222 0.0
C727 C 0.95618 0.70607 0.92672 0.0
C728 C 0.96226 0.70092 0.9947 0.0
C729 C 0.98995 0.71899 0.9242 0.0
C730 C 0.01055 0.72115 0.95659 0.0
C731 C 0.0197 0.70487 0.02261 0.0
C732 C 0.00681 0.68953 0.05565 0.0
C733 C 0.99753 0.71021 0.99166 0.0
C734 C 0.97124 0.68376 0.05955 0.0
C735 C 0.94901 0.68973 0.0294 0.0
loop_
_geom_bond_atom_site_label_1
_geom_bond_atom_site_label_2
_geom_bond_distance
_geom_bond_site_symmetry_2
_ccdc_geom_bond_type
Co0 O1 2.216 . S
Co0 O2 2.091 . S
Co0 O4 2.004 . S
Co0 O10 2.021 . S
Co0 O12 2.137 . S
Co0 O13 2.244 . S
O1 Co0 2.216 . S
O1 C8 1.247 . S
O2 Co0 2.091 . S
O2 C8 1.261 . S
C3 O12 1.247 . S
C3 O13 1.272 . S
O4 Co0 2.004 . S
O4 C9 1.259 . S
Co5 O6 2.061 . S
Co5 O11 2.052 . S
Co5 O13 2.135 . S
O6 Co5 2.061 . S
O6 C9 1.235 . S
C7 O10 1.238 . S
C7 O11 1.241 . S
C8 O1 1.247 . S
C8 O2 1.261 . S
C9 O4 1.259 . S
C9 O6 1.235 . S
O10 Co0 2.021 . S
O10 C7 1.238 . S
O11 Co5 2.052 . S
O11 C7 1.241 . S
O12 Co0 2.137 . S
O12 C3 1.247 . S
O13 Co0 2.244 . S
O13 C3 1.272 . S
O13 Co5 2.135 . S
Co14 O15 2.216 . S
Co14 O16 2.091 . S
Co14 O18 2.004 . S
Co14 O24 2.021 . S
Co14 O26 2.137 . S
Co14 O27 2.244 . S
O15 Co14 2.216 . S
O15 C22 1.247 . S
O16 Co14 2.091 . S
O16 C22 1.261 . S
C17 O26 1.247 . S
C17 O27 1.272 . S
O18 Co14 2.004 . S
O18 C23 1.259 . S
Co19 O20 2.061 . S
Co19 O25 2.052 . S
Co19 O27 2.135 . S
O20 Co19 2.061 . S
O20 C23 1.235 . S
C21 O24 1.238 . S
C21 O25 1.241 . S
C22 O15 1.247 . S
C22 O16 1.261 . S
C23 O18 1.259 . S
C23 O20 1.235 . S
O24 Co14 2.021 . S
O24 C21 1.238 . S
O25 Co19 2.052 . S
O25 C21 1.241 . S
O26 Co14 2.137 . S
O26 C17 1.247 . S
O27 Co14 2.244 . S
O27 C17 1.272 . S
O27 Co19 2.135 . S
Co28 O29 2.216 . S
Co28 O30 2.091 . S
Co28 O32 2.004 . S
Co28 O38 2.021 . S
Co28 O40 2.137 . S
Co28 O41 2.244 . S
O29 Co28 2.216 . S
O29 C36 1.247 . S
O30 Co28 2.091 . S
O30 C36 1.261 . S
C31 O40 1.247 . S
C31 O41 1.272 . S
O32 Co28 2.004 . S
O32 C37 1.259 . S
Co33 O34 2.061 . S
Co33 O39 2.052 . S
Co33 O41 2.135 . S
O34 Co33 2.061 . S
O34 C37 1.235 . S
C35 O38 1.238 . S
C35 O39 1.241 . S
C36 O29 1.247 . S
C36 O30 1.261 . S
C37 O32 1.259 . S
C37 O34 1.235 . S
O38 Co28 2.021 . S
O38 C35 1.238 . S
O39 Co33 2.052 . S
O39 C35 1.241 . S
O40 Co28 2.137 . S
O40 C31 1.247 . S
O41 Co28 2.244 . S
O41 C31 1.272 . S
O41 Co33 2.135 . S
Co42 O43 2.216 . S
Co42 O44 2.091 . S
Co42 O46 2.004 . S
Co42 O52 2.021 . S
Co42 O54 2.137 . S
Co42 O55 2.244 . S
O43 Co42 2.216 . S
O43 C50 1.247 . S
O44 Co42 2.091 . S
O44 C50 1.261 . S
C45 O54 1.247 . S
C45 O55 1.272 . S
O46 Co42 2.004 . S
O46 C51 1.259 . S
Co47 O48 2.061 . S
Co47 O53 2.052 . S
Co47 O55 2.135 . S
O48 Co47 2.061 . S
O48 C51 1.235 . S
C49 O52 1.238 . S
C49 O53 1.241 . S
C50 O43 1.247 . S
C50 O44 1.261 . S
C51 O46 1.259 . S
C51 O48 1.235 . S
O52 Co42 2.021 . S
O52 C49 1.238 . S
O53 Co47 2.052 . S
O53 C49 1.241 . S
O54 Co42 2.137 . S
O54 C45 1.247 . S
O55 Co42 2.244 . S
O55 C45 1.272 . S
O55 Co47 2.135 . S
Co56 O57 2.216 . S
Co56 O58 2.091 . S
Co56 O60 2.004 . S
Co56 O66 2.021 . S
Co56 O68 2.137 . S
Co56 O69 2.244 . S
O57 Co56 2.216 . S
O57 C64 1.247 . S
O58 Co56 2.091 . S
O58 C64 1.261 . S
C59 O68 1.247 . S
C59 O69 1.272 . S
O60 Co56 2.004 . S
O60 C65 1.259 . S
Co61 O62 2.061 . S
Co61 O67 2.052 . S
Co61 O69 2.135 . S
O62 Co61 2.061 . S
O62 C65 1.235 . S
C63 O66 1.238 . S
C63 O67 1.241 . S
C64 O57 1.247 . S
C64 O58 1.261 . S
C65 O60 1.259 . S
C65 O62 1.235 . S
O66 Co56 2.021 . S
O66 C63 1.238 . S
O67 Co61 2.052 . S
O67 C63 1.241 . S
O68 Co56 2.137 . S
O68 C59 1.247 . S
O69 Co56 2.244 . S
O69 C59 1.272 . S
O69 Co61 2.135 . S
Co70 O71 2.216 . S
Co70 O72 2.091 . S
Co70 O74 2.004 . S
Co70 O80 2.021 . S
Co70 O82 2.137 . S
Co70 O83 2.244 . S
O71 Co70 2.216 . S
O71 C78 1.247 . S
O72 Co70 2.091 . S
O72 C78 1.261 . S
C73 O82 1.247 . S
C73 O83 1.272 . S
O74 Co70 2.004 . S
O74 C79 1.259 . S
Co75 O76 2.061 . S
Co75 O81 2.052 . S
Co75 O83 2.135 . S
O76 Co75 2.061 . S
O76 C79 1.235 . S
C77 O80 1.238 . S
C77 O81 1.241 . S
C78 O71 1.247 . S
C78 O72 1.261 . S
C79 O74 1.259 . S
C79 O76 1.235 . S
O80 Co70 2.021 . S
O80 C77 1.238 . S
O81 Co75 2.052 . S
O81 C77 1.241 . S
O82 Co70 2.137 . S
O82 C73 1.247 . S
O83 Co70 2.244 . S
O83 C73 1.272 . S
O83 Co75 2.135 . S
Co84 O85 2.216 . S
Co84 O86 2.091 . S
Co84 O88 2.004 . S
Co84 O94 2.021 . S
Co84 O96 2.137 . S
Co84 O97 2.244 . S
O85 Co84 2.216 . S
O85 C92 1.247 . S
O86 Co84 2.091 . S
O86 C92 1.261 . S
C87 O96 1.247 . S
C87 O97 1.272 . S
O88 Co84 2.004 . S
O88 C93 1.259 . S
Co89 O90 2.061 . S
Co89 O95 2.052 . S
Co89 O97 2.135 . S
O90 Co89 2.061 . S
O90 C93 1.235 . S
C91 O94 1.238 . S
C91 O95 1.241 . S
C92 O85 1.247 . S
C92 O86 1.261 . S
C93 O88 1.259 . S
C93 O90 1.235 . S
O94 Co84 2.021 . S
O94 C91 1.238 . S
O95 Co89 2.052 . S
O95 C91 1.241 . S
O96 Co84 2.137 . S
O96 C87 1.247 . S
O97 Co84 2.244 . S
O97 C87 1.272 . S
O97 Co89 2.135 . S
Co98 O99 2.216 . S
Co98 O100 2.091 . S
Co98 O102 2.004 . S
Co98 O108 2.021 . S
Co98 O110 2.137 . S
Co98 O111 2.244 . S
O99 Co98 2.216 . S
O99 C106 1.247 . S
O100 Co98 2.091 . S
O100 C106 1.261 . S
C101 O110 1.247 . S
C101 O111 1.272 . S
O102 Co98 2.004 . S
O102 C107 1.259 . S
Co103 O104 2.061 . S
Co103 O109 2.052 . S
Co103 O111 2.135 . S
O104 Co103 2.061 . S
O104 C107 1.235 . S
C105 O108 1.238 . S
C105 O109 1.241 . S
C106 O99 1.247 . S
C106 O100 1.261 . S
C107 O102 1.259 . S
C107 O104 1.235 . S
O108 Co98 2.021 . S
O108 C105 1.238 . S
O109 Co103 2.052 . S
O109 C105 1.241 . S
O110 Co98 2.137 . S
O110 C101 1.247 . S
O111 Co98 2.244 . S
O111 C101 1.272 . S
O111 Co103 2.135 . S
Co112 O113 2.216 . S
Co112 O114 2.091 . S
Co112 O116 2.004 . S
Co112 O122 2.021 . S
Co112 O124 2.137 . S
Co112 O125 2.244 . S
O113 Co112 2.216 . S
O113 C120 1.247 . S
O114 Co112 2.091 . S
O114 C120 1.261 . S
C115 O124 1.247 . S
C115 O125 1.272 . S
O116 Co112 2.004 . S
O116 C121 1.259 1_565 S
Co117 O118 2.061 1_565 S
Co117 O123 2.052 . S
Co117 O125 2.135 . S
O118 Co117 2.061 1_545 S
O118 C121 1.235 . S
C119 O122 1.238 . S
C119 O123 1.241 . S
C120 O113 1.247 . S
C120 O114 1.261 . S
C121 O116 1.259 1_545 S
C121 O118 1.235 . S
O122 Co112 2.021 . S
O122 C119 1.238 . S
O123 Co117 2.052 . S
O123 C119 1.241 . S
O124 Co112 2.137 . S
O124 C115 1.247 . S
O125 Co112 2.244 . S
O125 C115 1.272 . S
O125 Co117 2.135 . S
Co126 O127 2.216 . S
Co126 O128 2.091 . S
Co126 O130 2.004 . S
Co126 O136 2.021 . S
Co126 O138 2.137 . S
Co126 O139 2.244 . S
O127 Co126 2.216 . S
O127 C134 1.247 . S
O128 Co126 2.091 . S
O128 C134 1.261 . S
C129 O138 1.247 . S
C129 O139 1.272 . S
O130 Co126 2.004 . S
O130 C135 1.259 1_655 S
Co131 O132 2.061 1_655 S
Co131 O137 2.052 . S
Co131 O139 2.135 . S
O132 Co131 2.061 1_455 S
O132 C135 1.235 . S
C133 O136 1.238 . S
C133 O137 1.241 . S
C134 O127 1.247 . S
C134 O128 1.261 . S
C135 O130 1.259 1_455 S
C135 O132 1.235 . S
O136 Co126 2.021 . S
O136 C133 1.238 . S
O137 Co131 2.052 . S
O137 C133 1.241 . S
O138 Co126 2.137 . S
O138 C129 1.247 . S
O139 Co126 2.244 . S
O139 C129 1.272 . S
O139 Co131 2.135 . S
Co140 O141 2.216 . S
Co140 O142 2.091 . S
Co140 O144 2.004 . S
Co140 O150 2.021 . S
Co140 O152 2.137 . S
Co140 O153 2.244 . S
O141 Co140 2.216 . S
O141 C148 1.247 . S
O142 Co140 2.091 . S
O142 C148 1.261 . S
C143 O152 1.247 . S
C143 O153 1.272 . S
O144 Co140 2.004 . S
O144 C149 1.259 1_545 S
Co145 O146 2.061 1_545 S
Co145 O151 2.052 . S
Co145 O153 2.135 . S
O146 Co145 2.061 1_565 S
O146 C149 1.235 . S
C147 O150 1.238 . S
C147 O151 1.241 . S
C148 O141 1.247 . S
C148 O142 1.261 . S
C149 O144 1.259 1_565 S
C149 O146 1.235 . S
O150 Co140 2.021 . S
O150 C147 1.238 . S
O151 Co145 2.052 . S
O151 C147 1.241 . S
O152 Co140 2.137 . S
O152 C143 1.247 . S
O153 Co140 2.244 . S
O153 C143 1.272 . S
O153 Co145 2.135 . S
Co154 O155 2.216 . S
Co154 O156 2.091 . S
Co154 O158 2.004 . S
Co154 O164 2.021 . S
Co154 O166 2.137 . S
Co154 O167 2.244 . S
O155 Co154 2.216 . S
O155 C162 1.247 . S
O156 Co154 2.091 . S
O156 C162 1.261 . S
C157 O166 1.247 . S
C157 O167 1.272 . S
O158 Co154 2.004 . S
O158 C163 1.259 1_455 S
Co159 O160 2.061 1_455 S
Co159 O165 2.052 . S
Co159 O167 2.135 . S
O160 Co159 2.061 1_655 S
O160 C163 1.235 . S
C161 O164 1.238 . S
C161 O165 1.241 . S
C162 O155 1.247 . S
C162 O156 1.261 . S
C163 O158 1.259 1_655 S
C163 O160 1.235 . S
O164 Co154 2.021 . S
O164 C161 1.238 . S
O165 Co159 2.052 . S
O165 C161 1.241 . S
O166 Co154 2.137 . S
O166 C157 1.247 . S
O167 Co154 2.244 . S
O167 C157 1.272 . S
O167 Co159 2.135 . S
Co168 O169 2.216 . S
Co168 O170 2.091 . S
Co168 O172 2.004 . S
Co168 O178 2.021 . S
Co168 O180 2.137 . S
Co168 O181 2.244 . S
O169 Co168 2.216 . S
O169 C176 1.247 . S
O170 Co168 2.091 . S
O170 C176 1.261 . S
C171 O180 1.247 . S
C171 O181 1.272 . S
O172 Co168 2.004 . S
O172 C177 1.259 1_545 S
Co173 O174 2.061 1_545 S
Co173 O179 2.052 . S
Co173 O181 2.135 . S
O174 Co173 2.061 1_565 S
O174 C177 1.235 . S
C175 O178 1.238 . S
C175 O179 1.241 . S
C176 O169 1.247 . S
C176 O170 1.261 . S
C177 O172 1.259 1_565 S
C177 O174 1.235 . S
O178 Co168 2.021 . S
O178 C175 1.238 . S
O179 Co173 2.052 . S
O179 C175 1.241 . S
O180 Co168 2.137 . S
O180 C171 1.247 . S
O181 Co168 2.244 . S
O181 C171 1.272 . S
O181 Co173 2.135 . S
Co182 O183 2.216 . S
Co182 O184 2.091 . S
Co182 O186 2.004 . S
Co182 O192 2.021 . S
Co182 O194 2.137 . S
Co182 O195 2.244 . S
O183 Co182 2.216 . S
O183 C190 1.247 . S
O184 Co182 2.091 . S
O184 C190 1.261 . S
C185 O194 1.247 . S
C185 O195 1.272 . S
O186 Co182 2.004 . S
O186 C191 1.259 1_455 S
Co187 O188 2.061 1_455 S
Co187 O193 2.052 . S
Co187 O195 2.135 . S
O188 Co187 2.061 1_655 S
O188 C191 1.235 . S
C189 O192 1.238 . S
C189 O193 1.241 . S
C190 O183 1.247 . S
C190 O184 1.261 . S
C191 O186 1.259 1_655 S
C191 O188 1.235 . S
O192 Co182 2.021 . S
O192 C189 1.238 . S
O193 Co187 2.052 . S
O193 C189 1.241 . S
O194 Co182 2.137 . S
O194 C185 1.247 . S
O195 Co182 2.244 . S
O195 C185 1.272 . S
O195 Co187 2.135 . S
Co196 O197 2.216 . S
Co196 O198 2.091 . S
Co196 O200 2.004 . S
Co196 O206 2.021 . S
Co196 O208 2.137 . S
Co196 O209 2.244 . S
O197 Co196 2.216 . S
O197 C204 1.247 . S
O198 Co196 2.091 . S
O198 C204 1.261 . S
C199 O208 1.247 . S
C199 O209 1.272 . S
O200 Co196 2.004 . S
O200 C205 1.259 1_565 S
Co201 O202 2.061 1_565 S
Co201 O207 2.052 . S
Co201 O209 2.135 . S
O202 Co201 2.061 1_545 S
O202 C205 1.235 . S
C203 O206 1.238 . S
C203 O207 1.241 . S
C204 O197 1.247 . S
C204 O198 1.261 . S
C205 O200 1.259 1_545 S
C205 O202 1.235 . S
O206 Co196 2.021 . S
O206 C203 1.238 . S
O207 Co201 2.052 . S
O207 C203 1.241 . S
O208 Co196 2.137 . S
O208 C199 1.247 . S
O209 Co196 2.244 . S
O209 C199 1.272 . S
O209 Co201 2.135 . S
Co210 O211 2.216 . S
Co210 O212 2.091 . S
Co210 O214 2.004 . S
Co210 O220 2.021 . S
Co210 O222 2.137 . S
Co210 O223 2.244 . S
O211 Co210 2.216 . S
O211 C218 1.247 . S
O212 Co210 2.091 . S
O212 C218 1.261 . S
C213 O222 1.247 . S
C213 O223 1.272 . S
O214 Co210 2.004 . S
O214 C219 1.259 1_655 S
Co215 O216 2.061 1_655 S
Co215 O221 2.052 . S
Co215 O223 2.135 . S
O216 Co215 2.061 1_455 S
O216 C219 1.235 . S
C217 O220 1.238 . S
C217 O221 1.241 . S
C218 O211 1.247 . S
C218 O212 1.261 . S
C219 O214 1.259 1_455 S
C219 O216 1.235 . S
O220 Co210 2.021 . S
O220 C217 1.238 . S
O221 Co215 2.052 . S
O221 C217 1.241 . S
O222 Co210 2.137 . S
O222 C213 1.247 . S
O223 Co210 2.244 . S
O223 C213 1.272 . S
O223 Co215 2.135 . S
H224 C230 0.930 . S
H225 C233 0.930 . S
H226 C234 0.930 . S
H227 C235 0.930 . S
H228 C238 0.930 . S
H229 C239 0.930 . S
C230 H224 0.930 . S
C230 C231 1.355 . S
C230 C232 1.415 . S
C231 C230 1.355 . S
C231 C233 1.419 . S
C232 C230 1.415 . S
C232 C237 1.425 . S
C232 C239 1.409 . S
C233 H225 0.930 . S
C233 C231 1.419 . S
C233 C234 1.362 . S
C234 H226 0.930 . S
C234 C233 1.362 . S
C234 C237 1.409 . S
C235 H227 0.930 . S
C235 C236 1.355 . S
C235 C237 1.415 . S
C236 C235 1.355 . S
C236 C238 1.419 . S
C237 C232 1.425 . S
C237 C234 1.409 . S
C237 C235 1.415 . S
C238 H228 0.930 . S
C238 C236 1.419 . S
C238 C239 1.362 . S
C239 H229 0.930 . S
C239 C232 1.409 . S
C239 C238 1.362 . S
H240 C246 0.930 . S
H241 C249 0.930 . S
H242 C250 0.930 . S
H243 C251 0.930 . S
H244 C254 0.930 . S
H245 C255 0.930 . S
C246 H240 0.930 . S
C246 C247 1.355 . S
C246 C248 1.415 . S
C247 C246 1.355 . S
C247 C249 1.419 . S
C248 C246 1.415 . S
C248 C253 1.425 . S
C248 C255 1.409 . S
C249 H241 0.930 . S
C249 C247 1.419 . S
C249 C250 1.362 . S
C250 H242 0.930 . S
C250 C249 1.362 . S
C250 C253 1.409 . S
C251 H243 0.930 . S
C251 C252 1.355 . S
C251 C253 1.415 . S
C252 C251 1.355 . S
C252 C254 1.419 . S
C253 C248 1.425 . S
C253 C250 1.409 . S
C253 C251 1.415 . S
C254 H244 0.930 . S
C254 C252 1.419 . S
C254 C255 1.362 . S
C255 H245 0.930 . S
C255 C248 1.409 . S
C255 C254 1.362 . S
H256 C262 0.930 . S
H257 C265 0.930 . S
H258 C266 0.930 . S
H259 C267 0.930 . S
H260 C270 0.930 . S
H261 C271 0.930 . S
C262 H256 0.930 . S
C262 C263 1.355 . S
C262 C264 1.415 . S
C263 C262 1.355 . S
C263 C265 1.419 . S
C264 C262 1.415 . S
C264 C269 1.425 . S
C264 C271 1.409 . S
C265 H257 0.930 . S
C265 C263 1.419 . S
C265 C266 1.362 . S
C266 H258 0.930 . S
C266 C265 1.362 . S
C266 C269 1.409 . S
C267 H259 0.930 . S
C267 C268 1.355 . S
C267 C269 1.415 . S
C268 C267 1.355 . S
C268 C270 1.419 . S
C269 C264 1.425 . S
C269 C266 1.409 . S
C269 C267 1.415 . S
C270 H260 0.930 . S
C270 C268 1.419 . S
C270 C271 1.362 . S
C271 H261 0.930 . S
C271 C264 1.409 . S
C271 C270 1.362 . S
H272 C278 0.930 . S
H273 C281 0.930 . S
H274 C282 0.930 . S
H275 C283 0.930 . S
H276 C286 0.930 . S
H277 C287 0.930 . S
C278 H272 0.930 . S
C278 C279 1.355 . S
C278 C280 1.415 . S
C279 C278 1.355 . S
C279 C281 1.419 . S
C280 C278 1.415 . S
C280 C285 1.425 . S
C280 C287 1.409 . S
C281 H273 0.930 . S
C281 C279 1.419 . S
C281 C282 1.362 . S
C282 H274 0.930 . S
C282 C281 1.362 . S
C282 C285 1.409 . S
C283 H275 0.930 . S
C283 C284 1.355 . S
C283 C285 1.415 . S
C284 C283 1.355 . S
C284 C286 1.419 . S
C285 C280 1.425 . S
C285 C282 1.409 . S
C285 C283 1.415 . S
C286 H276 0.930 . S
C286 C284 1.419 . S
C286 C287 1.362 . S
C287 H277 0.930 . S
C287 C280 1.409 . S
C287 C286 1.362 . S
H288 C294 0.930 . S
H289 C297 0.930 . S
H290 C298 0.930 . S
H291 C299 0.930 . S
H292 C302 0.930 . S
H293 C303 0.930 . S
C294 H288 0.930 . S
C294 C295 1.355 . S
C294 C296 1.415 . S
C295 C294 1.355 . S
C295 C297 1.419 . S
C296 C294 1.415 . S
C296 C301 1.425 . S
C296 C303 1.409 . S
C297 H289 0.930 . S
C297 C295 1.419 . S
C297 C298 1.362 . S
C298 H290 0.930 . S
C298 C297 1.362 . S
C298 C301 1.409 . S
C299 H291 0.930 . S
C299 C300 1.355 . S
C299 C301 1.415 . S
C300 C299 1.355 . S
C300 C302 1.419 . S
C301 C296 1.425 . S
C301 C298 1.409 . S
C301 C299 1.415 . S
C302 H292 0.930 . S
C302 C300 1.419 . S
C302 C303 1.362 . S
C303 H293 0.930 . S
C303 C296 1.409 . S
C303 C302 1.362 . S
H304 C310 0.930 . S
H305 C313 0.930 . S
H306 C314 0.930 . S
H307 C315 0.930 . S
H308 C318 0.930 . S
H309 C319 0.930 . S
C310 H304 0.930 . S
C310 C311 1.355 . S
C310 C312 1.415 . S
C311 C310 1.355 . S
C311 C313 1.419 . S
C312 C310 1.415 . S
C312 C317 1.425 . S
C312 C319 1.409 . S
C313 H305 0.930 . S
C313 C311 1.419 . S
C313 C314 1.362 . S
C314 H306 0.930 . S
C314 C313 1.362 . S
C314 C317 1.409 . S
C315 H307 0.930 . S
C315 C316 1.355 . S
C315 C317 1.415 . S
C316 C315 1.355 . S
C316 C318 1.419 . S
C317 C312 1.425 . S
C317 C314 1.409 . S
C317 C315 1.415 . S
C318 H308 0.930 . S
C318 C316 1.419 . S
C318 C319 1.362 . S
C319 H309 0.930 . S
C319 C312 1.409 . S
C319 C318 1.362 . S
H320 C326 0.930 . S
H321 C329 0.930 . S
H322 C330 0.930 . S
H323 C331 0.930 . S
H324 C334 0.930 . S
H325 C335 0.930 . S
C326 H320 0.930 . S
C326 C327 1.355 . S
C326 C328 1.415 . S
C327 C326 1.355 . S
C327 C329 1.419 . S
C328 C326 1.415 . S
C328 C333 1.425 . S
C328 C335 1.409 . S
C329 H321 0.930 . S
C329 C327 1.419 . S
C329 C330 1.362 . S
C330 H322 0.930 . S
C330 C329 1.362 . S
C330 C333 1.409 . S
C331 H323 0.930 . S
C331 C332 1.355 . S
C331 C333 1.415 . S
C332 C331 1.355 . S
C332 C334 1.419 . S
C333 C328 1.425 . S
C333 C330 1.409 . S
C333 C331 1.415 . S
C334 H324 0.930 . S
C334 C332 1.419 . S
C334 C335 1.362 . S
C335 H325 0.930 . S
C335 C328 1.409 . S
C335 C334 1.362 . S
H336 C342 0.930 . S
H337 C345 0.930 . S
H338 C346 0.930 . S
H339 C347 0.930 . S
H340 C350 0.930 . S
H341 C351 0.930 . S
C342 H336 0.930 . S
C342 C343 1.355 . S
C342 C344 1.415 . S
C343 C342 1.355 . S
C343 C345 1.419 . S
C344 C342 1.415 . S
C344 C349 1.425 . S
C344 C351 1.409 . S
C345 H337 0.930 . S
C345 C343 1.419 . S
C345 C346 1.362 . S
C346 H338 0.930 . S
C346 C345 1.362 . S
C346 C349 1.409 . S
C347 H339 0.930 . S
C347 C348 1.355 . S
C347 C349 1.415 . S
C348 C347 1.355 . S
C348 C350 1.419 . S
C349 C344 1.425 . S
C349 C346 1.409 . S
C349 C347 1.415 . S
C350 H340 0.930 . S
C350 C348 1.419 . S
C350 C351 1.362 . S
C351 H341 0.930 . S
C351 C344 1.409 . S
C351 C350 1.362 . S
H352 C358 0.930 . S
H353 C361 0.930 . S
H354 C362 0.930 . S
H355 C363 0.930 . S
H356 C366 0.930 . S
H357 C367 0.930 . S
C358 H352 0.930 . S
C358 C359 1.355 . S
C358 C360 1.415 . S
C359 C358 1.355 . S
C359 C361 1.419 . S
C360 C358 1.415 . S
C360 C365 1.425 . S
C360 C367 1.409 . S
C361 H353 0.930 . S
C361 C359 1.419 . S
C361 C362 1.362 . S
C362 H354 0.930 . S
C362 C361 1.362 . S
C362 C365 1.409 . S
C363 H355 0.930 . S
C363 C364 1.355 . S
C363 C365 1.415 . S
C364 C363 1.355 . S
C364 C366 1.419 . S
C365 C360 1.425 . S
C365 C362 1.409 . S
C365 C363 1.415 . S
C366 H356 0.930 . S
C366 C364 1.419 . S
C366 C367 1.362 . S
C367 H357 0.930 . S
C367 C360 1.409 . S
C367 C366 1.362 . S
H368 C374 0.930 . S
H369 C377 0.930 . S
H370 C378 0.930 . S
H371 C379 0.930 . S
H372 C382 0.930 . S
H373 C383 0.930 . S
C374 H368 0.930 . S
C374 C375 1.355 . S
C374 C376 1.415 . S
C375 C374 1.355 . S
C375 C377 1.419 . S
C376 C374 1.415 . S
C376 C381 1.425 . S
C376 C383 1.409 . S
C377 H369 0.930 . S
C377 C375 1.419 . S
C377 C378 1.362 . S
C378 H370 0.930 . S
C378 C377 1.362 . S
C378 C381 1.409 . S
C379 H371 0.930 . S
C379 C380 1.355 . S
C379 C381 1.415 . S
C380 C379 1.355 . S
C380 C382 1.419 . S
C381 C376 1.425 . S
C381 C378 1.409 . S
C381 C379 1.415 . S
C382 H372 0.930 . S
C382 C380 1.419 . S
C382 C383 1.362 . S
C383 H373 0.930 . S
C383 C376 1.409 . S
C383 C382 1.362 . S
H384 C390 0.930 . S
H385 C393 0.930 . S
H386 C394 0.930 . S
H387 C395 0.930 . S
H388 C398 0.930 . S
H389 C399 0.930 . S
C390 H384 0.930 . S
C390 C391 1.355 . S
C390 C392 1.415 . S
C391 C390 1.355 . S
C391 C393 1.419 . S
C392 C390 1.415 . S
C392 C397 1.425 . S
C392 C399 1.409 . S
C393 H385 0.930 . S
C393 C391 1.419 . S
C393 C394 1.362 . S
C394 H386 0.930 . S
C394 C393 1.362 . S
C394 C397 1.409 . S
C395 H387 0.930 . S
C395 C396 1.355 . S
C395 C397 1.415 . S
C396 C395 1.355 . S
C396 C398 1.419 . S
C397 C392 1.425 . S
C397 C394 1.409 . S
C397 C395 1.415 . S
C398 H388 0.930 . S
C398 C396 1.419 . S
C398 C399 1.362 . S
C399 H389 0.930 . S
C399 C392 1.409 . S
C399 C398 1.362 . S
H400 C406 0.930 . S
H401 C409 0.930 . S
H402 C410 0.930 . S
H403 C411 0.930 . S
H404 C414 0.930 . S
H405 C415 0.930 . S
C406 H400 0.930 . S
C406 C407 1.355 . S
C406 C408 1.415 . S
C407 C406 1.355 . S
C407 C409 1.419 . S
C408 C406 1.415 . S
C408 C413 1.425 . S
C408 C415 1.409 . S
C409 H401 0.930 . S
C409 C407 1.419 . S
C409 C410 1.362 . S
C410 H402 0.930 . S
C410 C409 1.362 . S
C410 C413 1.409 . S
C411 H403 0.930 . S
C411 C412 1.355 . S
C411 C413 1.415 . S
C412 C411 1.355 . S
C412 C414 1.419 . S
C413 C408 1.425 . S
C413 C410 1.409 . S
C413 C411 1.415 . S
C414 H404 0.930 . S
C414 C412 1.419 . S
C414 C415 1.362 . S
C415 H405 0.930 . S
C415 C408 1.409 . S
C415 C414 1.362 . S
H416 C422 0.930 . S
H417 C425 0.930 . S
H418 C426 0.930 . S
H419 C427 0.930 . S
H420 C430 0.930 . S
H421 C431 0.930 . S
C422 H416 0.930 . S
C422 C423 1.355 . S
C422 C424 1.415 . S
C423 C422 1.355 . S
C423 C425 1.419 . S
C424 C422 1.415 . S
C424 C429 1.425 . S
C424 C431 1.409 . S
C425 H417 0.930 . S
C425 C423 1.419 . S
C425 C426 1.362 . S
C426 H418 0.930 . S
C426 C425 1.362 . S
C426 C429 1.409 . S
C427 H419 0.930 . S
C427 C428 1.355 . S
C427 C429 1.415 . S
C428 C427 1.355 . S
C428 C430 1.419 . S
C429 C424 1.425 . S
C429 C426 1.409 . S
C429 C427 1.415 . S
C430 H420 0.930 . S
C430 C428 1.419 . S
C430 C431 1.362 . S
C431 H421 0.930 . S
C431 C424 1.409 . S
C431 C430 1.362 . S
H432 C438 0.930 . S
H433 C441 0.930 . S
H434 C442 0.930 . S
H435 C443 0.930 . S
H436 C446 0.930 . S
H437 C447 0.930 . S
C438 H432 0.930 . S
C438 C439 1.355 . S
C438 C440 1.415 . S
C439 C438 1.355 . S
C439 C441 1.419 . S
C440 C438 1.415 . S
C440 C445 1.425 . S
C440 C447 1.409 . S
C441 H433 0.930 . S
C441 C439 1.419 . S
C441 C442 1.362 . S
C442 H434 0.930 . S
C442 C441 1.362 . S
C442 C445 1.409 . S
C443 H435 0.930 . S
C443 C444 1.355 . S
C443 C445 1.415 . S
C444 C443 1.355 . S
C444 C446 1.419 . S
C445 C440 1.425 . S
C445 C442 1.409 . S
C445 C443 1.415 . S
C446 H436 0.930 . S
C446 C444 1.419 . S
C446 C447 1.362 . S
C447 H437 0.930 . S
C447 C440 1.409 . S
C447 C446 1.362 . S
H448 C454 0.930 . S
H449 C457 0.930 . S
H450 C458 0.930 . S
H451 C459 0.930 . S
H452 C462 0.930 . S
H453 C463 0.930 . S
C454 H448 0.930 . S
C454 C455 1.355 . S
C454 C456 1.415 . S
C455 C454 1.355 . S
C455 C457 1.419 . S
C456 C454 1.415 . S
C456 C461 1.425 . S
C456 C463 1.409 . S
C457 H449 0.930 . S
C457 C455 1.419 . S
C457 C458 1.362 . S
C458 H450 0.930 . S
C458 C457 1.362 . S
C458 C461 1.409 . S
C459 H451 0.930 . S
C459 C460 1.355 . S
C459 C461 1.415 . S
C460 C459 1.355 . S
C460 C462 1.419 . S
C461 C456 1.425 . S
C461 C458 1.409 . S
C461 C459 1.415 . S
C462 H452 0.930 . S
C462 C460 1.419 . S
C462 C463 1.362 . S
C463 H453 0.930 . S
C463 C456 1.409 . S
C463 C462 1.362 . S
H464 C470 0.930 . S
H465 C473 0.930 . S
H466 C474 0.930 . S
H467 C475 0.930 . S
H468 C478 0.930 . S
H469 C479 0.930 . S
C470 H464 0.930 . S
C470 C471 1.355 . S
C470 C472 1.415 . S
C471 C470 1.355 . S
C471 C473 1.419 . S
C472 C470 1.415 . S
C472 C477 1.425 . S
C472 C479 1.409 . S
C473 H465 0.930 . S
C473 C471 1.419 . S
C473 C474 1.362 . S
C474 H466 0.930 . S
C474 C473 1.362 . S
C474 C477 1.409 . S
C475 H467 0.930 . S
C475 C476 1.355 . S
C475 C477 1.415 . S
C476 C475 1.355 . S
C476 C478 1.419 . S
C477 C472 1.425 . S
C477 C474 1.409 . S
C477 C475 1.415 . S
C478 H468 0.930 . S
C478 C476 1.419 . S
C478 C479 1.362 . S
C479 H469 0.930 . S
C479 C472 1.409 . S
C479 C478 1.362 . S
H480 C486 0.930 . S
H481 C489 0.930 . S
H482 C490 0.930 . S
H483 C491 0.930 . S
H484 C494 0.930 . S
H485 C495 0.930 . S
C486 H480 0.930 . S
C486 C487 1.355 . S
C486 C488 1.415 . S
C487 C486 1.355 . S
C487 C489 1.419 . S
C488 C486 1.415 . S
C488 C493 1.425 . S
C488 C495 1.409 . S
C489 H481 0.930 . S
C489 C487 1.419 . S
C489 C490 1.362 . S
C490 H482 0.930 . S
C490 C489 1.362 . S
C490 C493 1.409 . S
C491 H483 0.930 . S
C491 C492 1.355 . S
C491 C493 1.415 . S
C492 C491 1.355 . S
C492 C494 1.419 . S
C493 C488 1.425 . S
C493 C490 1.409 . S
C493 C491 1.415 . S
C494 H484 0.930 . S
C494 C492 1.419 . S
C494 C495 1.362 . S
C495 H485 0.930 . S
C495 C488 1.409 . S
C495 C494 1.362 . S
H496 C502 0.930 . S
H497 C505 0.930 . S
H498 C506 0.930 . S
H499 C507 0.930 . S
H500 C510 0.930 . S
H501 C511 0.930 . S
C502 H496 0.930 . S
C502 C503 1.355 . S
C502 C504 1.415 . S
C503 C502 1.355 . S
C503 C505 1.419 . S
C504 C502 1.415 . S
C504 C509 1.425 . S
C504 C511 1.409 . S
C505 H497 0.930 . S
C505 C503 1.419 . S
C505 C506 1.362 . S
C506 H498 0.930 . S
C506 C505 1.362 . S
C506 C509 1.409 . S
C507 H499 0.930 . S
C507 C508 1.355 . S
C507 C509 1.415 . S
C508 C507 1.355 . S
C508 C510 1.419 . S
C509 C504 1.425 . S
C509 C506 1.409 . S
C509 C507 1.415 . S
C510 H500 0.930 . S
C510 C508 1.419 . S
C510 C511 1.362 . S
C511 H501 0.930 . S
C511 C504 1.409 . S
C511 C510 1.362 . S
H512 C518 0.930 . S
H513 C521 0.930 . S
H514 C522 0.930 . S
H515 C523 0.930 . S
H516 C526 0.930 . S
H517 C527 0.930 . S
C518 H512 0.930 . S
C518 C519 1.355 . S
C518 C520 1.415 . S
C519 C518 1.355 . S
C519 C521 1.419 . S
C520 C518 1.415 . S
C520 C525 1.425 . S
C520 C527 1.409 . S
C521 H513 0.930 . S
C521 C519 1.419 . S
C521 C522 1.362 . S
C522 H514 0.930 . S
C522 C521 1.362 . S
C522 C525 1.409 . S
C523 H515 0.930 . S
C523 C524 1.355 . S
C523 C525 1.415 . S
C524 C523 1.355 . S
C524 C526 1.419 . S
C525 C520 1.425 . S
C525 C522 1.409 . S
C525 C523 1.415 . S
C526 H516 0.930 . S
C526 C524 1.419 . S
C526 C527 1.362 . S
C527 H517 0.930 . S
C527 C520 1.409 . S
C527 C526 1.362 . S
H528 C534 0.930 . S
H529 C537 0.930 . S
H530 C538 0.930 . S
H531 C539 0.930 . S
H532 C542 0.930 . S
H533 C543 0.930 . S
C534 H528 0.930 . S
C534 C535 1.355 . S
C534 C536 1.415 . S
C535 C534 1.355 . S
C535 C537 1.419 . S
C536 C534 1.415 . S
C536 C541 1.425 . S
C536 C543 1.409 . S
C537 H529 0.930 . S
C537 C535 1.419 . S
C537 C538 1.362 . S
C538 H530 0.930 . S
C538 C537 1.362 . S
C538 C541 1.409 . S
C539 H531 0.930 . S
C539 C540 1.355 . S
C539 C541 1.415 . S
C540 C539 1.355 . S
C540 C542 1.419 . S
C541 C536 1.425 . S
C541 C538 1.409 . S
C541 C539 1.415 . S
C542 H532 0.930 . S
C542 C540 1.419 . S
C542 C543 1.362 . S
C543 H533 0.930 . S
C543 C536 1.409 . S
C543 C542 1.362 . S
H544 C550 0.930 . S
H545 C553 0.930 . S
H546 C554 0.930 . S
H547 C555 0.930 . S
H548 C558 0.930 . S
H549 C559 0.930 . S
C550 H544 0.930 . S
C550 C551 1.355 . S
C550 C552 1.415 . S
C551 C550 1.355 . S
C551 C553 1.419 . S
C552 C550 1.415 . S
C552 C557 1.425 . S
C552 C559 1.409 . S
C553 H545 0.930 . S
C553 C551 1.419 . S
C553 C554 1.362 . S
C554 H546 0.930 . S
C554 C553 1.362 . S
C554 C557 1.409 . S
C555 H547 0.930 . S
C555 C556 1.355 . S
C555 C557 1.415 . S
C556 C555 1.355 . S
C556 C558 1.419 . S
C557 C552 1.425 . S
C557 C554 1.409 . S
C557 C555 1.415 . S
C558 H548 0.930 . S
C558 C556 1.419 . S
C558 C559 1.362 . S
C559 H549 0.930 . S
C559 C552 1.409 . S
C559 C558 1.362 . S
H560 C566 0.930 . S
H561 C569 0.930 . S
H562 C570 0.930 . S
H563 C571 0.930 . S
H564 C574 0.930 . S
H565 C575 0.930 . S
C566 H560 0.930 . S
C566 C567 1.355 . S
C566 C568 1.415 . S
C567 C566 1.355 . S
C567 C569 1.419 . S
C568 C566 1.415 . S
C568 C573 1.425 . S
C568 C575 1.409 . S
C569 H561 0.930 . S
C569 C567 1.419 . S
C569 C570 1.362 . S
C570 H562 0.930 . S
C570 C569 1.362 . S
C570 C573 1.409 . S
C571 H563 0.930 . S
C571 C572 1.355 . S
C571 C573 1.415 . S
C572 C571 1.355 . S
C572 C574 1.419 . S
C573 C568 1.425 . S
C573 C570 1.409 . S
C573 C571 1.415 . S
C574 H564 0.930 . S
C574 C572 1.419 . S
C574 C575 1.362 . S
C575 H565 0.930 . S
C575 C568 1.409 . S
C575 C574 1.362 . S
H576 C582 0.930 . S
H577 C585 0.930 . S
H578 C586 0.930 . S
H579 C587 0.930 . S
H580 C590 0.930 . S
H581 C591 0.930 . S
C582 H576 0.930 . S
C582 C583 1.355 . S
C582 C584 1.415 . S
C583 C582 1.355 . S
C583 C585 1.419 . S
C584 C582 1.415 . S
C584 C589 1.425 . S
C584 C591 1.409 . S
C585 H577 0.930 . S
C585 C583 1.419 . S
C585 C586 1.362 . S
C586 H578 0.930 . S
C586 C585 1.362 . S
C586 C589 1.409 . S
C587 H579 0.930 . S
C587 C588 1.355 . S
C587 C589 1.415 . S
C588 C587 1.355 . S
C588 C590 1.419 . S
C589 C584 1.425 . S
C589 C586 1.409 . S
C589 C587 1.415 . S
C590 H580 0.930 . S
C590 C588 1.419 . S
C590 C591 1.362 . S
C591 H581 0.930 . S
C591 C584 1.409 . S
C591 C590 1.362 . S
H592 C598 0.930 . S
H593 C601 0.930 . S
H594 C602 0.930 . S
H595 C603 0.930 . S
H596 C606 0.930 . S
H597 C607 0.930 . S
C598 H592 0.930 . S
C598 C599 1.355 . S
C598 C600 1.415 . S
C599 C598 1.355 . S
C599 C601 1.419 . S
C600 C598 1.415 . S
C600 C605 1.425 . S
C600 C607 1.409 . S
C601 H593 0.930 . S
C601 C599 1.419 . S
C601 C602 1.362 . S
C602 H594 0.930 . S
C602 C601 1.362 . S
C602 C605 1.409 . S
C603 H595 0.930 . S
C603 C604 1.355 . S
C603 C605 1.415 . S
C604 C603 1.355 . S
C604 C606 1.419 . S
C605 C600 1.425 . S
C605 C602 1.409 . S
C605 C603 1.415 . S
C606 H596 0.930 . S
C606 C604 1.419 . S
C606 C607 1.362 . S
C607 H597 0.930 . S
C607 C600 1.409 . S
C607 C606 1.362 . S
H608 C614 0.930 . S
H609 C617 0.930 . S
H610 C618 0.930 . S
H611 C619 0.930 . S
H612 C622 0.930 . S
H613 C623 0.930 . S
C614 H608 0.930 . S
C614 C615 1.355 . S
C614 C616 1.415 . S
C615 C614 1.355 . S
C615 C617 1.419 . S
C616 C614 1.415 . S
C616 C621 1.425 . S
C616 C623 1.409 . S
C617 H609 0.930 . S
C617 C615 1.419 . S
C617 C618 1.362 . S
C618 H610 0.930 . S
C618 C617 1.362 . S
C618 C621 1.409 . S
C619 H611 0.930 . S
C619 C620 1.355 . S
C619 C621 1.415 . S
C620 C619 1.355 . S
C620 C622 1.419 . S
C621 C616 1.425 . S
C621 C618 1.409 . S
C621 C619 1.415 . S
C622 H612 0.930 . S
C622 C620 1.419 . S
C622 C623 1.362 . S
C623 H613 0.930 . S
C623 C616 1.409 . S
C623 C622 1.362 . S
H624 C630 0.930 . S
H625 C633 0.930 . S
H626 C634 0.930 . S
H627 C635 0.930 . S
H628 C638 0.930 . S
H629 C639 0.930 . S
C630 H624 0.930 . S
C630 C631 1.355 . S
C630 C632 1.415 . S
C631 C630 1.355 . S
C631 C633 1.419 . S
C632 C630 1.415 . S
C632 C637 1.425 . S
C632 C639 1.409 . S
C633 H625 0.930 . S
C633 C631 1.419 . S
C633 C634 1.362 . S
C634 H626 0.930 . S
C634 C633 1.362 . S
C634 C637 1.409 . S
C635 H627 0.930 . S
C635 C636 1.355 . S
C635 C637 1.415 . S
C636 C635 1.355 . S
C636 C638 1.419 . S
C637 C632 1.425 . S
C637 C634 1.409 . S
C637 C635 1.415 . S
C638 H628 0.930 . S
C638 C636 1.419 . S
C638 C639 1.362 . S
C639 H629 0.930 . S
C639 C632 1.409 . S
C639 C638 1.362 . S
H640 C646 0.930 . S
H641 C649 0.930 . S
H642 C650 0.930 . S
H643 C651 0.930 . S
H644 C654 0.930 . S
H645 C655 0.930 . S
C646 H640 0.930 . S
C646 C647 1.355 . S
C646 C648 1.415 . S
C647 C646 1.355 . S
C647 C649 1.419 . S
C648 C646 1.415 . S
C648 C653 1.425 . S
C648 C655 1.409 . S
C649 H641 0.930 . S
C649 C647 1.419 . S
C649 C650 1.362 . S
C650 H642 0.930 . S
C650 C649 1.362 . S
C650 C653 1.409 . S
C651 H643 0.930 . S
C651 C652 1.355 . S
C651 C653 1.415 . S
C652 C651 1.355 . S
C652 C654 1.419 . S
C653 C648 1.425 . S
C653 C650 1.409 . S
C653 C651 1.415 . S
C654 H644 0.930 . S
C654 C652 1.419 . S
C654 C655 1.362 . S
C655 H645 0.930 . S
C655 C648 1.409 . S
C655 C654 1.362 . S
H656 C662 0.930 . S
H657 C665 0.930 . S
H658 C666 0.930 . S
H659 C667 0.930 . S
H660 C670 0.930 . S
H661 C671 0.930 . S
C662 H656 0.930 . S
C662 C663 1.355 . S
C662 C664 1.415 . S
C663 C662 1.355 . S
C663 C665 1.419 . S
C664 C662 1.415 . S
C664 C669 1.425 . S
C664 C671 1.409 . S
C665 H657 0.930 . S
C665 C663 1.419 . S
C665 C666 1.362 . S
C666 H658 0.930 . S
C666 C665 1.362 . S
C666 C669 1.409 . S
C667 H659 0.930 . S
C667 C668 1.355 . S
C667 C669 1.415 . S
C668 C667 1.355 . S
C668 C670 1.419 . S
C669 C664 1.425 . S
C669 C666 1.409 . S
C669 C667 1.415 . S
C670 H660 0.930 . S
C670 C668 1.419 . S
C670 C671 1.362 . S
C671 H661 0.930 . S
C671 C664 1.409 . S
C671 C670 1.362 . S
H672 C678 0.930 . S
H673 C681 0.930 . S
H674 C682 0.930 . S
H675 C683 0.930 . S
H676 C686 0.930 . S
H677 C687 0.930 . S
C678 H672 0.930 . S
C678 C679 1.355 . S
C678 C680 1.415 . S
C679 C678 1.355 . S
C679 C681 1.419 1_545 S
C680 C678 1.415 . S
C680 C685 1.425 1_544 S
C680 C687 1.409 1_554 S
C681 H673 0.930 . S
C681 C679 1.419 1_565 S
C681 C682 1.362 . S
C682 H674 0.930 . S
C682 C681 1.362 . S
C682 C685 1.409 1_554 S
C683 H675 0.930 . S
C683 C684 1.355 . S
C683 C685 1.415 . S
C684 C683 1.355 . S
C684 C686 1.419 1_565 S
C685 C680 1.425 1_566 S
C685 C682 1.409 1_556 S
C685 C683 1.415 . S
C686 H676 0.930 . S
C686 C684 1.419 1_545 S
C686 C687 1.362 . S
C687 H677 0.930 . S
C687 C680 1.409 1_556 S
C687 C686 1.362 . S
H688 C694 0.930 . S
H689 C697 0.930 . S
H690 C698 0.930 1_554 S
H691 C699 0.930 . S
H692 C702 0.930 . S
H693 C703 0.930 1_556 S
C694 H688 0.930 . S
C694 C695 1.355 1_655 S
C694 C696 1.415 . S
C695 C694 1.355 1_455 S
C695 C697 1.419 . S
C696 C694 1.415 . S
C696 C701 1.425 1_656 S
C696 C703 1.409 1_556 S
C697 H689 0.930 . S
C697 C695 1.419 . S
C697 C698 1.362 . S
C698 H690 0.930 1_556 S
C698 C697 1.362 . S
C698 C701 1.409 1_556 S
C699 H691 0.930 . S
C699 C700 1.355 1_455 S
C699 C701 1.415 . S
C700 C699 1.355 1_655 S
C700 C702 1.419 . S
C701 C696 1.425 1_454 S
C701 C698 1.409 1_554 S
C701 C699 1.415 . S
C702 H692 0.930 . S
C702 C700 1.419 . S
C702 C703 1.362 . S
C703 H693 0.930 1_554 S
C703 C696 1.409 1_554 S
C703 C702 1.362 . S
H704 C710 0.930 . S
H705 C713 0.930 . S
H706 C714 0.930 . S
H707 C715 0.930 . S
H708 C718 0.930 . S
H709 C719 0.930 . S
C710 H704 0.930 . S
C710 C711 1.355 . S
C710 C712 1.415 . S
C711 C710 1.355 . S
C711 C713 1.419 1_545 S
C712 C710 1.415 . S
C712 C717 1.425 1_546 S
C712 C719 1.409 1_556 S
C713 H705 0.930 . S
C713 C711 1.419 1_565 S
C713 C714 1.362 . S
C714 H706 0.930 . S
C714 C713 1.362 . S
C714 C717 1.409 1_556 S
C715 H707 0.930 . S
C715 C716 1.355 . S
C715 C717 1.415 . S
C716 C715 1.355 . S
C716 C718 1.419 1_565 S
C717 C712 1.425 1_564 S
C717 C714 1.409 1_554 S
C717 C715 1.415 . S
C718 H708 0.930 . S
C718 C716 1.419 1_545 S
C718 C719 1.362 . S
C719 H709 0.930 . S
C719 C712 1.409 1_554 S
C719 C718 1.362 . S
H720 C726 0.930 . S
H721 C729 0.930 . S
H722 C730 0.930 . S
H723 C731 0.930 . S
H724 C734 0.930 . S
H725 C735 0.930 . S
C726 H720 0.930 . S
C726 C727 1.355 . S
C726 C728 1.415 . S
C727 C726 1.355 . S
C727 C729 1.419 1_655 S
C728 C726 1.415 . S
C728 C733 1.425 1_656 S
C728 C735 1.409 1_556 S
C729 H721 0.930 . S
C729 C727 1.419 1_455 S
C729 C730 1.362 . S
C730 H722 0.930 . S
C730 C729 1.362 . S
C730 C733 1.409 1_556 S
C731 H723 0.930 . S
C731 C732 1.355 . S
C731 C733 1.415 . S
C732 C731 1.355 . S
C732 C734 1.419 1_455 S
C733 C728 1.425 1_454 S
C733 C730 1.409 1_554 S
C733 C731 1.415 . S
C734 H724 0.930 . S
C734 C732 1.419 1_655 S
C734 C735 1.362 . S
C735 H725 0.930 . S
C735 C728 1.409 1_554 S
C735 C734 1.362 . S
C231 C8 1.304 . S
C236 C106 1.280 . S
C247 C22 1.290 . S
C252 C64 1.295 . S
C263 C78 1.287 . S
C268 C36 1.298 . S
C279 C50 1.286 . S
C284 C92 1.298 . S
C295 C120 1.281 . S
C300 C218 1.303 . S
C311 C176 1.304 . S
C316 C134 1.280 . S
C327 C190 1.297 . S
C332 C148 1.288 . S
C343 C204 1.304 . S
C348 C162 1.280 . S
C359 C9 1.403 . S
C364 C157 1.428 . S
C375 C23 1.342 . S
C380 C115 1.431 . S
C391 C129 1.429 . S
C396 C37 1.319 . S
C407 C51 1.370 . S
C412 C143 1.426 . S
C423 C65 1.319 . S
C428 C185 1.429 . S
C439 C199 1.428 . S
C444 C79 1.317 . S
C455 C93 1.318 . S
C460 C213 1.428 . S
C471 C171 1.427 . S
C476 C107 1.319 . S
C487 C121 1.395 . S
C492 C45 1.431 . S
C503 C3 1.429 . S
C508 C135 1.404 . S
C519 C149 1.372 . S
C524 C17 1.426 . S
C535 C31 1.427 . S
C540 C163 1.324 . S
C551 C177 1.321 . S
C556 C73 1.430 . S
C567 C87 1.427 . S
C572 C191 1.319 . S
C583 C101 1.431 . S
C588 C205 1.397 . S
C599 C59 1.426 . S
C604 C219 1.328 . S
C615 C63 1.587 . S
C620 C7 1.558 . S
C631 C77 1.551 . S
C636 C21 1.573 . S
C647 C35 1.575 . S
C652 C91 1.571 . S
C663 C105 1.595 . S
C668 C49 1.546 . S
C679 C175 1.538 . S
C684 C119 1.594 . S
C695 C189 1.548 . S
C700 C133 1.594 . S
C711 C147 1.543 . S
C716 C203 1.584 . S
C727 C217 1.589 . S
C732 C161 1.540 . S
