# Generated by pormake.
# Topology uoz, (4)-cn, num edge types: 1
# Building blocks:
#     Node 0, Type 0, BuildingBlock: CEKHIL_clean_sbu_0, # of connection points: 4
#     Node 1, Type 0, BuildingBlock: CEKHIL_clean_sbu_0, # of connection points: 4
#     Node 2, Type 0, BuildingBlock: CEKHIL_clean_sbu_0, # of connection points: 4
#     Node 3, Type 0, BuildingBlock: CEKHIL_clean_sbu_0, # of connection points: 4
#     Node 4, Type 0, BuildingBlock: CEKHIL_clean_sbu_0, # of connection points: 4
#     Node 5, Type 0, BuildingBlock: CEKHIL_clean_sbu_0, # of connection points: 4
#     Node 6, Type 0, BuildingBlock: CEKHIL_clean_sbu_0, # of connection points: 4
#     Node 7, Type 0, BuildingBlock: CEKHIL_clean_sbu_0, # of connection points: 4
#     Node 8, Type 0, BuildingBlock: CEKHIL_clean_sbu_0, # of connection points: 4
#     Node 9, Type 0, BuildingBlock: CEKHIL_clean_sbu_0, # of connection points: 4
#     Node 10, Type 0, BuildingBlock: CEKHIL_clean_sbu_0, # of connection points: 4
#     Node 11, Type 0, BuildingBlock: CEKHIL_clean_sbu_0, # of connection points: 4
#     Node 12, Type 0, BuildingBlock: CEKHIL_clean_sbu_0, # of connection points: 4
#     Node 13, Type 0, BuildingBlock: CEKHIL_clean_sbu_0, # of connection points: 4
#     Node 14, Type 0, BuildingBlock: CEKHIL_clean_sbu_0, # of connection points: 4
#     Node 15, Type 0, BuildingBlock: CEKHIL_clean_sbu_0, # of connection points: 4
#     Edge 16, Type (0, 0), BuildingBlock: TEMPAE_clean_linker_10, # of connection points: 2
#     Edge 17, Type (0, 0), BuildingBlock: TEMPAE_clean_linker_10, # of connection points: 2
#     Edge 18, Type (0, 0), BuildingBlock: TEMPAE_clean_linker_10, # of connection points: 2
#     Edge 19, Type (0, 0), BuildingBlock: TEMPAE_clean_linker_10, # of connection points: 2
#     Edge 20, Type (0, 0), BuildingBlock: TEMPAE_clean_linker_10, # of connection points: 2
#     Edge 21, Type (0, 0), BuildingBlock: TEMPAE_clean_linker_10, # of connection points: 2
#     Edge 22, Type (0, 0), BuildingBlock: TEMPAE_clean_linker_10, # of connection points: 2
#     Edge 23, Type (0, 0), BuildingBlock: TEMPAE_clean_linker_10, # of connection points: 2
#     Edge 24, Type (0, 0), BuildingBlock: TEMPAE_clean_linker_10, # of connection points: 2
#     Edge 25, Type (0, 0), BuildingBlock: TEMPAE_clean_linker_10, # of connection points: 2
#     Edge 26, Type (0, 0), BuildingBlock: TEMPAE_clean_linker_10, # of connection points: 2
#     Edge 27, Type (0, 0), BuildingBlock: TEMPAE_clean_linker_10, # of connection points: 2
#     Edge 28, Type (0, 0), BuildingBlock: TEMPAE_clean_linker_10, # of connection points: 2
#     Edge 29, Type (0, 0), BuildingBlock: TEMPAE_clean_linker_10, # of connection points: 2
#     Edge 30, Type (0, 0), BuildingBlock: TEMPAE_clean_linker_10, # of connection points: 2
#     Edge 31, Type (0, 0), BuildingBlock: TEMPAE_clean_linker_10, # of connection points: 2
#     Edge 32, Type (0, 0), BuildingBlock: TEMPAE_clean_linker_10, # of connection points: 2
#     Edge 33, Type (0, 0), BuildingBlock: TEMPAE_clean_linker_10, # of connection points: 2
#     Edge 34, Type (0, 0), BuildingBlock: TEMPAE_clean_linker_10, # of connection points: 2
#     Edge 35, Type (0, 0), BuildingBlock: TEMPAE_clean_linker_10, # of connection points: 2
#     Edge 36, Type (0, 0), BuildingBlock: TEMPAE_clean_linker_10, # of connection points: 2
#     Edge 37, Type (0, 0), BuildingBlock: TEMPAE_clean_linker_10, # of connection points: 2
#     Edge 38, Type (0, 0), BuildingBlock: TEMPAE_clean_linker_10, # of connection points: 2
#     Edge 39, Type (0, 0), BuildingBlock: TEMPAE_clean_linker_10, # of connection points: 2
#     Edge 40, Type (0, 0), BuildingBlock: TEMPAE_clean_linker_10, # of connection points: 2
#     Edge 41, Type (0, 0), BuildingBlock: TEMPAE_clean_linker_10, # of connection points: 2
#     Edge 42, Type (0, 0), BuildingBlock: TEMPAE_clean_linker_10, # of connection points: 2
#     Edge 43, Type (0, 0), BuildingBlock: TEMPAE_clean_linker_10, # of connection points: 2
#     Edge 44, Type (0, 0), BuildingBlock: TEMPAE_clean_linker_10, # of connection points: 2
#     Edge 45, Type (0, 0), BuildingBlock: TEMPAE_clean_linker_10, # of connection points: 2
#     Edge 46, Type (0, 0), BuildingBlock: TEMPAE_clean_linker_10, # of connection points: 2
#     Edge 47, Type (0, 0), BuildingBlock: TEMPAE_clean_linker_10, # of connection points: 2
# Relax obj value: 0.187
# Max RMSD: 0.171
# Mean RMSD: 0.171
data_MOF--net-uoz--node1-CEKHIL_clean_sbu_0--edge1-TEMPAE_clean_linker_10
_symmetry_space_group_name_H-M    P1
_symmetry_Int_Tables_number       1
_symmetry_cell_setting            triclinic
loop_
_symmetry_equiv_pos_as_xyz
'x, y, z'
_cell_length_a     60.721655
_cell_length_b     60.702627
_cell_length_c     21.028399
_cell_angle_alpha  90.018283
_cell_angle_beta   89.966108
_cell_angle_gamma 89.996407
loop_
_atom_site_label
_atom_site_type_symbol
_atom_site_fract_x
_atom_site_fract_y
_atom_site_fract_z
_atom_type_partial_charge
Co0 Co 0.03066 0.59054 0.31645 0.0
O1 O 0.01562 0.5658 0.35559 0.0
O2 O 0.04488 0.58182 0.39636 0.0
C3 C 0.99992 0.61012 0.29125 0.0
O4 O 0.05038 0.61668 0.28927 0.0
Co5 Co 0.02241 0.60251 0.17338 0.0
O6 O 0.03695 0.63033 0.19746 0.0
C7 C 0.05272 0.56613 0.2077 0.0
C8 C 0.03023 0.56619 0.40051 0.0
C9 C 0.04993 0.63149 0.24489 0.0
O10 O 0.04995 0.56943 0.26761 0.0
O11 O 0.04268 0.57683 0.16405 0.0
O12 O 0.00822 0.61143 0.34821 0.0
O13 O 0.00922 0.596 0.25448 0.0
Co14 Co 0.7007 0.74305 0.56784 0.0
O15 O 0.72397 0.7286 0.61482 0.0
O16 O 0.70842 0.75962 0.64504 0.0
C17 C 0.68031 0.71247 0.54671 0.0
O18 O 0.67598 0.76232 0.52977 0.0
Co19 Co 0.69357 0.7294 0.42475 0.0
O20 O 0.66701 0.74794 0.43419 0.0
C21 C 0.73045 0.75835 0.46107 0.0
C22 C 0.7235 0.74471 0.65518 0.0
C23 C 0.66385 0.76175 0.47902 0.0
O24 O 0.72341 0.76018 0.51844 0.0
O25 O 0.7221 0.74553 0.41929 0.0
O26 O 0.67818 0.72245 0.60122 0.0
O27 O 0.6959 0.71984 0.51147 0.0
Co28 Co 0.53978 0.41767 0.80746 0.0
O29 O 0.55378 0.44329 0.84506 0.0
O30 O 0.52514 0.42642 0.88675 0.0
C31 C 0.57122 0.39895 0.78375 0.0
O32 O 0.52118 0.39059 0.78187 0.0
Co33 Co 0.54885 0.40492 0.66523 0.0
O34 O 0.53519 0.37683 0.6909 0.0
C35 C 0.51619 0.43959 0.69701 0.0
C36 C 0.53919 0.44262 0.89005 0.0
C37 C 0.52217 0.37555 0.73826 0.0
O38 O 0.51957 0.43748 0.75712 0.0
O39 O 0.52665 0.42886 0.65421 0.0
O40 O 0.56292 0.39791 0.84077 0.0
O41 O 0.56156 0.41251 0.74605 0.0
Co42 Co 0.87019 0.25879 0.06242 0.0
O43 O 0.84532 0.27348 0.10203 0.0
O44 O 0.86184 0.24445 0.14251 0.0
C45 C 0.88943 0.28971 0.03665 0.0
O46 O 0.89658 0.23949 0.03474 0.0
Co47 Co 0.88148 0.26726 0.91886 0.0
O48 O 0.90952 0.25303 0.94217 0.0
C49 C 0.84587 0.23624 0.95425 0.0
C50 C 0.84601 0.25888 0.14696 0.0
C51 C 0.91116 0.24015 0.98974 0.0
O52 O 0.84926 0.23914 0.01406 0.0
O53 O 0.85621 0.24647 0.91024 0.0
O54 O 0.89084 0.28151 0.09372 0.0
O55 O 0.87525 0.2803 1.00032 0.0
Co56 Co 0.02428 0.42211 0.82636 0.0
O57 O 0.00996 0.44633 0.78265 0.0
O58 O 0.04087 0.43104 0.7505 0.0
C59 C 0.99362 0.40146 0.84379 0.0
O60 O 0.04359 0.39662 0.85963 0.0
Co61 Co 0.01125 0.41092 0.96736 0.0
O62 O 0.02836 0.38388 0.95031 0.0
C63 C 0.04172 0.44769 0.93972 0.0
C64 C 0.02602 0.44626 0.74198 0.0
C65 C 0.04252 0.3825 0.90571 0.0
O66 O 0.04147 0.44372 0.87966 0.0
O67 O 0.03007 0.43745 0.98083 0.0
O68 O 0.00371 0.40041 0.78922 0.0
O69 O 1.001 0.41618 0.88217 0.0
Co70 Co 0.8682 0.74487 0.0786 0.0
O71 O 0.84322 0.73101 0.03764 0.0
O72 O 0.85945 0.76086 1.00137 0.0
C73 C 0.88774 0.71364 0.0979 0.0
O74 O 0.89463 0.76346 0.10948 0.0
Co75 Co 0.8792 0.73276 0.2203 0.0
O76 O 0.90691 0.74822 0.20058 0.0
C77 C 0.84501 0.76606 0.19113 0.0
C78 C 0.84361 0.7465 0.99532 0.0
C79 C 0.90879 0.7621 0.15546 0.0
O80 O 0.84763 0.76369 0.13083 0.0
O81 O 0.85529 0.75484 0.23317 0.0
O82 O 0.88885 0.72308 0.04243 0.0
O83 O 0.87344 0.72191 0.13612 0.0
Co84 Co 0.54399 0.58414 0.32243 0.0
O85 O 0.55835 0.56074 0.27548 0.0
O86 O 0.52751 0.57655 0.24502 0.0
C87 C 0.57459 0.60443 0.34381 0.0
O88 O 0.5249 0.60909 0.36004 0.0
Co89 Co 0.55739 0.59135 0.46561 0.0
O90 O 0.53944 0.61828 0.45522 0.0
C91 C 0.52821 0.55464 0.42942 0.0
C92 C 0.54236 0.56142 0.23477 0.0
C93 C 0.52571 0.62148 0.41024 0.0
O94 O 0.52661 0.56158 0.37187 0.0
O95 O 0.54098 0.56298 0.47131 0.0
O96 O 0.56475 0.60649 0.28912 0.0
O97 O 0.56715 0.58886 0.37904 0.0
Co98 Co 0.70223 0.2621 0.57443 0.0
O99 O 0.72654 0.27669 0.53176 0.0
O100 O 0.71122 0.24605 0.49764 0.0
C101 C 0.68173 0.29278 0.59348 0.0
O102 O 0.67664 0.24256 0.60612 0.0
Co103 Co 0.69059 0.27398 0.7159 0.0
O104 O 0.6635 0.25722 0.69709 0.0
C105 C 0.7275 0.24375 0.68707 0.0
C106 C 0.72647 0.26094 0.49009 0.0
C107 C 0.66231 0.24334 0.65174 0.0
O108 O 0.72374 0.2445 0.62693 0.0
O109 O 0.71706 0.25502 0.72869 0.0
O110 O 0.68067 0.28306 0.53836 0.0
O111 O 0.69627 0.28498 0.63167 0.0
Co112 Co 0.36815 0.24203 0.56938 0.0
O113 O 0.34452 0.22828 0.52197 0.0
O114 O 0.36014 0.25954 0.49428 0.0
C115 C 0.38862 0.21122 0.5865 0.0
O116 O 0.39317 0.26071 0.6079 0.0
Co117 Co 0.37611 0.22675 0.71063 0.0
O118 O 0.40267 0.2454 0.70179 0.0
C119 C 0.33911 0.25617 0.67918 0.0
C120 C 0.34495 0.24483 0.48312 0.0
C121 C 0.4056 0.2596 0.65787 0.0
O122 O 0.34592 0.25875 0.6218 0.0
O123 O 0.34753 0.24269 0.71904 0.0
O124 O 0.3904 0.22179 0.53285 0.0
O125 O 0.37321 0.21814 0.62319 0.0
Co126 Co 0.2025 0.76584 0.06673 0.0
O127 O 0.22547 0.78011 0.01787 0.0
O128 O 0.21065 0.74833 0.9916 0.0
C129 C 0.18137 0.79623 0.08393 0.0
O130 O 0.17821 0.74659 0.10713 0.0
Co131 Co 0.19511 0.78151 0.20791 0.0
O132 O 0.16933 0.76166 0.20194 0.0
C133 C 0.23306 0.75364 0.17463 0.0
C134 C 0.22535 0.76344 0.97942 0.0
C135 C 0.16633 0.74733 0.15838 0.0
O136 O 0.22551 0.75 0.11852 0.0
O137 O 0.22467 0.76733 0.214 0.0
O138 O 0.17951 0.78538 0.03076 0.0
O139 O 0.19711 0.78979 0.12004 0.0
Co140 Co 0.20172 0.25001 0.0556 0.0
O141 O 0.22681 0.2359 0.09526 0.0
O142 O 0.20992 0.26479 0.13535 0.0
C143 C 0.18296 0.21867 0.03127 0.0
O144 O 0.17499 0.26863 0.0267 0.0
Co145 Co 0.19127 0.2401 0.91208 0.0
O146 O 0.1632 0.25459 0.93346 0.0
C147 C 0.22527 0.27302 0.94668 0.0
C148 C 0.22598 0.2506 0.13985 0.0
C149 C 0.16093 0.2677 0.98033 0.0
O150 O 0.2222 0.26999 1.00659 0.0
O151 O 0.21533 0.26221 0.90306 0.0
O152 O 0.18142 0.22715 0.08797 0.0
O153 O 0.19711 0.228 0.99472 0.0
Co154 Co 0.37055 0.75949 0.55622 0.0
O155 O 0.34505 0.77375 0.59379 0.0
O156 O 0.36113 0.74447 0.63426 0.0
C157 C 0.38995 0.79077 0.53533 0.0
O158 O 0.3973 0.74044 0.53046 0.0
Co159 Co 0.38438 0.76942 0.41531 0.0
O160 O 0.41188 0.75459 0.44077 0.0
C161 C 0.34878 0.73727 0.44327 0.0
C162 C 0.34522 0.75883 0.63789 0.0
C163 C 0.41254 0.74121 0.48736 0.0
O164 O 0.35059 0.74009 0.50372 0.0
O165 O 0.36001 0.74788 0.40184 0.0
O166 O 0.39064 0.78197 0.59175 0.0
O167 O 0.37643 0.78164 0.49647 0.0
Co168 Co 0.52864 0.08651 0.81208 0.0
O169 O 0.51386 0.06278 0.85665 0.0
O170 O 0.54394 0.07895 0.89148 0.0
C171 C 0.49802 0.10634 0.78711 0.0
O172 O 0.54808 0.11184 0.77783 0.0
Co173 Co 0.51776 0.09447 0.6676 0.0
O174 O 0.53452 0.12186 0.68225 0.0
C175 C 0.54768 0.05848 0.70583 0.0
C176 C 0.52918 0.06359 0.89947 0.0
C177 C 0.54771 0.12474 0.72867 0.0
O178 O 0.54705 0.06423 0.76465 0.0
O179 O 0.53622 0.0674 0.66184 0.0
O180 O 0.507 0.10844 0.84301 0.0
O181 O 0.50636 0.09109 0.7523 0.0
Co182 Co 0.04107 0.92133 0.30463 0.0
O183 O 0.05499 0.94671 0.34356 0.0
O184 O 0.02636 0.92959 0.38437 0.0
C185 C 0.07248 0.90273 0.28012 0.0
O186 O 0.02264 0.89436 0.27698 0.0
Co187 Co 0.05057 0.91007 0.16142 0.0
O188 O 0.03694 0.88176 0.18493 0.0
C189 C 0.01747 0.94403 0.19543 0.0
C190 C 0.04038 0.94579 0.38842 0.0
C191 C 0.02385 0.87982 0.23196 0.0
O192 O 0.0208 0.94143 0.25539 0.0
O193 O 0.02813 0.93382 0.15198 0.0
O194 O 0.06418 0.90136 0.33707 0.0
O195 O 0.06294 0.91666 0.24331 0.0
Co196 Co 0.52921 0.91922 0.32541 0.0
O197 O 0.51497 0.9445 0.28655 0.0
O198 O 0.54436 0.92826 0.24718 0.0
C199 C 0.49804 0.89979 0.34701 0.0
O200 O 0.54823 0.89261 0.35249 0.0
Co201 Co 0.51928 0.90636 0.46703 0.0
O202 O 0.53379 0.87855 0.4425 0.0
C203 C 0.55132 0.94176 0.43736 0.0
C204 C 0.53 0.94415 0.24271 0.0
C205 C 0.54722 0.87756 0.39604 0.0
O206 O 0.54849 0.93952 0.37707 0.0
O207 O 0.54079 0.93084 0.47958 0.0
O208 O 0.50685 0.89888 0.2906 0.0
O209 O 0.50704 0.91361 0.38531 0.0
Co210 Co 0.04687 0.08781 0.81929 0.0
O211 O 0.061 0.06439 0.77181 0.0
O212 O 0.02955 0.07958 0.74401 0.0
C213 C 0.07745 0.10862 0.83649 0.0
O214 O 0.02779 0.11255 0.85787 0.0
Co215 Co 0.06194 0.096 0.96059 0.0
O216 O 0.04278 0.1222 0.95208 0.0
C217 C 0.03319 0.05848 0.92881 0.0
C218 C 0.04449 0.06463 0.7328 0.0
C219 C 0.02858 0.12494 0.90804 0.0
O220 O 0.03046 0.06532 0.87152 0.0
O221 O 0.04655 0.0671 0.96868 0.0
O222 O 0.06684 0.11032 0.78291 0.0
O223 O 0.07067 0.09317 0.87321 0.0
C224 C 0.14553 0.71247 0.12977 0.0
C225 C 0.14902 0.73035 0.17087 0.0
C226 C 0.12983 0.69606 0.14428 0.0
C227 C 0.11736 0.6975 0.20128 0.0
C228 C 0.12081 0.71548 0.24277 0.0
C229 C 0.13643 0.73161 0.22707 0.0
C230 C 0.12651 0.6772 0.09854 0.0
C231 C 0.10788 0.71779 0.30385 0.0
C232 C 0.06175 0.66876 0.20842 0.0
C233 C 0.06654 0.64948 0.24272 0.0
C234 C 0.07806 0.68447 0.19507 0.0
C235 C 0.09988 0.68092 0.2163 0.0
C236 C 0.10472 0.66188 0.25293 0.0
C237 C 0.08797 0.64641 0.26595 0.0
C238 C 0.072 0.70465 0.15687 0.0
C239 C 0.12775 0.65756 0.27678 0.0
H240 H 0.15515 0.71119 0.08647 0.0
H241 H 0.13882 0.74526 0.25956 0.0
H242 H 0.12916 0.66129 0.12336 0.0
H243 H 0.1093 0.67723 0.08083 0.0
H244 H 0.13785 0.67809 0.05713 0.0
H245 H 0.113 0.7324 0.33202 0.0
H246 H 0.09006 0.71928 0.29306 0.0
H247 H 0.11002 0.70286 0.33362 0.0
H248 H 0.04521 0.67132 0.19043 0.0
H249 H 0.09188 0.63145 0.29171 0.0
H250 H 0.08166 0.70502 0.11209 0.0
H251 H 0.07617 0.71979 0.18389 0.0
H252 H 0.0542 0.70514 0.14473 0.0
H253 H 0.13918 0.65594 0.23586 0.0
H254 H 0.12875 0.64234 0.30594 0.0
H255 H 0.13356 0.67167 0.30581 0.0
C256 C 0.55883 0.84029 0.43312 0.0
C257 C 0.56373 0.8595 0.39864 0.0
C258 C 0.57506 0.82451 0.44657 0.0
C259 C 0.59689 0.82793 0.42516 0.0
C260 C 0.60185 0.8469 0.38841 0.0
C261 C 0.58518 0.86245 0.37537 0.0
C262 C 0.56891 0.80439 0.48495 0.0
C263 C 0.62488 0.85105 0.36429 0.0
C264 C 0.64281 0.79623 0.50984 0.0
C265 C 0.64617 0.77845 0.46826 0.0
C266 C 0.62696 0.81259 0.49628 0.0
C267 C 0.61425 0.81121 0.43975 0.0
C268 C 0.61749 0.79327 0.39798 0.0
C269 C 0.63322 0.77717 0.41279 0.0
C270 C 0.62382 0.83139 0.54235 0.0
C271 C 0.60432 0.79104 0.33734 0.0
H272 H 0.54227 0.83781 0.45112 0.0
H273 H 0.58918 0.87735 0.34944 0.0
H274 H 0.57286 0.78922 0.45783 0.0
H275 H 0.57869 0.80393 0.52947 0.0
H276 H 0.55114 0.80408 0.49753 0.0
H277 H 0.626 0.86632 0.33539 0.0
H278 H 0.6364 0.85246 0.40505 0.0
H279 H 0.6305 0.83694 0.33489 0.0
H280 H 0.65269 0.7975 0.55259 0.0
H281 H 0.63548 0.76358 0.38002 0.0
H282 H 0.6066 0.83152 0.56005 0.0
H283 H 0.62666 0.84731 0.51777 0.0
H284 H 0.63513 0.83029 0.58374 0.0
H285 H 0.58652 0.78979 0.34867 0.0
H286 H 0.60917 0.77634 0.30914 0.0
H287 H 0.60655 0.80592 0.30737 0.0
C288 C 0.51048 0.33855 0.69894 0.0
C289 C 0.50599 0.35716 0.73661 0.0
C290 C 0.49428 0.32267 0.68637 0.0
C291 C 0.47294 0.32527 0.71227 0.0
C292 C 0.46848 0.3435 0.75257 0.0
C293 C 0.48508 0.35923 0.76437 0.0
C294 C 0.49989 0.3034 0.64384 0.0
C295 C 0.44599 0.3467 0.78168 0.0
C296 C 0.42578 0.29479 0.6299 0.0
C297 C 0.42342 0.27613 0.6687 0.0
C298 C 0.44168 0.31105 0.64378 0.0
C299 C 0.4555 0.30863 0.69774 0.0
C300 C 0.45332 0.28977 0.73659 0.0
C301 C 0.43746 0.2738 0.72154 0.0
C302 C 0.44366 0.33085 0.60082 0.0
C303 C 0.46775 0.28642 0.79433 0.0
H304 H 0.52663 0.3367 0.67754 0.0
H305 H 0.48137 0.37362 0.79297 0.0
H306 H 0.49662 0.28767 0.66896 0.0
H307 H 0.48926 0.30368 0.60093 0.0
H308 H 0.51738 0.30357 0.62838 0.0
H309 H 0.44535 0.36126 0.81366 0.0
H310 H 0.43358 0.34887 0.7435 0.0
H311 H 0.44121 0.33186 0.8092 0.0
H312 H 0.41503 0.29687 0.58923 0.0
H313 H 0.43599 0.25948 0.75201 0.0
H314 H 0.46049 0.33163 0.58036 0.0
H315 H 0.44112 0.34617 0.62869 0.0
H316 H 0.43155 0.33048 0.56124 0.0
H317 H 0.48529 0.28567 0.77979 0.0
H318 H 0.46365 0.27107 0.82053 0.0
H319 H 0.46598 0.30059 0.8273 0.0
C320 C 0.92779 0.20311 0.01549 0.0
C321 C 0.92957 0.22398 0.98733 0.0
C322 C 0.94365 0.18662 1.00352 0.0
C323 C 0.96171 0.19116 0.96267 0.0
C324 C 0.96398 0.21246 0.93623 0.0
C325 C 0.94798 0.22853 0.94893 0.0
C326 C 0.94078 0.16417 0.03316 0.0
C327 C 0.98307 0.21816 0.89316 0.0
C328 C 0.01383 0.1566 0.97168 0.0
C329 C 0.0117 0.14243 0.91898 0.0
C330 C 0.99757 0.17216 0.98685 0.0
C331 C 0.97859 0.1739 0.94831 0.0
C332 C 0.97635 0.15992 0.89458 0.0
C333 C 0.99291 0.14434 0.88054 0.0
C334 C 1.00076 0.18678 0.0443 0.0
C335 C 0.95642 0.16141 0.85197 0.0
H336 H 0.91355 0.19936 0.04466 0.0
H337 H 0.94962 0.24465 0.92723 0.0
H338 H 0.93877 0.1516 0.99528 0.0
H339 H 0.9557 0.15969 0.06071 0.0
H340 H 0.92625 0.16343 0.06523 0.0
H341 H 0.9826 0.23559 0.87706 0.0
H342 H 0.99889 0.21527 0.91816 0.0
H343 H 0.98289 0.20733 0.85065 0.0
H344 H 0.02824 0.15547 1.00189 0.0
H345 H 0.99098 0.13347 0.84003 0.0
H346 H 0.98665 0.18491 0.07741 0.0
H347 H 1.00126 0.2043 0.02941 0.0
H348 H 0.01618 0.18295 0.07046 0.0
H349 H 0.94122 0.15876 0.88023 0.0
H350 H 0.9569 0.14915 0.81277 0.0
H351 H 0.95534 0.17815 0.83099 0.0
C352 C 0.05519 0.34689 0.95287 0.0
C353 C 0.05936 0.36481 0.91224 0.0
C354 C 0.07153 0.33129 0.9669 0.0
C355 C 0.09271 0.33349 0.93963 0.0
C356 C 0.09697 0.35125 0.89749 0.0
C357 C 0.08024 0.36668 0.88415 0.0
C358 C 0.06612 0.3125 0.01135 0.0
C359 C 0.1193 0.35404 0.86696 0.0
C360 C 0.14089 0.30232 0.01505 0.0
C361 C 0.14237 0.28375 0.97552 0.0
C362 C 0.12475 0.31865 1.00428 0.0
C363 C 0.1099 0.31644 0.95253 0.0
C364 C 0.11104 0.29753 0.91352 0.0
C365 C 0.12701 0.28143 0.92577 0.0
C366 C 0.12378 0.33843 0.04764 0.0
C367 C 0.09558 0.29442 0.8579 0.0
H368 H 0.03909 0.34516 0.97464 0.0
H369 H 0.0837 0.38055 0.85327 0.0
H370 H 0.06825 0.29654 0.9864 0.0
H371 H 0.07763 0.31256 0.05232 0.0
H372 H 0.04899 0.31341 0.02975 0.0
H373 H 0.12009 0.36881 0.83588 0.0
H374 H 0.13214 0.35551 0.90423 0.0
H375 H 0.12333 0.33928 0.83807 0.0
H376 H 0.15264 0.30437 0.05337 0.0
H377 H 0.12773 0.26715 0.89491 0.0
H378 H 0.10713 0.33984 0.06903 0.0
H379 H 0.12672 0.35367 0.01978 0.0
H380 H 0.13614 0.33753 0.08649 0.0
H381 H 0.07826 0.29435 0.87469 0.0
H382 H 0.09874 0.27883 0.83176 0.0
H383 H 0.09732 0.30836 0.82417 0.0
C384 C 0.98753 0.86194 0.25936 0.0
C385 C 0.008 0.86115 0.22848 0.0
C386 C 0.97126 0.84591 0.24706 0.0
C387 C 0.97556 0.82876 0.20283 0.0
C388 C 0.99644 0.82752 0.17328 0.0
C389 C 0.01236 0.84358 0.1867 0.0
C390 C 0.9493 0.84755 0.28035 0.0
C391 C 1.00184 0.80948 0.12626 0.0
C392 C 0.94268 0.77564 0.21054 0.0
C393 C 0.92695 0.77849 0.16206 0.0
C394 C 0.95829 0.79193 0.22461 0.0
C395 C 0.9586 0.8116 0.18876 0.0
C396 C 0.94332 0.81441 0.13835 0.0
C397 C 0.9276 0.79786 0.12571 0.0
C398 C 0.97425 0.78817 0.27866 0.0
C399 C 0.94342 0.83503 0.0983 0.0
H400 H 0.98392 0.87549 0.29126 0.0
H401 H 0.02817 0.84265 0.16286 0.0
H402 H 0.936 0.84973 0.24475 0.0
H403 H 0.94581 0.83206 0.30647 0.0
H404 H 0.94868 0.86152 0.31445 0.0
H405 H 0.01884 0.8109 0.10716 0.0
H406 H 1.00006 0.79312 0.14916 0.0
H407 H 0.9901 0.81002 0.08589 0.0
H408 H 0.94257 0.76074 0.23892 0.0
H409 H 0.91552 0.80033 0.08845 0.0
H410 H 0.97255 0.8015 0.31446 0.0
H411 H 0.99142 0.78871 0.26071 0.0
H412 H 0.97159 0.7721 0.30269 0.0
H413 H 0.9405 0.84964 0.12887 0.0
H414 H 0.93068 0.83463 0.06045 0.0
H415 H 0.9598 0.83719 0.07573 0.0
C416 C 0.42746 0.70342 0.51222 0.0
C417 C 0.43034 0.72437 0.48533 0.0
C418 C 0.44268 0.68635 0.50033 0.0
C419 C 0.46122 0.69036 0.46086 0.0
C420 C 0.46459 0.7117 0.43567 0.0
C421 C 0.4492 0.72837 0.44826 0.0
C422 C 0.43864 0.66388 0.52865 0.0
C423 C 0.48424 0.71683 0.3941 0.0
C424 C 0.51168 0.65361 0.47313 0.0
C425 C 0.50946 0.63963 0.42004 0.0
C426 C 0.496 0.66985 0.48724 0.0
C427 C 0.47753 0.67252 0.44715 0.0
C428 C 0.47522 0.65877 0.39293 0.0
C429 C 0.49119 0.64246 0.38001 0.0
C430 C 0.49924 0.68416 0.54531 0.0
C431 C 0.45583 0.66126 0.34868 0.0
H432 H 0.41287 0.7001 0.54031 0.0
H433 H 0.45167 0.74453 0.42748 0.0
H434 H 0.43655 0.65159 0.49005 0.0
H435 H 0.45308 0.65868 0.55725 0.0
H436 H 0.42377 0.66353 0.55945 0.0
H437 H 0.48457 0.73432 0.37862 0.0
H438 H 0.49972 0.71322 0.42006 0.0
H439 H 0.484 0.70619 0.35121 0.0
H440 H 0.52571 0.6518 0.50454 0.0
H441 H 0.4892 0.63178 0.33912 0.0
H442 H 0.48478 0.68273 0.57733 0.0
H443 H 0.50054 0.7017 0.53098 0.0
H444 H 0.51426 0.67967 0.57249 0.0
H445 H 0.44024 0.65908 0.3755 0.0
H446 H 0.45623 0.64918 0.30902 0.0
H447 H 0.45563 0.67813 0.32835 0.0
C448 C 0.64703 0.20543 0.62985 0.0
C449 C 0.64466 0.22641 0.65698 0.0
C450 C 0.63169 0.18855 0.64275 0.0
C451 C 0.6135 0.1928 0.68338 0.0
C452 C 0.61075 0.21411 0.70939 0.0
C453 C 0.62629 0.23057 0.69593 0.0
C454 C 0.63511 0.16608 0.61369 0.0
C455 C 0.59147 0.21952 0.7521 0.0
C456 C 0.56208 0.1575 0.66943 0.0
C457 C 0.56408 0.14293 0.72123 0.0
C458 C 0.57811 0.17349 0.65642 0.0
C459 C 0.59669 0.17536 0.69645 0.0
C460 C 0.5987 0.16112 0.74971 0.0
C461 C 0.58239 0.14504 0.76145 0.0
C462 C 0.57517 0.18833 0.59934 0.0
C463 C 0.61818 0.16279 0.79394 0.0
H464 H 0.66125 0.20198 0.60031 0.0
H465 H 0.62419 0.24676 0.71692 0.0
H466 H 0.63663 0.15354 0.65181 0.0
H467 H 0.62062 0.16153 0.5844 0.0
H468 H 0.65008 0.16538 0.58333 0.0
H469 H 0.59183 0.23685 0.76905 0.0
H470 H 0.57578 0.21673 0.72632 0.0
H471 H 0.59147 0.20844 0.79405 0.0
H472 H 0.54801 0.15626 0.63795 0.0
H473 H 0.58421 0.13389 0.80134 0.0
H474 H 0.58946 0.18662 0.56681 0.0
H475 H 0.57454 0.2058 0.61475 0.0
H476 H 0.55991 0.18456 0.57233 0.0
H477 H 0.63366 0.16017 0.76694 0.0
H478 H 0.61738 0.15057 0.83319 0.0
H479 H 0.61899 0.17956 0.81483 0.0
C480 C 0.96263 0.3909 0.91479 0.0
C481 C 0.97746 0.38494 0.86659 0.0
C482 C 0.9485 0.37536 0.94264 0.0
C483 C 0.94949 0.35308 0.92295 0.0
C484 C 0.96442 0.34693 0.87405 0.0
C485 C 0.97809 0.36301 0.84591 0.0
C486 C 0.93252 0.3828 0.99337 0.0
C487 C 0.96623 0.32329 0.8524 0.0
C488 C 0.92534 0.31061 0.03794 0.0
C489 C 0.90476 0.30646 0.01033 0.0
C490 C 0.94032 0.32537 0.00931 0.0
C491 C 0.93438 0.33649 0.95243 0.0
C492 C 0.91349 0.33248 0.92501 0.0
C493 C 0.89907 0.31744 0.95393 0.0
C494 C 0.96255 0.32897 0.0396 0.0
C495 C 0.90625 0.34423 0.86525 0.0
H496 H 0.96215 0.40785 0.93104 0.0
H497 H 0.9898 0.35826 0.80948 0.0
H498 H 0.91543 0.37867 0.97905 0.0
H499 H 0.93591 0.37399 0.03852 0.0
H500 H 0.9335 0.40081 1.0024 0.0
H501 H 0.97884 0.32111 0.81462 0.0
H502 H 0.97059 0.31262 0.89335 0.0
H503 H 0.95013 0.3175 0.83401 0.0
H504 H 0.92994 0.30198 0.08104 0.0
H505 H 0.88317 0.31432 0.93228 0.0
H506 H 0.96435 0.34648 0.05379 0.0
H507 H 0.9758 0.32534 1.00474 0.0
H508 H 0.96502 0.31847 0.08226 0.0
H509 H 0.90634 0.3623 0.87325 0.0
H510 H 0.88949 0.33923 0.84983 0.0
H511 H 0.91796 0.34077 0.826 0.0
C512 C 0.47851 0.14306 0.78518 0.0
C513 C 0.48174 0.12195 0.75979 0.0
C514 C 0.4642 0.1582 0.7554 0.0
C515 C 0.45264 0.15193 0.69956 0.0
C516 C 0.45575 0.13054 0.67433 0.0
C517 C 0.4703 0.11594 0.70444 0.0
C518 C 0.4615 0.18092 0.78344 0.0
C519 C 0.44352 0.12297 0.61571 0.0
C520 C 0.39884 0.18098 0.66048 0.0
C521 C 0.40496 0.19509 0.61066 0.0
C522 C 0.41417 0.16694 0.68959 0.0
C523 C 0.43638 0.16716 0.66921 0.0
C524 C 0.44269 0.1813 0.61859 0.0
C525 C 0.42685 0.195 0.5895 0.0
C526 C 0.40655 0.15187 0.74237 0.0
C527 C 0.46626 0.18219 0.59592 0.0
H528 H 0.4875 0.1479 0.82745 0.0
H529 H 0.47269 0.09964 0.68448 0.0
H530 H 0.4654 0.19358 0.74709 0.0
H531 H 0.44413 0.18349 0.79806 0.0
H532 H 0.47228 0.18357 0.82543 0.0
H533 H 0.44799 0.1059 0.60163 0.0
H534 H 0.42551 0.12364 0.62441 0.0
H535 H 0.4471 0.13415 0.57528 0.0
H536 H 0.38193 0.181 0.67712 0.0
H537 H 0.43173 0.20612 0.55172 0.0
H538 H 0.41577 0.15551 0.78665 0.0
H539 H 0.41 0.13447 0.7296 0.0
H540 H 0.38865 0.15357 0.7523 0.0
H541 H 0.47723 0.18674 0.63601 0.0
H542 H 0.46861 0.19426 0.55681 0.0
H543 H 0.47151 0.1657 0.57895 0.0
C544 C 0.59207 0.64212 0.34679 0.0
C545 C 0.59052 0.62056 0.3702 0.0
C546 C 0.6058 0.65777 0.37665 0.0
C547 C 0.61845 0.65158 0.43053 0.0
C548 C 0.6171 0.62973 0.45359 0.0
C549 C 0.6031 0.6146 0.42346 0.0
C550 C 0.60665 0.68096 0.35096 0.0
C551 C 0.63055 0.62225 0.51002 0.0
C552 C 0.6708 0.68327 0.4685 0.0
C553 C 0.66445 0.69619 0.52077 0.0
C554 C 0.65598 0.66888 0.43869 0.0
C555 C 0.63404 0.66746 0.46101 0.0
C556 C 0.62747 0.68043 0.51394 0.0
C557 C 0.64282 0.69455 0.54356 0.0
C558 C 0.66387 0.65511 0.38331 0.0
C559 C 0.60417 0.67952 0.5388 0.0
H560 H 0.58216 0.64691 0.30622 0.0
H561 H 0.60198 0.59795 0.44188 0.0
H562 H 0.60223 0.69284 0.38898 0.0
H563 H 0.62365 0.68493 0.33539 0.0
H564 H 0.59531 0.68337 0.3101 0.0
H565 H 0.62745 0.60473 0.52244 0.0
H566 H 0.64835 0.6243 0.49971 0.0
H567 H 0.6267 0.63259 0.55209 0.0
H568 H 0.68751 0.68444 0.45061 0.0
H569 H 0.63775 0.70471 0.58337 0.0
H570 H 0.65377 0.65863 0.34057 0.0
H571 H 0.66185 0.63735 0.39441 0.0
H572 H 0.68144 0.65823 0.37157 0.0
H573 H 0.59244 0.68366 0.50016 0.0
H574 H 0.60147 0.69104 0.57912 0.0
H575 H 0.60025 0.66256 0.55485 0.0
C576 C 0.17155 0.82715 0.15607 0.0
C577 C 0.16515 0.81255 0.10774 0.0
C578 C 0.15642 0.84156 0.18458 0.0
C579 C 0.13411 0.84121 0.16519 0.0
C580 C 0.1275 0.82656 0.11611 0.0
C581 C 0.14316 0.81251 0.0875 0.0
C582 C 0.16434 0.85717 0.23566 0.0
C583 C 0.10382 0.8255 0.09462 0.0
C584 C 0.09253 0.86636 0.28106 0.0
C585 C 0.089 0.88714 0.25393 0.0
C586 C 0.10678 0.851 0.25198 0.0
C587 C 0.11802 0.85674 0.19511 0.0
C588 C 0.11469 0.87785 0.16826 0.0
C589 C 0.10014 0.89266 0.19765 0.0
C590 C 0.10969 0.82857 0.28174 0.0
C591 C 0.12661 0.88488 0.10855 0.0
H592 H 0.18853 0.82726 0.17195 0.0
H593 H 0.13807 0.80103 0.05085 0.0
H594 H 0.1608 0.87443 0.22164 0.0
H595 H 0.15539 0.85398 0.28072 0.0
H596 H 0.18229 0.85557 0.24475 0.0
H597 H 0.10123 0.813 0.05675 0.0
H598 H 0.09303 0.82144 0.13559 0.0
H599 H 0.09853 0.8418 0.07639 0.0
H600 H 0.08373 0.86188 0.32402 0.0
H601 H 0.09748 0.90871 0.17636 0.0
H602 H 0.12717 0.82613 0.29541 0.0
H603 H 0.10551 0.81555 0.24671 0.0
H604 H 0.09924 0.82636 0.32463 0.0
H605 H 0.14467 0.8842 0.11636 0.0
H606 H 0.12213 0.90184 0.09355 0.0
H607 H 0.12275 0.87338 0.06909 0.0
C608 C 0.97918 0.64613 0.29229 0.0
C609 C 0.98292 0.62529 0.2657 0.0
C610 C 0.96421 0.66097 0.26396 0.0
C611 C 0.95245 0.65461 0.20857 0.0
C612 C 0.95597 0.63342 0.1824 0.0
C613 C 0.97125 0.61917 0.21086 0.0
C614 C 0.96118 0.68353 0.29278 0.0
C615 C 0.9435 0.62573 0.12434 0.0
C616 C 0.89826 0.68342 0.17176 0.0
C617 C 0.9041 0.6975 0.12165 0.0
C618 C 0.91377 0.66935 0.20008 0.0
C619 C 0.9359 0.6697 0.17892 0.0
C620 C 0.94194 0.68391 0.1282 0.0
C621 C 0.92589 0.69748 0.09963 0.0
C622 C 0.90644 0.65412 0.25278 0.0
C623 C 0.96543 0.68506 0.10495 0.0
H624 H 0.98834 0.65105 0.33417 0.0
H625 H 0.97404 0.60306 0.19008 0.0
H626 H 0.96479 0.69638 0.25674 0.0
H627 H 0.9438 0.68577 0.30775 0.0
H628 H 0.97199 0.68622 0.33466 0.0
H629 H 0.94797 0.60866 0.11026 0.0
H630 H 0.92552 0.62634 0.13368 0.0
H631 H 0.94687 0.63686 0.08369 0.0
H632 H 0.88143 0.68345 0.18906 0.0
H633 H 0.93056 0.70863 0.06171 0.0
H634 H 0.91567 0.65783 0.29698 0.0
H635 H 0.91012 0.63679 0.23978 0.0
H636 H 0.88854 0.65556 0.26291 0.0
H637 H 0.9765 0.68953 0.14489 0.0
H638 H 0.96757 0.6973 0.06617 0.0
H639 H 0.97075 0.66868 0.08731 0.0
C640 C 0.10803 0.11876 0.90939 0.0
C641 C 0.09371 0.12491 0.86013 0.0
C642 C 0.12234 0.13403 0.9377 0.0
C643 C 0.12214 0.15623 0.91714 0.0
C644 C 0.10779 0.16257 0.8671 0.0
C645 C 0.09385 0.14677 0.83874 0.0
C646 C 0.13764 0.12638 0.98982 0.0
C647 C 0.1069 0.18613 0.84435 0.0
C648 C 0.14662 0.19858 0.03178 0.0
C649 C 0.16753 0.20199 1.00525 0.0
C650 C 0.13146 0.18409 1.00289 0.0
C651 C 0.13752 0.17249 0.94691 0.0
C652 C 0.15875 0.17568 0.92073 0.0
C653 C 0.17336 0.19049 0.94984 0.0
C654 C 0.10889 0.18134 0.03187 0.0
C655 C 0.16612 0.16336 0.86204 0.0
H656 H 0.10799 0.10187 0.92616 0.0
H657 H 0.08259 0.15167 0.80135 0.0
H658 H 0.15498 0.12984 0.9764 0.0
H659 H 0.13421 0.13559 0.0343 0.0
H660 H 0.13599 0.10848 0.99969 0.0
H661 H 0.09463 0.18851 0.80577 0.0
H662 H 0.10262 0.19717 0.88457 0.0
H663 H 0.12331 0.19129 0.82661 0.0
H664 H 0.14192 0.20765 0.07407 0.0
H665 H 0.18951 0.19305 0.92907 0.0
H666 H 0.10639 0.16395 0.0464 0.0
H667 H 0.09605 0.18527 0.99609 0.0
H668 H 0.10643 0.19207 0.07408 0.0
H669 H 0.16538 0.14535 0.87081 0.0
H670 H 0.18317 0.16773 0.8476 0.0
H671 H 0.15487 0.16697 0.82183 0.0
C672 C 0.67164 0.32356 0.66591 0.0
C673 C 0.66553 0.30923 0.61661 0.0
C674 C 0.65639 0.33807 0.6936 0.0
C675 C 0.63425 0.33797 0.67261 0.0
C676 C 0.62795 0.32355 0.62264 0.0
C677 C 0.64375 0.30949 0.5947 0.0
C678 C 0.66402 0.35349 0.7455 0.0
C679 C 0.60444 0.32268 0.59958 0.0
C680 C 0.59159 0.36276 0.78595 0.0
C681 C 0.58813 0.38355 0.75875 0.0
C682 C 0.60623 0.34755 0.75779 0.0
C683 C 0.61797 0.35347 0.70192 0.0
C684 C 0.61477 0.37461 0.67516 0.0
C685 C 0.59978 0.38925 0.70349 0.0
C686 C 0.60894 0.32506 0.7873 0.0
C687 C 0.62724 0.38185 0.61661 0.0
H688 H 0.68847 0.32338 0.68308 0.0
H689 H 0.63888 0.29819 0.55735 0.0
H690 H 0.66058 0.3708 0.73178 0.0
H691 H 0.65478 0.35016 0.78999 0.0
H692 H 0.68191 0.35183 0.75549 0.0
H693 H 0.60208 0.31031 0.56124 0.0
H694 H 0.59332 0.31857 0.63974 0.0
H695 H 0.59938 0.33907 0.5814 0.0
H696 H 0.5824 0.35815 0.8281 0.0
H697 H 0.59718 0.4053 0.68219 0.0
H698 H 0.6263 0.32259 0.80202 0.0
H699 H 0.60503 0.31212 0.75176 0.0
H700 H 0.59816 0.32273 0.82948 0.0
H701 H 0.64523 0.38099 0.62562 0.0
H702 H 0.62301 0.39892 0.60201 0.0
H703 H 0.62362 0.37058 0.57642 0.0
C704 C 0.42695 0.8096 0.53686 0.0
C705 C 0.40563 0.8077 0.51201 0.0
C706 C 0.44241 0.82408 0.50916 0.0
C707 C 0.4362 0.83728 0.45635 0.0
C708 C 0.41449 0.83572 0.4323 0.0
C709 C 0.39962 0.82081 0.4599 0.0
C710 C 0.46549 0.82498 0.53558 0.0
C711 C 0.40694 0.84979 0.37725 0.0
C712 C 0.4684 0.88989 0.42362 0.0
C713 C 0.48134 0.88399 0.37098 0.0
C714 C 0.45366 0.87491 0.45152 0.0
C715 C 0.45208 0.85323 0.42721 0.0
C716 C 0.46513 0.84713 0.37396 0.0
C717 C 0.47944 0.86267 0.346 0.0
C718 C 0.43974 0.88235 0.50708 0.0
C719 C 0.46421 0.82407 0.34722 0.0
H720 H 0.43178 0.79925 0.57646 0.0
H721 H 0.38314 0.81938 0.44045 0.0
H722 H 0.47753 0.82094 0.49761 0.0
H723 H 0.46926 0.8419 0.55226 0.0
H724 H 0.46788 0.81337 0.5758 0.0
H725 H 0.38938 0.84692 0.365 0.0
H726 H 0.40914 0.86748 0.38896 0.0
H727 H 0.41714 0.8463 0.33464 0.0
H728 H 0.46982 0.90636 0.44318 0.0
H729 H 0.48966 0.85793 0.30599 0.0
H730 H 0.4433 0.87203 0.54936 0.0
H731 H 0.42202 0.88022 0.4957 0.0
H732 H 0.44267 0.89988 0.51968 0.0
H733 H 0.46828 0.81197 0.38497 0.0
H734 H 0.47578 0.82174 0.30684 0.0
H735 H 0.44727 0.82033 0.33066 0.0
C736 C 0.08084 0.54986 0.13715 0.0
C737 C 0.0655 0.54713 0.18629 0.0
C738 C 0.08603 0.53226 0.09672 0.0
C739 C 0.07467 0.51213 0.10424 0.0
C740 C 0.06177 0.50849 0.15954 0.0
C741 C 0.05759 0.52613 0.20072 0.0
C742 C 0.10134 0.53611 0.04138 0.0
C743 C 0.04966 0.48708 0.17013 0.0
C744 C 0.04561 0.48687 0.96443 0.0
C745 C 0.05491 0.4659 0.96401 0.0
C746 C 0.05328 0.50293 1.00665 0.0
C747 C 0.07099 0.49779 0.0482 0.0
C748 C 0.08214 0.47745 0.04203 0.0
C749 C 0.07361 0.46144 1.00073 0.0
C750 C 0.04082 0.52443 0.01142 0.0
C751 C 0.10182 0.47172 0.08251 0.0
H752 H 0.08717 0.56618 0.12673 0.0
H753 H 0.04576 0.52415 0.23901 0.0
H754 H 0.1104 0.52083 0.02883 0.0
H755 H 0.09166 0.54128 0.99922 0.0
H756 H 0.1134 0.54936 0.05222 0.0
H757 H 0.04222 0.48616 0.21835 0.0
H758 H 0.03629 0.48546 0.13443 0.0
H759 H 0.06094 0.47289 0.16393 0.0
H760 H 0.03098 0.49001 0.93624 0.0
H761 H 0.08065 0.44502 1.00028 0.0
H762 H 0.05227 0.53855 1.00679 0.0
H763 H 0.03276 0.52566 0.05869 0.0
H764 H 0.02793 0.526 0.9742 0.0
H765 H 0.11083 0.48662 0.09854 0.0
H766 H 0.11335 0.46091 0.05587 0.0
H767 H 0.09627 0.46248 0.12509 0.0
C768 C 0.83272 0.79476 0.26605 0.0
C769 C 0.82781 0.78072 0.21509 0.0
C770 C 0.81618 0.80127 0.30847 0.0
C771 C 0.79479 0.7926 0.30059 0.0
C772 C 0.78915 0.7818 0.243 0.0
C773 C 0.8059 0.77606 0.20027 0.0
C774 C 0.82234 0.81445 0.36657 0.0
C775 C 0.76624 0.77303 0.23152 0.0
C776 C 0.76935 0.76 0.43282 0.0
C777 C 0.74946 0.77111 0.44062 0.0
C778 C 0.7854 0.76815 0.39153 0.0
C779 C 0.78128 0.78798 0.35769 0.0
C780 C 0.76232 0.80062 0.37179 0.0
C781 C 0.74635 0.79181 0.4128 0.0
C782 C 0.80557 0.75418 0.379 0.0
C783 C 0.75778 0.82235 0.33966 0.0
H784 H 0.84976 0.79874 0.27646 0.0
H785 H 0.80221 0.7654 0.16026 0.0
H786 H 0.80831 0.82471 0.38301 0.0
H787 H 0.82689 0.80307 0.40569 0.0
H788 H 0.83671 0.82526 0.35682 0.0
H789 H 0.76384 0.76787 0.1813 0.0
H790 H 0.76334 0.75852 0.26258 0.0
H791 H 0.75373 0.78565 0.24354 0.0
H792 H 0.77144 0.7439 0.45437 0.0
H793 H 0.73074 0.80025 0.41887 0.0
H794 H 0.82075 0.7641 0.38505 0.0
H795 H 0.80527 0.74802 0.3293 0.0
H796 H 0.80658 0.73975 0.41139 0.0
H797 H 0.77308 0.83034 0.32227 0.0
H798 H 0.74925 0.83376 0.37286 0.0
H799 H 0.74666 0.81963 0.29857 0.0
C800 C 0.49424 0.53935 0.47658 0.0
C801 C 0.51512 0.53586 0.45015 0.0
C802 C 0.48486 0.52362 0.51736 0.0
C803 C 0.49706 0.50448 0.53262 0.0
C804 C 0.51717 0.50005 0.50046 0.0
C805 C 0.52592 0.51588 0.45947 0.0
C806 C 0.46294 0.52858 0.54788 0.0
C807 C 0.53069 0.47967 0.51422 0.0
C808 C 0.50663 0.47889 0.69001 0.0
C809 C 0.50174 0.45713 0.67372 0.0
C810 C 0.50169 0.49598 0.64757 0.0
C811 C 0.49145 0.49084 0.58878 0.0
C812 C 0.4824 0.46969 0.57925 0.0
C813 C 0.48806 0.4528 0.62153 0.0
C814 C 0.51079 0.51865 0.66083 0.0
C815 C 0.46981 0.46408 0.51963 0.0
H816 H 0.48606 0.55504 0.46949 0.0
H817 H 0.54217 0.5135 0.4391 0.0
H818 H 0.45448 0.51343 0.56451 0.0
H819 H 0.46551 0.5396 0.58932 0.0
H820 H 0.45202 0.53737 0.51396 0.0
H821 H 0.54545 0.47844 0.48316 0.0
H822 H 0.53628 0.47989 0.56446 0.0
H823 H 0.52061 0.46464 0.50724 0.0
H824 H 0.51697 0.48218 0.73097 0.0
H825 H 0.48385 0.4359 0.60993 0.0
H826 H 0.49868 0.5315 0.64751 0.0
H827 H 0.52585 0.52127 0.63181 0.0
H828 H 0.51519 0.52077 0.71175 0.0
H829 H 0.45997 0.47838 0.503 0.0
H830 H 0.45868 0.44983 0.52757 0.0
H831 H 0.48157 0.45959 0.48136 0.0
C832 C 0.83031 0.20734 0.88505 0.0
C833 C 0.82718 0.22292 0.93337 0.0
C834 C 0.81289 0.20152 0.84475 0.0
C835 C 0.79251 0.21249 0.85149 0.0
C836 C 0.78852 0.22565 0.90608 0.0
C837 C 0.806 0.23048 0.94719 0.0
C838 C 0.81715 0.18591 0.79033 0.0
C839 C 0.76683 0.23734 0.9159 0.0
C840 C 0.76679 0.24027 0.71032 0.0
C841 C 0.74592 0.23075 0.71085 0.0
C842 C 0.78301 0.23305 0.75266 0.0
C843 C 0.77817 0.21551 0.79515 0.0
C844 C 0.758 0.20402 0.7897 0.0
C845 C 0.7418 0.21216 0.74841 0.0
C846 C 0.8043 0.24589 0.75665 0.0
C847 C 0.75264 0.18443 0.83099 0.0
H848 H 0.84677 0.2013 0.87511 0.0
H849 H 0.80371 0.24249 0.98484 0.0
H850 H 0.80205 0.17653 0.77798 0.0
H851 H 0.82229 0.19539 0.74776 0.0
H852 H 0.83055 0.17414 0.80212 0.0
H853 H 0.76574 0.24518 0.96356 0.0
H854 H 0.76487 0.25035 0.87923 0.0
H855 H 0.75293 0.22566 0.91065 0.0
H856 H 0.76968 0.25481 0.68147 0.0
H857 H 0.72547 0.20491 0.74866 0.0
H858 H 0.8186 0.23464 0.75242 0.0
H859 H 0.80544 0.25423 0.80352 0.0
H860 H 0.80564 0.2586 0.71882 0.0
H861 H 0.7677 0.17584 0.84767 0.0
H862 H 0.74216 0.17252 0.80466 0.0
H863 H 0.74315 0.18999 0.87314 0.0
C864 C 0.26455 0.2828 0.94314 0.0
C865 C 0.24296 0.28756 0.9249 0.0
C866 C 0.28198 0.28713 0.90125 0.0
C867 C 0.27729 0.29644 0.8409 0.0
C868 C 0.25635 0.30569 0.8294 0.0
C869 C 0.23915 0.30081 0.87143 0.0
C870 C 0.30448 0.27809 0.91674 0.0
C871 C 0.25119 0.31725 0.76777 0.0
C872 C 0.32485 0.29076 0.72557 0.0
C873 C 0.32087 0.26947 0.70266 0.0
C874 C 0.30981 0.30094 0.76696 0.0
C875 C 0.29075 0.28924 0.7859 0.0
C876 C 0.28585 0.26854 0.75768 0.0
C877 C 0.3011 0.2589 0.71652 0.0
C878 C 0.3154 0.32327 0.79389 0.0
C879 C 0.26546 0.25555 0.77516 0.0
H880 H 0.26746 0.27287 0.98519 0.0
H881 H 0.22238 0.30496 0.85835 0.0
H882 H 0.30683 0.26216 0.89166 0.0
H883 H 0.31754 0.28954 0.90044 0.0
H884 H 0.30648 0.2752 0.96859 0.0
H885 H 0.23701 0.32866 0.77343 0.0
H886 H 0.26566 0.32664 0.75027 0.0
H887 H 0.24678 0.30484 0.73116 0.0
H888 H 0.34042 0.29873 0.71508 0.0
H889 H 0.29833 0.24233 0.69882 0.0
H890 H 0.32667 0.32119 0.83496 0.0
H891 H 0.30056 0.3323 0.81031 0.0
H892 H 0.32412 0.33345 0.7579 0.0
H893 H 0.26605 0.25094 0.82619 0.0
H894 H 0.2638 0.24022 0.74669 0.0
H895 H 0.25049 0.26567 0.76758 0.0
C896 C 0.3353 0.7111 0.3625 0.0
C897 C 0.33119 0.72328 0.41791 0.0
C898 C 0.31823 0.7065 0.31985 0.0
C899 C 0.29701 0.71485 0.33289 0.0
C900 C 0.29214 0.72313 0.39439 0.0
C901 C 0.30948 0.72726 0.43674 0.0
C902 C 0.3237 0.69617 0.25657 0.0
C903 C 0.2694 0.73123 0.41128 0.0
C904 C 0.27106 0.75262 0.21286 0.0
C905 C 0.25193 0.74112 0.19758 0.0
C906 C 0.2868 0.74333 0.25305 0.0
C907 C 0.28303 0.72206 0.27906 0.0
C908 C 0.26463 0.70958 0.2589 0.0
C909 C 0.24912 0.71938 0.21825 0.0
C910 C 0.30649 0.75714 0.27182 0.0
C911 C 0.26021 0.68672 0.28386 0.0
H912 H 0.35216 0.7075 0.34892 0.0
H913 H 0.30632 0.73635 0.48021 0.0
H914 H 0.30958 0.68651 0.23802 0.0
H915 H 0.3275 0.70935 0.22167 0.0
H916 H 0.33833 0.68526 0.26032 0.0
H917 H 0.26735 0.73317 0.46349 0.0
H918 H 0.26658 0.74749 0.38855 0.0
H919 H 0.25666 0.7197 0.3934 0.0
H920 H 0.27293 0.76951 0.19685 0.0
H921 H 0.23403 0.71068 0.20674 0.0
H922 H 0.32196 0.74786 0.26367 0.0
H923 H 0.30558 0.76122 0.3232 0.0
H924 H 0.30741 0.77281 0.24463 0.0
H925 H 0.27558 0.67815 0.29811 0.0
H926 H 0.25156 0.67661 0.24761 0.0
H927 H 0.24932 0.68785 0.32611 0.0
C928 C 0.58059 0.95491 0.5094 0.0
C929 C 0.56532 0.95951 0.46128 0.0
C930 C 0.58737 0.97148 0.55141 0.0
C931 C 0.57767 0.99256 0.54653 0.0
C932 C 0.56482 0.99793 0.49231 0.0
C933 C 0.55901 0.98123 0.44955 0.0
C934 C 0.60263 0.96568 0.60539 0.0
C935 C 0.55448 0.02039 0.48443 0.0
C936 C 0.55041 0.01894 0.68701 0.0
C937 C 0.56072 0.03945 0.68675 0.0
C938 C 0.55737 1.00235 0.64551 0.0
C939 C 0.5754 0.00646 0.60411 0.0
C940 C 0.58781 0.02603 0.61083 0.0
C941 C 0.57997 0.04264 0.65132 0.0
C942 C 0.54362 0.98166 0.64045 0.0
C943 C 0.60799 0.03047 0.57102 0.0
H944 H 0.58568 0.93802 0.51764 0.0
H945 H 0.54725 0.98464 0.41199 0.0
H946 H 0.61251 0.98016 0.62041 0.0
H947 H 0.59284 0.96003 0.64683 0.0
H948 H 0.61394 0.9521 0.59163 0.0
H949 H 0.54666 0.02241 0.43703 0.0
H950 H 0.54168 0.02282 0.5215 0.0
H951 H 0.56701 0.03348 0.4905 0.0
H952 H 0.53539 0.01677 0.7143 0.0
H953 H 0.58785 0.05868 0.6513 0.0
H954 H 0.5542 0.96684 0.64401 0.0
H955 H 0.53528 0.98117 0.59351 0.0
H956 H 0.53084 0.98069 0.67817 0.0
H957 H 0.61597 0.01501 0.55479 0.0
H958 H 0.62015 0.04034 0.59835 0.0
H959 H 0.60328 0.04025 0.5286 0.0
C960 C 0.03113 0.02045 0.96635 0.0
C961 C 0.0202 0.04 0.95216 0.0
C962 C 0.02164 0.005 1.00716 0.0
C963 C 1.00075 0.00948 0.03475 0.0
C964 C 0.98875 0.02832 0.01553 0.0
C965 C 0.99876 0.04356 0.97444 0.0
C966 C 0.03496 0.98486 0.02492 0.0
C967 C 0.96622 0.03346 0.04184 0.0
C968 C 0.9898 0.95757 0.11929 0.0
C969 C 1.00278 0.96154 0.17319 0.0
C970 C 0.98477 0.97473 0.0773 0.0
C971 C 0.9936 0.99583 0.08938 0.0
C972 C 1.00259 1.00061 0.15005 0.0
C973 C 0.00708 0.9832 0.19185 0.0
C974 C 0.97356 0.96943 0.01523 0.0
C975 C 0.01114 0.02326 0.1661 0.0
H976 H 0.0478 0.01802 0.94912 0.0
H977 H 0.99051 0.05896 0.96371 0.0
H978 H 0.03938 0.98553 0.07609 0.0
H979 H 0.02518 0.96969 0.01698 0.0
H980 H 0.05042 0.98351 0.99691 0.0
H981 H 0.95602 0.04204 1.00567 0.0
H982 H 0.95741 0.01842 0.05776 0.0
H983 H 0.96794 0.0447 0.08314 0.0
H984 H 0.98596 0.94074 0.1059 0.0
H985 H 0.01679 0.98625 0.23424 0.0
H986 H 0.9862 0.96528 0.979 0.0
H987 H 0.96399 0.98376 0.99757 0.0
H988 H 0.96239 0.95504 0.02035 0.0
H989 H 0.02714 0.02592 0.14166 0.0
H990 H 0.01375 0.02526 0.21808 0.0
H991 H 0.99954 0.03614 0.14949 0.0
C992 C 0.0433 0.46245 0.64229 0.0
C993 C 0.02757 0.46359 0.69121 0.0
C994 C 0.0447 0.47901 0.59503 0.0
C995 C 0.03026 0.49743 0.5969 0.0
C996 C 0.01456 0.49874 0.64669 0.0
C997 C 0.01332 0.48186 0.69263 0.0
C998 C 0.0615 0.47668 0.54258 0.0
C999 C 0.99895 0.51803 0.65146 0.0
C1000 C 0.04435 0.55042 0.50471 0.0
C1001 C 0.03054 0.54882 0.45132 0.0
C1002 C 0.04458 0.53385 0.55212 0.0
C1003 C 0.03092 0.51495 0.54586 0.0
C1004 C 0.0172 0.51317 0.49157 0.0
C1005 C 0.01707 0.53007 0.44553 0.0
C1006 C 0.05925 0.53669 0.60939 0.0
C1007 C 1.00252 0.49337 0.48207 0.0
H1008 H 0.05442 0.4485 0.64058 0.0
H1009 H 1.00119 0.48312 0.73029 0.0
H1010 H 0.05306 0.47609 0.49582 0.0
H1011 H 0.07255 0.49123 0.54202 0.0
H1012 H 0.07168 0.46159 0.54792 0.0
H1013 H 0.98828 0.51712 0.69432 0.0
H1014 H 0.00837 0.53368 0.65301 0.0
H1015 H 0.98826 0.51864 0.60873 0.0
H1016 H 0.05485 0.56474 0.50982 0.0
H1017 H 0.00645 0.52846 0.4044 0.0
H1018 H 0.07068 0.52251 0.61342 0.0
H1019 H 0.0491 0.53699 0.65329 0.0
H1020 H 0.06908 0.55211 0.60712 0.0
H1021 H 0.01247 0.47805 0.48354 0.0
H1022 H 0.9935 0.49396 0.43615 0.0
H1023 H 0.99032 0.49237 0.52124 0.0
C1024 C 0.82767 0.76216 0.89303 0.0
C1025 C 0.82597 0.74795 0.94552 0.0
C1026 C 0.81094 0.76307 0.84616 0.0
C1027 C 0.79179 0.74975 0.85216 0.0
C1028 C 0.78985 0.73578 0.90587 0.0
C1029 C 0.8069 0.73494 0.95126 0.0
C1030 C 0.81395 0.77799 0.78946 0.0
C1031 C 0.76978 0.72144 0.91515 0.0
C1032 C 0.73945 0.76224 0.75505 0.0
C1033 C 0.74062 0.74639 0.70647 0.0
C1034 C 0.75599 0.76372 0.80237 0.0
C1035 C 0.77441 0.74926 0.8008 0.0
C1036 C 0.77575 0.73348 0.75127 0.0
C1037 C 0.75889 0.73215 0.70538 0.0
C1038 C 0.75364 0.78059 0.8546 0.0
C1039 C 0.79502 0.71782 0.74679 0.0
H1040 H 0.84224 0.77232 0.88802 0.0
H1041 H 0.80519 0.72404 0.99178 0.0
H1042 H 0.8145 0.76798 0.74531 0.0
H1043 H 0.79974 0.78937 0.7852 0.0
H1044 H 0.82931 0.78787 0.79258 0.0
H1045 H 0.77008 0.71252 0.96127 0.0
H1046 H 0.75461 0.73161 0.91304 0.0
H1047 H 0.76875 0.70915 0.87622 0.0
H1048 H 0.72551 0.77338 0.75643 0.0
H1049 H 0.76021 0.71994 0.66795 0.0
H1050 H 0.76827 0.79153 0.85546 0.0
H1051 H 0.75283 0.77219 0.90141 0.0
H1052 H 0.73865 0.79089 0.84879 0.0
H1053 H 0.8107 0.72721 0.74573 0.0
H1054 H 0.79422 0.70722 0.70379 0.0
H1055 H 0.79547 0.70707 0.7894 0.0
C1056 C 0.55538 0.52658 0.18201 0.0
C1057 C 0.54082 0.5446 0.18255 0.0
C1058 C 0.55414 0.51 0.1352 0.0
C1059 C 0.53808 0.51135 0.08648 0.0
C1060 C 0.52333 0.52954 0.08645 0.0
C1061 C 0.52477 0.54583 0.13458 0.0
C1062 C 0.57012 0.49096 0.13798 0.0
C1063 C 0.50613 0.53189 0.03519 0.0
C1064 C 0.55119 0.47931 0.93395 0.0
C1065 C 0.53834 0.46016 0.94036 0.0
C1066 C 0.55075 0.49622 0.97995 0.0
C1067 C 0.53734 0.49405 0.03482 0.0
C1068 C 0.52422 0.4748 0.0415 0.0
C1069 C 0.52475 0.45822 0.99415 0.0
C1070 C 0.56487 0.5164 0.97001 0.0
C1071 C 0.50988 0.47155 0.09935 0.0
H1072 H 0.56777 0.52524 0.21888 0.0
H1073 H 0.51339 0.55958 0.13441 0.0
H1074 H 0.56098 0.47514 0.13959 0.0
H1075 H 0.58044 0.49073 0.09443 0.0
H1076 H 0.58114 0.49185 0.18005 0.0
H1077 H 0.4958 0.54682 0.04179 0.0
H1078 H 0.51422 0.5328 0.98792 0.0
H1079 H 0.49527 0.5172 0.03477 0.0
H1080 H 0.56163 0.48118 0.89248 0.0
H1081 H 0.51472 0.44358 0.99973 0.0
H1082 H 0.57744 0.51749 1.00817 0.0
H1083 H 0.55461 0.5315 0.97295 0.0
H1084 H 0.57345 0.51622 0.92333 0.0
H1085 H 0.52029 0.47109 0.1427 0.0
H1086 H 0.50017 0.45606 0.09687 0.0
H1087 H 0.49836 0.48561 0.10464 0.0
C1088 C 0.80988 0.27165 0.19292 0.0
C1089 C 0.82874 0.25831 0.19809 0.0
C1090 C 0.79306 0.27125 0.23922 0.0
C1091 C 0.79503 0.25738 0.29316 0.0
C1092 C 0.81405 0.24387 0.29882 0.0
C1093 C 0.83054 0.24437 0.25117 0.0
C1094 C 0.77313 0.2858 0.23038 0.0
C1095 C 0.81709 0.22903 0.35567 0.0
C1096 C 0.76192 0.27415 0.44083 0.0
C1097 C 0.74378 0.25975 0.43913 0.0
C1098 C 0.77877 0.27323 0.39467 0.0
C1099 C 0.77756 0.2577 0.34441 0.0
C1100 C 0.75927 0.24311 0.34227 0.0
C1101 C 0.74273 0.2442 0.38971 0.0
C1102 C 0.79791 0.28901 0.39971 0.0
C1103 C 0.75705 0.22647 0.28936 0.0
H1104 H 0.80811 0.28237 0.15205 0.0
H1105 H 0.84495 0.23397 0.25581 0.0
H1106 H 0.7579 0.2757 0.23166 0.0
H1107 H 0.77205 0.29784 0.26994 0.0
H1108 H 0.77359 0.295 0.18474 0.0
H1109 H 0.83259 0.21936 0.35297 0.0
H1110 H 0.81733 0.23904 0.39984 0.0
H1111 H 0.80303 0.21745 0.35954 0.0
H1112 H 0.7631 0.28614 0.47886 0.0
H1113 H 0.72888 0.23296 0.38777 0.0
H1114 H 0.79839 0.29984 0.35726 0.0
H1115 H 0.81364 0.27972 0.40087 0.0
H1116 H 0.79693 0.29953 0.44286 0.0
H1117 H 0.75633 0.23507 0.24286 0.0
H1118 H 0.74206 0.21613 0.29456 0.0
H1119 H 0.77169 0.21556 0.28835 0.0
C1120 C 0.32908 0.26349 0.38497 0.0
C1121 C 0.32785 0.2471 0.432 0.0
C1122 C 0.31263 0.26549 0.33754 0.0
C1123 C 0.29425 0.25099 0.33738 0.0
C1124 C 0.29282 0.23467 0.38539 0.0
C1125 C 0.30958 0.23285 0.43146 0.0
C1126 C 0.31507 0.28295 0.287 0.0
C1127 C 0.27358 0.21893 0.38798 0.0
C1128 C 0.24135 0.26489 0.24457 0.0
C1129 C 0.24334 0.25138 0.19061 0.0
C1130 C 0.25784 0.26522 0.29221 0.0
C1131 C 0.27703 0.25199 0.28559 0.0
C1132 C 0.27925 0.2387 0.23053 0.0
C1133 C 0.26244 0.23845 0.18432 0.0
C1134 C 0.25455 0.27944 0.35027 0.0
C1135 C 0.29937 0.22447 0.22061 0.0
H1136 H 0.34301 0.27465 0.38484 0.0
H1137 H 0.30822 0.22023 0.4677 0.0
H1138 H 0.31611 0.27507 0.23946 0.0
H1139 H 0.30038 0.2938 0.28671 0.0
H1140 H 0.32998 0.29326 0.29423 0.0
H1141 H 0.27428 0.20788 0.43002 0.0
H1142 H 0.25788 0.22827 0.38949 0.0
H1143 H 0.27329 0.20863 0.34441 0.0
H1144 H 0.22675 0.27499 0.25005 0.0
H1145 H 0.26438 0.22807 0.14274 0.0
H1146 H 0.26869 0.29084 0.35606 0.0
H1147 H 0.25391 0.26893 0.39339 0.0
H1148 H 0.23915 0.28928 0.34769 0.0
H1149 H 0.31451 0.23464 0.22398 0.0
H1150 H 0.29924 0.21602 0.17375 0.0
H1151 H 0.3003 0.2118 0.25851 0.0
C1152 C 0.3083 0.77077 0.68028 0.0
C1153 C 0.32746 0.75802 0.68758 0.0
C1154 C 0.29122 0.77044 0.72581 0.0
C1155 C 0.29327 0.75727 0.78119 0.0
C1156 C 0.31253 0.74423 0.78876 0.0
C1157 C 0.32926 0.74461 0.74178 0.0
C1158 C 0.27102 0.78442 0.71485 0.0
C1159 C 0.31569 0.73019 0.84723 0.0
C1160 C 0.2603 0.77615 0.92677 0.0
C1161 C 0.24233 0.76152 0.92775 0.0
C1162 C 0.27702 0.77464 0.88044 0.0
C1163 C 0.27586 0.75825 0.83253 0.0
C1164 C 0.25772 0.74343 0.83295 0.0
C1165 C 0.24132 0.74511 0.8807 0.0
C1166 C 0.29601 0.79068 0.88285 0.0
C1167 C 0.25554 0.72591 0.78247 0.0
H1168 H 0.30653 0.78106 0.63846 0.0
H1169 H 0.34391 0.73466 0.74805 0.0
H1170 H 0.25596 0.77413 0.71815 0.0
H1171 H 0.26983 0.79725 0.7523 0.0
H1172 H 0.27126 0.79268 0.66771 0.0
H1173 H 0.33119 0.72049 0.84539 0.0
H1174 H 0.31605 0.74083 0.89015 0.0
H1175 H 0.30163 0.71868 0.85278 0.0
H1176 H 0.26149 0.7888 0.96298 0.0
H1177 H 0.22761 0.73368 0.88087 0.0
H1178 H 0.29628 0.8008 0.83894 0.0
H1179 H 0.31184 0.78158 0.885 0.0
H1180 H 0.29502 0.8019 0.9245 0.0
H1181 H 0.2547 0.73371 0.73482 0.0
H1182 H 0.24064 0.71556 0.78932 0.0
H1183 H 0.27026 0.71509 0.78279 0.0
C1184 C 0.51765 0.98059 0.19781 0.0
C1185 C 0.53099 0.96174 0.19255 0.0
C1186 C 0.51829 0.99759 0.15207 0.0
C1187 C 0.53243 0.9958 0.09861 0.0
C1188 C 0.54602 0.97683 0.09304 0.0
C1189 C 0.54526 0.96016 0.14012 0.0
C1190 C 0.50365 0.01746 0.16082 0.0
C1191 C 0.56115 0.97397 0.0367 0.0
C1192 C 0.5159 0.02844 0.95005 0.0
C1193 C 0.53018 0.04668 0.95156 0.0
C1194 C 0.51674 0.01176 0.99668 0.0
C1195 C 0.53208 0.01324 0.04729 0.0
C1196 C 0.54651 0.03167 0.04941 0.0
C1197 C 0.5455 0.04804 1.00146 0.0
C1198 C 0.50113 0.99248 0.99163 0.0
C1199 C 0.56294 0.03417 0.10269 0.0
H1200 H 0.50667 0.98219 0.23821 0.0
H1201 H 0.55568 0.94576 0.13542 0.0
H1202 H 0.51365 0.03275 0.1595 0.0
H1203 H 0.49163 0.01844 0.12122 0.0
H1204 H 0.49442 0.01697 0.20644 0.0
H1205 H 0.57105 0.95863 0.03981 0.0
H1206 H 0.55133 0.97352 0.99223 0.0
H1207 H 0.57251 0.98822 0.0331 0.0
H1208 H 0.50407 0.02699 0.91169 0.0
H1209 H 0.55666 0.06196 1.00324 0.0
H1210 H 0.49025 0.99194 0.034 0.0
H1211 H 0.51056 0.97682 0.99061 0.0
H1212 H 0.49066 0.99333 0.9484 0.0
H1213 H 0.5542 0.03476 0.14901 0.0
H1214 H 0.57307 0.04932 0.09771 0.0
H1215 H 0.57408 0.01969 0.10394 0.0
C1216 C 0.02623 0.04864 0.63418 0.0
C1217 C 0.04258 0.04758 0.68134 0.0
C1218 C 0.02456 0.03224 0.58644 0.0
C1219 C 0.03936 0.01409 0.5861 0.0
C1220 C 0.05565 0.01285 0.63419 0.0
C1221 C 0.05714 0.02955 0.68058 0.0
C1222 C 0.00712 0.03448 0.53582 0.0
C1223 C 0.07168 0.99384 0.6366 0.0
C1224 C 0.02607 0.96102 0.49324 0.0
C1225 C 0.03951 0.96317 0.43918 0.0
C1226 C 0.02558 0.97751 0.54093 0.0
C1227 C 0.03858 0.99685 0.53427 0.0
C1228 C 0.05181 0.99923 0.47914 0.0
C1229 C 0.05222 0.98242 0.43286 0.0
C1230 C 0.01144 0.97404 0.59907 0.0
C1231 C 0.06579 0.01951 0.46921 0.0
H1232 H 0.01485 0.06239 0.6342 0.0
H1233 H 0.06974 0.02833 0.71689 0.0
H1234 H 0.015 0.03557 0.48831 0.0
H1235 H 0.99642 0.01967 0.53551 0.0
H1236 H 0.99665 0.04928 0.543 0.0
H1237 H 0.08276 0.99472 0.67856 0.0
H1238 H 0.06259 0.978 0.63813 0.0
H1239 H 0.08195 0.99371 0.59294 0.0
H1240 H 0.01615 0.94631 0.49875 0.0
H1241 H 0.06254 0.98446 0.3912 0.0
H1242 H 0.99986 0.98803 0.6049 0.0
H1243 H 0.02198 0.97357 0.64215 0.0
H1244 H 1.00182 0.9585 0.59657 0.0
H1245 H 0.05544 0.03454 0.47262 0.0
H1246 H 0.07423 0.01947 0.42232 0.0
H1247 H 0.07845 0.0206 0.50708 0.0
loop_
_geom_bond_atom_site_label_1
_geom_bond_atom_site_label_2
_geom_bond_distance
_geom_bond_site_symmetry_2
_ccdc_geom_bond_type
Co0 O1 2.216 . S
Co0 O2 2.091 . S
Co0 O4 2.004 . S
Co0 O10 2.021 . S
Co0 O12 2.137 . S
Co0 O13 2.244 . S
O1 Co0 2.216 . S
O1 C8 1.247 . S
O2 Co0 2.091 . S
O2 C8 1.261 . S
C3 O12 1.247 1_655 S
C3 O13 1.272 1_655 S
O4 Co0 2.004 . S
O4 C9 1.259 . S
Co5 O6 2.061 . S
Co5 O11 2.052 . S
Co5 O13 2.135 . S
O6 Co5 2.061 . S
O6 C9 1.235 . S
C7 O10 1.238 . S
C7 O11 1.241 . S
C8 O1 1.247 . S
C8 O2 1.261 . S
C9 O4 1.259 . S
C9 O6 1.235 . S
O10 Co0 2.021 . S
O10 C7 1.238 . S
O11 Co5 2.052 . S
O11 C7 1.241 . S
O12 Co0 2.137 . S
O12 C3 1.247 1_455 S
O13 Co0 2.244 . S
O13 C3 1.272 1_455 S
O13 Co5 2.135 . S
Co14 O15 2.216 . S
Co14 O16 2.091 . S
Co14 O18 2.004 . S
Co14 O24 2.021 . S
Co14 O26 2.137 . S
Co14 O27 2.244 . S
O15 Co14 2.216 . S
O15 C22 1.247 . S
O16 Co14 2.091 . S
O16 C22 1.261 . S
C17 O26 1.247 . S
C17 O27 1.272 . S
O18 Co14 2.004 . S
O18 C23 1.259 . S
Co19 O20 2.061 . S
Co19 O25 2.052 . S
Co19 O27 2.135 . S
O20 Co19 2.061 . S
O20 C23 1.235 . S
C21 O24 1.238 . S
C21 O25 1.241 . S
C22 O15 1.247 . S
C22 O16 1.261 . S
C23 O18 1.259 . S
C23 O20 1.235 . S
O24 Co14 2.021 . S
O24 C21 1.238 . S
O25 Co19 2.052 . S
O25 C21 1.241 . S
O26 Co14 2.137 . S
O26 C17 1.247 . S
O27 Co14 2.244 . S
O27 C17 1.272 . S
O27 Co19 2.135 . S
Co28 O29 2.216 . S
Co28 O30 2.091 . S
Co28 O32 2.004 . S
Co28 O38 2.021 . S
Co28 O40 2.137 . S
Co28 O41 2.244 . S
O29 Co28 2.216 . S
O29 C36 1.247 . S
O30 Co28 2.091 . S
O30 C36 1.261 . S
C31 O40 1.247 . S
C31 O41 1.272 . S
O32 Co28 2.004 . S
O32 C37 1.259 . S
Co33 O34 2.061 . S
Co33 O39 2.052 . S
Co33 O41 2.135 . S
O34 Co33 2.061 . S
O34 C37 1.235 . S
C35 O38 1.238 . S
C35 O39 1.241 . S
C36 O29 1.247 . S
C36 O30 1.261 . S
C37 O32 1.259 . S
C37 O34 1.235 . S
O38 Co28 2.021 . S
O38 C35 1.238 . S
O39 Co33 2.052 . S
O39 C35 1.241 . S
O40 Co28 2.137 . S
O40 C31 1.247 . S
O41 Co28 2.244 . S
O41 C31 1.272 . S
O41 Co33 2.135 . S
Co42 O43 2.216 . S
Co42 O44 2.091 . S
Co42 O46 2.004 . S
Co42 O52 2.021 1_554 S
Co42 O54 2.137 . S
Co42 O55 2.244 1_554 S
O43 Co42 2.216 . S
O43 C50 1.247 . S
O44 Co42 2.091 . S
O44 C50 1.261 . S
C45 O54 1.247 . S
C45 O55 1.272 1_554 S
O46 Co42 2.004 . S
O46 C51 1.259 1_554 S
Co47 O48 2.061 . S
Co47 O53 2.052 . S
Co47 O55 2.135 . S
O48 Co47 2.061 . S
O48 C51 1.235 . S
C49 O52 1.238 . S
C49 O53 1.241 . S
C50 O43 1.247 . S
C50 O44 1.261 . S
C51 O46 1.259 1_556 S
C51 O48 1.235 . S
O52 Co42 2.021 1_556 S
O52 C49 1.238 . S
O53 Co47 2.052 . S
O53 C49 1.241 . S
O54 Co42 2.137 . S
O54 C45 1.247 . S
O55 Co42 2.244 1_556 S
O55 C45 1.272 1_556 S
O55 Co47 2.135 . S
Co56 O57 2.216 . S
Co56 O58 2.091 . S
Co56 O60 2.004 . S
Co56 O66 2.021 . S
Co56 O68 2.137 . S
Co56 O69 2.244 . S
O57 Co56 2.216 . S
O57 C64 1.247 . S
O58 Co56 2.091 . S
O58 C64 1.261 . S
C59 O68 1.247 1_655 S
C59 O69 1.272 1_655 S
O60 Co56 2.004 . S
O60 C65 1.259 . S
Co61 O62 2.061 . S
Co61 O67 2.052 . S
Co61 O69 2.135 . S
O62 Co61 2.061 . S
O62 C65 1.235 . S
C63 O66 1.238 . S
C63 O67 1.241 . S
C64 O57 1.247 . S
C64 O58 1.261 . S
C65 O60 1.259 . S
C65 O62 1.235 . S
O66 Co56 2.021 . S
O66 C63 1.238 . S
O67 Co61 2.052 . S
O67 C63 1.241 . S
O68 Co56 2.137 . S
O68 C59 1.247 1_455 S
O69 Co56 2.244 . S
O69 C59 1.272 1_455 S
O69 Co61 2.135 . S
Co70 O71 2.216 . S
Co70 O72 2.091 1_554 S
Co70 O74 2.004 . S
Co70 O80 2.021 . S
Co70 O82 2.137 . S
Co70 O83 2.244 . S
O71 Co70 2.216 . S
O71 C78 1.247 1_554 S
O72 Co70 2.091 1_556 S
O72 C78 1.261 . S
C73 O82 1.247 . S
C73 O83 1.272 . S
O74 Co70 2.004 . S
O74 C79 1.259 . S
Co75 O76 2.061 . S
Co75 O81 2.052 . S
Co75 O83 2.135 . S
O76 Co75 2.061 . S
O76 C79 1.235 . S
C77 O80 1.238 . S
C77 O81 1.241 . S
C78 O71 1.247 1_556 S
C78 O72 1.261 . S
C79 O74 1.259 . S
C79 O76 1.235 . S
O80 Co70 2.021 . S
O80 C77 1.238 . S
O81 Co75 2.052 . S
O81 C77 1.241 . S
O82 Co70 2.137 . S
O82 C73 1.247 . S
O83 Co70 2.244 . S
O83 C73 1.272 . S
O83 Co75 2.135 . S
Co84 O85 2.216 . S
Co84 O86 2.091 . S
Co84 O88 2.004 . S
Co84 O94 2.021 . S
Co84 O96 2.137 . S
Co84 O97 2.244 . S
O85 Co84 2.216 . S
O85 C92 1.247 . S
O86 Co84 2.091 . S
O86 C92 1.261 . S
C87 O96 1.247 . S
C87 O97 1.272 . S
O88 Co84 2.004 . S
O88 C93 1.259 . S
Co89 O90 2.061 . S
Co89 O95 2.052 . S
Co89 O97 2.135 . S
O90 Co89 2.061 . S
O90 C93 1.235 . S
C91 O94 1.238 . S
C91 O95 1.241 . S
C92 O85 1.247 . S
C92 O86 1.261 . S
C93 O88 1.259 . S
C93 O90 1.235 . S
O94 Co84 2.021 . S
O94 C91 1.238 . S
O95 Co89 2.052 . S
O95 C91 1.241 . S
O96 Co84 2.137 . S
O96 C87 1.247 . S
O97 Co84 2.244 . S
O97 C87 1.272 . S
O97 Co89 2.135 . S
Co98 O99 2.216 . S
Co98 O100 2.091 . S
Co98 O102 2.004 . S
Co98 O108 2.021 . S
Co98 O110 2.137 . S
Co98 O111 2.244 . S
O99 Co98 2.216 . S
O99 C106 1.247 . S
O100 Co98 2.091 . S
O100 C106 1.261 . S
C101 O110 1.247 . S
C101 O111 1.272 . S
O102 Co98 2.004 . S
O102 C107 1.259 . S
Co103 O104 2.061 . S
Co103 O109 2.052 . S
Co103 O111 2.135 . S
O104 Co103 2.061 . S
O104 C107 1.235 . S
C105 O108 1.238 . S
C105 O109 1.241 . S
C106 O99 1.247 . S
C106 O100 1.261 . S
C107 O102 1.259 . S
C107 O104 1.235 . S
O108 Co98 2.021 . S
O108 C105 1.238 . S
O109 Co103 2.052 . S
O109 C105 1.241 . S
O110 Co98 2.137 . S
O110 C101 1.247 . S
O111 Co98 2.244 . S
O111 C101 1.272 . S
O111 Co103 2.135 . S
Co112 O113 2.216 . S
Co112 O114 2.091 . S
Co112 O116 2.004 . S
Co112 O122 2.021 . S
Co112 O124 2.137 . S
Co112 O125 2.244 . S
O113 Co112 2.216 . S
O113 C120 1.247 . S
O114 Co112 2.091 . S
O114 C120 1.261 . S
C115 O124 1.247 . S
C115 O125 1.272 . S
O116 Co112 2.004 . S
O116 C121 1.259 . S
Co117 O118 2.061 . S
Co117 O123 2.052 . S
Co117 O125 2.135 . S
O118 Co117 2.061 . S
O118 C121 1.235 . S
C119 O122 1.238 . S
C119 O123 1.241 . S
C120 O113 1.247 . S
C120 O114 1.261 . S
C121 O116 1.259 . S
C121 O118 1.235 . S
O122 Co112 2.021 . S
O122 C119 1.238 . S
O123 Co117 2.052 . S
O123 C119 1.241 . S
O124 Co112 2.137 . S
O124 C115 1.247 . S
O125 Co112 2.244 . S
O125 C115 1.272 . S
O125 Co117 2.135 . S
Co126 O127 2.216 . S
Co126 O128 2.091 1_554 S
Co126 O130 2.004 . S
Co126 O136 2.021 . S
Co126 O138 2.137 . S
Co126 O139 2.244 . S
O127 Co126 2.216 . S
O127 C134 1.247 1_554 S
O128 Co126 2.091 1_556 S
O128 C134 1.261 . S
C129 O138 1.247 . S
C129 O139 1.272 . S
O130 Co126 2.004 . S
O130 C135 1.259 . S
Co131 O132 2.061 . S
Co131 O137 2.052 . S
Co131 O139 2.135 . S
O132 Co131 2.061 . S
O132 C135 1.235 . S
C133 O136 1.238 . S
C133 O137 1.241 . S
C134 O127 1.247 1_556 S
C134 O128 1.261 . S
C135 O130 1.259 . S
C135 O132 1.235 . S
O136 Co126 2.021 . S
O136 C133 1.238 . S
O137 Co131 2.052 . S
O137 C133 1.241 . S
O138 Co126 2.137 . S
O138 C129 1.247 . S
O139 Co126 2.244 . S
O139 C129 1.272 . S
O139 Co131 2.135 . S
Co140 O141 2.216 . S
Co140 O142 2.091 . S
Co140 O144 2.004 . S
Co140 O150 2.021 1_554 S
Co140 O152 2.137 . S
Co140 O153 2.244 1_554 S
O141 Co140 2.216 . S
O141 C148 1.247 . S
O142 Co140 2.091 . S
O142 C148 1.261 . S
C143 O152 1.247 . S
C143 O153 1.272 1_554 S
O144 Co140 2.004 . S
O144 C149 1.259 1_554 S
Co145 O146 2.061 . S
Co145 O151 2.052 . S
Co145 O153 2.135 . S
O146 Co145 2.061 . S
O146 C149 1.235 . S
C147 O150 1.238 . S
C147 O151 1.241 . S
C148 O141 1.247 . S
C148 O142 1.261 . S
C149 O144 1.259 1_556 S
C149 O146 1.235 . S
O150 Co140 2.021 1_556 S
O150 C147 1.238 . S
O151 Co145 2.052 . S
O151 C147 1.241 . S
O152 Co140 2.137 . S
O152 C143 1.247 . S
O153 Co140 2.244 1_556 S
O153 C143 1.272 1_556 S
O153 Co145 2.135 . S
Co154 O155 2.216 . S
Co154 O156 2.091 . S
Co154 O158 2.004 . S
Co154 O164 2.021 . S
Co154 O166 2.137 . S
Co154 O167 2.244 . S
O155 Co154 2.216 . S
O155 C162 1.247 . S
O156 Co154 2.091 . S
O156 C162 1.261 . S
C157 O166 1.247 . S
C157 O167 1.272 . S
O158 Co154 2.004 . S
O158 C163 1.259 . S
Co159 O160 2.061 . S
Co159 O165 2.052 . S
Co159 O167 2.135 . S
O160 Co159 2.061 . S
O160 C163 1.235 . S
C161 O164 1.238 . S
C161 O165 1.241 . S
C162 O155 1.247 . S
C162 O156 1.261 . S
C163 O158 1.259 . S
C163 O160 1.235 . S
O164 Co154 2.021 . S
O164 C161 1.238 . S
O165 Co159 2.052 . S
O165 C161 1.241 . S
O166 Co154 2.137 . S
O166 C157 1.247 . S
O167 Co154 2.244 . S
O167 C157 1.272 . S
O167 Co159 2.135 . S
Co168 O169 2.216 . S
Co168 O170 2.091 . S
Co168 O172 2.004 . S
Co168 O178 2.021 . S
Co168 O180 2.137 . S
Co168 O181 2.244 . S
O169 Co168 2.216 . S
O169 C176 1.247 . S
O170 Co168 2.091 . S
O170 C176 1.261 . S
C171 O180 1.247 . S
C171 O181 1.272 . S
O172 Co168 2.004 . S
O172 C177 1.259 . S
Co173 O174 2.061 . S
Co173 O179 2.052 . S
Co173 O181 2.135 . S
O174 Co173 2.061 . S
O174 C177 1.235 . S
C175 O178 1.238 . S
C175 O179 1.241 . S
C176 O169 1.247 . S
C176 O170 1.261 . S
C177 O172 1.259 . S
C177 O174 1.235 . S
O178 Co168 2.021 . S
O178 C175 1.238 . S
O179 Co173 2.052 . S
O179 C175 1.241 . S
O180 Co168 2.137 . S
O180 C171 1.247 . S
O181 Co168 2.244 . S
O181 C171 1.272 . S
O181 Co173 2.135 . S
Co182 O183 2.216 . S
Co182 O184 2.091 . S
Co182 O186 2.004 . S
Co182 O192 2.021 . S
Co182 O194 2.137 . S
Co182 O195 2.244 . S
O183 Co182 2.216 . S
O183 C190 1.247 . S
O184 Co182 2.091 . S
O184 C190 1.261 . S
C185 O194 1.247 . S
C185 O195 1.272 . S
O186 Co182 2.004 . S
O186 C191 1.259 . S
Co187 O188 2.061 . S
Co187 O193 2.052 . S
Co187 O195 2.135 . S
O188 Co187 2.061 . S
O188 C191 1.235 . S
C189 O192 1.238 . S
C189 O193 1.241 . S
C190 O183 1.247 . S
C190 O184 1.261 . S
C191 O186 1.259 . S
C191 O188 1.235 . S
O192 Co182 2.021 . S
O192 C189 1.238 . S
O193 Co187 2.052 . S
O193 C189 1.241 . S
O194 Co182 2.137 . S
O194 C185 1.247 . S
O195 Co182 2.244 . S
O195 C185 1.272 . S
O195 Co187 2.135 . S
Co196 O197 2.216 . S
Co196 O198 2.091 . S
Co196 O200 2.004 . S
Co196 O206 2.021 . S
Co196 O208 2.137 . S
Co196 O209 2.244 . S
O197 Co196 2.216 . S
O197 C204 1.247 . S
O198 Co196 2.091 . S
O198 C204 1.261 . S
C199 O208 1.247 . S
C199 O209 1.272 . S
O200 Co196 2.004 . S
O200 C205 1.259 . S
Co201 O202 2.061 . S
Co201 O207 2.052 . S
Co201 O209 2.135 . S
O202 Co201 2.061 . S
O202 C205 1.235 . S
C203 O206 1.238 . S
C203 O207 1.241 . S
C204 O197 1.247 . S
C204 O198 1.261 . S
C205 O200 1.259 . S
C205 O202 1.235 . S
O206 Co196 2.021 . S
O206 C203 1.238 . S
O207 Co201 2.052 . S
O207 C203 1.241 . S
O208 Co196 2.137 . S
O208 C199 1.247 . S
O209 Co196 2.244 . S
O209 C199 1.272 . S
O209 Co201 2.135 . S
Co210 O211 2.216 . S
Co210 O212 2.091 . S
Co210 O214 2.004 . S
Co210 O220 2.021 . S
Co210 O222 2.137 . S
Co210 O223 2.244 . S
O211 Co210 2.216 . S
O211 C218 1.247 . S
O212 Co210 2.091 . S
O212 C218 1.261 . S
C213 O222 1.247 . S
C213 O223 1.272 . S
O214 Co210 2.004 . S
O214 C219 1.259 . S
Co215 O216 2.061 . S
Co215 O221 2.052 . S
Co215 O223 2.135 . S
O216 Co215 2.061 . S
O216 C219 1.235 . S
C217 O220 1.238 . S
C217 O221 1.241 . S
C218 O211 1.247 . S
C218 O212 1.261 . S
C219 O214 1.259 . S
C219 O216 1.235 . S
O220 Co210 2.021 . S
O220 C217 1.238 . S
O221 Co215 2.052 . S
O221 C217 1.241 . S
O222 Co210 2.137 . S
O222 C213 1.247 . S
O223 Co210 2.244 . S
O223 C213 1.272 . S
O223 Co215 2.135 . S
C224 C225 1.391 . S
C224 C226 1.394 . S
C224 H240 0.931 . S
C225 C224 1.391 . S
C225 C229 1.376 . S
C226 C224 1.394 . S
C226 C227 1.369 . S
C226 C230 1.531 . S
C227 C226 1.369 . S
C227 C228 1.410 . S
C227 C235 1.503 . S
C228 C227 1.410 . S
C228 C229 1.392 . S
C228 C231 1.511 . S
C229 C225 1.376 . S
C229 C228 1.392 . S
C229 H241 0.929 . S
C230 C226 1.531 . S
C230 H242 0.960 . S
C230 H243 0.962 . S
C230 H244 0.960 . S
C231 C228 1.511 . S
C231 H245 0.961 . S
C231 H246 0.961 . S
C231 H247 0.961 . S
C232 C233 1.370 . S
C232 C234 1.363 . S
C232 H248 0.931 . S
C233 C232 1.370 . S
C233 C237 1.408 . S
C234 C232 1.363 . S
C234 C235 1.370 . S
C234 C238 1.524 . S
C235 C227 1.503 . S
C235 C234 1.370 . S
C235 C236 1.403 . S
C236 C235 1.403 . S
C236 C237 1.404 . S
C236 C239 1.539 . S
C237 C233 1.408 . S
C237 C236 1.404 . S
C237 H249 0.930 . S
C238 C234 1.524 . S
C238 H250 0.956 . S
C238 H251 0.961 . S
C238 H252 0.961 . S
C239 C236 1.539 . S
C239 H253 0.958 . S
C239 H254 0.961 . S
C239 H255 0.960 . S
H240 C224 0.931 . S
H241 C229 0.929 . S
H242 C230 0.960 . S
H243 C230 0.962 . S
H244 C230 0.960 . S
H245 C231 0.961 . S
H246 C231 0.961 . S
H247 C231 0.961 . S
H248 C232 0.931 . S
H249 C237 0.930 . S
H250 C238 0.956 . S
H251 C238 0.961 . S
H252 C238 0.961 . S
H253 C239 0.958 . S
H254 C239 0.961 . S
H255 C239 0.960 . S
C256 C257 1.391 . S
C256 C258 1.394 . S
C256 H272 0.931 . S
C257 C256 1.391 . S
C257 C261 1.376 . S
C258 C256 1.394 . S
C258 C259 1.369 . S
C258 C262 1.531 . S
C259 C258 1.369 . S
C259 C260 1.410 . S
C259 C267 1.503 . S
C260 C259 1.410 . S
C260 C261 1.392 . S
C260 C263 1.511 . S
C261 C257 1.376 . S
C261 C260 1.392 . S
C261 H273 0.929 . S
C262 C258 1.531 . S
C262 H274 0.960 . S
C262 H275 0.962 . S
C262 H276 0.960 . S
C263 C260 1.511 . S
C263 H277 0.961 . S
C263 H278 0.961 . S
C263 H279 0.961 . S
C264 C265 1.370 . S
C264 C266 1.363 . S
C264 H280 0.931 . S
C265 C264 1.370 . S
C265 C269 1.408 . S
C266 C264 1.363 . S
C266 C267 1.370 . S
C266 C270 1.524 . S
C267 C259 1.503 . S
C267 C266 1.370 . S
C267 C268 1.403 . S
C268 C267 1.403 . S
C268 C269 1.404 . S
C268 C271 1.539 . S
C269 C265 1.408 . S
C269 C268 1.404 . S
C269 H281 0.930 . S
C270 C266 1.524 . S
C270 H282 0.956 . S
C270 H283 0.961 . S
C270 H284 0.961 . S
C271 C268 1.539 . S
C271 H285 0.958 . S
C271 H286 0.961 . S
C271 H287 0.960 . S
H272 C256 0.931 . S
H273 C261 0.929 . S
H274 C262 0.960 . S
H275 C262 0.962 . S
H276 C262 0.960 . S
H277 C263 0.961 . S
H278 C263 0.961 . S
H279 C263 0.961 . S
H280 C264 0.931 . S
H281 C269 0.930 . S
H282 C270 0.956 . S
H283 C270 0.961 . S
H284 C270 0.961 . S
H285 C271 0.958 . S
H286 C271 0.961 . S
H287 C271 0.960 . S
C288 C289 1.391 . S
C288 C290 1.394 . S
C288 H304 0.931 . S
C289 C288 1.391 . S
C289 C293 1.376 . S
C290 C288 1.394 . S
C290 C291 1.369 . S
C290 C294 1.531 . S
C291 C290 1.369 . S
C291 C292 1.410 . S
C291 C299 1.503 . S
C292 C291 1.410 . S
C292 C293 1.392 . S
C292 C295 1.511 . S
C293 C289 1.376 . S
C293 C292 1.392 . S
C293 H305 0.929 . S
C294 C290 1.531 . S
C294 H306 0.960 . S
C294 H307 0.962 . S
C294 H308 0.960 . S
C295 C292 1.511 . S
C295 H309 0.961 . S
C295 H310 0.961 . S
C295 H311 0.961 . S
C296 C297 1.370 . S
C296 C298 1.363 . S
C296 H312 0.931 . S
C297 C296 1.370 . S
C297 C301 1.408 . S
C298 C296 1.363 . S
C298 C299 1.370 . S
C298 C302 1.524 . S
C299 C291 1.503 . S
C299 C298 1.370 . S
C299 C300 1.403 . S
C300 C299 1.403 . S
C300 C301 1.404 . S
C300 C303 1.539 . S
C301 C297 1.408 . S
C301 C300 1.404 . S
C301 H313 0.930 . S
C302 C298 1.524 . S
C302 H314 0.956 . S
C302 H315 0.961 . S
C302 H316 0.961 . S
C303 C300 1.539 . S
C303 H317 0.958 . S
C303 H318 0.961 . S
C303 H319 0.960 . S
H304 C288 0.931 . S
H305 C293 0.929 . S
H306 C294 0.960 . S
H307 C294 0.962 . S
H308 C294 0.960 . S
H309 C295 0.961 . S
H310 C295 0.961 . S
H311 C295 0.961 . S
H312 C296 0.931 . S
H313 C301 0.930 . S
H314 C302 0.956 . S
H315 C302 0.961 . S
H316 C302 0.961 . S
H317 C303 0.958 . S
H318 C303 0.961 . S
H319 C303 0.960 . S
C320 C321 1.391 . S
C320 C322 1.394 . S
C320 H336 0.931 . S
C321 C320 1.391 . S
C321 C325 1.376 . S
C322 C320 1.394 . S
C322 C323 1.369 . S
C322 C326 1.531 . S
C323 C322 1.369 . S
C323 C324 1.410 . S
C323 C331 1.503 . S
C324 C323 1.410 . S
C324 C325 1.392 . S
C324 C327 1.511 . S
C325 C321 1.376 . S
C325 C324 1.392 . S
C325 H337 0.929 . S
C326 C322 1.531 . S
C326 H338 0.960 . S
C326 H339 0.962 . S
C326 H340 0.960 . S
C327 C324 1.511 . S
C327 H341 0.961 . S
C327 H342 0.961 . S
C327 H343 0.961 . S
C328 C329 1.370 . S
C328 C330 1.363 . S
C328 H344 0.931 . S
C329 C328 1.370 . S
C329 C333 1.408 . S
C330 C328 1.363 . S
C330 C331 1.370 . S
C330 C334 1.524 1_556 S
C331 C323 1.503 . S
C331 C330 1.370 . S
C331 C332 1.403 . S
C332 C331 1.403 . S
C332 C333 1.404 . S
C332 C335 1.539 . S
C333 C329 1.408 . S
C333 C332 1.404 . S
C333 H345 0.930 . S
C334 C330 1.524 1_554 S
C334 H346 0.956 . S
C334 H347 0.961 . S
C334 H348 0.961 . S
C335 C332 1.539 . S
C335 H349 0.958 . S
C335 H350 0.961 . S
C335 H351 0.960 . S
H336 C320 0.931 . S
H337 C325 0.929 . S
H338 C326 0.960 . S
H339 C326 0.962 . S
H340 C326 0.960 . S
H341 C327 0.961 . S
H342 C327 0.961 . S
H343 C327 0.961 . S
H344 C328 0.931 . S
H345 C333 0.930 . S
H346 C334 0.956 . S
H347 C334 0.961 . S
H348 C334 0.961 . S
H349 C335 0.958 . S
H350 C335 0.961 . S
H351 C335 0.960 . S
C352 C353 1.391 . S
C352 C354 1.394 . S
C352 H368 0.931 . S
C353 C352 1.391 . S
C353 C357 1.376 . S
C354 C352 1.394 . S
C354 C355 1.369 . S
C354 C358 1.531 . S
C355 C354 1.369 . S
C355 C356 1.410 . S
C355 C363 1.503 . S
C356 C355 1.410 . S
C356 C357 1.392 . S
C356 C359 1.511 . S
C357 C353 1.376 . S
C357 C356 1.392 . S
C357 H369 0.929 . S
C358 C354 1.531 . S
C358 H370 0.960 . S
C358 H371 0.962 . S
C358 H372 0.960 . S
C359 C356 1.511 . S
C359 H373 0.961 . S
C359 H374 0.961 . S
C359 H375 0.961 . S
C360 C361 1.372 1_554 S
C360 C362 1.364 1_554 S
C360 H376 0.929 . S
C361 C360 1.372 1_556 S
C361 C365 1.408 . S
C362 C360 1.364 1_556 S
C362 C363 1.370 . S
C362 C366 1.524 1_556 S
C363 C355 1.503 . S
C363 C362 1.370 . S
C363 C364 1.403 . S
C364 C363 1.403 . S
C364 C365 1.404 . S
C364 C367 1.539 . S
C365 C361 1.408 . S
C365 C364 1.404 . S
C365 H377 0.930 . S
C366 C362 1.524 1_554 S
C366 H378 0.956 . S
C366 H379 0.961 . S
C366 H380 0.961 . S
C367 C364 1.539 . S
C367 H381 0.958 . S
C367 H382 0.961 . S
C367 H383 0.960 . S
H368 C352 0.931 . S
H369 C357 0.929 . S
H370 C358 0.960 . S
H371 C358 0.962 . S
H372 C358 0.960 . S
H373 C359 0.961 . S
H374 C359 0.961 . S
H375 C359 0.961 . S
H376 C360 0.929 . S
H377 C365 0.930 . S
H378 C366 0.956 . S
H379 C366 0.961 . S
H380 C366 0.961 . S
H381 C367 0.958 . S
H382 C367 0.961 . S
H383 C367 0.960 . S
C384 C385 1.391 . S
C384 C386 1.394 . S
C384 H400 0.931 . S
C385 C384 1.391 . S
C385 C389 1.376 . S
C386 C384 1.394 . S
C386 C387 1.369 . S
C386 C390 1.531 . S
C387 C386 1.369 . S
C387 C388 1.410 . S
C387 C395 1.503 . S
C388 C387 1.410 . S
C388 C389 1.392 . S
C388 C391 1.511 . S
C389 C385 1.376 . S
C389 C388 1.392 . S
C389 H401 0.929 1_655 S
C390 C386 1.531 . S
C390 H402 0.960 . S
C390 H403 0.962 . S
C390 H404 0.960 . S
C391 C388 1.511 . S
C391 H405 0.961 . S
C391 H406 0.961 . S
C391 H407 0.961 . S
C392 C393 1.370 . S
C392 C394 1.363 . S
C392 H408 0.931 . S
C393 C392 1.370 . S
C393 C397 1.408 . S
C394 C392 1.363 . S
C394 C395 1.370 . S
C394 C398 1.524 . S
C395 C387 1.503 . S
C395 C394 1.370 . S
C395 C396 1.403 . S
C396 C395 1.403 . S
C396 C397 1.404 . S
C396 C399 1.539 . S
C397 C393 1.408 . S
C397 C396 1.404 . S
C397 H409 0.930 . S
C398 C394 1.524 . S
C398 H410 0.956 . S
C398 H411 0.961 . S
C398 H412 0.961 . S
C399 C396 1.539 . S
C399 H413 0.958 . S
C399 H414 0.961 . S
C399 H415 0.960 . S
H400 C384 0.931 . S
H401 C389 0.929 1_455 S
H402 C390 0.960 . S
H403 C390 0.962 . S
H404 C390 0.960 . S
H405 C391 0.961 . S
H406 C391 0.961 . S
H407 C391 0.961 . S
H408 C392 0.931 . S
H409 C397 0.930 . S
H410 C398 0.956 . S
H411 C398 0.961 . S
H412 C398 0.961 . S
H413 C399 0.958 . S
H414 C399 0.961 . S
H415 C399 0.960 . S
C416 C417 1.391 . S
C416 C418 1.394 . S
C416 H432 0.931 . S
C417 C416 1.391 . S
C417 C421 1.376 . S
C418 C416 1.394 . S
C418 C419 1.369 . S
C418 C422 1.531 . S
C419 C418 1.369 . S
C419 C420 1.410 . S
C419 C427 1.503 . S
C420 C419 1.410 . S
C420 C421 1.392 . S
C420 C423 1.511 . S
C421 C417 1.376 . S
C421 C420 1.392 . S
C421 H433 0.929 . S
C422 C418 1.531 . S
C422 H434 0.960 . S
C422 H435 0.962 . S
C422 H436 0.960 . S
C423 C420 1.511 . S
C423 H437 0.961 . S
C423 H438 0.961 . S
C423 H439 0.961 . S
C424 C425 1.370 . S
C424 C426 1.363 . S
C424 H440 0.931 . S
C425 C424 1.370 . S
C425 C429 1.408 . S
C426 C424 1.363 . S
C426 C427 1.370 . S
C426 C430 1.524 . S
C427 C419 1.503 . S
C427 C426 1.370 . S
C427 C428 1.403 . S
C428 C427 1.403 . S
C428 C429 1.404 . S
C428 C431 1.539 . S
C429 C425 1.408 . S
C429 C428 1.404 . S
C429 H441 0.930 . S
C430 C426 1.524 . S
C430 H442 0.956 . S
C430 H443 0.961 . S
C430 H444 0.961 . S
C431 C428 1.539 . S
C431 H445 0.958 . S
C431 H446 0.961 . S
C431 H447 0.960 . S
H432 C416 0.931 . S
H433 C421 0.929 . S
H434 C422 0.960 . S
H435 C422 0.962 . S
H436 C422 0.960 . S
H437 C423 0.961 . S
H438 C423 0.961 . S
H439 C423 0.961 . S
H440 C424 0.931 . S
H441 C429 0.930 . S
H442 C430 0.956 . S
H443 C430 0.961 . S
H444 C430 0.961 . S
H445 C431 0.958 . S
H446 C431 0.961 . S
H447 C431 0.960 . S
C448 C449 1.391 . S
C448 C450 1.394 . S
C448 H464 0.931 . S
C449 C448 1.391 . S
C449 C453 1.376 . S
C450 C448 1.394 . S
C450 C451 1.369 . S
C450 C454 1.531 . S
C451 C450 1.369 . S
C451 C452 1.410 . S
C451 C459 1.503 . S
C452 C451 1.410 . S
C452 C453 1.392 . S
C452 C455 1.511 . S
C453 C449 1.376 . S
C453 C452 1.392 . S
C453 H465 0.929 . S
C454 C450 1.531 . S
C454 H466 0.960 . S
C454 H467 0.962 . S
C454 H468 0.960 . S
C455 C452 1.511 . S
C455 H469 0.961 . S
C455 H470 0.961 . S
C455 H471 0.961 . S
C456 C457 1.370 . S
C456 C458 1.363 . S
C456 H472 0.931 . S
C457 C456 1.370 . S
C457 C461 1.408 . S
C458 C456 1.363 . S
C458 C459 1.370 . S
C458 C462 1.524 . S
C459 C451 1.503 . S
C459 C458 1.370 . S
C459 C460 1.403 . S
C460 C459 1.403 . S
C460 C461 1.404 . S
C460 C463 1.539 . S
C461 C457 1.408 . S
C461 C460 1.404 . S
C461 H473 0.930 . S
C462 C458 1.524 . S
C462 H474 0.956 . S
C462 H475 0.961 . S
C462 H476 0.961 . S
C463 C460 1.539 . S
C463 H477 0.958 . S
C463 H478 0.961 . S
C463 H479 0.960 . S
H464 C448 0.931 . S
H465 C453 0.929 . S
H466 C454 0.960 . S
H467 C454 0.962 . S
H468 C454 0.960 . S
H469 C455 0.961 . S
H470 C455 0.961 . S
H471 C455 0.961 . S
H472 C456 0.931 . S
H473 C461 0.930 . S
H474 C462 0.956 . S
H475 C462 0.961 . S
H476 C462 0.961 . S
H477 C463 0.958 . S
H478 C463 0.961 . S
H479 C463 0.960 . S
C480 C481 1.391 . S
C480 C482 1.394 . S
C480 H496 0.931 . S
C481 C480 1.391 . S
C481 C485 1.376 . S
C482 C480 1.394 . S
C482 C483 1.369 . S
C482 C486 1.531 . S
C483 C482 1.369 . S
C483 C484 1.410 . S
C483 C491 1.503 . S
C484 C483 1.410 . S
C484 C485 1.392 . S
C484 C487 1.511 . S
C485 C481 1.376 . S
C485 C484 1.392 . S
C485 H497 0.929 1_655 S
C486 C482 1.531 . S
C486 H498 0.960 . S
C486 H499 0.962 . S
C486 H500 0.960 . S
C487 C484 1.511 . S
C487 H501 0.961 1_556 S
C487 H502 0.961 1_556 S
C487 H503 0.961 . S
C488 C489 1.370 1_554 S
C488 C490 1.363 1_554 S
C488 H504 0.931 . S
C489 C488 1.370 1_556 S
C489 C493 1.408 . S
C490 C488 1.363 1_556 S
C490 C491 1.370 . S
C490 C494 1.524 1_556 S
C491 C483 1.503 . S
C491 C490 1.370 . S
C491 C492 1.403 . S
C492 C491 1.403 . S
C492 C493 1.404 . S
C492 C495 1.539 . S
C493 C489 1.408 . S
C493 C492 1.404 . S
C493 H505 0.930 . S
C494 C490 1.524 1_554 S
C494 H506 0.956 1_554 S
C494 H507 0.961 . S
C494 H508 0.961 . S
C495 C492 1.539 . S
C495 H509 0.958 . S
C495 H510 0.961 . S
C495 H511 0.960 . S
H496 C480 0.931 . S
H497 C485 0.929 1_455 S
H498 C486 0.960 . S
H499 C486 0.962 . S
H500 C486 0.960 . S
H501 C487 0.961 1_554 S
H502 C487 0.961 1_554 S
H503 C487 0.961 . S
H504 C488 0.931 . S
H505 C493 0.930 . S
H506 C494 0.956 1_556 S
H507 C494 0.961 . S
H508 C494 0.961 . S
H509 C495 0.958 . S
H510 C495 0.961 . S
H511 C495 0.960 . S
C512 C513 1.391 . S
C512 C514 1.394 . S
C512 H528 0.931 . S
C513 C512 1.391 . S
C513 C517 1.376 . S
C514 C512 1.394 . S
C514 C515 1.369 . S
C514 C518 1.531 . S
C515 C514 1.369 . S
C515 C516 1.410 . S
C515 C523 1.503 . S
C516 C515 1.410 . S
C516 C517 1.392 . S
C516 C519 1.511 . S
C517 C513 1.376 . S
C517 C516 1.392 . S
C517 H529 0.929 . S
C518 C514 1.531 . S
C518 H530 0.960 . S
C518 H531 0.962 . S
C518 H532 0.960 . S
C519 C516 1.511 . S
C519 H533 0.961 . S
C519 H534 0.961 . S
C519 H535 0.961 . S
C520 C521 1.370 . S
C520 C522 1.363 . S
C520 H536 0.931 . S
C521 C520 1.370 . S
C521 C525 1.408 . S
C522 C520 1.363 . S
C522 C523 1.370 . S
C522 C526 1.524 . S
C523 C515 1.503 . S
C523 C522 1.370 . S
C523 C524 1.403 . S
C524 C523 1.403 . S
C524 C525 1.404 . S
C524 C527 1.539 . S
C525 C521 1.408 . S
C525 C524 1.404 . S
C525 H537 0.930 . S
C526 C522 1.524 . S
C526 H538 0.956 . S
C526 H539 0.961 . S
C526 H540 0.961 . S
C527 C524 1.539 . S
C527 H541 0.958 . S
C527 H542 0.961 . S
C527 H543 0.960 . S
H528 C512 0.931 . S
H529 C517 0.929 . S
H530 C518 0.960 . S
H531 C518 0.962 . S
H532 C518 0.960 . S
H533 C519 0.961 . S
H534 C519 0.961 . S
H535 C519 0.961 . S
H536 C520 0.931 . S
H537 C525 0.930 . S
H538 C526 0.956 . S
H539 C526 0.961 . S
H540 C526 0.961 . S
H541 C527 0.958 . S
H542 C527 0.961 . S
H543 C527 0.960 . S
C544 C545 1.391 . S
C544 C546 1.394 . S
C544 H560 0.931 . S
C545 C544 1.391 . S
C545 C549 1.376 . S
C546 C544 1.394 . S
C546 C547 1.369 . S
C546 C550 1.531 . S
C547 C546 1.369 . S
C547 C548 1.410 . S
C547 C555 1.503 . S
C548 C547 1.410 . S
C548 C549 1.392 . S
C548 C551 1.511 . S
C549 C545 1.376 . S
C549 C548 1.392 . S
C549 H561 0.929 . S
C550 C546 1.531 . S
C550 H562 0.960 . S
C550 H563 0.962 . S
C550 H564 0.960 . S
C551 C548 1.511 . S
C551 H565 0.961 . S
C551 H566 0.961 . S
C551 H567 0.961 . S
C552 C553 1.370 . S
C552 C554 1.363 . S
C552 H568 0.931 . S
C553 C552 1.370 . S
C553 C557 1.408 . S
C554 C552 1.363 . S
C554 C555 1.370 . S
C554 C558 1.524 . S
C555 C547 1.503 . S
C555 C554 1.370 . S
C555 C556 1.403 . S
C556 C555 1.403 . S
C556 C557 1.404 . S
C556 C559 1.539 . S
C557 C553 1.408 . S
C557 C556 1.404 . S
C557 H569 0.930 . S
C558 C554 1.524 . S
C558 H570 0.956 . S
C558 H571 0.961 . S
C558 H572 0.961 . S
C559 C556 1.539 . S
C559 H573 0.958 . S
C559 H574 0.961 . S
C559 H575 0.960 . S
H560 C544 0.931 . S
H561 C549 0.929 . S
H562 C550 0.960 . S
H563 C550 0.962 . S
H564 C550 0.960 . S
H565 C551 0.961 . S
H566 C551 0.961 . S
H567 C551 0.961 . S
H568 C552 0.931 . S
H569 C557 0.930 . S
H570 C558 0.956 . S
H571 C558 0.961 . S
H572 C558 0.961 . S
H573 C559 0.958 . S
H574 C559 0.961 . S
H575 C559 0.960 . S
C576 C577 1.391 . S
C576 C578 1.394 . S
C576 H592 0.931 . S
C577 C576 1.391 . S
C577 C581 1.376 . S
C578 C576 1.394 . S
C578 C579 1.369 . S
C578 C582 1.531 . S
C579 C578 1.369 . S
C579 C580 1.410 . S
C579 C587 1.503 . S
C580 C579 1.410 . S
C580 C581 1.392 . S
C580 C583 1.511 . S
C581 C577 1.376 . S
C581 C580 1.392 . S
C581 H593 0.929 . S
C582 C578 1.531 . S
C582 H594 0.960 . S
C582 H595 0.962 . S
C582 H596 0.960 . S
C583 C580 1.511 . S
C583 H597 0.961 . S
C583 H598 0.961 . S
C583 H599 0.961 . S
C584 C585 1.370 . S
C584 C586 1.363 . S
C584 H600 0.931 . S
C585 C584 1.370 . S
C585 C589 1.408 . S
C586 C584 1.363 . S
C586 C587 1.370 . S
C586 C590 1.524 . S
C587 C579 1.503 . S
C587 C586 1.370 . S
C587 C588 1.403 . S
C588 C587 1.403 . S
C588 C589 1.404 . S
C588 C591 1.539 . S
C589 C585 1.408 . S
C589 C588 1.404 . S
C589 H601 0.930 . S
C590 C586 1.524 . S
C590 H602 0.956 . S
C590 H603 0.961 . S
C590 H604 0.961 . S
C591 C588 1.539 . S
C591 H605 0.958 . S
C591 H606 0.961 . S
C591 H607 0.960 . S
H592 C576 0.931 . S
H593 C581 0.929 . S
H594 C582 0.960 . S
H595 C582 0.962 . S
H596 C582 0.960 . S
H597 C583 0.961 . S
H598 C583 0.961 . S
H599 C583 0.961 . S
H600 C584 0.931 . S
H601 C589 0.930 . S
H602 C590 0.956 . S
H603 C590 0.961 . S
H604 C590 0.961 . S
H605 C591 0.958 . S
H606 C591 0.961 . S
H607 C591 0.960 . S
C608 C609 1.391 . S
C608 C610 1.394 . S
C608 H624 0.931 . S
C609 C608 1.391 . S
C609 C613 1.376 . S
C610 C608 1.394 . S
C610 C611 1.369 . S
C610 C614 1.531 . S
C611 C610 1.369 . S
C611 C612 1.410 . S
C611 C619 1.503 . S
C612 C611 1.410 . S
C612 C613 1.392 . S
C612 C615 1.511 . S
C613 C609 1.376 . S
C613 C612 1.392 . S
C613 H625 0.900 1_655 S
C614 C610 1.531 . S
C614 H626 0.960 . S
C614 H627 0.962 . S
C614 H628 0.960 . S
C615 C612 1.511 . S
C615 H629 0.961 . S
C615 H630 0.961 . S
C615 H631 0.961 . S
C616 C617 1.370 . S
C616 C618 1.363 . S
C616 H632 0.931 . S
C617 C616 1.370 . S
C617 C621 1.408 . S
C618 C616 1.363 . S
C618 C619 1.370 . S
C618 C622 1.524 . S
C619 C611 1.503 . S
C619 C618 1.370 . S
C619 C620 1.403 . S
C620 C619 1.403 . S
C620 C621 1.404 . S
C620 C623 1.539 . S
C621 C617 1.408 . S
C621 C620 1.404 . S
C621 H633 0.930 . S
C622 C618 1.524 . S
C622 H634 0.956 . S
C622 H635 0.961 . S
C622 H636 0.961 . S
C623 C620 1.539 . S
C623 H637 0.958 . S
C623 H638 0.961 . S
C623 H639 0.960 . S
H624 C608 0.931 . S
H625 C613 0.900 1_455 S
H626 C614 0.960 . S
H627 C614 0.962 . S
H628 C614 0.960 . S
H629 C615 0.961 . S
H630 C615 0.961 . S
H631 C615 0.961 . S
H632 C616 0.931 . S
H633 C621 0.930 . S
H634 C622 0.956 . S
H635 C622 0.961 . S
H636 C622 0.961 . S
H637 C623 0.958 . S
H638 C623 0.961 . S
H639 C623 0.960 . S
C640 C641 1.391 . S
C640 C642 1.394 . S
C640 H656 0.931 . S
C641 C640 1.391 . S
C641 C645 1.376 . S
C642 C640 1.394 . S
C642 C643 1.369 . S
C642 C646 1.531 . S
C643 C642 1.369 . S
C643 C644 1.410 . S
C643 C651 1.503 . S
C644 C643 1.410 . S
C644 C645 1.392 . S
C644 C647 1.511 . S
C645 C641 1.376 . S
C645 C644 1.392 . S
C645 H657 0.929 . S
C646 C642 1.531 . S
C646 H658 0.960 . S
C646 H659 0.962 . S
C646 H660 0.960 . S
C647 C644 1.511 . S
C647 H661 0.961 . S
C647 H662 0.961 . S
C647 H663 0.961 . S
C648 C649 1.370 1_554 S
C648 C650 1.363 . S
C648 H664 0.931 . S
C649 C648 1.370 1_556 S
C649 C653 1.408 . S
C650 C648 1.363 . S
C650 C651 1.370 1_554 S
C650 C654 1.524 . S
C651 C643 1.503 . S
C651 C650 1.370 1_556 S
C651 C652 1.403 . S
C652 C651 1.403 . S
C652 C653 1.404 . S
C652 C655 1.539 . S
C653 C649 1.408 . S
C653 C652 1.404 . S
C653 H665 0.930 . S
C654 C650 1.524 . S
C654 H666 0.956 . S
C654 H667 0.961 . S
C654 H668 0.961 . S
C655 C652 1.539 . S
C655 H669 0.958 . S
C655 H670 0.961 . S
C655 H671 0.960 . S
H656 C640 0.931 . S
H657 C645 0.929 . S
H658 C646 0.960 . S
H659 C646 0.962 . S
H660 C646 0.960 . S
H661 C647 0.961 . S
H662 C647 0.961 . S
H663 C647 0.961 . S
H664 C648 0.931 . S
H665 C653 0.930 . S
H666 C654 0.956 . S
H667 C654 0.961 . S
H668 C654 0.961 . S
H669 C655 0.958 . S
H670 C655 0.961 . S
H671 C655 0.960 . S
C672 C673 1.391 . S
C672 C674 1.394 . S
C672 H688 0.931 . S
C673 C672 1.391 . S
C673 C677 1.376 . S
C674 C672 1.394 . S
C674 C675 1.369 . S
C674 C678 1.531 . S
C675 C674 1.369 . S
C675 C676 1.410 . S
C675 C683 1.503 . S
C676 C675 1.410 . S
C676 C677 1.392 . S
C676 C679 1.511 . S
C677 C673 1.376 . S
C677 C676 1.392 . S
C677 H689 0.929 . S
C678 C674 1.531 . S
C678 H690 0.960 . S
C678 H691 0.962 . S
C678 H692 0.960 . S
C679 C676 1.511 . S
C679 H693 0.961 . S
C679 H694 0.961 . S
C679 H695 0.961 . S
C680 C681 1.370 . S
C680 C682 1.363 . S
C680 H696 0.931 . S
C681 C680 1.370 . S
C681 C685 1.408 . S
C682 C680 1.363 . S
C682 C683 1.370 . S
C682 C686 1.524 . S
C683 C675 1.503 . S
C683 C682 1.370 . S
C683 C684 1.403 . S
C684 C683 1.403 . S
C684 C685 1.404 . S
C684 C687 1.539 . S
C685 C681 1.408 . S
C685 C684 1.404 . S
C685 H697 0.930 . S
C686 C682 1.524 . S
C686 H698 0.956 . S
C686 H699 0.961 . S
C686 H700 0.961 . S
C687 C684 1.539 . S
C687 H701 0.958 . S
C687 H702 0.961 . S
C687 H703 0.960 . S
H688 C672 0.931 . S
H689 C677 0.929 . S
H690 C678 0.960 . S
H691 C678 0.962 . S
H692 C678 0.960 . S
H693 C679 0.961 . S
H694 C679 0.961 . S
H695 C679 0.961 . S
H696 C680 0.931 . S
H697 C685 0.930 . S
H698 C686 0.956 . S
H699 C686 0.961 . S
H700 C686 0.961 . S
H701 C687 0.958 . S
H702 C687 0.961 . S
H703 C687 0.960 . S
C704 C705 1.391 . S
C704 C706 1.394 . S
C704 H720 0.931 . S
C705 C704 1.391 . S
C705 C709 1.376 . S
C706 C704 1.394 . S
C706 C707 1.369 . S
C706 C710 1.531 . S
C707 C706 1.369 . S
C707 C708 1.410 . S
C707 C715 1.503 . S
C708 C707 1.410 . S
C708 C709 1.392 . S
C708 C711 1.511 . S
C709 C705 1.376 . S
C709 C708 1.392 . S
C709 H721 0.929 . S
C710 C706 1.531 . S
C710 H722 0.960 . S
C710 H723 0.962 . S
C710 H724 0.960 . S
C711 C708 1.511 . S
C711 H725 0.961 . S
C711 H726 0.961 . S
C711 H727 0.961 . S
C712 C713 1.370 . S
C712 C714 1.363 . S
C712 H728 0.931 . S
C713 C712 1.370 . S
C713 C717 1.408 . S
C714 C712 1.363 . S
C714 C715 1.370 . S
C714 C718 1.524 . S
C715 C707 1.503 . S
C715 C714 1.370 . S
C715 C716 1.403 . S
C716 C715 1.403 . S
C716 C717 1.404 . S
C716 C719 1.539 . S
C717 C713 1.408 . S
C717 C716 1.404 . S
C717 H729 0.930 . S
C718 C714 1.524 . S
C718 H730 0.956 . S
C718 H731 0.961 . S
C718 H732 0.961 . S
C719 C716 1.539 . S
C719 H733 0.958 . S
C719 H734 0.961 . S
C719 H735 0.960 . S
H720 C704 0.931 . S
H721 C709 0.929 . S
H722 C710 0.960 . S
H723 C710 0.962 . S
H724 C710 0.960 . S
H725 C711 0.961 . S
H726 C711 0.961 . S
H727 C711 0.961 . S
H728 C712 0.931 . S
H729 C717 0.930 . S
H730 C718 0.956 . S
H731 C718 0.961 . S
H732 C718 0.961 . S
H733 C719 0.958 . S
H734 C719 0.961 . S
H735 C719 0.960 . S
C736 C737 1.391 . S
C736 C738 1.394 . S
C736 H752 0.931 . S
C737 C736 1.391 . S
C737 C741 1.376 . S
C738 C736 1.394 . S
C738 C739 1.369 . S
C738 C742 1.531 . S
C739 C738 1.369 . S
C739 C740 1.410 . S
C739 C747 1.503 . S
C740 C739 1.410 . S
C740 C741 1.392 . S
C740 C743 1.511 1_455 S
C741 C737 1.376 . S
C741 C740 1.392 . S
C741 H753 0.929 . S
C742 C738 1.531 . S
C742 H754 0.960 . S
C742 H755 0.962 . S
C742 H756 0.960 . S
C743 C740 1.511 1_655 S
C743 H757 0.961 . S
C743 H758 0.961 . S
C743 H759 0.961 . S
C744 C745 1.370 . S
C744 C746 1.363 . S
C744 H760 0.931 . S
C745 C744 1.370 . S
C745 C749 1.408 1_556 S
C746 C744 1.363 . S
C746 C747 1.370 1_556 S
C746 C750 1.524 . S
C747 C739 1.503 . S
C747 C746 1.370 1_554 S
C747 C748 1.403 . S
C748 C747 1.403 . S
C748 C749 1.404 . S
C748 C751 1.539 . S
C749 C745 1.408 1_554 S
C749 C748 1.404 . S
C749 H761 0.930 . S
C750 C746 1.524 . S
C750 H762 0.956 . S
C750 H763 0.961 . S
C750 H764 0.961 . S
C751 C748 1.539 . S
C751 H765 0.958 . S
C751 H766 0.961 . S
C751 H767 0.960 . S
H752 C736 0.931 . S
H753 C741 0.929 . S
H754 C742 0.960 . S
H755 C742 0.962 . S
H756 C742 0.960 . S
H757 C743 0.961 . S
H758 C743 0.961 . S
H759 C743 0.961 . S
H760 C744 0.931 . S
H761 C749 0.930 . S
H762 C750 0.956 . S
H763 C750 0.961 . S
H764 C750 0.961 . S
H765 C751 0.958 . S
H766 C751 0.961 . S
H767 C751 0.960 . S
C768 C769 1.391 . S
C768 C770 1.394 . S
C768 H784 0.931 . S
C769 C768 1.391 . S
C769 C773 1.376 . S
C770 C768 1.394 . S
C770 C771 1.369 . S
C770 C774 1.531 . S
C771 C770 1.369 . S
C771 C772 1.410 . S
C771 C779 1.503 . S
C772 C771 1.410 . S
C772 C773 1.392 . S
C772 C775 1.511 . S
C773 C769 1.376 . S
C773 C772 1.392 . S
C773 H785 0.929 . S
C774 C770 1.531 . S
C774 H786 0.960 . S
C774 H787 0.962 . S
C774 H788 0.960 . S
C775 C772 1.511 . S
C775 H789 0.961 . S
C775 H790 0.961 . S
C775 H791 0.961 . S
C776 C777 1.370 . S
C776 C778 1.363 . S
C776 H792 0.931 . S
C777 C776 1.370 . S
C777 C781 1.408 . S
C778 C776 1.363 . S
C778 C779 1.370 . S
C778 C782 1.524 . S
C779 C771 1.503 . S
C779 C778 1.370 . S
C779 C780 1.403 . S
C780 C779 1.403 . S
C780 C781 1.404 . S
C780 C783 1.539 . S
C781 C777 1.408 . S
C781 C780 1.404 . S
C781 H793 0.930 . S
C782 C778 1.524 . S
C782 H794 0.956 . S
C782 H795 0.961 . S
C782 H796 0.961 . S
C783 C780 1.539 . S
C783 H797 0.958 . S
C783 H798 0.961 . S
C783 H799 0.960 . S
H784 C768 0.931 . S
H785 C773 0.929 . S
H786 C774 0.960 . S
H787 C774 0.962 . S
H788 C774 0.960 . S
H789 C775 0.961 . S
H790 C775 0.961 . S
H791 C775 0.961 . S
H792 C776 0.931 . S
H793 C781 0.930 . S
H794 C782 0.956 . S
H795 C782 0.961 . S
H796 C782 0.961 . S
H797 C783 0.958 . S
H798 C783 0.961 . S
H799 C783 0.960 . S
C800 C801 1.391 . S
C800 C802 1.394 . S
C800 H816 0.931 . S
C801 C800 1.391 . S
C801 C805 1.376 . S
C802 C800 1.394 . S
C802 C803 1.369 . S
C802 C806 1.531 . S
C803 C802 1.369 . S
C803 C804 1.410 . S
C803 C811 1.503 . S
C804 C803 1.410 . S
C804 C805 1.392 . S
C804 C807 1.511 . S
C805 C801 1.376 . S
C805 C804 1.392 . S
C805 H817 0.929 . S
C806 C802 1.531 . S
C806 H818 0.960 . S
C806 H819 0.962 . S
C806 H820 0.960 . S
C807 C804 1.511 . S
C807 H821 0.961 . S
C807 H822 0.961 . S
C807 H823 0.961 . S
C808 C809 1.370 . S
C808 C810 1.363 . S
C808 H824 0.931 . S
C809 C808 1.370 . S
C809 C813 1.408 . S
C810 C808 1.363 . S
C810 C811 1.370 . S
C810 C814 1.524 . S
C811 C803 1.503 . S
C811 C810 1.370 . S
C811 C812 1.403 . S
C812 C811 1.403 . S
C812 C813 1.404 . S
C812 C815 1.539 . S
C813 C809 1.408 . S
C813 C812 1.404 . S
C813 H825 0.930 . S
C814 C810 1.524 . S
C814 H826 0.956 . S
C814 H827 0.961 . S
C814 H828 0.961 . S
C815 C812 1.539 . S
C815 H829 0.958 . S
C815 H830 0.961 . S
C815 H831 0.960 . S
H816 C800 0.931 . S
H817 C805 0.929 . S
H818 C806 0.960 . S
H819 C806 0.962 . S
H820 C806 0.960 . S
H821 C807 0.961 . S
H822 C807 0.961 . S
H823 C807 0.961 . S
H824 C808 0.931 . S
H825 C813 0.930 . S
H826 C814 0.956 . S
H827 C814 0.961 . S
H828 C814 0.961 . S
H829 C815 0.958 . S
H830 C815 0.961 . S
H831 C815 0.960 . S
C832 C833 1.391 . S
C832 C834 1.394 . S
C832 H848 0.931 . S
C833 C832 1.391 . S
C833 C837 1.376 . S
C834 C832 1.394 . S
C834 C835 1.369 . S
C834 C838 1.531 . S
C835 C834 1.369 . S
C835 C836 1.410 . S
C835 C843 1.503 . S
C836 C835 1.410 . S
C836 C837 1.392 . S
C836 C839 1.511 . S
C837 C833 1.376 . S
C837 C836 1.392 . S
C837 H849 0.929 . S
C838 C834 1.531 . S
C838 H850 0.960 . S
C838 H851 0.962 . S
C838 H852 0.960 . S
C839 C836 1.511 . S
C839 H853 0.961 . S
C839 H854 0.961 . S
C839 H855 0.961 . S
C840 C841 1.370 . S
C840 C842 1.363 . S
C840 H856 0.931 . S
C841 C840 1.370 . S
C841 C845 1.408 . S
C842 C840 1.363 . S
C842 C843 1.370 . S
C842 C846 1.524 . S
C843 C835 1.503 . S
C843 C842 1.370 . S
C843 C844 1.403 . S
C844 C843 1.403 . S
C844 C845 1.404 . S
C844 C847 1.539 . S
C845 C841 1.408 . S
C845 C844 1.404 . S
C845 H857 0.930 . S
C846 C842 1.524 . S
C846 H858 0.956 . S
C846 H859 0.961 . S
C846 H860 0.961 . S
C847 C844 1.539 . S
C847 H861 0.958 . S
C847 H862 0.961 . S
C847 H863 0.960 . S
H848 C832 0.931 . S
H849 C837 0.929 . S
H850 C838 0.960 . S
H851 C838 0.962 . S
H852 C838 0.960 . S
H853 C839 0.961 . S
H854 C839 0.961 . S
H855 C839 0.961 . S
H856 C840 0.931 . S
H857 C845 0.930 . S
H858 C846 0.956 . S
H859 C846 0.961 . S
H860 C846 0.961 . S
H861 C847 0.958 . S
H862 C847 0.961 . S
H863 C847 0.960 . S
C864 C865 1.391 . S
C864 C866 1.394 . S
C864 H880 0.931 . S
C865 C864 1.391 . S
C865 C869 1.376 . S
C866 C864 1.394 . S
C866 C867 1.369 . S
C866 C870 1.531 . S
C867 C866 1.369 . S
C867 C868 1.410 . S
C867 C875 1.503 . S
C868 C867 1.410 . S
C868 C869 1.392 . S
C868 C871 1.511 . S
C869 C865 1.376 . S
C869 C868 1.392 . S
C869 H881 0.929 . S
C870 C866 1.531 . S
C870 H882 0.960 . S
C870 H883 0.962 . S
C870 H884 0.960 . S
C871 C868 1.511 . S
C871 H885 0.961 . S
C871 H886 0.961 . S
C871 H887 0.961 . S
C872 C873 1.370 . S
C872 C874 1.363 . S
C872 H888 0.931 . S
C873 C872 1.370 . S
C873 C877 1.408 . S
C874 C872 1.363 . S
C874 C875 1.370 . S
C874 C878 1.524 . S
C875 C867 1.503 . S
C875 C874 1.370 . S
C875 C876 1.403 . S
C876 C875 1.403 . S
C876 C877 1.404 . S
C876 C879 1.539 . S
C877 C873 1.408 . S
C877 C876 1.404 . S
C877 H889 0.930 . S
C878 C874 1.524 . S
C878 H890 0.956 . S
C878 H891 0.961 . S
C878 H892 0.961 . S
C879 C876 1.539 . S
C879 H893 0.958 . S
C879 H894 0.961 . S
C879 H895 0.960 . S
H880 C864 0.931 . S
H881 C869 0.929 . S
H882 C870 0.960 . S
H883 C870 0.962 . S
H884 C870 0.960 . S
H885 C871 0.961 . S
H886 C871 0.961 . S
H887 C871 0.961 . S
H888 C872 0.931 . S
H889 C877 0.930 . S
H890 C878 0.956 . S
H891 C878 0.961 . S
H892 C878 0.961 . S
H893 C879 0.958 . S
H894 C879 0.961 . S
H895 C879 0.960 . S
C896 C897 1.391 . S
C896 C898 1.394 . S
C896 H912 0.931 . S
C897 C896 1.391 . S
C897 C901 1.376 . S
C898 C896 1.394 . S
C898 C899 1.369 . S
C898 C902 1.531 . S
C899 C898 1.369 . S
C899 C900 1.410 . S
C899 C907 1.503 . S
C900 C899 1.410 . S
C900 C901 1.392 . S
C900 C903 1.511 . S
C901 C897 1.376 . S
C901 C900 1.392 . S
C901 H913 0.929 . S
C902 C898 1.531 . S
C902 H914 0.960 . S
C902 H915 0.962 . S
C902 H916 0.960 . S
C903 C900 1.511 . S
C903 H917 0.961 . S
C903 H918 0.961 . S
C903 H919 0.961 . S
C904 C905 1.370 . S
C904 C906 1.363 . S
C904 H920 0.931 . S
C905 C904 1.370 . S
C905 C909 1.408 . S
C906 C904 1.363 . S
C906 C907 1.370 . S
C906 C910 1.524 . S
C907 C899 1.503 . S
C907 C906 1.370 . S
C907 C908 1.403 . S
C908 C907 1.403 . S
C908 C909 1.404 . S
C908 C911 1.539 . S
C909 C905 1.408 . S
C909 C908 1.404 . S
C909 H921 0.930 . S
C910 C906 1.524 . S
C910 H922 0.956 . S
C910 H923 0.961 . S
C910 H924 0.961 . S
C911 C908 1.539 . S
C911 H925 0.958 . S
C911 H926 0.961 . S
C911 H927 0.960 . S
H912 C896 0.931 . S
H913 C901 0.929 . S
H914 C902 0.960 . S
H915 C902 0.962 . S
H916 C902 0.960 . S
H917 C903 0.961 . S
H918 C903 0.961 . S
H919 C903 0.961 . S
H920 C904 0.931 . S
H921 C909 0.930 . S
H922 C910 0.956 . S
H923 C910 0.961 . S
H924 C910 0.961 . S
H925 C911 0.958 . S
H926 C911 0.961 . S
H927 C911 0.960 . S
C928 C929 1.391 . S
C928 C930 1.394 . S
C928 H944 0.931 . S
C929 C928 1.391 . S
C929 C933 1.376 . S
C930 C928 1.394 . S
C930 C931 1.369 . S
C930 C934 1.531 . S
C931 C930 1.369 . S
C931 C932 1.410 . S
C931 C939 1.503 1_565 S
C932 C931 1.410 . S
C932 C933 1.392 . S
C932 C935 1.511 1_565 S
C933 C929 1.376 . S
C933 C932 1.392 . S
C933 H945 0.929 . S
C934 C930 1.531 . S
C934 H946 0.960 . S
C934 H947 0.962 . S
C934 H948 0.960 . S
C935 C932 1.511 1_545 S
C935 H949 0.961 . S
C935 H950 0.961 . S
C935 H951 0.961 . S
C936 C937 1.370 . S
C936 C938 1.363 . S
C936 H952 0.931 . S
C937 C936 1.370 . S
C937 C941 1.408 . S
C938 C936 1.363 . S
C938 C939 1.370 . S
C938 C942 1.524 . S
C939 C931 1.503 1_545 S
C939 C938 1.370 . S
C939 C940 1.403 . S
C940 C939 1.403 . S
C940 C941 1.404 . S
C940 C943 1.539 1_545 S
C941 C937 1.408 . S
C941 C940 1.404 . S
C941 H953 0.930 . S
C942 C938 1.524 . S
C942 H954 0.956 . S
C942 H955 0.961 . S
C942 H956 0.961 . S
C943 C940 1.539 1_565 S
C943 H957 0.958 . S
C943 H958 0.961 1_565 S
C943 H959 0.960 . S
H944 C928 0.931 . S
H945 C933 0.929 . S
H946 C934 0.960 . S
H947 C934 0.962 . S
H948 C934 0.960 . S
H949 C935 0.961 . S
H950 C935 0.961 . S
H951 C935 0.961 . S
H952 C936 0.931 . S
H953 C941 0.930 . S
H954 C942 0.956 . S
H955 C942 0.961 . S
H956 C942 0.961 . S
H957 C943 0.958 . S
H958 C943 0.961 1_545 S
H959 C943 0.960 . S
C960 C961 1.391 . S
C960 C962 1.394 1_556 S
C960 H976 0.931 . S
C961 C960 1.391 . S
C961 C965 1.376 . S
C962 C960 1.394 1_554 S
C962 C963 1.369 . S
C962 C966 1.531 . S
C963 C962 1.369 . S
C963 C964 1.410 . S
C963 C971 1.503 1_545 S
C964 C963 1.410 . S
C964 C965 1.392 1_554 S
C964 C967 1.511 1_455 S
C965 C961 1.376 . S
C965 C964 1.392 1_556 S
C965 H977 0.929 1_455 S
C966 C962 1.531 . S
C966 H978 0.960 . S
C966 H979 0.962 . S
C966 H980 0.960 . S
C967 C964 1.511 1_655 S
C967 H981 0.945 1_554 S
C967 H982 0.961 1_545 S
C967 H983 0.961 . S
C968 C969 1.370 . S
C968 C970 1.363 . S
C968 H984 0.931 . S
C969 C968 1.370 . S
C969 C973 1.408 . S
C970 C968 1.363 . S
C970 C971 1.370 . S
C970 C974 1.523 . S
C971 C963 1.503 1_565 S
C971 C970 1.370 . S
C971 C972 1.403 . S
C972 C971 1.403 . S
C972 C973 1.404 . S
C972 C975 1.539 1_565 S
C973 C969 1.408 . S
C973 C972 1.404 . S
C973 H985 0.930 . S
C974 C970 1.523 . S
C974 H986 0.956 1_554 S
C974 H987 0.961 1_554 S
C974 H988 0.961 1_554 S
C975 C972 1.539 1_545 S
C975 H989 0.958 . S
C975 H990 0.961 . S
C975 H991 0.960 . S
H976 C960 0.931 . S
H977 C965 0.929 1_655 S
H978 C966 0.960 . S
H979 C966 0.962 . S
H980 C966 0.960 . S
H981 C967 0.945 1_556 S
H982 C967 0.961 1_565 S
H983 C967 0.961 . S
H984 C968 0.931 . S
H985 C973 0.930 . S
H986 C974 0.956 1_556 S
H987 C974 0.961 1_556 S
H988 C974 0.961 1_556 S
H989 C975 0.958 . S
H990 C975 0.961 . S
H991 C975 0.960 . S
C992 C993 1.391 . S
C992 C994 1.394 . S
C992 H1008 0.931 . S
C993 C992 1.391 . S
C993 C997 1.376 . S
C994 C992 1.394 . S
C994 C995 1.369 . S
C994 C998 1.531 . S
C995 C994 1.369 . S
C995 C996 1.410 . S
C995 C1003 1.503 . S
C996 C995 1.410 . S
C996 C997 1.392 . S
C996 C999 1.511 1_455 S
C997 C993 1.376 . S
C997 C996 1.392 . S
C997 H1009 0.929 1_455 S
C998 C994 1.531 . S
C998 H1010 0.960 . S
C998 H1011 0.962 . S
C998 H1012 0.960 . S
C999 C996 1.511 1_655 S
C999 H1013 0.961 . S
C999 H1014 0.961 . S
C999 H1015 0.961 . S
C1000 C1001 1.370 . S
C1000 C1002 1.363 . S
C1000 H1016 0.931 . S
C1001 C1000 1.370 . S
C1001 C1005 1.408 . S
C1002 C1000 1.363 . S
C1002 C1003 1.370 . S
C1002 C1006 1.524 . S
C1003 C995 1.503 . S
C1003 C1002 1.370 . S
C1003 C1004 1.403 . S
C1004 C1003 1.403 . S
C1004 C1005 1.404 . S
C1004 C1007 1.539 . S
C1005 C1001 1.408 . S
C1005 C1004 1.404 . S
C1005 H1017 0.930 . S
C1006 C1002 1.524 . S
C1006 H1018 0.956 . S
C1006 H1019 0.961 1_455 S
C1006 H1020 0.961 . S
C1007 C1004 1.539 . S
C1007 H1021 0.958 . S
C1007 H1022 0.961 . S
C1007 H1023 0.960 . S
H1008 C992 0.931 . S
H1009 C997 0.929 1_655 S
H1010 C998 0.960 . S
H1011 C998 0.962 . S
H1012 C998 0.960 . S
H1013 C999 0.961 . S
H1014 C999 0.961 . S
H1015 C999 0.961 . S
H1016 C1000 0.931 . S
H1017 C1005 0.930 . S
H1018 C1006 0.956 . S
H1019 C1006 0.961 1_655 S
H1020 C1006 0.961 . S
H1021 C1007 0.958 . S
H1022 C1007 0.961 . S
H1023 C1007 0.960 . S
C1024 C1025 1.391 . S
C1024 C1026 1.394 . S
C1024 H1040 0.931 . S
C1025 C1024 1.391 . S
C1025 C1029 1.376 . S
C1026 C1024 1.394 . S
C1026 C1027 1.369 . S
C1026 C1030 1.531 . S
C1027 C1026 1.369 . S
C1027 C1028 1.410 . S
C1027 C1035 1.503 . S
C1028 C1027 1.410 . S
C1028 C1029 1.392 . S
C1028 C1031 1.511 . S
C1029 C1025 1.376 . S
C1029 C1028 1.392 . S
C1029 H1041 0.929 . S
C1030 C1026 1.531 . S
C1030 H1042 0.960 . S
C1030 H1043 0.962 . S
C1030 H1044 0.960 . S
C1031 C1028 1.511 . S
C1031 H1045 0.961 . S
C1031 H1046 0.961 . S
C1031 H1047 0.961 . S
C1032 C1033 1.370 . S
C1032 C1034 1.363 . S
C1032 H1048 0.931 . S
C1033 C1032 1.370 . S
C1033 C1037 1.408 . S
C1034 C1032 1.363 . S
C1034 C1035 1.370 . S
C1034 C1038 1.524 . S
C1035 C1027 1.503 . S
C1035 C1034 1.370 . S
C1035 C1036 1.403 . S
C1036 C1035 1.403 . S
C1036 C1037 1.404 . S
C1036 C1039 1.539 . S
C1037 C1033 1.408 . S
C1037 C1036 1.404 . S
C1037 H1049 0.930 . S
C1038 C1034 1.524 . S
C1038 H1050 0.956 . S
C1038 H1051 0.961 . S
C1038 H1052 0.961 . S
C1039 C1036 1.539 . S
C1039 H1053 0.958 . S
C1039 H1054 0.961 . S
C1039 H1055 0.960 . S
H1040 C1024 0.931 . S
H1041 C1029 0.929 . S
H1042 C1030 0.960 . S
H1043 C1030 0.962 . S
H1044 C1030 0.960 . S
H1045 C1031 0.961 . S
H1046 C1031 0.961 . S
H1047 C1031 0.961 . S
H1048 C1032 0.931 . S
H1049 C1037 0.930 . S
H1050 C1038 0.956 . S
H1051 C1038 0.961 . S
H1052 C1038 0.961 . S
H1053 C1039 0.958 . S
H1054 C1039 0.961 . S
H1055 C1039 0.960 . S
C1056 C1057 1.391 . S
C1056 C1058 1.394 . S
C1056 H1072 0.931 . S
C1057 C1056 1.391 . S
C1057 C1061 1.376 . S
C1058 C1056 1.394 . S
C1058 C1059 1.369 . S
C1058 C1062 1.531 . S
C1059 C1058 1.369 . S
C1059 C1060 1.410 . S
C1059 C1067 1.503 . S
C1060 C1059 1.410 . S
C1060 C1061 1.392 . S
C1060 C1063 1.511 . S
C1061 C1057 1.376 . S
C1061 C1060 1.392 . S
C1061 H1073 0.929 . S
C1062 C1058 1.531 . S
C1062 H1074 0.960 . S
C1062 H1075 0.962 . S
C1062 H1076 0.960 . S
C1063 C1060 1.511 . S
C1063 H1077 0.961 . S
C1063 H1078 0.961 . S
C1063 H1079 0.961 . S
C1064 C1065 1.370 . S
C1064 C1066 1.363 . S
C1064 H1080 0.931 . S
C1065 C1064 1.370 . S
C1065 C1069 1.408 . S
C1066 C1064 1.363 . S
C1066 C1067 1.370 1_556 S
C1066 C1070 1.524 . S
C1067 C1059 1.503 . S
C1067 C1066 1.370 1_554 S
C1067 C1068 1.403 . S
C1068 C1067 1.403 . S
C1068 C1069 1.404 1_554 S
C1068 C1071 1.539 . S
C1069 C1065 1.408 . S
C1069 C1068 1.404 1_556 S
C1069 H1081 0.930 . S
C1070 C1066 1.524 . S
C1070 H1082 0.956 1_556 S
C1070 H1083 0.961 . S
C1070 H1084 0.961 . S
C1071 C1068 1.539 . S
C1071 H1085 0.958 . S
C1071 H1086 0.961 . S
C1071 H1087 0.960 . S
H1072 C1056 0.931 . S
H1073 C1061 0.929 . S
H1074 C1062 0.960 . S
H1075 C1062 0.962 . S
H1076 C1062 0.960 . S
H1077 C1063 0.961 . S
H1078 C1063 0.961 . S
H1079 C1063 0.961 . S
H1080 C1064 0.931 . S
H1081 C1069 0.930 . S
H1082 C1070 0.956 1_554 S
H1083 C1070 0.961 . S
H1084 C1070 0.961 . S
H1085 C1071 0.958 . S
H1086 C1071 0.961 . S
H1087 C1071 0.960 . S
C1088 C1089 1.391 . S
C1088 C1090 1.394 . S
C1088 H1104 0.931 . S
C1089 C1088 1.391 . S
C1089 C1093 1.376 . S
C1090 C1088 1.394 . S
C1090 C1091 1.369 . S
C1090 C1094 1.531 . S
C1091 C1090 1.369 . S
C1091 C1092 1.410 . S
C1091 C1099 1.503 . S
C1092 C1091 1.410 . S
C1092 C1093 1.392 . S
C1092 C1095 1.511 . S
C1093 C1089 1.376 . S
C1093 C1092 1.392 . S
C1093 H1105 0.929 . S
C1094 C1090 1.531 . S
C1094 H1106 0.960 . S
C1094 H1107 0.962 . S
C1094 H1108 0.960 . S
C1095 C1092 1.511 . S
C1095 H1109 0.961 . S
C1095 H1110 0.961 . S
C1095 H1111 0.961 . S
C1096 C1097 1.370 . S
C1096 C1098 1.363 . S
C1096 H1112 0.931 . S
C1097 C1096 1.370 . S
C1097 C1101 1.408 . S
C1098 C1096 1.363 . S
C1098 C1099 1.370 . S
C1098 C1102 1.524 . S
C1099 C1091 1.503 . S
C1099 C1098 1.370 . S
C1099 C1100 1.403 . S
C1100 C1099 1.403 . S
C1100 C1101 1.404 . S
C1100 C1103 1.539 . S
C1101 C1097 1.408 . S
C1101 C1100 1.404 . S
C1101 H1113 0.930 . S
C1102 C1098 1.524 . S
C1102 H1114 0.956 . S
C1102 H1115 0.961 . S
C1102 H1116 0.961 . S
C1103 C1100 1.539 . S
C1103 H1117 0.958 . S
C1103 H1118 0.961 . S
C1103 H1119 0.960 . S
H1104 C1088 0.931 . S
H1105 C1093 0.929 . S
H1106 C1094 0.960 . S
H1107 C1094 0.962 . S
H1108 C1094 0.960 . S
H1109 C1095 0.961 . S
H1110 C1095 0.961 . S
H1111 C1095 0.961 . S
H1112 C1096 0.931 . S
H1113 C1101 0.930 . S
H1114 C1102 0.956 . S
H1115 C1102 0.961 . S
H1116 C1102 0.961 . S
H1117 C1103 0.958 . S
H1118 C1103 0.961 . S
H1119 C1103 0.960 . S
C1120 C1121 1.391 . S
C1120 C1122 1.394 . S
C1120 H1136 0.931 . S
C1121 C1120 1.391 . S
C1121 C1125 1.376 . S
C1122 C1120 1.394 . S
C1122 C1123 1.369 . S
C1122 C1126 1.531 . S
C1123 C1122 1.369 . S
C1123 C1124 1.410 . S
C1123 C1131 1.503 . S
C1124 C1123 1.410 . S
C1124 C1125 1.392 . S
C1124 C1127 1.511 . S
C1125 C1121 1.376 . S
C1125 C1124 1.392 . S
C1125 H1137 0.929 . S
C1126 C1122 1.531 . S
C1126 H1138 0.960 . S
C1126 H1139 0.962 . S
C1126 H1140 0.960 . S
C1127 C1124 1.511 . S
C1127 H1141 0.961 . S
C1127 H1142 0.961 . S
C1127 H1143 0.961 . S
C1128 C1129 1.370 . S
C1128 C1130 1.363 . S
C1128 H1144 0.931 . S
C1129 C1128 1.370 . S
C1129 C1133 1.408 . S
C1130 C1128 1.363 . S
C1130 C1131 1.370 . S
C1130 C1134 1.524 . S
C1131 C1123 1.503 . S
C1131 C1130 1.370 . S
C1131 C1132 1.403 . S
C1132 C1131 1.403 . S
C1132 C1133 1.404 . S
C1132 C1135 1.539 . S
C1133 C1129 1.408 . S
C1133 C1132 1.404 . S
C1133 H1145 0.930 . S
C1134 C1130 1.524 . S
C1134 H1146 0.956 . S
C1134 H1147 0.961 . S
C1134 H1148 0.961 . S
C1135 C1132 1.539 . S
C1135 H1149 0.958 . S
C1135 H1150 0.961 . S
C1135 H1151 0.960 . S
H1136 C1120 0.931 . S
H1137 C1125 0.929 . S
H1138 C1126 0.960 . S
H1139 C1126 0.962 . S
H1140 C1126 0.960 . S
H1141 C1127 0.961 . S
H1142 C1127 0.961 . S
H1143 C1127 0.961 . S
H1144 C1128 0.931 . S
H1145 C1133 0.930 . S
H1146 C1134 0.956 . S
H1147 C1134 0.961 . S
H1148 C1134 0.961 . S
H1149 C1135 0.958 . S
H1150 C1135 0.961 . S
H1151 C1135 0.960 . S
C1152 C1153 1.391 . S
C1152 C1154 1.394 . S
C1152 H1168 0.931 . S
C1153 C1152 1.391 . S
C1153 C1157 1.376 . S
C1154 C1152 1.394 . S
C1154 C1155 1.369 . S
C1154 C1158 1.531 . S
C1155 C1154 1.369 . S
C1155 C1156 1.410 . S
C1155 C1163 1.503 . S
C1156 C1155 1.410 . S
C1156 C1157 1.392 . S
C1156 C1159 1.511 . S
C1157 C1153 1.376 . S
C1157 C1156 1.392 . S
C1157 H1169 0.929 . S
C1158 C1154 1.531 . S
C1158 H1170 0.960 . S
C1158 H1171 0.962 . S
C1158 H1172 0.960 . S
C1159 C1156 1.511 . S
C1159 H1173 0.961 . S
C1159 H1174 0.961 . S
C1159 H1175 0.961 . S
C1160 C1161 1.370 . S
C1160 C1162 1.363 . S
C1160 H1176 0.931 . S
C1161 C1160 1.370 . S
C1161 C1165 1.408 . S
C1162 C1160 1.363 . S
C1162 C1163 1.370 . S
C1162 C1166 1.524 . S
C1163 C1155 1.503 . S
C1163 C1162 1.370 . S
C1163 C1164 1.403 . S
C1164 C1163 1.403 . S
C1164 C1165 1.404 . S
C1164 C1167 1.539 . S
C1165 C1161 1.408 . S
C1165 C1164 1.404 . S
C1165 H1177 0.930 . S
C1166 C1162 1.524 . S
C1166 H1178 0.956 . S
C1166 H1179 0.961 . S
C1166 H1180 0.961 . S
C1167 C1164 1.539 . S
C1167 H1181 0.958 . S
C1167 H1182 0.961 . S
C1167 H1183 0.960 . S
H1168 C1152 0.931 . S
H1169 C1157 0.929 . S
H1170 C1158 0.960 . S
H1171 C1158 0.962 . S
H1172 C1158 0.960 . S
H1173 C1159 0.961 . S
H1174 C1159 0.961 . S
H1175 C1159 0.961 . S
H1176 C1160 0.931 . S
H1177 C1165 0.930 . S
H1178 C1166 0.956 . S
H1179 C1166 0.961 . S
H1180 C1166 0.961 . S
H1181 C1167 0.958 . S
H1182 C1167 0.961 . S
H1183 C1167 0.960 . S
C1184 C1185 1.391 . S
C1184 C1186 1.394 . S
C1184 H1200 0.931 . S
C1185 C1184 1.391 . S
C1185 C1189 1.376 . S
C1186 C1184 1.394 . S
C1186 C1187 1.369 . S
C1186 C1190 1.531 1_565 S
C1187 C1186 1.369 . S
C1187 C1188 1.410 . S
C1187 C1195 1.503 1_565 S
C1188 C1187 1.410 . S
C1188 C1189 1.392 . S
C1188 C1191 1.511 . S
C1189 C1185 1.376 . S
C1189 C1188 1.392 . S
C1189 H1201 0.929 . S
C1190 C1186 1.531 1_545 S
C1190 H1202 0.960 . S
C1190 H1203 0.962 . S
C1190 H1204 0.960 . S
C1191 C1188 1.511 . S
C1191 H1205 0.961 . S
C1191 H1206 0.961 1_554 S
C1191 H1207 0.961 . S
C1192 C1193 1.370 . S
C1192 C1194 1.363 . S
C1192 H1208 0.931 . S
C1193 C1192 1.370 . S
C1193 C1197 1.408 . S
C1194 C1192 1.363 . S
C1194 C1195 1.370 1_556 S
C1194 C1198 1.524 1_545 S
C1195 C1187 1.503 1_545 S
C1195 C1194 1.370 1_554 S
C1195 C1196 1.403 . S
C1196 C1195 1.403 . S
C1196 C1197 1.404 1_554 S
C1196 C1199 1.539 . S
C1197 C1193 1.408 . S
C1197 C1196 1.404 1_556 S
C1197 H1209 0.930 . S
C1198 C1194 1.524 1_565 S
C1198 H1210 0.956 1_556 S
C1198 H1211 0.959 1_556 S
C1198 H1212 0.961 . S
C1199 C1196 1.539 . S
C1199 H1213 0.958 . S
C1199 H1214 0.961 . S
C1199 H1215 0.960 . S
H1200 C1184 0.931 . S
H1201 C1189 0.929 . S
H1202 C1190 0.960 . S
H1203 C1190 0.962 . S
H1204 C1190 0.960 . S
H1205 C1191 0.961 . S
H1206 C1191 0.961 1_556 S
H1207 C1191 0.961 . S
H1208 C1192 0.931 . S
H1209 C1197 0.930 . S
H1210 C1198 0.956 1_554 S
H1211 C1198 0.959 1_554 S
H1212 C1198 0.961 . S
H1213 C1199 0.958 . S
H1214 C1199 0.961 . S
H1215 C1199 0.960 . S
C1216 C1217 1.391 . S
C1216 C1218 1.394 . S
C1216 H1232 0.931 . S
C1217 C1216 1.391 . S
C1217 C1221 1.376 . S
C1218 C1216 1.394 . S
C1218 C1219 1.369 . S
C1218 C1222 1.531 . S
C1219 C1218 1.369 . S
C1219 C1220 1.410 . S
C1219 C1227 1.503 1_545 S
C1220 C1219 1.410 . S
C1220 C1221 1.392 . S
C1220 C1223 1.511 1_545 S
C1221 C1217 1.376 . S
C1221 C1220 1.392 . S
C1221 H1233 0.929 . S
C1222 C1218 1.531 . S
C1222 H1234 0.960 . S
C1222 H1235 0.962 . S
C1222 H1236 0.960 . S
C1223 C1220 1.511 1_565 S
C1223 H1237 0.961 . S
C1223 H1238 0.961 . S
C1223 H1239 0.961 . S
C1224 C1225 1.370 . S
C1224 C1226 1.363 . S
C1224 H1240 0.931 . S
C1225 C1224 1.370 . S
C1225 C1229 1.408 . S
C1226 C1224 1.363 . S
C1226 C1227 1.370 . S
C1226 C1230 1.524 . S
C1227 C1219 1.503 1_565 S
C1227 C1226 1.370 . S
C1227 C1228 1.403 . S
C1228 C1227 1.403 . S
C1228 C1229 1.404 . S
C1228 C1231 1.539 1_565 S
C1229 C1225 1.408 . S
C1229 C1228 1.404 . S
C1229 H1241 0.930 . S
C1230 C1226 1.524 . S
C1230 H1242 0.956 . S
C1230 H1243 0.961 . S
C1230 H1244 0.961 . S
C1231 C1228 1.539 1_545 S
C1231 H1245 0.958 . S
C1231 H1246 0.961 . S
C1231 H1247 0.960 . S
H1232 C1216 0.931 . S
H1233 C1221 0.929 . S
H1234 C1222 0.960 . S
H1235 C1222 0.962 . S
H1236 C1222 0.960 . S
H1237 C1223 0.961 . S
H1238 C1223 0.961 . S
H1239 C1223 0.961 . S
H1240 C1224 0.931 . S
H1241 C1229 0.930 . S
H1242 C1230 0.956 . S
H1243 C1230 0.961 . S
H1244 C1230 0.961 . S
H1245 C1231 0.958 . S
H1246 C1231 0.961 . S
H1247 C1231 0.960 . S
C225 C135 1.476 . S
C233 C9 1.468 . S
C257 C205 1.474 . S
C265 C23 1.467 . S
C289 C37 1.463 . S
C297 C121 1.461 . S
C321 C51 1.458 . S
C329 C219 1.467 1_655 S
C353 C65 1.472 . S
C361 C149 1.465 . S
C385 C191 1.451 1_655 S
C393 C79 1.464 . S
C417 C163 1.449 . S
C425 C93 1.463 . S
C449 C107 1.447 . S
C457 C177 1.462 . S
C481 C59 1.568 . S
C489 C45 1.556 1_556 S
C513 C171 1.547 . S
C521 C115 1.563 . S
C545 C87 1.544 . S
C553 C17 1.565 . S
C577 C129 1.575 . S
C585 C185 1.554 . S
C609 C3 1.565 . S
C617 C73 1.557 . S
C641 C213 1.574 . S
C649 C143 1.554 1_556 S
C673 C101 1.572 . S
C681 C31 1.555 . S
C705 C157 1.540 . S
C713 C199 1.570 . S
C737 C7 0.659 . S
C745 C63 0.574 . S
C769 C77 0.628 . S
C777 C21 0.612 . S
C801 C91 0.650 . S
C809 C35 0.574 . S
C833 C49 0.662 . S
C841 C105 0.591 . S
C865 C147 0.622 . S
C873 C119 0.580 . S
C897 C161 0.661 . S
C905 C133 0.593 . S
C929 C203 0.602 . S
C937 C175 0.621 . S
C961 C217 0.549 . S
C969 C189 0.630 . S
C993 C64 1.758 . S
C1001 C8 1.759 . S
C1025 C78 1.764 . S
C1033 C22 1.765 . S
C1057 C92 1.747 . S
C1065 C36 1.759 . S
C1089 C50 1.748 . S
C1097 C106 1.757 . S
C1121 C120 1.760 . S
C1129 C148 1.760 . S
C1153 C162 1.749 . S
C1161 C134 1.757 . S
C1185 C204 1.747 . S
C1193 C176 1.758 . S
C1217 C218 1.765 . S
C1225 C190 1.763 . S
