# Generated by pormake.
# Topology bcu, (8)-cn, num edge types: 1
# Building blocks:
#     Node 0, Type 0, BuildingBlock: LIZSOE_clean_sbu_0, # of connection points: 8
#     Node 1, Type 0, BuildingBlock: LIZSOE_clean_sbu_0, # of connection points: 8
#     Edge 2, Type (0, 0), BuildingBlock: XUDNAN_clean_linker_2, # of connection points: 2
#     Edge 3, Type (0, 0), BuildingBlock: XUDNAN_clean_linker_2, # of connection points: 2
#     Edge 4, Type (0, 0), BuildingBlock: XUDNAN_clean_linker_2, # of connection points: 2
#     Edge 5, Type (0, 0), BuildingBlock: XUDNAN_clean_linker_2, # of connection points: 2
#     Edge 6, Type (0, 0), BuildingBlock: XUDNAN_clean_linker_2, # of connection points: 2
#     Edge 7, Type (0, 0), BuildingBlock: XUDNAN_clean_linker_2, # of connection points: 2
#     Edge 8, Type (0, 0), BuildingBlock: XUDNAN_clean_linker_2, # of connection points: 2
#     Edge 9, Type (0, 0), BuildingBlock: XUDNAN_clean_linker_2, # of connection points: 2
# Relax obj value: 0.003
# Max RMSD: 0.034
# Mean RMSD: 0.034
data_MOF--net-bcu--node1-LIZSOE_clean_sbu_0--edge1-XUDNAN_clean_linker_2
_symmetry_space_group_name_H-M    P1
_symmetry_Int_Tables_number       1
_symmetry_cell_setting            triclinic
loop_
_symmetry_equiv_pos_as_xyz
'x, y, z'
_cell_length_a     20.513056
_cell_length_b     20.290901
_cell_length_c     20.814453
_cell_angle_alpha  114.04659
_cell_angle_beta   65.906476
_cell_angle_gamma 111.7321
loop_
_atom_site_label
_atom_site_type_symbol
_atom_site_fract_x
_atom_site_fract_y
_atom_site_fract_z
_atom_type_partial_charge
Co0 Co 0.09671 0.93088 0.0592 0.0
N1 N 0.11541 0.91218 0.12943 0.0
C2 C 0.06781 0.86061 0.16301 0.0
N3 N 0.16794 0.89509 0.19552 0.0
C4 C 0.17634 0.93265 0.15054 0.0
C5 C 0.0994 0.8506 0.20384 0.0
Co6 Co 0.95926 0.0893 0.93934 0.0
N7 N 0.93699 0.09613 0.86573 0.0
N8 N 0.88502 0.11741 0.80303 0.0
C9 C 0.92936 0.07217 0.75465 0.0
C10 C 0.96181 0.05973 0.79315 0.0
C11 C 0.89121 0.1322 0.86998 0.0
Co12 Co 1.03027 1.01283 -0.0008 0.0
C13 C 0.90493 0.08768 0.04327 0.0
H14 H 1.00035 0.0253 0.76983 0.0
O15 O 0.08643 0.94369 0.98658 0.0
O16 O 0.11423 0.05337 0.91931 0.0
O17 O 0.07789 0.09601 0.07311 0.0
O18 O 0.94546 0.97316 0.07876 0.0
O19 O 0.99845 0.91971 0.113 0.0
O20 O 0.05772 0.10233 0.88365 0.0
O21 O 0.97413 0.08398 0.01295 0.0
O22 O 0.94028 0.98903 0.89394 0.0
O23 O 0.11533 0.03168 0.11032 0.0
O24 O 0.18864 0.94364 0.00085 0.0
O25 O 0.98526 0.92701 0.92421 0.0
O26 O 0.86789 0.07575 -0.00016 0.0
C27 C 0.10891 0.09257 0.11344 0.0
C28 C 0.85012 0.17963 0.94111 0.0
H29 H 0.88061 0.20286 0.98215 0.0
H30 H 0.84109 0.22566 0.93263 0.0
H31 H 0.79542 0.14474 0.96353 0.0
C32 C 0.11513 0.08839 0.8793 0.0
C33 C 0.94255 0.93652 0.11804 0.0
H34 H 1.01491 0.82859 0.15473 0.0
H35 H 0.27872 0.96197 0.06991 0.0
H36 H 0.27878 1.01157 0.16393 0.0
H37 H 0.2321 0.03556 0.12278 0.0
C38 C 0.24526 0.98892 0.12578 0.0
C39 C 0.15625 0.94318 0.95836 0.0
C40 C 0.94954 0.92898 0.88789 0.0
H41 H 0.07585 0.80931 0.23282 0.0
H42 H 0.93785 0.05027 0.69567 0.0
Co43 Co 0.63375 0.45014 0.53615 0.0
N44 N 0.66869 0.44214 0.60003 0.0
C45 C 0.6704 0.4873 0.66852 0.0
N46 N 0.70239 0.388 0.65176 0.0
C47 C 0.68839 0.38204 0.59127 0.0
C48 C 0.69178 0.45444 0.70001 0.0
Co49 Co 0.4263 0.57965 0.46626 0.0
N50 N 0.39166 0.59821 0.40747 0.0
N51 N 0.36421 0.64942 0.34759 0.0
C52 C 0.31395 0.58478 0.35105 0.0
C53 C 0.33103 0.55336 0.38755 0.0
C54 C 0.4108 0.6569 0.38225 0.0
Co55 Co 0.53282 0.51533 0.49769 0.0
C56 C 0.45502 0.64035 0.55829 0.0
H57 H 0.29924 0.50242 0.40157 0.0
O58 O 0.6069 0.45607 0.46894 0.0
O59 O 0.60171 0.56398 0.41836 0.0
O60 O 0.5797 0.60355 0.56955 0.0
O61 O 0.4634 0.46581 0.57772 0.0
O62 O 0.5405 0.42696 0.597 0.0
O63 O 0.51945 0.59537 0.40027 0.0
O64 O 0.45584 0.56983 0.52774 0.0
O65 O 0.41026 0.48013 0.41377 0.0
O66 O 0.64394 0.54996 0.58741 0.0
O67 O 0.71989 0.47363 0.47369 0.0
O68 O 0.48546 0.4298 0.42343 0.0
O69 O 0.44655 0.67303 0.52096 0.0
C70 C 0.62348 0.60635 0.60013 0.0
C71 C 0.46999 0.72644 0.39889 0.0
H72 H 0.51598 0.71526 0.40425 0.0
H73 H 0.49235 0.75385 0.3552 0.0
H74 H 0.4457 0.76599 0.45175 0.0
C75 C 0.58441 0.59093 0.38352 0.0
C76 C 0.47674 0.43353 0.61121 0.0
H77 H 0.65371 0.53904 0.69579 0.0
H78 H 0.70555 0.33542 0.474 0.0
H79 H 0.63891 0.27596 0.52783 0.0
H80 H 0.73564 0.28999 0.51247 0.0
C81 C 0.693 0.31717 0.52221 0.0
C82 C 0.67839 0.46592 0.43633 0.0
C83 C 0.43607 0.4256 0.39796 0.0
H84 H 0.69582 0.47605 0.75554 0.0
H85 H 0.26659 0.56348 0.33119 0.0
H86 H 0.11066 0.12835 0.25373 0.0
H87 H 0.21491 0.20043 0.05781 0.0
H88 H 0.32085 0.28094 0.10428 0.0
H89 H 0.17299 0.31222 0.38231 0.0
H90 H 0.18288 0.26945 0.43753 0.0
H91 H 0.11484 0.22205 0.38937 0.0
H92 H 0.17239 0.10733 0.32544 0.0
H93 H 0.24072 0.15643 0.37331 0.0
H94 H 0.26896 0.1203 0.27413 0.0
H95 H 0.42132 0.3408 0.16489 0.0
H96 H 0.49311 0.40884 0.25322 0.0
H97 H 0.32012 0.30536 0.41418 0.0
C98 C 0.15437 0.16375 0.22235 0.0
C99 C 0.15431 0.15941 0.15282 0.0
C100 C 0.21317 0.20465 0.11204 0.0
C101 C 0.27421 0.24917 0.1373 0.0
C102 C 0.27465 0.24852 0.20392 0.0
C103 C 0.21496 0.2095 0.24741 0.0
C104 C 0.22812 0.22067 0.31819 0.0
C105 C 0.17137 0.25838 0.38585 0.0
C106 C 0.22744 0.14675 0.32299 0.0
C107 C 0.30484 0.27192 0.3076 0.0
C108 C 0.33141 0.28538 0.24026 0.0
C109 C 0.40096 0.3309 0.21782 0.0
C110 C 0.44211 0.36803 0.26768 0.0
C111 C 0.41302 0.36054 0.3395 0.0
C112 C 0.34478 0.30973 0.35863 0.0
H113 H 0.76776 0.09296 0.14417 0.0
H114 H 0.99503 0.22052 0.09481 0.0
H115 H 0.9549 0.33584 0.17567 0.0
H116 H 0.68608 0.21801 0.14923 0.0
H117 H 0.60649 0.2062 0.22787 0.0
H118 H 0.65159 0.13137 0.17066 0.0
H119 H 0.67141 0.12559 0.28339 0.0
H120 H 0.62265 0.1974 0.34145 0.0
H121 H 0.71388 0.20975 0.34253 0.0
H122 H 0.88891 0.43908 0.24811 0.0
H123 H 0.80766 0.51954 0.34442 0.0
H124 H 0.6236 0.32619 0.35487 0.0
C125 C 0.80931 0.14477 0.15316 0.0
C126 C 0.88473 0.14726 0.11341 0.0
C127 C 0.93721 0.21654 0.12549 0.0
C128 C 0.91472 0.28278 0.17012 0.0
C129 C 0.83962 0.27889 0.20388 0.0
C130 C 0.78795 0.21145 0.19904 0.0
C131 C 0.71096 0.22283 0.24422 0.0
C132 C 0.66084 0.19279 0.19503 0.0
C133 C 0.67778 0.1868 0.30661 0.0
C134 C 0.72737 0.30726 0.27439 0.0
C135 C 0.80179 0.3384 0.24865 0.0
C136 C 0.83067 0.4152 0.26919 0.0
C137 C 0.78366 0.46083 0.3227 0.0
C138 C 0.70909 0.42951 0.35676 0.0
C139 C 0.67967 0.35218 0.32853 0.0
H140 H 0.9156 0.9112 0.24612 0.0
H141 H 0.81317 0.87174 0.08389 0.0
H142 H 0.71307 0.77286 0.13144 0.0
H143 H 0.88764 0.72952 0.23091 0.0
H144 H 0.8666 0.74071 0.3272 0.0
H145 H 0.92404 0.81718 0.29099 0.0
H146 H 0.8377 0.9025 0.38605 0.0
H147 H 0.78184 0.82814 0.426 0.0
H148 H 0.74049 0.87062 0.39628 0.0
H149 H 0.63525 0.6675 0.18434 0.0
H150 H 0.56738 0.58002 0.25775 0.0
H151 H 0.72035 0.68742 0.38639 0.0
C152 C 0.8704 0.8838 0.22267 0.0
C153 C 0.87161 0.89942 0.16172 0.0
C154 C 0.8124 0.86173 0.13153 0.0
C155 C 0.75609 0.80465 0.15743 0.0
C156 C 0.75967 0.78696 0.21394 0.0
C157 C 0.81396 0.82699 0.24788 0.0
C158 C 0.80658 0.7954 0.30599 0.0
C159 C 0.87531 0.76914 0.2876 0.0
C160 C 0.79067 0.85255 0.38316 0.0
C161 C 0.74043 0.7301 0.29843 0.0
C162 C 0.71473 0.7261 0.24457 0.0
C163 C 0.65452 0.67056 0.22699 0.0
C164 C 0.61699 0.6205 0.26832 0.0
C165 C 0.63924 0.62641 0.32706 0.0
C166 C 0.70328 0.68041 0.34067 0.0
H167 H 0.14844 0.88245 0.32578 0.0
H168 H 0.30683 0.88176 0.11058 0.0
H169 H 0.38835 0.84091 0.13872 0.0
H170 H 0.28312 0.9257 0.42959 0.0
H171 H 0.21982 0.86105 0.47985 0.0
H172 H 0.18524 0.91214 0.4526 0.0
H173 H 0.10869 0.78788 0.38668 0.0
H174 H 0.14371 0.73642 0.41245 0.0
H175 H 0.15477 0.71721 0.31654 0.0
H176 H 0.44024 0.77629 0.17886 0.0
H177 H 0.45647 0.69232 0.22796 0.0
H178 H 0.26019 0.72563 0.41217 0.0
C179 C 0.20193 0.87696 0.28623 0.0
C180 C 0.22256 0.88804 0.21729 0.0
C181 C 0.29146 0.87736 0.16518 0.0
C182 C 0.33789 0.85336 0.18049 0.0
C183 C 0.31432 0.83972 0.24789 0.0
C184 C 0.24797 0.8516 0.30022 0.0
C185 C 0.229 0.82071 0.3624 0.0
C186 C 0.22935 0.88367 0.43543 0.0
C187 C 0.1547 0.76209 0.36985 0.0
C188 C 0.29274 0.78576 0.33474 0.0
C189 C 0.34256 0.79912 0.26972 0.0
C190 C 0.40259 0.76695 0.2306 0.0
C191 C 0.41135 0.71935 0.25837 0.0
C192 C 0.35974 0.70392 0.32362 0.0
C193 C 0.30053 0.73812 0.36266 0.0
H194 H 0.29579 0.97171 0.86489 0.0
H195 H 0.084 0.81164 0.8841 0.0
H196 H 0.14559 0.7112 0.79643 0.0
H197 H 0.37812 0.87657 0.66042 0.0
H198 H 0.46774 0.90368 0.67214 0.0
H199 H 0.40424 0.96205 0.72899 0.0
H200 H 0.41952 0.95629 0.84412 0.0
H201 H 0.47886 0.89356 0.78762 0.0
H202 H 0.39621 0.86729 0.85813 0.0
H203 H 0.23191 0.62577 0.72859 0.0
H204 H 0.33124 0.56497 0.63784 0.0
H205 H 0.4866 0.78056 0.65184 0.0
C206 C 0.26214 0.91631 0.84693 0.0
C207 C 0.18507 0.89955 0.8812 0.0
C208 C 0.1429 0.82608 0.85773 0.0
C209 C 0.17765 0.76823 0.80941 0.0
C210 C 0.25434 0.78543 0.78296 0.0
C211 C 0.29585 0.85813 0.79712 0.0
C212 C 0.37736 0.8615 0.75933 0.0
C213 C 0.40871 0.90338 0.70177 0.0
C214 C 0.42048 0.89677 0.8157 0.0
C215 C 0.37517 0.77923 0.7231 0.0
C216 C 0.30379 0.73635 0.73956 0.0
C217 C 0.28785 0.65886 0.71396 0.0
C218 C 0.34523 0.62458 0.66386 0.0
C219 C 0.4167 0.66801 0.63752 0.0
C220 C 0.43283 0.74592 0.67184 0.0
H221 H 0.34085 0.33538 0.60561 0.0
H222 H 0.48734 0.44936 0.74125 0.0
H223 H 0.41731 0.36421 0.81681 0.0
H224 H 0.17067 0.29818 0.76192 0.0
H225 H 0.13364 0.20901 0.70424 0.0
H226 H 0.1922 0.2831 0.66468 0.0
H227 H 0.27734 0.19584 0.56979 0.0
H228 H 0.2206 0.12248 0.61091 0.0
H229 H 0.31747 0.15466 0.60218 0.0
H230 H 0.34164 0.25799 0.86856 0.0
H231 H 0.2435 0.15744 0.91488 0.0
H232 H 0.14157 0.11466 0.7511 0.0
C233 C 0.35593 0.34433 0.65322 0.0
C234 C 0.41916 0.39949 0.66799 0.0
C235 C 0.4386 0.40795 0.72948 0.0
C236 C 0.39979 0.35922 0.77218 0.0
C237 C 0.34067 0.30253 0.7536 0.0
C238 C 0.31691 0.2963 0.69744 0.0
C239 C 0.25079 0.2305 0.69021 0.0
C240 C 0.18279 0.25677 0.70625 0.0
C241 C 0.2676 0.17246 0.61371 0.0
C242 C 0.24207 0.20079 0.75032 0.0
C243 C 0.2954 0.24233 0.78522 0.0
C244 C 0.29904 0.22536 0.84216 0.0
C245 C 0.24382 0.16731 0.86737 0.0
C246 C 0.18523 0.12797 0.83643 0.0
C247 C 0.18619 0.14331 0.77532 0.0
H248 H 0.90599 0.259 0.81303 0.0
H249 H 0.77363 0.0356 0.746 0.0
H250 H 0.70863 0.08097 0.70049 0.0
H251 H 0.76352 0.35752 0.87177 0.0
H252 H 0.82795 0.43289 0.83654 0.0
H253 H 0.85849 0.38289 0.86887 0.0
H254 H 0.95908 0.35434 0.74242 0.0
H255 H 0.92823 0.40329 0.70935 0.0
H256 H 0.93259 0.30792 0.65908 0.0
H257 H 0.66168 0.15098 0.66004 0.0
H258 H 0.63544 0.24072 0.62714 0.0
H259 H 0.80409 0.41648 0.71524 0.0
C260 C 0.86188 0.22052 0.79051 0.0
C261 C 0.84274 0.14469 0.78416 0.0
C262 C 0.78723 0.0943 0.75199 0.0
C263 C 0.75051 0.1195 0.72614 0.0
C264 C 0.77105 0.19494 0.73256 0.0
C265 C 0.82533 0.24474 0.7641 0.0
C266 C 0.83983 0.32207 0.76104 0.0
C267 C 0.82131 0.37707 0.8392 0.0
C268 C 0.91966 0.3484 0.71523 0.0
C269 C 0.78575 0.3079 0.72218 0.0
C270 C 0.74625 0.23444 0.70658 0.0
C271 C 0.69269 0.20851 0.6713 0.0
C272 C 0.67891 0.25941 0.65186 0.0
C273 C 0.71944 0.33461 0.66691 0.0
C274 C 0.77317 0.35892 0.70261 0.0
H275 H 0.61021 0.65837 0.74695 0.0
H276 H 0.73739 0.70401 0.53848 0.0
H277 H 0.84193 0.78103 0.58792 0.0
H278 H 0.68669 0.8479 0.86618 0.0
H279 H 0.68328 0.80769 0.93073 0.0
H280 H 0.61681 0.76499 0.88069 0.0
H281 H 0.65445 0.64083 0.83435 0.0
H282 H 0.72371 0.68425 0.88107 0.0
H283 H 0.74899 0.6377 0.78311 0.0
H284 H 0.93896 0.8336 0.65219 0.0
H285 H 1.01032 0.89573 0.74099 0.0
H286 H 0.81855 0.82488 0.9118 0.0
C287 C 0.65854 0.68828 0.71341 0.0
C288 C 0.66526 0.67682 0.63946 0.0
C289 C 0.73035 0.71418 0.59597 0.0
C290 C 0.79059 0.75655 0.6231 0.0
C291 C 0.78422 0.76199 0.69432 0.0
C292 C 0.71879 0.73186 0.74019 0.0
C293 C 0.7267 0.74622 0.81456 0.0
C294 C 0.67536 0.79461 0.87672 0.0
C295 C 0.7126 0.67287 0.82908 0.0
C296 C 0.80709 0.78818 0.80293 0.0
C297 C 0.83957 0.79484 0.73243 0.0
C298 C 0.91379 0.82956 0.7078 0.0
C299 C 0.95439 0.86333 0.75817 0.0
C300 C 0.92047 0.86375 0.83271 0.0
C301 C 0.84658 0.82324 0.85457 0.0
loop_
_geom_bond_atom_site_label_1
_geom_bond_atom_site_label_2
_geom_bond_distance
_geom_bond_site_symmetry_2
_ccdc_geom_bond_type
Co0 N1 2.034 . S
Co0 O15 2.262 1_554 S
Co0 O19 1.958 1_455 S
Co0 O23 1.950 1_565 S
Co0 O24 2.057 1_554 S
N1 Co0 2.034 . S
N1 C2 1.366 . S
N1 C4 1.332 . S
C2 N1 1.366 . S
C2 C5 1.377 . S
C2 H34 0.931 1_455 S
N3 C4 1.346 . S
N3 C5 1.337 . S
C4 N1 1.332 . S
C4 N3 1.346 . S
C4 C38 1.361 . S
C5 C2 1.377 . S
C5 N3 1.337 . S
C5 H41 0.930 . S
Co6 N7 2.034 . S
Co6 O20 1.950 1_655 S
Co6 O21 2.262 1_556 S
Co6 O22 1.958 1_545 S
Co6 O26 2.057 1_556 S
N7 Co6 2.034 . S
N7 C10 1.366 . S
N7 C11 1.332 . S
N8 C9 1.337 . S
N8 C11 1.346 . S
C9 N8 1.337 . S
C9 C10 1.377 . S
C9 H42 0.930 . S
C10 N7 1.366 . S
C10 C9 1.377 . S
C10 H14 0.931 1_545 S
C11 N7 1.332 . S
C11 N8 1.346 . S
C11 C28 1.361 . S
Co12 O15 2.097 1_654 S
Co12 O16 2.065 1_664 S
Co12 O17 2.065 1_665 S
Co12 O18 2.042 . S
Co12 O21 2.097 1_565 S
Co12 O25 2.042 1_554 S
C13 O21 1.253 . S
C13 O26 1.263 . S
H14 C10 0.931 1_565 S
O15 Co0 2.262 1_556 S
O15 Co12 2.097 1_456 S
O15 C39 1.253 . S
O16 Co12 2.065 1_446 S
O16 C32 1.221 . S
O17 Co12 2.065 1_445 S
O17 C27 1.221 . S
O18 Co12 2.042 . S
O18 C33 1.237 . S
O19 Co0 1.958 1_655 S
O19 C33 1.278 . S
O20 Co6 1.950 1_455 S
O20 C32 1.277 . S
O21 Co6 2.262 1_554 S
O21 Co12 2.097 1_545 S
O21 C13 1.253 . S
O22 Co6 1.958 1_565 S
O22 C40 1.278 . S
O23 Co0 1.950 1_545 S
O23 C27 1.277 . S
O24 Co0 2.057 1_556 S
O24 C39 1.263 . S
O25 Co12 2.042 1_556 S
O25 C40 1.237 . S
O26 Co6 2.057 1_554 S
O26 C13 1.263 . S
C27 O17 1.221 . S
C27 O23 1.277 . S
C28 C11 1.361 . S
C28 H29 0.960 . S
C28 H30 0.961 . S
C28 H31 0.961 . S
H29 C28 0.960 . S
H30 C28 0.961 . S
H31 C28 0.961 . S
C32 O16 1.221 . S
C32 O20 1.277 . S
C33 O18 1.237 . S
C33 O19 1.278 . S
H34 C2 0.931 1_655 S
H35 C38 0.961 . S
H36 C38 0.961 . S
H37 C38 0.960 . S
C38 C4 1.361 . S
C38 H35 0.961 . S
C38 H36 0.961 . S
C38 H37 0.960 . S
C39 O15 1.253 . S
C39 O24 1.263 . S
C40 O22 1.278 . S
C40 O25 1.237 . S
H41 C5 0.930 . S
H42 C9 0.930 . S
Co43 N44 2.034 . S
Co43 O58 2.262 . S
Co43 O62 1.958 . S
Co43 O66 1.950 . S
Co43 O67 2.057 . S
N44 Co43 2.034 . S
N44 C45 1.366 . S
N44 C47 1.332 . S
C45 N44 1.366 . S
C45 C48 1.377 . S
C45 H77 0.931 . S
N46 C47 1.346 . S
N46 C48 1.337 . S
C47 N44 1.332 . S
C47 N46 1.346 . S
C47 C81 1.361 . S
C48 C45 1.377 . S
C48 N46 1.337 . S
C48 H84 0.930 . S
Co49 N50 2.034 . S
Co49 O63 1.950 . S
Co49 O64 2.262 . S
Co49 O65 1.958 . S
Co49 O69 2.057 . S
N50 Co49 2.034 . S
N50 C53 1.366 . S
N50 C54 1.332 . S
N51 C52 1.337 . S
N51 C54 1.346 . S
C52 N51 1.337 . S
C52 C53 1.377 . S
C52 H85 0.930 . S
C53 N50 1.366 . S
C53 C52 1.377 . S
C53 H57 0.931 . S
C54 N50 1.332 . S
C54 N51 1.346 . S
C54 C71 1.361 . S
Co55 O58 2.097 . S
Co55 O59 2.065 . S
Co55 O60 2.065 . S
Co55 O61 2.042 . S
Co55 O64 2.097 . S
Co55 O68 2.042 . S
C56 O64 1.253 . S
C56 O69 1.263 . S
H57 C53 0.931 . S
O58 Co43 2.262 . S
O58 Co55 2.097 . S
O58 C82 1.253 . S
O59 Co55 2.065 . S
O59 C75 1.221 . S
O60 Co55 2.065 . S
O60 C70 1.221 . S
O61 Co55 2.042 . S
O61 C76 1.237 . S
O62 Co43 1.958 . S
O62 C76 1.278 . S
O63 Co49 1.950 . S
O63 C75 1.277 . S
O64 Co49 2.262 . S
O64 Co55 2.097 . S
O64 C56 1.253 . S
O65 Co49 1.958 . S
O65 C83 1.278 . S
O66 Co43 1.950 . S
O66 C70 1.277 . S
O67 Co43 2.057 . S
O67 C82 1.263 . S
O68 Co55 2.042 . S
O68 C83 1.237 . S
O69 Co49 2.057 . S
O69 C56 1.263 . S
C70 O60 1.221 . S
C70 O66 1.277 . S
C71 C54 1.361 . S
C71 H72 0.960 . S
C71 H73 0.961 . S
C71 H74 0.961 . S
H72 C71 0.960 . S
H73 C71 0.961 . S
H74 C71 0.961 . S
C75 O59 1.221 . S
C75 O63 1.277 . S
C76 O61 1.237 . S
C76 O62 1.278 . S
H77 C45 0.931 . S
H78 C81 0.961 . S
H79 C81 0.961 . S
H80 C81 0.960 . S
C81 C47 1.361 . S
C81 H78 0.961 . S
C81 H79 0.961 . S
C81 H80 0.960 . S
C82 O58 1.253 . S
C82 O67 1.263 . S
C83 O65 1.278 . S
C83 O68 1.237 . S
H84 C48 0.930 . S
H85 C52 0.930 . S
H86 C98 0.930 . S
H87 C100 0.930 . S
H88 C101 0.930 . S
H89 C105 0.959 . S
H90 C105 0.959 . S
H91 C105 0.961 . S
H92 C106 0.960 . S
H93 C106 0.961 . S
H94 C106 0.959 . S
H95 C109 0.929 . S
H96 C110 0.931 . S
H97 C112 0.930 . S
C98 H86 0.930 . S
C98 C99 1.399 . S
C98 C103 1.399 . S
C99 C98 1.399 . S
C99 C100 1.376 . S
C100 H87 0.930 . S
C100 C99 1.376 . S
C100 C101 1.388 . S
C101 H88 0.930 . S
C101 C100 1.388 . S
C101 C102 1.390 . S
C102 C101 1.390 . S
C102 C103 1.394 . S
C102 C108 1.465 . S
C103 C98 1.399 . S
C103 C102 1.394 . S
C103 C104 1.516 . S
C104 C103 1.516 . S
C104 C105 1.502 . S
C104 C106 1.561 . S
C104 C107 1.526 . S
C105 H89 0.959 . S
C105 H90 0.959 . S
C105 H91 0.961 . S
C105 C104 1.502 . S
C106 H92 0.960 . S
C106 H93 0.961 . S
C106 H94 0.959 . S
C106 C104 1.561 . S
C107 C104 1.526 . S
C107 C108 1.396 . S
C107 C112 1.390 . S
C108 C102 1.465 . S
C108 C107 1.396 . S
C108 C109 1.399 . S
C109 H95 0.929 . S
C109 C108 1.399 . S
C109 C110 1.385 . S
C110 H96 0.931 . S
C110 C109 1.385 . S
C110 C111 1.389 . S
C111 C110 1.389 . S
C111 C112 1.387 . S
C112 H97 0.930 . S
C112 C107 1.390 . S
C112 C111 1.387 . S
H113 C125 0.930 . S
H114 C127 0.930 . S
H115 C128 0.930 . S
H116 C132 0.959 . S
H117 C132 0.959 . S
H118 C132 0.961 . S
H119 C133 0.960 . S
H120 C133 0.961 . S
H121 C133 0.959 . S
H122 C136 0.929 . S
H123 C137 0.931 . S
H124 C139 0.930 . S
C125 H113 0.930 . S
C125 C126 1.399 . S
C125 C130 1.399 . S
C126 C125 1.399 . S
C126 C127 1.376 . S
C127 H114 0.930 . S
C127 C126 1.376 . S
C127 C128 1.388 . S
C128 H115 0.930 . S
C128 C127 1.388 . S
C128 C129 1.390 . S
C129 C128 1.390 . S
C129 C130 1.394 . S
C129 C135 1.465 . S
C130 C125 1.399 . S
C130 C129 1.394 . S
C130 C131 1.516 . S
C131 C130 1.516 . S
C131 C132 1.502 . S
C131 C133 1.561 . S
C131 C134 1.526 . S
C132 H116 0.959 . S
C132 H117 0.959 . S
C132 H118 0.961 . S
C132 C131 1.502 . S
C133 H119 0.960 . S
C133 H120 0.961 . S
C133 H121 0.959 . S
C133 C131 1.561 . S
C134 C131 1.526 . S
C134 C135 1.396 . S
C134 C139 1.390 . S
C135 C129 1.465 . S
C135 C134 1.396 . S
C135 C136 1.399 . S
C136 H122 0.929 . S
C136 C135 1.399 . S
C136 C137 1.385 . S
C137 H123 0.931 . S
C137 C136 1.385 . S
C137 C138 1.389 . S
C138 C137 1.389 . S
C138 C139 1.387 . S
C139 H124 0.930 . S
C139 C134 1.390 . S
C139 C138 1.387 . S
H140 C152 0.930 . S
H141 C154 0.930 . S
H142 C155 0.930 . S
H143 C159 0.959 . S
H144 C159 0.959 . S
H145 C159 0.961 . S
H146 C160 0.960 . S
H147 C160 0.961 . S
H148 C160 0.959 . S
H149 C163 0.929 . S
H150 C164 0.931 . S
H151 C166 0.930 . S
C152 H140 0.930 . S
C152 C153 1.399 . S
C152 C157 1.399 . S
C153 C152 1.399 . S
C153 C154 1.376 . S
C154 H141 0.930 . S
C154 C153 1.376 . S
C154 C155 1.388 . S
C155 H142 0.930 . S
C155 C154 1.388 . S
C155 C156 1.390 . S
C156 C155 1.390 . S
C156 C157 1.394 . S
C156 C162 1.465 . S
C157 C152 1.399 . S
C157 C156 1.394 . S
C157 C158 1.516 . S
C158 C157 1.516 . S
C158 C159 1.502 . S
C158 C160 1.561 . S
C158 C161 1.526 . S
C159 H143 0.959 . S
C159 H144 0.959 . S
C159 H145 0.961 . S
C159 C158 1.502 . S
C160 H146 0.960 . S
C160 H147 0.961 . S
C160 H148 0.959 . S
C160 C158 1.561 . S
C161 C158 1.526 . S
C161 C162 1.396 . S
C161 C166 1.390 . S
C162 C156 1.465 . S
C162 C161 1.396 . S
C162 C163 1.399 . S
C163 H149 0.929 . S
C163 C162 1.399 . S
C163 C164 1.385 . S
C164 H150 0.931 . S
C164 C163 1.385 . S
C164 C165 1.389 . S
C165 C164 1.389 . S
C165 C166 1.387 . S
C166 H151 0.930 . S
C166 C161 1.390 . S
C166 C165 1.387 . S
H167 C179 0.930 . S
H168 C181 0.930 . S
H169 C182 0.930 . S
H170 C186 0.959 . S
H171 C186 0.959 . S
H172 C186 0.961 . S
H173 C187 0.960 . S
H174 C187 0.961 . S
H175 C187 0.959 . S
H176 C190 0.929 . S
H177 C191 0.931 . S
H178 C193 0.930 . S
C179 H167 0.930 . S
C179 C180 1.399 . S
C179 C184 1.399 . S
C180 C179 1.399 . S
C180 C181 1.376 . S
C181 H168 0.930 . S
C181 C180 1.376 . S
C181 C182 1.388 . S
C182 H169 0.930 . S
C182 C181 1.388 . S
C182 C183 1.390 . S
C183 C182 1.390 . S
C183 C184 1.394 . S
C183 C189 1.465 . S
C184 C179 1.399 . S
C184 C183 1.394 . S
C184 C185 1.516 . S
C185 C184 1.516 . S
C185 C186 1.502 . S
C185 C187 1.561 . S
C185 C188 1.526 . S
C186 H170 0.959 . S
C186 H171 0.959 . S
C186 H172 0.961 . S
C186 C185 1.502 . S
C187 H173 0.960 . S
C187 H174 0.961 . S
C187 H175 0.959 . S
C187 C185 1.561 . S
C188 C185 1.526 . S
C188 C189 1.396 . S
C188 C193 1.390 . S
C189 C183 1.465 . S
C189 C188 1.396 . S
C189 C190 1.399 . S
C190 H176 0.929 . S
C190 C189 1.399 . S
C190 C191 1.385 . S
C191 H177 0.931 . S
C191 C190 1.385 . S
C191 C192 1.389 . S
C192 C191 1.389 . S
C192 C193 1.387 . S
C193 H178 0.930 . S
C193 C188 1.390 . S
C193 C192 1.387 . S
H194 C206 0.930 . S
H195 C208 0.930 . S
H196 C209 0.930 . S
H197 C213 0.959 . S
H198 C213 0.959 . S
H199 C213 0.961 . S
H200 C214 0.960 . S
H201 C214 0.961 . S
H202 C214 0.959 . S
H203 C217 0.929 . S
H204 C218 0.931 . S
H205 C220 0.930 . S
C206 H194 0.930 . S
C206 C207 1.399 . S
C206 C211 1.399 . S
C207 C206 1.399 . S
C207 C208 1.376 . S
C208 H195 0.930 . S
C208 C207 1.376 . S
C208 C209 1.388 . S
C209 H196 0.930 . S
C209 C208 1.388 . S
C209 C210 1.390 . S
C210 C209 1.390 . S
C210 C211 1.394 . S
C210 C216 1.465 . S
C211 C206 1.399 . S
C211 C210 1.394 . S
C211 C212 1.516 . S
C212 C211 1.516 . S
C212 C213 1.502 . S
C212 C214 1.561 . S
C212 C215 1.526 . S
C213 H197 0.959 . S
C213 H198 0.959 . S
C213 H199 0.961 . S
C213 C212 1.502 . S
C214 H200 0.960 . S
C214 H201 0.961 . S
C214 H202 0.959 . S
C214 C212 1.561 . S
C215 C212 1.526 . S
C215 C216 1.396 . S
C215 C220 1.390 . S
C216 C210 1.465 . S
C216 C215 1.396 . S
C216 C217 1.399 . S
C217 H203 0.929 . S
C217 C216 1.399 . S
C217 C218 1.385 . S
C218 H204 0.931 . S
C218 C217 1.385 . S
C218 C219 1.389 . S
C219 C218 1.389 . S
C219 C220 1.387 . S
C220 H205 0.930 . S
C220 C215 1.390 . S
C220 C219 1.387 . S
H221 C233 0.930 . S
H222 C235 0.930 . S
H223 C236 0.930 . S
H224 C240 0.959 . S
H225 C240 0.959 . S
H226 C240 0.961 . S
H227 C241 0.960 . S
H228 C241 0.961 . S
H229 C241 0.959 . S
H230 C244 0.929 . S
H231 C245 0.931 . S
H232 C247 0.930 . S
C233 H221 0.930 . S
C233 C234 1.399 . S
C233 C238 1.399 . S
C234 C233 1.399 . S
C234 C235 1.376 . S
C235 H222 0.930 . S
C235 C234 1.376 . S
C235 C236 1.388 . S
C236 H223 0.930 . S
C236 C235 1.388 . S
C236 C237 1.390 . S
C237 C236 1.390 . S
C237 C238 1.394 . S
C237 C243 1.465 . S
C238 C233 1.399 . S
C238 C237 1.394 . S
C238 C239 1.516 . S
C239 C238 1.516 . S
C239 C240 1.502 . S
C239 C241 1.561 . S
C239 C242 1.526 . S
C240 H224 0.959 . S
C240 H225 0.959 . S
C240 H226 0.961 . S
C240 C239 1.502 . S
C241 H227 0.960 . S
C241 H228 0.961 . S
C241 H229 0.959 . S
C241 C239 1.561 . S
C242 C239 1.526 . S
C242 C243 1.396 . S
C242 C247 1.390 . S
C243 C237 1.465 . S
C243 C242 1.396 . S
C243 C244 1.399 . S
C244 H230 0.929 . S
C244 C243 1.399 . S
C244 C245 1.385 . S
C245 H231 0.931 . S
C245 C244 1.385 . S
C245 C246 1.389 . S
C246 C245 1.389 . S
C246 C247 1.387 . S
C247 H232 0.930 . S
C247 C242 1.390 . S
C247 C246 1.387 . S
H248 C260 0.930 . S
H249 C262 0.930 . S
H250 C263 0.930 . S
H251 C267 0.959 . S
H252 C267 0.959 . S
H253 C267 0.961 . S
H254 C268 0.960 . S
H255 C268 0.961 . S
H256 C268 0.959 . S
H257 C271 0.929 . S
H258 C272 0.931 . S
H259 C274 0.930 . S
C260 H248 0.930 . S
C260 C261 1.399 . S
C260 C265 1.399 . S
C261 C260 1.399 . S
C261 C262 1.376 . S
C262 H249 0.930 . S
C262 C261 1.376 . S
C262 C263 1.388 . S
C263 H250 0.930 . S
C263 C262 1.388 . S
C263 C264 1.390 . S
C264 C263 1.390 . S
C264 C265 1.394 . S
C264 C270 1.465 . S
C265 C260 1.399 . S
C265 C264 1.394 . S
C265 C266 1.516 . S
C266 C265 1.516 . S
C266 C267 1.502 . S
C266 C268 1.561 . S
C266 C269 1.526 . S
C267 H251 0.959 . S
C267 H252 0.959 . S
C267 H253 0.961 . S
C267 C266 1.502 . S
C268 H254 0.960 . S
C268 H255 0.961 . S
C268 H256 0.959 . S
C268 C266 1.561 . S
C269 C266 1.526 . S
C269 C270 1.396 . S
C269 C274 1.390 . S
C270 C264 1.465 . S
C270 C269 1.396 . S
C270 C271 1.399 . S
C271 H257 0.929 . S
C271 C270 1.399 . S
C271 C272 1.385 . S
C272 H258 0.931 . S
C272 C271 1.385 . S
C272 C273 1.389 . S
C273 C272 1.389 . S
C273 C274 1.387 . S
C274 H259 0.930 . S
C274 C269 1.390 . S
C274 C273 1.387 . S
H275 C287 0.930 . S
H276 C289 0.930 . S
H277 C290 0.930 . S
H278 C294 0.959 . S
H279 C294 0.959 . S
H280 C294 0.961 . S
H281 C295 0.960 . S
H282 C295 0.961 . S
H283 C295 0.959 . S
H284 C298 0.929 . S
H285 C299 0.931 . S
H286 C301 0.930 . S
C287 H275 0.930 . S
C287 C288 1.399 . S
C287 C292 1.399 . S
C288 C287 1.399 . S
C288 C289 1.376 . S
C289 H276 0.930 . S
C289 C288 1.376 . S
C289 C290 1.388 . S
C290 H277 0.930 . S
C290 C289 1.388 . S
C290 C291 1.390 . S
C291 C290 1.390 . S
C291 C292 1.394 . S
C291 C297 1.465 . S
C292 C287 1.399 . S
C292 C291 1.394 . S
C292 C293 1.516 . S
C293 C292 1.516 . S
C293 C294 1.502 . S
C293 C295 1.561 . S
C293 C296 1.526 . S
C294 H278 0.959 . S
C294 H279 0.959 . S
C294 H280 0.961 . S
C294 C293 1.502 . S
C295 H281 0.960 . S
C295 H282 0.961 . S
C295 H283 0.959 . S
C295 C293 1.561 . S
C296 C293 1.526 . S
C296 C297 1.396 . S
C296 C301 1.390 . S
C297 C291 1.465 . S
C297 C296 1.396 . S
C297 C298 1.399 . S
C298 H284 0.929 . S
C298 C297 1.399 . S
C298 C299 1.385 . S
C299 H285 0.931 . S
C299 C298 1.385 . S
C299 C300 1.389 . S
C300 C299 1.389 . S
C300 C301 1.387 . S
C301 H286 0.930 . S
C301 C296 1.390 . S
C301 C300 1.387 . S
C99 C27 1.370 . S
C111 C83 1.349 . S
C126 C13 1.343 . S
C138 C82 1.438 . S
C153 C33 1.374 . S
C165 C75 1.353 . S
C180 N3 1.525 . S
C192 N51 1.469 . S
C207 C39 1.373 . S
C219 C56 1.366 . S
C234 C76 1.317 . S
C246 C32 1.403 . S
C261 N8 1.457 . S
C273 N46 1.482 . S
C288 C70 1.332 . S
C300 C40 1.393 . S
