# Generated by pormake.
# Topology uof, (4)-cn, num edge types: 1
# Building blocks:
#     Node 0, Type 0, BuildingBlock: CEKHIL_clean_sbu_0, # of connection points: 4
#     Node 1, Type 0, BuildingBlock: CEKHIL_clean_sbu_0, # of connection points: 4
#     Node 2, Type 0, BuildingBlock: CEKHIL_clean_sbu_0, # of connection points: 4
#     Node 3, Type 0, BuildingBlock: CEKHIL_clean_sbu_0, # of connection points: 4
#     Node 4, Type 0, BuildingBlock: CEKHIL_clean_sbu_0, # of connection points: 4
#     Node 5, Type 0, BuildingBlock: CEKHIL_clean_sbu_0, # of connection points: 4
#     Node 6, Type 0, BuildingBlock: CEKHIL_clean_sbu_0, # of connection points: 4
#     Node 7, Type 0, BuildingBlock: CEKHIL_clean_sbu_0, # of connection points: 4
#     Node 8, Type 0, BuildingBlock: CEKHIL_clean_sbu_0, # of connection points: 4
#     Node 9, Type 0, BuildingBlock: CEKHIL_clean_sbu_0, # of connection points: 4
#     Node 10, Type 0, BuildingBlock: CEKHIL_clean_sbu_0, # of connection points: 4
#     Node 11, Type 0, BuildingBlock: CEKHIL_clean_sbu_0, # of connection points: 4
#     Edge 12, Type (0, 0), BuildingBlock: EYOCIG_clean_linker_4, # of connection points: 2
#     Edge 13, Type (0, 0), BuildingBlock: EYOCIG_clean_linker_4, # of connection points: 2
#     Edge 14, Type (0, 0), BuildingBlock: EYOCIG_clean_linker_4, # of connection points: 2
#     Edge 15, Type (0, 0), BuildingBlock: EYOCIG_clean_linker_4, # of connection points: 2
#     Edge 16, Type (0, 0), BuildingBlock: EYOCIG_clean_linker_4, # of connection points: 2
#     Edge 17, Type (0, 0), BuildingBlock: EYOCIG_clean_linker_4, # of connection points: 2
#     Edge 18, Type (0, 0), BuildingBlock: EYOCIG_clean_linker_4, # of connection points: 2
#     Edge 19, Type (0, 0), BuildingBlock: EYOCIG_clean_linker_4, # of connection points: 2
#     Edge 20, Type (0, 0), BuildingBlock: EYOCIG_clean_linker_4, # of connection points: 2
#     Edge 21, Type (0, 0), BuildingBlock: EYOCIG_clean_linker_4, # of connection points: 2
#     Edge 22, Type (0, 0), BuildingBlock: EYOCIG_clean_linker_4, # of connection points: 2
#     Edge 23, Type (0, 0), BuildingBlock: EYOCIG_clean_linker_4, # of connection points: 2
#     Edge 24, Type (0, 0), BuildingBlock: EYOCIG_clean_linker_4, # of connection points: 2
#     Edge 25, Type (0, 0), BuildingBlock: EYOCIG_clean_linker_4, # of connection points: 2
#     Edge 26, Type (0, 0), BuildingBlock: EYOCIG_clean_linker_4, # of connection points: 2
#     Edge 27, Type (0, 0), BuildingBlock: EYOCIG_clean_linker_4, # of connection points: 2
#     Edge 28, Type (0, 0), BuildingBlock: EYOCIG_clean_linker_4, # of connection points: 2
#     Edge 29, Type (0, 0), BuildingBlock: EYOCIG_clean_linker_4, # of connection points: 2
#     Edge 30, Type (0, 0), BuildingBlock: EYOCIG_clean_linker_4, # of connection points: 2
#     Edge 31, Type (0, 0), BuildingBlock: EYOCIG_clean_linker_4, # of connection points: 2
#     Edge 32, Type (0, 0), BuildingBlock: EYOCIG_clean_linker_4, # of connection points: 2
#     Edge 33, Type (0, 0), BuildingBlock: EYOCIG_clean_linker_4, # of connection points: 2
#     Edge 34, Type (0, 0), BuildingBlock: EYOCIG_clean_linker_4, # of connection points: 2
#     Edge 35, Type (0, 0), BuildingBlock: EYOCIG_clean_linker_4, # of connection points: 2
# Relax obj value: 0.193
# Max RMSD: 0.141
# Mean RMSD: 0.141
data_MOF--net-uof--node1-CEKHIL_clean_sbu_0--edge1-EYOCIG_clean_linker_4
_symmetry_space_group_name_H-M    P1
_symmetry_Int_Tables_number       1
_symmetry_cell_setting            triclinic
loop_
_symmetry_equiv_pos_as_xyz
'x, y, z'
_cell_length_a     25.431761
_cell_length_b     25.403154
_cell_length_c     48.264555
_cell_angle_alpha  89.992419
_cell_angle_beta   90.000891
_cell_angle_gamma 119.95075
loop_
_atom_site_label
_atom_site_type_symbol
_atom_site_fract_x
_atom_site_fract_y
_atom_site_fract_z
_atom_type_partial_charge
Co0 Co 0.22746 0.31567 0.23797 0.0
O1 O 0.13863 0.26523 0.23727 0.0
O2 O 0.19014 0.34731 0.21199 0.0
C3 C 0.24329 0.31565 0.28438 0.0
O4 O 0.31922 0.37954 0.23291 0.0
Co5 Co 0.30909 0.26305 0.2598 0.0
O6 O 0.37744 0.34607 0.25316 0.0
C7 C 0.22719 0.21223 0.21224 0.0
C8 C 0.13786 0.29973 0.21759 0.0
C9 C 0.37151 0.3867 0.24044 0.0
O10 O 0.22949 0.26304 0.20796 0.0
O11 O 0.25092 0.20125 0.23316 0.0
O12 O 0.22779 0.35363 0.27418 0.0
O13 O 0.24244 0.2771 0.26721 0.0
Co14 Co 0.91934 0.22348 0.57162 0.0
O15 O 0.88088 0.13455 0.57085 0.0
O16 O 0.8506 0.18637 0.54558 0.0
C17 C 0.93499 0.23918 0.61804 0.0
O18 O 0.9473 0.31535 0.56659 0.0
Co19 Co 0.05332 0.30502 0.59358 0.0
O20 O 0.0388 0.37354 0.5869 0.0
C21 C 0.0225 0.22324 0.54595 0.0
C22 C 0.8458 0.13397 0.55115 0.0
C23 C 0.99236 0.36766 0.57414 0.0
O24 O 0.97403 0.22552 0.54165 0.0
O25 O 0.05707 0.24691 0.56689 0.0
O26 O 0.88165 0.22378 0.6078 0.0
O27 O 0.97268 0.2383 0.6009 0.0
Co28 Co 0.70397 0.91615 0.90501 0.0
O29 O 0.75425 0.87748 0.90433 0.0
O30 O 0.67239 0.84736 0.87898 0.0
C31 C 0.70372 0.93184 0.95142 0.0
O32 O 0.64028 0.9443 0.89991 0.0
Co33 Co 0.75648 0.05032 0.92693 0.0
O34 O 0.67359 0.03591 0.92022 0.0
C35 C 0.80754 0.0192 0.87945 0.0
C36 C 0.71985 0.84243 0.88459 0.0
C37 C 0.63309 0.98945 0.90745 0.0
O38 O 0.75677 0.97085 0.87508 0.0
O39 O 0.81839 0.05384 0.90038 0.0
O40 O 0.66581 0.87845 0.94117 0.0
O41 O 0.74237 0.96952 0.93431 0.0
Co42 Co 0.79504 0.69955 0.2381 0.0
O43 O 0.88388 0.7499 0.23742 0.0
O44 O 0.83231 0.66792 0.2121 0.0
C45 C 0.77915 0.69944 0.28451 0.0
O46 O 0.70327 0.63578 0.23301 0.0
Co47 Co 0.71349 0.75222 0.25997 0.0
O48 O 0.64508 0.66926 0.25328 0.0
C49 C 0.79551 0.80317 0.21246 0.0
C50 C 0.88461 0.71544 0.21772 0.0
C51 C 0.65099 0.62865 0.24053 0.0
O52 O 0.79314 0.75235 0.20813 0.0
O53 O 0.77177 0.8141 0.23338 0.0
O54 O 0.7946 0.66145 0.27429 0.0
O55 O 0.78008 0.73807 0.26737 0.0
Co56 Co 0.10255 0.79149 0.57144 0.0
O57 O 0.14106 0.88043 0.57073 0.0
O58 O 0.1714 0.82867 0.54547 0.0
C59 C 0.08667 0.77556 0.61784 0.0
O60 O 0.07456 0.69962 0.56638 0.0
Co61 Co 0.96844 0.70998 0.59325 0.0
O62 O 0.98299 0.64146 0.58665 0.0
C63 C 0.99964 0.79207 0.54572 0.0
C64 C 0.17621 0.88106 0.55105 0.0
C65 C 0.02946 0.64732 0.57393 0.0
O66 O 0.04802 0.78963 0.54143 0.0
O67 O 0.96495 0.76833 0.56663 0.0
O68 O 0.14006 0.791 0.60765 0.0
O69 O 0.04908 0.77658 0.60068 0.0
Co70 Co 0.3191 0.09887 0.90485 0.0
O71 O 0.26845 0.13714 0.90411 0.0
O72 O 0.35075 0.16802 0.879 0.0
C73 C 0.31873 0.08259 0.95123 0.0
O74 O 0.38318 0.07121 0.89984 0.0
Co75 Co 0.2668 0.96446 0.92642 0.0
O76 O 0.3499 0.97933 0.91988 0.0
C77 C 0.21622 0.99594 0.87886 0.0
C78 C 0.30304 0.17257 0.88451 0.0
C79 C 0.39048 0.02606 0.90729 0.0
O80 O 0.26695 0.04447 0.87469 0.0
O81 O 0.20518 0.96104 0.89972 0.0
O82 O 0.35658 0.13617 0.94115 0.0
O83 O 0.28045 0.04503 0.93397 0.0
Co84 Co 0.70338 0.79143 0.44822 0.0
O85 O 0.7538 0.88035 0.44895 0.0
O86 O 0.67182 0.82873 0.47424 0.0
C87 C 0.7033 0.77561 0.4018 0.0
O88 O 0.63954 0.69962 0.45327 0.0
Co89 Co 0.75576 0.70961 0.42633 0.0
O90 O 0.67281 0.64124 0.43299 0.0
C91 C 0.80678 0.79172 0.47384 0.0
C92 C 0.71936 0.88106 0.46866 0.0
C93 C 0.6323 0.64725 0.44573 0.0
O94 O 0.75601 0.78934 0.47818 0.0
O95 O 0.81764 0.76793 0.4529 0.0
O96 O 0.66542 0.79116 0.41203 0.0
O97 O 0.74183 0.77642 0.41895 0.0
Co98 Co 0.91961 0.69988 0.7815 0.0
O99 O 0.88098 0.75021 0.78225 0.0
O100 O 0.85116 0.66841 0.80768 0.0
C101 C 0.93479 0.69939 0.73505 0.0
O102 O 0.94778 0.63614 0.78657 0.0
Co103 Co 0.05336 0.75221 0.75923 0.0
O104 O 0.03902 0.66927 0.76601 0.0
C105 C 0.02297 0.80366 0.80682 0.0
C106 C 0.84614 0.71586 0.80206 0.0
C107 C 0.99277 0.62884 0.77893 0.0
O108 O 0.9746 0.75295 0.81129 0.0
O109 O 0.05732 0.81433 0.7858 0.0
O110 O 0.88158 0.66148 0.74542 0.0
O111 O 0.97261 0.73816 0.75208 0.0
Co112 Co 0.22729 0.9154 0.11501 0.0
O113 O 0.13844 0.87687 0.11574 0.0
O114 O 0.19014 0.84678 0.14117 0.0
C115 C 0.24299 0.93066 0.06857 0.0
O116 O 0.31909 0.94348 0.1201 0.0
Co117 Co 0.30874 0.04934 0.09281 0.0
O118 O 0.37719 0.03488 0.09959 0.0
C119 C 0.22691 0.01886 0.14037 0.0
C120 C 0.1378 0.84189 0.13552 0.0
C121 C 0.37135 0.98853 0.11249 0.0
O122 O 0.22924 0.97042 0.14483 0.0
O123 O 0.25059 0.05328 0.11936 0.0
O124 O 0.22764 0.87736 0.07892 0.0
O125 O 0.24211 0.96854 0.08561 0.0
Co126 Co 0.31883 0.22376 0.44815 0.0
O127 O 0.2684 0.13484 0.4489 0.0
O128 O 0.35031 0.18646 0.47422 0.0
C129 C 0.31902 0.23953 0.40173 0.0
O130 O 0.38268 0.31557 0.4532 0.0
Co131 Co 0.26656 0.30561 0.42615 0.0
O132 O 0.3495 0.37397 0.43285 0.0
C133 C 0.21546 0.22369 0.47372 0.0
C134 C 0.30279 0.13413 0.46863 0.0
C135 C 0.38996 0.36795 0.44564 0.0
O136 O 0.26616 0.22592 0.47808 0.0
O137 O 0.20465 0.24746 0.45276 0.0
O138 O 0.35688 0.22398 0.41199 0.0
O139 O 0.28047 0.23876 0.41884 0.0
Co140 Co 0.10294 0.31515 0.78169 0.0
O141 O 0.14139 0.26465 0.78242 0.0
O142 O 0.17182 0.34682 0.80764 0.0
C143 C 0.08702 0.31507 0.73528 0.0
O144 O 0.07502 0.37909 0.78672 0.0
Co145 Co 0.96882 0.26263 0.75991 0.0
O146 O 0.98339 0.3457 0.76651 0.0
C147 C 1.00006 0.21178 0.80746 0.0
C148 C 0.17657 0.29919 0.80209 0.0
C149 C 0.02991 0.38631 0.7792 0.0
O150 O 0.04843 0.2626 0.81172 0.0
O151 O 0.96535 0.20081 0.78655 0.0
O152 O 0.14043 0.35301 0.74545 0.0
O153 O 0.04943 0.27656 0.75247 0.0
Co154 Co 0.79502 0.09948 0.11507 0.0
O155 O 0.88386 0.13798 0.11575 0.0
O156 O 0.83225 0.16829 0.14111 0.0
C157 C 0.77918 0.08387 0.06865 0.0
O158 O 0.70322 0.07145 0.12016 0.0
Co159 Co 0.71353 0.96537 0.0931 0.0
O160 O 0.6451 0.9799 0.09981 0.0
C161 C 0.79553 0.99627 0.14062 0.0
C162 C 0.88456 0.17311 0.13548 0.0
C163 C 0.65096 0.02635 0.1126 0.0
O164 O 0.79312 0.04469 0.14499 0.0
O165 O 0.77181 0.96168 0.11967 0.0
O166 O 0.79459 0.13726 0.07891 0.0
O167 O 0.78011 0.04612 0.08576 0.0
C168 C 0.98437 0.23441 0.16776 0.0
C169 C 0.93836 0.20703 0.15345 0.0
C170 C 0.03804 0.26124 0.18532 0.0
C171 C 0.08406 0.27987 0.19962 0.0
C172 C 0.78461 0.03431 0.51872 0.0
C173 C 0.81195 0.08025 0.53311 0.0
C174 C 0.75784 0.98077 0.50107 0.0
C175 C 0.73925 0.93481 0.48669 0.0
C176 C 0.75828 0.78116 0.85218 0.0
C177 C 0.73972 0.80855 0.86656 0.0
C178 C 0.78502 0.75437 0.83451 0.0
C179 C 0.81235 0.73578 0.82011 0.0
C180 C 0.98441 0.7539 0.18543 0.0
C181 C 0.93841 0.7353 0.19975 0.0
C182 C 0.03805 0.78069 0.16785 0.0
C183 C 0.08403 0.80803 0.15352 0.0
C184 C 0.26427 0.03439 0.50103 0.0
C185 C 0.28288 0.08036 0.48665 0.0
C186 C 0.23747 0.9808 0.51867 0.0
C187 C 0.21009 0.93482 0.53303 0.0
C188 C 0.26456 0.23388 0.85214 0.0
C189 C 0.28316 0.2065 0.8665 0.0
C190 C 0.23779 0.26069 0.8345 0.0
C191 C 0.21044 0.27931 0.82012 0.0
C192 C 0.54257 0.53103 0.23238 0.0
C193 C 0.59469 0.5726 0.2347 0.0
C194 C 0.47991 0.48439 0.23235 0.0
C195 C 0.42779 0.4428 0.23464 0.0
C196 C 0.01886 0.53882 0.5659 0.0
C197 C 0.02928 0.59097 0.56818 0.0
C198 C 1.003 0.47614 0.56595 0.0
C199 C 0.99258 0.424 0.5683 0.0
C200 C 0.48849 0.01584 0.89928 0.0
C201 C 0.44671 0.02612 0.90156 0.0
C202 C 0.53534 1.00008 0.8993 0.0
C203 C 0.57703 0.98968 0.90164 0.0
C204 C 0.5345 0.53891 0.45382 0.0
C205 C 0.57619 0.591 0.45152 0.0
C206 C 0.48771 0.47628 0.4538 0.0
C207 C 0.44603 0.4242 0.45146 0.0
C208 C 1.00354 0.53109 0.78718 0.0
C209 C 0.99309 0.57279 0.78482 0.0
C210 C 0.01939 0.48426 0.78723 0.0
C211 C 0.02978 0.44251 0.78495 0.0
C212 C 0.47982 0.99944 0.12071 0.0
C213 C 0.42768 0.98885 0.11837 0.0
C214 C 0.5425 0.01551 0.12073 0.0
C215 C 0.59464 0.02608 0.11843 0.0
C216 C 0.17816 0.06608 0.17068 0.0
C217 C 0.19699 0.03701 0.15947 0.0
C218 C 0.17823 0.11653 0.18179 0.0
C219 C 0.19714 0.16436 0.19306 0.0
C220 C 0.06945 0.17464 0.51537 0.0
C221 C 0.04049 0.1934 0.52671 0.0
C222 C 0.11979 0.17477 0.50415 0.0
C223 C 0.16755 0.1937 0.49287 0.0
C224 C 0.95361 0.1161 0.83793 0.0
C225 C 0.9824 0.16392 0.82664 0.0
C226 C 0.9033 0.06577 0.84909 0.0
C227 C 0.85547 0.03696 0.86032 0.0
C228 C 0.84458 0.94942 0.17096 0.0
C229 C 0.82563 0.97836 0.15974 0.0
C230 C 0.84458 0.89899 0.18207 0.0
C231 C 0.82563 0.85112 0.19331 0.0
C232 C 0.90259 0.84103 0.50415 0.0
C233 C 0.85473 0.82196 0.49294 0.0
C234 C 0.95301 0.84115 0.51526 0.0
C235 C 0.9819 0.82221 0.52653 0.0
C236 C 0.12074 0.94972 0.84833 0.0
C237 C 0.16848 0.97841 0.85965 0.0
C238 C 0.0703 0.89953 0.83718 0.0
C239 C 0.0412 0.85169 0.82595 0.0
C240 C 0.31071 0.28549 0.35412 0.0
C241 C 0.32178 0.26399 0.3743 0.0
C242 C 0.28918 0.30711 0.33195 0.0
C243 C 0.26772 0.31826 0.31179 0.0
C244 C 0.98933 0.28506 0.66562 0.0
C245 C 0.95674 0.26361 0.64546 0.0
C246 C 0.03249 0.3066 0.68775 0.0
C247 C 0.06513 0.31771 0.70789 0.0
C248 C 0.73332 0.02952 0.02108 0.0
C249 C 0.75475 0.06214 0.04124 0.0
C250 C 0.71185 0.98632 0.99894 0.0
C251 C 0.70085 0.95367 0.9788 0.0
C252 C 0.73323 0.70794 0.33208 0.0
C253 C 0.75469 0.69678 0.31192 0.0
C254 C 0.71169 0.72958 0.35423 0.0
C255 C 0.7006 0.75111 0.3744 0.0
C256 C 0.03208 0.72925 0.66533 0.0
C257 C 0.06475 0.75088 0.64521 0.0
C258 C 0.98888 0.70756 0.68745 0.0
C259 C 0.95633 0.69645 0.70762 0.0
C260 C 0.28869 0.98472 0.02092 0.0
C261 C 0.26733 0.9522 0.04112 0.0
C262 C 0.31013 0.02788 0.99876 0.0
C263 C 0.32122 0.06056 0.97862 0.0
loop_
_geom_bond_atom_site_label_1
_geom_bond_atom_site_label_2
_geom_bond_distance
_geom_bond_site_symmetry_2
_ccdc_geom_bond_type
Co0 O1 2.216 . S
Co0 O2 2.091 . S
Co0 O4 2.004 . S
Co0 O10 2.021 . S
Co0 O12 2.137 . S
Co0 O13 2.244 . S
O1 Co0 2.216 . S
O1 C8 1.247 . S
O2 Co0 2.091 . S
O2 C8 1.261 . S
C3 O12 1.247 . S
C3 O13 1.272 . S
O4 Co0 2.004 . S
O4 C9 1.259 . S
Co5 O6 2.061 . S
Co5 O11 2.052 . S
Co5 O13 2.135 . S
O6 Co5 2.061 . S
O6 C9 1.235 . S
C7 O10 1.238 . S
C7 O11 1.241 . S
C8 O1 1.247 . S
C8 O2 1.261 . S
C9 O4 1.259 . S
C9 O6 1.235 . S
O10 Co0 2.021 . S
O10 C7 1.238 . S
O11 Co5 2.052 . S
O11 C7 1.241 . S
O12 Co0 2.137 . S
O12 C3 1.247 . S
O13 Co0 2.244 . S
O13 C3 1.272 . S
O13 Co5 2.135 . S
Co14 O15 2.216 . S
Co14 O16 2.091 . S
Co14 O18 2.004 . S
Co14 O24 2.021 . S
Co14 O26 2.137 . S
Co14 O27 2.244 . S
O15 Co14 2.216 . S
O15 C22 1.247 . S
O16 Co14 2.091 . S
O16 C22 1.261 . S
C17 O26 1.247 . S
C17 O27 1.272 . S
O18 Co14 2.004 . S
O18 C23 1.259 . S
Co19 O20 2.061 . S
Co19 O25 2.052 . S
Co19 O27 2.135 1_455 S
O20 Co19 2.061 . S
O20 C23 1.235 1_455 S
C21 O24 1.238 1_455 S
C21 O25 1.241 . S
C22 O15 1.247 . S
C22 O16 1.261 . S
C23 O18 1.259 . S
C23 O20 1.235 1_655 S
O24 Co14 2.021 . S
O24 C21 1.238 1_655 S
O25 Co19 2.052 . S
O25 C21 1.241 . S
O26 Co14 2.137 . S
O26 C17 1.247 . S
O27 Co14 2.244 . S
O27 C17 1.272 . S
O27 Co19 2.135 1_655 S
Co28 O29 2.216 . S
Co28 O30 2.091 . S
Co28 O32 2.004 . S
Co28 O38 2.021 . S
Co28 O40 2.137 . S
Co28 O41 2.244 . S
O29 Co28 2.216 . S
O29 C36 1.247 . S
O30 Co28 2.091 . S
O30 C36 1.261 . S
C31 O40 1.247 . S
C31 O41 1.272 . S
O32 Co28 2.004 . S
O32 C37 1.259 . S
Co33 O34 2.061 . S
Co33 O39 2.052 . S
Co33 O41 2.135 1_545 S
O34 Co33 2.061 . S
O34 C37 1.235 1_545 S
C35 O38 1.238 1_545 S
C35 O39 1.241 . S
C36 O29 1.247 . S
C36 O30 1.261 . S
C37 O32 1.259 . S
C37 O34 1.235 1_565 S
O38 Co28 2.021 . S
O38 C35 1.238 1_565 S
O39 Co33 2.052 . S
O39 C35 1.241 . S
O40 Co28 2.137 . S
O40 C31 1.247 . S
O41 Co28 2.244 . S
O41 C31 1.272 . S
O41 Co33 2.135 1_565 S
Co42 O43 2.216 . S
Co42 O44 2.091 . S
Co42 O46 2.004 . S
Co42 O52 2.021 . S
Co42 O54 2.137 . S
Co42 O55 2.244 . S
O43 Co42 2.216 . S
O43 C50 1.247 . S
O44 Co42 2.091 . S
O44 C50 1.261 . S
C45 O54 1.247 . S
C45 O55 1.272 . S
O46 Co42 2.004 . S
O46 C51 1.259 . S
Co47 O48 2.061 . S
Co47 O53 2.052 . S
Co47 O55 2.135 . S
O48 Co47 2.061 . S
O48 C51 1.235 . S
C49 O52 1.238 . S
C49 O53 1.241 . S
C50 O43 1.247 . S
C50 O44 1.261 . S
C51 O46 1.259 . S
C51 O48 1.235 . S
O52 Co42 2.021 . S
O52 C49 1.238 . S
O53 Co47 2.052 . S
O53 C49 1.241 . S
O54 Co42 2.137 . S
O54 C45 1.247 . S
O55 Co42 2.244 . S
O55 C45 1.272 . S
O55 Co47 2.135 . S
Co56 O57 2.216 . S
Co56 O58 2.091 . S
Co56 O60 2.004 . S
Co56 O66 2.021 . S
Co56 O68 2.137 . S
Co56 O69 2.244 . S
O57 Co56 2.216 . S
O57 C64 1.247 . S
O58 Co56 2.091 . S
O58 C64 1.261 . S
C59 O68 1.247 . S
C59 O69 1.272 . S
O60 Co56 2.004 . S
O60 C65 1.259 . S
Co61 O62 2.061 . S
Co61 O67 2.052 . S
Co61 O69 2.135 1_655 S
O62 Co61 2.061 . S
O62 C65 1.235 1_655 S
C63 O66 1.238 1_655 S
C63 O67 1.241 . S
C64 O57 1.247 . S
C64 O58 1.261 . S
C65 O60 1.259 . S
C65 O62 1.235 1_455 S
O66 Co56 2.021 . S
O66 C63 1.238 1_455 S
O67 Co61 2.052 . S
O67 C63 1.241 . S
O68 Co56 2.137 . S
O68 C59 1.247 . S
O69 Co56 2.244 . S
O69 C59 1.272 . S
O69 Co61 2.135 1_455 S
Co70 O71 2.216 . S
Co70 O72 2.091 . S
Co70 O74 2.004 . S
Co70 O80 2.021 . S
Co70 O82 2.137 . S
Co70 O83 2.244 . S
O71 Co70 2.216 . S
O71 C78 1.247 . S
O72 Co70 2.091 . S
O72 C78 1.261 . S
C73 O82 1.247 . S
C73 O83 1.272 . S
O74 Co70 2.004 . S
O74 C79 1.259 . S
Co75 O76 2.061 . S
Co75 O81 2.052 . S
Co75 O83 2.135 1_565 S
O76 Co75 2.061 . S
O76 C79 1.235 1_565 S
C77 O80 1.238 1_565 S
C77 O81 1.241 . S
C78 O71 1.247 . S
C78 O72 1.261 . S
C79 O74 1.259 . S
C79 O76 1.235 1_545 S
O80 Co70 2.021 . S
O80 C77 1.238 1_545 S
O81 Co75 2.052 . S
O81 C77 1.241 . S
O82 Co70 2.137 . S
O82 C73 1.247 . S
O83 Co70 2.244 . S
O83 C73 1.272 . S
O83 Co75 2.135 1_545 S
Co84 O85 2.216 . S
Co84 O86 2.091 . S
Co84 O88 2.004 . S
Co84 O94 2.021 . S
Co84 O96 2.137 . S
Co84 O97 2.244 . S
O85 Co84 2.216 . S
O85 C92 1.247 . S
O86 Co84 2.091 . S
O86 C92 1.261 . S
C87 O96 1.247 . S
C87 O97 1.272 . S
O88 Co84 2.004 . S
O88 C93 1.259 . S
Co89 O90 2.061 . S
Co89 O95 2.052 . S
Co89 O97 2.135 . S
O90 Co89 2.061 . S
O90 C93 1.235 . S
C91 O94 1.238 . S
C91 O95 1.241 . S
C92 O85 1.247 . S
C92 O86 1.261 . S
C93 O88 1.259 . S
C93 O90 1.235 . S
O94 Co84 2.021 . S
O94 C91 1.238 . S
O95 Co89 2.052 . S
O95 C91 1.241 . S
O96 Co84 2.137 . S
O96 C87 1.247 . S
O97 Co84 2.244 . S
O97 C87 1.272 . S
O97 Co89 2.135 . S
Co98 O99 2.216 . S
Co98 O100 2.091 . S
Co98 O102 2.004 . S
Co98 O108 2.021 . S
Co98 O110 2.137 . S
Co98 O111 2.244 . S
O99 Co98 2.216 . S
O99 C106 1.247 . S
O100 Co98 2.091 . S
O100 C106 1.261 . S
C101 O110 1.247 . S
C101 O111 1.272 . S
O102 Co98 2.004 . S
O102 C107 1.259 . S
Co103 O104 2.061 . S
Co103 O109 2.052 . S
Co103 O111 2.135 1_455 S
O104 Co103 2.061 . S
O104 C107 1.235 1_455 S
C105 O108 1.238 1_455 S
C105 O109 1.241 . S
C106 O99 1.247 . S
C106 O100 1.261 . S
C107 O102 1.259 . S
C107 O104 1.235 1_655 S
O108 Co98 2.021 . S
O108 C105 1.238 1_655 S
O109 Co103 2.052 . S
O109 C105 1.241 . S
O110 Co98 2.137 . S
O110 C101 1.247 . S
O111 Co98 2.244 . S
O111 C101 1.272 . S
O111 Co103 2.135 1_655 S
Co112 O113 2.216 . S
Co112 O114 2.091 . S
Co112 O116 2.004 . S
Co112 O122 2.021 . S
Co112 O124 2.137 . S
Co112 O125 2.244 . S
O113 Co112 2.216 . S
O113 C120 1.247 . S
O114 Co112 2.091 . S
O114 C120 1.261 . S
C115 O124 1.247 . S
C115 O125 1.272 . S
O116 Co112 2.004 . S
O116 C121 1.259 . S
Co117 O118 2.061 . S
Co117 O123 2.052 . S
Co117 O125 2.135 1_545 S
O118 Co117 2.061 . S
O118 C121 1.235 1_545 S
C119 O122 1.238 1_545 S
C119 O123 1.241 . S
C120 O113 1.247 . S
C120 O114 1.261 . S
C121 O116 1.259 . S
C121 O118 1.235 1_565 S
O122 Co112 2.021 . S
O122 C119 1.238 1_565 S
O123 Co117 2.052 . S
O123 C119 1.241 . S
O124 Co112 2.137 . S
O124 C115 1.247 . S
O125 Co112 2.244 . S
O125 C115 1.272 . S
O125 Co117 2.135 1_565 S
Co126 O127 2.216 . S
Co126 O128 2.091 . S
Co126 O130 2.004 . S
Co126 O136 2.021 . S
Co126 O138 2.137 . S
Co126 O139 2.244 . S
O127 Co126 2.216 . S
O127 C134 1.247 . S
O128 Co126 2.091 . S
O128 C134 1.261 . S
C129 O138 1.247 . S
C129 O139 1.272 . S
O130 Co126 2.004 . S
O130 C135 1.259 . S
Co131 O132 2.061 . S
Co131 O137 2.052 . S
Co131 O139 2.135 . S
O132 Co131 2.061 . S
O132 C135 1.235 . S
C133 O136 1.238 . S
C133 O137 1.241 . S
C134 O127 1.247 . S
C134 O128 1.261 . S
C135 O130 1.259 . S
C135 O132 1.235 . S
O136 Co126 2.021 . S
O136 C133 1.238 . S
O137 Co131 2.052 . S
O137 C133 1.241 . S
O138 Co126 2.137 . S
O138 C129 1.247 . S
O139 Co126 2.244 . S
O139 C129 1.272 . S
O139 Co131 2.135 . S
Co140 O141 2.216 . S
Co140 O142 2.091 . S
Co140 O144 2.004 . S
Co140 O150 2.021 . S
Co140 O152 2.137 . S
Co140 O153 2.244 . S
O141 Co140 2.216 . S
O141 C148 1.247 . S
O142 Co140 2.091 . S
O142 C148 1.261 . S
C143 O152 1.247 . S
C143 O153 1.272 . S
O144 Co140 2.004 . S
O144 C149 1.259 . S
Co145 O146 2.061 . S
Co145 O151 2.052 . S
Co145 O153 2.135 1_655 S
O146 Co145 2.061 . S
O146 C149 1.235 1_655 S
C147 O150 1.238 1_655 S
C147 O151 1.241 . S
C148 O141 1.247 . S
C148 O142 1.261 . S
C149 O144 1.259 . S
C149 O146 1.235 1_455 S
O150 Co140 2.021 . S
O150 C147 1.238 1_455 S
O151 Co145 2.052 . S
O151 C147 1.241 . S
O152 Co140 2.137 . S
O152 C143 1.247 . S
O153 Co140 2.244 . S
O153 C143 1.272 . S
O153 Co145 2.135 1_455 S
Co154 O155 2.216 . S
Co154 O156 2.091 . S
Co154 O158 2.004 . S
Co154 O164 2.021 . S
Co154 O166 2.137 . S
Co154 O167 2.244 . S
O155 Co154 2.216 . S
O155 C162 1.247 . S
O156 Co154 2.091 . S
O156 C162 1.261 . S
C157 O166 1.247 . S
C157 O167 1.272 . S
O158 Co154 2.004 . S
O158 C163 1.259 . S
Co159 O160 2.061 . S
Co159 O165 2.052 . S
Co159 O167 2.135 1_565 S
O160 Co159 2.061 . S
O160 C163 1.235 1_565 S
C161 O164 1.238 1_565 S
C161 O165 1.241 . S
C162 O155 1.247 . S
C162 O156 1.261 . S
C163 O158 1.259 . S
C163 O160 1.235 1_545 S
O164 Co154 2.021 . S
O164 C161 1.238 1_545 S
O165 Co159 2.052 . S
O165 C161 1.241 . S
O166 Co154 2.137 . S
O166 C157 1.247 . S
O167 Co154 2.244 . S
O167 C157 1.272 . S
O167 Co159 2.135 1_545 S
C168 C169 1.170 . S
C168 C170 1.380 1_655 S
C169 C168 1.170 . S
C170 C168 1.380 1_455 S
C170 C171 1.170 . S
C171 C170 1.170 . S
C172 C173 1.170 . S
C172 C174 1.380 1_545 S
C173 C172 1.170 . S
C174 C172 1.380 1_565 S
C174 C175 1.170 . S
C175 C174 1.170 . S
C176 C177 1.170 . S
C176 C178 1.380 . S
C177 C176 1.170 . S
C178 C176 1.380 . S
C178 C179 1.170 . S
C179 C178 1.170 . S
C180 C181 1.170 . S
C180 C182 1.380 1_655 S
C181 C180 1.170 . S
C182 C180 1.380 1_455 S
C182 C183 1.170 . S
C183 C182 1.170 . S
C184 C185 1.170 . S
C184 C186 1.380 1_545 S
C185 C184 1.170 . S
C186 C184 1.380 1_565 S
C186 C187 1.170 . S
C187 C186 1.170 . S
C188 C189 1.170 . S
C188 C190 1.380 . S
C189 C188 1.170 . S
C190 C188 1.380 . S
C190 C191 1.170 . S
C191 C190 1.170 . S
C192 C193 1.170 . S
C192 C194 1.380 . S
C193 C192 1.170 . S
C194 C192 1.380 . S
C194 C195 1.170 . S
C195 C194 1.170 . S
C196 C197 1.170 . S
C196 C198 1.380 1_455 S
C197 C196 1.170 . S
C198 C196 1.380 1_655 S
C198 C199 1.170 . S
C199 C198 1.170 . S
C200 C201 1.170 . S
C200 C202 1.380 1_545 S
C201 C200 1.170 . S
C202 C200 1.380 1_565 S
C202 C203 1.170 . S
C203 C202 1.170 . S
C204 C205 1.170 . S
C204 C206 1.380 . S
C205 C204 1.170 . S
C206 C204 1.380 . S
C206 C207 1.170 . S
C207 C206 1.170 . S
C208 C209 1.170 . S
C208 C210 1.380 1_655 S
C209 C208 1.170 . S
C210 C208 1.380 1_455 S
C210 C211 1.170 . S
C211 C210 1.170 . S
C212 C213 1.170 . S
C212 C214 1.380 1_565 S
C213 C212 1.170 . S
C214 C212 1.380 1_545 S
C214 C215 1.170 . S
C215 C214 1.170 . S
C216 C217 1.170 . S
C216 C218 1.380 . S
C217 C216 1.170 . S
C218 C216 1.380 . S
C218 C219 1.170 . S
C219 C218 1.170 . S
C220 C221 1.170 . S
C220 C222 1.380 . S
C221 C220 1.170 . S
C222 C220 1.380 . S
C222 C223 1.170 . S
C223 C222 1.170 . S
C224 C225 1.170 . S
C224 C226 1.380 . S
C225 C224 1.170 . S
C226 C224 1.380 . S
C226 C227 1.170 . S
C227 C226 1.170 . S
C228 C229 1.170 . S
C228 C230 1.380 . S
C229 C228 1.170 . S
C230 C228 1.380 . S
C230 C231 1.170 . S
C231 C230 1.170 . S
C232 C233 1.170 . S
C232 C234 1.380 . S
C233 C232 1.170 . S
C234 C232 1.380 . S
C234 C235 1.170 . S
C235 C234 1.170 . S
C236 C237 1.170 . S
C236 C238 1.380 . S
C237 C236 1.170 . S
C238 C236 1.380 . S
C238 C239 1.170 . S
C239 C238 1.170 . S
C240 C241 1.170 . S
C240 C242 1.380 . S
C241 C240 1.170 . S
C242 C240 1.380 . S
C242 C243 1.170 . S
C243 C242 1.170 . S
C244 C245 1.170 . S
C244 C246 1.380 1_655 S
C245 C244 1.170 . S
C246 C244 1.380 1_455 S
C246 C247 1.170 . S
C247 C246 1.170 . S
C248 C249 1.170 . S
C248 C250 1.380 1_544 S
C249 C248 1.170 . S
C250 C248 1.380 1_566 S
C250 C251 1.170 . S
C251 C250 1.170 . S
C252 C253 1.170 . S
C252 C254 1.380 . S
C253 C252 1.170 . S
C254 C252 1.380 . S
C254 C255 1.170 . S
C255 C254 1.170 . S
C256 C257 1.170 . S
C256 C258 1.380 1_455 S
C257 C256 1.170 . S
C258 C256 1.380 1_655 S
C258 C259 1.170 . S
C259 C258 1.170 . S
C260 C261 1.170 . S
C260 C262 1.380 1_564 S
C261 C260 1.170 . S
C262 C260 1.380 1_546 S
C262 C263 1.170 . S
C263 C262 1.170 . S
C169 C162 1.680 . S
C171 C8 1.665 . S
C173 C22 1.678 . S
C175 C92 1.665 . S
C177 C36 1.681 . S
C179 C106 1.672 . S
C181 C50 1.668 . S
C183 C120 1.674 . S
C185 C134 1.665 . S
C187 C64 1.683 . S
C189 C78 1.669 . S
C191 C148 1.673 . S
C193 C51 1.297 . S
C195 C9 1.279 . S
C197 C65 1.295 . S
C199 C23 1.268 . S
C201 C79 1.251 . S
C203 C37 1.280 . S
C205 C93 1.281 . S
C207 C135 1.252 . S
C209 C107 1.284 . S
C211 C149 1.295 . S
C213 C121 1.263 . S
C215 C163 1.251 . S
C217 C119 0.703 . S
C219 C7 0.759 . S
C221 C21 0.743 . S
C223 C133 0.708 . S
C225 C147 0.774 . S
C227 C35 0.704 . S
C229 C161 0.704 . S
C231 C49 0.756 . S
C233 C91 0.728 . S
C235 C63 0.718 . S
C237 C77 0.743 . S
C239 C105 0.709 . S
C241 C129 1.657 . S
C243 C3 1.676 . S
C245 C17 1.656 . S
C247 C143 1.677 . S
C249 C157 1.661 . S
C251 C31 1.666 . S
C253 C45 1.677 . S
C255 C87 1.655 . S
C257 C59 1.654 . S
C259 C101 1.676 . S
C261 C115 1.675 . S
C263 C73 1.654 . S
