# Generated by pormake.
# Topology ukf, (4)-cn, num edge types: 1
# Building blocks:
#     Node 0, Type 0, BuildingBlock: CEKHIL_clean_sbu_0, # of connection points: 4
#     Node 1, Type 0, BuildingBlock: CEKHIL_clean_sbu_0, # of connection points: 4
#     Node 2, Type 0, BuildingBlock: CEKHIL_clean_sbu_0, # of connection points: 4
#     Node 3, Type 0, BuildingBlock: CEKHIL_clean_sbu_0, # of connection points: 4
#     Node 4, Type 0, BuildingBlock: CEKHIL_clean_sbu_0, # of connection points: 4
#     Node 5, Type 0, BuildingBlock: CEKHIL_clean_sbu_0, # of connection points: 4
#     Node 6, Type 0, BuildingBlock: CEKHIL_clean_sbu_0, # of connection points: 4
#     Node 7, Type 0, BuildingBlock: CEKHIL_clean_sbu_0, # of connection points: 4
#     Node 8, Type 0, BuildingBlock: CEKHIL_clean_sbu_0, # of connection points: 4
#     Node 9, Type 0, BuildingBlock: CEKHIL_clean_sbu_0, # of connection points: 4
#     Node 10, Type 0, BuildingBlock: CEKHIL_clean_sbu_0, # of connection points: 4
#     Node 11, Type 0, BuildingBlock: CEKHIL_clean_sbu_0, # of connection points: 4
#     Edge 12, Type (0, 0), BuildingBlock: UVAHIK_clean_linker_0, # of connection points: 2
#     Edge 13, Type (0, 0), BuildingBlock: UVAHIK_clean_linker_0, # of connection points: 2
#     Edge 14, Type (0, 0), BuildingBlock: UVAHIK_clean_linker_0, # of connection points: 2
#     Edge 15, Type (0, 0), BuildingBlock: UVAHIK_clean_linker_0, # of connection points: 2
#     Edge 16, Type (0, 0), BuildingBlock: UVAHIK_clean_linker_0, # of connection points: 2
#     Edge 17, Type (0, 0), BuildingBlock: UVAHIK_clean_linker_0, # of connection points: 2
#     Edge 18, Type (0, 0), BuildingBlock: UVAHIK_clean_linker_0, # of connection points: 2
#     Edge 19, Type (0, 0), BuildingBlock: UVAHIK_clean_linker_0, # of connection points: 2
#     Edge 20, Type (0, 0), BuildingBlock: UVAHIK_clean_linker_0, # of connection points: 2
#     Edge 21, Type (0, 0), BuildingBlock: UVAHIK_clean_linker_0, # of connection points: 2
#     Edge 22, Type (0, 0), BuildingBlock: UVAHIK_clean_linker_0, # of connection points: 2
#     Edge 23, Type (0, 0), BuildingBlock: UVAHIK_clean_linker_0, # of connection points: 2
#     Edge 24, Type (0, 0), BuildingBlock: UVAHIK_clean_linker_0, # of connection points: 2
#     Edge 25, Type (0, 0), BuildingBlock: UVAHIK_clean_linker_0, # of connection points: 2
#     Edge 26, Type (0, 0), BuildingBlock: UVAHIK_clean_linker_0, # of connection points: 2
#     Edge 27, Type (0, 0), BuildingBlock: UVAHIK_clean_linker_0, # of connection points: 2
#     Edge 28, Type (0, 0), BuildingBlock: UVAHIK_clean_linker_0, # of connection points: 2
#     Edge 29, Type (0, 0), BuildingBlock: UVAHIK_clean_linker_0, # of connection points: 2
#     Edge 30, Type (0, 0), BuildingBlock: UVAHIK_clean_linker_0, # of connection points: 2
#     Edge 31, Type (0, 0), BuildingBlock: UVAHIK_clean_linker_0, # of connection points: 2
#     Edge 32, Type (0, 0), BuildingBlock: UVAHIK_clean_linker_0, # of connection points: 2
#     Edge 33, Type (0, 0), BuildingBlock: UVAHIK_clean_linker_0, # of connection points: 2
#     Edge 34, Type (0, 0), BuildingBlock: UVAHIK_clean_linker_0, # of connection points: 2
#     Edge 35, Type (0, 0), BuildingBlock: UVAHIK_clean_linker_0, # of connection points: 2
# Relax obj value: 0.106
# Max RMSD: 0.082
# Mean RMSD: 0.082
data_MOF--net-ukf--node1-CEKHIL_clean_sbu_0--edge1-UVAHIK_clean_linker_0
_symmetry_space_group_name_H-M    P1
_symmetry_Int_Tables_number       1
_symmetry_cell_setting            triclinic
loop_
_symmetry_equiv_pos_as_xyz
'x, y, z'
_cell_length_a     41.794385
_cell_length_b     41.81701
_cell_length_c     81.998164
_cell_angle_alpha  89.966602
_cell_angle_beta   90.007005
_cell_angle_gamma 120.03844
loop_
_atom_site_label
_atom_site_type_symbol
_atom_site_fract_x
_atom_site_fract_y
_atom_site_fract_z
_atom_type_partial_charge
Co0 Co 0.42763 0.24856 0.04529 0.0
O1 O 0.46355 0.2975 0.05219 0.0
O2 O 0.40877 0.28254 0.0422 0.0
C3 C 0.46863 0.23953 0.03112 0.0
O4 O 0.38432 0.2003 0.03628 0.0
Co5 Co 0.43783 0.18214 0.05573 0.0
O6 O 0.39775 0.15469 0.03989 0.0
C7 C 0.40463 0.21213 0.07863 0.0
C8 C 0.4407 0.30816 0.04769 0.0
C9 C 0.37739 0.16677 0.03427 0.0
O10 O 0.40633 0.2357 0.06805 0.0
O11 O 0.41709 0.19011 0.07627 0.0
O12 O 0.45342 0.25683 0.02445 0.0
O13 O 0.46062 0.23073 0.04623 0.0
Co14 Co 0.18016 0.42085 0.37831 0.0
O15 O 0.16766 0.45686 0.38556 0.0
O16 O 0.12676 0.4012 0.37684 0.0
C17 C 0.22765 0.46127 0.36263 0.0
O18 O 0.18458 0.3772 0.36928 0.0
Co19 Co 0.25916 0.43379 0.38651 0.0
O20 O 0.2444 0.39205 0.37147 0.0
C21 C 0.19965 0.40187 0.41132 0.0
C22 C 0.13359 0.43347 0.38207 0.0
C23 C 0.21129 0.37054 0.36684 0.0
O24 O 0.17574 0.40169 0.40133 0.0
O25 O 0.23387 0.41505 0.40792 0.0
O26 O 0.19414 0.44525 0.35697 0.0
O27 O 0.23081 0.45435 0.37764 0.0
Co28 Co 0.76229 0.17973 0.71271 0.0
O29 O 0.71511 0.16664 0.72207 0.0
O30 O 0.72759 0.12712 0.70985 0.0
C31 C 0.7679 0.22974 0.69972 0.0
O32 O 0.80784 0.18405 0.70102 0.0
Co33 Co 0.83218 0.25569 0.72015 0.0
O34 O 0.85158 0.24426 0.70041 0.0
C35 C 0.80658 0.19388 0.74385 0.0
C36 C 0.70332 0.1333 0.71695 0.0
C37 C 0.83877 0.21102 0.69579 0.0
O38 O 0.7801 0.17159 0.7344 0.0
O39 O 0.82873 0.22796 0.74057 0.0
O40 O 0.74938 0.1973 0.69307 0.0
O41 O 0.78075 0.23066 0.7141 0.0
Co42 Co 0.57132 0.75677 0.04884 0.0
O43 O 0.53698 0.7072 0.05552 0.0
O44 O 0.59393 0.72562 0.04741 0.0
C45 C 0.53058 0.76195 0.0326 0.0
O46 O 0.61345 0.80653 0.04046 0.0
Co47 Co 0.55181 0.81823 0.0574 0.0
O48 O 0.59581 0.84916 0.04389 0.0
C49 C 0.58289 0.79094 0.08267 0.0
C50 C 0.56195 0.6986 0.05216 0.0
C51 C 0.61873 0.83962 0.03892 0.0
O52 O 0.58864 0.77138 0.07216 0.0
O53 O 0.56559 0.80816 0.07931 0.0
O54 O 0.54866 0.74645 0.02709 0.0
O55 O 0.53554 0.77076 0.04777 0.0
Co56 Co 0.82454 0.5745 0.37991 0.0
O57 O 0.83702 0.54006 0.38933 0.0
O58 O 0.87797 0.5947 0.37959 0.0
C59 C 0.77888 0.53165 0.36423 0.0
O60 O 0.82077 0.61643 0.3686 0.0
Co61 Co 0.74486 0.56254 0.38448 0.0
O62 O 0.76006 0.59728 0.36593 0.0
C63 C 0.79992 0.59449 0.41127 0.0
C64 C 0.8712 0.56325 0.38585 0.0
C65 C 0.79389 0.61966 0.36267 0.0
O66 O 0.82597 0.59633 0.40213 0.0
O67 O 0.76617 0.57972 0.40668 0.0
O68 O 0.81291 0.54723 0.35925 0.0
O69 O 0.77414 0.54066 0.37865 0.0
Co70 Co 0.25285 0.82931 0.71849 0.0
O71 O 0.3006 0.84938 0.72847 0.0
O72 O 0.28403 0.88131 0.71263 0.0
C73 C 0.25221 0.7782 0.70946 0.0
O74 O 0.20543 0.81623 0.70569 0.0
Co75 Co 0.188 0.75291 0.72981 0.0
O76 O 0.16814 0.75476 0.7082 0.0
C77 C 0.207 0.82096 0.74854 0.0
C78 C 0.30982 0.88019 0.72113 0.0
C79 C 0.17675 0.78544 0.70143 0.0
O80 O 0.23298 0.84164 0.73852 0.0
O81 O 0.18747 0.78577 0.74737 0.0
O82 O 0.26842 0.80846 0.70098 0.0
O83 O 0.23903 0.78036 0.72335 0.0
Co84 Co 0.76001 0.58147 0.61142 0.0
O85 O 0.71213 0.54755 0.60264 0.0
O86 O 0.72657 0.60108 0.61385 0.0
C87 C 0.7648 0.53753 0.6253 0.0
O88 O 0.80672 0.62268 0.62244 0.0
Co89 Co 0.82738 0.57081 0.60356 0.0
O90 O 0.85126 0.60719 0.62121 0.0
C91 C 0.80277 0.60732 0.57959 0.0
C92 C 0.70139 0.57021 0.60733 0.0
C93 C 0.83895 0.62778 0.62623 0.0
O94 O 0.77765 0.60555 0.5893 0.0
O95 O 0.82331 0.59349 0.58281 0.0
O96 O 0.74716 0.55271 0.63163 0.0
O97 O 0.77679 0.54764 0.61067 0.0
Co98 Co 0.1768 0.75628 0.94202 0.0
O99 O 0.1593 0.70703 0.93423 0.0
O100 O 0.12464 0.72425 0.94763 0.0
C101 C 0.22885 0.7622 0.9531 0.0
O102 O 0.18731 0.80567 0.95217 0.0
Co103 Co 0.25246 0.81921 0.92837 0.0
O104 O 0.24527 0.84914 0.94496 0.0
C105 C 0.1839 0.79266 0.90907 0.0
C106 C 0.12758 0.69783 0.94063 0.0
C107 C 0.21516 0.839 0.95263 0.0
O108 O 0.16383 0.77048 0.92047 0.0
O109 O 0.21915 0.81233 0.90961 0.0
O110 O 0.19809 0.7463 0.96124 0.0
O111 O 0.22649 0.77119 0.93831 0.0
Co112 Co 0.42201 0.1741 0.27697 0.0
O113 O 0.4559 0.16102 0.26738 0.0
O114 O 0.40296 0.1211 0.2789 0.0
C115 C 0.46649 0.22247 0.29082 0.0
O116 O 0.38056 0.17825 0.28857 0.0
Co117 Co 0.43011 0.25147 0.2709 0.0
O118 O 0.39765 0.2385 0.29016 0.0
C119 C 0.39409 0.19194 0.24612 0.0
C120 C 0.43356 0.12733 0.2719 0.0
C121 C 0.37643 0.20489 0.29408 0.0
O122 O 0.39725 0.16847 0.25518 0.0
O123 O 0.40653 0.22581 0.24999 0.0
O124 O 0.45178 0.18937 0.29686 0.0
O125 O 0.45522 0.22497 0.2765 0.0
Co126 Co 0.25153 0.4358 0.61439 0.0
O127 O 0.30168 0.4721 0.60957 0.0
O128 O 0.28317 0.41356 0.61469 0.0
C129 C 0.24332 0.47187 0.63237 0.0
O130 O 0.20091 0.39151 0.62049 0.0
Co131 Co 0.19088 0.45693 0.60629 0.0
O132 O 0.15848 0.40961 0.61745 0.0
C133 C 0.22426 0.4351 0.57996 0.0
C134 C 0.31037 0.44673 0.61155 0.0
C135 C 0.16752 0.38572 0.62149 0.0
O136 O 0.24045 0.4247 0.59034 0.0
O137 O 0.20709 0.45207 0.58401 0.0
O138 O 0.25857 0.45298 0.63715 0.0
O139 O 0.23664 0.47041 0.61703 0.0
Co140 Co 0.82666 0.24465 0.94387 0.0
O141 O 0.84046 0.29308 0.93586 0.0
O142 O 0.87895 0.27905 0.94802 0.0
C143 C 0.77507 0.23638 0.95639 0.0
O144 O 0.82113 0.19737 0.95431 0.0
Co145 Co 0.75147 0.17666 0.93323 0.0
O146 O 0.76227 0.15129 0.95082 0.0
C147 C 0.81646 0.20622 0.91126 0.0
C148 C 0.87334 0.30422 0.94145 0.0
C149 C 0.79437 0.16418 0.95694 0.0
O150 O 0.8375 0.23046 0.92183 0.0
O151 O 0.78185 0.18406 0.91329 0.0
O152 O 0.80683 0.25419 0.96369 0.0
O153 O 0.77586 0.22634 0.94162 0.0
Co154 Co 0.58349 0.82659 0.2787 0.0
O155 O 0.55294 0.84226 0.2678 0.0
O156 O 0.60393 0.87969 0.28128 0.0
C157 C 0.53564 0.77796 0.29098 0.0
O158 O 0.62116 0.8192 0.29195 0.0
Co159 Co 0.57301 0.7483 0.27225 0.0
O160 O 0.59857 0.75782 0.29345 0.0
C161 C 0.61521 0.80952 0.2488 0.0
C162 C 0.57518 0.87524 0.27315 0.0
C163 C 0.62088 0.79064 0.29813 0.0
O164 O 0.61203 0.83299 0.25786 0.0
O165 O 0.60051 0.7751 0.25218 0.0
O166 O 0.54998 0.81062 0.29744 0.0
O167 O 0.54908 0.77627 0.27709 0.0
C168 C 0.19967 0.86468 0.97737 0.0
C169 C 0.21272 0.86872 0.9613 0.0
C170 C 0.20448 0.89574 0.98612 0.0
C171 C 0.23273 0.99594 0.98126 0.0
H172 H 0.2779 0.00641 0.02363 0.0
C173 C 0.34145 0.13542 0.00927 0.0
C174 C 0.34312 0.13901 0.02629 0.0
C175 C 0.31472 0.1024 0.00198 0.0
C176 C 0.26466 0.00383 0.01197 0.0
H177 H 0.23841 0.90744 0.9414 0.0
H178 H 0.2467 0.96087 0.95639 0.0
H179 H 0.2491 0.94684 0.00997 0.0
H180 H 0.31745 0.1122 0.04903 0.0
H181 H 0.27026 0.055 0.03636 0.0
H182 H 0.2502 0.0536 0.98295 0.0
C183 C 0.23272 0.93425 0.96241 0.0
C184 C 0.24799 0.9695 0.00414 0.0
C185 C 0.22825 0.90357 0.95382 0.0
C186 C 0.31623 0.11022 0.03584 0.0
C187 C 0.28957 0.07732 0.0286 0.0
C188 C 0.24963 0.03035 0.98906 0.0
C189 C 0.22194 0.9311 0.97883 0.0
C190 C 0.23283 0.96536 0.98845 0.0
C191 C 0.28949 0.07238 0.01164 0.0
C192 C 0.26667 0.03496 0.00432 0.0
H193 H 0.18774 0.83813 0.98343 0.0
H194 H 0.19557 0.89229 -0.00129 0.0
H195 H 0.22071 0.99362 0.96932 0.0
H196 H 0.36254 0.1569 0.00172 0.0
H197 H 0.31569 0.09944 0.9889 0.0
C198 C 0.21742 0.31512 0.36883 0.0
C199 C 0.2043 0.33499 0.36002 0.0
C200 C 0.22136 0.28735 0.3614 0.0
C201 C 0.23832 0.26289 0.32037 0.0
H202 H 0.24739 0.18886 0.34525 0.0
C203 C 0.31064 0.18802 0.29387 0.0
C204 C 0.34264 0.19708 0.30289 0.0
C205 C 0.28266 0.19302 0.3006 0.0
C206 C 0.24459 0.20911 0.33809 0.0
H207 H 0.18255 0.33984 0.33682 0.0
H208 H 0.18826 0.29005 0.32373 0.0
H209 H 0.21441 0.21787 0.35691 0.0
H210 H 0.36994 0.21672 0.32614 0.0
H211 H 0.32016 0.22368 0.33825 0.0
H212 H 0.26875 0.25403 0.30161 0.0
C213 C 0.19622 0.29648 0.33639 0.0
C214 C 0.22594 0.22602 0.34479 0.0
C215 C 0.19236 0.3246 0.34391 0.0
C216 C 0.34504 0.20858 0.31913 0.0
C217 C 0.31667 0.21277 0.32599 0.0
C218 C 0.25624 0.24537 0.31355 0.0
C219 C 0.21222 0.27849 0.34487 0.0
C220 C 0.224 0.25441 0.33633 0.0
C221 C 0.28599 0.20658 0.31655 0.0
C222 C 0.26075 0.21933 0.32258 0.0
H223 H 0.22707 0.32285 0.38126 0.0
H224 H 0.23426 0.2749 0.3684 0.0
H225 H 0.23796 0.28479 0.31348 0.0
H226 H 0.30872 0.18011 0.28117 0.0
H227 H 0.25935 0.18816 0.29306 0.0
C228 C 0.87216 0.21808 0.66986 0.0
C229 C 0.8637 0.20392 0.68576 0.0
C230 C 0.90377 0.22238 0.66199 0.0
C231 C 0.997 0.24794 0.67271 0.0
H232 H 0.00741 0.23545 0.62656 0.0
C233 C 0.13884 0.33207 0.64115 0.0
C234 C 0.13672 0.34964 0.62693 0.0
C235 C 0.10658 0.30252 0.64787 0.0
C236 C 0.00509 0.23918 0.63949 0.0
H237 H 0.88064 0.1821 0.7058 0.0
H238 H 0.9364 0.19007 0.69211 0.0
H239 H 0.94614 0.20406 0.63905 0.0
H240 H 0.10016 0.34845 0.60791 0.0
H241 H 0.04468 0.29785 0.61944 0.0
H242 H 0.05534 0.28532 0.673 0.0
C243 C 0.91824 0.19717 0.68562 0.0
C244 C 0.96996 0.221 0.64663 0.0
C245 C 0.88619 0.19222 0.69336 0.0
C246 C 0.10257 0.33549 0.61894 0.0
C247 C 0.07067 0.30611 0.62552 0.0
C248 C 0.03209 0.26657 0.66553 0.0
C249 C 0.928 0.21348 0.67007 0.0
C250 C 0.96541 0.22619 0.6632 0.0
C251 C 0.07186 0.28994 0.64038 0.0
C252 C 0.03643 0.26362 0.64867 0.0
H253 H 0.8557 0.22816 0.66397 0.0
H254 H 0.91077 0.23543 0.6501 0.0
H255 H 0.99434 0.25273 0.68549 0.0
H256 H 0.16482 0.34261 0.64758 0.0
H257 H 0.10861 0.29046 0.65924 0.0
C258 C 0.66976 0.90454 0.03912 0.0
C259 C 0.65332 0.86952 0.03179 0.0
C260 C 0.69785 0.93538 0.03127 0.0
C261 C 0.72792 0.96946 0.98989 0.0
H262 H 0.80195 0.05598 0.01302 0.0
C263 C 0.8027 0.10975 0.95775 0.0
C264 C 0.80054 0.13772 0.96626 0.0
C265 C 0.79633 0.07756 0.96577 0.0
C266 C 0.78153 0.03204 0.00636 0.0
H267 H 0.65476 0.8388 0.01087 0.0
H268 H 0.70441 0.89317 -0.00309 0.0
H269 H 0.77 0.99636 0.02695 0.0
H270 H 0.79154 0.15495 0.98983 0.0
H271 H 0.78077 0.09888 0.00401 0.0
H272 H 0.73845 0.00529 0.9695 0.0
C273 C 0.69528 0.89666 0.00879 0.0
C274 C 0.76319 0.99785 0.01433 0.0
C275 C 0.66716 0.86549 0.01681 0.0
C276 C 0.79433 0.13415 0.98313 0.0
C277 C 0.78799 0.10192 0.9912 0.0
C278 C 0.74641 0.00359 0.9819 0.0
C279 C 0.71023 0.93218 0.01576 0.0
C280 C 0.73518 0.96638 0.00638 0.0
C281 C 0.78733 0.07258 0.98246 0.0
C282 C 0.7726 0.03554 0.99019 0.0
H283 H 0.65963 0.9084 0.0507 0.0
H284 H 0.70815 0.96212 0.03697 0.0
H285 H 0.70624 0.94607 0.98342 0.0
H286 H 0.80673 0.11167 0.94466 0.0
H287 H 0.79648 0.05574 0.95873 0.0
C288 C 0.6874 0.81326 0.30404 0.0
C289 C 0.65037 0.79453 0.30923 0.0
C290 C 0.71302 0.8048 0.31099 0.0
C291 C 0.70753 0.72149 0.32613 0.0
H292 H 0.81043 0.77931 0.33896 0.0
C293 C 0.7861 0.64684 0.33733 0.0
C294 C 0.80093 0.65228 0.35309 0.0
C295 C 0.77808 0.67256 0.33042 0.0
C296 C 0.78176 0.76293 0.33531 0.0
H297 H 0.61199 0.75567 0.3268 0.0
H298 H 0.65665 0.74174 0.33918 0.0
H299 H 0.77533 0.81064 0.33229 0.0
H300 H 0.82177 0.68999 0.37351 0.0
H301 H 0.80753 0.73509 0.36148 0.0
H302 H 0.71319 0.67395 0.32911 0.0
C303 C 0.6659 0.76237 0.32962 0.0
C304 C 0.76176 0.78081 0.33151 0.0
C305 C 0.64042 0.7706 0.32265 0.0
C306 C 0.81107 0.68562 0.36118 0.0
C307 C 0.80269 0.71132 0.35432 0.0
C308 C 0.72745 0.70383 0.32966 0.0
C309 C 0.70176 0.77758 0.32318 0.0
C310 C 0.72423 0.76009 0.32714 0.0
C311 C 0.78402 0.70386 0.3393 0.0
C312 C 0.76474 0.72417 0.33436 0.0
H313 H 0.69556 0.83137 0.29353 0.0
H314 H 0.74048 0.81692 0.30579 0.0
H315 H 0.67884 0.70478 0.32254 0.0
H316 H 0.77758 0.62109 0.33097 0.0
H317 H 0.76433 0.66637 0.31869 0.0
C318 C 0.86728 0.65708 0.65267 0.0
C319 C 0.86515 0.66019 0.63574 0.0
C320 C 0.89983 0.68111 0.66103 0.0
C321 C 0.99537 0.76308 0.65662 0.0
H322 H 0.02191 0.70168 0.68208 0.0
C323 C 0.13614 0.80973 0.69142 0.0
C324 C 0.14909 0.78463 0.68995 0.0
C325 C 0.10234 0.80174 0.68426 0.0
C326 C 0.01494 0.71927 0.67503 0.0
H327 H 0.89393 0.69191 0.61438 0.0
H328 H 0.95066 0.73386 0.62886 0.0
H329 H 0.95889 0.67634 0.67256 0.0
H330 H 0.13911 0.73373 0.67856 0.0
H331 H 0.08098 0.72026 0.66592 0.0
H332 H 0.05243 0.80567 0.65882 0.0
C333 C 0.92729 0.71353 0.63584 0.0
C334 C 0.97858 0.70491 0.66976 0.0
C335 C 0.89472 0.68956 0.62752 0.0
C336 C 0.12967 0.75345 0.67996 0.0
C337 C 0.09622 0.74557 0.67285 0.0
C338 C 0.03196 0.77763 0.66206 0.0
C339 C 0.93097 0.70828 0.65253 0.0
C340 C 0.96837 0.72627 0.66019 0.0
C341 C 0.08126 0.7686 0.6756 0.0
C342 C 0.04224 0.75543 0.67093 0.0
H343 H 0.84507 0.63416 0.65918 0.0
H344 H 0.90151 0.67669 0.67394 0.0
H345 H 0.9884 0.78033 0.64933 0.0
H346 H 0.15038 0.83376 0.69921 0.0
H347 H 0.09148 0.82003 0.68651 0.0
C348 C 0.73822 0.23422 0.98081 0.0
C349 C 0.7404 0.22983 0.96396 0.0
C350 C 0.70574 0.23011 0.98766 0.0
C351 C 0.62987 0.2441 0.97832 0.0
H352 H 0.57827 0.17819 0.01437 0.0
C353 C 0.49883 0.23552 0.00548 0.0
C354 C 0.49515 0.23222 0.02248 0.0
C355 C 0.52574 0.23066 -0.00242 0.0
C356 C 0.59258 0.1971 0.00444 0.0
H357 H 0.71047 0.21722 0.94105 0.0
H358 H 0.65417 0.21111 0.953 0.0
H359 H 0.63237 0.17915 0.00256 0.0
H360 H 0.5162 0.22092 0.0446 0.0
H361 H 0.56398 0.21415 0.03105 0.0
H362 H 0.59173 0.26367 0.98058 0.0
C363 C 0.67738 0.21732 0.96088 0.0
C364 C 0.62338 0.19743 -0.00234 0.0
C365 C 0.7095 0.2207 0.9541 0.0
C366 C 0.51829 0.22339 0.03144 0.0
C367 C 0.54555 0.21921 0.02362 0.0
C368 C 0.59955 0.24435 0.98528 0.0
C369 C 0.67538 0.22227 0.97767 0.0
C370 C 0.64227 0.22102 0.9846 0.0
C371 C 0.54988 0.22308 0.0066 0.0
C372 C 0.58062 0.22101 -0.00149 0.0
H373 H 0.76167 0.24118 0.98866 0.0
H374 H 0.70472 0.23419 0.00065 0.0
H375 H 0.64433 0.26275 0.96831 0.0
H376 H 0.48108 0.24203 -0.00171 0.0
H377 H 0.52775 0.23311 0.98443 0.0
C378 C 0.29556 0.50151 0.35955 0.0
C379 C 0.25989 0.48861 0.35331 0.0
C380 C 0.32605 0.53098 0.35214 0.0
C381 C 0.35816 0.58769 0.31474 0.0
H382 H 0.42927 0.66132 0.34437 0.0
C383 C 0.49453 0.70977 0.29189 0.0
C384 C 0.50605 0.74455 0.29884 0.0
C385 C 0.46514 0.67806 0.2986 0.0
C386 C 0.40952 0.64118 0.33594 0.0
H387 H 0.22813 0.49517 0.33405 0.0
H388 H 0.28154 0.54725 0.32116 0.0
H389 H 0.37626 0.60607 0.35529 0.0
H390 H 0.49636 0.7735 0.3184 0.0
H391 H 0.44439 0.71793 0.33006 0.0
H392 H 0.39087 0.62337 0.29539 0.0
C393 C 0.28596 0.53431 0.33169 0.0
C394 C 0.37941 0.60926 0.34218 0.0
C395 C 0.25539 0.50455 0.33906 0.0
C396 C 0.48808 0.74699 0.31284 0.0
C397 C 0.45844 0.71518 0.31952 0.0
C398 C 0.38823 0.61968 0.30849 0.0
C399 C 0.32149 0.54838 0.33841 0.0
C400 C 0.35349 0.5821 0.33165 0.0
C401 C 0.44644 0.68042 0.31235 0.0
C402 C 0.4143 0.64671 0.31903 0.0
H403 H 0.29988 0.48949 0.37044 0.0
H404 H 0.35316 0.54058 0.35737 0.0
H405 H 0.33877 0.56719 0.30632 0.0
H406 H 0.50801 0.70699 0.28114 0.0
H407 H 0.45707 0.65163 0.29299 0.0
C408 C 0.78167 0.29468 0.70156 0.0
C409 C 0.7724 0.26342 0.69194 0.0
C410 C 0.78357 0.32601 0.69464 0.0
C411 C 0.80153 0.37881 0.65799 0.0
H412 H 0.73418 0.40936 0.67477 0.0
C413 C 0.77847 0.48626 0.62472 0.0
C414 C 0.76973 0.50931 0.63378 0.0
C415 C 0.78123 0.45798 0.63233 0.0
C416 C 0.75375 0.4018 0.67014 0.0
H417 H 0.75904 0.24065 0.66753 0.0
H418 H 0.76359 0.29638 0.65525 0.0
H419 H 0.73515 0.35664 0.68694 0.0
H420 H 0.75825 0.52191 0.65794 0.0
H421 H 0.76477 0.47342 0.67149 0.0
H422 H 0.82124 0.42444 0.64158 0.0
C423 C 0.76884 0.29615 0.66818 0.0
C424 C 0.754 0.37141 0.67703 0.0
C425 C 0.76615 0.2644 0.67518 0.0
C426 C 0.76475 0.50426 0.65069 0.0
C427 C 0.76824 0.47632 0.65839 0.0
C428 C 0.80188 0.40969 0.65131 0.0
C429 C 0.77701 0.32689 0.67794 0.0
C430 C 0.77757 0.3595 0.67087 0.0
C431 C 0.77608 0.45252 0.64926 0.0
C432 C 0.77761 0.42128 0.65715 0.0
H433 H 0.78651 0.29462 0.71453 0.0
H434 H 0.79006 0.34956 0.70233 0.0
H435 H 0.82022 0.37021 0.65322 0.0
H436 H 0.78215 0.48937 0.61162 0.0
H437 H 0.78645 0.43981 0.6248 0.0
C438 C 0.2934 0.77518 0.9496 0.0
C439 C 0.26406 0.76876 0.96001 0.0
C440 C 0.32619 0.77931 0.95599 0.0
C441 C 0.38407 0.8064 0.99188 0.0
H442 H 0.41293 0.73553 0.97836 0.0
C443 C 0.48195 0.77909 0.03012 0.0
C444 C 0.50538 0.76862 0.02253 0.0
C445 C 0.45644 0.78365 0.02101 0.0
C446 C 0.40589 0.75612 0.98201 0.0
H447 H 0.24614 0.76273 0.98518 0.0
H448 H 0.30413 0.77104 -0.00358 0.0
H449 H 0.36078 0.73577 0.9651 0.0
H450 H 0.52148 0.75581 -0.00058 0.0
H451 H 0.47743 0.76494 0.98328 0.0
H452 H 0.42917 0.82723 0.00863 0.0
C453 C 0.30146 0.77246 0.98333 0.0
C454 C 0.37589 0.75605 0.97448 0.0
C455 C 0.26836 0.76757 0.97692 0.0
C456 C 0.50353 0.7637 0.00556 0.0
C457 C 0.4782 0.76875 -0.00364 0.0
C458 C 0.41446 0.80697 -0.0008 0.0
C459 C 0.33039 0.7779 0.97289 0.0
C460 C 0.36428 0.78059 0.97965 0.0
C461 C 0.45407 0.77841 0.00403 0.0
C462 C 0.42509 0.78113 0.99469 0.0
H463 H 0.29071 0.77611 0.93649 0.0
H464 H 0.34826 0.78355 0.94776 0.0
H465 H 0.37576 0.82587 -0.00412 0.0
H466 H 0.48258 0.78285 0.04321 0.0
H467 H 0.4378 0.79021 0.02743 0.0
C468 C 0.5128 0.2514 0.31325 0.0
C469 C 0.49628 0.25512 0.29902 0.0
C470 C 0.54343 0.28216 0.32001 0.0
C471 C 0.619 0.37517 0.309 0.0
H472 H 0.62852 0.38986 0.3558 0.0
C473 C 0.75246 0.48681 0.34107 0.0
C474 C 0.74731 0.50425 0.35461 0.0
C475 C 0.72197 0.45745 0.33342 0.0
C476 C 0.62613 0.3863 0.34268 0.0
H477 H 0.49788 0.29393 0.28101 0.0
H478 H 0.55075 0.34758 0.29296 0.0
H479 H 0.57414 0.33632 0.34466 0.0
H480 H 0.70639 0.50643 0.37014 0.0
H481 H 0.65352 0.45614 0.35663 0.0
H482 H 0.67073 0.42568 0.30706 0.0
C483 C 0.54066 0.32089 0.2987 0.0
C484 C 0.59519 0.35538 0.33633 0.0
C485 C 0.51017 0.2902 0.29195 0.0
C486 C 0.71127 0.49323 0.35984 0.0
C487 C 0.68095 0.46422 0.35218 0.0
C488 C 0.64999 0.40616 0.31537 0.0
C489 C 0.55795 0.31712 0.31266 0.0
C490 C 0.59118 0.34959 0.31942 0.0
C491 C 0.68597 0.44533 0.33919 0.0
C492 C 0.6537 0.41218 0.33228 0.0
H493 H 0.50273 0.22463 0.3189 0.0
H494 H 0.55633 0.27837 0.33072 0.0
H495 H 0.6169 0.37114 0.29591 0.0
H496 H 0.78001 0.49479 0.33682 0.0
H497 H 0.72666 0.44334 0.32344 0.0
C498 C 0.22245 0.51723 0.63645 0.0
C499 C 0.23575 0.49531 0.64323 0.0
C500 C 0.21846 0.54241 0.64602 0.0
C501 C 0.25472 0.59687 0.6835 0.0
H502 H 0.18263 0.62604 0.67243 0.0
C503 C 0.24117 0.71488 0.71454 0.0
C504 C 0.24722 0.74295 0.70343 0.0
C505 C 0.23648 0.68128 0.70898 0.0
C506 C 0.20273 0.61795 0.67566 0.0
H507 H 0.25369 0.48115 0.66551 0.0
H508 H 0.24577 0.52485 0.68254 0.0
H509 H 0.17712 0.56999 0.66058 0.0
H510 H 0.25252 0.75804 0.67788 0.0
H511 H 0.24306 0.6985 0.66809 0.0
H512 H 0.27988 0.64497 0.69877 0.0
C513 C 0.2392 0.52304 0.66967 0.0
C514 C 0.19977 0.58605 0.66887 0.0
C515 C 0.24354 0.4979 0.65998 0.0
C516 C 0.24807 0.73684 0.68666 0.0
C517 C 0.24251 0.70289 0.68109 0.0
C518 C 0.25719 0.62841 0.69057 0.0
C519 C 0.22722 0.54605 0.66271 0.0
C520 C 0.22649 0.57585 0.67224 0.0
C521 C 0.23686 0.67503 0.69223 0.0
C522 C 0.23185 0.63967 0.68629 0.0
H523 H 0.21629 0.51598 0.62356 0.0
H524 H 0.20998 0.56013 0.6401 0.0
H525 H 0.276 0.59014 0.68625 0.0
H526 H 0.24051 0.71906 0.72755 0.0
H527 H 0.23216 0.66004 0.71772 0.0
C528 C 0.35857 0.17425 0.0995 0.0
C529 C 0.38689 0.20899 0.0944 0.0
C530 C 0.3466 0.16852 0.11566 0.0
C531 C 0.35767 0.21595 0.15562 0.0
H532 H 0.34671 0.12445 0.1727 0.0
C533 C 0.35417 0.19413 0.22433 0.0
C534 C 0.37685 0.18062 0.22997 0.0
C535 C 0.34404 0.19064 0.20795 0.0
C536 C 0.34975 0.15015 0.16816 0.0
H537 H 0.42384 0.2655 0.10164 0.0
H538 H 0.4042 0.25542 0.13015 0.0
H539 H 0.35093 0.13477 0.14349 0.0
H540 H 0.40494 0.1509 0.22338 0.0
H541 H 0.38866 0.146 0.19456 0.0
H542 H 0.3596 0.23261 0.18033 0.0
C543 C 0.39026 0.2327 0.12167 0.0
C544 C 0.35157 0.15589 0.15134 0.0
C545 C 0.40166 0.23859 0.10537 0.0
C546 C 0.3872 0.16129 0.21927 0.0
C547 C 0.37773 0.15847 0.20276 0.0
C548 C 0.35637 0.21042 0.17245 0.0
C549 C 0.36352 0.19721 0.12713 0.0
C550 C 0.35641 0.18924 0.14486 0.0
C551 C 0.35721 0.17439 0.1968 0.0
C552 C 0.35325 0.17779 0.17895 0.0
H553 H 0.34676 0.15111 0.09112 0.0
H554 H 0.32523 0.14115 0.11929 0.0
H555 H 0.36078 0.24167 0.15108 0.0
H556 H 0.34555 0.20881 0.23247 0.0
H557 H 0.32727 0.20218 0.20391 0.0
C558 C 0.16763 0.3976 0.43758 0.0
C559 C 0.18821 0.38693 0.42784 0.0
C560 C 0.16469 0.39062 0.45436 0.0
C561 C 0.21964 0.37933 0.48646 0.0
H562 H 0.14215 0.37395 0.51426 0.0
C563 C 0.23123 0.39823 0.5573 0.0
C564 C 0.222 0.42462 0.56258 0.0
C565 C 0.22412 0.38534 0.54118 0.0
C566 C 0.16387 0.37512 0.50662 0.0
H567 H 0.21835 0.35727 0.42736 0.0
H568 H 0.21183 0.34359 0.45645 0.0
H569 H 0.13087 0.36244 0.48506 0.0
H570 H 0.19993 0.4595 0.55477 0.0
H571 H 0.18767 0.43702 0.52701 0.0
H572 H 0.25287 0.39298 0.50805 0.0
C573 C 0.19925 0.35861 0.45141 0.0
C574 C 0.15749 0.36871 0.48992 0.0
C575 C 0.20275 0.36619 0.43475 0.0
C576 C 0.20695 0.43879 0.55127 0.0
C577 C 0.19959 0.42573 0.53535 0.0
C578 C 0.22587 0.3854 0.50319 0.0
C579 C 0.18184 0.37237 0.46155 0.0
C580 C 0.18577 0.37209 0.47955 0.0
C581 C 0.20737 0.3984 0.53023 0.0
C582 C 0.19853 0.38475 0.51329 0.0
H583 H 0.15636 0.4138 0.43248 0.0
H584 H 0.15125 0.40186 0.46179 0.0
H585 H 0.24228 0.38264 0.47886 0.0
H586 H 0.24281 0.38674 0.56571 0.0
H587 H 0.23071 0.36448 0.5374 0.0
C588 C 0.84795 0.23343 0.88492 0.0
C589 C 0.83183 0.20331 0.89562 0.0
C590 C 0.85313 0.22794 0.86852 0.0
C591 C 0.81138 0.15263 0.83823 0.0
H592 H 0.88199 0.22877 0.8095 0.0
C593 C 0.78171 0.16237 0.77049 0.0
C594 C 0.8116 0.18091 0.75978 0.0
C595 C 0.78806 0.15853 0.78694 0.0
C596 C 0.86243 0.20673 0.8173 0.0
H597 H 0.81164 0.14479 0.8983 0.0
H598 H 0.8226 0.13546 0.86996 0.0
H599 H 0.89059 0.23646 0.83878 0.0
H600 H 0.87097 0.20662 0.75721 0.0
H601 H 0.882 0.19815 0.78563 0.0
H602 H 0.78342 0.12273 0.81675 0.0
C603 C 0.82988 0.163 0.87389 0.0
C604 C 0.86711 0.21148 0.83415 0.0
C605 C 0.82403 0.16837 0.89015 0.0
C606 C 0.84752 0.19252 0.76535 0.0
C607 C 0.85382 0.18802 0.78166 0.0
C608 C 0.80696 0.14766 0.82138 0.0
C609 C 0.84271 0.19231 0.86268 0.0
C610 C 0.84109 0.18498 0.84485 0.0
C611 C 0.82439 0.17265 0.79284 0.0
C612 C 0.83184 0.17511 0.81068 0.0
H613 H 0.85371 0.26051 0.8889 0.0
H614 H 0.86281 0.25117 0.86026 0.0
H615 H 0.79043 0.13174 0.84603 0.0
H616 H 0.75381 0.15351 0.76646 0.0
H617 H 0.76467 0.14677 0.79518 0.0
C618 C 0.59637 0.82162 0.10985 0.0
C619 C 0.59863 0.79625 0.09931 0.0
C620 C 0.61188 0.82834 0.12533 0.0
C621 C 0.63502 0.78519 0.1579 0.0
H622 H 0.67847 0.88337 0.17671 0.0
C623 C 0.65135 0.80238 0.22651 0.0
C624 C 0.63436 0.82129 0.23298 0.0
C625 C 0.66126 0.80611 0.2101 0.0
C626 C 0.66661 0.85585 0.17162 0.0
H627 H 0.61935 0.75817 0.09692 0.0
H628 H 0.64616 0.76961 0.12441 0.0
H629 H 0.66857 0.87528 0.14729 0.0
H630 H 0.61755 0.86154 0.22786 0.0
H631 H 0.63418 0.86763 0.19902 0.0
H632 H 0.6312 0.76541 0.18221 0.0
C633 C 0.63238 0.78435 0.12043 0.0
C634 C 0.66097 0.8512 0.1548 0.0
C635 C 0.61697 0.77774 0.10474 0.0
C636 C 0.63067 0.84672 0.22316 0.0
C637 C 0.64027 0.8502 0.20664 0.0
C638 C 0.64068 0.78983 0.17471 0.0
C639 C 0.63006 0.80988 0.13083 0.0
C640 C 0.6437 0.81564 0.14787 0.0
C641 C 0.654 0.82853 0.19979 0.0
C642 C 0.65525 0.82505 0.18182 0.0
H643 H 0.5826 0.83658 0.10618 0.0
H644 H 0.60878 0.84747 0.13317 0.0
H645 H 0.6214 0.75745 0.15295 0.0
H646 H 0.65505 0.78301 0.23392 0.0
H647 H 0.67262 0.78977 0.20527 0.0
C648 C 0.77893 0.62094 0.55399 0.0
C649 C 0.80871 0.62543 0.56358 0.0
C650 C 0.78449 0.6311 0.5375 0.0
C651 C 0.84541 0.63507 0.50494 0.0
H652 H 0.79235 0.67031 0.47866 0.0
C653 C 0.84379 0.62465 0.43485 0.0
C654 C 0.80835 0.60994 0.428 0.0
C655 C 0.85023 0.63731 0.451 0.0
C656 C 0.80739 0.66043 0.48584 0.0
H657 H 0.86803 0.64773 0.56415 0.0
H658 H 0.87773 0.66595 0.53559 0.0
H659 H 0.79068 0.67374 0.50838 0.0
H660 H 0.75228 0.5984 0.43268 0.0
H661 H 0.76325 0.61924 0.46055 0.0
H662 H 0.86041 0.61975 0.48263 0.0
C663 C 0.85005 0.6537 0.54056 0.0
C664 C 0.80643 0.66246 0.50284 0.0
C665 C 0.84448 0.64334 0.5569 0.0
C666 C 0.77996 0.60932 0.43748 0.0
C667 C 0.78634 0.6218 0.45351 0.0
C668 C 0.8461 0.63275 0.488 0.0
C669 C 0.81991 0.64608 0.5305 0.0
C670 C 0.82473 0.64898 0.51255 0.0
C671 C 0.82136 0.63551 0.46057 0.0
C672 C 0.82621 0.64438 0.47826 0.0
H673 H 0.75112 0.60717 0.55889 0.0
H674 H 0.76071 0.62482 0.53001 0.0
H675 H 0.8594 0.62396 0.5121 0.0
H676 H 0.86633 0.6258 0.42786 0.0
H677 H 0.87765 0.64803 0.45607 0.0
C678 C 0.15216 0.76991 0.88251 0.0
C679 C 0.16634 0.79728 0.89454 0.0
C680 C 0.14595 0.77851 0.86677 0.0
C681 C 0.18539 0.86021 0.84035 0.0
H682 H 0.12008 0.78848 0.80872 0.0
C683 C 0.22729 0.856 0.7745 0.0
C684 C 0.19963 0.83731 0.76283 0.0
C685 C 0.21773 0.86054 0.79032 0.0
C686 C 0.13807 0.8094 0.81734 0.0
H687 H 0.18224 0.85377 0.90035 0.0
H688 H 0.1698 0.86847 0.8731 0.0
H689 H 0.10801 0.77525 0.83758 0.0
H690 H 0.14122 0.81254 0.75765 0.0
H691 H 0.12465 0.82223 0.78497 0.0
H692 H 0.21573 0.89416 0.82009 0.0
C693 C 0.16441 0.84074 0.87553 0.0
C694 C 0.13137 0.80148 0.83394 0.0
C695 C 0.17112 0.83227 0.89115 0.0
C696 C 0.16295 0.82694 0.76657 0.0
C697 C 0.15346 0.83212 0.78225 0.0
C698 C 0.19188 0.8683 0.82374 0.0
C699 C 0.15365 0.81458 0.86293 0.0
C700 C 0.15581 0.82609 0.84563 0.0
C701 C 0.18039 0.84683 0.79458 0.0
C702 C 0.16919 0.84234 0.81202 0.0
H703 H 0.1489 0.74294 0.88488 0.0
H704 H 0.138 0.75772 0.85737 0.0
H705 H 0.20504 0.87981 0.84896 0.0
H706 H 0.2557 0.8638 0.77187 0.0
H707 H 0.23926 0.87183 0.79949 0.0
C708 C 0.57835 0.64807 0.04948 0.0
C709 C 0.55222 0.65918 0.05249 0.0
C710 C 0.56737 0.6103 0.04894 0.0
C711 C 0.486 0.51908 0.04088 0.0
H712 H 0.53663 0.47915 0.06585 0.0
C713 C 0.427 0.36064 0.04687 0.0
C714 C 0.45238 0.34805 0.04805 0.0
C715 C 0.43928 0.39869 0.04736 0.0
C716 C 0.52241 0.48974 0.05854 0.0
H717 H 0.49413 0.63914 0.05745 0.0
H718 H 0.47533 0.5741 0.05629 0.0
H719 H 0.55962 0.54543 0.06619 0.0
H720 H 0.51065 0.36561 0.05013 0.0
H721 H 0.53193 0.43107 0.05029 0.0
H722 H 0.44926 0.46382 0.03288 0.0
C723 C 0.50417 0.59434 0.05432 0.0
C724 C 0.53567 0.52785 0.0588 0.0
C725 C 0.51513 0.63177 0.05509 0.0
C726 C 0.4902 0.37425 0.04944 0.0
C727 C 0.50247 0.41203 0.04966 0.0
C728 C 0.47305 0.48104 0.0404 0.0
C729 C 0.53 0.58307 0.05113 0.0
C730 C 0.51744 0.54292 0.05008 0.0
C731 C 0.47728 0.42499 0.04878 0.0
C732 C 0.49093 0.46568 0.04929 0.0
H733 H 0.60707 0.66845 0.04738 0.0
H734 H 0.5879 0.60237 0.04645 0.0
H735 H 0.47153 0.52995 0.03391 0.0
H736 H 0.39769 0.34115 0.04581 0.0
H737 H 0.41886 0.40737 0.04685 0.0
C738 C 0.93708 0.57627 0.38391 0.0
C739 C 0.89955 0.55185 0.3873 0.0
C740 C 0.96258 0.56366 0.38398 0.0
C741 C 0.96807 0.47951 0.37786 0.0
H742 H 0.06076 0.5308 0.40131 0.0
C743 C 0.06724 0.41968 0.38271 0.0
C744 C 0.10535 0.44508 0.38306 0.0
C745 C 0.04156 0.43205 0.38365 0.0
C746 C 0.03532 0.51633 0.39443 0.0
H747 H 0.85961 0.49511 0.39364 0.0
H748 H 0.90375 0.47335 0.39352 0.0
H749 H 0.01862 0.55512 0.40169 0.0
H750 H 0.1463 0.50343 0.38414 0.0
H751 H 0.10229 0.52478 0.38507 0.0
H752 H 0.98496 0.4413 0.37015 0.0
C753 C 0.91352 0.50215 0.39081 0.0
C754 C 0.0111 0.53033 0.39473 0.0
C755 C 0.88829 0.5148 0.391 0.0
C756 C 0.11714 0.48296 0.38411 0.0
C757 C 0.09172 0.49529 0.38477 0.0
C758 C 0.99256 0.4658 0.37732 0.0
C759 C 0.95087 0.52627 0.38716 0.0
C760 C 0.97716 0.51204 0.38649 0.0
C761 C 0.05348 0.47014 0.38471 0.0
C762 C 0.02664 0.48401 0.3856 0.0
H763 H 0.94662 0.6049 0.38095 0.0
H764 H 0.99124 0.58288 0.3811 0.0
H765 H 0.94218 0.46494 0.37128 0.0
H766 H 0.05728 0.39033 0.38191 0.0
H767 H 0.0124 0.41168 0.38374 0.0
C768 C 0.6483 0.07147 0.70967 0.0
C769 C 0.66335 0.10538 0.71795 0.0
C770 C 0.60989 0.04734 0.70936 0.0
C771 C 0.52109 0.04652 0.71504 0.0
H772 H 0.47941 0.94097 0.72032 0.0
C773 C 0.37386 0.90776 0.73206 0.0
C774 C 0.34899 0.91039 0.72136 0.0
C775 C 0.41177 0.93249 0.73103 0.0
C776 C 0.49058 0.97043 0.71888 0.0
H777 H 0.64985 0.13993 0.73282 0.0
H778 H 0.58351 0.09792 0.73249 0.0
H779 H 0.54634 0.98115 0.71979 0.0
H780 H 0.34447 0.94219 0.70154 0.0
H781 H 0.41119 0.98594 0.69978 0.0
H782 H 0.46523 0.03578 0.71449 0.0
C783 C 0.60108 0.09016 0.72593 0.0
C784 C 0.52901 0.99343 0.7184 0.0
C785 C 0.63927 0.11412 0.72625 0.0
C786 C 0.36288 0.93954 0.71002 0.0
C787 C 0.4011 0.9645 0.709 0.0
C788 C 0.48262 0.02348 0.71545 0.0
C789 C 0.58577 0.05669 0.7173 0.0
C790 C 0.54481 0.03185 0.71673 0.0
C791 C 0.42605 0.96066 0.71925 0.0
C792 C 0.46688 0.98519 0.71766 0.0
H793 H 0.66606 0.06403 0.70306 0.0
H794 H 0.59904 0.02183 0.70255 0.0
H795 H 0.53229 0.07594 0.71346 0.0
H796 H 0.36416 0.88585 0.74105 0.0
H797 H 0.43 0.92925 0.7394 0.0
C798 C 0.64874 0.58281 0.61144 0.0
C799 C 0.6616 0.55901 0.60656 0.0
C800 C 0.61066 0.5704 0.61167 0.0
C801 C 0.51981 0.48527 0.61481 0.0
H802 H 0.48132 0.54428 0.59613 0.0
C803 C 0.36139 0.43086 0.6092 0.0
C804 C 0.34991 0.45698 0.61115 0.0
C805 C 0.39929 0.44231 0.60845 0.0
C806 C 0.49149 0.52756 0.60166 0.0
H807 H 0.6444 0.50359 0.59796 0.0
H808 H 0.57856 0.48218 0.59851 0.0
H809 H 0.54758 0.5674 0.59569 0.0
H810 H 0.36925 0.51534 0.61457 0.0
H811 H 0.43422 0.5348 0.6139 0.0
H812 H 0.46391 0.44577 0.62115 0.0
C813 C 0.59773 0.51031 0.60221 0.0
C814 C 0.52959 0.5409 0.60134 0.0
C815 C 0.6356 0.52277 0.60177 0.0
C816 C 0.377 0.49444 0.61275 0.0
C817 C 0.41452 0.50573 0.61224 0.0
C818 C 0.48167 0.47209 0.61533 0.0
C819 C 0.58473 0.53382 0.60726 0.0
C820 C 0.54423 0.51994 0.6079 0.0
C821 C 0.42641 0.48005 0.60984 0.0
C822 C 0.46692 0.49313 0.60881 0.0
H823 H 0.66799 0.61079 0.61527 0.0
H824 H 0.60145 0.58915 0.61567 0.0
H825 H 0.53029 0.46855 0.62008 0.0
H826 H 0.34118 0.4018 0.60795 0.0
H827 H 0.40727 0.42165 0.60649 0.0
C828 C 0.10152 0.63356 0.93027 0.0
C829 C 0.09794 0.65842 0.9406 0.0
C830 C 0.07689 0.59564 0.93125 0.0
C831 C 0.98479 0.52482 0.94614 0.0
H832 H 0.02636 0.46059 0.94125 0.0
C833 C 0.9351 0.3583 0.94974 0.0
C834 C 0.90139 0.34423 0.94133 0.0
C835 C 0.95949 0.39662 0.95065 0.0
C836 C 0.01428 0.47804 0.94281 0.0
H837 H 0.0648 0.66287 0.95979 0.0
H838 H 0.02139 0.59608 0.96158 0.0
H839 H 0.06704 0.52738 0.94138 0.0
H840 H 0.86748 0.35943 0.92691 0.0
H841 H 0.90989 0.42551 0.92828 0.0
H842 H 0.93203 0.4754 0.94772 0.0
C843 C 0.04338 0.60619 0.95263 0.0
C844 C 0.03758 0.51643 0.94269 0.0
C845 C 0.06816 0.64445 0.9516 0.0
C846 C 0.8931 0.36922 0.93357 0.0
C847 C 0.91731 0.40727 0.93449 0.0
C848 C 0.96146 0.48639 0.94625 0.0
C849 C 0.04794 0.58125 0.94266 0.0
C850 C 0.02312 0.54038 0.94406 0.0
C851 C 0.95062 0.42161 0.94321 0.0
C852 C 0.97582 0.46247 0.94431 0.0
H853 H 0.12391 0.64334 0.92152 0.0
H854 H 0.08073 0.57752 0.92306 0.0
H855 H 0.97264 0.54231 0.94721 0.0
H856 H 0.94223 0.33983 0.95592 0.0
H857 H 0.98487 0.40667 0.95752 0.0
C858 C 0.58181 0.93659 0.28107 0.0
C859 C 0.56525 0.90456 0.27139 0.0
C860 C 0.56816 0.96121 0.28091 0.0
C861 C 0.48267 0.96383 0.27079 0.0
H862 H 0.54657 0.06996 0.27319 0.0
C863 C 0.47699 0.10722 0.26164 0.0
C864 C 0.44491 0.09899 0.27046 0.0
C865 C 0.49096 0.08305 0.26172 0.0
C866 C 0.52828 0.04037 0.2724 0.0
H867 H 0.5226 0.87429 0.25337 0.0
H868 H 0.49955 0.91731 0.25283 0.0
H869 H 0.57363 0.0301 0.27301 0.0
H870 H 0.40175 0.05827 0.28596 0.0
H871 H 0.42621 0.01588 0.28616 0.0
H872 H 0.43737 0.97411 0.26982 0.0
C873 C 0.52236 0.92308 0.26088 0.0
C874 C 0.54384 0.01747 0.27249 0.0
C875 C 0.53588 0.89856 0.26107 0.0
C876 C 0.42637 0.0653 0.27895 0.0
C877 C 0.44045 0.04104 0.27906 0.0
C878 C 0.46711 0.98672 0.27071 0.0
C879 C 0.5377 0.95431 0.27105 0.0
C880 C 0.52127 0.97889 0.27152 0.0
C881 C 0.47335 0.04996 0.27068 0.0
C882 C 0.48971 0.02533 0.27135 0.0
H883 H 0.6043 0.94186 0.28924 0.0
H884 H 0.58061 0.98492 0.28895 0.0
H885 H 0.46433 0.93421 0.27033 0.0
H886 H 0.49189 0.13282 0.25488 0.0
H887 H 0.51579 0.09048 0.25479 0.0
loop_
_geom_bond_atom_site_label_1
_geom_bond_atom_site_label_2
_geom_bond_distance
_geom_bond_site_symmetry_2
_ccdc_geom_bond_type
Co0 O1 2.216 . S
Co0 O2 2.091 . S
Co0 O4 2.004 . S
Co0 O10 2.021 . S
Co0 O12 2.137 . S
Co0 O13 2.244 . S
O1 Co0 2.216 . S
O1 C8 1.247 . S
O2 Co0 2.091 . S
O2 C8 1.261 . S
C3 O12 1.247 . S
C3 O13 1.272 . S
O4 Co0 2.004 . S
O4 C9 1.259 . S
Co5 O6 2.061 . S
Co5 O11 2.052 . S
Co5 O13 2.135 . S
O6 Co5 2.061 . S
O6 C9 1.235 . S
C7 O10 1.238 . S
C7 O11 1.241 . S
C8 O1 1.247 . S
C8 O2 1.261 . S
C9 O4 1.259 . S
C9 O6 1.235 . S
O10 Co0 2.021 . S
O10 C7 1.238 . S
O11 Co5 2.052 . S
O11 C7 1.241 . S
O12 Co0 2.137 . S
O12 C3 1.247 . S
O13 Co0 2.244 . S
O13 C3 1.272 . S
O13 Co5 2.135 . S
Co14 O15 2.216 . S
Co14 O16 2.091 . S
Co14 O18 2.004 . S
Co14 O24 2.021 . S
Co14 O26 2.137 . S
Co14 O27 2.244 . S
O15 Co14 2.216 . S
O15 C22 1.247 . S
O16 Co14 2.091 . S
O16 C22 1.261 . S
C17 O26 1.247 . S
C17 O27 1.272 . S
O18 Co14 2.004 . S
O18 C23 1.259 . S
Co19 O20 2.061 . S
Co19 O25 2.052 . S
Co19 O27 2.135 . S
O20 Co19 2.061 . S
O20 C23 1.235 . S
C21 O24 1.238 . S
C21 O25 1.241 . S
C22 O15 1.247 . S
C22 O16 1.261 . S
C23 O18 1.259 . S
C23 O20 1.235 . S
O24 Co14 2.021 . S
O24 C21 1.238 . S
O25 Co19 2.052 . S
O25 C21 1.241 . S
O26 Co14 2.137 . S
O26 C17 1.247 . S
O27 Co14 2.244 . S
O27 C17 1.272 . S
O27 Co19 2.135 . S
Co28 O29 2.216 . S
Co28 O30 2.091 . S
Co28 O32 2.004 . S
Co28 O38 2.021 . S
Co28 O40 2.137 . S
Co28 O41 2.244 . S
O29 Co28 2.216 . S
O29 C36 1.247 . S
O30 Co28 2.091 . S
O30 C36 1.261 . S
C31 O40 1.247 . S
C31 O41 1.272 . S
O32 Co28 2.004 . S
O32 C37 1.259 . S
Co33 O34 2.061 . S
Co33 O39 2.052 . S
Co33 O41 2.135 . S
O34 Co33 2.061 . S
O34 C37 1.235 . S
C35 O38 1.238 . S
C35 O39 1.241 . S
C36 O29 1.247 . S
C36 O30 1.261 . S
C37 O32 1.259 . S
C37 O34 1.235 . S
O38 Co28 2.021 . S
O38 C35 1.238 . S
O39 Co33 2.052 . S
O39 C35 1.241 . S
O40 Co28 2.137 . S
O40 C31 1.247 . S
O41 Co28 2.244 . S
O41 C31 1.272 . S
O41 Co33 2.135 . S
Co42 O43 2.216 . S
Co42 O44 2.091 . S
Co42 O46 2.004 . S
Co42 O52 2.021 . S
Co42 O54 2.137 . S
Co42 O55 2.244 . S
O43 Co42 2.216 . S
O43 C50 1.247 . S
O44 Co42 2.091 . S
O44 C50 1.261 . S
C45 O54 1.247 . S
C45 O55 1.272 . S
O46 Co42 2.004 . S
O46 C51 1.259 . S
Co47 O48 2.061 . S
Co47 O53 2.052 . S
Co47 O55 2.135 . S
O48 Co47 2.061 . S
O48 C51 1.235 . S
C49 O52 1.238 . S
C49 O53 1.241 . S
C50 O43 1.247 . S
C50 O44 1.261 . S
C51 O46 1.259 . S
C51 O48 1.235 . S
O52 Co42 2.021 . S
O52 C49 1.238 . S
O53 Co47 2.052 . S
O53 C49 1.241 . S
O54 Co42 2.137 . S
O54 C45 1.247 . S
O55 Co42 2.244 . S
O55 C45 1.272 . S
O55 Co47 2.135 . S
Co56 O57 2.216 . S
Co56 O58 2.091 . S
Co56 O60 2.004 . S
Co56 O66 2.021 . S
Co56 O68 2.137 . S
Co56 O69 2.244 . S
O57 Co56 2.216 . S
O57 C64 1.247 . S
O58 Co56 2.091 . S
O58 C64 1.261 . S
C59 O68 1.247 . S
C59 O69 1.272 . S
O60 Co56 2.004 . S
O60 C65 1.259 . S
Co61 O62 2.061 . S
Co61 O67 2.052 . S
Co61 O69 2.135 . S
O62 Co61 2.061 . S
O62 C65 1.235 . S
C63 O66 1.238 . S
C63 O67 1.241 . S
C64 O57 1.247 . S
C64 O58 1.261 . S
C65 O60 1.259 . S
C65 O62 1.235 . S
O66 Co56 2.021 . S
O66 C63 1.238 . S
O67 Co61 2.052 . S
O67 C63 1.241 . S
O68 Co56 2.137 . S
O68 C59 1.247 . S
O69 Co56 2.244 . S
O69 C59 1.272 . S
O69 Co61 2.135 . S
Co70 O71 2.216 . S
Co70 O72 2.091 . S
Co70 O74 2.004 . S
Co70 O80 2.021 . S
Co70 O82 2.137 . S
Co70 O83 2.244 . S
O71 Co70 2.216 . S
O71 C78 1.247 . S
O72 Co70 2.091 . S
O72 C78 1.261 . S
C73 O82 1.247 . S
C73 O83 1.272 . S
O74 Co70 2.004 . S
O74 C79 1.259 . S
Co75 O76 2.061 . S
Co75 O81 2.052 . S
Co75 O83 2.135 . S
O76 Co75 2.061 . S
O76 C79 1.235 . S
C77 O80 1.238 . S
C77 O81 1.241 . S
C78 O71 1.247 . S
C78 O72 1.261 . S
C79 O74 1.259 . S
C79 O76 1.235 . S
O80 Co70 2.021 . S
O80 C77 1.238 . S
O81 Co75 2.052 . S
O81 C77 1.241 . S
O82 Co70 2.137 . S
O82 C73 1.247 . S
O83 Co70 2.244 . S
O83 C73 1.272 . S
O83 Co75 2.135 . S
Co84 O85 2.216 . S
Co84 O86 2.091 . S
Co84 O88 2.004 . S
Co84 O94 2.021 . S
Co84 O96 2.137 . S
Co84 O97 2.244 . S
O85 Co84 2.216 . S
O85 C92 1.247 . S
O86 Co84 2.091 . S
O86 C92 1.261 . S
C87 O96 1.247 . S
C87 O97 1.272 . S
O88 Co84 2.004 . S
O88 C93 1.259 . S
Co89 O90 2.061 . S
Co89 O95 2.052 . S
Co89 O97 2.135 . S
O90 Co89 2.061 . S
O90 C93 1.235 . S
C91 O94 1.238 . S
C91 O95 1.241 . S
C92 O85 1.247 . S
C92 O86 1.261 . S
C93 O88 1.259 . S
C93 O90 1.235 . S
O94 Co84 2.021 . S
O94 C91 1.238 . S
O95 Co89 2.052 . S
O95 C91 1.241 . S
O96 Co84 2.137 . S
O96 C87 1.247 . S
O97 Co84 2.244 . S
O97 C87 1.272 . S
O97 Co89 2.135 . S
Co98 O99 2.216 . S
Co98 O100 2.091 . S
Co98 O102 2.004 . S
Co98 O108 2.021 . S
Co98 O110 2.137 . S
Co98 O111 2.244 . S
O99 Co98 2.216 . S
O99 C106 1.247 . S
O100 Co98 2.091 . S
O100 C106 1.261 . S
C101 O110 1.247 . S
C101 O111 1.272 . S
O102 Co98 2.004 . S
O102 C107 1.259 . S
Co103 O104 2.061 . S
Co103 O109 2.052 . S
Co103 O111 2.135 . S
O104 Co103 2.061 . S
O104 C107 1.235 . S
C105 O108 1.238 . S
C105 O109 1.241 . S
C106 O99 1.247 . S
C106 O100 1.261 . S
C107 O102 1.259 . S
C107 O104 1.235 . S
O108 Co98 2.021 . S
O108 C105 1.238 . S
O109 Co103 2.052 . S
O109 C105 1.241 . S
O110 Co98 2.137 . S
O110 C101 1.247 . S
O111 Co98 2.244 . S
O111 C101 1.272 . S
O111 Co103 2.135 . S
Co112 O113 2.216 . S
Co112 O114 2.091 . S
Co112 O116 2.004 . S
Co112 O122 2.021 . S
Co112 O124 2.137 . S
Co112 O125 2.244 . S
O113 Co112 2.216 . S
O113 C120 1.247 . S
O114 Co112 2.091 . S
O114 C120 1.261 . S
C115 O124 1.247 . S
C115 O125 1.272 . S
O116 Co112 2.004 . S
O116 C121 1.259 . S
Co117 O118 2.061 . S
Co117 O123 2.052 . S
Co117 O125 2.135 . S
O118 Co117 2.061 . S
O118 C121 1.235 . S
C119 O122 1.238 . S
C119 O123 1.241 . S
C120 O113 1.247 . S
C120 O114 1.261 . S
C121 O116 1.259 . S
C121 O118 1.235 . S
O122 Co112 2.021 . S
O122 C119 1.238 . S
O123 Co117 2.052 . S
O123 C119 1.241 . S
O124 Co112 2.137 . S
O124 C115 1.247 . S
O125 Co112 2.244 . S
O125 C115 1.272 . S
O125 Co117 2.135 . S
Co126 O127 2.216 . S
Co126 O128 2.091 . S
Co126 O130 2.004 . S
Co126 O136 2.021 . S
Co126 O138 2.137 . S
Co126 O139 2.244 . S
O127 Co126 2.216 . S
O127 C134 1.247 . S
O128 Co126 2.091 . S
O128 C134 1.261 . S
C129 O138 1.247 . S
C129 O139 1.272 . S
O130 Co126 2.004 . S
O130 C135 1.259 . S
Co131 O132 2.061 . S
Co131 O137 2.052 . S
Co131 O139 2.135 . S
O132 Co131 2.061 . S
O132 C135 1.235 . S
C133 O136 1.238 . S
C133 O137 1.241 . S
C134 O127 1.247 . S
C134 O128 1.261 . S
C135 O130 1.259 . S
C135 O132 1.235 . S
O136 Co126 2.021 . S
O136 C133 1.238 . S
O137 Co131 2.052 . S
O137 C133 1.241 . S
O138 Co126 2.137 . S
O138 C129 1.247 . S
O139 Co126 2.244 . S
O139 C129 1.272 . S
O139 Co131 2.135 . S
Co140 O141 2.216 . S
Co140 O142 2.091 . S
Co140 O144 2.004 . S
Co140 O150 2.021 . S
Co140 O152 2.137 . S
Co140 O153 2.244 . S
O141 Co140 2.216 . S
O141 C148 1.247 . S
O142 Co140 2.091 . S
O142 C148 1.261 . S
C143 O152 1.247 . S
C143 O153 1.272 . S
O144 Co140 2.004 . S
O144 C149 1.259 . S
Co145 O146 2.061 . S
Co145 O151 2.052 . S
Co145 O153 2.135 . S
O146 Co145 2.061 . S
O146 C149 1.235 . S
C147 O150 1.238 . S
C147 O151 1.241 . S
C148 O141 1.247 . S
C148 O142 1.261 . S
C149 O144 1.259 . S
C149 O146 1.235 . S
O150 Co140 2.021 . S
O150 C147 1.238 . S
O151 Co145 2.052 . S
O151 C147 1.241 . S
O152 Co140 2.137 . S
O152 C143 1.247 . S
O153 Co140 2.244 . S
O153 C143 1.272 . S
O153 Co145 2.135 . S
Co154 O155 2.216 . S
Co154 O156 2.091 . S
Co154 O158 2.004 . S
Co154 O164 2.021 . S
Co154 O166 2.137 . S
Co154 O167 2.244 . S
O155 Co154 2.216 . S
O155 C162 1.247 . S
O156 Co154 2.091 . S
O156 C162 1.261 . S
C157 O166 1.247 . S
C157 O167 1.272 . S
O158 Co154 2.004 . S
O158 C163 1.259 . S
Co159 O160 2.061 . S
Co159 O165 2.052 . S
Co159 O167 2.135 . S
O160 Co159 2.061 . S
O160 C163 1.235 . S
C161 O164 1.238 . S
C161 O165 1.241 . S
C162 O155 1.247 . S
C162 O156 1.261 . S
C163 O158 1.259 . S
C163 O160 1.235 . S
O164 Co154 2.021 . S
O164 C161 1.238 . S
O165 Co159 2.052 . S
O165 C161 1.241 . S
O166 Co154 2.137 . S
O166 C157 1.247 . S
O167 Co154 2.244 . S
O167 C157 1.272 . S
O167 Co159 2.135 . S
C168 C169 1.349 . S
C168 C170 1.327 . S
C168 H193 0.950 . S
C169 C168 1.349 . S
C169 C185 1.349 . S
C170 C168 1.327 . S
C170 C189 1.429 . S
C170 H194 0.931 1_556 S
C171 C188 1.574 1_565 S
C171 C190 1.368 . S
C171 H195 0.949 . S
H172 C176 0.949 . S
C173 C174 1.349 . S
C173 C175 1.327 . S
C173 H196 0.950 . S
C174 C173 1.349 . S
C174 C186 1.349 . S
C175 C173 1.327 . S
C175 C191 1.429 . S
C175 H197 0.931 1_554 S
C176 H172 0.949 . S
C176 C184 1.574 1_545 S
C176 C192 1.368 . S
H177 C185 0.950 . S
H178 C183 0.950 . S
H179 C184 0.949 . S
H180 C186 0.950 . S
H181 C187 0.950 . S
H182 C188 0.949 . S
C183 H178 0.950 . S
C183 C185 1.327 . S
C183 C189 1.429 . S
C184 C176 1.574 1_565 S
C184 H179 0.949 . S
C184 C190 1.368 1_554 S
C185 C169 1.349 . S
C185 H177 0.950 . S
C185 C183 1.327 . S
C186 C174 1.349 . S
C186 H180 0.950 . S
C186 C187 1.327 . S
C187 H181 0.950 . S
C187 C186 1.327 . S
C187 C191 1.429 . S
C188 C171 1.574 1_545 S
C188 H182 0.949 . S
C188 C192 1.368 1_556 S
C189 C170 1.429 . S
C189 C183 1.429 . S
C189 C190 1.523 . S
C190 C171 1.368 . S
C190 C184 1.368 1_556 S
C190 C189 1.523 . S
C191 C175 1.429 . S
C191 C187 1.429 . S
C191 C192 1.523 . S
C192 C176 1.368 . S
C192 C188 1.368 1_554 S
C192 C191 1.523 . S
H193 C168 0.950 . S
H194 C170 0.931 1_554 S
H195 C171 0.949 . S
H196 C173 0.950 . S
H197 C175 0.931 1_556 S
C198 C199 1.349 . S
C198 C200 1.327 . S
C198 H223 0.950 . S
C199 C198 1.349 . S
C199 C215 1.349 . S
C200 C198 1.327 . S
C200 C219 1.429 . S
C200 H224 0.950 . S
C201 C218 1.574 . S
C201 C220 1.368 . S
C201 H225 0.949 . S
H202 C206 0.949 . S
C203 C204 1.349 . S
C203 C205 1.327 . S
C203 H226 0.950 . S
C204 C203 1.349 . S
C204 C216 1.349 . S
C205 C203 1.327 . S
C205 C221 1.429 . S
C205 H227 0.950 . S
C206 H202 0.949 . S
C206 C214 1.574 . S
C206 C222 1.368 . S
H207 C215 0.950 . S
H208 C213 0.950 . S
H209 C214 0.949 . S
H210 C216 0.950 . S
H211 C217 0.950 . S
H212 C218 0.949 . S
C213 H208 0.950 . S
C213 C215 1.327 . S
C213 C219 1.429 . S
C214 C206 1.574 . S
C214 H209 0.949 . S
C214 C220 1.368 . S
C215 C199 1.349 . S
C215 H207 0.950 . S
C215 C213 1.327 . S
C216 C204 1.349 . S
C216 H210 0.950 . S
C216 C217 1.327 . S
C217 H211 0.950 . S
C217 C216 1.327 . S
C217 C221 1.429 . S
C218 C201 1.574 . S
C218 H212 0.949 . S
C218 C222 1.368 . S
C219 C200 1.429 . S
C219 C213 1.429 . S
C219 C220 1.523 . S
C220 C201 1.368 . S
C220 C214 1.368 . S
C220 C219 1.523 . S
C221 C205 1.429 . S
C221 C217 1.429 . S
C221 C222 1.523 . S
C222 C206 1.368 . S
C222 C218 1.368 . S
C222 C221 1.523 . S
H223 C198 0.950 . S
H224 C200 0.950 . S
H225 C201 0.949 . S
H226 C203 0.950 . S
H227 C205 0.950 . S
C228 C229 1.349 . S
C228 C230 1.327 . S
C228 H253 0.950 . S
C229 C228 1.349 . S
C229 C245 1.349 . S
C230 C228 1.327 . S
C230 C249 1.429 . S
C230 H254 0.950 . S
C231 C248 1.574 1_655 S
C231 C250 1.368 . S
C231 H255 0.949 . S
H232 C236 0.949 . S
C233 C234 1.349 . S
C233 C235 1.327 . S
C233 H256 0.950 . S
C234 C233 1.349 . S
C234 C246 1.349 . S
C235 C233 1.327 . S
C235 C251 1.429 . S
C235 H257 0.950 . S
C236 H232 0.949 . S
C236 C244 1.574 1_455 S
C236 C252 1.368 . S
H237 C245 0.950 . S
H238 C243 0.950 . S
H239 C244 0.949 . S
H240 C246 0.950 . S
H241 C247 0.950 . S
H242 C248 0.949 . S
C243 H238 0.950 . S
C243 C245 1.327 . S
C243 C249 1.429 . S
C244 C236 1.574 1_655 S
C244 H239 0.949 . S
C244 C250 1.368 . S
C245 C229 1.349 . S
C245 H237 0.950 . S
C245 C243 1.327 . S
C246 C234 1.349 . S
C246 H240 0.950 . S
C246 C247 1.327 . S
C247 H241 0.950 . S
C247 C246 1.327 . S
C247 C251 1.429 . S
C248 C231 1.574 1_455 S
C248 H242 0.949 . S
C248 C252 1.368 . S
C249 C230 1.429 . S
C249 C243 1.429 . S
C249 C250 1.523 . S
C250 C231 1.368 . S
C250 C244 1.368 . S
C250 C249 1.523 . S
C251 C235 1.429 . S
C251 C247 1.429 . S
C251 C252 1.523 . S
C252 C236 1.368 . S
C252 C248 1.368 . S
C252 C251 1.523 . S
H253 C228 0.950 . S
H254 C230 0.950 . S
H255 C231 0.949 . S
H256 C233 0.950 . S
H257 C235 0.950 . S
C258 C259 1.349 . S
C258 C260 1.327 . S
C258 H283 0.950 . S
C259 C258 1.349 . S
C259 C275 1.349 . S
C260 C258 1.327 . S
C260 C279 1.429 . S
C260 H284 0.950 . S
C261 C278 1.574 1_565 S
C261 C280 1.368 1_556 S
C261 H285 0.949 . S
H262 C266 0.949 . S
C263 C264 1.349 . S
C263 C265 1.327 . S
C263 H286 0.950 . S
C264 C263 1.349 . S
C264 C276 1.349 . S
C265 C263 1.327 . S
C265 C281 1.429 . S
C265 H287 0.950 . S
C266 H262 0.949 . S
C266 C274 1.574 1_545 S
C266 C282 1.368 1_554 S
H267 C275 0.950 . S
H268 C273 0.950 1_556 S
H269 C274 0.949 . S
H270 C276 0.950 . S
H271 C277 0.950 1_554 S
H272 C278 0.949 . S
C273 H268 0.950 1_554 S
C273 C275 1.327 . S
C273 C279 1.429 . S
C274 C266 1.574 1_565 S
C274 H269 0.949 . S
C274 C280 1.368 . S
C275 C259 1.349 . S
C275 H267 0.950 . S
C275 C273 1.327 . S
C276 C264 1.349 . S
C276 H270 0.950 . S
C276 C277 1.327 . S
C277 H271 0.950 1_556 S
C277 C276 1.327 . S
C277 C281 1.429 . S
C278 C261 1.574 1_545 S
C278 H272 0.949 . S
C278 C282 1.368 . S
C279 C260 1.429 . S
C279 C273 1.429 . S
C279 C280 1.523 . S
C280 C261 1.368 1_554 S
C280 C274 1.368 . S
C280 C279 1.523 . S
C281 C265 1.429 . S
C281 C277 1.429 . S
C281 C282 1.523 . S
C282 C266 1.368 1_556 S
C282 C278 1.368 . S
C282 C281 1.523 . S
H283 C258 0.950 . S
H284 C260 0.950 . S
H285 C261 0.949 . S
H286 C263 0.950 . S
H287 C265 0.950 . S
C288 C289 1.349 . S
C288 C290 1.327 . S
C288 H313 0.950 . S
C289 C288 1.349 . S
C289 C305 1.349 . S
C290 C288 1.327 . S
C290 C309 1.429 . S
C290 H314 0.950 . S
C291 C308 1.574 . S
C291 C310 1.368 . S
C291 H315 0.949 . S
H292 C296 0.949 . S
C293 C294 1.349 . S
C293 C295 1.327 . S
C293 H316 0.950 . S
C294 C293 1.349 . S
C294 C306 1.349 . S
C295 C293 1.327 . S
C295 C311 1.429 . S
C295 H317 0.950 . S
C296 H292 0.949 . S
C296 C304 1.574 . S
C296 C312 1.368 . S
H297 C305 0.950 . S
H298 C303 0.950 . S
H299 C304 0.949 . S
H300 C306 0.950 . S
H301 C307 0.950 . S
H302 C308 0.949 . S
C303 H298 0.950 . S
C303 C305 1.327 . S
C303 C309 1.429 . S
C304 C296 1.574 . S
C304 H299 0.949 . S
C304 C310 1.368 . S
C305 C289 1.349 . S
C305 H297 0.950 . S
C305 C303 1.327 . S
C306 C294 1.349 . S
C306 H300 0.950 . S
C306 C307 1.327 . S
C307 H301 0.950 . S
C307 C306 1.327 . S
C307 C311 1.429 . S
C308 C291 1.574 . S
C308 H302 0.949 . S
C308 C312 1.368 . S
C309 C290 1.429 . S
C309 C303 1.429 . S
C309 C310 1.523 . S
C310 C291 1.368 . S
C310 C304 1.368 . S
C310 C309 1.523 . S
C311 C295 1.429 . S
C311 C307 1.429 . S
C311 C312 1.523 . S
C312 C296 1.368 . S
C312 C308 1.368 . S
C312 C311 1.523 . S
H313 C288 0.950 . S
H314 C290 0.950 . S
H315 C291 0.949 . S
H316 C293 0.950 . S
H317 C295 0.950 . S
C318 C319 1.349 . S
C318 C320 1.327 . S
C318 H343 0.950 . S
C319 C318 1.349 . S
C319 C335 1.349 . S
C320 C318 1.327 . S
C320 C339 1.429 . S
C320 H344 0.950 . S
C321 C338 1.574 1_655 S
C321 C340 1.368 . S
C321 H345 0.949 . S
H322 C326 0.949 . S
C323 C324 1.349 . S
C323 C325 1.327 . S
C323 H346 0.950 . S
C324 C323 1.349 . S
C324 C336 1.349 . S
C325 C323 1.327 . S
C325 C341 1.429 . S
C325 H347 0.950 . S
C326 H322 0.949 . S
C326 C334 1.574 1_455 S
C326 C342 1.368 . S
H327 C335 0.950 . S
H328 C333 0.950 . S
H329 C334 0.949 . S
H330 C336 0.950 . S
H331 C337 0.950 . S
H332 C338 0.949 . S
C333 H328 0.950 . S
C333 C335 1.327 . S
C333 C339 1.429 . S
C334 C326 1.574 1_655 S
C334 H329 0.949 . S
C334 C340 1.368 . S
C335 C319 1.349 . S
C335 H327 0.950 . S
C335 C333 1.327 . S
C336 C324 1.349 . S
C336 H330 0.950 . S
C336 C337 1.327 . S
C337 H331 0.950 . S
C337 C336 1.327 . S
C337 C341 1.429 . S
C338 C321 1.574 1_455 S
C338 H332 0.949 . S
C338 C342 1.368 . S
C339 C320 1.429 . S
C339 C333 1.429 . S
C339 C340 1.523 . S
C340 C321 1.368 . S
C340 C334 1.368 . S
C340 C339 1.523 . S
C341 C325 1.429 . S
C341 C337 1.429 . S
C341 C342 1.523 . S
C342 C326 1.368 . S
C342 C338 1.368 . S
C342 C341 1.523 . S
H343 C318 0.950 . S
H344 C320 0.950 . S
H345 C321 0.949 . S
H346 C323 0.950 . S
H347 C325 0.950 . S
C348 C349 1.349 . S
C348 C350 1.327 . S
C348 H373 0.950 . S
C349 C348 1.349 . S
C349 C365 1.349 . S
C350 C348 1.327 . S
C350 C369 1.429 . S
C350 H374 0.980 . S
C351 C368 1.574 . S
C351 C370 1.368 . S
C351 H375 0.949 . S
H352 C356 0.949 . S
C353 C354 1.349 . S
C353 C355 1.327 . S
C353 H376 0.950 . S
C354 C353 1.349 . S
C354 C366 1.349 . S
C355 C353 1.327 . S
C355 C371 1.429 . S
C355 H377 0.980 . S
C356 H352 0.949 . S
C356 C364 1.574 . S
C356 C372 1.368 . S
H357 C365 0.950 . S
H358 C363 0.950 . S
H359 C364 0.949 . S
H360 C366 0.950 . S
H361 C367 0.950 . S
H362 C368 0.949 . S
C363 H358 0.950 . S
C363 C365 1.327 . S
C363 C369 1.429 . S
C364 C356 1.574 . S
C364 H359 0.949 . S
C364 C370 1.368 1_554 S
C365 C349 1.349 . S
C365 H357 0.950 . S
C365 C363 1.327 . S
C366 C354 1.349 . S
C366 H360 0.950 . S
C366 C367 1.327 . S
C367 H361 0.950 . S
C367 C366 1.327 . S
C367 C371 1.429 . S
C368 C351 1.574 . S
C368 H362 0.949 . S
C368 C372 1.368 1_556 S
C369 C350 1.429 . S
C369 C363 1.429 . S
C369 C370 1.523 . S
C370 C351 1.368 . S
C370 C364 1.368 1_556 S
C370 C369 1.523 . S
C371 C355 1.429 . S
C371 C367 1.429 . S
C371 C372 1.523 . S
C372 C356 1.368 . S
C372 C368 1.368 1_554 S
C372 C371 1.523 . S
H373 C348 0.950 . S
H374 C350 0.980 . S
H375 C351 0.949 . S
H376 C353 0.950 . S
H377 C355 0.980 . S
C378 C379 1.349 . S
C378 C380 1.327 . S
C378 H403 0.950 . S
C379 C378 1.349 . S
C379 C395 1.349 . S
C380 C378 1.327 . S
C380 C399 1.429 . S
C380 H404 0.950 . S
C381 C398 1.574 . S
C381 C400 1.368 . S
C381 H405 0.949 . S
H382 C386 0.949 . S
C383 C384 1.349 . S
C383 C385 1.327 . S
C383 H406 0.950 . S
C384 C383 1.349 . S
C384 C396 1.349 . S
C385 C383 1.327 . S
C385 C401 1.429 . S
C385 H407 0.950 . S
C386 H382 0.949 . S
C386 C394 1.574 . S
C386 C402 1.368 . S
H387 C395 0.950 . S
H388 C393 0.950 . S
H389 C394 0.949 . S
H390 C396 0.950 . S
H391 C397 0.950 . S
H392 C398 0.949 . S
C393 H388 0.950 . S
C393 C395 1.327 . S
C393 C399 1.429 . S
C394 C386 1.574 . S
C394 H389 0.949 . S
C394 C400 1.368 . S
C395 C379 1.349 . S
C395 H387 0.950 . S
C395 C393 1.327 . S
C396 C384 1.349 . S
C396 H390 0.950 . S
C396 C397 1.327 . S
C397 H391 0.950 . S
C397 C396 1.327 . S
C397 C401 1.429 . S
C398 C381 1.574 . S
C398 H392 0.949 . S
C398 C402 1.368 . S
C399 C380 1.429 . S
C399 C393 1.429 . S
C399 C400 1.523 . S
C400 C381 1.368 . S
C400 C394 1.368 . S
C400 C399 1.523 . S
C401 C385 1.429 . S
C401 C397 1.429 . S
C401 C402 1.523 . S
C402 C386 1.368 . S
C402 C398 1.368 . S
C402 C401 1.523 . S
H403 C378 0.950 . S
H404 C380 0.950 . S
H405 C381 0.949 . S
H406 C383 0.950 . S
H407 C385 0.950 . S
C408 C409 1.349 . S
C408 C410 1.327 . S
C408 H433 0.950 . S
C409 C408 1.349 . S
C409 C425 1.349 . S
C410 C408 1.327 . S
C410 C429 1.429 . S
C410 H434 0.950 . S
C411 C428 1.574 . S
C411 C430 1.368 . S
C411 H435 0.949 . S
H412 C416 0.949 . S
C413 C414 1.349 . S
C413 C415 1.327 . S
C413 H436 0.950 . S
C414 C413 1.349 . S
C414 C426 1.349 . S
C415 C413 1.327 . S
C415 C431 1.429 . S
C415 H437 0.950 . S
C416 H412 0.949 . S
C416 C424 1.574 . S
C416 C432 1.368 . S
H417 C425 0.950 . S
H418 C423 0.950 . S
H419 C424 0.949 . S
H420 C426 0.950 . S
H421 C427 0.950 . S
H422 C428 0.949 . S
C423 H418 0.950 . S
C423 C425 1.327 . S
C423 C429 1.429 . S
C424 C416 1.574 . S
C424 H419 0.949 . S
C424 C430 1.368 . S
C425 C409 1.349 . S
C425 H417 0.950 . S
C425 C423 1.327 . S
C426 C414 1.349 . S
C426 H420 0.950 . S
C426 C427 1.327 . S
C427 H421 0.950 . S
C427 C426 1.327 . S
C427 C431 1.429 . S
C428 C411 1.574 . S
C428 H422 0.949 . S
C428 C432 1.368 . S
C429 C410 1.429 . S
C429 C423 1.429 . S
C429 C430 1.523 . S
C430 C411 1.368 . S
C430 C424 1.368 . S
C430 C429 1.523 . S
C431 C415 1.429 . S
C431 C427 1.429 . S
C431 C432 1.523 . S
C432 C416 1.368 . S
C432 C428 1.368 . S
C432 C431 1.523 . S
H433 C408 0.950 . S
H434 C410 0.950 . S
H435 C411 0.949 . S
H436 C413 0.950 . S
H437 C415 0.950 . S
C438 C439 1.349 . S
C438 C440 1.327 . S
C438 H463 0.950 . S
C439 C438 1.349 . S
C439 C455 1.349 . S
C440 C438 1.327 . S
C440 C459 1.429 . S
C440 H464 0.950 . S
C441 C458 1.574 . S
C441 C460 1.368 1_554 S
C441 H465 0.949 . S
H442 C446 0.949 . S
C443 C444 1.349 . S
C443 C445 1.327 . S
C443 H466 0.950 . S
C444 C443 1.349 . S
C444 C456 1.349 . S
C445 C443 1.327 . S
C445 C461 1.429 . S
C445 H467 0.950 . S
C446 H442 0.949 . S
C446 C454 1.574 . S
C446 C462 1.368 1_556 S
H447 C455 0.950 . S
H448 C453 0.980 . S
H449 C454 0.949 . S
H450 C456 0.950 . S
H451 C457 0.980 . S
H452 C458 0.949 . S
C453 H448 0.980 . S
C453 C455 1.327 . S
C453 C459 1.429 . S
C454 C446 1.574 . S
C454 H449 0.949 . S
C454 C460 1.368 . S
C455 C439 1.349 . S
C455 H447 0.950 . S
C455 C453 1.327 . S
C456 C444 1.349 . S
C456 H450 0.950 . S
C456 C457 1.327 . S
C457 H451 0.980 . S
C457 C456 1.327 . S
C457 C461 1.429 . S
C458 C441 1.574 . S
C458 H452 0.949 . S
C458 C462 1.368 . S
C459 C440 1.429 . S
C459 C453 1.429 . S
C459 C460 1.523 . S
C460 C441 1.368 1_556 S
C460 C454 1.368 . S
C460 C459 1.523 . S
C461 C445 1.429 . S
C461 C457 1.429 . S
C461 C462 1.523 . S
C462 C446 1.368 1_554 S
C462 C458 1.368 . S
C462 C461 1.523 . S
H463 C438 0.950 . S
H464 C440 0.950 . S
H465 C441 0.949 . S
H466 C443 0.950 . S
H467 C445 0.950 . S
C468 C469 1.349 . S
C468 C470 1.327 . S
C468 H493 0.950 . S
C469 C468 1.349 . S
C469 C485 1.349 . S
C470 C468 1.327 . S
C470 C489 1.429 . S
C470 H494 0.950 . S
C471 C488 1.574 . S
C471 C490 1.368 . S
C471 H495 0.949 . S
H472 C476 0.949 . S
C473 C474 1.349 . S
C473 C475 1.327 . S
C473 H496 0.950 . S
C474 C473 1.349 . S
C474 C486 1.349 . S
C475 C473 1.327 . S
C475 C491 1.429 . S
C475 H497 0.950 . S
C476 H472 0.949 . S
C476 C484 1.574 . S
C476 C492 1.368 . S
H477 C485 0.950 . S
H478 C483 0.950 . S
H479 C484 0.949 . S
H480 C486 0.950 . S
H481 C487 0.950 . S
H482 C488 0.949 . S
C483 H478 0.950 . S
C483 C485 1.327 . S
C483 C489 1.429 . S
C484 C476 1.574 . S
C484 H479 0.949 . S
C484 C490 1.368 . S
C485 C469 1.349 . S
C485 H477 0.950 . S
C485 C483 1.327 . S
C486 C474 1.349 . S
C486 H480 0.950 . S
C486 C487 1.327 . S
C487 H481 0.950 . S
C487 C486 1.327 . S
C487 C491 1.429 . S
C488 C471 1.574 . S
C488 H482 0.949 . S
C488 C492 1.368 . S
C489 C470 1.429 . S
C489 C483 1.429 . S
C489 C490 1.523 . S
C490 C471 1.368 . S
C490 C484 1.368 . S
C490 C489 1.523 . S
C491 C475 1.429 . S
C491 C487 1.429 . S
C491 C492 1.523 . S
C492 C476 1.368 . S
C492 C488 1.368 . S
C492 C491 1.523 . S
H493 C468 0.950 . S
H494 C470 0.950 . S
H495 C471 0.949 . S
H496 C473 0.950 . S
H497 C475 0.950 . S
C498 C499 1.349 . S
C498 C500 1.327 . S
C498 H523 0.950 . S
C499 C498 1.349 . S
C499 C515 1.349 . S
C500 C498 1.327 . S
C500 C519 1.429 . S
C500 H524 0.950 . S
C501 C518 1.574 . S
C501 C520 1.368 . S
C501 H525 0.949 . S
H502 C506 0.949 . S
C503 C504 1.349 . S
C503 C505 1.327 . S
C503 H526 0.950 . S
C504 C503 1.349 . S
C504 C516 1.349 . S
C505 C503 1.327 . S
C505 C521 1.429 . S
C505 H527 0.950 . S
C506 H502 0.949 . S
C506 C514 1.574 . S
C506 C522 1.368 . S
H507 C515 0.950 . S
H508 C513 0.950 . S
H509 C514 0.949 . S
H510 C516 0.950 . S
H511 C517 0.950 . S
H512 C518 0.949 . S
C513 H508 0.950 . S
C513 C515 1.327 . S
C513 C519 1.429 . S
C514 C506 1.574 . S
C514 H509 0.949 . S
C514 C520 1.368 . S
C515 C499 1.349 . S
C515 H507 0.950 . S
C515 C513 1.327 . S
C516 C504 1.349 . S
C516 H510 0.950 . S
C516 C517 1.327 . S
C517 H511 0.950 . S
C517 C516 1.327 . S
C517 C521 1.429 . S
C518 C501 1.574 . S
C518 H512 0.949 . S
C518 C522 1.368 . S
C519 C500 1.429 . S
C519 C513 1.429 . S
C519 C520 1.523 . S
C520 C501 1.368 . S
C520 C514 1.368 . S
C520 C519 1.523 . S
C521 C505 1.429 . S
C521 C517 1.429 . S
C521 C522 1.523 . S
C522 C506 1.368 . S
C522 C518 1.368 . S
C522 C521 1.523 . S
H523 C498 0.950 . S
H524 C500 0.950 . S
H525 C501 0.949 . S
H526 C503 0.950 . S
H527 C505 0.950 . S
C528 C529 1.349 . S
C528 C530 1.327 . S
C528 H553 0.950 . S
C529 C528 1.349 . S
C529 C545 1.349 . S
C530 C528 1.327 . S
C530 C549 1.429 . S
C530 H554 0.950 . S
C531 C548 1.574 . S
C531 C550 1.368 . S
C531 H555 0.949 . S
H532 C536 0.949 . S
C533 C534 1.349 . S
C533 C535 1.327 . S
C533 H556 0.950 . S
C534 C533 1.349 . S
C534 C546 1.349 . S
C535 C533 1.327 . S
C535 C551 1.429 . S
C535 H557 0.950 . S
C536 H532 0.949 . S
C536 C544 1.574 . S
C536 C552 1.368 . S
H537 C545 0.950 . S
H538 C543 0.950 . S
H539 C544 0.949 . S
H540 C546 0.950 . S
H541 C547 0.950 . S
H542 C548 0.949 . S
C543 H538 0.950 . S
C543 C545 1.327 . S
C543 C549 1.429 . S
C544 C536 1.574 . S
C544 H539 0.949 . S
C544 C550 1.368 . S
C545 C529 1.349 . S
C545 H537 0.950 . S
C545 C543 1.327 . S
C546 C534 1.349 . S
C546 H540 0.950 . S
C546 C547 1.327 . S
C547 H541 0.950 . S
C547 C546 1.327 . S
C547 C551 1.429 . S
C548 C531 1.574 . S
C548 H542 0.949 . S
C548 C552 1.368 . S
C549 C530 1.429 . S
C549 C543 1.429 . S
C549 C550 1.523 . S
C550 C531 1.368 . S
C550 C544 1.368 . S
C550 C549 1.523 . S
C551 C535 1.429 . S
C551 C547 1.429 . S
C551 C552 1.523 . S
C552 C536 1.368 . S
C552 C548 1.368 . S
C552 C551 1.523 . S
H553 C528 0.950 . S
H554 C530 0.950 . S
H555 C531 0.949 . S
H556 C533 0.950 . S
H557 C535 0.950 . S
C558 C559 1.349 . S
C558 C560 1.327 . S
C558 H583 0.950 . S
C559 C558 1.349 . S
C559 C575 1.349 . S
C560 C558 1.327 . S
C560 C579 1.429 . S
C560 H584 0.950 . S
C561 C578 1.574 . S
C561 C580 1.368 . S
C561 H585 0.949 . S
H562 C566 0.949 . S
C563 C564 1.349 . S
C563 C565 1.327 . S
C563 H586 0.950 . S
C564 C563 1.349 . S
C564 C576 1.349 . S
C565 C563 1.327 . S
C565 C581 1.429 . S
C565 H587 0.950 . S
C566 H562 0.949 . S
C566 C574 1.574 . S
C566 C582 1.368 . S
H567 C575 0.950 . S
H568 C573 0.950 . S
H569 C574 0.949 . S
H570 C576 0.950 . S
H571 C577 0.950 . S
H572 C578 0.949 . S
C573 H568 0.950 . S
C573 C575 1.327 . S
C573 C579 1.429 . S
C574 C566 1.574 . S
C574 H569 0.949 . S
C574 C580 1.368 . S
C575 C559 1.349 . S
C575 H567 0.950 . S
C575 C573 1.327 . S
C576 C564 1.349 . S
C576 H570 0.950 . S
C576 C577 1.327 . S
C577 H571 0.950 . S
C577 C576 1.327 . S
C577 C581 1.429 . S
C578 C561 1.574 . S
C578 H572 0.949 . S
C578 C582 1.368 . S
C579 C560 1.429 . S
C579 C573 1.429 . S
C579 C580 1.523 . S
C580 C561 1.368 . S
C580 C574 1.368 . S
C580 C579 1.523 . S
C581 C565 1.429 . S
C581 C577 1.429 . S
C581 C582 1.523 . S
C582 C566 1.368 . S
C582 C578 1.368 . S
C582 C581 1.523 . S
H583 C558 0.950 . S
H584 C560 0.950 . S
H585 C561 0.949 . S
H586 C563 0.950 . S
H587 C565 0.950 . S
C588 C589 1.349 . S
C588 C590 1.327 . S
C588 H613 0.950 . S
C589 C588 1.349 . S
C589 C605 1.349 . S
C590 C588 1.327 . S
C590 C609 1.429 . S
C590 H614 0.950 . S
C591 C608 1.574 . S
C591 C610 1.368 . S
C591 H615 0.949 . S
H592 C596 0.949 . S
C593 C594 1.349 . S
C593 C595 1.327 . S
C593 H616 0.950 . S
C594 C593 1.349 . S
C594 C606 1.349 . S
C595 C593 1.327 . S
C595 C611 1.429 . S
C595 H617 0.950 . S
C596 H592 0.949 . S
C596 C604 1.574 . S
C596 C612 1.368 . S
H597 C605 0.950 . S
H598 C603 0.950 . S
H599 C604 0.949 . S
H600 C606 0.950 . S
H601 C607 0.950 . S
H602 C608 0.949 . S
C603 H598 0.950 . S
C603 C605 1.327 . S
C603 C609 1.429 . S
C604 C596 1.574 . S
C604 H599 0.949 . S
C604 C610 1.368 . S
C605 C589 1.349 . S
C605 H597 0.950 . S
C605 C603 1.327 . S
C606 C594 1.349 . S
C606 H600 0.950 . S
C606 C607 1.327 . S
C607 H601 0.950 . S
C607 C606 1.327 . S
C607 C611 1.429 . S
C608 C591 1.574 . S
C608 H602 0.949 . S
C608 C612 1.368 . S
C609 C590 1.429 . S
C609 C603 1.429 . S
C609 C610 1.523 . S
C610 C591 1.368 . S
C610 C604 1.368 . S
C610 C609 1.523 . S
C611 C595 1.429 . S
C611 C607 1.429 . S
C611 C612 1.523 . S
C612 C596 1.368 . S
C612 C608 1.368 . S
C612 C611 1.523 . S
H613 C588 0.950 . S
H614 C590 0.950 . S
H615 C591 0.949 . S
H616 C593 0.950 . S
H617 C595 0.950 . S
C618 C619 1.349 . S
C618 C620 1.327 . S
C618 H643 0.950 . S
C619 C618 1.349 . S
C619 C635 1.349 . S
C620 C618 1.327 . S
C620 C639 1.429 . S
C620 H644 0.950 . S
C621 C638 1.574 . S
C621 C640 1.368 . S
C621 H645 0.949 . S
H622 C626 0.949 . S
C623 C624 1.349 . S
C623 C625 1.327 . S
C623 H646 0.950 . S
C624 C623 1.349 . S
C624 C636 1.349 . S
C625 C623 1.327 . S
C625 C641 1.429 . S
C625 H647 0.950 . S
C626 H622 0.949 . S
C626 C634 1.574 . S
C626 C642 1.368 . S
H627 C635 0.950 . S
H628 C633 0.950 . S
H629 C634 0.949 . S
H630 C636 0.950 . S
H631 C637 0.950 . S
H632 C638 0.949 . S
C633 H628 0.950 . S
C633 C635 1.327 . S
C633 C639 1.429 . S
C634 C626 1.574 . S
C634 H629 0.949 . S
C634 C640 1.368 . S
C635 C619 1.349 . S
C635 H627 0.950 . S
C635 C633 1.327 . S
C636 C624 1.349 . S
C636 H630 0.950 . S
C636 C637 1.327 . S
C637 H631 0.950 . S
C637 C636 1.327 . S
C637 C641 1.429 . S
C638 C621 1.574 . S
C638 H632 0.949 . S
C638 C642 1.368 . S
C639 C620 1.429 . S
C639 C633 1.429 . S
C639 C640 1.523 . S
C640 C621 1.368 . S
C640 C634 1.368 . S
C640 C639 1.523 . S
C641 C625 1.429 . S
C641 C637 1.429 . S
C641 C642 1.523 . S
C642 C626 1.368 . S
C642 C638 1.368 . S
C642 C641 1.523 . S
H643 C618 0.950 . S
H644 C620 0.950 . S
H645 C621 0.949 . S
H646 C623 0.950 . S
H647 C625 0.950 . S
C648 C649 1.349 . S
C648 C650 1.327 . S
C648 H673 0.950 . S
C649 C648 1.349 . S
C649 C665 1.349 . S
C650 C648 1.327 . S
C650 C669 1.429 . S
C650 H674 0.950 . S
C651 C668 1.574 . S
C651 C670 1.368 . S
C651 H675 0.949 . S
H652 C656 0.949 . S
C653 C654 1.349 . S
C653 C655 1.327 . S
C653 H676 0.950 . S
C654 C653 1.349 . S
C654 C666 1.349 . S
C655 C653 1.327 . S
C655 C671 1.429 . S
C655 H677 0.950 . S
C656 H652 0.949 . S
C656 C664 1.574 . S
C656 C672 1.368 . S
H657 C665 0.950 . S
H658 C663 0.950 . S
H659 C664 0.949 . S
H660 C666 0.950 . S
H661 C667 0.950 . S
H662 C668 0.949 . S
C663 H658 0.950 . S
C663 C665 1.327 . S
C663 C669 1.429 . S
C664 C656 1.574 . S
C664 H659 0.949 . S
C664 C670 1.368 . S
C665 C649 1.349 . S
C665 H657 0.950 . S
C665 C663 1.327 . S
C666 C654 1.349 . S
C666 H660 0.950 . S
C666 C667 1.327 . S
C667 H661 0.950 . S
C667 C666 1.327 . S
C667 C671 1.429 . S
C668 C651 1.574 . S
C668 H662 0.949 . S
C668 C672 1.368 . S
C669 C650 1.429 . S
C669 C663 1.429 . S
C669 C670 1.523 . S
C670 C651 1.368 . S
C670 C664 1.368 . S
C670 C669 1.523 . S
C671 C655 1.429 . S
C671 C667 1.429 . S
C671 C672 1.523 . S
C672 C656 1.368 . S
C672 C668 1.368 . S
C672 C671 1.523 . S
H673 C648 0.950 . S
H674 C650 0.950 . S
H675 C651 0.949 . S
H676 C653 0.950 . S
H677 C655 0.950 . S
C678 C679 1.349 . S
C678 C680 1.327 . S
C678 H703 0.950 . S
C679 C678 1.349 . S
C679 C695 1.349 . S
C680 C678 1.327 . S
C680 C699 1.429 . S
C680 H704 0.950 . S
C681 C698 1.574 . S
C681 C700 1.368 . S
C681 H705 0.949 . S
H682 C686 0.949 . S
C683 C684 1.349 . S
C683 C685 1.327 . S
C683 H706 0.950 . S
C684 C683 1.349 . S
C684 C696 1.349 . S
C685 C683 1.327 . S
C685 C701 1.429 . S
C685 H707 0.950 . S
C686 H682 0.949 . S
C686 C694 1.574 . S
C686 C702 1.368 . S
H687 C695 0.950 . S
H688 C693 0.950 . S
H689 C694 0.949 . S
H690 C696 0.950 . S
H691 C697 0.950 . S
H692 C698 0.949 . S
C693 H688 0.950 . S
C693 C695 1.327 . S
C693 C699 1.429 . S
C694 C686 1.574 . S
C694 H689 0.949 . S
C694 C700 1.368 . S
C695 C679 1.349 . S
C695 H687 0.950 . S
C695 C693 1.327 . S
C696 C684 1.349 . S
C696 H690 0.950 . S
C696 C697 1.327 . S
C697 H691 0.950 . S
C697 C696 1.327 . S
C697 C701 1.429 . S
C698 C681 1.574 . S
C698 H692 0.949 . S
C698 C702 1.368 . S
C699 C680 1.429 . S
C699 C693 1.429 . S
C699 C700 1.523 . S
C700 C681 1.368 . S
C700 C694 1.368 . S
C700 C699 1.523 . S
C701 C685 1.429 . S
C701 C697 1.429 . S
C701 C702 1.523 . S
C702 C686 1.368 . S
C702 C698 1.368 . S
C702 C701 1.523 . S
H703 C678 0.950 . S
H704 C680 0.950 . S
H705 C681 0.949 . S
H706 C683 0.950 . S
H707 C685 0.950 . S
C708 C709 1.349 . S
C708 C710 1.327 . S
C708 H733 0.950 . S
C709 C708 1.349 . S
C709 C725 1.349 . S
C710 C708 1.327 . S
C710 C729 1.429 . S
C710 H734 0.950 . S
C711 C728 1.574 . S
C711 C730 1.368 . S
C711 H735 0.949 . S
H712 C716 0.949 . S
C713 C714 1.349 . S
C713 C715 1.327 . S
C713 H736 0.950 . S
C714 C713 1.349 . S
C714 C726 1.349 . S
C715 C713 1.327 . S
C715 C731 1.429 . S
C715 H737 0.950 . S
C716 H712 0.949 . S
C716 C724 1.574 . S
C716 C732 1.368 . S
H717 C725 0.950 . S
H718 C723 0.950 . S
H719 C724 0.949 . S
H720 C726 0.950 . S
H721 C727 0.950 . S
H722 C728 0.949 . S
C723 H718 0.950 . S
C723 C725 1.327 . S
C723 C729 1.429 . S
C724 C716 1.574 . S
C724 H719 0.949 . S
C724 C730 1.368 . S
C725 C709 1.349 . S
C725 H717 0.950 . S
C725 C723 1.327 . S
C726 C714 1.349 . S
C726 H720 0.950 . S
C726 C727 1.327 . S
C727 H721 0.950 . S
C727 C726 1.327 . S
C727 C731 1.429 . S
C728 C711 1.574 . S
C728 H722 0.949 . S
C728 C732 1.368 . S
C729 C710 1.429 . S
C729 C723 1.429 . S
C729 C730 1.523 . S
C730 C711 1.368 . S
C730 C724 1.368 . S
C730 C729 1.523 . S
C731 C715 1.429 . S
C731 C727 1.429 . S
C731 C732 1.523 . S
C732 C716 1.368 . S
C732 C728 1.368 . S
C732 C731 1.523 . S
H733 C708 0.950 . S
H734 C710 0.950 . S
H735 C711 0.949 . S
H736 C713 0.950 . S
H737 C715 0.950 . S
C738 C739 1.349 . S
C738 C740 1.327 . S
C738 H763 0.950 . S
C739 C738 1.349 . S
C739 C755 1.349 . S
C740 C738 1.327 . S
C740 C759 1.429 . S
C740 H764 0.950 . S
C741 C758 1.574 . S
C741 C760 1.368 . S
C741 H765 0.949 . S
H742 C746 0.949 . S
C743 C744 1.349 . S
C743 C745 1.327 . S
C743 H766 0.950 . S
C744 C743 1.349 . S
C744 C756 1.349 . S
C745 C743 1.327 . S
C745 C761 1.429 . S
C745 H767 0.950 . S
C746 H742 0.949 . S
C746 C754 1.574 . S
C746 C762 1.368 . S
H747 C755 0.950 . S
H748 C753 0.950 . S
H749 C754 0.949 . S
H750 C756 0.950 . S
H751 C757 0.950 . S
H752 C758 0.949 . S
C753 H748 0.950 . S
C753 C755 1.327 . S
C753 C759 1.429 . S
C754 C746 1.574 . S
C754 H749 0.949 . S
C754 C760 1.368 1_455 S
C755 C739 1.349 . S
C755 H747 0.950 . S
C755 C753 1.327 . S
C756 C744 1.349 . S
C756 H750 0.950 . S
C756 C757 1.327 . S
C757 H751 0.950 . S
C757 C756 1.327 . S
C757 C761 1.429 . S
C758 C741 1.574 . S
C758 H752 0.949 . S
C758 C762 1.368 1_655 S
C759 C740 1.429 . S
C759 C753 1.429 . S
C759 C760 1.523 . S
C760 C741 1.368 . S
C760 C754 1.368 1_655 S
C760 C759 1.523 . S
C761 C745 1.429 . S
C761 C757 1.429 . S
C761 C762 1.523 . S
C762 C746 1.368 . S
C762 C758 1.368 1_455 S
C762 C761 1.523 . S
H763 C738 0.950 . S
H764 C740 0.950 . S
H765 C741 0.949 . S
H766 C743 0.950 . S
H767 C745 0.950 . S
C768 C769 1.349 . S
C768 C770 1.327 . S
C768 H793 0.950 . S
C769 C768 1.349 . S
C769 C785 1.349 . S
C770 C768 1.327 . S
C770 C789 1.429 . S
C770 H794 0.950 . S
C771 C788 1.574 . S
C771 C790 1.368 . S
C771 H795 0.949 . S
H772 C776 0.949 . S
C773 C774 1.349 . S
C773 C775 1.327 . S
C773 H796 0.950 . S
C774 C773 1.349 . S
C774 C786 1.349 . S
C775 C773 1.327 . S
C775 C791 1.429 . S
C775 H797 0.950 . S
C776 H772 0.949 . S
C776 C784 1.574 . S
C776 C792 1.368 . S
H777 C785 0.950 . S
H778 C783 0.950 . S
H779 C784 0.949 . S
H780 C786 0.950 . S
H781 C787 0.950 . S
H782 C788 0.949 . S
C783 H778 0.950 . S
C783 C785 1.327 . S
C783 C789 1.429 . S
C784 C776 1.574 . S
C784 H779 0.949 . S
C784 C790 1.368 1_565 S
C785 C769 1.349 . S
C785 H777 0.950 . S
C785 C783 1.327 . S
C786 C774 1.349 . S
C786 H780 0.950 . S
C786 C787 1.327 . S
C787 H781 0.950 . S
C787 C786 1.327 . S
C787 C791 1.429 . S
C788 C771 1.574 . S
C788 H782 0.949 . S
C788 C792 1.368 1_545 S
C789 C770 1.429 . S
C789 C783 1.429 . S
C789 C790 1.523 . S
C790 C771 1.368 . S
C790 C784 1.368 1_545 S
C790 C789 1.523 . S
C791 C775 1.429 . S
C791 C787 1.429 . S
C791 C792 1.523 . S
C792 C776 1.368 . S
C792 C788 1.368 1_565 S
C792 C791 1.523 . S
H793 C768 0.950 . S
H794 C770 0.950 . S
H795 C771 0.949 . S
H796 C773 0.950 . S
H797 C775 0.950 . S
C798 C799 1.349 . S
C798 C800 1.327 . S
C798 H823 0.950 . S
C799 C798 1.349 . S
C799 C815 1.349 . S
C800 C798 1.327 . S
C800 C819 1.429 . S
C800 H824 0.950 . S
C801 C818 1.574 . S
C801 C820 1.368 . S
C801 H825 0.949 . S
H802 C806 0.949 . S
C803 C804 1.349 . S
C803 C805 1.327 . S
C803 H826 0.950 . S
C804 C803 1.349 . S
C804 C816 1.349 . S
C805 C803 1.327 . S
C805 C821 1.429 . S
C805 H827 0.950 . S
C806 H802 0.949 . S
C806 C814 1.574 . S
C806 C822 1.368 . S
H807 C815 0.950 . S
H808 C813 0.950 . S
H809 C814 0.949 . S
H810 C816 0.950 . S
H811 C817 0.950 . S
H812 C818 0.949 . S
C813 H808 0.950 . S
C813 C815 1.327 . S
C813 C819 1.429 . S
C814 C806 1.574 . S
C814 H809 0.949 . S
C814 C820 1.368 . S
C815 C799 1.349 . S
C815 H807 0.950 . S
C815 C813 1.327 . S
C816 C804 1.349 . S
C816 H810 0.950 . S
C816 C817 1.327 . S
C817 H811 0.950 . S
C817 C816 1.327 . S
C817 C821 1.429 . S
C818 C801 1.574 . S
C818 H812 0.949 . S
C818 C822 1.368 . S
C819 C800 1.429 . S
C819 C813 1.429 . S
C819 C820 1.523 . S
C820 C801 1.368 . S
C820 C814 1.368 . S
C820 C819 1.523 . S
C821 C805 1.429 . S
C821 C817 1.429 . S
C821 C822 1.523 . S
C822 C806 1.368 . S
C822 C818 1.368 . S
C822 C821 1.523 . S
H823 C798 0.950 . S
H824 C800 0.950 . S
H825 C801 0.949 . S
H826 C803 0.950 . S
H827 C805 0.950 . S
C828 C829 1.349 . S
C828 C830 1.327 . S
C828 H853 0.950 . S
C829 C828 1.349 . S
C829 C845 1.349 . S
C830 C828 1.327 . S
C830 C849 1.429 . S
C830 H854 0.950 . S
C831 C848 1.574 . S
C831 C850 1.368 1_655 S
C831 H855 0.949 . S
H832 C836 0.949 . S
C833 C834 1.349 . S
C833 C835 1.327 . S
C833 H856 0.950 . S
C834 C833 1.349 . S
C834 C846 1.349 . S
C835 C833 1.327 . S
C835 C851 1.429 . S
C835 H857 0.950 . S
C836 H832 0.949 . S
C836 C844 1.574 . S
C836 C852 1.368 1_455 S
H837 C845 0.950 . S
H838 C843 0.950 . S
H839 C844 0.949 . S
H840 C846 0.950 . S
H841 C847 0.950 . S
H842 C848 0.949 . S
C843 H838 0.950 . S
C843 C845 1.327 . S
C843 C849 1.429 . S
C844 C836 1.574 . S
C844 H839 0.949 . S
C844 C850 1.368 . S
C845 C829 1.349 . S
C845 H837 0.950 . S
C845 C843 1.327 . S
C846 C834 1.349 . S
C846 H840 0.950 . S
C846 C847 1.327 . S
C847 H841 0.950 . S
C847 C846 1.327 . S
C847 C851 1.429 . S
C848 C831 1.574 . S
C848 H842 0.949 . S
C848 C852 1.368 . S
C849 C830 1.429 . S
C849 C843 1.429 . S
C849 C850 1.523 . S
C850 C831 1.368 1_455 S
C850 C844 1.368 . S
C850 C849 1.523 . S
C851 C835 1.429 . S
C851 C847 1.429 . S
C851 C852 1.523 . S
C852 C836 1.368 1_655 S
C852 C848 1.368 . S
C852 C851 1.523 . S
H853 C828 0.950 . S
H854 C830 0.950 . S
H855 C831 0.949 . S
H856 C833 0.950 . S
H857 C835 0.950 . S
C858 C859 1.349 . S
C858 C860 1.327 . S
C858 H883 0.950 . S
C859 C858 1.349 . S
C859 C875 1.349 . S
C860 C858 1.327 . S
C860 C879 1.429 . S
C860 H884 0.950 . S
C861 C878 1.574 . S
C861 C880 1.368 . S
C861 H885 0.949 . S
H862 C866 0.949 . S
C863 C864 1.349 . S
C863 C865 1.327 . S
C863 H886 0.950 . S
C864 C863 1.349 . S
C864 C876 1.349 . S
C865 C863 1.327 . S
C865 C881 1.429 . S
C865 H887 0.950 . S
C866 H862 0.949 . S
C866 C874 1.574 . S
C866 C882 1.368 . S
H867 C875 0.950 . S
H868 C873 0.950 . S
H869 C874 0.949 . S
H870 C876 0.950 . S
H871 C877 0.950 . S
H872 C878 0.949 . S
C873 H868 0.950 . S
C873 C875 1.327 . S
C873 C879 1.429 . S
C874 C866 1.574 . S
C874 H869 0.949 . S
C874 C880 1.368 1_545 S
C875 C859 1.349 . S
C875 H867 0.950 . S
C875 C873 1.327 . S
C876 C864 1.349 . S
C876 H870 0.950 . S
C876 C877 1.327 . S
C877 H871 0.950 . S
C877 C876 1.327 . S
C877 C881 1.429 . S
C878 C861 1.574 . S
C878 H872 0.949 . S
C878 C882 1.368 1_565 S
C879 C860 1.429 . S
C879 C873 1.429 . S
C879 C880 1.523 . S
C880 C861 1.368 . S
C880 C874 1.368 1_565 S
C880 C879 1.523 . S
C881 C865 1.429 . S
C881 C877 1.429 . S
C881 C882 1.523 . S
C882 C866 1.368 . S
C882 C878 1.368 1_545 S
C882 C881 1.523 . S
H883 C858 0.950 . S
H884 C860 0.950 . S
H885 C861 0.949 . S
H886 C863 0.950 . S
H887 C865 0.950 . S
C169 C107 1.285 . S
C174 C9 1.285 . S
C199 C23 1.285 . S
C204 C121 1.285 . S
C229 C37 1.285 . S
C234 C135 1.285 . S
C259 C51 1.285 . S
C264 C149 1.285 . S
C289 C163 1.285 . S
C294 C65 1.285 . S
C319 C93 1.285 . S
C324 C79 1.285 . S
C349 C143 1.339 . S
C354 C3 1.339 . S
C379 C17 1.339 . S
C384 C157 1.339 . S
C409 C31 1.339 . S
C414 C87 1.339 . S
C439 C101 1.339 . S
C444 C45 1.339 . S
C469 C115 1.339 . S
C474 C59 1.339 . S
C499 C129 1.339 . S
C504 C73 1.339 . S
C529 C7 1.667 . S
C534 C119 1.667 . S
C559 C21 1.667 . S
C564 C133 1.667 . S
C589 C147 1.666 . S
C594 C35 1.666 . S
C619 C49 1.667 . S
C624 C161 1.667 . S
C649 C91 1.667 . S
C654 C63 1.667 . S
C679 C105 1.667 . S
C684 C77 1.667 . S
C709 C50 1.335 . S
C714 C8 1.335 . S
C739 C64 1.335 . S
C744 C22 1.335 . S
C769 C36 1.335 . S
C774 C78 1.335 . S
C799 C92 1.335 . S
C804 C134 1.335 . S
C829 C106 1.335 . S
C834 C148 1.335 . S
C859 C162 1.335 . S
C864 C120 1.335 . S
