# Generated by pormake.
# Topology fnw, (5)-cn, num edge types: 1
# Building blocks:
#     Node 0, Type 0, BuildingBlock: BEQFEK_clean_sbu_0, # of connection points: 5
#     Node 1, Type 0, BuildingBlock: BEQFEK_clean_sbu_0, # of connection points: 5
#     Node 2, Type 0, BuildingBlock: BEQFEK_clean_sbu_0, # of connection points: 5
#     Node 3, Type 0, BuildingBlock: BEQFEK_clean_sbu_0, # of connection points: 5
#     Node 4, Type 0, BuildingBlock: BEQFEK_clean_sbu_0, # of connection points: 5
#     Node 5, Type 0, BuildingBlock: BEQFEK_clean_sbu_0, # of connection points: 5
#     Node 6, Type 0, BuildingBlock: BEQFEK_clean_sbu_0, # of connection points: 5
#     Node 7, Type 0, BuildingBlock: BEQFEK_clean_sbu_0, # of connection points: 5
#     Node 8, Type 0, BuildingBlock: BEQFEK_clean_sbu_0, # of connection points: 5
#     Node 9, Type 0, BuildingBlock: BEQFEK_clean_sbu_0, # of connection points: 5
#     Node 10, Type 0, BuildingBlock: BEQFEK_clean_sbu_0, # of connection points: 5
#     Node 11, Type 0, BuildingBlock: BEQFEK_clean_sbu_0, # of connection points: 5
#     Edge 12, Type (0, 0), BuildingBlock: MIFKUJ_clean_linker_0, # of connection points: 2
#     Edge 13, Type (0, 0), BuildingBlock: MIFKUJ_clean_linker_0, # of connection points: 2
#     Edge 14, Type (0, 0), BuildingBlock: MIFKUJ_clean_linker_0, # of connection points: 2
#     Edge 15, Type (0, 0), BuildingBlock: MIFKUJ_clean_linker_0, # of connection points: 2
#     Edge 16, Type (0, 0), BuildingBlock: MIFKUJ_clean_linker_0, # of connection points: 2
#     Edge 17, Type (0, 0), BuildingBlock: MIFKUJ_clean_linker_0, # of connection points: 2
#     Edge 18, Type (0, 0), BuildingBlock: MIFKUJ_clean_linker_0, # of connection points: 2
#     Edge 19, Type (0, 0), BuildingBlock: MIFKUJ_clean_linker_0, # of connection points: 2
#     Edge 20, Type (0, 0), BuildingBlock: MIFKUJ_clean_linker_0, # of connection points: 2
#     Edge 21, Type (0, 0), BuildingBlock: MIFKUJ_clean_linker_0, # of connection points: 2
#     Edge 22, Type (0, 0), BuildingBlock: MIFKUJ_clean_linker_0, # of connection points: 2
#     Edge 23, Type (0, 0), BuildingBlock: MIFKUJ_clean_linker_0, # of connection points: 2
#     Edge 24, Type (0, 0), BuildingBlock: MIFKUJ_clean_linker_0, # of connection points: 2
#     Edge 25, Type (0, 0), BuildingBlock: MIFKUJ_clean_linker_0, # of connection points: 2
#     Edge 26, Type (0, 0), BuildingBlock: MIFKUJ_clean_linker_0, # of connection points: 2
#     Edge 27, Type (0, 0), BuildingBlock: MIFKUJ_clean_linker_0, # of connection points: 2
#     Edge 28, Type (0, 0), BuildingBlock: MIFKUJ_clean_linker_0, # of connection points: 2
#     Edge 29, Type (0, 0), BuildingBlock: MIFKUJ_clean_linker_0, # of connection points: 2
#     Edge 30, Type (0, 0), BuildingBlock: MIFKUJ_clean_linker_0, # of connection points: 2
#     Edge 31, Type (0, 0), BuildingBlock: MIFKUJ_clean_linker_0, # of connection points: 2
#     Edge 32, Type (0, 0), BuildingBlock: MIFKUJ_clean_linker_0, # of connection points: 2
#     Edge 33, Type (0, 0), BuildingBlock: MIFKUJ_clean_linker_0, # of connection points: 2
#     Edge 34, Type (0, 0), BuildingBlock: MIFKUJ_clean_linker_0, # of connection points: 2
#     Edge 35, Type (0, 0), BuildingBlock: MIFKUJ_clean_linker_0, # of connection points: 2
#     Edge 36, Type (0, 0), BuildingBlock: MIFKUJ_clean_linker_0, # of connection points: 2
#     Edge 37, Type (0, 0), BuildingBlock: MIFKUJ_clean_linker_0, # of connection points: 2
#     Edge 38, Type (0, 0), BuildingBlock: MIFKUJ_clean_linker_0, # of connection points: 2
#     Edge 39, Type (0, 0), BuildingBlock: MIFKUJ_clean_linker_0, # of connection points: 2
#     Edge 40, Type (0, 0), BuildingBlock: MIFKUJ_clean_linker_0, # of connection points: 2
#     Edge 41, Type (0, 0), BuildingBlock: MIFKUJ_clean_linker_0, # of connection points: 2
# Relax obj value: 0.202
# Max RMSD: 0.125
# Mean RMSD: 0.125
data_MOF--net-fnw--node1-BEQFEK_clean_sbu_0--edge1-MIFKUJ_clean_linker_0
_symmetry_space_group_name_H-M    P1
_symmetry_Int_Tables_number       1
_symmetry_cell_setting            triclinic
loop_
_symmetry_equiv_pos_as_xyz
'x, y, z'
_cell_length_a     69.076841
_cell_length_b     69.068309
_cell_length_c     39.517066
_cell_angle_alpha  90.015763
_cell_angle_beta   89.990566
_cell_angle_gamma 119.9995
loop_
_atom_site_label
_atom_site_type_symbol
_atom_site_fract_x
_atom_site_fract_y
_atom_site_fract_z
_atom_type_partial_charge
Co0 Co 0.24895 0.48565 0.23772 0.0
Co1 Co 0.26936 0.45412 0.24222 0.0
C2 C 0.24237 0.45311 0.18207 0.0
O3 O 0.23939 0.46826 0.19527 0.0
O4 O 0.25353 0.44556 0.19738 0.0
C5 C 0.21709 0.50265 0.23385 0.0
O6 O 0.20107 0.48271 0.22477 0.0
C7 C 0.27771 0.4157 0.24212 0.0
C8 C 0.30401 0.42724 0.28131 0.0
C9 C 0.29159 0.40979 0.25926 0.0
N10 N 0.28173 0.43569 0.25382 0.0
N11 N 0.29757 0.44249 0.27706 0.0
C12 C 0.2604 0.40238 0.21608 0.0
H13 H 0.26768 0.40817 0.19052 0.0
H14 H 0.24592 0.40508 0.21875 0.0
H15 H 0.25471 0.3843 0.21844 0.0
C16 C 0.23166 0.46631 0.30517 0.0
N17 N 0.24198 0.46697 0.27594 0.0
N18 N 0.24996 0.45323 0.27785 0.0
C19 C 0.24444 0.44299 0.30832 0.0
C20 C 0.23287 0.45112 0.32676 0.0
C21 C 0.22195 0.48094 0.31282 0.0
H22 H 0.23507 0.49874 0.30989 0.0
H23 H 0.2085 0.47738 0.29435 0.0
H24 H 0.21482 0.47808 0.3387 0.0
O25 O 0.28119 0.50645 0.23617 0.0
O26 O 0.29617 0.4847 0.23855 0.0
H27 H 0.26987 0.43756 0.32899 0.0
H28 H 0.24221 0.41777 0.34318 0.0
C29 C 0.25214 0.42757 0.32107 0.0
H30 H 0.25075 0.41589 0.30073 0.0
H31 H 0.30398 0.45761 0.29005 0.0
O32 O 0.23644 0.50581 0.24054 0.0
C33 C 0.29824 0.50403 0.23659 0.0
Co34 Co 0.76713 0.24978 0.72824 0.0
Co35 Co 0.81949 0.27457 0.72493 0.0
C36 C 0.79054 0.24292 0.66988 0.0
O37 O 0.77262 0.2385 0.68537 0.0
O38 O 0.80972 0.25647 0.68224 0.0
C39 C 0.71916 0.21979 0.72024 0.0
O40 O 0.72436 0.2105 0.69551 0.0
C41 C 0.86506 0.28026 0.72859 0.0
C42 C 0.88542 0.31712 0.73038 0.0
C43 C 0.88694 0.2979 0.72965 0.0
N44 N 0.85127 0.28877 0.7287 0.0
N45 N 0.86361 0.3108 0.72998 0.0
C46 C 0.85744 0.25594 0.72508 0.0
H47 H 0.83923 0.24622 0.71977 0.0
H48 H 0.86093 0.24974 0.74888 0.0
H49 H 0.86691 0.25344 0.70449 0.0
C50 C 0.77553 0.2376 0.7957 0.0
N51 N 0.7828 0.24638 0.76479 0.0
N52 N 0.80481 0.25735 0.76444 0.0
C53 C 0.81224 0.25623 0.79561 0.0
C54 C 0.79389 0.24363 0.81648 0.0
C55 C 0.75139 0.22494 0.80554 0.0
H56 H 0.74157 0.21284 0.7853 0.0
H57 H 0.74892 0.21579 0.8297 0.0
H58 H 0.74507 0.2368 0.80832 0.0
O59 O 0.77615 0.28171 0.72383 0.0
O60 O 0.8131 0.29941 0.72079 0.0
H61 H 0.8438 0.28675 0.79522 0.0
H62 H 0.83772 0.27136 0.83443 0.0
C63 C 0.83614 0.26981 0.80649 0.0
H64 H 0.84547 0.26164 0.79731 0.0
H65 H 0.85715 0.3216 0.73003 0.0
O66 O 0.73465 0.23535 0.73749 0.0
C67 C 0.79484 0.29968 0.72113 0.0
Co68 Co 0.51887 0.76208 0.23521 0.0
Co69 Co 0.54766 0.81455 0.23832 0.0
C70 C 0.54947 0.78953 0.17806 0.0
O71 O 0.53516 0.77116 0.19169 0.0
O72 O 0.55664 0.80816 0.19337 0.0
C73 C 0.49827 0.71596 0.21436 0.0
O74 O 0.50655 0.7245 0.18456 0.0
C75 C 0.5848 0.86176 0.23906 0.0
C76 C 0.5708 0.87652 0.2742 0.0
C77 C 0.58943 0.88167 0.25473 0.0
N78 N 0.56441 0.84565 0.24908 0.0
N79 N 0.55614 0.85466 0.26989 0.0
C80 C 0.5998 0.8577 0.21652 0.0
H81 H 0.59655 0.84038 0.21996 0.0
H82 H 0.61763 0.86983 0.22187 0.0
H83 H 0.59619 0.85965 0.18977 0.0
C84 C 0.54036 0.76645 0.30115 0.0
N85 N 0.53842 0.77541 0.27205 0.0
N86 N 0.55067 0.79734 0.27373 0.0
C87 C 0.56098 0.80298 0.30413 0.0
C88 C 0.55461 0.78358 0.32262 0.0
C89 C 0.52742 0.74199 0.30904 0.0
H90 H 0.50937 0.73656 0.31074 0.0
H91 H 0.52959 0.73247 0.28821 0.0
H92 H 0.53298 0.73808 0.33315 0.0
O93 O 0.49587 0.77091 0.23559 0.0
O94 O 0.5161 0.80791 0.23561 0.0
H95 H 0.56268 0.83297 0.3219 0.0
H96 H 0.58315 0.82748 0.3407 0.0
C97 C 0.57419 0.82647 0.31693 0.0
H98 H 0.58649 0.83715 0.29753 0.0
H99 H 0.54047 0.8458 0.28137 0.0
O100 O 0.50226 0.72898 0.23939 0.0
C101 C 0.49723 0.78996 0.23528 0.0
Co102 Co 0.74749 0.5143 0.73674 0.0
Co103 Co 0.72535 0.54435 0.7381 0.0
C104 C 0.7533 0.54616 0.67975 0.0
O105 O 0.75706 0.53174 0.69386 0.0
O106 O 0.74109 0.55289 0.69382 0.0
C107 C 0.7795 0.49888 0.72555 0.0
O108 O 0.78995 0.51582 0.70467 0.0
C109 C 0.71603 0.58203 0.73827 0.0
C110 C 0.69047 0.5704 0.77868 0.0
C111 C 0.70275 0.58799 0.75683 0.0
N112 N 0.71193 0.56186 0.74912 0.0
N113 N 0.69643 0.55492 0.77291 0.0
C114 C 0.73328 0.59572 0.71238 0.0
H115 H 0.74839 0.59422 0.71616 0.0
H116 H 0.7378 0.61355 0.71371 0.0
H117 H 0.72654 0.58912 0.68684 0.0
C118 C 0.76282 0.53439 0.80438 0.0
N119 N 0.75308 0.53309 0.77431 0.0
N120 N 0.74501 0.54677 0.77416 0.0
C121 C 0.75026 0.55797 0.80379 0.0
C122 C 0.76139 0.55027 0.82422 0.0
C123 C 0.77049 0.51852 0.81511 0.0
H124 H 0.75899 0.50159 0.80497 0.0
H125 H 0.78738 0.52423 0.80452 0.0
H126 H 0.77116 0.51743 0.84304 0.0
O127 O 0.71547 0.49215 0.73523 0.0
O128 O 0.69959 0.51321 0.73475 0.0
H129 H 0.72761 0.56828 0.82173 0.0
H130 H 0.7564 0.58712 0.83245 0.0
C131 C 0.74504 0.57597 0.81239 0.0
H132 H 0.74684 0.5861 0.78963 0.0
H133 H 0.69034 0.53982 0.78585 0.0
O134 O 0.76239 0.49633 0.74144 0.0
C135 C 0.69814 0.49411 0.73435 0.0
Co136 Co 0.23877 0.75609 0.23706 0.0
Co137 Co 0.18646 0.73315 0.2432 0.0
C138 C 0.21063 0.75968 0.18194 0.0
O139 O 0.22934 0.76403 0.19462 0.0
O140 O 0.19235 0.74787 0.1979 0.0
C141 C 0.28283 0.77356 0.21255 0.0
O142 O 0.27202 0.76651 0.18375 0.0
C143 C 0.13842 0.72165 0.24614 0.0
C144 C 0.12527 0.69142 0.2781 0.0
C145 C 0.11887 0.70446 0.26009 0.0
N146 N 0.15557 0.71874 0.25552 0.0
N147 N 0.14751 0.70077 0.2749 0.0
C148 C 0.14043 0.73948 0.22253 0.0
H149 H 0.15688 0.74784 0.20977 0.0
H150 H 0.13868 0.75223 0.23718 0.0
H151 H 0.12683 0.73226 0.20342 0.0
C152 C 0.23617 0.7743 0.30331 0.0
N153 N 0.2265 0.76279 0.2749 0.0
N154 N 0.20465 0.7535 0.2776 0.0
C155 C 0.19973 0.7589 0.30796 0.0
C156 C 0.21957 0.77217 0.32537 0.0
C157 C 0.26083 0.78617 0.30967 0.0
H158 H 0.26974 0.79686 0.2876 0.0
H159 H 0.26538 0.79672 0.33275 0.0
H160 H 0.26631 0.77365 0.31251 0.0
O161 O 0.22933 0.72402 0.23653 0.0
O162 O 0.19252 0.70799 0.24031 0.0
H163 H 0.16947 0.731 0.32584 0.0
H164 H 0.176 0.75699 0.34577 0.0
C165 C 0.17647 0.74916 0.32155 0.0
H166 H 0.16581 0.75133 0.30271 0.0
H167 H 0.15716 0.6945 0.28522 0.0
O168 O 0.27185 0.77172 0.23934 0.0
C169 C 0.21013 0.70658 0.2379 0.0
Co170 Co 0.48203 0.23413 0.73078 0.0
Co171 Co 0.45654 0.18171 0.72961 0.0
C172 C 0.45245 0.20851 0.67278 0.0
O173 O 0.46539 0.22699 0.68744 0.0
O174 O 0.44757 0.18985 0.68632 0.0
C175 C 0.49779 0.2815 0.72007 0.0
O176 O 0.48447 0.27516 0.69365 0.0
C177 C 0.41824 0.13532 0.73403 0.0
C178 C 0.43635 0.11665 0.73934 0.0
C179 C 0.41513 0.1139 0.73695 0.0
N180 N 0.44035 0.15 0.73468 0.0
N181 N 0.45102 0.13868 0.738 0.0
C182 C 0.40074 0.14169 0.72847 0.0
H183 H 0.40842 0.15921 0.71943 0.0
H184 H 0.39197 0.14022 0.75266 0.0
H185 H 0.38816 0.13015 0.70996 0.0
C186 C 0.46062 0.22583 0.79774 0.0
N187 N 0.46301 0.2184 0.76744 0.0
N188 N 0.45291 0.19642 0.76794 0.0
C189 C 0.4442 0.18918 0.79905 0.0
C190 C 0.44875 0.20761 0.81898 0.0
C191 C 0.47067 0.25005 0.80654 0.0
H192 H 0.4679 0.259 0.78548 0.0
H193 H 0.4633 0.25237 0.83007 0.0
H194 H 0.48898 0.25745 0.80997 0.0
O195 O 0.50634 0.22676 0.72791 0.0
O196 O 0.48819 0.18974 0.72606 0.0
H197 H 0.4351 0.16454 0.83894 0.0
H198 H 0.41756 0.15535 0.80189 0.0
C199 C 0.43501 0.1656 0.81095 0.0
H200 H 0.44501 0.15853 0.80035 0.0
H201 H 0.46836 0.14597 0.73894 0.0
O202 O 0.49814 0.2668 0.73898 0.0
C203 C 0.50635 0.20838 0.72607 0.0
Co204 Co 0.51594 0.75154 0.7711 0.0
Co205 Co 0.5425 0.72574 0.76989 0.0
C206 C 0.54685 0.75552 0.82786 0.0
O207 O 0.53292 0.76008 0.8141 0.0
O208 O 0.55265 0.74266 0.81343 0.0
C209 C 0.49914 0.78171 0.78603 0.0
O210 O 0.51103 0.78656 0.8139 0.0
C211 C 0.57976 0.71614 0.76703 0.0
C212 C 0.56357 0.68426 0.73869 0.0
C213 C 0.58363 0.69989 0.75315 0.0
N214 N 0.55841 0.71038 0.76069 0.0
N215 N 0.54881 0.69121 0.74407 0.0
C216 C 0.59631 0.73753 0.78373 0.0
H217 H 0.59155 0.75051 0.77965 0.0
H218 H 0.6134 0.74343 0.77383 0.0
H219 H 0.59628 0.73465 0.81136 0.0
C220 C 0.53713 0.76633 0.70422 0.0
N221 N 0.53472 0.75581 0.73387 0.0
N222 N 0.54583 0.74494 0.73285 0.0
C223 C 0.55573 0.74825 0.70227 0.0
C224 C 0.55045 0.76185 0.68305 0.0
C225 C 0.52577 0.77933 0.69579 0.0
H226 H 0.52851 0.79124 0.71657 0.0
H227 H 0.53215 0.78875 0.67177 0.0
H228 H 0.5075 0.76767 0.69358 0.0
O229 O 0.49203 0.72001 0.77326 0.0
O230 O 0.51072 0.70168 0.77431 0.0
H231 H 0.55551 0.71794 0.69068 0.0
H232 H 0.57391 0.741 0.66411 0.0
C233 C 0.56739 0.73619 0.6902 0.0
H234 H 0.58147 0.73986 0.70745 0.0
H235 H 0.53226 0.6831 0.73574 0.0
O236 O 0.49988 0.76827 0.76482 0.0
C237 C 0.49236 0.70179 0.77476 0.0
Co238 Co 0.76598 0.51877 0.27317 0.0
Co239 Co 0.81846 0.54557 0.27015 0.0
C240 C 0.79381 0.55079 0.32837 0.0
O241 O 0.77502 0.53731 0.31488 0.0
O242 O 0.81224 0.55561 0.31402 0.0
C243 C 0.71887 0.50104 0.28947 0.0
O244 O 0.72578 0.51188 0.31826 0.0
C245 C 0.86717 0.58043 0.26677 0.0
C246 C 0.87858 0.56252 0.2332 0.0
C247 C 0.88602 0.58236 0.25071 0.0
N248 N 0.84948 0.56039 0.25869 0.0
N249 N 0.85653 0.54986 0.2387 0.0
C250 C 0.86604 0.5968 0.29031 0.0
H251 H 0.85163 0.5882 0.30771 0.0
H252 H 0.86385 0.60914 0.27528 0.0
H253 H 0.88169 0.60586 0.30524 0.0
C254 C 0.77175 0.53737 0.20417 0.0
N255 N 0.78005 0.53612 0.2344 0.0
N256 N 0.80197 0.54846 0.23379 0.0
C257 C 0.8083 0.55858 0.20339 0.0
C258 C 0.7894 0.55173 0.18338 0.0
C259 C 0.74775 0.52271 0.19437 0.0
H260 H 0.74161 0.50554 0.20407 0.0
H261 H 0.7376 0.52926 0.20617 0.0
H262 H 0.74536 0.52184 0.16657 0.0
O263 O 0.77352 0.49493 0.27788 0.0
O264 O 0.81047 0.51375 0.2749 0.0
H265 H 0.84038 0.56499 0.18656 0.0
H266 H 0.83287 0.58511 0.17192 0.0
C267 C 0.83201 0.57455 0.19367 0.0
H268 H 0.84104 0.58551 0.21541 0.0
H269 H 0.84621 0.53396 0.22869 0.0
O270 O 0.73313 0.50277 0.2676 0.0
C271 C 0.79215 0.4954 0.27789 0.0
Co272 Co 0.24886 0.76701 0.7698 0.0
Co273 Co 0.27413 0.81938 0.77524 0.0
C274 C 0.24254 0.79046 0.82927 0.0
O275 O 0.23854 0.77278 0.81338 0.0
O276 O 0.25587 0.80982 0.81736 0.0
C277 C 0.21535 0.7196 0.77474 0.0
O278 O 0.20464 0.72566 0.79581 0.0
C279 C 0.28341 0.86649 0.77685 0.0
C280 C 0.31917 0.88405 0.76283 0.0
C281 C 0.30185 0.88766 0.77182 0.0
N282 N 0.28971 0.8512 0.7711 0.0
N283 N 0.31107 0.86189 0.7626 0.0
C284 C 0.26057 0.86087 0.78841 0.0
H285 H 0.25154 0.84381 0.7993 0.0
H286 H 0.25089 0.86141 0.76639 0.0
H287 H 0.26168 0.87327 0.80734 0.0
C288 C 0.2366 0.77689 0.70341 0.0
N289 N 0.24564 0.78342 0.73433 0.0
N290 N 0.25653 0.80541 0.73591 0.0
C291 C 0.25485 0.81358 0.70571 0.0
C292 C 0.2422 0.79575 0.68407 0.0
C293 C 0.22418 0.75303 0.69204 0.0
H294 H 0.21162 0.74271 0.71144 0.0
H295 H 0.21561 0.75119 0.6675 0.0
H296 H 0.2361 0.74677 0.68945 0.0
O297 O 0.28051 0.775 0.77292 0.0
O298 O 0.29821 0.81179 0.77939 0.0
H299 H 0.28574 0.84448 0.70196 0.0
H300 H 0.26583 0.84066 0.66936 0.0
C301 C 0.26776 0.83783 0.69646 0.0
H302 H 0.2619 0.84719 0.71218 0.0
H303 H 0.32024 0.85404 0.75694 0.0
O304 O 0.23309 0.73449 0.76049 0.0
C305 C 0.29841 0.79353 0.77721 0.0
Co306 Co 0.48567 0.25198 0.26595 0.0
Co307 Co 0.45603 0.27455 0.26094 0.0
C308 C 0.45278 0.24709 0.32078 0.0
O309 O 0.46743 0.24321 0.30785 0.0
O310 O 0.44631 0.25917 0.30561 0.0
C311 C 0.49854 0.21675 0.26716 0.0
O312 O 0.47738 0.20117 0.26888 0.0
C313 C 0.41886 0.28476 0.25606 0.0
C314 C 0.43352 0.31197 0.21823 0.0
C315 C 0.41457 0.29937 0.23758 0.0
N316 N 0.43938 0.28857 0.24767 0.0
N317 N 0.44804 0.30497 0.22529 0.0
C318 C 0.40332 0.26652 0.27935 0.0
H319 H 0.40684 0.25251 0.27878 0.0
H320 H 0.38564 0.26038 0.27226 0.0
H321 H 0.40604 0.27315 0.30556 0.0
C322 C 0.46628 0.23534 0.19801 0.0
N323 N 0.46758 0.24593 0.22728 0.0
N324 N 0.45439 0.25457 0.22571 0.0
C325 C 0.44373 0.24909 0.19561 0.0
C326 C 0.45105 0.23692 0.17692 0.0
C327 C 0.48143 0.22644 0.18895 0.0
H328 H 0.4981 0.23691 0.20061 0.0
H329 H 0.47419 0.20916 0.19881 0.0
H330 H 0.48345 0.22612 0.16115 0.0
O331 O 0.50798 0.28397 0.26685 0.0
O332 O 0.48717 0.30009 0.26568 0.0
H333 H 0.43541 0.27287 0.17613 0.0
H334 H 0.41623 0.24441 0.16387 0.0
C335 C 0.42674 0.25526 0.18486 0.0
H336 H 0.41581 0.25355 0.20651 0.0
H337 H 0.46379 0.31114 0.21439 0.0
O338 O 0.50388 0.23719 0.26523 0.0
C339 C 0.50617 0.30137 0.26706 0.0
Co340 Co 0.22918 0.48485 0.77498 0.0
Co341 Co 0.17687 0.45555 0.77524 0.0
C342 C 0.20461 0.45377 0.83251 0.0
O343 O 0.22252 0.46846 0.81823 0.0
O344 O 0.18553 0.4466 0.81854 0.0
C345 C 0.27729 0.50226 0.78359 0.0
O346 O 0.27209 0.48588 0.80511 0.0
C347 C 0.13145 0.41552 0.76858 0.0
C348 C 0.1126 0.43186 0.75172 0.0
C349 C 0.11037 0.41115 0.75828 0.0
N350 N 0.14541 0.4378 0.76773 0.0
N351 N 0.13392 0.4474 0.75798 0.0
C352 C 0.13875 0.39898 0.77652 0.0
H353 H 0.15712 0.40674 0.77331 0.0
H354 H 0.12993 0.38403 0.76003 0.0
H355 H 0.13453 0.39355 0.80324 0.0
C356 C 0.22341 0.46393 0.70815 0.0
N357 N 0.21507 0.46548 0.73812 0.0
N358 N 0.19309 0.45381 0.73709 0.0
C359 C 0.18673 0.44475 0.70592 0.0
C360 C 0.20577 0.4509 0.6865 0.0
C361 C 0.24785 0.47567 0.70011 0.0
H362 H 0.25713 0.47381 0.72158 0.0
H363 H 0.25126 0.46886 0.67684 0.0
H364 H 0.25399 0.49377 0.69659 0.0
O365 O 0.21924 0.50699 0.77714 0.0
O366 O 0.18235 0.48662 0.77958 0.0
H367 H 0.15505 0.44306 0.7012 0.0
H368 H 0.162 0.43133 0.66572 0.0
C369 C 0.16307 0.43328 0.69361 0.0
H370 H 0.1537 0.41652 0.70544 0.0
H371 H 0.14076 0.46459 0.75474 0.0
O372 O 0.26184 0.50357 0.7682 0.0
C373 C 0.2002 0.50553 0.77915 0.0
Co374 Co 0.7464 0.23182 0.26696 0.0
Co375 Co 0.72564 0.18023 0.25589 0.0
C376 C 0.75153 0.20312 0.31896 0.0
O377 O 0.7557 0.22214 0.30781 0.0
O378 O 0.73982 0.18522 0.30195 0.0
C379 C 0.7778 0.2805 0.2761 0.0
O380 O 0.79389 0.27641 0.28391 0.0
C381 C 0.71795 0.1338 0.25031 0.0
C382 C 0.69223 0.12071 0.21013 0.0
C383 C 0.70457 0.11488 0.231 0.0
N384 N 0.71373 0.15007 0.24094 0.0
N385 N 0.69822 0.14202 0.21713 0.0
C386 C 0.73503 0.13675 0.27613 0.0
H387 H 0.74922 0.15419 0.27553 0.0
H388 H 0.74118 0.12489 0.27165 0.0
H389 H 0.72731 0.13358 0.30165 0.0
C390 C 0.76551 0.23322 0.19933 0.0
N391 N 0.75415 0.22209 0.22716 0.0
N392 N 0.74604 0.2005 0.22261 0.0
C393 C 0.75239 0.1973 0.19171 0.0
C394 C 0.76479 0.21792 0.17584 0.0
C395 C 0.77615 0.25799 0.19506 0.0
H396 H 0.78887 0.26641 0.21512 0.0
H397 H 0.78442 0.26365 0.17008 0.0
H398 H 0.7633 0.26302 0.19811 0.0
O399 O 0.71395 0.22008 0.26812 0.0
O400 O 0.69884 0.18377 0.25913 0.0
H401 H 0.72691 0.16755 0.1684 0.0
H402 H 0.7545 0.17588 0.15346 0.0
C403 C 0.74462 0.17483 0.17617 0.0
H404 H 0.74588 0.16358 0.19491 0.0
H405 H 0.69177 0.15115 0.20554 0.0
O406 O 0.75861 0.26453 0.26803 0.0
C407 C 0.69684 0.20085 0.26436 0.0
H408 H 0.38899 0.29841 0.29151 0.0
H409 H 0.36039 0.30947 0.29125 0.0
H410 H 0.36748 0.31868 0.18303 0.0
H411 H 0.39621 0.30795 0.1833 0.0
H412 H 0.37203 0.35456 0.21181 0.0
H413 H 0.31885 0.27678 0.2199 0.0
H414 H 0.30179 0.23853 0.24284 0.0
H415 H 0.29153 0.26159 0.33845 0.0
H416 H 0.30885 0.30006 0.31624 0.0
H417 H 0.29364 0.39057 0.19966 0.0
H418 H 0.30667 0.36371 0.19229 0.0
H419 H 0.31152 0.35964 0.30058 0.0
H420 H 0.29837 0.38633 0.30807 0.0
H421 H 0.29764 0.31826 0.26731 0.0
H422 H 0.35549 0.39617 0.26105 0.0
H423 H 0.3728 0.43458 0.23865 0.0
H424 H 0.37431 0.41048 0.13905 0.0
H425 H 0.35666 0.37184 0.16083 0.0
C426 C 0.38392 0.30209 0.26757 0.0
C427 C 0.39473 0.30222 0.2374 0.0
C428 C 0.36759 0.30846 0.26743 0.0
C429 C 0.36169 0.31484 0.23707 0.0
C430 C 0.37176 0.31389 0.20676 0.0
C431 C 0.38817 0.30774 0.20694 0.0
C432 C 0.34705 0.3249 0.23729 0.0
C433 C 0.35554 0.34632 0.22327 0.0
C434 C 0.32576 0.31448 0.25299 0.0
C435 C 0.31533 0.29136 0.26647 0.0
C436 C 0.31314 0.27374 0.24591 0.0
C437 C 0.30338 0.25201 0.25876 0.0
C438 C 0.29563 0.24764 0.2921 0.0
C439 C 0.29757 0.265 0.31263 0.0
C440 C 0.30733 0.28677 0.29991 0.0
C441 C 0.29666 0.3833 0.22189 0.0
C442 C 0.29492 0.39044 0.25445 0.0
C443 C 0.30425 0.36808 0.21765 0.0
C444 C 0.3102 0.35983 0.24591 0.0
C445 C 0.30694 0.36573 0.27847 0.0
C446 C 0.29955 0.38106 0.2827 0.0
C447 C 0.32267 0.34769 0.24169 0.0
C448 C 0.31392 0.32612 0.25524 0.0
C449 C 0.34377 0.3579 0.22555 0.0
C450 C 0.35451 0.38111 0.21247 0.0
C451 C 0.35934 0.39905 0.23433 0.0
C452 C 0.36923 0.42086 0.22175 0.0
C453 C 0.37458 0.42496 0.18742 0.0
C454 C 0.3701 0.40727 0.16562 0.0
C455 C 0.36016 0.38541 0.17806 0.0
H456 H 0.38225 0.44186 0.17773 0.0
H457 H 0.28808 0.23081 0.30201 0.0
H458 H 0.9225 0.32302 0.68988 0.0
H459 H 0.95997 0.32815 0.69446 0.0
H460 H 0.93744 0.27861 0.77371 0.0
H461 H 0.89958 0.27336 0.769 0.0
H462 H 0.97392 0.3187 0.79211 0.0
H463 H 0.95619 0.26777 0.70217 0.0
H464 H 0.94024 0.24983 0.64735 0.0
H465 H 0.98486 0.31073 0.59548 0.0
H466 H 0.00086 0.32917 0.64998 0.0
H467 H 0.0929 0.37264 0.79679 0.0
H468 H 0.05534 0.33979 0.79178 0.0
H469 H 0.04274 0.36924 0.70429 0.0
H470 H 0.08011 0.4015 0.70864 0.0
H471 H 0.02326 0.32494 0.6965 0.0
H472 H 0.02921 0.37721 0.78623 0.0
H473 H 0.04412 0.39705 0.8403 0.0
H474 H 0.02076 0.33433 0.89133 0.0
H475 H 0.00592 0.31416 0.83741 0.0
C476 C 0.9254 0.31279 0.70766 0.0
C477 C 0.90817 0.29767 0.72888 0.0
C478 C 0.94678 0.31563 0.71014 0.0
C479 C 0.95148 0.30357 0.73416 0.0
C480 C 0.9341 0.28787 0.75473 0.0
C481 C 0.91249 0.28478 0.75188 0.0
C482 C 0.97512 0.30986 0.74017 0.0
C483 C 0.98465 0.31935 0.77155 0.0
C484 C 0.98913 0.31089 0.71329 0.0
C485 C 0.97974 0.29986 0.68027 0.0
C486 C 0.96254 0.27738 0.6791 0.0
C487 C 0.95349 0.26712 0.64806 0.0
C488 C 0.96153 0.27913 0.61796 0.0
C489 C 0.97867 0.30143 0.61882 0.0
C490 C 0.98777 0.31179 0.64979 0.0
C491 C 0.08237 0.37173 0.77588 0.0
C492 C 0.08942 0.38966 0.75312 0.0
C493 C 0.06084 0.35303 0.7732 0.0
C494 C 0.04611 0.35214 0.74784 0.0
C495 C 0.05375 0.36946 0.724 0.0
C496 C 0.07509 0.38802 0.72669 0.0
C497 C 0.02202 0.33485 0.74774 0.0
C498 C 0.01244 0.32335 0.71748 0.0
C499 C 0.00792 0.33212 0.77552 0.0
C500 C 0.01675 0.34423 0.80782 0.0
C501 C 0.02739 0.36769 0.80897 0.0
C502 C 0.03581 0.37898 0.83957 0.0
C503 C 0.03346 0.36696 0.86921 0.0
C504 C 0.02262 0.34362 0.86833 0.0
C505 C 0.01421 0.33225 0.83778 0.0
H506 H 0.03998 0.37573 0.89288 0.0
H507 H 0.95449 0.27115 0.59396 0.0
H508 H 0.70156 0.09015 0.28703 0.0
H509 H 0.68999 0.05039 0.28834 0.0
H510 H 0.68938 0.04883 0.17912 0.0
H511 H 0.70037 0.08839 0.17785 0.0
H512 H 0.65164 0.0178 0.20146 0.0
H513 H 0.72737 0.04062 0.22781 0.0
H514 H 0.76326 0.06102 0.25816 0.0
H515 H 0.73113 0.02795 0.35065 0.0
H516 H 0.69496 0.00756 0.32097 0.0
H517 H 0.61304 0.90235 0.19721 0.0
H518 H 0.64094 0.94199 0.19077 0.0
H519 H 0.63678 0.95221 0.29759 0.0
H520 H 0.60911 0.9126 0.30423 0.0
H521 H 0.68047 0.97828 0.27189 0.0
H522 H 0.60456 0.96038 0.24649 0.0
H523 H 0.56853 0.9401 0.21643 0.0
H524 H 0.60209 0.96474 0.12135 0.0
H525 H 0.63839 0.98492 0.15088 0.0
C526 C 0.69967 0.08148 0.26336 0.0
C527 C 0.70197 0.09233 0.23233 0.0
C528 C 0.69303 0.05872 0.26409 0.0
C529 C 0.68889 0.04656 0.23379 0.0
C530 C 0.69241 0.05779 0.20282 0.0
C531 C 0.69873 0.08039 0.20211 0.0
C532 C 0.67835 0.02178 0.2343 0.0
C533 C 0.65833 0.00924 0.21624 0.0
C534 C 0.68667 0.01048 0.2542 0.0
C535 C 0.7084 0.02268 0.27218 0.0
C536 C 0.72791 0.03782 0.25468 0.0
C537 C 0.74831 0.04936 0.27175 0.0
C538 C 0.74946 0.04582 0.30632 0.0
C539 C 0.73021 0.03068 0.32387 0.0
C540 C 0.70975 0.01911 0.30692 0.0
C541 C 0.61866 0.91285 0.2195 0.0
C542 C 0.60899 0.90439 0.25126 0.0
C543 C 0.63448 0.93554 0.21575 0.0
C544 C 0.6408 0.95005 0.24368 0.0
C545 C 0.63221 0.9413 0.27575 0.0
C546 C 0.61631 0.91871 0.27945 0.0
C547 C 0.654 0.97462 0.23904 0.0
C548 C 0.67425 0.98702 0.25654 0.0
C549 C 0.646 0.9859 0.21857 0.0
C550 C 0.62419 0.97391 0.20083 0.0
C551 C 0.60427 0.96132 0.21916 0.0
C552 C 0.5838 0.94987 0.20222 0.0
C553 C 0.58303 0.95107 0.16699 0.0
C554 C 0.60272 0.96378 0.14863 0.0
C555 C 0.62324 0.97523 0.16545 0.0
H556 H 0.56716 0.9422 0.15392 0.0
H557 H 0.76528 0.05477 0.3195 0.0
H558 H 0.70684 0.61518 0.80878 0.0
H559 H 0.6965 0.64427 0.80901 0.0
H560 H 0.68265 0.63439 0.70192 0.0
H561 H 0.69413 0.60599 0.70145 0.0
H562 H 0.69703 0.67705 0.71814 0.0
H563 H 0.6417 0.60506 0.761 0.0
H564 H 0.6274 0.57199 0.79807 0.0
H565 H 0.64064 0.61367 0.88555 0.0
H566 H 0.65532 0.64705 0.84898 0.0
H567 H 0.59978 0.6866 0.70127 0.0
H568 H 0.62986 0.67774 0.70316 0.0
H569 H 0.64321 0.69962 0.8071 0.0
H570 H 0.61301 0.70853 0.80529 0.0
H571 H 0.63383 0.65621 0.79731 0.0
H572 H 0.68264 0.72776 0.74958 0.0
H573 H 0.69438 0.75896 0.7094 0.0
H574 H 0.69025 0.71624 0.62743 0.0
H575 H 0.67815 0.68467 0.66702 0.0
C576 C 0.70223 0.61976 0.78515 0.0
C577 C 0.70111 0.6084 0.75514 0.0
C578 C 0.69625 0.63628 0.78529 0.0
C579 C 0.68822 0.64107 0.75567 0.0
C580 C 0.68872 0.63091 0.7251 0.0
C581 C 0.69524 0.6147 0.72482 0.0
C582 C 0.67673 0.65436 0.75745 0.0
C583 C 0.68318 0.6725 0.73536 0.0
C584 C 0.65883 0.64861 0.78028 0.0
C585 C 0.64985 0.62856 0.8023 0.0
C586 C 0.6417 0.60718 0.78816 0.0
C587 C 0.63351 0.58838 0.80907 0.0
C588 C 0.63317 0.59074 0.84415 0.0
C589 C 0.64096 0.61189 0.85838 0.0
C590 C 0.64921 0.63074 0.83758 0.0
C591 C 0.6095 0.69002 0.72427 0.0
C592 C 0.60417 0.69833 0.75308 0.0
C593 C 0.62678 0.68511 0.72524 0.0
C594 C 0.63888 0.6882 0.75518 0.0
C595 C 0.63419 0.69734 0.78365 0.0
C596 C 0.61704 0.70254 0.78255 0.0
C597 C 0.654 0.67884 0.75788 0.0
C598 C 0.64805 0.6612 0.78066 0.0
C599 C 0.67199 0.68482 0.73523 0.0
C600 C 0.67934 0.70379 0.7113 0.0
C601 C 0.68406 0.72496 0.72295 0.0
C602 C 0.69081 0.74273 0.70028 0.0
C603 C 0.69303 0.73958 0.66588 0.0
C604 C 0.68853 0.71866 0.65409 0.0
C605 C 0.68175 0.70083 0.67665 0.0
H606 H 0.69826 0.75336 0.64837 0.0
H607 H 0.62683 0.57617 0.8603 0.0
H608 H 0.08428 0.66309 0.24867 0.0
H609 H 0.04502 0.6516 0.24121 0.0
H610 H 0.06062 0.72013 0.25092 0.0
H611 H 0.10038 0.73184 0.25868 0.0
H612 H 0.02359 0.68885 0.2912 0.0
H613 H 0.04562 0.69903 0.17645 0.0
H614 H 0.06508 0.69698 0.12548 0.0
H615 H 0.02715 0.62527 0.12878 0.0
H616 H 0.0077 0.62686 0.18009 0.0
H617 H 0.90306 0.62819 0.25494 0.0
H618 H 0.94255 0.65749 0.25242 0.0
H619 H 0.96155 0.60701 0.24277 0.0
H620 H 0.92253 0.57785 0.24624 0.0
H621 H 0.981 0.64084 0.1941 0.0
H622 H 0.96722 0.63223 0.31649 0.0
H623 H 0.94831 0.63396 0.36842 0.0
H624 H 0.97095 0.70331 0.34978 0.0
H625 H 0.98975 0.70188 0.29747 0.0
C626 C 0.07943 0.67578 0.24902 0.0
C627 C 0.09541 0.69838 0.25387 0.0
C628 C 0.057 0.66921 0.24457 0.0
C629 C 0.04997 0.68505 0.24506 0.0
C630 C 0.0658 0.7077 0.25013 0.0
C631 C 0.08847 0.71437 0.25424 0.0
C632 C 0.02582 0.67719 0.24156 0.0
C633 C 0.01425 0.67892 0.26954 0.0
C634 C 0.0137 0.66422 0.21332 0.0
C635 C 0.0252 0.66309 0.18222 0.0
C636 C 0.0415 0.68281 0.16644 0.0
C637 C 0.05253 0.68173 0.13746 0.0
C638 C 0.04736 0.66101 0.1239 0.0
C639 C 0.03112 0.64132 0.13928 0.0
C640 C 0.02005 0.6423 0.16829 0.0
C641 C 0.91566 0.62332 0.25323 0.0
C642 C 0.90964 0.60063 0.2514 0.0
C643 C 0.9382 0.6401 0.25136 0.0
C644 C 0.95491 0.63437 0.24729 0.0
C645 C 0.94889 0.61178 0.24565 0.0
C646 C 0.92656 0.59513 0.24772 0.0
C647 C 0.97885 0.65151 0.24445 0.0
C648 C 0.99034 0.65149 0.21519 0.0
C649 C 0.99083 0.66605 0.27143 0.0
C650 C 0.97961 0.66687 0.30288 0.0
C651 C 0.96798 0.64778 0.32332 0.0
C652 C 0.95733 0.64872 0.35284 0.0
C653 C 0.95836 0.66871 0.36232 0.0
C654 C 0.97012 0.68782 0.34236 0.0
C655 C 0.98077 0.68696 0.31278 0.0
H656 H 0.95011 0.6694 0.3852 0.0
H657 H 0.05593 0.66021 0.10147 0.0
H658 H 0.27178 0.90145 0.75497 0.0
H659 H 0.27904 0.94004 0.75408 0.0
H660 H 0.34522 0.96302 0.79376 0.0
H661 H 0.33783 0.92475 0.79574 0.0
H662 H 0.32899 0.98743 0.81942 0.0
H663 H 0.33411 0.9595 0.70699 0.0
H664 H 0.31797 0.93404 0.65819 0.0
H665 H 0.26871 0.95413 0.64626 0.0
H666 H 0.28446 0.97953 0.69525 0.0
H667 H 0.40798 0.07661 0.70435 0.0
H668 H 0.37686 0.03872 0.71182 0.0
H669 H 0.34442 0.06338 0.77823 0.0
H670 H 0.37591 0.10159 0.77102 0.0
H671 H 0.33178 0.01553 0.70296 0.0
H672 H 0.32335 0.02494 0.84417 0.0
H673 H 0.34403 0.05022 0.89157 0.0
H674 H 0.40633 0.06711 0.84363 0.0
H675 H 0.38599 0.04174 0.79623 0.0
C676 C 0.28755 0.91464 0.76462 0.0
C677 C 0.30423 0.91006 0.77552 0.0
C678 C 0.29176 0.93672 0.7638 0.0
C679 C 0.31275 0.95447 0.7736 0.0
C680 C 0.32887 0.94966 0.78622 0.0
C681 C 0.32468 0.92776 0.78706 0.0
C682 C 0.31938 0.9782 0.76743 0.0
C683 C 0.32907 0.99355 0.7941 0.0
C684 C 0.31959 0.98628 0.73442 0.0
C685 C 0.31025 0.97115 0.70495 0.0
C686 C 0.31976 0.95837 0.69404 0.0
C687 C 0.31069 0.94397 0.66636 0.0
C688 C 0.29228 0.94241 0.6492 0.0
C689 C 0.28293 0.95531 0.65963 0.0
C690 C 0.29191 0.9697 0.68734 0.0
C691 C 0.39398 0.07404 0.71995 0.0
C692 C 0.39432 0.09201 0.73705 0.0
C693 C 0.37612 0.05239 0.72402 0.0
C694 C 0.35835 0.04819 0.74567 0.0
C695 C 0.35798 0.06628 0.76138 0.0
C696 C 0.37589 0.0881 0.75706 0.0
C697 C 0.34214 0.02468 0.7547 0.0
C698 C 0.33067 0.0094 0.72858 0.0
C699 C 0.34076 0.01665 0.78806 0.0
C700 C 0.35316 0.03173 0.81653 0.0
C701 C 0.34146 0.03405 0.84383 0.0
C702 C 0.35311 0.04838 0.87067 0.0
C703 C 0.37648 0.06034 0.87054 0.0
C704 C 0.38824 0.05791 0.84364 0.0
C705 C 0.37666 0.04358 0.81679 0.0
H706 H 0.38547 0.07144 0.89131 0.0
H707 H 0.28528 0.93126 0.62778 0.0
H708 H 0.24025 0.47308 0.87524 0.0
H709 H 0.24229 0.4634 0.93359 0.0
H710 H 0.17496 0.40757 0.92705 0.0
H711 H 0.17242 0.41793 0.86852 0.0
H712 H 0.17837 0.42695 0.98252 0.0
H713 H 0.22299 0.40082 0.9333 0.0
H714 H 0.25199 0.40093 0.8968 0.0
H715 H 0.3029 0.45697 0.95166 0.0
H716 H 0.2742 0.45742 0.9882 0.0
H717 H 0.2424 0.41921 0.14516 0.0
H718 H 0.23067 0.40901 0.08614 0.0
H719 H 0.21283 0.46056 0.08091 0.0
H720 H 0.22357 0.47015 0.13957 0.0
H721 H 0.2463 0.43056 0.03116 0.0
H722 H 0.1734 0.4508 0.02673 0.0
H723 H 0.14224 0.44583 0.06311 0.0
H724 H 0.1435 0.39193 0.11519 0.0
H725 H 0.17445 0.39634 0.07883 0.0
C726 C 0.22591 0.45854 0.88594 0.0
C727 C 0.20615 0.44626 0.86709 0.0
C728 C 0.22718 0.45289 0.91941 0.0
C729 C 0.20897 0.43443 0.93477 0.0
C730 C 0.1893 0.42183 0.91582 0.0
C731 C 0.18787 0.42773 0.88233 0.0
C732 C 0.21014 0.42961 0.97128 0.0
C733 C 0.19312 0.42748 0.99307 0.0
C734 C 0.22897 0.42942 0.98521 0.0
C735 C 0.24639 0.42919 0.96345 0.0
C736 C 0.24036 0.41325 0.93748 0.0
C737 C 0.25675 0.4132 0.91679 0.0
C738 C 0.27927 0.42896 0.92189 0.0
C739 C 0.28545 0.44476 0.94775 0.0
C740 C 0.26912 0.44489 0.96851 0.0
C741 C 0.23562 0.42809 0.13154 0.0
C742 C 0.23388 0.44546 0.14723 0.0
C743 C 0.22897 0.42229 0.09777 0.0
C744 C 0.22051 0.43375 0.07905 0.0
C745 C 0.21865 0.45096 0.09488 0.0
C746 C 0.22501 0.45656 0.12855 0.0
C747 C 0.21511 0.42915 0.04237 0.0
C748 C 0.23133 0.42951 0.02055 0.0
C749 C 0.19519 0.42691 0.02838 0.0
C750 C 0.17635 0.42399 0.0501 0.0
C751 C 0.16694 0.43778 0.04577 0.0
C752 C 0.14934 0.43509 0.06645 0.0
C753 C 0.14092 0.4186 0.09148 0.0
C754 C 0.15007 0.40473 0.09585 0.0
C755 C 0.16767 0.40735 0.07524 0.0
H756 H 0.1273 0.41656 0.10748 0.0
H757 H 0.29194 0.4289 0.90583 0.0
H758 H 0.73226 0.16817 0.36367 0.0
H759 H 0.74065 0.16923 0.42425 0.0
H760 H 0.79565 0.23657 0.41332 0.0
H761 H 0.78712 0.23584 0.35311 0.0
H762 H 0.80373 0.20751 0.4589 0.0
H763 H 0.75033 0.23261 0.43598 0.0
H764 H 0.71516 0.22776 0.41222 0.0
H765 H 0.67758 0.16874 0.47245 0.0
H766 H 0.7126 0.17308 0.49618 0.0
H767 H 0.82126 0.25992 0.61876 0.0
H768 H 0.81606 0.24762 0.55991 0.0
H769 H 0.75088 0.19215 0.58448 0.0
H770 H 0.75558 0.20515 0.64302 0.0
H771 H 0.74664 0.21002 0.53203 0.0
H772 H 0.79849 0.18659 0.56137 0.0
H773 H 0.83294 0.18966 0.58506 0.0
H774 H 0.87243 0.24182 0.51422 0.0
H775 H 0.83824 0.23929 0.49038 0.0
C776 C 0.74645 0.183 0.37403 0.0
C777 C 0.75892 0.20199 0.35372 0.0
C778 C 0.75119 0.18359 0.40862 0.0
C779 C 0.76869 0.20303 0.42323 0.0
C780 C 0.78211 0.2214 0.40251 0.0
C781 C 0.77715 0.22098 0.36815 0.0
C782 C 0.77156 0.20527 0.46049 0.0
C783 C 0.79134 0.20811 0.47503 0.0
C784 C 0.7551 0.20547 0.48149 0.0
C785 C 0.73407 0.20301 0.46751 0.0
C786 C 0.73458 0.21849 0.44392 0.0
C787 C 0.71467 0.21585 0.43051 0.0
C788 C 0.69415 0.19791 0.44073 0.0
C789 C 0.69349 0.1826 0.46449 0.0
C790 C 0.71336 0.18514 0.47794 0.0
C791 C 0.80599 0.24487 0.61175 0.0
C792 C 0.78881 0.23354 0.63554 0.0
C793 C 0.80305 0.23774 0.57803 0.0
C794 C 0.78314 0.21875 0.56755 0.0
C795 C 0.76637 0.20689 0.59172 0.0
C796 C 0.7691 0.21429 0.62526 0.0
C797 C 0.77902 0.21241 0.53103 0.0
C798 C 0.75899 0.20897 0.51638 0.0
C799 C 0.79515 0.21132 0.51011 0.0
C800 C 0.81578 0.21285 0.52425 0.0
C801 C 0.81453 0.19882 0.55098 0.0
C802 C 0.83401 0.20045 0.56442 0.0
C803 C 0.85486 0.21596 0.5512 0.0
C804 C 0.85627 0.22983 0.52444 0.0
C805 C 0.83684 0.22828 0.51093 0.0
H806 H 0.86993 0.2172 0.56164 0.0
H807 H 0.67875 0.19589 0.43032 0.0
H808 H 0.52893 0.75558 0.13282 0.0
H809 H 0.53841 0.75481 0.07402 0.0
H810 H 0.59559 0.8211 0.08384 0.0
H811 H 0.5855 0.82236 0.14309 0.0
H812 H 0.57627 0.81921 0.02808 0.0
H813 H 0.60119 0.77291 0.07475 0.0
H814 H 0.60036 0.74313 0.11018 0.0
H815 H 0.54374 0.69364 0.05462 0.0
H816 H 0.544 0.72313 0.01915 0.0
H817 H 0.58078 0.75481 0.86333 0.0
H818 H 0.59204 0.76671 0.92197 0.0
H819 H 0.54185 0.78631 0.92933 0.0
H820 H 0.53124 0.7754 0.87091 0.0
H821 H 0.57105 0.75121 0.97672 0.0
H822 H 0.55269 0.82534 0.98498 0.0
H823 H 0.55804 0.85708 0.94968 0.0
H824 H 0.61081 0.855 0.89537 0.0
H825 H 0.60602 0.82347 0.93065 0.0
C826 C 0.54372 0.76994 0.12277 0.0
C827 C 0.55655 0.78898 0.14282 0.0
C828 C 0.54923 0.76941 0.08902 0.0
C829 C 0.56806 0.78766 0.07452 0.0
C830 C 0.58107 0.80672 0.09448 0.0
C831 C 0.57532 0.80742 0.12833 0.0
C832 C 0.57299 0.78703 0.03796 0.0
C833 C 0.5754 0.80446 0.01688 0.0
C834 C 0.57276 0.76819 0.02327 0.0
C835 C 0.5726 0.75028 0.04432 0.0
C836 C 0.58849 0.75569 0.07018 0.0
C837 C 0.58812 0.73885 0.09027 0.0
C838 C 0.572 0.71651 0.08466 0.0
C839 C 0.55623 0.71095 0.0589 0.0
C840 C 0.55652 0.72772 0.03874 0.0
C841 C 0.57243 0.76202 0.87733 0.0
C842 C 0.55514 0.76419 0.86235 0.0
C843 C 0.57886 0.76879 0.91087 0.0
C844 C 0.56806 0.77774 0.93009 0.0
C845 C 0.55097 0.78011 0.91493 0.0
C846 C 0.54477 0.77367 0.88142 0.0
C847 C 0.57302 0.78282 0.96676 0.0
C848 C 0.57248 0.76621 0.98789 0.0
C849 C 0.57575 0.80275 0.98147 0.0
C850 C 0.57891 0.82194 0.96042 0.0
C851 C 0.56554 0.83175 0.96568 0.0
C852 C 0.56845 0.84968 0.94562 0.0
C853 C 0.58473 0.85803 0.92027 0.0
C854 C 0.59817 0.84849 0.91496 0.0
C855 C 0.59534 0.83056 0.93496 0.0
H856 H 0.58694 0.8719 0.90475 0.0
H857 H 0.57174 0.7035 0.10027 0.0
H858 H 0.82755 0.5659 0.37492 0.0
H859 H 0.82506 0.57234 0.43529 0.0
H860 H 0.75807 0.5603 0.42098 0.0
H861 H 0.7602 0.55339 0.3607 0.0
H862 H 0.78757 0.59713 0.46963 0.0
H863 H 0.75941 0.51855 0.44274 0.0
H864 H 0.76286 0.48786 0.41704 0.0
H865 H 0.82109 0.50563 0.47741 0.0
H866 H 0.81817 0.53667 0.50307 0.0
H867 H 0.7363 0.56147 0.63089 0.0
H868 H 0.74765 0.56897 0.57162 0.0
H869 H 0.80187 0.55642 0.59159 0.0
H870 H 0.78978 0.54771 0.65042 0.0
H871 H 0.78217 0.53493 0.5395 0.0
H872 H 0.80905 0.61064 0.57178 0.0
H873 H 0.80765 0.64253 0.59718 0.0
H874 H 0.75552 0.63275 0.52815 0.0
H875 H 0.75638 0.6006 0.50262 0.0
C876 C 0.81248 0.56516 0.38442 0.0
C877 C 0.79398 0.55891 0.36311 0.0
C878 C 0.8111 0.56883 0.41892 0.0
C879 C 0.79135 0.56667 0.4325 0.0
C880 C 0.77347 0.5621 0.41088 0.0
C881 C 0.77468 0.55805 0.37651 0.0
C882 C 0.78828 0.56637 0.4696 0.0
C883 C 0.78626 0.58354 0.48507 0.0
C884 C 0.78715 0.54889 0.48961 0.0
C885 C 0.78874 0.53007 0.4745 0.0
C886 C 0.77307 0.51603 0.4503 0.0
C887 C 0.7749 0.49856 0.43578 0.0
C888 C 0.79222 0.49484 0.4455 0.0
C889 C 0.8077 0.50855 0.46985 0.0
C890 C 0.80597 0.52608 0.4844 0.0
C891 C 0.75086 0.56067 0.62273 0.0
C892 C 0.76208 0.55389 0.64524 0.0
C893 C 0.75744 0.5651 0.58882 0.0
C894 C 0.77579 0.56348 0.57697 0.0
C895 C 0.7876 0.55769 0.59993 0.0
C896 C 0.78072 0.55277 0.63361 0.0
C897 C 0.78146 0.56584 0.54025 0.0
C898 C 0.7838 0.54885 0.52457 0.0
C899 C 0.78321 0.58371 0.52026 0.0
C900 C 0.78266 0.60308 0.53547 0.0
C901 C 0.79717 0.61518 0.56217 0.0
C902 C 0.7965 0.63333 0.57657 0.0
C903 C 0.78147 0.63963 0.56433 0.0
C904 C 0.76714 0.62784 0.53762 0.0
C905 C 0.76773 0.60967 0.52314 0.0
H906 H 0.78097 0.65368 0.57552 0.0
H907 H 0.79362 0.4813 0.43424 0.0
H908 H 0.21135 0.75222 0.86066 0.0
H909 H 0.19931 0.74781 0.91953 0.0
H910 H 0.24011 0.81897 0.93476 0.0
H911 H 0.25202 0.82363 0.87563 0.0
H912 H 0.22633 0.75647 0.97134 0.0
H913 H 0.21916 0.83495 0.00113 0.0
H914 H 0.20736 0.85916 0.97273 0.0
H915 H 0.16442 0.8051 0.90686 0.0
H916 H 0.17571 0.78048 0.93515 0.0
H917 H 0.24641 0.78454 0.14093 0.0
H918 H 0.24599 0.79108 0.0805 0.0
H919 H 0.17401 0.75769 0.08189 0.0
H920 H 0.17413 0.75083 0.14281 0.0
H921 H 0.19749 0.79805 0.03692 0.0
H922 H 0.19155 0.72669 0.06036 0.0
H923 H 0.20253 0.70195 0.0891 0.0
H924 H 0.26843 0.73929 0.04671 0.0
H925 H 0.25793 0.76448 0.01814 0.0
C926 C 0.2175 0.76703 0.87631 0.0
C927 C 0.23286 0.78827 0.86348 0.0
C928 C 0.21057 0.76445 0.90999 0.0
C929 C 0.2188 0.78304 0.93158 0.0
C930 C 0.23331 0.80441 0.91848 0.0
C931 C 0.24019 0.80703 0.88468 0.0
C932 C 0.21415 0.77973 0.96842 0.0
C933 C 0.21982 0.76545 0.9855 0.0
C934 C 0.20559 0.79135 0.98701 0.0
C935 C 0.19844 0.80593 0.97011 0.0
C936 C 0.20712 0.82819 0.9807 0.0
C937 C 0.20054 0.842 0.96459 0.0
C938 C 0.1852 0.83369 0.93794 0.0
C939 C 0.17636 0.81154 0.92742 0.0
C940 C 0.18288 0.79766 0.94345 0.0
C941 C 0.23044 0.77888 0.12869 0.0
C942 C 0.21026 0.76682 0.14669 0.0
C943 C 0.23027 0.78272 0.09411 0.0
C944 C 0.20998 0.77467 0.0768 0.0
C945 C 0.18983 0.76403 0.09494 0.0
C946 C 0.18995 0.76006 0.12968 0.0
C947 C 0.21001 0.77515 0.0394 0.0
C948 C 0.20367 0.78893 0.02242 0.0
C949 C 0.21774 0.76291 0.02067 0.0
C950 C 0.224 0.74757 0.03734 0.0
C951 C 0.20843 0.72972 0.05736 0.0
C952 C 0.21456 0.7156 0.0736 0.0
C953 C 0.23618 0.71908 0.06979 0.0
C954 C 0.25169 0.73663 0.04965 0.0
C955 C 0.24566 0.75082 0.03341 0.0
H956 H 0.2409 0.70814 0.0824 0.0
H957 H 0.18014 0.84441 0.92549 0.0
H958 H 0.44932 0.24223 0.64164 0.0
H959 H 0.44201 0.24483 0.58158 0.0
H960 H 0.43237 0.17894 0.56459 0.0
H961 H 0.43906 0.17591 0.62468 0.0
H962 H 0.46798 0.21789 0.52477 0.0
H963 H 0.38995 0.18046 0.55505 0.0
H964 H 0.35731 0.1754 0.58763 0.0
H965 H 0.36852 0.23913 0.55306 0.0
H966 H 0.40147 0.24473 0.52066 0.0
H967 H 0.45045 0.2107 0.35133 0.0
H968 H 0.44343 0.20049 0.41101 0.0
H969 H 0.43137 0.25521 0.42885 0.0
H970 H 0.43749 0.26495 0.36861 0.0
H971 H 0.40534 0.2213 0.4691 0.0
H972 H 0.48317 0.26099 0.44255 0.0
H973 H 0.51744 0.26925 0.41155 0.0
H974 H 0.50926 0.20584 0.44158 0.0
H975 H 0.47473 0.19706 0.47236 0.0
C976 C 0.44518 0.22811 0.62526 0.0
C977 C 0.44486 0.2089 0.63787 0.0
C978 C 0.44095 0.2296 0.59102 0.0
C979 C 0.43666 0.21207 0.56879 0.0
C980 C 0.43556 0.19259 0.58148 0.0
C981 C 0.43933 0.19088 0.61581 0.0
C982 C 0.4358 0.21507 0.53186 0.0
C983 C 0.45412 0.21824 0.51244 0.0
C984 C 0.41811 0.21644 0.51625 0.0
C985 C 0.39834 0.21312 0.53574 0.0
C986 C 0.38562 0.19351 0.55469 0.0
C987 C 0.36702 0.19052 0.57305 0.0
C988 C 0.36088 0.20697 0.5725 0.0
C989 C 0.37331 0.22642 0.55351 0.0
C990 C 0.39194 0.2295 0.53512 0.0
C991 C 0.44588 0.2203 0.36783 0.0
C992 C 0.44482 0.23881 0.35541 0.0
C993 C 0.44196 0.21451 0.40198 0.0
C994 C 0.43752 0.22748 0.42464 0.0
C995 C 0.43493 0.24505 0.41191 0.0
C996 C 0.43845 0.25061 0.37749 0.0
C997 C 0.43743 0.22378 0.46174 0.0
C998 C 0.41912 0.22074 0.4813 0.0
C999 C 0.4554 0.223 0.47778 0.0
C1000 C 0.47623 0.22827 0.45946 0.0
C1001 C 0.48859 0.24874 0.44234 0.0
C1002 C 0.50807 0.25353 0.42483 0.0
C1003 C 0.51549 0.23806 0.42451 0.0
C1004 C 0.50347 0.21779 0.4418 0.0
C1005 C 0.48395 0.2129 0.45929 0.0
H1006 H 0.53058 0.24179 0.41094 0.0
H1007 H 0.34647 0.20461 0.58672 0.0
H1008 H 0.81528 0.54931 0.1333 0.0
H1009 H 0.81247 0.55367 0.07237 0.0
H1010 H 0.75782 0.56586 0.08941 0.0
H1011 H 0.76127 0.56257 0.15073 0.0
H1012 H 0.75005 0.53068 0.04082 0.0
H1013 H 0.80291 0.60764 0.06636 0.0
H1014 H 0.83768 0.6382 0.09067 0.0
H1015 H 0.87649 0.61983 0.02745 0.0
H1016 H 0.84192 0.58892 0.00312 0.0
H1017 H 0.73435 0.55158 0.87322 0.0
H1018 H 0.74116 0.55626 0.93394 0.0
H1019 H 0.80543 0.56124 0.91931 0.0
H1020 H 0.79926 0.55815 0.85791 0.0
H1021 H 0.80867 0.58874 0.96751 0.0
H1022 H 0.75846 0.51168 0.94383 0.0
H1023 H 0.725 0.47921 0.91994 0.0
H1024 H 0.6828 0.49482 0.98005 0.0
H1025 H 0.71603 0.52761 0.00394 0.0
C1026 C 0.80307 0.55352 0.12416 0.0
C1027 C 0.78855 0.55571 0.14672 0.0
C1028 C 0.80139 0.55586 0.08936 0.0
C1029 C 0.78498 0.56014 0.07652 0.0
C1030 C 0.77059 0.56256 0.09895 0.0
C1031 C 0.77252 0.56061 0.13383 0.0
C1032 C 0.7821 0.5608 0.03954 0.0
C1033 C 0.76265 0.54357 0.02478 0.0
C1034 C 0.799 0.57715 0.01871 0.0
C1035 C 0.81981 0.59582 0.03315 0.0
C1036 C 0.81885 0.60998 0.05786 0.0
C1037 C 0.83852 0.6274 0.0716 0.0
C1038 C 0.85928 0.63092 0.06068 0.0
C1039 C 0.8604 0.61707 0.03592 0.0
C1040 C 0.84077 0.59961 0.02212 0.0
C1041 C 0.7502 0.55429 0.88279 0.0
C1042 C 0.76631 0.55453 0.86084 0.0
C1043 C 0.75394 0.55663 0.91761 0.0
C1044 C 0.77359 0.55858 0.93133 0.0
C1045 C 0.79007 0.55961 0.90935 0.0
C1046 C 0.78648 0.55767 0.87436 0.0
C1047 C 0.77645 0.55866 0.96861 0.0
C1048 C 0.79594 0.5759 0.98346 0.0
C1049 C 0.75977 0.54202 0.98957 0.0
C1050 C 0.73973 0.52223 0.97542 0.0
C1051 C 0.74204 0.50829 0.95178 0.0
C1052 C 0.72312 0.48981 0.93825 0.0
C1053 C 0.70179 0.48499 0.94841 0.0
C1054 C 0.69934 0.4986 0.97217 0.0
C1055 C 0.71821 0.51712 0.98573 0.0
H1056 H 0.68716 0.47068 0.93791 0.0
H1057 H 0.8745 0.64442 0.07134 0.0
H1058 H 0.22331 0.81583 0.64811 0.0
H1059 H 0.21979 0.81651 0.58618 0.0
H1060 H 0.25313 0.77811 0.57541 0.0
H1061 H 0.2569 0.77773 0.6369 0.0
H1062 H 0.26898 0.81246 0.53083 0.0
H1063 H 0.19698 0.75338 0.56944 0.0
H1064 H 0.16214 0.73765 0.60267 0.0
H1065 H 0.14512 0.78287 0.55445 0.0
H1066 H 0.18005 0.79909 0.52127 0.0
H1067 H 0.23964 0.7599 0.37269 0.0
H1068 H 0.2439 0.76875 0.43308 0.0
H1069 H 0.20935 0.80584 0.42044 0.0
H1070 H 0.20511 0.79696 0.3596 0.0
H1071 H 0.19447 0.77817 0.47588 0.0
H1072 H 0.26466 0.83375 0.43158 0.0
H1073 H 0.29905 0.84816 0.39753 0.0
H1074 H 0.31948 0.80908 0.45603 0.0
H1075 H 0.28503 0.79413 0.49009 0.0
C1076 C 0.22989 0.80764 0.63233 0.0
C1077 C 0.24016 0.79655 0.647 0.0
C1078 C 0.22784 0.80796 0.59711 0.0
C1079 C 0.23607 0.79722 0.57624 0.0
C1080 C 0.24668 0.7865 0.59102 0.0
C1081 C 0.24866 0.78614 0.62608 0.0
C1082 C 0.23346 0.79668 0.53897 0.0
C1083 C 0.25269 0.8049 0.5188 0.0
C1084 C 0.21224 0.78739 0.5233 0.0
C1085 C 0.19125 0.77764 0.54321 0.0
C1086 C 0.1859 0.76011 0.56615 0.0
C1087 C 0.16612 0.75108 0.58493 0.0
C1088 C 0.15146 0.75931 0.58076 0.0
C1089 C 0.15652 0.77655 0.55772 0.0
C1090 C 0.1763 0.78566 0.53891 0.0
C1091 C 0.23316 0.77012 0.38279 0.0
C1092 C 0.2222 0.77792 0.36168 0.0
C1093 C 0.23559 0.77517 0.41722 0.0
C1094 C 0.22721 0.78821 0.43115 0.0
C1095 C 0.216 0.79582 0.41014 0.0
C1096 C 0.21359 0.79077 0.37555 0.0
C1097 C 0.22997 0.79344 0.4678 0.0
C1098 C 0.21079 0.78612 0.48786 0.0
C1099 C 0.25125 0.80352 0.4834 0.0
C1100 C 0.27218 0.81272 0.46328 0.0
C1101 C 0.27642 0.82812 0.43706 0.0
C1102 C 0.29593 0.83639 0.41776 0.0
C1103 C 0.31142 0.82952 0.42458 0.0
C1104 C 0.30746 0.81439 0.45077 0.0
C1105 C 0.28795 0.80603 0.47012 0.0
H1106 H 0.32651 0.83593 0.4096 0.0
H1107 H 0.13615 0.75229 0.59531 0.0
H1108 H 0.48096 0.23192 0.8653 0.0
H1109 H 0.47691 0.23252 0.92664 0.0
H1110 H 0.40665 0.18411 0.91793 0.0
H1111 H 0.41061 0.18398 0.85607 0.0
H1112 H 0.41363 0.21693 0.962 0.0
H1113 H 0.4424 0.16779 0.94516 0.0
H1114 H 0.46788 0.15574 0.9222 0.0
H1115 H 0.52316 0.20991 0.97374 0.0
H1116 H 0.49806 0.2225 0.99661 0.0
H1117 H 0.43998 0.19664 0.1486 0.0
H1118 H 0.4347 0.18677 0.08826 0.0
H1119 H 0.44749 0.25306 0.06395 0.0
H1120 H 0.45283 0.2629 0.12396 0.0
H1121 H 0.46361 0.20409 0.03732 0.0
H1122 H 0.41782 0.25151 0.9952 0.0
H1123 H 0.39068 0.26126 0.01856 0.0
H1124 H 0.3655 0.20511 0.08602 0.0
H1125 H 0.39224 0.19481 0.06273 0.0
C1126 C 0.4646 0.22163 0.87644 0.0
C1127 C 0.44603 0.20805 0.85606 0.0
C1128 C 0.46234 0.2218 0.9115 0.0
C1129 C 0.44153 0.20816 0.92692 0.0
C1130 C 0.42287 0.19472 0.90655 0.0
C1131 C 0.42514 0.19459 0.87136 0.0
C1132 C 0.43944 0.20814 0.9643 0.0
C1133 C 0.42446 0.214 0.9785 0.0
C1134 C 0.45321 0.20381 0.98586 0.0
C1135 C 0.46835 0.19617 0.97244 0.0
C1136 C 0.46001 0.17722 0.95143 0.0
C1137 C 0.47439 0.17029 0.93845 0.0
C1138 C 0.49713 0.18207 0.94647 0.0
C1139 C 0.50553 0.2008 0.96755 0.0
C1140 C 0.49124 0.20783 0.98056 0.0
C1141 C 0.4415 0.20899 0.13028 0.0
C1142 C 0.44659 0.23043 0.14084 0.0
C1143 C 0.43849 0.20336 0.09591 0.0
C1144 C 0.44042 0.21908 0.07162 0.0
C1145 C 0.44543 0.24049 0.08226 0.0
C1146 C 0.44844 0.2461 0.11655 0.0
C1147 C 0.43834 0.21362 0.03499 0.0
C1148 C 0.45258 0.20675 0.0209 0.0
C1149 C 0.42361 0.21665 0.01362 0.0
C1150 C 0.40717 0.22249 0.02736 0.0
C1151 C 0.40641 0.24116 0.01488 0.0
C1152 C 0.39111 0.2468 0.02814 0.0
C1153 C 0.37641 0.23385 0.05381 0.0
C1154 C 0.37694 0.21517 0.06621 0.0
C1155 C 0.39218 0.20944 0.05301 0.0
H1156 H 0.3646 0.23826 0.06407 0.0
H1157 H 0.50823 0.17668 0.93638 0.0
H1158 H 0.2048 0.41332 0.3621 0.0
H1159 H 0.19859 0.40982 0.42365 0.0
H1160 H 0.24494 0.48044 0.43512 0.0
H1161 H 0.25138 0.48379 0.37393 0.0
H1162 H 0.2528 0.45663 0.48102 0.0
H1163 H 0.18875 0.45946 0.43929 0.0
H1164 H 0.15498 0.44731 0.4045 0.0
H1165 H 0.1242 0.3826 0.45145 0.0
H1166 H 0.15795 0.39428 0.4862 0.0
H1167 H 0.22868 0.48385 0.64063 0.0
H1168 H 0.23177 0.4801 0.57968 0.0
H1169 H 0.18818 0.40875 0.58749 0.0
H1170 H 0.18535 0.41246 0.64902 0.0
H1171 H 0.1779 0.42823 0.53262 0.0
H1172 H 0.24147 0.42726 0.57818 0.0
H1173 H 0.27509 0.44063 0.61374 0.0
H1174 H 0.30684 0.50289 0.5597 0.0
H1175 H 0.27325 0.49004 0.52415 0.0
C1176 C 0.21359 0.42801 0.37794 0.0
C1177 C 0.22847 0.44882 0.36354 0.0
C1178 C 0.21 0.42605 0.41295 0.0
C1179 C 0.22121 0.44491 0.43397 0.0
C1180 C 0.23612 0.46567 0.41943 0.0
C1181 C 0.23969 0.46761 0.38454 0.0
C1182 C 0.21771 0.44319 0.47117 0.0
C1183 C 0.23644 0.45056 0.49226 0.0
C1184 C 0.19627 0.43469 0.48589 0.0
C1185 C 0.17598 0.42765 0.46504 0.0
C1186 C 0.17486 0.44257 0.44197 0.0
C1187 C 0.15571 0.43578 0.42231 0.0
C1188 C 0.13748 0.41417 0.42568 0.0
C1189 C 0.13835 0.39932 0.44881 0.0
C1190 C 0.15748 0.40602 0.46851 0.0
C1191 C 0.21996 0.46734 0.62942 0.0
C1192 C 0.20706 0.44839 0.64949 0.0
C1193 C 0.22165 0.46522 0.59461 0.0
C1194 C 0.21043 0.44411 0.57915 0.0
C1195 C 0.19702 0.42517 0.59899 0.0
C1196 C 0.19543 0.42729 0.634 0.0
C1197 C 0.21305 0.44209 0.54229 0.0
C1198 C 0.1942 0.43401 0.52131 0.0
C1199 C 0.23439 0.45003 0.52761 0.0
C1200 C 0.25476 0.45773 0.54865 0.0
C1201 C 0.25556 0.44386 0.57402 0.0
C1202 C 0.27462 0.45134 0.59417 0.0
C1203 C 0.29308 0.47261 0.58903 0.0
C1204 C 0.29253 0.48642 0.56366 0.0
C1205 C 0.27349 0.47904 0.54348 0.0
H1206 H 0.30782 0.47838 0.60466 0.0
H1207 H 0.12266 0.40895 0.41045 0.0
H1208 H 0.77239 0.25583 0.86177 0.0
H1209 H 0.77147 0.25221 0.92334 0.0
H1210 H 0.8147 0.22394 0.91718 0.0
H1211 H 0.81528 0.22721 0.85507 0.0
H1212 H 0.77957 0.20057 0.961 0.0
H1213 H 0.83567 0.27658 0.94358 0.0
H1214 H 0.85204 0.31458 0.9199 0.0
H1215 H 0.80133 0.32321 0.96876 0.0
H1216 H 0.78443 0.2851 0.99231 0.0
H1217 H 0.79288 0.20783 0.14131 0.0
H1218 H 0.80184 0.21318 0.0806 0.0
H1219 H 0.75998 0.24267 0.0688 0.0
H1220 H 0.75096 0.2372 0.12924 0.0
H1221 H 0.79919 0.2661 0.03456 0.0
H1222 H 0.74126 0.18905 0.04725 0.0
H1223 H 0.7246 0.15102 0.07095 0.0
H1224 H 0.77882 0.14446 0.03085 0.0
H1225 H 0.79602 0.18264 0.00741 0.0
C1226 C 0.78155 0.24868 0.87354 0.0
C1227 C 0.79375 0.2416 0.85379 0.0
C1228 C 0.78119 0.24681 0.90872 0.0
C1229 C 0.79319 0.238 0.92491 0.0
C1230 C 0.80535 0.23082 0.9052 0.0
C1231 C 0.80576 0.23275 0.86986 0.0
C1232 C 0.79266 0.23616 0.9624 0.0
C1233 C 0.78429 0.21496 0.97715 0.0
C1234 C 0.79848 0.25489 0.98343 0.0
C1235 C 0.80868 0.2779 0.96952 0.0
C1236 C 0.8279 0.28651 0.94908 0.0
C1237 C 0.83729 0.30808 0.93571 0.0
C1238 C 0.82771 0.32129 0.94278 0.0
C1239 C 0.80873 0.31296 0.9633 0.0
C1240 C 0.79925 0.29138 0.9767 0.0
C1241 C 0.78566 0.21546 0.12562 0.0
C1242 C 0.77121 0.22206 0.13972 0.0
C1243 C 0.79077 0.21851 0.09106 0.0
C1244 C 0.78144 0.22818 0.07012 0.0
C1245 C 0.76741 0.23524 0.08447 0.0
C1246 C 0.76227 0.23213 0.11893 0.0
C1247 C 0.78571 0.23047 0.03309 0.0
C1248 C 0.79478 0.25176 0.01844 0.0
C1249 C 0.78052 0.21184 0.01218 0.0
C1250 C 0.77006 0.18879 0.02592 0.0
C1251 C 0.74973 0.17957 0.04372 0.0
C1252 C 0.74017 0.15798 0.05708 0.0
C1253 C 0.75068 0.14535 0.05249 0.0
C1254 C 0.77073 0.15427 0.03444 0.0
C1255 C 0.78039 0.17589 0.02111 0.0
H1256 H 0.74326 0.12864 0.06285 0.0
H1257 H 0.835 0.33799 0.93239 0.0
H1258 H 0.5895 0.78221 0.64728 0.0
H1259 H 0.59381 0.78669 0.58552 0.0
H1260 H 0.52214 0.75462 0.57471 0.0
H1261 H 0.51786 0.74969 0.63608 0.0
H1262 H 0.53955 0.73782 0.53091 0.0
H1263 H 0.55567 0.81127 0.5671 0.0
H1264 H 0.57588 0.84638 0.59948 0.0
H1265 H 0.63752 0.8603 0.55224 0.0
H1266 H 0.6177 0.82509 0.5199 0.0
H1267 H 0.52123 0.76586 0.36863 0.0
H1268 H 0.52426 0.76286 0.4298 0.0
H1269 H 0.59602 0.79473 0.42092 0.0
H1270 H 0.59293 0.7978 0.35929 0.0
H1271 H 0.58324 0.81136 0.47409 0.0
H1272 H 0.56615 0.73948 0.43357 0.0
H1273 H 0.54552 0.70475 0.40047 0.0
H1274 H 0.48556 0.68779 0.4557 0.0
H1275 H 0.50574 0.72262 0.48877 0.0
C1276 C 0.57475 0.77622 0.63155 0.0
C1277 C 0.55338 0.76572 0.64619 0.0
C1278 C 0.5772 0.77884 0.59641 0.0
C1279 C 0.55828 0.77109 0.57554 0.0
C1280 C 0.53695 0.76071 0.59032 0.0
C1281 C 0.53452 0.75806 0.62533 0.0
C1282 C 0.56045 0.77332 0.53821 0.0
C1283 C 0.54897 0.75392 0.51849 0.0
C1284 C 0.57335 0.79425 0.52203 0.0
C1285 C 0.58525 0.81543 0.54139 0.0
C1286 C 0.57356 0.82173 0.56384 0.0
C1287 C 0.58494 0.84166 0.58214 0.0
C1288 C 0.60798 0.85553 0.578 0.0
C1289 C 0.61968 0.84952 0.55547 0.0
C1290 C 0.60838 0.82958 0.53714 0.0
C1291 C 0.53762 0.77206 0.37976 0.0
C1292 C 0.55685 0.78186 0.35947 0.0
C1293 C 0.53935 0.77035 0.41463 0.0
C1294 C 0.56035 0.77827 0.42984 0.0
C1295 C 0.57967 0.78844 0.40964 0.0
C1296 C 0.57791 0.79016 0.3746 0.0
C1297 C 0.56185 0.77591 0.46688 0.0
C1298 C 0.57405 0.79524 0.48652 0.0
C1299 C 0.5496 0.7549 0.48305 0.0
C1300 C 0.53745 0.73376 0.46352 0.0
C1301 C 0.54854 0.72842 0.43853 0.0
C1302 C 0.53692 0.70871 0.41977 0.0
C1303 C 0.51424 0.69409 0.42594 0.0
C1304 C 0.50313 0.69914 0.45094 0.0
C1305 C 0.51466 0.71885 0.46973 0.0
H1306 H 0.50527 0.67884 0.41139 0.0
H1307 H 0.61676 0.87096 0.59219 0.0
H1308 H 0.17712 0.50236 0.23623 0.0
H1309 H 0.17183 0.53493 0.23944 0.0
H1310 H 0.24337 0.57875 0.23664 0.0
H1311 H 0.24871 0.54659 0.23475 0.0
H1312 H 0.22686 0.59279 0.28228 0.0
H1313 H 0.2073 0.56795 0.16597 0.0
H1314 H 0.18562 0.54079 0.12116 0.0
H1315 H 0.12505 0.53554 0.15975 0.0
H1316 H 0.14637 0.56248 0.20503 0.0
H1317 H 0.24384 0.69705 0.23044 0.0
H1318 H 0.24101 0.66042 0.23147 0.0
H1319 H 0.16967 0.62889 0.24544 0.0
H1320 H 0.17224 0.66554 0.24401 0.0
H1321 H 0.18099 0.60639 0.19949 0.0
H1322 H 0.20227 0.63505 0.31215 0.0
H1323 H 0.22494 0.66324 0.35515 0.0
H1324 H 0.28347 0.662 0.32178 0.0
H1325 H 0.26121 0.63402 0.27825 0.0
C1326 C 0.19166 0.51897 0.23631 0.0
C1327 C 0.21332 0.5219 0.23533 0.0
C1328 C 0.18864 0.53756 0.23801 0.0
C1329 C 0.20722 0.55934 0.23802 0.0
C1330 C 0.22877 0.56217 0.23688 0.0
C1331 C 0.2318 0.54371 0.23573 0.0
C1332 C 0.20465 0.57945 0.23949 0.0
C1333 C 0.21693 0.59579 0.26399 0.0
C1334 C 0.19116 0.58313 0.21635 0.0
C1335 C 0.17838 0.56701 0.18909 0.0
C1336 C 0.18934 0.56087 0.16503 0.0
C1337 C 0.17712 0.54554 0.13953 0.0
C1338 C 0.15396 0.53639 0.13767 0.0
C1339 C 0.14298 0.54261 0.16126 0.0
C1340 C 0.15512 0.55791 0.18683 0.0
C1341 C 0.22751 0.68236 0.23366 0.0
C1342 C 0.20829 0.68427 0.23738 0.0
C1343 C 0.22594 0.66143 0.23434 0.0
C1344 C 0.20517 0.64198 0.23906 0.0
C1345 C 0.18586 0.64371 0.24191 0.0
C1346 C 0.18739 0.66468 0.24117 0.0
C1347 C 0.20383 0.61992 0.24145 0.0
C1348 C 0.19072 0.60323 0.21793 0.0
C1349 C 0.21671 0.61594 0.2653 0.0
C1350 C 0.23008 0.63253 0.2918 0.0
C1351 C 0.21999 0.64088 0.31386 0.0
C1352 C 0.23277 0.65681 0.33834 0.0
C1353 C 0.25563 0.66443 0.34116 0.0
C1354 C 0.26576 0.65608 0.31956 0.0
C1355 C 0.25306 0.64016 0.29501 0.0
H1356 H 0.2655 0.67678 0.36012 0.0
H1357 H 0.14453 0.52453 0.11791 0.0
H1358 H 0.70435 0.24185 0.76034 0.0
H1359 H 0.66693 0.2368 0.76273 0.0
H1360 H 0.64339 0.1811 0.69367 0.0
H1361 H 0.68123 0.18666 0.69011 0.0
H1362 H 0.62878 0.20711 0.67395 0.0
H1363 H 0.62858 0.17453 0.78009 0.0
H1364 H 0.64261 0.17167 0.83615 0.0
H1365 H 0.64066 0.22979 0.86975 0.0
H1366 H 0.62691 0.2332 0.81372 0.0
H1367 H 0.51367 0.17504 0.70434 0.0
H1368 H 0.54905 0.17489 0.70425 0.0
H1369 H 0.58272 0.24143 0.74619 0.0
H1370 H 0.54752 0.24197 0.74569 0.0
H1371 H 0.59026 0.20697 0.78001 0.0
H1372 H 0.59236 0.23979 0.6709 0.0
H1373 H 0.57709 0.24085 0.61499 0.0
H1374 H 0.57375 0.17905 0.58785 0.0
H1375 H 0.58871 0.17745 0.64386 0.0
C1376 C 0.69119 0.2283 0.74599 0.0
C1377 C 0.69581 0.21467 0.72495 0.0
C1378 C 0.6697 0.22535 0.74753 0.0
C1379 C 0.6522 0.2084 0.72868 0.0
C1380 C 0.65661 0.19431 0.70844 0.0
C1381 C 0.67822 0.19743 0.70654 0.0
C1382 C 0.62976 0.20644 0.7285 0.0
C1383 C 0.6202 0.20663 0.6972 0.0
C1384 C 0.61865 0.20622 0.75878 0.0
C1385 C 0.62687 0.20421 0.79258 0.0
C1386 C 0.6313 0.1868 0.79934 0.0
C1387 C 0.63917 0.18507 0.83114 0.0
C1388 C 0.64257 0.20057 0.85647 0.0
C1389 C 0.63804 0.21781 0.85009 0.0
C1390 C 0.63017 0.21963 0.81833 0.0
C1391 C 0.52862 0.18969 0.71341 0.0
C1392 C 0.52783 0.20854 0.72498 0.0
C1393 C 0.54878 0.18956 0.71332 0.0
C1394 C 0.56839 0.20812 0.72527 0.0
C1395 C 0.56769 0.22694 0.73695 0.0
C1396 C 0.54762 0.22725 0.73647 0.0
C1397 C 0.58965 0.20786 0.72564 0.0
C1398 C 0.59888 0.20724 0.75691 0.0
C1399 C 0.60031 0.20738 0.69541 0.0
C1400 C 0.5914 0.20836 0.66171 0.0
C1401 C 0.58816 0.22631 0.65314 0.0
C1402 C 0.57961 0.22703 0.62141 0.0
C1403 C 0.57438 0.20999 0.59792 0.0
C1404 C 0.57777 0.19221 0.60609 0.0
C1405 C 0.5863 0.1914 0.63782 0.0
H1406 H 0.56777 0.21058 0.57336 0.0
H1407 H 0.64867 0.1992 0.88107 0.0
H1408 H 0.48382 0.68386 0.16513 0.0
H1409 H 0.45303 0.64531 0.16891 0.0
H1410 H 0.4447 0.6549 0.27463 0.0
H1411 H 0.47568 0.69336 0.27125 0.0
H1412 H 0.43723 0.61284 0.26289 0.0
H1413 H 0.41349 0.66232 0.21697 0.0
H1414 H 0.41455 0.69037 0.17719 0.0
H1415 H 0.40229 0.64562 0.09406 0.0
H1416 H 0.4014 0.6174 0.13334 0.0
H1417 H 0.30827 0.54743 0.24062 0.0
H1418 H 0.34479 0.58096 0.23717 0.0
H1419 H 0.37579 0.54053 0.2244 0.0
H1420 H 0.33905 0.50656 0.22863 0.0
H1421 H 0.37338 0.59687 0.18775 0.0
H1422 H 0.42944 0.56988 0.25737 0.0
H1423 H 0.42652 0.54348 0.30187 0.0
H1424 H 0.37086 0.54579 0.34585 0.0
H1425 H 0.37364 0.5724 0.30189 0.0
C1426 C 0.47571 0.67767 0.18935 0.0
C1427 C 0.48198 0.69179 0.21777 0.0
C1428 C 0.4581 0.65563 0.19144 0.0
C1429 C 0.44636 0.64737 0.22191 0.0
C1430 C 0.45351 0.66095 0.25085 0.0
C1431 C 0.47116 0.68298 0.24882 0.0
C1432 C 0.42539 0.62545 0.2229 0.0
C1433 C 0.42331 0.60923 0.2463 0.0
C1434 C 0.4071 0.62093 0.20167 0.0
C1435 C 0.40763 0.63787 0.17803 0.0
C1436 C 0.4112 0.65854 0.19018 0.0
C1437 C 0.41173 0.67445 0.16773 0.0
C1438 C 0.40857 0.6698 0.13311 0.0
C1439 C 0.40479 0.64921 0.12088 0.0
C1440 C 0.40425 0.63325 0.14321 0.0
C1441 C 0.32281 0.54555 0.23715 0.0
C1442 C 0.3207 0.52426 0.23484 0.0
C1443 C 0.34371 0.5648 0.23509 0.0
C1444 C 0.36306 0.56331 0.23058 0.0
C1445 C 0.36111 0.54209 0.22827 0.0
C1446 C 0.34011 0.52271 0.23058 0.0
C1447 C 0.38506 0.58415 0.22787 0.0
C1448 C 0.38737 0.60024 0.20404 0.0
C1449 C 0.40328 0.58871 0.24932 0.0
C1450 C 0.40159 0.57291 0.2761 0.0
C1451 C 0.41662 0.56479 0.27659 0.0
C1452 C 0.41498 0.54979 0.30172 0.0
C1453 C 0.39846 0.54289 0.32659 0.0
C1454 C 0.38359 0.55106 0.32649 0.0
C1455 C 0.38517 0.56608 0.30145 0.0
H1456 H 0.39721 0.53127 0.346 0.0
H1457 H 0.40898 0.68212 0.11575 0.0
H1458 H 0.82846 0.33991 0.69788 0.0
H1459 H 0.82903 0.37562 0.69651 0.0
H1460 H 0.76332 0.34409 0.74165 0.0
H1461 H 0.76224 0.30829 0.74153 0.0
H1462 H 0.76446 0.36992 0.69522 0.0
H1463 H 0.81422 0.37876 0.78674 0.0
H1464 H 0.8467 0.37924 0.81355 0.0
H1465 H 0.8909 0.43104 0.74546 0.0
H1466 H 0.85864 0.43066 0.71796 0.0
H1467 H 0.75904 0.46058 0.76284 0.0
H1468 H 0.7655 0.429 0.76051 0.0
H1469 H 0.81985 0.46494 0.69055 0.0
H1470 H 0.81341 0.49681 0.69241 0.0
H1471 H 0.827 0.43906 0.74453 0.0
H1472 H 0.7748 0.43066 0.65642 0.0
H1473 H 0.74113 0.43011 0.6344 0.0
H1474 H 0.70002 0.37662 0.70236 0.0
H1475 H 0.7335 0.37708 0.72515 0.0
C1476 C 0.81413 0.34063 0.7074 0.0
C1477 C 0.79529 0.3213 0.71977 0.0
C1478 C 0.81453 0.36108 0.70682 0.0
C1479 C 0.79636 0.36269 0.71946 0.0
C1480 C 0.77753 0.34333 0.73167 0.0
C1481 C 0.77694 0.32284 0.73162 0.0
C1482 C 0.79662 0.38435 0.71974 0.0
C1483 C 0.7781 0.38494 0.7063 0.0
C1484 C 0.8146 0.40419 0.73348 0.0
C1485 C 0.83401 0.4045 0.75006 0.0
C1486 C 0.83086 0.39013 0.77733 0.0
C1487 C 0.84923 0.39041 0.79267 0.0
C1488 C 0.87085 0.40511 0.78115 0.0
C1489 C 0.87415 0.41963 0.75432 0.0
C1490 C 0.85583 0.4194 0.73886 0.0
C1491 C 0.77257 0.46198 0.74723 0.0
C1492 C 0.78555 0.48115 0.72746 0.0
C1493 C 0.77622 0.44389 0.74596 0.0
C1494 C 0.79296 0.4446 0.72507 0.0
C1495 C 0.80682 0.46413 0.70676 0.0
C1496 C 0.80307 0.48226 0.70781 0.0
C1497 C 0.79471 0.42426 0.72073 0.0
C1498 C 0.81355 0.424 0.73326 0.0
C1499 C 0.77687 0.40457 0.70673 0.0
C1500 C 0.75668 0.40403 0.69266 0.0
C1501 C 0.7586 0.41889 0.66683 0.0
C1502 C 0.73955 0.41858 0.65418 0.0
C1503 C 0.71845 0.40337 0.66702 0.0
C1504 C 0.71637 0.3884 0.69246 0.0
C1505 C 0.73538 0.38866 0.70521 0.0
H1506 H 0.70372 0.40317 0.65721 0.0
H1507 H 0.88505 0.4053 0.79305 0.0
H1508 H 0.30833 0.78052 0.26916 0.0
H1509 H 0.34669 0.78769 0.27161 0.0
H1510 H 0.35023 0.79031 0.16254 0.0
H1511 H 0.31166 0.7825 0.15988 0.0
H1512 H 0.36442 0.76434 0.18431 0.0
H1513 H 0.38 0.83785 0.21272 0.0
H1514 H 0.37579 0.86652 0.24371 0.0
H1515 H 0.39399 0.84733 0.33644 0.0
H1516 H 0.39803 0.81833 0.30608 0.0
H1517 H 0.49265 0.82631 0.22092 0.0
H1518 H 0.45783 0.82732 0.2158 0.0
H1519 H 0.42014 0.75755 0.24307 0.0
H1520 H 0.45465 0.75621 0.24716 0.0
H1521 H 0.42499 0.82052 0.25719 0.0
H1522 H 0.37244 0.73153 0.20106 0.0
H1523 H 0.37824 0.70506 0.16654 0.0
H1524 H 0.43623 0.75979 0.12099 0.0
H1525 H 0.43067 0.78658 0.15497 0.0
C1526 C 0.31738 0.78295 0.2457 0.0
C1527 C 0.30691 0.78082 0.21431 0.0
C1528 C 0.33937 0.78714 0.24714 0.0
C1529 C 0.35143 0.78964 0.21725 0.0
C1530 C 0.34125 0.78835 0.18593 0.0
C1531 C 0.31921 0.78395 0.18446 0.0
C1532 C 0.374 0.79199 0.21855 0.0
C1533 C 0.37767 0.77672 0.20013 0.0
C1534 C 0.39146 0.80831 0.2388 0.0
C1535 C 0.38915 0.8258 0.25715 0.0
C1536 C 0.38295 0.83964 0.23976 0.0
C1537 C 0.38062 0.85597 0.25721 0.0
C1538 C 0.38457 0.85871 0.29203 0.0
C1539 C 0.39092 0.84517 0.30947 0.0
C1540 C 0.39326 0.82881 0.29214 0.0
C1541 C 0.47693 0.81119 0.22587 0.0
C1542 C 0.4764 0.79111 0.23403 0.0
C1543 C 0.45706 0.81182 0.22304 0.0
C1544 C 0.43635 0.79242 0.22846 0.0
C1545 C 0.43588 0.7726 0.23796 0.0
C1546 C 0.45566 0.77188 0.24039 0.0
C1547 C 0.41516 0.79264 0.22343 0.0
C1548 C 0.41175 0.80829 0.2412 0.0
C1549 C 0.39807 0.77701 0.20196 0.0
C1550 C 0.40121 0.76104 0.18074 0.0
C1551 C 0.38635 0.73792 0.18353 0.0
C1552 C 0.38962 0.72286 0.1641 0.0
C1553 C 0.40761 0.73075 0.14164 0.0
C1554 C 0.42233 0.7537 0.13847 0.0
C1555 C 0.41915 0.76883 0.15783 0.0
H1556 H 0.41012 0.71908 0.12665 0.0
H1557 H 0.38275 0.87136 0.3055 0.0
H1558 H 0.6595 0.48838 0.70586 0.0
H1559 H 0.62332 0.45375 0.70293 0.0
H1560 H 0.65055 0.41959 0.76015 0.0
H1561 H 0.6869 0.45368 0.76119 0.0
H1562 H 0.62801 0.39421 0.71312 0.0
H1563 H 0.61282 0.43734 0.79337 0.0
H1564 H 0.61081 0.47002 0.81391 0.0
H1565 H 0.56516 0.46146 0.73386 0.0
H1566 H 0.56711 0.42888 0.71259 0.0
H1567 H 0.53057 0.29923 0.76802 0.0
H1568 H 0.56213 0.3373 0.77064 0.0
H1569 H 0.53547 0.35601 0.68621 0.0
H1570 H 0.50375 0.31771 0.68303 0.0
H1571 H 0.55593 0.38936 0.74303 0.0
H1572 H 0.57135 0.34405 0.66581 0.0
H1573 H 0.5729 0.31023 0.65049 0.0
H1574 H 0.61857 0.32244 0.73222 0.0
H1575 H 0.61701 0.35615 0.74836 0.0
C1576 C 0.65766 0.47344 0.71784 0.0
C1577 C 0.67597 0.47365 0.73364 0.0
C1578 C 0.63694 0.45369 0.71637 0.0
C1579 C 0.63401 0.43402 0.73171 0.0
C1580 C 0.65232 0.43443 0.74794 0.0
C1581 C 0.6731 0.45395 0.7486 0.0
C1582 C 0.61224 0.41272 0.73007 0.0
C1583 C 0.61235 0.39325 0.72008 0.0
C1584 C 0.59159 0.41133 0.73834 0.0
C1585 C 0.5903 0.43083 0.75119 0.0
C1586 C 0.60247 0.44253 0.78002 0.0
C1587 C 0.60133 0.46101 0.79181 0.0
C1588 C 0.58792 0.46785 0.77514 0.0
C1589 C 0.57557 0.45617 0.74671 0.0
C1590 C 0.57667 0.43768 0.73479 0.0
C1591 C 0.53114 0.31146 0.7503 0.0
C1592 C 0.51477 0.30534 0.72499 0.0
C1593 C 0.5492 0.33323 0.75189 0.0
C1594 C 0.55118 0.34932 0.7284 0.0
C1595 C 0.53418 0.34375 0.70452 0.0
C1596 C 0.51613 0.32186 0.7027 0.0
C1597 C 0.57207 0.37117 0.72693 0.0
C1598 C 0.57171 0.39059 0.73608 0.0
C1599 C 0.59261 0.37253 0.71858 0.0
C1600 C 0.5939 0.35251 0.70846 0.0
C1601 C 0.5816 0.33944 0.68066 0.0
C1602 C 0.58249 0.3203 0.67181 0.0
C1603 C 0.59578 0.31415 0.69043 0.0
C1604 C 0.60826 0.3272 0.71785 0.0
C1605 C 0.6074 0.34633 0.72683 0.0
H1606 H 0.59643 0.29932 0.68356 0.0
H1607 H 0.58706 0.48217 0.7843 0.0
H1608 H 0.33576 0.82192 0.81301 0.0
H1609 H 0.37142 0.82244 0.81462 0.0
H1610 H 0.3456 0.76759 0.74353 0.0
H1611 H 0.30952 0.76604 0.74391 0.0
H1612 H 0.36782 0.76031 0.78534 0.0
H1613 H 0.38409 0.82587 0.7226 0.0
H1614 H 0.38583 0.8618 0.71108 0.0
H1615 H 0.42868 0.89123 0.79713 0.0
H1616 H 0.42695 0.85537 0.80944 0.0
H1617 H 0.47013 0.77193 0.73337 0.0
H1618 H 0.43819 0.77786 0.73071 0.0
H1619 H 0.4576 0.81304 0.82588 0.0
H1620 H 0.4897 0.80711 0.82897 0.0
H1621 H 0.43995 0.83117 0.77271 0.0
H1622 H 0.42208 0.76178 0.83163 0.0
H1623 H 0.4226 0.72632 0.83359 0.0
H1624 H 0.38334 0.7043 0.74275 0.0
H1625 H 0.38284 0.73975 0.74 0.0
C1626 C 0.33776 0.80995 0.79786 0.0
C1627 C 0.31995 0.79394 0.77835 0.0
C1628 C 0.3582 0.81037 0.79854 0.0
C1629 C 0.36149 0.79536 0.77863 0.0
C1630 C 0.34359 0.77933 0.75919 0.0
C1631 C 0.32296 0.77847 0.75934 0.0
C1632 C 0.38338 0.79603 0.77836 0.0
C1633 C 0.38349 0.77585 0.78219 0.0
C1634 C 0.40404 0.81625 0.77453 0.0
C1635 C 0.4052 0.83787 0.76714 0.0
C1636 C 0.39376 0.83996 0.7392 0.0
C1637 C 0.39476 0.86032 0.73252 0.0
C1638 C 0.40731 0.87877 0.75342 0.0
C1639 C 0.41894 0.87691 0.781 0.0
C1640 C 0.41797 0.85658 0.78783 0.0
C1641 C 0.46791 0.78129 0.75349 0.0
C1642 C 0.48227 0.78875 0.78168 0.0
C1643 C 0.44965 0.78468 0.75187 0.0
C1644 C 0.44546 0.79563 0.7783 0.0
C1645 C 0.46061 0.80452 0.80528 0.0
C1646 C 0.47888 0.80104 0.80703 0.0
C1647 C 0.42405 0.79558 0.77944 0.0
C1648 C 0.42413 0.81579 0.77591 0.0
C1649 C 0.40351 0.77535 0.78251 0.0
C1650 C 0.40258 0.75348 0.78547 0.0
C1651 C 0.41357 0.74937 0.81207 0.0
C1652 C 0.41389 0.7293 0.8133 0.0
C1653 C 0.40313 0.71314 0.78819 0.0
C1654 C 0.39172 0.71687 0.76212 0.0
C1655 C 0.39138 0.73692 0.76075 0.0
H1656 H 0.40369 0.69777 0.78885 0.0
H1657 H 0.40806 0.89451 0.7482 0.0
H1658 H 0.51258 0.33913 0.29931 0.0
H1659 H 0.54741 0.37504 0.30333 0.0
H1660 H 0.58023 0.34939 0.2394 0.0
H1661 H 0.54596 0.31315 0.23756 0.0
H1662 H 0.60684 0.37051 0.28491 0.0
H1663 H 0.56257 0.38888 0.21316 0.0
H1664 H 0.52975 0.39172 0.19598 0.0
H1665 H 0.53911 0.43394 0.28145 0.0
H1666 H 0.57183 0.43111 0.29939 0.0
H1667 H 0.70044 0.47205 0.23662 0.0
H1668 H 0.66243 0.44053 0.23234 0.0
H1669 H 0.64506 0.46011 0.32598 0.0
H1670 H 0.68333 0.49172 0.33087 0.0
H1671 H 0.6109 0.44364 0.26785 0.0
H1672 H 0.65768 0.42393 0.3359 0.0
H1673 H 0.69222 0.42236 0.34482 0.0
H1674 H 0.67896 0.38292 0.25472 0.0
H1675 H 0.6445 0.38454 0.24502 0.0
C1676 C 0.52727 0.34128 0.2861 0.0
C1677 C 0.52667 0.32343 0.2682 0.0
C1678 C 0.54714 0.36185 0.28817 0.0
C1679 C 0.56651 0.36517 0.27125 0.0
C1680 C 0.56566 0.34733 0.25288 0.0
C1681 C 0.54605 0.32662 0.25172 0.0
C1682 C 0.5879 0.38685 0.27346 0.0
C1683 C 0.60759 0.3864 0.28075 0.0
C1684 C 0.58912 0.4078 0.26856 0.0
C1685 C 0.5695 0.40958 0.25781 0.0
C1686 C 0.55753 0.39864 0.22842 0.0
C1687 C 0.53896 0.40027 0.21853 0.0
C1688 C 0.53231 0.41295 0.23767 0.0
C1689 C 0.54426 0.42409 0.26668 0.0
C1690 C 0.56282 0.42249 0.27671 0.0
C1691 C 0.68851 0.46995 0.25609 0.0
C1692 C 0.69501 0.48425 0.28436 0.0
C1693 C 0.66678 0.45193 0.25353 0.0
C1694 C 0.6511 0.44797 0.27897 0.0
C1695 C 0.65701 0.46298 0.30611 0.0
C1696 C 0.67888 0.48095 0.3089 0.0
C1697 C 0.62938 0.42693 0.27878 0.0
C1698 C 0.60982 0.4276 0.27203 0.0
C1699 C 0.62829 0.40611 0.28312 0.0
C1700 C 0.64861 0.40451 0.28961 0.0
C1701 C 0.6622 0.41503 0.31791 0.0
C1702 C 0.68175 0.41412 0.32311 0.0
C1703 C 0.68781 0.4026 0.3003 0.0
C1704 C 0.67426 0.39185 0.27235 0.0
C1705 C 0.6547 0.39273 0.26702 0.0
H1706 H 0.70299 0.40197 0.30431 0.0
H1707 H 0.51794 0.41419 0.22997 0.0
H1708 H 0.23294 0.54739 0.76186 0.0
H1709 H 0.23129 0.58174 0.76226 0.0
H1710 H 0.16341 0.54556 0.79905 0.0
H1711 H 0.16465 0.51068 0.79741 0.0
H1712 H 0.16677 0.57452 0.75331 0.0
H1713 H 0.20801 0.57933 0.85226 0.0
H1714 H 0.23694 0.57764 0.88656 0.0
H1715 H 0.28834 0.6309 0.82799 0.0
H1716 H 0.25972 0.63271 0.79301 0.0
H1717 H 0.17867 0.68267 0.80117 0.0
H1718 H 0.17167 0.64414 0.80205 0.0
H1719 H 0.23136 0.6645 0.74323 0.0
H1720 H 0.23831 0.70272 0.74167 0.0
H1721 H 0.22852 0.64231 0.80684 0.0
H1722 H 0.1853 0.63466 0.70578 0.0
H1723 H 0.15535 0.63604 0.67385 0.0
H1724 H 0.1062 0.58788 0.74145 0.0
H1725 H 0.13591 0.58646 0.77411 0.0
C1726 C 0.21765 0.54668 0.77019 0.0
C1727 C 0.19899 0.52632 0.77995 0.0
C1728 C 0.21676 0.5664 0.77053 0.0
C1729 C 0.19741 0.56637 0.78145 0.0
C1730 C 0.17858 0.54601 0.79073 0.0
C1731 C 0.17934 0.52613 0.78989 0.0
C1732 C 0.19703 0.58768 0.78279 0.0
C1733 C 0.18005 0.58923 0.76558 0.0
C1734 C 0.21438 0.60695 0.7987 0.0
C1735 C 0.23169 0.60605 0.81986 0.0
C1736 C 0.22548 0.5906 0.84656 0.0
C1737 C 0.24183 0.58962 0.86614 0.0
C1738 C 0.26446 0.60412 0.85942 0.0
C1739 C 0.2708 0.61967 0.83316 0.0
C1740 C 0.25452 0.6207 0.81348 0.0
C1741 C 0.19007 0.67885 0.78792 0.0
C1742 C 0.20914 0.69582 0.77159 0.0
C1743 C 0.18604 0.65685 0.78846 0.0
C1744 C 0.2011 0.6516 0.77289 0.0
C1745 C 0.21962 0.6683 0.7555 0.0
C1746 C 0.22351 0.69013 0.75459 0.0
C1747 C 0.19869 0.62919 0.77659 0.0
C1748 C 0.21512 0.62748 0.79496 0.0
C1749 C 0.18068 0.6098 0.76226 0.0
C1750 C 0.16285 0.61068 0.74264 0.0
C1751 C 0.16813 0.62455 0.71406 0.0
C1752 C 0.15119 0.62529 0.69577 0.0
C1753 C 0.12889 0.61212 0.70568 0.0
C1754 C 0.12348 0.59812 0.73385 0.0
C1755 C 0.14036 0.59733 0.75224 0.0
H1756 H 0.1158 0.61271 0.69148 0.0
H1757 H 0.27709 0.60334 0.8746 0.0
H1758 H 0.54259 0.24479 0.27945 0.0
H1759 H 0.57293 0.23663 0.27705 0.0
H1760 H 0.52614 0.1679 0.25215 0.0
H1761 H 0.49522 0.17588 0.25536 0.0
H1762 H 0.55828 0.17153 0.29695 0.0
H1763 H 0.5574 0.20314 0.19014 0.0
H1764 H 0.55573 0.23031 0.15153 0.0
H1765 H 0.61713 0.28285 0.19288 0.0
H1766 H 0.61901 0.25607 0.2321 0.0
H1767 H 0.65601 0.16339 0.25235 0.0
H1768 H 0.61936 0.16095 0.25085 0.0
H1769 H 0.65035 0.23087 0.27668 0.0
H1770 H 0.68681 0.23354 0.27792 0.0
H1771 H 0.62262 0.22061 0.22339 0.0
H1772 H 0.62064 0.18975 0.33466 0.0
H1773 H 0.6221 0.16281 0.37403 0.0
H1774 H 0.56614 0.10869 0.32355 0.0
H1775 H 0.56454 0.13532 0.28359 0.0
C1776 C 0.53864 0.22789 0.2735 0.0
C1777 C 0.51651 0.21103 0.26716 0.0
C1778 C 0.55605 0.22327 0.27208 0.0
C1779 C 0.55187 0.20179 0.26365 0.0
C1780 C 0.52972 0.18463 0.25845 0.0
C1781 C 0.51212 0.18922 0.26022 0.0
C1782 C 0.57096 0.19781 0.25968 0.0
C1783 C 0.57217 0.18192 0.28035 0.0
C1784 C 0.58913 0.21146 0.23816 0.0
C1785 C 0.58828 0.22759 0.21417 0.0
C1786 C 0.57049 0.22051 0.19111 0.0
C1787 C 0.56951 0.23584 0.16912 0.0
C1788 C 0.5863 0.2583 0.16978 0.0
C1789 C 0.60414 0.26545 0.19239 0.0
C1790 C 0.60519 0.25019 0.21447 0.0
C1791 C 0.65498 0.1782 0.25792 0.0
C1792 C 0.67439 0.19868 0.26513 0.0
C1793 C 0.63402 0.17676 0.25712 0.0
C1794 C 0.63214 0.19574 0.26367 0.0
C1795 C 0.65143 0.21605 0.27137 0.0
C1796 C 0.67229 0.21752 0.27213 0.0
C1797 C 0.61034 0.19498 0.26163 0.0
C1798 C 0.60859 0.20994 0.23958 0.0
C1799 C 0.59174 0.18044 0.28179 0.0
C1800 C 0.59265 0.16448 0.3059 0.0
C1801 C 0.60877 0.17209 0.33179 0.0
C1802 C 0.6096 0.15688 0.35424 0.0
C1803 C 0.59427 0.13404 0.35123 0.0
C1804 C 0.57803 0.12638 0.32581 0.0
C1805 C 0.57715 0.14152 0.30327 0.0
H1806 H 0.59494 0.1223 0.36863 0.0
H1807 H 0.5855 0.27015 0.15275 0.0
H1808 H 0.4506 0.6945 0.76025 0.0
H1809 H 0.41531 0.65931 0.76273 0.0
H1810 H 0.45004 0.62554 0.79709 0.0
H1811 H 0.48565 0.66065 0.79323 0.0
H1812 H 0.42048 0.60044 0.75364 0.0
H1813 H 0.41866 0.64026 0.85067 0.0
H1814 H 0.42083 0.67155 0.88375 0.0
H1815 H 0.365 0.66676 0.82878 0.0
H1816 H 0.36286 0.63585 0.79469 0.0
H1817 H 0.31549 0.50481 0.80923 0.0
H1818 H 0.35347 0.5373 0.80794 0.0
H1819 H 0.3296 0.57412 0.7502 0.0
H1820 H 0.29191 0.54189 0.75083 0.0
H1821 H 0.35428 0.596 0.81023 0.0
H1822 H 0.35889 0.55742 0.71084 0.0
H1823 H 0.3566 0.52519 0.68033 0.0
H1824 H 0.40708 0.52644 0.7452 0.0
H1825 H 0.40943 0.55849 0.77643 0.0
C1826 C 0.45076 0.67961 0.76842 0.0
C1827 C 0.47094 0.6804 0.77672 0.0
C1828 C 0.43052 0.65948 0.77 0.0
C1829 C 0.4299 0.63979 0.78076 0.0
C1830 C 0.45005 0.6405 0.78882 0.0
C1831 C 0.47039 0.66059 0.78668 0.0
C1832 C 0.40825 0.61845 0.78298 0.0
C1833 C 0.40614 0.59943 0.76654 0.0
C1834 C 0.38938 0.61706 0.79956 0.0
C1835 C 0.39074 0.63583 0.81987 0.0
C1836 C 0.40699 0.64602 0.84537 0.0
C1837 C 0.4082 0.66369 0.86432 0.0
C1838 C 0.39309 0.67116 0.85833 0.0
C1839 C 0.37669 0.66094 0.83341 0.0
C1840 C 0.37551 0.64339 0.81419 0.0
C1841 C 0.31841 0.51973 0.7959 0.0
C1842 C 0.30065 0.52078 0.78027 0.0
C1843 C 0.34008 0.53824 0.79518 0.0
C1844 C 0.34423 0.55808 0.7791 0.0
C1845 C 0.32667 0.55896 0.76284 0.0
C1846 C 0.30515 0.54046 0.76315 0.0
C1847 C 0.36659 0.57839 0.78041 0.0
C1848 C 0.36877 0.59713 0.79762 0.0
C1849 C 0.38554 0.57942 0.76502 0.0
C1850 C 0.38413 0.56017 0.74624 0.0
C1851 C 0.36934 0.55068 0.71882 0.0
C1852 C 0.36807 0.53248 0.70134 0.0
C1853 C 0.38163 0.52373 0.71089 0.0
C1854 C 0.39655 0.5332 0.73787 0.0
C1855 C 0.39786 0.5514 0.75546 0.0
H1856 H 0.38063 0.50964 0.69731 0.0
H1857 H 0.39406 0.68485 0.87301 0.0
H1858 H 0.81742 0.3204 0.27321 0.0
H1859 H 0.82231 0.35812 0.27376 0.0
H1860 H 0.75095 0.32973 0.28421 0.0
H1861 H 0.74597 0.29233 0.28215 0.0
H1862 H 0.76469 0.36059 0.24031 0.0
H1863 H 0.7901 0.35541 0.35169 0.0
H1864 H 0.81332 0.34962 0.39333 0.0
H1865 H 0.87256 0.40454 0.35077 0.0
H1866 H 0.84969 0.41048 0.30859 0.0
H1867 H 0.75703 0.4538 0.29184 0.0
H1868 H 0.75702 0.41849 0.293 0.0
H1869 H 0.82754 0.45325 0.27023 0.0
H1870 H 0.82785 0.48883 0.26971 0.0
H1871 H 0.81676 0.42075 0.31771 0.0
H1872 H 0.78925 0.42608 0.20759 0.0
H1873 H 0.76446 0.43192 0.16919 0.0
H1874 H 0.70703 0.37589 0.2136 0.0
H1875 H 0.73147 0.36987 0.25249 0.0
C1876 C 0.80284 0.32229 0.27569 0.0
C1877 C 0.78133 0.30343 0.27751 0.0
C1878 C 0.80563 0.34384 0.27618 0.0
C1879 C 0.787 0.34683 0.27934 0.0
C1880 C 0.76559 0.32793 0.28154 0.0
C1881 C 0.76277 0.30651 0.28042 0.0
C1882 C 0.78942 0.36948 0.27958 0.0
C1883 C 0.77594 0.37362 0.25754 0.0
C1884 C 0.80444 0.38676 0.30143 0.0
C1885 C 0.81821 0.38322 0.32675 0.0
C1886 C 0.80809 0.36614 0.35104 0.0
C1887 C 0.82119 0.36285 0.37477 0.0
C1888 C 0.84441 0.37666 0.37462 0.0
C1889 C 0.85457 0.39383 0.35081 0.0
C1890 C 0.84155 0.39717 0.327 0.0
C1891 C 0.77259 0.454 0.28723 0.0
C1892 C 0.79241 0.47414 0.28037 0.0
C1893 C 0.77254 0.43377 0.28782 0.0
C1894 C 0.7922 0.4332 0.2811 0.0
C1895 C 0.81217 0.45332 0.27535 0.0
C1896 C 0.81229 0.47362 0.27498 0.0
C1897 C 0.7917 0.41152 0.27902 0.0
C1898 C 0.80561 0.40766 0.30048 0.0
C1899 C 0.77685 0.39434 0.257 0.0
C1900 C 0.76218 0.3976 0.23304 0.0
C1901 C 0.77133 0.41505 0.20921 0.0
C1902 C 0.75734 0.41839 0.18737 0.0
C1903 C 0.73419 0.4043 0.18899 0.0
C1904 C 0.72497 0.38679 0.21237 0.0
C1905 C 0.73888 0.38337 0.23426 0.0
H1906 H 0.72339 0.40694 0.1721 0.0
H1907 H 0.85452 0.37409 0.39302 0.0
loop_
_geom_bond_atom_site_label_1
_geom_bond_atom_site_label_2
_geom_bond_distance
_geom_bond_site_symmetry_2
_ccdc_geom_bond_type
Co0 O3 1.970 . S
Co0 N17 1.989 . S
Co0 O25 1.967 . S
Co0 O32 1.920 . S
Co1 O4 1.966 . S
Co1 N10 2.022 . S
Co1 N18 1.993 . S
Co1 O26 1.941 . S
C2 O3 1.258 . S
C2 O4 1.263 . S
O3 Co0 1.970 . S
O3 C2 1.258 . S
O4 Co1 1.966 . S
O4 C2 1.263 . S
C5 O6 1.235 . S
C5 O32 1.289 . S
O6 C5 1.235 . S
C7 C9 1.400 . S
C7 N10 1.351 . S
C7 C12 1.501 . S
C8 C9 1.387 . S
C8 N11 1.341 . S
C9 C7 1.400 . S
C9 C8 1.387 . S
N10 Co1 2.022 . S
N10 C7 1.351 . S
N10 N11 1.365 . S
N11 C8 1.341 . S
N11 N10 1.365 . S
N11 H31 0.862 . S
C12 C7 1.501 . S
C12 H13 0.961 . S
C12 H14 0.961 . S
C12 H15 0.960 . S
H13 C12 0.961 . S
H14 C12 0.961 . S
H15 C12 0.960 . S
C16 N17 1.342 . S
C16 C20 1.401 . S
C16 C21 1.499 . S
N17 Co0 1.989 . S
N17 C16 1.342 . S
N17 N18 1.388 . S
N18 Co1 1.993 . S
N18 N17 1.388 . S
N18 C19 1.346 . S
C19 N18 1.346 . S
C19 C20 1.396 . S
C19 C29 1.510 . S
C20 C16 1.401 . S
C20 C19 1.396 . S
C21 C16 1.499 . S
C21 H22 0.959 . S
C21 H23 0.960 . S
C21 H24 0.961 . S
H22 C21 0.959 . S
H23 C21 0.960 . S
H24 C21 0.961 . S
O25 Co0 1.967 . S
O25 C33 1.258 . S
O26 Co1 1.941 . S
O26 C33 1.266 . S
H27 C29 0.959 . S
H28 C29 0.961 . S
C29 C19 1.510 . S
C29 H27 0.959 . S
C29 H28 0.961 . S
C29 H30 0.960 . S
H30 C29 0.960 . S
H31 N11 0.862 . S
O32 Co0 1.920 . S
O32 C5 1.289 . S
C33 O25 1.258 . S
C33 O26 1.266 . S
Co34 O37 1.970 . S
Co34 N51 1.989 . S
Co34 O59 1.967 . S
Co34 O66 1.920 . S
Co35 O38 1.966 . S
Co35 N44 2.022 . S
Co35 N52 1.993 . S
Co35 O60 1.941 . S
C36 O37 1.258 . S
C36 O38 1.263 . S
O37 Co34 1.970 . S
O37 C36 1.258 . S
O38 Co35 1.966 . S
O38 C36 1.263 . S
C39 O40 1.235 . S
C39 O66 1.289 . S
O40 C39 1.235 . S
C41 C43 1.400 . S
C41 N44 1.351 . S
C41 C46 1.501 . S
C42 C43 1.387 . S
C42 N45 1.341 . S
C43 C41 1.400 . S
C43 C42 1.387 . S
N44 Co35 2.022 . S
N44 C41 1.351 . S
N44 N45 1.365 . S
N45 C42 1.341 . S
N45 N44 1.365 . S
N45 H65 0.862 . S
C46 C41 1.501 . S
C46 H47 0.961 . S
C46 H48 0.961 . S
C46 H49 0.960 . S
H47 C46 0.961 . S
H48 C46 0.961 . S
H49 C46 0.960 . S
C50 N51 1.342 . S
C50 C54 1.401 . S
C50 C55 1.499 . S
N51 Co34 1.989 . S
N51 C50 1.342 . S
N51 N52 1.388 . S
N52 Co35 1.993 . S
N52 N51 1.388 . S
N52 C53 1.346 . S
C53 N52 1.346 . S
C53 C54 1.396 . S
C53 C63 1.510 . S
C54 C50 1.401 . S
C54 C53 1.396 . S
C55 C50 1.499 . S
C55 H56 0.959 . S
C55 H57 0.960 . S
C55 H58 0.961 . S
H56 C55 0.959 . S
H57 C55 0.960 . S
H58 C55 0.961 . S
O59 Co34 1.967 . S
O59 C67 1.258 . S
O60 Co35 1.941 . S
O60 C67 1.266 . S
H61 C63 0.959 . S
H62 C63 0.961 . S
C63 C53 1.510 . S
C63 H61 0.959 . S
C63 H62 0.961 . S
C63 H64 0.960 . S
H64 C63 0.960 . S
H65 N45 0.862 . S
O66 Co34 1.920 . S
O66 C39 1.289 . S
C67 O59 1.258 . S
C67 O60 1.266 . S
Co68 O71 1.970 . S
Co68 N85 1.989 . S
Co68 O93 1.967 . S
Co68 O100 1.920 . S
Co69 O72 1.966 . S
Co69 N78 2.022 . S
Co69 N86 1.993 . S
Co69 O94 1.941 . S
C70 O71 1.258 . S
C70 O72 1.263 . S
O71 Co68 1.970 . S
O71 C70 1.258 . S
O72 Co69 1.966 . S
O72 C70 1.263 . S
C73 O74 1.235 . S
C73 O100 1.289 . S
O74 C73 1.235 . S
C75 C77 1.400 . S
C75 N78 1.351 . S
C75 C80 1.501 . S
C76 C77 1.387 . S
C76 N79 1.341 . S
C77 C75 1.400 . S
C77 C76 1.387 . S
N78 Co69 2.022 . S
N78 C75 1.351 . S
N78 N79 1.365 . S
N79 C76 1.341 . S
N79 N78 1.365 . S
N79 H99 0.862 . S
C80 C75 1.501 . S
C80 H81 0.961 . S
C80 H82 0.961 . S
C80 H83 0.960 . S
H81 C80 0.961 . S
H82 C80 0.961 . S
H83 C80 0.960 . S
C84 N85 1.342 . S
C84 C88 1.401 . S
C84 C89 1.499 . S
N85 Co68 1.989 . S
N85 C84 1.342 . S
N85 N86 1.388 . S
N86 Co69 1.993 . S
N86 N85 1.388 . S
N86 C87 1.346 . S
C87 N86 1.346 . S
C87 C88 1.396 . S
C87 C97 1.510 . S
C88 C84 1.401 . S
C88 C87 1.396 . S
C89 C84 1.499 . S
C89 H90 0.959 . S
C89 H91 0.960 . S
C89 H92 0.961 . S
H90 C89 0.959 . S
H91 C89 0.960 . S
H92 C89 0.961 . S
O93 Co68 1.967 . S
O93 C101 1.258 . S
O94 Co69 1.941 . S
O94 C101 1.266 . S
H95 C97 0.959 . S
H96 C97 0.961 . S
C97 C87 1.510 . S
C97 H95 0.959 . S
C97 H96 0.961 . S
C97 H98 0.960 . S
H98 C97 0.960 . S
H99 N79 0.862 . S
O100 Co68 1.920 . S
O100 C73 1.289 . S
C101 O93 1.258 . S
C101 O94 1.266 . S
Co102 O105 1.970 . S
Co102 N119 1.989 . S
Co102 O127 1.967 . S
Co102 O134 1.920 . S
Co103 O106 1.966 . S
Co103 N112 2.022 . S
Co103 N120 1.993 . S
Co103 O128 1.941 . S
C104 O105 1.258 . S
C104 O106 1.263 . S
O105 Co102 1.970 . S
O105 C104 1.258 . S
O106 Co103 1.966 . S
O106 C104 1.263 . S
C107 O108 1.235 . S
C107 O134 1.289 . S
O108 C107 1.235 . S
C109 C111 1.400 . S
C109 N112 1.351 . S
C109 C114 1.501 . S
C110 C111 1.387 . S
C110 N113 1.341 . S
C111 C109 1.400 . S
C111 C110 1.387 . S
N112 Co103 2.022 . S
N112 C109 1.351 . S
N112 N113 1.365 . S
N113 C110 1.341 . S
N113 N112 1.365 . S
N113 H133 0.862 . S
C114 C109 1.501 . S
C114 H115 0.961 . S
C114 H116 0.961 . S
C114 H117 0.960 . S
H115 C114 0.961 . S
H116 C114 0.961 . S
H117 C114 0.960 . S
C118 N119 1.342 . S
C118 C122 1.401 . S
C118 C123 1.499 . S
N119 Co102 1.989 . S
N119 C118 1.342 . S
N119 N120 1.388 . S
N120 Co103 1.993 . S
N120 N119 1.388 . S
N120 C121 1.346 . S
C121 N120 1.346 . S
C121 C122 1.396 . S
C121 C131 1.510 . S
C122 C118 1.401 . S
C122 C121 1.396 . S
C123 C118 1.499 . S
C123 H124 0.959 . S
C123 H125 0.960 . S
C123 H126 0.961 . S
H124 C123 0.959 . S
H125 C123 0.960 . S
H126 C123 0.961 . S
O127 Co102 1.967 . S
O127 C135 1.258 . S
O128 Co103 1.941 . S
O128 C135 1.266 . S
H129 C131 0.959 . S
H130 C131 0.961 . S
C131 C121 1.510 . S
C131 H129 0.959 . S
C131 H130 0.961 . S
C131 H132 0.960 . S
H132 C131 0.960 . S
H133 N113 0.862 . S
O134 Co102 1.920 . S
O134 C107 1.289 . S
C135 O127 1.258 . S
C135 O128 1.266 . S
Co136 O139 1.970 . S
Co136 N153 1.989 . S
Co136 O161 1.967 . S
Co136 O168 1.920 . S
Co137 O140 1.966 . S
Co137 N146 2.022 . S
Co137 N154 1.993 . S
Co137 O162 1.941 . S
C138 O139 1.258 . S
C138 O140 1.263 . S
O139 Co136 1.970 . S
O139 C138 1.258 . S
O140 Co137 1.966 . S
O140 C138 1.263 . S
C141 O142 1.235 . S
C141 O168 1.289 . S
O142 C141 1.235 . S
C143 C145 1.400 . S
C143 N146 1.351 . S
C143 C148 1.501 . S
C144 C145 1.387 . S
C144 N147 1.341 . S
C145 C143 1.400 . S
C145 C144 1.387 . S
N146 Co137 2.022 . S
N146 C143 1.351 . S
N146 N147 1.365 . S
N147 C144 1.341 . S
N147 N146 1.365 . S
N147 H167 0.862 . S
C148 C143 1.501 . S
C148 H149 0.961 . S
C148 H150 0.961 . S
C148 H151 0.960 . S
H149 C148 0.961 . S
H150 C148 0.961 . S
H151 C148 0.960 . S
C152 N153 1.342 . S
C152 C156 1.401 . S
C152 C157 1.499 . S
N153 Co136 1.989 . S
N153 C152 1.342 . S
N153 N154 1.388 . S
N154 Co137 1.993 . S
N154 N153 1.388 . S
N154 C155 1.346 . S
C155 N154 1.346 . S
C155 C156 1.396 . S
C155 C165 1.510 . S
C156 C152 1.401 . S
C156 C155 1.396 . S
C157 C152 1.499 . S
C157 H158 0.959 . S
C157 H159 0.960 . S
C157 H160 0.961 . S
H158 C157 0.959 . S
H159 C157 0.960 . S
H160 C157 0.961 . S
O161 Co136 1.967 . S
O161 C169 1.258 . S
O162 Co137 1.941 . S
O162 C169 1.266 . S
H163 C165 0.959 . S
H164 C165 0.961 . S
C165 C155 1.510 . S
C165 H163 0.959 . S
C165 H164 0.961 . S
C165 H166 0.960 . S
H166 C165 0.960 . S
H167 N147 0.862 . S
O168 Co136 1.920 . S
O168 C141 1.289 . S
C169 O161 1.258 . S
C169 O162 1.266 . S
Co170 O173 1.970 . S
Co170 N187 1.989 . S
Co170 O195 1.967 . S
Co170 O202 1.920 . S
Co171 O174 1.966 . S
Co171 N180 2.022 . S
Co171 N188 1.993 . S
Co171 O196 1.941 . S
C172 O173 1.258 . S
C172 O174 1.263 . S
O173 Co170 1.970 . S
O173 C172 1.258 . S
O174 Co171 1.966 . S
O174 C172 1.263 . S
C175 O176 1.235 . S
C175 O202 1.289 . S
O176 C175 1.235 . S
C177 C179 1.400 . S
C177 N180 1.351 . S
C177 C182 1.501 . S
C178 C179 1.387 . S
C178 N181 1.341 . S
C179 C177 1.400 . S
C179 C178 1.387 . S
N180 Co171 2.022 . S
N180 C177 1.351 . S
N180 N181 1.365 . S
N181 C178 1.341 . S
N181 N180 1.365 . S
N181 H201 0.862 . S
C182 C177 1.501 . S
C182 H183 0.961 . S
C182 H184 0.961 . S
C182 H185 0.960 . S
H183 C182 0.961 . S
H184 C182 0.961 . S
H185 C182 0.960 . S
C186 N187 1.342 . S
C186 C190 1.401 . S
C186 C191 1.499 . S
N187 Co170 1.989 . S
N187 C186 1.342 . S
N187 N188 1.388 . S
N188 Co171 1.993 . S
N188 N187 1.388 . S
N188 C189 1.346 . S
C189 N188 1.346 . S
C189 C190 1.396 . S
C189 C199 1.510 . S
C190 C186 1.401 . S
C190 C189 1.396 . S
C191 C186 1.499 . S
C191 H192 0.959 . S
C191 H193 0.960 . S
C191 H194 0.961 . S
H192 C191 0.959 . S
H193 C191 0.960 . S
H194 C191 0.961 . S
O195 Co170 1.967 . S
O195 C203 1.258 . S
O196 Co171 1.941 . S
O196 C203 1.266 . S
H197 C199 0.959 . S
H198 C199 0.961 . S
C199 C189 1.510 . S
C199 H197 0.959 . S
C199 H198 0.961 . S
C199 H200 0.960 . S
H200 C199 0.960 . S
H201 N181 0.862 . S
O202 Co170 1.920 . S
O202 C175 1.289 . S
C203 O195 1.258 . S
C203 O196 1.266 . S
Co204 O207 1.970 . S
Co204 N221 1.989 . S
Co204 O229 1.967 . S
Co204 O236 1.920 . S
Co205 O208 1.966 . S
Co205 N214 2.022 . S
Co205 N222 1.993 . S
Co205 O230 1.941 . S
C206 O207 1.258 . S
C206 O208 1.263 . S
O207 Co204 1.970 . S
O207 C206 1.258 . S
O208 Co205 1.966 . S
O208 C206 1.263 . S
C209 O210 1.235 . S
C209 O236 1.289 . S
O210 C209 1.235 . S
C211 C213 1.400 . S
C211 N214 1.351 . S
C211 C216 1.501 . S
C212 C213 1.387 . S
C212 N215 1.341 . S
C213 C211 1.400 . S
C213 C212 1.387 . S
N214 Co205 2.022 . S
N214 C211 1.351 . S
N214 N215 1.365 . S
N215 C212 1.341 . S
N215 N214 1.365 . S
N215 H235 0.862 . S
C216 C211 1.501 . S
C216 H217 0.961 . S
C216 H218 0.961 . S
C216 H219 0.960 . S
H217 C216 0.961 . S
H218 C216 0.961 . S
H219 C216 0.960 . S
C220 N221 1.342 . S
C220 C224 1.401 . S
C220 C225 1.499 . S
N221 Co204 1.989 . S
N221 C220 1.342 . S
N221 N222 1.388 . S
N222 Co205 1.993 . S
N222 N221 1.388 . S
N222 C223 1.346 . S
C223 N222 1.346 . S
C223 C224 1.396 . S
C223 C233 1.510 . S
C224 C220 1.401 . S
C224 C223 1.396 . S
C225 C220 1.499 . S
C225 H226 0.959 . S
C225 H227 0.960 . S
C225 H228 0.961 . S
H226 C225 0.959 . S
H227 C225 0.960 . S
H228 C225 0.961 . S
O229 Co204 1.967 . S
O229 C237 1.258 . S
O230 Co205 1.941 . S
O230 C237 1.266 . S
H231 C233 0.959 . S
H232 C233 0.961 . S
C233 C223 1.510 . S
C233 H231 0.959 . S
C233 H232 0.961 . S
C233 H234 0.960 . S
H234 C233 0.960 . S
H235 N215 0.862 . S
O236 Co204 1.920 . S
O236 C209 1.289 . S
C237 O229 1.258 . S
C237 O230 1.266 . S
Co238 O241 1.970 . S
Co238 N255 1.989 . S
Co238 O263 1.967 . S
Co238 O270 1.920 . S
Co239 O242 1.966 . S
Co239 N248 2.022 . S
Co239 N256 1.993 . S
Co239 O264 1.941 . S
C240 O241 1.258 . S
C240 O242 1.263 . S
O241 Co238 1.970 . S
O241 C240 1.258 . S
O242 Co239 1.966 . S
O242 C240 1.263 . S
C243 O244 1.235 . S
C243 O270 1.289 . S
O244 C243 1.235 . S
C245 C247 1.400 . S
C245 N248 1.351 . S
C245 C250 1.501 . S
C246 C247 1.387 . S
C246 N249 1.341 . S
C247 C245 1.400 . S
C247 C246 1.387 . S
N248 Co239 2.022 . S
N248 C245 1.351 . S
N248 N249 1.365 . S
N249 C246 1.341 . S
N249 N248 1.365 . S
N249 H269 0.862 . S
C250 C245 1.501 . S
C250 H251 0.961 . S
C250 H252 0.961 . S
C250 H253 0.960 . S
H251 C250 0.961 . S
H252 C250 0.961 . S
H253 C250 0.960 . S
C254 N255 1.342 . S
C254 C258 1.401 . S
C254 C259 1.499 . S
N255 Co238 1.989 . S
N255 C254 1.342 . S
N255 N256 1.388 . S
N256 Co239 1.993 . S
N256 N255 1.388 . S
N256 C257 1.346 . S
C257 N256 1.346 . S
C257 C258 1.396 . S
C257 C267 1.510 . S
C258 C254 1.401 . S
C258 C257 1.396 . S
C259 C254 1.499 . S
C259 H260 0.959 . S
C259 H261 0.960 . S
C259 H262 0.961 . S
H260 C259 0.959 . S
H261 C259 0.960 . S
H262 C259 0.961 . S
O263 Co238 1.967 . S
O263 C271 1.258 . S
O264 Co239 1.941 . S
O264 C271 1.266 . S
H265 C267 0.959 . S
H266 C267 0.961 . S
C267 C257 1.510 . S
C267 H265 0.959 . S
C267 H266 0.961 . S
C267 H268 0.960 . S
H268 C267 0.960 . S
H269 N249 0.862 . S
O270 Co238 1.920 . S
O270 C243 1.289 . S
C271 O263 1.258 . S
C271 O264 1.266 . S
Co272 O275 1.970 . S
Co272 N289 1.989 . S
Co272 O297 1.967 . S
Co272 O304 1.920 . S
Co273 O276 1.966 . S
Co273 N282 2.022 . S
Co273 N290 1.993 . S
Co273 O298 1.941 . S
C274 O275 1.258 . S
C274 O276 1.263 . S
O275 Co272 1.970 . S
O275 C274 1.258 . S
O276 Co273 1.966 . S
O276 C274 1.263 . S
C277 O278 1.235 . S
C277 O304 1.289 . S
O278 C277 1.235 . S
C279 C281 1.400 . S
C279 N282 1.351 . S
C279 C284 1.501 . S
C280 C281 1.387 . S
C280 N283 1.341 . S
C281 C279 1.400 . S
C281 C280 1.387 . S
N282 Co273 2.022 . S
N282 C279 1.351 . S
N282 N283 1.365 . S
N283 C280 1.341 . S
N283 N282 1.365 . S
N283 H303 0.862 . S
C284 C279 1.501 . S
C284 H285 0.961 . S
C284 H286 0.961 . S
C284 H287 0.960 . S
H285 C284 0.961 . S
H286 C284 0.961 . S
H287 C284 0.960 . S
C288 N289 1.342 . S
C288 C292 1.401 . S
C288 C293 1.499 . S
N289 Co272 1.989 . S
N289 C288 1.342 . S
N289 N290 1.388 . S
N290 Co273 1.993 . S
N290 N289 1.388 . S
N290 C291 1.346 . S
C291 N290 1.346 . S
C291 C292 1.396 . S
C291 C301 1.510 . S
C292 C288 1.401 . S
C292 C291 1.396 . S
C293 C288 1.499 . S
C293 H294 0.959 . S
C293 H295 0.960 . S
C293 H296 0.961 . S
H294 C293 0.959 . S
H295 C293 0.960 . S
H296 C293 0.961 . S
O297 Co272 1.967 . S
O297 C305 1.258 . S
O298 Co273 1.941 . S
O298 C305 1.266 . S
H299 C301 0.959 . S
H300 C301 0.961 . S
C301 C291 1.510 . S
C301 H299 0.959 . S
C301 H300 0.961 . S
C301 H302 0.960 . S
H302 C301 0.960 . S
H303 N283 0.862 . S
O304 Co272 1.920 . S
O304 C277 1.289 . S
C305 O297 1.258 . S
C305 O298 1.266 . S
Co306 O309 1.970 . S
Co306 N323 1.989 . S
Co306 O331 1.967 . S
Co306 O338 1.920 . S
Co307 O310 1.966 . S
Co307 N316 2.022 . S
Co307 N324 1.993 . S
Co307 O332 1.941 . S
C308 O309 1.258 . S
C308 O310 1.263 . S
O309 Co306 1.970 . S
O309 C308 1.258 . S
O310 Co307 1.966 . S
O310 C308 1.263 . S
C311 O312 1.235 . S
C311 O338 1.289 . S
O312 C311 1.235 . S
C313 C315 1.400 . S
C313 N316 1.351 . S
C313 C318 1.501 . S
C314 C315 1.387 . S
C314 N317 1.341 . S
C315 C313 1.400 . S
C315 C314 1.387 . S
N316 Co307 2.022 . S
N316 C313 1.351 . S
N316 N317 1.365 . S
N317 C314 1.341 . S
N317 N316 1.365 . S
N317 H337 0.862 . S
C318 C313 1.501 . S
C318 H319 0.961 . S
C318 H320 0.961 . S
C318 H321 0.960 . S
H319 C318 0.961 . S
H320 C318 0.961 . S
H321 C318 0.960 . S
C322 N323 1.342 . S
C322 C326 1.401 . S
C322 C327 1.499 . S
N323 Co306 1.989 . S
N323 C322 1.342 . S
N323 N324 1.388 . S
N324 Co307 1.993 . S
N324 N323 1.388 . S
N324 C325 1.346 . S
C325 N324 1.346 . S
C325 C326 1.396 . S
C325 C335 1.510 . S
C326 C322 1.401 . S
C326 C325 1.396 . S
C327 C322 1.499 . S
C327 H328 0.959 . S
C327 H329 0.960 . S
C327 H330 0.961 . S
H328 C327 0.959 . S
H329 C327 0.960 . S
H330 C327 0.961 . S
O331 Co306 1.967 . S
O331 C339 1.258 . S
O332 Co307 1.941 . S
O332 C339 1.266 . S
H333 C335 0.959 . S
H334 C335 0.961 . S
C335 C325 1.510 . S
C335 H333 0.959 . S
C335 H334 0.961 . S
C335 H336 0.960 . S
H336 C335 0.960 . S
H337 N317 0.862 . S
O338 Co306 1.920 . S
O338 C311 1.289 . S
C339 O331 1.258 . S
C339 O332 1.266 . S
Co340 O343 1.970 . S
Co340 N357 1.989 . S
Co340 O365 1.967 . S
Co340 O372 1.920 . S
Co341 O344 1.966 . S
Co341 N350 2.022 . S
Co341 N358 1.993 . S
Co341 O366 1.941 . S
C342 O343 1.258 . S
C342 O344 1.263 . S
O343 Co340 1.970 . S
O343 C342 1.258 . S
O344 Co341 1.966 . S
O344 C342 1.263 . S
C345 O346 1.235 . S
C345 O372 1.289 . S
O346 C345 1.235 . S
C347 C349 1.400 . S
C347 N350 1.351 . S
C347 C352 1.501 . S
C348 C349 1.387 . S
C348 N351 1.341 . S
C349 C347 1.400 . S
C349 C348 1.387 . S
N350 Co341 2.022 . S
N350 C347 1.351 . S
N350 N351 1.365 . S
N351 C348 1.341 . S
N351 N350 1.365 . S
N351 H371 0.862 . S
C352 C347 1.501 . S
C352 H353 0.961 . S
C352 H354 0.961 . S
C352 H355 0.960 . S
H353 C352 0.961 . S
H354 C352 0.961 . S
H355 C352 0.960 . S
C356 N357 1.342 . S
C356 C360 1.401 . S
C356 C361 1.499 . S
N357 Co340 1.989 . S
N357 C356 1.342 . S
N357 N358 1.388 . S
N358 Co341 1.993 . S
N358 N357 1.388 . S
N358 C359 1.346 . S
C359 N358 1.346 . S
C359 C360 1.396 . S
C359 C369 1.510 . S
C360 C356 1.401 . S
C360 C359 1.396 . S
C361 C356 1.499 . S
C361 H362 0.959 . S
C361 H363 0.960 . S
C361 H364 0.961 . S
H362 C361 0.959 . S
H363 C361 0.960 . S
H364 C361 0.961 . S
O365 Co340 1.967 . S
O365 C373 1.258 . S
O366 Co341 1.941 . S
O366 C373 1.266 . S
H367 C369 0.959 . S
H368 C369 0.961 . S
C369 C359 1.510 . S
C369 H367 0.959 . S
C369 H368 0.961 . S
C369 H370 0.960 . S
H370 C369 0.960 . S
H371 N351 0.862 . S
O372 Co340 1.920 . S
O372 C345 1.289 . S
C373 O365 1.258 . S
C373 O366 1.266 . S
Co374 O377 1.970 . S
Co374 N391 1.989 . S
Co374 O399 1.967 . S
Co374 O406 1.920 . S
Co375 O378 1.966 . S
Co375 N384 2.022 . S
Co375 N392 1.993 . S
Co375 O400 1.941 . S
C376 O377 1.258 . S
C376 O378 1.263 . S
O377 Co374 1.970 . S
O377 C376 1.258 . S
O378 Co375 1.966 . S
O378 C376 1.263 . S
C379 O380 1.235 . S
C379 O406 1.289 . S
O380 C379 1.235 . S
C381 C383 1.400 . S
C381 N384 1.351 . S
C381 C386 1.501 . S
C382 C383 1.387 . S
C382 N385 1.341 . S
C383 C381 1.400 . S
C383 C382 1.387 . S
N384 Co375 2.022 . S
N384 C381 1.351 . S
N384 N385 1.365 . S
N385 C382 1.341 . S
N385 N384 1.365 . S
N385 H405 0.862 . S
C386 C381 1.501 . S
C386 H387 0.961 . S
C386 H388 0.961 . S
C386 H389 0.960 . S
H387 C386 0.961 . S
H388 C386 0.961 . S
H389 C386 0.960 . S
C390 N391 1.342 . S
C390 C394 1.401 . S
C390 C395 1.499 . S
N391 Co374 1.989 . S
N391 C390 1.342 . S
N391 N392 1.388 . S
N392 Co375 1.993 . S
N392 N391 1.388 . S
N392 C393 1.346 . S
C393 N392 1.346 . S
C393 C394 1.396 . S
C393 C403 1.510 . S
C394 C390 1.401 . S
C394 C393 1.396 . S
C395 C390 1.499 . S
C395 H396 0.959 . S
C395 H397 0.960 . S
C395 H398 0.961 . S
H396 C395 0.959 . S
H397 C395 0.960 . S
H398 C395 0.961 . S
O399 Co374 1.967 . S
O399 C407 1.258 . S
O400 Co375 1.941 . S
O400 C407 1.266 . S
H401 C403 0.959 . S
H402 C403 0.961 . S
C403 C393 1.510 . S
C403 H401 0.959 . S
C403 H402 0.961 . S
C403 H404 0.960 . S
H404 C403 0.960 . S
H405 N385 0.862 . S
O406 Co374 1.920 . S
O406 C379 1.289 . S
C407 O399 1.258 . S
C407 O400 1.266 . S
H408 C426 0.951 . S
H409 C428 0.951 . S
H410 C430 0.950 . S
H411 C431 0.950 . S
H412 C433 0.950 . S
H413 C436 0.950 . S
H414 C437 0.950 . S
H415 C439 0.950 . S
H416 C440 0.950 . S
H417 C441 0.951 . S
H418 C443 0.951 . S
H419 C445 0.950 . S
H420 C446 0.950 . S
H421 C448 0.950 . S
H422 C451 0.950 . S
H423 C452 0.950 . S
H424 C454 0.950 . S
H425 C455 0.950 . S
C426 H408 0.951 . S
C426 C427 1.366 . S
C426 C428 1.388 . S
C427 C426 1.366 . S
C427 C431 1.385 . S
C428 H409 0.951 . S
C428 C426 1.388 . S
C428 C429 1.366 . S
C429 C428 1.366 . S
C429 C430 1.414 . S
C429 C432 1.499 . S
C430 H410 0.950 . S
C430 C429 1.414 . S
C430 C431 1.374 . S
C431 H411 0.950 . S
C431 C427 1.385 . S
C431 C430 1.374 . S
C432 C429 1.499 . S
C432 C433 1.373 . S
C432 C434 1.389 . S
C433 H412 0.950 . S
C433 C432 1.373 . S
C433 C449 1.377 . S
C434 C432 1.389 . S
C434 C435 1.524 . S
C434 C448 1.377 . S
C435 C434 1.524 . S
C435 C436 1.397 . S
C435 C440 1.363 . S
C436 H413 0.950 . S
C436 C435 1.397 . S
C436 C437 1.334 . S
C437 H414 0.950 . S
C437 C436 1.334 . S
C437 C438 1.287 . S
C438 C437 1.287 . S
C438 C439 1.524 . S
C438 H457 0.913 . S
C439 H415 0.950 . S
C439 C438 1.524 . S
C439 C440 1.415 . S
C440 H416 0.950 . S
C440 C435 1.363 . S
C440 C439 1.415 . S
C441 H417 0.951 . S
C441 C442 1.366 . S
C441 C443 1.388 . S
C442 C441 1.366 . S
C442 C446 1.385 . S
C443 H418 0.951 . S
C443 C441 1.388 . S
C443 C444 1.366 . S
C444 C443 1.366 . S
C444 C445 1.414 . S
C444 C447 1.499 . S
C445 H419 0.950 . S
C445 C444 1.414 . S
C445 C446 1.374 . S
C446 H420 0.950 . S
C446 C442 1.385 . S
C446 C445 1.374 . S
C447 C444 1.499 . S
C447 C448 1.373 . S
C447 C449 1.389 . S
C448 H421 0.950 . S
C448 C434 1.377 . S
C448 C447 1.373 . S
C449 C433 1.377 . S
C449 C447 1.389 . S
C449 C450 1.524 . S
C450 C449 1.524 . S
C450 C451 1.397 . S
C450 C455 1.363 . S
C451 H422 0.950 . S
C451 C450 1.397 . S
C451 C452 1.334 . S
C452 H423 0.950 . S
C452 C451 1.334 . S
C452 C453 1.287 . S
C453 C452 1.287 . S
C453 C454 1.524 . S
C453 H456 0.999 . S
C454 H424 0.950 . S
C454 C453 1.524 . S
C454 C455 1.415 . S
C455 H425 0.950 . S
C455 C450 1.363 . S
C455 C454 1.415 . S
H456 C453 0.999 . S
H457 C438 0.913 . S
H458 C476 0.951 . S
H459 C478 0.951 . S
H460 C480 0.950 . S
H461 C481 0.950 . S
H462 C483 0.950 . S
H463 C486 0.950 . S
H464 C487 0.950 . S
H465 C489 0.950 . S
H466 C490 0.950 . S
H467 C491 0.951 . S
H468 C493 0.951 . S
H469 C495 0.950 . S
H470 C496 0.950 . S
H471 C498 0.950 . S
H472 C501 0.950 . S
H473 C502 0.950 . S
H474 C504 0.950 . S
H475 C505 0.950 . S
C476 H458 0.951 . S
C476 C477 1.366 . S
C476 C478 1.388 . S
C477 C476 1.366 . S
C477 C481 1.385 . S
C478 H459 0.951 . S
C478 C476 1.388 . S
C478 C479 1.366 . S
C479 C478 1.366 . S
C479 C480 1.414 . S
C479 C482 1.499 . S
C480 H460 0.950 . S
C480 C479 1.414 . S
C480 C481 1.374 . S
C481 H461 0.950 . S
C481 C477 1.385 . S
C481 C480 1.374 . S
C482 C479 1.499 . S
C482 C483 1.373 . S
C482 C484 1.389 . S
C483 H462 0.950 . S
C483 C482 1.373 . S
C483 C499 1.377 1_655 S
C484 C482 1.389 . S
C484 C485 1.524 . S
C484 C498 1.377 1_655 S
C485 C484 1.524 . S
C485 C486 1.397 . S
C485 C490 1.363 . S
C486 H463 0.950 . S
C486 C485 1.397 . S
C486 C487 1.334 . S
C487 H464 0.950 . S
C487 C486 1.334 . S
C487 C488 1.287 . S
C488 C487 1.287 . S
C488 C489 1.524 . S
C488 H507 0.913 . S
C489 H465 0.950 . S
C489 C488 1.524 . S
C489 C490 1.415 . S
C490 H466 0.950 . S
C490 C485 1.363 . S
C490 C489 1.415 . S
C491 H467 0.951 . S
C491 C492 1.366 . S
C491 C493 1.388 . S
C492 C491 1.366 . S
C492 C496 1.385 . S
C493 H468 0.951 . S
C493 C491 1.388 . S
C493 C494 1.366 . S
C494 C493 1.366 . S
C494 C495 1.414 . S
C494 C497 1.499 . S
C495 H469 0.950 . S
C495 C494 1.414 . S
C495 C496 1.374 . S
C496 H470 0.950 . S
C496 C492 1.385 . S
C496 C495 1.374 . S
C497 C494 1.499 . S
C497 C498 1.373 . S
C497 C499 1.389 . S
C498 H471 0.950 . S
C498 C484 1.377 1_455 S
C498 C497 1.373 . S
C499 C483 1.377 1_455 S
C499 C497 1.389 . S
C499 C500 1.524 . S
C500 C499 1.524 . S
C500 C501 1.397 . S
C500 C505 1.363 . S
C501 H472 0.950 . S
C501 C500 1.397 . S
C501 C502 1.334 . S
C502 H473 0.950 . S
C502 C501 1.334 . S
C502 C503 1.287 . S
C503 C502 1.287 . S
C503 C504 1.524 . S
C503 H506 0.999 . S
C504 H474 0.950 . S
C504 C503 1.524 . S
C504 C505 1.415 . S
C505 H475 0.950 . S
C505 C500 1.363 . S
C505 C504 1.415 . S
H506 C503 0.999 . S
H507 C488 0.913 . S
H508 C526 0.951 . S
H509 C528 0.951 . S
H510 C530 0.950 . S
H511 C531 0.950 . S
H512 C533 0.950 . S
H513 C536 0.950 . S
H514 C537 0.950 . S
H515 C539 0.950 . S
H516 C540 0.950 . S
H517 C541 0.951 . S
H518 C543 0.951 . S
H519 C545 0.950 . S
H520 C546 0.950 . S
H521 C548 0.950 . S
H522 C551 0.950 . S
H523 C552 0.950 . S
H524 C554 0.950 . S
H525 C555 0.950 . S
C526 H508 0.951 . S
C526 C527 1.366 . S
C526 C528 1.388 . S
C527 C526 1.366 . S
C527 C531 1.385 . S
C528 H509 0.951 . S
C528 C526 1.388 . S
C528 C529 1.366 . S
C529 C528 1.366 . S
C529 C530 1.414 . S
C529 C532 1.499 . S
C530 H510 0.950 . S
C530 C529 1.414 . S
C530 C531 1.374 . S
C531 H511 0.950 . S
C531 C527 1.385 . S
C531 C530 1.374 . S
C532 C529 1.499 . S
C532 C533 1.373 . S
C532 C534 1.389 . S
C533 H512 0.950 . S
C533 C532 1.373 . S
C533 C549 1.377 1_545 S
C534 C532 1.389 . S
C534 C535 1.524 . S
C534 C548 1.377 1_545 S
C535 C534 1.524 . S
C535 C536 1.397 . S
C535 C540 1.363 . S
C536 H513 0.950 . S
C536 C535 1.397 . S
C536 C537 1.334 . S
C537 H514 0.950 . S
C537 C536 1.334 . S
C537 C538 1.287 . S
C538 C537 1.287 . S
C538 C539 1.524 . S
C538 H557 0.913 . S
C539 H515 0.950 . S
C539 C538 1.524 . S
C539 C540 1.415 . S
C540 H516 0.950 . S
C540 C535 1.363 . S
C540 C539 1.415 . S
C541 H517 0.951 . S
C541 C542 1.366 . S
C541 C543 1.388 . S
C542 C541 1.366 . S
C542 C546 1.385 . S
C543 H518 0.951 . S
C543 C541 1.388 . S
C543 C544 1.366 . S
C544 C543 1.366 . S
C544 C545 1.414 . S
C544 C547 1.499 . S
C545 H519 0.950 . S
C545 C544 1.414 . S
C545 C546 1.374 . S
C546 H520 0.950 . S
C546 C542 1.385 . S
C546 C545 1.374 . S
C547 C544 1.499 . S
C547 C548 1.373 . S
C547 C549 1.389 . S
C548 H521 0.950 . S
C548 C534 1.377 1_565 S
C548 C547 1.373 . S
C549 C533 1.377 1_565 S
C549 C547 1.389 . S
C549 C550 1.524 . S
C550 C549 1.524 . S
C550 C551 1.397 . S
C550 C555 1.363 . S
C551 H522 0.950 . S
C551 C550 1.397 . S
C551 C552 1.334 . S
C552 H523 0.950 . S
C552 C551 1.334 . S
C552 C553 1.287 . S
C553 C552 1.287 . S
C553 C554 1.524 . S
C553 H556 0.999 . S
C554 H524 0.950 . S
C554 C553 1.524 . S
C554 C555 1.415 . S
C555 H525 0.950 . S
C555 C550 1.363 . S
C555 C554 1.415 . S
H556 C553 0.999 . S
H557 C538 0.913 . S
H558 C576 0.951 . S
H559 C578 0.951 . S
H560 C580 0.950 . S
H561 C581 0.950 . S
H562 C583 0.950 . S
H563 C586 0.950 . S
H564 C587 0.950 . S
H565 C589 0.950 . S
H566 C590 0.950 . S
H567 C591 0.951 . S
H568 C593 0.951 . S
H569 C595 0.950 . S
H570 C596 0.950 . S
H571 C598 0.950 . S
H572 C601 0.950 . S
H573 C602 0.950 . S
H574 C604 0.950 . S
H575 C605 0.950 . S
C576 H558 0.951 . S
C576 C577 1.366 . S
C576 C578 1.388 . S
C577 C576 1.366 . S
C577 C581 1.385 . S
C578 H559 0.951 . S
C578 C576 1.388 . S
C578 C579 1.366 . S
C579 C578 1.366 . S
C579 C580 1.414 . S
C579 C582 1.499 . S
C580 H560 0.950 . S
C580 C579 1.414 . S
C580 C581 1.374 . S
C581 H561 0.950 . S
C581 C577 1.385 . S
C581 C580 1.374 . S
C582 C579 1.499 . S
C582 C583 1.373 . S
C582 C584 1.389 . S
C583 H562 0.950 . S
C583 C582 1.373 . S
C583 C599 1.377 . S
C584 C582 1.389 . S
C584 C585 1.524 . S
C584 C598 1.377 . S
C585 C584 1.524 . S
C585 C586 1.397 . S
C585 C590 1.363 . S
C586 H563 0.950 . S
C586 C585 1.397 . S
C586 C587 1.334 . S
C587 H564 0.950 . S
C587 C586 1.334 . S
C587 C588 1.287 . S
C588 C587 1.287 . S
C588 C589 1.524 . S
C588 H607 0.913 . S
C589 H565 0.950 . S
C589 C588 1.524 . S
C589 C590 1.415 . S
C590 H566 0.950 . S
C590 C585 1.363 . S
C590 C589 1.415 . S
C591 H567 0.951 . S
C591 C592 1.366 . S
C591 C593 1.388 . S
C592 C591 1.366 . S
C592 C596 1.385 . S
C593 H568 0.951 . S
C593 C591 1.388 . S
C593 C594 1.366 . S
C594 C593 1.366 . S
C594 C595 1.414 . S
C594 C597 1.499 . S
C595 H569 0.950 . S
C595 C594 1.414 . S
C595 C596 1.374 . S
C596 H570 0.950 . S
C596 C592 1.385 . S
C596 C595 1.374 . S
C597 C594 1.499 . S
C597 C598 1.373 . S
C597 C599 1.389 . S
C598 H571 0.950 . S
C598 C584 1.377 . S
C598 C597 1.373 . S
C599 C583 1.377 . S
C599 C597 1.389 . S
C599 C600 1.524 . S
C600 C599 1.524 . S
C600 C601 1.397 . S
C600 C605 1.363 . S
C601 H572 0.950 . S
C601 C600 1.397 . S
C601 C602 1.334 . S
C602 H573 0.950 . S
C602 C601 1.334 . S
C602 C603 1.287 . S
C603 C602 1.287 . S
C603 C604 1.524 . S
C603 H606 0.999 . S
C604 H574 0.950 . S
C604 C603 1.524 . S
C604 C605 1.415 . S
C605 H575 0.950 . S
C605 C600 1.363 . S
C605 C604 1.415 . S
H606 C603 0.999 . S
H607 C588 0.913 . S
H608 C626 0.951 . S
H609 C628 0.951 . S
H610 C630 0.950 . S
H611 C631 0.950 . S
H612 C633 0.950 . S
H613 C636 0.950 . S
H614 C637 0.950 . S
H615 C639 0.950 . S
H616 C640 0.950 . S
H617 C641 0.951 . S
H618 C643 0.951 . S
H619 C645 0.950 . S
H620 C646 0.950 . S
H621 C648 0.950 . S
H622 C651 0.950 . S
H623 C652 0.950 . S
H624 C654 0.950 . S
H625 C655 0.950 . S
C626 H608 0.951 . S
C626 C627 1.366 . S
C626 C628 1.388 . S
C627 C626 1.366 . S
C627 C631 1.385 . S
C628 H609 0.951 . S
C628 C626 1.388 . S
C628 C629 1.366 . S
C629 C628 1.366 . S
C629 C630 1.414 . S
C629 C632 1.499 . S
C630 H610 0.950 . S
C630 C629 1.414 . S
C630 C631 1.374 . S
C631 H611 0.950 . S
C631 C627 1.385 . S
C631 C630 1.374 . S
C632 C629 1.499 . S
C632 C633 1.373 . S
C632 C634 1.389 . S
C633 H612 0.950 . S
C633 C632 1.373 . S
C633 C649 1.377 1_455 S
C634 C632 1.389 . S
C634 C635 1.524 . S
C634 C648 1.377 1_455 S
C635 C634 1.524 . S
C635 C636 1.397 . S
C635 C640 1.363 . S
C636 H613 0.950 . S
C636 C635 1.397 . S
C636 C637 1.334 . S
C637 H614 0.950 . S
C637 C636 1.334 . S
C637 C638 1.287 . S
C638 C637 1.287 . S
C638 C639 1.524 . S
C638 H657 0.913 . S
C639 H615 0.950 . S
C639 C638 1.524 . S
C639 C640 1.415 . S
C640 H616 0.950 . S
C640 C635 1.363 . S
C640 C639 1.415 . S
C641 H617 0.951 . S
C641 C642 1.366 . S
C641 C643 1.388 . S
C642 C641 1.366 . S
C642 C646 1.385 . S
C643 H618 0.951 . S
C643 C641 1.388 . S
C643 C644 1.366 . S
C644 C643 1.366 . S
C644 C645 1.414 . S
C644 C647 1.499 . S
C645 H619 0.950 . S
C645 C644 1.414 . S
C645 C646 1.374 . S
C646 H620 0.950 . S
C646 C642 1.385 . S
C646 C645 1.374 . S
C647 C644 1.499 . S
C647 C648 1.373 . S
C647 C649 1.389 . S
C648 H621 0.950 . S
C648 C634 1.377 1_655 S
C648 C647 1.373 . S
C649 C633 1.377 1_655 S
C649 C647 1.389 . S
C649 C650 1.524 . S
C650 C649 1.524 . S
C650 C651 1.397 . S
C650 C655 1.363 . S
C651 H622 0.950 . S
C651 C650 1.397 . S
C651 C652 1.334 . S
C652 H623 0.950 . S
C652 C651 1.334 . S
C652 C653 1.287 . S
C653 C652 1.287 . S
C653 C654 1.524 . S
C653 H656 0.999 . S
C654 H624 0.950 . S
C654 C653 1.524 . S
C654 C655 1.415 . S
C655 H625 0.950 . S
C655 C650 1.363 . S
C655 C654 1.415 . S
H656 C653 0.999 . S
H657 C638 0.913 . S
H658 C676 0.951 . S
H659 C678 0.951 . S
H660 C680 0.950 . S
H661 C681 0.950 . S
H662 C683 0.950 . S
H663 C686 0.950 . S
H664 C687 0.950 . S
H665 C689 0.950 . S
H666 C690 0.950 . S
H667 C691 0.951 . S
H668 C693 0.951 . S
H669 C695 0.950 . S
H670 C696 0.950 . S
H671 C698 0.950 . S
H672 C701 0.950 . S
H673 C702 0.950 . S
H674 C704 0.950 . S
H675 C705 0.950 . S
C676 H658 0.951 . S
C676 C677 1.366 . S
C676 C678 1.388 . S
C677 C676 1.366 . S
C677 C681 1.385 . S
C678 H659 0.951 . S
C678 C676 1.388 . S
C678 C679 1.366 . S
C679 C678 1.366 . S
C679 C680 1.414 . S
C679 C682 1.499 . S
C680 H660 0.950 . S
C680 C679 1.414 . S
C680 C681 1.374 . S
C681 H661 0.950 . S
C681 C677 1.385 . S
C681 C680 1.374 . S
C682 C679 1.499 . S
C682 C683 1.373 . S
C682 C684 1.389 . S
C683 H662 0.950 . S
C683 C682 1.373 . S
C683 C699 1.377 1_565 S
C684 C682 1.389 . S
C684 C685 1.524 . S
C684 C698 1.377 1_565 S
C685 C684 1.524 . S
C685 C686 1.397 . S
C685 C690 1.363 . S
C686 H663 0.950 . S
C686 C685 1.397 . S
C686 C687 1.334 . S
C687 H664 0.950 . S
C687 C686 1.334 . S
C687 C688 1.287 . S
C688 C687 1.287 . S
C688 C689 1.524 . S
C688 H707 0.913 . S
C689 H665 0.950 . S
C689 C688 1.524 . S
C689 C690 1.415 . S
C690 H666 0.950 . S
C690 C685 1.363 . S
C690 C689 1.415 . S
C691 H667 0.951 . S
C691 C692 1.366 . S
C691 C693 1.388 . S
C692 C691 1.366 . S
C692 C696 1.385 . S
C693 H668 0.951 . S
C693 C691 1.388 . S
C693 C694 1.366 . S
C694 C693 1.366 . S
C694 C695 1.414 . S
C694 C697 1.499 . S
C695 H669 0.950 . S
C695 C694 1.414 . S
C695 C696 1.374 . S
C696 H670 0.950 . S
C696 C692 1.385 . S
C696 C695 1.374 . S
C697 C694 1.499 . S
C697 C698 1.373 . S
C697 C699 1.389 . S
C698 H671 0.950 . S
C698 C684 1.377 1_545 S
C698 C697 1.373 . S
C699 C683 1.377 1_545 S
C699 C697 1.389 . S
C699 C700 1.524 . S
C700 C699 1.524 . S
C700 C701 1.397 . S
C700 C705 1.363 . S
C701 H672 0.950 . S
C701 C700 1.397 . S
C701 C702 1.334 . S
C702 H673 0.950 . S
C702 C701 1.334 . S
C702 C703 1.287 . S
C703 C702 1.287 . S
C703 C704 1.524 . S
C703 H706 0.999 . S
C704 H674 0.950 . S
C704 C703 1.524 . S
C704 C705 1.415 . S
C705 H675 0.950 . S
C705 C700 1.363 . S
C705 C704 1.415 . S
H706 C703 0.999 . S
H707 C688 0.913 . S
H708 C726 0.951 . S
H709 C728 0.951 . S
H710 C730 0.950 . S
H711 C731 0.950 . S
H712 C733 0.950 . S
H713 C736 0.950 . S
H714 C737 0.950 . S
H715 C739 0.950 . S
H716 C740 0.950 . S
H717 C741 0.951 . S
H718 C743 0.951 . S
H719 C745 0.950 . S
H720 C746 0.950 . S
H721 C748 0.950 . S
H722 C751 0.950 . S
H723 C752 0.950 . S
H724 C754 0.950 . S
H725 C755 0.950 . S
C726 H708 0.951 . S
C726 C727 1.366 . S
C726 C728 1.388 . S
C727 C726 1.366 . S
C727 C731 1.385 . S
C728 H709 0.951 . S
C728 C726 1.388 . S
C728 C729 1.366 . S
C729 C728 1.366 . S
C729 C730 1.414 . S
C729 C732 1.499 . S
C730 H710 0.950 . S
C730 C729 1.414 . S
C730 C731 1.374 . S
C731 H711 0.950 . S
C731 C727 1.385 . S
C731 C730 1.374 . S
C732 C729 1.499 . S
C732 C733 1.373 . S
C732 C734 1.389 . S
C733 H712 0.950 . S
C733 C732 1.373 . S
C733 C749 1.377 1_556 S
C734 C732 1.389 . S
C734 C735 1.524 . S
C734 C748 1.377 1_556 S
C735 C734 1.524 . S
C735 C736 1.397 . S
C735 C740 1.363 . S
C736 H713 0.950 . S
C736 C735 1.397 . S
C736 C737 1.334 . S
C737 H714 0.950 . S
C737 C736 1.334 . S
C737 C738 1.287 . S
C738 C737 1.287 . S
C738 C739 1.524 . S
C738 H757 0.913 . S
C739 H715 0.950 . S
C739 C738 1.524 . S
C739 C740 1.415 . S
C740 H716 0.950 . S
C740 C735 1.363 . S
C740 C739 1.415 . S
C741 H717 0.951 . S
C741 C742 1.366 . S
C741 C743 1.388 . S
C742 C741 1.366 . S
C742 C746 1.385 . S
C743 H718 0.951 . S
C743 C741 1.388 . S
C743 C744 1.366 . S
C744 C743 1.366 . S
C744 C745 1.414 . S
C744 C747 1.499 . S
C745 H719 0.950 . S
C745 C744 1.414 . S
C745 C746 1.374 . S
C746 H720 0.950 . S
C746 C742 1.385 . S
C746 C745 1.374 . S
C747 C744 1.499 . S
C747 C748 1.373 . S
C747 C749 1.389 . S
C748 H721 0.950 . S
C748 C734 1.377 1_554 S
C748 C747 1.373 . S
C749 C733 1.377 1_554 S
C749 C747 1.389 . S
C749 C750 1.524 . S
C750 C749 1.524 . S
C750 C751 1.397 . S
C750 C755 1.363 . S
C751 H722 0.950 . S
C751 C750 1.397 . S
C751 C752 1.334 . S
C752 H723 0.950 . S
C752 C751 1.334 . S
C752 C753 1.287 . S
C753 C752 1.287 . S
C753 C754 1.524 . S
C753 H756 0.999 . S
C754 H724 0.950 . S
C754 C753 1.524 . S
C754 C755 1.415 . S
C755 H725 0.950 . S
C755 C750 1.363 . S
C755 C754 1.415 . S
H756 C753 0.999 . S
H757 C738 0.913 . S
H758 C776 0.951 . S
H759 C778 0.951 . S
H760 C780 0.950 . S
H761 C781 0.950 . S
H762 C783 0.950 . S
H763 C786 0.950 . S
H764 C787 0.950 . S
H765 C789 0.950 . S
H766 C790 0.950 . S
H767 C791 0.951 . S
H768 C793 0.951 . S
H769 C795 0.950 . S
H770 C796 0.950 . S
H771 C798 0.950 . S
H772 C801 0.950 . S
H773 C802 0.950 . S
H774 C804 0.950 . S
H775 C805 0.950 . S
C776 H758 0.951 . S
C776 C777 1.366 . S
C776 C778 1.388 . S
C777 C776 1.366 . S
C777 C781 1.385 . S
C778 H759 0.951 . S
C778 C776 1.388 . S
C778 C779 1.366 . S
C779 C778 1.366 . S
C779 C780 1.414 . S
C779 C782 1.499 . S
C780 H760 0.950 . S
C780 C779 1.414 . S
C780 C781 1.374 . S
C781 H761 0.950 . S
C781 C777 1.385 . S
C781 C780 1.374 . S
C782 C779 1.499 . S
C782 C783 1.373 . S
C782 C784 1.389 . S
C783 H762 0.950 . S
C783 C782 1.373 . S
C783 C799 1.377 . S
C784 C782 1.389 . S
C784 C785 1.524 . S
C784 C798 1.377 . S
C785 C784 1.524 . S
C785 C786 1.397 . S
C785 C790 1.363 . S
C786 H763 0.950 . S
C786 C785 1.397 . S
C786 C787 1.334 . S
C787 H764 0.950 . S
C787 C786 1.334 . S
C787 C788 1.287 . S
C788 C787 1.287 . S
C788 C789 1.524 . S
C788 H807 0.913 . S
C789 H765 0.950 . S
C789 C788 1.524 . S
C789 C790 1.415 . S
C790 H766 0.950 . S
C790 C785 1.363 . S
C790 C789 1.415 . S
C791 H767 0.951 . S
C791 C792 1.366 . S
C791 C793 1.388 . S
C792 C791 1.366 . S
C792 C796 1.385 . S
C793 H768 0.951 . S
C793 C791 1.388 . S
C793 C794 1.366 . S
C794 C793 1.366 . S
C794 C795 1.414 . S
C794 C797 1.499 . S
C795 H769 0.950 . S
C795 C794 1.414 . S
C795 C796 1.374 . S
C796 H770 0.950 . S
C796 C792 1.385 . S
C796 C795 1.374 . S
C797 C794 1.499 . S
C797 C798 1.373 . S
C797 C799 1.389 . S
C798 H771 0.950 . S
C798 C784 1.377 . S
C798 C797 1.373 . S
C799 C783 1.377 . S
C799 C797 1.389 . S
C799 C800 1.524 . S
C800 C799 1.524 . S
C800 C801 1.397 . S
C800 C805 1.363 . S
C801 H772 0.950 . S
C801 C800 1.397 . S
C801 C802 1.334 . S
C802 H773 0.950 . S
C802 C801 1.334 . S
C802 C803 1.287 . S
C803 C802 1.287 . S
C803 C804 1.524 . S
C803 H806 0.999 . S
C804 H774 0.950 . S
C804 C803 1.524 . S
C804 C805 1.415 . S
C805 H775 0.950 . S
C805 C800 1.363 . S
C805 C804 1.415 . S
H806 C803 0.999 . S
H807 C788 0.913 . S
H808 C826 0.951 . S
H809 C828 0.951 . S
H810 C830 0.950 . S
H811 C831 0.950 . S
H812 C833 0.950 . S
H813 C836 0.950 . S
H814 C837 0.950 . S
H815 C839 0.950 . S
H816 C840 0.950 . S
H817 C841 0.951 . S
H818 C843 0.951 . S
H819 C845 0.950 . S
H820 C846 0.950 . S
H821 C848 0.950 . S
H822 C851 0.950 . S
H823 C852 0.950 . S
H824 C854 0.950 . S
H825 C855 0.950 . S
C826 H808 0.951 . S
C826 C827 1.366 . S
C826 C828 1.388 . S
C827 C826 1.366 . S
C827 C831 1.385 . S
C828 H809 0.951 . S
C828 C826 1.388 . S
C828 C829 1.366 . S
C829 C828 1.366 . S
C829 C830 1.414 . S
C829 C832 1.499 . S
C830 H810 0.950 . S
C830 C829 1.414 . S
C830 C831 1.374 . S
C831 H811 0.950 . S
C831 C827 1.385 . S
C831 C830 1.374 . S
C832 C829 1.499 . S
C832 C833 1.373 . S
C832 C834 1.389 . S
C833 H812 0.950 . S
C833 C832 1.373 . S
C833 C849 1.377 1_554 S
C834 C832 1.389 . S
C834 C835 1.524 . S
C834 C848 1.377 1_554 S
C835 C834 1.524 . S
C835 C836 1.397 . S
C835 C840 1.363 . S
C836 H813 0.950 . S
C836 C835 1.397 . S
C836 C837 1.334 . S
C837 H814 0.950 . S
C837 C836 1.334 . S
C837 C838 1.287 . S
C838 C837 1.287 . S
C838 C839 1.524 . S
C838 H857 0.913 . S
C839 H815 0.950 . S
C839 C838 1.524 . S
C839 C840 1.415 . S
C840 H816 0.950 . S
C840 C835 1.363 . S
C840 C839 1.415 . S
C841 H817 0.951 . S
C841 C842 1.366 . S
C841 C843 1.388 . S
C842 C841 1.366 . S
C842 C846 1.385 . S
C843 H818 0.951 . S
C843 C841 1.388 . S
C843 C844 1.366 . S
C844 C843 1.366 . S
C844 C845 1.414 . S
C844 C847 1.499 . S
C845 H819 0.950 . S
C845 C844 1.414 . S
C845 C846 1.374 . S
C846 H820 0.950 . S
C846 C842 1.385 . S
C846 C845 1.374 . S
C847 C844 1.499 . S
C847 C848 1.373 . S
C847 C849 1.389 . S
C848 H821 0.950 . S
C848 C834 1.377 1_556 S
C848 C847 1.373 . S
C849 C833 1.377 1_556 S
C849 C847 1.389 . S
C849 C850 1.524 . S
C850 C849 1.524 . S
C850 C851 1.397 . S
C850 C855 1.363 . S
C851 H822 0.950 . S
C851 C850 1.397 . S
C851 C852 1.334 . S
C852 H823 0.950 . S
C852 C851 1.334 . S
C852 C853 1.287 . S
C853 C852 1.287 . S
C853 C854 1.524 . S
C853 H856 0.999 . S
C854 H824 0.950 . S
C854 C853 1.524 . S
C854 C855 1.415 . S
C855 H825 0.950 . S
C855 C850 1.363 . S
C855 C854 1.415 . S
H856 C853 0.999 . S
H857 C838 0.913 . S
H858 C876 0.951 . S
H859 C878 0.951 . S
H860 C880 0.950 . S
H861 C881 0.950 . S
H862 C883 0.950 . S
H863 C886 0.950 . S
H864 C887 0.950 . S
H865 C889 0.950 . S
H866 C890 0.950 . S
H867 C891 0.951 . S
H868 C893 0.951 . S
H869 C895 0.950 . S
H870 C896 0.950 . S
H871 C898 0.950 . S
H872 C901 0.950 . S
H873 C902 0.950 . S
H874 C904 0.950 . S
H875 C905 0.950 . S
C876 H858 0.951 . S
C876 C877 1.366 . S
C876 C878 1.388 . S
C877 C876 1.366 . S
C877 C881 1.385 . S
C878 H859 0.951 . S
C878 C876 1.388 . S
C878 C879 1.366 . S
C879 C878 1.366 . S
C879 C880 1.414 . S
C879 C882 1.499 . S
C880 H860 0.950 . S
C880 C879 1.414 . S
C880 C881 1.374 . S
C881 H861 0.950 . S
C881 C877 1.385 . S
C881 C880 1.374 . S
C882 C879 1.499 . S
C882 C883 1.373 . S
C882 C884 1.389 . S
C883 H862 0.950 . S
C883 C882 1.373 . S
C883 C899 1.377 . S
C884 C882 1.389 . S
C884 C885 1.524 . S
C884 C898 1.377 . S
C885 C884 1.524 . S
C885 C886 1.397 . S
C885 C890 1.363 . S
C886 H863 0.950 . S
C886 C885 1.397 . S
C886 C887 1.334 . S
C887 H864 0.950 . S
C887 C886 1.334 . S
C887 C888 1.287 . S
C888 C887 1.287 . S
C888 C889 1.524 . S
C888 H907 0.913 . S
C889 H865 0.950 . S
C889 C888 1.524 . S
C889 C890 1.415 . S
C890 H866 0.950 . S
C890 C885 1.363 . S
C890 C889 1.415 . S
C891 H867 0.951 . S
C891 C892 1.366 . S
C891 C893 1.388 . S
C892 C891 1.366 . S
C892 C896 1.385 . S
C893 H868 0.951 . S
C893 C891 1.388 . S
C893 C894 1.366 . S
C894 C893 1.366 . S
C894 C895 1.414 . S
C894 C897 1.499 . S
C895 H869 0.950 . S
C895 C894 1.414 . S
C895 C896 1.374 . S
C896 H870 0.950 . S
C896 C892 1.385 . S
C896 C895 1.374 . S
C897 C894 1.499 . S
C897 C898 1.373 . S
C897 C899 1.389 . S
C898 H871 0.950 . S
C898 C884 1.377 . S
C898 C897 1.373 . S
C899 C883 1.377 . S
C899 C897 1.389 . S
C899 C900 1.524 . S
C900 C899 1.524 . S
C900 C901 1.397 . S
C900 C905 1.363 . S
C901 H872 0.950 . S
C901 C900 1.397 . S
C901 C902 1.334 . S
C902 H873 0.950 . S
C902 C901 1.334 . S
C902 C903 1.287 . S
C903 C902 1.287 . S
C903 C904 1.524 . S
C903 H906 0.999 . S
C904 H874 0.950 . S
C904 C903 1.524 . S
C904 C905 1.415 . S
C905 H875 0.950 . S
C905 C900 1.363 . S
C905 C904 1.415 . S
H906 C903 0.999 . S
H907 C888 0.913 . S
H908 C926 0.951 . S
H909 C928 0.951 . S
H910 C930 0.950 . S
H911 C931 0.950 . S
H912 C933 0.950 . S
H913 C936 0.950 . S
H914 C937 0.950 . S
H915 C939 0.950 . S
H916 C940 0.950 . S
H917 C941 0.951 . S
H918 C943 0.951 . S
H919 C945 0.950 . S
H920 C946 0.950 . S
H921 C948 0.950 . S
H922 C951 0.950 . S
H923 C952 0.950 . S
H924 C954 0.950 . S
H925 C955 0.950 . S
C926 H908 0.951 . S
C926 C927 1.366 . S
C926 C928 1.388 . S
C927 C926 1.366 . S
C927 C931 1.385 . S
C928 H909 0.951 . S
C928 C926 1.388 . S
C928 C929 1.366 . S
C929 C928 1.366 . S
C929 C930 1.414 . S
C929 C932 1.499 . S
C930 H910 0.950 . S
C930 C929 1.414 . S
C930 C931 1.374 . S
C931 H911 0.950 . S
C931 C927 1.385 . S
C931 C930 1.374 . S
C932 C929 1.499 . S
C932 C933 1.373 . S
C932 C934 1.389 . S
C933 H912 0.950 . S
C933 C932 1.373 . S
C933 C949 1.377 1_556 S
C934 C932 1.389 . S
C934 C935 1.524 . S
C934 C948 1.377 1_556 S
C935 C934 1.524 . S
C935 C936 1.397 . S
C935 C940 1.363 . S
C936 H913 0.950 . S
C936 C935 1.397 . S
C936 C937 1.334 . S
C937 H914 0.950 . S
C937 C936 1.334 . S
C937 C938 1.287 . S
C938 C937 1.287 . S
C938 C939 1.524 . S
C938 H957 0.913 . S
C939 H915 0.950 . S
C939 C938 1.524 . S
C939 C940 1.415 . S
C940 H916 0.950 . S
C940 C935 1.363 . S
C940 C939 1.415 . S
C941 H917 0.951 . S
C941 C942 1.366 . S
C941 C943 1.388 . S
C942 C941 1.366 . S
C942 C946 1.385 . S
C943 H918 0.951 . S
C943 C941 1.388 . S
C943 C944 1.366 . S
C944 C943 1.366 . S
C944 C945 1.414 . S
C944 C947 1.499 . S
C945 H919 0.950 . S
C945 C944 1.414 . S
C945 C946 1.374 . S
C946 H920 0.950 . S
C946 C942 1.385 . S
C946 C945 1.374 . S
C947 C944 1.499 . S
C947 C948 1.373 . S
C947 C949 1.389 . S
C948 H921 0.950 . S
C948 C934 1.377 1_554 S
C948 C947 1.373 . S
C949 C933 1.377 1_554 S
C949 C947 1.389 . S
C949 C950 1.524 . S
C950 C949 1.524 . S
C950 C951 1.397 . S
C950 C955 1.363 . S
C951 H922 0.950 . S
C951 C950 1.397 . S
C951 C952 1.334 . S
C952 H923 0.950 . S
C952 C951 1.334 . S
C952 C953 1.287 . S
C953 C952 1.287 . S
C953 C954 1.524 . S
C953 H956 0.999 . S
C954 H924 0.950 . S
C954 C953 1.524 . S
C954 C955 1.415 . S
C955 H925 0.950 . S
C955 C950 1.363 . S
C955 C954 1.415 . S
H956 C953 0.999 . S
H957 C938 0.913 . S
H958 C976 0.951 . S
H959 C978 0.951 . S
H960 C980 0.950 . S
H961 C981 0.950 . S
H962 C983 0.950 . S
H963 C986 0.950 . S
H964 C987 0.950 . S
H965 C989 0.950 . S
H966 C990 0.950 . S
H967 C991 0.951 . S
H968 C993 0.951 . S
H969 C995 0.950 . S
H970 C996 0.950 . S
H971 C998 0.950 . S
H972 C1001 0.950 . S
H973 C1002 0.950 . S
H974 C1004 0.950 . S
H975 C1005 0.950 . S
C976 H958 0.951 . S
C976 C977 1.366 . S
C976 C978 1.388 . S
C977 C976 1.366 . S
C977 C981 1.385 . S
C978 H959 0.951 . S
C978 C976 1.388 . S
C978 C979 1.366 . S
C979 C978 1.366 . S
C979 C980 1.414 . S
C979 C982 1.499 . S
C980 H960 0.950 . S
C980 C979 1.414 . S
C980 C981 1.374 . S
C981 H961 0.950 . S
C981 C977 1.385 . S
C981 C980 1.374 . S
C982 C979 1.499 . S
C982 C983 1.373 . S
C982 C984 1.389 . S
C983 H962 0.950 . S
C983 C982 1.373 . S
C983 C999 1.377 . S
C984 C982 1.389 . S
C984 C985 1.524 . S
C984 C998 1.377 . S
C985 C984 1.524 . S
C985 C986 1.397 . S
C985 C990 1.363 . S
C986 H963 0.950 . S
C986 C985 1.397 . S
C986 C987 1.334 . S
C987 H964 0.950 . S
C987 C986 1.334 . S
C987 C988 1.287 . S
C988 C987 1.287 . S
C988 C989 1.524 . S
C988 H1007 0.913 . S
C989 H965 0.950 . S
C989 C988 1.524 . S
C989 C990 1.415 . S
C990 H966 0.950 . S
C990 C985 1.363 . S
C990 C989 1.415 . S
C991 H967 0.951 . S
C991 C992 1.366 . S
C991 C993 1.388 . S
C992 C991 1.366 . S
C992 C996 1.385 . S
C993 H968 0.951 . S
C993 C991 1.388 . S
C993 C994 1.366 . S
C994 C993 1.366 . S
C994 C995 1.414 . S
C994 C997 1.499 . S
C995 H969 0.950 . S
C995 C994 1.414 . S
C995 C996 1.374 . S
C996 H970 0.950 . S
C996 C992 1.385 . S
C996 C995 1.374 . S
C997 C994 1.499 . S
C997 C998 1.373 . S
C997 C999 1.389 . S
C998 H971 0.950 . S
C998 C984 1.377 . S
C998 C997 1.373 . S
C999 C983 1.377 . S
C999 C997 1.389 . S
C999 C1000 1.524 . S
C1000 C999 1.524 . S
C1000 C1001 1.397 . S
C1000 C1005 1.363 . S
C1001 H972 0.950 . S
C1001 C1000 1.397 . S
C1001 C1002 1.334 . S
C1002 H973 0.950 . S
C1002 C1001 1.334 . S
C1002 C1003 1.287 . S
C1003 C1002 1.287 . S
C1003 C1004 1.524 . S
C1003 H1006 0.999 . S
C1004 H974 0.950 . S
C1004 C1003 1.524 . S
C1004 C1005 1.415 . S
C1005 H975 0.950 . S
C1005 C1000 1.363 . S
C1005 C1004 1.415 . S
H1006 C1003 0.999 . S
H1007 C988 0.913 . S
H1008 C1026 0.951 . S
H1009 C1028 0.951 . S
H1010 C1030 0.950 . S
H1011 C1031 0.950 . S
H1012 C1033 0.950 . S
H1013 C1036 0.950 . S
H1014 C1037 0.950 . S
H1015 C1039 0.950 . S
H1016 C1040 0.950 . S
H1017 C1041 0.951 . S
H1018 C1043 0.951 . S
H1019 C1045 0.950 . S
H1020 C1046 0.950 . S
H1021 C1048 0.950 . S
H1022 C1051 0.950 . S
H1023 C1052 0.950 . S
H1024 C1054 0.950 . S
H1025 C1055 0.950 . S
C1026 H1008 0.951 . S
C1026 C1027 1.366 . S
C1026 C1028 1.388 . S
C1027 C1026 1.366 . S
C1027 C1031 1.385 . S
C1028 H1009 0.951 . S
C1028 C1026 1.388 . S
C1028 C1029 1.366 . S
C1029 C1028 1.366 . S
C1029 C1030 1.414 . S
C1029 C1032 1.499 . S
C1030 H1010 0.950 . S
C1030 C1029 1.414 . S
C1030 C1031 1.374 . S
C1031 H1011 0.950 . S
C1031 C1027 1.385 . S
C1031 C1030 1.374 . S
C1032 C1029 1.499 . S
C1032 C1033 1.373 . S
C1032 C1034 1.389 . S
C1033 H1012 0.950 . S
C1033 C1032 1.373 . S
C1033 C1049 1.377 1_554 S
C1034 C1032 1.389 . S
C1034 C1035 1.524 . S
C1034 C1048 1.377 1_554 S
C1035 C1034 1.524 . S
C1035 C1036 1.397 . S
C1035 C1040 1.363 . S
C1036 H1013 0.950 . S
C1036 C1035 1.397 . S
C1036 C1037 1.334 . S
C1037 H1014 0.950 . S
C1037 C1036 1.334 . S
C1037 C1038 1.287 . S
C1038 C1037 1.287 . S
C1038 C1039 1.524 . S
C1038 H1057 0.913 . S
C1039 H1015 0.950 . S
C1039 C1038 1.524 . S
C1039 C1040 1.415 . S
C1040 H1016 0.950 . S
C1040 C1035 1.363 . S
C1040 C1039 1.415 . S
C1041 H1017 0.951 . S
C1041 C1042 1.366 . S
C1041 C1043 1.388 . S
C1042 C1041 1.366 . S
C1042 C1046 1.385 . S
C1043 H1018 0.951 . S
C1043 C1041 1.388 . S
C1043 C1044 1.366 . S
C1044 C1043 1.366 . S
C1044 C1045 1.414 . S
C1044 C1047 1.499 . S
C1045 H1019 0.950 . S
C1045 C1044 1.414 . S
C1045 C1046 1.374 . S
C1046 H1020 0.950 . S
C1046 C1042 1.385 . S
C1046 C1045 1.374 . S
C1047 C1044 1.499 . S
C1047 C1048 1.373 . S
C1047 C1049 1.389 . S
C1048 H1021 0.950 . S
C1048 C1034 1.377 1_556 S
C1048 C1047 1.373 . S
C1049 C1033 1.377 1_556 S
C1049 C1047 1.389 . S
C1049 C1050 1.524 . S
C1050 C1049 1.524 . S
C1050 C1051 1.397 . S
C1050 C1055 1.363 . S
C1051 H1022 0.950 . S
C1051 C1050 1.397 . S
C1051 C1052 1.334 . S
C1052 H1023 0.950 . S
C1052 C1051 1.334 . S
C1052 C1053 1.287 . S
C1053 C1052 1.287 . S
C1053 C1054 1.524 . S
C1053 H1056 0.999 . S
C1054 H1024 0.950 . S
C1054 C1053 1.524 . S
C1054 C1055 1.415 . S
C1055 H1025 0.950 . S
C1055 C1050 1.363 . S
C1055 C1054 1.415 . S
H1056 C1053 0.999 . S
H1057 C1038 0.913 . S
H1058 C1076 0.951 . S
H1059 C1078 0.951 . S
H1060 C1080 0.950 . S
H1061 C1081 0.950 . S
H1062 C1083 0.950 . S
H1063 C1086 0.950 . S
H1064 C1087 0.950 . S
H1065 C1089 0.950 . S
H1066 C1090 0.950 . S
H1067 C1091 0.951 . S
H1068 C1093 0.951 . S
H1069 C1095 0.950 . S
H1070 C1096 0.950 . S
H1071 C1098 0.950 . S
H1072 C1101 0.950 . S
H1073 C1102 0.950 . S
H1074 C1104 0.950 . S
H1075 C1105 0.950 . S
C1076 H1058 0.951 . S
C1076 C1077 1.366 . S
C1076 C1078 1.388 . S
C1077 C1076 1.366 . S
C1077 C1081 1.385 . S
C1078 H1059 0.951 . S
C1078 C1076 1.388 . S
C1078 C1079 1.366 . S
C1079 C1078 1.366 . S
C1079 C1080 1.414 . S
C1079 C1082 1.499 . S
C1080 H1060 0.950 . S
C1080 C1079 1.414 . S
C1080 C1081 1.374 . S
C1081 H1061 0.950 . S
C1081 C1077 1.385 . S
C1081 C1080 1.374 . S
C1082 C1079 1.499 . S
C1082 C1083 1.373 . S
C1082 C1084 1.389 . S
C1083 H1062 0.950 . S
C1083 C1082 1.373 . S
C1083 C1099 1.377 . S
C1084 C1082 1.389 . S
C1084 C1085 1.524 . S
C1084 C1098 1.377 . S
C1085 C1084 1.524 . S
C1085 C1086 1.397 . S
C1085 C1090 1.363 . S
C1086 H1063 0.950 . S
C1086 C1085 1.397 . S
C1086 C1087 1.334 . S
C1087 H1064 0.950 . S
C1087 C1086 1.334 . S
C1087 C1088 1.287 . S
C1088 C1087 1.287 . S
C1088 C1089 1.524 . S
C1088 H1107 0.913 . S
C1089 H1065 0.950 . S
C1089 C1088 1.524 . S
C1089 C1090 1.415 . S
C1090 H1066 0.950 . S
C1090 C1085 1.363 . S
C1090 C1089 1.415 . S
C1091 H1067 0.951 . S
C1091 C1092 1.366 . S
C1091 C1093 1.388 . S
C1092 C1091 1.366 . S
C1092 C1096 1.385 . S
C1093 H1068 0.951 . S
C1093 C1091 1.388 . S
C1093 C1094 1.366 . S
C1094 C1093 1.366 . S
C1094 C1095 1.414 . S
C1094 C1097 1.499 . S
C1095 H1069 0.950 . S
C1095 C1094 1.414 . S
C1095 C1096 1.374 . S
C1096 H1070 0.950 . S
C1096 C1092 1.385 . S
C1096 C1095 1.374 . S
C1097 C1094 1.499 . S
C1097 C1098 1.373 . S
C1097 C1099 1.389 . S
C1098 H1071 0.950 . S
C1098 C1084 1.377 . S
C1098 C1097 1.373 . S
C1099 C1083 1.377 . S
C1099 C1097 1.389 . S
C1099 C1100 1.524 . S
C1100 C1099 1.524 . S
C1100 C1101 1.397 . S
C1100 C1105 1.363 . S
C1101 H1072 0.950 . S
C1101 C1100 1.397 . S
C1101 C1102 1.334 . S
C1102 H1073 0.950 . S
C1102 C1101 1.334 . S
C1102 C1103 1.287 . S
C1103 C1102 1.287 . S
C1103 C1104 1.524 . S
C1103 H1106 0.999 . S
C1104 H1074 0.950 . S
C1104 C1103 1.524 . S
C1104 C1105 1.415 . S
C1105 H1075 0.950 . S
C1105 C1100 1.363 . S
C1105 C1104 1.415 . S
H1106 C1103 0.999 . S
H1107 C1088 0.913 . S
H1108 C1126 0.951 . S
H1109 C1128 0.951 . S
H1110 C1130 0.950 . S
H1111 C1131 0.950 . S
H1112 C1133 0.950 . S
H1113 C1136 0.950 . S
H1114 C1137 0.950 . S
H1115 C1139 0.950 . S
H1116 C1140 0.950 . S
H1117 C1141 0.951 . S
H1118 C1143 0.951 . S
H1119 C1145 0.950 . S
H1120 C1146 0.950 . S
H1121 C1148 0.950 . S
H1122 C1151 0.950 . S
H1123 C1152 0.950 . S
H1124 C1154 0.950 . S
H1125 C1155 0.950 . S
C1126 H1108 0.951 . S
C1126 C1127 1.366 . S
C1126 C1128 1.388 . S
C1127 C1126 1.366 . S
C1127 C1131 1.385 . S
C1128 H1109 0.951 . S
C1128 C1126 1.388 . S
C1128 C1129 1.366 . S
C1129 C1128 1.366 . S
C1129 C1130 1.414 . S
C1129 C1132 1.499 . S
C1130 H1110 0.950 . S
C1130 C1129 1.414 . S
C1130 C1131 1.374 . S
C1131 H1111 0.950 . S
C1131 C1127 1.385 . S
C1131 C1130 1.374 . S
C1132 C1129 1.499 . S
C1132 C1133 1.373 . S
C1132 C1134 1.389 . S
C1133 H1112 0.950 . S
C1133 C1132 1.373 . S
C1133 C1149 1.377 1_556 S
C1134 C1132 1.389 . S
C1134 C1135 1.524 . S
C1134 C1148 1.377 1_556 S
C1135 C1134 1.524 . S
C1135 C1136 1.397 . S
C1135 C1140 1.363 . S
C1136 H1113 0.950 . S
C1136 C1135 1.397 . S
C1136 C1137 1.334 . S
C1137 H1114 0.950 . S
C1137 C1136 1.334 . S
C1137 C1138 1.287 . S
C1138 C1137 1.287 . S
C1138 C1139 1.524 . S
C1138 H1157 0.913 . S
C1139 H1115 0.950 . S
C1139 C1138 1.524 . S
C1139 C1140 1.415 . S
C1140 H1116 0.950 . S
C1140 C1135 1.363 . S
C1140 C1139 1.415 . S
C1141 H1117 0.951 . S
C1141 C1142 1.366 . S
C1141 C1143 1.388 . S
C1142 C1141 1.366 . S
C1142 C1146 1.385 . S
C1143 H1118 0.951 . S
C1143 C1141 1.388 . S
C1143 C1144 1.366 . S
C1144 C1143 1.366 . S
C1144 C1145 1.414 . S
C1144 C1147 1.499 . S
C1145 H1119 0.950 . S
C1145 C1144 1.414 . S
C1145 C1146 1.374 . S
C1146 H1120 0.950 . S
C1146 C1142 1.385 . S
C1146 C1145 1.374 . S
C1147 C1144 1.499 . S
C1147 C1148 1.373 . S
C1147 C1149 1.389 . S
C1148 H1121 0.950 . S
C1148 C1134 1.377 1_554 S
C1148 C1147 1.373 . S
C1149 C1133 1.377 1_554 S
C1149 C1147 1.389 . S
C1149 C1150 1.524 . S
C1150 C1149 1.524 . S
C1150 C1151 1.397 . S
C1150 C1155 1.363 . S
C1151 H1122 0.950 . S
C1151 C1150 1.397 . S
C1151 C1152 1.334 . S
C1152 H1123 0.950 . S
C1152 C1151 1.334 . S
C1152 C1153 1.287 . S
C1153 C1152 1.287 . S
C1153 C1154 1.524 . S
C1153 H1156 0.999 . S
C1154 H1124 0.950 . S
C1154 C1153 1.524 . S
C1154 C1155 1.415 . S
C1155 H1125 0.950 . S
C1155 C1150 1.363 . S
C1155 C1154 1.415 . S
H1156 C1153 0.999 . S
H1157 C1138 0.913 . S
H1158 C1176 0.951 . S
H1159 C1178 0.951 . S
H1160 C1180 0.950 . S
H1161 C1181 0.950 . S
H1162 C1183 0.950 . S
H1163 C1186 0.950 . S
H1164 C1187 0.950 . S
H1165 C1189 0.950 . S
H1166 C1190 0.950 . S
H1167 C1191 0.951 . S
H1168 C1193 0.951 . S
H1169 C1195 0.950 . S
H1170 C1196 0.950 . S
H1171 C1198 0.950 . S
H1172 C1201 0.950 . S
H1173 C1202 0.950 . S
H1174 C1204 0.950 . S
H1175 C1205 0.950 . S
C1176 H1158 0.951 . S
C1176 C1177 1.366 . S
C1176 C1178 1.388 . S
C1177 C1176 1.366 . S
C1177 C1181 1.385 . S
C1178 H1159 0.951 . S
C1178 C1176 1.388 . S
C1178 C1179 1.366 . S
C1179 C1178 1.366 . S
C1179 C1180 1.414 . S
C1179 C1182 1.499 . S
C1180 H1160 0.950 . S
C1180 C1179 1.414 . S
C1180 C1181 1.374 . S
C1181 H1161 0.950 . S
C1181 C1177 1.385 . S
C1181 C1180 1.374 . S
C1182 C1179 1.499 . S
C1182 C1183 1.373 . S
C1182 C1184 1.389 . S
C1183 H1162 0.950 . S
C1183 C1182 1.373 . S
C1183 C1199 1.377 . S
C1184 C1182 1.389 . S
C1184 C1185 1.524 . S
C1184 C1198 1.377 . S
C1185 C1184 1.524 . S
C1185 C1186 1.397 . S
C1185 C1190 1.363 . S
C1186 H1163 0.950 . S
C1186 C1185 1.397 . S
C1186 C1187 1.334 . S
C1187 H1164 0.950 . S
C1187 C1186 1.334 . S
C1187 C1188 1.287 . S
C1188 C1187 1.287 . S
C1188 C1189 1.524 . S
C1188 H1207 0.913 . S
C1189 H1165 0.950 . S
C1189 C1188 1.524 . S
C1189 C1190 1.415 . S
C1190 H1166 0.950 . S
C1190 C1185 1.363 . S
C1190 C1189 1.415 . S
C1191 H1167 0.951 . S
C1191 C1192 1.366 . S
C1191 C1193 1.388 . S
C1192 C1191 1.366 . S
C1192 C1196 1.385 . S
C1193 H1168 0.951 . S
C1193 C1191 1.388 . S
C1193 C1194 1.366 . S
C1194 C1193 1.366 . S
C1194 C1195 1.414 . S
C1194 C1197 1.499 . S
C1195 H1169 0.950 . S
C1195 C1194 1.414 . S
C1195 C1196 1.374 . S
C1196 H1170 0.950 . S
C1196 C1192 1.385 . S
C1196 C1195 1.374 . S
C1197 C1194 1.499 . S
C1197 C1198 1.373 . S
C1197 C1199 1.389 . S
C1198 H1171 0.950 . S
C1198 C1184 1.377 . S
C1198 C1197 1.373 . S
C1199 C1183 1.377 . S
C1199 C1197 1.389 . S
C1199 C1200 1.524 . S
C1200 C1199 1.524 . S
C1200 C1201 1.397 . S
C1200 C1205 1.363 . S
C1201 H1172 0.950 . S
C1201 C1200 1.397 . S
C1201 C1202 1.334 . S
C1202 H1173 0.950 . S
C1202 C1201 1.334 . S
C1202 C1203 1.287 . S
C1203 C1202 1.287 . S
C1203 C1204 1.524 . S
C1203 H1206 0.999 . S
C1204 H1174 0.950 . S
C1204 C1203 1.524 . S
C1204 C1205 1.415 . S
C1205 H1175 0.950 . S
C1205 C1200 1.363 . S
C1205 C1204 1.415 . S
H1206 C1203 0.999 . S
H1207 C1188 0.913 . S
H1208 C1226 0.951 . S
H1209 C1228 0.951 . S
H1210 C1230 0.950 . S
H1211 C1231 0.950 . S
H1212 C1233 0.950 . S
H1213 C1236 0.950 . S
H1214 C1237 0.950 . S
H1215 C1239 0.950 . S
H1216 C1240 0.950 . S
H1217 C1241 0.951 . S
H1218 C1243 0.951 . S
H1219 C1245 0.950 . S
H1220 C1246 0.950 . S
H1221 C1248 0.950 . S
H1222 C1251 0.950 . S
H1223 C1252 0.950 . S
H1224 C1254 0.950 . S
H1225 C1255 0.950 . S
C1226 H1208 0.951 . S
C1226 C1227 1.366 . S
C1226 C1228 1.388 . S
C1227 C1226 1.366 . S
C1227 C1231 1.385 . S
C1228 H1209 0.951 . S
C1228 C1226 1.388 . S
C1228 C1229 1.366 . S
C1229 C1228 1.366 . S
C1229 C1230 1.414 . S
C1229 C1232 1.499 . S
C1230 H1210 0.950 . S
C1230 C1229 1.414 . S
C1230 C1231 1.374 . S
C1231 H1211 0.950 . S
C1231 C1227 1.385 . S
C1231 C1230 1.374 . S
C1232 C1229 1.499 . S
C1232 C1233 1.373 . S
C1232 C1234 1.389 . S
C1233 H1212 0.950 . S
C1233 C1232 1.373 . S
C1233 C1249 1.377 1_556 S
C1234 C1232 1.389 . S
C1234 C1235 1.524 . S
C1234 C1248 1.377 1_556 S
C1235 C1234 1.524 . S
C1235 C1236 1.397 . S
C1235 C1240 1.363 . S
C1236 H1213 0.950 . S
C1236 C1235 1.397 . S
C1236 C1237 1.334 . S
C1237 H1214 0.950 . S
C1237 C1236 1.334 . S
C1237 C1238 1.287 . S
C1238 C1237 1.287 . S
C1238 C1239 1.524 . S
C1238 H1257 0.913 . S
C1239 H1215 0.950 . S
C1239 C1238 1.524 . S
C1239 C1240 1.415 . S
C1240 H1216 0.950 . S
C1240 C1235 1.363 . S
C1240 C1239 1.415 . S
C1241 H1217 0.951 . S
C1241 C1242 1.366 . S
C1241 C1243 1.388 . S
C1242 C1241 1.366 . S
C1242 C1246 1.385 . S
C1243 H1218 0.951 . S
C1243 C1241 1.388 . S
C1243 C1244 1.366 . S
C1244 C1243 1.366 . S
C1244 C1245 1.414 . S
C1244 C1247 1.499 . S
C1245 H1219 0.950 . S
C1245 C1244 1.414 . S
C1245 C1246 1.374 . S
C1246 H1220 0.950 . S
C1246 C1242 1.385 . S
C1246 C1245 1.374 . S
C1247 C1244 1.499 . S
C1247 C1248 1.373 . S
C1247 C1249 1.389 . S
C1248 H1221 0.950 . S
C1248 C1234 1.377 1_554 S
C1248 C1247 1.373 . S
C1249 C1233 1.377 1_554 S
C1249 C1247 1.389 . S
C1249 C1250 1.524 . S
C1250 C1249 1.524 . S
C1250 C1251 1.397 . S
C1250 C1255 1.363 . S
C1251 H1222 0.950 . S
C1251 C1250 1.397 . S
C1251 C1252 1.334 . S
C1252 H1223 0.950 . S
C1252 C1251 1.334 . S
C1252 C1253 1.287 . S
C1253 C1252 1.287 . S
C1253 C1254 1.524 . S
C1253 H1256 0.999 . S
C1254 H1224 0.950 . S
C1254 C1253 1.524 . S
C1254 C1255 1.415 . S
C1255 H1225 0.950 . S
C1255 C1250 1.363 . S
C1255 C1254 1.415 . S
H1256 C1253 0.999 . S
H1257 C1238 0.913 . S
H1258 C1276 0.951 . S
H1259 C1278 0.951 . S
H1260 C1280 0.950 . S
H1261 C1281 0.950 . S
H1262 C1283 0.950 . S
H1263 C1286 0.950 . S
H1264 C1287 0.950 . S
H1265 C1289 0.950 . S
H1266 C1290 0.950 . S
H1267 C1291 0.951 . S
H1268 C1293 0.951 . S
H1269 C1295 0.950 . S
H1270 C1296 0.950 . S
H1271 C1298 0.950 . S
H1272 C1301 0.950 . S
H1273 C1302 0.950 . S
H1274 C1304 0.950 . S
H1275 C1305 0.950 . S
C1276 H1258 0.951 . S
C1276 C1277 1.366 . S
C1276 C1278 1.388 . S
C1277 C1276 1.366 . S
C1277 C1281 1.385 . S
C1278 H1259 0.951 . S
C1278 C1276 1.388 . S
C1278 C1279 1.366 . S
C1279 C1278 1.366 . S
C1279 C1280 1.414 . S
C1279 C1282 1.499 . S
C1280 H1260 0.950 . S
C1280 C1279 1.414 . S
C1280 C1281 1.374 . S
C1281 H1261 0.950 . S
C1281 C1277 1.385 . S
C1281 C1280 1.374 . S
C1282 C1279 1.499 . S
C1282 C1283 1.373 . S
C1282 C1284 1.389 . S
C1283 H1262 0.950 . S
C1283 C1282 1.373 . S
C1283 C1299 1.377 . S
C1284 C1282 1.389 . S
C1284 C1285 1.524 . S
C1284 C1298 1.377 . S
C1285 C1284 1.524 . S
C1285 C1286 1.397 . S
C1285 C1290 1.363 . S
C1286 H1263 0.950 . S
C1286 C1285 1.397 . S
C1286 C1287 1.334 . S
C1287 H1264 0.950 . S
C1287 C1286 1.334 . S
C1287 C1288 1.287 . S
C1288 C1287 1.287 . S
C1288 C1289 1.524 . S
C1288 H1307 0.913 . S
C1289 H1265 0.950 . S
C1289 C1288 1.524 . S
C1289 C1290 1.415 . S
C1290 H1266 0.950 . S
C1290 C1285 1.363 . S
C1290 C1289 1.415 . S
C1291 H1267 0.951 . S
C1291 C1292 1.366 . S
C1291 C1293 1.388 . S
C1292 C1291 1.366 . S
C1292 C1296 1.385 . S
C1293 H1268 0.951 . S
C1293 C1291 1.388 . S
C1293 C1294 1.366 . S
C1294 C1293 1.366 . S
C1294 C1295 1.414 . S
C1294 C1297 1.499 . S
C1295 H1269 0.950 . S
C1295 C1294 1.414 . S
C1295 C1296 1.374 . S
C1296 H1270 0.950 . S
C1296 C1292 1.385 . S
C1296 C1295 1.374 . S
C1297 C1294 1.499 . S
C1297 C1298 1.373 . S
C1297 C1299 1.389 . S
C1298 H1271 0.950 . S
C1298 C1284 1.377 . S
C1298 C1297 1.373 . S
C1299 C1283 1.377 . S
C1299 C1297 1.389 . S
C1299 C1300 1.524 . S
C1300 C1299 1.524 . S
C1300 C1301 1.397 . S
C1300 C1305 1.363 . S
C1301 H1272 0.950 . S
C1301 C1300 1.397 . S
C1301 C1302 1.334 . S
C1302 H1273 0.950 . S
C1302 C1301 1.334 . S
C1302 C1303 1.287 . S
C1303 C1302 1.287 . S
C1303 C1304 1.524 . S
C1303 H1306 0.999 . S
C1304 H1274 0.950 . S
C1304 C1303 1.524 . S
C1304 C1305 1.415 . S
C1305 H1275 0.950 . S
C1305 C1300 1.363 . S
C1305 C1304 1.415 . S
H1306 C1303 0.999 . S
H1307 C1288 0.913 . S
H1308 C1326 0.951 . S
H1309 C1328 0.951 . S
H1310 C1330 0.950 . S
H1311 C1331 0.950 . S
H1312 C1333 0.950 . S
H1313 C1336 0.950 . S
H1314 C1337 0.950 . S
H1315 C1339 0.950 . S
H1316 C1340 0.950 . S
H1317 C1341 0.951 . S
H1318 C1343 0.951 . S
H1319 C1345 0.950 . S
H1320 C1346 0.950 . S
H1321 C1348 0.950 . S
H1322 C1351 0.950 . S
H1323 C1352 0.950 . S
H1324 C1354 0.950 . S
H1325 C1355 0.950 . S
C1326 H1308 0.951 . S
C1326 C1327 1.366 . S
C1326 C1328 1.388 . S
C1327 C1326 1.366 . S
C1327 C1331 1.385 . S
C1328 H1309 0.951 . S
C1328 C1326 1.388 . S
C1328 C1329 1.366 . S
C1329 C1328 1.366 . S
C1329 C1330 1.414 . S
C1329 C1332 1.499 . S
C1330 H1310 0.950 . S
C1330 C1329 1.414 . S
C1330 C1331 1.374 . S
C1331 H1311 0.950 . S
C1331 C1327 1.385 . S
C1331 C1330 1.374 . S
C1332 C1329 1.499 . S
C1332 C1333 1.373 . S
C1332 C1334 1.389 . S
C1333 H1312 0.950 . S
C1333 C1332 1.373 . S
C1333 C1349 1.377 . S
C1334 C1332 1.389 . S
C1334 C1335 1.524 . S
C1334 C1348 1.377 . S
C1335 C1334 1.524 . S
C1335 C1336 1.397 . S
C1335 C1340 1.363 . S
C1336 H1313 0.950 . S
C1336 C1335 1.397 . S
C1336 C1337 1.334 . S
C1337 H1314 0.950 . S
C1337 C1336 1.334 . S
C1337 C1338 1.287 . S
C1338 C1337 1.287 . S
C1338 C1339 1.524 . S
C1338 H1357 0.913 . S
C1339 H1315 0.950 . S
C1339 C1338 1.524 . S
C1339 C1340 1.415 . S
C1340 H1316 0.950 . S
C1340 C1335 1.363 . S
C1340 C1339 1.415 . S
C1341 H1317 0.951 . S
C1341 C1342 1.366 . S
C1341 C1343 1.388 . S
C1342 C1341 1.366 . S
C1342 C1346 1.385 . S
C1343 H1318 0.951 . S
C1343 C1341 1.388 . S
C1343 C1344 1.366 . S
C1344 C1343 1.366 . S
C1344 C1345 1.414 . S
C1344 C1347 1.499 . S
C1345 H1319 0.950 . S
C1345 C1344 1.414 . S
C1345 C1346 1.374 . S
C1346 H1320 0.950 . S
C1346 C1342 1.385 . S
C1346 C1345 1.374 . S
C1347 C1344 1.499 . S
C1347 C1348 1.373 . S
C1347 C1349 1.389 . S
C1348 H1321 0.950 . S
C1348 C1334 1.377 . S
C1348 C1347 1.373 . S
C1349 C1333 1.377 . S
C1349 C1347 1.389 . S
C1349 C1350 1.524 . S
C1350 C1349 1.524 . S
C1350 C1351 1.397 . S
C1350 C1355 1.363 . S
C1351 H1322 0.950 . S
C1351 C1350 1.397 . S
C1351 C1352 1.334 . S
C1352 H1323 0.950 . S
C1352 C1351 1.334 . S
C1352 C1353 1.287 . S
C1353 C1352 1.287 . S
C1353 C1354 1.524 . S
C1353 H1356 0.999 . S
C1354 H1324 0.950 . S
C1354 C1353 1.524 . S
C1354 C1355 1.415 . S
C1355 H1325 0.950 . S
C1355 C1350 1.363 . S
C1355 C1354 1.415 . S
H1356 C1353 0.999 . S
H1357 C1338 0.913 . S
H1358 C1376 0.951 . S
H1359 C1378 0.951 . S
H1360 C1380 0.950 . S
H1361 C1381 0.950 . S
H1362 C1383 0.950 . S
H1363 C1386 0.950 . S
H1364 C1387 0.950 . S
H1365 C1389 0.950 . S
H1366 C1390 0.950 . S
H1367 C1391 0.951 . S
H1368 C1393 0.951 . S
H1369 C1395 0.950 . S
H1370 C1396 0.950 . S
H1371 C1398 0.950 . S
H1372 C1401 0.950 . S
H1373 C1402 0.950 . S
H1374 C1404 0.950 . S
H1375 C1405 0.950 . S
C1376 H1358 0.951 . S
C1376 C1377 1.366 . S
C1376 C1378 1.388 . S
C1377 C1376 1.366 . S
C1377 C1381 1.385 . S
C1378 H1359 0.951 . S
C1378 C1376 1.388 . S
C1378 C1379 1.366 . S
C1379 C1378 1.366 . S
C1379 C1380 1.414 . S
C1379 C1382 1.499 . S
C1380 H1360 0.950 . S
C1380 C1379 1.414 . S
C1380 C1381 1.374 . S
C1381 H1361 0.950 . S
C1381 C1377 1.385 . S
C1381 C1380 1.374 . S
C1382 C1379 1.499 . S
C1382 C1383 1.373 . S
C1382 C1384 1.389 . S
C1383 H1362 0.950 . S
C1383 C1382 1.373 . S
C1383 C1399 1.377 . S
C1384 C1382 1.389 . S
C1384 C1385 1.524 . S
C1384 C1398 1.377 . S
C1385 C1384 1.524 . S
C1385 C1386 1.397 . S
C1385 C1390 1.363 . S
C1386 H1363 0.950 . S
C1386 C1385 1.397 . S
C1386 C1387 1.334 . S
C1387 H1364 0.950 . S
C1387 C1386 1.334 . S
C1387 C1388 1.287 . S
C1388 C1387 1.287 . S
C1388 C1389 1.524 . S
C1388 H1407 0.913 . S
C1389 H1365 0.950 . S
C1389 C1388 1.524 . S
C1389 C1390 1.415 . S
C1390 H1366 0.950 . S
C1390 C1385 1.363 . S
C1390 C1389 1.415 . S
C1391 H1367 0.951 . S
C1391 C1392 1.366 . S
C1391 C1393 1.388 . S
C1392 C1391 1.366 . S
C1392 C1396 1.385 . S
C1393 H1368 0.951 . S
C1393 C1391 1.388 . S
C1393 C1394 1.366 . S
C1394 C1393 1.366 . S
C1394 C1395 1.414 . S
C1394 C1397 1.499 . S
C1395 H1369 0.950 . S
C1395 C1394 1.414 . S
C1395 C1396 1.374 . S
C1396 H1370 0.950 . S
C1396 C1392 1.385 . S
C1396 C1395 1.374 . S
C1397 C1394 1.499 . S
C1397 C1398 1.373 . S
C1397 C1399 1.389 . S
C1398 H1371 0.950 . S
C1398 C1384 1.377 . S
C1398 C1397 1.373 . S
C1399 C1383 1.377 . S
C1399 C1397 1.389 . S
C1399 C1400 1.524 . S
C1400 C1399 1.524 . S
C1400 C1401 1.397 . S
C1400 C1405 1.363 . S
C1401 H1372 0.950 . S
C1401 C1400 1.397 . S
C1401 C1402 1.334 . S
C1402 H1373 0.950 . S
C1402 C1401 1.334 . S
C1402 C1403 1.287 . S
C1403 C1402 1.287 . S
C1403 C1404 1.524 . S
C1403 H1406 0.999 . S
C1404 H1374 0.950 . S
C1404 C1403 1.524 . S
C1404 C1405 1.415 . S
C1405 H1375 0.950 . S
C1405 C1400 1.363 . S
C1405 C1404 1.415 . S
H1406 C1403 0.999 . S
H1407 C1388 0.913 . S
H1408 C1426 0.951 . S
H1409 C1428 0.951 . S
H1410 C1430 0.950 . S
H1411 C1431 0.950 . S
H1412 C1433 0.950 . S
H1413 C1436 0.950 . S
H1414 C1437 0.950 . S
H1415 C1439 0.950 . S
H1416 C1440 0.950 . S
H1417 C1441 0.951 . S
H1418 C1443 0.951 . S
H1419 C1445 0.950 . S
H1420 C1446 0.950 . S
H1421 C1448 0.950 . S
H1422 C1451 0.950 . S
H1423 C1452 0.950 . S
H1424 C1454 0.950 . S
H1425 C1455 0.950 . S
C1426 H1408 0.951 . S
C1426 C1427 1.366 . S
C1426 C1428 1.388 . S
C1427 C1426 1.366 . S
C1427 C1431 1.385 . S
C1428 H1409 0.951 . S
C1428 C1426 1.388 . S
C1428 C1429 1.366 . S
C1429 C1428 1.366 . S
C1429 C1430 1.414 . S
C1429 C1432 1.499 . S
C1430 H1410 0.950 . S
C1430 C1429 1.414 . S
C1430 C1431 1.374 . S
C1431 H1411 0.950 . S
C1431 C1427 1.385 . S
C1431 C1430 1.374 . S
C1432 C1429 1.499 . S
C1432 C1433 1.373 . S
C1432 C1434 1.389 . S
C1433 H1412 0.950 . S
C1433 C1432 1.373 . S
C1433 C1449 1.377 . S
C1434 C1432 1.389 . S
C1434 C1435 1.524 . S
C1434 C1448 1.377 . S
C1435 C1434 1.524 . S
C1435 C1436 1.397 . S
C1435 C1440 1.363 . S
C1436 H1413 0.950 . S
C1436 C1435 1.397 . S
C1436 C1437 1.334 . S
C1437 H1414 0.950 . S
C1437 C1436 1.334 . S
C1437 C1438 1.287 . S
C1438 C1437 1.287 . S
C1438 C1439 1.524 . S
C1438 H1457 0.913 . S
C1439 H1415 0.950 . S
C1439 C1438 1.524 . S
C1439 C1440 1.415 . S
C1440 H1416 0.950 . S
C1440 C1435 1.363 . S
C1440 C1439 1.415 . S
C1441 H1417 0.951 . S
C1441 C1442 1.366 . S
C1441 C1443 1.388 . S
C1442 C1441 1.366 . S
C1442 C1446 1.385 . S
C1443 H1418 0.951 . S
C1443 C1441 1.388 . S
C1443 C1444 1.366 . S
C1444 C1443 1.366 . S
C1444 C1445 1.414 . S
C1444 C1447 1.499 . S
C1445 H1419 0.950 . S
C1445 C1444 1.414 . S
C1445 C1446 1.374 . S
C1446 H1420 0.950 . S
C1446 C1442 1.385 . S
C1446 C1445 1.374 . S
C1447 C1444 1.499 . S
C1447 C1448 1.373 . S
C1447 C1449 1.389 . S
C1448 H1421 0.950 . S
C1448 C1434 1.377 . S
C1448 C1447 1.373 . S
C1449 C1433 1.377 . S
C1449 C1447 1.389 . S
C1449 C1450 1.524 . S
C1450 C1449 1.524 . S
C1450 C1451 1.397 . S
C1450 C1455 1.363 . S
C1451 H1422 0.950 . S
C1451 C1450 1.397 . S
C1451 C1452 1.334 . S
C1452 H1423 0.950 . S
C1452 C1451 1.334 . S
C1452 C1453 1.287 . S
C1453 C1452 1.287 . S
C1453 C1454 1.524 . S
C1453 H1456 0.999 . S
C1454 H1424 0.950 . S
C1454 C1453 1.524 . S
C1454 C1455 1.415 . S
C1455 H1425 0.950 . S
C1455 C1450 1.363 . S
C1455 C1454 1.415 . S
H1456 C1453 0.999 . S
H1457 C1438 0.913 . S
H1458 C1476 0.951 . S
H1459 C1478 0.951 . S
H1460 C1480 0.950 . S
H1461 C1481 0.950 . S
H1462 C1483 0.950 . S
H1463 C1486 0.950 . S
H1464 C1487 0.950 . S
H1465 C1489 0.950 . S
H1466 C1490 0.950 . S
H1467 C1491 0.951 . S
H1468 C1493 0.951 . S
H1469 C1495 0.950 . S
H1470 C1496 0.950 . S
H1471 C1498 0.950 . S
H1472 C1501 0.950 . S
H1473 C1502 0.950 . S
H1474 C1504 0.950 . S
H1475 C1505 0.950 . S
C1476 H1458 0.951 . S
C1476 C1477 1.366 . S
C1476 C1478 1.388 . S
C1477 C1476 1.366 . S
C1477 C1481 1.385 . S
C1478 H1459 0.951 . S
C1478 C1476 1.388 . S
C1478 C1479 1.366 . S
C1479 C1478 1.366 . S
C1479 C1480 1.414 . S
C1479 C1482 1.499 . S
C1480 H1460 0.950 . S
C1480 C1479 1.414 . S
C1480 C1481 1.374 . S
C1481 H1461 0.950 . S
C1481 C1477 1.385 . S
C1481 C1480 1.374 . S
C1482 C1479 1.499 . S
C1482 C1483 1.373 . S
C1482 C1484 1.389 . S
C1483 H1462 0.950 . S
C1483 C1482 1.373 . S
C1483 C1499 1.377 . S
C1484 C1482 1.389 . S
C1484 C1485 1.524 . S
C1484 C1498 1.377 . S
C1485 C1484 1.524 . S
C1485 C1486 1.397 . S
C1485 C1490 1.363 . S
C1486 H1463 0.950 . S
C1486 C1485 1.397 . S
C1486 C1487 1.334 . S
C1487 H1464 0.950 . S
C1487 C1486 1.334 . S
C1487 C1488 1.287 . S
C1488 C1487 1.287 . S
C1488 C1489 1.524 . S
C1488 H1507 0.913 . S
C1489 H1465 0.950 . S
C1489 C1488 1.524 . S
C1489 C1490 1.415 . S
C1490 H1466 0.950 . S
C1490 C1485 1.363 . S
C1490 C1489 1.415 . S
C1491 H1467 0.951 . S
C1491 C1492 1.366 . S
C1491 C1493 1.388 . S
C1492 C1491 1.366 . S
C1492 C1496 1.385 . S
C1493 H1468 0.951 . S
C1493 C1491 1.388 . S
C1493 C1494 1.366 . S
C1494 C1493 1.366 . S
C1494 C1495 1.414 . S
C1494 C1497 1.499 . S
C1495 H1469 0.950 . S
C1495 C1494 1.414 . S
C1495 C1496 1.374 . S
C1496 H1470 0.950 . S
C1496 C1492 1.385 . S
C1496 C1495 1.374 . S
C1497 C1494 1.499 . S
C1497 C1498 1.373 . S
C1497 C1499 1.389 . S
C1498 H1471 0.950 . S
C1498 C1484 1.377 . S
C1498 C1497 1.373 . S
C1499 C1483 1.377 . S
C1499 C1497 1.389 . S
C1499 C1500 1.524 . S
C1500 C1499 1.524 . S
C1500 C1501 1.397 . S
C1500 C1505 1.363 . S
C1501 H1472 0.950 . S
C1501 C1500 1.397 . S
C1501 C1502 1.334 . S
C1502 H1473 0.950 . S
C1502 C1501 1.334 . S
C1502 C1503 1.287 . S
C1503 C1502 1.287 . S
C1503 C1504 1.524 . S
C1503 H1506 0.999 . S
C1504 H1474 0.950 . S
C1504 C1503 1.524 . S
C1504 C1505 1.415 . S
C1505 H1475 0.950 . S
C1505 C1500 1.363 . S
C1505 C1504 1.415 . S
H1506 C1503 0.999 . S
H1507 C1488 0.913 . S
H1508 C1526 0.951 . S
H1509 C1528 0.951 . S
H1510 C1530 0.950 . S
H1511 C1531 0.950 . S
H1512 C1533 0.950 . S
H1513 C1536 0.950 . S
H1514 C1537 0.950 . S
H1515 C1539 0.950 . S
H1516 C1540 0.950 . S
H1517 C1541 0.951 . S
H1518 C1543 0.951 . S
H1519 C1545 0.950 . S
H1520 C1546 0.950 . S
H1521 C1548 0.950 . S
H1522 C1551 0.950 . S
H1523 C1552 0.950 . S
H1524 C1554 0.950 . S
H1525 C1555 0.950 . S
C1526 H1508 0.951 . S
C1526 C1527 1.366 . S
C1526 C1528 1.388 . S
C1527 C1526 1.366 . S
C1527 C1531 1.385 . S
C1528 H1509 0.951 . S
C1528 C1526 1.388 . S
C1528 C1529 1.366 . S
C1529 C1528 1.366 . S
C1529 C1530 1.414 . S
C1529 C1532 1.499 . S
C1530 H1510 0.950 . S
C1530 C1529 1.414 . S
C1530 C1531 1.374 . S
C1531 H1511 0.950 . S
C1531 C1527 1.385 . S
C1531 C1530 1.374 . S
C1532 C1529 1.499 . S
C1532 C1533 1.373 . S
C1532 C1534 1.389 . S
C1533 H1512 0.950 . S
C1533 C1532 1.373 . S
C1533 C1549 1.377 . S
C1534 C1532 1.389 . S
C1534 C1535 1.524 . S
C1534 C1548 1.377 . S
C1535 C1534 1.524 . S
C1535 C1536 1.397 . S
C1535 C1540 1.363 . S
C1536 H1513 0.950 . S
C1536 C1535 1.397 . S
C1536 C1537 1.334 . S
C1537 H1514 0.950 . S
C1537 C1536 1.334 . S
C1537 C1538 1.287 . S
C1538 C1537 1.287 . S
C1538 C1539 1.524 . S
C1538 H1557 0.913 . S
C1539 H1515 0.950 . S
C1539 C1538 1.524 . S
C1539 C1540 1.415 . S
C1540 H1516 0.950 . S
C1540 C1535 1.363 . S
C1540 C1539 1.415 . S
C1541 H1517 0.951 . S
C1541 C1542 1.366 . S
C1541 C1543 1.388 . S
C1542 C1541 1.366 . S
C1542 C1546 1.385 . S
C1543 H1518 0.951 . S
C1543 C1541 1.388 . S
C1543 C1544 1.366 . S
C1544 C1543 1.366 . S
C1544 C1545 1.414 . S
C1544 C1547 1.499 . S
C1545 H1519 0.950 . S
C1545 C1544 1.414 . S
C1545 C1546 1.374 . S
C1546 H1520 0.950 . S
C1546 C1542 1.385 . S
C1546 C1545 1.374 . S
C1547 C1544 1.499 . S
C1547 C1548 1.373 . S
C1547 C1549 1.389 . S
C1548 H1521 0.950 . S
C1548 C1534 1.377 . S
C1548 C1547 1.373 . S
C1549 C1533 1.377 . S
C1549 C1547 1.389 . S
C1549 C1550 1.524 . S
C1550 C1549 1.524 . S
C1550 C1551 1.397 . S
C1550 C1555 1.363 . S
C1551 H1522 0.950 . S
C1551 C1550 1.397 . S
C1551 C1552 1.334 . S
C1552 H1523 0.950 . S
C1552 C1551 1.334 . S
C1552 C1553 1.287 . S
C1553 C1552 1.287 . S
C1553 C1554 1.524 . S
C1553 H1556 0.999 . S
C1554 H1524 0.950 . S
C1554 C1553 1.524 . S
C1554 C1555 1.415 . S
C1555 H1525 0.950 . S
C1555 C1550 1.363 . S
C1555 C1554 1.415 . S
H1556 C1553 0.999 . S
H1557 C1538 0.913 . S
H1558 C1576 0.951 . S
H1559 C1578 0.951 . S
H1560 C1580 0.950 . S
H1561 C1581 0.950 . S
H1562 C1583 0.950 . S
H1563 C1586 0.950 . S
H1564 C1587 0.950 . S
H1565 C1589 0.950 . S
H1566 C1590 0.950 . S
H1567 C1591 0.951 . S
H1568 C1593 0.951 . S
H1569 C1595 0.950 . S
H1570 C1596 0.950 . S
H1571 C1598 0.950 . S
H1572 C1601 0.950 . S
H1573 C1602 0.950 . S
H1574 C1604 0.950 . S
H1575 C1605 0.950 . S
C1576 H1558 0.951 . S
C1576 C1577 1.366 . S
C1576 C1578 1.388 . S
C1577 C1576 1.366 . S
C1577 C1581 1.385 . S
C1578 H1559 0.951 . S
C1578 C1576 1.388 . S
C1578 C1579 1.366 . S
C1579 C1578 1.366 . S
C1579 C1580 1.414 . S
C1579 C1582 1.499 . S
C1580 H1560 0.950 . S
C1580 C1579 1.414 . S
C1580 C1581 1.374 . S
C1581 H1561 0.950 . S
C1581 C1577 1.385 . S
C1581 C1580 1.374 . S
C1582 C1579 1.499 . S
C1582 C1583 1.373 . S
C1582 C1584 1.389 . S
C1583 H1562 0.950 . S
C1583 C1582 1.373 . S
C1583 C1599 1.377 . S
C1584 C1582 1.389 . S
C1584 C1585 1.524 . S
C1584 C1598 1.377 . S
C1585 C1584 1.524 . S
C1585 C1586 1.397 . S
C1585 C1590 1.363 . S
C1586 H1563 0.950 . S
C1586 C1585 1.397 . S
C1586 C1587 1.334 . S
C1587 H1564 0.950 . S
C1587 C1586 1.334 . S
C1587 C1588 1.287 . S
C1588 C1587 1.287 . S
C1588 C1589 1.524 . S
C1588 H1607 0.913 . S
C1589 H1565 0.950 . S
C1589 C1588 1.524 . S
C1589 C1590 1.415 . S
C1590 H1566 0.950 . S
C1590 C1585 1.363 . S
C1590 C1589 1.415 . S
C1591 H1567 0.951 . S
C1591 C1592 1.366 . S
C1591 C1593 1.388 . S
C1592 C1591 1.366 . S
C1592 C1596 1.385 . S
C1593 H1568 0.951 . S
C1593 C1591 1.388 . S
C1593 C1594 1.366 . S
C1594 C1593 1.366 . S
C1594 C1595 1.414 . S
C1594 C1597 1.499 . S
C1595 H1569 0.950 . S
C1595 C1594 1.414 . S
C1595 C1596 1.374 . S
C1596 H1570 0.950 . S
C1596 C1592 1.385 . S
C1596 C1595 1.374 . S
C1597 C1594 1.499 . S
C1597 C1598 1.373 . S
C1597 C1599 1.389 . S
C1598 H1571 0.950 . S
C1598 C1584 1.377 . S
C1598 C1597 1.373 . S
C1599 C1583 1.377 . S
C1599 C1597 1.389 . S
C1599 C1600 1.524 . S
C1600 C1599 1.524 . S
C1600 C1601 1.397 . S
C1600 C1605 1.363 . S
C1601 H1572 0.950 . S
C1601 C1600 1.397 . S
C1601 C1602 1.334 . S
C1602 H1573 0.950 . S
C1602 C1601 1.334 . S
C1602 C1603 1.287 . S
C1603 C1602 1.287 . S
C1603 C1604 1.524 . S
C1603 H1606 0.999 . S
C1604 H1574 0.950 . S
C1604 C1603 1.524 . S
C1604 C1605 1.415 . S
C1605 H1575 0.950 . S
C1605 C1600 1.363 . S
C1605 C1604 1.415 . S
H1606 C1603 0.999 . S
H1607 C1588 0.913 . S
H1608 C1626 0.951 . S
H1609 C1628 0.951 . S
H1610 C1630 0.950 . S
H1611 C1631 0.950 . S
H1612 C1633 0.950 . S
H1613 C1636 0.950 . S
H1614 C1637 0.950 . S
H1615 C1639 0.950 . S
H1616 C1640 0.950 . S
H1617 C1641 0.951 . S
H1618 C1643 0.951 . S
H1619 C1645 0.950 . S
H1620 C1646 0.950 . S
H1621 C1648 0.950 . S
H1622 C1651 0.950 . S
H1623 C1652 0.950 . S
H1624 C1654 0.950 . S
H1625 C1655 0.950 . S
C1626 H1608 0.951 . S
C1626 C1627 1.366 . S
C1626 C1628 1.388 . S
C1627 C1626 1.366 . S
C1627 C1631 1.385 . S
C1628 H1609 0.951 . S
C1628 C1626 1.388 . S
C1628 C1629 1.366 . S
C1629 C1628 1.366 . S
C1629 C1630 1.414 . S
C1629 C1632 1.499 . S
C1630 H1610 0.950 . S
C1630 C1629 1.414 . S
C1630 C1631 1.374 . S
C1631 H1611 0.950 . S
C1631 C1627 1.385 . S
C1631 C1630 1.374 . S
C1632 C1629 1.499 . S
C1632 C1633 1.373 . S
C1632 C1634 1.389 . S
C1633 H1612 0.950 . S
C1633 C1632 1.373 . S
C1633 C1649 1.377 . S
C1634 C1632 1.389 . S
C1634 C1635 1.524 . S
C1634 C1648 1.377 . S
C1635 C1634 1.524 . S
C1635 C1636 1.397 . S
C1635 C1640 1.363 . S
C1636 H1613 0.950 . S
C1636 C1635 1.397 . S
C1636 C1637 1.334 . S
C1637 H1614 0.950 . S
C1637 C1636 1.334 . S
C1637 C1638 1.287 . S
C1638 C1637 1.287 . S
C1638 C1639 1.524 . S
C1638 H1657 0.913 . S
C1639 H1615 0.950 . S
C1639 C1638 1.524 . S
C1639 C1640 1.415 . S
C1640 H1616 0.950 . S
C1640 C1635 1.363 . S
C1640 C1639 1.415 . S
C1641 H1617 0.951 . S
C1641 C1642 1.366 . S
C1641 C1643 1.388 . S
C1642 C1641 1.366 . S
C1642 C1646 1.385 . S
C1643 H1618 0.951 . S
C1643 C1641 1.388 . S
C1643 C1644 1.366 . S
C1644 C1643 1.366 . S
C1644 C1645 1.414 . S
C1644 C1647 1.499 . S
C1645 H1619 0.950 . S
C1645 C1644 1.414 . S
C1645 C1646 1.374 . S
C1646 H1620 0.950 . S
C1646 C1642 1.385 . S
C1646 C1645 1.374 . S
C1647 C1644 1.499 . S
C1647 C1648 1.373 . S
C1647 C1649 1.389 . S
C1648 H1621 0.950 . S
C1648 C1634 1.377 . S
C1648 C1647 1.373 . S
C1649 C1633 1.377 . S
C1649 C1647 1.389 . S
C1649 C1650 1.524 . S
C1650 C1649 1.524 . S
C1650 C1651 1.397 . S
C1650 C1655 1.363 . S
C1651 H1622 0.950 . S
C1651 C1650 1.397 . S
C1651 C1652 1.334 . S
C1652 H1623 0.950 . S
C1652 C1651 1.334 . S
C1652 C1653 1.287 . S
C1653 C1652 1.287 . S
C1653 C1654 1.524 . S
C1653 H1656 0.999 . S
C1654 H1624 0.950 . S
C1654 C1653 1.524 . S
C1654 C1655 1.415 . S
C1655 H1625 0.950 . S
C1655 C1650 1.363 . S
C1655 C1654 1.415 . S
H1656 C1653 0.999 . S
H1657 C1638 0.913 . S
H1658 C1676 0.951 . S
H1659 C1678 0.951 . S
H1660 C1680 0.950 . S
H1661 C1681 0.950 . S
H1662 C1683 0.950 . S
H1663 C1686 0.950 . S
H1664 C1687 0.950 . S
H1665 C1689 0.950 . S
H1666 C1690 0.950 . S
H1667 C1691 0.951 . S
H1668 C1693 0.951 . S
H1669 C1695 0.950 . S
H1670 C1696 0.950 . S
H1671 C1698 0.950 . S
H1672 C1701 0.950 . S
H1673 C1702 0.950 . S
H1674 C1704 0.950 . S
H1675 C1705 0.950 . S
C1676 H1658 0.951 . S
C1676 C1677 1.366 . S
C1676 C1678 1.388 . S
C1677 C1676 1.366 . S
C1677 C1681 1.385 . S
C1678 H1659 0.951 . S
C1678 C1676 1.388 . S
C1678 C1679 1.366 . S
C1679 C1678 1.366 . S
C1679 C1680 1.414 . S
C1679 C1682 1.499 . S
C1680 H1660 0.950 . S
C1680 C1679 1.414 . S
C1680 C1681 1.374 . S
C1681 H1661 0.950 . S
C1681 C1677 1.385 . S
C1681 C1680 1.374 . S
C1682 C1679 1.499 . S
C1682 C1683 1.373 . S
C1682 C1684 1.389 . S
C1683 H1662 0.950 . S
C1683 C1682 1.373 . S
C1683 C1699 1.377 . S
C1684 C1682 1.389 . S
C1684 C1685 1.524 . S
C1684 C1698 1.377 . S
C1685 C1684 1.524 . S
C1685 C1686 1.397 . S
C1685 C1690 1.363 . S
C1686 H1663 0.950 . S
C1686 C1685 1.397 . S
C1686 C1687 1.334 . S
C1687 H1664 0.950 . S
C1687 C1686 1.334 . S
C1687 C1688 1.287 . S
C1688 C1687 1.287 . S
C1688 C1689 1.524 . S
C1688 H1707 0.913 . S
C1689 H1665 0.950 . S
C1689 C1688 1.524 . S
C1689 C1690 1.415 . S
C1690 H1666 0.950 . S
C1690 C1685 1.363 . S
C1690 C1689 1.415 . S
C1691 H1667 0.951 . S
C1691 C1692 1.366 . S
C1691 C1693 1.388 . S
C1692 C1691 1.366 . S
C1692 C1696 1.385 . S
C1693 H1668 0.951 . S
C1693 C1691 1.388 . S
C1693 C1694 1.366 . S
C1694 C1693 1.366 . S
C1694 C1695 1.414 . S
C1694 C1697 1.499 . S
C1695 H1669 0.950 . S
C1695 C1694 1.414 . S
C1695 C1696 1.374 . S
C1696 H1670 0.950 . S
C1696 C1692 1.385 . S
C1696 C1695 1.374 . S
C1697 C1694 1.499 . S
C1697 C1698 1.373 . S
C1697 C1699 1.389 . S
C1698 H1671 0.950 . S
C1698 C1684 1.377 . S
C1698 C1697 1.373 . S
C1699 C1683 1.377 . S
C1699 C1697 1.389 . S
C1699 C1700 1.524 . S
C1700 C1699 1.524 . S
C1700 C1701 1.397 . S
C1700 C1705 1.363 . S
C1701 H1672 0.950 . S
C1701 C1700 1.397 . S
C1701 C1702 1.334 . S
C1702 H1673 0.950 . S
C1702 C1701 1.334 . S
C1702 C1703 1.287 . S
C1703 C1702 1.287 . S
C1703 C1704 1.524 . S
C1703 H1706 0.999 . S
C1704 H1674 0.950 . S
C1704 C1703 1.524 . S
C1704 C1705 1.415 . S
C1705 H1675 0.950 . S
C1705 C1700 1.363 . S
C1705 C1704 1.415 . S
H1706 C1703 0.999 . S
H1707 C1688 0.913 . S
H1708 C1726 0.951 . S
H1709 C1728 0.951 . S
H1710 C1730 0.950 . S
H1711 C1731 0.950 . S
H1712 C1733 0.950 . S
H1713 C1736 0.950 . S
H1714 C1737 0.950 . S
H1715 C1739 0.950 . S
H1716 C1740 0.950 . S
H1717 C1741 0.951 . S
H1718 C1743 0.951 . S
H1719 C1745 0.950 . S
H1720 C1746 0.950 . S
H1721 C1748 0.950 . S
H1722 C1751 0.950 . S
H1723 C1752 0.950 . S
H1724 C1754 0.950 . S
H1725 C1755 0.950 . S
C1726 H1708 0.951 . S
C1726 C1727 1.366 . S
C1726 C1728 1.388 . S
C1727 C1726 1.366 . S
C1727 C1731 1.385 . S
C1728 H1709 0.951 . S
C1728 C1726 1.388 . S
C1728 C1729 1.366 . S
C1729 C1728 1.366 . S
C1729 C1730 1.414 . S
C1729 C1732 1.499 . S
C1730 H1710 0.950 . S
C1730 C1729 1.414 . S
C1730 C1731 1.374 . S
C1731 H1711 0.950 . S
C1731 C1727 1.385 . S
C1731 C1730 1.374 . S
C1732 C1729 1.499 . S
C1732 C1733 1.373 . S
C1732 C1734 1.389 . S
C1733 H1712 0.950 . S
C1733 C1732 1.373 . S
C1733 C1749 1.377 . S
C1734 C1732 1.389 . S
C1734 C1735 1.524 . S
C1734 C1748 1.377 . S
C1735 C1734 1.524 . S
C1735 C1736 1.397 . S
C1735 C1740 1.363 . S
C1736 H1713 0.950 . S
C1736 C1735 1.397 . S
C1736 C1737 1.334 . S
C1737 H1714 0.950 . S
C1737 C1736 1.334 . S
C1737 C1738 1.287 . S
C1738 C1737 1.287 . S
C1738 C1739 1.524 . S
C1738 H1757 0.913 . S
C1739 H1715 0.950 . S
C1739 C1738 1.524 . S
C1739 C1740 1.415 . S
C1740 H1716 0.950 . S
C1740 C1735 1.363 . S
C1740 C1739 1.415 . S
C1741 H1717 0.951 . S
C1741 C1742 1.366 . S
C1741 C1743 1.388 . S
C1742 C1741 1.366 . S
C1742 C1746 1.385 . S
C1743 H1718 0.951 . S
C1743 C1741 1.388 . S
C1743 C1744 1.366 . S
C1744 C1743 1.366 . S
C1744 C1745 1.414 . S
C1744 C1747 1.499 . S
C1745 H1719 0.950 . S
C1745 C1744 1.414 . S
C1745 C1746 1.374 . S
C1746 H1720 0.950 . S
C1746 C1742 1.385 . S
C1746 C1745 1.374 . S
C1747 C1744 1.499 . S
C1747 C1748 1.373 . S
C1747 C1749 1.389 . S
C1748 H1721 0.950 . S
C1748 C1734 1.377 . S
C1748 C1747 1.373 . S
C1749 C1733 1.377 . S
C1749 C1747 1.389 . S
C1749 C1750 1.524 . S
C1750 C1749 1.524 . S
C1750 C1751 1.397 . S
C1750 C1755 1.363 . S
C1751 H1722 0.950 . S
C1751 C1750 1.397 . S
C1751 C1752 1.334 . S
C1752 H1723 0.950 . S
C1752 C1751 1.334 . S
C1752 C1753 1.287 . S
C1753 C1752 1.287 . S
C1753 C1754 1.524 . S
C1753 H1756 0.999 . S
C1754 H1724 0.950 . S
C1754 C1753 1.524 . S
C1754 C1755 1.415 . S
C1755 H1725 0.950 . S
C1755 C1750 1.363 . S
C1755 C1754 1.415 . S
H1756 C1753 0.999 . S
H1757 C1738 0.913 . S
H1758 C1776 0.951 . S
H1759 C1778 0.951 . S
H1760 C1780 0.950 . S
H1761 C1781 0.950 . S
H1762 C1783 0.950 . S
H1763 C1786 0.950 . S
H1764 C1787 0.950 . S
H1765 C1789 0.950 . S
H1766 C1790 0.950 . S
H1767 C1791 0.951 . S
H1768 C1793 0.951 . S
H1769 C1795 0.950 . S
H1770 C1796 0.950 . S
H1771 C1798 0.950 . S
H1772 C1801 0.950 . S
H1773 C1802 0.950 . S
H1774 C1804 0.950 . S
H1775 C1805 0.950 . S
C1776 H1758 0.951 . S
C1776 C1777 1.366 . S
C1776 C1778 1.388 . S
C1777 C1776 1.366 . S
C1777 C1781 1.385 . S
C1778 H1759 0.951 . S
C1778 C1776 1.388 . S
C1778 C1779 1.366 . S
C1779 C1778 1.366 . S
C1779 C1780 1.414 . S
C1779 C1782 1.499 . S
C1780 H1760 0.950 . S
C1780 C1779 1.414 . S
C1780 C1781 1.374 . S
C1781 H1761 0.950 . S
C1781 C1777 1.385 . S
C1781 C1780 1.374 . S
C1782 C1779 1.499 . S
C1782 C1783 1.373 . S
C1782 C1784 1.389 . S
C1783 H1762 0.950 . S
C1783 C1782 1.373 . S
C1783 C1799 1.377 . S
C1784 C1782 1.389 . S
C1784 C1785 1.524 . S
C1784 C1798 1.377 . S
C1785 C1784 1.524 . S
C1785 C1786 1.397 . S
C1785 C1790 1.363 . S
C1786 H1763 0.950 . S
C1786 C1785 1.397 . S
C1786 C1787 1.334 . S
C1787 H1764 0.950 . S
C1787 C1786 1.334 . S
C1787 C1788 1.287 . S
C1788 C1787 1.287 . S
C1788 C1789 1.524 . S
C1788 H1807 0.913 . S
C1789 H1765 0.950 . S
C1789 C1788 1.524 . S
C1789 C1790 1.415 . S
C1790 H1766 0.950 . S
C1790 C1785 1.363 . S
C1790 C1789 1.415 . S
C1791 H1767 0.951 . S
C1791 C1792 1.366 . S
C1791 C1793 1.388 . S
C1792 C1791 1.366 . S
C1792 C1796 1.385 . S
C1793 H1768 0.951 . S
C1793 C1791 1.388 . S
C1793 C1794 1.366 . S
C1794 C1793 1.366 . S
C1794 C1795 1.414 . S
C1794 C1797 1.499 . S
C1795 H1769 0.950 . S
C1795 C1794 1.414 . S
C1795 C1796 1.374 . S
C1796 H1770 0.950 . S
C1796 C1792 1.385 . S
C1796 C1795 1.374 . S
C1797 C1794 1.499 . S
C1797 C1798 1.373 . S
C1797 C1799 1.389 . S
C1798 H1771 0.950 . S
C1798 C1784 1.377 . S
C1798 C1797 1.373 . S
C1799 C1783 1.377 . S
C1799 C1797 1.389 . S
C1799 C1800 1.524 . S
C1800 C1799 1.524 . S
C1800 C1801 1.397 . S
C1800 C1805 1.363 . S
C1801 H1772 0.950 . S
C1801 C1800 1.397 . S
C1801 C1802 1.334 . S
C1802 H1773 0.950 . S
C1802 C1801 1.334 . S
C1802 C1803 1.287 . S
C1803 C1802 1.287 . S
C1803 C1804 1.524 . S
C1803 H1806 0.999 . S
C1804 H1774 0.950 . S
C1804 C1803 1.524 . S
C1804 C1805 1.415 . S
C1805 H1775 0.950 . S
C1805 C1800 1.363 . S
C1805 C1804 1.415 . S
H1806 C1803 0.999 . S
H1807 C1788 0.913 . S
H1808 C1826 0.951 . S
H1809 C1828 0.951 . S
H1810 C1830 0.950 . S
H1811 C1831 0.950 . S
H1812 C1833 0.950 . S
H1813 C1836 0.950 . S
H1814 C1837 0.950 . S
H1815 C1839 0.950 . S
H1816 C1840 0.950 . S
H1817 C1841 0.951 . S
H1818 C1843 0.951 . S
H1819 C1845 0.950 . S
H1820 C1846 0.950 . S
H1821 C1848 0.950 . S
H1822 C1851 0.950 . S
H1823 C1852 0.950 . S
H1824 C1854 0.950 . S
H1825 C1855 0.950 . S
C1826 H1808 0.951 . S
C1826 C1827 1.366 . S
C1826 C1828 1.388 . S
C1827 C1826 1.366 . S
C1827 C1831 1.385 . S
C1828 H1809 0.951 . S
C1828 C1826 1.388 . S
C1828 C1829 1.366 . S
C1829 C1828 1.366 . S
C1829 C1830 1.414 . S
C1829 C1832 1.499 . S
C1830 H1810 0.950 . S
C1830 C1829 1.414 . S
C1830 C1831 1.374 . S
C1831 H1811 0.950 . S
C1831 C1827 1.385 . S
C1831 C1830 1.374 . S
C1832 C1829 1.499 . S
C1832 C1833 1.373 . S
C1832 C1834 1.389 . S
C1833 H1812 0.950 . S
C1833 C1832 1.373 . S
C1833 C1849 1.377 . S
C1834 C1832 1.389 . S
C1834 C1835 1.524 . S
C1834 C1848 1.377 . S
C1835 C1834 1.524 . S
C1835 C1836 1.397 . S
C1835 C1840 1.363 . S
C1836 H1813 0.950 . S
C1836 C1835 1.397 . S
C1836 C1837 1.334 . S
C1837 H1814 0.950 . S
C1837 C1836 1.334 . S
C1837 C1838 1.287 . S
C1838 C1837 1.287 . S
C1838 C1839 1.524 . S
C1838 H1857 0.913 . S
C1839 H1815 0.950 . S
C1839 C1838 1.524 . S
C1839 C1840 1.415 . S
C1840 H1816 0.950 . S
C1840 C1835 1.363 . S
C1840 C1839 1.415 . S
C1841 H1817 0.951 . S
C1841 C1842 1.366 . S
C1841 C1843 1.388 . S
C1842 C1841 1.366 . S
C1842 C1846 1.385 . S
C1843 H1818 0.951 . S
C1843 C1841 1.388 . S
C1843 C1844 1.366 . S
C1844 C1843 1.366 . S
C1844 C1845 1.414 . S
C1844 C1847 1.499 . S
C1845 H1819 0.950 . S
C1845 C1844 1.414 . S
C1845 C1846 1.374 . S
C1846 H1820 0.950 . S
C1846 C1842 1.385 . S
C1846 C1845 1.374 . S
C1847 C1844 1.499 . S
C1847 C1848 1.373 . S
C1847 C1849 1.389 . S
C1848 H1821 0.950 . S
C1848 C1834 1.377 . S
C1848 C1847 1.373 . S
C1849 C1833 1.377 . S
C1849 C1847 1.389 . S
C1849 C1850 1.524 . S
C1850 C1849 1.524 . S
C1850 C1851 1.397 . S
C1850 C1855 1.363 . S
C1851 H1822 0.950 . S
C1851 C1850 1.397 . S
C1851 C1852 1.334 . S
C1852 H1823 0.950 . S
C1852 C1851 1.334 . S
C1852 C1853 1.287 . S
C1853 C1852 1.287 . S
C1853 C1854 1.524 . S
C1853 H1856 0.999 . S
C1854 H1824 0.950 . S
C1854 C1853 1.524 . S
C1854 C1855 1.415 . S
C1855 H1825 0.950 . S
C1855 C1850 1.363 . S
C1855 C1854 1.415 . S
H1856 C1853 0.999 . S
H1857 C1838 0.913 . S
H1858 C1876 0.951 . S
H1859 C1878 0.951 . S
H1860 C1880 0.950 . S
H1861 C1881 0.950 . S
H1862 C1883 0.950 . S
H1863 C1886 0.950 . S
H1864 C1887 0.950 . S
H1865 C1889 0.950 . S
H1866 C1890 0.950 . S
H1867 C1891 0.951 . S
H1868 C1893 0.951 . S
H1869 C1895 0.950 . S
H1870 C1896 0.950 . S
H1871 C1898 0.950 . S
H1872 C1901 0.950 . S
H1873 C1902 0.950 . S
H1874 C1904 0.950 . S
H1875 C1905 0.950 . S
C1876 H1858 0.951 . S
C1876 C1877 1.366 . S
C1876 C1878 1.388 . S
C1877 C1876 1.366 . S
C1877 C1881 1.385 . S
C1878 H1859 0.951 . S
C1878 C1876 1.388 . S
C1878 C1879 1.366 . S
C1879 C1878 1.366 . S
C1879 C1880 1.414 . S
C1879 C1882 1.499 . S
C1880 H1860 0.950 . S
C1880 C1879 1.414 . S
C1880 C1881 1.374 . S
C1881 H1861 0.950 . S
C1881 C1877 1.385 . S
C1881 C1880 1.374 . S
C1882 C1879 1.499 . S
C1882 C1883 1.373 . S
C1882 C1884 1.389 . S
C1883 H1862 0.950 . S
C1883 C1882 1.373 . S
C1883 C1899 1.377 . S
C1884 C1882 1.389 . S
C1884 C1885 1.524 . S
C1884 C1898 1.377 . S
C1885 C1884 1.524 . S
C1885 C1886 1.397 . S
C1885 C1890 1.363 . S
C1886 H1863 0.950 . S
C1886 C1885 1.397 . S
C1886 C1887 1.334 . S
C1887 H1864 0.950 . S
C1887 C1886 1.334 . S
C1887 C1888 1.287 . S
C1888 C1887 1.287 . S
C1888 C1889 1.524 . S
C1888 H1907 0.913 . S
C1889 H1865 0.950 . S
C1889 C1888 1.524 . S
C1889 C1890 1.415 . S
C1890 H1866 0.950 . S
C1890 C1885 1.363 . S
C1890 C1889 1.415 . S
C1891 H1867 0.951 . S
C1891 C1892 1.366 . S
C1891 C1893 1.388 . S
C1892 C1891 1.366 . S
C1892 C1896 1.385 . S
C1893 H1868 0.951 . S
C1893 C1891 1.388 . S
C1893 C1894 1.366 . S
C1894 C1893 1.366 . S
C1894 C1895 1.414 . S
C1894 C1897 1.499 . S
C1895 H1869 0.950 . S
C1895 C1894 1.414 . S
C1895 C1896 1.374 . S
C1896 H1870 0.950 . S
C1896 C1892 1.385 . S
C1896 C1895 1.374 . S
C1897 C1894 1.499 . S
C1897 C1898 1.373 . S
C1897 C1899 1.389 . S
C1898 H1871 0.950 . S
C1898 C1884 1.377 . S
C1898 C1897 1.373 . S
C1899 C1883 1.377 . S
C1899 C1897 1.389 . S
C1899 C1900 1.524 . S
C1900 C1899 1.524 . S
C1900 C1901 1.397 . S
C1900 C1905 1.363 . S
C1901 H1872 0.950 . S
C1901 C1900 1.397 . S
C1901 C1902 1.334 . S
C1902 H1873 0.950 . S
C1902 C1901 1.334 . S
C1902 C1903 1.287 . S
C1903 C1902 1.287 . S
C1903 C1904 1.524 . S
C1903 H1906 0.999 . S
C1904 H1874 0.950 . S
C1904 C1903 1.524 . S
C1904 C1905 1.415 . S
C1905 H1875 0.950 . S
C1905 C1900 1.363 . S
C1905 C1904 1.415 . S
H1906 C1903 0.999 . S
H1907 C1888 0.913 . S
C427 C315 1.669 . S
C442 C9 1.670 . S
C477 C43 1.669 . S
C492 C349 1.669 . S
C527 C383 1.668 . S
C542 C77 1.670 . S
C577 C111 1.670 . S
C592 C213 1.669 . S
C627 C145 1.669 . S
C642 C247 1.669 . S
C677 C281 1.669 . S
C692 C179 1.669 . S
C727 C342 1.322 . S
C742 C2 1.322 . S
C777 C376 1.323 . S
C792 C36 1.322 . S
C827 C70 1.322 . S
C842 C206 1.322 . S
C877 C240 1.323 . S
C892 C104 1.322 . S
C927 C274 1.322 . S
C942 C138 1.322 . S
C977 C172 1.322 . S
C992 C308 1.323 . S
C1027 C258 1.477 . S
C1042 C122 1.477 . S
C1077 C292 1.477 . S
C1092 C156 1.477 . S
C1127 C190 1.477 . S
C1142 C326 1.477 . S
C1177 C20 1.477 . S
C1192 C360 1.477 . S
C1227 C54 1.477 . S
C1242 C394 1.477 . S
C1277 C224 1.477 . S
C1292 C88 1.477 . S
C1327 C5 1.337 . S
C1342 C169 1.347 . S
C1377 C39 1.337 . S
C1392 C203 1.346 . S
C1427 C73 1.338 . S
C1442 C33 1.347 . S
C1477 C67 1.347 . S
C1492 C107 1.337 . S
C1527 C141 1.337 . S
C1542 C101 1.346 . S
C1577 C135 1.347 . S
C1592 C175 1.338 . S
C1627 C305 1.347 . S
C1642 C209 1.338 . S
C1677 C339 1.347 . S
C1692 C243 1.338 . S
C1727 C373 1.347 . S
C1742 C277 1.337 . S
C1777 C311 1.338 . S
C1792 C407 1.347 . S
C1827 C237 1.346 . S
C1842 C345 1.337 . S
C1877 C379 1.337 . S
C1892 C271 1.347 . S
