# Generated by pormake.
# Topology irl, (4)-cn, num edge types: 1
# Building blocks:
#     Node 0, Type 0, BuildingBlock: ICAMEG_clean_sbu_1, # of connection points: 4
#     Node 1, Type 0, BuildingBlock: ICAMEG_clean_sbu_1, # of connection points: 4
#     Node 2, Type 0, BuildingBlock: ICAMEG_clean_sbu_1, # of connection points: 4
#     Node 3, Type 0, BuildingBlock: ICAMEG_clean_sbu_1, # of connection points: 4
#     Node 4, Type 0, BuildingBlock: ICAMEG_clean_sbu_1, # of connection points: 4
#     Node 5, Type 0, BuildingBlock: ICAMEG_clean_sbu_1, # of connection points: 4
#     Node 6, Type 0, BuildingBlock: ICAMEG_clean_sbu_1, # of connection points: 4
#     Node 7, Type 0, BuildingBlock: ICAMEG_clean_sbu_1, # of connection points: 4
#     Edge 8, Type (0, 0), None
#     Edge 9, Type (0, 0), None
#     Edge 10, Type (0, 0), None
#     Edge 11, Type (0, 0), None
#     Edge 12, Type (0, 0), None
#     Edge 13, Type (0, 0), None
#     Edge 14, Type (0, 0), None
#     Edge 15, Type (0, 0), None
#     Edge 16, Type (0, 0), None
#     Edge 17, Type (0, 0), None
#     Edge 18, Type (0, 0), None
#     Edge 19, Type (0, 0), None
#     Edge 20, Type (0, 0), None
#     Edge 21, Type (0, 0), None
#     Edge 22, Type (0, 0), None
#     Edge 23, Type (0, 0), None
# Relax obj value: 0.026
# Max RMSD: 0.069
# Mean RMSD: 0.069
data_MOF--net-irl--node1-ICAMEG_clean_sbu_1--edge1-none
_symmetry_space_group_name_H-M    P1
_symmetry_Int_Tables_number       1
_symmetry_cell_setting            triclinic
loop_
_symmetry_equiv_pos_as_xyz
'x, y, z'
_cell_length_a     17.183526
_cell_length_b     23.363888
_cell_length_c     14.492121
_cell_angle_alpha  89.999643
_cell_angle_beta   90.000002
_cell_angle_gamma 89.999951
loop_
_atom_site_label
_atom_site_type_symbol
_atom_site_fract_x
_atom_site_fract_y
_atom_site_fract_z
_atom_type_partial_charge
Co0 Co 0.96648 0.15175 0.9976 0.0
Co1 Co 0.14854 0.11983 0.07673 0.0
O2 O 0.07715 0.15643 0.9969 0.0
C3 C 0.00886 0.11859 0.80454 0.0
O4 O 0.05352 0.07888 0.84043 0.0
C5 C 0.22947 0.22085 0.16003 0.0
O6 O 0.21293 0.19756 0.24009 0.0
O7 O 0.08681 0.1417 0.18826 0.0
O8 O 0.96262 0.14969 0.13959 0.0
H9 H 0.25218 0.02757 0.36345 0.0
H10 H 0.047 0.2439 0.891 0.0
O11 O 0.97034 0.15223 0.85702 0.0
H12 H 0.89931 0.34114 0.13642 0.0
H13 H 0.72259 0.20313 0.83645 0.0
H14 H 0.83917 0.07916 0.07253 0.0
H15 H 0.88563 0.23776 0.11278 0.0
H16 H 0.85721 0.21709 0.88675 0.0
O17 O 0.20758 0.19609 0.0854 0.0
H18 H 0.14858 0.05591 0.2557 0.0
H19 H 0.32081 0.11794 0.07043 0.0
H20 H 0.69955 0.06405 0.02267 0.0
H21 H 0.05944 0.34856 0.90961 0.0
H22 H 0.64415 0.12509 0.90263 0.0
H23 H 0.98731 0.39774 0.03507 0.0
O24 O 0.96854 0.06547 1.00008 0.0
H25 H 0.31666 0.16105 0.8026 0.0
H26 H 0.203 0.00979 0.99586 0.0
H27 H 0.28978 0.98344 0.86689 0.0
H28 H 0.35011 0.05969 0.77196 0.0
H29 H 0.22091 0.18501 0.9219 0.0
H30 H 0.42399 0.0935 0.1797 0.0
H31 H 0.38969 0.05031 0.33053 0.0
O32 O 0.08382 0.04364 0.06863 0.0
C33 C 0.01445 0.14816 0.2044 0.0
C34 C 0.2668 0.0515 0.30262 0.0
C35 C 0.36382 0.08492 0.19681 0.0
N36 N 0.22798 0.08698 0.15525 0.0
C37 C 0.20865 0.06486 0.23891 0.0
C38 C 0.30466 0.0972 0.13408 0.0
C39 C 0.34452 0.06195 0.28196 0.0
C40 C 0.01348 0.26532 0.94382 0.0
N41 N 0.96601 0.23471 1.00122 0.0
C42 C 0.02158 0.32445 0.95475 0.0
C43 C 0.98123 0.35202 0.02534 0.0
C44 C 0.93175 0.32053 0.08213 0.0
C45 C 0.92414 0.26179 0.06834 0.0
C46 C 0.74614 0.17706 0.89095 0.0
C47 C 0.81141 0.10796 0.0249 0.0
C48 C 0.82218 0.18524 0.92101 0.0
N49 N 0.85442 0.15038 0.9863 0.0
C50 C 0.7341 0.09901 0.99668 0.0
C51 C 0.70212 0.13332 0.92837 0.0
C52 C 0.01519 0.02916 0.03698 0.0
C53 C 0.28916 0.12735 0.84156 0.0
C54 C 0.22523 0.04276 0.95121 0.0
C55 C 0.27523 0.0277 0.87918 0.0
C56 C 0.30862 0.07047 0.82534 0.0
N57 N 0.20755 0.09878 0.96761 0.0
C58 C 0.23624 0.14069 0.91121 0.0
Co59 Co 0.0378 0.84411 0.9976 0.0
Co60 Co 0.85574 0.87603 0.07673 0.0
O61 O 0.92713 0.83942 0.9969 0.0
C62 C 0.99542 0.87726 0.80454 0.0
O63 O 0.95076 0.91697 0.84042 0.0
C64 C 0.77481 0.775 0.16003 0.0
O65 O 0.79134 0.7983 0.24009 0.0
O66 O 0.91746 0.85416 0.18826 0.0
O67 O 0.04166 0.84617 0.13959 0.0
H68 H 0.75209 0.96828 0.36345 0.0
H69 H 0.95728 0.75196 0.891 0.0
O70 O 0.03394 0.84363 0.85702 0.0
H71 H 0.10497 0.65471 0.13642 0.0
H72 H 0.28168 0.79273 0.83645 0.0
H73 H 0.1651 0.91669 0.07253 0.0
H74 H 0.11864 0.75809 0.11278 0.0
H75 H 0.14706 0.77876 0.88675 0.0
O76 O 0.79669 0.79976 0.0854 0.0
H77 H 0.8557 0.93994 0.25569 0.0
H78 H 0.68346 0.87792 0.07042 0.0
H79 H 0.30472 0.9318 0.02267 0.0
H80 H 0.94484 0.6473 0.90961 0.0
H81 H 0.36013 0.87076 0.90263 0.0
H82 H 0.01696 0.59812 0.03507 0.0
O83 O 0.03574 0.93038 1.00008 0.0
H84 H 0.68761 0.83481 0.8026 0.0
H85 H 0.80128 0.98606 0.99586 0.0
H86 H 0.7145 0.01241 0.86689 0.0
H87 H 0.65416 0.93617 0.77196 0.0
H88 H 0.78337 0.81085 0.9219 0.0
H89 H 0.58029 0.90235 0.1797 0.0
H90 H 0.61458 0.94555 0.33052 0.0
O91 O 0.92046 0.95222 0.06863 0.0
C92 C 0.98983 0.84769 0.2044 0.0
C93 C 0.73747 0.94435 0.30262 0.0
C94 C 0.64046 0.91093 0.1968 0.0
N95 N 0.7763 0.90888 0.15525 0.0
C96 C 0.79562 0.931 0.23891 0.0
C97 C 0.69962 0.89865 0.13408 0.0
C98 C 0.65976 0.9339 0.28196 0.0
C99 C 0.9908 0.73053 0.94383 0.0
N100 N 0.03826 0.76114 1.00123 0.0
C101 C 0.9827 0.6714 0.95476 0.0
C102 C 0.02305 0.64383 0.02534 0.0
C103 C 0.07253 0.67532 0.08213 0.0
C104 C 0.08014 0.73406 0.06834 0.0
C105 C 0.25814 0.81879 0.89095 0.0
C106 C 0.19286 0.88789 0.0249 0.0
C107 C 0.1821 0.81061 0.92101 0.0
N108 N 0.14985 0.84548 0.9863 0.0
C109 C 0.27017 0.89685 0.99668 0.0
C110 C 0.30215 0.86253 0.92837 0.0
C111 C 0.98909 0.9667 0.03699 0.0
C112 C 0.71512 0.8685 0.84156 0.0
C113 C 0.77905 0.9531 0.9512 0.0
C114 C 0.72905 0.96816 0.87918 0.0
C115 C 0.69566 0.92539 0.82534 0.0
N116 N 0.79672 0.89707 0.96761 0.0
C117 C 0.76803 0.85517 0.91121 0.0
Co118 Co 0.96648 0.84411 0.51075 0.0
Co119 Co 0.14854 0.87603 0.43162 0.0
O120 O 0.07715 0.83942 0.51145 0.0
C121 C 0.00886 0.87726 0.70381 0.0
O122 O 0.05352 0.91697 0.66792 0.0
C123 C 0.22947 0.775 0.34832 0.0
O124 O 0.21293 0.7983 0.26826 0.0
O125 O 0.08681 0.85416 0.32008 0.0
O126 O 0.96262 0.84617 0.36876 0.0
H127 H 0.25218 0.96828 0.1449 0.0
H128 H 0.047 0.75196 0.61735 0.0
O129 O 0.97034 0.84363 0.65133 0.0
H130 H 0.89931 0.65471 0.37193 0.0
H131 H 0.72259 0.79273 0.6719 0.0
H132 H 0.83917 0.91669 0.43582 0.0
H133 H 0.88563 0.75809 0.39557 0.0
H134 H 0.85721 0.77876 0.6216 0.0
O135 O 0.20758 0.79976 0.42295 0.0
H136 H 0.14858 0.93994 0.25265 0.0
H137 H 0.32081 0.87792 0.43792 0.0
H138 H 0.69955 0.9318 0.48568 0.0
H139 H 0.05944 0.6473 0.59874 0.0
H140 H 0.64415 0.87076 0.60572 0.0
H141 H 0.98731 0.59812 0.47328 0.0
O142 O 0.96854 0.93038 0.50827 0.0
H143 H 0.31666 0.83481 0.70575 0.0
H144 H 0.203 0.98606 0.51249 0.0
H145 H 0.28978 0.01241 0.64146 0.0
H146 H 0.35011 0.93616 0.73639 0.0
H147 H 0.22091 0.81084 0.58645 0.0
H148 H 0.42399 0.90235 0.32865 0.0
H149 H 0.38969 0.94555 0.17782 0.0
O150 O 0.08382 0.95222 0.43972 0.0
C151 C 0.01445 0.84768 0.30395 0.0
C152 C 0.2668 0.94435 0.20573 0.0
C153 C 0.36382 0.91093 0.31154 0.0
N154 N 0.22798 0.90888 0.3531 0.0
C155 C 0.20865 0.931 0.26944 0.0
C156 C 0.30466 0.89865 0.37426 0.0
C157 C 0.34452 0.9339 0.22639 0.0
C158 C 0.01348 0.73053 0.56452 0.0
N159 N 0.96601 0.76114 0.50712 0.0
C160 C 0.02158 0.6714 0.55359 0.0
C161 C 0.98123 0.64383 0.48301 0.0
C162 C 0.93175 0.67532 0.42622 0.0
C163 C 0.92414 0.73406 0.44001 0.0
C164 C 0.74614 0.81879 0.6174 0.0
C165 C 0.81141 0.88789 0.48345 0.0
C166 C 0.82218 0.81061 0.58734 0.0
N167 N 0.85442 0.84548 0.52205 0.0
C168 C 0.7341 0.89685 0.51167 0.0
C169 C 0.70212 0.86253 0.57998 0.0
C170 C 0.01519 0.9667 0.47136 0.0
C171 C 0.28915 0.8685 0.66679 0.0
C172 C 0.22523 0.95309 0.55714 0.0
C173 C 0.27523 0.96816 0.62917 0.0
C174 C 0.30862 0.92539 0.68301 0.0
N175 N 0.20755 0.89707 0.54074 0.0
C176 C 0.23624 0.85516 0.59713 0.0
Co177 Co 0.0378 0.15175 0.51075 0.0
Co178 Co 0.85574 0.11983 0.43162 0.0
O179 O 0.92713 0.15643 0.51145 0.0
C180 C 0.99541 0.11859 0.70381 0.0
O181 O 0.95076 0.07888 0.66793 0.0
C182 C 0.77481 0.22085 0.34832 0.0
O183 O 0.79134 0.19756 0.26826 0.0
O184 O 0.91746 0.1417 0.32008 0.0
O185 O 0.04166 0.14969 0.36876 0.0
H186 H 0.75209 0.02757 0.1449 0.0
H187 H 0.95728 0.2439 0.61735 0.0
O188 O 0.03394 0.15223 0.65133 0.0
H189 H 0.10497 0.34114 0.37193 0.0
H190 H 0.28168 0.20313 0.6719 0.0
H191 H 0.1651 0.07916 0.43582 0.0
H192 H 0.11865 0.23776 0.39557 0.0
H193 H 0.14706 0.21709 0.6216 0.0
O194 O 0.79669 0.19609 0.42295 0.0
H195 H 0.8557 0.05591 0.25265 0.0
H196 H 0.68346 0.11794 0.43792 0.0
H197 H 0.30473 0.06405 0.48568 0.0
H198 H 0.94484 0.34856 0.59874 0.0
H199 H 0.36013 0.12509 0.60572 0.0
H200 H 0.01696 0.39774 0.47327 0.0
O201 O 0.03574 0.06547 0.50827 0.0
H202 H 0.68761 0.16105 0.70575 0.0
H203 H 0.80128 0.00979 0.51249 0.0
H204 H 0.7145 0.98344 0.64146 0.0
H205 H 0.65416 0.05969 0.73639 0.0
H206 H 0.78337 0.18501 0.58645 0.0
H207 H 0.58029 0.0935 0.32865 0.0
H208 H 0.61458 0.05031 0.17783 0.0
O209 O 0.92046 0.04364 0.43972 0.0
C210 C 0.98983 0.14817 0.30395 0.0
C211 C 0.73747 0.0515 0.20573 0.0
C212 C 0.64046 0.08492 0.31154 0.0
N213 N 0.7763 0.08698 0.3531 0.0
C214 C 0.79562 0.06486 0.26944 0.0
C215 C 0.69962 0.0972 0.37427 0.0
C216 C 0.65976 0.06195 0.22639 0.0
C217 C 0.9908 0.26532 0.56452 0.0
N218 N 0.03826 0.23471 0.50712 0.0
C219 C 0.9827 0.32445 0.55359 0.0
C220 C 0.02305 0.35202 0.48301 0.0
C221 C 0.07253 0.32053 0.42622 0.0
C222 C 0.08014 0.26179 0.44001 0.0
C223 C 0.25814 0.17706 0.6174 0.0
C224 C 0.19286 0.10796 0.48345 0.0
C225 C 0.1821 0.18524 0.58734 0.0
N226 N 0.14985 0.15038 0.52205 0.0
C227 C 0.27017 0.09901 0.51167 0.0
C228 C 0.30215 0.13332 0.57998 0.0
C229 C 0.98909 0.02916 0.47136 0.0
C230 C 0.71512 0.12735 0.66679 0.0
C231 C 0.77905 0.04276 0.55714 0.0
C232 C 0.72905 0.0277 0.62917 0.0
C233 C 0.69566 0.07047 0.68301 0.0
N234 N 0.79672 0.09878 0.54074 0.0
C235 C 0.76803 0.14069 0.59714 0.0
Co236 Co 0.46637 0.65174 0.99764 0.0
Co237 Co 0.64848 0.61986 0.07666 0.0
O238 O 0.57705 0.65647 0.99688 0.0
C239 C 0.50887 0.61879 0.80453 0.0
O240 O 0.55384 0.57925 0.84036 0.0
C241 C 0.7294 0.72088 0.16001 0.0
O242 O 0.71289 0.69756 0.24006 0.0
O243 O 0.58679 0.64169 0.18823 0.0
O244 O 0.46257 0.64964 0.13961 0.0
H245 H 0.75223 0.52758 0.3633 0.0
H246 H 0.54681 0.74394 0.89107 0.0
O247 O 0.47014 0.65226 0.85706 0.0
H248 H 0.39915 0.84107 0.13665 0.0
H249 H 0.22234 0.70309 0.83676 0.0
H250 H 0.33918 0.579 0.07248 0.0
H251 H 0.38551 0.7377 0.11291 0.0
H252 H 0.35696 0.71713 0.88703 0.0
O253 O 0.7075 0.69614 0.08537 0.0
H254 H 0.6486 0.55591 0.25559 0.0
H255 H 0.82077 0.618 0.07029 0.0
H256 H 0.19959 0.56381 0.0226 0.0
H257 H 0.55924 0.84859 0.90979 0.0
H258 H 0.14407 0.62491 0.90273 0.0
H259 H 0.48712 0.89772 0.03532 0.0
O260 O 0.4685 0.56546 1.00002 0.0
H261 H 0.81653 0.6612 0.80253 0.0
H262 H 0.70299 0.50987 0.99573 0.0
H263 H 0.78978 0.48357 0.86673 0.0
H264 H 0.85005 0.55986 0.77183 0.0
H265 H 0.72077 0.6851 0.92185 0.0
H266 H 0.92397 0.59358 0.17954 0.0
H267 H 0.88972 0.55036 0.33036 0.0
O268 O 0.5838 0.54366 0.06854 0.0
C269 C 0.51443 0.64813 0.2044 0.0
C270 C 0.76683 0.55154 0.30249 0.0
C271 C 0.86381 0.58498 0.19666 0.0
N272 N 0.72796 0.58701 0.15513 0.0
C273 C 0.70866 0.56487 0.23879 0.0
C274 C 0.80463 0.59726 0.13395 0.0
C275 C 0.84454 0.562 0.28181 0.0
C276 C 0.51329 0.76534 0.94393 0.0
N277 N 0.46585 0.7347 1.00132 0.0
C278 C 0.52139 0.82447 0.95492 0.0
C279 C 0.48104 0.85201 0.02554 0.0
C280 C 0.43158 0.82049 0.08232 0.0
C281 C 0.42399 0.76175 0.06848 0.0
C282 C 0.24595 0.677 0.89118 0.0
C283 C 0.31138 0.60783 0.02493 0.0
C284 C 0.32198 0.68522 0.92124 0.0
N285 N 0.35431 0.65032 0.98642 0.0
C286 C 0.23408 0.59883 0.9967 0.0
C287 C 0.20203 0.63318 0.92849 0.0
C288 C 0.51518 0.52916 0.03689 0.0
C289 C 0.78905 0.62749 0.84147 0.0
C290 C 0.72519 0.54285 0.95108 0.0
C291 C 0.77519 0.52782 0.87904 0.0
C292 C 0.80855 0.57061 0.82522 0.0
N293 N 0.70748 0.59886 0.96751 0.0
C294 C 0.73613 0.64079 0.91113 0.0
Co295 Co 0.5379 0.34411 0.99764 0.0
Co296 Co 0.35579 0.37599 0.07666 0.0
O297 O 0.42723 0.33938 0.99688 0.0
C298 C 0.4954 0.37707 0.80453 0.0
O299 O 0.45043 0.41661 0.84036 0.0
C300 C 0.27488 0.27498 0.16001 0.0
O301 O 0.29138 0.2983 0.24005 0.0
O302 O 0.41749 0.35416 0.18823 0.0
O303 O 0.5417 0.34621 0.13961 0.0
H304 H 0.25204 0.46827 0.3633 0.0
H305 H 0.45747 0.25191 0.89107 0.0
O306 O 0.53414 0.3436 0.85706 0.0
H307 H 0.60512 0.15478 0.13665 0.0
H308 H 0.78193 0.29276 0.83676 0.0
H309 H 0.66509 0.41685 0.07248 0.0
H310 H 0.61877 0.25816 0.11291 0.0
H311 H 0.64731 0.27872 0.88703 0.0
O312 O 0.29677 0.29972 0.08537 0.0
H313 H 0.35568 0.43994 0.25559 0.0
H314 H 0.18351 0.37785 0.07029 0.0
H315 H 0.80468 0.43205 0.0226 0.0
H316 H 0.44504 0.14726 0.90979 0.0
H317 H 0.86021 0.37095 0.90273 0.0
H318 H 0.51716 0.09814 0.03533 0.0
O319 O 0.53577 0.43039 1.00002 0.0
H320 H 0.18775 0.33465 0.80253 0.0
H321 H 0.30128 0.48599 0.99573 0.0
H322 H 0.21449 0.51228 0.86673 0.0
H323 H 0.15423 0.436 0.77183 0.0
H324 H 0.28351 0.31075 0.92185 0.0
H325 H 0.0803 0.40227 0.17954 0.0
H326 H 0.11455 0.44549 0.33036 0.0
O327 O 0.42047 0.4522 0.06854 0.0
C328 C 0.48985 0.34773 0.2044 0.0
C329 C 0.23745 0.44432 0.30248 0.0
C330 C 0.14047 0.41087 0.19665 0.0
N331 N 0.27631 0.40884 0.15513 0.0
C332 C 0.29561 0.43098 0.23879 0.0
C333 C 0.19964 0.3986 0.13395 0.0
C334 C 0.15974 0.43385 0.28181 0.0
C335 C 0.49098 0.23051 0.94393 0.0
N336 N 0.53842 0.26115 1.00132 0.0
C337 C 0.48289 0.17138 0.95492 0.0
C338 C 0.52323 0.14385 0.02555 0.0
C339 C 0.57269 0.17536 0.08232 0.0
C340 C 0.58029 0.23411 0.06848 0.0
C341 C 0.75832 0.31885 0.89119 0.0
C342 C 0.6929 0.38802 0.02493 0.0
C343 C 0.68229 0.31063 0.92124 0.0
N344 N 0.64997 0.34553 0.98642 0.0
C345 C 0.7702 0.39703 0.99669 0.0
C346 C 0.80225 0.36268 0.92849 0.0
C347 C 0.4891 0.46669 0.0369 0.0
C348 C 0.21523 0.36837 0.84147 0.0
C349 C 0.27908 0.45301 0.95108 0.0
C350 C 0.22908 0.46804 0.87904 0.0
C351 C 0.19573 0.42524 0.82522 0.0
N352 N 0.2968 0.39699 0.96751 0.0
C353 C 0.26814 0.35506 0.91113 0.0
Co354 Co 0.46637 0.34411 0.51071 0.0
Co355 Co 0.64848 0.37599 0.43168 0.0
O356 O 0.57705 0.33938 0.51147 0.0
C357 C 0.50888 0.37707 0.70381 0.0
O358 O 0.55384 0.41661 0.66799 0.0
C359 C 0.7294 0.27497 0.34834 0.0
O360 O 0.71289 0.2983 0.26829 0.0
O361 O 0.58679 0.35416 0.32012 0.0
O362 O 0.46257 0.34621 0.36873 0.0
H363 H 0.75223 0.46827 0.14504 0.0
H364 H 0.54681 0.25191 0.61728 0.0
O365 O 0.47014 0.3436 0.65129 0.0
H366 H 0.39915 0.15479 0.3717 0.0
H367 H 0.22234 0.29276 0.67159 0.0
H368 H 0.33918 0.41685 0.43587 0.0
H369 H 0.38551 0.25816 0.39544 0.0
H370 H 0.35696 0.27872 0.62132 0.0
O371 O 0.7075 0.29972 0.42298 0.0
H372 H 0.6486 0.43994 0.25276 0.0
H373 H 0.82077 0.37785 0.43805 0.0
H374 H 0.19959 0.43205 0.48575 0.0
H375 H 0.55924 0.14726 0.59856 0.0
H376 H 0.14407 0.37095 0.60562 0.0
H377 H 0.48712 0.09814 0.47302 0.0
O378 O 0.4685 0.43039 0.50833 0.0
H379 H 0.81653 0.33465 0.70582 0.0
H380 H 0.70299 0.48599 0.51262 0.0
H381 H 0.78978 0.51228 0.64162 0.0
H382 H 0.85005 0.43599 0.73652 0.0
H383 H 0.72077 0.31075 0.5865 0.0
H384 H 0.92397 0.40227 0.32881 0.0
H385 H 0.88972 0.44549 0.17799 0.0
O386 O 0.5838 0.4522 0.43981 0.0
C387 C 0.51443 0.34772 0.30395 0.0
C388 C 0.76683 0.44432 0.20586 0.0
C389 C 0.86381 0.41087 0.31169 0.0
N390 N 0.72796 0.40884 0.35322 0.0
C391 C 0.70866 0.43098 0.26956 0.0
C392 C 0.80463 0.3986 0.3744 0.0
C393 C 0.84454 0.43385 0.22654 0.0
C394 C 0.51329 0.23051 0.56442 0.0
N395 N 0.46585 0.26115 0.50703 0.0
C396 C 0.52139 0.17138 0.55343 0.0
C397 C 0.48104 0.14385 0.4828 0.0
C398 C 0.43158 0.17536 0.42603 0.0
C399 C 0.42399 0.23411 0.43987 0.0
C400 C 0.24595 0.31885 0.61716 0.0
C401 C 0.31138 0.38802 0.48342 0.0
C402 C 0.32198 0.31063 0.58711 0.0
N403 N 0.35431 0.34553 0.52193 0.0
C404 C 0.23408 0.39703 0.51165 0.0
C405 C 0.20203 0.36268 0.57986 0.0
C406 C 0.51518 0.46669 0.47146 0.0
C407 C 0.78905 0.36837 0.66688 0.0
C408 C 0.72519 0.453 0.55727 0.0
C409 C 0.77519 0.46803 0.62931 0.0
C410 C 0.80855 0.42524 0.68313 0.0
N411 N 0.70748 0.39699 0.54084 0.0
C412 C 0.73613 0.35506 0.59721 0.0
Co413 Co 0.5379 0.65174 0.51071 0.0
Co414 Co 0.35579 0.61986 0.43169 0.0
O415 O 0.42723 0.65647 0.51147 0.0
C416 C 0.4954 0.61879 0.70381 0.0
O417 O 0.45043 0.57924 0.66799 0.0
C418 C 0.27488 0.72088 0.34834 0.0
O419 O 0.29138 0.69755 0.26829 0.0
O420 O 0.41749 0.64169 0.32012 0.0
O421 O 0.5417 0.64964 0.36873 0.0
H422 H 0.25204 0.52759 0.14505 0.0
H423 H 0.45747 0.74394 0.61727 0.0
O424 O 0.53414 0.65226 0.65128 0.0
H425 H 0.60512 0.84107 0.3717 0.0
H426 H 0.78193 0.70309 0.67159 0.0
H427 H 0.66509 0.579 0.43587 0.0
H428 H 0.61877 0.7377 0.39544 0.0
H429 H 0.64731 0.71713 0.62132 0.0
O430 O 0.29677 0.69614 0.42298 0.0
H431 H 0.35568 0.55591 0.25276 0.0
H432 H 0.18351 0.618 0.43806 0.0
H433 H 0.80468 0.56381 0.48575 0.0
H434 H 0.44504 0.84859 0.59856 0.0
H435 H 0.86021 0.62491 0.60562 0.0
H436 H 0.51716 0.89772 0.47302 0.0
O437 O 0.53577 0.56546 0.50833 0.0
H438 H 0.18775 0.6612 0.70582 0.0
H439 H 0.30128 0.50987 0.51262 0.0
H440 H 0.21449 0.48357 0.64162 0.0
H441 H 0.15423 0.55986 0.73652 0.0
H442 H 0.28351 0.6851 0.5865 0.0
H443 H 0.0803 0.59358 0.32881 0.0
H444 H 0.11455 0.55036 0.17799 0.0
O445 O 0.42047 0.54366 0.43981 0.0
C446 C 0.48985 0.64814 0.30395 0.0
C447 C 0.23745 0.55154 0.20586 0.0
C448 C 0.14047 0.58498 0.3117 0.0
N449 N 0.27631 0.58701 0.35322 0.0
C450 C 0.29561 0.56487 0.26956 0.0
C451 C 0.19964 0.59725 0.3744 0.0
C452 C 0.15974 0.562 0.22654 0.0
C453 C 0.49098 0.76534 0.56441 0.0
N454 N 0.53842 0.7347 0.50702 0.0
C455 C 0.48289 0.82447 0.55342 0.0
C456 C 0.52323 0.85201 0.4828 0.0
C457 C 0.57269 0.82049 0.42603 0.0
C458 C 0.58029 0.76175 0.43987 0.0
C459 C 0.75832 0.677 0.61716 0.0
C460 C 0.6929 0.60783 0.48342 0.0
C461 C 0.68229 0.68522 0.58711 0.0
N462 N 0.64997 0.65032 0.52193 0.0
C463 C 0.7702 0.59883 0.51165 0.0
C464 C 0.80225 0.63318 0.57986 0.0
C465 C 0.4891 0.52916 0.47145 0.0
C466 C 0.21523 0.62749 0.66688 0.0
C467 C 0.27908 0.54285 0.55727 0.0
C468 C 0.22908 0.52782 0.62931 0.0
C469 C 0.19573 0.57061 0.68313 0.0
N470 N 0.2968 0.59886 0.54084 0.0
C471 C 0.26814 0.64079 0.59721 0.0
loop_
_geom_bond_atom_site_label_1
_geom_bond_atom_site_label_2
_geom_bond_distance
_geom_bond_site_symmetry_2
_ccdc_geom_bond_type
Co0 O2 2.142 1_654 S
Co0 O8 2.082 . S
Co0 O11 2.084 1_554 S
Co0 O24 2.097 1_554 S
Co0 N41 2.151 . S
Co0 N49 2.215 . S
Co1 O2 2.160 1_554 S
Co1 O7 2.058 . S
Co1 O17 2.057 . S
Co1 O32 2.037 . S
Co1 N36 2.145 . S
Co1 N57 2.257 1_554 S
O2 Co0 2.142 1_456 S
O2 Co1 2.160 1_556 S
C3 O4 1.278 1_655 S
C3 O11 1.224 . S
O4 C3 1.278 1_455 S
C5 O6 1.245 . S
C5 O17 1.232 . S
O6 C5 1.245 . S
O7 Co1 2.058 . S
O7 C33 1.261 1_455 S
O8 Co0 2.082 . S
O8 C33 1.263 . S
H9 C34 0.930 1_565 S
H10 C40 0.930 . S
O11 Co0 2.084 1_556 S
O11 C3 1.224 . S
H12 C44 0.929 . S
H13 C46 0.930 . S
H14 C47 0.930 . S
H15 C45 0.929 . S
H16 C48 0.928 . S
O17 Co1 2.057 . S
O17 C5 1.232 . S
H18 C37 0.929 . S
H19 C38 0.929 . S
H20 C50 0.931 . S
H21 C42 0.929 . S
H22 C51 0.930 . S
H23 C43 0.931 1_556 S
O24 Co0 2.097 1_556 S
O24 C52 1.214 1_656 S
H25 C53 0.929 . S
H26 C54 0.927 1_564 S
H27 C55 0.930 . S
H28 C56 0.929 . S
H29 C58 0.930 . S
H30 C35 0.930 . S
H31 C39 0.930 1_565 S
O32 Co1 2.037 . S
O32 C52 1.234 . S
C33 O7 1.261 1_655 S
C33 O8 1.263 . S
C34 H9 0.930 1_545 S
C34 C37 1.388 . S
C34 C39 1.418 . S
C35 H30 0.930 . S
C35 C38 1.404 . S
C35 C39 1.353 . S
N36 Co1 2.145 . S
N36 C37 1.397 . S
N36 C38 1.334 . S
C37 H18 0.929 . S
C37 C34 1.388 . S
C37 N36 1.397 . S
C38 H19 0.929 . S
C38 C35 1.404 . S
C38 N36 1.334 . S
C39 H31 0.930 1_545 S
C39 C34 1.418 . S
C39 C35 1.353 . S
C40 H10 0.930 . S
C40 N41 1.330 1_556 S
C40 C42 1.446 . S
N41 Co0 2.151 . S
N41 C40 1.330 1_554 S
N41 C45 1.418 . S
C42 H21 0.929 . S
C42 C40 1.446 . S
C42 C43 1.332 1_556 S
C43 H23 0.931 1_554 S
C43 C42 1.332 1_554 S
C43 C44 1.267 . S
C44 H12 0.929 . S
C44 C43 1.267 . S
C44 C45 1.251 . S
C45 H15 0.929 . S
C45 N41 1.418 . S
C45 C44 1.251 . S
C46 H13 0.930 . S
C46 C48 1.406 . S
C46 C51 1.261 1_556 S
C47 H14 0.930 . S
C47 N49 1.325 . S
C47 C50 1.357 . S
C48 H16 0.928 . S
C48 C46 1.406 . S
C48 N49 1.261 1_556 S
N49 Co0 2.215 . S
N49 C47 1.325 . S
N49 C48 1.261 1_554 S
C50 H20 0.931 . S
C50 C47 1.357 . S
C50 C51 1.312 . S
C51 H22 0.930 . S
C51 C46 1.261 1_554 S
C51 C50 1.312 . S
C52 O24 1.214 1_454 S
C52 O32 1.234 . S
C53 H25 0.929 . S
C53 C56 1.391 . S
C53 C58 1.391 . S
C54 H26 0.927 1_546 S
C54 C55 1.390 1_545 S
C54 N57 1.391 . S
C55 H27 0.930 . S
C55 C54 1.390 1_565 S
C55 C56 1.392 1_565 S
C56 H28 0.929 . S
C56 C53 1.391 . S
C56 C55 1.392 1_545 S
N57 Co1 2.257 1_556 S
N57 C54 1.391 . S
N57 C58 1.388 . S
C58 H29 0.930 . S
C58 C53 1.391 . S
C58 N57 1.388 . S
Co59 O61 2.142 1_454 S
Co59 O67 2.082 . S
Co59 O70 2.084 1_554 S
Co59 O83 2.097 1_554 S
Co59 N100 2.151 . S
Co59 N108 2.215 . S
Co60 O61 2.160 1_554 S
Co60 O66 2.058 . S
Co60 O76 2.057 . S
Co60 O91 2.037 . S
Co60 N95 2.145 . S
Co60 N116 2.257 1_554 S
O61 Co59 2.142 1_656 S
O61 Co60 2.160 1_556 S
C62 O63 1.278 1_455 S
C62 O70 1.224 . S
O63 C62 1.278 1_655 S
C64 O65 1.245 . S
C64 O76 1.232 . S
O65 C64 1.245 . S
O66 Co60 2.058 . S
O66 C92 1.261 1_655 S
O67 Co59 2.082 . S
O67 C92 1.263 . S
H68 C93 0.930 1_545 S
H69 C99 0.930 . S
O70 Co59 2.084 1_556 S
O70 C62 1.224 . S
H71 C103 0.929 . S
H72 C105 0.930 . S
H73 C106 0.930 . S
H74 C104 0.929 . S
H75 C107 0.928 . S
O76 Co60 2.057 . S
O76 C64 1.232 . S
H77 C96 0.929 . S
H78 C97 0.929 . S
H79 C109 0.931 . S
H80 C101 0.929 . S
H81 C110 0.930 . S
H82 C102 0.931 1_556 S
O83 Co59 2.097 1_556 S
O83 C111 1.214 1_456 S
H84 C112 0.929 . S
H85 C113 0.927 1_544 S
H86 C114 0.930 . S
H87 C115 0.929 . S
H88 C117 0.930 . S
H89 C94 0.930 . S
H90 C98 0.930 1_545 S
O91 Co60 2.037 . S
O91 C111 1.234 . S
C92 O66 1.261 1_455 S
C92 O67 1.263 . S
C93 H68 0.930 1_565 S
C93 C96 1.388 . S
C93 C98 1.418 . S
C94 H89 0.930 . S
C94 C97 1.404 . S
C94 C98 1.353 . S
N95 Co60 2.145 . S
N95 C96 1.397 . S
N95 C97 1.334 . S
C96 H77 0.929 . S
C96 C93 1.388 . S
C96 N95 1.397 . S
C97 H78 0.929 . S
C97 C94 1.404 . S
C97 N95 1.334 . S
C98 H90 0.930 1_565 S
C98 C93 1.418 . S
C98 C94 1.353 . S
C99 H69 0.930 . S
C99 N100 1.330 1_556 S
C99 C101 1.446 . S
N100 Co59 2.151 . S
N100 C99 1.330 1_554 S
N100 C104 1.418 . S
C101 H80 0.929 . S
C101 C99 1.446 . S
C101 C102 1.332 1_556 S
C102 H82 0.931 1_554 S
C102 C101 1.332 1_554 S
C102 C103 1.267 . S
C103 H71 0.929 . S
C103 C102 1.267 . S
C103 C104 1.251 . S
C104 H74 0.929 . S
C104 N100 1.418 . S
C104 C103 1.251 . S
C105 H72 0.930 . S
C105 C107 1.406 . S
C105 C110 1.261 1_556 S
C106 H73 0.930 . S
C106 N108 1.325 . S
C106 C109 1.357 . S
C107 H75 0.928 . S
C107 C105 1.406 . S
C107 N108 1.261 1_556 S
N108 Co59 2.215 . S
N108 C106 1.325 . S
N108 C107 1.261 1_554 S
C109 H79 0.931 . S
C109 C106 1.357 . S
C109 C110 1.312 . S
C110 H81 0.930 . S
C110 C105 1.261 1_554 S
C110 C109 1.312 . S
C111 O83 1.214 1_654 S
C111 O91 1.234 . S
C112 H84 0.929 . S
C112 C115 1.391 . S
C112 C117 1.391 . S
C113 H85 0.927 1_566 S
C113 C114 1.390 1_565 S
C113 N116 1.391 . S
C114 H86 0.930 . S
C114 C113 1.390 1_545 S
C114 C115 1.392 1_545 S
C115 H87 0.929 . S
C115 C112 1.391 . S
C115 C114 1.392 1_565 S
N116 Co60 2.257 1_556 S
N116 C113 1.391 . S
N116 C117 1.388 . S
C117 H88 0.930 . S
C117 C112 1.391 . S
C117 N116 1.388 . S
Co118 O120 2.143 1_655 S
Co118 O126 2.074 . S
Co118 O129 2.093 . S
Co118 O142 2.097 . S
Co118 N159 2.151 . S
Co118 N167 2.214 . S
Co119 O120 2.160 . S
Co119 O125 2.058 . S
Co119 O135 2.057 . S
Co119 O150 2.037 . S
Co119 N154 2.145 . S
Co119 N175 2.257 . S
O120 Co118 2.143 1_455 S
O120 Co119 2.160 . S
C121 O122 1.278 1_655 S
C121 O129 1.224 . S
O122 C121 1.278 1_455 S
C123 O124 1.245 . S
C123 O135 1.232 . S
O124 C123 1.245 . S
O125 Co119 2.058 . S
O125 C151 1.261 1_455 S
O126 Co118 2.074 . S
O126 C151 1.263 . S
H127 C152 0.930 1_545 S
H128 C158 0.930 . S
O129 Co118 2.093 . S
O129 C121 1.224 . S
H130 C162 0.929 . S
H131 C164 0.930 . S
H132 C165 0.930 . S
H133 C163 0.929 . S
H134 C166 0.928 . S
O135 Co119 2.057 . S
O135 C123 1.232 . S
H136 C155 0.929 . S
H137 C156 0.929 . S
H138 C168 0.931 . S
H139 C160 0.929 . S
H140 C169 0.930 . S
H141 C161 0.931 . S
O142 Co118 2.097 . S
O142 C170 1.214 1_655 S
H143 C171 0.929 . S
H144 C172 0.928 1_545 S
H145 C173 0.930 . S
H146 C174 0.929 . S
H147 C176 0.930 . S
H148 C153 0.930 . S
H149 C157 0.930 1_545 S
O150 Co119 2.037 . S
O150 C170 1.234 . S
C151 O125 1.261 1_655 S
C151 O126 1.263 . S
C152 H127 0.930 1_565 S
C152 C155 1.388 . S
C152 C157 1.418 . S
C153 H148 0.930 . S
C153 C156 1.404 . S
C153 C157 1.353 . S
N154 Co119 2.145 . S
N154 C155 1.397 . S
N154 C156 1.334 . S
C155 H136 0.929 . S
C155 C152 1.388 . S
C155 N154 1.397 . S
C156 H137 0.929 . S
C156 C153 1.404 . S
C156 N154 1.334 . S
C157 H149 0.930 1_565 S
C157 C152 1.418 . S
C157 C153 1.353 . S
C158 H128 0.930 . S
C158 N159 1.330 . S
C158 C160 1.446 . S
N159 Co118 2.151 . S
N159 C158 1.330 . S
N159 C163 1.418 . S
C160 H139 0.929 . S
C160 C158 1.446 . S
C160 C161 1.332 . S
C161 H141 0.931 . S
C161 C160 1.332 . S
C161 C162 1.267 . S
C162 H130 0.929 . S
C162 C161 1.267 . S
C162 C163 1.251 . S
C163 H133 0.929 . S
C163 N159 1.418 . S
C163 C162 1.251 . S
C164 H131 0.930 . S
C164 C166 1.406 . S
C164 C169 1.261 . S
C165 H132 0.930 . S
C165 N167 1.325 . S
C165 C168 1.357 . S
C166 H134 0.928 . S
C166 C164 1.406 . S
C166 N167 1.261 . S
N167 Co118 2.214 . S
N167 C165 1.325 . S
N167 C166 1.261 . S
C168 H138 0.931 . S
C168 C165 1.357 . S
C168 C169 1.312 . S
C169 H140 0.930 . S
C169 C164 1.261 . S
C169 C168 1.312 . S
C170 O142 1.214 1_455 S
C170 O150 1.234 . S
C171 H143 0.929 . S
C171 C174 1.391 . S
C171 C176 1.391 . S
C172 H144 0.928 1_565 S
C172 C173 1.390 1_565 S
C172 N175 1.391 . S
C173 H145 0.930 . S
C173 C172 1.390 1_545 S
C173 C174 1.392 1_545 S
C174 H146 0.929 . S
C174 C171 1.391 . S
C174 C173 1.392 1_565 S
N175 Co119 2.257 . S
N175 C172 1.391 . S
N175 C176 1.388 . S
C176 H147 0.930 . S
C176 C171 1.391 . S
C176 N175 1.388 . S
Co177 O179 2.143 1_455 S
Co177 O185 2.074 . S
Co177 O188 2.093 . S
Co177 O201 2.097 . S
Co177 N218 2.151 . S
Co177 N226 2.214 . S
Co178 O179 2.160 . S
Co178 O184 2.058 . S
Co178 O194 2.057 . S
Co178 O209 2.037 . S
Co178 N213 2.145 . S
Co178 N234 2.257 . S
O179 Co177 2.143 1_655 S
O179 Co178 2.160 . S
C180 O181 1.278 1_455 S
C180 O188 1.224 . S
O181 C180 1.278 1_655 S
C182 O183 1.245 . S
C182 O194 1.232 . S
O183 C182 1.245 . S
O184 Co178 2.058 . S
O184 C210 1.261 1_655 S
O185 Co177 2.074 . S
O185 C210 1.263 . S
H186 C211 0.930 1_565 S
H187 C217 0.930 . S
O188 Co177 2.093 . S
O188 C180 1.224 . S
H189 C221 0.929 . S
H190 C223 0.930 . S
H191 C224 0.930 . S
H192 C222 0.929 . S
H193 C225 0.928 . S
O194 Co178 2.057 . S
O194 C182 1.232 . S
H195 C214 0.929 . S
H196 C215 0.929 . S
H197 C227 0.931 . S
H198 C219 0.929 . S
H199 C228 0.930 . S
H200 C220 0.931 . S
O201 Co177 2.097 . S
O201 C229 1.214 1_455 S
H202 C230 0.929 . S
H203 C231 0.928 1_565 S
H204 C232 0.930 . S
H205 C233 0.929 . S
H206 C235 0.930 . S
H207 C212 0.930 . S
H208 C216 0.930 1_565 S
O209 Co178 2.037 . S
O209 C229 1.234 . S
C210 O184 1.261 1_455 S
C210 O185 1.263 . S
C211 H186 0.930 1_545 S
C211 C214 1.388 . S
C211 C216 1.418 . S
C212 H207 0.930 . S
C212 C215 1.404 . S
C212 C216 1.353 . S
N213 Co178 2.145 . S
N213 C214 1.397 . S
N213 C215 1.334 . S
C214 H195 0.929 . S
C214 C211 1.388 . S
C214 N213 1.397 . S
C215 H196 0.929 . S
C215 C212 1.404 . S
C215 N213 1.334 . S
C216 H208 0.930 1_545 S
C216 C211 1.418 . S
C216 C212 1.353 . S
C217 H187 0.930 . S
C217 N218 1.330 . S
C217 C219 1.446 . S
N218 Co177 2.151 . S
N218 C217 1.330 . S
N218 C222 1.418 . S
C219 H198 0.929 . S
C219 C217 1.446 . S
C219 C220 1.332 . S
C220 H200 0.931 . S
C220 C219 1.332 . S
C220 C221 1.267 . S
C221 H189 0.929 . S
C221 C220 1.267 . S
C221 C222 1.251 . S
C222 H192 0.929 . S
C222 N218 1.418 . S
C222 C221 1.251 . S
C223 H190 0.930 . S
C223 C225 1.406 . S
C223 C228 1.261 . S
C224 H191 0.930 . S
C224 N226 1.325 . S
C224 C227 1.357 . S
C225 H193 0.928 . S
C225 C223 1.406 . S
C225 N226 1.261 . S
N226 Co177 2.214 . S
N226 C224 1.325 . S
N226 C225 1.261 . S
C227 H197 0.931 . S
C227 C224 1.357 . S
C227 C228 1.312 . S
C228 H199 0.930 . S
C228 C223 1.261 . S
C228 C227 1.312 . S
C229 O201 1.214 1_655 S
C229 O209 1.234 . S
C230 H202 0.929 . S
C230 C233 1.391 . S
C230 C235 1.391 . S
C231 H203 0.928 1_545 S
C231 C232 1.390 1_545 S
C231 N234 1.391 . S
C232 H204 0.930 . S
C232 C231 1.390 1_565 S
C232 C233 1.392 1_565 S
C233 H205 0.929 . S
C233 C230 1.391 . S
C233 C232 1.392 1_545 S
N234 Co178 2.257 . S
N234 C231 1.391 . S
N234 C235 1.388 . S
C235 H206 0.930 . S
C235 C230 1.391 . S
C235 N234 1.388 . S
Co236 O238 2.142 1_554 S
Co236 O244 2.082 . S
Co236 O247 2.084 1_554 S
Co236 O260 2.097 1_554 S
Co236 N277 2.151 . S
Co236 N285 2.215 . S
Co237 O238 2.160 1_554 S
Co237 O243 2.058 . S
Co237 O253 2.057 . S
Co237 O268 2.037 . S
Co237 N272 2.145 . S
Co237 N293 2.257 1_554 S
O238 Co236 2.142 1_556 S
O238 Co237 2.160 1_556 S
C239 O240 1.278 . S
C239 O247 1.224 . S
O240 C239 1.278 . S
C241 O242 1.245 . S
C241 O253 1.232 . S
O242 C241 1.245 . S
O243 Co237 2.058 . S
O243 C269 1.269 . S
O244 Co236 2.082 . S
O244 C269 1.257 . S
H245 C270 0.930 . S
H246 C276 0.930 . S
O247 Co236 2.084 1_556 S
O247 C239 1.224 . S
H248 C280 0.929 . S
H249 C282 0.930 . S
H250 C283 0.930 . S
H251 C281 0.929 . S
H252 C284 0.928 . S
O253 Co237 2.057 . S
O253 C241 1.232 . S
H254 C273 0.929 . S
H255 C274 0.929 . S
H256 C286 0.931 . S
H257 C278 0.929 . S
H258 C287 0.930 . S
H259 C279 0.931 1_556 S
O260 Co236 2.097 1_556 S
O260 C288 1.214 1_556 S
H261 C289 0.929 . S
H262 C290 0.929 1_554 S
H263 C291 0.930 . S
H264 C292 0.929 . S
H265 C294 0.930 . S
H266 C271 0.930 . S
H267 C275 0.930 . S
O268 Co237 2.037 . S
O268 C288 1.234 . S
C269 O243 1.269 . S
C269 O244 1.257 . S
C270 H245 0.930 . S
C270 C273 1.388 . S
C270 C275 1.418 . S
C271 H266 0.930 . S
C271 C274 1.404 . S
C271 C275 1.353 . S
N272 Co237 2.145 . S
N272 C273 1.397 . S
N272 C274 1.334 . S
C273 H254 0.929 . S
C273 C270 1.388 . S
C273 N272 1.397 . S
C274 H255 0.929 . S
C274 C271 1.404 . S
C274 N272 1.334 . S
C275 H267 0.930 . S
C275 C270 1.418 . S
C275 C271 1.353 . S
C276 H246 0.930 . S
C276 N277 1.330 1_556 S
C276 C278 1.446 . S
N277 Co236 2.151 . S
N277 C276 1.330 1_554 S
N277 C281 1.418 . S
C278 H257 0.929 . S
C278 C276 1.446 . S
C278 C279 1.332 1_556 S
C279 H259 0.931 1_554 S
C279 C278 1.332 1_554 S
C279 C280 1.267 . S
C280 H248 0.929 . S
C280 C279 1.267 . S
C280 C281 1.251 . S
C281 H251 0.929 . S
C281 N277 1.418 . S
C281 C280 1.251 . S
C282 H249 0.930 . S
C282 C284 1.406 . S
C282 C287 1.261 1_556 S
C283 H250 0.930 . S
C283 N285 1.325 . S
C283 C286 1.357 . S
C284 H252 0.928 . S
C284 C282 1.406 . S
C284 N285 1.261 1_556 S
N285 Co236 2.215 . S
N285 C283 1.325 . S
N285 C284 1.261 1_554 S
C286 H256 0.931 . S
C286 C283 1.357 . S
C286 C287 1.312 . S
C287 H258 0.930 . S
C287 C282 1.261 1_554 S
C287 C286 1.312 . S
C288 O260 1.214 1_554 S
C288 O268 1.234 . S
C289 H261 0.929 . S
C289 C292 1.391 . S
C289 C294 1.391 . S
C290 H262 0.929 1_556 S
C290 C291 1.390 . S
C290 N293 1.391 . S
C291 H263 0.930 . S
C291 C290 1.390 . S
C291 C292 1.392 . S
C292 H264 0.929 . S
C292 C289 1.391 . S
C292 C291 1.392 . S
N293 Co237 2.257 1_556 S
N293 C290 1.391 . S
N293 C294 1.388 . S
C294 H265 0.930 . S
C294 C289 1.391 . S
C294 N293 1.388 . S
Co295 O297 2.142 1_554 S
Co295 O303 2.082 . S
Co295 O306 2.084 1_554 S
Co295 O319 2.097 1_554 S
Co295 N336 2.151 . S
Co295 N344 2.215 . S
Co296 O297 2.160 1_554 S
Co296 O302 2.058 . S
Co296 O312 2.057 . S
Co296 O327 2.037 . S
Co296 N331 2.145 . S
Co296 N352 2.257 1_554 S
O297 Co295 2.142 1_556 S
O297 Co296 2.160 1_556 S
C298 O299 1.278 . S
C298 O306 1.224 . S
O299 C298 1.278 . S
C300 O301 1.245 . S
C300 O312 1.232 . S
O301 C300 1.245 . S
O302 Co296 2.058 . S
O302 C328 1.269 . S
O303 Co295 2.082 . S
O303 C328 1.257 . S
H304 C329 0.930 . S
H305 C335 0.930 . S
O306 Co295 2.084 1_556 S
O306 C298 1.224 . S
H307 C339 0.929 . S
H308 C341 0.930 . S
H309 C342 0.930 . S
H310 C340 0.929 . S
H311 C343 0.928 . S
O312 Co296 2.057 . S
O312 C300 1.232 . S
H313 C332 0.929 . S
H314 C333 0.929 . S
H315 C345 0.931 . S
H316 C337 0.929 . S
H317 C346 0.930 . S
H318 C338 0.931 1_556 S
O319 Co295 2.097 1_556 S
O319 C347 1.214 1_556 S
H320 C348 0.929 . S
H321 C349 0.929 1_554 S
H322 C350 0.930 . S
H323 C351 0.929 . S
H324 C353 0.930 . S
H325 C330 0.930 . S
H326 C334 0.930 . S
O327 Co296 2.037 . S
O327 C347 1.234 . S
C328 O302 1.269 . S
C328 O303 1.257 . S
C329 H304 0.930 . S
C329 C332 1.388 . S
C329 C334 1.418 . S
C330 H325 0.930 . S
C330 C333 1.404 . S
C330 C334 1.353 . S
N331 Co296 2.145 . S
N331 C332 1.397 . S
N331 C333 1.334 . S
C332 H313 0.929 . S
C332 C329 1.388 . S
C332 N331 1.397 . S
C333 H314 0.929 . S
C333 C330 1.404 . S
C333 N331 1.334 . S
C334 H326 0.930 . S
C334 C329 1.418 . S
C334 C330 1.353 . S
C335 H305 0.930 . S
C335 N336 1.330 1_556 S
C335 C337 1.446 . S
N336 Co295 2.151 . S
N336 C335 1.330 1_554 S
N336 C340 1.418 . S
C337 H316 0.929 . S
C337 C335 1.446 . S
C337 C338 1.332 1_556 S
C338 H318 0.931 1_554 S
C338 C337 1.332 1_554 S
C338 C339 1.267 . S
C339 H307 0.929 . S
C339 C338 1.267 . S
C339 C340 1.251 . S
C340 H310 0.929 . S
C340 N336 1.418 . S
C340 C339 1.251 . S
C341 H308 0.930 . S
C341 C343 1.406 . S
C341 C346 1.261 1_556 S
C342 H309 0.930 . S
C342 N344 1.325 . S
C342 C345 1.357 . S
C343 H311 0.928 . S
C343 C341 1.406 . S
C343 N344 1.261 1_556 S
N344 Co295 2.215 . S
N344 C342 1.325 . S
N344 C343 1.261 1_554 S
C345 H315 0.931 . S
C345 C342 1.357 . S
C345 C346 1.312 . S
C346 H317 0.930 . S
C346 C341 1.261 1_554 S
C346 C345 1.312 . S
C347 O319 1.214 1_554 S
C347 O327 1.234 . S
C348 H320 0.929 . S
C348 C351 1.391 . S
C348 C353 1.391 . S
C349 H321 0.929 1_556 S
C349 C350 1.390 . S
C349 N352 1.391 . S
C350 H322 0.930 . S
C350 C349 1.390 . S
C350 C351 1.392 . S
C351 H323 0.929 . S
C351 C348 1.391 . S
C351 C350 1.392 . S
N352 Co296 2.257 1_556 S
N352 C349 1.391 . S
N352 C353 1.388 . S
C353 H324 0.930 . S
C353 C348 1.391 . S
C353 N352 1.388 . S
Co354 O356 2.143 . S
Co354 O362 2.074 . S
Co354 O365 2.093 . S
Co354 O378 2.097 . S
Co354 N395 2.151 . S
Co354 N403 2.214 . S
Co355 O356 2.160 . S
Co355 O361 2.058 . S
Co355 O371 2.057 . S
Co355 O386 2.037 . S
Co355 N390 2.145 . S
Co355 N411 2.257 . S
O356 Co354 2.143 . S
O356 Co355 2.160 . S
C357 O358 1.278 . S
C357 O365 1.224 . S
O358 C357 1.278 . S
C359 O360 1.245 . S
C359 O371 1.232 . S
O360 C359 1.245 . S
O361 Co355 2.058 . S
O361 C387 1.269 . S
O362 Co354 2.074 . S
O362 C387 1.257 . S
H363 C388 0.930 . S
H364 C394 0.930 . S
O365 Co354 2.093 . S
O365 C357 1.224 . S
H366 C398 0.929 . S
H367 C400 0.930 . S
H368 C401 0.930 . S
H369 C399 0.929 . S
H370 C402 0.928 . S
O371 Co355 2.057 . S
O371 C359 1.232 . S
H372 C391 0.929 . S
H373 C392 0.929 . S
H374 C404 0.931 . S
H375 C396 0.929 . S
H376 C405 0.930 . S
H377 C397 0.931 . S
O378 Co354 2.097 . S
O378 C406 1.214 . S
H379 C407 0.929 . S
H380 C408 0.929 . S
H381 C409 0.930 . S
H382 C410 0.929 . S
H383 C412 0.930 . S
H384 C389 0.930 . S
H385 C393 0.930 . S
O386 Co355 2.037 . S
O386 C406 1.234 . S
C387 O361 1.269 . S
C387 O362 1.257 . S
C388 H363 0.930 . S
C388 C391 1.388 . S
C388 C393 1.418 . S
C389 H384 0.930 . S
C389 C392 1.404 . S
C389 C393 1.353 . S
N390 Co355 2.145 . S
N390 C391 1.397 . S
N390 C392 1.334 . S
C391 H372 0.929 . S
C391 C388 1.388 . S
C391 N390 1.397 . S
C392 H373 0.929 . S
C392 C389 1.404 . S
C392 N390 1.334 . S
C393 H385 0.930 . S
C393 C388 1.418 . S
C393 C389 1.353 . S
C394 H364 0.930 . S
C394 N395 1.330 . S
C394 C396 1.446 . S
N395 Co354 2.151 . S
N395 C394 1.330 . S
N395 C399 1.418 . S
C396 H375 0.929 . S
C396 C394 1.446 . S
C396 C397 1.332 . S
C397 H377 0.931 . S
C397 C396 1.332 . S
C397 C398 1.267 . S
C398 H366 0.929 . S
C398 C397 1.267 . S
C398 C399 1.251 . S
C399 H369 0.929 . S
C399 N395 1.418 . S
C399 C398 1.251 . S
C400 H367 0.930 . S
C400 C402 1.406 . S
C400 C405 1.261 . S
C401 H368 0.930 . S
C401 N403 1.325 . S
C401 C404 1.357 . S
C402 H370 0.928 . S
C402 C400 1.406 . S
C402 N403 1.261 . S
N403 Co354 2.214 . S
N403 C401 1.325 . S
N403 C402 1.261 . S
C404 H374 0.931 . S
C404 C401 1.357 . S
C404 C405 1.312 . S
C405 H376 0.930 . S
C405 C400 1.261 . S
C405 C404 1.312 . S
C406 O378 1.214 . S
C406 O386 1.234 . S
C407 H379 0.929 . S
C407 C410 1.391 . S
C407 C412 1.391 . S
C408 H380 0.929 . S
C408 C409 1.390 . S
C408 N411 1.391 . S
C409 H381 0.930 . S
C409 C408 1.390 . S
C409 C410 1.392 . S
C410 H382 0.929 . S
C410 C407 1.391 . S
C410 C409 1.392 . S
N411 Co355 2.257 . S
N411 C408 1.391 . S
N411 C412 1.388 . S
C412 H383 0.930 . S
C412 C407 1.391 . S
C412 N411 1.388 . S
Co413 O415 2.143 . S
Co413 O421 2.074 . S
Co413 O424 2.093 . S
Co413 O437 2.097 . S
Co413 N454 2.151 . S
Co413 N462 2.214 . S
Co414 O415 2.160 . S
Co414 O420 2.058 . S
Co414 O430 2.057 . S
Co414 O445 2.037 . S
Co414 N449 2.145 . S
Co414 N470 2.257 . S
O415 Co413 2.143 . S
O415 Co414 2.160 . S
C416 O417 1.278 . S
C416 O424 1.224 . S
O417 C416 1.278 . S
C418 O419 1.245 . S
C418 O430 1.232 . S
O419 C418 1.245 . S
O420 Co414 2.058 . S
O420 C446 1.269 . S
O421 Co413 2.074 . S
O421 C446 1.257 . S
H422 C447 0.930 . S
H423 C453 0.930 . S
O424 Co413 2.093 . S
O424 C416 1.224 . S
H425 C457 0.929 . S
H426 C459 0.930 . S
H427 C460 0.930 . S
H428 C458 0.929 . S
H429 C461 0.928 . S
O430 Co414 2.057 . S
O430 C418 1.232 . S
H431 C450 0.929 . S
H432 C451 0.929 . S
H433 C463 0.931 . S
H434 C455 0.929 . S
H435 C464 0.930 . S
H436 C456 0.931 . S
O437 Co413 2.097 . S
O437 C465 1.214 . S
H438 C466 0.929 . S
H439 C467 0.929 . S
H440 C468 0.930 . S
H441 C469 0.929 . S
H442 C471 0.930 . S
H443 C448 0.930 . S
H444 C452 0.930 . S
O445 Co414 2.037 . S
O445 C465 1.234 . S
C446 O420 1.269 . S
C446 O421 1.257 . S
C447 H422 0.930 . S
C447 C450 1.388 . S
C447 C452 1.418 . S
C448 H443 0.930 . S
C448 C451 1.404 . S
C448 C452 1.353 . S
N449 Co414 2.145 . S
N449 C450 1.397 . S
N449 C451 1.334 . S
C450 H431 0.929 . S
C450 C447 1.388 . S
C450 N449 1.397 . S
C451 H432 0.929 . S
C451 C448 1.404 . S
C451 N449 1.334 . S
C452 H444 0.930 . S
C452 C447 1.418 . S
C452 C448 1.353 . S
C453 H423 0.930 . S
C453 N454 1.330 . S
C453 C455 1.446 . S
N454 Co413 2.151 . S
N454 C453 1.330 . S
N454 C458 1.418 . S
C455 H434 0.929 . S
C455 C453 1.446 . S
C455 C456 1.332 . S
C456 H436 0.931 . S
C456 C455 1.332 . S
C456 C457 1.267 . S
C457 H425 0.929 . S
C457 C456 1.267 . S
C457 C458 1.251 . S
C458 H428 0.929 . S
C458 N454 1.418 . S
C458 C457 1.251 . S
C459 H426 0.930 . S
C459 C461 1.406 . S
C459 C464 1.261 . S
C460 H427 0.930 . S
C460 N462 1.325 . S
C460 C463 1.357 . S
C461 H429 0.928 . S
C461 C459 1.406 . S
C461 N462 1.261 . S
N462 Co413 2.214 . S
N462 C460 1.325 . S
N462 C461 1.261 . S
C463 H433 0.931 . S
C463 C460 1.357 . S
C463 C464 1.312 . S
C464 H435 0.930 . S
C464 C459 1.261 . S
C464 C463 1.312 . S
C465 O437 1.214 . S
C465 O445 1.234 . S
C466 H438 0.929 . S
C466 C469 1.391 . S
C466 C471 1.391 . S
C467 H439 0.929 . S
C467 C468 1.390 . S
C467 N470 1.391 . S
C468 H440 0.930 . S
C468 C467 1.390 . S
C468 C469 1.392 . S
C469 H441 0.929 . S
C469 C466 1.391 . S
C469 C468 1.392 . S
N470 Co414 2.257 . S
N470 C467 1.391 . S
N470 C471 1.388 . S
C471 H442 0.930 . S
C471 C466 1.391 . S
C471 N470 1.388 . S
C111 C52 1.524 1_665 S
C170 C229 1.524 1_465 S
C288 C347 1.524 . S
C406 C465 1.524 . S
C33 C210 1.375 1_655 S
C151 C92 1.375 1_655 S
C121 C62 1.617 1_655 S
C3 C180 1.617 1_655 S
C269 C446 1.376 . S
C387 C328 1.376 . S
C298 C357 1.617 . S
C239 C416 1.617 . S
C300 C5 1.543 . S
C241 C64 1.543 . S
C123 C418 1.543 . S
C359 C182 1.543 . S
