# Generated by pormake.
# Topology zfj, (5)-cn, num edge types: 1
# Building blocks:
#     Node 0, Type 0, BuildingBlock: BEQFEK_clean_sbu_0, # of connection points: 5
#     Node 1, Type 0, BuildingBlock: BEQFEK_clean_sbu_0, # of connection points: 5
#     Node 2, Type 0, BuildingBlock: BEQFEK_clean_sbu_0, # of connection points: 5
#     Node 3, Type 0, BuildingBlock: BEQFEK_clean_sbu_0, # of connection points: 5
#     Node 4, Type 0, BuildingBlock: BEQFEK_clean_sbu_0, # of connection points: 5
#     Node 5, Type 0, BuildingBlock: BEQFEK_clean_sbu_0, # of connection points: 5
#     Node 6, Type 0, BuildingBlock: BEQFEK_clean_sbu_0, # of connection points: 5
#     Node 7, Type 0, BuildingBlock: BEQFEK_clean_sbu_0, # of connection points: 5
#     Node 8, Type 0, BuildingBlock: BEQFEK_clean_sbu_0, # of connection points: 5
#     Node 9, Type 0, BuildingBlock: BEQFEK_clean_sbu_0, # of connection points: 5
#     Node 10, Type 0, BuildingBlock: BEQFEK_clean_sbu_0, # of connection points: 5
#     Node 11, Type 0, BuildingBlock: BEQFEK_clean_sbu_0, # of connection points: 5
#     Node 12, Type 0, BuildingBlock: BEQFEK_clean_sbu_0, # of connection points: 5
#     Node 13, Type 0, BuildingBlock: BEQFEK_clean_sbu_0, # of connection points: 5
#     Node 14, Type 0, BuildingBlock: BEQFEK_clean_sbu_0, # of connection points: 5
#     Node 15, Type 0, BuildingBlock: BEQFEK_clean_sbu_0, # of connection points: 5
#     Edge 16, Type (0, 0), BuildingBlock: KIFKEQ_clean_linker_1, # of connection points: 2
#     Edge 17, Type (0, 0), BuildingBlock: KIFKEQ_clean_linker_1, # of connection points: 2
#     Edge 18, Type (0, 0), BuildingBlock: KIFKEQ_clean_linker_1, # of connection points: 2
#     Edge 19, Type (0, 0), BuildingBlock: KIFKEQ_clean_linker_1, # of connection points: 2
#     Edge 20, Type (0, 0), BuildingBlock: KIFKEQ_clean_linker_1, # of connection points: 2
#     Edge 21, Type (0, 0), BuildingBlock: KIFKEQ_clean_linker_1, # of connection points: 2
#     Edge 22, Type (0, 0), BuildingBlock: KIFKEQ_clean_linker_1, # of connection points: 2
#     Edge 23, Type (0, 0), BuildingBlock: KIFKEQ_clean_linker_1, # of connection points: 2
#     Edge 24, Type (0, 0), BuildingBlock: KIFKEQ_clean_linker_1, # of connection points: 2
#     Edge 25, Type (0, 0), BuildingBlock: KIFKEQ_clean_linker_1, # of connection points: 2
#     Edge 26, Type (0, 0), BuildingBlock: KIFKEQ_clean_linker_1, # of connection points: 2
#     Edge 27, Type (0, 0), BuildingBlock: KIFKEQ_clean_linker_1, # of connection points: 2
#     Edge 28, Type (0, 0), BuildingBlock: KIFKEQ_clean_linker_1, # of connection points: 2
#     Edge 29, Type (0, 0), BuildingBlock: KIFKEQ_clean_linker_1, # of connection points: 2
#     Edge 30, Type (0, 0), BuildingBlock: KIFKEQ_clean_linker_1, # of connection points: 2
#     Edge 31, Type (0, 0), BuildingBlock: KIFKEQ_clean_linker_1, # of connection points: 2
#     Edge 32, Type (0, 0), BuildingBlock: KIFKEQ_clean_linker_1, # of connection points: 2
#     Edge 33, Type (0, 0), BuildingBlock: KIFKEQ_clean_linker_1, # of connection points: 2
#     Edge 34, Type (0, 0), BuildingBlock: KIFKEQ_clean_linker_1, # of connection points: 2
#     Edge 35, Type (0, 0), BuildingBlock: KIFKEQ_clean_linker_1, # of connection points: 2
#     Edge 36, Type (0, 0), BuildingBlock: KIFKEQ_clean_linker_1, # of connection points: 2
#     Edge 37, Type (0, 0), BuildingBlock: KIFKEQ_clean_linker_1, # of connection points: 2
#     Edge 38, Type (0, 0), BuildingBlock: KIFKEQ_clean_linker_1, # of connection points: 2
#     Edge 39, Type (0, 0), BuildingBlock: KIFKEQ_clean_linker_1, # of connection points: 2
#     Edge 40, Type (0, 0), BuildingBlock: KIFKEQ_clean_linker_1, # of connection points: 2
#     Edge 41, Type (0, 0), BuildingBlock: KIFKEQ_clean_linker_1, # of connection points: 2
#     Edge 42, Type (0, 0), BuildingBlock: KIFKEQ_clean_linker_1, # of connection points: 2
#     Edge 43, Type (0, 0), BuildingBlock: KIFKEQ_clean_linker_1, # of connection points: 2
#     Edge 44, Type (0, 0), BuildingBlock: KIFKEQ_clean_linker_1, # of connection points: 2
#     Edge 45, Type (0, 0), BuildingBlock: KIFKEQ_clean_linker_1, # of connection points: 2
#     Edge 46, Type (0, 0), BuildingBlock: KIFKEQ_clean_linker_1, # of connection points: 2
#     Edge 47, Type (0, 0), BuildingBlock: KIFKEQ_clean_linker_1, # of connection points: 2
#     Edge 48, Type (0, 0), BuildingBlock: KIFKEQ_clean_linker_1, # of connection points: 2
#     Edge 49, Type (0, 0), BuildingBlock: KIFKEQ_clean_linker_1, # of connection points: 2
#     Edge 50, Type (0, 0), BuildingBlock: KIFKEQ_clean_linker_1, # of connection points: 2
#     Edge 51, Type (0, 0), BuildingBlock: KIFKEQ_clean_linker_1, # of connection points: 2
#     Edge 52, Type (0, 0), BuildingBlock: KIFKEQ_clean_linker_1, # of connection points: 2
#     Edge 53, Type (0, 0), BuildingBlock: KIFKEQ_clean_linker_1, # of connection points: 2
#     Edge 54, Type (0, 0), BuildingBlock: KIFKEQ_clean_linker_1, # of connection points: 2
#     Edge 55, Type (0, 0), BuildingBlock: KIFKEQ_clean_linker_1, # of connection points: 2
# Relax obj value: 0.282
# Max RMSD: 0.172
# Mean RMSD: 0.172
data_MOF--net-zfj--node1-BEQFEK_clean_sbu_0--edge1-KIFKEQ_clean_linker_1
_symmetry_space_group_name_H-M    P1
_symmetry_Int_Tables_number       1
_symmetry_cell_setting            triclinic
loop_
_symmetry_equiv_pos_as_xyz
'x, y, z'
_cell_length_a     36.203795
_cell_length_b     36.207192
_cell_length_c     53.922902
_cell_angle_alpha  90.009015
_cell_angle_beta   89.971827
_cell_angle_gamma 89.998526
loop_
_atom_site_label
_atom_site_type_symbol
_atom_site_fract_x
_atom_site_fract_y
_atom_site_fract_z
_atom_type_partial_charge
Co0 Co 0.53626 0.22406 0.1597 0.0
Co1 Co 0.56811 0.14688 0.14517 0.0
C2 C 0.54226 0.19656 0.106 0.0
O3 O 0.53588 0.21996 0.12306 0.0
O4 O 0.55387 0.16422 0.11123 0.0
C5 C 0.47905 0.27525 0.1532 0.0
O6 O 0.46834 0.25004 0.13722 0.0
C7 C 0.57833 0.06685 0.1346 0.0
C8 C 0.62531 0.05551 0.15963 0.0
C9 C 0.60003 0.03843 0.14416 0.0
N10 N 0.58974 0.09886 0.1447 0.0
N11 N 0.6185 0.0919 0.15902 0.0
C12 C 0.54523 0.06357 0.11812 0.0
H13 H 0.55455 0.05787 0.09889 0.0
H14 H 0.52911 0.08966 0.11816 0.0
H15 H 0.52746 0.04025 0.12415 0.0
C16 C 0.49137 0.17817 0.19392 0.0
N17 N 0.51571 0.18178 0.17513 0.0
N18 N 0.52843 0.14901 0.16889 0.0
C19 C 0.51241 0.12343 0.18364 0.0
C20 C 0.48845 0.14101 0.20005 0.0
C21 C 0.4742 0.21016 0.20718 0.0
H22 H 0.49445 0.23303 0.20878 0.0
H23 H 0.45036 0.22031 0.19619 0.0
H24 H 0.46441 0.2022 0.22593 0.0
O25 O 0.58789 0.23182 0.17056 0.0
O26 O 0.60927 0.17823 0.15694 0.0
H27 H 0.54929 0.07738 0.18627 0.0
H28 H 0.50218 0.06661 0.19483 0.0
C29 C 0.51982 0.08284 0.18207 0.0
H30 H 0.51386 0.07336 0.16304 0.0
H31 H 0.63212 0.11173 0.16966 0.0
O32 O 0.50716 0.26897 0.16668 0.0
C33 C 0.6146 0.20961 0.1669 0.0
Co34 Co 0.27206 0.54184 0.66174 0.0
Co35 Co 0.34938 0.57042 0.64545 0.0
C36 C 0.29631 0.54808 0.6075 0.0
O37 O 0.27324 0.54316 0.62496 0.0
O38 O 0.32971 0.55676 0.61209 0.0
C39 C 0.22096 0.48537 0.65599 0.0
O40 O 0.2468 0.47435 0.64055 0.0
C41 C 0.42762 0.57639 0.63022 0.0
C42 C 0.44641 0.62016 0.65586 0.0
C43 C 0.45886 0.5953 0.63823 0.0
N44 N 0.39844 0.58878 0.64319 0.0
N45 N 0.40974 0.61558 0.65799 0.0
C46 C 0.42519 0.54754 0.61037 0.0
H47 H 0.4216 0.51988 0.61883 0.0
H48 H 0.45035 0.54749 0.5986 0.0
H49 H 0.40064 0.55284 0.5986 0.0
C50 C 0.31807 0.4945 0.69444 0.0
N51 N 0.31435 0.51896 0.67574 0.0
N52 N 0.3472 0.53067 0.66887 0.0
C53 C 0.37296 0.51385 0.68305 0.0
C54 C 0.35541 0.49043 0.69981 0.0
C55 C 0.2862 0.47872 0.70859 0.0
H56 H 0.26407 0.49973 0.71045 0.0
H57 H 0.2748 0.45492 0.69813 0.0
H58 H 0.29474 0.46918 0.72728 0.0
O59 O 0.26748 0.59324 0.67358 0.0
O60 O 0.3208 0.61311 0.65835 0.0
H61 H 0.41982 0.54937 0.68701 0.0
H62 H 0.42991 0.50107 0.69239 0.0
C63 C 0.41362 0.52072 0.68104 0.0
H64 H 0.42233 0.51751 0.66155 0.0
H65 H 0.39269 0.62953 0.67047 0.0
O66 O 0.22671 0.51385 0.66923 0.0
C67 C 0.29033 0.61925 0.66941 0.0
Co68 Co 0.95705 0.2699 0.16208 0.0
Co69 Co 0.92769 0.34716 0.14621 0.0
C70 C 0.9512 0.29543 0.10789 0.0
O71 O 0.95619 0.27231 0.12533 0.0
O72 O 0.94221 0.32879 0.11255 0.0
C73 C 0.01475 0.21948 0.15692 0.0
O74 O 0.02742 0.24627 0.14285 0.0
C75 C 0.91839 0.42729 0.13523 0.0
C76 C 0.87083 0.43898 0.15973 0.0
C77 C 0.8966 0.45585 0.14453 0.0
N78 N 0.90654 0.39538 0.14526 0.0
N79 N 0.87745 0.40256 0.15925 0.0
C80 C 0.95182 0.43036 0.11903 0.0
H81 H 0.9429 0.43613 0.09974 0.0
H82 H 0.96776 0.40416 0.11919 0.0
H83 H 0.9696 0.45358 0.1252 0.0
C84 C 0.00316 0.31573 0.19565 0.0
N85 N 0.97896 0.31214 0.17679 0.0
N86 N 0.967 0.345 0.17014 0.0
C87 C 0.98335 0.37062 0.18471 0.0
C88 C 0.00678 0.35297 0.2014 0.0
C89 C 0.01939 0.28378 0.20946 0.0
H90 H -0.0012 0.26119 0.21092 0.0
H91 H 0.04354 0.27315 0.19898 0.0
H92 H 0.02858 0.29201 0.22829 0.0
O93 O 0.90565 0.26366 0.17349 0.0
O94 O 0.88573 0.31666 0.15803 0.0
H95 H 0.94697 0.41716 0.18656 0.0
H96 H 0.9939 0.4274 0.19581 0.0
C97 C 0.97651 0.41127 0.18284 0.0
H98 H 0.98327 0.42047 0.16387 0.0
H99 H 0.86343 0.38288 0.16978 0.0
O100 O 0.98515 0.22464 0.16912 0.0
C101 C 0.87949 0.28606 0.16883 0.0
Co102 Co 0.22435 0.96141 0.66035 0.0
Co103 Co 0.14827 0.9275 0.64579 0.0
C104 C 0.19918 0.95368 0.60674 0.0
O105 O 0.22213 0.96112 0.62382 0.0
O106 O 0.16703 0.94154 0.61198 0.0
C107 C 0.27561 0.01842 0.65421 0.0
O108 O 0.25012 0.02973 0.63863 0.0
C109 C 0.06846 0.92124 0.63519 0.0
C110 C 0.05616 0.86828 0.65385 0.0
C111 C 0.03966 0.89792 0.64202 0.0
N112 N 0.10027 0.90631 0.64324 0.0
N113 N 0.09275 0.87419 0.65373 0.0
C114 C 0.06576 0.9588 0.62376 0.0
H115 H 0.09179 0.97445 0.62659 0.0
H116 H 0.04208 0.97432 0.63166 0.0
H117 H 0.06097 0.95574 0.60354 0.0
C118 C 0.17692 0.00802 0.69258 0.0
N119 N 0.18125 0.98218 0.67479 0.0
N120 N 0.14896 0.96736 0.66952 0.0
C121 C 0.12317 0.98275 0.68448 0.0
C122 C 0.13987 0.00942 0.69928 0.0
C123 C 0.20797 0.03047 0.70296 0.0
H124 H 0.22839 0.01181 0.71182 0.0
H125 H 0.22214 0.04512 0.68763 0.0
H126 H 0.19823 0.05123 0.71658 0.0
O127 O 0.23211 0.90981 0.67177 0.0
O128 O 0.17907 0.8867 0.65843 0.0
H129 H 0.07353 0.97516 0.70624 0.0
H130 H 0.06641 0.98185 0.67365 0.0
C131 C 0.08457 0.96858 0.68755 0.0
H132 H 0.08387 0.93827 0.68508 0.0
H133 H 0.11235 0.85732 0.66223 0.0
O134 O 0.26913 0.99034 0.66769 0.0
C135 C 0.21049 0.88248 0.66857 0.0
Co136 Co 0.53649 0.27035 0.87573 0.0
Co137 Co 0.56753 0.34669 0.89219 0.0
C138 C 0.54276 0.29383 0.93004 0.0
O139 O 0.53631 0.27132 0.91249 0.0
O140 O 0.55395 0.3265 0.92547 0.0
C141 C 0.47902 0.22035 0.88076 0.0
O142 O 0.46811 0.24628 0.89615 0.0
C143 C 0.57423 0.42445 0.908 0.0
C144 C 0.61873 0.44326 0.88294 0.0
C145 C 0.59356 0.45565 0.90039 0.0
N146 N 0.58667 0.39537 0.89497 0.0
N147 N 0.61392 0.40665 0.88053 0.0
C148 C 0.54483 0.42196 0.9275 0.0
H149 H 0.51747 0.41789 0.91872 0.0
H150 H 0.54417 0.44723 0.93915 0.0
H151 H 0.5501 0.3976 0.93946 0.0
C152 C 0.49067 0.31781 0.84307 0.0
N153 N 0.51505 0.3133 0.86173 0.0
N154 N 0.52766 0.34576 0.86871 0.0
C155 C 0.51157 0.37206 0.85458 0.0
C156 C 0.48761 0.35527 0.83781 0.0
C157 C 0.4739 0.28649 0.82889 0.0
H158 H 0.49434 0.26388 0.8268 0.0
H159 H 0.44998 0.27556 0.83947 0.0
H160 H 0.46431 0.29544 0.81031 0.0
O161 O 0.58822 0.26438 0.86451 0.0
O162 O 0.60946 0.31759 0.87902 0.0
H163 H 0.54863 0.41779 0.85106 0.0
H164 H 0.50086 0.42937 0.84501 0.0
C165 C 0.51962 0.4125 0.85663 0.0
H166 H 0.51605 0.42137 0.87606 0.0
H167 H 0.62799 0.38968 0.86805 0.0
O168 O 0.50775 0.22574 0.86769 0.0
C169 C 0.61479 0.28673 0.86829 0.0
Co170 Co 0.22407 0.53878 0.37682 0.0
Co171 Co 0.14694 0.56796 0.39299 0.0
C172 C 0.19991 0.54584 0.43104 0.0
O173 O 0.22292 0.54054 0.41359 0.0
O174 O 0.16655 0.55464 0.42642 0.0
C175 C 0.27482 0.48208 0.38281 0.0
O176 O 0.24897 0.47138 0.39834 0.0
C177 C 0.06877 0.57469 0.40823 0.0
C178 C 0.05018 0.61805 0.38222 0.0
C179 C 0.03763 0.59362 0.40008 0.0
N180 N 0.098 0.58666 0.39513 0.0
N181 N 0.08683 0.61323 0.38011 0.0
C182 C 0.07107 0.54621 0.42832 0.0
H183 H 0.0746 0.51838 0.4201 0.0
H184 H 0.04589 0.54647 0.44007 0.0
H185 H 0.09562 0.55166 0.44006 0.0
C186 C 0.17776 0.49133 0.34435 0.0
N187 N 0.18165 0.51601 0.36291 0.0
N188 N 0.14887 0.52791 0.36978 0.0
C189 C 0.12299 0.51099 0.35576 0.0
C190 C 0.14038 0.48731 0.33908 0.0
C191 C 0.20951 0.47526 0.33022 0.0
H192 H 0.23179 0.49609 0.32831 0.0
H193 H 0.22075 0.45143 0.34073 0.0
H194 H 0.20088 0.46566 0.31156 0.0
O195 O 0.22908 0.59005 0.3648 0.0
O196 O 0.17582 0.61032 0.3799 0.0
H197 H 0.07614 0.54648 0.35164 0.0
H198 H 0.06595 0.49808 0.34677 0.0
C199 C 0.08235 0.51796 0.35786 0.0
H200 H 0.07382 0.51518 0.37742 0.0
H201 H 0.10393 0.62683 0.36749 0.0
O202 O 0.26919 0.51045 0.36944 0.0
C203 C 0.20637 0.61622 0.36887 0.0
Co204 Co 0.95615 0.22321 0.87762 0.0
Co205 Co 0.92521 0.14614 0.89275 0.0
C206 C 0.94867 0.19774 0.93149 0.0
O207 O 0.95424 0.22101 0.91426 0.0
O208 O 0.93946 0.16454 0.92656 0.0
C209 C 0.01318 0.27399 0.88427 0.0
O210 O 0.02332 0.24862 0.90029 0.0
C211 C 0.91801 0.06626 0.90393 0.0
C212 C 0.869 0.05314 0.88114 0.0
C213 C 0.89632 0.03708 0.89549 0.0
N214 N 0.90455 0.09777 0.89429 0.0
N215 N 0.87465 0.08976 0.88132 0.0
C216 C 0.95292 0.0642 0.91872 0.0
H217 H 0.96851 0.09053 0.91736 0.0
H218 H 0.97037 0.04089 0.91229 0.0
H219 H 0.94585 0.05924 0.93846 0.0
C220 C 0.00267 0.1772 0.84461 0.0
N221 N 0.97798 0.18069 0.86319 0.0
N222 N 0.96479 0.14793 0.869 0.0
C223 C 0.98045 0.12254 0.85389 0.0
C224 C 0.00511 0.1402 0.83804 0.0
C225 C 0.02032 0.20923 0.8317 0.0
H226 H -0.00056 0.23112 0.82842 0.0
H227 H 0.0421 0.22094 0.84385 0.0
H228 H 0.0329 0.20092 0.81378 0.0
O229 O 0.90501 0.22971 0.86563 0.0
O230 O 0.88363 0.17672 0.88038 0.0
H231 H 0.94085 0.07869 0.85184 0.0
H232 H 0.9854 0.06695 0.83895 0.0
C233 C 0.97108 0.08228 0.85391 0.0
H234 H 0.9798 0.0701 0.87174 0.0
H235 H 0.85936 0.10904 0.87127 0.0
O236 O 0.98521 0.26804 0.87058 0.0
C237 C 0.87834 0.20758 0.86965 0.0
Co238 Co 0.2702 0.95848 0.37667 0.0
Co239 Co 0.34701 0.92642 0.39174 0.0
C240 C 0.2964 0.95179 0.43059 0.0
O241 O 0.27341 0.95834 0.41332 0.0
O242 O 0.32891 0.94037 0.42561 0.0
C243 C 0.21999 0.01629 0.38295 0.0
O244 O 0.24555 0.02674 0.39874 0.0
C245 C 0.42689 0.91645 0.40295 0.0
C246 C 0.43894 0.86966 0.37789 0.0
C247 C 0.45561 0.89498 0.39354 0.0
N248 N 0.39511 0.90489 0.39259 0.0
N249 N 0.40249 0.87625 0.37825 0.0
C250 C 0.4297 0.94949 0.41953 0.0
H251 H 0.435 0.9401 0.43879 0.0
H252 H 0.40355 0.96551 0.41928 0.0
H253 H 0.45309 0.96735 0.41378 0.0
C254 C 0.31675 0.00359 0.34306 0.0
N255 N 0.31281 0.97912 0.36172 0.0
N256 N 0.34545 0.96633 0.36816 0.0
C257 C 0.3713 0.98246 0.35366 0.0
C258 C 0.35402 0.00657 0.33722 0.0
C259 C 0.28501 0.02081 0.32957 0.0
H260 H 0.26212 0.00061 0.32783 0.0
H261 H 0.27475 0.04471 0.34046 0.0
H262 H 0.29328 0.03052 0.31086 0.0
O263 O 0.26253 0.90704 0.36548 0.0
O264 O 0.31579 0.88534 0.37948 0.0
H265 H 0.41734 0.94551 0.3513 0.0
H266 H 0.42831 0.9926 0.34283 0.0
C267 C 0.41186 0.97498 0.35548 0.0
H268 H 0.42108 0.98094 0.37457 0.0
H269 H 0.38291 0.86256 0.36743 0.0
O270 O 0.22565 0.98794 0.36957 0.0
C271 C 0.28456 0.88022 0.36922 0.0
Co272 Co 0.4597 0.77145 0.87776 0.0
Co273 Co 0.42744 0.84795 0.89273 0.0
C274 C 0.45111 0.79614 0.93152 0.0
O275 O 0.45737 0.77298 0.91434 0.0
O276 O 0.44149 0.82918 0.9265 0.0
C277 C 0.51617 0.72 0.88453 0.0
O278 O 0.52722 0.74565 0.9001 0.0
C279 C 0.42135 0.9279 0.90323 0.0
C280 C 0.36832 0.94007 0.88463 0.0
C281 C 0.39797 0.95664 0.89639 0.0
N282 N 0.40643 0.89605 0.89523 0.0
N283 N 0.37428 0.9035 0.88478 0.0
C284 C 0.45891 0.9307 0.91464 0.0
H285 H 0.45585 0.93561 0.93485 0.0
H286 H 0.47457 0.90465 0.91187 0.0
H287 H 0.47441 0.95433 0.90668 0.0
C288 C 0.50756 0.81845 0.84598 0.0
N289 N 0.48166 0.81441 0.86377 0.0
N290 N 0.46728 0.84688 0.86908 0.0
C291 C 0.48301 0.87251 0.85416 0.0
C292 C 0.50947 0.8555 0.83933 0.0
C293 C 0.52945 0.78709 0.83544 0.0
H294 H 0.51046 0.76735 0.82622 0.0
H295 H 0.54349 0.77223 0.85072 0.0
H296 H 0.55068 0.79664 0.82209 0.0
O297 O 0.40854 0.76467 0.8655 0.0
O298 O 0.3863 0.8174 0.88003 0.0
H299 H 0.47577 0.92214 0.83236 0.0
H300 H 0.48272 0.92931 0.86492 0.0
C301 C 0.4692 0.91123 0.85108 0.0
H302 H 0.4389 0.91224 0.85361 0.0
H303 H 0.3574 0.88387 0.87633 0.0
O304 O 0.48837 0.72639 0.87078 0.0
C305 C 0.38154 0.78648 0.8693 0.0
Co306 Co 0.72385 0.45709 0.37724 0.0
Co307 Co 0.64668 0.42779 0.39332 0.0
C308 C 0.69853 0.45149 0.43151 0.0
O309 O 0.72158 0.4564 0.41401 0.0
O310 O 0.66516 0.44244 0.42694 0.0
C311 C 0.77413 0.51492 0.38207 0.0
O312 O 0.74736 0.52764 0.39614 0.0
C313 C 0.56655 0.41858 0.40445 0.0
C314 C 0.55471 0.37122 0.37984 0.0
C315 C 0.53791 0.39696 0.39511 0.0
N316 N 0.59843 0.4067 0.39438 0.0
N317 N 0.59115 0.37771 0.38032 0.0
C318 C 0.56359 0.45189 0.42077 0.0
H319 H 0.55775 0.44282 0.44004 0.0
H320 H 0.58985 0.46772 0.42068 0.0
H321 H 0.54044 0.4698 0.41467 0.0
C322 C 0.67794 0.50325 0.34379 0.0
N323 N 0.68159 0.47897 0.36259 0.0
N324 N 0.64874 0.4671 0.36937 0.0
C325 C 0.62306 0.48364 0.35496 0.0
C326 C 0.64066 0.50707 0.33822 0.0
C327 C 0.70983 0.51943 0.32988 0.0
H328 H 0.73247 0.49889 0.32847 0.0
H329 H 0.7204 0.54371 0.34023 0.0
H330 H 0.70154 0.52842 0.31101 0.0
O331 O 0.73005 0.4057 0.36587 0.0
O332 O 0.67713 0.38574 0.38147 0.0
H333 H 0.57616 0.44771 0.35334 0.0
H334 H 0.56617 0.49481 0.34436 0.0
C335 C 0.58237 0.47716 0.35712 0.0
H336 H 0.57357 0.48384 0.37619 0.0
H337 H 0.61079 0.3637 0.36975 0.0
O338 O 0.76903 0.48518 0.37003 0.0
C339 C 0.7077 0.37952 0.3706 0.0
Co340 Co 0.04069 0.72336 0.8774 0.0
Co341 Co 0.07067 0.6457 0.89217 0.0
C342 C 0.04826 0.69661 0.93121 0.0
O343 O 0.04291 0.72014 0.91408 0.0
O344 O 0.05704 0.66335 0.92614 0.0
C345 C 0.98417 0.77454 0.88492 0.0
O346 O 0.97416 0.74904 0.9009 0.0
C347 C 0.07959 0.56555 0.90285 0.0
C348 C 0.12595 0.55322 0.87747 0.0
C349 C 0.10061 0.53669 0.89318 0.0
N350 N 0.09142 0.5973 0.89259 0.0
N351 N 0.11982 0.58974 0.87805 0.0
C352 C 0.04671 0.56296 0.9196 0.0
H353 H 0.05627 0.55729 0.93878 0.0
H354 H 0.03102 0.5893 0.91959 0.0
H355 H 0.02848 0.53987 0.91382 0.0
C356 C 0.99372 0.67811 0.84412 0.0
N357 N 0.01844 0.68133 0.8627 0.0
N358 N 0.03059 0.64834 0.86891 0.0
C359 C 0.0138 0.62301 0.85437 0.0
C360 C 0.98994 0.64098 0.83811 0.0
C361 C 0.97722 0.71036 0.83078 0.0
H362 H -0.00192 0.73261 0.82884 0.0
H363 H 0.95389 0.72136 0.8419 0.0
H364 H 0.96685 0.70239 0.81217 0.0
O365 O 0.09167 0.72968 0.86524 0.0
O366 O 0.11232 0.67638 0.87987 0.0
H367 H 0.04993 0.57639 0.85146 0.0
H368 H 0.00255 0.56639 0.84318 0.0
C369 C 0.0206 0.58231 0.85585 0.0
H370 H 0.01474 0.57287 0.87491 0.0
H371 H 0.13365 0.60927 0.86727 0.0
O372 O 0.01184 0.76858 0.87095 0.0
C373 C 0.11804 0.70721 0.86921 0.0
Co374 Co 0.77063 0.03636 0.37817 0.0
Co375 Co 0.8479 0.06832 0.39236 0.0
C376 C 0.79843 0.04261 0.43176 0.0
O377 O 0.77494 0.03614 0.41478 0.0
O378 O 0.83075 0.05416 0.42639 0.0
C379 C 0.71955 0.97914 0.38495 0.0
O380 O 0.74486 0.96855 0.40088 0.0
C381 C 0.92799 0.07845 0.4027 0.0
C382 C 0.93925 0.12555 0.37774 0.0
C383 C 0.95638 0.1002 0.39313 0.0
N384 N 0.89594 0.08992 0.39269 0.0
N385 N 0.90286 0.11873 0.37839 0.0
C386 C 0.93133 0.04523 0.41906 0.0
H387 H 0.93697 0.05441 0.43832 0.0
H388 H 0.90528 0.02905 0.41896 0.0
H389 H 0.9547 0.02757 0.41298 0.0
C390 C 0.81632 0.99143 0.34383 0.0
N391 N 0.81285 0.0158 0.3626 0.0
N392 N 0.84565 0.02864 0.36864 0.0
C393 C 0.87111 0.01271 0.35374 0.0
C394 C 0.85342 0.98864 0.33746 0.0
C395 C 0.78424 0.97411 0.33077 0.0
H396 H 0.76141 0.99439 0.32908 0.0
H397 H 0.77408 0.95049 0.34197 0.0
H398 H 0.79208 0.964 0.31207 0.0
O399 O 0.76274 0.088 0.36733 0.0
O400 O 0.81643 0.10946 0.3807 0.0
H401 H 0.91682 0.04998 0.35085 0.0
H402 H 0.92777 0.00305 0.34195 0.0
C403 C 0.91167 0.02042 0.35496 0.0
H404 H 0.92159 0.01435 0.37387 0.0
H405 H 0.88299 0.13242 0.36783 0.0
O406 O 0.72571 0.00719 0.37139 0.0
C407 C 0.78493 0.11475 0.37089 0.0
Co408 Co 0.45682 0.7253 0.16211 0.0
Co409 Co 0.4261 0.64814 0.14693 0.0
C410 C 0.44907 0.69939 0.10814 0.0
O411 O 0.45469 0.72264 0.1254 0.0
O412 O 0.43995 0.66615 0.11303 0.0
C413 C 0.51418 0.77557 0.15512 0.0
O414 O 0.52417 0.7499 0.13926 0.0
C415 C 0.41655 0.56815 0.13583 0.0
C416 C 0.36998 0.55595 0.16105 0.0
C417 C 0.39527 0.53936 0.14533 0.0
N418 N 0.40491 0.5999 0.1462 0.0
N419 N 0.3764 0.59242 0.16065 0.0
C420 C 0.44949 0.56544 0.11914 0.0
H421 H 0.46541 0.59165 0.11933 0.0
H422 H 0.4675 0.54214 0.12485 0.0
H423 H 0.44 0.56006 0.09992 0.0
C424 C 0.50313 0.67922 0.19531 0.0
N425 N 0.47855 0.68288 0.17669 0.0
N426 N 0.46611 0.65008 0.17029 0.0
C427 C 0.48256 0.62443 0.18476 0.0
C428 C 0.50652 0.64199 0.20117 0.0
C429 C 0.51989 0.71116 0.20885 0.0
H430 H 0.49929 0.73365 0.21078 0.0
H431 H 0.54347 0.72195 0.19788 0.0
H432 H 0.52997 0.70292 0.22747 0.0
O433 O 0.40583 0.73219 0.17414 0.0
O434 O 0.38472 0.67916 0.15933 0.0
H435 H 0.44594 0.57816 0.18736 0.0
H436 H 0.49316 0.56759 0.19574 0.0
C437 C 0.47536 0.58381 0.18308 0.0
H438 H 0.48126 0.57449 0.164 0.0
H439 H 0.36268 0.61196 0.17149 0.0
O440 O 0.48615 0.77003 0.16883 0.0
C441 C 0.37925 0.71002 0.17003 0.0
Co442 Co 0.77211 0.45779 0.66177 0.0
Co443 Co 0.84926 0.42807 0.64592 0.0
C444 C 0.79739 0.45144 0.60759 0.0
O445 O 0.77432 0.45667 0.62503 0.0
O446 O 0.83071 0.4423 0.61223 0.0
C447 C 0.72201 0.51568 0.65671 0.0
O448 O 0.74885 0.52818 0.64261 0.0
C449 C 0.92937 0.41941 0.63474 0.0
C450 C 0.94178 0.37242 0.65953 0.0
C451 C 0.95827 0.39825 0.64418 0.0
N452 N 0.89763 0.40723 0.64485 0.0
N453 N 0.90525 0.37844 0.659 0.0
C454 C 0.93195 0.45268 0.61836 0.0
H455 H 0.90556 0.46831 0.61851 0.0
H456 H 0.955 0.47081 0.62434 0.0
H457 H 0.93771 0.44358 0.59909 0.0
C458 C 0.81799 0.50412 0.69506 0.0
N459 N 0.81437 0.47977 0.67629 0.0
N460 N 0.84722 0.46772 0.66965 0.0
C461 C 0.87286 0.48423 0.6841 0.0
C462 C 0.85523 0.5078 0.70073 0.0
C463 C 0.78606 0.52037 0.70891 0.0
H464 H 0.7635 0.49977 0.71044 0.0
H465 H 0.77538 0.54448 0.69843 0.0
H466 H 0.79434 0.52962 0.72772 0.0
O467 O 0.76594 0.40662 0.67347 0.0
O468 O 0.81887 0.38614 0.65815 0.0
H469 H 0.9195 0.44798 0.68601 0.0
H470 H 0.92969 0.49501 0.69503 0.0
C471 C 0.91353 0.47746 0.68218 0.0
H472 H 0.92264 0.48409 0.66317 0.0
H473 H 0.88576 0.36429 0.66963 0.0
O474 O 0.72699 0.48603 0.66887 0.0
C475 C 0.78824 0.38028 0.66905 0.0
Co476 Co 0.03753 0.76982 0.16205 0.0
Co477 Co 0.06701 0.84667 0.14555 0.0
C478 C 0.04484 0.79327 0.10771 0.0
O479 O 0.03935 0.77049 0.12526 0.0
O480 O 0.05377 0.82664 0.1122 0.0
C481 C 0.98063 0.71925 0.15631 0.0
O482 O 0.96999 0.74497 0.14068 0.0
C483 C 0.07393 0.92474 0.13005 0.0
C484 C 0.11732 0.94338 0.156 0.0
C485 C 0.0929 0.9559 0.13814 0.0
N486 N 0.08585 0.89555 0.1432 0.0
N487 N 0.11246 0.90676 0.15818 0.0
C488 C 0.04544 0.92238 0.10997 0.0
H489 H 0.01758 0.91908 0.11819 0.0
H490 H 0.04582 0.94746 0.09813 0.0
H491 H 0.05077 0.8977 0.09832 0.0
C492 C 0.99035 0.81662 0.19439 0.0
N493 N 0.01491 0.81246 0.17578 0.0
N494 N 0.02689 0.84513 0.16875 0.0
C495 C 0.0101 0.87121 0.1827 0.0
C496 C 0.98645 0.85406 0.19951 0.0
C497 C 0.97432 0.78506 0.20872 0.0
H498 H 0.99508 0.76271 0.21059 0.0
H499 H 0.9503 0.77384 0.1984 0.0
H500 H 0.96501 0.79388 0.22741 0.0
O501 O 0.08875 0.76473 0.17409 0.0
O502 O 0.10924 0.81779 0.15885 0.0
H503 H 0.04567 0.91803 0.1866 0.0
H504 H 0.99728 0.92838 0.19138 0.0
C505 C 0.01715 0.9118 0.18039 0.0
H506 H 0.01441 0.9201 0.1608 0.0
H507 H 0.12602 0.88971 0.17084 0.0
O508 O 0.00902 0.72491 0.16964 0.0
C509 C 0.11501 0.78732 0.16999 0.0
Co510 Co 0.72615 0.03783 0.66219 0.0
Co511 Co 0.64974 0.06943 0.6463 0.0
C512 C 0.70233 0.04428 0.60812 0.0
O513 O 0.72501 0.03764 0.62552 0.0
O514 O 0.66979 0.05568 0.6129 0.0
C515 C 0.77625 0.9804 0.65702 0.0
O516 O 0.75037 0.96958 0.64156 0.0
C517 C 0.57168 0.07472 0.63126 0.0
C518 C 0.5533 0.12141 0.65461 0.0
C519 C 0.5406 0.09463 0.63839 0.0
N520 N 0.60102 0.08844 0.64341 0.0
N521 N 0.58998 0.11693 0.65682 0.0
C522 C 0.5739 0.04364 0.61297 0.0
H523 H 0.57751 0.01705 0.62284 0.0
H524 H 0.54866 0.0423 0.60132 0.0
H525 H 0.59839 0.04749 0.60088 0.0
C526 C 0.6789 0.99175 0.69479 0.0
N527 N 0.6832 0.01644 0.67629 0.0
N528 N 0.65073 0.0298 0.66998 0.0
C529 C 0.6247 0.01428 0.68465 0.0
C530 C 0.64165 0.98951 0.70077 0.0
C531 C 0.71036 0.97387 0.70818 0.0
H532 H 0.73259 0.99441 0.71141 0.0
H533 H 0.72185 0.95151 0.69642 0.0
H534 H 0.70146 0.96197 0.72618 0.0
O535 O 0.73228 0.08965 0.67337 0.0
O536 O 0.67895 0.11128 0.6593 0.0
H537 H 0.58126 0.05409 0.68794 0.0
H538 H 0.56824 0.00814 0.69778 0.0
C539 C 0.58455 0.02418 0.68412 0.0
H540 H 0.57325 0.01831 0.66553 0.0
H541 H 0.60719 0.13216 0.66849 0.0
O542 O 0.77079 0.00904 0.67016 0.0
C543 C 0.71 0.11637 0.66981 0.0
H544 H 0.51462 0.26224 0.08954 0.0
H545 H 0.56083 0.15941 0.0631 0.0
H546 H 0.51251 0.2856 0.04737 0.0
H547 H 0.55901 0.18322 0.02064 0.0
H548 H 0.519 0.22597 0.94546 0.0
H549 H 0.51653 0.20178 0.98749 0.0
H550 H 0.55608 0.30619 1.01565 0.0
H551 H 0.55825 0.33074 0.97346 0.0
C552 C 0.52423 0.24445 0.07473 0.0
C553 C 0.5381 0.20889 0.07983 0.0
C554 C 0.52323 0.25807 0.05051 0.0
C555 C 0.53595 0.23652 0.03062 0.0
C556 C 0.54879 0.2005 0.03554 0.0
C557 C 0.54989 0.18684 0.05988 0.0
C558 C 0.52703 0.24397 0.96058 0.0
C559 C 0.53896 0.28039 0.95599 0.0
C560 C 0.52583 0.2299 0.9847 0.0
C561 C 0.53633 0.25188 1.00496 0.0
C562 C 0.54749 0.28857 1.00048 0.0
C563 C 0.54883 0.30266 0.97628 0.0
H564 H 0.26981 0.55809 0.44711 0.0
H565 H 0.161 0.52918 0.47338 0.0
H566 H 0.29299 0.55763 0.4892 0.0
H567 H 0.18464 0.52584 0.5157 0.0
H568 H 0.22662 0.56079 0.59119 0.0
H569 H 0.20349 0.55918 0.5491 0.0
H570 H 0.31151 0.52536 0.52315 0.0
H571 H 0.33514 0.52984 0.56542 0.0
C572 C 0.25092 0.55097 0.46196 0.0
C573 C 0.21351 0.54378 0.45693 0.0
C574 C 0.26434 0.55035 0.48623 0.0
C575 C 0.24096 0.54159 0.50624 0.0
C576 C 0.20355 0.53357 0.50104 0.0
C577 C 0.18989 0.53517 0.47673 0.0
C578 C 0.24545 0.553 0.57646 0.0
C579 C 0.28277 0.54555 0.58162 0.0
C580 C 0.23205 0.55171 0.5522 0.0
C581 C 0.25535 0.54199 0.53233 0.0
C582 C 0.29268 0.53379 0.53767 0.0
C583 C 0.30633 0.53605 0.56197 0.0
H584 H 0.93557 0.26724 0.94784 0.0
H585 H 0.96658 0.15887 0.97374 0.0
H586 H 0.93733 0.29063 0.98983 0.0
H587 H 0.97118 0.18278 1.01599 0.0
H588 H 0.93926 0.22537 0.09205 0.0
H589 H 0.93957 0.20175 0.0501 0.0
H590 H 0.97077 0.3099 0.02302 0.0
H591 H 0.96763 0.33401 0.06525 0.0
C592 C 0.94338 0.24847 0.96258 0.0
C593 C 0.95087 0.21113 0.95746 0.0
C594 C 0.94478 0.26204 0.9868 0.0
C595 C 0.95463 0.23893 1.0067 0.0
C596 C 0.96271 0.20151 1.00144 0.0
C597 C 0.96035 0.18768 0.97715 0.0
C598 C 0.94625 0.24414 0.07713 0.0
C599 C 0.95333 0.28165 0.082 0.0
C600 C 0.94677 0.23044 0.05291 0.0
C601 C 0.95528 0.25361 0.03276 0.0
C602 C 0.96322 0.29112 0.03778 0.0
C603 C 0.96174 0.30506 0.06206 0.0
H604 H 0.33363 0.93549 0.47386 0.0
H605 H 0.22919 0.97652 0.44646 0.0
H606 H 0.30935 0.93763 0.5162 0.0
H607 H 0.20532 0.97884 0.48852 0.0
H608 H 0.1623 0.93469 0.56382 0.0
H609 H 0.18642 0.93586 0.52142 0.0
H610 H 0.28912 0.98151 0.54819 0.0
H611 H 0.2654 0.98016 0.59031 0.0
C612 C 0.30571 0.94529 0.47683 0.0
C613 C 0.28344 0.95567 0.45666 0.0
C614 C 0.29177 0.94658 0.50111 0.0
C615 C 0.25522 0.95814 0.50574 0.0
C616 C 0.2333 0.96919 0.48561 0.0
C617 C 0.24721 0.96807 0.46145 0.0
C618 C 0.18987 0.94528 0.56062 0.0
C619 C 0.21184 0.95715 0.58057 0.0
C620 C 0.20372 0.946 0.53632 0.0
C621 C 0.23989 0.95849 0.53143 0.0
C622 C 0.26146 0.9711 0.55131 0.0
C623 C 0.24763 0.97054 0.5755 0.0
H624 H 0.46657 0.83534 0.97407 0.0
H625 H 0.43899 0.72632 0.94762 0.0
H626 H 0.46964 0.81159 1.01641 0.0
H627 H 0.43919 0.70305 0.98965 0.0
H628 H 0.46705 0.66064 0.06587 0.0
H629 H 0.4712 0.68449 0.02361 0.0
H630 H 0.43672 0.79215 0.04981 0.0
H631 H 0.43546 0.76883 0.09184 0.0
C632 C 0.46079 0.8064 0.97737 0.0
C633 C 0.4527 0.78275 0.9575 0.0
C634 C 0.46225 0.79266 1.0017 0.0
C635 C 0.4546 0.75512 1.00683 0.0
C636 C 0.44622 0.73176 0.98675 0.0
C637 C 0.44575 0.74526 0.9625 0.0
C638 C 0.46059 0.68941 0.06247 0.0
C639 C 0.45107 0.71282 0.08218 0.0
C640 C 0.46267 0.7032 0.03818 0.0
C641 C 0.45424 0.74053 0.03291 0.0
C642 C 0.4444 0.76363 0.05283 0.0
C643 C 0.44329 0.7501 0.07708 0.0
H644 H 0.66012 0.46881 0.47407 0.0
H645 H 0.76855 0.43942 0.44733 0.0
H646 H 0.68441 0.47278 0.51623 0.0
H647 H 0.79233 0.44053 0.48922 0.0
H648 H 0.83585 0.46882 0.56506 0.0
H649 H 0.8116 0.47287 0.5229 0.0
H650 H 0.70374 0.44022 0.54978 0.0
H651 H 0.72749 0.43902 0.59169 0.0
C652 C 0.68905 0.46286 0.47727 0.0
C653 C 0.71236 0.45394 0.45736 0.0
C654 C 0.7031 0.46482 0.5015 0.0
C655 C 0.74061 0.45687 0.50652 0.0
C656 C 0.76365 0.44779 0.4864 0.0
C657 C 0.74985 0.44679 0.46223 0.0
C658 C 0.80695 0.46278 0.56183 0.0
C659 C 0.78363 0.45375 0.58171 0.0
C660 C 0.79292 0.4648 0.5376 0.0
C661 C 0.75543 0.4568 0.53254 0.0
C662 C 0.7324 0.44754 0.55263 0.0
C663 C 0.74617 0.44649 0.57681 0.0
H664 H 0.02934 0.8319 0.06509 0.0
H665 H 0.05618 0.72294 0.09201 0.0
H666 H 0.02654 0.80793 0.02286 0.0
H667 H 0.05623 0.69939 0.04998 0.0
H668 H 0.02943 0.65752 0.97317 0.0
H669 H 0.02478 0.68104 1.01553 0.0
H670 H 0.06076 0.78857 0.99003 0.0
H671 H 0.06258 0.76563 0.94793 0.0
C672 C 0.03499 0.8029 0.06192 0.0
C673 C 0.0429 0.77936 0.08187 0.0
C674 C 0.03371 0.78905 0.03764 0.0
C675 C 0.04139 0.7515 0.03263 0.0
C676 C 0.04932 0.72816 0.0528 0.0
C677 C 0.04963 0.74179 0.07704 0.0
C678 C 0.03613 0.68619 0.97676 0.0
C679 C 0.04618 0.70971 0.95723 0.0
C680 C 0.03373 0.69978 1.0011 0.0
C681 C 0.04233 0.737 1.00656 0.0
C682 C 0.05286 0.76015 0.98683 0.0
C683 C 0.05429 0.74684 0.96256 0.0
H684 H 0.83591 0.06121 0.47451 0.0
H685 H 0.73261 0.01558 0.44849 0.0
H686 H 0.8123 0.05983 0.51704 0.0
H687 H 0.70943 0.01394 0.49073 0.0
H688 H 0.66512 0.06008 0.56484 0.0
H689 H 0.68933 0.05775 0.52252 0.0
H690 H 0.79369 0.01747 0.55027 0.0
H691 H 0.76987 0.02008 0.59238 0.0
C692 C 0.80842 0.0505 0.47784 0.0
C693 C 0.7862 0.03872 0.45798 0.0
C694 C 0.79486 0.04966 0.50222 0.0
C695 C 0.75878 0.0371 0.50728 0.0
C696 C 0.73703 0.02444 0.48748 0.0
C697 C 0.75054 0.02516 0.46322 0.0
C698 C 0.69312 0.05048 0.56189 0.0
C699 C 0.71548 0.04043 0.58209 0.0
C700 C 0.70701 0.04905 0.53763 0.0
C701 C 0.74359 0.03764 0.533 0.0
C702 C 0.76565 0.02698 0.55317 0.0
C703 C 0.75179 0.02826 0.57735 0.0
H704 H 0.50553 0.83214 0.18803 0.0
H705 H 0.5621 0.80218 0.12033 0.0
H706 H 0.52963 0.8948 0.18452 0.0
H707 H 0.58623 0.86498 0.1169 0.0
H708 H 0.57592 0.99371 0.10601 0.0
H709 H 0.55833 0.92851 0.10896 0.0
H710 H 0.59043 0.92763 0.18608 0.0
H711 H 0.60709 0.99249 0.18336 0.0
C712 C 0.52343 0.83882 0.17257 0.0
C713 C 0.53188 0.81226 0.15447 0.0
C714 C 0.53729 0.87464 0.17058 0.0
C715 C 0.55965 0.8847 0.15037 0.0
C716 C 0.56875 0.85799 0.13252 0.0
C717 C 0.55518 0.82201 0.13464 0.0
C718 C 0.57902 0.97959 0.12357 0.0
C719 C 0.59224 -0.00163 0.14454 0.0
C720 C 0.56939 0.94222 0.12519 0.0
C721 C 0.57271 0.92322 0.14784 0.0
C722 C 0.58712 0.94174 0.16851 0.0
C723 C 0.59692 0.97883 0.16685 0.0
H724 H 0.65971 0.49353 0.68096 0.0
H725 H 0.69967 0.57376 0.62796 0.0
H726 H 0.59672 0.51425 0.67366 0.0
H727 H 0.63635 0.59417 0.62048 0.0
H728 H 0.51777 0.64167 0.63701 0.0
H729 H 0.58289 0.62482 0.64134 0.0
H730 H 0.55315 0.50936 0.6386 0.0
H731 H 0.48839 0.52608 0.63514 0.0
C732 C 0.65511 0.51581 0.66792 0.0
C733 C 0.68466 0.5318 0.65489 0.0
C734 C 0.61898 0.52741 0.66355 0.0
C735 C 0.61161 0.5553 0.64613 0.0
C736 C 0.64125 0.57255 0.63396 0.0
C737 C 0.67748 0.56087 0.63828 0.0
C738 C 0.52537 0.61272 0.63674 0.0
C739 C 0.49808 0.58523 0.63527 0.0
C740 C 0.56256 0.6031 0.63924 0.0
C741 C 0.57297 0.5658 0.6406 0.0
C742 C 0.54583 0.53836 0.63793 0.0
C743 C 0.50874 0.54796 0.63539 0.0
H744 H 0.88938 0.50155 0.18383 0.0
H745 H 0.92148 0.5006 0.10663 0.0
H746 H 0.90593 0.56642 0.18675 0.0
H747 H 0.93886 0.56589 0.10977 0.0
H748 H 0.93292 0.69234 0.12156 0.0
H749 H 0.90969 0.62923 0.11789 0.0
H750 H 0.96691 0.59958 0.18526 0.0
H751 H 0.99019 0.66255 0.18899 0.0
C752 C 0.89974 0.51528 0.16739 0.0
C753 C 0.90465 0.49584 0.14506 0.0
C754 C 0.90947 0.55236 0.16916 0.0
C755 C 0.92401 0.57099 0.14858 0.0
C756 C 0.92768 0.55206 0.12593 0.0
C757 C 0.91816 0.51467 0.12419 0.0
C758 C 0.94017 0.67247 0.13576 0.0
C759 C 0.9634 0.68236 0.15558 0.0
C760 C 0.92713 0.63632 0.1335 0.0
C761 C 0.93668 0.6096 0.15121 0.0
C762 C 0.95896 0.61976 0.17143 0.0
C763 C 0.97232 0.65576 0.17354 0.0
H764 H 0.80384 0.93568 0.62085 0.0
H765 H 0.83235 0.98753 0.69048 0.0
H766 H 0.86718 0.91333 0.61663 0.0
H767 H 0.89562 0.96482 0.68627 0.0
H768 H 0.99406 0.88554 0.6808 0.0
H769 H 0.92911 0.90225 0.68477 0.0
H770 H 0.93034 0.94629 0.61036 0.0
H771 H 0.99569 0.92934 0.6063 0.0
C772 C 0.82346 0.94182 0.63544 0.0
C773 C 0.8132 0.96336 0.65602 0.0
C774 C 0.85973 0.92931 0.63287 0.0
C775 C 0.88617 0.93758 0.65104 0.0
C776 C 0.87563 0.95797 0.67205 0.0
C777 C 0.8395 0.97097 0.67445 0.0
C778 C 0.98039 0.89848 0.66518 0.0
C779 C -0.0001 0.90648 0.6433 0.0
C780 C 0.94335 0.90823 0.66755 0.0
C781 C 0.92492 0.92569 0.64794 0.0
C782 C 0.94403 0.93273 0.62573 0.0
C783 C 0.98137 0.92337 0.62347 0.0
H784 H 0.57256 0.69594 0.9141 0.0
H785 H 0.49476 0.65893 0.85858 0.0
H786 H 0.59235 0.63223 0.92068 0.0
H787 H 0.51485 0.59549 0.86503 0.0
H788 H 0.52441 0.48549 0.90235 0.0
H789 H 0.50815 0.55044 0.89934 0.0
H790 H 0.62383 0.57962 0.89915 0.0
H791 H 0.64018 0.51428 0.90294 0.0
C792 C 0.56006 0.67431 0.90305 0.0
C793 C 0.53187 0.68243 0.88596 0.0
C794 C 0.57141 0.63787 0.90685 0.0
C795 C 0.55465 0.60891 0.89369 0.0
C796 C 0.52763 0.61722 0.87585 0.0
C797 C 0.51639 0.6536 0.87198 0.0
C798 C 0.54638 0.50573 0.90272 0.0
C799 C 0.58359 0.49487 0.90344 0.0
C800 C 0.53707 0.54293 0.90044 0.0
C801 C 0.56474 0.57 0.89867 0.0
C802 C 0.60194 0.55934 0.90056 0.0
C803 C 0.61127 0.52203 0.90275 0.0
H804 H 0.83636 0.49222 0.35795 0.0
H805 H 0.7967 0.57327 0.41051 0.0
H806 H 0.89943 0.51277 0.36515 0.0
H807 H 0.8601 0.59353 0.41789 0.0
H808 H 0.97894 0.64029 0.40099 0.0
H809 H 0.91373 0.62369 0.39679 0.0
H810 H 0.94292 0.50814 0.40033 0.0
H811 H 0.00776 0.5246 0.40367 0.0
C812 C 0.84104 0.51465 0.37087 0.0
C813 C 0.81155 0.53092 0.3838 0.0
C814 C 0.87721 0.52616 0.37518 0.0
C815 C 0.88469 0.55423 0.39246 0.0
C816 C 0.85511 0.57176 0.40452 0.0
C817 C 0.81884 0.56016 0.40026 0.0
C818 C 0.9712 0.61139 0.40147 0.0
C819 C -0.00164 0.58379 0.40313 0.0
C820 C 0.93396 0.60191 0.39904 0.0
C821 C 0.92337 0.56463 0.39793 0.0
C822 C 0.95038 0.5371 0.40079 0.0
C823 C 0.98752 0.54657 0.40327 0.0
H824 H 0.88853 0.99041 0.85674 0.0
H825 H 0.92396 0.99385 0.9332 0.0
H826 H 0.90645 0.92578 0.85413 0.0
H827 H 0.94257 0.92887 0.93041 0.0
H828 H 0.9379 0.80205 0.92036 0.0
H829 H 0.91404 0.86496 0.92368 0.0
H830 H 0.96804 0.89339 0.85486 0.0
H831 H 0.99198 0.83059 0.85148 0.0
C832 C 0.89992 0.97726 0.87308 0.0
C833 C 0.9053 0.99729 0.89511 0.0
C834 C 0.91043 0.94034 0.87148 0.0
C835 C 0.92619 0.92249 0.89197 0.0
C836 C 0.93043 0.94205 0.91434 0.0
C837 C 0.92017 0.97926 0.91587 0.0
C838 C 0.94434 0.8216 0.90578 0.0
C839 C 0.96683 0.81141 0.88564 0.0
C840 C 0.93094 0.85765 0.90783 0.0
C841 C 0.93935 0.88398 0.8896 0.0
C842 C 0.96095 0.87352 0.8691 0.0
C843 C 0.9747 0.83762 0.86719 0.0
H844 H 0.49953 0.91908 0.43211 0.0
H845 H 0.50236 0.88833 0.3547 0.0
H846 H 0.56483 0.93661 0.42981 0.0
H847 H 0.56729 0.90494 0.35261 0.0
H848 H 0.66366 0.98865 0.35164 0.0
H849 H 0.60062 0.96536 0.35461 0.0
H850 H 0.62836 0.90845 0.42247 0.0
H851 H 0.69153 0.93179 0.41959 0.0
C852 C 0.51401 0.91609 0.41467 0.0
C853 C 0.49566 0.90295 0.39351 0.0
C854 C 0.55143 0.92568 0.41341 0.0
C855 C 0.57094 0.92244 0.39094 0.0
C856 C 0.55281 0.90821 0.37006 0.0
C857 C 0.51567 0.89843 0.37136 0.0
C858 C 0.65644 0.97087 0.36705 0.0
C859 C 0.68254 0.96205 0.38535 0.0
C860 C 0.62039 0.95747 0.36872 0.0
C861 C 0.60963 0.93523 0.38883 0.0
C862 C 0.63586 0.92585 0.40692 0.0
C863 C 0.67207 0.93894 0.40512 0.0
H864 H 0.43459 0.19274 0.91708 0.0
H865 H 0.48622 0.16416 0.84736 0.0
H866 H 0.41265 0.12929 0.92149 0.0
H867 H 0.46391 0.10079 0.85176 0.0
H868 H 0.38517 0.00204 0.85759 0.0
H869 H 0.40149 0.06703 0.85351 0.0
H870 H 0.4461 0.06629 0.92775 0.0
H871 H 0.42953 0.00087 0.93195 0.0
C872 C 0.44076 0.17307 0.90251 0.0
C873 C 0.46212 0.18335 0.88185 0.0
C874 C 0.42848 0.13675 0.90519 0.0
C875 C 0.43683 0.11026 0.88705 0.0
C876 C 0.45702 0.12082 0.86596 0.0
C877 C 0.46979 0.157 0.86345 0.0
C878 C 0.39816 0.01581 0.87315 0.0
C879 C 0.40642 0.99642 0.89503 0.0
C880 C 0.40769 0.05288 0.87072 0.0
C881 C 0.42518 0.07147 0.89025 0.0
C882 C 0.4325 0.05247 0.91245 0.0
C883 C 0.42336 0.01509 0.91478 0.0
H884 H 0.30143 0.43423 0.41757 0.0
H885 H 0.33187 0.49189 0.3504 0.0
H886 H 0.36447 0.41087 0.42138 0.0
H887 H 0.39478 0.46848 0.35427 0.0
H888 H 0.49242 0.39038 0.35567 0.0
H889 H 0.42768 0.40737 0.35266 0.0
H890 H 0.42792 0.43965 0.42975 0.0
H891 H 0.49308 0.42182 0.43299 0.0
C892 C 0.32143 0.44155 0.40346 0.0
C893 C 0.31173 0.4649 0.38366 0.0
C894 C 0.35754 0.42844 0.4058 0.0
C895 C 0.38443 0.43803 0.3882 0.0
C896 C 0.37447 0.46048 0.36802 0.0
C897 C 0.33851 0.47392 0.36582 0.0
C898 C 0.47865 0.40069 0.37212 0.0
C899 C 0.49798 0.40526 0.39452 0.0
C900 C 0.44164 0.41068 0.37029 0.0
C901 C 0.42297 0.42516 0.39087 0.0
C902 C 0.44178 0.42851 0.41359 0.0
C903 C 0.47909 0.41873 0.41538 0.0
H904 H 0.00386 0.3302 0.85115 0.0
H905 H 0.06148 0.30113 0.91859 0.0
H906 H 0.02799 0.39292 0.85414 0.0
H907 H 0.08565 0.36396 0.92148 0.0
H908 H 0.07657 0.49271 0.93173 0.0
H909 H 0.05826 0.42765 0.92927 0.0
H910 H 0.08875 0.42559 0.85185 0.0
H911 H 0.10614 0.49031 0.85409 0.0
C912 C 0.02198 0.33709 0.86645 0.0
C913 C 0.03075 0.31076 0.88463 0.0
C914 C 0.03586 0.37295 0.86813 0.0
C915 C 0.05855 0.38326 0.88811 0.0
C916 C 0.0679 0.35679 0.90604 0.0
C917 C 0.05432 0.32078 0.90424 0.0
C918 C 0.07914 0.47837 0.9142 0.0
C919 C 0.09217 0.49676 0.89302 0.0
C920 C 0.0691 0.44108 0.91286 0.0
C921 C 0.07179 0.42178 0.89028 0.0
C922 C 0.08592 0.43994 0.86938 0.0
C923 C 0.09614 0.47694 0.87076 0.0
H924 H 0.00101 0.07624 0.43134 0.0
H925 H 0.00248 0.1075 0.35401 0.0
H926 H 0.06637 0.05915 0.42854 0.0
H927 H 0.0675 0.09132 0.35144 0.0
H928 H 0.16381 0.00722 0.34981 0.0
H929 H 0.10091 0.03081 0.3531 0.0
H930 H 0.1297 0.08768 0.42079 0.0
H931 H 0.19273 0.06407 0.41759 0.0
C932 C 0.01522 0.07945 0.41382 0.0
C933 C 0.99647 0.09257 0.39281 0.0
C934 C 0.05267 0.07011 0.41228 0.0
C935 C 0.07181 0.07362 0.38969 0.0
C936 C 0.05329 0.08788 0.36897 0.0
C937 C 0.01612 0.0974 0.37055 0.0
C938 C 0.15685 0.02508 0.36524 0.0
C939 C 0.18318 0.03377 0.38343 0.0
C940 C 0.12089 0.03865 0.3671 0.0
C941 C 0.11047 0.06093 0.38727 0.0
C942 C 0.13696 0.07026 0.4052 0.0
C943 C 0.17308 0.057 0.40321 0.0
H944 H 0.43155 0.30353 0.11877 0.0
H945 H 0.48891 0.33097 0.18661 0.0
H946 H 0.4084 0.36678 0.11609 0.0
H947 H 0.4658 0.39409 0.18383 0.0
H948 H 0.38897 0.49256 0.18415 0.0
H949 H 0.40552 0.42761 0.18608 0.0
H950 H 0.43668 0.43022 0.10879 0.0
H951 H 0.4192 0.49554 0.10663 0.0
C952 C 0.43886 0.32291 0.13326 0.0
C953 C 0.46204 0.3123 0.15293 0.0
C954 C 0.42586 0.35916 0.13157 0.0
C955 C 0.43544 0.3853 0.14968 0.0
C956 C 0.45776 0.3744 0.1697 0.0
C957 C 0.47105 0.33831 0.17127 0.0
C958 C 0.39895 0.47928 0.16743 0.0
C959 C 0.40333 0.49933 0.1453 0.0
C960 C 0.40869 0.44213 0.16864 0.0
C961 C 0.42275 0.42403 0.14768 0.0
C962 C 0.42588 0.44359 0.12523 0.0
C963 C 0.41632 0.48102 0.12407 0.0
H964 H 0.16374 0.49596 0.6882 0.0
H965 H 0.19438 0.43687 0.62162 0.0
H966 H 0.10086 0.47236 0.6845 0.0
H967 H 0.1314 0.41334 0.61798 0.0
H968 H 0.00288 0.42293 0.60617 0.0
H969 H 0.06784 0.44155 0.6093 0.0
H970 H 0.06819 0.41114 0.68673 0.0
H971 H 0.00365 0.39329 0.68379 0.0
C972 C 0.15715 0.47765 0.67293 0.0
C973 C 0.18399 0.46826 0.65522 0.0
C974 C 0.12121 0.46411 0.67083 0.0
C975 C 0.11132 0.44118 0.65087 0.0
C976 C 0.13826 0.43128 0.63339 0.0
C977 C 0.17434 0.44449 0.63563 0.0
C978 C 0.01686 0.42041 0.62382 0.0
C979 C -0.00193 0.40716 0.64478 0.0
C980 C 0.05405 0.43067 0.62556 0.0
C981 C 0.07284 0.42804 0.64833 0.0
C982 C 0.05424 0.41388 0.66905 0.0
C983 C 0.01736 0.40339 0.66727 0.0
H984 H 0.02389 0.98583 0.13453 0.0
H985 H 0.13961 0.01455 0.13722 0.0
H986 H 0.00748 0.05067 0.138 0.0
H987 H 0.12307 0.07975 0.14153 0.0
H988 H 0.07297 0.19692 0.12832 0.0
H989 H 0.093 0.13353 0.12065 0.0
H990 H 0.01214 0.09402 0.17326 0.0
H991 H 0.99181 0.1571 0.18075 0.0
C992 C 0.04588 0.00605 0.13495 0.0
C993 C 0.0831 0.99517 0.13508 0.0
C994 C 0.03644 0.04319 0.1375 0.0
C995 C 0.06399 0.07017 0.1404 0.0
C996 C 0.10126 0.05955 0.13925 0.0
C997 C 0.11071 0.02231 0.13676 0.0
C998 C 0.05978 0.17474 0.13847 0.0
C999 C 0.03058 0.182 0.15499 0.0
C1000 C 0.07125 0.13847 0.13405 0.0
C1001 C 0.05364 0.10885 0.146 0.0
C1002 C 0.02559 0.11627 0.16331 0.0
C1003 C 0.01421 0.15245 0.16779 0.0
H1004 H 0.30052 0.07378 0.62409 0.0
H1005 H 0.33593 -0.00204 0.68128 0.0
H1006 H 0.3644 0.09319 0.61789 0.0
H1007 H 0.39957 0.01775 0.67526 0.0
H1008 H 0.51049 0.02548 0.63869 0.0
H1009 H 0.44549 0.00959 0.64191 0.0
H1010 H 0.41663 0.12527 0.63885 0.0
H1011 H 0.48203 0.14118 0.63477 0.0
C1012 C 0.32182 0.06167 0.6356 0.0
C1013 C 0.31321 0.0341 0.65304 0.0
C1014 C 0.35838 0.07281 0.63203 0.0
C1015 C 0.38698 0.0565 0.64578 0.0
C1016 C 0.37815 0.03016 0.66398 0.0
C1017 C 0.34165 0.0191 0.66759 0.0
C1018 C 0.49032 0.04748 0.63768 0.0
C1019 C 0.5013 0.08457 0.63589 0.0
C1020 C 0.45307 0.0384 0.64009 0.0
C1021 C 0.42605 0.06622 0.64095 0.0
C1022 C 0.43686 0.10325 0.63814 0.0
C1023 C 0.4742 0.11234 0.63578 0.0
H1024 H 0.85327 0.22229 0.19017 0.0
H1025 H 0.81779 0.32745 0.16058 0.0
H1026 H 0.78877 0.20424 0.1956 0.0
H1027 H 0.75386 0.30909 0.16534 0.0
H1028 H 0.63931 0.27541 0.18625 0.0
H1029 H 0.70341 0.29428 0.19266 0.0
H1030 H 0.74043 0.18726 0.16729 0.0
H1031 H 0.67694 0.16818 0.16156 0.0
C1032 C 0.8318 0.24167 0.18504 0.0
C1033 C 0.84076 0.27613 0.17468 0.0
C1034 C 0.79484 0.23129 0.18806 0.0
C1035 C 0.76611 0.25511 0.18073 0.0
C1036 C 0.77518 0.29021 0.17147 0.0
C1037 C 0.81199 0.3006 0.16853 0.0
C1038 C 0.66115 0.25579 0.18239 0.0
C1039 C 0.65294 0.22044 0.17314 0.0
C1040 C 0.69788 0.26662 0.18597 0.0
C1041 C 0.7271 0.24235 0.18036 0.0
C1042 C 0.71871 0.20652 0.17214 0.0
C1043 C 0.68215 0.1957 0.16862 0.0
H1044 H 0.33124 0.6813 0.66091 0.0
H1045 H 0.22788 0.64472 0.69273 0.0
H1046 H 0.31255 0.7451 0.66638 0.0
H1047 H 0.20964 0.70892 0.69896 0.0
H1048 H 0.16997 0.81931 0.66511 0.0
H1049 H 0.19052 0.75641 0.67095 0.0
H1050 H 0.29804 0.79589 0.69351 0.0
H1051 H 0.27759 0.85952 0.68695 0.0
C1052 C 0.30477 0.68683 0.66952 0.0
C1053 C 0.28077 0.65782 0.67599 0.0
C1054 C 0.2942 0.72355 0.67288 0.0
C1055 C 0.25945 0.7322 0.68292 0.0
C1056 C 0.23634 0.70319 0.69076 0.0
C1057 C 0.24684 0.66638 0.68727 0.0
C1058 C 0.19789 0.81482 0.67161 0.0
C1059 C 0.22226 0.84458 0.67527 0.0
C1060 C 0.2096 0.77856 0.67521 0.0
C1061 C 0.24598 0.77099 0.68264 0.0
C1062 C 0.26994 0.80078 0.68745 0.0
C1063 C 0.2582 0.83724 0.68381 0.0
H1064 H 0.81563 0.16713 0.87648 0.0
H1065 H 0.85414 0.27194 0.84805 0.0
H1066 H 0.75227 0.18655 0.87048 0.0
H1067 H 0.79022 0.29108 0.84136 0.0
H1068 H 0.67714 0.32821 0.87372 0.0
H1069 H 0.74068 0.30868 0.86855 0.0
H1070 H 0.70346 0.20225 0.84225 0.0
H1071 H 0.63941 0.22148 0.84817 0.0
C1072 C 0.81064 0.19413 0.86852 0.0
C1073 C 0.84006 0.21818 0.86306 0.0
C1074 C 0.77415 0.20514 0.86485 0.0
C1075 C 0.76608 0.24045 0.85553 0.0
C1076 C 0.79551 0.26388 0.84891 0.0
C1077 C 0.83214 0.25287 0.85266 0.0
C1078 C 0.68235 0.30075 0.86655 0.0
C1079 C 0.65311 0.27619 0.86173 0.0
C1080 C 0.71893 0.28966 0.86335 0.0
C1081 C 0.72725 0.25379 0.85515 0.0
C1082 C 0.69798 0.22989 0.849 0.0
C1083 C 0.66127 0.24096 0.85228 0.0
H1084 H 0.21877 0.85604 0.34958 0.0
H1085 H 0.32545 0.81754 0.37467 0.0
H1086 H 0.19931 0.7921 0.34327 0.0
H1087 H 0.30577 0.75421 0.36906 0.0
H1088 H 0.16483 0.67823 0.3759 0.0
H1089 H 0.18363 0.742 0.37058 0.0
H1090 H 0.28853 0.70579 0.34102 0.0
H1091 H 0.2701 0.64158 0.34708 0.0
C1092 C 0.23817 0.83404 0.35353 0.0
C1093 C 0.27352 0.84196 0.36288 0.0
C1094 C 0.22697 0.7974 0.35001 0.0
C1095 C 0.25089 0.76798 0.35579 0.0
C1096 C 0.28676 0.77608 0.36409 0.0
C1097 C 0.29794 0.81255 0.36754 0.0
C1098 C 0.19178 0.68373 0.36799 0.0
C1099 C 0.2162 0.65472 0.36229 0.0
C1100 C 0.20243 0.72044 0.36471 0.0
C1101 C 0.23771 0.72909 0.35555 0.0
C1102 C 0.26138 0.70006 0.34853 0.0
C1103 C 0.25076 0.66325 0.35189 0.0
H1104 H 0.18039 0.6663 0.87647 0.0
H1105 H 0.14293 0.77104 0.84731 0.0
H1106 H 0.244 0.68532 0.87077 0.0
H1107 H 0.20703 0.78972 0.8409 0.0
H1108 H 0.31871 0.82721 0.87444 0.0
H1109 H 0.25552 0.80734 0.8688 0.0
H1110 H 0.29383 0.70097 0.84307 0.0
H1111 H 0.35772 0.72069 0.84937 0.0
C1112 C 0.18567 0.69318 0.86841 0.0
C1113 C 0.15648 0.71738 0.8627 0.0
C1114 C 0.22229 0.70395 0.86491 0.0
C1115 C 0.23069 0.73914 0.85552 0.0
C1116 C 0.20148 0.76262 0.84855 0.0
C1117 C 0.16475 0.75188 0.85214 0.0
C1118 C 0.31388 0.79972 0.86726 0.0
C1119 C 0.34341 0.7754 0.86265 0.0
C1120 C 0.27747 0.78841 0.8638 0.0
C1121 C 0.26951 0.7525 0.85556 0.0
C1122 C 0.29904 0.72868 0.84976 0.0
C1123 C 0.33564 0.74003 0.85327 0.0
H1124 H 0.7186 0.13947 0.35238 0.0
H1125 H 0.82641 0.17712 0.37586 0.0
H1126 H 0.6994 0.20358 0.34649 0.0
H1127 H 0.80701 0.24061 0.37065 0.0
H1128 H 0.77107 0.35356 0.34859 0.0
H1129 H 0.78917 0.28917 0.34279 0.0
H1130 H 0.68517 0.25377 0.37417 0.0
H1131 H 0.66673 0.31764 0.37929 0.0
C1132 C 0.73829 0.16132 0.35607 0.0
C1133 C 0.7739 0.1531 0.36484 0.0
C1134 C 0.72725 0.19805 0.3528 0.0
C1135 C 0.7516 0.22728 0.35824 0.0
C1136 C 0.78767 0.21889 0.36595 0.0
C1137 C 0.79869 0.18233 0.36917 0.0
C1138 C 0.75188 0.33202 0.35391 0.0
C1139 C 0.71764 0.34082 0.36466 0.0
C1140 C 0.7623 0.29511 0.35068 0.0
C1141 C 0.73873 0.26627 0.35819 0.0
C1142 C 0.70384 0.27518 0.36788 0.0
C1143 C 0.6934 0.31196 0.37104 0.0
H1144 H 0.31683 0.6689 0.16384 0.0
H1145 H 0.35453 0.77503 0.1905 0.0
H1146 H 0.25331 0.68818 0.16937 0.0
H1147 H 0.29045 0.79406 0.1967 0.0
H1148 H 0.17705 0.82905 0.16363 0.0
H1149 H 0.24079 0.81022 0.16908 0.0
H1150 H 0.2044 0.70468 0.19743 0.0
H1151 H 0.14022 0.72318 0.19127 0.0
C1152 C 0.31162 0.69618 0.17131 0.0
C1153 C 0.34087 0.7206 0.17642 0.0
C1154 C 0.27505 0.70712 0.17471 0.0
C1155 C 0.2667 0.74274 0.18338 0.0
C1156 C 0.29595 0.7666 0.18964 0.0
C1157 C 0.33267 0.75565 0.18619 0.0
C1158 C 0.1825 0.80195 0.17131 0.0
C1159 C 0.15345 0.7774 0.17665 0.0
C1160 C 0.21918 0.79128 0.17466 0.0
C1161 C 0.22778 0.75583 0.18352 0.0
C1162 C 0.19871 0.73198 0.19017 0.0
C1163 C 0.16192 0.74264 0.18675 0.0
H1164 H 0.66831 0.17872 0.66549 0.0
H1165 H 0.77607 0.1408 0.68883 0.0
H1166 H 0.68793 0.24219 0.67068 0.0
H1167 H 0.79546 0.20481 0.69476 0.0
H1168 H 0.82877 0.31794 0.66086 0.0
H1169 H 0.8099 0.25432 0.66666 0.0
H1170 H 0.70637 0.29115 0.69802 0.0
H1171 H 0.72489 0.35526 0.69153 0.0
C1172 C 0.69604 0.18387 0.67217 0.0
C1173 C 0.72081 0.1546 0.67638 0.0
C1174 C 0.70719 0.22041 0.67539 0.0
C1175 C 0.74336 0.22867 0.68299 0.0
C1176 C 0.76756 0.19937 0.6885 0.0
C1177 C 0.75641 0.16269 0.68522 0.0
C1178 C 0.80211 0.31262 0.66926 0.0
C1179 C 0.77812 0.34179 0.67541 0.0
C1180 C 0.79143 0.276 0.67281 0.0
C1181 C 0.75653 0.26755 0.6827 0.0
C1182 C 0.73323 0.29672 0.69 0.0
C1183 C 0.74389 0.33347 0.68637 0.0
H1184 H 0.40015 0.97997 0.30158 0.0
H1185 H 0.34576 0.07972 0.32565 0.0
H1186 H 0.43189 0.01446 0.269 0.0
H1187 H 0.377 0.11437 0.29253 0.0
H1188 H 0.41532 0.14926 0.21177 0.0
H1189 H 0.38085 0.11813 0.24502 0.0
H1190 H 0.48106 0.06393 0.26864 0.0
H1191 H 0.51536 0.09554 0.23592 0.0
C1192 C 0.39513 0.00936 0.29992 0.0
C1193 C 0.37115 0.02736 0.31644 0.0
C1194 C 0.41323 0.0291 0.28126 0.0
C1195 C 0.40731 0.06723 0.27841 0.0
C1196 C 0.3821 0.08501 0.29429 0.0
C1197 C 0.36426 0.06525 0.3132 0.0
C1198 C 0.4299 0.13096 0.22428 0.0
C1199 C 0.46781 0.1242 0.22102 0.0
C1200 C 0.41024 0.11318 0.24327 0.0
C1201 C 0.42815 0.08816 0.25921 0.0
C1202 C 0.46632 0.08244 0.25635 0.0
C1203 C 0.48595 0.10048 0.23761 0.0
H1204 H 0.41468 0.34763 0.82555 0.0
H1205 H 0.51512 0.40205 0.80288 0.0
H1206 H 0.38091 0.3793 0.79227 0.0
H1207 H 0.48162 0.43393 0.76996 0.0
H1208 H 0.40294 0.51693 0.73461 0.0
H1209 H 0.434 0.48285 0.7676 0.0
H1210 H 0.37645 0.38353 0.74583 0.0
H1211 H 0.3456 0.41789 0.71247 0.0
C1212 C 0.42949 0.36624 0.81336 0.0
C1213 C 0.46732 0.37295 0.81703 0.0
C1214 C 0.41024 0.38431 0.79433 0.0
C1215 C 0.42848 0.40952 0.77867 0.0
C1216 C 0.46656 0.41533 0.78202 0.0
C1217 C 0.48576 0.39711 0.80087 0.0
C1218 C 0.39716 0.48775 0.73676 0.0
C1219 C 0.37244 0.46985 0.72071 0.0
C1220 C 0.41492 0.46822 0.75565 0.0
C1221 C 0.40808 0.43035 0.75916 0.0
C1222 C 0.38227 0.41269 0.74365 0.0
C1223 C 0.36466 0.43228 0.72457 0.0
H1224 H 0.1501 0.41464 0.32658 0.0
H1225 H 0.09252 0.51353 0.3044 0.0
H1226 H 0.11889 0.38004 0.29346 0.0
H1227 H 0.06106 0.47919 0.2717 0.0
H1228 H 0.97951 0.39856 0.23707 0.0
H1229 H 0.01335 0.42998 0.27004 0.0
H1230 H 0.11387 0.37583 0.24681 0.0
H1231 H 0.07973 0.34463 0.21346 0.0
C1232 C 0.13091 0.42895 0.31454 0.0
C1233 C 0.12316 0.46655 0.31831 0.0
C1234 C 0.11309 0.40921 0.2956 0.0
C1235 C 0.08708 0.42675 0.28018 0.0
C1236 C 0.08029 0.46465 0.2836 0.0
C1237 C 0.09827 0.48433 0.30233 0.0
C1238 C 0.00888 0.39357 0.23893 0.0
C1239 C 0.02719 0.36981 0.22244 0.0
C1240 C 0.02828 0.41154 0.2578 0.0
C1241 C 0.06643 0.40583 0.26084 0.0
C1242 C 0.0845 0.3808 0.24496 0.0
C1243 C 0.06504 0.36299 0.22589 0.0
H1244 H 0.97679 0.10253 0.79876 0.0
H1245 H 0.07935 0.14179 0.82958 0.0
H1246 H 0.01044 0.07276 0.76494 0.0
H1247 H 0.11336 0.11276 0.79537 0.0
H1248 H 0.16088 0.01662 0.74779 0.0
H1249 H 0.12925 0.05076 0.7807 0.0
H1250 H 0.04633 0.08588 0.72814 0.0
H1251 H 0.07807 0.05162 0.69538 0.0
C1252 C 0.00662 0.10481 0.79817 0.0
C1253 C 0.02561 0.12393 0.81687 0.0
C1254 C 0.02591 0.08808 0.7787 0.0
C1255 C 0.06468 0.09022 0.77742 0.0
C1256 C 0.08358 0.11011 0.79595 0.0
C1257 C 0.06418 0.12694 0.81542 0.0
C1258 C 0.13625 0.03221 0.74326 0.0
C1259 C 0.12206 0.03178 0.71903 0.0
C1260 C 0.11809 0.05175 0.76209 0.0
C1261 C 0.08518 0.0711 0.75712 0.0
C1262 C 0.07131 0.07093 0.73273 0.0
C1263 C 0.08953 0.05146 0.71394 0.0
H1264 H 0.64339 0.91537 0.70954 0.0
H1265 H 0.60197 0.01789 0.73918 0.0
H1266 H 0.61371 0.88152 0.74358 0.0
H1267 H 0.57174 0.98437 0.77289 0.0
H1268 H 0.55174 0.91728 0.84303 0.0
H1269 H 0.5858 0.94892 0.81013 0.0
H1270 H 0.55095 0.86551 0.75784 0.0
H1271 H 0.51678 0.83408 0.79085 0.0
C1272 C 0.6279 0.93056 0.72339 0.0
C1273 C 0.62455 0.96909 0.72167 0.0
C1274 C 0.61074 0.91125 0.74276 0.0
C1275 C 0.59022 0.93019 0.76095 0.0
C1276 C 0.58757 0.9689 0.75937 0.0
C1277 C 0.60457 0.9881 0.73996 0.0
C1278 C 0.55157 0.90569 0.8245 0.0
C1279 C 0.53192 0.8731 0.81952 0.0
C1280 C 0.57093 0.92384 0.80564 0.0
C1281 C 0.57111 0.90981 0.7813 0.0
C1282 C 0.55187 0.8768 0.77643 0.0
C1283 C 0.53236 0.85874 0.79532 0.0
H1284 H 0.47962 0.59649 0.23702 0.0
H1285 H 0.57968 0.65011 0.21279 0.0
H1286 H 0.51387 0.56482 0.26969 0.0
H1287 H 0.61418 0.61879 0.24593 0.0
H1288 H 0.65006 0.5799 0.32613 0.0
H1289 H 0.61891 0.61466 0.29305 0.0
H1290 H 0.56224 0.51531 0.27038 0.0
H1291 H 0.59376 0.48077 0.30299 0.0
C1292 C 0.50904 0.60138 0.23868 0.0
C1293 C 0.52719 0.6251 0.22208 0.0
C1294 C 0.52865 0.58328 0.25738 0.0
C1295 C 0.56685 0.58888 0.26018 0.0
C1296 C 0.58478 0.61391 0.24424 0.0
C1297 C 0.56511 0.63179 0.2253 0.0
C1298 C 0.63117 0.56558 0.31388 0.0
C1299 C 0.6237 0.52786 0.31739 0.0
C1300 C 0.61339 0.58541 0.29497 0.0
C1301 C 0.58769 0.56785 0.27935 0.0
C1302 C 0.58125 0.52983 0.28245 0.0
C1303 C 0.59926 0.51005 0.30111 0.0
H1304 H 0.90133 0.48099 0.73623 0.0
H1305 H 0.84638 0.58071 0.71276 0.0
H1306 H 0.93293 0.51525 0.76894 0.0
H1307 H 0.87759 0.61519 0.74597 0.0
H1308 H 0.91682 0.64978 0.8266 0.0
H1309 H 0.88203 0.61895 0.79337 0.0
H1310 H 0.98194 0.56453 0.76929 0.0
H1311 H 0.01649 0.59574 0.80203 0.0
C1312 C 0.89614 0.51034 0.73807 0.0
C1313 C 0.87209 0.52842 0.72166 0.0
C1314 C 0.91418 0.52994 0.75679 0.0
C1315 C 0.90816 0.56804 0.75981 0.0
C1316 C 0.88279 0.58587 0.74409 0.0
C1317 C 0.86498 0.56621 0.72511 0.0
C1318 C 0.93125 0.63149 0.81399 0.0
C1319 C 0.96913 0.62451 0.81713 0.0
C1320 C 0.91141 0.61389 0.79502 0.0
C1321 C 0.92915 0.58887 0.77897 0.0
C1322 C 0.96732 0.58301 0.78168 0.0
C1323 C 0.9871 0.60084 0.80041 0.0
H1324 H 0.01287 0.9026 0.23374 0.0
H1325 H 0.91396 0.84426 0.2125 0.0
H1326 H 0.97878 0.93438 0.26644 0.0
H1327 H 0.87967 0.87569 0.24569 0.0
H1328 H 0.84595 0.91533 0.3261 0.0
H1329 H 0.87675 0.88104 0.29263 0.0
H1330 H 0.9288 0.98187 0.26796 0.0
H1331 H 0.89767 0.0159 0.30101 0.0
C1332 C 0.98372 0.89675 0.23602 0.0
C1333 C 0.96586 0.87154 0.22028 0.0
C1334 C 0.96419 0.91491 0.25476 0.0
C1335 C 0.92639 0.90792 0.25847 0.0
C1336 C 0.90877 0.88163 0.24331 0.0
C1337 C 0.92833 0.86368 0.22434 0.0
C1338 C 0.86373 0.93007 0.31332 0.0
C1339 C 0.87004 0.96808 0.31638 0.0
C1340 C 0.88131 0.91051 0.29419 0.0
C1341 C 0.90564 0.92865 0.27787 0.0
C1342 C 0.91088 0.96693 0.28054 0.0
C1343 C 0.89308 0.98642 0.29945 0.0
loop_
_geom_bond_atom_site_label_1
_geom_bond_atom_site_label_2
_geom_bond_distance
_geom_bond_site_symmetry_2
_ccdc_geom_bond_type
Co0 O3 1.970 . S
Co0 N17 1.989 . S
Co0 O25 1.967 . S
Co0 O32 1.920 . S
Co1 O4 1.966 . S
Co1 N10 2.022 . S
Co1 N18 1.993 . S
Co1 O26 1.941 . S
C2 O3 1.258 . S
C2 O4 1.263 . S
O3 Co0 1.970 . S
O3 C2 1.258 . S
O4 Co1 1.966 . S
O4 C2 1.263 . S
C5 O6 1.235 . S
C5 O32 1.289 . S
O6 C5 1.235 . S
C7 C9 1.400 . S
C7 N10 1.351 . S
C7 C12 1.501 . S
C8 C9 1.387 . S
C8 N11 1.341 . S
C9 C7 1.400 . S
C9 C8 1.387 . S
N10 Co1 2.022 . S
N10 C7 1.351 . S
N10 N11 1.365 . S
N11 C8 1.341 . S
N11 N10 1.365 . S
N11 H31 0.862 . S
C12 C7 1.501 . S
C12 H13 0.961 . S
C12 H14 0.961 . S
C12 H15 0.960 . S
H13 C12 0.961 . S
H14 C12 0.961 . S
H15 C12 0.960 . S
C16 N17 1.342 . S
C16 C20 1.401 . S
C16 C21 1.499 . S
N17 Co0 1.989 . S
N17 C16 1.342 . S
N17 N18 1.388 . S
N18 Co1 1.993 . S
N18 N17 1.388 . S
N18 C19 1.346 . S
C19 N18 1.346 . S
C19 C20 1.396 . S
C19 C29 1.510 . S
C20 C16 1.401 . S
C20 C19 1.396 . S
C21 C16 1.499 . S
C21 H22 0.959 . S
C21 H23 0.960 . S
C21 H24 0.961 . S
H22 C21 0.959 . S
H23 C21 0.960 . S
H24 C21 0.961 . S
O25 Co0 1.967 . S
O25 C33 1.258 . S
O26 Co1 1.941 . S
O26 C33 1.266 . S
H27 C29 0.959 . S
H28 C29 0.961 . S
C29 C19 1.510 . S
C29 H27 0.959 . S
C29 H28 0.961 . S
C29 H30 0.960 . S
H30 C29 0.960 . S
H31 N11 0.862 . S
O32 Co0 1.920 . S
O32 C5 1.289 . S
C33 O25 1.258 . S
C33 O26 1.266 . S
Co34 O37 1.970 . S
Co34 N51 1.989 . S
Co34 O59 1.967 . S
Co34 O66 1.920 . S
Co35 O38 1.966 . S
Co35 N44 2.022 . S
Co35 N52 1.993 . S
Co35 O60 1.941 . S
C36 O37 1.258 . S
C36 O38 1.263 . S
O37 Co34 1.970 . S
O37 C36 1.258 . S
O38 Co35 1.966 . S
O38 C36 1.263 . S
C39 O40 1.235 . S
C39 O66 1.289 . S
O40 C39 1.235 . S
C41 C43 1.400 . S
C41 N44 1.351 . S
C41 C46 1.501 . S
C42 C43 1.387 . S
C42 N45 1.341 . S
C43 C41 1.400 . S
C43 C42 1.387 . S
N44 Co35 2.022 . S
N44 C41 1.351 . S
N44 N45 1.365 . S
N45 C42 1.341 . S
N45 N44 1.365 . S
N45 H65 0.862 . S
C46 C41 1.501 . S
C46 H47 0.961 . S
C46 H48 0.961 . S
C46 H49 0.960 . S
H47 C46 0.961 . S
H48 C46 0.961 . S
H49 C46 0.960 . S
C50 N51 1.342 . S
C50 C54 1.401 . S
C50 C55 1.499 . S
N51 Co34 1.989 . S
N51 C50 1.342 . S
N51 N52 1.388 . S
N52 Co35 1.993 . S
N52 N51 1.388 . S
N52 C53 1.346 . S
C53 N52 1.346 . S
C53 C54 1.396 . S
C53 C63 1.510 . S
C54 C50 1.401 . S
C54 C53 1.396 . S
C55 C50 1.499 . S
C55 H56 0.959 . S
C55 H57 0.960 . S
C55 H58 0.961 . S
H56 C55 0.959 . S
H57 C55 0.960 . S
H58 C55 0.961 . S
O59 Co34 1.967 . S
O59 C67 1.258 . S
O60 Co35 1.941 . S
O60 C67 1.266 . S
H61 C63 0.959 . S
H62 C63 0.961 . S
C63 C53 1.510 . S
C63 H61 0.959 . S
C63 H62 0.961 . S
C63 H64 0.960 . S
H64 C63 0.960 . S
H65 N45 0.862 . S
O66 Co34 1.920 . S
O66 C39 1.289 . S
C67 O59 1.258 . S
C67 O60 1.266 . S
Co68 O71 1.970 . S
Co68 N85 1.989 1_655 S
Co68 O93 1.967 . S
Co68 O100 1.920 . S
Co69 O72 1.966 . S
Co69 N78 2.022 . S
Co69 N86 1.993 1_655 S
Co69 O94 1.941 . S
C70 O71 1.258 . S
C70 O72 1.263 . S
O71 Co68 1.970 . S
O71 C70 1.258 . S
O72 Co69 1.966 . S
O72 C70 1.263 . S
C73 O74 1.235 . S
C73 O100 1.289 1_455 S
O74 C73 1.235 . S
C75 C77 1.400 . S
C75 N78 1.351 . S
C75 C80 1.501 1_655 S
C76 C77 1.387 . S
C76 N79 1.341 . S
C77 C75 1.400 . S
C77 C76 1.387 . S
N78 Co69 2.022 . S
N78 C75 1.351 . S
N78 N79 1.365 . S
N79 C76 1.341 . S
N79 N78 1.365 . S
N79 H99 0.862 . S
C80 C75 1.501 1_455 S
C80 H81 0.959 1_455 S
C80 H82 0.961 . S
C80 H83 0.960 1_455 S
H81 C80 0.959 1_655 S
H82 C80 0.961 . S
H83 C80 0.960 1_655 S
C84 N85 1.342 . S
C84 C88 1.401 . S
C84 C89 1.499 . S
N85 Co68 1.989 1_455 S
N85 C84 1.342 . S
N85 N86 1.388 . S
N86 Co69 1.993 1_455 S
N86 N85 1.388 . S
N86 C87 1.346 . S
C87 N86 1.346 . S
C87 C88 1.396 . S
C87 C97 1.510 . S
C88 C84 1.401 . S
C88 C87 1.396 . S
C89 C84 1.499 . S
C89 H90 0.959 . S
C89 H91 0.960 . S
C89 H92 0.961 . S
H90 C89 0.959 . S
H91 C89 0.960 . S
H92 C89 0.961 . S
O93 Co68 1.967 . S
O93 C101 1.258 . S
O94 Co69 1.941 . S
O94 C101 1.266 . S
H95 C97 0.959 . S
H96 C97 0.961 . S
C97 C87 1.510 . S
C97 H95 0.959 . S
C97 H96 0.961 . S
C97 H98 0.960 . S
H98 C97 0.960 . S
H99 N79 0.862 . S
O100 Co68 1.920 . S
O100 C73 1.289 1_655 S
C101 O93 1.258 . S
C101 O94 1.266 . S
Co102 O105 1.970 . S
Co102 N119 1.989 1_565 S
Co102 O127 1.967 . S
Co102 O134 1.920 . S
Co103 O106 1.966 . S
Co103 N112 2.022 . S
Co103 N120 1.993 1_565 S
Co103 O128 1.941 . S
C104 O105 1.258 . S
C104 O106 1.263 . S
O105 Co102 1.970 . S
O105 C104 1.258 . S
O106 Co103 1.966 . S
O106 C104 1.263 . S
C107 O108 1.235 . S
C107 O134 1.289 1_545 S
O108 C107 1.235 . S
C109 C111 1.400 . S
C109 N112 1.351 . S
C109 C114 1.501 1_565 S
C110 C111 1.387 . S
C110 N113 1.341 . S
C111 C109 1.400 . S
C111 C110 1.387 . S
N112 Co103 2.022 . S
N112 C109 1.351 . S
N112 N113 1.365 . S
N113 C110 1.341 . S
N113 N112 1.365 . S
N113 H133 0.862 . S
C114 C109 1.501 1_545 S
C114 H115 0.959 1_545 S
C114 H116 0.961 . S
C114 H117 0.960 1_545 S
H115 C114 0.959 1_565 S
H116 C114 0.961 . S
H117 C114 0.960 1_565 S
C118 N119 1.342 . S
C118 C122 1.401 . S
C118 C123 1.499 . S
N119 Co102 1.989 1_545 S
N119 C118 1.342 . S
N119 N120 1.388 . S
N120 Co103 1.993 1_545 S
N120 N119 1.388 . S
N120 C121 1.346 . S
C121 N120 1.346 . S
C121 C122 1.396 . S
C121 C131 1.510 . S
C122 C118 1.401 . S
C122 C121 1.396 . S
C123 C118 1.499 . S
C123 H124 0.959 . S
C123 H125 0.960 . S
C123 H126 0.961 . S
H124 C123 0.959 . S
H125 C123 0.960 . S
H126 C123 0.961 . S
O127 Co102 1.967 . S
O127 C135 1.258 . S
O128 Co103 1.941 . S
O128 C135 1.266 . S
H129 C131 0.959 . S
H130 C131 0.961 . S
C131 C121 1.510 . S
C131 H129 0.959 . S
C131 H130 0.961 . S
C131 H132 0.960 . S
H132 C131 0.960 . S
H133 N113 0.862 . S
O134 Co102 1.920 . S
O134 C107 1.289 1_565 S
C135 O127 1.258 . S
C135 O128 1.266 . S
Co136 O139 1.970 . S
Co136 N153 1.989 . S
Co136 O161 1.967 . S
Co136 O168 1.920 . S
Co137 O140 1.966 . S
Co137 N146 2.022 . S
Co137 N154 1.993 . S
Co137 O162 1.941 . S
C138 O139 1.258 . S
C138 O140 1.263 . S
O139 Co136 1.970 . S
O139 C138 1.258 . S
O140 Co137 1.966 . S
O140 C138 1.263 . S
C141 O142 1.235 . S
C141 O168 1.289 . S
O142 C141 1.235 . S
C143 C145 1.400 . S
C143 N146 1.351 . S
C143 C148 1.501 . S
C144 C145 1.387 . S
C144 N147 1.341 . S
C145 C143 1.400 . S
C145 C144 1.387 . S
N146 Co137 2.022 . S
N146 C143 1.351 . S
N146 N147 1.365 . S
N147 C144 1.341 . S
N147 N146 1.365 . S
N147 H167 0.862 . S
C148 C143 1.501 . S
C148 H149 0.961 . S
C148 H150 0.961 . S
C148 H151 0.960 . S
H149 C148 0.961 . S
H150 C148 0.961 . S
H151 C148 0.960 . S
C152 N153 1.342 . S
C152 C156 1.401 . S
C152 C157 1.499 . S
N153 Co136 1.989 . S
N153 C152 1.342 . S
N153 N154 1.388 . S
N154 Co137 1.993 . S
N154 N153 1.388 . S
N154 C155 1.346 . S
C155 N154 1.346 . S
C155 C156 1.396 . S
C155 C165 1.510 . S
C156 C152 1.401 . S
C156 C155 1.396 . S
C157 C152 1.499 . S
C157 H158 0.959 . S
C157 H159 0.960 . S
C157 H160 0.961 . S
H158 C157 0.959 . S
H159 C157 0.960 . S
H160 C157 0.961 . S
O161 Co136 1.967 . S
O161 C169 1.258 . S
O162 Co137 1.941 . S
O162 C169 1.266 . S
H163 C165 0.959 . S
H164 C165 0.961 . S
C165 C155 1.510 . S
C165 H163 0.959 . S
C165 H164 0.961 . S
C165 H166 0.960 . S
H166 C165 0.960 . S
H167 N147 0.862 . S
O168 Co136 1.920 . S
O168 C141 1.289 . S
C169 O161 1.258 . S
C169 O162 1.266 . S
Co170 O173 1.970 . S
Co170 N187 1.989 . S
Co170 O195 1.967 . S
Co170 O202 1.920 . S
Co171 O174 1.966 . S
Co171 N180 2.022 . S
Co171 N188 1.993 . S
Co171 O196 1.941 . S
C172 O173 1.258 . S
C172 O174 1.263 . S
O173 Co170 1.970 . S
O173 C172 1.258 . S
O174 Co171 1.966 . S
O174 C172 1.263 . S
C175 O176 1.235 . S
C175 O202 1.289 . S
O176 C175 1.235 . S
C177 C179 1.400 . S
C177 N180 1.351 . S
C177 C182 1.501 . S
C178 C179 1.387 . S
C178 N181 1.341 . S
C179 C177 1.400 . S
C179 C178 1.387 . S
N180 Co171 2.022 . S
N180 C177 1.351 . S
N180 N181 1.365 . S
N181 C178 1.341 . S
N181 N180 1.365 . S
N181 H201 0.862 . S
C182 C177 1.501 . S
C182 H183 0.961 . S
C182 H184 0.961 . S
C182 H185 0.960 . S
H183 C182 0.961 . S
H184 C182 0.961 . S
H185 C182 0.960 . S
C186 N187 1.342 . S
C186 C190 1.401 . S
C186 C191 1.499 . S
N187 Co170 1.989 . S
N187 C186 1.342 . S
N187 N188 1.388 . S
N188 Co171 1.993 . S
N188 N187 1.388 . S
N188 C189 1.346 . S
C189 N188 1.346 . S
C189 C190 1.396 . S
C189 C199 1.510 . S
C190 C186 1.401 . S
C190 C189 1.396 . S
C191 C186 1.499 . S
C191 H192 0.959 . S
C191 H193 0.960 . S
C191 H194 0.961 . S
H192 C191 0.959 . S
H193 C191 0.960 . S
H194 C191 0.961 . S
O195 Co170 1.967 . S
O195 C203 1.258 . S
O196 Co171 1.941 . S
O196 C203 1.266 . S
H197 C199 0.959 . S
H198 C199 0.961 . S
C199 C189 1.510 . S
C199 H197 0.959 . S
C199 H198 0.961 . S
C199 H200 0.960 . S
H200 C199 0.960 . S
H201 N181 0.862 . S
O202 Co170 1.920 . S
O202 C175 1.289 . S
C203 O195 1.258 . S
C203 O196 1.266 . S
Co204 O207 1.970 . S
Co204 N221 1.989 1_655 S
Co204 O229 1.967 . S
Co204 O236 1.920 . S
Co205 O208 1.966 . S
Co205 N214 2.022 . S
Co205 N222 1.993 1_655 S
Co205 O230 1.941 . S
C206 O207 1.258 . S
C206 O208 1.263 . S
O207 Co204 1.970 . S
O207 C206 1.258 . S
O208 Co205 1.966 . S
O208 C206 1.263 . S
C209 O210 1.235 . S
C209 O236 1.289 1_455 S
O210 C209 1.235 . S
C211 C213 1.400 . S
C211 N214 1.351 . S
C211 C216 1.501 1_655 S
C212 C213 1.387 . S
C212 N215 1.341 . S
C213 C211 1.400 . S
C213 C212 1.387 . S
N214 Co205 2.022 . S
N214 C211 1.351 . S
N214 N215 1.365 . S
N215 C212 1.341 . S
N215 N214 1.365 . S
N215 H235 0.862 . S
C216 C211 1.501 1_455 S
C216 H217 0.959 1_455 S
C216 H218 0.961 . S
C216 H219 0.960 1_455 S
H217 C216 0.959 1_655 S
H218 C216 0.961 . S
H219 C216 0.960 1_655 S
C220 N221 1.342 . S
C220 C224 1.401 . S
C220 C225 1.499 . S
N221 Co204 1.989 1_455 S
N221 C220 1.342 . S
N221 N222 1.388 . S
N222 Co205 1.993 1_455 S
N222 N221 1.388 . S
N222 C223 1.346 . S
C223 N222 1.346 . S
C223 C224 1.396 . S
C223 C233 1.510 . S
C224 C220 1.401 . S
C224 C223 1.396 . S
C225 C220 1.499 . S
C225 H226 0.959 . S
C225 H227 0.960 . S
C225 H228 0.961 . S
H226 C225 0.959 . S
H227 C225 0.960 . S
H228 C225 0.961 . S
O229 Co204 1.967 . S
O229 C237 1.258 . S
O230 Co205 1.941 . S
O230 C237 1.266 . S
H231 C233 0.959 . S
H232 C233 0.961 . S
C233 C223 1.510 . S
C233 H231 0.959 . S
C233 H232 0.961 . S
C233 H234 0.960 . S
H234 C233 0.960 . S
H235 N215 0.862 . S
O236 Co204 1.920 . S
O236 C209 1.289 1_655 S
C237 O229 1.258 . S
C237 O230 1.266 . S
Co238 O241 1.970 . S
Co238 N255 1.989 1_565 S
Co238 O263 1.967 . S
Co238 O270 1.920 . S
Co239 O242 1.966 . S
Co239 N248 2.022 . S
Co239 N256 1.993 1_565 S
Co239 O264 1.941 . S
C240 O241 1.258 . S
C240 O242 1.263 . S
O241 Co238 1.970 . S
O241 C240 1.258 . S
O242 Co239 1.966 . S
O242 C240 1.263 . S
C243 O244 1.235 . S
C243 O270 1.289 1_545 S
O244 C243 1.235 . S
C245 C247 1.400 . S
C245 N248 1.351 . S
C245 C250 1.501 1_565 S
C246 C247 1.387 . S
C246 N249 1.341 . S
C247 C245 1.400 . S
C247 C246 1.387 . S
N248 Co239 2.022 . S
N248 C245 1.351 . S
N248 N249 1.365 . S
N249 C246 1.341 . S
N249 N248 1.365 . S
N249 H269 0.862 . S
C250 C245 1.501 1_545 S
C250 H251 0.959 1_545 S
C250 H252 0.961 . S
C250 H253 0.960 1_545 S
H251 C250 0.959 1_565 S
H252 C250 0.961 . S
H253 C250 0.960 1_565 S
C254 N255 1.342 . S
C254 C258 1.401 . S
C254 C259 1.499 . S
N255 Co238 1.989 1_545 S
N255 C254 1.342 . S
N255 N256 1.388 . S
N256 Co239 1.993 1_545 S
N256 N255 1.388 . S
N256 C257 1.346 . S
C257 N256 1.346 . S
C257 C258 1.396 . S
C257 C267 1.510 . S
C258 C254 1.401 . S
C258 C257 1.396 . S
C259 C254 1.499 . S
C259 H260 0.959 . S
C259 H261 0.960 . S
C259 H262 0.961 . S
H260 C259 0.959 . S
H261 C259 0.960 . S
H262 C259 0.961 . S
O263 Co238 1.967 . S
O263 C271 1.258 . S
O264 Co239 1.941 . S
O264 C271 1.266 . S
H265 C267 0.959 . S
H266 C267 0.961 . S
C267 C257 1.510 . S
C267 H265 0.959 . S
C267 H266 0.961 . S
C267 H268 0.960 . S
H268 C267 0.960 . S
H269 N249 0.862 . S
O270 Co238 1.920 . S
O270 C243 1.289 1_565 S
C271 O263 1.258 . S
C271 O264 1.266 . S
Co272 O275 1.970 . S
Co272 N289 1.989 . S
Co272 O297 1.967 . S
Co272 O304 1.920 . S
Co273 O276 1.966 . S
Co273 N282 2.022 . S
Co273 N290 1.993 . S
Co273 O298 1.941 . S
C274 O275 1.258 . S
C274 O276 1.263 . S
O275 Co272 1.970 . S
O275 C274 1.258 . S
O276 Co273 1.966 . S
O276 C274 1.263 . S
C277 O278 1.235 . S
C277 O304 1.289 . S
O278 C277 1.235 . S
C279 C281 1.400 . S
C279 N282 1.351 . S
C279 C284 1.501 . S
C280 C281 1.387 . S
C280 N283 1.341 . S
C281 C279 1.400 . S
C281 C280 1.387 . S
N282 Co273 2.022 . S
N282 C279 1.351 . S
N282 N283 1.365 . S
N283 C280 1.341 . S
N283 N282 1.365 . S
N283 H303 0.862 . S
C284 C279 1.501 . S
C284 H285 0.961 . S
C284 H286 0.961 . S
C284 H287 0.960 . S
H285 C284 0.961 . S
H286 C284 0.961 . S
H287 C284 0.960 . S
C288 N289 1.342 . S
C288 C292 1.401 . S
C288 C293 1.499 . S
N289 Co272 1.989 . S
N289 C288 1.342 . S
N289 N290 1.388 . S
N290 Co273 1.993 . S
N290 N289 1.388 . S
N290 C291 1.346 . S
C291 N290 1.346 . S
C291 C292 1.396 . S
C291 C301 1.510 . S
C292 C288 1.401 . S
C292 C291 1.396 . S
C293 C288 1.499 . S
C293 H294 0.959 . S
C293 H295 0.960 . S
C293 H296 0.961 . S
H294 C293 0.959 . S
H295 C293 0.960 . S
H296 C293 0.961 . S
O297 Co272 1.967 . S
O297 C305 1.258 . S
O298 Co273 1.941 . S
O298 C305 1.266 . S
H299 C301 0.959 . S
H300 C301 0.961 . S
C301 C291 1.510 . S
C301 H299 0.959 . S
C301 H300 0.961 . S
C301 H302 0.960 . S
H302 C301 0.960 . S
H303 N283 0.862 . S
O304 Co272 1.920 . S
O304 C277 1.289 . S
C305 O297 1.258 . S
C305 O298 1.266 . S
Co306 O309 1.970 . S
Co306 N323 1.989 . S
Co306 O331 1.967 . S
Co306 O338 1.920 . S
Co307 O310 1.966 . S
Co307 N316 2.022 . S
Co307 N324 1.993 . S
Co307 O332 1.941 . S
C308 O309 1.258 . S
C308 O310 1.263 . S
O309 Co306 1.970 . S
O309 C308 1.258 . S
O310 Co307 1.966 . S
O310 C308 1.263 . S
C311 O312 1.235 . S
C311 O338 1.289 . S
O312 C311 1.235 . S
C313 C315 1.400 . S
C313 N316 1.351 . S
C313 C318 1.501 . S
C314 C315 1.387 . S
C314 N317 1.341 . S
C315 C313 1.400 . S
C315 C314 1.387 . S
N316 Co307 2.022 . S
N316 C313 1.351 . S
N316 N317 1.365 . S
N317 C314 1.341 . S
N317 N316 1.365 . S
N317 H337 0.862 . S
C318 C313 1.501 . S
C318 H319 0.961 . S
C318 H320 0.961 . S
C318 H321 0.960 . S
H319 C318 0.961 . S
H320 C318 0.961 . S
H321 C318 0.960 . S
C322 N323 1.342 . S
C322 C326 1.401 . S
C322 C327 1.499 . S
N323 Co306 1.989 . S
N323 C322 1.342 . S
N323 N324 1.388 . S
N324 Co307 1.993 . S
N324 N323 1.388 . S
N324 C325 1.346 . S
C325 N324 1.346 . S
C325 C326 1.396 . S
C325 C335 1.510 . S
C326 C322 1.401 . S
C326 C325 1.396 . S
C327 C322 1.499 . S
C327 H328 0.959 . S
C327 H329 0.960 . S
C327 H330 0.961 . S
H328 C327 0.959 . S
H329 C327 0.960 . S
H330 C327 0.961 . S
O331 Co306 1.967 . S
O331 C339 1.258 . S
O332 Co307 1.941 . S
O332 C339 1.266 . S
H333 C335 0.959 . S
H334 C335 0.961 . S
C335 C325 1.510 . S
C335 H333 0.959 . S
C335 H334 0.961 . S
C335 H336 0.960 . S
H336 C335 0.960 . S
H337 N317 0.862 . S
O338 Co306 1.920 . S
O338 C311 1.289 . S
C339 O331 1.258 . S
C339 O332 1.266 . S
Co340 O343 1.970 . S
Co340 N357 1.989 1_455 S
Co340 O365 1.967 . S
Co340 O372 1.920 . S
Co341 O344 1.966 . S
Co341 N350 2.022 . S
Co341 N358 1.993 1_455 S
Co341 O366 1.941 . S
C342 O343 1.258 . S
C342 O344 1.263 . S
O343 Co340 1.970 . S
O343 C342 1.258 . S
O344 Co341 1.966 . S
O344 C342 1.263 . S
C345 O346 1.235 . S
C345 O372 1.289 1_655 S
O346 C345 1.235 . S
C347 C349 1.400 . S
C347 N350 1.351 . S
C347 C352 1.501 1_455 S
C348 C349 1.387 . S
C348 N351 1.341 . S
C349 C347 1.400 . S
C349 C348 1.387 . S
N350 Co341 2.022 . S
N350 C347 1.351 . S
N350 N351 1.365 . S
N351 C348 1.341 . S
N351 N350 1.365 . S
N351 H371 0.862 . S
C352 C347 1.501 1_655 S
C352 H353 0.959 1_655 S
C352 H354 0.961 . S
C352 H355 0.960 1_655 S
H353 C352 0.959 1_455 S
H354 C352 0.961 . S
H355 C352 0.960 1_455 S
C356 N357 1.342 . S
C356 C360 1.401 . S
C356 C361 1.499 . S
N357 Co340 1.989 1_655 S
N357 C356 1.342 . S
N357 N358 1.388 . S
N358 Co341 1.993 1_655 S
N358 N357 1.388 . S
N358 C359 1.346 . S
C359 N358 1.346 . S
C359 C360 1.396 . S
C359 C369 1.510 . S
C360 C356 1.401 . S
C360 C359 1.396 . S
C361 C356 1.499 . S
C361 H362 0.959 . S
C361 H363 0.960 . S
C361 H364 0.961 . S
H362 C361 0.959 . S
H363 C361 0.960 . S
H364 C361 0.961 . S
O365 Co340 1.967 . S
O365 C373 1.258 . S
O366 Co341 1.941 . S
O366 C373 1.266 . S
H367 C369 0.959 . S
H368 C369 0.961 . S
C369 C359 1.510 . S
C369 H367 0.959 . S
C369 H368 0.961 . S
C369 H370 0.960 . S
H370 C369 0.960 . S
H371 N351 0.862 . S
O372 Co340 1.920 . S
O372 C345 1.289 1_455 S
C373 O365 1.258 . S
C373 O366 1.266 . S
Co374 O377 1.970 . S
Co374 N391 1.989 1_545 S
Co374 O399 1.967 . S
Co374 O406 1.920 . S
Co375 O378 1.966 . S
Co375 N384 2.022 . S
Co375 N392 1.993 1_545 S
Co375 O400 1.941 . S
C376 O377 1.258 . S
C376 O378 1.263 . S
O377 Co374 1.970 . S
O377 C376 1.258 . S
O378 Co375 1.966 . S
O378 C376 1.263 . S
C379 O380 1.235 . S
C379 O406 1.289 1_565 S
O380 C379 1.235 . S
C381 C383 1.400 . S
C381 N384 1.351 . S
C381 C386 1.501 1_545 S
C382 C383 1.387 . S
C382 N385 1.341 . S
C383 C381 1.400 . S
C383 C382 1.387 . S
N384 Co375 2.022 . S
N384 C381 1.351 . S
N384 N385 1.365 . S
N385 C382 1.341 . S
N385 N384 1.365 . S
N385 H405 0.862 . S
C386 C381 1.501 1_565 S
C386 H387 0.959 1_565 S
C386 H388 0.961 . S
C386 H389 0.960 1_565 S
H387 C386 0.959 1_545 S
H388 C386 0.961 . S
H389 C386 0.960 1_545 S
C390 N391 1.342 . S
C390 C394 1.401 . S
C390 C395 1.499 . S
N391 Co374 1.989 1_565 S
N391 C390 1.342 . S
N391 N392 1.388 . S
N392 Co375 1.993 1_565 S
N392 N391 1.388 . S
N392 C393 1.346 . S
C393 N392 1.346 . S
C393 C394 1.396 . S
C393 C403 1.510 . S
C394 C390 1.401 . S
C394 C393 1.396 . S
C395 C390 1.499 . S
C395 H396 0.959 . S
C395 H397 0.960 . S
C395 H398 0.961 . S
H396 C395 0.959 . S
H397 C395 0.960 . S
H398 C395 0.961 . S
O399 Co374 1.967 . S
O399 C407 1.258 . S
O400 Co375 1.941 . S
O400 C407 1.266 . S
H401 C403 0.959 . S
H402 C403 0.961 . S
C403 C393 1.510 . S
C403 H401 0.959 . S
C403 H402 0.961 . S
C403 H404 0.960 . S
H404 C403 0.960 . S
H405 N385 0.862 . S
O406 Co374 1.920 . S
O406 C379 1.289 1_545 S
C407 O399 1.258 . S
C407 O400 1.266 . S
Co408 O411 1.970 . S
Co408 N425 1.989 . S
Co408 O433 1.967 . S
Co408 O440 1.920 . S
Co409 O412 1.966 . S
Co409 N418 2.022 . S
Co409 N426 1.993 . S
Co409 O434 1.941 . S
C410 O411 1.258 . S
C410 O412 1.263 . S
O411 Co408 1.970 . S
O411 C410 1.258 . S
O412 Co409 1.966 . S
O412 C410 1.263 . S
C413 O414 1.235 . S
C413 O440 1.289 . S
O414 C413 1.235 . S
C415 C417 1.400 . S
C415 N418 1.351 . S
C415 C420 1.501 . S
C416 C417 1.387 . S
C416 N419 1.341 . S
C417 C415 1.400 . S
C417 C416 1.387 . S
N418 Co409 2.022 . S
N418 C415 1.351 . S
N418 N419 1.365 . S
N419 C416 1.341 . S
N419 N418 1.365 . S
N419 H439 0.862 . S
C420 C415 1.501 . S
C420 H421 0.961 . S
C420 H422 0.961 . S
C420 H423 0.960 . S
H421 C420 0.961 . S
H422 C420 0.961 . S
H423 C420 0.960 . S
C424 N425 1.342 . S
C424 C428 1.401 . S
C424 C429 1.499 . S
N425 Co408 1.989 . S
N425 C424 1.342 . S
N425 N426 1.388 . S
N426 Co409 1.993 . S
N426 N425 1.388 . S
N426 C427 1.346 . S
C427 N426 1.346 . S
C427 C428 1.396 . S
C427 C437 1.510 . S
C428 C424 1.401 . S
C428 C427 1.396 . S
C429 C424 1.499 . S
C429 H430 0.959 . S
C429 H431 0.960 . S
C429 H432 0.961 . S
H430 C429 0.959 . S
H431 C429 0.960 . S
H432 C429 0.961 . S
O433 Co408 1.967 . S
O433 C441 1.258 . S
O434 Co409 1.941 . S
O434 C441 1.266 . S
H435 C437 0.959 . S
H436 C437 0.961 . S
C437 C427 1.510 . S
C437 H435 0.959 . S
C437 H436 0.961 . S
C437 H438 0.960 . S
H438 C437 0.960 . S
H439 N419 0.862 . S
O440 Co408 1.920 . S
O440 C413 1.289 . S
C441 O433 1.258 . S
C441 O434 1.266 . S
Co442 O445 1.970 . S
Co442 N459 1.989 . S
Co442 O467 1.967 . S
Co442 O474 1.920 . S
Co443 O446 1.966 . S
Co443 N452 2.022 . S
Co443 N460 1.993 . S
Co443 O468 1.941 . S
C444 O445 1.258 . S
C444 O446 1.263 . S
O445 Co442 1.970 . S
O445 C444 1.258 . S
O446 Co443 1.966 . S
O446 C444 1.263 . S
C447 O448 1.235 . S
C447 O474 1.289 . S
O448 C447 1.235 . S
C449 C451 1.400 . S
C449 N452 1.351 . S
C449 C454 1.501 . S
C450 C451 1.387 . S
C450 N453 1.341 . S
C451 C449 1.400 . S
C451 C450 1.387 . S
N452 Co443 2.022 . S
N452 C449 1.351 . S
N452 N453 1.365 . S
N453 C450 1.341 . S
N453 N452 1.365 . S
N453 H473 0.862 . S
C454 C449 1.501 . S
C454 H455 0.961 . S
C454 H456 0.961 . S
C454 H457 0.960 . S
H455 C454 0.961 . S
H456 C454 0.961 . S
H457 C454 0.960 . S
C458 N459 1.342 . S
C458 C462 1.401 . S
C458 C463 1.499 . S
N459 Co442 1.989 . S
N459 C458 1.342 . S
N459 N460 1.388 . S
N460 Co443 1.993 . S
N460 N459 1.388 . S
N460 C461 1.346 . S
C461 N460 1.346 . S
C461 C462 1.396 . S
C461 C471 1.510 . S
C462 C458 1.401 . S
C462 C461 1.396 . S
C463 C458 1.499 . S
C463 H464 0.959 . S
C463 H465 0.960 . S
C463 H466 0.961 . S
H464 C463 0.959 . S
H465 C463 0.960 . S
H466 C463 0.961 . S
O467 Co442 1.967 . S
O467 C475 1.258 . S
O468 Co443 1.941 . S
O468 C475 1.266 . S
H469 C471 0.959 . S
H470 C471 0.961 . S
C471 C461 1.510 . S
C471 H469 0.959 . S
C471 H470 0.961 . S
C471 H472 0.960 . S
H472 C471 0.960 . S
H473 N453 0.862 . S
O474 Co442 1.920 . S
O474 C447 1.289 . S
C475 O467 1.258 . S
C475 O468 1.266 . S
Co476 O479 1.970 . S
Co476 N493 1.989 1_455 S
Co476 O501 1.967 . S
Co476 O508 1.920 . S
Co477 O480 1.966 . S
Co477 N486 2.022 . S
Co477 N494 1.993 1_455 S
Co477 O502 1.941 . S
C478 O479 1.258 . S
C478 O480 1.263 . S
O479 Co476 1.970 . S
O479 C478 1.258 . S
O480 Co477 1.966 . S
O480 C478 1.263 . S
C481 O482 1.235 . S
C481 O508 1.289 1_655 S
O482 C481 1.235 . S
C483 C485 1.400 . S
C483 N486 1.351 . S
C483 C488 1.501 1_455 S
C484 C485 1.387 . S
C484 N487 1.341 . S
C485 C483 1.400 . S
C485 C484 1.387 . S
N486 Co477 2.022 . S
N486 C483 1.351 . S
N486 N487 1.365 . S
N487 C484 1.341 . S
N487 N486 1.365 . S
N487 H507 0.862 . S
C488 C483 1.501 1_655 S
C488 H489 0.959 1_655 S
C488 H490 0.961 . S
C488 H491 0.960 1_655 S
H489 C488 0.959 1_455 S
H490 C488 0.961 . S
H491 C488 0.960 1_455 S
C492 N493 1.342 . S
C492 C496 1.401 . S
C492 C497 1.499 . S
N493 Co476 1.989 1_655 S
N493 C492 1.342 . S
N493 N494 1.388 . S
N494 Co477 1.993 1_655 S
N494 N493 1.388 . S
N494 C495 1.346 . S
C495 N494 1.346 . S
C495 C496 1.396 . S
C495 C505 1.510 . S
C496 C492 1.401 . S
C496 C495 1.396 . S
C497 C492 1.499 . S
C497 H498 0.959 . S
C497 H499 0.960 . S
C497 H500 0.961 . S
H498 C497 0.959 . S
H499 C497 0.960 . S
H500 C497 0.961 . S
O501 Co476 1.967 . S
O501 C509 1.258 . S
O502 Co477 1.941 . S
O502 C509 1.266 . S
H503 C505 0.959 . S
H504 C505 0.961 . S
C505 C495 1.510 . S
C505 H503 0.959 . S
C505 H504 0.961 . S
C505 H506 0.960 . S
H506 C505 0.960 . S
H507 N487 0.862 . S
O508 Co476 1.920 . S
O508 C481 1.289 1_455 S
C509 O501 1.258 . S
C509 O502 1.266 . S
Co510 O513 1.970 . S
Co510 N527 1.989 1_545 S
Co510 O535 1.967 . S
Co510 O542 1.920 . S
Co511 O514 1.966 . S
Co511 N520 2.022 . S
Co511 N528 1.993 1_545 S
Co511 O536 1.941 . S
C512 O513 1.258 . S
C512 O514 1.263 . S
O513 Co510 1.970 . S
O513 C512 1.258 . S
O514 Co511 1.966 . S
O514 C512 1.263 . S
C515 O516 1.235 . S
C515 O542 1.289 1_565 S
O516 C515 1.235 . S
C517 C519 1.400 . S
C517 N520 1.351 . S
C517 C522 1.501 1_545 S
C518 C519 1.387 . S
C518 N521 1.341 . S
C519 C517 1.400 . S
C519 C518 1.387 . S
N520 Co511 2.022 . S
N520 C517 1.351 . S
N520 N521 1.365 . S
N521 C518 1.341 . S
N521 N520 1.365 . S
N521 H541 0.862 . S
C522 C517 1.501 1_565 S
C522 H523 0.959 1_565 S
C522 H524 0.961 . S
C522 H525 0.960 1_565 S
H523 C522 0.959 1_545 S
H524 C522 0.961 . S
H525 C522 0.960 1_545 S
C526 N527 1.342 . S
C526 C530 1.401 . S
C526 C531 1.499 . S
N527 Co510 1.989 1_565 S
N527 C526 1.342 . S
N527 N528 1.388 . S
N528 Co511 1.993 1_565 S
N528 N527 1.388 . S
N528 C529 1.346 . S
C529 N528 1.346 . S
C529 C530 1.396 . S
C529 C539 1.510 . S
C530 C526 1.401 . S
C530 C529 1.396 . S
C531 C526 1.499 . S
C531 H532 0.959 . S
C531 H533 0.960 . S
C531 H534 0.961 . S
H532 C531 0.959 . S
H533 C531 0.960 . S
H534 C531 0.961 . S
O535 Co510 1.967 . S
O535 C543 1.258 . S
O536 Co511 1.941 . S
O536 C543 1.266 . S
H537 C539 0.959 . S
H538 C539 0.961 . S
C539 C529 1.510 . S
C539 H537 0.959 . S
C539 H538 0.961 . S
C539 H540 0.960 . S
H540 C539 0.960 . S
H541 N521 0.862 . S
O542 Co510 1.920 . S
O542 C515 1.289 1_545 S
C543 O535 1.258 . S
C543 O536 1.266 . S
H544 C552 0.950 . S
H545 C557 0.950 . S
H546 C554 0.950 . S
H547 C556 0.950 . S
H548 C558 0.950 . S
H549 C560 0.950 . S
H550 C562 0.950 . S
H551 C563 0.950 . S
C552 H544 0.950 . S
C552 C553 1.386 . S
C552 C554 1.391 . S
C553 C552 1.386 . S
C553 C557 1.393 . S
C554 H546 0.950 . S
C554 C552 1.391 . S
C554 C555 1.400 . S
C555 C554 1.400 . S
C555 C556 1.398 . S
C555 C561 1.491 1_554 S
C556 H547 0.950 . S
C556 C555 1.398 . S
C556 C557 1.391 . S
C557 H545 0.950 . S
C557 C553 1.393 . S
C557 C556 1.391 . S
C558 H548 0.950 . S
C558 C559 1.386 . S
C558 C560 1.391 . S
C559 C558 1.386 . S
C559 C563 1.393 . S
C560 H549 0.950 . S
C560 C558 1.391 . S
C560 C561 1.400 . S
C561 C555 1.491 1_556 S
C561 C560 1.400 . S
C561 C562 1.398 . S
C562 H550 0.950 . S
C562 C561 1.398 . S
C562 C563 1.391 . S
C563 H551 0.950 . S
C563 C559 1.393 . S
C563 C562 1.391 . S
H564 C572 0.950 . S
H565 C577 0.950 . S
H566 C574 0.950 . S
H567 C576 0.950 . S
H568 C578 0.950 . S
H569 C580 0.950 . S
H570 C582 0.950 . S
H571 C583 0.950 . S
C572 H564 0.950 . S
C572 C573 1.386 . S
C572 C574 1.391 . S
C573 C572 1.386 . S
C573 C577 1.393 . S
C574 H566 0.950 . S
C574 C572 1.391 . S
C574 C575 1.400 . S
C575 C574 1.400 . S
C575 C576 1.398 . S
C575 C581 1.491 . S
C576 H567 0.950 . S
C576 C575 1.398 . S
C576 C577 1.391 . S
C577 H565 0.950 . S
C577 C573 1.393 . S
C577 C576 1.391 . S
C578 H568 0.950 . S
C578 C579 1.386 . S
C578 C580 1.391 . S
C579 C578 1.386 . S
C579 C583 1.393 . S
C580 H569 0.950 . S
C580 C578 1.391 . S
C580 C581 1.400 . S
C581 C575 1.491 . S
C581 C580 1.400 . S
C581 C582 1.398 . S
C582 H570 0.950 . S
C582 C581 1.398 . S
C582 C583 1.391 . S
C583 H571 0.950 . S
C583 C579 1.393 . S
C583 C582 1.391 . S
H584 C592 0.950 . S
H585 C597 0.950 . S
H586 C594 0.950 . S
H587 C596 0.950 . S
H588 C598 0.950 . S
H589 C600 0.950 . S
H590 C602 0.950 . S
H591 C603 0.950 . S
C592 H584 0.950 . S
C592 C593 1.386 . S
C592 C594 1.391 . S
C593 C592 1.386 . S
C593 C597 1.393 1_655 S
C594 H586 0.950 . S
C594 C592 1.391 . S
C594 C595 1.400 . S
C595 C594 1.400 . S
C595 C596 1.398 1_655 S
C595 C601 1.491 1_556 S
C596 H587 0.950 . S
C596 C595 1.398 1_455 S
C596 C597 1.391 . S
C597 H585 0.950 . S
C597 C593 1.393 1_455 S
C597 C596 1.391 . S
C598 H588 0.950 . S
C598 C599 1.386 1_455 S
C598 C600 1.391 . S
C599 C598 1.386 1_655 S
C599 C603 1.393 . S
C600 H589 0.950 . S
C600 C598 1.391 . S
C600 C601 1.400 1_455 S
C601 C595 1.491 1_554 S
C601 C600 1.400 1_655 S
C601 C602 1.398 . S
C602 H590 0.950 . S
C602 C601 1.398 . S
C602 C603 1.391 . S
C603 H591 0.950 . S
C603 C599 1.393 . S
C603 C602 1.391 . S
H604 C612 0.950 . S
H605 C617 0.950 . S
H606 C614 0.950 . S
H607 C616 0.950 . S
H608 C618 0.950 . S
H609 C620 0.950 . S
H610 C622 0.950 . S
H611 C623 0.950 . S
C612 H604 0.950 . S
C612 C613 1.386 1_545 S
C612 C614 1.391 . S
C613 C612 1.386 1_565 S
C613 C617 1.393 . S
C614 H606 0.950 . S
C614 C612 1.391 . S
C614 C615 1.400 1_545 S
C615 C614 1.400 1_565 S
C615 C616 1.398 . S
C615 C621 1.491 . S
C616 H607 0.950 . S
C616 C615 1.398 . S
C616 C617 1.391 . S
C617 H605 0.950 . S
C617 C613 1.393 . S
C617 C616 1.391 . S
C618 H608 0.950 . S
C618 C619 1.386 . S
C618 C620 1.391 . S
C619 C618 1.386 . S
C619 C623 1.393 1_565 S
C620 H609 0.950 . S
C620 C618 1.391 . S
C620 C621 1.400 . S
C621 C615 1.491 . S
C621 C620 1.400 . S
C621 C622 1.398 1_565 S
C622 H610 0.950 . S
C622 C621 1.398 1_545 S
C622 C623 1.391 . S
C623 H611 0.950 . S
C623 C619 1.393 1_545 S
C623 C622 1.391 . S
H624 C632 0.950 . S
H625 C637 0.950 . S
H626 C634 0.950 . S
H627 C636 0.950 . S
H628 C638 0.950 . S
H629 C640 0.950 . S
H630 C642 0.950 . S
H631 C643 0.950 . S
C632 H624 0.950 . S
C632 C633 1.386 . S
C632 C634 1.391 . S
C633 C632 1.386 . S
C633 C637 1.393 . S
C634 H626 0.950 . S
C634 C632 1.391 . S
C634 C635 1.400 . S
C635 C634 1.400 . S
C635 C636 1.398 . S
C635 C641 1.491 1_556 S
C636 H627 0.950 . S
C636 C635 1.398 . S
C636 C637 1.391 . S
C637 H625 0.950 . S
C637 C633 1.393 . S
C637 C636 1.391 . S
C638 H628 0.950 . S
C638 C639 1.386 . S
C638 C640 1.391 . S
C639 C638 1.386 . S
C639 C643 1.393 . S
C640 H629 0.950 . S
C640 C638 1.391 . S
C640 C641 1.400 . S
C641 C635 1.491 1_554 S
C641 C640 1.400 . S
C641 C642 1.398 . S
C642 H630 0.950 . S
C642 C641 1.398 . S
C642 C643 1.391 . S
C643 H631 0.950 . S
C643 C639 1.393 . S
C643 C642 1.391 . S
H644 C652 0.950 . S
H645 C657 0.950 . S
H646 C654 0.950 . S
H647 C656 0.950 . S
H648 C658 0.950 . S
H649 C660 0.950 . S
H650 C662 0.950 . S
H651 C663 0.950 . S
C652 H644 0.950 . S
C652 C653 1.386 . S
C652 C654 1.391 . S
C653 C652 1.386 . S
C653 C657 1.393 . S
C654 H646 0.950 . S
C654 C652 1.391 . S
C654 C655 1.400 . S
C655 C654 1.400 . S
C655 C656 1.398 . S
C655 C661 1.491 . S
C656 H647 0.950 . S
C656 C655 1.398 . S
C656 C657 1.391 . S
C657 H645 0.950 . S
C657 C653 1.393 . S
C657 C656 1.391 . S
C658 H648 0.950 . S
C658 C659 1.386 . S
C658 C660 1.391 . S
C659 C658 1.386 . S
C659 C663 1.393 . S
C660 H649 0.950 . S
C660 C658 1.391 . S
C660 C661 1.400 . S
C661 C655 1.491 . S
C661 C660 1.400 . S
C661 C662 1.398 . S
C662 H650 0.950 . S
C662 C661 1.398 . S
C662 C663 1.391 . S
C663 H651 0.950 . S
C663 C659 1.393 . S
C663 C662 1.391 . S
H664 C672 0.950 . S
H665 C677 0.950 . S
H666 C674 0.950 . S
H667 C676 0.950 . S
H668 C678 0.950 . S
H669 C680 0.950 . S
H670 C682 0.950 . S
H671 C683 0.950 . S
C672 H664 0.950 . S
C672 C673 1.386 . S
C672 C674 1.391 . S
C673 C672 1.386 . S
C673 C677 1.393 1_455 S
C674 H666 0.950 . S
C674 C672 1.391 . S
C674 C675 1.400 . S
C675 C674 1.400 . S
C675 C676 1.398 1_455 S
C675 C681 1.491 1_554 S
C676 H667 0.950 . S
C676 C675 1.398 1_655 S
C676 C677 1.391 . S
C677 H665 0.950 . S
C677 C673 1.393 1_655 S
C677 C676 1.391 . S
C678 H668 0.950 . S
C678 C679 1.386 1_655 S
C678 C680 1.391 . S
C679 C678 1.386 1_455 S
C679 C683 1.393 . S
C680 H669 0.950 . S
C680 C678 1.391 . S
C680 C681 1.400 1_655 S
C681 C675 1.491 1_556 S
C681 C680 1.400 1_455 S
C681 C682 1.398 . S
C682 H670 0.950 . S
C682 C681 1.398 . S
C682 C683 1.391 . S
C683 H671 0.950 . S
C683 C679 1.393 . S
C683 C682 1.391 . S
H684 C692 0.950 . S
H685 C697 0.950 . S
H686 C694 0.950 . S
H687 C696 0.950 . S
H688 C698 0.950 . S
H689 C700 0.950 . S
H690 C702 0.950 . S
H691 C703 0.950 . S
C692 H684 0.950 . S
C692 C693 1.386 1_565 S
C692 C694 1.391 . S
C693 C692 1.386 1_545 S
C693 C697 1.393 . S
C694 H686 0.950 . S
C694 C692 1.391 . S
C694 C695 1.400 1_565 S
C695 C694 1.400 1_545 S
C695 C696 1.398 . S
C695 C701 1.491 . S
C696 H687 0.950 . S
C696 C695 1.398 . S
C696 C697 1.391 . S
C697 H685 0.950 . S
C697 C693 1.393 . S
C697 C696 1.391 . S
C698 H688 0.950 . S
C698 C699 1.386 . S
C698 C700 1.391 . S
C699 C698 1.386 . S
C699 C703 1.393 1_545 S
C700 H689 0.950 . S
C700 C698 1.391 . S
C700 C701 1.400 . S
C701 C695 1.491 . S
C701 C700 1.400 . S
C701 C702 1.398 1_545 S
C702 H690 0.950 . S
C702 C701 1.398 1_565 S
C702 C703 1.391 . S
C703 H691 0.950 . S
C703 C699 1.393 1_565 S
C703 C702 1.391 . S
H704 C712 0.950 . S
H705 C717 0.950 . S
H706 C714 0.950 . S
H707 C716 0.950 . S
H708 C718 0.950 . S
H709 C720 0.950 . S
H710 C722 0.950 . S
H711 C723 0.950 . S
C712 H704 0.950 . S
C712 C713 1.386 . S
C712 C714 1.391 . S
C713 C712 1.386 . S
C713 C717 1.393 . S
C714 H706 0.950 . S
C714 C712 1.391 . S
C714 C715 1.400 . S
C715 C714 1.400 . S
C715 C716 1.398 . S
C715 C721 1.491 . S
C716 H707 0.950 . S
C716 C715 1.398 . S
C716 C717 1.391 . S
C717 H705 0.950 . S
C717 C713 1.393 . S
C717 C716 1.391 . S
C718 H708 0.950 . S
C718 C719 1.386 . S
C718 C720 1.391 1_545 S
C719 C718 1.386 . S
C719 C723 1.393 . S
C720 H709 0.950 . S
C720 C718 1.391 1_565 S
C720 C721 1.400 . S
C721 C715 1.491 . S
C721 C720 1.400 . S
C721 C722 1.398 . S
C722 H710 0.950 . S
C722 C721 1.398 . S
C722 C723 1.391 1_565 S
C723 H711 0.950 . S
C723 C719 1.393 . S
C723 C722 1.391 1_545 S
H724 C732 0.950 . S
H725 C737 0.950 . S
H726 C734 0.950 . S
H727 C736 0.950 . S
H728 C738 0.950 . S
H729 C740 0.950 . S
H730 C742 0.950 . S
H731 C743 0.950 . S
C732 H724 0.950 . S
C732 C733 1.386 . S
C732 C734 1.391 . S
C733 C732 1.386 . S
C733 C737 1.393 . S
C734 H726 0.950 . S
C734 C732 1.391 . S
C734 C735 1.400 . S
C735 C734 1.400 . S
C735 C736 1.398 . S
C735 C741 1.491 . S
C736 H727 0.950 . S
C736 C735 1.398 . S
C736 C737 1.391 . S
C737 H725 0.950 . S
C737 C733 1.393 . S
C737 C736 1.391 . S
C738 H728 0.950 . S
C738 C739 1.386 . S
C738 C740 1.391 . S
C739 C738 1.386 . S
C739 C743 1.393 . S
C740 H729 0.950 . S
C740 C738 1.391 . S
C740 C741 1.400 . S
C741 C735 1.491 . S
C741 C740 1.400 . S
C741 C742 1.398 . S
C742 H730 0.950 . S
C742 C741 1.398 . S
C742 C743 1.391 . S
C743 H731 0.950 . S
C743 C739 1.393 . S
C743 C742 1.391 . S
H744 C752 0.950 . S
H745 C757 0.950 . S
H746 C754 0.950 . S
H747 C756 0.950 . S
H748 C758 0.950 . S
H749 C760 0.950 . S
H750 C762 0.950 . S
H751 C763 0.950 . S
C752 H744 0.950 . S
C752 C753 1.386 1_455 S
C752 C754 1.391 . S
C753 C752 1.386 1_655 S
C753 C757 1.393 . S
C754 H746 0.950 . S
C754 C752 1.391 . S
C754 C755 1.400 1_455 S
C755 C754 1.400 1_655 S
C755 C756 1.398 . S
C755 C761 1.491 . S
C756 H747 0.950 . S
C756 C755 1.398 . S
C756 C757 1.391 . S
C757 H745 0.950 . S
C757 C753 1.393 . S
C757 C756 1.391 . S
C758 H748 0.950 . S
C758 C759 1.386 . S
C758 C760 1.391 . S
C759 C758 1.386 . S
C759 C763 1.393 1_655 S
C760 H749 0.950 . S
C760 C758 1.391 . S
C760 C761 1.400 . S
C761 C755 1.491 . S
C761 C760 1.400 . S
C761 C762 1.398 1_655 S
C762 H750 0.950 . S
C762 C761 1.398 1_455 S
C762 C763 1.391 . S
C763 H751 0.950 . S
C763 C759 1.393 1_455 S
C763 C762 1.391 . S
H764 C772 0.950 . S
H765 C777 0.950 . S
H766 C774 0.950 . S
H767 C776 0.950 . S
H768 C778 0.950 . S
H769 C780 0.950 . S
H770 C782 0.950 . S
H771 C783 0.950 . S
C772 H764 0.950 . S
C772 C773 1.386 . S
C772 C774 1.391 . S
C773 C772 1.386 . S
C773 C777 1.393 1_565 S
C774 H766 0.950 . S
C774 C772 1.391 . S
C774 C775 1.400 . S
C775 C774 1.400 . S
C775 C776 1.398 1_565 S
C775 C781 1.491 . S
C776 H767 0.950 . S
C776 C775 1.398 1_545 S
C776 C777 1.391 . S
C777 H765 0.950 . S
C777 C773 1.393 1_545 S
C777 C776 1.391 . S
C778 H768 0.950 . S
C778 C779 1.386 1_545 S
C778 C780 1.391 1_455 S
C779 C778 1.386 1_565 S
C779 C783 1.393 . S
C780 H769 0.950 . S
C780 C778 1.391 1_655 S
C780 C781 1.400 1_545 S
C781 C775 1.491 . S
C781 C780 1.400 1_565 S
C781 C782 1.398 . S
C782 H770 0.950 . S
C782 C781 1.398 . S
C782 C783 1.391 1_655 S
C783 H771 0.950 . S
C783 C779 1.393 . S
C783 C782 1.391 1_455 S
H784 C792 0.950 . S
H785 C797 0.950 . S
H786 C794 0.950 . S
H787 C796 0.950 . S
H788 C798 0.950 . S
H789 C800 0.950 . S
H790 C802 0.950 . S
H791 C803 0.950 . S
C792 H784 0.950 . S
C792 C793 1.386 . S
C792 C794 1.391 . S
C793 C792 1.386 . S
C793 C797 1.393 . S
C794 H786 0.950 . S
C794 C792 1.391 . S
C794 C795 1.400 . S
C795 C794 1.400 . S
C795 C796 1.398 . S
C795 C801 1.491 . S
C796 H787 0.950 . S
C796 C795 1.398 . S
C796 C797 1.391 . S
C797 H785 0.950 . S
C797 C793 1.393 . S
C797 C796 1.391 . S
C798 H788 0.950 . S
C798 C799 1.386 . S
C798 C800 1.391 . S
C799 C798 1.386 . S
C799 C803 1.393 . S
C800 H789 0.950 . S
C800 C798 1.391 . S
C800 C801 1.400 . S
C801 C795 1.491 . S
C801 C800 1.400 . S
C801 C802 1.398 . S
C802 H790 0.950 . S
C802 C801 1.398 . S
C802 C803 1.391 . S
C803 H791 0.950 . S
C803 C799 1.393 . S
C803 C802 1.391 . S
H804 C812 0.950 . S
H805 C817 0.950 . S
H806 C814 0.950 . S
H807 C816 0.950 . S
H808 C818 0.950 . S
H809 C820 0.950 . S
H810 C822 0.950 . S
H811 C823 0.950 . S
C812 H804 0.950 . S
C812 C813 1.386 . S
C812 C814 1.391 . S
C813 C812 1.386 . S
C813 C817 1.393 . S
C814 H806 0.950 . S
C814 C812 1.391 . S
C814 C815 1.400 . S
C815 C814 1.400 . S
C815 C816 1.398 . S
C815 C821 1.491 . S
C816 H807 0.950 . S
C816 C815 1.398 . S
C816 C817 1.391 . S
C817 H805 0.950 . S
C817 C813 1.393 . S
C817 C816 1.391 . S
C818 H808 0.950 . S
C818 C819 1.386 . S
C818 C820 1.391 1_455 S
C819 C818 1.386 . S
C819 C823 1.393 . S
C820 H809 0.950 . S
C820 C818 1.391 1_655 S
C820 C821 1.400 . S
C821 C815 1.491 . S
C821 C820 1.400 . S
C821 C822 1.398 . S
C822 H810 0.950 . S
C822 C821 1.398 . S
C822 C823 1.391 1_655 S
C823 H811 0.950 . S
C823 C819 1.393 . S
C823 C822 1.391 1_455 S
H824 C832 0.950 . S
H825 C837 0.950 . S
H826 C834 0.950 . S
H827 C836 0.950 . S
H828 C838 0.950 . S
H829 C840 0.950 . S
H830 C842 0.950 . S
H831 C843 0.950 . S
C832 H824 0.950 . S
C832 C833 1.386 1_455 S
C832 C834 1.391 1_545 S
C833 C832 1.386 1_655 S
C833 C837 1.393 . S
C834 H826 0.950 . S
C834 C832 1.391 1_565 S
C834 C835 1.400 1_455 S
C835 C834 1.400 1_655 S
C835 C836 1.398 . S
C835 C841 1.491 . S
C836 H827 0.950 . S
C836 C835 1.398 . S
C836 C837 1.391 1_565 S
C837 H825 0.950 . S
C837 C833 1.393 . S
C837 C836 1.391 1_545 S
C838 H828 0.950 . S
C838 C839 1.386 . S
C838 C840 1.391 . S
C839 C838 1.386 . S
C839 C843 1.393 1_655 S
C840 H829 0.950 . S
C840 C838 1.391 . S
C840 C841 1.400 . S
C841 C835 1.491 . S
C841 C840 1.400 . S
C841 C842 1.398 1_655 S
C842 H830 0.950 . S
C842 C841 1.398 1_455 S
C842 C843 1.391 . S
C843 H831 0.950 . S
C843 C839 1.393 1_455 S
C843 C842 1.391 . S
H844 C852 0.950 . S
H845 C857 0.950 . S
H846 C854 0.950 . S
H847 C856 0.950 . S
H848 C858 0.950 . S
H849 C860 0.950 . S
H850 C862 0.950 . S
H851 C863 0.950 . S
C852 H844 0.950 . S
C852 C853 1.386 . S
C852 C854 1.391 . S
C853 C852 1.386 . S
C853 C857 1.393 1_565 S
C854 H846 0.950 . S
C854 C852 1.391 . S
C854 C855 1.400 . S
C855 C854 1.400 . S
C855 C856 1.398 1_565 S
C855 C861 1.491 . S
C856 H847 0.950 . S
C856 C855 1.398 1_545 S
C856 C857 1.391 . S
C857 H845 0.950 . S
C857 C853 1.393 1_545 S
C857 C856 1.391 . S
C858 H848 0.950 . S
C858 C859 1.386 1_545 S
C858 C860 1.391 . S
C859 C858 1.386 1_565 S
C859 C863 1.393 . S
C860 H849 0.950 . S
C860 C858 1.391 . S
C860 C861 1.400 1_545 S
C861 C855 1.491 . S
C861 C860 1.400 1_565 S
C861 C862 1.398 . S
C862 H850 0.950 . S
C862 C861 1.398 . S
C862 C863 1.391 . S
C863 H851 0.950 . S
C863 C859 1.393 . S
C863 C862 1.391 . S
H864 C872 0.950 . S
H865 C877 0.950 . S
H866 C874 0.950 . S
H867 C876 0.950 . S
H868 C878 0.950 . S
H869 C880 0.950 . S
H870 C882 0.950 . S
H871 C883 0.950 . S
C872 H864 0.950 . S
C872 C873 1.386 . S
C872 C874 1.391 . S
C873 C872 1.386 . S
C873 C877 1.393 . S
C874 H866 0.950 . S
C874 C872 1.391 . S
C874 C875 1.400 . S
C875 C874 1.400 . S
C875 C876 1.398 . S
C875 C881 1.491 . S
C876 H867 0.950 . S
C876 C875 1.398 . S
C876 C877 1.391 . S
C877 H865 0.950 . S
C877 C873 1.393 . S
C877 C876 1.391 . S
C878 H868 0.950 . S
C878 C879 1.386 . S
C878 C880 1.391 1_565 S
C879 C878 1.386 . S
C879 C883 1.393 . S
C880 H869 0.950 . S
C880 C878 1.391 1_545 S
C880 C881 1.400 . S
C881 C875 1.491 . S
C881 C880 1.400 . S
C881 C882 1.398 . S
C882 H870 0.950 . S
C882 C881 1.398 . S
C882 C883 1.391 1_545 S
C883 H871 0.950 . S
C883 C879 1.393 . S
C883 C882 1.391 1_565 S
H884 C892 0.950 . S
H885 C897 0.950 . S
H886 C894 0.950 . S
H887 C896 0.950 . S
H888 C898 0.950 . S
H889 C900 0.950 . S
H890 C902 0.950 . S
H891 C903 0.950 . S
C892 H884 0.950 . S
C892 C893 1.386 . S
C892 C894 1.391 . S
C893 C892 1.386 . S
C893 C897 1.393 . S
C894 H886 0.950 . S
C894 C892 1.391 . S
C894 C895 1.400 . S
C895 C894 1.400 . S
C895 C896 1.398 . S
C895 C901 1.491 . S
C896 H887 0.950 . S
C896 C895 1.398 . S
C896 C897 1.391 . S
C897 H885 0.950 . S
C897 C893 1.393 . S
C897 C896 1.391 . S
C898 H888 0.950 . S
C898 C899 1.386 . S
C898 C900 1.391 . S
C899 C898 1.386 . S
C899 C903 1.393 . S
C900 H889 0.950 . S
C900 C898 1.391 . S
C900 C901 1.400 . S
C901 C895 1.491 . S
C901 C900 1.400 . S
C901 C902 1.398 . S
C902 H890 0.950 . S
C902 C901 1.398 . S
C902 C903 1.391 . S
C903 H891 0.950 . S
C903 C899 1.393 . S
C903 C902 1.391 . S
H904 C912 0.950 . S
H905 C917 0.950 . S
H906 C914 0.950 . S
H907 C916 0.950 . S
H908 C918 0.950 . S
H909 C920 0.950 . S
H910 C922 0.950 . S
H911 C923 0.950 . S
C912 H904 0.950 . S
C912 C913 1.386 1_655 S
C912 C914 1.391 . S
C913 C912 1.386 1_455 S
C913 C917 1.393 . S
C914 H906 0.950 . S
C914 C912 1.391 . S
C914 C915 1.400 1_655 S
C915 C914 1.400 1_455 S
C915 C916 1.398 . S
C915 C921 1.491 . S
C916 H907 0.950 . S
C916 C915 1.398 . S
C916 C917 1.391 . S
C917 H905 0.950 . S
C917 C913 1.393 . S
C917 C916 1.391 . S
C918 H908 0.950 . S
C918 C919 1.386 . S
C918 C920 1.391 . S
C919 C918 1.386 . S
C919 C923 1.393 1_455 S
C920 H909 0.950 . S
C920 C918 1.391 . S
C920 C921 1.400 . S
C921 C915 1.491 . S
C921 C920 1.400 . S
C921 C922 1.398 1_455 S
C922 H910 0.950 . S
C922 C921 1.398 1_655 S
C922 C923 1.391 . S
C923 H911 0.950 . S
C923 C919 1.393 1_655 S
C923 C922 1.391 . S
H924 C932 0.950 . S
H925 C937 0.950 . S
H926 C934 0.950 . S
H927 C936 0.950 . S
H928 C938 0.950 . S
H929 C940 0.950 . S
H930 C942 0.950 . S
H931 C943 0.950 . S
C932 H924 0.950 . S
C932 C933 1.386 . S
C932 C934 1.391 1_655 S
C933 C932 1.386 . S
C933 C937 1.393 1_545 S
C934 H926 0.950 . S
C934 C932 1.391 1_455 S
C934 C935 1.400 . S
C935 C934 1.400 . S
C935 C936 1.398 1_545 S
C935 C941 1.491 . S
C936 H927 0.950 . S
C936 C935 1.398 1_565 S
C936 C937 1.391 1_455 S
C937 H925 0.950 . S
C937 C933 1.393 1_565 S
C937 C936 1.391 1_655 S
C938 H928 0.950 . S
C938 C939 1.386 1_565 S
C938 C940 1.391 . S
C939 C938 1.386 1_545 S
C939 C943 1.393 . S
C940 H929 0.950 . S
C940 C938 1.391 . S
C940 C941 1.400 1_565 S
C941 C935 1.491 . S
C941 C940 1.400 1_545 S
C941 C942 1.398 . S
C942 H930 0.950 . S
C942 C941 1.398 . S
C942 C943 1.391 . S
C943 H931 0.950 . S
C943 C939 1.393 . S
C943 C942 1.391 . S
H944 C952 0.950 . S
H945 C957 0.950 . S
H946 C954 0.950 . S
H947 C956 0.950 . S
H948 C958 0.950 . S
H949 C960 0.950 . S
H950 C962 0.950 . S
H951 C963 0.950 . S
C952 H944 0.950 . S
C952 C953 1.386 . S
C952 C954 1.391 . S
C953 C952 1.386 . S
C953 C957 1.393 . S
C954 H946 0.950 . S
C954 C952 1.391 . S
C954 C955 1.400 . S
C955 C954 1.400 . S
C955 C956 1.398 . S
C955 C961 1.491 . S
C956 H947 0.950 . S
C956 C955 1.398 . S
C956 C957 1.391 . S
C957 H945 0.950 . S
C957 C953 1.393 . S
C957 C956 1.391 . S
C958 H948 0.950 . S
C958 C959 1.386 . S
C958 C960 1.391 . S
C959 C958 1.386 . S
C959 C963 1.393 . S
C960 H949 0.950 . S
C960 C958 1.391 . S
C960 C961 1.400 . S
C961 C955 1.491 . S
C961 C960 1.400 . S
C961 C962 1.398 . S
C962 H950 0.950 . S
C962 C961 1.398 . S
C962 C963 1.391 . S
C963 H951 0.950 . S
C963 C959 1.393 . S
C963 C962 1.391 . S
H964 C972 0.950 . S
H965 C977 0.950 . S
H966 C974 0.950 . S
H967 C976 0.950 . S
H968 C978 0.950 . S
H969 C980 0.950 . S
H970 C982 0.950 . S
H971 C983 0.950 . S
C972 H964 0.950 . S
C972 C973 1.386 . S
C972 C974 1.391 . S
C973 C972 1.386 . S
C973 C977 1.393 . S
C974 H966 0.950 . S
C974 C972 1.391 . S
C974 C975 1.400 . S
C975 C974 1.400 . S
C975 C976 1.398 . S
C975 C981 1.491 . S
C976 H967 0.950 . S
C976 C975 1.398 . S
C976 C977 1.391 . S
C977 H965 0.950 . S
C977 C973 1.393 . S
C977 C976 1.391 . S
C978 H968 0.950 . S
C978 C979 1.386 . S
C978 C980 1.391 1_655 S
C979 C978 1.386 . S
C979 C983 1.393 . S
C980 H969 0.950 . S
C980 C978 1.391 1_455 S
C980 C981 1.400 . S
C981 C975 1.491 . S
C981 C980 1.400 . S
C981 C982 1.398 . S
C982 H970 0.950 . S
C982 C981 1.398 . S
C982 C983 1.391 1_455 S
C983 H971 0.950 . S
C983 C979 1.393 . S
C983 C982 1.391 1_655 S
H984 C992 0.950 . S
H985 C997 0.950 . S
H986 C994 0.950 . S
H987 C996 0.950 . S
H988 C998 0.950 . S
H989 C1000 0.950 . S
H990 C1002 0.950 . S
H991 C1003 0.950 . S
C992 H984 0.950 . S
C992 C993 1.386 1_655 S
C992 C994 1.391 1_565 S
C993 C992 1.386 1_455 S
C993 C997 1.393 . S
C994 H986 0.950 . S
C994 C992 1.391 1_545 S
C994 C995 1.400 1_655 S
C995 C994 1.400 1_455 S
C995 C996 1.398 . S
C995 C1001 1.491 . S
C996 H987 0.950 . S
C996 C995 1.398 . S
C996 C997 1.391 1_545 S
C997 H985 0.950 . S
C997 C993 1.393 . S
C997 C996 1.391 1_565 S
C998 H988 0.950 . S
C998 C999 1.386 . S
C998 C1000 1.391 . S
C999 C998 1.386 . S
C999 C1003 1.393 1_455 S
C1000 H989 0.950 . S
C1000 C998 1.391 . S
C1000 C1001 1.400 . S
C1001 C995 1.491 . S
C1001 C1000 1.400 . S
C1001 C1002 1.398 1_455 S
C1002 H990 0.950 . S
C1002 C1001 1.398 1_655 S
C1002 C1003 1.391 . S
C1003 H991 0.950 . S
C1003 C999 1.393 1_655 S
C1003 C1002 1.391 . S
H1004 C1012 0.950 . S
H1005 C1017 0.957 . S
H1006 C1014 0.950 . S
H1007 C1016 0.950 1_565 S
H1008 C1018 0.950 . S
H1009 C1020 0.950 . S
H1010 C1022 0.950 . S
H1011 C1023 0.950 . S
C1012 H1004 0.950 . S
C1012 C1013 1.386 . S
C1012 C1014 1.391 . S
C1013 C1012 1.386 . S
C1013 C1017 1.393 . S
C1014 H1006 0.950 . S
C1014 C1012 1.391 . S
C1014 C1015 1.400 . S
C1015 C1014 1.400 . S
C1015 C1016 1.398 . S
C1015 C1021 1.491 . S
C1016 H1007 0.950 1_545 S
C1016 C1015 1.398 . S
C1016 C1017 1.391 . S
C1017 H1005 0.957 . S
C1017 C1013 1.393 . S
C1017 C1016 1.391 . S
C1018 H1008 0.950 . S
C1018 C1019 1.386 1_565 S
C1018 C1020 1.391 . S
C1019 C1018 1.386 1_545 S
C1019 C1023 1.393 . S
C1020 H1009 0.950 . S
C1020 C1018 1.391 . S
C1020 C1021 1.400 1_565 S
C1021 C1015 1.491 . S
C1021 C1020 1.400 1_545 S
C1021 C1022 1.398 . S
C1022 H1010 0.950 . S
C1022 C1021 1.398 . S
C1022 C1023 1.391 . S
C1023 H1011 0.950 . S
C1023 C1019 1.393 . S
C1023 C1022 1.391 . S
H1024 C1032 0.950 . S
H1025 C1037 0.950 . S
H1026 C1034 0.950 . S
H1027 C1036 0.950 . S
H1028 C1038 0.950 . S
H1029 C1040 0.950 . S
H1030 C1042 0.950 . S
H1031 C1043 0.950 . S
C1032 H1024 0.950 . S
C1032 C1033 1.386 . S
C1032 C1034 1.391 . S
C1033 C1032 1.386 . S
C1033 C1037 1.393 . S
C1034 H1026 0.950 . S
C1034 C1032 1.391 . S
C1034 C1035 1.400 . S
C1035 C1034 1.400 . S
C1035 C1036 1.398 . S
C1035 C1041 1.491 . S
C1036 H1027 0.950 . S
C1036 C1035 1.398 . S
C1036 C1037 1.391 . S
C1037 H1025 0.950 . S
C1037 C1033 1.393 . S
C1037 C1036 1.391 . S
C1038 H1028 0.950 . S
C1038 C1039 1.386 . S
C1038 C1040 1.391 . S
C1039 C1038 1.386 . S
C1039 C1043 1.393 . S
C1040 H1029 0.950 . S
C1040 C1038 1.391 . S
C1040 C1041 1.400 . S
C1041 C1035 1.491 . S
C1041 C1040 1.400 . S
C1041 C1042 1.398 . S
C1042 H1030 0.950 . S
C1042 C1041 1.398 . S
C1042 C1043 1.391 . S
C1043 H1031 0.950 . S
C1043 C1039 1.393 . S
C1043 C1042 1.391 . S
H1044 C1052 0.950 . S
H1045 C1057 0.950 . S
H1046 C1054 0.950 . S
H1047 C1056 0.950 . S
H1048 C1058 0.950 . S
H1049 C1060 0.950 . S
H1050 C1062 0.950 . S
H1051 C1063 0.950 . S
C1052 H1044 0.950 . S
C1052 C1053 1.386 . S
C1052 C1054 1.391 . S
C1053 C1052 1.386 . S
C1053 C1057 1.393 . S
C1054 H1046 0.950 . S
C1054 C1052 1.391 . S
C1054 C1055 1.400 . S
C1055 C1054 1.400 . S
C1055 C1056 1.398 . S
C1055 C1061 1.491 . S
C1056 H1047 0.950 . S
C1056 C1055 1.398 . S
C1056 C1057 1.391 . S
C1057 H1045 0.950 . S
C1057 C1053 1.393 . S
C1057 C1056 1.391 . S
C1058 H1048 0.950 . S
C1058 C1059 1.386 . S
C1058 C1060 1.391 . S
C1059 C1058 1.386 . S
C1059 C1063 1.393 . S
C1060 H1049 0.950 . S
C1060 C1058 1.391 . S
C1060 C1061 1.400 . S
C1061 C1055 1.491 . S
C1061 C1060 1.400 . S
C1061 C1062 1.398 . S
C1062 H1050 0.950 . S
C1062 C1061 1.398 . S
C1062 C1063 1.391 . S
C1063 H1051 0.950 . S
C1063 C1059 1.393 . S
C1063 C1062 1.391 . S
H1064 C1072 0.950 . S
H1065 C1077 0.950 . S
H1066 C1074 0.950 . S
H1067 C1076 0.950 . S
H1068 C1078 0.950 . S
H1069 C1080 0.950 . S
H1070 C1082 0.950 . S
H1071 C1083 0.950 . S
C1072 H1064 0.950 . S
C1072 C1073 1.386 . S
C1072 C1074 1.391 . S
C1073 C1072 1.386 . S
C1073 C1077 1.393 . S
C1074 H1066 0.950 . S
C1074 C1072 1.391 . S
C1074 C1075 1.400 . S
C1075 C1074 1.400 . S
C1075 C1076 1.398 . S
C1075 C1081 1.491 . S
C1076 H1067 0.950 . S
C1076 C1075 1.398 . S
C1076 C1077 1.391 . S
C1077 H1065 0.950 . S
C1077 C1073 1.393 . S
C1077 C1076 1.391 . S
C1078 H1068 0.950 . S
C1078 C1079 1.386 . S
C1078 C1080 1.391 . S
C1079 C1078 1.386 . S
C1079 C1083 1.393 . S
C1080 H1069 0.950 . S
C1080 C1078 1.391 . S
C1080 C1081 1.400 . S
C1081 C1075 1.491 . S
C1081 C1080 1.400 . S
C1081 C1082 1.398 . S
C1082 H1070 0.950 . S
C1082 C1081 1.398 . S
C1082 C1083 1.391 . S
C1083 H1071 0.950 . S
C1083 C1079 1.393 . S
C1083 C1082 1.391 . S
H1084 C1092 0.950 . S
H1085 C1097 0.950 . S
H1086 C1094 0.950 . S
H1087 C1096 0.950 . S
H1088 C1098 0.950 . S
H1089 C1100 0.950 . S
H1090 C1102 0.950 . S
H1091 C1103 0.950 . S
C1092 H1084 0.950 . S
C1092 C1093 1.386 . S
C1092 C1094 1.391 . S
C1093 C1092 1.386 . S
C1093 C1097 1.393 . S
C1094 H1086 0.950 . S
C1094 C1092 1.391 . S
C1094 C1095 1.400 . S
C1095 C1094 1.400 . S
C1095 C1096 1.398 . S
C1095 C1101 1.491 . S
C1096 H1087 0.950 . S
C1096 C1095 1.398 . S
C1096 C1097 1.391 . S
C1097 H1085 0.950 . S
C1097 C1093 1.393 . S
C1097 C1096 1.391 . S
C1098 H1088 0.950 . S
C1098 C1099 1.386 . S
C1098 C1100 1.391 . S
C1099 C1098 1.386 . S
C1099 C1103 1.393 . S
C1100 H1089 0.950 . S
C1100 C1098 1.391 . S
C1100 C1101 1.400 . S
C1101 C1095 1.491 . S
C1101 C1100 1.400 . S
C1101 C1102 1.398 . S
C1102 H1090 0.950 . S
C1102 C1101 1.398 . S
C1102 C1103 1.391 . S
C1103 H1091 0.950 . S
C1103 C1099 1.393 . S
C1103 C1102 1.391 . S
H1104 C1112 0.950 . S
H1105 C1117 0.950 . S
H1106 C1114 0.950 . S
H1107 C1116 0.950 . S
H1108 C1118 0.950 . S
H1109 C1120 0.950 . S
H1110 C1122 0.950 . S
H1111 C1123 0.950 . S
C1112 H1104 0.950 . S
C1112 C1113 1.386 . S
C1112 C1114 1.391 . S
C1113 C1112 1.386 . S
C1113 C1117 1.393 . S
C1114 H1106 0.950 . S
C1114 C1112 1.391 . S
C1114 C1115 1.400 . S
C1115 C1114 1.400 . S
C1115 C1116 1.398 . S
C1115 C1121 1.491 . S
C1116 H1107 0.950 . S
C1116 C1115 1.398 . S
C1116 C1117 1.391 . S
C1117 H1105 0.950 . S
C1117 C1113 1.393 . S
C1117 C1116 1.391 . S
C1118 H1108 0.950 . S
C1118 C1119 1.386 . S
C1118 C1120 1.391 . S
C1119 C1118 1.386 . S
C1119 C1123 1.393 . S
C1120 H1109 0.950 . S
C1120 C1118 1.391 . S
C1120 C1121 1.400 . S
C1121 C1115 1.491 . S
C1121 C1120 1.400 . S
C1121 C1122 1.398 . S
C1122 H1110 0.950 . S
C1122 C1121 1.398 . S
C1122 C1123 1.391 . S
C1123 H1111 0.950 . S
C1123 C1119 1.393 . S
C1123 C1122 1.391 . S
H1124 C1132 0.950 . S
H1125 C1137 0.950 . S
H1126 C1134 0.950 . S
H1127 C1136 0.950 . S
H1128 C1138 0.950 . S
H1129 C1140 0.950 . S
H1130 C1142 0.950 . S
H1131 C1143 0.950 . S
C1132 H1124 0.950 . S
C1132 C1133 1.386 . S
C1132 C1134 1.391 . S
C1133 C1132 1.386 . S
C1133 C1137 1.393 . S
C1134 H1126 0.950 . S
C1134 C1132 1.391 . S
C1134 C1135 1.400 . S
C1135 C1134 1.400 . S
C1135 C1136 1.398 . S
C1135 C1141 1.491 . S
C1136 H1127 0.950 . S
C1136 C1135 1.398 . S
C1136 C1137 1.391 . S
C1137 H1125 0.950 . S
C1137 C1133 1.393 . S
C1137 C1136 1.391 . S
C1138 H1128 0.950 . S
C1138 C1139 1.386 . S
C1138 C1140 1.391 . S
C1139 C1138 1.386 . S
C1139 C1143 1.393 . S
C1140 H1129 0.950 . S
C1140 C1138 1.391 . S
C1140 C1141 1.400 . S
C1141 C1135 1.491 . S
C1141 C1140 1.400 . S
C1141 C1142 1.398 . S
C1142 H1130 0.950 . S
C1142 C1141 1.398 . S
C1142 C1143 1.391 . S
C1143 H1131 0.950 . S
C1143 C1139 1.393 . S
C1143 C1142 1.391 . S
H1144 C1152 0.950 . S
H1145 C1157 0.950 . S
H1146 C1154 0.950 . S
H1147 C1156 0.950 . S
H1148 C1158 0.950 . S
H1149 C1160 0.950 . S
H1150 C1162 0.950 . S
H1151 C1163 0.950 . S
C1152 H1144 0.950 . S
C1152 C1153 1.386 . S
C1152 C1154 1.391 . S
C1153 C1152 1.386 . S
C1153 C1157 1.393 . S
C1154 H1146 0.950 . S
C1154 C1152 1.391 . S
C1154 C1155 1.400 . S
C1155 C1154 1.400 . S
C1155 C1156 1.398 . S
C1155 C1161 1.491 . S
C1156 H1147 0.950 . S
C1156 C1155 1.398 . S
C1156 C1157 1.391 . S
C1157 H1145 0.950 . S
C1157 C1153 1.393 . S
C1157 C1156 1.391 . S
C1158 H1148 0.950 . S
C1158 C1159 1.386 . S
C1158 C1160 1.391 . S
C1159 C1158 1.386 . S
C1159 C1163 1.393 . S
C1160 H1149 0.950 . S
C1160 C1158 1.391 . S
C1160 C1161 1.400 . S
C1161 C1155 1.491 . S
C1161 C1160 1.400 . S
C1161 C1162 1.398 . S
C1162 H1150 0.950 . S
C1162 C1161 1.398 . S
C1162 C1163 1.391 . S
C1163 H1151 0.950 . S
C1163 C1159 1.393 . S
C1163 C1162 1.391 . S
H1164 C1172 0.950 . S
H1165 C1177 0.950 . S
H1166 C1174 0.950 . S
H1167 C1176 0.950 . S
H1168 C1178 0.950 . S
H1169 C1180 0.950 . S
H1170 C1182 0.950 . S
H1171 C1183 0.950 . S
C1172 H1164 0.950 . S
C1172 C1173 1.386 . S
C1172 C1174 1.391 . S
C1173 C1172 1.386 . S
C1173 C1177 1.393 . S
C1174 H1166 0.950 . S
C1174 C1172 1.391 . S
C1174 C1175 1.400 . S
C1175 C1174 1.400 . S
C1175 C1176 1.398 . S
C1175 C1181 1.491 . S
C1176 H1167 0.950 . S
C1176 C1175 1.398 . S
C1176 C1177 1.391 . S
C1177 H1165 0.950 . S
C1177 C1173 1.393 . S
C1177 C1176 1.391 . S
C1178 H1168 0.950 . S
C1178 C1179 1.386 . S
C1178 C1180 1.391 . S
C1179 C1178 1.386 . S
C1179 C1183 1.393 . S
C1180 H1169 0.950 . S
C1180 C1178 1.391 . S
C1180 C1181 1.400 . S
C1181 C1175 1.491 . S
C1181 C1180 1.400 . S
C1181 C1182 1.398 . S
C1182 H1170 0.950 . S
C1182 C1181 1.398 . S
C1182 C1183 1.391 . S
C1183 H1171 0.950 . S
C1183 C1179 1.393 . S
C1183 C1182 1.391 . S
H1184 C1192 0.950 . S
H1185 C1197 0.950 . S
H1186 C1194 0.950 . S
H1187 C1196 0.950 . S
H1188 C1198 0.950 . S
H1189 C1200 0.950 . S
H1190 C1202 0.950 . S
H1191 C1203 0.950 . S
C1192 H1184 0.950 . S
C1192 C1193 1.386 . S
C1192 C1194 1.391 . S
C1193 C1192 1.386 . S
C1193 C1197 1.393 . S
C1194 H1186 0.950 . S
C1194 C1192 1.391 . S
C1194 C1195 1.400 . S
C1195 C1194 1.400 . S
C1195 C1196 1.398 . S
C1195 C1201 1.491 . S
C1196 H1187 0.950 . S
C1196 C1195 1.398 . S
C1196 C1197 1.391 . S
C1197 H1185 0.950 . S
C1197 C1193 1.393 . S
C1197 C1196 1.391 . S
C1198 H1188 0.950 . S
C1198 C1199 1.386 . S
C1198 C1200 1.391 . S
C1199 C1198 1.386 . S
C1199 C1203 1.393 . S
C1200 H1189 0.950 . S
C1200 C1198 1.391 . S
C1200 C1201 1.400 . S
C1201 C1195 1.491 . S
C1201 C1200 1.400 . S
C1201 C1202 1.398 . S
C1202 H1190 0.950 . S
C1202 C1201 1.398 . S
C1202 C1203 1.391 . S
C1203 H1191 0.950 . S
C1203 C1199 1.393 . S
C1203 C1202 1.391 . S
H1204 C1212 0.950 . S
H1205 C1217 0.950 . S
H1206 C1214 0.950 . S
H1207 C1216 0.950 . S
H1208 C1218 0.950 . S
H1209 C1220 0.950 . S
H1210 C1222 0.950 . S
H1211 C1223 0.950 . S
C1212 H1204 0.950 . S
C1212 C1213 1.386 . S
C1212 C1214 1.391 . S
C1213 C1212 1.386 . S
C1213 C1217 1.393 . S
C1214 H1206 0.950 . S
C1214 C1212 1.391 . S
C1214 C1215 1.400 . S
C1215 C1214 1.400 . S
C1215 C1216 1.398 . S
C1215 C1221 1.491 . S
C1216 H1207 0.950 . S
C1216 C1215 1.398 . S
C1216 C1217 1.391 . S
C1217 H1205 0.950 . S
C1217 C1213 1.393 . S
C1217 C1216 1.391 . S
C1218 H1208 0.950 . S
C1218 C1219 1.386 . S
C1218 C1220 1.391 . S
C1219 C1218 1.386 . S
C1219 C1223 1.393 . S
C1220 H1209 0.950 . S
C1220 C1218 1.391 . S
C1220 C1221 1.400 . S
C1221 C1215 1.491 . S
C1221 C1220 1.400 . S
C1221 C1222 1.398 . S
C1222 H1210 0.950 . S
C1222 C1221 1.398 . S
C1222 C1223 1.391 . S
C1223 H1211 0.950 . S
C1223 C1219 1.393 . S
C1223 C1222 1.391 . S
H1224 C1232 0.950 . S
H1225 C1237 0.950 . S
H1226 C1234 0.950 . S
H1227 C1236 0.950 . S
H1228 C1238 0.950 . S
H1229 C1240 0.950 . S
H1230 C1242 0.950 . S
H1231 C1243 0.950 . S
C1232 H1224 0.950 . S
C1232 C1233 1.386 . S
C1232 C1234 1.391 . S
C1233 C1232 1.386 . S
C1233 C1237 1.393 . S
C1234 H1226 0.950 . S
C1234 C1232 1.391 . S
C1234 C1235 1.400 . S
C1235 C1234 1.400 . S
C1235 C1236 1.398 . S
C1235 C1241 1.491 . S
C1236 H1227 0.950 . S
C1236 C1235 1.398 . S
C1236 C1237 1.391 . S
C1237 H1225 0.950 . S
C1237 C1233 1.393 . S
C1237 C1236 1.391 . S
C1238 H1228 0.950 . S
C1238 C1239 1.386 . S
C1238 C1240 1.391 . S
C1239 C1238 1.386 . S
C1239 C1243 1.393 . S
C1240 H1229 0.950 . S
C1240 C1238 1.391 . S
C1240 C1241 1.400 . S
C1241 C1235 1.491 . S
C1241 C1240 1.400 . S
C1241 C1242 1.398 . S
C1242 H1230 0.950 . S
C1242 C1241 1.398 . S
C1242 C1243 1.391 . S
C1243 H1231 0.950 . S
C1243 C1239 1.393 . S
C1243 C1242 1.391 . S
H1244 C1252 0.950 . S
H1245 C1257 0.950 . S
H1246 C1254 0.950 . S
H1247 C1256 0.950 . S
H1248 C1258 0.950 . S
H1249 C1260 0.950 . S
H1250 C1262 0.950 . S
H1251 C1263 0.950 . S
C1252 H1244 0.950 . S
C1252 C1253 1.386 . S
C1252 C1254 1.391 . S
C1253 C1252 1.386 . S
C1253 C1257 1.393 . S
C1254 H1246 0.950 . S
C1254 C1252 1.391 . S
C1254 C1255 1.400 . S
C1255 C1254 1.400 . S
C1255 C1256 1.398 . S
C1255 C1261 1.491 . S
C1256 H1247 0.950 . S
C1256 C1255 1.398 . S
C1256 C1257 1.391 . S
C1257 H1245 0.950 . S
C1257 C1253 1.393 . S
C1257 C1256 1.391 . S
C1258 H1248 0.950 . S
C1258 C1259 1.386 . S
C1258 C1260 1.391 . S
C1259 C1258 1.386 . S
C1259 C1263 1.393 . S
C1260 H1249 0.950 . S
C1260 C1258 1.391 . S
C1260 C1261 1.400 . S
C1261 C1255 1.491 . S
C1261 C1260 1.400 . S
C1261 C1262 1.398 . S
C1262 H1250 0.950 . S
C1262 C1261 1.398 . S
C1262 C1263 1.391 . S
C1263 H1251 0.950 . S
C1263 C1259 1.393 . S
C1263 C1262 1.391 . S
H1264 C1272 0.950 . S
H1265 C1277 0.950 . S
H1266 C1274 0.950 . S
H1267 C1276 0.950 . S
H1268 C1278 0.950 . S
H1269 C1280 0.950 . S
H1270 C1282 0.950 . S
H1271 C1283 0.950 . S
C1272 H1264 0.950 . S
C1272 C1273 1.386 . S
C1272 C1274 1.391 . S
C1273 C1272 1.386 . S
C1273 C1277 1.393 . S
C1274 H1266 0.950 . S
C1274 C1272 1.391 . S
C1274 C1275 1.400 . S
C1275 C1274 1.400 . S
C1275 C1276 1.398 . S
C1275 C1281 1.491 . S
C1276 H1267 0.950 . S
C1276 C1275 1.398 . S
C1276 C1277 1.391 . S
C1277 H1265 0.950 . S
C1277 C1273 1.393 . S
C1277 C1276 1.391 . S
C1278 H1268 0.950 . S
C1278 C1279 1.386 . S
C1278 C1280 1.391 . S
C1279 C1278 1.386 . S
C1279 C1283 1.393 . S
C1280 H1269 0.950 . S
C1280 C1278 1.391 . S
C1280 C1281 1.400 . S
C1281 C1275 1.491 . S
C1281 C1280 1.400 . S
C1281 C1282 1.398 . S
C1282 H1270 0.950 . S
C1282 C1281 1.398 . S
C1282 C1283 1.391 . S
C1283 H1271 0.950 . S
C1283 C1279 1.393 . S
C1283 C1282 1.391 . S
H1284 C1292 0.950 . S
H1285 C1297 0.950 . S
H1286 C1294 0.950 . S
H1287 C1296 0.950 . S
H1288 C1298 0.950 . S
H1289 C1300 0.950 . S
H1290 C1302 0.950 . S
H1291 C1303 0.950 . S
C1292 H1284 0.950 . S
C1292 C1293 1.386 . S
C1292 C1294 1.391 . S
C1293 C1292 1.386 . S
C1293 C1297 1.393 . S
C1294 H1286 0.950 . S
C1294 C1292 1.391 . S
C1294 C1295 1.400 . S
C1295 C1294 1.400 . S
C1295 C1296 1.398 . S
C1295 C1301 1.491 . S
C1296 H1287 0.950 . S
C1296 C1295 1.398 . S
C1296 C1297 1.391 . S
C1297 H1285 0.950 . S
C1297 C1293 1.393 . S
C1297 C1296 1.391 . S
C1298 H1288 0.950 . S
C1298 C1299 1.386 . S
C1298 C1300 1.391 . S
C1299 C1298 1.386 . S
C1299 C1303 1.393 . S
C1300 H1289 0.950 . S
C1300 C1298 1.391 . S
C1300 C1301 1.400 . S
C1301 C1295 1.491 . S
C1301 C1300 1.400 . S
C1301 C1302 1.398 . S
C1302 H1290 0.950 . S
C1302 C1301 1.398 . S
C1302 C1303 1.391 . S
C1303 H1291 0.950 . S
C1303 C1299 1.393 . S
C1303 C1302 1.391 . S
H1304 C1312 0.950 . S
H1305 C1317 0.950 . S
H1306 C1314 0.950 . S
H1307 C1316 0.950 . S
H1308 C1318 0.950 . S
H1309 C1320 0.950 . S
H1310 C1322 0.950 . S
H1311 C1323 0.950 . S
C1312 H1304 0.950 . S
C1312 C1313 1.386 . S
C1312 C1314 1.391 . S
C1313 C1312 1.386 . S
C1313 C1317 1.393 . S
C1314 H1306 0.950 . S
C1314 C1312 1.391 . S
C1314 C1315 1.400 . S
C1315 C1314 1.400 . S
C1315 C1316 1.398 . S
C1315 C1321 1.491 . S
C1316 H1307 0.950 . S
C1316 C1315 1.398 . S
C1316 C1317 1.391 . S
C1317 H1305 0.950 . S
C1317 C1313 1.393 . S
C1317 C1316 1.391 . S
C1318 H1308 0.950 . S
C1318 C1319 1.386 . S
C1318 C1320 1.391 . S
C1319 C1318 1.386 . S
C1319 C1323 1.393 . S
C1320 H1309 0.950 . S
C1320 C1318 1.391 . S
C1320 C1321 1.400 . S
C1321 C1315 1.491 . S
C1321 C1320 1.400 . S
C1321 C1322 1.398 . S
C1322 H1310 0.950 . S
C1322 C1321 1.398 . S
C1322 C1323 1.391 . S
C1323 H1311 0.950 . S
C1323 C1319 1.393 . S
C1323 C1322 1.391 . S
H1324 C1332 0.950 . S
H1325 C1337 0.950 . S
H1326 C1334 0.950 . S
H1327 C1336 0.950 . S
H1328 C1338 0.950 . S
H1329 C1340 0.950 . S
H1330 C1342 0.950 . S
H1331 C1343 0.950 . S
C1332 H1324 0.950 . S
C1332 C1333 1.386 . S
C1332 C1334 1.391 . S
C1333 C1332 1.386 . S
C1333 C1337 1.393 . S
C1334 H1326 0.950 . S
C1334 C1332 1.391 . S
C1334 C1335 1.400 . S
C1335 C1334 1.400 . S
C1335 C1336 1.398 . S
C1335 C1341 1.491 . S
C1336 H1327 0.950 . S
C1336 C1335 1.398 . S
C1336 C1337 1.391 . S
C1337 H1325 0.950 . S
C1337 C1333 1.393 . S
C1337 C1336 1.391 . S
C1338 H1328 0.950 . S
C1338 C1339 1.386 . S
C1338 C1340 1.391 . S
C1339 C1338 1.386 . S
C1339 C1343 1.393 . S
C1340 H1329 0.950 . S
C1340 C1338 1.391 . S
C1340 C1341 1.400 . S
C1341 C1335 1.491 . S
C1341 C1340 1.400 . S
C1341 C1342 1.398 . S
C1342 H1330 0.950 . S
C1342 C1341 1.398 . S
C1342 C1343 1.391 . S
C1343 H1331 0.950 . S
C1343 C1339 1.393 . S
C1343 C1342 1.391 . S
C553 C2 1.493 . S
C559 C138 1.496 . S
C573 C172 1.494 . S
C579 C36 1.496 . S
C593 C206 1.496 . S
C599 C70 1.496 . S
C613 C240 1.490 . S
C619 C104 1.488 . S
C633 C274 1.487 . S
C639 C410 1.489 . S
C653 C308 1.494 . S
C659 C444 1.497 . S
C673 C478 1.488 . S
C679 C342 1.489 . S
C693 C376 1.491 . S
C699 C512 1.496 . S
C713 C413 0.790 . S
C719 C9 0.799 . S
C733 C447 0.759 . S
C739 C43 0.772 . S
C753 C77 0.766 . S
C759 C481 0.785 . S
C773 C515 0.762 . S
C779 C111 0.730 . S
C793 C277 0.769 . S
C799 C145 0.737 . S
C813 C311 0.756 . S
C819 C179 0.764 . S
C833 C213 0.801 . S
C839 C345 0.789 . S
C853 C247 0.747 . S
C859 C379 0.750 . S
C873 C141 0.787 . S
C879 C281 0.771 . S
C893 C175 0.785 . S
C899 C315 0.801 . S
C913 C209 0.749 . S
C919 C349 0.734 . S
C933 C383 0.775 . S
C939 C243 0.788 . S
C953 C5 0.787 . S
C959 C417 0.801 . S
C973 C39 0.752 . S
C979 C451 0.727 . S
C993 C485 0.729 . S
C999 C73 0.760 . S
C1013 C107 0.779 . S
C1019 C519 0.799 . S
C1033 C101 2.221 . S
C1039 C33 2.218 . S
C1053 C67 2.219 . S
C1059 C135 2.221 . S
C1073 C237 2.219 . S
C1079 C169 2.221 . S
C1093 C271 2.219 . S
C1099 C203 2.219 . S
C1113 C373 2.221 . S
C1119 C305 2.218 . S
C1133 C407 2.218 . S
C1139 C339 2.220 . S
C1153 C441 2.220 . S
C1159 C509 2.218 . S
C1173 C543 2.221 . S
C1179 C475 2.218 . S
C1193 C258 1.754 . S
C1199 C20 1.750 . S
C1213 C156 1.740 . S
C1219 C54 1.738 . S
C1233 C190 1.742 . S
C1239 C88 1.738 . S
C1253 C224 1.752 . S
C1259 C122 1.746 . S
C1273 C530 1.754 . S
C1279 C292 1.749 . S
C1293 C428 1.738 . S
C1299 C326 1.741 . S
C1313 C462 1.740 . S
C1319 C360 1.738 . S
C1333 C496 1.739 . S
C1339 C394 1.738 . S
