# Generated by pormake.
# Topology qtz-e, (6)-cn, num edge types: 1
# Building blocks:
#     Node 0, Type 0, BuildingBlock: BETFEN_clean_sbu_0, # of connection points: 6
#     Node 1, Type 0, BuildingBlock: BETFEN_clean_sbu_0, # of connection points: 6
#     Node 2, Type 0, BuildingBlock: BETFEN_clean_sbu_0, # of connection points: 6
#     Node 3, Type 0, BuildingBlock: BETFEN_clean_sbu_0, # of connection points: 6
#     Node 4, Type 0, BuildingBlock: BETFEN_clean_sbu_0, # of connection points: 6
#     Node 5, Type 0, BuildingBlock: BETFEN_clean_sbu_0, # of connection points: 6
#     Edge 6, Type (0, 0), None
#     Edge 7, Type (0, 0), None
#     Edge 8, Type (0, 0), None
#     Edge 9, Type (0, 0), None
#     Edge 10, Type (0, 0), None
#     Edge 11, Type (0, 0), None
#     Edge 12, Type (0, 0), None
#     Edge 13, Type (0, 0), None
#     Edge 14, Type (0, 0), None
#     Edge 15, Type (0, 0), None
#     Edge 16, Type (0, 0), None
#     Edge 17, Type (0, 0), None
#     Edge 18, Type (0, 0), None
#     Edge 19, Type (0, 0), None
#     Edge 20, Type (0, 0), None
#     Edge 21, Type (0, 0), None
#     Edge 22, Type (0, 0), None
#     Edge 23, Type (0, 0), None
# Relax obj value: 0.363
# Max RMSD: 0.278
# Mean RMSD: 0.278
data_MOF--net-qtz-e--node1-BETFEN_clean_sbu_0--edge1-none
_symmetry_space_group_name_H-M    P1
_symmetry_Int_Tables_number       1
_symmetry_cell_setting            triclinic
loop_
_symmetry_equiv_pos_as_xyz
'x, y, z'
_cell_length_a     12.741377
_cell_length_b     12.72179
_cell_length_c     28.219839
_cell_angle_alpha  90.030414
_cell_angle_beta   90.018931
_cell_angle_gamma 120.09134
loop_
_atom_site_label
_atom_site_type_symbol
_atom_site_fract_x
_atom_site_fract_y
_atom_site_fract_z
_atom_type_partial_charge
Pr0 Pr 0.45576 0.5983 0.22388 0.0
Pr1 Pr 0.32459 0.35988 0.22892 0.0
C2 C 0.57822 0.82653 0.19218 0.0
C3 C 0.56628 0.85759 0.14253 0.0
C4 C 0.49846 0.91472 0.13129 0.0
C5 C 0.46463 0.91976 1.08409 0.0
C6 C 0.49718 0.86633 1.04777 0.0
C7 C 0.56404 0.80903 1.05956 0.0
C8 C 0.59952 0.80647 0.10574 0.0
C9 C 0.23443 0.55456 0.25427 0.0
C10 C 0.40248 0.42908 0.12034 0.0
C11 C 0.17382 0.13697 0.26349 0.0
C12 C 0.1169 0.09737 0.31118 0.0
C13 C 0.18412 0.09461 0.35032 0.0
C14 C 0.13167 0.06301 0.39549 0.0
C15 C 0.01012 0.03184 0.40271 0.0
C16 C 0.9422 0.03123 0.36329 0.0
C17 C -0.00475 0.06498 0.31834 0.0
C18 C 0.57417 0.44107 0.24393 0.0
C19 C 0.37321 0.48912 0.33 0.0
O20 O 0.63146 0.76224 0.19925 0.0
O21 O 0.47919 0.78625 0.21673 0.0
O22 O 0.24437 0.49035 0.22082 0.0
O23 O 0.3366 0.64145 0.26922 0.0
O24 O 0.31686 0.34044 0.14531 0.0
O25 O 0.47247 0.53278 0.14323 0.0
O26 O 0.13586 0.19485 0.23663 0.0
O27 O 0.29083 0.18243 0.26098 0.0
O28 O 0.51881 0.48624 0.26377 0.0
O29 O 0.50693 0.36509 0.21119 0.0
O30 O 0.47052 0.57854 0.30872 0.0
O31 O 0.2917 0.40254 0.30389 0.0
H32 H 0.46925 0.95284 0.15917 0.0
H33 H 0.41571 0.9668 1.07602 0.0
H34 H 0.59136 0.76678 1.03261 0.0
H35 H 0.64975 0.7602 0.11263 0.0
H36 H 0.27803 0.11843 0.34633 0.0
H37 H 0.18653 0.06268 0.42474 0.0
H38 H 0.84857 0.00789 0.36732 0.0
H39 H 0.94121 0.06743 0.28926 0.0
Pr40 Pr 0.51022 0.12546 0.63037 0.0
Pr41 Pr 0.64194 0.01863 0.62522 0.0
C42 C 0.38759 0.23059 0.66203 0.0
C43 C 0.39945 0.27368 0.71169 0.0
C44 C 0.46731 0.39893 0.72295 0.0
C45 C 0.50117 0.43797 0.77016 0.0
C46 C 0.46861 0.35188 0.80645 0.0
C47 C 0.40165 0.22743 0.79464 0.0
C48 C 0.36616 0.18921 0.74845 0.0
C49 C 0.73145 0.30364 0.59991 0.0
C50 C 0.56378 0.00985 0.73386 0.0
C51 C 0.79287 0.94721 0.59064 0.0
C52 C 0.84932 0.96412 0.54288 0.0
C53 C 0.78132 0.89465 0.5037 0.0
C54 C 0.83355 0.91521 0.4585 0.0
C55 C 0.95562 0.00475 0.45127 0.0
C56 C 0.0242 0.07159 0.49072 0.0
C57 C 0.97139 0.05264 0.5357 0.0
C58 C 0.39237 0.84951 0.61013 0.0
C59 C 0.5928 0.09894 0.52417 0.0
O60 O 0.33442 0.11281 0.65495 0.0
O61 O 0.48666 0.28981 0.63751 0.0
O62 O 0.72153 0.22953 0.63336 0.0
O63 O 0.62932 0.28823 0.58507 0.0
O64 O 0.6494 0.00714 0.70887 0.0
O65 O 0.49378 0.04327 0.71099 0.0
O66 O 0.83086 0.04367 0.61727 0.0
O67 O 0.67592 0.87493 0.59338 0.0
O68 O 0.44784 0.95031 0.59041 0.0
O69 O 0.45953 0.84064 0.64278 0.0
O70 O 0.49554 0.0907 0.54552 0.0
O71 O 0.67435 0.09412 0.55023 0.0
H72 H 0.49656 0.46637 0.69508 0.0
H73 H 0.55017 0.53416 0.77825 0.0
H74 H 0.37432 0.15776 0.82157 0.0
H75 H 0.3159 0.09249 0.74154 0.0
H76 H 0.687 0.82523 0.50769 0.0
H77 H 0.77812 0.86045 0.42921 0.0
H78 H 0.11821 0.14128 0.4867 0.0
H79 H 0.02596 0.10889 0.56478 0.0
Pr80 Pr 0.37653 0.85804 0.89043 0.0
Pr81 Pr 0.61499 0.96515 0.89562 0.0
C82 C 0.14861 0.75268 0.85871 0.0
C83 C 0.11741 0.7096 0.80905 0.0
C84 C 0.06009 0.58437 0.79778 0.0
C85 C 0.05502 0.5454 0.75057 0.0
C86 C 0.10859 0.63155 0.7143 0.0
C87 C 0.16601 0.75598 0.72612 0.0
C88 C 0.16861 0.79412 0.7723 0.0
C89 C 0.41957 0.67991 0.92085 0.0
C90 C 0.54576 0.97385 0.78697 0.0
C91 C 0.8375 0.03702 0.93027 0.0
C92 C 0.87705 0.01988 0.978 0.0
C93 C 0.87879 0.0893 1.01722 0.0
C94 C 0.91047 0.06856 1.0624 0.0
C95 C 0.94277 0.97891 1.06955 0.0
C96 C 0.94426 0.91212 1.03007 0.0
C97 C 0.91037 0.93123 0.98511 0.0
C98 C 0.53438 0.13401 0.91069 0.0
C99 C 0.48564 0.88452 0.99663 0.0
O100 O 0.21325 0.87046 0.86581 0.0
O101 O 0.1885 0.69355 0.88326 0.0
O102 O 0.48384 0.75415 0.88744 0.0
O103 O 0.33283 0.69523 0.93569 0.0
O104 O 0.63416 0.97677 0.812 0.0
O105 O 0.44224 0.94023 0.80979 0.0
O106 O 0.77924 0.94075 0.90351 0.0
O107 O 0.79256 0.109 0.92764 0.0
O108 O 0.4891 0.03323 0.93042 0.0
O109 O 0.61038 0.14295 0.87804 0.0
O110 O 0.3966 0.89273 0.97527 0.0
O111 O 0.572 0.88939 0.97058 0.0
H112 H 0.0219 0.5169 0.82563 0.0
H113 H 0.00788 0.44923 0.74247 0.0
H114 H 0.20838 0.8257 0.6992 0.0
H115 H 0.21501 0.89083 0.77923 0.0
H116 H 0.8541 0.15883 1.01328 0.0
H117 H 0.91002 0.12329 1.09171 0.0
H118 H 0.9684 0.84234 1.03404 0.0
H119 H 0.90852 0.87505 0.95599 0.0
Pr120 Pr 0.84904 0.385 0.29688 0.0
Pr121 Pr 0.95654 0.62341 0.29182 0.0
C122 C 0.74313 0.15679 0.32861 0.0
C123 C 0.70016 0.12577 0.37827 0.0
C124 C 0.57515 0.06864 0.38951 0.0
C125 C 0.53636 0.06363 0.43671 0.0
C126 C 0.62246 0.11707 0.47303 0.0
C127 C 0.74667 0.17437 0.46124 0.0
C128 C 0.78464 0.17691 0.41505 0.0
C129 C 0.67138 0.42867 0.26653 0.0
C130 C 0.96524 0.55429 0.4004 0.0
C131 C 0.02896 0.84632 0.25724 0.0
C132 C 0.01154 0.88593 0.20957 0.0
C133 C 0.08146 0.88878 0.17041 0.0
C134 C 0.06056 0.92047 0.12526 0.0
C135 C 0.9702 0.95165 0.11808 0.0
C136 C 0.90293 0.95214 0.15752 0.0
C137 C 0.92227 0.91828 0.20245 0.0
C138 C 0.12484 0.5424 0.27678 0.0
C139 C 0.87551 0.49414 0.19077 0.0
O140 O 0.86073 0.22113 0.32155 0.0
O141 O 0.68436 0.19699 0.30404 0.0
O142 O 0.74572 0.49294 0.29995 0.0
O143 O 0.68648 0.34172 0.2516 0.0
O144 O 0.96833 0.6429 0.37542 0.0
O145 O 0.93141 0.45058 0.37753 0.0
O146 O 0.93315 0.78852 0.28414 0.0
O147 O 0.10039 0.80078 0.2597 0.0
O148 O 0.0242 0.49703 0.25697 0.0
O149 O 0.13372 0.61829 0.30956 0.0
O150 O 0.88344 0.40478 0.21205 0.0
O151 O 0.88063 0.58067 0.21689 0.0
H152 H 0.50773 0.03052 0.36163 0.0
H153 H 0.44035 0.0166 0.44478 0.0
H154 H 0.81634 0.21666 0.48818 0.0
H155 H 0.88118 0.22318 0.40816 0.0
H156 H 0.15155 0.86498 0.17437 0.0
H157 H 0.11569 0.92087 0.096 0.0
H158 H 0.83268 0.9755 0.15352 0.0
H159 H 0.86583 0.91577 0.23154 0.0
Pr160 Pr 0.11642 0.51846 0.557 0.0
Pr161 Pr 0.01035 0.65061 0.56209 0.0
C162 C 0.22098 0.39529 0.5253 0.0
C163 C 0.26434 0.40758 0.47569 0.0
C164 C 0.38949 0.47535 0.46464 0.0
C165 C 0.42884 0.50959 0.41752 0.0
C166 C 0.34316 0.47755 0.3811 0.0
C167 C 0.2188 0.4108 0.39271 0.0
C168 C 0.18027 0.37483 0.43881 0.0
C169 C 0.29494 0.73986 0.58744 0.0
C170 C 0.00127 0.5723 0.4535 0.0
C171 C 0.93913 0.80198 0.59654 0.0
C172 C 0.95576 0.85844 0.64431 0.0
C173 C 0.88572 0.79041 0.68332 0.0
C174 C 0.90612 0.84251 0.72858 0.0
C175 C -0.00393 0.96449 0.73602 0.0
C176 C 0.06343 0.03317 0.69673 0.0
C177 C 0.04462 0.98047 0.6517 0.0
C178 C 0.84101 0.40096 0.57725 0.0
C179 C 0.09052 0.60176 0.66315 0.0
O180 O 0.10335 0.3423 0.53219 0.0
O181 O 0.28016 0.49419 0.55006 0.0
O182 O 0.2209 0.73009 0.554 0.0
O183 O 0.27922 0.6375 0.6023 0.0
O184 O -0.00099 0.65829 0.47849 0.0
O185 O 0.03424 0.50192 0.47636 0.0
O186 O 0.03562 0.83992 0.57008 0.0
O187 O 0.86685 0.68488 0.59369 0.0
O188 O 0.94174 0.45627 0.59697 0.0
O189 O 0.83238 0.46803 0.54449 0.0
O190 O 0.08179 0.50407 0.64182 0.0
O191 O 0.08605 0.68352 0.63707 0.0
H192 H 0.45661 0.50418 0.49261 0.0
H193 H 0.52493 0.55838 0.40958 0.0
H194 H 0.14946 0.38385 0.36567 0.0
H195 H 0.08365 0.32462 0.44556 0.0
H196 H 0.81599 0.69613 0.67916 0.0
H197 H 0.85096 0.78705 0.75774 0.0
H198 H 0.13344 0.12713 0.70093 0.0
H199 H 0.10125 0.03506 0.62274 0.0
Pr200 Pr 0.5895 0.46502 0.96376 0.0
Pr201 Pr 0.35131 0.33289 0.95863 0.0
C202 C 0.81739 0.58831 0.99548 0.0
C203 C 0.84845 0.57598 1.04509 0.0
C204 C 0.90576 0.5082 1.05615 0.0
C205 C 0.91076 0.47385 0.10327 0.0
C206 C 0.85707 0.50578 0.13967 0.0
C207 C 0.79955 0.57254 0.12805 0.0
C208 C 0.79712 0.60864 1.08196 0.0
C209 C 0.54655 0.24363 0.93334 0.0
C210 C 0.4205 0.41112 1.06724 0.0
C211 C 0.12859 0.18142 0.92412 0.0
C212 C 0.08876 0.12485 0.87636 0.0
C213 C 0.08662 0.19274 0.83733 0.0
C214 C 0.05496 0.14059 0.79208 0.0
C215 C 0.02312 0.0187 0.78466 0.0
C216 C 0.02188 0.95013 0.82397 0.0
C217 C 0.0557 0.00288 0.86901 0.0
C218 C 0.43173 0.58253 0.94348 0.0
C219 C 0.48028 0.38172 0.85759 0.0
O220 O 0.75274 0.64123 0.98858 0.0
O221 O 0.77761 0.48945 0.97071 0.0
O222 O 0.48226 0.25336 0.96676 0.0
O223 O 0.6332 0.34603 0.91848 0.0
O224 O 0.33216 0.32514 1.04223 0.0
O225 O 0.52393 0.48151 1.04439 0.0
O226 O 0.18708 0.14355 0.95066 0.0
O227 O 0.17351 0.29851 0.92692 0.0
O228 O 0.47712 0.52728 0.92375 0.0
O229 O 0.356 0.51539 0.97623 0.0
O230 O 0.56931 0.47944 0.87893 0.0
O231 O 0.394 0.29993 0.88366 0.0
H232 H 0.94406 0.47944 1.02819 0.0
H233 H 0.95801 0.42507 0.11122 0.0
H234 H 0.75713 0.59941 0.15508 0.0
H235 H 0.75076 0.65885 1.07521 0.0
H236 H 0.11104 0.28695 0.84147 0.0
H237 H 0.05517 0.19594 0.7629 0.0
H238 H -0.00195 0.85623 0.81979 0.0
H239 H 0.0578 0.94838 0.89798 0.0
loop_
_geom_bond_atom_site_label_1
_geom_bond_atom_site_label_2
_geom_bond_distance
_geom_bond_site_symmetry_2
_ccdc_geom_bond_type
Pr0 C2 2.880 . S
Pr0 O20 2.562 . S
Pr0 O21 2.490 . S
Pr0 O22 2.695 . S
Pr0 O23 2.512 . S
Pr0 O25 2.437 . S
Pr0 O28 2.436 . S
Pr0 O30 2.438 . S
Pr1 C11 2.880 . S
Pr1 O22 2.436 . S
Pr1 O24 2.438 . S
Pr1 O26 2.562 . S
Pr1 O27 2.490 . S
Pr1 O28 2.695 . S
Pr1 O29 2.512 . S
Pr1 O31 2.437 . S
C2 Pr0 2.880 . S
C2 C3 1.491 1_554 S
C2 O20 1.254 . S
C2 O21 1.225 . S
C3 C2 1.491 1_556 S
C3 C4 1.392 . S
C3 C8 1.356 . S
C4 C3 1.392 . S
C4 C5 1.368 . S
C4 H32 0.929 . S
C5 C4 1.368 . S
C5 C6 1.386 . S
C5 H33 0.929 . S
C6 C5 1.386 . S
C6 C7 1.373 . S
C7 C6 1.373 . S
C7 C8 1.409 . S
C7 H34 0.931 . S
C8 C3 1.356 . S
C8 C7 1.409 . S
C8 H35 0.930 . S
C9 O22 1.270 . S
C9 O23 1.248 . S
C10 O24 1.267 . S
C10 O25 1.278 . S
C11 Pr1 2.880 . S
C11 C12 1.491 . S
C11 O26 1.254 . S
C11 O27 1.225 . S
C12 C11 1.491 . S
C12 C13 1.392 1_545 S
C12 C17 1.356 . S
C13 C12 1.392 1_565 S
C13 C14 1.368 . S
C13 H36 0.929 . S
C14 C13 1.368 . S
C14 C15 1.386 . S
C14 H37 0.929 . S
C15 C14 1.386 . S
C15 C16 1.373 1_465 S
C16 C15 1.373 1_645 S
C16 C17 1.409 1_655 S
C16 H38 0.931 . S
C17 C12 1.356 . S
C17 C16 1.409 1_455 S
C17 H39 0.930 . S
C18 O28 1.270 . S
C18 O29 1.248 . S
C19 O30 1.267 . S
C19 O31 1.278 . S
O20 Pr0 2.562 . S
O20 C2 1.254 . S
O21 Pr0 2.490 . S
O21 C2 1.225 . S
O22 Pr0 2.695 . S
O22 Pr1 2.436 . S
O22 C9 1.270 . S
O23 Pr0 2.512 . S
O23 C9 1.248 . S
O24 Pr1 2.438 . S
O24 C10 1.267 . S
O25 Pr0 2.437 . S
O25 C10 1.278 . S
O26 Pr1 2.562 . S
O26 C11 1.254 . S
O27 Pr1 2.490 . S
O27 C11 1.225 . S
O28 Pr0 2.436 . S
O28 Pr1 2.695 . S
O28 C18 1.270 . S
O29 Pr1 2.512 . S
O29 C18 1.248 . S
O30 Pr0 2.438 . S
O30 C19 1.267 . S
O31 Pr1 2.437 . S
O31 C19 1.278 . S
H32 C4 0.929 . S
H33 C5 0.929 . S
H34 C7 0.931 . S
H35 C8 0.930 . S
H36 C13 0.929 . S
H37 C14 0.929 . S
H38 C16 0.931 . S
H39 C17 0.930 . S
Pr40 C42 2.880 . S
Pr40 O60 2.562 1_545 S
Pr40 O61 2.490 . S
Pr40 O62 2.695 . S
Pr40 O63 2.512 . S
Pr40 O65 2.437 . S
Pr40 O68 2.436 1_545 S
Pr40 O70 2.438 . S
Pr41 C51 2.880 . S
Pr41 O62 2.436 1_565 S
Pr41 O64 2.438 . S
Pr41 O66 2.562 1_565 S
Pr41 O67 2.490 . S
Pr41 O68 2.695 . S
Pr41 O69 2.512 . S
Pr41 O71 2.437 . S
C42 Pr40 2.880 . S
C42 C43 1.491 . S
C42 O60 1.254 1_545 S
C42 O61 1.225 . S
C43 C42 1.491 . S
C43 C44 1.392 . S
C43 C48 1.356 1_545 S
C44 C43 1.392 . S
C44 C45 1.368 . S
C44 H72 0.929 . S
C45 C44 1.368 . S
C45 C46 1.386 . S
C45 H73 0.929 . S
C46 C45 1.386 . S
C46 C47 1.373 . S
C47 C46 1.373 . S
C47 C48 1.409 1_545 S
C47 H74 0.931 1_545 S
C48 C43 1.356 1_565 S
C48 C47 1.409 1_565 S
C48 H75 0.930 . S
C49 O62 1.270 . S
C49 O63 1.248 . S
C50 O64 1.267 . S
C50 O65 1.278 1_565 S
C51 Pr41 2.880 . S
C51 C52 1.491 . S
C51 O66 1.254 1_565 S
C51 O67 1.225 . S
C52 C51 1.491 . S
C52 C53 1.392 . S
C52 C57 1.356 1_565 S
C53 C52 1.392 . S
C53 C54 1.368 . S
C53 H76 0.929 . S
C54 C53 1.368 . S
C54 C55 1.386 . S
C54 H77 0.929 . S
C55 C54 1.386 . S
C55 C56 1.373 1_665 S
C56 C55 1.373 1_445 S
C56 C57 1.409 1_455 S
C56 H78 0.931 . S
C57 C52 1.356 1_545 S
C57 C56 1.409 1_655 S
C57 H79 0.930 . S
C58 O68 1.270 . S
C58 O69 1.248 . S
C59 O70 1.267 . S
C59 O71 1.278 1_545 S
O60 Pr40 2.562 1_565 S
O60 C42 1.254 1_565 S
O61 Pr40 2.490 . S
O61 C42 1.225 . S
O62 Pr40 2.695 . S
O62 Pr41 2.436 1_545 S
O62 C49 1.270 . S
O63 Pr40 2.512 . S
O63 C49 1.248 . S
O64 Pr41 2.438 . S
O64 C50 1.267 . S
O65 Pr40 2.437 . S
O65 C50 1.278 1_545 S
O66 Pr41 2.562 1_545 S
O66 C51 1.254 1_545 S
O67 Pr41 2.490 . S
O67 C51 1.225 . S
O68 Pr40 2.436 1_565 S
O68 Pr41 2.695 . S
O68 C58 1.270 . S
O69 Pr41 2.512 . S
O69 C58 1.248 . S
O70 Pr40 2.438 . S
O70 C59 1.267 . S
O71 Pr41 2.437 . S
O71 C59 1.278 1_565 S
H72 C44 0.929 . S
H73 C45 0.929 . S
H74 C47 0.931 1_565 S
H75 C48 0.930 . S
H76 C53 0.929 . S
H77 C54 0.929 . S
H78 C56 0.931 . S
H79 C57 0.930 . S
Pr80 C82 2.880 . S
Pr80 O100 2.562 1_565 S
Pr80 O101 2.490 . S
Pr80 O102 2.695 . S
Pr80 O103 2.512 . S
Pr80 O105 2.437 . S
Pr80 O108 2.436 1_565 S
Pr80 O110 2.438 . S
Pr81 C91 2.880 . S
Pr81 O102 2.436 1_545 S
Pr81 O104 2.438 . S
Pr81 O106 2.562 1_545 S
Pr81 O107 2.490 . S
Pr81 O108 2.695 . S
Pr81 O109 2.512 . S
Pr81 O111 2.437 . S
C82 Pr80 2.880 . S
C82 C83 1.491 . S
C82 O100 1.254 1_565 S
C82 O101 1.225 . S
C83 C82 1.491 . S
C83 C84 1.392 . S
C83 C88 1.356 1_565 S
C84 C83 1.392 . S
C84 C85 1.368 . S
C84 H112 0.929 . S
C85 C84 1.368 . S
C85 C86 1.386 . S
C85 H113 0.929 . S
C86 C85 1.386 . S
C86 C87 1.373 1_565 S
C87 C86 1.373 1_545 S
C87 C88 1.409 . S
C87 H114 0.931 . S
C88 C83 1.356 1_545 S
C88 C87 1.409 . S
C88 H115 0.930 . S
C89 O102 1.270 . S
C89 O103 1.248 . S
C90 O104 1.267 . S
C90 O105 1.278 1_545 S
C91 Pr81 2.880 . S
C91 C92 1.491 . S
C91 O106 1.254 1_545 S
C91 O107 1.225 . S
C92 C91 1.491 . S
C92 C93 1.392 1_655 S
C92 C97 1.356 1_545 S
C93 C92 1.392 1_455 S
C93 C94 1.368 . S
C93 H116 0.929 . S
C94 C93 1.368 . S
C94 C95 1.386 . S
C94 H117 0.929 . S
C95 C94 1.386 . S
C95 C96 1.373 1_445 S
C96 C95 1.373 1_665 S
C96 C97 1.409 . S
C96 H118 0.931 . S
C97 C92 1.356 1_565 S
C97 C96 1.409 . S
C97 H119 0.930 . S
C98 O108 1.270 . S
C98 O109 1.248 . S
C99 O110 1.267 . S
C99 O111 1.278 1_565 S
O100 Pr80 2.562 1_545 S
O100 C82 1.254 1_545 S
O101 Pr80 2.490 . S
O101 C82 1.225 . S
O102 Pr80 2.695 . S
O102 Pr81 2.436 1_565 S
O102 C89 1.270 . S
O103 Pr80 2.512 . S
O103 C89 1.248 . S
O104 Pr81 2.438 . S
O104 C90 1.267 . S
O105 Pr80 2.437 . S
O105 C90 1.278 1_565 S
O106 Pr81 2.562 1_565 S
O106 C91 1.254 1_565 S
O107 Pr81 2.490 . S
O107 C91 1.225 . S
O108 Pr80 2.436 1_545 S
O108 Pr81 2.695 . S
O108 C98 1.270 . S
O109 Pr81 2.512 . S
O109 C98 1.248 . S
O110 Pr80 2.438 . S
O110 C99 1.267 . S
O111 Pr81 2.437 . S
O111 C99 1.278 1_545 S
H112 C84 0.929 . S
H113 C85 0.929 . S
H114 C87 0.931 . S
H115 C88 0.930 . S
H116 C93 0.929 . S
H117 C94 0.929 . S
H118 C96 0.931 . S
H119 C97 0.930 . S
Pr120 C122 2.880 . S
Pr120 O140 2.562 1_655 S
Pr120 O141 2.490 . S
Pr120 O142 2.695 . S
Pr120 O143 2.512 . S
Pr120 O145 2.437 . S
Pr120 O148 2.436 1_655 S
Pr120 O150 2.438 . S
Pr121 C131 2.880 . S
Pr121 O142 2.436 1_455 S
Pr121 O144 2.438 . S
Pr121 O146 2.562 1_455 S
Pr121 O147 2.490 . S
Pr121 O148 2.695 . S
Pr121 O149 2.512 . S
Pr121 O151 2.437 . S
C122 Pr120 2.880 . S
C122 C123 1.491 . S
C122 O140 1.254 1_655 S
C122 O141 1.225 . S
C123 C122 1.491 . S
C123 C124 1.392 . S
C123 C128 1.356 1_655 S
C124 C123 1.392 . S
C124 C125 1.368 . S
C124 H152 0.929 . S
C125 C124 1.368 . S
C125 C126 1.386 . S
C125 H153 0.929 . S
C126 C125 1.386 . S
C126 C127 1.376 . S
C127 C126 1.376 . S
C127 C128 1.410 1_655 S
C127 H154 0.927 1_655 S
C128 C123 1.356 1_455 S
C128 C127 1.410 1_455 S
C128 H155 0.930 . S
C129 O142 1.270 . S
C129 O143 1.248 . S
C130 O144 1.267 . S
C130 O145 1.278 1_455 S
C131 Pr121 2.880 . S
C131 C132 1.491 . S
C131 O146 1.254 1_455 S
C131 O147 1.225 . S
C132 C131 1.491 . S
C132 C133 1.392 1_565 S
C132 C137 1.356 1_455 S
C133 C132 1.392 1_545 S
C133 C134 1.368 . S
C133 H156 0.929 . S
C134 C133 1.368 . S
C134 C135 1.386 . S
C134 H157 0.929 . S
C135 C134 1.386 . S
C135 C136 1.373 1_445 S
C136 C135 1.373 1_665 S
C136 C137 1.409 . S
C136 H158 0.931 . S
C137 C132 1.356 1_655 S
C137 C136 1.409 . S
C137 H159 0.930 . S
C138 O148 1.270 . S
C138 O149 1.248 . S
C139 O150 1.267 . S
C139 O151 1.278 1_655 S
O140 Pr120 2.562 1_455 S
O140 C122 1.254 1_455 S
O141 Pr120 2.490 . S
O141 C122 1.225 . S
O142 Pr120 2.695 . S
O142 Pr121 2.436 1_655 S
O142 C129 1.270 . S
O143 Pr120 2.512 . S
O143 C129 1.248 . S
O144 Pr121 2.438 . S
O144 C130 1.267 . S
O145 Pr120 2.437 . S
O145 C130 1.278 1_655 S
O146 Pr121 2.562 1_655 S
O146 C131 1.254 1_655 S
O147 Pr121 2.490 . S
O147 C131 1.225 . S
O148 Pr120 2.436 1_455 S
O148 Pr121 2.695 . S
O148 C138 1.270 . S
O149 Pr121 2.512 . S
O149 C138 1.248 . S
O150 Pr120 2.438 . S
O150 C139 1.267 . S
O151 Pr121 2.437 . S
O151 C139 1.278 1_455 S
H152 C124 0.929 . S
H153 C125 0.929 . S
H154 C127 0.927 1_455 S
H155 C128 0.930 . S
H156 C133 0.929 . S
H157 C134 0.929 . S
H158 C136 0.931 . S
H159 C137 0.930 . S
Pr160 C162 2.880 . S
Pr160 O180 2.562 1_455 S
Pr160 O181 2.490 . S
Pr160 O182 2.695 . S
Pr160 O183 2.512 . S
Pr160 O185 2.437 . S
Pr160 O188 2.436 1_455 S
Pr160 O190 2.438 . S
Pr161 C171 2.880 . S
Pr161 O182 2.436 1_655 S
Pr161 O184 2.438 . S
Pr161 O186 2.562 1_655 S
Pr161 O187 2.490 . S
Pr161 O188 2.695 . S
Pr161 O189 2.512 . S
Pr161 O191 2.437 . S
C162 Pr160 2.880 . S
C162 C163 1.491 . S
C162 O180 1.254 1_455 S
C162 O181 1.225 . S
C163 C162 1.491 . S
C163 C164 1.392 . S
C163 C168 1.356 1_455 S
C164 C163 1.392 . S
C164 C165 1.368 . S
C164 H192 0.929 . S
C165 C164 1.368 . S
C165 C166 1.386 . S
C165 H193 0.929 . S
C166 C165 1.386 . S
C166 C167 1.379 . S
C167 C166 1.379 . S
C167 C168 1.407 1_455 S
C167 H194 0.926 1_455 S
C168 C163 1.356 1_655 S
C168 C167 1.407 1_655 S
C168 H195 0.930 . S
C169 O182 1.270 . S
C169 O183 1.248 . S
C170 O184 1.267 . S
C170 O185 1.278 1_655 S
C171 Pr161 2.880 . S
C171 C172 1.491 . S
C171 O186 1.254 1_655 S
C171 O187 1.225 . S
C172 C171 1.491 . S
C172 C173 1.392 . S
C172 C177 1.356 1_655 S
C173 C172 1.392 . S
C173 C174 1.368 . S
C173 H196 0.929 . S
C174 C173 1.368 . S
C174 C175 1.386 . S
C174 H197 0.929 . S
C175 C174 1.386 . S
C175 C176 1.373 1_665 S
C176 C175 1.373 1_445 S
C176 C177 1.409 1_545 S
C176 H198 0.931 . S
C177 C172 1.356 1_455 S
C177 C176 1.409 1_565 S
C177 H199 0.930 . S
C178 O188 1.270 . S
C178 O189 1.248 . S
C179 O190 1.267 . S
C179 O191 1.278 1_455 S
O180 Pr160 2.562 1_655 S
O180 C162 1.254 1_655 S
O181 Pr160 2.490 . S
O181 C162 1.225 . S
O182 Pr160 2.695 . S
O182 Pr161 2.436 1_455 S
O182 C169 1.270 . S
O183 Pr160 2.512 . S
O183 C169 1.248 . S
O184 Pr161 2.438 . S
O184 C170 1.267 . S
O185 Pr160 2.437 . S
O185 C170 1.278 1_455 S
O186 Pr161 2.562 1_455 S
O186 C171 1.254 1_455 S
O187 Pr161 2.490 . S
O187 C171 1.225 . S
O188 Pr160 2.436 1_655 S
O188 Pr161 2.695 . S
O188 C178 1.270 . S
O189 Pr161 2.512 . S
O189 C178 1.248 . S
O190 Pr160 2.438 . S
O190 C179 1.267 . S
O191 Pr161 2.437 . S
O191 C179 1.278 1_655 S
H192 C164 0.929 . S
H193 C165 0.929 . S
H194 C167 0.926 1_655 S
H195 C168 0.930 . S
H196 C173 0.929 . S
H197 C174 0.929 . S
H198 C176 0.931 . S
H199 C177 0.930 . S
Pr200 C202 2.880 . S
Pr200 O220 2.562 . S
Pr200 O221 2.490 . S
Pr200 O222 2.695 . S
Pr200 O223 2.512 . S
Pr200 O225 2.437 . S
Pr200 O228 2.436 . S
Pr200 O230 2.438 . S
Pr201 C211 2.880 . S
Pr201 O222 2.436 . S
Pr201 O224 2.438 . S
Pr201 O226 2.562 . S
Pr201 O227 2.490 . S
Pr201 O228 2.695 . S
Pr201 O229 2.512 . S
Pr201 O231 2.437 . S
C202 Pr200 2.880 . S
C202 C203 1.491 1_556 S
C202 O220 1.254 . S
C202 O221 1.225 . S
C203 C202 1.491 1_554 S
C203 C204 1.392 . S
C203 C208 1.356 . S
C204 C203 1.392 . S
C204 C205 1.368 . S
C204 H232 0.929 . S
C205 C204 1.368 . S
C205 C206 1.386 . S
C205 H233 0.929 . S
C206 C205 1.386 . S
C206 C207 1.373 . S
C207 C206 1.373 . S
C207 C208 1.409 . S
C207 H234 0.931 . S
C208 C203 1.356 . S
C208 C207 1.409 . S
C208 H235 0.930 . S
C209 O222 1.270 . S
C209 O223 1.248 . S
C210 O224 1.267 . S
C210 O225 1.278 . S
C211 Pr201 2.880 . S
C211 C212 1.491 . S
C211 O226 1.254 . S
C211 O227 1.225 . S
C212 C211 1.491 . S
C212 C213 1.392 1_455 S
C212 C217 1.356 . S
C213 C212 1.392 1_655 S
C213 C214 1.368 . S
C213 H236 0.929 . S
C214 C213 1.368 . S
C214 C215 1.386 . S
C214 H237 0.929 . S
C215 C214 1.386 . S
C215 C216 1.373 1_645 S
C216 C215 1.373 1_465 S
C216 C217 1.409 1_565 S
C216 H238 0.931 . S
C217 C212 1.356 . S
C217 C216 1.409 1_545 S
C217 H239 0.930 . S
C218 O228 1.270 . S
C218 O229 1.248 . S
C219 O230 1.267 . S
C219 O231 1.278 . S
O220 Pr200 2.562 . S
O220 C202 1.254 . S
O221 Pr200 2.490 . S
O221 C202 1.225 . S
O222 Pr200 2.695 . S
O222 Pr201 2.436 . S
O222 C209 1.270 . S
O223 Pr200 2.512 . S
O223 C209 1.248 . S
O224 Pr201 2.438 . S
O224 C210 1.267 . S
O225 Pr200 2.437 . S
O225 C210 1.278 . S
O226 Pr201 2.562 . S
O226 C211 1.254 . S
O227 Pr201 2.490 . S
O227 C211 1.225 . S
O228 Pr200 2.436 . S
O228 Pr201 2.695 . S
O228 C218 1.270 . S
O229 Pr201 2.512 . S
O229 C218 1.248 . S
O230 Pr200 2.438 . S
O230 C219 1.267 . S
O231 Pr201 2.437 . S
O231 C219 1.278 . S
H232 C204 0.929 . S
H233 C205 0.929 . S
H234 C207 0.931 . S
H235 C208 0.930 . S
H236 C213 0.929 . S
H237 C214 0.929 . S
H238 C216 0.931 . S
H239 C217 0.930 . S
C166 C19 3.767 . S
C219 C46 3.768 . S
C6 C99 3.767 . S
C59 C126 3.768 . S
C86 C179 3.768 . S
C139 C206 3.768 . S
C18 C129 4.099 . S
C178 C49 4.099 . S
C209 C98 4.099 . S
C89 C218 4.099 . S
C9 C138 4.098 . S
C169 C58 4.098 . S
C210 C10 3.034 1_556 S
C55 C15 0.840 1_655 S
C90 C50 3.034 1_545 S
C95 C135 0.840 1_556 S
C170 C130 3.034 1_655 S
C215 C175 0.840 1_545 S
