# Generated by pormake.
# Topology uoj, (4)-cn, num edge types: 1
# Building blocks:
#     Node 0, Type 0, BuildingBlock: ICAMEG_clean_sbu_1, # of connection points: 4
#     Node 1, Type 0, BuildingBlock: ICAMEG_clean_sbu_1, # of connection points: 4
#     Node 2, Type 0, BuildingBlock: ICAMEG_clean_sbu_1, # of connection points: 4
#     Node 3, Type 0, BuildingBlock: ICAMEG_clean_sbu_1, # of connection points: 4
#     Node 4, Type 0, BuildingBlock: ICAMEG_clean_sbu_1, # of connection points: 4
#     Node 5, Type 0, BuildingBlock: ICAMEG_clean_sbu_1, # of connection points: 4
#     Node 6, Type 0, BuildingBlock: ICAMEG_clean_sbu_1, # of connection points: 4
#     Node 7, Type 0, BuildingBlock: ICAMEG_clean_sbu_1, # of connection points: 4
#     Edge 8, Type (0, 0), BuildingBlock: MIFKUJ_clean_linker_0, # of connection points: 2
#     Edge 9, Type (0, 0), BuildingBlock: MIFKUJ_clean_linker_0, # of connection points: 2
#     Edge 10, Type (0, 0), BuildingBlock: MIFKUJ_clean_linker_0, # of connection points: 2
#     Edge 11, Type (0, 0), BuildingBlock: MIFKUJ_clean_linker_0, # of connection points: 2
#     Edge 12, Type (0, 0), BuildingBlock: MIFKUJ_clean_linker_0, # of connection points: 2
#     Edge 13, Type (0, 0), BuildingBlock: MIFKUJ_clean_linker_0, # of connection points: 2
#     Edge 14, Type (0, 0), BuildingBlock: MIFKUJ_clean_linker_0, # of connection points: 2
#     Edge 15, Type (0, 0), BuildingBlock: MIFKUJ_clean_linker_0, # of connection points: 2
#     Edge 16, Type (0, 0), BuildingBlock: MIFKUJ_clean_linker_0, # of connection points: 2
#     Edge 17, Type (0, 0), BuildingBlock: MIFKUJ_clean_linker_0, # of connection points: 2
#     Edge 18, Type (0, 0), BuildingBlock: MIFKUJ_clean_linker_0, # of connection points: 2
#     Edge 19, Type (0, 0), BuildingBlock: MIFKUJ_clean_linker_0, # of connection points: 2
#     Edge 20, Type (0, 0), BuildingBlock: MIFKUJ_clean_linker_0, # of connection points: 2
#     Edge 21, Type (0, 0), BuildingBlock: MIFKUJ_clean_linker_0, # of connection points: 2
#     Edge 22, Type (0, 0), BuildingBlock: MIFKUJ_clean_linker_0, # of connection points: 2
#     Edge 23, Type (0, 0), BuildingBlock: MIFKUJ_clean_linker_0, # of connection points: 2
# Relax obj value: 0.080
# Max RMSD: 0.094
# Mean RMSD: 0.093
data_MOF--net-uoj--node1-ICAMEG_clean_sbu_1--edge1-MIFKUJ_clean_linker_0
_symmetry_space_group_name_H-M    P1
_symmetry_Int_Tables_number       1
_symmetry_cell_setting            triclinic
loop_
_symmetry_equiv_pos_as_xyz
'x, y, z'
_cell_length_a     46.860837
_cell_length_b     46.862152
_cell_length_c     43.21157
_cell_angle_alpha  89.998912
_cell_angle_beta   89.997331
_cell_angle_gamma 89.920516
loop_
_atom_site_label
_atom_site_type_symbol
_atom_site_fract_x
_atom_site_fract_y
_atom_site_fract_z
_atom_type_partial_charge
Co0 Co 0.01603 0.29115 0.42084 0.0
Co1 Co 0.07683 0.304 0.46378 0.0
O2 O 0.04443 0.28041 0.45171 0.0
C3 C 0.98168 0.27723 0.47659 0.0
O4 O 0.99805 0.29425 0.49293 0.0
C5 C 0.10267 0.25022 0.44245 0.0
O6 O 0.08595 0.25234 0.4182 0.0
O7 O 0.08707 0.31148 0.41988 0.0
O8 O 0.0461 0.30728 0.39317 0.0
H9 H 0.14008 0.39044 0.46027 0.0
H10 H 0.01942 0.23177 0.44441 0.0
O11 O 0.98553 0.27457 0.44758 0.0
H12 H 0.03245 0.22407 0.33149 0.0
H13 H 0.9272 0.27604 0.35737 0.0
H14 H 0.00596 0.34206 0.38162 0.0
H15 H 0.02392 0.27086 0.35592 0.0
H16 H 0.96412 0.26272 0.39543 0.0
O17 O 0.10191 0.26927 0.46351 0.0
H18 H 0.09881 0.36086 0.44538 0.0
H19 H 0.12488 0.29614 0.50815 0.0
H20 H 0.96962 0.35614 0.34323 0.0
H21 H 0.02755 0.1845 0.42093 0.0
H22 H 0.92989 0.32301 0.33088 0.0
H23 H 0.0343 0.18044 0.36409 0.0
O24 O 0.01066 0.32937 0.44047 0.0
H25 H 0.04886 0.24286 0.55431 0.0
H26 H 0.06916 0.34093 0.51935 0.0
H27 H 0.05522 0.33249 0.57363 0.0
H28 H 0.04499 0.28315 0.59142 0.0
H29 H 0.06268 0.25229 0.50018 0.0
H30 H 0.16659 0.32492 0.52355 0.0
H31 H 0.17433 0.37248 0.49962 0.0
O32 O 0.05248 0.33895 0.46381 0.0
C33 C 0.07259 0.31328 0.39497 0.0
C34 C 0.13689 0.36979 0.47094 0.0
C35 C 0.15179 0.333 0.50643 0.0
N36 N 0.10933 0.32692 0.47608 0.0
C37 C 0.11352 0.35299 0.46267 0.0
C38 C 0.12817 0.31678 0.49758 0.0
C39 C 0.15611 0.35969 0.493 0.0
C40 C 0.0221 0.23017 0.41962 0.0
N41 N 0.02132 0.2541 0.40155 0.0
C42 C 0.02679 0.20335 0.40648 0.0
C43 C 0.03061 0.20109 0.37459 0.0
C44 C 0.02962 0.22556 0.35629 0.0
C45 C 0.02493 0.25203 0.37026 0.0
C46 C 0.94444 0.29064 0.3625 0.0
C47 C 0.98883 0.32745 0.37622 0.0
C48 C 0.96537 0.28324 0.38409 0.0
N49 N 0.98729 0.30151 0.39055 0.0
C50 C 0.96827 0.33558 0.35453 0.0
C51 C 0.94597 0.31699 0.34764 0.0
C52 C 0.02747 0.34612 0.45501 0.0
C53 C 0.05335 0.26444 0.54686 0.0
C54 C 0.0647 0.31941 0.52691 0.0
C55 C 0.05686 0.31475 0.55769 0.0
C56 C 0.05114 0.28706 0.56766 0.0
N57 N 0.06688 0.29709 0.50668 0.0
C58 C 0.06129 0.26989 0.51627 0.0
Co59 Co 0.2967 0.98154 0.58067 0.0
Co60 Co 0.30545 0.92024 0.53822 0.0
O61 O 0.28365 0.95403 0.54996 0.0
C62 C 0.28229 0.01766 0.52656 0.0
O63 O 0.29893 0.00139 0.5096 0.0
C64 C 0.2493 0.89694 0.55561 0.0
O65 O 0.25143 0.91182 0.58125 0.0
O66 O 0.3094 0.90867 0.58222 0.0
O67 O 0.31361 0.95066 0.60679 0.0
H68 H 0.38606 0.84977 0.54573 0.0
H69 H 0.2359 0.98144 0.5614 0.0
O70 O 0.2796 0.01293 0.55542 0.0
H71 H 0.23475 0.96352 0.67387 0.0
H72 H 0.28684 0.06932 0.64698 0.0
H73 H 0.34995 0.98981 0.61662 0.0
H74 H 0.28023 0.97119 0.64645 0.0
H75 H 0.2708 0.0335 0.60895 0.0
O76 O 0.26905 0.89805 0.53537 0.0
H77 H 0.35884 0.89286 0.56015 0.0
H78 H 0.29676 0.87434 0.49146 0.0
H79 H 0.36677 0.02503 0.65489 0.0
H80 H 0.1899 0.97427 0.58799 0.0
H81 H 0.3351 0.06513 0.67032 0.0
H82 H 0.18914 0.9651 0.6446 0.0
O83 O 0.33379 0.98598 0.55873 0.0
H84 H 0.25181 0.95498 0.44484 0.0
H85 H 0.34597 0.92628 0.48536 0.0
H86 H 0.34167 0.94212 0.43113 0.0
H87 H 0.29431 0.95657 0.41053 0.0
H88 H 0.25712 0.93922 0.49902 0.0
H89 H 0.32316 0.83089 0.47646 0.0
H90 H 0.36823 0.81845 0.50359 0.0
O91 O 0.34231 0.94165 0.54113 0.0
C92 C 0.31494 0.92347 0.60621 0.0
C93 C 0.36652 0.85503 0.53364 0.0
C94 C 0.3312 0.84442 0.49479 0.0
N95 N 0.32645 0.88628 0.5264 0.0
C96 C 0.35108 0.87946 0.54163 0.0
C97 C 0.31633 0.86902 0.50341 0.0
C98 C 0.35649 0.83745 0.51002 0.0
C99 C 0.23573 0.97781 0.5861 0.0
N100 N 0.26073 0.97687 0.60235 0.0
C101 C 0.20962 0.97363 0.60101 0.0
C102 C 0.20922 0.96844 0.63277 0.0
C103 C 0.23479 0.96754 0.64919 0.0
C104 C 0.26049 0.97182 0.63352 0.0
C105 C 0.30081 0.05191 0.64049 0.0
C106 C 0.336 0.00712 0.62334 0.0
C107 C 0.29187 0.03161 0.61893 0.0
N108 N 0.30935 0.00948 0.61076 0.0
C109 C 0.34566 0.02704 0.64496 0.0
C110 C 0.32789 0.04955 0.65359 0.0
C111 C 0.3503 0.96708 0.54721 0.0
C112 C 0.27255 0.94865 0.45352 0.0
C113 C 0.3253 0.9326 0.47659 0.0
C114 C 0.32299 0.94149 0.44584 0.0
C115 C 0.29641 0.94958 0.43429 0.0
N116 N 0.30178 0.9317 0.49528 0.0
C117 C 0.27566 0.93961 0.48413 0.0
Co118 Co 0.98422 0.70097 0.41345 0.0
Co119 Co 0.92135 0.69283 0.4537 0.0
O120 O 0.95635 0.71368 0.44414 0.0
C121 C 0.01855 0.71379 0.46967 0.0
O122 O 0.99886 0.70165 0.48678 0.0
C123 C 0.90059 0.75059 0.4382 0.0
O124 O 0.91584 0.74877 0.41279 0.0
O125 O 0.91094 0.69084 0.40922 0.0
O126 O 0.95329 0.68744 0.38523 0.0
H127 H 0.84836 0.61541 0.44 0.0
H128 H 0.98568 0.76025 0.4373 0.0
O129 O 0.01601 0.71464 0.44038 0.0
H130 H 0.97366 0.7696 0.32439 0.0
H131 H 0.07426 0.70935 0.35047 0.0
H132 H 0.9906 0.64949 0.37422 0.0
H133 H 0.97792 0.72213 0.34857 0.0
H134 H 0.03828 0.72541 0.38834 0.0
O135 O 0.90041 0.73 0.45747 0.0
H136 H 0.89284 0.64138 0.42847 0.0
H137 H 0.87424 0.70161 0.4991 0.0
H138 H 0.02594 0.63272 0.33599 0.0
H139 H 0.98183 0.80816 0.41407 0.0
H140 H 0.06814 0.66275 0.3239 0.0
H141 H 0.97565 0.81306 0.35723 0.0
O142 O 0.98633 0.66258 0.43314 0.0
H143 H 0.95365 0.74172 0.55108 0.0
H144 H 0.92465 0.65007 0.50472 0.0
H145 H 0.93844 0.65174 0.55977 0.0
H146 H 0.95301 0.69784 0.58331 0.0
H147 H 0.94002 0.73902 0.49602 0.0
H148 H 0.82941 0.67643 0.51125 0.0
H149 H 0.81629 0.63293 0.48168 0.0
O150 O 0.94149 0.65527 0.44989 0.0
C151 C 0.92609 0.68649 0.38519 0.0
C152 C 0.8539 0.63426 0.45315 0.0
C153 C 0.84325 0.66853 0.49311 0.0
N154 N 0.8863 0.67276 0.46335 0.0
C155 C 0.87912 0.64899 0.44681 0.0
C156 C 0.86864 0.68272 0.48611 0.0
C157 C 0.83591 0.64412 0.47651 0.0
C158 C 0.98325 0.7622 0.41252 0.0
N159 N 0.98205 0.73839 0.39431 0.0
C160 C 0.98097 0.78939 0.39951 0.0
C161 C 0.97747 0.79212 0.36762 0.0
C162 C 0.97632 0.76775 0.34919 0.0
C163 C 0.97863 0.74091 0.36302 0.0
C164 C 0.05594 0.6961 0.3555 0.0
C165 C 0.00883 0.66274 0.36894 0.0
C166 C 0.03553 0.70504 0.37698 0.0
N167 N 0.01227 0.68848 0.38332 0.0
C168 C 0.0288 0.65311 0.34734 0.0
C169 C 0.05249 0.66995 0.34059 0.0
C170 C 0.96668 0.64649 0.44378 0.0
C171 C 0.94726 0.72153 0.54111 0.0
C172 C 0.93111 0.67018 0.51475 0.0
C173 C 0.9388 0.67101 0.54596 0.0
C174 C 0.94694 0.69689 0.55916 0.0
N175 N 0.93147 0.69445 0.49719 0.0
C176 C 0.93939 0.7199 0.50998 0.0
Co177 Co 0.70411 0.0139 0.58362 0.0
Co178 Co 0.69411 0.07637 0.54236 0.0
O179 O 0.71635 0.04259 0.55362 0.0
C180 C 0.71763 0.98075 0.52678 0.0
O181 O 0.70529 0.00064 0.51007 0.0
C182 C 0.74865 0.10015 0.56464 0.0
O183 O 0.74652 0.08285 0.58842 0.0
O184 O 0.68667 0.08577 0.58653 0.0
O185 O 0.68971 0.04413 0.61213 0.0
H186 H 0.61022 0.14311 0.54741 0.0
H187 H 0.76345 0.01358 0.55983 0.0
O188 O 0.7185 0.98282 0.55613 0.0
H189 H 0.77249 0.02449 0.67288 0.0
H190 H 0.71461 0.92317 0.64508 0.0
H191 H 0.6527 0.00579 0.62256 0.0
H192 H 0.7251 0.01997 0.64858 0.0
H193 H 0.72985 0.96006 0.60788 0.0
O194 O 0.72957 0.1001 0.54364 0.0
H195 H 0.63816 0.10035 0.5613 0.0
H196 H 0.70393 0.12503 0.49923 0.0
H197 H 0.63673 0.96952 0.66011 0.0
H198 H 0.81128 0.01756 0.58318 0.0
H199 H 0.6678 0.92784 0.67158 0.0
H200 H 0.81602 0.02319 0.6401 0.0
O201 O 0.66572 0.01104 0.56389 0.0
H202 H 0.75521 0.04904 0.4515 0.0
H203 H 0.65743 0.0714 0.48619 0.0
H204 H 0.66596 0.05874 0.43155 0.0
H205 H 0.71515 0.04748 0.4139 0.0
H206 H 0.74568 0.06158 0.50598 0.0
H207 H 0.67681 0.16821 0.48485 0.0
H208 H 0.62954 0.1774 0.50892 0.0
O209 O 0.65828 0.05354 0.54114 0.0
C210 C 0.68453 0.07083 0.61108 0.0
C211 C 0.63074 0.13929 0.53668 0.0
C212 C 0.66814 0.15339 0.5016 0.0
N213 N 0.67252 0.11008 0.53088 0.0
C214 C 0.64662 0.11507 0.54438 0.0
C215 C 0.68342 0.12894 0.50987 0.0
C216 C 0.64161 0.15854 0.5151 0.0
C217 C 0.76532 0.01579 0.58464 0.0
N218 N 0.74147 0.01655 0.60283 0.0
C219 C 0.79248 0.01813 0.59771 0.0
C220 C 0.79512 0.02133 0.62965 0.0
C221 C 0.7707 0.02209 0.64805 0.0
C222 C 0.7439 0.01966 0.63416 0.0
C223 C 0.70091 0.94126 0.64032 0.0
C224 C 0.66641 0.9878 0.62758 0.0
C225 C 0.70939 0.96218 0.61923 0.0
N226 N 0.69226 0.98515 0.61323 0.0
C227 C 0.65722 0.96729 0.64879 0.0
C228 C 0.67464 0.9439 0.65519 0.0
C229 C 0.64996 0.02877 0.54932 0.0
C230 C 0.7337 0.05399 0.45889 0.0
C231 C 0.67888 0.06646 0.47869 0.0
C232 C 0.68359 0.05937 0.44771 0.0
C233 C 0.7112 0.05308 0.43782 0.0
N234 N 0.70106 0.06735 0.49921 0.0
C235 C 0.72819 0.06123 0.48968 0.0
Co236 Co 0.48082 0.80062 0.91526 0.0
Co237 Co 0.42077 0.80848 0.95991 0.0
O238 O 0.45415 0.78677 0.94654 0.0
C239 C 0.51773 0.78347 0.96765 0.0
O240 O 0.50028 0.79728 0.98614 0.0
C241 C 0.3962 0.75262 0.94285 0.0
O242 O 0.40959 0.75494 0.91628 0.0
O243 O 0.40781 0.81285 0.91641 0.0
O244 O 0.44917 0.81832 0.8909 0.0
H245 H 0.34998 0.88905 0.95591 0.0
H246 H 0.48098 0.73933 0.93241 0.0
O247 O 0.51316 0.78298 0.93862 0.0
H248 H 0.46 0.74155 0.82058 0.0
H249 H 0.56638 0.79274 0.84529 0.0
H250 H 0.48808 0.85497 0.88102 0.0
H251 H 0.46852 0.78616 0.84932 0.0
H252 H 0.53172 0.77552 0.88397 0.0
O253 O 0.39867 0.77208 0.96328 0.0
H254 H 0.39276 0.86216 0.93976 0.0
H255 H 0.37627 0.79921 0.00814 0.0
H256 H 0.52212 0.87297 0.84212 0.0
H257 H 0.47291 0.69414 0.90446 0.0
H258 H 0.56161 0.84175 0.824 0.0
H259 H 0.46223 0.69509 0.84817 0.0
O260 O 0.48611 0.83694 0.93835 0.0
H261 H 0.45776 0.75389 0.05162 0.0
H262 H 0.42864 0.84854 0.01288 0.0
H263 H 0.44596 0.84372 0.06652 0.0
H264 H 0.46062 0.79611 0.08623 0.0
H265 H 0.44058 0.75973 0.99803 0.0
H266 H 0.33314 0.82525 0.02482 0.0
H267 H 0.31983 0.87059 0.99872 0.0
O268 O 0.44205 0.84546 0.95664 0.0
C269 C 0.42199 0.81925 0.89222 0.0
C270 C 0.35563 0.86939 0.96755 0.0
C271 C 0.34616 0.83356 0.00621 0.0
N272 N 0.38718 0.82934 0.97324 0.0
C273 C 0.37989 0.85413 0.95859 0.0
C274 C 0.37058 0.8189 0.99664 0.0
C275 C 0.3387 0.859 0.99155 0.0
C276 C 0.47665 0.73988 0.90785 0.0
N277 N 0.47537 0.76534 0.89251 0.0
C278 C 0.47197 0.71424 0.89217 0.0
C279 C 0.46593 0.71479 0.86059 0.0
C280 C 0.46467 0.74085 0.8451 0.0
C281 C 0.46945 0.76605 0.86153 0.0
C282 C 0.54923 0.80652 0.85296 0.0
C283 C 0.50512 0.84121 0.87312 0.0
C284 C 0.52959 0.79691 0.8749 0.0
N285 N 0.50779 0.81416 0.88457 0.0
C286 C 0.52437 0.85154 0.85115 0.0
C287 C 0.54654 0.83402 0.84101 0.0
C288 C 0.46746 0.85342 0.95034 0.0
C289 C 0.45135 0.77473 0.04333 0.0
C290 C 0.43509 0.82777 0.02125 0.0
C291 C 0.4448 0.82516 0.05167 0.0
C292 C 0.453 0.79844 0.06272 0.0
N293 N 0.43353 0.80441 0.00238 0.0
C294 C 0.44148 0.77814 0.01306 0.0
Co295 Co 0.80873 0.57846 0.03185 0.0
Co296 Co 0.79589 0.51972 0.07837 0.0
O297 O 0.78565 0.54595 0.04507 0.0
C298 C 0.75387 0.60448 0.0499 0.0
O299 O 0.75565 0.58964 0.07559 0.0
C300 C 0.78644 0.48258 0.02374 0.0
O301 O 0.80001 0.50135 0.00669 0.0
O302 O 0.83554 0.51554 0.06204 0.0
O303 O 0.8443 0.55521 0.03434 0.0
H304 H 0.85814 0.48177 0.16363 0.0
H305 H 0.75832 0.56138 0.99475 0.0
O306 O 0.77337 0.60247 0.02946 0.0
H307 H 0.84064 0.5519 0.92438 0.0
H308 H 0.82884 0.66546 0.96714 0.0
H309 H 0.86437 0.60312 0.05066 0.0
H310 H 0.84731 0.56879 0.97796 0.0
H311 H 0.8008 0.62382 0.98427 0.0
O312 O 0.78338 0.48659 0.05268 0.0
H313 H 0.84456 0.51497 0.12183 0.0
H314 H 0.76879 0.46773 0.10529 0.0
H315 H 0.89319 0.64439 0.03412 0.0
H316 H 0.75065 0.54459 0.94129 0.0
H317 H 0.87544 0.6759 0.99206 0.0
H318 H 0.79202 0.53968 0.90574 0.0
O319 O 0.81488 0.59114 0.07536 0.0
H320 H 0.68909 0.52455 0.06931 0.0
H321 H 0.77087 0.53028 0.14085 0.0
H322 H 0.72209 0.53728 0.16097 0.0
H323 H 0.68078 0.53443 0.12507 0.0
H324 H 0.73824 0.51797 0.05016 0.0
H325 H 0.78165 0.43389 0.14676 0.0
H326 H 0.82656 0.44087 0.17632 0.0
O327 O 0.80819 0.55216 0.10495 0.0
C328 C 0.85208 0.53151 0.0462 0.0
C329 C 0.83847 0.47855 0.15098 0.0
C330 C 0.79555 0.45165 0.14148 0.0
N331 N 0.80582 0.49342 0.11132 0.0
C332 C 0.83063 0.49733 0.12736 0.0
C333 C 0.78842 0.47085 0.11798 0.0
C334 C 0.82075 0.45559 0.15807 0.0
C335 C 0.77638 0.55958 0.97931 0.0
N336 N 0.8032 0.5662 0.9894 0.0
C337 C 0.77193 0.54995 0.94911 0.0
C338 C 0.79515 0.54715 0.92919 0.0
C339 C 0.82244 0.55398 0.93964 0.0
C340 C 0.8261 0.56348 0.97002 0.0
C341 C 0.83683 0.65186 0.98545 0.0
C342 C 0.85659 0.61663 0.03222 0.0
C343 C 0.82103 0.62828 0.99528 0.0
N344 N 0.83106 0.61094 0.01827 0.0
C345 C 0.87296 0.64001 0.02301 0.0
C346 C 0.86298 0.6577 0.99943 0.0
C347 C 0.81454 0.57838 0.10142 0.0
C348 C 0.70691 0.52582 0.08519 0.0
C349 C 0.75301 0.52913 0.12509 0.0
C350 C 0.72543 0.53302 0.13662 0.0
C351 C 0.70226 0.53139 0.11647 0.0
N352 N 0.7574 0.52374 0.09438 0.0
C353 C 0.73478 0.52201 0.0745 0.0
Co354 Co 0.51808 0.20742 0.91753 0.0
Co355 Co 0.5785 0.19742 0.96235 0.0
O356 O 0.54504 0.21943 0.94944 0.0
C357 C 0.48225 0.21826 0.97291 0.0
O358 O 0.50154 0.20531 0.98989 0.0
C359 C 0.60275 0.25259 0.94235 0.0
O360 O 0.58717 0.25037 0.91722 0.0
O361 O 0.59024 0.19059 0.91864 0.0
O362 O 0.55004 0.19469 0.89044 0.0
H363 H 0.64671 0.11459 0.96029 0.0
H364 H 0.51578 0.26608 0.94314 0.0
O365 O 0.48547 0.22035 0.94376 0.0
H366 H 0.52991 0.2783 0.83085 0.0
H367 H 0.43008 0.21706 0.85136 0.0
H368 H 0.51346 0.15704 0.87644 0.0
H369 H 0.5257 0.2302 0.85357 0.0
H370 H 0.46456 0.23222 0.89123 0.0
O371 O 0.60166 0.23329 0.96308 0.0
H372 H 0.6042 0.14196 0.94432 0.0
H373 H 0.62483 0.20755 0.0083 0.0
H374 H 0.47956 0.14113 0.83637 0.0
H375 H 0.51946 0.31459 0.92137 0.0
H376 H 0.43758 0.17129 0.82349 0.0
H377 H 0.52666 0.32093 0.86485 0.0
O378 O 0.51517 0.16848 0.93584 0.0
H379 H 0.54536 0.2568 0.05229 0.0
H380 H 0.57134 0.15992 0.01758 0.0
H381 H 0.55567 0.16748 0.07146 0.0
H382 H 0.54257 0.21621 0.08913 0.0
H383 H 0.56095 0.24825 0.99855 0.0
H384 H 0.66772 0.18103 0.02477 0.0
H385 H 0.67883 0.13413 0.00079 0.0
O386 O 0.55619 0.16121 0.96165 0.0
C387 C 0.57664 0.18945 0.8931 0.0
C388 C 0.64205 0.13495 0.97099 0.0
C389 C 0.65386 0.17226 0.00715 0.0
N390 N 0.61191 0.1762 0.97554 0.0
C391 C 0.61796 0.1505 0.96211 0.0
C392 C 0.62958 0.1872 0.99769 0.0
C393 C 0.66008 0.14594 0.99369 0.0
C394 C 0.51878 0.26866 0.9185 0.0
N395 N 0.52065 0.24532 0.89964 0.0
C396 C 0.5209 0.29618 0.90632 0.0
C397 C 0.52498 0.29972 0.87461 0.0
C398 C 0.52684 0.27582 0.85552 0.0
C399 C 0.52462 0.24863 0.86853 0.0
C400 C 0.44834 0.20378 0.85668 0.0
C401 C 0.4953 0.17034 0.87088 0.0
C402 C 0.4679 0.21221 0.87929 0.0
N403 N 0.49111 0.19563 0.88598 0.0
C404 C 0.47616 0.1612 0.8482 0.0
C405 C 0.45257 0.1781 0.84105 0.0
C406 C 0.53213 0.15271 0.95143 0.0
C407 C 0.55111 0.23548 0.0449 0.0
C408 C 0.56562 0.18118 0.02508 0.0
C409 C 0.55682 0.18534 0.05563 0.0
C410 C 0.5495 0.21269 0.06554 0.0
N411 N 0.56718 0.20365 0.00499 0.0
C412 C 0.56007 0.23054 0.01454 0.0
Co413 Co 0.19833 0.42716 0.04921 0.0
Co414 Co 0.20842 0.48722 0.09419 0.0
O415 O 0.21965 0.46123 0.06106 0.0
C416 C 0.25569 0.40486 0.06355 0.0
O417 O 0.25412 0.41913 0.08964 0.0
C418 C 0.21587 0.52442 0.03932 0.0
O419 O 0.20164 0.50559 0.02298 0.0
O420 O 0.16874 0.48984 0.07763 0.0
O421 O 0.1612 0.44758 0.05431 0.0
H422 H 0.14491 0.52327 0.17933 0.0
H423 H 0.24496 0.44795 0.00867 0.0
O424 O 0.23516 0.40589 0.04423 0.0
H425 H 0.158 0.4515 0.94448 0.0
H426 H 0.18087 0.33919 0.98515 0.0
H427 H 0.14625 0.39803 0.07201 0.0
H428 H 0.15592 0.434 0.99827 0.0
H429 H 0.2067 0.38273 0.0007 0.0
O430 O 0.21991 0.52051 0.06814 0.0
H431 H 0.15965 0.49039 0.13769 0.0
H432 H 0.23345 0.54047 0.12055 0.0
H433 H 0.11959 0.35482 0.05708 0.0
H434 H 0.24804 0.4654 0.95491 0.0
H435 H 0.13689 0.32507 0.01334 0.0
H436 H 0.20433 0.46733 0.92247 0.0
O437 O 0.19584 0.41418 0.09293 0.0
H438 H 0.31533 0.48654 0.08542 0.0
H439 H 0.23375 0.47832 0.15686 0.0
H440 H 0.2827 0.47358 0.17718 0.0
H441 H 0.32393 0.47774 0.14133 0.0
H442 H 0.26601 0.49079 0.06607 0.0
H443 H 0.21937 0.57407 0.16178 0.0
H444 H 0.17487 0.56548 0.19159 0.0
O445 O 0.19714 0.4545 0.12115 0.0
C446 C 0.15255 0.4717 0.06435 0.0
C447 C 0.16439 0.5272 0.16656 0.0
C448 C 0.20616 0.55573 0.15668 0.0
N449 N 0.19748 0.5134 0.12687 0.0
C450 C 0.17288 0.50861 0.14303 0.0
C451 C 0.21398 0.53668 0.1333 0.0
C452 C 0.18119 0.55089 0.17341 0.0
C453 C 0.2259 0.44844 0.99458 0.0
N454 N 0.20033 0.43984 0.00653 0.0
C455 C 0.22776 0.45846 0.9642 0.0
C456 C 0.20321 0.45959 0.94603 0.0
C457 C 0.17721 0.45073 0.95838 0.0
C458 C 0.17615 0.4409 0.98887 0.0
C459 C 0.17306 0.35202 0.00418 0.0
C460 C 0.15376 0.38532 0.0528 0.0
C461 C 0.18763 0.37667 0.01312 0.0
N462 N 0.17779 0.39307 0.03702 0.0
C463 C 0.13865 0.36082 0.04452 0.0
C464 C 0.14839 0.34412 0.02 0.0
C465 C 0.19413 0.42755 0.11858 0.0
C466 C 0.29755 0.48469 0.10127 0.0
C467 C 0.25155 0.47991 0.14111 0.0
C468 C 0.27923 0.47735 0.15276 0.0
C469 C 0.30236 0.47972 0.13264 0.0
N470 N 0.247 0.48473 0.11032 0.0
C471 C 0.26957 0.48717 0.09047 0.0
H472 H 0.16739 0.37582 0.1226 0.0
H473 H 0.15052 0.3521 0.16967 0.0
H474 H 0.18845 0.41827 0.22533 0.0
H475 H 0.20461 0.4426 0.17857 0.0
H476 H 0.19405 0.35533 0.24688 0.0
H477 H 0.12717 0.43025 0.21463 0.0
H478 H 0.09746 0.45353 0.17482 0.0
H479 H 0.05095 0.37561 0.16145 0.0
H480 H 0.0808 0.35172 0.2008 0.0
H481 H 0.12183 0.34424 0.39014 0.0
H482 H 0.1453 0.36041 0.34283 0.0
H483 H 0.08071 0.31842 0.2881 0.0
H484 H 0.05636 0.30371 0.33518 0.0
H485 H 0.0899 0.36648 0.26411 0.0
H486 H 0.1514 0.29157 0.29807 0.0
H487 H 0.18166 0.26486 0.33474 0.0
H488 H 0.23826 0.33652 0.34197 0.0
H489 H 0.20812 0.36383 0.30569 0.0
C490 C 0.17255 0.3851 0.14485 0.0
C491 C 0.18714 0.41124 0.14684 0.0
C492 C 0.16296 0.37148 0.17167 0.0
C493 C 0.16834 0.38351 0.2008 0.0
C494 C 0.18431 0.40865 0.20298 0.0
C495 C 0.19336 0.42259 0.17621 0.0
C496 C 0.1546 0.37177 0.22871 0.0
C497 C 0.17134 0.35783 0.25093 0.0
C498 C 0.12491 0.37454 0.23331 0.0
C499 C 0.10639 0.38914 0.21039 0.0
C500 C 0.11074 0.41803 0.20303 0.0
C501 C 0.09387 0.43134 0.18058 0.0
C502 C 0.07238 0.41604 0.16555 0.0
C503 C 0.06764 0.38742 0.17307 0.0
C504 C 0.08452 0.37399 0.19545 0.0
C505 C 0.1127 0.33839 0.36801 0.0
C506 C 0.0873 0.32253 0.36644 0.0
C507 C 0.12624 0.34749 0.34095 0.0
C508 C 0.11511 0.34018 0.3118 0.0
C509 C 0.08977 0.32432 0.31026 0.0
C510 C 0.07589 0.3158 0.33726 0.0
C511 C 0.12926 0.34981 0.28287 0.0
C512 C 0.1126 0.36357 0.2603 0.0
C513 C 0.15897 0.3463 0.27776 0.0
C514 C 0.17735 0.32984 0.29935 0.0
C515 C 0.17021 0.3017 0.30763 0.0
C516 C 0.18735 0.28645 0.32833 0.0
C517 C 0.21183 0.29901 0.34073 0.0
C518 C 0.21927 0.32682 0.33237 0.0
C519 C 0.20218 0.3422 0.31171 0.0
H520 H 0.22506 0.28716 0.35677 0.0
H521 H 0.05937 0.42636 0.14813 0.0
H522 H 0.31323 0.866 0.61864 0.0
H523 H 0.32467 0.84235 0.66769 0.0
H524 H 0.34663 0.92371 0.70781 0.0
H525 H 0.33474 0.94748 0.65953 0.0
H526 H 0.37238 0.83812 0.70037 0.0
H527 H 0.32777 0.92725 0.78164 0.0
H528 H 0.28868 0.96252 0.78119 0.0
H529 H 0.24121 0.91001 0.71818 0.0
H530 H 0.27974 0.87414 0.71871 0.0
H531 H 0.44448 0.84223 0.83971 0.0
H532 H 0.41986 0.85411 0.79195 0.0
H533 H 0.33997 0.82692 0.83178 0.0
H534 H 0.36449 0.81541 0.88035 0.0
H535 H 0.33325 0.87516 0.79935 0.0
H536 H 0.37362 0.78432 0.78065 0.0
H537 H 0.41135 0.74762 0.78129 0.0
H538 H 0.46188 0.79794 0.71897 0.0
H539 H 0.4247 0.83523 0.7184 0.0
C540 C 0.32047 0.87884 0.63794 0.0
C541 C 0.32285 0.90867 0.63521 0.0
C542 C 0.32699 0.86529 0.66591 0.0
C543 C 0.33595 0.88134 0.69155 0.0
C544 C 0.33905 0.91098 0.68857 0.0
C545 C 0.33238 0.92452 0.66082 0.0
C546 C 0.34271 0.8674 0.72143 0.0
C547 C 0.36363 0.84598 0.72199 0.0
C548 C 0.33058 0.87706 0.74959 0.0
C549 C 0.30677 0.89805 0.75011 0.0
C550 C 0.30888 0.92307 0.76793 0.0
C551 C 0.28683 0.94321 0.76761 0.0
C552 C 0.2625 0.93853 0.74962 0.0
C553 C 0.26009 0.91363 0.73206 0.0
C554 C 0.28203 0.89339 0.73237 0.0
C555 C 0.42166 0.83876 0.83849 0.0
C556 C 0.40649 0.82763 0.86383 0.0
C557 C 0.40764 0.84546 0.81105 0.0
C558 C 0.37821 0.8408 0.80809 0.0
C559 C 0.36275 0.83046 0.83355 0.0
C560 C 0.37679 0.8239 0.86124 0.0
C561 C 0.36395 0.84699 0.77825 0.0
C562 C 0.34157 0.86688 0.77771 0.0
C563 C 0.37424 0.83541 0.7501 0.0
C564 C 0.39636 0.81265 0.74957 0.0
C565 C 0.39281 0.78763 0.76716 0.0
C566 C 0.41412 0.76672 0.76754 0.0
C567 C 0.439 0.77046 0.75021 0.0
C568 C 0.44258 0.79507 0.73238 0.0
C569 C 0.42137 0.81609 0.73198 0.0
H570 H 0.4555 0.75427 0.75058 0.0
H571 H 0.24551 0.9542 0.74932 0.0
H572 H 0.86979 0.6729 0.37604 0.0
H573 H 0.84694 0.65907 0.32734 0.0
H574 H 0.92655 0.6709 0.27904 0.0
H575 H 0.94974 0.68413 0.3274 0.0
H576 H 0.87645 0.69379 0.24786 0.0
H577 H 0.91159 0.60766 0.29779 0.0
H578 H 0.91539 0.57449 0.34191 0.0
H579 H 0.82466 0.56182 0.34042 0.0
H580 H 0.82028 0.59532 0.29658 0.0
H581 H 0.85888 0.61515 0.10895 0.0
H582 H 0.8744 0.63763 0.15721 0.0
H583 H 0.80192 0.60117 0.20461 0.0
H584 H 0.78743 0.57748 0.15679 0.0
H585 H 0.84522 0.5931 0.23788 0.0
H586 H 0.80886 0.67561 0.18622 0.0
H587 H 0.80316 0.71006 0.14352 0.0
H588 H 0.89209 0.73139 0.1492 0.0
H589 H 0.89841 0.69677 0.19167 0.0
C590 C 0.8824 0.6728 0.35504 0.0
C591 C 0.91163 0.67962 0.35568 0.0
C592 C 0.86929 0.66494 0.32727 0.0
C593 C 0.88512 0.66405 0.29973 0.0
C594 C 0.91399 0.67168 0.30008 0.0
C595 C 0.9272 0.67914 0.32783 0.0
C596 C 0.87223 0.65329 0.27083 0.0
C597 C 0.86969 0.67177 0.24547 0.0
C598 C 0.86287 0.62477 0.2682 0.0
C599 C 0.86558 0.60422 0.29414 0.0
C600 C 0.89243 0.59796 0.30702 0.0
C601 C 0.89469 0.57909 0.33196 0.0
C602 C 0.87027 0.56612 0.34402 0.0
C603 C 0.84355 0.57192 0.33109 0.0
C604 C 0.84117 0.59084 0.30619 0.0
C605 C 0.84614 0.61232 0.12964 0.0
C606 C 0.82205 0.5946 0.12934 0.0
C607 C 0.8549 0.62526 0.15718 0.0
C608 C 0.83915 0.62142 0.18459 0.0
C609 C 0.81452 0.60439 0.18388 0.0
C610 C 0.80621 0.59089 0.15658 0.0
C611 C 0.84923 0.63359 0.2144 0.0
C612 C 0.85147 0.61529 0.24007 0.0
C613 C 0.8579 0.66242 0.21737 0.0
C614 C 0.85414 0.68342 0.19198 0.0
C615 C 0.82724 0.68751 0.17823 0.0
C616 C 0.82389 0.70709 0.15409 0.0
C617 C 0.84726 0.72286 0.14361 0.0
C618 C 0.87401 0.71914 0.15733 0.0
C619 C 0.87748 0.69957 0.18146 0.0
H620 H 0.84462 0.738 0.12491 0.0
H621 H 0.87206 0.55152 0.36334 0.0
H622 H 0.56786 0.20882 0.83465 0.0
H623 H 0.58944 0.19125 0.78701 0.0
H624 H 0.64105 0.13243 0.83981 0.0
H625 H 0.62023 0.15096 0.88786 0.0
H626 H 0.67077 0.15205 0.79285 0.0
H627 H 0.57792 0.11174 0.80489 0.0
H628 H 0.52595 0.11249 0.81382 0.0
H629 H 0.5139 0.16116 0.73068 0.0
H630 H 0.56587 0.16124 0.72154 0.0
H631 H 0.68997 0.05097 0.67028 0.0
H632 H 0.67445 0.07403 0.71801 0.0
H633 H 0.64198 0.14528 0.66559 0.0
H634 H 0.65808 0.12269 0.6175 0.0
H635 H 0.60322 0.11916 0.71188 0.0
H636 H 0.69836 0.15744 0.70096 0.0
H637 H 0.75035 0.15357 0.69327 0.0
H638 H 0.75756 0.1033 0.77599 0.0
H639 H 0.7055 0.10648 0.7839 0.0
C640 C 0.58397 0.19233 0.83614 0.0
C641 C 0.59208 0.18095 0.86487 0.0
C642 C 0.59625 0.18224 0.80889 0.0
C643 C 0.61627 0.15996 0.80977 0.0
C644 C 0.62548 0.1495 0.83857 0.0
C645 C 0.61359 0.16006 0.86598 0.0
C646 C 0.62649 0.14682 0.78056 0.0
C647 C 0.65598 0.14459 0.77532 0.0
C648 C 0.60719 0.13721 0.75754 0.0
C649 C 0.57585 0.13672 0.76267 0.0
C650 C 0.56422 0.12276 0.7886 0.0
C651 C 0.53476 0.12303 0.79371 0.0
C652 C 0.51665 0.1369 0.77287 0.0
C653 C 0.52796 0.15046 0.74682 0.0
C654 C 0.55742 0.15035 0.74166 0.0
C655 C 0.67975 0.07163 0.66879 0.0
C656 C 0.67546 0.08506 0.64003 0.0
C657 C 0.67091 0.08476 0.69613 0.0
C658 C 0.65725 0.11134 0.69521 0.0
C659 C 0.6526 0.12475 0.66664 0.0
C660 C 0.6619 0.11186 0.63926 0.0
C661 C 0.64733 0.12478 0.72419 0.0
C662 C 0.6179 0.12681 0.72942 0.0
C663 C 0.66665 0.13364 0.74739 0.0
C664 C 0.69799 0.13197 0.74285 0.0
C665 C 0.71099 0.14535 0.71736 0.0
C666 C 0.74048 0.14332 0.71299 0.0
C667 C 0.75724 0.12814 0.73408 0.0
C668 C 0.74455 0.11503 0.75965 0.0
C669 C 0.71505 0.11696 0.7641 0.0
H670 H 0.78007 0.12659 0.73066 0.0
H671 H 0.49385 0.13709 0.77685 0.0
H672 H 0.23951 0.04828 0.5533 0.0
H673 H 0.21062 0.08587 0.53019 0.0
H674 H 0.25734 0.07767 0.44468 0.0
H675 H 0.28653 0.03954 0.46767 0.0
H676 H 0.24879 0.13523 0.46445 0.0
H677 H 0.19464 0.05149 0.44463 0.0
H678 H 0.172 0.0055 0.45732 0.0
H679 H 0.11791 0.04718 0.52363 0.0
H680 H 0.14055 0.09338 0.51171 0.0
H681 H 0.10412 0.20168 0.40729 0.0
H682 H 0.13641 0.16085 0.41285 0.0
H683 H 0.17763 0.20224 0.48995 0.0
H684 H 0.14556 0.24308 0.48457 0.0
H685 H 0.14338 0.12491 0.46202 0.0
H686 H 0.24854 0.18646 0.48791 0.0
H687 H 0.27129 0.2319 0.47319 0.0
H688 H 0.22351 0.23316 0.38842 0.0
H689 H 0.20083 0.18749 0.40236 0.0
C690 C 0.2438 0.05442 0.52958 0.0
C691 C 0.26535 0.04088 0.5123 0.0
C692 C 0.22716 0.07588 0.51639 0.0
C693 C 0.23171 0.08436 0.48568 0.0
C694 C 0.2535 0.07133 0.46842 0.0
C695 C 0.27007 0.04954 0.48155 0.0
C696 C 0.21339 0.10686 0.47205 0.0
C697 C 0.22577 0.13296 0.46363 0.0
C698 C 0.18341 0.10358 0.47038 0.0
C699 C 0.16943 0.0759 0.47739 0.0
C700 C 0.17805 0.05084 0.46207 0.0
C701 C 0.1652 0.02472 0.46911 0.0
C702 C 0.14356 0.02341 0.4913 0.0
C703 C 0.13468 0.04823 0.50644 0.0
C704 C 0.14749 0.0744 0.49952 0.0
C705 C 0.12017 0.20216 0.42532 0.0
C706 C 0.12232 0.22564 0.44547 0.0
C707 C 0.13853 0.17879 0.4285 0.0
C708 C 0.15959 0.17866 0.45159 0.0
C709 C 0.16179 0.20209 0.47168 0.0
C710 C 0.14334 0.22535 0.46868 0.0
C711 C 0.17869 0.15368 0.45559 0.0
C712 C 0.16642 0.1271 0.4623 0.0
C713 C 0.20877 0.15644 0.45522 0.0
C714 C 0.22283 0.18361 0.44632 0.0
C715 C 0.24302 0.19632 0.46603 0.0
C716 C 0.25589 0.22215 0.45784 0.0
C717 C 0.24881 0.23544 0.42992 0.0
C718 C 0.22892 0.22288 0.41008 0.0
C719 C 0.21604 0.19704 0.41813 0.0
H720 H 0.25875 0.25546 0.42365 0.0
H721 H 0.13365 0.00317 0.49673 0.0
H722 H 0.23905 0.86278 0.50574 0.0
H723 H 0.19789 0.8322 0.49661 0.0
H724 H 0.1614 0.85844 0.58374 0.0
H725 H 0.20286 0.88907 0.59332 0.0
H726 H 0.15666 0.80022 0.57407 0.0
H727 H 0.13512 0.88593 0.51911 0.0
H728 H 0.14464 0.92597 0.48357 0.0
H729 H 0.15528 0.86721 0.4082 0.0
H730 H 0.14625 0.82676 0.44338 0.0
H731 H 0.0222 0.73613 0.5283 0.0
H732 H 0.0598 0.76759 0.5483 0.0
H733 H 0.10661 0.75759 0.46295 0.0
H734 H 0.06906 0.72697 0.44274 0.0
H735 H 0.10169 0.81186 0.47678 0.0
H736 H 0.12754 0.72603 0.53289 0.0
H737 H 0.1189 0.68595 0.56867 0.0
H738 H 0.10002 0.74498 0.6419 0.0
H739 H 0.1082 0.78542 0.60642 0.0
C740 C 0.22231 0.86213 0.52301 0.0
C741 C 0.22418 0.8785 0.5502 0.0
C742 C 0.19875 0.84465 0.51772 0.0
C743 C 0.17644 0.8433 0.53934 0.0
C744 C 0.17838 0.85923 0.56675 0.0
C745 C 0.20202 0.87679 0.5721 0.0
C746 C 0.15108 0.82542 0.53281 0.0
C747 C 0.14428 0.80301 0.55307 0.0
C748 C 0.13512 0.82897 0.5053 0.0
C749 C 0.14018 0.85329 0.48395 0.0
C750 C 0.13966 0.88152 0.49499 0.0
C751 C 0.14495 0.9043 0.47491 0.0
C752 C 0.15061 0.89913 0.44366 0.0
C753 C 0.1509 0.87118 0.43241 0.0
C754 C 0.14566 0.84832 0.45241 0.0
C755 C 0.04079 0.74029 0.5141 0.0
C756 C 0.04265 0.72924 0.48392 0.0
C757 C 0.06224 0.75827 0.52552 0.0
C758 C 0.08602 0.76503 0.50708 0.0
C759 C 0.08836 0.75293 0.47749 0.0
C760 C 0.06691 0.73533 0.466 0.0
C761 C 0.10786 0.7859 0.51742 0.0
C762 C 0.11386 0.80912 0.49793 0.0
C763 C 0.123 0.78303 0.54561 0.0
C764 C 0.11816 0.75873 0.56692 0.0
C765 C 0.12132 0.73045 0.55656 0.0
C766 C 0.11655 0.70767 0.57679 0.0
C767 C 0.10883 0.71291 0.60751 0.0
C768 C 0.10595 0.74095 0.61808 0.0
C769 C 0.11067 0.7638 0.59793 0.0
H770 H 0.10515 0.69525 0.62314 0.0
H771 H 0.15472 0.91679 0.42815 0.0
H772 H 0.73218 0.93031 0.55316 0.0
H773 H 0.76334 0.89349 0.53219 0.0
H774 H 0.7703 0.94029 0.44657 0.0
H775 H 0.73842 0.97737 0.46739 0.0
H776 H 0.76749 0.8812 0.43759 0.0
H777 H 0.822 0.94694 0.49709 0.0
H778 H 0.8321 0.97704 0.54257 0.0
H779 H 0.83832 0.90235 0.59974 0.0
H780 H 0.82773 0.8718 0.55469 0.0
H781 H 0.89072 0.79612 0.39975 0.0
H782 H 0.86039 0.83774 0.40983 0.0
H783 H 0.84059 0.80474 0.50049 0.0
H784 H 0.87075 0.76322 0.4907 0.0
H785 H 0.85346 0.86205 0.50152 0.0
H786 H 0.79389 0.79739 0.44231 0.0
H787 H 0.78208 0.76782 0.39688 0.0
H788 H 0.78606 0.84178 0.33837 0.0
H789 H 0.79829 0.87174 0.38343 0.0
C790 C 0.74001 0.93268 0.52971 0.0
C791 C 0.73315 0.9569 0.51204 0.0
C792 C 0.75787 0.91161 0.51778 0.0
C793 C 0.76964 0.9145 0.48811 0.0
C794 C 0.76155 0.9378 0.46961 0.0
C795 C 0.74336 0.95891 0.48151 0.0
C796 C 0.79167 0.89391 0.47764 0.0
C797 C 0.78659 0.87737 0.45117 0.0
C798 C 0.8165 0.88886 0.49551 0.0
C799 C 0.8239 0.90707 0.52251 0.0
C800 C 0.82541 0.93692 0.51938 0.0
C801 C 0.8312 0.95408 0.54509 0.0
C802 C 0.8358 0.94162 0.57404 0.0
C803 C 0.83475 0.91197 0.57729 0.0
C804 C 0.82888 0.89471 0.55167 0.0
C805 C 0.87997 0.79777 0.42186 0.0
C806 C 0.88305 0.77627 0.44437 0.0
C807 C 0.8626 0.82152 0.42754 0.0
C808 C 0.84809 0.82421 0.45582 0.0
C809 C 0.8516 0.80308 0.47851 0.0
C810 C 0.86878 0.7793 0.47281 0.0
C811 C 0.82891 0.84877 0.46193 0.0
C812 C 0.83461 0.86616 0.48762 0.0
C813 C 0.80483 0.8547 0.44319 0.0
C814 C 0.79734 0.83673 0.41616 0.0
C815 C 0.79249 0.8073 0.41971 0.0
C816 C 0.78567 0.79048 0.39404 0.0
C817 C 0.78341 0.8029 0.36474 0.0
C818 C 0.78787 0.83218 0.36107 0.0
C819 C 0.79473 0.84909 0.38667 0.0
H820 H 0.77813 0.78984 0.3449 0.0
H821 H 0.8402 0.95495 0.59393 0.0
H822 H 0.756 0.14272 0.52241 0.0
H823 H 0.79712 0.17403 0.51634 0.0
H824 H 0.838 0.13383 0.59446 0.0
H825 H 0.79683 0.10211 0.60066 0.0
H826 H 0.82301 0.21325 0.5541 0.0
H827 H 0.91 0.12969 0.57585 0.0
H828 H 0.91629 0.07738 0.57492 0.0
H829 H 0.85177 0.07033 0.50477 0.0
H830 H 0.84542 0.1226 0.505 0.0
H831 H 0.96017 0.28179 0.53569 0.0
H832 H 0.92254 0.2524 0.55924 0.0
H833 H 0.91596 0.20351 0.47499 0.0
H834 H 0.95304 0.23253 0.45141 0.0
H835 H 0.91612 0.16931 0.527 0.0
H836 H 0.86948 0.25493 0.48828 0.0
H837 H 0.86169 0.30692 0.48528 0.0
H838 H 0.84334 0.30943 0.58261 0.0
H839 H 0.85141 0.25746 0.58624 0.0
C840 C 0.77365 0.14055 0.53843 0.0
C841 C 0.77323 0.11977 0.5619 0.0
C842 C 0.79705 0.15864 0.53505 0.0
C843 C 0.82062 0.15622 0.55488 0.0
C844 C 0.82006 0.13595 0.57882 0.0
C845 C 0.79653 0.11786 0.58231 0.0
C846 C 0.84629 0.17385 0.54901 0.0
C847 C 0.84349 0.20368 0.54861 0.0
C848 C 0.87294 0.16134 0.54165 0.0
C849 C 0.87702 0.12998 0.54075 0.0
C850 C 0.89725 0.11696 0.56017 0.0
C851 C 0.90081 0.08733 0.55976 0.0
C852 C 0.88436 0.07053 0.53989 0.0
C853 C 0.86442 0.08335 0.52024 0.0
C854 C 0.86082 0.11297 0.52051 0.0
C855 C 0.95071 0.26473 0.52228 0.0
C856 C 0.95941 0.25967 0.49161 0.0
C857 C 0.92928 0.24797 0.53575 0.0
C858 C 0.91651 0.22579 0.51882 0.0
C859 C 0.92563 0.22041 0.4885 0.0
C860 C 0.94671 0.23722 0.47498 0.0
C861 C 0.89275 0.2087 0.53173 0.0
C862 C 0.89589 0.17894 0.5334 0.0
C863 C 0.86631 0.22125 0.53981 0.0
C864 C 0.8614 0.25242 0.53761 0.0
C865 C 0.86403 0.26662 0.50909 0.0
C866 C 0.85951 0.29607 0.50726 0.0
C867 C 0.85212 0.31149 0.53376 0.0
C868 C 0.84914 0.29747 0.56212 0.0
C869 C 0.85367 0.26803 0.56408 0.0
H870 H 0.84863 0.33429 0.5323 0.0
H871 H 0.8871 0.04759 0.53966 0.0
H872 H 0.22624 0.53293 0.97746 0.0
H873 H 0.25324 0.57227 0.95401 0.0
H874 H 0.26343 0.61084 0.04397 0.0
H875 H 0.23659 0.57195 0.06741 0.0
H876 H 0.2509 0.65041 0.99906 0.0
H877 H 0.31532 0.5702 0.01424 0.0
H878 H 0.33078 0.52037 0.00655 0.0
H879 H 0.33406 0.53382 0.9083 0.0
H880 H 0.31818 0.58365 0.91542 0.0
H881 H 0.37028 0.7386 0.99723 0.0
H882 H 0.3368 0.69988 0.00679 0.0
H883 H 0.34457 0.67271 0.91176 0.0
H884 H 0.3788 0.71122 0.90211 0.0
H885 H 0.34396 0.6276 0.95003 0.0
H886 H 0.28592 0.71001 0.93548 0.0
H887 H 0.27076 0.75988 0.94336 0.0
H888 H 0.25484 0.74268 0.03942 0.0
H889 H 0.27032 0.69279 0.03224 0.0
C890 C 0.23389 0.55003 0.99212 0.0
C891 C 0.22944 0.54927 0.0243 0.0
C892 C 0.2494 0.57239 0.97873 0.0
C893 C 0.26052 0.59433 0.99732 0.0
C894 C 0.25503 0.59415 0.02921 0.0
C895 C 0.23979 0.57181 0.04258 0.0
C896 C 0.27917 0.61684 0.98426 0.0
C897 C 0.27127 0.64547 0.98837 0.0
C898 C 0.30537 0.61033 0.96955 0.0
C899 C 0.31524 0.58052 0.96533 0.0
C900 C 0.31913 0.56246 0.99099 0.0
C901 C 0.328 0.53423 0.98673 0.0
C902 C 0.33331 0.52391 0.95695 0.0
C903 C 0.32987 0.54183 0.93136 0.0
C904 C 0.32094 0.57006 0.93548 0.0
C905 C 0.36497 0.72438 0.97832 0.0
C906 C 0.37702 0.72816 0.94881 0.0
C907 C 0.34569 0.70231 0.98379 0.0
C908 C 0.33767 0.68377 0.95981 0.0
C909 C 0.3503 0.6869 0.93054 0.0
C910 C 0.36982 0.70893 0.92507 0.0
C911 C 0.31606 0.66125 0.96562 0.0
C912 C 0.32337 0.63263 0.96014 0.0
C913 C 0.28923 0.66777 0.979 0.0
C914 C 0.27944 0.69767 0.98334 0.0
C915 C 0.27933 0.71689 0.95832 0.0
C916 C 0.27067 0.74517 0.96267 0.0
C917 C 0.26188 0.75445 0.99188 0.0
C918 C 0.26166 0.73545 0.0168 0.0
C919 C 0.27033 0.70716 0.01259 0.0
H920 H 0.25522 0.77636 0.9952 0.0
H921 H 0.34017 0.50205 0.9537 0.0
H922 H 0.712 0.61963 0.09099 0.0
H923 H 0.67205 0.6523 0.08223 0.0
H924 H 0.70004 0.66515 0.98811 0.0
H925 H 0.74038 0.63322 0.99693 0.0
H926 H 0.68577 0.7143 0.0129 0.0
H927 H 0.64314 0.62086 0.00735 0.0
H928 H 0.63144 0.5728 0.02679 0.0
H929 H 0.58742 0.6097 0.10426 0.0
H930 H 0.59923 0.65801 0.0855 0.0
H931 H 0.56279 0.76192 0.93548 0.0
H932 H 0.60274 0.73405 0.95529 0.0
H933 H 0.56869 0.74043 0.04776 0.0
H934 H 0.52834 0.76861 0.02804 0.0
H935 H 0.58554 0.68446 0.03064 0.0
H936 H 0.62472 0.77861 0.03172 0.0
H937 H 0.63615 0.82598 0.01024 0.0
H938 H 0.68634 0.7868 0.93874 0.0
H939 H 0.67487 0.73915 0.95952 0.0
C940 C 0.70963 0.6294 0.06842 0.0
C941 C 0.72935 0.6238 0.04464 0.0
C942 C 0.68672 0.64801 0.06342 0.0
C943 C 0.68287 0.66099 0.03441 0.0
C944 C 0.7026 0.65546 0.01071 0.0
C945 C 0.72561 0.6371 0.01576 0.0
C946 C 0.65834 0.68036 0.0285 0.0
C947 C 0.66386 0.70766 0.01658 0.0
C948 C 0.62974 0.67204 0.03411 0.0
C949 C 0.62234 0.64303 0.04521 0.0
C950 C 0.63113 0.61872 0.02865 0.0
C951 C 0.62447 0.59144 0.03953 0.0
C952 C 0.60877 0.58819 0.06679 0.0
C953 C 0.59962 0.61224 0.08317 0.0
C954 C 0.60628 0.63958 0.07242 0.0
C955 C 0.56377 0.75755 0.96008 0.0
C956 C 0.54242 0.76755 0.98022 0.0
C957 C 0.5867 0.74168 0.97136 0.0
C958 C 0.58877 0.73538 0.00301 0.0
C959 C 0.56748 0.74518 0.02326 0.0
C960 C 0.54456 0.76136 0.01199 0.0
C961 C 0.61305 0.71805 0.01444 0.0
C962 C 0.60748 0.69118 0.02739 0.0
C963 C 0.64162 0.72663 0.00951 0.0
C964 C 0.64876 0.75528 0.99707 0.0
C965 C 0.63803 0.78007 0.01128 0.0
C966 C 0.64454 0.80698 0.99926 0.0
C967 C 0.66192 0.80939 0.97311 0.0
C968 C 0.67287 0.7849 0.95899 0.0
C969 C 0.6664 0.75793 0.97091 0.0
H970 H 0.66693 0.83024 0.96383 0.0
H971 H 0.60365 0.56705 0.07519 0.0
H972 H 0.7703 0.47539 0.96322 0.0
H973 H 0.74216 0.43584 0.94177 0.0
H974 H 0.74278 0.39433 0.03087 0.0
H975 H 0.77056 0.43356 0.05238 0.0
H976 H 0.75183 0.35663 0.98182 0.0
H977 H 0.68749 0.43314 0.01153 0.0
H978 H 0.66961 0.48263 0.00963 0.0
H979 H 0.65407 0.47431 0.9121 0.0
H980 H 0.67233 0.42488 0.91336 0.0
H981 H 0.63536 0.26487 0.99288 0.0
H982 H 0.66907 0.30392 0.99929 0.0
H983 H 0.64899 0.33459 0.9077 0.0
H984 H 0.6146 0.29565 0.90124 0.0
H985 H 0.65274 0.37809 0.94845 0.0
H986 H 0.71094 0.29876 0.92046 0.0
H987 H 0.72866 0.24925 0.92297 0.0
H988 H 0.75609 0.26254 0.01666 0.0
H989 H 0.73816 0.31202 0.0149 0.0
C990 C 0.7648 0.45759 0.97804 0.0
C991 C 0.77247 0.4576 0.0095 0.0
C992 C 0.74866 0.43511 0.96582 0.0
C993 C 0.74027 0.41229 0.98483 0.0
C994 C 0.74906 0.41172 0.01582 0.0
C995 C 0.76483 0.43423 0.0281 0.0
C996 C 0.72089 0.3897 0.97336 0.0
C997 C 0.73015 0.36126 0.97452 0.0
C998 C 0.69287 0.39589 0.96314 0.0
C999 C 0.6816 0.42546 0.96245 0.0
C1000 C 0.68048 0.44195 0.98963 0.0
C1001 C 0.67025 0.46997 0.98868 0.0
C1002 C 0.66079 0.48164 0.96074 0.0
C1003 C 0.66147 0.46527 0.93371 0.0
C1004 C 0.67175 0.43725 0.93453 0.0
C1005 C 0.63803 0.27988 0.97405 0.0
C1006 C 0.62244 0.27699 0.94643 0.0
C1007 C 0.65744 0.30215 0.97771 0.0
C1008 C 0.66199 0.32184 0.95373 0.0
C1009 C 0.64596 0.3195 0.92641 0.0
C1010 C 0.62636 0.29722 0.92275 0.0
C1011 C 0.68344 0.34485 0.9576 0.0
C1012 C 0.67458 0.37339 0.95506 0.0
C1013 C 0.71189 0.33874 0.96652 0.0
C1014 C 0.72304 0.30908 0.96759 0.0
C1015 C 0.7206 0.29109 0.94167 0.0
C1016 C 0.7307 0.26303 0.94295 0.0
C1017 C 0.74345 0.25275 0.96997 0.0
C1018 C 0.74621 0.27053 0.99575 0.0
C1019 C 0.73612 0.29861 0.9946 0.0
H1020 H 0.75124 0.23101 0.97093 0.0
H1021 H 0.65287 0.50334 0.96005 0.0
H1022 H 0.43313 0.23495 0.94503 0.0
H1023 H 0.39615 0.26597 0.96597 0.0
H1024 H 0.43958 0.26785 0.05396 0.0
H1025 H 0.47677 0.23615 0.03316 0.0
H1026 H 0.38002 0.26626 0.05992 0.0
H1027 H 0.44993 0.32131 0.00665 0.0
H1028 H 0.48207 0.33249 0.96317 0.0
H1029 H 0.40992 0.34372 0.90314 0.0
H1030 H 0.37732 0.33211 0.94616 0.0
H1031 H 0.29991 0.39125 0.10237 0.0
H1032 H 0.34031 0.35953 0.09155 0.0
H1033 H 0.30864 0.34585 0.99903 0.0
H1034 H 0.26829 0.3774 0.00955 0.0
H1035 H 0.36669 0.35601 0.00052 0.0
H1036 H 0.29751 0.29676 0.05336 0.0
H1037 H 0.26577 0.28393 0.09668 0.0
H1038 H 0.33762 0.28104 0.15827 0.0
H1039 H 0.36975 0.29426 0.11536 0.0
C1040 C 0.43468 0.2416 0.96898 0.0
C1041 C 0.45803 0.23341 0.98736 0.0
C1042 C 0.41353 0.25937 0.9809 0.0
C1043 C 0.41548 0.2697 0.01128 0.0
C1044 C 0.43781 0.26021 0.03038 0.0
C1045 C 0.45899 0.24213 0.01849 0.0
C1046 C 0.39515 0.29185 0.02195 0.0
C1047 C 0.37743 0.28614 0.04735 0.0
C1048 C 0.39172 0.31769 0.00535 0.0
C1049 C 0.41118 0.32566 0.97962 0.0
C1050 C 0.44091 0.32605 0.98415 0.0
C1051 C 0.45922 0.33244 0.95957 0.0
C1052 C 0.44805 0.33874 0.93038 0.0
C1053 C 0.41854 0.33881 0.92576 0.0
C1054 C 0.40012 0.33237 0.95025 0.0
C1055 C 0.30161 0.38157 0.07968 0.0
C1056 C 0.28081 0.38673 0.05686 0.0
C1057 C 0.32465 0.3634 0.07359 0.0
C1058 C 0.32732 0.35019 0.04457 0.0
C1059 C 0.30696 0.35583 0.02157 0.0
C1060 C 0.28386 0.3738 0.02768 0.0
C1061 C 0.35106 0.33014 0.03805 0.0
C1062 C 0.36951 0.33633 0.0134 0.0
C1063 C 0.35525 0.30489 0.05549 0.0
C1064 C 0.33597 0.29683 0.08124 0.0
C1065 C 0.3065 0.29364 0.0762 0.0
C1066 C 0.28845 0.28625 0.10066 0.0
C1067 C 0.29966 0.28176 0.13024 0.0
C1068 C 0.32896 0.28457 0.13537 0.0
C1069 C 0.34711 0.292 0.11098 0.0
H1070 H 0.28565 0.27603 0.14915 0.0
H1071 H 0.46227 0.34361 0.91137 0.0
H1072 H 0.9285 0.6027 0.4438 0.0
H1073 H 0.93814 0.55186 0.44855 0.0
H1074 H 0.02803 0.56944 0.459 0.0
H1075 H 0.01857 0.62053 0.45253 0.0
H1076 H 0.02285 0.52629 0.42369 0.0
H1077 H 0.98182 0.54966 0.52164 0.0
H1078 H 0.94615 0.56998 0.55736 0.0
H1079 H 0.88247 0.51313 0.52142 0.0
H1080 H 0.91766 0.49275 0.48513 0.0
H1081 H 0.05918 0.38951 0.47971 0.0
H1082 H 0.04731 0.44011 0.48139 0.0
H1083 H 0.96422 0.42229 0.44333 0.0
H1084 H 0.97595 0.37133 0.44105 0.0
H1085 H 0.96631 0.46478 0.49424 0.0
H1086 H 0.00972 0.44271 0.39533 0.0
H1087 H 0.04754 0.42172 0.36278 0.0
H1088 H 0.1096 0.47654 0.40519 0.0
H1089 H 0.0722 0.49752 0.4384 0.0
C1090 C 0.95033 0.59582 0.44731 0.0
C1091 C 0.97276 0.61571 0.44803 0.0
C1092 C 0.95581 0.56665 0.4502 0.0
C1093 C 0.98376 0.55667 0.45486 0.0
C1094 C 0.00625 0.57653 0.45554 0.0
C1095 C 0.00083 0.60574 0.45195 0.0
C1096 C 0.98953 0.52552 0.45814 0.0
C1097 C 0.01072 0.51304 0.43951 0.0
C1098 C 0.97348 0.50788 0.4784 0.0
C1099 C 0.95234 0.51984 0.50048 0.0
C1100 C 0.96017 0.5416 0.52122 0.0
C1101 C 0.94004 0.55313 0.54158 0.0
C1102 C 0.91205 0.54289 0.54161 0.0
C1103 C 0.90416 0.52105 0.52135 0.0
C1104 C 0.9242 0.50949 0.5009 0.0
C1105 C 0.0382 0.39613 0.47201 0.0
C1106 C 0.01862 0.37624 0.45993 0.0
C1107 C 0.03149 0.42514 0.47302 0.0
C1108 C 0.00503 0.4349 0.46223 0.0
C1109 C 0.98478 0.41509 0.45175 0.0
C1110 C 0.99157 0.386 0.45041 0.0
C1111 C 0.99944 0.46596 0.45986 0.0
C1112 C 0.97836 0.47827 0.47859 0.0
C1113 C 0.01585 0.48353 0.4401 0.0
C1114 C 0.03821 0.4715 0.41954 0.0
C1115 C 0.03146 0.45016 0.39785 0.0
C1116 C 0.05282 0.43828 0.37928 0.0
C1117 C 0.08097 0.44774 0.38197 0.0
C1118 C 0.08779 0.46921 0.40316 0.0
C1119 C 0.06652 0.48112 0.42185 0.0
H1120 H 0.09748 0.43849 0.36759 0.0
H1121 H 0.89648 0.55185 0.55738 0.0
H1122 H 0.60748 0.06369 0.52806 0.0
H1123 H 0.55681 0.05289 0.52339 0.0
H1124 H 0.57276 0.96615 0.55174 0.0
H1125 H 0.62373 0.97679 0.55714 0.0
H1126 H 0.53257 0.97513 0.49835 0.0
H1127 H 0.55075 0.00511 0.60401 0.0
H1128 H 0.57014 0.03819 0.64306 0.0
H1129 H 0.51691 0.10543 0.6079 0.0
H1130 H 0.49757 0.07284 0.56825 0.0
H1131 H 0.39476 0.93005 0.54015 0.0
H1132 H 0.44527 0.94109 0.53644 0.0
H1133 H 0.42588 0.03114 0.53894 0.0
H1134 H 0.37505 0.02011 0.5443 0.0
H1135 H 0.46843 0.02206 0.57435 0.0
H1136 H 0.44809 0.99423 0.4707 0.0
H1137 H 0.42921 0.96379 0.42893 0.0
H1138 H 0.48601 0.89625 0.45587 0.0
H1139 H 0.50495 0.92612 0.49813 0.0
C1140 C 0.60042 0.04219 0.53305 0.0
C1141 C 0.61976 0.02116 0.54325 0.0
C1142 C 0.57139 0.0361 0.53034 0.0
C1143 C 0.56112 0.00881 0.53741 0.0
C1144 C 0.58038 0.98735 0.54618 0.0
C1145 C 0.60946 0.99351 0.54933 0.0
C1146 C 0.53003 0.00334 0.53748 0.0
C1147 C 0.51848 0.98505 0.51512 0.0
C1148 C 0.51173 0.01717 0.55874 0.0
C1149 C 0.52293 0.03661 0.58296 0.0
C1150 C 0.54335 0.02701 0.60444 0.0
C1151 C 0.55431 0.04566 0.62671 0.0
C1152 C 0.54482 0.07391 0.62791 0.0
C1153 C 0.52427 0.08354 0.60691 0.0
C1154 C 0.51329 0.06499 0.58455 0.0
C1155 C 0.40111 0.95224 0.53963 0.0
C1156 C 0.38078 0.97421 0.54241 0.0
C1157 C 0.43012 0.95855 0.53731 0.0
C1158 C 0.43951 0.98698 0.53681 0.0
C1159 C 0.41922 0.00902 0.53921 0.0
C1160 C 0.39015 0.0027 0.54215 0.0
C1161 C 0.47056 0.99354 0.5352 0.0
C1162 C 0.48226 0.01212 0.55734 0.0
C1163 C 0.48892 0.98032 0.51334 0.0
C1164 C 0.47778 0.96236 0.48775 0.0
C1165 C 0.45643 0.97282 0.46785 0.0
C1166 C 0.44573 0.95567 0.44407 0.0
C1167 C 0.45636 0.92808 0.43979 0.0
C1168 C 0.47778 0.91761 0.45923 0.0
C1169 C 0.48853 0.93466 0.48308 0.0
H1170 H 0.44804 0.91484 0.42137 0.0
H1171 H 0.55334 0.08833 0.64516 0.0
H1172 H 0.5669 0.10932 0.97069 0.0
H1173 H 0.5555 0.05865 0.97421 0.0
H1174 H 0.4686 0.07634 0.94769 0.0
H1175 H 0.47989 0.12727 0.94333 0.0
H1176 H 0.47882 0.03512 0.00119 0.0
H1177 H 0.50414 0.05448 0.89439 0.0
H1178 H 0.53563 0.07438 0.85414 0.0
H1179 H 0.60404 0.02036 0.88492 0.0
H1180 H 0.57306 1.00048 0.92577 0.0
H1181 H 0.43086 0.89797 0.95962 0.0
H1182 H 0.44228 0.94843 0.96328 0.0
H1183 H 0.53206 0.9287 0.9565 0.0
H1184 H 0.52063 0.87798 0.95127 0.0
H1185 H 0.52167 0.97166 0.92176 0.0
H1186 H 0.49806 0.9502 0.02653 0.0
H1187 H 0.46915 0.93104 0.06942 0.0
H1188 H 0.40107 0.98868 0.04645 0.0
H1189 H 0.42941 0.00791 0.00311 0.0
C1190 C 0.54526 0.1026 0.96584 0.0
C1191 C 0.52435 0.12241 0.95649 0.0
C1192 C 0.53882 0.0736 0.9679 0.0
C1193 C 0.51128 0.06385 0.9611 0.0
C1194 C 0.48998 0.08356 0.95306 0.0
C1195 C 0.49652 0.1126 0.95048 0.0
C1196 C 0.50529 0.03287 0.96064 0.0
C1197 C 0.48783 0.02118 0.98368 0.0
C1198 C 0.51793 0.01477 0.93834 0.0
C1199 C 0.53637 0.02621 0.91334 0.0
C1200 C 0.52596 0.047 0.89274 0.0
C1201 C 0.54371 0.05826 0.86979 0.0
C1202 C 0.57185 0.04871 0.86702 0.0
C1203 C 0.58225 0.02777 0.88712 0.0
C1204 C 0.5646 0.01649 0.91017 0.0
C1205 C 0.45309 0.90424 0.9592 0.0
C1206 C 0.47484 0.88384 0.95526 0.0
C1207 C 0.45961 0.93321 0.96147 0.0
C1208 C 0.48809 0.94249 0.96072 0.0
C1209 C 0.50991 0.92213 0.95719 0.0
C1210 C 0.50336 0.89311 0.95434 0.0
C1211 C 0.49489 0.97349 0.96236 0.0
C1212 C 0.51261 0.98534 0.93948 0.0
C1213 C 0.48281 0.99166 0.98516 0.0
C1214 C 0.46579 0.98034 0.0114 0.0
C1215 C 0.47685 0.95867 0.03049 0.0
C1216 C 0.46057 0.94781 0.0549 0.0
C1217 C 0.43327 0.9586 0.06061 0.0
C1218 C 0.42222 0.98033 0.04198 0.0
C1219 C 0.43839 0.99124 0.01751 0.0
H1220 H 0.42069 0.95015 0.07952 0.0
H1221 H 0.58556 0.05748 0.84925 0.0
H1222 H 0.10859 0.43394 0.06283 0.0
H1223 H 0.05784 0.44404 0.05833 0.0
H1224 H 0.07587 0.53424 0.05333 0.0
H1225 H 0.12694 0.52419 0.05962 0.0
H1226 H 0.0313 0.52747 0.08668 0.0
H1227 H 0.05824 0.49178 0.98763 0.0
H1228 H 0.08023 0.4583 0.9506 0.0
H1229 H 0.0229 0.39225 0.98001 0.0
H1230 H 0.00085 0.42521 0.01759 0.0
H1231 H 0.89598 0.56409 0.02409 0.0
H1232 H 0.94681 0.55304 0.02494 0.0
H1233 H 0.92871 0.46964 0.06202 0.0
H1234 H 0.87753 0.48064 0.06197 0.0
H1235 H 0.97266 0.47395 0.01067 0.0
H1236 H 0.94706 0.51269 0.11119 0.0
H1237 H 0.92455 0.54904 0.14449 0.0
H1238 H 0.97991 0.61323 0.1069 0.0
H1239 H 0.0024 0.57732 0.07292 0.0
C1240 C 0.10181 0.45594 0.06066 0.0
C1241 C 0.12181 0.47827 0.06122 0.0
C1242 C 0.07272 0.4617 0.05793 0.0
C1243 C 0.06293 0.48988 0.05464 0.0
C1244 C 0.08284 0.5123 0.05564 0.0
C1245 C 0.11202 0.50656 0.05914 0.0
C1246 C 0.03192 0.49578 0.05045 0.0
C1247 C 0.01867 0.516 0.06973 0.0
C1248 C 0.01513 0.4807 0.02854 0.0
C1249 C 0.02805 0.46092 0.00562 0.0
C1250 C 0.05043 0.47007 0.98633 0.0
C1251 C 0.0629 0.45118 0.96523 0.0
C1252 C 0.05301 0.42315 0.96299 0.0
C1253 C 0.03056 0.41396 0.98179 0.0
C1254 C 0.01805 0.43275 0.00298 0.0
C1255 C 0.90262 0.54324 0.03216 0.0
C1256 C 0.88256 0.52333 0.04323 0.0
C1257 C 0.93174 0.53701 0.0326 0.0
C1258 C 0.94143 0.51064 0.04372 0.0
C1259 C 0.92154 0.49013 0.05335 0.0
C1260 C 0.89234 0.49649 0.05337 0.0
C1261 C 0.97241 0.50529 0.04699 0.0
C1262 C 0.98552 0.4853 0.02751 0.0
C1263 C 0.98916 0.52095 0.06824 0.0
C1264 C 0.97622 0.54237 0.0893 0.0
C1265 C 0.9543 0.53459 0.10986 0.0
C1266 C 0.94155 0.55511 0.12888 0.0
C1267 C 0.95074 0.58344 0.12776 0.0
C1268 C 0.97279 0.59128 0.10771 0.0
C1269 C 0.98555 0.57085 0.08859 0.0
H1270 H 0.94081 0.59931 0.14246 0.0
H1271 H 0.0627 0.40855 0.94666 0.0
loop_
_geom_bond_atom_site_label_1
_geom_bond_atom_site_label_2
_geom_bond_distance
_geom_bond_site_symmetry_2
_ccdc_geom_bond_type
Co0 O2 2.143 . S
Co0 O8 2.074 . S
Co0 O11 2.093 1_455 S
Co0 O24 2.097 . S
Co0 N41 2.151 . S
Co0 N49 2.214 1_455 S
Co1 O2 2.160 . S
Co1 O7 2.058 . S
Co1 O17 2.057 . S
Co1 O32 2.037 . S
Co1 N36 2.145 . S
Co1 N57 2.257 . S
O2 Co0 2.143 . S
O2 Co1 2.160 . S
C3 O4 1.278 1_655 S
C3 O11 1.224 . S
O4 C3 1.278 1_455 S
C5 O6 1.245 . S
C5 O17 1.232 . S
O6 C5 1.245 . S
O7 Co1 2.058 . S
O7 C33 1.269 . S
O8 Co0 2.074 . S
O8 C33 1.257 . S
H9 C34 0.930 . S
H10 C40 0.930 . S
O11 Co0 2.093 1_655 S
O11 C3 1.224 . S
H12 C44 0.929 . S
H13 C46 0.930 . S
H14 C47 0.930 . S
H15 C45 0.929 . S
H16 C48 0.928 . S
O17 Co1 2.057 . S
O17 C5 1.232 . S
H18 C37 0.929 . S
H19 C38 0.929 . S
H20 C50 0.931 . S
H21 C42 0.929 . S
H22 C51 0.930 . S
H23 C43 0.931 . S
O24 Co0 2.097 . S
O24 C52 1.214 . S
H25 C53 0.929 . S
H26 C54 0.929 . S
H27 C55 0.930 . S
H28 C56 0.929 . S
H29 C58 0.930 . S
H30 C35 0.930 . S
H31 C39 0.930 . S
O32 Co1 2.037 . S
O32 C52 1.234 . S
C33 O7 1.269 . S
C33 O8 1.257 . S
C34 H9 0.930 . S
C34 C37 1.388 . S
C34 C39 1.418 . S
C35 H30 0.930 . S
C35 C38 1.404 . S
C35 C39 1.353 . S
N36 Co1 2.145 . S
N36 C37 1.397 . S
N36 C38 1.334 . S
C37 H18 0.929 . S
C37 C34 1.388 . S
C37 N36 1.397 . S
C38 H19 0.929 . S
C38 C35 1.404 . S
C38 N36 1.334 . S
C39 H31 0.930 . S
C39 C34 1.418 . S
C39 C35 1.353 . S
C40 H10 0.930 . S
C40 N41 1.330 . S
C40 C42 1.446 . S
N41 Co0 2.151 . S
N41 C40 1.330 . S
N41 C45 1.418 . S
C42 H21 0.929 . S
C42 C40 1.446 . S
C42 C43 1.332 . S
C43 H23 0.931 . S
C43 C42 1.332 . S
C43 C44 1.267 . S
C44 H12 0.929 . S
C44 C43 1.267 . S
C44 C45 1.251 . S
C45 H15 0.929 . S
C45 N41 1.418 . S
C45 C44 1.251 . S
C46 H13 0.930 . S
C46 C48 1.406 . S
C46 C51 1.261 . S
C47 H14 0.930 . S
C47 N49 1.325 1_455 S
C47 C50 1.357 1_455 S
C48 H16 0.928 . S
C48 C46 1.406 . S
C48 N49 1.261 . S
N49 Co0 2.214 1_655 S
N49 C47 1.325 1_655 S
N49 C48 1.261 . S
C50 H20 0.931 . S
C50 C47 1.357 1_655 S
C50 C51 1.312 . S
C51 H22 0.930 . S
C51 C46 1.261 . S
C51 C50 1.312 . S
C52 O24 1.214 . S
C52 O32 1.234 . S
C53 H25 0.929 . S
C53 C56 1.391 . S
C53 C58 1.391 . S
C54 H26 0.929 . S
C54 C55 1.390 . S
C54 N57 1.391 . S
C55 H27 0.930 . S
C55 C54 1.390 . S
C55 C56 1.392 . S
C56 H28 0.929 . S
C56 C53 1.391 . S
C56 C55 1.392 . S
N57 Co1 2.257 . S
N57 C54 1.391 . S
N57 C58 1.388 . S
C58 H29 0.930 . S
C58 C53 1.391 . S
C58 N57 1.388 . S
Co59 O61 2.143 . S
Co59 O67 2.074 . S
Co59 O70 2.093 1_565 S
Co59 O83 2.097 . S
Co59 N100 2.151 . S
Co59 N108 2.189 1_565 S
Co60 O61 2.160 . S
Co60 O66 2.058 . S
Co60 O76 2.057 . S
Co60 O91 2.037 . S
Co60 N95 2.145 . S
Co60 N116 2.257 . S
O61 Co59 2.143 . S
O61 Co60 2.160 . S
C62 O63 1.278 1_545 S
C62 O70 1.224 . S
O63 C62 1.278 1_565 S
C64 O65 1.245 . S
C64 O76 1.232 . S
O65 C64 1.245 . S
O66 Co60 2.058 . S
O66 C92 1.269 . S
O67 Co59 2.074 . S
O67 C92 1.257 . S
H68 C93 0.930 . S
H69 C99 0.930 . S
O70 Co59 2.093 1_545 S
O70 C62 1.224 . S
H71 C103 0.929 . S
H72 C105 0.930 . S
H73 C106 0.930 . S
H74 C104 0.929 . S
H75 C107 0.928 . S
O76 Co60 2.057 . S
O76 C64 1.232 . S
H77 C96 0.929 . S
H78 C97 0.929 . S
H79 C109 0.931 . S
H80 C101 0.929 . S
H81 C110 0.930 . S
H82 C102 0.931 . S
O83 Co59 2.097 . S
O83 C111 1.214 . S
H84 C112 0.929 . S
H85 C113 0.929 . S
H86 C114 0.930 . S
H87 C115 0.929 . S
H88 C117 0.930 . S
H89 C94 0.930 . S
H90 C98 0.930 . S
O91 Co60 2.037 . S
O91 C111 1.234 . S
C92 O66 1.269 . S
C92 O67 1.257 . S
C93 H68 0.930 . S
C93 C96 1.388 . S
C93 C98 1.418 . S
C94 H89 0.930 . S
C94 C97 1.404 . S
C94 C98 1.353 . S
N95 Co60 2.145 . S
N95 C96 1.397 . S
N95 C97 1.334 . S
C96 H77 0.929 . S
C96 C93 1.388 . S
C96 N95 1.397 . S
C97 H78 0.929 . S
C97 C94 1.404 . S
C97 N95 1.334 . S
C98 H90 0.930 . S
C98 C93 1.418 . S
C98 C94 1.353 . S
C99 H69 0.930 . S
C99 N100 1.330 . S
C99 C101 1.446 . S
N100 Co59 2.151 . S
N100 C99 1.330 . S
N100 C104 1.418 . S
C101 H80 0.929 . S
C101 C99 1.446 . S
C101 C102 1.332 . S
C102 H82 0.931 . S
C102 C101 1.332 . S
C102 C103 1.267 . S
C103 H71 0.929 . S
C103 C102 1.267 . S
C103 C104 1.251 . S
C104 H74 0.929 . S
C104 N100 1.418 . S
C104 C103 1.251 . S
C105 H72 0.930 . S
C105 C107 1.406 . S
C105 C110 1.261 . S
C106 H73 0.930 . S
C106 N108 1.318 1_565 S
C106 C109 1.357 1_565 S
C107 H75 0.928 . S
C107 C105 1.406 . S
C107 N108 1.293 . S
N108 Co59 2.189 1_545 S
N108 C106 1.318 1_545 S
N108 C107 1.293 . S
C109 H79 0.931 . S
C109 C106 1.357 1_545 S
C109 C110 1.312 . S
C110 H81 0.930 . S
C110 C105 1.261 . S
C110 C109 1.312 . S
C111 O83 1.214 . S
C111 O91 1.234 . S
C112 H84 0.929 . S
C112 C115 1.391 . S
C112 C117 1.391 . S
C113 H85 0.929 . S
C113 C114 1.390 . S
C113 N116 1.391 . S
C114 H86 0.930 . S
C114 C113 1.390 . S
C114 C115 1.392 . S
C115 H87 0.929 . S
C115 C112 1.391 . S
C115 C114 1.392 . S
N116 Co60 2.257 . S
N116 C113 1.391 . S
N116 C117 1.388 . S
C117 H88 0.930 . S
C117 C112 1.391 . S
C117 N116 1.388 . S
Co118 O120 2.143 . S
Co118 O126 2.074 . S
Co118 O129 2.093 1_655 S
Co118 O142 2.097 . S
Co118 N159 2.151 . S
Co118 N167 2.214 1_655 S
Co119 O120 2.160 . S
Co119 O125 2.058 . S
Co119 O135 2.057 . S
Co119 O150 2.037 . S
Co119 N154 2.145 . S
Co119 N175 2.257 . S
O120 Co118 2.143 . S
O120 Co119 2.160 . S
C121 O122 1.278 1_455 S
C121 O129 1.224 . S
O122 C121 1.278 1_655 S
C123 O124 1.245 . S
C123 O135 1.232 . S
O124 C123 1.245 . S
O125 Co119 2.058 . S
O125 C151 1.269 . S
O126 Co118 2.074 . S
O126 C151 1.257 . S
H127 C152 0.930 . S
H128 C158 0.930 . S
O129 Co118 2.093 1_455 S
O129 C121 1.224 . S
H130 C162 0.929 . S
H131 C164 0.930 . S
H132 C165 0.930 . S
H133 C163 0.929 . S
H134 C166 0.928 . S
O135 Co119 2.057 . S
O135 C123 1.232 . S
H136 C155 0.929 . S
H137 C156 0.929 . S
H138 C168 0.931 . S
H139 C160 0.929 . S
H140 C169 0.930 . S
H141 C161 0.931 . S
O142 Co118 2.097 . S
O142 C170 1.214 . S
H143 C171 0.929 . S
H144 C172 0.929 . S
H145 C173 0.930 . S
H146 C174 0.929 . S
H147 C176 0.930 . S
H148 C153 0.930 . S
H149 C157 0.930 . S
O150 Co119 2.037 . S
O150 C170 1.234 . S
C151 O125 1.269 . S
C151 O126 1.257 . S
C152 H127 0.930 . S
C152 C155 1.388 . S
C152 C157 1.418 . S
C153 H148 0.930 . S
C153 C156 1.404 . S
C153 C157 1.353 . S
N154 Co119 2.145 . S
N154 C155 1.397 . S
N154 C156 1.334 . S
C155 H136 0.929 . S
C155 C152 1.388 . S
C155 N154 1.397 . S
C156 H137 0.929 . S
C156 C153 1.404 . S
C156 N154 1.334 . S
C157 H149 0.930 . S
C157 C152 1.418 . S
C157 C153 1.353 . S
C158 H128 0.930 . S
C158 N159 1.330 . S
C158 C160 1.446 . S
N159 Co118 2.151 . S
N159 C158 1.330 . S
N159 C163 1.418 . S
C160 H139 0.929 . S
C160 C158 1.446 . S
C160 C161 1.332 . S
C161 H141 0.931 . S
C161 C160 1.332 . S
C161 C162 1.267 . S
C162 H130 0.929 . S
C162 C161 1.267 . S
C162 C163 1.251 . S
C163 H133 0.929 . S
C163 N159 1.418 . S
C163 C162 1.251 . S
C164 H131 0.930 . S
C164 C166 1.406 . S
C164 C169 1.261 . S
C165 H132 0.930 . S
C165 N167 1.325 1_655 S
C165 C168 1.357 1_655 S
C166 H134 0.928 . S
C166 C164 1.406 . S
C166 N167 1.261 . S
N167 Co118 2.214 1_455 S
N167 C165 1.325 1_455 S
N167 C166 1.261 . S
C168 H138 0.931 . S
C168 C165 1.357 1_455 S
C168 C169 1.312 . S
C169 H140 0.930 . S
C169 C164 1.261 . S
C169 C168 1.312 . S
C170 O142 1.214 . S
C170 O150 1.234 . S
C171 H143 0.929 . S
C171 C174 1.391 . S
C171 C176 1.391 . S
C172 H144 0.929 . S
C172 C173 1.390 . S
C172 N175 1.391 . S
C173 H145 0.930 . S
C173 C172 1.390 . S
C173 C174 1.392 . S
C174 H146 0.929 . S
C174 C171 1.391 . S
C174 C173 1.392 . S
N175 Co119 2.257 . S
N175 C172 1.391 . S
N175 C176 1.388 . S
C176 H147 0.930 . S
C176 C171 1.391 . S
C176 N175 1.388 . S
Co177 O179 2.143 . S
Co177 O185 2.074 . S
Co177 O188 2.093 1_545 S
Co177 O201 2.097 . S
Co177 N218 2.151 . S
Co177 N226 2.189 1_545 S
Co178 O179 2.160 . S
Co178 O184 2.058 . S
Co178 O194 2.057 . S
Co178 O209 2.037 . S
Co178 N213 2.145 . S
Co178 N234 2.257 . S
O179 Co177 2.143 . S
O179 Co178 2.160 . S
C180 O181 1.278 1_565 S
C180 O188 1.224 . S
O181 C180 1.278 1_545 S
C182 O183 1.245 . S
C182 O194 1.232 . S
O183 C182 1.245 . S
O184 Co178 2.058 . S
O184 C210 1.269 . S
O185 Co177 2.074 . S
O185 C210 1.257 . S
H186 C211 0.930 . S
H187 C217 0.930 . S
O188 Co177 2.093 1_565 S
O188 C180 1.224 . S
H189 C221 0.929 . S
H190 C223 0.930 . S
H191 C224 0.930 . S
H192 C222 0.929 . S
H193 C225 0.928 . S
O194 Co178 2.057 . S
O194 C182 1.232 . S
H195 C214 0.929 . S
H196 C215 0.929 . S
H197 C227 0.931 . S
H198 C219 0.929 . S
H199 C228 0.930 . S
H200 C220 0.931 . S
O201 Co177 2.097 . S
O201 C229 1.214 . S
H202 C230 0.929 . S
H203 C231 0.929 . S
H204 C232 0.930 . S
H205 C233 0.929 . S
H206 C235 0.930 . S
H207 C212 0.930 . S
H208 C216 0.930 . S
O209 Co178 2.037 . S
O209 C229 1.234 . S
C210 O184 1.269 . S
C210 O185 1.257 . S
C211 H186 0.930 . S
C211 C214 1.388 . S
C211 C216 1.418 . S
C212 H207 0.930 . S
C212 C215 1.404 . S
C212 C216 1.353 . S
N213 Co178 2.145 . S
N213 C214 1.397 . S
N213 C215 1.334 . S
C214 H195 0.929 . S
C214 C211 1.388 . S
C214 N213 1.397 . S
C215 H196 0.929 . S
C215 C212 1.404 . S
C215 N213 1.334 . S
C216 H208 0.930 . S
C216 C211 1.418 . S
C216 C212 1.353 . S
C217 H187 0.930 . S
C217 N218 1.330 . S
C217 C219 1.446 . S
N218 Co177 2.151 . S
N218 C217 1.330 . S
N218 C222 1.418 . S
C219 H198 0.929 . S
C219 C217 1.446 . S
C219 C220 1.332 . S
C220 H200 0.931 . S
C220 C219 1.332 . S
C220 C221 1.267 . S
C221 H189 0.929 . S
C221 C220 1.267 . S
C221 C222 1.251 . S
C222 H192 0.929 . S
C222 N218 1.418 . S
C222 C221 1.251 . S
C223 H190 0.930 . S
C223 C225 1.406 . S
C223 C228 1.261 . S
C224 H191 0.930 . S
C224 N226 1.318 1_545 S
C224 C227 1.357 1_545 S
C225 H193 0.928 . S
C225 C223 1.406 . S
C225 N226 1.293 . S
N226 Co177 2.189 1_565 S
N226 C224 1.318 1_565 S
N226 C225 1.293 . S
C227 H197 0.931 . S
C227 C224 1.357 1_565 S
C227 C228 1.312 . S
C228 H199 0.930 . S
C228 C223 1.261 . S
C228 C227 1.312 . S
C229 O201 1.214 . S
C229 O209 1.234 . S
C230 H202 0.929 . S
C230 C233 1.391 . S
C230 C235 1.391 . S
C231 H203 0.929 . S
C231 C232 1.390 . S
C231 N234 1.391 . S
C232 H204 0.930 . S
C232 C231 1.390 . S
C232 C233 1.392 . S
C233 H205 0.929 . S
C233 C230 1.391 . S
C233 C232 1.392 . S
N234 Co178 2.257 . S
N234 C231 1.391 . S
N234 C235 1.388 . S
C235 H206 0.930 . S
C235 C230 1.391 . S
C235 N234 1.388 . S
Co236 O238 2.143 . S
Co236 O244 2.074 . S
Co236 O247 2.093 . S
Co236 O260 2.097 . S
Co236 N277 2.151 . S
Co236 N285 2.214 . S
Co237 O238 2.160 . S
Co237 O243 2.058 . S
Co237 O253 2.057 . S
Co237 O268 2.037 . S
Co237 N272 2.145 . S
Co237 N293 2.257 1_556 S
O238 Co236 2.143 . S
O238 Co237 2.160 . S
C239 O240 1.277 1_556 S
C239 O247 1.224 . S
O240 C239 1.277 1_554 S
C241 O242 1.245 . S
C241 O253 1.232 . S
O242 C241 1.245 . S
O243 Co237 2.058 . S
O243 C269 1.269 . S
O244 Co236 2.074 . S
O244 C269 1.257 . S
H245 C270 0.930 . S
H246 C276 0.930 . S
O247 Co236 2.093 . S
O247 C239 1.224 . S
H248 C280 0.929 . S
H249 C282 0.930 . S
H250 C283 0.930 . S
H251 C281 0.929 . S
H252 C284 0.928 . S
O253 Co237 2.057 . S
O253 C241 1.232 . S
H254 C273 0.929 . S
H255 C274 0.929 . S
H256 C286 0.931 . S
H257 C278 0.929 . S
H258 C287 0.930 . S
H259 C279 0.931 . S
O260 Co236 2.097 . S
O260 C288 1.214 . S
H261 C289 0.929 . S
H262 C290 0.929 . S
H263 C291 0.930 . S
H264 C292 0.929 . S
H265 C294 0.930 . S
H266 C271 0.930 . S
H267 C275 0.930 . S
O268 Co237 2.037 . S
O268 C288 1.234 . S
C269 O243 1.269 . S
C269 O244 1.257 . S
C270 H245 0.930 . S
C270 C273 1.388 . S
C270 C275 1.418 1_556 S
C271 H266 0.930 . S
C271 C274 1.404 . S
C271 C275 1.353 . S
N272 Co237 2.145 . S
N272 C273 1.397 . S
N272 C274 1.334 1_556 S
C273 H254 0.929 . S
C273 C270 1.388 . S
C273 N272 1.397 . S
C274 H255 0.929 . S
C274 C271 1.404 . S
C274 N272 1.334 1_554 S
C275 H267 0.930 . S
C275 C270 1.418 1_554 S
C275 C271 1.353 . S
C276 H246 0.930 . S
C276 N277 1.330 . S
C276 C278 1.446 . S
N277 Co236 2.151 . S
N277 C276 1.330 . S
N277 C281 1.418 . S
C278 H257 0.929 . S
C278 C276 1.446 . S
C278 C279 1.332 . S
C279 H259 0.931 . S
C279 C278 1.332 . S
C279 C280 1.267 . S
C280 H248 0.929 . S
C280 C279 1.267 . S
C280 C281 1.251 . S
C281 H251 0.929 . S
C281 N277 1.418 . S
C281 C280 1.251 . S
C282 H249 0.930 . S
C282 C284 1.406 . S
C282 C287 1.261 . S
C283 H250 0.930 . S
C283 N285 1.325 . S
C283 C286 1.357 . S
C284 H252 0.928 . S
C284 C282 1.406 . S
C284 N285 1.261 . S
N285 Co236 2.214 . S
N285 C283 1.325 . S
N285 C284 1.261 . S
C286 H256 0.931 . S
C286 C283 1.357 . S
C286 C287 1.312 . S
C287 H258 0.930 . S
C287 C282 1.261 . S
C287 C286 1.312 . S
C288 O260 1.214 . S
C288 O268 1.234 . S
C289 H261 0.929 . S
C289 C292 1.391 . S
C289 C294 1.391 . S
C290 H262 0.929 . S
C290 C291 1.390 . S
C290 N293 1.391 . S
C291 H263 0.930 . S
C291 C290 1.390 . S
C291 C292 1.392 . S
C292 H264 0.929 . S
C292 C289 1.391 . S
C292 C291 1.392 . S
N293 Co237 2.257 1_554 S
N293 C290 1.391 . S
N293 C294 1.388 . S
C294 H265 0.930 . S
C294 C289 1.391 . S
C294 N293 1.388 . S
Co295 O297 2.143 . S
Co295 O303 2.074 . S
Co295 O306 2.093 . S
Co295 O319 2.097 . S
Co295 N336 2.151 1_554 S
Co295 N344 2.214 . S
Co296 O297 2.160 . S
Co296 O302 2.058 . S
Co296 O312 2.057 . S
Co296 O327 2.037 . S
Co296 N331 2.145 . S
Co296 N352 2.257 . S
O297 Co295 2.143 . S
O297 Co296 2.160 . S
C298 O299 1.278 . S
C298 O306 1.224 . S
O299 C298 1.278 . S
C300 O301 1.245 1_554 S
C300 O312 1.232 . S
O301 C300 1.245 1_556 S
O302 Co296 2.058 . S
O302 C328 1.269 . S
O303 Co295 2.074 . S
O303 C328 1.257 . S
H304 C329 0.930 . S
H305 C335 0.930 . S
O306 Co295 2.093 . S
O306 C298 1.224 . S
H307 C339 0.929 . S
H308 C341 0.930 1_556 S
H309 C342 0.930 . S
H310 C340 0.929 . S
H311 C343 0.928 1_556 S
O312 Co296 2.057 . S
O312 C300 1.232 . S
H313 C332 0.929 . S
H314 C333 0.929 . S
H315 C345 0.931 . S
H316 C337 0.929 . S
H317 C346 0.930 . S
H318 C338 0.931 . S
O319 Co295 2.097 . S
O319 C347 1.214 . S
H320 C348 0.929 . S
H321 C349 0.929 . S
H322 C350 0.930 . S
H323 C351 0.929 . S
H324 C353 0.930 . S
H325 C330 0.930 . S
H326 C334 0.930 . S
O327 Co296 2.037 . S
O327 C347 1.234 . S
C328 O302 1.269 . S
C328 O303 1.257 . S
C329 H304 0.930 . S
C329 C332 1.388 . S
C329 C334 1.418 . S
C330 H325 0.930 . S
C330 C333 1.404 . S
C330 C334 1.353 . S
N331 Co296 2.145 . S
N331 C332 1.397 . S
N331 C333 1.334 . S
C332 H313 0.929 . S
C332 C329 1.388 . S
C332 N331 1.397 . S
C333 H314 0.929 . S
C333 C330 1.404 . S
C333 N331 1.334 . S
C334 H326 0.930 . S
C334 C329 1.418 . S
C334 C330 1.353 . S
C335 H305 0.930 . S
C335 N336 1.330 . S
C335 C337 1.446 . S
N336 Co295 2.151 1_556 S
N336 C335 1.330 . S
N336 C340 1.418 . S
C337 H316 0.929 . S
C337 C335 1.446 . S
C337 C338 1.332 . S
C338 H318 0.931 . S
C338 C337 1.332 . S
C338 C339 1.267 . S
C339 H307 0.929 . S
C339 C338 1.267 . S
C339 C340 1.251 . S
C340 H310 0.929 . S
C340 N336 1.418 . S
C340 C339 1.251 . S
C341 H308 0.930 1_554 S
C341 C343 1.406 . S
C341 C346 1.261 . S
C342 H309 0.930 . S
C342 N344 1.325 . S
C342 C345 1.357 . S
C343 H311 0.928 1_554 S
C343 C341 1.406 . S
C343 N344 1.261 . S
N344 Co295 2.214 . S
N344 C342 1.325 . S
N344 C343 1.261 . S
C345 H315 0.931 . S
C345 C342 1.357 . S
C345 C346 1.312 . S
C346 H317 0.930 . S
C346 C341 1.261 . S
C346 C345 1.312 . S
C347 O319 1.214 . S
C347 O327 1.234 . S
C348 H320 0.929 . S
C348 C351 1.391 . S
C348 C353 1.391 . S
C349 H321 0.929 . S
C349 C350 1.390 . S
C349 N352 1.391 . S
C350 H322 0.930 . S
C350 C349 1.390 . S
C350 C351 1.392 . S
C351 H323 0.929 . S
C351 C348 1.391 . S
C351 C350 1.392 . S
N352 Co296 2.257 . S
N352 C349 1.391 . S
N352 C353 1.388 . S
C353 H324 0.930 . S
C353 C348 1.391 . S
C353 N352 1.388 . S
Co354 O356 2.143 . S
Co354 O362 2.074 . S
Co354 O365 2.093 . S
Co354 O378 2.097 . S
Co354 N395 2.151 . S
Co354 N403 2.214 . S
Co355 O356 2.160 . S
Co355 O361 2.058 . S
Co355 O371 2.057 . S
Co355 O386 2.037 . S
Co355 N390 2.145 . S
Co355 N411 2.257 1_556 S
O356 Co354 2.143 . S
O356 Co355 2.160 . S
C357 O358 1.277 1_556 S
C357 O365 1.224 . S
O358 C357 1.277 1_554 S
C359 O360 1.245 . S
C359 O371 1.232 . S
O360 C359 1.245 . S
O361 Co355 2.058 . S
O361 C387 1.269 . S
O362 Co354 2.074 . S
O362 C387 1.257 . S
H363 C388 0.930 . S
H364 C394 0.930 . S
O365 Co354 2.093 . S
O365 C357 1.224 . S
H366 C398 0.929 . S
H367 C400 0.930 . S
H368 C401 0.930 . S
H369 C399 0.929 . S
H370 C402 0.928 . S
O371 Co355 2.057 . S
O371 C359 1.232 . S
H372 C391 0.929 . S
H373 C392 0.929 . S
H374 C404 0.931 . S
H375 C396 0.929 . S
H376 C405 0.930 . S
H377 C397 0.931 . S
O378 Co354 2.097 . S
O378 C406 1.214 . S
H379 C407 0.929 . S
H380 C408 0.929 . S
H381 C409 0.930 . S
H382 C410 0.929 . S
H383 C412 0.930 . S
H384 C389 0.930 . S
H385 C393 0.930 . S
O386 Co355 2.037 . S
O386 C406 1.234 . S
C387 O361 1.269 . S
C387 O362 1.257 . S
C388 H363 0.930 . S
C388 C391 1.388 . S
C388 C393 1.418 1_556 S
C389 H384 0.930 . S
C389 C392 1.404 . S
C389 C393 1.353 . S
N390 Co355 2.145 . S
N390 C391 1.397 . S
N390 C392 1.334 1_556 S
C391 H372 0.929 . S
C391 C388 1.388 . S
C391 N390 1.397 . S
C392 H373 0.929 . S
C392 C389 1.404 . S
C392 N390 1.334 1_554 S
C393 H385 0.930 . S
C393 C388 1.418 1_554 S
C393 C389 1.353 . S
C394 H364 0.930 . S
C394 N395 1.330 . S
C394 C396 1.446 . S
N395 Co354 2.151 . S
N395 C394 1.330 . S
N395 C399 1.418 . S
C396 H375 0.929 . S
C396 C394 1.446 . S
C396 C397 1.332 . S
C397 H377 0.931 . S
C397 C396 1.332 . S
C397 C398 1.267 . S
C398 H366 0.929 . S
C398 C397 1.267 . S
C398 C399 1.251 . S
C399 H369 0.929 . S
C399 N395 1.418 . S
C399 C398 1.251 . S
C400 H367 0.930 . S
C400 C402 1.406 . S
C400 C405 1.261 . S
C401 H368 0.930 . S
C401 N403 1.325 . S
C401 C404 1.357 . S
C402 H370 0.928 . S
C402 C400 1.406 . S
C402 N403 1.261 . S
N403 Co354 2.214 . S
N403 C401 1.325 . S
N403 C402 1.261 . S
C404 H374 0.931 . S
C404 C401 1.357 . S
C404 C405 1.312 . S
C405 H376 0.930 . S
C405 C400 1.261 . S
C405 C404 1.312 . S
C406 O378 1.214 . S
C406 O386 1.234 . S
C407 H379 0.929 . S
C407 C410 1.391 . S
C407 C412 1.391 . S
C408 H380 0.929 . S
C408 C409 1.390 . S
C408 N411 1.391 . S
C409 H381 0.930 . S
C409 C408 1.390 . S
C409 C410 1.392 . S
C410 H382 0.929 . S
C410 C407 1.391 . S
C410 C409 1.392 . S
N411 Co355 2.257 1_554 S
N411 C408 1.391 . S
N411 C412 1.388 . S
C412 H383 0.930 . S
C412 C407 1.391 . S
C412 N411 1.388 . S
Co413 O415 2.143 . S
Co413 O421 2.074 . S
Co413 O424 2.093 . S
Co413 O437 2.097 . S
Co413 N454 2.151 1_554 S
Co413 N462 2.214 . S
Co414 O415 2.160 . S
Co414 O420 2.058 . S
Co414 O430 2.057 . S
Co414 O445 2.037 . S
Co414 N449 2.145 . S
Co414 N470 2.257 . S
O415 Co413 2.143 . S
O415 Co414 2.160 . S
C416 O417 1.278 . S
C416 O424 1.224 . S
O417 C416 1.278 . S
C418 O419 1.245 1_554 S
C418 O430 1.232 . S
O419 C418 1.245 1_556 S
O420 Co414 2.058 . S
O420 C446 1.269 . S
O421 Co413 2.074 . S
O421 C446 1.257 . S
H422 C447 0.930 . S
H423 C453 0.930 . S
O424 Co413 2.093 . S
O424 C416 1.224 . S
H425 C457 0.929 . S
H426 C459 0.930 1_556 S
H427 C460 0.930 . S
H428 C458 0.929 . S
H429 C461 0.928 1_556 S
O430 Co414 2.057 . S
O430 C418 1.232 . S
H431 C450 0.929 . S
H432 C451 0.929 . S
H433 C463 0.931 . S
H434 C455 0.929 . S
H435 C464 0.930 . S
H436 C456 0.931 . S
O437 Co413 2.097 . S
O437 C465 1.214 . S
H438 C466 0.929 . S
H439 C467 0.929 . S
H440 C468 0.930 . S
H441 C469 0.929 . S
H442 C471 0.930 . S
H443 C448 0.930 . S
H444 C452 0.930 . S
O445 Co414 2.037 . S
O445 C465 1.234 . S
C446 O420 1.269 . S
C446 O421 1.257 . S
C447 H422 0.930 . S
C447 C450 1.388 . S
C447 C452 1.418 . S
C448 H443 0.930 . S
C448 C451 1.404 . S
C448 C452 1.353 . S
N449 Co414 2.145 . S
N449 C450 1.397 . S
N449 C451 1.334 . S
C450 H431 0.929 . S
C450 C447 1.388 . S
C450 N449 1.397 . S
C451 H432 0.929 . S
C451 C448 1.404 . S
C451 N449 1.334 . S
C452 H444 0.930 . S
C452 C447 1.418 . S
C452 C448 1.353 . S
C453 H423 0.930 . S
C453 N454 1.330 . S
C453 C455 1.446 . S
N454 Co413 2.151 1_556 S
N454 C453 1.330 . S
N454 C458 1.418 . S
C455 H434 0.929 . S
C455 C453 1.446 . S
C455 C456 1.332 . S
C456 H436 0.931 . S
C456 C455 1.332 . S
C456 C457 1.267 . S
C457 H425 0.929 . S
C457 C456 1.267 . S
C457 C458 1.251 . S
C458 H428 0.929 . S
C458 N454 1.418 . S
C458 C457 1.251 . S
C459 H426 0.930 1_554 S
C459 C461 1.406 . S
C459 C464 1.261 . S
C460 H427 0.930 . S
C460 N462 1.325 . S
C460 C463 1.357 . S
C461 H429 0.928 1_554 S
C461 C459 1.406 . S
C461 N462 1.261 . S
N462 Co413 2.214 . S
N462 C460 1.325 . S
N462 C461 1.261 . S
C463 H433 0.931 . S
C463 C460 1.357 . S
C463 C464 1.312 . S
C464 H435 0.930 . S
C464 C459 1.261 . S
C464 C463 1.312 . S
C465 O437 1.214 . S
C465 O445 1.234 . S
C466 H438 0.929 . S
C466 C469 1.391 . S
C466 C471 1.391 . S
C467 H439 0.929 . S
C467 C468 1.390 . S
C467 N470 1.391 . S
C468 H440 0.930 . S
C468 C467 1.390 . S
C468 C469 1.392 . S
C469 H441 0.929 . S
C469 C466 1.391 . S
C469 C468 1.392 . S
N470 Co414 2.257 . S
N470 C467 1.391 . S
N470 C471 1.388 . S
C471 H442 0.930 . S
C471 C466 1.391 . S
C471 N470 1.388 . S
H472 C490 0.951 . S
H473 C492 0.951 . S
H474 C494 0.950 . S
H475 C495 0.950 . S
H476 C497 0.950 . S
H477 C500 0.950 . S
H478 C501 0.950 . S
H479 C503 0.950 . S
H480 C504 0.950 . S
H481 C505 0.951 . S
H482 C507 0.951 . S
H483 C509 0.950 . S
H484 C510 0.950 . S
H485 C512 0.950 . S
H486 C515 0.950 . S
H487 C516 0.950 . S
H488 C518 0.950 . S
H489 C519 0.950 . S
C490 H472 0.951 . S
C490 C491 1.366 . S
C490 C492 1.388 . S
C491 C490 1.366 . S
C491 C495 1.385 . S
C492 H473 0.951 . S
C492 C490 1.388 . S
C492 C493 1.366 . S
C493 C492 1.366 . S
C493 C494 1.414 . S
C493 C496 1.499 . S
C494 H474 0.950 . S
C494 C493 1.414 . S
C494 C495 1.374 . S
C495 H475 0.950 . S
C495 C491 1.385 . S
C495 C494 1.374 . S
C496 C493 1.499 . S
C496 C497 1.373 . S
C496 C498 1.389 . S
C497 H476 0.950 . S
C497 C496 1.373 . S
C497 C513 1.377 . S
C498 C496 1.389 . S
C498 C499 1.524 . S
C498 C512 1.377 . S
C499 C498 1.524 . S
C499 C500 1.397 . S
C499 C504 1.363 . S
C500 H477 0.950 . S
C500 C499 1.397 . S
C500 C501 1.334 . S
C501 H478 0.950 . S
C501 C500 1.334 . S
C501 C502 1.287 . S
C502 C501 1.287 . S
C502 C503 1.524 . S
C502 H521 0.913 . S
C503 H479 0.950 . S
C503 C502 1.524 . S
C503 C504 1.415 . S
C504 H480 0.950 . S
C504 C499 1.363 . S
C504 C503 1.415 . S
C505 H481 0.951 . S
C505 C506 1.366 . S
C505 C507 1.388 . S
C506 C505 1.366 . S
C506 C510 1.385 . S
C507 H482 0.951 . S
C507 C505 1.388 . S
C507 C508 1.366 . S
C508 C507 1.366 . S
C508 C509 1.414 . S
C508 C511 1.499 . S
C509 H483 0.950 . S
C509 C508 1.414 . S
C509 C510 1.374 . S
C510 H484 0.950 . S
C510 C506 1.385 . S
C510 C509 1.374 . S
C511 C508 1.499 . S
C511 C512 1.373 . S
C511 C513 1.389 . S
C512 H485 0.950 . S
C512 C498 1.377 . S
C512 C511 1.373 . S
C513 C497 1.377 . S
C513 C511 1.389 . S
C513 C514 1.524 . S
C514 C513 1.524 . S
C514 C515 1.397 . S
C514 C519 1.363 . S
C515 H486 0.950 . S
C515 C514 1.397 . S
C515 C516 1.334 . S
C516 H487 0.950 . S
C516 C515 1.334 . S
C516 C517 1.287 . S
C517 C516 1.287 . S
C517 C518 1.524 . S
C517 H520 0.999 . S
C518 H488 0.950 . S
C518 C517 1.524 . S
C518 C519 1.415 . S
C519 H489 0.950 . S
C519 C514 1.363 . S
C519 C518 1.415 . S
H520 C517 0.999 . S
H521 C502 0.913 . S
H522 C540 0.951 . S
H523 C542 0.951 . S
H524 C544 0.950 . S
H525 C545 0.950 . S
H526 C547 0.950 . S
H527 C550 0.950 . S
H528 C551 0.950 . S
H529 C553 0.950 . S
H530 C554 0.950 . S
H531 C555 0.951 . S
H532 C557 0.951 . S
H533 C559 0.950 . S
H534 C560 0.950 . S
H535 C562 0.950 . S
H536 C565 0.950 . S
H537 C566 0.950 . S
H538 C568 0.950 . S
H539 C569 0.950 . S
C540 H522 0.951 . S
C540 C541 1.366 . S
C540 C542 1.388 . S
C541 C540 1.366 . S
C541 C545 1.385 . S
C542 H523 0.951 . S
C542 C540 1.388 . S
C542 C543 1.366 . S
C543 C542 1.366 . S
C543 C544 1.414 . S
C543 C546 1.499 . S
C544 H524 0.950 . S
C544 C543 1.414 . S
C544 C545 1.374 . S
C545 H525 0.950 . S
C545 C541 1.385 . S
C545 C544 1.374 . S
C546 C543 1.499 . S
C546 C547 1.373 . S
C546 C548 1.389 . S
C547 H526 0.950 . S
C547 C546 1.373 . S
C547 C563 1.377 . S
C548 C546 1.389 . S
C548 C549 1.524 . S
C548 C562 1.377 . S
C549 C548 1.524 . S
C549 C550 1.397 . S
C549 C554 1.363 . S
C550 H527 0.950 . S
C550 C549 1.397 . S
C550 C551 1.334 . S
C551 H528 0.950 . S
C551 C550 1.334 . S
C551 C552 1.287 . S
C552 C551 1.287 . S
C552 C553 1.524 . S
C552 H571 0.913 . S
C553 H529 0.950 . S
C553 C552 1.524 . S
C553 C554 1.415 . S
C554 H530 0.950 . S
C554 C549 1.363 . S
C554 C553 1.415 . S
C555 H531 0.951 . S
C555 C556 1.366 . S
C555 C557 1.388 . S
C556 C555 1.366 . S
C556 C560 1.385 . S
C557 H532 0.951 . S
C557 C555 1.388 . S
C557 C558 1.366 . S
C558 C557 1.366 . S
C558 C559 1.414 . S
C558 C561 1.499 . S
C559 H533 0.950 . S
C559 C558 1.414 . S
C559 C560 1.374 . S
C560 H534 0.950 . S
C560 C556 1.385 . S
C560 C559 1.374 . S
C561 C558 1.499 . S
C561 C562 1.373 . S
C561 C563 1.389 . S
C562 H535 0.950 . S
C562 C548 1.377 . S
C562 C561 1.373 . S
C563 C547 1.377 . S
C563 C561 1.389 . S
C563 C564 1.524 . S
C564 C563 1.524 . S
C564 C565 1.397 . S
C564 C569 1.363 . S
C565 H536 0.950 . S
C565 C564 1.397 . S
C565 C566 1.334 . S
C566 H537 0.950 . S
C566 C565 1.334 . S
C566 C567 1.287 . S
C567 C566 1.287 . S
C567 C568 1.524 . S
C567 H570 0.999 . S
C568 H538 0.950 . S
C568 C567 1.524 . S
C568 C569 1.415 . S
C569 H539 0.950 . S
C569 C564 1.363 . S
C569 C568 1.415 . S
H570 C567 0.999 . S
H571 C552 0.913 . S
H572 C590 0.951 . S
H573 C592 0.951 . S
H574 C594 0.950 . S
H575 C595 0.950 . S
H576 C597 0.950 . S
H577 C600 0.950 . S
H578 C601 0.950 . S
H579 C603 0.950 . S
H580 C604 0.950 . S
H581 C605 0.951 . S
H582 C607 0.951 . S
H583 C609 0.950 . S
H584 C610 0.950 . S
H585 C612 0.950 . S
H586 C615 0.950 . S
H587 C616 0.950 . S
H588 C618 0.950 . S
H589 C619 0.950 . S
C590 H572 0.951 . S
C590 C591 1.366 . S
C590 C592 1.388 . S
C591 C590 1.366 . S
C591 C595 1.385 . S
C592 H573 0.951 . S
C592 C590 1.388 . S
C592 C593 1.366 . S
C593 C592 1.366 . S
C593 C594 1.414 . S
C593 C596 1.499 . S
C594 H574 0.950 . S
C594 C593 1.414 . S
C594 C595 1.374 . S
C595 H575 0.950 . S
C595 C591 1.385 . S
C595 C594 1.374 . S
C596 C593 1.499 . S
C596 C597 1.373 . S
C596 C598 1.389 . S
C597 H576 0.950 . S
C597 C596 1.373 . S
C597 C613 1.377 . S
C598 C596 1.389 . S
C598 C599 1.524 . S
C598 C612 1.377 . S
C599 C598 1.524 . S
C599 C600 1.397 . S
C599 C604 1.363 . S
C600 H577 0.950 . S
C600 C599 1.397 . S
C600 C601 1.334 . S
C601 H578 0.950 . S
C601 C600 1.334 . S
C601 C602 1.287 . S
C602 C601 1.287 . S
C602 C603 1.524 . S
C602 H621 0.913 . S
C603 H579 0.950 . S
C603 C602 1.524 . S
C603 C604 1.415 . S
C604 H580 0.950 . S
C604 C599 1.363 . S
C604 C603 1.415 . S
C605 H581 0.951 . S
C605 C606 1.366 . S
C605 C607 1.388 . S
C606 C605 1.366 . S
C606 C610 1.385 . S
C607 H582 0.951 . S
C607 C605 1.388 . S
C607 C608 1.366 . S
C608 C607 1.366 . S
C608 C609 1.414 . S
C608 C611 1.499 . S
C609 H583 0.950 . S
C609 C608 1.414 . S
C609 C610 1.374 . S
C610 H584 0.950 . S
C610 C606 1.385 . S
C610 C609 1.374 . S
C611 C608 1.499 . S
C611 C612 1.373 . S
C611 C613 1.389 . S
C612 H585 0.950 . S
C612 C598 1.377 . S
C612 C611 1.373 . S
C613 C597 1.377 . S
C613 C611 1.389 . S
C613 C614 1.524 . S
C614 C613 1.524 . S
C614 C615 1.397 . S
C614 C619 1.363 . S
C615 H586 0.950 . S
C615 C614 1.397 . S
C615 C616 1.334 . S
C616 H587 0.950 . S
C616 C615 1.334 . S
C616 C617 1.287 . S
C617 C616 1.287 . S
C617 C618 1.524 . S
C617 H620 0.999 . S
C618 H588 0.950 . S
C618 C617 1.524 . S
C618 C619 1.415 . S
C619 H589 0.950 . S
C619 C614 1.363 . S
C619 C618 1.415 . S
H620 C617 0.999 . S
H621 C602 0.913 . S
H622 C640 0.951 . S
H623 C642 0.951 . S
H624 C644 0.950 . S
H625 C645 0.950 . S
H626 C647 0.950 . S
H627 C650 0.950 . S
H628 C651 0.950 . S
H629 C653 0.950 . S
H630 C654 0.950 . S
H631 C655 0.951 . S
H632 C657 0.951 . S
H633 C659 0.950 . S
H634 C660 0.950 . S
H635 C662 0.950 . S
H636 C665 0.950 . S
H637 C666 0.950 . S
H638 C668 0.950 . S
H639 C669 0.950 . S
C640 H622 0.951 . S
C640 C641 1.366 . S
C640 C642 1.388 . S
C641 C640 1.366 . S
C641 C645 1.385 . S
C642 H623 0.951 . S
C642 C640 1.388 . S
C642 C643 1.366 . S
C643 C642 1.366 . S
C643 C644 1.414 . S
C643 C646 1.499 . S
C644 H624 0.950 . S
C644 C643 1.414 . S
C644 C645 1.374 . S
C645 H625 0.950 . S
C645 C641 1.385 . S
C645 C644 1.374 . S
C646 C643 1.499 . S
C646 C647 1.373 . S
C646 C648 1.389 . S
C647 H626 0.950 . S
C647 C646 1.373 . S
C647 C663 1.377 . S
C648 C646 1.389 . S
C648 C649 1.524 . S
C648 C662 1.377 . S
C649 C648 1.524 . S
C649 C650 1.397 . S
C649 C654 1.363 . S
C650 H627 0.950 . S
C650 C649 1.397 . S
C650 C651 1.334 . S
C651 H628 0.950 . S
C651 C650 1.334 . S
C651 C652 1.287 . S
C652 C651 1.287 . S
C652 C653 1.524 . S
C652 H671 0.913 . S
C653 H629 0.950 . S
C653 C652 1.524 . S
C653 C654 1.415 . S
C654 H630 0.950 . S
C654 C649 1.363 . S
C654 C653 1.415 . S
C655 H631 0.951 . S
C655 C656 1.366 . S
C655 C657 1.388 . S
C656 C655 1.366 . S
C656 C660 1.385 . S
C657 H632 0.951 . S
C657 C655 1.388 . S
C657 C658 1.366 . S
C658 C657 1.366 . S
C658 C659 1.414 . S
C658 C661 1.499 . S
C659 H633 0.950 . S
C659 C658 1.414 . S
C659 C660 1.374 . S
C660 H634 0.950 . S
C660 C656 1.385 . S
C660 C659 1.374 . S
C661 C658 1.499 . S
C661 C662 1.373 . S
C661 C663 1.389 . S
C662 H635 0.950 . S
C662 C648 1.377 . S
C662 C661 1.373 . S
C663 C647 1.377 . S
C663 C661 1.389 . S
C663 C664 1.524 . S
C664 C663 1.524 . S
C664 C665 1.397 . S
C664 C669 1.363 . S
C665 H636 0.950 . S
C665 C664 1.397 . S
C665 C666 1.334 . S
C666 H637 0.950 . S
C666 C665 1.334 . S
C666 C667 1.287 . S
C667 C666 1.287 . S
C667 C668 1.524 . S
C667 H670 0.999 . S
C668 H638 0.950 . S
C668 C667 1.524 . S
C668 C669 1.415 . S
C669 H639 0.950 . S
C669 C664 1.363 . S
C669 C668 1.415 . S
H670 C667 0.999 . S
H671 C652 0.913 . S
H672 C690 0.951 . S
H673 C692 0.951 . S
H674 C694 0.950 . S
H675 C695 0.950 . S
H676 C697 0.950 . S
H677 C700 0.950 . S
H678 C701 0.950 . S
H679 C703 0.950 . S
H680 C704 0.950 . S
H681 C705 0.951 . S
H682 C707 0.951 . S
H683 C709 0.950 . S
H684 C710 0.950 . S
H685 C712 0.950 . S
H686 C715 0.950 . S
H687 C716 0.950 . S
H688 C718 0.950 . S
H689 C719 0.950 . S
C690 H672 0.951 . S
C690 C691 1.366 . S
C690 C692 1.388 . S
C691 C690 1.366 . S
C691 C695 1.385 . S
C692 H673 0.951 . S
C692 C690 1.388 . S
C692 C693 1.366 . S
C693 C692 1.366 . S
C693 C694 1.414 . S
C693 C696 1.499 . S
C694 H674 0.950 . S
C694 C693 1.414 . S
C694 C695 1.374 . S
C695 H675 0.950 . S
C695 C691 1.385 . S
C695 C694 1.374 . S
C696 C693 1.499 . S
C696 C697 1.373 . S
C696 C698 1.389 . S
C697 H676 0.950 . S
C697 C696 1.373 . S
C697 C713 1.377 . S
C698 C696 1.389 . S
C698 C699 1.524 . S
C698 C712 1.377 . S
C699 C698 1.524 . S
C699 C700 1.397 . S
C699 C704 1.363 . S
C700 H677 0.950 . S
C700 C699 1.397 . S
C700 C701 1.334 . S
C701 H678 0.950 . S
C701 C700 1.334 . S
C701 C702 1.287 . S
C702 C701 1.287 . S
C702 C703 1.524 . S
C702 H721 0.913 . S
C703 H679 0.950 . S
C703 C702 1.524 . S
C703 C704 1.415 . S
C704 H680 0.950 . S
C704 C699 1.363 . S
C704 C703 1.415 . S
C705 H681 0.951 . S
C705 C706 1.366 . S
C705 C707 1.388 . S
C706 C705 1.366 . S
C706 C710 1.385 . S
C707 H682 0.951 . S
C707 C705 1.388 . S
C707 C708 1.366 . S
C708 C707 1.366 . S
C708 C709 1.414 . S
C708 C711 1.499 . S
C709 H683 0.950 . S
C709 C708 1.414 . S
C709 C710 1.374 . S
C710 H684 0.950 . S
C710 C706 1.385 . S
C710 C709 1.374 . S
C711 C708 1.499 . S
C711 C712 1.373 . S
C711 C713 1.389 . S
C712 H685 0.950 . S
C712 C698 1.377 . S
C712 C711 1.373 . S
C713 C697 1.377 . S
C713 C711 1.389 . S
C713 C714 1.524 . S
C714 C713 1.524 . S
C714 C715 1.397 . S
C714 C719 1.363 . S
C715 H686 0.950 . S
C715 C714 1.397 . S
C715 C716 1.334 . S
C716 H687 0.950 . S
C716 C715 1.334 . S
C716 C717 1.287 . S
C717 C716 1.287 . S
C717 C718 1.524 . S
C717 H720 0.999 . S
C718 H688 0.950 . S
C718 C717 1.524 . S
C718 C719 1.415 . S
C719 H689 0.950 . S
C719 C714 1.363 . S
C719 C718 1.415 . S
H720 C717 0.999 . S
H721 C702 0.913 . S
H722 C740 0.951 . S
H723 C742 0.951 . S
H724 C744 0.950 . S
H725 C745 0.950 . S
H726 C747 0.950 . S
H727 C750 0.950 . S
H728 C751 0.950 . S
H729 C753 0.950 . S
H730 C754 0.950 . S
H731 C755 0.951 . S
H732 C757 0.951 . S
H733 C759 0.950 . S
H734 C760 0.950 . S
H735 C762 0.950 . S
H736 C765 0.950 . S
H737 C766 0.950 . S
H738 C768 0.950 . S
H739 C769 0.950 . S
C740 H722 0.951 . S
C740 C741 1.366 . S
C740 C742 1.388 . S
C741 C740 1.366 . S
C741 C745 1.385 . S
C742 H723 0.951 . S
C742 C740 1.388 . S
C742 C743 1.366 . S
C743 C742 1.366 . S
C743 C744 1.414 . S
C743 C746 1.499 . S
C744 H724 0.950 . S
C744 C743 1.414 . S
C744 C745 1.374 . S
C745 H725 0.950 . S
C745 C741 1.385 . S
C745 C744 1.374 . S
C746 C743 1.499 . S
C746 C747 1.373 . S
C746 C748 1.389 . S
C747 H726 0.950 . S
C747 C746 1.373 . S
C747 C763 1.377 . S
C748 C746 1.389 . S
C748 C749 1.524 . S
C748 C762 1.377 . S
C749 C748 1.524 . S
C749 C750 1.397 . S
C749 C754 1.363 . S
C750 H727 0.950 . S
C750 C749 1.397 . S
C750 C751 1.334 . S
C751 H728 0.950 . S
C751 C750 1.334 . S
C751 C752 1.287 . S
C752 C751 1.287 . S
C752 C753 1.524 . S
C752 H771 0.913 . S
C753 H729 0.950 . S
C753 C752 1.524 . S
C753 C754 1.415 . S
C754 H730 0.950 . S
C754 C749 1.363 . S
C754 C753 1.415 . S
C755 H731 0.951 . S
C755 C756 1.366 . S
C755 C757 1.388 . S
C756 C755 1.366 . S
C756 C760 1.385 . S
C757 H732 0.951 . S
C757 C755 1.388 . S
C757 C758 1.366 . S
C758 C757 1.366 . S
C758 C759 1.414 . S
C758 C761 1.499 . S
C759 H733 0.950 . S
C759 C758 1.414 . S
C759 C760 1.374 . S
C760 H734 0.950 . S
C760 C756 1.385 . S
C760 C759 1.374 . S
C761 C758 1.499 . S
C761 C762 1.373 . S
C761 C763 1.389 . S
C762 H735 0.950 . S
C762 C748 1.377 . S
C762 C761 1.373 . S
C763 C747 1.377 . S
C763 C761 1.389 . S
C763 C764 1.524 . S
C764 C763 1.524 . S
C764 C765 1.397 . S
C764 C769 1.363 . S
C765 H736 0.950 . S
C765 C764 1.397 . S
C765 C766 1.334 . S
C766 H737 0.950 . S
C766 C765 1.334 . S
C766 C767 1.287 . S
C767 C766 1.287 . S
C767 C768 1.524 . S
C767 H770 0.999 . S
C768 H738 0.950 . S
C768 C767 1.524 . S
C768 C769 1.415 . S
C769 H739 0.950 . S
C769 C764 1.363 . S
C769 C768 1.415 . S
H770 C767 0.999 . S
H771 C752 0.913 . S
H772 C790 0.951 . S
H773 C792 0.951 . S
H774 C794 0.950 . S
H775 C795 0.950 . S
H776 C797 0.950 . S
H777 C800 0.950 . S
H778 C801 0.950 . S
H779 C803 0.950 . S
H780 C804 0.950 . S
H781 C805 0.951 . S
H782 C807 0.951 . S
H783 C809 0.950 . S
H784 C810 0.950 . S
H785 C812 0.950 . S
H786 C815 0.950 . S
H787 C816 0.950 . S
H788 C818 0.950 . S
H789 C819 0.950 . S
C790 H772 0.951 . S
C790 C791 1.366 . S
C790 C792 1.388 . S
C791 C790 1.366 . S
C791 C795 1.385 . S
C792 H773 0.951 . S
C792 C790 1.388 . S
C792 C793 1.366 . S
C793 C792 1.366 . S
C793 C794 1.414 . S
C793 C796 1.499 . S
C794 H774 0.950 . S
C794 C793 1.414 . S
C794 C795 1.374 . S
C795 H775 0.950 . S
C795 C791 1.385 . S
C795 C794 1.374 . S
C796 C793 1.499 . S
C796 C797 1.373 . S
C796 C798 1.389 . S
C797 H776 0.950 . S
C797 C796 1.373 . S
C797 C813 1.377 . S
C798 C796 1.389 . S
C798 C799 1.524 . S
C798 C812 1.377 . S
C799 C798 1.524 . S
C799 C800 1.397 . S
C799 C804 1.363 . S
C800 H777 0.950 . S
C800 C799 1.397 . S
C800 C801 1.334 . S
C801 H778 0.950 . S
C801 C800 1.334 . S
C801 C802 1.287 . S
C802 C801 1.287 . S
C802 C803 1.524 . S
C802 H821 0.913 . S
C803 H779 0.950 . S
C803 C802 1.524 . S
C803 C804 1.415 . S
C804 H780 0.950 . S
C804 C799 1.363 . S
C804 C803 1.415 . S
C805 H781 0.951 . S
C805 C806 1.366 . S
C805 C807 1.388 . S
C806 C805 1.366 . S
C806 C810 1.385 . S
C807 H782 0.951 . S
C807 C805 1.388 . S
C807 C808 1.366 . S
C808 C807 1.366 . S
C808 C809 1.414 . S
C808 C811 1.499 . S
C809 H783 0.950 . S
C809 C808 1.414 . S
C809 C810 1.374 . S
C810 H784 0.950 . S
C810 C806 1.385 . S
C810 C809 1.374 . S
C811 C808 1.499 . S
C811 C812 1.373 . S
C811 C813 1.389 . S
C812 H785 0.950 . S
C812 C798 1.377 . S
C812 C811 1.373 . S
C813 C797 1.377 . S
C813 C811 1.389 . S
C813 C814 1.524 . S
C814 C813 1.524 . S
C814 C815 1.397 . S
C814 C819 1.363 . S
C815 H786 0.950 . S
C815 C814 1.397 . S
C815 C816 1.334 . S
C816 H787 0.950 . S
C816 C815 1.334 . S
C816 C817 1.287 . S
C817 C816 1.287 . S
C817 C818 1.524 . S
C817 H820 0.999 . S
C818 H788 0.950 . S
C818 C817 1.524 . S
C818 C819 1.415 . S
C819 H789 0.950 . S
C819 C814 1.363 . S
C819 C818 1.415 . S
H820 C817 0.999 . S
H821 C802 0.913 . S
H822 C840 0.951 . S
H823 C842 0.951 . S
H824 C844 0.950 . S
H825 C845 0.950 . S
H826 C847 0.950 . S
H827 C850 0.950 . S
H828 C851 0.950 . S
H829 C853 0.950 . S
H830 C854 0.950 . S
H831 C855 0.951 . S
H832 C857 0.951 . S
H833 C859 0.950 . S
H834 C860 0.950 . S
H835 C862 0.950 . S
H836 C865 0.950 . S
H837 C866 0.950 . S
H838 C868 0.950 . S
H839 C869 0.950 . S
C840 H822 0.951 . S
C840 C841 1.366 . S
C840 C842 1.388 . S
C841 C840 1.366 . S
C841 C845 1.385 . S
C842 H823 0.951 . S
C842 C840 1.388 . S
C842 C843 1.366 . S
C843 C842 1.366 . S
C843 C844 1.414 . S
C843 C846 1.499 . S
C844 H824 0.950 . S
C844 C843 1.414 . S
C844 C845 1.374 . S
C845 H825 0.950 . S
C845 C841 1.385 . S
C845 C844 1.374 . S
C846 C843 1.499 . S
C846 C847 1.373 . S
C846 C848 1.389 . S
C847 H826 0.950 . S
C847 C846 1.373 . S
C847 C863 1.377 . S
C848 C846 1.389 . S
C848 C849 1.524 . S
C848 C862 1.377 . S
C849 C848 1.524 . S
C849 C850 1.397 . S
C849 C854 1.363 . S
C850 H827 0.950 . S
C850 C849 1.397 . S
C850 C851 1.334 . S
C851 H828 0.950 . S
C851 C850 1.334 . S
C851 C852 1.287 . S
C852 C851 1.287 . S
C852 C853 1.524 . S
C852 H871 0.913 . S
C853 H829 0.950 . S
C853 C852 1.524 . S
C853 C854 1.415 . S
C854 H830 0.950 . S
C854 C849 1.363 . S
C854 C853 1.415 . S
C855 H831 0.951 . S
C855 C856 1.366 . S
C855 C857 1.388 . S
C856 C855 1.366 . S
C856 C860 1.385 . S
C857 H832 0.951 . S
C857 C855 1.388 . S
C857 C858 1.366 . S
C858 C857 1.366 . S
C858 C859 1.414 . S
C858 C861 1.499 . S
C859 H833 0.950 . S
C859 C858 1.414 . S
C859 C860 1.374 . S
C860 H834 0.950 . S
C860 C856 1.385 . S
C860 C859 1.374 . S
C861 C858 1.499 . S
C861 C862 1.373 . S
C861 C863 1.389 . S
C862 H835 0.950 . S
C862 C848 1.377 . S
C862 C861 1.373 . S
C863 C847 1.377 . S
C863 C861 1.389 . S
C863 C864 1.524 . S
C864 C863 1.524 . S
C864 C865 1.397 . S
C864 C869 1.363 . S
C865 H836 0.950 . S
C865 C864 1.397 . S
C865 C866 1.334 . S
C866 H837 0.950 . S
C866 C865 1.334 . S
C866 C867 1.287 . S
C867 C866 1.287 . S
C867 C868 1.524 . S
C867 H870 0.999 . S
C868 H838 0.950 . S
C868 C867 1.524 . S
C868 C869 1.415 . S
C869 H839 0.950 . S
C869 C864 1.363 . S
C869 C868 1.415 . S
H870 C867 0.999 . S
H871 C852 0.913 . S
H872 C890 0.951 . S
H873 C892 0.951 . S
H874 C894 0.950 . S
H875 C895 0.950 . S
H876 C897 0.950 . S
H877 C900 0.950 . S
H878 C901 0.950 . S
H879 C903 0.950 . S
H880 C904 0.950 . S
H881 C905 0.951 . S
H882 C907 0.951 . S
H883 C909 0.950 . S
H884 C910 0.950 . S
H885 C912 0.950 . S
H886 C915 0.950 . S
H887 C916 0.950 . S
H888 C918 0.950 . S
H889 C919 0.950 . S
C890 H872 0.951 . S
C890 C891 1.366 1_556 S
C890 C892 1.388 . S
C891 C890 1.366 1_554 S
C891 C895 1.385 . S
C892 H873 0.951 . S
C892 C890 1.388 . S
C892 C893 1.366 1_556 S
C893 C892 1.366 1_554 S
C893 C894 1.414 . S
C893 C896 1.499 . S
C894 H874 0.950 . S
C894 C893 1.414 . S
C894 C895 1.374 . S
C895 H875 0.950 . S
C895 C891 1.385 . S
C895 C894 1.374 . S
C896 C893 1.499 . S
C896 C897 1.373 . S
C896 C898 1.389 1_554 S
C897 H876 0.950 . S
C897 C896 1.373 . S
C897 C913 1.377 . S
C898 C896 1.389 1_556 S
C898 C899 1.524 . S
C898 C912 1.377 . S
C899 C898 1.524 . S
C899 C900 1.397 . S
C899 C904 1.363 . S
C900 H877 0.950 . S
C900 C899 1.397 . S
C900 C901 1.334 . S
C901 H878 0.950 . S
C901 C900 1.334 . S
C901 C902 1.287 . S
C902 C901 1.287 . S
C902 C903 1.524 . S
C902 H921 0.913 . S
C903 H879 0.950 . S
C903 C902 1.524 . S
C903 C904 1.415 . S
C904 H880 0.950 . S
C904 C899 1.363 . S
C904 C903 1.415 . S
C905 H881 0.951 . S
C905 C906 1.366 1_554 S
C905 C907 1.388 . S
C906 C905 1.366 1_556 S
C906 C910 1.385 . S
C907 H882 0.951 . S
C907 C905 1.388 . S
C907 C908 1.366 1_554 S
C908 C907 1.366 1_556 S
C908 C909 1.414 . S
C908 C911 1.499 . S
C909 H883 0.950 . S
C909 C908 1.414 . S
C909 C910 1.374 . S
C910 H884 0.950 . S
C910 C906 1.385 . S
C910 C909 1.374 . S
C911 C908 1.499 . S
C911 C912 1.373 . S
C911 C913 1.389 1_556 S
C912 H885 0.950 . S
C912 C898 1.377 . S
C912 C911 1.373 . S
C913 C897 1.377 . S
C913 C911 1.389 1_554 S
C913 C914 1.524 . S
C914 C913 1.524 . S
C914 C915 1.397 . S
C914 C919 1.363 . S
C915 H886 0.950 . S
C915 C914 1.397 . S
C915 C916 1.334 . S
C916 H887 0.950 . S
C916 C915 1.334 . S
C916 C917 1.287 . S
C917 C916 1.287 . S
C917 C918 1.524 . S
C917 H920 0.999 . S
C918 H888 0.950 . S
C918 C917 1.524 . S
C918 C919 1.415 . S
C919 H889 0.950 . S
C919 C914 1.363 . S
C919 C918 1.415 . S
H920 C917 0.999 . S
H921 C902 0.913 . S
H922 C940 0.951 . S
H923 C942 0.951 . S
H924 C944 0.950 . S
H925 C945 0.950 . S
H926 C947 0.950 . S
H927 C950 0.950 . S
H928 C951 0.950 . S
H929 C953 0.950 . S
H930 C954 0.950 . S
H931 C955 0.951 . S
H932 C957 0.951 . S
H933 C959 0.950 . S
H934 C960 0.950 . S
H935 C962 0.950 . S
H936 C965 0.950 . S
H937 C966 0.950 . S
H938 C968 0.950 . S
H939 C969 0.950 . S
C940 H922 0.951 . S
C940 C941 1.366 . S
C940 C942 1.388 . S
C941 C940 1.366 . S
C941 C945 1.385 1_554 S
C942 H923 0.951 . S
C942 C940 1.388 . S
C942 C943 1.366 . S
C943 C942 1.366 . S
C943 C944 1.414 1_554 S
C943 C946 1.499 . S
C944 H924 0.950 . S
C944 C943 1.414 1_556 S
C944 C945 1.374 . S
C945 H925 0.950 . S
C945 C941 1.385 1_556 S
C945 C944 1.374 . S
C946 C943 1.499 . S
C946 C947 1.373 1_554 S
C946 C948 1.389 . S
C947 H926 0.950 . S
C947 C946 1.373 1_556 S
C947 C963 1.377 . S
C948 C946 1.389 . S
C948 C949 1.524 . S
C948 C962 1.377 . S
C949 C948 1.524 . S
C949 C950 1.397 . S
C949 C954 1.363 . S
C950 H927 0.950 . S
C950 C949 1.397 . S
C950 C951 1.334 . S
C951 H928 0.950 . S
C951 C950 1.334 . S
C951 C952 1.287 . S
C952 C951 1.287 . S
C952 C953 1.524 . S
C952 H971 0.913 . S
C953 H929 0.950 . S
C953 C952 1.524 . S
C953 C954 1.415 . S
C954 H930 0.950 . S
C954 C949 1.363 . S
C954 C953 1.415 . S
C955 H931 0.951 . S
C955 C956 1.366 . S
C955 C957 1.388 . S
C956 C955 1.366 . S
C956 C960 1.385 1_556 S
C957 H932 0.951 . S
C957 C955 1.388 . S
C957 C958 1.366 . S
C958 C957 1.366 . S
C958 C959 1.414 1_556 S
C958 C961 1.500 . S
C959 H933 0.950 . S
C959 C958 1.414 1_554 S
C959 C960 1.374 . S
C960 H934 0.950 . S
C960 C956 1.385 1_554 S
C960 C959 1.374 . S
C961 C958 1.500 . S
C961 C962 1.366 1_556 S
C961 C963 1.396 . S
C962 H935 0.950 . S
C962 C948 1.377 . S
C962 C961 1.366 1_554 S
C963 C947 1.377 . S
C963 C961 1.396 . S
C963 C964 1.524 . S
C964 C963 1.524 . S
C964 C965 1.397 . S
C964 C969 1.363 . S
C965 H936 0.950 . S
C965 C964 1.397 . S
C965 C966 1.334 . S
C966 H937 0.950 . S
C966 C965 1.334 . S
C966 C967 1.287 . S
C967 C966 1.287 . S
C967 C968 1.524 . S
C967 H970 0.999 . S
C968 H938 0.950 . S
C968 C967 1.524 . S
C968 C969 1.415 . S
C969 H939 0.950 . S
C969 C964 1.363 . S
C969 C968 1.415 . S
H970 C967 0.999 . S
H971 C952 0.913 . S
H972 C990 0.951 . S
H973 C992 0.951 . S
H974 C994 0.950 . S
H975 C995 0.950 . S
H976 C997 0.950 . S
H977 C1000 0.950 . S
H978 C1001 0.950 . S
H979 C1003 0.950 . S
H980 C1004 0.950 . S
H981 C1005 0.951 . S
H982 C1007 0.951 . S
H983 C1009 0.950 . S
H984 C1010 0.950 . S
H985 C1012 0.950 . S
H986 C1015 0.950 . S
H987 C1016 0.950 . S
H988 C1018 0.950 . S
H989 C1019 0.950 . S
C990 H972 0.951 . S
C990 C991 1.366 1_556 S
C990 C992 1.388 . S
C991 C990 1.366 1_554 S
C991 C995 1.385 . S
C992 H973 0.951 . S
C992 C990 1.388 . S
C992 C993 1.366 1_556 S
C993 C992 1.366 1_554 S
C993 C994 1.414 . S
C993 C996 1.499 . S
C994 H974 0.950 . S
C994 C993 1.414 . S
C994 C995 1.374 . S
C995 H975 0.950 . S
C995 C991 1.385 . S
C995 C994 1.374 . S
C996 C993 1.499 . S
C996 C997 1.373 . S
C996 C998 1.389 1_554 S
C997 H976 0.950 . S
C997 C996 1.373 . S
C997 C1013 1.377 . S
C998 C996 1.389 1_556 S
C998 C999 1.524 . S
C998 C1012 1.377 . S
C999 C998 1.524 . S
C999 C1000 1.397 1_556 S
C999 C1004 1.363 . S
C1000 H977 0.950 . S
C1000 C999 1.397 1_554 S
C1000 C1001 1.334 . S
C1001 H978 0.950 . S
C1001 C1000 1.334 . S
C1001 C1002 1.287 1_554 S
C1002 C1001 1.287 1_556 S
C1002 C1003 1.524 . S
C1002 H1021 0.913 . S
C1003 H979 0.950 . S
C1003 C1002 1.524 . S
C1003 C1004 1.415 . S
C1004 H980 0.950 . S
C1004 C999 1.363 . S
C1004 C1003 1.415 . S
C1005 H981 0.951 . S
C1005 C1006 1.366 1_554 S
C1005 C1007 1.388 . S
C1006 C1005 1.366 1_556 S
C1006 C1010 1.385 . S
C1007 H982 0.951 . S
C1007 C1005 1.388 . S
C1007 C1008 1.366 1_554 S
C1008 C1007 1.366 1_556 S
C1008 C1009 1.414 . S
C1008 C1011 1.499 . S
C1009 H983 0.950 . S
C1009 C1008 1.414 . S
C1009 C1010 1.374 . S
C1010 H984 0.950 . S
C1010 C1006 1.385 . S
C1010 C1009 1.374 . S
C1011 C1008 1.499 . S
C1011 C1012 1.373 . S
C1011 C1013 1.389 1_556 S
C1012 H985 0.950 . S
C1012 C998 1.377 . S
C1012 C1011 1.373 . S
C1013 C997 1.377 . S
C1013 C1011 1.389 1_554 S
C1013 C1014 1.524 . S
C1014 C1013 1.524 . S
C1014 C1015 1.397 1_554 S
C1014 C1019 1.363 . S
C1015 H986 0.950 . S
C1015 C1014 1.397 1_556 S
C1015 C1016 1.334 . S
C1016 H987 0.950 . S
C1016 C1015 1.334 . S
C1016 C1017 1.287 1_556 S
C1017 C1016 1.287 1_554 S
C1017 C1018 1.524 . S
C1017 H1020 0.999 . S
C1018 H988 0.950 . S
C1018 C1017 1.524 . S
C1018 C1019 1.415 . S
C1019 H989 0.950 . S
C1019 C1014 1.363 . S
C1019 C1018 1.415 . S
H1020 C1017 0.999 . S
H1021 C1002 0.913 . S
H1022 C1040 0.951 . S
H1023 C1042 0.951 . S
H1024 C1044 0.950 . S
H1025 C1045 0.950 . S
H1026 C1047 0.950 . S
H1027 C1050 0.950 . S
H1028 C1051 0.950 . S
H1029 C1053 0.950 . S
H1030 C1054 0.950 . S
H1031 C1055 0.951 . S
H1032 C1057 0.951 . S
H1033 C1059 0.950 . S
H1034 C1060 0.950 . S
H1035 C1062 0.950 . S
H1036 C1065 0.950 . S
H1037 C1066 0.950 . S
H1038 C1068 0.950 . S
H1039 C1069 0.950 . S
C1040 H1022 0.951 . S
C1040 C1041 1.366 . S
C1040 C1042 1.388 . S
C1041 C1040 1.366 . S
C1041 C1045 1.385 1_556 S
C1042 H1023 0.951 . S
C1042 C1040 1.388 . S
C1042 C1043 1.366 . S
C1043 C1042 1.366 . S
C1043 C1044 1.414 1_556 S
C1043 C1046 1.502 . S
C1044 H1024 0.950 . S
C1044 C1043 1.414 1_554 S
C1044 C1045 1.374 . S
C1045 H1025 0.950 . S
C1045 C1041 1.385 1_554 S
C1045 C1044 1.374 . S
C1046 C1043 1.502 . S
C1046 C1047 1.354 1_556 S
C1046 C1048 1.406 . S
C1047 H1026 0.950 . S
C1047 C1046 1.354 1_554 S
C1047 C1063 1.377 . S
C1048 C1046 1.406 . S
C1048 C1049 1.524 . S
C1048 C1062 1.377 . S
C1049 C1048 1.524 . S
C1049 C1050 1.397 . S
C1049 C1054 1.363 . S
C1050 H1027 0.950 . S
C1050 C1049 1.397 . S
C1050 C1051 1.334 . S
C1051 H1028 0.950 . S
C1051 C1050 1.334 . S
C1051 C1052 1.287 . S
C1052 C1051 1.287 . S
C1052 C1053 1.524 . S
C1052 H1071 0.913 . S
C1053 H1029 0.950 . S
C1053 C1052 1.524 . S
C1053 C1054 1.415 . S
C1054 H1030 0.950 . S
C1054 C1049 1.363 . S
C1054 C1053 1.415 . S
C1055 H1031 0.951 . S
C1055 C1056 1.366 . S
C1055 C1057 1.388 . S
C1056 C1055 1.366 . S
C1056 C1060 1.385 1_554 S
C1057 H1032 0.951 . S
C1057 C1055 1.388 . S
C1057 C1058 1.366 . S
C1058 C1057 1.366 . S
C1058 C1059 1.414 1_554 S
C1058 C1061 1.499 . S
C1059 H1033 0.950 . S
C1059 C1058 1.414 1_556 S
C1059 C1060 1.374 . S
C1060 H1034 0.950 . S
C1060 C1056 1.385 1_556 S
C1060 C1059 1.374 . S
C1061 C1058 1.499 . S
C1061 C1062 1.373 1_554 S
C1061 C1063 1.389 . S
C1062 H1035 0.950 . S
C1062 C1048 1.377 . S
C1062 C1061 1.373 1_556 S
C1063 C1047 1.377 . S
C1063 C1061 1.389 . S
C1063 C1064 1.524 . S
C1064 C1063 1.524 . S
C1064 C1065 1.397 . S
C1064 C1069 1.363 . S
C1065 H1036 0.950 . S
C1065 C1064 1.397 . S
C1065 C1066 1.334 . S
C1066 H1037 0.950 . S
C1066 C1065 1.334 . S
C1066 C1067 1.287 . S
C1067 C1066 1.287 . S
C1067 C1068 1.524 . S
C1067 H1070 0.999 . S
C1068 H1038 0.950 . S
C1068 C1067 1.524 . S
C1068 C1069 1.415 . S
C1069 H1039 0.950 . S
C1069 C1064 1.363 . S
C1069 C1068 1.415 . S
H1070 C1067 0.999 . S
H1071 C1052 0.913 . S
H1072 C1090 0.951 . S
H1073 C1092 0.951 . S
H1074 C1094 0.950 . S
H1075 C1095 0.950 . S
H1076 C1097 0.950 . S
H1077 C1100 0.950 . S
H1078 C1101 0.950 . S
H1079 C1103 0.950 . S
H1080 C1104 0.950 . S
H1081 C1105 0.951 . S
H1082 C1107 0.951 . S
H1083 C1109 0.950 . S
H1084 C1110 0.950 . S
H1085 C1112 0.950 . S
H1086 C1115 0.950 . S
H1087 C1116 0.950 . S
H1088 C1118 0.950 . S
H1089 C1119 0.950 . S
C1090 H1072 0.951 . S
C1090 C1091 1.366 . S
C1090 C1092 1.388 . S
C1091 C1090 1.366 . S
C1091 C1095 1.385 . S
C1092 H1073 0.951 . S
C1092 C1090 1.388 . S
C1092 C1093 1.366 . S
C1093 C1092 1.366 . S
C1093 C1094 1.414 . S
C1093 C1096 1.499 . S
C1094 H1074 0.950 . S
C1094 C1093 1.414 . S
C1094 C1095 1.374 . S
C1095 H1075 0.950 . S
C1095 C1091 1.385 . S
C1095 C1094 1.374 . S
C1096 C1093 1.499 . S
C1096 C1097 1.373 1_655 S
C1096 C1098 1.389 . S
C1097 H1076 0.950 . S
C1097 C1096 1.373 1_455 S
C1097 C1113 1.377 . S
C1098 C1096 1.389 . S
C1098 C1099 1.524 . S
C1098 C1112 1.377 . S
C1099 C1098 1.524 . S
C1099 C1100 1.397 . S
C1099 C1104 1.363 . S
C1100 H1077 0.950 . S
C1100 C1099 1.397 . S
C1100 C1101 1.334 . S
C1101 H1078 0.950 . S
C1101 C1100 1.334 . S
C1101 C1102 1.287 . S
C1102 C1101 1.287 . S
C1102 C1103 1.524 . S
C1102 H1121 0.913 . S
C1103 H1079 0.950 . S
C1103 C1102 1.524 . S
C1103 C1104 1.415 . S
C1104 H1080 0.950 . S
C1104 C1099 1.363 . S
C1104 C1103 1.415 . S
C1105 H1081 0.951 . S
C1105 C1106 1.366 . S
C1105 C1107 1.388 . S
C1106 C1105 1.366 . S
C1106 C1110 1.385 . S
C1107 H1082 0.951 . S
C1107 C1105 1.388 . S
C1107 C1108 1.366 . S
C1108 C1107 1.366 . S
C1108 C1109 1.414 . S
C1108 C1111 1.499 . S
C1109 H1083 0.950 . S
C1109 C1108 1.414 . S
C1109 C1110 1.374 . S
C1110 H1084 0.950 . S
C1110 C1106 1.385 . S
C1110 C1109 1.374 . S
C1111 C1108 1.499 . S
C1111 C1112 1.373 1_455 S
C1111 C1113 1.389 . S
C1112 H1085 0.950 . S
C1112 C1098 1.377 . S
C1112 C1111 1.373 1_655 S
C1113 C1097 1.377 . S
C1113 C1111 1.389 . S
C1113 C1114 1.524 . S
C1114 C1113 1.524 . S
C1114 C1115 1.397 . S
C1114 C1119 1.363 . S
C1115 H1086 0.950 . S
C1115 C1114 1.397 . S
C1115 C1116 1.334 . S
C1116 H1087 0.950 . S
C1116 C1115 1.334 . S
C1116 C1117 1.287 . S
C1117 C1116 1.287 . S
C1117 C1118 1.524 . S
C1117 H1120 0.999 . S
C1118 H1088 0.950 . S
C1118 C1117 1.524 . S
C1118 C1119 1.415 . S
C1119 H1089 0.950 . S
C1119 C1114 1.363 . S
C1119 C1118 1.415 . S
H1120 C1117 0.999 . S
H1121 C1102 0.913 . S
H1122 C1140 0.951 . S
H1123 C1142 0.951 . S
H1124 C1144 0.950 1_565 S
H1125 C1145 0.950 . S
H1126 C1147 0.950 . S
H1127 C1150 0.950 . S
H1128 C1151 0.950 . S
H1129 C1153 0.950 . S
H1130 C1154 0.950 . S
H1131 C1155 0.951 . S
H1132 C1157 0.951 . S
H1133 C1159 0.950 1_545 S
H1134 C1160 0.950 . S
H1135 C1162 0.950 . S
H1136 C1165 0.950 . S
H1137 C1166 0.950 . S
H1138 C1168 0.950 . S
H1139 C1169 0.950 . S
C1140 H1122 0.951 . S
C1140 C1141 1.366 . S
C1140 C1142 1.388 . S
C1141 C1140 1.366 . S
C1141 C1145 1.385 . S
C1142 H1123 0.951 . S
C1142 C1140 1.388 . S
C1142 C1143 1.366 . S
C1143 C1142 1.366 . S
C1143 C1144 1.414 . S
C1143 C1146 1.499 . S
C1144 H1124 0.950 1_545 S
C1144 C1143 1.414 . S
C1144 C1145 1.374 . S
C1145 H1125 0.950 . S
C1145 C1141 1.385 . S
C1145 C1144 1.374 . S
C1146 C1143 1.499 . S
C1146 C1147 1.373 1_545 S
C1146 C1148 1.389 . S
C1147 H1126 0.950 . S
C1147 C1146 1.373 1_565 S
C1147 C1163 1.377 . S
C1148 C1146 1.389 . S
C1148 C1149 1.524 . S
C1148 C1162 1.377 . S
C1149 C1148 1.524 . S
C1149 C1150 1.397 . S
C1149 C1154 1.363 . S
C1150 H1127 0.950 . S
C1150 C1149 1.397 . S
C1150 C1151 1.334 . S
C1151 H1128 0.950 . S
C1151 C1150 1.334 . S
C1151 C1152 1.287 . S
C1152 C1151 1.287 . S
C1152 C1153 1.524 . S
C1152 H1171 0.913 . S
C1153 H1129 0.950 . S
C1153 C1152 1.524 . S
C1153 C1154 1.415 . S
C1154 H1130 0.950 . S
C1154 C1149 1.363 . S
C1154 C1153 1.415 . S
C1155 H1131 0.951 . S
C1155 C1156 1.366 . S
C1155 C1157 1.388 . S
C1156 C1155 1.366 . S
C1156 C1160 1.385 . S
C1157 H1132 0.951 . S
C1157 C1155 1.388 . S
C1157 C1158 1.366 . S
C1158 C1157 1.366 . S
C1158 C1159 1.414 . S
C1158 C1161 1.499 . S
C1159 H1133 0.950 1_565 S
C1159 C1158 1.414 . S
C1159 C1160 1.374 . S
C1160 H1134 0.950 . S
C1160 C1156 1.385 . S
C1160 C1159 1.374 . S
C1161 C1158 1.499 . S
C1161 C1162 1.373 1_565 S
C1161 C1163 1.389 . S
C1162 H1135 0.950 . S
C1162 C1148 1.377 . S
C1162 C1161 1.373 1_545 S
C1163 C1147 1.377 . S
C1163 C1161 1.389 . S
C1163 C1164 1.524 . S
C1164 C1163 1.524 . S
C1164 C1165 1.397 . S
C1164 C1169 1.363 . S
C1165 H1136 0.950 . S
C1165 C1164 1.397 . S
C1165 C1166 1.334 . S
C1166 H1137 0.950 . S
C1166 C1165 1.334 . S
C1166 C1167 1.287 . S
C1167 C1166 1.287 . S
C1167 C1168 1.524 . S
C1167 H1170 0.999 . S
C1168 H1138 0.950 . S
C1168 C1167 1.524 . S
C1168 C1169 1.415 . S
C1169 H1139 0.950 . S
C1169 C1164 1.363 . S
C1169 C1168 1.415 . S
H1170 C1167 0.999 . S
H1171 C1152 0.913 . S
H1172 C1190 0.951 1_554 S
H1173 C1192 0.951 1_554 S
H1174 C1194 0.950 . S
H1175 C1195 0.950 . S
H1176 C1197 0.950 . S
H1177 C1200 0.950 . S
H1178 C1201 0.950 . S
H1179 C1203 0.950 . S
H1180 C1204 0.950 . S
H1181 C1205 0.951 . S
H1182 C1207 0.951 . S
H1183 C1209 0.950 1_554 S
H1184 C1210 0.950 1_554 S
H1185 C1212 0.950 . S
H1186 C1215 0.950 . S
H1187 C1216 0.950 . S
H1188 C1218 0.950 . S
H1189 C1219 0.950 . S
C1190 H1172 0.951 1_556 S
C1190 C1191 1.366 . S
C1190 C1192 1.388 . S
C1191 C1190 1.366 . S
C1191 C1195 1.385 . S
C1192 H1173 0.951 1_556 S
C1192 C1190 1.388 . S
C1192 C1193 1.366 . S
C1193 C1192 1.366 . S
C1193 C1194 1.414 . S
C1193 C1196 1.499 . S
C1194 H1174 0.950 . S
C1194 C1193 1.414 . S
C1194 C1195 1.374 . S
C1195 H1175 0.950 . S
C1195 C1191 1.385 . S
C1195 C1194 1.374 . S
C1196 C1193 1.499 . S
C1196 C1197 1.373 . S
C1196 C1198 1.389 . S
C1197 H1176 0.950 . S
C1197 C1196 1.373 . S
C1197 C1213 1.377 1_545 S
C1198 C1196 1.389 . S
C1198 C1199 1.524 . S
C1198 C1212 1.377 1_545 S
C1199 C1198 1.524 . S
C1199 C1200 1.397 . S
C1199 C1204 1.363 1_545 S
C1200 H1177 0.950 . S
C1200 C1199 1.397 . S
C1200 C1201 1.334 . S
C1201 H1178 0.950 . S
C1201 C1200 1.334 . S
C1201 C1202 1.287 . S
C1202 C1201 1.287 . S
C1202 C1203 1.524 1_545 S
C1202 H1221 0.913 . S
C1203 H1179 0.950 . S
C1203 C1202 1.524 1_565 S
C1203 C1204 1.415 . S
C1204 H1180 0.950 . S
C1204 C1199 1.363 1_565 S
C1204 C1203 1.415 . S
C1205 H1181 0.951 . S
C1205 C1206 1.366 . S
C1205 C1207 1.388 . S
C1206 C1205 1.366 . S
C1206 C1210 1.385 . S
C1207 H1182 0.951 . S
C1207 C1205 1.388 . S
C1207 C1208 1.366 . S
C1208 C1207 1.366 . S
C1208 C1209 1.414 . S
C1208 C1211 1.499 . S
C1209 H1183 0.950 1_556 S
C1209 C1208 1.414 . S
C1209 C1210 1.374 . S
C1210 H1184 0.950 1_556 S
C1210 C1206 1.385 . S
C1210 C1209 1.374 . S
C1211 C1208 1.499 . S
C1211 C1212 1.373 . S
C1211 C1213 1.389 . S
C1212 H1185 0.950 . S
C1212 C1198 1.377 1_565 S
C1212 C1211 1.373 . S
C1213 C1197 1.377 1_565 S
C1213 C1211 1.389 . S
C1213 C1214 1.524 . S
C1214 C1213 1.524 . S
C1214 C1215 1.397 1_556 S
C1214 C1219 1.363 1_565 S
C1215 H1186 0.950 . S
C1215 C1214 1.397 1_554 S
C1215 C1216 1.334 . S
C1216 H1187 0.950 . S
C1216 C1215 1.334 . S
C1216 C1217 1.287 . S
C1217 C1216 1.287 . S
C1217 C1218 1.524 1_564 S
C1217 H1220 0.999 . S
C1218 H1188 0.950 . S
C1218 C1217 1.524 1_546 S
C1218 C1219 1.415 . S
C1219 H1189 0.950 . S
C1219 C1214 1.363 1_545 S
C1219 C1218 1.415 . S
H1220 C1217 0.999 . S
H1221 C1202 0.913 . S
H1222 C1240 0.951 . S
H1223 C1242 0.951 . S
H1224 C1244 0.950 . S
H1225 C1245 0.950 . S
H1226 C1247 0.950 . S
H1227 C1250 0.950 . S
H1228 C1251 0.950 . S
H1229 C1253 0.950 1_554 S
H1230 C1254 0.950 . S
H1231 C1255 0.951 . S
H1232 C1257 0.951 . S
H1233 C1259 0.950 . S
H1234 C1260 0.950 . S
H1235 C1262 0.950 . S
H1236 C1265 0.950 . S
H1237 C1266 0.950 . S
H1238 C1268 0.950 . S
H1239 C1269 0.950 . S
C1240 H1222 0.951 . S
C1240 C1241 1.366 . S
C1240 C1242 1.388 . S
C1241 C1240 1.366 . S
C1241 C1245 1.385 . S
C1242 H1223 0.951 . S
C1242 C1240 1.388 . S
C1242 C1243 1.366 . S
C1243 C1242 1.366 . S
C1243 C1244 1.414 . S
C1243 C1246 1.499 . S
C1244 H1224 0.950 . S
C1244 C1243 1.414 . S
C1244 C1245 1.374 . S
C1245 H1225 0.950 . S
C1245 C1241 1.385 . S
C1245 C1244 1.374 . S
C1246 C1243 1.499 . S
C1246 C1247 1.373 . S
C1246 C1248 1.389 . S
C1247 H1226 0.950 . S
C1247 C1246 1.373 . S
C1247 C1263 1.377 1_455 S
C1248 C1246 1.389 . S
C1248 C1249 1.524 . S
C1248 C1262 1.377 1_455 S
C1249 C1248 1.524 . S
C1249 C1250 1.397 1_554 S
C1249 C1254 1.363 1_455 S
C1250 H1227 0.950 . S
C1250 C1249 1.397 1_556 S
C1250 C1251 1.334 . S
C1251 H1228 0.950 . S
C1251 C1250 1.334 . S
C1251 C1252 1.287 . S
C1252 C1251 1.287 . S
C1252 C1253 1.524 1_455 S
C1252 H1271 0.913 . S
C1253 H1229 0.950 1_556 S
C1253 C1252 1.524 1_655 S
C1253 C1254 1.415 1_556 S
C1254 H1230 0.950 . S
C1254 C1249 1.363 1_655 S
C1254 C1253 1.415 1_554 S
C1255 H1231 0.951 . S
C1255 C1256 1.366 . S
C1255 C1257 1.388 . S
C1256 C1255 1.366 . S
C1256 C1260 1.385 . S
C1257 H1232 0.951 . S
C1257 C1255 1.388 . S
C1257 C1258 1.366 . S
C1258 C1257 1.366 . S
C1258 C1259 1.414 . S
C1258 C1261 1.499 . S
C1259 H1233 0.950 . S
C1259 C1258 1.414 . S
C1259 C1260 1.374 . S
C1260 H1234 0.950 . S
C1260 C1256 1.385 . S
C1260 C1259 1.374 . S
C1261 C1258 1.499 . S
C1261 C1262 1.373 . S
C1261 C1263 1.389 . S
C1262 H1235 0.950 . S
C1262 C1248 1.377 1_655 S
C1262 C1261 1.373 . S
C1263 C1247 1.377 1_655 S
C1263 C1261 1.389 . S
C1263 C1264 1.524 . S
C1264 C1263 1.524 . S
C1264 C1265 1.397 . S
C1264 C1269 1.363 1_655 S
C1265 H1236 0.950 . S
C1265 C1264 1.397 . S
C1265 C1266 1.334 . S
C1266 H1237 0.950 . S
C1266 C1265 1.334 . S
C1266 C1267 1.287 . S
C1267 C1266 1.287 . S
C1267 C1268 1.524 1_655 S
C1267 H1270 0.999 . S
C1268 H1238 0.950 . S
C1268 C1267 1.524 1_455 S
C1268 C1269 1.415 . S
C1269 H1239 0.950 . S
C1269 C1264 1.363 1_455 S
C1269 C1268 1.415 . S
H1270 C1267 0.999 . S
H1271 C1252 0.913 . S
C491 C465 1.604 . S
C506 C33 1.608 . S
C541 C92 1.608 . S
C556 C269 1.608 . S
C591 C151 1.608 . S
C606 C347 1.604 . S
C641 C387 1.608 . S
C656 C210 1.608 . S
C691 C62 1.493 . S
C706 C5 1.485 . S
C741 C64 1.489 . S
C756 C121 1.497 . S
C791 C180 1.493 . S
C806 C123 1.485 . S
C841 C182 1.490 . S
C856 C3 1.498 . S
C891 C418 1.498 . S
C906 C241 1.485 . S
C941 C298 1.486 . S
C956 C239 1.496 . S
C991 C300 1.498 . S
C1006 C359 1.485 . S
C1041 C357 1.496 . S
C1056 C416 1.486 . S
C1091 C170 1.202 . S
C1106 C52 1.202 . S
C1141 C229 1.200 . S
C1156 C111 1.200 . S
C1191 C406 1.199 . S
C1206 C288 1.199 . S
C1241 C446 1.193 . S
C1256 C328 1.194 . S
