# Generated by pormake.
# Topology crb, (4)-cn, num edge types: 1
# Building blocks:
#     Node 0, Type 0, BuildingBlock: AZAVOO_clean_sbu_0, # of connection points: 4
#     Node 1, Type 0, BuildingBlock: AZAVOO_clean_sbu_0, # of connection points: 4
#     Node 2, Type 0, BuildingBlock: AZAVOO_clean_sbu_0, # of connection points: 4
#     Node 3, Type 0, BuildingBlock: AZAVOO_clean_sbu_0, # of connection points: 4
#     Node 4, Type 0, BuildingBlock: AZAVOO_clean_sbu_0, # of connection points: 4
#     Node 5, Type 0, BuildingBlock: AZAVOO_clean_sbu_0, # of connection points: 4
#     Node 6, Type 0, BuildingBlock: AZAVOO_clean_sbu_0, # of connection points: 4
#     Node 7, Type 0, BuildingBlock: AZAVOO_clean_sbu_0, # of connection points: 4
#     Edge 8, Type (0, 0), BuildingBlock: UVAHIK_clean_linker_0, # of connection points: 2
#     Edge 9, Type (0, 0), BuildingBlock: UVAHIK_clean_linker_0, # of connection points: 2
#     Edge 10, Type (0, 0), BuildingBlock: UVAHIK_clean_linker_0, # of connection points: 2
#     Edge 11, Type (0, 0), BuildingBlock: UVAHIK_clean_linker_0, # of connection points: 2
#     Edge 12, Type (0, 0), BuildingBlock: UVAHIK_clean_linker_0, # of connection points: 2
#     Edge 13, Type (0, 0), BuildingBlock: UVAHIK_clean_linker_0, # of connection points: 2
#     Edge 14, Type (0, 0), BuildingBlock: UVAHIK_clean_linker_0, # of connection points: 2
#     Edge 15, Type (0, 0), BuildingBlock: UVAHIK_clean_linker_0, # of connection points: 2
#     Edge 16, Type (0, 0), BuildingBlock: UVAHIK_clean_linker_0, # of connection points: 2
#     Edge 17, Type (0, 0), BuildingBlock: UVAHIK_clean_linker_0, # of connection points: 2
#     Edge 18, Type (0, 0), BuildingBlock: UVAHIK_clean_linker_0, # of connection points: 2
#     Edge 19, Type (0, 0), BuildingBlock: UVAHIK_clean_linker_0, # of connection points: 2
#     Edge 20, Type (0, 0), BuildingBlock: UVAHIK_clean_linker_0, # of connection points: 2
#     Edge 21, Type (0, 0), BuildingBlock: UVAHIK_clean_linker_0, # of connection points: 2
#     Edge 22, Type (0, 0), BuildingBlock: UVAHIK_clean_linker_0, # of connection points: 2
#     Edge 23, Type (0, 0), BuildingBlock: UVAHIK_clean_linker_0, # of connection points: 2
# Relax obj value: 0.038
# Max RMSD: 0.067
# Mean RMSD: 0.067
data_MOF--net-crb--node1-AZAVOO_clean_sbu_0--edge1-UVAHIK_clean_linker_0
_symmetry_space_group_name_H-M    P1
_symmetry_Int_Tables_number       1
_symmetry_cell_setting            triclinic
loop_
_symmetry_equiv_pos_as_xyz
'x, y, z'
_cell_length_a     58.262932
_cell_length_b     49.221919
_cell_length_c     33.196225
_cell_angle_alpha  89.644982
_cell_angle_beta   90.094894
_cell_angle_gamma 89.806962
loop_
_atom_site_label
_atom_site_type_symbol
_atom_site_fract_x
_atom_site_fract_y
_atom_site_fract_z
_atom_type_partial_charge
Mg0 Mg 0.32978 0.30547 0.93938 0.0
O1 O 0.3224 0.35144 0.93418 0.0
O2 O 0.28498 0.35592 0.92062 0.0
Mg3 Mg 0.2685 0.31419 0.91565 0.0
C4 C 0.30469 0.36621 0.92739 0.0
C5 C 0.38122 0.29872 0.95048 0.0
O6 O 0.37547 0.28066 0.92329 0.0
O7 O 0.31234 0.30417 0.00138 0.0
O8 O 0.27555 0.3071 0.98245 0.0
O9 O 0.33592 0.30159 0.87272 0.0
O10 O 0.30214 0.29702 0.90166 0.0
C11 C 0.2909 0.30428 0.00967 0.0
C12 C 0.31411 0.29728 0.86923 0.0
O13 O 0.36549 0.31347 0.96558 0.0
Mg14 Mg 0.67076 0.29782 0.07032 0.0
O15 O 0.67659 0.34399 0.06586 0.0
O16 O 0.71373 0.35136 0.07844 0.0
Mg17 Mg 0.73145 0.31116 0.09337 0.0
C18 C 0.69369 0.36 0.06927 0.0
C19 C 0.62069 0.31816 0.0574 0.0
O20 O 0.62691 0.33237 0.08894 0.0
O21 O 0.68905 0.29169 0.00968 0.0
O22 O 0.72553 0.29784 0.02861 0.0
O23 O 0.66395 0.2997 0.137 0.0
O24 O 0.6982 0.29407 0.11021 0.0
C25 C 0.71057 0.29196 0.00194 0.0
C26 C 0.68586 0.29685 0.14194 0.0
O27 O 0.6353 0.30237 0.04117 0.0
Mg28 Mg 0.67009 0.70823 0.98149 0.0
O29 O 0.67649 0.66215 -0.01122 0.0
O30 O 0.71441 0.65611 -0.00599 0.0
Mg31 Mg 0.73215 0.69718 -0.00771 0.0
C32 C 0.69404 0.64669 -0.00724 0.0
C33 C 0.61896 0.72233 0.98109 0.0
O34 O 0.62868 0.74462 0.96749 0.0
O35 O 0.67643 0.7146 0.04871 0.0
O36 O 0.71444 0.70764 0.05162 0.0
O37 O 0.67545 0.70527 0.91476 0.0
O38 O 0.70291 0.71368 0.95874 0.0
C39 C 0.69528 0.71322 0.06833 0.0
C40 C 0.697 0.70942 0.92205 0.0
O41 O 0.63166 0.70227 -0.00928 0.0
Mg42 Mg 0.32511 0.70526 0.05935 0.0
O43 O 0.31706 0.66312 0.03385 0.0
O44 O 0.27888 0.65918 0.0314 0.0
Mg45 Mg 0.26254 0.69735 0.05811 0.0
C46 C 0.299 0.64972 0.02519 0.0
C47 C 0.37333 0.72218 0.02727 0.0
O48 O 0.36276 0.74579 0.02606 0.0
O49 O 0.31407 0.72563 0.00014 0.0
O50 O 0.27589 0.72284 0.0056 0.0
O51 O 0.32492 0.68856 0.12237 0.0
O52 O 0.29438 0.70504 0.09131 0.0
C53 C 0.29386 0.7312 0.98744 0.0
C54 C 0.30308 0.69352 0.12269 0.0
O55 O 0.36227 0.70131 0.03871 0.0
Mg56 Mg 0.83286 0.78524 0.48163 0.0
O57 O 0.82608 0.83098 0.49059 0.0
O58 O 0.78813 0.83669 0.49574 0.0
Mg59 Mg 0.77061 0.7956 0.49073 0.0
C60 C 0.80849 0.8462 0.49539 0.0
C61 C 0.88536 0.79694 0.46669 0.0
O62 O 0.87803 0.80012 0.42951 0.0
O63 O 0.82571 0.77729 0.54829 0.0
O64 O 0.78764 0.78384 0.55043 0.0
O65 O 0.82795 0.78954 0.41458 0.0
O66 O 0.8003 0.78012 0.45761 0.0
C67 C 0.80673 0.77805 0.56744 0.0
C68 C 0.8064 0.78496 0.42116 0.0
O69 O 0.87099 0.79137 0.49429 0.0
Mg70 Mg 0.17947 0.79065 0.55805 0.0
O71 O 0.18691 0.83308 0.53229 0.0
O72 O 0.22502 0.83772 0.52983 0.0
Mg73 Mg 0.24193 0.7997 0.55672 0.0
C74 C 0.20477 0.84687 0.52358 0.0
C75 C 0.1267 0.78955 0.56301 0.0
O76 O 0.13281 0.78337 0.60008 0.0
O77 O 0.19065 0.77068 0.49909 0.0
O78 O 0.2288 0.77418 0.50445 0.0
O79 O 0.17969 0.80709 0.62102 0.0
O80 O 0.21027 0.79118 0.58999 0.0
C81 C 0.2109 0.76554 0.48642 0.0
C82 C 0.20156 0.80237 0.62133 0.0
O83 O 0.14226 0.79394 0.537 0.0
Mg84 Mg 0.17293 0.1924 0.44159 0.0
O85 O 0.17995 0.14637 0.43593 0.0
O86 O 0.21748 0.14174 0.42383 0.0
Mg87 Mg 0.23439 0.18328 0.42085 0.0
C88 C 0.19762 0.13154 0.42952 0.0
C89 C 0.1246 0.20576 0.47036 0.0
O90 O 0.13404 0.22955 0.46353 0.0
O91 O 0.1894 0.19247 0.50437 0.0
O92 O 0.22648 0.18903 0.48758 0.0
O93 O 0.16782 0.19735 0.37488 0.0
O94 O 0.20117 0.2014 0.40558 0.0
C95 C 0.21068 0.19166 0.51391 0.0
C96 C 0.18967 0.20174 0.37253 0.0
O97 O 0.13681 0.18453 0.4658 0.0
Mg98 Mg 0.83244 0.19431 0.57084 0.0
O99 O 0.82666 0.14806 0.56941 0.0
O100 O 0.78957 0.1409 0.58263 0.0
Mg101 Mg 0.77172 0.18143 0.59379 0.0
C102 C 0.80962 0.13209 0.5742 0.0
C103 C 0.88087 0.20968 0.54173 0.0
O104 O 0.8726 0.233 0.5543 0.0
O105 O 0.81443 0.19931 0.50958 0.0
O106 O 0.77792 0.19338 0.5283 0.0
O107 O 0.8391 0.19356 0.63759 0.0
O108 O 0.80488 0.19895 0.61017 0.0
C109 C 0.79295 0.19881 0.50153 0.0
C110 C 0.81718 0.19655 0.64217 0.0
O111 O 0.86798 0.1889 0.5428 0.0
C112 C 0.32676 0.4088 0.94315 0.0
C113 C 0.30649 0.39622 0.92982 0.0
C114 C 0.3274 0.43693 0.94922 0.0
C115 C 0.28843 0.4932 0.97296 0.0
H116 H 0.33915 0.53999 0.94329 0.0
C117 C 0.28205 0.60841 -0.00674 0.0
C118 C 0.30131 0.62188 0.00885 0.0
C119 C 0.28374 0.58156 0.9803 0.0
C120 C 0.32495 0.52713 0.95211 0.0
H121 H 0.2714 0.40369 0.91031 0.0
H122 H 0.27263 0.45244 0.92071 0.0
H123 H 0.34054 0.49164 0.92646 0.0
H124 H 0.33768 0.61786 0.02189 0.0
H125 H 0.34051 0.57073 2e-05 0.0
H126 H 0.27296 0.5282 -0.00076 0.0
C127 C 0.28788 0.44054 0.92717 0.0
C128 C 0.32575 0.49947 0.94241 0.0
C129 C 0.28724 0.41256 0.92107 0.0
C130 C 0.3225 0.60809 0.01004 0.0
C131 C 0.32415 0.58109 -0.00269 0.0
C132 C 0.28768 0.52068 0.98279 0.0
C133 C 0.30777 0.45298 0.94218 0.0
C134 C 0.30739 0.48228 0.9525 0.0
C135 C 0.30469 0.56737 0.9829 0.0
C136 C 0.30583 0.53807 0.97227 0.0
H137 H 0.34191 0.39685 0.95011 0.0
H138 H 0.34296 0.44595 0.96092 0.0
H139 H 0.27424 0.48037 0.98196 0.0
H140 H 0.26553 0.6185 -0.00861 0.0
H141 H 0.26852 0.57184 0.96848 0.0
C142 C 0.42253 0.28569 0.94382 0.0
C143 C 0.40565 0.30187 0.96217 0.0
C144 C 0.44565 0.28849 0.95405 0.0
C145 C 0.48725 0.33575 -0.0001 0.0
H146 H 0.52474 0.27075 0.00914 0.0
C147 C 0.58039 0.3359 0.06212 0.0
C148 C 0.59649 0.31876 0.04345 0.0
C149 C 0.5572 0.33504 0.05127 0.0
C150 C 0.5146 0.28913 0.00618 0.0
H151 H 0.39989 0.33379 0.00575 0.0
H152 H 0.44039 0.33849 0.02406 0.0
H153 H 0.48407 0.26674 -0.00636 0.0
H154 H 0.60089 0.28787 -0.00223 0.0
H155 H 0.56046 0.28651 0.97865 0.0
H156 H 0.5179 0.3581 0.01272 0.0
C157 C 0.43569 0.32381 0.00136 0.0
C158 C 0.49124 0.28684 -0.00266 0.0
C159 C 0.41247 0.32101 -0.00894 0.0
C160 C 0.58895 0.30127 0.01289 0.0
C161 C 0.56574 0.30036 0.00212 0.0
C162 C 0.51067 0.33804 0.00884 0.0
C163 C 0.45255 0.3075 0.98302 0.0
C164 C 0.47728 0.31011 -0.00617 0.0
C165 C 0.54953 0.31696 0.02157 0.0
C166 C 0.52464 0.31475 0.01187 0.0
H167 H 0.41796 0.27084 0.92126 0.0
H168 H 0.45816 0.27593 0.93879 0.0
H169 H 0.47708 0.35411 -0.00307 0.0
H170 H 0.5856 0.34965 0.08576 0.0
H171 H 0.54516 0.34796 0.06707 0.0
C172 C 0.66874 0.40062 0.05338 0.0
C173 C 0.69063 0.38938 0.06055 0.0
C174 C 0.6663 0.42819 0.04338 0.0
C175 C 0.69877 0.48476 -0.00084 0.0
H176 H 0.65603 0.53214 0.05445 0.0
C177 C 0.71029 0.59981 -0.00048 0.0
C178 C 0.69095 0.61688 -0.00339 0.0
C179 C 0.70778 0.57181 0.00391 0.0
C180 C 0.66776 0.51909 0.03823 0.0
H181 H 0.72706 0.39852 0.0634 0.0
H182 H 0.72274 0.44622 0.04594 0.0
H183 H 0.65594 0.48328 0.06898 0.0
H184 H 0.65371 0.61768 -0.00405 0.0
H185 H 0.64935 0.56845 0.00348 0.0
H186 H 0.71083 0.5203 0.96874 0.0
C187 C 0.7075 0.43373 0.04771 0.0
C188 C 0.66773 0.49116 0.04661 0.0
C189 C 0.70992 0.40638 0.05801 0.0
C190 C 0.66897 0.60514 -0.00193 0.0
C191 C 0.66646 0.57697 0.00258 0.0
C192 C 0.69873 0.51253 -0.00933 0.0
C193 C 0.68572 0.44488 0.0399 0.0
C194 C 0.68368 0.47387 0.02793 0.0
C195 C 0.68588 0.56001 0.00545 0.0
C196 C 0.68369 0.53015 0.01091 0.0
H197 H 0.65351 0.38812 0.05516 0.0
H198 H 0.64931 0.4363 0.03749 0.0
H199 H 0.71091 0.47181 0.98366 0.0
H200 H 0.72751 0.60804 -0.00132 0.0
H201 H 0.7231 0.55943 0.00683 0.0
C202 C 0.41013 0.69567 0.02366 0.0
C203 C 0.39816 0.72026 0.01805 0.0
C204 C 0.43383 0.69432 0.01728 0.0
C205 C 0.48198 0.72975 0.96734 0.0
H206 H 0.51932 0.69298 0.04783 0.0
C207 C 0.57998 0.74347 0.975 0.0
C208 C 0.59364 0.7207 0.9844 0.0
C209 C 0.55609 0.7421 0.97762 0.0
C210 C 0.50915 0.70299 0.02475 0.0
H211 H 0.40163 0.76256 0.00041 0.0
H212 H 0.44293 0.7602 -0.01063 0.0
H213 H 0.47763 0.69273 0.05413 0.0
H214 H 0.59287 0.67857 0.00385 0.0
H215 H 0.55108 0.67609 0.00801 0.0
H216 H 0.51345 0.74013 0.93804 0.0
C217 C 0.43398 0.74191 -0.00153 0.0
C218 C 0.48524 0.70285 0.02838 0.0
C219 C 0.41032 0.7433 0.00502 0.0
C220 C 0.58285 0.69651 -0.00346 0.0
C221 C 0.5589 0.69512 -0.00091 0.0
C222 C 0.50587 0.72982 0.96365 0.0
C223 C 0.44606 0.71748 0.00494 0.0
C224 C 0.47139 0.71646 -8e-05 0.0
C225 C 0.54523 0.71791 -0.0104 0.0
C226 C 0.51977 0.71669 -0.00746 0.0
H227 H 0.40128 0.67751 0.03359 0.0
H228 H 0.44259 0.67512 0.02203 0.0
H229 H 0.47178 0.74005 0.94458 0.0
H230 H 0.58772 0.76247 0.96571 0.0
H231 H 0.54615 0.76018 0.97077 0.0
C232 C 0.79272 0.89161 0.51454 0.0
C233 C 0.81161 0.87563 0.50292 0.0
C234 C 0.79553 0.91895 0.52396 0.0
C235 C 0.83184 0.97828 0.50797 0.0
H236 H 0.80077 0.0046 0.60341 0.0
C237 C 0.83418 0.0915 0.55724 0.0
C238 C 0.81289 0.1024 0.5691 0.0
C239 C 0.83677 0.06349 0.5514 0.0
C240 C 0.80945 0.99763 0.57655 0.0
H241 H 0.84825 0.8762 0.49116 0.0
H242 H 0.85305 0.92438 0.5073 0.0
H243 H 0.80021 0.9563 0.58806 0.0
H244 H 0.77769 0.09223 0.58432 0.0
H245 H 0.78215 0.04383 0.5738 0.0
H246 H 0.84049 0.01984 0.49585 0.0
C247 C 0.83611 0.91547 0.50921 0.0
C248 C 0.80916 0.96996 0.5678 0.0
C249 C 0.83334 0.8879 0.50008 0.0
C250 C 0.79437 0.08464 0.57532 0.0
C251 C 0.79697 0.05677 0.56956 0.0
C252 C 0.83204 0.00609 0.51662 0.0
C253 C 0.81725 0.93112 0.52179 0.0
C254 C 0.81987 0.96007 0.53295 0.0
C255 C 0.81816 0.04582 0.5575 0.0
C256 C 0.82036 0.01613 0.55052 0.0
H257 H 0.77572 0.88295 0.51701 0.0
H258 H 0.78061 0.93063 0.53289 0.0
H259 H 0.84018 0.9712 0.48083 0.0
H260 H 0.84882 0.10459 0.55218 0.0
H261 H 0.85335 0.05565 0.54235 0.0
C262 C 0.08514 0.78674 0.58135 0.0
C263 C 0.10208 0.79117 0.55198 0.0
C264 C 0.06188 0.78797 0.57123 0.0
C265 C 0.02144 0.81462 0.49461 0.0
H266 H 0.98032 0.7613 0.54133 0.0
C267 C 0.92635 0.80325 0.44548 0.0
C268 C 0.91021 0.79826 0.47607 0.0
C269 C 0.94987 0.80316 0.4541 0.0
C270 C 0.99152 0.77653 0.52837 0.0
H271 H 0.10784 0.80054 0.48887 0.0
H272 H 0.06716 0.80243 0.47109 0.0
H273 H 0.02111 0.75936 0.55709 0.0
H274 H 0.90614 0.7899 0.53992 0.0
H275 H 0.94706 0.78998 0.55495 0.0
H276 H 0.99174 0.83173 0.46581 0.0
C277 C 0.07191 0.79828 0.50209 0.0
C278 C 0.01492 0.77541 0.5374 0.0
C279 C 0.09522 0.79705 0.51223 0.0
C280 C 0.91809 0.79368 0.51558 0.0
C281 C 0.94157 0.79355 0.52417 0.0
C282 C 0.99799 0.81572 0.48552 0.0
C283 C 0.05497 0.79364 0.53146 0.0
C284 C 0.03016 0.79454 0.52086 0.0
C285 C 0.95775 0.79802 0.49348 0.0
C286 C 0.98274 0.79678 0.50252 0.0
H287 H 0.0898 0.78231 0.61231 0.0
H288 H 0.0493 0.78474 0.59475 0.0
H289 H 0.03267 0.82985 0.48172 0.0
H290 H 0.92086 0.80683 0.41471 0.0
H291 H 0.96189 0.80646 0.42972 0.0
C292 C 0.21475 0.08522 0.42174 0.0
C293 C 0.19565 0.1015 0.43122 0.0
C294 C 0.21408 0.05715 0.42743 0.0
C295 C 0.17639 0.99802 0.44293 0.0
H296 H 0.22973 0.96875 0.4984 0.0
C297 C 0.1808 0.88837 0.50902 0.0
C298 C 0.20207 0.87481 0.50731 0.0
C299 C 0.17884 0.91551 0.4966 0.0
C300 C 0.21485 0.97642 0.48233 0.0
H301 H 0.16041 0.10072 0.45225 0.0
H302 H 0.15931 0.05143 0.46234 0.0
H303 H 0.22815 0.0168 0.48177 0.0
H304 H 0.23767 0.87877 0.48915 0.0
H305 H 0.23416 0.92568 0.46675 0.0
H306 H 0.16315 0.95741 0.44353 0.0
C307 C 0.17478 0.06057 0.45041 0.0
C308 C 0.21393 0.00403 0.47287 0.0
C309 C 0.17544 0.08881 0.44473 0.0
C310 C 0.2211 0.88867 0.49143 0.0
C311 C 0.2191 0.91566 0.47876 0.0
C312 C 0.17736 0.97022 0.45225 0.0
C313 C 0.19431 0.04457 0.44276 0.0
C314 C 0.19478 0.01514 0.45286 0.0
C315 C 0.19809 0.92962 0.48199 0.0
C316 C 0.1967 0.95909 0.47187 0.0
H317 H 0.23052 0.09418 0.41078 0.0
H318 H 0.22925 0.0453 0.42047 0.0
H319 H 0.16146 0.00601 0.42735 0.0
H320 H 0.16579 0.8783 0.52111 0.0
H321 H 0.16244 0.92568 0.49976 0.0
C322 C 0.91557 0.18199 0.52279 0.0
C323 C 0.9053 0.20745 0.5297 0.0
C324 C 0.93906 0.18003 0.51424 0.0
C325 C 0.98866 0.2206 0.47905 0.0
H326 H 0.02531 0.16636 0.53517 0.0
C327 C 0.08682 0.22787 0.48471 0.0
C328 C 0.09974 0.20398 0.47952 0.0
C329 C 0.06309 0.22673 0.49016 0.0
C330 C 0.01529 0.1814 0.51887 0.0
H331 H 0.91162 0.25082 0.53216 0.0
H332 H 0.95238 0.2474 0.51732 0.0
H333 H 0.98366 0.16705 0.544 0.0
H334 H 0.09784 0.16002 0.47709 0.0
H335 H 0.05622 0.15804 0.48646 0.0
H336 H 0.02016 0.23512 0.45412 0.0
C337 C 0.94232 0.22894 0.51823 0.0
C338 C 0.99141 0.18178 0.52389 0.0
C339 C 0.91893 0.23089 0.52697 0.0
C340 C 0.0884 0.17881 0.48104 0.0
C341 C 0.06456 0.17767 0.4865 0.0
C342 C 0.01246 0.22021 0.47401 0.0
C343 C 0.95273 0.20349 0.5121 0.0
C344 C 0.97787 0.20166 0.5045 0.0
C345 C 0.05159 0.20167 0.49049 0.0
C346 C 0.02612 0.20089 0.49434 0.0
H347 H 0.90556 0.16352 0.5247 0.0
H348 H 0.94652 0.16015 0.50927 0.0
H349 H 0.9787 0.23585 0.46304 0.0
H350 H 0.09499 0.2476 0.48402 0.0
H351 H 0.05373 0.24558 0.49404 0.0
C352 C 0.22503 0.20987 0.33162 0.0
C353 C 0.20098 0.20843 0.3339 0.0
C354 C 0.23577 0.21928 0.29677 0.0
C355 C 0.22568 0.23534 0.1887 0.0
H356 H 0.27846 0.28229 0.20296 0.0
C357 C 0.25948 0.30128 0.06028 0.0
C358 C 0.28292 0.29833 0.0511 0.0
C359 C 0.25067 0.29125 0.09634 0.0
C360 C 0.26386 0.26905 0.19861 0.0
H361 H 0.16934 0.21525 0.30089 0.0
H362 H 0.18802 0.23245 0.2403 0.0
H363 H 0.26029 0.26153 0.26175 0.0
H364 H 0.31579 0.28431 0.07409 0.0
H365 H 0.30026 0.26701 0.13788 0.0
H366 H 0.22892 0.2436 0.12563 0.0
C367 C 0.19866 0.22571 0.26521 0.0
C368 C 0.25348 0.25702 0.23217 0.0
C369 C 0.18791 0.2159 0.3 0.0
C370 C 0.29766 0.28685 0.08021 0.0
C371 C 0.28879 0.27691 0.11664 0.0
C372 C 0.23588 0.24762 0.15527 0.0
C373 C 0.22274 0.22794 0.26344 0.0
C374 C 0.23419 0.24009 0.22764 0.0
C375 C 0.26508 0.27821 0.12427 0.0
C376 C 0.25496 0.26471 0.15994 0.0
H377 H 0.23569 0.20432 0.35699 0.0
H378 H 0.25434 0.22008 0.2962 0.0
H379 H 0.21119 0.22203 0.18394 0.0
H380 H 0.24765 0.3104 0.03889 0.0
H381 H 0.23241 0.29304 0.10193 0.0
C382 C 0.68399 0.28306 0.21436 0.0
C383 C 0.69638 0.29449 0.18229 0.0
C384 C 0.6952 0.27571 0.25012 0.0
C385 C 0.75316 0.25651 0.28544 0.0
H386 H 0.72459 0.25819 0.3907 0.0
C387 C 0.79819 0.22222 0.43453 0.0
C388 C 0.78445 0.20713 0.46124 0.0
C389 C 0.78857 0.23375 0.39964 0.0
C390 C 0.73272 0.25745 0.36141 0.0
H391 H 0.72965 0.30974 0.16406 0.0
H392 H 0.74905 0.29752 0.22639 0.0
H393 H 0.70514 0.27935 0.33344 0.0
H394 H 0.75033 0.19062 0.47072 0.0
H395 H 0.73382 0.21044 0.41014 0.0
H396 H 0.78072 0.23451 0.31361 0.0
C397 C 0.7309 0.29322 0.22351 0.0
C398 C 0.72158 0.26956 0.32863 0.0
C399 C 0.71975 0.30032 0.18774 0.0
C400 C 0.76134 0.20248 0.45116 0.0
C401 C 0.75179 0.21398 0.41656 0.0
C402 C 0.76436 0.24452 0.31832 0.0
C403 C 0.71896 0.27994 0.25457 0.0
C404 C 0.73151 0.26893 0.29013 0.0
C405 C 0.76509 0.23037 0.39105 0.0
C406 C 0.75408 0.24449 0.35648 0.0
H407 H 0.66596 0.27823 0.21093 0.0
H408 H 0.68546 0.2654 0.27336 0.0
H409 H 0.76116 0.25525 0.25608 0.0
H410 H 0.81603 0.2262 0.44147 0.0
H411 H 0.79923 0.24624 0.38035 0.0
C412 C 0.76656 0.77646 0.3968 0.0
C413 C 0.7892 0.78452 0.38837 0.0
C414 C 0.75073 0.77292 0.36581 0.0
C415 C 0.73895 0.78596 0.25802 0.0
H416 H 0.70948 0.71541 0.26267 0.0
C417 C 0.68604 0.74434 0.12509 0.0
C418 C 0.6959 0.72006 0.11129 0.0
C419 C 0.69155 0.75407 0.16345 0.0
C420 C 0.71729 0.73533 0.26127 0.0
H421 H 0.81267 0.79635 0.34087 0.0
H422 H 0.78493 0.78986 0.28635 0.0
H423 H 0.73159 0.73125 0.32028 0.0
H424 H 0.71766 0.68589 0.1271 0.0
H425 H 0.72661 0.70228 0.19442 0.0
H426 H 0.72543 0.78934 0.19811 0.0
C427 C 0.77944 0.78658 0.31716 0.0
C428 C 0.72989 0.74448 0.29424 0.0
C429 C 0.79537 0.79012 0.3483 0.0
C430 C 0.7098 0.70461 0.13729 0.0
C431 C 0.71487 0.71398 0.17578 0.0
C432 C 0.72614 0.77689 0.22511 0.0
C433 C 0.75714 0.77728 0.32559 0.0
C434 C 0.74138 0.76954 0.29254 0.0
C435 C 0.70652 0.73926 0.18864 0.0
C436 C 0.71579 0.75114 0.22605 0.0
H437 H 0.7612 0.7718 0.42724 0.0
H438 H 0.7336 0.76602 0.37324 0.0
H439 H 0.74746 0.80545 0.25607 0.0
H440 H 0.67549 0.7567 0.10525 0.0
H441 H 0.68489 0.7736 0.17282 0.0
C442 C 0.1967 0.74475 0.42192 0.0
C443 C 0.2143 0.74861 0.45029 0.0
C444 C 0.201 0.73013 0.38661 0.0
C445 C 0.24321 0.68375 0.33818 0.0
H446 H 0.22892 0.72478 0.24135 0.0
C447 C 0.29893 0.68205 0.19589 0.0
C448 C 0.28873 0.6877 0.15839 0.0
C449 C 0.28558 0.68137 0.23086 0.0
C450 C 0.23261 0.71256 0.26783 0.0
H451 H 0.24972 0.73879 0.46508 0.0
H452 H 0.25713 0.71372 0.40397 0.0
H453 H 0.2121 0.7383 0.30496 0.0
H454 H 0.25623 0.69463 0.12794 0.0
H455 H 0.23305 0.69261 0.18833 0.0
H456 H 0.2646 0.65875 0.30119 0.0
C457 C 0.24003 0.72177 0.40877 0.0
C458 C 0.22291 0.72036 0.30437 0.0
C459 C 0.23584 0.73652 0.44362 0.0
C460 C 0.26475 0.69052 0.15622 0.0
C461 C 0.2514 0.68952 0.19099 0.0
C462 C 0.25289 0.67589 0.30156 0.0
C463 C 0.22283 0.71883 0.37951 0.0
C464 C 0.22882 0.7067 0.34015 0.0
C465 C 0.26175 0.68607 0.2289 0.0
C466 C 0.24836 0.69084 0.26623 0.0
H467 H 0.1799 0.7537 0.42636 0.0
H468 H 0.18741 0.7281 0.36453 0.0
H469 H 0.24779 0.6726 0.36528 0.0
H470 H 0.31737 0.67976 0.19859 0.0
H471 H 0.29417 0.67886 0.2596 0.0
C472 C 0.20584 0.81399 0.6943 0.0
C473 C 0.21596 0.80809 0.657 0.0
C474 C 0.21922 0.81464 0.72931 0.0
C475 C 0.27196 0.78303 0.76744 0.0
H476 H 0.25748 0.82402 0.86344 0.0
C477 C 0.30812 0.75157 0.92239 0.0
C478 C 0.29059 0.74817 0.95099 0.0
C479 C 0.30385 0.76603 0.88664 0.0
C480 C 0.26185 0.81257 0.83675 0.0
H481 H 0.24838 0.80049 0.62689 0.0
H482 H 0.27161 0.80247 0.68732 0.0
H483 H 0.24055 0.8375 0.79892 0.0
H484 H 0.25537 0.75874 0.96575 0.0
H485 H 0.24801 0.78355 0.90389 0.0
H486 H 0.29238 0.75737 0.80543 0.0
C487 C 0.25329 0.80584 0.68982 0.0
C488 C 0.25211 0.82023 0.79988 0.0
C489 C 0.23991 0.80489 0.65501 0.0
C490 C 0.26919 0.76065 0.94412 0.0
C491 C 0.26503 0.77524 0.90883 0.0
C492 C 0.28172 0.77544 0.80422 0.0
C493 C 0.24301 0.80963 0.72757 0.0
C494 C 0.25641 0.80493 0.76509 0.0
C495 C 0.28212 0.77763 0.8793 0.0
C496 C 0.27607 0.78948 0.83951 0.0
H497 H 0.18743 0.81657 0.69686 0.0
H498 H 0.21068 0.81741 0.75795 0.0
H499 H 0.27546 0.77055 0.74139 0.0
H500 H 0.32482 0.74232 0.92699 0.0
H501 H 0.31736 0.76765 0.86439 0.0
C502 C 0.27974 0.29434 0.82443 0.0
C503 C 0.30343 0.2906 0.83021 0.0
C504 C 0.2688 0.28376 0.79062 0.0
C505 C 0.27438 0.22799 0.71963 0.0
H506 H 0.22793 0.2667 0.65799 0.0
C507 C 0.24067 0.19075 0.56741 0.0
C508 C 0.21796 0.19666 0.5559 0.0
C509 C 0.24935 0.19998 0.60393 0.0
C510 C 0.24052 0.25542 0.67541 0.0
H511 H 0.3345 0.27408 0.80407 0.0
H512 H 0.31532 0.25548 0.7447 0.0
H513 H 0.2477 0.28963 0.71293 0.0
H514 H 0.18601 0.21519 0.57506 0.0
H515 H 0.20115 0.23103 0.63956 0.0
H516 H 0.26719 0.19375 0.68242 0.0
C517 C 0.30521 0.26643 0.76667 0.0
C518 C 0.25197 0.26864 0.70663 0.0
C519 C 0.31621 0.27732 0.80037 0.0
C520 C 0.2036 0.21037 0.58305 0.0
C521 C 0.21234 0.21969 0.61976 0.0
C522 C 0.26282 0.21471 0.68863 0.0
C523 C 0.2813 0.269 0.76202 0.0
C524 C 0.26921 0.25516 0.7287 0.0
C525 C 0.23553 0.21529 0.62999 0.0
C526 C 0.24597 0.22837 0.6658 0.0
H527 H 0.26945 0.30481 0.84647 0.0
H528 H 0.25036 0.28608 0.78783 0.0
H529 H 0.28722 0.21691 0.73677 0.0
H530 H 0.25215 0.18003 0.54733 0.0
H531 H 0.26731 0.19636 0.61061 0.0
C532 C 0.70535 0.26848 0.93534 0.0
C533 C 0.71916 0.28331 0.96206 0.0
C534 C 0.71491 0.25711 0.90054 0.0
C535 C 0.77066 0.23371 0.86191 0.0
H536 H 0.74195 0.23764 0.75669 0.0
C537 C 0.81905 0.21022 0.71444 0.0
C538 C 0.80659 0.19907 0.68235 0.0
C539 C 0.80791 0.21726 0.75021 0.0
C540 C 0.75003 0.23591 0.78601 0.0
H541 H 0.75342 0.29937 0.97175 0.0
H542 H 0.76981 0.27984 0.91137 0.0
H543 H 0.72253 0.25741 0.81463 0.0
H544 H 0.77324 0.18414 0.66407 0.0
H545 H 0.75398 0.19583 0.72636 0.0
H546 H 0.7982 0.21235 0.83347 0.0
C547 C 0.75181 0.27638 0.9177 0.0
C548 C 0.7389 0.24733 0.81913 0.0
C549 C 0.74233 0.28772 0.9522 0.0
C550 C 0.78321 0.19334 0.68773 0.0
C551 C 0.77212 0.20013 0.7235 0.0
C552 C 0.78174 0.22218 0.82888 0.0
C553 C 0.7384 0.26038 0.89205 0.0
C554 C 0.74929 0.24673 0.85727 0.0
C555 C 0.78415 0.213 0.75465 0.0
C556 C 0.7717 0.22346 0.79042 0.0
H557 H 0.68746 0.2647 0.94211 0.0
H558 H 0.70416 0.24491 0.88115 0.0
H559 H 0.77889 0.23251 0.89116 0.0
H560 H 0.83709 0.21496 0.71108 0.0
H561 H 0.8177 0.22728 0.77352 0.0
C562 C 0.70851 0.70352 0.84982 0.0
C563 C 0.71443 0.7096 0.88977 0.0
C564 C 0.72466 0.70648 0.81899 0.0
C565 C 0.77436 0.74794 0.79504 0.0
H566 H 0.77848 0.70197 0.70087 0.0
C567 C 0.81651 0.74713 0.62489 0.0
C568 C 0.80605 0.77101 0.61044 0.0
C569 C 0.81155 0.73759 0.66374 0.0
C570 C 0.7779 0.71471 0.72734 0.0
H571 H 0.74219 0.72258 0.92887 0.0
H572 H 0.77023 0.72749 0.87529 0.0
H573 H 0.75686 0.68642 0.75979 0.0
H574 H 0.78375 0.80471 0.62548 0.0
H575 H 0.77574 0.78865 0.69357 0.0
H576 H 0.79437 0.77679 0.76187 0.0
C577 C 0.75312 0.7206 0.86775 0.0
C578 C 0.76533 0.70596 0.7608 0.0
C579 C 0.73704 0.71761 0.89848 0.0
C580 C 0.79202 0.78625 0.63613 0.0
C581 C 0.78752 0.77711 0.67507 0.0
C582 C 0.78671 0.75677 0.76151 0.0
C583 C 0.74697 0.71568 0.82759 0.0
C584 C 0.76292 0.72284 0.79452 0.0
C585 C 0.79659 0.75225 0.68875 0.0
C586 C 0.78802 0.74058 0.72695 0.0
H587 H 0.69123 0.6973 0.84219 0.0
H588 H 0.71937 0.70281 0.78821 0.0
H589 H 0.77268 0.76149 0.82046 0.0
H590 H 0.82722 0.73496 0.60532 0.0
H591 H 0.81872 0.71836 0.67372 0.0
loop_
_geom_bond_atom_site_label_1
_geom_bond_atom_site_label_2
_geom_bond_distance
_geom_bond_site_symmetry_2
_ccdc_geom_bond_type
Mg0 O1 2.028 . S
Mg0 O7 1.986 . S
Mg0 O9 2.114 1_554 S
Mg0 O10 2.251 1_554 S
Mg0 O13 2.010 . S
O1 Mg0 2.028 . S
O1 C4 1.250 . S
O2 Mg3 2.028 . S
O2 C4 1.248 . S
Mg3 O2 2.028 . S
Mg3 O8 2.032 . S
Mg3 O10 2.079 1_554 S
C4 O1 1.250 . S
C4 O2 1.248 . S
C5 O6 1.264 . S
C5 O13 1.249 . S
O6 C5 1.264 . S
O7 Mg0 1.986 . S
O7 C11 1.246 . S
O8 Mg3 2.032 . S
O8 C11 1.259 . S
O9 Mg0 2.114 1_556 S
O9 C12 1.252 . S
O10 Mg0 2.251 1_556 S
O10 Mg3 2.079 1_556 S
O10 C12 1.273 . S
C11 O7 1.246 . S
C11 O8 1.259 . S
C12 O9 1.252 . S
C12 O10 1.273 . S
O13 Mg0 2.010 . S
O13 C5 1.249 . S
Mg14 O15 2.028 . S
Mg14 O21 1.986 1_554 S
Mg14 O23 2.114 . S
Mg14 O24 2.251 . S
Mg14 O27 2.010 . S
O15 Mg14 2.028 . S
O15 C18 1.250 . S
O16 Mg17 2.028 . S
O16 C18 1.248 . S
Mg17 O16 2.028 . S
Mg17 O22 2.032 1_554 S
Mg17 O24 2.079 . S
C18 O15 1.250 . S
C18 O16 1.248 . S
C19 O20 1.264 . S
C19 O27 1.249 . S
O20 C19 1.264 . S
O21 Mg14 1.986 1_556 S
O21 C25 1.246 . S
O22 Mg17 2.032 1_556 S
O22 C25 1.259 . S
O23 Mg14 2.114 . S
O23 C26 1.252 . S
O24 Mg14 2.251 . S
O24 Mg17 2.079 . S
O24 C26 1.273 . S
C25 O21 1.246 . S
C25 O22 1.259 . S
C26 O23 1.252 . S
C26 O24 1.273 . S
O27 Mg14 2.010 . S
O27 C19 1.249 . S
Mg28 O29 2.028 . S
Mg28 O35 1.986 . S
Mg28 O37 2.114 1_554 S
Mg28 O38 2.251 1_554 S
Mg28 O41 2.010 . S
O29 Mg28 2.028 . S
O29 C32 1.250 . S
O30 Mg31 2.028 . S
O30 C32 1.248 . S
Mg31 O30 2.028 . S
Mg31 O36 2.032 . S
Mg31 O38 2.079 1_554 S
C32 O29 1.250 . S
C32 O30 1.248 . S
C33 O34 1.264 . S
C33 O41 1.249 . S
O34 C33 1.264 . S
O35 Mg28 1.986 . S
O35 C39 1.246 . S
O36 Mg31 2.032 . S
O36 C39 1.259 . S
O37 Mg28 2.114 1_556 S
O37 C40 1.252 . S
O38 Mg28 2.251 1_556 S
O38 Mg31 2.079 1_556 S
O38 C40 1.273 . S
C39 O35 1.246 . S
C39 O36 1.259 . S
C40 O37 1.252 . S
C40 O38 1.273 . S
O41 Mg28 2.010 . S
O41 C33 1.249 . S
Mg42 O43 2.028 . S
Mg42 O49 1.986 1_554 S
Mg42 O51 2.114 . S
Mg42 O52 2.251 . S
Mg42 O55 2.010 . S
O43 Mg42 2.028 . S
O43 C46 1.250 . S
O44 Mg45 2.028 . S
O44 C46 1.248 . S
Mg45 O44 2.028 . S
Mg45 O50 2.032 1_554 S
Mg45 O52 2.079 . S
C46 O43 1.250 . S
C46 O44 1.248 . S
C47 O48 1.264 . S
C47 O55 1.249 . S
O48 C47 1.264 . S
O49 Mg42 1.986 1_556 S
O49 C53 1.246 . S
O50 Mg45 2.032 1_556 S
O50 C53 1.259 . S
O51 Mg42 2.114 . S
O51 C54 1.252 . S
O52 Mg42 2.251 . S
O52 Mg45 2.079 . S
O52 C54 1.273 . S
C53 O49 1.246 . S
C53 O50 1.259 . S
C54 O51 1.252 . S
C54 O52 1.273 . S
O55 Mg42 2.010 . S
O55 C47 1.249 . S
Mg56 O57 2.028 . S
Mg56 O63 1.986 . S
Mg56 O65 2.114 . S
Mg56 O66 2.251 . S
Mg56 O69 2.010 . S
O57 Mg56 2.028 . S
O57 C60 1.250 . S
O58 Mg59 2.028 . S
O58 C60 1.248 . S
Mg59 O58 2.028 . S
Mg59 O64 2.032 . S
Mg59 O66 2.079 . S
C60 O57 1.250 . S
C60 O58 1.248 . S
C61 O62 1.264 . S
C61 O69 1.249 . S
O62 C61 1.264 . S
O63 Mg56 1.986 . S
O63 C67 1.246 . S
O64 Mg59 2.032 . S
O64 C67 1.259 . S
O65 Mg56 2.114 . S
O65 C68 1.252 . S
O66 Mg56 2.251 . S
O66 Mg59 2.079 . S
O66 C68 1.273 . S
C67 O63 1.246 . S
C67 O64 1.259 . S
C68 O65 1.252 . S
C68 O66 1.273 . S
O69 Mg56 2.010 . S
O69 C61 1.249 . S
Mg70 O71 2.028 . S
Mg70 O77 1.986 . S
Mg70 O79 2.114 . S
Mg70 O80 2.251 . S
Mg70 O83 2.010 . S
O71 Mg70 2.028 . S
O71 C74 1.250 . S
O72 Mg73 2.028 . S
O72 C74 1.248 . S
Mg73 O72 2.028 . S
Mg73 O78 2.032 . S
Mg73 O80 2.079 . S
C74 O71 1.250 . S
C74 O72 1.248 . S
C75 O76 1.264 . S
C75 O83 1.249 . S
O76 C75 1.264 . S
O77 Mg70 1.986 . S
O77 C81 1.246 . S
O78 Mg73 2.032 . S
O78 C81 1.259 . S
O79 Mg70 2.114 . S
O79 C82 1.252 . S
O80 Mg70 2.251 . S
O80 Mg73 2.079 . S
O80 C82 1.273 . S
C81 O77 1.246 . S
C81 O78 1.259 . S
C82 O79 1.252 . S
C82 O80 1.273 . S
O83 Mg70 2.010 . S
O83 C75 1.249 . S
Mg84 O85 2.028 . S
Mg84 O91 1.986 . S
Mg84 O93 2.114 . S
Mg84 O94 2.251 . S
Mg84 O97 2.010 . S
O85 Mg84 2.028 . S
O85 C88 1.250 . S
O86 Mg87 2.028 . S
O86 C88 1.248 . S
Mg87 O86 2.028 . S
Mg87 O92 2.032 . S
Mg87 O94 2.079 . S
C88 O85 1.250 . S
C88 O86 1.248 . S
C89 O90 1.264 . S
C89 O97 1.249 . S
O90 C89 1.264 . S
O91 Mg84 1.986 . S
O91 C95 1.246 . S
O92 Mg87 2.032 . S
O92 C95 1.259 . S
O93 Mg84 2.114 . S
O93 C96 1.252 . S
O94 Mg84 2.251 . S
O94 Mg87 2.079 . S
O94 C96 1.273 . S
C95 O91 1.246 . S
C95 O92 1.259 . S
C96 O93 1.252 . S
C96 O94 1.273 . S
O97 Mg84 2.010 . S
O97 C89 1.249 . S
Mg98 O99 2.028 . S
Mg98 O105 1.986 . S
Mg98 O107 2.114 . S
Mg98 O108 2.251 . S
Mg98 O111 2.010 . S
O99 Mg98 2.028 . S
O99 C102 1.250 . S
O100 Mg101 2.028 . S
O100 C102 1.248 . S
Mg101 O100 2.028 . S
Mg101 O106 2.032 . S
Mg101 O108 2.079 . S
C102 O99 1.250 . S
C102 O100 1.248 . S
C103 O104 1.264 . S
C103 O111 1.249 . S
O104 C103 1.264 . S
O105 Mg98 1.986 . S
O105 C109 1.246 . S
O106 Mg101 2.032 . S
O106 C109 1.259 . S
O107 Mg98 2.114 . S
O107 C110 1.252 . S
O108 Mg98 2.251 . S
O108 Mg101 2.079 . S
O108 C110 1.273 . S
C109 O105 1.246 . S
C109 O106 1.259 . S
C110 O107 1.252 . S
C110 O108 1.273 . S
O111 Mg98 2.010 . S
O111 C103 1.249 . S
C112 C113 1.349 . S
C112 C114 1.327 . S
C112 H137 0.950 . S
C113 C112 1.349 . S
C113 C129 1.349 1_554 S
C114 C112 1.327 . S
C114 C133 1.429 . S
C114 H138 0.950 . S
C115 C132 1.574 . S
C115 C134 1.368 1_556 S
C115 H139 0.949 . S
H116 C120 0.949 . S
C117 C118 1.349 1_556 S
C117 C119 1.327 . S
C117 H140 0.950 . S
C118 C117 1.349 1_554 S
C118 C130 1.349 . S
C119 C117 1.327 . S
C119 C135 1.429 1_556 S
C119 H141 0.950 . S
C120 H116 0.949 . S
C120 C128 1.574 . S
C120 C136 1.368 . S
H121 C129 0.950 . S
H122 C127 0.950 . S
H123 C128 0.949 . S
H124 C130 0.950 . S
H125 C131 0.950 . S
H126 C132 0.949 . S
C127 H122 0.950 . S
C127 C129 1.327 . S
C127 C133 1.429 1_556 S
C128 C120 1.574 . S
C128 H123 0.949 . S
C128 C134 1.368 . S
C129 C113 1.349 1_556 S
C129 H121 0.950 . S
C129 C127 1.327 . S
C130 C118 1.349 . S
C130 H124 0.950 . S
C130 C131 1.327 . S
C131 H125 0.950 . S
C131 C130 1.327 . S
C131 C135 1.429 . S
C132 C115 1.574 . S
C132 H126 0.949 . S
C132 C136 1.368 1_556 S
C133 C114 1.429 . S
C133 C127 1.429 1_554 S
C133 C134 1.523 . S
C134 C115 1.368 1_554 S
C134 C128 1.368 . S
C134 C133 1.523 . S
C135 C119 1.429 1_554 S
C135 C131 1.429 . S
C135 C136 1.523 . S
C136 C120 1.368 . S
C136 C132 1.368 1_554 S
C136 C135 1.523 . S
H137 C112 0.950 . S
H138 C114 0.950 . S
H139 C115 0.949 . S
H140 C117 0.950 . S
H141 C119 0.950 . S
C142 C143 1.349 . S
C142 C144 1.327 . S
C142 H167 0.950 1_554 S
C143 C142 1.349 . S
C143 C159 1.349 . S
C144 C142 1.327 . S
C144 C163 1.429 . S
C144 H168 0.950 1_554 S
C145 C162 1.574 . S
C145 C164 1.368 . S
C145 H169 0.949 . S
H146 C150 0.951 . S
C147 C148 1.349 . S
C147 C149 1.327 . S
C147 H170 0.950 . S
C148 C147 1.349 . S
C148 C160 1.349 1_554 S
C149 C147 1.327 . S
C149 C165 1.429 . S
C149 H171 0.950 . S
C150 H146 0.951 . S
C150 C158 1.573 1_556 S
C150 C166 1.366 1_556 S
H151 C159 0.950 . S
H152 C157 0.950 . S
H153 C158 0.940 1_556 S
H154 C160 0.950 . S
H155 C161 0.961 . S
H156 C162 0.949 . S
C157 H152 0.950 . S
C157 C159 1.327 . S
C157 C163 1.429 . S
C158 C150 1.573 1_554 S
C158 H153 0.940 1_554 S
C158 C164 1.379 . S
C159 C143 1.349 . S
C159 H151 0.950 . S
C159 C157 1.327 . S
C160 C148 1.349 1_556 S
C160 H154 0.950 . S
C160 C161 1.327 . S
C161 H155 0.961 . S
C161 C160 1.327 . S
C161 C165 1.417 1_556 S
C162 C145 1.574 . S
C162 H156 0.949 . S
C162 C166 1.368 . S
C163 C144 1.429 . S
C163 C157 1.429 . S
C163 C164 1.523 . S
C164 C145 1.368 . S
C164 C158 1.379 . S
C164 C163 1.523 . S
C165 C149 1.429 . S
C165 C161 1.417 1_554 S
C165 C166 1.523 . S
C166 C150 1.366 1_554 S
C166 C162 1.368 . S
C166 C165 1.523 . S
H167 C142 0.950 1_556 S
H168 C144 0.950 1_556 S
H169 C145 0.949 . S
H170 C147 0.950 . S
H171 C149 0.950 . S
C172 C173 1.349 1_556 S
C172 C174 1.327 . S
C172 H197 0.950 . S
C173 C172 1.349 1_554 S
C173 C189 1.349 . S
C174 C172 1.327 . S
C174 C193 1.429 1_556 S
C174 H198 0.950 . S
C175 C192 1.574 . S
C175 C194 1.368 . S
C175 H199 0.949 . S
H176 C180 0.949 . S
C177 C178 1.349 . S
C177 C179 1.327 . S
C177 H200 0.950 . S
C178 C177 1.349 . S
C178 C190 1.349 1_554 S
C179 C177 1.327 . S
C179 C195 1.429 . S
C179 H201 0.950 . S
C180 H176 0.949 . S
C180 C188 1.574 . S
C180 C196 1.368 1_556 S
H181 C189 0.950 . S
H182 C187 0.950 . S
H183 C188 0.949 . S
H184 C190 0.950 . S
H185 C191 0.950 . S
H186 C192 0.949 . S
C187 H182 0.950 . S
C187 C189 1.327 . S
C187 C193 1.429 . S
C188 C180 1.574 . S
C188 H183 0.949 . S
C188 C194 1.368 1_556 S
C189 C173 1.349 . S
C189 H181 0.950 . S
C189 C187 1.327 . S
C190 C178 1.349 1_556 S
C190 H184 0.950 . S
C190 C191 1.327 . S
C191 H185 0.950 . S
C191 C190 1.327 . S
C191 C195 1.429 1_556 S
C192 C175 1.574 . S
C192 H186 0.949 . S
C192 C196 1.368 . S
C193 C174 1.429 1_554 S
C193 C187 1.429 . S
C193 C194 1.523 . S
C194 C175 1.368 . S
C194 C188 1.368 1_554 S
C194 C193 1.523 . S
C195 C179 1.429 . S
C195 C191 1.429 1_554 S
C195 C196 1.523 . S
C196 C180 1.368 1_554 S
C196 C192 1.368 . S
C196 C195 1.523 . S
H197 C172 0.950 . S
H198 C174 0.950 . S
H199 C175 0.949 . S
H200 C177 0.950 . S
H201 C179 0.950 . S
C202 C203 1.335 1_556 S
C202 C204 1.327 . S
C202 H227 0.965 . S
C203 C202 1.335 1_554 S
C203 C219 1.349 . S
C204 C202 1.327 . S
C204 C223 1.419 1_556 S
C204 H228 0.960 . S
C205 C222 1.574 . S
C205 C224 1.368 . S
C205 H229 0.949 . S
H206 C210 0.939 1_556 S
C207 C208 1.349 . S
C207 C209 1.327 . S
C207 H230 0.950 . S
C208 C207 1.349 . S
C208 C220 1.349 . S
C209 C207 1.327 . S
C209 C225 1.429 . S
C209 H231 0.950 . S
C210 H206 0.939 1_554 S
C210 C218 1.573 1_554 S
C210 C226 1.380 . S
H211 C219 0.950 . S
H212 C217 0.950 . S
H213 C218 0.950 . S
H214 C220 0.950 1_556 S
H215 C221 0.950 1_556 S
H216 C222 0.949 . S
C217 H212 0.950 . S
C217 C219 1.327 . S
C217 C223 1.429 . S
C218 C210 1.573 1_556 S
C218 H213 0.950 . S
C218 C224 1.367 1_556 S
C219 C203 1.349 . S
C219 H211 0.950 . S
C219 C217 1.327 . S
C220 C208 1.349 . S
C220 H214 0.950 1_554 S
C220 C221 1.327 . S
C221 H215 0.950 1_554 S
C221 C220 1.327 . S
C221 C225 1.429 . S
C222 C205 1.574 . S
C222 H216 0.949 . S
C222 C226 1.368 . S
C223 C204 1.419 1_554 S
C223 C217 1.429 . S
C223 C224 1.523 . S
C224 C205 1.368 . S
C224 C218 1.367 1_554 S
C224 C223 1.523 . S
C225 C209 1.429 . S
C225 C221 1.429 . S
C225 C226 1.523 . S
C226 C210 1.380 . S
C226 C222 1.368 . S
C226 C225 1.523 . S
H227 C202 0.965 . S
H228 C204 0.960 . S
H229 C205 0.949 . S
H230 C207 0.950 . S
H231 C209 0.950 . S
C232 C233 1.349 . S
C232 C234 1.327 . S
C232 H257 0.950 . S
C233 C232 1.349 . S
C233 C249 1.349 . S
C234 C232 1.327 . S
C234 C253 1.429 . S
C234 H258 0.950 . S
C235 C252 1.574 1_565 S
C235 C254 1.368 . S
C235 H259 0.949 . S
H236 C240 0.949 . S
C237 C238 1.349 . S
C237 C239 1.327 . S
C237 H260 0.950 . S
C238 C237 1.349 . S
C238 C250 1.349 . S
C239 C237 1.327 . S
C239 C255 1.429 . S
C239 H261 0.950 . S
C240 H236 0.949 . S
C240 C248 1.574 1_545 S
C240 C256 1.368 . S
H241 C249 0.950 . S
H242 C247 0.950 . S
H243 C248 0.949 . S
H244 C250 0.950 . S
H245 C251 0.950 . S
H246 C252 0.949 . S
C247 H242 0.950 . S
C247 C249 1.327 . S
C247 C253 1.429 . S
C248 C240 1.574 1_565 S
C248 H243 0.949 . S
C248 C254 1.368 . S
C249 C233 1.349 . S
C249 H241 0.950 . S
C249 C247 1.327 . S
C250 C238 1.349 . S
C250 H244 0.950 . S
C250 C251 1.327 . S
C251 H245 0.950 . S
C251 C250 1.327 . S
C251 C255 1.429 . S
C252 C235 1.574 1_545 S
C252 H246 0.949 . S
C252 C256 1.368 . S
C253 C234 1.429 . S
C253 C247 1.429 . S
C253 C254 1.523 . S
C254 C235 1.368 . S
C254 C248 1.368 . S
C254 C253 1.523 . S
C255 C239 1.429 . S
C255 C251 1.429 . S
C255 C256 1.523 . S
C256 C240 1.368 . S
C256 C252 1.368 . S
C256 C255 1.523 . S
H257 C232 0.950 . S
H258 C234 0.950 . S
H259 C235 0.949 . S
H260 C237 0.950 . S
H261 C239 0.950 . S
C262 C263 1.349 . S
C262 C264 1.327 . S
C262 H287 0.950 . S
C263 C262 1.349 . S
C263 C279 1.349 . S
C264 C262 1.327 . S
C264 C283 1.429 . S
C264 H288 0.950 . S
C265 C282 1.574 1_455 S
C265 C284 1.368 . S
C265 H289 0.949 . S
H266 C270 0.949 . S
C267 C268 1.349 . S
C267 C269 1.327 . S
C267 H290 0.950 . S
C268 C267 1.349 . S
C268 C280 1.349 . S
C269 C267 1.327 . S
C269 C285 1.429 . S
C269 H291 0.950 . S
C270 H266 0.949 . S
C270 C278 1.574 1_655 S
C270 C286 1.368 . S
H271 C279 0.950 . S
H272 C277 0.950 . S
H273 C278 0.949 . S
H274 C280 0.950 . S
H275 C281 0.950 . S
H276 C282 0.949 . S
C277 H272 0.950 . S
C277 C279 1.327 . S
C277 C283 1.429 . S
C278 C270 1.574 1_455 S
C278 H273 0.949 . S
C278 C284 1.368 . S
C279 C263 1.349 . S
C279 H271 0.950 . S
C279 C277 1.327 . S
C280 C268 1.349 . S
C280 H274 0.950 . S
C280 C281 1.327 . S
C281 H275 0.950 . S
C281 C280 1.327 . S
C281 C285 1.429 . S
C282 C265 1.574 1_655 S
C282 H276 0.949 . S
C282 C286 1.368 . S
C283 C264 1.429 . S
C283 C277 1.429 . S
C283 C284 1.523 . S
C284 C265 1.368 . S
C284 C278 1.368 . S
C284 C283 1.523 . S
C285 C269 1.429 . S
C285 C281 1.429 . S
C285 C286 1.523 . S
C286 C270 1.368 . S
C286 C282 1.368 . S
C286 C285 1.523 . S
H287 C262 0.950 . S
H288 C264 0.950 . S
H289 C265 0.949 . S
H290 C267 0.950 . S
H291 C269 0.950 . S
C292 C293 1.349 . S
C292 C294 1.327 . S
C292 H317 0.950 . S
C293 C292 1.349 . S
C293 C309 1.349 . S
C294 C292 1.327 . S
C294 C313 1.429 . S
C294 H318 0.950 . S
C295 C312 1.574 1_545 S
C295 C314 1.368 . S
C295 H319 0.949 . S
H296 C300 0.949 . S
C297 C298 1.349 . S
C297 C299 1.327 . S
C297 H320 0.950 . S
C298 C297 1.349 . S
C298 C310 1.349 . S
C299 C297 1.327 . S
C299 C315 1.429 . S
C299 H321 0.950 . S
C300 H296 0.949 . S
C300 C308 1.574 1_565 S
C300 C316 1.368 . S
H301 C309 0.950 . S
H302 C307 0.950 . S
H303 C308 0.949 . S
H304 C310 0.950 . S
H305 C311 0.950 . S
H306 C312 0.949 . S
C307 H302 0.950 . S
C307 C309 1.327 . S
C307 C313 1.429 . S
C308 C300 1.574 1_545 S
C308 H303 0.949 . S
C308 C314 1.368 . S
C309 C293 1.349 . S
C309 H301 0.950 . S
C309 C307 1.327 . S
C310 C298 1.349 . S
C310 H304 0.950 . S
C310 C311 1.327 . S
C311 H305 0.950 . S
C311 C310 1.327 . S
C311 C315 1.429 . S
C312 C295 1.574 1_565 S
C312 H306 0.949 . S
C312 C316 1.368 . S
C313 C294 1.429 . S
C313 C307 1.429 . S
C313 C314 1.523 . S
C314 C295 1.368 . S
C314 C308 1.368 . S
C314 C313 1.523 . S
C315 C299 1.429 . S
C315 C311 1.429 . S
C315 C316 1.523 . S
C316 C300 1.368 . S
C316 C312 1.368 . S
C316 C315 1.523 . S
H317 C292 0.950 . S
H318 C294 0.950 . S
H319 C295 0.949 . S
H320 C297 0.950 . S
H321 C299 0.950 . S
C322 C323 1.349 . S
C322 C324 1.327 . S
C322 H347 0.950 . S
C323 C322 1.349 . S
C323 C339 1.349 . S
C324 C322 1.327 . S
C324 C343 1.429 . S
C324 H348 0.950 . S
C325 C342 1.574 1_655 S
C325 C344 1.368 . S
C325 H349 0.949 . S
H326 C330 0.949 . S
C327 C328 1.349 . S
C327 C329 1.327 . S
C327 H350 0.950 . S
C328 C327 1.349 . S
C328 C340 1.349 . S
C329 C327 1.327 . S
C329 C345 1.429 . S
C329 H351 0.950 . S
C330 H326 0.949 . S
C330 C338 1.574 1_455 S
C330 C346 1.368 . S
H331 C339 0.950 . S
H332 C337 0.950 . S
H333 C338 0.949 . S
H334 C340 0.950 . S
H335 C341 0.950 . S
H336 C342 0.949 . S
C337 H332 0.950 . S
C337 C339 1.327 . S
C337 C343 1.429 . S
C338 C330 1.574 1_655 S
C338 H333 0.949 . S
C338 C344 1.368 . S
C339 C323 1.349 . S
C339 H331 0.950 . S
C339 C337 1.327 . S
C340 C328 1.349 . S
C340 H334 0.950 . S
C340 C341 1.327 . S
C341 H335 0.950 . S
C341 C340 1.327 . S
C341 C345 1.429 . S
C342 C325 1.574 1_455 S
C342 H336 0.949 . S
C342 C346 1.368 . S
C343 C324 1.429 . S
C343 C337 1.429 . S
C343 C344 1.523 . S
C344 C325 1.368 . S
C344 C338 1.368 . S
C344 C343 1.523 . S
C345 C329 1.429 . S
C345 C341 1.429 . S
C345 C346 1.523 . S
C346 C330 1.368 . S
C346 C342 1.368 . S
C346 C345 1.523 . S
H347 C322 0.950 . S
H348 C324 0.950 . S
H349 C325 0.949 . S
H350 C327 0.950 . S
H351 C329 0.950 . S
C352 C353 1.349 . S
C352 C354 1.327 . S
C352 H377 0.950 . S
C353 C352 1.349 . S
C353 C369 1.349 . S
C354 C352 1.327 . S
C354 C373 1.429 . S
C354 H378 0.950 . S
C355 C372 1.574 . S
C355 C374 1.368 . S
C355 H379 0.949 . S
H356 C360 0.949 . S
C357 C358 1.349 . S
C357 C359 1.327 . S
C357 H380 0.950 . S
C358 C357 1.349 . S
C358 C370 1.349 . S
C359 C357 1.327 . S
C359 C375 1.429 . S
C359 H381 0.950 . S
C360 H356 0.949 . S
C360 C368 1.574 . S
C360 C376 1.368 . S
H361 C369 0.950 . S
H362 C367 0.950 . S
H363 C368 0.949 . S
H364 C370 0.950 . S
H365 C371 0.950 . S
H366 C372 0.949 . S
C367 H362 0.950 . S
C367 C369 1.327 . S
C367 C373 1.429 . S
C368 C360 1.574 . S
C368 H363 0.949 . S
C368 C374 1.368 . S
C369 C353 1.349 . S
C369 H361 0.950 . S
C369 C367 1.327 . S
C370 C358 1.349 . S
C370 H364 0.950 . S
C370 C371 1.327 . S
C371 H365 0.950 . S
C371 C370 1.327 . S
C371 C375 1.429 . S
C372 C355 1.574 . S
C372 H366 0.949 . S
C372 C376 1.368 . S
C373 C354 1.429 . S
C373 C367 1.429 . S
C373 C374 1.523 . S
C374 C355 1.368 . S
C374 C368 1.368 . S
C374 C373 1.523 . S
C375 C359 1.429 . S
C375 C371 1.429 . S
C375 C376 1.523 . S
C376 C360 1.368 . S
C376 C372 1.368 . S
C376 C375 1.523 . S
H377 C352 0.950 . S
H378 C354 0.950 . S
H379 C355 0.949 . S
H380 C357 0.950 . S
H381 C359 0.950 . S
C382 C383 1.349 . S
C382 C384 1.327 . S
C382 H407 0.950 . S
C383 C382 1.349 . S
C383 C399 1.349 . S
C384 C382 1.327 . S
C384 C403 1.429 . S
C384 H408 0.950 . S
C385 C402 1.574 . S
C385 C404 1.368 . S
C385 H409 0.949 . S
H386 C390 0.949 . S
C387 C388 1.349 . S
C387 C389 1.327 . S
C387 H410 0.950 . S
C388 C387 1.349 . S
C388 C400 1.349 . S
C389 C387 1.327 . S
C389 C405 1.429 . S
C389 H411 0.950 . S
C390 H386 0.949 . S
C390 C398 1.574 . S
C390 C406 1.368 . S
H391 C399 0.950 . S
H392 C397 0.950 . S
H393 C398 0.949 . S
H394 C400 0.950 . S
H395 C401 0.950 . S
H396 C402 0.949 . S
C397 H392 0.950 . S
C397 C399 1.327 . S
C397 C403 1.429 . S
C398 C390 1.574 . S
C398 H393 0.949 . S
C398 C404 1.368 . S
C399 C383 1.349 . S
C399 H391 0.950 . S
C399 C397 1.327 . S
C400 C388 1.349 . S
C400 H394 0.950 . S
C400 C401 1.327 . S
C401 H395 0.950 . S
C401 C400 1.327 . S
C401 C405 1.429 . S
C402 C385 1.574 . S
C402 H396 0.949 . S
C402 C406 1.368 . S
C403 C384 1.429 . S
C403 C397 1.429 . S
C403 C404 1.523 . S
C404 C385 1.368 . S
C404 C398 1.368 . S
C404 C403 1.523 . S
C405 C389 1.429 . S
C405 C401 1.429 . S
C405 C406 1.523 . S
C406 C390 1.368 . S
C406 C402 1.368 . S
C406 C405 1.523 . S
H407 C382 0.950 . S
H408 C384 0.950 . S
H409 C385 0.949 . S
H410 C387 0.950 . S
H411 C389 0.950 . S
C412 C413 1.349 . S
C412 C414 1.327 . S
C412 H437 0.950 . S
C413 C412 1.349 . S
C413 C429 1.349 . S
C414 C412 1.327 . S
C414 C433 1.429 . S
C414 H438 0.950 . S
C415 C432 1.574 . S
C415 C434 1.368 . S
C415 H439 0.949 . S
H416 C420 0.949 . S
C417 C418 1.349 . S
C417 C419 1.327 . S
C417 H440 0.950 . S
C418 C417 1.349 . S
C418 C430 1.349 . S
C419 C417 1.327 . S
C419 C435 1.429 . S
C419 H441 0.950 . S
C420 H416 0.949 . S
C420 C428 1.574 . S
C420 C436 1.368 . S
H421 C429 0.950 . S
H422 C427 0.950 . S
H423 C428 0.949 . S
H424 C430 0.950 . S
H425 C431 0.950 . S
H426 C432 0.949 . S
C427 H422 0.950 . S
C427 C429 1.327 . S
C427 C433 1.429 . S
C428 C420 1.574 . S
C428 H423 0.949 . S
C428 C434 1.368 . S
C429 C413 1.349 . S
C429 H421 0.950 . S
C429 C427 1.327 . S
C430 C418 1.349 . S
C430 H424 0.950 . S
C430 C431 1.327 . S
C431 H425 0.950 . S
C431 C430 1.327 . S
C431 C435 1.429 . S
C432 C415 1.574 . S
C432 H426 0.949 . S
C432 C436 1.368 . S
C433 C414 1.429 . S
C433 C427 1.429 . S
C433 C434 1.523 . S
C434 C415 1.368 . S
C434 C428 1.368 . S
C434 C433 1.523 . S
C435 C419 1.429 . S
C435 C431 1.429 . S
C435 C436 1.523 . S
C436 C420 1.368 . S
C436 C432 1.368 . S
C436 C435 1.523 . S
H437 C412 0.950 . S
H438 C414 0.950 . S
H439 C415 0.949 . S
H440 C417 0.950 . S
H441 C419 0.950 . S
C442 C443 1.349 . S
C442 C444 1.327 . S
C442 H467 0.950 . S
C443 C442 1.349 . S
C443 C459 1.349 . S
C444 C442 1.327 . S
C444 C463 1.429 . S
C444 H468 0.950 . S
C445 C462 1.574 . S
C445 C464 1.368 . S
C445 H469 0.949 . S
H446 C450 0.949 . S
C447 C448 1.349 . S
C447 C449 1.327 . S
C447 H470 0.950 . S
C448 C447 1.349 . S
C448 C460 1.349 . S
C449 C447 1.327 . S
C449 C465 1.429 . S
C449 H471 0.950 . S
C450 H446 0.949 . S
C450 C458 1.574 . S
C450 C466 1.368 . S
H451 C459 0.950 . S
H452 C457 0.950 . S
H453 C458 0.949 . S
H454 C460 0.950 . S
H455 C461 0.950 . S
H456 C462 0.949 . S
C457 H452 0.950 . S
C457 C459 1.327 . S
C457 C463 1.429 . S
C458 C450 1.574 . S
C458 H453 0.949 . S
C458 C464 1.368 . S
C459 C443 1.349 . S
C459 H451 0.950 . S
C459 C457 1.327 . S
C460 C448 1.349 . S
C460 H454 0.950 . S
C460 C461 1.327 . S
C461 H455 0.950 . S
C461 C460 1.327 . S
C461 C465 1.429 . S
C462 C445 1.574 . S
C462 H456 0.949 . S
C462 C466 1.368 . S
C463 C444 1.429 . S
C463 C457 1.429 . S
C463 C464 1.523 . S
C464 C445 1.368 . S
C464 C458 1.368 . S
C464 C463 1.523 . S
C465 C449 1.429 . S
C465 C461 1.429 . S
C465 C466 1.523 . S
C466 C450 1.368 . S
C466 C462 1.368 . S
C466 C465 1.523 . S
H467 C442 0.950 . S
H468 C444 0.950 . S
H469 C445 0.949 . S
H470 C447 0.950 . S
H471 C449 0.950 . S
C472 C473 1.349 . S
C472 C474 1.327 . S
C472 H497 0.950 . S
C473 C472 1.349 . S
C473 C489 1.349 . S
C474 C472 1.327 . S
C474 C493 1.429 . S
C474 H498 0.950 . S
C475 C492 1.574 . S
C475 C494 1.368 . S
C475 H499 0.949 . S
H476 C480 0.949 . S
C477 C478 1.349 . S
C477 C479 1.327 . S
C477 H500 0.950 . S
C478 C477 1.349 . S
C478 C490 1.349 . S
C479 C477 1.327 . S
C479 C495 1.429 . S
C479 H501 0.950 . S
C480 H476 0.949 . S
C480 C488 1.574 . S
C480 C496 1.368 . S
H481 C489 0.950 . S
H482 C487 0.950 . S
H483 C488 0.949 . S
H484 C490 0.950 . S
H485 C491 0.950 . S
H486 C492 0.949 . S
C487 H482 0.950 . S
C487 C489 1.327 . S
C487 C493 1.429 . S
C488 C480 1.574 . S
C488 H483 0.949 . S
C488 C494 1.368 . S
C489 C473 1.349 . S
C489 H481 0.950 . S
C489 C487 1.327 . S
C490 C478 1.349 . S
C490 H484 0.950 . S
C490 C491 1.327 . S
C491 H485 0.950 . S
C491 C490 1.327 . S
C491 C495 1.429 . S
C492 C475 1.574 . S
C492 H486 0.949 . S
C492 C496 1.368 . S
C493 C474 1.429 . S
C493 C487 1.429 . S
C493 C494 1.523 . S
C494 C475 1.368 . S
C494 C488 1.368 . S
C494 C493 1.523 . S
C495 C479 1.429 . S
C495 C491 1.429 . S
C495 C496 1.523 . S
C496 C480 1.368 . S
C496 C492 1.368 . S
C496 C495 1.523 . S
H497 C472 0.950 . S
H498 C474 0.950 . S
H499 C475 0.949 . S
H500 C477 0.950 . S
H501 C479 0.950 . S
C502 C503 1.349 . S
C502 C504 1.327 . S
C502 H527 0.950 . S
C503 C502 1.349 . S
C503 C519 1.349 . S
C504 C502 1.327 . S
C504 C523 1.429 . S
C504 H528 0.950 . S
C505 C522 1.574 . S
C505 C524 1.368 . S
C505 H529 0.949 . S
H506 C510 0.949 . S
C507 C508 1.349 . S
C507 C509 1.327 . S
C507 H530 0.950 . S
C508 C507 1.349 . S
C508 C520 1.349 . S
C509 C507 1.327 . S
C509 C525 1.429 . S
C509 H531 0.950 . S
C510 H506 0.949 . S
C510 C518 1.574 . S
C510 C526 1.368 . S
H511 C519 0.950 . S
H512 C517 0.950 . S
H513 C518 0.949 . S
H514 C520 0.950 . S
H515 C521 0.950 . S
H516 C522 0.949 . S
C517 H512 0.950 . S
C517 C519 1.327 . S
C517 C523 1.429 . S
C518 C510 1.574 . S
C518 H513 0.949 . S
C518 C524 1.368 . S
C519 C503 1.349 . S
C519 H511 0.950 . S
C519 C517 1.327 . S
C520 C508 1.349 . S
C520 H514 0.950 . S
C520 C521 1.327 . S
C521 H515 0.950 . S
C521 C520 1.327 . S
C521 C525 1.429 . S
C522 C505 1.574 . S
C522 H516 0.949 . S
C522 C526 1.368 . S
C523 C504 1.429 . S
C523 C517 1.429 . S
C523 C524 1.523 . S
C524 C505 1.368 . S
C524 C518 1.368 . S
C524 C523 1.523 . S
C525 C509 1.429 . S
C525 C521 1.429 . S
C525 C526 1.523 . S
C526 C510 1.368 . S
C526 C522 1.368 . S
C526 C525 1.523 . S
H527 C502 0.950 . S
H528 C504 0.950 . S
H529 C505 0.949 . S
H530 C507 0.950 . S
H531 C509 0.950 . S
C532 C533 1.349 . S
C532 C534 1.327 . S
C532 H557 0.950 . S
C533 C532 1.349 . S
C533 C549 1.349 . S
C534 C532 1.327 . S
C534 C553 1.429 . S
C534 H558 0.950 . S
C535 C552 1.574 . S
C535 C554 1.368 . S
C535 H559 0.949 . S
H536 C540 0.949 . S
C537 C538 1.349 . S
C537 C539 1.327 . S
C537 H560 0.950 . S
C538 C537 1.349 . S
C538 C550 1.349 . S
C539 C537 1.327 . S
C539 C555 1.429 . S
C539 H561 0.950 . S
C540 H536 0.949 . S
C540 C548 1.574 . S
C540 C556 1.368 . S
H541 C549 0.950 . S
H542 C547 0.950 . S
H543 C548 0.949 . S
H544 C550 0.950 . S
H545 C551 0.950 . S
H546 C552 0.949 . S
C547 H542 0.950 . S
C547 C549 1.327 . S
C547 C553 1.429 . S
C548 C540 1.574 . S
C548 H543 0.949 . S
C548 C554 1.368 . S
C549 C533 1.349 . S
C549 H541 0.950 . S
C549 C547 1.327 . S
C550 C538 1.349 . S
C550 H544 0.950 . S
C550 C551 1.327 . S
C551 H545 0.950 . S
C551 C550 1.327 . S
C551 C555 1.429 . S
C552 C535 1.574 . S
C552 H546 0.949 . S
C552 C556 1.368 . S
C553 C534 1.429 . S
C553 C547 1.429 . S
C553 C554 1.523 . S
C554 C535 1.368 . S
C554 C548 1.368 . S
C554 C553 1.523 . S
C555 C539 1.429 . S
C555 C551 1.429 . S
C555 C556 1.523 . S
C556 C540 1.368 . S
C556 C552 1.368 . S
C556 C555 1.523 . S
H557 C532 0.950 . S
H558 C534 0.950 . S
H559 C535 0.949 . S
H560 C537 0.950 . S
H561 C539 0.950 . S
C562 C563 1.349 . S
C562 C564 1.327 . S
C562 H587 0.950 . S
C563 C562 1.349 . S
C563 C579 1.349 . S
C564 C562 1.327 . S
C564 C583 1.429 . S
C564 H588 0.950 . S
C565 C582 1.574 . S
C565 C584 1.368 . S
C565 H589 0.949 . S
H566 C570 0.949 . S
C567 C568 1.349 . S
C567 C569 1.327 . S
C567 H590 0.950 . S
C568 C567 1.349 . S
C568 C580 1.349 . S
C569 C567 1.327 . S
C569 C585 1.429 . S
C569 H591 0.950 . S
C570 H566 0.949 . S
C570 C578 1.574 . S
C570 C586 1.368 . S
H571 C579 0.950 . S
H572 C577 0.950 . S
H573 C578 0.949 . S
H574 C580 0.950 . S
H575 C581 0.950 . S
H576 C582 0.949 . S
C577 H572 0.950 . S
C577 C579 1.327 . S
C577 C583 1.429 . S
C578 C570 1.574 . S
C578 H573 0.949 . S
C578 C584 1.368 . S
C579 C563 1.349 . S
C579 H571 0.950 . S
C579 C577 1.327 . S
C580 C568 1.349 . S
C580 H574 0.950 . S
C580 C581 1.327 . S
C581 H575 0.950 . S
C581 C580 1.327 . S
C581 C585 1.429 . S
C582 C565 1.574 . S
C582 H576 0.949 . S
C582 C586 1.368 . S
C583 C564 1.429 . S
C583 C577 1.429 . S
C583 C584 1.523 . S
C584 C565 1.368 . S
C584 C578 1.368 . S
C584 C583 1.523 . S
C585 C569 1.429 . S
C585 C581 1.429 . S
C585 C586 1.523 . S
C586 C570 1.368 . S
C586 C582 1.368 . S
C586 C585 1.523 . S
H587 C562 0.950 . S
H588 C564 0.950 . S
H589 C565 0.949 . S
H590 C567 0.950 . S
H591 C569 0.950 . S
C113 C4 1.456 . S
C118 C46 1.456 . S
C143 C5 1.277 . S
C148 C19 1.277 . S
C173 C18 1.456 . S
C178 C32 1.456 . S
C203 C47 1.277 . S
C208 C33 1.277 . S
C233 C60 1.456 . S
C238 C102 1.456 . S
C263 C75 1.278 . S
C268 C61 1.278 . S
C293 C88 1.456 . S
C298 C74 1.456 . S
C323 C103 1.278 . S
C328 C89 1.278 . S
C353 C96 1.398 . S
C358 C11 1.374 . S
C383 C26 1.398 . S
C388 C109 1.374 . S
C413 C68 1.398 . S
C418 C39 1.374 . S
C443 C81 1.374 . S
C448 C54 1.398 . S
C473 C82 1.398 . S
C478 C53 1.374 . S
C503 C12 1.398 . S
C508 C95 1.374 . S
C533 C25 1.374 . S
C538 C110 1.398 . S
C563 C40 1.398 . S
C568 C67 1.374 . S
