# Generated by pormake.
# Topology qtz-e, (6)-cn, num edge types: 1
# Building blocks:
#     Node 0, Type 0, BuildingBlock: UKALOJ_clean_sbu_0, # of connection points: 6
#     Node 1, Type 0, BuildingBlock: UKALOJ_clean_sbu_0, # of connection points: 6
#     Node 2, Type 0, BuildingBlock: UKALOJ_clean_sbu_0, # of connection points: 6
#     Node 3, Type 0, BuildingBlock: UKALOJ_clean_sbu_0, # of connection points: 6
#     Node 4, Type 0, BuildingBlock: UKALOJ_clean_sbu_0, # of connection points: 6
#     Node 5, Type 0, BuildingBlock: UKALOJ_clean_sbu_0, # of connection points: 6
#     Edge 6, Type (0, 0), BuildingBlock: AJUNOK_clean_linker_0, # of connection points: 2
#     Edge 7, Type (0, 0), BuildingBlock: AJUNOK_clean_linker_0, # of connection points: 2
#     Edge 8, Type (0, 0), BuildingBlock: AJUNOK_clean_linker_0, # of connection points: 2
#     Edge 9, Type (0, 0), BuildingBlock: AJUNOK_clean_linker_0, # of connection points: 2
#     Edge 10, Type (0, 0), BuildingBlock: AJUNOK_clean_linker_0, # of connection points: 2
#     Edge 11, Type (0, 0), BuildingBlock: AJUNOK_clean_linker_0, # of connection points: 2
#     Edge 12, Type (0, 0), BuildingBlock: AJUNOK_clean_linker_0, # of connection points: 2
#     Edge 13, Type (0, 0), BuildingBlock: AJUNOK_clean_linker_0, # of connection points: 2
#     Edge 14, Type (0, 0), BuildingBlock: AJUNOK_clean_linker_0, # of connection points: 2
#     Edge 15, Type (0, 0), BuildingBlock: AJUNOK_clean_linker_0, # of connection points: 2
#     Edge 16, Type (0, 0), BuildingBlock: AJUNOK_clean_linker_0, # of connection points: 2
#     Edge 17, Type (0, 0), BuildingBlock: AJUNOK_clean_linker_0, # of connection points: 2
#     Edge 18, Type (0, 0), BuildingBlock: AJUNOK_clean_linker_0, # of connection points: 2
#     Edge 19, Type (0, 0), BuildingBlock: AJUNOK_clean_linker_0, # of connection points: 2
#     Edge 20, Type (0, 0), BuildingBlock: AJUNOK_clean_linker_0, # of connection points: 2
#     Edge 21, Type (0, 0), BuildingBlock: AJUNOK_clean_linker_0, # of connection points: 2
#     Edge 22, Type (0, 0), BuildingBlock: AJUNOK_clean_linker_0, # of connection points: 2
#     Edge 23, Type (0, 0), BuildingBlock: AJUNOK_clean_linker_0, # of connection points: 2
# Relax obj value: 0.488
# Max RMSD: 0.268
# Mean RMSD: 0.268
data_MOF--net-qtz-e--node1-UKALOJ_clean_sbu_0--edge1-AJUNOK_clean_linker_0
_symmetry_space_group_name_H-M    P1
_symmetry_Int_Tables_number       1
_symmetry_cell_setting            triclinic
loop_
_symmetry_equiv_pos_as_xyz
'x, y, z'
_cell_length_a     20.611299
_cell_length_b     20.656069
_cell_length_c     29.914333
_cell_angle_alpha  89.966153
_cell_angle_beta   89.775687
_cell_angle_gamma 119.86046
loop_
_atom_site_label
_atom_site_type_symbol
_atom_site_fract_x
_atom_site_fract_y
_atom_site_fract_z
_atom_type_partial_charge
Zn0 Zn 0.23146 0.43207 0.02229 0.0
O1 O 0.15026 0.46238 0.01285 0.0
C2 C 0.13042 0.281 0.05235 0.0
Zn3 Zn 0.18692 0.36204 0.96446 0.0
C4 C 0.09436 0.42767 0.98732 0.0
O5 O 0.08616 0.37067 0.96559 0.0
C6 C 0.34161 0.39777 -0.00341 0.0
O7 O 0.23036 0.4508 0.92143 0.0
O8 O 0.29981 0.51808 0.97722 0.0
N9 N 0.15025 0.28794 0.91112 0.0
C10 C 0.1893 0.2808 0.87699 0.0
C11 C 0.07767 0.19019 0.87194 0.0
N12 N 0.08066 0.23168 0.90769 0.0
N13 N 0.1454 0.22 0.85226 0.0
C14 C 0.2562 0.51786 0.11052 0.0
C15 C 0.37423 0.59199 0.1072 0.0
N16 N 0.28065 0.50512 0.07174 0.0
N17 N 0.35392 0.55081 0.06978 0.0
N18 N 0.31402 0.57165 0.13349 0.0
H19 H 0.16236 0.52108 0.14006 0.0
H20 H 0.16563 0.43705 0.15035 0.0
H21 H 0.13775 0.45242 0.09636 0.0
C22 C 0.17569 0.48008 0.12481 0.0
C23 C 0.27051 0.33295 0.86733 0.0
H24 H 0.28826 0.39009 0.879 0.0
H25 H 0.28196 0.33489 0.83092 0.0
H26 H 0.30409 0.31197 0.88444 0.0
O27 O 0.29904 0.37113 0.96275 0.0
O28 O 0.313 0.40544 0.03197 0.0
C29 C 0.28196 0.51222 0.93632 0.0
O30 O 0.16352 0.3476 0.06661 0.0
O31 O 0.13635 0.26885 0.01113 0.0
Zn32 Zn 0.80838 0.16781 0.28696 0.0
O33 O 0.76026 0.20097 0.23923 0.0
C34 C 0.92395 0.32981 0.30233 0.0
Zn35 Zn 0.78051 0.2252 0.33954 0.0
C36 C 0.73274 0.24161 0.24951 0.0
O37 O 0.73598 0.26264 0.28963 0.0
C38 C 0.84743 0.142 0.37973 0.0
O39 O 0.67732 0.1314 0.34583 0.0
O40 O 0.69951 0.06841 0.2944 0.0
N41 N 0.7559 0.28176 0.38396 0.0
C42 C 0.72637 0.2658 0.4252 0.0
C43 C 0.74875 0.37576 0.40902 0.0
N44 N 0.77061 0.35033 0.37407 0.0
N45 N 0.72193 0.32405 0.44168 0.0
C46 C 0.88496 0.15485 0.20047 0.0
C47 C 0.88143 0.05061 0.20764 0.0
N48 N 0.8445 0.1221 0.23779 0.0
N49 N 0.84191 0.05692 0.24192 0.0
N50 N 0.90817 0.11114 0.18097 0.0
H51 H 0.87249 0.25369 0.19703 0.0
H52 H 0.90955 0.2345 0.14752 0.0
H53 H 0.96691 0.27087 0.19603 0.0
C54 C 0.90893 0.23271 0.18462 0.0
C55 C 0.69726 0.19187 0.44831 0.0
H56 H 0.70167 0.15055 0.42709 0.0
H57 H 0.63792 0.16985 0.45813 0.0
H58 H 0.72964 0.19957 0.47931 0.0
O59 O 0.82297 0.18588 0.38921 0.0
O60 O 0.85238 0.12767 0.33879 0.0
C61 C 0.65506 0.07306 0.32251 0.0
O62 O 0.91293 0.27458 0.27822 0.0
O63 O 0.87925 0.32021 0.33358 0.0
Zn64 Zn 0.56052 0.79663 0.68905 0.0
O65 O 0.53395 0.68787 0.67913 0.0
C66 C 0.71184 0.8445 0.71888 0.0
Zn67 Zn 0.63223 0.82436 0.63047 0.0
C68 C 0.56466 0.66513 0.65135 0.0
O69 O 0.61899 0.71282 0.62717 0.0
C70 C 0.59664 0.94215 0.66569 0.0
O71 O 0.54401 0.78524 0.58758 0.0
O72 O 0.47335 0.77699 0.6448 0.0
N73 N 0.70757 0.86459 0.57745 0.0
C74 C 0.7178 0.91503 0.54542 0.0
C75 C 0.8061 0.89034 0.53816 0.0
N76 N 0.76242 0.84911 0.57266 0.0
N77 N 0.77942 0.93257 0.52081 0.0
C78 C 0.48055 0.73312 0.77813 0.0
C79 C 0.40121 0.77093 0.77852 0.0
N80 N 0.48833 0.7694 0.73955 0.0
N81 N 0.43953 0.7934 0.73987 0.0
N82 N 0.42716 0.73456 0.80348 0.0
H83 H 0.54567 0.68078 0.75995 0.0
H84 H 0.48565 0.64038 0.80796 0.0
H85 H 0.56988 0.72942 0.81205 0.0
C86 C 0.52246 0.69326 0.78992 0.0
C87 C 0.66708 0.94652 0.5373 0.0
H88 H 0.6087 0.90616 0.54681 0.0
H89 H 0.66863 0.96172 0.50155 0.0
H90 H 0.68641 -0.00202 0.55736 0.0
O91 O 0.62711 0.92901 0.6324 0.0
O92 O 0.5825 0.90158 0.69968 0.0
C93 C 0.48095 0.77044 0.60326 0.0
O94 O 0.64494 0.81459 0.73267 0.0
O95 O 0.72557 0.86083 0.67747 0.0
Zn96 Zn 0.76291 0.55363 0.01487 0.0
O97 O 0.84109 0.51995 0.00398 0.0
C98 C 0.86688 0.69822 0.05279 0.0
Zn99 Zn 0.81618 0.63275 0.96185 0.0
C100 C 0.90132 0.5577 0.98207 0.0
O101 O 0.91431 0.61887 0.96329 0.0
C102 C 0.66235 0.6025 -0.00709 0.0
O103 O 0.77393 0.55036 0.91538 0.0
O104 O 0.69544 0.47607 0.96618 0.0
N105 N 0.85829 0.71238 0.91094 0.0
C106 C 0.82188 0.72238 0.87647 0.0
C107 C 0.93419 0.81234 0.87399 0.0
N108 N 0.92834 0.76827 0.90909 0.0
N109 N 0.868 0.78425 0.85297 0.0
C110 C 0.72881 0.44232 0.09102 0.0
C111 C 0.60963 0.39068 0.09563 0.0
N112 N 0.70695 0.47421 0.06018 0.0
N113 N 0.63303 0.4423 0.06295 0.0
N114 N 0.66896 0.39013 0.11341 0.0
H115 H 0.82252 0.42868 0.0755 0.0
H116 H 0.81576 0.44729 0.13348 0.0
H117 H 0.84712 0.52159 0.09255 0.0
C118 C 0.80823 0.46148 0.09885 0.0
C119 C 0.74056 0.67313 0.86577 0.0
H120 H 0.72048 0.61464 0.87545 0.0
H121 H 0.73067 0.67499 0.82947 0.0
H122 H 0.70736 0.69376 0.88389 0.0
O123 O 0.70702 0.63027 0.95984 0.0
O124 O 0.68539 0.58438 0.0268 0.0
C125 C 0.71884 0.48789 0.92615 0.0
O126 O 0.83 0.6294 0.0628 0.0
O127 O 0.86579 0.71862 0.01263 0.0
Zn128 Zn 0.20005 0.75083 0.35718 0.0
O129 O 0.30853 0.84092 0.35724 0.0
C130 C 0.13917 0.84666 0.38461 0.0
Zn131 Zn 0.18137 0.80256 0.29821 0.0
C132 C 0.33318 0.89672 0.33117 0.0
O133 O 0.28911 0.90151 0.30317 0.0
C134 C 0.06272 0.64243 0.32003 0.0
O135 O 0.23225 0.7613 0.25776 0.0
O136 O 0.2378 0.69551 0.31386 0.0
N137 N 0.15091 0.84313 0.2438 0.0
C138 C 0.10978 0.80693 0.20766 0.0
C139 C 0.11981 0.91461 0.20798 0.0
N140 N 0.15772 0.91044 0.2436 0.0
N141 N 0.08955 0.85033 0.18483 0.0
C142 C 0.24943 0.73026 0.45018 0.0
C143 C 0.22122 0.61608 0.44804 0.0
N144 N 0.22013 0.70375 0.40981 0.0
N145 N 0.20167 0.63256 0.4087 0.0
N146 N 0.24994 0.67609 0.47498 0.0
H147 H 0.3374 0.8307 0.47982 0.0
H148 H 0.24435 0.81333 0.49037 0.0
H149 H 0.28622 0.84699 0.43673 0.0
C150 C 0.28146 0.81002 0.46464 0.0
C151 C 0.08511 0.7275 0.19554 0.0
H152 H 0.12414 0.70977 0.20818 0.0
H153 H 0.08067 0.72059 0.15868 0.0
H154 H 0.02879 0.69046 0.20988 0.0
O155 O 0.07902 0.69385 0.29128 0.0
O156 O 0.09609 0.65978 0.357 0.0
C157 C 0.24997 0.71509 0.27308 0.0
O158 O 0.16406 0.80596 0.39959 0.0
O159 O 0.13345 0.85113 0.34247 0.0
Zn160 Zn 0.36192 0.18297 0.61852 0.0
O161 O 0.4448 0.22143 0.57077 0.0
C162 C 0.40877 0.07435 0.65115 0.0
Zn163 Zn 0.44654 0.22599 0.67175 0.0
C164 C 0.51284 0.25257 0.58214 0.0
O165 O 0.53011 0.2583 0.6231 0.0
C166 C 0.29494 0.1637 0.71034 0.0
O167 O 0.4578 0.32884 0.6668 0.0
O168 O 0.37081 0.29353 0.61516 0.0
N169 N 0.52423 0.258 0.71855 0.0
C170 C 0.53002 0.28786 0.7591 0.0
C171 C 0.61686 0.26051 0.75292 0.0
N172 N 0.57775 0.24056 0.71473 0.0
N173 N 0.58669 0.28845 0.78159 0.0
C174 C 0.26939 0.0889 0.53706 0.0
C175 C 0.17993 0.11231 0.53282 0.0
N176 N 0.28109 0.13955 0.56911 0.0
N177 N 0.22555 0.15432 0.56621 0.0
N178 N 0.20652 0.07088 0.5141 0.0
H179 H 0.31664 0.04175 0.49194 0.0
H180 H 0.2987 0.00422 0.54756 0.0
H181 H 0.37769 0.0956 0.53686 0.0
C182 C 0.31894 0.05634 0.52783 0.0
C183 C 0.48272 0.31957 0.77574 0.0
H184 H 0.45725 0.33416 0.74793 0.0
H185 H 0.51639 0.37008 0.79627 0.0
H186 H 0.4368 0.27739 0.79691 0.0
O187 O 0.36373 0.19515 0.72019 0.0
O188 O 0.27559 0.14781 0.66961 0.0
C189 C 0.42079 0.34459 0.63976 0.0
O190 O 0.36604 0.07715 0.62145 0.0
O191 O 0.44117 0.12787 0.67768 0.0
C192 C 0.25685 0.60566 0.24539 0.0
C193 C 0.28026 0.682 0.24238 0.0
C194 C 0.27198 0.57003 0.21053 0.0
C195 C 0.31103 0.61012 0.17228 0.0
H196 H 0.22266 0.57251 0.27325 0.0
H197 H 0.25032 0.51041 0.21248 0.0
S198 S 0.39439 0.8131 0.15227 0.0
N199 N 0.35231 0.79835 0.20132 0.0
N200 N 0.38012 0.73083 0.13562 0.0
C201 C 0.34012 0.68747 0.17081 0.0
C202 C 0.32463 0.72362 0.206 0.0
C203 C 0.63983 0.28557 0.55576 0.0
C204 C 0.57102 0.28203 0.54779 0.0
C205 C 0.6923 0.30495 0.52139 0.0
C206 C 0.67736 0.32192 0.47863 0.0
H207 H 0.65156 0.26963 0.58794 0.0
H208 H 0.74321 0.3033 0.52749 0.0
S209 S 0.5107 0.33123 0.44264 0.0
N210 N 0.49438 0.30526 0.49559 0.0
N211 N 0.59354 0.34122 0.43094 0.0
C212 C 0.61152 0.32406 0.4712 0.0
C213 C 0.55791 0.30392 0.50588 0.0
C214 C 0.27906 0.57903 0.86902 0.0
C215 C 0.31887 0.57588 0.90615 0.0
C216 C 0.31402 0.63468 0.83696 0.0
C217 C 0.38976 0.68835 0.84097 0.0
H218 H 0.22099 0.53705 0.86404 0.0
H219 H 0.28291 0.63339 0.80755 0.0
S220 S 0.51648 0.70918 0.93403 0.0
N221 N 0.43633 0.63406 0.94703 0.0
N222 N 0.50194 0.74033 0.88636 0.0
C223 C 0.42908 0.68887 0.8792 0.0
C224 C 0.39353 0.63201 0.91201 0.0
C225 C 0.67984 0.32077 0.22537 0.0
C226 C 0.70263 0.26874 0.21451 0.0
C227 C 0.66303 0.35688 0.1918 0.0
C228 C 0.6682 0.34138 0.1469 0.0
H229 H 0.67897 0.33682 0.25974 0.0
H230 H 0.6506 0.40039 0.20068 0.0
S231 S 0.71472 0.20385 0.10054 0.0
N232 N 0.72101 0.19796 0.15523 0.0
N233 N 0.68991 0.26762 0.09253 0.0
C234 C 0.68533 0.28617 0.13553 0.0
C235 C 0.70235 0.24915 0.16938 0.0
C236 C 0.41871 0.70424 0.53434 0.0
C237 C 0.41662 0.74064 0.5735 0.0
C238 C 0.36066 0.67812 0.50375 0.0
C239 C 0.299 0.6879 0.51124 0.0
H240 H 0.46619 0.69704 0.52674 0.0
H241 H 0.36584 0.65382 0.47281 0.0
S242 S 0.2634 0.77346 0.61006 0.0
N243 N 0.34575 0.78093 0.61969 0.0
N244 N 0.23537 0.7305 0.56147 0.0
C245 C 0.294 0.72049 0.55119 0.0
C246 C 0.3533 0.74726 0.58259 0.0
C247 C 0.72677 0.43714 0.85338 0.0
C248 C 0.68506 0.43005 0.8922 0.0
C249 C 0.69529 0.38722 0.81836 0.0
C250 C 0.62127 0.32901 0.82104 0.0
H251 H 0.78365 0.48272 0.8494 0.0
H252 H 0.72759 0.39644 0.788 0.0
S253 S 0.4913 0.28042 0.91705 0.0
N254 N 0.56796 0.35665 0.93289 0.0
N255 N 0.50916 0.26111 0.86643 0.0
C256 C 0.58031 0.31801 0.86056 0.0
C257 C 0.61223 0.36914 0.89642 0.0
C258 C 0.46409 0.48628 0.03088 0.0
C259 C 0.42476 0.44699 -0.00759 0.0
C260 C 0.53818 0.5441 0.02891 0.0
C261 C 0.57943 0.56393 -0.01121 0.0
H262 H 0.43717 0.47326 0.06339 0.0
H263 H 0.56505 0.57049 0.06005 0.0
S264 S 0.50512 0.47986 0.87773 0.0
N265 N 0.43304 0.4351 0.91197 0.0
N266 N 0.57528 0.53991 0.90898 0.0
C267 C 0.54153 0.52601 0.94968 0.0
C268 C 0.46416 0.46811 0.95141 0.0
C269 C 0.06764 0.52455 0.323 0.0
C270 C 0.03282 0.5636 0.306 0.0
C271 C 0.03876 0.44832 0.31541 0.0
C272 C 0.97447 0.40795 0.28979 0.0
H273 H 0.11632 0.55231 0.34407 0.0
H274 H 0.06293 0.41961 0.33308 0.0
S275 S 0.8691 0.48489 0.23102 0.0
N276 N 0.93629 0.55764 0.2573 0.0
N277 N 0.88153 0.41355 0.24262 0.0
C278 C 0.94353 0.44751 0.2686 0.0
C279 C 0.97279 0.52554 0.27671 0.0
C280 C 0.47493 0.01473 0.614 0.0
C281 C 0.4375 0.02148 0.65173 0.0
C282 C 0.52972 0.99288 0.61838 0.0
C283 C 0.55078 0.9795 0.66079 0.0
H284 H 0.46499 0.0305 0.58128 0.0
H285 H 0.55559 0.9865 0.58841 0.0
S286 S 0.46822 0.98954 0.76981 0.0
N287 N 0.42222 0.00902 0.73217 0.0
N288 N 0.5286 0.97549 0.74119 0.0
C289 C 0.51292 0.98597 0.69852 0.0
C290 C 0.45512 0.00415 0.69374 0.0
C291 C 0.48372 0.53687 0.68097 0.0
C292 C 0.52921 0.58293 0.64583 0.0
C293 C 0.44194 0.45935 0.67665 0.0
C294 C 0.44284 0.42397 0.63688 0.0
H295 H 0.48083 0.56077 0.71263 0.0
H296 H 0.41127 0.42638 0.70552 0.0
S297 S 0.55117 0.5171 0.53444 0.0
N298 N 0.57102 0.58669 0.56921 0.0
N299 N 0.49305 0.43975 0.5616 0.0
C300 C 0.48681 0.46867 0.60108 0.0
C301 C 0.53 0.54832 0.60547 0.0
C302 C 0.96731 0.41547 0.98164 0.0
C303 C 0.04532 0.46012 0.98043 0.0
C304 C 0.9216 0.44806 0.98093 0.0
C305 C 0.9521 0.52633 0.97806 0.0
H306 H 0.94162 0.35545 0.98511 0.0
H307 H 0.86161 0.41146 0.9834 0.0
S308 S 0.1534 0.66678 0.96942 0.0
N309 N 0.15147 0.58606 0.97321 0.0
N310 N 0.06518 0.64671 0.97098 0.0
C311 C 0.0299 0.57112 0.97444 0.0
C312 C 0.07655 0.53813 0.97594 0.0
C313 C 0.45259 0.96503 0.28771 0.0
C314 C 0.41505 0.94651 0.32921 0.0
C315 C 0.53115 0.0005 0.28537 0.0
C316 C 0.57444 0.01867 0.32446 0.0
H317 H 0.42104 0.9505 0.25689 0.0
H318 H 0.55823 0.01646 0.25293 0.0
S319 S 0.50326 0.98189 0.44109 0.0
N320 N 0.42734 0.9486 0.41002 0.0
N321 N 0.57423 0.0153 0.40559 0.0
C322 C 0.53742 -9e-05 0.36596 0.0
C323 C 0.45796 0.96388 0.36835 0.0
C324 C 0.2611 0.15576 0.79083 0.0
C325 C 0.24161 0.15726 0.7459 0.0
C326 C 0.22539 0.17098 0.82578 0.0
C327 C 0.16887 0.18834 0.81724 0.0
H328 H 0.30753 0.14726 0.79894 0.0
H329 H 0.24491 0.17342 0.85963 0.0
S330 S 0.09034 0.19095 0.7067 0.0
N331 N 0.15655 0.17036 0.69537 0.0
N332 N 0.0896 0.19912 0.76164 0.0
C333 C 0.14437 0.18404 0.77311 0.0
C334 C 0.18069 0.16835 0.73725 0.0
C335 C 0.0407 0.18398 0.16068 0.0
C336 C 0.96649 0.13513 0.14796 0.0
C337 C 0.09562 0.22654 0.12879 0.0
C338 C 0.07839 0.22103 0.08296 0.0
H339 H 0.05469 0.19362 0.19582 0.0
H340 H 0.15081 0.26753 0.14032 0.0
S341 S 0.893 0.09641 0.03264 0.0
N342 N 0.87914 0.08009 0.08693 0.0
N343 N 0.98266 0.15855 0.0264 0.0
C344 C 0.00559 0.16793 0.0696 0.0
C345 C 0.94944 0.1254 0.10231 0.0
C346 C 0.81619 0.96926 0.44213 0.0
C347 C 0.81328 0.98901 0.48669 0.0
C348 C 0.83535 0.02176 0.40737 0.0
C349 C 0.85198 0.09556 0.41623 0.0
H350 H 0.79878 0.91185 0.43394 0.0
H351 H 0.83124 0.00271 0.37322 0.0
S352 S 0.8655 0.17718 0.5287 0.0
N353 N 0.83879 0.08871 0.53865 0.0
N354 N 0.87441 0.18746 0.47386 0.0
C355 C 0.85576 0.1171 0.46124 0.0
C356 C 0.83635 0.06376 0.49635 0.0
C357 C 0.75909 0.8602 0.79663 0.0
C358 C 0.76933 0.85077 0.75099 0.0
C359 C 0.79705 0.84469 0.8299 0.0
C360 C 0.84658 0.81903 0.81889 0.0
H361 H 0.71753 0.87482 0.80689 0.0
H362 H 0.78371 0.8476 0.86464 0.0
S363 S 0.89902 0.79177 0.70493 0.0
N364 N 0.83788 0.82019 0.69661 0.0
N365 N 0.90882 0.79046 0.75969 0.0
C366 C 0.86189 0.81478 0.77359 0.0
C367 C 0.82344 0.83099 0.73945 0.0
C368 C 0.04642 0.84331 0.10715 0.0
C369 C 0.03042 0.82537 0.15264 0.0
C370 C 0.99076 0.8068 0.07455 0.0
C371 C 0.91799 0.75081 0.08672 0.0
H372 H 0.10312 0.88232 0.09668 0.0
H373 H 0.0063 0.81836 0.0396 0.0
S374 S 0.847 0.6915 0.20229 0.0
N375 N 0.93595 0.75504 0.20865 0.0
N376 N 0.83172 0.68531 0.14789 0.0
C377 C 0.90061 0.73665 0.13247 0.0
C378 C 0.9568 0.77421 0.16534 0.0
C379 C 0.14647 0.93833 0.49447 0.0
C380 C 0.17048 0.01225 0.48177 0.0
C381 C 0.12778 0.88253 0.46238 0.0
C382 C 0.13307 0.89877 0.41627 0.0
H383 H 0.14687 0.92479 0.52941 0.0
H384 H 0.11456 0.82748 0.47379 0.0
S385 S 0.18468 0.08298 0.36648 0.0
N386 N 0.19144 0.09801 0.42096 0.0
N387 N 0.15677 0.99343 0.36002 0.0
C388 C 0.15074 0.97141 0.40337 0.0
C389 C 0.16965 0.02824 0.43632 0.0
loop_
_geom_bond_atom_site_label_1
_geom_bond_atom_site_label_2
_geom_bond_distance
_geom_bond_site_symmetry_2
_ccdc_geom_bond_type
Zn0 O1 2.055 . S
Zn0 O8 2.046 1_554 S
Zn0 N16 2.036 . S
Zn0 O28 2.053 . S
Zn0 O30 2.066 . S
O1 Zn0 2.055 . S
O1 C4 1.259 1_554 S
C2 O30 1.256 . S
C2 O31 1.244 . S
Zn3 O5 2.046 . S
Zn3 O7 2.055 . S
Zn3 N9 2.036 . S
Zn3 O27 2.066 . S
Zn3 O31 2.053 1_556 S
C4 O1 1.259 1_556 S
C4 O5 1.254 . S
O5 Zn3 2.046 . S
O5 C4 1.254 . S
C6 O27 1.256 1_554 S
C6 O28 1.244 . S
O7 Zn3 2.055 . S
O7 C29 1.259 . S
O8 Zn0 2.046 1_556 S
O8 C29 1.254 . S
N9 Zn3 2.036 . S
N9 C10 1.298 . S
N9 N12 1.398 . S
C10 N9 1.298 . S
C10 N13 1.367 . S
C10 C23 1.481 . S
C11 N12 1.299 . S
C11 N13 1.379 . S
N12 N9 1.398 . S
N12 C11 1.299 . S
N13 C10 1.367 . S
N13 C11 1.379 . S
C14 N16 1.298 . S
C14 N18 1.367 . S
C14 C22 1.481 . S
C15 N17 1.299 . S
C15 N18 1.379 . S
N16 Zn0 2.036 . S
N16 C14 1.298 . S
N16 N17 1.398 . S
N17 C15 1.299 . S
N17 N16 1.398 . S
N18 C14 1.367 . S
N18 C15 1.379 . S
H19 C22 0.980 . S
H20 C22 0.981 . S
H21 C22 0.981 . S
C22 C14 1.481 . S
C22 H19 0.980 . S
C22 H20 0.981 . S
C22 H21 0.981 . S
C23 C10 1.481 . S
C23 H24 0.980 . S
C23 H25 0.981 . S
C23 H26 0.981 . S
H24 C23 0.980 . S
H25 C23 0.981 . S
H26 C23 0.981 . S
O27 Zn3 2.066 . S
O27 C6 1.256 1_556 S
O28 Zn0 2.053 . S
O28 C6 1.244 . S
C29 O7 1.259 . S
C29 O8 1.254 . S
O30 Zn0 2.066 . S
O30 C2 1.256 . S
O31 C2 1.244 . S
O31 Zn3 2.053 1_554 S
Zn32 O33 2.055 . S
Zn32 O40 2.046 . S
Zn32 N48 2.036 . S
Zn32 O60 2.053 . S
Zn32 O62 2.066 . S
O33 Zn32 2.055 . S
O33 C36 1.259 . S
C34 O62 1.256 . S
C34 O63 1.244 . S
Zn35 O37 2.046 . S
Zn35 O39 2.055 . S
Zn35 N41 2.036 . S
Zn35 O59 2.066 . S
Zn35 O63 2.053 . S
C36 O33 1.259 . S
C36 O37 1.254 . S
O37 Zn35 2.046 . S
O37 C36 1.254 . S
C38 O59 1.256 . S
C38 O60 1.244 . S
O39 Zn35 2.055 . S
O39 C61 1.259 . S
O40 Zn32 2.046 . S
O40 C61 1.254 . S
N41 Zn35 2.036 . S
N41 C42 1.298 . S
N41 N44 1.398 . S
C42 N41 1.298 . S
C42 N45 1.367 . S
C42 C55 1.481 . S
C43 N44 1.299 . S
C43 N45 1.379 . S
N44 N41 1.398 . S
N44 C43 1.299 . S
N45 C42 1.367 . S
N45 C43 1.379 . S
C46 N48 1.298 . S
C46 N50 1.367 . S
C46 C54 1.481 . S
C47 N49 1.299 . S
C47 N50 1.379 . S
N48 Zn32 2.036 . S
N48 C46 1.298 . S
N48 N49 1.398 . S
N49 C47 1.299 . S
N49 N48 1.398 . S
N50 C46 1.367 . S
N50 C47 1.379 . S
H51 C54 0.980 . S
H52 C54 0.981 . S
H53 C54 0.981 . S
C54 C46 1.481 . S
C54 H51 0.980 . S
C54 H52 0.981 . S
C54 H53 0.981 . S
C55 C42 1.481 . S
C55 H56 0.980 . S
C55 H57 0.981 . S
C55 H58 0.981 . S
H56 C55 0.980 . S
H57 C55 0.981 . S
H58 C55 0.981 . S
O59 Zn35 2.066 . S
O59 C38 1.256 . S
O60 Zn32 2.053 . S
O60 C38 1.244 . S
C61 O39 1.259 . S
C61 O40 1.254 . S
O62 Zn32 2.066 . S
O62 C34 1.256 . S
O63 C34 1.244 . S
O63 Zn35 2.053 . S
Zn64 O65 2.055 . S
Zn64 O72 2.046 . S
Zn64 N80 2.036 . S
Zn64 O92 2.053 . S
Zn64 O94 2.066 . S
O65 Zn64 2.055 . S
O65 C68 1.259 . S
C66 O94 1.256 . S
C66 O95 1.244 . S
Zn67 O69 2.046 . S
Zn67 O71 2.055 . S
Zn67 N73 2.036 . S
Zn67 O91 2.066 . S
Zn67 O95 2.053 . S
C68 O65 1.259 . S
C68 O69 1.254 . S
O69 Zn67 2.046 . S
O69 C68 1.254 . S
C70 O91 1.256 . S
C70 O92 1.244 . S
O71 Zn67 2.055 . S
O71 C93 1.259 . S
O72 Zn64 2.046 . S
O72 C93 1.254 . S
N73 Zn67 2.036 . S
N73 C74 1.298 . S
N73 N76 1.398 . S
C74 N73 1.298 . S
C74 N77 1.367 . S
C74 C87 1.481 . S
C75 N76 1.299 . S
C75 N77 1.379 . S
N76 N73 1.398 . S
N76 C75 1.299 . S
N77 C74 1.367 . S
N77 C75 1.379 . S
C78 N80 1.298 . S
C78 N82 1.367 . S
C78 C86 1.481 . S
C79 N81 1.299 . S
C79 N82 1.379 . S
N80 Zn64 2.036 . S
N80 C78 1.298 . S
N80 N81 1.398 . S
N81 C79 1.299 . S
N81 N80 1.398 . S
N82 C78 1.367 . S
N82 C79 1.379 . S
H83 C86 0.980 . S
H84 C86 0.981 . S
H85 C86 0.981 . S
C86 C78 1.481 . S
C86 H83 0.980 . S
C86 H84 0.981 . S
C86 H85 0.981 . S
C87 C74 1.481 . S
C87 H88 0.980 . S
C87 H89 0.981 . S
C87 H90 0.981 . S
H88 C87 0.980 . S
H89 C87 0.981 . S
H90 C87 0.981 . S
O91 Zn67 2.066 . S
O91 C70 1.256 . S
O92 Zn64 2.053 . S
O92 C70 1.244 . S
C93 O71 1.259 . S
C93 O72 1.254 . S
O94 Zn64 2.066 . S
O94 C66 1.256 . S
O95 C66 1.244 . S
O95 Zn67 2.053 . S
Zn96 O97 2.055 . S
Zn96 O104 2.046 1_554 S
Zn96 N112 2.036 . S
Zn96 O124 2.053 . S
Zn96 O126 2.066 . S
O97 Zn96 2.055 . S
O97 C100 1.259 1_554 S
C98 O126 1.256 . S
C98 O127 1.244 . S
Zn99 O101 2.046 . S
Zn99 O103 2.055 . S
Zn99 N105 2.036 . S
Zn99 O123 2.066 . S
Zn99 O127 2.053 1_556 S
C100 O97 1.259 1_556 S
C100 O101 1.254 . S
O101 Zn99 2.046 . S
O101 C100 1.254 . S
C102 O123 1.256 1_554 S
C102 O124 1.244 . S
O103 Zn99 2.055 . S
O103 C125 1.259 . S
O104 Zn96 2.046 1_556 S
O104 C125 1.254 . S
N105 Zn99 2.036 . S
N105 C106 1.298 . S
N105 N108 1.398 . S
C106 N105 1.298 . S
C106 N109 1.367 . S
C106 C119 1.481 . S
C107 N108 1.299 . S
C107 N109 1.379 . S
N108 N105 1.398 . S
N108 C107 1.299 . S
N109 C106 1.367 . S
N109 C107 1.379 . S
C110 N112 1.298 . S
C110 N114 1.367 . S
C110 C118 1.481 . S
C111 N113 1.299 . S
C111 N114 1.379 . S
N112 Zn96 2.036 . S
N112 C110 1.298 . S
N112 N113 1.398 . S
N113 C111 1.299 . S
N113 N112 1.398 . S
N114 C110 1.367 . S
N114 C111 1.379 . S
H115 C118 0.980 . S
H116 C118 0.981 . S
H117 C118 0.981 . S
C118 C110 1.481 . S
C118 H115 0.980 . S
C118 H116 0.981 . S
C118 H117 0.981 . S
C119 C106 1.481 . S
C119 H120 0.980 . S
C119 H121 0.981 . S
C119 H122 0.981 . S
H120 C119 0.980 . S
H121 C119 0.981 . S
H122 C119 0.981 . S
O123 Zn99 2.066 . S
O123 C102 1.256 1_556 S
O124 Zn96 2.053 . S
O124 C102 1.244 . S
C125 O103 1.259 . S
C125 O104 1.254 . S
O126 Zn96 2.066 . S
O126 C98 1.256 . S
O127 C98 1.244 . S
O127 Zn99 2.053 1_554 S
Zn128 O129 2.055 . S
Zn128 O136 2.046 . S
Zn128 N144 2.036 . S
Zn128 O156 2.053 . S
Zn128 O158 2.066 . S
O129 Zn128 2.055 . S
O129 C132 1.259 . S
C130 O158 1.256 . S
C130 O159 1.244 . S
Zn131 O133 2.046 . S
Zn131 O135 2.055 . S
Zn131 N137 2.036 . S
Zn131 O155 2.066 . S
Zn131 O159 2.053 . S
C132 O129 1.259 . S
C132 O133 1.254 . S
O133 Zn131 2.046 . S
O133 C132 1.254 . S
C134 O155 1.256 . S
C134 O156 1.244 . S
O135 Zn131 2.055 . S
O135 C157 1.259 . S
O136 Zn128 2.046 . S
O136 C157 1.254 . S
N137 Zn131 2.036 . S
N137 C138 1.298 . S
N137 N140 1.398 . S
C138 N137 1.298 . S
C138 N141 1.367 . S
C138 C151 1.481 . S
C139 N140 1.299 . S
C139 N141 1.379 . S
N140 N137 1.398 . S
N140 C139 1.299 . S
N141 C138 1.367 . S
N141 C139 1.379 . S
C142 N144 1.298 . S
C142 N146 1.367 . S
C142 C150 1.481 . S
C143 N145 1.299 . S
C143 N146 1.379 . S
N144 Zn128 2.036 . S
N144 C142 1.298 . S
N144 N145 1.398 . S
N145 C143 1.299 . S
N145 N144 1.398 . S
N146 C142 1.367 . S
N146 C143 1.379 . S
H147 C150 0.980 . S
H148 C150 0.981 . S
H149 C150 0.981 . S
C150 C142 1.481 . S
C150 H147 0.980 . S
C150 H148 0.981 . S
C150 H149 0.981 . S
C151 C138 1.481 . S
C151 H152 0.980 . S
C151 H153 0.981 . S
C151 H154 0.981 . S
H152 C151 0.980 . S
H153 C151 0.981 . S
H154 C151 0.981 . S
O155 Zn131 2.066 . S
O155 C134 1.256 . S
O156 Zn128 2.053 . S
O156 C134 1.244 . S
C157 O135 1.259 . S
C157 O136 1.254 . S
O158 Zn128 2.066 . S
O158 C130 1.256 . S
O159 C130 1.244 . S
O159 Zn131 2.053 . S
Zn160 O161 2.055 . S
Zn160 O168 2.046 . S
Zn160 N176 2.036 . S
Zn160 O188 2.053 . S
Zn160 O190 2.066 . S
O161 Zn160 2.055 . S
O161 C164 1.259 . S
C162 O190 1.256 . S
C162 O191 1.244 . S
Zn163 O165 2.046 . S
Zn163 O167 2.055 . S
Zn163 N169 2.036 . S
Zn163 O187 2.066 . S
Zn163 O191 2.053 . S
C164 O161 1.259 . S
C164 O165 1.254 . S
O165 Zn163 2.046 . S
O165 C164 1.254 . S
C166 O187 1.256 . S
C166 O188 1.244 . S
O167 Zn163 2.055 . S
O167 C189 1.259 . S
O168 Zn160 2.046 . S
O168 C189 1.254 . S
N169 Zn163 2.036 . S
N169 C170 1.298 . S
N169 N172 1.398 . S
C170 N169 1.298 . S
C170 N173 1.367 . S
C170 C183 1.481 . S
C171 N172 1.299 . S
C171 N173 1.379 . S
N172 N169 1.398 . S
N172 C171 1.299 . S
N173 C170 1.367 . S
N173 C171 1.379 . S
C174 N176 1.298 . S
C174 N178 1.367 . S
C174 C182 1.481 . S
C175 N177 1.299 . S
C175 N178 1.379 . S
N176 Zn160 2.036 . S
N176 C174 1.298 . S
N176 N177 1.398 . S
N177 C175 1.299 . S
N177 N176 1.398 . S
N178 C174 1.367 . S
N178 C175 1.379 . S
H179 C182 0.980 . S
H180 C182 0.981 . S
H181 C182 0.981 . S
C182 C174 1.481 . S
C182 H179 0.980 . S
C182 H180 0.981 . S
C182 H181 0.981 . S
C183 C170 1.481 . S
C183 H184 0.980 . S
C183 H185 0.981 . S
C183 H186 0.981 . S
H184 C183 0.980 . S
H185 C183 0.981 . S
H186 C183 0.981 . S
O187 Zn163 2.066 . S
O187 C166 1.256 . S
O188 Zn160 2.053 . S
O188 C166 1.244 . S
C189 O167 1.259 . S
C189 O168 1.254 . S
O190 Zn160 2.066 . S
O190 C162 1.256 . S
O191 C162 1.244 . S
O191 Zn163 2.053 . S
C192 C193 1.369 . S
C192 C194 1.419 . S
C192 H196 0.930 . S
C193 C192 1.369 . S
C193 C202 1.429 . S
C194 C192 1.419 . S
C194 C195 1.363 . S
C194 H197 0.929 . S
C195 C194 1.363 . S
C195 C201 1.428 . S
H196 C192 0.930 . S
H197 C194 0.929 . S
S198 N199 1.613 . S
S198 N200 1.610 . S
N199 S198 1.613 . S
N199 C202 1.350 . S
N200 S198 1.610 . S
N200 C201 1.351 . S
C201 C195 1.428 . S
C201 N200 1.351 . S
C201 C202 1.434 . S
C202 C193 1.429 . S
C202 N199 1.350 . S
C202 C201 1.434 . S
C203 C204 1.369 . S
C203 C205 1.419 . S
C203 H207 0.930 . S
C204 C203 1.369 . S
C204 C213 1.429 . S
C205 C203 1.419 . S
C205 C206 1.363 . S
C205 H208 0.929 . S
C206 C205 1.363 . S
C206 C212 1.428 . S
H207 C203 0.930 . S
H208 C205 0.929 . S
S209 N210 1.613 . S
S209 N211 1.610 . S
N210 S209 1.613 . S
N210 C213 1.350 . S
N211 S209 1.610 . S
N211 C212 1.351 . S
C212 C206 1.428 . S
C212 N211 1.351 . S
C212 C213 1.434 . S
C213 C204 1.429 . S
C213 N210 1.350 . S
C213 C212 1.434 . S
C214 C215 1.369 . S
C214 C216 1.419 . S
C214 H218 0.930 . S
C215 C214 1.369 . S
C215 C224 1.429 . S
C216 C214 1.419 . S
C216 C217 1.363 . S
C216 H219 0.929 . S
C217 C216 1.363 . S
C217 C223 1.428 . S
H218 C214 0.930 . S
H219 C216 0.929 . S
S220 N221 1.613 . S
S220 N222 1.610 . S
N221 S220 1.613 . S
N221 C224 1.350 . S
N222 S220 1.610 . S
N222 C223 1.351 . S
C223 C217 1.428 . S
C223 N222 1.351 . S
C223 C224 1.434 . S
C224 C215 1.429 . S
C224 N221 1.350 . S
C224 C223 1.434 . S
C225 C226 1.369 . S
C225 C227 1.419 . S
C225 H229 0.930 . S
C226 C225 1.369 . S
C226 C235 1.429 . S
C227 C225 1.419 . S
C227 C228 1.363 . S
C227 H230 0.929 . S
C228 C227 1.363 . S
C228 C234 1.428 . S
H229 C225 0.930 . S
H230 C227 0.929 . S
S231 N232 1.613 . S
S231 N233 1.610 . S
N232 S231 1.613 . S
N232 C235 1.350 . S
N233 S231 1.610 . S
N233 C234 1.351 . S
C234 C228 1.428 . S
C234 N233 1.351 . S
C234 C235 1.434 . S
C235 C226 1.429 . S
C235 N232 1.350 . S
C235 C234 1.434 . S
C236 C237 1.369 . S
C236 C238 1.419 . S
C236 H240 0.930 . S
C237 C236 1.369 . S
C237 C246 1.429 . S
C238 C236 1.419 . S
C238 C239 1.363 . S
C238 H241 0.929 . S
C239 C238 1.363 . S
C239 C245 1.428 . S
H240 C236 0.930 . S
H241 C238 0.929 . S
S242 N243 1.613 . S
S242 N244 1.610 . S
N243 S242 1.613 . S
N243 C246 1.350 . S
N244 S242 1.610 . S
N244 C245 1.351 . S
C245 C239 1.428 . S
C245 N244 1.351 . S
C245 C246 1.434 . S
C246 C237 1.429 . S
C246 N243 1.350 . S
C246 C245 1.434 . S
C247 C248 1.369 . S
C247 C249 1.419 . S
C247 H251 0.930 . S
C248 C247 1.369 . S
C248 C257 1.429 . S
C249 C247 1.419 . S
C249 C250 1.363 . S
C249 H252 0.929 . S
C250 C249 1.363 . S
C250 C256 1.428 . S
H251 C247 0.930 . S
H252 C249 0.929 . S
S253 N254 1.613 . S
S253 N255 1.610 . S
N254 S253 1.613 . S
N254 C257 1.350 . S
N255 S253 1.610 . S
N255 C256 1.351 . S
C256 C250 1.428 . S
C256 N255 1.351 . S
C256 C257 1.434 . S
C257 C248 1.429 . S
C257 N254 1.350 . S
C257 C256 1.434 . S
C258 C259 1.369 . S
C258 C260 1.419 . S
C258 H262 0.930 . S
C259 C258 1.369 . S
C259 C268 1.429 1_554 S
C260 C258 1.419 . S
C260 C261 1.363 . S
C260 H263 0.929 . S
C261 C260 1.363 . S
C261 C267 1.428 1_554 S
H262 C258 0.930 . S
H263 C260 0.929 . S
S264 N265 1.613 . S
S264 N266 1.610 . S
N265 S264 1.613 . S
N265 C268 1.350 . S
N266 S264 1.610 . S
N266 C267 1.351 . S
C267 C261 1.428 1_556 S
C267 N266 1.351 . S
C267 C268 1.434 . S
C268 C259 1.429 1_556 S
C268 N265 1.350 . S
C268 C267 1.434 . S
C269 C270 1.369 . S
C269 C271 1.419 . S
C269 H273 0.930 . S
C270 C269 1.369 . S
C270 C279 1.429 1_455 S
C271 C269 1.419 . S
C271 C272 1.363 1_455 S
C271 H274 0.929 . S
C272 C271 1.363 1_655 S
C272 C278 1.428 . S
H273 C269 0.930 . S
H274 C271 0.929 . S
S275 N276 1.613 . S
S275 N277 1.610 . S
N276 S275 1.613 . S
N276 C279 1.350 . S
N277 S275 1.610 . S
N277 C278 1.351 . S
C278 C272 1.428 . S
C278 N277 1.351 . S
C278 C279 1.434 . S
C279 C270 1.429 1_655 S
C279 N276 1.350 . S
C279 C278 1.434 . S
C280 C281 1.369 . S
C280 C282 1.419 . S
C280 H284 0.930 . S
C281 C280 1.369 . S
C281 C290 1.429 1_545 S
C282 C280 1.419 . S
C282 C283 1.363 1_545 S
C282 H285 0.929 . S
C283 C282 1.363 1_565 S
C283 C289 1.428 . S
H284 C280 0.930 . S
H285 C282 0.929 . S
S286 N287 1.613 . S
S286 N288 1.610 . S
N287 S286 1.613 . S
N287 C290 1.350 . S
N288 S286 1.610 . S
N288 C289 1.351 . S
C289 C283 1.428 . S
C289 N288 1.351 . S
C289 C290 1.434 . S
C290 C281 1.429 1_565 S
C290 N287 1.350 . S
C290 C289 1.434 . S
C291 C292 1.369 . S
C291 C293 1.419 . S
C291 H295 0.930 . S
C292 C291 1.369 . S
C292 C301 1.429 . S
C293 C291 1.419 . S
C293 C294 1.363 . S
C293 H296 0.929 . S
C294 C293 1.363 . S
C294 C300 1.428 . S
H295 C291 0.930 . S
H296 C293 0.929 . S
S297 N298 1.613 . S
S297 N299 1.610 . S
N298 S297 1.613 . S
N298 C301 1.350 . S
N299 S297 1.610 . S
N299 C300 1.351 . S
C300 C294 1.428 . S
C300 N299 1.351 . S
C300 C301 1.434 . S
C301 C292 1.429 . S
C301 N298 1.350 . S
C301 C300 1.434 . S
C302 C303 1.369 1_655 S
C302 C304 1.419 . S
C302 H306 0.930 . S
C303 C302 1.369 1_455 S
C303 C312 1.429 . S
C304 C302 1.419 . S
C304 C305 1.363 . S
C304 H307 0.929 . S
C305 C304 1.363 . S
C305 C311 1.428 1_655 S
H306 C302 0.930 . S
H307 C304 0.929 . S
S308 N309 1.613 . S
S308 N310 1.610 . S
N309 S308 1.613 . S
N309 C312 1.350 1_554 S
N310 S308 1.610 . S
N310 C311 1.351 1_554 S
C311 C305 1.428 1_455 S
C311 N310 1.351 1_556 S
C311 C312 1.434 . S
C312 C303 1.429 . S
C312 N309 1.350 1_556 S
C312 C311 1.434 . S
C313 C314 1.369 . S
C313 C315 1.419 . S
C313 H317 0.930 . S
C314 C313 1.369 . S
C314 C323 1.429 1_565 S
C315 C313 1.419 . S
C315 C316 1.363 1_565 S
C315 H318 0.929 . S
C316 C315 1.363 1_545 S
C316 C322 1.428 . S
H317 C313 0.930 . S
H318 C315 0.929 . S
S319 N320 1.613 . S
S319 N321 1.610 . S
N320 S319 1.613 . S
N320 C323 1.350 . S
N321 S319 1.610 . S
N321 C322 1.351 . S
C322 C316 1.428 . S
C322 N321 1.351 . S
C322 C323 1.434 . S
C323 C314 1.429 1_545 S
C323 N320 1.350 . S
C323 C322 1.434 . S
C324 C325 1.369 . S
C324 C326 1.419 . S
C324 H328 0.930 . S
C325 C324 1.369 . S
C325 C334 1.429 . S
C326 C324 1.419 . S
C326 C327 1.363 . S
C326 H329 0.929 . S
C327 C326 1.363 . S
C327 C333 1.428 . S
H328 C324 0.930 . S
H329 C326 0.929 . S
S330 N331 1.613 . S
S330 N332 1.610 . S
N331 S330 1.613 . S
N331 C334 1.350 . S
N332 S330 1.610 . S
N332 C333 1.351 . S
C333 C327 1.428 . S
C333 N332 1.351 . S
C333 C334 1.434 . S
C334 C325 1.429 . S
C334 N331 1.350 . S
C334 C333 1.434 . S
C335 C336 1.369 . S
C335 C337 1.419 . S
C335 H339 0.930 . S
C336 C335 1.369 . S
C336 C345 1.429 1_455 S
C337 C335 1.419 . S
C337 C338 1.363 . S
C337 H340 0.929 . S
C338 C337 1.363 . S
C338 C344 1.428 . S
H339 C335 0.930 . S
H340 C337 0.929 . S
S341 N342 1.613 . S
S341 N343 1.610 . S
N342 S341 1.613 . S
N342 C345 1.350 . S
N343 S341 1.610 . S
N343 C344 1.351 1_655 S
C344 C338 1.428 . S
C344 N343 1.351 1_455 S
C344 C345 1.434 1_455 S
C345 C336 1.429 1_655 S
C345 N342 1.350 . S
C345 C344 1.434 1_655 S
C346 C347 1.369 . S
C346 C348 1.419 . S
C346 H350 0.930 1_545 S
C347 C346 1.369 . S
C347 C356 1.429 . S
C348 C346 1.419 . S
C348 C349 1.363 . S
C348 H351 0.929 . S
C349 C348 1.363 . S
C349 C355 1.428 . S
H350 C346 0.930 1_565 S
H351 C348 0.929 . S
S352 N353 1.613 1_455 S
S352 N354 1.610 1_455 S
N353 S352 1.613 1_655 S
N353 C356 1.350 . S
N354 S352 1.610 1_655 S
N354 C355 1.351 . S
C355 C349 1.428 . S
C355 N354 1.351 . S
C355 C356 1.434 . S
C356 C347 1.429 . S
C356 N353 1.350 . S
C356 C355 1.434 . S
C357 C358 1.369 . S
C357 C359 1.419 . S
C357 H361 0.930 . S
C358 C357 1.369 . S
C358 C367 1.429 . S
C359 C357 1.419 . S
C359 C360 1.363 . S
C359 H362 0.929 . S
C360 C359 1.363 . S
C360 C366 1.428 . S
H361 C357 0.930 . S
H362 C359 0.929 . S
S363 N364 1.613 . S
S363 N365 1.610 . S
N364 S363 1.613 . S
N364 C367 1.350 . S
N365 S363 1.610 . S
N365 C366 1.351 . S
C366 C360 1.428 . S
C366 N365 1.351 . S
C366 C367 1.434 . S
C367 C358 1.429 . S
C367 N364 1.350 . S
C367 C366 1.434 . S
C368 C369 1.369 1_455 S
C368 C370 1.419 1_455 S
C368 H372 0.930 . S
C369 C368 1.369 1_655 S
C369 C378 1.429 . S
C370 C368 1.419 1_655 S
C370 C371 1.363 . S
C370 H373 0.929 1_655 S
C371 C370 1.363 . S
C371 C377 1.428 . S
H372 C368 0.930 . S
H373 C370 0.929 1_455 S
S374 N375 1.613 . S
S374 N376 1.610 . S
N375 S374 1.613 . S
N375 C378 1.350 . S
N376 S374 1.610 . S
N376 C377 1.351 . S
C377 C371 1.428 . S
C377 N376 1.351 . S
C377 C378 1.434 . S
C378 C369 1.429 . S
C378 N375 1.350 . S
C378 C377 1.434 . S
C379 C380 1.369 . S
C379 C381 1.419 . S
C379 H383 0.930 . S
C380 C379 1.369 . S
C380 C389 1.429 . S
C381 C379 1.419 . S
C381 C382 1.363 . S
C381 H384 0.929 . S
C382 C381 1.363 . S
C382 C388 1.428 . S
H383 C379 0.930 . S
H384 C381 0.929 . S
S385 N386 1.613 1_655 S
S385 N387 1.610 1_655 S
N386 S385 1.613 1_455 S
N386 C389 1.350 . S
N387 S385 1.610 1_455 S
N387 C388 1.351 . S
C388 C382 1.428 . S
C388 N387 1.351 . S
C388 C389 1.434 . S
C389 C380 1.429 . S
C389 N386 1.350 . S
C389 C388 1.434 . S
C193 C157 0.860 . S
C195 N18 0.867 . S
C204 C164 0.867 . S
C206 N45 0.871 . S
C215 C29 0.866 . S
C217 N82 0.868 . S
C226 C36 0.860 . S
C228 N114 0.869 . S
C237 C93 0.869 . S
C239 N146 0.869 . S
C248 C125 0.866 . S
C250 N173 0.868 . S
C259 C6 1.808 . S
C261 C102 1.811 . S
C270 C134 1.815 . S
C272 C34 1.808 . S
C281 C162 1.811 . S
C283 C70 1.811 . S
C292 C68 1.737 . S
C294 C189 1.739 . S
C303 C4 1.734 . S
C305 C100 1.741 . S
C314 C132 1.742 . S
C316 C61 1.734 . S
C325 C166 1.258 . S
C327 N13 1.218 . S
C336 N50 1.218 1_455 S
C338 C2 1.258 . S
C347 N77 1.223 1_545 S
C349 C38 1.254 . S
C358 C66 1.258 . S
C360 N109 1.217 . S
C369 N141 1.219 1_655 S
C371 C98 1.253 . S
C380 N178 1.223 1_565 S
C382 C130 1.255 . S
