# Generated by pormake.
# Topology qtz-e, (6)-cn, num edge types: 1
# Building blocks:
#     Node 0, Type 0, BuildingBlock: CUWYAW_clean_sbu_0, # of connection points: 6
#     Node 1, Type 0, BuildingBlock: CUWYAW_clean_sbu_0, # of connection points: 6
#     Node 2, Type 0, BuildingBlock: CUWYAW_clean_sbu_0, # of connection points: 6
#     Node 3, Type 0, BuildingBlock: CUWYAW_clean_sbu_0, # of connection points: 6
#     Node 4, Type 0, BuildingBlock: CUWYAW_clean_sbu_0, # of connection points: 6
#     Node 5, Type 0, BuildingBlock: CUWYAW_clean_sbu_0, # of connection points: 6
#     Edge 6, Type (0, 0), BuildingBlock: UVAHIK_clean_linker_0, # of connection points: 2
#     Edge 7, Type (0, 0), BuildingBlock: UVAHIK_clean_linker_0, # of connection points: 2
#     Edge 8, Type (0, 0), BuildingBlock: UVAHIK_clean_linker_0, # of connection points: 2
#     Edge 9, Type (0, 0), BuildingBlock: UVAHIK_clean_linker_0, # of connection points: 2
#     Edge 10, Type (0, 0), BuildingBlock: UVAHIK_clean_linker_0, # of connection points: 2
#     Edge 11, Type (0, 0), BuildingBlock: UVAHIK_clean_linker_0, # of connection points: 2
#     Edge 12, Type (0, 0), BuildingBlock: UVAHIK_clean_linker_0, # of connection points: 2
#     Edge 13, Type (0, 0), BuildingBlock: UVAHIK_clean_linker_0, # of connection points: 2
#     Edge 14, Type (0, 0), BuildingBlock: UVAHIK_clean_linker_0, # of connection points: 2
#     Edge 15, Type (0, 0), BuildingBlock: UVAHIK_clean_linker_0, # of connection points: 2
#     Edge 16, Type (0, 0), BuildingBlock: UVAHIK_clean_linker_0, # of connection points: 2
#     Edge 17, Type (0, 0), BuildingBlock: UVAHIK_clean_linker_0, # of connection points: 2
#     Edge 18, Type (0, 0), BuildingBlock: UVAHIK_clean_linker_0, # of connection points: 2
#     Edge 19, Type (0, 0), BuildingBlock: UVAHIK_clean_linker_0, # of connection points: 2
#     Edge 20, Type (0, 0), BuildingBlock: UVAHIK_clean_linker_0, # of connection points: 2
#     Edge 21, Type (0, 0), BuildingBlock: UVAHIK_clean_linker_0, # of connection points: 2
#     Edge 22, Type (0, 0), BuildingBlock: UVAHIK_clean_linker_0, # of connection points: 2
#     Edge 23, Type (0, 0), BuildingBlock: UVAHIK_clean_linker_0, # of connection points: 2
# Relax obj value: 0.147
# Max RMSD: 0.203
# Mean RMSD: 0.203
data_MOF--net-qtz-e--node1-CUWYAW_clean_sbu_0--edge1-UVAHIK_clean_linker_0
_symmetry_space_group_name_H-M    P1
_symmetry_Int_Tables_number       1
_symmetry_cell_setting            triclinic
loop_
_symmetry_equiv_pos_as_xyz
'x, y, z'
_cell_length_a     32.24824
_cell_length_b     32.338278
_cell_length_c     62.872079
_cell_angle_alpha  89.965105
_cell_angle_beta   90.398046
_cell_angle_gamma 119.82059
loop_
_atom_site_label
_atom_site_type_symbol
_atom_site_fract_x
_atom_site_fract_y
_atom_site_fract_z
_atom_type_partial_charge
C0 C 0.17123 0.2777 1.00745 0.0
Eu1 Eu 0.16618 0.34957 0.02329 0.0
C2 C 0.1907 0.27059 0.98754 0.0
C3 C 0.19338 0.29693 0.96933 0.0
C4 C 0.21131 0.28999 0.95036 0.0
C5 C 0.22671 0.25632 0.94914 0.0
C6 C 0.22393 0.22988 0.96741 0.0
C7 C 0.20619 0.23712 0.98649 0.0
C8 C 0.09707 0.37057 0.01296 0.0
C9 C 0.22841 0.44208 0.99308 0.0
C10 C 0.18837 0.52625 0.04905 0.0
Eu11 Eu 0.18324 0.44613 0.03844 0.0
C12 C 0.19189 0.54924 0.06982 0.0
C13 C 0.21316 0.53996 0.08738 0.0
C14 C 0.21587 0.56106 0.10712 0.0
C15 C 0.19718 0.59181 0.10984 0.0
C16 C 0.17554 0.60078 0.09224 0.0
C17 C 0.17299 0.57971 0.07241 0.0
C18 C 0.23791 0.41526 0.05841 0.0
C19 C 0.12017 0.35381 0.06673 0.0
O20 O 0.20227 0.30752 0.02123 0.0
O21 O 0.13411 0.28343 1.00523 0.0
O22 O 0.08761 0.32879 0.01956 0.0
O23 O 0.14122 0.39834 0.01231 0.0
O24 O 0.21228 0.39626 0.99653 0.0
O25 O 0.2202 0.46871 1.0065 0.0
O26 O 0.14774 0.48726 0.04504 0.0
O27 O 0.22566 0.52268 0.04357 0.0
O28 O 0.21976 0.43817 0.06767 0.0
O29 O 0.22768 0.41122 0.03891 0.0
O30 O 0.12243 0.39289 0.05891 0.0
O31 O 0.14208 0.33358 0.05729 0.0
H32 H 0.18113 0.3226 0.96968 0.0
H33 H 0.21229 0.31042 0.93652 0.0
H34 H 0.23588 0.20397 0.96701 0.0
H35 H 0.2044 0.21647 1.00038 0.0
H36 H 0.22761 0.51624 0.08588 0.0
H37 H 0.23202 0.55265 0.12037 0.0
H38 H 0.16109 0.62453 0.09372 0.0
H39 H 0.15623 0.58718 0.05911 0.0
C40 C 0.88766 0.1854 0.34342 0.0
Eu41 Eu 0.80725 0.1731 0.35842 0.0
C42 C 0.90527 0.19406 0.32143 0.0
C43 C 0.87348 0.18648 0.30456 0.0
C44 C 0.89009 0.19771 0.28375 0.0
C45 C 0.93881 0.21626 0.27933 0.0
C46 C 0.97048 0.22276 0.2962 0.0
C47 C 0.95383 0.212 0.31713 0.0
C48 C 0.72233 0.09408 0.34965 0.0
C49 C 0.76408 0.2152 0.32231 0.0
C50 C 0.63616 0.16514 0.38051 0.0
Eu51 Eu 0.71899 0.17991 0.36744 0.0
C52 C 0.61612 0.16488 0.40168 0.0
C53 C 0.6015 0.19816 0.40625 0.0
C54 C 0.58631 0.20127 0.42669 0.0
C55 C 0.58519 0.17098 0.44303 0.0
C56 C 0.5985 0.13667 0.43825 0.0
C57 C 0.6138 0.13365 0.41782 0.0
C58 C 0.80139 0.26012 0.37696 0.0
C59 C 0.76373 0.13933 0.4039 0.0
O60 O 0.88309 0.21973 0.35202 0.0
O61 O 0.85067 0.1434 0.34698 0.0
O62 O 0.75732 0.0926 0.3592 0.0
O63 O 0.73412 0.13641 0.34553 0.0
O64 O 0.80242 0.21697 0.33101 0.0
O65 O 0.7227 0.19424 0.33227 0.0
O66 O 0.64535 0.13089 0.37638 0.0
O67 O 0.66994 0.20655 0.37386 0.0
O68 O 0.76355 0.25942 0.36952 0.0
O69 O 0.79356 0.21849 0.3804 0.0
O70 O 0.72573 0.13955 0.39585 0.0
O71 O 0.8045 0.15796 0.39343 0.0
H72 H 0.83576 0.17229 0.30751 0.0
H73 H 0.86474 0.19172 0.27109 0.0
H74 H 0.00826 0.23728 0.29326 0.0
H75 H 0.9789 0.21826 0.32996 0.0
H76 H 0.60268 0.22245 0.39409 0.0
H77 H 0.57555 0.22755 0.42971 0.0
H78 H 0.59845 0.11301 0.45047 0.0
H79 H 0.62472 0.1075 0.41483 0.0
C80 C 0.69088 0.89097 0.67924 0.0
Eu81 Eu 0.62025 0.81176 0.69337 0.0
C82 C 0.7 0.91596 0.6586 0.0
C83 C 0.7402 0.92464 0.64671 0.0
C84 C 0.74711 0.94423 0.62631 0.0
C85 C 0.71401 0.95579 0.61737 0.0
C86 C 0.6744 0.94816 0.62958 0.0
C87 C 0.66741 0.92839 0.64992 0.0
C88 C 0.6062 0.72382 0.68452 0.0
C89 C 0.53299 0.77552 0.65821 0.0
C90 C 0.45198 0.64703 0.7168 0.0
Eu91 Eu 0.52152 0.72777 0.70318 0.0
C92 C 0.43395 0.62783 0.73834 0.0
C93 C 0.39608 0.63176 0.74713 0.0
C94 C 0.38125 0.6171 0.76798 0.0
C95 C 0.40364 0.59777 0.78056 0.0
C96 C 0.4405 0.59236 0.77155 0.0
C97 C 0.45545 0.60716 0.75068 0.0
C98 C 0.53276 0.81358 0.71366 0.0
C99 C 0.60915 0.76612 0.73891 0.0
O100 O 0.65651 0.88917 0.69093 0.0
O101 O 0.69073 0.85044 0.6789 0.0
O102 O 0.64511 0.75697 0.69335 0.0
O103 O 0.57801 0.73911 0.68085 0.0
O104 O 0.57208 0.81174 0.66651 0.0
O105 O 0.50996 0.73428 0.66824 0.0
O106 O 0.49409 0.65339 0.71179 0.0
O107 O 0.44596 0.68225 0.71038 0.0
O108 O 0.49294 0.7783 0.70665 0.0
O109 O 0.5637 0.80112 0.71604 0.0
O110 O 0.56786 0.73104 0.73158 0.0
O111 O 0.63473 0.80554 0.72786 0.0
H112 H 0.76571 0.91514 0.653 0.0
H113 H 0.7777 0.94901 0.61732 0.0
H114 H 0.64859 0.95734 0.62341 0.0
H115 H 0.63597 0.92211 0.65864 0.0
H116 H 0.3783 0.64691 0.73799 0.0
H117 H 0.35213 0.6209 0.77427 0.0
H118 H 0.45867 0.57782 0.78081 0.0
H119 H 0.48449 0.60322 0.74439 0.0
C120 C 0.77021 0.69266 0.01745 0.0
Eu121 Eu 0.78117 0.62066 0.02715 0.0
C122 C 0.76434 0.70938 0.99633 0.0
C123 C 0.79474 0.71387 0.97947 0.0
C124 C 0.78536 0.72335 0.95887 0.0
C125 C 0.7451 0.72811 0.95452 0.0
C126 C 0.71562 0.72526 0.97154 0.0
C127 C 0.72517 0.71596 0.99223 0.0
C128 C 0.8523 0.61022 1.01001 0.0
C129 C 0.73736 0.53345 0.99472 0.0
C130 C 0.7958 0.4589 0.04867 0.0
Eu131 Eu 0.78471 0.53157 0.04034 0.0
C132 C 0.79936 0.43757 0.06896 0.0
C133 C 0.76745 0.38923 0.07299 0.0
C134 C 0.7666 0.36964 0.09295 0.0
C135 C 0.79791 0.39796 0.10928 0.0
C136 C 0.83086 0.44603 0.10502 0.0
C137 C 0.83142 0.46571 0.08512 0.0
C138 C 0.7136 0.54066 0.05836 0.0
C139 C 0.82817 0.61851 0.07288 0.0
O140 O 0.73473 0.65146 0.02343 0.0
O141 O 0.81202 0.69684 0.02161 0.0
O142 O 0.82812 0.62534 0.99928 0.0
O143 O 0.83823 0.60215 0.02886 0.0
O144 O 0.73373 0.56981 1.00192 0.0
O145 O 0.76105 0.51641 1.00552 0.0
O146 O 0.83143 0.50113 0.04388 0.0
O147 O 0.75411 0.45497 0.04466 0.0
O148 O 0.73704 0.52318 0.06798 0.0
O149 O 0.72689 0.55017 0.03932 0.0
O150 O 0.8312 0.58174 0.06578 0.0
O151 O 0.8055 0.63652 0.06194 0.0
H152 H 0.8251 0.7087 0.98203 0.0
H153 H 0.80934 0.7262 0.94625 0.0
H154 H 0.68408 0.7283 0.96876 0.0
H155 H 0.70097 0.71219 1.00491 0.0
H156 H 0.74228 0.36686 0.06083 0.0
H157 H 0.74115 0.33237 0.09567 0.0
H158 H 0.8551 0.46891 0.11732 0.0
H159 H 0.85613 0.50325 0.08261 0.0
C160 C 0.07552 0.77286 0.34912 0.0
Eu161 Eu 0.16255 0.79851 0.36109 0.0
C162 C 0.05011 0.75867 0.32846 0.0
C163 C 0.02024 0.77659 0.32223 0.0
C164 C -0.00055 0.76687 0.30188 0.0
C165 C 0.00852 0.73935 0.28726 0.0
C166 C 0.03786 0.72079 0.29381 0.0
C167 C 0.05807 0.73004 0.31419 0.0
C168 C 0.23937 0.88605 0.35619 0.0
C169 C 0.21658 0.77663 0.32161 0.0
C170 C 0.346 0.83042 0.38096 0.0
Eu171 Eu 0.26002 0.80568 0.36779 0.0
C172 C 0.36632 0.83125 0.40234 0.0
C173 C 0.38156 0.79848 0.40719 0.0
C174 C 0.3967 0.79572 0.42779 0.0
C175 C 0.39743 0.82603 0.444 0.0
C176 C 0.38367 0.85991 0.43899 0.0
C177 C 0.36813 0.86239 0.41842 0.0
C178 C 0.18412 0.71834 0.37435 0.0
C179 C 0.20715 0.82883 0.40723 0.0
O180 O 0.08783 0.74344 0.35761 0.0
O181 O 0.10947 0.81738 0.35056 0.0
O182 O 0.20079 0.87877 0.36576 0.0
O183 O 0.23503 0.84739 0.34962 0.0
O184 O 0.17594 0.76869 0.3304 0.0
O185 O 0.25746 0.79823 0.33225 0.0
O186 O 0.33147 0.86111 0.37737 0.0
O187 O 0.31641 0.78817 0.37323 0.0
O188 O 0.22376 0.72538 0.36606 0.0
O189 O 0.18733 0.75716 0.37984 0.0
O190 O 0.24699 0.83462 0.39851 0.0
O191 O 0.16609 0.80868 0.39666 0.0
H192 H 0.01358 0.79875 0.333 0.0
H193 H 0.97641 0.7811 0.29762 0.0
H194 H 0.04647 0.70014 0.283 0.0
H195 H 0.08086 0.71563 0.31861 0.0
H196 H 0.38081 0.77421 0.39512 0.0
H197 H 0.40771 0.76969 0.43106 0.0
H198 H 0.38354 0.8836 0.45114 0.0
H199 H 0.35681 0.8882 0.41525 0.0
C200 C 0.31293 0.07391 0.68363 0.0
Eu201 Eu 0.37206 0.16112 0.69572 0.0
C202 C 0.29985 0.0513 0.66249 0.0
C203 C 0.31798 0.07915 0.64414 0.0
C204 C 0.30677 0.05793 0.62402 0.0
C205 C 0.27666 0.00843 0.62182 0.0
C206 C 0.25774 0.98068 0.64024 0.0
C207 C 0.26947 0.00198 0.66044 0.0
C208 C 0.3579 0.23537 0.68695 0.0
C209 C 0.45034 0.21305 0.65754 0.0
C210 C 0.51423 0.34635 0.7151 0.0
Eu211 Eu 0.45732 0.25939 0.70231 0.0
C212 C 0.53306 0.36657 0.73656 0.0
C213 C 0.58033 0.37985 0.7422 0.0
C214 C 0.597 0.39398 0.76303 0.0
C215 C 0.56691 0.39548 0.77874 0.0
C216 C 0.52017 0.38398 0.77289 0.0
C217 C 0.50346 0.36975 0.75206 0.0
C218 C 0.47431 0.18815 0.71266 0.0
C219 C 0.37922 0.20632 0.74069 0.0
O220 O 0.35684 0.08833 0.68989 0.0
O221 O 0.29989 0.10556 0.68735 0.0
O222 O 0.32712 0.19745 0.69691 0.0
O223 O 0.39342 0.23151 0.68201 0.0
O224 O 0.41965 0.17288 0.66705 0.0
O225 O 0.46546 0.2547 0.66697 0.0
O226 O 0.46844 0.32913 0.71168 0.0
O227 O 0.52956 0.31909 0.7071 0.0
O228 O 0.50534 0.22773 0.70394 0.0
O229 O 0.43626 0.18853 0.7165 0.0
O230 O 0.41108 0.24661 0.73161 0.0
O231 O 0.36306 0.16489 0.73093 0.0
H232 H 0.34084 0.1174 0.64536 0.0
H233 H 0.32138 0.08036 0.61015 0.0
H234 H 0.23468 0.94243 0.63904 0.0
H235 H 0.25504 0.97995 0.67443 0.0
H236 H 0.60418 0.37823 0.7306 0.0
H237 H 0.63348 0.40347 0.76687 0.0
H238 H 0.4959 0.38449 0.78457 0.0
H239 H 0.46695 0.36018 0.74827 0.0
C240 C 0.17494 0.74504 0.28647 0.0
C241 C 0.21596 0.76084 0.29933 0.0
C242 C 0.17366 0.72872 0.26573 0.0
C243 C 0.23189 0.68027 0.23107 0.0
H244 H 0.17008 0.7108 0.18549 0.0
C245 C 0.24172 0.63117 0.14364 0.0
C246 C 0.20018 0.61406 0.13101 0.0
C247 C 0.24415 0.65051 0.16382 0.0
C248 C 0.18702 0.70148 0.19807 0.0
H249 H 0.28829 0.77262 0.30017 0.0
H250 H 0.28628 0.7446 0.26395 0.0
H251 H 0.17366 0.74204 0.22118 0.0
H252 H 0.12858 0.60412 0.12984 0.0
H253 H 0.1327 0.63769 0.16508 0.0
H254 H 0.24499 0.63947 0.20806 0.0
C255 C 0.25473 0.74417 0.27003 0.0
C256 C 0.18911 0.71945 0.21856 0.0
C257 C 0.25601 0.7606 0.29078 0.0
C258 C 0.16134 0.61746 0.13901 0.0
C259 C 0.16373 0.63675 0.15924 0.0
C260 C 0.22974 0.66227 0.21061 0.0
C261 C 0.21343 0.72775 0.25726 0.0
C262 C 0.2116 0.7091 0.23534 0.0
C263 C 0.20507 0.65324 0.17199 0.0
C264 C 0.20732 0.67263 0.1938 0.0
H265 H 0.14367 0.74523 0.29239 0.0
H266 H 0.1411 0.71601 0.25647 0.0
H267 H 0.24872 0.67082 0.24366 0.0
H268 H 0.27265 0.62993 0.13786 0.0
H269 H 0.27692 0.6637 0.17296 0.0
C270 C 0.49666 0.25188 0.62427 0.0
C271 C 0.46619 0.21043 0.6357 0.0
C272 C 0.51066 0.24872 0.60354 0.0
C273 C 0.52046 0.1648 0.56643 0.0
H274 H 0.52319 0.25086 0.52281 0.0
C275 C 0.54257 0.1356 0.47744 0.0
C276 C 0.57142 0.176 0.46507 0.0
C277 C 0.53034 0.14048 0.49824 0.0
C278 C 0.52319 0.22688 0.53484 0.0
H279 H 0.42673 0.13306 0.63417 0.0
H280 H 0.45053 0.12773 0.59819 0.0
H281 H 0.50179 0.25875 0.55912 0.0
H282 H 0.61066 0.2533 0.46511 0.0
H283 H 0.58954 0.26181 0.50134 0.0
H284 H 0.54186 0.13292 0.54222 0.0
C285 C 0.46421 0.16269 0.60528 0.0
C286 C 0.51092 0.23144 0.55568 0.0
C287 C 0.45025 0.16583 0.62592 0.0
C288 C 0.58769 0.2214 0.47403 0.0
C289 C 0.57556 0.22629 0.49484 0.0
C290 C 0.53279 0.16029 0.54561 0.0
C291 C 0.49462 0.20405 0.5938 0.0
C292 C 0.50914 0.20029 0.57173 0.0
C293 C 0.54678 0.1859 0.50725 0.0
C294 C 0.53411 0.19111 0.5295 0.0
H295 H 0.50966 0.28679 0.6313 0.0
H296 H 0.5345 0.28129 0.59523 0.0
H297 H 0.52025 0.14069 0.57845 0.0
H298 H 0.52889 0.1001 0.47095 0.0
H299 H 0.50746 0.10856 0.50717 0.0
C300 C 0.26616 0.43628 0.9593 0.0
C301 C 0.25308 0.4627 0.97268 0.0
C302 C 0.28594 0.45364 0.93932 0.0
C303 C 0.29223 0.53694 0.89764 0.0
H304 H 0.39243 0.5169 0.87499 0.0
C305 C 0.3792 0.61324 0.81626 0.0
C306 C 0.38902 0.58408 0.80308 0.0
C307 C 0.36505 0.60039 0.83735 0.0
C308 C 0.3641 0.52236 0.88098 0.0
H309 H 0.25198 0.52895 0.97568 0.0
H310 H 0.28709 0.55956 0.94087 0.0
H311 H 0.36456 0.49202 0.91121 0.0
H312 H 0.39146 0.51834 0.8018 0.0
H313 H 0.36644 0.49568 0.83853 0.0
H314 H 0.29132 0.56675 0.86736 0.0
C315 C 0.28132 0.52498 0.94575 0.0
C316 C 0.34816 0.50816 0.90178 0.0
C317 C 0.26155 0.5076 0.9658 0.0
C318 C 0.3847 0.54189 0.81158 0.0
C319 C 0.37042 0.52895 0.83267 0.0
C320 C 0.30811 0.55107 0.87683 0.0
C321 C 0.29327 0.49796 0.93216 0.0
C322 C 0.31183 0.51503 0.91035 0.0
C323 C 0.36024 0.55796 0.84582 0.0
C324 C 0.3441 0.54377 0.86817 0.0
H325 H 0.26055 0.40173 0.9641 0.0
H326 H 0.29424 0.43161 0.92924 0.0
H327 H 0.26365 0.54207 0.90357 0.0
H328 H 0.38303 0.64643 0.81037 0.0
H329 H 0.35839 0.62405 0.84709 0.0
C330 C 0.81212 0.25888 0.29034 0.0
C331 C 0.76768 0.23492 0.30063 0.0
C332 C 0.81563 0.27645 0.2697 0.0
C333 C 0.74467 0.26085 0.22109 0.0
H334 H 0.84824 0.3866 0.20677 0.0
C335 C 0.75031 0.34958 0.14052 0.0
C336 C 0.79494 0.37796 0.13092 0.0
C337 C 0.74733 0.33193 0.1611 0.0
C338 C 0.81946 0.35112 0.21036 0.0
H339 H 0.69207 0.21093 0.29722 0.0
H340 H 0.69827 0.2418 0.26121 0.0
H341 H 0.84239 0.35648 0.24281 0.0
H342 H 0.87145 0.40933 0.1353 0.0
H343 H 0.86634 0.37776 0.17105 0.0
H344 H 0.722 0.25506 0.18864 0.0
C345 C 0.73035 0.2466 0.2691 0.0
C346 C 0.81605 0.33392 0.23109 0.0
C347 C 0.72685 0.22918 0.2898 0.0
C348 C 0.83655 0.38797 0.14234 0.0
C349 C 0.83357 0.36998 0.16289 0.0
C350 C 0.74825 0.27789 0.20033 0.0
C351 C 0.77478 0.27039 0.25879 0.0
C352 C 0.77851 0.28864 0.23672 0.0
C353 C 0.7889 0.34188 0.17261 0.0
C354 C 0.7856 0.32335 0.19468 0.0
H355 H 0.84436 0.26397 0.29816 0.0
H356 H 0.8503 0.29411 0.26215 0.0
H357 H 0.71574 0.22552 0.22482 0.0
H358 H 0.71762 0.34188 0.13228 0.0
H359 H 0.71234 0.31125 0.16815 0.0
C360 C 0.48075 0.74145 0.62572 0.0
C361 C 0.51681 0.78099 0.63673 0.0
C362 C 0.4672 0.74649 0.60509 0.0
C363 C 0.46894 0.83502 0.56741 0.0
H364 H 0.45359 0.74242 0.52445 0.0
C365 C 0.44179 0.86185 0.47829 0.0
C366 C 0.41121 0.82135 0.46616 0.0
C367 C 0.45456 0.85718 0.49913 0.0
C368 C 0.45698 0.76828 0.53627 0.0
H369 H 0.56629 0.85705 0.6347 0.0
H370 H 0.54256 0.86575 0.59884 0.0
H371 H 0.47467 0.73343 0.56076 0.0
H372 H 0.36908 0.74424 0.46662 0.0
H373 H 0.3904 0.73603 0.50298 0.0
H374 H 0.4506 0.86957 0.54308 0.0
C375 C 0.52464 0.83087 0.60618 0.0
C376 C 0.4692 0.76312 0.55712 0.0
C377 C 0.53842 0.82579 0.62672 0.0
C378 C 0.39338 0.77612 0.47541 0.0
C379 C 0.40575 0.77145 0.49629 0.0
C380 C 0.4563 0.83998 0.54659 0.0
C381 C 0.48908 0.79123 0.59504 0.0
C382 C 0.47541 0.79646 0.57293 0.0
C383 C 0.43669 0.81188 0.50845 0.0
C384 C 0.45019 0.80671 0.5307 0.0
H385 H 0.46335 0.70642 0.63291 0.0
H386 H 0.43934 0.71533 0.59702 0.0
H387 H 0.47292 0.86104 0.57928 0.0
H388 H 0.45649 0.89717 0.47154 0.0
H389 H 0.47905 0.88914 0.5078 0.0
C390 C 0.68849 0.52952 0.96283 0.0
C391 C 0.71666 0.51375 0.97342 0.0
C392 C 0.67093 0.51351 0.94231 0.0
C393 C 0.69313 0.46269 0.89409 0.0
H394 H 0.56567 0.43591 0.87826 0.0
C395 C 0.61131 0.38983 0.81072 0.0
C396 C 0.58383 0.40775 0.80122 0.0
C397 C 0.62669 0.40067 0.83189 0.0
C398 C 0.60155 0.44375 0.88232 0.0
H399 H 0.74818 0.46839 0.97063 0.0
H400 H 0.7171 0.44007 0.93473 0.0
H401 H 0.59318 0.45712 0.91492 0.0
H402 H 0.5516 0.45177 0.80662 0.0
H403 H 0.57867 0.47099 0.84347 0.0
H404 H 0.7017 0.44985 0.86144 0.0
C405 C 0.70892 0.46516 0.94236 0.0
C406 C 0.61732 0.45582 0.90339 0.0
C407 C 0.7264 0.48108 0.963 0.0
C408 C 0.57217 0.43685 0.81348 0.0
C409 C 0.58765 0.44779 0.83465 0.0
C410 C 0.67739 0.45069 0.87299 0.0
C411 C 0.68108 0.48133 0.93173 0.0
C412 C 0.66345 0.46585 0.90953 0.0
C413 C 0.61507 0.42979 0.84417 0.0
C414 C 0.6315 0.44142 0.86678 0.0
H415 H 0.68034 0.55482 0.97027 0.0
H416 H 0.65027 0.52732 0.93454 0.0
H417 H 0.72909 0.4708 0.89817 0.0
H418 H 0.62025 0.36661 0.80189 0.0
H419 H 0.64704 0.3855 0.83875 0.0
C420 C 0.30383 0.39678 0.05475 0.0
C421 C 0.2804 0.41517 0.06693 0.0
C422 C 0.34919 0.40544 0.06077 0.0
C423 C 0.44214 0.42056 0.08182 0.0
H424 H 0.52727 0.55762 0.08287 0.0
C425 C 0.64693 0.50567 0.08428 0.0
C426 C 0.66753 0.53331 0.06604 0.0
C427 C 0.60021 0.49252 0.08988 0.0
C428 C 0.50383 0.51933 0.08294 0.0
H429 H 0.28382 0.45345 0.09584 0.0
H430 H 0.36376 0.4696 0.10603 0.0
H431 H 0.44073 0.52533 0.0837 0.0
H432 H 0.65706 0.57146 0.04014 0.0
H433 H 0.57558 0.5495 0.0503 0.0
H434 H 0.50535 0.41471 0.08033 0.0
C435 C 0.34696 0.44846 0.09191 0.0
C436 C 0.45451 0.50086 0.08355 0.0
C437 C 0.30132 0.43916 0.08608 0.0
C438 C 0.64191 0.55016 0.05427 0.0
C439 C 0.59549 0.53773 0.0601 0.0
C440 C 0.49152 0.43903 0.08161 0.0
C441 C 0.37184 0.43306 0.07891 0.0
C442 C 0.42331 0.45141 0.08235 0.0
C443 C 0.57389 0.5077 0.07758 0.0
C444 C 0.5226 0.48856 0.08152 0.0
H445 H 0.28834 0.3781 0.03996 0.0
H446 H 0.3679 0.39348 0.05044 0.0
H447 H 0.41864 0.38234 0.08083 0.0
H448 H 0.66605 0.49234 0.09367 0.0
H449 H 0.58416 0.46946 0.10346 0.0
C450 C 0.14911 0.63065 0.37748 0.0
C451 C 0.14612 0.67174 0.3815 0.0
C452 C 0.11301 0.5863 0.38431 0.0
C453 C 0.98631 0.52482 0.39379 0.0
H454 H 0.0072 0.42428 0.41553 0.0
C455 C 0.83086 0.337 0.3956 0.0
C456 C 0.84038 0.30278 0.38685 0.0
C457 C 0.86818 0.38057 0.40257 0.0
C458 C 0.00082 0.452 0.40948 0.0
H459 H 0.10428 0.69944 0.39624 0.0
H460 H 0.04069 0.62161 0.40795 0.0
H461 H 0.07449 0.50571 0.41301 0.0
H462 H 0.8952 0.28491 0.38002 0.0
H463 H 0.96124 0.36264 0.39069 0.0
H464 H 0.91386 0.47163 0.38883 0.0
C465 C 0.0709 0.62374 0.39955 0.0
C466 C 0.03923 0.49849 0.4081 0.0
C467 C 0.10708 0.6681 0.39279 0.0
C468 C 0.88735 0.31125 0.38646 0.0
C469 C 0.92501 0.35557 0.39283 0.0
C470 C 0.94819 0.47851 0.39495 0.0
C471 C 0.07332 0.58242 0.39515 0.0
C472 C 0.03237 0.53498 0.39977 0.0
C473 C 0.91581 0.39136 0.40017 0.0
C474 C 0.95513 0.44129 0.40233 0.0
H475 H 0.17904 0.63268 0.36886 0.0
H476 H 0.11531 0.55488 0.38041 0.0
H477 H 0.98016 0.55212 0.387 0.0
H478 H 0.79458 0.33055 0.39657 0.0
H479 H 0.85975 0.40668 0.40885 0.0
C480 C 0.53665 0.17347 0.72824 0.0
C481 C 0.48827 0.15711 0.72373 0.0
C482 C 0.55049 0.14361 0.73806 0.0
C483 C 0.57033 0.06274 0.73802 0.0
H484 H 0.48423 0.95112 0.77054 0.0
C485 C 0.49457 0.85922 0.72613 0.0
C486 C 0.53586 0.8556 0.72397 0.0
C487 C 0.49712 0.89912 0.73574 0.0
C488 C 0.50919 0.98259 0.76183 0.0
H489 H 0.41608 0.09828 0.72686 0.0
H490 H 0.44021 0.04464 0.74269 0.0
H491 H 0.47357 0.0208 0.77061 0.0
H492 H 0.61182 0.88945 0.73078 0.0
H493 H 0.61662 0.96067 0.74699 0.0
H494 H 0.60423 0.02368 0.7283 0.0
C495 C 0.46755 0.08096 0.7394 0.0
C496 C 0.50292 0.02226 0.76173 0.0
C497 C 0.45365 0.11129 0.73001 0.0
C498 C 0.5796 0.89183 0.7321 0.0
C499 C 0.58228 0.93219 0.74151 0.0
C500 C 0.57688 0.02337 0.73833 0.0
C501 C 0.5163 0.09642 0.74303 0.0
C502 C 0.53147 0.06144 0.74867 0.0
C503 C 0.54111 0.93634 0.74315 0.0
C504 C 0.54445 0.98193 0.7491 0.0
H505 H 0.56393 0.20924 0.724 0.0
H506 H 0.58816 0.15697 0.74105 0.0
H507 H 0.59299 0.09211 0.72771 0.0
H508 H 0.46035 0.83154 0.72012 0.0
H509 H 0.46503 0.90191 0.73637 0.0
C510 C 0.55247 0.64193 0.67274 0.0
C511 C 0.58768 0.67273 0.6871 0.0
C512 C 0.52317 0.59426 0.67783 0.0
C513 C 0.44433 0.50942 0.69932 0.0
H514 H 0.48994 0.42343 0.71553 0.0
C515 C 0.35341 0.29581 0.70982 0.0
C516 C 0.36284 0.28242 0.68995 0.0
C517 C 0.37265 0.34413 0.71483 0.0
C518 C 0.47663 0.44734 0.71167 0.0
H519 H 0.62237 0.67808 0.71742 0.0
H520 H 0.57101 0.59352 0.72632 0.0
H521 H 0.54631 0.509 0.71393 0.0
H522 H 0.39564 0.30751 0.65923 0.0
H523 H 0.42729 0.3917 0.66764 0.0
H524 H 0.3755 0.44706 0.69524 0.0
C525 C 0.56615 0.60653 0.71116 0.0
C526 C 0.50882 0.49616 0.71068 0.0
C527 C 0.59584 0.65456 0.70597 0.0
C528 C 0.38758 0.3172 0.67452 0.0
C529 C 0.40586 0.36512 0.67936 0.0
C530 C 0.41227 0.46059 0.7002 0.0
C531 C 0.52829 0.57663 0.69749 0.0
C532 C 0.49331 0.52723 0.7034 0.0
C533 C 0.40022 0.37883 0.69978 0.0
C534 C 0.42875 0.42926 0.70554 0.0
H535 H 0.54557 0.65544 0.65814 0.0
H536 H 0.49525 0.57155 0.6667 0.0
H537 H 0.4314 0.53298 0.69415 0.0
H538 H 0.33506 0.26942 0.72206 0.0
H539 H 0.36841 0.35441 0.73071 0.0
C540 C 0.0177 0.3665 1.01095 0.0
C541 C 0.0632 0.38196 1.00259 0.0
C542 C -0.00995 0.3857 1.00322 0.0
C543 C 0.93507 0.42925 0.98183 0.0
H544 H 0.01703 0.56674 0.98138 0.0
C545 C 0.8672 0.56644 0.98112 0.0
C546 C 0.8802 0.59047 1.00075 0.0
C547 C 0.88857 0.54015 0.97449 0.0
C548 C -0.00618 0.52841 0.98094 0.0
H549 H 0.11366 0.42485 0.97825 0.0
H550 H 0.06495 0.45692 0.96432 0.0
H551 H 0.05268 0.51597 0.98189 0.0
H552 H 0.92644 0.60814 0.02837 0.0
H553 H 0.9654 0.56428 0.01634 0.0
H554 H 0.87624 0.4427 0.98235 0.0
C555 C 0.05106 0.43148 0.97723 0.0
C556 C 0.01408 0.4992 0.98116 0.0
C557 C 0.07889 0.41313 0.98519 0.0
C558 C 0.91634 0.59017 0.01309 0.0
C559 C 0.93847 0.56513 1.00624 0.0
C560 C 0.91473 0.45869 0.98144 0.0
C561 C 0.00753 0.41997 0.98687 0.0
C562 C 0.98501 0.44936 0.98239 0.0
C563 C 0.92403 0.53908 0.98717 0.0
C564 C 0.94415 0.50844 0.98182 0.0
H565 H 0.00511 0.34242 0.02438 0.0
H566 H 0.95673 0.37635 1.01106 0.0
H567 H 0.91187 0.39099 0.98262 0.0
H568 H 0.83879 0.56576 0.97156 0.0
H569 H 0.87689 0.51999 0.95979 0.0
C570 C 0.31917 0.94327 0.34316 0.0
C571 C 0.28651 0.92744 0.35988 0.0
C572 C 0.36774 0.9718 0.34734 0.0
C573 C 0.44952 0.97105 0.38194 0.0
H574 H 0.54141 0.0845 0.35218 0.0
C575 C 0.65436 0.03828 0.37215 0.0
C576 C 0.67193 0.05864 0.35216 0.0
C577 C 0.6064 0.02192 0.37711 0.0
C578 C 0.51612 0.05271 0.36061 0.0
H579 H 0.2776 0.93103 0.39383 0.0
H580 H 0.36376 0.97905 0.40136 0.0
H581 H 0.45892 0.0672 0.35529 0.0
H582 H 0.65324 0.0721 0.32084 0.0
H583 H 0.56938 0.04132 0.329 0.0
H584 H 0.50576 0.9544 0.38571 0.0
C585 C 0.35145 0.97059 0.38503 0.0
C586 C 0.46933 0.0434 0.36267 0.0
C587 C 0.30244 0.94337 0.38071 0.0
C588 C 0.64022 0.05658 0.33635 0.0
C589 C 0.59255 0.03981 0.34117 0.0
C590 C 0.49635 0.98007 0.37968 0.0
C591 C 0.3843 0.98356 0.36838 0.0
C592 C 0.43528 0.00147 0.37253 0.0
C593 C 0.57609 0.02563 0.36199 0.0
C594 C 0.52927 0.01971 0.368 0.0
H595 H 0.30742 0.93078 0.32705 0.0
H596 H 0.39265 0.98106 0.33432 0.0
H597 H 0.42351 0.93822 0.38937 0.0
H598 H 0.67852 0.03997 0.38462 0.0
H599 H 0.59434 0.01061 0.39321 0.0
C600 C 0.3778 0.25281 0.77215 0.0
C601 C 0.36306 0.20842 0.76246 0.0
C602 C 0.36372 0.25546 0.7928 0.0
C603 C 0.27312 0.18672 0.83336 0.0
H604 H 0.36523 0.28394 0.87139 0.0
C605 C 0.23079 0.20236 0.92146 0.0
C606 C 0.24496 0.24866 0.92874 0.0
C607 C 0.2462 0.19529 0.90174 0.0
C608 C 0.33899 0.25681 0.86092 0.0
H609 H 0.3214 0.13189 0.76685 0.0
H610 H 0.29696 0.13653 0.80309 0.0
H611 H 0.38965 0.27521 0.83587 0.0
H612 H 0.2875 0.32385 0.92129 0.0
H613 H 0.31394 0.31153 0.88687 0.0
H614 H 0.22238 0.1686 0.85845 0.0
C615 C 0.31922 0.16931 0.79458 0.0
C616 C 0.35296 0.25183 0.84055 0.0
C617 C 0.33337 0.16665 0.77385 0.0
C618 C 0.27557 0.28771 0.91605 0.0
C619 C 0.29111 0.28066 0.89641 0.0
C620 C 0.25915 0.19166 0.85379 0.0
C621 C 0.3345 0.2138 0.80434 0.0
C622 C 0.32006 0.21713 0.82641 0.0
C623 C 0.27638 0.23437 0.88895 0.0
C624 C 0.2918 0.22716 0.86771 0.0
H625 H 0.4002 0.28574 0.76379 0.0
H626 H 0.37537 0.29031 0.79965 0.0
H627 H 0.24676 0.15998 0.8228 0.0
H628 H 0.20691 0.17153 0.93079 0.0
H629 H 0.23456 0.15921 0.89653 0.0
C630 C 0.94079 0.25488 0.24446 0.0
C631 C 0.95632 0.22938 0.2572 0.0
C632 C 0.95673 0.26692 0.22356 0.0
C633 C 0.00586 0.23235 0.17884 0.0
H634 H 0.04954 0.361 0.15905 0.0
C635 C 0.10291 0.30137 0.09864 0.0
C636 C 0.09573 0.33473 0.08724 0.0
C637 C 0.08346 0.28662 0.1189 0.0
C638 C 0.03671 0.32467 0.16415 0.0
H639 H 0.00042 0.19617 0.25796 0.0
H640 H 0.02825 0.21714 0.22133 0.0
H641 H 0.0208 0.33934 0.19532 0.0
H642 H 0.06089 0.37734 0.08787 0.0
H643 H 0.02579 0.35058 0.12287 0.0
H644 H 0.02108 0.21734 0.14763 0.0
C645 C 0.00368 0.22773 0.22756 0.0
C646 C 0.02044 0.31236 0.185 0.0
C647 C -0.01188 0.21612 0.24857 0.0
C648 C 0.06739 0.35184 0.09628 0.0
C649 C 0.04757 0.33675 0.11645 0.0
C650 C 0.0217 0.24451 0.1579 0.0
C651 C -0.01178 0.25335 0.21485 0.0
C652 C 0.00504 0.26615 0.19261 0.0
C653 C 0.05599 0.30454 0.1282 0.0
C654 C 0.03757 0.29093 0.15029 0.0
H655 H 0.91658 0.26592 0.25073 0.0
H656 H 0.94395 0.28639 0.21411 0.0
H657 H -0.0064 0.19626 0.18418 0.0
H658 H 0.12484 0.28772 0.09221 0.0
H659 H 0.09131 0.2623 0.12751 0.0
C660 C 0.68028 0.96052 0.5818 0.0
C661 C 0.72016 0.97471 0.59528 0.0
C662 C 0.6859 0.9782 0.56109 0.0
C663 C 0.77344 0.03184 0.51799 0.0
H664 H 0.68773 0.07484 0.49736 0.0
C665 C 0.80115 0.1286 0.43714 0.0
C666 C 0.76009 0.11894 0.42537 0.0
C667 C 0.79714 0.11077 0.4578 0.0
C668 C 0.71159 0.06237 0.50271 0.0
H669 H 0.79732 0.01902 0.59739 0.0
H670 H 0.80707 0.0492 0.56111 0.0
H671 H 0.67883 0.0439 0.53336 0.0
H672 H 0.68256 0.08136 0.42574 0.0
H673 H 0.67554 0.04964 0.46137 0.0
H674 H 0.8058 0.04962 0.48725 0.0
C675 C 0.77148 0.02414 0.56661 0.0
C676 C 0.70652 0.04475 0.5234 0.0
C677 C 0.76585 0.00675 0.5874 0.0
C678 C 0.71498 0.09018 0.43449 0.0
C679 C 0.71095 0.07211 0.45501 0.0
C680 C 0.7783 0.04914 0.49721 0.0
C681 C 0.73155 0.01022 0.55326 0.0
C682 C 0.73732 0.02922 0.53127 0.0
C683 C 0.75195 0.08258 0.46707 0.0
C684 C 0.74734 0.06454 0.48927 0.0
H685 H 0.64464 0.93513 0.58711 0.0
H686 H 0.65449 0.96623 0.55108 0.0
H687 H 0.79741 0.01965 0.52354 0.0
H688 H 0.83643 0.15076 0.43059 0.0
H689 H 0.82953 0.12 0.46666 0.0
C690 C 0.66869 0.79802 0.76902 0.0
C691 C 0.62507 0.76198 0.7606 0.0
C692 C 0.68268 0.79474 0.78979 0.0
C693 C 0.69009 0.79292 0.83803 0.0
H694 H 0.66355 0.67041 0.8603 0.0
C695 C 0.71444 0.76391 0.92725 0.0
C696 C 0.73282 0.73366 0.93219 0.0
C697 C 0.70214 0.76809 0.90627 0.0
C698 C 0.67165 0.70501 0.8543 0.0
H699 H 0.56206 0.69401 0.76748 0.0
H700 H 0.58606 0.68874 0.80366 0.0
H701 H 0.64214 0.67622 0.82368 0.0
H702 H 0.75205 0.68365 0.91883 0.0
H703 H 0.73199 0.69198 0.88235 0.0
H704 H 0.72067 0.82187 0.86854 0.0
C705 C 0.60991 0.71922 0.79415 0.0
C706 C 0.65879 0.70824 0.83335 0.0
C707 C 0.596 0.72239 0.77338 0.0
C708 C 0.73869 0.70785 0.91561 0.0
C709 C 0.72651 0.7121 0.89468 0.0
C710 C 0.70308 0.78971 0.85899 0.0
C711 C 0.65335 0.75541 0.80267 0.0
C712 C 0.66774 0.75221 0.82493 0.0
C713 C 0.70785 0.74209 0.88972 0.0
C714 C 0.69401 0.7457 0.86741 0.0
H715 H 0.69205 0.82892 0.75961 0.0
H716 H 0.71671 0.82292 0.7957 0.0
H717 H 0.69706 0.82728 0.83218 0.0
H718 H 0.70979 0.78459 0.93958 0.0
H719 H 0.68743 0.79117 0.90308 0.0
C720 C 0.98431 0.76647 0.25405 0.0
C721 C -0.01134 0.73089 0.26514 0.0
C722 C 0.96797 0.75919 0.23293 0.0
C723 C 0.9627 0.69216 0.18535 0.0
H724 H 0.85915 0.71161 0.1661 0.0
C725 C 0.8659 0.61305 0.10675 0.0
C726 C 0.84924 0.63781 0.09415 0.0
C727 C 0.88496 0.62946 0.12696 0.0
C728 C 0.88871 0.70685 0.17109 0.0
H729 H 0.977 0.65886 0.26271 0.0
H730 H 0.95019 0.64705 0.22581 0.0
H731 H 0.88802 0.73076 0.20291 0.0
H732 H 0.83969 0.69955 0.09307 0.0
H733 H 0.87416 0.72903 0.1285 0.0
H734 H 0.9642 0.66884 0.15376 0.0
C735 C 0.95976 0.68066 0.23348 0.0
C736 C 0.90505 0.71762 0.19219 0.0
C737 C 0.97538 0.6876 0.25462 0.0
C738 C 0.85224 0.67967 0.10235 0.0
C739 C 0.87177 0.6964 0.12269 0.0
C740 C 0.94689 0.68201 0.16428 0.0
C741 C 0.95628 0.71649 0.22235 0.0
C742 C 0.94142 0.70924 0.19963 0.0
C743 C 0.8885 0.67147 0.13522 0.0
C744 C 0.9088 0.68794 0.15698 0.0
H745 H -0.00522 0.80052 0.26144 0.0
H746 H 0.96583 0.78748 0.22467 0.0
H747 H -0.00852 0.68631 0.19054 0.0
H748 H 0.8637 0.58033 0.10118 0.0
H749 H 0.89617 0.6085 0.13626 0.0
C750 C 0.21896 0.95174 0.59449 0.0
C751 C 0.26586 0.98603 0.60037 0.0
C752 C 0.20905 0.9315 0.57409 0.0
C753 C 0.2664 0.90849 0.52873 0.0
H754 H 0.16147 0.90083 0.49513 0.0
C755 C 0.2545 0.87458 0.439 0.0
C756 C 0.20967 0.84487 0.42952 0.0
C757 C 0.25812 0.88891 0.46015 0.0
C758 C 0.19045 0.902 0.50441 0.0
H759 H 0.3392 0.02533 0.58959 0.0
H760 H 0.322 -0.00999 0.55411 0.0
H761 H 0.17363 0.93047 0.53174 0.0
H762 H 0.13323 0.80758 0.43485 0.0
H763 H 0.13952 0.83228 0.47213 0.0
H764 H 0.28337 0.88005 0.50164 0.0
C765 C 0.29285 0.97874 0.56523 0.0
C766 C 0.19745 0.91906 0.52537 0.0
C767 C 0.30265 -0.00071 0.58549 0.0
C768 C 0.1683 0.83049 0.44168 0.0
C769 C 0.17193 0.84476 0.46301 0.0
C770 C 0.25926 0.89119 0.50791 0.0
C771 C 0.24597 0.94467 0.55927 0.0
C772 C 0.23605 0.92329 0.53761 0.0
C773 C 0.21699 0.87379 0.47256 0.0
C774 C 0.22179 0.88859 0.4953 0.0
H775 H 0.18983 0.94109 0.60557 0.0
H776 H 0.17262 0.90517 0.56998 0.0
H777 H 0.29589 0.91043 0.5379 0.0
H778 H 0.2871 0.88714 0.43004 0.0
H779 H 0.29335 0.91227 0.46673 0.0
loop_
_geom_bond_atom_site_label_1
_geom_bond_atom_site_label_2
_geom_bond_distance
_geom_bond_site_symmetry_2
_ccdc_geom_bond_type
C0 Eu1 2.835 1_556 S
C0 C2 1.500 . S
C0 O20 1.257 . S
C0 O21 1.260 . S
Eu1 C0 2.835 1_554 S
Eu1 O20 2.473 1_554 S
Eu1 O21 2.480 1_554 S
Eu1 O22 2.430 . S
Eu1 O23 2.670 . S
Eu1 O24 2.394 1_554 S
Eu1 O29 2.355 . S
Eu1 O31 2.374 . S
C2 C0 1.500 . S
C2 C3 1.377 . S
C2 C7 1.377 . S
C3 C2 1.377 . S
C3 C4 1.395 . S
C3 H32 0.931 . S
C4 C3 1.395 . S
C4 C5 1.383 . S
C4 H33 0.931 . S
C5 C4 1.383 . S
C5 C6 1.394 . S
C6 C5 1.394 . S
C6 C7 1.378 . S
C6 H34 0.931 . S
C7 C2 1.377 . S
C7 C6 1.378 . S
C7 H35 0.931 . S
C8 O22 1.259 . S
C8 O23 1.270 . S
C9 O24 1.251 . S
C9 O25 1.251 1_556 S
C10 Eu11 2.835 . S
C10 C12 1.500 . S
C10 O26 1.257 . S
C10 O27 1.260 . S
Eu11 C10 2.835 . S
Eu11 O23 2.355 . S
Eu11 O25 2.374 . S
Eu11 O26 2.473 . S
Eu11 O27 2.480 . S
Eu11 O28 2.430 . S
Eu11 O29 2.670 . S
Eu11 O30 2.394 . S
C12 C10 1.500 . S
C12 C13 1.377 . S
C12 C17 1.377 . S
C13 C12 1.377 . S
C13 C14 1.395 . S
C13 H36 0.931 . S
C14 C13 1.395 . S
C14 C15 1.383 . S
C14 H37 0.931 . S
C15 C14 1.383 . S
C15 C16 1.394 . S
C16 C15 1.394 . S
C16 C17 1.378 . S
C16 H38 0.931 . S
C17 C12 1.377 . S
C17 C16 1.378 . S
C17 H39 0.931 . S
C18 O28 1.259 . S
C18 O29 1.270 . S
C19 O30 1.251 . S
C19 O31 1.251 . S
O20 C0 1.257 . S
O20 Eu1 2.473 1_556 S
O21 C0 1.260 . S
O21 Eu1 2.480 1_556 S
O22 Eu1 2.430 . S
O22 C8 1.259 . S
O23 Eu1 2.670 . S
O23 C8 1.270 . S
O23 Eu11 2.355 . S
O24 Eu1 2.394 1_556 S
O24 C9 1.251 . S
O25 C9 1.251 1_554 S
O25 Eu11 2.374 . S
O26 C10 1.257 . S
O26 Eu11 2.473 . S
O27 C10 1.260 . S
O27 Eu11 2.480 . S
O28 Eu11 2.430 . S
O28 C18 1.259 . S
O29 Eu1 2.355 . S
O29 Eu11 2.670 . S
O29 C18 1.270 . S
O30 Eu11 2.394 . S
O30 C19 1.251 . S
O31 Eu1 2.374 . S
O31 C19 1.251 . S
H32 C3 0.931 . S
H33 C4 0.931 . S
H34 C6 0.931 . S
H35 C7 0.931 . S
H36 C13 0.931 . S
H37 C14 0.931 . S
H38 C16 0.931 . S
H39 C17 0.931 . S
C40 Eu41 2.835 . S
C40 C42 1.500 . S
C40 O60 1.257 . S
C40 O61 1.260 . S
Eu41 C40 2.835 . S
Eu41 O60 2.473 . S
Eu41 O61 2.480 . S
Eu41 O62 2.430 . S
Eu41 O63 2.670 . S
Eu41 O64 2.394 . S
Eu41 O69 2.355 . S
Eu41 O71 2.374 . S
C42 C40 1.500 . S
C42 C43 1.377 . S
C42 C47 1.377 . S
C43 C42 1.377 . S
C43 C44 1.395 . S
C43 H72 0.931 . S
C44 C43 1.395 . S
C44 C45 1.383 . S
C44 H73 0.931 . S
C45 C44 1.383 . S
C45 C46 1.394 . S
C46 C45 1.394 . S
C46 C47 1.378 . S
C46 H74 0.931 . S
C47 C42 1.377 . S
C47 C46 1.378 . S
C47 H75 0.931 . S
C48 O62 1.259 . S
C48 O63 1.270 . S
C49 O64 1.251 . S
C49 O65 1.251 . S
C50 Eu51 2.835 . S
C50 C52 1.500 . S
C50 O66 1.257 . S
C50 O67 1.260 . S
Eu51 C50 2.835 . S
Eu51 O63 2.355 . S
Eu51 O65 2.374 . S
Eu51 O66 2.473 . S
Eu51 O67 2.480 . S
Eu51 O68 2.430 . S
Eu51 O69 2.670 . S
Eu51 O70 2.394 . S
C52 C50 1.500 . S
C52 C53 1.377 . S
C52 C57 1.377 . S
C53 C52 1.377 . S
C53 C54 1.395 . S
C53 H76 0.931 . S
C54 C53 1.395 . S
C54 C55 1.383 . S
C54 H77 0.931 . S
C55 C54 1.383 . S
C55 C56 1.394 . S
C56 C55 1.394 . S
C56 C57 1.378 . S
C56 H78 0.931 . S
C57 C52 1.377 . S
C57 C56 1.378 . S
C57 H79 0.931 . S
C58 O68 1.259 . S
C58 O69 1.270 . S
C59 O70 1.251 . S
C59 O71 1.251 . S
O60 C40 1.257 . S
O60 Eu41 2.473 . S
O61 C40 1.260 . S
O61 Eu41 2.480 . S
O62 Eu41 2.430 . S
O62 C48 1.259 . S
O63 Eu41 2.670 . S
O63 C48 1.270 . S
O63 Eu51 2.355 . S
O64 Eu41 2.394 . S
O64 C49 1.251 . S
O65 C49 1.251 . S
O65 Eu51 2.374 . S
O66 C50 1.257 . S
O66 Eu51 2.473 . S
O67 C50 1.260 . S
O67 Eu51 2.480 . S
O68 Eu51 2.430 . S
O68 C58 1.259 . S
O69 Eu41 2.355 . S
O69 Eu51 2.670 . S
O69 C58 1.270 . S
O70 Eu51 2.394 . S
O70 C59 1.251 . S
O71 Eu41 2.374 . S
O71 C59 1.251 . S
H72 C43 0.931 . S
H73 C44 0.931 . S
H74 C46 0.931 . S
H75 C47 0.931 . S
H76 C53 0.931 . S
H77 C54 0.931 . S
H78 C56 0.931 . S
H79 C57 0.931 . S
C80 Eu81 2.835 . S
C80 C82 1.500 . S
C80 O100 1.257 . S
C80 O101 1.260 . S
Eu81 C80 2.835 . S
Eu81 O100 2.473 . S
Eu81 O101 2.480 . S
Eu81 O102 2.430 . S
Eu81 O103 2.670 . S
Eu81 O104 2.394 . S
Eu81 O109 2.355 . S
Eu81 O111 2.374 . S
C82 C80 1.500 . S
C82 C83 1.377 . S
C82 C87 1.377 . S
C83 C82 1.377 . S
C83 C84 1.395 . S
C83 H112 0.931 . S
C84 C83 1.395 . S
C84 C85 1.383 . S
C84 H113 0.931 . S
C85 C84 1.383 . S
C85 C86 1.394 . S
C86 C85 1.394 . S
C86 C87 1.378 . S
C86 H114 0.931 . S
C87 C82 1.377 . S
C87 C86 1.378 . S
C87 H115 0.931 . S
C88 O102 1.259 . S
C88 O103 1.270 . S
C89 O104 1.251 . S
C89 O105 1.251 . S
C90 Eu91 2.835 . S
C90 C92 1.500 . S
C90 O106 1.257 . S
C90 O107 1.260 . S
Eu91 C90 2.835 . S
Eu91 O103 2.355 . S
Eu91 O105 2.374 . S
Eu91 O106 2.473 . S
Eu91 O107 2.480 . S
Eu91 O108 2.430 . S
Eu91 O109 2.670 . S
Eu91 O110 2.394 . S
C92 C90 1.500 . S
C92 C93 1.377 . S
C92 C97 1.377 . S
C93 C92 1.377 . S
C93 C94 1.395 . S
C93 H116 0.931 . S
C94 C93 1.395 . S
C94 C95 1.383 . S
C94 H117 0.931 . S
C95 C94 1.383 . S
C95 C96 1.394 . S
C96 C95 1.394 . S
C96 C97 1.378 . S
C96 H118 0.931 . S
C97 C92 1.377 . S
C97 C96 1.378 . S
C97 H119 0.931 . S
C98 O108 1.259 . S
C98 O109 1.270 . S
C99 O110 1.251 . S
C99 O111 1.251 . S
O100 C80 1.257 . S
O100 Eu81 2.473 . S
O101 C80 1.260 . S
O101 Eu81 2.480 . S
O102 Eu81 2.430 . S
O102 C88 1.259 . S
O103 Eu81 2.670 . S
O103 C88 1.270 . S
O103 Eu91 2.355 . S
O104 Eu81 2.394 . S
O104 C89 1.251 . S
O105 C89 1.251 . S
O105 Eu91 2.374 . S
O106 C90 1.257 . S
O106 Eu91 2.473 . S
O107 C90 1.260 . S
O107 Eu91 2.480 . S
O108 Eu91 2.430 . S
O108 C98 1.259 . S
O109 Eu81 2.355 . S
O109 Eu91 2.670 . S
O109 C98 1.270 . S
O110 Eu91 2.394 . S
O110 C99 1.251 . S
O111 Eu81 2.374 . S
O111 C99 1.251 . S
H112 C83 0.931 . S
H113 C84 0.931 . S
H114 C86 0.931 . S
H115 C87 0.931 . S
H116 C93 0.931 . S
H117 C94 0.931 . S
H118 C96 0.931 . S
H119 C97 0.931 . S
C120 Eu121 2.835 1_556 S
C120 C122 1.500 . S
C120 O140 1.257 . S
C120 O141 1.260 . S
Eu121 C120 2.835 1_554 S
Eu121 O140 2.473 1_554 S
Eu121 O141 2.480 1_554 S
Eu121 O142 2.430 . S
Eu121 O143 2.670 . S
Eu121 O144 2.394 1_554 S
Eu121 O149 2.355 . S
Eu121 O151 2.374 . S
C122 C120 1.500 . S
C122 C123 1.377 . S
C122 C127 1.377 . S
C123 C122 1.377 . S
C123 C124 1.395 . S
C123 H152 0.931 . S
C124 C123 1.395 . S
C124 C125 1.383 . S
C124 H153 0.931 . S
C125 C124 1.383 . S
C125 C126 1.394 . S
C126 C125 1.394 . S
C126 C127 1.378 . S
C126 H154 0.931 . S
C127 C122 1.377 . S
C127 C126 1.378 . S
C127 H155 0.931 . S
C128 O142 1.259 . S
C128 O143 1.270 . S
C129 O144 1.251 . S
C129 O145 1.251 1_556 S
C130 Eu131 2.835 . S
C130 C132 1.500 . S
C130 O146 1.257 . S
C130 O147 1.260 . S
Eu131 C130 2.835 . S
Eu131 O143 2.355 . S
Eu131 O145 2.374 . S
Eu131 O146 2.473 . S
Eu131 O147 2.480 . S
Eu131 O148 2.430 . S
Eu131 O149 2.670 . S
Eu131 O150 2.394 . S
C132 C130 1.500 . S
C132 C133 1.377 . S
C132 C137 1.377 . S
C133 C132 1.377 . S
C133 C134 1.395 . S
C133 H156 0.931 . S
C134 C133 1.395 . S
C134 C135 1.383 . S
C134 H157 0.931 . S
C135 C134 1.383 . S
C135 C136 1.394 . S
C136 C135 1.394 . S
C136 C137 1.378 . S
C136 H158 0.931 . S
C137 C132 1.377 . S
C137 C136 1.378 . S
C137 H159 0.931 . S
C138 O148 1.259 . S
C138 O149 1.270 . S
C139 O150 1.251 . S
C139 O151 1.251 . S
O140 C120 1.257 . S
O140 Eu121 2.473 1_556 S
O141 C120 1.260 . S
O141 Eu121 2.480 1_556 S
O142 Eu121 2.430 . S
O142 C128 1.259 . S
O143 Eu121 2.670 . S
O143 C128 1.270 . S
O143 Eu131 2.355 . S
O144 Eu121 2.394 1_556 S
O144 C129 1.251 . S
O145 C129 1.251 1_554 S
O145 Eu131 2.374 . S
O146 C130 1.257 . S
O146 Eu131 2.473 . S
O147 C130 1.260 . S
O147 Eu131 2.480 . S
O148 Eu131 2.430 . S
O148 C138 1.259 . S
O149 Eu121 2.355 . S
O149 Eu131 2.670 . S
O149 C138 1.270 . S
O150 Eu131 2.394 . S
O150 C139 1.251 . S
O151 Eu121 2.374 . S
O151 C139 1.251 . S
H152 C123 0.931 . S
H153 C124 0.931 . S
H154 C126 0.931 . S
H155 C127 0.931 . S
H156 C133 0.931 . S
H157 C134 0.931 . S
H158 C136 0.931 . S
H159 C137 0.931 . S
C160 Eu161 2.835 . S
C160 C162 1.500 . S
C160 O180 1.257 . S
C160 O181 1.260 . S
Eu161 C160 2.835 . S
Eu161 O180 2.473 . S
Eu161 O181 2.480 . S
Eu161 O182 2.430 . S
Eu161 O183 2.670 . S
Eu161 O184 2.394 . S
Eu161 O189 2.355 . S
Eu161 O191 2.374 . S
C162 C160 1.500 . S
C162 C163 1.377 . S
C162 C167 1.377 . S
C163 C162 1.377 . S
C163 C164 1.395 . S
C163 H192 0.931 . S
C164 C163 1.395 . S
C164 C165 1.383 . S
C164 H193 0.931 . S
C165 C164 1.383 . S
C165 C166 1.394 . S
C166 C165 1.394 . S
C166 C167 1.378 . S
C166 H194 0.931 . S
C167 C162 1.377 . S
C167 C166 1.378 . S
C167 H195 0.931 . S
C168 O182 1.259 . S
C168 O183 1.270 . S
C169 O184 1.251 . S
C169 O185 1.251 . S
C170 Eu171 2.835 . S
C170 C172 1.500 . S
C170 O186 1.257 . S
C170 O187 1.260 . S
Eu171 C170 2.835 . S
Eu171 O183 2.355 . S
Eu171 O185 2.374 . S
Eu171 O186 2.473 . S
Eu171 O187 2.480 . S
Eu171 O188 2.430 . S
Eu171 O189 2.670 . S
Eu171 O190 2.394 . S
C172 C170 1.500 . S
C172 C173 1.377 . S
C172 C177 1.377 . S
C173 C172 1.377 . S
C173 C174 1.395 . S
C173 H196 0.931 . S
C174 C173 1.395 . S
C174 C175 1.383 . S
C174 H197 0.931 . S
C175 C174 1.383 . S
C175 C176 1.394 . S
C176 C175 1.394 . S
C176 C177 1.378 . S
C176 H198 0.931 . S
C177 C172 1.377 . S
C177 C176 1.378 . S
C177 H199 0.931 . S
C178 O188 1.259 . S
C178 O189 1.270 . S
C179 O190 1.251 . S
C179 O191 1.251 . S
O180 C160 1.257 . S
O180 Eu161 2.473 . S
O181 C160 1.260 . S
O181 Eu161 2.480 . S
O182 Eu161 2.430 . S
O182 C168 1.259 . S
O183 Eu161 2.670 . S
O183 C168 1.270 . S
O183 Eu171 2.355 . S
O184 Eu161 2.394 . S
O184 C169 1.251 . S
O185 C169 1.251 . S
O185 Eu171 2.374 . S
O186 C170 1.257 . S
O186 Eu171 2.473 . S
O187 C170 1.260 . S
O187 Eu171 2.480 . S
O188 Eu171 2.430 . S
O188 C178 1.259 . S
O189 Eu161 2.355 . S
O189 Eu171 2.670 . S
O189 C178 1.270 . S
O190 Eu171 2.394 . S
O190 C179 1.251 . S
O191 Eu161 2.374 . S
O191 C179 1.251 . S
H192 C163 0.931 . S
H193 C164 0.931 . S
H194 C166 0.931 . S
H195 C167 0.931 . S
H196 C173 0.931 . S
H197 C174 0.931 . S
H198 C176 0.931 . S
H199 C177 0.931 . S
C200 Eu201 2.835 . S
C200 C202 1.500 . S
C200 O220 1.257 . S
C200 O221 1.260 . S
Eu201 C200 2.835 . S
Eu201 O220 2.473 . S
Eu201 O221 2.480 . S
Eu201 O222 2.430 . S
Eu201 O223 2.670 . S
Eu201 O224 2.394 . S
Eu201 O229 2.355 . S
Eu201 O231 2.374 . S
C202 C200 1.500 . S
C202 C203 1.377 . S
C202 C207 1.377 . S
C203 C202 1.377 . S
C203 C204 1.395 . S
C203 H232 0.931 . S
C204 C203 1.395 . S
C204 C205 1.383 . S
C204 H233 0.931 . S
C205 C204 1.383 . S
C205 C206 1.394 . S
C206 C205 1.394 . S
C206 C207 1.378 . S
C206 H234 0.931 . S
C207 C202 1.377 . S
C207 C206 1.378 . S
C207 H235 0.931 . S
C208 O222 1.259 . S
C208 O223 1.270 . S
C209 O224 1.251 . S
C209 O225 1.251 . S
C210 Eu211 2.835 . S
C210 C212 1.500 . S
C210 O226 1.257 . S
C210 O227 1.260 . S
Eu211 C210 2.835 . S
Eu211 O223 2.355 . S
Eu211 O225 2.374 . S
Eu211 O226 2.473 . S
Eu211 O227 2.480 . S
Eu211 O228 2.430 . S
Eu211 O229 2.670 . S
Eu211 O230 2.394 . S
C212 C210 1.500 . S
C212 C213 1.377 . S
C212 C217 1.377 . S
C213 C212 1.377 . S
C213 C214 1.395 . S
C213 H236 0.931 . S
C214 C213 1.395 . S
C214 C215 1.383 . S
C214 H237 0.931 . S
C215 C214 1.383 . S
C215 C216 1.394 . S
C216 C215 1.394 . S
C216 C217 1.378 . S
C216 H238 0.931 . S
C217 C212 1.377 . S
C217 C216 1.378 . S
C217 H239 0.931 . S
C218 O228 1.259 . S
C218 O229 1.270 . S
C219 O230 1.251 . S
C219 O231 1.251 . S
O220 C200 1.257 . S
O220 Eu201 2.473 . S
O221 C200 1.260 . S
O221 Eu201 2.480 . S
O222 Eu201 2.430 . S
O222 C208 1.259 . S
O223 Eu201 2.670 . S
O223 C208 1.270 . S
O223 Eu211 2.355 . S
O224 Eu201 2.394 . S
O224 C209 1.251 . S
O225 C209 1.251 . S
O225 Eu211 2.374 . S
O226 C210 1.257 . S
O226 Eu211 2.473 . S
O227 C210 1.260 . S
O227 Eu211 2.480 . S
O228 Eu211 2.430 . S
O228 C218 1.259 . S
O229 Eu201 2.355 . S
O229 Eu211 2.670 . S
O229 C218 1.270 . S
O230 Eu211 2.394 . S
O230 C219 1.251 . S
O231 Eu201 2.374 . S
O231 C219 1.251 . S
H232 C203 0.931 . S
H233 C204 0.931 . S
H234 C206 0.931 . S
H235 C207 0.931 . S
H236 C213 0.931 . S
H237 C214 0.931 . S
H238 C216 0.931 . S
H239 C217 0.931 . S
C240 C241 1.349 . S
C240 C242 1.327 . S
C240 H265 0.950 . S
C241 C240 1.349 . S
C241 C257 1.349 . S
C242 C240 1.327 . S
C242 C261 1.429 . S
C242 H266 0.950 . S
C243 C260 1.574 . S
C243 C262 1.368 . S
C243 H267 0.949 . S
H244 C248 0.949 . S
C245 C246 1.349 . S
C245 C247 1.327 . S
C245 H268 0.950 . S
C246 C245 1.349 . S
C246 C258 1.349 . S
C247 C245 1.327 . S
C247 C263 1.429 . S
C247 H269 0.950 . S
C248 H244 0.949 . S
C248 C256 1.574 . S
C248 C264 1.368 . S
H249 C257 0.950 . S
H250 C255 0.950 . S
H251 C256 0.949 . S
H252 C258 0.950 . S
H253 C259 0.950 . S
H254 C260 0.949 . S
C255 H250 0.950 . S
C255 C257 1.327 . S
C255 C261 1.429 . S
C256 C248 1.574 . S
C256 H251 0.949 . S
C256 C262 1.368 . S
C257 C241 1.349 . S
C257 H249 0.950 . S
C257 C255 1.327 . S
C258 C246 1.349 . S
C258 H252 0.950 . S
C258 C259 1.327 . S
C259 H253 0.950 . S
C259 C258 1.327 . S
C259 C263 1.429 . S
C260 C243 1.574 . S
C260 H254 0.949 . S
C260 C264 1.368 . S
C261 C242 1.429 . S
C261 C255 1.429 . S
C261 C262 1.523 . S
C262 C243 1.368 . S
C262 C256 1.368 . S
C262 C261 1.523 . S
C263 C247 1.429 . S
C263 C259 1.429 . S
C263 C264 1.523 . S
C264 C248 1.368 . S
C264 C260 1.368 . S
C264 C263 1.523 . S
H265 C240 0.950 . S
H266 C242 0.950 . S
H267 C243 0.949 . S
H268 C245 0.950 . S
H269 C247 0.950 . S
C270 C271 1.349 . S
C270 C272 1.327 . S
C270 H295 0.950 . S
C271 C270 1.349 . S
C271 C287 1.349 . S
C272 C270 1.327 . S
C272 C291 1.429 . S
C272 H296 0.950 . S
C273 C290 1.574 . S
C273 C292 1.368 . S
C273 H297 0.949 . S
H274 C278 0.949 . S
C275 C276 1.349 . S
C275 C277 1.327 . S
C275 H298 0.950 . S
C276 C275 1.349 . S
C276 C288 1.349 . S
C277 C275 1.327 . S
C277 C293 1.429 . S
C277 H299 0.950 . S
C278 H274 0.949 . S
C278 C286 1.574 . S
C278 C294 1.368 . S
H279 C287 0.950 . S
H280 C285 0.950 . S
H281 C286 0.949 . S
H282 C288 0.950 . S
H283 C289 0.950 . S
H284 C290 0.949 . S
C285 H280 0.950 . S
C285 C287 1.327 . S
C285 C291 1.429 . S
C286 C278 1.574 . S
C286 H281 0.949 . S
C286 C292 1.368 . S
C287 C271 1.349 . S
C287 H279 0.950 . S
C287 C285 1.327 . S
C288 C276 1.349 . S
C288 H282 0.950 . S
C288 C289 1.327 . S
C289 H283 0.950 . S
C289 C288 1.327 . S
C289 C293 1.429 . S
C290 C273 1.574 . S
C290 H284 0.949 . S
C290 C294 1.368 . S
C291 C272 1.429 . S
C291 C285 1.429 . S
C291 C292 1.523 . S
C292 C273 1.368 . S
C292 C286 1.368 . S
C292 C291 1.523 . S
C293 C277 1.429 . S
C293 C289 1.429 . S
C293 C294 1.523 . S
C294 C278 1.368 . S
C294 C290 1.368 . S
C294 C293 1.523 . S
H295 C270 0.950 . S
H296 C272 0.950 . S
H297 C273 0.949 . S
H298 C275 0.950 . S
H299 C277 0.950 . S
C300 C301 1.349 . S
C300 C302 1.327 . S
C300 H325 0.950 . S
C301 C300 1.349 . S
C301 C317 1.349 . S
C302 C300 1.327 . S
C302 C321 1.429 . S
C302 H326 0.950 . S
C303 C320 1.574 . S
C303 C322 1.368 . S
C303 H327 0.949 . S
H304 C308 0.949 . S
C305 C306 1.349 . S
C305 C307 1.327 . S
C305 H328 0.950 . S
C306 C305 1.349 . S
C306 C318 1.349 . S
C307 C305 1.327 . S
C307 C323 1.429 . S
C307 H329 0.950 . S
C308 H304 0.949 . S
C308 C316 1.574 . S
C308 C324 1.368 . S
H309 C317 0.950 . S
H310 C315 0.950 . S
H311 C316 0.949 . S
H312 C318 0.950 . S
H313 C319 0.950 . S
H314 C320 0.949 . S
C315 H310 0.950 . S
C315 C317 1.327 . S
C315 C321 1.429 . S
C316 C308 1.574 . S
C316 H311 0.949 . S
C316 C322 1.368 . S
C317 C301 1.349 . S
C317 H309 0.950 . S
C317 C315 1.327 . S
C318 C306 1.349 . S
C318 H312 0.950 . S
C318 C319 1.327 . S
C319 H313 0.950 . S
C319 C318 1.327 . S
C319 C323 1.429 . S
C320 C303 1.574 . S
C320 H314 0.949 . S
C320 C324 1.368 . S
C321 C302 1.429 . S
C321 C315 1.429 . S
C321 C322 1.523 . S
C322 C303 1.368 . S
C322 C316 1.368 . S
C322 C321 1.523 . S
C323 C307 1.429 . S
C323 C319 1.429 . S
C323 C324 1.523 . S
C324 C308 1.368 . S
C324 C320 1.368 . S
C324 C323 1.523 . S
H325 C300 0.950 . S
H326 C302 0.950 . S
H327 C303 0.949 . S
H328 C305 0.950 . S
H329 C307 0.950 . S
C330 C331 1.349 . S
C330 C332 1.327 . S
C330 H355 0.950 . S
C331 C330 1.349 . S
C331 C347 1.349 . S
C332 C330 1.327 . S
C332 C351 1.429 . S
C332 H356 0.950 . S
C333 C350 1.574 . S
C333 C352 1.368 . S
C333 H357 0.949 . S
H334 C338 0.949 . S
C335 C336 1.349 . S
C335 C337 1.327 . S
C335 H358 0.950 . S
C336 C335 1.349 . S
C336 C348 1.349 . S
C337 C335 1.327 . S
C337 C353 1.429 . S
C337 H359 0.950 . S
C338 H334 0.949 . S
C338 C346 1.574 . S
C338 C354 1.368 . S
H339 C347 0.950 . S
H340 C345 0.950 . S
H341 C346 0.949 . S
H342 C348 0.950 . S
H343 C349 0.950 . S
H344 C350 0.949 . S
C345 H340 0.950 . S
C345 C347 1.327 . S
C345 C351 1.429 . S
C346 C338 1.574 . S
C346 H341 0.949 . S
C346 C352 1.368 . S
C347 C331 1.349 . S
C347 H339 0.950 . S
C347 C345 1.327 . S
C348 C336 1.349 . S
C348 H342 0.950 . S
C348 C349 1.327 . S
C349 H343 0.950 . S
C349 C348 1.327 . S
C349 C353 1.429 . S
C350 C333 1.574 . S
C350 H344 0.949 . S
C350 C354 1.368 . S
C351 C332 1.429 . S
C351 C345 1.429 . S
C351 C352 1.523 . S
C352 C333 1.368 . S
C352 C346 1.368 . S
C352 C351 1.523 . S
C353 C337 1.429 . S
C353 C349 1.429 . S
C353 C354 1.523 . S
C354 C338 1.368 . S
C354 C350 1.368 . S
C354 C353 1.523 . S
H355 C330 0.950 . S
H356 C332 0.950 . S
H357 C333 0.949 . S
H358 C335 0.950 . S
H359 C337 0.950 . S
C360 C361 1.349 . S
C360 C362 1.327 . S
C360 H385 0.950 . S
C361 C360 1.349 . S
C361 C377 1.349 . S
C362 C360 1.327 . S
C362 C381 1.429 . S
C362 H386 0.950 . S
C363 C380 1.574 . S
C363 C382 1.368 . S
C363 H387 0.949 . S
H364 C368 0.949 . S
C365 C366 1.349 . S
C365 C367 1.327 . S
C365 H388 0.950 . S
C366 C365 1.349 . S
C366 C378 1.349 . S
C367 C365 1.327 . S
C367 C383 1.429 . S
C367 H389 0.950 . S
C368 H364 0.949 . S
C368 C376 1.574 . S
C368 C384 1.368 . S
H369 C377 0.950 . S
H370 C375 0.950 . S
H371 C376 0.949 . S
H372 C378 0.950 . S
H373 C379 0.950 . S
H374 C380 0.949 . S
C375 H370 0.950 . S
C375 C377 1.327 . S
C375 C381 1.429 . S
C376 C368 1.574 . S
C376 H371 0.949 . S
C376 C382 1.368 . S
C377 C361 1.349 . S
C377 H369 0.950 . S
C377 C375 1.327 . S
C378 C366 1.349 . S
C378 H372 0.950 . S
C378 C379 1.327 . S
C379 H373 0.950 . S
C379 C378 1.327 . S
C379 C383 1.429 . S
C380 C363 1.574 . S
C380 H374 0.949 . S
C380 C384 1.368 . S
C381 C362 1.429 . S
C381 C375 1.429 . S
C381 C382 1.523 . S
C382 C363 1.368 . S
C382 C376 1.368 . S
C382 C381 1.523 . S
C383 C367 1.429 . S
C383 C379 1.429 . S
C383 C384 1.523 . S
C384 C368 1.368 . S
C384 C380 1.368 . S
C384 C383 1.523 . S
H385 C360 0.950 . S
H386 C362 0.950 . S
H387 C363 0.949 . S
H388 C365 0.950 . S
H389 C367 0.950 . S
C390 C391 1.349 . S
C390 C392 1.327 . S
C390 H415 0.950 . S
C391 C390 1.349 . S
C391 C407 1.349 . S
C392 C390 1.327 . S
C392 C411 1.429 . S
C392 H416 0.950 . S
C393 C410 1.574 . S
C393 C412 1.368 . S
C393 H417 0.949 . S
H394 C398 0.949 . S
C395 C396 1.349 . S
C395 C397 1.327 . S
C395 H418 0.950 . S
C396 C395 1.349 . S
C396 C408 1.349 . S
C397 C395 1.327 . S
C397 C413 1.429 . S
C397 H419 0.950 . S
C398 H394 0.949 . S
C398 C406 1.574 . S
C398 C414 1.368 . S
H399 C407 0.950 . S
H400 C405 0.950 . S
H401 C406 0.949 . S
H402 C408 0.950 . S
H403 C409 0.950 . S
H404 C410 0.949 . S
C405 H400 0.950 . S
C405 C407 1.327 . S
C405 C411 1.429 . S
C406 C398 1.574 . S
C406 H401 0.949 . S
C406 C412 1.368 . S
C407 C391 1.349 . S
C407 H399 0.950 . S
C407 C405 1.327 . S
C408 C396 1.349 . S
C408 H402 0.950 . S
C408 C409 1.327 . S
C409 H403 0.950 . S
C409 C408 1.327 . S
C409 C413 1.429 . S
C410 C393 1.574 . S
C410 H404 0.949 . S
C410 C414 1.368 . S
C411 C392 1.429 . S
C411 C405 1.429 . S
C411 C412 1.523 . S
C412 C393 1.368 . S
C412 C406 1.368 . S
C412 C411 1.523 . S
C413 C397 1.429 . S
C413 C409 1.429 . S
C413 C414 1.523 . S
C414 C398 1.368 . S
C414 C410 1.368 . S
C414 C413 1.523 . S
H415 C390 0.950 . S
H416 C392 0.950 . S
H417 C393 0.949 . S
H418 C395 0.950 . S
H419 C397 0.950 . S
C420 C421 1.349 . S
C420 C422 1.327 . S
C420 H445 0.950 . S
C421 C420 1.349 . S
C421 C437 1.349 . S
C422 C420 1.327 . S
C422 C441 1.429 . S
C422 H446 0.950 . S
C423 C440 1.574 . S
C423 C442 1.368 . S
C423 H447 0.949 . S
H424 C428 0.949 . S
C425 C426 1.349 . S
C425 C427 1.327 . S
C425 H448 0.950 . S
C426 C425 1.349 . S
C426 C438 1.349 . S
C427 C425 1.327 . S
C427 C443 1.429 . S
C427 H449 0.950 . S
C428 H424 0.949 . S
C428 C436 1.574 . S
C428 C444 1.368 . S
H429 C437 0.950 . S
H430 C435 0.950 . S
H431 C436 0.949 . S
H432 C438 0.950 . S
H433 C439 0.950 . S
H434 C440 0.949 . S
C435 H430 0.950 . S
C435 C437 1.327 . S
C435 C441 1.429 . S
C436 C428 1.574 . S
C436 H431 0.949 . S
C436 C442 1.368 . S
C437 C421 1.349 . S
C437 H429 0.950 . S
C437 C435 1.327 . S
C438 C426 1.349 . S
C438 H432 0.950 . S
C438 C439 1.327 . S
C439 H433 0.950 . S
C439 C438 1.327 . S
C439 C443 1.429 . S
C440 C423 1.574 . S
C440 H434 0.949 . S
C440 C444 1.368 . S
C441 C422 1.429 . S
C441 C435 1.429 . S
C441 C442 1.523 . S
C442 C423 1.368 . S
C442 C436 1.368 . S
C442 C441 1.523 . S
C443 C427 1.429 . S
C443 C439 1.429 . S
C443 C444 1.523 . S
C444 C428 1.368 . S
C444 C440 1.368 . S
C444 C443 1.523 . S
H445 C420 0.950 . S
H446 C422 0.950 . S
H447 C423 0.949 . S
H448 C425 0.950 . S
H449 C427 0.950 . S
C450 C451 1.349 . S
C450 C452 1.327 . S
C450 H475 0.950 . S
C451 C450 1.349 . S
C451 C467 1.349 . S
C452 C450 1.327 . S
C452 C471 1.429 . S
C452 H476 0.950 . S
C453 C470 1.574 . S
C453 C472 1.368 1_655 S
C453 H477 0.949 . S
H454 C458 0.949 . S
C455 C456 1.349 . S
C455 C457 1.327 . S
C455 H478 0.950 . S
C456 C455 1.349 . S
C456 C468 1.349 . S
C457 C455 1.327 . S
C457 C473 1.429 . S
C457 H479 0.950 . S
C458 H454 0.949 . S
C458 C466 1.574 . S
C458 C474 1.368 1_455 S
H459 C467 0.950 . S
H460 C465 0.950 . S
H461 C466 0.949 . S
H462 C468 0.950 . S
H463 C469 0.950 . S
H464 C470 0.949 . S
C465 H460 0.950 . S
C465 C467 1.327 . S
C465 C471 1.429 . S
C466 C458 1.574 . S
C466 H461 0.949 . S
C466 C472 1.368 . S
C467 C451 1.349 . S
C467 H459 0.950 . S
C467 C465 1.327 . S
C468 C456 1.349 . S
C468 H462 0.950 . S
C468 C469 1.327 . S
C469 H463 0.950 . S
C469 C468 1.327 . S
C469 C473 1.429 . S
C470 C453 1.574 . S
C470 H464 0.949 . S
C470 C474 1.368 . S
C471 C452 1.429 . S
C471 C465 1.429 . S
C471 C472 1.523 . S
C472 C453 1.368 1_455 S
C472 C466 1.368 . S
C472 C471 1.523 . S
C473 C457 1.429 . S
C473 C469 1.429 . S
C473 C474 1.523 . S
C474 C458 1.368 1_655 S
C474 C470 1.368 . S
C474 C473 1.523 . S
H475 C450 0.950 . S
H476 C452 0.950 . S
H477 C453 0.949 . S
H478 C455 0.950 . S
H479 C457 0.950 . S
C480 C481 1.349 . S
C480 C482 1.327 . S
C480 H505 0.950 . S
C481 C480 1.349 . S
C481 C497 1.349 . S
C482 C480 1.327 . S
C482 C501 1.429 . S
C482 H506 0.950 . S
C483 C500 1.574 . S
C483 C502 1.368 . S
C483 H507 0.949 . S
H484 C488 0.949 . S
C485 C486 1.349 . S
C485 C487 1.327 . S
C485 H508 0.950 . S
C486 C485 1.349 . S
C486 C498 1.349 . S
C487 C485 1.327 . S
C487 C503 1.429 . S
C487 H509 0.950 . S
C488 H484 0.949 . S
C488 C496 1.574 . S
C488 C504 1.368 . S
H489 C497 0.950 . S
H490 C495 0.950 . S
H491 C496 0.949 . S
H492 C498 0.950 . S
H493 C499 0.950 . S
H494 C500 0.949 . S
C495 H490 0.950 . S
C495 C497 1.327 . S
C495 C501 1.429 . S
C496 C488 1.574 . S
C496 H491 0.949 . S
C496 C502 1.368 1_565 S
C497 C481 1.349 . S
C497 H489 0.950 . S
C497 C495 1.327 . S
C498 C486 1.349 . S
C498 H492 0.950 . S
C498 C499 1.327 . S
C499 H493 0.950 . S
C499 C498 1.327 . S
C499 C503 1.429 . S
C500 C483 1.574 . S
C500 H494 0.949 . S
C500 C504 1.368 1_545 S
C501 C482 1.429 . S
C501 C495 1.429 . S
C501 C502 1.523 . S
C502 C483 1.368 . S
C502 C496 1.368 1_545 S
C502 C501 1.523 . S
C503 C487 1.429 . S
C503 C499 1.429 . S
C503 C504 1.523 . S
C504 C488 1.368 . S
C504 C500 1.368 1_565 S
C504 C503 1.523 . S
H505 C480 0.950 . S
H506 C482 0.950 . S
H507 C483 0.949 . S
H508 C485 0.950 . S
H509 C487 0.950 . S
C510 C511 1.349 . S
C510 C512 1.327 . S
C510 H535 0.950 . S
C511 C510 1.349 . S
C511 C527 1.349 . S
C512 C510 1.327 . S
C512 C531 1.429 . S
C512 H536 0.950 . S
C513 C530 1.574 . S
C513 C532 1.368 . S
C513 H537 0.949 . S
H514 C518 0.949 . S
C515 C516 1.349 . S
C515 C517 1.327 . S
C515 H538 0.950 . S
C516 C515 1.349 . S
C516 C528 1.349 . S
C517 C515 1.327 . S
C517 C533 1.429 . S
C517 H539 0.950 . S
C518 H514 0.949 . S
C518 C526 1.574 . S
C518 C534 1.368 . S
H519 C527 0.950 . S
H520 C525 0.950 . S
H521 C526 0.949 . S
H522 C528 0.950 . S
H523 C529 0.950 . S
H524 C530 0.949 . S
C525 H520 0.950 . S
C525 C527 1.327 . S
C525 C531 1.429 . S
C526 C518 1.574 . S
C526 H521 0.949 . S
C526 C532 1.368 . S
C527 C511 1.349 . S
C527 H519 0.950 . S
C527 C525 1.327 . S
C528 C516 1.349 . S
C528 H522 0.950 . S
C528 C529 1.327 . S
C529 H523 0.950 . S
C529 C528 1.327 . S
C529 C533 1.429 . S
C530 C513 1.574 . S
C530 H524 0.949 . S
C530 C534 1.368 . S
C531 C512 1.429 . S
C531 C525 1.429 . S
C531 C532 1.523 . S
C532 C513 1.368 . S
C532 C526 1.368 . S
C532 C531 1.523 . S
C533 C517 1.429 . S
C533 C529 1.429 . S
C533 C534 1.523 . S
C534 C518 1.368 . S
C534 C530 1.368 . S
C534 C533 1.523 . S
H535 C510 0.950 . S
H536 C512 0.950 . S
H537 C513 0.949 . S
H538 C515 0.950 . S
H539 C517 0.950 . S
C540 C541 1.349 . S
C540 C542 1.327 . S
C540 H565 0.950 . S
C541 C540 1.349 . S
C541 C557 1.349 1_554 S
C542 C540 1.327 . S
C542 C561 1.429 . S
C542 H566 0.950 . S
C543 C560 1.574 . S
C543 C562 1.368 1_656 S
C543 H567 0.949 . S
H544 C548 0.949 . S
C545 C546 1.349 1_556 S
C545 C547 1.327 . S
C545 H568 0.950 . S
C546 C545 1.349 1_554 S
C546 C558 1.349 . S
C547 C545 1.327 . S
C547 C563 1.429 1_556 S
C547 H569 0.950 . S
C548 H544 0.949 . S
C548 C556 1.574 . S
C548 C564 1.368 1_455 S
H549 C557 0.950 . S
H550 C555 0.950 . S
H551 C556 0.949 . S
H552 C558 0.950 . S
H553 C559 0.950 . S
H554 C560 0.949 . S
C555 H550 0.950 . S
C555 C557 1.327 . S
C555 C561 1.429 1_556 S
C556 C548 1.574 . S
C556 H551 0.949 . S
C556 C562 1.368 . S
C557 C541 1.349 1_556 S
C557 H549 0.950 . S
C557 C555 1.327 . S
C558 C546 1.349 . S
C558 H552 0.950 . S
C558 C559 1.327 . S
C559 H553 0.950 . S
C559 C558 1.327 . S
C559 C563 1.429 . S
C560 C543 1.574 . S
C560 H554 0.949 . S
C560 C564 1.368 1_556 S
C561 C542 1.429 . S
C561 C555 1.429 1_554 S
C561 C562 1.523 . S
C562 C543 1.368 1_454 S
C562 C556 1.368 . S
C562 C561 1.523 . S
C563 C547 1.429 1_554 S
C563 C559 1.429 . S
C563 C564 1.523 . S
C564 C548 1.368 1_655 S
C564 C560 1.368 1_554 S
C564 C563 1.523 . S
H565 C540 0.950 . S
H566 C542 0.950 . S
H567 C543 0.949 . S
H568 C545 0.950 . S
H569 C547 0.950 . S
C570 C571 1.349 . S
C570 C572 1.327 . S
C570 H595 0.950 . S
C571 C570 1.349 . S
C571 C587 1.349 . S
C572 C570 1.327 . S
C572 C591 1.429 . S
C572 H596 0.950 . S
C573 C590 1.574 . S
C573 C592 1.368 . S
C573 H597 0.949 . S
H574 C578 0.949 . S
C575 C576 1.349 . S
C575 C577 1.327 . S
C575 H598 0.950 . S
C576 C575 1.349 . S
C576 C588 1.349 . S
C577 C575 1.327 . S
C577 C593 1.429 . S
C577 H599 0.950 . S
C578 H574 0.949 . S
C578 C586 1.574 . S
C578 C594 1.368 . S
H579 C587 0.950 . S
H580 C585 0.950 . S
H581 C586 0.949 . S
H582 C588 0.950 . S
H583 C589 0.950 . S
H584 C590 0.949 . S
C585 H580 0.950 . S
C585 C587 1.327 . S
C585 C591 1.429 . S
C586 C578 1.574 . S
C586 H581 0.949 . S
C586 C592 1.368 1_545 S
C587 C571 1.349 . S
C587 H579 0.950 . S
C587 C585 1.327 . S
C588 C576 1.349 . S
C588 H582 0.950 . S
C588 C589 1.327 . S
C589 H583 0.950 . S
C589 C588 1.327 . S
C589 C593 1.429 . S
C590 C573 1.574 . S
C590 H584 0.949 . S
C590 C594 1.368 1_565 S
C591 C572 1.429 . S
C591 C585 1.429 . S
C591 C592 1.523 . S
C592 C573 1.368 . S
C592 C586 1.368 1_565 S
C592 C591 1.523 . S
C593 C577 1.429 . S
C593 C589 1.429 . S
C593 C594 1.523 . S
C594 C578 1.368 . S
C594 C590 1.368 1_545 S
C594 C593 1.523 . S
H595 C570 0.950 . S
H596 C572 0.950 . S
H597 C573 0.949 . S
H598 C575 0.950 . S
H599 C577 0.950 . S
C600 C601 1.349 . S
C600 C602 1.327 . S
C600 H625 0.950 . S
C601 C600 1.349 . S
C601 C617 1.349 . S
C602 C600 1.327 . S
C602 C621 1.429 . S
C602 H626 0.950 . S
C603 C620 1.574 . S
C603 C622 1.368 . S
C603 H627 0.949 . S
H604 C608 0.949 . S
C605 C606 1.349 . S
C605 C607 1.327 . S
C605 H628 0.950 . S
C606 C605 1.349 . S
C606 C618 1.349 . S
C607 C605 1.327 . S
C607 C623 1.429 . S
C607 H629 0.950 . S
C608 H604 0.949 . S
C608 C616 1.574 . S
C608 C624 1.368 . S
H609 C617 0.950 . S
H610 C615 0.950 . S
H611 C616 0.949 . S
H612 C618 0.950 . S
H613 C619 0.950 . S
H614 C620 0.949 . S
C615 H610 0.950 . S
C615 C617 1.327 . S
C615 C621 1.429 . S
C616 C608 1.574 . S
C616 H611 0.949 . S
C616 C622 1.368 . S
C617 C601 1.349 . S
C617 H609 0.950 . S
C617 C615 1.327 . S
C618 C606 1.349 . S
C618 H612 0.950 . S
C618 C619 1.327 . S
C619 H613 0.950 . S
C619 C618 1.327 . S
C619 C623 1.429 . S
C620 C603 1.574 . S
C620 H614 0.949 . S
C620 C624 1.368 . S
C621 C602 1.429 . S
C621 C615 1.429 . S
C621 C622 1.523 . S
C622 C603 1.368 . S
C622 C616 1.368 . S
C622 C621 1.523 . S
C623 C607 1.429 . S
C623 C619 1.429 . S
C623 C624 1.523 . S
C624 C608 1.368 . S
C624 C620 1.368 . S
C624 C623 1.523 . S
H625 C600 0.950 . S
H626 C602 0.950 . S
H627 C603 0.949 . S
H628 C605 0.950 . S
H629 C607 0.950 . S
C630 C631 1.349 . S
C630 C632 1.327 . S
C630 H655 0.950 . S
C631 C630 1.349 . S
C631 C647 1.349 1_655 S
C632 C630 1.327 . S
C632 C651 1.429 1_655 S
C632 H656 0.950 . S
C633 C650 1.574 . S
C633 C652 1.368 . S
C633 H657 0.949 . S
H634 C638 0.949 . S
C635 C636 1.349 . S
C635 C637 1.327 . S
C635 H658 0.950 . S
C636 C635 1.349 . S
C636 C648 1.349 . S
C637 C635 1.327 . S
C637 C653 1.429 . S
C637 H659 0.950 . S
C638 H634 0.949 . S
C638 C646 1.574 . S
C638 C654 1.368 . S
H639 C647 0.950 . S
H640 C645 0.950 . S
H641 C646 0.949 1_655 S
H642 C648 0.950 . S
H643 C649 0.950 . S
H644 C650 0.949 . S
C645 H640 0.950 . S
C645 C647 1.327 . S
C645 C651 1.429 . S
C646 C638 1.574 . S
C646 H641 0.949 1_455 S
C646 C652 1.368 . S
C647 C631 1.349 1_455 S
C647 H639 0.950 . S
C647 C645 1.327 . S
C648 C636 1.349 . S
C648 H642 0.950 . S
C648 C649 1.327 . S
C649 H643 0.950 . S
C649 C648 1.327 . S
C649 C653 1.429 . S
C650 C633 1.574 . S
C650 H644 0.949 . S
C650 C654 1.368 . S
C651 C632 1.429 1_455 S
C651 C645 1.429 . S
C651 C652 1.523 . S
C652 C633 1.368 . S
C652 C646 1.368 . S
C652 C651 1.523 . S
C653 C637 1.429 . S
C653 C649 1.429 . S
C653 C654 1.523 . S
C654 C638 1.368 . S
C654 C650 1.368 . S
C654 C653 1.523 . S
H655 C630 0.950 . S
H656 C632 0.950 . S
H657 C633 0.949 . S
H658 C635 0.950 . S
H659 C637 0.950 . S
C660 C661 1.349 . S
C660 C662 1.327 . S
C660 H685 0.950 . S
C661 C660 1.349 . S
C661 C677 1.349 1_565 S
C662 C660 1.327 . S
C662 C681 1.429 1_565 S
C662 H686 0.950 . S
C663 C680 1.574 . S
C663 C682 1.368 . S
C663 H687 0.949 . S
H664 C668 0.949 . S
C665 C666 1.349 . S
C665 C667 1.327 . S
C665 H688 0.950 . S
C666 C665 1.349 . S
C666 C678 1.349 . S
C667 C665 1.327 . S
C667 C683 1.429 . S
C667 H689 0.950 . S
C668 H664 0.949 . S
C668 C676 1.574 . S
C668 C684 1.368 . S
H669 C677 0.950 . S
H670 C675 0.950 . S
H671 C676 0.949 1_565 S
H672 C678 0.950 . S
H673 C679 0.950 . S
H674 C680 0.949 . S
C675 H670 0.950 . S
C675 C677 1.327 . S
C675 C681 1.429 . S
C676 C668 1.574 . S
C676 H671 0.949 1_545 S
C676 C682 1.368 . S
C677 C661 1.349 1_545 S
C677 H669 0.950 . S
C677 C675 1.327 . S
C678 C666 1.349 . S
C678 H672 0.950 . S
C678 C679 1.327 . S
C679 H673 0.950 . S
C679 C678 1.327 . S
C679 C683 1.429 . S
C680 C663 1.574 . S
C680 H674 0.949 . S
C680 C684 1.368 . S
C681 C662 1.429 1_545 S
C681 C675 1.429 . S
C681 C682 1.523 . S
C682 C663 1.368 . S
C682 C676 1.368 . S
C682 C681 1.523 . S
C683 C667 1.429 . S
C683 C679 1.429 . S
C683 C684 1.523 . S
C684 C668 1.368 . S
C684 C680 1.368 . S
C684 C683 1.523 . S
H685 C660 0.950 . S
H686 C662 0.950 . S
H687 C663 0.949 . S
H688 C665 0.950 . S
H689 C667 0.950 . S
C690 C691 1.349 . S
C690 C692 1.327 . S
C690 H715 0.950 . S
C691 C690 1.349 . S
C691 C707 1.349 . S
C692 C690 1.327 . S
C692 C711 1.429 . S
C692 H716 0.950 . S
C693 C710 1.574 . S
C693 C712 1.368 . S
C693 H717 0.949 . S
H694 C698 0.949 . S
C695 C696 1.349 . S
C695 C697 1.327 . S
C695 H718 0.950 . S
C696 C695 1.349 . S
C696 C708 1.349 . S
C697 C695 1.327 . S
C697 C713 1.429 . S
C697 H719 0.950 . S
C698 H694 0.949 . S
C698 C706 1.574 . S
C698 C714 1.368 . S
H699 C707 0.950 . S
H700 C705 0.950 . S
H701 C706 0.949 . S
H702 C708 0.950 . S
H703 C709 0.950 . S
H704 C710 0.949 . S
C705 H700 0.950 . S
C705 C707 1.327 . S
C705 C711 1.429 . S
C706 C698 1.574 . S
C706 H701 0.949 . S
C706 C712 1.368 . S
C707 C691 1.349 . S
C707 H699 0.950 . S
C707 C705 1.327 . S
C708 C696 1.349 . S
C708 H702 0.950 . S
C708 C709 1.327 . S
C709 H703 0.950 . S
C709 C708 1.327 . S
C709 C713 1.429 . S
C710 C693 1.574 . S
C710 H704 0.949 . S
C710 C714 1.368 . S
C711 C692 1.429 . S
C711 C705 1.429 . S
C711 C712 1.523 . S
C712 C693 1.368 . S
C712 C706 1.368 . S
C712 C711 1.523 . S
C713 C697 1.429 . S
C713 C709 1.429 . S
C713 C714 1.523 . S
C714 C698 1.368 . S
C714 C710 1.368 . S
C714 C713 1.523 . S
H715 C690 0.950 . S
H716 C692 0.950 . S
H717 C693 0.949 . S
H718 C695 0.950 . S
H719 C697 0.950 . S
C720 C721 1.349 . S
C720 C722 1.327 . S
C720 H745 0.950 . S
C721 C720 1.349 . S
C721 C737 1.349 1_455 S
C722 C720 1.327 . S
C722 C741 1.429 1_455 S
C722 H746 0.950 . S
C723 C740 1.574 . S
C723 C742 1.368 . S
C723 H747 0.949 . S
H724 C728 0.949 . S
C725 C726 1.349 . S
C725 C727 1.327 . S
C725 H748 0.950 . S
C726 C725 1.349 . S
C726 C738 1.349 . S
C727 C725 1.327 . S
C727 C743 1.429 . S
C727 H749 0.950 . S
C728 H724 0.949 . S
C728 C736 1.574 . S
C728 C744 1.368 . S
H729 C737 0.950 . S
H730 C735 0.950 . S
H731 C736 0.949 1_455 S
H732 C738 0.950 . S
H733 C739 0.950 . S
H734 C740 0.949 . S
C735 H730 0.950 . S
C735 C737 1.327 . S
C735 C741 1.429 . S
C736 C728 1.574 . S
C736 H731 0.949 1_655 S
C736 C742 1.368 . S
C737 C721 1.349 1_655 S
C737 H729 0.950 . S
C737 C735 1.327 . S
C738 C726 1.349 . S
C738 H732 0.950 . S
C738 C739 1.327 . S
C739 H733 0.950 . S
C739 C738 1.327 . S
C739 C743 1.429 . S
C740 C723 1.574 . S
C740 H734 0.949 . S
C740 C744 1.368 . S
C741 C722 1.429 1_655 S
C741 C735 1.429 . S
C741 C742 1.523 . S
C742 C723 1.368 . S
C742 C736 1.368 . S
C742 C741 1.523 . S
C743 C727 1.429 . S
C743 C739 1.429 . S
C743 C744 1.523 . S
C744 C728 1.368 . S
C744 C740 1.368 . S
C744 C743 1.523 . S
H745 C720 0.950 . S
H746 C722 0.950 . S
H747 C723 0.949 . S
H748 C725 0.950 . S
H749 C727 0.950 . S
C750 C751 1.349 1_565 S
C750 C752 1.327 . S
C750 H775 0.950 . S
C751 C750 1.349 1_545 S
C751 C767 1.349 . S
C752 C750 1.327 . S
C752 C771 1.429 . S
C752 H776 0.950 . S
C753 C770 1.574 . S
C753 C772 1.368 . S
C753 H777 0.949 1_565 S
H754 C758 0.949 . S
C755 C756 1.349 . S
C755 C757 1.327 . S
C755 H778 0.950 . S
C756 C755 1.349 . S
C756 C768 1.349 . S
C757 C755 1.327 . S
C757 C773 1.429 . S
C757 H779 0.950 . S
C758 H754 0.949 . S
C758 C766 1.574 . S
C758 C774 1.368 . S
H759 C767 0.950 . S
H760 C765 0.950 . S
H761 C766 0.949 . S
H762 C768 0.950 . S
H763 C769 0.950 . S
H764 C770 0.949 . S
C765 H760 0.950 . S
C765 C767 1.327 . S
C765 C771 1.429 1_545 S
C766 C758 1.574 . S
C766 H761 0.949 . S
C766 C772 1.368 . S
C767 C751 1.349 . S
C767 H759 0.950 . S
C767 C765 1.327 . S
C768 C756 1.349 . S
C768 H762 0.950 . S
C768 C769 1.327 . S
C769 H763 0.950 . S
C769 C768 1.327 . S
C769 C773 1.429 . S
C770 C753 1.574 . S
C770 H764 0.949 . S
C770 C774 1.368 . S
C771 C752 1.429 . S
C771 C765 1.429 1_565 S
C771 C772 1.523 . S
C772 C753 1.368 . S
C772 C766 1.368 . S
C772 C771 1.523 . S
C773 C757 1.429 . S
C773 C769 1.429 . S
C773 C774 1.523 . S
C774 C758 1.368 . S
C774 C770 1.368 . S
C774 C773 1.523 . S
H775 C750 0.950 . S
H776 C752 0.950 . S
H777 C753 0.949 1_545 S
H778 C755 0.950 . S
H779 C757 0.950 . S
C241 C169 1.099 . S
C246 C15 1.100 . S
C271 C209 1.100 . S
C276 C55 1.101 . S
C301 C9 1.099 . S
C306 C95 1.100 . S
C331 C49 1.099 . S
C336 C135 1.100 . S
C361 C89 1.100 . S
C366 C175 1.101 . S
C391 C129 1.099 . S
C396 C215 1.100 . S
C421 C18 0.659 . S
C426 C138 0.659 . S
C451 C178 0.658 . S
C456 C58 0.658 . S
C481 C218 0.658 . S
C486 C98 0.658 . S
C511 C88 0.642 . S
C516 C208 0.642 . S
C541 C8 0.643 . S
C546 C128 0.643 . S
C571 C168 0.643 . S
C576 C48 0.643 . S
C601 C219 1.103 . S
C606 C5 1.090 . S
C631 C45 1.090 . S
C636 C19 1.103 . S
C661 C85 1.090 . S
C666 C59 1.103 . S
C691 C99 1.103 . S
C696 C125 1.090 . S
C721 C165 1.090 . S
C726 C139 1.103 . S
C751 C205 1.090 . S
C756 C179 1.103 . S
