# Generated by pormake.
# Topology smc, (6)-cn, num edge types: 1
# Building blocks:
#     Node 0, Type 0, BuildingBlock: KUMBOL_clean_sbu_0, # of connection points: 6
#     Node 1, Type 0, BuildingBlock: KUMBOL_clean_sbu_0, # of connection points: 6
#     Node 2, Type 0, BuildingBlock: KUMBOL_clean_sbu_0, # of connection points: 6
#     Node 3, Type 0, BuildingBlock: KUMBOL_clean_sbu_0, # of connection points: 6
#     Node 4, Type 0, BuildingBlock: KUMBOL_clean_sbu_0, # of connection points: 6
#     Node 5, Type 0, BuildingBlock: KUMBOL_clean_sbu_0, # of connection points: 6
#     Node 6, Type 0, BuildingBlock: KUMBOL_clean_sbu_0, # of connection points: 6
#     Node 7, Type 0, BuildingBlock: KUMBOL_clean_sbu_0, # of connection points: 6
#     Node 8, Type 0, BuildingBlock: KUMBOL_clean_sbu_0, # of connection points: 6
#     Edge 9, Type (0, 0), BuildingBlock: UVAHIK_clean_linker_0, # of connection points: 2
#     Edge 10, Type (0, 0), BuildingBlock: UVAHIK_clean_linker_0, # of connection points: 2
#     Edge 11, Type (0, 0), BuildingBlock: UVAHIK_clean_linker_0, # of connection points: 2
#     Edge 12, Type (0, 0), BuildingBlock: UVAHIK_clean_linker_0, # of connection points: 2
#     Edge 13, Type (0, 0), BuildingBlock: UVAHIK_clean_linker_0, # of connection points: 2
#     Edge 14, Type (0, 0), BuildingBlock: UVAHIK_clean_linker_0, # of connection points: 2
#     Edge 15, Type (0, 0), BuildingBlock: UVAHIK_clean_linker_0, # of connection points: 2
#     Edge 16, Type (0, 0), BuildingBlock: UVAHIK_clean_linker_0, # of connection points: 2
#     Edge 17, Type (0, 0), BuildingBlock: UVAHIK_clean_linker_0, # of connection points: 2
#     Edge 18, Type (0, 0), BuildingBlock: UVAHIK_clean_linker_0, # of connection points: 2
#     Edge 19, Type (0, 0), BuildingBlock: UVAHIK_clean_linker_0, # of connection points: 2
#     Edge 20, Type (0, 0), BuildingBlock: UVAHIK_clean_linker_0, # of connection points: 2
#     Edge 21, Type (0, 0), BuildingBlock: UVAHIK_clean_linker_0, # of connection points: 2
#     Edge 22, Type (0, 0), BuildingBlock: UVAHIK_clean_linker_0, # of connection points: 2
#     Edge 23, Type (0, 0), BuildingBlock: UVAHIK_clean_linker_0, # of connection points: 2
#     Edge 24, Type (0, 0), BuildingBlock: UVAHIK_clean_linker_0, # of connection points: 2
#     Edge 25, Type (0, 0), BuildingBlock: UVAHIK_clean_linker_0, # of connection points: 2
#     Edge 26, Type (0, 0), BuildingBlock: UVAHIK_clean_linker_0, # of connection points: 2
#     Edge 27, Type (0, 0), BuildingBlock: UVAHIK_clean_linker_0, # of connection points: 2
#     Edge 28, Type (0, 0), BuildingBlock: UVAHIK_clean_linker_0, # of connection points: 2
#     Edge 29, Type (0, 0), BuildingBlock: UVAHIK_clean_linker_0, # of connection points: 2
#     Edge 30, Type (0, 0), BuildingBlock: UVAHIK_clean_linker_0, # of connection points: 2
#     Edge 31, Type (0, 0), BuildingBlock: UVAHIK_clean_linker_0, # of connection points: 2
#     Edge 32, Type (0, 0), BuildingBlock: UVAHIK_clean_linker_0, # of connection points: 2
#     Edge 33, Type (0, 0), BuildingBlock: UVAHIK_clean_linker_0, # of connection points: 2
#     Edge 34, Type (0, 0), BuildingBlock: UVAHIK_clean_linker_0, # of connection points: 2
#     Edge 35, Type (0, 0), BuildingBlock: UVAHIK_clean_linker_0, # of connection points: 2
# Relax obj value: 0.109
# Max RMSD: 0.278
# Mean RMSD: 0.278
data_MOF--net-smc--node1-KUMBOL_clean_sbu_0--edge1-UVAHIK_clean_linker_0
_symmetry_space_group_name_H-M    P1
_symmetry_Int_Tables_number       1
_symmetry_cell_setting            triclinic
loop_
_symmetry_equiv_pos_as_xyz
'x, y, z'
_cell_length_a     46.471234
_cell_length_b     46.470499
_cell_length_c     52.709941
_cell_angle_alpha  90.013284
_cell_angle_beta   89.920906
_cell_angle_gamma 120.00432
loop_
_atom_site_label
_atom_site_type_symbol
_atom_site_fract_x
_atom_site_fract_y
_atom_site_fract_z
_atom_type_partial_charge
Gd0 Gd 1.00005 0.40665 0.01481 0.0
Gd1 Gd 0.04363 0.495 0.99538 0.0
C2 C 0.99378 0.55317 0.0226 0.0
C3 C 0.97613 0.56623 0.98311 0.0
C4 C 1.0037 0.53326 0.98283 0.0
C5 C 1.00629 0.53546 0.00906 0.0
C6 C 0.98867 0.54883 0.96963 0.0
C7 C 0.97885 0.56854 0.00949 0.0
C8 C 0.99638 0.55479 0.04901 0.0
C9 C 1.01104 0.53896 0.06139 0.0
N10 N 0.02036 0.51985 0.02141 0.0
C11 C 0.02303 0.52168 0.04731 0.0
H12 H 0.03425 0.51006 0.05766 0.0
C13 C 1.01679 0.51685 0.9441 0.0
N14 N 1.01613 0.51635 0.97017 0.0
C15 C 1.00155 0.53124 0.93035 0.0
C16 C 0.9871 0.54701 0.94318 0.0
H17 H 0.03022 0.50727 0.93364 0.0
H18 H 0.9692 0.58222 0.01962 0.0
H19 H 0.03823 0.38514 0.97065 0.0
H20 H 0.98698 0.56804 0.06002 0.0
H21 H 1.01315 0.54003 0.08186 0.0
H22 H 0.96451 0.57822 0.97326 0.0
H23 H 0.96398 0.38526 0.07209 0.0
H24 H 0.09383 0.34733 0.00848 0.0
H25 H 0.07667 0.36317 0.96889 0.0
H26 H 0.05845 0.33861 0.09504 0.0
H27 H 1.00181 0.53097 0.90982 0.0
H28 H 0.97571 0.55857 0.93245 0.0
H29 H 0.08732 0.33879 0.05575 0.0
H30 H 0.9713 0.36286 0.11259 0.0
N31 N 0.03452 0.38309 0.01094 0.0
C32 C 0.07697 0.35706 0.00938 0.0
C33 C 0.06726 0.36586 0.987 0.0
C34 C 0.06365 0.35954 0.03255 0.0
C35 C 0.0419 0.37247 0.03264 0.0
C36 C 0.04541 0.37833 0.98809 0.0
N37 N 1.00333 0.38282 0.05342 0.0
C38 C 0.02566 0.3722 0.05463 0.0
C39 C 0.98692 0.36557 0.09648 0.0
C40 C 1.0114 0.35663 0.09852 0.0
C41 C 0.98278 0.37816 0.07352 0.0
C42 C 0.03069 0.35923 0.07729 0.0
H43 H 1.0145 0.3468 0.1163 0.0
O44 O 0.9464 0.37593 0.01918 0.0
O45 O 0.99519 0.45075 1.00465 0.0
O46 O 0.06231 0.48869 0.03503 0.0
O47 O 0.02775 0.43395 0.04914 0.0
O48 O 0.96803 0.42293 0.03559 0.0
O49 O 0.9726 0.35981 0.9945 0.0
O50 O 0.08342 0.53062 0.97107 0.0
O51 O 0.04914 0.45123 1.00389 0.0
O52 O 1.00226 0.40955 0.97229 0.0
O53 O 1.01296 0.46273 0.96189 0.0
O54 O 0.07348 0.47869 0.97213 0.0
O55 O 0.08381 0.54142 0.01094 0.0
C56 C 0.97459 0.44806 0.02144 0.0
C57 C 0.05388 0.34824 0.07773 0.0
C58 C 0.07033 0.34838 0.05537 0.0
C59 C 0.94423 0.35207 1.00501 0.0
C60 C 0.92454 0.31826 0.01557 0.0
C61 C 0.94011 0.30392 0.02921 0.0
C62 C 0.88967 0.30062 0.0129 0.0
C63 C 0.87041 0.26903 0.02415 0.0
C64 C 0.92123 0.27259 0.04019 0.0
C65 C 0.88667 0.2553 0.03779 0.0
C66 C 0.05166 0.46476 0.05273 0.0
C67 C 0.06947 0.45442 0.98652 0.0
C68 C 0.09743 0.55297 0.98886 0.0
C69 C 0.10559 0.58759 0.98257 0.0
C70 C 0.08647 0.59287 0.96457 0.0
C71 C 0.13256 0.6157 0.99414 0.0
C72 C 0.13917 0.64824 0.98815 0.0
C73 C 0.09253 0.62463 0.95895 0.0
C74 C 0.11851 0.65208 0.97067 0.0
C75 C 1.00206 0.43111 0.95618 0.0
H76 H 0.96683 0.31697 0.03147 0.0
H77 H 0.87754 0.3118 1.00261 0.0
H78 H 0.93342 0.2617 0.0507 0.0
H79 H 0.87265 0.23097 0.04644 0.0
H80 H 0.06704 0.57257 0.95438 0.0
H81 H 0.14818 0.61232 0.00765 0.0
H82 H 0.07729 0.62802 0.9451 0.0
H83 H 0.12312 0.67656 0.96539 0.0
Gd84 Gd 0.63782 0.60222 0.01953 0.0
Gd85 Gd 0.5507 0.56007 0.99749 0.0
C86 C 0.49119 0.45323 0.02719 0.0
C87 C 0.4775 0.42099 0.9884 0.0
C88 C 0.51149 0.48141 0.98687 0.0
C89 C 0.50912 0.48287 0.013 0.0
C90 C 0.49559 0.45032 0.97434 0.0
C91 C 0.47541 0.42243 0.01476 0.0
C92 C 0.48989 0.45527 0.05355 0.0
C93 C 0.50636 0.48623 0.06524 0.0
N94 N 0.52515 0.51301 0.02465 0.0
C95 C 0.52383 0.51487 0.05051 0.0
H96 H 0.5362 0.53807 0.06034 0.0
C97 C 0.52964 0.50936 0.94765 0.0
N98 N 0.52925 0.51018 0.97367 0.0
C99 C 0.51493 0.47922 0.93455 0.0
C100 C 0.49805 0.44952 0.94797 0.0
H101 H 0.53969 0.53195 0.93668 0.0
H102 H 0.46164 0.39952 0.02538 0.0
H103 H 0.6657 0.66392 0.97679 0.0
H104 H 0.4765 0.43311 0.06506 0.0
H105 H 0.50568 0.4881 0.08568 0.0
H106 H 0.46511 0.39702 0.97906 0.0
H107 H 0.65065 0.58277 0.07833 0.0
H108 H 0.70713 0.75648 0.01646 0.0
H109 H 0.69225 0.725 0.97617 0.0
H110 H 0.70564 0.72481 0.10322 0.0
H111 H 0.51575 0.47898 0.91404 0.0
H112 H 0.48627 0.42617 0.93774 0.0
H113 H 0.71144 0.7561 0.06402 0.0
H114 H 0.67035 0.61025 0.11987 0.0
N115 N 0.66466 0.66059 0.01705 0.0
C116 C 0.69548 0.72964 0.01686 0.0
C117 C 0.6872 0.71196 0.99409 0.0
C118 C 0.68995 0.71255 0.03982 0.0
C119 C 0.6748 0.67762 0.03922 0.0
C120 C 0.67204 0.67728 0.99453 0.0
N121 N 0.65903 0.62682 0.05946 0.0
C122 C 0.67206 0.66021 0.06115 0.0
C123 C 0.67076 0.62455 0.10353 0.0
C124 C 0.68228 0.65854 0.10589 0.0
C125 C 0.65969 0.60908 0.07995 0.0
C126 C 0.68367 0.67695 0.08445 0.0
H127 H 0.69084 0.67046 0.12418 0.0
O128 O 0.66694 0.57783 0.02525 0.0
O129 O 0.59367 0.55428 0.00776 0.0
O130 O 0.55576 0.58636 0.03638 0.0
O131 O 0.6098 0.60662 0.05198 0.0
O132 O 0.61872 0.55304 0.03973 0.0
O133 O 0.6854 0.62035 1.00048 0.0
O134 O 0.51624 0.56387 0.97173 0.0
O135 O 0.59513 0.60863 1.00621 0.0
O136 O 0.63732 0.603 0.97692 0.0
O137 O 0.58405 0.56265 0.96427 0.0
O138 O 0.56892 0.6066 0.97418 0.0
O139 O 0.50398 0.55492 0.01152 0.0
C140 C 0.59468 0.53539 0.02445 0.0
C141 C 0.69695 0.71152 0.08545 0.0
C142 C 0.70017 0.72931 0.06314 0.0
C143 C 0.69159 0.59878 0.01125 0.0
C144 C 0.72501 0.61141 0.02211 0.0
C145 C 0.73914 0.63972 0.03757 0.0
C146 C 0.74261 0.59446 0.01755 0.0
C147 C 0.77425 0.60567 0.02844 0.0
C148 C 0.77025 0.65088 0.04852 0.0
C149 C 0.78762 0.63403 0.04412 0.0
C150 C 0.57921 0.60079 0.0543 0.0
C151 C 0.59352 0.62634 0.98849 0.0
C152 C 0.49328 0.55629 0.98894 0.0
C153 C 0.45877 0.52986 0.98228 0.0
C154 C 0.45389 0.50604 0.96382 0.0
C155 C 0.43039 0.52829 0.99381 0.0
C156 C 0.39797 0.5025 0.98735 0.0
C157 C 0.42224 0.48045 0.95776 0.0
C158 C 0.39454 0.47856 0.96945 0.0
C159 C 0.6163 0.58271 0.95977 0.0
H160 H 0.72609 0.65311 0.04128 0.0
H161 H 0.7317 0.57277 1.00538 0.0
H162 H 0.78088 0.67261 0.06062 0.0
H163 H 0.81138 0.64303 0.05337 0.0
H164 H 0.47442 0.50732 0.95358 0.0
H165 H 0.43349 0.54689 0.00764 0.0
H166 H 0.41914 0.46227 0.94357 0.0
H167 H 0.37018 0.45881 0.9638 0.0
Gd168 Gd 0.44655 0.04553 0.0129 0.0
Gd169 Gd 0.48438 0.99552 0.9939 0.0
C170 C 0.59323 0.04004 0.017 0.0
C171 C 0.62083 0.05049 0.97614 0.0
C172 C 0.56077 0.02671 0.97831 0.0
C173 C 0.56226 0.02765 1.00465 0.0
C174 C 0.59004 0.03745 0.96386 0.0
C175 C 0.62242 0.05181 1.00262 0.0
C176 C 0.59406 0.04028 0.04349 0.0
C177 C 0.56456 0.02826 0.0571 0.0
N178 N 0.53366 0.01659 0.01819 0.0
C179 C 0.5345 0.01643 0.04416 0.0
H180 H 0.51244 1.00772 0.05536 0.0
C181 C 0.52797 1.00849 0.94121 0.0
N182 N 0.53075 0.01435 0.96679 0.0
C183 C 0.55621 0.01888 0.92614 0.0
C184 C 0.58747 0.03395 0.93747 0.0
H185 H 0.50378 0.99598 0.93235 0.0
H186 H 0.64636 0.06168 0.01183 0.0
H187 H 0.3886 1.01262 0.96704 0.0
H188 H 0.61733 0.04966 0.05361 0.0
H189 H 0.56494 0.02831 0.07763 0.0
H190 H 0.64353 0.05914 0.96532 0.0
H191 H 0.46065 0.08006 0.07059 0.0
H192 H 0.29284 0.96115 1.00224 0.0
H193 H 0.32777 0.97769 0.96357 0.0
H194 H 0.31688 0.99272 0.08965 0.0
H195 H 0.5538 0.01491 0.90584 0.0
H196 H 0.60935 0.04183 0.92577 0.0
H197 H 0.28906 0.96641 0.04951 0.0
H198 H 0.42962 0.07362 0.11037 0.0
N199 N 0.38843 0.01486 0.00737 0.0
C200 C 0.31958 0.97642 1.00389 0.0
C201 C 0.3392 0.98581 0.98202 0.0
C202 C 0.33462 0.98812 0.02752 0.0
C203 C 0.36953 1.00783 0.02858 0.0
C204 C 0.37373 1.00567 0.98408 0.0
N205 N 0.4184 0.04323 0.05074 0.0
C206 C 0.38504 0.02262 0.05105 0.0
C207 C 0.41679 0.05898 0.09386 0.0
C208 C 0.38276 0.03613 0.09499 0.0
C209 C 0.43425 0.06269 0.07131 0.0
C210 C 0.3663 0.01814 0.07324 0.0
H211 H 0.36928 0.03334 0.11245 0.0
O212 O 0.47047 0.0988 0.0198 0.0
O213 O 0.49327 0.04591 1.00273 0.0
O214 O 0.4615 0.9799 0.03431 0.0
O215 O 0.44381 0.01685 0.04752 0.0
O216 O 0.49548 0.07481 0.03339 0.0
O217 O 0.43304 0.0764 0.9907 0.0
O218 O 0.46354 0.9488 0.9738 0.0
O219 O 0.43725 0.99445 1.00321 0.0
O220 O 0.44957 0.04414 0.97018 0.0
O221 O 0.48952 0.02934 0.96055 0.0
O222 O 0.43823 0.97105 0.97012 0.0
O223 O 0.49548 0.95677 1.00582 0.0
C224 C 0.51239 0.06607 0.01923 0.0
C225 C 0.3317 0.99686 0.07272 0.0
C226 C 0.31587 0.98186 0.04987 0.0
C227 C 0.45243 0.10343 1.00328 0.0
C228 C 0.43791 0.12365 0.01181 0.0
C229 C 0.40617 0.10851 0.02281 0.0
C230 C 0.45606 0.15849 0.00914 0.0
C231 C 0.44248 0.1782 0.01721 0.0
C232 C 0.39265 0.12781 0.03096 0.0
C233 C 0.41056 0.16232 0.0282 0.0
C234 C 0.44942 0.99212 0.0517 0.0
C235 C 0.41918 0.97568 0.98548 0.0
C236 C 0.47995 0.93769 0.98653 0.0
C237 C 0.49748 0.9241 0.97121 0.0
C238 C 0.49843 0.92717 0.9446 0.0
C239 C 0.51184 0.90656 0.98256 0.0
C240 C 0.52762 0.89323 0.96738 0.0
C241 C 0.51422 0.91449 0.92972 0.0
C242 C 0.52867 0.89773 0.94092 0.0
C243 C 0.47081 0.04249 0.95438 0.0
H244 H 0.39183 0.08181 0.02506 0.0
H245 H 0.48051 0.17013 1.0005 0.0
H246 H 0.36819 0.11596 0.03952 0.0
H247 H 0.39956 0.17664 0.03503 0.0
H248 H 0.48654 0.939 0.93501 0.0
H249 H 0.51066 0.90325 1.00296 0.0
H250 H 0.51476 0.91718 0.9093 0.0
H251 H 0.53988 0.88735 0.92864 0.0
Gd252 Gd 0.67132 0.74302 0.35279 0.0
Gd253 Gd 0.71511 0.83082 0.33187 0.0
C254 C 0.66575 0.88927 0.35978 0.0
C255 C 0.6471 0.90172 0.32049 0.0
C256 C 0.67491 0.86899 0.31993 0.0
C257 C 0.6781 0.87153 0.34609 0.0
C258 C 0.65946 0.88426 0.30689 0.0
C259 C 0.65039 0.90436 0.34685 0.0
C260 C 0.66887 0.89116 0.38615 0.0
C261 C 0.68387 0.87554 0.39834 0.0
N262 N 0.69253 0.85614 0.35824 0.0
C263 C 0.69568 0.85822 0.38411 0.0
H264 H 0.70713 0.84674 0.39435 0.0
C265 C 0.68719 0.8521 0.28114 0.0
N266 N 0.68707 0.85193 0.30717 0.0
C267 C 0.67156 0.86619 0.26752 0.0
C268 C 0.65727 0.88202 0.28046 0.0
H269 H 0.70088 0.84291 0.27067 0.0
H270 H 0.64086 0.91807 0.35708 0.0
H271 H 0.70795 0.71904 0.30905 0.0
H272 H 0.6596 0.90443 0.39728 0.0
H273 H 0.68638 0.87679 0.41878 0.0
H274 H 0.63515 0.91349 0.31078 0.0
H275 H 0.63706 0.72553 0.41088 0.0
H276 H 0.76139 0.67938 0.34758 0.0
H277 H 0.74484 0.69526 0.30773 0.0
H278 H 0.72798 0.67469 0.43429 0.0
H279 H 0.67148 0.86572 0.24698 0.0
H280 H 0.64557 0.89336 0.26984 0.0
H281 H 0.75535 0.67227 0.39496 0.0
H282 H 0.64465 0.70434 0.45183 0.0
N283 N 0.70444 0.71791 0.34936 0.0
C284 C 0.74519 0.68989 0.3483 0.0
C285 C 0.73583 0.69873 0.32577 0.0
C286 C 0.73246 0.6935 0.37139 0.0
C287 C 0.71156 0.70741 0.37124 0.0
C288 C 0.71486 0.71224 0.32662 0.0
N289 N 0.67474 0.72039 0.39197 0.0
C290 C 0.69614 0.7086 0.39328 0.0
C291 C 0.65946 0.70561 0.43555 0.0
C292 C 0.68299 0.69541 0.43763 0.0
C293 C 0.65518 0.71754 0.41233 0.0
C294 C 0.7012 0.69617 0.41621 0.0
H295 H 0.68621 0.68611 0.45562 0.0
O296 O 0.61758 0.71358 0.35727 0.0
O297 O 0.66668 0.78698 0.34177 0.0
O298 O 0.73491 0.82551 0.37125 0.0
O299 O 0.70088 0.77111 0.38633 0.0
O300 O 0.64036 0.7606 0.37349 0.0
O301 O 0.64288 0.69541 0.33363 0.0
O302 O 0.75436 0.8656 0.30681 0.0
O303 O 0.72028 0.78694 0.34081 0.0
O304 O 0.67358 0.74488 0.31023 0.0
O305 O 0.68445 0.79778 0.29857 0.0
O306 O 0.74442 0.81379 0.30875 0.0
O307 O 0.75575 0.87768 0.34649 0.0
C308 C 0.64658 0.78509 0.35871 0.0
C309 C 0.72343 0.684 0.41679 0.0
C310 C 0.73903 0.68264 0.3944 0.0
C311 C 0.61464 0.68896 0.34369 0.0
C312 C 0.59374 0.65557 0.35465 0.0
C313 C 0.60784 0.64134 0.37009 0.0
C314 C 0.55916 0.63813 0.35025 0.0
C315 C 0.53864 0.60655 0.36128 0.0
C316 C 0.5878 0.61032 0.38117 0.0
C317 C 0.55356 0.5931 0.37693 0.0
C318 C 0.72494 0.80201 0.38924 0.0
C319 C 0.7402 0.78955 0.32327 0.0
C320 C 0.76886 0.8885 0.32416 0.0
C321 C 0.77711 0.92299 0.31723 0.0
C322 C 0.75845 0.92784 0.29854 0.0
C323 C 0.80386 0.95138 0.32874 0.0
C324 C 0.81068 0.98379 0.32199 0.0
C325 C 0.76471 0.95948 0.29219 0.0
C326 C 0.79045 0.9872 0.30383 0.0
C327 C 0.67341 0.76589 0.29351 0.0
H328 H 0.6343 0.65426 0.37368 0.0
H329 H 0.54842 0.64909 0.33811 0.0
H330 H 0.59884 0.59962 0.39326 0.0
H331 H 0.53872 0.56939 0.38629 0.0
H332 H 0.73926 0.90729 0.28836 0.0
H333 H 0.81915 0.94831 0.34275 0.0
H334 H 0.74984 0.96254 0.27781 0.0
H335 H 0.79524 1.01155 0.29796 0.0
Gd336 Gd 0.30543 0.93369 0.34654 0.0
Gd337 Gd 0.21744 0.89471 0.32728 0.0
C338 C 0.15351 0.78616 0.35205 0.0
C339 C 0.13692 0.75737 0.31168 0.0
C340 C 0.17307 0.81752 0.31289 0.0
C341 C 0.17216 0.81678 0.3392 0.0
C342 C 0.15499 0.78778 0.2989 0.0
C343 C 0.13614 0.75657 0.33817 0.0
C344 C 0.15286 0.78603 0.37854 0.0
C345 C 0.1705 0.81587 0.39165 0.0
N346 N 0.1897 0.84576 0.35224 0.0
C347 C 0.18877 0.84555 0.37822 0.0
H348 H 0.20213 0.86784 0.3891 0.0
C349 C 0.18892 0.84904 0.27512 0.0
N350 N 0.19098 0.84722 0.30094 0.0
C351 C 0.17165 0.82032 0.2605 0.0
C352 C 0.15498 0.78947 0.27242 0.0
H353 H 0.20033 0.87289 0.26569 0.0
H354 H 0.12188 0.73291 0.34777 0.0
H355 H 0.33049 0.99252 0.30132 0.0
H356 H 0.13892 0.76304 0.38904 0.0
H357 H 0.17021 0.81604 0.41218 0.0
H358 H 0.12312 0.73435 0.30122 0.0
H359 H 0.32459 0.9184 0.40431 0.0
H360 H 0.37433 0.08754 0.3375 0.0
H361 H 0.35634 0.0534 0.29849 0.0
H362 H 0.38092 0.06182 0.42464 0.0
H363 H 0.17076 0.82207 0.24007 0.0
H364 H 0.14137 0.76722 0.26107 0.0
H365 H 0.38291 0.0904 0.38477 0.0
H366 H 0.3485 0.94866 0.44442 0.0
N367 N 0.33249 0.99186 0.34165 0.0
C368 C 0.36286 0.06077 0.33888 0.0
C369 C 0.35286 0.0416 0.31681 0.0
C370 C 0.35928 0.04526 0.36235 0.0
C371 C 0.3441 1.01033 0.36306 0.0
C372 C 0.33819 1.00703 0.31852 0.0
N373 N 0.3303 0.96101 0.38481 0.0
C374 C 0.34309 0.99438 0.38541 0.0
C375 C 0.34695 0.96179 0.42801 0.0
C376 C 0.35821 0.99582 0.4294 0.0
C377 C 0.33355 0.94477 0.40529 0.0
C378 C 0.35705 1.01271 0.40778 0.0
H379 H 0.36869 1.00899 0.44699 0.0
O380 O 0.3343 0.90911 0.35259 0.0
O381 O 0.25948 0.88674 0.3361 0.0
O382 O 0.22455 0.91821 0.36745 0.0
O383 O 0.27909 0.93616 0.38099 0.0
O384 O 0.28601 0.88455 0.36683 0.0
O385 O 0.35115 0.94908 0.32547 0.0
O386 O 0.18832 0.90975 0.30466 0.0
O387 O 0.26322 0.94216 0.33636 0.0
O388 O 0.30182 0.93163 0.30385 0.0
O389 O 0.24729 0.89153 0.29389 0.0
O390 O 0.23798 0.94121 0.30387 0.0
O391 O 0.16981 0.88736 0.34135 0.0
C392 C 0.26057 0.86759 0.35253 0.0
C393 C 0.37043 0.04731 0.40757 0.0
C394 C 0.37154 0.06358 0.38487 0.0
C395 C 0.35811 0.92873 0.33737 0.0
C396 C 0.39211 0.94267 0.34744 0.0
C397 C 0.40776 0.97376 0.35947 0.0
C398 C 0.4086 0.92418 0.34599 0.0
C399 C 0.44031 0.93645 0.35693 0.0
C400 C 0.43923 0.98613 0.37012 0.0
C401 C 0.45536 0.96763 0.36898 0.0
C402 C 0.24869 0.93042 0.38494 0.0
C403 C 0.26211 0.96024 0.31882 0.0
C404 C 0.16307 0.89735 0.3202 0.0
C405 C 0.1296 0.87591 0.30878 0.0
C406 C 0.12691 0.86526 0.28345 0.0
C407 C 0.10005 0.86687 0.32254 0.0
C408 C 0.06857 0.84635 0.31129 0.0
C409 C 0.09603 0.84444 0.2726 0.0
C410 C 0.06711 0.83484 0.28641 0.0
C411 C 0.27916 0.91066 0.28787 0.0
H412 H 0.39563 0.98842 0.36073 0.0
H413 H 0.39645 0.9 0.33693 0.0
H414 H 0.45112 1.01012 0.3794 0.0
H415 H 0.47981 0.97785 0.37737 0.0
H416 H 0.14862 0.87342 0.27168 0.0
H417 H 0.10151 0.87585 0.34174 0.0
H418 H 0.0945 0.83624 0.25317 0.0
H419 H 0.0434 0.81937 0.27723 0.0
Gd420 Gd 0.11418 0.38058 0.34734 0.0
Gd421 Gd 0.15852 0.33639 0.32822 0.0
C422 C 0.26581 0.38661 0.3573 0.0
C423 C 0.29783 0.40611 0.31845 0.0
C424 C 0.23725 0.37798 0.31711 0.0
C425 C 0.23601 0.37434 0.34326 0.0
C426 C 0.26834 0.39385 0.30449 0.0
C427 C 0.29655 0.4023 0.34476 0.0
C428 C 0.264 0.38304 0.38364 0.0
C429 C 0.2331 0.36763 0.39547 0.0
N430 N 0.2059 0.35948 0.35506 0.0
C431 C 0.20429 0.35585 0.38091 0.0
H432 H 0.18117 0.34387 0.3909 0.0
C433 C 0.20919 0.36577 0.27786 0.0
N434 N 0.2083 0.36564 0.30395 0.0
C435 C 0.23929 0.38197 0.2647 0.0
C436 C 0.26902 0.39644 0.27808 0.0
H437 H 0.18685 0.35197 0.26677 0.0
H438 H 0.31955 0.4117 0.35526 0.0
H439 H 0.05868 0.34625 0.2999 0.0
H440 H 0.28629 0.39223 0.39502 0.0
H441 H 0.23139 0.36471 0.41588 0.0
H442 H 0.32179 0.41833 0.30904 0.0
H443 H 0.12404 0.41155 0.4061 0.0
H444 H 0.96181 0.28948 0.33249 0.0
H445 H 0.99846 0.30903 0.29478 0.0
H446 H 0.98063 0.3174 0.42078 0.0
H447 H 0.23951 0.3823 0.24417 0.0
H448 H 0.29235 0.40851 0.2678 0.0
H449 H 0.95547 0.29226 0.37968 0.0
H450 H 0.09071 0.40119 0.44522 0.0
N451 N 0.05661 0.34715 0.34024 0.0
C452 C 0.9883 0.30585 0.33487 0.0
C453 C 1.00889 0.31693 0.31354 0.0
C454 C 1.00199 0.31713 0.35894 0.0
C455 C 0.03664 0.33834 0.36098 0.0
C456 C 0.0431 0.33813 0.31656 0.0
N457 N 0.08377 0.37437 0.38476 0.0
C458 C 0.05069 0.35242 0.38402 0.0
C459 C 0.07918 0.38716 0.42818 0.0
C460 C 0.04551 0.36298 0.42819 0.0
C461 C 0.09793 0.39306 0.40602 0.0
C462 C 0.03067 0.34579 0.40578 0.0
H463 H 0.031 0.35853 0.44535 0.0
O464 O 0.13571 0.43335 0.35529 0.0
O465 O 0.16319 0.38528 0.33723 0.0
O466 O 0.13269 0.31711 0.36753 0.0
O467 O 0.11232 0.3516 0.38143 0.0
O468 O 0.1619 0.41126 0.36887 0.0
O469 O 0.09787 0.41033 0.32657 0.0
O470 O 0.15652 0.29774 0.30375 0.0
O471 O 0.10945 0.33154 0.33647 0.0
O472 O 0.11831 0.38227 0.30488 0.0
O473 O 0.15385 0.36264 0.29309 0.0
O474 O 0.11211 0.306 0.3054 0.0
O475 O 0.16386 0.29571 0.34392 0.0
C476 C 0.18073 0.40535 0.35444 0.0
C477 C 0.99641 0.32317 0.40421 0.0
C478 C 0.98208 0.30886 0.38081 0.0
C479 C 0.11675 0.43738 0.3393 0.0
C480 C 0.10132 0.45639 0.34867 0.0
C481 C 0.07125 0.44049 0.36207 0.0
C482 C 0.11729 0.491 0.34473 0.0
C483 C 0.10346 0.50986 0.35431 0.0
C484 C 0.05746 0.45887 0.37172 0.0
C485 C 0.07341 0.49321 0.36802 0.0
C486 C 0.11912 0.32763 0.38509 0.0
C487 C 0.0921 0.31096 0.31934 0.0
C488 C 0.16373 0.28316 0.32178 0.0
C489 C 0.19108 0.27595 0.31651 0.0
C490 C 0.21701 0.29666 0.30003 0.0
C491 C 0.19154 0.24834 0.32751 0.0
C492 C 0.21823 0.24253 0.32244 0.0
C493 C 0.24341 0.29135 0.29531 0.0
C494 C 0.24413 0.26465 0.30643 0.0
C495 C 0.13635 0.37737 0.28798 0.0
H496 H 0.0585 0.41394 0.36518 0.0
H497 H 0.14029 0.50305 0.33404 0.0
H498 H 0.03439 0.44646 0.38227 0.0
H499 H 0.06234 0.50673 0.37628 0.0
H500 H 0.21686 0.31679 0.29033 0.0
H501 H 0.17142 0.23159 0.33985 0.0
H502 H 0.26319 0.30777 0.28261 0.0
H503 H 0.26462 0.26069 0.30181 0.0
Gd504 Gd 0.33489 0.07309 0.68387 0.0
Gd505 Gd 0.37861 0.16096 0.66308 0.0
C506 C 0.32904 0.219 0.69157 0.0
C507 C 0.30842 0.22992 0.65266 0.0
C508 C 0.33677 0.19768 0.65168 0.0
C509 C 0.34108 0.20106 0.67775 0.0
C510 C 0.32057 0.2124 0.6389 0.0
C511 C 0.31281 0.23337 0.67889 0.0
C512 C 0.33344 0.2219 0.71783 0.0
C513 C 0.34954 0.20723 0.72977 0.0
N514 N 0.35653 0.18654 0.68968 0.0
C515 C 0.36111 0.18981 0.71542 0.0
H516 H 0.37377 0.17945 0.72547 0.0
C517 C 0.34872 0.18103 0.61262 0.0
N518 N 0.34904 0.18085 0.63871 0.0
C519 C 0.33221 0.19444 0.59931 0.0
C520 C 0.31767 0.20981 0.61252 0.0
H521 H 0.36232 0.17203 0.60173 0.0
H522 H 0.30354 0.24723 0.68923 0.0
H523 H 0.37088 0.04996 0.63898 0.0
H524 H 0.32444 0.23534 0.72904 0.0
H525 H 0.3532 0.20942 0.75011 0.0
H526 H 0.2959 0.24124 0.64313 0.0
H527 H 0.30108 0.05344 0.74197 0.0
H528 H 0.42703 1.01204 0.67577 0.0
H529 H 0.40865 0.02725 0.63651 0.0
H530 H 0.3953 1.00593 0.76308 0.0
H531 H 0.33163 0.1938 0.57878 0.0
H532 H 0.30536 0.22069 0.60211 0.0
H533 H 0.42238 1.00474 0.7232 0.0
H534 H 0.30971 0.03183 0.78239 0.0
N535 N 0.36869 0.04886 0.67935 0.0
C536 C 0.41045 0.02207 0.67699 0.0
C537 C 0.40004 0.03051 0.65479 0.0
C538 C 0.39818 0.02532 0.70042 0.0
C539 C 0.37675 0.03861 0.70092 0.0
C540 C 0.37856 0.04339 0.6563 0.0
N541 N 0.33944 0.0501 0.72249 0.0
C542 C 0.36155 0.03917 0.72326 0.0
C543 C 0.32463 0.03398 0.76594 0.0
C544 C 0.34894 0.02475 0.76749 0.0
C545 C 0.31976 0.04613 0.74304 0.0
C546 C 0.36729 0.02661 0.74585 0.0
H547 H 0.35259 0.01524 0.78523 0.0
O548 O 0.28133 0.04343 0.68924 0.0
O549 O 0.33008 0.11712 0.67321 0.0
O550 O 0.39858 0.1554 0.70238 0.0
O551 O 0.36375 0.10125 0.71758 0.0
O552 O 0.30454 0.09069 0.70526 0.0
O553 O 0.30613 0.02539 0.66489 0.0
O554 O 0.41649 0.19642 0.63741 0.0
O555 O 0.38372 0.11707 0.67195 0.0
O556 O 0.33515 0.07452 0.64131 0.0
O557 O 0.3493 0.12836 0.62942 0.0
O558 O 0.40816 0.144 0.64009 0.0
O559 O 0.4201 0.20737 0.67742 0.0
C560 C 0.31044 0.1152 0.69059 0.0
C561 C 0.39019 0.01525 0.74584 0.0
C562 C 0.40561 0.0146 0.72313 0.0
C563 C 0.27818 0.01878 0.67558 0.0
C564 C 0.25793 0.98548 0.68682 0.0
C565 C 0.27281 0.97144 0.70161 0.0
C566 C 0.22319 0.96797 0.68342 0.0
C567 C 0.20323 0.93657 0.69485 0.0
C568 C 0.25335 0.94057 0.71308 0.0
C569 C 0.21891 0.92332 0.70987 0.0
C570 C 0.38808 0.13202 0.72052 0.0
C571 C 0.40383 0.11971 0.65459 0.0
C572 C 0.43206 0.21879 0.65492 0.0
C573 C 0.43987 0.2534 0.6491 0.0
C574 C 0.41775 0.25868 0.63442 0.0
C575 C 0.46935 0.28147 0.65794 0.0
C576 C 0.47555 0.31402 0.65265 0.0
C577 C 0.42358 0.29053 0.62947 0.0
C578 C 0.45211 0.31799 0.63859 0.0
C579 C 0.33675 0.09628 0.62453 0.0
H580 H 0.29944 0.98439 0.70441 0.0
H581 H 0.21188 0.97879 0.67172 0.0
H582 H 0.26498 0.93003 0.72468 0.0
H583 H 0.20455 0.89976 0.71953 0.0
H584 H 0.39603 0.23834 0.62635 0.0
H585 H 0.48715 0.27807 0.66888 0.0
H586 H 0.40603 0.29393 0.61821 0.0
H587 H 0.45633 0.34254 0.63403 0.0
Gd588 Gd 0.97163 0.26565 0.68235 0.0
Gd589 Gd 0.88379 0.22273 0.66163 0.0
C590 C 0.82475 0.11433 0.68797 0.0
C591 C 0.81101 0.08424 0.64817 0.0
C592 C 0.84487 0.1447 0.64843 0.0
C593 C 0.84262 0.14473 0.67466 0.0
C594 C 0.8289 0.11431 0.63495 0.0
C595 C 0.80905 0.08423 0.6746 0.0
C596 C 0.82324 0.11494 0.71441 0.0
C597 C 0.83928 0.14526 0.72704 0.0
N598 N 0.8584 0.17422 0.68725 0.0
C599 C 0.85665 0.17469 0.71318 0.0
H600 H 0.86853 0.19737 0.72373 0.0
C601 C 0.86203 0.17473 0.60996 0.0
N602 N 0.86222 0.17419 0.63603 0.0
C603 C 0.84729 0.1453 0.59595 0.0
C604 C 0.8309 0.11492 0.6085 0.0
H605 H 0.87197 0.1979 0.59968 0.0
H606 H 0.79535 0.06076 0.68455 0.0
H607 H 0.99551 0.32508 0.63762 0.0
H608 H 0.80987 0.09216 0.72524 0.0
H609 H 0.8383 0.14602 0.74753 0.0
H610 H 0.79858 0.06078 0.63809 0.0
H611 H 0.98977 0.25038 0.74052 0.0
H612 H 0.03566 0.41922 0.67469 0.0
H613 H 0.01947 0.38573 0.63535 0.0
H614 H 0.04111 0.39281 0.76184 0.0
H615 H 0.84775 0.14613 0.57542 0.0
H616 H 0.81905 0.09212 0.59757 0.0
H617 H 0.04315 0.42156 0.72205 0.0
H618 H 1.01164 0.28028 0.78105 0.0
N619 N 0.99687 0.32378 0.67797 0.0
C620 C 0.02507 0.39253 0.67583 0.0
C621 C 1.01607 0.37373 0.65358 0.0
C622 C 0.02156 0.3768 0.69918 0.0
C623 C 1.00753 0.34198 0.69958 0.0
C624 C 1.00247 0.33926 0.65498 0.0
N625 N 0.99469 0.29272 0.72108 0.0
C626 C 1.0065 0.32593 0.72189 0.0
C627 C 1.01014 0.29338 0.76459 0.0
C628 C 0.02035 0.32717 0.76617 0.0
C629 C 0.99788 0.27656 0.74163 0.0
C630 C 0.01928 0.34405 0.74452 0.0
H631 H 0.02992 0.34017 0.78396 0.0
O632 O 1.0013 0.24191 0.68828 0.0
O633 O 0.92736 0.21748 0.67111 0.0
O634 O 0.88929 0.24701 0.70145 0.0
O635 O 0.94374 0.26696 0.71613 0.0
O636 O 0.95355 0.21673 0.70263 0.0
O637 O 1.01878 0.28357 0.6627 0.0
O638 O 0.84876 0.22771 0.6373 0.0
O639 O 0.92803 0.27125 0.67084 0.0
O640 O 0.97013 0.26489 0.63975 0.0
O641 O 0.91621 0.22539 0.62786 0.0
O642 O 0.9014 0.26964 0.63906 0.0
O643 O 0.83748 0.21699 0.67708 0.0
C644 C 0.92904 0.19886 0.68775 0.0
C645 C 0.03154 0.37848 0.74457 0.0
C646 C 0.03268 0.39484 0.72192 0.0
C647 C 0.02563 0.26277 0.674 0.0
C648 C 0.05916 0.27634 0.68485 0.0
C649 C 0.07413 0.30667 0.69796 0.0
C650 C 0.07583 0.25808 0.68302 0.0
C651 C 0.10711 0.26979 0.69456 0.0
C652 C 0.10519 0.31853 0.70923 0.0
C653 C 0.12154 0.30025 0.70766 0.0
C654 C 0.91289 0.26016 0.71936 0.0
C655 C 0.92578 0.28912 0.65366 0.0
C656 C 0.82624 0.21938 0.65499 0.0
C657 C 0.7916 0.19318 0.64849 0.0
C658 C 0.78629 0.16937 0.62991 0.0
C659 C 0.76352 0.19172 0.66044 0.0
C660 C 0.73096 0.16604 0.65424 0.0
C661 C 0.7545 0.14388 0.6241 0.0
C662 C 0.72708 0.14208 0.63618 0.0
C663 C 0.94833 0.24489 0.62291 0.0
H664 H 0.06177 0.32109 0.69959 0.0
H665 H 0.06412 0.23445 0.67316 0.0
H666 H 0.1166 0.34194 0.71933 0.0
H667 H 0.14568 0.31009 0.71652 0.0
H668 H 0.80658 0.17055 0.61943 0.0
H669 H 0.76695 0.2103 0.67439 0.0
H670 H 0.75107 0.12569 0.60981 0.0
H671 H 0.70258 0.12241 0.63073 0.0
Gd672 Gd 0.77895 0.71025 0.68111 0.0
Gd673 Gd 0.82602 0.66809 0.66399 0.0
C674 C 0.93265 0.71848 0.69401 0.0
C675 C 0.96519 0.73647 0.65528 0.0
C676 C 0.90469 0.70855 0.65341 0.0
C677 C 0.90308 0.70582 0.67965 0.0
C678 C 0.93589 0.72383 0.641 0.0
C679 C 0.96356 0.73363 0.68168 0.0
C680 C 0.93041 0.71583 0.72042 0.0
C681 C 0.89932 0.70109 0.73199 0.0
N682 N 0.87284 0.69151 0.6912 0.0
C683 C 0.87074 0.68899 0.7171 0.0
H684 H 0.84736 0.67803 0.72679 0.0
C685 C 0.87697 0.69558 0.61393 0.0
N686 N 0.87595 0.69602 0.63999 0.0
C687 C 0.90723 0.71105 0.60093 0.0
C688 C 0.93684 0.72554 0.61453 0.0
H689 H 0.85439 0.6823 0.60297 0.0
H690 H 0.98641 0.74336 0.69243 0.0
H691 H 0.72213 0.67222 0.63514 0.0
H692 H 0.95252 0.72534 0.73204 0.0
H693 H 0.89731 0.69909 0.75245 0.0
H694 H 0.98926 0.74828 0.64604 0.0
H695 H 0.79105 0.7439 0.73925 0.0
H696 H 0.62607 0.61877 0.66958 0.0
H697 H 0.66172 0.63492 0.63133 0.0
H698 H 0.64751 0.65323 0.75656 0.0
H699 H 0.90765 0.71098 0.5804 0.0
H700 H 0.96028 0.73712 0.60439 0.0
H701 H 0.62106 0.62543 0.71647 0.0
H702 H 0.75894 0.73624 0.77852 0.0
N703 N 0.72116 0.67641 0.6753 0.0
C704 C 0.65265 0.63515 0.67139 0.0
C705 C 0.67267 0.64428 0.64976 0.0
C706 C 0.66702 0.64837 0.69494 0.0
C707 C 0.70174 0.66955 0.69622 0.0
C708 C 0.707 0.66544 0.65203 0.0
N709 N 0.74972 0.70674 0.71871 0.0
C710 C 0.71645 0.68541 0.71863 0.0
C711 C 0.74672 0.72163 0.76185 0.0
C712 C 0.71281 0.6983 0.7625 0.0
C713 C 0.76482 0.72595 0.73956 0.0
C714 C 0.69711 0.68025 0.74059 0.0
H715 H 0.69885 0.69499 0.7798 0.0
O716 O 0.80138 0.76371 0.68606 0.0
O717 O 0.82859 0.7156 0.67336 0.0
O718 O 0.79932 0.64913 0.70323 0.0
O719 O 0.77303 0.67924 0.71472 0.0
O720 O 0.82573 0.74192 0.70386 0.0
O721 O 0.76167 0.73818 0.65902 0.0
O722 O 0.82302 0.62853 0.64008 0.0
O723 O 0.77608 0.66195 0.66991 0.0
O724 O 0.78218 0.70843 0.63871 0.0
O725 O 0.82722 0.70074 0.63088 0.0
O726 O 0.78174 0.63846 0.63875 0.0
O727 O 0.83175 0.62793 0.68025 0.0
C728 C 0.84536 0.73585 0.6906 0.0
C729 C 0.66276 0.65783 0.73981 0.0
C730 C 0.64772 0.64195 0.717 0.0
C731 C 0.78143 0.76631 0.6702 0.0
C732 C 0.76693 0.78651 0.67877 0.0
C733 C 0.73544 0.77159 0.69016 0.0
C734 C 0.78518 0.8213 0.67593 0.0
C735 C 0.77201 0.84125 0.68425 0.0
C736 C 0.72225 0.79113 0.69848 0.0
C737 C 0.7403 0.82564 0.69556 0.0
C738 C 0.78196 0.65704 0.7194 0.0
C739 C 0.76029 0.64208 0.65192 0.0
C740 C 0.83063 0.61444 0.65829 0.0
C741 C 0.85738 0.60642 0.65282 0.0
C742 C 0.88289 0.62617 0.63572 0.0
C743 C 0.85764 0.57889 0.6642 0.0
C744 C 0.88375 0.5723 0.65888 0.0
C745 C 0.90876 0.62012 0.63077 0.0
C746 C 0.90931 0.59354 0.64227 0.0
C747 C 0.80599 0.71051 0.62391 0.0
H748 H 0.7211 0.74491 0.69266 0.0
H749 H 0.80946 0.83274 0.66702 0.0
H750 H 0.69797 0.77949 0.70734 0.0
H751 H 0.72959 0.84015 0.70256 0.0
H752 H 0.88278 0.64607 0.62568 0.0
H753 H 0.83779 0.56281 0.67701 0.0
H754 H 0.92821 0.63583 0.61757 0.0
H755 H 0.92933 0.58895 0.63745 0.0
C756 C 0.36128 0.5273 0.99515 0.0
C757 C 0.36694 0.50042 0.9975 0.0
C758 C 0.32923 0.52267 0.99864 0.0
C759 C 0.24243 0.46122 0.02067 0.0
H760 H 0.21758 0.50457 0.96951 0.0
C761 C 0.11058 0.4488 0.01452 0.0
C762 C 0.09889 0.4502 0.99021 0.0
C763 C 0.14256 0.45314 0.01772 0.0
C764 C 0.22389 0.49192 0.98381 0.0
H765 H 0.34395 0.4483 0.00744 0.0
H766 H 0.28845 0.44015 0.0133 0.0
H767 H 0.27496 0.51769 0.97261 0.0
H768 H 0.11048 0.4546 0.95015 0.0
H769 H 0.16539 0.46092 0.9555 0.0
H770 H 0.19085 0.43457 0.0312 0.0
C771 C 0.30847 0.46487 0.00883 0.0
C772 C 0.25713 0.49998 0.98592 0.0
C773 C 0.34039 0.46951 1.00536 0.0
C774 C 0.11886 0.45361 0.96914 0.0
C775 C 0.15058 0.4577 0.97227 0.0
C776 C 0.20904 0.45309 0.01853 0.0
C777 C 0.30207 0.49105 1.00461 0.0
C778 C 0.26696 0.48453 1.00418 0.0
C779 C 0.16351 0.45892 0.99664 0.0
C780 C 0.19918 0.46797 0.99979 0.0
H781 H 0.38112 0.55135 0.989 0.0
H782 H 0.32554 0.54367 0.99576 0.0
H783 H 0.24895 0.449 0.03518 0.0
H784 H 0.09578 0.44607 0.03113 0.0
H785 H 0.15143 0.45371 0.0368 0.0
C786 C 0.52367 0.84672 0.99492 0.0
C787 C 0.54187 0.87318 0.97799 0.0
C788 C 0.53405 0.82361 1.00024 0.0
C789 C 0.57622 0.78601 0.96812 0.0
H790 H 0.58319 0.75195 0.03348 0.0
C791 C 0.61193 0.68386 0.97307 0.0
C792 C 0.59793 0.65993 0.99235 0.0
C793 C 0.60993 0.71298 0.97398 0.0
C794 C 0.58095 0.76075 0.015 0.0
H795 H 0.58691 0.8978 0.9554 0.0
H796 H 0.60442 0.85738 0.96425 0.0
H797 H 0.56937 0.79625 0.03133 0.0
H798 H 0.56757 0.64628 0.02613 0.0
H799 H 0.56344 0.69615 0.0278 0.0
H800 H 0.58581 0.74985 0.95145 0.0
C801 C 0.58198 0.85419 0.97315 0.0
C802 C 0.57317 0.78633 0.01385 0.0
C803 C 0.57191 0.87736 0.96811 0.0
C804 C 0.58098 0.66536 0.01214 0.0
C805 C 0.57824 0.69404 0.01283 0.0
C806 C 0.58328 0.76008 0.9692 0.0
C807 C 0.56264 0.82645 0.98857 0.0
C808 C 0.57088 0.79933 0.99037 0.0
C809 C 0.59216 0.71816 0.9935 0.0
C810 C 0.58591 0.74697 0.99264 0.0
H811 H 0.50038 0.84267 1.00276 0.0
H812 H 0.51866 0.80247 0.01223 0.0
H813 H 0.57412 0.79515 0.9497 0.0
H814 H 0.62388 0.6797 0.95694 0.0
H815 H 0.62162 0.73095 0.95889 0.0
C816 C 0.3728 0.93515 0.01401 0.0
C817 C 0.38524 0.94688 0.98954 0.0
C818 C 0.34512 0.90327 0.01746 0.0
C819 C 0.30165 0.82233 0.98339 0.0
H820 H 0.23558 0.79656 0.0365 0.0
C821 C 0.20072 0.68479 0.99526 0.0
C822 C 0.16823 0.67902 0.99836 0.0
C823 C 0.22816 0.71682 0.99868 0.0
C824 C 0.25378 0.80328 0.0215 0.0
H825 H 0.37659 0.93574 0.94949 0.0
H826 H 0.32782 0.88103 0.9553 0.0
H827 H 0.2788 0.85479 0.03215 0.0
H828 H 0.1392 0.70164 0.00956 0.0
H829 H 0.18657 0.75714 0.0153 0.0
H830 H 0.27623 0.77133 0.97209 0.0
C831 C 0.34005 0.89566 0.97198 0.0
C832 C 0.27879 0.83674 0.01914 0.0
C833 C 0.36776 0.92727 0.96859 0.0
C834 C 0.16394 0.70533 0.00692 0.0
C835 C 0.19124 0.73724 0.01031 0.0
C836 C 0.27672 0.78902 0.98571 0.0
C837 C 0.32919 0.88254 0.99646 0.0
C838 C 0.30281 0.84684 0.99977 0.0
C839 C 0.22372 0.74381 1.00529 0.0
C840 C 0.25213 0.77895 1.00462 0.0
H841 H 0.38557 0.9497 0.03054 0.0
H842 H 0.33745 0.89424 0.03661 0.0
H843 H 0.32009 0.82883 0.9686 0.0
H844 H 0.20485 0.66511 0.98856 0.0
H845 H 0.2528 0.72067 0.99519 0.0
C846 C 0.44492 0.23238 0.00718 0.0
C847 C 0.46133 0.21518 0.01453 0.0
C848 C 0.46188 0.26713 1.00614 0.0
C849 C 0.5356 0.341 0.03231 0.0
H850 H 0.51557 0.38773 0.98067 0.0
C851 C 0.57379 0.47927 0.04346 0.0
C852 C 0.58164 0.49925 0.02175 0.0
C853 C 0.56146 0.44506 0.04131 0.0
C854 C 0.52167 0.37522 0.9952 0.0
H855 H 0.50883 0.22134 0.02608 0.0
H856 H 0.5386 0.28202 0.02396 0.0
H857 H 0.49006 0.32753 0.9785 0.0
H858 H 0.58586 0.49988 0.98084 0.0
H859 H 0.5648 0.44013 0.97692 0.0
H860 H 0.56742 0.38861 0.04891 0.0
C861 C 0.51241 0.26855 0.01926 0.0
C862 C 0.50677 0.34054 0.99406 0.0
C863 C 0.49543 0.23371 0.02021 0.0
C864 C 0.57885 0.48476 0.99784 0.0
C865 C 0.56677 0.45051 0.99565 0.0
C866 C 0.55041 0.37566 0.03351 0.0
C867 C 0.49578 0.28575 0.01245 0.0
C868 C 0.51323 0.3229 0.01276 0.0
C869 C 0.55753 0.43007 0.01736 0.0
C870 C 0.54331 0.39327 0.01518 0.0
H871 H 0.41877 0.21895 1.00234 0.0
H872 H 0.44813 0.27942 1.00104 0.0
H873 H 0.54106 0.32833 0.04715 0.0
H874 H 0.57636 0.49002 0.06214 0.0
H875 H 0.55431 0.43028 0.05848 0.0
C876 C 0.56759 0.09907 0.03987 0.0
C877 C 0.54902 0.08661 0.01755 0.0
C878 C 0.60219 0.11872 0.03889 0.0
C879 C 0.67237 0.17529 0.99882 0.0
H880 H 0.72346 0.15271 0.04442 0.0
C881 C 0.81743 0.24633 0.99872 0.0
C882 C 0.83343 0.25028 0.02214 0.0
C883 C 0.78273 0.22655 0.99679 0.0
C884 C 0.70969 0.15978 0.0318 0.0
H885 H 0.55161 0.08745 0.97652 0.0
H886 H 0.61247 0.12223 0.9747 0.0
H887 H 0.66322 0.11823 0.04338 0.0
H888 H 0.82539 0.23796 0.06211 0.0
H889 H 0.76524 0.2045 0.05902 0.0
H890 H 0.71873 0.21739 0.98768 0.0
C891 C 0.60024 0.11602 0.99302 0.0
C892 C 0.67508 0.13982 0.03113 0.0
C893 C 0.56551 0.0959 0.99404 0.0
C894 C 0.81389 0.23493 0.0437 0.0
C895 C 0.77931 0.21552 0.04186 0.0
C896 C 0.70707 0.19555 0.99967 0.0
C897 C 0.619 0.12721 0.01549 0.0
C898 C 0.65596 0.14752 0.01486 0.0
C899 C 0.76317 0.2105 0.01832 0.0
C900 C 0.72624 0.18832 0.01643 0.0
H901 H 0.55534 0.09296 0.05819 0.0
H902 H 0.61584 0.12744 0.05651 0.0
H903 H 0.65827 0.18195 0.98617 0.0
H904 H 0.83182 0.25766 0.98173 0.0
H905 H 0.77138 0.22315 0.9783 0.0
C906 C 0.94015 0.4667 0.99718 0.0
C907 C 0.95199 0.46186 0.02037 0.0
C908 C 0.91891 0.48006 0.99667 0.0
C909 C 0.89677 0.53236 0.03536 0.0
H910 H 0.82121 0.50177 0.99022 0.0
C911 C 0.82826 0.606 0.02212 0.0
C912 C 0.79334 0.58796 0.02401 0.0
C913 C 0.84657 0.58967 0.02008 0.0
C914 C 0.84221 0.51053 1.00296 0.0
H915 H 0.9484 0.46389 0.06117 0.0
H916 H 0.9118 0.48755 0.0604 0.0
H917 H 0.85428 0.47394 0.9901 0.0
H918 H 0.75046 0.5382 0.02429 0.0
H919 H 0.78253 0.50975 0.02015 0.0
H920 H 0.88497 0.56897 0.04817 0.0
C921 C 0.91955 0.482 0.04256 0.0
C922 C 0.86129 0.49476 1.00276 0.0
C923 C 0.94044 0.4684 0.04303 0.0
C924 C 0.77723 0.55302 0.02268 0.0
C925 C 0.79562 0.53666 0.02037 0.0
C926 C 0.87807 0.54838 0.03529 0.0
C927 C 0.90898 0.48859 0.01938 0.0
C928 C 0.8887 0.50537 0.01909 0.0
C929 C 0.83057 0.5548 0.01954 0.0
C930 C 0.85048 0.53764 0.01917 0.0
H931 H 0.94779 0.46072 0.97945 0.0
H932 H 0.9112 0.48473 0.97849 0.0
H933 H 0.91787 0.5414 0.04803 0.0
H934 H 0.84162 0.6329 0.02236 0.0
H935 H 0.87341 0.60442 0.01898 0.0
C936 C 0.7887 0.78807 0.30501 0.0
C937 C 0.76892 0.78412 0.32636 0.0
C938 C 0.8202 0.79159 0.30769 0.0
C939 C 0.87771 0.78068 0.34891 0.0
H940 H 0.94477 0.85789 0.31256 0.0
C941 C 0.03044 0.86374 0.33107 0.0
C942 C 0.0367 0.83826 0.32393 0.0
C943 C 0.99795 0.85655 0.33665 0.0
C944 C 0.92652 0.83649 0.32312 0.0
H945 H 0.7658 0.77822 0.36718 0.0
H946 H 0.82095 0.78379 0.37191 0.0
H947 H 0.88687 0.84404 0.31091 0.0
H948 H 1.01435 0.7851 0.31888 0.0
H949 H 0.9579 0.77246 0.32904 0.0
H950 H 0.91756 0.77277 0.36056 0.0
C951 C 0.81203 0.78449 0.35308 0.0
C952 C 0.89321 0.82831 0.32191 0.0
C953 C 0.78042 0.78126 0.35039 0.0
C954 C 1.01026 0.80522 0.32442 0.0
C955 C 0.9779 0.79799 0.33027 0.0
C956 C 0.91114 0.78862 0.34982 0.0
C957 C 0.83279 0.79109 0.33181 0.0
C958 C 0.86831 0.8001 0.3345 0.0
C959 C 0.97108 0.82368 0.33548 0.0
C960 C 0.93595 0.81654 0.33676 0.0
H961 H 0.78051 0.79029 0.28625 0.0
H962 H 0.83529 0.79594 0.29088 0.0
H963 H 0.8591 0.75883 0.35883 0.0
H964 H 0.05022 0.88943 0.3306 0.0
H965 H 0.99363 0.87689 0.34088 0.0
C966 C 0.19268 0.18063 0.32813 0.0
C967 C 0.21937 0.21292 0.3321 0.0
C968 C 0.19691 0.15295 0.33135 0.0
C969 C 0.22032 0.10423 0.3186 0.0
H970 H 0.28251 0.10068 0.36571 0.0
C971 C 0.26602 1.01199 0.30183 0.0
C972 C 0.26781 0.99435 0.32281 0.0
C973 C 0.26258 0.03996 0.30516 0.0
C974 C 0.26488 0.10109 0.35251 0.0
H975 H 0.27048 0.24122 0.34474 0.0
H976 H 0.27803 0.19348 0.34996 0.0
H977 H 0.26773 0.144 0.37018 0.0
H978 H 0.27023 0.99399 0.36379 0.0
H979 H 0.26345 0.04244 0.3698 0.0
H980 H 0.21677 0.06102 0.30128 0.0
C981 C 0.25375 0.18913 0.34445 0.0
C982 C 0.25658 0.12618 0.35493 0.0
C983 C 0.24948 0.21666 0.34131 0.0
C984 C 0.26863 1.00686 0.34726 0.0
C985 C 0.2648 0.03476 0.35065 0.0
C986 C 0.22848 0.07916 0.31626 0.0
C987 C 0.22794 0.15692 0.33859 0.0
C988 C 0.23446 0.12838 0.3378 0.0
C989 C 0.26033 0.05087 0.32962 0.0
C990 C 0.2513 0.07746 0.33289 0.0
H991 H 0.16923 0.17689 0.32095 0.0
H992 H 0.17616 0.12851 0.32724 0.0
H993 H 0.20358 0.10514 0.30479 0.0
H994 H 0.2656 1.0031 0.28275 0.0
H995 H 0.26049 0.05234 0.28845 0.0
C996 C 0.04144 0.26211 0.30211 0.0
C997 C 0.05802 0.28224 0.32307 0.0
C998 C 1.01352 0.23062 0.3054 0.0
C999 C 0.95005 0.17293 0.35194 0.0
H1000 H 0.94889 0.10631 0.30696 0.0
C1001 C 0.83517 0.04145 0.33967 0.0
C1002 C 0.83955 0.01483 0.33213 0.0
C1003 C 0.86246 0.0734 0.34299 0.0
C1004 C 0.94896 0.12433 0.32001 0.0
H1005 H 0.05661 0.28599 0.3639 0.0
H1006 H 1.00815 0.2307 0.36988 0.0
H1007 H 0.99317 0.16361 0.30338 0.0
H1008 H 0.87631 1.00049 0.32406 0.0
H1009 H 0.92421 0.05611 0.33059 0.0
H1010 H 0.90601 0.13328 0.36885 0.0
C1011 C 1.01667 0.23926 0.35076 0.0
C1012 C 0.97416 0.15754 0.31762 0.0
C1013 C 0.04458 0.27103 0.34739 0.0
C1014 C 0.87208 0.0204 0.32997 0.0
C1015 C 0.89951 0.05247 0.33332 0.0
C1016 C 0.92479 0.13957 0.35438 0.0
C1017 C 1.00156 0.21807 0.32984 0.0
C1018 C 0.97486 0.18249 0.33324 0.0
C1019 C 0.89504 0.07971 0.33893 0.0
C1020 C 0.92363 0.11479 0.33823 0.0
H1021 H 0.05108 0.27014 0.28311 0.0
H1022 H 1.00198 0.21563 0.28873 0.0
H1023 H 0.94969 0.19131 0.36435 0.0
H1024 H 0.8104 0.03795 0.34159 0.0
H1025 H 0.85775 0.09348 0.34719 0.0
C1026 C 0.23834 0.81506 0.32694 0.0
C1027 C 0.24478 0.83104 0.3506 0.0
C1028 C 0.22375 0.78038 0.32558 0.0
C1029 C 0.17075 0.70476 0.36215 0.0
H1030 H 0.20509 0.66169 0.31842 0.0
C1031 C 0.10131 0.56252 0.3473 0.0
C1032 C 0.12023 0.54673 0.35051 0.0
C1033 C 0.11666 0.59714 0.34554 0.0
C1034 C 0.19525 0.67339 0.33071 0.0
H1035 H 0.24348 0.82389 0.39122 0.0
H1036 H 0.21736 0.76335 0.38893 0.0
H1037 H 0.2319 0.72253 0.3188 0.0
H1038 H 0.17063 0.55564 0.35368 0.0
H1039 H 0.19736 0.61602 0.34988 0.0
H1040 H 0.13407 0.65583 0.37403 0.0
C1041 C 0.22296 0.77742 0.37145 0.0
C1042 C 0.21042 0.70817 0.33079 0.0
C1043 C 0.23795 0.81201 0.37278 0.0
C1044 C 0.15513 0.56667 0.35094 0.0
C1045 C 0.17052 0.60136 0.34885 0.0
C1046 C 0.15527 0.67006 0.36175 0.0
C1047 C 0.21541 0.76115 0.34786 0.0
C1048 C 0.19855 0.72423 0.34673 0.0
C1049 C 0.15141 0.61701 0.34656 0.0
C1050 C 0.16748 0.65395 0.3462 0.0
H1051 H 0.24435 0.82934 0.30955 0.0
H1052 H 0.21828 0.76856 0.30713 0.0
H1053 H 0.1609 0.71641 0.3745 0.0
H1054 H 0.07447 0.54814 0.34619 0.0
H1055 H 0.10127 0.60841 0.34337 0.0
C1056 C 0.23386 0.44108 0.33048 0.0
C1057 C 0.21707 0.42842 0.35356 0.0
C1058 C 0.2684 0.46264 0.33014 0.0
C1059 C 0.34272 0.48456 0.36897 0.0
H1060 H 0.38771 0.56013 0.32373 0.0
C1061 C 0.48478 0.55267 0.35522 0.0
C1062 C 0.50182 0.5876 0.357 0.0
C1063 C 0.45012 0.53448 0.35334 0.0
C1064 C 0.37547 0.53914 0.33651 0.0
H1065 H 0.22237 0.43095 0.39438 0.0
H1066 H 0.28252 0.46818 0.39389 0.0
H1067 H 0.32683 0.52709 0.32372 0.0
H1068 H 0.49518 0.63063 0.35726 0.0
H1069 H 0.43462 0.59877 0.35341 0.0
H1070 H 0.39112 0.49633 0.3817 0.0
C1071 C 0.26939 0.46079 0.37599 0.0
C1072 C 0.34061 0.52006 0.33637 0.0
C1073 C 0.23495 0.43954 0.3763 0.0
C1074 C 0.48311 0.60384 0.35574 0.0
C1075 C 0.44833 0.58557 0.3536 0.0
C1076 C 0.37744 0.50326 0.36884 0.0
C1077 C 0.28672 0.47212 0.35289 0.0
C1078 C 0.32379 0.49259 0.3527 0.0
C1079 C 0.43138 0.55062 0.35288 0.0
C1080 C 0.3943 0.53083 0.35266 0.0
H1081 H 0.22039 0.43378 0.31271 0.0
H1082 H 0.28089 0.47091 0.31201 0.0
H1083 H 0.33069 0.46345 0.38166 0.0
H1084 H 0.49822 0.53921 0.35541 0.0
H1085 H 0.43792 0.50764 0.35232 0.0
C1086 C 0.47256 0.91339 0.37841 0.0
C1087 C 0.45788 0.91701 0.35627 0.0
C1088 C 0.49117 0.8973 0.37776 0.0
C1089 C 0.51072 0.84239 0.33812 0.0
H1090 H 0.58757 0.87742 0.38228 0.0
C1091 C 0.61154 0.80224 0.33368 0.0
C1092 C 0.62366 0.79844 0.3571 0.0
C1093 C 0.58987 0.81505 0.33265 0.0
C1094 C 0.56608 0.86715 0.36994 0.0
H1095 H 0.4507 0.90598 0.31611 0.0
H1096 H 0.48396 0.87853 0.31472 0.0
H1097 H 0.55322 0.90319 0.38186 0.0
H1098 H 0.62031 0.80187 0.3978 0.0
H1099 H 0.58291 0.82455 0.39612 0.0
H1100 H 0.52445 0.8068 0.32584 0.0
C1101 C 0.48061 0.88759 0.33278 0.0
C1102 C 0.54617 0.88185 0.36978 0.0
C1103 C 0.46157 0.90339 0.33351 0.0
C1104 C 0.61209 0.80556 0.37948 0.0
C1105 C 0.59076 0.81861 0.37848 0.0
C1106 C 0.53097 0.82791 0.33807 0.0
C1107 C 0.4961 0.88472 0.35486 0.0
C1108 C 0.51788 0.86945 0.35415 0.0
C1109 C 0.57979 0.82406 0.35506 0.0
C1110 C 0.55869 0.83989 0.35422 0.0
H1111 H 0.4697 0.92312 0.39633 0.0
H1112 H 0.50175 0.89479 0.39534 0.0
H1113 H 0.48905 0.83186 0.32598 0.0
H1114 H 0.61924 0.79582 0.31618 0.0
H1115 H 0.58184 0.81885 0.3143 0.0
C1116 C 0.67376 0.1333 0.67285 0.0
C1117 C 0.70024 0.16413 0.66481 0.0
C1118 C 0.64193 0.12879 0.67659 0.0
C1119 C 0.59072 0.16392 0.65377 0.0
H1120 H 0.52457 0.09892 0.69936 0.0
C1121 C 0.45259 0.11778 0.6372 0.0
C1122 C 0.43288 0.11494 0.65831 0.0
C1123 C 0.48419 0.12158 0.64031 0.0
C1124 C 0.54273 0.11732 0.6866 0.0
H1125 H 0.71451 0.2151 0.65634 0.0
H1126 H 0.65911 0.20764 0.66358 0.0
H1127 H 0.58268 0.11332 0.70328 0.0
H1128 H 0.43001 0.11136 0.69925 0.0
H1129 H 0.48546 0.11854 0.70487 0.0
H1130 H 0.55114 0.16841 0.63733 0.0
C1131 C 0.66276 0.18661 0.66639 0.0
C1132 C 0.57611 0.12543 0.68872 0.0
C1133 C 0.69471 0.1911 0.66262 0.0
C1134 C 0.44463 0.11371 0.68262 0.0
C1135 C 0.47648 0.11776 0.6858 0.0
C1136 C 0.55749 0.15587 0.6517 0.0
C1137 C 0.63562 0.15504 0.67247 0.0
C1138 C 0.60057 0.1486 0.67212 0.0
C1139 C 0.49723 0.12307 0.66468 0.0
C1140 C 0.53285 0.13206 0.66778 0.0
H1141 H 0.67725 0.11204 0.67481 0.0
H1142 H 0.6219 0.10411 0.68116 0.0
H1143 H 0.6085 0.18151 0.64039 0.0
H1144 H 0.44414 0.11862 0.61821 0.0
H1145 H 0.49885 0.12444 0.62352 0.0
C1146 C 0.92858 0.34047 0.63691 0.0
C1147 C 0.93117 0.3231 0.65775 0.0
C1148 C 0.92516 0.36843 0.64048 0.0
C1149 C 0.92921 0.43002 0.68816 0.0
H1150 H 0.86681 0.43421 0.64168 0.0
C1151 C 0.9147 0.54615 0.67773 0.0
C1152 C 0.88457 0.54266 0.66883 0.0
C1153 C 0.91867 0.51843 0.68081 0.0
C1154 C 0.88386 0.43326 0.65516 0.0
H1155 H 0.93494 0.32316 0.69864 0.0
H1156 H 0.92817 0.3715 0.70509 0.0
H1157 H 0.87952 0.38982 0.63766 0.0
H1158 H 0.83406 0.50694 0.65831 0.0
H1159 H 0.84044 0.45823 0.66457 0.0
H1160 H 0.93284 0.47316 0.70604 0.0
C1161 C 0.92889 0.36365 0.68587 0.0
C1162 C 0.89174 0.40803 0.65252 0.0
C1163 C 0.93267 0.33577 0.68223 0.0
C1164 C 0.85755 0.51047 0.66523 0.0
C1165 C 0.86146 0.4826 0.66842 0.0
C1166 C 0.92117 0.45526 0.69091 0.0
C1167 C 0.92374 0.37958 0.66504 0.0
C1168 C 0.91496 0.40629 0.66867 0.0
C1169 C 0.89251 0.48629 0.67525 0.0
C1170 C 0.89867 0.45753 0.67422 0.0
H1171 H 0.92759 0.33143 0.6178 0.0
H1172 H 0.92252 0.38065 0.62389 0.0
H1173 H 0.94716 0.4296 0.701 0.0
H1174 H 0.93597 0.57064 0.68084 0.0
H1175 H 0.94298 0.52257 0.68599 0.0
C1176 C 0.7185 0.59438 0.67786 0.0
C1177 C 0.72704 0.61208 0.65495 0.0
C1178 C 0.69045 0.56269 0.67967 0.0
C1179 C 0.6367 0.48984 0.63963 0.0
H1180 H 0.58241 0.45828 0.70031 0.0
C1181 C 0.53769 0.3509 0.65158 0.0
C1182 C 0.50654 0.34465 0.66038 0.0
C1183 C 0.56557 0.38294 0.65333 0.0
C1184 C 0.59723 0.46664 0.68317 0.0
H1185 H 0.71338 0.60984 0.61551 0.0
H1186 H 0.66377 0.55457 0.61853 0.0
H1187 H 0.62616 0.5163 0.69737 0.0
H1188 H 0.4806 0.36639 0.67932 0.0
H1189 H 0.52889 0.42187 0.68258 0.0
H1190 H 0.6073 0.44039 0.6252 0.0
C1191 C 0.67867 0.56536 0.63536 0.0
C1192 C 0.62254 0.49996 0.68155 0.0
C1193 C 0.70683 0.59719 0.63366 0.0
C1194 C 0.50435 0.37046 0.67248 0.0
C1195 C 0.53212 0.40232 0.67434 0.0
C1196 C 0.61141 0.45652 0.64126 0.0
C1197 C 0.67045 0.54737 0.65832 0.0
C1198 C 0.64262 0.5121 0.65972 0.0
C1199 C 0.56292 0.40935 0.66405 0.0
C1200 C 0.59123 0.44442 0.66303 0.0
H1201 H 0.73493 0.60381 0.69387 0.0
H1202 H 0.68566 0.54944 0.69748 0.0
H1203 H 0.65193 0.49802 0.62269 0.0
H1204 H 0.54003 0.33159 0.64192 0.0
H1205 H 0.589 0.38725 0.6456 0.0
C1206 C 0.82547 0.89632 0.6867 0.0
C1207 C 0.7912 0.8782 0.68149 0.0
C1208 C 0.84296 0.93113 0.68541 0.0
C1209 C 0.83839 1.00338 0.65969 0.0
H1210 H 0.90086 0.05194 0.71344 0.0
C1211 C 0.91195 0.14761 0.66158 0.0
C1212 C 0.91575 0.16265 0.68538 0.0
C1213 C 0.89958 0.11328 0.65973 0.0
C1214 C 0.88335 0.03886 0.69834 0.0
H1215 H 0.74883 0.88267 0.66995 0.0
H1216 H 0.7791 0.94314 0.66806 0.0
H1217 H 0.87332 0.99155 0.71256 0.0
H1218 H 0.91205 0.15435 0.72589 0.0
H1219 H 0.88943 0.0945 0.72286 0.0
H1220 H 0.84791 0.05051 0.6457 0.0
C1221 C 0.79257 0.93052 0.67302 0.0
C1222 C 0.86785 1.00413 0.69766 0.0
C1223 C 0.77509 0.89578 0.6744 0.0
C1224 C 0.90869 0.14316 0.7073 0.0
C1225 C 0.89604 0.10887 0.7055 0.0
C1226 C 0.85399 0.03812 0.66032 0.0
C1227 C 0.82668 0.94872 0.67875 0.0
C1228 C 0.8448 0.98586 0.67853 0.0
C1229 C 0.89104 0.0933 0.68169 0.0
C1230 C 0.87626 0.05639 0.67992 0.0
H1231 H 0.83865 0.88366 0.69239 0.0
H1232 H 0.86927 0.94427 0.68968 0.0
H1233 H 0.82118 0.99021 0.64444 0.0
H1234 H 0.91836 0.16235 0.6444 0.0
H1235 H 0.89681 0.10246 0.64108 0.0
C1236 C 0.89869 0.77095 0.66692 0.0
C1237 C 0.88162 0.7592 0.69001 0.0
C1238 C 0.93319 0.79251 0.66666 0.0
C1239 C 1.00714 0.81576 0.70597 0.0
H1240 H 0.05204 0.88996 0.65948 0.0
C1241 C 0.14898 0.88266 0.69032 0.0
C1242 C 0.16623 0.91764 0.69161 0.0
C1243 C 0.11426 0.8646 0.68914 0.0
C1244 C 0.03982 0.86936 0.6726 0.0
H1245 H 0.88637 0.76323 0.73084 0.0
H1246 H 0.94662 0.80049 0.73051 0.0
H1247 H 0.99117 0.8571 0.65974 0.0
H1248 H 0.15985 0.96083 0.69191 0.0
H1249 H 0.09921 0.92919 0.68916 0.0
H1250 H 0.05563 0.82768 0.71867 0.0
C1251 C 0.93365 0.79243 0.71258 0.0
C1252 C 1.00499 0.85041 0.67264 0.0
C1253 C 0.89919 0.77118 0.7128 0.0
C1254 C 0.14764 0.93402 0.69069 0.0
C1255 C 0.11282 0.91588 0.6892 0.0
C1256 C 0.04187 0.83432 0.70565 0.0
C1257 C 0.95121 0.80289 0.68951 0.0
C1258 C 0.98822 0.82341 0.68939 0.0
C1259 C 0.09572 0.88093 0.68885 0.0
C1260 C 0.05867 0.86137 0.689 0.0
H1261 H 0.88548 0.76295 0.64908 0.0
H1262 H 0.94588 0.80009 0.64857 0.0
H1263 H 0.9951 0.795 0.71898 0.0
H1264 H 0.16228 0.86907 0.69028 0.0
H1265 H 0.10188 0.83773 0.68842 0.0
C1266 C 0.27708 0.13611 0.71252 0.0
C1267 C 0.2875 0.12855 0.68975 0.0
C1268 C 0.25573 0.14915 0.71228 0.0
C1269 C 0.19487 0.15902 0.67334 0.0
H1270 H 0.21925 0.23436 0.71761 0.0
C1271 C 0.12815 0.23704 0.67043 0.0
C1272 C 0.12473 0.2504 0.69342 0.0
C1273 C 0.14672 0.22077 0.6693 0.0
C1274 C 0.21163 0.21302 0.7054 0.0
H1275 H 0.28087 0.12498 0.64901 0.0
H1276 H 0.24359 0.14817 0.64843 0.0
H1277 H 0.25276 0.2077 0.71712 0.0
H1278 H 0.13667 0.25564 0.73347 0.0
H1279 H 0.16806 0.22666 0.73174 0.0
H1280 H 0.1533 0.16401 0.66197 0.0
C1281 C 0.25248 0.14468 0.6665 0.0
C1282 C 0.23103 0.19777 0.70506 0.0
C1283 C 0.27411 0.1318 0.66677 0.0
C1284 C 0.13935 0.24617 0.71537 0.0
C1285 C 0.15754 0.22966 0.71431 0.0
C1286 C 0.17517 0.17409 0.67388 0.0
C1287 C 0.24365 0.15425 0.68924 0.0
C1288 C 0.22288 0.17049 0.68912 0.0
C1289 C 0.16203 0.21719 0.6912 0.0
C1290 C 0.18315 0.20122 0.69006 0.0
H1291 H 0.28623 0.13278 0.73054 0.0
H1292 H 0.24882 0.15545 0.73019 0.0
H1293 H 0.18773 0.1379 0.66098 0.0
H1294 H 0.11735 0.24009 0.65316 0.0
H1295 H 0.14979 0.21184 0.6511 0.0
C1296 C 0.13638 0.37291 0.24008 0.0
C1297 C 0.13694 0.3903 0.26206 0.0
C1298 C 0.13322 0.38415 0.21598 0.0
C1299 C 0.14265 0.45791 0.18085 0.0
H1300 H 0.06959 0.3941 0.13951 0.0
C1301 C 0.10266 0.4819 0.07954 0.0
C1302 C 0.06833 0.47002 0.07767 0.0
C1303 C 0.11591 0.47571 0.10157 0.0
C1304 C 0.09025 0.41218 0.15076 0.0
H1305 H 0.13637 0.43395 0.27591 0.0
H1306 H 0.13177 0.45381 0.23419 0.0
H1307 H 0.08504 0.37544 0.17787 0.0
H1308 H 0.02164 0.44495 0.09808 0.0
H1309 H 0.04451 0.43416 0.13604 0.0
H1310 H 0.1474 0.49471 0.15375 0.0
C1311 C 0.13342 0.43141 0.23539 0.0
C1312 C 0.09927 0.40143 0.17263 0.0
C1313 C 0.13582 0.41985 0.25935 0.0
C1314 C 0.04817 0.45436 0.09893 0.0
C1315 C 0.06119 0.44783 0.12059 0.0
C1316 C 0.13398 0.46858 0.15867 0.0
C1317 C 0.13142 0.41344 0.2134 0.0
C1318 C 0.12506 0.42426 0.18831 0.0
C1319 C 0.09494 0.45729 0.12185 0.0
C1320 C 0.10709 0.44595 0.14375 0.0
H1321 H 0.13701 0.34999 0.24156 0.0
H1322 H 0.1318 0.36976 0.19938 0.0
H1323 H 0.16276 0.4761 0.19244 0.0
H1324 H 0.11873 0.49356 0.06335 0.0
H1325 H 0.14209 0.48344 0.1021 0.0
C1326 C 0.66941 0.77081 0.24578 0.0
C1327 C 0.65943 0.75168 0.26809 0.0
C1328 C 0.65687 0.75591 0.22205 0.0
C1329 C 0.58832 0.67927 0.19183 0.0
H1330 H 0.64994 0.70337 0.13564 0.0
C1331 C 0.56082 0.60027 0.09918 0.0
C1332 C 0.57469 0.61758 0.0765 0.0
C1333 C 0.56718 0.61756 0.12232 0.0
C1334 C 0.63215 0.69663 0.15096 0.0
H1335 H 0.6277 0.70189 0.28281 0.0
H1336 H 0.60636 0.67623 0.24192 0.0
H1337 H 0.66899 0.73266 0.17582 0.0
H1338 H 0.60633 0.66645 0.06047 0.0
H1339 H 0.61566 0.69641 0.09996 0.0
H1340 H 0.55158 0.64287 0.16697 0.0
C1341 C 0.62359 0.70274 0.24255 0.0
C1342 C 0.64316 0.71353 0.17408 0.0
C1343 C 0.63619 0.71751 0.26609 0.0
C1344 C 0.59381 0.65244 0.07732 0.0
C1345 C 0.6 0.66962 0.10021 0.0
C1346 C 0.57727 0.66237 0.16865 0.0
C1347 C 0.63388 0.72158 0.22012 0.0
C1348 C 0.62149 0.70497 0.19493 0.0
C1349 C 0.58788 0.65244 0.1232 0.0
C1350 C 0.59905 0.67075 0.14788 0.0
H1351 H 0.68759 0.79698 0.24646 0.0
H1352 H 0.66526 0.77129 0.2052 0.0
H1353 H 0.57076 0.67221 0.20734 0.0
H1354 H 0.54721 0.57337 0.09933 0.0
H1355 H 0.55767 0.60341 0.13967 0.0
C1356 C 0.44197 0.99665 0.09776 0.0
C1357 C 0.43764 0.97611 0.07684 0.0
C1358 C 0.42285 0.98381 0.11967 0.0
C1359 C 0.37303 0.91164 0.159 0.0
H1360 H 0.32662 0.95863 0.17754 0.0
C1361 C 0.32228 0.91062 0.25969 0.0
C1362 C 0.29128 0.90881 0.26217 0.0
C1363 C 0.33625 0.91261 0.23577 0.0
C1364 C 0.33902 0.94495 0.1725 0.0
H1365 H 0.41151 0.92536 0.06327 0.0
H1366 H 0.3788 0.90236 0.10246 0.0
H1367 H 0.36027 0.97405 0.1389 0.0
H1368 H 0.25044 0.90734 0.24141 0.0
H1369 H 0.27522 0.91153 0.19935 0.0
H1370 H 0.35284 0.88347 0.19325 0.0
C1371 C 0.39678 0.92866 0.1015 0.0
C1372 C 0.35851 0.95395 0.15047 0.0
C1373 C 0.41577 0.94172 0.07921 0.0
C1374 C 0.27411 0.90823 0.24009 0.0
C1375 C 0.28846 0.91092 0.21605 0.0
C1376 C 0.35396 0.90301 0.18135 0.0
C1377 C 0.39921 0.9499 0.1215 0.0
C1378 C 0.37616 0.93779 0.14367 0.0
C1379 C 0.31991 0.91352 0.21364 0.0
C1380 C 0.33707 0.91987 0.18854 0.0
H1381 H 0.45881 0.02321 0.09657 0.0
H1382 H 0.42573 1.0007 0.13492 0.0
H1383 H 0.38636 0.89879 0.15424 0.0
H1384 H 0.3361 0.91109 0.27638 0.0
H1385 H 0.36059 0.91491 0.23468 0.0
C1386 C 0.47388 0.04049 0.90657 0.0
C1387 C 0.47338 0.05695 0.92878 0.0
C1388 C 0.47157 0.05256 0.88261 0.0
C1389 C 0.48023 0.12671 0.84846 0.0
H1390 H 0.40899 0.06272 0.80584 0.0
C1391 C 0.43975 0.14951 0.74658 0.0
C1392 C 0.40543 0.13783 0.7452 0.0
C1393 C 0.45348 0.14375 0.76854 0.0
C1394 C 0.42917 0.08084 0.81744 0.0
H1395 H 0.47174 0.09974 0.94327 0.0
H1396 H 0.46856 0.12108 0.90174 0.0
H1397 H 0.42437 0.04385 0.8441 0.0
H1398 H 0.35929 0.1137 0.76637 0.0
H1399 H 0.38298 0.10359 0.80417 0.0
H1400 H 0.48447 0.16375 0.82177 0.0
C1401 C 0.47051 0.09884 0.90266 0.0
C1402 C 0.43815 0.07 0.83926 0.0
C1403 C 0.47213 0.08647 0.92649 0.0
C1404 C 0.3858 0.12293 0.76684 0.0
C1405 C 0.39928 0.11683 0.78842 0.0
C1406 C 0.4716 0.1375 0.82631 0.0
C1407 C 0.46943 0.08169 0.8804 0.0
C1408 C 0.46326 0.09286 0.8554 0.0
C1409 C 0.43297 0.12601 0.78921 0.0
C1410 C 0.44538 0.11475 0.81094 0.0
H1411 H 0.47438 0.0175 0.90772 0.0
H1412 H 0.47083 0.03878 0.86581 0.0
H1413 H 0.49979 0.14494 0.86042 0.0
H1414 H 0.45541 0.16061 0.7301 0.0
H1415 H 0.4796 0.15122 0.76871 0.0
C1416 C 0.95711 0.38671 0.93038 0.0
C1417 C 0.98674 0.41746 0.93111 0.0
C1418 C 0.94382 0.37063 0.90736 0.0
C1419 C 0.9506 0.37979 0.83639 0.0
H1420 H 0.9113 0.28408 0.83993 0.0
C1421 C 0.89768 0.2951 0.74663 0.0
C1422 C 0.90682 0.27059 0.74443 0.0
C1423 C 0.9028 0.31259 0.76959 0.0
C1424 C 0.92226 0.31078 0.83844 0.0
H1425 H 0.02523 0.4561 0.90812 0.0
H1426 H 1.00269 0.42743 0.86758 0.0
H1427 H 0.93116 0.31677 0.87826 0.0
H1428 H 0.92694 0.24416 0.76471 0.0
H1429 H 0.93535 0.27378 0.80434 0.0
H1430 H 0.94309 0.37348 0.79608 0.0
C1431 C 0.9892 0.41599 0.88487 0.0
C1432 C 0.93332 0.32968 0.86065 0.0
C1433 C 1.00223 0.43249 0.90809 0.0
C1434 C 0.91908 0.2625 0.76597 0.0
C1435 C 0.92403 0.27969 0.78876 0.0
C1436 C 0.93967 0.36077 0.814 0.0
C1437 C 0.96017 0.38433 0.88423 0.0
C1438 C 0.94779 0.36454 0.8601 0.0
C1439 C 0.91685 0.30564 0.79081 0.0
C1440 C 0.92565 0.32596 0.81469 0.0
H1441 H 0.94433 0.37472 0.9478 0.0
H1442 H 0.92088 0.34701 0.90785 0.0
H1443 H 0.96127 0.40646 0.83507 0.0
H1444 H 0.88875 0.30232 0.73023 0.0
H1445 H 0.8966 0.33214 0.77049 0.0
C1446 C 0.73061 0.6222 0.74376 0.0
C1447 C 0.76537 0.63672 0.74221 0.0
C1448 C 0.71392 0.61121 0.76681 0.0
C1449 C 0.72124 0.59316 0.83453 0.0
H1450 H 0.65249 0.61652 0.84331 0.0
C1451 C 0.66486 0.59351 0.93259 0.0
C1452 C 0.63083 0.58335 0.93438 0.0
C1453 C 0.68003 0.59636 0.90908 0.0
C1454 C 0.67118 0.60928 0.84112 0.0
H1455 H 0.80984 0.65085 0.76404 0.0
H1456 H 0.78055 0.63154 0.80486 0.0
H1457 H 0.68216 0.62809 0.80322 0.0
H1458 H 0.58612 0.56799 0.91246 0.0
H1459 H 0.61253 0.57266 0.87121 0.0
H1460 H 0.71054 0.57496 0.87277 0.0
C1461 C 0.76615 0.62796 0.78782 0.0
C1462 C 0.68832 0.61594 0.81804 0.0
C1463 C 0.78299 0.63878 0.76441 0.0
C1464 C 0.6122 0.57549 0.91189 0.0
C1465 C 0.62751 0.57856 0.8882 0.0
C1466 C 0.7041 0.58657 0.85772 0.0
C1467 C 0.73146 0.61511 0.78939 0.0
C1468 C 0.71355 0.6079 0.81432 0.0
C1469 C 0.66174 0.58929 0.88648 0.0
C1470 C 0.67885 0.59459 0.86136 0.0
H1471 H 0.71627 0.62134 0.72732 0.0
H1472 H 0.68724 0.60091 0.767 0.0
H1473 H 0.74024 0.58634 0.83236 0.0
H1474 H 0.68008 0.5996 0.94946 0.0
H1475 H 0.70643 0.60508 0.90863 0.0
C1476 C 0.77558 0.81677 0.41551 0.0
C1477 C 0.74208 0.80833 0.41397 0.0
C1478 C 0.7884 0.81179 0.43825 0.0
C1479 C 0.76942 0.79422 0.50751 0.0
H1480 H 0.82292 0.7518 0.50292 0.0
C1481 C 0.8104 0.75742 0.59849 0.0
C1482 C 0.80943 0.72676 0.59903 0.0
C1483 C 0.80814 0.77127 0.57557 0.0
C1484 C 0.80785 0.76347 0.50459 0.0
H1485 H 0.69623 0.78946 0.43512 0.0
H1486 H 0.71829 0.78139 0.47446 0.0
H1487 H 0.80782 0.77029 0.46426 0.0
H1488 H 0.80637 0.68688 0.57595 0.0
H1489 H 0.80129 0.71049 0.5356 0.0
H1490 H 0.76771 0.78604 0.54741 0.0
C1491 C 0.73505 0.79208 0.4585 0.0
C1492 C 0.79959 0.77456 0.48238 0.0
C1493 C 0.72234 0.79686 0.43591 0.0
C1494 C 0.80752 0.71075 0.57599 0.0
C1495 C 0.80461 0.72437 0.5529 0.0
C1496 C 0.77746 0.78304 0.52956 0.0
C1497 C 0.768 0.79857 0.4599 0.0
C1498 C 0.77988 0.78974 0.48352 0.0
C1499 C 0.80394 0.75444 0.55245 0.0
C1500 C 0.79667 0.76731 0.52854 0.0
H1501 H 0.79118 0.825 0.39876 0.0
H1502 H 0.81399 0.8174 0.43866 0.0
H1503 H 0.75451 0.80607 0.50929 0.0
H1504 H 0.81212 0.77042 0.616 0.0
H1505 H 0.80889 0.79492 0.57615 0.0
C1506 C 0.25666 0.93267 0.43139 0.0
C1507 C 0.24371 0.94089 0.41034 0.0
C1508 C 0.26169 0.94926 0.45445 0.0
C1509 C 0.2757 0.0289 0.48155 0.0
H1510 H 0.26873 0.98326 0.54472 0.0
C1511 C 0.33744 0.09843 0.57644 0.0
C1512 C 0.32212 0.08255 0.59929 0.0
C1513 C 0.32477 0.08242 0.55302 0.0
C1514 C 0.27045 0.9966 0.52743 0.0
H1515 H 0.22468 0.97227 0.39723 0.0
H1516 H 0.23257 1.00098 0.43806 0.0
H1517 H 0.24915 0.9517 0.50587 0.0
H1518 H 0.28027 0.03874 0.61545 0.0
H1519 H 0.25748 1.01183 0.57518 0.0
H1520 H 0.2965 0.07386 0.50348 0.0
C1521 C 0.23926 0.98182 0.43654 0.0
C1522 C 0.25956 0.97837 0.50492 0.0
C1523 C 0.23412 0.96497 0.41328 0.0
C1524 C 0.29301 0.05137 0.59819 0.0
C1525 C 0.28007 0.03577 0.57498 0.0
C1526 C 0.28642 0.04724 0.50425 0.0
C1527 C 0.25384 0.97467 0.4573 0.0
C1528 C 0.26243 0.99419 0.48154 0.0
C1529 C 0.29625 0.05043 0.552 0.0
C1530 C 0.28416 0.03136 0.52757 0.0
H1531 H 0.26477 0.91458 0.42956 0.0
H1532 H 0.27345 0.94326 0.46966 0.0
H1533 H 0.27869 0.04209 0.46393 0.0
H1534 H 0.35999 0.12242 0.57673 0.0
H1535 H 0.3381 0.09458 0.53584 0.0
C1536 C 0.94696 0.24448 0.57476 0.0
C1537 C 0.96218 0.24402 0.59766 0.0
C1538 C 0.96339 0.24823 0.55142 0.0
C1539 C 0.04961 0.27944 0.52664 0.0
H1540 H 1.00559 0.24454 0.46232 0.0
C1541 C 0.11613 0.33201 0.43162 0.0
C1542 C 0.10837 0.3114 0.41024 0.0
C1543 C 0.09894 0.3199 0.45444 0.0
C1544 C 1.01836 0.25409 0.48017 0.0
H1545 H 1.00522 0.24458 0.61393 0.0
H1546 H 0.03282 0.24946 0.57378 0.0
H1547 H 0.97281 0.22975 0.50148 0.0
H1548 H 0.07715 0.26134 0.39635 0.0
H1549 H 0.0473 0.23961 0.4367 0.0
H1550 H 0.09507 0.30329 0.50568 0.0
C1551 C 1.00909 0.24856 0.57351 0.0
C1552 C 0.99945 0.24599 0.50265 0.0
C1553 C 0.99308 0.24544 0.59664 0.0
C1554 C 0.08411 0.27768 0.41263 0.0
C1555 C 0.06661 0.26544 0.43563 0.0
C1556 C 0.0684 0.2873 0.50433 0.0
C1557 C 0.99515 0.25115 0.55053 0.0
C1558 C 1.0148 0.25872 0.52627 0.0
C1559 C 0.07331 0.28665 0.4567 0.0
C1560 C 0.05313 0.27519 0.48067 0.0
H1561 H 0.92323 0.24359 0.57498 0.0
H1562 H 0.95177 0.25021 0.53424 0.0
H1563 H 0.06257 0.29039 0.54418 0.0
H1564 H 0.13425 0.35826 0.4302 0.0
H1565 H 0.10463 0.33727 0.46989 0.0
loop_
_geom_bond_atom_site_label_1
_geom_bond_atom_site_label_2
_geom_bond_distance
_geom_bond_site_symmetry_2
_ccdc_geom_bond_type
Gd0 N31 2.661 1_654 S
Gd0 N37 2.601 1_655 S
Gd0 O44 2.545 . S
Gd0 O45 2.606 . S
Gd0 O47 2.429 1_655 S
Gd0 O48 2.545 . S
Gd0 O49 2.412 1_554 S
Gd0 O51 2.362 1_655 S
Gd0 O52 2.324 1_554 S
Gd0 C59 2.828 . S
Gd1 N10 2.661 1_556 S
Gd1 N14 2.601 . S
Gd1 O45 2.362 1_456 S
Gd1 O46 2.324 1_556 S
Gd1 O50 2.545 . S
Gd1 O51 2.606 1_556 S
Gd1 O53 2.429 . S
Gd1 O54 2.545 . S
Gd1 O55 2.412 1_556 S
Gd1 C68 2.828 . S
C2 C5 1.418 1_554 S
C2 C7 1.431 1_554 S
C2 C8 1.412 . S
C3 C6 1.437 . S
C3 C7 1.317 . S
C3 H22 0.929 . S
C4 C5 1.423 1_455 S
C4 C6 1.413 1_455 S
C4 N14 1.359 . S
C5 C2 1.418 1_556 S
C5 C4 1.423 1_655 S
C5 N10 1.352 1_656 S
C6 C3 1.437 . S
C6 C4 1.413 1_655 S
C6 C16 1.391 1_655 S
C7 C2 1.431 1_556 S
C7 C3 1.317 . S
C7 H18 0.931 1_556 S
C8 C2 1.412 . S
C8 C9 1.355 . S
C8 H20 0.930 . S
C9 C8 1.355 . S
C9 C11 1.402 . S
C9 H21 0.930 . S
N10 Gd1 2.661 1_554 S
N10 C5 1.352 1_454 S
N10 C11 1.307 1_455 S
C11 C9 1.402 . S
C11 N10 1.307 1_655 S
C11 H12 0.930 1_655 S
H12 C11 0.930 1_455 S
C13 N14 1.334 . S
C13 C15 1.394 . S
C13 H17 0.930 . S
N14 Gd1 2.601 . S
N14 C4 1.359 . S
N14 C13 1.334 . S
C15 C13 1.394 . S
C15 C16 1.359 . S
C15 H27 0.930 . S
C16 C6 1.391 1_455 S
C16 C15 1.359 . S
C16 H28 0.929 1_455 S
H17 C13 0.930 . S
H18 C7 0.931 1_554 S
H19 C36 0.930 . S
H20 C8 0.930 . S
H21 C9 0.930 . S
H22 C3 0.929 . S
H23 C41 0.930 . S
H24 C32 0.930 . S
H25 C33 0.930 . S
H26 C57 0.929 . S
H27 C15 0.930 . S
H28 C16 0.929 1_655 S
H29 C58 0.930 . S
H30 C39 0.931 1_655 S
N31 Gd0 2.661 1_456 S
N31 C35 1.350 1_556 S
N31 C36 1.307 . S
C32 H24 0.930 . S
C32 C33 1.355 . S
C32 C34 1.412 . S
C33 H25 0.930 . S
C33 C32 1.355 . S
C33 C36 1.402 . S
C34 C32 1.412 . S
C34 C35 1.417 1_556 S
C34 C58 1.431 1_556 S
C35 N31 1.350 1_554 S
C35 C34 1.417 1_554 S
C35 C38 1.426 . S
C36 H19 0.930 . S
C36 N31 1.307 . S
C36 C33 1.402 . S
N37 Gd0 2.601 1_455 S
N37 C38 1.359 . S
N37 C41 1.334 1_455 S
C38 C35 1.426 . S
C38 N37 1.359 . S
C38 C42 1.413 . S
C39 H30 0.931 1_455 S
C39 C40 1.357 . S
C39 C41 1.396 1_455 S
C40 C39 1.357 . S
C40 C42 1.391 . S
C40 H43 0.929 . S
C41 H23 0.930 . S
C41 N37 1.334 1_655 S
C41 C39 1.396 1_655 S
C42 C38 1.413 . S
C42 C40 1.391 . S
C42 C57 1.437 . S
H43 C40 0.929 . S
O44 Gd0 2.545 . S
O44 C59 1.258 . S
O45 Gd0 2.606 . S
O45 Gd1 2.362 1_654 S
O45 C56 1.284 . S
O46 Gd1 2.324 1_554 S
O46 C66 1.254 . S
O47 Gd0 2.429 1_455 S
O47 C66 1.268 . S
O48 Gd0 2.545 . S
O48 C56 1.250 . S
O49 Gd0 2.412 1_556 S
O49 C59 1.252 1_556 S
O50 Gd1 2.545 . S
O50 C68 1.258 . S
O51 Gd0 2.362 1_455 S
O51 Gd1 2.606 1_554 S
O51 C67 1.278 1_554 S
O52 Gd0 2.324 1_556 S
O52 C75 1.254 . S
O53 Gd1 2.429 . S
O53 C75 1.268 1_455 S
O54 Gd1 2.545 . S
O54 C67 1.265 . S
O55 Gd1 2.412 1_554 S
O55 C68 1.252 1_554 S
C56 O45 1.284 . S
C56 O48 1.250 . S
C57 H26 0.929 . S
C57 C42 1.437 . S
C57 C58 1.317 . S
C58 H29 0.930 . S
C58 C34 1.431 1_554 S
C58 C57 1.317 . S
C59 Gd0 2.828 . S
C59 O44 1.258 . S
C59 O49 1.252 1_554 S
C59 C60 1.497 . S
C60 C59 1.497 . S
C60 C61 1.395 . S
C60 C62 1.380 1_554 S
C61 C60 1.395 . S
C61 C64 1.398 . S
C61 H76 0.930 . S
C62 C60 1.380 1_556 S
C62 C63 1.393 . S
C62 H77 0.930 . S
C63 C62 1.393 . S
C63 C65 1.356 1_556 S
C64 C61 1.398 . S
C64 C65 1.380 . S
C64 H78 0.930 . S
C65 C63 1.356 1_554 S
C65 C64 1.380 . S
C65 H79 0.930 . S
C66 O46 1.254 . S
C66 O47 1.268 . S
C67 O51 1.278 1_556 S
C67 O54 1.265 . S
C68 Gd1 2.828 . S
C68 O50 1.258 . S
C68 O55 1.252 1_556 S
C68 C69 1.497 . S
C69 C68 1.497 . S
C69 C70 1.395 . S
C69 C71 1.380 1_556 S
C70 C69 1.395 . S
C70 C73 1.398 . S
C70 H80 0.930 . S
C71 C69 1.380 1_554 S
C71 C72 1.391 . S
C71 H81 0.930 . S
C72 C71 1.391 . S
C72 C74 1.387 1_554 S
C73 C70 1.398 . S
C73 C74 1.380 . S
C73 H82 0.930 . S
C74 C72 1.387 1_556 S
C74 C73 1.380 . S
C74 H83 0.930 . S
C75 O52 1.254 . S
C75 O53 1.268 1_655 S
H76 C61 0.930 . S
H77 C62 0.930 . S
H78 C64 0.930 . S
H79 C65 0.930 . S
H80 C70 0.930 . S
H81 C71 0.930 . S
H82 C73 0.930 . S
H83 C74 0.930 . S
Gd84 N115 2.661 1_554 S
Gd84 N121 2.601 . S
Gd84 O128 2.545 . S
Gd84 O129 2.606 . S
Gd84 O131 2.429 . S
Gd84 O132 2.545 . S
Gd84 O133 2.412 1_554 S
Gd84 O135 2.362 . S
Gd84 O136 2.324 1_554 S
Gd84 C143 2.828 . S
Gd85 N94 2.661 1_556 S
Gd85 N98 2.601 . S
Gd85 O129 2.362 1_556 S
Gd85 O130 2.324 1_556 S
Gd85 O134 2.545 . S
Gd85 O135 2.606 1_556 S
Gd85 O137 2.429 . S
Gd85 O138 2.545 . S
Gd85 O139 2.412 1_556 S
Gd85 C152 2.828 . S
C86 C89 1.418 1_554 S
C86 C91 1.431 1_554 S
C86 C92 1.412 . S
C87 C90 1.437 . S
C87 C91 1.317 . S
C87 H106 0.929 . S
C88 C89 1.423 . S
C88 C90 1.413 . S
C88 N98 1.359 . S
C89 C86 1.418 1_556 S
C89 C88 1.423 . S
C89 N94 1.353 1_556 S
C90 C87 1.437 . S
C90 C88 1.413 . S
C90 C100 1.391 . S
C91 C86 1.431 1_556 S
C91 C87 1.317 . S
C91 H102 0.931 1_556 S
C92 C86 1.412 . S
C92 C93 1.355 . S
C92 H104 0.930 . S
C93 C92 1.355 . S
C93 C95 1.402 . S
C93 H105 0.930 . S
N94 Gd85 2.661 1_554 S
N94 C89 1.353 1_554 S
N94 C95 1.307 . S
C95 C93 1.402 . S
C95 N94 1.307 . S
C95 H96 0.930 . S
H96 C95 0.930 . S
C97 N98 1.334 . S
C97 C99 1.394 . S
C97 H101 0.930 . S
N98 Gd85 2.601 . S
N98 C88 1.359 . S
N98 C97 1.334 . S
C99 C97 1.394 . S
C99 C100 1.359 . S
C99 H111 0.930 . S
C100 C90 1.391 . S
C100 C99 1.359 . S
C100 H112 0.929 . S
H101 C97 0.930 . S
H102 C91 0.931 1_554 S
H103 C120 0.930 . S
H104 C92 0.930 . S
H105 C93 0.930 . S
H106 C87 0.929 . S
H107 C125 0.930 . S
H108 C116 0.930 . S
H109 C117 0.930 . S
H110 C141 0.929 . S
H111 C99 0.930 . S
H112 C100 0.929 . S
H113 C142 0.930 . S
H114 C123 0.930 . S
N115 Gd84 2.661 1_556 S
N115 C119 1.350 1_556 S
N115 C120 1.307 . S
C116 H108 0.930 . S
C116 C117 1.355 . S
C116 C118 1.412 . S
C117 H109 0.930 . S
C117 C116 1.355 . S
C117 C120 1.402 . S
C118 C116 1.412 . S
C118 C119 1.417 1_556 S
C118 C142 1.431 1_556 S
C119 N115 1.350 1_554 S
C119 C118 1.417 1_554 S
C119 C122 1.426 . S
C120 H103 0.930 . S
C120 N115 1.307 . S
C120 C117 1.402 . S
N121 Gd84 2.601 . S
N121 C122 1.359 . S
N121 C125 1.334 . S
C122 C119 1.426 . S
C122 N121 1.359 . S
C122 C126 1.413 . S
C123 H114 0.930 . S
C123 C124 1.359 . S
C123 C125 1.394 . S
C124 C123 1.359 . S
C124 C126 1.391 . S
C124 H127 0.929 . S
C125 H107 0.930 . S
C125 N121 1.334 . S
C125 C123 1.394 . S
C126 C122 1.413 . S
C126 C124 1.391 . S
C126 C141 1.437 . S
H127 C124 0.929 . S
O128 Gd84 2.545 . S
O128 C143 1.258 . S
O129 Gd84 2.606 . S
O129 Gd85 2.362 1_554 S
O129 C140 1.284 . S
O130 Gd85 2.324 1_554 S
O130 C150 1.254 . S
O131 Gd84 2.429 . S
O131 C150 1.268 . S
O132 Gd84 2.545 . S
O132 C140 1.250 . S
O133 Gd84 2.412 1_556 S
O133 C143 1.252 1_556 S
O134 Gd85 2.545 . S
O134 C152 1.258 . S
O135 Gd84 2.362 . S
O135 Gd85 2.606 1_554 S
O135 C151 1.278 1_554 S
O136 Gd84 2.324 1_556 S
O136 C159 1.254 . S
O137 Gd85 2.429 . S
O137 C159 1.268 . S
O138 Gd85 2.545 . S
O138 C151 1.265 . S
O139 Gd85 2.412 1_554 S
O139 C152 1.252 1_554 S
C140 O129 1.284 . S
C140 O132 1.250 . S
C141 H110 0.929 . S
C141 C126 1.437 . S
C141 C142 1.317 . S
C142 H113 0.930 . S
C142 C118 1.431 1_554 S
C142 C141 1.317 . S
C143 Gd84 2.828 . S
C143 O128 1.258 . S
C143 O133 1.252 1_554 S
C143 C144 1.497 . S
C144 C143 1.497 . S
C144 C145 1.395 . S
C144 C146 1.380 1_554 S
C145 C144 1.395 . S
C145 C148 1.398 . S
C145 H160 0.930 . S
C146 C144 1.380 1_556 S
C146 C147 1.393 . S
C146 H161 0.930 . S
C147 C146 1.393 . S
C147 C149 1.356 1_556 S
C148 C145 1.398 . S
C148 C149 1.380 . S
C148 H162 0.930 . S
C149 C147 1.356 1_554 S
C149 C148 1.380 . S
C149 H163 0.930 . S
C150 O130 1.254 . S
C150 O131 1.268 . S
C151 O135 1.278 1_556 S
C151 O138 1.265 . S
C152 Gd85 2.828 . S
C152 O134 1.258 . S
C152 O139 1.252 1_556 S
C152 C153 1.497 . S
C153 C152 1.497 . S
C153 C154 1.395 . S
C153 C155 1.380 1_556 S
C154 C153 1.395 . S
C154 C157 1.398 . S
C154 H164 0.930 . S
C155 C153 1.380 1_554 S
C155 C156 1.391 . S
C155 H165 0.930 . S
C156 C155 1.391 . S
C156 C158 1.387 1_554 S
C157 C154 1.398 . S
C157 C158 1.380 . S
C157 H166 0.930 . S
C158 C156 1.387 1_556 S
C158 C157 1.380 . S
C158 H167 0.930 . S
C159 O136 1.254 . S
C159 O137 1.268 . S
H160 C145 0.930 . S
H161 C146 0.930 . S
H162 C148 0.930 . S
H163 C149 0.930 . S
H164 C154 0.930 . S
H165 C155 0.930 . S
H166 C157 0.930 . S
H167 C158 0.930 . S
Gd168 N199 2.661 1_554 S
Gd168 N205 2.601 . S
Gd168 O212 2.545 . S
Gd168 O213 2.606 . S
Gd168 O215 2.429 . S
Gd168 O216 2.545 . S
Gd168 O217 2.412 1_554 S
Gd168 O219 2.362 1_545 S
Gd168 O220 2.324 1_554 S
Gd168 C227 2.828 . S
Gd169 N178 2.661 1_566 S
Gd169 N182 2.602 1_565 S
Gd169 O213 2.362 1_566 S
Gd169 O214 2.324 1_556 S
Gd169 O218 2.545 . S
Gd169 O219 2.606 1_556 S
Gd169 O221 2.429 1_565 S
Gd169 O222 2.545 . S
Gd169 O223 2.412 1_556 S
Gd169 C236 2.828 . S
C170 C173 1.418 1_554 S
C170 C175 1.431 1_554 S
C170 C176 1.412 . S
C171 C174 1.437 . S
C171 C175 1.317 . S
C171 H190 0.929 . S
C172 C173 1.423 . S
C172 C174 1.413 . S
C172 N182 1.359 . S
C173 C170 1.418 1_556 S
C173 C172 1.423 . S
C173 N178 1.352 1_556 S
C174 C171 1.437 . S
C174 C172 1.413 . S
C174 C184 1.391 . S
C175 C170 1.431 1_556 S
C175 C171 1.317 . S
C175 H186 0.931 1_556 S
C176 C170 1.412 . S
C176 C177 1.355 . S
C176 H188 0.930 . S
C177 C176 1.355 . S
C177 C179 1.402 . S
C177 H189 0.930 . S
N178 Gd169 2.661 1_544 S
N178 C173 1.352 1_554 S
N178 C179 1.307 . S
C179 C177 1.402 . S
C179 N178 1.307 . S
C179 H180 0.930 . S
H180 C179 0.930 . S
C181 N182 1.333 1_565 S
C181 C183 1.384 . S
C181 H185 0.930 . S
N182 Gd169 2.602 1_545 S
N182 C172 1.359 . S
N182 C181 1.333 1_545 S
C183 C181 1.384 . S
C183 C184 1.362 1_565 S
C183 H195 0.939 . S
C184 C174 1.391 . S
C184 C183 1.362 1_545 S
C184 H196 0.929 . S
H185 C181 0.930 . S
H186 C175 0.931 1_554 S
H187 C204 0.930 1_545 S
H188 C176 0.930 . S
H189 C177 0.930 . S
H190 C171 0.929 . S
H191 C209 0.930 . S
H192 C200 0.930 . S
H193 C201 0.930 . S
H194 C225 0.929 . S
H195 C183 0.939 . S
H196 C184 0.929 . S
H197 C226 0.930 . S
H198 C207 0.930 . S
N199 Gd168 2.661 1_556 S
N199 C203 1.350 1_546 S
N199 C204 1.307 1_545 S
C200 H192 0.930 . S
C200 C201 1.355 . S
C200 C202 1.412 . S
C201 H193 0.930 . S
C201 C200 1.355 . S
C201 C204 1.402 . S
C202 C200 1.412 . S
C202 C203 1.417 1_556 S
C202 C226 1.431 1_556 S
C203 N199 1.350 1_564 S
C203 C202 1.417 1_554 S
C203 C206 1.422 1_565 S
C204 H187 0.930 1_565 S
C204 N199 1.307 1_565 S
C204 C201 1.402 . S
N205 Gd168 2.601 . S
N205 C206 1.357 . S
N205 C209 1.334 . S
C206 C203 1.422 1_545 S
C206 N205 1.357 . S
C206 C210 1.420 1_545 S
C207 H198 0.930 . S
C207 C208 1.358 . S
C207 C209 1.394 . S
C208 C207 1.358 . S
C208 C210 1.386 1_545 S
C208 H211 0.937 1_545 S
C209 H191 0.930 . S
C209 N205 1.334 . S
C209 C207 1.394 . S
C210 C206 1.420 1_565 S
C210 C208 1.386 1_565 S
C210 C225 1.437 . S
H211 C208 0.937 1_565 S
O212 Gd168 2.545 . S
O212 C227 1.258 . S
O213 Gd168 2.606 . S
O213 Gd169 2.362 1_544 S
O213 C224 1.284 . S
O214 Gd169 2.324 1_554 S
O214 C234 1.254 . S
O215 Gd168 2.429 . S
O215 C234 1.268 1_545 S
O216 Gd168 2.545 . S
O216 C224 1.250 . S
O217 Gd168 2.412 1_556 S
O217 C227 1.252 1_556 S
O218 Gd169 2.545 . S
O218 C236 1.258 . S
O219 Gd168 2.362 1_565 S
O219 Gd169 2.606 1_554 S
O219 C235 1.278 1_554 S
O220 Gd168 2.324 1_556 S
O220 C243 1.254 . S
O221 Gd169 2.429 1_545 S
O221 C243 1.268 . S
O222 Gd169 2.545 . S
O222 C235 1.265 . S
O223 Gd169 2.412 1_554 S
O223 C236 1.252 1_554 S
C224 O213 1.284 . S
C224 O216 1.250 . S
C225 H194 0.929 . S
C225 C210 1.437 . S
C225 C226 1.317 . S
C226 H197 0.930 . S
C226 C202 1.431 1_554 S
C226 C225 1.317 . S
C227 Gd168 2.828 . S
C227 O212 1.258 . S
C227 O217 1.252 1_554 S
C227 C228 1.497 . S
C228 C227 1.497 . S
C228 C229 1.395 . S
C228 C230 1.380 1_554 S
C229 C228 1.395 . S
C229 C232 1.398 . S
C229 H244 0.930 . S
C230 C228 1.380 1_556 S
C230 C231 1.393 . S
C230 H245 0.930 . S
C231 C230 1.393 . S
C231 C233 1.356 1_556 S
C232 C229 1.398 . S
C232 C233 1.380 . S
C232 H246 0.930 . S
C233 C231 1.356 1_554 S
C233 C232 1.380 . S
C233 H247 0.930 . S
C234 O214 1.254 . S
C234 O215 1.268 1_565 S
C235 O219 1.278 1_556 S
C235 O222 1.265 . S
C236 Gd169 2.828 . S
C236 O218 1.258 . S
C236 O223 1.252 1_556 S
C236 C237 1.497 . S
C237 C236 1.497 . S
C237 C238 1.395 . S
C237 C239 1.380 1_556 S
C238 C237 1.395 . S
C238 C241 1.398 . S
C238 H248 0.930 . S
C239 C237 1.380 1_554 S
C239 C240 1.391 . S
C239 H249 0.930 . S
C240 C239 1.391 . S
C240 C242 1.387 1_554 S
C241 C238 1.398 . S
C241 C242 1.380 . S
C241 H250 0.930 . S
C242 C240 1.387 1_556 S
C242 C241 1.380 . S
C242 H251 0.930 . S
C243 O220 1.254 . S
C243 O221 1.268 . S
H244 C229 0.930 . S
H245 C230 0.930 . S
H246 C232 0.930 . S
H247 C233 0.930 . S
H248 C238 0.930 . S
H249 C239 0.930 . S
H250 C241 0.930 . S
H251 C242 0.930 . S
Gd252 N283 2.661 . S
Gd252 N289 2.601 . S
Gd252 O296 2.545 . S
Gd252 O297 2.606 . S
Gd252 O299 2.429 . S
Gd252 O300 2.545 . S
Gd252 O301 2.412 . S
Gd252 O303 2.362 . S
Gd252 O304 2.324 . S
Gd252 C311 2.828 . S
Gd253 N262 2.661 . S
Gd253 N266 2.601 . S
Gd253 O297 2.362 . S
Gd253 O298 2.324 . S
Gd253 O302 2.545 . S
Gd253 O303 2.606 . S
Gd253 O305 2.429 . S
Gd253 O306 2.545 . S
Gd253 O307 2.412 . S
Gd253 C320 2.828 . S
C254 C257 1.417 . S
C254 C259 1.431 . S
C254 C260 1.412 . S
C255 C258 1.437 . S
C255 C259 1.317 . S
C255 H274 0.929 . S
C256 C257 1.426 . S
C256 C258 1.413 . S
C256 N266 1.359 . S
C257 C254 1.417 . S
C257 C256 1.426 . S
C257 N262 1.350 . S
C258 C255 1.437 . S
C258 C256 1.413 . S
C258 C268 1.391 . S
C259 C254 1.431 . S
C259 C255 1.317 . S
C259 H270 0.930 . S
C260 C254 1.412 . S
C260 C261 1.355 . S
C260 H272 0.930 . S
C261 C260 1.355 . S
C261 C263 1.402 . S
C261 H273 0.930 . S
N262 Gd253 2.661 . S
N262 C257 1.350 . S
N262 C263 1.307 . S
C263 C261 1.402 . S
C263 N262 1.307 . S
C263 H264 0.930 . S
H264 C263 0.930 . S
C265 N266 1.334 . S
C265 C267 1.394 . S
C265 H269 0.930 . S
N266 Gd253 2.601 . S
N266 C256 1.359 . S
N266 C265 1.334 . S
C267 C265 1.394 . S
C267 C268 1.359 . S
C267 H279 0.930 . S
C268 C258 1.391 . S
C268 C267 1.359 . S
C268 H280 0.929 . S
H269 C265 0.930 . S
H270 C259 0.930 . S
H271 C288 0.930 . S
H272 C260 0.930 . S
H273 C261 0.930 . S
H274 C255 0.929 . S
H275 C293 0.930 . S
H276 C284 0.930 . S
H277 C285 0.930 . S
H278 C309 0.929 . S
H279 C267 0.930 . S
H280 C268 0.929 . S
H281 C310 0.930 . S
H282 C291 0.930 . S
N283 Gd252 2.661 . S
N283 C287 1.350 . S
N283 C288 1.307 . S
C284 H276 0.930 . S
C284 C285 1.355 . S
C284 C286 1.412 . S
C285 H277 0.930 . S
C285 C284 1.355 . S
C285 C288 1.402 . S
C286 C284 1.412 . S
C286 C287 1.417 . S
C286 C310 1.431 . S
C287 N283 1.350 . S
C287 C286 1.417 . S
C287 C290 1.426 . S
C288 H271 0.930 . S
C288 N283 1.307 . S
C288 C285 1.402 . S
N289 Gd252 2.601 . S
N289 C290 1.359 . S
N289 C293 1.334 . S
C290 C287 1.426 . S
C290 N289 1.359 . S
C290 C294 1.413 . S
C291 H282 0.930 . S
C291 C292 1.359 . S
C291 C293 1.394 . S
C292 C291 1.359 . S
C292 C294 1.391 . S
C292 H295 0.929 . S
C293 H275 0.930 . S
C293 N289 1.334 . S
C293 C291 1.394 . S
C294 C290 1.413 . S
C294 C292 1.391 . S
C294 C309 1.437 . S
H295 C292 0.929 . S
O296 Gd252 2.545 . S
O296 C311 1.258 . S
O297 Gd252 2.606 . S
O297 Gd253 2.362 . S
O297 C308 1.284 . S
O298 Gd253 2.324 . S
O298 C318 1.254 . S
O299 Gd252 2.429 . S
O299 C318 1.268 . S
O300 Gd252 2.545 . S
O300 C308 1.250 . S
O301 Gd252 2.412 . S
O301 C311 1.252 . S
O302 Gd253 2.545 . S
O302 C320 1.258 . S
O303 Gd252 2.362 . S
O303 Gd253 2.606 . S
O303 C319 1.284 . S
O304 Gd252 2.324 . S
O304 C327 1.254 . S
O305 Gd253 2.429 . S
O305 C327 1.268 . S
O306 Gd253 2.545 . S
O306 C319 1.250 . S
O307 Gd253 2.412 . S
O307 C320 1.252 . S
C308 O297 1.284 . S
C308 O300 1.250 . S
C309 H278 0.929 . S
C309 C294 1.437 . S
C309 C310 1.317 . S
C310 H281 0.930 . S
C310 C286 1.431 . S
C310 C309 1.317 . S
C311 Gd252 2.828 . S
C311 O296 1.258 . S
C311 O301 1.252 . S
C311 C312 1.497 . S
C312 C311 1.497 . S
C312 C313 1.395 . S
C312 C314 1.380 . S
C313 C312 1.395 . S
C313 C316 1.398 . S
C313 H328 0.930 . S
C314 C312 1.380 . S
C314 C315 1.391 . S
C314 H329 0.930 . S
C315 C314 1.391 . S
C315 C317 1.387 . S
C316 C313 1.398 . S
C316 C317 1.380 . S
C316 H330 0.930 . S
C317 C315 1.387 . S
C317 C316 1.380 . S
C317 H331 0.930 . S
C318 O298 1.254 . S
C318 O299 1.268 . S
C319 O303 1.284 . S
C319 O306 1.250 . S
C320 Gd253 2.828 . S
C320 O302 1.258 . S
C320 O307 1.252 . S
C320 C321 1.497 . S
C321 C320 1.497 . S
C321 C322 1.395 . S
C321 C323 1.380 . S
C322 C321 1.395 . S
C322 C325 1.398 . S
C322 H332 0.930 . S
C323 C321 1.380 . S
C323 C324 1.391 . S
C323 H333 0.930 . S
C324 C323 1.391 . S
C324 C326 1.387 1_565 S
C325 C322 1.398 . S
C325 C326 1.380 1_565 S
C325 H334 0.930 1_565 S
C326 C324 1.387 1_545 S
C326 C325 1.380 1_545 S
C326 H335 0.930 . S
C327 O304 1.254 . S
C327 O305 1.268 . S
H328 C313 0.930 . S
H329 C314 0.930 . S
H330 C316 0.930 . S
H331 C317 0.930 . S
H332 C322 0.930 . S
H333 C323 0.930 . S
H334 C325 0.930 1_545 S
H335 C326 0.930 . S
Gd336 N367 2.661 . S
Gd336 N373 2.601 . S
Gd336 O380 2.545 . S
Gd336 O381 2.606 . S
Gd336 O383 2.429 . S
Gd336 O384 2.545 . S
Gd336 O385 2.412 . S
Gd336 O387 2.362 . S
Gd336 O388 2.324 . S
Gd336 C395 2.828 . S
Gd337 N346 2.661 . S
Gd337 N350 2.601 . S
Gd337 O381 2.362 . S
Gd337 O382 2.324 . S
Gd337 O386 2.545 . S
Gd337 O387 2.606 . S
Gd337 O389 2.429 . S
Gd337 O390 2.545 . S
Gd337 O391 2.412 . S
Gd337 C404 2.828 . S
C338 C341 1.417 . S
C338 C343 1.431 . S
C338 C344 1.412 . S
C339 C342 1.437 . S
C339 C343 1.317 . S
C339 H358 0.929 . S
C340 C341 1.426 . S
C340 C342 1.413 . S
C340 N350 1.359 . S
C341 C338 1.417 . S
C341 C340 1.426 . S
C341 N346 1.350 . S
C342 C339 1.437 . S
C342 C340 1.413 . S
C342 C352 1.391 . S
C343 C338 1.431 . S
C343 C339 1.317 . S
C343 H354 0.930 . S
C344 C338 1.412 . S
C344 C345 1.355 . S
C344 H356 0.930 . S
C345 C344 1.355 . S
C345 C347 1.402 . S
C345 H357 0.930 . S
N346 Gd337 2.661 . S
N346 C341 1.350 . S
N346 C347 1.307 . S
C347 C345 1.402 . S
C347 N346 1.307 . S
C347 H348 0.930 . S
H348 C347 0.930 . S
C349 N350 1.334 . S
C349 C351 1.394 . S
C349 H353 0.930 . S
N350 Gd337 2.601 . S
N350 C340 1.359 . S
N350 C349 1.334 . S
C351 C349 1.394 . S
C351 C352 1.359 . S
C351 H363 0.930 . S
C352 C342 1.391 . S
C352 C351 1.359 . S
C352 H364 0.929 . S
H353 C349 0.930 . S
H354 C343 0.930 . S
H355 C372 0.930 . S
H356 C344 0.930 . S
H357 C345 0.930 . S
H358 C339 0.929 . S
H359 C377 0.930 . S
H360 C368 0.930 . S
H361 C369 0.930 . S
H362 C393 0.929 . S
H363 C351 0.930 . S
H364 C352 0.929 . S
H365 C394 0.930 . S
H366 C375 0.930 . S
N367 Gd336 2.661 . S
N367 C371 1.350 . S
N367 C372 1.307 . S
C368 H360 0.930 . S
C368 C369 1.355 1_545 S
C368 C370 1.412 . S
C369 H361 0.930 . S
C369 C368 1.355 1_565 S
C369 C372 1.402 . S
C370 C368 1.412 . S
C370 C371 1.417 1_545 S
C370 C394 1.431 . S
C371 N367 1.350 . S
C371 C370 1.417 1_565 S
C371 C374 1.426 . S
C372 H355 0.930 . S
C372 N367 1.307 . S
C372 C369 1.402 . S
N373 Gd336 2.601 . S
N373 C374 1.359 . S
N373 C377 1.334 . S
C374 C371 1.426 . S
C374 N373 1.359 . S
C374 C378 1.413 . S
C375 H366 0.930 . S
C375 C376 1.359 . S
C375 C377 1.394 . S
C376 C375 1.359 . S
C376 C378 1.391 . S
C376 H379 0.929 1_565 S
C377 H359 0.930 . S
C377 N373 1.334 . S
C377 C375 1.394 . S
C378 C374 1.413 . S
C378 C376 1.391 . S
C378 C393 1.437 1_565 S
H379 C376 0.929 1_545 S
O380 Gd336 2.545 . S
O380 C395 1.258 . S
O381 Gd336 2.606 . S
O381 Gd337 2.362 . S
O381 C392 1.284 . S
O382 Gd337 2.324 . S
O382 C402 1.254 . S
O383 Gd336 2.429 . S
O383 C402 1.268 . S
O384 Gd336 2.545 . S
O384 C392 1.250 . S
O385 Gd336 2.412 . S
O385 C395 1.252 . S
O386 Gd337 2.545 . S
O386 C404 1.258 . S
O387 Gd336 2.362 . S
O387 Gd337 2.606 . S
O387 C403 1.284 . S
O388 Gd336 2.324 . S
O388 C411 1.254 . S
O389 Gd337 2.429 . S
O389 C411 1.268 . S
O390 Gd337 2.545 . S
O390 C403 1.250 . S
O391 Gd337 2.412 . S
O391 C404 1.252 . S
C392 O381 1.284 . S
C392 O384 1.250 . S
C393 H362 0.929 . S
C393 C378 1.437 1_545 S
C393 C394 1.317 . S
C394 H365 0.930 . S
C394 C370 1.431 . S
C394 C393 1.317 . S
C395 Gd336 2.828 . S
C395 O380 1.258 . S
C395 O385 1.252 . S
C395 C396 1.497 . S
C396 C395 1.497 . S
C396 C397 1.395 . S
C396 C398 1.380 . S
C397 C396 1.395 . S
C397 C400 1.398 . S
C397 H412 0.930 . S
C398 C396 1.380 . S
C398 C399 1.391 . S
C398 H413 0.930 . S
C399 C398 1.391 . S
C399 C401 1.387 . S
C400 C397 1.398 . S
C400 C401 1.380 . S
C400 H414 0.930 . S
C401 C399 1.387 . S
C401 C400 1.380 . S
C401 H415 0.930 . S
C402 O382 1.254 . S
C402 O383 1.268 . S
C403 O387 1.284 . S
C403 O390 1.250 . S
C404 Gd337 2.828 . S
C404 O386 1.258 . S
C404 O391 1.252 . S
C404 C405 1.497 . S
C405 C404 1.497 . S
C405 C406 1.395 . S
C405 C407 1.380 . S
C406 C405 1.395 . S
C406 C409 1.398 . S
C406 H416 0.930 . S
C407 C405 1.380 . S
C407 C408 1.391 . S
C407 H417 0.930 . S
C408 C407 1.391 . S
C408 C410 1.387 . S
C409 C406 1.398 . S
C409 C410 1.380 . S
C409 H418 0.930 . S
C410 C408 1.387 . S
C410 C409 1.380 . S
C410 H419 0.930 1_455 S
C411 O388 1.254 . S
C411 O389 1.268 . S
H412 C397 0.930 . S
H413 C398 0.930 . S
H414 C400 0.930 . S
H415 C401 0.930 . S
H416 C406 0.930 . S
H417 C407 0.930 . S
H418 C409 0.930 . S
H419 C410 0.930 1_655 S
Gd420 N451 2.661 . S
Gd420 N457 2.601 . S
Gd420 O464 2.545 . S
Gd420 O465 2.606 . S
Gd420 O467 2.429 . S
Gd420 O468 2.545 . S
Gd420 O469 2.412 . S
Gd420 O471 2.362 . S
Gd420 O472 2.324 . S
Gd420 C479 2.828 . S
Gd421 N430 2.661 . S
Gd421 N434 2.601 . S
Gd421 O465 2.362 . S
Gd421 O466 2.324 . S
Gd421 O470 2.545 . S
Gd421 O471 2.606 . S
Gd421 O473 2.429 . S
Gd421 O474 2.545 . S
Gd421 O475 2.412 . S
Gd421 C488 2.828 . S
C422 C425 1.417 . S
C422 C427 1.431 . S
C422 C428 1.412 . S
C423 C426 1.437 . S
C423 C427 1.317 . S
C423 H442 0.929 . S
C424 C425 1.426 . S
C424 C426 1.413 . S
C424 N434 1.359 . S
C425 C422 1.417 . S
C425 C424 1.426 . S
C425 N430 1.350 . S
C426 C423 1.437 . S
C426 C424 1.413 . S
C426 C436 1.391 . S
C427 C422 1.431 . S
C427 C423 1.317 . S
C427 H438 0.930 . S
C428 C422 1.412 . S
C428 C429 1.355 . S
C428 H440 0.930 . S
C429 C428 1.355 . S
C429 C431 1.402 . S
C429 H441 0.930 . S
N430 Gd421 2.661 . S
N430 C425 1.350 . S
N430 C431 1.307 . S
C431 C429 1.402 . S
C431 N430 1.307 . S
C431 H432 0.930 . S
H432 C431 0.930 . S
C433 N434 1.334 . S
C433 C435 1.394 . S
C433 H437 0.930 . S
N434 Gd421 2.601 . S
N434 C424 1.359 . S
N434 C433 1.334 . S
C435 C433 1.394 . S
C435 C436 1.359 . S
C435 H447 0.930 . S
C436 C426 1.391 . S
C436 C435 1.359 . S
C436 H448 0.929 . S
H437 C433 0.930 . S
H438 C427 0.930 . S
H439 C456 0.930 . S
H440 C428 0.930 . S
H441 C429 0.930 . S
H442 C423 0.929 . S
H443 C461 0.930 . S
H444 C452 0.930 1_655 S
H445 C453 0.930 . S
H446 C477 0.929 . S
H447 C435 0.930 . S
H448 C436 0.929 . S
H449 C478 0.930 . S
H450 C459 0.930 . S
N451 Gd420 2.661 . S
N451 C455 1.350 . S
N451 C456 1.307 . S
C452 H444 0.930 1_455 S
C452 C453 1.355 . S
C452 C454 1.412 . S
C453 H445 0.930 . S
C453 C452 1.355 . S
C453 C456 1.402 . S
C454 C452 1.412 . S
C454 C455 1.417 . S
C454 C478 1.431 1_455 S
C455 N451 1.350 . S
C455 C454 1.417 . S
C455 C458 1.426 . S
C456 H439 0.930 . S
C456 N451 1.307 . S
C456 C453 1.402 . S
N457 Gd420 2.601 . S
N457 C458 1.359 . S
N457 C461 1.334 . S
C458 C455 1.426 . S
C458 N457 1.359 . S
C458 C462 1.413 . S
C459 H450 0.930 . S
C459 C460 1.359 . S
C459 C461 1.394 . S
C460 C459 1.359 . S
C460 C462 1.391 . S
C460 H463 0.929 . S
C461 H443 0.930 . S
C461 N457 1.334 . S
C461 C459 1.394 . S
C462 C458 1.413 . S
C462 C460 1.391 . S
C462 C477 1.437 1_455 S
H463 C460 0.929 . S
O464 Gd420 2.545 . S
O464 C479 1.258 . S
O465 Gd420 2.606 . S
O465 Gd421 2.362 . S
O465 C476 1.284 . S
O466 Gd421 2.324 . S
O466 C486 1.254 . S
O467 Gd420 2.429 . S
O467 C486 1.268 . S
O468 Gd420 2.545 . S
O468 C476 1.250 . S
O469 Gd420 2.412 . S
O469 C479 1.252 . S
O470 Gd421 2.545 . S
O470 C488 1.258 . S
O471 Gd420 2.362 . S
O471 Gd421 2.606 . S
O471 C487 1.284 . S
O472 Gd420 2.324 . S
O472 C495 1.254 . S
O473 Gd421 2.429 . S
O473 C495 1.268 . S
O474 Gd421 2.545 . S
O474 C487 1.250 . S
O475 Gd421 2.412 . S
O475 C488 1.252 . S
C476 O465 1.284 . S
C476 O468 1.250 . S
C477 H446 0.929 . S
C477 C462 1.437 1_655 S
C477 C478 1.317 . S
C478 H449 0.930 . S
C478 C454 1.431 1_655 S
C478 C477 1.317 . S
C479 Gd420 2.828 . S
C479 O464 1.258 . S
C479 O469 1.252 . S
C479 C480 1.497 . S
C480 C479 1.497 . S
C480 C481 1.395 . S
C480 C482 1.380 . S
C481 C480 1.395 . S
C481 C484 1.398 . S
C481 H496 0.930 . S
C482 C480 1.380 . S
C482 C483 1.391 . S
C482 H497 0.930 . S
C483 C482 1.391 . S
C483 C485 1.387 . S
C484 C481 1.398 . S
C484 C485 1.380 . S
C484 H498 0.930 . S
C485 C483 1.387 . S
C485 C484 1.380 . S
C485 H499 0.930 . S
C486 O466 1.254 . S
C486 O467 1.268 . S
C487 O471 1.284 . S
C487 O474 1.250 . S
C488 Gd421 2.828 . S
C488 O470 1.258 . S
C488 O475 1.252 . S
C488 C489 1.497 . S
C489 C488 1.497 . S
C489 C490 1.395 . S
C489 C491 1.380 . S
C490 C489 1.395 . S
C490 C493 1.398 . S
C490 H500 0.930 . S
C491 C489 1.380 . S
C491 C492 1.391 . S
C491 H501 0.930 . S
C492 C491 1.391 . S
C492 C494 1.387 . S
C493 C490 1.398 . S
C493 C494 1.380 . S
C493 H502 0.930 . S
C494 C492 1.387 . S
C494 C493 1.380 . S
C494 H503 0.930 . S
C495 O472 1.254 . S
C495 O473 1.268 . S
H496 C481 0.930 . S
H497 C482 0.930 . S
H498 C484 0.930 . S
H499 C485 0.930 . S
H500 C490 0.930 . S
H501 C491 0.930 . S
H502 C493 0.930 . S
H503 C494 0.930 . S
Gd504 N535 2.661 . S
Gd504 N541 2.601 . S
Gd504 O548 2.545 . S
Gd504 O549 2.606 . S
Gd504 O551 2.429 . S
Gd504 O552 2.545 . S
Gd504 O553 2.412 . S
Gd504 O555 2.362 . S
Gd504 O556 2.324 . S
Gd504 C563 2.828 . S
Gd505 N514 2.661 . S
Gd505 N518 2.601 . S
Gd505 O549 2.362 . S
Gd505 O550 2.324 . S
Gd505 O554 2.545 . S
Gd505 O555 2.606 . S
Gd505 O557 2.429 . S
Gd505 O558 2.545 . S
Gd505 O559 2.412 . S
Gd505 C572 2.828 . S
C506 C509 1.417 . S
C506 C511 1.431 . S
C506 C512 1.412 . S
C507 C510 1.437 . S
C507 C511 1.317 . S
C507 H526 0.929 . S
C508 C509 1.426 . S
C508 C510 1.413 . S
C508 N518 1.359 . S
C509 C506 1.417 . S
C509 C508 1.426 . S
C509 N514 1.350 . S
C510 C507 1.437 . S
C510 C508 1.413 . S
C510 C520 1.391 . S
C511 C506 1.431 . S
C511 C507 1.317 . S
C511 H522 0.930 . S
C512 C506 1.412 . S
C512 C513 1.355 . S
C512 H524 0.930 . S
C513 C512 1.355 . S
C513 C515 1.402 . S
C513 H525 0.930 . S
N514 Gd505 2.661 . S
N514 C509 1.350 . S
N514 C515 1.307 . S
C515 C513 1.402 . S
C515 N514 1.307 . S
C515 H516 0.930 . S
H516 C515 0.930 . S
C517 N518 1.334 . S
C517 C519 1.394 . S
C517 H521 0.930 . S
N518 Gd505 2.601 . S
N518 C508 1.359 . S
N518 C517 1.334 . S
C519 C517 1.394 . S
C519 C520 1.359 . S
C519 H531 0.930 . S
C520 C510 1.391 . S
C520 C519 1.359 . S
C520 H532 0.929 . S
H521 C517 0.930 . S
H522 C511 0.930 . S
H523 C540 0.930 . S
H524 C512 0.930 . S
H525 C513 0.930 . S
H526 C507 0.929 . S
H527 C545 0.930 . S
H528 C536 0.930 . S
H529 C537 0.930 . S
H530 C561 0.929 1_565 S
H531 C519 0.930 . S
H532 C520 0.929 . S
H533 C562 0.930 . S
H534 C543 0.930 . S
N535 Gd504 2.661 . S
N535 C539 1.350 . S
N535 C540 1.307 . S
C536 H528 0.930 . S
C536 C537 1.355 . S
C536 C538 1.412 . S
C537 H529 0.930 . S
C537 C536 1.355 . S
C537 C540 1.402 . S
C538 C536 1.412 . S
C538 C539 1.417 . S
C538 C562 1.431 . S
C539 N535 1.350 . S
C539 C538 1.417 . S
C539 C542 1.426 . S
C540 H523 0.930 . S
C540 N535 1.307 . S
C540 C537 1.402 . S
N541 Gd504 2.601 . S
N541 C542 1.359 . S
N541 C545 1.334 . S
C542 C539 1.426 . S
C542 N541 1.359 . S
C542 C546 1.413 . S
C543 H534 0.930 . S
C543 C544 1.359 . S
C543 C545 1.394 . S
C544 C543 1.359 . S
C544 C546 1.391 . S
C544 H547 0.929 . S
C545 H527 0.930 . S
C545 N541 1.334 . S
C545 C543 1.394 . S
C546 C542 1.413 . S
C546 C544 1.391 . S
C546 C561 1.437 . S
H547 C544 0.929 . S
O548 Gd504 2.545 . S
O548 C563 1.258 . S
O549 Gd504 2.606 . S
O549 Gd505 2.362 . S
O549 C560 1.284 . S
O550 Gd505 2.324 . S
O550 C570 1.254 . S
O551 Gd504 2.429 . S
O551 C570 1.268 . S
O552 Gd504 2.545 . S
O552 C560 1.250 . S
O553 Gd504 2.412 . S
O553 C563 1.252 . S
O554 Gd505 2.545 . S
O554 C572 1.258 . S
O555 Gd504 2.362 . S
O555 Gd505 2.606 . S
O555 C571 1.284 . S
O556 Gd504 2.324 . S
O556 C579 1.254 . S
O557 Gd505 2.429 . S
O557 C579 1.268 . S
O558 Gd505 2.545 . S
O558 C571 1.250 . S
O559 Gd505 2.412 . S
O559 C572 1.252 . S
C560 O549 1.284 . S
C560 O552 1.250 . S
C561 H530 0.929 1_545 S
C561 C546 1.437 . S
C561 C562 1.317 . S
C562 H533 0.930 . S
C562 C538 1.431 . S
C562 C561 1.317 . S
C563 Gd504 2.828 . S
C563 O548 1.258 . S
C563 O553 1.252 . S
C563 C564 1.497 . S
C564 C563 1.497 . S
C564 C565 1.395 1_545 S
C564 C566 1.380 1_545 S
C565 C564 1.395 1_565 S
C565 C568 1.398 . S
C565 H580 0.930 . S
C566 C564 1.380 1_565 S
C566 C567 1.391 . S
C566 H581 0.930 1_565 S
C567 C566 1.391 . S
C567 C569 1.387 . S
C568 C565 1.398 . S
C568 C569 1.380 . S
C568 H582 0.930 . S
C569 C567 1.387 . S
C569 C568 1.380 . S
C569 H583 0.930 . S
C570 O550 1.254 . S
C570 O551 1.268 . S
C571 O555 1.284 . S
C571 O558 1.250 . S
C572 Gd505 2.828 . S
C572 O554 1.258 . S
C572 O559 1.252 . S
C572 C573 1.497 . S
C573 C572 1.497 . S
C573 C574 1.395 . S
C573 C575 1.380 . S
C574 C573 1.395 . S
C574 C577 1.398 . S
C574 H584 0.930 . S
C575 C573 1.380 . S
C575 C576 1.391 . S
C575 H585 0.930 . S
C576 C575 1.391 . S
C576 C578 1.387 . S
C577 C574 1.398 . S
C577 C578 1.380 . S
C577 H586 0.930 . S
C578 C576 1.387 . S
C578 C577 1.380 . S
C578 H587 0.930 . S
C579 O556 1.254 . S
C579 O557 1.268 . S
H580 C565 0.930 . S
H581 C566 0.930 1_545 S
H582 C568 0.930 . S
H583 C569 0.930 . S
H584 C574 0.930 . S
H585 C575 0.930 . S
H586 C577 0.930 . S
H587 C578 0.930 . S
Gd588 N619 2.661 . S
Gd588 N625 2.601 . S
Gd588 O632 2.545 . S
Gd588 O633 2.606 . S
Gd588 O635 2.429 . S
Gd588 O636 2.545 . S
Gd588 O637 2.412 . S
Gd588 O639 2.362 . S
Gd588 O640 2.324 . S
Gd588 C647 2.828 . S
Gd589 N598 2.661 . S
Gd589 N602 2.601 . S
Gd589 O633 2.362 . S
Gd589 O634 2.324 . S
Gd589 O638 2.545 . S
Gd589 O639 2.606 . S
Gd589 O641 2.429 . S
Gd589 O642 2.545 . S
Gd589 O643 2.412 . S
Gd589 C656 2.828 . S
C590 C593 1.417 . S
C590 C595 1.431 . S
C590 C596 1.412 . S
C591 C594 1.437 . S
C591 C595 1.317 . S
C591 H610 0.929 . S
C592 C593 1.426 . S
C592 C594 1.413 . S
C592 N602 1.359 . S
C593 C590 1.417 . S
C593 C592 1.426 . S
C593 N598 1.350 . S
C594 C591 1.437 . S
C594 C592 1.413 . S
C594 C604 1.391 . S
C595 C590 1.431 . S
C595 C591 1.317 . S
C595 H606 0.930 . S
C596 C590 1.412 . S
C596 C597 1.355 . S
C596 H608 0.930 . S
C597 C596 1.355 . S
C597 C599 1.402 . S
C597 H609 0.930 . S
N598 Gd589 2.661 . S
N598 C593 1.350 . S
N598 C599 1.307 . S
C599 C597 1.402 . S
C599 N598 1.307 . S
C599 H600 0.930 . S
H600 C599 0.930 . S
C601 N602 1.334 . S
C601 C603 1.394 . S
C601 H605 0.930 . S
N602 Gd589 2.601 . S
N602 C592 1.359 . S
N602 C601 1.334 . S
C603 C601 1.394 . S
C603 C604 1.359 . S
C603 H615 0.930 . S
C604 C594 1.391 . S
C604 C603 1.359 . S
C604 H616 0.929 . S
H605 C601 0.930 . S
H606 C595 0.930 . S
H607 C624 0.930 . S
H608 C596 0.930 . S
H609 C597 0.930 . S
H610 C591 0.929 . S
H611 C629 0.930 . S
H612 C620 0.930 . S
H613 C621 0.930 . S
H614 C645 0.929 . S
H615 C603 0.930 . S
H616 C604 0.929 . S
H617 C646 0.930 . S
H618 C627 0.930 . S
N619 Gd588 2.661 . S
N619 C623 1.350 . S
N619 C624 1.307 . S
C620 H612 0.930 . S
C620 C621 1.355 . S
C620 C622 1.412 . S
C621 H613 0.930 . S
C621 C620 1.355 . S
C621 C624 1.402 . S
C622 C620 1.412 . S
C622 C623 1.417 . S
C622 C646 1.431 1_655 S
C623 N619 1.350 . S
C623 C622 1.417 . S
C623 C626 1.426 . S
C624 H607 0.930 . S
C624 N619 1.307 . S
C624 C621 1.402 . S
N625 Gd588 2.601 . S
N625 C626 1.359 . S
N625 C629 1.334 . S
C626 C623 1.426 . S
C626 N625 1.359 . S
C626 C630 1.413 . S
C627 H618 0.930 . S
C627 C628 1.359 . S
C627 C629 1.394 . S
C628 C627 1.359 . S
C628 C630 1.391 . S
C628 H631 0.929 1_655 S
C629 H611 0.930 . S
C629 N625 1.334 . S
C629 C627 1.394 . S
C630 C626 1.413 . S
C630 C628 1.391 . S
C630 C645 1.437 1_655 S
H631 C628 0.929 1_455 S
O632 Gd588 2.545 . S
O632 C647 1.258 . S
O633 Gd588 2.606 . S
O633 Gd589 2.362 . S
O633 C644 1.284 . S
O634 Gd589 2.324 . S
O634 C654 1.254 . S
O635 Gd588 2.429 . S
O635 C654 1.268 . S
O636 Gd588 2.545 . S
O636 C644 1.250 . S
O637 Gd588 2.412 . S
O637 C647 1.252 . S
O638 Gd589 2.545 . S
O638 C656 1.258 . S
O639 Gd588 2.362 . S
O639 Gd589 2.606 . S
O639 C655 1.284 . S
O640 Gd588 2.324 . S
O640 C663 1.254 . S
O641 Gd589 2.429 . S
O641 C663 1.268 . S
O642 Gd589 2.545 . S
O642 C655 1.250 . S
O643 Gd589 2.412 . S
O643 C656 1.252 . S
C644 O633 1.284 . S
C644 O636 1.250 . S
C645 H614 0.929 . S
C645 C630 1.437 1_455 S
C645 C646 1.317 . S
C646 H617 0.930 . S
C646 C622 1.431 1_455 S
C646 C645 1.317 . S
C647 Gd588 2.828 . S
C647 O632 1.258 . S
C647 O637 1.252 . S
C647 C648 1.497 1_655 S
C648 C647 1.497 1_455 S
C648 C649 1.395 . S
C648 C650 1.380 . S
C649 C648 1.395 . S
C649 C652 1.398 . S
C649 H664 0.930 . S
C650 C648 1.380 . S
C650 C651 1.391 . S
C650 H665 0.930 . S
C651 C650 1.391 . S
C651 C653 1.387 . S
C652 C649 1.398 . S
C652 C653 1.380 . S
C652 H666 0.930 . S
C653 C651 1.387 . S
C653 C652 1.380 . S
C653 H667 0.930 . S
C654 O634 1.254 . S
C654 O635 1.268 . S
C655 O639 1.284 . S
C655 O642 1.250 . S
C656 Gd589 2.828 . S
C656 O638 1.258 . S
C656 O643 1.252 . S
C656 C657 1.497 . S
C657 C656 1.497 . S
C657 C658 1.395 . S
C657 C659 1.380 . S
C658 C657 1.395 . S
C658 C661 1.398 . S
C658 H668 0.930 . S
C659 C657 1.380 . S
C659 C660 1.391 . S
C659 H669 0.930 . S
C660 C659 1.391 . S
C660 C662 1.387 . S
C661 C658 1.398 . S
C661 C662 1.380 . S
C661 H670 0.930 . S
C662 C660 1.387 . S
C662 C661 1.380 . S
C662 H671 0.930 . S
C663 O640 1.254 . S
C663 O641 1.268 . S
H664 C649 0.930 . S
H665 C650 0.930 . S
H666 C652 0.930 . S
H667 C653 0.930 . S
H668 C658 0.930 . S
H669 C659 0.930 . S
H670 C661 0.930 . S
H671 C662 0.930 . S
Gd672 N703 2.661 . S
Gd672 N709 2.601 . S
Gd672 O716 2.545 . S
Gd672 O717 2.606 . S
Gd672 O719 2.429 . S
Gd672 O720 2.545 . S
Gd672 O721 2.412 . S
Gd672 O723 2.362 . S
Gd672 O724 2.324 . S
Gd672 C731 2.828 . S
Gd673 N682 2.661 . S
Gd673 N686 2.601 . S
Gd673 O717 2.362 . S
Gd673 O718 2.324 . S
Gd673 O722 2.545 . S
Gd673 O723 2.606 . S
Gd673 O725 2.429 . S
Gd673 O726 2.545 . S
Gd673 O727 2.412 . S
Gd673 C740 2.828 . S
C674 C677 1.417 . S
C674 C679 1.431 . S
C674 C680 1.412 . S
C675 C678 1.437 . S
C675 C679 1.317 . S
C675 H694 0.929 . S
C676 C677 1.426 . S
C676 C678 1.413 . S
C676 N686 1.359 . S
C677 C674 1.417 . S
C677 C676 1.426 . S
C677 N682 1.350 . S
C678 C675 1.437 . S
C678 C676 1.413 . S
C678 C688 1.391 . S
C679 C674 1.431 . S
C679 C675 1.317 . S
C679 H690 0.935 . S
C680 C674 1.412 . S
C680 C681 1.355 . S
C680 H692 0.930 . S
C681 C680 1.355 . S
C681 C683 1.402 . S
C681 H693 0.930 . S
N682 Gd673 2.661 . S
N682 C677 1.350 . S
N682 C683 1.307 . S
C683 C681 1.402 . S
C683 N682 1.307 . S
C683 H684 0.930 . S
H684 C683 0.930 . S
C685 N686 1.334 . S
C685 C687 1.394 . S
C685 H689 0.930 . S
N686 Gd673 2.601 . S
N686 C676 1.359 . S
N686 C685 1.334 . S
C687 C685 1.394 . S
C687 C688 1.359 . S
C687 H699 0.930 . S
C688 C678 1.391 . S
C688 C687 1.359 . S
C688 H700 0.929 . S
H689 C685 0.930 . S
H690 C679 0.935 . S
H691 C708 0.930 . S
H692 C680 0.930 . S
H693 C681 0.930 . S
H694 C675 0.929 . S
H695 C713 0.930 . S
H696 C704 0.930 . S
H697 C705 0.930 . S
H698 C729 0.929 . S
H699 C687 0.930 . S
H700 C688 0.929 . S
H701 C730 0.930 . S
H702 C711 0.930 . S
N703 Gd672 2.661 . S
N703 C707 1.350 . S
N703 C708 1.307 . S
C704 H696 0.930 . S
C704 C705 1.355 . S
C704 C706 1.412 . S
C705 H697 0.930 . S
C705 C704 1.355 . S
C705 C708 1.402 . S
C706 C704 1.412 . S
C706 C707 1.417 . S
C706 C730 1.431 . S
C707 N703 1.350 . S
C707 C706 1.417 . S
C707 C710 1.426 . S
C708 H691 0.930 . S
C708 N703 1.307 . S
C708 C705 1.402 . S
N709 Gd672 2.601 . S
N709 C710 1.359 . S
N709 C713 1.334 . S
C710 C707 1.426 . S
C710 N709 1.359 . S
C710 C714 1.413 . S
C711 H702 0.930 . S
C711 C712 1.359 . S
C711 C713 1.394 . S
C712 C711 1.359 . S
C712 C714 1.391 . S
C712 H715 0.929 . S
C713 H695 0.930 . S
C713 N709 1.334 . S
C713 C711 1.394 . S
C714 C710 1.413 . S
C714 C712 1.391 . S
C714 C729 1.437 . S
H715 C712 0.929 . S
O716 Gd672 2.545 . S
O716 C731 1.258 . S
O717 Gd672 2.606 . S
O717 Gd673 2.362 . S
O717 C728 1.284 . S
O718 Gd673 2.324 . S
O718 C738 1.254 . S
O719 Gd672 2.429 . S
O719 C738 1.268 . S
O720 Gd672 2.545 . S
O720 C728 1.250 . S
O721 Gd672 2.412 . S
O721 C731 1.252 . S
O722 Gd673 2.545 . S
O722 C740 1.258 . S
O723 Gd672 2.362 . S
O723 Gd673 2.606 . S
O723 C739 1.284 . S
O724 Gd672 2.324 . S
O724 C747 1.254 . S
O725 Gd673 2.429 . S
O725 C747 1.268 . S
O726 Gd673 2.545 . S
O726 C739 1.250 . S
O727 Gd673 2.412 . S
O727 C740 1.252 . S
C728 O717 1.284 . S
C728 O720 1.250 . S
C729 H698 0.929 . S
C729 C714 1.437 . S
C729 C730 1.317 . S
C730 H701 0.930 . S
C730 C706 1.431 . S
C730 C729 1.317 . S
C731 Gd672 2.828 . S
C731 O716 1.258 . S
C731 O721 1.252 . S
C731 C732 1.497 . S
C732 C731 1.497 . S
C732 C733 1.395 . S
C732 C734 1.380 . S
C733 C732 1.395 . S
C733 C736 1.398 . S
C733 H748 0.930 . S
C734 C732 1.380 . S
C734 C735 1.391 . S
C734 H749 0.930 . S
C735 C734 1.391 . S
C735 C737 1.387 . S
C736 C733 1.398 . S
C736 C737 1.380 . S
C736 H750 0.930 . S
C737 C735 1.387 . S
C737 C736 1.380 . S
C737 H751 0.930 . S
C738 O718 1.254 . S
C738 O719 1.268 . S
C739 O723 1.284 . S
C739 O726 1.250 . S
C740 Gd673 2.828 . S
C740 O722 1.258 . S
C740 O727 1.252 . S
C740 C741 1.497 . S
C741 C740 1.497 . S
C741 C742 1.395 . S
C741 C743 1.380 . S
C742 C741 1.395 . S
C742 C745 1.398 . S
C742 H752 0.930 . S
C743 C741 1.380 . S
C743 C744 1.391 . S
C743 H753 0.930 . S
C744 C743 1.391 . S
C744 C746 1.387 . S
C745 C742 1.398 . S
C745 C746 1.380 . S
C745 H754 0.930 . S
C746 C744 1.387 . S
C746 C745 1.380 . S
C746 H755 0.930 . S
C747 O724 1.254 . S
C747 O725 1.268 . S
H748 C733 0.930 . S
H749 C734 0.930 . S
H750 C736 0.930 . S
H751 C737 0.930 . S
H752 C742 0.930 . S
H753 C743 0.930 . S
H754 C745 0.930 . S
H755 C746 0.930 . S
C756 C757 1.328 1_556 S
C756 C758 1.330 . S
C756 H781 0.969 . S
C757 C756 1.328 1_554 S
C757 C773 1.349 . S
C758 C756 1.330 . S
C758 C777 1.429 1_556 S
C758 H782 0.950 . S
C759 C776 1.574 . S
C759 C778 1.368 . S
C759 H783 0.949 . S
H760 C764 0.949 . S
C761 C762 1.349 . S
C761 C763 1.327 . S
C761 H784 0.950 . S
C762 C761 1.349 . S
C762 C774 1.349 1_554 S
C763 C761 1.327 . S
C763 C779 1.429 . S
C763 H785 0.950 . S
C764 H760 0.949 . S
C764 C772 1.574 . S
C764 C780 1.368 1_556 S
H765 C773 0.950 . S
H766 C771 0.950 . S
H767 C772 0.949 . S
H768 C774 0.950 . S
H769 C775 0.950 . S
H770 C776 0.949 . S
C771 H766 0.950 . S
C771 C773 1.327 . S
C771 C777 1.429 . S
C772 C764 1.574 . S
C772 H767 0.949 . S
C772 C778 1.368 1_556 S
C773 C757 1.349 . S
C773 H765 0.950 . S
C773 C771 1.327 . S
C774 C762 1.349 1_556 S
C774 H768 0.950 . S
C774 C775 1.327 . S
C775 H769 0.950 . S
C775 C774 1.327 . S
C775 C779 1.429 1_556 S
C776 C759 1.574 . S
C776 H770 0.949 . S
C776 C780 1.368 . S
C777 C758 1.429 1_554 S
C777 C771 1.429 . S
C777 C778 1.523 . S
C778 C759 1.368 . S
C778 C772 1.368 1_554 S
C778 C777 1.523 . S
C779 C763 1.429 . S
C779 C775 1.429 1_554 S
C779 C780 1.523 . S
C780 C764 1.368 1_554 S
C780 C776 1.368 . S
C780 C779 1.523 . S
H781 C756 0.969 . S
H782 C758 0.950 . S
H783 C759 0.949 . S
H784 C761 0.950 . S
H785 C763 0.950 . S
C786 C787 1.349 . S
C786 C788 1.327 . S
C786 H811 0.950 . S
C787 C786 1.349 . S
C787 C803 1.349 1_554 S
C788 C786 1.327 . S
C788 C807 1.429 . S
C788 H812 0.950 . S
C789 C806 1.574 . S
C789 C808 1.368 1_556 S
C789 H813 0.949 . S
H790 C794 0.949 . S
C791 C792 1.349 1_556 S
C791 C793 1.327 . S
C791 H814 0.950 . S
C792 C791 1.349 1_554 S
C792 C804 1.349 . S
C793 C791 1.327 . S
C793 C809 1.429 1_556 S
C793 H815 0.950 . S
C794 H790 0.949 . S
C794 C802 1.574 . S
C794 C810 1.368 . S
H795 C803 0.950 . S
H796 C801 0.950 . S
H797 C802 0.949 . S
H798 C804 0.950 . S
H799 C805 0.950 . S
H800 C806 0.949 . S
C801 H796 0.950 . S
C801 C803 1.327 . S
C801 C807 1.429 1_556 S
C802 C794 1.574 . S
C802 H797 0.949 . S
C802 C808 1.368 . S
C803 C787 1.349 1_556 S
C803 H795 0.950 . S
C803 C801 1.327 . S
C804 C792 1.349 . S
C804 H798 0.950 . S
C804 C805 1.327 . S
C805 H799 0.950 . S
C805 C804 1.327 . S
C805 C809 1.429 . S
C806 C789 1.574 . S
C806 H800 0.949 . S
C806 C810 1.368 1_556 S
C807 C788 1.429 . S
C807 C801 1.429 1_554 S
C807 C808 1.523 . S
C808 C789 1.368 1_554 S
C808 C802 1.368 . S
C808 C807 1.523 . S
C809 C793 1.429 1_554 S
C809 C805 1.429 . S
C809 C810 1.523 . S
C810 C794 1.368 . S
C810 C806 1.368 1_554 S
C810 C809 1.523 . S
H811 C786 0.950 . S
H812 C788 0.950 . S
H813 C789 0.949 . S
H814 C791 0.950 . S
H815 C793 0.950 . S
C816 C817 1.349 . S
C816 C818 1.327 . S
C816 H841 0.950 . S
C817 C816 1.349 . S
C817 C833 1.349 1_554 S
C818 C816 1.327 . S
C818 C837 1.429 . S
C818 H842 0.950 . S
C819 C836 1.574 . S
C819 C838 1.368 1_556 S
C819 H843 0.949 . S
H820 C824 0.949 . S
C821 C822 1.349 1_556 S
C821 C823 1.327 . S
C821 H844 0.950 . S
C822 C821 1.349 1_554 S
C822 C834 1.349 . S
C823 C821 1.327 . S
C823 C839 1.429 1_556 S
C823 H845 0.950 . S
C824 H820 0.949 . S
C824 C832 1.574 . S
C824 C840 1.368 . S
H825 C833 0.950 . S
H826 C831 0.950 . S
H827 C832 0.949 . S
H828 C834 0.950 . S
H829 C835 0.950 . S
H830 C836 0.949 . S
C831 H826 0.950 . S
C831 C833 1.327 . S
C831 C837 1.429 1_556 S
C832 C824 1.574 . S
C832 H827 0.949 . S
C832 C838 1.368 . S
C833 C817 1.349 1_556 S
C833 H825 0.950 . S
C833 C831 1.327 . S
C834 C822 1.349 . S
C834 H828 0.950 . S
C834 C835 1.327 . S
C835 H829 0.950 . S
C835 C834 1.327 . S
C835 C839 1.429 . S
C836 C819 1.574 . S
C836 H830 0.949 . S
C836 C840 1.368 1_556 S
C837 C818 1.429 . S
C837 C831 1.429 1_554 S
C837 C838 1.523 . S
C838 C819 1.368 1_554 S
C838 C832 1.368 . S
C838 C837 1.523 . S
C839 C823 1.429 1_554 S
C839 C835 1.429 . S
C839 C840 1.523 . S
C840 C824 1.368 . S
C840 C836 1.368 1_554 S
C840 C839 1.523 . S
H841 C816 0.950 . S
H842 C818 0.950 . S
H843 C819 0.949 . S
H844 C821 0.950 . S
H845 C823 0.950 . S
C846 C847 1.349 . S
C846 C848 1.327 . S
C846 H871 0.950 . S
C847 C846 1.349 . S
C847 C863 1.349 1_556 S
C848 C846 1.327 . S
C848 C867 1.429 . S
C848 H872 0.950 . S
C849 C866 1.574 . S
C849 C868 1.368 1_554 S
C849 H873 0.949 . S
H850 C854 0.949 . S
C851 C852 1.349 . S
C851 C853 1.327 . S
C851 H874 0.950 . S
C852 C851 1.349 . S
C852 C864 1.349 1_554 S
C853 C851 1.327 . S
C853 C869 1.407 1_554 S
C853 H875 0.950 . S
C854 H850 0.949 . S
C854 C862 1.574 . S
C854 C870 1.368 . S
H855 C863 0.950 . S
H856 C861 0.950 . S
H857 C862 0.949 . S
H858 C864 0.950 . S
H859 C865 0.950 . S
H860 C866 0.949 . S
C861 H856 0.950 . S
C861 C863 1.327 . S
C861 C867 1.429 1_554 S
C862 C854 1.574 . S
C862 H857 0.949 . S
C862 C868 1.368 . S
C863 C847 1.349 1_554 S
C863 H855 0.950 . S
C863 C861 1.327 . S
C864 C852 1.349 1_556 S
C864 H858 0.950 . S
C864 C865 1.327 . S
C865 H859 0.950 . S
C865 C864 1.327 . S
C865 C869 1.448 . S
C866 C849 1.574 . S
C866 H860 0.949 . S
C866 C870 1.368 1_554 S
C867 C848 1.429 . S
C867 C861 1.429 1_556 S
C867 C868 1.523 . S
C868 C849 1.368 1_556 S
C868 C862 1.368 . S
C868 C867 1.523 . S
C869 C853 1.407 1_556 S
C869 C865 1.448 . S
C869 C870 1.525 . S
C870 C854 1.368 . S
C870 C866 1.368 1_556 S
C870 C869 1.525 . S
H871 C846 0.950 . S
H872 C848 0.950 . S
H873 C849 0.949 . S
H874 C851 0.950 . S
H875 C853 0.950 . S
C876 C877 1.349 . S
C876 C878 1.327 . S
C876 H901 0.950 . S
C877 C876 1.349 . S
C877 C893 1.349 1_554 S
C878 C876 1.327 . S
C878 C897 1.402 1_554 S
C878 H902 0.950 . S
C879 C896 1.574 . S
C879 C898 1.368 . S
C879 H903 0.949 . S
H880 C884 0.949 . S
C881 C882 1.349 . S
C881 C883 1.327 . S
C881 H904 0.950 . S
C882 C881 1.349 . S
C882 C894 1.349 1_556 S
C883 C881 1.327 . S
C883 C899 1.429 . S
C883 H905 0.950 . S
C884 H880 0.949 . S
C884 C892 1.574 . S
C884 C900 1.368 1_554 S
H885 C893 0.950 . S
H886 C891 0.950 . S
H887 C892 0.949 . S
H888 C894 0.950 . S
H889 C895 0.950 . S
H890 C896 0.949 . S
C891 H886 0.950 . S
C891 C893 1.327 . S
C891 C897 1.454 . S
C892 C884 1.574 . S
C892 H887 0.949 . S
C892 C898 1.368 1_554 S
C893 C877 1.349 1_556 S
C893 H885 0.950 . S
C893 C891 1.327 . S
C894 C882 1.349 1_554 S
C894 H888 0.950 . S
C894 C895 1.327 . S
C895 H889 0.950 . S
C895 C894 1.327 . S
C895 C899 1.429 1_554 S
C896 C879 1.574 . S
C896 H890 0.949 . S
C896 C900 1.368 . S
C897 C878 1.402 1_556 S
C897 C891 1.454 . S
C897 C898 1.525 . S
C898 C879 1.368 . S
C898 C892 1.368 1_556 S
C898 C897 1.525 . S
C899 C883 1.429 . S
C899 C895 1.429 1_556 S
C899 C900 1.523 . S
C900 C884 1.368 1_556 S
C900 C896 1.368 . S
C900 C899 1.523 . S
H901 C876 0.950 . S
H902 C878 0.950 . S
H903 C879 0.949 . S
H904 C881 0.950 . S
H905 C883 0.950 . S
C906 C907 1.349 1_556 S
C906 C908 1.327 . S
C906 H931 0.950 . S
C907 C906 1.349 1_554 S
C907 C923 1.349 . S
C908 C906 1.327 . S
C908 C927 1.443 . S
C908 H932 0.950 . S
C909 C926 1.574 . S
C909 C928 1.368 1_554 S
C909 H933 0.949 . S
H910 C914 0.949 . S
C911 C912 1.349 1_554 S
C911 C913 1.327 . S
C911 H934 0.950 . S
C912 C911 1.349 1_556 S
C912 C924 1.349 . S
C913 C911 1.327 . S
C913 C929 1.429 1_554 S
C913 H935 0.950 . S
C914 H910 0.949 . S
C914 C922 1.574 . S
C914 C930 1.368 . S
H915 C923 0.950 . S
H916 C921 0.950 . S
H917 C922 0.949 . S
H918 C924 0.950 . S
H919 C925 0.950 . S
H920 C926 0.949 . S
C921 H916 0.950 . S
C921 C923 1.327 . S
C921 C927 1.413 1_554 S
C922 C914 1.574 . S
C922 H917 0.949 . S
C922 C928 1.368 . S
C923 C907 1.349 . S
C923 H915 0.950 . S
C923 C921 1.327 . S
C924 C912 1.349 . S
C924 H918 0.950 . S
C924 C925 1.327 . S
C925 H919 0.950 . S
C925 C924 1.327 . S
C925 C929 1.429 . S
C926 C909 1.574 . S
C926 H920 0.949 . S
C926 C930 1.368 1_554 S
C927 C908 1.443 . S
C927 C921 1.413 1_556 S
C927 C928 1.525 . S
C928 C909 1.368 1_556 S
C928 C922 1.368 . S
C928 C927 1.525 . S
C929 C913 1.429 1_556 S
C929 C925 1.429 . S
C929 C930 1.523 . S
C930 C914 1.368 . S
C930 C926 1.368 1_556 S
C930 C929 1.523 . S
H931 C906 0.950 . S
H932 C908 0.950 . S
H933 C909 0.949 . S
H934 C911 0.950 . S
H935 C913 0.950 . S
C936 C937 1.349 . S
C936 C938 1.327 . S
C936 H961 0.950 . S
C937 C936 1.349 . S
C937 C953 1.349 . S
C938 C936 1.327 . S
C938 C957 1.429 . S
C938 H962 0.950 . S
C939 C956 1.574 . S
C939 C958 1.368 . S
C939 H963 0.949 . S
H940 C944 0.949 . S
C941 C942 1.349 . S
C941 C943 1.327 1_455 S
C941 H964 0.950 . S
C942 C941 1.349 . S
C942 C954 1.349 1_455 S
C943 C941 1.327 1_655 S
C943 C959 1.429 . S
C943 H965 0.950 . S
C944 H940 0.949 . S
C944 C952 1.574 . S
C944 C960 1.368 . S
H945 C953 0.950 . S
H946 C951 0.950 . S
H947 C952 0.949 . S
H948 C954 0.950 . S
H949 C955 0.950 . S
H950 C956 0.949 . S
C951 H946 0.950 . S
C951 C953 1.327 . S
C951 C957 1.429 . S
C952 C944 1.574 . S
C952 H947 0.949 . S
C952 C958 1.368 . S
C953 C937 1.349 . S
C953 H945 0.950 . S
C953 C951 1.327 . S
C954 C942 1.349 1_655 S
C954 H948 0.950 . S
C954 C955 1.327 . S
C955 H949 0.950 . S
C955 C954 1.327 . S
C955 C959 1.429 . S
C956 C939 1.574 . S
C956 H950 0.949 . S
C956 C960 1.368 . S
C957 C938 1.429 . S
C957 C951 1.429 . S
C957 C958 1.523 . S
C958 C939 1.368 . S
C958 C952 1.368 . S
C958 C957 1.523 . S
C959 C943 1.429 . S
C959 C955 1.429 . S
C959 C960 1.523 . S
C960 C944 1.368 . S
C960 C956 1.368 . S
C960 C959 1.523 . S
H961 C936 0.950 . S
H962 C938 0.950 . S
H963 C939 0.949 . S
H964 C941 0.950 . S
H965 C943 0.950 . S
C966 C967 1.349 . S
C966 C968 1.327 . S
C966 H991 0.950 . S
C967 C966 1.349 . S
C967 C983 1.349 . S
C968 C966 1.327 . S
C968 C987 1.429 . S
C968 H992 0.950 . S
C969 C986 1.574 . S
C969 C988 1.368 . S
C969 H993 0.949 . S
H970 C974 0.949 . S
C971 C972 1.349 . S
C971 C973 1.327 . S
C971 H994 0.950 . S
C972 C971 1.349 . S
C972 C984 1.349 . S
C973 C971 1.327 . S
C973 C989 1.429 . S
C973 H995 0.950 1_565 S
C974 H970 0.949 . S
C974 C982 1.574 . S
C974 C990 1.368 . S
H975 C983 0.950 . S
H976 C981 0.950 . S
H977 C982 0.949 . S
H978 C984 0.950 . S
H979 C985 0.950 . S
H980 C986 0.949 . S
C981 H976 0.950 . S
C981 C983 1.327 . S
C981 C987 1.429 . S
C982 C974 1.574 . S
C982 H977 0.949 . S
C982 C988 1.368 . S
C983 C967 1.349 . S
C983 H975 0.950 . S
C983 C981 1.327 . S
C984 C972 1.349 . S
C984 H978 0.950 . S
C984 C985 1.327 . S
C985 H979 0.950 . S
C985 C984 1.327 . S
C985 C989 1.429 . S
C986 C969 1.574 . S
C986 H980 0.949 . S
C986 C990 1.368 . S
C987 C968 1.429 . S
C987 C981 1.429 . S
C987 C988 1.523 . S
C988 C969 1.368 . S
C988 C982 1.368 . S
C988 C987 1.523 . S
C989 C973 1.429 . S
C989 C985 1.429 . S
C989 C990 1.523 1_565 S
C990 C974 1.368 . S
C990 C986 1.368 . S
C990 C989 1.523 1_545 S
H991 C966 0.950 . S
H992 C968 0.950 . S
H993 C969 0.949 . S
H994 C971 0.950 . S
H995 C973 0.950 1_545 S
C996 C997 1.349 . S
C996 C998 1.327 . S
C996 H1021 0.950 . S
C997 C996 1.349 . S
C997 C1013 1.349 . S
C998 C996 1.327 . S
C998 C1017 1.429 . S
C998 H1022 0.950 . S
C999 C1016 1.574 . S
C999 C1018 1.368 . S
C999 H1023 0.949 . S
H1000 C1004 0.949 . S
C1001 C1002 1.371 . S
C1001 C1003 1.327 . S
C1001 H1024 0.950 . S
C1002 C1001 1.371 . S
C1002 C1014 1.347 . S
C1003 C1001 1.327 . S
C1003 C1019 1.429 . S
C1003 H1025 0.950 . S
C1004 H1000 0.949 . S
C1004 C1012 1.574 . S
C1004 C1020 1.368 . S
H1005 C1013 0.950 . S
H1006 C1011 0.950 . S
H1007 C1012 0.949 1_455 S
H1008 C1014 0.950 1_565 S
H1009 C1015 0.950 . S
H1010 C1016 0.949 . S
C1011 H1006 0.950 . S
C1011 C1013 1.327 . S
C1011 C1017 1.429 . S
C1012 C1004 1.574 . S
C1012 H1007 0.949 1_655 S
C1012 C1018 1.368 . S
C1013 C997 1.349 . S
C1013 H1005 0.950 . S
C1013 C1011 1.327 . S
C1014 C1002 1.347 . S
C1014 H1008 0.950 1_545 S
C1014 C1015 1.327 . S
C1015 H1009 0.950 . S
C1015 C1014 1.327 . S
C1015 C1019 1.429 . S
C1016 C999 1.574 . S
C1016 H1010 0.949 . S
C1016 C1020 1.368 . S
C1017 C998 1.429 . S
C1017 C1011 1.429 . S
C1017 C1018 1.523 1_455 S
C1018 C999 1.368 . S
C1018 C1012 1.368 . S
C1018 C1017 1.523 1_655 S
C1019 C1003 1.429 . S
C1019 C1015 1.429 . S
C1019 C1020 1.523 . S
C1020 C1004 1.368 . S
C1020 C1016 1.368 . S
C1020 C1019 1.523 . S
H1021 C996 0.950 . S
H1022 C998 0.950 . S
H1023 C999 0.949 . S
H1024 C1001 0.950 . S
H1025 C1003 0.950 . S
C1026 C1027 1.349 . S
C1026 C1028 1.327 . S
C1026 H1051 0.950 . S
C1027 C1026 1.349 . S
C1027 C1043 1.349 . S
C1028 C1026 1.327 . S
C1028 C1047 1.429 . S
C1028 H1052 0.950 . S
C1029 C1046 1.574 . S
C1029 C1048 1.368 . S
C1029 H1053 0.949 . S
H1030 C1034 0.949 . S
C1031 C1032 1.349 . S
C1031 C1033 1.327 . S
C1031 H1054 0.950 . S
C1032 C1031 1.349 . S
C1032 C1044 1.349 . S
C1033 C1031 1.327 . S
C1033 C1049 1.429 . S
C1033 H1055 0.950 . S
C1034 H1030 0.949 . S
C1034 C1042 1.574 . S
C1034 C1050 1.368 . S
H1035 C1043 0.950 . S
H1036 C1041 0.950 . S
H1037 C1042 0.949 . S
H1038 C1044 0.950 . S
H1039 C1045 0.950 . S
H1040 C1046 0.949 . S
C1041 H1036 0.950 . S
C1041 C1043 1.327 . S
C1041 C1047 1.429 . S
C1042 C1034 1.574 . S
C1042 H1037 0.949 . S
C1042 C1048 1.368 . S
C1043 C1027 1.349 . S
C1043 H1035 0.950 . S
C1043 C1041 1.327 . S
C1044 C1032 1.349 . S
C1044 H1038 0.950 . S
C1044 C1045 1.327 . S
C1045 H1039 0.950 . S
C1045 C1044 1.327 . S
C1045 C1049 1.429 . S
C1046 C1029 1.574 . S
C1046 H1040 0.949 . S
C1046 C1050 1.368 . S
C1047 C1028 1.429 . S
C1047 C1041 1.429 . S
C1047 C1048 1.523 . S
C1048 C1029 1.368 . S
C1048 C1042 1.368 . S
C1048 C1047 1.523 . S
C1049 C1033 1.429 . S
C1049 C1045 1.429 . S
C1049 C1050 1.523 . S
C1050 C1034 1.368 . S
C1050 C1046 1.368 . S
C1050 C1049 1.523 . S
H1051 C1026 0.950 . S
H1052 C1028 0.950 . S
H1053 C1029 0.949 . S
H1054 C1031 0.950 . S
H1055 C1033 0.950 . S
C1056 C1057 1.349 . S
C1056 C1058 1.327 . S
C1056 H1081 0.950 . S
C1057 C1056 1.349 . S
C1057 C1073 1.349 . S
C1058 C1056 1.327 . S
C1058 C1077 1.429 . S
C1058 H1082 0.950 . S
C1059 C1076 1.574 . S
C1059 C1078 1.368 . S
C1059 H1083 0.949 . S
H1060 C1064 0.949 . S
C1061 C1062 1.349 . S
C1061 C1063 1.327 . S
C1061 H1084 0.950 . S
C1062 C1061 1.349 . S
C1062 C1074 1.349 . S
C1063 C1061 1.327 . S
C1063 C1079 1.429 . S
C1063 H1085 0.950 . S
C1064 H1060 0.949 . S
C1064 C1072 1.574 . S
C1064 C1080 1.368 . S
H1065 C1073 0.950 . S
H1066 C1071 0.950 . S
H1067 C1072 0.949 . S
H1068 C1074 0.950 . S
H1069 C1075 0.950 . S
H1070 C1076 0.949 . S
C1071 H1066 0.950 . S
C1071 C1073 1.327 . S
C1071 C1077 1.429 . S
C1072 C1064 1.574 . S
C1072 H1067 0.949 . S
C1072 C1078 1.368 . S
C1073 C1057 1.349 . S
C1073 H1065 0.950 . S
C1073 C1071 1.327 . S
C1074 C1062 1.349 . S
C1074 H1068 0.950 . S
C1074 C1075 1.327 . S
C1075 H1069 0.950 . S
C1075 C1074 1.327 . S
C1075 C1079 1.429 . S
C1076 C1059 1.574 . S
C1076 H1070 0.949 . S
C1076 C1080 1.368 . S
C1077 C1058 1.429 . S
C1077 C1071 1.429 . S
C1077 C1078 1.523 . S
C1078 C1059 1.368 . S
C1078 C1072 1.368 . S
C1078 C1077 1.523 . S
C1079 C1063 1.429 . S
C1079 C1075 1.429 . S
C1079 C1080 1.523 . S
C1080 C1064 1.368 . S
C1080 C1076 1.368 . S
C1080 C1079 1.523 . S
H1081 C1056 0.950 . S
H1082 C1058 0.950 . S
H1083 C1059 0.949 . S
H1084 C1061 0.950 . S
H1085 C1063 0.950 . S
C1086 C1087 1.349 . S
C1086 C1088 1.327 . S
C1086 H1111 0.950 . S
C1087 C1086 1.349 . S
C1087 C1103 1.349 . S
C1088 C1086 1.327 . S
C1088 C1107 1.429 . S
C1088 H1112 0.950 . S
C1089 C1106 1.574 . S
C1089 C1108 1.368 . S
C1089 H1113 0.949 . S
H1090 C1094 0.949 . S
C1091 C1092 1.349 . S
C1091 C1093 1.327 . S
C1091 H1114 0.950 . S
C1092 C1091 1.349 . S
C1092 C1104 1.349 . S
C1093 C1091 1.327 . S
C1093 C1109 1.429 . S
C1093 H1115 0.950 . S
C1094 H1090 0.949 . S
C1094 C1102 1.574 . S
C1094 C1110 1.368 . S
H1095 C1103 0.950 . S
H1096 C1101 0.950 . S
H1097 C1102 0.949 . S
H1098 C1104 0.950 . S
H1099 C1105 0.950 . S
H1100 C1106 0.949 . S
C1101 H1096 0.950 . S
C1101 C1103 1.327 . S
C1101 C1107 1.429 . S
C1102 C1094 1.574 . S
C1102 H1097 0.949 . S
C1102 C1108 1.368 . S
C1103 C1087 1.349 . S
C1103 H1095 0.950 . S
C1103 C1101 1.327 . S
C1104 C1092 1.349 . S
C1104 H1098 0.950 . S
C1104 C1105 1.327 . S
C1105 H1099 0.950 . S
C1105 C1104 1.327 . S
C1105 C1109 1.429 . S
C1106 C1089 1.574 . S
C1106 H1100 0.949 . S
C1106 C1110 1.368 . S
C1107 C1088 1.429 . S
C1107 C1101 1.429 . S
C1107 C1108 1.523 . S
C1108 C1089 1.368 . S
C1108 C1102 1.368 . S
C1108 C1107 1.523 . S
C1109 C1093 1.429 . S
C1109 C1105 1.429 . S
C1109 C1110 1.523 . S
C1110 C1094 1.368 . S
C1110 C1106 1.368 . S
C1110 C1109 1.523 . S
H1111 C1086 0.950 . S
H1112 C1088 0.950 . S
H1113 C1089 0.949 . S
H1114 C1091 0.950 . S
H1115 C1093 0.950 . S
C1116 C1117 1.349 . S
C1116 C1118 1.327 . S
C1116 H1141 0.950 . S
C1117 C1116 1.349 . S
C1117 C1133 1.349 . S
C1118 C1116 1.327 . S
C1118 C1137 1.429 . S
C1118 H1142 0.950 . S
C1119 C1136 1.574 . S
C1119 C1138 1.368 . S
C1119 H1143 0.949 . S
H1120 C1124 0.949 . S
C1121 C1122 1.349 . S
C1121 C1123 1.327 . S
C1121 H1144 0.950 . S
C1122 C1121 1.349 . S
C1122 C1134 1.349 . S
C1123 C1121 1.327 . S
C1123 C1139 1.429 . S
C1123 H1145 0.950 . S
C1124 H1120 0.949 . S
C1124 C1132 1.574 . S
C1124 C1140 1.368 . S
H1125 C1133 0.950 . S
H1126 C1131 0.950 . S
H1127 C1132 0.949 . S
H1128 C1134 0.950 . S
H1129 C1135 0.950 . S
H1130 C1136 0.949 . S
C1131 H1126 0.950 . S
C1131 C1133 1.327 . S
C1131 C1137 1.429 . S
C1132 C1124 1.574 . S
C1132 H1127 0.949 . S
C1132 C1138 1.368 . S
C1133 C1117 1.349 . S
C1133 H1125 0.950 . S
C1133 C1131 1.327 . S
C1134 C1122 1.349 . S
C1134 H1128 0.950 . S
C1134 C1135 1.327 . S
C1135 H1129 0.950 . S
C1135 C1134 1.327 . S
C1135 C1139 1.429 . S
C1136 C1119 1.574 . S
C1136 H1130 0.949 . S
C1136 C1140 1.368 . S
C1137 C1118 1.429 . S
C1137 C1131 1.429 . S
C1137 C1138 1.523 . S
C1138 C1119 1.368 . S
C1138 C1132 1.368 . S
C1138 C1137 1.523 . S
C1139 C1123 1.429 . S
C1139 C1135 1.429 . S
C1139 C1140 1.523 . S
C1140 C1124 1.368 . S
C1140 C1136 1.368 . S
C1140 C1139 1.523 . S
H1141 C1116 0.950 . S
H1142 C1118 0.950 . S
H1143 C1119 0.949 . S
H1144 C1121 0.950 . S
H1145 C1123 0.950 . S
C1146 C1147 1.349 . S
C1146 C1148 1.327 . S
C1146 H1171 0.950 . S
C1147 C1146 1.349 . S
C1147 C1163 1.349 . S
C1148 C1146 1.327 . S
C1148 C1167 1.429 . S
C1148 H1172 0.950 . S
C1149 C1166 1.574 . S
C1149 C1168 1.368 . S
C1149 H1173 0.949 . S
H1150 C1154 0.949 . S
C1151 C1152 1.349 . S
C1151 C1153 1.327 . S
C1151 H1174 0.950 . S
C1152 C1151 1.349 . S
C1152 C1164 1.349 . S
C1153 C1151 1.327 . S
C1153 C1169 1.429 . S
C1153 H1175 0.950 . S
C1154 H1150 0.949 . S
C1154 C1162 1.574 . S
C1154 C1170 1.368 . S
H1155 C1163 0.950 . S
H1156 C1161 0.950 . S
H1157 C1162 0.949 . S
H1158 C1164 0.950 . S
H1159 C1165 0.950 . S
H1160 C1166 0.949 . S
C1161 H1156 0.950 . S
C1161 C1163 1.327 . S
C1161 C1167 1.429 . S
C1162 C1154 1.574 . S
C1162 H1157 0.949 . S
C1162 C1168 1.368 . S
C1163 C1147 1.349 . S
C1163 H1155 0.950 . S
C1163 C1161 1.327 . S
C1164 C1152 1.349 . S
C1164 H1158 0.950 . S
C1164 C1165 1.327 . S
C1165 H1159 0.950 . S
C1165 C1164 1.327 . S
C1165 C1169 1.429 . S
C1166 C1149 1.574 . S
C1166 H1160 0.949 . S
C1166 C1170 1.368 . S
C1167 C1148 1.429 . S
C1167 C1161 1.429 . S
C1167 C1168 1.523 . S
C1168 C1149 1.368 . S
C1168 C1162 1.368 . S
C1168 C1167 1.523 . S
C1169 C1153 1.429 . S
C1169 C1165 1.429 . S
C1169 C1170 1.523 . S
C1170 C1154 1.368 . S
C1170 C1166 1.368 . S
C1170 C1169 1.523 . S
H1171 C1146 0.950 . S
H1172 C1148 0.950 . S
H1173 C1149 0.949 . S
H1174 C1151 0.950 . S
H1175 C1153 0.950 . S
C1176 C1177 1.349 . S
C1176 C1178 1.327 . S
C1176 H1201 0.950 . S
C1177 C1176 1.349 . S
C1177 C1193 1.349 . S
C1178 C1176 1.327 . S
C1178 C1197 1.429 . S
C1178 H1202 0.950 . S
C1179 C1196 1.574 . S
C1179 C1198 1.368 . S
C1179 H1203 0.949 . S
H1180 C1184 0.949 . S
C1181 C1182 1.349 . S
C1181 C1183 1.327 . S
C1181 H1204 0.950 . S
C1182 C1181 1.349 . S
C1182 C1194 1.349 . S
C1183 C1181 1.327 . S
C1183 C1199 1.429 . S
C1183 H1205 0.950 . S
C1184 H1180 0.949 . S
C1184 C1192 1.574 . S
C1184 C1200 1.368 . S
H1185 C1193 0.950 . S
H1186 C1191 0.950 . S
H1187 C1192 0.949 . S
H1188 C1194 0.950 . S
H1189 C1195 0.950 . S
H1190 C1196 0.949 . S
C1191 H1186 0.950 . S
C1191 C1193 1.327 . S
C1191 C1197 1.429 . S
C1192 C1184 1.574 . S
C1192 H1187 0.949 . S
C1192 C1198 1.368 . S
C1193 C1177 1.349 . S
C1193 H1185 0.950 . S
C1193 C1191 1.327 . S
C1194 C1182 1.349 . S
C1194 H1188 0.950 . S
C1194 C1195 1.327 . S
C1195 H1189 0.950 . S
C1195 C1194 1.327 . S
C1195 C1199 1.429 . S
C1196 C1179 1.574 . S
C1196 H1190 0.949 . S
C1196 C1200 1.368 . S
C1197 C1178 1.429 . S
C1197 C1191 1.429 . S
C1197 C1198 1.523 . S
C1198 C1179 1.368 . S
C1198 C1192 1.368 . S
C1198 C1197 1.523 . S
C1199 C1183 1.429 . S
C1199 C1195 1.429 . S
C1199 C1200 1.523 . S
C1200 C1184 1.368 . S
C1200 C1196 1.368 . S
C1200 C1199 1.523 . S
H1201 C1176 0.950 . S
H1202 C1178 0.950 . S
H1203 C1179 0.949 . S
H1204 C1181 0.950 . S
H1205 C1183 0.950 . S
C1206 C1207 1.349 . S
C1206 C1208 1.327 . S
C1206 H1231 0.950 . S
C1207 C1206 1.349 . S
C1207 C1223 1.349 . S
C1208 C1206 1.327 . S
C1208 C1227 1.429 . S
C1208 H1232 0.950 . S
C1209 C1226 1.574 1_565 S
C1209 C1228 1.368 . S
C1209 H1233 0.949 . S
H1210 C1214 0.949 . S
C1211 C1212 1.349 . S
C1211 C1213 1.327 . S
C1211 H1234 0.950 . S
C1212 C1211 1.349 . S
C1212 C1224 1.349 . S
C1213 C1211 1.327 . S
C1213 C1229 1.429 . S
C1213 H1235 0.950 . S
C1214 H1210 0.949 . S
C1214 C1222 1.574 1_545 S
C1214 C1230 1.368 . S
H1215 C1223 0.950 . S
H1216 C1221 0.950 . S
H1217 C1222 0.949 . S
H1218 C1224 0.950 . S
H1219 C1225 0.950 . S
H1220 C1226 0.949 . S
C1221 H1216 0.950 . S
C1221 C1223 1.327 . S
C1221 C1227 1.429 . S
C1222 C1214 1.574 1_565 S
C1222 H1217 0.949 . S
C1222 C1228 1.368 . S
C1223 C1207 1.349 . S
C1223 H1215 0.950 . S
C1223 C1221 1.327 . S
C1224 C1212 1.349 . S
C1224 H1218 0.950 . S
C1224 C1225 1.327 . S
C1225 H1219 0.950 . S
C1225 C1224 1.327 . S
C1225 C1229 1.429 . S
C1226 C1209 1.574 1_545 S
C1226 H1220 0.949 . S
C1226 C1230 1.368 . S
C1227 C1208 1.429 . S
C1227 C1221 1.429 . S
C1227 C1228 1.523 . S
C1228 C1209 1.368 . S
C1228 C1222 1.368 . S
C1228 C1227 1.523 . S
C1229 C1213 1.429 . S
C1229 C1225 1.429 . S
C1229 C1230 1.523 . S
C1230 C1214 1.368 . S
C1230 C1226 1.368 . S
C1230 C1229 1.523 . S
H1231 C1206 0.950 . S
H1232 C1208 0.950 . S
H1233 C1209 0.949 . S
H1234 C1211 0.950 . S
H1235 C1213 0.950 . S
C1236 C1237 1.349 . S
C1236 C1238 1.327 . S
C1236 H1261 0.950 . S
C1237 C1236 1.349 . S
C1237 C1253 1.349 . S
C1238 C1236 1.327 . S
C1238 C1257 1.429 . S
C1238 H1262 0.950 . S
C1239 C1256 1.574 . S
C1239 C1258 1.368 1_455 S
C1239 H1263 0.949 . S
H1240 C1244 0.949 . S
C1241 C1242 1.349 . S
C1241 C1243 1.327 . S
C1241 H1264 0.950 . S
C1242 C1241 1.349 . S
C1242 C1254 1.349 . S
C1243 C1241 1.327 . S
C1243 C1259 1.429 . S
C1243 H1265 0.950 . S
C1244 H1240 0.949 . S
C1244 C1252 1.574 1_455 S
C1244 C1260 1.368 . S
H1245 C1253 0.950 . S
H1246 C1251 0.950 . S
H1247 C1252 0.949 . S
H1248 C1254 0.950 . S
H1249 C1255 0.950 . S
H1250 C1256 0.949 . S
C1251 H1246 0.950 . S
C1251 C1253 1.327 . S
C1251 C1257 1.429 . S
C1252 C1244 1.574 1_655 S
C1252 H1247 0.949 . S
C1252 C1258 1.368 . S
C1253 C1237 1.349 . S
C1253 H1245 0.950 . S
C1253 C1251 1.327 . S
C1254 C1242 1.349 . S
C1254 H1248 0.950 . S
C1254 C1255 1.327 . S
C1255 H1249 0.950 . S
C1255 C1254 1.327 . S
C1255 C1259 1.429 . S
C1256 C1239 1.574 . S
C1256 H1250 0.949 . S
C1256 C1260 1.368 . S
C1257 C1238 1.429 . S
C1257 C1251 1.429 . S
C1257 C1258 1.523 . S
C1258 C1239 1.368 1_655 S
C1258 C1252 1.368 . S
C1258 C1257 1.523 . S
C1259 C1243 1.429 . S
C1259 C1255 1.429 . S
C1259 C1260 1.523 . S
C1260 C1244 1.368 . S
C1260 C1256 1.368 . S
C1260 C1259 1.523 . S
H1261 C1236 0.950 . S
H1262 C1238 0.950 . S
H1263 C1239 0.949 . S
H1264 C1241 0.950 . S
H1265 C1243 0.950 . S
C1266 C1267 1.349 . S
C1266 C1268 1.327 . S
C1266 H1291 0.950 . S
C1267 C1266 1.349 . S
C1267 C1283 1.349 . S
C1268 C1266 1.327 . S
C1268 C1287 1.429 . S
C1268 H1292 0.950 . S
C1269 C1286 1.574 . S
C1269 C1288 1.368 . S
C1269 H1293 0.949 . S
H1270 C1274 0.949 . S
C1271 C1272 1.349 . S
C1271 C1273 1.327 . S
C1271 H1294 0.950 . S
C1272 C1271 1.349 . S
C1272 C1284 1.349 . S
C1273 C1271 1.327 . S
C1273 C1289 1.429 . S
C1273 H1295 0.950 . S
C1274 H1270 0.949 . S
C1274 C1282 1.574 . S
C1274 C1290 1.368 . S
H1275 C1283 0.950 . S
H1276 C1281 0.950 . S
H1277 C1282 0.949 . S
H1278 C1284 0.950 . S
H1279 C1285 0.950 . S
H1280 C1286 0.949 . S
C1281 H1276 0.950 . S
C1281 C1283 1.327 . S
C1281 C1287 1.429 . S
C1282 C1274 1.574 . S
C1282 H1277 0.949 . S
C1282 C1288 1.368 . S
C1283 C1267 1.349 . S
C1283 H1275 0.950 . S
C1283 C1281 1.327 . S
C1284 C1272 1.349 . S
C1284 H1278 0.950 . S
C1284 C1285 1.327 . S
C1285 H1279 0.950 . S
C1285 C1284 1.327 . S
C1285 C1289 1.429 . S
C1286 C1269 1.574 . S
C1286 H1280 0.949 . S
C1286 C1290 1.368 . S
C1287 C1268 1.429 . S
C1287 C1281 1.429 . S
C1287 C1288 1.523 . S
C1288 C1269 1.368 . S
C1288 C1282 1.368 . S
C1288 C1287 1.523 . S
C1289 C1273 1.429 . S
C1289 C1285 1.429 . S
C1289 C1290 1.523 . S
C1290 C1274 1.368 . S
C1290 C1286 1.368 . S
C1290 C1289 1.523 . S
H1291 C1266 0.950 . S
H1292 C1268 0.950 . S
H1293 C1269 0.949 . S
H1294 C1271 0.950 . S
H1295 C1273 0.950 . S
C1296 C1297 1.349 . S
C1296 C1298 1.327 . S
C1296 H1321 0.950 . S
C1297 C1296 1.349 . S
C1297 C1313 1.349 . S
C1298 C1296 1.327 . S
C1298 C1317 1.429 . S
C1298 H1322 0.950 . S
C1299 C1316 1.574 . S
C1299 C1318 1.368 . S
C1299 H1323 0.949 . S
H1300 C1304 0.949 . S
C1301 C1302 1.349 . S
C1301 C1303 1.327 . S
C1301 H1324 0.950 . S
C1302 C1301 1.349 . S
C1302 C1314 1.349 . S
C1303 C1301 1.327 . S
C1303 C1319 1.429 . S
C1303 H1325 0.950 . S
C1304 H1300 0.949 . S
C1304 C1312 1.574 . S
C1304 C1320 1.368 . S
H1305 C1313 0.950 . S
H1306 C1311 0.950 . S
H1307 C1312 0.949 . S
H1308 C1314 0.950 . S
H1309 C1315 0.950 . S
H1310 C1316 0.949 . S
C1311 H1306 0.950 . S
C1311 C1313 1.327 . S
C1311 C1317 1.429 . S
C1312 C1304 1.574 . S
C1312 H1307 0.949 . S
C1312 C1318 1.368 . S
C1313 C1297 1.349 . S
C1313 H1305 0.950 . S
C1313 C1311 1.327 . S
C1314 C1302 1.349 . S
C1314 H1308 0.950 . S
C1314 C1315 1.327 . S
C1315 H1309 0.950 . S
C1315 C1314 1.327 . S
C1315 C1319 1.429 . S
C1316 C1299 1.574 . S
C1316 H1310 0.949 . S
C1316 C1320 1.368 . S
C1317 C1298 1.429 . S
C1317 C1311 1.429 . S
C1317 C1318 1.523 . S
C1318 C1299 1.368 . S
C1318 C1312 1.368 . S
C1318 C1317 1.523 . S
C1319 C1303 1.429 . S
C1319 C1315 1.429 . S
C1319 C1320 1.523 . S
C1320 C1304 1.368 . S
C1320 C1316 1.368 . S
C1320 C1319 1.523 . S
H1321 C1296 0.950 . S
H1322 C1298 0.950 . S
H1323 C1299 0.949 . S
H1324 C1301 0.950 . S
H1325 C1303 0.950 . S
C1326 C1327 1.349 . S
C1326 C1328 1.327 . S
C1326 H1351 0.950 . S
C1327 C1326 1.349 . S
C1327 C1343 1.349 . S
C1328 C1326 1.327 . S
C1328 C1347 1.429 . S
C1328 H1352 0.950 . S
C1329 C1346 1.574 . S
C1329 C1348 1.368 . S
C1329 H1353 0.949 . S
H1330 C1334 0.949 . S
C1331 C1332 1.349 . S
C1331 C1333 1.327 . S
C1331 H1354 0.950 . S
C1332 C1331 1.349 . S
C1332 C1344 1.349 . S
C1333 C1331 1.327 . S
C1333 C1349 1.429 . S
C1333 H1355 0.950 . S
C1334 H1330 0.949 . S
C1334 C1342 1.574 . S
C1334 C1350 1.368 . S
H1335 C1343 0.950 . S
H1336 C1341 0.950 . S
H1337 C1342 0.949 . S
H1338 C1344 0.950 . S
H1339 C1345 0.950 . S
H1340 C1346 0.949 . S
C1341 H1336 0.950 . S
C1341 C1343 1.327 . S
C1341 C1347 1.429 . S
C1342 C1334 1.574 . S
C1342 H1337 0.949 . S
C1342 C1348 1.368 . S
C1343 C1327 1.349 . S
C1343 H1335 0.950 . S
C1343 C1341 1.327 . S
C1344 C1332 1.349 . S
C1344 H1338 0.950 . S
C1344 C1345 1.327 . S
C1345 H1339 0.950 . S
C1345 C1344 1.327 . S
C1345 C1349 1.429 . S
C1346 C1329 1.574 . S
C1346 H1340 0.949 . S
C1346 C1350 1.368 . S
C1347 C1328 1.429 . S
C1347 C1341 1.429 . S
C1347 C1348 1.523 . S
C1348 C1329 1.368 . S
C1348 C1342 1.368 . S
C1348 C1347 1.523 . S
C1349 C1333 1.429 . S
C1349 C1345 1.429 . S
C1349 C1350 1.523 . S
C1350 C1334 1.368 . S
C1350 C1346 1.368 . S
C1350 C1349 1.523 . S
H1351 C1326 0.950 . S
H1352 C1328 0.950 . S
H1353 C1329 0.949 . S
H1354 C1331 0.950 . S
H1355 C1333 0.950 . S
C1356 C1357 1.349 . S
C1356 C1358 1.327 . S
C1356 H1381 0.950 1_565 S
C1357 C1356 1.349 . S
C1357 C1373 1.349 . S
C1358 C1356 1.327 . S
C1358 C1377 1.429 . S
C1358 H1382 0.950 . S
C1359 C1376 1.574 . S
C1359 C1378 1.368 . S
C1359 H1383 0.949 . S
H1360 C1364 0.949 . S
C1361 C1362 1.349 . S
C1361 C1363 1.327 . S
C1361 H1384 0.950 . S
C1362 C1361 1.349 . S
C1362 C1374 1.349 . S
C1363 C1361 1.327 . S
C1363 C1379 1.429 . S
C1363 H1385 0.950 . S
C1364 H1360 0.949 . S
C1364 C1372 1.574 . S
C1364 C1380 1.368 . S
H1365 C1373 0.950 . S
H1366 C1371 0.950 . S
H1367 C1372 0.949 . S
H1368 C1374 0.950 . S
H1369 C1375 0.950 . S
H1370 C1376 0.949 . S
C1371 H1366 0.950 . S
C1371 C1373 1.327 . S
C1371 C1377 1.429 . S
C1372 C1364 1.574 . S
C1372 H1367 0.949 . S
C1372 C1378 1.368 . S
C1373 C1357 1.349 . S
C1373 H1365 0.950 . S
C1373 C1371 1.327 . S
C1374 C1362 1.349 . S
C1374 H1368 0.950 . S
C1374 C1375 1.327 . S
C1375 H1369 0.950 . S
C1375 C1374 1.327 . S
C1375 C1379 1.429 . S
C1376 C1359 1.574 . S
C1376 H1370 0.949 . S
C1376 C1380 1.368 . S
C1377 C1358 1.429 . S
C1377 C1371 1.429 . S
C1377 C1378 1.523 . S
C1378 C1359 1.368 . S
C1378 C1372 1.368 . S
C1378 C1377 1.523 . S
C1379 C1363 1.429 . S
C1379 C1375 1.429 . S
C1379 C1380 1.523 . S
C1380 C1364 1.368 . S
C1380 C1376 1.368 . S
C1380 C1379 1.523 . S
H1381 C1356 0.950 1_545 S
H1382 C1358 0.950 . S
H1383 C1359 0.949 . S
H1384 C1361 0.950 . S
H1385 C1363 0.950 . S
C1386 C1387 1.349 . S
C1386 C1388 1.327 . S
C1386 H1411 0.950 . S
C1387 C1386 1.349 . S
C1387 C1403 1.349 . S
C1388 C1386 1.327 . S
C1388 C1407 1.429 . S
C1388 H1412 0.950 . S
C1389 C1406 1.574 . S
C1389 C1408 1.368 . S
C1389 H1413 0.949 . S
H1390 C1394 0.949 . S
C1391 C1392 1.349 . S
C1391 C1393 1.327 . S
C1391 H1414 0.950 . S
C1392 C1391 1.349 . S
C1392 C1404 1.349 . S
C1393 C1391 1.327 . S
C1393 C1409 1.429 . S
C1393 H1415 0.950 . S
C1394 H1390 0.949 . S
C1394 C1402 1.574 . S
C1394 C1410 1.368 . S
H1395 C1403 0.950 . S
H1396 C1401 0.950 . S
H1397 C1402 0.949 . S
H1398 C1404 0.950 . S
H1399 C1405 0.950 . S
H1400 C1406 0.949 . S
C1401 H1396 0.950 . S
C1401 C1403 1.327 . S
C1401 C1407 1.429 . S
C1402 C1394 1.574 . S
C1402 H1397 0.949 . S
C1402 C1408 1.368 . S
C1403 C1387 1.349 . S
C1403 H1395 0.950 . S
C1403 C1401 1.327 . S
C1404 C1392 1.349 . S
C1404 H1398 0.950 . S
C1404 C1405 1.327 . S
C1405 H1399 0.950 . S
C1405 C1404 1.327 . S
C1405 C1409 1.429 . S
C1406 C1389 1.574 . S
C1406 H1400 0.949 . S
C1406 C1410 1.368 . S
C1407 C1388 1.429 . S
C1407 C1401 1.429 . S
C1407 C1408 1.523 . S
C1408 C1389 1.368 . S
C1408 C1402 1.368 . S
C1408 C1407 1.523 . S
C1409 C1393 1.429 . S
C1409 C1405 1.429 . S
C1409 C1410 1.523 . S
C1410 C1394 1.368 . S
C1410 C1406 1.368 . S
C1410 C1409 1.523 . S
H1411 C1386 0.950 . S
H1412 C1388 0.950 . S
H1413 C1389 0.949 . S
H1414 C1391 0.950 . S
H1415 C1393 0.950 . S
C1416 C1417 1.349 . S
C1416 C1418 1.327 . S
C1416 H1441 0.950 . S
C1417 C1416 1.349 . S
C1417 C1433 1.349 . S
C1418 C1416 1.327 . S
C1418 C1437 1.429 . S
C1418 H1442 0.950 . S
C1419 C1436 1.574 . S
C1419 C1438 1.368 . S
C1419 H1443 0.949 . S
H1420 C1424 0.949 . S
C1421 C1422 1.349 . S
C1421 C1423 1.327 . S
C1421 H1444 0.950 . S
C1422 C1421 1.349 . S
C1422 C1434 1.349 . S
C1423 C1421 1.327 . S
C1423 C1439 1.429 . S
C1423 H1445 0.950 . S
C1424 H1420 0.949 . S
C1424 C1432 1.574 . S
C1424 C1440 1.368 . S
H1425 C1433 0.950 . S
H1426 C1431 0.950 . S
H1427 C1432 0.949 . S
H1428 C1434 0.950 . S
H1429 C1435 0.950 . S
H1430 C1436 0.949 . S
C1431 H1426 0.950 . S
C1431 C1433 1.327 . S
C1431 C1437 1.429 . S
C1432 C1424 1.574 . S
C1432 H1427 0.949 . S
C1432 C1438 1.368 . S
C1433 C1417 1.349 . S
C1433 H1425 0.950 . S
C1433 C1431 1.327 . S
C1434 C1422 1.349 . S
C1434 H1428 0.950 . S
C1434 C1435 1.327 . S
C1435 H1429 0.950 . S
C1435 C1434 1.327 . S
C1435 C1439 1.429 . S
C1436 C1419 1.574 . S
C1436 H1430 0.949 . S
C1436 C1440 1.368 . S
C1437 C1418 1.429 . S
C1437 C1431 1.429 . S
C1437 C1438 1.523 . S
C1438 C1419 1.368 . S
C1438 C1432 1.368 . S
C1438 C1437 1.523 . S
C1439 C1423 1.429 . S
C1439 C1435 1.429 . S
C1439 C1440 1.523 . S
C1440 C1424 1.368 . S
C1440 C1436 1.368 . S
C1440 C1439 1.523 . S
H1441 C1416 0.950 . S
H1442 C1418 0.950 . S
H1443 C1419 0.949 . S
H1444 C1421 0.950 . S
H1445 C1423 0.950 . S
C1446 C1447 1.349 . S
C1446 C1448 1.327 . S
C1446 H1471 0.950 . S
C1447 C1446 1.349 . S
C1447 C1463 1.349 . S
C1448 C1446 1.327 . S
C1448 C1467 1.429 . S
C1448 H1472 0.950 . S
C1449 C1466 1.574 . S
C1449 C1468 1.368 . S
C1449 H1473 0.949 . S
H1450 C1454 0.949 . S
C1451 C1452 1.349 . S
C1451 C1453 1.327 . S
C1451 H1474 0.950 . S
C1452 C1451 1.349 . S
C1452 C1464 1.349 . S
C1453 C1451 1.327 . S
C1453 C1469 1.429 . S
C1453 H1475 0.950 . S
C1454 H1450 0.949 . S
C1454 C1462 1.574 . S
C1454 C1470 1.368 . S
H1455 C1463 0.950 . S
H1456 C1461 0.950 . S
H1457 C1462 0.949 . S
H1458 C1464 0.950 . S
H1459 C1465 0.950 . S
H1460 C1466 0.949 . S
C1461 H1456 0.950 . S
C1461 C1463 1.327 . S
C1461 C1467 1.429 . S
C1462 C1454 1.574 . S
C1462 H1457 0.949 . S
C1462 C1468 1.368 . S
C1463 C1447 1.349 . S
C1463 H1455 0.950 . S
C1463 C1461 1.327 . S
C1464 C1452 1.349 . S
C1464 H1458 0.950 . S
C1464 C1465 1.327 . S
C1465 H1459 0.950 . S
C1465 C1464 1.327 . S
C1465 C1469 1.429 . S
C1466 C1449 1.574 . S
C1466 H1460 0.949 . S
C1466 C1470 1.368 . S
C1467 C1448 1.429 . S
C1467 C1461 1.429 . S
C1467 C1468 1.523 . S
C1468 C1449 1.368 . S
C1468 C1462 1.368 . S
C1468 C1467 1.523 . S
C1469 C1453 1.429 . S
C1469 C1465 1.429 . S
C1469 C1470 1.523 . S
C1470 C1454 1.368 . S
C1470 C1466 1.368 . S
C1470 C1469 1.523 . S
H1471 C1446 0.950 . S
H1472 C1448 0.950 . S
H1473 C1449 0.949 . S
H1474 C1451 0.950 . S
H1475 C1453 0.950 . S
C1476 C1477 1.349 . S
C1476 C1478 1.327 . S
C1476 H1501 0.950 . S
C1477 C1476 1.349 . S
C1477 C1493 1.349 . S
C1478 C1476 1.327 . S
C1478 C1497 1.429 . S
C1478 H1502 0.950 . S
C1479 C1496 1.574 . S
C1479 C1498 1.368 . S
C1479 H1503 0.949 . S
H1480 C1484 0.949 . S
C1481 C1482 1.349 . S
C1481 C1483 1.327 . S
C1481 H1504 0.950 . S
C1482 C1481 1.349 . S
C1482 C1494 1.349 . S
C1483 C1481 1.327 . S
C1483 C1499 1.429 . S
C1483 H1505 0.950 . S
C1484 H1480 0.949 . S
C1484 C1492 1.574 . S
C1484 C1500 1.368 . S
H1485 C1493 0.950 . S
H1486 C1491 0.950 . S
H1487 C1492 0.949 . S
H1488 C1494 0.950 . S
H1489 C1495 0.950 . S
H1490 C1496 0.949 . S
C1491 H1486 0.950 . S
C1491 C1493 1.327 . S
C1491 C1497 1.429 . S
C1492 C1484 1.574 . S
C1492 H1487 0.949 . S
C1492 C1498 1.368 . S
C1493 C1477 1.349 . S
C1493 H1485 0.950 . S
C1493 C1491 1.327 . S
C1494 C1482 1.349 . S
C1494 H1488 0.950 . S
C1494 C1495 1.327 . S
C1495 H1489 0.950 . S
C1495 C1494 1.327 . S
C1495 C1499 1.429 . S
C1496 C1479 1.574 . S
C1496 H1490 0.949 . S
C1496 C1500 1.368 . S
C1497 C1478 1.429 . S
C1497 C1491 1.429 . S
C1497 C1498 1.523 . S
C1498 C1479 1.368 . S
C1498 C1492 1.368 . S
C1498 C1497 1.523 . S
C1499 C1483 1.429 . S
C1499 C1495 1.429 . S
C1499 C1500 1.523 . S
C1500 C1484 1.368 . S
C1500 C1496 1.368 . S
C1500 C1499 1.523 . S
H1501 C1476 0.950 . S
H1502 C1478 0.950 . S
H1503 C1479 0.949 . S
H1504 C1481 0.950 . S
H1505 C1483 0.950 . S
C1506 C1507 1.349 . S
C1506 C1508 1.327 . S
C1506 H1531 0.950 . S
C1507 C1506 1.349 . S
C1507 C1523 1.349 . S
C1508 C1506 1.327 . S
C1508 C1527 1.429 . S
C1508 H1532 0.950 . S
C1509 C1526 1.574 . S
C1509 C1528 1.368 1_545 S
C1509 H1533 0.949 . S
H1510 C1514 0.949 . S
C1511 C1512 1.349 . S
C1511 C1513 1.327 . S
C1511 H1534 0.950 . S
C1512 C1511 1.349 . S
C1512 C1524 1.349 . S
C1513 C1511 1.327 . S
C1513 C1529 1.429 . S
C1513 H1535 0.950 . S
C1514 H1510 0.949 . S
C1514 C1522 1.574 . S
C1514 C1530 1.368 1_565 S
H1515 C1523 0.950 . S
H1516 C1521 0.950 . S
H1517 C1522 0.949 . S
H1518 C1524 0.950 . S
H1519 C1525 0.950 . S
H1520 C1526 0.949 . S
C1521 H1516 0.950 . S
C1521 C1523 1.327 . S
C1521 C1527 1.429 . S
C1522 C1514 1.574 . S
C1522 H1517 0.949 . S
C1522 C1528 1.368 . S
C1523 C1507 1.349 . S
C1523 H1515 0.950 . S
C1523 C1521 1.327 . S
C1524 C1512 1.349 . S
C1524 H1518 0.950 . S
C1524 C1525 1.327 . S
C1525 H1519 0.950 . S
C1525 C1524 1.327 . S
C1525 C1529 1.429 . S
C1526 C1509 1.574 . S
C1526 H1520 0.949 . S
C1526 C1530 1.368 . S
C1527 C1508 1.429 . S
C1527 C1521 1.429 . S
C1527 C1528 1.523 . S
C1528 C1509 1.368 1_565 S
C1528 C1522 1.368 . S
C1528 C1527 1.523 . S
C1529 C1513 1.429 . S
C1529 C1525 1.429 . S
C1529 C1530 1.523 . S
C1530 C1514 1.368 1_545 S
C1530 C1526 1.368 . S
C1530 C1529 1.523 . S
H1531 C1506 0.950 . S
H1532 C1508 0.950 . S
H1533 C1509 0.949 . S
H1534 C1511 0.950 . S
H1535 C1513 0.950 . S
C1536 C1537 1.349 . S
C1536 C1538 1.327 . S
C1536 H1561 0.950 . S
C1537 C1536 1.349 . S
C1537 C1553 1.349 . S
C1538 C1536 1.327 . S
C1538 C1557 1.429 . S
C1538 H1562 0.950 . S
C1539 C1556 1.574 . S
C1539 C1558 1.368 1_455 S
C1539 H1563 0.949 . S
H1540 C1544 0.949 . S
C1541 C1542 1.349 . S
C1541 C1543 1.327 . S
C1541 H1564 0.950 . S
C1542 C1541 1.349 . S
C1542 C1554 1.349 . S
C1543 C1541 1.327 . S
C1543 C1559 1.429 . S
C1543 H1565 0.950 . S
C1544 H1540 0.949 . S
C1544 C1552 1.574 1_455 S
C1544 C1560 1.368 . S
H1545 C1553 0.950 . S
H1546 C1551 0.950 . S
H1547 C1552 0.949 . S
H1548 C1554 0.950 . S
H1549 C1555 0.950 . S
H1550 C1556 0.949 . S
C1551 H1546 0.950 . S
C1551 C1553 1.327 . S
C1551 C1557 1.429 . S
C1552 C1544 1.574 1_655 S
C1552 H1547 0.949 . S
C1552 C1558 1.368 . S
C1553 C1537 1.349 . S
C1553 H1545 0.950 . S
C1553 C1551 1.327 . S
C1554 C1542 1.349 . S
C1554 H1548 0.950 . S
C1554 C1555 1.327 . S
C1555 H1549 0.950 . S
C1555 C1554 1.327 . S
C1555 C1559 1.429 . S
C1556 C1539 1.574 . S
C1556 H1550 0.949 . S
C1556 C1560 1.368 . S
C1557 C1538 1.429 . S
C1557 C1551 1.429 . S
C1557 C1558 1.523 . S
C1558 C1539 1.368 1_655 S
C1558 C1552 1.368 . S
C1558 C1557 1.523 . S
C1559 C1543 1.429 . S
C1559 C1555 1.429 . S
C1559 C1560 1.523 . S
C1560 C1544 1.368 . S
C1560 C1556 1.368 . S
C1560 C1559 1.523 . S
H1561 C1536 0.950 . S
H1562 C1538 0.950 . S
H1563 C1539 0.949 . S
H1564 C1541 0.950 . S
H1565 C1543 0.950 . S
C757 C156 1.161 . S
C762 C67 1.308 1_554 S
C787 C240 1.161 . S
C792 C151 1.308 1_554 S
C817 C235 1.308 1_554 S
C822 C72 1.161 . S
C847 C231 1.140 . S
C852 C140 1.257 . S
C877 C224 1.257 . S
C882 C63 1.140 . S
C907 C56 1.257 . S
C912 C147 1.141 . S
C937 C319 1.313 . S
C942 C408 1.161 . S
C967 C492 1.161 . S
C972 C403 1.313 . S
C997 C487 1.313 . S
C1002 C324 1.153 1_545 S
C1027 C392 1.257 . S
C1032 C483 1.121 . S
C1057 C476 1.257 . S
C1062 C315 1.121 . S
C1087 C399 1.121 . S
C1092 C308 1.257 . S
C1117 C660 1.161 . S
C1122 C571 1.313 . S
C1147 C655 1.313 . S
C1152 C744 1.161 . S
C1177 C739 1.313 . S
C1182 C576 1.161 . S
C1207 C735 1.121 . S
C1212 C644 1.257 . S
C1237 C728 1.257 . S
C1242 C567 1.121 . S
C1267 C560 1.257 . S
C1272 C651 1.121 . S
C1297 C495 2.623 . S
C1302 C66 2.683 . S
C1327 C327 2.623 . S
C1332 C150 2.683 . S
C1357 C234 2.683 . S
C1362 C411 2.623 . S
C1387 C243 2.623 . S
C1392 C570 2.683 . S
C1417 C75 2.623 . S
C1422 C654 2.683 . S
C1447 C738 2.683 . S
C1452 C159 2.623 . S
C1477 C318 2.683 . S
C1482 C747 2.623 . S
C1507 C402 2.683 . S
C1512 C579 2.623 . S
C1537 C663 2.623 . S
C1542 C486 2.683 . S
