# Generated by pormake.
# Topology unw, (4)-cn, num edge types: 1
# Building blocks:
#     Node 0, Type 0, BuildingBlock: NAWXER_clean_sbu_0, # of connection points: 4
#     Node 1, Type 0, BuildingBlock: NAWXER_clean_sbu_0, # of connection points: 4
#     Node 2, Type 0, BuildingBlock: NAWXER_clean_sbu_0, # of connection points: 4
#     Node 3, Type 0, BuildingBlock: NAWXER_clean_sbu_0, # of connection points: 4
#     Node 4, Type 0, BuildingBlock: NAWXER_clean_sbu_0, # of connection points: 4
#     Node 5, Type 0, BuildingBlock: NAWXER_clean_sbu_0, # of connection points: 4
#     Node 6, Type 0, BuildingBlock: NAWXER_clean_sbu_0, # of connection points: 4
#     Node 7, Type 0, BuildingBlock: NAWXER_clean_sbu_0, # of connection points: 4
#     Node 8, Type 0, BuildingBlock: NAWXER_clean_sbu_0, # of connection points: 4
#     Node 9, Type 0, BuildingBlock: NAWXER_clean_sbu_0, # of connection points: 4
#     Node 10, Type 0, BuildingBlock: NAWXER_clean_sbu_0, # of connection points: 4
#     Node 11, Type 0, BuildingBlock: NAWXER_clean_sbu_0, # of connection points: 4
#     Node 12, Type 0, BuildingBlock: NAWXER_clean_sbu_0, # of connection points: 4
#     Node 13, Type 0, BuildingBlock: NAWXER_clean_sbu_0, # of connection points: 4
#     Node 14, Type 0, BuildingBlock: NAWXER_clean_sbu_0, # of connection points: 4
#     Node 15, Type 0, BuildingBlock: NAWXER_clean_sbu_0, # of connection points: 4
#     Node 16, Type 0, BuildingBlock: NAWXER_clean_sbu_0, # of connection points: 4
#     Node 17, Type 0, BuildingBlock: NAWXER_clean_sbu_0, # of connection points: 4
#     Node 18, Type 0, BuildingBlock: NAWXER_clean_sbu_0, # of connection points: 4
#     Node 19, Type 0, BuildingBlock: NAWXER_clean_sbu_0, # of connection points: 4
#     Node 20, Type 0, BuildingBlock: NAWXER_clean_sbu_0, # of connection points: 4
#     Node 21, Type 0, BuildingBlock: NAWXER_clean_sbu_0, # of connection points: 4
#     Node 22, Type 0, BuildingBlock: NAWXER_clean_sbu_0, # of connection points: 4
#     Node 23, Type 0, BuildingBlock: NAWXER_clean_sbu_0, # of connection points: 4
#     Edge 24, Type (0, 0), BuildingBlock: OJICUG_clean_linker_0, # of connection points: 2
#     Edge 25, Type (0, 0), BuildingBlock: OJICUG_clean_linker_0, # of connection points: 2
#     Edge 26, Type (0, 0), BuildingBlock: OJICUG_clean_linker_0, # of connection points: 2
#     Edge 27, Type (0, 0), BuildingBlock: OJICUG_clean_linker_0, # of connection points: 2
#     Edge 28, Type (0, 0), BuildingBlock: OJICUG_clean_linker_0, # of connection points: 2
#     Edge 29, Type (0, 0), BuildingBlock: OJICUG_clean_linker_0, # of connection points: 2
#     Edge 30, Type (0, 0), BuildingBlock: OJICUG_clean_linker_0, # of connection points: 2
#     Edge 31, Type (0, 0), BuildingBlock: OJICUG_clean_linker_0, # of connection points: 2
#     Edge 32, Type (0, 0), BuildingBlock: OJICUG_clean_linker_0, # of connection points: 2
#     Edge 33, Type (0, 0), BuildingBlock: OJICUG_clean_linker_0, # of connection points: 2
#     Edge 34, Type (0, 0), BuildingBlock: OJICUG_clean_linker_0, # of connection points: 2
#     Edge 35, Type (0, 0), BuildingBlock: OJICUG_clean_linker_0, # of connection points: 2
#     Edge 36, Type (0, 0), BuildingBlock: OJICUG_clean_linker_0, # of connection points: 2
#     Edge 37, Type (0, 0), BuildingBlock: OJICUG_clean_linker_0, # of connection points: 2
#     Edge 38, Type (0, 0), BuildingBlock: OJICUG_clean_linker_0, # of connection points: 2
#     Edge 39, Type (0, 0), BuildingBlock: OJICUG_clean_linker_0, # of connection points: 2
#     Edge 40, Type (0, 0), BuildingBlock: OJICUG_clean_linker_0, # of connection points: 2
#     Edge 41, Type (0, 0), BuildingBlock: OJICUG_clean_linker_0, # of connection points: 2
#     Edge 42, Type (0, 0), BuildingBlock: OJICUG_clean_linker_0, # of connection points: 2
#     Edge 43, Type (0, 0), BuildingBlock: OJICUG_clean_linker_0, # of connection points: 2
#     Edge 44, Type (0, 0), BuildingBlock: OJICUG_clean_linker_0, # of connection points: 2
#     Edge 45, Type (0, 0), BuildingBlock: OJICUG_clean_linker_0, # of connection points: 2
#     Edge 46, Type (0, 0), BuildingBlock: OJICUG_clean_linker_0, # of connection points: 2
#     Edge 47, Type (0, 0), BuildingBlock: OJICUG_clean_linker_0, # of connection points: 2
#     Edge 48, Type (0, 0), BuildingBlock: OJICUG_clean_linker_0, # of connection points: 2
#     Edge 49, Type (0, 0), BuildingBlock: OJICUG_clean_linker_0, # of connection points: 2
#     Edge 50, Type (0, 0), BuildingBlock: OJICUG_clean_linker_0, # of connection points: 2
#     Edge 51, Type (0, 0), BuildingBlock: OJICUG_clean_linker_0, # of connection points: 2
#     Edge 52, Type (0, 0), BuildingBlock: OJICUG_clean_linker_0, # of connection points: 2
#     Edge 53, Type (0, 0), BuildingBlock: OJICUG_clean_linker_0, # of connection points: 2
#     Edge 54, Type (0, 0), BuildingBlock: OJICUG_clean_linker_0, # of connection points: 2
#     Edge 55, Type (0, 0), BuildingBlock: OJICUG_clean_linker_0, # of connection points: 2
#     Edge 56, Type (0, 0), BuildingBlock: OJICUG_clean_linker_0, # of connection points: 2
#     Edge 57, Type (0, 0), BuildingBlock: OJICUG_clean_linker_0, # of connection points: 2
#     Edge 58, Type (0, 0), BuildingBlock: OJICUG_clean_linker_0, # of connection points: 2
#     Edge 59, Type (0, 0), BuildingBlock: OJICUG_clean_linker_0, # of connection points: 2
#     Edge 60, Type (0, 0), BuildingBlock: OJICUG_clean_linker_0, # of connection points: 2
#     Edge 61, Type (0, 0), BuildingBlock: OJICUG_clean_linker_0, # of connection points: 2
#     Edge 62, Type (0, 0), BuildingBlock: OJICUG_clean_linker_0, # of connection points: 2
#     Edge 63, Type (0, 0), BuildingBlock: OJICUG_clean_linker_0, # of connection points: 2
#     Edge 64, Type (0, 0), BuildingBlock: OJICUG_clean_linker_0, # of connection points: 2
#     Edge 65, Type (0, 0), BuildingBlock: OJICUG_clean_linker_0, # of connection points: 2
#     Edge 66, Type (0, 0), BuildingBlock: OJICUG_clean_linker_0, # of connection points: 2
#     Edge 67, Type (0, 0), BuildingBlock: OJICUG_clean_linker_0, # of connection points: 2
#     Edge 68, Type (0, 0), BuildingBlock: OJICUG_clean_linker_0, # of connection points: 2
#     Edge 69, Type (0, 0), BuildingBlock: OJICUG_clean_linker_0, # of connection points: 2
#     Edge 70, Type (0, 0), BuildingBlock: OJICUG_clean_linker_0, # of connection points: 2
#     Edge 71, Type (0, 0), BuildingBlock: OJICUG_clean_linker_0, # of connection points: 2
# Relax obj value: 0.404
# Max RMSD: 0.268
# Mean RMSD: 0.268
data_MOF--net-unw--node1-NAWXER_clean_sbu_0--edge1-OJICUG_clean_linker_0
_symmetry_space_group_name_H-M    P1
_symmetry_Int_Tables_number       1
_symmetry_cell_setting            triclinic
loop_
_symmetry_equiv_pos_as_xyz
'x, y, z'
_cell_length_a     34.786833
_cell_length_b     34.786292
_cell_length_c     34.776984
_cell_angle_alpha  89.984668
_cell_angle_beta   90.023421
_cell_angle_gamma 89.967386
loop_
_atom_site_label
_atom_site_type_symbol
_atom_site_fract_x
_atom_site_fract_y
_atom_site_fract_z
_atom_type_partial_charge
C0 C 0.17319 0.35149 0.19969 0.0
C1 C 0.05074 0.35719 0.2684 0.0
O2 O 0.14096 0.34111 0.18544 0.0
Zn3 Zn 0.1101 0.36157 0.22774 0.0
O4 O 0.17436 0.36756 0.23266 0.0
Zn5 Zn 0.13713 0.38647 0.27707 0.0
O6 O 0.15835 0.35381 0.31752 0.0
O7 O 0.12984 0.32239 0.27018 0.0
O8 O 0.07782 0.37365 0.28715 0.0
O9 O 0.05523 0.3508 0.23261 0.0
O10 O 0.12402 0.42096 0.2192 0.0
O11 O 0.14907 0.44118 0.27371 0.0
C12 C 0.14709 0.32221 0.30258 0.0
C13 C 0.1418 0.44698 0.23827 0.0
C14 C 0.64724 0.18119 0.20035 0.0
C15 C 0.64209 0.05667 0.2651 0.0
O16 O 0.65838 0.1495 0.18549 0.0
Zn17 Zn 0.6373 0.11706 0.22612 0.0
O18 O 0.63009 0.18117 0.2328 0.0
Zn19 Zn 0.61051 0.14217 0.27545 0.0
O20 O 0.64154 0.16274 0.31756 0.0
O21 O 0.67476 0.13608 0.27033 0.0
O22 O 0.62444 0.08279 0.28415 0.0
O23 O 0.64921 0.06233 0.22962 0.0
O24 O 0.57794 0.12993 0.21622 0.0
O25 O 0.55561 0.15297 0.27078 0.0
C26 C 0.67372 0.15229 0.30324 0.0
C27 C 0.55093 0.14645 0.23504 0.0
C28 C 0.95082 0.64578 0.27035 0.0
C29 C 0.82821 0.65196 0.20192 0.0
O30 O 0.9462 0.65215 0.23457 0.0
Zn31 Zn 0.89129 0.64165 0.22992 0.0
O32 O 0.92374 0.62947 0.28923 0.0
Zn33 Zn 0.86433 0.61681 0.27926 0.0
O34 O 0.85216 0.56212 0.27588 0.0
O35 O 0.87717 0.58234 0.22136 0.0
O36 O 0.82701 0.63589 0.2349 0.0
O37 O 0.86047 0.66219 0.18765 0.0
O38 O 0.87174 0.68089 0.27238 0.0
O39 O 0.84327 0.64946 0.31973 0.0
C40 C 0.85934 0.55636 0.24043 0.0
C41 C 0.85451 0.68107 0.30478 0.0
C42 C 0.32796 0.8514 0.30104 0.0
C43 C 0.4505 0.85777 0.2326 0.0
O44 O 0.36027 0.8413 0.31534 0.0
Zn45 Zn 0.39097 0.8618 0.27299 0.0
O46 O 0.32667 0.86735 0.268 0.0
Zn47 Zn 0.36387 0.88643 0.22359 0.0
O48 O 0.34295 0.85361 0.1832 0.0
O49 O 0.37155 0.82238 0.23065 0.0
O50 O 0.42333 0.87393 0.21366 0.0
O51 O 0.44591 0.85148 0.26839 0.0
O52 O 0.37657 0.92107 0.28138 0.0
O53 O 0.35141 0.94108 0.22682 0.0
C54 C 0.35432 0.82207 0.19823 0.0
C55 C 0.35858 0.94694 0.26226 0.0
C56 C 0.15004 0.68012 0.69915 0.0
C57 C 0.1429 0.55575 0.76397 0.0
O58 O 0.1606 0.64823 0.68428 0.0
Zn59 Zn 0.13912 0.61623 0.72505 0.0
O60 O 0.13304 0.68042 0.73168 0.0
Zn61 Zn 0.11294 0.64179 0.77443 0.0
O62 O 0.14444 0.6618 0.81641 0.0
O63 O 0.17711 0.63465 0.76909 0.0
O64 O 0.12582 0.58218 0.78311 0.0
O65 O 0.15001 0.5613 0.72848 0.0
O66 O 0.07996 0.63021 0.71536 0.0
O67 O 0.05823 0.65361 0.77 0.0
C68 C 0.17643 0.6509 0.80199 0.0
C69 C 0.05332 0.64722 0.73427 0.0
C70 C 0.32877 0.15095 0.69976 0.0
C71 C 0.45208 0.14739 0.7672 0.0
O72 O 0.36062 0.16218 0.68531 0.0
Zn73 Zn 0.39245 0.14192 0.727 0.0
O74 O 0.32834 0.1344 0.73252 0.0
Zn75 Zn 0.36654 0.11583 0.77632 0.0
O76 O 0.34497 0.14746 0.81737 0.0
O77 O 0.37227 0.18007 0.77011 0.0
O78 O 0.4256 0.13 0.78597 0.0
O79 O 0.4471 0.15407 0.73152 0.0
O80 O 0.37988 0.08229 0.71792 0.0
O81 O 0.35602 0.0609 0.77252 0.0
C82 C 0.35538 0.17947 0.80268 0.0
C83 C 0.36303 0.05564 0.73695 0.0
C84 C 0.85496 0.32312 0.70169 0.0
C85 C 0.86293 0.44715 0.76702 0.0
O86 O 0.84465 0.35514 0.6869 0.0
Zn87 Zn 0.86626 0.38679 0.7279 0.0
O88 O 0.8718 0.32255 0.7343 0.0
Zn89 Zn 0.8921 0.36077 0.77731 0.0
O90 O 0.86022 0.34085 0.81906 0.0
O91 O 0.828 0.36853 0.77171 0.0
O92 O 0.87971 0.4205 0.78616 0.0
O93 O 0.85592 0.44178 0.73147 0.0
O94 O 0.92527 0.37232 0.71835 0.0
O95 O 0.94672 0.34832 0.77288 0.0
C96 C 0.8284 0.35213 0.80455 0.0
C97 C 0.95169 0.35486 0.73717 0.0
C98 C 0.64271 0.94778 0.73955 0.0
C99 C 0.64995 0.82348 0.80451 0.0
O100 O 0.64986 0.94228 0.77505 0.0
Zn101 Zn 0.63896 0.88737 0.77859 0.0
O102 O 0.62558 0.92135 0.72046 0.0
Zn103 Zn 0.61272 0.86177 0.72923 0.0
O104 O 0.55802 0.85 0.73372 0.0
O105 O 0.57981 0.87345 0.78833 0.0
O106 O 0.6329 0.82317 0.772 0.0
O107 O 0.66053 0.85537 0.81936 0.0
O108 O 0.67689 0.86887 0.73454 0.0
O109 O 0.6442 0.84169 0.68726 0.0
C110 C 0.55316 0.85642 0.76945 0.0
C111 C 0.67619 0.8526 0.70165 0.0
C112 C 0.1975 0.17356 0.35077 0.0
C113 C 0.2651 0.05035 0.35459 0.0
O114 O 0.1831 0.14167 0.33961 0.0
Zn115 Zn 0.2248 0.10994 0.35997 0.0
O116 O 0.23023 0.17407 0.36736 0.0
Zn117 Zn 0.27405 0.13595 0.38601 0.0
O118 O 0.31507 0.15752 0.35439 0.0
O119 O 0.26788 0.13012 0.32176 0.0
O120 O 0.2838 0.0769 0.37194 0.0
O121 O 0.22943 0.05525 0.34788 0.0
O122 O 0.21571 0.12264 0.41963 0.0
O123 O 0.27032 0.1465 0.44093 0.0
C124 C 0.30042 0.14706 0.32236 0.0
C125 C 0.23478 0.1395 0.44626 0.0
C126 C 0.94608 0.26551 0.36103 0.0
C127 C 0.82158 0.20094 0.35523 0.0
O128 O 0.94042 0.23004 0.35391 0.0
Zn129 Zn 0.88566 0.22665 0.36553 0.0
O130 O 0.91991 0.28461 0.37856 0.0
Zn131 Zn 0.86047 0.27596 0.39222 0.0
O132 O 0.84942 0.2713 0.44707 0.0
O133 O 0.8725 0.21673 0.42482 0.0
O134 O 0.82151 0.23338 0.37238 0.0
O135 O 0.85333 0.18606 0.34426 0.0
O136 O 0.86678 0.27088 0.32797 0.0
O137 O 0.84006 0.3181 0.36114 0.0
C138 C 0.85586 0.23555 0.45175 0.0
C139 C 0.85059 0.3038 0.32898 0.0
C140 C 0.76518 0.86214 0.44792 0.0
C141 C 0.70008 0.85575 0.3236 0.0
O142 O 0.7297 0.85497 0.44241 0.0
Zn143 Zn 0.72604 0.86627 0.38757 0.0
O144 O 0.78417 0.87951 0.42156 0.0
Zn145 Zn 0.77531 0.89278 0.36204 0.0
O146 O 0.77059 0.94756 0.35062 0.0
O147 O 0.71614 0.92549 0.37409 0.0
O148 O 0.73254 0.87285 0.32339 0.0
O149 O 0.6853 0.84487 0.35541 0.0
O150 O 0.77016 0.82859 0.36881 0.0
O151 O 0.81732 0.86146 0.34168 0.0
C152 C 0.73487 0.95229 0.35717 0.0
C153 C 0.80301 0.82941 0.3525 0.0
C154 C 0.18086 0.80231 0.35445 0.0
C155 C 0.05686 0.73697 0.36189 0.0
O156 O 0.14886 0.81705 0.34402 0.0
Zn157 Zn 0.11717 0.77609 0.36554 0.0
O158 O 0.18141 0.76974 0.37138 0.0
Zn159 Zn 0.14308 0.72676 0.39154 0.0
O160 O 0.16326 0.685 0.35988 0.0
O161 O 0.13573 0.73225 0.32738 0.0
O162 O 0.08344 0.71784 0.37879 0.0
O163 O 0.06225 0.77251 0.3549 0.0
O164 O 0.13132 0.78572 0.42465 0.0
O165 O 0.15512 0.73117 0.44624 0.0
C166 C 0.1522 0.69945 0.32794 0.0
C167 C 0.14858 0.76687 0.45119 0.0
C168 C 0.20303 0.82762 0.65062 0.0
C169 C 0.27145 0.95019 0.64511 0.0
O170 O 0.18879 0.85984 0.66105 0.0
Zn171 Zn 0.23101 0.89074 0.64064 0.0
O172 O 0.23597 0.82648 0.6345 0.0
Zn173 Zn 0.2803 0.86384 0.61559 0.0
O174 O 0.3208 0.84253 0.6481 0.0
O175 O 0.27352 0.87093 0.67971 0.0
O176 O 0.29031 0.92318 0.62862 0.0
O177 O 0.23569 0.94557 0.65147 0.0
O178 O 0.22236 0.87697 0.58125 0.0
O179 O 0.27681 0.85199 0.56082 0.0
C180 C 0.30591 0.85366 0.67978 0.0
C181 C 0.24137 0.85926 0.55514 0.0
C182 C 0.14359 0.23103 0.55235 0.0
C183 C 0.15025 0.30059 0.67429 0.0
O184 O 0.14978 0.26687 0.55661 0.0
Zn185 Zn 0.13973 0.27197 0.61156 0.0
O186 O 0.12762 0.21229 0.57974 0.0
Zn187 Zn 0.1153 0.22276 0.63917 0.0
O188 O 0.06067 0.22611 0.65179 0.0
O189 O 0.08049 0.28041 0.62603 0.0
O190 O 0.13437 0.26756 0.67588 0.0
O191 O 0.16029 0.31461 0.64185 0.0
O192 O 0.1793 0.22988 0.63127 0.0
O193 O 0.14834 0.18268 0.66047 0.0
C194 C 0.05473 0.26147 0.64429 0.0
C195 C 0.17979 0.19767 0.64886 0.0
C196 C 0.69961 0.14964 0.68135 0.0
C197 C 0.76421 0.1434 0.55686 0.0
O198 O 0.68474 0.1605 0.64955 0.0
Zn199 Zn 0.72535 0.13911 0.61733 0.0
O200 O 0.73205 0.13247 0.6815 0.0
Zn201 Zn 0.77466 0.1125 0.64261 0.0
O202 O 0.81676 0.14359 0.66294 0.0
O203 O 0.76955 0.17674 0.63613 0.0
O204 O 0.78333 0.12599 0.58312 0.0
O205 O 0.72873 0.15054 0.5625 0.0
O206 O 0.71546 0.07987 0.63078 0.0
O207 O 0.77008 0.05771 0.65385 0.0
C208 C 0.80245 0.17574 0.65236 0.0
C209 C 0.73433 0.05299 0.64749 0.0
C210 C 0.85334 0.70202 0.6756 0.0
C211 C 0.85756 0.77004 0.55263 0.0
O212 O 0.84248 0.68769 0.64356 0.0
Zn213 Zn 0.86265 0.72971 0.61218 0.0
O214 O 0.86959 0.73489 0.67639 0.0
Zn215 Zn 0.88818 0.77902 0.63862 0.0
O216 O 0.85606 0.81973 0.66011 0.0
O217 O 0.82401 0.77245 0.63222 0.0
O218 O 0.87449 0.78886 0.57939 0.0
O219 O 0.85109 0.73432 0.55743 0.0
O220 O 0.92218 0.72092 0.62525 0.0
O221 O 0.94306 0.77539 0.64978 0.0
C222 C 0.82423 0.80491 0.64932 0.0
C223 C 0.94857 0.73991 0.64255 0.0
C224 C 0.34973 0.19962 0.17488 0.0
C225 C 0.35522 0.26725 0.05178 0.0
O226 O 0.33928 0.18519 0.14275 0.0
Zn227 Zn 0.35975 0.22712 0.11151 0.0
O228 O 0.36598 0.2325 0.17578 0.0
Zn229 Zn 0.38497 0.27649 0.138 0.0
O230 O 0.35269 0.3173 0.15895 0.0
O231 O 0.32084 0.26991 0.13104 0.0
O232 O 0.37188 0.28614 0.07865 0.0
O233 O 0.34872 0.23154 0.05661 0.0
O234 O 0.4192 0.21843 0.12526 0.0
O235 O 0.43973 0.27309 0.14966 0.0
C236 C 0.32094 0.30245 0.148 0.0
C237 C 0.4454 0.23759 0.14267 0.0
C238 C 0.3244 0.6987 0.85435 0.0
C239 C 0.44859 0.76383 0.86128 0.0
O240 O 0.35627 0.68391 0.84361 0.0
Zn241 Zn 0.38828 0.72466 0.86516 0.0
O242 O 0.3241 0.73117 0.87144 0.0
Zn243 Zn 0.36263 0.77395 0.89155 0.0
O244 O 0.34238 0.81594 0.86013 0.0
O245 O 0.36962 0.76876 0.82735 0.0
O246 O 0.42215 0.78282 0.87854 0.0
O247 O 0.44316 0.72834 0.85409 0.0
O248 O 0.37452 0.71479 0.92435 0.0
O249 O 0.35099 0.76931 0.94628 0.0
C250 C 0.35329 0.80161 0.82811 0.0
C251 C 0.3575 0.73358 0.95107 0.0
C252 C 0.23428 0.44992 0.85574 0.0
C253 C 0.3022 0.32695 0.85105 0.0
O254 O 0.27002 0.44509 0.84939 0.0
Zn255 Zn 0.27445 0.39027 0.86061 0.0
O256 O 0.21533 0.42309 0.87239 0.0
Zn257 Zn 0.22505 0.3638 0.88576 0.0
O258 O 0.2283 0.35231 0.94059 0.0
O259 O 0.28294 0.37679 0.92014 0.0
O260 O 0.26923 0.32605 0.86712 0.0
O261 O 0.31658 0.35906 0.8405 0.0
O262 O 0.23189 0.37045 0.82158 0.0
O263 O 0.18444 0.34263 0.85342 0.0
C264 C 0.26376 0.3594 0.94633 0.0
C265 C 0.19939 0.35341 0.82165 0.0
C266 C 0.67974 0.30514 0.85551 0.0
C267 C 0.55534 0.24023 0.8603 0.0
O268 O 0.64809 0.31998 0.84419 0.0
Zn269 Zn 0.61561 0.27935 0.86527 0.0
O270 O 0.67969 0.27271 0.8727 0.0
Zn271 Zn 0.64073 0.23006 0.89221 0.0
O272 O 0.66143 0.18795 0.86129 0.0
O273 O 0.63483 0.23513 0.82793 0.0
O274 O 0.58144 0.22128 0.87813 0.0
O275 O 0.56092 0.27571 0.85313 0.0
O276 O 0.62834 0.28929 0.92469 0.0
O277 O 0.65135 0.23474 0.94712 0.0
C278 C 0.65105 0.20224 0.82905 0.0
C279 C 0.64484 0.27048 0.95174 0.0
C280 C 0.70315 0.67591 0.85286 0.0
C281 C 0.77152 0.5532 0.85838 0.0
O282 O 0.6889 0.64372 0.84239 0.0
Zn283 Zn 0.73111 0.61273 0.86281 0.0
O284 O 0.73609 0.67698 0.86902 0.0
Zn285 Zn 0.78039 0.63953 0.88796 0.0
O286 O 0.82092 0.66082 0.85553 0.0
O287 O 0.77365 0.63252 0.82382 0.0
O288 O 0.79038 0.58018 0.8749 0.0
O289 O 0.73577 0.55789 0.85196 0.0
O290 O 0.72241 0.62646 0.9222 0.0
O291 O 0.77685 0.65135 0.94274 0.0
C292 C 0.80604 0.64975 0.82382 0.0
C293 C 0.7414 0.64413 0.94836 0.0
C294 C 0.68091 0.70128 0.1489 0.0
C295 C 0.55678 0.76653 0.14136 0.0
O296 O 0.64895 0.68651 0.15934 0.0
Zn297 Zn 0.61717 0.72745 0.1378 0.0
O298 O 0.68138 0.73384 0.13197 0.0
Zn299 Zn 0.64297 0.77678 0.11177 0.0
O300 O 0.66307 0.81858 0.14343 0.0
O301 O 0.63565 0.77133 0.17594 0.0
O302 O 0.58332 0.78566 0.12445 0.0
O303 O 0.56223 0.73101 0.14841 0.0
O304 O 0.63129 0.71779 0.0787 0.0
O305 O 0.65502 0.77232 0.05708 0.0
C306 C 0.65204 0.80414 0.17537 0.0
C307 C 0.64852 0.73663 0.05215 0.0
C308 C 0.20011 0.64779 0.17969 0.0
C309 C 0.26496 0.64127 0.05531 0.0
O310 O 0.18529 0.65873 0.14789 0.0
Zn311 Zn 0.22589 0.63716 0.11568 0.0
O312 O 0.23252 0.63056 0.17985 0.0
Zn313 Zn 0.27515 0.61046 0.14114 0.0
O314 O 0.31729 0.64161 0.16147 0.0
O315 O 0.27015 0.67465 0.13439 0.0
O316 O 0.28394 0.62378 0.08162 0.0
O317 O 0.22949 0.64852 0.06084 0.0
O318 O 0.21584 0.57798 0.12917 0.0
O319 O 0.2703 0.55569 0.15253 0.0
C320 C 0.30304 0.67371 0.15065 0.0
C321 C 0.23455 0.5511 0.14605 0.0
C322 C 0.73635 0.3626 0.05704 0.0
C323 C 0.80154 0.35593 0.18127 0.0
O324 O 0.77187 0.35554 0.06253 0.0
Zn325 Zn 0.77545 0.3666 0.11739 0.0
O326 O 0.71727 0.3798 0.08344 0.0
Zn327 Zn 0.72613 0.39292 0.14302 0.0
O328 O 0.73073 0.44768 0.15466 0.0
O329 O 0.7852 0.42576 0.13105 0.0
O330 O 0.76901 0.37293 0.18159 0.0
O331 O 0.81631 0.34522 0.14939 0.0
O332 O 0.73148 0.32874 0.13609 0.0
O333 O 0.68425 0.36147 0.16333 0.0
C334 C 0.76643 0.45247 0.1481 0.0
C335 C 0.69864 0.32947 0.15244 0.0
C336 C 0.22468 0.50929 0.2041 0.0
C337 C 0.2121 0.52156 0.16762 0.0
H338 H 0.21175 0.47805 0.25566 0.0
C339 C 0.1748 0.51115 0.1558 0.0
H340 H 0.25275 0.5176 0.21472 0.0
C341 C 0.15113 0.48842 0.17943 0.0
C342 C 0.16357 0.47661 0.21613 0.0
H343 H 0.1638 0.52078 0.12829 0.0
H344 H 0.12312 0.47987 0.16887 0.0
C345 C 0.20067 0.48748 0.22812 0.0
C346 C 0.50871 0.20417 0.22518 0.0
C347 C 0.52103 0.16769 0.21272 0.0
H348 H 0.47709 0.25549 0.2122 0.0
C349 C 0.51026 0.15557 0.1756 0.0
H350 H 0.51729 0.21501 0.25309 0.0
C351 C 0.48712 0.17892 0.15202 0.0
C352 C 0.47528 0.21564 0.16432 0.0
H353 H 0.51992 0.12804 0.16471 0.0
H354 H 0.4783 0.16815 0.12416 0.0
C355 C 0.48652 0.22792 0.20122 0.0
C356 C 0.82609 0.49252 0.15784 0.0
C357 C 0.78885 0.482 0.16973 0.0
H358 H 0.87778 0.52377 0.17089 0.0
C359 C 0.77638 0.49408 0.20629 0.0
H360 H 0.837 0.48303 0.13026 0.0
C361 C 0.80046 0.51582 0.23033 0.0
C362 C 0.8375 0.52678 0.21828 0.0
H363 H 0.74837 0.48567 0.21696 0.0
H364 H 0.78947 0.52512 0.25794 0.0
C365 C 0.84981 0.51515 0.1815 0.0
C366 C 0.51478 0.82513 0.15004 0.0
C367 C 0.52668 0.78852 0.16263 0.0
H368 H 0.48169 0.87594 0.16225 0.0
C369 C 0.51529 0.77638 0.19952 0.0
H370 H 0.52373 0.83578 0.12218 0.0
C371 C 0.49291 0.80018 0.22322 0.0
C372 C 0.48052 0.83654 0.21048 0.0
H373 H 0.52476 0.7489 0.21072 0.0
H374 H 0.48425 0.78945 0.25114 0.0
C375 C 0.49141 0.84851 0.17335 0.0
C376 C 0.17503 0.49074 0.84618 0.0
C377 C 0.21215 0.47981 0.83428 0.0
H378 H 0.1238 0.52291 0.83328 0.0
C379 C 0.22486 0.49202 0.79785 0.0
H380 H 0.16395 0.48116 0.87367 0.0
C381 C 0.20113 0.51428 0.77394 0.0
C382 C 0.16422 0.52569 0.78601 0.0
H383 H 0.25279 0.48332 0.78718 0.0
H384 H 0.2123 0.52364 0.74642 0.0
C385 C 0.15166 0.51394 0.82267 0.0
C386 C 0.51475 0.23003 0.80142 0.0
C387 C 0.5259 0.21794 0.83843 0.0
H388 H 0.48461 0.21659 0.7493 0.0
C389 C 0.51461 0.18102 0.85064 0.0
H390 H 0.52378 0.25775 0.7905 0.0
C391 C 0.49216 0.15727 0.82685 0.0
C392 C 0.48145 0.16919 0.78965 0.0
H393 H 0.52339 0.17038 0.87857 0.0
H394 H 0.48295 0.12957 0.83769 0.0
C395 C 0.49318 0.2059 0.77728 0.0
C396 C 0.83077 0.51226 0.84912 0.0
C397 C 0.79372 0.5233 0.83705 0.0
H398 H 0.88192 0.47986 0.83648 0.0
C399 C 0.78111 0.51114 0.80056 0.0
H400 H 0.84176 0.52179 0.87666 0.0
C401 C 0.80486 0.48882 0.77677 0.0
C402 C 0.84168 0.47726 0.78901 0.0
H403 H 0.75325 0.51992 0.78976 0.0
H404 H 0.79376 0.47952 0.7492 0.0
C405 C 0.85413 0.48895 0.82573 0.0
C406 C 0.5127 0.84652 0.82886 0.0
C407 C 0.52358 0.8347 0.79169 0.0
H408 H 0.48089 0.83339 0.88023 0.0
C409 C 0.51168 0.79815 0.77905 0.0
H410 H 0.52204 0.8741 0.83989 0.0
C411 C 0.48975 0.77407 0.80289 0.0
C412 C 0.47838 0.78606 0.83984 0.0
H413 H 0.52036 0.78754 0.75109 0.0
H414 H 0.48061 0.74646 0.79176 0.0
C415 C 0.48984 0.82282 0.85233 0.0
C416 C 0.20093 0.2216 0.50966 0.0
C417 C 0.16474 0.20876 0.52238 0.0
H418 H 0.25206 0.20916 0.47762 0.0
C419 C 0.15293 0.17149 0.51182 0.0
H420 H 0.21154 0.24965 0.51804 0.0
C421 C 0.1763 0.14815 0.48845 0.0
C422 C 0.21276 0.16084 0.47627 0.0
H423 H 0.12564 0.16032 0.52179 0.0
H424 H 0.16578 0.12017 0.47975 0.0
C425 C 0.22472 0.19788 0.48733 0.0
C426 C 0.77412 0.20196 0.51585 0.0
C427 C 0.78624 0.16498 0.52702 0.0
H428 H 0.78729 0.25384 0.48526 0.0
C429 C 0.82292 0.15254 0.51524 0.0
H430 H 0.74658 0.21305 0.52525 0.0
C431 C 0.84641 0.17607 0.49223 0.0
C432 C 0.83446 0.21326 0.48153 0.0
H433 H 0.83357 0.12461 0.52402 0.0
H434 H 0.87391 0.16507 0.48261 0.0
C435 C 0.79801 0.22586 0.49379 0.0
C436 C 0.77535 0.80366 0.48901 0.0
C437 C 0.78738 0.84062 0.47772 0.0
H438 H 0.78874 0.75181 0.51959 0.0
C439 C 0.82413 0.85305 0.48929 0.0
H440 H 0.74776 0.79258 0.47978 0.0
C441 C 0.84778 0.82952 0.51219 0.0
C442 C 0.83592 0.79235 0.523 0.0
H443 H 0.83472 0.88095 0.48041 0.0
H444 H 0.87534 0.84051 0.52163 0.0
C445 C 0.79938 0.77977 0.51097 0.0
C446 C 0.20697 0.7766 0.49259 0.0
C447 C 0.17037 0.78918 0.48068 0.0
H448 H 0.25873 0.78949 0.52353 0.0
C449 C 0.15858 0.82641 0.49137 0.0
H450 H 0.21756 0.74859 0.48406 0.0
C451 C 0.18233 0.85002 0.51401 0.0
C452 C 0.21913 0.83759 0.5255 0.0
H453 H 0.13097 0.8374 0.48201 0.0
H454 H 0.17179 0.87798 0.52277 0.0
C455 C 0.2311 0.80056 0.51435 0.0
C456 C 0.70103 0.98904 0.72949 0.0
C457 C 0.66408 0.97772 0.71745 0.0
H458 H 0.75277 0.01974 0.71617 0.0
C459 C 0.65154 0.98942 0.68075 0.0
H460 H 0.71219 0.97971 0.75704 0.0
C461 C 0.67495 0.01246 0.65717 0.0
C462 C 0.71212 0.02327 0.66904 0.0
H463 H 0.62364 0.98052 0.67015 0.0
H464 H 0.66389 0.02199 0.62965 0.0
C465 C 0.72481 0.01112 0.70552 0.0
C466 C 0.98978 0.72962 0.70095 0.0
C467 C 0.97842 0.71768 0.66397 0.0
H468 H 0.02042 0.71607 0.75274 0.0
C469 C 0.98994 0.68095 0.65142 0.0
H470 H 0.98058 0.7572 0.71212 0.0
C471 C 0.01283 0.65722 0.67486 0.0
C472 C 0.0237 0.66898 0.71206 0.0
H473 H 0.98101 0.67043 0.6235 0.0
H474 H 0.02221 0.62967 0.66379 0.0
C475 C 0.01175 0.7055 0.72476 0.0
C476 C 0.35417 0.01407 0.6781 0.0
C477 C 0.3417 0.0257 0.71482 0.0
H478 H 0.34179 0.98141 0.62705 0.0
C479 C 0.30483 0.01425 0.72695 0.0
H480 H 0.38201 0.02307 0.66745 0.0
C481 C 0.28105 0.9921 0.70303 0.0
C482 C 0.29368 0.97999 0.66654 0.0
H483 H 0.29371 0.02352 0.75452 0.0
H484 H 0.25315 0.98339 0.71375 0.0
C485 C 0.33078 0.99092 0.65458 0.0
C486 C 0.01373 0.32054 0.65368 0.0
C487 C 0.0253 0.2838 0.66617 0.0
H488 H 0.98197 0.37203 0.66633 0.0
C489 C 0.0145 0.27204 0.70338 0.0
H490 H 0.02224 0.33094 0.62558 0.0
C491 C 0.99298 0.29633 0.72743 0.0
C492 C 0.98099 0.33288 0.71477 0.0
H493 H 0.02376 0.24446 0.71451 0.0
H494 H 0.98468 0.28589 0.75557 0.0
C495 C 0.99138 0.34447 0.67739 0.0
C496 C 0.72491 0.99404 0.29909 0.0
C497 C 0.71245 0.98192 0.33564 0.0
H498 H 0.71184 0.02522 0.2475 0.0
C499 C 0.67526 0.99256 0.3476 0.0
H500 H 0.75289 0.98555 0.28837 0.0
C501 C 0.65157 0.01535 0.32401 0.0
C502 C 0.66387 0.02701 0.28723 0.0
H503 H 0.66437 0.98304 0.37517 0.0
H504 H 0.62364 0.02407 0.33467 0.0
C505 C 0.70086 0.01591 0.27512 0.0
C506 C 0.99305 0.70344 0.27991 0.0
C507 C 0.98079 0.66701 0.29254 0.0
H508 H 0.02473 0.75475 0.29257 0.0
C509 C 0.99175 0.65495 0.32962 0.0
H510 H 0.98433 0.71424 0.25202 0.0
C511 C 0.01506 0.67831 0.35301 0.0
C512 C 0.02682 0.71499 0.34054 0.0
H513 H 0.98213 0.62746 0.34064 0.0
H514 H 0.02406 0.66759 0.38084 0.0
C515 C 0.01536 0.72721 0.30368 0.0
C516 C 0.29954 0.98738 0.27222 0.0
C517 C 0.33658 0.97642 0.28439 0.0
H518 H 0.24732 0.01742 0.28549 0.0
C519 C 0.34872 0.98794 0.32126 0.0
H520 H 0.28867 0.97817 0.24452 0.0
C521 C 0.32485 0.01041 0.34491 0.0
C522 C 0.28763 0.02094 0.33291 0.0
H523 H 0.37667 0.97932 0.33197 0.0
H524 H 0.33564 0.01979 0.37258 0.0
C525 C 0.27532 0.009 0.29624 0.0
C526 C 0.0087 0.29938 0.27826 0.0
C527 C 0.02104 0.33581 0.29081 0.0
H528 H 0.9773 0.24796 0.29121 0.0
C529 C 0.01054 0.34773 0.32806 0.0
H530 H 0.01708 0.28869 0.25023 0.0
C531 C 0.98766 0.32423 0.35171 0.0
C532 C 0.9758 0.28756 0.33931 0.0
H533 H 0.02023 0.37521 0.33903 0.0
H534 H 0.97903 0.33485 0.37968 0.0
C535 C 0.98677 0.27548 0.30226 0.0
C536 C 0.73109 0.70284 0.98911 0.0
C537 C 0.71913 0.66582 0.97796 0.0
H538 H 0.71752 0.75483 0.01937 0.0
C539 C 0.68234 0.65343 0.98941 0.0
H540 H 0.75871 0.71389 0.97996 0.0
C541 C 0.65856 0.67706 0.01201 0.0
C542 C 0.67034 0.71428 0.0227 0.0
H543 H 0.6718 0.62548 0.98064 0.0
H544 H 0.63095 0.66609 0.02134 0.0
C545 C 0.70693 0.72683 0.01082 0.0
C546 C 0.27519 0.69988 0.01443 0.0
C547 C 0.28719 0.66287 0.02561 0.0
H548 H 0.28864 0.75182 0.98405 0.0
C549 C 0.32396 0.65043 0.01408 0.0
H550 H 0.24759 0.71098 0.02364 0.0
C551 C 0.34764 0.674 0.99132 0.0
C552 C 0.33581 0.71123 0.98061 0.0
H553 H 0.33452 0.62248 0.02288 0.0
H554 H 0.37522 0.663 0.98191 0.0
C555 C 0.29926 0.72382 0.9926 0.0
C556 C 0.27355 0.30088 0.98748 0.0
C557 C 0.28573 0.33781 0.97625 0.0
H558 H 0.28664 0.24903 0.01821 0.0
C559 C 0.32242 0.35018 0.98806 0.0
H560 H 0.246 0.28985 0.97807 0.0
C561 C 0.34587 0.32663 0.01113 0.0
C562 C 0.33386 0.2895 0.0219 0.0
H563 H 0.33312 0.37806 0.97923 0.0
H564 H 0.37338 0.33758 0.02075 0.0
C565 C 0.29739 0.27696 0.00963 0.0
C566 C 0.67756 0.35344 0.01544 0.0
C567 C 0.7143 0.34107 0.02716 0.0
H568 H 0.62657 0.34085 0.98277 0.0
C569 C 0.72651 0.30417 0.01588 0.0
H570 H 0.66684 0.3813 0.02431 0.0
C571 C 0.70267 0.28026 0.99377 0.0
C572 C 0.66617 0.29279 0.98157 0.0
H573 H 0.7541 0.29313 0.02522 0.0
H574 H 0.71347 0.25235 0.98517 0.0
C575 C 0.65412 0.32991 0.99236 0.0
C576 C 0.18171 0.28067 0.34995 0.0
C577 C 0.15503 0.2845 0.32015 0.0
H578 H 0.2155 0.24213 0.38355 0.0
C579 C 0.13808 0.25119 0.30432 0.0
H580 H 0.19486 0.30573 0.36295 0.0
C581 C 0.15001 0.21468 0.31582 0.0
C582 C 0.17901 0.21092 0.34338 0.0
H583 H 0.11673 0.25323 0.28173 0.0
H584 H 0.13806 0.18964 0.30169 0.0
C585 C 0.19356 0.24417 0.36152 0.0
C586 C 0.75046 0.1991 0.36343 0.0
C587 C 0.78402 0.18328 0.34695 0.0
H588 H 0.6889 0.2016 0.36269 0.0
C589 C 0.7806 0.15339 0.32033 0.0
H590 H 0.75218 0.22178 0.38471 0.0
C591 C 0.74428 0.14173 0.30808 0.0
C592 C 0.71081 0.15984 0.32216 0.0
H593 H 0.80584 0.1404 0.30753 0.0
H594 H 0.74256 0.11962 0.2862 0.0
C595 C 0.71413 0.18749 0.35111 0.0
C596 C 0.86302 0.75217 0.30625 0.0
C597 C 0.84641 0.71877 0.32226 0.0
H598 H 0.86245 0.81371 0.30334 0.0
C599 C 0.81981 0.72247 0.35213 0.0
H600 H 0.88429 0.75023 0.28359 0.0
C601 C 0.80766 0.75891 0.36356 0.0
C602 C 0.82184 0.79222 0.34522 0.0
H603 H 0.80692 0.69736 0.36527 0.0
H604 H 0.78579 0.76084 0.38565 0.0
C605 C 0.85079 0.78862 0.31762 0.0
C606 C 0.28811 0.81665 0.34966 0.0
C607 C 0.29103 0.84382 0.32021 0.0
H608 H 0.25053 0.78264 0.38406 0.0
C609 C 0.25733 0.86147 0.30603 0.0
H610 H 0.31352 0.80293 0.36135 0.0
C611 C 0.22119 0.84975 0.3187 0.0
C612 C 0.21818 0.82026 0.34582 0.0
H613 H 0.25875 0.88323 0.28377 0.0
H614 H 0.19576 0.86231 0.3058 0.0
C615 C 0.25195 0.80498 0.36239 0.0
C616 C 0.18556 0.7208 0.65181 0.0
C617 C 0.15859 0.71757 0.6814 0.0
H618 H 0.22025 0.75861 0.61836 0.0
C619 C 0.14205 0.75123 0.69693 0.0
H620 H 0.19842 0.69546 0.63905 0.0
C621 C 0.15466 0.78748 0.68538 0.0
C622 C 0.18396 0.79061 0.65809 0.0
H623 H 0.1205 0.74965 0.71936 0.0
H624 H 0.14301 0.81279 0.69929 0.0
C625 C 0.19811 0.75703 0.64021 0.0
C626 C 0.28744 0.18547 0.65213 0.0
C627 C 0.29138 0.15804 0.68122 0.0
H628 H 0.24867 0.2191 0.61863 0.0
C629 C 0.25826 0.13965 0.69574 0.0
H630 H 0.31238 0.19979 0.6402 0.0
C631 C 0.22169 0.15082 0.68374 0.0
C632 C 0.21765 0.18049 0.65693 0.0
H633 H 0.26045 0.11769 0.71774 0.0
H634 H 0.19673 0.13763 0.69686 0.0
C635 C 0.25086 0.19658 0.64004 0.0
C636 C 0.80685 0.24646 0.64245 0.0
C637 C 0.82135 0.21282 0.65995 0.0
H638 H 0.80616 0.30805 0.6418 0.0
C639 C 0.85085 0.21589 0.68705 0.0
H640 H 0.78453 0.24494 0.62077 0.0
C641 C 0.86335 0.25211 0.69879 0.0
C642 C 0.84648 0.2858 0.68366 0.0
H643 H 0.86279 0.19054 0.70066 0.0
H644 H 0.88509 0.25363 0.72105 0.0
C645 C 0.81928 0.28267 0.65424 0.0
C646 C 0.78321 0.85175 0.68516 0.0
C647 C 0.78671 0.82261 0.65774 0.0
H648 H 0.74505 0.88459 0.72007 0.0
C649 C 0.75322 0.80733 0.64064 0.0
H650 H 0.80841 0.8643 0.69846 0.0
C651 C 0.71685 0.81861 0.65313 0.0
C652 C 0.71341 0.84542 0.68285 0.0
H653 H 0.75503 0.78526 0.61874 0.0
H654 H 0.69167 0.80489 0.641 0.0
C655 C 0.74684 0.86311 0.69758 0.0
C656 C 0.30359 0.13854 0.25136 0.0
C657 C 0.31848 0.15559 0.28505 0.0
H658 H 0.30188 0.13896 0.18976 0.0
C659 C 0.34759 0.18307 0.28193 0.0
H660 H 0.28156 0.1166 0.25289 0.0
C661 C 0.35933 0.19557 0.2457 0.0
C662 C 0.34209 0.18083 0.21203 0.0
H663 H 0.35982 0.19636 0.3073 0.0
H664 H 0.38078 0.21809 0.24419 0.0
C665 C 0.31528 0.15109 0.21512 0.0
C666 C 0.8157 0.35198 0.28864 0.0
C667 C 0.84305 0.32272 0.29187 0.0
H668 H 0.78156 0.38589 0.25068 0.0
C669 C 0.86084 0.30839 0.25833 0.0
H670 H 0.80186 0.36377 0.31392 0.0
C671 C 0.8491 0.32071 0.22204 0.0
C672 C 0.81945 0.34763 0.21873 0.0
H673 H 0.88273 0.28628 0.25998 0.0
H674 H 0.86179 0.30771 0.19674 0.0
C675 C 0.80402 0.36437 0.25234 0.0
C676 C 0.68615 0.85242 0.2162 0.0
C677 C 0.6593 0.82276 0.21268 0.0
H678 H 0.71962 0.8866 0.25447 0.0
C679 C 0.64169 0.8079 0.24609 0.0
H680 H 0.69983 0.86465 0.19104 0.0
C681 C 0.65314 0.82014 0.2825 0.0
C682 C 0.68231 0.8475 0.28607 0.0
H683 H 0.62019 0.78545 0.24425 0.0
H684 H 0.64064 0.80673 0.30768 0.0
C685 C 0.69753 0.86473 0.25261 0.0
C686 C 0.15322 0.68346 0.22081 0.0
C687 C 0.18244 0.6561 0.21724 0.0
H688 H 0.12026 0.71813 0.25907 0.0
C689 C 0.19775 0.63892 0.2507 0.0
H690 H 0.14066 0.69683 0.19563 0.0
C691 C 0.18639 0.65123 0.28711 0.0
C692 C 0.15948 0.68085 0.29063 0.0
H693 H 0.21987 0.61706 0.24884 0.0
H694 H 0.20013 0.63901 0.31226 0.0
C695 C 0.1418 0.6957 0.25722 0.0
C696 C 0.36424 0.80605 0.75755 0.0
C697 C 0.34613 0.82046 0.79089 0.0
H698 H 0.36586 0.8053 0.69598 0.0
C699 C 0.3189 0.84979 0.78732 0.0
H700 H 0.38605 0.78388 0.75945 0.0
C701 C 0.30766 0.86219 0.75087 0.0
C702 C 0.32341 0.84538 0.71745 0.0
H703 H 0.30482 0.86166 0.81243 0.0
H704 H 0.28527 0.88377 0.74896 0.0
C705 C 0.35293 0.81837 0.72111 0.0
C706 C 0.1512 0.31913 0.78087 0.0
C707 C 0.18171 0.34506 0.78408 0.0
H708 H 0.11676 0.28537 0.74309 0.0
C709 C 0.19798 0.3608 0.75038 0.0
H710 H 0.13783 0.30695 0.80622 0.0
C711 C 0.18618 0.34833 0.71414 0.0
C712 C 0.1579 0.31999 0.71108 0.0
H713 H 0.22115 0.38154 0.75192 0.0
H714 H 0.20065 0.35923 0.68881 0.0
C715 C 0.13936 0.30675 0.74465 0.0
C716 C 0.65218 0.18486 0.7222 0.0
C717 C 0.68196 0.1581 0.71889 0.0
H718 H 0.61854 0.21927 0.76011 0.0
C719 C 0.69771 0.14165 0.75252 0.0
H720 H 0.63924 0.19764 0.6969 0.0
C721 C 0.68615 0.15415 0.78881 0.0
C722 C 0.65862 0.18324 0.79201 0.0
H723 H 0.72031 0.12027 0.75088 0.0
H724 H 0.70021 0.14258 0.8141 0.0
C725 C 0.64057 0.19729 0.75848 0.0
C726 C 0.86425 0.69755 0.74618 0.0
C727 C 0.84621 0.68313 0.7128 0.0
H728 H 0.86584 0.69824 0.80775 0.0
C729 C 0.81907 0.65374 0.71631 0.0
H730 H 0.88599 0.71978 0.74432 0.0
C731 C 0.80786 0.64128 0.75272 0.0
C732 C 0.82354 0.65809 0.78618 0.0
H733 H 0.80505 0.64187 0.69116 0.0
H734 H 0.78554 0.61965 0.75459 0.0
C735 C 0.85298 0.68517 0.78258 0.0
C736 C 0.24368 0.36217 0.19458 0.0
C737 C 0.2102 0.34395 0.18066 0.0
H738 H 0.30523 0.36344 0.19515 0.0
C739 C 0.2135 0.31613 0.15187 0.0
H740 H 0.24196 0.38442 0.21631 0.0
C741 C 0.24983 0.30441 0.13963 0.0
C742 C 0.28339 0.32027 0.15605 0.0
H743 H 0.18826 0.30194 0.14041 0.0
H744 H 0.25154 0.28157 0.11852 0.0
C745 C 0.27999 0.35039 0.18242 0.0
C746 C 0.25342 0.69613 0.86307 0.0
C747 C 0.28693 0.68095 0.84592 0.0
H748 H 0.19187 0.69847 0.86276 0.0
C749 C 0.28347 0.65187 0.81842 0.0
H750 H 0.2552 0.71814 0.88504 0.0
C751 C 0.24712 0.64049 0.80599 0.0
C752 C 0.21366 0.65808 0.82079 0.0
H753 H 0.3087 0.63941 0.80507 0.0
H754 H 0.24536 0.61907 0.78344 0.0
C755 C 0.21707 0.68481 0.85057 0.0
C756 C 0.35114 0.28669 0.8172 0.0
C757 C 0.32117 0.28983 0.84376 0.0
H758 H 0.38597 0.24887 0.78388 0.0
C759 C 0.30643 0.25622 0.86109 0.0
H760 H 0.36329 0.31201 0.80376 0.0
C761 C 0.31911 0.21998 0.84961 0.0
C762 C 0.34678 0.21679 0.82067 0.0
H763 H 0.28376 0.25778 0.88239 0.0
H764 H 0.30579 0.19464 0.86185 0.0
C765 C 0.36388 0.25045 0.80577 0.0
C766 C 0.75067 0.30726 0.86493 0.0
C767 C 0.71739 0.32272 0.84754 0.0
H768 H 0.81221 0.30449 0.8651 0.0
C769 C 0.72126 0.3519 0.82019 0.0
H770 H 0.74858 0.28517 0.88679 0.0
C771 C 0.75778 0.36309 0.80811 0.0
C772 C 0.791 0.3452 0.82309 0.0
H773 H 0.69622 0.36459 0.80667 0.0
H774 H 0.75985 0.3846 0.78566 0.0
C775 C 0.7872 0.31837 0.85276 0.0
C776 C 0.69833 0.74652 0.86325 0.0
C777 C 0.68408 0.71296 0.84544 0.0
H778 H 0.69864 0.80809 0.86441 0.0
C779 C 0.65463 0.71612 0.81828 0.0
H780 H 0.72058 0.74492 0.885 0.0
C781 C 0.64195 0.75238 0.8068 0.0
C782 C 0.65857 0.78602 0.82226 0.0
H783 H 0.64289 0.69082 0.80443 0.0
H784 H 0.62028 0.75399 0.78448 0.0
C785 C 0.68571 0.78277 0.85172 0.0
C786 C 0.752 0.69865 0.14089 0.0
C787 C 0.71828 0.68332 0.15746 0.0
H788 H 0.81357 0.70067 0.14182 0.0
C789 C 0.72138 0.65372 0.18447 0.0
H790 H 0.7505 0.72107 0.11931 0.0
C791 C 0.75757 0.64194 0.19702 0.0
C792 C 0.79122 0.65962 0.18283 0.0
H793 H 0.696 0.64112 0.19735 0.0
H794 H 0.75906 0.62009 0.21919 0.0
C795 C 0.7882 0.68691 0.1535 0.0
C796 C 0.36277 0.75094 0.19714 0.0
C797 C 0.34635 0.78431 0.18083 0.0
H798 H 0.3621 0.6894 0.20029 0.0
C799 C 0.32007 0.78055 0.15066 0.0
H800 H 0.3838 0.75292 0.22004 0.0
C801 C 0.30803 0.7441 0.13923 0.0
C802 C 0.32196 0.71084 0.15787 0.0
H803 H 0.30736 0.80564 0.13727 0.0
H804 H 0.28638 0.74212 0.11691 0.0
C805 C 0.35064 0.71447 0.18577 0.0
C806 C 0.65068 0.28867 0.18703 0.0
C807 C 0.67993 0.29223 0.15973 0.0
H808 H 0.61693 0.25033 0.22084 0.0
C809 C 0.69441 0.25888 0.14169 0.0
H810 H 0.63876 0.31379 0.20105 0.0
C811 C 0.68226 0.22246 0.15313 0.0
C812 C 0.65534 0.21882 0.18273 0.0
H813 H 0.71652 0.26078 0.11984 0.0
H814 H 0.69538 0.19733 0.14026 0.0
C815 C 0.63845 0.25224 0.19841 0.0
loop_
_geom_bond_atom_site_label_1
_geom_bond_atom_site_label_2
_geom_bond_distance
_geom_bond_site_symmetry_2
_ccdc_geom_bond_type
C0 O2 1.247 . S
C0 O4 1.258 . S
C1 O8 1.247 . S
C1 O9 1.258 . S
O2 C0 1.247 . S
O2 Zn3 2.028 . S
Zn3 O2 2.028 . S
Zn3 O7 2.035 . S
Zn3 O9 2.035 . S
Zn3 O10 2.028 . S
O4 C0 1.258 . S
O4 Zn5 2.035 . S
Zn5 O4 2.035 . S
Zn5 O6 2.028 . S
Zn5 O8 2.028 . S
Zn5 O11 2.035 . S
O6 Zn5 2.028 . S
O6 C12 1.247 . S
O7 Zn3 2.035 . S
O7 C12 1.258 . S
O8 C1 1.247 . S
O8 Zn5 2.028 . S
O9 C1 1.258 . S
O9 Zn3 2.035 . S
O10 Zn3 2.028 . S
O10 C13 1.247 . S
O11 Zn5 2.035 . S
O11 C13 1.258 . S
C12 O6 1.247 . S
C12 O7 1.258 . S
C13 O10 1.247 . S
C13 O11 1.258 . S
C14 O16 1.247 . S
C14 O18 1.258 . S
C15 O22 1.247 . S
C15 O23 1.258 . S
O16 C14 1.247 . S
O16 Zn17 2.028 . S
Zn17 O16 2.028 . S
Zn17 O21 2.035 . S
Zn17 O23 2.035 . S
Zn17 O24 2.028 . S
O18 C14 1.258 . S
O18 Zn19 2.035 . S
Zn19 O18 2.035 . S
Zn19 O20 2.028 . S
Zn19 O22 2.028 . S
Zn19 O25 2.035 . S
O20 Zn19 2.028 . S
O20 C26 1.247 . S
O21 Zn17 2.035 . S
O21 C26 1.258 . S
O22 C15 1.247 . S
O22 Zn19 2.028 . S
O23 C15 1.258 . S
O23 Zn17 2.035 . S
O24 Zn17 2.028 . S
O24 C27 1.247 . S
O25 Zn19 2.035 . S
O25 C27 1.258 . S
C26 O20 1.247 . S
C26 O21 1.258 . S
C27 O24 1.247 . S
C27 O25 1.258 . S
C28 O30 1.247 . S
C28 O32 1.258 . S
C29 O36 1.247 . S
C29 O37 1.258 . S
O30 C28 1.247 . S
O30 Zn31 2.028 . S
Zn31 O30 2.028 . S
Zn31 O35 2.035 . S
Zn31 O37 2.035 . S
Zn31 O38 2.028 . S
O32 C28 1.258 . S
O32 Zn33 2.035 . S
Zn33 O32 2.035 . S
Zn33 O34 2.028 . S
Zn33 O36 2.028 . S
Zn33 O39 2.035 . S
O34 Zn33 2.028 . S
O34 C40 1.247 . S
O35 Zn31 2.035 . S
O35 C40 1.258 . S
O36 C29 1.247 . S
O36 Zn33 2.028 . S
O37 C29 1.258 . S
O37 Zn31 2.035 . S
O38 Zn31 2.028 . S
O38 C41 1.247 . S
O39 Zn33 2.035 . S
O39 C41 1.258 . S
C40 O34 1.247 . S
C40 O35 1.258 . S
C41 O38 1.247 . S
C41 O39 1.258 . S
C42 O44 1.247 . S
C42 O46 1.258 . S
C43 O50 1.247 . S
C43 O51 1.258 . S
O44 C42 1.247 . S
O44 Zn45 2.028 . S
Zn45 O44 2.028 . S
Zn45 O49 2.035 . S
Zn45 O51 2.035 . S
Zn45 O52 2.028 . S
O46 C42 1.258 . S
O46 Zn47 2.035 . S
Zn47 O46 2.035 . S
Zn47 O48 2.028 . S
Zn47 O50 2.028 . S
Zn47 O53 2.035 . S
O48 Zn47 2.028 . S
O48 C54 1.247 . S
O49 Zn45 2.035 . S
O49 C54 1.258 . S
O50 C43 1.247 . S
O50 Zn47 2.028 . S
O51 C43 1.258 . S
O51 Zn45 2.035 . S
O52 Zn45 2.028 . S
O52 C55 1.247 . S
O53 Zn47 2.035 . S
O53 C55 1.258 . S
C54 O48 1.247 . S
C54 O49 1.258 . S
C55 O52 1.247 . S
C55 O53 1.258 . S
C56 O58 1.247 . S
C56 O60 1.258 . S
C57 O64 1.247 . S
C57 O65 1.258 . S
O58 C56 1.247 . S
O58 Zn59 2.028 . S
Zn59 O58 2.028 . S
Zn59 O63 2.035 . S
Zn59 O65 2.035 . S
Zn59 O66 2.028 . S
O60 C56 1.258 . S
O60 Zn61 2.035 . S
Zn61 O60 2.035 . S
Zn61 O62 2.028 . S
Zn61 O64 2.028 . S
Zn61 O67 2.035 . S
O62 Zn61 2.028 . S
O62 C68 1.247 . S
O63 Zn59 2.035 . S
O63 C68 1.258 . S
O64 C57 1.247 . S
O64 Zn61 2.028 . S
O65 C57 1.258 . S
O65 Zn59 2.035 . S
O66 Zn59 2.028 . S
O66 C69 1.247 . S
O67 Zn61 2.035 . S
O67 C69 1.258 . S
C68 O62 1.247 . S
C68 O63 1.258 . S
C69 O66 1.247 . S
C69 O67 1.258 . S
C70 O72 1.247 . S
C70 O74 1.258 . S
C71 O78 1.247 . S
C71 O79 1.258 . S
O72 C70 1.247 . S
O72 Zn73 2.028 . S
Zn73 O72 2.028 . S
Zn73 O77 2.035 . S
Zn73 O79 2.035 . S
Zn73 O80 2.028 . S
O74 C70 1.258 . S
O74 Zn75 2.035 . S
Zn75 O74 2.035 . S
Zn75 O76 2.028 . S
Zn75 O78 2.028 . S
Zn75 O81 2.035 . S
O76 Zn75 2.028 . S
O76 C82 1.247 . S
O77 Zn73 2.035 . S
O77 C82 1.258 . S
O78 C71 1.247 . S
O78 Zn75 2.028 . S
O79 C71 1.258 . S
O79 Zn73 2.035 . S
O80 Zn73 2.028 . S
O80 C83 1.247 . S
O81 Zn75 2.035 . S
O81 C83 1.258 . S
C82 O76 1.247 . S
C82 O77 1.258 . S
C83 O80 1.247 . S
C83 O81 1.258 . S
C84 O86 1.247 . S
C84 O88 1.258 . S
C85 O92 1.247 . S
C85 O93 1.258 . S
O86 C84 1.247 . S
O86 Zn87 2.028 . S
Zn87 O86 2.028 . S
Zn87 O91 2.035 . S
Zn87 O93 2.035 . S
Zn87 O94 2.028 . S
O88 C84 1.258 . S
O88 Zn89 2.035 . S
Zn89 O88 2.035 . S
Zn89 O90 2.028 . S
Zn89 O92 2.028 . S
Zn89 O95 2.035 . S
O90 Zn89 2.028 . S
O90 C96 1.247 . S
O91 Zn87 2.035 . S
O91 C96 1.258 . S
O92 C85 1.247 . S
O92 Zn89 2.028 . S
O93 C85 1.258 . S
O93 Zn87 2.035 . S
O94 Zn87 2.028 . S
O94 C97 1.247 . S
O95 Zn89 2.035 . S
O95 C97 1.258 . S
C96 O90 1.247 . S
C96 O91 1.258 . S
C97 O94 1.247 . S
C97 O95 1.258 . S
C98 O100 1.247 . S
C98 O102 1.258 . S
C99 O106 1.247 . S
C99 O107 1.258 . S
O100 C98 1.247 . S
O100 Zn101 2.028 . S
Zn101 O100 2.028 . S
Zn101 O105 2.035 . S
Zn101 O107 2.035 . S
Zn101 O108 2.028 . S
O102 C98 1.258 . S
O102 Zn103 2.035 . S
Zn103 O102 2.035 . S
Zn103 O104 2.028 . S
Zn103 O106 2.028 . S
Zn103 O109 2.035 . S
O104 Zn103 2.028 . S
O104 C110 1.247 . S
O105 Zn101 2.035 . S
O105 C110 1.258 . S
O106 C99 1.247 . S
O106 Zn103 2.028 . S
O107 C99 1.258 . S
O107 Zn101 2.035 . S
O108 Zn101 2.028 . S
O108 C111 1.247 . S
O109 Zn103 2.035 . S
O109 C111 1.258 . S
C110 O104 1.247 . S
C110 O105 1.258 . S
C111 O108 1.247 . S
C111 O109 1.258 . S
C112 O114 1.247 . S
C112 O116 1.258 . S
C113 O120 1.247 . S
C113 O121 1.258 . S
O114 C112 1.247 . S
O114 Zn115 2.028 . S
Zn115 O114 2.028 . S
Zn115 O119 2.035 . S
Zn115 O121 2.035 . S
Zn115 O122 2.028 . S
O116 C112 1.258 . S
O116 Zn117 2.035 . S
Zn117 O116 2.035 . S
Zn117 O118 2.028 . S
Zn117 O120 2.028 . S
Zn117 O123 2.035 . S
O118 Zn117 2.028 . S
O118 C124 1.247 . S
O119 Zn115 2.035 . S
O119 C124 1.258 . S
O120 C113 1.247 . S
O120 Zn117 2.028 . S
O121 C113 1.258 . S
O121 Zn115 2.035 . S
O122 Zn115 2.028 . S
O122 C125 1.247 . S
O123 Zn117 2.035 . S
O123 C125 1.258 . S
C124 O118 1.247 . S
C124 O119 1.258 . S
C125 O122 1.247 . S
C125 O123 1.258 . S
C126 O128 1.247 . S
C126 O130 1.258 . S
C127 O134 1.247 . S
C127 O135 1.258 . S
O128 C126 1.247 . S
O128 Zn129 2.028 . S
Zn129 O128 2.028 . S
Zn129 O133 2.035 . S
Zn129 O135 2.035 . S
Zn129 O136 2.028 . S
O130 C126 1.258 . S
O130 Zn131 2.035 . S
Zn131 O130 2.035 . S
Zn131 O132 2.028 . S
Zn131 O134 2.028 . S
Zn131 O137 2.035 . S
O132 Zn131 2.028 . S
O132 C138 1.247 . S
O133 Zn129 2.035 . S
O133 C138 1.258 . S
O134 C127 1.247 . S
O134 Zn131 2.028 . S
O135 C127 1.258 . S
O135 Zn129 2.035 . S
O136 Zn129 2.028 . S
O136 C139 1.247 . S
O137 Zn131 2.035 . S
O137 C139 1.258 . S
C138 O132 1.247 . S
C138 O133 1.258 . S
C139 O136 1.247 . S
C139 O137 1.258 . S
C140 O142 1.247 . S
C140 O144 1.258 . S
C141 O148 1.247 . S
C141 O149 1.258 . S
O142 C140 1.247 . S
O142 Zn143 2.028 . S
Zn143 O142 2.028 . S
Zn143 O147 2.035 . S
Zn143 O149 2.035 . S
Zn143 O150 2.028 . S
O144 C140 1.258 . S
O144 Zn145 2.035 . S
Zn145 O144 2.035 . S
Zn145 O146 2.028 . S
Zn145 O148 2.028 . S
Zn145 O151 2.035 . S
O146 Zn145 2.028 . S
O146 C152 1.247 . S
O147 Zn143 2.035 . S
O147 C152 1.258 . S
O148 C141 1.247 . S
O148 Zn145 2.028 . S
O149 C141 1.258 . S
O149 Zn143 2.035 . S
O150 Zn143 2.028 . S
O150 C153 1.247 . S
O151 Zn145 2.035 . S
O151 C153 1.258 . S
C152 O146 1.247 . S
C152 O147 1.258 . S
C153 O150 1.247 . S
C153 O151 1.258 . S
C154 O156 1.247 . S
C154 O158 1.258 . S
C155 O162 1.247 . S
C155 O163 1.258 . S
O156 C154 1.247 . S
O156 Zn157 2.028 . S
Zn157 O156 2.028 . S
Zn157 O161 2.035 . S
Zn157 O163 2.035 . S
Zn157 O164 2.028 . S
O158 C154 1.258 . S
O158 Zn159 2.035 . S
Zn159 O158 2.035 . S
Zn159 O160 2.028 . S
Zn159 O162 2.028 . S
Zn159 O165 2.035 . S
O160 Zn159 2.028 . S
O160 C166 1.247 . S
O161 Zn157 2.035 . S
O161 C166 1.258 . S
O162 C155 1.247 . S
O162 Zn159 2.028 . S
O163 C155 1.258 . S
O163 Zn157 2.035 . S
O164 Zn157 2.028 . S
O164 C167 1.247 . S
O165 Zn159 2.035 . S
O165 C167 1.258 . S
C166 O160 1.247 . S
C166 O161 1.258 . S
C167 O164 1.247 . S
C167 O165 1.258 . S
C168 O170 1.247 . S
C168 O172 1.258 . S
C169 O176 1.247 . S
C169 O177 1.258 . S
O170 C168 1.247 . S
O170 Zn171 2.028 . S
Zn171 O170 2.028 . S
Zn171 O175 2.035 . S
Zn171 O177 2.035 . S
Zn171 O178 2.028 . S
O172 C168 1.258 . S
O172 Zn173 2.035 . S
Zn173 O172 2.035 . S
Zn173 O174 2.028 . S
Zn173 O176 2.028 . S
Zn173 O179 2.035 . S
O174 Zn173 2.028 . S
O174 C180 1.247 . S
O175 Zn171 2.035 . S
O175 C180 1.258 . S
O176 C169 1.247 . S
O176 Zn173 2.028 . S
O177 C169 1.258 . S
O177 Zn171 2.035 . S
O178 Zn171 2.028 . S
O178 C181 1.247 . S
O179 Zn173 2.035 . S
O179 C181 1.258 . S
C180 O174 1.247 . S
C180 O175 1.258 . S
C181 O178 1.247 . S
C181 O179 1.258 . S
C182 O184 1.247 . S
C182 O186 1.258 . S
C183 O190 1.247 . S
C183 O191 1.258 . S
O184 C182 1.247 . S
O184 Zn185 2.028 . S
Zn185 O184 2.028 . S
Zn185 O189 2.035 . S
Zn185 O191 2.035 . S
Zn185 O192 2.028 . S
O186 C182 1.258 . S
O186 Zn187 2.035 . S
Zn187 O186 2.035 . S
Zn187 O188 2.028 . S
Zn187 O190 2.028 . S
Zn187 O193 2.035 . S
O188 Zn187 2.028 . S
O188 C194 1.247 . S
O189 Zn185 2.035 . S
O189 C194 1.258 . S
O190 C183 1.247 . S
O190 Zn187 2.028 . S
O191 C183 1.258 . S
O191 Zn185 2.035 . S
O192 Zn185 2.028 . S
O192 C195 1.247 . S
O193 Zn187 2.035 . S
O193 C195 1.258 . S
C194 O188 1.247 . S
C194 O189 1.258 . S
C195 O192 1.247 . S
C195 O193 1.258 . S
C196 O198 1.247 . S
C196 O200 1.258 . S
C197 O204 1.247 . S
C197 O205 1.258 . S
O198 C196 1.247 . S
O198 Zn199 2.028 . S
Zn199 O198 2.028 . S
Zn199 O203 2.035 . S
Zn199 O205 2.035 . S
Zn199 O206 2.028 . S
O200 C196 1.258 . S
O200 Zn201 2.035 . S
Zn201 O200 2.035 . S
Zn201 O202 2.028 . S
Zn201 O204 2.028 . S
Zn201 O207 2.035 . S
O202 Zn201 2.028 . S
O202 C208 1.247 . S
O203 Zn199 2.035 . S
O203 C208 1.258 . S
O204 C197 1.247 . S
O204 Zn201 2.028 . S
O205 C197 1.258 . S
O205 Zn199 2.035 . S
O206 Zn199 2.028 . S
O206 C209 1.247 . S
O207 Zn201 2.035 . S
O207 C209 1.258 . S
C208 O202 1.247 . S
C208 O203 1.258 . S
C209 O206 1.247 . S
C209 O207 1.258 . S
C210 O212 1.247 . S
C210 O214 1.258 . S
C211 O218 1.247 . S
C211 O219 1.258 . S
O212 C210 1.247 . S
O212 Zn213 2.028 . S
Zn213 O212 2.028 . S
Zn213 O217 2.035 . S
Zn213 O219 2.035 . S
Zn213 O220 2.028 . S
O214 C210 1.258 . S
O214 Zn215 2.035 . S
Zn215 O214 2.035 . S
Zn215 O216 2.028 . S
Zn215 O218 2.028 . S
Zn215 O221 2.035 . S
O216 Zn215 2.028 . S
O216 C222 1.247 . S
O217 Zn213 2.035 . S
O217 C222 1.258 . S
O218 C211 1.247 . S
O218 Zn215 2.028 . S
O219 C211 1.258 . S
O219 Zn213 2.035 . S
O220 Zn213 2.028 . S
O220 C223 1.247 . S
O221 Zn215 2.035 . S
O221 C223 1.258 . S
C222 O216 1.247 . S
C222 O217 1.258 . S
C223 O220 1.247 . S
C223 O221 1.258 . S
C224 O226 1.247 . S
C224 O228 1.258 . S
C225 O232 1.247 . S
C225 O233 1.258 . S
O226 C224 1.247 . S
O226 Zn227 2.028 . S
Zn227 O226 2.028 . S
Zn227 O231 2.035 . S
Zn227 O233 2.035 . S
Zn227 O234 2.028 . S
O228 C224 1.258 . S
O228 Zn229 2.035 . S
Zn229 O228 2.035 . S
Zn229 O230 2.028 . S
Zn229 O232 2.028 . S
Zn229 O235 2.035 . S
O230 Zn229 2.028 . S
O230 C236 1.247 . S
O231 Zn227 2.035 . S
O231 C236 1.258 . S
O232 C225 1.247 . S
O232 Zn229 2.028 . S
O233 C225 1.258 . S
O233 Zn227 2.035 . S
O234 Zn227 2.028 . S
O234 C237 1.247 . S
O235 Zn229 2.035 . S
O235 C237 1.258 . S
C236 O230 1.247 . S
C236 O231 1.258 . S
C237 O234 1.247 . S
C237 O235 1.258 . S
C238 O240 1.247 . S
C238 O242 1.258 . S
C239 O246 1.247 . S
C239 O247 1.258 . S
O240 C238 1.247 . S
O240 Zn241 2.028 . S
Zn241 O240 2.028 . S
Zn241 O245 2.035 . S
Zn241 O247 2.035 . S
Zn241 O248 2.028 . S
O242 C238 1.258 . S
O242 Zn243 2.035 . S
Zn243 O242 2.035 . S
Zn243 O244 2.028 . S
Zn243 O246 2.028 . S
Zn243 O249 2.035 . S
O244 Zn243 2.028 . S
O244 C250 1.247 . S
O245 Zn241 2.035 . S
O245 C250 1.258 . S
O246 C239 1.247 . S
O246 Zn243 2.028 . S
O247 C239 1.258 . S
O247 Zn241 2.035 . S
O248 Zn241 2.028 . S
O248 C251 1.247 . S
O249 Zn243 2.035 . S
O249 C251 1.258 . S
C250 O244 1.247 . S
C250 O245 1.258 . S
C251 O248 1.247 . S
C251 O249 1.258 . S
C252 O254 1.247 . S
C252 O256 1.258 . S
C253 O260 1.247 . S
C253 O261 1.258 . S
O254 C252 1.247 . S
O254 Zn255 2.028 . S
Zn255 O254 2.028 . S
Zn255 O259 2.035 . S
Zn255 O261 2.035 . S
Zn255 O262 2.028 . S
O256 C252 1.258 . S
O256 Zn257 2.035 . S
Zn257 O256 2.035 . S
Zn257 O258 2.028 . S
Zn257 O260 2.028 . S
Zn257 O263 2.035 . S
O258 Zn257 2.028 . S
O258 C264 1.247 . S
O259 Zn255 2.035 . S
O259 C264 1.258 . S
O260 C253 1.247 . S
O260 Zn257 2.028 . S
O261 C253 1.258 . S
O261 Zn255 2.035 . S
O262 Zn255 2.028 . S
O262 C265 1.247 . S
O263 Zn257 2.035 . S
O263 C265 1.258 . S
C264 O258 1.247 . S
C264 O259 1.258 . S
C265 O262 1.247 . S
C265 O263 1.258 . S
C266 O268 1.247 . S
C266 O270 1.258 . S
C267 O274 1.247 . S
C267 O275 1.258 . S
O268 C266 1.247 . S
O268 Zn269 2.028 . S
Zn269 O268 2.028 . S
Zn269 O273 2.035 . S
Zn269 O275 2.035 . S
Zn269 O276 2.028 . S
O270 C266 1.258 . S
O270 Zn271 2.035 . S
Zn271 O270 2.035 . S
Zn271 O272 2.028 . S
Zn271 O274 2.028 . S
Zn271 O277 2.035 . S
O272 Zn271 2.028 . S
O272 C278 1.247 . S
O273 Zn269 2.035 . S
O273 C278 1.258 . S
O274 C267 1.247 . S
O274 Zn271 2.028 . S
O275 C267 1.258 . S
O275 Zn269 2.035 . S
O276 Zn269 2.028 . S
O276 C279 1.247 . S
O277 Zn271 2.035 . S
O277 C279 1.258 . S
C278 O272 1.247 . S
C278 O273 1.258 . S
C279 O276 1.247 . S
C279 O277 1.258 . S
C280 O282 1.247 . S
C280 O284 1.258 . S
C281 O288 1.247 . S
C281 O289 1.258 . S
O282 C280 1.247 . S
O282 Zn283 2.028 . S
Zn283 O282 2.028 . S
Zn283 O287 2.035 . S
Zn283 O289 2.035 . S
Zn283 O290 2.028 . S
O284 C280 1.258 . S
O284 Zn285 2.035 . S
Zn285 O284 2.035 . S
Zn285 O286 2.028 . S
Zn285 O288 2.028 . S
Zn285 O291 2.035 . S
O286 Zn285 2.028 . S
O286 C292 1.247 . S
O287 Zn283 2.035 . S
O287 C292 1.258 . S
O288 C281 1.247 . S
O288 Zn285 2.028 . S
O289 C281 1.258 . S
O289 Zn283 2.035 . S
O290 Zn283 2.028 . S
O290 C293 1.247 . S
O291 Zn285 2.035 . S
O291 C293 1.258 . S
C292 O286 1.247 . S
C292 O287 1.258 . S
C293 O290 1.247 . S
C293 O291 1.258 . S
C294 O296 1.247 . S
C294 O298 1.258 . S
C295 O302 1.247 . S
C295 O303 1.258 . S
O296 C294 1.247 . S
O296 Zn297 2.028 . S
Zn297 O296 2.028 . S
Zn297 O301 2.035 . S
Zn297 O303 2.035 . S
Zn297 O304 2.028 . S
O298 C294 1.258 . S
O298 Zn299 2.035 . S
Zn299 O298 2.035 . S
Zn299 O300 2.028 . S
Zn299 O302 2.028 . S
Zn299 O305 2.035 . S
O300 Zn299 2.028 . S
O300 C306 1.247 . S
O301 Zn297 2.035 . S
O301 C306 1.258 . S
O302 C295 1.247 . S
O302 Zn299 2.028 . S
O303 C295 1.258 . S
O303 Zn297 2.035 . S
O304 Zn297 2.028 . S
O304 C307 1.247 . S
O305 Zn299 2.035 . S
O305 C307 1.258 . S
C306 O300 1.247 . S
C306 O301 1.258 . S
C307 O304 1.247 . S
C307 O305 1.258 . S
C308 O310 1.247 . S
C308 O312 1.258 . S
C309 O316 1.247 . S
C309 O317 1.258 . S
O310 C308 1.247 . S
O310 Zn311 2.028 . S
Zn311 O310 2.028 . S
Zn311 O315 2.035 . S
Zn311 O317 2.035 . S
Zn311 O318 2.028 . S
O312 C308 1.258 . S
O312 Zn313 2.035 . S
Zn313 O312 2.035 . S
Zn313 O314 2.028 . S
Zn313 O316 2.028 . S
Zn313 O319 2.035 . S
O314 Zn313 2.028 . S
O314 C320 1.247 . S
O315 Zn311 2.035 . S
O315 C320 1.258 . S
O316 C309 1.247 . S
O316 Zn313 2.028 . S
O317 C309 1.258 . S
O317 Zn311 2.035 . S
O318 Zn311 2.028 . S
O318 C321 1.247 . S
O319 Zn313 2.035 . S
O319 C321 1.258 . S
C320 O314 1.247 . S
C320 O315 1.258 . S
C321 O318 1.247 . S
C321 O319 1.258 . S
C322 O324 1.247 . S
C322 O326 1.258 . S
C323 O330 1.247 . S
C323 O331 1.258 . S
O324 C322 1.247 . S
O324 Zn325 2.028 . S
Zn325 O324 2.028 . S
Zn325 O329 2.035 . S
Zn325 O331 2.035 . S
Zn325 O332 2.028 . S
O326 C322 1.258 . S
O326 Zn327 2.035 . S
Zn327 O326 2.035 . S
Zn327 O328 2.028 . S
Zn327 O330 2.028 . S
Zn327 O333 2.035 . S
O328 Zn327 2.028 . S
O328 C334 1.247 . S
O329 Zn325 2.035 . S
O329 C334 1.258 . S
O330 C323 1.247 . S
O330 Zn327 2.028 . S
O331 C323 1.258 . S
O331 Zn325 2.035 . S
O332 Zn325 2.028 . S
O332 C335 1.247 . S
O333 Zn327 2.035 . S
O333 C335 1.258 . S
C334 O328 1.247 . S
C334 O329 1.258 . S
C335 O332 1.247 . S
C335 O333 1.258 . S
C336 C337 1.387 . S
C336 H340 0.950 . S
C336 C345 1.390 . S
C337 C336 1.387 . S
C337 C339 1.387 . S
H338 C345 0.950 . S
C339 C337 1.387 . S
C339 C341 1.390 . S
C339 H343 0.950 . S
H340 C336 0.950 . S
C341 C339 1.390 . S
C341 C342 1.387 . S
C341 H344 0.950 . S
C342 C341 1.387 . S
C342 C345 1.387 . S
H343 C339 0.950 . S
H344 C341 0.950 . S
C345 C336 1.390 . S
C345 H338 0.950 . S
C345 C342 1.387 . S
C346 C347 1.387 . S
C346 H350 0.950 . S
C346 C355 1.390 . S
C347 C346 1.387 . S
C347 C349 1.387 . S
H348 C355 0.950 . S
C349 C347 1.387 . S
C349 C351 1.390 . S
C349 H353 0.950 . S
H350 C346 0.950 . S
C351 C349 1.390 . S
C351 C352 1.387 . S
C351 H354 0.950 . S
C352 C351 1.387 . S
C352 C355 1.387 . S
H353 C349 0.950 . S
H354 C351 0.950 . S
C355 C346 1.390 . S
C355 H348 0.950 . S
C355 C352 1.387 . S
C356 C357 1.387 . S
C356 H360 0.950 . S
C356 C365 1.390 . S
C357 C356 1.387 . S
C357 C359 1.387 . S
H358 C365 0.950 . S
C359 C357 1.387 . S
C359 C361 1.390 . S
C359 H363 0.950 . S
H360 C356 0.950 . S
C361 C359 1.390 . S
C361 C362 1.387 . S
C361 H364 0.950 . S
C362 C361 1.387 . S
C362 C365 1.387 . S
H363 C359 0.950 . S
H364 C361 0.950 . S
C365 C356 1.390 . S
C365 H358 0.950 . S
C365 C362 1.387 . S
C366 C367 1.387 . S
C366 H370 0.950 . S
C366 C375 1.390 . S
C367 C366 1.387 . S
C367 C369 1.387 . S
H368 C375 0.950 . S
C369 C367 1.387 . S
C369 C371 1.390 . S
C369 H373 0.950 . S
H370 C366 0.950 . S
C371 C369 1.390 . S
C371 C372 1.387 . S
C371 H374 0.950 . S
C372 C371 1.387 . S
C372 C375 1.387 . S
H373 C369 0.950 . S
H374 C371 0.950 . S
C375 C366 1.390 . S
C375 H368 0.950 . S
C375 C372 1.387 . S
C376 C377 1.387 . S
C376 H380 0.950 . S
C376 C385 1.390 . S
C377 C376 1.387 . S
C377 C379 1.387 . S
H378 C385 0.950 . S
C379 C377 1.387 . S
C379 C381 1.390 . S
C379 H383 0.950 . S
H380 C376 0.950 . S
C381 C379 1.390 . S
C381 C382 1.387 . S
C381 H384 0.950 . S
C382 C381 1.387 . S
C382 C385 1.387 . S
H383 C379 0.950 . S
H384 C381 0.950 . S
C385 C376 1.390 . S
C385 H378 0.950 . S
C385 C382 1.387 . S
C386 C387 1.387 . S
C386 H390 0.950 . S
C386 C395 1.390 . S
C387 C386 1.387 . S
C387 C389 1.387 . S
H388 C395 0.950 . S
C389 C387 1.387 . S
C389 C391 1.390 . S
C389 H393 0.950 . S
H390 C386 0.950 . S
C391 C389 1.390 . S
C391 C392 1.387 . S
C391 H394 0.950 . S
C392 C391 1.387 . S
C392 C395 1.387 . S
H393 C389 0.950 . S
H394 C391 0.950 . S
C395 C386 1.390 . S
C395 H388 0.950 . S
C395 C392 1.387 . S
C396 C397 1.387 . S
C396 H400 0.950 . S
C396 C405 1.390 . S
C397 C396 1.387 . S
C397 C399 1.387 . S
H398 C405 0.950 . S
C399 C397 1.387 . S
C399 C401 1.390 . S
C399 H403 0.950 . S
H400 C396 0.950 . S
C401 C399 1.390 . S
C401 C402 1.387 . S
C401 H404 0.950 . S
C402 C401 1.387 . S
C402 C405 1.387 . S
H403 C399 0.950 . S
H404 C401 0.950 . S
C405 C396 1.390 . S
C405 H398 0.950 . S
C405 C402 1.387 . S
C406 C407 1.387 . S
C406 H410 0.950 . S
C406 C415 1.390 . S
C407 C406 1.387 . S
C407 C409 1.387 . S
H408 C415 0.950 . S
C409 C407 1.387 . S
C409 C411 1.390 . S
C409 H413 0.950 . S
H410 C406 0.950 . S
C411 C409 1.390 . S
C411 C412 1.387 . S
C411 H414 0.950 . S
C412 C411 1.387 . S
C412 C415 1.387 . S
H413 C409 0.950 . S
H414 C411 0.950 . S
C415 C406 1.390 . S
C415 H408 0.950 . S
C415 C412 1.387 . S
C416 C417 1.387 . S
C416 H420 0.950 . S
C416 C425 1.390 . S
C417 C416 1.387 . S
C417 C419 1.387 . S
H418 C425 0.950 . S
C419 C417 1.387 . S
C419 C421 1.390 . S
C419 H423 0.950 . S
H420 C416 0.950 . S
C421 C419 1.390 . S
C421 C422 1.387 . S
C421 H424 0.950 . S
C422 C421 1.387 . S
C422 C425 1.387 . S
H423 C419 0.950 . S
H424 C421 0.950 . S
C425 C416 1.390 . S
C425 H418 0.950 . S
C425 C422 1.387 . S
C426 C427 1.387 . S
C426 H430 0.950 . S
C426 C435 1.390 . S
C427 C426 1.387 . S
C427 C429 1.387 . S
H428 C435 0.950 . S
C429 C427 1.387 . S
C429 C431 1.390 . S
C429 H433 0.950 . S
H430 C426 0.950 . S
C431 C429 1.390 . S
C431 C432 1.387 . S
C431 H434 0.950 . S
C432 C431 1.387 . S
C432 C435 1.387 . S
H433 C429 0.950 . S
H434 C431 0.950 . S
C435 C426 1.390 . S
C435 H428 0.950 . S
C435 C432 1.387 . S
C436 C437 1.387 . S
C436 H440 0.950 . S
C436 C445 1.390 . S
C437 C436 1.387 . S
C437 C439 1.387 . S
H438 C445 0.950 . S
C439 C437 1.387 . S
C439 C441 1.390 . S
C439 H443 0.950 . S
H440 C436 0.950 . S
C441 C439 1.390 . S
C441 C442 1.387 . S
C441 H444 0.950 . S
C442 C441 1.387 . S
C442 C445 1.387 . S
H443 C439 0.950 . S
H444 C441 0.950 . S
C445 C436 1.390 . S
C445 H438 0.950 . S
C445 C442 1.387 . S
C446 C447 1.387 . S
C446 H450 0.950 . S
C446 C455 1.390 . S
C447 C446 1.387 . S
C447 C449 1.387 . S
H448 C455 0.950 . S
C449 C447 1.387 . S
C449 C451 1.390 . S
C449 H453 0.950 . S
H450 C446 0.950 . S
C451 C449 1.390 . S
C451 C452 1.387 . S
C451 H454 0.950 . S
C452 C451 1.387 . S
C452 C455 1.387 . S
H453 C449 0.950 . S
H454 C451 0.950 . S
C455 C446 1.390 . S
C455 H448 0.950 . S
C455 C452 1.387 . S
C456 C457 1.387 1_545 S
C456 H460 0.950 . S
C456 C465 1.390 . S
C457 C456 1.387 1_565 S
C457 C459 1.387 . S
H458 C465 0.950 . S
C459 C457 1.387 . S
C459 C461 1.390 . S
C459 H463 0.950 . S
H460 C456 0.950 . S
C461 C459 1.390 . S
C461 C462 1.387 1_565 S
C461 H464 0.950 . S
C462 C461 1.387 1_545 S
C462 C465 1.387 . S
H463 C459 0.950 . S
H464 C461 0.950 . S
C465 C456 1.390 . S
C465 H458 0.950 . S
C465 C462 1.387 . S
C466 C467 1.387 . S
C466 H470 0.950 . S
C466 C475 1.390 1_655 S
C467 C466 1.387 . S
C467 C469 1.387 . S
H468 C475 0.950 . S
C469 C467 1.387 . S
C469 C471 1.390 1_655 S
C469 H473 0.950 . S
H470 C466 0.950 . S
C471 C469 1.390 1_455 S
C471 C472 1.387 . S
C471 H474 0.950 . S
C472 C471 1.387 . S
C472 C475 1.387 . S
H473 C469 0.950 . S
H474 C471 0.950 . S
C475 C466 1.390 1_455 S
C475 H468 0.950 . S
C475 C472 1.387 . S
C476 C477 1.387 1_565 S
C476 H480 0.950 . S
C476 C485 1.390 . S
C477 C476 1.387 1_545 S
C477 C479 1.387 . S
H478 C485 0.950 . S
C479 C477 1.387 . S
C479 C481 1.390 . S
C479 H483 0.950 . S
H480 C476 0.950 . S
C481 C479 1.390 . S
C481 C482 1.387 1_545 S
C481 H484 0.950 . S
C482 C481 1.387 1_565 S
C482 C485 1.387 . S
H483 C479 0.950 . S
H484 C481 0.950 . S
C485 C476 1.390 . S
C485 H478 0.950 . S
C485 C482 1.387 . S
C486 C487 1.387 . S
C486 H490 0.950 . S
C486 C495 1.390 1_455 S
C487 C486 1.387 . S
C487 C489 1.387 . S
H488 C495 0.950 . S
C489 C487 1.387 . S
C489 C491 1.390 1_455 S
C489 H493 0.950 . S
H490 C486 0.950 . S
C491 C489 1.390 1_655 S
C491 C492 1.387 . S
C491 H494 0.950 . S
C492 C491 1.387 . S
C492 C495 1.387 . S
H493 C489 0.950 . S
H494 C491 0.950 . S
C495 C486 1.390 1_655 S
C495 H488 0.950 . S
C495 C492 1.387 . S
C496 C497 1.387 . S
C496 H500 0.950 . S
C496 C505 1.390 1_565 S
C497 C496 1.387 . S
C497 C499 1.387 . S
H498 C505 0.950 . S
C499 C497 1.387 . S
C499 C501 1.390 1_565 S
C499 H503 0.950 . S
H500 C496 0.950 . S
C501 C499 1.390 1_545 S
C501 C502 1.387 . S
C501 H504 0.950 . S
C502 C501 1.387 . S
C502 C505 1.387 . S
H503 C499 0.950 . S
H504 C501 0.950 . S
C505 C496 1.390 1_545 S
C505 H498 0.950 . S
C505 C502 1.387 . S
C506 C507 1.387 1_455 S
C506 H510 0.950 . S
C506 C515 1.390 . S
C507 C506 1.387 1_655 S
C507 C509 1.387 . S
H508 C515 0.950 . S
C509 C507 1.387 . S
C509 C511 1.390 . S
C509 H513 0.950 . S
H510 C506 0.950 . S
C511 C509 1.390 . S
C511 C512 1.387 1_655 S
C511 H514 0.950 . S
C512 C511 1.387 1_455 S
C512 C515 1.387 . S
H513 C509 0.950 . S
H514 C511 0.950 . S
C515 C506 1.390 . S
C515 H508 0.950 . S
C515 C512 1.387 . S
C516 C517 1.387 . S
C516 H520 0.950 . S
C516 C525 1.390 1_565 S
C517 C516 1.387 . S
C517 C519 1.387 . S
H518 C525 0.950 . S
C519 C517 1.387 . S
C519 C521 1.390 1_565 S
C519 H523 0.950 . S
H520 C516 0.950 . S
C521 C519 1.390 1_545 S
C521 C522 1.387 . S
C521 H524 0.950 . S
C522 C521 1.387 . S
C522 C525 1.387 . S
H523 C519 0.950 . S
H524 C521 0.950 . S
C525 C516 1.390 1_545 S
C525 H518 0.950 . S
C525 C522 1.387 . S
C526 C527 1.387 . S
C526 H530 0.950 . S
C526 C535 1.390 1_455 S
C527 C526 1.387 . S
C527 C529 1.387 . S
H528 C535 0.950 . S
C529 C527 1.387 . S
C529 C531 1.390 1_455 S
C529 H533 0.950 . S
H530 C526 0.950 . S
C531 C529 1.390 1_655 S
C531 C532 1.387 . S
C531 H534 0.950 . S
C532 C531 1.387 . S
C532 C535 1.387 . S
H533 C529 0.950 . S
H534 C531 0.950 . S
C535 C526 1.390 1_655 S
C535 H528 0.950 . S
C535 C532 1.387 . S
C536 C537 1.387 . S
C536 H540 0.950 . S
C536 C545 1.390 . S
C537 C536 1.387 . S
C537 C539 1.387 1_556 S
H538 C545 0.950 . S
C539 C537 1.387 1_554 S
C539 C541 1.390 . S
C539 H543 0.950 . S
H540 C536 0.950 . S
C541 C539 1.390 . S
C541 C542 1.387 . S
C541 H544 0.950 . S
C542 C541 1.387 . S
C542 C545 1.387 1_554 S
H543 C539 0.950 . S
H544 C541 0.950 . S
C545 C536 1.390 . S
C545 H538 0.950 . S
C545 C542 1.387 1_556 S
C546 C547 1.387 . S
C546 H550 0.950 . S
C546 C555 1.390 . S
C547 C546 1.387 . S
C547 C549 1.387 1_554 S
H548 C555 0.950 . S
C549 C547 1.387 1_556 S
C549 C551 1.390 . S
C549 H553 0.950 . S
H550 C546 0.950 . S
C551 C549 1.390 . S
C551 C552 1.387 . S
C551 H554 0.950 . S
C552 C551 1.387 . S
C552 C555 1.387 1_556 S
H553 C549 0.950 . S
H554 C551 0.950 . S
C555 C546 1.390 . S
C555 H548 0.950 . S
C555 C552 1.387 1_554 S
C556 C557 1.387 . S
C556 H560 0.950 . S
C556 C565 1.390 1_556 S
C557 C556 1.387 . S
C557 C559 1.387 . S
H558 C565 0.950 . S
C559 C557 1.387 . S
C559 C561 1.390 1_556 S
C559 H563 0.950 . S
H560 C556 0.950 . S
C561 C559 1.390 1_554 S
C561 C562 1.387 . S
C561 H564 0.950 . S
C562 C561 1.387 . S
C562 C565 1.387 . S
H563 C559 0.950 . S
H564 C561 0.950 . S
C565 C556 1.390 1_554 S
C565 H558 0.950 . S
C565 C562 1.387 . S
C566 C567 1.387 1_556 S
C566 H570 0.950 . S
C566 C575 1.390 . S
C567 C566 1.387 1_554 S
C567 C569 1.387 . S
H568 C575 0.950 . S
C569 C567 1.387 . S
C569 C571 1.390 . S
C569 H573 0.950 . S
H570 C566 0.950 . S
C571 C569 1.390 . S
C571 C572 1.387 1_554 S
C571 H574 0.950 . S
C572 C571 1.387 1_556 S
C572 C575 1.387 . S
H573 C569 0.950 . S
H574 C571 0.950 . S
C575 C566 1.390 . S
C575 H568 0.950 . S
C575 C572 1.387 . S
C576 C577 1.387 . S
C576 H580 0.950 . S
C576 C585 1.390 . S
C577 C576 1.387 . S
C577 C579 1.387 . S
H578 C585 0.950 . S
C579 C577 1.387 . S
C579 C581 1.390 . S
C579 H583 0.950 . S
H580 C576 0.950 . S
C581 C579 1.390 . S
C581 C582 1.387 . S
C581 H584 0.950 . S
C582 C581 1.387 . S
C582 C585 1.387 . S
H583 C579 0.950 . S
H584 C581 0.950 . S
C585 C576 1.390 . S
C585 H578 0.950 . S
C585 C582 1.387 . S
C586 C587 1.387 . S
C586 H590 0.950 . S
C586 C595 1.390 . S
C587 C586 1.387 . S
C587 C589 1.387 . S
H588 C595 0.950 . S
C589 C587 1.387 . S
C589 C591 1.390 . S
C589 H593 0.950 . S
H590 C586 0.950 . S
C591 C589 1.390 . S
C591 C592 1.387 . S
C591 H594 0.950 . S
C592 C591 1.387 . S
C592 C595 1.387 . S
H593 C589 0.950 . S
H594 C591 0.950 . S
C595 C586 1.390 . S
C595 H588 0.950 . S
C595 C592 1.387 . S
C596 C597 1.387 . S
C596 H600 0.950 . S
C596 C605 1.390 . S
C597 C596 1.387 . S
C597 C599 1.387 . S
H598 C605 0.950 . S
C599 C597 1.387 . S
C599 C601 1.390 . S
C599 H603 0.950 . S
H600 C596 0.950 . S
C601 C599 1.390 . S
C601 C602 1.387 . S
C601 H604 0.950 . S
C602 C601 1.387 . S
C602 C605 1.387 . S
H603 C599 0.950 . S
H604 C601 0.950 . S
C605 C596 1.390 . S
C605 H598 0.950 . S
C605 C602 1.387 . S
C606 C607 1.387 . S
C606 H610 0.950 . S
C606 C615 1.390 . S
C607 C606 1.387 . S
C607 C609 1.387 . S
H608 C615 0.950 . S
C609 C607 1.387 . S
C609 C611 1.390 . S
C609 H613 0.950 . S
H610 C606 0.950 . S
C611 C609 1.390 . S
C611 C612 1.387 . S
C611 H614 0.950 . S
C612 C611 1.387 . S
C612 C615 1.387 . S
H613 C609 0.950 . S
H614 C611 0.950 . S
C615 C606 1.390 . S
C615 H608 0.950 . S
C615 C612 1.387 . S
C616 C617 1.387 . S
C616 H620 0.950 . S
C616 C625 1.390 . S
C617 C616 1.387 . S
C617 C619 1.387 . S
H618 C625 0.950 . S
C619 C617 1.387 . S
C619 C621 1.390 . S
C619 H623 0.950 . S
H620 C616 0.950 . S
C621 C619 1.390 . S
C621 C622 1.387 . S
C621 H624 0.950 . S
C622 C621 1.387 . S
C622 C625 1.387 . S
H623 C619 0.950 . S
H624 C621 0.950 . S
C625 C616 1.390 . S
C625 H618 0.950 . S
C625 C622 1.387 . S
C626 C627 1.387 . S
C626 H630 0.950 . S
C626 C635 1.390 . S
C627 C626 1.387 . S
C627 C629 1.387 . S
H628 C635 0.950 . S
C629 C627 1.387 . S
C629 C631 1.390 . S
C629 H633 0.950 . S
H630 C626 0.950 . S
C631 C629 1.390 . S
C631 C632 1.387 . S
C631 H634 0.950 . S
C632 C631 1.387 . S
C632 C635 1.387 . S
H633 C629 0.950 . S
H634 C631 0.950 . S
C635 C626 1.390 . S
C635 H628 0.950 . S
C635 C632 1.387 . S
C636 C637 1.387 . S
C636 H640 0.950 . S
C636 C645 1.390 . S
C637 C636 1.387 . S
C637 C639 1.387 . S
H638 C645 0.950 . S
C639 C637 1.387 . S
C639 C641 1.390 . S
C639 H643 0.950 . S
H640 C636 0.950 . S
C641 C639 1.390 . S
C641 C642 1.387 . S
C641 H644 0.950 . S
C642 C641 1.387 . S
C642 C645 1.387 . S
H643 C639 0.950 . S
H644 C641 0.950 . S
C645 C636 1.390 . S
C645 H638 0.950 . S
C645 C642 1.387 . S
C646 C647 1.387 . S
C646 H650 0.950 . S
C646 C655 1.390 . S
C647 C646 1.387 . S
C647 C649 1.387 . S
H648 C655 0.950 . S
C649 C647 1.387 . S
C649 C651 1.390 . S
C649 H653 0.950 . S
H650 C646 0.950 . S
C651 C649 1.390 . S
C651 C652 1.387 . S
C651 H654 0.950 . S
C652 C651 1.387 . S
C652 C655 1.387 . S
H653 C649 0.950 . S
H654 C651 0.950 . S
C655 C646 1.390 . S
C655 H648 0.950 . S
C655 C652 1.387 . S
C656 C657 1.387 . S
C656 H660 0.950 . S
C656 C665 1.390 . S
C657 C656 1.387 . S
C657 C659 1.387 . S
H658 C665 0.950 . S
C659 C657 1.387 . S
C659 C661 1.390 . S
C659 H663 0.950 . S
H660 C656 0.950 . S
C661 C659 1.390 . S
C661 C662 1.387 . S
C661 H664 0.950 . S
C662 C661 1.387 . S
C662 C665 1.387 . S
H663 C659 0.950 . S
H664 C661 0.950 . S
C665 C656 1.390 . S
C665 H658 0.950 . S
C665 C662 1.387 . S
C666 C667 1.387 . S
C666 H670 0.950 . S
C666 C675 1.390 . S
C667 C666 1.387 . S
C667 C669 1.387 . S
H668 C675 0.950 . S
C669 C667 1.387 . S
C669 C671 1.390 . S
C669 H673 0.950 . S
H670 C666 0.950 . S
C671 C669 1.390 . S
C671 C672 1.387 . S
C671 H674 0.950 . S
C672 C671 1.387 . S
C672 C675 1.387 . S
H673 C669 0.950 . S
H674 C671 0.950 . S
C675 C666 1.390 . S
C675 H668 0.950 . S
C675 C672 1.387 . S
C676 C677 1.387 . S
C676 H680 0.950 . S
C676 C685 1.390 . S
C677 C676 1.387 . S
C677 C679 1.387 . S
H678 C685 0.950 . S
C679 C677 1.387 . S
C679 C681 1.390 . S
C679 H683 0.950 . S
H680 C676 0.950 . S
C681 C679 1.390 . S
C681 C682 1.387 . S
C681 H684 0.950 . S
C682 C681 1.387 . S
C682 C685 1.387 . S
H683 C679 0.950 . S
H684 C681 0.950 . S
C685 C676 1.390 . S
C685 H678 0.950 . S
C685 C682 1.387 . S
C686 C687 1.387 . S
C686 H690 0.950 . S
C686 C695 1.390 . S
C687 C686 1.387 . S
C687 C689 1.387 . S
H688 C695 0.950 . S
C689 C687 1.387 . S
C689 C691 1.390 . S
C689 H693 0.950 . S
H690 C686 0.950 . S
C691 C689 1.390 . S
C691 C692 1.387 . S
C691 H694 0.950 . S
C692 C691 1.387 . S
C692 C695 1.387 . S
H693 C689 0.950 . S
H694 C691 0.950 . S
C695 C686 1.390 . S
C695 H688 0.950 . S
C695 C692 1.387 . S
C696 C697 1.387 . S
C696 H700 0.950 . S
C696 C705 1.390 . S
C697 C696 1.387 . S
C697 C699 1.387 . S
H698 C705 0.950 . S
C699 C697 1.387 . S
C699 C701 1.390 . S
C699 H703 0.950 . S
H700 C696 0.950 . S
C701 C699 1.390 . S
C701 C702 1.387 . S
C701 H704 0.950 . S
C702 C701 1.387 . S
C702 C705 1.387 . S
H703 C699 0.950 . S
H704 C701 0.950 . S
C705 C696 1.390 . S
C705 H698 0.950 . S
C705 C702 1.387 . S
C706 C707 1.387 . S
C706 H710 0.950 . S
C706 C715 1.390 . S
C707 C706 1.387 . S
C707 C709 1.387 . S
H708 C715 0.950 . S
C709 C707 1.387 . S
C709 C711 1.390 . S
C709 H713 0.950 . S
H710 C706 0.950 . S
C711 C709 1.390 . S
C711 C712 1.387 . S
C711 H714 0.950 . S
C712 C711 1.387 . S
C712 C715 1.387 . S
H713 C709 0.950 . S
H714 C711 0.950 . S
C715 C706 1.390 . S
C715 H708 0.950 . S
C715 C712 1.387 . S
C716 C717 1.387 . S
C716 H720 0.950 . S
C716 C725 1.390 . S
C717 C716 1.387 . S
C717 C719 1.387 . S
H718 C725 0.950 . S
C719 C717 1.387 . S
C719 C721 1.390 . S
C719 H723 0.950 . S
H720 C716 0.950 . S
C721 C719 1.390 . S
C721 C722 1.387 . S
C721 H724 0.950 . S
C722 C721 1.387 . S
C722 C725 1.387 . S
H723 C719 0.950 . S
H724 C721 0.950 . S
C725 C716 1.390 . S
C725 H718 0.950 . S
C725 C722 1.387 . S
C726 C727 1.387 . S
C726 H730 0.950 . S
C726 C735 1.390 . S
C727 C726 1.387 . S
C727 C729 1.387 . S
H728 C735 0.950 . S
C729 C727 1.387 . S
C729 C731 1.390 . S
C729 H733 0.950 . S
H730 C726 0.950 . S
C731 C729 1.390 . S
C731 C732 1.387 . S
C731 H734 0.950 . S
C732 C731 1.387 . S
C732 C735 1.387 . S
H733 C729 0.950 . S
H734 C731 0.950 . S
C735 C726 1.390 . S
C735 H728 0.950 . S
C735 C732 1.387 . S
C736 C737 1.387 . S
C736 H740 0.950 . S
C736 C745 1.390 . S
C737 C736 1.387 . S
C737 C739 1.387 . S
H738 C745 0.950 . S
C739 C737 1.387 . S
C739 C741 1.390 . S
C739 H743 0.950 . S
H740 C736 0.950 . S
C741 C739 1.390 . S
C741 C742 1.387 . S
C741 H744 0.950 . S
C742 C741 1.387 . S
C742 C745 1.387 . S
H743 C739 0.950 . S
H744 C741 0.950 . S
C745 C736 1.390 . S
C745 H738 0.950 . S
C745 C742 1.387 . S
C746 C747 1.387 . S
C746 H750 0.950 . S
C746 C755 1.390 . S
C747 C746 1.387 . S
C747 C749 1.387 . S
H748 C755 0.950 . S
C749 C747 1.387 . S
C749 C751 1.390 . S
C749 H753 0.950 . S
H750 C746 0.950 . S
C751 C749 1.390 . S
C751 C752 1.387 . S
C751 H754 0.950 . S
C752 C751 1.387 . S
C752 C755 1.387 . S
H753 C749 0.950 . S
H754 C751 0.950 . S
C755 C746 1.390 . S
C755 H748 0.950 . S
C755 C752 1.387 . S
C756 C757 1.387 . S
C756 H760 0.950 . S
C756 C765 1.390 . S
C757 C756 1.387 . S
C757 C759 1.387 . S
H758 C765 0.950 . S
C759 C757 1.387 . S
C759 C761 1.390 . S
C759 H763 0.950 . S
H760 C756 0.950 . S
C761 C759 1.390 . S
C761 C762 1.387 . S
C761 H764 0.950 . S
C762 C761 1.387 . S
C762 C765 1.387 . S
H763 C759 0.950 . S
H764 C761 0.950 . S
C765 C756 1.390 . S
C765 H758 0.950 . S
C765 C762 1.387 . S
C766 C767 1.387 . S
C766 H770 0.950 . S
C766 C775 1.390 . S
C767 C766 1.387 . S
C767 C769 1.387 . S
H768 C775 0.950 . S
C769 C767 1.387 . S
C769 C771 1.390 . S
C769 H773 0.950 . S
H770 C766 0.950 . S
C771 C769 1.390 . S
C771 C772 1.387 . S
C771 H774 0.950 . S
C772 C771 1.387 . S
C772 C775 1.387 . S
H773 C769 0.950 . S
H774 C771 0.950 . S
C775 C766 1.390 . S
C775 H768 0.950 . S
C775 C772 1.387 . S
C776 C777 1.387 . S
C776 H780 0.950 . S
C776 C785 1.390 . S
C777 C776 1.387 . S
C777 C779 1.387 . S
H778 C785 0.950 . S
C779 C777 1.387 . S
C779 C781 1.390 . S
C779 H783 0.950 . S
H780 C776 0.950 . S
C781 C779 1.390 . S
C781 C782 1.387 . S
C781 H784 0.950 . S
C782 C781 1.387 . S
C782 C785 1.387 . S
H783 C779 0.950 . S
H784 C781 0.950 . S
C785 C776 1.390 . S
C785 H778 0.950 . S
C785 C782 1.387 . S
C786 C787 1.387 . S
C786 H790 0.950 . S
C786 C795 1.390 . S
C787 C786 1.387 . S
C787 C789 1.387 . S
H788 C795 0.950 . S
C789 C787 1.387 . S
C789 C791 1.390 . S
C789 H793 0.950 . S
H790 C786 0.950 . S
C791 C789 1.390 . S
C791 C792 1.387 . S
C791 H794 0.950 . S
C792 C791 1.387 . S
C792 C795 1.387 . S
H793 C789 0.950 . S
H794 C791 0.950 . S
C795 C786 1.390 . S
C795 H788 0.950 . S
C795 C792 1.387 . S
C796 C797 1.387 . S
C796 H800 0.950 . S
C796 C805 1.390 . S
C797 C796 1.387 . S
C797 C799 1.387 . S
H798 C805 0.950 . S
C799 C797 1.387 . S
C799 C801 1.390 . S
C799 H803 0.950 . S
H800 C796 0.950 . S
C801 C799 1.390 . S
C801 C802 1.387 . S
C801 H804 0.950 . S
C802 C801 1.387 . S
C802 C805 1.387 . S
H803 C799 0.950 . S
H804 C801 0.950 . S
C805 C796 1.390 . S
C805 H798 0.950 . S
C805 C802 1.387 . S
C806 C807 1.387 . S
C806 H810 0.950 . S
C806 C815 1.390 . S
C807 C806 1.387 . S
C807 C809 1.387 . S
H808 C815 0.950 . S
C809 C807 1.387 . S
C809 C811 1.390 . S
C809 H813 0.950 . S
H810 C806 0.950 . S
C811 C809 1.390 . S
C811 C812 1.387 . S
C811 H814 0.950 . S
C812 C811 1.387 . S
C812 C815 1.387 . S
H813 C809 0.950 . S
H814 C811 0.950 . S
C815 C806 1.390 . S
C815 H808 0.950 . S
C815 C812 1.387 . S
C337 C321 1.859 . S
C342 C13 1.858 . S
C347 C27 1.859 . S
C352 C237 1.858 . S
C357 C334 1.857 . S
C362 C40 1.856 . S
C367 C295 1.857 . S
C372 C43 1.857 . S
C377 C252 1.857 . S
C382 C57 1.859 . S
C387 C267 1.859 . S
C392 C71 1.857 . S
C397 C281 1.857 . S
C402 C85 1.857 . S
C407 C110 1.856 . S
C412 C239 1.858 . S
C417 C182 1.858 . S
C422 C125 1.857 . S
C427 C197 1.859 . S
C432 C138 1.857 . S
C437 C140 1.859 . S
C442 C211 1.859 . S
C447 C167 1.859 . S
C452 C181 1.858 . S
C457 C98 1.859 . S
C462 C209 1.858 . S
C467 C223 1.859 . S
C472 C69 1.859 . S
C477 C83 1.859 . S
C482 C169 1.858 . S
C487 C194 1.857 . S
C492 C97 1.857 . S
C497 C152 1.858 . S
C502 C15 1.859 . S
C507 C28 1.858 . S
C512 C155 1.857 . S
C517 C55 1.859 . S
C522 C113 1.859 . S
C527 C1 1.859 . S
C532 C126 1.859 . S
C537 C293 1.859 . S
C542 C307 1.859 . S
C547 C309 1.858 . S
C552 C251 1.859 . S
C557 C264 1.858 . S
C562 C225 1.859 . S
C567 C322 1.858 . S
C572 C279 1.857 . S
C577 C12 1.315 . S
C582 C112 1.317 . S
C587 C127 1.321 . S
C592 C26 1.318 . S
C597 C41 1.321 . S
C602 C153 1.320 . S
C607 C42 1.318 . S
C612 C154 1.319 . S
C617 C56 1.315 . S
C622 C168 1.318 . S
C627 C70 1.315 . S
C632 C195 1.320 . S
C637 C208 1.315 . S
C642 C84 1.314 . S
C647 C222 1.314 . S
C652 C111 1.317 . S
C657 C124 1.315 . S
C662 C224 1.314 . S
C667 C139 1.318 . S
C672 C323 1.320 . S
C677 C306 1.314 . S
C682 C141 1.318 . S
C687 C308 1.317 . S
C692 C166 1.319 . S
C697 C250 1.319 . S
C702 C180 1.317 . S
C707 C265 1.317 . S
C712 C183 1.317 . S
C717 C196 1.315 . S
C722 C278 1.318 . S
C727 C210 1.318 . S
C732 C292 1.316 . S
C737 C0 1.315 . S
C742 C236 1.314 . S
C747 C238 1.319 . S
C752 C68 1.317 . S
C757 C253 1.318 . S
C762 C82 1.318 . S
C767 C266 1.315 . S
C772 C96 1.314 . S
C777 C280 1.317 . S
C782 C99 1.317 . S
C787 C294 1.316 . S
C792 C29 1.317 . S
C797 C54 1.318 . S
C802 C320 1.316 . S
C807 C335 1.318 . S
C812 C14 1.318 . S
