# Generated by pormake.
# Topology umy, (4)-cn, num edge types: 1
# Building blocks:
#     Node 0, Type 0, BuildingBlock: ICAMEG_clean_sbu_1, # of connection points: 4
#     Node 1, Type 0, BuildingBlock: ICAMEG_clean_sbu_1, # of connection points: 4
#     Node 2, Type 0, BuildingBlock: ICAMEG_clean_sbu_1, # of connection points: 4
#     Node 3, Type 0, BuildingBlock: ICAMEG_clean_sbu_1, # of connection points: 4
#     Node 4, Type 0, BuildingBlock: ICAMEG_clean_sbu_1, # of connection points: 4
#     Node 5, Type 0, BuildingBlock: ICAMEG_clean_sbu_1, # of connection points: 4
#     Node 6, Type 0, BuildingBlock: ICAMEG_clean_sbu_1, # of connection points: 4
#     Node 7, Type 0, BuildingBlock: ICAMEG_clean_sbu_1, # of connection points: 4
#     Node 8, Type 0, BuildingBlock: ICAMEG_clean_sbu_1, # of connection points: 4
#     Node 9, Type 0, BuildingBlock: ICAMEG_clean_sbu_1, # of connection points: 4
#     Node 10, Type 0, BuildingBlock: ICAMEG_clean_sbu_1, # of connection points: 4
#     Node 11, Type 0, BuildingBlock: ICAMEG_clean_sbu_1, # of connection points: 4
#     Edge 12, Type (0, 0), BuildingBlock: OJICUG_clean_linker_0, # of connection points: 2
#     Edge 13, Type (0, 0), BuildingBlock: OJICUG_clean_linker_0, # of connection points: 2
#     Edge 14, Type (0, 0), BuildingBlock: OJICUG_clean_linker_0, # of connection points: 2
#     Edge 15, Type (0, 0), BuildingBlock: OJICUG_clean_linker_0, # of connection points: 2
#     Edge 16, Type (0, 0), BuildingBlock: OJICUG_clean_linker_0, # of connection points: 2
#     Edge 17, Type (0, 0), BuildingBlock: OJICUG_clean_linker_0, # of connection points: 2
#     Edge 18, Type (0, 0), BuildingBlock: OJICUG_clean_linker_0, # of connection points: 2
#     Edge 19, Type (0, 0), BuildingBlock: OJICUG_clean_linker_0, # of connection points: 2
#     Edge 20, Type (0, 0), BuildingBlock: OJICUG_clean_linker_0, # of connection points: 2
#     Edge 21, Type (0, 0), BuildingBlock: OJICUG_clean_linker_0, # of connection points: 2
#     Edge 22, Type (0, 0), BuildingBlock: OJICUG_clean_linker_0, # of connection points: 2
#     Edge 23, Type (0, 0), BuildingBlock: OJICUG_clean_linker_0, # of connection points: 2
#     Edge 24, Type (0, 0), BuildingBlock: OJICUG_clean_linker_0, # of connection points: 2
#     Edge 25, Type (0, 0), BuildingBlock: OJICUG_clean_linker_0, # of connection points: 2
#     Edge 26, Type (0, 0), BuildingBlock: OJICUG_clean_linker_0, # of connection points: 2
#     Edge 27, Type (0, 0), BuildingBlock: OJICUG_clean_linker_0, # of connection points: 2
#     Edge 28, Type (0, 0), BuildingBlock: OJICUG_clean_linker_0, # of connection points: 2
#     Edge 29, Type (0, 0), BuildingBlock: OJICUG_clean_linker_0, # of connection points: 2
#     Edge 30, Type (0, 0), BuildingBlock: OJICUG_clean_linker_0, # of connection points: 2
#     Edge 31, Type (0, 0), BuildingBlock: OJICUG_clean_linker_0, # of connection points: 2
#     Edge 32, Type (0, 0), BuildingBlock: OJICUG_clean_linker_0, # of connection points: 2
#     Edge 33, Type (0, 0), BuildingBlock: OJICUG_clean_linker_0, # of connection points: 2
#     Edge 34, Type (0, 0), BuildingBlock: OJICUG_clean_linker_0, # of connection points: 2
#     Edge 35, Type (0, 0), BuildingBlock: OJICUG_clean_linker_0, # of connection points: 2
# Relax obj value: 0.082
# Max RMSD: 0.108
# Mean RMSD: 0.108
data_MOF--net-umy--node1-ICAMEG_clean_sbu_1--edge1-OJICUG_clean_linker_0
_symmetry_space_group_name_H-M    P1
_symmetry_Int_Tables_number       1
_symmetry_cell_setting            triclinic
loop_
_symmetry_equiv_pos_as_xyz
'x, y, z'
_cell_length_a     30.171071
_cell_length_b     30.156061
_cell_length_c     41.871276
_cell_angle_alpha  90.019319
_cell_angle_beta   89.99983
_cell_angle_gamma 120.01742
loop_
_atom_site_label
_atom_site_type_symbol
_atom_site_fract_x
_atom_site_fract_y
_atom_site_fract_z
_atom_type_partial_charge
Co0 Co 0.06866 0.29985 0.14283 0.0
Co1 Co 0.07125 0.40303 0.17918 0.0
O2 O 0.07977 0.3696 0.14114 0.0
C3 C 0.17154 0.35262 0.11046 0.0
O4 O 0.18963 0.38674 0.13351 0.0
C5 C 0.02108 0.42802 0.12565 0.0
O6 O 1.00553 0.38257 0.11336 0.0
O7 O 0.99992 0.34508 0.18552 0.0
O8 O 0.01207 0.27902 0.17496 0.0
H9 H 0.01984 0.40996 0.29248 0.0
H10 H 0.0694 0.34348 0.07936 0.0
O11 O 0.12452 0.31766 0.11047 0.0
H12 H 0.89859 0.18971 0.08902 0.0
H13 H 0.05377 0.13863 0.09663 0.0
H14 H 0.05089 0.22664 0.19523 0.0
H15 H 0.96173 0.21421 0.13248 0.0
H16 H 0.06502 0.22539 0.09435 0.0
O17 O 0.04586 0.44084 0.15186 0.0
H18 H 0.03156 0.36891 0.24483 0.0
H19 H 0.09222 0.50882 0.19351 0.0
H20 H 0.03894 0.13968 0.19857 0.0
H21 H 1.00769 0.31993 0.03506 0.0
H22 H 0.04048 0.09513 0.14903 0.0
H23 H 0.9215 0.24264 0.0398 0.0
O24 O 0.11925 0.32004 0.17814 0.0
H25 H 0.22009 0.53482 0.11533 0.0
H26 H 0.1615 0.4593 0.22221 0.0
H27 H 0.25086 0.52819 0.21479 0.0
H28 H 0.28066 0.56654 0.16105 0.0
H29 H 0.13118 0.46547 0.12373 0.0
H30 H 0.08079 0.55128 0.24056 0.0
H31 H 0.04453 0.50182 0.29055 0.0
O32 O 0.09719 0.36776 0.208 0.0
C33 C 0.98609 0.29757 0.18734 0.0
C34 C 0.03576 0.43195 0.27086 0.0
C35 C 0.0699 0.51123 0.24171 0.0
N36 N 0.06269 0.43642 0.21642 0.0
C37 C 0.04258 0.40892 0.2438 0.0
C38 C 0.07612 0.48692 0.2151 0.0
C39 C 0.04958 0.48347 0.26975 0.0
C40 C 0.03214 0.30952 0.08145 0.0
N41 N 0.01917 0.28032 0.10849 0.0
C42 C 0.99728 0.2965 0.05636 0.0
C43 C 0.9489 0.25319 0.05906 0.0
C44 C 0.93599 0.22352 0.08669 0.0
C45 C 0.97181 0.23775 0.11131 0.0
C46 C 0.05299 0.15763 0.11839 0.0
C47 C 0.05127 0.2074 0.17354 0.0
C48 C 0.05948 0.20683 0.11725 0.0
N49 N 0.05841 0.23102 0.14462 0.0
C50 C 0.04461 0.15819 0.17559 0.0
C51 C 0.04551 0.13323 0.14779 0.0
C52 C 0.11996 0.3421 0.20427 0.0
C53 C 0.20751 0.51855 0.13888 0.0
C54 C 0.17416 0.47571 0.19873 0.0
C55 C 0.22481 0.51478 0.19469 0.0
C56 C 0.24149 0.53629 0.16454 0.0
N57 N 0.141 0.45863 0.17346 0.0
C58 C 0.15714 0.47942 0.14382 0.0
Co59 Co 0.77902 0.06016 0.31044 0.0
Co60 Co 0.67682 0.06624 0.34055 0.0
O61 O 0.72148 0.07158 0.30511 0.0
C62 C 0.82949 0.1615 0.27662 0.0
O63 O 0.81024 0.17897 0.29803 0.0
C64 C 0.57301 1.0036 0.31071 0.0
O65 O 0.55859 0.97306 0.33563 0.0
O66 O 0.66167 0.99482 0.34998 0.0
O67 O 0.73971 1.00434 0.34248 0.0
H68 H 0.60433 0.02035 0.45152 0.0
H69 H 0.73859 0.05822 0.24573 0.0
O70 O 0.81986 0.11524 0.27811 0.0
H71 H 0.72476 0.88929 0.25926 0.0
H72 H 0.92941 0.04475 0.27292 0.0
H73 H 0.82867 0.04257 0.36627 0.0
H74 H 0.76054 0.95385 0.30219 0.0
H75 H 0.85446 0.05607 0.26612 0.0
O76 O 0.61898 0.0407 0.30874 0.0
H77 H 0.66145 0.02796 0.40716 0.0
H78 H 0.59472 0.09348 0.34818 0.0
H79 H 0.903 0.03053 0.37413 0.0
H80 H 0.70299 0.99498 0.202 0.0
H81 H 0.95405 0.03175 0.32725 0.0
H82 H 0.69585 0.90979 0.20866 0.0
O83 O 0.80647 0.11167 0.34543 0.0
H84 H 0.70291 0.21217 0.26982 0.0
H85 H 0.70934 0.15968 0.38046 0.0
H86 H 0.73256 0.24901 0.36943 0.0
H87 H 0.72924 0.27574 0.31378 0.0
H88 H 0.6807 0.12339 0.28182 0.0
H89 H 0.53686 0.08659 0.39193 0.0
H90 H 0.54144 0.04978 0.44405 0.0
O91 O 0.73463 0.09282 0.37224 0.0
C92 C 0.69418 0.97972 0.35368 0.0
C93 C 0.6019 0.03638 0.42891 0.0
C94 C 0.56404 0.07356 0.39546 0.0
N95 N 0.63127 0.06087 0.37504 0.0
C96 C 0.63411 0.04073 0.40368 0.0
C97 C 0.59686 0.07732 0.37077 0.0
C98 C 0.56664 0.05291 0.4247 0.0
C99 C 0.7358 0.0213 0.24872 0.0
N100 N 0.75172 0.00976 0.27643 0.0
C101 C 0.71552 0.98562 0.22392 0.0
C102 C 0.71148 0.93781 0.22768 0.0
C103 C 0.72766 0.92627 0.25607 0.0
C104 C 0.74772 0.9629 0.28035 0.0
C105 C 0.90745 0.0441 0.29354 0.0
C106 C 0.85044 0.04274 0.34572 0.0
C107 C 0.86504 0.05063 0.28984 0.0
N108 N 0.83704 0.04971 0.31576 0.0
C109 C 0.89258 0.03605 0.35033 0.0
C110 C 0.92123 0.03678 0.32402 0.0
C111 C 0.78331 0.11443 0.37018 0.0
C112 C 0.70428 0.20093 0.29419 0.0
C113 C 0.70797 0.17099 0.35615 0.0
C114 C 0.72104 0.22163 0.35007 0.0
C115 C 0.71914 0.2366 0.31885 0.0
N116 N 0.69323 0.13613 0.33185 0.0
C117 C 0.69147 0.15061 0.30116 0.0
Co118 Co 0.71526 0.77018 0.47829 0.0
Co119 Co 0.61152 0.67026 0.51455 0.0
O120 O 0.64549 0.71158 0.47638 0.0
C121 C 0.66402 0.82095 0.44429 0.0
O122 O 0.62959 0.80626 0.46707 0.0
C123 C 0.58661 0.59376 0.46172 0.0
O124 O 0.63217 0.62321 0.44946 0.0
O125 O 0.66911 0.65657 0.52152 0.0
O126 O 0.73551 0.73465 0.51111 0.0
H127 H 0.60332 0.61348 0.62833 0.0
H128 H 0.67245 0.72598 0.41491 0.0
O129 O 0.69828 0.80794 0.44514 0.0
H130 H 0.82623 0.70951 0.42649 0.0
H131 H 0.87744 0.91583 0.43262 0.0
H132 H 0.78744 0.82624 0.53102 0.0
H133 H 0.80117 0.74895 0.46916 0.0
H134 H 0.79079 0.84025 0.43 0.0
O135 O 0.5737 0.60658 0.48757 0.0
H136 H 0.64492 0.66548 0.58053 0.0
H137 H 0.50544 0.58601 0.52881 0.0
H138 H 0.8743 0.90132 0.53471 0.0
H139 H 0.69656 0.687 0.37138 0.0
H140 H 0.91984 0.94677 0.48527 0.0
H141 H 0.77385 0.67838 0.37709 0.0
O142 O 0.69448 0.80127 0.51292 0.0
H143 H 0.48093 0.68706 0.44924 0.0
H144 H 0.5551 0.70525 0.55668 0.0
H145 H 0.48656 0.72594 0.54838 0.0
H146 H 0.44889 0.71675 0.49435 0.0
H147 H 0.5499 0.66726 0.45853 0.0
H148 H 0.46243 0.53289 0.57602 0.0
H149 H 0.5114 0.54659 0.62628 0.0
O150 O 0.6467 0.73193 0.54307 0.0
C151 C 0.71664 0.69003 0.52348 0.0
C152 C 0.58154 0.6072 0.60659 0.0
C153 C 0.5025 0.56193 0.57722 0.0
N154 N 0.57766 0.62895 0.5519 0.0
C155 C 0.60488 0.63661 0.57944 0.0
C156 C 0.52712 0.59203 0.55053 0.0
C157 C 0.52998 0.56965 0.60541 0.0
C158 C 0.70639 0.72278 0.41743 0.0
N159 N 0.73528 0.73961 0.44457 0.0
C160 C 0.71973 0.70048 0.39277 0.0
C161 C 0.76305 0.69557 0.39601 0.0
C162 C 0.79241 0.71295 0.42374 0.0
C163 C 0.77786 0.735 0.44792 0.0
C164 C 0.85801 0.89634 0.45433 0.0
C165 C 0.80712 0.84559 0.50938 0.0
C166 C 0.80885 0.8536 0.45301 0.0
N167 N 0.78409 0.82873 0.48033 0.0
C168 C 0.85627 0.88817 0.51163 0.0
C169 C 0.88179 0.91367 0.48388 0.0
C170 C 0.6721 0.78032 0.53903 0.0
C171 C 0.4969 0.69103 0.47291 0.0
C172 C 0.53899 0.70122 0.53308 0.0
C173 C 0.50011 0.71292 0.52854 0.0
C174 C 0.47899 0.70775 0.49823 0.0
N175 N 0.55624 0.68467 0.50815 0.0
C176 C 0.53583 0.67967 0.47835 0.0
Co177 Co 0.95583 0.71769 0.6434 0.0
Co178 Co 0.95258 0.6139 0.67936 0.0
O179 O 0.94434 0.64777 0.64142 0.0
C180 C 0.8528 0.66568 0.61097 0.0
O181 O 0.8347 0.63116 0.63377 0.0
C182 C 1.00224 0.58827 0.62568 0.0
O183 O 0.01767 0.63353 0.61313 0.0
O184 O 0.02406 0.6715 0.68579 0.0
O185 O 0.01252 0.73802 0.6755 0.0
H186 H 1.00364 0.60599 0.79259 0.0
H187 H 0.95474 0.67429 0.57979 0.0
O188 O 0.89991 0.7005 0.61107 0.0
H189 H 0.12597 0.82745 0.58962 0.0
H190 H 0.97163 0.87971 0.59798 0.0
H191 H 0.97403 0.79057 0.69612 0.0
H192 H 0.06292 0.80306 0.63312 0.0
H193 H 0.95999 0.79282 0.59527 0.0
O194 O 0.97765 0.57586 0.65196 0.0
H195 H 0.99234 0.64752 0.74506 0.0
H196 H 0.93083 0.50777 0.69342 0.0
H197 H 0.98637 0.87765 0.69988 0.0
H198 H 0.01636 0.69773 0.53545 0.0
H199 H 0.98505 0.92276 0.65058 0.0
H200 H 0.10276 0.77471 0.54029 0.0
O201 O 0.90525 0.69747 0.67872 0.0
H202 H 0.80338 0.48307 0.61524 0.0
H203 H 0.86219 0.55783 0.7223 0.0
H204 H 0.77267 0.48939 0.71475 0.0
H205 H 0.74276 0.45142 0.66092 0.0
H206 H 0.89246 0.55198 0.62378 0.0
H207 H 0.94184 0.46484 0.74035 0.0
H208 H 0.97831 0.51398 0.79043 0.0
O209 O 0.92696 0.64927 0.70832 0.0
C210 C 0.03828 0.71909 0.68773 0.0
C211 C 0.98763 0.58415 0.77092 0.0
C212 C 0.95301 0.50495 0.74159 0.0
N213 N 0.96082 0.58013 0.71649 0.0
C214 C 0.98105 0.60744 0.74393 0.0
C215 C 0.94703 0.52953 0.71505 0.0
C216 C 0.97345 0.53253 0.76969 0.0
C217 C 0.9921 0.70811 0.58192 0.0
N218 N 1.00523 0.73721 0.60902 0.0
C219 C 0.0269 0.72107 0.55681 0.0
C220 C 0.0754 0.76421 0.55956 0.0
C221 C 0.08848 0.79377 0.58725 0.0
C222 C 0.0527 0.77961 0.61189 0.0
C223 C 0.97231 0.86046 0.61964 0.0
C224 C 0.97375 0.81006 0.67453 0.0
C225 C 0.96559 0.81118 0.61826 0.0
N226 N 0.9665 0.78667 0.6455 0.0
C227 C 0.98064 0.85933 0.67682 0.0
C228 C 0.97986 0.88461 0.64915 0.0
C229 C 0.90432 0.67507 0.70473 0.0
C230 C 0.81601 0.49917 0.63883 0.0
C231 C 0.84949 0.54159 0.69878 0.0
C232 C 0.79875 0.50277 0.69467 0.0
C233 C 0.78199 0.48148 0.66446 0.0
N234 N 0.88268 0.55863 0.67354 0.0
C235 C 0.86648 0.53805 0.64384 0.0
Co236 Co 0.24783 0.95609 0.81009 0.0
Co237 Co 0.34699 0.94909 0.84459 0.0
O238 O 0.30495 0.94312 0.80732 0.0
C239 C 0.1968 0.85423 0.77655 0.0
O240 O 0.2139 0.83596 0.79884 0.0
C241 C 0.4241 1.00627 0.79338 0.0
O242 O 0.40025 0.03169 0.78716 0.0
O243 O 0.36249 0.02083 0.85253 0.0
O244 O 0.28539 0.01193 0.84254 0.0
H245 H 0.40899 0.99509 0.95775 0.0
H246 H 0.29158 0.95612 0.74685 0.0
O247 O 0.20826 0.90109 0.77737 0.0
H248 H 0.31132 0.12791 0.75785 0.0
H249 H 0.10347 0.97621 0.76607 0.0
H250 H 0.19479 0.97498 0.86346 0.0
H251 H 0.27046 0.06362 0.80052 0.0
H252 H 0.17737 0.96253 0.76263 0.0
O253 O 0.40847 0.97362 0.81599 0.0
H254 H 0.35533 0.98651 0.91115 0.0
H255 H 0.43038 0.92516 0.85614 0.0
H256 H 0.12143 0.98937 0.86796 0.0
H257 H 0.33227 0.01909 0.70342 0.0
H258 H 0.07514 0.98991 0.81904 0.0
H259 H 0.34246 0.10574 0.70882 0.0
O260 O 0.21685 0.90482 0.84509 0.0
H261 H 0.32499 0.80111 0.77753 0.0
H262 H 0.31144 0.85689 0.88604 0.0
H263 H 0.28857 0.76715 0.87687 0.0
H264 H 0.29542 0.73876 0.82231 0.0
H265 H 0.34694 0.89038 0.78768 0.0
H266 H 0.48512 0.93342 0.90211 0.0
H267 H 0.47447 0.96844 0.95341 0.0
O268 O 0.28665 0.92357 0.87414 0.0
C269 C 0.33016 0.03631 0.85485 0.0
C270 C 0.41395 0.9797 0.93554 0.0
C271 C 0.45672 0.94517 0.9043 0.0
N272 N 0.38959 0.95524 0.88096 0.0
C273 C 0.3836 0.97467 0.90907 0.0
C274 C 0.42572 0.94074 0.87832 0.0
C275 C 0.45071 0.96478 0.93308 0.0
C276 C 0.29553 0.99362 0.74923 0.0
N277 N 0.27857 1.00615 0.77613 0.0
C278 C 0.31875 0.02917 0.72463 0.0
C279 C 0.32452 0.0778 0.7277 0.0
C280 C 0.3071 0.09029 0.75521 0.0
C281 C 0.28415 0.05378 0.77935 0.0
C282 C 0.12335 0.9761 0.78757 0.0
C283 C 0.17507 0.97551 0.84203 0.0
C284 C 0.16514 0.96823 0.78577 0.0
N285 N 0.19053 0.96818 0.81281 0.0
C286 C 0.13347 0.98355 0.84474 0.0
C287 C 0.10749 0.98381 0.81728 0.0
C288 C 0.23821 0.90226 0.87077 0.0
C289 C 0.32201 0.81306 0.80143 0.0
C290 C 0.31439 0.84483 0.8622 0.0
C291 C 0.30148 0.79397 0.85717 0.0
C292 C 0.30535 0.77808 0.82656 0.0
N293 N 0.33079 0.87895 0.83744 0.0
C294 C 0.33458 0.86362 0.80735 0.0
Co295 Co 0.30694 0.24673 0.97789 0.0
Co296 Co 0.41134 0.34502 0.01489 0.0
O297 O 0.37738 0.30412 0.9766 0.0
C298 C 0.35772 0.19497 0.94481 0.0
O299 O 0.39186 0.20992 0.96779 0.0
C300 C 0.43679 0.42193 0.96254 0.0
O301 O 0.39048 0.39351 0.95103 0.0
O302 O 0.3547 0.36017 0.02158 0.0
O303 O 0.2872 0.28322 0.01022 0.0
H304 H 0.41958 0.40184 0.1287 0.0
H305 H 0.35228 0.29057 0.91492 0.0
O306 O 0.32351 0.20805 0.94521 0.0
H307 H 0.20102 0.31182 0.92427 0.0
H308 H 0.14418 0.104 0.93071 0.0
H309 H 0.23271 0.19189 0.0299 0.0
H310 H 0.22323 0.27081 0.96744 0.0
H311 H 0.23192 0.17795 0.92892 0.0
O312 O 0.45021 0.40851 0.98795 0.0
H313 H 0.37776 0.35032 0.08074 0.0
H314 H 0.51785 0.42796 0.02952 0.0
H315 H 0.14475 0.11845 0.03274 0.0
H316 H 0.33103 0.33112 0.87091 0.0
H317 H 0.09993 0.07388 0.9829 0.0
H318 H 0.25502 0.34214 0.8755 0.0
O319 O 0.32552 0.21454 0.013 0.0
H320 H 0.54112 0.32572 0.95034 0.0
H321 H 0.4657 0.3081 0.05733 0.0
H322 H 0.53313 0.2857 0.04941 0.0
H323 H 0.57142 0.29459 0.99562 0.0
H324 H 0.47323 0.3472 0.95925 0.0
H325 H 0.56108 0.4806 0.07688 0.0
H326 H 0.51191 0.46756 0.12697 0.0
O327 O 0.37483 0.28335 0.04329 0.0
C328 C 0.30685 0.32767 0.02293 0.0
C329 C 0.44144 0.40782 0.10703 0.0
C330 C 0.52084 0.45207 0.07794 0.0
N331 N 0.44532 0.38596 0.05236 0.0
C332 C 0.41799 0.37869 0.0798 0.0
C333 C 0.49609 0.42224 0.05116 0.0
C334 C 0.49324 0.44472 0.10604 0.0
C335 C 0.31886 0.2948 0.91694 0.0
N336 N 0.28909 0.27841 0.94374 0.0
C337 C 0.30715 0.31799 0.89201 0.0
C338 C 0.26455 0.32425 0.89463 0.0
C339 C 0.23429 0.30731 0.92201 0.0
C340 C 0.24721 0.28436 0.94647 0.0
C341 C 0.16329 0.12313 0.95259 0.0
C342 C 0.21336 0.17292 1.00808 0.0
C343 C 0.21305 0.16494 0.95174 0.0
N344 N 0.23739 0.18937 0.97927 0.0
C345 C 0.16359 0.13127 0.00985 0.0
C346 C 0.13848 0.10626 0.98188 0.0
C347 C 0.34795 0.23502 0.03922 0.0
C348 C 0.52487 0.32186 0.97392 0.0
C349 C 0.48209 0.31199 0.03382 0.0
C350 C 0.52033 0.29932 0.02951 0.0
C351 C 0.5418 0.30433 0.99932 0.0
N352 N 0.46578 0.3293 0.0088 0.0
C353 C 0.48656 0.33417 0.97913 0.0
Co354 Co 0.7267 0.95536 0.70703 0.0
Co355 Co 0.6184 0.94918 0.67688 0.0
O356 O 0.6577 0.94385 0.71233 0.0
C357 C 0.67581 0.85398 0.74078 0.0
O358 O 0.63914 0.83656 0.71934 0.0
C359 C 0.57716 0.01174 0.70675 0.0
O360 O 0.5933 0.04232 0.68185 0.0
O361 O 0.67463 0.02063 0.66748 0.0
O362 O 0.7432 0.01122 0.67501 0.0
H363 H 0.59184 0.99511 0.56591 0.0
H364 H 0.68808 0.95715 0.77173 0.0
O365 O 0.71245 0.90025 0.73934 0.0
H366 H 0.84305 0.12621 0.75833 0.0
H367 H 0.89253 0.97095 0.74465 0.0
H368 H 0.79407 0.97314 0.65124 0.0
H369 H 0.81442 0.06172 0.71536 0.0
H370 H 0.80619 0.95948 0.7514 0.0
O371 O 0.58603 0.97464 0.70869 0.0
H372 H 0.64134 0.98752 0.61028 0.0
H373 H 0.50904 0.92187 0.66923 0.0
H374 H 0.88051 0.98533 0.64344 0.0
H375 H 0.71558 0.02032 0.81549 0.0
H376 H 0.93029 0.98411 0.69035 0.0
H377 H 0.79357 0.10557 0.8089 0.0
O378 O 0.70275 0.90392 0.67201 0.0
H379 H 0.49858 0.80311 0.74752 0.0
H380 H 0.5576 0.85578 0.63692 0.0
H381 H 0.49155 0.76641 0.64791 0.0
H382 H 0.46145 0.73958 0.70353 0.0
H383 H 0.56509 0.89193 0.73558 0.0
H384 H 0.45808 0.92875 0.62547 0.0
H385 H 0.4995 0.96562 0.57336 0.0
O386 O 0.64971 0.92269 0.64519 0.0
C387 C 0.72225 0.03579 0.66381 0.0
C388 C 0.57337 0.97906 0.58852 0.0
C389 C 0.4983 0.94181 0.62194 0.0
N390 N 0.57822 0.95454 0.64238 0.0
C391 C 0.60122 0.97472 0.61375 0.0
C392 C 0.52736 0.93806 0.64664 0.0
C393 C 0.52156 0.96249 0.59271 0.0
C394 C 0.72218 0.99409 0.76877 0.0
N395 N 0.74968 1.00571 0.74107 0.0
C396 C 0.7375 0.02974 0.79359 0.0
C397 C 0.78124 0.07758 0.78986 0.0
C398 C 0.809 0.0892 0.76149 0.0
C399 C 0.79251 0.05261 0.73718 0.0
C400 C 0.87124 0.9716 0.72402 0.0
C401 C 0.81565 0.97297 0.6718 0.0
C402 C 0.82227 0.96499 0.72769 0.0
N403 N 0.79522 0.96591 0.70175 0.0
C404 C 0.86452 0.97974 0.66722 0.0
C405 C 0.89241 0.97901 0.69355 0.0
C406 C 0.67683 0.90114 0.64725 0.0
C407 C 0.51122 0.81439 0.72317 0.0
C408 C 0.54489 0.84443 0.66122 0.0
C409 C 0.50735 0.79376 0.66728 0.0
C410 C 0.49046 0.77874 0.69848 0.0
N411 N 0.56496 0.87926 0.68554 0.0
C412 C 0.54869 0.86473 0.71622 0.0
Co413 Co 0.77631 0.71539 0.87458 0.0
Co414 Co 0.67591 0.61231 0.83803 0.0
O415 O 0.71774 0.6456 0.87613 0.0
C416 C 0.82651 0.66265 0.90687 0.0
O417 O 0.81062 0.62865 0.88376 0.0
C418 C 0.60057 0.58726 0.89143 0.0
O419 O 0.63033 0.63283 0.90363 0.0
O420 O 0.66248 0.67023 0.83176 0.0
O421 O 0.74061 0.73631 0.84247 0.0
H422 H 0.61788 0.60573 0.7247 0.0
H423 H 0.73322 0.67139 0.93795 0.0
O424 O 0.81433 0.69752 0.90692 0.0
H425 H 0.7159 0.82502 0.92854 0.0
H426 H 0.9223 0.87652 0.92112 0.0
H427 H 0.83186 0.78889 0.82233 0.0
H428 H 0.75481 0.80086 0.88507 0.0
H429 H 0.84689 0.78968 0.92322 0.0
O430 O 0.61266 0.57436 0.8653 0.0
H431 H 0.6705 0.64664 0.77242 0.0
H432 H 0.59117 0.50655 0.82354 0.0
H433 H 0.90678 0.87594 0.81917 0.0
H434 H 0.6948 0.6946 0.98226 0.0
H435 H 0.95264 0.9203 0.86881 0.0
H436 H 0.68574 0.77181 0.97764 0.0
O437 O 0.80687 0.69544 0.83924 0.0
H438 H 0.6929 0.48033 0.90172 0.0
H439 H 0.7101 0.55628 0.79495 0.0
H440 H 0.73063 0.48742 0.80228 0.0
H441 H 0.72194 0.44885 0.85597 0.0
H442 H 0.67328 0.54965 0.8934 0.0
H443 H 0.53743 0.46423 0.77641 0.0
H444 H 0.55075 0.51385 0.72649 0.0
O445 O 0.7372 0.64773 0.80929 0.0
C446 C 0.69612 0.71776 0.83003 0.0
C447 C 0.61176 0.58367 0.74629 0.0
C448 C 0.56657 0.50428 0.77533 0.0
N449 N 0.63407 0.57903 0.80074 0.0
C450 C 0.64151 0.60662 0.77339 0.0
C451 C 0.59702 0.52851 0.80198 0.0
C452 C 0.57408 0.53214 0.74732 0.0
C453 C 0.72987 0.70533 0.93592 0.0
N454 N 0.74618 0.73468 0.90894 0.0
C455 C 0.70787 0.71815 0.96101 0.0
C456 C 0.70271 0.76142 0.95838 0.0
C457 C 0.71955 0.79124 0.93082 0.0
C458 C 0.74131 0.77721 0.90619 0.0
C459 C 0.90262 0.85761 0.89933 0.0
C460 C 0.85139 0.80805 0.84406 0.0
C461 C 0.85996 0.80836 0.90036 0.0
N462 N 0.83483 0.78428 0.87294 0.0
C463 C 0.89388 0.8573 0.84211 0.0
C464 C 0.91961 0.88216 0.86997 0.0
C465 C 0.78562 0.67346 0.81308 0.0
C466 C 0.69664 0.49669 0.87819 0.0
C467 C 0.70629 0.53977 0.81841 0.0
C468 C 0.7179 0.50072 0.82239 0.0
C469 C 0.713 0.47909 0.85252 0.0
N470 N 0.6901 0.55672 0.84369 0.0
C471 C 0.68537 0.53581 0.8733 0.0
Co472 Co 0.06771 0.76866 0.0395 0.0
Co473 Co 0.07408 0.67056 1.00241 0.0
O474 O 0.08092 0.71137 0.04074 0.0
C475 C 0.17023 0.82051 0.0726 0.0
O476 O 0.18945 0.80557 0.04963 0.0
C477 C 0.02264 0.59349 0.05468 0.0
O478 O 1.00461 0.62179 0.0662 0.0
O479 O 1.00224 0.65527 0.99573 0.0
O480 O 0.0115 0.73212 1.00716 0.0
H481 H 0.02565 0.61392 0.88856 0.0
H482 H 0.06932 0.72476 0.10242 0.0
O483 O 0.12294 0.8074 0.07219 0.0
H484 H 0.89663 0.70308 0.09313 0.0
H485 H 0.0472 0.91102 0.08681 0.0
H486 H 0.04816 0.82346 0.98754 0.0
H487 H 0.95984 0.74431 0.04997 0.0
H488 H 0.06125 0.83723 0.08852 0.0
O489 O 0.04956 0.60704 0.02931 0.0
H490 H 0.0352 0.6653 0.93657 0.0
H491 H 0.09788 0.5878 0.98771 0.0
H492 H 0.03338 0.89673 0.98476 0.0
H493 H 1.00754 0.68399 0.14641 0.0
H494 H 0.03297 0.94114 0.03464 0.0
H495 H 0.9204 0.67274 0.14185 0.0
O496 O 0.11847 0.80099 1.00439 0.0
H497 H 0.22327 0.6901 0.06694 0.0
H498 H 0.16541 0.70776 0.95999 0.0
H499 H 0.25528 0.73036 0.9679 0.0
H500 H 0.28472 0.72145 0.02169 0.0
H501 H 0.13383 0.66841 0.05804 0.0
H502 H 0.08864 0.53532 0.9403 0.0
H503 H 0.05247 0.54835 0.89023 0.0
O504 O 0.09913 0.73227 0.97407 0.0
C505 C 0.98678 0.68769 0.99441 0.0
C506 C 0.04156 0.60794 0.91022 0.0
C507 C 0.07683 0.56378 0.93927 0.0
N508 N 0.06723 0.62972 0.96491 0.0
C509 C 0.04715 0.637 0.93748 0.0
C510 C 0.08182 0.59352 0.96608 0.0
C511 C 0.05657 0.57113 0.91118 0.0
C512 C 0.03163 0.72043 0.10041 0.0
N513 N 0.01819 0.73683 0.07364 0.0
C514 C 0.99674 0.69712 0.12533 0.0
C515 C 0.94783 0.69074 0.12273 0.0
C516 C 0.93444 0.70767 0.09538 0.0
C517 C 0.97031 0.73075 0.07093 0.0
C518 C 0.04726 0.89197 0.06491 0.0
C519 C 0.04771 0.84235 0.00937 0.0
C520 C 0.05535 0.85025 0.06572 0.0
N521 N 0.05534 0.82591 0.03817 0.0
C522 C 0.03944 0.88392 1.00764 0.0
C523 C 0.03925 0.90883 0.03564 0.0
C524 C 0.12048 0.78058 0.97816 0.0
C525 C 0.21086 0.69396 0.04338 0.0
C526 C 0.17791 0.70386 0.98349 0.0
C527 C 0.22885 0.71664 0.9878 0.0
C528 C 0.24533 0.71162 0.01798 0.0
N529 N 0.14428 0.68642 1.0085 0.0
C530 C 0.1602 0.68154 0.03816 0.0
Co531 Co 0.29937 0.0595 0.2073 0.0
Co532 Co 0.40546 0.06623 0.17289 0.0
O533 O 0.3694 0.07229 0.21014 0.0
C534 C 0.35027 0.16133 0.24089 0.0
O535 O 0.38568 0.17959 0.21863 0.0
C536 C 0.42531 0.00904 0.22417 0.0
O537 O 0.37606 0.98371 0.23042 0.0
O538 O 0.34913 0.99453 0.16496 0.0
O539 O 0.28105 1.00367 0.17483 0.0
H540 H 0.42142 0.02004 0.05977 0.0
H541 H 0.34285 0.05924 0.27059 0.0
O542 O 0.31484 0.11448 0.24004 0.0
H543 H 0.19051 0.88768 0.25943 0.0
H544 H 0.13497 0.03982 0.25113 0.0
H545 H 0.22763 0.04086 0.15386 0.0
H546 H 0.21424 0.95204 0.21678 0.0
H547 H 0.22243 0.0532 0.25468 0.0
O548 O 0.44233 0.04164 0.20152 0.0
H549 H 0.37638 0.02878 0.10634 0.0
H550 H 0.51274 0.08998 0.16138 0.0
H551 H 0.14001 0.02678 0.14925 0.0
H552 H 0.32028 0.99619 0.314 0.0
H553 H 0.09312 0.02634 0.19812 0.0
H554 H 0.24366 0.90966 0.30852 0.0
O555 O 0.31987 0.11083 0.17233 0.0
H556 H 0.53154 0.21414 0.23995 0.0
H557 H 0.4623 0.15839 0.13143 0.0
H558 H 0.52929 0.24808 0.14059 0.0
H559 H 0.56448 0.27646 0.19517 0.0
H560 H 0.46411 0.12492 0.22981 0.0
H561 H 0.55918 0.08156 0.11545 0.0
H562 H 0.51351 0.04653 0.06415 0.0
O563 O 0.37076 0.09184 0.14331 0.0
C564 C 0.30135 0.97917 0.16258 0.0
C565 C 0.44177 0.03543 0.08198 0.0
C566 C 0.51905 0.06988 0.11324 0.0
N567 N 0.44189 0.05998 0.13655 0.0
C568 C 0.41648 0.04056 0.10843 0.0
C569 C 0.4925 0.0744 0.13921 0.0
C570 C 0.49342 0.05026 0.08446 0.0
C571 C 0.30923 0.02179 0.26817 0.0
N572 N 0.27983 0.00937 0.24124 0.0
C573 C 0.29674 0.9862 0.29277 0.0
C574 C 0.25379 0.93763 0.28965 0.0
C575 C 0.22398 0.92525 0.2621 0.0
C576 C 0.2377 0.9618 0.23798 0.0
C577 C 0.15498 0.03989 0.22967 0.0
C578 C 0.20735 0.04037 0.17526 0.0
C579 C 0.20458 0.04759 0.23152 0.0
N580 N 0.23004 0.04759 0.20451 0.0
C581 C 0.15779 0.03251 0.17249 0.0
C582 C 0.13152 0.0323 0.19992 0.0
C583 C 0.34378 0.11331 0.14666 0.0
C584 C 0.51663 0.2022 0.21605 0.0
C585 C 0.47729 0.17044 0.15528 0.0
C586 C 0.51531 0.22128 0.1603 0.0
C587 C 0.53505 0.23716 0.19092 0.0
N588 N 0.45948 0.13633 0.18004 0.0
C589 C 0.47858 0.15167 0.21014 0.0
Co590 Co 0.24578 0.29789 0.37399 0.0
Co591 Co 0.34643 0.40169 0.33812 0.0
O592 O 0.30425 0.36777 0.37603 0.0
C593 C 0.19477 0.34989 0.40645 0.0
O594 O 0.21122 0.38445 0.38367 0.0
C595 C 0.42163 0.42726 0.39186 0.0
O596 O 0.39172 0.38205 0.40445 0.0
O597 O 0.36025 0.34405 0.33166 0.0
O598 O 0.28214 0.27756 0.34189 0.0
H599 H 0.40554 0.40972 0.22491 0.0
H600 H 0.28801 0.34112 0.43765 0.0
O601 O 0.20704 0.31506 0.40633 0.0
H602 H 0.30588 0.18786 0.42772 0.0
H603 H 0.09936 0.13586 0.41926 0.0
H604 H 0.19113 0.22514 0.32121 0.0
H605 H 0.26736 0.21242 0.38422 0.0
H606 H 0.17468 0.2227 0.42205 0.0
O607 O 0.40952 0.43965 0.36556 0.0
H608 H 0.35263 0.36815 0.27241 0.0
H609 H 0.43089 0.50781 0.32413 0.0
H610 H 0.11631 0.13811 0.31737 0.0
H611 H 0.32604 0.31752 0.48198 0.0
H612 H 0.06976 0.09293 0.36663 0.0
H613 H 0.33537 0.24049 0.4771 0.0
O614 O 0.21551 0.31822 0.33868 0.0
H615 H 0.32811 0.53248 0.40231 0.0
H616 H 0.31226 0.4579 0.2952 0.0
H617 H 0.29125 0.52639 0.30278 0.0
H618 H 0.29926 0.56427 0.35664 0.0
H619 H 0.34821 0.46353 0.39374 0.0
H620 H 0.48491 0.55079 0.27724 0.0
H621 H 0.47227 0.50172 0.22713 0.0
O622 O 0.28547 0.36641 0.30912 0.0
C623 C 0.32685 0.29647 0.32968 0.0
C624 C 0.41136 0.43154 0.24659 0.0
C625 C 0.45595 0.51069 0.27598 0.0
N626 N 0.38851 0.43549 0.30102 0.0
C627 C 0.38144 0.40822 0.27357 0.0
C628 C 0.42534 0.48608 0.30249 0.0
C629 C 0.44882 0.48314 0.24786 0.0
C630 C 0.29151 0.30728 0.43549 0.0
N631 N 0.27557 0.27825 0.40836 0.0
C632 C 0.31327 0.29423 0.46061 0.0
C633 C 0.31858 0.25106 0.45783 0.0
C634 C 0.30211 0.22156 0.43011 0.0
C635 C 0.28058 0.23582 0.40547 0.0
C636 C 0.11933 0.15514 0.39763 0.0
C637 C 0.17131 0.20562 0.34279 0.0
C638 C 0.16194 0.20439 0.39905 0.0
N639 N 0.18743 0.22894 0.37183 0.0
C640 C 0.12888 0.15638 0.34045 0.0
C641 C 0.10276 0.13106 0.36809 0.0
C642 C 0.23702 0.34065 0.31269 0.0
C643 C 0.32466 0.51642 0.37871 0.0
C644 C 0.31577 0.47411 0.31873 0.0
C645 C 0.30389 0.51295 0.32286 0.0
C646 C 0.30841 0.53419 0.35308 0.0
N647 N 0.33185 0.45699 0.34397 0.0
C648 C 0.33621 0.47752 0.37368 0.0
Co649 Co 0.95272 0.24532 0.53912 0.0
Co650 Co 0.94893 0.3453 0.50294 0.0
O651 O 0.9416 0.30394 0.54108 0.0
C652 C 0.85075 0.19456 0.57317 0.0
O653 O 0.83098 0.20926 0.55041 0.0
C654 C 1.00059 0.42175 0.55579 0.0
O655 O 0.01665 0.39226 0.56804 0.0
O656 O 0.02019 0.35896 0.49592 0.0
O657 O 1.00847 0.28085 0.50629 0.0
H658 H 0.99743 0.40217 0.38916 0.0
H659 H 0.9542 0.28948 0.60253 0.0
O660 O 0.89802 0.20757 0.5723 0.0
H661 H 0.12439 0.30583 0.59084 0.0
H662 H 0.96917 0.09956 0.58468 0.0
H663 H 0.96874 0.18927 0.48634 0.0
H664 H 0.05984 0.26647 0.54819 0.0
H665 H 0.95816 0.17517 0.58737 0.0
O666 O 0.97486 0.40897 0.52993 0.0
H667 H 0.98705 0.35012 0.43693 0.0
H668 H 0.92714 0.4296 0.48875 0.0
H669 H 0.98045 0.11416 0.48259 0.0
H670 H 0.01734 0.32839 0.64605 0.0
H671 H 0.98055 0.06864 0.532 0.0
H672 H 0.10323 0.33695 0.64028 0.0
O673 O 0.90081 0.21428 0.50451 0.0
H674 H 0.80166 0.32856 0.56835 0.0
H675 H 0.85748 0.31039 0.46085 0.0
H676 H 0.76828 0.28976 0.46921 0.0
H677 H 0.73987 0.29893 0.52326 0.0
H678 H 0.8904 0.3483 0.559 0.0
H679 H 0.93724 0.48277 0.44157 0.0
H680 H 0.97244 0.46909 0.39128 0.0
O681 O 0.92239 0.28365 0.47439 0.0
C682 C 0.03424 0.32549 0.49393 0.0
C683 C 0.98196 0.40844 0.41091 0.0
C684 C 0.94825 0.45372 0.44034 0.0
N685 N 0.95636 0.38664 0.4656 0.0
C686 C 0.9759 0.37901 0.43805 0.0
C687 C 0.94277 0.42358 0.46702 0.0
C688 C 0.96797 0.44601 0.41213 0.0
C689 C 0.99134 0.29266 0.59999 0.0
N690 N 1.00335 0.27584 0.57282 0.0
C691 C 0.027 0.31492 0.62464 0.0
C692 C 0.07521 0.31979 0.62137 0.0
C693 C 0.08714 0.30242 0.59361 0.0
C694 C 0.05052 0.28042 0.56945 0.0
C695 C 0.96922 0.11907 0.56298 0.0
C696 C 0.96909 0.1699 0.50797 0.0
C697 C 0.96285 0.16184 0.56434 0.0
N698 N 0.96296 0.18675 0.53704 0.0
C699 C 0.97561 0.1273 0.50569 0.0
C700 C 0.97563 0.10177 0.53342 0.0
C701 C 0.89937 0.23525 0.47842 0.0
C702 C 0.81363 0.32459 0.54466 0.0
C703 C 0.84543 0.31441 0.48446 0.0
C704 C 0.79487 0.30274 0.48903 0.0
C705 C 0.77896 0.30791 0.51936 0.0
N706 N 0.87926 0.33093 0.50938 0.0
C707 C 0.86389 0.33592 0.5392 0.0
C708 C 0.01729 0.50773 0.05671 0.0
C709 C 0.01652 0.54837 0.07271 0.0
H710 H 0.01777 0.43702 0.06088 0.0
C711 C 0.01364 0.54719 0.10623 0.0
H712 H 0.01956 0.50763 0.03088 0.0
C713 C 0.01394 0.50744 0.12342 0.0
C714 C 0.01557 0.46723 0.10743 0.0
H715 H 0.01339 0.57813 0.11924 0.0
H716 H 0.01364 0.50854 0.14928 0.0
C717 C 0.01606 0.46721 0.07387 0.0
C718 C 0.55082 0.0315 0.25961 0.0
C719 C 0.53465 1.00027 0.28698 0.0
H720 H 0.52946 0.05843 0.21848 0.0
C721 C 0.48173 0.9692 0.29244 0.0
H722 H 0.59118 0.05583 0.2545 0.0
C723 C 0.44599 0.97084 0.27168 0.0
C724 C 0.46236 1.00342 0.24489 0.0
H725 H 0.46787 0.94481 0.31332 0.0
H726 H 0.4056 0.94752 0.27707 0.0
C727 C 0.51525 0.03299 0.23888 0.0
C728 C 0.50675 0.50745 0.46022 0.0
C729 C 0.54753 0.5483 0.44393 0.0
H730 H 0.43574 0.43643 0.45656 0.0
C731 C 0.54831 0.54704 0.41038 0.0
H732 H 0.50506 0.50736 0.48607 0.0
C733 C 0.50798 0.50706 0.39348 0.0
C734 C 0.46671 0.4667 0.40976 0.0
H735 H 0.57896 0.5781 0.39714 0.0
H736 H 0.50869 0.50812 0.36761 0.0
C737 C 0.46715 0.46673 0.44333 0.0
C738 C 1.00833 0.54884 0.57421 0.0
C739 C 1.00785 0.54882 0.60778 0.0
H740 H 1.00563 0.50824 0.53146 0.0
C741 C 1.00866 0.5084 0.62405 0.0
H742 H 1.0073 0.57919 0.56099 0.0
C743 C 1.00898 0.46841 0.60714 0.0
C744 C 1.00701 0.46721 0.57359 0.0
H745 H 1.00825 0.5073 0.64992 0.0
H746 H 1.00848 0.43731 0.62037 0.0
C747 C 1.00718 0.50812 0.55731 0.0
C748 C 0.52034 0.04616 0.72508 0.0
C749 C 0.54214 0.01504 0.7305 0.0
H750 H 0.46596 0.06789 0.74052 0.0
C751 C 0.52705 0.98374 0.75784 0.0
H752 H 0.53089 0.0706 0.70423 0.0
C753 C 0.49001 0.98225 0.77859 0.0
C754 C 0.46675 0.01189 0.77263 0.0
H755 H 0.54304 0.95937 0.76291 0.0
H756 H 0.47875 0.95676 0.79897 0.0
C757 C 0.48298 0.04452 0.74587 0.0
C758 C 0.47409 0.46801 0.91094 0.0
C759 C 0.47573 0.46701 0.94447 0.0
H760 H 0.51277 0.50649 0.86785 0.0
C761 C 0.51706 0.50779 0.96043 0.0
H762 H 0.44297 0.43696 0.89796 0.0
C763 C 0.55632 0.54828 0.94324 0.0
C764 C 0.55587 0.54808 0.90967 0.0
H765 H 0.51938 0.50803 0.98626 0.0
H766 H 0.58816 0.57858 0.9562 0.0
C767 C 0.51412 0.50772 0.89371 0.0
C768 C 0.18664 0.31183 0.06262 0.0
C769 C 0.2063 0.35087 0.08578 0.0
H770 H 0.20237 0.27417 0.02487 0.0
C771 C 0.2594 0.38554 0.08612 0.0
H772 H 0.14602 0.28457 0.06134 0.0
C773 C 0.29213 0.37983 0.06468 0.0
C774 C 0.2725 0.33909 0.04261 0.0
H775 H 0.27592 0.41618 0.10353 0.0
H776 H 0.33293 0.40616 0.06628 0.0
C777 C 0.21918 0.30591 0.04151 0.0
C778 C 0.88665 0.17703 0.22942 0.0
C779 C 0.86546 0.1961 0.25169 0.0
H780 H 0.94023 0.19346 0.19171 0.0
C781 C 0.88098 0.24859 0.25065 0.0
H782 H 0.87547 0.13685 0.22921 0.0
C783 C 0.91834 0.28145 0.22873 0.0
C784 C 0.94119 0.26258 0.20746 0.0
H785 H 0.86531 0.2646 0.26734 0.0
H786 H 0.93061 0.32188 0.22929 0.0
C787 C 0.92391 0.2097 0.20772 0.0
C788 C 0.6328 0.87605 0.41781 0.0
C789 C 0.667 0.85705 0.41884 0.0
H790 H 0.61366 0.92896 0.3961 0.0
C791 C 0.7068 0.87545 0.39626 0.0
H792 H 0.60156 0.86266 0.43473 0.0
C793 C 0.71395 0.91351 0.37444 0.0
C794 C 0.68124 0.93423 0.37413 0.0
H795 H 0.73375 0.86166 0.39598 0.0
H796 H 0.7463 0.92769 0.35835 0.0
C797 C 0.63968 0.91404 0.39559 0.0
C798 C 0.80453 0.71372 0.54296 0.0
C799 C 0.75139 0.67935 0.54336 0.0
H800 H 0.87767 0.736 0.56325 0.0
C801 C 0.7322 0.63778 0.56479 0.0
H802 H 0.82101 0.74617 0.52687 0.0
C803 C 0.76508 0.63221 0.58617 0.0
C804 C 0.81797 0.66782 0.58645 0.0
H805 H 0.69156 0.61055 0.56587 0.0
H806 H 0.74884 0.60075 0.60301 0.0
C807 C 0.83725 0.70792 0.56402 0.0
C808 C 0.10591 0.73442 0.72908 0.0
C809 C 0.08358 0.75375 0.70774 0.0
H810 H 0.15895 0.75066 0.76761 0.0
C811 C 0.10192 0.80684 0.70778 0.0
H812 H 0.09285 0.69381 0.72981 0.0
C813 C 0.13979 0.8393 0.72928 0.0
C814 C 0.16045 0.81981 0.75165 0.0
H815 H 0.08601 0.82343 0.69173 0.0
H816 H 0.15177 0.87968 0.72889 0.0
C817 C 0.14378 0.76704 0.75085 0.0
C818 C 0.38317 0.10186 0.89711 0.0
C819 C 0.34225 0.0817 0.87518 0.0
H820 H 0.42024 0.15322 0.93642 0.0
C821 C 0.30948 0.10234 0.87487 0.0
H822 H 0.4092 0.08698 0.89811 0.0
C823 C 0.31598 0.14035 0.89658 0.0
C824 C 0.35521 0.15877 0.91959 0.0
H825 H 0.27763 0.08815 0.85836 0.0
H826 H 0.28904 0.15413 0.89587 0.0
C827 C 0.38944 0.13981 0.91916 0.0
C828 C 0.72182 0.80567 0.80974 0.0
C829 C 0.68624 0.75278 0.80993 0.0
H830 H 0.74627 0.87857 0.7883 0.0
C831 C 0.64461 0.73395 0.78859 0.0
H832 H 0.75432 0.82189 0.8258 0.0
C833 C 0.64016 0.76685 0.76668 0.0
C834 C 0.67712 0.81934 0.7657 0.0
H835 H 0.61646 0.69351 0.78798 0.0
H836 H 0.60855 0.75086 0.74994 0.0
C837 C 0.71729 0.83838 0.78804 0.0
C838 C 0.88158 0.62983 0.93116 0.0
C839 C 0.863 0.66438 0.93156 0.0
H840 H 0.93459 0.60932 0.95095 0.0
C841 C 0.88225 0.70332 0.95479 0.0
H842 H 0.86754 0.59926 0.9137 0.0
C843 C 0.92071 0.70926 0.9759 0.0
C844 C 0.941 0.67621 0.97474 0.0
H845 H 0.86878 0.73049 0.95611 0.0
H846 H 0.93555 0.74093 0.99259 0.0
C847 C 0.92001 0.63555 0.9526 0.0
C848 C 0.21463 0.91331 0.14246 0.0
C849 C 0.26803 0.93381 0.14223 0.0
H850 H 0.14241 0.86162 0.1214 0.0
C851 C 0.28876 0.91353 0.12037 0.0
H852 H 0.19699 0.9276 0.15891 0.0
C853 C 0.25708 0.87558 0.09831 0.0
C854 C 0.20391 0.85674 0.09781 0.0
H855 H 0.32965 0.9283 0.11943 0.0
H856 H 0.27446 0.86207 0.08112 0.0
C857 C 0.18312 0.8753 0.12074 0.0
C858 C 0.38444 0.2485 0.26661 0.0
C859 C 0.34833 0.19575 0.26579 0.0
H860 H 0.40676 0.32173 0.28766 0.0
C861 C 0.30812 0.17626 0.28813 0.0
H862 H 0.41604 0.26488 0.24987 0.0
C863 C 0.30271 0.20873 0.30962 0.0
C864 C 0.33749 0.26181 0.30969 0.0
H865 H 0.2797 0.1359 0.28849 0.0
H866 H 0.27017 0.19215 0.32564 0.0
C867 C 0.37919 0.28113 0.28838 0.0
C868 C 0.14052 0.38335 0.43126 0.0
C869 C 0.15779 0.34773 0.43097 0.0
H870 H 0.08867 0.40501 0.45158 0.0
C871 C 0.13694 0.3076 0.45337 0.0
H872 H 0.15576 0.41484 0.41443 0.0
C873 C 0.09841 0.30179 0.47442 0.0
C874 C 0.07967 0.33617 0.47405 0.0
H875 H 0.14927 0.27951 0.45412 0.0
H876 H 0.08243 0.26931 0.4905 0.0
C877 C 0.10206 0.37776 0.45264 0.0
C878 C 0.76445 0.13943 0.59967 0.0
C879 C 0.81766 0.15848 0.59863 0.0
H880 H 0.69242 0.08649 0.62139 0.0
C881 C 0.8391 0.14013 0.62123 0.0
H882 H 0.74657 0.15279 0.58274 0.0
C883 C 0.80821 0.10207 0.64305 0.0
C884 C 0.75477 0.0813 0.64336 0.0
H885 H 0.87984 0.15396 0.6215 0.0
H886 H 0.82641 0.08792 0.65915 0.0
C887 C 0.73337 0.10144 0.6219 0.0
C888 C 0.22212 0.33699 0.25381 0.0
C889 C 0.20502 0.33707 0.28506 0.0
H890 H 0.20783 0.33725 0.20363 0.0
C891 C 0.15855 0.33629 0.28949 0.0
H892 H 0.25778 0.33738 0.24976 0.0
C893 C 0.13068 0.33744 0.26313 0.0
C894 C 0.14807 0.33794 0.23189 0.0
H895 H 0.14467 0.33659 0.31331 0.0
H896 H 0.09556 0.33813 0.2672 0.0
C897 C 0.19352 0.33669 0.22745 0.0
C898 C 0.88939 0.21791 0.41982 0.0
C899 C 0.87078 0.20263 0.45102 0.0
H900 H 0.87675 0.20121 0.36976 0.0
C901 C 0.82391 0.15731 0.45554 0.0
H902 H 0.92554 0.25266 0.41571 0.0
C903 C 0.79538 0.12863 0.4292 0.0
C904 C 0.81401 0.14397 0.39798 0.0
H905 H 0.80865 0.14492 0.47936 0.0
H906 H 0.75881 0.09434 0.43325 0.0
C907 C 0.86164 0.18844 0.39357 0.0
C908 C 0.68126 0.82719 0.62387 0.0
C909 C 0.67805 0.87162 0.61945 0.0
H910 H 0.68098 0.76298 0.60173 0.0
C911 C 0.67472 0.88694 0.58823 0.0
H912 H 0.68364 0.81444 0.64767 0.0
C913 C 0.67458 0.85826 0.56189 0.0
C914 C 0.67617 0.81297 0.56642 0.0
H915 H 0.6724 0.92121 0.58419 0.0
H916 H 0.67167 0.87063 0.53808 0.0
C917 C 0.67956 0.79772 0.59762 0.0
C918 C 0.89301 0.67874 0.7636 0.0
C919 C 0.87588 0.67868 0.73234 0.0
H920 H 0.87838 0.67839 0.81377 0.0
C921 C 0.8302 0.67948 0.72788 0.0
H922 H 0.92827 0.67834 0.76767 0.0
C923 C 0.80114 0.67829 0.75423 0.0
C924 C 0.81797 0.67774 0.78548 0.0
H925 H 0.81606 0.6792 0.70406 0.0
H926 H 0.76533 0.67759 0.75015 0.0
C927 C 0.86467 0.679 0.78995 0.0
C928 C 0.15938 0.82769 0.89338 0.0
C929 C 0.20598 0.87316 0.8982 0.0
H930 H 0.0962 0.76222 0.91511 0.0
C931 C 0.223 0.88936 0.9296 0.0
H932 H 0.14558 0.81424 0.86944 0.0
C933 C 0.19419 0.86032 0.95572 0.0
C934 C 0.14864 0.81381 0.95087 0.0
H935 H 0.25878 0.92441 0.93395 0.0
H936 H 0.20846 0.8733 0.97966 0.0
C937 C 0.13135 0.79789 0.91948 0.0
C938 C 0.33979 0.18801 0.12402 0.0
C939 C 0.34078 0.14246 0.11922 0.0
H940 H 0.34221 0.25353 0.10227 0.0
C941 C 0.34156 0.12622 0.08783 0.0
H942 H 0.33946 0.20149 0.14796 0.0
C943 C 0.34185 0.15527 0.0617 0.0
C944 C 0.34292 0.20184 0.06653 0.0
H945 H 0.34219 0.09111 0.08349 0.0
H946 H 0.34309 0.14224 0.03777 0.0
C947 C 0.34161 0.21781 0.09792 0.0
loop_
_geom_bond_atom_site_label_1
_geom_bond_atom_site_label_2
_geom_bond_distance
_geom_bond_site_symmetry_2
_ccdc_geom_bond_type
Co0 O2 2.143 . S
Co0 O8 2.074 . S
Co0 O11 2.093 . S
Co0 O24 2.097 . S
Co0 N41 2.151 . S
Co0 N49 2.214 . S
Co1 O2 2.160 . S
Co1 O7 2.058 . S
Co1 O17 2.057 . S
Co1 O32 2.037 . S
Co1 N36 2.145 . S
Co1 N57 2.257 . S
O2 Co0 2.143 . S
O2 Co1 2.160 . S
C3 O4 1.278 . S
C3 O11 1.224 . S
O4 C3 1.278 . S
C5 O6 1.245 . S
C5 O17 1.232 . S
O6 C5 1.245 . S
O7 Co1 2.058 . S
O7 C33 1.269 1_455 S
O8 Co0 2.074 . S
O8 C33 1.257 1_455 S
H9 C34 0.930 . S
H10 C40 0.930 . S
O11 Co0 2.093 . S
O11 C3 1.224 . S
H12 C44 0.929 . S
H13 C46 0.930 . S
H14 C47 0.930 . S
H15 C45 0.929 . S
H16 C48 0.928 . S
O17 Co1 2.057 . S
O17 C5 1.232 . S
H18 C37 0.929 . S
H19 C38 0.929 . S
H20 C50 0.931 . S
H21 C42 0.929 1_455 S
H22 C51 0.930 . S
H23 C43 0.931 . S
O24 Co0 2.097 . S
O24 C52 1.214 . S
H25 C53 0.929 . S
H26 C54 0.929 . S
H27 C55 0.930 . S
H28 C56 0.929 . S
H29 C58 0.930 . S
H30 C35 0.930 . S
H31 C39 0.930 . S
O32 Co1 2.037 . S
O32 C52 1.234 . S
C33 O7 1.269 1_655 S
C33 O8 1.257 1_655 S
C34 H9 0.930 . S
C34 C37 1.388 . S
C34 C39 1.418 . S
C35 H30 0.930 . S
C35 C38 1.404 . S
C35 C39 1.353 . S
N36 Co1 2.145 . S
N36 C37 1.397 . S
N36 C38 1.334 . S
C37 H18 0.929 . S
C37 C34 1.388 . S
C37 N36 1.397 . S
C38 H19 0.929 . S
C38 C35 1.404 . S
C38 N36 1.334 . S
C39 H31 0.930 . S
C39 C34 1.418 . S
C39 C35 1.353 . S
C40 H10 0.930 . S
C40 N41 1.330 . S
C40 C42 1.446 1_455 S
N41 Co0 2.151 . S
N41 C40 1.330 . S
N41 C45 1.418 1_455 S
C42 H21 0.929 1_655 S
C42 C40 1.446 1_655 S
C42 C43 1.332 . S
C43 H23 0.931 . S
C43 C42 1.332 . S
C43 C44 1.267 . S
C44 H12 0.929 . S
C44 C43 1.267 . S
C44 C45 1.251 . S
C45 H15 0.929 . S
C45 N41 1.418 1_655 S
C45 C44 1.251 . S
C46 H13 0.930 . S
C46 C48 1.406 . S
C46 C51 1.261 . S
C47 H14 0.930 . S
C47 N49 1.325 . S
C47 C50 1.357 . S
C48 H16 0.928 . S
C48 C46 1.406 . S
C48 N49 1.261 . S
N49 Co0 2.214 . S
N49 C47 1.325 . S
N49 C48 1.261 . S
C50 H20 0.931 . S
C50 C47 1.357 . S
C50 C51 1.312 . S
C51 H22 0.930 . S
C51 C46 1.261 . S
C51 C50 1.312 . S
C52 O24 1.214 . S
C52 O32 1.234 . S
C53 H25 0.929 . S
C53 C56 1.391 . S
C53 C58 1.391 . S
C54 H26 0.929 . S
C54 C55 1.390 . S
C54 N57 1.391 . S
C55 H27 0.930 . S
C55 C54 1.390 . S
C55 C56 1.392 . S
C56 H28 0.929 . S
C56 C53 1.391 . S
C56 C55 1.392 . S
N57 Co1 2.257 . S
N57 C54 1.391 . S
N57 C58 1.388 . S
C58 H29 0.930 . S
C58 C53 1.391 . S
C58 N57 1.388 . S
Co59 O61 2.143 . S
Co59 O67 2.074 . S
Co59 O70 2.093 . S
Co59 O83 2.097 . S
Co59 N100 2.151 . S
Co59 N108 2.214 . S
Co60 O61 2.160 . S
Co60 O66 2.058 . S
Co60 O76 2.057 . S
Co60 O91 2.037 . S
Co60 N95 2.145 . S
Co60 N116 2.257 . S
O61 Co59 2.143 . S
O61 Co60 2.160 . S
C62 O63 1.278 . S
C62 O70 1.224 . S
O63 C62 1.278 . S
C64 O65 1.245 . S
C64 O76 1.232 . S
O65 C64 1.245 . S
O66 Co60 2.058 . S
O66 C92 1.269 1_545 S
O67 Co59 2.074 . S
O67 C92 1.257 1_545 S
H68 C93 0.930 . S
H69 C99 0.930 . S
O70 Co59 2.093 . S
O70 C62 1.224 . S
H71 C103 0.929 . S
H72 C105 0.930 . S
H73 C106 0.930 . S
H74 C104 0.929 . S
H75 C107 0.928 . S
O76 Co60 2.057 . S
O76 C64 1.232 . S
H77 C96 0.929 . S
H78 C97 0.929 . S
H79 C109 0.931 . S
H80 C101 0.929 1_545 S
H81 C110 0.930 . S
H82 C102 0.931 . S
O83 Co59 2.097 . S
O83 C111 1.214 . S
H84 C112 0.929 . S
H85 C113 0.929 . S
H86 C114 0.930 . S
H87 C115 0.929 . S
H88 C117 0.930 . S
H89 C94 0.930 . S
H90 C98 0.930 . S
O91 Co60 2.037 . S
O91 C111 1.234 . S
C92 O66 1.269 1_565 S
C92 O67 1.257 1_565 S
C93 H68 0.930 . S
C93 C96 1.388 . S
C93 C98 1.418 . S
C94 H89 0.930 . S
C94 C97 1.404 . S
C94 C98 1.353 . S
N95 Co60 2.145 . S
N95 C96 1.397 . S
N95 C97 1.334 . S
C96 H77 0.929 . S
C96 C93 1.388 . S
C96 N95 1.397 . S
C97 H78 0.929 . S
C97 C94 1.404 . S
C97 N95 1.334 . S
C98 H90 0.930 . S
C98 C93 1.418 . S
C98 C94 1.353 . S
C99 H69 0.930 . S
C99 N100 1.330 . S
C99 C101 1.446 1_545 S
N100 Co59 2.151 . S
N100 C99 1.330 . S
N100 C104 1.418 1_545 S
C101 H80 0.929 1_565 S
C101 C99 1.446 1_565 S
C101 C102 1.332 . S
C102 H82 0.931 . S
C102 C101 1.332 . S
C102 C103 1.267 . S
C103 H71 0.929 . S
C103 C102 1.267 . S
C103 C104 1.251 . S
C104 H74 0.929 . S
C104 N100 1.418 1_565 S
C104 C103 1.251 . S
C105 H72 0.930 . S
C105 C107 1.406 . S
C105 C110 1.261 . S
C106 H73 0.930 . S
C106 N108 1.325 . S
C106 C109 1.357 . S
C107 H75 0.928 . S
C107 C105 1.406 . S
C107 N108 1.261 . S
N108 Co59 2.214 . S
N108 C106 1.325 . S
N108 C107 1.261 . S
C109 H79 0.931 . S
C109 C106 1.357 . S
C109 C110 1.312 . S
C110 H81 0.930 . S
C110 C105 1.261 . S
C110 C109 1.312 . S
C111 O83 1.214 . S
C111 O91 1.234 . S
C112 H84 0.929 . S
C112 C115 1.391 . S
C112 C117 1.391 . S
C113 H85 0.929 . S
C113 C114 1.390 . S
C113 N116 1.391 . S
C114 H86 0.930 . S
C114 C113 1.390 . S
C114 C115 1.392 . S
C115 H87 0.929 . S
C115 C112 1.391 . S
C115 C114 1.392 . S
N116 Co60 2.257 . S
N116 C113 1.391 . S
N116 C117 1.388 . S
C117 H88 0.930 . S
C117 C112 1.391 . S
C117 N116 1.388 . S
Co118 O120 2.143 . S
Co118 O126 2.074 . S
Co118 O129 2.093 . S
Co118 O142 2.097 . S
Co118 N159 2.151 . S
Co118 N167 2.214 . S
Co119 O120 2.160 . S
Co119 O125 2.058 . S
Co119 O135 2.057 . S
Co119 O150 2.037 . S
Co119 N154 2.145 . S
Co119 N175 2.257 . S
O120 Co118 2.143 . S
O120 Co119 2.160 . S
C121 O122 1.278 . S
C121 O129 1.224 . S
O122 C121 1.278 . S
C123 O124 1.245 . S
C123 O135 1.232 . S
O124 C123 1.245 . S
O125 Co119 2.058 . S
O125 C151 1.269 . S
O126 Co118 2.074 . S
O126 C151 1.257 . S
H127 C152 0.930 . S
H128 C158 0.930 . S
O129 Co118 2.093 . S
O129 C121 1.224 . S
H130 C162 0.929 . S
H131 C164 0.930 . S
H132 C165 0.930 . S
H133 C163 0.929 . S
H134 C166 0.928 . S
O135 Co119 2.057 . S
O135 C123 1.232 . S
H136 C155 0.929 . S
H137 C156 0.929 . S
H138 C168 0.931 . S
H139 C160 0.929 . S
H140 C169 0.930 . S
H141 C161 0.931 . S
O142 Co118 2.097 . S
O142 C170 1.214 . S
H143 C171 0.929 . S
H144 C172 0.929 . S
H145 C173 0.930 . S
H146 C174 0.929 . S
H147 C176 0.930 . S
H148 C153 0.930 . S
H149 C157 0.930 . S
O150 Co119 2.037 . S
O150 C170 1.234 . S
C151 O125 1.269 . S
C151 O126 1.257 . S
C152 H127 0.930 . S
C152 C155 1.388 . S
C152 C157 1.418 . S
C153 H148 0.930 . S
C153 C156 1.404 . S
C153 C157 1.353 . S
N154 Co119 2.145 . S
N154 C155 1.397 . S
N154 C156 1.334 . S
C155 H136 0.929 . S
C155 C152 1.388 . S
C155 N154 1.397 . S
C156 H137 0.929 . S
C156 C153 1.404 . S
C156 N154 1.334 . S
C157 H149 0.930 . S
C157 C152 1.418 . S
C157 C153 1.353 . S
C158 H128 0.930 . S
C158 N159 1.330 . S
C158 C160 1.446 . S
N159 Co118 2.151 . S
N159 C158 1.330 . S
N159 C163 1.418 . S
C160 H139 0.929 . S
C160 C158 1.446 . S
C160 C161 1.332 . S
C161 H141 0.931 . S
C161 C160 1.332 . S
C161 C162 1.267 . S
C162 H130 0.929 . S
C162 C161 1.267 . S
C162 C163 1.251 . S
C163 H133 0.929 . S
C163 N159 1.418 . S
C163 C162 1.251 . S
C164 H131 0.930 . S
C164 C166 1.406 . S
C164 C169 1.261 . S
C165 H132 0.930 . S
C165 N167 1.325 . S
C165 C168 1.357 . S
C166 H134 0.928 . S
C166 C164 1.406 . S
C166 N167 1.261 . S
N167 Co118 2.214 . S
N167 C165 1.325 . S
N167 C166 1.261 . S
C168 H138 0.931 . S
C168 C165 1.357 . S
C168 C169 1.312 . S
C169 H140 0.930 . S
C169 C164 1.261 . S
C169 C168 1.312 . S
C170 O142 1.214 . S
C170 O150 1.234 . S
C171 H143 0.929 . S
C171 C174 1.391 . S
C171 C176 1.391 . S
C172 H144 0.929 . S
C172 C173 1.390 . S
C172 N175 1.391 . S
C173 H145 0.930 . S
C173 C172 1.390 . S
C173 C174 1.392 . S
C174 H146 0.929 . S
C174 C171 1.391 . S
C174 C173 1.392 . S
N175 Co119 2.257 . S
N175 C172 1.391 . S
N175 C176 1.388 . S
C176 H147 0.930 . S
C176 C171 1.391 . S
C176 N175 1.388 . S
Co177 O179 2.143 . S
Co177 O185 2.074 . S
Co177 O188 2.093 . S
Co177 O201 2.097 . S
Co177 N218 2.151 . S
Co177 N226 2.214 . S
Co178 O179 2.160 . S
Co178 O184 2.058 . S
Co178 O194 2.057 . S
Co178 O209 2.037 . S
Co178 N213 2.145 . S
Co178 N234 2.257 . S
O179 Co177 2.143 . S
O179 Co178 2.160 . S
C180 O181 1.278 . S
C180 O188 1.224 . S
O181 C180 1.278 . S
C182 O183 1.245 . S
C182 O194 1.232 . S
O183 C182 1.245 . S
O184 Co178 2.058 . S
O184 C210 1.269 1_655 S
O185 Co177 2.074 . S
O185 C210 1.257 1_655 S
H186 C211 0.930 . S
H187 C217 0.930 . S
O188 Co177 2.093 . S
O188 C180 1.224 . S
H189 C221 0.929 . S
H190 C223 0.930 . S
H191 C224 0.930 . S
H192 C222 0.929 . S
H193 C225 0.928 . S
O194 Co178 2.057 . S
O194 C182 1.232 . S
H195 C214 0.929 . S
H196 C215 0.929 . S
H197 C227 0.931 . S
H198 C219 0.929 1_655 S
H199 C228 0.930 . S
H200 C220 0.931 . S
O201 Co177 2.097 . S
O201 C229 1.214 . S
H202 C230 0.929 . S
H203 C231 0.929 . S
H204 C232 0.930 . S
H205 C233 0.929 . S
H206 C235 0.930 . S
H207 C212 0.930 . S
H208 C216 0.930 . S
O209 Co178 2.037 . S
O209 C229 1.234 . S
C210 O184 1.269 1_455 S
C210 O185 1.257 1_455 S
C211 H186 0.930 . S
C211 C214 1.388 . S
C211 C216 1.418 . S
C212 H207 0.930 . S
C212 C215 1.404 . S
C212 C216 1.353 . S
N213 Co178 2.145 . S
N213 C214 1.397 . S
N213 C215 1.334 . S
C214 H195 0.929 . S
C214 C211 1.388 . S
C214 N213 1.397 . S
C215 H196 0.929 . S
C215 C212 1.404 . S
C215 N213 1.334 . S
C216 H208 0.930 . S
C216 C211 1.418 . S
C216 C212 1.353 . S
C217 H187 0.930 . S
C217 N218 1.330 . S
C217 C219 1.446 1_655 S
N218 Co177 2.151 . S
N218 C217 1.330 . S
N218 C222 1.418 1_655 S
C219 H198 0.929 1_455 S
C219 C217 1.446 1_455 S
C219 C220 1.332 . S
C220 H200 0.931 . S
C220 C219 1.332 . S
C220 C221 1.267 . S
C221 H189 0.929 . S
C221 C220 1.267 . S
C221 C222 1.251 . S
C222 H192 0.929 . S
C222 N218 1.418 1_455 S
C222 C221 1.251 . S
C223 H190 0.930 . S
C223 C225 1.406 . S
C223 C228 1.261 . S
C224 H191 0.930 . S
C224 N226 1.325 . S
C224 C227 1.357 . S
C225 H193 0.928 . S
C225 C223 1.406 . S
C225 N226 1.261 . S
N226 Co177 2.214 . S
N226 C224 1.325 . S
N226 C225 1.261 . S
C227 H197 0.931 . S
C227 C224 1.357 . S
C227 C228 1.312 . S
C228 H199 0.930 . S
C228 C223 1.261 . S
C228 C227 1.312 . S
C229 O201 1.214 . S
C229 O209 1.234 . S
C230 H202 0.929 . S
C230 C233 1.391 . S
C230 C235 1.391 . S
C231 H203 0.929 . S
C231 C232 1.390 . S
C231 N234 1.391 . S
C232 H204 0.930 . S
C232 C231 1.390 . S
C232 C233 1.392 . S
C233 H205 0.929 . S
C233 C230 1.391 . S
C233 C232 1.392 . S
N234 Co178 2.257 . S
N234 C231 1.391 . S
N234 C235 1.388 . S
C235 H206 0.930 . S
C235 C230 1.391 . S
C235 N234 1.388 . S
Co236 O238 2.143 . S
Co236 O244 2.074 . S
Co236 O247 2.093 . S
Co236 O260 2.097 . S
Co236 N277 2.151 . S
Co236 N285 2.214 . S
Co237 O238 2.160 . S
Co237 O243 2.058 . S
Co237 O253 2.057 . S
Co237 O268 2.037 . S
Co237 N272 2.145 . S
Co237 N293 2.257 . S
O238 Co236 2.143 . S
O238 Co237 2.160 . S
C239 O240 1.278 . S
C239 O247 1.224 . S
O240 C239 1.278 . S
C241 O242 1.245 . S
C241 O253 1.232 . S
O242 C241 1.245 . S
O243 Co237 2.058 . S
O243 C269 1.269 1_565 S
O244 Co236 2.074 . S
O244 C269 1.257 1_565 S
H245 C270 0.930 . S
H246 C276 0.930 . S
O247 Co236 2.093 . S
O247 C239 1.224 . S
H248 C280 0.929 . S
H249 C282 0.930 . S
H250 C283 0.930 . S
H251 C281 0.929 . S
H252 C284 0.928 . S
O253 Co237 2.057 . S
O253 C241 1.232 . S
H254 C273 0.929 . S
H255 C274 0.929 . S
H256 C286 0.931 . S
H257 C278 0.929 1_565 S
H258 C287 0.930 . S
H259 C279 0.931 . S
O260 Co236 2.097 . S
O260 C288 1.214 . S
H261 C289 0.929 . S
H262 C290 0.929 . S
H263 C291 0.930 . S
H264 C292 0.929 . S
H265 C294 0.930 . S
H266 C271 0.930 . S
H267 C275 0.930 . S
O268 Co237 2.037 . S
O268 C288 1.234 . S
C269 O243 1.269 1_545 S
C269 O244 1.257 1_545 S
C270 H245 0.930 . S
C270 C273 1.388 . S
C270 C275 1.418 . S
C271 H266 0.930 . S
C271 C274 1.404 . S
C271 C275 1.353 . S
N272 Co237 2.145 . S
N272 C273 1.397 . S
N272 C274 1.334 . S
C273 H254 0.929 . S
C273 C270 1.388 . S
C273 N272 1.397 . S
C274 H255 0.929 . S
C274 C271 1.404 . S
C274 N272 1.334 . S
C275 H267 0.930 . S
C275 C270 1.418 . S
C275 C271 1.353 . S
C276 H246 0.930 . S
C276 N277 1.330 . S
C276 C278 1.446 1_565 S
N277 Co236 2.151 . S
N277 C276 1.330 . S
N277 C281 1.418 1_565 S
C278 H257 0.929 1_545 S
C278 C276 1.446 1_545 S
C278 C279 1.332 . S
C279 H259 0.931 . S
C279 C278 1.332 . S
C279 C280 1.267 . S
C280 H248 0.929 . S
C280 C279 1.267 . S
C280 C281 1.251 . S
C281 H251 0.929 . S
C281 N277 1.418 1_545 S
C281 C280 1.251 . S
C282 H249 0.930 . S
C282 C284 1.406 . S
C282 C287 1.261 . S
C283 H250 0.930 . S
C283 N285 1.325 . S
C283 C286 1.357 . S
C284 H252 0.928 . S
C284 C282 1.406 . S
C284 N285 1.261 . S
N285 Co236 2.214 . S
N285 C283 1.325 . S
N285 C284 1.261 . S
C286 H256 0.931 . S
C286 C283 1.357 . S
C286 C287 1.312 . S
C287 H258 0.930 . S
C287 C282 1.261 . S
C287 C286 1.312 . S
C288 O260 1.214 . S
C288 O268 1.234 . S
C289 H261 0.929 . S
C289 C292 1.391 . S
C289 C294 1.391 . S
C290 H262 0.929 . S
C290 C291 1.390 . S
C290 N293 1.391 . S
C291 H263 0.930 . S
C291 C290 1.390 . S
C291 C292 1.392 . S
C292 H264 0.929 . S
C292 C289 1.391 . S
C292 C291 1.392 . S
N293 Co237 2.257 . S
N293 C290 1.391 . S
N293 C294 1.388 . S
C294 H265 0.930 . S
C294 C289 1.391 . S
C294 N293 1.388 . S
Co295 O297 2.143 . S
Co295 O303 2.074 . S
Co295 O306 2.093 . S
Co295 O319 2.097 1_556 S
Co295 N336 2.151 . S
Co295 N344 2.214 . S
Co296 O297 2.160 . S
Co296 O302 2.058 . S
Co296 O312 2.057 . S
Co296 O327 2.037 1_556 S
Co296 N331 2.145 1_556 S
Co296 N352 2.257 . S
O297 Co295 2.143 . S
O297 Co296 2.160 . S
C298 O299 1.278 . S
C298 O306 1.224 . S
O299 C298 1.278 . S
C300 O301 1.245 . S
C300 O312 1.232 . S
O301 C300 1.245 . S
O302 Co296 2.058 . S
O302 C328 1.269 1_556 S
O303 Co295 2.074 . S
O303 C328 1.257 1_556 S
H304 C329 0.930 . S
H305 C335 0.930 . S
O306 Co295 2.093 . S
O306 C298 1.224 . S
H307 C339 0.929 . S
H308 C341 0.930 . S
H309 C342 0.930 . S
H310 C340 0.929 . S
H311 C343 0.928 . S
O312 Co296 2.057 . S
O312 C300 1.232 . S
H313 C332 0.929 . S
H314 C333 0.929 . S
H315 C345 0.931 . S
H316 C337 0.929 . S
H317 C346 0.930 . S
H318 C338 0.931 . S
O319 Co295 2.097 1_554 S
O319 C347 1.214 . S
H320 C348 0.929 . S
H321 C349 0.929 . S
H322 C350 0.930 . S
H323 C351 0.929 . S
H324 C353 0.930 . S
H325 C330 0.930 . S
H326 C334 0.930 . S
O327 Co296 2.037 1_554 S
O327 C347 1.234 . S
C328 O302 1.269 1_554 S
C328 O303 1.257 1_554 S
C329 H304 0.930 . S
C329 C332 1.388 . S
C329 C334 1.418 . S
C330 H325 0.930 . S
C330 C333 1.404 . S
C330 C334 1.353 . S
N331 Co296 2.145 1_554 S
N331 C332 1.397 . S
N331 C333 1.334 . S
C332 H313 0.929 . S
C332 C329 1.388 . S
C332 N331 1.397 . S
C333 H314 0.929 . S
C333 C330 1.404 . S
C333 N331 1.334 . S
C334 H326 0.930 . S
C334 C329 1.418 . S
C334 C330 1.353 . S
C335 H305 0.930 . S
C335 N336 1.330 . S
C335 C337 1.446 . S
N336 Co295 2.151 . S
N336 C335 1.330 . S
N336 C340 1.418 . S
C337 H316 0.929 . S
C337 C335 1.446 . S
C337 C338 1.332 . S
C338 H318 0.931 . S
C338 C337 1.332 . S
C338 C339 1.267 . S
C339 H307 0.929 . S
C339 C338 1.267 . S
C339 C340 1.251 . S
C340 H310 0.929 . S
C340 N336 1.418 . S
C340 C339 1.251 . S
C341 H308 0.930 . S
C341 C343 1.406 . S
C341 C346 1.261 1_556 S
C342 H309 0.930 . S
C342 N344 1.325 1_554 S
C342 C345 1.357 . S
C343 H311 0.928 . S
C343 C341 1.406 . S
C343 N344 1.261 . S
N344 Co295 2.214 . S
N344 C342 1.325 1_556 S
N344 C343 1.261 . S
C345 H315 0.931 . S
C345 C342 1.357 . S
C345 C346 1.312 . S
C346 H317 0.930 . S
C346 C341 1.261 1_554 S
C346 C345 1.312 . S
C347 O319 1.214 . S
C347 O327 1.234 . S
C348 H320 0.929 . S
C348 C351 1.391 . S
C348 C353 1.391 . S
C349 H321 0.929 . S
C349 C350 1.390 . S
C349 N352 1.391 1_554 S
C350 H322 0.930 . S
C350 C349 1.390 . S
C350 C351 1.392 1_554 S
C351 H323 0.929 . S
C351 C348 1.391 . S
C351 C350 1.392 1_556 S
N352 Co296 2.257 . S
N352 C349 1.391 1_556 S
N352 C353 1.388 . S
C353 H324 0.930 . S
C353 C348 1.391 . S
C353 N352 1.388 . S
Co354 O356 2.143 . S
Co354 O362 2.074 . S
Co354 O365 2.093 . S
Co354 O378 2.097 . S
Co354 N395 2.151 . S
Co354 N403 2.214 . S
Co355 O356 2.160 . S
Co355 O361 2.058 . S
Co355 O371 2.057 . S
Co355 O386 2.037 . S
Co355 N390 2.145 . S
Co355 N411 2.257 . S
O356 Co354 2.143 . S
O356 Co355 2.160 . S
C357 O358 1.278 . S
C357 O365 1.224 . S
O358 C357 1.278 . S
C359 O360 1.245 . S
C359 O371 1.232 . S
O360 C359 1.245 . S
O361 Co355 2.058 . S
O361 C387 1.269 1_565 S
O362 Co354 2.074 . S
O362 C387 1.257 1_565 S
H363 C388 0.930 . S
H364 C394 0.930 . S
O365 Co354 2.093 . S
O365 C357 1.224 . S
H366 C398 0.929 . S
H367 C400 0.930 . S
H368 C401 0.930 . S
H369 C399 0.929 . S
H370 C402 0.928 . S
O371 Co355 2.057 . S
O371 C359 1.232 . S
H372 C391 0.929 . S
H373 C392 0.929 . S
H374 C404 0.931 . S
H375 C396 0.929 1_565 S
H376 C405 0.930 . S
H377 C397 0.931 . S
O378 Co354 2.097 . S
O378 C406 1.214 . S
H379 C407 0.929 . S
H380 C408 0.929 . S
H381 C409 0.930 . S
H382 C410 0.929 . S
H383 C412 0.930 . S
H384 C389 0.930 . S
H385 C393 0.930 . S
O386 Co355 2.037 . S
O386 C406 1.234 . S
C387 O361 1.269 1_545 S
C387 O362 1.257 1_545 S
C388 H363 0.930 . S
C388 C391 1.388 . S
C388 C393 1.418 . S
C389 H384 0.930 . S
C389 C392 1.404 . S
C389 C393 1.353 . S
N390 Co355 2.145 . S
N390 C391 1.397 . S
N390 C392 1.334 . S
C391 H372 0.929 . S
C391 C388 1.388 . S
C391 N390 1.397 . S
C392 H373 0.929 . S
C392 C389 1.404 . S
C392 N390 1.334 . S
C393 H385 0.930 . S
C393 C388 1.418 . S
C393 C389 1.353 . S
C394 H364 0.930 . S
C394 N395 1.330 . S
C394 C396 1.446 1_565 S
N395 Co354 2.151 . S
N395 C394 1.330 . S
N395 C399 1.418 1_565 S
C396 H375 0.929 1_545 S
C396 C394 1.446 1_545 S
C396 C397 1.332 . S
C397 H377 0.931 . S
C397 C396 1.332 . S
C397 C398 1.267 . S
C398 H366 0.929 . S
C398 C397 1.267 . S
C398 C399 1.251 . S
C399 H369 0.929 . S
C399 N395 1.418 1_545 S
C399 C398 1.251 . S
C400 H367 0.930 . S
C400 C402 1.406 . S
C400 C405 1.261 . S
C401 H368 0.930 . S
C401 N403 1.325 . S
C401 C404 1.357 . S
C402 H370 0.928 . S
C402 C400 1.406 . S
C402 N403 1.261 . S
N403 Co354 2.214 . S
N403 C401 1.325 . S
N403 C402 1.261 . S
C404 H374 0.931 . S
C404 C401 1.357 . S
C404 C405 1.312 . S
C405 H376 0.930 . S
C405 C400 1.261 . S
C405 C404 1.312 . S
C406 O378 1.214 . S
C406 O386 1.234 . S
C407 H379 0.929 . S
C407 C410 1.391 . S
C407 C412 1.391 . S
C408 H380 0.929 . S
C408 C409 1.390 . S
C408 N411 1.391 . S
C409 H381 0.930 . S
C409 C408 1.390 . S
C409 C410 1.392 . S
C410 H382 0.929 . S
C410 C407 1.391 . S
C410 C409 1.392 . S
N411 Co355 2.257 . S
N411 C408 1.391 . S
N411 C412 1.388 . S
C412 H383 0.930 . S
C412 C407 1.391 . S
C412 N411 1.388 . S
Co413 O415 2.143 . S
Co413 O421 2.074 . S
Co413 O424 2.093 . S
Co413 O437 2.097 . S
Co413 N454 2.151 . S
Co413 N462 2.214 . S
Co414 O415 2.160 . S
Co414 O420 2.058 . S
Co414 O430 2.057 . S
Co414 O445 2.037 . S
Co414 N449 2.145 . S
Co414 N470 2.257 . S
O415 Co413 2.143 . S
O415 Co414 2.160 . S
C416 O417 1.278 . S
C416 O424 1.224 . S
O417 C416 1.278 . S
C418 O419 1.245 . S
C418 O430 1.232 . S
O419 C418 1.245 . S
O420 Co414 2.058 . S
O420 C446 1.269 . S
O421 Co413 2.074 . S
O421 C446 1.257 . S
H422 C447 0.930 . S
H423 C453 0.930 . S
O424 Co413 2.093 . S
O424 C416 1.224 . S
H425 C457 0.929 . S
H426 C459 0.930 . S
H427 C460 0.930 . S
H428 C458 0.929 . S
H429 C461 0.928 . S
O430 Co414 2.057 . S
O430 C418 1.232 . S
H431 C450 0.929 . S
H432 C451 0.929 . S
H433 C463 0.931 . S
H434 C455 0.929 . S
H435 C464 0.930 . S
H436 C456 0.931 . S
O437 Co413 2.097 . S
O437 C465 1.214 . S
H438 C466 0.929 . S
H439 C467 0.929 . S
H440 C468 0.930 . S
H441 C469 0.929 . S
H442 C471 0.930 . S
H443 C448 0.930 . S
H444 C452 0.930 . S
O445 Co414 2.037 . S
O445 C465 1.234 . S
C446 O420 1.269 . S
C446 O421 1.257 . S
C447 H422 0.930 . S
C447 C450 1.388 . S
C447 C452 1.418 . S
C448 H443 0.930 . S
C448 C451 1.404 . S
C448 C452 1.353 . S
N449 Co414 2.145 . S
N449 C450 1.397 . S
N449 C451 1.334 . S
C450 H431 0.929 . S
C450 C447 1.388 . S
C450 N449 1.397 . S
C451 H432 0.929 . S
C451 C448 1.404 . S
C451 N449 1.334 . S
C452 H444 0.930 . S
C452 C447 1.418 . S
C452 C448 1.353 . S
C453 H423 0.930 . S
C453 N454 1.330 . S
C453 C455 1.446 . S
N454 Co413 2.151 . S
N454 C453 1.330 . S
N454 C458 1.418 . S
C455 H434 0.929 . S
C455 C453 1.446 . S
C455 C456 1.332 . S
C456 H436 0.931 . S
C456 C455 1.332 . S
C456 C457 1.267 . S
C457 H425 0.929 . S
C457 C456 1.267 . S
C457 C458 1.251 . S
C458 H428 0.929 . S
C458 N454 1.418 . S
C458 C457 1.251 . S
C459 H426 0.930 . S
C459 C461 1.406 . S
C459 C464 1.261 . S
C460 H427 0.930 . S
C460 N462 1.325 . S
C460 C463 1.357 . S
C461 H429 0.928 . S
C461 C459 1.406 . S
C461 N462 1.261 . S
N462 Co413 2.214 . S
N462 C460 1.325 . S
N462 C461 1.261 . S
C463 H433 0.931 . S
C463 C460 1.357 . S
C463 C464 1.312 . S
C464 H435 0.930 . S
C464 C459 1.261 . S
C464 C463 1.312 . S
C465 O437 1.214 . S
C465 O445 1.234 . S
C466 H438 0.929 . S
C466 C469 1.391 . S
C466 C471 1.391 . S
C467 H439 0.929 . S
C467 C468 1.390 . S
C467 N470 1.391 . S
C468 H440 0.930 . S
C468 C467 1.390 . S
C468 C469 1.392 . S
C469 H441 0.929 . S
C469 C466 1.391 . S
C469 C468 1.392 . S
N470 Co414 2.257 . S
N470 C467 1.391 . S
N470 C471 1.388 . S
C471 H442 0.930 . S
C471 C466 1.391 . S
C471 N470 1.388 . S
Co472 O474 2.143 . S
Co472 O480 2.074 . S
Co472 O483 2.093 . S
Co472 O496 2.097 1_554 S
Co472 N513 2.151 . S
Co472 N521 2.214 . S
Co473 O474 2.160 . S
Co473 O479 2.058 . S
Co473 O489 2.057 . S
Co473 O504 2.037 1_554 S
Co473 N508 2.145 1_554 S
Co473 N529 2.257 . S
O474 Co472 2.143 . S
O474 Co473 2.160 . S
C475 O476 1.278 . S
C475 O483 1.224 . S
O476 C475 1.278 . S
C477 O478 1.245 . S
C477 O489 1.232 . S
O478 C477 1.245 . S
O479 Co473 2.058 . S
O479 C505 1.269 1_454 S
O480 Co472 2.074 . S
O480 C505 1.257 1_454 S
H481 C506 0.930 . S
H482 C512 0.930 . S
O483 Co472 2.093 . S
O483 C475 1.224 . S
H484 C516 0.929 . S
H485 C518 0.930 . S
H486 C519 0.930 . S
H487 C517 0.929 . S
H488 C520 0.928 . S
O489 Co473 2.057 . S
O489 C477 1.232 . S
H490 C509 0.929 . S
H491 C510 0.929 . S
H492 C522 0.931 . S
H493 C514 0.929 1_455 S
H494 C523 0.930 . S
H495 C515 0.931 . S
O496 Co472 2.097 1_556 S
O496 C524 1.214 . S
H497 C525 0.929 . S
H498 C526 0.929 . S
H499 C527 0.930 . S
H500 C528 0.929 . S
H501 C530 0.930 . S
H502 C507 0.930 . S
H503 C511 0.930 . S
O504 Co473 2.037 1_556 S
O504 C524 1.234 . S
C505 O479 1.269 1_656 S
C505 O480 1.257 1_656 S
C506 H481 0.930 . S
C506 C509 1.388 . S
C506 C511 1.418 . S
C507 H502 0.930 . S
C507 C510 1.404 . S
C507 C511 1.353 . S
N508 Co473 2.145 1_556 S
N508 C509 1.397 . S
N508 C510 1.334 . S
C509 H490 0.929 . S
C509 C506 1.388 . S
C509 N508 1.397 . S
C510 H491 0.929 . S
C510 C507 1.404 . S
C510 N508 1.334 . S
C511 H503 0.930 . S
C511 C506 1.418 . S
C511 C507 1.353 . S
C512 H482 0.930 . S
C512 N513 1.330 . S
C512 C514 1.446 1_455 S
N513 Co472 2.151 . S
N513 C512 1.330 . S
N513 C517 1.418 1_455 S
C514 H493 0.929 1_655 S
C514 C512 1.446 1_655 S
C514 C515 1.332 . S
C515 H495 0.931 . S
C515 C514 1.332 . S
C515 C516 1.267 . S
C516 H484 0.929 . S
C516 C515 1.267 . S
C516 C517 1.251 . S
C517 H487 0.929 . S
C517 N513 1.418 1_655 S
C517 C516 1.251 . S
C518 H485 0.930 . S
C518 C520 1.406 . S
C518 C523 1.261 1_554 S
C519 H486 0.930 . S
C519 N521 1.325 1_556 S
C519 C522 1.357 . S
C520 H488 0.928 . S
C520 C518 1.406 . S
C520 N521 1.261 . S
N521 Co472 2.214 . S
N521 C519 1.325 1_554 S
N521 C520 1.261 . S
C522 H492 0.931 . S
C522 C519 1.357 . S
C522 C523 1.312 . S
C523 H494 0.930 . S
C523 C518 1.261 1_556 S
C523 C522 1.312 . S
C524 O496 1.214 . S
C524 O504 1.234 . S
C525 H497 0.929 . S
C525 C528 1.391 . S
C525 C530 1.391 . S
C526 H498 0.929 . S
C526 C527 1.390 . S
C526 N529 1.391 1_556 S
C527 H499 0.930 . S
C527 C526 1.390 . S
C527 C528 1.392 1_556 S
C528 H500 0.929 . S
C528 C525 1.391 . S
C528 C527 1.392 1_554 S
N529 Co473 2.257 . S
N529 C526 1.391 1_554 S
N529 C530 1.388 . S
C530 H501 0.930 . S
C530 C525 1.391 . S
C530 N529 1.388 . S
Co531 O533 2.143 . S
Co531 O539 2.074 . S
Co531 O542 2.093 . S
Co531 O555 2.097 . S
Co531 N572 2.151 . S
Co531 N580 2.214 . S
Co532 O533 2.160 . S
Co532 O538 2.058 . S
Co532 O548 2.057 . S
Co532 O563 2.037 . S
Co532 N567 2.145 . S
Co532 N588 2.257 . S
O533 Co531 2.143 . S
O533 Co532 2.160 . S
C534 O535 1.278 . S
C534 O542 1.224 . S
O535 C534 1.278 . S
C536 O537 1.245 . S
C536 O548 1.232 . S
O537 C536 1.245 . S
O538 Co532 2.058 . S
O538 C564 1.269 1_545 S
O539 Co531 2.074 . S
O539 C564 1.257 1_545 S
H540 C565 0.930 . S
H541 C571 0.930 . S
O542 Co531 2.093 . S
O542 C534 1.224 . S
H543 C575 0.929 . S
H544 C577 0.930 . S
H545 C578 0.930 . S
H546 C576 0.929 . S
H547 C579 0.928 . S
O548 Co532 2.057 . S
O548 C536 1.232 . S
H549 C568 0.929 . S
H550 C569 0.929 . S
H551 C581 0.931 . S
H552 C573 0.929 1_545 S
H553 C582 0.930 . S
H554 C574 0.931 . S
O555 Co531 2.097 . S
O555 C583 1.214 . S
H556 C584 0.929 . S
H557 C585 0.929 . S
H558 C586 0.930 . S
H559 C587 0.929 . S
H560 C589 0.930 . S
H561 C566 0.930 . S
H562 C570 0.930 . S
O563 Co532 2.037 . S
O563 C583 1.234 . S
C564 O538 1.269 1_565 S
C564 O539 1.257 1_565 S
C565 H540 0.930 . S
C565 C568 1.388 . S
C565 C570 1.418 . S
C566 H561 0.930 . S
C566 C569 1.404 . S
C566 C570 1.353 . S
N567 Co532 2.145 . S
N567 C568 1.397 . S
N567 C569 1.334 . S
C568 H549 0.929 . S
C568 C565 1.388 . S
C568 N567 1.397 . S
C569 H550 0.929 . S
C569 C566 1.404 . S
C569 N567 1.334 . S
C570 H562 0.930 . S
C570 C565 1.418 . S
C570 C566 1.353 . S
C571 H541 0.930 . S
C571 N572 1.330 . S
C571 C573 1.446 1_545 S
N572 Co531 2.151 . S
N572 C571 1.330 . S
N572 C576 1.418 1_545 S
C573 H552 0.929 1_565 S
C573 C571 1.446 1_565 S
C573 C574 1.332 . S
C574 H554 0.931 . S
C574 C573 1.332 . S
C574 C575 1.267 . S
C575 H543 0.929 . S
C575 C574 1.267 . S
C575 C576 1.251 . S
C576 H546 0.929 . S
C576 N572 1.418 1_565 S
C576 C575 1.251 . S
C577 H544 0.930 . S
C577 C579 1.406 . S
C577 C582 1.261 . S
C578 H545 0.930 . S
C578 N580 1.325 . S
C578 C581 1.357 . S
C579 H547 0.928 . S
C579 C577 1.406 . S
C579 N580 1.261 . S
N580 Co531 2.214 . S
N580 C578 1.325 . S
N580 C579 1.261 . S
C581 H551 0.931 . S
C581 C578 1.357 . S
C581 C582 1.312 . S
C582 H553 0.930 . S
C582 C577 1.261 . S
C582 C581 1.312 . S
C583 O555 1.214 . S
C583 O563 1.234 . S
C584 H556 0.929 . S
C584 C587 1.391 . S
C584 C589 1.391 . S
C585 H557 0.929 . S
C585 C586 1.390 . S
C585 N588 1.391 . S
C586 H558 0.930 . S
C586 C585 1.390 . S
C586 C587 1.392 . S
C587 H559 0.929 . S
C587 C584 1.391 . S
C587 C586 1.392 . S
N588 Co532 2.257 . S
N588 C585 1.391 . S
N588 C589 1.388 . S
C589 H560 0.930 . S
C589 C584 1.391 . S
C589 N588 1.388 . S
Co590 O592 2.143 . S
Co590 O598 2.074 . S
Co590 O601 2.093 . S
Co590 O614 2.097 . S
Co590 N631 2.151 . S
Co590 N639 2.214 . S
Co591 O592 2.160 . S
Co591 O597 2.058 . S
Co591 O607 2.057 . S
Co591 O622 2.037 . S
Co591 N626 2.145 . S
Co591 N647 2.257 . S
O592 Co590 2.143 . S
O592 Co591 2.160 . S
C593 O594 1.278 . S
C593 O601 1.224 . S
O594 C593 1.278 . S
C595 O596 1.245 . S
C595 O607 1.232 . S
O596 C595 1.245 . S
O597 Co591 2.058 . S
O597 C623 1.269 . S
O598 Co590 2.074 . S
O598 C623 1.257 . S
H599 C624 0.930 . S
H600 C630 0.930 . S
O601 Co590 2.093 . S
O601 C593 1.224 . S
H602 C634 0.929 . S
H603 C636 0.930 . S
H604 C637 0.930 . S
H605 C635 0.929 . S
H606 C638 0.928 . S
O607 Co591 2.057 . S
O607 C595 1.232 . S
H608 C627 0.929 . S
H609 C628 0.929 . S
H610 C640 0.931 . S
H611 C632 0.929 . S
H612 C641 0.930 . S
H613 C633 0.931 . S
O614 Co590 2.097 . S
O614 C642 1.214 . S
H615 C643 0.929 . S
H616 C644 0.929 . S
H617 C645 0.930 . S
H618 C646 0.929 . S
H619 C648 0.930 . S
H620 C625 0.930 . S
H621 C629 0.930 . S
O622 Co591 2.037 . S
O622 C642 1.234 . S
C623 O597 1.269 . S
C623 O598 1.257 . S
C624 H599 0.930 . S
C624 C627 1.388 . S
C624 C629 1.418 . S
C625 H620 0.930 . S
C625 C628 1.404 . S
C625 C629 1.353 . S
N626 Co591 2.145 . S
N626 C627 1.397 . S
N626 C628 1.334 . S
C627 H608 0.929 . S
C627 C624 1.388 . S
C627 N626 1.397 . S
C628 H609 0.929 . S
C628 C625 1.404 . S
C628 N626 1.334 . S
C629 H621 0.930 . S
C629 C624 1.418 . S
C629 C625 1.353 . S
C630 H600 0.930 . S
C630 N631 1.330 . S
C630 C632 1.446 . S
N631 Co590 2.151 . S
N631 C630 1.330 . S
N631 C635 1.418 . S
C632 H611 0.929 . S
C632 C630 1.446 . S
C632 C633 1.332 . S
C633 H613 0.931 . S
C633 C632 1.332 . S
C633 C634 1.267 . S
C634 H602 0.929 . S
C634 C633 1.267 . S
C634 C635 1.251 . S
C635 H605 0.929 . S
C635 N631 1.418 . S
C635 C634 1.251 . S
C636 H603 0.930 . S
C636 C638 1.406 . S
C636 C641 1.261 . S
C637 H604 0.930 . S
C637 N639 1.325 . S
C637 C640 1.357 . S
C638 H606 0.928 . S
C638 C636 1.406 . S
C638 N639 1.261 . S
N639 Co590 2.214 . S
N639 C637 1.325 . S
N639 C638 1.261 . S
C640 H610 0.931 . S
C640 C637 1.357 . S
C640 C641 1.312 . S
C641 H612 0.930 . S
C641 C636 1.261 . S
C641 C640 1.312 . S
C642 O614 1.214 . S
C642 O622 1.234 . S
C643 H615 0.929 . S
C643 C646 1.391 . S
C643 C648 1.391 . S
C644 H616 0.929 . S
C644 C645 1.390 . S
C644 N647 1.391 . S
C645 H617 0.930 . S
C645 C644 1.390 . S
C645 C646 1.392 . S
C646 H618 0.929 . S
C646 C643 1.391 . S
C646 C645 1.392 . S
N647 Co591 2.257 . S
N647 C644 1.391 . S
N647 C648 1.388 . S
C648 H619 0.930 . S
C648 C643 1.391 . S
C648 N647 1.388 . S
Co649 O651 2.143 . S
Co649 O657 2.074 . S
Co649 O660 2.093 . S
Co649 O673 2.097 . S
Co649 N690 2.151 . S
Co649 N698 2.214 . S
Co650 O651 2.160 . S
Co650 O656 2.058 . S
Co650 O666 2.057 . S
Co650 O681 2.037 . S
Co650 N685 2.145 . S
Co650 N706 2.257 . S
O651 Co649 2.143 . S
O651 Co650 2.160 . S
C652 O653 1.278 . S
C652 O660 1.224 . S
O653 C652 1.278 . S
C654 O655 1.245 . S
C654 O666 1.232 . S
O655 C654 1.245 . S
O656 Co650 2.058 . S
O656 C682 1.269 1_655 S
O657 Co649 2.074 . S
O657 C682 1.257 1_655 S
H658 C683 0.930 . S
H659 C689 0.930 . S
O660 Co649 2.093 . S
O660 C652 1.224 . S
H661 C693 0.929 . S
H662 C695 0.930 . S
H663 C696 0.930 . S
H664 C694 0.929 . S
H665 C697 0.928 . S
O666 Co650 2.057 . S
O666 C654 1.232 . S
H667 C686 0.929 . S
H668 C687 0.929 . S
H669 C699 0.931 . S
H670 C691 0.929 1_655 S
H671 C700 0.930 . S
H672 C692 0.931 . S
O673 Co649 2.097 . S
O673 C701 1.214 . S
H674 C702 0.929 . S
H675 C703 0.929 . S
H676 C704 0.930 . S
H677 C705 0.929 . S
H678 C707 0.930 . S
H679 C684 0.930 . S
H680 C688 0.930 . S
O681 Co650 2.037 . S
O681 C701 1.234 . S
C682 O656 1.269 1_455 S
C682 O657 1.257 1_455 S
C683 H658 0.930 . S
C683 C686 1.388 . S
C683 C688 1.418 . S
C684 H679 0.930 . S
C684 C687 1.404 . S
C684 C688 1.353 . S
N685 Co650 2.145 . S
N685 C686 1.397 . S
N685 C687 1.334 . S
C686 H667 0.929 . S
C686 C683 1.388 . S
C686 N685 1.397 . S
C687 H668 0.929 . S
C687 C684 1.404 . S
C687 N685 1.334 . S
C688 H680 0.930 . S
C688 C683 1.418 . S
C688 C684 1.353 . S
C689 H659 0.930 . S
C689 N690 1.330 . S
C689 C691 1.446 1_655 S
N690 Co649 2.151 . S
N690 C689 1.330 . S
N690 C694 1.418 1_655 S
C691 H670 0.929 1_455 S
C691 C689 1.446 1_455 S
C691 C692 1.332 . S
C692 H672 0.931 . S
C692 C691 1.332 . S
C692 C693 1.267 . S
C693 H661 0.929 . S
C693 C692 1.267 . S
C693 C694 1.251 . S
C694 H664 0.929 . S
C694 N690 1.418 1_455 S
C694 C693 1.251 . S
C695 H662 0.930 . S
C695 C697 1.406 . S
C695 C700 1.261 . S
C696 H663 0.930 . S
C696 N698 1.325 . S
C696 C699 1.357 . S
C697 H665 0.928 . S
C697 C695 1.406 . S
C697 N698 1.261 . S
N698 Co649 2.214 . S
N698 C696 1.325 . S
N698 C697 1.261 . S
C699 H669 0.931 . S
C699 C696 1.357 . S
C699 C700 1.312 . S
C700 H671 0.930 . S
C700 C695 1.261 . S
C700 C699 1.312 . S
C701 O673 1.214 . S
C701 O681 1.234 . S
C702 H674 0.929 . S
C702 C705 1.391 . S
C702 C707 1.391 . S
C703 H675 0.929 . S
C703 C704 1.390 . S
C703 N706 1.391 . S
C704 H676 0.930 . S
C704 C703 1.390 . S
C704 C705 1.392 . S
C705 H677 0.929 . S
C705 C702 1.391 . S
C705 C704 1.392 . S
N706 Co650 2.257 . S
N706 C703 1.391 . S
N706 C707 1.388 . S
C707 H678 0.930 . S
C707 C702 1.391 . S
C707 N706 1.388 . S
C708 C709 1.387 . S
C708 H712 0.950 . S
C708 C717 1.390 . S
C709 C708 1.387 . S
C709 C711 1.387 . S
H710 C717 0.950 . S
C711 C709 1.387 . S
C711 C713 1.390 . S
C711 H715 0.950 . S
H712 C708 0.950 . S
C713 C711 1.390 . S
C713 C714 1.387 . S
C713 H716 0.950 . S
C714 C713 1.387 . S
C714 C717 1.387 . S
H715 C711 0.950 . S
H716 C713 0.950 . S
C717 C708 1.390 . S
C717 H710 0.950 . S
C717 C714 1.387 . S
C718 C719 1.387 . S
C718 H722 0.950 . S
C718 C727 1.390 . S
C719 C718 1.387 . S
C719 C721 1.387 . S
H720 C727 0.950 . S
C721 C719 1.387 . S
C721 C723 1.390 . S
C721 H725 0.950 1_545 S
H722 C718 0.950 . S
C723 C721 1.390 . S
C723 C724 1.387 . S
C723 H726 0.950 1_545 S
C724 C723 1.387 . S
C724 C727 1.387 . S
H725 C721 0.950 1_565 S
H726 C723 0.950 1_565 S
C727 C718 1.390 . S
C727 H720 0.950 . S
C727 C724 1.387 . S
C728 C729 1.387 . S
C728 H732 0.950 . S
C728 C737 1.390 . S
C729 C728 1.387 . S
C729 C731 1.387 . S
H730 C737 0.950 . S
C731 C729 1.387 . S
C731 C733 1.390 . S
C731 H735 0.950 . S
H732 C728 0.950 . S
C733 C731 1.390 . S
C733 C734 1.387 . S
C733 H736 0.950 . S
C734 C733 1.387 . S
C734 C737 1.387 . S
H735 C731 0.950 . S
H736 C733 0.950 . S
C737 C728 1.390 . S
C737 H730 0.950 . S
C737 C734 1.387 . S
C738 C739 1.387 . S
C738 H742 0.950 . S
C738 C747 1.390 . S
C739 C738 1.387 . S
C739 C741 1.387 . S
H740 C747 0.950 . S
C741 C739 1.387 . S
C741 C743 1.390 . S
C741 H745 0.950 . S
H742 C738 0.950 . S
C743 C741 1.390 . S
C743 C744 1.387 . S
C743 H746 0.950 . S
C744 C743 1.387 . S
C744 C747 1.387 . S
H745 C741 0.950 . S
H746 C743 0.950 . S
C747 C738 1.390 . S
C747 H740 0.950 . S
C747 C744 1.387 . S
C748 C749 1.387 . S
C748 H752 0.950 1_565 S
C748 C757 1.390 . S
C749 C748 1.387 . S
C749 C751 1.387 . S
H750 C757 0.950 1_545 S
C751 C749 1.387 . S
C751 C753 1.390 . S
C751 H755 0.950 . S
H752 C748 0.950 1_545 S
C753 C751 1.390 . S
C753 C754 1.387 . S
C753 H756 0.950 . S
C754 C753 1.387 . S
C754 C757 1.387 . S
H755 C751 0.950 . S
H756 C753 0.950 . S
C757 C748 1.390 . S
C757 H750 0.950 1_565 S
C757 C754 1.387 . S
C758 C759 1.387 . S
C758 H762 0.950 . S
C758 C767 1.390 . S
C759 C758 1.387 . S
C759 C761 1.387 . S
H760 C767 0.950 . S
C761 C759 1.387 . S
C761 C763 1.390 . S
C761 H765 0.950 . S
H762 C758 0.950 . S
C763 C761 1.390 . S
C763 C764 1.387 . S
C763 H766 0.950 . S
C764 C763 1.387 . S
C764 C767 1.387 . S
H765 C761 0.950 . S
H766 C763 0.950 . S
C767 C758 1.390 . S
C767 H760 0.950 . S
C767 C764 1.387 . S
C768 C769 1.387 . S
C768 H772 0.950 . S
C768 C777 1.390 . S
C769 C768 1.387 . S
C769 C771 1.387 . S
H770 C777 0.950 . S
C771 C769 1.387 . S
C771 C773 1.390 . S
C771 H775 0.950 . S
H772 C768 0.950 . S
C773 C771 1.390 . S
C773 C774 1.387 . S
C773 H776 0.950 . S
C774 C773 1.387 . S
C774 C777 1.387 . S
H775 C771 0.950 . S
H776 C773 0.950 . S
C777 C768 1.390 . S
C777 H770 0.950 . S
C777 C774 1.387 . S
C778 C779 1.387 . S
C778 H782 0.950 . S
C778 C787 1.390 . S
C779 C778 1.387 . S
C779 C781 1.387 . S
H780 C787 0.950 . S
C781 C779 1.387 . S
C781 C783 1.390 . S
C781 H785 0.950 . S
H782 C778 0.950 . S
C783 C781 1.390 . S
C783 C784 1.387 . S
C783 H786 0.950 . S
C784 C783 1.387 . S
C784 C787 1.387 . S
H785 C781 0.950 . S
H786 C783 0.950 . S
C787 C778 1.390 . S
C787 H780 0.950 . S
C787 C784 1.387 . S
C788 C789 1.387 . S
C788 H792 0.950 . S
C788 C797 1.390 . S
C789 C788 1.387 . S
C789 C791 1.387 . S
H790 C797 0.950 . S
C791 C789 1.387 . S
C791 C793 1.390 . S
C791 H795 0.950 . S
H792 C788 0.950 . S
C793 C791 1.390 . S
C793 C794 1.387 . S
C793 H796 0.950 . S
C794 C793 1.387 . S
C794 C797 1.387 . S
H795 C791 0.950 . S
H796 C793 0.950 . S
C797 C788 1.390 . S
C797 H790 0.950 . S
C797 C794 1.387 . S
C798 C799 1.387 . S
C798 H802 0.950 . S
C798 C807 1.390 . S
C799 C798 1.387 . S
C799 C801 1.387 . S
H800 C807 0.950 . S
C801 C799 1.387 . S
C801 C803 1.390 . S
C801 H805 0.950 . S
H802 C798 0.950 . S
C803 C801 1.390 . S
C803 C804 1.387 . S
C803 H806 0.950 . S
C804 C803 1.387 . S
C804 C807 1.387 . S
H805 C801 0.950 . S
H806 C803 0.950 . S
C807 C798 1.390 . S
C807 H800 0.950 . S
C807 C804 1.387 . S
C808 C809 1.387 . S
C808 H812 0.950 . S
C808 C817 1.390 . S
C809 C808 1.387 . S
C809 C811 1.387 . S
H810 C817 0.950 . S
C811 C809 1.387 . S
C811 C813 1.390 . S
C811 H815 0.950 . S
H812 C808 0.950 . S
C813 C811 1.390 . S
C813 C814 1.387 . S
C813 H816 0.950 . S
C814 C813 1.387 . S
C814 C817 1.387 . S
H815 C811 0.950 . S
H816 C813 0.950 . S
C817 C808 1.390 . S
C817 H810 0.950 . S
C817 C814 1.387 . S
C818 C819 1.387 . S
C818 H822 0.950 . S
C818 C827 1.390 . S
C819 C818 1.387 . S
C819 C821 1.387 . S
H820 C827 0.950 . S
C821 C819 1.387 . S
C821 C823 1.390 . S
C821 H825 0.950 . S
H822 C818 0.950 . S
C823 C821 1.390 . S
C823 C824 1.387 . S
C823 H826 0.950 . S
C824 C823 1.387 . S
C824 C827 1.387 . S
H825 C821 0.950 . S
H826 C823 0.950 . S
C827 C818 1.390 . S
C827 H820 0.950 . S
C827 C824 1.387 . S
C828 C829 1.387 . S
C828 H832 0.950 . S
C828 C837 1.390 . S
C829 C828 1.387 . S
C829 C831 1.387 . S
H830 C837 0.950 . S
C831 C829 1.387 . S
C831 C833 1.390 . S
C831 H835 0.950 . S
H832 C828 0.950 . S
C833 C831 1.390 . S
C833 C834 1.387 . S
C833 H836 0.950 . S
C834 C833 1.387 . S
C834 C837 1.387 . S
H835 C831 0.950 . S
H836 C833 0.950 . S
C837 C828 1.390 . S
C837 H830 0.950 . S
C837 C834 1.387 . S
C838 C839 1.387 . S
C838 H842 0.950 . S
C838 C847 1.390 . S
C839 C838 1.387 . S
C839 C841 1.387 . S
H840 C847 0.950 . S
C841 C839 1.387 . S
C841 C843 1.390 . S
C841 H845 0.950 . S
H842 C838 0.950 . S
C843 C841 1.390 . S
C843 C844 1.387 . S
C843 H846 0.950 . S
C844 C843 1.387 . S
C844 C847 1.387 . S
H845 C841 0.950 . S
H846 C843 0.950 . S
C847 C838 1.390 . S
C847 H840 0.950 . S
C847 C844 1.387 . S
C848 C849 1.387 . S
C848 H852 0.950 . S
C848 C857 1.390 . S
C849 C848 1.387 . S
C849 C851 1.387 . S
H850 C857 0.950 . S
C851 C849 1.387 . S
C851 C853 1.390 . S
C851 H855 0.950 . S
H852 C848 0.950 . S
C853 C851 1.390 . S
C853 C854 1.387 . S
C853 H856 0.950 . S
C854 C853 1.387 . S
C854 C857 1.387 . S
H855 C851 0.950 . S
H856 C853 0.950 . S
C857 C848 1.390 . S
C857 H850 0.950 . S
C857 C854 1.387 . S
C858 C859 1.387 . S
C858 H862 0.950 . S
C858 C867 1.390 . S
C859 C858 1.387 . S
C859 C861 1.387 . S
H860 C867 0.950 . S
C861 C859 1.387 . S
C861 C863 1.390 . S
C861 H865 0.950 . S
H862 C858 0.950 . S
C863 C861 1.390 . S
C863 C864 1.387 . S
C863 H866 0.950 . S
C864 C863 1.387 . S
C864 C867 1.387 . S
H865 C861 0.950 . S
H866 C863 0.950 . S
C867 C858 1.390 . S
C867 H860 0.950 . S
C867 C864 1.387 . S
C868 C869 1.387 . S
C868 H872 0.950 . S
C868 C877 1.390 . S
C869 C868 1.387 . S
C869 C871 1.387 . S
H870 C877 0.950 . S
C871 C869 1.387 . S
C871 C873 1.390 . S
C871 H875 0.950 . S
H872 C868 0.950 . S
C873 C871 1.390 . S
C873 C874 1.387 . S
C873 H876 0.950 . S
C874 C873 1.387 . S
C874 C877 1.387 . S
H875 C871 0.950 . S
H876 C873 0.950 . S
C877 C868 1.390 . S
C877 H870 0.950 . S
C877 C874 1.387 . S
C878 C879 1.387 . S
C878 H882 0.950 . S
C878 C887 1.390 . S
C879 C878 1.387 . S
C879 C881 1.387 . S
H880 C887 0.950 . S
C881 C879 1.387 . S
C881 C883 1.390 . S
C881 H885 0.950 . S
H882 C878 0.950 . S
C883 C881 1.390 . S
C883 C884 1.387 . S
C883 H886 0.950 . S
C884 C883 1.387 . S
C884 C887 1.387 . S
H885 C881 0.950 . S
H886 C883 0.950 . S
C887 C878 1.390 . S
C887 H880 0.950 . S
C887 C884 1.387 . S
C888 C889 1.387 . S
C888 H892 0.950 . S
C888 C897 1.390 . S
C889 C888 1.387 . S
C889 C891 1.387 . S
H890 C897 0.950 . S
C891 C889 1.387 . S
C891 C893 1.390 . S
C891 H895 0.950 . S
H892 C888 0.950 . S
C893 C891 1.390 . S
C893 C894 1.387 . S
C893 H896 0.950 . S
C894 C893 1.387 . S
C894 C897 1.387 . S
H895 C891 0.950 . S
H896 C893 0.950 . S
C897 C888 1.390 . S
C897 H890 0.950 . S
C897 C894 1.387 . S
C898 C899 1.387 . S
C898 H902 0.950 . S
C898 C907 1.390 . S
C899 C898 1.387 . S
C899 C901 1.387 . S
H900 C907 0.950 . S
C901 C899 1.387 . S
C901 C903 1.390 . S
C901 H905 0.950 . S
H902 C898 0.950 . S
C903 C901 1.390 . S
C903 C904 1.387 . S
C903 H906 0.950 . S
C904 C903 1.387 . S
C904 C907 1.387 . S
H905 C901 0.950 . S
H906 C903 0.950 . S
C907 C898 1.390 . S
C907 H900 0.950 . S
C907 C904 1.387 . S
C908 C909 1.387 . S
C908 H912 0.950 . S
C908 C917 1.390 . S
C909 C908 1.387 . S
C909 C911 1.387 . S
H910 C917 0.950 . S
C911 C909 1.387 . S
C911 C913 1.390 . S
C911 H915 0.950 . S
H912 C908 0.950 . S
C913 C911 1.390 . S
C913 C914 1.387 . S
C913 H916 0.950 . S
C914 C913 1.387 . S
C914 C917 1.387 . S
H915 C911 0.950 . S
H916 C913 0.950 . S
C917 C908 1.390 . S
C917 H910 0.950 . S
C917 C914 1.387 . S
C918 C919 1.387 . S
C918 H922 0.950 . S
C918 C927 1.390 . S
C919 C918 1.387 . S
C919 C921 1.387 . S
H920 C927 0.950 . S
C921 C919 1.387 . S
C921 C923 1.390 . S
C921 H925 0.950 . S
H922 C918 0.950 . S
C923 C921 1.390 . S
C923 C924 1.387 . S
C923 H926 0.950 . S
C924 C923 1.387 . S
C924 C927 1.387 . S
H925 C921 0.950 . S
H926 C923 0.950 . S
C927 C918 1.390 . S
C927 H920 0.950 . S
C927 C924 1.387 . S
C928 C929 1.387 . S
C928 H932 0.950 . S
C928 C937 1.390 . S
C929 C928 1.387 . S
C929 C931 1.387 . S
H930 C937 0.950 . S
C931 C929 1.387 . S
C931 C933 1.390 . S
C931 H935 0.950 . S
H932 C928 0.950 . S
C933 C931 1.390 . S
C933 C934 1.387 . S
C933 H936 0.950 . S
C934 C933 1.387 . S
C934 C937 1.387 . S
H935 C931 0.950 . S
H936 C933 0.950 . S
C937 C928 1.390 . S
C937 H930 0.950 . S
C937 C934 1.387 . S
C938 C939 1.387 . S
C938 H942 0.950 . S
C938 C947 1.390 . S
C939 C938 1.387 . S
C939 C941 1.387 . S
H940 C947 0.950 . S
C941 C939 1.387 . S
C941 C943 1.390 . S
C941 H945 0.950 . S
H942 C938 0.950 . S
C943 C941 1.390 . S
C943 C944 1.387 . S
C943 H946 0.950 . S
C944 C943 1.387 . S
C944 C947 1.387 . S
H945 C941 0.950 . S
H946 C943 0.950 . S
C947 C938 1.390 . S
C947 H940 0.950 . S
C947 C944 1.387 . S
C709 C477 1.540 . S
C714 C5 1.539 . S
C719 C64 1.538 . S
C724 C536 1.538 . S
C729 C123 1.539 . S
C734 C595 1.539 . S
C739 C182 1.539 . S
C744 C654 1.540 . S
C749 C359 1.540 . S
C754 C241 1.540 . S
C759 C300 1.538 . S
C764 C418 1.539 . S
C769 C3 1.581 . S
C774 C328 1.585 . S
C779 C62 1.581 . S
C784 C33 1.584 . S
C789 C121 1.582 . S
C794 C92 1.586 . S
C799 C151 1.585 . S
C804 C180 1.581 . S
C809 C210 1.584 . S
C814 C239 1.583 . S
C819 C269 1.584 . S
C824 C298 1.582 . S
C829 C446 1.586 . S
C834 C357 1.582 . S
C839 C416 1.583 . S
C844 C505 1.584 . S
C849 C564 1.585 . S
C854 C475 1.581 . S
C859 C534 1.582 . S
C864 C623 1.584 . S
C869 C593 1.583 . S
C874 C682 1.585 . S
C879 C652 1.583 . S
C884 C387 1.585 . S
C889 C642 1.489 . S
C894 C52 1.489 . S
C899 C701 1.488 . S
C904 C111 1.489 . S
C909 C406 1.489 . S
C914 C170 1.489 . S
C919 C229 1.489 . S
C924 C465 1.489 . S
C929 C288 1.489 . S
C934 C524 1.489 . S
C939 C583 1.489 . S
C944 C347 1.489 . S
