# Generated by pormake.
# Topology wkj, (6)-cn, num edge types: 1
# Building blocks:
#     Node 0, Type 0, BuildingBlock: KUMBOL_clean_sbu_0, # of connection points: 6
#     Node 1, Type 0, BuildingBlock: KUMBOL_clean_sbu_0, # of connection points: 6
#     Node 2, Type 0, BuildingBlock: KUMBOL_clean_sbu_0, # of connection points: 6
#     Node 3, Type 0, BuildingBlock: KUMBOL_clean_sbu_0, # of connection points: 6
#     Node 4, Type 0, BuildingBlock: KUMBOL_clean_sbu_0, # of connection points: 6
#     Node 5, Type 0, BuildingBlock: KUMBOL_clean_sbu_0, # of connection points: 6
#     Node 6, Type 0, BuildingBlock: KUMBOL_clean_sbu_0, # of connection points: 6
#     Node 7, Type 0, BuildingBlock: KUMBOL_clean_sbu_0, # of connection points: 6
#     Node 8, Type 0, BuildingBlock: KUMBOL_clean_sbu_0, # of connection points: 6
#     Node 9, Type 0, BuildingBlock: KUMBOL_clean_sbu_0, # of connection points: 6
#     Node 10, Type 0, BuildingBlock: KUMBOL_clean_sbu_0, # of connection points: 6
#     Node 11, Type 0, BuildingBlock: KUMBOL_clean_sbu_0, # of connection points: 6
#     Edge 12, Type (0, 0), BuildingBlock: UVAHIK_clean_linker_0, # of connection points: 2
#     Edge 13, Type (0, 0), BuildingBlock: UVAHIK_clean_linker_0, # of connection points: 2
#     Edge 14, Type (0, 0), BuildingBlock: UVAHIK_clean_linker_0, # of connection points: 2
#     Edge 15, Type (0, 0), BuildingBlock: UVAHIK_clean_linker_0, # of connection points: 2
#     Edge 16, Type (0, 0), BuildingBlock: UVAHIK_clean_linker_0, # of connection points: 2
#     Edge 17, Type (0, 0), BuildingBlock: UVAHIK_clean_linker_0, # of connection points: 2
#     Edge 18, Type (0, 0), BuildingBlock: UVAHIK_clean_linker_0, # of connection points: 2
#     Edge 19, Type (0, 0), BuildingBlock: UVAHIK_clean_linker_0, # of connection points: 2
#     Edge 20, Type (0, 0), BuildingBlock: UVAHIK_clean_linker_0, # of connection points: 2
#     Edge 21, Type (0, 0), BuildingBlock: UVAHIK_clean_linker_0, # of connection points: 2
#     Edge 22, Type (0, 0), BuildingBlock: UVAHIK_clean_linker_0, # of connection points: 2
#     Edge 23, Type (0, 0), BuildingBlock: UVAHIK_clean_linker_0, # of connection points: 2
#     Edge 24, Type (0, 0), BuildingBlock: UVAHIK_clean_linker_0, # of connection points: 2
#     Edge 25, Type (0, 0), BuildingBlock: UVAHIK_clean_linker_0, # of connection points: 2
#     Edge 26, Type (0, 0), BuildingBlock: UVAHIK_clean_linker_0, # of connection points: 2
#     Edge 27, Type (0, 0), BuildingBlock: UVAHIK_clean_linker_0, # of connection points: 2
#     Edge 28, Type (0, 0), BuildingBlock: UVAHIK_clean_linker_0, # of connection points: 2
#     Edge 29, Type (0, 0), BuildingBlock: UVAHIK_clean_linker_0, # of connection points: 2
#     Edge 30, Type (0, 0), BuildingBlock: UVAHIK_clean_linker_0, # of connection points: 2
#     Edge 31, Type (0, 0), BuildingBlock: UVAHIK_clean_linker_0, # of connection points: 2
#     Edge 32, Type (0, 0), BuildingBlock: UVAHIK_clean_linker_0, # of connection points: 2
#     Edge 33, Type (0, 0), BuildingBlock: UVAHIK_clean_linker_0, # of connection points: 2
#     Edge 34, Type (0, 0), BuildingBlock: UVAHIK_clean_linker_0, # of connection points: 2
#     Edge 35, Type (0, 0), BuildingBlock: UVAHIK_clean_linker_0, # of connection points: 2
#     Edge 36, Type (0, 0), BuildingBlock: UVAHIK_clean_linker_0, # of connection points: 2
#     Edge 37, Type (0, 0), BuildingBlock: UVAHIK_clean_linker_0, # of connection points: 2
#     Edge 38, Type (0, 0), BuildingBlock: UVAHIK_clean_linker_0, # of connection points: 2
#     Edge 39, Type (0, 0), BuildingBlock: UVAHIK_clean_linker_0, # of connection points: 2
#     Edge 40, Type (0, 0), BuildingBlock: UVAHIK_clean_linker_0, # of connection points: 2
#     Edge 41, Type (0, 0), BuildingBlock: UVAHIK_clean_linker_0, # of connection points: 2
#     Edge 42, Type (0, 0), BuildingBlock: UVAHIK_clean_linker_0, # of connection points: 2
#     Edge 43, Type (0, 0), BuildingBlock: UVAHIK_clean_linker_0, # of connection points: 2
#     Edge 44, Type (0, 0), BuildingBlock: UVAHIK_clean_linker_0, # of connection points: 2
#     Edge 45, Type (0, 0), BuildingBlock: UVAHIK_clean_linker_0, # of connection points: 2
#     Edge 46, Type (0, 0), BuildingBlock: UVAHIK_clean_linker_0, # of connection points: 2
#     Edge 47, Type (0, 0), BuildingBlock: UVAHIK_clean_linker_0, # of connection points: 2
# Relax obj value: 0.446
# Max RMSD: 0.215
# Mean RMSD: 0.214
data_MOF--net-wkj--node1-KUMBOL_clean_sbu_0--edge1-UVAHIK_clean_linker_0
_symmetry_space_group_name_H-M    P1
_symmetry_Int_Tables_number       1
_symmetry_cell_setting            triclinic
loop_
_symmetry_equiv_pos_as_xyz
'x, y, z'
_cell_length_a     64.117581
_cell_length_b     64.294269
_cell_length_c     36.210119
_cell_angle_alpha  90.098145
_cell_angle_beta   89.966177
_cell_angle_gamma 120.02414
loop_
_atom_site_label
_atom_site_type_symbol
_atom_site_fract_x
_atom_site_fract_y
_atom_site_fract_z
_atom_type_partial_charge
Gd0 Gd 0.53671 0.10468 0.3232 0.0
Gd1 Gd 0.47475 0.08356 0.33452 0.0
C2 C 0.42339 0.01358 0.27498 0.0
C3 C 0.42297 0.0275 0.21287 0.0
C4 C 0.44745 0.05612 0.26067 0.0
C5 C 0.43984 0.03741 0.28597 0.0
C6 C 0.43868 0.05125 0.224 0.0
C7 C 0.41543 0.00872 0.23823 0.0
C8 C 0.41482 0.99534 0.30146 0.0
C9 C 0.42163 0.00114 0.33825 0.0
N10 N 0.44759 0.04254 0.32157 0.0
C11 C 0.43758 0.02497 0.34801 0.0
H12 H 0.44167 0.02934 0.37689 0.0
C13 C 0.47059 0.09768 0.24752 0.0
N14 N 0.46352 0.07895 0.2716 0.0
C15 C 0.46208 0.09368 0.21121 0.0
C16 C 0.44614 0.07038 0.19933 0.0
H17 H 0.48295 0.11584 0.25564 0.0
H18 H 0.40303 0.99052 0.22931 0.0
H19 H 0.54228 0.15183 0.37172 0.0
H20 H 0.40225 0.97686 0.29402 0.0
H21 H 0.41429 0.98732 0.35923 0.0
H22 H 0.4164 0.02347 0.18471 0.0
H23 H 0.55412 0.06362 0.31247 0.0
H24 H 0.59849 0.17205 0.45108 0.0
H25 H 0.56739 0.17852 0.42171 0.0
H26 H 0.6233 0.11374 0.43335 0.0
H27 H 0.46797 0.10861 0.19231 0.0
H28 H 0.4398 0.06734 0.17103 0.0
H29 H 0.61928 0.14783 0.45516 0.0
H30 H 0.58324 0.05372 0.33971 0.0
N31 N 0.559 0.13037 0.37213 0.0
C32 C 0.58766 0.16038 0.42879 0.0
C33 C 0.5701 0.16406 0.41233 0.0
C34 C 0.5909 0.14154 0.41652 0.0
C35 C 0.57625 0.1268 0.3875 0.0
C36 C 0.55593 0.14888 0.38381 0.0
N37 N 0.56349 0.09337 0.34825 0.0
C38 C 0.57842 0.10756 0.37541 0.0
C39 C 0.58202 0.06887 0.35011 0.0
C40 C 0.597 0.08289 0.37882 0.0
C41 C 0.56545 0.07453 0.3348 0.0
C42 C 0.59542 0.10258 0.39173 0.0
H43 H 0.60979 0.07845 0.39068 0.0
O44 O 0.55755 0.1047 0.27588 0.0
O45 O 0.50116 0.08591 0.29052 0.0
O46 O 0.48333 0.05688 0.3625 0.0
O47 O 0.52529 0.07501 0.36476 0.0
O48 O 0.52223 0.07014 0.28945 0.0
O49 O 0.56495 0.13827 0.30073 0.0
O50 O 0.46036 0.10679 0.34963 0.0
O51 O 0.51019 0.10393 0.36444 0.0
O52 O 0.5303 0.1362 0.30844 0.0
O53 O 0.49007 0.12279 0.32031 0.0
O54 O 0.48077 0.0869 0.39731 0.0
O55 O 0.43663 0.06858 0.34494 0.0
C56 C 0.50271 0.06815 0.27615 0.0
C57 C 0.61017 0.1173 0.42043 0.0
C58 C 0.60792 0.13674 0.4328 0.0
C59 C 0.56824 0.12793 0.27215 0.0
C60 C 0.56618 0.13714 0.23581 0.0
C61 C 0.55528 0.12145 0.2058 0.0
C62 C 0.57356 0.16161 0.23179 0.0
C63 C 0.56899 0.17021 0.19892 0.0
C64 C 0.55129 0.12999 0.17275 0.0
C65 C 0.55794 0.15413 0.16932 0.0
C66 C 0.50345 0.05816 0.37494 0.0
C67 C 0.50393 0.10034 0.39928 0.0
C68 C 0.43891 0.08884 0.35604 0.0
C69 C 0.42879 0.08831 0.39261 0.0
C70 C 0.41904 0.103 0.40073 0.0
C71 C 0.429 0.07296 0.4198 0.0
C72 C 0.41915 0.07163 0.45484 0.0
C73 C 0.40939 0.10208 0.43574 0.0
C74 C 0.40934 0.08645 0.46266 0.0
C75 C 0.51174 0.13999 0.31065 0.0
H76 H 0.54947 0.10252 0.20796 0.0
H77 H 0.58196 0.17378 0.25484 0.0
H78 H 0.54282 0.1178 0.14981 0.0
H79 H 0.55473 0.16027 0.14323 0.0
H80 H 0.41885 0.11507 0.38007 0.0
H81 H 0.43693 0.06196 0.41352 0.0
H82 H 0.40174 0.11335 0.44194 0.0
H83 H 0.40122 0.08568 0.48922 0.0
Gd84 Gd 0.43286 0.54534 0.64858 0.0
Gd85 Gd 0.39314 0.48341 0.66157 0.0
C86 C 0.41071 0.4319 0.5997 0.0
C87 C 0.39411 0.43043 0.53891 0.0
C88 C 0.39125 0.45527 0.58734 0.0
C89 C 0.4033 0.44817 0.61154 0.0
C90 C 0.38624 0.44612 0.55089 0.0
C91 C 0.40641 0.42343 0.56318 0.0
C92 C 0.42178 0.42415 0.62512 0.0
C93 C 0.42422 0.43168 0.66175 0.0
N94 N 0.40713 0.45652 0.64683 0.0
C95 C 0.41625 0.44744 0.67236 0.0
H96 H 0.41713 0.45206 0.70122 0.0
C97 C 0.37228 0.47811 0.5761 0.0
N98 N 0.38474 0.47133 0.5991 0.0
C99 C 0.36666 0.46926 0.54003 0.0
C100 C 0.37373 0.45325 0.5273 0.0
H101 H 0.36663 0.49045 0.58496 0.0
H102 H 0.41217 0.41113 0.55361 0.0
H103 H 0.39206 0.55095 0.69915 0.0
H104 H 0.42777 0.41176 0.61704 0.0
H105 H 0.43188 0.42504 0.68199 0.0
H106 H 0.39071 0.42354 0.5109 0.0
H107 H 0.49143 0.56357 0.63352 0.0
H108 H 0.42956 0.60704 0.77822 0.0
H109 H 0.39138 0.57603 0.75009 0.0
H110 H 0.51253 0.63215 0.75591 0.0
H111 H 0.35698 0.47491 0.52198 0.0
H112 H 0.36957 0.44663 0.49918 0.0
H113 H 0.47473 0.62788 0.78015 0.0
H114 H 0.53096 0.59296 0.65896 0.0
N115 N 0.43027 0.56743 0.69834 0.0
C116 C 0.42999 0.59619 0.75563 0.0
C117 C 0.4084 0.57867 0.73989 0.0
C118 C 0.45188 0.59943 0.74215 0.0
C119 C 0.45144 0.58476 0.71279 0.0
C120 C 0.40887 0.56447 0.71096 0.0
N121 N 0.47156 0.57223 0.67162 0.0
C122 C 0.47272 0.58707 0.69929 0.0
C123 C 0.51472 0.59138 0.67073 0.0
C124 C 0.51615 0.60614 0.70008 0.0
C125 C 0.49219 0.57464 0.65646 0.0
C126 C 0.49503 0.60423 0.71458 0.0
H127 H 0.53364 0.61908 0.71109 0.0
O128 O 0.44987 0.56464 0.5981 0.0
O129 O 0.41612 0.50952 0.61685 0.0
O130 O 0.42952 0.49318 0.68723 0.0
O131 O 0.45246 0.53506 0.68929 0.0
O132 O 0.45289 0.53133 0.61356 0.0
O133 O 0.4289 0.57545 0.63131 0.0
O134 O 0.35466 0.46756 0.67136 0.0
O135 O 0.40768 0.51901 0.69073 0.0
O136 O 0.39459 0.53806 0.63447 0.0
O137 O 0.36848 0.49848 0.65025 0.0
O138 O 0.39707 0.48996 0.72398 0.0
O139 O 0.37202 0.44671 0.681 0.0
C140 C 0.43534 0.51131 0.60164 0.0
C141 C 0.49556 0.61891 0.74376 0.0
C142 C 0.47404 0.61652 0.7575 0.0
C143 C 0.43993 0.57799 0.60013 0.0
C144 C 0.42672 0.57851 0.56749 0.0
C145 C 0.41224 0.55744 0.54735 0.0
C146 C 0.42749 0.59998 0.55769 0.0
C147 C 0.41425 0.60072 0.52724 0.0
C148 C 0.39902 0.55795 0.51722 0.0
C149 C 0.40009 0.57939 0.50702 0.0
C150 C 0.44816 0.51352 0.69945 0.0
C151 C 0.40602 0.51294 0.72557 0.0
C152 C 0.35297 0.44853 0.68685 0.0
C153 C 0.34337 0.44371 0.72482 0.0
C154 C 0.3213 0.44232 0.73284 0.0
C155 C 0.35743 0.44293 0.75389 0.0
C156 C 0.35002 0.44134 0.79068 0.0
C157 C 0.31365 0.44051 0.76948 0.0
C158 C 0.32799 0.4402 0.79835 0.0
C159 C 0.37243 0.51965 0.63895 0.0
H160 H 0.41104 0.5406 0.5551 0.0
H161 H 0.43821 0.61597 0.57411 0.0
H162 H 0.388 0.5417 0.50157 0.0
H163 H 0.39017 0.57927 0.48277 0.0
H164 H 0.31027 0.44314 0.71087 0.0
H165 H 0.37472 0.44444 0.74809 0.0
H166 H 0.29667 0.43956 0.77554 0.0
H167 H 0.32172 0.43875 0.82652 0.0
Gd168 Gd 0.88121 0.42402 0.98624 0.0
Gd169 Gd 0.9035 0.38454 0.99935 0.0
C170 C 0.97262 0.40317 0.93641 0.0
C171 C 0.95724 0.38645 0.87573 0.0
C172 C 0.92958 0.38311 0.92465 0.0
C173 C 0.94889 0.39539 0.94864 0.0
C174 C 0.93364 0.37823 0.88808 0.0
C175 C 0.97667 0.39898 0.89976 0.0
C176 C 0.99162 0.41448 0.96155 0.0
C177 C 0.98671 0.41683 0.99829 0.0
N178 N 0.94451 0.39913 0.98408 0.0
C179 C 0.96296 0.40853 1.00931 0.0
H180 H 0.9594 0.40935 1.03827 0.0
C181 C 0.88758 0.36347 0.91396 0.0
N182 N 0.90693 0.37623 0.93673 0.0
C183 C 0.89076 0.35802 0.87776 0.0
C184 C 0.91388 0.36549 0.86469 0.0
H185 H 0.86954 0.35736 0.92312 0.0
H186 H -0.00522 0.40502 0.8899 0.0
H187 H 0.83463 0.3824 1.03547 0.0
H188 H 0.01005 0.42074 0.95315 0.0
H189 H 0.00118 0.42469 1.01831 0.0
H190 H 0.96065 0.38315 0.84763 0.0
H191 H 0.92204 0.48259 0.97506 0.0
H192 H 0.81113 0.41838 0.10949 0.0
H193 H 0.80665 0.38076 1.08346 0.0
H194 H 0.86771 0.50167 1.08896 0.0
H195 H 0.87533 0.34809 0.85991 0.0
H196 H 0.91629 0.36143 0.83649 0.0
H197 H 0.83391 0.46347 0.11119 0.0
H198 H 0.93035 0.52168 0.99982 0.0
N199 N 0.85481 0.42059 1.03391 0.0
C200 C 0.82336 0.41922 1.08812 0.0
C201 C 0.82082 0.39796 1.07358 0.0
C202 C 0.84184 0.44132 1.07524 0.0
C203 C 0.85733 0.44142 1.04746 0.0
C204 C 0.83673 0.39897 1.04626 0.0
N205 N 0.8915 0.4622 1.00948 0.0
C206 C 0.87645 0.4629 1.03518 0.0
C207 C 0.91516 0.50528 1.0101 0.0
C208 C 0.90017 0.50624 1.03718 0.0
C209 C 0.91042 0.48302 0.99621 0.0
C210 C 0.88049 0.48491 1.05 0.0
H211 H 0.90391 0.52351 1.04792 0.0
O212 O 0.88035 0.44348 0.93783 0.0
O213 O 0.90073 0.4077 0.95448 0.0
O214 O 0.92984 0.42078 1.02548 0.0
O215 O 0.9101 0.44293 1.0289 0.0
O216 O 0.91591 0.44442 0.95285 0.0
O217 O 0.84708 0.41728 0.96379 0.0
O218 O 0.88178 0.34596 1.00828 0.0
O219 O 0.88266 0.39927 1.02876 0.0
O220 O 0.8505 0.38586 0.97094 0.0
O221 O 0.86357 0.35973 0.98855 0.0
O222 O 0.8997 0.38712 1.06186 0.0
O223 O 0.92007 0.36431 1.01858 0.0
C224 C 0.91833 0.42707 0.94002 0.0
C225 C 0.8649 0.48494 1.07725 0.0
C226 C 0.84562 0.4632 1.08985 0.0
C227 C 0.85704 0.4303 0.93458 0.0
C228 C 0.84759 0.41798 0.89893 0.0
C229 C 0.86324 0.421 0.86961 0.0
C230 C 0.82277 0.40176 0.89496 0.0
C231 C 0.81362 0.3883 0.86236 0.0
C232 C 0.85429 0.40785 0.83712 0.0
C233 C 0.82971 0.39162 0.83343 0.0
C234 C 0.92759 0.43884 1.03883 0.0
C235 C 0.88616 0.39668 1.06371 0.0
C236 C 0.8995 0.34481 1.02374 0.0
C237 C 0.89487 0.33464 1.0613 0.0
C238 C 0.87471 0.31207 1.06845 0.0
C239 C 0.90959 0.34828 1.09083 0.0
C240 C 0.90428 0.3398 0.12719 0.0
C241 C 0.86928 0.30345 0.10465 0.0
C242 C 0.88389 0.31725 0.13396 0.0
C243 C 0.84655 0.36373 0.97614 0.0
H244 H 0.88244 0.43331 0.87182 0.0
H245 H 0.81068 0.39919 0.91766 0.0
H246 H 0.86645 0.41026 0.81466 0.0
H247 H 0.82328 0.38208 0.80752 0.0
H248 H 0.86299 0.30132 1.04614 0.0
H249 H 0.92495 0.36594 1.08574 0.0
H250 H 0.85365 0.28606 0.11004 0.0
H251 H 0.87948 0.31014 0.16174 0.0
Gd252 Gd 0.43886 0.87398 0.31734 0.0
Gd253 Gd 0.50085 0.90022 0.32814 0.0
C254 C 0.55545 0.97336 0.28071 0.0
C255 C 0.55786 0.96381 0.21653 0.0
C256 C 0.53163 0.93217 0.25924 0.0
C257 C 0.53844 0.94898 0.28742 0.0
C258 C 0.54178 0.93943 0.22366 0.0
C259 C 0.56464 0.98074 0.24496 0.0
C260 C 0.56331 0.98951 0.31036 0.0
C261 C 0.55497 0.98109 0.34588 0.0
N262 N 0.52949 0.94134 0.32184 0.0
C263 C 0.53832 0.95678 0.35122 0.0
H264 H 0.53184 0.95046 0.37876 0.0
C265 C 0.50995 0.89158 0.24002 0.0
N266 N 0.51556 0.90872 0.2667 0.0
C267 C 0.51993 0.89792 0.20467 0.0
C268 C 0.53571 0.92196 0.19632 0.0
H269 H 0.49741 0.87295 0.24515 0.0
H270 H 0.57748 -0.00058 0.23922 0.0
H271 H 0.43571 0.8252 0.3569 0.0
H272 H 0.5763 0.00836 0.30629 0.0
H273 H 0.56133 0.99331 0.36916 0.0
H274 H 0.56549 0.9697 0.18924 0.0
H275 H 0.4155 0.91052 0.31137 0.0
H276 H 0.38164 0.80021 0.44062 0.0
H277 H 0.41075 0.79482 0.40285 0.0
H278 H 0.35625 0.85864 0.44084 0.0
H279 H 0.51514 0.88425 0.1837 0.0
H280 H 0.54317 0.92683 0.16874 0.0
H281 H 0.36238 0.82481 0.45589 0.0
H282 H 0.38607 0.91776 0.34474 0.0
N283 N 0.4204 0.84743 0.36696 0.0
C284 C 0.39232 0.81349 0.41997 0.0
C285 C 0.4087 0.81036 0.39867 0.0
C286 C 0.38974 0.83359 0.41407 0.0
C287 C 0.40377 0.85016 0.38635 0.0
C288 C 0.42289 0.82775 0.37252 0.0
N289 N 0.41193 0.88307 0.34808 0.0
C290 C 0.39975 0.86878 0.37711 0.0
C291 C 0.38983 0.90402 0.35424 0.0
C292 C 0.37791 0.89015 0.38509 0.0
C293 C 0.40646 0.89988 0.33545 0.0
C294 C 0.3824 0.87195 0.39642 0.0
H295 H 0.36481 0.89319 0.39934 0.0
O296 O 0.41014 0.86935 0.27968 0.0
O297 O 0.47368 0.89403 0.28366 0.0
O298 O 0.49025 0.92824 0.34452 0.0
O299 O 0.44898 0.9056 0.3535 0.0
O300 O 0.44909 0.90525 0.27718 0.0
O301 O 0.41406 0.83862 0.29553 0.0
O302 O 0.51136 0.87582 0.35217 0.0
O303 O 0.46628 0.87791 0.36146 0.0
O304 O 0.44803 0.84535 0.29832 0.0
O305 O 0.48891 0.86234 0.30791 0.0
O306 O 0.49531 0.90539 0.38862 0.0
O307 O 0.53853 0.91192 0.33825 0.0
C308 C 0.4701 0.90971 0.26652 0.0
C309 C 0.36953 0.8564 0.42557 0.0
C310 C 0.37304 0.83715 0.43416 0.0
C311 C 0.40143 0.84622 0.27813 0.0
C312 C 0.38023 0.82999 0.25585 0.0
C313 C 0.36385 0.83715 0.24456 0.0
C314 C 0.37534 0.80655 0.24802 0.0
C315 C 0.35445 0.79038 0.22852 0.0
C316 C 0.34284 0.82107 0.22583 0.0
C317 C 0.33813 0.79785 0.21779 0.0
C318 C 0.46963 0.92565 0.3573 0.0
C319 C 0.47347 0.88822 0.39402 0.0
C320 C 0.53395 0.89214 0.35476 0.0
C321 C 0.5448 0.89487 0.3914 0.0
C322 C 0.55386 0.88004 0.40243 0.0
C323 C 0.54541 0.91192 0.41606 0.0
C324 C 0.55508 0.91459 0.45155 0.0
C325 C 0.5635 0.88244 0.43787 0.0
C326 C 0.56412 0.8996 0.46239 0.0
C327 C 0.46791 0.84389 0.29823 0.0
H328 H 0.36706 0.855 0.25077 0.0
H329 H 0.38787 0.80089 0.25695 0.0
H330 H 0.33025 0.82668 0.21721 0.0
H331 H 0.32212 0.78606 0.20207 0.0
H332 H 0.55339 0.86662 0.38377 0.0
H333 H 0.53809 0.92303 0.40773 0.0
H334 H 0.57054 0.87101 0.44634 0.0
H335 H 0.57196 0.90136 0.4895 0.0
Gd336 Gd 0.56639 0.45217 0.64775 0.0
Gd337 Gd 0.60195 0.51382 0.66311 0.0
C338 C 0.58287 0.57055 0.62841 0.0
C339 C 0.59328 0.57584 0.56332 0.0
C340 C 0.59969 0.54788 0.60031 0.0
C341 C 0.5903 0.5533 0.63091 0.0
C342 C 0.60169 0.55951 0.56632 0.0
C343 C 0.5839 0.58135 0.5943 0.0
C344 C 0.57529 0.57699 0.66051 0.0
C345 C 0.57592 0.56687 0.69423 0.0
N346 N 0.58962 0.54271 0.6636 0.0
C347 C 0.58346 0.5499 0.69535 0.0
H348 H 0.58356 0.54193 0.72149 0.0
C349 C 0.61849 0.52753 0.57476 0.0
N350 N 0.60749 0.53181 0.60395 0.0
C351 C 0.62113 0.53892 0.54081 0.0
C352 C 0.61243 0.55474 0.53641 0.0
H353 H 0.62468 0.51482 0.57652 0.0
H354 H 0.57801 0.59442 0.59178 0.0
H355 H 0.60231 0.43841 0.69781 0.0
H356 H 0.56952 0.5902 0.65971 0.0
H357 H 0.5705 0.57202 0.71935 0.0
H358 H 0.59441 0.58467 0.53733 0.0
H359 H 0.50846 0.4302 0.6183 0.0
H360 H 0.55909 0.38468 0.77648 0.0
H361 H 0.59857 0.41078 0.74716 0.0
H362 H 0.47907 0.36742 0.74916 0.0
H363 H 0.62951 0.53512 0.51782 0.0
H364 H 0.61428 0.5633 0.50991 0.0
H365 H 0.5147 0.36938 0.77805 0.0
H366 H 0.46766 0.40291 0.64051 0.0
N367 N 0.56496 0.42769 0.69732 0.0
C368 C 0.56049 0.39652 0.75418 0.0
C369 C 0.58277 0.41114 0.7376 0.0
C370 C 0.54013 0.39673 0.74088 0.0
C371 C 0.54287 0.41224 0.71137 0.0
C372 C 0.58476 0.42689 0.70938 0.0
N373 N 0.52597 0.42427 0.664 0.0
C374 C 0.52278 0.41059 0.69439 0.0
C375 C 0.48301 0.40506 0.65614 0.0
C376 C 0.47952 0.39194 0.68842 0.0
C377 C 0.5064 0.42082 0.64383 0.0
C378 C 0.49948 0.39416 0.7075 0.0
H379 H 0.46136 0.37959 0.69769 0.0
O380 O 0.56243 0.44075 0.59035 0.0
O381 O 0.58182 0.48811 0.617 0.0
O382 O 0.56283 0.50226 0.67794 0.0
O383 O 0.5427 0.46047 0.68217 0.0
O384 O 0.54578 0.46444 0.61033 0.0
O385 O 0.56731 0.41988 0.63205 0.0
O386 O 0.63631 0.52189 0.68695 0.0
O387 O 0.58958 0.4783 0.69313 0.0
O388 O 0.60623 0.46209 0.64645 0.0
O389 O 0.62666 0.50263 0.63542 0.0
O390 O 0.59018 0.506 0.7229 0.0
O391 O 0.62869 0.55051 0.67764 0.0
C392 C 0.56265 0.48533 0.60018 0.0
C393 C 0.4968 0.37996 0.73853 0.0
C394 C 0.51709 0.38113 0.75504 0.0
C395 C 0.56771 0.4241 0.597 0.0
C396 C 0.58815 0.42541 0.57628 0.0
C397 C 0.60573 0.4472 0.5606 0.0
C398 C 0.59081 0.40507 0.57363 0.0
C399 C 0.61075 0.4063 0.55519 0.0
C400 C 0.6258 0.44871 0.54311 0.0
C401 C 0.62837 0.42847 0.54042 0.0
C402 C 0.54406 0.48132 0.68816 0.0
C403 C 0.58559 0.4841 0.72614 0.0
C404 C 0.64336 0.54441 0.69229 0.0
C405 C 0.65243 0.55363 0.72948 0.0
C406 C 0.67621 0.56035 0.73859 0.0
C407 C 0.63741 0.55513 0.75631 0.0
C408 C 0.64609 0.56362 0.79203 0.0
C409 C 0.68496 0.56864 0.77406 0.0
C410 C 0.67007 0.57035 0.80063 0.0
C411 C 0.6261 0.48186 0.63645 0.0
H412 H 0.60422 0.46322 0.56236 0.0
H413 H 0.57721 0.38826 0.58564 0.0
H414 H 0.63934 0.4656 0.53136 0.0
H415 H 0.64369 0.43002 0.52539 0.0
H416 H 0.68797 0.55912 0.71828 0.0
H417 H 0.61896 0.54954 0.74949 0.0
H418 H 0.70338 0.57391 0.78093 0.0
H419 H 0.67752 0.57738 0.82765 0.0
Gd420 Gd 0.10679 0.55798 0.98773 0.0
Gd421 Gd 0.08263 0.59479 1.00502 0.0
C422 C 0.0135 0.57949 0.94518 0.0
C423 C 0.02822 0.59532 0.88389 0.0
C424 C 0.05615 0.59803 0.93175 0.0
C425 C 0.03722 0.58638 0.95622 0.0
C426 C 0.0519 0.60316 0.89553 0.0
C427 C 0.00904 0.58345 0.90864 0.0
C428 C -0.00491 0.56959 0.97152 0.0
C429 C 0.00076 0.56797 1.0082 0.0
N430 N 0.04215 0.58303 0.99141 0.0
C431 C 0.02459 0.57539 1.01784 0.0
H432 H 0.02901 0.57477 1.04647 0.0
C433 C 0.0981 0.61826 0.92117 0.0
N434 N 0.07878 0.60479 0.94354 0.0
C435 C 0.09482 0.62396 0.88519 0.0
C436 C 0.07159 0.61616 0.87215 0.0
H437 H 0.11613 0.62472 0.93076 0.0
H438 H 0.99092 0.578 0.89955 0.0
H439 H 0.15324 0.60103 1.03626 0.0
H440 H 0.97665 0.56402 0.96413 0.0
H441 H 0.98684 0.56123 1.02913 0.0
H442 H 0.02459 0.59874 0.856 0.0
H443 H 0.06892 0.49896 0.97423 0.0
H444 H 0.17369 0.56698 0.11833 0.0
H445 H 0.17954 0.60389 1.08777 0.0
H446 H 0.11859 0.48319 0.0992 0.0
H447 H 0.11023 0.63436 0.86754 0.0
H448 H 0.06909 0.62047 0.84418 0.0
H449 H 0.15092 0.52202 0.12231 0.0
H450 H 0.06082 0.4604 1.00125 0.0
N451 N 0.13211 0.56292 1.03796 0.0
C452 C 0.16206 0.56561 1.09562 0.0
C453 C 0.16538 0.58648 1.07853 0.0
C454 C 0.14387 0.54321 1.08311 0.0
C455 C 0.12913 0.5424 1.05357 0.0
C456 C 0.15035 0.58479 1.04933 0.0
N457 N 0.09672 0.5203 1.01256 0.0
C458 C 0.11082 0.52048 1.04066 0.0
C459 C 0.07484 0.47716 1.01272 0.0
C460 C 0.0885 0.47706 1.04266 0.0
C461 C 0.07945 0.49903 0.99755 0.0
C462 C 0.10688 0.49885 1.05681 0.0
H463 H 0.0849 0.46008 1.05436 0.0
O464 O 0.1101 0.53738 0.94288 0.0
O465 O 0.08698 0.5742 0.95714 0.0
O466 O 0.05369 0.55626 1.01854 0.0
O467 O 0.07512 0.53608 1.02433 0.0
O468 O 0.07402 0.53801 0.95002 0.0
O469 O 0.14204 0.56512 0.96992 0.0
O470 O 0.10102 0.6338 1.0053 0.0
O471 O 0.10521 0.58143 1.03365 0.0
O472 O 0.13428 0.59596 0.96741 0.0
O473 O 0.12347 0.61942 1.00093 0.0
O474 O 0.07993 0.58405 1.06561 0.0
O475 O 0.07019 0.61372 1.04037 0.0
C476 C 0.07049 0.55522 0.94001 0.0
C477 C 0.12142 0.49961 1.08636 0.0
C478 C 0.13986 0.52173 0.09948 0.0
C479 C 0.13355 0.5494 0.94331 0.0
C480 C 0.14616 0.55638 0.90745 0.0
C481 C 0.13489 0.54278 0.87568 0.0
C482 C 0.1702 0.57533 0.9052 0.0
C483 C 0.18283 0.58055 0.87163 0.0
C484 C 0.14727 0.54805 0.84226 0.0
C485 C 0.17106 0.56675 0.84017 0.0
C486 C 0.05565 0.53767 1.02995 0.0
C487 C 0.09616 0.57777 1.06704 0.0
C488 C 0.08849 0.63471 1.03292 0.0
C489 C 0.10206 0.64951 1.06515 0.0
C490 C 0.12738 0.66331 1.06466 0.0
C491 C 0.0897 0.64886 0.09762 0.0
C492 C 0.10244 0.66087 0.12961 0.0
C493 C 0.14005 0.6754 1.09639 0.0
C494 C 0.12769 0.67397 0.1289 0.0
C495 C 0.13939 0.61719 0.98072 0.0
H496 H 0.11656 0.52788 0.87672 0.0
H497 H 0.17926 0.58576 0.92958 0.0
H498 H 0.13841 0.53757 0.81788 0.0
H499 H 0.18011 0.5707 0.81369 0.0
H500 H 0.13743 0.66453 1.03997 0.0
H501 H 0.07019 0.6384 0.09844 0.0
H502 H 0.15953 0.68573 1.09586 0.0
H503 H 0.13778 0.68325 0.15339 0.0
Gd504 Gd 0.87987 0.4479 0.54005 0.0
Gd505 Gd 0.9094 0.50943 0.52119 0.0
C506 C 0.98116 0.56314 0.57379 0.0
C507 C 0.96913 0.56726 0.63577 0.0
C508 C 0.93911 0.54057 0.59137 0.0
C509 C 0.95698 0.54622 0.56544 0.0
C510 C 0.94494 0.55137 0.62666 0.0
C511 C 0.98721 0.57315 0.60937 0.0
C512 C -0.00161 0.5702 0.5457 0.0
C513 C 0.99114 0.5612 0.51002 0.0
N514 N 0.95055 0.53635 0.5313 0.0
C515 C 0.9669 0.54462 0.50312 0.0
H516 H 0.9612 0.53811 0.4753 0.0
C517 C 0.89757 0.52029 0.6057 0.0
N518 N 0.91593 0.52498 0.58179 0.0
C519 C 0.90245 0.53068 0.64088 0.0
C520 C 0.92625 0.54613 0.65155 0.0
H521 H 0.87912 0.50827 0.59801 0.0
H522 H 0.00573 0.58596 0.61642 0.0
H523 H 0.83366 0.44125 0.48804 0.0
H524 H 0.01711 0.58325 0.55097 0.0
H525 H 0.00415 0.56718 0.48778 0.0
H526 H 0.97398 0.57548 0.66288 0.0
H527 H 0.91151 0.42172 0.56826 0.0
H528 H 0.81847 0.38734 0.4065 0.0
H529 H 0.80904 0.41636 0.43607 0.0
H530 H 0.87392 0.36039 0.4356 0.0
H531 H 0.88784 0.52663 0.65982 0.0
H532 H 0.92999 0.55406 0.67889 0.0
H533 H 0.84337 0.36715 0.40572 0.0
H534 H 0.921 0.39125 0.54596 0.0
N535 N 0.85655 0.4261 0.48885 0.0
C536 C 0.82917 0.398 0.4297 0.0
C537 C 0.82374 0.4143 0.44639 0.0
C538 C 0.84787 0.39513 0.44386 0.0
C539 C 0.86106 0.40927 0.47438 0.0
C540 C 0.83779 0.42841 0.47592 0.0
N541 N 0.88895 0.41794 0.52249 0.0
C542 C 0.87786 0.40512 0.49163 0.0
C543 C 0.90897 0.3951 0.53026 0.0
C544 C 0.8986 0.38259 0.49762 0.0
C545 C 0.90361 0.4125 0.54271 0.0
C546 C 0.88248 0.3872 0.47822 0.0
H547 H 0.90267 0.36902 0.48817 0.0
O548 O 0.87265 0.43364 0.59597 0.0
O549 O 0.90228 0.48416 0.56881 0.0
O550 O 0.93636 0.49632 0.51223 0.0
O551 O 0.91211 0.45467 0.50746 0.0
O552 O 0.91196 0.45868 0.57872 0.0
O553 O 0.84467 0.41805 0.55501 0.0
O554 O 0.90034 0.53786 0.52344 0.0
O555 O 0.88356 0.47367 0.49376 0.0
O556 O 0.8518 0.45961 0.54753 0.0
O557 O 0.87015 0.49945 0.53079 0.0
O558 O 0.91217 0.49889 0.4625 0.0
O559 O 0.91778 0.53388 0.47528 0.0
C560 C 0.91754 0.48034 0.58711 0.0
C561 C 0.87045 0.37407 0.44651 0.0
C562 C 0.85309 0.37796 0.42945 0.0
C563 C 0.84971 0.42007 0.58998 0.0
C564 C 0.83345 0.42415 0.61377 0.0
C565 C 0.84115 0.44701 0.62901 0.0
C566 C 0.80945 0.40586 0.61855 0.0
C567 C 0.79316 0.41021 0.63854 0.0
C568 C 0.82504 0.45155 0.64829 0.0
C569 C 0.80122 0.43335 0.65307 0.0
C570 C 0.93274 0.47472 0.50255 0.0
C571 C 0.89346 0.47771 0.46086 0.0
C572 C 0.91136 0.54747 0.49259 0.0
C573 C 0.92901 0.57351 0.49224 0.0
C574 C 0.93212 0.58826 0.52283 0.0
C575 C 0.94314 0.58373 0.46058 0.0
C576 C 0.96022 0.60839 0.45898 0.0
C577 C 0.94905 0.61278 0.52155 0.0
C578 C 0.96301 0.62284 0.4899 0.0
C579 C 0.85102 0.47954 0.54237 0.0
H580 H 0.85948 0.46155 0.62525 0.0
H581 H 0.80348 0.3883 0.60656 0.0
H582 H 0.83107 0.46924 0.65972 0.0
H583 H 0.78936 0.43722 0.66926 0.0
H584 H 0.92157 0.58092 0.5477 0.0
H585 H 0.94109 0.57224 0.4373 0.0
H586 H 0.95133 0.62406 0.54519 0.0
H587 H 0.97577 0.64194 0.48954 0.0
Gd588 Gd 0.4247 0.87651 0.87743 0.0
Gd589 Gd 0.38708 0.89994 0.86395 0.0
C590 C 0.40404 0.97205 0.91385 0.0
C591 C 0.39072 0.96131 0.97729 0.0
C592 C 0.38643 0.93058 0.93356 0.0
C593 C 0.3969 0.94784 0.90626 0.0
C594 C 0.38272 0.93711 0.96919 0.0
C595 C 0.40142 0.97876 0.94971 0.0
C596 C 0.41292 0.98868 0.88491 0.0
C597 C 0.41352 0.98083 0.84917 0.0
N598 N 0.39894 0.94079 0.87177 0.0
C599 C 0.40598 0.95662 0.84296 0.0
H600 H 0.40598 0.95049 0.81513 0.0
C601 C 0.36744 0.88967 0.95076 0.0
N602 N 0.37948 0.90737 0.92516 0.0
C603 C 0.363 0.89525 0.98618 0.0
C604 C 0.37087 0.91909 0.99558 0.0
H605 H 0.36148 0.87119 0.94453 0.0
H606 H 0.40705 -0.0027 0.95615 0.0
H607 H 0.38146 0.82613 0.83697 0.0
H608 H 0.41862 0.00742 0.88965 0.0
H609 H 0.41965 0.99338 0.82637 0.0
H610 H 0.38835 0.96667 1.00465 0.0
H611 H 0.48393 0.91609 0.88613 0.0
H612 H 0.41533 0.80044 0.76271 0.0
H613 H 0.37874 0.79518 0.79416 0.0
H614 H 0.49864 0.86106 0.76834 0.0
H615 H 0.35372 0.88115 1.00636 0.0
H616 H 0.36763 0.92337 1.02319 0.0
H617 H 0.45986 0.8256 0.75215 0.0
H618 H 0.52222 0.92414 0.85756 0.0
N619 N 0.41943 0.84863 0.83117 0.0
C620 C 0.41671 0.81401 0.78192 0.0
C621 C 0.39602 0.81097 0.79964 0.0
C622 C 0.43893 0.83455 0.7892 0.0
C623 C 0.43981 0.85157 0.8148 0.0
C624 C 0.39767 0.82863 0.82405 0.0
N625 N 0.46214 0.88638 0.85105 0.0
C626 C 0.46174 0.87124 0.82453 0.0
C627 C 0.50534 0.90928 0.84789 0.0
C628 C 0.50515 0.89441 0.81961 0.0
C629 C 0.48362 0.90468 0.86396 0.0
C630 C 0.48326 0.87485 0.80807 0.0
H631 H 0.52204 0.89784 0.8075 0.0
O632 O 0.44609 0.87632 0.92382 0.0
O633 O 0.40848 0.89576 0.9098 0.0
O634 O 0.42566 0.92787 0.84611 0.0
O635 O 0.44525 0.90612 0.83779 0.0
O636 O 0.44518 0.91039 0.91293 0.0
O637 O 0.41927 0.84285 0.89942 0.0
O638 O 0.35031 0.8744 0.84797 0.0
O639 O 0.40043 0.87816 0.83191 0.0
O640 O 0.38686 0.84662 0.8953 0.0
O641 O 0.36167 0.86125 0.88062 0.0
O642 O 0.39665 0.90384 0.80344 0.0
O643 O 0.36271 0.9123 0.84616 0.0
C644 C 0.42772 0.91286 0.92535 0.0
C645 C 0.48232 0.85853 0.78138 0.0
C646 C 0.46024 0.83834 0.77216 0.0
C647 C 0.43353 0.85307 0.92738 0.0
C648 C 0.42279 0.84359 0.96382 0.0
C649 C 0.4252 0.85913 0.99297 0.0
C650 C 0.40809 0.81864 0.9685 0.0
C651 C 0.39505 0.80937 1.00124 0.0
C652 C 0.41267 0.84991 1.0259 0.0
C653 C 0.39752 0.8252 1.02997 0.0
C654 C 0.44375 0.92554 0.83266 0.0
C655 C 0.40256 0.88753 0.79871 0.0
C656 C 0.34593 0.89093 0.83639 0.0
C657 C 0.33723 0.88791 0.79812 0.0
C658 C 0.31536 0.8676 0.78824 0.0
C659 C 0.35178 0.90397 0.77059 0.0
C660 C 0.34493 0.89965 0.73338 0.0
C661 C 0.3083 0.8633 0.75121 0.0
C662 C 0.32306 0.87913 0.72381 0.0
C663 C 0.36495 0.84371 0.89244 0.0
H664 H 0.43636 0.87842 0.99017 0.0
H665 H 0.40599 0.80651 0.94611 0.0
H666 H 0.41447 0.86197 1.04815 0.0
H667 H 0.38786 0.81843 1.05573 0.0
H668 H 0.304 0.85486 0.80907 0.0
H669 H 0.36883 0.91956 0.77791 0.0
H670 H 0.29144 0.84755 0.7437 0.0
H671 H 0.31723 0.87552 0.69529 0.0
Gd672 Gd 0.54316 0.4263 0.20563 0.0
Gd673 Gd 0.48208 0.38898 0.19123 0.0
C674 C 0.42829 0.4069 0.24389 0.0
C675 C 0.42636 0.3934 0.30702 0.0
C676 C 0.45209 0.38879 0.26209 0.0
C677 C 0.44513 0.39955 0.23533 0.0
C678 C 0.44227 0.38513 0.29803 0.0
C679 C 0.41945 0.40432 0.28006 0.0
C680 C 0.42018 0.41588 0.21556 0.0
C681 C 0.42794 0.41629 0.17943 0.0
N682 N 0.45368 0.40154 0.20042 0.0
C683 C 0.44434 0.4085 0.17221 0.0
H684 H 0.44984 0.40826 0.14408 0.0
C685 C 0.47383 0.3693 0.27804 0.0
N686 N 0.4681 0.38156 0.25296 0.0
C687 C 0.46426 0.36498 0.31373 0.0
C688 C 0.44858 0.3731 0.3239 0.0
H689 H 0.48602 0.36301 0.27118 0.0
H690 H 0.40674 0.41012 0.28721 0.0
H691 H 0.54955 0.3828 0.1646 0.0
H692 H 0.40729 0.42173 0.22107 0.0
H693 H 0.42114 0.42241 0.15709 0.0
H694 H 0.41899 0.39107 0.33463 0.0
H695 H 0.56311 0.48544 0.21388 0.0
H696 H 0.61102 0.41609 1.09387 0.0
H697 H 0.57808 0.37961 0.12296 0.0
H698 H 0.63568 0.49968 0.10115 0.0
H699 H 0.46915 0.35554 0.33349 0.0
H700 H 0.4414 0.36993 0.35171 0.0
H701 H 0.63187 0.46075 1.08498 0.0
H702 H 0.59445 0.52356 0.18681 0.0
N703 N 0.56637 0.42088 0.16046 0.0
C704 C 0.59868 0.41766 0.11258 0.0
C705 C 0.58011 0.39703 0.12894 0.0
C706 C 0.601 0.44006 0.12038 0.0
C707 C 0.58456 0.44115 0.14517 0.0
C708 C 0.56395 0.39895 0.15274 0.0
N709 N 0.57166 0.46357 0.18013 0.0
C710 C 0.58698 0.46309 0.15474 0.0
C711 C 0.59248 0.50668 0.1774 0.0
C712 C 0.60786 0.50642 0.15035 0.0
C713 C 0.5747 0.48503 0.19261 0.0
C714 C 0.6055 0.48451 0.13913 0.0
H715 H 0.62179 0.52324 0.13889 0.0
O716 O 0.56419 0.44753 0.25257 0.0
O717 O 0.50755 0.41045 0.23741 0.0
O718 O 0.49245 0.42708 0.17193 0.0
O719 O 0.53413 0.44706 0.16614 0.0
O720 O 0.52969 0.44716 0.23963 0.0
O721 O 0.57028 0.4199 0.23009 0.0
O722 O 0.47016 0.35319 0.16932 0.0
O723 O 0.51748 0.40231 0.15979 0.0
O724 O 0.53464 0.38832 0.22332 0.0
O725 O 0.49516 0.3632 0.20633 0.0
O726 O 0.48817 0.3986 0.13072 0.0
O727 O 0.44425 0.36442 0.17987 0.0
C728 C 0.50979 0.4299 0.25232 0.0
C729 C 0.62139 0.48344 0.11351 0.0
C730 C 0.61924 0.46127 0.10433 0.0
C731 C 0.57395 0.43424 0.25782 0.0
C732 C 0.57117 0.42353 0.29481 0.0
C733 C 0.56118 0.43003 0.32413 0.0
C734 C 0.57696 0.40534 0.30026 0.0
C735 C 0.57191 0.393 0.33399 0.0
C736 C 0.55661 0.41822 0.35795 0.0
C737 C 0.5618 0.39978 0.36288 0.0
C738 C 0.51312 0.4453 0.15955 0.0
C739 C 0.51049 0.40446 0.12639 0.0
C740 C 0.44802 0.34819 0.16505 0.0
C741 C 0.43773 0.33992 0.12815 0.0
C742 C 0.42791 0.31578 0.11805 0.0
C743 C 0.43807 0.35637 0.10256 0.0
C744 C 0.4285 0.34907 1.06703 0.0
C745 C 0.41838 0.30824 1.08264 0.0
C746 C 0.4186 0.32473 1.05723 0.0
C747 C 0.51583 0.36646 0.219 0.0
H748 H 0.55655 0.44398 0.32085 0.0
H749 H 0.58457 0.40017 0.27773 0.0
H750 H 0.54885 0.42327 0.38036 0.0
H751 H 0.55825 0.39108 0.38957 0.0
H752 H 0.42762 0.30284 0.13747 0.0
H753 H 0.44592 0.375 0.11035 0.0
H754 H 0.41068 0.28955 1.07492 0.0
H755 H 0.41067 0.31832 1.03026 0.0
Gd756 Gd 0.10862 0.53965 0.54054 0.0
Gd757 Gd 0.08879 0.47784 0.5311 0.0
C758 C 0.02138 0.42635 0.5963 0.0
C759 C 0.03774 0.42762 0.65719 0.0
C760 C 0.06436 0.45175 0.6072 0.0
C761 C 0.04469 0.44306 0.58338 0.0
C762 C 0.06095 0.44381 0.64429 0.0
C763 C 0.01801 0.41901 0.63333 0.0
C764 C 0.0021 0.41703 0.57146 0.0
C765 C 0.00636 0.42349 0.53437 0.0
N766 N 0.04834 0.45032 0.54749 0.0
C767 C 0.02971 0.43974 0.52266 0.0
H768 H 0.03285 0.44345 0.4935 0.0
C769 C 0.10616 0.47691 0.61761 0.0
N770 N 0.08663 0.46828 0.59459 0.0
C771 C 0.10361 0.46929 0.65427 0.0
C772 C 0.08093 0.45269 0.6677 0.0
H773 H 0.12388 0.4899 0.6085 0.0
H774 H 0.00023 0.40638 0.64368 0.0
H775 H 0.15546 0.54703 0.48921 0.0
H776 H 0.98399 0.40424 0.5804 0.0
H777 H 0.99172 0.41563 0.51463 0.0
H778 H 0.03484 0.42165 0.68566 0.0
H779 H 0.06574 0.55481 0.55463 0.0
H780 H 0.17161 0.60234 0.41014 0.0
H781 H 0.18048 0.57257 0.43819 0.0
H782 H 0.11098 0.62363 0.43222 0.0
H783 H 0.11917 0.4764 0.67225 0.0
H784 H 0.07901 0.44704 0.69628 0.0
H785 H 0.14565 0.62131 0.40818 0.0
H786 H 0.05362 0.58237 0.52856 0.0
N787 N 0.13256 0.56215 0.49046 0.0
C788 C 0.16067 0.59132 0.43284 0.0
C789 C 0.16569 0.57449 0.44854 0.0
C790 C 0.14146 0.59357 0.44641 0.0
C791 C 0.12771 0.57872 0.47593 0.0
C792 C 0.15146 0.56006 0.47758 0.0
N793 N 0.09489 0.56488 0.51708 0.0
C794 C 0.10812 0.57993 0.48934 0.0
C795 C 0.06891 0.58179 0.51715 0.0
C796 C 0.08188 0.59684 0.48792 0.0
C797 C 0.07584 0.56604 0.53176 0.0
C798 C 0.10183 0.59616 0.47377 0.0
H799 H 0.07645 0.60901 0.47666 0.0
O800 O 0.1109 0.55823 0.59194 0.0
O801 O 0.09084 0.50454 0.57405 0.0
O802 O 0.06085 0.48519 0.50475 0.0
O803 O 0.07825 0.52682 0.49936 0.0
O804 O 0.07451 0.5251 0.57552 0.0
O805 O 0.1421 0.57119 0.55665 0.0
O806 O 0.11193 0.46316 0.51675 0.0
O807 O 0.10825 0.51294 0.50039 0.0
O808 O 0.1412 0.53431 0.55296 0.0
O809 O 0.12842 0.49408 0.54341 0.0
O810 O 0.09183 0.48327 0.46811 0.0
O811 O 0.07344 0.43992 0.51946 0.0
C812 C 0.07293 0.50577 0.58868 0.0
C813 C 0.11556 0.61109 0.44455 0.0
C814 C 0.13533 0.60981 0.43092 0.0
C815 C 0.13409 0.57238 0.58906 0.0
C816 C 0.14892 0.57244 0.61996 0.0
C817 C 0.14201 0.55133 0.6401 0.0
C818 C 0.17124 0.59303 0.62706 0.0
C819 C 0.18664 0.59273 0.65445 0.0
C820 C 0.15705 0.55092 0.66745 0.0
C821 C 0.17915 0.57142 0.67472 0.0
C822 C 0.06165 0.50457 0.49043 0.0
C823 C 0.10465 0.5064 0.46571 0.0
C824 C 0.09379 0.44207 0.50897 0.0
C825 C 0.09381 0.43251 0.47207 0.0
C826 C 0.11009 0.42474 0.46336 0.0
C827 C 0.07755 0.43137 0.44512 0.0
C828 C 0.07697 0.42207 0.40985 0.0
C829 C 0.10992 0.41572 0.42813 0.0
C830 C 0.09343 0.41429 0.40151 0.0
C831 C 0.14551 0.51611 0.5514 0.0
H832 H 0.1252 0.53506 0.63426 0.0
H833 H 0.17676 0.60907 0.61073 0.0
H834 H 0.1516 0.53462 0.68301 0.0
H835 H 0.19017 0.57066 0.69673 0.0
H836 H 0.12287 0.42562 0.48376 0.0
H837 H 0.06531 0.43784 0.45167 0.0
H838 H 0.12245 0.40963 0.42152 0.0
H839 H 0.09329 0.40669 0.37476 0.0
Gd840 Gd 0.55843 0.11041 0.8792 0.0
Gd841 Gd 0.59263 0.08319 0.86149 0.0
C842 C 0.57291 0.00969 0.90836 0.0
C843 C 0.58682 0.01924 0.97179 0.0
C844 C 0.5923 0.05104 0.92952 0.0
C845 C 0.58107 0.03422 0.90177 0.0
C846 C 0.59568 0.04372 0.9647 0.0
C847 C 0.5754 0.00225 0.94371 0.0
C848 C 0.56306 0.99343 0.87898 0.0
C849 C 0.56244 0.0019 0.84377 0.0
N850 N 0.57907 0.04193 0.86784 0.0
C851 C 0.57098 0.0264 0.83856 0.0
H852 H 0.57104 0.03304 0.81111 0.0
C853 C 0.61234 0.0917 0.94849 0.0
N854 N 0.60007 0.07454 0.92212 0.0
C855 C 0.61646 0.08531 0.98348 0.0
C856 C 0.60795 0.06121 0.99174 0.0
H857 H 0.61856 0.11038 0.9434 0.0
H858 H 0.56902 0.98347 0.94939 0.0
H859 H 0.59753 0.15262 0.82043 0.0
H860 H 0.55656 0.97446 0.88295 0.0
H861 H 0.55554 0.98962 0.82061 0.0
H862 H 0.58896 0.01329 0.99878 0.0
H863 H 0.50092 0.0784 0.90913 0.0
H864 H 0.55803 0.17303 0.74866 0.0
H865 H 0.59672 0.17734 0.76947 0.0
H866 H 0.47634 0.12382 0.78828 0.0
H867 H 0.62592 0.09899 1.00425 0.0
H868 H 0.61092 0.05631 1.01904 0.0
H869 H 0.51318 0.15289 0.75574 0.0
H870 H 0.46103 0.07166 0.89169 0.0
N871 N 0.55952 0.13415 0.82894 0.0
C872 C 0.55825 0.16218 0.77137 0.0
C873 C 0.58011 0.16465 0.783 0.0
C874 C 0.53692 0.14575 0.78917 0.0
C875 C 0.53817 0.13197 0.81851 0.0
C876 C 0.58045 0.15056 0.8121 0.0
N877 N 0.51932 0.10273 0.86499 0.0
C878 C 0.51743 0.11556 0.83675 0.0
C879 C 0.47672 0.08391 0.87579 0.0
C880 C 0.47437 0.09625 0.84591 0.0
C881 C 0.49947 0.08764 0.88536 0.0
C882 C 0.49487 0.11253 0.82625 0.0
H883 H 0.45673 0.09339 0.83868 0.0
O884 O 0.55314 0.11643 0.93672 0.0
O885 O 0.57274 0.08839 0.90838 0.0
O886 O 0.55321 0.05729 0.84474 0.0
O887 O 0.53328 0.07942 0.84416 0.0
O888 O 0.53662 0.07646 0.91395 0.0
O889 O 0.5623 0.14453 0.89701 0.0
O890 O 0.62923 0.10754 0.84335 0.0
O891 O 0.58068 0.10689 0.83287 0.0
O892 O 0.59806 0.14027 0.88348 0.0
O893 O 0.62008 0.12095 0.88107 0.0
O894 O 0.58097 0.08019 0.80151 0.0
O895 O 0.61517 0.06936 0.84057 0.0
C896 C 0.55317 0.07189 0.92411 0.0
C897 C 0.49351 0.12599 0.7968 0.0
C898 C 0.51449 0.14257 0.77833 0.0
C899 C 0.56064 0.13909 0.93178 0.0
C900 C 0.58091 0.15613 0.95501 0.0
C901 C 0.59715 0.14972 0.96996 0.0
C902 C 0.58508 0.17956 0.96022 0.0
C903 C 0.6053 0.19656 0.98029 0.0
C904 C 0.61733 0.16652 0.9895 0.0
C905 C 0.62145 0.18979 0.99462 0.0
C906 C 0.53452 0.06008 0.83577 0.0
C907 C 0.57618 0.09743 0.79961 0.0
C908 C 0.6326 0.09046 0.83118 0.0
C909 C 0.64139 0.09342 0.793 0.0
C910 C 0.66491 0.11153 0.78471 0.0
C911 C 0.62596 0.07951 0.76433 0.0
C912 C 0.63374 0.08378 0.72744 0.0
C913 C 0.67287 0.11576 0.74813 0.0
C914 C 0.6574 0.10206 0.71959 0.0
C915 C 0.61885 0.14069 0.88585 0.0
H916 H 0.59451 0.13186 0.96595 0.0
H917 H 0.57261 0.18452 0.94859 0.0
H918 H 0.62981 0.16149 1.00077 0.0
H919 H 0.63689 0.20223 1.01087 0.0
H920 H 0.67699 0.12258 0.80648 0.0
H921 H 0.60769 0.0657 0.7706 0.0
H922 H 0.69106 0.12976 0.74187 0.0
H923 H 0.66405 0.10554 0.69148 0.0
Gd924 Gd 0.45045 0.56107 0.19859 0.0
Gd925 Gd 0.51203 0.60363 0.18903 0.0
C926 C 0.57106 0.58968 0.23197 0.0
C927 C 0.57135 0.5974 0.29764 0.0
C928 C 0.54384 0.60215 0.25668 0.0
C929 C 0.55245 0.59512 0.22694 0.0
C930 C 0.55363 0.60383 0.29229 0.0
C931 C 0.58 0.59028 0.26756 0.0
C932 C 0.58075 0.58462 0.20091 0.0
C933 C 0.57277 0.58626 0.16581 0.0
N934 N 0.54372 0.59499 0.19278 0.0
C935 C 0.55457 0.59204 0.16223 0.0
H936 H 0.54911 0.59419 0.13502 0.0
C937 C 0.51853 0.61613 0.27952 0.0
N938 N 0.52628 0.60777 0.2508 0.0
C939 C 0.52805 0.6185 0.315 0.0
C940 C 0.5455 0.61211 0.32152 0.0
H941 H 0.50447 0.62044 0.27613 0.0
H942 H 0.59408 0.5859 0.27196 0.0
H943 H 0.43968 0.5973 0.14149 0.0
H944 H 0.59503 0.58035 0.20366 0.0
H945 H 0.58081 0.58335 0.14149 0.0
H946 H 0.57877 0.59826 0.32485 0.0
H947 H 0.43389 0.50332 0.22215 0.0
H948 H 0.38857 0.55296 1.06062 0.0
H949 H 0.41462 0.59288 1.08829 0.0
H950 H 0.37282 0.47395 1.0892 0.0
H951 H 0.52156 0.62486 0.33748 0.0
H952 H 0.55258 0.61366 0.34918 0.0
H953 H 0.37347 0.50891 1.06081 0.0
H954 H 0.40958 0.46304 0.19662 0.0
N955 N 0.42767 0.55977 0.14631 0.0
C956 C 0.39925 0.5546 1.08479 0.0
C957 C 0.41392 0.57715 0.10034 0.0
C958 C 0.39865 0.53445 0.10039 0.0
C959 C 0.41299 0.53751 0.13183 0.0
C960 C 0.42802 0.57946 0.13117 0.0
N961 N 0.42624 0.52091 0.17845 0.0
C962 C 0.41259 0.51767 0.14787 0.0
C963 C 0.41042 0.47825 0.18245 0.0
C964 C 0.39727 0.47478 0.15018 0.0
C965 C 0.42454 0.50143 0.19662 0.0
C966 C 0.3979 0.49449 0.13281 0.0
H967 H 0.38628 0.45676 0.13935 0.0
O968 O 0.44086 0.56845 0.25265 0.0
O969 O 0.48582 0.57793 0.23143 0.0
O970 O 0.5063 0.56891 0.16299 0.0
O971 O 0.46472 0.54239 0.16282 0.0
O972 O 0.46453 0.54161 0.23514 0.0
O973 O 0.41299 0.54361 0.21609 0.0
O974 O 0.51884 0.6395 0.17601 0.0
O975 O 0.47651 0.58771 0.15815 0.0
O976 O 0.4547 0.59906 0.19971 0.0
O977 O 0.49447 0.62281 0.21622 0.0
O978 O 0.50635 0.59876 0.12619 0.0
O979 O 0.54818 0.6323 0.17558 0.0
C980 C 0.4847 0.55911 0.24661 0.0
C981 C 0.38405 0.49158 0.10121 0.0
C982 C 0.38437 0.51148 1.08511 0.0
C983 C 0.41786 0.5567 0.2456 0.0
C984 C 0.40444 0.56975 0.25013 0.0
C985 C 0.37994 0.55854 0.24079 0.0
C986 C 0.41602 0.59355 0.26309 0.0
C987 C 0.40334 0.60603 0.26808 0.0
C988 C 0.3673 0.57088 0.24455 0.0
C989 C 0.37878 0.59434 0.25832 0.0
C990 C 0.48688 0.54879 0.15227 0.0
C991 C 0.4832 0.58876 0.12387 0.0
C992 C 0.54117 0.64748 0.16716 0.0
C993 C 0.54847 0.65921 0.13089 0.0
C994 C 0.55121 0.68207 0.126 0.0
C995 C 0.55172 0.64741 0.10064 0.0
C996 C 0.55774 0.65834 1.06574 0.0
C997 C 0.55726 0.69307 1.09136 0.0
C998 C 0.56057 0.68133 1.06135 0.0
C999 C 0.47264 0.61968 0.21246 0.0
H1000 H 0.37057 0.54025 0.23053 0.0
H1001 H 0.43501 0.60228 0.26948 0.0
H1002 H 0.34838 0.56206 0.2374 0.0
H1003 H 0.36806 0.60286 0.26246 0.0
H1004 H 0.54855 0.69134 0.14894 0.0
H1005 H 0.54997 0.62989 0.1043 0.0
H1006 H 0.55935 0.71072 1.08774 0.0
H1007 H 0.56524 0.69014 1.03471 0.0
C1008 C 0.53256 0.18115 0.27774 0.0
C1009 C 0.51468 0.16457 0.30189 0.0
C1010 C 0.53406 0.20337 0.26861 0.0
C1011 C 0.518 0.24891 0.30217 0.0
H1012 H 0.52287 0.26869 0.20002 0.0
C1013 C 0.53284 0.34426 0.25662 0.0
C1014 C 0.51757 0.34425 0.22853 0.0
C1015 C 0.53356 0.32315 0.26587 0.0
C1016 C 0.52158 0.26357 0.22877 0.0
H1017 H 0.4847 0.15954 0.33597 0.0
H1018 H 0.48791 0.19818 0.32145 0.0
H1019 H 0.52278 0.23143 0.21548 0.0
H1020 H 0.49133 0.32127 0.18784 0.0
H1021 H 0.49328 0.28511 0.20276 0.0
H1022 H 0.5174 0.28135 0.31554 0.0
C1023 C 0.50064 0.19389 0.30891 0.0
C1024 C 0.52164 0.24211 0.2377 0.0
C1025 C 0.49874 0.17148 0.31718 0.0
C1026 C 0.50335 0.3223 0.20967 0.0
C1027 C 0.50455 0.30141 0.21817 0.0
C1028 C 0.51865 0.27072 0.29332 0.0
C1029 C 0.51816 0.21027 0.28415 0.0
C1030 C 0.51951 0.23411 0.27458 0.0
C1031 C 0.51951 0.30126 0.24667 0.0
C1032 C 0.5201 0.27839 0.25638 0.0
H1033 H 0.54514 0.17676 0.26526 0.0
H1034 H 0.54795 0.21533 0.24963 0.0
H1035 H 0.51648 0.24369 0.33089 0.0
H1036 H 0.54389 0.36051 0.27208 0.0
H1037 H 0.5454 0.32406 0.2879 0.0
C1038 C 0.32828 0.50742 0.64828 0.0
C1039 C 0.35054 0.52222 0.63049 0.0
C1040 C 0.30749 0.50896 0.64025 0.0
C1041 C 0.27748 0.52512 0.56696 0.0
H1042 H 0.23731 0.52704 0.64548 0.0
C1043 C 0.17768 0.5042 0.54387 0.0
C1044 C 0.17049 0.51981 0.55949 0.0
C1045 C 0.20028 0.50639 0.55192 0.0
C1046 C 0.24828 0.52658 0.62308 0.0
H1047 H 0.3676 0.5503 0.58952 0.0
H1048 H 0.33116 0.55225 0.57434 0.0
H1049 H 0.27468 0.52699 0.66049 0.0
H1050 H 0.18239 0.55017 0.59643 0.0
H1051 H 0.22133 0.5533 0.61185 0.0
H1052 H 0.25057 0.52367 0.52961 0.0
C1053 C 0.32997 0.53964 0.59519 0.0
C1054 C 0.26979 0.52643 0.63173 0.0
C1055 C 0.35103 0.5386 0.60404 0.0
C1056 C 0.187 0.53776 0.5837 0.0
C1057 C 0.20943 0.53949 0.59268 0.0
C1058 C 0.25563 0.52458 0.55835 0.0
C1059 C 0.30775 0.5249 0.61325 0.0
C1060 C 0.2849 0.52573 0.60386 0.0
C1061 C 0.21657 0.52386 0.57682 0.0
C1062 C 0.24054 0.52533 0.5862 0.0
H1063 H 0.3269 0.49457 0.66883 0.0
H1064 H 0.29093 0.49716 0.65474 0.0
H1065 H 0.28832 0.52443 0.54456 0.0
H1066 H 0.16575 0.49013 0.52507 0.0
H1067 H 0.20477 0.49388 0.53917 0.0
C1068 C 0.80954 0.34057 0.93414 0.0
C1069 C 0.82213 0.34199 0.96691 0.0
C1070 C 0.7876 0.31949 0.92474 0.0
C1071 C 0.73379 0.26582 0.96329 0.0
H1072 H 0.72745 0.2344 0.86915 0.0
C1073 C 0.64155 0.18529 0.90518 0.0
C1074 C 0.64197 0.16439 0.89409 0.0
C1075 C 0.66297 0.20695 0.91422 0.0
C1076 C 0.72877 0.24291 0.89556 0.0
H1077 H 0.82066 0.32177 1.01552 0.0
H1078 H 0.78206 0.28584 1.00028 0.0
H1079 H 0.76476 0.27193 0.88411 0.0
H1080 H 0.66648 0.15118 0.88253 0.0
H1081 H 0.70355 0.18902 0.8961 0.0
H1082 H 0.69749 0.23725 0.97422 0.0
C1083 C 0.78935 0.3009 0.98139 0.0
C1084 C 0.75027 0.26462 0.90412 0.0
C1085 C 0.81164 0.32163 0.99017 0.0
C1086 C 0.66496 0.1665 0.89114 0.0
C1087 C 0.68643 0.18839 0.89893 0.0
C1088 C 0.71199 0.24455 0.95422 0.0
C1089 C 0.77695 0.29923 0.94829 0.0
C1090 C 0.75337 0.27642 0.93836 0.0
C1091 C 0.68592 0.20904 0.91107 0.0
C1092 C 0.7091 0.23244 0.92033 0.0
H1093 H 0.81708 0.3555 0.91509 0.0
H1094 H 0.77882 0.31912 0.89902 0.0
H1095 H 0.73522 0.27418 0.98987 0.0
H1096 H 0.62453 0.1849 0.90733 0.0
H1097 H 0.66156 0.22228 0.92315 0.0
C1098 C 0.45195 0.64516 0.20494 0.0
C1099 C 0.46915 0.64084 0.22227 0.0
C1100 C 0.45066 0.66621 0.21271 0.0
C1101 C 0.48579 0.72755 0.26224 0.0
H1102 H 0.42923 0.73201 0.23957 0.0
C1103 C 0.48811 0.8195 0.28086 0.0
C1104 C 0.46685 0.82039 0.28732 0.0
C1105 C 0.48755 0.79772 0.27227 0.0
C1106 C 0.44525 0.73131 0.24663 0.0
H1107 H 0.49759 0.65542 0.26314 0.0
H1108 H 0.49446 0.6904 0.27826 0.0
H1109 H 0.42918 0.69474 0.22777 0.0
H1110 H 0.42802 0.79795 0.28938 0.0
H1111 H 0.42697 0.76018 0.27562 0.0
H1112 H 0.50153 0.76356 0.28261 0.0
C1113 C 0.48265 0.67858 0.25698 0.0
C1114 C 0.44536 0.70962 0.2392 0.0
C1115 C 0.48429 0.65797 0.24858 0.0
C1116 C 0.4449 0.79838 0.2845 0.0
C1117 C 0.44433 0.77645 0.27633 0.0
C1118 C 0.48559 0.74904 0.27001 0.0
C1119 C 0.46618 0.6837 0.23877 0.0
C1120 C 0.46567 0.70709 0.24678 0.0
C1121 C 0.46569 0.77546 0.27023 0.0
C1122 C 0.46542 0.7517 0.26222 0.0
H1123 H 0.4399 0.63259 0.18449 0.0
H1124 H 0.43765 0.66884 0.19754 0.0
H1125 H 0.50223 0.72741 0.26815 0.0
H1126 H 0.50546 0.83581 0.28233 0.0
H1127 H 0.50457 0.79863 0.26692 0.0
C1128 C 0.64986 0.45953 0.62842 0.0
C1129 C 0.64887 0.481 0.62672 0.0
C1130 C 0.6711 0.45896 0.61906 0.0
C1131 C 0.73882 0.49979 0.60429 0.0
H1132 H 0.73515 0.44295 0.56104 0.0
C1133 C 0.80633 0.45815 0.56088 0.0
C1134 C 0.8276 0.47946 0.55085 0.0
C1135 C 0.78477 0.45808 0.57 0.0
C1136 C 0.73681 0.45901 0.57352 0.0
H1137 H 0.67045 0.51879 0.61329 0.0
H1138 H 0.70689 0.51787 0.59722 0.0
H1139 H 0.69826 0.44316 0.57676 0.0
H1140 H 0.84189 0.51756 0.54251 0.0
H1141 H 0.80466 0.51746 0.55735 0.0
H1142 H 0.77729 0.51565 0.6012 0.0
C1143 C 0.69137 0.50131 0.60619 0.0
C1144 C 0.71531 0.45912 0.58266 0.0
C1145 C 0.67013 0.50183 0.61532 0.0
C1146 C 0.82618 0.50069 0.55001 0.0
C1147 C 0.80459 0.50063 0.55901 0.0
C1148 C 0.76028 0.49967 0.59517 0.0
C1149 C 0.69249 0.47989 0.60787 0.0
C1150 C 0.71572 0.47955 0.59821 0.0
C1151 C 0.78329 0.47933 0.56937 0.0
C1152 C 0.75991 0.47932 0.57943 0.0
H1153 H 0.63409 0.44298 0.6369 0.0
H1154 H 0.67075 0.44201 0.62123 0.0
H1155 H 0.7405 0.51585 0.61681 0.0
H1156 H 0.80629 0.44131 0.56196 0.0
H1157 H 0.76933 0.44122 0.57821 0.0
C1158 C 0.31943 0.81475 0.89126 0.0
C1159 C 0.34264 0.81975 0.90235 0.0
C1160 C 0.29846 0.79267 0.89956 0.0
C1161 C 0.273 0.73877 0.96297 0.0
H1162 H 0.22172 0.71041 0.89047 0.0
C1163 C 0.17605 0.65745 0.99883 0.0
C1164 C 0.16339 0.63955 0.97192 0.0
C1165 C 0.19815 0.67856 0.99063 0.0
C1166 C 0.23576 0.71783 0.91122 0.0
H1167 H 0.36108 0.80437 0.93179 0.0
H1168 H 0.32462 0.76618 0.94697 0.0
H1169 H 0.25895 0.74756 0.87616 0.0
H1170 H 0.16456 0.63068 0.91465 0.0
H1171 H 0.2024 0.66753 0.89997 0.0
H1172 H 0.24965 0.70908 0.99815 0.0
C1173 C 0.32267 0.7795 0.93148 0.0
C1174 C 0.25729 0.73953 0.90304 0.0
C1175 C 0.3438 0.80155 0.92258 0.0
C1176 C 0.17368 0.64377 0.93633 0.0
C1177 C 0.1955 0.66518 0.92785 0.0
C1178 C 0.25126 0.71724 0.97139 0.0
C1179 C 0.29946 0.77445 0.91991 0.0
C1180 C 0.27646 0.75061 0.92871 0.0
C1181 C 0.20841 0.68306 0.95485 0.0
C1182 C 0.23206 0.70622 0.94573 0.0
H1183 H 0.31733 0.82794 0.87567 0.0
H1184 H 0.28125 0.79005 0.89035 0.0
H1185 H 0.28697 0.7464 0.98382 0.0
H1186 H 0.16898 0.65498 1.02663 0.0
H1187 H 0.20699 0.69166 1.0124 0.0
C1188 C 0.63115 0.24078 0.99331 0.0
C1189 C 0.60816 0.22026 0.99037 0.0
C1190 C 0.63444 0.26064 1.01391 0.0
C1191 C 0.60004 0.27583 1.08363 0.0
H1192 H 0.6418 0.26441 0.14678 0.0
C1193 C 0.59857 0.21428 0.2076 0.0
C1194 C 0.57614 0.19594 0.19479 0.0
C1195 C 0.60757 0.23799 0.19585 0.0
C1196 C 0.63022 0.2685 0.13035 0.0
H1197 H 0.57017 0.20618 1.00117 0.0
H1198 H 0.57573 0.23996 1.0372 0.0
H1199 H 0.65123 0.27225 1.08296 0.0
H1200 H 0.54361 0.18879 0.16598 0.0
H1201 H 0.5595 0.22919 0.14367 0.0
H1202 H 0.57791 0.26985 0.13116 0.0
C1203 C 0.59147 0.24124 1.02397 0.0
C1204 C 0.63578 0.27314 1.09297 0.0
C1205 C 0.58819 0.22152 1.00329 0.0
C1206 C 0.5615 0.20234 0.17469 0.0
C1207 C 0.57057 0.22587 0.16256 0.0
C1208 C 0.59453 0.27132 0.12123 0.0
C1209 C 0.61485 0.26001 1.03257 0.0
C1210 C 0.61864 0.27291 1.06846 0.0
C1211 C 0.5946 0.2436 0.1702 0.0
C1212 C 0.60756 0.26376 0.14338 0.0
H1213 H 0.64684 0.24069 0.98236 0.0
H1214 H 0.65263 0.2752 1.01867 0.0
H1215 H 0.58739 0.27747 1.06578 0.0
H1216 H 0.6101 0.21009 0.22402 0.0
H1217 H 0.62569 0.25132 0.20386 0.0
C1218 C 0.43326 0.63568 0.3131 0.0
C1219 C 0.41505 0.63001 0.2868 0.0
C1220 C 0.44141 0.6558 0.33552 0.0
C1221 C 0.45381 0.69458 0.38844 0.0
H1222 H 0.39203 0.67468 0.4334 0.0
C1223 C 0.43812 0.64556 0.51694 0.0
C1224 C 0.41614 0.62375 0.51495 0.0
C1225 C 0.44118 0.66587 0.49802 0.0
C1226 C 0.40954 0.68025 0.42151 0.0
H1227 H 0.39357 0.64341 0.26058 0.0
H1228 H 0.40654 0.67768 0.30214 0.0
H1229 H 0.39549 0.67603 0.3669 0.0
H1230 H 0.37896 0.60763 0.49719 0.0
H1231 H 0.38452 0.64153 0.46209 0.0
H1232 H 0.46715 0.69495 0.44202 0.0
C1233 C 0.41456 0.66641 0.30492 0.0
C1234 C 0.41167 0.68171 0.38304 0.0
C1235 C 0.40682 0.64646 0.28156 0.0
C1236 C 0.39654 0.6237 0.49767 0.0
C1237 C 0.39975 0.64371 0.47796 0.0
C1238 C 0.45143 0.69199 0.42675 0.0
C1239 C 0.43112 0.67063 0.33339 0.0
C1240 C 0.43305 0.68537 0.36635 0.0
C1241 C 0.42266 0.6646 0.47538 0.0
C1242 C 0.42835 0.68127 0.44307 0.0
H1243 H 0.4401 0.6237 0.31889 0.0
H1244 H 0.45396 0.65802 0.35725 0.0
H1245 H 0.47104 0.69928 0.37617 0.0
H1246 H 0.45358 0.6466 0.53073 0.0
H1247 H 0.45874 0.68189 0.49895 0.0
C1248 C 0.77903 0.35069 0.83639 0.0
C1249 C 0.7873 0.37177 0.85729 0.0
C1250 C 0.75567 0.33891 0.82227 0.0
C1251 C 0.7125 0.32395 0.77651 0.0
H1252 H 0.71915 0.38389 0.74243 0.0
C1253 C 0.766 0.36833 0.66061 0.0
C1254 C 0.76877 0.39027 0.64834 0.0
C1255 C 0.74577 0.35255 0.68103 0.0
C1256 C 0.71615 0.36652 0.75126 0.0
H1257 H 0.77602 0.3941 0.88614 0.0
H1258 H 0.73497 0.37291 0.86304 0.0
H1259 H 0.72482 0.37926 0.80618 0.0
H1260 H 0.75041 0.41061 0.64131 0.0
H1261 H 0.71512 0.38314 0.67749 0.0
H1262 H 0.70658 0.31256 0.72 0.0
C1263 C 0.74688 0.3662 0.85561 0.0
C1264 C 0.71952 0.3638 0.78858 0.0
C1265 C 0.77049 0.37832 0.86916 0.0
C1266 C 0.74918 0.39424 0.65175 0.0
C1267 C 0.72885 0.37839 0.6722 0.0
C1268 C 0.70934 0.32677 0.73896 0.0
C1269 C 0.73997 0.34795 0.82887 0.0
C1270 C 0.72137 0.34392 0.80041 0.0
C1271 C 0.728 0.35853 0.69 0.0
C1272 C 0.71472 0.34945 0.72552 0.0
H1273 H 0.7912 0.34438 0.82838 0.0
H1274 H 0.75123 0.32454 0.80274 0.0
H1275 H 0.7117 0.30748 0.78532 0.0
H1276 H 0.78059 0.36451 0.65819 0.0
H1277 H 0.74589 0.33739 0.69377 0.0
C1278 C 0.35552 0.77482 1.01975 0.0
C1279 C 0.37878 0.78325 1.00598 0.0
C1280 C 0.3422 0.7515 1.03325 0.0
C1281 C 0.36062 0.71429 1.08328 0.0
H1282 H 0.30209 0.70483 0.12896 0.0
C1283 C 0.32794 0.74641 0.21363 0.0
C1284 C 0.351 0.76689 0.21567 0.0
C1285 C 0.32415 0.72635 0.19303 0.0
C1286 C 0.31832 0.70646 0.11709 0.0
H1287 H 0.40486 0.77299 0.98956 0.0
H1288 H 0.38151 0.73198 1.01287 0.0
H1289 H 0.30588 0.70748 1.06282 0.0
H1290 H 0.38864 0.78102 0.20204 0.0
H1291 H 0.38232 0.74721 0.16603 0.0
H1292 H 0.37275 0.71246 0.13742 0.0
C1293 C 0.37374 0.74351 1.01457 0.0
C1294 C 0.32059 0.7083 1.07868 0.0
C1295 C 0.38714 0.767 1.00102 0.0
C1296 C 0.37056 0.76569 0.2008 0.0
C1297 C 0.36679 0.74586 0.18002 0.0
C1298 C 0.35781 0.71106 0.1215 0.0
C1299 C 0.352 0.73611 1.03378 0.0
C1300 C 0.34342 0.71683 1.06256 0.0
C1301 C 0.34325 0.72666 0.17324 0.0
C1302 C 0.33857 0.71178 0.13902 0.0
H1303 H 0.34835 0.78684 1.02261 0.0
H1304 H 0.32544 0.74686 1.04697 0.0
H1305 H 0.37792 0.71871 1.07178 0.0
H1306 H 0.31259 0.74645 0.22606 0.0
H1307 H 0.30591 0.71153 0.19019 0.0
C1308 C 0.56246 0.35348 0.36125 0.0
C1309 C 0.57773 0.37358 0.33983 0.0
C1310 C 0.5705 0.33846 0.37491 0.0
C1311 C 0.5927 0.31588 0.41825 0.0
H1312 H 0.65124 0.3705 0.45428 0.0
C1313 C 0.5908 0.36358 0.53418 0.0
C1314 C 0.6117 0.38415 0.54654 0.0
C1315 C 0.59251 0.34595 0.51418 0.0
C1316 C 0.63525 0.35446 0.4449 0.0
H1317 H 0.61163 0.39103 0.31005 0.0
H1318 H 0.62541 0.3644 0.33291 0.0
H1319 H 0.64145 0.36825 0.39045 0.0
H1320 H 0.65021 0.39991 0.55446 0.0
H1321 H 0.65326 0.36921 0.51904 0.0
H1322 H 0.58546 0.30373 0.47427 0.0
C1323 C 0.6076 0.3608 0.3407 0.0
C1324 C 0.62948 0.35315 0.40754 0.0
C1325 C 0.59965 0.37607 0.32741 0.0
C1326 C 0.63387 0.38471 0.54388 0.0
C1327 C 0.63558 0.36699 0.52384 0.0
C1328 C 0.59842 0.31729 0.45582 0.0
C1329 C 0.5941 0.34325 0.36746 0.0
C1330 C 0.60639 0.33579 0.39517 0.0
C1331 C 0.61522 0.3487 0.50566 0.0
C1332 C 0.61791 0.33852 0.47008 0.0
H1333 H 0.54493 0.35036 0.36979 0.0
H1334 H 0.55907 0.32493 0.39469 0.0
H1335 H 0.57561 0.30113 0.40893 0.0
H1336 H 0.57335 0.36233 0.53602 0.0
H1337 H 0.57623 0.33207 0.50127 0.0
C1338 C 0.22464 0.59897 0.84654 0.0
C1339 C 0.20771 0.60117 0.86818 0.0
C1340 C 0.245 0.6194 0.83338 0.0
C1341 C 0.27934 0.66198 0.79101 0.0
H1342 H 0.2338 0.6779 0.74883 0.0
C1343 C 0.22958 0.61282 0.67566 0.0
C1344 C 0.20977 0.61474 0.66384 0.0
C1345 C 0.24849 0.63168 0.69474 0.0
C1346 C 0.24746 0.67439 0.75962 0.0
H1347 H 0.20104 0.6261 0.8989 0.0
H1348 H 0.2366 0.66203 0.87571 0.0
H1349 H 0.23452 0.67331 0.81393 0.0
H1350 H 0.19671 0.63972 0.65596 0.0
H1351 H 0.23026 0.67301 0.68737 0.0
H1352 H 0.29099 0.66143 0.73588 0.0
C1353 C 0.23393 0.64455 0.86818 0.0
C1354 C 0.24793 0.67181 0.79778 0.0
C1355 C 0.2135 0.62399 0.8814 0.0
C1356 C 0.21133 0.63732 0.6657 0.0
C1357 C 0.23059 0.65644 0.68412 0.0
C1358 C 0.27912 0.66491 0.75273 0.0
C1359 C 0.24862 0.64248 0.8412 0.0
C1360 C 0.26098 0.6616 0.81282 0.0
C1361 C 0.2481 0.65303 0.70229 0.0
C1362 C 0.26028 0.66703 0.7365 0.0
H1363 H 0.22105 0.5815 0.83701 0.0
H1364 H 0.25596 0.61679 0.81322 0.0
H1365 H 0.29099 0.65586 0.80228 0.0
H1366 H 0.22956 0.59603 0.67293 0.0
H1367 H 0.26175 0.62811 0.70702 0.0
C1368 C 0.42256 0.91905 0.99645 0.0
C1369 C 0.43146 0.92863 0.96081 0.0
C1370 C 0.42916 0.9337 1.02942 0.0
C1371 C 0.46632 0.00102 1.06538 0.0
H1372 H 0.45055 0.97114 0.1615 0.0
C1373 C 0.49317 0.06236 0.20436 0.0
C1374 C 0.49148 0.05262 0.2402 0.0
C1375 C 0.48565 0.04778 0.17127 0.0
C1376 C 0.45547 0.98043 0.13535 0.0
H1377 H 0.4562 0.9624 0.93492 0.0
H1378 H 0.46729 0.98735 0.99032 0.0
H1379 H 0.43891 0.94651 0.10629 0.0
H1380 H 0.48149 0.01872 0.26632 0.0
H1381 H 0.46866 0.99394 0.21077 0.0
H1382 H 0.48341 0.03494 1.09446 0.0
C1383 C 0.4545 0.96845 0.99358 0.0
C1384 C 0.44834 0.96575 0.10248 0.0
C1385 C 0.44794 0.9538 0.9608 0.0
C1386 C 0.48254 0.02743 0.24026 0.0
C1387 C 0.47503 0.01287 0.20738 0.0
C1388 C 0.47347 0.0157 0.09826 0.0
C1389 C 0.44554 0.95909 1.02951 0.0
C1390 C 0.45337 0.97534 1.06594 0.0
C1391 C 0.47629 0.02234 0.17127 0.0
C1392 C 0.46834 0.00611 0.13481 0.0
H1393 H 0.41069 0.89987 0.9992 0.0
H1394 H 0.42121 0.92467 1.0551 0.0
H1395 H 0.47109 0.01029 1.03921 0.0
H1396 H 0.50079 0.08157 0.20161 0.0
H1397 H 0.48742 0.0569 0.14544 0.0
C1398 C 0.49915 0.42554 0.32358 0.0
C1399 C 0.49828 0.43419 0.28785 0.0
C1400 C 0.49172 0.43277 0.35654 0.0
C1401 C 0.4815 0.45451 0.42922 0.0
H1402 H 0.4449 0.48714 0.42097 0.0
C1403 C 0.45596 0.49108 0.5662 0.0
C1404 C 0.4391 0.4993 0.56626 0.0
C1405 C 0.46253 0.48297 0.53348 0.0
C1406 C 0.45495 0.47794 0.42485 0.0
H1407 H 0.48977 0.4592 0.26168 0.0
H1408 H 0.47711 0.47152 0.31718 0.0
H1409 H 0.4564 0.47385 0.36585 0.0
H1410 H 0.41776 0.50668 0.52802 0.0
H1411 H 0.42805 0.49209 0.47225 0.0
H1412 H 0.47987 0.45835 0.48818 0.0
C1413 C 0.48271 0.45833 0.32045 0.0
C1414 C 0.462 0.47026 0.39206 0.0
C1415 C 0.49013 0.45109 0.28768 0.0
C1416 C 0.42986 0.49961 0.53072 0.0
C1417 C 0.43634 0.49141 0.49783 0.0
C1418 C 0.47445 0.46218 0.46202 0.0
C1419 C 0.48326 0.44959 0.35644 0.0
C1420 C 0.47553 0.45812 0.39275 0.0
C1421 C 0.45307 0.48279 0.49771 0.0
C1422 C 0.46078 0.47421 0.46138 0.0
H1423 H 0.50615 0.41341 0.32638 0.0
H1424 H 0.49281 0.42498 0.38238 0.0
H1425 H 0.49202 0.44578 0.43296 0.0
H1426 H 0.46454 0.49114 0.59198 0.0
H1427 H 0.4757 0.47731 0.53667 0.0
C1428 C 0.06736 0.49642 0.66044 0.0
C1429 C 0.05747 0.49426 0.62456 0.0
C1430 C 0.0528 0.48871 0.6935 0.0
C1431 C 0.02065 0.47749 0.76621 0.0
H1432 H 0.95156 0.43714 0.7586 0.0
C1433 C 0.95893 0.44899 0.90396 0.0
C1434 C 0.93402 0.43141 0.90426 0.0
C1435 C 0.97346 0.45613 0.87107 0.0
C1436 C 0.97078 0.4483 0.76231 0.0
H1437 H 0.02323 0.48327 0.59832 0.0
H1438 H -0.00156 0.47016 0.65399 0.0
H1439 H 0.97621 0.44938 0.70329 0.0
H1440 H 0.90543 0.40928 0.86624 0.0
H1441 H 0.93008 0.42067 0.81012 0.0
H1442 H 0.01534 0.47628 0.82515 0.0
C1443 C 0.01753 0.47698 0.6573 0.0
C1444 C 0.98542 0.45576 0.7294 0.0
C1445 C 0.03209 0.48467 0.62441 0.0
C1446 C 0.92449 0.42201 0.86875 0.0
C1447 C 0.93904 0.42911 0.83566 0.0
C1448 C 0.00602 0.47004 0.79912 0.0
C1449 C 0.02721 0.47872 0.6934 0.0
C1450 C 0.01104 0.4706 0.72983 0.0
C1451 C 0.96422 0.44661 0.83528 0.0
C1452 C 0.98039 0.45499 0.79876 0.0
H1453 H 0.08668 0.50454 0.66326 0.0
H1454 H 0.06201 0.4908 0.7194 0.0
H1455 H 0.03984 0.48906 0.76976 0.0
H1456 H 0.96742 0.45768 0.92972 0.0
H1457 H 0.99215 0.46975 0.8742 0.0
C1458 C 0.492 0.95154 0.23348 0.0
C1459 C 0.48264 0.92628 0.23203 0.0
C1460 C 0.50034 0.9668 0.20138 0.0
C1461 C 0.5037 0.96594 1.09212 0.0
H1462 H 0.53879 0.03495 0.10327 0.0
C1463 C 0.53219 0.03022 0.95736 0.0
C1464 C 0.5489 0.05531 0.95862 0.0
C1465 C 0.52495 0.01499 0.98947 0.0
C1466 C 0.52924 0.01578 0.09861 0.0
H1467 H 0.47353 0.89811 0.1919 0.0
H1468 H 0.48831 0.9239 0.13726 0.0
H1469 H 0.52591 0.00938 0.15741 0.0
H1470 H 0.5693 0.0833 0.99845 0.0
H1471 H 0.55768 0.0575 1.05322 0.0
H1472 H 0.50716 0.97234 1.03333 0.0
C1473 C 0.48979 0.93254 0.1635 0.0
C1474 C 0.52138 0.00055 0.13083 0.0
C1475 C 0.48144 0.9173 0.19572 0.0
C1476 C 0.55732 0.0642 0.99478 0.0
C1477 C 0.55006 0.04898 1.02706 0.0
C1478 C 0.51157 0.98117 1.05992 0.0
C1479 C 0.49953 0.95802 0.16481 0.0
C1480 C 0.50828 0.9749 0.12912 0.0
C1481 C 0.53339 0.02366 1.02592 0.0
C1482 C 0.52476 0.00681 1.06163 0.0
H1483 H 0.49267 0.95972 0.25995 0.0
H1484 H 0.50697 0.98572 0.20572 0.0
H1485 H 0.49362 0.94678 1.08741 0.0
H1486 H 0.52423 0.02216 0.93102 0.0
H1487 H 0.51204 -0.00379 0.98527 0.0
C1488 C 0.56662 0.49469 0.52867 0.0
C1489 C 0.55916 0.4973 0.56454 0.0
C1490 C 0.55965 0.50206 0.49543 0.0
C1491 C 0.51749 0.52614 0.45763 0.0
H1492 H 0.54788 0.52843 0.3644 0.0
C1493 C 0.49092 0.56071 0.31891 0.0
C1494 C 0.49643 0.55597 0.2829 0.0
C1495 C 0.49867 0.5542 0.35223 0.0
C1496 C 0.53867 0.52786 0.38971 0.0
H1497 H 0.53644 0.50897 0.59061 0.0
H1498 H 0.52505 0.52209 0.53474 0.0
H1499 H 0.56041 0.51678 0.42019 0.0
H1500 H 0.51365 0.53833 0.25648 0.0
H1501 H 0.52705 0.52741 0.31273 0.0
H1502 H 0.49568 0.53713 0.42698 0.0
C1503 C 0.5367 0.51459 0.53141 0.0
C1504 C 0.54613 0.52097 0.42289 0.0
C1505 C 0.54364 0.50717 0.56451 0.0
C1506 C 0.50955 0.5435 0.28278 0.0
C1507 C 0.51735 0.53703 0.31597 0.0
C1508 C 0.51006 0.53306 0.42445 0.0
C1509 C 0.54422 0.51222 0.49523 0.0
C1510 C 0.53593 0.51982 0.45845 0.0
C1511 C 0.51216 0.54198 0.35225 0.0
C1512 C 0.52034 0.53429 0.38898 0.0
H1513 H 0.57756 0.48629 0.52605 0.0
H1514 H 0.56614 0.49906 0.46957 0.0
H1515 H 0.50818 0.52553 0.48282 0.0
H1516 H 0.48011 0.56925 0.32153 0.0
H1517 H 0.4938 0.55888 0.37825 0.0
C1518 C 0.02988 0.53501 0.90357 0.0
C1519 C 0.05498 0.55198 0.90442 0.0
C1520 C 0.0156 0.52847 0.87036 0.0
C1521 C 0.01956 0.53471 0.76164 0.0
H1522 H 0.95009 0.50136 0.76785 0.0
C1523 C 0.9585 0.49986 0.6228 0.0
C1524 C 0.93362 0.49277 0.62216 0.0
C1525 C 0.97294 0.50736 0.65588 0.0
C1526 C 0.96944 0.51081 0.76459 0.0
H1527 H 0.08413 0.57368 0.867 0.0
H1528 H 0.05987 0.56328 0.81034 0.0
H1529 H 0.97421 0.51345 0.82382 0.0
H1530 H 0.90502 0.48688 0.65981 0.0
H1531 H 0.92957 0.50044 0.7161 0.0
H1532 H 0.01478 0.53222 0.70238 0.0
C1533 C 0.05065 0.5549 0.83573 0.0
C1534 C 0.98377 0.51778 0.79785 0.0
C1535 C 0.06493 0.56144 0.86912 0.0
C1536 C 0.92408 0.4931 0.65749 0.0
C1537 C 0.93852 0.50063 0.69071 0.0
C1538 C 0.00522 0.52769 0.72837 0.0
C1539 C 0.02533 0.53799 0.83482 0.0
C1540 C 0.00951 0.53018 0.79794 0.0
C1541 C 0.9636 0.50792 0.69147 0.0
C1542 C 0.97948 0.51554 0.72829 0.0
H1543 H 0.02106 0.52624 0.92907 0.0
H1544 H -0.00326 0.51519 0.8729 0.0
H1545 H 0.0389 0.54367 0.75843 0.0
H1546 H 0.96696 0.49919 0.59728 0.0
H1547 H 0.99159 0.51208 0.65324 0.0
C1548 C 0.48356 0.04343 0.43585 0.0
C1549 C 0.50175 0.04656 0.41095 0.0
C1550 C 0.48441 0.0379 0.47276 0.0
C1551 C 0.47389 0.00191 0.52687 0.0
H1552 H 0.51907 0.98147 0.50266 0.0
C1553 C 0.45152 0.93348 0.41299 0.0
C1554 C 0.47075 0.94168 0.3876 0.0
C1555 C 0.4551 0.94368 0.44813 0.0
C1556 C 0.50586 0.98662 0.50962 0.0
H1557 H 0.53576 0.04735 0.40611 0.0
H1558 H 0.53624 0.03526 0.46914 0.0
H1559 H 0.53274 0.02101 0.52982 0.0
H1560 H 0.50721 0.9699 0.37684 0.0
H1561 H 0.51358 0.98791 0.43754 0.0
H1562 H 0.44625 0.96897 0.50347 0.0
C1563 C 0.5214 0.03771 0.46092 0.0
C1564 C 0.51361 0.00926 0.52536 0.0
C1565 C 0.52091 0.04403 0.42412 0.0
C1566 C 0.49258 0.96223 0.39644 0.0
C1567 C 0.49624 0.97232 0.43158 0.0
C1568 C 0.46523 0.97945 0.51007 0.0
C1569 C 0.50252 0.03344 0.48573 0.0
C1570 C 0.49834 0.0189 0.52054 0.0
C1571 C 0.47791 0.96237 0.45854 0.0
C1572 C 0.48216 0.97375 0.49553 0.0
H1573 H 0.46899 0.04626 0.42747 0.0
H1574 H 0.47003 0.03599 0.49062 0.0
H1575 H 0.46106 0.00761 0.53354 0.0
H1576 H 0.43422 0.91785 0.40718 0.0
H1577 H 0.44034 0.93605 0.46767 0.0
C1578 C 0.44371 0.49418 0.76048 0.0
C1579 C 0.45844 0.51237 0.73548 0.0
C1580 C 0.44953 0.49598 0.79779 0.0
C1581 C 0.47374 0.48847 0.85709 0.0
H1582 H 0.5394 0.53151 0.83072 0.0
C1583 C 0.51691 0.4628 0.74248 0.0
C1584 C 0.52816 0.48194 0.71715 0.0
C1585 C 0.51047 0.46666 0.7777 0.0
C1586 C 0.52094 0.51882 0.83821 0.0
H1587 H 0.4909 0.54697 0.73064 0.0
H1588 H 0.50265 0.54917 0.79465 0.0
H1589 H 0.51408 0.54677 0.85525 0.0
H1590 H 0.53625 0.51817 0.70572 0.0
H1591 H 0.52546 0.52519 0.76646 0.0
H1592 H 0.47805 0.45959 0.8362 0.0
C1593 C 0.4859 0.53368 0.78613 0.0
C1594 C 0.50639 0.52754 0.85232 0.0
C1595 C 0.4796 0.53219 0.74881 0.0
C1596 C 0.52928 0.50369 0.72554 0.0
C1597 C 0.52331 0.5077 0.76071 0.0
C1598 C 0.48697 0.47873 0.84133 0.0
C1599 C 0.4714 0.5151 0.8113 0.0
C1600 C 0.48138 0.51251 0.84781 0.0
C1601 C 0.51525 0.4897 0.78805 0.0
C1602 C 0.5095 0.49478 0.82556 0.0
H1603 H 0.4268 0.47895 0.75188 0.0
H1604 H 0.43711 0.48163 0.81565 0.0
H1605 H 0.45524 0.47642 0.86485 0.0
H1606 H 0.51526 0.44552 0.73672 0.0
H1607 H 0.50334 0.45209 0.79746 0.0
C1608 C 0.93926 0.46867 1.09044 0.0
C1609 C 0.93846 0.44814 1.07555 0.0
C1610 C 0.94448 0.47435 0.12788 0.0
C1611 C 0.97052 0.49348 0.19517 0.0
H1612 H 0.01398 0.47 0.17525 0.0
C1613 C 0.02037 0.52598 1.07129 0.0
C1614 C 0.03932 0.52264 1.0599 0.0
C1615 C 0.01079 0.51933 0.10664 0.0
C1616 C 0.00262 0.47757 0.18127 0.0
H1617 H 0.94099 0.4166 1.08951 0.0
H1618 H 0.94897 0.42567 0.15364 0.0
H1619 H 0.97425 0.44383 0.20063 0.0
H1620 H 0.05933 0.50471 1.07375 0.0
H1621 H 0.04367 0.49413 0.13605 0.0
H1622 H -0.00132 0.52828 0.17817 0.0
C1623 C 0.94662 0.43822 0.13678 0.0
C1624 C 0.97954 0.46238 0.19541 0.0
C1625 C 0.94238 0.43314 0.09928 0.0
C1626 C 0.04594 0.50917 1.08266 0.0
C1627 C 0.03689 0.50305 0.11857 0.0
C1628 C 0.99385 0.50977 0.18283 0.0
C1629 C 0.94914 0.45963 0.15169 0.0
C1630 C 0.96208 0.46903 0.18807 0.0
C1631 C 0.01977 0.50886 0.13165 0.0
C1632 C 0.008 0.50044 0.16839 0.0
H1633 H 0.93536 0.4801 1.07329 0.0
H1634 H 0.94559 0.4908 0.13752 0.0
H1635 H 0.95794 0.49989 0.19917 0.0
H1636 H 0.01334 0.53437 1.05336 0.0
H1637 H -0.00385 0.52234 0.11398 0.0
C1638 C 0.04712 0.51927 0.43749 0.0
C1639 C 0.05011 0.50116 0.45374 0.0
C1640 C 0.04122 0.51801 0.39997 0.0
C1641 C 0.01316 0.50629 0.33405 0.0
H1642 H 0.975 0.44062 0.36558 0.0
C1643 C 0.96932 0.49462 0.46308 0.0
C1644 C 0.94959 0.47342 0.47597 0.0
C1645 C 0.97866 0.49535 0.42813 0.0
C1646 C 0.98477 0.45905 0.35619 0.0
H1647 H 0.05046 0.46812 0.44206 0.0
H1648 H 0.0416 0.46656 0.37795 0.0
H1649 H 0.01315 0.45466 0.33393 0.0
H1650 H 0.92781 0.43498 0.46581 0.0
H1651 H 0.94466 0.43609 0.40537 0.0
H1652 H 0.98479 0.5119 0.35389 0.0
C1653 C 0.0428 0.48142 0.39377 0.0
C1654 C 0.00697 0.46731 0.33852 0.0
C1655 C 0.04761 0.48214 0.43128 0.0
C1656 C 0.94246 0.45194 0.4562 0.0
C1657 C 0.9519 0.45259 0.4211 0.0
C1658 C 0.99049 0.4988 0.34974 0.0
C1659 C 0.0379 0.4984 0.37761 0.0
C1660 C 0.02359 0.49208 0.34207 0.0
C1661 C 0.96889 0.47467 0.40556 0.0
C1662 C 0.9787 0.47629 0.3678 0.0
H1663 H 0.04988 0.53467 0.45356 0.0
H1664 H 0.03839 0.53207 0.38918 0.0
H1665 H 0.02443 0.52507 0.32701 0.0
H1666 H 0.97653 0.51105 0.47876 0.0
H1667 H 0.99328 0.51242 0.41869 0.0
C1668 C 0.45532 0.96083 0.79248 0.0
C1669 C 0.45691 0.94047 0.80049 0.0
C1670 C 0.45964 0.97006 0.75692 0.0
C1671 C 0.4616 0.98465 0.68182 0.0
H1672 H 0.53037 0.01371 0.68054 0.0
C1673 C 0.50729 0.05369 0.78205 0.0
C1674 C 0.51916 0.04516 0.80492 0.0
C1675 C 0.50197 0.04606 0.74522 0.0
C1676 C 0.511 0.00597 0.6794 0.0
H1677 H 0.46793 0.91585 0.77861 0.0
H1678 H 0.47726 0.9333 0.7168 0.0
H1679 H 0.50564 0.97039 0.68179 0.0
H1680 H 0.52888 0.01767 0.81009 0.0
H1681 H 0.51949 0.00394 0.74767 0.0
H1682 H 0.46714 0.02006 0.68886 0.0
C1683 C 0.471 0.94106 0.73755 0.0
C1684 C 0.49669 0.98086 0.68007 0.0
C1685 C 0.46614 0.93146 0.77329 0.0
C1686 C 0.52171 0.02603 0.79233 0.0
C1687 C 0.51656 0.01846 0.7559 0.0
C1688 C 0.476 0.00971 0.6841 0.0
C1689 C 0.46656 0.95968 0.72836 0.0
C1690 C 0.47253 0.97106 0.6911 0.0
C1691 C 0.50767 0.02916 0.73104 0.0
C1692 C 0.50049 0.01919 0.69287 0.0
H1693 H 0.44967 0.96903 0.81328 0.0
H1694 H 0.45762 0.98556 0.7522 0.0
H1695 H 0.44232 0.97681 0.68511 0.0
H1696 H 0.50372 0.06756 0.79164 0.0
H1697 H 0.4939 0.05376 0.7277 0.0
C1698 C 0.50548 0.55278 1.09057 0.0
C1699 C 0.48893 0.53784 0.11747 0.0
C1700 C 0.50385 0.54519 1.05416 0.0
C1701 C 0.51335 0.51786 0.9994 0.0
H1702 H 0.46423 0.45163 1.00756 0.0
C1703 C 0.53114 0.46778 0.10108 0.0
C1704 C 0.51189 0.45812 0.12648 0.0
C1705 C 0.52772 0.47293 1.06487 0.0
C1706 C 0.47844 0.47007 1.00422 0.0
H1707 H 0.4573 0.5031 0.12658 0.0
H1708 H 0.45571 0.4887 1.06423 0.0
H1709 H 0.45304 0.48223 0.99916 0.0
H1710 H 0.47509 0.44952 0.13498 0.0
H1711 H 0.46894 0.4585 1.07292 0.0
H1712 H 0.53894 0.50664 1.00943 0.0
C1713 C 0.4696 0.50688 1.07054 0.0
C1714 C 0.472 0.48774 0.99929 0.0
C1715 C 0.47087 0.51479 0.10694 0.0
C1716 C 0.48989 0.45581 0.11576 0.0
C1717 C 0.48638 0.46075 1.07964 0.0
C1718 C 0.52001 0.50054 1.00549 0.0
C1719 C 0.48642 0.52184 1.04351 0.0
C1720 C 0.48944 0.51159 1.00794 0.0
C1721 C 0.50508 0.4689 1.05324 0.0
C1722 C 0.50201 0.47746 1.01649 0.0
H1723 H 0.519 0.57103 0.09676 0.0
H1724 H 0.51677 0.5576 1.03455 0.0
H1725 H 0.5276 0.53643 0.99828 0.0
H1726 H 0.54849 0.46986 0.10821 0.0
H1727 H 0.54271 0.47952 1.04582 0.0
C1728 C 0.3704 0.94168 0.7108 0.0
C1729 C 0.36054 0.91692 0.70492 0.0
C1730 C 0.38387 0.95806 0.68328 0.0
C1731 C 0.38773 0.96069 0.58308 0.0
H1732 H 0.43865 0.02605 0.60179 0.0
C1733 C 0.4156 0.03199 0.47089 0.0
C1734 C 0.41881 0.05435 0.48241 0.0
C1735 C 0.41498 0.01557 0.49649 0.0
C1736 C 0.42439 0.00788 0.59611 0.0
H1737 H 0.35849 0.88992 0.66685 0.0
H1738 H 0.38212 0.91864 0.61845 0.0
H1739 H 0.42588 -0.00368 0.65076 0.0
H1740 H 0.42474 0.07714 0.53009 0.0
H1741 H 0.4218 0.04775 0.57502 0.0
H1742 H 0.38467 0.97257 0.52957 0.0
C1743 C 0.379 0.92532 0.64413 0.0
C1744 C 0.41728 0.99075 0.62407 0.0
C1745 C 0.3654 0.90889 0.67167 0.0
C1746 C 0.42175 0.05995 0.52024 0.0
C1747 C 0.42058 0.04325 0.54598 0.0
C1748 C 0.39456 0.97787 0.55534 0.0
C1749 C 0.38781 0.95003 0.64928 0.0
C1750 C 0.39845 0.96712 0.61815 0.0
C1751 C 0.41682 0.02071 0.53442 0.0
C1752 C 0.41247 0.00185 0.56188 0.0
H1753 H 0.36688 0.94837 0.73614 0.0
H1754 H 0.39007 0.9769 0.68801 0.0
H1755 H 0.37288 0.94277 0.57773 0.0
H1756 H 0.41293 0.02677 0.44208 0.0
H1757 H 0.41252 -0.00141 0.48652 0.0
C1758 C 0.42512 0.38564 1.05384 0.0
C1759 C 0.42862 0.36694 1.04089 0.0
C1760 C 0.42452 0.40203 1.02935 0.0
C1761 C 0.43419 0.42132 0.93056 0.0
H1762 H 0.38023 0.43124 0.94919 0.0
C1763 C 0.36969 0.45421 0.85301 0.0
C1764 C 0.36545 0.44068 0.82054 0.0
C1765 C 0.38403 0.45304 0.88112 0.0
C1766 C 0.39575 0.42923 0.94382 0.0
H1767 H 0.43545 0.35168 0.99205 0.0
H1768 H 0.43273 0.37918 0.94909 0.0
H1769 H 0.39361 0.41449 0.99725 0.0
H1770 H 0.37321 0.4157 0.79173 0.0
H1771 H 0.39777 0.41342 0.84059 0.0
H1772 H 0.43482 0.43413 0.87593 0.0
C1773 C 0.43113 0.38164 0.97833 0.0
C1774 C 0.40349 0.4196 0.97148 0.0
C1775 C 0.43216 0.36548 1.00292 0.0
C1776 C 0.37632 0.42652 0.81628 0.0
C1777 C 0.39059 0.42537 0.84422 0.0
C1778 C 0.42619 0.43061 0.9027 0.0
C1779 C 0.42683 0.39982 0.9912 0.0
C1780 C 0.42213 0.41458 0.96465 0.0
C1781 C 0.39429 0.43827 0.8772 0.0
C1782 C 0.40631 0.43381 0.90863 0.0
H1783 H 0.42209 0.3873 1.08283 0.0
H1784 H 0.42162 0.41606 1.04031 0.0
H1785 H 0.44907 0.41836 0.92476 0.0
H1786 H 0.36189 0.46562 0.8567 0.0
H1787 H 0.38675 0.46335 0.90614 0.0
C1788 C 0.9456 0.36607 0.15259 0.0
C1789 C 0.92051 0.35446 0.15753 0.0
C1790 C 0.96114 0.37929 0.18117 0.0
C1791 C 0.99119 0.41302 0.24225 0.0
H1792 H 0.97641 0.37736 0.33387 0.0
C1793 C 0.06424 0.42382 0.34475 0.0
C1794 C 0.05869 0.41996 0.38255 0.0
C1795 C 0.04662 0.42075 0.31915 0.0
C1796 C 0.98068 0.38795 0.3089 0.0
H1797 H 0.89203 0.34865 0.19568 0.0
H1798 H 0.91937 0.37159 0.24621 0.0
H1799 H 0.94625 0.36391 0.28553 0.0
H1800 H 0.03026 0.41047 0.42304 0.0
H1801 H 0.00011 0.4063 0.37872 0.0
H1802 H 0.02588 0.43675 0.26537 0.0
C1803 C 0.9269 0.37022 0.22015 0.0
C1804 C 0.96331 0.38021 0.28113 0.0
C1805 C 0.91129 0.35698 0.19139 0.0
C1806 C 0.03535 0.41382 0.39422 0.0
C1807 C 0.01788 0.41109 0.36872 0.0
C1808 C 0.00851 0.42092 0.27018 0.0
C1809 C 0.95199 0.38115 0.21548 0.0
C1810 C 0.96866 0.39219 0.24707 0.0
C1811 C 0.02312 0.41396 0.3308 0.0
C1812 C 0.00373 0.40797 0.30334 0.0
H1813 H 0.95328 0.36428 0.12695 0.0
H1814 H 0.98034 0.38711 0.17688 0.0
H1815 H -0.00423 0.42273 0.21637 0.0
H1816 H 0.08213 0.42902 0.33485 0.0
H1817 H 0.05126 0.42291 0.2901 0.0
C1818 C 0.60243 0.04399 0.70215 0.0
C1819 C 0.61727 0.06889 0.69741 0.0
C1820 C 0.58835 0.02959 0.67307 0.0
C1821 C 0.59075 0.02891 0.57288 0.0
H1822 H 0.5322 0.96759 0.58547 0.0
C1823 C 0.56117 0.95579 0.46264 0.0
C1824 C 0.55574 0.9332 0.47661 0.0
C1825 C 0.56214 0.97347 0.48606 0.0
C1826 C 0.54851 0.98469 0.58148 0.0
H1827 H 0.62752 0.09845 0.65935 0.0
H1828 H 0.60296 0.07322 0.60831 0.0
H1829 H 0.54534 -0.00234 0.63433 0.0
H1830 H 0.54603 0.91118 0.52587 0.0
H1831 H 0.54888 0.94247 0.56714 0.0
H1832 H 0.59485 0.01546 0.52116 0.0
C1833 C 0.60256 0.06482 0.63441 0.0
C1834 C 0.55596 0.00198 0.60938 0.0
C1835 C 0.61673 0.07924 0.66353 0.0
C1836 C 0.55071 0.92853 0.51439 0.0
C1837 C 0.55188 0.94632 0.53789 0.0
C1838 C 0.58336 0.01163 0.5451 0.0
C1839 C 0.58878 0.03975 0.63853 0.0
C1840 C 0.57771 0.02388 0.60604 0.0
C1841 C 0.55802 0.96912 0.52407 0.0
C1842 C 0.56275 0.98895 0.54982 0.0
H1843 H 0.60253 0.03541 0.7278 0.0
H1844 H 0.57826 0.01033 0.6771 0.0
H1845 H 0.60772 0.04546 0.56945 0.0
H1846 H 0.5653 0.96009 0.43369 0.0
H1847 H 0.56666 0.99076 0.47451 0.0
C1848 C 0.54614 0.62173 1.02692 0.0
C1849 C 0.56217 0.64614 1.03455 0.0
C1850 C 0.5515 0.60986 0.99933 0.0
C1851 C 0.60365 0.61209 0.95605 0.0
H1852 H 0.56035 0.57209 0.87847 0.0
C1853 C 0.61516 0.57506 0.80942 0.0
C1854 C 0.63052 0.56633 0.81983 0.0
C1855 C 0.60265 0.58022 0.83614 0.0
C1856 C 0.57252 0.58311 0.90015 0.0
H1857 H 0.59599 0.67734 1.01899 0.0
H1858 H 0.60555 0.65651 0.97135 0.0
H1859 H 0.54675 0.59152 0.92336 0.0
H1860 H 0.643 0.55411 0.86616 0.0
H1861 H 0.62157 0.56362 0.91279 0.0
H1862 H 0.62952 0.60414 0.93298 0.0
C1863 C 0.58882 0.64663 0.98651 0.0
C1864 C 0.56474 0.59413 0.9258 0.0
C1865 C 0.58329 0.65858 1.01355 0.0
C1866 C 0.63189 0.56148 0.85731 0.0
C1867 C 0.61951 0.56677 0.88399 0.0
C1868 C 0.61127 0.6009 0.93085 0.0
C1869 C 0.57321 0.62207 0.97961 0.0
C1870 C 0.58046 0.60911 0.95351 0.0
C1871 C 0.60537 0.57689 0.87377 0.0
C1872 C 0.59595 0.58657 0.90234 0.0
H1873 H 0.52966 0.61177 1.04262 0.0
H1874 H 0.53916 0.59098 0.99431 0.0
H1875 H 0.61599 0.62327 0.97747 0.0
H1876 H 0.61372 0.5791 0.78083 0.0
H1877 H 0.59198 0.58814 0.82749 0.0
C1878 C 0.07321 0.6678 0.16548 0.0
C1879 C 0.08934 0.65909 0.16402 0.0
C1880 C 0.06053 0.66578 0.19794 0.0
C1881 C 0.02513 0.64694 0.2611 0.0
H1882 H 0.05187 0.64601 0.3566 0.0
C1883 C 0.96548 0.60987 0.39007 0.0
C1884 C 0.97526 0.61862 0.42525 0.0
C1885 C 0.97996 0.61769 0.35862 0.0
C1886 C 0.04419 0.64664 0.33031 0.0
H1887 H 0.10479 0.6412 0.19457 0.0
H1888 H 0.08183 0.63647 0.25074 0.0
H1889 H 0.07666 0.65512 0.3018 0.0
H1890 H 0.00795 0.64341 0.4545 0.0
H1891 H 0.03293 0.65808 0.39944 0.0
H1892 H 0.99305 0.63955 0.28976 0.0
C1893 C 0.07954 0.64576 0.22757 0.0
C1894 C 0.05833 0.65143 0.29862 0.0
C1895 C 0.09258 0.64826 0.19535 0.0
C1896 C -0.00027 0.63632 0.4279 0.0
C1897 C 0.01417 0.64446 0.39628 0.0
C1898 C 0.01116 0.64261 0.29284 0.0
C1899 C 0.0633 0.65449 0.22938 0.0
C1900 C 0.04885 0.65117 0.26346 0.0
C1901 C 0.0046 0.6349 0.36126 0.0
C1902 C 0.02029 0.64188 0.32784 0.0
H1903 H 0.0706 0.67635 0.14157 0.0
H1904 H 0.04863 0.67317 0.19832 0.0
H1905 H 0.01699 0.64631 0.23464 0.0
H1906 H 0.9466 0.59664 0.38676 0.0
H1907 H 0.97187 0.60961 0.33238 0.0
C1908 C 0.50597 0.11073 0.46843 0.0
C1909 C 0.5166 0.10526 0.4382 0.0
C1910 C 0.51299 0.1113 0.50618 0.0
C1911 C 0.5543 0.09808 0.5717 0.0
H1912 H 0.52794 0.12082 0.64743 0.0
C1913 C 0.58637 0.10633 0.73022 0.0
C1914 C 0.57152 0.10492 0.76048 0.0
C1915 C 0.58031 0.10714 0.69228 0.0
C1916 C 0.53559 0.11414 0.62723 0.0
H1917 H 0.54256 0.0938 0.42864 0.0
H1918 H 0.55585 0.09614 0.49218 0.0
H1919 H 0.51734 0.121 0.58321 0.0
H1920 H 0.53688 0.10167 0.77022 0.0
H1921 H 0.52674 0.10417 0.70595 0.0
H1922 H 0.57268 0.09142 0.61627 0.0
C1923 C 0.54196 0.1006 0.48699 0.0
C1924 C 0.52935 0.11422 0.58908 0.0
C1925 C 0.5347 0.09992 0.44905 0.0
C1926 C 0.54994 0.10429 0.74954 0.0
C1927 C 0.54385 0.1053 0.7115 0.0
C1928 C 0.56068 0.09818 0.60988 0.0
C1929 C 0.53124 0.10615 0.51735 0.0
C1930 C 0.53839 0.10618 0.55952 0.0
C1931 C 0.55864 0.10634 0.68124 0.0
C1932 C 0.55159 0.10622 0.63923 0.0
H1933 H 0.4913 0.11408 0.46294 0.0
H1934 H 0.50326 0.11531 0.52665 0.0
H1935 H 0.56199 0.09131 0.55177 0.0
H1936 H 0.60285 0.10617 0.73588 0.0
H1937 H 0.59291 0.10831 0.67141 0.0
C1938 C 0.39763 0.51494 0.79464 0.0
C1939 C 0.41357 0.52575 0.7643 0.0
C1940 C 0.4043 0.5219 0.83235 0.0
C1941 C 0.45522 0.56939 0.89628 0.0
H1942 H 0.41793 0.52482 0.97377 0.0
C1943 C 0.47782 0.59792 1.05615 0.0
C1944 C 0.47037 0.58088 1.08528 0.0
C1945 C 0.47076 0.59149 1.01835 0.0
C1946 C 0.42896 0.5378 0.95308 0.0
H1947 H 0.45087 0.55193 0.75437 0.0
H1948 H 0.46221 0.56491 0.8181 0.0
H1949 H 0.40715 0.51393 0.90937 0.0
H1950 H 0.45032 0.54247 1.09316 0.0
H1951 H 0.43764 0.53124 1.02929 0.0
H1952 H 0.47739 0.59302 0.93996 0.0
C1953 C 0.44377 0.55121 0.81277 0.0
C1954 C 0.42241 0.5315 0.91501 0.0
C1955 C 0.437 0.54401 0.77491 0.0
C1956 C 0.45568 0.55673 1.07342 0.0
C1957 C 0.44849 0.55017 1.03557 0.0
C1958 C 0.46175 0.57571 0.93436 0.0
C1959 C 0.42774 0.54016 0.84313 0.0
C1960 C 0.43519 0.54708 0.88501 0.0
C1961 C 0.45594 0.5673 1.00635 0.0
C1962 C 0.44883 0.56023 0.96439 0.0
H1963 H 0.3796 0.50023 0.78927 0.0
H1964 H 0.39068 0.51257 0.85318 0.0
H1965 H 0.46603 0.58249 0.87557 0.0
H1966 H 0.48989 0.61669 1.06252 0.0
H1967 H 0.47728 0.60591 0.99845 0.0
C1968 C 0.88376 0.42713 0.11248 0.0
C1969 C 0.88176 0.40474 0.1028 0.0
C1970 C 0.88293 0.43405 0.15021 0.0
C1971 C 0.89386 0.42191 0.2509 0.0
H1972 H 0.86059 0.4554 0.28141 0.0
C1973 C 0.90661 0.46437 0.40258 0.0
C1974 C 0.88745 0.46386 0.42296 0.0
C1975 C 0.90462 0.45625 0.36526 0.0
C1976 C 0.87003 0.44599 0.27394 0.0
H1977 H 0.8792 0.37338 0.12938 0.0
H1978 H 0.87869 0.38541 0.19314 0.0
H1979 H 0.86038 0.44449 0.21602 0.0
H1980 H 0.85184 0.45859 0.413 0.0
H1981 H 0.84782 0.44419 0.34857 0.0
H1982 H 0.90415 0.42396 0.30833 0.0
C1983 C 0.8799 0.39753 0.17145 0.0
C1984 C 0.87006 0.43977 0.23563 0.0
C1985 C 0.87996 0.39041 0.13396 0.0
C1986 C 0.86643 0.4569 0.40126 0.0
C1987 C 0.86442 0.44922 0.36313 0.0
C1988 C 0.89436 0.42866 0.28889 0.0
C1989 C 0.88132 0.41959 0.18115 0.0
C1990 C 0.88181 0.4273 0.22275 0.0
C1991 C 0.8835 0.44845 0.34383 0.0
C1992 C 0.88234 0.4408 0.302 0.0
H1993 H 0.88776 0.44027 1.09137 0.0
H1994 H 0.88483 0.45153 0.15513 0.0
H1995 H 0.90344 0.41262 0.24352 0.0
H1996 H 0.92413 0.47282 0.41499 0.0
H1997 H 0.92046 0.45746 0.35249 0.0
C1998 C 0.47296 0.9054 0.45837 0.0
C1999 C 0.46242 0.88526 0.43404 0.0
C2000 C 0.46624 0.90458 0.4963 0.0
C2001 C 0.43098 0.86154 0.57846 0.0
H2002 H 0.44474 0.92089 0.62625 0.0
C2003 C 0.41277 0.86562 0.74317 0.0
C2004 C 0.4106 0.88483 0.75836 0.0
C2005 C 0.4189 0.8648 0.70489 0.0
C2006 C 0.44033 0.90379 0.61412 0.0
H2007 H 0.4397 0.84695 0.43774 0.0
H2008 H 0.42615 0.84519 0.50157 0.0
H2009 H 0.45405 0.9208 0.56146 0.0
H2010 H 0.4119 0.9176 0.73981 0.0
H2011 H 0.42171 0.91615 0.67604 0.0
H2012 H 0.41685 0.84456 0.63143 0.0
C2013 C 0.43904 0.86255 0.49043 0.0
C2014 C 0.44618 0.9038 0.57581 0.0
C2015 C 0.44602 0.86355 0.45216 0.0
C2016 C 0.41391 0.90251 0.73154 0.0
C2017 C 0.41986 0.90176 0.69365 0.0
C2018 C 0.42516 0.86155 0.61698 0.0
C2019 C 0.44878 0.88318 0.51402 0.0
C2020 C 0.44182 0.88272 0.55627 0.0
C2021 C 0.42284 0.88301 0.67858 0.0
C2022 C 0.42952 0.88269 0.6364 0.0
H2023 H 0.48725 0.92238 0.44811 0.0
H2024 H 0.47564 0.92108 0.51196 0.0
H2025 H 0.42709 0.84462 0.56624 0.0
H2026 H 0.40885 0.85061 0.76014 0.0
H2027 H 0.4204 0.84953 0.69604 0.0
C2028 C 0.56533 0.47997 0.78916 0.0
C2029 C 0.57718 0.47168 0.76512 0.0
C2030 C 0.55908 0.47236 0.82663 0.0
C2031 C 0.56937 0.43877 0.90879 0.0
H2032 H 0.51952 0.44707 0.95452 0.0
C2033 C 0.54406 0.41698 1.07225 0.0
C2034 C 0.52167 0.41297 1.08636 0.0
C2035 C 0.5516 0.4239 1.03437 0.0
C2036 C 0.53341 0.44417 0.94298 0.0
H2037 H 0.59721 0.45304 0.76941 0.0
H2038 H 0.58471 0.43764 0.83251 0.0
H2039 H 0.52972 0.45757 0.89039 0.0
H2040 H 0.48925 0.41203 1.06623 0.0
H2041 H 0.50147 0.42302 1.00311 0.0
H2042 H 0.57253 0.42482 0.96176 0.0
C2043 C 0.57843 0.44909 0.82121 0.0
C2044 C 0.53974 0.45076 0.90502 0.0
C2045 C 0.58478 0.45701 0.7833 0.0
C2046 C 0.50702 0.41533 1.05883 0.0
C2047 C 0.51429 0.42201 1.02131 0.0
C2048 C 0.563 0.43214 0.94698 0.0
C2049 C 0.56502 0.45631 0.84434 0.0
C2050 C 0.55803 0.44844 0.88621 0.0
C2051 C 0.537 0.42688 1.00738 0.0
C2052 C 0.54466 0.43449 0.96563 0.0
H2053 H 0.56139 0.49346 0.77917 0.0
H2054 H 0.55018 0.48011 0.84203 0.0
H2055 H 0.58361 0.43644 0.89718 0.0
H2056 H 0.55564 0.41406 1.08975 0.0
H2057 H 0.56913 0.42685 1.0264 0.0
C2058 C 0.11489 0.50873 0.3963 0.0
C2059 C 0.1089 0.51879 0.42671 0.0
C2060 C 0.11508 0.51574 0.35863 0.0
C2061 C 0.1077 0.56128 0.29508 0.0
H2062 H 0.10783 0.52036 0.21687 0.0
C2063 C 0.10984 0.58921 0.13519 0.0
C2064 C 0.10383 0.57257 0.1056 0.0
C2065 C 0.11142 0.58341 0.17308 0.0
C2066 C 0.10763 0.53232 0.23769 0.0
H2067 H 0.09614 0.54364 0.43666 0.0
H2068 H 0.09731 0.5565 0.37328 0.0
H2069 H 0.10808 0.50947 0.28081 0.0
H2070 H 0.0931 0.53546 0.09702 0.0
H2071 H 0.09604 0.5253 0.1606 0.0
H2072 H 0.10659 0.5838 0.25183 0.0
C2073 C 0.10289 0.54344 0.37839 0.0
C2074 C 0.10808 0.52602 0.27565 0.0
C2075 C 0.10269 0.53628 0.41616 0.0
C2076 C 0.09904 0.54953 0.11712 0.0
C2077 C 0.10056 0.54358 0.15492 0.0
C2078 C 0.1072 0.56757 0.25706 0.0
C2079 C 0.10885 0.53325 0.34791 0.0
C2080 C 0.10822 0.54025 0.30604 0.0
C2081 C 0.10654 0.5602 0.18469 0.0
C2082 C 0.10719 0.55337 0.22668 0.0
H2083 H 0.11911 0.49466 0.40158 0.0
H2084 H 0.12013 0.507 0.33786 0.0
H2085 H 0.1079 0.57341 0.31598 0.0
H2086 H 0.11276 0.60697 0.12916 0.0
H2087 H 0.11625 0.59746 0.19333 0.0
loop_
_geom_bond_atom_site_label_1
_geom_bond_atom_site_label_2
_geom_bond_distance
_geom_bond_site_symmetry_2
_ccdc_geom_bond_type
Gd0 N31 2.661 . S
Gd0 N37 2.601 . S
Gd0 O44 2.545 . S
Gd0 O45 2.606 . S
Gd0 O47 2.429 . S
Gd0 O48 2.545 . S
Gd0 O49 2.412 . S
Gd0 O51 2.362 . S
Gd0 O52 2.324 . S
Gd0 C59 2.828 . S
Gd1 N10 2.661 . S
Gd1 N14 2.601 . S
Gd1 O45 2.362 . S
Gd1 O46 2.324 . S
Gd1 O50 2.545 . S
Gd1 O51 2.606 . S
Gd1 O53 2.429 . S
Gd1 O54 2.545 . S
Gd1 O55 2.412 . S
Gd1 C68 2.828 . S
C2 C5 1.417 . S
C2 C7 1.431 . S
C2 C8 1.412 . S
C3 C6 1.437 . S
C3 C7 1.317 . S
C3 H22 0.929 . S
C4 C5 1.426 . S
C4 C6 1.413 . S
C4 N14 1.359 . S
C5 C2 1.417 . S
C5 C4 1.426 . S
C5 N10 1.350 . S
C6 C3 1.437 . S
C6 C4 1.413 . S
C6 C16 1.391 . S
C7 C2 1.431 . S
C7 C3 1.317 . S
C7 H18 0.930 . S
C8 C2 1.412 . S
C8 C9 1.355 . S
C8 H20 0.930 . S
C9 C8 1.355 . S
C9 C11 1.402 . S
C9 H21 0.930 . S
N10 Gd1 2.661 . S
N10 C5 1.350 . S
N10 C11 1.307 . S
C11 C9 1.402 . S
C11 N10 1.307 . S
C11 H12 0.930 . S
H12 C11 0.930 . S
C13 N14 1.334 . S
C13 C15 1.394 . S
C13 H17 0.930 . S
N14 Gd1 2.601 . S
N14 C4 1.359 . S
N14 C13 1.334 . S
C15 C13 1.394 . S
C15 C16 1.359 . S
C15 H27 0.930 . S
C16 C6 1.391 . S
C16 C15 1.359 . S
C16 H28 0.929 . S
H17 C13 0.930 . S
H18 C7 0.930 . S
H19 C36 0.930 . S
H20 C8 0.930 . S
H21 C9 0.930 . S
H22 C3 0.929 . S
H23 C41 0.930 . S
H24 C32 0.930 . S
H25 C33 0.930 . S
H26 C57 0.929 . S
H27 C15 0.930 . S
H28 C16 0.929 . S
H29 C58 0.930 . S
H30 C39 0.930 . S
N31 Gd0 2.661 . S
N31 C35 1.350 . S
N31 C36 1.307 . S
C32 H24 0.930 . S
C32 C33 1.355 . S
C32 C34 1.412 . S
C33 H25 0.930 . S
C33 C32 1.355 . S
C33 C36 1.402 . S
C34 C32 1.412 . S
C34 C35 1.417 . S
C34 C58 1.431 . S
C35 N31 1.350 . S
C35 C34 1.417 . S
C35 C38 1.426 . S
C36 H19 0.930 . S
C36 N31 1.307 . S
C36 C33 1.402 . S
N37 Gd0 2.601 . S
N37 C38 1.359 . S
N37 C41 1.334 . S
C38 C35 1.426 . S
C38 N37 1.359 . S
C38 C42 1.413 . S
C39 H30 0.930 . S
C39 C40 1.359 . S
C39 C41 1.394 . S
C40 C39 1.359 . S
C40 C42 1.391 . S
C40 H43 0.929 . S
C41 H23 0.930 . S
C41 N37 1.334 . S
C41 C39 1.394 . S
C42 C38 1.413 . S
C42 C40 1.391 . S
C42 C57 1.437 . S
H43 C40 0.929 . S
O44 Gd0 2.545 . S
O44 C59 1.258 . S
O45 Gd0 2.606 . S
O45 Gd1 2.362 . S
O45 C56 1.284 . S
O46 Gd1 2.324 . S
O46 C66 1.254 . S
O47 Gd0 2.429 . S
O47 C66 1.268 . S
O48 Gd0 2.545 . S
O48 C56 1.250 . S
O49 Gd0 2.412 . S
O49 C59 1.252 . S
O50 Gd1 2.545 . S
O50 C68 1.258 . S
O51 Gd0 2.362 . S
O51 Gd1 2.606 . S
O51 C67 1.284 . S
O52 Gd0 2.324 . S
O52 C75 1.254 . S
O53 Gd1 2.429 . S
O53 C75 1.268 . S
O54 Gd1 2.545 . S
O54 C67 1.250 . S
O55 Gd1 2.412 . S
O55 C68 1.252 . S
C56 O45 1.284 . S
C56 O48 1.250 . S
C57 H26 0.929 . S
C57 C42 1.437 . S
C57 C58 1.317 . S
C58 H29 0.930 . S
C58 C34 1.431 . S
C58 C57 1.317 . S
C59 Gd0 2.828 . S
C59 O44 1.258 . S
C59 O49 1.252 . S
C59 C60 1.497 . S
C60 C59 1.497 . S
C60 C61 1.395 . S
C60 C62 1.380 . S
C61 C60 1.395 . S
C61 C64 1.398 . S
C61 H76 0.930 . S
C62 C60 1.380 . S
C62 C63 1.391 . S
C62 H77 0.930 . S
C63 C62 1.391 . S
C63 C65 1.387 . S
C64 C61 1.398 . S
C64 C65 1.380 . S
C64 H78 0.930 . S
C65 C63 1.387 . S
C65 C64 1.380 . S
C65 H79 0.930 . S
C66 O46 1.254 . S
C66 O47 1.268 . S
C67 O51 1.284 . S
C67 O54 1.250 . S
C68 Gd1 2.828 . S
C68 O50 1.258 . S
C68 O55 1.252 . S
C68 C69 1.497 . S
C69 C68 1.497 . S
C69 C70 1.395 . S
C69 C71 1.380 . S
C70 C69 1.395 . S
C70 C73 1.398 . S
C70 H80 0.930 . S
C71 C69 1.380 . S
C71 C72 1.391 . S
C71 H81 0.930 . S
C72 C71 1.391 . S
C72 C74 1.387 . S
C73 C70 1.398 . S
C73 C74 1.380 . S
C73 H82 0.930 . S
C74 C72 1.387 . S
C74 C73 1.380 . S
C74 H83 0.930 . S
C75 O52 1.254 . S
C75 O53 1.268 . S
H76 C61 0.930 . S
H77 C62 0.930 . S
H78 C64 0.930 . S
H79 C65 0.930 . S
H80 C70 0.930 . S
H81 C71 0.930 . S
H82 C73 0.930 . S
H83 C74 0.930 . S
Gd84 N115 2.661 . S
Gd84 N121 2.601 . S
Gd84 O128 2.545 . S
Gd84 O129 2.606 . S
Gd84 O131 2.429 . S
Gd84 O132 2.545 . S
Gd84 O133 2.412 . S
Gd84 O135 2.362 . S
Gd84 O136 2.324 . S
Gd84 C143 2.828 . S
Gd85 N94 2.661 . S
Gd85 N98 2.601 . S
Gd85 O129 2.362 . S
Gd85 O130 2.324 . S
Gd85 O134 2.545 . S
Gd85 O135 2.606 . S
Gd85 O137 2.429 . S
Gd85 O138 2.545 . S
Gd85 O139 2.412 . S
Gd85 C152 2.828 . S
C86 C89 1.417 . S
C86 C91 1.431 . S
C86 C92 1.412 . S
C87 C90 1.437 . S
C87 C91 1.317 . S
C87 H106 0.929 . S
C88 C89 1.426 . S
C88 C90 1.413 . S
C88 N98 1.359 . S
C89 C86 1.417 . S
C89 C88 1.426 . S
C89 N94 1.350 . S
C90 C87 1.437 . S
C90 C88 1.413 . S
C90 C100 1.391 . S
C91 C86 1.431 . S
C91 C87 1.317 . S
C91 H102 0.930 . S
C92 C86 1.412 . S
C92 C93 1.355 . S
C92 H104 0.930 . S
C93 C92 1.355 . S
C93 C95 1.402 . S
C93 H105 0.930 . S
N94 Gd85 2.661 . S
N94 C89 1.350 . S
N94 C95 1.307 . S
C95 C93 1.402 . S
C95 N94 1.307 . S
C95 H96 0.930 . S
H96 C95 0.930 . S
C97 N98 1.334 . S
C97 C99 1.394 . S
C97 H101 0.930 . S
N98 Gd85 2.601 . S
N98 C88 1.359 . S
N98 C97 1.334 . S
C99 C97 1.394 . S
C99 C100 1.359 . S
C99 H111 0.930 . S
C100 C90 1.391 . S
C100 C99 1.359 . S
C100 H112 0.929 . S
H101 C97 0.930 . S
H102 C91 0.930 . S
H103 C120 0.930 . S
H104 C92 0.930 . S
H105 C93 0.930 . S
H106 C87 0.929 . S
H107 C125 0.930 . S
H108 C116 0.930 . S
H109 C117 0.930 . S
H110 C141 0.929 . S
H111 C99 0.930 . S
H112 C100 0.929 . S
H113 C142 0.930 . S
H114 C123 0.930 . S
N115 Gd84 2.661 . S
N115 C119 1.350 . S
N115 C120 1.307 . S
C116 H108 0.930 . S
C116 C117 1.355 . S
C116 C118 1.412 . S
C117 H109 0.930 . S
C117 C116 1.355 . S
C117 C120 1.402 . S
C118 C116 1.412 . S
C118 C119 1.417 . S
C118 C142 1.431 . S
C119 N115 1.350 . S
C119 C118 1.417 . S
C119 C122 1.426 . S
C120 H103 0.930 . S
C120 N115 1.307 . S
C120 C117 1.402 . S
N121 Gd84 2.601 . S
N121 C122 1.359 . S
N121 C125 1.334 . S
C122 C119 1.426 . S
C122 N121 1.359 . S
C122 C126 1.413 . S
C123 H114 0.930 . S
C123 C124 1.359 . S
C123 C125 1.394 . S
C124 C123 1.359 . S
C124 C126 1.391 . S
C124 H127 0.929 . S
C125 H107 0.930 . S
C125 N121 1.334 . S
C125 C123 1.394 . S
C126 C122 1.413 . S
C126 C124 1.391 . S
C126 C141 1.437 . S
H127 C124 0.929 . S
O128 Gd84 2.545 . S
O128 C143 1.258 . S
O129 Gd84 2.606 . S
O129 Gd85 2.362 . S
O129 C140 1.284 . S
O130 Gd85 2.324 . S
O130 C150 1.254 . S
O131 Gd84 2.429 . S
O131 C150 1.268 . S
O132 Gd84 2.545 . S
O132 C140 1.250 . S
O133 Gd84 2.412 . S
O133 C143 1.252 . S
O134 Gd85 2.545 . S
O134 C152 1.258 . S
O135 Gd84 2.362 . S
O135 Gd85 2.606 . S
O135 C151 1.284 . S
O136 Gd84 2.324 . S
O136 C159 1.254 . S
O137 Gd85 2.429 . S
O137 C159 1.268 . S
O138 Gd85 2.545 . S
O138 C151 1.250 . S
O139 Gd85 2.412 . S
O139 C152 1.252 . S
C140 O129 1.284 . S
C140 O132 1.250 . S
C141 H110 0.929 . S
C141 C126 1.437 . S
C141 C142 1.317 . S
C142 H113 0.930 . S
C142 C118 1.431 . S
C142 C141 1.317 . S
C143 Gd84 2.828 . S
C143 O128 1.258 . S
C143 O133 1.252 . S
C143 C144 1.497 . S
C144 C143 1.497 . S
C144 C145 1.395 . S
C144 C146 1.380 . S
C145 C144 1.395 . S
C145 C148 1.398 . S
C145 H160 0.930 . S
C146 C144 1.380 . S
C146 C147 1.391 . S
C146 H161 0.930 . S
C147 C146 1.391 . S
C147 C149 1.387 . S
C148 C145 1.398 . S
C148 C149 1.380 . S
C148 H162 0.930 . S
C149 C147 1.387 . S
C149 C148 1.380 . S
C149 H163 0.930 . S
C150 O130 1.254 . S
C150 O131 1.268 . S
C151 O135 1.284 . S
C151 O138 1.250 . S
C152 Gd85 2.828 . S
C152 O134 1.258 . S
C152 O139 1.252 . S
C152 C153 1.497 . S
C153 C152 1.497 . S
C153 C154 1.395 . S
C153 C155 1.380 . S
C154 C153 1.395 . S
C154 C157 1.398 . S
C154 H164 0.930 . S
C155 C153 1.380 . S
C155 C156 1.391 . S
C155 H165 0.930 . S
C156 C155 1.391 . S
C156 C158 1.387 . S
C157 C154 1.398 . S
C157 C158 1.380 . S
C157 H166 0.930 . S
C158 C156 1.387 . S
C158 C157 1.380 . S
C158 H167 0.930 . S
C159 O136 1.254 . S
C159 O137 1.268 . S
H160 C145 0.930 . S
H161 C146 0.930 . S
H162 C148 0.930 . S
H163 C149 0.930 . S
H164 C154 0.930 . S
H165 C155 0.930 . S
H166 C157 0.930 . S
H167 C158 0.930 . S
Gd168 N199 2.661 . S
Gd168 N205 2.601 . S
Gd168 O212 2.545 . S
Gd168 O213 2.606 . S
Gd168 O215 2.429 . S
Gd168 O216 2.545 . S
Gd168 O217 2.412 . S
Gd168 O219 2.362 . S
Gd168 O220 2.324 . S
Gd168 C227 2.828 . S
Gd169 N178 2.661 . S
Gd169 N182 2.601 . S
Gd169 O213 2.362 . S
Gd169 O214 2.324 . S
Gd169 O218 2.545 . S
Gd169 O219 2.606 . S
Gd169 O221 2.429 . S
Gd169 O222 2.545 . S
Gd169 O223 2.412 . S
Gd169 C236 2.828 1_556 S
C170 C173 1.417 . S
C170 C175 1.431 . S
C170 C176 1.412 . S
C171 C174 1.437 . S
C171 C175 1.317 . S
C171 H190 0.929 . S
C172 C173 1.426 . S
C172 C174 1.413 . S
C172 N182 1.359 . S
C173 C170 1.417 . S
C173 C172 1.426 . S
C173 N178 1.350 . S
C174 C171 1.437 . S
C174 C172 1.413 . S
C174 C184 1.391 . S
C175 C170 1.431 . S
C175 C171 1.317 . S
C175 H186 0.930 . S
C176 C170 1.412 . S
C176 C177 1.355 . S
C176 H188 0.930 . S
C177 C176 1.355 . S
C177 C179 1.402 . S
C177 H189 0.930 . S
N178 Gd169 2.661 . S
N178 C173 1.350 . S
N178 C179 1.307 . S
C179 C177 1.402 . S
C179 N178 1.307 . S
C179 H180 0.930 . S
H180 C179 0.930 . S
C181 N182 1.334 . S
C181 C183 1.394 . S
C181 H185 0.930 . S
N182 Gd169 2.601 . S
N182 C172 1.359 . S
N182 C181 1.334 . S
C183 C181 1.394 . S
C183 C184 1.359 . S
C183 H195 0.930 . S
C184 C174 1.391 . S
C184 C183 1.359 . S
C184 H196 0.929 . S
H185 C181 0.930 . S
H186 C175 0.930 . S
H187 C204 0.930 . S
H188 C176 0.930 . S
H189 C177 0.930 . S
H190 C171 0.929 . S
H191 C209 0.930 . S
H192 C200 0.930 . S
H193 C201 0.930 . S
H194 C225 0.929 . S
H195 C183 0.930 . S
H196 C184 0.929 . S
H197 C226 0.930 . S
H198 C207 0.930 . S
N199 Gd168 2.661 . S
N199 C203 1.350 . S
N199 C204 1.307 . S
C200 H192 0.930 . S
C200 C201 1.355 . S
C200 C202 1.412 . S
C201 H193 0.930 . S
C201 C200 1.355 . S
C201 C204 1.402 . S
C202 C200 1.412 . S
C202 C203 1.417 . S
C202 C226 1.431 . S
C203 N199 1.350 . S
C203 C202 1.417 . S
C203 C206 1.426 . S
C204 H187 0.930 . S
C204 N199 1.307 . S
C204 C201 1.402 . S
N205 Gd168 2.601 . S
N205 C206 1.359 . S
N205 C209 1.334 . S
C206 C203 1.426 . S
C206 N205 1.359 . S
C206 C210 1.413 . S
C207 H198 0.930 . S
C207 C208 1.359 . S
C207 C209 1.394 . S
C208 C207 1.359 . S
C208 C210 1.391 . S
C208 H211 0.929 . S
C209 H191 0.930 . S
C209 N205 1.334 . S
C209 C207 1.394 . S
C210 C206 1.413 . S
C210 C208 1.391 . S
C210 C225 1.437 . S
H211 C208 0.929 . S
O212 Gd168 2.545 . S
O212 C227 1.258 . S
O213 Gd168 2.606 . S
O213 Gd169 2.362 . S
O213 C224 1.284 . S
O214 Gd169 2.324 . S
O214 C234 1.254 . S
O215 Gd168 2.429 . S
O215 C234 1.268 . S
O216 Gd168 2.545 . S
O216 C224 1.250 . S
O217 Gd168 2.412 . S
O217 C227 1.252 . S
O218 Gd169 2.545 . S
O218 C236 1.258 1_556 S
O219 Gd168 2.362 . S
O219 Gd169 2.606 . S
O219 C235 1.284 . S
O220 Gd168 2.324 . S
O220 C243 1.254 . S
O221 Gd169 2.429 . S
O221 C243 1.268 . S
O222 Gd169 2.545 . S
O222 C235 1.250 . S
O223 Gd169 2.412 . S
O223 C236 1.252 1_556 S
C224 O213 1.284 . S
C224 O216 1.250 . S
C225 H194 0.929 . S
C225 C210 1.437 . S
C225 C226 1.317 . S
C226 H197 0.930 . S
C226 C202 1.431 . S
C226 C225 1.317 . S
C227 Gd168 2.828 . S
C227 O212 1.258 . S
C227 O217 1.252 . S
C227 C228 1.497 . S
C228 C227 1.497 . S
C228 C229 1.395 . S
C228 C230 1.380 . S
C229 C228 1.395 . S
C229 C232 1.398 . S
C229 H244 0.930 . S
C230 C228 1.380 . S
C230 C231 1.391 . S
C230 H245 0.930 . S
C231 C230 1.391 . S
C231 C233 1.387 . S
C232 C229 1.398 . S
C232 C233 1.380 . S
C232 H246 0.930 . S
C233 C231 1.387 . S
C233 C232 1.380 . S
C233 H247 0.930 . S
C234 O214 1.254 . S
C234 O215 1.268 . S
C235 O219 1.284 . S
C235 O222 1.250 . S
C236 Gd169 2.828 1_554 S
C236 O218 1.258 1_554 S
C236 O223 1.252 1_554 S
C236 C237 1.497 . S
C237 C236 1.497 . S
C237 C238 1.395 . S
C237 C239 1.380 . S
C238 C237 1.395 . S
C238 C241 1.398 . S
C238 H248 0.930 . S
C239 C237 1.380 . S
C239 C240 1.391 . S
C239 H249 0.930 . S
C240 C239 1.391 . S
C240 C242 1.387 . S
C241 C238 1.398 . S
C241 C242 1.380 . S
C241 H250 0.930 . S
C242 C240 1.387 . S
C242 C241 1.380 . S
C242 H251 0.930 . S
C243 O220 1.254 . S
C243 O221 1.268 . S
H244 C229 0.930 . S
H245 C230 0.930 . S
H246 C232 0.930 . S
H247 C233 0.930 . S
H248 C238 0.930 . S
H249 C239 0.930 . S
H250 C241 0.930 . S
H251 C242 0.930 . S
Gd252 N283 2.661 . S
Gd252 N289 2.601 . S
Gd252 O296 2.545 . S
Gd252 O297 2.606 . S
Gd252 O299 2.429 . S
Gd252 O300 2.545 . S
Gd252 O301 2.412 . S
Gd252 O303 2.362 . S
Gd252 O304 2.324 . S
Gd252 C311 2.828 . S
Gd253 N262 2.661 . S
Gd253 N266 2.601 . S
Gd253 O297 2.362 . S
Gd253 O298 2.324 . S
Gd253 O302 2.545 . S
Gd253 O303 2.606 . S
Gd253 O305 2.429 . S
Gd253 O306 2.545 . S
Gd253 O307 2.412 . S
Gd253 C320 2.828 . S
C254 C257 1.417 . S
C254 C259 1.431 . S
C254 C260 1.412 . S
C255 C258 1.437 . S
C255 C259 1.317 . S
C255 H274 0.929 . S
C256 C257 1.426 . S
C256 C258 1.413 . S
C256 N266 1.359 . S
C257 C254 1.417 . S
C257 C256 1.426 . S
C257 N262 1.350 . S
C258 C255 1.437 . S
C258 C256 1.413 . S
C258 C268 1.391 . S
C259 C254 1.431 . S
C259 C255 1.317 . S
C259 H270 0.930 . S
C260 C254 1.412 . S
C260 C261 1.355 . S
C260 H272 0.930 . S
C261 C260 1.355 . S
C261 C263 1.402 . S
C261 H273 0.930 . S
N262 Gd253 2.661 . S
N262 C257 1.350 . S
N262 C263 1.307 . S
C263 C261 1.402 . S
C263 N262 1.307 . S
C263 H264 0.930 . S
H264 C263 0.930 . S
C265 N266 1.334 . S
C265 C267 1.394 . S
C265 H269 0.930 . S
N266 Gd253 2.601 . S
N266 C256 1.359 . S
N266 C265 1.334 . S
C267 C265 1.394 . S
C267 C268 1.359 . S
C267 H279 0.930 . S
C268 C258 1.391 . S
C268 C267 1.359 . S
C268 H280 0.929 . S
H269 C265 0.930 . S
H270 C259 0.930 . S
H271 C288 0.930 . S
H272 C260 0.930 . S
H273 C261 0.930 . S
H274 C255 0.929 . S
H275 C293 0.930 . S
H276 C284 0.930 . S
H277 C285 0.930 . S
H278 C309 0.929 . S
H279 C267 0.930 . S
H280 C268 0.929 . S
H281 C310 0.930 . S
H282 C291 0.930 . S
N283 Gd252 2.661 . S
N283 C287 1.350 . S
N283 C288 1.307 . S
C284 H276 0.930 . S
C284 C285 1.355 . S
C284 C286 1.412 . S
C285 H277 0.930 . S
C285 C284 1.355 . S
C285 C288 1.402 . S
C286 C284 1.412 . S
C286 C287 1.417 . S
C286 C310 1.431 . S
C287 N283 1.350 . S
C287 C286 1.417 . S
C287 C290 1.426 . S
C288 H271 0.930 . S
C288 N283 1.307 . S
C288 C285 1.402 . S
N289 Gd252 2.601 . S
N289 C290 1.359 . S
N289 C293 1.334 . S
C290 C287 1.426 . S
C290 N289 1.359 . S
C290 C294 1.413 . S
C291 H282 0.930 . S
C291 C292 1.359 . S
C291 C293 1.394 . S
C292 C291 1.359 . S
C292 C294 1.391 . S
C292 H295 0.929 . S
C293 H275 0.930 . S
C293 N289 1.334 . S
C293 C291 1.394 . S
C294 C290 1.413 . S
C294 C292 1.391 . S
C294 C309 1.437 . S
H295 C292 0.929 . S
O296 Gd252 2.545 . S
O296 C311 1.258 . S
O297 Gd252 2.606 . S
O297 Gd253 2.362 . S
O297 C308 1.284 . S
O298 Gd253 2.324 . S
O298 C318 1.254 . S
O299 Gd252 2.429 . S
O299 C318 1.268 . S
O300 Gd252 2.545 . S
O300 C308 1.250 . S
O301 Gd252 2.412 . S
O301 C311 1.252 . S
O302 Gd253 2.545 . S
O302 C320 1.258 . S
O303 Gd252 2.362 . S
O303 Gd253 2.606 . S
O303 C319 1.284 . S
O304 Gd252 2.324 . S
O304 C327 1.254 . S
O305 Gd253 2.429 . S
O305 C327 1.268 . S
O306 Gd253 2.545 . S
O306 C319 1.250 . S
O307 Gd253 2.412 . S
O307 C320 1.252 . S
C308 O297 1.284 . S
C308 O300 1.250 . S
C309 H278 0.929 . S
C309 C294 1.437 . S
C309 C310 1.317 . S
C310 H281 0.930 . S
C310 C286 1.431 . S
C310 C309 1.317 . S
C311 Gd252 2.828 . S
C311 O296 1.258 . S
C311 O301 1.252 . S
C311 C312 1.497 . S
C312 C311 1.497 . S
C312 C313 1.395 . S
C312 C314 1.380 . S
C313 C312 1.395 . S
C313 C316 1.398 . S
C313 H328 0.930 . S
C314 C312 1.380 . S
C314 C315 1.391 . S
C314 H329 0.930 . S
C315 C314 1.391 . S
C315 C317 1.387 . S
C316 C313 1.398 . S
C316 C317 1.380 . S
C316 H330 0.930 . S
C317 C315 1.387 . S
C317 C316 1.380 . S
C317 H331 0.930 . S
C318 O298 1.254 . S
C318 O299 1.268 . S
C319 O303 1.284 . S
C319 O306 1.250 . S
C320 Gd253 2.828 . S
C320 O302 1.258 . S
C320 O307 1.252 . S
C320 C321 1.497 . S
C321 C320 1.497 . S
C321 C322 1.395 . S
C321 C323 1.380 . S
C322 C321 1.395 . S
C322 C325 1.398 . S
C322 H332 0.930 . S
C323 C321 1.380 . S
C323 C324 1.391 . S
C323 H333 0.930 . S
C324 C323 1.391 . S
C324 C326 1.387 . S
C325 C322 1.398 . S
C325 C326 1.380 . S
C325 H334 0.930 . S
C326 C324 1.387 . S
C326 C325 1.380 . S
C326 H335 0.930 . S
C327 O304 1.254 . S
C327 O305 1.268 . S
H328 C313 0.930 . S
H329 C314 0.930 . S
H330 C316 0.930 . S
H331 C317 0.930 . S
H332 C322 0.930 . S
H333 C323 0.930 . S
H334 C325 0.930 . S
H335 C326 0.930 . S
Gd336 N367 2.661 . S
Gd336 N373 2.601 . S
Gd336 O380 2.545 . S
Gd336 O381 2.606 . S
Gd336 O383 2.429 . S
Gd336 O384 2.545 . S
Gd336 O385 2.412 . S
Gd336 O387 2.362 . S
Gd336 O388 2.324 . S
Gd336 C395 2.828 . S
Gd337 N346 2.661 . S
Gd337 N350 2.601 . S
Gd337 O381 2.362 . S
Gd337 O382 2.324 . S
Gd337 O386 2.545 . S
Gd337 O387 2.606 . S
Gd337 O389 2.429 . S
Gd337 O390 2.545 . S
Gd337 O391 2.412 . S
Gd337 C404 2.828 . S
C338 C341 1.417 . S
C338 C343 1.431 . S
C338 C344 1.412 . S
C339 C342 1.437 . S
C339 C343 1.317 . S
C339 H358 0.929 . S
C340 C341 1.426 . S
C340 C342 1.413 . S
C340 N350 1.359 . S
C341 C338 1.417 . S
C341 C340 1.426 . S
C341 N346 1.350 . S
C342 C339 1.437 . S
C342 C340 1.413 . S
C342 C352 1.391 . S
C343 C338 1.431 . S
C343 C339 1.317 . S
C343 H354 0.930 . S
C344 C338 1.412 . S
C344 C345 1.355 . S
C344 H356 0.930 . S
C345 C344 1.355 . S
C345 C347 1.402 . S
C345 H357 0.930 . S
N346 Gd337 2.661 . S
N346 C341 1.350 . S
N346 C347 1.307 . S
C347 C345 1.402 . S
C347 N346 1.307 . S
C347 H348 0.930 . S
H348 C347 0.930 . S
C349 N350 1.334 . S
C349 C351 1.394 . S
C349 H353 0.930 . S
N350 Gd337 2.601 . S
N350 C340 1.359 . S
N350 C349 1.334 . S
C351 C349 1.394 . S
C351 C352 1.359 . S
C351 H363 0.930 . S
C352 C342 1.391 . S
C352 C351 1.359 . S
C352 H364 0.929 . S
H353 C349 0.930 . S
H354 C343 0.930 . S
H355 C372 0.930 . S
H356 C344 0.930 . S
H357 C345 0.930 . S
H358 C339 0.929 . S
H359 C377 0.930 . S
H360 C368 0.930 . S
H361 C369 0.930 . S
H362 C393 0.929 . S
H363 C351 0.930 . S
H364 C352 0.929 . S
H365 C394 0.930 . S
H366 C375 0.930 . S
N367 Gd336 2.661 . S
N367 C371 1.350 . S
N367 C372 1.307 . S
C368 H360 0.930 . S
C368 C369 1.355 . S
C368 C370 1.412 . S
C369 H361 0.930 . S
C369 C368 1.355 . S
C369 C372 1.402 . S
C370 C368 1.412 . S
C370 C371 1.417 . S
C370 C394 1.431 . S
C371 N367 1.350 . S
C371 C370 1.417 . S
C371 C374 1.426 . S
C372 H355 0.930 . S
C372 N367 1.307 . S
C372 C369 1.402 . S
N373 Gd336 2.601 . S
N373 C374 1.359 . S
N373 C377 1.334 . S
C374 C371 1.426 . S
C374 N373 1.359 . S
C374 C378 1.413 . S
C375 H366 0.930 . S
C375 C376 1.359 . S
C375 C377 1.394 . S
C376 C375 1.359 . S
C376 C378 1.391 . S
C376 H379 0.929 . S
C377 H359 0.930 . S
C377 N373 1.334 . S
C377 C375 1.394 . S
C378 C374 1.413 . S
C378 C376 1.391 . S
C378 C393 1.437 . S
H379 C376 0.929 . S
O380 Gd336 2.545 . S
O380 C395 1.258 . S
O381 Gd336 2.606 . S
O381 Gd337 2.362 . S
O381 C392 1.284 . S
O382 Gd337 2.324 . S
O382 C402 1.254 . S
O383 Gd336 2.429 . S
O383 C402 1.268 . S
O384 Gd336 2.545 . S
O384 C392 1.250 . S
O385 Gd336 2.412 . S
O385 C395 1.252 . S
O386 Gd337 2.545 . S
O386 C404 1.258 . S
O387 Gd336 2.362 . S
O387 Gd337 2.606 . S
O387 C403 1.284 . S
O388 Gd336 2.324 . S
O388 C411 1.254 . S
O389 Gd337 2.429 . S
O389 C411 1.268 . S
O390 Gd337 2.545 . S
O390 C403 1.250 . S
O391 Gd337 2.412 . S
O391 C404 1.252 . S
C392 O381 1.284 . S
C392 O384 1.250 . S
C393 H362 0.929 . S
C393 C378 1.437 . S
C393 C394 1.317 . S
C394 H365 0.930 . S
C394 C370 1.431 . S
C394 C393 1.317 . S
C395 Gd336 2.828 . S
C395 O380 1.258 . S
C395 O385 1.252 . S
C395 C396 1.497 . S
C396 C395 1.497 . S
C396 C397 1.395 . S
C396 C398 1.380 . S
C397 C396 1.395 . S
C397 C400 1.398 . S
C397 H412 0.930 . S
C398 C396 1.380 . S
C398 C399 1.391 . S
C398 H413 0.930 . S
C399 C398 1.391 . S
C399 C401 1.387 . S
C400 C397 1.398 . S
C400 C401 1.380 . S
C400 H414 0.930 . S
C401 C399 1.387 . S
C401 C400 1.380 . S
C401 H415 0.930 . S
C402 O382 1.254 . S
C402 O383 1.268 . S
C403 O387 1.284 . S
C403 O390 1.250 . S
C404 Gd337 2.828 . S
C404 O386 1.258 . S
C404 O391 1.252 . S
C404 C405 1.497 . S
C405 C404 1.497 . S
C405 C406 1.395 . S
C405 C407 1.380 . S
C406 C405 1.395 . S
C406 C409 1.398 . S
C406 H416 0.930 . S
C407 C405 1.380 . S
C407 C408 1.391 . S
C407 H417 0.930 . S
C408 C407 1.391 . S
C408 C410 1.387 . S
C409 C406 1.398 . S
C409 C410 1.380 . S
C409 H418 0.930 . S
C410 C408 1.387 . S
C410 C409 1.380 . S
C410 H419 0.930 . S
C411 O388 1.254 . S
C411 O389 1.268 . S
H412 C397 0.930 . S
H413 C398 0.930 . S
H414 C400 0.930 . S
H415 C401 0.930 . S
H416 C406 0.930 . S
H417 C407 0.930 . S
H418 C409 0.930 . S
H419 C410 0.930 . S
Gd420 N451 2.661 . S
Gd420 N457 2.601 . S
Gd420 O464 2.545 . S
Gd420 O465 2.606 . S
Gd420 O467 2.429 . S
Gd420 O468 2.545 . S
Gd420 O469 2.412 . S
Gd420 O471 2.362 . S
Gd420 O472 2.324 . S
Gd420 C479 2.828 . S
Gd421 N430 2.661 . S
Gd421 N434 2.601 . S
Gd421 O465 2.362 . S
Gd421 O466 2.324 . S
Gd421 O470 2.545 . S
Gd421 O471 2.606 . S
Gd421 O473 2.429 . S
Gd421 O474 2.545 . S
Gd421 O475 2.412 . S
Gd421 C488 2.828 1_556 S
C422 C425 1.417 . S
C422 C427 1.431 . S
C422 C428 1.412 . S
C423 C426 1.437 . S
C423 C427 1.317 . S
C423 H442 0.929 . S
C424 C425 1.426 . S
C424 C426 1.413 . S
C424 N434 1.359 . S
C425 C422 1.417 . S
C425 C424 1.426 . S
C425 N430 1.350 . S
C426 C423 1.437 . S
C426 C424 1.413 . S
C426 C436 1.391 . S
C427 C422 1.431 . S
C427 C423 1.317 . S
C427 H438 0.930 . S
C428 C422 1.412 . S
C428 C429 1.355 . S
C428 H440 0.930 . S
C429 C428 1.355 . S
C429 C431 1.402 . S
C429 H441 0.930 . S
N430 Gd421 2.661 . S
N430 C425 1.350 . S
N430 C431 1.307 . S
C431 C429 1.402 . S
C431 N430 1.307 . S
C431 H432 0.930 . S
H432 C431 0.930 . S
C433 N434 1.334 . S
C433 C435 1.394 . S
C433 H437 0.930 . S
N434 Gd421 2.601 . S
N434 C424 1.359 . S
N434 C433 1.334 . S
C435 C433 1.394 . S
C435 C436 1.359 . S
C435 H447 0.930 . S
C436 C426 1.391 . S
C436 C435 1.359 . S
C436 H448 0.929 . S
H437 C433 0.930 . S
H438 C427 0.930 . S
H439 C456 0.930 . S
H440 C428 0.930 . S
H441 C429 0.930 . S
H442 C423 0.929 . S
H443 C461 0.930 . S
H444 C452 0.930 . S
H445 C453 0.930 . S
H446 C477 0.929 . S
H447 C435 0.930 . S
H448 C436 0.929 . S
H449 C478 0.930 . S
H450 C459 0.930 . S
N451 Gd420 2.661 . S
N451 C455 1.350 . S
N451 C456 1.307 . S
C452 H444 0.930 . S
C452 C453 1.355 . S
C452 C454 1.412 . S
C453 H445 0.930 . S
C453 C452 1.355 . S
C453 C456 1.402 . S
C454 C452 1.412 . S
C454 C455 1.417 . S
C454 C478 1.431 . S
C455 N451 1.350 . S
C455 C454 1.417 . S
C455 C458 1.426 . S
C456 H439 0.930 . S
C456 N451 1.307 . S
C456 C453 1.402 . S
N457 Gd420 2.601 . S
N457 C458 1.359 . S
N457 C461 1.334 . S
C458 C455 1.426 . S
C458 N457 1.359 . S
C458 C462 1.413 . S
C459 H450 0.930 . S
C459 C460 1.359 . S
C459 C461 1.394 . S
C460 C459 1.359 . S
C460 C462 1.391 . S
C460 H463 0.929 . S
C461 H443 0.930 . S
C461 N457 1.334 . S
C461 C459 1.394 . S
C462 C458 1.413 . S
C462 C460 1.391 . S
C462 C477 1.437 . S
H463 C460 0.929 . S
O464 Gd420 2.545 . S
O464 C479 1.258 . S
O465 Gd420 2.606 . S
O465 Gd421 2.362 . S
O465 C476 1.284 . S
O466 Gd421 2.324 . S
O466 C486 1.254 . S
O467 Gd420 2.429 . S
O467 C486 1.268 . S
O468 Gd420 2.545 . S
O468 C476 1.250 . S
O469 Gd420 2.412 . S
O469 C479 1.252 . S
O470 Gd421 2.545 . S
O470 C488 1.258 1_556 S
O471 Gd420 2.362 . S
O471 Gd421 2.606 . S
O471 C487 1.284 . S
O472 Gd420 2.324 . S
O472 C495 1.254 . S
O473 Gd421 2.429 . S
O473 C495 1.268 . S
O474 Gd421 2.545 . S
O474 C487 1.250 . S
O475 Gd421 2.412 . S
O475 C488 1.252 1_556 S
C476 O465 1.284 . S
C476 O468 1.250 . S
C477 H446 0.929 . S
C477 C462 1.437 . S
C477 C478 1.317 . S
C478 H449 0.930 . S
C478 C454 1.431 . S
C478 C477 1.317 . S
C479 Gd420 2.828 . S
C479 O464 1.258 . S
C479 O469 1.252 . S
C479 C480 1.497 . S
C480 C479 1.497 . S
C480 C481 1.395 . S
C480 C482 1.380 . S
C481 C480 1.395 . S
C481 C484 1.398 . S
C481 H496 0.930 . S
C482 C480 1.380 . S
C482 C483 1.391 . S
C482 H497 0.930 . S
C483 C482 1.391 . S
C483 C485 1.387 . S
C484 C481 1.398 . S
C484 C485 1.380 . S
C484 H498 0.930 . S
C485 C483 1.387 . S
C485 C484 1.380 . S
C485 H499 0.930 . S
C486 O466 1.254 . S
C486 O467 1.268 . S
C487 O471 1.284 . S
C487 O474 1.250 . S
C488 Gd421 2.828 1_554 S
C488 O470 1.258 1_554 S
C488 O475 1.252 1_554 S
C488 C489 1.497 . S
C489 C488 1.497 . S
C489 C490 1.395 . S
C489 C491 1.380 . S
C490 C489 1.395 . S
C490 C493 1.398 . S
C490 H500 0.930 . S
C491 C489 1.380 . S
C491 C492 1.391 . S
C491 H501 0.930 . S
C492 C491 1.391 . S
C492 C494 1.387 . S
C493 C490 1.398 . S
C493 C494 1.380 . S
C493 H502 0.930 . S
C494 C492 1.387 . S
C494 C493 1.380 . S
C494 H503 0.930 . S
C495 O472 1.254 . S
C495 O473 1.268 . S
H496 C481 0.930 . S
H497 C482 0.930 . S
H498 C484 0.930 . S
H499 C485 0.930 . S
H500 C490 0.930 . S
H501 C491 0.930 . S
H502 C493 0.930 . S
H503 C494 0.930 . S
Gd504 N535 2.661 . S
Gd504 N541 2.601 . S
Gd504 O548 2.545 . S
Gd504 O549 2.606 . S
Gd504 O551 2.429 . S
Gd504 O552 2.545 . S
Gd504 O553 2.412 . S
Gd504 O555 2.362 . S
Gd504 O556 2.324 . S
Gd504 C563 2.828 . S
Gd505 N514 2.661 . S
Gd505 N518 2.601 . S
Gd505 O549 2.362 . S
Gd505 O550 2.324 . S
Gd505 O554 2.545 . S
Gd505 O555 2.606 . S
Gd505 O557 2.429 . S
Gd505 O558 2.545 . S
Gd505 O559 2.412 . S
Gd505 C572 2.828 . S
C506 C509 1.417 . S
C506 C511 1.431 . S
C506 C512 1.412 . S
C507 C510 1.437 . S
C507 C511 1.317 . S
C507 H526 0.929 . S
C508 C509 1.426 . S
C508 C510 1.413 . S
C508 N518 1.359 . S
C509 C506 1.417 . S
C509 C508 1.426 . S
C509 N514 1.350 . S
C510 C507 1.437 . S
C510 C508 1.413 . S
C510 C520 1.391 . S
C511 C506 1.431 . S
C511 C507 1.317 . S
C511 H522 0.930 . S
C512 C506 1.412 . S
C512 C513 1.355 . S
C512 H524 0.930 . S
C513 C512 1.355 . S
C513 C515 1.402 . S
C513 H525 0.930 . S
N514 Gd505 2.661 . S
N514 C509 1.350 . S
N514 C515 1.307 . S
C515 C513 1.402 . S
C515 N514 1.307 . S
C515 H516 0.930 . S
H516 C515 0.930 . S
C517 N518 1.334 . S
C517 C519 1.394 . S
C517 H521 0.930 . S
N518 Gd505 2.601 . S
N518 C508 1.359 . S
N518 C517 1.334 . S
C519 C517 1.394 . S
C519 C520 1.359 . S
C519 H531 0.930 . S
C520 C510 1.391 . S
C520 C519 1.359 . S
C520 H532 0.929 . S
H521 C517 0.930 . S
H522 C511 0.930 . S
H523 C540 0.930 . S
H524 C512 0.930 . S
H525 C513 0.930 . S
H526 C507 0.929 . S
H527 C545 0.930 . S
H528 C536 0.930 . S
H529 C537 0.930 . S
H530 C561 0.929 . S
H531 C519 0.930 . S
H532 C520 0.929 . S
H533 C562 0.930 . S
H534 C543 0.930 . S
N535 Gd504 2.661 . S
N535 C539 1.350 . S
N535 C540 1.307 . S
C536 H528 0.930 . S
C536 C537 1.355 . S
C536 C538 1.412 . S
C537 H529 0.930 . S
C537 C536 1.355 . S
C537 C540 1.402 . S
C538 C536 1.412 . S
C538 C539 1.417 . S
C538 C562 1.431 . S
C539 N535 1.350 . S
C539 C538 1.417 . S
C539 C542 1.426 . S
C540 H523 0.930 . S
C540 N535 1.307 . S
C540 C537 1.402 . S
N541 Gd504 2.601 . S
N541 C542 1.359 . S
N541 C545 1.334 . S
C542 C539 1.426 . S
C542 N541 1.359 . S
C542 C546 1.413 . S
C543 H534 0.930 . S
C543 C544 1.359 . S
C543 C545 1.394 . S
C544 C543 1.359 . S
C544 C546 1.391 . S
C544 H547 0.929 . S
C545 H527 0.930 . S
C545 N541 1.334 . S
C545 C543 1.394 . S
C546 C542 1.413 . S
C546 C544 1.391 . S
C546 C561 1.437 . S
H547 C544 0.929 . S
O548 Gd504 2.545 . S
O548 C563 1.258 . S
O549 Gd504 2.606 . S
O549 Gd505 2.362 . S
O549 C560 1.284 . S
O550 Gd505 2.324 . S
O550 C570 1.254 . S
O551 Gd504 2.429 . S
O551 C570 1.268 . S
O552 Gd504 2.545 . S
O552 C560 1.250 . S
O553 Gd504 2.412 . S
O553 C563 1.252 . S
O554 Gd505 2.545 . S
O554 C572 1.258 . S
O555 Gd504 2.362 . S
O555 Gd505 2.606 . S
O555 C571 1.284 . S
O556 Gd504 2.324 . S
O556 C579 1.254 . S
O557 Gd505 2.429 . S
O557 C579 1.268 . S
O558 Gd505 2.545 . S
O558 C571 1.250 . S
O559 Gd505 2.412 . S
O559 C572 1.252 . S
C560 O549 1.284 . S
C560 O552 1.250 . S
C561 H530 0.929 . S
C561 C546 1.437 . S
C561 C562 1.317 . S
C562 H533 0.930 . S
C562 C538 1.431 . S
C562 C561 1.317 . S
C563 Gd504 2.828 . S
C563 O548 1.258 . S
C563 O553 1.252 . S
C563 C564 1.497 . S
C564 C563 1.497 . S
C564 C565 1.395 . S
C564 C566 1.380 . S
C565 C564 1.395 . S
C565 C568 1.398 . S
C565 H580 0.930 . S
C566 C564 1.380 . S
C566 C567 1.391 . S
C566 H581 0.930 . S
C567 C566 1.391 . S
C567 C569 1.387 . S
C568 C565 1.398 . S
C568 C569 1.380 . S
C568 H582 0.930 . S
C569 C567 1.387 . S
C569 C568 1.380 . S
C569 H583 0.930 . S
C570 O550 1.254 . S
C570 O551 1.268 . S
C571 O555 1.284 . S
C571 O558 1.250 . S
C572 Gd505 2.828 . S
C572 O554 1.258 . S
C572 O559 1.252 . S
C572 C573 1.497 . S
C573 C572 1.497 . S
C573 C574 1.395 . S
C573 C575 1.380 . S
C574 C573 1.395 . S
C574 C577 1.398 . S
C574 H584 0.930 . S
C575 C573 1.380 . S
C575 C576 1.391 . S
C575 H585 0.930 . S
C576 C575 1.391 . S
C576 C578 1.387 . S
C577 C574 1.398 . S
C577 C578 1.380 . S
C577 H586 0.930 . S
C578 C576 1.387 . S
C578 C577 1.380 . S
C578 H587 0.930 . S
C579 O556 1.254 . S
C579 O557 1.268 . S
H580 C565 0.930 . S
H581 C566 0.930 . S
H582 C568 0.930 . S
H583 C569 0.930 . S
H584 C574 0.930 . S
H585 C575 0.930 . S
H586 C577 0.930 . S
H587 C578 0.930 . S
Gd588 N619 2.661 . S
Gd588 N625 2.601 . S
Gd588 O632 2.545 . S
Gd588 O633 2.606 . S
Gd588 O635 2.429 . S
Gd588 O636 2.545 . S
Gd588 O637 2.412 . S
Gd588 O639 2.362 . S
Gd588 O640 2.324 . S
Gd588 C647 2.828 . S
Gd589 N598 2.661 . S
Gd589 N602 2.601 . S
Gd589 O633 2.362 . S
Gd589 O634 2.324 . S
Gd589 O638 2.545 . S
Gd589 O639 2.606 . S
Gd589 O641 2.429 . S
Gd589 O642 2.545 . S
Gd589 O643 2.412 . S
Gd589 C656 2.828 . S
C590 C593 1.417 . S
C590 C595 1.431 . S
C590 C596 1.412 . S
C591 C594 1.437 . S
C591 C595 1.317 . S
C591 H610 0.929 . S
C592 C593 1.426 . S
C592 C594 1.413 . S
C592 N602 1.359 . S
C593 C590 1.417 . S
C593 C592 1.426 . S
C593 N598 1.350 . S
C594 C591 1.437 . S
C594 C592 1.413 . S
C594 C604 1.391 . S
C595 C590 1.431 . S
C595 C591 1.317 . S
C595 H606 0.930 . S
C596 C590 1.412 . S
C596 C597 1.355 . S
C596 H608 0.930 . S
C597 C596 1.355 . S
C597 C599 1.402 . S
C597 H609 0.930 . S
N598 Gd589 2.661 . S
N598 C593 1.350 . S
N598 C599 1.307 . S
C599 C597 1.402 . S
C599 N598 1.307 . S
C599 H600 0.930 . S
H600 C599 0.930 . S
C601 N602 1.334 . S
C601 C603 1.394 . S
C601 H605 0.930 . S
N602 Gd589 2.601 . S
N602 C592 1.359 . S
N602 C601 1.334 . S
C603 C601 1.394 . S
C603 C604 1.359 . S
C603 H615 0.930 . S
C604 C594 1.391 . S
C604 C603 1.359 . S
C604 H616 0.929 . S
H605 C601 0.930 . S
H606 C595 0.930 . S
H607 C624 0.930 . S
H608 C596 0.930 . S
H609 C597 0.930 . S
H610 C591 0.929 . S
H611 C629 0.930 . S
H612 C620 0.930 . S
H613 C621 0.930 . S
H614 C645 0.929 . S
H615 C603 0.930 . S
H616 C604 0.929 . S
H617 C646 0.930 . S
H618 C627 0.930 . S
N619 Gd588 2.661 . S
N619 C623 1.350 . S
N619 C624 1.307 . S
C620 H612 0.930 . S
C620 C621 1.355 . S
C620 C622 1.412 . S
C621 H613 0.930 . S
C621 C620 1.355 . S
C621 C624 1.402 . S
C622 C620 1.412 . S
C622 C623 1.417 . S
C622 C646 1.431 . S
C623 N619 1.350 . S
C623 C622 1.417 . S
C623 C626 1.426 . S
C624 H607 0.930 . S
C624 N619 1.307 . S
C624 C621 1.402 . S
N625 Gd588 2.601 . S
N625 C626 1.359 . S
N625 C629 1.334 . S
C626 C623 1.426 . S
C626 N625 1.359 . S
C626 C630 1.413 . S
C627 H618 0.930 . S
C627 C628 1.359 . S
C627 C629 1.394 . S
C628 C627 1.359 . S
C628 C630 1.391 . S
C628 H631 0.929 . S
C629 H611 0.930 . S
C629 N625 1.334 . S
C629 C627 1.394 . S
C630 C626 1.413 . S
C630 C628 1.391 . S
C630 C645 1.437 . S
H631 C628 0.929 . S
O632 Gd588 2.545 . S
O632 C647 1.258 . S
O633 Gd588 2.606 . S
O633 Gd589 2.362 . S
O633 C644 1.284 . S
O634 Gd589 2.324 . S
O634 C654 1.254 . S
O635 Gd588 2.429 . S
O635 C654 1.268 . S
O636 Gd588 2.545 . S
O636 C644 1.250 . S
O637 Gd588 2.412 . S
O637 C647 1.252 . S
O638 Gd589 2.545 . S
O638 C656 1.258 . S
O639 Gd588 2.362 . S
O639 Gd589 2.606 . S
O639 C655 1.284 . S
O640 Gd588 2.324 . S
O640 C663 1.254 . S
O641 Gd589 2.429 . S
O641 C663 1.268 . S
O642 Gd589 2.545 . S
O642 C655 1.250 . S
O643 Gd589 2.412 . S
O643 C656 1.252 . S
C644 O633 1.284 . S
C644 O636 1.250 . S
C645 H614 0.929 . S
C645 C630 1.437 . S
C645 C646 1.317 . S
C646 H617 0.930 . S
C646 C622 1.431 . S
C646 C645 1.317 . S
C647 Gd588 2.828 . S
C647 O632 1.258 . S
C647 O637 1.252 . S
C647 C648 1.497 . S
C648 C647 1.497 . S
C648 C649 1.395 . S
C648 C650 1.380 . S
C649 C648 1.395 . S
C649 C652 1.398 . S
C649 H664 0.930 . S
C650 C648 1.380 . S
C650 C651 1.391 . S
C650 H665 0.930 . S
C651 C650 1.391 . S
C651 C653 1.387 . S
C652 C649 1.398 . S
C652 C653 1.380 . S
C652 H666 0.930 . S
C653 C651 1.387 . S
C653 C652 1.380 . S
C653 H667 0.930 . S
C654 O634 1.254 . S
C654 O635 1.268 . S
C655 O639 1.284 . S
C655 O642 1.250 . S
C656 Gd589 2.828 . S
C656 O638 1.258 . S
C656 O643 1.252 . S
C656 C657 1.497 . S
C657 C656 1.497 . S
C657 C658 1.395 . S
C657 C659 1.380 . S
C658 C657 1.395 . S
C658 C661 1.398 . S
C658 H668 0.930 . S
C659 C657 1.380 . S
C659 C660 1.391 . S
C659 H669 0.930 . S
C660 C659 1.391 . S
C660 C662 1.387 . S
C661 C658 1.398 . S
C661 C662 1.380 . S
C661 H670 0.930 . S
C662 C660 1.387 . S
C662 C661 1.380 . S
C662 H671 0.930 . S
C663 O640 1.254 . S
C663 O641 1.268 . S
H664 C649 0.930 . S
H665 C650 0.930 . S
H666 C652 0.930 . S
H667 C653 0.930 . S
H668 C658 0.930 . S
H669 C659 0.930 . S
H670 C661 0.930 . S
H671 C662 0.930 . S
Gd672 N703 2.661 . S
Gd672 N709 2.601 . S
Gd672 O716 2.545 . S
Gd672 O717 2.606 . S
Gd672 O719 2.429 . S
Gd672 O720 2.545 . S
Gd672 O721 2.412 . S
Gd672 O723 2.362 . S
Gd672 O724 2.324 . S
Gd672 C731 2.828 . S
Gd673 N682 2.661 . S
Gd673 N686 2.601 . S
Gd673 O717 2.362 . S
Gd673 O718 2.324 . S
Gd673 O722 2.545 . S
Gd673 O723 2.606 . S
Gd673 O725 2.429 . S
Gd673 O726 2.545 . S
Gd673 O727 2.412 . S
Gd673 C740 2.828 1_554 S
C674 C677 1.417 . S
C674 C679 1.431 . S
C674 C680 1.412 . S
C675 C678 1.437 . S
C675 C679 1.317 . S
C675 H694 0.929 . S
C676 C677 1.426 . S
C676 C678 1.413 . S
C676 N686 1.359 . S
C677 C674 1.417 . S
C677 C676 1.426 . S
C677 N682 1.350 . S
C678 C675 1.437 . S
C678 C676 1.413 . S
C678 C688 1.391 . S
C679 C674 1.431 . S
C679 C675 1.317 . S
C679 H690 0.930 . S
C680 C674 1.412 . S
C680 C681 1.355 . S
C680 H692 0.930 . S
C681 C680 1.355 . S
C681 C683 1.402 . S
C681 H693 0.930 . S
N682 Gd673 2.661 . S
N682 C677 1.350 . S
N682 C683 1.307 . S
C683 C681 1.402 . S
C683 N682 1.307 . S
C683 H684 0.930 . S
H684 C683 0.930 . S
C685 N686 1.334 . S
C685 C687 1.394 . S
C685 H689 0.930 . S
N686 Gd673 2.601 . S
N686 C676 1.359 . S
N686 C685 1.334 . S
C687 C685 1.394 . S
C687 C688 1.359 . S
C687 H699 0.930 . S
C688 C678 1.391 . S
C688 C687 1.359 . S
C688 H700 0.929 . S
H689 C685 0.930 . S
H690 C679 0.930 . S
H691 C708 0.930 . S
H692 C680 0.930 . S
H693 C681 0.930 . S
H694 C675 0.929 . S
H695 C713 0.930 . S
H696 C704 0.930 . S
H697 C705 0.930 . S
H698 C729 0.929 . S
H699 C687 0.930 . S
H700 C688 0.929 . S
H701 C730 0.930 . S
H702 C711 0.930 . S
N703 Gd672 2.661 . S
N703 C707 1.350 . S
N703 C708 1.307 . S
C704 H696 0.930 . S
C704 C705 1.355 . S
C704 C706 1.412 . S
C705 H697 0.930 . S
C705 C704 1.355 . S
C705 C708 1.402 . S
C706 C704 1.412 . S
C706 C707 1.417 . S
C706 C730 1.431 . S
C707 N703 1.350 . S
C707 C706 1.417 . S
C707 C710 1.426 . S
C708 H691 0.930 . S
C708 N703 1.307 . S
C708 C705 1.402 . S
N709 Gd672 2.601 . S
N709 C710 1.359 . S
N709 C713 1.334 . S
C710 C707 1.426 . S
C710 N709 1.359 . S
C710 C714 1.413 . S
C711 H702 0.930 . S
C711 C712 1.359 . S
C711 C713 1.394 . S
C712 C711 1.359 . S
C712 C714 1.391 . S
C712 H715 0.929 . S
C713 H695 0.930 . S
C713 N709 1.334 . S
C713 C711 1.394 . S
C714 C710 1.413 . S
C714 C712 1.391 . S
C714 C729 1.437 . S
H715 C712 0.929 . S
O716 Gd672 2.545 . S
O716 C731 1.258 . S
O717 Gd672 2.606 . S
O717 Gd673 2.362 . S
O717 C728 1.284 . S
O718 Gd673 2.324 . S
O718 C738 1.254 . S
O719 Gd672 2.429 . S
O719 C738 1.268 . S
O720 Gd672 2.545 . S
O720 C728 1.250 . S
O721 Gd672 2.412 . S
O721 C731 1.252 . S
O722 Gd673 2.545 . S
O722 C740 1.258 1_554 S
O723 Gd672 2.362 . S
O723 Gd673 2.606 . S
O723 C739 1.284 . S
O724 Gd672 2.324 . S
O724 C747 1.254 . S
O725 Gd673 2.429 . S
O725 C747 1.268 . S
O726 Gd673 2.545 . S
O726 C739 1.250 . S
O727 Gd673 2.412 . S
O727 C740 1.252 1_554 S
C728 O717 1.284 . S
C728 O720 1.250 . S
C729 H698 0.929 . S
C729 C714 1.437 . S
C729 C730 1.317 . S
C730 H701 0.930 . S
C730 C706 1.431 . S
C730 C729 1.317 . S
C731 Gd672 2.828 . S
C731 O716 1.258 . S
C731 O721 1.252 . S
C731 C732 1.497 . S
C732 C731 1.497 . S
C732 C733 1.395 . S
C732 C734 1.380 . S
C733 C732 1.395 . S
C733 C736 1.398 . S
C733 H748 0.930 . S
C734 C732 1.380 . S
C734 C735 1.391 . S
C734 H749 0.930 . S
C735 C734 1.391 . S
C735 C737 1.387 . S
C736 C733 1.398 . S
C736 C737 1.380 . S
C736 H750 0.930 . S
C737 C735 1.387 . S
C737 C736 1.380 . S
C737 H751 0.930 . S
C738 O718 1.254 . S
C738 O719 1.268 . S
C739 O723 1.284 . S
C739 O726 1.250 . S
C740 Gd673 2.828 1_556 S
C740 O722 1.258 1_556 S
C740 O727 1.252 1_556 S
C740 C741 1.497 . S
C741 C740 1.497 . S
C741 C742 1.395 . S
C741 C743 1.380 . S
C742 C741 1.395 . S
C742 C745 1.398 . S
C742 H752 0.930 . S
C743 C741 1.380 . S
C743 C744 1.391 . S
C743 H753 0.930 . S
C744 C743 1.391 . S
C744 C746 1.387 . S
C745 C742 1.398 . S
C745 C746 1.380 . S
C745 H754 0.930 . S
C746 C744 1.387 . S
C746 C745 1.380 . S
C746 H755 0.930 . S
C747 O724 1.254 . S
C747 O725 1.268 . S
H748 C733 0.930 . S
H749 C734 0.930 . S
H750 C736 0.930 . S
H751 C737 0.930 . S
H752 C742 0.930 . S
H753 C743 0.930 . S
H754 C745 0.930 . S
H755 C746 0.930 . S
Gd756 N787 2.661 . S
Gd756 N793 2.601 . S
Gd756 O800 2.545 . S
Gd756 O801 2.606 . S
Gd756 O803 2.429 . S
Gd756 O804 2.545 . S
Gd756 O805 2.412 . S
Gd756 O807 2.362 . S
Gd756 O808 2.324 . S
Gd756 C815 2.828 . S
Gd757 N766 2.661 . S
Gd757 N770 2.601 . S
Gd757 O801 2.362 . S
Gd757 O802 2.324 . S
Gd757 O806 2.545 . S
Gd757 O807 2.606 . S
Gd757 O809 2.429 . S
Gd757 O810 2.545 . S
Gd757 O811 2.412 . S
Gd757 C824 2.828 . S
C758 C761 1.417 . S
C758 C763 1.431 . S
C758 C764 1.412 . S
C759 C762 1.437 . S
C759 C763 1.317 . S
C759 H778 0.929 . S
C760 C761 1.426 . S
C760 C762 1.413 . S
C760 N770 1.359 . S
C761 C758 1.417 . S
C761 C760 1.426 . S
C761 N766 1.350 . S
C762 C759 1.437 . S
C762 C760 1.413 . S
C762 C772 1.391 . S
C763 C758 1.431 . S
C763 C759 1.317 . S
C763 H774 0.930 . S
C764 C758 1.412 . S
C764 C765 1.355 . S
C764 H776 0.930 . S
C765 C764 1.355 . S
C765 C767 1.402 . S
C765 H777 0.930 . S
N766 Gd757 2.661 . S
N766 C761 1.350 . S
N766 C767 1.307 . S
C767 C765 1.402 . S
C767 N766 1.307 . S
C767 H768 0.930 . S
H768 C767 0.930 . S
C769 N770 1.334 . S
C769 C771 1.394 . S
C769 H773 0.930 . S
N770 Gd757 2.601 . S
N770 C760 1.359 . S
N770 C769 1.334 . S
C771 C769 1.394 . S
C771 C772 1.359 . S
C771 H783 0.930 . S
C772 C762 1.391 . S
C772 C771 1.359 . S
C772 H784 0.929 . S
H773 C769 0.930 . S
H774 C763 0.930 . S
H775 C792 0.930 . S
H776 C764 0.930 . S
H777 C765 0.930 . S
H778 C759 0.929 . S
H779 C797 0.930 . S
H780 C788 0.930 . S
H781 C789 0.930 . S
H782 C813 0.929 . S
H783 C771 0.930 . S
H784 C772 0.929 . S
H785 C814 0.930 . S
H786 C795 0.930 . S
N787 Gd756 2.661 . S
N787 C791 1.350 . S
N787 C792 1.307 . S
C788 H780 0.930 . S
C788 C789 1.355 . S
C788 C790 1.412 . S
C789 H781 0.930 . S
C789 C788 1.355 . S
C789 C792 1.402 . S
C790 C788 1.412 . S
C790 C791 1.417 . S
C790 C814 1.431 . S
C791 N787 1.350 . S
C791 C790 1.417 . S
C791 C794 1.426 . S
C792 H775 0.930 . S
C792 N787 1.307 . S
C792 C789 1.402 . S
N793 Gd756 2.601 . S
N793 C794 1.359 . S
N793 C797 1.334 . S
C794 C791 1.426 . S
C794 N793 1.359 . S
C794 C798 1.413 . S
C795 H786 0.930 . S
C795 C796 1.359 . S
C795 C797 1.394 . S
C796 C795 1.359 . S
C796 C798 1.391 . S
C796 H799 0.929 . S
C797 H779 0.930 . S
C797 N793 1.334 . S
C797 C795 1.394 . S
C798 C794 1.413 . S
C798 C796 1.391 . S
C798 C813 1.437 . S
H799 C796 0.929 . S
O800 Gd756 2.545 . S
O800 C815 1.258 . S
O801 Gd756 2.606 . S
O801 Gd757 2.362 . S
O801 C812 1.284 . S
O802 Gd757 2.324 . S
O802 C822 1.254 . S
O803 Gd756 2.429 . S
O803 C822 1.268 . S
O804 Gd756 2.545 . S
O804 C812 1.250 . S
O805 Gd756 2.412 . S
O805 C815 1.252 . S
O806 Gd757 2.545 . S
O806 C824 1.258 . S
O807 Gd756 2.362 . S
O807 Gd757 2.606 . S
O807 C823 1.284 . S
O808 Gd756 2.324 . S
O808 C831 1.254 . S
O809 Gd757 2.429 . S
O809 C831 1.268 . S
O810 Gd757 2.545 . S
O810 C823 1.250 . S
O811 Gd757 2.412 . S
O811 C824 1.252 . S
C812 O801 1.284 . S
C812 O804 1.250 . S
C813 H782 0.929 . S
C813 C798 1.437 . S
C813 C814 1.317 . S
C814 H785 0.930 . S
C814 C790 1.431 . S
C814 C813 1.317 . S
C815 Gd756 2.828 . S
C815 O800 1.258 . S
C815 O805 1.252 . S
C815 C816 1.497 . S
C816 C815 1.497 . S
C816 C817 1.395 . S
C816 C818 1.380 . S
C817 C816 1.395 . S
C817 C820 1.398 . S
C817 H832 0.930 . S
C818 C816 1.380 . S
C818 C819 1.391 . S
C818 H833 0.930 . S
C819 C818 1.391 . S
C819 C821 1.387 . S
C820 C817 1.398 . S
C820 C821 1.380 . S
C820 H834 0.930 . S
C821 C819 1.387 . S
C821 C820 1.380 . S
C821 H835 0.930 . S
C822 O802 1.254 . S
C822 O803 1.268 . S
C823 O807 1.284 . S
C823 O810 1.250 . S
C824 Gd757 2.828 . S
C824 O806 1.258 . S
C824 O811 1.252 . S
C824 C825 1.497 . S
C825 C824 1.497 . S
C825 C826 1.395 . S
C825 C827 1.380 . S
C826 C825 1.395 . S
C826 C829 1.398 . S
C826 H836 0.930 . S
C827 C825 1.380 . S
C827 C828 1.391 . S
C827 H837 0.930 . S
C828 C827 1.391 . S
C828 C830 1.387 . S
C829 C826 1.398 . S
C829 C830 1.380 . S
C829 H838 0.930 . S
C830 C828 1.387 . S
C830 C829 1.380 . S
C830 H839 0.930 . S
C831 O808 1.254 . S
C831 O809 1.268 . S
H832 C817 0.930 . S
H833 C818 0.930 . S
H834 C820 0.930 . S
H835 C821 0.930 . S
H836 C826 0.930 . S
H837 C827 0.930 . S
H838 C829 0.930 . S
H839 C830 0.930 . S
Gd840 N871 2.661 . S
Gd840 N877 2.601 . S
Gd840 O884 2.545 . S
Gd840 O885 2.606 . S
Gd840 O887 2.429 . S
Gd840 O888 2.545 . S
Gd840 O889 2.412 . S
Gd840 O891 2.362 . S
Gd840 O892 2.324 . S
Gd840 C899 2.828 . S
Gd841 N850 2.661 . S
Gd841 N854 2.601 . S
Gd841 O885 2.362 . S
Gd841 O886 2.324 . S
Gd841 O890 2.545 . S
Gd841 O891 2.606 . S
Gd841 O893 2.429 . S
Gd841 O894 2.545 . S
Gd841 O895 2.412 . S
Gd841 C908 2.828 . S
C842 C845 1.417 . S
C842 C847 1.431 . S
C842 C848 1.412 . S
C843 C846 1.437 . S
C843 C847 1.317 . S
C843 H862 0.929 . S
C844 C845 1.426 . S
C844 C846 1.413 . S
C844 N854 1.359 . S
C845 C842 1.417 . S
C845 C844 1.426 . S
C845 N850 1.350 . S
C846 C843 1.437 . S
C846 C844 1.413 . S
C846 C856 1.391 . S
C847 C842 1.431 . S
C847 C843 1.317 . S
C847 H858 0.930 . S
C848 C842 1.412 . S
C848 C849 1.355 . S
C848 H860 0.930 . S
C849 C848 1.355 . S
C849 C851 1.402 . S
C849 H861 0.930 . S
N850 Gd841 2.661 . S
N850 C845 1.350 . S
N850 C851 1.307 . S
C851 C849 1.402 . S
C851 N850 1.307 . S
C851 H852 0.930 . S
H852 C851 0.930 . S
C853 N854 1.334 . S
C853 C855 1.394 . S
C853 H857 0.930 . S
N854 Gd841 2.601 . S
N854 C844 1.359 . S
N854 C853 1.334 . S
C855 C853 1.394 . S
C855 C856 1.359 . S
C855 H867 0.930 . S
C856 C846 1.391 . S
C856 C855 1.359 . S
C856 H868 0.929 . S
H857 C853 0.930 . S
H858 C847 0.930 . S
H859 C876 0.930 . S
H860 C848 0.930 . S
H861 C849 0.930 . S
H862 C843 0.929 . S
H863 C881 0.930 . S
H864 C872 0.930 . S
H865 C873 0.930 . S
H866 C897 0.929 . S
H867 C855 0.930 . S
H868 C856 0.929 . S
H869 C898 0.930 . S
H870 C879 0.930 . S
N871 Gd840 2.661 . S
N871 C875 1.350 . S
N871 C876 1.307 . S
C872 H864 0.930 . S
C872 C873 1.355 . S
C872 C874 1.412 . S
C873 H865 0.930 . S
C873 C872 1.355 . S
C873 C876 1.402 . S
C874 C872 1.412 . S
C874 C875 1.417 . S
C874 C898 1.431 . S
C875 N871 1.350 . S
C875 C874 1.417 . S
C875 C878 1.426 . S
C876 H859 0.930 . S
C876 N871 1.307 . S
C876 C873 1.402 . S
N877 Gd840 2.601 . S
N877 C878 1.359 . S
N877 C881 1.334 . S
C878 C875 1.426 . S
C878 N877 1.359 . S
C878 C882 1.413 . S
C879 H870 0.930 . S
C879 C880 1.359 . S
C879 C881 1.394 . S
C880 C879 1.359 . S
C880 C882 1.391 . S
C880 H883 0.929 . S
C881 H863 0.930 . S
C881 N877 1.334 . S
C881 C879 1.394 . S
C882 C878 1.413 . S
C882 C880 1.391 . S
C882 C897 1.437 . S
H883 C880 0.929 . S
O884 Gd840 2.545 . S
O884 C899 1.258 . S
O885 Gd840 2.606 . S
O885 Gd841 2.362 . S
O885 C896 1.284 . S
O886 Gd841 2.324 . S
O886 C906 1.254 . S
O887 Gd840 2.429 . S
O887 C906 1.268 . S
O888 Gd840 2.545 . S
O888 C896 1.250 . S
O889 Gd840 2.412 . S
O889 C899 1.252 . S
O890 Gd841 2.545 . S
O890 C908 1.258 . S
O891 Gd840 2.362 . S
O891 Gd841 2.606 . S
O891 C907 1.284 . S
O892 Gd840 2.324 . S
O892 C915 1.254 . S
O893 Gd841 2.429 . S
O893 C915 1.268 . S
O894 Gd841 2.545 . S
O894 C907 1.250 . S
O895 Gd841 2.412 . S
O895 C908 1.252 . S
C896 O885 1.284 . S
C896 O888 1.250 . S
C897 H866 0.929 . S
C897 C882 1.437 . S
C897 C898 1.317 . S
C898 H869 0.930 . S
C898 C874 1.431 . S
C898 C897 1.317 . S
C899 Gd840 2.828 . S
C899 O884 1.258 . S
C899 O889 1.252 . S
C899 C900 1.497 . S
C900 C899 1.497 . S
C900 C901 1.395 . S
C900 C902 1.380 . S
C901 C900 1.395 . S
C901 C904 1.398 . S
C901 H916 0.930 . S
C902 C900 1.380 . S
C902 C903 1.391 . S
C902 H917 0.930 . S
C903 C902 1.391 . S
C903 C905 1.387 . S
C904 C901 1.398 . S
C904 C905 1.380 . S
C904 H918 0.930 . S
C905 C903 1.387 . S
C905 C904 1.380 . S
C905 H919 0.930 . S
C906 O886 1.254 . S
C906 O887 1.268 . S
C907 O891 1.284 . S
C907 O894 1.250 . S
C908 Gd841 2.828 . S
C908 O890 1.258 . S
C908 O895 1.252 . S
C908 C909 1.497 . S
C909 C908 1.497 . S
C909 C910 1.395 . S
C909 C911 1.380 . S
C910 C909 1.395 . S
C910 C913 1.398 . S
C910 H920 0.930 . S
C911 C909 1.380 . S
C911 C912 1.391 . S
C911 H921 0.930 . S
C912 C911 1.391 . S
C912 C914 1.387 . S
C913 C910 1.398 . S
C913 C914 1.380 . S
C913 H922 0.930 . S
C914 C912 1.387 . S
C914 C913 1.380 . S
C914 H923 0.930 . S
C915 O892 1.254 . S
C915 O893 1.268 . S
H916 C901 0.930 . S
H917 C902 0.930 . S
H918 C904 0.930 . S
H919 C905 0.930 . S
H920 C910 0.930 . S
H921 C911 0.930 . S
H922 C913 0.930 . S
H923 C914 0.930 . S
Gd924 N955 2.661 . S
Gd924 N961 2.601 . S
Gd924 O968 2.545 . S
Gd924 O969 2.606 . S
Gd924 O971 2.429 . S
Gd924 O972 2.545 . S
Gd924 O973 2.412 . S
Gd924 O975 2.362 . S
Gd924 O976 2.324 . S
Gd924 C983 2.828 . S
Gd925 N934 2.661 . S
Gd925 N938 2.601 . S
Gd925 O969 2.362 . S
Gd925 O970 2.324 . S
Gd925 O974 2.545 . S
Gd925 O975 2.606 . S
Gd925 O977 2.429 . S
Gd925 O978 2.545 . S
Gd925 O979 2.412 . S
Gd925 C992 2.828 1_554 S
C926 C929 1.417 . S
C926 C931 1.431 . S
C926 C932 1.412 . S
C927 C930 1.437 . S
C927 C931 1.317 . S
C927 H946 0.929 . S
C928 C929 1.426 . S
C928 C930 1.413 . S
C928 N938 1.359 . S
C929 C926 1.417 . S
C929 C928 1.426 . S
C929 N934 1.350 . S
C930 C927 1.437 . S
C930 C928 1.413 . S
C930 C940 1.391 . S
C931 C926 1.431 . S
C931 C927 1.317 . S
C931 H942 0.930 . S
C932 C926 1.412 . S
C932 C933 1.355 . S
C932 H944 0.930 . S
C933 C932 1.355 . S
C933 C935 1.402 . S
C933 H945 0.930 . S
N934 Gd925 2.661 . S
N934 C929 1.350 . S
N934 C935 1.307 . S
C935 C933 1.402 . S
C935 N934 1.307 . S
C935 H936 0.930 . S
H936 C935 0.930 . S
C937 N938 1.334 . S
C937 C939 1.394 . S
C937 H941 0.930 . S
N938 Gd925 2.601 . S
N938 C928 1.359 . S
N938 C937 1.334 . S
C939 C937 1.394 . S
C939 C940 1.359 . S
C939 H951 0.930 . S
C940 C930 1.391 . S
C940 C939 1.359 . S
C940 H952 0.929 . S
H941 C937 0.930 . S
H942 C931 0.930 . S
H943 C960 0.930 . S
H944 C932 0.930 . S
H945 C933 0.930 . S
H946 C927 0.929 . S
H947 C965 0.930 . S
H948 C956 0.930 . S
H949 C957 0.930 . S
H950 C981 0.929 . S
H951 C939 0.930 . S
H952 C940 0.929 . S
H953 C982 0.930 . S
H954 C963 0.930 . S
N955 Gd924 2.661 . S
N955 C959 1.350 . S
N955 C960 1.307 . S
C956 H948 0.930 . S
C956 C957 1.355 . S
C956 C958 1.412 . S
C957 H949 0.930 . S
C957 C956 1.355 . S
C957 C960 1.402 . S
C958 C956 1.412 . S
C958 C959 1.417 . S
C958 C982 1.431 . S
C959 N955 1.350 . S
C959 C958 1.417 . S
C959 C962 1.426 . S
C960 H943 0.930 . S
C960 N955 1.307 . S
C960 C957 1.402 . S
N961 Gd924 2.601 . S
N961 C962 1.359 . S
N961 C965 1.334 . S
C962 C959 1.426 . S
C962 N961 1.359 . S
C962 C966 1.413 . S
C963 H954 0.930 . S
C963 C964 1.359 . S
C963 C965 1.394 . S
C964 C963 1.359 . S
C964 C966 1.391 . S
C964 H967 0.929 . S
C965 H947 0.930 . S
C965 N961 1.334 . S
C965 C963 1.394 . S
C966 C962 1.413 . S
C966 C964 1.391 . S
C966 C981 1.437 . S
H967 C964 0.929 . S
O968 Gd924 2.545 . S
O968 C983 1.258 . S
O969 Gd924 2.606 . S
O969 Gd925 2.362 . S
O969 C980 1.284 . S
O970 Gd925 2.324 . S
O970 C990 1.254 . S
O971 Gd924 2.429 . S
O971 C990 1.268 . S
O972 Gd924 2.545 . S
O972 C980 1.250 . S
O973 Gd924 2.412 . S
O973 C983 1.252 . S
O974 Gd925 2.545 . S
O974 C992 1.258 1_554 S
O975 Gd924 2.362 . S
O975 Gd925 2.606 . S
O975 C991 1.284 . S
O976 Gd924 2.324 . S
O976 C999 1.254 . S
O977 Gd925 2.429 . S
O977 C999 1.268 . S
O978 Gd925 2.545 . S
O978 C991 1.250 . S
O979 Gd925 2.412 . S
O979 C992 1.252 1_554 S
C980 O969 1.284 . S
C980 O972 1.250 . S
C981 H950 0.929 . S
C981 C966 1.437 . S
C981 C982 1.317 . S
C982 H953 0.930 . S
C982 C958 1.431 . S
C982 C981 1.317 . S
C983 Gd924 2.828 . S
C983 O968 1.258 . S
C983 O973 1.252 . S
C983 C984 1.497 . S
C984 C983 1.497 . S
C984 C985 1.395 . S
C984 C986 1.380 . S
C985 C984 1.395 . S
C985 C988 1.398 . S
C985 H1000 0.930 . S
C986 C984 1.380 . S
C986 C987 1.391 . S
C986 H1001 0.930 . S
C987 C986 1.391 . S
C987 C989 1.387 . S
C988 C985 1.398 . S
C988 C989 1.380 . S
C988 H1002 0.930 . S
C989 C987 1.387 . S
C989 C988 1.380 . S
C989 H1003 0.930 . S
C990 O970 1.254 . S
C990 O971 1.268 . S
C991 O975 1.284 . S
C991 O978 1.250 . S
C992 Gd925 2.828 1_556 S
C992 O974 1.258 1_556 S
C992 O979 1.252 1_556 S
C992 C993 1.497 . S
C993 C992 1.497 . S
C993 C994 1.395 . S
C993 C995 1.380 . S
C994 C993 1.395 . S
C994 C997 1.398 . S
C994 H1004 0.930 . S
C995 C993 1.380 . S
C995 C996 1.391 . S
C995 H1005 0.930 . S
C996 C995 1.391 . S
C996 C998 1.387 . S
C997 C994 1.398 . S
C997 C998 1.380 . S
C997 H1006 0.930 . S
C998 C996 1.387 . S
C998 C997 1.380 . S
C998 H1007 0.930 . S
C999 O976 1.254 . S
C999 O977 1.268 . S
H1000 C985 0.930 . S
H1001 C986 0.930 . S
H1002 C988 0.930 . S
H1003 C989 0.930 . S
H1004 C994 0.930 . S
H1005 C995 0.930 . S
H1006 C997 0.930 . S
H1007 C998 0.930 . S
C1008 C1009 1.349 . S
C1008 C1010 1.327 . S
C1008 H1033 0.950 . S
C1009 C1008 1.349 . S
C1009 C1025 1.349 . S
C1010 C1008 1.327 . S
C1010 C1029 1.429 . S
C1010 H1034 0.950 . S
C1011 C1028 1.574 . S
C1011 C1030 1.368 . S
C1011 H1035 0.949 . S
H1012 C1016 0.949 . S
C1013 C1014 1.349 . S
C1013 C1015 1.327 . S
C1013 H1036 0.950 . S
C1014 C1013 1.349 . S
C1014 C1026 1.349 . S
C1015 C1013 1.327 . S
C1015 C1031 1.429 . S
C1015 H1037 0.950 . S
C1016 H1012 0.949 . S
C1016 C1024 1.574 . S
C1016 C1032 1.368 . S
H1017 C1025 0.950 . S
H1018 C1023 0.950 . S
H1019 C1024 0.949 . S
H1020 C1026 0.950 . S
H1021 C1027 0.950 . S
H1022 C1028 0.949 . S
C1023 H1018 0.950 . S
C1023 C1025 1.327 . S
C1023 C1029 1.429 . S
C1024 C1016 1.574 . S
C1024 H1019 0.949 . S
C1024 C1030 1.368 . S
C1025 C1009 1.349 . S
C1025 H1017 0.950 . S
C1025 C1023 1.327 . S
C1026 C1014 1.349 . S
C1026 H1020 0.950 . S
C1026 C1027 1.327 . S
C1027 H1021 0.950 . S
C1027 C1026 1.327 . S
C1027 C1031 1.429 . S
C1028 C1011 1.574 . S
C1028 H1022 0.949 . S
C1028 C1032 1.368 . S
C1029 C1010 1.429 . S
C1029 C1023 1.429 . S
C1029 C1030 1.523 . S
C1030 C1011 1.368 . S
C1030 C1024 1.368 . S
C1030 C1029 1.523 . S
C1031 C1015 1.429 . S
C1031 C1027 1.429 . S
C1031 C1032 1.523 . S
C1032 C1016 1.368 . S
C1032 C1028 1.368 . S
C1032 C1031 1.523 . S
H1033 C1008 0.950 . S
H1034 C1010 0.950 . S
H1035 C1011 0.949 . S
H1036 C1013 0.950 . S
H1037 C1015 0.950 . S
C1038 C1039 1.349 . S
C1038 C1040 1.327 . S
C1038 H1063 0.950 . S
C1039 C1038 1.349 . S
C1039 C1055 1.349 . S
C1040 C1038 1.327 . S
C1040 C1059 1.429 . S
C1040 H1064 0.950 . S
C1041 C1058 1.574 . S
C1041 C1060 1.368 . S
C1041 H1065 0.949 . S
H1042 C1046 0.949 . S
C1043 C1044 1.349 . S
C1043 C1045 1.327 . S
C1043 H1066 0.950 . S
C1044 C1043 1.349 . S
C1044 C1056 1.349 . S
C1045 C1043 1.327 . S
C1045 C1061 1.429 . S
C1045 H1067 0.950 . S
C1046 H1042 0.949 . S
C1046 C1054 1.574 . S
C1046 C1062 1.368 . S
H1047 C1055 0.950 . S
H1048 C1053 0.950 . S
H1049 C1054 0.949 . S
H1050 C1056 0.950 . S
H1051 C1057 0.950 . S
H1052 C1058 0.949 . S
C1053 H1048 0.950 . S
C1053 C1055 1.327 . S
C1053 C1059 1.429 . S
C1054 C1046 1.574 . S
C1054 H1049 0.949 . S
C1054 C1060 1.368 . S
C1055 C1039 1.349 . S
C1055 H1047 0.950 . S
C1055 C1053 1.327 . S
C1056 C1044 1.349 . S
C1056 H1050 0.950 . S
C1056 C1057 1.327 . S
C1057 H1051 0.950 . S
C1057 C1056 1.327 . S
C1057 C1061 1.429 . S
C1058 C1041 1.574 . S
C1058 H1052 0.949 . S
C1058 C1062 1.368 . S
C1059 C1040 1.429 . S
C1059 C1053 1.429 . S
C1059 C1060 1.523 . S
C1060 C1041 1.368 . S
C1060 C1054 1.368 . S
C1060 C1059 1.523 . S
C1061 C1045 1.429 . S
C1061 C1057 1.429 . S
C1061 C1062 1.523 . S
C1062 C1046 1.368 . S
C1062 C1058 1.368 . S
C1062 C1061 1.523 . S
H1063 C1038 0.950 . S
H1064 C1040 0.950 . S
H1065 C1041 0.949 . S
H1066 C1043 0.950 . S
H1067 C1045 0.950 . S
C1068 C1069 1.349 . S
C1068 C1070 1.327 . S
C1068 H1093 0.950 . S
C1069 C1068 1.349 . S
C1069 C1085 1.349 . S
C1070 C1068 1.327 . S
C1070 C1089 1.429 . S
C1070 H1094 0.950 . S
C1071 C1088 1.574 . S
C1071 C1090 1.368 . S
C1071 H1095 0.949 . S
H1072 C1076 0.949 . S
C1073 C1074 1.349 . S
C1073 C1075 1.327 . S
C1073 H1096 0.950 . S
C1074 C1073 1.349 . S
C1074 C1086 1.349 . S
C1075 C1073 1.327 . S
C1075 C1091 1.429 . S
C1075 H1097 0.950 . S
C1076 H1072 0.949 . S
C1076 C1084 1.574 . S
C1076 C1092 1.368 . S
H1077 C1085 0.950 . S
H1078 C1083 0.950 . S
H1079 C1084 0.949 . S
H1080 C1086 0.950 . S
H1081 C1087 0.950 . S
H1082 C1088 0.949 . S
C1083 H1078 0.950 . S
C1083 C1085 1.327 . S
C1083 C1089 1.429 . S
C1084 C1076 1.574 . S
C1084 H1079 0.949 . S
C1084 C1090 1.368 . S
C1085 C1069 1.349 . S
C1085 H1077 0.950 . S
C1085 C1083 1.327 . S
C1086 C1074 1.349 . S
C1086 H1080 0.950 . S
C1086 C1087 1.327 . S
C1087 H1081 0.950 . S
C1087 C1086 1.327 . S
C1087 C1091 1.429 . S
C1088 C1071 1.574 . S
C1088 H1082 0.949 . S
C1088 C1092 1.368 . S
C1089 C1070 1.429 . S
C1089 C1083 1.429 . S
C1089 C1090 1.523 . S
C1090 C1071 1.368 . S
C1090 C1084 1.368 . S
C1090 C1089 1.523 . S
C1091 C1075 1.429 . S
C1091 C1087 1.429 . S
C1091 C1092 1.523 . S
C1092 C1076 1.368 . S
C1092 C1088 1.368 . S
C1092 C1091 1.523 . S
H1093 C1068 0.950 . S
H1094 C1070 0.950 . S
H1095 C1071 0.949 . S
H1096 C1073 0.950 . S
H1097 C1075 0.950 . S
C1098 C1099 1.349 . S
C1098 C1100 1.327 . S
C1098 H1123 0.950 . S
C1099 C1098 1.349 . S
C1099 C1115 1.349 . S
C1100 C1098 1.327 . S
C1100 C1119 1.429 . S
C1100 H1124 0.950 . S
C1101 C1118 1.574 . S
C1101 C1120 1.368 . S
C1101 H1125 0.949 . S
H1102 C1106 0.949 . S
C1103 C1104 1.349 . S
C1103 C1105 1.327 . S
C1103 H1126 0.950 . S
C1104 C1103 1.349 . S
C1104 C1116 1.349 . S
C1105 C1103 1.327 . S
C1105 C1121 1.429 . S
C1105 H1127 0.950 . S
C1106 H1102 0.949 . S
C1106 C1114 1.574 . S
C1106 C1122 1.368 . S
H1107 C1115 0.950 . S
H1108 C1113 0.950 . S
H1109 C1114 0.949 . S
H1110 C1116 0.950 . S
H1111 C1117 0.950 . S
H1112 C1118 0.949 . S
C1113 H1108 0.950 . S
C1113 C1115 1.327 . S
C1113 C1119 1.429 . S
C1114 C1106 1.574 . S
C1114 H1109 0.949 . S
C1114 C1120 1.368 . S
C1115 C1099 1.349 . S
C1115 H1107 0.950 . S
C1115 C1113 1.327 . S
C1116 C1104 1.349 . S
C1116 H1110 0.950 . S
C1116 C1117 1.327 . S
C1117 H1111 0.950 . S
C1117 C1116 1.327 . S
C1117 C1121 1.429 . S
C1118 C1101 1.574 . S
C1118 H1112 0.949 . S
C1118 C1122 1.368 . S
C1119 C1100 1.429 . S
C1119 C1113 1.429 . S
C1119 C1120 1.523 . S
C1120 C1101 1.368 . S
C1120 C1114 1.368 . S
C1120 C1119 1.523 . S
C1121 C1105 1.429 . S
C1121 C1117 1.429 . S
C1121 C1122 1.523 . S
C1122 C1106 1.368 . S
C1122 C1118 1.368 . S
C1122 C1121 1.523 . S
H1123 C1098 0.950 . S
H1124 C1100 0.950 . S
H1125 C1101 0.949 . S
H1126 C1103 0.950 . S
H1127 C1105 0.950 . S
C1128 C1129 1.349 . S
C1128 C1130 1.327 . S
C1128 H1153 0.950 . S
C1129 C1128 1.349 . S
C1129 C1145 1.349 . S
C1130 C1128 1.327 . S
C1130 C1149 1.429 . S
C1130 H1154 0.950 . S
C1131 C1148 1.574 . S
C1131 C1150 1.368 . S
C1131 H1155 0.949 . S
H1132 C1136 0.949 . S
C1133 C1134 1.349 . S
C1133 C1135 1.327 . S
C1133 H1156 0.950 . S
C1134 C1133 1.349 . S
C1134 C1146 1.349 . S
C1135 C1133 1.327 . S
C1135 C1151 1.429 . S
C1135 H1157 0.950 . S
C1136 H1132 0.949 . S
C1136 C1144 1.574 . S
C1136 C1152 1.368 . S
H1137 C1145 0.950 . S
H1138 C1143 0.950 . S
H1139 C1144 0.949 . S
H1140 C1146 0.950 . S
H1141 C1147 0.950 . S
H1142 C1148 0.949 . S
C1143 H1138 0.950 . S
C1143 C1145 1.327 . S
C1143 C1149 1.429 . S
C1144 C1136 1.574 . S
C1144 H1139 0.949 . S
C1144 C1150 1.368 . S
C1145 C1129 1.349 . S
C1145 H1137 0.950 . S
C1145 C1143 1.327 . S
C1146 C1134 1.349 . S
C1146 H1140 0.950 . S
C1146 C1147 1.327 . S
C1147 H1141 0.950 . S
C1147 C1146 1.327 . S
C1147 C1151 1.429 . S
C1148 C1131 1.574 . S
C1148 H1142 0.949 . S
C1148 C1152 1.368 . S
C1149 C1130 1.429 . S
C1149 C1143 1.429 . S
C1149 C1150 1.523 . S
C1150 C1131 1.368 . S
C1150 C1144 1.368 . S
C1150 C1149 1.523 . S
C1151 C1135 1.429 . S
C1151 C1147 1.429 . S
C1151 C1152 1.523 . S
C1152 C1136 1.368 . S
C1152 C1148 1.368 . S
C1152 C1151 1.523 . S
H1153 C1128 0.950 . S
H1154 C1130 0.950 . S
H1155 C1131 0.949 . S
H1156 C1133 0.950 . S
H1157 C1135 0.950 . S
C1158 C1159 1.349 . S
C1158 C1160 1.327 . S
C1158 H1183 0.950 . S
C1159 C1158 1.349 . S
C1159 C1175 1.349 . S
C1160 C1158 1.327 . S
C1160 C1179 1.429 . S
C1160 H1184 0.950 . S
C1161 C1178 1.574 . S
C1161 C1180 1.368 . S
C1161 H1185 0.949 . S
H1162 C1166 0.949 . S
C1163 C1164 1.349 . S
C1163 C1165 1.327 . S
C1163 H1186 0.950 . S
C1164 C1163 1.349 . S
C1164 C1176 1.349 . S
C1165 C1163 1.327 . S
C1165 C1181 1.429 . S
C1165 H1187 0.950 . S
C1166 H1162 0.949 . S
C1166 C1174 1.574 . S
C1166 C1182 1.368 . S
H1167 C1175 0.950 . S
H1168 C1173 0.950 . S
H1169 C1174 0.949 . S
H1170 C1176 0.950 . S
H1171 C1177 0.950 . S
H1172 C1178 0.949 . S
C1173 H1168 0.950 . S
C1173 C1175 1.327 . S
C1173 C1179 1.429 . S
C1174 C1166 1.574 . S
C1174 H1169 0.949 . S
C1174 C1180 1.368 . S
C1175 C1159 1.349 . S
C1175 H1167 0.950 . S
C1175 C1173 1.327 . S
C1176 C1164 1.349 . S
C1176 H1170 0.950 . S
C1176 C1177 1.327 . S
C1177 H1171 0.950 . S
C1177 C1176 1.327 . S
C1177 C1181 1.429 . S
C1178 C1161 1.574 . S
C1178 H1172 0.949 . S
C1178 C1182 1.368 . S
C1179 C1160 1.429 . S
C1179 C1173 1.429 . S
C1179 C1180 1.523 . S
C1180 C1161 1.368 . S
C1180 C1174 1.368 . S
C1180 C1179 1.523 . S
C1181 C1165 1.429 . S
C1181 C1177 1.429 . S
C1181 C1182 1.523 . S
C1182 C1166 1.368 . S
C1182 C1178 1.368 . S
C1182 C1181 1.523 . S
H1183 C1158 0.950 . S
H1184 C1160 0.950 . S
H1185 C1161 0.949 . S
H1186 C1163 0.950 . S
H1187 C1165 0.950 . S
C1188 C1189 1.349 . S
C1188 C1190 1.327 . S
C1188 H1213 0.950 . S
C1189 C1188 1.349 . S
C1189 C1205 1.349 . S
C1190 C1188 1.327 . S
C1190 C1209 1.429 . S
C1190 H1214 0.950 . S
C1191 C1208 1.574 1_556 S
C1191 C1210 1.368 . S
C1191 H1215 0.949 . S
H1192 C1196 0.949 . S
C1193 C1194 1.349 . S
C1193 C1195 1.327 . S
C1193 H1216 0.950 . S
C1194 C1193 1.349 . S
C1194 C1206 1.349 . S
C1195 C1193 1.327 . S
C1195 C1211 1.429 . S
C1195 H1217 0.950 . S
C1196 H1192 0.949 . S
C1196 C1204 1.574 1_554 S
C1196 C1212 1.368 . S
H1197 C1205 0.950 . S
H1198 C1203 0.950 . S
H1199 C1204 0.949 . S
H1200 C1206 0.950 . S
H1201 C1207 0.950 . S
H1202 C1208 0.949 . S
C1203 H1198 0.950 . S
C1203 C1205 1.327 . S
C1203 C1209 1.429 . S
C1204 C1196 1.574 1_556 S
C1204 H1199 0.949 . S
C1204 C1210 1.368 . S
C1205 C1189 1.349 . S
C1205 H1197 0.950 . S
C1205 C1203 1.327 . S
C1206 C1194 1.349 . S
C1206 H1200 0.950 . S
C1206 C1207 1.327 . S
C1207 H1201 0.950 . S
C1207 C1206 1.327 . S
C1207 C1211 1.429 . S
C1208 C1191 1.574 1_554 S
C1208 H1202 0.949 . S
C1208 C1212 1.368 . S
C1209 C1190 1.429 . S
C1209 C1203 1.429 . S
C1209 C1210 1.523 . S
C1210 C1191 1.368 . S
C1210 C1204 1.368 . S
C1210 C1209 1.523 . S
C1211 C1195 1.429 . S
C1211 C1207 1.429 . S
C1211 C1212 1.523 . S
C1212 C1196 1.368 . S
C1212 C1208 1.368 . S
C1212 C1211 1.523 . S
H1213 C1188 0.950 . S
H1214 C1190 0.950 . S
H1215 C1191 0.949 . S
H1216 C1193 0.950 . S
H1217 C1195 0.950 . S
C1218 C1219 1.349 . S
C1218 C1220 1.327 . S
C1218 H1243 0.950 . S
C1219 C1218 1.349 . S
C1219 C1235 1.349 . S
C1220 C1218 1.327 . S
C1220 C1239 1.429 . S
C1220 H1244 0.950 . S
C1221 C1238 1.574 . S
C1221 C1240 1.368 . S
C1221 H1245 0.949 . S
H1222 C1226 0.949 . S
C1223 C1224 1.349 . S
C1223 C1225 1.327 . S
C1223 H1246 0.950 . S
C1224 C1223 1.349 . S
C1224 C1236 1.349 . S
C1225 C1223 1.327 . S
C1225 C1241 1.429 . S
C1225 H1247 0.950 . S
C1226 H1222 0.949 . S
C1226 C1234 1.574 . S
C1226 C1242 1.368 . S
H1227 C1235 0.950 . S
H1228 C1233 0.950 . S
H1229 C1234 0.949 . S
H1230 C1236 0.950 . S
H1231 C1237 0.950 . S
H1232 C1238 0.949 . S
C1233 H1228 0.950 . S
C1233 C1235 1.327 . S
C1233 C1239 1.429 . S
C1234 C1226 1.574 . S
C1234 H1229 0.949 . S
C1234 C1240 1.368 . S
C1235 C1219 1.349 . S
C1235 H1227 0.950 . S
C1235 C1233 1.327 . S
C1236 C1224 1.349 . S
C1236 H1230 0.950 . S
C1236 C1237 1.327 . S
C1237 H1231 0.950 . S
C1237 C1236 1.327 . S
C1237 C1241 1.429 . S
C1238 C1221 1.574 . S
C1238 H1232 0.949 . S
C1238 C1242 1.368 . S
C1239 C1220 1.429 . S
C1239 C1233 1.429 . S
C1239 C1240 1.523 . S
C1240 C1221 1.368 . S
C1240 C1234 1.368 . S
C1240 C1239 1.523 . S
C1241 C1225 1.429 . S
C1241 C1237 1.429 . S
C1241 C1242 1.523 . S
C1242 C1226 1.368 . S
C1242 C1238 1.368 . S
C1242 C1241 1.523 . S
H1243 C1218 0.950 . S
H1244 C1220 0.950 . S
H1245 C1221 0.949 . S
H1246 C1223 0.950 . S
H1247 C1225 0.950 . S
C1248 C1249 1.349 . S
C1248 C1250 1.327 . S
C1248 H1273 0.950 . S
C1249 C1248 1.349 . S
C1249 C1265 1.349 . S
C1250 C1248 1.327 . S
C1250 C1269 1.429 . S
C1250 H1274 0.950 . S
C1251 C1268 1.574 . S
C1251 C1270 1.368 . S
C1251 H1275 0.949 . S
H1252 C1256 0.949 . S
C1253 C1254 1.349 . S
C1253 C1255 1.327 . S
C1253 H1276 0.950 . S
C1254 C1253 1.349 . S
C1254 C1266 1.349 . S
C1255 C1253 1.327 . S
C1255 C1271 1.429 . S
C1255 H1277 0.950 . S
C1256 H1252 0.949 . S
C1256 C1264 1.574 . S
C1256 C1272 1.368 . S
H1257 C1265 0.950 . S
H1258 C1263 0.950 . S
H1259 C1264 0.949 . S
H1260 C1266 0.950 . S
H1261 C1267 0.950 . S
H1262 C1268 0.949 . S
C1263 H1258 0.950 . S
C1263 C1265 1.327 . S
C1263 C1269 1.429 . S
C1264 C1256 1.574 . S
C1264 H1259 0.949 . S
C1264 C1270 1.368 . S
C1265 C1249 1.349 . S
C1265 H1257 0.950 . S
C1265 C1263 1.327 . S
C1266 C1254 1.349 . S
C1266 H1260 0.950 . S
C1266 C1267 1.327 . S
C1267 H1261 0.950 . S
C1267 C1266 1.327 . S
C1267 C1271 1.429 . S
C1268 C1251 1.574 . S
C1268 H1262 0.949 . S
C1268 C1272 1.368 . S
C1269 C1250 1.429 . S
C1269 C1263 1.429 . S
C1269 C1270 1.523 . S
C1270 C1251 1.368 . S
C1270 C1264 1.368 . S
C1270 C1269 1.523 . S
C1271 C1255 1.429 . S
C1271 C1267 1.429 . S
C1271 C1272 1.523 . S
C1272 C1256 1.368 . S
C1272 C1268 1.368 . S
C1272 C1271 1.523 . S
H1273 C1248 0.950 . S
H1274 C1250 0.950 . S
H1275 C1251 0.949 . S
H1276 C1253 0.950 . S
H1277 C1255 0.950 . S
C1278 C1279 1.349 . S
C1278 C1280 1.327 . S
C1278 H1303 0.950 . S
C1279 C1278 1.349 . S
C1279 C1295 1.349 . S
C1280 C1278 1.327 . S
C1280 C1299 1.429 . S
C1280 H1304 0.950 . S
C1281 C1298 1.574 1_556 S
C1281 C1300 1.368 . S
C1281 H1305 0.949 . S
H1282 C1286 0.949 . S
C1283 C1284 1.349 . S
C1283 C1285 1.327 . S
C1283 H1306 0.950 . S
C1284 C1283 1.349 . S
C1284 C1296 1.349 . S
C1285 C1283 1.327 . S
C1285 C1301 1.429 . S
C1285 H1307 0.950 . S
C1286 H1282 0.949 . S
C1286 C1294 1.574 1_554 S
C1286 C1302 1.368 . S
H1287 C1295 0.950 . S
H1288 C1293 0.950 . S
H1289 C1294 0.949 . S
H1290 C1296 0.950 . S
H1291 C1297 0.950 . S
H1292 C1298 0.949 . S
C1293 H1288 0.950 . S
C1293 C1295 1.327 . S
C1293 C1299 1.429 . S
C1294 C1286 1.574 1_556 S
C1294 H1289 0.949 . S
C1294 C1300 1.368 . S
C1295 C1279 1.349 . S
C1295 H1287 0.950 . S
C1295 C1293 1.327 . S
C1296 C1284 1.349 . S
C1296 H1290 0.950 . S
C1296 C1297 1.327 . S
C1297 H1291 0.950 . S
C1297 C1296 1.327 . S
C1297 C1301 1.429 . S
C1298 C1281 1.574 1_554 S
C1298 H1292 0.949 . S
C1298 C1302 1.368 . S
C1299 C1280 1.429 . S
C1299 C1293 1.429 . S
C1299 C1300 1.523 . S
C1300 C1281 1.368 . S
C1300 C1294 1.368 . S
C1300 C1299 1.523 . S
C1301 C1285 1.429 . S
C1301 C1297 1.429 . S
C1301 C1302 1.523 . S
C1302 C1286 1.368 . S
C1302 C1298 1.368 . S
C1302 C1301 1.523 . S
H1303 C1278 0.950 . S
H1304 C1280 0.950 . S
H1305 C1281 0.949 . S
H1306 C1283 0.950 . S
H1307 C1285 0.950 . S
C1308 C1309 1.349 . S
C1308 C1310 1.327 . S
C1308 H1333 0.950 . S
C1309 C1308 1.349 . S
C1309 C1325 1.349 . S
C1310 C1308 1.327 . S
C1310 C1329 1.429 . S
C1310 H1334 0.950 . S
C1311 C1328 1.574 . S
C1311 C1330 1.368 . S
C1311 H1335 0.949 . S
H1312 C1316 0.949 . S
C1313 C1314 1.349 . S
C1313 C1315 1.327 . S
C1313 H1336 0.950 . S
C1314 C1313 1.349 . S
C1314 C1326 1.349 . S
C1315 C1313 1.327 . S
C1315 C1331 1.429 . S
C1315 H1337 0.950 . S
C1316 H1312 0.949 . S
C1316 C1324 1.574 . S
C1316 C1332 1.368 . S
H1317 C1325 0.950 . S
H1318 C1323 0.950 . S
H1319 C1324 0.949 . S
H1320 C1326 0.950 . S
H1321 C1327 0.950 . S
H1322 C1328 0.949 . S
C1323 H1318 0.950 . S
C1323 C1325 1.327 . S
C1323 C1329 1.429 . S
C1324 C1316 1.574 . S
C1324 H1319 0.949 . S
C1324 C1330 1.368 . S
C1325 C1309 1.349 . S
C1325 H1317 0.950 . S
C1325 C1323 1.327 . S
C1326 C1314 1.349 . S
C1326 H1320 0.950 . S
C1326 C1327 1.327 . S
C1327 H1321 0.950 . S
C1327 C1326 1.327 . S
C1327 C1331 1.429 . S
C1328 C1311 1.574 . S
C1328 H1322 0.949 . S
C1328 C1332 1.368 . S
C1329 C1310 1.429 . S
C1329 C1323 1.429 . S
C1329 C1330 1.523 . S
C1330 C1311 1.368 . S
C1330 C1324 1.368 . S
C1330 C1329 1.523 . S
C1331 C1315 1.429 . S
C1331 C1327 1.429 . S
C1331 C1332 1.523 . S
C1332 C1316 1.368 . S
C1332 C1328 1.368 . S
C1332 C1331 1.523 . S
H1333 C1308 0.950 . S
H1334 C1310 0.950 . S
H1335 C1311 0.949 . S
H1336 C1313 0.950 . S
H1337 C1315 0.950 . S
C1338 C1339 1.349 . S
C1338 C1340 1.327 . S
C1338 H1363 0.950 . S
C1339 C1338 1.349 . S
C1339 C1355 1.349 . S
C1340 C1338 1.327 . S
C1340 C1359 1.429 . S
C1340 H1364 0.950 . S
C1341 C1358 1.574 . S
C1341 C1360 1.368 . S
C1341 H1365 0.949 . S
H1342 C1346 0.949 . S
C1343 C1344 1.349 . S
C1343 C1345 1.327 . S
C1343 H1366 0.950 . S
C1344 C1343 1.349 . S
C1344 C1356 1.349 . S
C1345 C1343 1.327 . S
C1345 C1361 1.429 . S
C1345 H1367 0.950 . S
C1346 H1342 0.949 . S
C1346 C1354 1.574 . S
C1346 C1362 1.368 . S
H1347 C1355 0.950 . S
H1348 C1353 0.950 . S
H1349 C1354 0.949 . S
H1350 C1356 0.950 . S
H1351 C1357 0.950 . S
H1352 C1358 0.949 . S
C1353 H1348 0.950 . S
C1353 C1355 1.327 . S
C1353 C1359 1.429 . S
C1354 C1346 1.574 . S
C1354 H1349 0.949 . S
C1354 C1360 1.368 . S
C1355 C1339 1.349 . S
C1355 H1347 0.950 . S
C1355 C1353 1.327 . S
C1356 C1344 1.349 . S
C1356 H1350 0.950 . S
C1356 C1357 1.327 . S
C1357 H1351 0.950 . S
C1357 C1356 1.327 . S
C1357 C1361 1.429 . S
C1358 C1341 1.574 . S
C1358 H1352 0.949 . S
C1358 C1362 1.368 . S
C1359 C1340 1.429 . S
C1359 C1353 1.429 . S
C1359 C1360 1.523 . S
C1360 C1341 1.368 . S
C1360 C1354 1.368 . S
C1360 C1359 1.523 . S
C1361 C1345 1.429 . S
C1361 C1357 1.429 . S
C1361 C1362 1.523 . S
C1362 C1346 1.368 . S
C1362 C1358 1.368 . S
C1362 C1361 1.523 . S
H1363 C1338 0.950 . S
H1364 C1340 0.950 . S
H1365 C1341 0.949 . S
H1366 C1343 0.950 . S
H1367 C1345 0.950 . S
C1368 C1369 1.349 . S
C1368 C1370 1.327 . S
C1368 H1393 0.950 . S
C1369 C1368 1.349 . S
C1369 C1385 1.349 . S
C1370 C1368 1.327 . S
C1370 C1389 1.429 . S
C1370 H1394 0.950 . S
C1371 C1388 1.575 1_556 S
C1371 C1390 1.368 1_545 S
C1371 H1395 0.949 . S
H1372 C1376 0.949 . S
C1373 C1374 1.349 . S
C1373 C1375 1.327 . S
C1373 H1396 0.950 . S
C1374 C1373 1.349 . S
C1374 C1386 1.349 . S
C1375 C1373 1.327 . S
C1375 C1391 1.429 . S
C1375 H1397 0.950 . S
C1376 H1372 0.949 . S
C1376 C1384 1.575 1_554 S
C1376 C1392 1.368 1_565 S
H1377 C1385 0.950 . S
H1378 C1383 0.912 1_545 S
H1379 C1384 0.949 . S
H1380 C1386 0.950 . S
H1381 C1387 0.913 1_565 S
H1382 C1388 0.949 . S
C1383 H1378 0.912 1_565 S
C1383 C1385 1.327 . S
C1383 C1389 1.429 . S
C1384 C1376 1.575 1_556 S
C1384 H1379 0.949 . S
C1384 C1390 1.367 . S
C1385 C1369 1.349 . S
C1385 H1377 0.950 . S
C1385 C1383 1.327 . S
C1386 C1374 1.349 . S
C1386 H1380 0.950 . S
C1386 C1387 1.327 . S
C1387 H1381 0.913 1_545 S
C1387 C1386 1.327 . S
C1387 C1391 1.429 . S
C1388 C1371 1.575 1_554 S
C1388 H1382 0.949 . S
C1388 C1392 1.367 . S
C1389 C1370 1.429 . S
C1389 C1383 1.429 . S
C1389 C1390 1.523 . S
C1390 C1371 1.368 1_565 S
C1390 C1384 1.367 . S
C1390 C1389 1.523 . S
C1391 C1375 1.429 . S
C1391 C1387 1.429 . S
C1391 C1392 1.523 . S
C1392 C1376 1.368 1_545 S
C1392 C1388 1.367 . S
C1392 C1391 1.523 . S
H1393 C1368 0.950 . S
H1394 C1370 0.950 . S
H1395 C1371 0.949 . S
H1396 C1373 0.950 . S
H1397 C1375 0.950 . S
C1398 C1399 1.349 . S
C1398 C1400 1.327 . S
C1398 H1423 0.950 . S
C1399 C1398 1.349 . S
C1399 C1415 1.349 . S
C1400 C1398 1.327 . S
C1400 C1419 1.429 . S
C1400 H1424 0.950 . S
C1401 C1418 1.574 . S
C1401 C1420 1.368 . S
C1401 H1425 0.949 . S
H1402 C1406 0.949 . S
C1403 C1404 1.349 . S
C1403 C1405 1.327 . S
C1403 H1426 0.950 . S
C1404 C1403 1.349 . S
C1404 C1416 1.349 . S
C1405 C1403 1.327 . S
C1405 C1421 1.429 . S
C1405 H1427 0.950 . S
C1406 H1402 0.949 . S
C1406 C1414 1.574 . S
C1406 C1422 1.368 . S
H1407 C1415 0.950 . S
H1408 C1413 0.950 . S
H1409 C1414 0.949 . S
H1410 C1416 0.950 . S
H1411 C1417 0.950 . S
H1412 C1418 0.949 . S
C1413 H1408 0.950 . S
C1413 C1415 1.327 . S
C1413 C1419 1.429 . S
C1414 C1406 1.574 . S
C1414 H1409 0.949 . S
C1414 C1420 1.368 . S
C1415 C1399 1.349 . S
C1415 H1407 0.950 . S
C1415 C1413 1.327 . S
C1416 C1404 1.349 . S
C1416 H1410 0.950 . S
C1416 C1417 1.327 . S
C1417 H1411 0.950 . S
C1417 C1416 1.327 . S
C1417 C1421 1.429 . S
C1418 C1401 1.574 . S
C1418 H1412 0.949 . S
C1418 C1422 1.368 . S
C1419 C1400 1.429 . S
C1419 C1413 1.429 . S
C1419 C1420 1.523 . S
C1420 C1401 1.368 . S
C1420 C1414 1.368 . S
C1420 C1419 1.523 . S
C1421 C1405 1.429 . S
C1421 C1417 1.429 . S
C1421 C1422 1.523 . S
C1422 C1406 1.368 . S
C1422 C1418 1.368 . S
C1422 C1421 1.523 . S
H1423 C1398 0.950 . S
H1424 C1400 0.950 . S
H1425 C1401 0.949 . S
H1426 C1403 0.950 . S
H1427 C1405 0.950 . S
C1428 C1429 1.349 . S
C1428 C1430 1.327 . S
C1428 H1453 0.950 . S
C1429 C1428 1.349 . S
C1429 C1445 1.349 . S
C1430 C1428 1.327 . S
C1430 C1449 1.429 . S
C1430 H1454 0.950 . S
C1431 C1448 1.574 1_455 S
C1431 C1450 1.368 . S
C1431 H1455 0.949 . S
H1432 C1436 0.949 . S
C1433 C1434 1.349 . S
C1433 C1435 1.327 . S
C1433 H1456 0.950 . S
C1434 C1433 1.349 . S
C1434 C1446 1.349 . S
C1435 C1433 1.327 . S
C1435 C1451 1.429 . S
C1435 H1457 0.950 . S
C1436 H1432 0.949 . S
C1436 C1444 1.574 1_655 S
C1436 C1452 1.368 . S
H1437 C1445 0.950 . S
H1438 C1443 0.950 . S
H1439 C1444 0.949 . S
H1440 C1446 0.950 . S
H1441 C1447 0.950 . S
H1442 C1448 0.949 . S
C1443 H1438 0.950 . S
C1443 C1445 1.327 . S
C1443 C1449 1.429 . S
C1444 C1436 1.574 1_455 S
C1444 H1439 0.949 . S
C1444 C1450 1.368 . S
C1445 C1429 1.349 . S
C1445 H1437 0.950 . S
C1445 C1443 1.327 . S
C1446 C1434 1.349 . S
C1446 H1440 0.950 . S
C1446 C1447 1.327 . S
C1447 H1441 0.950 . S
C1447 C1446 1.327 . S
C1447 C1451 1.429 . S
C1448 C1431 1.574 1_655 S
C1448 H1442 0.949 . S
C1448 C1452 1.368 . S
C1449 C1430 1.429 . S
C1449 C1443 1.429 . S
C1449 C1450 1.523 . S
C1450 C1431 1.368 . S
C1450 C1444 1.368 . S
C1450 C1449 1.523 . S
C1451 C1435 1.429 . S
C1451 C1447 1.429 . S
C1451 C1452 1.523 . S
C1452 C1436 1.368 . S
C1452 C1448 1.368 . S
C1452 C1451 1.523 . S
H1453 C1428 0.950 . S
H1454 C1430 0.950 . S
H1455 C1431 0.949 . S
H1456 C1433 0.950 . S
H1457 C1435 0.950 . S
C1458 C1459 1.349 . S
C1458 C1460 1.327 . S
C1458 H1483 0.950 . S
C1459 C1458 1.349 . S
C1459 C1475 1.349 . S
C1460 C1458 1.327 . S
C1460 C1479 1.429 . S
C1460 H1484 0.950 . S
C1461 C1478 1.574 1_554 S
C1461 C1480 1.368 . S
C1461 H1485 0.949 . S
H1462 C1466 0.949 . S
C1463 C1464 1.349 . S
C1463 C1465 1.327 . S
C1463 H1486 0.950 . S
C1464 C1463 1.349 . S
C1464 C1476 1.349 . S
C1465 C1463 1.327 . S
C1465 C1481 1.429 . S
C1465 H1487 0.950 . S
C1466 H1462 0.949 . S
C1466 C1474 1.574 1_556 S
C1466 C1482 1.368 . S
H1467 C1475 0.950 . S
H1468 C1473 0.950 . S
H1469 C1474 0.949 . S
H1470 C1476 0.950 . S
H1471 C1477 0.950 . S
H1472 C1478 0.949 . S
C1473 H1468 0.950 . S
C1473 C1475 1.327 . S
C1473 C1479 1.429 . S
C1474 C1466 1.574 1_554 S
C1474 H1469 0.949 . S
C1474 C1480 1.368 1_545 S
C1475 C1459 1.349 . S
C1475 H1467 0.950 . S
C1475 C1473 1.327 . S
C1476 C1464 1.349 . S
C1476 H1470 0.950 . S
C1476 C1477 1.327 . S
C1477 H1471 0.950 . S
C1477 C1476 1.327 . S
C1477 C1481 1.429 . S
C1478 C1461 1.574 1_556 S
C1478 H1472 0.949 . S
C1478 C1482 1.368 1_565 S
C1479 C1460 1.429 . S
C1479 C1473 1.429 . S
C1479 C1480 1.523 . S
C1480 C1461 1.368 . S
C1480 C1474 1.368 1_565 S
C1480 C1479 1.523 . S
C1481 C1465 1.429 . S
C1481 C1477 1.429 . S
C1481 C1482 1.523 . S
C1482 C1466 1.368 . S
C1482 C1478 1.368 1_545 S
C1482 C1481 1.523 . S
H1483 C1458 0.950 . S
H1484 C1460 0.950 . S
H1485 C1461 0.949 . S
H1486 C1463 0.950 . S
H1487 C1465 0.950 . S
C1488 C1489 1.349 . S
C1488 C1490 1.327 . S
C1488 H1513 0.950 . S
C1489 C1488 1.349 . S
C1489 C1505 1.349 . S
C1490 C1488 1.327 . S
C1490 C1509 1.429 . S
C1490 H1514 0.950 . S
C1491 C1508 1.574 . S
C1491 C1510 1.368 . S
C1491 H1515 0.949 . S
H1492 C1496 0.949 . S
C1493 C1494 1.349 . S
C1493 C1495 1.327 . S
C1493 H1516 0.950 . S
C1494 C1493 1.349 . S
C1494 C1506 1.349 . S
C1495 C1493 1.327 . S
C1495 C1511 1.429 . S
C1495 H1517 0.950 . S
C1496 H1492 0.949 . S
C1496 C1504 1.574 . S
C1496 C1512 1.368 . S
H1497 C1505 0.950 . S
H1498 C1503 0.950 . S
H1499 C1504 0.949 . S
H1500 C1506 0.950 . S
H1501 C1507 0.950 . S
H1502 C1508 0.949 . S
C1503 H1498 0.950 . S
C1503 C1505 1.327 . S
C1503 C1509 1.429 . S
C1504 C1496 1.574 . S
C1504 H1499 0.949 . S
C1504 C1510 1.368 . S
C1505 C1489 1.349 . S
C1505 H1497 0.950 . S
C1505 C1503 1.327 . S
C1506 C1494 1.349 . S
C1506 H1500 0.950 . S
C1506 C1507 1.327 . S
C1507 H1501 0.950 . S
C1507 C1506 1.327 . S
C1507 C1511 1.429 . S
C1508 C1491 1.574 . S
C1508 H1502 0.949 . S
C1508 C1512 1.368 . S
C1509 C1490 1.429 . S
C1509 C1503 1.429 . S
C1509 C1510 1.523 . S
C1510 C1491 1.368 . S
C1510 C1504 1.368 . S
C1510 C1509 1.523 . S
C1511 C1495 1.429 . S
C1511 C1507 1.429 . S
C1511 C1512 1.523 . S
C1512 C1496 1.368 . S
C1512 C1508 1.368 . S
C1512 C1511 1.523 . S
H1513 C1488 0.950 . S
H1514 C1490 0.950 . S
H1515 C1491 0.949 . S
H1516 C1493 0.950 . S
H1517 C1495 0.950 . S
C1518 C1519 1.349 . S
C1518 C1520 1.327 . S
C1518 H1543 0.950 . S
C1519 C1518 1.349 . S
C1519 C1535 1.349 . S
C1520 C1518 1.327 . S
C1520 C1539 1.429 . S
C1520 H1544 0.950 . S
C1521 C1538 1.574 . S
C1521 C1540 1.368 . S
C1521 H1545 0.949 . S
H1522 C1526 0.949 . S
C1523 C1524 1.349 . S
C1523 C1525 1.327 . S
C1523 H1546 0.950 . S
C1524 C1523 1.349 . S
C1524 C1536 1.349 . S
C1525 C1523 1.327 . S
C1525 C1541 1.429 . S
C1525 H1547 0.950 . S
C1526 H1522 0.949 . S
C1526 C1534 1.574 . S
C1526 C1542 1.368 . S
H1527 C1535 0.950 . S
H1528 C1533 0.950 . S
H1529 C1534 0.949 . S
H1530 C1536 0.950 . S
H1531 C1537 0.950 . S
H1532 C1538 0.949 . S
C1533 H1528 0.950 . S
C1533 C1535 1.327 . S
C1533 C1539 1.429 . S
C1534 C1526 1.574 . S
C1534 H1529 0.949 . S
C1534 C1540 1.368 1_655 S
C1535 C1519 1.349 . S
C1535 H1527 0.950 . S
C1535 C1533 1.327 . S
C1536 C1524 1.349 . S
C1536 H1530 0.950 . S
C1536 C1537 1.327 . S
C1537 H1531 0.950 . S
C1537 C1536 1.327 . S
C1537 C1541 1.429 . S
C1538 C1521 1.574 . S
C1538 H1532 0.949 . S
C1538 C1542 1.368 1_455 S
C1539 C1520 1.429 . S
C1539 C1533 1.429 . S
C1539 C1540 1.523 . S
C1540 C1521 1.368 . S
C1540 C1534 1.368 1_455 S
C1540 C1539 1.523 . S
C1541 C1525 1.429 . S
C1541 C1537 1.429 . S
C1541 C1542 1.523 . S
C1542 C1526 1.368 . S
C1542 C1538 1.368 1_655 S
C1542 C1541 1.523 . S
H1543 C1518 0.950 . S
H1544 C1520 0.950 . S
H1545 C1521 0.949 . S
H1546 C1523 0.950 . S
H1547 C1525 0.950 . S
C1548 C1549 1.349 . S
C1548 C1550 1.327 . S
C1548 H1573 0.950 . S
C1549 C1548 1.349 . S
C1549 C1565 1.349 . S
C1550 C1548 1.327 . S
C1550 C1569 1.429 . S
C1550 H1574 0.950 . S
C1551 C1568 1.574 1_545 S
C1551 C1570 1.368 . S
C1551 H1575 0.949 . S
H1552 C1556 0.949 . S
C1553 C1554 1.349 . S
C1553 C1555 1.327 . S
C1553 H1576 0.950 . S
C1554 C1553 1.349 . S
C1554 C1566 1.349 . S
C1555 C1553 1.327 . S
C1555 C1571 1.429 . S
C1555 H1577 0.950 . S
C1556 H1552 0.949 . S
C1556 C1564 1.574 1_565 S
C1556 C1572 1.368 . S
H1557 C1565 0.950 . S
H1558 C1563 0.950 . S
H1559 C1564 0.949 . S
H1560 C1566 0.950 . S
H1561 C1567 0.950 . S
H1562 C1568 0.949 . S
C1563 H1558 0.950 . S
C1563 C1565 1.327 . S
C1563 C1569 1.429 . S
C1564 C1556 1.574 1_545 S
C1564 H1559 0.949 . S
C1564 C1570 1.368 . S
C1565 C1549 1.349 . S
C1565 H1557 0.950 . S
C1565 C1563 1.327 . S
C1566 C1554 1.349 . S
C1566 H1560 0.950 . S
C1566 C1567 1.327 . S
C1567 H1561 0.950 . S
C1567 C1566 1.327 . S
C1567 C1571 1.429 . S
C1568 C1551 1.574 1_565 S
C1568 H1562 0.949 . S
C1568 C1572 1.368 . S
C1569 C1550 1.429 . S
C1569 C1563 1.429 . S
C1569 C1570 1.523 . S
C1570 C1551 1.368 . S
C1570 C1564 1.368 . S
C1570 C1569 1.523 . S
C1571 C1555 1.429 . S
C1571 C1567 1.429 . S
C1571 C1572 1.523 . S
C1572 C1556 1.368 . S
C1572 C1568 1.368 . S
C1572 C1571 1.523 . S
H1573 C1548 0.950 . S
H1574 C1550 0.950 . S
H1575 C1551 0.949 . S
H1576 C1553 0.950 . S
H1577 C1555 0.950 . S
C1578 C1579 1.349 . S
C1578 C1580 1.327 . S
C1578 H1603 0.950 . S
C1579 C1578 1.349 . S
C1579 C1595 1.349 . S
C1580 C1578 1.327 . S
C1580 C1599 1.429 . S
C1580 H1604 0.950 . S
C1581 C1598 1.574 . S
C1581 C1600 1.368 . S
C1581 H1605 0.949 . S
H1582 C1586 0.949 . S
C1583 C1584 1.349 . S
C1583 C1585 1.327 . S
C1583 H1606 0.950 . S
C1584 C1583 1.349 . S
C1584 C1596 1.349 . S
C1585 C1583 1.327 . S
C1585 C1601 1.429 . S
C1585 H1607 0.950 . S
C1586 H1582 0.949 . S
C1586 C1594 1.574 . S
C1586 C1602 1.368 . S
H1587 C1595 0.950 . S
H1588 C1593 0.950 . S
H1589 C1594 0.949 . S
H1590 C1596 0.950 . S
H1591 C1597 0.950 . S
H1592 C1598 0.949 . S
C1593 H1588 0.950 . S
C1593 C1595 1.327 . S
C1593 C1599 1.429 . S
C1594 C1586 1.574 . S
C1594 H1589 0.949 . S
C1594 C1600 1.368 . S
C1595 C1579 1.349 . S
C1595 H1587 0.950 . S
C1595 C1593 1.327 . S
C1596 C1584 1.349 . S
C1596 H1590 0.950 . S
C1596 C1597 1.327 . S
C1597 H1591 0.950 . S
C1597 C1596 1.327 . S
C1597 C1601 1.429 . S
C1598 C1581 1.574 . S
C1598 H1592 0.949 . S
C1598 C1602 1.368 . S
C1599 C1580 1.429 . S
C1599 C1593 1.429 . S
C1599 C1600 1.523 . S
C1600 C1581 1.368 . S
C1600 C1594 1.368 . S
C1600 C1599 1.523 . S
C1601 C1585 1.429 . S
C1601 C1597 1.429 . S
C1601 C1602 1.523 . S
C1602 C1586 1.368 . S
C1602 C1598 1.368 . S
C1602 C1601 1.523 . S
H1603 C1578 0.950 . S
H1604 C1580 0.950 . S
H1605 C1581 0.949 . S
H1606 C1583 0.950 . S
H1607 C1585 0.950 . S
C1608 C1609 1.349 . S
C1608 C1610 1.327 . S
C1608 H1633 0.950 . S
C1609 C1608 1.349 . S
C1609 C1625 1.349 . S
C1610 C1608 1.327 . S
C1610 C1629 1.429 . S
C1610 H1634 0.950 . S
C1611 C1628 1.574 1_655 S
C1611 C1630 1.368 . S
C1611 H1635 0.949 . S
H1612 C1616 0.949 . S
C1613 C1614 1.349 . S
C1613 C1615 1.327 . S
C1613 H1636 0.950 . S
C1614 C1613 1.349 . S
C1614 C1626 1.349 . S
C1615 C1613 1.327 . S
C1615 C1631 1.429 . S
C1615 H1637 0.950 . S
C1616 H1612 0.949 . S
C1616 C1624 1.574 1_455 S
C1616 C1632 1.368 . S
H1617 C1625 0.950 . S
H1618 C1623 0.950 . S
H1619 C1624 0.949 . S
H1620 C1626 0.950 . S
H1621 C1627 0.950 . S
H1622 C1628 0.949 . S
C1623 H1618 0.950 . S
C1623 C1625 1.327 . S
C1623 C1629 1.429 . S
C1624 C1616 1.574 1_655 S
C1624 H1619 0.949 . S
C1624 C1630 1.368 . S
C1625 C1609 1.349 . S
C1625 H1617 0.950 . S
C1625 C1623 1.327 . S
C1626 C1614 1.349 . S
C1626 H1620 0.950 . S
C1626 C1627 1.327 . S
C1627 H1621 0.950 . S
C1627 C1626 1.327 . S
C1627 C1631 1.429 . S
C1628 C1611 1.574 1_455 S
C1628 H1622 0.949 . S
C1628 C1632 1.368 . S
C1629 C1610 1.429 . S
C1629 C1623 1.429 . S
C1629 C1630 1.523 . S
C1630 C1611 1.368 . S
C1630 C1624 1.368 . S
C1630 C1629 1.523 . S
C1631 C1615 1.429 . S
C1631 C1627 1.429 . S
C1631 C1632 1.523 . S
C1632 C1616 1.368 . S
C1632 C1628 1.368 . S
C1632 C1631 1.523 . S
H1633 C1608 0.950 . S
H1634 C1610 0.950 . S
H1635 C1611 0.949 . S
H1636 C1613 0.950 . S
H1637 C1615 0.950 . S
C1638 C1639 1.349 . S
C1638 C1640 1.327 . S
C1638 H1663 0.950 . S
C1639 C1638 1.349 . S
C1639 C1655 1.349 . S
C1640 C1638 1.327 . S
C1640 C1659 1.429 . S
C1640 H1664 0.950 . S
C1641 C1658 1.574 1_455 S
C1641 C1660 1.368 . S
C1641 H1665 0.949 . S
H1642 C1646 0.949 . S
C1643 C1644 1.349 . S
C1643 C1645 1.327 . S
C1643 H1666 0.950 . S
C1644 C1643 1.349 . S
C1644 C1656 1.349 . S
C1645 C1643 1.327 . S
C1645 C1661 1.429 . S
C1645 H1667 0.950 . S
C1646 H1642 0.949 . S
C1646 C1654 1.574 1_655 S
C1646 C1662 1.368 . S
H1647 C1655 0.950 . S
H1648 C1653 0.950 . S
H1649 C1654 0.949 . S
H1650 C1656 0.950 . S
H1651 C1657 0.950 . S
H1652 C1658 0.949 . S
C1653 H1648 0.950 . S
C1653 C1655 1.327 . S
C1653 C1659 1.429 . S
C1654 C1646 1.574 1_455 S
C1654 H1649 0.949 . S
C1654 C1660 1.368 . S
C1655 C1639 1.349 . S
C1655 H1647 0.950 . S
C1655 C1653 1.327 . S
C1656 C1644 1.349 . S
C1656 H1650 0.950 . S
C1656 C1657 1.327 . S
C1657 H1651 0.950 . S
C1657 C1656 1.327 . S
C1657 C1661 1.429 . S
C1658 C1641 1.574 1_655 S
C1658 H1652 0.949 . S
C1658 C1662 1.368 . S
C1659 C1640 1.429 . S
C1659 C1653 1.429 . S
C1659 C1660 1.523 . S
C1660 C1641 1.368 . S
C1660 C1654 1.368 . S
C1660 C1659 1.523 . S
C1661 C1645 1.429 . S
C1661 C1657 1.429 . S
C1661 C1662 1.523 . S
C1662 C1646 1.368 . S
C1662 C1658 1.368 . S
C1662 C1661 1.523 . S
H1663 C1638 0.950 . S
H1664 C1640 0.950 . S
H1665 C1641 0.949 . S
H1666 C1643 0.950 . S
H1667 C1645 0.950 . S
C1668 C1669 1.349 . S
C1668 C1670 1.327 . S
C1668 H1693 0.950 . S
C1669 C1668 1.349 . S
C1669 C1685 1.349 . S
C1670 C1668 1.327 . S
C1670 C1689 1.429 . S
C1670 H1694 0.950 . S
C1671 C1688 1.574 1_565 S
C1671 C1690 1.368 . S
C1671 H1695 0.949 . S
H1672 C1676 0.949 . S
C1673 C1674 1.349 . S
C1673 C1675 1.327 . S
C1673 H1696 0.950 . S
C1674 C1673 1.349 . S
C1674 C1686 1.349 . S
C1675 C1673 1.327 . S
C1675 C1691 1.429 . S
C1675 H1697 0.950 . S
C1676 H1672 0.949 . S
C1676 C1684 1.574 1_545 S
C1676 C1692 1.368 . S
H1677 C1685 0.950 . S
H1678 C1683 0.950 . S
H1679 C1684 0.949 . S
H1680 C1686 0.950 . S
H1681 C1687 0.950 . S
H1682 C1688 0.949 . S
C1683 H1678 0.950 . S
C1683 C1685 1.327 . S
C1683 C1689 1.429 . S
C1684 C1676 1.574 1_565 S
C1684 H1679 0.949 . S
C1684 C1690 1.368 . S
C1685 C1669 1.349 . S
C1685 H1677 0.950 . S
C1685 C1683 1.327 . S
C1686 C1674 1.349 . S
C1686 H1680 0.950 . S
C1686 C1687 1.327 . S
C1687 H1681 0.950 . S
C1687 C1686 1.327 . S
C1687 C1691 1.429 . S
C1688 C1671 1.574 1_545 S
C1688 H1682 0.949 . S
C1688 C1692 1.368 . S
C1689 C1670 1.429 . S
C1689 C1683 1.429 . S
C1689 C1690 1.523 . S
C1690 C1671 1.368 . S
C1690 C1684 1.368 . S
C1690 C1689 1.523 . S
C1691 C1675 1.429 . S
C1691 C1687 1.429 . S
C1691 C1692 1.523 . S
C1692 C1676 1.368 . S
C1692 C1688 1.368 . S
C1692 C1691 1.523 . S
H1693 C1668 0.950 . S
H1694 C1670 0.950 . S
H1695 C1671 0.949 . S
H1696 C1673 0.950 . S
H1697 C1675 0.950 . S
C1698 C1699 1.349 . S
C1698 C1700 1.327 . S
C1698 H1723 0.950 . S
C1699 C1698 1.349 . S
C1699 C1715 1.349 . S
C1700 C1698 1.327 . S
C1700 C1719 1.429 . S
C1700 H1724 0.950 . S
C1701 C1718 1.574 . S
C1701 C1720 1.368 . S
C1701 H1725 0.949 . S
H1702 C1706 0.949 . S
C1703 C1704 1.349 . S
C1703 C1705 1.327 . S
C1703 H1726 0.950 . S
C1704 C1703 1.349 . S
C1704 C1716 1.349 . S
C1705 C1703 1.327 . S
C1705 C1721 1.429 . S
C1705 H1727 0.950 . S
C1706 H1702 0.949 . S
C1706 C1714 1.574 . S
C1706 C1722 1.368 . S
H1707 C1715 0.950 . S
H1708 C1713 0.950 . S
H1709 C1714 0.949 . S
H1710 C1716 0.950 . S
H1711 C1717 0.950 . S
H1712 C1718 0.949 . S
C1713 H1708 0.950 . S
C1713 C1715 1.327 . S
C1713 C1719 1.429 . S
C1714 C1706 1.574 . S
C1714 H1709 0.949 . S
C1714 C1720 1.368 . S
C1715 C1699 1.349 . S
C1715 H1707 0.950 . S
C1715 C1713 1.327 . S
C1716 C1704 1.349 . S
C1716 H1710 0.950 . S
C1716 C1717 1.327 . S
C1717 H1711 0.950 . S
C1717 C1716 1.327 . S
C1717 C1721 1.429 . S
C1718 C1701 1.574 . S
C1718 H1712 0.949 . S
C1718 C1722 1.368 . S
C1719 C1700 1.429 . S
C1719 C1713 1.429 . S
C1719 C1720 1.523 . S
C1720 C1701 1.368 . S
C1720 C1714 1.368 . S
C1720 C1719 1.523 . S
C1721 C1705 1.429 . S
C1721 C1717 1.429 . S
C1721 C1722 1.523 . S
C1722 C1706 1.368 . S
C1722 C1718 1.368 . S
C1722 C1721 1.523 . S
H1723 C1698 0.950 . S
H1724 C1700 0.950 . S
H1725 C1701 0.949 . S
H1726 C1703 0.950 . S
H1727 C1705 0.950 . S
C1728 C1729 1.349 . S
C1728 C1730 1.327 . S
C1728 H1753 0.950 . S
C1729 C1728 1.349 . S
C1729 C1745 1.349 . S
C1730 C1728 1.327 . S
C1730 C1749 1.429 . S
C1730 H1754 0.950 . S
C1731 C1748 1.574 . S
C1731 C1750 1.368 . S
C1731 H1755 0.949 . S
H1732 C1736 0.949 . S
C1733 C1734 1.349 . S
C1733 C1735 1.327 . S
C1733 H1756 0.950 . S
C1734 C1733 1.349 . S
C1734 C1746 1.349 . S
C1735 C1733 1.327 . S
C1735 C1751 1.429 . S
C1735 H1757 0.950 . S
C1736 H1732 0.949 . S
C1736 C1744 1.574 . S
C1736 C1752 1.368 . S
H1737 C1745 0.950 . S
H1738 C1743 0.950 . S
H1739 C1744 0.949 . S
H1740 C1746 0.950 . S
H1741 C1747 0.950 . S
H1742 C1748 0.949 . S
C1743 H1738 0.950 . S
C1743 C1745 1.327 . S
C1743 C1749 1.429 . S
C1744 C1736 1.574 . S
C1744 H1739 0.949 . S
C1744 C1750 1.368 1_545 S
C1745 C1729 1.349 . S
C1745 H1737 0.950 . S
C1745 C1743 1.327 . S
C1746 C1734 1.349 . S
C1746 H1740 0.950 . S
C1746 C1747 1.327 . S
C1747 H1741 0.950 . S
C1747 C1746 1.327 . S
C1747 C1751 1.429 . S
C1748 C1731 1.574 . S
C1748 H1742 0.949 . S
C1748 C1752 1.368 1_565 S
C1749 C1730 1.429 . S
C1749 C1743 1.429 . S
C1749 C1750 1.523 . S
C1750 C1731 1.368 . S
C1750 C1744 1.368 1_565 S
C1750 C1749 1.523 . S
C1751 C1735 1.429 . S
C1751 C1747 1.429 . S
C1751 C1752 1.523 . S
C1752 C1736 1.368 . S
C1752 C1748 1.368 1_545 S
C1752 C1751 1.523 . S
H1753 C1728 0.950 . S
H1754 C1730 0.950 . S
H1755 C1731 0.949 . S
H1756 C1733 0.950 . S
H1757 C1735 0.950 . S
C1758 C1759 1.349 . S
C1758 C1760 1.327 . S
C1758 H1783 0.950 . S
C1759 C1758 1.349 . S
C1759 C1775 1.349 . S
C1760 C1758 1.327 . S
C1760 C1779 1.429 . S
C1760 H1784 0.950 . S
C1761 C1778 1.574 . S
C1761 C1780 1.368 . S
C1761 H1785 0.949 . S
H1762 C1766 0.949 . S
C1763 C1764 1.349 . S
C1763 C1765 1.327 . S
C1763 H1786 0.950 . S
C1764 C1763 1.349 . S
C1764 C1776 1.349 . S
C1765 C1763 1.327 . S
C1765 C1781 1.429 . S
C1765 H1787 0.950 . S
C1766 H1762 0.949 . S
C1766 C1774 1.574 . S
C1766 C1782 1.368 . S
H1767 C1775 0.950 . S
H1768 C1773 0.950 . S
H1769 C1774 0.949 . S
H1770 C1776 0.950 . S
H1771 C1777 0.950 . S
H1772 C1778 0.949 . S
C1773 H1768 0.950 . S
C1773 C1775 1.327 . S
C1773 C1779 1.429 . S
C1774 C1766 1.574 . S
C1774 H1769 0.949 . S
C1774 C1780 1.368 . S
C1775 C1759 1.349 . S
C1775 H1767 0.950 . S
C1775 C1773 1.327 . S
C1776 C1764 1.349 . S
C1776 H1770 0.950 . S
C1776 C1777 1.327 . S
C1777 H1771 0.950 . S
C1777 C1776 1.327 . S
C1777 C1781 1.429 . S
C1778 C1761 1.574 . S
C1778 H1772 0.949 . S
C1778 C1782 1.368 . S
C1779 C1760 1.429 . S
C1779 C1773 1.429 . S
C1779 C1780 1.523 . S
C1780 C1761 1.368 . S
C1780 C1774 1.368 . S
C1780 C1779 1.523 . S
C1781 C1765 1.429 . S
C1781 C1777 1.429 . S
C1781 C1782 1.523 . S
C1782 C1766 1.368 . S
C1782 C1778 1.368 . S
C1782 C1781 1.523 . S
H1783 C1758 0.950 . S
H1784 C1760 0.950 . S
H1785 C1761 0.949 . S
H1786 C1763 0.950 . S
H1787 C1765 0.950 . S
C1788 C1789 1.349 . S
C1788 C1790 1.327 . S
C1788 H1813 0.950 . S
C1789 C1788 1.349 . S
C1789 C1805 1.349 . S
C1790 C1788 1.327 . S
C1790 C1809 1.429 . S
C1790 H1814 0.950 . S
C1791 C1808 1.574 1_655 S
C1791 C1810 1.368 . S
C1791 H1815 0.949 . S
H1792 C1796 0.949 . S
C1793 C1794 1.349 . S
C1793 C1795 1.327 . S
C1793 H1816 0.950 . S
C1794 C1793 1.349 . S
C1794 C1806 1.349 . S
C1795 C1793 1.327 . S
C1795 C1811 1.429 . S
C1795 H1817 0.950 . S
C1796 H1792 0.949 . S
C1796 C1804 1.574 1_455 S
C1796 C1812 1.368 . S
H1797 C1805 0.950 . S
H1798 C1803 0.950 . S
H1799 C1804 0.949 . S
H1800 C1806 0.950 . S
H1801 C1807 0.950 . S
H1802 C1808 0.949 . S
C1803 H1798 0.950 . S
C1803 C1805 1.327 . S
C1803 C1809 1.429 . S
C1804 C1796 1.574 1_655 S
C1804 H1799 0.949 . S
C1804 C1810 1.368 . S
C1805 C1789 1.349 . S
C1805 H1797 0.950 . S
C1805 C1803 1.327 . S
C1806 C1794 1.349 . S
C1806 H1800 0.950 . S
C1806 C1807 1.327 . S
C1807 H1801 0.950 . S
C1807 C1806 1.327 . S
C1807 C1811 1.429 . S
C1808 C1791 1.574 1_455 S
C1808 H1802 0.949 . S
C1808 C1812 1.368 . S
C1809 C1790 1.429 . S
C1809 C1803 1.429 . S
C1809 C1810 1.523 . S
C1810 C1791 1.368 . S
C1810 C1804 1.368 . S
C1810 C1809 1.523 . S
C1811 C1795 1.429 . S
C1811 C1807 1.429 . S
C1811 C1812 1.523 . S
C1812 C1796 1.368 . S
C1812 C1808 1.368 . S
C1812 C1811 1.523 . S
H1813 C1788 0.950 . S
H1814 C1790 0.950 . S
H1815 C1791 0.949 . S
H1816 C1793 0.950 . S
H1817 C1795 0.950 . S
C1818 C1819 1.349 . S
C1818 C1820 1.327 . S
C1818 H1843 0.950 . S
C1819 C1818 1.349 . S
C1819 C1835 1.349 . S
C1820 C1818 1.327 . S
C1820 C1839 1.429 . S
C1820 H1844 0.950 . S
C1821 C1838 1.574 . S
C1821 C1840 1.368 . S
C1821 H1845 0.949 . S
H1822 C1826 0.949 . S
C1823 C1824 1.349 . S
C1823 C1825 1.327 . S
C1823 H1846 0.950 . S
C1824 C1823 1.349 . S
C1824 C1836 1.349 . S
C1825 C1823 1.327 . S
C1825 C1841 1.429 . S
C1825 H1847 0.950 . S
C1826 H1822 0.949 . S
C1826 C1834 1.574 . S
C1826 C1842 1.368 . S
H1827 C1835 0.950 . S
H1828 C1833 0.950 . S
H1829 C1834 0.949 . S
H1830 C1836 0.950 . S
H1831 C1837 0.950 . S
H1832 C1838 0.949 . S
C1833 H1828 0.950 . S
C1833 C1835 1.327 . S
C1833 C1839 1.429 . S
C1834 C1826 1.574 . S
C1834 H1829 0.949 . S
C1834 C1840 1.368 1_565 S
C1835 C1819 1.349 . S
C1835 H1827 0.950 . S
C1835 C1833 1.327 . S
C1836 C1824 1.349 . S
C1836 H1830 0.950 . S
C1836 C1837 1.327 . S
C1837 H1831 0.950 . S
C1837 C1836 1.327 . S
C1837 C1841 1.429 . S
C1838 C1821 1.574 . S
C1838 H1832 0.949 . S
C1838 C1842 1.368 1_545 S
C1839 C1820 1.429 . S
C1839 C1833 1.429 . S
C1839 C1840 1.523 . S
C1840 C1821 1.368 . S
C1840 C1834 1.368 1_545 S
C1840 C1839 1.523 . S
C1841 C1825 1.429 . S
C1841 C1837 1.429 . S
C1841 C1842 1.523 . S
C1842 C1826 1.368 . S
C1842 C1838 1.368 1_565 S
C1842 C1841 1.523 . S
H1843 C1818 0.950 . S
H1844 C1820 0.950 . S
H1845 C1821 0.949 . S
H1846 C1823 0.950 . S
H1847 C1825 0.950 . S
C1848 C1849 1.349 . S
C1848 C1850 1.327 . S
C1848 H1873 0.950 . S
C1849 C1848 1.349 . S
C1849 C1865 1.349 . S
C1850 C1848 1.327 . S
C1850 C1869 1.429 . S
C1850 H1874 0.950 . S
C1851 C1868 1.574 . S
C1851 C1870 1.368 . S
C1851 H1875 0.949 . S
H1852 C1856 0.949 . S
C1853 C1854 1.349 . S
C1853 C1855 1.327 . S
C1853 H1876 0.950 . S
C1854 C1853 1.349 . S
C1854 C1866 1.349 . S
C1855 C1853 1.327 . S
C1855 C1871 1.429 . S
C1855 H1877 0.950 . S
C1856 H1852 0.949 . S
C1856 C1864 1.574 . S
C1856 C1872 1.368 . S
H1857 C1865 0.950 . S
H1858 C1863 0.950 . S
H1859 C1864 0.949 . S
H1860 C1866 0.950 . S
H1861 C1867 0.950 . S
H1862 C1868 0.949 . S
C1863 H1858 0.950 . S
C1863 C1865 1.327 . S
C1863 C1869 1.429 . S
C1864 C1856 1.574 . S
C1864 H1859 0.949 . S
C1864 C1870 1.368 . S
C1865 C1849 1.349 . S
C1865 H1857 0.950 . S
C1865 C1863 1.327 . S
C1866 C1854 1.349 . S
C1866 H1860 0.950 . S
C1866 C1867 1.327 . S
C1867 H1861 0.950 . S
C1867 C1866 1.327 . S
C1867 C1871 1.429 . S
C1868 C1851 1.574 . S
C1868 H1862 0.949 . S
C1868 C1872 1.368 . S
C1869 C1850 1.429 . S
C1869 C1863 1.429 . S
C1869 C1870 1.523 . S
C1870 C1851 1.368 . S
C1870 C1864 1.368 . S
C1870 C1869 1.523 . S
C1871 C1855 1.429 . S
C1871 C1867 1.429 . S
C1871 C1872 1.523 . S
C1872 C1856 1.368 . S
C1872 C1868 1.368 . S
C1872 C1871 1.523 . S
H1873 C1848 0.950 . S
H1874 C1850 0.950 . S
H1875 C1851 0.949 . S
H1876 C1853 0.950 . S
H1877 C1855 0.950 . S
C1878 C1879 1.349 . S
C1878 C1880 1.327 . S
C1878 H1903 0.950 . S
C1879 C1878 1.349 . S
C1879 C1895 1.349 . S
C1880 C1878 1.327 . S
C1880 C1899 1.429 . S
C1880 H1904 0.950 . S
C1881 C1898 1.574 1_455 S
C1881 C1900 1.368 . S
C1881 H1905 0.949 . S
H1882 C1886 0.949 . S
C1883 C1884 1.349 . S
C1883 C1885 1.327 . S
C1883 H1906 0.950 . S
C1884 C1883 1.349 . S
C1884 C1896 1.349 . S
C1885 C1883 1.327 . S
C1885 C1901 1.429 . S
C1885 H1907 0.950 . S
C1886 H1882 0.949 . S
C1886 C1894 1.574 1_655 S
C1886 C1902 1.368 . S
H1887 C1895 0.950 . S
H1888 C1893 0.950 . S
H1889 C1894 0.949 . S
H1890 C1896 0.950 . S
H1891 C1897 0.950 . S
H1892 C1898 0.949 . S
C1893 H1888 0.950 . S
C1893 C1895 1.327 . S
C1893 C1899 1.429 . S
C1894 C1886 1.574 1_455 S
C1894 H1889 0.949 . S
C1894 C1900 1.368 . S
C1895 C1879 1.349 . S
C1895 H1887 0.950 . S
C1895 C1893 1.327 . S
C1896 C1884 1.349 . S
C1896 H1890 0.950 . S
C1896 C1897 1.327 . S
C1897 H1891 0.950 . S
C1897 C1896 1.327 . S
C1897 C1901 1.429 . S
C1898 C1881 1.574 1_655 S
C1898 H1892 0.949 . S
C1898 C1902 1.368 . S
C1899 C1880 1.429 . S
C1899 C1893 1.429 . S
C1899 C1900 1.523 . S
C1900 C1881 1.368 . S
C1900 C1894 1.368 . S
C1900 C1899 1.523 . S
C1901 C1885 1.429 . S
C1901 C1897 1.429 . S
C1901 C1902 1.523 . S
C1902 C1886 1.368 . S
C1902 C1898 1.368 . S
C1902 C1901 1.523 . S
H1903 C1878 0.950 . S
H1904 C1880 0.950 . S
H1905 C1881 0.949 . S
H1906 C1883 0.950 . S
H1907 C1885 0.950 . S
C1908 C1909 1.349 . S
C1908 C1910 1.327 . S
C1908 H1933 0.950 . S
C1909 C1908 1.349 . S
C1909 C1925 1.349 . S
C1910 C1908 1.327 . S
C1910 C1929 1.429 . S
C1910 H1934 0.950 . S
C1911 C1928 1.574 . S
C1911 C1930 1.368 . S
C1911 H1935 0.949 . S
H1912 C1916 0.949 . S
C1913 C1914 1.349 . S
C1913 C1915 1.327 . S
C1913 H1936 0.950 . S
C1914 C1913 1.349 . S
C1914 C1926 1.349 . S
C1915 C1913 1.327 . S
C1915 C1931 1.429 . S
C1915 H1937 0.950 . S
C1916 H1912 0.949 . S
C1916 C1924 1.574 . S
C1916 C1932 1.368 . S
H1917 C1925 0.950 . S
H1918 C1923 0.950 . S
H1919 C1924 0.949 . S
H1920 C1926 0.950 . S
H1921 C1927 0.950 . S
H1922 C1928 0.949 . S
C1923 H1918 0.950 . S
C1923 C1925 1.327 . S
C1923 C1929 1.429 . S
C1924 C1916 1.574 . S
C1924 H1919 0.949 . S
C1924 C1930 1.368 . S
C1925 C1909 1.349 . S
C1925 H1917 0.950 . S
C1925 C1923 1.327 . S
C1926 C1914 1.349 . S
C1926 H1920 0.950 . S
C1926 C1927 1.327 . S
C1927 H1921 0.950 . S
C1927 C1926 1.327 . S
C1927 C1931 1.429 . S
C1928 C1911 1.574 . S
C1928 H1922 0.949 . S
C1928 C1932 1.368 . S
C1929 C1910 1.429 . S
C1929 C1923 1.429 . S
C1929 C1930 1.523 . S
C1930 C1911 1.368 . S
C1930 C1924 1.368 . S
C1930 C1929 1.523 . S
C1931 C1915 1.429 . S
C1931 C1927 1.429 . S
C1931 C1932 1.523 . S
C1932 C1916 1.368 . S
C1932 C1928 1.368 . S
C1932 C1931 1.523 . S
H1933 C1908 0.950 . S
H1934 C1910 0.950 . S
H1935 C1911 0.949 . S
H1936 C1913 0.950 . S
H1937 C1915 0.950 . S
C1938 C1939 1.349 . S
C1938 C1940 1.327 . S
C1938 H1963 0.950 . S
C1939 C1938 1.349 . S
C1939 C1955 1.349 . S
C1940 C1938 1.327 . S
C1940 C1959 1.429 . S
C1940 H1964 0.950 . S
C1941 C1958 1.574 . S
C1941 C1960 1.368 . S
C1941 H1965 0.949 . S
H1942 C1946 0.949 . S
C1943 C1944 1.349 . S
C1943 C1945 1.327 . S
C1943 H1966 0.950 . S
C1944 C1943 1.349 . S
C1944 C1956 1.349 . S
C1945 C1943 1.327 . S
C1945 C1961 1.429 . S
C1945 H1967 0.950 . S
C1946 H1942 0.949 . S
C1946 C1954 1.574 . S
C1946 C1962 1.368 . S
H1947 C1955 0.950 . S
H1948 C1953 0.950 . S
H1949 C1954 0.949 . S
H1950 C1956 0.950 . S
H1951 C1957 0.950 . S
H1952 C1958 0.949 . S
C1953 H1948 0.950 . S
C1953 C1955 1.327 . S
C1953 C1959 1.429 . S
C1954 C1946 1.574 . S
C1954 H1949 0.949 . S
C1954 C1960 1.368 . S
C1955 C1939 1.349 . S
C1955 H1947 0.950 . S
C1955 C1953 1.327 . S
C1956 C1944 1.349 . S
C1956 H1950 0.950 . S
C1956 C1957 1.327 . S
C1957 H1951 0.950 . S
C1957 C1956 1.327 . S
C1957 C1961 1.429 . S
C1958 C1941 1.574 . S
C1958 H1952 0.949 . S
C1958 C1962 1.368 . S
C1959 C1940 1.429 . S
C1959 C1953 1.429 . S
C1959 C1960 1.523 . S
C1960 C1941 1.368 . S
C1960 C1954 1.368 . S
C1960 C1959 1.523 . S
C1961 C1945 1.429 . S
C1961 C1957 1.429 . S
C1961 C1962 1.523 . S
C1962 C1946 1.368 . S
C1962 C1958 1.368 . S
C1962 C1961 1.523 . S
H1963 C1938 0.950 . S
H1964 C1940 0.950 . S
H1965 C1941 0.949 . S
H1966 C1943 0.950 . S
H1967 C1945 0.950 . S
C1968 C1969 1.349 . S
C1968 C1970 1.327 . S
C1968 H1993 0.950 . S
C1969 C1968 1.349 . S
C1969 C1985 1.349 . S
C1970 C1968 1.327 . S
C1970 C1989 1.429 . S
C1970 H1994 0.950 . S
C1971 C1988 1.574 . S
C1971 C1990 1.368 . S
C1971 H1995 0.949 . S
H1972 C1976 0.949 . S
C1973 C1974 1.349 . S
C1973 C1975 1.327 . S
C1973 H1996 0.950 . S
C1974 C1973 1.349 . S
C1974 C1986 1.349 . S
C1975 C1973 1.327 . S
C1975 C1991 1.429 . S
C1975 H1997 0.950 . S
C1976 H1972 0.949 . S
C1976 C1984 1.574 . S
C1976 C1992 1.368 . S
H1977 C1985 0.950 . S
H1978 C1983 0.950 . S
H1979 C1984 0.949 . S
H1980 C1986 0.950 . S
H1981 C1987 0.950 . S
H1982 C1988 0.949 . S
C1983 H1978 0.950 . S
C1983 C1985 1.327 . S
C1983 C1989 1.429 . S
C1984 C1976 1.574 . S
C1984 H1979 0.949 . S
C1984 C1990 1.368 . S
C1985 C1969 1.349 . S
C1985 H1977 0.950 . S
C1985 C1983 1.327 . S
C1986 C1974 1.349 . S
C1986 H1980 0.950 . S
C1986 C1987 1.327 . S
C1987 H1981 0.950 . S
C1987 C1986 1.327 . S
C1987 C1991 1.429 . S
C1988 C1971 1.574 . S
C1988 H1982 0.949 . S
C1988 C1992 1.368 . S
C1989 C1970 1.429 . S
C1989 C1983 1.429 . S
C1989 C1990 1.523 . S
C1990 C1971 1.368 . S
C1990 C1984 1.368 . S
C1990 C1989 1.523 . S
C1991 C1975 1.429 . S
C1991 C1987 1.429 . S
C1991 C1992 1.523 . S
C1992 C1976 1.368 . S
C1992 C1988 1.368 . S
C1992 C1991 1.523 . S
H1993 C1968 0.950 . S
H1994 C1970 0.950 . S
H1995 C1971 0.949 . S
H1996 C1973 0.950 . S
H1997 C1975 0.950 . S
C1998 C1999 1.349 . S
C1998 C2000 1.327 . S
C1998 H2023 0.950 . S
C1999 C1998 1.349 . S
C1999 C2015 1.349 . S
C2000 C1998 1.327 . S
C2000 C2019 1.429 . S
C2000 H2024 0.950 . S
C2001 C2018 1.574 . S
C2001 C2020 1.368 . S
C2001 H2025 0.949 . S
H2002 C2006 0.949 . S
C2003 C2004 1.349 . S
C2003 C2005 1.327 . S
C2003 H2026 0.950 . S
C2004 C2003 1.349 . S
C2004 C2016 1.349 . S
C2005 C2003 1.327 . S
C2005 C2021 1.429 . S
C2005 H2027 0.950 . S
C2006 H2002 0.949 . S
C2006 C2014 1.574 . S
C2006 C2022 1.368 . S
H2007 C2015 0.950 . S
H2008 C2013 0.950 . S
H2009 C2014 0.949 . S
H2010 C2016 0.950 . S
H2011 C2017 0.950 . S
H2012 C2018 0.949 . S
C2013 H2008 0.950 . S
C2013 C2015 1.327 . S
C2013 C2019 1.429 . S
C2014 C2006 1.574 . S
C2014 H2009 0.949 . S
C2014 C2020 1.368 . S
C2015 C1999 1.349 . S
C2015 H2007 0.950 . S
C2015 C2013 1.327 . S
C2016 C2004 1.349 . S
C2016 H2010 0.950 . S
C2016 C2017 1.327 . S
C2017 H2011 0.950 . S
C2017 C2016 1.327 . S
C2017 C2021 1.429 . S
C2018 C2001 1.574 . S
C2018 H2012 0.949 . S
C2018 C2022 1.368 . S
C2019 C2000 1.429 . S
C2019 C2013 1.429 . S
C2019 C2020 1.523 . S
C2020 C2001 1.368 . S
C2020 C2014 1.368 . S
C2020 C2019 1.523 . S
C2021 C2005 1.429 . S
C2021 C2017 1.429 . S
C2021 C2022 1.523 . S
C2022 C2006 1.368 . S
C2022 C2018 1.368 . S
C2022 C2021 1.523 . S
H2023 C1998 0.950 . S
H2024 C2000 0.950 . S
H2025 C2001 0.949 . S
H2026 C2003 0.950 . S
H2027 C2005 0.950 . S
C2028 C2029 1.349 . S
C2028 C2030 1.327 . S
C2028 H2053 0.950 . S
C2029 C2028 1.349 . S
C2029 C2045 1.349 . S
C2030 C2028 1.327 . S
C2030 C2049 1.429 . S
C2030 H2054 0.950 . S
C2031 C2048 1.574 . S
C2031 C2050 1.368 . S
C2031 H2055 0.949 . S
H2032 C2036 0.949 . S
C2033 C2034 1.349 . S
C2033 C2035 1.327 . S
C2033 H2056 0.950 . S
C2034 C2033 1.349 . S
C2034 C2046 1.349 . S
C2035 C2033 1.327 . S
C2035 C2051 1.429 . S
C2035 H2057 0.950 . S
C2036 H2032 0.949 . S
C2036 C2044 1.574 . S
C2036 C2052 1.368 . S
H2037 C2045 0.950 . S
H2038 C2043 0.950 . S
H2039 C2044 0.949 . S
H2040 C2046 0.950 . S
H2041 C2047 0.950 . S
H2042 C2048 0.949 . S
C2043 H2038 0.950 . S
C2043 C2045 1.327 . S
C2043 C2049 1.429 . S
C2044 C2036 1.574 . S
C2044 H2039 0.949 . S
C2044 C2050 1.368 . S
C2045 C2029 1.349 . S
C2045 H2037 0.950 . S
C2045 C2043 1.327 . S
C2046 C2034 1.349 . S
C2046 H2040 0.950 . S
C2046 C2047 1.327 . S
C2047 H2041 0.950 . S
C2047 C2046 1.327 . S
C2047 C2051 1.429 . S
C2048 C2031 1.574 . S
C2048 H2042 0.949 . S
C2048 C2052 1.368 . S
C2049 C2030 1.429 . S
C2049 C2043 1.429 . S
C2049 C2050 1.523 . S
C2050 C2031 1.368 . S
C2050 C2044 1.368 . S
C2050 C2049 1.523 . S
C2051 C2035 1.429 . S
C2051 C2047 1.429 . S
C2051 C2052 1.523 . S
C2052 C2036 1.368 . S
C2052 C2048 1.368 . S
C2052 C2051 1.523 . S
H2053 C2028 0.950 . S
H2054 C2030 0.950 . S
H2055 C2031 0.949 . S
H2056 C2033 0.950 . S
H2057 C2035 0.950 . S
C2058 C2059 1.349 . S
C2058 C2060 1.327 . S
C2058 H2083 0.950 . S
C2059 C2058 1.349 . S
C2059 C2075 1.349 . S
C2060 C2058 1.327 . S
C2060 C2079 1.429 . S
C2060 H2084 0.950 . S
C2061 C2078 1.574 . S
C2061 C2080 1.368 . S
C2061 H2085 0.949 . S
H2062 C2066 0.949 . S
C2063 C2064 1.349 . S
C2063 C2065 1.327 . S
C2063 H2086 0.950 . S
C2064 C2063 1.349 . S
C2064 C2076 1.349 . S
C2065 C2063 1.327 . S
C2065 C2081 1.429 . S
C2065 H2087 0.950 . S
C2066 H2062 0.949 . S
C2066 C2074 1.574 . S
C2066 C2082 1.368 . S
H2067 C2075 0.950 . S
H2068 C2073 0.950 . S
H2069 C2074 0.949 . S
H2070 C2076 0.950 . S
H2071 C2077 0.950 . S
H2072 C2078 0.949 . S
C2073 H2068 0.950 . S
C2073 C2075 1.327 . S
C2073 C2079 1.429 . S
C2074 C2066 1.574 . S
C2074 H2069 0.949 . S
C2074 C2080 1.368 . S
C2075 C2059 1.349 . S
C2075 H2067 0.950 . S
C2075 C2073 1.327 . S
C2076 C2064 1.349 . S
C2076 H2070 0.950 . S
C2076 C2077 1.327 . S
C2077 H2071 0.950 . S
C2077 C2076 1.327 . S
C2077 C2081 1.429 . S
C2078 C2061 1.574 . S
C2078 H2072 0.949 . S
C2078 C2082 1.368 . S
C2079 C2060 1.429 . S
C2079 C2073 1.429 . S
C2079 C2080 1.523 . S
C2080 C2061 1.368 . S
C2080 C2074 1.368 . S
C2080 C2079 1.523 . S
C2081 C2065 1.429 . S
C2081 C2077 1.429 . S
C2081 C2082 1.523 . S
C2082 C2066 1.368 . S
C2082 C2078 1.368 . S
C2082 C2081 1.523 . S
H2083 C2058 0.950 . S
H2084 C2060 0.950 . S
H2085 C2061 0.949 . S
H2086 C2063 0.950 . S
H2087 C2065 0.950 . S
C1009 C75 0.923 . S
C1014 C747 0.923 . S
C1039 C159 0.923 . S
C1044 C831 0.923 . S
C1069 C243 0.923 . S
C1074 C915 0.923 . S
C1099 C999 0.923 . S
C1104 C327 0.923 . S
C1129 C411 0.923 . S
C1134 C579 0.923 . S
C1159 C663 0.923 . S
C1164 C495 0.923 . S
C1189 C903 1.347 . S
C1194 C63 1.347 . S
C1219 C987 1.347 . S
C1224 C147 1.347 . S
C1249 C231 1.347 . S
C1254 C567 1.347 . S
C1279 C651 1.347 . S
C1284 C315 1.347 . S
C1309 C735 1.347 . S
C1314 C399 1.347 . S
C1339 C483 1.347 . S
C1344 C819 1.347 . S
C1369 C644 4.609 . S
C1374 C56 4.609 . S
C1399 C728 4.609 . S
C1404 C140 4.609 . S
C1429 C812 4.609 . S
C1434 C224 4.609 . S
C1459 C308 4.609 . S
C1464 C896 4.609 . S
C1489 C392 4.609 . S
C1494 C980 4.609 . S
C1519 C476 4.609 . S
C1524 C560 4.609 . S
C1549 C66 0.752 . S
C1554 C318 0.752 . S
C1579 C150 0.752 . S
C1584 C402 0.752 . S
C1609 C234 0.752 . S
C1614 C486 0.752 . S
C1639 C822 0.752 . S
C1644 C570 0.752 . S
C1669 C654 0.752 . S
C1674 C906 0.752 . S
C1699 C990 0.752 . S
C1704 C738 0.752 . S
C1729 C660 0.943 . S
C1734 C72 0.943 . S
C1759 C744 0.943 . S
C1764 C156 0.943 . S
C1789 C240 0.943 . S
C1794 C828 0.943 . S
C1819 C912 0.943 . S
C1824 C324 0.943 . S
C1849 C996 0.943 . S
C1854 C408 0.943 . S
C1879 C492 0.943 . S
C1884 C576 0.943 . S
C1909 C67 3.467 . S
C1914 C907 3.467 . S
C1939 C151 3.467 . S
C1944 C991 3.467 1_556 S
C1969 C235 3.467 1_554 S
C1974 C571 3.467 . S
C1999 C319 3.467 . S
C2004 C655 3.467 . S
C2029 C403 3.467 . S
C2034 C739 3.467 1_556 S
C2059 C823 3.467 . S
C2064 C487 3.467 1_554 S
