# Generated by pormake.
# Topology mok, (4)-cn, num edge types: 1
# Building blocks:
#     Node 0, Type 0, BuildingBlock: NAHDIM_clean_sbu_0, # of connection points: 4
#     Node 1, Type 0, BuildingBlock: NAHDIM_clean_sbu_0, # of connection points: 4
#     Node 2, Type 0, BuildingBlock: NAHDIM_clean_sbu_0, # of connection points: 4
#     Node 3, Type 0, BuildingBlock: NAHDIM_clean_sbu_0, # of connection points: 4
#     Node 4, Type 0, BuildingBlock: NAHDIM_clean_sbu_0, # of connection points: 4
#     Node 5, Type 0, BuildingBlock: NAHDIM_clean_sbu_0, # of connection points: 4
#     Node 6, Type 0, BuildingBlock: NAHDIM_clean_sbu_0, # of connection points: 4
#     Node 7, Type 0, BuildingBlock: NAHDIM_clean_sbu_0, # of connection points: 4
#     Edge 8, Type (0, 0), BuildingBlock: XUDNAN_clean_linker_2, # of connection points: 2
#     Edge 9, Type (0, 0), BuildingBlock: XUDNAN_clean_linker_2, # of connection points: 2
#     Edge 10, Type (0, 0), BuildingBlock: XUDNAN_clean_linker_2, # of connection points: 2
#     Edge 11, Type (0, 0), BuildingBlock: XUDNAN_clean_linker_2, # of connection points: 2
#     Edge 12, Type (0, 0), BuildingBlock: XUDNAN_clean_linker_2, # of connection points: 2
#     Edge 13, Type (0, 0), BuildingBlock: XUDNAN_clean_linker_2, # of connection points: 2
#     Edge 14, Type (0, 0), BuildingBlock: XUDNAN_clean_linker_2, # of connection points: 2
#     Edge 15, Type (0, 0), BuildingBlock: XUDNAN_clean_linker_2, # of connection points: 2
#     Edge 16, Type (0, 0), BuildingBlock: XUDNAN_clean_linker_2, # of connection points: 2
#     Edge 17, Type (0, 0), BuildingBlock: XUDNAN_clean_linker_2, # of connection points: 2
#     Edge 18, Type (0, 0), BuildingBlock: XUDNAN_clean_linker_2, # of connection points: 2
#     Edge 19, Type (0, 0), BuildingBlock: XUDNAN_clean_linker_2, # of connection points: 2
#     Edge 20, Type (0, 0), BuildingBlock: XUDNAN_clean_linker_2, # of connection points: 2
#     Edge 21, Type (0, 0), BuildingBlock: XUDNAN_clean_linker_2, # of connection points: 2
#     Edge 22, Type (0, 0), BuildingBlock: XUDNAN_clean_linker_2, # of connection points: 2
#     Edge 23, Type (0, 0), BuildingBlock: XUDNAN_clean_linker_2, # of connection points: 2
# Relax obj value: 0.050
# Max RMSD: 0.062
# Mean RMSD: 0.062
data_MOF--net-mok--node1-NAHDIM_clean_sbu_0--edge1-XUDNAN_clean_linker_2
_symmetry_space_group_name_H-M    P1
_symmetry_Int_Tables_number       1
_symmetry_cell_setting            triclinic
loop_
_symmetry_equiv_pos_as_xyz
'x, y, z'
_cell_length_a     49.87541
_cell_length_b     20.013624
_cell_length_c     25.010471
_cell_angle_alpha  90.045277
_cell_angle_beta   90.007543
_cell_angle_gamma 89.986489
loop_
_atom_site_label
_atom_site_type_symbol
_atom_site_fract_x
_atom_site_fract_y
_atom_site_fract_z
_atom_type_partial_charge
C0 C 0.57036 0.17835 0.03066 0.0
O1 O 0.57768 0.18224 0.08102 0.0
O2 O 0.60508 0.35743 0.95401 0.0
Zn3 Zn 0.60971 0.28633 0.01026 0.0
O4 O 0.60812 0.32282 0.08583 0.0
C5 C 0.6671 0.28139 0.00744 0.0
O6 O 0.66399 0.34406 0.02189 0.0
O7 O 0.58126 0.21662 0.99644 0.0
C8 C 0.59854 0.3788 0.10061 0.0
O9 O 0.58745 0.41834 0.06507 0.0
C10 C 0.58236 0.3822 0.9422 0.0
O11 O 0.56109 0.3645 0.96973 0.0
O12 O 0.64638 0.2455 0.99989 0.0
C13 C 0.43498 0.82566 0.98078 0.0
O14 O 0.42213 0.80602 0.93768 0.0
O15 O 0.40985 0.65949 0.9613 0.0
Zn16 Zn 0.40547 0.71659 0.02722 0.0
O17 O 0.41316 0.66157 0.09291 0.0
C18 C 0.35097 0.74479 0.9923 0.0
O19 O 0.35985 0.72241 0.94621 0.0
O20 O 0.43092 0.79502 0.02453 0.0
C21 C 0.39678 0.61597 0.10642 0.0
O22 O 0.37559 0.60506 0.07641 0.0
C23 C 0.42895 0.61836 0.95439 0.0
O24 O 0.44733 0.61202 0.99169 0.0
O25 O 0.36701 0.74846 0.03176 0.0
C26 C 0.54609 0.78024 0.50037 0.0
O27 O 0.53932 0.71678 0.49999 0.0
O28 O 0.58637 0.67335 0.58501 0.0
Zn29 Zn 0.59701 0.7197 0.51593 0.0
O30 O 0.59469 0.6559 0.45283 0.0
C31 C 0.65216 0.73518 0.55473 0.0
O32 O 0.64463 0.69168 0.59097 0.0
O33 O 0.57071 0.7955 0.50549 0.0
C34 C 0.61426 0.61721 0.44244 0.0
O35 O 0.63574 0.61927 0.47278 0.0
C36 C 0.59309 0.61411 0.59754 0.0
O37 O 0.60771 0.57876 0.5643 0.0
O38 O 0.63519 0.75549 0.52033 0.0
C39 C 0.43238 0.18104 0.52304 0.0
O40 O 0.4475 0.23423 0.52933 0.0
O41 O 0.40647 0.32095 0.60138 0.0
Zn42 Zn 0.39075 0.27914 0.53486 0.0
O43 O 0.39991 0.3376 0.47181 0.0
C44 C 0.34005 0.26026 0.58852 0.0
O45 O 0.35602 0.25057 0.62958 0.0
O46 O 0.40701 0.18767 0.52392 0.0
C47 C 0.38539 0.33916 0.43007 0.0
O48 O 0.36382 0.30156 0.42783 0.0
C49 C 0.39689 0.37559 0.61893 0.0
O50 O 0.37701 0.40393 0.59295 0.0
O51 O 0.35032 0.2723 0.54298 0.0
C52 C 0.05781 0.70752 0.00565 0.0
O53 O 0.04093 0.75755 0.00105 0.0
O54 O 0.09057 0.8493 0.92594 0.0
Zn55 Zn 0.0981 0.81186 0.99925 0.0
O56 O 0.08353 0.87212 0.05664 0.0
C57 C 0.15501 0.79404 0.9746 0.0
O58 O 0.14644 0.78057 0.92611 0.0
O59 O 0.08286 0.71924 0.00605 0.0
C60 C 0.08961 0.93366 0.05383 0.0
O61 O 0.10324 0.95492 0.01222 0.0
C62 C 0.06871 0.87746 0.91262 0.0
O63 O 0.04938 0.88323 0.94799 0.0
O64 O 0.1381 0.80782 0.01099 0.0
C65 C 0.95986 0.28201 0.02301 0.0
O66 O 0.96856 0.22196 0.0352 0.0
O67 O 0.92675 0.14272 0.96023 0.0
Zn68 Zn 0.91347 0.20512 0.01815 0.0
O69 O 0.91882 0.16998 0.09289 0.0
C70 C 0.85934 0.17132 0.99467 0.0
O71 O 0.87109 0.11329 0.98723 0.0
O72 O 0.93506 0.28986 0.01294 0.0
C73 C 0.9152 0.11073 0.1096 0.0
O74 O 0.90759 0.06393 0.07604 0.0
C75 C 0.9433 0.09459 0.96401 0.0
O76 O 0.95386 0.07953 0.01055 0.0
O77 O 0.87368 0.22137 0.00766 0.0
C78 C 0.04872 0.29072 0.49646 0.0
O79 O 0.04116 0.22948 0.48498 0.0
O80 O 0.08168 0.15286 0.55292 0.0
Zn81 Zn 0.09679 0.2201 0.50103 0.0
O82 O 0.09483 0.18761 0.42496 0.0
C83 C 0.14292 0.24734 0.56792 0.0
O84 O 0.12477 0.24497 0.60595 0.0
O85 O 0.07338 0.30179 0.5059 0.0
C86 C 0.08298 0.13501 0.40905 0.0
O87 O 0.07146 0.09551 0.4441 0.0
C88 C 0.09514 0.10423 0.57143 0.0
O89 O 0.11976 0.09457 0.5544 0.0
O90 O 0.13554 0.24004 0.51961 0.0
C91 C 0.94276 0.70314 0.5261 0.0
O92 O 0.95868 0.75333 0.53794 0.0
O93 O 0.91912 0.83832 0.60586 0.0
Zn94 Zn 0.90464 0.80736 0.53432 0.0
O95 O 0.91683 0.86521 0.47318 0.0
C96 C 0.84854 0.77603 0.5625 0.0
O97 O 0.85876 0.73354 0.59695 0.0
O98 O 0.91773 0.71379 0.52177 0.0
C99 C 0.90803 0.92463 0.46965 0.0
O100 O 0.89242 0.94812 0.50759 0.0
C101 C 0.93369 0.88963 0.61326 0.0
O102 O 0.94012 0.92785 0.57263 0.0
O103 O 0.86417 0.81073 0.53357 0.0
H104 H 0.82746 0.28102 0.01532 0.0
H105 H 0.82422 0.07364 0.96445 0.0
H106 H 0.77493 0.08 0.96035 0.0
H107 H 0.76984 0.27574 0.0995 0.0
H108 H 0.7584 0.35843 0.08235 0.0
H109 H 0.7936 0.33872 0.07926 0.0
H110 H 0.79501 0.37651 0.98022 0.0
H111 H 0.75982 0.39654 0.98306 0.0
H112 H 0.77212 0.33966 0.93282 0.0
H113 H 0.7259 0.10736 0.96443 0.0
H114 H 0.6805 0.15464 0.97545 0.0
H115 H 0.71542 0.34416 0.02358 0.0
C116 C 0.81641 0.2371 0.0029 0.0
C117 C 0.82978 0.17684 0.99015 0.0
C118 C 0.81451 0.12041 0.9744 0.0
C119 C 0.78645 0.12348 0.97191 0.0
C120 C 0.7739 0.18336 0.9852 0.0
C121 C 0.78834 0.23925 0.00023 0.0
C122 C 0.76984 0.29704 0.01347 0.0
C123 C 0.77312 0.31873 0.07213 0.0
C124 C 0.77448 0.35591 0.97509 0.0
C125 C 0.74278 0.26467 0.00396 0.0
C126 C 0.74558 0.19914 0.98755 0.0
C127 C 0.72344 0.15873 0.97706 0.0
C128 C 0.69773 0.18602 0.9835 0.0
C129 C 0.69434 0.25312 0.00032 0.0
C130 C 0.71727 0.29276 0.01053 0.0
H131 H 0.19672 0.76124 0.90762 0.0
H132 H 0.17911 0.8254 0.06979 0.0
H133 H 0.22741 0.82374 0.09097 0.0
H134 H 0.24947 0.64832 0.94156 0.0
H135 H 0.26951 0.66769 0.88364 0.0
H136 H 0.2336 0.67603 0.88071 0.0
H137 H 0.23873 0.79948 0.8512 0.0
H138 H 0.27468 0.79153 0.85414 0.0
H139 H 0.25806 0.85616 0.89188 0.0
H140 H 0.27757 0.81273 0.09524 0.0
H141 H 0.32591 0.79125 0.08258 0.0
H142 H 0.31079 0.73434 0.9177 0.0
C143 C 0.203 0.77522 0.94754 0.0
C144 C 0.18407 0.7935 0.98701 0.0
C145 C 0.19318 0.81118 0.03883 0.0
C146 C 0.2206 0.81053 0.05126 0.0
C147 C 0.2387 0.79216 0.01147 0.0
C148 C 0.23029 0.77477 0.96067 0.0
C149 C 0.25382 0.75555 0.92557 0.0
C150 C 0.25145 0.68256 0.90679 0.0
C151 C 0.25647 0.80356 0.87788 0.0
C152 C 0.27673 0.76434 0.96469 0.0
C153 C 0.2676 0.78576 0.01395 0.0
C154 C 0.28498 0.7962 0.05678 0.0
C155 C 0.31242 0.78388 0.04917 0.0
C156 C 0.3222 0.76124 0.99914 0.0
C157 C 0.30403 0.75192 0.95637 0.0
H158 H 0.80887 0.7073 0.61562 0.0
H159 H 0.8215 0.85986 0.49483 0.0
H160 H 0.77261 0.86944 0.4823 0.0
H161 H 0.75434 0.62612 0.55066 0.0
H162 H 0.73637 0.60849 0.61156 0.0
H163 H 0.77235 0.61553 0.6126 0.0
H164 H 0.76903 0.70705 0.68569 0.0
H165 H 0.73301 0.70031 0.68481 0.0
H166 H 0.74877 0.78015 0.67373 0.0
H167 H 0.72231 0.85929 0.48018 0.0
H168 H 0.67436 0.83011 0.48908 0.0
H169 H 0.69458 0.6854 0.61192 0.0
C170 C 0.80138 0.74306 0.58679 0.0
C171 C 0.81909 0.78284 0.55626 0.0
C172 C 0.80839 0.82881 0.51876 0.0
C173 C 0.78062 0.83472 0.51136 0.0
C174 C 0.76374 0.79452 0.54187 0.0
C175 C 0.77369 0.74969 0.57892 0.0
C176 C 0.75124 0.71124 0.60566 0.0
C177 C 0.75373 0.63589 0.59442 0.0
C178 C 0.75047 0.72557 0.66606 0.0
C179 C 0.72715 0.74103 0.57751 0.0
C180 C 0.73477 0.78908 0.54093 0.0
C181 C 0.71608 0.82207 0.50898 0.0
C182 C 0.68889 0.80514 0.5143 0.0
C183 C 0.68065 0.75573 0.55135 0.0
C184 C 0.70014 0.72385 0.58357 0.0
H185 H 0.18588 0.25708 0.49908 0.0
H186 H 0.16534 0.25018 0.66773 0.0
H187 H 0.21337 0.25405 0.69099 0.0
H188 H 0.2438 0.15325 0.50676 0.0
H189 H 0.26287 0.20019 0.45845 0.0
H190 H 0.22681 0.19905 0.45476 0.0
H191 H 0.22583 0.32841 0.4585 0.0
H192 H 0.26191 0.32996 0.46197 0.0
H193 H 0.24232 0.37109 0.51284 0.0
H194 H 0.26354 0.25389 0.69609 0.0
H195 H 0.31253 0.25452 0.68286 0.0
H196 H 0.30078 0.26369 0.51096 0.0
C197 C 0.19145 0.25687 0.54093 0.0
C198 C 0.17177 0.25335 0.58159 0.0
C199 C 0.17997 0.25305 0.63584 0.0
C200 C 0.20724 0.25512 0.64949 0.0
C201 C 0.2261 0.25787 0.60847 0.0
C202 C 0.2186 0.25924 0.5553 0.0
C203 C 0.24295 0.26178 0.51902 0.0
C204 C 0.24417 0.19987 0.48261 0.0
C205 C 0.24326 0.32668 0.48615 0.0
C206 C 0.26529 0.26102 0.56012 0.0
C207 C 0.2551 0.25864 0.61145 0.0
C208 C 0.27176 0.25613 0.65609 0.0
C209 C 0.29959 0.25631 0.64812 0.0
C210 C 0.31055 0.25926 0.5959 0.0
C211 C 0.29306 0.26172 0.5514 0.0
H212 H 0.57694 0.4903 0.1487 0.0
H213 H 0.62753 0.31792 0.1796 0.0
H214 H 0.63527 0.35799 0.27152 0.0
H215 H 0.6155 0.60797 0.22105 0.0
H216 H 0.58717 0.65342 0.24714 0.0
H217 H 0.58437 0.60971 0.18445 0.0
H218 H 0.54348 0.54395 0.22062 0.0
H219 H 0.54611 0.58762 0.28343 0.0
H220 H 0.54659 0.49758 0.28208 0.0
H221 H 0.64066 0.42088 0.35709 0.0
H222 H 0.64104 0.49939 0.43327 0.0
H223 H 0.58524 0.62849 0.34937 0.0
C224 C 0.58943 0.46061 0.17495 0.0
C225 C 0.60165 0.40095 0.15683 0.0
C226 C 0.61788 0.36366 0.1925 0.0
C227 C 0.62243 0.38603 0.24483 0.0
C228 C 0.61038 0.4454 0.26117 0.0
C229 C 0.59398 0.48188 0.22758 0.0
C230 C 0.58388 0.54469 0.25496 0.0
C231 C 0.5933 0.60765 0.22512 0.0
C232 C 0.55319 0.54334 0.26061 0.0
C233 C 0.59753 0.53828 0.30888 0.0
C234 C 0.6128 0.48072 0.31145 0.0
C235 C 0.62851 0.46565 0.35587 0.0
C236 C 0.62867 0.51065 0.39882 0.0
C237 C 0.61301 0.56962 0.39733 0.0
C238 C 0.59705 0.5832 0.35191 0.0
H239 H 0.36369 0.52078 0.14947 0.0
H240 H 0.43889 0.62469 0.1767 0.0
H241 H 0.44472 0.56334 0.26158 0.0
H242 H 0.34155 0.52214 0.28473 0.0
H243 H 0.32658 0.44025 0.28167 0.0
H244 H 0.32886 0.49046 0.22214 0.0
H245 H 0.35429 0.39487 0.17394 0.0
H246 H 0.35204 0.34427 0.2333 0.0
H247 H 0.38428 0.36099 0.20367 0.0
H248 H 0.44158 0.49302 0.34497 0.0
H249 H 0.43 0.41824 0.41998 0.0
H250 H 0.35688 0.36046 0.33777 0.0
C251 C 0.38149 0.53039 0.17303 0.0
C252 C 0.40085 0.57755 0.15635 0.0
C253 C 0.42379 0.58879 0.1886 0.0
C254 C 0.42728 0.55417 0.23688 0.0
C255 C 0.40769 0.50845 0.25231 0.0
C256 C 0.38528 0.49639 0.22128 0.0
C257 C 0.36694 0.4457 0.24735 0.0
C258 C 0.33935 0.4765 0.25971 0.0
C259 C 0.36424 0.38272 0.21249 0.0
C260 C 0.38244 0.43137 0.29809 0.0
C261 C 0.40591 0.46797 0.30019 0.0
C262 C 0.42331 0.46391 0.34365 0.0
C263 C 0.41653 0.42133 0.3861 0.0
C264 C 0.39255 0.38335 0.38478 0.0
C265 C 0.3754 0.38855 0.33998 0.0
H266 H 0.39445 0.62197 0.86921 0.0
H267 H 0.46552 0.52088 0.92852 0.0
H268 H 0.46598 0.44957 0.84776 0.0
H269 H 0.36263 0.4791 0.81432 0.0
H270 H 0.34931 0.52263 0.75712 0.0
H271 H 0.35527 0.56715 0.81854 0.0
H272 H 0.38546 0.65159 0.76812 0.0
H273 H 0.37955 0.60739 0.70646 0.0
H274 H 0.41338 0.62129 0.72927 0.0
H275 H 0.45731 0.3859 0.76192 0.0
H276 H 0.4409 0.33706 0.67717 0.0
H277 H 0.37601 0.48163 0.6743 0.0
C278 C 0.41023 0.58511 0.86522 0.0
C279 C 0.42993 0.57696 0.90531 0.0
C280 C 0.4502 0.52806 0.89838 0.0
C281 C 0.45063 0.48732 0.85264 0.0
C282 C 0.43074 0.49633 0.81413 0.0
C283 C 0.411 0.54427 0.81988 0.0
C284 C 0.39168 0.54339 0.77321 0.0
C285 C 0.36304 0.52708 0.79193 0.0
C286 C 0.39259 0.60987 0.74245 0.0
C287 C 0.40343 0.48692 0.7405 0.0
C288 C 0.42596 0.4604 0.76467 0.0
C289 C 0.43979 0.40657 0.74248 0.0
C290 C 0.43029 0.3791 0.69439 0.0
C291 C 0.40723 0.40563 0.66897 0.0
C292 C 0.3938 0.46046 0.69244 0.0
H293 H 0.61515 0.38734 0.85506 0.0
H294 H 0.54297 0.47437 0.92234 0.0
H295 H 0.53781 0.54481 0.84156 0.0
H296 H 0.64045 0.53418 0.78914 0.0
H297 H 0.65213 0.48865 0.73146 0.0
H298 H 0.65065 0.44814 0.79565 0.0
H299 H 0.62088 0.35475 0.75517 0.0
H300 H 0.62216 0.39513 0.69091 0.0
H301 H 0.59023 0.37694 0.72134 0.0
H302 H 0.54148 0.60758 0.75358 0.0
H303 H 0.55191 0.6519 0.66348 0.0
H304 H 0.61969 0.51673 0.65236 0.0
C305 C 0.59843 0.42182 0.85311 0.0
C306 C 0.57963 0.42617 0.89513 0.0
C307 C 0.55767 0.47065 0.89059 0.0
C308 C 0.55461 0.51083 0.84496 0.0
C309 C 0.57346 0.505 0.80403 0.0
C310 C 0.5948 0.46111 0.80754 0.0
C311 C 0.61156 0.46178 0.75715 0.0
C312 C 0.6404 0.48457 0.76908 0.0
C313 C 0.61117 0.39307 0.72952 0.0
C314 C 0.59651 0.51338 0.7248 0.0
C315 C 0.57474 0.53827 0.75262 0.0
C316 C 0.55836 0.58805 0.7313 0.0
C317 C 0.56443 0.61295 0.68022 0.0
C318 C 0.58643 0.58724 0.65086 0.0
C319 C 0.60252 0.53665 0.67354 0.0
H320 H 0.06891 0.90156 0.1524 0.0
H321 H 0.10015 0.06738 0.05946 0.0
H322 H 0.09796 0.13959 0.13917 0.0
H323 H 0.02384 0.00386 0.23991 0.0
H324 H 0.03075 0.95252 0.29744 0.0
H325 H 0.0312 0.91631 0.23144 0.0
H326 H 0.07952 0.87337 0.24809 0.0
H327 H 0.07935 0.90995 0.31379 0.0
H328 H 0.10534 0.9319 0.26691 0.0
H329 H 0.09792 0.18951 0.23019 0.0
H330 H 0.0979 0.21598 0.32639 0.0
H331 H 0.06624 0.01855 0.36101 0.0
C332 C 0.07464 0.95351 0.14846 0.0
C333 C 0.08469 0.97883 0.09964 0.0
C334 C 0.09236 0.04684 0.09636 0.0
C335 C 0.09114 0.08834 0.14142 0.0
C336 C 0.08197 0.06128 0.18932 0.0
C337 C 0.07352 0.9957 0.19308 0.0
C338 C 0.06628 0.97788 0.2502 0.0
C339 C 0.03623 0.96171 0.25502 0.0
C340 C 0.08367 0.91986 0.27094 0.0
C341 C 0.07306 0.04286 0.27822 0.0
C342 C 0.08178 0.09048 0.24221 0.0
C343 C 0.09072 0.15306 0.25872 0.0
C344 C 0.09078 0.16744 0.31352 0.0
C345 C 0.08202 0.11939 0.35126 0.0
C346 C 0.07281 0.05654 0.33313 0.0
H347 H 0.91986 0.8802 0.36896 0.0
H348 H 0.90764 0.06052 0.46218 0.0
H349 H 0.91285 0.12859 0.38044 0.0
H350 H 0.96793 0.95133 0.27036 0.0
H351 H 0.95351 0.90455 0.21589 0.0
H352 H 0.953 0.87079 0.28268 0.0
H353 H 0.90137 0.85745 0.27666 0.0
H354 H 0.9017 0.89148 0.21013 0.0
H355 H 0.881 0.92923 0.26094 0.0
H356 H 0.91627 0.17622 0.28849 0.0
H357 H 0.91476 0.20027 0.19187 0.0
H358 H 0.92178 0.98834 0.15744 0.0
C359 C 0.91898 0.93411 0.37231 0.0
C360 C 0.91366 0.96534 0.42185 0.0
C361 C 0.91184 0.0358 0.42455 0.0
C362 C 0.91489 0.07481 0.37844 0.0
C363 C 0.91956 0.04245 0.32997 0.0
C364 C 0.92152 0.97369 0.3265 0.0
C365 C 0.92393 0.95101 0.26887 0.0
C366 C 0.95122 0.91745 0.25888 0.0
C367 C 0.90061 0.90457 0.25326 0.0
C368 C 0.9221 0.01759 0.24041 0.0
C369 C 0.92027 0.06976 0.27648 0.0
C370 C 0.91786 0.13585 0.25985 0.0
C371 C 0.91701 0.14897 0.20488 0.0
C372 C 0.91803 0.09612 0.1672 0.0
C373 C 0.92086 0.02969 0.18534 0.0
H374 H 0.93802 0.01516 0.65403 0.0
H375 H 0.94648 0.80611 0.69568 0.0
H376 H 0.95679 0.83785 0.7892 0.0
H377 H 0.98831 0.08543 0.75022 0.0
H378 H 0.9672 0.15641 0.76397 0.0
H379 H 0.96632 0.11731 0.69902 0.0
H380 H 0.9148 0.10184 0.70912 0.0
H381 H 0.91589 0.13966 0.77427 0.0
H382 H 0.90192 0.05721 0.76622 0.0
H383 H 0.96261 0.89223 0.87946 0.0
H384 H 0.95809 0.96289 0.96029 0.0
H385 H 0.94166 0.13482 0.86007 0.0
C386 C 0.94281 0.97629 0.68258 0.0
C387 C 0.94189 0.90836 0.66782 0.0
C388 C 0.94729 0.85852 0.70644 0.0
C389 C 0.95335 0.87611 0.75942 0.0
C390 C 0.95356 0.94367 0.7731 0.0
C391 C 0.9482 0.99295 0.73581 0.0
C392 C 0.94586 0.0609 0.76195 0.0
C393 C 0.96826 0.10776 0.74262 0.0
C394 C 0.91796 0.09165 0.75233 0.0
C395 C 0.9498 0.0419 0.81993 0.0
C396 C 0.95509 0.97447 0.82547 0.0
C397 C 0.95862 0.94516 0.87557 0.0
C398 C 0.95605 0.98559 0.9212 0.0
C399 C 0.94934 0.05401 0.91625 0.0
C400 C 0.94668 0.08252 0.86494 0.0
H401 H 0.10696 0.88598 0.8347 0.0
H402 H 0.02389 0.93539 0.8685 0.0
H403 H 0.02014 0.9895 0.78001 0.0
H404 H 0.1236 0.03652 0.77352 0.0
H405 H 0.14557 7e-05 0.72426 0.0
H406 H 0.14066 0.95902 0.78743 0.0
H407 H 0.12581 0.85112 0.73827 0.0
H408 H 0.13069 0.89189 0.67479 0.0
H409 H 0.09873 0.85484 0.69062 0.0
H410 H 0.02696 0.04704 0.69105 0.0
H411 H 0.04371 0.10414 0.61016 0.0
H412 H 0.12224 0.016 0.63521 0.0
C413 C 0.08783 0.90723 0.82327 0.0
C414 C 0.06571 0.90635 0.85851 0.0
C415 C 0.04113 0.93545 0.84216 0.0
C416 C 0.03878 0.96613 0.7919 0.0
C417 C 0.06118 0.96704 0.75849 0.0
C418 C 0.08519 0.93811 0.7735 0.0
C419 C 0.10678 0.94943 0.73199 0.0
C420 C 0.13054 0.9886 0.75573 0.0
C421 C 0.11604 0.88285 0.70746 0.0
C422 C 0.09141 0.99088 0.69182 0.0
C423 C 0.06507 -7e-05 0.70746 0.0
C424 C 0.04746 0.0397 0.67818 0.0
C425 C 0.05718 0.07197 0.63231 0.0
C426 C 0.08427 0.06432 0.61623 0.0
C427 C 0.10136 0.02219 0.64599 0.0
H428 H 0.46459 0.88028 0.06284 0.0
H429 H 0.44913 0.89825 0.89255 0.0
H430 H 0.48167 0.99079 0.88726 0.0
H431 H 0.47174 0.05712 0.08908 0.0
H432 H 0.49819 0.04597 0.13736 0.0
H433 H 0.47345 0.98146 0.12801 0.0
H434 H 0.51115 0.8956 0.10889 0.0
H435 H 0.536 0.95983 0.11813 0.0
H436 H 0.53519 0.9125 0.05681 0.0
H437 H 0.51621 0.08015 0.89995 0.0
H438 H 0.55035 0.16101 0.92976 0.0
H439 H 0.54346 0.08567 0.09203 0.0
C440 C 0.46798 0.90374 0.02444 0.0
C441 C 0.45426 0.88192 0.97808 0.0
C442 C 0.45934 0.91403 0.92863 0.0
C443 C 0.4778 0.96668 0.9252 0.0
C444 C 0.49101 0.98679 0.97157 0.0
C445 C 0.48633 0.95647 0.02028 0.0
C446 C 0.50333 0.98756 0.06399 0.0
C447 C 0.48562 0.01995 0.10715 0.0
C448 C 0.52256 0.93578 0.08837 0.0
C449 C 0.51841 0.03984 0.03213 0.0
C450 C 0.51095 0.03854 0.97893 0.0
C451 C 0.52219 0.08173 0.94153 0.0
C452 C 0.5416 0.12749 0.95891 0.0
C453 C 0.54964 0.12981 0.01327 0.0
C454 C 0.53777 0.0853 0.05024 0.0
H455 H 0.55235 0.91651 0.50988 0.0
H456 H 0.49218 0.76245 0.48637 0.0
H457 H 0.45674 0.84836 0.48709 0.0
H458 H 0.51442 0.01569 0.60028 0.0
H459 H 0.52613 0.09452 0.57448 0.0
H460 H 0.54701 0.02139 0.56943 0.0
H461 H 0.55042 0.03779 0.46689 0.0
H462 H 0.52962 0.11116 0.47165 0.0
H463 H 0.52018 0.04376 0.42767 0.0
H464 H 0.42757 0.95039 0.49396 0.0
H465 H 0.4069 0.06165 0.50522 0.0
H466 H 0.48597 0.14934 0.52417 0.0
C467 C 0.53176 0.90086 0.50434 0.0
C468 C 0.52509 0.83263 0.49797 0.0
C469 C 0.49784 0.81433 0.49127 0.0
C470 C 0.47752 0.86279 0.4916 0.0
C471 C 0.48474 0.92944 0.49857 0.0
C472 C 0.51119 0.9486 0.50463 0.0
C473 C 0.51347 0.02343 0.5128 0.0
C474 C 0.52599 0.03968 0.5675 0.0
C475 C 0.52936 0.05594 0.46701 0.0
C476 C 0.48415 0.0432 0.51091 0.0
C477 C 0.46792 0.98828 0.50251 0.0
C478 C 0.44008 0.99385 0.50028 0.0
C479 C 0.42852 0.05727 0.50681 0.0
C480 C 0.44477 0.11434 0.51551 0.0
C481 C 0.47296 0.10686 0.51739 0.0
H482 H 0.00588 0.66322 0.99622 0.0
H483 H 0.08729 0.5948 0.02484 0.0
H484 H 0.07091 0.47892 0.032 0.0
H485 H 0.97328 0.5501 0.08684 0.0
H486 H 0.94464 0.53688 0.04415 0.0
H487 H 0.9627 0.61472 0.04128 0.0
H488 H 0.96995 0.59861 0.93948 0.0
H489 H 0.95193 0.52069 0.94203 0.0
H490 H 0.9855 0.52302 0.91544 0.0
H491 H 0.04596 0.37114 0.03674 0.0
H492 H 0.014 0.27741 0.03796 0.0
H493 H 0.94866 0.41502 0.00519 0.0
C494 C 0.02027 0.62392 0.00409 0.0
C495 C 0.04788 0.63813 0.01006 0.0
C496 C 0.06606 0.58518 0.02008 0.0
C497 C 0.05696 0.51917 0.02424 0.0
C498 C 0.02965 0.50691 0.0181 0.0
C499 C 0.01156 0.55766 0.00813 0.0
C500 C 0.98328 0.53071 0.00284 0.0
C501 C 0.96489 0.55983 0.04638 0.0
C502 C 0.97201 0.54405 0.9466 0.0
C503 C 0.98832 0.4569 0.01166 0.0
C504 C 0.01522 0.44439 0.0204 0.0
C505 C 0.02485 0.38023 0.02987 0.0
C506 C 0.00649 0.32732 0.0305 0.0
C507 C 0.9788 0.3388 0.02163 0.0
C508 C 0.96969 0.40458 0.01199 0.0
H509 H 0.05707 0.42375 0.51912 0.0
H510 H 0.99494 0.28075 0.4776 0.0
H511 H 0.96119 0.37062 0.48022 0.0
H512 H 0.01734 0.52059 0.61079 0.0
H513 H 0.03177 0.59936 0.59106 0.0
H514 H 0.05119 0.52377 0.58565 0.0
H515 H 0.0593 0.54756 0.48508 0.0
H516 H 0.03989 0.6232 0.49019 0.0
H517 H 0.03099 0.56059 0.44148 0.0
H518 H 0.93407 0.47559 0.48764 0.0
H519 H 0.91548 0.589 0.49946 0.0
H520 H 0.99519 0.66367 0.5359 0.0
C521 C 0.03638 0.41133 0.51055 0.0
C522 C 0.02867 0.34517 0.49815 0.0
C523 C 1.00137 0.33103 0.48721 0.0
C524 C 0.98201 0.38174 0.48858 0.0
C525 C 0.99026 0.44635 0.50093 0.0
C526 C 0.01677 0.46136 0.51173 0.0
C527 C 0.02027 0.53495 0.52403 0.0
C528 C 0.03076 0.54524 0.58129 0.0
C529 C 0.0387 0.56854 0.48272 0.0
C530 C 0.99159 0.55885 0.51846 0.0
C531 C 0.9746 0.50696 0.50513 0.0
C532 C 0.94717 0.51669 0.49805 0.0
C533 C 0.9368 0.58128 0.50485 0.0
C534 C 0.95386 0.63524 0.51856 0.0
C535 C 0.98161 0.62357 0.52533 0.0
loop_
_geom_bond_atom_site_label_1
_geom_bond_atom_site_label_2
_geom_bond_distance
_geom_bond_site_symmetry_2
_ccdc_geom_bond_type
C0 O1 1.160 1_554 S
C0 O7 1.185 . S
O1 C0 1.160 1_556 S
O2 Zn3 1.899 1_556 S
O2 C10 1.284 . S
Zn3 O2 1.899 1_554 S
Zn3 O4 2.032 . S
Zn3 O7 2.086 . S
Zn3 O12 1.977 . S
O4 Zn3 2.032 . S
O4 C8 1.278 . S
C5 O6 1.203 1_554 S
C5 O12 1.267 . S
O6 C5 1.203 1_556 S
O7 C0 1.185 . S
O7 Zn3 2.086 . S
C8 O4 1.278 . S
C8 O9 1.211 . S
O9 C8 1.211 . S
C10 O2 1.284 . S
C10 O11 1.273 . S
O11 C10 1.273 . S
O12 Zn3 1.977 . S
O12 C5 1.267 . S
C13 O14 1.160 1_554 S
C13 O20 1.185 . S
O14 C13 1.160 1_556 S
O15 Zn16 1.899 1_556 S
O15 C23 1.284 . S
Zn16 O15 1.899 1_554 S
Zn16 O17 2.032 . S
Zn16 O20 2.086 . S
Zn16 O25 1.977 . S
O17 Zn16 2.032 . S
O17 C21 1.278 . S
C18 O19 1.203 1_554 S
C18 O25 1.267 . S
O19 C18 1.203 1_556 S
O20 C13 1.185 . S
O20 Zn16 2.086 . S
C21 O17 1.278 . S
C21 O22 1.211 . S
O22 C21 1.211 . S
C23 O15 1.284 . S
C23 O24 1.273 . S
O24 C23 1.273 . S
O25 Zn16 1.977 . S
O25 C18 1.267 . S
C26 O27 1.160 . S
C26 O33 1.185 . S
O27 C26 1.160 . S
O28 Zn29 1.899 . S
O28 C36 1.284 . S
Zn29 O28 1.899 . S
Zn29 O30 2.032 . S
Zn29 O33 2.086 . S
Zn29 O38 1.977 . S
O30 Zn29 2.032 . S
O30 C34 1.278 . S
C31 O32 1.203 . S
C31 O38 1.267 . S
O32 C31 1.203 . S
O33 C26 1.185 . S
O33 Zn29 2.086 . S
C34 O30 1.278 . S
C34 O35 1.211 . S
O35 C34 1.211 . S
C36 O28 1.284 . S
C36 O37 1.273 . S
O37 C36 1.273 . S
O38 Zn29 1.977 . S
O38 C31 1.267 . S
C39 O40 1.160 . S
C39 O46 1.185 . S
O40 C39 1.160 . S
O41 Zn42 1.899 . S
O41 C49 1.284 . S
Zn42 O41 1.899 . S
Zn42 O43 2.032 . S
Zn42 O46 2.086 . S
Zn42 O51 1.977 . S
O43 Zn42 2.032 . S
O43 C47 1.278 . S
C44 O45 1.203 . S
C44 O51 1.267 . S
O45 C44 1.203 . S
O46 C39 1.185 . S
O46 Zn42 2.086 . S
C47 O43 1.278 . S
C47 O48 1.211 . S
O48 C47 1.211 . S
C49 O41 1.284 . S
C49 O50 1.273 . S
O50 C49 1.273 . S
O51 Zn42 1.977 . S
O51 C44 1.267 . S
C52 O53 1.160 1_554 S
C52 O59 1.185 . S
O53 C52 1.160 1_556 S
O54 Zn55 1.899 1_556 S
O54 C62 1.284 . S
Zn55 O54 1.899 1_554 S
Zn55 O56 2.032 . S
Zn55 O59 2.086 . S
Zn55 O64 1.977 . S
O56 Zn55 2.032 . S
O56 C60 1.278 . S
C57 O58 1.203 1_554 S
C57 O64 1.267 . S
O58 C57 1.203 1_556 S
O59 C52 1.185 . S
O59 Zn55 2.086 . S
C60 O56 1.278 . S
C60 O61 1.211 . S
O61 C60 1.211 . S
C62 O54 1.284 . S
C62 O63 1.273 . S
O63 C62 1.273 . S
O64 Zn55 1.977 . S
O64 C57 1.267 . S
C65 O66 1.160 1_554 S
C65 O72 1.185 . S
O66 C65 1.160 1_556 S
O67 Zn68 1.899 1_556 S
O67 C75 1.284 . S
Zn68 O67 1.899 1_554 S
Zn68 O69 2.032 . S
Zn68 O72 2.086 . S
Zn68 O77 1.977 . S
O69 Zn68 2.032 . S
O69 C73 1.278 . S
C70 O71 1.203 1_554 S
C70 O77 1.267 . S
O71 C70 1.203 1_556 S
O72 C65 1.185 . S
O72 Zn68 2.086 . S
C73 O69 1.278 . S
C73 O74 1.211 . S
O74 C73 1.211 . S
C75 O67 1.284 . S
C75 O76 1.273 . S
O76 C75 1.273 . S
O77 Zn68 1.977 . S
O77 C70 1.267 . S
C78 O79 1.160 . S
C78 O85 1.185 . S
O79 C78 1.160 . S
O80 Zn81 1.899 . S
O80 C88 1.284 . S
Zn81 O80 1.899 . S
Zn81 O82 2.032 . S
Zn81 O85 2.086 . S
Zn81 O90 1.977 . S
O82 Zn81 2.032 . S
O82 C86 1.278 . S
C83 O84 1.203 . S
C83 O90 1.267 . S
O84 C83 1.203 . S
O85 C78 1.185 . S
O85 Zn81 2.086 . S
C86 O82 1.278 . S
C86 O87 1.211 . S
O87 C86 1.211 . S
C88 O80 1.284 . S
C88 O89 1.273 . S
O89 C88 1.273 . S
O90 Zn81 1.977 . S
O90 C83 1.267 . S
C91 O92 1.160 . S
C91 O98 1.185 . S
O92 C91 1.160 . S
O93 Zn94 1.899 . S
O93 C101 1.284 . S
Zn94 O93 1.899 . S
Zn94 O95 2.032 . S
Zn94 O98 2.086 . S
Zn94 O103 1.977 . S
O95 Zn94 2.032 . S
O95 C99 1.278 . S
C96 O97 1.203 . S
C96 O103 1.267 . S
O97 C96 1.203 . S
O98 C91 1.185 . S
O98 Zn94 2.086 . S
C99 O95 1.278 . S
C99 O100 1.211 . S
O100 C99 1.211 . S
C101 O93 1.284 . S
C101 O102 1.273 . S
O102 C101 1.273 . S
O103 Zn94 1.977 . S
O103 C96 1.267 . S
H104 C116 0.930 . S
H105 C118 0.930 . S
H106 C119 0.930 . S
H107 C123 0.959 . S
H108 C123 0.959 . S
H109 C123 0.961 . S
H110 C124 0.960 . S
H111 C124 0.961 . S
H112 C124 0.959 . S
H113 C127 0.929 . S
H114 C128 0.931 . S
H115 C130 0.930 . S
C116 H104 0.930 . S
C116 C117 1.399 1_556 S
C116 C121 1.399 . S
C117 C116 1.399 1_554 S
C117 C118 1.376 . S
C118 H105 0.930 . S
C118 C117 1.376 . S
C118 C119 1.388 . S
C119 H106 0.930 . S
C119 C118 1.388 . S
C119 C120 1.390 . S
C120 C119 1.390 . S
C120 C121 1.394 1_554 S
C120 C126 1.465 . S
C121 C116 1.399 . S
C121 C120 1.394 1_556 S
C121 C122 1.516 . S
C122 C121 1.516 . S
C122 C123 1.502 . S
C122 C124 1.561 . S
C122 C125 1.526 . S
C123 H107 0.959 . S
C123 H108 0.959 . S
C123 H109 0.961 . S
C123 C122 1.502 . S
C124 H110 0.960 . S
C124 H111 0.961 . S
C124 H112 0.959 . S
C124 C122 1.561 . S
C125 C122 1.526 . S
C125 C126 1.396 1_556 S
C125 C130 1.390 . S
C126 C120 1.465 . S
C126 C125 1.396 1_554 S
C126 C127 1.399 . S
C127 H113 0.929 . S
C127 C126 1.399 . S
C127 C128 1.385 . S
C128 H114 0.931 . S
C128 C127 1.385 . S
C128 C129 1.389 . S
C129 C128 1.389 . S
C129 C130 1.387 1_554 S
C130 H115 0.930 . S
C130 C125 1.390 . S
C130 C129 1.387 1_556 S
H131 C143 0.930 . S
H132 C145 0.930 . S
H133 C146 0.930 . S
H134 C150 0.959 . S
H135 C150 0.959 . S
H136 C150 0.961 . S
H137 C151 0.960 . S
H138 C151 0.961 . S
H139 C151 0.959 . S
H140 C154 0.929 . S
H141 C155 0.931 . S
H142 C157 0.930 . S
C143 H131 0.930 . S
C143 C144 1.399 1_556 S
C143 C148 1.399 . S
C144 C143 1.399 1_554 S
C144 C145 1.376 . S
C145 H132 0.930 . S
C145 C144 1.376 . S
C145 C146 1.388 . S
C146 H133 0.930 . S
C146 C145 1.388 . S
C146 C147 1.390 . S
C147 C146 1.390 . S
C147 C148 1.394 1_554 S
C147 C153 1.465 . S
C148 C143 1.399 . S
C148 C147 1.394 1_556 S
C148 C149 1.516 . S
C149 C148 1.516 . S
C149 C150 1.502 . S
C149 C151 1.561 . S
C149 C152 1.526 . S
C150 H134 0.959 . S
C150 H135 0.959 . S
C150 H136 0.961 . S
C150 C149 1.502 . S
C151 H137 0.960 . S
C151 H138 0.961 . S
C151 H139 0.959 . S
C151 C149 1.561 . S
C152 C149 1.526 . S
C152 C153 1.396 1_556 S
C152 C157 1.390 . S
C153 C147 1.465 . S
C153 C152 1.396 1_554 S
C153 C154 1.399 . S
C154 H140 0.929 . S
C154 C153 1.399 . S
C154 C155 1.385 . S
C155 H141 0.931 . S
C155 C154 1.385 . S
C155 C156 1.389 . S
C156 C155 1.389 . S
C156 C157 1.387 1_554 S
C157 H142 0.930 . S
C157 C152 1.390 . S
C157 C156 1.387 1_556 S
H158 C170 0.930 . S
H159 C172 0.930 . S
H160 C173 0.930 . S
H161 C177 0.959 . S
H162 C177 0.959 . S
H163 C177 0.961 . S
H164 C178 0.960 . S
H165 C178 0.961 . S
H166 C178 0.959 . S
H167 C181 0.929 . S
H168 C182 0.931 . S
H169 C184 0.930 . S
C170 H158 0.930 . S
C170 C171 1.399 . S
C170 C175 1.399 . S
C171 C170 1.399 . S
C171 C172 1.376 . S
C172 H159 0.930 . S
C172 C171 1.376 . S
C172 C173 1.388 . S
C173 H160 0.930 . S
C173 C172 1.388 . S
C173 C174 1.390 . S
C174 C173 1.390 . S
C174 C175 1.394 . S
C174 C180 1.465 . S
C175 C170 1.399 . S
C175 C174 1.394 . S
C175 C176 1.516 . S
C176 C175 1.516 . S
C176 C177 1.502 . S
C176 C178 1.561 . S
C176 C179 1.526 . S
C177 H161 0.959 . S
C177 H162 0.959 . S
C177 H163 0.961 . S
C177 C176 1.502 . S
C178 H164 0.960 . S
C178 H165 0.961 . S
C178 H166 0.959 . S
C178 C176 1.561 . S
C179 C176 1.526 . S
C179 C180 1.396 . S
C179 C184 1.390 . S
C180 C174 1.465 . S
C180 C179 1.396 . S
C180 C181 1.399 . S
C181 H167 0.929 . S
C181 C180 1.399 . S
C181 C182 1.385 . S
C182 H168 0.931 . S
C182 C181 1.385 . S
C182 C183 1.389 . S
C183 C182 1.389 . S
C183 C184 1.387 . S
C184 H169 0.930 . S
C184 C179 1.390 . S
C184 C183 1.387 . S
H185 C197 0.930 . S
H186 C199 0.930 . S
H187 C200 0.930 . S
H188 C204 0.959 . S
H189 C204 0.959 . S
H190 C204 0.961 . S
H191 C205 0.960 . S
H192 C205 0.961 . S
H193 C205 0.959 . S
H194 C208 0.929 . S
H195 C209 0.931 . S
H196 C211 0.930 . S
C197 H185 0.930 . S
C197 C198 1.399 . S
C197 C202 1.399 . S
C198 C197 1.399 . S
C198 C199 1.376 . S
C199 H186 0.930 . S
C199 C198 1.376 . S
C199 C200 1.388 . S
C200 H187 0.930 . S
C200 C199 1.388 . S
C200 C201 1.390 . S
C201 C200 1.390 . S
C201 C202 1.394 . S
C201 C207 1.465 . S
C202 C197 1.399 . S
C202 C201 1.394 . S
C202 C203 1.516 . S
C203 C202 1.516 . S
C203 C204 1.502 . S
C203 C205 1.561 . S
C203 C206 1.526 . S
C204 H188 0.959 . S
C204 H189 0.959 . S
C204 H190 0.961 . S
C204 C203 1.502 . S
C205 H191 0.960 . S
C205 H192 0.961 . S
C205 H193 0.959 . S
C205 C203 1.561 . S
C206 C203 1.526 . S
C206 C207 1.396 . S
C206 C211 1.390 . S
C207 C201 1.465 . S
C207 C206 1.396 . S
C207 C208 1.399 . S
C208 H194 0.929 . S
C208 C207 1.399 . S
C208 C209 1.385 . S
C209 H195 0.931 . S
C209 C208 1.385 . S
C209 C210 1.389 . S
C210 C209 1.389 . S
C210 C211 1.387 . S
C211 H196 0.930 . S
C211 C206 1.390 . S
C211 C210 1.387 . S
H212 C224 0.930 . S
H213 C226 0.930 . S
H214 C227 0.930 . S
H215 C231 0.959 . S
H216 C231 0.959 . S
H217 C231 0.961 . S
H218 C232 0.960 . S
H219 C232 0.961 . S
H220 C232 0.959 . S
H221 C235 0.929 . S
H222 C236 0.931 . S
H223 C238 0.930 . S
C224 H212 0.930 . S
C224 C225 1.399 . S
C224 C229 1.399 . S
C225 C224 1.399 . S
C225 C226 1.376 . S
C226 H213 0.930 . S
C226 C225 1.376 . S
C226 C227 1.388 . S
C227 H214 0.930 . S
C227 C226 1.388 . S
C227 C228 1.390 . S
C228 C227 1.390 . S
C228 C229 1.394 . S
C228 C234 1.465 . S
C229 C224 1.399 . S
C229 C228 1.394 . S
C229 C230 1.516 . S
C230 C229 1.516 . S
C230 C231 1.502 . S
C230 C232 1.561 . S
C230 C233 1.526 . S
C231 H215 0.959 . S
C231 H216 0.959 . S
C231 H217 0.961 . S
C231 C230 1.502 . S
C232 H218 0.960 . S
C232 H219 0.961 . S
C232 H220 0.959 . S
C232 C230 1.561 . S
C233 C230 1.526 . S
C233 C234 1.396 . S
C233 C238 1.390 . S
C234 C228 1.465 . S
C234 C233 1.396 . S
C234 C235 1.399 . S
C235 H221 0.929 . S
C235 C234 1.399 . S
C235 C236 1.385 . S
C236 H222 0.931 . S
C236 C235 1.385 . S
C236 C237 1.389 . S
C237 C236 1.389 . S
C237 C238 1.387 . S
C238 H223 0.930 . S
C238 C233 1.390 . S
C238 C237 1.387 . S
H239 C251 0.930 . S
H240 C253 0.930 . S
H241 C254 0.930 . S
H242 C258 0.959 . S
H243 C258 0.959 . S
H244 C258 0.961 . S
H245 C259 0.960 . S
H246 C259 0.961 . S
H247 C259 0.959 . S
H248 C262 0.929 . S
H249 C263 0.931 . S
H250 C265 0.930 . S
C251 H239 0.930 . S
C251 C252 1.399 . S
C251 C256 1.399 . S
C252 C251 1.399 . S
C252 C253 1.376 . S
C253 H240 0.930 . S
C253 C252 1.376 . S
C253 C254 1.388 . S
C254 H241 0.930 . S
C254 C253 1.388 . S
C254 C255 1.390 . S
C255 C254 1.390 . S
C255 C256 1.394 . S
C255 C261 1.465 . S
C256 C251 1.399 . S
C256 C255 1.394 . S
C256 C257 1.516 . S
C257 C256 1.516 . S
C257 C258 1.502 . S
C257 C259 1.561 . S
C257 C260 1.526 . S
C258 H242 0.959 . S
C258 H243 0.959 . S
C258 H244 0.961 . S
C258 C257 1.502 . S
C259 H245 0.960 . S
C259 H246 0.961 . S
C259 H247 0.959 . S
C259 C257 1.561 . S
C260 C257 1.526 . S
C260 C261 1.396 . S
C260 C265 1.390 . S
C261 C255 1.465 . S
C261 C260 1.396 . S
C261 C262 1.399 . S
C262 H248 0.929 . S
C262 C261 1.399 . S
C262 C263 1.385 . S
C263 H249 0.931 . S
C263 C262 1.385 . S
C263 C264 1.389 . S
C264 C263 1.389 . S
C264 C265 1.387 . S
C265 H250 0.930 . S
C265 C260 1.390 . S
C265 C264 1.387 . S
H266 C278 0.930 . S
H267 C280 0.930 . S
H268 C281 0.930 . S
H269 C285 0.959 . S
H270 C285 0.959 . S
H271 C285 0.961 . S
H272 C286 0.960 . S
H273 C286 0.961 . S
H274 C286 0.959 . S
H275 C289 0.929 . S
H276 C290 0.931 . S
H277 C292 0.930 . S
C278 H266 0.930 . S
C278 C279 1.399 . S
C278 C283 1.399 . S
C279 C278 1.399 . S
C279 C280 1.376 . S
C280 H267 0.930 . S
C280 C279 1.376 . S
C280 C281 1.388 . S
C281 H268 0.930 . S
C281 C280 1.388 . S
C281 C282 1.390 . S
C282 C281 1.390 . S
C282 C283 1.394 . S
C282 C288 1.465 . S
C283 C278 1.399 . S
C283 C282 1.394 . S
C283 C284 1.516 . S
C284 C283 1.516 . S
C284 C285 1.502 . S
C284 C286 1.561 . S
C284 C287 1.526 . S
C285 H269 0.959 . S
C285 H270 0.959 . S
C285 H271 0.961 . S
C285 C284 1.502 . S
C286 H272 0.960 . S
C286 H273 0.961 . S
C286 H274 0.959 . S
C286 C284 1.561 . S
C287 C284 1.526 . S
C287 C288 1.396 . S
C287 C292 1.390 . S
C288 C282 1.465 . S
C288 C287 1.396 . S
C288 C289 1.399 . S
C289 H275 0.929 . S
C289 C288 1.399 . S
C289 C290 1.385 . S
C290 H276 0.931 . S
C290 C289 1.385 . S
C290 C291 1.389 . S
C291 C290 1.389 . S
C291 C292 1.387 . S
C292 H277 0.930 . S
C292 C287 1.390 . S
C292 C291 1.387 . S
H293 C305 0.930 . S
H294 C307 0.930 . S
H295 C308 0.930 . S
H296 C312 0.959 . S
H297 C312 0.959 . S
H298 C312 0.961 . S
H299 C313 0.960 . S
H300 C313 0.961 . S
H301 C313 0.959 . S
H302 C316 0.929 . S
H303 C317 0.931 . S
H304 C319 0.930 . S
C305 H293 0.930 . S
C305 C306 1.399 . S
C305 C310 1.399 . S
C306 C305 1.399 . S
C306 C307 1.376 . S
C307 H294 0.930 . S
C307 C306 1.376 . S
C307 C308 1.388 . S
C308 H295 0.930 . S
C308 C307 1.388 . S
C308 C309 1.390 . S
C309 C308 1.390 . S
C309 C310 1.394 . S
C309 C315 1.465 . S
C310 C305 1.399 . S
C310 C309 1.394 . S
C310 C311 1.516 . S
C311 C310 1.516 . S
C311 C312 1.502 . S
C311 C313 1.561 . S
C311 C314 1.526 . S
C312 H296 0.959 . S
C312 H297 0.959 . S
C312 H298 0.961 . S
C312 C311 1.502 . S
C313 H299 0.960 . S
C313 H300 0.961 . S
C313 H301 0.959 . S
C313 C311 1.561 . S
C314 C311 1.526 . S
C314 C315 1.396 . S
C314 C319 1.390 . S
C315 C309 1.465 . S
C315 C314 1.396 . S
C315 C316 1.399 . S
C316 H302 0.929 . S
C316 C315 1.399 . S
C316 C317 1.385 . S
C317 H303 0.931 . S
C317 C316 1.385 . S
C317 C318 1.389 . S
C318 C317 1.389 . S
C318 C319 1.387 . S
C319 H304 0.930 . S
C319 C314 1.390 . S
C319 C318 1.387 . S
H320 C332 0.930 . S
H321 C334 0.930 1_545 S
H322 C335 0.930 . S
H323 C339 0.959 . S
H324 C339 0.959 . S
H325 C339 0.961 . S
H326 C340 0.960 . S
H327 C340 0.961 . S
H328 C340 0.959 . S
H329 C343 0.929 . S
H330 C344 0.931 . S
H331 C346 0.930 1_565 S
C332 H320 0.930 . S
C332 C333 1.399 . S
C332 C337 1.399 . S
C333 C332 1.399 . S
C333 C334 1.376 . S
C334 H321 0.930 1_565 S
C334 C333 1.376 . S
C334 C335 1.388 1_565 S
C335 H322 0.930 . S
C335 C334 1.388 1_545 S
C335 C336 1.390 . S
C336 C335 1.390 . S
C336 C337 1.394 1_545 S
C336 C342 1.465 . S
C337 C332 1.399 . S
C337 C336 1.394 1_565 S
C337 C338 1.516 . S
C338 C337 1.516 . S
C338 C339 1.502 . S
C338 C340 1.561 . S
C338 C341 1.526 1_565 S
C339 H323 0.959 . S
C339 H324 0.959 . S
C339 H325 0.961 . S
C339 C338 1.502 . S
C340 H326 0.960 . S
C340 H327 0.961 . S
C340 H328 0.959 . S
C340 C338 1.561 . S
C341 C338 1.526 1_545 S
C341 C342 1.396 . S
C341 C346 1.390 . S
C342 C336 1.465 . S
C342 C341 1.396 . S
C342 C343 1.399 . S
C343 H329 0.929 . S
C343 C342 1.399 . S
C343 C344 1.385 . S
C344 H330 0.931 . S
C344 C343 1.385 . S
C344 C345 1.389 . S
C345 C344 1.389 . S
C345 C346 1.387 . S
C346 H331 0.930 1_545 S
C346 C341 1.390 . S
C346 C345 1.387 . S
H347 C359 0.930 . S
H348 C361 0.930 . S
H349 C362 0.930 . S
H350 C366 0.959 . S
H351 C366 0.959 . S
H352 C366 0.961 . S
H353 C367 0.960 . S
H354 C367 0.961 . S
H355 C367 0.959 . S
H356 C370 0.929 . S
H357 C371 0.931 . S
H358 C373 0.924 1_565 S
C359 H347 0.930 . S
C359 C360 1.399 . S
C359 C364 1.399 . S
C360 C359 1.399 . S
C360 C361 1.376 . S
C361 H348 0.930 . S
C361 C360 1.376 . S
C361 C362 1.388 1_565 S
C362 H349 0.930 . S
C362 C361 1.388 1_545 S
C362 C363 1.390 . S
C363 C362 1.390 . S
C363 C364 1.394 1_545 S
C363 C369 1.465 . S
C364 C359 1.399 . S
C364 C363 1.394 1_565 S
C364 C365 1.516 . S
C365 C364 1.516 . S
C365 C366 1.502 . S
C365 C367 1.561 . S
C365 C368 1.526 1_565 S
C366 H350 0.959 . S
C366 H351 0.959 . S
C366 H352 0.961 . S
C366 C365 1.502 . S
C367 H353 0.960 . S
C367 H354 0.961 . S
C367 H355 0.959 . S
C367 C365 1.561 . S
C368 C365 1.526 1_545 S
C368 C369 1.396 . S
C368 C373 1.390 . S
C369 C363 1.465 . S
C369 C368 1.396 . S
C369 C370 1.399 . S
C370 H356 0.929 . S
C370 C369 1.399 . S
C370 C371 1.385 . S
C371 H357 0.931 . S
C371 C370 1.385 . S
C371 C372 1.389 . S
C372 C371 1.389 . S
C372 C373 1.387 . S
C373 H358 0.924 1_545 S
C373 C368 1.390 . S
C373 C372 1.387 . S
H374 C386 0.930 1_545 S
H375 C388 0.930 . S
H376 C389 0.930 . S
H377 C393 0.959 . S
H378 C393 0.959 . S
H379 C393 0.961 . S
H380 C394 0.960 . S
H381 C394 0.961 . S
H382 C394 0.959 . S
H383 C397 0.929 . S
H384 C398 0.931 1_565 S
H385 C400 0.930 . S
C386 H374 0.930 1_565 S
C386 C387 1.399 . S
C386 C391 1.394 1_565 S
C387 C386 1.399 . S
C387 C388 1.376 . S
C388 H375 0.930 . S
C388 C387 1.376 . S
C388 C389 1.388 . S
C389 H376 0.930 . S
C389 C388 1.388 . S
C389 C390 1.390 . S
C390 C389 1.390 . S
C390 C391 1.383 1_565 S
C390 C396 1.465 . S
C391 C386 1.394 1_545 S
C391 C390 1.383 1_545 S
C391 C392 1.532 . S
C392 C391 1.532 . S
C392 C393 1.502 . S
C392 C394 1.561 . S
C392 C395 1.526 . S
C393 H377 0.959 . S
C393 H378 0.959 . S
C393 H379 0.961 . S
C393 C392 1.502 . S
C394 H380 0.960 . S
C394 H381 0.961 . S
C394 H382 0.959 . S
C394 C392 1.561 . S
C395 C392 1.526 . S
C395 C396 1.396 1_545 S
C395 C400 1.390 . S
C396 C390 1.465 . S
C396 C395 1.396 1_565 S
C396 C397 1.399 . S
C397 H383 0.929 . S
C397 C396 1.399 . S
C397 C398 1.385 1_565 S
C398 H384 0.931 1_545 S
C398 C397 1.385 1_545 S
C398 C399 1.389 . S
C399 C398 1.389 . S
C399 C400 1.387 . S
C400 H385 0.930 . S
C400 C395 1.390 . S
C400 C399 1.387 . S
H401 C413 0.930 . S
H402 C415 0.930 1_545 S
H403 C416 0.930 . S
H404 C420 0.959 . S
H405 C420 0.959 . S
H406 C420 0.961 . S
H407 C421 0.960 . S
H408 C421 0.961 . S
H409 C421 0.959 . S
H410 C424 0.929 . S
H411 C425 0.931 . S
H412 C427 0.930 1_565 S
C413 H401 0.930 . S
C413 C414 1.399 . S
C413 C418 1.399 . S
C414 C413 1.399 . S
C414 C415 1.376 . S
C415 H402 0.930 1_565 S
C415 C414 1.376 . S
C415 C416 1.388 1_565 S
C416 H403 0.930 . S
C416 C415 1.388 1_545 S
C416 C417 1.390 . S
C417 C416 1.390 . S
C417 C418 1.394 1_545 S
C417 C423 1.465 . S
C418 C413 1.399 . S
C418 C417 1.394 1_565 S
C418 C419 1.516 . S
C419 C418 1.516 . S
C419 C420 1.502 . S
C419 C421 1.561 . S
C419 C422 1.529 . S
C420 H404 0.959 . S
C420 H405 0.959 . S
C420 H406 0.961 . S
C420 C419 1.502 . S
C421 H407 0.960 . S
C421 H408 0.961 . S
C421 H409 0.959 . S
C421 C419 1.561 . S
C422 C419 1.529 . S
C422 C423 1.394 1_565 S
C422 C427 1.388 1_565 S
C423 C417 1.465 . S
C423 C422 1.394 1_545 S
C423 C424 1.399 . S
C424 H410 0.929 . S
C424 C423 1.399 . S
C424 C425 1.385 . S
C425 H411 0.931 . S
C425 C424 1.385 . S
C425 C426 1.389 . S
C426 C425 1.389 . S
C426 C427 1.387 . S
C427 H412 0.930 1_545 S
C427 C422 1.388 1_545 S
C427 C426 1.387 . S
H428 C440 0.930 . S
H429 C442 0.930 . S
H430 C443 0.930 . S
H431 C447 0.959 . S
H432 C447 0.959 . S
H433 C447 0.961 . S
H434 C448 0.960 . S
H435 C448 0.961 1_545 S
H436 C448 0.959 . S
H437 C451 0.929 . S
H438 C452 0.931 . S
H439 C454 0.930 . S
C440 H428 0.930 . S
C440 C441 1.399 . S
C440 C445 1.399 . S
C441 C440 1.399 . S
C441 C442 1.376 1_554 S
C442 H429 0.930 . S
C442 C441 1.376 1_556 S
C442 C443 1.388 . S
C443 H430 0.930 . S
C443 C442 1.388 . S
C443 C444 1.390 1_556 S
C444 C443 1.390 1_554 S
C444 C445 1.394 . S
C444 C450 1.465 1_565 S
C445 C440 1.399 . S
C445 C444 1.394 . S
C445 C446 1.516 1_565 S
C446 C445 1.516 1_545 S
C446 C447 1.502 . S
C446 C448 1.561 1_545 S
C446 C449 1.526 . S
C447 H431 0.959 . S
C447 H432 0.959 . S
C447 H433 0.961 . S
C447 C446 1.502 . S
C448 H434 0.960 . S
C448 H435 0.961 1_565 S
C448 H436 0.959 . S
C448 C446 1.561 1_565 S
C449 C446 1.526 . S
C449 C450 1.396 . S
C449 C454 1.390 . S
C450 C444 1.465 1_545 S
C450 C449 1.396 . S
C450 C451 1.399 1_554 S
C451 H437 0.929 . S
C451 C450 1.399 1_556 S
C451 C452 1.385 . S
C452 H438 0.931 . S
C452 C451 1.385 . S
C452 C453 1.389 1_556 S
C453 C452 1.389 1_554 S
C453 C454 1.387 . S
C454 H439 0.930 . S
C454 C449 1.390 . S
C454 C453 1.387 . S
H455 C467 0.930 . S
H456 C469 0.930 . S
H457 C470 0.930 . S
H458 C474 0.959 . S
H459 C474 0.959 . S
H460 C474 0.961 . S
H461 C475 0.960 . S
H462 C475 0.961 . S
H463 C475 0.959 . S
H464 C478 0.929 1_565 S
H465 C479 0.931 . S
H466 C481 0.930 . S
C467 H455 0.930 . S
C467 C468 1.399 . S
C467 C472 1.399 . S
C468 C467 1.399 . S
C468 C469 1.376 . S
C469 H456 0.930 . S
C469 C468 1.376 . S
C469 C470 1.388 . S
C470 H457 0.930 . S
C470 C469 1.388 . S
C470 C471 1.390 . S
C471 C470 1.390 . S
C471 C472 1.394 . S
C471 C477 1.465 1_565 S
C472 C467 1.399 . S
C472 C471 1.394 . S
C472 C473 1.516 1_565 S
C473 C472 1.516 1_545 S
C473 C474 1.502 . S
C473 C475 1.561 . S
C473 C476 1.526 . S
C474 H458 0.959 . S
C474 H459 0.959 . S
C474 H460 0.961 . S
C474 C473 1.502 . S
C475 H461 0.960 . S
C475 H462 0.961 . S
C475 H463 0.959 . S
C475 C473 1.561 . S
C476 C473 1.526 . S
C476 C477 1.396 . S
C476 C481 1.390 . S
C477 C471 1.465 1_545 S
C477 C476 1.396 . S
C477 C478 1.399 . S
C478 H464 0.929 1_545 S
C478 C477 1.399 . S
C478 C479 1.385 . S
C479 H465 0.931 . S
C479 C478 1.385 . S
C479 C480 1.389 . S
C480 C479 1.389 . S
C480 C481 1.387 . S
C481 H466 0.930 . S
C481 C476 1.390 . S
C481 C480 1.387 . S
H482 C494 0.930 . S
H483 C496 0.930 . S
H484 C497 0.930 . S
H485 C501 0.959 . S
H486 C501 0.959 . S
H487 C501 0.961 . S
H488 C502 0.960 . S
H489 C502 0.961 1_655 S
H490 C502 0.959 . S
H491 C505 0.929 1_455 S
H492 C506 0.931 . S
H493 C508 0.930 . S
C494 H482 0.930 . S
C494 C495 1.399 1_556 S
C494 C499 1.399 1_556 S
C495 C494 1.399 1_554 S
C495 C496 1.376 . S
C496 H483 0.930 . S
C496 C495 1.376 . S
C496 C497 1.388 . S
C497 H484 0.930 . S
C497 C496 1.388 . S
C497 C498 1.390 . S
C498 C497 1.390 . S
C498 C499 1.394 . S
C498 C504 1.465 1_455 S
C499 C494 1.399 1_554 S
C499 C498 1.394 . S
C499 C500 1.516 1_454 S
C500 C499 1.516 1_656 S
C500 C501 1.502 . S
C500 C502 1.561 1_655 S
C500 C503 1.526 1_556 S
C501 H485 0.959 . S
C501 H486 0.959 . S
C501 H487 0.961 . S
C501 C500 1.502 . S
C502 H488 0.960 . S
C502 H489 0.961 1_455 S
C502 H490 0.959 . S
C502 C500 1.561 1_455 S
C503 C500 1.526 1_554 S
C503 C504 1.396 . S
C503 C508 1.390 1_554 S
C504 C498 1.465 1_655 S
C504 C503 1.396 . S
C504 C505 1.399 . S
C505 H491 0.929 1_655 S
C505 C504 1.399 . S
C505 C506 1.385 . S
C506 H492 0.931 . S
C506 C505 1.385 . S
C506 C507 1.389 . S
C507 C506 1.389 . S
C507 C508 1.387 1_554 S
C508 H493 0.930 . S
C508 C503 1.390 1_556 S
C508 C507 1.387 1_556 S
H509 C521 0.930 . S
H510 C523 0.930 . S
H511 C524 0.930 . S
H512 C528 0.959 . S
H513 C528 0.959 . S
H514 C528 0.961 1_455 S
H515 C529 0.960 . S
H516 C529 0.961 . S
H517 C529 0.959 . S
H518 C532 0.929 . S
H519 C533 0.931 . S
H520 C535 0.930 . S
C521 H509 0.930 . S
C521 C522 1.399 . S
C521 C526 1.399 . S
C522 C521 1.399 . S
C522 C523 1.376 . S
C523 H510 0.930 . S
C523 C522 1.376 . S
C523 C524 1.388 . S
C524 H511 0.930 . S
C524 C523 1.388 . S
C524 C525 1.390 . S
C525 C524 1.390 . S
C525 C526 1.394 . S
C525 C531 1.465 1_455 S
C526 C521 1.399 . S
C526 C525 1.394 . S
C526 C527 1.516 . S
C527 C526 1.516 . S
C527 C528 1.502 1_455 S
C527 C529 1.561 . S
C527 C530 1.526 1_455 S
C528 H512 0.959 . S
C528 H513 0.959 . S
C528 H514 0.961 1_655 S
C528 C527 1.502 1_655 S
C529 H515 0.960 . S
C529 H516 0.961 . S
C529 H517 0.959 . S
C529 C527 1.561 . S
C530 C527 1.526 1_655 S
C530 C531 1.396 . S
C530 C535 1.390 . S
C531 C525 1.465 1_655 S
C531 C530 1.396 . S
C531 C532 1.399 . S
C532 H518 0.929 . S
C532 C531 1.399 . S
C532 C533 1.385 . S
C533 H519 0.931 . S
C533 C532 1.385 . S
C533 C534 1.389 . S
C534 C533 1.389 . S
C534 C535 1.387 . S
C535 H520 0.930 . S
C535 C530 1.390 . S
C535 C534 1.387 . S
C117 C70 1.446 . S
C129 C5 1.497 . S
C144 C57 1.462 . S
C156 C18 1.485 . S
C171 C96 1.456 . S
C183 C31 1.490 . S
C198 C83 1.477 . S
C210 C44 1.447 . S
C225 C8 1.342 . S
C237 C34 1.340 . S
C252 C21 1.356 . S
C264 C47 1.357 . S
C279 C23 1.355 . S
C291 C49 1.365 . S
C306 C10 1.349 . S
C318 C36 1.367 . S
C333 C60 1.308 . S
C345 C86 1.312 . S
C360 C99 1.286 . S
C372 C73 1.289 . S
C387 C101 1.358 . S
C399 C75 1.339 . S
C414 C62 1.348 . S
C426 C88 1.367 . S
C441 C13 1.467 . S
C453 C0 1.469 . S
C468 C26 1.497 . S
C480 C39 1.498 . S
C495 C52 1.510 . S
C507 C65 1.509 . S
C522 C78 1.516 . S
C534 C91 1.516 . S
