# Generated by pormake.
# Topology kag, (6)-cn, num edge types: 1
# Building blocks:
#     Node 0, Type 0, BuildingBlock: BETDIP_clean_sbu_0, # of connection points: 6
#     Node 1, Type 0, BuildingBlock: BETDIP_clean_sbu_0, # of connection points: 6
#     Node 2, Type 0, BuildingBlock: BETDIP_clean_sbu_0, # of connection points: 6
#     Edge 3, Type (0, 0), BuildingBlock: KIFKEQ_clean_linker_1, # of connection points: 2
#     Edge 4, Type (0, 0), BuildingBlock: KIFKEQ_clean_linker_1, # of connection points: 2
#     Edge 5, Type (0, 0), BuildingBlock: KIFKEQ_clean_linker_1, # of connection points: 2
#     Edge 6, Type (0, 0), BuildingBlock: KIFKEQ_clean_linker_1, # of connection points: 2
#     Edge 7, Type (0, 0), BuildingBlock: KIFKEQ_clean_linker_1, # of connection points: 2
#     Edge 8, Type (0, 0), BuildingBlock: KIFKEQ_clean_linker_1, # of connection points: 2
#     Edge 9, Type (0, 0), BuildingBlock: KIFKEQ_clean_linker_1, # of connection points: 2
#     Edge 10, Type (0, 0), BuildingBlock: KIFKEQ_clean_linker_1, # of connection points: 2
#     Edge 11, Type (0, 0), BuildingBlock: KIFKEQ_clean_linker_1, # of connection points: 2
# Relax obj value: 0.013
# Max RMSD: 0.069
# Mean RMSD: 0.060
data_MOF--net-kag--node1-BETDIP_clean_sbu_0--edge1-KIFKEQ_clean_linker_1
_symmetry_space_group_name_H-M    P1
_symmetry_Int_Tables_number       1
_symmetry_cell_setting            triclinic
loop_
_symmetry_equiv_pos_as_xyz
'x, y, z'
_cell_length_a     41.25444
_cell_length_b     41.23362
_cell_length_c     14.53883
_cell_angle_alpha  93.124279
_cell_angle_beta   91.831983
_cell_angle_gamma 119.95649
loop_
_atom_site_label
_atom_site_type_symbol
_atom_site_fract_x
_atom_site_fract_y
_atom_site_fract_z
_atom_type_partial_charge
Tb0 Tb 1.01701 0.48519 0.03038 0.0
Tb1 Tb 0.05957 0.56747 1.00666 0.0
C2 C 0.97478 0.42165 0.08693 0.0
C3 C 0.93495 0.39128 0.07561 0.0
C4 C 0.91047 0.38716 0.14491 0.0
C5 C 0.87384 0.35653 0.13892 0.0
C6 C 0.86099 0.32912 0.06389 0.0
C7 C 0.88524 0.33371 0.99364 0.0
C8 C 0.92178 0.36434 0.99948 0.0
C9 C 1.02965 0.50196 0.85734 0.0
C10 C 0.97269 0.52986 1.00409 0.0
C11 C 0.10186 0.63148 0.95251 0.0
C12 C 0.14195 0.66092 0.95847 0.0
C13 C 0.16084 0.67115 0.87712 0.0
C14 C 0.19766 0.70117 0.87947 0.0
C15 C 0.21638 0.72191 0.96331 0.0
C16 C 0.19772 0.711 0.04515 0.0
C17 C 0.16092 0.68084 0.04281 0.0
C18 C 0.04582 0.54965 0.1787 0.0
C19 C 0.10386 0.52278 0.03152 0.0
O20 O 0.9823 0.45333 0.13179 0.0
O21 O 0.99487 0.42701 1.01545 0.0
O22 O 1.02184 0.51913 0.91888 0.0
O23 O 1.02681 0.47209 0.88959 0.0
O24 O 0.97251 0.49994 0.03387 0.0
O25 O 1.0035 0.55805 0.97553 0.0
O26 O 0.09252 0.60005 0.90378 0.0
O27 O 0.08395 0.62586 0.02799 0.0
O28 O 0.05492 0.53354 0.11758 0.0
O29 O 0.04704 0.57884 0.14643 0.0
O30 O 0.10395 0.5526 1.00142 0.0
O31 O 0.07318 0.4948 0.06112 0.0
H32 H 0.91991 0.40714 0.20503 0.0
H33 H 0.85603 0.35362 0.19471 0.0
H34 H 0.87607 0.31337 0.93433 0.0
H35 H 0.93989 0.36643 0.94505 0.0
H36 H 0.14683 0.65634 0.81117 0.0
H37 H 0.21133 0.70832 0.81531 0.0
H38 H 0.21105 0.72654 0.11082 0.0
H39 H 0.14711 0.67378 0.10681 0.0
Tb40 Tb 0.55855 1.00581 0.03679 0.0
Tb41 Tb 0.51783 0.04724 1.0002 0.0
C42 C 0.5813 0.96427 0.09889 0.0
C43 C 0.57377 0.92519 0.08433 0.0
C44 C 0.53959 0.89411 0.10451 0.0
C45 C 0.53441 0.85775 0.09499 0.0
C46 C 0.5633 0.85172 0.06533 0.0
C47 C 0.59711 0.88288 0.04351 0.0
C48 C 0.60231 0.91909 0.05332 0.0
C49 C 0.55386 1.01832 0.8617 0.0
C50 C 0.46948 0.96033 0.99484 0.0
C51 C 0.49522 0.08908 0.93911 0.0
C52 C 0.50498 0.12878 0.95023 0.0
C53 C 0.49761 0.14479 0.87557 0.0
C54 C 0.50432 0.1816 0.88553 0.0
C55 C 0.51846 0.20319 0.97069 0.0
C56 C 0.52652 0.18727 0.04507 0.0
C57 C 0.51998 0.15044 0.03485 0.0
C58 C 0.52244 0.03377 0.17446 0.0
C59 C 0.6069 0.09271 0.04185 0.0
O60 O 0.55589 0.9698 0.13683 0.0
O61 O 0.5962 0.98571 0.03151 0.0
O62 O 0.52883 1.01001 0.91785 0.0
O63 O 0.58117 1.01603 0.90061 0.0
O64 O 0.49945 0.96094 0.03268 0.0
O65 O 0.47175 0.99066 0.96207 0.0
O66 O 0.51893 0.0819 0.89789 0.0
O67 O 0.48214 0.06951 1.01043 0.0
O68 O 0.54766 0.04321 0.11861 0.0
O69 O 0.49432 0.03466 0.1355 0.0
O70 O 0.57696 0.0921 1.00379 0.0
O71 O 0.60448 0.06242 0.07511 0.0
H72 H 0.51706 0.89786 0.12891 0.0
H73 H 0.50812 0.8345 0.11315 0.0
H74 H 0.61973 0.87934 0.01878 0.0
H75 H 0.62895 0.94251 0.03744 0.0
H76 H 0.48597 0.12852 0.80978 0.0
H77 H 0.49741 0.19278 0.82713 0.0
H78 H 0.53788 0.20328 0.1112 0.0
H79 H 0.52613 0.13873 0.09333 0.0
Tb80 Tb 0.49753 0.50641 0.02915 0.0
Tb81 Tb 0.57973 0.54622 1.00382 0.0
C82 C 0.43305 0.48521 0.08346 0.0
C83 C 0.4026 0.49418 0.07112 0.0
C84 C 0.39597 0.51395 0.14287 0.0
C85 C 0.36539 0.51982 0.1351 0.0
C86 C 0.34053 0.50573 0.05568 0.0
C87 C 0.34762 0.48661 0.98318 0.0
C88 C 0.37823 0.48086 0.99079 0.0
C89 C 0.51546 0.51035 0.85548 0.0
C90 C 0.54249 0.59568 0.01791 0.0
C91 C 0.64339 0.56701 0.94495 0.0
C92 C 0.67308 0.55692 0.95173 0.0
C93 C 0.68682 0.54985 0.87062 0.0
C94 C 0.71692 0.54322 0.87484 0.0
C95 C 0.73421 0.5438 0.96047 0.0
C96 C 0.71969 0.54989 0.04179 0.0
C97 C 0.68942 0.5563 0.03751 0.0
C98 C 0.56237 0.54267 0.17802 0.0
C99 C 0.5351 0.45721 0.01786 0.0
O100 O 0.46403 0.51051 0.13 0.0
O101 O 0.43964 0.46924 1.01191 0.0
O102 O 0.53172 0.53562 0.92019 0.0
O103 O 0.48604 0.48261 0.88523 0.0
O104 O 0.51269 0.56595 0.04571 0.0
O105 O 0.57038 0.59284 0.98372 0.0
O106 O 0.61194 0.54276 0.89845 0.0
O107 O 0.63785 0.58216 0.01984 0.0
O108 O 0.54554 0.51741 0.11337 0.0
O109 O 0.59236 0.56963 0.1479 0.0
O110 O 0.56454 0.48674 0.98821 0.0
O111 O 0.5074 0.46023 0.05277 0.0
H112 H 0.41396 0.52417 0.20604 0.0
H113 H 0.36052 0.53429 0.19265 0.0
H114 H 0.32931 0.47581 0.92059 0.0
H115 H 0.38231 0.46536 0.93421 0.0
H116 H 0.67464 0.5501 0.80368 0.0
H117 H 0.72681 0.53792 0.8108 0.0
H118 H 0.73246 0.55094 0.10895 0.0
H119 H 0.67943 0.56161 0.1014 0.0
H120 H 1.02833 0.45634 0.71307 0.0
H121 H 1.03525 0.56304 0.77758 0.0
H122 H 1.03007 0.46634 0.5497 0.0
H123 H 0.04012 0.57481 0.61485 0.0
H124 H 1.01483 0.57342 0.30917 0.0
H125 H 1.00948 0.56101 0.47155 0.0
H126 H 0.06602 0.49717 0.43287 0.0
H127 H 0.06877 0.50762 0.2694 0.0
C128 C 1.03081 0.48227 0.69225 0.0
C129 C 1.03192 0.50902 0.75826 0.0
C130 C 1.03218 0.48826 0.59826 0.0
C131 C 1.0355 0.52159 0.56765 0.0
C132 C 1.03689 0.54848 0.63451 0.0
C133 C 1.03466 0.54204 0.72839 0.0
C134 C 1.02584 0.55652 0.33568 0.0
C135 C 0.04217 0.54146 0.27684 0.0
C136 C 1.02315 0.54966 0.42922 0.0
C137 C 1.03751 0.52819 0.4669 0.0
C138 C 0.0539 0.51319 0.40713 0.0
C139 C 0.05579 0.51938 0.31317 0.0
H140 H 0.46764 1.00259 0.29399 0.0
H141 H 0.58756 0.05721 0.27898 0.0
H142 H 0.47468 0.99757 0.45875 0.0
H143 H 0.59523 0.0547 0.44477 0.0
H144 H 0.59778 1.01643 0.72862 0.0
H145 H 0.58957 1.01813 0.5631 0.0
H146 H 0.4919 0.02917 0.60307 0.0
H147 H 0.4988 1.02451 0.76819 0.0
C148 C 0.49558 1.0138 0.32644 0.0
C149 C 0.52704 0.03024 0.27394 0.0
C150 C 0.49974 1.0113 0.42128 0.0
C151 C 0.53559 0.02592 0.46647 0.0
C152 C 0.56707 0.04241 0.41306 0.0
C153 C 0.56279 0.04414 0.31784 0.0
C154 C 0.5745 1.01913 0.70182 0.0
C155 C 0.54902 1.02052 0.76138 0.0
C156 C 0.56992 1.02046 0.60663 0.0
C157 C 0.54014 1.02403 0.56844 0.0
C158 C 0.51482 1.02574 0.62882 0.0
C159 C 0.51898 1.02356 0.72395 0.0
H160 H 0.55872 0.57546 0.77541 0.0
H161 H 0.48989 0.45572 0.71417 0.0
H162 H 0.56889 0.58347 0.61219 0.0
H163 H 0.50186 0.46305 0.55139 0.0
H164 H 0.49993 0.4889 0.25291 0.0
H165 H 0.48835 0.48172 0.41597 0.0
H166 H 0.59903 0.57703 0.48886 0.0
H167 H 0.60909 0.58554 0.32606 0.0
C168 C 0.54621 0.55078 0.72687 0.0
C169 C 0.52341 0.515 0.75719 0.0
C170 C 0.55222 0.55526 0.63305 0.0
C171 C 0.53624 0.52394 0.56732 0.0
C172 C 0.514 0.48802 0.59877 0.0
C173 C 0.50738 0.48368 0.69238 0.0
C174 C 0.52152 0.50849 0.30407 0.0
C175 C 0.55525 0.53795 0.27683 0.0
C176 C 0.51514 0.50417 0.39788 0.0
C177 C 0.54273 0.52873 0.46685 0.0
C178 C 0.57666 0.55798 0.43871 0.0
C179 C 0.58265 0.56273 0.34503 0.0
H180 H 0.11382 0.46565 0.08515 0.0
H181 H 0.17393 0.57673 0.98852 0.0
H182 H 0.17129 0.46267 0.09093 0.0
H183 H 0.23146 0.57345 0.99328 0.0
H184 H 0.33419 0.56721 0.10855 0.0
H185 H 0.27747 0.5721 0.10385 0.0
H186 H 0.21324 0.45768 0.9837 0.0
H187 H 0.26951 0.45246 0.99076 0.0
C188 C 0.13927 0.48946 0.06505 0.0
C189 C 0.13916 0.52141 0.03624 0.0
C190 C 0.17221 0.48763 0.06784 0.0
C191 C 0.20596 0.51773 0.04212 0.0
C192 C 0.20601 0.5499 1.01428 0.0
C193 C 0.17296 0.55168 1.01111 0.0
C194 C 0.30791 0.54307 0.08153 0.0
C195 C 0.30642 0.50945 0.05003 0.0
C196 C 0.27548 0.54598 0.07805 0.0
C197 C 0.24078 0.51524 0.04365 0.0
C198 C 0.2394 0.48175 1.0116 0.0
C199 C 0.27178 0.47891 1.01465 0.0
H200 H 0.62234 0.16171 0.99003 0.0
H201 H 0.67453 0.10413 0.11108 0.0
H202 H 0.68328 0.2192 0.99631 0.0
H203 H 0.73518 0.16167 0.11847 0.0
H204 H 0.84181 0.25655 1.01451 0.0
H205 H 0.78017 0.20038 1.01053 0.0
H206 H 0.73281 0.26786 0.10577 0.0
H207 H 0.79452 0.3244 0.10714 0.0
C208 C 0.64672 0.16133 0.01855 0.0
C209 C 0.64352 0.12821 0.04971 0.0
C210 C 0.68163 0.19437 0.02257 0.0
C211 C 0.71414 0.19499 0.05743 0.0
C212 C 0.71079 0.16201 0.08989 0.0
C213 C 0.67593 0.12905 0.08618 0.0
C214 C 0.8182 0.25951 0.0336 0.0
C215 C 0.8231 0.29502 0.0608 0.0
C216 C 0.78292 0.22723 0.03243 0.0
C217 C 0.75157 0.22958 0.05828 0.0
C218 C 0.75634 0.2651 0.08487 0.0
C219 C 0.79174 0.29745 0.08644 0.0
H220 H 0.50086 0.78431 1.00399 0.0
H221 H 0.61557 0.83215 0.11337 0.0
H222 H 0.49461 0.72203 0.99124 0.0
H223 H 0.60941 0.77026 0.09971 0.0
H224 H 0.59924 0.66264 0.969 0.0
H225 H 0.60285 0.72348 0.97901 0.0
H226 H 0.4932 0.67351 0.08661 0.0
H227 H 0.48928 0.6123 0.07552 0.0
C228 C 0.52465 0.78157 0.02595 0.0
C229 C 0.55883 0.81341 0.05899 0.0
C230 C 0.52107 0.74586 0.01854 0.0
C231 C 0.55161 0.74117 0.04372 0.0
C232 C 0.58556 0.77292 0.07786 0.0
C233 C 0.58909 0.80849 0.08557 0.0
C234 C 0.57579 0.66449 0.99455 0.0
C235 C 0.54402 0.6325 0.02172 0.0
C236 C 0.57797 0.69949 1.00079 0.0
C237 C 0.54843 0.70348 0.03421 0.0
C238 C 0.51634 0.67139 0.05992 0.0
C239 C 0.5142 0.63632 0.05399 0.0
H240 H 0.96332 0.5883 0.95926 0.0
H241 H 0.90179 0.47395 0.03491 0.0
H242 H 0.90556 0.59054 0.94928 0.0
H243 H 0.84365 0.47583 0.02224 0.0
H244 H 0.75318 0.50661 0.08364 0.0
H245 H 0.81042 0.5031 0.09514 0.0
H246 H 0.84868 0.56672 0.85602 0.0
H247 H 0.79261 0.572 0.84764 0.0
C248 C 0.93742 0.5635 0.97314 0.0
C249 C 0.93726 0.53092 0.99767 0.0
C250 C 0.90417 0.56471 0.96684 0.0
C251 C 0.86977 0.5333 0.98438 0.0
C252 C 0.86962 0.50071 1.00926 0.0
C253 C 0.90298 0.49956 1.01601 0.0
C254 C 0.77394 0.52013 0.03396 0.0
C255 C 0.76817 0.53968 0.96484 0.0
C256 C 0.80661 0.51771 0.03987 0.0
C257 C 0.83435 0.53473 0.97671 0.0
C258 C 0.82827 0.55374 0.90677 0.0
C259 C 0.79573 0.55629 0.9011 0.0
H260 H 0.24357 0.77527 0.83827 0.0
H261 H 0.27558 0.7455 0.09211 0.0
H262 H 0.30518 0.83127 0.84192 0.0
H263 H 0.33666 0.80265 0.09829 0.0
H264 H 0.45531 0.89063 0.0368 0.0
H265 H 0.39511 0.83237 0.02587 0.0
H266 H 0.3407 0.89132 0.92617 0.0
H267 H 0.40094 0.94928 0.9347 0.0
C268 C 0.26381 0.7805 0.89466 0.0
C269 C 0.25452 0.75571 0.96482 0.0
C270 C 0.29903 0.81298 0.89743 0.0
C271 C 0.32592 0.82169 0.97067 0.0
C272 C 0.31682 0.7967 0.04034 0.0
C273 C 0.28159 0.76412 0.03741 0.0
C274 C 0.43053 0.89115 1.01219 0.0
C275 C 0.43302 0.92468 0.98646 0.0
C276 C 0.39593 0.85774 1.00646 0.0
C277 C 0.36295 0.85706 0.9752 0.0
C278 C 0.36554 0.8906 0.94915 0.0
C279 C 0.40013 0.92395 0.95451 0.0
H280 H 0.58809 0.44114 0.95705 0.0
H281 H 0.47996 0.3904 0.0733 0.0
H282 H 0.586 0.38094 0.95034 0.0
H283 H 0.47765 0.33005 0.06503 0.0
H284 H 0.50082 0.23511 0.11665 0.0
H285 H 0.50666 0.29708 0.13233 0.0
H286 H 0.55213 0.31975 0.86458 0.0
H287 H 0.5474 0.25831 0.85027 0.0
C288 C 0.56384 0.41718 0.98117 0.0
C289 C 0.53416 0.42068 1.01564 0.0
C290 C 0.56257 0.38256 0.97684 0.0
C291 C 0.53162 0.35056 1.00694 0.0
C292 C 0.50214 0.35418 0.04234 0.0
C293 C 0.50337 0.38879 0.04658 0.0
C294 C 0.51258 0.25353 0.06173 0.0
C295 C 0.5236 0.24167 0.98213 0.0
C296 C 0.51551 0.28891 0.07024 0.0
C297 C 0.5297 0.3134 0.99956 0.0
C298 C 0.54137 0.30179 0.92073 0.0
C299 C 0.5383 0.26638 0.91208 0.0
loop_
_geom_bond_atom_site_label_1
_geom_bond_atom_site_label_2
_geom_bond_distance
_geom_bond_site_symmetry_2
_ccdc_geom_bond_type
Tb0 C2 2.809 . S
Tb0 O20 2.484 1_556 S
Tb0 O21 2.440 . S
Tb0 O22 2.658 1_655 S
Tb0 O23 2.409 . S
Tb0 O24 2.378 . S
Tb0 O28 2.325 1_556 S
Tb0 O31 2.341 1_655 S
Tb1 C11 2.809 . S
Tb1 O22 2.325 1_554 S
Tb1 O25 2.341 1_455 S
Tb1 O26 2.484 1_554 S
Tb1 O27 2.440 . S
Tb1 O28 2.658 1_455 S
Tb1 O29 2.409 . S
Tb1 O30 2.378 . S
C2 Tb0 2.809 . S
C2 C3 1.514 1_556 S
C2 O20 1.248 1_556 S
C2 O21 1.266 . S
C3 C2 1.514 1_554 S
C3 C4 1.359 . S
C3 C8 1.348 1_554 S
C4 C3 1.359 . S
C4 C5 1.380 . S
C4 H32 0.929 . S
C5 C4 1.380 . S
C5 C6 1.347 . S
C5 H33 0.931 . S
C6 C5 1.347 . S
C6 C7 1.369 1_554 S
C7 C6 1.369 1_556 S
C7 C8 1.408 . S
C7 H34 0.930 . S
C8 C3 1.348 1_556 S
C8 C7 1.408 . S
C8 H35 0.930 . S
C9 O22 1.281 1_655 S
C9 O23 1.254 . S
C10 O24 1.236 . S
C10 O25 1.266 1_556 S
C11 Tb1 2.809 . S
C11 C12 1.514 1_554 S
C11 O26 1.248 1_554 S
C11 O27 1.266 . S
C12 C11 1.514 1_556 S
C12 C13 1.359 . S
C12 C17 1.348 1_556 S
C13 C12 1.359 . S
C13 C14 1.380 . S
C13 H36 0.929 . S
C14 C13 1.380 . S
C14 C15 1.347 . S
C14 H37 0.931 . S
C15 C14 1.347 . S
C15 C16 1.369 1_556 S
C16 C15 1.369 1_554 S
C16 C17 1.408 . S
C16 H38 0.930 . S
C17 C12 1.348 1_554 S
C17 C16 1.408 . S
C17 H39 0.930 . S
C18 O28 1.281 1_455 S
C18 O29 1.254 . S
C19 O30 1.236 . S
C19 O31 1.266 1_554 S
O20 Tb0 2.484 1_554 S
O20 C2 1.248 1_554 S
O21 Tb0 2.440 . S
O21 C2 1.266 . S
O22 Tb0 2.658 1_455 S
O22 Tb1 2.325 1_556 S
O22 C9 1.281 1_455 S
O23 Tb0 2.409 . S
O23 C9 1.254 . S
O24 Tb0 2.378 . S
O24 C10 1.236 . S
O25 Tb1 2.341 1_655 S
O25 C10 1.266 1_554 S
O26 Tb1 2.484 1_556 S
O26 C11 1.248 1_556 S
O27 Tb1 2.440 . S
O27 C11 1.266 . S
O28 Tb0 2.325 1_554 S
O28 Tb1 2.658 1_655 S
O28 C18 1.281 1_655 S
O29 Tb1 2.409 . S
O29 C18 1.254 . S
O30 Tb1 2.378 . S
O30 C19 1.236 . S
O31 Tb0 2.341 1_455 S
O31 C19 1.266 1_556 S
H32 C4 0.929 . S
H33 C5 0.931 . S
H34 C7 0.930 . S
H35 C8 0.930 . S
H36 C13 0.929 . S
H37 C14 0.931 . S
H38 C16 0.930 . S
H39 C17 0.930 . S
Tb40 C42 2.809 1_556 S
Tb40 O60 2.484 1_556 S
Tb40 O61 2.440 . S
Tb40 O62 2.658 1_565 S
Tb40 O63 2.409 . S
Tb40 O64 2.378 . S
Tb40 O68 2.325 1_556 S
Tb40 O71 2.341 1_566 S
Tb41 C51 2.809 1_554 S
Tb41 O62 2.325 1_554 S
Tb41 O65 2.341 1_544 S
Tb41 O66 2.484 1_554 S
Tb41 O67 2.440 . S
Tb41 O68 2.658 1_545 S
Tb41 O69 2.409 . S
Tb41 O70 2.378 . S
C42 Tb40 2.809 1_554 S
C42 C43 1.514 . S
C42 O60 1.248 . S
C42 O61 1.266 1_554 S
C43 C42 1.514 . S
C43 C44 1.359 . S
C43 C48 1.348 1_554 S
C44 C43 1.359 . S
C44 C45 1.380 . S
C44 H72 0.929 . S
C45 C44 1.380 . S
C45 C46 1.347 . S
C45 H73 0.931 . S
C46 C45 1.347 . S
C46 C47 1.369 1_554 S
C47 C46 1.369 1_556 S
C47 C48 1.408 . S
C47 H74 0.930 . S
C48 C43 1.348 1_556 S
C48 C47 1.408 . S
C48 H75 0.930 . S
C49 O62 1.281 1_565 S
C49 O63 1.254 . S
C50 O64 1.236 . S
C50 O65 1.266 . S
C51 Tb41 2.809 1_556 S
C51 C52 1.514 . S
C51 O66 1.248 . S
C51 O67 1.266 1_556 S
C52 C51 1.514 . S
C52 C53 1.359 . S
C52 C57 1.348 1_556 S
C53 C52 1.359 . S
C53 C54 1.380 . S
C53 H76 0.929 . S
C54 C53 1.380 . S
C54 C55 1.347 . S
C54 H77 0.931 . S
C55 C54 1.347 . S
C55 C56 1.369 1_556 S
C56 C55 1.369 1_554 S
C56 C57 1.408 . S
C56 H78 0.930 . S
C57 C52 1.348 1_554 S
C57 C56 1.408 . S
C57 H79 0.930 . S
C58 O68 1.281 1_545 S
C58 O69 1.254 . S
C59 O70 1.236 . S
C59 O71 1.266 . S
O60 Tb40 2.484 1_554 S
O60 C42 1.248 . S
O61 Tb40 2.440 . S
O61 C42 1.266 1_556 S
O62 Tb40 2.658 1_545 S
O62 Tb41 2.325 1_556 S
O62 C49 1.281 1_545 S
O63 Tb40 2.409 . S
O63 C49 1.254 . S
O64 Tb40 2.378 . S
O64 C50 1.236 . S
O65 Tb41 2.341 1_566 S
O65 C50 1.266 . S
O66 Tb41 2.484 1_556 S
O66 C51 1.248 . S
O67 Tb41 2.440 . S
O67 C51 1.266 1_554 S
O68 Tb40 2.325 1_554 S
O68 Tb41 2.658 1_565 S
O68 C58 1.281 1_565 S
O69 Tb41 2.409 . S
O69 C58 1.254 . S
O70 Tb41 2.378 . S
O70 C59 1.236 . S
O71 Tb40 2.341 1_544 S
O71 C59 1.266 . S
H72 C44 0.929 . S
H73 C45 0.931 . S
H74 C47 0.930 . S
H75 C48 0.930 . S
H76 C53 0.929 . S
H77 C54 0.931 . S
H78 C56 0.930 . S
H79 C57 0.930 . S
Tb80 C82 2.809 . S
Tb80 O100 2.484 1_556 S
Tb80 O101 2.440 . S
Tb80 O102 2.658 . S
Tb80 O103 2.409 . S
Tb80 O104 2.378 . S
Tb80 O108 2.325 1_556 S
Tb80 O111 2.341 . S
Tb81 C91 2.809 . S
Tb81 O102 2.325 1_554 S
Tb81 O105 2.341 . S
Tb81 O106 2.484 1_554 S
Tb81 O107 2.440 . S
Tb81 O108 2.658 . S
Tb81 O109 2.409 . S
Tb81 O110 2.378 . S
C82 Tb80 2.809 . S
C82 C83 1.514 1_556 S
C82 O100 1.248 1_556 S
C82 O101 1.266 . S
C83 C82 1.514 1_554 S
C83 C84 1.359 . S
C83 C88 1.348 1_554 S
C84 C83 1.359 . S
C84 C85 1.380 . S
C84 H112 0.929 . S
C85 C84 1.380 . S
C85 C86 1.347 . S
C85 H113 0.931 . S
C86 C85 1.347 . S
C86 C87 1.369 1_554 S
C87 C86 1.369 1_556 S
C87 C88 1.408 . S
C87 H114 0.930 . S
C88 C83 1.348 1_556 S
C88 C87 1.408 . S
C88 H115 0.930 . S
C89 O102 1.281 . S
C89 O103 1.254 . S
C90 O104 1.236 . S
C90 O105 1.266 1_556 S
C91 Tb81 2.809 . S
C91 C92 1.514 1_554 S
C91 O106 1.248 1_554 S
C91 O107 1.266 . S
C92 C91 1.514 1_556 S
C92 C93 1.359 . S
C92 C97 1.348 1_556 S
C93 C92 1.359 . S
C93 C94 1.380 . S
C93 H116 0.929 . S
C94 C93 1.380 . S
C94 C95 1.347 . S
C94 H117 0.931 . S
C95 C94 1.347 . S
C95 C96 1.369 1_556 S
C96 C95 1.369 1_554 S
C96 C97 1.408 . S
C96 H118 0.930 . S
C97 C92 1.348 1_554 S
C97 C96 1.408 . S
C97 H119 0.930 . S
C98 O108 1.281 . S
C98 O109 1.254 . S
C99 O110 1.236 . S
C99 O111 1.266 1_554 S
O100 Tb80 2.484 1_554 S
O100 C82 1.248 1_554 S
O101 Tb80 2.440 . S
O101 C82 1.266 . S
O102 Tb80 2.658 . S
O102 Tb81 2.325 1_556 S
O102 C89 1.281 . S
O103 Tb80 2.409 . S
O103 C89 1.254 . S
O104 Tb80 2.378 . S
O104 C90 1.236 . S
O105 Tb81 2.341 . S
O105 C90 1.266 1_554 S
O106 Tb81 2.484 1_556 S
O106 C91 1.248 1_556 S
O107 Tb81 2.440 . S
O107 C91 1.266 . S
O108 Tb80 2.325 1_554 S
O108 Tb81 2.658 . S
O108 C98 1.281 . S
O109 Tb81 2.409 . S
O109 C98 1.254 . S
O110 Tb81 2.378 . S
O110 C99 1.236 . S
O111 Tb80 2.341 . S
O111 C99 1.266 1_556 S
H112 C84 0.929 . S
H113 C85 0.931 . S
H114 C87 0.930 . S
H115 C88 0.930 . S
H116 C93 0.929 . S
H117 C94 0.931 . S
H118 C96 0.930 . S
H119 C97 0.930 . S
H120 C128 0.950 . S
H121 C133 0.950 . S
H122 C130 0.950 . S
H123 C132 0.950 . S
H124 C134 0.950 . S
H125 C136 0.950 . S
H126 C138 0.950 . S
H127 C139 0.950 . S
C128 H120 0.950 . S
C128 C129 1.367 1_455 S
C128 C130 1.391 . S
C129 C128 1.367 1_655 S
C129 C133 1.411 . S
C130 H122 0.950 . S
C130 C128 1.391 . S
C130 C131 1.396 1_455 S
C131 C130 1.396 1_655 S
C131 C132 1.403 . S
C131 C137 1.490 1_655 S
C132 H123 0.950 . S
C132 C131 1.403 . S
C132 C133 1.391 . S
C133 H121 0.950 . S
C133 C129 1.411 . S
C133 C132 1.391 . S
C134 H124 0.950 . S
C134 C135 1.358 1_655 S
C134 C136 1.391 . S
C135 C134 1.358 1_455 S
C135 C139 1.419 . S
C136 H125 0.950 . S
C136 C134 1.391 . S
C136 C137 1.387 1_655 S
C137 C131 1.490 1_455 S
C137 C136 1.387 1_455 S
C137 C138 1.412 . S
C138 H126 0.950 . S
C138 C137 1.412 . S
C138 C139 1.391 . S
C139 H127 0.950 . S
C139 C135 1.419 . S
C139 C138 1.391 . S
H140 C148 0.950 . S
H141 C153 0.950 . S
H142 C150 0.950 . S
H143 C152 0.950 . S
H144 C154 0.950 . S
H145 C156 0.950 . S
H146 C158 0.950 . S
H147 C159 0.950 . S
C148 H140 0.950 . S
C148 C149 1.381 . S
C148 C150 1.391 . S
C149 C148 1.381 . S
C149 C153 1.399 1_565 S
C150 H142 0.950 . S
C150 C148 1.391 . S
C150 C151 1.398 . S
C151 C150 1.398 . S
C151 C152 1.401 1_565 S
C151 C157 1.491 1_565 S
C152 H143 0.950 . S
C152 C151 1.401 1_545 S
C152 C153 1.391 . S
C153 H141 0.950 . S
C153 C149 1.399 1_545 S
C153 C152 1.391 . S
C154 H144 0.950 . S
C154 C155 1.386 . S
C154 C156 1.391 . S
C155 C154 1.386 . S
C155 C159 1.393 1_545 S
C156 H145 0.950 . S
C156 C154 1.391 . S
C156 C157 1.396 . S
C157 C151 1.491 1_545 S
C157 C156 1.396 . S
C157 C158 1.403 1_545 S
C158 H146 0.950 . S
C158 C157 1.403 1_565 S
C158 C159 1.391 . S
C159 H147 0.950 . S
C159 C155 1.393 1_565 S
C159 C158 1.391 . S
H160 C168 0.950 . S
H161 C173 0.950 . S
H162 C170 0.950 . S
H163 C172 0.950 . S
H164 C174 0.950 . S
H165 C176 0.950 . S
H166 C178 0.950 . S
H167 C179 0.950 . S
C168 H160 0.950 . S
C168 C169 1.386 . S
C168 C170 1.391 . S
C169 C168 1.386 . S
C169 C173 1.393 . S
C170 H162 0.950 . S
C170 C168 1.391 . S
C170 C171 1.400 . S
C171 C170 1.400 . S
C171 C172 1.398 . S
C171 C177 1.491 . S
C172 H163 0.950 . S
C172 C171 1.398 . S
C172 C173 1.391 . S
C173 H161 0.950 . S
C173 C169 1.393 . S
C173 C172 1.391 . S
C174 H164 0.950 . S
C174 C175 1.386 . S
C174 C176 1.391 . S
C175 C174 1.386 . S
C175 C179 1.393 . S
C176 H165 0.950 . S
C176 C174 1.391 . S
C176 C177 1.400 . S
C177 C171 1.491 . S
C177 C176 1.400 . S
C177 C178 1.398 . S
C178 H166 0.950 . S
C178 C177 1.398 . S
C178 C179 1.391 . S
C179 H167 0.950 . S
C179 C175 1.393 . S
C179 C178 1.391 . S
H180 C188 0.950 . S
H181 C193 0.950 . S
H182 C190 0.950 . S
H183 C192 0.950 . S
H184 C194 0.950 . S
H185 C196 0.950 . S
H186 C198 0.950 . S
H187 C199 0.950 . S
C188 H180 0.950 . S
C188 C189 1.386 1_556 S
C188 C190 1.391 . S
C189 C188 1.386 1_554 S
C189 C193 1.393 . S
C190 H182 0.950 . S
C190 C188 1.391 . S
C190 C191 1.400 1_556 S
C191 C190 1.400 1_554 S
C191 C192 1.398 . S
C191 C197 1.491 . S
C192 H183 0.950 . S
C192 C191 1.398 . S
C192 C193 1.391 . S
C193 H181 0.950 . S
C193 C189 1.393 . S
C193 C192 1.391 . S
C194 H184 0.950 . S
C194 C195 1.386 . S
C194 C196 1.391 . S
C195 C194 1.386 . S
C195 C199 1.393 1_554 S
C196 H185 0.950 . S
C196 C194 1.391 . S
C196 C197 1.400 . S
C197 C191 1.491 . S
C197 C196 1.400 . S
C197 C198 1.398 1_554 S
C198 H186 0.950 . S
C198 C197 1.398 1_556 S
C198 C199 1.391 . S
C199 H187 0.950 . S
C199 C195 1.393 1_556 S
C199 C198 1.391 . S
H200 C208 0.950 . S
H201 C213 0.950 . S
H202 C210 0.950 . S
H203 C212 0.950 . S
H204 C214 0.950 . S
H205 C216 0.950 . S
H206 C218 0.950 . S
H207 C219 0.950 . S
C208 H200 0.950 . S
C208 C209 1.386 . S
C208 C210 1.391 . S
C209 C208 1.386 . S
C209 C213 1.393 1_554 S
C210 H202 0.950 . S
C210 C208 1.391 . S
C210 C211 1.400 . S
C211 C210 1.400 . S
C211 C212 1.398 1_554 S
C211 C217 1.491 . S
C212 H203 0.950 . S
C212 C211 1.398 1_556 S
C212 C213 1.391 . S
C213 H201 0.950 . S
C213 C209 1.393 1_556 S
C213 C212 1.391 . S
C214 H204 0.950 . S
C214 C215 1.386 1_556 S
C214 C216 1.391 . S
C215 C214 1.386 1_554 S
C215 C219 1.393 . S
C216 H205 0.950 . S
C216 C214 1.391 . S
C216 C217 1.400 1_556 S
C217 C211 1.491 . S
C217 C216 1.400 1_554 S
C217 C218 1.398 . S
C218 H206 0.950 . S
C218 C217 1.398 . S
C218 C219 1.391 . S
C219 H207 0.950 . S
C219 C215 1.393 . S
C219 C218 1.391 . S
H220 C228 0.950 1_556 S
H221 C233 0.950 . S
H222 C230 0.948 1_556 S
H223 C232 0.950 . S
H224 C234 0.950 . S
H225 C236 0.950 . S
H226 C238 0.950 . S
H227 C239 0.950 . S
C228 H220 0.950 1_554 S
C228 C229 1.386 . S
C228 C230 1.391 . S
C229 C228 1.386 . S
C229 C233 1.393 . S
C230 H222 0.948 1_554 S
C230 C228 1.391 . S
C230 C231 1.402 . S
C231 C230 1.402 . S
C231 C232 1.398 . S
C231 C237 1.491 . S
C232 H223 0.950 . S
C232 C231 1.398 . S
C232 C233 1.391 . S
C233 H221 0.950 . S
C233 C229 1.393 . S
C233 C232 1.391 . S
C234 H224 0.950 . S
C234 C235 1.386 . S
C234 C236 1.391 . S
C235 C234 1.386 . S
C235 C239 1.393 1_554 S
C236 H225 0.950 . S
C236 C234 1.391 . S
C236 C237 1.400 . S
C237 C231 1.491 . S
C237 C236 1.400 . S
C237 C238 1.398 1_554 S
C238 H226 0.950 . S
C238 C237 1.398 1_556 S
C238 C239 1.391 . S
C239 H227 0.950 . S
C239 C235 1.393 1_556 S
C239 C238 1.391 . S
H240 C248 0.950 . S
H241 C253 0.950 . S
H242 C250 0.950 . S
H243 C252 0.950 . S
H244 C254 0.950 . S
H245 C256 0.950 . S
H246 C258 0.950 . S
H247 C259 0.950 . S
C248 H240 0.950 . S
C248 C249 1.386 . S
C248 C250 1.391 . S
C249 C248 1.386 . S
C249 C253 1.393 1_556 S
C250 H242 0.950 . S
C250 C248 1.391 . S
C250 C251 1.400 . S
C251 C250 1.400 . S
C251 C252 1.398 1_556 S
C251 C257 1.491 . S
C252 H243 0.950 . S
C252 C251 1.398 1_554 S
C252 C253 1.391 . S
C253 H241 0.950 . S
C253 C249 1.393 1_554 S
C253 C252 1.391 . S
C254 H244 0.950 . S
C254 C255 1.386 1_554 S
C254 C256 1.391 . S
C255 C254 1.386 1_556 S
C255 C259 1.393 . S
C256 H245 0.950 . S
C256 C254 1.391 . S
C256 C257 1.400 1_554 S
C257 C251 1.491 . S
C257 C256 1.400 1_556 S
C257 C258 1.398 . S
C258 H246 0.950 . S
C258 C257 1.398 . S
C258 C259 1.391 . S
C259 H247 0.950 . S
C259 C255 1.393 . S
C259 C258 1.391 . S
H260 C268 0.950 . S
H261 C273 0.950 . S
H262 C270 0.950 . S
H263 C272 0.950 . S
H264 C274 0.950 . S
H265 C276 0.950 . S
H266 C278 0.950 . S
H267 C279 0.950 . S
C268 H260 0.950 . S
C268 C269 1.386 . S
C268 C270 1.391 . S
C269 C268 1.386 . S
C269 C273 1.393 1_556 S
C270 H262 0.950 . S
C270 C268 1.391 . S
C270 C271 1.400 . S
C271 C270 1.400 . S
C271 C272 1.398 1_556 S
C271 C277 1.491 . S
C272 H263 0.950 . S
C272 C271 1.398 1_554 S
C272 C273 1.391 . S
C273 H261 0.950 . S
C273 C269 1.393 1_554 S
C273 C272 1.391 . S
C274 H264 0.950 . S
C274 C275 1.386 1_554 S
C274 C276 1.391 . S
C275 C274 1.386 1_556 S
C275 C279 1.393 . S
C276 H265 0.950 . S
C276 C274 1.391 . S
C276 C277 1.400 1_554 S
C277 C271 1.491 . S
C277 C276 1.400 1_556 S
C277 C278 1.398 . S
C278 H266 0.950 . S
C278 C277 1.398 . S
C278 C279 1.391 . S
C279 H267 0.950 . S
C279 C275 1.393 . S
C279 C278 1.391 . S
H280 C288 0.950 . S
H281 C293 0.950 . S
H282 C290 0.950 . S
H283 C292 0.950 . S
H284 C294 0.950 . S
H285 C296 0.950 . S
H286 C298 0.950 . S
H287 C299 0.950 . S
C288 H280 0.950 . S
C288 C289 1.388 . S
C288 C290 1.391 . S
C289 C288 1.388 . S
C289 C293 1.391 1_556 S
C290 H282 0.950 . S
C290 C288 1.391 . S
C290 C291 1.400 . S
C291 C290 1.400 . S
C291 C292 1.398 1_556 S
C291 C297 1.491 . S
C292 H283 0.950 . S
C292 C291 1.398 1_554 S
C292 C293 1.391 . S
C293 H281 0.950 . S
C293 C289 1.391 1_554 S
C293 C292 1.391 . S
C294 H284 0.950 . S
C294 C295 1.386 . S
C294 C296 1.391 . S
C295 C294 1.386 . S
C295 C299 1.393 . S
C296 H285 0.950 . S
C296 C294 1.391 . S
C296 C297 1.400 . S
C297 C291 1.491 . S
C297 C296 1.400 . S
C297 C298 1.398 . S
C298 H286 0.950 . S
C298 C297 1.398 . S
C298 C299 1.391 . S
C299 H287 0.950 . S
C299 C295 1.393 . S
C299 C298 1.391 . S
C129 C9 1.431 . S
C135 C18 1.431 . S
C149 C58 1.442 1_565 S
C155 C49 1.451 1_545 S
C169 C89 1.433 . S
C175 C98 1.433 . S
C189 C19 1.655 . S
C195 C86 1.655 . S
C209 C59 1.649 . S
C215 C6 1.656 . S
C229 C46 1.658 . S
C235 C90 1.666 1_554 S
C249 C10 1.647 . S
C255 C95 1.653 . S
C269 C15 1.652 . S
C275 C50 1.654 . S
C289 C99 1.657 1_556 S
C295 C55 1.664 . S
