# Generated by pormake.
# Topology lcy-e, (6)-cn, num edge types: 1
# Building blocks:
#     Node 0, Type 0, BuildingBlock: CIFDUS_clean_sbu_1, # of connection points: 6
#     Node 1, Type 0, BuildingBlock: CIFDUS_clean_sbu_1, # of connection points: 6
#     Node 2, Type 0, BuildingBlock: CIFDUS_clean_sbu_1, # of connection points: 6
#     Node 3, Type 0, BuildingBlock: CIFDUS_clean_sbu_1, # of connection points: 6
#     Node 4, Type 0, BuildingBlock: CIFDUS_clean_sbu_1, # of connection points: 6
#     Node 5, Type 0, BuildingBlock: CIFDUS_clean_sbu_1, # of connection points: 6
#     Node 6, Type 0, BuildingBlock: CIFDUS_clean_sbu_1, # of connection points: 6
#     Node 7, Type 0, BuildingBlock: CIFDUS_clean_sbu_1, # of connection points: 6
#     Node 8, Type 0, BuildingBlock: CIFDUS_clean_sbu_1, # of connection points: 6
#     Node 9, Type 0, BuildingBlock: CIFDUS_clean_sbu_1, # of connection points: 6
#     Node 10, Type 0, BuildingBlock: CIFDUS_clean_sbu_1, # of connection points: 6
#     Node 11, Type 0, BuildingBlock: CIFDUS_clean_sbu_1, # of connection points: 6
#     Edge 12, Type (0, 0), BuildingBlock: ZUJKAS_clean_linker_0, # of connection points: 2
#     Edge 13, Type (0, 0), BuildingBlock: ZUJKAS_clean_linker_0, # of connection points: 2
#     Edge 14, Type (0, 0), BuildingBlock: ZUJKAS_clean_linker_0, # of connection points: 2
#     Edge 15, Type (0, 0), BuildingBlock: ZUJKAS_clean_linker_0, # of connection points: 2
#     Edge 16, Type (0, 0), BuildingBlock: ZUJKAS_clean_linker_0, # of connection points: 2
#     Edge 17, Type (0, 0), BuildingBlock: ZUJKAS_clean_linker_0, # of connection points: 2
#     Edge 18, Type (0, 0), BuildingBlock: ZUJKAS_clean_linker_0, # of connection points: 2
#     Edge 19, Type (0, 0), BuildingBlock: ZUJKAS_clean_linker_0, # of connection points: 2
#     Edge 20, Type (0, 0), BuildingBlock: ZUJKAS_clean_linker_0, # of connection points: 2
#     Edge 21, Type (0, 0), BuildingBlock: ZUJKAS_clean_linker_0, # of connection points: 2
#     Edge 22, Type (0, 0), BuildingBlock: ZUJKAS_clean_linker_0, # of connection points: 2
#     Edge 23, Type (0, 0), BuildingBlock: ZUJKAS_clean_linker_0, # of connection points: 2
#     Edge 24, Type (0, 0), BuildingBlock: ZUJKAS_clean_linker_0, # of connection points: 2
#     Edge 25, Type (0, 0), BuildingBlock: ZUJKAS_clean_linker_0, # of connection points: 2
#     Edge 26, Type (0, 0), BuildingBlock: ZUJKAS_clean_linker_0, # of connection points: 2
#     Edge 27, Type (0, 0), BuildingBlock: ZUJKAS_clean_linker_0, # of connection points: 2
#     Edge 28, Type (0, 0), BuildingBlock: ZUJKAS_clean_linker_0, # of connection points: 2
#     Edge 29, Type (0, 0), BuildingBlock: ZUJKAS_clean_linker_0, # of connection points: 2
#     Edge 30, Type (0, 0), BuildingBlock: ZUJKAS_clean_linker_0, # of connection points: 2
#     Edge 31, Type (0, 0), BuildingBlock: ZUJKAS_clean_linker_0, # of connection points: 2
#     Edge 32, Type (0, 0), BuildingBlock: ZUJKAS_clean_linker_0, # of connection points: 2
#     Edge 33, Type (0, 0), BuildingBlock: ZUJKAS_clean_linker_0, # of connection points: 2
#     Edge 34, Type (0, 0), BuildingBlock: ZUJKAS_clean_linker_0, # of connection points: 2
#     Edge 35, Type (0, 0), BuildingBlock: ZUJKAS_clean_linker_0, # of connection points: 2
#     Edge 36, Type (0, 0), BuildingBlock: ZUJKAS_clean_linker_0, # of connection points: 2
#     Edge 37, Type (0, 0), BuildingBlock: ZUJKAS_clean_linker_0, # of connection points: 2
#     Edge 38, Type (0, 0), BuildingBlock: ZUJKAS_clean_linker_0, # of connection points: 2
#     Edge 39, Type (0, 0), BuildingBlock: ZUJKAS_clean_linker_0, # of connection points: 2
#     Edge 40, Type (0, 0), BuildingBlock: ZUJKAS_clean_linker_0, # of connection points: 2
#     Edge 41, Type (0, 0), BuildingBlock: ZUJKAS_clean_linker_0, # of connection points: 2
#     Edge 42, Type (0, 0), BuildingBlock: ZUJKAS_clean_linker_0, # of connection points: 2
#     Edge 43, Type (0, 0), BuildingBlock: ZUJKAS_clean_linker_0, # of connection points: 2
#     Edge 44, Type (0, 0), BuildingBlock: ZUJKAS_clean_linker_0, # of connection points: 2
#     Edge 45, Type (0, 0), BuildingBlock: ZUJKAS_clean_linker_0, # of connection points: 2
#     Edge 46, Type (0, 0), BuildingBlock: ZUJKAS_clean_linker_0, # of connection points: 2
#     Edge 47, Type (0, 0), BuildingBlock: ZUJKAS_clean_linker_0, # of connection points: 2
# Relax obj value: 0.272
# Max RMSD: 0.265
# Mean RMSD: 0.265
data_MOF--net-lcy-e--node1-CIFDUS_clean_sbu_1--edge1-ZUJKAS_clean_linker_0
_symmetry_space_group_name_H-M    P1
_symmetry_Int_Tables_number       1
_symmetry_cell_setting            triclinic
loop_
_symmetry_equiv_pos_as_xyz
'x, y, z'
_cell_length_a     46.241515
_cell_length_b     46.273441
_cell_length_c     46.283221
_cell_angle_alpha  90.002444
_cell_angle_beta   89.973759
_cell_angle_gamma 90.034551
loop_
_atom_site_label
_atom_site_type_symbol
_atom_site_fract_x
_atom_site_fract_y
_atom_site_fract_z
_atom_type_partial_charge
O0 O 0.10098 0.15993 0.43349 0.0
Mn1 Mn 0.12635 0.19541 0.44622 0.0
O2 O 0.05893 0.17881 0.41726 0.0
Mn3 Mn 0.06626 0.21757 0.42446 0.0
O4 O 0.15043 0.23151 0.46 0.0
O5 O 0.14925 0.16876 0.47135 0.0
Mn6 Mn 0.18589 0.17885 0.47218 0.0
O7 O 0.15535 0.18835 0.41228 0.0
O8 O 0.18533 0.21481 0.48929 0.0
O9 O 0.09818 0.20428 0.48067 0.0
O10 O 0.06029 0.22901 0.46233 0.0
O11 O 0.18279 0.14479 0.49307 0.0
O12 O 0.19808 0.17898 0.4339 0.0
C13 C 0.09975 0.23641 0.39757 0.0
C14 C 0.07543 0.15733 0.42263 0.0
C15 C 0.17037 0.23551 0.47904 0.0
C16 C 0.15568 0.14627 0.48638 0.0
C17 C 0.18277 0.18364 0.41138 0.0
C18 C 0.07498 0.21945 0.48365 0.0
O19 O 0.1038 0.2211 0.42029 0.0
O20 O 0.07272 0.24185 0.39295 0.0
O21 O 0.08489 0.84283 0.6886 0.0
Mn22 Mn 0.05188 0.87177 0.69977 0.0
O23 O 0.06287 0.80331 0.67 0.0
Mn24 Mn 0.02483 0.81456 0.67644 0.0
O25 O 0.01818 0.89944 0.71244 0.0
O26 O 0.07935 0.89111 0.72658 0.0
Mn27 Mn 0.07516 0.9287 0.7279 0.0
O28 O 0.0636 0.9008 0.66709 0.0
O29 O 0.03776 0.93338 0.74132 0.0
O30 O 0.03901 0.84421 0.73332 0.0
O31 O 0.01168 0.80906 0.71376 0.0
O32 O 0.10617 0.91942 0.75189 0.0
O33 O 0.08131 0.94035 0.68992 0.0
C34 C 0.00766 0.8493 0.65072 0.0
C35 C 0.08548 0.81728 0.67753 0.0
C36 C 0.01586 0.92046 0.73059 0.0
C37 C 0.10123 0.89328 0.74342 0.0
C38 C 0.07448 0.92646 0.66703 0.0
C39 C 0.02173 0.8225 0.73563 0.0
O40 O 0.02517 0.85226 0.67205 0.0
O41 O -3e-05 0.82285 0.64605 0.0
O42 O 0.34637 0.80661 0.91358 0.0
Mn43 Mn 0.37693 0.79604 0.94515 0.0
O44 O 0.30704 0.82119 0.93857 0.0
Mn45 Mn 0.32178 0.81912 0.97585 0.0
O46 O 0.40632 0.78396 0.97764 0.0
O47 O 0.39494 0.76871 0.91729 0.0
Mn48 Mn 0.43267 0.76709 0.92065 0.0
O49 O 0.4049 0.8285 0.93107 0.0
O50 O 0.43748 0.75252 0.95749 0.0
O51 O 0.34991 0.76267 0.96033 0.0
O52 O 0.31941 0.78288 0.99233 0.0
O53 O 0.42263 0.74574 0.88803 0.0
O54 O 0.44496 0.80513 0.91581 0.0
C55 C 0.35687 0.84786 0.98694 0.0
C56 C 0.31978 0.81484 0.91488 0.0
C57 C 0.42624 0.76456 0.97961 0.0
C58 C 0.39665 0.75432 0.89366 0.0
C59 C 0.43086 0.82835 0.921 0.0
C60 C 0.33092 0.76072 0.98066 0.0
O61 O 0.35911 0.82454 0.97205 0.0
O62 O 0.33088 0.85259 0.99611 0.0
O63 O 0.43888 0.09135 0.16395 0.0
Mn64 Mn 0.44823 0.12111 0.19667 0.0
O65 O 0.42111 0.05169 0.18642 0.0
Mn66 Mn 0.42426 0.06437 0.22445 0.0
O67 O 0.45913 0.14974 0.23026 0.0
O68 O 0.47604 0.14019 0.16992 0.0
Mn69 Mn 0.47638 0.17792 0.17336 0.0
O70 O 0.41567 0.14924 0.18301 0.0
O71 O 0.4882 0.18376 0.21107 0.0
O72 O 0.48139 0.09413 0.21168 0.0
O73 O 0.46079 0.06063 0.24037 0.0
O74 O 0.50167 0.16858 0.14345 0.0
O75 O 0.43844 0.18887 0.16555 0.0
C76 C 0.39618 0.09945 0.23719 0.0
C77 C 0.42891 0.06536 0.16371 0.0
C78 C 0.47678 0.17118 0.23281 0.0
C79 C 0.49354 0.14235 0.1485 0.0
C80 C 0.4155 0.1747 0.17175 0.0
C81 C 0.48306 0.07355 0.23036 0.0
O82 O 0.41952 0.10193 0.22241 0.0
O83 O 0.39108 0.07327 0.24548 0.0
O84 O 0.64911 0.30813 0.58289 0.0
Mn85 Mn 0.62003 0.29828 0.54968 0.0
O86 O 0.6911 0.31811 0.5599 0.0
Mn87 Mn 0.6785 0.31681 0.52175 0.0
O88 O 0.59232 0.28724 0.51534 0.0
O89 O 0.59873 0.27265 0.57733 0.0
Mn90 Mn 0.56129 0.27412 0.57096 0.0
O91 O 0.59316 0.33303 0.56087 0.0
O92 O 0.55671 0.25999 0.53397 0.0
O93 O 0.64576 0.2629 0.53713 0.0
O94 O 0.67886 0.28017 0.50596 0.0
O95 O 0.56649 0.25055 0.60277 0.0
O96 O 0.55148 0.31265 0.57626 0.0
C97 C 0.64587 0.34761 0.50857 0.0
C98 C 0.67642 0.31374 0.58294 0.0
C99 C 0.57061 0.27001 0.51241 0.0
C100 C 0.59359 0.25683 0.59968 0.0
C101 C 0.56712 0.33472 0.57065 0.0
C102 C 0.66537 0.25915 0.51766 0.0
O103 O 0.64148 0.32462 0.52339 0.0
O104 O 0.67254 0.35072 0.50081 0.0
O105 O 0.93571 0.40304 0.83056 0.0
Mn106 Mn 0.94554 0.37603 0.7957 0.0
O107 O 0.91578 0.44334 0.81132 0.0
Mn108 Mn 0.91871 0.4335 0.77243 0.0
O109 O 0.9566 0.35027 0.76001 0.0
O110 O 0.97495 0.35628 0.82048 0.0
Mn111 Mn 0.97526 0.3187 0.81494 0.0
O112 O 0.91416 0.34587 0.80808 0.0
O113 O 0.98451 0.31382 0.77638 0.0
O114 O 0.97727 0.40525 0.78177 0.0
O115 O 0.9547 0.43981 0.75599 0.0
O116 O 0.00257 0.32641 0.8433 0.0
O117 O 0.93819 0.30673 0.82466 0.0
C118 C 0.89171 0.3982 0.75793 0.0
C119 C 0.92451 0.42842 0.83284 0.0
C120 C 0.973 0.32817 0.75588 0.0
C121 C 0.994 0.35285 0.84045 0.0
C122 C 0.91481 0.32023 0.81887 0.0
C123 C 0.97768 0.42707 0.76446 0.0
O124 O 0.91549 0.39572 0.77198 0.0
O125 O 0.88543 0.42464 0.75155 0.0
O126 O 0.89976 0.66566 0.06085 0.0
Mn127 Mn 0.87011 0.69792 0.04953 0.0
O128 O 0.94004 0.68996 0.07436 0.0
Mn129 Mn 0.92632 0.72769 0.0719 0.0
O130 O 0.84188 0.73119 0.0373 0.0
O131 O 0.85136 0.67042 0.0221 0.0
Mn132 Mn 0.81355 0.67372 0.02192 0.0
O133 O 0.84143 0.68547 0.08223 0.0
O134 O 0.8069 0.71132 0.00998 0.0
O135 O 0.89749 0.71162 0.01603 0.0
O136 O 0.92874 0.74345 0.03532 0.0
O137 O 0.82284 0.64469 0.99572 0.0
O138 O 0.80272 0.66572 0.05979 0.0
C139 C 0.89131 0.73991 0.10033 0.0
C140 C 0.92649 0.66649 0.06879 0.0
C141 C 0.81996 0.73332 0.02028 0.0
C142 C 0.84917 0.64997 0.00346 0.0
C143 C 0.81633 0.67337 0.08259 0.0
C144 C 0.91682 0.73153 0.01352 0.0
O145 O 0.88897 0.72451 0.07745 0.0
O146 O 0.91735 0.7489 0.10498 0.0
O147 O 0.58062 0.65562 0.31398 0.0
Mn148 Mn 0.54635 0.62797 0.30311 0.0
O149 O 0.55947 0.69825 0.32493 0.0
Mn150 Mn 0.52091 0.68804 0.32004 0.0
O151 O 0.51124 0.6016 0.29093 0.0
O152 O 0.5739 0.60455 0.27944 0.0
Mn153 Mn 0.56562 0.56747 0.28138 0.0
O154 O 0.55478 0.6016 0.33886 0.0
O155 O 0.52941 0.56486 0.26492 0.0
O156 O 0.53658 0.65352 0.26676 0.0
O157 O 0.5078 0.6895 0.28241 0.0
O158 O 0.59926 0.57074 0.25985 0.0
O159 O 0.56709 0.55807 0.32039 0.0
C160 C 0.50446 0.65646 0.35032 0.0
C161 C 0.58188 0.68242 0.32151 0.0
C162 C 0.5081 0.57992 0.27372 0.0
C163 C 0.5967 0.59813 0.26485 0.0
C164 C 0.56181 0.57485 0.34164 0.0
C165 C 0.51906 0.6747 0.26205 0.0
O166 O 0.51977 0.65105 0.32782 0.0
O167 O 0.49766 0.68347 0.35255 0.0
O168 O 0.18742 0.41428 0.15414 0.0
Mn169 Mn 0.19621 0.44743 0.12457 0.0
O170 O 0.16943 0.43615 0.19402 0.0
Mn171 Mn 0.17219 0.47428 0.18164 0.0
O172 O 0.20649 0.48152 0.0963 0.0
O173 O 0.2244 0.42123 0.10507 0.0
Mn174 Mn 0.22378 0.425 0.06735 0.0
O175 O 0.16343 0.43337 0.09652 0.0
O176 O 0.23444 0.46294 0.06109 0.0
O177 O 0.22942 0.46276 0.15155 0.0
O178 O 0.20849 0.49069 0.18546 0.0
O179 O 0.25057 0.39629 0.07561 0.0
O180 O 0.18608 0.4158 0.05695 0.0
C181 C 0.14384 0.48724 0.14696 0.0
C182 C 0.17745 0.41367 0.18014 0.0
C183 C 0.22337 0.48443 0.07431 0.0
C184 C 0.24296 0.40078 0.10211 0.0
C185 C 0.16315 0.4217 0.07122 0.0
C186 C 0.23087 0.48124 0.17236 0.0
O187 O 0.16725 0.47264 0.1441 0.0
O188 O 0.1388 0.49506 0.17329 0.0
O189 O 0.68717 0.082 0.84194 0.0
Mn190 Mn 0.69751 0.04912 0.87145 0.0
O191 O 0.6717 0.05889 0.80172 0.0
Mn192 Mn 0.67686 0.02091 0.81365 0.0
O193 O 0.70879 0.01527 0.89956 0.0
O194 O 0.72331 0.07689 0.89243 0.0
Mn195 Mn 0.72143 0.0714 0.93001 0.0
O196 O 0.66292 0.06051 0.89836 0.0
O197 O 0.73519 0.03436 0.93555 0.0
O198 O 0.7325 0.03634 0.84535 0.0
O199 O 0.71433 0.00729 0.81076 0.0
O200 O 0.74519 0.10303 0.92435 0.0
O201 O 0.68288 0.07718 0.93968 0.0
C202 C 0.64871 0.00613 0.84784 0.0
C203 C 0.67754 0.08198 0.81577 0.0
C204 C 0.72542 0.01264 0.92172 0.0
C205 C 0.73924 0.09921 0.8973 0.0
C206 C 0.66098 0.07089 0.9241 0.0
C207 C 0.73569 0.01819 0.82443 0.0
O208 O 0.67104 0.02224 0.85095 0.0
O209 O 0.64478 0.99776 0.8215 0.0
O210 O 0.81254 0.91686 0.34418 0.0
Mn211 Mn 0.80084 0.94818 0.37446 0.0
O212 O 0.82502 0.94202 0.30419 0.0
Mn213 Mn 0.82149 0.97945 0.3186 0.0
O214 O 0.78779 0.98037 0.4036 0.0
O215 O 0.77469 0.91948 0.39292 0.0
Mn216 Mn 0.77404 0.92205 0.43072 0.0
O217 O 0.83418 0.93596 0.40232 0.0
O218 O 0.75984 0.95891 0.4372 0.0
O219 O 0.76646 0.96149 0.34792 0.0
O220 O 0.78445 0.99419 0.31685 0.0
O221 O 0.75097 0.8906 0.42047 0.0
O222 O 0.8124 0.91639 0.44152 0.0
C223 C 0.85039 0.99206 0.353 0.0
C224 C 0.82022 0.9182 0.31745 0.0
C225 C 0.76991 0.9815 0.42494 0.0
C226 C 0.75873 0.89688 0.39439 0.0
C227 C 0.83495 0.92412 0.42749 0.0
C228 C 0.76312 0.98157 0.32893 0.0
O229 O 0.82793 0.97597 0.35577 0.0
O230 O 0.854 0.00166 0.32703 0.0
O231 O 0.33614 0.55805 0.59771 0.0
Mn232 Mn 0.29987 0.54891 0.62301 0.0
O233 O 0.31864 0.57318 0.55465 0.0
Mn234 Mn 0.2793 0.57227 0.56309 0.0
O235 O 0.26288 0.5381 0.64734 0.0
O236 O 0.32398 0.52139 0.64551 0.0
Mn237 Mn 0.31487 0.52057 0.68224 0.0
O238 O 0.31008 0.58171 0.65225 0.0
O239 O 0.27764 0.50636 0.68111 0.0
O240 O 0.28791 0.51559 0.59457 0.0
O241 O 0.2624 0.5363 0.55865 0.0
O242 O 0.3484 0.49868 0.67766 0.0
O243 O 0.31736 0.55876 0.69466 0.0
C244 C 0.26422 0.60168 0.5964 0.0
C245 C 0.33949 0.56643 0.57143 0.0
C246 C 0.25762 0.51882 0.66682 0.0
C247 C 0.34671 0.50645 0.65089 0.0
C248 C 0.31471 0.58184 0.67967 0.0
C249 C 0.27087 0.51402 0.57255 0.0
O250 O 0.27701 0.57747 0.60057 0.0
O251 O 0.25938 0.60675 0.56937 0.0
H252 H 0.20493 0.25056 0.52422 0.0
H253 H 0.21888 0.29876 0.53977 0.0
H254 H 0.16604 0.33614 0.47278 0.0
H255 H 0.15192 0.28753 0.45667 0.0
H256 H 0.22407 0.35776 0.47593 0.0
H257 H 0.17056 0.35934 0.58318 0.0
H258 H 0.19221 0.32775 0.57692 0.0
H259 H 0.16066 0.33407 0.55513 0.0
C260 C 0.19603 0.26894 0.51278 0.0
C261 C 0.17731 0.26512 0.4891 0.0
C262 C 0.20391 0.29652 0.5219 0.0
C263 C 0.19318 0.32098 0.50771 0.0
C264 C 0.17436 0.31745 0.48415 0.0
H265 H 0.23416 0.5028 0.52772 0.0
H266 H 0.21559 0.45625 0.51185 0.0
C267 C 0.16629 0.28971 0.47501 0.0
C268 C 0.20311 0.35002 0.51673 0.0
H269 H 0.20635 0.39553 0.57472 0.0
C270 C 0.21994 0.36622 0.49739 0.0
C271 C 0.1979 0.36079 0.54486 0.0
C272 C 0.17913 0.34472 0.56616 0.0
C273 C 0.23239 0.39261 0.50571 0.0
C274 C 0.2274 0.40326 0.53394 0.0
C275 C 0.2103 0.3872 0.55317 0.0
C276 C 0.23911 0.43142 0.54368 0.0
C277 C 0.25145 0.40845 0.48448 0.0
C278 C 0.25805 0.433 0.56735 0.0
C279 C 0.2687 0.45975 0.57671 0.0
C280 C 0.26039 0.48538 0.56262 0.0
C281 C 0.24126 0.48358 0.53901 0.0
C282 C 0.23067 0.45692 0.52975 0.0
H283 H 0.25937 0.39393 0.46708 0.0
H284 H 0.23883 0.42606 0.4742 0.0
H285 H 0.27038 0.41828 0.49551 0.0
H286 H 0.26467 0.41351 0.5785 0.0
H287 H 0.28329 0.46034 0.595 0.0
H288 H 0.78837 0.03578 0.84626 0.0
H289 H 0.8366 0.02028 0.83025 0.0
H290 H 0.79766 0.96476 0.76638 0.0
H291 H 0.74985 0.98006 0.78176 0.0
H292 H 0.85948 0.96311 0.82838 0.0
H293 H 0.85568 0.01213 0.71908 0.0
H294 H 0.83103 0.02235 0.74756 0.0
H295 H 0.82501 0.98976 0.72725 0.0
C296 C 0.7901 0.02039 0.82872 0.0
C297 C 0.76516 0.00935 0.81523 0.0
C298 C 0.81765 0.01155 0.81962 0.0
C299 C 0.82066 0.99176 0.79679 0.0
C300 C 0.79585 0.98053 0.78358 0.0
H301 H 0.96254 0.90267 0.71072 0.0
H302 H 0.91489 0.91922 0.72728 0.0
C303 C 0.76846 0.98926 0.79259 0.0
C304 C 0.84958 0.98201 0.78706 0.0
H305 H 0.89342 0.97821 0.72774 0.0
C306 C 0.86705 0.96662 0.80647 0.0
C307 C 0.85925 0.98644 0.75838 0.0
C308 C 0.8419 0.0038 0.73691 0.0
C309 C 0.89373 0.95502 0.79777 0.0
C310 C 0.90329 0.9593 0.76905 0.0
C311 C 0.88589 0.97478 0.74967 0.0
C312 C 0.93191 0.949 0.75907 0.0
C313 C 0.91123 0.93777 0.8192 0.0
C314 C 0.95711 0.96059 0.77117 0.0
C315 C 0.98421 0.95135 0.76176 0.0
C316 C 0.98676 0.93029 0.73992 0.0
C317 C 0.9614 0.91883 0.72761 0.0
C318 C 0.93418 0.92825 0.73703 0.0
H319 H 0.89785 0.93036 0.83773 0.0
H320 H 0.92118 0.91862 0.8087 0.0
H321 H 0.92891 0.95152 0.82782 0.0
H322 H 0.95582 0.97699 0.78783 0.0
H323 H 0.00318 0.96075 0.77176 0.0
H324 H 0.34314 0.70723 0.95747 0.0
H325 H 0.32376 0.66032 0.97307 0.0
H326 H 0.27679 0.70231 0.04171 0.0
H327 H 0.29559 0.74892 0.02636 0.0
H328 H 0.32802 0.63253 0.02752 0.0
H329 H 0.21373 0.65635 -0.00016 0.0
H330 H 0.24353 0.67776 0.98649 0.0
H331 H 0.23032 0.68299 0.02266 0.0
C332 C 0.32872 0.70645 0.9759 0.0
C333 C 0.32072 0.73193 0.99044 0.0
C334 C 0.31764 0.67967 0.98475 0.0
C335 C 0.29835 0.67798 0.00815 0.0
C336 C 0.29104 0.70322 0.02315 0.0
H337 H 0.21118 0.53722 0.09924 0.0
H338 H 0.22896 0.58481 0.08367 0.0
C339 C 0.30199 0.72987 0.01437 0.0
C340 C 0.28606 0.64988 0.01738 0.0
H341 H 0.22226 0.61396 0.02761 0.0
C342 C 0.30493 0.62838 0.02738 0.0
C343 C 0.25588 0.64464 0.01734 0.0
C344 C 0.23467 0.66653 0.00577 0.0
C345 C 0.29439 0.60188 0.03774 0.0
C346 C 0.26423 0.59666 0.0377 0.0
C347 C 0.24534 0.61816 0.02778 0.0
C348 C 0.25212 0.56839 0.04651 0.0
C349 C 0.31556 0.57981 0.04903 0.0
C350 C 0.25856 0.54371 0.03026 0.0
C351 C 0.24845 0.51671 0.03895 0.0
C352 C 0.23155 0.51373 0.06411 0.0
C353 C 0.22419 0.53871 0.07982 0.0
C354 C 0.23436 0.56587 0.07101 0.0
H355 H 0.33681 0.5897 0.05432 0.0
H356 H 0.30696 0.56897 0.06865 0.0
H357 H 0.31916 0.56304 0.03227 0.0
H358 H 0.27173 0.54531 0.01095 0.0
H359 H 0.25435 0.49809 0.02606 0.0
H360 H 0.49479 0.03186 0.2705 0.0
H361 H 0.54186 0.01602 0.2879 0.0
H362 H 0.58385 0.07747 0.2318 0.0
H363 H 0.53664 0.09347 0.21385 0.0
H364 H 0.60731 0.02057 0.23006 0.0
H365 H 0.59599 0.06047 0.34269 0.0
H366 H 0.56659 0.03829 0.33036 0.0
H367 H 0.57301 0.07275 0.31364 0.0
C368 C 0.51395 0.04216 0.26182 0.0
C369 C 0.51185 0.06407 0.24079 0.0
C370 C 0.54086 0.03315 0.27198 0.0
C371 C 0.56626 0.0459 0.2615 0.0
C372 C 0.56441 0.06752 0.2403 0.0
H373 H 0.74846 0.02326 0.28992 0.0
H374 H 0.70038 0.03735 0.27408 0.0
C375 C 0.53742 0.07664 0.23009 0.0
C376 C 0.59475 0.03595 0.27212 0.0
H377 H 0.63636 0.03039 0.33282 0.0
C378 C 0.61374 0.02281 0.25248 0.0
C379 C 0.6029 0.03872 0.30145 0.0
C380 C 0.5837 0.05354 0.32326 0.0
C381 C 0.64065 0.01212 0.26146 0.0
C382 C 0.64892 0.01509 0.29074 0.0
C383 C 0.62984 0.02802 0.31043 0.0
C384 C 0.67795 0.00635 0.30092 0.0
C385 C 0.65988 0.9974 0.23961 0.0
C386 C 0.68123 0.98472 0.32194 0.0
C387 C 0.70887 0.97656 0.33125 0.0
C388 C 0.73361 0.99011 0.31979 0.0
C389 C 0.73001 0.01213 0.2991 0.0
C390 C 0.7025 0.02019 0.28986 0.0
H391 H 0.64744 0.98985 0.22051 0.0
H392 H 0.67647 0.01296 0.23194 0.0
H393 H 0.67121 0.97862 0.24935 0.0
H394 H 0.66244 0.97397 0.33089 0.0
H395 H 0.71084 0.95962 0.34727 0.0
H396 H 0.64838 0.20721 0.54147 0.0
H397 H 0.66407 0.15863 0.52696 0.0
H398 H 0.71696 0.19561 0.4597 0.0
H399 H 0.70135 0.24381 0.47359 0.0
H400 H 0.68334 0.1482 0.44155 0.0
H401 H 0.74533 0.12433 0.54178 0.0
H402 H 0.70825 0.13494 0.5467 0.0
H403 H 0.73383 0.16041 0.53241 0.0
C404 C 0.66327 0.20497 0.52354 0.0
C405 C 0.67372 0.22948 0.50884 0.0
C406 C 0.67235 0.17723 0.5154 0.0
C407 C 0.69197 0.17361 0.4925 0.0
C408 C 0.70191 0.19795 0.4775 0.0
H409 H 0.78234 0.03544 0.40317 0.0
H410 H 0.76327 0.08195 0.41978 0.0
C411 C 0.69297 0.22554 0.48559 0.0
C412 C 0.70242 0.14462 0.48383 0.0
H413 H 0.7439 0.08786 0.5062 0.0
C414 C 0.69652 0.13494 0.45569 0.0
C415 C 0.71964 0.12746 0.50233 0.0
C416 C 0.72741 0.13728 0.53243 0.0
C417 C 0.70733 0.10848 0.44555 0.0
C418 C 0.72498 0.09155 0.46387 0.0
C419 C 0.73052 0.10101 0.49216 0.0
C420 C 0.73745 0.06365 0.45427 0.0
C421 C 0.69943 0.0987 0.41546 0.0
C422 C 0.72999 0.03812 0.46871 0.0
C423 C 0.74096 0.0116 0.45945 0.0
C424 C 0.75979 0.01003 0.43556 0.0
C425 C 0.76782 0.0358 0.42154 0.0
C426 C 0.75678 0.06238 0.43087 0.0
H427 H 0.68016 0.11033 0.40709 0.0
H428 H 0.71778 0.10314 0.40066 0.0
H429 H 0.69497 0.07512 0.41498 0.0
H430 H 0.71525 0.03864 0.48691 0.0
H431 H 0.73435 0.99228 0.4709 0.0
H432 H 0.98691 0.47136 0.72642 0.0
H433 H 0.03295 0.48924 0.708 0.0
H434 H 0.07835 0.42586 0.75895 0.0
H435 H 0.03227 0.40777 0.77783 0.0
H436 H 0.10038 0.48372 0.76279 0.0
H437 H 0.08594 0.44827 0.64887 0.0
H438 H 0.05673 0.46907 0.66382 0.0
H439 H 0.06455 0.43389 0.67819 0.0
C440 C 0.00662 0.4611 0.73376 0.0
C441 C 0.00581 0.43802 0.75361 0.0
C442 C 0.03292 0.47128 0.72302 0.0
C443 C 0.05896 0.45858 0.73177 0.0
C444 C 0.05839 0.4358 0.7518 0.0
H445 H 0.23961 0.4758 0.70267 0.0
H446 H 0.19058 0.46391 0.71714 0.0
C447 C 0.03204 0.42551 0.76256 0.0
C448 C 0.08685 0.46959 0.7206 0.0
H449 H 0.12746 0.4763 0.65926 0.0
C450 C 0.1063 0.48213 0.74016 0.0
C451 C 0.09432 0.46776 0.69099 0.0
C452 C 0.07444 0.45384 0.66921 0.0
C453 C 0.13319 0.49268 0.73096 0.0
C454 C 0.141 0.49016 0.70151 0.0
C455 C 0.1213 0.47828 0.68179 0.0
C456 C 0.17051 0.49737 0.69147 0.0
C457 C 0.1531 0.5064 0.75286 0.0
C458 C 0.17542 0.51959 0.67138 0.0
C459 C 0.2037 0.52653 0.66285 0.0
C460 C 0.22737 0.51118 0.67423 0.0
C461 C 0.22205 0.48839 0.69369 0.0
C462 C 0.19398 0.48155 0.70212 0.0
H463 H 0.14103 0.51414 0.77213 0.0
H464 H 0.16911 0.49013 0.76023 0.0
H465 H 0.16509 0.52487 0.74329 0.0
H466 H 0.15745 0.53185 0.66273 0.0
H467 H 0.20702 0.54411 0.64775 0.0
H468 H 0.7072 0.95967 0.90147 0.0
H469 H 0.7217 0.91181 0.91911 0.0
H470 H 0.77743 0.9518 0.98219 0.0
H471 H 0.76295 -0.00065 0.96523 0.0
H472 H 0.77706 0.88776 0.92136 0.0
H473 H 0.73042 0.89609 0.03142 0.0
H474 H 0.72071 0.92055 0.00263 0.0
H475 H 0.75382 0.92569 0.02237 0.0
C476 C 0.72241 0.95827 0.9192 0.0
C477 C 0.73372 0.98343 0.93203 0.0
C478 C 0.73067 0.93092 0.92925 0.0
C479 C 0.75022 0.9283 0.95233 0.0
C480 C 0.76176 0.95332 0.96486 0.0
H481 H 0.83931 0.78664 0.0384 0.0
H482 H 0.82263 0.83419 0.02183 0.0
C483 C 0.75353 0.98055 0.95496 0.0
C484 C 0.7595 0.89949 0.96281 0.0
H485 H 0.76331 0.85726 0.02326 0.0
C486 C 0.77384 0.88097 0.94356 0.0
C487 C 0.75541 0.89078 0.99186 0.0
C488 C 0.73901 0.90919 0.01321 0.0
C489 C 0.78472 0.85418 0.95272 0.0
C490 C 0.78084 0.84562 0.9818 0.0
C491 C 0.76643 0.86405 0.00104 0.0
C492 C 0.79065 0.81706 0.99232 0.0
C493 C 0.80076 0.83544 0.93138 0.0
C494 C 0.77778 0.79186 0.9816 0.0
C495 C 0.7871 0.76481 0.99103 0.0
C496 C 0.80953 0.76233 0.01147 0.0
C497 C 0.82208 0.78772 0.02259 0.0
C498 C 0.81259 0.81489 0.01317 0.0
H499 H 0.80775 0.84786 0.91205 0.0
H500 H 0.82009 0.82552 0.94158 0.0
H501 H 0.78632 0.81774 0.92406 0.0
H502 H 0.76049 0.79313 0.96586 0.0
H503 H 0.7768 0.74581 0.98201 0.0
H504 H 0.49463 0.53881 0.23372 0.0
H505 H 0.44709 0.52447 0.21653 0.0
H506 H 0.40727 0.58717 0.27275 0.0
H507 H 0.45519 0.60181 0.29048 0.0
H508 H 0.38252 0.52971 0.27431 0.0
H509 H 0.39361 0.57087 0.16222 0.0
H510 H 0.42319 0.54872 0.1741 0.0
H511 H 0.41661 0.58286 0.1914 0.0
C512 C 0.47588 0.54973 0.24251 0.0
C513 C 0.47883 0.57158 0.26351 0.0
C514 C 0.44868 0.54157 0.23244 0.0
C515 C 0.42374 0.55507 0.243 0.0
C516 C 0.42637 0.57668 0.26417 0.0
H517 H 0.24161 0.52289 0.21275 0.0
H518 H 0.28816 0.54059 0.22961 0.0
C519 C 0.45373 0.58501 0.27425 0.0
C520 C 0.395 0.54565 0.23246 0.0
H521 H 0.35417 0.53904 0.17131 0.0
C522 C 0.37614 0.53199 0.25187 0.0
C523 C 0.38695 0.54841 0.20309 0.0
C524 C 0.40601 0.56373 0.1815 0.0
C525 C 0.34967 0.52039 0.24257 0.0
C526 C 0.34165 0.52305 0.21316 0.0
C527 C 0.36044 0.53689 0.19379 0.0
C528 C 0.31346 0.51233 0.20231 0.0
C529 C 0.33088 0.5047 0.26415 0.0
C530 C 0.31217 0.49112 0.18062 0.0
C531 C 0.28541 0.48096 0.17066 0.0
C532 C 0.25949 0.49198 0.18218 0.0
C533 C 0.26103 0.51362 0.20354 0.0
C534 C 0.28768 0.52373 0.21337 0.0
H535 H 0.34345 0.49761 0.28334 0.0
H536 H 0.31357 0.51946 0.27173 0.0
H537 H 0.3205 0.48547 0.25422 0.0
H538 H 0.33188 0.48221 0.17164 0.0
H539 H 0.28506 0.46439 0.15413 0.0
H540 H 0.45816 0.15165 0.28597 0.0
H541 H 0.47296 0.1695 0.33369 0.0
H542 H 0.52874 0.23223 0.29316 0.0
H543 H 0.51399 0.2151 0.24581 0.0
H544 H 0.52877 0.17135 0.35706 0.0
H545 H 0.4829 0.28177 0.34949 0.0
H546 H 0.47263 0.25308 0.32513 0.0
H547 H 0.50584 0.27257 0.3196 0.0
C548 C 0.47338 0.1694 0.28723 0.0
C549 C 0.48472 0.18199 0.26196 0.0
C550 C 0.48183 0.17955 0.3145 0.0
C551 C 0.50156 0.20254 0.31694 0.0
C552 C 0.51297 0.21497 0.29181 0.0
H553 H 0.59121 0.2881 0.45945 0.0
H554 H 0.5753 0.27166 0.41153 0.0
C555 C 0.50457 0.20494 0.26468 0.0
C556 C 0.51131 0.21293 0.34564 0.0
H557 H 0.51608 0.27328 0.38797 0.0
C558 C 0.52579 0.19357 0.36393 0.0
C559 C 0.50761 0.24201 0.35444 0.0
C560 C 0.49116 0.26351 0.33627 0.0
C561 C 0.53707 0.20261 0.3906 0.0
C562 C 0.53346 0.23169 0.39931 0.0
C563 C 0.51901 0.25107 0.38106 0.0
C564 C 0.54316 0.24192 0.42802 0.0
C565 C 0.55315 0.18111 0.4091 0.0
C566 C 0.53 0.231 0.45298 0.0
C567 C 0.53885 0.24036 0.48019 0.0
C568 C 0.56111 0.26097 0.48313 0.0
C569 C 0.57408 0.27219 0.458 0.0
C570 C 0.56504 0.26283 0.43064 0.0
H571 H 0.56017 0.16194 0.39646 0.0
H572 H 0.57246 0.19124 0.41915 0.0
H573 H 0.53871 0.17353 0.4267 0.0
H574 H 0.51276 0.21521 0.45139 0.0
H575 H 0.52825 0.23123 0.49896 0.0
H576 H 0.10768 0.23437 0.53047 0.0
H577 H 0.09023 0.25359 0.57666 0.0
H578 H 0.00207 0.24065 0.54879 0.0
H579 H 0.01947 0.22311 0.50215 0.0
H580 H 0.00639 0.29113 0.57116 0.0
H581 H 0.05959 0.21477 0.64627 0.0
H582 H 0.08523 0.23332 0.62392 0.0
H583 H 0.05932 0.20911 0.60776 0.0
C584 C 0.08461 0.2352 0.53451 0.0
C585 C 0.06489 0.22716 0.51289 0.0
C586 C 0.07462 0.2461 0.56093 0.0
C587 C 0.04477 0.24824 0.56649 0.0
C588 C 0.02517 0.23932 0.54509 0.0
H589 H 0.97181 0.27322 0.73633 0.0
H590 H 0.98736 0.25538 0.68918 0.0
C591 C 0.03511 0.22915 0.5185 0.0
C592 C 0.03369 0.26099 0.59388 0.0
H593 H 0.03799 0.25634 0.66733 0.0
C594 C 0.01317 0.28336 0.5922 0.0
C595 C 0.04228 0.25077 0.62139 0.0
C596 C 0.06257 0.22548 0.62499 0.0
C597 C 0.00082 0.29555 0.61712 0.0
C598 C 0.01013 0.286 0.64463 0.0
C599 C 0.03089 0.26384 0.64629 0.0
C600 C 0.99801 0.29766 0.67208 0.0
C601 C 0.97722 0.31779 0.61353 0.0
C602 C 0.99808 0.32749 0.6781 0.0
C603 C 0.98826 0.33779 0.70485 0.0
C604 C 0.97913 0.31832 0.72624 0.0
C605 C 0.97874 0.28863 0.72011 0.0
C606 C 0.98778 0.27844 0.69323 0.0
H607 H 0.9665 0.31587 0.59213 0.0
H608 H 0.96049 0.31566 0.6306 0.0
H609 H 0.98681 0.33973 0.6149 0.0
H610 H 0.0066 0.34275 0.66256 0.0
H611 H 0.98921 0.36075 0.70934 0.0
H612 H 0.98643 0.77699 0.74859 0.0
H613 H 0.96883 0.7621 0.79585 0.0
H614 H 0.01813 0.83025 0.83602 0.0
H615 H 0.03571 0.84578 0.78853 0.0
H616 H -0.00059 0.74396 0.84423 0.0
H617 H 0.93585 0.84333 0.86684 0.0
H618 H 0.94956 0.83481 0.83132 0.0
H619 H 0.97328 0.84945 0.85836 0.0
C620 C 0.99363 0.78892 0.76739 0.0
C621 C 0.01238 0.81277 0.76467 0.0
C622 C 0.98353 0.78029 0.79442 0.0
C623 C 0.99182 0.79532 0.81934 0.0
C624 C 0.01103 0.81872 0.81693 0.0
H625 H 0.95399 0.77537 0.00019 0.0
H626 H 0.97132 0.78984 0.95268 0.0
C627 C 0.0212 0.82744 0.7898 0.0
C628 C 0.98027 0.78623 0.84774 0.0
H629 H 0.93884 0.80876 0.90446 0.0
C630 C 0.98611 0.75807 0.8574 0.0
C631 C 0.96278 0.80468 0.86471 0.0
C632 C 0.95472 0.83467 0.85475 0.0
C633 C 0.97536 0.74802 0.88391 0.0
C634 C 0.958 0.76652 0.90093 0.0
C635 C 0.9521 0.79465 0.89126 0.0
C636 C 0.94679 0.75755 0.92948 0.0
C637 C 0.98319 0.71796 0.89382 0.0
C638 C 0.92689 0.73476 0.93211 0.0
C639 C 0.91684 0.72631 0.95937 0.0
C640 C 0.92654 0.74061 0.98439 0.0
C641 C 0.94614 0.76372 0.98147 0.0
C642 C 0.95607 0.77213 0.95431 0.0
H643 H 0.00152 0.70885 0.88124 0.0
H644 H 0.98906 0.71794 0.91709 0.0
H645 H 0.96425 0.70351 0.89097 0.0
H646 H 0.91913 0.72354 0.91309 0.0
H647 H 0.90168 0.70851 0.96083 0.0
H648 H 0.53967 0.65186 0.21092 0.0
H649 H 0.52667 0.66676 0.16162 0.0
H650 H 0.46828 0.73061 0.1962 0.0
H651 H 0.48107 0.71633 0.24499 0.0
H652 H 0.47074 0.66766 0.13556 0.0
H653 H 0.51845 0.77748 0.14023 0.0
H654 H 0.52767 0.74946 0.16577 0.0
H655 H 0.49474 0.76971 0.16995 0.0
C656 C 0.52415 0.66914 0.20799 0.0
C657 C 0.51162 0.683 0.23199 0.0
C658 C 0.51677 0.67761 0.17985 0.0
C659 C 0.49694 0.70017 0.17534 0.0
C660 C 0.48414 0.71365 0.1992 0.0
H661 H 0.40936 0.78451 0.03308 0.0
H662 H 0.42681 0.76822 0.0804 0.0
C663 C 0.49144 0.70528 0.22715 0.0
C664 C 0.48867 0.70934 0.14583 0.0
H665 H 0.4853 0.76841 0.10171 0.0
C666 C 0.47421 0.68956 0.12797 0.0
C667 C 0.49309 0.73801 0.13612 0.0
C668 C 0.50958 0.75983 0.1539 0.0
C669 C 0.46324 0.69797 0.10096 0.0
C670 C 0.46724 0.72678 0.09149 0.0
C671 C 0.48207 0.74642 0.10917 0.0
C672 C 0.45673 0.73677 0.06299 0.0
C673 C 0.44676 0.6762 0.08311 0.0
C674 C 0.46816 0.72483 0.03765 0.0
C675 C 0.45834 0.73406 0.0107 0.0
C676 C 0.43692 0.75559 0.00848 0.0
C677 C 0.42579 0.76787 0.03397 0.0
C678 C 0.43573 0.7586 0.06101 0.0
H679 H 0.43951 0.65747 0.09629 0.0
H680 H 0.42754 0.6863 0.07288 0.0
H681 H 0.461 0.66793 0.06567 0.0
H682 H 0.4848 0.70839 0.03871 0.0
H683 H 0.46757 0.72416 0.99161 0.0
H684 H 0.09355 0.23274 0.34018 0.0
H685 H 0.12481 0.25289 0.3031 0.0
H686 H 0.18689 0.27738 0.36825 0.0
H687 H 0.15528 0.25662 0.40585 0.0
H688 H 0.16673 0.32322 0.33663 0.0
H689 H 0.20047 0.23803 0.26116 0.0
H690 H 0.16263 0.23402 0.26868 0.0
H691 H 0.18855 0.23016 0.29751 0.0
C692 C 0.11427 0.24166 0.34655 0.0
C693 C 0.12193 0.24344 0.37582 0.0
C694 C 0.13233 0.25287 0.32527 0.0
C695 C 0.15838 0.26644 0.33276 0.0
C696 C 0.16701 0.26672 0.36195 0.0
H697 H 0.22328 0.37879 0.19166 0.0
H698 H 0.22531 0.34003 0.22796 0.0
C699 C 0.14899 0.25493 0.38339 0.0
C700 C 0.1727 0.28494 0.31079 0.0
H701 H 0.18899 0.28551 0.23873 0.0
C702 C 0.17259 0.31489 0.31551 0.0
C703 C 0.18062 0.27422 0.28324 0.0
C704 C 0.18337 0.24229 0.27749 0.0
C705 C 0.17716 0.33434 0.29273 0.0
C706 C 0.18164 0.32356 0.26449 0.0
C707 C 0.1848 0.29371 0.26028 0.0
C708 C 0.17998 0.34302 0.23912 0.0
C709 C 0.17546 0.36635 0.29874 0.0
C710 C 0.15362 0.35654 0.23255 0.0
C711 C 0.15236 0.37817 0.21157 0.0
C712 C 0.17736 0.38639 0.1965 0.0
C713 C 0.20347 0.37184 0.20201 0.0
C714 C 0.20474 0.35008 0.22306 0.0
H715 H 0.17986 0.37122 0.32183 0.0
H716 H 0.19107 0.37851 0.28513 0.0
H717 H 0.15336 0.37416 0.2936 0.0
H718 H 0.13425 0.35126 0.24464 0.0
H719 H 0.13214 0.38947 0.20808 0.0
H720 H 0.95403 0.87034 0.64306 0.0
H721 H 0.93666 0.89573 0.60011 0.0
H722 H 0.02429 0.90296 0.56882 0.0
H723 H 0.04159 0.87702 0.61183 0.0
H724 H 0.94715 0.94755 0.56985 0.0
H725 H 0.98505 0.85039 0.50947 0.0
H726 H 0.9843 0.85142 0.54839 0.0
H727 H 0.01175 0.87082 0.52893 0.0
C728 C 0.96962 0.87845 0.62756 0.0
C729 C -0.00092 0.87228 0.63079 0.0
C730 C 0.95974 0.89284 0.60299 0.0
C731 C 0.97914 0.90083 0.58105 0.0
C732 C 0.00892 0.89663 0.58531 0.0
H733 H 0.87878 0.96335 0.43071 0.0
H734 H 0.9214 0.96127 0.46229 0.0
C735 C 0.01882 0.88219 0.61 0.0
C736 C 0.96736 0.90946 0.55254 0.0
H737 H 0.9538 0.88174 0.48551 0.0
C738 C 0.94911 0.93363 0.55109 0.0
C739 C 0.96992 0.89109 0.52819 0.0
C740 C 0.98865 0.86437 0.52865 0.0
C741 C 0.93177 0.9388 0.5267 0.0
C742 C 0.93308 0.91942 0.50306 0.0
C743 C 0.95293 0.89653 0.50368 0.0
C744 C 0.91068 0.91937 0.48014 0.0
C745 C 0.91061 0.96362 0.52738 0.0
C746 C 0.89151 0.8959 0.47854 0.0
C747 C 0.86777 0.89676 0.46 0.0
C748 C 0.86287 0.92103 0.44252 0.0
C749 C 0.88278 0.94396 0.44307 0.0
C750 C 0.90671 0.94306 0.4616 0.0
H751 H 0.90965 0.97417 0.54892 0.0
H752 H 0.91721 0.98012 0.51128 0.0
H753 H 0.88857 0.95603 0.52161 0.0
H754 H 0.89413 0.87742 0.49268 0.0
H755 H 0.85259 0.87891 0.46015 0.0
H756 H 0.31989 0.63743 0.65803 0.0
H757 H 0.32308 0.68252 0.68621 0.0
H758 H 0.31338 0.63389 0.76506 0.0
H759 H 0.31061 0.58934 0.73769 0.0
H760 H 0.27928 0.6897 0.75989 0.0
H761 H 0.39782 0.6971 0.73828 0.0
H762 H 0.37277 0.69279 0.70876 0.0
H763 H 0.37878 0.66342 0.73328 0.0
C764 C 0.31839 0.63643 0.68136 0.0
C765 C 0.31565 0.60967 0.69559 0.0
C766 C 0.32002 0.66218 0.69737 0.0
C767 C 0.31841 0.66144 0.72769 0.0
C768 C 0.31452 0.63493 0.74169 0.0
H769 H 0.34951 0.71908 0.89166 0.0
H770 H 0.32368 0.70555 0.84747 0.0
C771 C 0.31327 0.6094 0.72591 0.0
C772 C 0.32361 0.68729 0.74578 0.0
H773 H 0.37976 0.7223 0.77801 0.0
C774 C 0.3011 0.69756 0.76339 0.0
C775 C 0.352 0.69765 0.75013 0.0
C776 C 0.37689 0.68729 0.73173 0.0
C777 C 0.30668 0.71638 0.78659 0.0
C778 C 0.33554 0.7244 0.79273 0.0
C779 C 0.3576 0.71606 0.77353 0.0
C780 C 0.34429 0.73795 0.82056 0.0
C781 C 0.28174 0.7268 0.80475 0.0
C782 C 0.36377 0.76122 0.82052 0.0
C783 C 0.37882 0.76851 0.84563 0.0
C784 C 0.3742 0.75311 0.87133 0.0
C785 C 0.35284 0.73167 0.8722 0.0
C786 C 0.33803 0.72403 0.84691 0.0
H787 H 0.26181 0.72893 0.79151 0.0
H788 H 0.27727 0.71078 0.82203 0.0
H789 H 0.2866 0.74797 0.81494 0.0
H790 H 0.36902 0.77226 0.80056 0.0
H791 H 0.39555 0.78489 0.84448 0.0
H792 H 0.45793 0.12024 0.10787 0.0
H793 H 0.47328 0.09449 0.06408 0.0
H794 H 0.5603 0.09025 0.09747 0.0
H795 H 0.54484 0.11572 0.14106 0.0
H796 H 0.5107 0.11931 0.02832 0.0
H797 H 0.55465 0.01293 0.05791 0.0
H798 H 0.53109 0.033 0.08175 0.0
H799 H 0.56946 0.03995 0.08136 0.0
C800 C 0.47998 0.11247 0.10633 0.0
C801 C 0.50015 0.11921 0.12795 0.0
C802 C 0.48879 0.098 0.08126 0.0
C803 C 0.51789 0.09008 0.07755 0.0
C804 C 0.53758 0.09529 0.1001 0.0
H805 H 0.64176 0.11666 0.95487 0.0
H806 H 0.59955 0.11824 0.9865 0.0
C807 C 0.5288 0.10988 0.12502 0.0
C808 C 0.52901 0.08156 0.04866 0.0
H809 H 0.57841 0.03707 0.01677 0.0
C810 C 0.52484 0.10081 0.02555 0.0
C811 C 0.54702 0.0572 0.04465 0.0
C812 C 0.55052 0.03446 0.06771 0.0
C813 C 0.5404 0.09793 -0.00031 0.0
C814 C 0.56101 0.07554 0.99705 0.0
C815 C 0.563 0.0546 0.01895 0.0
C816 C 0.58353 0.07599 0.97421 0.0
C817 C 0.53559 0.11971 0.97593 0.0
C818 C 0.58859 0.05178 0.95661 0.0
C819 C 0.61288 0.05087 0.93851 0.0
C820 C 0.63241 0.07412 0.93783 0.0
C821 C 0.62672 0.09869 0.95463 0.0
C822 C 0.60252 0.09964 0.97261 0.0
H823 H 0.51303 0.12797 0.97629 0.0
H824 H 0.55024 0.13842 0.97928 0.0
H825 H 0.54007 0.11029 0.95432 0.0
H826 H 0.57444 0.03318 0.95781 0.0
H827 H 0.61753 0.03123 0.92674 0.0
H828 H 0.65355 0.25251 0.59665 0.0
H829 H 0.68606 0.23617 0.63562 0.0
H830 H 0.6125 0.22665 0.6923 0.0
H831 H 0.58081 0.24396 0.65463 0.0
H832 H 0.65963 0.24709 0.72144 0.0
H833 H 0.68842 0.1507 0.65486 0.0
H834 H 0.6977 0.18612 0.64182 0.0
H835 H 0.66045 0.17521 0.64335 0.0
C836 C 0.6446 0.24761 0.61768 0.0
C837 C 0.61463 0.24934 0.62252 0.0
C838 C 0.66311 0.23803 0.63984 0.0
C839 C 0.65167 0.22982 0.66685 0.0
C840 C 0.62195 0.23294 0.67181 0.0
H841 H 0.64087 0.09324 0.77155 0.0
H842 H 0.64285 0.13347 0.7378 0.0
C843 C 0.60374 0.24254 0.65001 0.0
C844 C 0.66885 0.21468 0.68937 0.0
H845 H 0.69139 0.14624 0.7048 0.0
C846 C 0.66751 0.22531 0.71783 0.0
C847 C 0.67937 0.18638 0.68456 0.0
C848 C 0.68161 0.17372 0.65458 0.0
C849 C 0.67269 0.20721 0.74169 0.0
C850 C 0.68013 0.17801 0.7368 0.0
C851 C 0.68515 0.16855 0.7084 0.0
C852 C 0.6777 0.15569 0.75975 0.0
C853 C 0.66747 0.21866 0.77176 0.0
C854 C 0.69572 0.15541 0.78418 0.0
C855 C 0.69399 0.13263 0.80416 0.0
C856 C 0.67496 0.10939 0.79942 0.0
C857 C 0.65603 0.11061 0.7757 0.0
C858 C 0.6573 0.13352 0.75624 0.0
H859 H 0.65871 0.24101 0.7716 0.0
H860 H 0.65209 0.20446 0.78353 0.0
H861 H 0.68813 0.21878 0.7839 0.0
H862 H 0.71183 0.17209 0.78716 0.0
H863 H 0.70856 0.1324 0.82236 0.0
H864 H 0.15004 0.37812 0.03439 0.0
H865 H 0.10932 0.37579 0.00097 0.0
H866 H 0.07319 0.45278 0.03907 0.0
H867 H 0.11454 0.45552 0.07235 0.0
H868 H 0.04793 0.37453 0.00779 0.0
H869 H 0.08737 0.47429 0.95287 0.0
H870 H 0.10949 0.45482 0.9784 0.0
H871 H 0.07959 0.47608 0.99092 0.0
C872 C 0.1331 0.3942 0.03611 0.0
C873 C 0.13539 0.41696 0.05608 0.0
C874 C 0.10984 0.39286 0.017 0.0
C875 C 0.08847 0.41436 0.01721 0.0
C876 C 0.08966 0.43618 0.0383 0.0
H877 H 0.95993 0.37784 0.88107 0.0
H878 H 0.97706 0.4006 0.9259 0.0
C879 C 0.11301 0.43746 0.05762 0.0
C880 C 0.06668 0.41462 0.99366 0.0
H881 H 0.0524 0.44676 0.9287 0.0
C882 C 0.04827 0.39069 0.99082 0.0
C883 C 0.06739 0.43569 0.97148 0.0
C884 C 0.08706 0.46166 0.97328 0.0
C885 C 0.03194 0.38626 0.96562 0.0
C886 C 0.03384 0.40653 0.94275 0.0
C887 C 0.05088 0.43138 0.94633 0.0
C888 C 0.02222 0.39974 0.91362 0.0
C889 C 0.0145 0.35881 0.9628 0.0
C890 C 0.04169 0.39343 0.89121 0.0
C891 C 0.0319 0.38076 0.86562 0.0
C892 C 0.00245 0.37472 0.8618 0.0
C893 C 0.98266 0.38306 0.88324 0.0
C894 C 0.99248 0.39566 0.90898 0.0
H895 H 0.01842 0.34362 0.98097 0.0
H896 H 0.99113 0.36419 0.9625 0.0
H897 H 0.01977 0.34761 0.94224 0.0
H898 H 0.06474 0.39625 0.89436 0.0
H899 H 0.04758 0.3738 0.84966 0.0
H900 H 0.82441 0.86167 0.33609 0.0
H901 H 0.82396 0.81783 0.30598 0.0
H902 H 0.81902 0.8707 0.22941 0.0
H903 H 0.81847 0.91401 0.25896 0.0
H904 H 0.7805 0.8217 0.22952 0.0
H905 H 0.89467 0.79348 0.25644 0.0
H906 H 0.86924 0.79819 0.28549 0.0
H907 H 0.88007 0.82877 0.26426 0.0
C908 C 0.82287 0.86383 0.31288 0.0
C909 C 0.82144 0.89134 0.30001 0.0
C910 C 0.82278 0.83883 0.29571 0.0
C911 C 0.82146 0.84108 0.26546 0.0
C912 C 0.81986 0.86847 0.25271 0.0
H913 H 0.85242 0.78343 0.10192 0.0
H914 H 0.82706 0.80014 0.14515 0.0
C915 C 0.8199 0.89326 0.26971 0.0
C916 C 0.82351 0.81552 0.24631 0.0
H917 H 0.87385 0.77071 0.21671 0.0
C918 C 0.80066 0.80995 0.22709 0.0
C919 C 0.84968 0.80006 0.24339 0.0
C920 C 0.87496 0.80533 0.26333 0.0
C921 C 0.80406 0.7909 0.20371 0.0
C922 C 0.83115 0.77742 0.19927 0.0
C923 C 0.85308 0.78107 0.22 0.0
C924 C 0.83908 0.76332 0.17151 0.0
C925 C 0.77894 0.78641 0.18346 0.0
C926 C 0.85365 0.73668 0.17152 0.0
C927 C 0.86842 0.72737 0.14685 0.0
C928 C 0.86845 0.74435 0.12175 0.0
C929 C 0.85199 0.76971 0.12088 0.0
C930 C 0.83743 0.77917 0.14561 0.0
H931 H 0.75817 0.78669 0.19552 0.0
H932 H 0.77832 0.80442 0.16763 0.0
H933 H 0.78067 0.76572 0.17149 0.0
H934 H 0.85539 0.72415 0.19122 0.0
H935 H 0.88151 0.70799 0.14803 0.0
H936 H 0.37965 0.60918 0.56635 0.0
H937 H 0.41972 0.60984 0.53144 0.0
H938 H 0.40208 0.52099 0.50948 0.0
H939 H 0.36147 0.52077 0.54348 0.0
H940 H 0.47134 0.57267 0.51673 0.0
H941 H 0.38125 0.56984 0.43661 0.0
H942 H 0.37496 0.57731 0.47433 0.0
H943 H 0.38298 0.54117 0.46276 0.0
C944 C 0.38521 0.58952 0.55491 0.0
C945 C 0.36812 0.56469 0.55796 0.0
C946 C 0.408 0.58987 0.53499 0.0
C947 C 0.41369 0.5655 0.51778 0.0
C948 C 0.39803 0.53999 0.52254 0.0
H949 H 0.49153 0.59832 0.34731 0.0
H950 H 0.47527 0.56755 0.38769 0.0
C951 C 0.37513 0.53975 0.54221 0.0
C952 C 0.43223 0.56852 0.49186 0.0
H953 H 0.42746 0.57968 0.41914 0.0
C954 C 0.46192 0.57369 0.49529 0.0
C955 C 0.41992 0.56941 0.46387 0.0
C956 C 0.38803 0.56431 0.45896 0.0
C957 C 0.4793 0.58135 0.47158 0.0
C958 C 0.46646 0.58457 0.444 0.0
C959 C 0.43728 0.57721 0.44027 0.0
C960 C 0.48094 0.60061 0.42031 0.0
C961 C 0.51106 0.58689 0.47641 0.0
C962 C 0.48928 0.62931 0.42523 0.0
C963 C 0.49794 0.64682 0.40237 0.0
C964 C 0.49863 0.63604 0.37404 0.0
C965 C 0.49147 0.60699 0.36903 0.0
C966 C 0.48226 0.58946 0.39204 0.0
H967 H 0.51938 0.57382 0.49474 0.0
H968 H 0.52391 0.58188 0.45675 0.0
H969 H 0.51432 0.60999 0.48195 0.0
H970 H 0.48752 0.63877 0.44656 0.0
H971 H 0.50333 0.66917 0.40681 0.0
H972 H 0.23907 0.19721 0.40341 0.0
H973 H 0.26699 0.1956 0.3591 0.0
H974 H 0.19053 0.1718 0.31134 0.0
H975 H 0.1619 0.17373 0.35626 0.0
H976 H 0.2369 0.1336 0.3053 0.0
H977 H 0.27506 0.24465 0.28624 0.0
H978 H 0.28016 0.23487 0.32337 0.0
H979 H 0.2441 0.23671 0.30876 0.0
C980 C 0.22796 0.19195 0.38348 0.0
C981 C 0.19835 0.185 0.38344 0.0
C982 C 0.24394 0.19151 0.35802 0.0
C983 C 0.23082 0.18404 0.33179 0.0
C984 C 0.201 0.17797 0.33134 0.0
H985 H 0.34848 0.10719 0.20475 0.0
H986 H 0.30503 0.13407 0.21902 0.0
C987 C 0.18473 0.17891 0.35697 0.0
C988 C 0.24966 0.17825 0.3065 0.0
H989 H 0.30858 0.20598 0.27157 0.0
C990 C 0.25199 0.14957 0.29708 0.0
C991 C 0.26933 0.19914 0.29588 0.0
C992 C 0.26681 0.23062 0.3039 0.0
C993 C 0.27523 0.14057 0.27978 0.0
C994 C 0.29633 0.16106 0.27106 0.0
C995 C 0.29258 0.19025 0.27844 0.0
C996 C 0.32409 0.1517 0.25791 0.0
C997 C 0.27829 0.10874 0.27318 0.0
C998 C 0.34985 0.15459 0.2738 0.0
C999 C 0.37483 0.13976 0.26531 0.0
C1000 C 0.37432 0.12206 0.24077 0.0
C1001 C 0.34932 0.12105 0.2236 0.0
C1002 C 0.32448 0.13615 0.23187 0.0
H1003 H 0.26282 0.0953 0.28572 0.0
H1004 H 0.27406 0.10501 0.24988 0.0
H1005 H 0.30056 0.10119 0.27802 0.0
H1006 H 0.35003 0.16645 0.29397 0.0
H1007 H 0.39375 0.14033 0.2791 0.0
H1008 H 0.16806 0.08974 0.48546 0.0
H1009 H 0.14036 0.05046 0.50661 0.0
H1010 H 0.07111 0.10968 0.52664 0.0
H1011 H 0.09938 0.14957 0.50543 0.0
H1012 H 0.0884 0.08125 0.57325 0.0
H1013 H 0.07216 0.00118 0.48752 0.0
H1014 H 0.11006 0.00884 0.4892 0.0
H1015 H 0.08508 0.03712 0.47953 0.0
C1016 C 0.14656 0.09426 0.49362 0.0
C1017 C 0.13576 0.12258 0.49376 0.0
C1018 C 0.13058 0.07169 0.50547 0.0
C1019 C 0.10337 0.07688 0.51781 0.0
C1020 C 0.09191 0.10508 0.51691 0.0
H1021 H 0.03212 0.93725 0.62796 0.0
H1022 H 0.03377 0.97224 0.58802 0.0
C1023 C 0.10796 0.12782 0.50474 0.0
C1024 C 0.08984 0.05382 0.53562 0.0
H1025 H 0.07907 0.98069 0.53711 0.0
C1026 C 0.08549 0.05946 0.56512 0.0
C1027 C 0.08585 0.02529 0.52516 0.0
C1028 C 0.08828 0.01794 0.49352 0.0
C1029 C 0.07985 0.03702 0.58469 0.0
C1030 C 0.07872 0.00824 0.57457 0.0
C1031 C 0.08051 0.00278 0.54485 0.0
C1032 C 0.07857 0.9837 0.59504 0.0
C1033 C 0.07664 0.04405 0.61637 0.0
C1034 C 0.10348 0.97786 0.61132 0.0
C1035 C 0.1027 0.95752 0.63357 0.0
C1036 C 0.07708 0.94246 0.63969 0.0
C1037 C 0.05248 0.94743 0.62259 0.0
C1038 C 0.05327 0.96778 0.60019 0.0
H1039 H 0.07146 0.06723 0.61986 0.0
H1040 H 0.0594 0.03063 0.62635 0.0
H1041 H 0.09726 0.0392 0.62763 0.0
H1042 H 0.12319 0.98999 0.60761 0.0
H1043 H 0.12174 0.95445 0.64685 0.0
H1044 H 0.10858 0.86698 0.79472 0.0
H1045 H 0.15102 0.83926 0.80966 0.0
H1046 H 0.18358 0.84152 0.72228 0.0
H1047 H 0.14105 0.86978 0.70745 0.0
H1048 H 0.17911 0.7883 0.79406 0.0
H1049 H 0.24535 0.88542 0.76671 0.0
H1050 H 0.20639 0.88659 0.76661 0.0
H1051 H 0.2254 0.86837 0.73809 0.0
C1052 C 0.12431 0.8606 0.77857 0.0
C1053 C 0.12154 0.86996 0.74996 0.0
C1054 C 0.14859 0.84488 0.78707 0.0
C1055 C 0.17071 0.83871 0.76717 0.0
C1056 C 0.16702 0.84646 0.73807 0.0
H1057 H 0.33685 0.81089 0.85766 0.0
H1058 H 0.30518 0.80872 0.81489 0.0
C1059 C 0.14261 0.86221 0.72955 0.0
C1060 C 0.19862 0.8275 0.77826 0.0
H1061 H 0.26581 0.85139 0.7975 0.0
C1062 C 0.19839 0.80168 0.79414 0.0
C1063 C 0.22394 0.8448 0.77811 0.0
C1064 C 0.22547 0.87292 0.76162 0.0
C1065 C 0.22158 0.79421 0.81216 0.0
C1066 C 0.24561 0.81305 0.81428 0.0
C1067 C 0.2473 0.83707 0.79589 0.0
C1068 C 0.26543 0.81201 0.8394 0.0
C1069 C 0.21893 0.76732 0.83039 0.0
C1070 C 0.25363 0.81525 0.86707 0.0
C1071 C 0.27145 0.81659 0.89119 0.0
C1072 C 0.30171 0.81487 0.88838 0.0
C1073 C 0.31367 0.81192 0.86057 0.0
C1074 C 0.29563 0.81067 0.83618 0.0
H1075 H 0.20923 0.74947 0.81758 0.0
H1076 H 0.24005 0.76006 0.83909 0.0
H1077 H 0.20417 0.77175 0.84879 0.0
H1078 H 0.23047 0.8172 0.87003 0.0
H1079 H 0.26128 0.8188 0.91216 0.0
H1080 H 0.38426 0.03527 0.14083 0.0
H1081 H 0.38695 -0.00114 0.10253 0.0
H1082 H 0.47694 0.01937 0.089 0.0
H1083 H 0.47429 0.05571 0.12766 0.0
H1084 H 0.44449 0.00708 0.03639 0.0
H1085 H 0.43147 0.92301 0.12028 0.0
H1086 H 0.40363 0.94995 0.12223 0.0
H1087 H 0.44067 0.95999 0.12878 0.0
C1088 C 0.40435 0.03258 0.12907 0.0
C1089 C 0.42888 0.04873 0.1366 0.0
C1090 C 0.40597 0.01165 0.10741 0.0
C1091 C 0.43228 0.00613 0.09329 0.0
C1092 C 0.45645 0.02334 0.09963 0.0
H1093 H 0.4121 0.83961 0.00715 0.0
H1094 H 0.44316 0.87766 0.02777 0.0
C1095 C 0.4548 0.04439 0.12135 0.0
C1096 C 0.43457 0.98095 0.07361 0.0
H1097 H 0.41981 0.90881 0.07157 0.0
C1098 C 0.43965 0.98547 0.04406 0.0
C1099 C 0.4295 0.95257 0.08377 0.0
C1100 C 0.42634 0.94598 0.11556 0.0
C1101 C 0.43685 0.96268 0.02412 0.0
C1102 C 0.42823 0.93503 0.034 0.0
C1103 C 0.4261 0.93003 0.06383 0.0
C1104 C 0.41553 0.913 0.01438 0.0
C1105 C 0.44239 0.96845 0.99257 0.0
C1106 C 0.39035 0.92024 -0.00086 0.0
C1107 C 0.37262 0.89868 0.98786 0.0
C1108 C 0.37981 0.86945 0.99127 0.0
C1109 C 0.40633 0.86207 0.00402 0.0
C1110 C 0.424 0.88378 0.0158 0.0
H1111 H 0.45718 0.98714 0.98956 0.0
H1112 H 0.45202 0.94917 0.98208 0.0
H1113 H 0.42168 0.97357 0.98161 0.0
H1114 H 0.38285 0.94239 -0.00166 0.0
H1115 H 0.35218 0.90482 0.9782 0.0
H1116 H 0.88986 0.35993 0.71355 0.0
H1117 H 0.84659 0.33363 0.69759 0.0
H1118 H 0.80185 0.35991 0.77504 0.0
H1119 H 0.84491 0.38671 0.79062 0.0
H1120 H 0.80529 0.29138 0.71976 0.0
H1121 H 0.75947 0.40238 0.70927 0.0
H1122 H 0.79739 0.39628 0.71585 0.0
H1123 H 0.77162 0.39157 0.74451 0.0
C1124 C 0.87117 0.35901 0.72764 0.0
C1125 C 0.87059 0.37502 0.75333 0.0
C1126 C 0.84644 0.34411 0.71853 0.0
C1127 C 0.82085 0.34527 0.73491 0.0
C1128 C 0.82123 0.35906 0.76191 0.0
H1129 H 0.65682 0.32306 0.63876 0.0
H1130 H 0.68658 0.32522 0.68297 0.0
C1131 C 0.84585 0.37413 0.7709 0.0
C1132 C 0.79311 0.33625 0.7215 0.0
H1133 H 0.73344 0.36462 0.68852 0.0
C1134 C 0.78926 0.30727 0.71344 0.0
C1135 C 0.77201 0.35698 0.71348 0.0
C1136 C 0.77523 0.38858 0.721 0.0
C1137 C 0.76574 0.29881 0.69613 0.0
C1138 C 0.74598 0.31996 0.68625 0.0
C1139 C 0.74857 0.34844 0.6962 0.0
C1140 C 0.72666 0.3146 0.66123 0.0
C1141 C 0.76287 0.26752 0.68752 0.0
C1142 C 0.73931 0.30803 0.63455 0.0
C1143 C 0.72268 0.3074 0.60953 0.0
C1144 C 0.69285 0.31329 0.61044 0.0
C1145 C 0.67979 0.31871 0.63736 0.0
C1146 C 0.6967 0.31977 0.66258 0.0
H1147 H 0.77225 0.25307 0.70424 0.0
H1148 H 0.73988 0.26147 0.68399 0.0
H1149 H 0.77491 0.26384 0.6671 0.0
H1150 H 0.76243 0.30459 0.63282 0.0
H1151 H 0.73344 0.30263 0.58929 0.0
H1152 H 0.96994 0.44018 0.86792 0.0
H1153 H 0.97032 0.47311 0.90951 0.0
H1154 H 0.8783 0.48535 0.90014 0.0
H1155 H 0.87792 0.45189 0.85925 0.0
H1156 H 0.95561 0.52979 0.90411 0.0
H1157 H 0.8862 0.48004 0.98728 0.0
H1158 H 0.9021 0.45935 0.95822 0.0
H1159 H 0.86889 0.47893 0.95265 0.0
C1160 C 0.94963 0.44867 0.87587 0.0
C1161 C 0.92374 0.44278 0.86117 0.0
C1162 C 0.94991 0.46782 0.8993 0.0
C1163 C 0.92426 0.48135 0.9083 0.0
C1164 C 0.89822 0.47458 0.89418 0.0
H1165 H 0.86508 0.64172 0.94816 0.0
H1166 H 0.89362 0.60141 0.92963 0.0
C1167 C 0.89799 0.45555 0.87077 0.0
C1168 C 0.92486 0.5055 0.9294 0.0
H1169 H 0.88698 0.53279 0.98639 0.0
C1170 C 0.9412 0.5302 0.92261 0.0
C1171 C 0.9066 0.50595 0.9539 0.0
C1172 C 0.89022 0.47949 0.96362 0.0
C1173 C 0.93759 0.55612 0.93798 0.0
C1174 C 0.91683 0.55744 0.96037 0.0
C1175 C 0.90265 0.53198 0.96897 0.0
C1176 C 0.90596 0.58536 0.97184 0.0
C1177 C 0.95513 0.58218 0.92926 0.0
C1178 C 0.9038 0.59021 0.00175 0.0
C1179 C 0.88745 0.61342 0.01229 0.0
C1180 C 0.8731 0.63194 0.99311 0.0
C1181 C 0.87662 0.62808 0.96329 0.0
C1182 C 0.89301 0.60508 0.95273 0.0
H1183 H 0.97658 0.57561 0.92064 0.0
H1184 H 0.94361 0.59395 0.91183 0.0
H1185 H 0.95843 0.59715 0.94772 0.0
H1186 H 0.91318 0.57503 0.01689 0.0
H1187 H 0.88381 0.61529 0.03528 0.0
H1188 H 0.81205 0.71352 0.12544 0.0
H1189 H 0.77669 0.71396 0.16498 0.0
H1190 H 0.74737 0.62925 0.13948 0.0
H1191 H 0.78257 0.62881 0.10009 0.0
H1192 H 0.70386 0.67097 0.14096 0.0
H1193 H 0.76785 0.67219 0.2429 0.0
H1194 H 0.77647 0.69861 0.2157 0.0
H1195 H 0.78347 0.6611 0.20889 0.0
C1196 C 0.79898 0.69451 0.12918 0.0
C1197 C 0.80038 0.67091 0.11008 0.0
C1198 C 0.77855 0.69492 0.15157 0.0
C1199 C 0.75936 0.67168 0.15515 0.0
C1200 C 0.76191 0.64746 0.13705 0.0
H1201 H 0.65333 0.58631 0.26308 0.0
H1202 H 0.69154 0.61471 0.24098 0.0
C1203 C 0.78212 0.64713 0.11467 0.0
C1204 C 0.73471 0.67318 0.17564 0.0
H1205 H 0.71736 0.66821 0.24715 0.0
C1206 C 0.70669 0.67088 0.16422 0.0
C1207 C 0.73853 0.67365 0.20593 0.0
C1208 C 0.76815 0.67639 0.21927 0.0
C1209 C 0.68262 0.6664 0.18211 0.0
C1210 C 0.68662 0.66473 0.21238 0.0
C1211 C 0.71435 0.66958 0.22395 0.0
C1212 C 0.66425 0.6514 0.23115 0.0
C1213 C 0.65356 0.66098 0.16823 0.0
C1214 C 0.63626 0.66303 0.23414 0.0
C1215 C 0.61407 0.64654 0.24678 0.0
C1216 C 0.61983 0.61839 0.25656 0.0
C1217 C 0.64825 0.60785 0.25543 0.0
C1218 C 0.67021 0.62419 0.243 0.0
H1219 H 0.65493 0.66002 0.14428 0.0
H1220 H 0.64422 0.64032 0.1761 0.0
H1221 H 0.63846 0.67865 0.17411 0.0
H1222 H 0.63129 0.68421 0.22554 0.0
H1223 H 0.59232 0.65513 0.24748 0.0
H1224 H 0.59695 0.34463 0.47581 0.0
H1225 H 0.57077 0.38644 0.4558 0.0
H1226 H 0.62218 0.44375 0.50834 0.0
H1227 H 0.64849 0.40225 0.52786 0.0
H1228 H 0.5587 0.46096 0.49687 0.0
H1229 H 0.62806 0.43511 0.40168 0.0
H1230 H 0.6057 0.40663 0.41594 0.0
H1231 H 0.6352 0.42036 0.43705 0.0
C1232 C 0.60173 0.36609 0.48386 0.0
C1233 C 0.62454 0.37045 0.50334 0.0
C1234 C 0.58688 0.3899 0.47243 0.0
C1235 C 0.59469 0.41814 0.48056 0.0
C1236 C 0.6157 0.42216 0.50198 0.0
H1237 H 0.60576 0.57337 0.38057 0.0
H1238 H 0.61068 0.53811 0.41998 0.0
C1239 C 0.63073 0.39849 0.51307 0.0
C1240 C 0.58553 0.44336 0.46315 0.0
H1241 H 0.60018 0.4772 0.39928 0.0
C1242 C 0.5674 0.46443 0.47538 0.0
C1243 C 0.59751 0.44803 0.43541 0.0
C1244 C 0.61785 0.42652 0.42165 0.0
C1245 C 0.56085 0.49009 0.46034 0.0
C1246 C 0.57311 0.49474 0.43276 0.0
C1247 C 0.59104 0.47359 0.42058 0.0
C1248 C 0.56737 0.52096 0.41537 0.0
C1249 C 0.5417 0.5125 0.47416 0.0
C1250 C 0.54114 0.52353 0.40045 0.0
C1251 C 0.53848 0.54341 0.37788 0.0
C1252 C 0.56178 0.56133 0.37031 0.0
C1253 C 0.58728 0.56029 0.38661 0.0
C1254 C 0.5901 0.54013 0.409 0.0
H1255 H 0.53548 0.50658 0.49658 0.0
H1256 H 0.55303 0.53365 0.47451 0.0
H1257 H 0.52173 0.5152 0.46113 0.0
H1258 H 0.52361 0.50855 0.40459 0.0
H1259 H 0.519 0.54322 0.36487 0.0
H1260 H 0.29708 0.39308 0.12192 0.0
H1261 H 0.31506 0.34973 0.14621 0.0
H1262 H 0.22764 0.3184 0.15528 0.0
H1263 H 0.20968 0.36183 0.13055 0.0
H1264 H 0.30518 0.31782 0.19818 0.0
H1265 H 0.26628 0.26092 0.09932 0.0
H1266 H 0.26741 0.2998 0.10158 0.0
H1267 H 0.23994 0.28 0.12057 0.0
C1268 C 0.28168 0.37752 0.13028 0.0
C1269 C 0.25206 0.38086 0.12494 0.0
C1270 C 0.29192 0.35272 0.14404 0.0
C1271 C 0.27271 0.33066 0.15216 0.0
C1272 C 0.24284 0.33503 0.1489 0.0
H1273 H 0.37007 0.17604 0.20912 0.0
H1274 H 0.32832 0.20876 0.20765 0.0
C1275 C 0.23257 0.35997 0.13515 0.0
C1276 C 0.28465 0.30189 0.15966 0.0
H1277 H 0.29786 0.23582 0.1295 0.0
C1278 C 0.30305 0.29955 0.18364 0.0
C1279 C 0.28193 0.27821 0.14045 0.0
C1280 C 0.26299 0.27969 0.11392 0.0
C1281 C 0.32021 0.27486 0.18793 0.0
C1282 C 0.31868 0.2519 0.16777 0.0
C1283 C 0.29885 0.25346 0.14491 0.0
C1284 C 0.34071 0.22866 0.16715 0.0
C1285 C 0.34138 0.27442 0.21273 0.0
C1286 C 0.36063 0.22801 0.14426 0.0
C1287 C 0.38405 0.20903 0.14488 0.0
C1288 C 0.3878 0.19009 0.16824 0.0
C1289 C 0.36703 0.18965 0.19041 0.0
C1290 C 0.34355 0.20874 0.18985 0.0
H1291 H 0.3423 0.29545 0.22429 0.0
H1292 H 0.33486 0.25751 0.22843 0.0
H1293 H 0.36342 0.26906 0.20484 0.0
H1294 H 0.35886 0.24322 0.12654 0.0
H1295 H 0.39989 0.20997 0.12764 0.0
H1296 H 0.90011 0.28354 0.86204 0.0
H1297 H 0.86182 0.24715 0.86093 0.0
H1298 H 0.83157 0.28096 0.77952 0.0
H1299 H 0.87007 0.31756 0.78065 0.0
H1300 H 0.78633 0.26286 0.81778 0.0
H1301 H 0.8697 0.17864 0.80441 0.0
H1302 H 0.87744 0.20126 0.83493 0.0
H1303 H 0.87718 0.21661 0.79916 0.0
C1304 C 0.88482 0.28369 0.84431 0.0
C1305 C 0.8878 0.30352 0.82157 0.0
C1306 C 0.86316 0.26275 0.84353 0.0
C1307 C 0.84441 0.2609 0.81976 0.0
C1308 C 0.84599 0.2819 0.79794 0.0
H1309 H 0.76043 0.09296 0.8419 0.0
H1310 H 0.78019 0.13208 0.81145 0.0
C1311 C 0.86767 0.30307 0.79881 0.0
C1312 C 0.82435 0.23603 0.81759 0.0
H1313 H 0.82417 0.16279 0.82496 0.0
C1314 C 0.79447 0.2409 0.81867 0.0
C1315 C 0.83486 0.20732 0.81746 0.0
C1316 C 0.86655 0.20061 0.81357 0.0
C1317 C 0.77507 0.21792 0.823 0.0
C1318 C 0.78602 0.18954 0.82694 0.0
C1319 C 0.8156 0.18446 0.82245 0.0
C1320 C 0.76887 0.16642 0.84129 0.0
C1321 C 0.74322 0.22469 0.82462 0.0
C1322 C 0.75566 0.17264 0.86785 0.0
C1323 C 0.74455 0.15058 0.88492 0.0
C1324 C 0.74647 0.12168 0.87605 0.0
C1325 C 0.75848 0.11518 0.84898 0.0
C1326 C 0.76976 0.13749 0.8317 0.0
H1327 H 0.73722 0.2403 0.8074 0.0
H1328 H 0.72957 0.20512 0.82241 0.0
H1329 H 0.73842 0.23517 0.84566 0.0
H1330 H 0.75555 0.19442 0.8764 0.0
H1331 H 0.73553 0.15608 0.90583 0.0
H1332 H 0.09335 0.45897 0.14237 0.0
H1333 H 0.05045 0.47601 0.11659 0.0
H1334 H 0.10106 0.54447 0.0784 0.0
H1335 H 0.14418 0.52666 0.10347 0.0
H1336 H 0.03033 0.52661 0.13151 0.0
H1337 H 0.04577 0.52772 0.01355 0.0
H1338 H 0.06884 0.50702 0.03726 0.0
H1339 H 0.07586 0.5448 0.03098 0.0
C1340 C 0.09551 0.47675 0.12728 0.0
C1341 C 0.12194 0.49137 0.12448 0.0
C1342 C 0.071 0.48657 0.11269 0.0
C1343 C 0.07242 0.51152 0.09548 0.0
C1344 C 0.09945 0.52481 0.09097 0.0
H1345 H 0.98382 0.66155 0.05873 0.0
H1346 H 0.01396 0.61868 0.06177 0.0
C1347 C 0.12412 0.5147 0.10532 0.0
C1348 C 0.04535 0.52687 0.08742 0.0
H1349 H 0.01327 0.56494 0.03301 0.0
C1350 C 0.02614 0.53429 0.10977 0.0
C1351 C 0.03983 0.53695 0.05911 0.0
C1352 C 0.05857 0.52841 0.03385 0.0
C1353 C 0.00299 0.55331 0.10513 0.0
C1354 C -0.00138 0.56492 0.07722 0.0
C1355 C 0.01665 0.55603 0.05442 0.0
C1356 C 0.97885 0.58972 0.07253 0.0
C1357 C 0.98478 0.56251 0.13061 0.0
C1358 C 0.94885 0.58769 0.07726 0.0
C1359 C 0.93141 0.61249 0.07589 0.0
C1360 C 0.94376 0.63955 0.06963 0.0
C1361 C 0.97363 0.64114 0.06404 0.0
C1362 C 0.9909 0.61656 0.06542 0.0
H1363 H 0.99357 0.55449 0.15146 0.0
H1364 H 0.98332 0.58644 0.13166 0.0
H1365 H 0.96255 0.55385 0.12807 0.0
H1366 H 0.93907 0.5671 0.08256 0.0
H1367 H 0.90853 0.61063 0.08049 0.0
H1368 H 0.79278 0.85243 0.37901 0.0
H1369 H 0.77745 0.80948 0.35209 0.0
H1370 H 0.69591 0.85075 0.33343 0.0
H1371 H 0.71172 0.89387 0.35964 0.0
H1372 H 0.73355 0.78 0.37392 0.0
H1373 H 0.70698 0.80421 0.26048 0.0
H1374 H 0.73087 0.82682 0.28158 0.0
H1375 H 0.69221 0.83145 0.28373 0.0
C1376 C 0.77229 0.85283 0.36767 0.0
C1377 C 0.75365 0.87653 0.37067 0.0
C1378 C 0.76343 0.82823 0.35251 0.0
C1379 C 0.73559 0.82685 0.34048 0.0
C1380 C 0.71777 0.85147 0.34176 0.0
H1381 H 0.59246 0.73163 0.35146 0.0
H1382 H 0.63652 0.76022 0.35228 0.0
C1383 C 0.72674 0.87613 0.3568 0.0
C1384 C 0.7228 0.79847 0.33248 0.0
H1385 H 0.67637 0.7675 0.28419 0.0
C1386 C 0.72195 0.77684 0.3538 0.0
C1387 C 0.70782 0.79403 0.3062 0.0
C1388 C 0.70979 0.81528 0.2816 0.0
C1389 C 0.70416 0.75247 0.35077 0.0
C1390 C 0.68675 0.74972 0.32592 0.0
C1391 C 0.68968 0.76978 0.30335 0.0
C1392 C 0.66123 0.73046 0.32612 0.0
C1393 C 0.70217 0.73101 0.3752 0.0
C1394 C 0.66085 0.70376 0.31171 0.0
C1395 C 0.63554 0.6869 0.31156 0.0
C1396 C 0.61025 0.69698 0.32521 0.0
C1397 C 0.61135 0.7233 0.3404 0.0
C1398 C 0.63652 0.73976 0.34087 0.0
H1399 H 0.72114 0.73247 0.38986 0.0
H1400 H 0.68235 0.73543 0.388 0.0
H1401 H 0.70056 0.70863 0.36665 0.0
H1402 H 0.67989 0.69618 0.30037 0.0
H1403 H 0.63551 0.6666 0.30001 0.0
H1404 H 0.53253 0.35156 0.61447 0.0
H1405 H 0.49835 0.39169 0.61405 0.0
H1406 H 0.53333 0.42106 0.53279 0.0
H1407 H 0.56817 0.38083 0.53348 0.0
H1408 H 0.51468 0.46715 0.57454 0.0
H1409 H 0.43136 0.38421 0.55332 0.0
H1410 H 0.45377 0.37472 0.58352 0.0
H1411 H 0.46952 0.37763 0.54805 0.0
C1412 C 0.53356 0.36707 0.59695 0.0
C1413 C 0.55287 0.36306 0.57391 0.0
C1414 C 0.51392 0.38987 0.59663 0.0
C1415 C 0.51285 0.40885 0.57303 0.0
C1416 C 0.53369 0.40647 0.55108 0.0
H1417 H 0.3442 0.4918 0.59333 0.0
H1418 H 0.38487 0.47449 0.56357 0.0
C1419 C 0.55371 0.38366 0.55158 0.0
C1420 C 0.48813 0.42909 0.57077 0.0
H1421 H 0.41465 0.42823 0.57608 0.0
C1422 C 0.49275 0.45885 0.57414 0.0
C1423 C 0.4595 0.41844 0.56904 0.0
C1424 C 0.4532 0.38702 0.56294 0.0
C1425 C 0.4694 0.47771 0.57909 0.0
C1426 C 0.44106 0.46625 0.58155 0.0
C1427 C 0.43634 0.43708 0.57478 0.0
C1428 C 0.41739 0.48215 0.59636 0.0
C1429 C 0.47542 0.50951 0.5828 0.0
C1430 C 0.42211 0.49229 0.62453 0.0
C1431 C 0.39905 0.50162 0.64148 0.0
C1432 C 0.37073 0.50124 0.63065 0.0
C1433 C 0.36594 0.4926 0.602 0.0
C1434 C 0.38913 0.48273 0.58506 0.0
H1435 H 0.49355 0.51641 0.56862 0.0
H1436 H 0.45609 0.52282 0.57775 0.0
H1437 H 0.48201 0.51373 0.60546 0.0
H1438 H 0.44339 0.49117 0.63423 0.0
H1439 H 0.40327 0.50807 0.66359 0.0
H1440 H 0.26899 0.65915 0.59051 0.0
H1441 H 0.24879 0.69625 0.62168 0.0
H1442 H 0.2236 0.63104 0.68341 0.0
H1443 H 0.24423 0.59345 0.65188 0.0
H1444 H 0.17803 0.66216 0.6627 0.0
H1445 H 0.26221 0.73915 0.6968 0.0
H1446 H 0.26707 0.72963 0.65954 0.0
H1447 H 0.2702 0.70219 0.68699 0.0
C1448 C 0.25999 0.65277 0.61117 0.0
C1449 C 0.2579 0.62349 0.61872 0.0
C1450 C 0.24874 0.67408 0.62919 0.0
C1451 C 0.23489 0.66656 0.65508 0.0
C1452 C 0.23448 0.63737 0.66367 0.0
H1453 H 0.12169 0.80563 0.72206 0.0
H1454 H 0.16104 0.76995 0.72262 0.0
C1455 C 0.24623 0.61592 0.64569 0.0
C1456 C 0.21601 0.68839 0.66909 0.0
H1457 H 0.21455 0.76029 0.68605 0.0
C1458 C 0.1861 0.68334 0.66872 0.0
C1459 C 0.2264 0.716 0.67728 0.0
C1460 C 0.25828 0.72196 0.68049 0.0
C1461 C 0.16636 0.70582 0.67345 0.0
C1462 C 0.1768 0.73415 0.67825 0.0
C1463 C 0.20661 0.7387 0.68154 0.0
C1464 C 0.15696 0.75925 0.67731 0.0
C1465 C 0.13441 0.69937 0.67181 0.0
C1466 C 0.14262 0.76592 0.65141 0.0
C1467 C 0.12063 0.78658 0.65098 0.0
C1468 C 0.11293 0.80126 0.67635 0.0
C1469 C 0.12826 0.79563 0.70195 0.0
C1470 C 0.15036 0.77493 0.7024 0.0
H1471 H 0.12987 0.67617 0.67605 0.0
H1472 H 0.12209 0.71267 0.68754 0.0
H1473 H 0.12645 0.70455 0.64979 0.0
H1474 H 0.14754 0.75412 0.63179 0.0
H1475 H 0.10871 0.79014 0.63115 0.0
H1476 H 0.41606 0.88292 0.94014 0.0
H1477 H 0.4454 0.92713 0.93634 0.0
H1478 H 0.50991 0.88034 0.88817 0.0
H1479 H 0.48108 0.83654 0.89147 0.0
H1480 H 0.51466 0.92557 0.9546 0.0
H1481 H 0.48475 0.96111 0.844 0.0
H1482 H 0.46016 0.94158 0.86734 0.0
H1483 H 0.48861 0.92271 0.84888 0.0
C1484 C 0.43637 0.88214 0.92855 0.0
C1485 C 0.44632 0.85606 0.9164 0.0
C1486 C 0.45316 0.90734 0.92662 0.0
C1487 C 0.47993 0.90674 0.91236 0.0
C1488 C 0.48934 0.88111 0.89939 0.0
H1489 H 0.64529 0.96185 0.88593 0.0
H1490 H 0.60102 0.94541 0.90984 0.0
C1491 C 0.47277 0.85608 0.90134 0.0
C1492 C 0.49915 0.93221 0.91125 0.0
H1493 H 0.53099 0.976 0.86149 0.0
C1494 C 0.51781 0.93737 0.93459 0.0
C1495 C 0.50297 0.94762 0.88526 0.0
C1496 C 0.48295 0.94324 0.85993 0.0
C1497 C 0.54181 0.95582 0.93167 0.0
C1498 C 0.54731 0.96903 0.90463 0.0
C1499 C 0.52701 0.96583 0.88223 0.0
C1500 C 0.5755 0.98268 0.89739 0.0
C1501 C 0.56163 0.95986 0.9572 0.0
C1502 C 0.57625 0.00942 0.88303 0.0
C1503 C 0.6015 0.01861 0.8692 0.0
C1504 C 0.62644 0.00139 0.86982 0.0
C1505 C 0.62646 0.97577 0.88592 0.0
C1506 C 0.60115 0.96646 0.89963 0.0
H1507 H 0.54912 0.95976 0.97771 0.0
H1508 H 0.57711 0.94157 0.9581 0.0
H1509 H 0.57405 0.98033 0.95578 0.0
H1510 H 0.55676 0.02221 0.88083 0.0
H1511 H 0.60097 0.03818 0.85635 0.0
H1512 H 0.89472 0.95575 0.36359 0.0
H1513 H 0.94039 0.96862 0.38731 0.0
H1514 H 0.90421 0.05122 0.41117 0.0
H1515 H 0.85858 0.03796 0.38809 0.0
H1516 H 0.9719 0.00986 0.36657 0.0
H1517 H 0.95311 0.0365 0.48066 0.0
H1518 H 0.92715 0.01612 0.4598 0.0
H1519 H 0.92678 0.0551 0.45926 0.0
C1520 C 0.89621 0.97603 0.37521 0.0
C1521 C 0.87311 0.99566 0.37475 0.0
C1522 C 0.92232 0.98347 0.38857 0.0
C1523 C 0.92579 0.01081 0.40136 0.0
C1524 C 0.90196 0.02968 0.40233 0.0
H1525 H 0.0393 0.14239 0.37929 0.0
H1526 H 0.00933 0.09929 0.37614 0.0
C1527 C 0.87585 0.02216 0.38908 0.0
C1528 C 0.95516 0.02192 0.40843 0.0
H1529 H 0.99051 0.06596 0.45592 0.0
C1530 C 0.97625 0.02135 0.38653 0.0
C1531 C 0.96138 0.03648 0.43459 0.0
C1532 C 0.94094 0.03576 0.45998 0.0
C1533 C 0.00191 0.03733 0.38893 0.0
C1534 C 0.00641 0.05478 0.41357 0.0
C1535 C 0.98684 0.05299 0.43674 0.0
C1536 C 0.02813 0.0784 0.41352 0.0
C1537 C 0.0233 0.03656 0.36433 0.0
C1538 C 0.04909 0.08091 0.43534 0.0
C1539 C 0.06671 0.10559 0.43693 0.0
C1540 C 0.06286 0.12842 0.41728 0.0
C1541 C 0.04278 0.12515 0.39474 0.0
C1542 C 0.02567 0.10043 0.39286 0.0
H1543 H 0.02261 0.0154 0.353 0.0
H1544 H 0.01759 0.05354 0.34839 0.0
H1545 H 0.0457 0.04054 0.37201 0.0
H1546 H 0.05107 0.06429 0.45166 0.0
H1547 H 0.08193 0.10758 0.4545 0.0
loop_
_geom_bond_atom_site_label_1
_geom_bond_atom_site_label_2
_geom_bond_distance
_geom_bond_site_symmetry_2
_ccdc_geom_bond_type
O0 Mn1 2.163 . S
O0 C14 1.244 . S
Mn1 O0 2.163 . S
Mn1 O4 2.160 . S
Mn1 O5 2.221 . S
Mn1 O7 2.163 . S
Mn1 O9 2.160 . S
Mn1 O19 2.221 . S
O2 Mn3 2.087 . S
O2 C14 1.256 . S
Mn3 O2 2.087 . S
Mn3 O10 2.089 . S
Mn3 O19 2.290 . S
Mn3 O20 2.251 . S
O4 Mn1 2.160 . S
O4 C15 1.239 . S
O5 Mn1 2.221 . S
O5 Mn6 2.290 . S
O5 C16 1.278 . S
Mn6 O5 2.290 . S
Mn6 O8 2.089 . S
Mn6 O11 2.251 . S
Mn6 O12 2.087 . S
O7 Mn1 2.163 . S
O7 C17 1.244 . S
O8 Mn6 2.089 . S
O8 C15 1.256 . S
O9 Mn1 2.160 . S
O9 C18 1.239 . S
O10 Mn3 2.089 . S
O10 C18 1.256 . S
O11 Mn6 2.251 . S
O11 C16 1.241 . S
O12 Mn6 2.087 . S
O12 C17 1.256 . S
C13 O19 1.278 . S
C13 O20 1.241 . S
C14 O0 1.244 . S
C14 O2 1.256 . S
C15 O4 1.239 . S
C15 O8 1.256 . S
C16 O5 1.278 . S
C16 O11 1.241 . S
C17 O7 1.244 . S
C17 O12 1.256 . S
C18 O9 1.239 . S
C18 O10 1.256 . S
O19 Mn1 2.221 . S
O19 Mn3 2.290 . S
O19 C13 1.278 . S
O20 Mn3 2.251 . S
O20 C13 1.241 . S
O21 Mn22 2.163 . S
O21 C35 1.244 . S
Mn22 O21 2.163 . S
Mn22 O25 2.160 . S
Mn22 O26 2.221 . S
Mn22 O28 2.163 . S
Mn22 O30 2.160 . S
Mn22 O40 2.221 . S
O23 Mn24 2.087 . S
O23 C35 1.256 . S
Mn24 O23 2.087 . S
Mn24 O31 2.089 . S
Mn24 O40 2.290 . S
Mn24 O41 2.251 . S
O25 Mn22 2.160 . S
O25 C36 1.239 . S
O26 Mn22 2.221 . S
O26 Mn27 2.290 . S
O26 C37 1.278 . S
Mn27 O26 2.290 . S
Mn27 O29 2.089 . S
Mn27 O32 2.251 . S
Mn27 O33 2.087 . S
O28 Mn22 2.163 . S
O28 C38 1.244 . S
O29 Mn27 2.089 . S
O29 C36 1.256 . S
O30 Mn22 2.160 . S
O30 C39 1.239 . S
O31 Mn24 2.089 . S
O31 C39 1.256 . S
O32 Mn27 2.251 . S
O32 C37 1.241 . S
O33 Mn27 2.087 . S
O33 C38 1.256 . S
C34 O40 1.278 . S
C34 O41 1.241 . S
C35 O21 1.244 . S
C35 O23 1.256 . S
C36 O25 1.239 . S
C36 O29 1.256 . S
C37 O26 1.278 . S
C37 O32 1.241 . S
C38 O28 1.244 . S
C38 O33 1.256 . S
C39 O30 1.239 . S
C39 O31 1.256 . S
O40 Mn22 2.221 . S
O40 Mn24 2.290 . S
O40 C34 1.278 . S
O41 Mn24 2.251 . S
O41 C34 1.241 . S
O42 Mn43 2.163 . S
O42 C56 1.244 . S
Mn43 O42 2.163 . S
Mn43 O46 2.160 . S
Mn43 O47 2.221 . S
Mn43 O49 2.163 . S
Mn43 O51 2.160 . S
Mn43 O61 2.221 . S
O44 Mn45 2.087 . S
O44 C56 1.256 . S
Mn45 O44 2.087 . S
Mn45 O52 2.089 . S
Mn45 O61 2.290 . S
Mn45 O62 2.251 . S
O46 Mn43 2.160 . S
O46 C57 1.239 . S
O47 Mn43 2.221 . S
O47 Mn48 2.290 . S
O47 C58 1.278 . S
Mn48 O47 2.290 . S
Mn48 O50 2.089 . S
Mn48 O53 2.251 . S
Mn48 O54 2.087 . S
O49 Mn43 2.163 . S
O49 C59 1.244 . S
O50 Mn48 2.089 . S
O50 C57 1.256 . S
O51 Mn43 2.160 . S
O51 C60 1.239 . S
O52 Mn45 2.089 . S
O52 C60 1.256 . S
O53 Mn48 2.251 . S
O53 C58 1.241 . S
O54 Mn48 2.087 . S
O54 C59 1.256 . S
C55 O61 1.278 . S
C55 O62 1.241 . S
C56 O42 1.244 . S
C56 O44 1.256 . S
C57 O46 1.239 . S
C57 O50 1.256 . S
C58 O47 1.278 . S
C58 O53 1.241 . S
C59 O49 1.244 . S
C59 O54 1.256 . S
C60 O51 1.239 . S
C60 O52 1.256 . S
O61 Mn43 2.221 . S
O61 Mn45 2.290 . S
O61 C55 1.278 . S
O62 Mn45 2.251 . S
O62 C55 1.241 . S
O63 Mn64 2.163 . S
O63 C77 1.244 . S
Mn64 O63 2.163 . S
Mn64 O67 2.160 . S
Mn64 O68 2.221 . S
Mn64 O70 2.163 . S
Mn64 O72 2.160 . S
Mn64 O82 2.221 . S
O65 Mn66 2.087 . S
O65 C77 1.256 . S
Mn66 O65 2.087 . S
Mn66 O73 2.089 . S
Mn66 O82 2.290 . S
Mn66 O83 2.251 . S
O67 Mn64 2.160 . S
O67 C78 1.239 . S
O68 Mn64 2.221 . S
O68 Mn69 2.290 . S
O68 C79 1.278 . S
Mn69 O68 2.290 . S
Mn69 O71 2.089 . S
Mn69 O74 2.251 . S
Mn69 O75 2.087 . S
O70 Mn64 2.163 . S
O70 C80 1.244 . S
O71 Mn69 2.089 . S
O71 C78 1.256 . S
O72 Mn64 2.160 . S
O72 C81 1.239 . S
O73 Mn66 2.089 . S
O73 C81 1.256 . S
O74 Mn69 2.251 . S
O74 C79 1.241 . S
O75 Mn69 2.087 . S
O75 C80 1.256 . S
C76 O82 1.278 . S
C76 O83 1.241 . S
C77 O63 1.244 . S
C77 O65 1.256 . S
C78 O67 1.239 . S
C78 O71 1.256 . S
C79 O68 1.278 . S
C79 O74 1.241 . S
C80 O70 1.244 . S
C80 O75 1.256 . S
C81 O72 1.239 . S
C81 O73 1.256 . S
O82 Mn64 2.221 . S
O82 Mn66 2.290 . S
O82 C76 1.278 . S
O83 Mn66 2.251 . S
O83 C76 1.241 . S
O84 Mn85 2.163 . S
O84 C98 1.244 . S
Mn85 O84 2.163 . S
Mn85 O88 2.160 . S
Mn85 O89 2.221 . S
Mn85 O91 2.163 . S
Mn85 O93 2.160 . S
Mn85 O103 2.221 . S
O86 Mn87 2.087 . S
O86 C98 1.256 . S
Mn87 O86 2.087 . S
Mn87 O94 2.089 . S
Mn87 O103 2.290 . S
Mn87 O104 2.251 . S
O88 Mn85 2.160 . S
O88 C99 1.239 . S
O89 Mn85 2.221 . S
O89 Mn90 2.290 . S
O89 C100 1.278 . S
Mn90 O89 2.290 . S
Mn90 O92 2.089 . S
Mn90 O95 2.251 . S
Mn90 O96 2.087 . S
O91 Mn85 2.163 . S
O91 C101 1.244 . S
O92 Mn90 2.089 . S
O92 C99 1.256 . S
O93 Mn85 2.160 . S
O93 C102 1.239 . S
O94 Mn87 2.089 . S
O94 C102 1.256 . S
O95 Mn90 2.251 . S
O95 C100 1.241 . S
O96 Mn90 2.087 . S
O96 C101 1.256 . S
C97 O103 1.278 . S
C97 O104 1.241 . S
C98 O84 1.244 . S
C98 O86 1.256 . S
C99 O88 1.239 . S
C99 O92 1.256 . S
C100 O89 1.278 . S
C100 O95 1.241 . S
C101 O91 1.244 . S
C101 O96 1.256 . S
C102 O93 1.239 . S
C102 O94 1.256 . S
O103 Mn85 2.221 . S
O103 Mn87 2.290 . S
O103 C97 1.278 . S
O104 Mn87 2.251 . S
O104 C97 1.241 . S
O105 Mn106 2.163 . S
O105 C119 1.244 . S
Mn106 O105 2.163 . S
Mn106 O109 2.160 . S
Mn106 O110 2.221 . S
Mn106 O112 2.163 . S
Mn106 O114 2.160 . S
Mn106 O124 2.221 . S
O107 Mn108 2.087 . S
O107 C119 1.256 . S
Mn108 O107 2.087 . S
Mn108 O115 2.089 . S
Mn108 O124 2.290 . S
Mn108 O125 2.251 . S
O109 Mn106 2.160 . S
O109 C120 1.239 . S
O110 Mn106 2.221 . S
O110 Mn111 2.290 . S
O110 C121 1.278 . S
Mn111 O110 2.290 . S
Mn111 O113 2.089 . S
Mn111 O116 2.251 . S
Mn111 O117 2.087 . S
O112 Mn106 2.163 . S
O112 C122 1.244 . S
O113 Mn111 2.089 . S
O113 C120 1.256 . S
O114 Mn106 2.160 . S
O114 C123 1.239 . S
O115 Mn108 2.089 . S
O115 C123 1.256 . S
O116 Mn111 2.251 . S
O116 C121 1.241 . S
O117 Mn111 2.087 . S
O117 C122 1.256 . S
C118 O124 1.278 . S
C118 O125 1.241 . S
C119 O105 1.244 . S
C119 O107 1.256 . S
C120 O109 1.239 . S
C120 O113 1.256 . S
C121 O110 1.278 . S
C121 O116 1.241 . S
C122 O112 1.244 . S
C122 O117 1.256 . S
C123 O114 1.239 . S
C123 O115 1.256 . S
O124 Mn106 2.221 . S
O124 Mn108 2.290 . S
O124 C118 1.278 . S
O125 Mn108 2.251 . S
O125 C118 1.241 . S
O126 Mn127 2.163 . S
O126 C140 1.244 . S
Mn127 O126 2.163 . S
Mn127 O130 2.160 . S
Mn127 O131 2.221 . S
Mn127 O133 2.163 . S
Mn127 O135 2.160 . S
Mn127 O145 2.221 . S
O128 Mn129 2.087 . S
O128 C140 1.256 . S
Mn129 O128 2.087 . S
Mn129 O136 2.089 . S
Mn129 O145 2.290 . S
Mn129 O146 2.251 . S
O130 Mn127 2.160 . S
O130 C141 1.239 . S
O131 Mn127 2.221 . S
O131 Mn132 2.290 . S
O131 C142 1.278 . S
Mn132 O131 2.290 . S
Mn132 O134 2.089 . S
Mn132 O137 2.251 . S
Mn132 O138 2.087 . S
O133 Mn127 2.163 . S
O133 C143 1.244 . S
O134 Mn132 2.089 . S
O134 C141 1.256 . S
O135 Mn127 2.160 . S
O135 C144 1.239 . S
O136 Mn129 2.089 . S
O136 C144 1.256 . S
O137 Mn132 2.251 . S
O137 C142 1.241 . S
O138 Mn132 2.087 . S
O138 C143 1.256 . S
C139 O145 1.278 . S
C139 O146 1.241 . S
C140 O126 1.244 . S
C140 O128 1.256 . S
C141 O130 1.239 . S
C141 O134 1.256 . S
C142 O131 1.278 . S
C142 O137 1.241 . S
C143 O133 1.244 . S
C143 O138 1.256 . S
C144 O135 1.239 . S
C144 O136 1.256 . S
O145 Mn127 2.221 . S
O145 Mn129 2.290 . S
O145 C139 1.278 . S
O146 Mn129 2.251 . S
O146 C139 1.241 . S
O147 Mn148 2.163 . S
O147 C161 1.244 . S
Mn148 O147 2.163 . S
Mn148 O151 2.160 . S
Mn148 O152 2.221 . S
Mn148 O154 2.163 . S
Mn148 O156 2.160 . S
Mn148 O166 2.221 . S
O149 Mn150 2.087 . S
O149 C161 1.256 . S
Mn150 O149 2.087 . S
Mn150 O157 2.089 . S
Mn150 O166 2.290 . S
Mn150 O167 2.251 . S
O151 Mn148 2.160 . S
O151 C162 1.239 . S
O152 Mn148 2.221 . S
O152 Mn153 2.290 . S
O152 C163 1.278 . S
Mn153 O152 2.290 . S
Mn153 O155 2.089 . S
Mn153 O158 2.251 . S
Mn153 O159 2.087 . S
O154 Mn148 2.163 . S
O154 C164 1.244 . S
O155 Mn153 2.089 . S
O155 C162 1.256 . S
O156 Mn148 2.160 . S
O156 C165 1.239 . S
O157 Mn150 2.089 . S
O157 C165 1.256 . S
O158 Mn153 2.251 . S
O158 C163 1.241 . S
O159 Mn153 2.087 . S
O159 C164 1.256 . S
C160 O166 1.278 . S
C160 O167 1.241 . S
C161 O147 1.244 . S
C161 O149 1.256 . S
C162 O151 1.239 . S
C162 O155 1.256 . S
C163 O152 1.278 . S
C163 O158 1.241 . S
C164 O154 1.244 . S
C164 O159 1.256 . S
C165 O156 1.239 . S
C165 O157 1.256 . S
O166 Mn148 2.221 . S
O166 Mn150 2.290 . S
O166 C160 1.278 . S
O167 Mn150 2.251 . S
O167 C160 1.241 . S
O168 Mn169 2.163 . S
O168 C182 1.244 . S
Mn169 O168 2.163 . S
Mn169 O172 2.160 . S
Mn169 O173 2.221 . S
Mn169 O175 2.163 . S
Mn169 O177 2.160 . S
Mn169 O187 2.221 . S
O170 Mn171 2.087 . S
O170 C182 1.256 . S
Mn171 O170 2.087 . S
Mn171 O178 2.089 . S
Mn171 O187 2.290 . S
Mn171 O188 2.251 . S
O172 Mn169 2.160 . S
O172 C183 1.239 . S
O173 Mn169 2.221 . S
O173 Mn174 2.290 . S
O173 C184 1.278 . S
Mn174 O173 2.290 . S
Mn174 O176 2.089 . S
Mn174 O179 2.251 . S
Mn174 O180 2.087 . S
O175 Mn169 2.163 . S
O175 C185 1.244 . S
O176 Mn174 2.089 . S
O176 C183 1.256 . S
O177 Mn169 2.160 . S
O177 C186 1.239 . S
O178 Mn171 2.089 . S
O178 C186 1.256 . S
O179 Mn174 2.251 . S
O179 C184 1.241 . S
O180 Mn174 2.087 . S
O180 C185 1.256 . S
C181 O187 1.278 . S
C181 O188 1.241 . S
C182 O168 1.244 . S
C182 O170 1.256 . S
C183 O172 1.239 . S
C183 O176 1.256 . S
C184 O173 1.278 . S
C184 O179 1.241 . S
C185 O175 1.244 . S
C185 O180 1.256 . S
C186 O177 1.239 . S
C186 O178 1.256 . S
O187 Mn169 2.221 . S
O187 Mn171 2.290 . S
O187 C181 1.278 . S
O188 Mn171 2.251 . S
O188 C181 1.241 . S
O189 Mn190 2.163 . S
O189 C203 1.244 . S
Mn190 O189 2.163 . S
Mn190 O193 2.160 . S
Mn190 O194 2.221 . S
Mn190 O196 2.163 . S
Mn190 O198 2.160 . S
Mn190 O208 2.221 . S
O191 Mn192 2.087 . S
O191 C203 1.256 . S
Mn192 O191 2.087 . S
Mn192 O199 2.089 . S
Mn192 O208 2.290 . S
Mn192 O209 2.251 . S
O193 Mn190 2.160 . S
O193 C204 1.239 . S
O194 Mn190 2.221 . S
O194 Mn195 2.290 . S
O194 C205 1.278 . S
Mn195 O194 2.290 . S
Mn195 O197 2.089 . S
Mn195 O200 2.251 . S
Mn195 O201 2.087 . S
O196 Mn190 2.163 . S
O196 C206 1.244 . S
O197 Mn195 2.089 . S
O197 C204 1.256 . S
O198 Mn190 2.160 . S
O198 C207 1.239 . S
O199 Mn192 2.089 . S
O199 C207 1.256 . S
O200 Mn195 2.251 . S
O200 C205 1.241 . S
O201 Mn195 2.087 . S
O201 C206 1.256 . S
C202 O208 1.278 . S
C202 O209 1.241 . S
C203 O189 1.244 . S
C203 O191 1.256 . S
C204 O193 1.239 . S
C204 O197 1.256 . S
C205 O194 1.278 . S
C205 O200 1.241 . S
C206 O196 1.244 . S
C206 O201 1.256 . S
C207 O198 1.239 . S
C207 O199 1.256 . S
O208 Mn190 2.221 . S
O208 Mn192 2.290 . S
O208 C202 1.278 . S
O209 Mn192 2.251 . S
O209 C202 1.241 . S
O210 Mn211 2.163 . S
O210 C224 1.244 . S
Mn211 O210 2.163 . S
Mn211 O214 2.160 . S
Mn211 O215 2.221 . S
Mn211 O217 2.163 . S
Mn211 O219 2.160 . S
Mn211 O229 2.221 . S
O212 Mn213 2.087 . S
O212 C224 1.256 . S
Mn213 O212 2.087 . S
Mn213 O220 2.089 . S
Mn213 O229 2.290 . S
Mn213 O230 2.251 . S
O214 Mn211 2.160 . S
O214 C225 1.239 . S
O215 Mn211 2.221 . S
O215 Mn216 2.290 . S
O215 C226 1.278 . S
Mn216 O215 2.290 . S
Mn216 O218 2.089 . S
Mn216 O221 2.251 . S
Mn216 O222 2.087 . S
O217 Mn211 2.163 . S
O217 C227 1.244 . S
O218 Mn216 2.089 . S
O218 C225 1.256 . S
O219 Mn211 2.160 . S
O219 C228 1.239 . S
O220 Mn213 2.089 . S
O220 C228 1.256 . S
O221 Mn216 2.251 . S
O221 C226 1.241 . S
O222 Mn216 2.087 . S
O222 C227 1.256 . S
C223 O229 1.278 . S
C223 O230 1.241 . S
C224 O210 1.244 . S
C224 O212 1.256 . S
C225 O214 1.239 . S
C225 O218 1.256 . S
C226 O215 1.278 . S
C226 O221 1.241 . S
C227 O217 1.244 . S
C227 O222 1.256 . S
C228 O219 1.239 . S
C228 O220 1.256 . S
O229 Mn211 2.221 . S
O229 Mn213 2.290 . S
O229 C223 1.278 . S
O230 Mn213 2.251 . S
O230 C223 1.241 . S
O231 Mn232 2.163 . S
O231 C245 1.244 . S
Mn232 O231 2.163 . S
Mn232 O235 2.160 . S
Mn232 O236 2.221 . S
Mn232 O238 2.163 . S
Mn232 O240 2.160 . S
Mn232 O250 2.221 . S
O233 Mn234 2.087 . S
O233 C245 1.256 . S
Mn234 O233 2.087 . S
Mn234 O241 2.089 . S
Mn234 O250 2.290 . S
Mn234 O251 2.251 . S
O235 Mn232 2.160 . S
O235 C246 1.239 . S
O236 Mn232 2.221 . S
O236 Mn237 2.290 . S
O236 C247 1.278 . S
Mn237 O236 2.290 . S
Mn237 O239 2.089 . S
Mn237 O242 2.251 . S
Mn237 O243 2.087 . S
O238 Mn232 2.163 . S
O238 C248 1.244 . S
O239 Mn237 2.089 . S
O239 C246 1.256 . S
O240 Mn232 2.160 . S
O240 C249 1.239 . S
O241 Mn234 2.089 . S
O241 C249 1.256 . S
O242 Mn237 2.251 . S
O242 C247 1.241 . S
O243 Mn237 2.087 . S
O243 C248 1.256 . S
C244 O250 1.278 . S
C244 O251 1.241 . S
C245 O231 1.244 . S
C245 O233 1.256 . S
C246 O235 1.239 . S
C246 O239 1.256 . S
C247 O236 1.278 . S
C247 O242 1.241 . S
C248 O238 1.244 . S
C248 O243 1.256 . S
C249 O240 1.239 . S
C249 O241 1.256 . S
O250 Mn232 2.221 . S
O250 Mn234 2.290 . S
O250 C244 1.278 . S
O251 Mn234 2.251 . S
O251 C244 1.241 . S
H252 C260 0.929 . S
H253 C262 0.930 . S
H254 C264 0.930 . S
H255 C267 0.929 . S
H256 C270 0.930 . S
H257 C272 0.960 . S
H258 C272 0.960 . S
H259 C272 0.960 . S
C260 H252 0.929 . S
C260 C261 1.377 . S
C260 C262 1.384 . S
C261 C260 1.377 . S
C261 C267 1.390 . S
C262 H253 0.930 . S
C262 C260 1.384 . S
C262 C263 1.372 . S
C263 C262 1.372 . S
C263 C264 1.400 . S
C263 C268 1.490 . S
C264 H254 0.930 . S
C264 C263 1.400 . S
C264 C267 1.386 . S
H265 C281 0.930 . S
H266 C282 0.931 . S
C267 H255 0.929 . S
C267 C261 1.390 . S
C267 C264 1.386 . S
C268 C263 1.490 . S
C268 C270 1.395 . S
C268 C271 1.403 . S
H269 C275 0.930 . S
C270 H256 0.930 . S
C270 C268 1.395 . S
C270 C273 1.403 . S
C271 C268 1.403 . S
C271 C272 1.524 . S
C271 C275 1.400 . S
C272 H257 0.960 . S
C272 H258 0.960 . S
C272 H259 0.960 . S
C272 C271 1.524 . S
C273 C270 1.403 . S
C273 C274 1.392 . S
C273 C277 1.495 . S
C274 C273 1.392 . S
C274 C275 1.385 . S
C274 C276 1.478 . S
C275 H269 0.930 . S
C275 C271 1.400 . S
C275 C274 1.385 . S
C276 C274 1.478 . S
C276 C278 1.381 . S
C276 C282 1.383 . S
C277 C273 1.495 . S
C277 H283 0.959 . S
C277 H284 0.961 . S
C277 H285 0.960 . S
C278 C276 1.381 . S
C278 C279 1.394 . S
C278 H286 0.930 . S
C279 C278 1.394 . S
C279 C280 1.383 . S
C279 H287 0.929 . S
C280 C279 1.383 . S
C280 C281 1.377 . S
C281 H265 0.930 . S
C281 C280 1.377 . S
C281 C282 1.379 . S
C282 H266 0.931 . S
C282 C276 1.383 . S
C282 C281 1.379 . S
H283 C277 0.959 . S
H284 C277 0.961 . S
H285 C277 0.960 . S
H286 C278 0.930 . S
H287 C279 0.929 . S
H288 C296 0.929 . S
H289 C298 0.930 . S
H290 C300 0.930 . S
H291 C303 0.929 . S
H292 C306 0.930 1_545 S
H293 C308 0.960 . S
H294 C308 0.960 . S
H295 C308 0.960 . S
C296 H288 0.929 . S
C296 C297 1.377 . S
C296 C298 1.384 . S
C297 C296 1.377 . S
C297 C303 1.390 1_545 S
C298 H289 0.930 . S
C298 C296 1.384 . S
C298 C299 1.372 1_545 S
C299 C298 1.372 1_565 S
C299 C300 1.400 . S
C299 C304 1.490 . S
C300 H290 0.930 . S
C300 C299 1.400 . S
C300 C303 1.386 . S
H301 C317 0.930 . S
H302 C318 0.931 . S
C303 H291 0.929 . S
C303 C297 1.390 1_565 S
C303 C300 1.386 . S
C304 C299 1.490 . S
C304 C306 1.395 . S
C304 C307 1.403 . S
H305 C311 0.930 . S
C306 H292 0.930 1_565 S
C306 C304 1.395 . S
C306 C309 1.403 . S
C307 C304 1.403 . S
C307 C308 1.524 . S
C307 C311 1.400 . S
C308 H293 0.960 . S
C308 H294 0.960 . S
C308 H295 0.960 . S
C308 C307 1.524 . S
C309 C306 1.403 . S
C309 C310 1.392 . S
C309 C313 1.495 . S
C310 C309 1.392 . S
C310 C311 1.385 . S
C310 C312 1.478 . S
C311 H305 0.930 . S
C311 C307 1.400 . S
C311 C310 1.385 . S
C312 C310 1.478 . S
C312 C314 1.381 . S
C312 C318 1.383 . S
C313 C309 1.495 . S
C313 H319 0.959 . S
C313 H320 0.961 . S
C313 H321 0.940 1_565 S
C314 C312 1.381 . S
C314 C315 1.394 . S
C314 H322 0.909 1_565 S
C315 C314 1.394 . S
C315 C316 1.383 . S
C315 H323 0.929 . S
C316 C315 1.383 . S
C316 C317 1.377 . S
C317 H301 0.930 . S
C317 C316 1.377 . S
C317 C318 1.379 . S
C318 H302 0.931 . S
C318 C312 1.383 . S
C318 C317 1.379 . S
H319 C313 0.959 . S
H320 C313 0.961 . S
H321 C313 0.940 1_545 S
H322 C314 0.909 1_545 S
H323 C315 0.929 . S
H324 C332 0.929 . S
H325 C334 0.930 . S
H326 C336 0.930 . S
H327 C339 0.929 . S
H328 C342 0.930 . S
H329 C344 0.960 . S
H330 C344 0.960 . S
H331 C344 0.960 1_554 S
C332 H324 0.929 . S
C332 C333 1.377 . S
C332 C334 1.384 . S
C333 C332 1.377 . S
C333 C339 1.390 1_556 S
C334 H325 0.930 . S
C334 C332 1.384 . S
C334 C335 1.372 1_556 S
C335 C334 1.372 1_554 S
C335 C336 1.400 . S
C335 C340 1.490 . S
C336 H326 0.930 . S
C336 C335 1.400 . S
C336 C339 1.386 . S
H337 C353 0.930 . S
H338 C354 0.931 . S
C339 H327 0.929 . S
C339 C333 1.390 1_554 S
C339 C336 1.386 . S
C340 C335 1.490 . S
C340 C342 1.395 . S
C340 C343 1.403 . S
H341 C347 0.930 . S
C342 H328 0.930 . S
C342 C340 1.395 . S
C342 C345 1.403 . S
C343 C340 1.403 . S
C343 C344 1.524 1_554 S
C343 C347 1.400 . S
C344 H329 0.960 . S
C344 H330 0.960 . S
C344 H331 0.960 1_556 S
C344 C343 1.524 1_556 S
C345 C342 1.403 . S
C345 C346 1.392 . S
C345 C349 1.495 . S
C346 C345 1.392 . S
C346 C347 1.385 . S
C346 C348 1.478 . S
C347 H341 0.930 . S
C347 C343 1.400 . S
C347 C346 1.385 . S
C348 C346 1.478 . S
C348 C350 1.381 . S
C348 C354 1.383 . S
C349 C345 1.495 . S
C349 H355 0.959 . S
C349 H356 0.961 . S
C349 H357 0.960 . S
C350 C348 1.381 . S
C350 C351 1.394 . S
C350 H358 0.930 . S
C351 C350 1.394 . S
C351 C352 1.383 . S
C351 H359 0.929 . S
C352 C351 1.383 . S
C352 C353 1.377 . S
C353 H337 0.930 . S
C353 C352 1.377 . S
C353 C354 1.379 . S
C354 H338 0.931 . S
C354 C348 1.383 . S
C354 C353 1.379 . S
H355 C349 0.959 . S
H356 C349 0.961 . S
H357 C349 0.960 . S
H358 C350 0.930 . S
H359 C351 0.929 . S
H360 C368 0.929 . S
H361 C370 0.930 . S
H362 C372 0.930 . S
H363 C375 0.929 . S
H364 C378 0.930 . S
H365 C380 0.960 . S
H366 C380 0.960 . S
H367 C380 0.960 . S
C368 H360 0.929 . S
C368 C369 1.377 . S
C368 C370 1.384 . S
C369 C368 1.377 . S
C369 C375 1.390 . S
C370 H361 0.930 . S
C370 C368 1.384 . S
C370 C371 1.372 . S
C371 C370 1.372 . S
C371 C372 1.400 . S
C371 C376 1.490 . S
C372 H362 0.930 . S
C372 C371 1.400 . S
C372 C375 1.386 . S
H373 C389 0.930 . S
H374 C390 0.931 . S
C375 H363 0.929 . S
C375 C369 1.390 . S
C375 C372 1.386 . S
C376 C371 1.490 . S
C376 C378 1.395 . S
C376 C379 1.403 . S
H377 C383 0.930 . S
C378 H364 0.930 . S
C378 C376 1.395 . S
C378 C381 1.403 . S
C379 C376 1.403 . S
C379 C380 1.524 . S
C379 C383 1.400 . S
C380 H365 0.960 . S
C380 H366 0.960 . S
C380 H367 0.960 . S
C380 C379 1.524 . S
C381 C378 1.403 . S
C381 C382 1.392 . S
C381 C385 1.495 1_545 S
C382 C381 1.392 . S
C382 C383 1.385 . S
C382 C384 1.478 . S
C383 H377 0.930 . S
C383 C379 1.400 . S
C383 C382 1.385 . S
C384 C382 1.478 . S
C384 C386 1.381 1_545 S
C384 C390 1.383 . S
C385 C381 1.495 1_565 S
C385 H391 0.958 1_565 S
C385 H392 0.961 1_565 S
C385 H393 0.960 . S
C386 C384 1.381 1_565 S
C386 C387 1.394 . S
C386 H394 0.930 . S
C387 C386 1.394 . S
C387 C388 1.383 . S
C387 H395 0.929 . S
C388 C387 1.383 . S
C388 C389 1.377 1_565 S
C389 H373 0.930 . S
C389 C388 1.377 1_545 S
C389 C390 1.379 . S
C390 H374 0.931 . S
C390 C384 1.383 . S
C390 C389 1.379 . S
H391 C385 0.958 1_545 S
H392 C385 0.961 1_545 S
H393 C385 0.960 . S
H394 C386 0.930 . S
H395 C387 0.929 . S
H396 C404 0.929 . S
H397 C406 0.930 . S
H398 C408 0.930 . S
H399 C411 0.929 . S
H400 C414 0.930 . S
H401 C416 0.960 . S
H402 C416 0.960 . S
H403 C416 0.960 . S
C404 H396 0.929 . S
C404 C405 1.377 . S
C404 C406 1.384 . S
C405 C404 1.377 . S
C405 C411 1.390 . S
C406 H397 0.930 . S
C406 C404 1.384 . S
C406 C407 1.372 . S
C407 C406 1.372 . S
C407 C408 1.400 . S
C407 C412 1.490 . S
C408 H398 0.930 . S
C408 C407 1.400 . S
C408 C411 1.386 . S
H409 C425 0.930 . S
H410 C426 0.931 . S
C411 H399 0.929 . S
C411 C405 1.390 . S
C411 C408 1.386 . S
C412 C407 1.490 . S
C412 C414 1.395 . S
C412 C415 1.403 . S
H413 C419 0.930 . S
C414 H400 0.930 . S
C414 C412 1.395 . S
C414 C417 1.403 . S
C415 C412 1.403 . S
C415 C416 1.524 . S
C415 C419 1.400 . S
C416 H401 0.960 . S
C416 H402 0.960 . S
C416 H403 0.960 . S
C416 C415 1.524 . S
C417 C414 1.403 . S
C417 C418 1.392 . S
C417 C421 1.495 . S
C418 C417 1.392 . S
C418 C419 1.385 . S
C418 C420 1.478 . S
C419 H413 0.930 . S
C419 C415 1.400 . S
C419 C418 1.385 . S
C420 C418 1.478 . S
C420 C422 1.381 . S
C420 C426 1.383 . S
C421 C417 1.495 . S
C421 H427 0.959 . S
C421 H428 0.961 . S
C421 H429 0.960 . S
C422 C420 1.381 . S
C422 C423 1.394 . S
C422 H430 0.930 . S
C423 C422 1.394 . S
C423 C424 1.383 . S
C423 H431 0.929 . S
C424 C423 1.383 . S
C424 C425 1.377 . S
C425 H409 0.930 . S
C425 C424 1.377 . S
C425 C426 1.379 . S
C426 H410 0.931 . S
C426 C420 1.383 . S
C426 C425 1.379 . S
H427 C421 0.959 . S
H428 C421 0.961 . S
H429 C421 0.960 . S
H430 C422 0.930 . S
H431 C423 0.929 . S
H432 C440 0.929 . S
H433 C442 0.930 . S
H434 C444 0.930 . S
H435 C447 0.929 . S
H436 C450 0.930 . S
H437 C452 0.960 . S
H438 C452 0.960 . S
H439 C452 0.960 . S
C440 H432 0.929 . S
C440 C441 1.377 . S
C440 C442 1.384 . S
C441 C440 1.377 . S
C441 C447 1.390 . S
C442 H433 0.930 . S
C442 C440 1.384 . S
C442 C443 1.372 . S
C443 C442 1.372 . S
C443 C444 1.400 . S
C443 C448 1.490 . S
C444 H434 0.930 . S
C444 C443 1.400 . S
C444 C447 1.386 . S
H445 C461 0.930 . S
H446 C462 0.931 . S
C447 H435 0.929 . S
C447 C441 1.390 . S
C447 C444 1.386 . S
C448 C443 1.490 . S
C448 C450 1.395 . S
C448 C451 1.403 . S
H449 C455 0.930 . S
C450 H436 0.930 . S
C450 C448 1.395 . S
C450 C453 1.403 . S
C451 C448 1.403 . S
C451 C452 1.524 . S
C451 C455 1.400 . S
C452 H437 0.960 . S
C452 H438 0.960 . S
C452 H439 0.960 . S
C452 C451 1.524 . S
C453 C450 1.403 . S
C453 C454 1.392 . S
C453 C457 1.495 . S
C454 C453 1.392 . S
C454 C455 1.385 . S
C454 C456 1.478 . S
C455 H449 0.930 . S
C455 C451 1.400 . S
C455 C454 1.385 . S
C456 C454 1.478 . S
C456 C458 1.381 . S
C456 C462 1.383 . S
C457 C453 1.495 . S
C457 H463 0.959 . S
C457 H464 0.961 . S
C457 H465 0.960 . S
C458 C456 1.381 . S
C458 C459 1.394 . S
C458 H466 0.930 . S
C459 C458 1.394 . S
C459 C460 1.383 . S
C459 H467 0.929 . S
C460 C459 1.383 . S
C460 C461 1.377 . S
C461 H445 0.930 . S
C461 C460 1.377 . S
C461 C462 1.379 . S
C462 H446 0.931 . S
C462 C456 1.383 . S
C462 C461 1.379 . S
H463 C457 0.959 . S
H464 C457 0.961 . S
H465 C457 0.960 . S
H466 C458 0.930 . S
H467 C459 0.929 . S
H468 C476 0.929 . S
H469 C478 0.930 . S
H470 C480 0.930 . S
H471 C483 0.929 . S
H472 C486 0.930 . S
H473 C488 0.960 . S
H474 C488 0.960 . S
H475 C488 0.960 1_556 S
C476 H468 0.929 . S
C476 C477 1.377 . S
C476 C478 1.384 . S
C477 C476 1.377 . S
C477 C483 1.390 . S
C478 H469 0.930 . S
C478 C476 1.384 . S
C478 C479 1.372 . S
C479 C478 1.372 . S
C479 C480 1.400 . S
C479 C484 1.490 . S
C480 H470 0.930 . S
C480 C479 1.400 . S
C480 C483 1.386 . S
H481 C497 0.930 . S
H482 C498 0.931 . S
C483 H471 0.929 . S
C483 C477 1.390 . S
C483 C480 1.386 . S
C484 C479 1.490 . S
C484 C486 1.395 . S
C484 C487 1.403 . S
H485 C491 0.930 1_554 S
C486 H472 0.930 . S
C486 C484 1.395 . S
C486 C489 1.403 . S
C487 C484 1.403 . S
C487 C488 1.524 1_556 S
C487 C491 1.400 . S
C488 H473 0.960 . S
C488 H474 0.960 . S
C488 H475 0.960 1_554 S
C488 C487 1.524 1_554 S
C489 C486 1.403 . S
C489 C490 1.392 . S
C489 C493 1.495 . S
C490 C489 1.392 . S
C490 C491 1.385 . S
C490 C492 1.478 . S
C491 H485 0.930 1_556 S
C491 C487 1.400 . S
C491 C490 1.385 . S
C492 C490 1.478 . S
C492 C494 1.381 1_556 S
C492 C498 1.383 . S
C493 C489 1.495 . S
C493 H499 0.959 . S
C493 H500 0.961 . S
C493 H501 0.960 . S
C494 C492 1.381 1_554 S
C494 C495 1.394 . S
C494 H502 0.930 . S
C495 C494 1.394 . S
C495 C496 1.383 . S
C495 H503 0.929 . S
C496 C495 1.383 . S
C496 C497 1.377 1_554 S
C497 H481 0.930 . S
C497 C496 1.377 1_556 S
C497 C498 1.379 . S
C498 H482 0.931 . S
C498 C492 1.383 . S
C498 C497 1.379 . S
H499 C493 0.959 . S
H500 C493 0.961 . S
H501 C493 0.960 . S
H502 C494 0.930 . S
H503 C495 0.929 . S
H504 C512 0.929 . S
H505 C514 0.930 . S
H506 C516 0.930 . S
H507 C519 0.929 . S
H508 C522 0.930 . S
H509 C524 0.960 . S
H510 C524 0.960 . S
H511 C524 0.960 . S
C512 H504 0.929 . S
C512 C513 1.377 . S
C512 C514 1.384 . S
C513 C512 1.377 . S
C513 C519 1.390 . S
C514 H505 0.930 . S
C514 C512 1.384 . S
C514 C515 1.372 . S
C515 C514 1.372 . S
C515 C516 1.400 . S
C515 C520 1.490 . S
C516 H506 0.930 . S
C516 C515 1.400 . S
C516 C519 1.386 . S
H517 C533 0.930 . S
H518 C534 0.931 . S
C519 H507 0.929 . S
C519 C513 1.390 . S
C519 C516 1.386 . S
C520 C515 1.490 . S
C520 C522 1.395 . S
C520 C523 1.403 . S
H521 C527 0.930 . S
C522 H508 0.930 . S
C522 C520 1.395 . S
C522 C525 1.403 . S
C523 C520 1.403 . S
C523 C524 1.524 . S
C523 C527 1.400 . S
C524 H509 0.960 . S
C524 H510 0.960 . S
C524 H511 0.960 . S
C524 C523 1.524 . S
C525 C522 1.403 . S
C525 C526 1.392 . S
C525 C529 1.495 . S
C526 C525 1.392 . S
C526 C527 1.385 . S
C526 C528 1.478 . S
C527 H521 0.930 . S
C527 C523 1.400 . S
C527 C526 1.385 . S
C528 C526 1.478 . S
C528 C530 1.381 . S
C528 C534 1.383 . S
C529 C525 1.495 . S
C529 H535 0.959 . S
C529 H536 0.961 . S
C529 H537 0.960 . S
C530 C528 1.381 . S
C530 C531 1.394 . S
C530 H538 0.930 . S
C531 C530 1.394 . S
C531 C532 1.383 . S
C531 H539 0.929 . S
C532 C531 1.383 . S
C532 C533 1.377 . S
C533 H517 0.930 . S
C533 C532 1.377 . S
C533 C534 1.379 . S
C534 H518 0.931 . S
C534 C528 1.383 . S
C534 C533 1.379 . S
H535 C529 0.959 . S
H536 C529 0.961 . S
H537 C529 0.960 . S
H538 C530 0.930 . S
H539 C531 0.929 . S
H540 C548 0.929 . S
H541 C550 0.930 . S
H542 C552 0.930 . S
H543 C555 0.929 . S
H544 C558 0.930 . S
H545 C560 0.960 . S
H546 C560 0.960 . S
H547 C560 0.960 . S
C548 H540 0.929 . S
C548 C549 1.377 . S
C548 C550 1.384 . S
C549 C548 1.377 . S
C549 C555 1.390 . S
C550 H541 0.930 . S
C550 C548 1.384 . S
C550 C551 1.372 . S
C551 C550 1.372 . S
C551 C552 1.400 . S
C551 C556 1.490 . S
C552 H542 0.930 . S
C552 C551 1.400 . S
C552 C555 1.386 . S
H553 C569 0.930 . S
H554 C570 0.931 . S
C555 H543 0.929 . S
C555 C549 1.390 . S
C555 C552 1.386 . S
C556 C551 1.490 . S
C556 C558 1.395 . S
C556 C559 1.403 . S
H557 C563 0.930 . S
C558 H544 0.930 . S
C558 C556 1.395 . S
C558 C561 1.403 . S
C559 C556 1.403 . S
C559 C560 1.524 . S
C559 C563 1.400 . S
C560 H545 0.960 . S
C560 H546 0.960 . S
C560 H547 0.960 . S
C560 C559 1.524 . S
C561 C558 1.403 . S
C561 C562 1.392 . S
C561 C565 1.495 . S
C562 C561 1.392 . S
C562 C563 1.385 . S
C562 C564 1.478 . S
C563 H557 0.930 . S
C563 C559 1.400 . S
C563 C562 1.385 . S
C564 C562 1.478 . S
C564 C566 1.381 . S
C564 C570 1.383 . S
C565 C561 1.495 . S
C565 H571 0.959 . S
C565 H572 0.961 . S
C565 H573 0.960 . S
C566 C564 1.381 . S
C566 C567 1.394 . S
C566 H574 0.930 . S
C567 C566 1.394 . S
C567 C568 1.383 . S
C567 H575 0.929 . S
C568 C567 1.383 . S
C568 C569 1.377 . S
C569 H553 0.930 . S
C569 C568 1.377 . S
C569 C570 1.379 . S
C570 H554 0.931 . S
C570 C564 1.383 . S
C570 C569 1.379 . S
H571 C565 0.959 . S
H572 C565 0.961 . S
H573 C565 0.960 . S
H574 C566 0.930 . S
H575 C567 0.929 . S
H576 C584 0.929 . S
H577 C586 0.930 . S
H578 C588 0.930 . S
H579 C591 0.929 . S
H580 C594 0.930 . S
H581 C596 0.960 . S
H582 C596 0.960 . S
H583 C596 0.960 . S
C584 H576 0.929 . S
C584 C585 1.377 . S
C584 C586 1.384 . S
C585 C584 1.377 . S
C585 C591 1.390 . S
C586 H577 0.930 . S
C586 C584 1.384 . S
C586 C587 1.372 . S
C587 C586 1.372 . S
C587 C588 1.400 . S
C587 C592 1.490 . S
C588 H578 0.930 . S
C588 C587 1.400 . S
C588 C591 1.386 . S
H589 C605 0.930 . S
H590 C606 0.931 . S
C591 H579 0.929 . S
C591 C585 1.390 . S
C591 C588 1.386 . S
C592 C587 1.490 . S
C592 C594 1.395 . S
C592 C595 1.403 . S
H593 C599 0.930 . S
C594 H580 0.930 . S
C594 C592 1.395 . S
C594 C597 1.403 . S
C595 C592 1.403 . S
C595 C596 1.524 . S
C595 C599 1.400 . S
C596 H581 0.960 . S
C596 H582 0.960 . S
C596 H583 0.960 . S
C596 C595 1.524 . S
C597 C594 1.403 . S
C597 C598 1.392 . S
C597 C601 1.495 1_455 S
C598 C597 1.392 . S
C598 C599 1.385 . S
C598 C600 1.478 . S
C599 H593 0.930 . S
C599 C595 1.400 . S
C599 C598 1.385 . S
C600 C598 1.478 . S
C600 C602 1.381 . S
C600 C606 1.383 1_455 S
C601 C597 1.495 1_655 S
C601 H607 0.959 . S
C601 H608 0.961 . S
C601 H609 0.960 1_655 S
C602 C600 1.381 . S
C602 C603 1.394 . S
C602 H610 0.930 . S
C603 C602 1.394 . S
C603 C604 1.383 1_455 S
C603 H611 0.929 . S
C604 C603 1.383 1_655 S
C604 C605 1.377 . S
C605 H589 0.930 . S
C605 C604 1.377 . S
C605 C606 1.379 . S
C606 H590 0.931 . S
C606 C600 1.383 1_655 S
C606 C605 1.379 . S
H607 C601 0.959 . S
H608 C601 0.961 . S
H609 C601 0.960 1_455 S
H610 C602 0.930 . S
H611 C603 0.929 . S
H612 C620 0.930 1_655 S
H613 C622 0.930 . S
H614 C624 0.930 . S
H615 C627 0.929 . S
H616 C630 0.942 . S
H617 C632 0.960 . S
H618 C632 0.960 . S
H619 C632 0.960 . S
C620 H612 0.930 1_455 S
C620 C621 1.377 . S
C620 C622 1.384 1_455 S
C621 C620 1.377 . S
C621 C627 1.390 . S
C622 H613 0.930 . S
C622 C620 1.384 1_655 S
C622 C623 1.372 . S
C623 C622 1.372 . S
C623 C624 1.400 1_655 S
C623 C628 1.490 . S
C624 H614 0.930 . S
C624 C623 1.400 1_455 S
C624 C627 1.386 . S
H625 C641 0.930 . S
H626 C642 0.931 . S
C627 H615 0.929 . S
C627 C621 1.390 . S
C627 C624 1.386 . S
C628 C623 1.490 . S
C628 C630 1.387 1_655 S
C628 C631 1.403 . S
H629 C635 0.930 . S
C630 H616 0.942 . S
C630 C628 1.387 1_455 S
C630 C633 1.400 1_455 S
C631 C628 1.403 . S
C631 C632 1.524 . S
C631 C635 1.400 . S
C632 H617 0.960 . S
C632 H618 0.960 . S
C632 H619 0.960 . S
C632 C631 1.524 . S
C633 C630 1.400 1_655 S
C633 C634 1.392 . S
C633 C637 1.495 1_655 S
C634 C633 1.392 . S
C634 C635 1.385 . S
C634 C636 1.478 . S
C635 H629 0.930 . S
C635 C631 1.400 . S
C635 C634 1.385 . S
C636 C634 1.478 . S
C636 C638 1.381 . S
C636 C642 1.383 . S
C637 C633 1.495 1_455 S
C637 H643 0.959 . S
C637 H644 0.961 . S
C637 H645 0.960 1_455 S
C638 C636 1.381 . S
C638 C639 1.394 . S
C638 H646 0.930 . S
C639 C638 1.394 . S
C639 C640 1.383 . S
C639 H647 0.929 . S
C640 C639 1.383 . S
C640 C641 1.377 . S
C641 H625 0.930 . S
C641 C640 1.377 . S
C641 C642 1.379 . S
C642 H626 0.931 . S
C642 C636 1.383 . S
C642 C641 1.379 . S
H643 C637 0.959 . S
H644 C637 0.961 . S
H645 C637 0.960 1_655 S
H646 C638 0.930 . S
H647 C639 0.929 . S
H648 C656 0.929 . S
H649 C658 0.930 . S
H650 C660 0.930 . S
H651 C663 0.929 . S
H652 C666 0.930 . S
H653 C668 0.960 . S
H654 C668 0.960 . S
H655 C668 0.960 . S
C656 H648 0.929 . S
C656 C657 1.377 . S
C656 C658 1.384 . S
C657 C656 1.377 . S
C657 C663 1.390 . S
C658 H649 0.930 . S
C658 C656 1.384 . S
C658 C659 1.372 . S
C659 C658 1.372 . S
C659 C660 1.400 . S
C659 C664 1.490 . S
C660 H650 0.930 . S
C660 C659 1.400 . S
C660 C663 1.386 . S
H661 C677 0.930 . S
H662 C678 0.931 . S
C663 H651 0.929 . S
C663 C657 1.390 . S
C663 C660 1.386 . S
C664 C659 1.490 . S
C664 C666 1.395 . S
C664 C667 1.403 . S
H665 C671 0.930 . S
C666 H652 0.930 . S
C666 C664 1.395 . S
C666 C669 1.403 . S
C667 C664 1.403 . S
C667 C668 1.524 . S
C667 C671 1.400 . S
C668 H653 0.960 . S
C668 H654 0.960 . S
C668 H655 0.960 . S
C668 C667 1.524 . S
C669 C666 1.403 . S
C669 C670 1.392 . S
C669 C673 1.495 . S
C670 C669 1.392 . S
C670 C671 1.385 . S
C670 C672 1.478 . S
C671 H665 0.930 . S
C671 C667 1.400 . S
C671 C670 1.385 . S
C672 C670 1.478 . S
C672 C674 1.381 . S
C672 C678 1.383 . S
C673 C669 1.495 . S
C673 H679 0.959 . S
C673 H680 0.961 . S
C673 H681 0.960 . S
C674 C672 1.381 . S
C674 C675 1.394 . S
C674 H682 0.930 . S
C675 C674 1.394 . S
C675 C676 1.383 . S
C675 H683 0.929 . S
C676 C675 1.383 . S
C676 C677 1.377 . S
C677 H661 0.930 . S
C677 C676 1.377 . S
C677 C678 1.379 . S
C678 H662 0.931 . S
C678 C672 1.383 . S
C678 C677 1.379 . S
H679 C673 0.959 . S
H680 C673 0.961 . S
H681 C673 0.960 . S
H682 C674 0.930 . S
H683 C675 0.929 . S
H684 C692 0.929 . S
H685 C694 0.930 . S
H686 C696 0.930 . S
H687 C699 0.929 . S
H688 C702 0.930 . S
H689 C704 0.960 . S
H690 C704 0.960 . S
H691 C704 0.960 . S
C692 H684 0.929 . S
C692 C693 1.377 . S
C692 C694 1.384 . S
C693 C692 1.377 . S
C693 C699 1.390 . S
C694 H685 0.930 . S
C694 C692 1.384 . S
C694 C695 1.372 . S
C695 C694 1.372 . S
C695 C696 1.400 . S
C695 C700 1.490 . S
C696 H686 0.930 . S
C696 C695 1.400 . S
C696 C699 1.386 . S
H697 C713 0.930 . S
H698 C714 0.931 . S
C699 H687 0.929 . S
C699 C693 1.390 . S
C699 C696 1.386 . S
C700 C695 1.490 . S
C700 C702 1.395 . S
C700 C703 1.403 . S
H701 C707 0.930 . S
C702 H688 0.930 . S
C702 C700 1.395 . S
C702 C705 1.403 . S
C703 C700 1.403 . S
C703 C704 1.524 . S
C703 C707 1.400 . S
C704 H689 0.960 . S
C704 H690 0.960 . S
C704 H691 0.960 . S
C704 C703 1.524 . S
C705 C702 1.403 . S
C705 C706 1.392 . S
C705 C709 1.495 . S
C706 C705 1.392 . S
C706 C707 1.385 . S
C706 C708 1.478 . S
C707 H701 0.930 . S
C707 C703 1.400 . S
C707 C706 1.385 . S
C708 C706 1.478 . S
C708 C710 1.381 . S
C708 C714 1.383 . S
C709 C705 1.495 . S
C709 H715 0.959 . S
C709 H716 0.961 . S
C709 H717 0.960 . S
C710 C708 1.381 . S
C710 C711 1.394 . S
C710 H718 0.930 . S
C711 C710 1.394 . S
C711 C712 1.383 . S
C711 H719 0.929 . S
C712 C711 1.383 . S
C712 C713 1.377 . S
C713 H697 0.930 . S
C713 C712 1.377 . S
C713 C714 1.379 . S
C714 H698 0.931 . S
C714 C708 1.383 . S
C714 C713 1.379 . S
H715 C709 0.959 . S
H716 C709 0.961 . S
H717 C709 0.960 . S
H718 C710 0.930 . S
H719 C711 0.929 . S
H720 C728 0.929 . S
H721 C730 0.930 . S
H722 C732 0.930 . S
H723 C735 0.929 1_455 S
H724 C738 0.930 . S
H725 C740 0.960 . S
H726 C740 0.960 . S
H727 C740 0.960 . S
C728 H720 0.929 . S
C728 C729 1.377 . S
C728 C730 1.384 . S
C729 C728 1.377 . S
C729 C735 1.390 . S
C730 H721 0.930 . S
C730 C728 1.384 . S
C730 C731 1.372 . S
C731 C730 1.372 . S
C731 C732 1.400 . S
C731 C736 1.490 . S
C732 H722 0.930 . S
C732 C731 1.400 . S
C732 C735 1.386 . S
H733 C749 0.930 . S
H734 C750 0.931 . S
C735 H723 0.929 1_655 S
C735 C729 1.390 . S
C735 C732 1.386 . S
C736 C731 1.490 . S
C736 C738 1.395 . S
C736 C739 1.403 . S
H737 C743 0.930 . S
C738 H724 0.930 . S
C738 C736 1.395 . S
C738 C741 1.403 . S
C739 C736 1.403 . S
C739 C740 1.524 . S
C739 C743 1.400 . S
C740 H725 0.960 . S
C740 H726 0.960 . S
C740 H727 0.960 . S
C740 C739 1.524 . S
C741 C738 1.403 . S
C741 C742 1.392 . S
C741 C745 1.495 . S
C742 C741 1.392 . S
C742 C743 1.385 . S
C742 C744 1.478 . S
C743 H737 0.930 . S
C743 C739 1.400 . S
C743 C742 1.385 . S
C744 C742 1.478 . S
C744 C746 1.381 . S
C744 C750 1.383 . S
C745 C741 1.495 . S
C745 H751 0.959 . S
C745 H752 0.961 . S
C745 H753 0.960 . S
C746 C744 1.381 . S
C746 C747 1.394 . S
C746 H754 0.930 . S
C747 C746 1.394 . S
C747 C748 1.383 . S
C747 H755 0.929 . S
C748 C747 1.383 . S
C748 C749 1.377 . S
C749 H733 0.930 . S
C749 C748 1.377 . S
C749 C750 1.379 . S
C750 H734 0.931 . S
C750 C744 1.383 . S
C750 C749 1.379 . S
H751 C745 0.959 . S
H752 C745 0.961 . S
H753 C745 0.960 . S
H754 C746 0.930 . S
H755 C747 0.929 . S
H756 C764 0.929 . S
H757 C766 0.930 . S
H758 C768 0.930 . S
H759 C771 0.929 . S
H760 C774 0.930 . S
H761 C776 0.960 . S
H762 C776 0.960 . S
H763 C776 0.960 . S
C764 H756 0.929 . S
C764 C765 1.377 . S
C764 C766 1.384 . S
C765 C764 1.377 . S
C765 C771 1.390 . S
C766 H757 0.930 . S
C766 C764 1.384 . S
C766 C767 1.372 . S
C767 C766 1.372 . S
C767 C768 1.400 . S
C767 C772 1.490 . S
C768 H758 0.930 . S
C768 C767 1.400 . S
C768 C771 1.386 . S
H769 C785 0.930 . S
H770 C786 0.931 . S
C771 H759 0.929 . S
C771 C765 1.390 . S
C771 C768 1.386 . S
C772 C767 1.490 . S
C772 C774 1.395 . S
C772 C775 1.403 . S
H773 C779 0.930 . S
C774 H760 0.930 . S
C774 C772 1.395 . S
C774 C777 1.403 . S
C775 C772 1.403 . S
C775 C776 1.524 . S
C775 C779 1.400 . S
C776 H761 0.960 . S
C776 H762 0.960 . S
C776 H763 0.960 . S
C776 C775 1.524 . S
C777 C774 1.403 . S
C777 C778 1.392 . S
C777 C781 1.495 . S
C778 C777 1.392 . S
C778 C779 1.385 . S
C778 C780 1.478 . S
C779 H773 0.930 . S
C779 C775 1.400 . S
C779 C778 1.385 . S
C780 C778 1.478 . S
C780 C782 1.381 . S
C780 C786 1.383 . S
C781 C777 1.495 . S
C781 H787 0.959 . S
C781 H788 0.961 . S
C781 H789 0.960 . S
C782 C780 1.381 . S
C782 C783 1.394 . S
C782 H790 0.930 . S
C783 C782 1.394 . S
C783 C784 1.383 . S
C783 H791 0.929 . S
C784 C783 1.383 . S
C784 C785 1.377 . S
C785 H769 0.930 . S
C785 C784 1.377 . S
C785 C786 1.379 . S
C786 H770 0.931 . S
C786 C780 1.383 . S
C786 C785 1.379 . S
H787 C781 0.959 . S
H788 C781 0.961 . S
H789 C781 0.960 . S
H790 C782 0.930 . S
H791 C783 0.929 . S
H792 C800 0.929 . S
H793 C802 0.930 . S
H794 C804 0.930 . S
H795 C807 0.929 . S
H796 C810 0.930 . S
H797 C812 0.960 . S
H798 C812 0.960 . S
H799 C812 0.960 . S
C800 H792 0.929 . S
C800 C801 1.377 . S
C800 C802 1.384 . S
C801 C800 1.377 . S
C801 C807 1.390 . S
C802 H793 0.930 . S
C802 C800 1.384 . S
C802 C803 1.372 . S
C803 C802 1.372 . S
C803 C804 1.400 . S
C803 C808 1.490 . S
C804 H794 0.930 . S
C804 C803 1.400 . S
C804 C807 1.386 . S
H805 C821 0.930 . S
H806 C822 0.904 1_554 S
C807 H795 0.929 . S
C807 C801 1.390 . S
C807 C804 1.386 . S
C808 C803 1.490 . S
C808 C810 1.395 . S
C808 C811 1.403 . S
H809 C815 0.930 . S
C810 H796 0.930 . S
C810 C808 1.395 . S
C810 C813 1.403 . S
C811 C808 1.403 . S
C811 C812 1.524 . S
C811 C815 1.400 . S
C812 H797 0.960 . S
C812 H798 0.960 . S
C812 H799 0.960 . S
C812 C811 1.524 . S
C813 C810 1.403 . S
C813 C814 1.392 . S
C813 C817 1.495 1_554 S
C814 C813 1.392 . S
C814 C815 1.385 . S
C814 C816 1.478 1_554 S
C815 H809 0.930 . S
C815 C811 1.400 . S
C815 C814 1.385 . S
C816 C814 1.478 1_556 S
C816 C818 1.381 . S
C816 C822 1.383 . S
C817 C813 1.495 1_556 S
C817 H823 0.959 . S
C817 H824 0.961 . S
C817 H825 0.960 . S
C818 C816 1.381 . S
C818 C819 1.394 . S
C818 H826 0.930 . S
C819 C818 1.394 . S
C819 C820 1.383 . S
C819 H827 0.929 . S
C820 C819 1.383 . S
C820 C821 1.377 . S
C821 H805 0.930 . S
C821 C820 1.377 . S
C821 C822 1.379 . S
C822 H806 0.904 1_556 S
C822 C816 1.383 . S
C822 C821 1.379 . S
H823 C817 0.959 . S
H824 C817 0.961 . S
H825 C817 0.960 . S
H826 C818 0.930 . S
H827 C819 0.929 . S
H828 C836 0.929 . S
H829 C838 0.930 . S
H830 C840 0.930 . S
H831 C843 0.929 . S
H832 C846 0.930 . S
H833 C848 0.960 . S
H834 C848 0.960 . S
H835 C848 0.960 . S
C836 H828 0.929 . S
C836 C837 1.377 . S
C836 C838 1.384 . S
C837 C836 1.377 . S
C837 C843 1.390 . S
C838 H829 0.930 . S
C838 C836 1.384 . S
C838 C839 1.372 . S
C839 C838 1.372 . S
C839 C840 1.400 . S
C839 C844 1.490 . S
C840 H830 0.930 . S
C840 C839 1.400 . S
C840 C843 1.386 . S
H841 C857 0.930 . S
H842 C858 0.931 . S
C843 H831 0.929 . S
C843 C837 1.390 . S
C843 C840 1.386 . S
C844 C839 1.490 . S
C844 C846 1.395 . S
C844 C847 1.403 . S
H845 C851 0.930 . S
C846 H832 0.930 . S
C846 C844 1.395 . S
C846 C849 1.403 . S
C847 C844 1.403 . S
C847 C848 1.524 . S
C847 C851 1.400 . S
C848 H833 0.960 . S
C848 H834 0.960 . S
C848 H835 0.960 . S
C848 C847 1.524 . S
C849 C846 1.403 . S
C849 C850 1.392 . S
C849 C853 1.495 . S
C850 C849 1.392 . S
C850 C851 1.385 . S
C850 C852 1.478 . S
C851 H845 0.930 . S
C851 C847 1.400 . S
C851 C850 1.385 . S
C852 C850 1.478 . S
C852 C854 1.381 . S
C852 C858 1.383 . S
C853 C849 1.495 . S
C853 H859 0.959 . S
C853 H860 0.961 . S
C853 H861 0.960 . S
C854 C852 1.381 . S
C854 C855 1.394 . S
C854 H862 0.930 . S
C855 C854 1.394 . S
C855 C856 1.383 . S
C855 H863 0.929 . S
C856 C855 1.383 . S
C856 C857 1.377 . S
C857 H841 0.930 . S
C857 C856 1.377 . S
C857 C858 1.379 . S
C858 H842 0.931 . S
C858 C852 1.383 . S
C858 C857 1.379 . S
H859 C853 0.959 . S
H860 C853 0.961 . S
H861 C853 0.960 . S
H862 C854 0.930 . S
H863 C855 0.929 . S
H864 C872 0.929 . S
H865 C874 0.930 1_556 S
H866 C876 0.930 . S
H867 C879 0.929 . S
H868 C882 0.930 . S
H869 C884 0.960 . S
H870 C884 0.960 . S
H871 C884 0.960 . S
C872 H864 0.929 . S
C872 C873 1.377 . S
C872 C874 1.384 . S
C873 C872 1.377 . S
C873 C879 1.390 . S
C874 H865 0.930 1_554 S
C874 C872 1.384 . S
C874 C875 1.372 . S
C875 C874 1.372 . S
C875 C876 1.400 . S
C875 C880 1.490 1_554 S
C876 H866 0.930 . S
C876 C875 1.400 . S
C876 C879 1.386 . S
H877 C893 0.930 . S
H878 C894 0.931 . S
C879 H867 0.929 . S
C879 C873 1.390 . S
C879 C876 1.386 . S
C880 C875 1.490 1_556 S
C880 C882 1.395 . S
C880 C883 1.403 . S
H881 C887 0.930 . S
C882 H868 0.930 . S
C882 C880 1.395 . S
C882 C885 1.403 . S
C883 C880 1.403 . S
C883 C884 1.524 . S
C883 C887 1.400 . S
C884 H869 0.960 . S
C884 H870 0.960 . S
C884 H871 0.960 . S
C884 C883 1.524 . S
C885 C882 1.403 . S
C885 C886 1.392 . S
C885 C889 1.495 . S
C886 C885 1.392 . S
C886 C887 1.385 . S
C886 C888 1.478 . S
C887 H881 0.930 . S
C887 C883 1.400 . S
C887 C886 1.385 . S
C888 C886 1.478 . S
C888 C890 1.381 . S
C888 C894 1.383 . S
C889 C885 1.495 . S
C889 H895 0.959 . S
C889 H896 0.961 . S
C889 H897 0.960 . S
C890 C888 1.381 . S
C890 C891 1.394 . S
C890 H898 0.930 . S
C891 C890 1.394 . S
C891 C892 1.383 . S
C891 H899 0.929 . S
C892 C891 1.383 . S
C892 C893 1.377 1_455 S
C893 H877 0.930 . S
C893 C892 1.377 1_655 S
C893 C894 1.379 1_655 S
C894 H878 0.931 . S
C894 C888 1.383 . S
C894 C893 1.379 1_455 S
H895 C889 0.959 . S
H896 C889 0.961 . S
H897 C889 0.960 . S
H898 C890 0.930 . S
H899 C891 0.929 . S
H900 C908 0.929 . S
H901 C910 0.930 . S
H902 C912 0.930 . S
H903 C915 0.929 . S
H904 C918 0.930 . S
H905 C920 0.960 . S
H906 C920 0.960 . S
H907 C920 0.960 . S
C908 H900 0.929 . S
C908 C909 1.377 . S
C908 C910 1.384 . S
C909 C908 1.377 . S
C909 C915 1.390 . S
C910 H901 0.930 . S
C910 C908 1.384 . S
C910 C911 1.372 . S
C911 C910 1.372 . S
C911 C912 1.400 . S
C911 C916 1.490 . S
C912 H902 0.930 . S
C912 C911 1.400 . S
C912 C915 1.386 . S
H913 C929 0.930 . S
H914 C930 0.931 . S
C915 H903 0.929 . S
C915 C909 1.390 . S
C915 C912 1.386 . S
C916 C911 1.490 . S
C916 C918 1.395 . S
C916 C919 1.403 . S
H917 C923 0.930 . S
C918 H904 0.930 . S
C918 C916 1.395 . S
C918 C921 1.403 . S
C919 C916 1.403 . S
C919 C920 1.524 . S
C919 C923 1.400 . S
C920 H905 0.960 . S
C920 H906 0.960 . S
C920 H907 0.960 . S
C920 C919 1.524 . S
C921 C918 1.403 . S
C921 C922 1.392 . S
C921 C925 1.495 . S
C922 C921 1.392 . S
C922 C923 1.385 . S
C922 C924 1.478 . S
C923 H917 0.930 . S
C923 C919 1.400 . S
C923 C922 1.385 . S
C924 C922 1.478 . S
C924 C926 1.381 . S
C924 C930 1.383 . S
C925 C921 1.495 . S
C925 H931 0.959 . S
C925 H932 0.961 . S
C925 H933 0.960 . S
C926 C924 1.381 . S
C926 C927 1.394 . S
C926 H934 0.930 . S
C927 C926 1.394 . S
C927 C928 1.383 . S
C927 H935 0.929 . S
C928 C927 1.383 . S
C928 C929 1.377 . S
C929 H913 0.930 . S
C929 C928 1.377 . S
C929 C930 1.379 . S
C930 H914 0.931 . S
C930 C924 1.383 . S
C930 C929 1.379 . S
H931 C925 0.959 . S
H932 C925 0.961 . S
H933 C925 0.960 . S
H934 C926 0.930 . S
H935 C927 0.929 . S
H936 C944 0.929 . S
H937 C946 0.930 . S
H938 C948 0.930 . S
H939 C951 0.929 . S
H940 C954 0.930 . S
H941 C956 0.960 . S
H942 C956 0.960 . S
H943 C956 0.960 . S
C944 H936 0.929 . S
C944 C945 1.377 . S
C944 C946 1.384 . S
C945 C944 1.377 . S
C945 C951 1.390 . S
C946 H937 0.930 . S
C946 C944 1.384 . S
C946 C947 1.372 . S
C947 C946 1.372 . S
C947 C948 1.400 . S
C947 C952 1.490 . S
C948 H938 0.930 . S
C948 C947 1.400 . S
C948 C951 1.386 . S
H949 C965 0.930 . S
H950 C966 0.931 . S
C951 H939 0.929 . S
C951 C945 1.390 . S
C951 C948 1.386 . S
C952 C947 1.490 . S
C952 C954 1.395 . S
C952 C955 1.403 . S
H953 C959 0.930 . S
C954 H940 0.930 . S
C954 C952 1.395 . S
C954 C957 1.403 . S
C955 C952 1.403 . S
C955 C956 1.524 . S
C955 C959 1.400 . S
C956 H941 0.960 . S
C956 H942 0.960 . S
C956 H943 0.960 . S
C956 C955 1.524 . S
C957 C954 1.403 . S
C957 C958 1.392 . S
C957 C961 1.495 . S
C958 C957 1.392 . S
C958 C959 1.385 . S
C958 C960 1.478 . S
C959 H953 0.930 . S
C959 C955 1.400 . S
C959 C958 1.385 . S
C960 C958 1.478 . S
C960 C962 1.381 . S
C960 C966 1.383 . S
C961 C957 1.495 . S
C961 H967 0.959 . S
C961 H968 0.961 . S
C961 H969 0.960 . S
C962 C960 1.381 . S
C962 C963 1.394 . S
C962 H970 0.930 . S
C963 C962 1.394 . S
C963 C964 1.383 . S
C963 H971 0.929 . S
C964 C963 1.383 . S
C964 C965 1.377 . S
C965 H949 0.930 . S
C965 C964 1.377 . S
C965 C966 1.379 . S
C966 H950 0.931 . S
C966 C960 1.383 . S
C966 C965 1.379 . S
H967 C961 0.959 . S
H968 C961 0.961 . S
H969 C961 0.960 . S
H970 C962 0.930 . S
H971 C963 0.929 . S
H972 C980 0.929 . S
H973 C982 0.930 . S
H974 C984 0.930 . S
H975 C987 0.929 . S
H976 C990 0.930 . S
H977 C992 0.960 . S
H978 C992 0.960 . S
H979 C992 0.960 . S
C980 H972 0.929 . S
C980 C981 1.377 . S
C980 C982 1.384 . S
C981 C980 1.377 . S
C981 C987 1.390 . S
C982 H973 0.930 . S
C982 C980 1.384 . S
C982 C983 1.372 . S
C983 C982 1.372 . S
C983 C984 1.400 . S
C983 C988 1.490 . S
C984 H974 0.930 . S
C984 C983 1.400 . S
C984 C987 1.386 . S
H985 C1001 0.930 . S
H986 C1002 0.931 . S
C987 H975 0.929 . S
C987 C981 1.390 . S
C987 C984 1.386 . S
C988 C983 1.490 . S
C988 C990 1.395 . S
C988 C991 1.403 . S
H989 C995 0.930 . S
C990 H976 0.930 . S
C990 C988 1.395 . S
C990 C993 1.403 . S
C991 C988 1.403 . S
C991 C992 1.524 . S
C991 C995 1.400 . S
C992 H977 0.960 . S
C992 H978 0.960 . S
C992 H979 0.960 . S
C992 C991 1.524 . S
C993 C990 1.403 . S
C993 C994 1.392 . S
C993 C997 1.495 . S
C994 C993 1.392 . S
C994 C995 1.385 . S
C994 C996 1.478 . S
C995 H989 0.930 . S
C995 C991 1.400 . S
C995 C994 1.385 . S
C996 C994 1.478 . S
C996 C998 1.381 . S
C996 C1002 1.383 . S
C997 C993 1.495 . S
C997 H1003 0.959 . S
C997 H1004 0.961 . S
C997 H1005 0.960 . S
C998 C996 1.381 . S
C998 C999 1.394 . S
C998 H1006 0.930 . S
C999 C998 1.394 . S
C999 C1000 1.383 . S
C999 H1007 0.929 . S
C1000 C999 1.383 . S
C1000 C1001 1.377 . S
C1001 H985 0.930 . S
C1001 C1000 1.377 . S
C1001 C1002 1.379 . S
C1002 H986 0.931 . S
C1002 C996 1.383 . S
C1002 C1001 1.379 . S
H1003 C997 0.959 . S
H1004 C997 0.961 . S
H1005 C997 0.960 . S
H1006 C998 0.930 . S
H1007 C999 0.929 . S
H1008 C1016 0.929 . S
H1009 C1018 0.930 . S
H1010 C1020 0.930 . S
H1011 C1023 0.929 . S
H1012 C1026 0.930 . S
H1013 C1028 0.960 . S
H1014 C1028 0.960 . S
H1015 C1028 0.960 . S
C1016 H1008 0.929 . S
C1016 C1017 1.377 . S
C1016 C1018 1.384 . S
C1017 C1016 1.377 . S
C1017 C1023 1.390 . S
C1018 H1009 0.930 . S
C1018 C1016 1.384 . S
C1018 C1019 1.372 . S
C1019 C1018 1.372 . S
C1019 C1020 1.400 . S
C1019 C1024 1.490 . S
C1020 H1010 0.930 . S
C1020 C1019 1.400 . S
C1020 C1023 1.386 . S
H1021 C1037 0.930 . S
H1022 C1038 0.931 1_545 S
C1023 H1011 0.929 . S
C1023 C1017 1.390 . S
C1023 C1020 1.386 . S
C1024 C1019 1.490 . S
C1024 C1026 1.395 . S
C1024 C1027 1.403 . S
H1025 C1031 0.930 . S
C1026 H1012 0.930 . S
C1026 C1024 1.395 . S
C1026 C1029 1.403 . S
C1027 C1024 1.403 . S
C1027 C1028 1.524 . S
C1027 C1031 1.400 . S
C1028 H1013 0.960 . S
C1028 H1014 0.960 . S
C1028 H1015 0.960 . S
C1028 C1027 1.524 . S
C1029 C1026 1.403 . S
C1029 C1030 1.392 . S
C1029 C1033 1.495 . S
C1030 C1029 1.392 . S
C1030 C1031 1.385 . S
C1030 C1032 1.478 1_545 S
C1031 H1025 0.930 . S
C1031 C1027 1.400 . S
C1031 C1030 1.385 . S
C1032 C1030 1.478 1_565 S
C1032 C1034 1.381 . S
C1032 C1038 1.383 . S
C1033 C1029 1.495 . S
C1033 H1039 0.959 . S
C1033 H1040 0.961 . S
C1033 H1041 0.960 . S
C1034 C1032 1.381 . S
C1034 C1035 1.394 . S
C1034 H1042 0.930 . S
C1035 C1034 1.394 . S
C1035 C1036 1.383 . S
C1035 H1043 0.929 . S
C1036 C1035 1.383 . S
C1036 C1037 1.377 . S
C1037 H1021 0.930 . S
C1037 C1036 1.377 . S
C1037 C1038 1.379 . S
C1038 H1022 0.931 1_565 S
C1038 C1032 1.383 . S
C1038 C1037 1.379 . S
H1039 C1033 0.959 . S
H1040 C1033 0.961 . S
H1041 C1033 0.960 . S
H1042 C1034 0.930 . S
H1043 C1035 0.929 . S
H1044 C1052 0.929 . S
H1045 C1054 0.930 . S
H1046 C1056 0.930 . S
H1047 C1059 0.929 . S
H1048 C1062 0.930 . S
H1049 C1064 0.960 . S
H1050 C1064 0.960 . S
H1051 C1064 0.960 . S
C1052 H1044 0.929 . S
C1052 C1053 1.377 . S
C1052 C1054 1.384 . S
C1053 C1052 1.377 . S
C1053 C1059 1.390 . S
C1054 H1045 0.930 . S
C1054 C1052 1.384 . S
C1054 C1055 1.372 . S
C1055 C1054 1.372 . S
C1055 C1056 1.400 . S
C1055 C1060 1.490 . S
C1056 H1046 0.930 . S
C1056 C1055 1.400 . S
C1056 C1059 1.386 . S
H1057 C1073 0.930 . S
H1058 C1074 0.931 . S
C1059 H1047 0.929 . S
C1059 C1053 1.390 . S
C1059 C1056 1.386 . S
C1060 C1055 1.490 . S
C1060 C1062 1.395 . S
C1060 C1063 1.403 . S
H1061 C1067 0.930 . S
C1062 H1048 0.930 . S
C1062 C1060 1.395 . S
C1062 C1065 1.403 . S
C1063 C1060 1.403 . S
C1063 C1064 1.524 . S
C1063 C1067 1.400 . S
C1064 H1049 0.960 . S
C1064 H1050 0.960 . S
C1064 H1051 0.960 . S
C1064 C1063 1.524 . S
C1065 C1062 1.403 . S
C1065 C1066 1.392 . S
C1065 C1069 1.495 . S
C1066 C1065 1.392 . S
C1066 C1067 1.385 . S
C1066 C1068 1.478 . S
C1067 H1061 0.930 . S
C1067 C1063 1.400 . S
C1067 C1066 1.385 . S
C1068 C1066 1.478 . S
C1068 C1070 1.381 . S
C1068 C1074 1.383 . S
C1069 C1065 1.495 . S
C1069 H1075 0.959 . S
C1069 H1076 0.961 . S
C1069 H1077 0.960 . S
C1070 C1068 1.381 . S
C1070 C1071 1.394 . S
C1070 H1078 0.930 . S
C1071 C1070 1.394 . S
C1071 C1072 1.383 . S
C1071 H1079 0.929 . S
C1072 C1071 1.383 . S
C1072 C1073 1.377 . S
C1073 H1057 0.930 . S
C1073 C1072 1.377 . S
C1073 C1074 1.379 . S
C1074 H1058 0.931 . S
C1074 C1068 1.383 . S
C1074 C1073 1.379 . S
H1075 C1069 0.959 . S
H1076 C1069 0.961 . S
H1077 C1069 0.960 . S
H1078 C1070 0.930 . S
H1079 C1071 0.929 . S
H1080 C1088 0.929 . S
H1081 C1090 0.930 . S
H1082 C1092 0.930 1_565 S
H1083 C1095 0.929 . S
H1084 C1098 0.942 . S
H1085 C1100 0.960 . S
H1086 C1100 0.960 . S
H1087 C1100 0.960 . S
C1088 H1080 0.929 . S
C1088 C1089 1.377 . S
C1088 C1090 1.384 . S
C1089 C1088 1.377 . S
C1089 C1095 1.390 . S
C1090 H1081 0.930 . S
C1090 C1088 1.384 . S
C1090 C1091 1.372 . S
C1091 C1090 1.372 . S
C1091 C1092 1.400 . S
C1091 C1096 1.490 1_545 S
C1092 H1082 0.930 1_545 S
C1092 C1091 1.400 . S
C1092 C1095 1.386 . S
H1093 C1109 0.930 . S
H1094 C1110 0.931 . S
C1095 H1083 0.929 . S
C1095 C1089 1.390 . S
C1095 C1092 1.386 . S
C1096 C1091 1.490 1_565 S
C1096 C1098 1.395 . S
C1096 C1099 1.403 . S
H1097 C1103 0.930 . S
C1098 H1084 0.942 . S
C1098 C1096 1.395 . S
C1098 C1101 1.403 . S
C1099 C1096 1.403 . S
C1099 C1100 1.524 . S
C1099 C1103 1.400 . S
C1100 H1085 0.960 . S
C1100 H1086 0.960 . S
C1100 H1087 0.960 . S
C1100 C1099 1.524 . S
C1101 C1098 1.403 . S
C1101 C1102 1.392 . S
C1101 C1105 1.495 . S
C1102 C1101 1.392 . S
C1102 C1103 1.385 . S
C1102 C1104 1.478 . S
C1103 H1097 0.930 . S
C1103 C1099 1.400 . S
C1103 C1102 1.385 . S
C1104 C1102 1.478 . S
C1104 C1106 1.381 . S
C1104 C1110 1.383 . S
C1105 C1101 1.495 . S
C1105 H1111 0.959 . S
C1105 H1112 0.961 . S
C1105 H1113 0.960 . S
C1106 C1104 1.381 . S
C1106 C1107 1.394 1_554 S
C1106 H1114 0.930 . S
C1107 C1106 1.394 1_556 S
C1107 C1108 1.383 1_556 S
C1107 H1115 0.929 . S
C1108 C1107 1.383 1_554 S
C1108 C1109 1.377 . S
C1109 H1093 0.930 . S
C1109 C1108 1.377 . S
C1109 C1110 1.379 . S
C1110 H1094 0.931 . S
C1110 C1104 1.383 . S
C1110 C1109 1.379 . S
H1111 C1105 0.959 . S
H1112 C1105 0.961 . S
H1113 C1105 0.960 . S
H1114 C1106 0.930 . S
H1115 C1107 0.929 . S
H1116 C1124 0.929 . S
H1117 C1126 0.930 . S
H1118 C1128 0.930 . S
H1119 C1131 0.929 . S
H1120 C1134 0.930 . S
H1121 C1136 0.960 . S
H1122 C1136 0.960 . S
H1123 C1136 0.960 . S
C1124 H1116 0.929 . S
C1124 C1125 1.377 . S
C1124 C1126 1.384 . S
C1125 C1124 1.377 . S
C1125 C1131 1.390 . S
C1126 H1117 0.930 . S
C1126 C1124 1.384 . S
C1126 C1127 1.372 . S
C1127 C1126 1.372 . S
C1127 C1128 1.400 . S
C1127 C1132 1.490 . S
C1128 H1118 0.930 . S
C1128 C1127 1.400 . S
C1128 C1131 1.386 . S
H1129 C1145 0.930 . S
H1130 C1146 0.931 . S
C1131 H1119 0.929 . S
C1131 C1125 1.390 . S
C1131 C1128 1.386 . S
C1132 C1127 1.490 . S
C1132 C1134 1.395 . S
C1132 C1135 1.403 . S
H1133 C1139 0.930 . S
C1134 H1120 0.930 . S
C1134 C1132 1.395 . S
C1134 C1137 1.403 . S
C1135 C1132 1.403 . S
C1135 C1136 1.524 . S
C1135 C1139 1.400 . S
C1136 H1121 0.960 . S
C1136 H1122 0.960 . S
C1136 H1123 0.960 . S
C1136 C1135 1.524 . S
C1137 C1134 1.403 . S
C1137 C1138 1.392 . S
C1137 C1141 1.495 . S
C1138 C1137 1.392 . S
C1138 C1139 1.385 . S
C1138 C1140 1.478 . S
C1139 H1133 0.930 . S
C1139 C1135 1.400 . S
C1139 C1138 1.385 . S
C1140 C1138 1.478 . S
C1140 C1142 1.381 . S
C1140 C1146 1.383 . S
C1141 C1137 1.495 . S
C1141 H1147 0.959 . S
C1141 H1148 0.961 . S
C1141 H1149 0.960 . S
C1142 C1140 1.381 . S
C1142 C1143 1.394 . S
C1142 H1150 0.930 . S
C1143 C1142 1.394 . S
C1143 C1144 1.383 . S
C1143 H1151 0.929 . S
C1144 C1143 1.383 . S
C1144 C1145 1.377 . S
C1145 H1129 0.930 . S
C1145 C1144 1.377 . S
C1145 C1146 1.379 . S
C1146 H1130 0.931 . S
C1146 C1140 1.383 . S
C1146 C1145 1.379 . S
H1147 C1141 0.959 . S
H1148 C1141 0.961 . S
H1149 C1141 0.960 . S
H1150 C1142 0.930 . S
H1151 C1143 0.929 . S
H1152 C1160 0.929 . S
H1153 C1162 0.930 . S
H1154 C1164 0.930 . S
H1155 C1167 0.929 . S
H1156 C1170 0.930 . S
H1157 C1172 0.960 . S
H1158 C1172 0.960 . S
H1159 C1172 0.960 . S
C1160 H1152 0.929 . S
C1160 C1161 1.377 . S
C1160 C1162 1.384 . S
C1161 C1160 1.377 . S
C1161 C1167 1.390 . S
C1162 H1153 0.930 . S
C1162 C1160 1.384 . S
C1162 C1163 1.372 . S
C1163 C1162 1.372 . S
C1163 C1164 1.400 . S
C1163 C1168 1.490 . S
C1164 H1154 0.930 . S
C1164 C1163 1.400 . S
C1164 C1167 1.386 . S
H1165 C1181 0.930 . S
H1166 C1182 0.931 . S
C1167 H1155 0.929 . S
C1167 C1161 1.390 . S
C1167 C1164 1.386 . S
C1168 C1163 1.490 . S
C1168 C1170 1.395 . S
C1168 C1171 1.403 . S
H1169 C1175 0.930 . S
C1170 H1156 0.930 . S
C1170 C1168 1.395 . S
C1170 C1173 1.403 . S
C1171 C1168 1.403 . S
C1171 C1172 1.524 . S
C1171 C1175 1.400 . S
C1172 H1157 0.960 . S
C1172 H1158 0.960 . S
C1172 H1159 0.960 . S
C1172 C1171 1.524 . S
C1173 C1170 1.403 . S
C1173 C1174 1.392 . S
C1173 C1177 1.495 . S
C1174 C1173 1.392 . S
C1174 C1175 1.385 . S
C1174 C1176 1.478 . S
C1175 H1169 0.930 . S
C1175 C1171 1.400 . S
C1175 C1174 1.385 . S
C1176 C1174 1.478 . S
C1176 C1178 1.381 . S
C1176 C1182 1.383 . S
C1177 C1173 1.495 . S
C1177 H1183 0.959 . S
C1177 H1184 0.961 . S
C1177 H1185 0.960 . S
C1178 C1176 1.381 . S
C1178 C1179 1.394 1_556 S
C1178 H1186 0.930 . S
C1179 C1178 1.394 1_554 S
C1179 C1180 1.383 1_554 S
C1179 H1187 0.929 . S
C1180 C1179 1.383 1_556 S
C1180 C1181 1.377 . S
C1181 H1165 0.930 . S
C1181 C1180 1.377 . S
C1181 C1182 1.379 . S
C1182 H1166 0.931 . S
C1182 C1176 1.383 . S
C1182 C1181 1.379 . S
H1183 C1177 0.959 . S
H1184 C1177 0.961 . S
H1185 C1177 0.960 . S
H1186 C1178 0.930 . S
H1187 C1179 0.929 . S
H1188 C1196 0.929 . S
H1189 C1198 0.930 . S
H1190 C1200 0.930 . S
H1191 C1203 0.929 . S
H1192 C1206 0.930 . S
H1193 C1208 0.960 . S
H1194 C1208 0.960 . S
H1195 C1208 0.960 . S
C1196 H1188 0.929 . S
C1196 C1197 1.377 . S
C1196 C1198 1.384 . S
C1197 C1196 1.377 . S
C1197 C1203 1.390 . S
C1198 H1189 0.930 . S
C1198 C1196 1.384 . S
C1198 C1199 1.372 . S
C1199 C1198 1.372 . S
C1199 C1200 1.400 . S
C1199 C1204 1.490 . S
C1200 H1190 0.930 . S
C1200 C1199 1.400 . S
C1200 C1203 1.386 . S
H1201 C1217 0.930 . S
H1202 C1218 0.931 . S
C1203 H1191 0.929 . S
C1203 C1197 1.390 . S
C1203 C1200 1.386 . S
C1204 C1199 1.490 . S
C1204 C1206 1.395 . S
C1204 C1207 1.403 . S
H1205 C1211 0.930 . S
C1206 H1192 0.930 . S
C1206 C1204 1.395 . S
C1206 C1209 1.403 . S
C1207 C1204 1.403 . S
C1207 C1208 1.524 . S
C1207 C1211 1.400 . S
C1208 H1193 0.960 . S
C1208 H1194 0.960 . S
C1208 H1195 0.960 . S
C1208 C1207 1.524 . S
C1209 C1206 1.403 . S
C1209 C1210 1.392 . S
C1209 C1213 1.495 . S
C1210 C1209 1.392 . S
C1210 C1211 1.385 . S
C1210 C1212 1.478 . S
C1211 H1205 0.930 . S
C1211 C1207 1.400 . S
C1211 C1210 1.385 . S
C1212 C1210 1.478 . S
C1212 C1214 1.381 . S
C1212 C1218 1.383 . S
C1213 C1209 1.495 . S
C1213 H1219 0.959 . S
C1213 H1220 0.961 . S
C1213 H1221 0.960 . S
C1214 C1212 1.381 . S
C1214 C1215 1.394 . S
C1214 H1222 0.930 . S
C1215 C1214 1.394 . S
C1215 C1216 1.383 . S
C1215 H1223 0.929 . S
C1216 C1215 1.383 . S
C1216 C1217 1.377 . S
C1217 H1201 0.930 . S
C1217 C1216 1.377 . S
C1217 C1218 1.379 . S
C1218 H1202 0.931 . S
C1218 C1212 1.383 . S
C1218 C1217 1.379 . S
H1219 C1213 0.959 . S
H1220 C1213 0.961 . S
H1221 C1213 0.960 . S
H1222 C1214 0.930 . S
H1223 C1215 0.929 . S
H1224 C1232 0.929 . S
H1225 C1234 0.930 . S
H1226 C1236 0.930 . S
H1227 C1239 0.929 . S
H1228 C1242 0.930 . S
H1229 C1244 0.960 . S
H1230 C1244 0.960 . S
H1231 C1244 0.960 . S
C1232 H1224 0.929 . S
C1232 C1233 1.377 . S
C1232 C1234 1.384 . S
C1233 C1232 1.377 . S
C1233 C1239 1.390 . S
C1234 H1225 0.930 . S
C1234 C1232 1.384 . S
C1234 C1235 1.372 . S
C1235 C1234 1.372 . S
C1235 C1236 1.400 . S
C1235 C1240 1.490 . S
C1236 H1226 0.930 . S
C1236 C1235 1.400 . S
C1236 C1239 1.386 . S
H1237 C1253 0.930 . S
H1238 C1254 0.931 . S
C1239 H1227 0.929 . S
C1239 C1233 1.390 . S
C1239 C1236 1.386 . S
C1240 C1235 1.490 . S
C1240 C1242 1.395 . S
C1240 C1243 1.403 . S
H1241 C1247 0.930 . S
C1242 H1228 0.930 . S
C1242 C1240 1.395 . S
C1242 C1245 1.403 . S
C1243 C1240 1.403 . S
C1243 C1244 1.524 . S
C1243 C1247 1.400 . S
C1244 H1229 0.960 . S
C1244 H1230 0.960 . S
C1244 H1231 0.960 . S
C1244 C1243 1.524 . S
C1245 C1242 1.403 . S
C1245 C1246 1.392 . S
C1245 C1249 1.495 . S
C1246 C1245 1.392 . S
C1246 C1247 1.385 . S
C1246 C1248 1.478 . S
C1247 H1241 0.930 . S
C1247 C1243 1.400 . S
C1247 C1246 1.385 . S
C1248 C1246 1.478 . S
C1248 C1250 1.381 . S
C1248 C1254 1.383 . S
C1249 C1245 1.495 . S
C1249 H1255 0.959 . S
C1249 H1256 0.961 . S
C1249 H1257 0.960 . S
C1250 C1248 1.381 . S
C1250 C1251 1.394 . S
C1250 H1258 0.930 . S
C1251 C1250 1.394 . S
C1251 C1252 1.383 . S
C1251 H1259 0.929 . S
C1252 C1251 1.383 . S
C1252 C1253 1.377 . S
C1253 H1237 0.930 . S
C1253 C1252 1.377 . S
C1253 C1254 1.379 . S
C1254 H1238 0.931 . S
C1254 C1248 1.383 . S
C1254 C1253 1.379 . S
H1255 C1249 0.959 . S
H1256 C1249 0.961 . S
H1257 C1249 0.960 . S
H1258 C1250 0.930 . S
H1259 C1251 0.929 . S
H1260 C1268 0.929 . S
H1261 C1270 0.930 . S
H1262 C1272 0.930 . S
H1263 C1275 0.929 . S
H1264 C1278 0.930 . S
H1265 C1280 0.960 . S
H1266 C1280 0.960 . S
H1267 C1280 0.960 . S
C1268 H1260 0.929 . S
C1268 C1269 1.377 . S
C1268 C1270 1.384 . S
C1269 C1268 1.377 . S
C1269 C1275 1.390 . S
C1270 H1261 0.930 . S
C1270 C1268 1.384 . S
C1270 C1271 1.372 . S
C1271 C1270 1.372 . S
C1271 C1272 1.400 . S
C1271 C1276 1.490 . S
C1272 H1262 0.930 . S
C1272 C1271 1.400 . S
C1272 C1275 1.386 . S
H1273 C1289 0.930 . S
H1274 C1290 0.931 . S
C1275 H1263 0.929 . S
C1275 C1269 1.390 . S
C1275 C1272 1.386 . S
C1276 C1271 1.490 . S
C1276 C1278 1.395 . S
C1276 C1279 1.403 . S
H1277 C1283 0.930 . S
C1278 H1264 0.930 . S
C1278 C1276 1.395 . S
C1278 C1281 1.403 . S
C1279 C1276 1.403 . S
C1279 C1280 1.524 . S
C1279 C1283 1.400 . S
C1280 H1265 0.960 . S
C1280 H1266 0.960 . S
C1280 H1267 0.960 . S
C1280 C1279 1.524 . S
C1281 C1278 1.403 . S
C1281 C1282 1.392 . S
C1281 C1285 1.495 . S
C1282 C1281 1.392 . S
C1282 C1283 1.385 . S
C1282 C1284 1.478 . S
C1283 H1277 0.930 . S
C1283 C1279 1.400 . S
C1283 C1282 1.385 . S
C1284 C1282 1.478 . S
C1284 C1286 1.381 . S
C1284 C1290 1.383 . S
C1285 C1281 1.495 . S
C1285 H1291 0.959 . S
C1285 H1292 0.961 . S
C1285 H1293 0.960 . S
C1286 C1284 1.381 . S
C1286 C1287 1.394 . S
C1286 H1294 0.930 . S
C1287 C1286 1.394 . S
C1287 C1288 1.383 . S
C1287 H1295 0.929 . S
C1288 C1287 1.383 . S
C1288 C1289 1.377 . S
C1289 H1273 0.930 . S
C1289 C1288 1.377 . S
C1289 C1290 1.379 . S
C1290 H1274 0.931 . S
C1290 C1284 1.383 . S
C1290 C1289 1.379 . S
H1291 C1285 0.959 . S
H1292 C1285 0.961 . S
H1293 C1285 0.960 . S
H1294 C1286 0.930 . S
H1295 C1287 0.929 . S
H1296 C1304 0.929 . S
H1297 C1306 0.930 . S
H1298 C1308 0.930 . S
H1299 C1311 0.929 . S
H1300 C1314 0.930 . S
H1301 C1316 0.960 . S
H1302 C1316 0.960 . S
H1303 C1316 0.960 . S
C1304 H1296 0.929 . S
C1304 C1305 1.377 . S
C1304 C1306 1.384 . S
C1305 C1304 1.377 . S
C1305 C1311 1.390 . S
C1306 H1297 0.930 . S
C1306 C1304 1.384 . S
C1306 C1307 1.372 . S
C1307 C1306 1.372 . S
C1307 C1308 1.400 . S
C1307 C1312 1.490 . S
C1308 H1298 0.930 . S
C1308 C1307 1.400 . S
C1308 C1311 1.386 . S
H1309 C1325 0.930 . S
H1310 C1326 0.931 . S
C1311 H1299 0.929 . S
C1311 C1305 1.390 . S
C1311 C1308 1.386 . S
C1312 C1307 1.490 . S
C1312 C1314 1.395 . S
C1312 C1315 1.403 . S
H1313 C1319 0.930 . S
C1314 H1300 0.930 . S
C1314 C1312 1.395 . S
C1314 C1317 1.403 . S
C1315 C1312 1.403 . S
C1315 C1316 1.524 . S
C1315 C1319 1.400 . S
C1316 H1301 0.960 . S
C1316 H1302 0.960 . S
C1316 H1303 0.960 . S
C1316 C1315 1.524 . S
C1317 C1314 1.403 . S
C1317 C1318 1.392 . S
C1317 C1321 1.495 . S
C1318 C1317 1.392 . S
C1318 C1319 1.385 . S
C1318 C1320 1.478 . S
C1319 H1313 0.930 . S
C1319 C1315 1.400 . S
C1319 C1318 1.385 . S
C1320 C1318 1.478 . S
C1320 C1322 1.381 . S
C1320 C1326 1.383 . S
C1321 C1317 1.495 . S
C1321 H1327 0.959 . S
C1321 H1328 0.961 . S
C1321 H1329 0.960 . S
C1322 C1320 1.381 . S
C1322 C1323 1.394 . S
C1322 H1330 0.930 . S
C1323 C1322 1.394 . S
C1323 C1324 1.383 . S
C1323 H1331 0.929 . S
C1324 C1323 1.383 . S
C1324 C1325 1.377 . S
C1325 H1309 0.930 . S
C1325 C1324 1.377 . S
C1325 C1326 1.379 . S
C1326 H1310 0.931 . S
C1326 C1320 1.383 . S
C1326 C1325 1.379 . S
H1327 C1321 0.959 . S
H1328 C1321 0.961 . S
H1329 C1321 0.960 . S
H1330 C1322 0.930 . S
H1331 C1323 0.929 . S
H1332 C1340 0.929 . S
H1333 C1342 0.930 . S
H1334 C1344 0.930 . S
H1335 C1347 0.929 . S
H1336 C1350 0.930 . S
H1337 C1352 0.960 . S
H1338 C1352 0.960 . S
H1339 C1352 0.960 . S
C1340 H1332 0.929 . S
C1340 C1341 1.377 . S
C1340 C1342 1.384 . S
C1341 C1340 1.377 . S
C1341 C1347 1.390 . S
C1342 H1333 0.930 . S
C1342 C1340 1.384 . S
C1342 C1343 1.372 . S
C1343 C1342 1.372 . S
C1343 C1344 1.400 . S
C1343 C1348 1.490 . S
C1344 H1334 0.930 . S
C1344 C1343 1.400 . S
C1344 C1347 1.386 . S
H1345 C1361 0.930 . S
H1346 C1362 0.931 1_455 S
C1347 H1335 0.929 . S
C1347 C1341 1.390 . S
C1347 C1344 1.386 . S
C1348 C1343 1.490 . S
C1348 C1350 1.395 . S
C1348 C1351 1.403 . S
H1349 C1355 0.930 . S
C1350 H1336 0.930 . S
C1350 C1348 1.395 . S
C1350 C1353 1.403 . S
C1351 C1348 1.403 . S
C1351 C1352 1.524 . S
C1351 C1355 1.400 . S
C1352 H1337 0.960 . S
C1352 H1338 0.960 . S
C1352 H1339 0.960 . S
C1352 C1351 1.524 . S
C1353 C1350 1.403 . S
C1353 C1354 1.392 . S
C1353 C1357 1.495 . S
C1354 C1353 1.392 . S
C1354 C1355 1.385 . S
C1354 C1356 1.478 1_455 S
C1355 H1349 0.930 . S
C1355 C1351 1.400 . S
C1355 C1354 1.385 . S
C1356 C1354 1.478 1_655 S
C1356 C1358 1.381 . S
C1356 C1362 1.383 . S
C1357 C1353 1.495 . S
C1357 H1363 0.959 . S
C1357 H1364 0.961 . S
C1357 H1365 0.960 1_455 S
C1358 C1356 1.381 . S
C1358 C1359 1.394 . S
C1358 H1366 0.930 . S
C1359 C1358 1.394 . S
C1359 C1360 1.383 . S
C1359 H1367 0.929 . S
C1360 C1359 1.383 . S
C1360 C1361 1.377 . S
C1361 H1345 0.930 . S
C1361 C1360 1.377 . S
C1361 C1362 1.379 . S
C1362 H1346 0.931 1_655 S
C1362 C1356 1.383 . S
C1362 C1361 1.379 . S
H1363 C1357 0.959 . S
H1364 C1357 0.961 . S
H1365 C1357 0.960 1_655 S
H1366 C1358 0.930 . S
H1367 C1359 0.929 . S
H1368 C1376 0.929 . S
H1369 C1378 0.930 . S
H1370 C1380 0.930 . S
H1371 C1383 0.929 . S
H1372 C1386 0.930 . S
H1373 C1388 0.960 . S
H1374 C1388 0.960 . S
H1375 C1388 0.960 . S
C1376 H1368 0.929 . S
C1376 C1377 1.377 . S
C1376 C1378 1.384 . S
C1377 C1376 1.377 . S
C1377 C1383 1.390 . S
C1378 H1369 0.930 . S
C1378 C1376 1.384 . S
C1378 C1379 1.372 . S
C1379 C1378 1.372 . S
C1379 C1380 1.400 . S
C1379 C1384 1.490 . S
C1380 H1370 0.930 . S
C1380 C1379 1.400 . S
C1380 C1383 1.386 . S
H1381 C1397 0.930 . S
H1382 C1398 0.931 . S
C1383 H1371 0.929 . S
C1383 C1377 1.390 . S
C1383 C1380 1.386 . S
C1384 C1379 1.490 . S
C1384 C1386 1.395 . S
C1384 C1387 1.403 . S
H1385 C1391 0.930 . S
C1386 H1372 0.930 . S
C1386 C1384 1.395 . S
C1386 C1389 1.403 . S
C1387 C1384 1.403 . S
C1387 C1388 1.524 . S
C1387 C1391 1.400 . S
C1388 H1373 0.960 . S
C1388 H1374 0.960 . S
C1388 H1375 0.960 . S
C1388 C1387 1.524 . S
C1389 C1386 1.403 . S
C1389 C1390 1.392 . S
C1389 C1393 1.495 . S
C1390 C1389 1.392 . S
C1390 C1391 1.385 . S
C1390 C1392 1.478 . S
C1391 H1385 0.930 . S
C1391 C1387 1.400 . S
C1391 C1390 1.385 . S
C1392 C1390 1.478 . S
C1392 C1394 1.381 . S
C1392 C1398 1.383 . S
C1393 C1389 1.495 . S
C1393 H1399 0.959 . S
C1393 H1400 0.961 . S
C1393 H1401 0.960 . S
C1394 C1392 1.381 . S
C1394 C1395 1.394 . S
C1394 H1402 0.930 . S
C1395 C1394 1.394 . S
C1395 C1396 1.383 . S
C1395 H1403 0.929 . S
C1396 C1395 1.383 . S
C1396 C1397 1.377 . S
C1397 H1381 0.930 . S
C1397 C1396 1.377 . S
C1397 C1398 1.379 . S
C1398 H1382 0.931 . S
C1398 C1392 1.383 . S
C1398 C1397 1.379 . S
H1399 C1393 0.959 . S
H1400 C1393 0.961 . S
H1401 C1393 0.960 . S
H1402 C1394 0.930 . S
H1403 C1395 0.929 . S
H1404 C1412 0.929 . S
H1405 C1414 0.930 . S
H1406 C1416 0.930 . S
H1407 C1419 0.929 . S
H1408 C1422 0.930 . S
H1409 C1424 0.960 . S
H1410 C1424 0.960 . S
H1411 C1424 0.960 . S
C1412 H1404 0.929 . S
C1412 C1413 1.377 . S
C1412 C1414 1.384 . S
C1413 C1412 1.377 . S
C1413 C1419 1.390 . S
C1414 H1405 0.930 . S
C1414 C1412 1.384 . S
C1414 C1415 1.372 . S
C1415 C1414 1.372 . S
C1415 C1416 1.400 . S
C1415 C1420 1.490 . S
C1416 H1406 0.930 . S
C1416 C1415 1.400 . S
C1416 C1419 1.386 . S
H1417 C1433 0.930 . S
H1418 C1434 0.931 . S
C1419 H1407 0.929 . S
C1419 C1413 1.390 . S
C1419 C1416 1.386 . S
C1420 C1415 1.490 . S
C1420 C1422 1.395 . S
C1420 C1423 1.403 . S
H1421 C1427 0.930 . S
C1422 H1408 0.930 . S
C1422 C1420 1.395 . S
C1422 C1425 1.403 . S
C1423 C1420 1.403 . S
C1423 C1424 1.524 . S
C1423 C1427 1.400 . S
C1424 H1409 0.960 . S
C1424 H1410 0.960 . S
C1424 H1411 0.960 . S
C1424 C1423 1.524 . S
C1425 C1422 1.403 . S
C1425 C1426 1.392 . S
C1425 C1429 1.495 . S
C1426 C1425 1.392 . S
C1426 C1427 1.385 . S
C1426 C1428 1.478 . S
C1427 H1421 0.930 . S
C1427 C1423 1.400 . S
C1427 C1426 1.385 . S
C1428 C1426 1.478 . S
C1428 C1430 1.381 . S
C1428 C1434 1.383 . S
C1429 C1425 1.495 . S
C1429 H1435 0.959 . S
C1429 H1436 0.961 . S
C1429 H1437 0.960 . S
C1430 C1428 1.381 . S
C1430 C1431 1.394 . S
C1430 H1438 0.930 . S
C1431 C1430 1.394 . S
C1431 C1432 1.383 . S
C1431 H1439 0.929 . S
C1432 C1431 1.383 . S
C1432 C1433 1.377 . S
C1433 H1417 0.930 . S
C1433 C1432 1.377 . S
C1433 C1434 1.379 . S
C1434 H1418 0.931 . S
C1434 C1428 1.383 . S
C1434 C1433 1.379 . S
H1435 C1429 0.959 . S
H1436 C1429 0.961 . S
H1437 C1429 0.960 . S
H1438 C1430 0.930 . S
H1439 C1431 0.929 . S
H1440 C1448 0.929 . S
H1441 C1450 0.930 . S
H1442 C1452 0.930 . S
H1443 C1455 0.929 . S
H1444 C1458 0.930 . S
H1445 C1460 0.960 . S
H1446 C1460 0.960 . S
H1447 C1460 0.960 . S
C1448 H1440 0.929 . S
C1448 C1449 1.377 . S
C1448 C1450 1.384 . S
C1449 C1448 1.377 . S
C1449 C1455 1.390 . S
C1450 H1441 0.930 . S
C1450 C1448 1.384 . S
C1450 C1451 1.372 . S
C1451 C1450 1.372 . S
C1451 C1452 1.400 . S
C1451 C1456 1.490 . S
C1452 H1442 0.930 . S
C1452 C1451 1.400 . S
C1452 C1455 1.386 . S
H1453 C1469 0.930 . S
H1454 C1470 0.931 . S
C1455 H1443 0.929 . S
C1455 C1449 1.390 . S
C1455 C1452 1.386 . S
C1456 C1451 1.490 . S
C1456 C1458 1.395 . S
C1456 C1459 1.403 . S
H1457 C1463 0.930 . S
C1458 H1444 0.930 . S
C1458 C1456 1.395 . S
C1458 C1461 1.403 . S
C1459 C1456 1.403 . S
C1459 C1460 1.524 . S
C1459 C1463 1.400 . S
C1460 H1445 0.960 . S
C1460 H1446 0.960 . S
C1460 H1447 0.960 . S
C1460 C1459 1.524 . S
C1461 C1458 1.403 . S
C1461 C1462 1.392 . S
C1461 C1465 1.495 . S
C1462 C1461 1.392 . S
C1462 C1463 1.385 . S
C1462 C1464 1.478 . S
C1463 H1457 0.930 . S
C1463 C1459 1.400 . S
C1463 C1462 1.385 . S
C1464 C1462 1.478 . S
C1464 C1466 1.381 . S
C1464 C1470 1.383 . S
C1465 C1461 1.495 . S
C1465 H1471 0.959 . S
C1465 H1472 0.961 . S
C1465 H1473 0.960 . S
C1466 C1464 1.381 . S
C1466 C1467 1.394 . S
C1466 H1474 0.930 . S
C1467 C1466 1.394 . S
C1467 C1468 1.383 . S
C1467 H1475 0.929 . S
C1468 C1467 1.383 . S
C1468 C1469 1.377 . S
C1469 H1453 0.930 . S
C1469 C1468 1.377 . S
C1469 C1470 1.379 . S
C1470 H1454 0.931 . S
C1470 C1464 1.383 . S
C1470 C1469 1.379 . S
H1471 C1465 0.959 . S
H1472 C1465 0.961 . S
H1473 C1465 0.960 . S
H1474 C1466 0.930 . S
H1475 C1467 0.929 . S
H1476 C1484 0.929 . S
H1477 C1486 0.930 . S
H1478 C1488 0.930 . S
H1479 C1491 0.929 . S
H1480 C1494 0.930 . S
H1481 C1496 0.960 . S
H1482 C1496 0.960 . S
H1483 C1496 0.960 . S
C1484 H1476 0.929 . S
C1484 C1485 1.377 . S
C1484 C1486 1.384 . S
C1485 C1484 1.377 . S
C1485 C1491 1.390 . S
C1486 H1477 0.930 . S
C1486 C1484 1.384 . S
C1486 C1487 1.372 . S
C1487 C1486 1.372 . S
C1487 C1488 1.400 . S
C1487 C1492 1.490 . S
C1488 H1478 0.930 . S
C1488 C1487 1.400 . S
C1488 C1491 1.386 . S
H1489 C1505 0.930 . S
H1490 C1506 0.931 . S
C1491 H1479 0.929 . S
C1491 C1485 1.390 . S
C1491 C1488 1.386 . S
C1492 C1487 1.490 . S
C1492 C1494 1.395 . S
C1492 C1495 1.403 . S
H1493 C1499 0.930 . S
C1494 H1480 0.930 . S
C1494 C1492 1.395 . S
C1494 C1497 1.403 . S
C1495 C1492 1.403 . S
C1495 C1496 1.524 . S
C1495 C1499 1.400 . S
C1496 H1481 0.960 . S
C1496 H1482 0.960 . S
C1496 H1483 0.960 . S
C1496 C1495 1.524 . S
C1497 C1494 1.403 . S
C1497 C1498 1.392 . S
C1497 C1501 1.495 . S
C1498 C1497 1.392 . S
C1498 C1499 1.385 . S
C1498 C1500 1.478 . S
C1499 H1493 0.930 . S
C1499 C1495 1.400 . S
C1499 C1498 1.385 . S
C1500 C1498 1.478 . S
C1500 C1502 1.381 . S
C1500 C1506 1.383 . S
C1501 C1497 1.495 . S
C1501 H1507 0.959 . S
C1501 H1508 0.961 . S
C1501 H1509 0.960 . S
C1502 C1500 1.381 . S
C1502 C1503 1.394 1_565 S
C1502 H1510 0.930 . S
C1503 C1502 1.394 1_545 S
C1503 C1504 1.383 1_545 S
C1503 H1511 0.929 . S
C1504 C1503 1.383 1_565 S
C1504 C1505 1.377 . S
C1505 H1489 0.930 . S
C1505 C1504 1.377 . S
C1505 C1506 1.379 . S
C1506 H1490 0.931 . S
C1506 C1500 1.383 . S
C1506 C1505 1.379 . S
H1507 C1501 0.959 . S
H1508 C1501 0.961 . S
H1509 C1501 0.960 . S
H1510 C1502 0.930 . S
H1511 C1503 0.929 . S
H1512 C1520 0.965 . S
H1513 C1522 0.930 . S
H1514 C1524 0.930 . S
H1515 C1527 0.929 . S
H1516 C1530 0.930 . S
H1517 C1532 0.960 . S
H1518 C1532 0.960 . S
H1519 C1532 0.960 . S
C1520 H1512 0.965 . S
C1520 C1521 1.366 1_565 S
C1520 C1522 1.361 1_565 S
C1521 C1520 1.366 1_545 S
C1521 C1527 1.390 . S
C1522 H1513 0.930 . S
C1522 C1520 1.361 1_545 S
C1522 C1523 1.372 . S
C1523 C1522 1.372 . S
C1523 C1524 1.400 . S
C1523 C1528 1.490 . S
C1524 H1514 0.930 . S
C1524 C1523 1.400 . S
C1524 C1527 1.386 . S
H1525 C1541 0.930 . S
H1526 C1542 0.931 . S
C1527 H1515 0.929 . S
C1527 C1521 1.390 . S
C1527 C1524 1.386 . S
C1528 C1523 1.490 . S
C1528 C1530 1.395 . S
C1528 C1531 1.403 . S
H1529 C1535 0.930 . S
C1530 H1516 0.930 . S
C1530 C1528 1.395 . S
C1530 C1533 1.403 . S
C1531 C1528 1.403 . S
C1531 C1532 1.524 . S
C1531 C1535 1.400 . S
C1532 H1517 0.960 . S
C1532 H1518 0.960 . S
C1532 H1519 0.960 . S
C1532 C1531 1.524 . S
C1533 C1530 1.403 . S
C1533 C1534 1.392 . S
C1533 C1537 1.495 1_655 S
C1534 C1533 1.392 . S
C1534 C1535 1.385 . S
C1534 C1536 1.478 1_655 S
C1535 H1529 0.930 . S
C1535 C1531 1.400 . S
C1535 C1534 1.385 . S
C1536 C1534 1.478 1_455 S
C1536 C1538 1.381 . S
C1536 C1542 1.383 . S
C1537 C1533 1.495 1_455 S
C1537 H1543 0.959 . S
C1537 H1544 0.961 . S
C1537 H1545 0.960 . S
C1538 C1536 1.381 . S
C1538 C1539 1.394 . S
C1538 H1546 0.930 . S
C1539 C1538 1.394 . S
C1539 C1540 1.383 . S
C1539 H1547 0.929 . S
C1540 C1539 1.383 . S
C1540 C1541 1.377 . S
C1541 H1525 0.930 . S
C1541 C1540 1.377 . S
C1541 C1542 1.379 . S
C1542 H1526 0.931 . S
C1542 C1536 1.383 . S
C1542 C1541 1.379 . S
H1543 C1537 0.959 . S
H1544 C1537 0.961 . S
H1545 C1537 0.960 . S
H1546 C1538 0.930 . S
H1547 C1539 0.929 . S
C261 C15 1.286 . S
C280 C249 1.287 . S
C297 C207 1.287 . S
C316 C36 1.277 1_655 S
C333 C60 1.287 . S
C352 C183 1.273 . S
C369 C81 1.286 . S
C388 C228 1.289 . S
C405 C102 1.286 . S
C424 C225 1.273 1_545 S
C441 C123 1.286 1_455 S
C460 C246 1.288 . S
C477 C204 1.287 1_565 S
C496 C141 1.282 . S
C513 C162 1.286 . S
C532 C186 1.289 . S
C549 C78 1.287 . S
C568 C99 1.273 . S
C585 C18 1.284 . S
C604 C120 1.280 . S
C621 C39 1.284 . S
C640 C144 1.292 1_556 S
C657 C165 1.287 . S
C676 C57 1.283 1_554 S
C693 C13 1.065 . S
C712 C182 1.088 . S
C729 C34 1.057 1_655 S
C748 C227 1.086 . S
C765 C248 1.118 . S
C784 C58 1.109 . S
C801 C79 1.077 . S
C820 C206 1.128 . S
C837 C100 1.075 . S
C856 C203 1.144 . S
C873 C185 1.111 . S
C892 C121 1.015 1_455 S
C909 C224 1.120 . S
C928 C139 1.114 . S
C945 C245 1.111 . S
C964 C160 1.060 . S
C981 C17 1.110 . S
C1000 C76 1.037 . S
C1017 C16 1.061 . S
C1036 C38 1.083 . S
C1053 C37 1.062 . S
C1072 C56 1.124 . S
C1089 C77 1.116 . S
C1108 C55 1.097 1_554 S
C1125 C118 1.066 . S
C1144 C98 1.135 . S
C1161 C119 1.121 . S
C1180 C142 1.114 1_556 S
C1197 C143 1.123 . S
C1216 C163 1.100 . S
C1233 C97 1.067 . S
C1252 C164 1.137 . S
C1269 C184 1.057 . S
C1288 C80 1.086 . S
C1305 C122 1.111 . S
C1324 C205 1.062 . S
C1341 C181 1.071 . S
C1360 C140 1.103 . S
C1377 C226 1.077 . S
C1396 C161 1.141 . S
C1413 C101 1.111 . S
C1432 C247 1.058 . S
C1449 C244 1.062 . S
C1468 C35 1.084 . S
C1485 C59 1.120 . S
C1504 C202 1.114 1_565 S
C1521 C223 1.077 1_545 S
C1540 C14 1.136 . S
