# Generated by pormake.
# Topology wjx, (5)-cn, num edge types: 1
# Building blocks:
#     Node 0, Type 0, BuildingBlock: XOMCOT_clean_sbu_0, # of connection points: 5
#     Node 1, Type 0, BuildingBlock: XOMCOT_clean_sbu_0, # of connection points: 5
#     Node 2, Type 0, BuildingBlock: XOMCOT_clean_sbu_0, # of connection points: 5
#     Node 3, Type 0, BuildingBlock: XOMCOT_clean_sbu_0, # of connection points: 5
#     Node 4, Type 0, BuildingBlock: XOMCOT_clean_sbu_0, # of connection points: 5
#     Node 5, Type 0, BuildingBlock: XOMCOT_clean_sbu_0, # of connection points: 5
#     Node 6, Type 0, BuildingBlock: XOMCOT_clean_sbu_0, # of connection points: 5
#     Node 7, Type 0, BuildingBlock: XOMCOT_clean_sbu_0, # of connection points: 5
#     Node 8, Type 0, BuildingBlock: XOMCOT_clean_sbu_0, # of connection points: 5
#     Node 9, Type 0, BuildingBlock: XOMCOT_clean_sbu_0, # of connection points: 5
#     Node 10, Type 0, BuildingBlock: XOMCOT_clean_sbu_0, # of connection points: 5
#     Node 11, Type 0, BuildingBlock: XOMCOT_clean_sbu_0, # of connection points: 5
#     Edge 12, Type (0, 0), BuildingBlock: CIFDUS_clean_linker_0, # of connection points: 2
#     Edge 13, Type (0, 0), BuildingBlock: CIFDUS_clean_linker_0, # of connection points: 2
#     Edge 14, Type (0, 0), BuildingBlock: CIFDUS_clean_linker_0, # of connection points: 2
#     Edge 15, Type (0, 0), BuildingBlock: CIFDUS_clean_linker_0, # of connection points: 2
#     Edge 16, Type (0, 0), BuildingBlock: CIFDUS_clean_linker_0, # of connection points: 2
#     Edge 17, Type (0, 0), BuildingBlock: CIFDUS_clean_linker_0, # of connection points: 2
#     Edge 18, Type (0, 0), BuildingBlock: CIFDUS_clean_linker_0, # of connection points: 2
#     Edge 19, Type (0, 0), BuildingBlock: CIFDUS_clean_linker_0, # of connection points: 2
#     Edge 20, Type (0, 0), BuildingBlock: CIFDUS_clean_linker_0, # of connection points: 2
#     Edge 21, Type (0, 0), BuildingBlock: CIFDUS_clean_linker_0, # of connection points: 2
#     Edge 22, Type (0, 0), BuildingBlock: CIFDUS_clean_linker_0, # of connection points: 2
#     Edge 23, Type (0, 0), BuildingBlock: CIFDUS_clean_linker_0, # of connection points: 2
#     Edge 24, Type (0, 0), BuildingBlock: CIFDUS_clean_linker_0, # of connection points: 2
#     Edge 25, Type (0, 0), BuildingBlock: CIFDUS_clean_linker_0, # of connection points: 2
#     Edge 26, Type (0, 0), BuildingBlock: CIFDUS_clean_linker_0, # of connection points: 2
#     Edge 27, Type (0, 0), BuildingBlock: CIFDUS_clean_linker_0, # of connection points: 2
#     Edge 28, Type (0, 0), BuildingBlock: CIFDUS_clean_linker_0, # of connection points: 2
#     Edge 29, Type (0, 0), BuildingBlock: CIFDUS_clean_linker_0, # of connection points: 2
#     Edge 30, Type (0, 0), BuildingBlock: CIFDUS_clean_linker_0, # of connection points: 2
#     Edge 31, Type (0, 0), BuildingBlock: CIFDUS_clean_linker_0, # of connection points: 2
#     Edge 32, Type (0, 0), BuildingBlock: CIFDUS_clean_linker_0, # of connection points: 2
#     Edge 33, Type (0, 0), BuildingBlock: CIFDUS_clean_linker_0, # of connection points: 2
#     Edge 34, Type (0, 0), BuildingBlock: CIFDUS_clean_linker_0, # of connection points: 2
#     Edge 35, Type (0, 0), BuildingBlock: CIFDUS_clean_linker_0, # of connection points: 2
#     Edge 36, Type (0, 0), BuildingBlock: CIFDUS_clean_linker_0, # of connection points: 2
#     Edge 37, Type (0, 0), BuildingBlock: CIFDUS_clean_linker_0, # of connection points: 2
#     Edge 38, Type (0, 0), BuildingBlock: CIFDUS_clean_linker_0, # of connection points: 2
#     Edge 39, Type (0, 0), BuildingBlock: CIFDUS_clean_linker_0, # of connection points: 2
#     Edge 40, Type (0, 0), BuildingBlock: CIFDUS_clean_linker_0, # of connection points: 2
#     Edge 41, Type (0, 0), BuildingBlock: CIFDUS_clean_linker_0, # of connection points: 2
# Relax obj value: 0.152
# Max RMSD: 0.140
# Mean RMSD: 0.140
data_MOF--net-wjx--node1-XOMCOT_clean_sbu_0--edge1-CIFDUS_clean_linker_0
_symmetry_space_group_name_H-M    P1
_symmetry_Int_Tables_number       1
_symmetry_cell_setting            triclinic
loop_
_symmetry_equiv_pos_as_xyz
'x, y, z'
_cell_length_a     63.387349
_cell_length_b     63.309217
_cell_length_c     15.865353
_cell_angle_alpha  89.807587
_cell_angle_beta   90.110443
_cell_angle_gamma 120.0738
loop_
_atom_site_label
_atom_site_type_symbol
_atom_site_fract_x
_atom_site_fract_y
_atom_site_fract_z
_atom_type_partial_charge
Co0 Co 0.12101 0.4309 0.18321 0.0
C1 C 0.12277 0.42912 0.37714 0.0
C2 C 0.12965 0.40332 0.31416 0.0
C3 C 0.13135 0.40081 0.39977 0.0
N4 N 0.1247 0.42137 0.29881 0.0
N5 N 0.12704 0.41702 0.43976 0.0
H6 H 0.11869 0.44336 0.38967 0.0
H7 H 0.13212 0.39276 0.26577 0.0
C8 C 0.17238 0.44313 0.19541 0.0
O9 O 0.1719 0.453 0.26759 0.0
N10 N 0.11673 0.43934 0.06809 0.0
C11 C 0.10819 0.45442 0.04909 0.0
C12 C 0.1061 0.45529 0.96317 0.0
C13 C 0.11955 0.43099 0.99237 0.0
N14 N 0.11301 0.44045 0.92668 0.0
C15 C 0.1258 0.47334 0.26438 0.0
C16 C 0.16682 0.50775 0.17962 0.0
C17 C 0.15567 0.51562 0.23806 0.0
C18 C 0.13488 0.49799 0.28038 0.0
C19 C 0.15728 0.48266 0.16646 0.0
N20 N 0.13746 0.46568 0.21108 0.0
H21 H 0.10854 0.46046 0.29212 0.0
H22 H 0.16524 0.477 0.11771 0.0
H23 H 0.10349 0.464 0.09489 0.0
H24 H 0.12554 0.4178 0.98573 0.0
O25 O 0.08845 0.4233 0.20981 0.0
O26 O 0.0977 0.39645 0.15949 0.0
O27 O 0.15306 0.43293 0.14978 0.0
C28 C 0.08097 0.40109 0.18635 0.0
H29 H 0.1352 0.38779 0.43028 0.0
H30 H 0.0999 0.46616 0.9302 0.0
H31 H 0.18244 0.52081 0.1434 0.0
H32 H 0.12488 0.50324 0.32259 0.0
Co33 Co 0.69303 0.11144 0.43667 0.0
C34 C 0.69292 0.10936 0.62111 0.0
C35 C 0.72937 0.13074 0.57338 0.0
C36 C 0.73038 0.12987 0.66014 0.0
N37 N 0.70586 0.11793 0.54951 0.0
N38 N 0.70742 0.11633 0.68985 0.0
H39 H 0.67324 0.09829 0.62256 0.0
H40 H 0.7447 0.13971 0.53078 0.0
C41 C 0.71851 0.15966 0.34881 0.0
O42 O 0.69681 0.15447 0.32188 0.0
N43 N 0.68057 0.10445 0.32171 0.0
C44 C 0.65752 0.0907 0.29308 0.0
C45 C 0.6579 0.09004 0.2064 0.0
C46 C 0.69461 0.11086 0.25181 0.0
N47 N 0.68126 0.10291 0.18055 0.0
C48 C 0.6474 0.10874 0.4716 0.0
C49 C 0.66546 0.15662 0.52039 0.0
C50 C 0.64019 0.14095 0.51647 0.0
C51 C 0.63124 0.11668 0.49327 0.0
C52 C 0.68109 0.14791 0.49693 0.0
N53 N 0.67193 0.12455 0.46788 0.0
H54 H 0.64002 0.08958 0.46029 0.0
H55 H 0.70053 0.15992 0.50294 0.0
H56 H 0.64137 0.08102 0.33096 0.0
H57 H 0.71432 0.12098 0.25325 0.0
O58 O 0.67139 0.07783 0.46792 0.0
O59 O 0.70842 0.09192 0.41533 0.0
O60 O 0.72053 0.14475 0.39846 0.0
C61 C 0.68832 0.07342 0.44367 0.0
H62 H 0.74677 0.13805 0.6981 0.0
H63 H 0.64213 0.08091 0.16572 0.0
H64 H 0.67299 0.17532 0.54109 0.0
H65 H 0.61181 0.1038 0.49331 0.0
Co66 Co 0.5714 0.68504 0.73819 0.0
C67 C 0.5689 0.68406 0.92308 0.0
C68 C 0.59189 0.72042 0.876 0.0
C69 C 0.59197 0.7212 0.96277 0.0
N70 N 0.57738 0.69715 0.85164 0.0
N71 N 0.5775 0.69831 0.99219 0.0
H72 H 0.55717 0.66444 0.92423 0.0
H73 H 0.6019 0.73569 0.83371 0.0
C74 C 0.55841 0.71865 0.64543 0.0
O75 O 0.54089 0.69939 0.60746 0.0
N76 N 0.56605 0.67302 0.62306 0.0
C77 C 0.55335 0.6497 0.59606 0.0
C78 C 0.55506 0.64939 0.50988 0.0
C79 C 0.57628 0.68639 0.55283 0.0
N80 N 0.56931 0.67249 0.48267 0.0
C81 C 0.52518 0.64272 0.77072 0.0
C82 C 0.49737 0.66487 0.78652 0.0
C83 C 0.48588 0.63934 0.78776 0.0
C84 C 0.50018 0.62839 0.7823 0.0
C85 C 0.52283 0.67871 0.77554 0.0
N86 N 0.5362 0.66748 0.76142 0.0
H87 H 0.53555 0.63352 0.76912 0.0
H88 H 0.53157 0.69833 0.77875 0.0
H89 H 0.54402 0.63371 0.63517 0.0
H90 H 0.58817 0.70599 0.55302 0.0
O91 O 0.57793 0.65956 0.77058 0.0
O92 O 0.60615 0.69589 0.72499 0.0
O93 O 0.5718 0.716 0.70021 0.0
C94 C 0.60051 0.67412 0.75092 0.0
H95 H 0.60181 0.7374 1.00105 0.0
H96 H 0.54679 0.6333 0.47045 0.0
H97 H 0.48687 0.67395 0.79409 0.0
H98 H 0.49199 0.60872 0.7862 0.0
Co99 Co 0.89876 0.57782 0.12432 0.0
C100 C 0.90046 0.57898 0.31188 0.0
C101 C 0.88741 0.60169 0.26149 0.0
C102 C 0.88905 0.60438 0.34781 0.0
N103 N 0.89386 0.58515 0.23903 0.0
N104 N 0.89737 0.59012 0.37911 0.0
H105 H 0.90838 0.56749 0.31641 0.0
H106 H 0.88268 0.61182 0.21787 0.0
C107 C 0.84889 0.5731 0.11481 0.0
O108 O 0.84309 0.56176 0.18787 0.0
N109 N 0.90409 0.57153 1.0101 0.0
C110 C 0.91224 0.55675 0.9833 0.0
C111 C 0.91263 0.55715 0.89641 0.0
C112 C 0.89982 0.58084 0.94007 0.0
N113 N 0.90471 0.57225 0.86954 0.0
C114 C 0.88771 0.53151 0.19275 0.0
C115 C 0.8479 0.50277 0.09244 0.0
C116 C 0.85702 0.49145 0.14569 0.0
C117 C 0.87688 0.50623 0.19732 0.0
C118 C 0.85899 0.52834 0.09137 0.0
N119 N 0.8786 0.54252 0.14194 0.0
H120 H 0.90478 0.54203 0.22476 0.0
H121 H 0.85285 0.53662 0.04516 0.0
H122 H 0.91717 0.54616 0.02399 0.0
H123 H 0.89336 0.59375 0.94085 0.0
O124 O 0.92967 0.58135 0.15551 0.0
O125 O 0.92468 0.61181 0.11157 0.0
O126 O 0.87002 0.58068 0.08304 0.0
C127 C 0.93941 0.60429 0.13665 0.0
H128 H 0.88543 0.61665 0.38421 0.0
H129 H 0.91774 0.54666 0.85625 0.0
H130 H 0.83303 0.49204 0.04952 0.0
H131 H 0.88536 0.49843 0.23609 0.0
Co132 Co 0.31755 0.89971 0.48763 0.0
C133 C 0.31769 0.89752 0.67602 0.0
C134 C 0.28219 0.88561 0.62539 0.0
C135 C 0.28048 0.8842 0.71201 0.0
N136 N 0.30549 0.8935 0.60269 0.0
N137 N 0.30287 0.89161 0.74348 0.0
H138 H 0.33707 0.90557 0.68155 0.0
H139 H 0.26743 0.88119 0.58174 0.0
C140 C 0.27886 0.84725 0.48831 0.0
O141 O 0.28919 0.84514 0.55728 0.0
N142 N 0.32886 0.90617 0.37316 0.0
C143 C 0.35213 0.91707 0.34638 0.0
C144 C 0.35218 0.91815 0.25973 0.0
C145 C 0.31509 0.90105 0.30337 0.0
N146 N 0.32888 0.90808 0.23304 0.0
C147 C 0.35805 0.89666 0.55271 0.0
C148 C 0.35256 0.85838 0.45419 0.0
C149 C 0.37363 0.87096 0.50375 0.0
C150 C 0.37564 0.88971 0.55574 0.0
C151 C 0.33486 0.86554 0.45491 0.0
N152 N 0.33751 0.88436 0.5048 0.0
H153 H 0.36227 0.91338 0.58382 0.0
H154 H 0.32007 0.85713 0.41022 0.0
H155 H 0.36791 0.92375 0.387 0.0
H156 H 0.29539 0.89207 0.3041 0.0
O157 O 0.34179 0.93257 0.51709 0.0
O158 O 0.30451 0.92166 0.47327 0.0
O159 O 0.28805 0.86792 0.45074 0.0
C160 C 0.32592 0.93895 0.4975 0.0
H161 H 0.26404 0.87808 0.74871 0.0
H162 H 0.36812 0.92598 0.21956 0.0
H163 H 0.35053 0.84427 0.41099 0.0
H164 H 0.39155 0.90012 0.59498 0.0
Co165 Co 0.44153 0.32417 0.85435 0.0
C166 C 0.44121 0.32097 0.0472 0.0
C167 C 0.42532 0.28612 0.98732 0.0
C168 C 0.42377 0.28263 0.07317 0.0
N169 N 0.43718 0.31023 0.96958 0.0
N170 N 0.4339 0.30451 0.11162 0.0
H171 H 0.4486 0.34029 0.05699 0.0
H172 H 0.4172 0.27167 0.94133 0.0
C173 C 0.45001 0.28274 0.81891 0.0
O174 O 0.46715 0.292 0.87667 0.0
N175 N 0.44473 0.33762 0.74003 0.0
C176 C 0.45607 0.3616 0.72125 0.0
C177 C 0.45586 0.36445 0.63527 0.0
C178 C 0.43785 0.32615 0.66398 0.0
N179 N 0.44443 0.34224 0.59856 0.0
C180 C 0.48954 0.35473 0.92212 0.0
C181 C 0.51429 0.35554 0.77797 0.0
C182 C 0.52679 0.37275 0.84123 0.0
C183 C 0.51445 0.3714 0.91568 0.0
C184 C 0.48946 0.33862 0.78802 0.0
N185 N 0.47706 0.33897 0.85813 0.0
H186 H 0.4801 0.3565 0.97503 0.0
H187 H 0.47981 0.32669 0.73593 0.0
H188 H 0.46451 0.37615 0.76695 0.0
H189 H 0.42832 0.30653 0.65656 0.0
O190 O 0.4401 0.35137 0.89963 0.0
O191 O 0.4077 0.31718 0.85773 0.0
O192 O 0.43715 0.29276 0.80329 0.0
C193 C 0.41667 0.33911 0.88902 0.0
H194 H 0.41493 0.26511 0.10481 0.0
H195 H 0.46417 0.38174 0.60215 0.0
H196 H 0.52318 0.35629 0.7189 0.0
H197 H 0.52334 0.38484 0.96494 0.0
Co198 Co 0.58396 0.89405 0.48488 0.0
C199 C 0.58781 0.89801 0.29637 0.0
C200 C 0.60357 0.87784 0.34831 0.0
C201 C 0.60673 0.87908 0.26224 0.0
N202 N 0.59106 0.88912 0.36971 0.0
N203 N 0.59684 0.89184 0.22998 0.0
H204 H 0.57957 0.90916 0.29033 0.0
H205 H 0.61026 0.86954 0.39256 0.0
C206 C 0.56324 0.8404 0.47205 0.0
O207 O 0.55264 0.84202 0.40296 0.0
N208 N 0.57804 0.89919 0.59971 0.0
C209 C 0.56826 0.91251 0.62704 0.0
C210 C 0.56864 0.91264 0.71379 0.0
C211 C 0.58438 0.89151 0.66939 0.0
N212 N 0.57881 0.89945 0.74021 0.0
C213 C 0.54489 0.89814 0.4121 0.0
C214 C 0.50765 0.86213 0.50683 0.0
C215 C 0.50297 0.87793 0.45856 0.0
C216 C 0.52172 0.89531 0.40796 0.0
C217 C 0.53122 0.86521 0.5076 0.0
N218 N 0.54966 0.88315 0.46048 0.0
H219 H 0.55935 0.91422 0.38326 0.0
H220 H 0.53501 0.85457 0.55195 0.0
H221 H 0.56152 0.92165 0.5867 0.0
H222 H 0.5935 0.88093 0.66803 0.0
O223 O 0.59689 0.92824 0.46207 0.0
O224 O 0.61899 0.91235 0.5077 0.0
O225 O 0.57655 0.85969 0.51518 0.0
C226 C 0.61794 0.93166 0.48532 0.0
H227 H 0.6161 0.87172 0.22648 0.0
H228 H 0.56184 0.92164 0.75417 0.0
H229 H 0.49386 0.84886 0.54866 0.0
H230 H 0.51906 0.90813 0.37041 0.0
Co231 Co 0.69593 0.58862 0.87689 0.0
C232 C 0.69989 0.59294 0.68461 0.0
C233 C 0.73455 0.60709 0.74462 0.0
C234 C 0.73814 0.61057 0.65888 0.0
N235 N 0.71044 0.59505 0.76187 0.0
N236 N 0.71633 0.60156 0.62041 0.0
H237 H 0.68075 0.58665 0.67529 0.0
H238 H 0.7489 0.61387 0.79119 0.0
C239 C 0.73664 0.57851 0.90603 0.0
O240 O 0.72917 0.5646 0.8387 0.0
N241 N 0.68196 0.58355 0.99092 0.0
C242 C 0.65796 0.57188 1.00848 0.0
C243 C 0.65481 0.57031 0.0946 0.0
C244 C 0.69313 0.58915 0.06779 0.0
N245 N 0.67686 0.58096 0.13273 0.0
C246 C 0.66682 0.54228 0.7938 0.0
C247 C 0.66433 0.5134 0.92817 0.0
C248 C 0.64969 0.50199 0.85696 0.0
C249 C 0.65243 0.51701 0.78755 0.0
C250 C 0.67983 0.5388 0.92956 0.0
N251 N 0.68042 0.55312 0.86379 0.0
H252 H 0.66566 0.55289 0.74354 0.0
H253 H 0.69027 0.54706 0.98602 0.0
H254 H 0.64362 0.56446 0.96171 0.0
H255 H 0.71268 0.59834 0.07612 0.0
O256 O 0.66983 0.59253 0.83318 0.0
O257 O 0.70455 0.6228 0.88281 0.0
O258 O 0.72605 0.5903 0.9285 0.0
C259 C 0.68319 0.61567 0.84923 0.0
H260 H 0.75565 0.61939 0.62752 0.0
H261 H 0.63739 0.56177 0.12655 0.0
H262 H 0.66318 0.50324 0.9845 0.0
H263 H 0.64278 0.50974 0.72903 0.0
Co264 Co 0.11908 0.68793 0.26903 0.0
C265 C 0.12167 0.68634 0.08413 0.0
C266 C 0.14196 0.72309 0.13002 0.0
C267 C 0.14278 0.72364 0.0432 0.0
N268 N 0.12877 0.6997 0.15532 0.0
N269 N 0.12988 0.7005 1.01435 0.0
H270 H 0.10992 0.66672 0.08372 0.0
H271 H 0.14992 0.73872 0.17151 0.0
C272 C 0.16554 0.71659 0.36407 0.0
O273 O 0.16131 0.69546 0.39435 0.0
N274 N 0.10855 0.67654 0.3846 0.0
C275 C 0.09034 0.65451 0.41049 0.0
C276 C 0.08817 0.65458 0.49672 0.0
C277 C 0.1157 0.69017 0.45564 0.0
N278 N 0.10426 0.67702 0.52494 0.0
C279 C 0.12163 0.64405 0.27112 0.0
C280 C 0.16877 0.6636 0.21203 0.0
C281 C 0.1554 0.63872 0.23218 0.0
C282 C 0.13154 0.62899 0.26126 0.0
C283 C 0.15822 0.67828 0.22476 0.0
N284 N 0.13516 0.66858 0.25719 0.0
H285 H 0.10269 0.63559 0.28659 0.0
H286 H 0.16853 0.69741 0.20808 0.0
H287 H 0.07839 0.63957 0.37007 0.0
H288 H 0.12884 0.70945 0.45717 0.0
O289 O 0.08777 0.66383 0.22759 0.0
O290 O 0.09667 0.7008 0.26842 0.0
O291 O 0.15019 0.7173 0.31303 0.0
C292 C 0.08061 0.67956 0.23794 0.0
H293 H 0.15197 0.73989 1.0046 0.0
H294 H 0.07523 0.63953 0.5354 0.0
H295 H 0.18708 0.67157 0.18697 0.0
H296 H 0.12028 0.60961 0.27367 0.0
Co297 Co 0.43387 0.11777 0.58424 0.0
C298 C 0.43624 0.11985 0.39639 0.0
C299 C 0.41662 0.1364 0.44587 0.0
C300 C 0.41645 0.13766 0.35907 0.0
N301 N 0.42953 0.12569 0.46936 0.0
N302 N 0.42896 0.12734 0.32834 0.0
H303 H 0.44516 0.10929 0.39173 0.0
H304 H 0.40775 0.1427 0.48895 0.0
C305 C 0.45199 0.17146 0.58991 0.0
O306 O 0.4648 0.17388 0.52189 0.0
N307 N 0.43743 0.10978 0.69839 0.0
C308 C 0.4483 0.09736 0.72508 0.0
C309 C 0.44723 0.09623 0.81182 0.0
C310 C 0.42965 0.11578 0.76835 0.0
N311 N 0.43551 0.10782 0.83875 0.0
C312 C 0.47529 0.11678 0.51769 0.0
C313 C 0.5114 0.15674 0.60148 0.0
C314 C 0.51806 0.14431 0.54401 0.0
C315 C 0.49957 0.12385 0.5033 0.0
C316 C 0.48659 0.1492 0.61295 0.0
N317 N 0.46886 0.13026 0.56717 0.0
H318 H 0.4617 0.0998 0.49061 0.0
H319 H 0.48175 0.15828 0.66012 0.0
H320 H 0.45652 0.08981 0.68441 0.0
H321 H 0.42033 0.12617 0.7677 0.0
O322 O 0.42218 0.08448 0.551 0.0
O323 O 0.39848 0.09844 0.59664 0.0
O324 O 0.43908 0.15049 0.62414 0.0
C325 C 0.40043 0.08013 0.56896 0.0
H326 H 0.40787 0.1456 0.32172 0.0
H327 H 0.45438 0.0874 0.85187 0.0
H328 H 0.52516 0.17205 0.63705 0.0
H329 H 0.50381 0.11282 0.4623 0.0
Co330 Co 0.32383 0.43075 0.9203 0.0
C331 C 0.32505 0.4309 0.73556 0.0
C332 C 0.28841 0.41067 0.78273 0.0
C333 C 0.28771 0.40895 0.69621 0.0
N334 N 0.3118 0.42449 0.80685 0.0
N335 N 0.31077 0.42159 0.66681 0.0
H336 H 0.34473 0.44186 0.73441 0.0
H337 H 0.27303 0.40181 0.82514 0.0
C338 C 0.29098 0.44484 1.00984 0.0
O339 O 0.31057 0.46252 0.04577 0.0
N340 N 0.33562 0.43622 0.0357 0.0
C341 C 0.35877 0.44859 0.06445 0.0
C342 C 0.35851 0.44711 0.15087 0.0
C343 C 0.32179 0.42638 0.10508 0.0
N344 N 0.3352 0.43331 0.17635 0.0
C345 C 0.36628 0.4772 0.89077 0.0
C346 C 0.34387 0.50464 0.86908 0.0
C347 C 0.36934 0.51649 0.87492 0.0
C348 C 0.38049 0.50239 0.88264 0.0
C349 C 0.33019 0.47907 0.87775 0.0
N350 N 0.34146 0.46591 0.89572 0.0
H351 H 0.37555 0.46691 0.89408 0.0
H352 H 0.31064 0.47008 0.87101 0.0
H353 H 0.375 0.45772 0.02663 0.0
H354 H 0.30223 0.41442 0.10331 0.0
O355 O 0.34921 0.42397 0.89004 0.0
O356 O 0.31273 0.39596 0.93503 0.0
O357 O 0.29305 0.43078 0.95678 0.0
C358 C 0.3345 0.40141 0.91028 0.0
H359 H 0.27155 0.39842 0.65827 0.0
H360 H 0.37427 0.45594 0.19169 0.0
H361 H 0.33468 0.51499 0.85953 0.0
H362 H 0.40019 0.51087 0.8835 0.0
Co363 Co 0.89573 0.32051 0.22077 0.0
C364 C 0.89308 0.32011 0.03233 0.0
C365 C 0.88788 0.28653 0.08373 0.0
C366 C 0.88636 0.28452 0.99723 0.0
N367 N 0.89174 0.30875 0.10584 0.0
N368 N 0.88952 0.30567 0.96528 0.0
H369 H 0.8973 0.3387 0.02642 0.0
H370 H 0.88616 0.27268 0.12776 0.0
C371 C 0.84532 0.27743 0.21598 0.0
O372 O 0.84244 0.28655 0.14521 0.0
N373 N 0.90001 0.33155 0.33534 0.0
C374 C 0.90753 0.35438 0.36242 0.0
C375 C 0.90826 0.35438 0.4491 0.0
C376 C 0.89661 0.31805 0.405 0.0
N377 N 0.90142 0.33155 0.47549 0.0
C378 C 0.88779 0.35806 0.15399 0.0
C379 C 0.8462 0.3466 0.24409 0.0
C380 C 0.85679 0.3677 0.19377 0.0
C381 C 0.87767 0.3731 0.14764 0.0
C382 C 0.85667 0.33163 0.24715 0.0
N383 N 0.87698 0.33705 0.20062 0.0
H384 H 0.90538 0.36446 0.12552 0.0
H385 H 0.84933 0.31667 0.29152 0.0
H386 H 0.91221 0.3699 0.322 0.0
H387 H 0.8905 0.29873 0.40404 0.0
O388 O 0.92752 0.34748 0.19445 0.0
O389 O 0.92076 0.31139 0.23797 0.0
O390 O 0.86562 0.28878 0.25557 0.0
C391 C 0.9364 0.33372 0.21567 0.0
H392 H 0.88293 0.26866 0.96096 0.0
H393 H 0.91376 0.37003 0.48953 0.0
H394 H 0.83053 0.34222 0.28321 0.0
H395 H 0.88725 0.38987 0.1116 0.0
H396 H 0.04749 0.40463 0.27819 0.0
H397 H 0.05504 0.35654 0.10499 0.0
H398 H 0.01046 0.32944 0.10424 0.0
H399 H 0.96879 0.3216 0.14476 0.0
H400 H 0.96338 0.37187 0.31388 0.0
H401 H 1.00758 0.39578 0.32498 0.0
C402 C 0.03949 0.38814 0.24046 0.0
C403 C 0.05456 0.38277 0.19094 0.0
C404 C 0.01411 0.37302 0.23974 0.0
C405 C 0.04384 0.36112 0.14359 0.0
C406 C 0.01834 0.34569 0.14296 0.0
C407 C 0.97743 0.33752 0.18511 0.0
C408 C 0.96295 0.34502 0.22872 0.0
C409 C 1.00319 0.3517 0.18966 0.0
C410 C 0.97422 0.36583 0.27987 0.0
C411 C 0.99948 0.37955 0.28606 0.0
H412 H 0.67373 0.04188 0.57444 0.0
H413 H 0.69098 0.0482 0.30994 0.0
H414 H 0.67338 1.00381 0.30063 0.0
H415 H 0.64726 0.96286 0.36426 0.0
H416 H 0.63165 0.95697 0.63003 0.0
H417 H 0.65483 1.00146 0.64339 0.0
C418 C 0.67427 0.03352 0.51548 0.0
C419 C 0.68354 0.0481 0.44291 0.0
C420 C 0.66432 0.00808 0.51102 0.0
C421 C 0.68413 0.03726 0.36666 0.0
C422 C 0.67389 0.01188 0.36127 0.0
C423 C 0.64989 0.97138 0.42553 0.0
C424 C 0.63817 0.95681 0.49641 0.0
C425 C 0.66318 0.99703 0.43246 0.0
C426 C 0.64103 0.96791 0.5752 0.0
C427 C 0.654 0.99334 0.58256 0.0
H428 H 0.64661 0.60708 0.74358 0.0
H429 H 0.69862 0.66183 0.91165 0.0
H430 H 0.67935 0.68681 0.88903 0.0
H431 H 0.64479 0.69093 0.83065 0.0
H432 H 0.5928 0.63453 0.66698 0.0
H433 H 0.61509 0.61254 0.67763 0.0
C434 C 0.65389 0.62457 0.77497 0.0
C435 C 0.67381 0.63244 0.83006 0.0
C436 C 0.64266 0.63857 0.76216 0.0
C437 C 0.68324 0.65532 0.86909 0.0
C438 C 0.67216 0.66955 0.85633 0.0
C439 C 0.63882 0.67415 0.79594 0.0
C440 C 0.61728 0.66434 0.74772 0.0
C441 C 0.6515 0.66113 0.80419 0.0
C442 C 0.60937 0.64238 0.70419 0.0
C443 C 0.62203 0.62974 0.71057 0.0
H444 H 0.05159 0.64434 0.13097 0.0
H445 H 0.0525 0.69871 0.29599 0.0
H446 H 0.00854 0.68189 0.27184 0.0
H447 H 0.96886 0.64846 0.21434 0.0
H448 H 0.96969 0.59359 0.05629 0.0
H449 H 0.01393 0.61392 0.06645 0.0
C450 C 0.04227 0.65272 0.1613 0.0
C451 C 0.05518 0.67253 0.21604 0.0
C452 C 0.01721 0.64273 0.14833 0.0
C453 C 0.04292 0.6834 0.2536 0.0
C454 C 0.01777 0.67368 0.24011 0.0
C455 C 0.97892 0.6414 0.18091 0.0
C456 C 0.96618 0.61961 0.13448 0.0
C457 C 1.00456 0.65292 0.18911 0.0
C458 C 0.97921 0.61032 0.09237 0.0
C459 C 1.00447 0.62189 0.09833 0.0
H460 H 0.39074 0.05055 0.43633 0.0
H461 H 0.36422 0.05373 0.68282 0.0
H462 H 0.33554 0.00951 0.67901 0.0
H463 H 0.32258 0.96914 0.61261 0.0
H464 H 0.34917 0.96706 0.3649 0.0
H465 H 0.37294 0.01161 0.36093 0.0
C466 C 0.37821 0.04159 0.48822 0.0
C467 C 0.37955 0.05516 0.55988 0.0
C468 C 0.36189 0.01635 0.48527 0.0
C469 C 0.3633 0.04356 0.6268 0.0
C470 C 0.34708 0.01828 0.62482 0.0
C471 C 0.3329 0.9786 0.55681 0.0
C472 C 0.33402 0.96505 0.48863 0.0
C473 C 0.34677 1.00434 0.55544 0.0
C474 C 0.34784 0.97728 0.41732 0.0
C475 C 0.36159 1.00271 0.4154 0.0
H476 H 0.37782 0.41077 0.96663 0.0
H477 H 0.31184 0.35345 0.85645 0.0
H478 H 0.33078 0.32776 0.84343 0.0
H479 H 0.36799 0.32341 0.85398 0.0
H480 H 0.43272 0.38176 0.96994 0.0
H481 H 0.41236 0.40499 0.99054 0.0
C482 C 0.36748 0.39253 0.94047 0.0
C483 C 0.34365 0.38404 0.91173 0.0
C484 C 0.37838 0.37807 0.93383 0.0
C485 C 0.33026 0.3603 0.87913 0.0
C486 C 0.34116 0.34572 0.8713 0.0
C487 C 0.37745 0.34105 0.88467 0.0
C488 C 0.40205 0.35089 0.90903 0.0
C489 C 0.36547 0.35462 0.897 0.0
C490 C 0.41396 0.37375 0.94928 0.0
C491 C 0.40233 0.38717 0.96131 0.0
H492 H 0.14054 0.42618 0.83665 0.0
H493 H 0.0832 0.44365 0.81089 0.0
H494 H 0.08321 0.43911 0.65907 0.0
H495 H 0.0994 0.43037 0.53085 0.0
H496 H 0.1556 0.4114 0.55461 0.0
H497 H 0.15594 0.41609 0.70759 0.0
C498 C 0.12791 0.42878 0.79799 0.0
C499 C 0.1122 0.4357 0.83646 0.0
C500 C 0.12778 0.42591 0.70917 0.0
C501 C 0.096 0.43896 0.78418 0.0
C502 C 0.09585 0.43622 0.69665 0.0
C503 C 0.11184 0.42744 0.56939 0.0
C504 C 0.12746 0.42055 0.53051 0.0
C505 C 0.11178 0.42992 0.65807 0.0
C506 C 0.1432 0.41649 0.58229 0.0
C507 C 0.14346 0.41924 0.67016 0.0
H508 H 0.73055 0.14247 0.8281 0.0
H509 H 0.66721 0.07585 0.74686 0.0
H510 H 0.65367 0.06556 0.89257 0.0
H511 H 0.65963 0.07556 0.04306 0.0
H512 H 0.72268 0.14238 0.12463 0.0
H513 H 0.73686 0.15215 0.97926 0.0
C514 C 0.71392 0.12559 0.84233 0.0
C515 C 0.69987 0.11006 0.7764 0.0
C516 C 0.70625 0.11972 0.92648 0.0
C517 C 0.67818 0.08837 0.79604 0.0
C518 C 0.67049 0.08238 0.8795 0.0
C519 C 0.6764 0.09231 0.02908 0.0
C520 C 0.69004 0.10815 0.0949 0.0
C521 C 0.6843 0.09798 0.94517 0.0
C522 C 0.71197 0.12963 0.07556 0.0
C523 C 0.72001 0.13535 0.99225 0.0
H524 H 0.54088 0.65084 0.34811 0.0
H525 H 0.60958 0.71256 0.42291 0.0
H526 H 0.61818 0.72637 0.27631 0.0
H527 H 0.60633 0.72039 0.12675 0.0
H528 H 0.53729 0.65871 0.05358 0.0
H529 H 0.52894 0.64504 0.19971 0.0
C530 C 0.55788 0.66714 0.33233 0.0
C531 C 0.57463 0.68055 0.39634 0.0
C532 C 0.56268 0.67491 0.24819 0.0
C533 C 0.59631 0.702 0.37495 0.0
C534 C 0.60127 0.70983 0.29111 0.0
C535 C 0.58936 0.7041 0.14279 0.0
C536 C 0.57252 0.69057 0.07898 0.0
C537 C 0.58457 0.69642 0.22722 0.0
C538 C 0.55076 0.66928 0.10099 0.0
C539 C 0.54588 0.66152 0.1847 0.0
H540 H 0.92947 0.57159 0.73286 0.0
H541 H 0.8718 0.58434 0.81278 0.0
H542 H 0.86514 0.59219 0.66739 0.0
H543 H 0.87466 0.59388 0.51646 0.0
H544 H 0.93223 0.58095 0.43687 0.0
H545 H 0.9397 0.57435 0.58272 0.0
C546 C 0.91536 0.57594 0.7184 0.0
C547 C 0.90116 0.57733 0.78372 0.0
C548 C 0.91151 0.58028 0.63452 0.0
C549 C 0.8832 0.58342 0.764 0.0
C550 C 0.87927 0.58778 0.68071 0.0
C551 C 0.88901 0.58991 0.53123 0.0
C552 C 0.90268 0.58769 0.46575 0.0
C553 C 0.89324 0.58614 0.61539 0.0
C554 C 0.92109 0.58229 0.4858 0.0
C555 C 0.92549 0.57864 0.5693 0.0
H556 H 0.34967 0.90028 0.09895 0.0
H557 H 0.28903 0.90866 0.17475 0.0
H558 H 0.27497 0.90363 0.02856 0.0
H559 H 0.28074 0.89798 0.87855 0.0
H560 H 0.34111 0.88865 0.80506 0.0
H561 H 0.35471 0.89338 0.95073 0.0
C562 C 0.33351 0.90121 0.0833 0.0
C563 C 0.3205 0.90498 0.14728 0.0
C564 C 0.32556 0.89826 0.99949 0.0
C565 C 0.29926 0.90561 0.12652 0.0
C566 C 0.29128 0.90284 0.04298 0.0
C567 C 0.29671 0.89673 0.8945 0.0
C568 C 0.31002 0.89327 0.83057 0.0
C569 C 0.30435 0.89922 0.97886 0.0
C570 C 0.3308 0.89186 0.85249 0.0
C571 C 0.33853 0.89439 0.93597 0.0
H572 H 0.43529 0.3422 0.20042 0.0
H573 H 0.43762 0.27568 0.2303 0.0
H574 H 0.43982 0.28055 0.38279 0.0
H575 H 0.44173 0.30399 0.51027 0.0
H576 H 0.43944 0.37052 0.48064 0.0
H577 H 0.43674 0.36541 0.32809 0.0
C578 C 0.43643 0.32885 0.24012 0.0
C579 C 0.43609 0.30847 0.20261 0.0
C580 C 0.43771 0.33173 0.3291 0.0
C581 C 0.43741 0.29134 0.25632 0.0
C582 C 0.43879 0.29416 0.34416 0.0
C583 C 0.44038 0.31723 0.47059 0.0
C584 C 0.44098 0.33773 0.50805 0.0
C585 C 0.43888 0.31423 0.38168 0.0
C586 C 0.43943 0.35474 0.4545 0.0
C587 C 0.4378 0.35181 0.36668 0.0
H588 H 0.58651 0.92857 0.87367 0.0
H589 H 0.58101 0.86046 0.79995 0.0
H590 H 0.58757 0.85266 0.94578 0.0
H591 H 0.59306 0.86439 0.09546 0.0
H592 H 0.59799 0.93228 0.1685 0.0
H593 H 0.59309 0.9408 0.02194 0.0
C594 C 0.58656 0.91193 0.88953 0.0
C595 C 0.58314 0.89508 0.82598 0.0
C596 C 0.59013 0.90747 0.9735 0.0
C597 C 0.5838 0.87385 0.84745 0.0
C598 C 0.58742 0.8693 0.93093 0.0
C599 C 0.59338 0.88118 0.07902 0.0
C600 C 0.59569 0.89757 0.14281 0.0
C601 C 0.59046 0.88592 0.99457 0.0
C602 C 0.59581 0.91916 0.12077 0.0
C603 C 0.59312 0.9241 0.03694 0.0
H604 H 0.67634 0.5695 0.53043 0.0
H605 H 0.74706 0.63389 0.50363 0.0
H606 H 0.74172 0.63301 0.35112 0.0
H607 H 0.71692 0.61389 0.22255 0.0
H608 H 0.64638 0.54918 0.25072 0.0
H609 H 0.65166 0.55047 0.40269 0.0
C610 C 0.69049 0.5835 0.49146 0.0
C611 C 0.71213 0.60168 0.52981 0.0
C612 C 0.68736 0.58287 0.40263 0.0
C613 C 0.73031 0.61944 0.47699 0.0
C614 C 0.72725 0.61901 0.38913 0.0
C615 C 0.70276 0.59999 0.26174 0.0
C616 C 0.68111 0.58164 0.22363 0.0
C617 C 0.70591 0.60072 0.35075 0.0
C618 C 0.66304 0.56389 0.27686 0.0
C619 C 0.66608 0.5645 0.36456 0.0
H620 H 0.10191 0.65002 0.65925 0.0
H621 H 0.11796 0.72209 0.58463 0.0
H622 H 0.12759 0.73595 0.73068 0.0
H623 H 0.13114 0.7274 0.87934 0.0
H624 H 0.11657 0.65557 0.95275 0.0
H625 H 0.10624 0.64169 0.80767 0.0
C626 C 0.10725 0.66867 0.67522 0.0
C627 C 0.10909 0.68497 0.61135 0.0
C628 C 0.11299 0.67654 0.75908 0.0
C629 C 0.11654 0.70925 0.63259 0.0
C630 C 0.12199 0.71714 0.71609 0.0
C631 C 0.126 0.70879 0.86381 0.0
C632 C 0.12459 0.69259 0.92766 0.0
C633 C 0.12036 0.70096 0.77982 0.0
C634 C 0.11749 0.66841 0.90571 0.0
C635 C 0.11168 0.66045 0.82245 0.0
H636 H 0.40146 0.12376 0.19268 0.0
H637 H 0.4674 0.12472 0.26787 0.0
H638 H 0.47498 0.11827 0.12253 0.0
H639 H 0.46306 0.11242 0.97395 0.0
H640 H 0.39761 0.112 0.89676 0.0
H641 H 0.38991 0.11866 0.0425 0.0
C642 C 0.41758 0.12278 0.17713 0.0
C643 C 0.43367 0.12447 0.24145 0.0
C644 C 0.42197 0.11923 0.09296 0.0
C645 C 0.45442 0.12297 0.2201 0.0
C646 C 0.45888 0.11944 0.13681 0.0
C647 C 0.44699 0.11355 0.98912 0.0
C648 C 0.43089 0.11161 0.92467 0.0
C649 C 0.44271 0.11739 0.07285 0.0
C650 C 0.4104 0.11363 0.94513 0.0
C651 C 0.40593 0.11734 0.0285 0.0
H652 H 0.28519 0.41941 0.52832 0.0
H653 H 0.35393 0.42797 0.61097 0.0
H654 H 0.3673 0.43154 0.46502 0.0
H655 H 0.35956 0.43244 0.31419 0.0
H656 H 0.2911 0.42458 0.23139 0.0
H657 H 0.27717 0.41962 0.37706 0.0
C658 C 0.30299 0.42181 0.51438 0.0
C659 C 0.31855 0.42354 0.58056 0.0
C660 C 0.31052 0.42373 0.43029 0.0
C661 C 0.34173 0.427 0.56141 0.0
C662 C 0.34933 0.42885 0.4779 0.0
C663 C 0.34164 0.42975 0.32797 0.0
C664 C 0.32644 0.42888 0.26186 0.0
C665 C 0.33392 0.42736 0.41192 0.0
C666 C 0.30307 0.42495 0.28082 0.0
C667 C 0.29516 0.42234 0.36423 0.0
H668 H 0.88832 0.34804 0.60913 0.0
H669 H 0.91005 0.29639 0.53375 0.0
H670 H 0.90759 0.28302 0.68014 0.0
H671 H 0.90062 0.28721 0.8302 0.0
H672 H 0.8778 0.33834 0.90345 0.0
H673 H 0.87973 0.35101 0.75746 0.0
C674 C 0.89266 0.33398 0.62496 0.0
C675 C 0.89951 0.32333 0.56113 0.0
C676 C 0.89115 0.3264 0.70885 0.0
C677 C 0.90459 0.30474 0.58196 0.0
C678 C 0.90329 0.29718 0.66559 0.0
C679 C 0.8958 0.30091 0.81414 0.0
C680 C 0.88941 0.31201 0.87806 0.0
C681 C 0.8967 0.30799 0.72965 0.0
C682 C 0.88336 0.32988 0.856 0.0
C683 C 0.88429 0.33705 0.77235 0.0
H684 H 0.16674 0.55074 0.11815 0.0
H685 H 0.16223 0.53911 0.38712 0.0
H686 H 0.16601 0.57895 0.40973 0.0
H687 H 0.16356 0.61365 0.35222 0.0
H688 H 0.167 0.62534 0.08402 0.0
H689 H 0.17128 0.58932 0.06155 0.0
C690 C 0.16736 0.55729 0.1817 0.0
C691 C 0.16381 0.54184 0.25086 0.0
C692 C 0.16912 0.58014 0.19422 0.0
C693 C 0.16453 0.55051 0.33289 0.0
C694 C 0.16666 0.57327 0.34587 0.0
C695 C 0.16607 0.60869 0.28914 0.0
C696 C 0.16498 0.62195 0.21983 0.0
C697 C 0.16791 0.58774 0.27694 0.0
C698 C 0.16804 0.61544 0.1382 0.0
C699 C 0.1702 0.59471 0.12544 0.0
H700 H 0.6134 0.15009 0.4069 0.0
H701 H 0.62695 0.14843 0.67198 0.0
H702 H 0.59152 0.15283 0.70573 0.0
H703 H 0.5534 0.1513 0.65831 0.0
H704 H 0.54002 0.15193 0.39203 0.0
H705 H 0.57876 0.15426 0.35994 0.0
C706 C 0.60891 0.1514 0.47193 0.0
C707 C 0.62265 0.14909 0.53697 0.0
C708 C 0.58839 0.1535 0.49046 0.0
C709 C 0.61666 0.15046 0.62112 0.0
C710 C 0.59633 0.15277 0.64026 0.0
C711 C 0.55937 0.15266 0.5935 0.0
C712 C 0.5438 0.15122 0.52756 0.0
C713 C 0.58157 0.15351 0.57538 0.0
C714 C 0.55162 0.15279 0.44373 0.0
C715 C 0.57372 0.15404 0.42532 0.0
H716 H 0.45959 0.61926 0.92883 0.0
H717 H 0.4535 0.6218 0.65934 0.0
H718 H 0.4132 0.58492 0.66345 0.0
H719 H 0.38383 0.54773 0.74144 0.0
H720 H 0.39126 0.54458 1.01027 0.0
H721 H 0.42644 0.58595 1.00969 0.0
C722 C 0.44887 0.61228 0.87171 0.0
C723 C 0.4592 0.62324 0.79406 0.0
C724 C 0.42609 0.59067 0.87452 0.0
C725 C 0.4456 0.6138 0.71988 0.0
C726 C 0.42271 0.59255 0.72219 0.0
C727 C 0.39262 0.55659 0.80001 0.0
C728 C 0.38502 0.54335 0.87587 0.0
C729 C 0.4133 0.58018 0.79872 0.0
C730 C 0.39676 0.55465 0.95141 0.0
C731 C 0.41699 0.57819 0.95093 0.0
H732 H 0.84952 0.39124 0.06275 0.0
H733 H 0.84689 0.38601 0.33397 0.0
H734 H 0.84286 0.42236 0.34275 0.0
H735 H 0.84653 0.45904 0.27415 0.0
H736 H 0.85028 0.46486 1.0031 0.0
H737 H 0.84695 0.42478 0.99325 0.0
C738 C 0.84755 0.39781 0.12364 0.0
C739 C 0.84873 0.38608 0.19762 0.0
C740 C 0.84565 0.41898 0.12823 0.0
C741 C 0.8459 0.39459 0.27609 0.0
C742 C 0.84383 0.41554 0.28117 0.0
C743 C 0.84606 0.45124 0.2129 0.0
C744 C 0.84887 0.465 0.13951 0.0
C745 C 0.84463 0.42838 0.20782 0.0
C746 C 0.848 0.45461 0.06051 0.0
C747 C 0.84636 0.43179 0.05489 0.0
H748 H 0.45493 0.84062 0.46261 0.0
H749 H 0.50059 0.91886 0.48325 0.0
H750 H 0.4649 0.92327 0.49602 0.0
H751 H 0.42122 0.90568 0.49806 0.0
H752 H 0.37394 0.82763 0.4854 0.0
H753 H 0.40967 0.82243 0.47086 0.0
C754 C 0.45696 0.85856 0.47032 0.0
C755 C 0.48045 0.87941 0.47007 0.0
C756 C 0.43611 0.86106 0.47844 0.0
C757 C 0.48279 0.90255 0.48071 0.0
C758 C 0.46237 0.90512 0.48858 0.0
C759 C 0.41857 0.8874 0.49397 0.0
C760 C 0.39486 0.86707 0.49442 0.0
C761 C 0.43901 0.88459 0.48701 0.0
C762 C 0.39197 0.84365 0.48535 0.0
C763 C 0.41241 0.84067 0.47747 0.0
H764 H 0.60821 0.47876 0.75869 0.0
H765 H 0.64628 0.46393 0.95639 0.0
H766 H 0.61215 0.42247 0.96776 0.0
H767 H 0.56997 0.3909 0.92718 0.0
H768 H 0.53554 0.40523 0.71752 0.0
H769 H 0.57068 0.44615 0.7024 0.0
C770 C 0.61001 0.46665 0.80249 0.0
C771 C 0.63029 0.47535 0.85724 0.0
C772 C 0.59085 0.4424 0.8062 0.0
C773 C 0.63091 0.4586 0.91484 0.0
C774 C 0.61139 0.43458 0.92094 0.0
C775 C 0.57054 0.40286 0.87704 0.0
C776 C 0.55029 0.39513 0.82333 0.0
C777 C 0.59104 0.4264 0.86792 0.0
C778 C 0.55106 0.41072 0.7588 0.0
C779 C 0.57104 0.43419 0.7507 0.0
H780 H 0.2804 0.46677 0.13557 0.0
H781 H 0.24671 0.41517 0.93317 0.0
H782 H 0.20691 0.41017 0.97049 0.0
H783 H 0.18151 0.42056 0.06251 0.0
H784 H 0.21669 0.47183 0.26557 0.0
H785 H 0.25578 0.4768 0.22574 0.0
C786 C 0.26441 0.45447 0.09918 0.0
C787 C 0.26664 0.44146 0.03145 0.0
C788 C 0.24168 0.45158 0.12124 0.0
C789 C 0.24557 0.42543 0.98573 0.0
C790 C 0.22278 0.42259 1.00701 0.0
C791 C 0.19775 0.43283 0.09775 0.0
C792 C 0.19595 0.44572 0.16716 0.0
C793 C 0.22057 0.43558 0.07486 0.0
C794 C 0.21727 0.46151 0.21221 0.0
C795 C 0.23979 0.46445 0.18948 0.0
H796 H 0.7985 0.25401 0.16078 0.0
H797 H 0.84484 0.25024 0.35256 0.0
H798 H 0.80998 0.21333 0.41068 0.0
H799 H 0.76589 0.18197 0.40694 0.0
H800 H 0.72027 0.18748 0.21573 0.0
H801 H 0.7552 0.22368 0.15803 0.0
C802 C 0.80109 0.24514 0.2152 0.0
C803 C 0.82436 0.25492 0.25185 0.0
C804 C 0.78097 0.22414 0.24874 0.0
C805 C 0.82718 0.24316 0.32284 0.0
C806 C 0.80722 0.22202 0.35615 0.0
C807 C 0.76363 0.19112 0.35269 0.0
C808 C 0.74035 0.18194 0.31613 0.0
C809 C 0.78396 0.21231 0.31967 0.0
C810 C 0.73782 0.19412 0.24588 0.0
C811 C 0.75785 0.21487 0.21244 0.0
H812 H 0.58605 0.82944 0.59894 0.0
H813 H 0.53167 0.79641 0.40341 0.0
H814 H 0.52537 0.75638 0.44025 0.0
H815 H 0.53539 0.73047 0.52557 0.0
H816 H 0.58999 0.76251 0.72038 0.0
H817 H 0.59605 0.80294 0.68618 0.0
C818 C 0.57278 0.81347 0.56465 0.0
C819 C 0.55941 0.81611 0.49827 0.0
C820 C 0.56928 0.79021 0.5858 0.0
C821 C 0.54232 0.79512 0.45451 0.0
C822 C 0.53866 0.7721 0.47553 0.0
C823 C 0.5486 0.74624 0.56089 0.0
C824 C 0.56218 0.74333 0.62554 0.0
C825 C 0.55207 0.76942 0.54068 0.0
C826 C 0.57928 0.76412 0.67017 0.0
C827 C 0.58275 0.7873 0.65067 0.0
H828 H 0.81145 0.57881 0.17198 0.0
H829 H 0.84439 0.57159 0.94448 0.0
H830 H 0.81281 0.57283 0.85977 0.0
H831 H 0.77507 0.57478 0.85026 0.0
H832 H 0.7435 0.58488 0.07612 0.0
H833 H 0.77523 0.58388 0.16138 0.0
C834 C 0.81169 0.57758 0.10386 0.0
C835 C 0.83017 0.57501 0.06457 0.0
C836 C 0.7937 0.57884 0.05523 0.0
C837 C 0.83046 0.57373 0.97618 0.0
C838 C 0.81234 0.57433 0.92769 0.0
C839 C 0.77522 0.57688 0.91813 0.0
C840 C 0.7569 0.57979 0.95686 0.0
C841 C 0.79378 0.57673 0.9665 0.0
C842 C 0.75748 0.58277 0.04474 0.0
C843 C 0.77555 0.58206 0.09356 0.0
H844 H 0.25871 0.80054 0.54354 0.0
H845 H 0.25 0.84468 0.35434 0.0
H846 H 0.21398 0.80839 0.29908 0.0
H847 H 0.18476 0.76371 0.30498 0.0
H848 H 0.19507 0.72048 0.49424 0.0
H849 H 0.23048 0.75674 0.54847 0.0
C850 C 0.24898 0.80233 0.49024 0.0
C851 C 0.25708 0.82539 0.45348 0.0
C852 C 0.22845 0.78144 0.45856 0.0
C853 C 0.24421 0.82719 0.38405 0.0
C854 C 0.22357 0.80642 0.3524 0.0
C855 C 0.19475 0.76227 0.35813 0.0
C856 C 0.18713 0.73928 0.39525 0.0
C857 C 0.21547 0.78339 0.38922 0.0
C858 C 0.20043 0.7378 0.46391 0.0
C859 C 0.22075 0.75859 0.49531 0.0
H860 H 0.484 0.27116 0.77413 0.0
H861 H 0.40692 0.24507 0.75958 0.0
H862 H 0.40036 0.20761 0.69037 0.0
H863 H 0.41681 0.18194 0.63558 0.0
H864 H 0.49442 0.21043 0.63861 0.0
H865 H 0.50062 0.2472 0.71107 0.0
C866 C 0.46576 0.25726 0.75573 0.0
C867 C 0.44593 0.26072 0.77264 0.0
C868 C 0.46228 0.23616 0.7142 0.0
C869 C 0.42246 0.2428 0.74715 0.0
C870 C 0.41872 0.22136 0.70792 0.0
C871 C 0.43501 0.19626 0.6524 0.0
C872 C 0.45516 0.19352 0.63279 0.0
C873 C 0.43849 0.21776 0.69151 0.0
C874 C 0.47871 0.21224 0.65335 0.0
C875 C 0.48224 0.23321 0.69475 0.0
loop_
_geom_bond_atom_site_label_1
_geom_bond_atom_site_label_2
_geom_bond_distance
_geom_bond_site_symmetry_2
_ccdc_geom_bond_type
Co0 N4 2.148 . S
Co0 N10 2.128 1_554 S
Co0 N20 2.194 . S
Co0 O25 2.351 . S
Co0 O26 2.155 . S
Co0 O27 2.096 . S
C1 N4 1.301 . S
C1 N5 1.328 . S
C1 H6 0.930 . S
C2 C3 1.333 . S
C2 N4 1.317 . S
C2 H7 0.930 . S
C3 C2 1.333 . S
C3 N5 1.350 . S
C3 H29 0.931 . S
N4 Co0 2.148 . S
N4 C1 1.301 . S
N4 C2 1.317 . S
N5 C1 1.328 . S
N5 C3 1.350 . S
H6 C1 0.930 . S
H7 C2 0.930 . S
C8 O9 1.224 . S
C8 O27 1.247 . S
O9 C8 1.224 . S
N10 Co0 2.128 1_556 S
N10 C11 1.355 . S
N10 C13 1.311 . S
C11 N10 1.355 . S
C11 C12 1.363 . S
C11 H23 0.929 . S
C12 C11 1.363 . S
C12 N14 1.375 . S
C12 H30 0.931 . S
C13 N10 1.311 . S
C13 N14 1.347 . S
C13 H24 0.929 . S
N14 C12 1.375 . S
N14 C13 1.347 . S
C15 C18 1.365 . S
C15 N20 1.328 . S
C15 H21 0.929 . S
C16 C17 1.362 . S
C16 C19 1.378 . S
C16 H31 0.929 . S
C17 C16 1.362 . S
C17 C18 1.366 . S
C18 C15 1.365 . S
C18 C17 1.366 . S
C18 H32 0.930 . S
C19 C16 1.378 . S
C19 N20 1.315 . S
C19 H22 0.930 . S
N20 Co0 2.194 . S
N20 C15 1.328 . S
N20 C19 1.315 . S
H21 C15 0.929 . S
H22 C19 0.930 . S
H23 C11 0.929 . S
H24 C13 0.929 . S
O25 Co0 2.351 . S
O25 C28 1.244 . S
O26 Co0 2.155 . S
O26 C28 1.240 . S
O27 Co0 2.096 . S
O27 C8 1.247 . S
C28 O25 1.244 . S
C28 O26 1.240 . S
H29 C3 0.931 . S
H30 C12 0.931 . S
H31 C16 0.929 . S
H32 C18 0.930 . S
Co33 N37 2.148 . S
Co33 N43 2.128 . S
Co33 N53 2.194 . S
Co33 O58 2.351 . S
Co33 O59 2.155 . S
Co33 O60 2.096 . S
C34 N37 1.301 . S
C34 N38 1.328 . S
C34 H39 0.930 . S
C35 C36 1.333 . S
C35 N37 1.317 . S
C35 H40 0.930 . S
C36 C35 1.333 . S
C36 N38 1.350 . S
C36 H62 0.931 . S
N37 Co33 2.148 . S
N37 C34 1.301 . S
N37 C35 1.317 . S
N38 C34 1.328 . S
N38 C36 1.350 . S
H39 C34 0.930 . S
H40 C35 0.930 . S
C41 O42 1.224 . S
C41 O60 1.247 . S
O42 C41 1.224 . S
N43 Co33 2.128 . S
N43 C44 1.355 . S
N43 C46 1.311 . S
C44 N43 1.355 . S
C44 C45 1.363 . S
C44 H56 0.929 . S
C45 C44 1.363 . S
C45 N47 1.375 . S
C45 H63 0.931 . S
C46 N43 1.311 . S
C46 N47 1.347 . S
C46 H57 0.929 . S
N47 C45 1.375 . S
N47 C46 1.347 . S
C48 C51 1.365 . S
C48 N53 1.328 . S
C48 H54 0.929 . S
C49 C50 1.362 . S
C49 C52 1.378 . S
C49 H64 0.929 . S
C50 C49 1.362 . S
C50 C51 1.366 . S
C51 C48 1.365 . S
C51 C50 1.366 . S
C51 H65 0.930 . S
C52 C49 1.378 . S
C52 N53 1.315 . S
C52 H55 0.930 . S
N53 Co33 2.194 . S
N53 C48 1.328 . S
N53 C52 1.315 . S
H54 C48 0.929 . S
H55 C52 0.930 . S
H56 C44 0.929 . S
H57 C46 0.929 . S
O58 Co33 2.351 . S
O58 C61 1.244 . S
O59 Co33 2.155 . S
O59 C61 1.240 . S
O60 Co33 2.096 . S
O60 C41 1.247 . S
C61 O58 1.244 . S
C61 O59 1.240 . S
H62 C36 0.931 . S
H63 C45 0.931 . S
H64 C49 0.929 . S
H65 C51 0.930 . S
Co66 N70 2.148 . S
Co66 N76 2.128 . S
Co66 N86 2.194 . S
Co66 O91 2.351 . S
Co66 O92 2.155 . S
Co66 O93 2.096 . S
C67 N70 1.301 . S
C67 N71 1.328 1_556 S
C67 H72 0.930 . S
C68 C69 1.333 1_556 S
C68 N70 1.317 . S
C68 H73 0.930 . S
C69 C68 1.333 1_554 S
C69 N71 1.350 . S
C69 H95 0.931 . S
N70 Co66 2.148 . S
N70 C67 1.301 . S
N70 C68 1.317 . S
N71 C67 1.328 1_554 S
N71 C69 1.350 . S
H72 C67 0.930 . S
H73 C68 0.930 . S
C74 O75 1.224 . S
C74 O93 1.247 . S
O75 C74 1.224 . S
N76 Co66 2.128 . S
N76 C77 1.355 . S
N76 C79 1.311 . S
C77 N76 1.355 . S
C77 C78 1.363 . S
C77 H89 0.929 . S
C78 C77 1.363 . S
C78 N80 1.375 . S
C78 H96 0.931 . S
C79 N76 1.311 . S
C79 N80 1.347 . S
C79 H90 0.929 . S
N80 C78 1.375 . S
N80 C79 1.347 . S
C81 C84 1.365 . S
C81 N86 1.328 . S
C81 H87 0.929 . S
C82 C83 1.362 . S
C82 C85 1.378 . S
C82 H97 0.929 . S
C83 C82 1.362 . S
C83 C84 1.366 . S
C84 C81 1.365 . S
C84 C83 1.366 . S
C84 H98 0.930 . S
C85 C82 1.378 . S
C85 N86 1.315 . S
C85 H88 0.930 . S
N86 Co66 2.194 . S
N86 C81 1.328 . S
N86 C85 1.315 . S
H87 C81 0.929 . S
H88 C85 0.930 . S
H89 C77 0.929 . S
H90 C79 0.929 . S
O91 Co66 2.351 . S
O91 C94 1.244 . S
O92 Co66 2.155 . S
O92 C94 1.240 . S
O93 Co66 2.096 . S
O93 C74 1.247 . S
C94 O91 1.244 . S
C94 O92 1.240 . S
H95 C69 0.931 . S
H96 C78 0.931 . S
H97 C82 0.929 . S
H98 C84 0.930 . S
Co99 N103 2.148 . S
Co99 N109 2.128 1_554 S
Co99 N119 2.194 . S
Co99 O124 2.351 . S
Co99 O125 2.155 . S
Co99 O126 2.096 . S
C100 N103 1.301 . S
C100 N104 1.328 . S
C100 H105 0.930 . S
C101 C102 1.333 . S
C101 N103 1.317 . S
C101 H106 0.930 . S
C102 C101 1.333 . S
C102 N104 1.350 . S
C102 H128 0.931 . S
N103 Co99 2.148 . S
N103 C100 1.301 . S
N103 C101 1.317 . S
N104 C100 1.328 . S
N104 C102 1.350 . S
H105 C100 0.930 . S
H106 C101 0.930 . S
C107 O108 1.224 . S
C107 O126 1.247 . S
O108 C107 1.224 . S
N109 Co99 2.128 1_556 S
N109 C110 1.355 . S
N109 C112 1.311 . S
C110 N109 1.355 . S
C110 C111 1.363 . S
C110 H122 0.929 . S
C111 C110 1.363 . S
C111 N113 1.375 . S
C111 H129 0.931 . S
C112 N109 1.311 . S
C112 N113 1.347 . S
C112 H123 0.929 . S
N113 C111 1.375 . S
N113 C112 1.347 . S
C114 C117 1.365 . S
C114 N119 1.328 . S
C114 H120 0.929 . S
C115 C116 1.362 . S
C115 C118 1.378 . S
C115 H130 0.929 . S
C116 C115 1.362 . S
C116 C117 1.366 . S
C117 C114 1.365 . S
C117 C116 1.366 . S
C117 H131 0.930 . S
C118 C115 1.378 . S
C118 N119 1.315 . S
C118 H121 0.930 . S
N119 Co99 2.194 . S
N119 C114 1.328 . S
N119 C118 1.315 . S
H120 C114 0.929 . S
H121 C118 0.930 . S
H122 C110 0.929 . S
H123 C112 0.929 . S
O124 Co99 2.351 . S
O124 C127 1.244 . S
O125 Co99 2.155 . S
O125 C127 1.240 . S
O126 Co99 2.096 . S
O126 C107 1.247 . S
C127 O124 1.244 . S
C127 O125 1.240 . S
H128 C102 0.931 . S
H129 C111 0.931 . S
H130 C115 0.929 . S
H131 C117 0.930 . S
Co132 N136 2.148 . S
Co132 N142 2.128 . S
Co132 N152 2.194 . S
Co132 O157 2.351 . S
Co132 O158 2.155 . S
Co132 O159 2.096 . S
C133 N136 1.301 . S
C133 N137 1.328 . S
C133 H138 0.930 . S
C134 C135 1.333 . S
C134 N136 1.317 . S
C134 H139 0.930 . S
C135 C134 1.333 . S
C135 N137 1.350 . S
C135 H161 0.931 . S
N136 Co132 2.148 . S
N136 C133 1.301 . S
N136 C134 1.317 . S
N137 C133 1.328 . S
N137 C135 1.350 . S
H138 C133 0.930 . S
H139 C134 0.930 . S
C140 O141 1.224 . S
C140 O159 1.247 . S
O141 C140 1.224 . S
N142 Co132 2.128 . S
N142 C143 1.355 . S
N142 C145 1.311 . S
C143 N142 1.355 . S
C143 C144 1.363 . S
C143 H155 0.929 . S
C144 C143 1.363 . S
C144 N146 1.375 . S
C144 H162 0.931 . S
C145 N142 1.311 . S
C145 N146 1.347 . S
C145 H156 0.929 . S
N146 C144 1.375 . S
N146 C145 1.347 . S
C147 C150 1.365 . S
C147 N152 1.328 . S
C147 H153 0.929 . S
C148 C149 1.362 . S
C148 C151 1.378 . S
C148 H163 0.929 . S
C149 C148 1.362 . S
C149 C150 1.366 . S
C150 C147 1.365 . S
C150 C149 1.366 . S
C150 H164 0.930 . S
C151 C148 1.378 . S
C151 N152 1.315 . S
C151 H154 0.930 . S
N152 Co132 2.194 . S
N152 C147 1.328 . S
N152 C151 1.315 . S
H153 C147 0.929 . S
H154 C151 0.930 . S
H155 C143 0.929 . S
H156 C145 0.929 . S
O157 Co132 2.351 . S
O157 C160 1.244 . S
O158 Co132 2.155 . S
O158 C160 1.240 . S
O159 Co132 2.096 . S
O159 C140 1.247 . S
C160 O157 1.244 . S
C160 O158 1.240 . S
H161 C135 0.931 . S
H162 C144 0.931 . S
H163 C148 0.929 . S
H164 C150 0.930 . S
Co165 N169 2.148 . S
Co165 N175 2.128 . S
Co165 N185 2.194 . S
Co165 O190 2.351 . S
Co165 O191 2.155 . S
Co165 O192 2.096 . S
C166 N169 1.301 . S
C166 N170 1.328 1_556 S
C166 H171 0.930 . S
C167 C168 1.333 1_556 S
C167 N169 1.317 . S
C167 H172 0.930 . S
C168 C167 1.333 1_554 S
C168 N170 1.350 . S
C168 H194 0.931 . S
N169 Co165 2.148 . S
N169 C166 1.301 . S
N169 C167 1.317 . S
N170 C166 1.328 1_554 S
N170 C168 1.350 . S
H171 C166 0.930 . S
H172 C167 0.930 . S
C173 O174 1.224 . S
C173 O192 1.247 . S
O174 C173 1.224 . S
N175 Co165 2.128 . S
N175 C176 1.355 . S
N175 C178 1.311 . S
C176 N175 1.355 . S
C176 C177 1.363 . S
C176 H188 0.929 . S
C177 C176 1.363 . S
C177 N179 1.375 . S
C177 H195 0.931 . S
C178 N175 1.311 . S
C178 N179 1.347 . S
C178 H189 0.929 . S
N179 C177 1.375 . S
N179 C178 1.347 . S
C180 C183 1.365 . S
C180 N185 1.328 . S
C180 H186 0.929 . S
C181 C182 1.362 . S
C181 C184 1.378 . S
C181 H196 0.929 . S
C182 C181 1.362 . S
C182 C183 1.366 . S
C183 C180 1.365 . S
C183 C182 1.366 . S
C183 H197 0.930 . S
C184 C181 1.378 . S
C184 N185 1.315 . S
C184 H187 0.930 . S
N185 Co165 2.194 . S
N185 C180 1.328 . S
N185 C184 1.315 . S
H186 C180 0.929 . S
H187 C184 0.930 . S
H188 C176 0.929 . S
H189 C178 0.929 . S
O190 Co165 2.351 . S
O190 C193 1.244 . S
O191 Co165 2.155 . S
O191 C193 1.240 . S
O192 Co165 2.096 . S
O192 C173 1.247 . S
C193 O190 1.244 . S
C193 O191 1.240 . S
H194 C168 0.931 . S
H195 C177 0.931 . S
H196 C181 0.929 . S
H197 C183 0.930 . S
Co198 N202 2.148 . S
Co198 N208 2.128 . S
Co198 N218 2.194 . S
Co198 O223 2.351 . S
Co198 O224 2.155 . S
Co198 O225 2.096 . S
C199 N202 1.301 . S
C199 N203 1.328 . S
C199 H204 0.930 . S
C200 C201 1.333 . S
C200 N202 1.317 . S
C200 H205 0.930 . S
C201 C200 1.333 . S
C201 N203 1.350 . S
C201 H227 0.931 . S
N202 Co198 2.148 . S
N202 C199 1.301 . S
N202 C200 1.317 . S
N203 C199 1.328 . S
N203 C201 1.350 . S
H204 C199 0.930 . S
H205 C200 0.930 . S
C206 O207 1.224 . S
C206 O225 1.247 . S
O207 C206 1.224 . S
N208 Co198 2.128 . S
N208 C209 1.355 . S
N208 C211 1.311 . S
C209 N208 1.355 . S
C209 C210 1.363 . S
C209 H221 0.929 . S
C210 C209 1.363 . S
C210 N212 1.375 . S
C210 H228 0.931 . S
C211 N208 1.311 . S
C211 N212 1.347 . S
C211 H222 0.929 . S
N212 C210 1.375 . S
N212 C211 1.347 . S
C213 C216 1.365 . S
C213 N218 1.328 . S
C213 H219 0.929 . S
C214 C215 1.362 . S
C214 C217 1.378 . S
C214 H229 0.929 . S
C215 C214 1.362 . S
C215 C216 1.366 . S
C216 C213 1.365 . S
C216 C215 1.366 . S
C216 H230 0.930 . S
C217 C214 1.378 . S
C217 N218 1.315 . S
C217 H220 0.930 . S
N218 Co198 2.194 . S
N218 C213 1.328 . S
N218 C217 1.315 . S
H219 C213 0.929 . S
H220 C217 0.930 . S
H221 C209 0.929 . S
H222 C211 0.929 . S
O223 Co198 2.351 . S
O223 C226 1.244 . S
O224 Co198 2.155 . S
O224 C226 1.240 . S
O225 Co198 2.096 . S
O225 C206 1.247 . S
C226 O223 1.244 . S
C226 O224 1.240 . S
H227 C201 0.931 . S
H228 C210 0.931 . S
H229 C214 0.929 . S
H230 C216 0.930 . S
Co231 N235 2.148 . S
Co231 N241 2.128 1_556 S
Co231 N251 2.194 . S
Co231 O256 2.351 . S
Co231 O257 2.155 . S
Co231 O258 2.096 . S
C232 N235 1.301 . S
C232 N236 1.328 . S
C232 H237 0.930 . S
C233 C234 1.333 . S
C233 N235 1.317 . S
C233 H238 0.930 . S
C234 C233 1.333 . S
C234 N236 1.350 . S
C234 H260 0.931 . S
N235 Co231 2.148 . S
N235 C232 1.301 . S
N235 C233 1.317 . S
N236 C232 1.328 . S
N236 C234 1.350 . S
H237 C232 0.930 . S
H238 C233 0.930 . S
C239 O240 1.224 . S
C239 O258 1.247 . S
O240 C239 1.224 . S
N241 Co231 2.128 1_554 S
N241 C242 1.355 . S
N241 C244 1.311 . S
C242 N241 1.355 . S
C242 C243 1.363 . S
C242 H254 0.929 . S
C243 C242 1.363 . S
C243 N245 1.375 . S
C243 H261 0.931 . S
C244 N241 1.311 . S
C244 N245 1.347 . S
C244 H255 0.929 . S
N245 C243 1.375 . S
N245 C244 1.347 . S
C246 C249 1.365 . S
C246 N251 1.328 . S
C246 H252 0.929 . S
C247 C248 1.362 . S
C247 C250 1.378 . S
C247 H262 0.929 . S
C248 C247 1.362 . S
C248 C249 1.366 . S
C249 C246 1.365 . S
C249 C248 1.366 . S
C249 H263 0.930 . S
C250 C247 1.378 . S
C250 N251 1.315 . S
C250 H253 0.930 . S
N251 Co231 2.194 . S
N251 C246 1.328 . S
N251 C250 1.315 . S
H252 C246 0.929 . S
H253 C250 0.930 . S
H254 C242 0.929 . S
H255 C244 0.929 . S
O256 Co231 2.351 . S
O256 C259 1.244 . S
O257 Co231 2.155 . S
O257 C259 1.240 . S
O258 Co231 2.096 . S
O258 C239 1.247 . S
C259 O256 1.244 . S
C259 O257 1.240 . S
H260 C234 0.931 . S
H261 C243 0.931 . S
H262 C247 0.929 . S
H263 C249 0.930 . S
Co264 N268 2.148 . S
Co264 N274 2.128 . S
Co264 N284 2.194 . S
Co264 O289 2.351 . S
Co264 O290 2.155 . S
Co264 O291 2.096 . S
C265 N268 1.301 . S
C265 N269 1.328 1_554 S
C265 H270 0.930 . S
C266 C267 1.333 1_554 S
C266 N268 1.317 . S
C266 H271 0.930 . S
C267 C266 1.333 1_556 S
C267 N269 1.350 . S
C267 H293 0.931 . S
N268 Co264 2.148 . S
N268 C265 1.301 . S
N268 C266 1.317 . S
N269 C265 1.328 1_556 S
N269 C267 1.350 . S
H270 C265 0.930 . S
H271 C266 0.930 . S
C272 O273 1.224 . S
C272 O291 1.247 . S
O273 C272 1.224 . S
N274 Co264 2.128 . S
N274 C275 1.355 . S
N274 C277 1.311 . S
C275 N274 1.355 . S
C275 C276 1.363 . S
C275 H287 0.929 . S
C276 C275 1.363 . S
C276 N278 1.375 . S
C276 H294 0.931 . S
C277 N274 1.311 . S
C277 N278 1.347 . S
C277 H288 0.929 . S
N278 C276 1.375 . S
N278 C277 1.347 . S
C279 C282 1.365 . S
C279 N284 1.328 . S
C279 H285 0.929 . S
C280 C281 1.362 . S
C280 C283 1.378 . S
C280 H295 0.929 . S
C281 C280 1.362 . S
C281 C282 1.366 . S
C282 C279 1.365 . S
C282 C281 1.366 . S
C282 H296 0.930 . S
C283 C280 1.378 . S
C283 N284 1.315 . S
C283 H286 0.930 . S
N284 Co264 2.194 . S
N284 C279 1.328 . S
N284 C283 1.315 . S
H285 C279 0.929 . S
H286 C283 0.930 . S
H287 C275 0.929 . S
H288 C277 0.929 . S
O289 Co264 2.351 . S
O289 C292 1.244 . S
O290 Co264 2.155 . S
O290 C292 1.240 . S
O291 Co264 2.096 . S
O291 C272 1.247 . S
C292 O289 1.244 . S
C292 O290 1.240 . S
H293 C267 0.931 . S
H294 C276 0.931 . S
H295 C280 0.929 . S
H296 C282 0.930 . S
Co297 N301 2.148 . S
Co297 N307 2.128 . S
Co297 N317 2.194 . S
Co297 O322 2.351 . S
Co297 O323 2.155 . S
Co297 O324 2.096 . S
C298 N301 1.301 . S
C298 N302 1.328 . S
C298 H303 0.930 . S
C299 C300 1.333 . S
C299 N301 1.317 . S
C299 H304 0.930 . S
C300 C299 1.333 . S
C300 N302 1.350 . S
C300 H326 0.931 . S
N301 Co297 2.148 . S
N301 C298 1.301 . S
N301 C299 1.317 . S
N302 C298 1.328 . S
N302 C300 1.350 . S
H303 C298 0.930 . S
H304 C299 0.930 . S
C305 O306 1.224 . S
C305 O324 1.247 . S
O306 C305 1.224 . S
N307 Co297 2.128 . S
N307 C308 1.355 . S
N307 C310 1.311 . S
C308 N307 1.355 . S
C308 C309 1.363 . S
C308 H320 0.929 . S
C309 C308 1.363 . S
C309 N311 1.375 . S
C309 H327 0.931 . S
C310 N307 1.311 . S
C310 N311 1.347 . S
C310 H321 0.929 . S
N311 C309 1.375 . S
N311 C310 1.347 . S
C312 C315 1.365 . S
C312 N317 1.328 . S
C312 H318 0.929 . S
C313 C314 1.362 . S
C313 C316 1.378 . S
C313 H328 0.929 . S
C314 C313 1.362 . S
C314 C315 1.366 . S
C315 C312 1.365 . S
C315 C314 1.366 . S
C315 H329 0.930 . S
C316 C313 1.378 . S
C316 N317 1.315 . S
C316 H319 0.930 . S
N317 Co297 2.194 . S
N317 C312 1.328 . S
N317 C316 1.315 . S
H318 C312 0.929 . S
H319 C316 0.930 . S
H320 C308 0.929 . S
H321 C310 0.929 . S
O322 Co297 2.351 . S
O322 C325 1.244 . S
O323 Co297 2.155 . S
O323 C325 1.240 . S
O324 Co297 2.096 . S
O324 C305 1.247 . S
C325 O322 1.244 . S
C325 O323 1.240 . S
H326 C300 0.931 . S
H327 C309 0.931 . S
H328 C313 0.929 . S
H329 C315 0.930 . S
Co330 N334 2.148 . S
Co330 N340 2.128 1_556 S
Co330 N350 2.194 . S
Co330 O355 2.351 . S
Co330 O356 2.155 . S
Co330 O357 2.096 . S
C331 N334 1.301 . S
C331 N335 1.328 . S
C331 H336 0.930 . S
C332 C333 1.333 . S
C332 N334 1.317 . S
C332 H337 0.930 . S
C333 C332 1.333 . S
C333 N335 1.350 . S
C333 H359 0.931 . S
N334 Co330 2.148 . S
N334 C331 1.301 . S
N334 C332 1.317 . S
N335 C331 1.328 . S
N335 C333 1.350 . S
H336 C331 0.930 . S
H337 C332 0.930 . S
C338 O339 1.224 . S
C338 O357 1.247 . S
O339 C338 1.224 . S
N340 Co330 2.128 1_554 S
N340 C341 1.355 . S
N340 C343 1.311 . S
C341 N340 1.355 . S
C341 C342 1.363 . S
C341 H353 0.929 . S
C342 C341 1.363 . S
C342 N344 1.375 . S
C342 H360 0.931 . S
C343 N340 1.311 . S
C343 N344 1.347 . S
C343 H354 0.929 . S
N344 C342 1.375 . S
N344 C343 1.347 . S
C345 C348 1.365 . S
C345 N350 1.328 . S
C345 H351 0.929 . S
C346 C347 1.362 . S
C346 C349 1.378 . S
C346 H361 0.929 . S
C347 C346 1.362 . S
C347 C348 1.366 . S
C348 C345 1.365 . S
C348 C347 1.366 . S
C348 H362 0.930 . S
C349 C346 1.378 . S
C349 N350 1.315 . S
C349 H352 0.930 . S
N350 Co330 2.194 . S
N350 C345 1.328 . S
N350 C349 1.315 . S
H351 C345 0.929 . S
H352 C349 0.930 . S
H353 C341 0.929 . S
H354 C343 0.929 . S
O355 Co330 2.351 . S
O355 C358 1.244 . S
O356 Co330 2.155 . S
O356 C358 1.240 . S
O357 Co330 2.096 . S
O357 C338 1.247 . S
C358 O355 1.244 . S
C358 O356 1.240 . S
H359 C333 0.931 . S
H360 C342 0.931 . S
H361 C346 0.929 . S
H362 C348 0.930 . S
Co363 N367 2.148 . S
Co363 N373 2.128 . S
Co363 N383 2.194 . S
Co363 O388 2.351 . S
Co363 O389 2.155 . S
Co363 O390 2.096 . S
C364 N367 1.301 . S
C364 N368 1.328 1_554 S
C364 H369 0.930 . S
C365 C366 1.333 1_554 S
C365 N367 1.317 . S
C365 H370 0.930 . S
C366 C365 1.333 1_556 S
C366 N368 1.350 . S
C366 H392 0.931 . S
N367 Co363 2.148 . S
N367 C364 1.301 . S
N367 C365 1.317 . S
N368 C364 1.328 1_556 S
N368 C366 1.350 . S
H369 C364 0.930 . S
H370 C365 0.930 . S
C371 O372 1.224 . S
C371 O390 1.247 . S
O372 C371 1.224 . S
N373 Co363 2.128 . S
N373 C374 1.355 . S
N373 C376 1.311 . S
C374 N373 1.355 . S
C374 C375 1.363 . S
C374 H386 0.929 . S
C375 C374 1.363 . S
C375 N377 1.375 . S
C375 H393 0.931 . S
C376 N373 1.311 . S
C376 N377 1.347 . S
C376 H387 0.929 . S
N377 C375 1.375 . S
N377 C376 1.347 . S
C378 C381 1.365 . S
C378 N383 1.328 . S
C378 H384 0.929 . S
C379 C380 1.362 . S
C379 C382 1.378 . S
C379 H394 0.929 . S
C380 C379 1.362 . S
C380 C381 1.366 . S
C381 C378 1.365 . S
C381 C380 1.366 . S
C381 H395 0.930 . S
C382 C379 1.378 . S
C382 N383 1.315 . S
C382 H385 0.930 . S
N383 Co363 2.194 . S
N383 C378 1.328 . S
N383 C382 1.315 . S
H384 C378 0.929 . S
H385 C382 0.930 . S
H386 C374 0.929 . S
H387 C376 0.929 . S
O388 Co363 2.351 . S
O388 C391 1.244 . S
O389 Co363 2.155 . S
O389 C391 1.240 . S
O390 Co363 2.096 . S
O390 C371 1.247 . S
C391 O388 1.244 . S
C391 O389 1.240 . S
H392 C366 0.931 . S
H393 C375 0.931 . S
H394 C379 0.929 . S
H395 C381 0.930 . S
H396 C402 0.930 . S
H397 C405 0.930 . S
H398 C406 0.930 . S
H399 C407 0.930 . S
H400 C410 0.930 . S
H401 C411 0.930 . S
C402 H396 0.930 . S
C402 C403 1.355 . S
C402 C404 1.415 . S
C403 C402 1.355 . S
C403 C405 1.419 . S
C404 C402 1.415 . S
C404 C409 1.425 1_455 S
C404 C411 1.409 1_455 S
C405 H397 0.930 . S
C405 C403 1.419 . S
C405 C406 1.362 . S
C406 H398 0.930 . S
C406 C405 1.362 . S
C406 C409 1.409 1_455 S
C407 H399 0.930 . S
C407 C408 1.355 . S
C407 C409 1.415 . S
C408 C407 1.355 . S
C408 C410 1.419 . S
C409 C404 1.425 1_655 S
C409 C406 1.409 1_655 S
C409 C407 1.415 . S
C410 H400 0.930 . S
C410 C408 1.419 . S
C410 C411 1.362 . S
C411 H401 0.930 . S
C411 C404 1.409 1_655 S
C411 C410 1.362 . S
H412 C418 0.930 . S
H413 C421 0.930 . S
H414 C422 0.930 . S
H415 C423 0.930 . S
H416 C426 0.930 . S
H417 C427 0.930 . S
C418 H412 0.930 . S
C418 C419 1.355 . S
C418 C420 1.415 . S
C419 C418 1.355 . S
C419 C421 1.419 . S
C420 C418 1.415 . S
C420 C425 1.425 1_545 S
C420 C427 1.409 1_545 S
C421 H413 0.930 . S
C421 C419 1.419 . S
C421 C422 1.362 . S
C422 H414 0.930 . S
C422 C421 1.362 . S
C422 C425 1.409 1_545 S
C423 H415 0.930 . S
C423 C424 1.355 . S
C423 C425 1.415 . S
C424 C423 1.355 . S
C424 C426 1.419 . S
C425 C420 1.425 1_565 S
C425 C422 1.409 1_565 S
C425 C423 1.415 . S
C426 H416 0.930 . S
C426 C424 1.419 . S
C426 C427 1.362 . S
C427 H417 0.930 . S
C427 C420 1.409 1_565 S
C427 C426 1.362 . S
H428 C434 0.930 . S
H429 C437 0.930 . S
H430 C438 0.930 . S
H431 C439 0.930 . S
H432 C442 0.930 . S
H433 C443 0.930 . S
C434 H428 0.930 . S
C434 C435 1.355 . S
C434 C436 1.415 . S
C435 C434 1.355 . S
C435 C437 1.419 . S
C436 C434 1.415 . S
C436 C441 1.425 . S
C436 C443 1.409 . S
C437 H429 0.930 . S
C437 C435 1.419 . S
C437 C438 1.362 . S
C438 H430 0.930 . S
C438 C437 1.362 . S
C438 C441 1.409 . S
C439 H431 0.930 . S
C439 C440 1.355 . S
C439 C441 1.415 . S
C440 C439 1.355 . S
C440 C442 1.419 . S
C441 C436 1.425 . S
C441 C438 1.409 . S
C441 C439 1.415 . S
C442 H432 0.930 . S
C442 C440 1.419 . S
C442 C443 1.362 . S
C443 H433 0.930 . S
C443 C436 1.409 . S
C443 C442 1.362 . S
H444 C450 0.930 . S
H445 C453 0.930 . S
H446 C454 0.930 . S
H447 C455 0.930 . S
H448 C458 0.930 . S
H449 C459 0.930 . S
C450 H444 0.930 . S
C450 C451 1.355 . S
C450 C452 1.415 . S
C451 C450 1.355 . S
C451 C453 1.419 . S
C452 C450 1.415 . S
C452 C457 1.425 1_455 S
C452 C459 1.409 1_455 S
C453 H445 0.930 . S
C453 C451 1.419 . S
C453 C454 1.362 . S
C454 H446 0.930 . S
C454 C453 1.362 . S
C454 C457 1.409 1_455 S
C455 H447 0.930 . S
C455 C456 1.355 . S
C455 C457 1.415 . S
C456 C455 1.355 . S
C456 C458 1.419 . S
C457 C452 1.425 1_655 S
C457 C454 1.409 1_655 S
C457 C455 1.415 . S
C458 H448 0.930 . S
C458 C456 1.419 . S
C458 C459 1.362 . S
C459 H449 0.930 . S
C459 C452 1.409 1_655 S
C459 C458 1.362 . S
H460 C466 0.930 . S
H461 C469 0.930 . S
H462 C470 0.930 . S
H463 C471 0.930 . S
H464 C474 0.930 . S
H465 C475 0.930 . S
C466 H460 0.930 . S
C466 C467 1.355 . S
C466 C468 1.415 . S
C467 C466 1.355 . S
C467 C469 1.419 . S
C468 C466 1.415 . S
C468 C473 1.425 1_545 S
C468 C475 1.409 1_545 S
C469 H461 0.930 . S
C469 C467 1.419 . S
C469 C470 1.362 . S
C470 H462 0.930 . S
C470 C469 1.362 . S
C470 C473 1.409 1_545 S
C471 H463 0.930 . S
C471 C472 1.355 . S
C471 C473 1.415 . S
C472 C471 1.355 . S
C472 C474 1.419 . S
C473 C468 1.425 1_565 S
C473 C470 1.409 1_565 S
C473 C471 1.415 . S
C474 H464 0.930 . S
C474 C472 1.419 . S
C474 C475 1.362 . S
C475 H465 0.930 . S
C475 C468 1.409 1_565 S
C475 C474 1.362 . S
H476 C482 0.930 . S
H477 C485 0.930 . S
H478 C486 0.930 . S
H479 C487 0.930 . S
H480 C490 0.930 . S
H481 C491 0.930 . S
C482 H476 0.930 . S
C482 C483 1.355 . S
C482 C484 1.415 . S
C483 C482 1.355 . S
C483 C485 1.419 . S
C484 C482 1.415 . S
C484 C489 1.425 . S
C484 C491 1.409 . S
C485 H477 0.930 . S
C485 C483 1.419 . S
C485 C486 1.362 . S
C486 H478 0.930 . S
C486 C485 1.362 . S
C486 C489 1.409 . S
C487 H479 0.930 . S
C487 C488 1.355 . S
C487 C489 1.415 . S
C488 C487 1.355 . S
C488 C490 1.419 . S
C489 C484 1.425 . S
C489 C486 1.409 . S
C489 C487 1.415 . S
C490 H480 0.930 . S
C490 C488 1.419 . S
C490 C491 1.362 . S
C491 H481 0.930 . S
C491 C484 1.409 . S
C491 C490 1.362 . S
H492 C498 0.930 . S
H493 C501 0.930 . S
H494 C502 0.930 . S
H495 C503 0.930 . S
H496 C506 0.930 . S
H497 C507 0.930 . S
C498 H492 0.930 . S
C498 C499 1.355 . S
C498 C500 1.415 . S
C499 C498 1.355 . S
C499 C501 1.419 . S
C500 C498 1.415 . S
C500 C505 1.425 . S
C500 C507 1.409 . S
C501 H493 0.930 . S
C501 C499 1.419 . S
C501 C502 1.362 . S
C502 H494 0.930 . S
C502 C501 1.362 . S
C502 C505 1.409 . S
C503 H495 0.930 . S
C503 C504 1.355 . S
C503 C505 1.415 . S
C504 C503 1.355 . S
C504 C506 1.419 . S
C505 C500 1.425 . S
C505 C502 1.409 . S
C505 C503 1.415 . S
C506 H496 0.930 . S
C506 C504 1.419 . S
C506 C507 1.362 . S
C507 H497 0.930 . S
C507 C500 1.409 . S
C507 C506 1.362 . S
H508 C514 0.930 . S
H509 C517 0.930 . S
H510 C518 0.930 . S
H511 C519 0.930 . S
H512 C522 0.930 . S
H513 C523 0.932 . S
C514 H508 0.930 . S
C514 C515 1.355 . S
C514 C516 1.415 . S
C515 C514 1.355 . S
C515 C517 1.419 . S
C516 C514 1.415 . S
C516 C521 1.425 . S
C516 C523 1.413 . S
C517 H509 0.930 . S
C517 C515 1.419 . S
C517 C518 1.362 . S
C518 H510 0.930 . S
C518 C517 1.362 . S
C518 C521 1.409 . S
C519 H511 0.930 . S
C519 C520 1.355 . S
C519 C521 1.415 1_554 S
C520 C519 1.355 . S
C520 C522 1.419 . S
C521 C516 1.425 . S
C521 C518 1.409 . S
C521 C519 1.415 1_556 S
C522 H512 0.930 . S
C522 C520 1.419 . S
C522 C523 1.357 1_554 S
C523 H513 0.932 . S
C523 C516 1.413 . S
C523 C522 1.357 1_556 S
H524 C530 0.930 . S
H525 C533 0.930 . S
H526 C534 0.930 . S
H527 C535 0.930 . S
H528 C538 0.930 . S
H529 C539 0.930 . S
C530 H524 0.930 . S
C530 C531 1.355 . S
C530 C532 1.415 . S
C531 C530 1.355 . S
C531 C533 1.419 . S
C532 C530 1.415 . S
C532 C537 1.425 . S
C532 C539 1.409 . S
C533 H525 0.930 . S
C533 C531 1.419 . S
C533 C534 1.362 . S
C534 H526 0.930 . S
C534 C533 1.362 . S
C534 C537 1.409 . S
C535 H527 0.930 . S
C535 C536 1.355 . S
C535 C537 1.415 . S
C536 C535 1.355 . S
C536 C538 1.419 . S
C537 C532 1.425 . S
C537 C534 1.409 . S
C537 C535 1.415 . S
C538 H528 0.930 . S
C538 C536 1.419 . S
C538 C539 1.362 . S
C539 H529 0.930 . S
C539 C532 1.409 . S
C539 C538 1.362 . S
H540 C546 0.930 . S
H541 C549 0.930 . S
H542 C550 0.930 . S
H543 C551 0.930 . S
H544 C554 0.930 . S
H545 C555 0.930 . S
C546 H540 0.930 . S
C546 C547 1.355 . S
C546 C548 1.415 . S
C547 C546 1.355 . S
C547 C549 1.419 . S
C548 C546 1.415 . S
C548 C553 1.425 . S
C548 C555 1.409 . S
C549 H541 0.930 . S
C549 C547 1.419 . S
C549 C550 1.362 . S
C550 H542 0.930 . S
C550 C549 1.362 . S
C550 C553 1.409 . S
C551 H543 0.930 . S
C551 C552 1.355 . S
C551 C553 1.415 . S
C552 C551 1.355 . S
C552 C554 1.419 . S
C553 C548 1.425 . S
C553 C550 1.409 . S
C553 C551 1.415 . S
C554 H544 0.930 . S
C554 C552 1.419 . S
C554 C555 1.362 . S
C555 H545 0.930 . S
C555 C548 1.409 . S
C555 C554 1.362 . S
H556 C562 0.930 . S
H557 C565 0.930 . S
H558 C566 0.930 1_556 S
H559 C567 0.930 . S
H560 C570 0.930 . S
H561 C571 0.930 . S
C562 H556 0.930 . S
C562 C563 1.355 . S
C562 C564 1.415 1_554 S
C563 C562 1.355 . S
C563 C565 1.419 . S
C564 C562 1.415 1_556 S
C564 C569 1.425 . S
C564 C571 1.409 . S
C565 H557 0.930 . S
C565 C563 1.419 . S
C565 C566 1.362 . S
C566 H558 0.930 1_554 S
C566 C565 1.362 . S
C566 C569 1.409 1_554 S
C567 H559 0.930 . S
C567 C568 1.355 . S
C567 C569 1.415 . S
C568 C567 1.355 . S
C568 C570 1.419 . S
C569 C564 1.425 . S
C569 C566 1.409 1_556 S
C569 C567 1.415 . S
C570 H560 0.930 . S
C570 C568 1.419 . S
C570 C571 1.362 . S
C571 H561 0.930 . S
C571 C564 1.409 . S
C571 C570 1.362 . S
H572 C578 0.930 . S
H573 C581 0.930 . S
H574 C582 0.930 . S
H575 C583 0.930 . S
H576 C586 0.930 . S
H577 C587 0.930 . S
C578 H572 0.930 . S
C578 C579 1.355 . S
C578 C580 1.415 . S
C579 C578 1.355 . S
C579 C581 1.419 . S
C580 C578 1.415 . S
C580 C585 1.425 . S
C580 C587 1.409 . S
C581 H573 0.930 . S
C581 C579 1.419 . S
C581 C582 1.362 . S
C582 H574 0.930 . S
C582 C581 1.362 . S
C582 C585 1.409 . S
C583 H575 0.930 . S
C583 C584 1.355 . S
C583 C585 1.415 . S
C584 C583 1.355 . S
C584 C586 1.419 . S
C585 C580 1.425 . S
C585 C582 1.409 . S
C585 C583 1.415 . S
C586 H576 0.930 . S
C586 C584 1.419 . S
C586 C587 1.362 . S
C587 H577 0.930 . S
C587 C580 1.409 . S
C587 C586 1.362 . S
H588 C594 0.930 . S
H589 C597 0.930 . S
H590 C598 0.930 . S
H591 C599 0.930 . S
H592 C602 0.930 . S
H593 C603 0.930 . S
C594 H588 0.930 . S
C594 C595 1.355 . S
C594 C596 1.415 1_556 S
C595 C594 1.355 . S
C595 C597 1.419 . S
C596 C594 1.415 1_554 S
C596 C601 1.425 . S
C596 C603 1.409 . S
C597 H589 0.930 . S
C597 C595 1.419 . S
C597 C598 1.362 1_556 S
C598 H590 0.930 . S
C598 C597 1.362 1_554 S
C598 C601 1.409 . S
C599 H591 0.930 . S
C599 C600 1.355 . S
C599 C601 1.415 . S
C600 C599 1.355 . S
C600 C602 1.419 . S
C601 C596 1.425 . S
C601 C598 1.409 . S
C601 C599 1.415 . S
C602 H592 0.930 . S
C602 C600 1.419 . S
C602 C603 1.362 . S
C603 H593 0.930 . S
C603 C596 1.409 . S
C603 C602 1.362 . S
H604 C610 0.930 . S
H605 C613 0.930 . S
H606 C614 0.930 . S
H607 C615 0.930 . S
H608 C618 0.930 . S
H609 C619 0.930 . S
C610 H604 0.930 . S
C610 C611 1.355 . S
C610 C612 1.415 . S
C611 C610 1.355 . S
C611 C613 1.419 . S
C612 C610 1.415 . S
C612 C617 1.425 . S
C612 C619 1.409 . S
C613 H605 0.930 . S
C613 C611 1.419 . S
C613 C614 1.362 . S
C614 H606 0.930 . S
C614 C613 1.362 . S
C614 C617 1.409 . S
C615 H607 0.930 . S
C615 C616 1.355 . S
C615 C617 1.415 . S
C616 C615 1.355 . S
C616 C618 1.419 . S
C617 C612 1.425 . S
C617 C614 1.409 . S
C617 C615 1.415 . S
C618 H608 0.930 . S
C618 C616 1.419 . S
C618 C619 1.362 . S
C619 H609 0.930 . S
C619 C612 1.409 . S
C619 C618 1.362 . S
H620 C626 0.930 . S
H621 C629 0.930 . S
H622 C630 0.930 . S
H623 C631 0.930 . S
H624 C634 0.930 . S
H625 C635 0.930 . S
C626 H620 0.930 . S
C626 C627 1.355 . S
C626 C628 1.415 . S
C627 C626 1.355 . S
C627 C629 1.419 . S
C628 C626 1.415 . S
C628 C633 1.425 . S
C628 C635 1.409 . S
C629 H621 0.930 . S
C629 C627 1.419 . S
C629 C630 1.362 . S
C630 H622 0.930 . S
C630 C629 1.362 . S
C630 C633 1.409 . S
C631 H623 0.930 . S
C631 C632 1.355 . S
C631 C633 1.415 . S
C632 C631 1.355 . S
C632 C634 1.419 . S
C633 C628 1.425 . S
C633 C630 1.409 . S
C633 C631 1.415 . S
C634 H624 0.930 . S
C634 C632 1.419 . S
C634 C635 1.362 . S
C635 H625 0.930 . S
C635 C628 1.409 . S
C635 C634 1.362 . S
H636 C642 0.930 . S
H637 C645 0.930 . S
H638 C646 0.930 . S
H639 C647 0.930 . S
H640 C650 0.930 . S
H641 C651 0.930 1_554 S
C642 H636 0.930 . S
C642 C643 1.355 . S
C642 C644 1.415 . S
C643 C642 1.355 . S
C643 C645 1.419 . S
C644 C642 1.415 . S
C644 C649 1.425 . S
C644 C651 1.409 1_554 S
C645 H637 0.930 . S
C645 C643 1.419 . S
C645 C646 1.362 . S
C646 H638 0.930 . S
C646 C645 1.362 . S
C646 C649 1.409 . S
C647 H639 0.930 . S
C647 C648 1.355 . S
C647 C649 1.415 1_556 S
C648 C647 1.355 . S
C648 C650 1.419 . S
C649 C644 1.425 . S
C649 C646 1.409 . S
C649 C647 1.415 1_554 S
C650 H640 0.930 . S
C650 C648 1.419 . S
C650 C651 1.362 . S
C651 H641 0.930 1_556 S
C651 C644 1.409 1_556 S
C651 C650 1.362 . S
H652 C658 0.930 . S
H653 C661 0.930 . S
H654 C662 0.930 . S
H655 C663 0.930 . S
H656 C666 0.930 . S
H657 C667 0.930 . S
C658 H652 0.930 . S
C658 C659 1.355 . S
C658 C660 1.415 . S
C659 C658 1.355 . S
C659 C661 1.419 . S
C660 C658 1.415 . S
C660 C665 1.425 . S
C660 C667 1.409 . S
C661 H653 0.930 . S
C661 C659 1.419 . S
C661 C662 1.362 . S
C662 H654 0.930 . S
C662 C661 1.362 . S
C662 C665 1.409 . S
C663 H655 0.930 . S
C663 C664 1.355 . S
C663 C665 1.415 . S
C664 C663 1.355 . S
C664 C666 1.419 . S
C665 C660 1.425 . S
C665 C662 1.409 . S
C665 C663 1.415 . S
C666 H656 0.930 . S
C666 C664 1.419 . S
C666 C667 1.362 . S
C667 H657 0.930 . S
C667 C660 1.409 . S
C667 C666 1.362 . S
H668 C674 0.930 . S
H669 C677 0.930 . S
H670 C678 0.930 . S
H671 C679 0.930 . S
H672 C682 0.930 . S
H673 C683 0.930 . S
C674 H668 0.930 . S
C674 C675 1.355 . S
C674 C676 1.415 . S
C675 C674 1.355 . S
C675 C677 1.419 . S
C676 C674 1.415 . S
C676 C681 1.425 . S
C676 C683 1.409 . S
C677 H669 0.930 . S
C677 C675 1.419 . S
C677 C678 1.362 . S
C678 H670 0.930 . S
C678 C677 1.362 . S
C678 C681 1.409 . S
C679 H671 0.930 . S
C679 C680 1.355 . S
C679 C681 1.415 . S
C680 C679 1.355 . S
C680 C682 1.419 . S
C681 C676 1.425 . S
C681 C678 1.409 . S
C681 C679 1.415 . S
C682 H672 0.930 . S
C682 C680 1.419 . S
C682 C683 1.362 . S
C683 H673 0.930 . S
C683 C676 1.409 . S
C683 C682 1.362 . S
H684 C690 0.930 . S
H685 C693 0.930 . S
H686 C694 0.930 . S
H687 C695 0.930 . S
H688 C698 0.930 . S
H689 C699 0.930 . S
C690 H684 0.930 . S
C690 C691 1.355 . S
C690 C692 1.415 . S
C691 C690 1.355 . S
C691 C693 1.419 . S
C692 C690 1.415 . S
C692 C697 1.425 . S
C692 C699 1.409 . S
C693 H685 0.930 . S
C693 C691 1.419 . S
C693 C694 1.362 . S
C694 H686 0.930 . S
C694 C693 1.362 . S
C694 C697 1.409 . S
C695 H687 0.930 . S
C695 C696 1.355 . S
C695 C697 1.415 . S
C696 C695 1.355 . S
C696 C698 1.419 . S
C697 C692 1.425 . S
C697 C694 1.409 . S
C697 C695 1.415 . S
C698 H688 0.930 . S
C698 C696 1.419 . S
C698 C699 1.362 . S
C699 H689 0.930 . S
C699 C692 1.409 . S
C699 C698 1.362 . S
H700 C706 0.930 . S
H701 C709 0.930 . S
H702 C710 0.930 . S
H703 C711 0.930 . S
H704 C714 0.930 . S
H705 C715 0.930 . S
C706 H700 0.930 . S
C706 C707 1.355 . S
C706 C708 1.415 . S
C707 C706 1.355 . S
C707 C709 1.419 . S
C708 C706 1.415 . S
C708 C713 1.425 . S
C708 C715 1.409 . S
C709 H701 0.930 . S
C709 C707 1.419 . S
C709 C710 1.362 . S
C710 H702 0.930 . S
C710 C709 1.362 . S
C710 C713 1.409 . S
C711 H703 0.930 . S
C711 C712 1.355 . S
C711 C713 1.415 . S
C712 C711 1.355 . S
C712 C714 1.419 . S
C713 C708 1.425 . S
C713 C710 1.409 . S
C713 C711 1.415 . S
C714 H704 0.930 . S
C714 C712 1.419 . S
C714 C715 1.362 . S
C715 H705 0.930 . S
C715 C708 1.409 . S
C715 C714 1.362 . S
H716 C722 0.930 . S
H717 C725 0.930 . S
H718 C726 0.930 . S
H719 C727 0.930 . S
H720 C730 0.930 . S
H721 C731 0.930 . S
C722 H716 0.930 . S
C722 C723 1.355 . S
C722 C724 1.415 . S
C723 C722 1.355 . S
C723 C725 1.419 . S
C724 C722 1.415 . S
C724 C729 1.425 . S
C724 C731 1.409 . S
C725 H717 0.930 . S
C725 C723 1.419 . S
C725 C726 1.362 . S
C726 H718 0.930 . S
C726 C725 1.362 . S
C726 C729 1.409 . S
C727 H719 0.930 . S
C727 C728 1.355 . S
C727 C729 1.415 . S
C728 C727 1.355 . S
C728 C730 1.419 . S
C729 C724 1.425 . S
C729 C726 1.409 . S
C729 C727 1.415 . S
C730 H720 0.930 . S
C730 C728 1.419 . S
C730 C731 1.362 . S
C731 H721 0.930 . S
C731 C724 1.409 . S
C731 C730 1.362 . S
H732 C738 0.930 . S
H733 C741 0.930 . S
H734 C742 0.930 . S
H735 C743 0.930 . S
H736 C746 0.930 . S
H737 C747 0.930 . S
C738 H732 0.930 . S
C738 C739 1.355 . S
C738 C740 1.415 . S
C739 C738 1.355 . S
C739 C741 1.419 . S
C740 C738 1.415 . S
C740 C745 1.425 . S
C740 C747 1.409 . S
C741 H733 0.930 . S
C741 C739 1.419 . S
C741 C742 1.362 . S
C742 H734 0.930 . S
C742 C741 1.362 . S
C742 C745 1.409 . S
C743 H735 0.930 . S
C743 C744 1.355 . S
C743 C745 1.415 . S
C744 C743 1.355 . S
C744 C746 1.419 . S
C745 C740 1.425 . S
C745 C742 1.409 . S
C745 C743 1.415 . S
C746 H736 0.930 . S
C746 C744 1.419 . S
C746 C747 1.362 . S
C747 H737 0.930 . S
C747 C740 1.409 . S
C747 C746 1.362 . S
H748 C754 0.930 . S
H749 C757 0.930 . S
H750 C758 0.930 . S
H751 C759 0.930 . S
H752 C762 0.930 . S
H753 C763 0.930 . S
C754 H748 0.930 . S
C754 C755 1.355 . S
C754 C756 1.415 . S
C755 C754 1.355 . S
C755 C757 1.419 . S
C756 C754 1.415 . S
C756 C761 1.425 . S
C756 C763 1.409 . S
C757 H749 0.930 . S
C757 C755 1.419 . S
C757 C758 1.362 . S
C758 H750 0.930 . S
C758 C757 1.362 . S
C758 C761 1.409 . S
C759 H751 0.930 . S
C759 C760 1.355 . S
C759 C761 1.415 . S
C760 C759 1.355 . S
C760 C762 1.419 . S
C761 C756 1.425 . S
C761 C758 1.409 . S
C761 C759 1.415 . S
C762 H752 0.930 . S
C762 C760 1.419 . S
C762 C763 1.362 . S
C763 H753 0.930 . S
C763 C756 1.409 . S
C763 C762 1.362 . S
H764 C770 0.930 . S
H765 C773 0.930 . S
H766 C774 0.930 . S
H767 C775 0.930 . S
H768 C778 0.930 . S
H769 C779 0.930 . S
C770 H764 0.930 . S
C770 C771 1.355 . S
C770 C772 1.415 . S
C771 C770 1.355 . S
C771 C773 1.419 . S
C772 C770 1.415 . S
C772 C777 1.425 . S
C772 C779 1.409 . S
C773 H765 0.930 . S
C773 C771 1.419 . S
C773 C774 1.362 . S
C774 H766 0.930 . S
C774 C773 1.362 . S
C774 C777 1.409 . S
C775 H767 0.930 . S
C775 C776 1.355 . S
C775 C777 1.415 . S
C776 C775 1.355 . S
C776 C778 1.419 . S
C777 C772 1.425 . S
C777 C774 1.409 . S
C777 C775 1.415 . S
C778 H768 0.930 . S
C778 C776 1.419 . S
C778 C779 1.362 . S
C779 H769 0.930 . S
C779 C772 1.409 . S
C779 C778 1.362 . S
H780 C786 0.930 . S
H781 C789 0.930 . S
H782 C790 0.930 . S
H783 C791 0.930 . S
H784 C794 0.930 . S
H785 C795 0.930 . S
C786 H780 0.930 . S
C786 C787 1.355 1_554 S
C786 C788 1.415 . S
C787 C786 1.355 1_556 S
C787 C789 1.419 . S
C788 C786 1.415 . S
C788 C793 1.425 1_554 S
C788 C795 1.409 . S
C789 H781 0.930 . S
C789 C787 1.419 . S
C789 C790 1.362 . S
C790 H782 0.930 . S
C790 C789 1.362 . S
C790 C793 1.409 . S
C791 H783 0.930 . S
C791 C792 1.355 1_556 S
C791 C793 1.415 . S
C792 C791 1.355 1_554 S
C792 C794 1.419 . S
C793 C788 1.425 1_556 S
C793 C790 1.409 . S
C793 C791 1.415 . S
C794 H784 0.930 . S
C794 C792 1.419 . S
C794 C795 1.362 . S
C795 H785 0.930 . S
C795 C788 1.409 . S
C795 C794 1.362 . S
H796 C802 0.930 . S
H797 C805 0.930 . S
H798 C806 0.930 . S
H799 C807 0.930 . S
H800 C810 0.930 . S
H801 C811 0.930 . S
C802 H796 0.930 . S
C802 C803 1.355 . S
C802 C804 1.415 . S
C803 C802 1.355 . S
C803 C805 1.419 . S
C804 C802 1.415 . S
C804 C809 1.425 . S
C804 C811 1.409 . S
C805 H797 0.930 . S
C805 C803 1.419 . S
C805 C806 1.362 . S
C806 H798 0.930 . S
C806 C805 1.362 . S
C806 C809 1.409 . S
C807 H799 0.930 . S
C807 C808 1.355 . S
C807 C809 1.415 . S
C808 C807 1.355 . S
C808 C810 1.419 . S
C809 C804 1.425 . S
C809 C806 1.409 . S
C809 C807 1.415 . S
C810 H800 0.930 . S
C810 C808 1.419 . S
C810 C811 1.362 . S
C811 H801 0.930 . S
C811 C804 1.409 . S
C811 C810 1.362 . S
H812 C818 0.930 . S
H813 C821 0.930 . S
H814 C822 0.930 . S
H815 C823 0.930 . S
H816 C826 0.930 . S
H817 C827 0.930 . S
C818 H812 0.930 . S
C818 C819 1.355 . S
C818 C820 1.415 . S
C819 C818 1.355 . S
C819 C821 1.419 . S
C820 C818 1.415 . S
C820 C825 1.425 . S
C820 C827 1.409 . S
C821 H813 0.930 . S
C821 C819 1.419 . S
C821 C822 1.362 . S
C822 H814 0.930 . S
C822 C821 1.362 . S
C822 C825 1.409 . S
C823 H815 0.930 . S
C823 C824 1.355 . S
C823 C825 1.415 . S
C824 C823 1.355 . S
C824 C826 1.419 . S
C825 C820 1.425 . S
C825 C822 1.409 . S
C825 C823 1.415 . S
C826 H816 0.930 . S
C826 C824 1.419 . S
C826 C827 1.362 . S
C827 H817 0.930 . S
C827 C820 1.409 . S
C827 C826 1.362 . S
H828 C834 0.930 . S
H829 C837 0.930 . S
H830 C838 0.930 . S
H831 C839 0.930 . S
H832 C842 0.930 . S
H833 C843 0.930 . S
C834 H828 0.930 . S
C834 C835 1.355 . S
C834 C836 1.415 . S
C835 C834 1.355 . S
C835 C837 1.419 1_554 S
C836 C834 1.415 . S
C836 C841 1.425 1_554 S
C836 C843 1.409 . S
C837 H829 0.930 . S
C837 C835 1.419 1_556 S
C837 C838 1.362 . S
C838 H830 0.930 . S
C838 C837 1.362 . S
C838 C841 1.409 . S
C839 H831 0.930 . S
C839 C840 1.355 . S
C839 C841 1.415 . S
C840 C839 1.355 . S
C840 C842 1.419 1_556 S
C841 C836 1.425 1_556 S
C841 C838 1.409 . S
C841 C839 1.415 . S
C842 H832 0.930 . S
C842 C840 1.419 1_554 S
C842 C843 1.362 . S
C843 H833 0.930 . S
C843 C836 1.409 . S
C843 C842 1.362 . S
H844 C850 0.930 . S
H845 C853 0.930 . S
H846 C854 0.930 . S
H847 C855 0.930 . S
H848 C858 0.930 . S
H849 C859 0.930 . S
C850 H844 0.930 . S
C850 C851 1.355 . S
C850 C852 1.415 . S
C851 C850 1.355 . S
C851 C853 1.419 . S
C852 C850 1.415 . S
C852 C857 1.425 . S
C852 C859 1.409 . S
C853 H845 0.930 . S
C853 C851 1.419 . S
C853 C854 1.362 . S
C854 H846 0.930 . S
C854 C853 1.362 . S
C854 C857 1.409 . S
C855 H847 0.930 . S
C855 C856 1.355 . S
C855 C857 1.415 . S
C856 C855 1.355 . S
C856 C858 1.419 . S
C857 C852 1.425 . S
C857 C854 1.409 . S
C857 C855 1.415 . S
C858 H848 0.930 . S
C858 C856 1.419 . S
C858 C859 1.362 . S
C859 H849 0.930 . S
C859 C852 1.409 . S
C859 C858 1.362 . S
H860 C866 0.930 . S
H861 C869 0.930 . S
H862 C870 0.930 . S
H863 C871 0.930 . S
H864 C874 0.930 . S
H865 C875 0.930 . S
C866 H860 0.930 . S
C866 C867 1.355 . S
C866 C868 1.415 . S
C867 C866 1.355 . S
C867 C869 1.419 . S
C868 C866 1.415 . S
C868 C873 1.425 . S
C868 C875 1.409 . S
C869 H861 0.930 . S
C869 C867 1.419 . S
C869 C870 1.362 . S
C870 H862 0.930 . S
C870 C869 1.362 . S
C870 C873 1.409 . S
C871 H863 0.930 . S
C871 C872 1.355 . S
C871 C873 1.415 . S
C872 C871 1.355 . S
C872 C874 1.419 . S
C873 C868 1.425 . S
C873 C870 1.409 . S
C873 C871 1.415 . S
C874 H864 0.930 . S
C874 C872 1.419 . S
C874 C875 1.362 . S
C875 H865 0.930 . S
C875 C868 1.409 . S
C875 C874 1.362 . S
C403 C28 1.359 . S
C408 C391 1.316 . S
C419 C61 1.325 . S
C424 C226 1.334 . S
C435 C259 1.339 . S
C440 C94 1.321 . S
C451 C292 1.358 . S
C456 C127 1.316 . S
C467 C325 1.362 . S
C472 C160 1.317 . S
C483 C358 1.357 . S
C488 C193 1.352 . S
C499 N14 1.402 . S
C504 N5 1.409 . S
C515 N38 1.447 . S
C520 N47 1.442 . S
C531 N80 1.430 . S
C536 N71 1.430 . S
C547 N113 1.452 . S
C552 N104 1.453 . S
C563 N146 1.422 . S
C568 N137 1.423 . S
C579 N170 1.406 . S
C584 N179 1.402 . S
C595 N212 1.447 . S
C600 N203 1.451 . S
C611 N236 1.404 . S
C616 N245 1.397 . S
C627 N278 1.403 . S
C632 N269 1.406 . S
C643 N302 1.437 . S
C648 N311 1.437 . S
C659 N335 1.451 . S
C664 N344 1.447 . S
C675 N377 1.397 . S
C680 N368 1.402 . S
C691 C17 1.596 . S
C696 C281 1.579 . S
C707 C50 1.590 . S
C712 C314 1.580 . S
C723 C83 1.588 . S
C728 C347 1.610 . S
C739 C380 1.609 . S
C744 C116 1.599 . S
C755 C215 1.579 . S
C760 C149 1.598 . S
C771 C248 1.605 . S
C776 C182 1.581 . S
C787 C338 1.165 . S
C792 C8 1.167 . S
C803 C371 1.161 . S
C808 C41 1.125 . S
C819 C206 1.173 . S
C824 C74 1.150 . S
C835 C107 1.125 . S
C840 C239 1.128 . S
C851 C140 1.163 . S
C856 C272 1.127 . S
C867 C173 1.158 . S
C872 C305 1.123 . S
