# Generated by pormake.
# Topology uoq, (4)-cn, num edge types: 1
# Building blocks:
#     Node 0, Type 0, BuildingBlock: QUQFOY_clean_sbu_1, # of connection points: 4
#     Node 1, Type 0, BuildingBlock: QUQFOY_clean_sbu_1, # of connection points: 4
#     Node 2, Type 0, BuildingBlock: QUQFOY_clean_sbu_1, # of connection points: 4
#     Node 3, Type 0, BuildingBlock: QUQFOY_clean_sbu_1, # of connection points: 4
#     Node 4, Type 0, BuildingBlock: QUQFOY_clean_sbu_1, # of connection points: 4
#     Node 5, Type 0, BuildingBlock: QUQFOY_clean_sbu_1, # of connection points: 4
#     Node 6, Type 0, BuildingBlock: QUQFOY_clean_sbu_1, # of connection points: 4
#     Node 7, Type 0, BuildingBlock: QUQFOY_clean_sbu_1, # of connection points: 4
#     Node 8, Type 0, BuildingBlock: QUQFOY_clean_sbu_1, # of connection points: 4
#     Node 9, Type 0, BuildingBlock: QUQFOY_clean_sbu_1, # of connection points: 4
#     Node 10, Type 0, BuildingBlock: QUQFOY_clean_sbu_1, # of connection points: 4
#     Node 11, Type 0, BuildingBlock: QUQFOY_clean_sbu_1, # of connection points: 4
#     Edge 12, Type (0, 0), BuildingBlock: KIFKEQ_clean_linker_1, # of connection points: 2
#     Edge 13, Type (0, 0), BuildingBlock: KIFKEQ_clean_linker_1, # of connection points: 2
#     Edge 14, Type (0, 0), BuildingBlock: KIFKEQ_clean_linker_1, # of connection points: 2
#     Edge 15, Type (0, 0), BuildingBlock: KIFKEQ_clean_linker_1, # of connection points: 2
#     Edge 16, Type (0, 0), BuildingBlock: KIFKEQ_clean_linker_1, # of connection points: 2
#     Edge 17, Type (0, 0), BuildingBlock: KIFKEQ_clean_linker_1, # of connection points: 2
#     Edge 18, Type (0, 0), BuildingBlock: KIFKEQ_clean_linker_1, # of connection points: 2
#     Edge 19, Type (0, 0), BuildingBlock: KIFKEQ_clean_linker_1, # of connection points: 2
#     Edge 20, Type (0, 0), BuildingBlock: KIFKEQ_clean_linker_1, # of connection points: 2
#     Edge 21, Type (0, 0), BuildingBlock: KIFKEQ_clean_linker_1, # of connection points: 2
#     Edge 22, Type (0, 0), BuildingBlock: KIFKEQ_clean_linker_1, # of connection points: 2
#     Edge 23, Type (0, 0), BuildingBlock: KIFKEQ_clean_linker_1, # of connection points: 2
#     Edge 24, Type (0, 0), BuildingBlock: KIFKEQ_clean_linker_1, # of connection points: 2
#     Edge 25, Type (0, 0), BuildingBlock: KIFKEQ_clean_linker_1, # of connection points: 2
#     Edge 26, Type (0, 0), BuildingBlock: KIFKEQ_clean_linker_1, # of connection points: 2
#     Edge 27, Type (0, 0), BuildingBlock: KIFKEQ_clean_linker_1, # of connection points: 2
#     Edge 28, Type (0, 0), BuildingBlock: KIFKEQ_clean_linker_1, # of connection points: 2
#     Edge 29, Type (0, 0), BuildingBlock: KIFKEQ_clean_linker_1, # of connection points: 2
#     Edge 30, Type (0, 0), BuildingBlock: KIFKEQ_clean_linker_1, # of connection points: 2
#     Edge 31, Type (0, 0), BuildingBlock: KIFKEQ_clean_linker_1, # of connection points: 2
#     Edge 32, Type (0, 0), BuildingBlock: KIFKEQ_clean_linker_1, # of connection points: 2
#     Edge 33, Type (0, 0), BuildingBlock: KIFKEQ_clean_linker_1, # of connection points: 2
#     Edge 34, Type (0, 0), BuildingBlock: KIFKEQ_clean_linker_1, # of connection points: 2
#     Edge 35, Type (0, 0), BuildingBlock: KIFKEQ_clean_linker_1, # of connection points: 2
# Relax obj value: 0.145
# Max RMSD: 0.205
# Mean RMSD: 0.205
data_MOF--net-uoq--node1-QUQFOY_clean_sbu_1--edge1-KIFKEQ_clean_linker_1
_symmetry_space_group_name_H-M    P1
_symmetry_Int_Tables_number       1
_symmetry_cell_setting            triclinic
loop_
_symmetry_equiv_pos_as_xyz
'x, y, z'
_cell_length_a     65.515342
_cell_length_b     65.490921
_cell_length_c     23.920321
_cell_angle_alpha  89.948984
_cell_angle_beta   90.030761
_cell_angle_gamma 119.93948
loop_
_atom_site_label
_atom_site_type_symbol
_atom_site_fract_x
_atom_site_fract_y
_atom_site_fract_z
_atom_type_partial_charge
O0 O 0.27447 0.45918 0.30697 0.0
Cd1 Cd 0.29828 0.47039 0.24256 0.0
Cd2 Cd 0.31378 0.44252 0.30884 0.0
O3 O 0.28417 0.4359 0.3524 0.0
O4 O 0.28656 0.48739 0.19528 0.0
O5 O 0.28643 0.45526 0.16691 0.0
C6 C 0.28114 0.4715 0.15758 0.0
C7 C 0.32233 0.41194 0.30982 0.0
C8 C 0.27105 0.44486 0.34643 0.0
C9 C 0.3476 0.49485 0.29064 0.0
O10 O 0.34301 0.47557 0.31386 0.0
O11 O 0.33257 0.49609 0.25931 0.0
O12 O 0.32366 0.42353 0.35428 0.0
O13 O 0.31592 0.41753 0.26396 0.0
O14 O 0.8098 0.28122 0.64608 0.0
Cd15 Cd 0.82279 0.30009 0.57391 0.0
Cd16 Cd 0.86638 0.31528 0.63769 0.0
O17 O 0.84279 0.288 0.68713 0.0
O18 O 0.79342 0.28725 0.52904 0.0
O19 O 0.82351 0.28299 0.50416 0.0
C20 C 0.80227 0.27859 0.49492 0.0
C21 C 0.90505 0.32248 0.64497 0.0
C22 C 0.82048 0.27752 0.68554 0.0
C23 C 0.85069 0.35085 0.60673 0.0
O24 O 0.86441 0.34578 0.63319 0.0
O25 O 0.83376 0.33539 0.57779 0.0
O26 O 0.89481 0.32674 0.68536 0.0
O27 O 0.89321 0.31379 0.59954 0.0
O28 O 0.5289 0.81505 0.973 0.0
Cd29 Cd 0.5231 0.83074 0.90536 0.0
Cd30 Cd 0.55102 0.87042 0.97642 0.0
O31 O 0.55703 0.84614 0.01595 0.0
O32 O 0.50735 0.80275 0.85594 0.0
O33 O 0.54121 0.83431 0.83421 0.0
C34 C 0.52503 0.81305 0.82255 0.0
C35 C 0.58182 0.90934 0.9819 0.0
C36 C 0.54447 0.82399 0.01086 0.0
C37 C 0.49976 0.85592 0.95167 0.0
O38 O 0.51801 0.86713 0.98191 0.0
O39 O 0.49894 0.84187 0.91398 0.0
O40 O 0.56929 0.89837 0.02475 0.0
O41 O 0.57714 0.89803 0.93516 0.0
O42 O 0.71421 0.53291 0.30406 0.0
Cd43 Cd 0.69222 0.525 0.23652 0.0
Cd44 Cd 0.6776 0.55131 0.3087 0.0
O45 O 0.70803 0.55865 0.34926 0.0
O46 O 0.70551 0.50935 0.18992 0.0
O47 O 0.7059 0.54185 0.16336 0.0
C48 C 0.71191 0.52614 0.15422 0.0
C49 C 0.66784 0.58103 0.31431 0.0
C50 C 0.71934 0.54778 0.34309 0.0
C51 C 0.64343 0.4994 0.28302 0.0
O52 O 0.64909 0.5175 0.31291 0.0
O53 O 0.65743 0.49948 0.24616 0.0
O54 O 0.66642 0.5684 0.35689 0.0
O55 O 0.67503 0.57692 0.26767 0.0
O56 O 0.17779 0.71063 0.63375 0.0
Cd57 Cd 0.16103 0.68894 0.56689 0.0
Cd58 Cd 0.12242 0.67915 0.6381 0.0
O59 O 0.1472 0.71028 0.6729 0.0
O60 O 0.18826 0.69811 0.51605 0.0
O61 O 0.15892 0.7042 0.4951 0.0
C62 C 0.1792 0.70671 0.48229 0.0
C63 C 0.08374 0.67181 0.64067 0.0
C64 C 0.16926 0.71865 0.6694 0.0
C65 C 0.13531 0.64137 0.61883 0.0
O66 O 0.12557 0.64962 0.65039 0.0
O67 O 0.14799 0.65333 0.57784 0.0
O68 O 0.09477 0.67217 0.68546 0.0
O69 O 0.09478 0.67593 0.59364 0.0
O70 O 0.45365 0.17571 0.96854 0.0
Cd71 Cd 0.46512 0.16369 0.90304 0.0
Cd72 Cd 0.43718 0.12011 0.9707 0.0
O73 O 0.43009 0.1428 0.01361 0.0
O74 O 0.48169 0.19335 0.85882 0.0
O75 O 0.45075 0.16117 0.82669 0.0
C76 C 0.46632 0.18311 0.81996 0.0
C77 C 0.40684 0.08095 0.97367 0.0
C78 C 0.43918 0.16487 0.00773 0.0
C79 C 0.48953 0.13861 0.95044 0.0
O80 O 0.47053 0.12462 0.97567 0.0
O81 O 0.49059 0.1544 0.91755 0.0
O82 O 0.41879 0.09158 0.01744 0.0
O83 O 0.4121 0.09251 0.92721 0.0
O84 O 0.53153 0.71469 0.35193 0.0
Cd85 Cd 0.52385 0.69403 0.42149 0.0
Cd86 Cd 0.54987 0.67738 0.35231 0.0
O87 O 0.55488 0.70567 0.30479 0.0
O88 O 0.50926 0.70873 0.46693 0.0
O89 O 0.54132 0.70827 0.49364 0.0
C90 C 0.52613 0.71501 0.50231 0.0
C91 C 0.57995 0.66817 0.34421 0.0
C92 C 0.5448 0.71778 0.31048 0.0
C93 C 0.49806 0.64384 0.38362 0.0
O94 O 0.51656 0.6481 0.35691 0.0
O95 O 0.49762 0.65952 0.41399 0.0
O96 O 0.56562 0.66477 0.30391 0.0
O97 O 0.57741 0.67713 0.38993 0.0
O98 O 0.81527 0.53419 0.68316 0.0
Cd99 Cd 0.82911 0.52593 0.75012 0.0
Cd100 Cd 0.87092 0.55387 0.68264 0.0
O101 O 0.84751 0.56027 0.63972 0.0
O102 O 0.80018 0.50995 0.7966 0.0
O103 O 0.83224 0.54224 0.82398 0.0
C104 C 0.81053 0.5265 0.83282 0.0
C105 C 0.9098 0.5848 0.68021 0.0
C106 C 0.82527 0.54915 0.64445 0.0
C107 C 0.85391 0.50173 0.70389 0.0
O108 O 0.86744 0.52073 0.67793 0.0
O109 O 0.83835 0.50058 0.73751 0.0
O110 O 0.89937 0.5729 0.63622 0.0
O111 O 0.89814 0.57924 0.72652 0.0
O112 O 0.28048 0.81257 0.01226 0.0
Cd113 Cd 0.30036 0.82767 0.08261 0.0
Cd114 Cd 0.31155 0.86821 0.01599 0.0
O115 O 0.28149 0.84399 0.97605 0.0
O116 O 0.28975 0.7993 0.13052 0.0
O117 O 0.2835 0.82842 0.15282 0.0
C118 C 0.2805 0.8078 0.16398 0.0
C119 C 0.31879 0.90688 0.01377 0.0
C120 C 0.27329 0.82191 0.97663 0.0
C121 C 0.3491 0.85499 0.0382 0.0
O122 O 0.34156 0.86563 0.0074 0.0
O123 O 0.33614 0.84095 0.07625 0.0
O124 O 0.31948 0.89629 0.96925 0.0
O125 O 0.31366 0.89542 0.06037 0.0
O126 O 0.45472 0.27501 0.34346 0.0
Cd127 Cd 0.46684 0.29859 0.4088 0.0
Cd128 Cd 0.44041 0.31559 0.3406 0.0
O129 O 0.43221 0.28554 0.29761 0.0
O130 O 0.48272 0.28472 0.45293 0.0
O131 O 0.45246 0.28716 0.48534 0.0
C132 C 0.46754 0.28012 0.49196 0.0
C133 C 0.4108 0.32549 0.34015 0.0
C134 C 0.44052 0.27189 0.30395 0.0
C135 C 0.49289 0.34793 0.36063 0.0
O136 O 0.47419 0.3436 0.33485 0.0
O137 O 0.49316 0.33297 0.39415 0.0
O138 O 0.42221 0.32652 0.29557 0.0
O139 O 0.41622 0.3189 0.38598 0.0
O140 O 0.17425 0.45771 0.68349 0.0
Cd141 Cd 0.16137 0.46737 0.75076 0.0
Cd142 Cd 0.11799 0.43923 0.68153 0.0
O143 O 0.14169 0.43418 0.63703 0.0
O144 O 0.19061 0.48514 0.79587 0.0
O145 O 0.16006 0.452 0.82515 0.0
C146 C 0.18135 0.46891 0.8333 0.0
C147 C 0.07908 0.40837 0.67429 0.0
C148 C 0.1638 0.44378 0.6431 0.0
C149 C 0.13479 0.49091 0.70736 0.0
O150 O 0.12126 0.47211 0.68094 0.0
O151 O 0.15082 0.49207 0.73946 0.0
O152 O 0.08988 0.42206 0.63291 0.0
O153 O 0.09048 0.41202 0.72065 0.0
O154 O 0.70901 0.17787 0.02468 0.0
Cd155 Cd 0.68628 0.16022 0.08934 0.0
Cd156 Cd 0.67599 0.12272 0.01217 0.0
O157 O 0.70685 0.14799 0.9773 0.0
O158 O 0.69512 0.18695 0.1414 0.0
O159 O 0.70056 0.15717 0.16184 0.0
C160 C 0.70308 0.17738 0.17539 0.0
C161 C 0.66852 0.08403 0.0059 0.0
C162 C 0.7163 0.16996 0.98579 0.0
C163 C 0.63867 0.136 0.03646 0.0
O164 O 0.64642 0.12609 0.00397 0.0
O165 O 0.65099 0.14837 0.07738 0.0
O166 O 0.66762 0.0953 0.96279 0.0
O167 O 0.67413 0.09493 0.05328 0.0
H168 H 0.3194 0.38471 0.39839 0.0
H169 H 0.34157 0.39887 0.22607 0.0
H170 H 0.33583 0.35871 0.40629 0.0
H171 H 0.35945 0.37417 0.23449 0.0
H172 H 0.38331 0.32209 0.25189 0.0
H173 H 0.35672 0.33781 0.24412 0.0
H174 H 0.37264 0.36237 0.41513 0.0
H175 H 0.39797 0.34517 0.4235 0.0
C176 C 0.32773 0.38212 0.36209 0.0
C177 C 0.32939 0.39385 0.31171 0.0
C178 C 0.33735 0.36739 0.3667 0.0
C179 C 0.34939 0.36455 0.32141 0.0
C180 C 0.35008 0.37557 0.27019 0.0
C181 C 0.33993 0.38986 0.26526 0.0
C182 C 0.38075 0.33053 0.28803 0.0
C183 C 0.39277 0.33261 0.33818 0.0
C184 C 0.36565 0.33972 0.28349 0.0
C185 C 0.36272 0.35177 0.32862 0.0
C186 C 0.37411 0.35297 0.37959 0.0
C187 C 0.38878 0.34324 0.38447 0.0
H188 H 0.93295 0.34046 0.73646 0.0
H189 H 0.93347 0.31871 0.56619 0.0
H190 H 0.97501 0.35595 0.74303 0.0
H191 H 0.97584 0.33364 0.57339 0.0
H192 H 0.05132 0.39871 0.58246 0.0
H193 H 0.00917 0.37258 0.57574 0.0
H194 H 0.00786 0.34964 0.74591 0.0
H195 H 0.05027 0.37663 0.75325 0.0
C196 C 0.942 0.33856 0.70068 0.0
C197 C 0.92995 0.32871 0.65045 0.0
C198 C 0.96616 0.34724 0.70469 0.0
C199 C 0.97889 0.34619 0.65865 0.0
C200 C 0.96659 0.33506 0.60936 0.0
C201 C 0.94233 0.32643 0.60527 0.0
C202 C 0.04214 0.3879 0.61832 0.0
C203 C 0.05407 0.39003 0.66875 0.0
C204 C 0.01793 0.37268 0.61423 0.0
C205 C 0.00505 0.3591 0.66039 0.0
C206 C 0.01722 0.36017 0.70986 0.0
C207 C 0.04151 0.37556 0.71405 0.0
H208 H 0.59168 0.93763 0.07266 0.0
H209 H 0.61279 0.93792 0.90141 0.0
H210 H 0.61747 0.97985 0.07782 0.0
H211 H 0.6396 0.98042 0.90725 0.0
H212 H 0.67105 0.05543 0.08611 0.0
H213 H 0.65573 0.01301 0.07989 0.0
H214 H 0.63456 0.01374 0.90896 0.0
H215 H 0.65069 0.05596 0.91451 0.0
C216 C 0.60223 0.94667 0.03636 0.0
C217 C 0.59994 0.93449 0.98632 0.0
C218 C 0.61726 0.97095 0.03953 0.0
C219 C 0.63057 0.98366 0.99287 0.0
C220 C 0.62927 0.97124 0.94368 0.0
C221 C 0.61401 0.94689 0.94036 0.0
C222 C 0.66347 0.04653 0.047 0.0
C223 C 0.66181 0.05897 0.00107 0.0
C224 C 0.6546 0.02221 0.04345 0.0
C225 C 0.64365 0.00985 -0.0059 0.0
C226 C 0.64311 0.02261 0.9474 0.0
C227 C 0.65218 0.04687 0.95078 0.0
H228 H 0.66834 0.61096 0.23327 0.0
H229 H 0.65033 0.59126 0.40637 0.0
H230 H 0.65226 0.63745 0.24012 0.0
H231 H 0.63367 0.61692 0.41269 0.0
H232 H 0.58744 0.64782 0.25355 0.0
H233 H 0.61322 0.63135 0.2462 0.0
H234 H 0.63936 0.65593 0.41297 0.0
H235 H 0.61276 0.67185 0.42103 0.0
C236 C 0.66112 0.61241 0.27282 0.0
C237 C 0.66034 0.59881 0.31903 0.0
C238 C 0.65184 0.62751 0.27674 0.0
C239 C 0.64149 0.62919 0.32685 0.0
C240 C 0.64175 0.61636 0.37367 0.0
C241 C 0.65111 0.60142 0.36984 0.0
C242 C 0.59885 0.64997 0.28853 0.0
C243 C 0.59782 0.66084 0.33823 0.0
C244 C 0.61385 0.6407 0.28406 0.0
C245 C 0.62831 0.64219 0.32907 0.0
C246 C 0.62817 0.65416 0.37783 0.0
C247 C 0.61301 0.66336 0.38241 0.0
H248 H 0.93281 0.61188 0.59053 0.0
H249 H 0.94292 0.59901 0.76249 0.0
H250 H 0.97497 0.63848 0.5804 0.0
H251 H 0.98529 0.62442 0.75184 0.0
H252 H 0.06077 0.67684 0.72941 0.0
H253 H 0.01856 0.66118 0.73954 0.0
H254 H 0.00807 0.63465 0.57011 0.0
H255 H 0.05038 0.6516 0.55937 0.0
C256 C 0.94413 0.6149 0.62628 0.0
C257 C 0.93473 0.6033 0.67716 0.0
C258 C 0.96833 0.62999 0.62039 0.0
C259 C 0.98374 0.63335 0.66489 0.0
C260 C 0.97407 0.62256 0.71671 0.0
C261 C 0.94976 0.60787 0.72291 0.0
C262 C 0.04939 0.66804 0.69406 0.0
C263 C 0.05875 0.66526 0.64372 0.0
C264 C 0.02517 0.65888 0.69997 0.0
C265 C 0.00971 0.64627 0.65604 0.0
C266 C 0.01932 0.6445 0.60475 0.0
C267 C 0.04362 0.65411 0.59851 0.0
H268 H 0.31401 0.93008 0.92518 0.0
H269 H 0.33884 0.94001 0.09555 0.0
H270 H 0.33007 0.97237 0.91517 0.0
H271 H 0.35627 0.98242 0.08492 0.0
H272 H 0.38014 0.05807 0.0639 0.0
H273 H 0.35331 0.01595 0.07442 0.0
H274 H 0.36692 0.00528 0.90294 0.0
H275 H 0.39251 0.04762 0.8919 0.0
C276 C 0.3228 0.94138 0.96063 0.0
C277 C 0.32536 0.93188 0.01102 0.0
C278 C 0.33221 0.96565 0.95478 0.0
C279 C 0.3449 0.98101 -0.0012 0.0
C280 C 0.3464 0.97126 0.05019 0.0
C281 C 0.3365 0.94691 0.05638 0.0
C282 C 0.37699 0.04667 0.02825 0.0
C283 C 0.38848 0.05597 0.97721 0.0
C284 C 0.36177 0.0225 0.03436 0.0
C285 C 0.35815 0.007 0.98992 0.0
C286 C 0.36893 0.01657 0.93802 0.0
C287 C 0.38374 0.04085 0.93159 0.0
H288 H 0.17061 0.43408 0.91093 0.0
H289 H 0.22426 0.50462 0.86528 0.0
H290 H 0.19548 0.43447 0.98793 0.0
H291 H 0.24899 0.50488 0.94143 0.0
H292 H 0.27334 0.50643 0.12178 0.0
H293 H 0.24881 0.50539 0.04428 0.0
H294 H 0.23402 0.43519 0.00218 0.0
H295 H 0.25859 0.43613 0.08052 0.0
C296 C 0.1876 0.44969 0.91752 0.0
C297 C 0.19542 0.46935 0.88217 0.0
C298 C 0.20193 0.44982 0.9612 0.0
C299 C 0.22421 0.46968 0.9706 0.0
C300 C 0.23183 0.48939 0.93558 0.0
C301 C 0.21765 0.48921 0.89186 0.0
C302 C 0.26503 0.49081 0.0958 0.0
C303 C 0.26795 0.47137 0.10724 0.0
C304 C 0.251 0.49025 0.05128 0.0
C305 C 0.23942 0.47018 0.01725 0.0
C306 C 0.24253 0.4508 0.02813 0.0
C307 C 0.25677 0.45143 0.07257 0.0
H308 H 0.81432 0.25558 0.417 0.0
H309 H 0.75727 0.26649 0.46869 0.0
H310 H 0.78946 0.2295 0.34211 0.0
H311 H 0.73253 0.24029 0.39523 0.0
H312 H 0.70673 0.21758 0.21712 0.0
H313 H 0.7309 0.24133 0.2943 0.0
H314 H 0.75332 0.19054 0.32592 0.0
H315 H 0.72921 0.16672 0.24724 0.0
C316 C 0.79653 0.25244 0.41238 0.0
C317 C 0.78785 0.26328 0.44845 0.0
C318 C 0.78224 0.23734 0.3699 0.0
C319 C 0.75905 0.23288 0.3627 0.0
C320 C 0.75041 0.24361 0.39912 0.0
C321 C 0.76462 0.25863 0.44135 0.0
C322 C 0.71662 0.2113 0.24071 0.0
C323 C 0.71602 0.19023 0.22608 0.0
C324 C 0.73044 0.22491 0.28516 0.0
C325 C 0.74404 0.21783 0.31626 0.0
C326 C 0.74321 0.19656 0.30232 0.0
C327 C 0.72924 0.18282 0.25771 0.0
H328 H 0.50562 0.76576 0.8137 0.0
H329 H 0.54962 0.83072 0.72487 0.0
H330 H 0.50918 0.74339 0.73646 0.0
H331 H 0.55246 0.80799 0.64635 0.0
H332 H 0.51051 0.74622 0.50574 0.0
H333 H 0.5134 0.7719 0.58301 0.0
H334 H 0.54921 0.74445 0.68254 0.0
H335 H 0.54707 0.71912 0.60418 0.0
C336 C 0.51596 0.77525 0.7775 0.0
C337 C 0.52721 0.79997 0.77496 0.0
C338 C 0.51815 0.76244 0.73371 0.0
C339 C 0.5312 0.77406 0.68604 0.0
C340 C 0.54242 0.79876 0.6831 0.0
C341 C 0.54074 0.81168 0.72772 0.0
C342 C 0.51913 0.74574 0.54398 0.0
C343 C 0.52842 0.73057 0.54928 0.0
C344 C 0.52094 0.76057 0.58783 0.0
C345 C 0.53161 0.76012 0.63819 0.0
C346 C 0.54102 0.74508 0.64371 0.0
C347 C 0.53975 0.73063 0.59916 0.0
H348 H 0.71696 0.54816 0.05334 0.0
H349 H 0.74127 0.5083 0.1485 0.0
H350 H 0.74216 0.55018 0.97482 0.0
H351 H 0.76682 0.51105 0.0711 0.0
H352 H 0.82738 0.54816 0.93402 0.0
H353 H 0.80417 0.55006 0.01262 0.0
H354 H 0.74051 0.5112 0.91613 0.0
H355 H 0.76334 0.50858 0.83864 0.0
C356 C 0.72777 0.54002 0.05756 0.0
C357 C 0.72701 0.52788 0.10664 0.0
C358 C 0.74215 0.54122 0.0129 0.0
C359 C 0.75644 0.53091 0.01752 0.0
C360 C 0.75608 0.51928 0.06697 0.0
C361 C 0.74131 0.51756 0.1109 0.0
C362 C 0.80844 0.54003 0.92978 0.0
C363 C 0.79712 0.52803 0.88059 0.0
C364 C 0.79524 0.54117 0.97448 0.0
C365 C 0.77068 0.53092 0.96982 0.0
C366 C 0.75946 0.51939 0.92029 0.0
C367 C 0.77252 0.51773 0.87632 0.0
H368 H 0.16832 0.73213 0.40863 0.0
H369 H 0.22094 0.71259 0.44484 0.0
H370 H 0.19261 0.75692 0.33135 0.0
H371 H 0.2452 0.73752 0.3691 0.0
H372 H 0.27147 0.76409 0.19468 0.0
H373 H 0.24575 0.73917 0.26862 0.0
H374 H 0.23039 0.7938 0.31533 0.0
H375 H 0.25594 0.81878 0.23986 0.0
C376 C 0.18495 0.73299 0.39989 0.0
C377 C 0.19265 0.72031 0.43272 0.0
C378 C 0.19896 0.74736 0.35604 0.0
C379 C 0.22086 0.74922 0.34411 0.0
C380 C 0.22831 0.73627 0.3766 0.0
C381 C 0.21439 0.722 0.42024 0.0
C382 C 0.26274 0.77092 0.22079 0.0
C383 C 0.26588 0.79351 0.21154 0.0
C384 C 0.248 0.7566 0.26335 0.0
C385 C 0.23604 0.76449 0.29801 0.0
C386 C 0.23916 0.78711 0.28893 0.0
C387 C 0.25397 0.8015 0.24611 0.0
H388 H 0.48473 0.23047 0.81364 0.0
H389 H 0.44668 0.16664 0.71679 0.0
H390 H 0.48345 0.2535 0.73472 0.0
H391 H 0.44607 0.18999 0.63698 0.0
H392 H 0.4846 0.25002 0.49814 0.0
H393 H 0.48273 0.22551 0.57716 0.0
H394 H 0.44725 0.25364 0.67536 0.0
H395 H 0.44845 0.27784 0.59544 0.0
C396 C 0.47623 0.22138 0.77534 0.0
C397 C 0.4659 0.19676 0.77119 0.0
C398 C 0.47536 0.23456 0.73046 0.0
C399 C 0.4646 0.22345 0.68014 0.0
C400 C 0.45444 0.19888 0.67557 0.0
C401 C 0.45481 0.18557 0.72105 0.0
C402 C 0.47639 0.25101 0.53656 0.0
C403 C 0.46676 0.26593 0.5408 0.0
C404 C 0.47518 0.23685 0.5815 0.0
C405 C 0.46479 0.23769 0.63198 0.0
C406 C 0.45534 0.25274 0.63665 0.0
C407 C 0.45603 0.26653 0.59111 0.0
H408 H 0.14915 0.42292 0.54096 0.0
H409 H 0.20985 0.45506 0.65018 0.0
H410 H 0.17306 0.41892 0.46835 0.0
H411 H 0.23364 0.451 0.57742 0.0
H412 H 0.26524 0.42408 0.44867 0.0
H413 H 0.23721 0.41978 0.52136 0.0
H414 H 0.2072 0.45006 0.411 0.0
H415 H 0.23513 0.45442 0.33827 0.0
C416 C 0.1675 0.42887 0.54973 0.0
C417 C 0.17769 0.43949 0.60111 0.0
C418 C 0.18115 0.42663 0.50812 0.0
C419 C 0.20512 0.4347 0.51742 0.0
C420 C 0.21511 0.44445 0.56949 0.0
C421 C 0.20154 0.44692 0.61091 0.0
C422 C 0.25244 0.4295 0.43961 0.0
C423 C 0.2525 0.43978 0.38795 0.0
C424 C 0.23651 0.42712 0.48128 0.0
C425 C 0.22019 0.43468 0.47169 0.0
C426 C 0.21951 0.44393 0.41921 0.0
C427 C 0.23559 0.44655 0.37777 0.0
H428 H 0.83436 0.25511 0.76005 0.0
H429 H 0.77548 0.26419 0.71451 0.0
H430 H 0.8112 0.22932 0.83744 0.0
H431 H 0.75275 0.2389 0.79204 0.0
H432 H 0.73182 0.21677 0.97331 0.0
H433 H 0.75905 0.24326 0.9028 0.0
H434 H 0.76993 0.18744 0.84167 0.0
H435 H 0.74238 0.16062 0.91181 0.0
C436 C 0.81655 0.25163 0.76663 0.0
C437 C 0.80668 0.26159 0.73134 0.0
C438 C 0.80337 0.23691 0.81066 0.0
C439 C 0.7804 0.23243 0.82054 0.0
C440 C 0.77056 0.24238 0.78535 0.0
C441 C 0.78351 0.25668 0.74087 0.0
C442 C 0.74023 0.21018 0.94539 0.0
C443 C 0.7348 0.18656 0.94764 0.0
C444 C 0.75573 0.22533 0.90507 0.0
C445 C 0.76633 0.21721 0.86698 0.0
C446 C 0.76194 0.194 0.87091 0.0
C447 C 0.74613 0.1787 0.91075 0.0
H448 H 0.51309 0.77789 0.03115 0.0
H449 H 0.58134 0.83482 0.08165 0.0
H450 H 0.51536 0.75279 0.10328 0.0
H451 H 0.58362 0.80926 0.15344 0.0
H452 H 0.57887 0.73782 0.22966 0.0
H453 H 0.58099 0.76433 0.15431 0.0
H454 H 0.51798 0.76164 0.21713 0.0
H455 H 0.51596 0.73575 0.29262 0.0
C456 C 0.52872 0.78494 0.05706 0.0
C457 C 0.54697 0.80837 0.05113 0.0
C458 C 0.52995 0.77058 0.09826 0.0
C459 C 0.54961 0.77927 0.13353 0.0
C460 C 0.56836 0.8023 0.1263 0.0
C461 C 0.56696 0.81687 0.0856 0.0
C462 C 0.56561 0.74307 0.22753 0.0
C463 C 0.54723 0.73471 0.26685 0.0
C464 C 0.56689 0.75821 0.18471 0.0
C465 C 0.54955 0.76471 0.18024 0.0
C466 C 0.53143 0.75665 0.21986 0.0
C467 C 0.53037 0.74194 0.26306 0.0
H468 H 0.74184 0.58373 0.4184 0.0
H469 H 0.73792 0.51933 0.36016 0.0
H470 H 0.76946 0.58689 0.49179 0.0
H471 H 0.76501 0.52244 0.43388 0.0
H472 H 0.77868 0.51994 0.62507 0.0
H473 H 0.75502 0.52234 0.54964 0.0
H474 H 0.81459 0.58727 0.49263 0.0
H475 H 0.83879 0.58481 0.56789 0.0
C476 C 0.74702 0.57042 0.42093 0.0
C477 C 0.73762 0.55119 0.38388 0.0
C478 C 0.76283 0.57233 0.46259 0.0
C479 C 0.76906 0.55483 0.46808 0.0
C480 C 0.76029 0.53606 0.43014 0.0
C481 C 0.74485 0.53435 0.38806 0.0
C482 C 0.78676 0.5349 0.59697 0.0
C483 C 0.81064 0.55213 0.60215 0.0
C484 C 0.77322 0.53618 0.55382 0.0
C485 C 0.78318 0.55489 0.5157 0.0
C486 C 0.8067 0.57272 0.5219 0.0
C487 C 0.82046 0.57124 0.56467 0.0
H488 H 0.21532 0.73283 0.69017 0.0
H489 H 0.15853 0.74435 0.74135 0.0
H490 H 0.23994 0.75875 0.76479 0.0
H491 H 0.18341 0.77045 0.81589 0.0
H492 H 0.24856 0.83393 0.9046 0.0
H493 H 0.22325 0.8103 0.82749 0.0
H494 H 0.23535 0.75336 0.8725 0.0
H495 H 0.26044 0.77669 0.9496 0.0
C496 C 0.20819 0.74112 0.71682 0.0
C497 C 0.18493 0.73641 0.71023 0.0
C498 C 0.22224 0.75582 0.75965 0.0
C499 C 0.21338 0.76629 0.79616 0.0
C500 C 0.19056 0.76253 0.7881 0.0
C501 C 0.17636 0.74757 0.74563 0.0
C502 C 0.24566 0.8163 0.89826 0.0
C503 C 0.25654 0.80717 0.93298 0.0
C504 C 0.23118 0.80283 0.8543 0.0
C505 C 0.22767 0.78022 0.844 0.0
C506 C 0.23811 0.77092 0.87931 0.0
C507 C 0.2523 0.78421 0.92363 0.0
H508 H 0.41745 0.14963 0.10886 0.0
H509 H 0.44947 0.21062 0.00038 0.0
H510 H 0.41299 0.17324 0.18156 0.0
H511 H 0.44496 0.23409 0.07315 0.0
H512 H 0.41916 0.26608 0.20252 0.0
H513 H 0.41408 0.23778 0.12986 0.0
H514 H 0.4442 0.20722 0.23907 0.0
H515 H 0.44932 0.23542 0.31181 0.0
C516 C 0.4232 0.16796 0.1002 0.0
C517 C 0.43402 0.17835 0.04911 0.0
C518 C 0.42071 0.18144 0.14187 0.0
C519 C 0.4287 0.20543 0.13288 0.0
C520 C 0.43847 0.21555 0.08089 0.0
C521 C 0.4412 0.20215 0.03943 0.0
C522 C 0.42437 0.25309 0.21137 0.0
C523 C 0.43487 0.25311 0.26267 0.0
C524 C 0.42152 0.23698 0.16972 0.0
C525 C 0.42884 0.22046 0.17893 0.0
C526 C 0.43823 0.21968 0.23115 0.0
C527 C 0.44131 0.23593 0.27259 0.0
H528 H 0.38673 0.49762 0.33886 0.0
H529 H 0.35971 0.54066 0.27079 0.0
H530 H 0.42328 0.53313 0.36442 0.0
H531 H 0.39629 0.57611 0.29656 0.0
H532 H 0.45296 0.63215 0.41044 0.0
H533 H 0.41678 0.5957 0.38792 0.0
H534 H 0.45769 0.5674 0.31494 0.0
H535 H 0.49392 0.60382 0.33723 0.0
C536 C 0.38862 0.51464 0.32911 0.0
C537 C 0.3703 0.51632 0.30282 0.0
C538 C 0.40956 0.53494 0.34365 0.0
C539 C 0.4125 0.55732 0.33282 0.0
C540 C 0.39433 0.55904 0.30602 0.0
C541 C 0.37349 0.53875 0.29085 0.0
C542 C 0.45427 0.61807 0.39018 0.0
C543 C 0.47631 0.62092 0.37544 0.0
C544 C 0.43355 0.5973 0.37689 0.0
C545 C 0.43448 0.57886 0.34926 0.0
C546 C 0.4565 0.58133 0.33637 0.0
C547 C 0.47722 0.6022 0.34904 0.0
H548 H 0.82124 0.45619 0.72842 0.0
H549 H 0.88928 0.4987 0.65064 0.0
H550 H 0.8217 0.42056 0.70103 0.0
H551 H 0.88971 0.46289 0.62368 0.0
H552 H 0.88832 0.39052 0.64957 0.0
H553 H 0.89025 0.4278 0.67272 0.0
H554 H 0.82031 0.4014 0.60593 0.0
H555 H 0.81832 0.36422 0.58233 0.0
C556 C 0.8364 0.45795 0.706 0.0
C557 C 0.8552 0.48027 0.69158 0.0
C558 C 0.83655 0.43755 0.68993 0.0
C559 C 0.85563 0.43904 0.65979 0.0
C560 C 0.8748 0.46131 0.6469 0.0
C561 C 0.8745 0.48175 0.66228 0.0
C562 C 0.87348 0.39278 0.63915 0.0
C563 C 0.85312 0.37437 0.61434 0.0
C564 C 0.87462 0.41412 0.65233 0.0
C565 C 0.85532 0.4173 0.64166 0.0
C566 C 0.8353 0.39923 0.61523 0.0
C567 C 0.83427 0.37804 0.60134 0.0
H568 H 0.49105 0.87485 0.04395 0.0
H569 H 0.46108 0.8422 0.88503 0.0
H570 H 0.4555 0.87651 0.06544 0.0
H571 H 0.4256 0.84412 0.90661 0.0
H572 H 0.37643 0.87382 0.94537 0.0
H573 H 0.41381 0.87584 0.92378 0.0
H574 H 0.4123 0.84461 0.08382 0.0
H575 H 0.37476 0.84234 0.1055 0.0
C576 C 0.47699 0.86824 0.01335 0.0
C577 C 0.47885 0.85833 0.96279 0.0
C578 C 0.45662 0.86909 0.02587 0.0
C579 C 0.43785 0.8604 0.98775 0.0
C580 C 0.43992 0.85108 0.93656 0.0
C581 C 0.46016 0.8499 0.92435 0.0
C582 C 0.38415 0.86757 0.97622 0.0
C583 C 0.3726 0.85786 0.02713 0.0
C584 C 0.40546 0.86861 0.96364 0.0
C585 C 0.41584 0.86032 0.00206 0.0
C586 C 0.4047 0.85126 0.05363 0.0
C587 C 0.3832 0.84988 0.0659 0.0
H588 H 0.61613 0.48789 0.37663 0.0
H589 H 0.6196 0.46167 0.21319 0.0
H590 H 0.57959 0.45124 0.39586 0.0
H591 H 0.58278 0.42514 0.23239 0.0
H592 H 0.5026 0.37716 0.27119 0.0
H593 H 0.53888 0.41403 0.25194 0.0
H594 H 0.56876 0.40682 0.40643 0.0
H595 H 0.53256 0.36963 0.42557 0.0
C596 C 0.60901 0.4744 0.34464 0.0
C597 C 0.62074 0.47766 0.29335 0.0
C598 C 0.5882 0.45339 0.35587 0.0
C599 C 0.5785 0.43543 0.31566 0.0
C600 C 0.58992 0.43881 0.26397 0.0
C601 C 0.61098 0.45965 0.2531 0.0
C602 C 0.51687 0.38344 0.30117 0.0
C603 C 0.51473 0.37049 0.34994 0.0
C604 C 0.53764 0.40445 0.28993 0.0
C605 C 0.55653 0.41316 0.32768 0.0
C606 C 0.55435 0.40046 0.37682 0.0
C607 C 0.53371 0.37918 0.38761 0.0
H608 H 0.14389 0.61326 0.54986 0.0
H609 H 0.12175 0.61735 0.71767 0.0
H610 H 0.14207 0.57605 0.57338 0.0
H611 H 0.12026 0.58029 0.74115 0.0
H612 H 0.15387 0.53166 0.76886 0.0
H613 H 0.15217 0.56741 0.74822 0.0
H614 H 0.10969 0.53389 0.60247 0.0
H615 H 0.11106 0.49814 0.62311 0.0
C616 C 0.13855 0.60617 0.59163 0.0
C617 C 0.13295 0.61822 0.63188 0.0
C618 C 0.13743 0.58487 0.60499 0.0
C619 C 0.13108 0.57541 0.65909 0.0
C620 C 0.12534 0.58733 0.69926 0.0
C621 C 0.12606 0.60843 0.68565 0.0
C622 C 0.14401 0.53186 0.73271 0.0
C623 C 0.13265 0.51208 0.69759 0.0
C624 C 0.14297 0.55226 0.72106 0.0
C625 C 0.13089 0.55336 0.67363 0.0
C626 C 0.11927 0.53352 0.63903 0.0
C627 C 0.11998 0.51303 0.65111 0.0
H628 H 0.61174 0.14569 0.10683 0.0
H629 H 0.61397 0.12287 0.93855 0.0
H630 H 0.57505 0.14519 0.08482 0.0
H631 H 0.57744 0.12269 0.91661 0.0
H632 H 0.53036 0.15754 0.88939 0.0
H633 H 0.56585 0.15539 0.91 0.0
H634 H 0.53241 0.11396 0.05726 0.0
H635 H 0.49691 0.11581 0.03666 0.0
C636 C 0.60435 0.14047 0.06529 0.0
C637 C 0.61574 0.13431 0.02446 0.0
C638 C 0.58335 0.14012 0.05278 0.0
C639 C 0.57354 0.13399 -0.00102 0.0
C640 C 0.58478 0.12765 0.95827 0.0
C641 C 0.60557 0.12761 0.97101 0.0
C642 C 0.53055 0.14789 0.92601 0.0
C643 C 0.51084 0.13687 0.96139 0.0
C644 C 0.55079 0.14658 0.93761 0.0
C645 C 0.55181 0.13455 0.98527 0.0
C646 C 0.5321 0.12347 0.02048 0.0
C647 C 0.51177 0.12445 0.00845 0.0
loop_
_geom_bond_atom_site_label_1
_geom_bond_atom_site_label_2
_geom_bond_distance
_geom_bond_site_symmetry_2
_ccdc_geom_bond_type
O0 Cd1 2.223 . S
O0 C8 1.315 . S
Cd1 O0 2.223 . S
Cd1 O4 2.297 . S
Cd1 O5 2.439 . S
Cd1 O11 2.240 . S
Cd2 O3 2.240 . S
Cd2 O10 2.223 . S
Cd2 O12 2.297 . S
Cd2 O13 2.439 . S
O3 Cd2 2.240 . S
O3 C8 1.279 . S
O4 Cd1 2.297 . S
O4 C6 1.247 . S
O5 Cd1 2.439 . S
O5 C6 1.208 . S
C6 O4 1.247 . S
C6 O5 1.208 . S
C7 O12 1.247 . S
C7 O13 1.208 . S
C8 O0 1.315 . S
C8 O3 1.279 . S
C9 O10 1.315 . S
C9 O11 1.279 . S
O10 Cd2 2.223 . S
O10 C9 1.315 . S
O11 Cd1 2.240 . S
O11 C9 1.279 . S
O12 Cd2 2.297 . S
O12 C7 1.247 . S
O13 Cd2 2.439 . S
O13 C7 1.208 . S
O14 Cd15 2.223 . S
O14 C22 1.315 . S
Cd15 O14 2.223 . S
Cd15 O18 2.297 . S
Cd15 O19 2.439 . S
Cd15 O25 2.240 . S
Cd16 O17 2.240 . S
Cd16 O24 2.223 . S
Cd16 O26 2.297 . S
Cd16 O27 2.439 . S
O17 Cd16 2.240 . S
O17 C22 1.279 . S
O18 Cd15 2.297 . S
O18 C20 1.247 . S
O19 Cd15 2.439 . S
O19 C20 1.208 . S
C20 O18 1.247 . S
C20 O19 1.208 . S
C21 O26 1.247 . S
C21 O27 1.208 . S
C22 O14 1.315 . S
C22 O17 1.279 . S
C23 O24 1.315 . S
C23 O25 1.279 . S
O24 Cd16 2.223 . S
O24 C23 1.315 . S
O25 Cd15 2.240 . S
O25 C23 1.279 . S
O26 Cd16 2.297 . S
O26 C21 1.247 . S
O27 Cd16 2.439 . S
O27 C21 1.208 . S
O28 Cd29 2.223 . S
O28 C36 1.315 1_556 S
Cd29 O28 2.223 . S
Cd29 O32 2.297 . S
Cd29 O33 2.439 . S
Cd29 O39 2.240 . S
Cd30 O31 2.240 1_554 S
Cd30 O38 2.223 . S
Cd30 O40 2.297 . S
Cd30 O41 2.439 1_554 S
O31 Cd30 2.240 1_556 S
O31 C36 1.279 1_556 S
O32 Cd29 2.297 . S
O32 C34 1.247 . S
O33 Cd29 2.439 . S
O33 C34 1.208 . S
C34 O32 1.247 . S
C34 O33 1.208 . S
C35 O40 1.247 1_556 S
C35 O41 1.208 . S
C36 O28 1.315 1_554 S
C36 O31 1.279 1_554 S
C37 O38 1.315 1_556 S
C37 O39 1.279 . S
O38 Cd30 2.223 . S
O38 C37 1.315 1_554 S
O39 Cd29 2.240 . S
O39 C37 1.279 . S
O40 Cd30 2.297 . S
O40 C35 1.247 1_554 S
O41 Cd30 2.439 1_556 S
O41 C35 1.208 . S
O42 Cd43 2.223 . S
O42 C50 1.315 . S
Cd43 O42 2.223 . S
Cd43 O46 2.297 . S
Cd43 O47 2.439 . S
Cd43 O53 2.240 . S
Cd44 O45 2.240 . S
Cd44 O52 2.223 . S
Cd44 O54 2.297 . S
Cd44 O55 2.439 . S
O45 Cd44 2.240 . S
O45 C50 1.279 . S
O46 Cd43 2.297 . S
O46 C48 1.247 . S
O47 Cd43 2.439 . S
O47 C48 1.208 . S
C48 O46 1.247 . S
C48 O47 1.208 . S
C49 O54 1.247 . S
C49 O55 1.208 . S
C50 O42 1.315 . S
C50 O45 1.279 . S
C51 O52 1.315 . S
C51 O53 1.279 . S
O52 Cd44 2.223 . S
O52 C51 1.315 . S
O53 Cd43 2.240 . S
O53 C51 1.279 . S
O54 Cd44 2.297 . S
O54 C49 1.247 . S
O55 Cd44 2.439 . S
O55 C49 1.208 . S
O56 Cd57 2.223 . S
O56 C64 1.315 . S
Cd57 O56 2.223 . S
Cd57 O60 2.297 . S
Cd57 O61 2.439 . S
Cd57 O67 2.240 . S
Cd58 O59 2.240 . S
Cd58 O66 2.223 . S
Cd58 O68 2.297 . S
Cd58 O69 2.439 . S
O59 Cd58 2.240 . S
O59 C64 1.279 . S
O60 Cd57 2.297 . S
O60 C62 1.247 . S
O61 Cd57 2.439 . S
O61 C62 1.208 . S
C62 O60 1.247 . S
C62 O61 1.208 . S
C63 O68 1.247 . S
C63 O69 1.208 . S
C64 O56 1.315 . S
C64 O59 1.279 . S
C65 O66 1.315 . S
C65 O67 1.279 . S
O66 Cd58 2.223 . S
O66 C65 1.315 . S
O67 Cd57 2.240 . S
O67 C65 1.279 . S
O68 Cd58 2.297 . S
O68 C63 1.247 . S
O69 Cd58 2.439 . S
O69 C63 1.208 . S
O70 Cd71 2.223 . S
O70 C78 1.315 1_556 S
Cd71 O70 2.223 . S
Cd71 O74 2.297 . S
Cd71 O75 2.439 . S
Cd71 O81 2.240 . S
Cd72 O73 2.240 1_554 S
Cd72 O80 2.223 . S
Cd72 O82 2.297 . S
Cd72 O83 2.439 1_554 S
O73 Cd72 2.240 1_556 S
O73 C78 1.279 1_556 S
O74 Cd71 2.297 . S
O74 C76 1.247 . S
O75 Cd71 2.439 . S
O75 C76 1.208 . S
C76 O74 1.247 . S
C76 O75 1.208 . S
C77 O82 1.247 1_556 S
C77 O83 1.208 . S
C78 O70 1.315 1_554 S
C78 O73 1.279 1_554 S
C79 O80 1.315 1_556 S
C79 O81 1.279 . S
O80 Cd72 2.223 . S
O80 C79 1.315 1_554 S
O81 Cd71 2.240 . S
O81 C79 1.279 . S
O82 Cd72 2.297 . S
O82 C77 1.247 1_554 S
O83 Cd72 2.439 1_556 S
O83 C77 1.208 . S
O84 Cd85 2.223 . S
O84 C92 1.315 . S
Cd85 O84 2.223 . S
Cd85 O88 2.297 . S
Cd85 O89 2.439 . S
Cd85 O95 2.240 . S
Cd86 O87 2.240 . S
Cd86 O94 2.223 . S
Cd86 O96 2.297 . S
Cd86 O97 2.439 . S
O87 Cd86 2.240 . S
O87 C92 1.279 . S
O88 Cd85 2.297 . S
O88 C90 1.247 . S
O89 Cd85 2.439 . S
O89 C90 1.208 . S
C90 O88 1.247 . S
C90 O89 1.208 . S
C91 O96 1.247 . S
C91 O97 1.208 . S
C92 O84 1.315 . S
C92 O87 1.279 . S
C93 O94 1.315 . S
C93 O95 1.279 . S
O94 Cd86 2.223 . S
O94 C93 1.315 . S
O95 Cd85 2.240 . S
O95 C93 1.279 . S
O96 Cd86 2.297 . S
O96 C91 1.247 . S
O97 Cd86 2.439 . S
O97 C91 1.208 . S
O98 Cd99 2.223 . S
O98 C106 1.315 . S
Cd99 O98 2.223 . S
Cd99 O102 2.297 . S
Cd99 O103 2.439 . S
Cd99 O109 2.240 . S
Cd100 O101 2.240 . S
Cd100 O108 2.223 . S
Cd100 O110 2.297 . S
Cd100 O111 2.439 . S
O101 Cd100 2.240 . S
O101 C106 1.279 . S
O102 Cd99 2.297 . S
O102 C104 1.247 . S
O103 Cd99 2.439 . S
O103 C104 1.208 . S
C104 O102 1.247 . S
C104 O103 1.208 . S
C105 O110 1.247 . S
C105 O111 1.208 . S
C106 O98 1.315 . S
C106 O101 1.279 . S
C107 O108 1.315 . S
C107 O109 1.279 . S
O108 Cd100 2.223 . S
O108 C107 1.315 . S
O109 Cd99 2.240 . S
O109 C107 1.279 . S
O110 Cd100 2.297 . S
O110 C105 1.247 . S
O111 Cd100 2.439 . S
O111 C105 1.208 . S
O112 Cd113 2.223 . S
O112 C120 1.315 1_554 S
Cd113 O112 2.223 . S
Cd113 O116 2.297 . S
Cd113 O117 2.439 . S
Cd113 O123 2.240 . S
Cd114 O115 2.240 1_556 S
Cd114 O122 2.223 . S
Cd114 O124 2.297 . S
Cd114 O125 2.439 1_556 S
O115 Cd114 2.240 1_554 S
O115 C120 1.279 1_554 S
O116 Cd113 2.297 . S
O116 C118 1.247 . S
O117 Cd113 2.439 . S
O117 C118 1.208 . S
C118 O116 1.247 . S
C118 O117 1.208 . S
C119 O124 1.247 1_554 S
C119 O125 1.208 . S
C120 O112 1.315 1_556 S
C120 O115 1.279 1_556 S
C121 O122 1.315 1_554 S
C121 O123 1.279 . S
O122 Cd114 2.223 . S
O122 C121 1.315 1_556 S
O123 Cd113 2.240 . S
O123 C121 1.279 . S
O124 Cd114 2.297 . S
O124 C119 1.247 1_556 S
O125 Cd114 2.439 1_554 S
O125 C119 1.208 . S
O126 Cd127 2.223 . S
O126 C134 1.315 . S
Cd127 O126 2.223 . S
Cd127 O130 2.297 . S
Cd127 O131 2.439 . S
Cd127 O137 2.240 . S
Cd128 O129 2.240 . S
Cd128 O136 2.223 . S
Cd128 O138 2.297 . S
Cd128 O139 2.439 . S
O129 Cd128 2.240 . S
O129 C134 1.279 . S
O130 Cd127 2.297 . S
O130 C132 1.247 . S
O131 Cd127 2.439 . S
O131 C132 1.208 . S
C132 O130 1.247 . S
C132 O131 1.208 . S
C133 O138 1.247 . S
C133 O139 1.208 . S
C134 O126 1.315 . S
C134 O129 1.279 . S
C135 O136 1.315 . S
C135 O137 1.279 . S
O136 Cd128 2.223 . S
O136 C135 1.315 . S
O137 Cd127 2.240 . S
O137 C135 1.279 . S
O138 Cd128 2.297 . S
O138 C133 1.247 . S
O139 Cd128 2.439 . S
O139 C133 1.208 . S
O140 Cd141 2.223 . S
O140 C148 1.315 . S
Cd141 O140 2.223 . S
Cd141 O144 2.297 . S
Cd141 O145 2.439 . S
Cd141 O151 2.240 . S
Cd142 O143 2.240 . S
Cd142 O150 2.223 . S
Cd142 O152 2.297 . S
Cd142 O153 2.439 . S
O143 Cd142 2.240 . S
O143 C148 1.279 . S
O144 Cd141 2.297 . S
O144 C146 1.247 . S
O145 Cd141 2.439 . S
O145 C146 1.208 . S
C146 O144 1.247 . S
C146 O145 1.208 . S
C147 O152 1.247 . S
C147 O153 1.208 . S
C148 O140 1.315 . S
C148 O143 1.279 . S
C149 O150 1.315 . S
C149 O151 1.279 . S
O150 Cd142 2.223 . S
O150 C149 1.315 . S
O151 Cd141 2.240 . S
O151 C149 1.279 . S
O152 Cd142 2.297 . S
O152 C147 1.247 . S
O153 Cd142 2.439 . S
O153 C147 1.208 . S
O154 Cd155 2.223 . S
O154 C162 1.315 1_554 S
Cd155 O154 2.223 . S
Cd155 O158 2.297 . S
Cd155 O159 2.439 . S
Cd155 O165 2.240 . S
Cd156 O157 2.240 1_556 S
Cd156 O164 2.223 . S
Cd156 O166 2.297 . S
Cd156 O167 2.439 1_556 S
O157 Cd156 2.240 1_554 S
O157 C162 1.279 1_554 S
O158 Cd155 2.297 . S
O158 C160 1.247 . S
O159 Cd155 2.439 . S
O159 C160 1.208 . S
C160 O158 1.247 . S
C160 O159 1.208 . S
C161 O166 1.247 1_554 S
C161 O167 1.208 . S
C162 O154 1.315 1_556 S
C162 O157 1.279 1_556 S
C163 O164 1.315 1_554 S
C163 O165 1.279 . S
O164 Cd156 2.223 . S
O164 C163 1.315 1_556 S
O165 Cd155 2.240 . S
O165 C163 1.279 . S
O166 Cd156 2.297 . S
O166 C161 1.247 1_556 S
O167 Cd156 2.439 1_554 S
O167 C161 1.208 . S
H168 C176 0.950 . S
H169 C181 0.950 . S
H170 C178 0.950 . S
H171 C180 0.950 . S
H172 C182 0.950 . S
H173 C184 0.950 . S
H174 C186 0.950 . S
H175 C187 0.950 . S
C176 H168 0.950 . S
C176 C177 1.386 . S
C176 C178 1.391 . S
C177 C176 1.386 . S
C177 C181 1.393 . S
C178 H170 0.950 . S
C178 C176 1.391 . S
C178 C179 1.400 . S
C179 C178 1.400 . S
C179 C180 1.398 . S
C179 C185 1.491 . S
C180 H171 0.950 . S
C180 C179 1.398 . S
C180 C181 1.391 . S
C181 H169 0.950 . S
C181 C177 1.393 . S
C181 C180 1.391 . S
C182 H172 0.950 . S
C182 C183 1.386 . S
C182 C184 1.391 . S
C183 C182 1.386 . S
C183 C187 1.393 . S
C184 H173 0.950 . S
C184 C182 1.391 . S
C184 C185 1.400 . S
C185 C179 1.491 . S
C185 C184 1.400 . S
C185 C186 1.398 . S
C186 H174 0.950 . S
C186 C185 1.398 . S
C186 C187 1.391 . S
C187 H175 0.950 . S
C187 C183 1.393 . S
C187 C186 1.391 . S
H188 C196 0.950 . S
H189 C201 0.950 . S
H190 C198 0.950 . S
H191 C200 0.950 . S
H192 C202 0.950 . S
H193 C204 0.950 . S
H194 C206 0.950 . S
H195 C207 0.950 . S
C196 H188 0.950 . S
C196 C197 1.386 . S
C196 C198 1.391 . S
C197 C196 1.386 . S
C197 C201 1.393 . S
C198 H190 0.950 . S
C198 C196 1.391 . S
C198 C199 1.400 . S
C199 C198 1.400 . S
C199 C200 1.398 . S
C199 C205 1.491 1_655 S
C200 H191 0.950 . S
C200 C199 1.398 . S
C200 C201 1.391 . S
C201 H189 0.950 . S
C201 C197 1.393 . S
C201 C200 1.391 . S
C202 H192 0.950 . S
C202 C203 1.386 . S
C202 C204 1.391 . S
C203 C202 1.386 . S
C203 C207 1.393 . S
C204 H193 0.950 . S
C204 C202 1.391 . S
C204 C205 1.400 . S
C205 C199 1.491 1_455 S
C205 C204 1.400 . S
C205 C206 1.398 . S
C206 H194 0.950 . S
C206 C205 1.398 . S
C206 C207 1.391 . S
C207 H195 0.950 . S
C207 C203 1.393 . S
C207 C206 1.391 . S
H208 C216 0.950 . S
H209 C221 0.950 . S
H210 C218 0.951 . S
H211 C220 0.950 . S
H212 C222 0.950 . S
H213 C224 0.951 . S
H214 C226 0.950 . S
H215 C227 0.950 . S
C216 H208 0.950 . S
C216 C217 1.386 . S
C216 C218 1.391 . S
C217 C216 1.386 . S
C217 C221 1.393 . S
C218 H210 0.951 . S
C218 C216 1.391 . S
C218 C219 1.400 . S
C219 C218 1.400 . S
C219 C220 1.398 . S
C219 C225 1.491 1_566 S
C220 H211 0.950 . S
C220 C219 1.398 . S
C220 C221 1.391 . S
C221 H209 0.950 . S
C221 C217 1.393 . S
C221 C220 1.391 . S
C222 H212 0.950 . S
C222 C223 1.386 . S
C222 C224 1.391 . S
C223 C222 1.386 . S
C223 C227 1.393 . S
C224 H213 0.951 . S
C224 C222 1.391 . S
C224 C225 1.400 . S
C225 C219 1.491 1_544 S
C225 C224 1.400 . S
C225 C226 1.398 . S
C226 H214 0.950 . S
C226 C225 1.398 . S
C226 C227 1.391 . S
C227 H215 0.950 . S
C227 C223 1.393 . S
C227 C226 1.391 . S
H228 C236 0.950 . S
H229 C241 0.950 . S
H230 C238 0.950 . S
H231 C240 0.950 . S
H232 C242 0.950 . S
H233 C244 0.950 . S
H234 C246 0.950 . S
H235 C247 0.950 . S
C236 H228 0.950 . S
C236 C237 1.386 . S
C236 C238 1.391 . S
C237 C236 1.386 . S
C237 C241 1.393 . S
C238 H230 0.950 . S
C238 C236 1.391 . S
C238 C239 1.400 . S
C239 C238 1.400 . S
C239 C240 1.398 . S
C239 C245 1.491 . S
C240 H231 0.950 . S
C240 C239 1.398 . S
C240 C241 1.391 . S
C241 H229 0.950 . S
C241 C237 1.393 . S
C241 C240 1.391 . S
C242 H232 0.950 . S
C242 C243 1.386 . S
C242 C244 1.391 . S
C243 C242 1.386 . S
C243 C247 1.393 . S
C244 H233 0.950 . S
C244 C242 1.391 . S
C244 C245 1.400 . S
C245 C239 1.491 . S
C245 C244 1.400 . S
C245 C246 1.398 . S
C246 H234 0.950 . S
C246 C245 1.398 . S
C246 C247 1.391 . S
C247 H235 0.950 . S
C247 C243 1.393 . S
C247 C246 1.391 . S
H248 C256 0.950 . S
H249 C261 0.950 . S
H250 C258 0.950 . S
H251 C260 0.950 . S
H252 C262 0.950 . S
H253 C264 0.950 . S
H254 C266 0.950 . S
H255 C267 0.950 . S
C256 H248 0.950 . S
C256 C257 1.386 . S
C256 C258 1.391 . S
C257 C256 1.386 . S
C257 C261 1.393 . S
C258 H250 0.950 . S
C258 C256 1.391 . S
C258 C259 1.400 . S
C259 C258 1.400 . S
C259 C260 1.398 . S
C259 C265 1.491 1_655 S
C260 H251 0.950 . S
C260 C259 1.398 . S
C260 C261 1.391 . S
C261 H249 0.950 . S
C261 C257 1.393 . S
C261 C260 1.391 . S
C262 H252 0.950 . S
C262 C263 1.386 . S
C262 C264 1.391 . S
C263 C262 1.386 . S
C263 C267 1.393 . S
C264 H253 0.950 . S
C264 C262 1.391 . S
C264 C265 1.400 . S
C265 C259 1.491 1_455 S
C265 C264 1.400 . S
C265 C266 1.398 . S
C266 H254 0.950 . S
C266 C265 1.398 . S
C266 C267 1.391 . S
C267 H255 0.950 . S
C267 C263 1.393 . S
C267 C266 1.391 . S
H268 C276 0.950 1_556 S
H269 C281 0.950 . S
H270 C278 0.950 . S
H271 C280 0.950 . S
H272 C282 0.950 1_554 S
H273 C284 0.950 . S
H274 C286 0.950 . S
H275 C287 0.950 . S
C276 H268 0.950 1_554 S
C276 C277 1.386 . S
C276 C278 1.391 1_554 S
C277 C276 1.386 . S
C277 C281 1.393 . S
C278 H270 0.950 . S
C278 C276 1.391 1_556 S
C278 C279 1.400 1_556 S
C279 C278 1.400 1_554 S
C279 C280 1.398 . S
C279 C285 1.491 1_564 S
C280 H271 0.950 . S
C280 C279 1.398 . S
C280 C281 1.391 . S
C281 H269 0.950 . S
C281 C277 1.393 . S
C281 C280 1.391 . S
C282 H272 0.950 1_556 S
C282 C283 1.386 . S
C282 C284 1.391 1_556 S
C283 C282 1.386 . S
C283 C287 1.393 . S
C284 H273 0.950 . S
C284 C282 1.391 1_554 S
C284 C285 1.400 1_554 S
C285 C279 1.491 1_546 S
C285 C284 1.400 1_556 S
C285 C286 1.398 . S
C286 H274 0.950 . S
C286 C285 1.398 . S
C286 C287 1.391 . S
C287 H275 0.950 . S
C287 C283 1.393 . S
C287 C286 1.391 . S
H288 C296 0.950 . S
H289 C301 0.950 . S
H290 C298 0.950 . S
H291 C300 0.950 . S
H292 C302 0.950 . S
H293 C304 0.950 . S
H294 C306 0.950 . S
H295 C307 0.950 . S
C296 H288 0.950 . S
C296 C297 1.386 . S
C296 C298 1.391 . S
C297 C296 1.386 . S
C297 C301 1.393 . S
C298 H290 0.950 . S
C298 C296 1.391 . S
C298 C299 1.400 . S
C299 C298 1.400 . S
C299 C300 1.398 . S
C299 C305 1.491 1_556 S
C300 H291 0.950 . S
C300 C299 1.398 . S
C300 C301 1.391 . S
C301 H289 0.950 . S
C301 C297 1.393 . S
C301 C300 1.391 . S
C302 H292 0.950 . S
C302 C303 1.386 . S
C302 C304 1.391 . S
C303 C302 1.386 . S
C303 C307 1.393 . S
C304 H293 0.950 . S
C304 C302 1.391 . S
C304 C305 1.400 . S
C305 C299 1.491 1_554 S
C305 C304 1.400 . S
C305 C306 1.398 . S
C306 H294 0.950 . S
C306 C305 1.398 . S
C306 C307 1.391 . S
C307 H295 0.950 . S
C307 C303 1.393 . S
C307 C306 1.391 . S
H308 C316 0.950 . S
H309 C321 0.950 . S
H310 C318 0.950 . S
H311 C320 0.950 . S
H312 C322 0.950 . S
H313 C324 0.950 . S
H314 C326 0.950 . S
H315 C327 0.950 . S
C316 H308 0.950 . S
C316 C317 1.386 . S
C316 C318 1.391 . S
C317 C316 1.386 . S
C317 C321 1.393 . S
C318 H310 0.950 . S
C318 C316 1.391 . S
C318 C319 1.400 . S
C319 C318 1.400 . S
C319 C320 1.398 . S
C319 C325 1.491 . S
C320 H311 0.950 . S
C320 C319 1.398 . S
C320 C321 1.391 . S
C321 H309 0.950 . S
C321 C317 1.393 . S
C321 C320 1.391 . S
C322 H312 0.950 . S
C322 C323 1.386 . S
C322 C324 1.391 . S
C323 C322 1.386 . S
C323 C327 1.393 . S
C324 H313 0.950 . S
C324 C322 1.391 . S
C324 C325 1.400 . S
C325 C319 1.491 . S
C325 C324 1.400 . S
C325 C326 1.398 . S
C326 H314 0.950 . S
C326 C325 1.398 . S
C326 C327 1.391 . S
C327 H315 0.950 . S
C327 C323 1.393 . S
C327 C326 1.391 . S
H328 C336 0.950 . S
H329 C341 0.950 . S
H330 C338 0.950 . S
H331 C340 0.950 . S
H332 C342 0.950 . S
H333 C344 0.950 . S
H334 C346 0.950 . S
H335 C347 0.950 . S
C336 H328 0.950 . S
C336 C337 1.386 . S
C336 C338 1.391 . S
C337 C336 1.386 . S
C337 C341 1.393 . S
C338 H330 0.950 . S
C338 C336 1.391 . S
C338 C339 1.400 . S
C339 C338 1.400 . S
C339 C340 1.398 . S
C339 C345 1.491 . S
C340 H331 0.950 . S
C340 C339 1.398 . S
C340 C341 1.391 . S
C341 H329 0.950 . S
C341 C337 1.393 . S
C341 C340 1.391 . S
C342 H332 0.950 . S
C342 C343 1.386 . S
C342 C344 1.391 . S
C343 C342 1.386 . S
C343 C347 1.393 . S
C344 H333 0.950 . S
C344 C342 1.391 . S
C344 C345 1.400 . S
C345 C339 1.491 . S
C345 C344 1.400 . S
C345 C346 1.398 . S
C346 H334 0.950 . S
C346 C345 1.398 . S
C346 C347 1.391 . S
C347 H335 0.950 . S
C347 C343 1.393 . S
C347 C346 1.391 . S
H348 C356 0.950 . S
H349 C361 0.950 . S
H350 C358 0.950 1_556 S
H351 C360 0.950 . S
H352 C362 0.950 . S
H353 C364 0.950 1_554 S
H354 C366 0.950 . S
H355 C367 0.950 . S
C356 H348 0.950 . S
C356 C357 1.386 . S
C356 C358 1.391 . S
C357 C356 1.386 . S
C357 C361 1.393 . S
C358 H350 0.950 1_554 S
C358 C356 1.391 . S
C358 C359 1.400 . S
C359 C358 1.400 . S
C359 C360 1.398 . S
C359 C365 1.491 1_554 S
C360 H351 0.950 . S
C360 C359 1.398 . S
C360 C361 1.391 . S
C361 H349 0.950 . S
C361 C357 1.393 . S
C361 C360 1.391 . S
C362 H352 0.950 . S
C362 C363 1.386 . S
C362 C364 1.391 . S
C363 C362 1.386 . S
C363 C367 1.393 . S
C364 H353 0.950 1_556 S
C364 C362 1.391 . S
C364 C365 1.400 . S
C365 C359 1.491 1_556 S
C365 C364 1.400 . S
C365 C366 1.398 . S
C366 H354 0.950 . S
C366 C365 1.398 . S
C366 C367 1.391 . S
C367 H355 0.950 . S
C367 C363 1.393 . S
C367 C366 1.391 . S
H368 C376 0.950 . S
H369 C381 0.950 . S
H370 C378 0.950 . S
H371 C380 0.950 . S
H372 C382 0.950 . S
H373 C384 0.950 . S
H374 C386 0.950 . S
H375 C387 0.950 . S
C376 H368 0.950 . S
C376 C377 1.386 . S
C376 C378 1.391 . S
C377 C376 1.386 . S
C377 C381 1.393 . S
C378 H370 0.950 . S
C378 C376 1.391 . S
C378 C379 1.400 . S
C379 C378 1.400 . S
C379 C380 1.398 . S
C379 C385 1.491 . S
C380 H371 0.950 . S
C380 C379 1.398 . S
C380 C381 1.391 . S
C381 H369 0.950 . S
C381 C377 1.393 . S
C381 C380 1.391 . S
C382 H372 0.950 . S
C382 C383 1.386 . S
C382 C384 1.391 . S
C383 C382 1.386 . S
C383 C387 1.393 . S
C384 H373 0.950 . S
C384 C382 1.391 . S
C384 C385 1.400 . S
C385 C379 1.491 . S
C385 C384 1.400 . S
C385 C386 1.398 . S
C386 H374 0.950 . S
C386 C385 1.398 . S
C386 C387 1.391 . S
C387 H375 0.950 . S
C387 C383 1.393 . S
C387 C386 1.391 . S
H388 C396 0.950 . S
H389 C401 0.950 . S
H390 C398 0.950 . S
H391 C400 0.950 . S
H392 C402 0.950 . S
H393 C404 0.950 . S
H394 C406 0.950 . S
H395 C407 0.950 . S
C396 H388 0.950 . S
C396 C397 1.386 . S
C396 C398 1.391 . S
C397 C396 1.386 . S
C397 C401 1.393 . S
C398 H390 0.950 . S
C398 C396 1.391 . S
C398 C399 1.400 . S
C399 C398 1.400 . S
C399 C400 1.398 . S
C399 C405 1.491 . S
C400 H391 0.950 . S
C400 C399 1.398 . S
C400 C401 1.391 . S
C401 H389 0.950 . S
C401 C397 1.393 . S
C401 C400 1.391 . S
C402 H392 0.950 . S
C402 C403 1.386 . S
C402 C404 1.391 . S
C403 C402 1.386 . S
C403 C407 1.393 . S
C404 H393 0.950 . S
C404 C402 1.391 . S
C404 C405 1.400 . S
C405 C399 1.491 . S
C405 C404 1.400 . S
C405 C406 1.398 . S
C406 H394 0.950 . S
C406 C405 1.398 . S
C406 C407 1.391 . S
C407 H395 0.950 . S
C407 C403 1.393 . S
C407 C406 1.391 . S
H408 C416 0.950 . S
H409 C421 0.950 . S
H410 C418 0.950 . S
H411 C420 0.950 . S
H412 C422 0.950 . S
H413 C424 0.950 . S
H414 C426 0.950 . S
H415 C427 0.950 . S
C416 H408 0.950 . S
C416 C417 1.386 . S
C416 C418 1.391 . S
C417 C416 1.386 . S
C417 C421 1.393 . S
C418 H410 0.950 . S
C418 C416 1.391 . S
C418 C419 1.400 . S
C419 C418 1.400 . S
C419 C420 1.398 . S
C419 C425 1.491 . S
C420 H411 0.950 . S
C420 C419 1.398 . S
C420 C421 1.391 . S
C421 H409 0.950 . S
C421 C417 1.393 . S
C421 C420 1.391 . S
C422 H412 0.950 . S
C422 C423 1.386 . S
C422 C424 1.391 . S
C423 C422 1.386 . S
C423 C427 1.393 . S
C424 H413 0.950 . S
C424 C422 1.391 . S
C424 C425 1.400 . S
C425 C419 1.491 . S
C425 C424 1.400 . S
C425 C426 1.398 . S
C426 H414 0.950 . S
C426 C425 1.398 . S
C426 C427 1.391 . S
C427 H415 0.950 . S
C427 C423 1.393 . S
C427 C426 1.391 . S
H428 C436 0.950 . S
H429 C441 0.950 . S
H430 C438 0.950 . S
H431 C440 0.950 . S
H432 C442 0.950 . S
H433 C444 0.950 . S
H434 C446 0.950 . S
H435 C447 0.950 . S
C436 H428 0.950 . S
C436 C437 1.386 . S
C436 C438 1.391 . S
C437 C436 1.386 . S
C437 C441 1.393 . S
C438 H430 0.950 . S
C438 C436 1.391 . S
C438 C439 1.400 . S
C439 C438 1.400 . S
C439 C440 1.398 . S
C439 C445 1.491 . S
C440 H431 0.950 . S
C440 C439 1.398 . S
C440 C441 1.391 . S
C441 H429 0.950 . S
C441 C437 1.393 . S
C441 C440 1.391 . S
C442 H432 0.950 . S
C442 C443 1.386 . S
C442 C444 1.391 . S
C443 C442 1.386 . S
C443 C447 1.393 . S
C444 H433 0.950 . S
C444 C442 1.391 . S
C444 C445 1.400 . S
C445 C439 1.491 . S
C445 C444 1.400 . S
C445 C446 1.398 . S
C446 H434 0.950 . S
C446 C445 1.398 . S
C446 C447 1.391 . S
C447 H435 0.950 . S
C447 C443 1.393 . S
C447 C446 1.391 . S
H448 C456 0.950 . S
H449 C461 0.950 . S
H450 C458 0.950 . S
H451 C460 0.950 . S
H452 C462 0.950 . S
H453 C464 0.950 . S
H454 C466 0.950 . S
H455 C467 0.950 . S
C456 H448 0.950 . S
C456 C457 1.386 . S
C456 C458 1.391 . S
C457 C456 1.386 . S
C457 C461 1.393 . S
C458 H450 0.950 . S
C458 C456 1.391 . S
C458 C459 1.400 . S
C459 C458 1.400 . S
C459 C460 1.398 . S
C459 C465 1.491 . S
C460 H451 0.950 . S
C460 C459 1.398 . S
C460 C461 1.391 . S
C461 H449 0.950 . S
C461 C457 1.393 . S
C461 C460 1.391 . S
C462 H452 0.950 . S
C462 C463 1.386 . S
C462 C464 1.391 . S
C463 C462 1.386 . S
C463 C467 1.393 . S
C464 H453 0.950 . S
C464 C462 1.391 . S
C464 C465 1.400 . S
C465 C459 1.491 . S
C465 C464 1.400 . S
C465 C466 1.398 . S
C466 H454 0.950 . S
C466 C465 1.398 . S
C466 C467 1.391 . S
C467 H455 0.950 . S
C467 C463 1.393 . S
C467 C466 1.391 . S
H468 C476 0.950 . S
H469 C481 0.950 . S
H470 C478 0.950 . S
H471 C480 0.950 . S
H472 C482 0.950 . S
H473 C484 0.950 . S
H474 C486 0.950 . S
H475 C487 0.950 . S
C476 H468 0.950 . S
C476 C477 1.386 . S
C476 C478 1.391 . S
C477 C476 1.386 . S
C477 C481 1.393 . S
C478 H470 0.950 . S
C478 C476 1.391 . S
C478 C479 1.400 . S
C479 C478 1.400 . S
C479 C480 1.398 . S
C479 C485 1.491 . S
C480 H471 0.950 . S
C480 C479 1.398 . S
C480 C481 1.391 . S
C481 H469 0.950 . S
C481 C477 1.393 . S
C481 C480 1.391 . S
C482 H472 0.950 . S
C482 C483 1.386 . S
C482 C484 1.391 . S
C483 C482 1.386 . S
C483 C487 1.393 . S
C484 H473 0.950 . S
C484 C482 1.391 . S
C484 C485 1.400 . S
C485 C479 1.491 . S
C485 C484 1.400 . S
C485 C486 1.398 . S
C486 H474 0.950 . S
C486 C485 1.398 . S
C486 C487 1.391 . S
C487 H475 0.950 . S
C487 C483 1.393 . S
C487 C486 1.391 . S
H488 C496 0.950 . S
H489 C501 0.950 . S
H490 C498 0.950 . S
H491 C500 0.950 . S
H492 C502 0.950 . S
H493 C504 0.950 . S
H494 C506 0.950 . S
H495 C507 0.950 . S
C496 H488 0.950 . S
C496 C497 1.386 . S
C496 C498 1.391 . S
C497 C496 1.386 . S
C497 C501 1.393 . S
C498 H490 0.950 . S
C498 C496 1.391 . S
C498 C499 1.400 . S
C499 C498 1.400 . S
C499 C500 1.398 . S
C499 C505 1.491 . S
C500 H491 0.950 . S
C500 C499 1.398 . S
C500 C501 1.391 . S
C501 H489 0.950 . S
C501 C497 1.393 . S
C501 C500 1.391 . S
C502 H492 0.950 . S
C502 C503 1.386 . S
C502 C504 1.391 . S
C503 C502 1.386 . S
C503 C507 1.393 . S
C504 H493 0.950 . S
C504 C502 1.391 . S
C504 C505 1.400 . S
C505 C499 1.491 . S
C505 C504 1.400 . S
C505 C506 1.398 . S
C506 H494 0.950 . S
C506 C505 1.398 . S
C506 C507 1.391 . S
C507 H495 0.950 . S
C507 C503 1.393 . S
C507 C506 1.391 . S
H508 C516 0.950 . S
H509 C521 0.950 . S
H510 C518 0.950 . S
H511 C520 0.950 . S
H512 C522 0.950 . S
H513 C524 0.950 . S
H514 C526 0.950 . S
H515 C527 0.950 . S
C516 H508 0.950 . S
C516 C517 1.386 . S
C516 C518 1.391 . S
C517 C516 1.386 . S
C517 C521 1.393 . S
C518 H510 0.950 . S
C518 C516 1.391 . S
C518 C519 1.400 . S
C519 C518 1.400 . S
C519 C520 1.398 . S
C519 C525 1.491 . S
C520 H511 0.950 . S
C520 C519 1.398 . S
C520 C521 1.391 . S
C521 H509 0.950 . S
C521 C517 1.393 . S
C521 C520 1.391 . S
C522 H512 0.950 . S
C522 C523 1.386 . S
C522 C524 1.391 . S
C523 C522 1.386 . S
C523 C527 1.393 . S
C524 H513 0.950 . S
C524 C522 1.391 . S
C524 C525 1.400 . S
C525 C519 1.491 . S
C525 C524 1.400 . S
C525 C526 1.398 . S
C526 H514 0.950 . S
C526 C525 1.398 . S
C526 C527 1.391 . S
C527 H515 0.950 . S
C527 C523 1.393 . S
C527 C526 1.391 . S
H528 C536 0.950 . S
H529 C541 0.950 . S
H530 C538 0.950 . S
H531 C540 0.950 . S
H532 C542 0.950 . S
H533 C544 0.950 . S
H534 C546 0.950 . S
H535 C547 0.950 . S
C536 H528 0.950 . S
C536 C537 1.386 . S
C536 C538 1.391 . S
C537 C536 1.386 . S
C537 C541 1.393 . S
C538 H530 0.950 . S
C538 C536 1.391 . S
C538 C539 1.400 . S
C539 C538 1.400 . S
C539 C540 1.398 . S
C539 C545 1.491 . S
C540 H531 0.950 . S
C540 C539 1.398 . S
C540 C541 1.391 . S
C541 H529 0.950 . S
C541 C537 1.393 . S
C541 C540 1.391 . S
C542 H532 0.950 . S
C542 C543 1.386 . S
C542 C544 1.391 . S
C543 C542 1.386 . S
C543 C547 1.393 . S
C544 H533 0.950 . S
C544 C542 1.391 . S
C544 C545 1.400 . S
C545 C539 1.491 . S
C545 C544 1.400 . S
C545 C546 1.398 . S
C546 H534 0.950 . S
C546 C545 1.398 . S
C546 C547 1.391 . S
C547 H535 0.950 . S
C547 C543 1.393 . S
C547 C546 1.391 . S
H548 C556 0.950 . S
H549 C561 0.950 . S
H550 C558 0.950 . S
H551 C560 0.950 . S
H552 C562 0.950 . S
H553 C564 0.950 . S
H554 C566 0.950 . S
H555 C567 0.950 . S
C556 H548 0.950 . S
C556 C557 1.386 . S
C556 C558 1.391 . S
C557 C556 1.386 . S
C557 C561 1.393 . S
C558 H550 0.950 . S
C558 C556 1.391 . S
C558 C559 1.400 . S
C559 C558 1.400 . S
C559 C560 1.398 . S
C559 C565 1.491 . S
C560 H551 0.950 . S
C560 C559 1.398 . S
C560 C561 1.391 . S
C561 H549 0.950 . S
C561 C557 1.393 . S
C561 C560 1.391 . S
C562 H552 0.950 . S
C562 C563 1.386 . S
C562 C564 1.391 . S
C563 C562 1.386 . S
C563 C567 1.393 . S
C564 H553 0.950 . S
C564 C562 1.391 . S
C564 C565 1.400 . S
C565 C559 1.491 . S
C565 C564 1.400 . S
C565 C566 1.398 . S
C566 H554 0.950 . S
C566 C565 1.398 . S
C566 C567 1.391 . S
C567 H555 0.950 . S
C567 C563 1.393 . S
C567 C566 1.391 . S
H568 C576 0.950 . S
H569 C581 0.950 . S
H570 C578 0.950 . S
H571 C580 0.950 . S
H572 C582 0.950 . S
H573 C584 0.950 . S
H574 C586 0.950 . S
H575 C587 0.950 . S
C576 H568 0.950 . S
C576 C577 1.386 1_554 S
C576 C578 1.391 . S
C577 C576 1.386 1_556 S
C577 C581 1.393 . S
C578 H570 0.950 . S
C578 C576 1.391 . S
C578 C579 1.385 1_554 S
C579 C578 1.385 1_556 S
C579 C580 1.415 . S
C579 C585 1.490 1_556 S
C580 H571 0.950 . S
C580 C579 1.415 . S
C580 C581 1.391 . S
C581 H569 0.950 . S
C581 C577 1.393 . S
C581 C580 1.391 . S
C582 H572 0.950 . S
C582 C583 1.386 1_556 S
C582 C584 1.391 . S
C583 C582 1.386 1_554 S
C583 C587 1.393 . S
C584 H573 0.950 . S
C584 C582 1.391 . S
C584 C585 1.385 1_556 S
C585 C579 1.490 1_554 S
C585 C584 1.385 1_554 S
C585 C586 1.414 . S
C586 H574 0.950 . S
C586 C585 1.414 . S
C586 C587 1.391 . S
C587 H575 0.950 . S
C587 C583 1.393 . S
C587 C586 1.391 . S
H588 C596 0.950 . S
H589 C601 0.950 . S
H590 C598 0.950 . S
H591 C600 0.950 . S
H592 C602 0.950 . S
H593 C604 0.950 . S
H594 C606 0.950 . S
H595 C607 0.950 . S
C596 H588 0.950 . S
C596 C597 1.386 . S
C596 C598 1.391 . S
C597 C596 1.386 . S
C597 C601 1.393 . S
C598 H590 0.950 . S
C598 C596 1.391 . S
C598 C599 1.400 . S
C599 C598 1.400 . S
C599 C600 1.398 . S
C599 C605 1.491 . S
C600 H591 0.950 . S
C600 C599 1.398 . S
C600 C601 1.391 . S
C601 H589 0.950 . S
C601 C597 1.393 . S
C601 C600 1.391 . S
C602 H592 0.950 . S
C602 C603 1.386 . S
C602 C604 1.391 . S
C603 C602 1.386 . S
C603 C607 1.393 . S
C604 H593 0.950 . S
C604 C602 1.391 . S
C604 C605 1.400 . S
C605 C599 1.491 . S
C605 C604 1.400 . S
C605 C606 1.398 . S
C606 H594 0.950 . S
C606 C605 1.398 . S
C606 C607 1.391 . S
C607 H595 0.950 . S
C607 C603 1.393 . S
C607 C606 1.391 . S
H608 C616 0.950 . S
H609 C621 0.950 . S
H610 C618 0.950 . S
H611 C620 0.950 . S
H612 C622 0.950 . S
H613 C624 0.950 . S
H614 C626 0.950 . S
H615 C627 0.950 . S
C616 H608 0.950 . S
C616 C617 1.386 . S
C616 C618 1.391 . S
C617 C616 1.386 . S
C617 C621 1.393 . S
C618 H610 0.950 . S
C618 C616 1.391 . S
C618 C619 1.400 . S
C619 C618 1.400 . S
C619 C620 1.398 . S
C619 C625 1.491 . S
C620 H611 0.950 . S
C620 C619 1.398 . S
C620 C621 1.391 . S
C621 H609 0.950 . S
C621 C617 1.393 . S
C621 C620 1.391 . S
C622 H612 0.950 . S
C622 C623 1.386 . S
C622 C624 1.391 . S
C623 C622 1.386 . S
C623 C627 1.393 . S
C624 H613 0.950 . S
C624 C622 1.391 . S
C624 C625 1.400 . S
C625 C619 1.491 . S
C625 C624 1.400 . S
C625 C626 1.398 . S
C626 H614 0.950 . S
C626 C625 1.398 . S
C626 C627 1.391 . S
C627 H615 0.950 . S
C627 C623 1.393 . S
C627 C626 1.391 . S
H628 C636 0.950 . S
H629 C641 0.950 . S
H630 C638 0.950 . S
H631 C640 0.950 . S
H632 C642 0.950 . S
H633 C644 0.950 . S
H634 C646 0.950 . S
H635 C647 0.950 . S
C636 H628 0.950 . S
C636 C637 1.386 . S
C636 C638 1.391 . S
C637 C636 1.386 . S
C637 C641 1.393 1_554 S
C638 H630 0.950 . S
C638 C636 1.391 . S
C638 C639 1.401 1_554 S
C639 C638 1.401 1_556 S
C639 C640 1.397 . S
C639 C645 1.491 1_556 S
C640 H631 0.950 . S
C640 C639 1.397 . S
C640 C641 1.391 . S
C641 H629 0.950 . S
C641 C637 1.393 1_556 S
C641 C640 1.391 . S
C642 H632 0.950 . S
C642 C643 1.386 . S
C642 C644 1.391 . S
C643 C642 1.386 . S
C643 C647 1.393 1_556 S
C644 H633 0.950 . S
C644 C642 1.391 . S
C644 C645 1.402 1_556 S
C645 C639 1.491 1_554 S
C645 C644 1.402 1_554 S
C645 C646 1.397 . S
C646 H634 0.950 . S
C646 C645 1.397 . S
C646 C647 1.391 . S
C647 H635 0.950 . S
C647 C643 1.393 1_554 S
C647 C646 1.391 . S
C177 C7 1.463 . S
C183 C133 1.462 . S
C197 C21 1.471 . S
C203 C147 1.471 . S
C217 C35 1.447 . S
C223 C161 1.446 . S
C237 C49 1.479 . S
C243 C91 1.479 . S
C257 C105 1.469 . S
C263 C63 1.469 . S
C277 C119 1.452 . S
C283 C77 1.451 . S
C297 C146 1.516 . S
C303 C6 1.511 . S
C317 C20 1.521 . S
C323 C160 1.508 . S
C337 C34 1.506 . S
C343 C90 1.526 . S
C357 C48 1.528 . S
C363 C104 1.502 . S
C377 C62 1.503 . S
C383 C118 1.527 . S
C397 C76 1.506 . S
C403 C132 1.526 . S
C417 C148 1.463 . S
C423 C8 1.465 . S
C437 C22 1.473 . S
C443 C162 1.474 . S
C457 C36 1.464 . S
C463 C92 1.463 . S
C477 C50 1.473 . S
C483 C106 1.473 . S
C497 C64 1.462 . S
C503 C120 1.463 . S
C517 C78 1.464 . S
C523 C134 1.465 . S
C537 C9 1.635 . S
C543 C93 1.628 . S
C557 C107 1.637 . S
C563 C23 1.636 . S
C577 C37 1.627 . S
C583 C121 1.638 . S
C597 C51 1.630 . S
C603 C135 1.640 . S
C617 C65 1.640 . S
C623 C149 1.631 . S
C637 C163 1.641 . S
C643 C79 1.629 . S
