# Generated by pormake.
# Topology ukg, (4)-cn, num edge types: 1
# Building blocks:
#     Node 0, Type 0, BuildingBlock: QUQFOY_clean_sbu_3, # of connection points: 4
#     Node 1, Type 0, BuildingBlock: QUQFOY_clean_sbu_3, # of connection points: 4
#     Node 2, Type 0, BuildingBlock: QUQFOY_clean_sbu_3, # of connection points: 4
#     Node 3, Type 0, BuildingBlock: QUQFOY_clean_sbu_3, # of connection points: 4
#     Node 4, Type 0, BuildingBlock: QUQFOY_clean_sbu_3, # of connection points: 4
#     Node 5, Type 0, BuildingBlock: QUQFOY_clean_sbu_3, # of connection points: 4
#     Node 6, Type 0, BuildingBlock: QUQFOY_clean_sbu_3, # of connection points: 4
#     Node 7, Type 0, BuildingBlock: QUQFOY_clean_sbu_3, # of connection points: 4
#     Edge 8, Type (0, 0), BuildingBlock: EZIPEK_clean_linker_0, # of connection points: 2
#     Edge 9, Type (0, 0), BuildingBlock: EZIPEK_clean_linker_0, # of connection points: 2
#     Edge 10, Type (0, 0), BuildingBlock: EZIPEK_clean_linker_0, # of connection points: 2
#     Edge 11, Type (0, 0), BuildingBlock: EZIPEK_clean_linker_0, # of connection points: 2
#     Edge 12, Type (0, 0), BuildingBlock: EZIPEK_clean_linker_0, # of connection points: 2
#     Edge 13, Type (0, 0), BuildingBlock: EZIPEK_clean_linker_0, # of connection points: 2
#     Edge 14, Type (0, 0), BuildingBlock: EZIPEK_clean_linker_0, # of connection points: 2
#     Edge 15, Type (0, 0), BuildingBlock: EZIPEK_clean_linker_0, # of connection points: 2
#     Edge 16, Type (0, 0), BuildingBlock: EZIPEK_clean_linker_0, # of connection points: 2
#     Edge 17, Type (0, 0), BuildingBlock: EZIPEK_clean_linker_0, # of connection points: 2
#     Edge 18, Type (0, 0), BuildingBlock: EZIPEK_clean_linker_0, # of connection points: 2
#     Edge 19, Type (0, 0), BuildingBlock: EZIPEK_clean_linker_0, # of connection points: 2
#     Edge 20, Type (0, 0), BuildingBlock: EZIPEK_clean_linker_0, # of connection points: 2
#     Edge 21, Type (0, 0), BuildingBlock: EZIPEK_clean_linker_0, # of connection points: 2
#     Edge 22, Type (0, 0), BuildingBlock: EZIPEK_clean_linker_0, # of connection points: 2
#     Edge 23, Type (0, 0), BuildingBlock: EZIPEK_clean_linker_0, # of connection points: 2
# Relax obj value: 0.112
# Max RMSD: 0.201
# Mean RMSD: 0.198
data_MOF--net-ukg--node1-QUQFOY_clean_sbu_3--edge1-EZIPEK_clean_linker_0
_symmetry_space_group_name_H-M    P1
_symmetry_Int_Tables_number       1
_symmetry_cell_setting            triclinic
loop_
_symmetry_equiv_pos_as_xyz
'x, y, z'
_cell_length_a     24.119265
_cell_length_b     24.17421
_cell_length_c     29.692414
_cell_angle_alpha  89.751926
_cell_angle_beta   89.463924
_cell_angle_gamma 90.27986
loop_
_atom_site_label
_atom_site_type_symbol
_atom_site_fract_x
_atom_site_fract_y
_atom_site_fract_z
_atom_type_partial_charge
C0 C 0.10076 0.65268 0.17669 0.0
O1 O 0.09438 0.62988 0.21496 0.0
Cd2 Cd 0.00311 0.61505 0.24457 0.0
O3 O 0.06104 0.65512 0.14883 0.0
Cd4 Cd -0.03406 0.61668 0.14106 0.0
C5 C 0.94606 0.73473 0.19777 0.0
O6 O 0.94766 0.55225 0.20352 0.0
O7 O 0.87767 0.59381 0.17303 0.0
O8 O -0.00382 0.54345 0.09092 0.0
C9 C 0.89539 0.55941 0.20185 0.0
O10 O -0.03255 0.70633 0.22931 0.0
C11 C -0.03548 0.55621 0.05863 0.0
O12 O 0.93849 0.71339 0.15891 0.0
O13 O 0.93504 0.59952 0.06313 0.0
C14 C 0.25591 0.60078 0.68396 0.0
O15 O 0.27322 0.58905 0.72301 0.0
Cd16 Cd 0.28472 0.49373 0.74111 0.0
O17 O 0.25824 0.56535 0.65247 0.0
Cd18 Cd 0.29917 0.47246 0.64157 0.0
C19 C 0.17456 0.44084 0.68083 0.0
O20 O 0.36011 0.44799 0.70503 0.0
O21 O 0.31243 0.38234 0.67378 0.0
O22 O 0.37553 0.50636 0.59393 0.0
C23 C 0.3509 0.39648 0.70024 0.0
O24 O 0.19659 0.45378 0.71814 0.0
C25 C 0.36689 0.47323 0.56165 0.0
O26 O 0.20144 0.44462 0.64374 0.0
O27 O 0.32438 0.44198 0.56483 0.0
C28 C 0.30822 0.76686 0.17787 0.0
O29 O 0.3207 0.77275 0.21902 0.0
Cd30 Cd 0.41252 0.78887 0.24662 0.0
O31 O 0.34327 0.77749 0.14672 0.0
Cd32 Cd 0.44056 0.80923 0.14048 0.0
C33 C 0.46672 0.68227 0.18376 0.0
O34 O 0.46073 0.86135 0.20893 0.0
O35 O 0.53021 0.82588 0.17234 0.0
O36 O 0.41349 0.88931 0.09592 0.0
C37 C 0.51296 0.85542 0.20473 0.0
O38 O 0.45387 0.70363 0.22153 0.0
C39 C 0.44417 0.8785 0.06215 0.0
O40 O 0.46319 0.70951 0.14685 0.0
O41 O 0.47192 0.83381 0.06349 0.0
C42 C 0.14992 0.81175 0.68348 0.0
O43 O 0.14845 0.8271 0.7243 0.0
Cd44 Cd 0.13578 0.91964 0.75035 0.0
O45 O 0.13759 0.8449 0.65173 0.0
Cd46 Cd 0.11001 0.94308 0.64389 0.0
C47 C 0.23924 -0.02836 0.68109 0.0
O48 O 0.06121 -0.03543 0.71443 0.0
O49 O 0.09352 0.03332 0.67503 0.0
O50 O 0.02858 0.91727 0.6002 0.0
C51 C 0.06618 0.01663 0.70918 0.0
O52 O 0.21964 -0.03962 0.72001 0.0
C53 C 0.03989 0.94826 0.5667 0.0
O54 O 0.21024 -0.03339 0.64548 0.0
O55 O 0.08535 -0.02479 0.56774 0.0
C56 C -0.03584 0.36352 0.73944 0.0
O57 O 0.91988 0.35069 0.71922 0.0
Cd58 Cd 0.86255 0.28096 0.7541 0.0
O59 O -0.02903 0.35088 0.78067 0.0
Cd60 Cd 0.92294 0.31316 0.8483 0.0
C61 C -0.02905 0.20047 0.7964 0.0
O62 O 0.82603 0.30132 0.82722 0.0
O63 O 0.85627 0.24902 0.88128 0.0
O64 O 0.91567 0.40529 0.88105 0.0
C65 C 0.81662 0.26282 0.85588 0.0
O66 O 0.93328 0.21157 0.76806 0.0
C67 C 0.9425 0.39408 0.91651 0.0
O68 O -0.02048 0.23101 0.83072 0.0
O69 O -0.03876 0.34512 0.92052 0.0
C70 C 0.54178 0.46856 0.23314 0.0
O71 O 0.55163 0.42456 0.21157 0.0
Cd72 Cd 0.61472 0.36142 0.24604 0.0
O73 O 0.55488 0.47297 0.27434 0.0
Cd74 Cd 0.5926 0.41821 0.33739 0.0
C75 C 0.71019 0.45529 0.28621 0.0
O76 O 0.59039 0.31952 0.31709 0.0
O77 O 0.65631 0.34751 0.36044 0.0
O78 O 0.50403 0.41738 0.37783 0.0
C79 C 0.63254 0.30755 0.34073 0.0
O80 O 0.69588 0.41853 0.25798 0.0
C81 C 0.52118 0.44268 0.41243 0.0
O82 O 0.67941 0.46719 0.31998 0.0
O83 O 0.57203 0.45723 0.41252 0.0
C84 C 0.44999 0.04818 0.73558 0.0
O85 O 0.49475 0.05798 0.71424 0.0
Cd86 Cd 0.56588 0.11383 0.74909 0.0
O87 O 0.4453 0.0608 0.7769 0.0
Cd88 Cd 0.50009 0.10115 0.83785 0.0
C89 C 0.47507 0.21482 0.77507 0.0
O90 O 0.59994 0.09502 0.82319 0.0
O91 O 0.57019 0.16567 0.86087 0.0
O92 O 0.49565 0.01415 0.87842 0.0
C93 C 0.61115 0.13897 0.84503 0.0
O94 O 0.51952 0.20156 0.75444 0.0
C95 C 0.47152 0.03288 0.91331 0.0
O96 O 0.45438 0.18402 0.80619 0.0
O97 O 0.45889 0.08411 0.91328 0.0
C98 C 0.87713 0.9533 0.25133 0.0
O99 O 0.86318 -0.00801 0.22495 0.0
Cd100 Cd 0.78933 0.05179 0.25196 0.0
O101 O 0.85736 0.95308 0.29113 0.0
Cd102 Cd 0.80552 -0.00219 0.35142 0.0
C103 C 0.69773 0.95058 0.29222 0.0
O104 O 0.79824 0.09345 0.3254 0.0
O105 O 0.74036 0.06529 0.37752 0.0
O106 O 0.89275 0.00693 0.39086 0.0
C107 C 0.75676 0.10354 0.35115 0.0
O108 O 0.71351 -0.01348 0.26329 0.0
C109 C 0.87839 -0.02134 0.42518 0.0
O110 O 0.72454 0.94221 0.32854 0.0
O111 O 0.82919 -0.04087 0.42604 0.0
C112 C -0.01314 0.48039 0.94727 0.0
C113 C 0.94864 0.43588 0.95271 0.0
C114 C 0.91599 0.47524 0.02432 0.0
C115 C 0.95703 0.5174 0.02052 0.0
N116 N 0.03521 0.55789 0.98149 0.0
N117 N 0.8801 0.38735 -0.00238 0.0
C118 C -0.00655 0.51945 0.98276 0.0
C119 C 0.91415 0.43229 -0.00836 0.0
N120 N 0.01642 0.48555 0.90793 0.0
N121 N 0.87806 0.47696 0.05886 0.0
H122 H 0.87563 0.35636 0.97358 0.0
H123 H 0.85877 0.37866 0.02745 0.0
H124 H 0.87883 0.50693 0.08403 0.0
H125 H 0.84336 0.45133 0.06109 0.0
H126 H 0.04034 0.52009 0.89955 0.0
H127 H 0.01456 0.45642 0.88216 0.0
H128 H 0.06714 0.55802 0.95768 0.0
H129 H 0.03981 0.58822 0.0061 0.0
C130 C 0.46032 0.44473 0.53173 0.0
C131 C 0.4073 0.46815 0.52372 0.0
C132 C 0.43281 0.48247 0.44418 0.0
C133 C 0.48321 0.45354 0.45122 0.0
N134 N 0.54042 0.39834 0.50006 0.0
N135 N 0.34054 0.50486 0.47178 0.0
C136 C 0.49601 0.43266 0.49464 0.0
C137 C 0.39273 0.48551 0.4797 0.0
N138 N 0.47678 0.43383 0.5748 0.0
N139 N 0.42435 0.50921 0.40417 0.0
H140 H 0.31119 0.51065 0.49732 0.0
H141 H 0.32514 0.51192 0.43963 0.0
H142 H 0.45331 0.50923 0.37786 0.0
H143 H 0.39119 0.53565 0.39844 0.0
H144 H 0.5172 0.42303 0.58303 0.0
H145 H 0.45143 0.43966 0.60295 0.0
H146 H 0.54803 0.37656 0.52968 0.0
H147 H 0.56696 0.38723 0.47374 0.0
C148 C 0.47826 -0.03047 0.03128 0.0
C149 C 0.44994 0.9186 0.02428 0.0
C150 C 0.42801 0.94746 0.94707 0.0
C151 C 0.46069 -0.00403 0.95269 0.0
N152 N 0.52403 0.0494 -0.00228 0.0
N153 N 0.40224 0.85609 0.97474 0.0
C154 C 0.48731 0.00633 -0.0057 0.0
C155 C 0.42622 0.90663 0.98186 0.0
N156 N 0.49686 -0.01729 0.0733 0.0
N157 N 0.3969 0.94155 0.9091 0.0
H158 H 0.39778 0.82623 -0.0 0.0
H159 H 0.38999 0.84222 0.9432 0.0
H160 H 0.39631 -0.02885 0.88343 0.0
H161 H 0.36789 0.91007 0.90469 0.0
H162 H 0.51124 0.02191 0.08189 0.0
H163 H 0.49486 0.9555 0.10062 0.0
H164 H 0.54982 0.05523 0.02523 0.0
H165 H 0.53235 0.07712 0.9715 0.0
C166 C 0.93424 0.01586 0.48931 0.0
C167 C 0.91781 -0.02998 0.4627 0.0
C168 C -0.01487 0.91099 0.50164 0.0
C169 C -0.00083 0.95603 0.52995 0.0
N170 N -0.01937 0.04842 0.55637 0.0
N171 N 0.92282 0.87269 0.44581 0.0
C172 C -0.02781 0.00781 0.52516 0.0
C173 C 0.94165 0.91709 0.46975 0.0
N174 N 0.91363 0.0673 0.48022 0.0
N175 N 0.01509 0.86319 0.50401 0.0
H176 H 0.89325 0.87601 0.42056 0.0
H177 H 0.93378 0.83196 0.45266 0.0
H178 H 0.04732 0.85753 0.52674 0.0
H179 H 0.01123 0.83069 0.48138 0.0
H180 H 0.92937 0.10351 0.49413 0.0
H181 H 0.88257 0.07442 0.45671 0.0
H182 H 0.95749 0.0846 0.55796 0.0
H183 H 0.00777 0.04426 0.58329 0.0
C184 C 0.19647 0.66336 0.14443 0.0
C185 C 0.15121 0.68612 0.16842 0.0
C186 C 0.20525 0.77002 0.18357 0.0
C187 C 0.2532 0.74318 0.16692 0.0
N188 N 0.29553 0.66416 0.13064 0.0
N189 N 0.11012 0.76152 0.20975 0.0
C190 C 0.24902 0.69026 0.14617 0.0
C191 C 0.15471 0.73993 0.18723 0.0
N192 N 0.18904 0.61606 0.12009 0.0
N193 N 0.20815 0.8247 0.19498 0.0
H194 H 0.07151 0.74202 0.21107 0.0
H195 H 0.11187 0.79738 0.22897 0.0
H196 H 0.24462 0.84784 0.19164 0.0
H197 H 0.17379 0.84845 0.20355 0.0
H198 H 0.21869 0.60013 0.09806 0.0
H199 H 0.15113 0.59513 0.11902 0.0
H200 H 0.29625 0.62286 0.12091 0.0
H201 H 0.33462 0.68254 0.12967 0.0
C202 C 0.24608 0.69469 0.64865 0.0
C203 C 0.22463 0.65252 0.67723 0.0
C204 C 0.14407 0.71004 0.69544 0.0
C205 C 0.17031 0.75532 0.67353 0.0
N206 N 0.24624 0.79176 0.62835 0.0
N207 N 0.15224 0.61783 0.72679 0.0
C208 C 0.2207 0.74772 0.64897 0.0
C209 C 0.17307 0.65942 0.70008 0.0
N210 N 0.291 0.68422 0.62161 0.0
N211 N 0.0907 0.71541 0.71071 0.0
H212 H 0.16981 0.57856 0.72854 0.0
H213 H 0.11878 0.62269 0.74877 0.0
H214 H 0.06821 0.75184 0.70659 0.0
H215 H 0.06689 0.68272 0.72331 0.0
H216 H 0.30472 0.71084 0.59616 0.0
H217 H 0.31248 0.64691 0.62231 0.0
H218 H 0.28654 0.7907 0.61556 0.0
H219 H 0.2285 0.83076 0.62579 0.0
C220 C 0.70639 0.1642 0.81233 0.0
C221 C 0.66833 0.16235 0.84933 0.0
C222 C 0.72773 0.22745 0.89065 0.0
C223 C 0.76595 0.22782 0.85422 0.0
N224 N 0.80095 0.18051 0.78884 0.0
N225 N 0.6537 0.17761 0.92893 0.0
C226 C 0.75801 0.19152 0.81754 0.0
C227 C 0.68234 0.18965 0.89014 0.0
N228 N 0.69347 0.14218 0.77148 0.0
N229 N 0.73405 0.26386 0.92531 0.0
H230 H 0.62271 0.14737 0.93051 0.0
H231 H 0.66504 0.19263 0.96038 0.0
H232 H 0.76722 0.29162 0.92701 0.0
H233 H 0.70413 0.26948 0.95039 0.0
H234 H 0.71672 0.15025 0.74238 0.0
H235 H 0.65851 0.11861 0.76535 0.0
H236 H 0.79953 0.14992 0.76424 0.0
H237 H 0.84018 0.19698 0.79375 0.0
C238 C 0.68022 0.2339 0.38509 0.0
C239 C 0.65709 0.25101 0.34341 0.0
C240 C 0.69266 0.16608 0.30878 0.0
C241 C 0.72414 0.15515 0.34783 0.0
N242 N 0.75234 0.18196 0.42229 0.0
N243 N 0.64675 0.23379 0.26319 0.0
C244 C 0.71913 0.18999 0.38581 0.0
C245 C 0.66446 0.21718 0.30459 0.0
N246 N 0.66313 0.25801 0.42436 0.0
N247 N 0.68691 0.12638 0.27659 0.0
H248 H 0.62267 0.26835 0.25762 0.0
H249 H 0.65887 0.21429 0.23347 0.0
H250 H 0.70475 0.08756 0.27954 0.0
H251 H 0.65933 0.1296 0.24991 0.0
H252 H 0.67497 0.24391 0.45604 0.0
H253 H 0.63189 0.2877 0.42555 0.0
H254 H 0.75443 0.20968 0.44901 0.0
H255 H 0.78152 0.1503 0.42394 0.0
C256 C 0.81098 0.45237 0.26823 0.0
C257 C 0.76324 0.48456 0.27755 0.0
C258 C 0.81395 0.56734 0.25364 0.0
C259 C 0.85587 0.53358 0.23437 0.0
N260 N 0.89261 0.44198 0.22125 0.0
N261 N 0.7176 0.57349 0.27559 0.0
C262 C 0.85475 0.47555 0.24184 0.0
C263 C 0.76444 0.54252 0.27018 0.0
N264 N 0.81405 0.39949 0.28439 0.0
N265 N 0.82171 0.62321 0.25627 0.0
H266 H 0.67991 0.55734 0.28703 0.0
H267 H 0.71505 0.61464 0.26523 0.0
H268 H 0.85844 0.64223 0.24562 0.0
H269 H 0.79464 0.64935 0.27345 0.0
H270 H 0.84975 0.37555 0.28201 0.0
H271 H 0.78272 0.38193 0.30442 0.0
H272 H 0.88944 0.39898 0.22158 0.0
H273 H 0.92472 0.45666 0.20075 0.0
C274 C 0.39121 0.34827 0.76799 0.0
C275 C 0.38645 0.35366 0.72055 0.0
C276 C 0.43431 0.26591 0.70994 0.0
C277 C 0.44367 0.26255 0.75716 0.0
N278 N 0.4403 0.30602 0.83014 0.0
N279 N 0.41596 0.32524 0.64632 0.0
C280 C 0.42471 0.30529 0.78603 0.0
C281 C 0.41186 0.31481 0.69156 0.0
N282 N 0.36208 0.3826 0.79582 0.0
N283 N 0.44415 0.22153 0.68257 0.0
H284 H 0.40055 0.361 0.63132 0.0
H285 H 0.43971 0.30125 0.62443 0.0
H286 H 0.45937 0.18378 0.69386 0.0
H287 H 0.4316 0.22013 0.64911 0.0
H288 H 0.3591 0.3767 0.83053 0.0
H289 H 0.33719 0.41449 0.78389 0.0
H290 H 0.43242 0.33912 0.85157 0.0
H291 H 0.46556 0.27583 0.84431 0.0
C292 C 0.59403 0.84171 0.25538 0.0
C293 C 0.55282 0.87756 0.2379 0.0
C294 C 0.59753 0.95551 0.27539 0.0
C295 C 0.64456 0.9221 0.28345 0.0
N296 N 0.68883 0.83296 0.28068 0.0
N297 N 0.51702 -0.02969 0.22914 0.0
C298 C 0.6429 0.86475 0.27417 0.0
C299 C 0.5542 0.93485 0.24811 0.0
N300 N 0.586 0.78573 0.25441 0.0
N301 N 0.59487 0.00728 0.29356 0.0
H302 H 0.48521 -0.04247 0.20807 0.0
H303 H 0.52049 0.01318 0.23133 0.0
H304 H 0.62593 0.0229 0.31429 0.0
H305 H 0.55967 0.03201 0.29208 0.0
H306 H 0.6124 0.75769 0.26995 0.0
H307 H 0.54973 0.76776 0.24222 0.0
H308 H 0.69216 0.79241 0.26927 0.0
H309 H 0.72503 0.84821 0.2951 0.0
C310 C -0.02972 0.09918 0.78605 0.0
C311 C 0.00174 0.14859 0.78911 0.0
C312 C 0.08125 0.10124 0.75584 0.0
C313 C 0.04574 0.057 0.74294 0.0
N314 N 0.95403 0.0156 0.74388 0.0
N315 N 0.08752 0.19796 0.77638 0.0
C316 C -0.01018 0.0556 0.75838 0.0
C317 C 0.05777 0.1498 0.77467 0.0
N318 N 0.9211 0.09472 0.80901 0.0
N319 N 0.13736 0.09642 0.75057 0.0
H320 H 0.07197 0.23396 0.79091 0.0
H321 H 0.12623 0.20299 0.76099 0.0
H322 H 0.15592 0.06033 0.73874 0.0
H323 H 0.16549 0.12559 0.76252 0.0
H324 H 0.89823 0.05812 0.81114 0.0
H325 H 0.90646 0.12622 0.82987 0.0
H326 H 0.91147 0.01675 0.75011 0.0
H327 H -0.03447 -0.01634 0.72241 0.0
C328 C 0.02243 0.44134 0.70842 0.0
C329 C 0.0126 0.38384 0.71339 0.0
C330 C 0.10605 0.36331 0.68522 0.0
C331 C 0.11668 0.42086 0.68208 0.0
N332 N 0.08274 0.51405 0.6788 0.0
N333 N 0.03829 0.28987 0.69644 0.0
C334 C 0.07383 0.45972 0.68966 0.0
C335 C 0.05224 0.34473 0.69818 0.0
N336 N -0.01638 0.47811 0.7234 0.0
N337 N 0.14828 0.3267 0.67826 0.0
H338 H -0.00072 0.27494 0.70606 0.0
H339 H 0.06345 0.25971 0.68211 0.0
H340 H 0.18753 0.33898 0.66688 0.0
H341 H 0.14545 0.28465 0.68566 0.0
H342 H -0.00948 0.52054 0.72552 0.0
H343 H 0.94489 0.46561 0.7358 0.0
H344 H 0.05225 0.54431 0.68039 0.0
H345 H 0.11991 0.52787 0.66427 0.0
C346 C 0.55572 0.55323 0.18593 0.0
C347 C 0.519 0.51738 0.2099 0.0
C348 C 0.44393 0.58415 0.20168 0.0
C349 C 0.48272 0.6233 0.18421 0.0
N350 N 0.57579 0.64695 0.16073 0.0
N351 N 0.42866 0.497 0.24091 0.0
C352 C 0.5385 0.60803 0.17561 0.0
C353 C 0.46295 0.53204 0.21728 0.0
N354 N 0.60738 0.53509 0.17391 0.0
N355 N 0.38886 0.5972 0.20335 0.0
H356 H 0.44068 0.45739 0.25081 0.0
H357 H 0.38936 0.50782 0.25254 0.0
H358 H 0.37395 0.63555 0.19301 0.0
H359 H 0.35756 0.56903 0.21153 0.0
H360 H 0.63429 0.55707 0.15279 0.0
H361 H 0.62192 0.49582 0.18221 0.0
H362 H 0.61842 0.64062 0.15927 0.0
H363 H 0.56448 0.68717 0.15211 0.0
C364 C 0.39451 -0.02492 0.69589 0.0
C365 C 0.39967 0.0303 0.71123 0.0
C366 C 0.30486 0.04987 0.68652 0.0
C367 C 0.29667 -0.00717 0.67919 0.0
N368 N 0.33204 0.90017 0.67595 0.0
N369 N 0.35934 0.1207 0.72275 0.0
C370 C 0.34141 0.95524 0.68274 0.0
C371 C 0.35495 0.0681 0.70639 0.0
N372 N 0.43987 0.94144 0.69499 0.0
N373 N 0.26404 0.08629 0.6752 0.0
H374 H 0.39545 0.13621 0.73691 0.0
H375 H 0.32622 0.148 0.72511 0.0
H376 H 0.22681 0.07345 0.66085 0.0
H377 H 0.26893 0.12908 0.67592 0.0
H378 H 0.44004 0.90238 0.68037 0.0
H379 H 0.47877 0.95416 0.7061 0.0
H380 H 0.36063 0.86932 0.68312 0.0
H381 H 0.29402 0.88522 0.66477 0.0
C382 C 0.93977 0.83777 0.17741 0.0
C383 C 0.93073 0.79322 0.20837 0.0
C384 C 0.91764 0.86102 0.26783 0.0
C385 C 0.90984 0.90378 0.23595 0.0
N386 N 0.92317 0.93394 0.15858 0.0
N387 N 0.89548 0.76624 0.28232 0.0
C388 C 0.92345 0.89261 0.18997 0.0
C389 C 0.91505 0.80593 0.25338 0.0
N390 N -0.03249 0.82907 0.13775 0.0
N391 N 0.92887 0.87266 0.31176 0.0
H392 H 0.88681 0.72599 0.27223 0.0
H393 H 0.88099 0.77568 0.31461 0.0
H394 H 0.93759 0.9128 0.32253 0.0
H395 H 0.93724 0.84175 0.33537 0.0
H396 H -0.02028 0.86099 0.11611 0.0
H397 H -0.01598 0.79101 0.12861 0.0
H398 H 0.92359 0.92637 0.12404 0.0
H399 H 0.92393 -0.02432 0.16697 0.0
loop_
_geom_bond_atom_site_label_1
_geom_bond_atom_site_label_2
_geom_bond_distance
_geom_bond_site_symmetry_2
_ccdc_geom_bond_type
C0 O1 1.306 . S
C0 O3 1.160 . S
O1 C0 1.306 . S
O1 Cd2 2.228 . S
Cd2 O1 2.228 . S
Cd2 O6 2.273 . S
Cd2 O10 2.277 . S
O3 C0 1.160 . S
O3 Cd4 2.203 . S
Cd4 O3 2.203 . S
Cd4 O6 2.411 . S
Cd4 O7 2.333 1_455 S
Cd4 O8 2.352 . S
Cd4 O12 2.277 1_455 S
Cd4 O13 2.356 1_455 S
C5 O10 1.209 1_655 S
C5 O12 1.226 . S
O6 Cd2 2.273 . S
O6 Cd4 2.411 . S
O6 C9 1.320 1_455 S
O7 Cd4 2.333 1_655 S
O7 C9 1.214 . S
O8 Cd4 2.352 . S
O8 C11 1.258 . S
C9 O6 1.320 1_655 S
C9 O7 1.214 . S
O10 Cd2 2.277 . S
O10 C5 1.209 1_455 S
C11 O8 1.258 . S
C11 O13 1.282 1_455 S
O12 Cd4 2.277 1_655 S
O12 C5 1.226 . S
O13 Cd4 2.356 1_655 S
O13 C11 1.282 1_655 S
C14 O15 1.306 . S
C14 O17 1.160 . S
O15 C14 1.306 . S
O15 Cd16 2.228 . S
Cd16 O15 2.228 . S
Cd16 O20 2.273 . S
Cd16 O24 2.277 . S
O17 C14 1.160 . S
O17 Cd18 2.203 . S
Cd18 O17 2.203 . S
Cd18 O20 2.411 . S
Cd18 O21 2.333 . S
Cd18 O22 2.352 . S
Cd18 O26 2.277 . S
Cd18 O27 2.356 . S
C19 O24 1.209 . S
C19 O26 1.226 . S
O20 Cd16 2.273 . S
O20 Cd18 2.411 . S
O20 C23 1.320 . S
O21 Cd18 2.333 . S
O21 C23 1.214 . S
O22 Cd18 2.352 . S
O22 C25 1.258 . S
C23 O20 1.320 . S
C23 O21 1.214 . S
O24 Cd16 2.277 . S
O24 C19 1.209 . S
C25 O22 1.258 . S
C25 O27 1.282 . S
O26 Cd18 2.277 . S
O26 C19 1.226 . S
O27 Cd18 2.356 . S
O27 C25 1.282 . S
C28 O29 1.306 . S
C28 O31 1.160 . S
O29 C28 1.306 . S
O29 Cd30 2.228 . S
Cd30 O29 2.228 . S
Cd30 O34 2.273 . S
Cd30 O38 2.277 . S
O31 C28 1.160 . S
O31 Cd32 2.203 . S
Cd32 O31 2.203 . S
Cd32 O34 2.411 . S
Cd32 O35 2.333 . S
Cd32 O36 2.352 . S
Cd32 O40 2.277 . S
Cd32 O41 2.356 . S
C33 O38 1.209 . S
C33 O40 1.226 . S
O34 Cd30 2.273 . S
O34 Cd32 2.411 . S
O34 C37 1.320 . S
O35 Cd32 2.333 . S
O35 C37 1.214 . S
O36 Cd32 2.352 . S
O36 C39 1.258 . S
C37 O34 1.320 . S
C37 O35 1.214 . S
O38 Cd30 2.277 . S
O38 C33 1.209 . S
C39 O36 1.258 . S
C39 O41 1.282 . S
O40 Cd32 2.277 . S
O40 C33 1.226 . S
O41 Cd32 2.356 . S
O41 C39 1.282 . S
C42 O43 1.306 . S
C42 O45 1.160 . S
O43 C42 1.306 . S
O43 Cd44 2.228 . S
Cd44 O43 2.228 . S
Cd44 O48 2.273 . S
Cd44 O52 2.277 . S
O45 C42 1.160 . S
O45 Cd46 2.203 . S
Cd46 O45 2.203 . S
Cd46 O48 2.411 . S
Cd46 O49 2.333 1_565 S
Cd46 O50 2.352 . S
Cd46 O54 2.277 1_565 S
Cd46 O55 2.356 1_565 S
C47 O52 1.209 1_545 S
C47 O54 1.226 . S
O48 Cd44 2.273 . S
O48 Cd46 2.411 . S
O48 C51 1.320 1_565 S
O49 Cd46 2.333 1_545 S
O49 C51 1.214 . S
O50 Cd46 2.352 . S
O50 C53 1.258 . S
C51 O48 1.320 1_545 S
C51 O49 1.214 . S
O52 Cd44 2.277 . S
O52 C47 1.209 1_565 S
C53 O50 1.258 . S
C53 O55 1.282 1_565 S
O54 Cd46 2.277 1_545 S
O54 C47 1.226 . S
O55 Cd46 2.356 1_545 S
O55 C53 1.282 1_545 S
C56 O57 1.306 1_455 S
C56 O59 1.160 . S
O57 C56 1.306 1_655 S
O57 Cd58 2.228 . S
Cd58 O57 2.228 . S
Cd58 O62 2.273 . S
Cd58 O66 2.277 . S
O59 C56 1.160 . S
O59 Cd60 2.203 1_455 S
Cd60 O59 2.203 1_655 S
Cd60 O62 2.411 . S
Cd60 O63 2.333 . S
Cd60 O64 2.352 . S
Cd60 O68 2.277 1_655 S
Cd60 O69 2.356 . S
C61 O66 1.209 1_455 S
C61 O68 1.226 . S
O62 Cd58 2.273 . S
O62 Cd60 2.411 . S
O62 C65 1.320 . S
O63 Cd60 2.333 . S
O63 C65 1.214 . S
O64 Cd60 2.352 . S
O64 C67 1.258 . S
C65 O62 1.320 . S
C65 O63 1.214 . S
O66 Cd58 2.277 . S
O66 C61 1.209 1_655 S
C67 O64 1.258 . S
C67 O69 1.282 . S
O68 Cd60 2.277 1_455 S
O68 C61 1.226 . S
O69 Cd60 2.356 . S
O69 C67 1.282 . S
C70 O71 1.306 . S
C70 O73 1.160 . S
O71 C70 1.306 . S
O71 Cd72 2.228 . S
Cd72 O71 2.228 . S
Cd72 O76 2.273 . S
Cd72 O80 2.277 . S
O73 C70 1.160 . S
O73 Cd74 2.203 . S
Cd74 O73 2.203 . S
Cd74 O76 2.411 . S
Cd74 O77 2.333 . S
Cd74 O78 2.352 . S
Cd74 O82 2.277 . S
Cd74 O83 2.356 . S
C75 O80 1.209 . S
C75 O82 1.226 . S
O76 Cd72 2.273 . S
O76 Cd74 2.411 . S
O76 C79 1.320 . S
O77 Cd74 2.333 . S
O77 C79 1.214 . S
O78 Cd74 2.352 . S
O78 C81 1.258 . S
C79 O76 1.320 . S
C79 O77 1.214 . S
O80 Cd72 2.277 . S
O80 C75 1.209 . S
C81 O78 1.258 . S
C81 O83 1.282 . S
O82 Cd74 2.277 . S
O82 C75 1.226 . S
O83 Cd74 2.356 . S
O83 C81 1.282 . S
C84 O85 1.306 . S
C84 O87 1.160 . S
O85 C84 1.306 . S
O85 Cd86 2.228 . S
Cd86 O85 2.228 . S
Cd86 O90 2.273 . S
Cd86 O94 2.277 . S
O87 C84 1.160 . S
O87 Cd88 2.203 . S
Cd88 O87 2.203 . S
Cd88 O90 2.411 . S
Cd88 O91 2.333 . S
Cd88 O92 2.352 . S
Cd88 O96 2.277 . S
Cd88 O97 2.356 . S
C89 O94 1.209 . S
C89 O96 1.226 . S
O90 Cd86 2.273 . S
O90 Cd88 2.411 . S
O90 C93 1.320 . S
O91 Cd88 2.333 . S
O91 C93 1.214 . S
O92 Cd88 2.352 . S
O92 C95 1.258 . S
C93 O90 1.320 . S
C93 O91 1.214 . S
O94 Cd86 2.277 . S
O94 C89 1.209 . S
C95 O92 1.258 . S
C95 O97 1.282 . S
O96 Cd88 2.277 . S
O96 C89 1.226 . S
O97 Cd88 2.356 . S
O97 C95 1.282 . S
C98 O99 1.306 1_565 S
C98 O101 1.160 . S
O99 C98 1.306 1_545 S
O99 Cd100 2.228 . S
Cd100 O99 2.228 . S
Cd100 O104 2.273 . S
Cd100 O108 2.277 . S
O101 C98 1.160 . S
O101 Cd102 2.203 1_565 S
Cd102 O101 2.203 1_545 S
Cd102 O104 2.411 . S
Cd102 O105 2.333 . S
Cd102 O106 2.352 . S
Cd102 O110 2.277 1_545 S
Cd102 O111 2.356 . S
C103 O108 1.209 1_565 S
C103 O110 1.226 . S
O104 Cd100 2.273 . S
O104 Cd102 2.411 . S
O104 C107 1.320 . S
O105 Cd102 2.333 . S
O105 C107 1.214 . S
O106 Cd102 2.352 . S
O106 C109 1.258 . S
C107 O104 1.320 . S
C107 O105 1.214 . S
O108 Cd100 2.277 . S
O108 C103 1.209 1_545 S
C109 O106 1.258 . S
C109 O111 1.282 . S
O110 Cd102 2.277 1_565 S
O110 C103 1.226 . S
O111 Cd102 2.356 . S
O111 C109 1.282 . S
C112 C113 1.363 1_455 S
C112 C118 1.379 . S
C112 N120 1.356 . S
C113 C112 1.363 1_655 S
C113 C119 1.363 1_556 S
C114 C115 1.363 1_655 S
C114 C119 1.379 . S
C114 N121 1.356 . S
C115 C114 1.363 1_455 S
C115 C118 1.363 1_554 S
N116 C118 1.356 . S
N116 H128 0.984 . S
N116 H129 0.985 1_556 S
N117 C119 1.356 . S
N117 H122 0.984 1_554 S
N117 H123 0.985 . S
C118 C112 1.379 . S
C118 C115 1.363 1_556 S
C118 N116 1.356 . S
C119 C113 1.363 1_554 S
C119 C114 1.379 . S
C119 N117 1.356 . S
N120 C112 1.356 . S
N120 H126 0.984 . S
N120 H127 0.984 . S
N121 C114 1.356 . S
N121 H124 0.984 . S
N121 H125 0.985 . S
H122 N117 0.984 1_556 S
H123 N117 0.985 . S
H124 N121 0.984 . S
H125 N121 0.985 . S
H126 N120 0.984 . S
H127 N120 0.984 . S
H128 N116 0.984 . S
H129 N116 0.985 1_554 S
C130 C131 1.363 . S
C130 C136 1.379 . S
C130 N138 1.356 . S
C131 C130 1.363 . S
C131 C137 1.363 . S
C132 C133 1.363 . S
C132 C137 1.379 . S
C132 N139 1.356 . S
C133 C132 1.363 . S
C133 C136 1.363 . S
N134 C136 1.356 . S
N134 H146 0.984 . S
N134 H147 0.985 . S
N135 C137 1.356 . S
N135 H140 0.984 . S
N135 H141 0.985 . S
C136 C130 1.379 . S
C136 C133 1.363 . S
C136 N134 1.356 . S
C137 C131 1.363 . S
C137 C132 1.379 . S
C137 N135 1.356 . S
N138 C130 1.356 . S
N138 H144 0.984 . S
N138 H145 0.984 . S
N139 C132 1.356 . S
N139 H142 0.984 . S
N139 H143 0.985 . S
H140 N135 0.984 . S
H141 N135 0.985 . S
H142 N139 0.984 . S
H143 N139 0.985 . S
H144 N138 0.984 . S
H145 N138 0.984 . S
H146 N134 0.984 . S
H147 N134 0.985 . S
C148 C149 1.363 1_545 S
C148 C154 1.379 . S
C148 N156 1.356 . S
C149 C148 1.363 1_565 S
C149 C155 1.363 1_554 S
C150 C151 1.363 1_565 S
C150 C155 1.379 . S
C150 N157 1.358 . S
C151 C150 1.363 1_545 S
C151 C154 1.363 1_556 S
N152 C154 1.356 . S
N152 H164 0.984 . S
N152 H165 0.985 1_554 S
N153 C155 1.356 . S
N153 H158 0.984 1_556 S
N153 H159 0.985 . S
C154 C148 1.379 . S
C154 C151 1.363 1_554 S
C154 N152 1.356 . S
C155 C149 1.363 1_556 S
C155 C150 1.379 . S
C155 N153 1.356 . S
N156 C148 1.356 . S
N156 H162 0.984 . S
N156 H163 0.984 1_545 S
N157 C150 1.358 . S
N157 H160 0.971 1_565 S
N157 H161 0.997 . S
H158 N153 0.984 1_554 S
H159 N153 0.985 . S
H160 N157 0.971 1_545 S
H161 N157 0.997 . S
H162 N156 0.984 . S
H163 N156 0.984 1_565 S
H164 N152 0.984 . S
H165 N152 0.985 1_556 S
C166 C167 1.363 . S
C166 C172 1.379 1_655 S
C166 N174 1.356 . S
C167 C166 1.363 . S
C167 C173 1.363 1_545 S
C168 C169 1.363 1_655 S
C168 C173 1.379 . S
C168 N175 1.356 1_655 S
C169 C168 1.363 1_455 S
C169 C172 1.363 1_565 S
N170 C172 1.356 . S
N170 H182 0.984 . S
N170 H183 0.985 . S
N171 C173 1.356 . S
N171 H176 0.984 . S
N171 H177 0.985 . S
C172 C166 1.379 1_455 S
C172 C169 1.363 1_545 S
C172 N170 1.356 . S
C173 C167 1.363 1_565 S
C173 C168 1.379 . S
C173 N171 1.356 . S
N174 C166 1.356 . S
N174 H180 0.984 1_655 S
N174 H181 0.984 . S
N175 C168 1.356 1_455 S
N175 H178 0.984 . S
N175 H179 0.985 1_455 S
H176 N171 0.984 . S
H177 N171 0.985 . S
H178 N175 0.984 . S
H179 N175 0.985 1_655 S
H180 N174 0.984 1_455 S
H181 N174 0.984 . S
H182 N170 0.984 . S
H183 N170 0.985 . S
C184 C185 1.363 . S
C184 C190 1.379 . S
C184 N192 1.356 . S
C185 C184 1.363 . S
C185 C191 1.363 . S
C186 C187 1.363 . S
C186 C191 1.379 . S
C186 N193 1.356 . S
C187 C186 1.363 . S
C187 C190 1.363 . S
N188 C190 1.356 . S
N188 H200 0.984 . S
N188 H201 0.985 . S
N189 C191 1.356 . S
N189 H194 0.984 . S
N189 H195 0.985 . S
C190 C184 1.379 . S
C190 C187 1.363 . S
C190 N188 1.356 . S
C191 C185 1.363 . S
C191 C186 1.379 . S
C191 N189 1.356 . S
N192 C184 1.356 . S
N192 H198 0.984 . S
N192 H199 0.984 . S
N193 C186 1.356 . S
N193 H196 0.984 . S
N193 H197 0.985 . S
H194 N189 0.984 . S
H195 N189 0.985 . S
H196 N193 0.984 . S
H197 N193 0.985 . S
H198 N192 0.984 . S
H199 N192 0.984 . S
H200 N188 0.984 . S
H201 N188 0.985 . S
C202 C203 1.363 . S
C202 C208 1.379 . S
C202 N210 1.356 . S
C203 C202 1.363 . S
C203 C209 1.363 . S
C204 C205 1.363 . S
C204 C209 1.379 . S
C204 N211 1.356 . S
C205 C204 1.363 . S
C205 C208 1.363 . S
N206 C208 1.356 . S
N206 H218 0.984 . S
N206 H219 0.985 . S
N207 C209 1.356 . S
N207 H212 0.984 . S
N207 H213 0.985 . S
C208 C202 1.379 . S
C208 C205 1.363 . S
C208 N206 1.356 . S
C209 C203 1.363 . S
C209 C204 1.379 . S
C209 N207 1.356 . S
N210 C202 1.356 . S
N210 H216 0.984 . S
N210 H217 0.984 . S
N211 C204 1.356 . S
N211 H214 0.984 . S
N211 H215 0.985 . S
H212 N207 0.984 . S
H213 N207 0.985 . S
H214 N211 0.984 . S
H215 N211 0.985 . S
H216 N210 0.984 . S
H217 N210 0.984 . S
H218 N206 0.984 . S
H219 N206 0.985 . S
C220 C221 1.363 . S
C220 C226 1.379 . S
C220 N228 1.356 . S
C221 C220 1.363 . S
C221 C227 1.363 . S
C222 C223 1.363 . S
C222 C227 1.379 . S
C222 N229 1.356 . S
C223 C222 1.363 . S
C223 C226 1.363 . S
N224 C226 1.356 . S
N224 H236 0.984 . S
N224 H237 0.985 . S
N225 C227 1.356 . S
N225 H230 0.984 . S
N225 H231 0.985 . S
C226 C220 1.379 . S
C226 C223 1.363 . S
C226 N224 1.356 . S
C227 C221 1.363 . S
C227 C222 1.379 . S
C227 N225 1.356 . S
N228 C220 1.356 . S
N228 H234 0.984 . S
N228 H235 0.984 . S
N229 C222 1.356 . S
N229 H232 0.984 . S
N229 H233 0.985 . S
H230 N225 0.984 . S
H231 N225 0.985 . S
H232 N229 0.984 . S
H233 N229 0.985 . S
H234 N228 0.984 . S
H235 N228 0.984 . S
H236 N224 0.984 . S
H237 N224 0.985 . S
C238 C239 1.363 . S
C238 C244 1.379 . S
C238 N246 1.356 . S
C239 C238 1.363 . S
C239 C245 1.363 . S
C240 C241 1.363 . S
C240 C245 1.379 . S
C240 N247 1.356 . S
C241 C240 1.363 . S
C241 C244 1.363 . S
N242 C244 1.356 . S
N242 H254 0.984 . S
N242 H255 0.985 . S
N243 C245 1.356 . S
N243 H248 0.984 . S
N243 H249 0.985 . S
C244 C238 1.379 . S
C244 C241 1.363 . S
C244 N242 1.356 . S
C245 C239 1.363 . S
C245 C240 1.379 . S
C245 N243 1.356 . S
N246 C238 1.356 . S
N246 H252 0.984 . S
N246 H253 0.984 . S
N247 C240 1.356 . S
N247 H250 0.984 . S
N247 H251 0.985 . S
H248 N243 0.984 . S
H249 N243 0.985 . S
H250 N247 0.984 . S
H251 N247 0.985 . S
H252 N246 0.984 . S
H253 N246 0.984 . S
H254 N242 0.984 . S
H255 N242 0.985 . S
C256 C257 1.363 . S
C256 C262 1.379 . S
C256 N264 1.356 . S
C257 C256 1.363 . S
C257 C263 1.363 . S
C258 C259 1.363 . S
C258 C263 1.379 . S
C258 N265 1.356 . S
C259 C258 1.363 . S
C259 C262 1.363 . S
N260 C262 1.356 . S
N260 H272 0.984 . S
N260 H273 0.979 1_655 S
N261 C263 1.356 . S
N261 H266 0.984 . S
N261 H267 0.985 . S
C262 C256 1.379 . S
C262 C259 1.363 . S
C262 N260 1.356 . S
C263 C257 1.363 . S
C263 C258 1.379 . S
C263 N261 1.356 . S
N264 C256 1.356 . S
N264 H270 0.984 . S
N264 H271 0.984 . S
N265 C258 1.356 . S
N265 H268 0.984 . S
N265 H269 0.985 . S
H266 N261 0.984 . S
H267 N261 0.985 . S
H268 N265 0.984 . S
H269 N265 0.985 . S
H270 N264 0.984 . S
H271 N264 0.984 . S
H272 N260 0.984 . S
H273 N260 0.979 1_455 S
C274 C275 1.363 . S
C274 C280 1.379 . S
C274 N282 1.356 . S
C275 C274 1.363 . S
C275 C281 1.363 . S
C276 C277 1.363 . S
C276 C281 1.379 . S
C276 N283 1.356 . S
C277 C276 1.363 . S
C277 C280 1.363 . S
N278 C280 1.356 . S
N278 H290 0.984 . S
N278 H291 0.985 . S
N279 C281 1.356 . S
N279 H284 0.984 . S
N279 H285 0.985 . S
C280 C274 1.379 . S
C280 C277 1.363 . S
C280 N278 1.356 . S
C281 C275 1.363 . S
C281 C276 1.379 . S
C281 N279 1.356 . S
N282 C274 1.356 . S
N282 H288 0.984 . S
N282 H289 0.984 . S
N283 C276 1.356 . S
N283 H286 0.984 . S
N283 H287 0.985 . S
H284 N279 0.984 . S
H285 N279 0.985 . S
H286 N283 0.984 . S
H287 N283 0.985 . S
H288 N282 0.984 . S
H289 N282 0.984 . S
H290 N278 0.984 . S
H291 N278 0.985 . S
C292 C293 1.363 . S
C292 C298 1.379 . S
C292 N300 1.356 . S
C293 C292 1.363 . S
C293 C299 1.363 . S
C294 C295 1.363 1_545 S
C294 C299 1.379 1_545 S
C294 N301 1.356 . S
C295 C294 1.363 1_565 S
C295 C298 1.363 . S
N296 C298 1.356 . S
N296 H308 0.984 . S
N296 H309 0.985 . S
N297 C299 1.356 1_545 S
N297 H302 0.984 1_545 S
N297 H303 0.985 . S
C298 C292 1.379 . S
C298 C295 1.363 . S
C298 N296 1.356 . S
C299 C293 1.363 . S
C299 C294 1.379 1_565 S
C299 N297 1.356 1_565 S
N300 C292 1.356 . S
N300 H306 0.984 . S
N300 H307 0.984 . S
N301 C294 1.356 . S
N301 H304 0.984 . S
N301 H305 0.985 . S
H302 N297 0.984 1_565 S
H303 N297 0.985 . S
H304 N301 0.984 . S
H305 N301 0.985 . S
H306 N300 0.984 . S
H307 N300 0.984 . S
H308 N296 0.984 . S
H309 N296 0.985 . S
C310 C311 1.363 . S
C310 C316 1.379 . S
C310 N318 1.356 1_455 S
C311 C310 1.363 . S
C311 C317 1.363 . S
C312 C313 1.363 . S
C312 C317 1.379 . S
C312 N319 1.356 . S
C313 C312 1.363 . S
C313 C316 1.363 . S
N314 C316 1.356 . S
N314 H326 0.984 1_455 S
N314 H327 0.985 1_545 S
N315 C317 1.356 . S
N315 H320 0.984 . S
N315 H321 0.985 . S
C316 C310 1.379 . S
C316 C313 1.363 . S
C316 N314 1.356 . S
C317 C311 1.363 . S
C317 C312 1.379 . S
C317 N315 1.356 . S
N318 C310 1.356 1_655 S
N318 H324 0.984 . S
N318 H325 0.984 . S
N319 C312 1.356 . S
N319 H322 0.984 . S
N319 H323 0.985 . S
H320 N315 0.984 . S
H321 N315 0.985 . S
H322 N319 0.984 . S
H323 N319 0.985 . S
H324 N318 0.984 . S
H325 N318 0.984 . S
H326 N314 0.984 1_655 S
H327 N314 0.985 1_565 S
C328 C329 1.363 . S
C328 C334 1.379 . S
C328 N336 1.356 . S
C329 C328 1.363 . S
C329 C335 1.363 . S
C330 C331 1.363 . S
C330 C335 1.379 . S
C330 N337 1.356 . S
C331 C330 1.363 . S
C331 C334 1.363 . S
N332 C334 1.356 . S
N332 H344 0.984 . S
N332 H345 0.985 . S
N333 C335 1.356 . S
N333 H338 0.984 . S
N333 H339 0.985 . S
C334 C328 1.379 . S
C334 C331 1.363 . S
C334 N332 1.356 . S
C335 C329 1.363 . S
C335 C330 1.379 . S
C335 N333 1.356 . S
N336 C328 1.356 . S
N336 H342 0.984 . S
N336 H343 0.984 . S
N337 C330 1.356 . S
N337 H340 0.984 . S
N337 H341 0.985 . S
H338 N333 0.984 . S
H339 N333 0.985 . S
H340 N337 0.984 . S
H341 N337 0.985 . S
H342 N336 0.984 . S
H343 N336 0.984 . S
H344 N332 0.984 . S
H345 N332 0.985 . S
C346 C347 1.363 . S
C346 C352 1.379 . S
C346 N354 1.356 . S
C347 C346 1.363 . S
C347 C353 1.363 . S
C348 C349 1.363 . S
C348 C353 1.379 . S
C348 N355 1.356 . S
C349 C348 1.363 . S
C349 C352 1.363 . S
N350 C352 1.356 . S
N350 H362 0.984 . S
N350 H363 0.985 . S
N351 C353 1.356 . S
N351 H356 0.984 . S
N351 H357 0.985 . S
C352 C346 1.379 . S
C352 C349 1.363 . S
C352 N350 1.356 . S
C353 C347 1.363 . S
C353 C348 1.379 . S
C353 N351 1.356 . S
N354 C346 1.356 . S
N354 H360 0.984 . S
N354 H361 0.984 . S
N355 C348 1.356 . S
N355 H358 0.984 . S
N355 H359 0.985 . S
H356 N351 0.984 . S
H357 N351 0.985 . S
H358 N355 0.984 . S
H359 N355 0.985 . S
H360 N354 0.984 . S
H361 N354 0.984 . S
H362 N350 0.984 . S
H363 N350 0.985 . S
C364 C365 1.363 . S
C364 C370 1.379 . S
C364 N372 1.356 1_545 S
C365 C364 1.363 . S
C365 C371 1.363 . S
C366 C367 1.363 . S
C366 C371 1.379 . S
C366 N373 1.356 . S
C367 C366 1.363 . S
C367 C370 1.363 . S
N368 C370 1.356 1_565 S
N368 H380 0.984 . S
N368 H381 0.985 . S
N369 C371 1.356 . S
N369 H374 0.984 . S
N369 H375 0.985 . S
C370 C364 1.379 . S
C370 C367 1.363 . S
C370 N368 1.356 1_545 S
C371 C365 1.363 . S
C371 C366 1.379 . S
C371 N369 1.356 . S
N372 C364 1.356 1_565 S
N372 H378 0.984 . S
N372 H379 0.984 1_565 S
N373 C366 1.356 . S
N373 H376 0.984 . S
N373 H377 0.985 . S
H374 N369 0.984 . S
H375 N369 0.985 . S
H376 N373 0.984 . S
H377 N373 0.985 . S
H378 N372 0.984 . S
H379 N372 0.984 1_545 S
H380 N368 0.984 . S
H381 N368 0.985 . S
C382 C383 1.363 . S
C382 C388 1.379 . S
C382 N390 1.356 . S
C383 C382 1.363 . S
C383 C389 1.363 . S
C384 C385 1.363 . S
C384 C389 1.379 . S
C384 N391 1.356 . S
C385 C384 1.363 . S
C385 C388 1.363 . S
N386 C388 1.356 . S
N386 H398 0.984 . S
N386 H399 0.985 1_565 S
N387 C389 1.356 . S
N387 H392 0.984 . S
N387 H393 0.985 . S
C388 C382 1.379 . S
C388 C385 1.363 . S
C388 N386 1.356 . S
C389 C383 1.363 . S
C389 C384 1.379 . S
C389 N387 1.356 . S
N390 C382 1.356 . S
N390 H396 0.984 . S
N390 H397 0.984 . S
N391 C384 1.356 . S
N391 H394 0.984 . S
N391 H395 0.985 . S
H392 N387 0.984 . S
H393 N387 0.985 . S
H394 N391 0.984 . S
H395 N391 0.985 . S
H396 N390 0.984 . S
H397 N390 0.984 . S
H398 N386 0.984 . S
H399 N386 0.985 1_545 S
C113 C67 1.606 . S
C115 C11 1.596 . S
C131 C25 1.596 . S
C133 C81 1.606 . S
C149 C39 1.596 . S
C151 C95 1.606 . S
C167 C109 1.606 . S
C169 C53 1.596 . S
C185 C0 1.501 . S
C187 C28 1.501 . S
C203 C14 1.501 . S
C205 C42 1.501 . S
C221 C93 1.473 . S
C223 C65 1.473 . S
C239 C79 1.473 . S
C241 C107 1.473 . S
C257 C75 1.212 . S
C259 C9 1.187 . S
C275 C23 1.187 . S
C277 C89 1.213 . S
C293 C37 1.187 . S
C295 C103 1.213 . S
C311 C61 1.213 . S
C313 C51 1.187 . S
C329 C56 1.202 . S
C331 C19 1.230 . S
C347 C70 1.202 . S
C349 C33 1.230 . S
C365 C84 1.202 . S
C367 C47 1.230 . S
C383 C5 1.230 . S
C385 C98 1.202 . S
