# Generated by pormake.
# Topology wjz, (5)-cn, num edge types: 1
# Building blocks:
#     Node 0, Type 0, BuildingBlock: XOMCOT_clean_sbu_0, # of connection points: 5
#     Node 1, Type 0, BuildingBlock: XOMCOT_clean_sbu_0, # of connection points: 5
#     Node 2, Type 0, BuildingBlock: XOMCOT_clean_sbu_0, # of connection points: 5
#     Node 3, Type 0, BuildingBlock: XOMCOT_clean_sbu_0, # of connection points: 5
#     Node 4, Type 0, BuildingBlock: XOMCOT_clean_sbu_0, # of connection points: 5
#     Node 5, Type 0, BuildingBlock: XOMCOT_clean_sbu_0, # of connection points: 5
#     Node 6, Type 0, BuildingBlock: XOMCOT_clean_sbu_0, # of connection points: 5
#     Node 7, Type 0, BuildingBlock: XOMCOT_clean_sbu_0, # of connection points: 5
#     Node 8, Type 0, BuildingBlock: XOMCOT_clean_sbu_0, # of connection points: 5
#     Node 9, Type 0, BuildingBlock: XOMCOT_clean_sbu_0, # of connection points: 5
#     Node 10, Type 0, BuildingBlock: XOMCOT_clean_sbu_0, # of connection points: 5
#     Node 11, Type 0, BuildingBlock: XOMCOT_clean_sbu_0, # of connection points: 5
#     Edge 12, Type (0, 0), BuildingBlock: CIFDUS_clean_linker_0, # of connection points: 2
#     Edge 13, Type (0, 0), BuildingBlock: CIFDUS_clean_linker_0, # of connection points: 2
#     Edge 14, Type (0, 0), BuildingBlock: CIFDUS_clean_linker_0, # of connection points: 2
#     Edge 15, Type (0, 0), BuildingBlock: CIFDUS_clean_linker_0, # of connection points: 2
#     Edge 16, Type (0, 0), BuildingBlock: CIFDUS_clean_linker_0, # of connection points: 2
#     Edge 17, Type (0, 0), BuildingBlock: CIFDUS_clean_linker_0, # of connection points: 2
#     Edge 18, Type (0, 0), BuildingBlock: CIFDUS_clean_linker_0, # of connection points: 2
#     Edge 19, Type (0, 0), BuildingBlock: CIFDUS_clean_linker_0, # of connection points: 2
#     Edge 20, Type (0, 0), BuildingBlock: CIFDUS_clean_linker_0, # of connection points: 2
#     Edge 21, Type (0, 0), BuildingBlock: CIFDUS_clean_linker_0, # of connection points: 2
#     Edge 22, Type (0, 0), BuildingBlock: CIFDUS_clean_linker_0, # of connection points: 2
#     Edge 23, Type (0, 0), BuildingBlock: CIFDUS_clean_linker_0, # of connection points: 2
#     Edge 24, Type (0, 0), BuildingBlock: CIFDUS_clean_linker_0, # of connection points: 2
#     Edge 25, Type (0, 0), BuildingBlock: CIFDUS_clean_linker_0, # of connection points: 2
#     Edge 26, Type (0, 0), BuildingBlock: CIFDUS_clean_linker_0, # of connection points: 2
#     Edge 27, Type (0, 0), BuildingBlock: CIFDUS_clean_linker_0, # of connection points: 2
#     Edge 28, Type (0, 0), BuildingBlock: CIFDUS_clean_linker_0, # of connection points: 2
#     Edge 29, Type (0, 0), BuildingBlock: CIFDUS_clean_linker_0, # of connection points: 2
#     Edge 30, Type (0, 0), BuildingBlock: CIFDUS_clean_linker_0, # of connection points: 2
#     Edge 31, Type (0, 0), BuildingBlock: CIFDUS_clean_linker_0, # of connection points: 2
#     Edge 32, Type (0, 0), BuildingBlock: CIFDUS_clean_linker_0, # of connection points: 2
#     Edge 33, Type (0, 0), BuildingBlock: CIFDUS_clean_linker_0, # of connection points: 2
#     Edge 34, Type (0, 0), BuildingBlock: CIFDUS_clean_linker_0, # of connection points: 2
#     Edge 35, Type (0, 0), BuildingBlock: CIFDUS_clean_linker_0, # of connection points: 2
#     Edge 36, Type (0, 0), BuildingBlock: CIFDUS_clean_linker_0, # of connection points: 2
#     Edge 37, Type (0, 0), BuildingBlock: CIFDUS_clean_linker_0, # of connection points: 2
#     Edge 38, Type (0, 0), BuildingBlock: CIFDUS_clean_linker_0, # of connection points: 2
#     Edge 39, Type (0, 0), BuildingBlock: CIFDUS_clean_linker_0, # of connection points: 2
#     Edge 40, Type (0, 0), BuildingBlock: CIFDUS_clean_linker_0, # of connection points: 2
#     Edge 41, Type (0, 0), BuildingBlock: CIFDUS_clean_linker_0, # of connection points: 2
# Relax obj value: 0.151
# Max RMSD: 0.181
# Mean RMSD: 0.181
data_MOF--net-wjz--node1-XOMCOT_clean_sbu_0--edge1-CIFDUS_clean_linker_0
_symmetry_space_group_name_H-M    P1
_symmetry_Int_Tables_number       1
_symmetry_cell_setting            triclinic
loop_
_symmetry_equiv_pos_as_xyz
'x, y, z'
_cell_length_a     64.981542
_cell_length_b     65.060138
_cell_length_c     15.535674
_cell_angle_alpha  89.934571
_cell_angle_beta   90.002518
_cell_angle_gamma 120.16044
loop_
_atom_site_label
_atom_site_type_symbol
_atom_site_fract_x
_atom_site_fract_y
_atom_site_fract_z
_atom_type_partial_charge
Co0 Co 0.32925 0.48582 0.11896 0.0
C1 C 0.33534 0.48958 0.31119 0.0
C2 C 0.35724 0.52292 0.24861 0.0
C3 C 0.35972 0.52644 0.33613 0.0
N4 N 0.34259 0.4996 0.23204 0.0
N5 N 0.34594 0.50547 0.37573 0.0
H6 H 0.32178 0.47128 0.32179 0.0
H7 H 0.36452 0.53693 0.20109 0.0
C8 C 0.37884 0.52227 0.06687 0.0
O9 O 0.38716 0.51308 0.12273 0.0
N10 N 0.31547 0.47261 1.00716 0.0
C11 C 0.3003 0.4495 0.99003 0.0
C12 C 0.2965 0.44677 0.90251 0.0
C13 C 0.32067 0.48365 0.92963 0.0
N14 N 0.30942 0.46821 0.86436 0.0
C15 C 0.34474 0.4541 0.18374 0.0
C16 C 0.37067 0.45611 0.03982 0.0
C17 C 0.37119 0.44342 0.11202 0.0
C18 C 0.35757 0.44215 0.18411 0.0
C19 C 0.35786 0.46804 0.0427 0.0
N20 N 0.34598 0.4679 0.11557 0.0
H21 H 0.33378 0.45209 0.23838 0.0
H22 H 0.35809 0.47797 0.98664 0.0
H23 H 0.29323 0.43543 0.03751 0.0
H24 H 0.33284 0.50246 0.92081 0.0
O25 O 0.30008 0.46246 0.1741 0.0
O26 O 0.30814 0.49833 0.13078 0.0
O27 O 0.35645 0.51396 0.05917 0.0
C28 C 0.29346 0.47826 0.16803 0.0
H29 H 0.36986 0.54344 0.36804 0.0
H30 H 0.28589 0.43007 0.86925 0.0
H31 H 0.38013 0.45694 0.98137 0.0
H32 H 0.35708 0.43238 0.24125 0.0
Co33 Co 0.84746 0.32277 0.26493 0.0
C34 C 0.84843 0.32832 0.45689 0.0
C35 C 0.83503 0.34826 0.3925 0.0
C36 C 0.83266 0.34991 0.47982 0.0
N37 N 0.84557 0.33527 0.37749 0.0
N38 N 0.84096 0.33723 0.52071 0.0
H39 H 0.85386 0.31539 0.468 0.0
H40 H 0.82829 0.35508 0.34323 0.0
C41 C 0.86562 0.37456 0.22661 0.0
O42 O 0.87782 0.38069 0.29874 0.0
N43 N 0.84863 0.31002 0.15334 0.0
C44 C 0.85617 0.29452 0.13794 0.0
C45 C 0.85749 0.29227 0.05021 0.0
C46 C 0.84525 0.31684 0.07474 0.0
N47 N 0.85079 0.30644 1.01028 0.0
C48 C 0.88958 0.32577 0.33863 0.0
C49 C 0.92172 0.36045 0.22853 0.0
C50 C 0.93031 0.35257 0.29598 0.0
C51 C 0.91392 0.3345 0.34996 0.0
C52 C 0.89725 0.35094 0.21871 0.0
N53 N 0.88154 0.33498 0.27687 0.0
H54 H 0.87723 0.31131 0.37875 0.0
H55 H 0.89105 0.35639 0.16362 0.0
H56 H 0.86124 0.28613 0.18712 0.0
H57 H 0.83986 0.3299 0.06484 0.0
O58 O 0.83535 0.29175 0.3168 0.0
O59 O 0.81318 0.3056 0.26173 0.0
O60 O 0.85291 0.35271 0.20555 0.0
C61 C 0.81423 0.28861 0.30221 0.0
H62 H 0.82466 0.35914 0.51029 0.0
H63 H 0.86336 0.28131 0.01848 0.0
H64 H 0.93383 0.37369 0.18325 0.0
H65 H 0.91986 0.32746 0.40137 0.0
Co66 Co 0.50451 0.84096 0.41623 0.0
C67 C 0.5008 0.84416 0.60807 0.0
C68 C 0.46704 0.82974 0.54524 0.0
C69 C 0.46344 0.8289 0.63282 0.0
N70 N 0.49057 0.84001 0.529 0.0
N71 N 0.48468 0.83791 0.67248 0.0
H72 H 0.51939 0.85052 0.61918 0.0
H73 H 0.45324 0.82232 0.4968 0.0
C74 C 0.47167 0.85994 0.37744 0.0
O75 O 0.47796 0.87222 0.4493 0.0
N76 N 0.51796 0.8412 0.30452 0.0
C77 C 0.54092 0.84832 0.28812 0.0
C78 C 0.54388 0.84795 0.20042 0.0
C79 C 0.50723 0.83653 0.22661 0.0
N80 N 0.52271 0.84061 0.16149 0.0
C81 C 0.54496 0.88287 0.48594 0.0
C82 C 0.5431 0.91486 0.37379 0.0
C83 C 0.56017 0.92359 0.43961 0.0
C84 C 0.5613 0.90713 0.49496 0.0
C85 C 0.52727 0.89049 0.36681 0.0
N86 N 0.52729 0.87491 0.42583 0.0
H87 H 0.54702 0.87049 0.52589 0.0
H88 H 0.51522 0.88427 0.31283 0.0
H89 H 0.55471 0.85411 0.33646 0.0
H90 H 0.48852 0.83043 0.21776 0.0
O91 O 0.52279 0.82819 0.46842 0.0
O92 O 0.48641 0.80677 0.41457 0.0
O93 O 0.48045 0.84695 0.35666 0.0
C94 C 0.50433 0.80732 0.45408 0.0
H95 H 0.44635 0.8211 0.66487 0.0
H96 H 0.56059 0.85351 0.16785 0.0
H97 H 0.54173 0.92672 0.32819 0.0
H98 H 0.57495 0.91286 0.54392 0.0
Co99 Co 0.66594 0.51444 0.65376 0.0
C100 C 0.6584 0.51456 0.84148 0.0
C101 C 0.64317 0.47932 0.7907 0.0
C102 C 0.64083 0.47776 0.87875 0.0
N103 N 0.65378 0.5024 0.76728 0.0
N104 N 0.65046 0.49999 0.91017 0.0
H105 H 0.66922 0.53357 0.84674 0.0
H106 H 0.63847 0.46469 0.74698 0.0
C107 C 0.61429 0.48017 0.62912 0.0
O108 O 0.6107 0.49018 0.69649 0.0
N109 N 0.6784 0.52588 0.54139 0.0
C110 C 0.69219 0.5487 0.51696 0.0
C111 C 0.69508 0.54926 0.4291 0.0
C112 C 0.67341 0.51284 0.4695 0.0
N113 N 0.68325 0.52669 0.39993 0.0
C114 C 0.6637 0.55567 0.70691 0.0
C115 C 0.62738 0.54909 0.59755 0.0
C116 C 0.63625 0.56779 0.65675 0.0
C117 C 0.65516 0.57151 0.70997 0.0
C118 C 0.63681 0.53398 0.5955 0.0
N119 N 0.65343 0.53618 0.65454 0.0
H120 H 0.67897 0.55949 0.74554 0.0
H121 H 0.63078 0.52065 0.54576 0.0
H122 H 0.69886 0.56386 0.55955 0.0
H123 H 0.66177 0.49375 0.46744 0.0
O124 O 0.69696 0.5354 0.70166 0.0
O125 O 0.68406 0.49824 0.66047 0.0
O126 O 0.63551 0.48785 0.60162 0.0
C127 C 0.701 0.51786 0.6938 0.0
H128 H 0.63352 0.46165 0.91676 0.0
H129 H 0.70449 0.565 0.38942 0.0
H130 H 0.6135 0.54637 0.55254 0.0
H131 H 0.66306 0.58634 0.75437 0.0
Co132 Co 0.14902 0.67036 0.77897 0.0
C133 C 0.14094 0.66187 0.96595 0.0
C134 C 0.16055 0.64631 0.91493 0.0
C135 C 0.16003 0.6443 1.00333 0.0
N136 N 0.14814 0.65694 0.89134 0.0
N137 N 0.14765 0.65412 0.03495 0.0
H138 H 0.13321 0.67306 0.97124 0.0
H139 H 0.1705 0.64163 0.87127 0.0
C140 C 0.13392 0.6193 0.74044 0.0
O141 O 0.12092 0.61231 0.81073 0.0
N142 N 0.15066 0.68398 0.66777 0.0
C143 C 0.14038 0.69655 0.64292 0.0
C144 C 0.14238 0.69917 0.5547 0.0
C145 C 0.15915 0.67953 0.59556 0.0
N146 N 0.15412 0.68836 0.52539 0.0
C147 C 0.10422 0.6655 0.83443 0.0
C148 C 0.07596 0.62806 0.72663 0.0
C149 C 0.06513 0.63406 0.79204 0.0
C150 C 0.07945 0.65386 0.84356 0.0
C151 C 0.10068 0.64034 0.71939 0.0
N152 N 0.11456 0.6572 0.7785 0.0
H153 H 0.11501 0.68103 0.87295 0.0
H154 H 0.10854 0.63589 0.66673 0.0
H155 H 0.13097 0.70222 0.68525 0.0
H156 H 0.16741 0.66866 0.59365 0.0
O157 O 0.15944 0.70097 0.83268 0.0
O158 O 0.1831 0.68783 0.78685 0.0
O159 O 0.14584 0.64129 0.7204 0.0
C160 C 0.18093 0.70443 0.82489 0.0
H161 H 0.16896 0.63715 0.04138 0.0
H162 H 0.13498 0.70754 0.51494 0.0
H163 H 0.06541 0.61372 0.68226 0.0
H164 H 0.07168 0.65973 0.8925 0.0
Co165 Co 0.49502 0.16046 0.94476 0.0
C166 C 0.49991 0.16026 0.13679 0.0
C167 C 0.53323 0.17316 0.07215 0.0
C168 C 0.53731 0.17552 0.15954 0.0
N169 N 0.50965 0.16294 0.05736 0.0
N170 N 0.51632 0.16747 0.20051 0.0
H171 H 0.48157 0.155 0.14811 0.0
H172 H 0.54675 0.17947 0.02265 0.0
C173 C 0.52754 0.14074 0.90887 0.0
O174 O 0.52223 0.12965 0.98332 0.0
N175 N 0.48086 0.15863 0.83305 0.0
C176 C 0.45777 0.15104 0.81748 0.0
C177 C 0.45423 0.14967 0.72969 0.0
C178 C 0.49112 0.16197 0.75456 0.0
N179 N 0.47518 0.1564 0.68994 0.0
C180 C 0.45504 0.12028 0.02395 0.0
C181 C 0.45605 0.08573 0.92408 0.0
C182 C 0.43988 0.07867 0.99274 0.0
C183 C 0.43906 0.09637 0.04142 0.0
C184 C 0.47165 0.10988 0.90877 0.0
N185 N 0.47213 0.1268 0.96214 0.0
H186 H 0.45327 0.13352 0.05936 0.0
H187 H 0.4832 0.11482 0.85342 0.0
H188 H 0.44429 0.14612 0.86659 0.0
H189 H 0.50967 0.16749 0.74494 0.0
O190 O 0.47727 0.17412 0.99385 0.0
O191 O 0.51329 0.19462 0.93618 0.0
O192 O 0.51845 0.15334 0.88648 0.0
C193 C 0.49569 0.19472 0.97575 0.0
H194 H 0.55457 0.1832 0.19003 0.0
H195 H 0.43738 0.14384 0.69781 0.0
H196 H 0.45698 0.07275 0.88314 0.0
H197 H 0.42601 0.09182 0.09206 0.0
Co198 Co 0.51081 0.66643 0.71084 0.0
C199 C 0.51044 0.66358 0.52336 0.0
C200 C 0.47595 0.64038 0.57609 0.0
C201 C 0.47366 0.64156 0.48863 0.0
N202 N 0.49916 0.65384 0.59775 0.0
N203 N 0.49538 0.65646 0.4564 0.0
H204 H 0.52881 0.67746 0.51879 0.0
H205 H 0.46131 0.63226 0.62111 0.0
C206 C 0.47775 0.61493 0.74637 0.0
O207 O 0.48833 0.61016 0.68383 0.0
N208 N 0.52152 0.67932 0.82267 0.0
C209 C 0.54402 0.69253 0.85138 0.0
C210 C 0.54321 0.69433 0.93955 0.0
C211 C 0.50743 0.6738 0.89169 0.0
N212 N 0.52016 0.68224 0.9641 0.0
C213 C 0.54846 0.65839 0.65156 0.0
C214 C 0.54349 0.62731 0.7821 0.0
C215 C 0.55865 0.63053 0.71305 0.0
C216 C 0.56186 0.64704 0.64901 0.0
C217 C 0.53077 0.63931 0.78273 0.0
N218 N 0.53189 0.65316 0.71452 0.0
H219 H 0.55145 0.67129 0.60274 0.0
H220 H 0.51923 0.63667 0.83678 0.0
H221 H 0.55979 0.69896 0.81189 0.0
H222 H 0.48826 0.66267 0.88951 0.0
O223 O 0.53244 0.69729 0.6624 0.0
O224 O 0.49497 0.68468 0.69991 0.0
O225 O 0.48399 0.63648 0.7642 0.0
C226 C 0.51486 0.70143 0.66731 0.0
H227 H 0.45715 0.63387 0.45285 0.0
H228 H 0.55834 0.70225 0.98262 0.0
H229 H 0.54123 0.61535 0.83451 0.0
H230 H 0.57401 0.65055 0.59593 0.0
Co231 Co 0.84385 0.51125 0.93088 0.0
C232 C 0.84464 0.50669 0.7389 0.0
C233 C 0.83164 0.47336 0.80343 0.0
C234 C 0.82937 0.46933 0.7161 0.0
N235 N 0.84185 0.49689 0.81829 0.0
N236 N 0.83743 0.4903 0.67514 0.0
H237 H 0.84997 0.52503 0.72771 0.0
H238 H 0.82521 0.45982 0.85287 0.0
C239 C 0.86402 0.47916 0.96592 0.0
O240 O 0.87538 0.48504 0.89199 0.0
N241 N 0.8452 0.52516 0.04257 0.0
C242 C 0.85211 0.54809 0.05795 0.0
C243 C 0.85346 0.55166 0.14568 0.0
C244 C 0.84225 0.51503 0.12112 0.0
N245 N 0.8474 0.5309 0.18555 0.0
C246 C 0.88414 0.55197 0.85462 0.0
C247 C 0.91844 0.55092 0.95652 0.0
C248 C 0.92562 0.56764 0.8899 0.0
C249 C 0.90814 0.56856 0.84021 0.0
C250 C 0.89427 0.53495 0.9695 0.0
N251 N 0.87751 0.53451 0.91511 0.0
H252 H 0.87093 0.5535 0.81787 0.0
H253 H 0.88917 0.52317 0.02419 0.0
H254 H 0.85662 0.56146 1.00872 0.0
H255 H 0.83736 0.49668 0.13095 0.0
O256 O 0.82988 0.52868 0.88122 0.0
O257 O 0.80966 0.49258 0.93824 0.0
O258 O 0.8512 0.48795 0.989 0.0
C259 C 0.80935 0.51005 0.89856 0.0
H260 H 0.82168 0.45208 0.68566 0.0
H261 H 0.85883 0.5684 0.17746 0.0
H262 H 0.93141 0.55037 0.99884 0.0
H263 H 0.91296 0.5817 0.78975 0.0
Co264 Co 0.31959 0.85378 0.07479 0.0
C265 C 0.32598 0.85516 0.88269 0.0
C266 C 0.34012 0.8358 0.94667 0.0
C267 C 0.34236 0.83412 0.85918 0.0
N268 N 0.33048 0.84961 0.96206 0.0
N269 N 0.33339 0.84625 0.81883 0.0
H270 H 0.31663 0.86463 0.87094 0.0
H271 H 0.34441 0.82675 0.99576 0.0
C272 C 0.37013 0.86584 0.10981 0.0
O273 O 0.37708 0.87691 0.03551 0.0
N274 N 0.30846 0.8572 0.18664 0.0
C275 C 0.29591 0.86805 0.20323 0.0
C276 C 0.29296 0.86829 0.29099 0.0
C277 C 0.31295 0.85091 0.26442 0.0
N278 N 0.30372 0.85756 0.32972 0.0
C279 C 0.32662 0.89724 0.9995 0.0
C280 C 0.3653 0.9278 0.09857 0.0
C281 C 0.35827 0.93721 0.03091 0.0
C282 C 0.33815 0.92161 0.98285 0.0
C283 C 0.35315 0.9033 0.11312 0.0
N284 N 0.33517 0.88816 0.05975 0.0
H285 H 0.3106 0.88573 0.96439 0.0
H286 H 0.35829 0.89665 0.16774 0.0
H287 H 0.28985 0.8758 0.15495 0.0
H288 H 0.3228 0.84172 0.27297 0.0
O289 O 0.28884 0.84456 0.02505 0.0
O290 O 0.29937 0.8198 0.08104 0.0
O291 O 0.34837 0.85605 0.13309 0.0
C292 C 0.28339 0.82279 0.04167 0.0
H293 H 0.34904 0.82381 0.82769 0.0
H294 H 0.28418 0.87644 0.32371 0.0
H295 H 0.38032 0.93916 0.13915 0.0
H296 H 0.33123 0.92817 0.93312 0.0
Co297 Co 0.48943 0.33732 0.21472 0.0
C298 C 0.48986 0.34451 0.0296 0.0
C299 C 0.52547 0.3613 0.07951 0.0
C300 C 0.52659 0.36303 0.99088 0.0
N301 N 0.50241 0.34964 0.10304 0.0
N302 N 0.50414 0.35239 0.95999 0.0
H303 H 0.47065 0.33379 0.02705 0.0
H304 H 0.54031 0.36704 0.12323 0.0
C305 C 0.51398 0.37868 0.33346 0.0
O306 O 0.49281 0.37241 0.36466 0.0
N307 N 0.47666 0.32435 0.3277 0.0
C308 C 0.45383 0.31116 0.35381 0.0
C309 C 0.45347 0.30774 0.44131 0.0
C310 C 0.48978 0.32737 0.39891 0.0
N311 N 0.47611 0.31822 0.46955 0.0
C312 C 0.44517 0.33662 0.19029 0.0
C313 C 0.46419 0.38523 0.18178 0.0
C314 C 0.43938 0.37049 0.17758 0.0
C315 C 0.43001 0.34582 0.17962 0.0
C316 C 0.47869 0.37522 0.19122 0.0
N317 N 0.46905 0.35125 0.20204 0.0
H318 H 0.43765 0.31765 0.1864 0.0
H319 H 0.49773 0.38687 0.1892 0.0
H320 H 0.4383 0.30446 0.31368 0.0
H321 H 0.50903 0.33745 0.39995 0.0
O322 O 0.46862 0.30661 0.16424 0.0
O323 O 0.50505 0.31866 0.21273 0.0
O324 O 0.51594 0.36712 0.2704 0.0
C325 C 0.48578 0.30214 0.17603 0.0
H326 H 0.54261 0.37081 0.95218 0.0
H327 H 0.43776 0.29874 0.48138 0.0
H328 H 0.47246 0.40439 0.17836 0.0
H329 H 0.41114 0.33362 0.17126 0.0
Co330 Co 0.15222 0.48199 0.43377 0.0
C331 C 0.15195 0.48678 0.24172 0.0
C332 C 0.16512 0.52014 0.30581 0.0
C333 C 0.16757 0.52417 0.21842 0.0
N334 N 0.15463 0.49658 0.321 0.0
N335 N 0.15936 0.50316 0.17776 0.0
H336 H 0.14666 0.46844 0.2308 0.0
H337 H 0.17167 0.53371 0.35502 0.0
C338 C 0.1339 0.51547 0.47025 0.0
O339 O 0.12222 0.50985 0.39702 0.0
N340 N 0.15054 0.46788 0.54549 0.0
C341 C 0.14289 0.44479 0.56103 0.0
C342 C 0.14155 0.44122 0.64881 0.0
C343 C 0.15395 0.4781 0.62399 0.0
N344 N 0.14836 0.46214 0.68858 0.0
C345 C 0.10986 0.44353 0.35559 0.0
C346 C 0.07804 0.44742 0.46273 0.0
C347 C 0.06934 0.43239 0.3913 0.0
C348 C 0.08542 0.42965 0.33941 0.0
C349 C 0.10248 0.46058 0.4772 0.0
N350 N 0.11816 0.4601 0.41976 0.0
H351 H 0.12203 0.44091 0.31653 0.0
H352 H 0.10872 0.47148 0.53419 0.0
H353 H 0.13785 0.43133 0.5119 0.0
H354 H 0.15945 0.49661 0.63369 0.0
O355 O 0.16505 0.46353 0.38308 0.0
O356 O 0.18628 0.49949 0.4402 0.0
O357 O 0.14636 0.50619 0.49226 0.0
C358 C 0.18592 0.48183 0.39984 0.0
H359 H 0.17547 0.54141 0.18773 0.0
H360 H 0.13566 0.42437 0.68069 0.0
H361 H 0.06603 0.44915 0.50658 0.0
H362 H 0.07922 0.41748 0.28543 0.0
Co363 Co 0.67654 0.14498 0.58839 0.0
C364 C 0.66949 0.14222 0.39654 0.0
C365 C 0.65303 0.15952 0.45942 0.0
C366 C 0.65067 0.16086 0.37187 0.0
N367 N 0.66416 0.14713 0.4757 0.0
N368 N 0.6611 0.15006 0.33212 0.0
H369 H 0.68034 0.13428 0.38548 0.0
H370 H 0.64805 0.16816 0.50774 0.0
C371 C 0.62632 0.13257 0.63119 0.0
O372 O 0.61844 0.1196 0.56116 0.0
N373 N 0.68923 0.14359 0.70003 0.0
C374 C 0.70273 0.13376 0.71685 0.0
C375 C 0.70602 0.13397 0.80455 0.0
C376 C 0.68452 0.1497 0.77777 0.0
N377 N 0.69448 0.14389 0.84313 0.0
C378 C 0.66759 0.09999 0.52133 0.0
C379 C 0.63269 0.07179 0.63839 0.0
C380 C 0.63808 0.06078 0.57156 0.0
C381 C 0.6563 0.07528 0.51395 0.0
C382 C 0.64463 0.09656 0.64383 0.0
N383 N 0.66075 0.11039 0.58242 0.0
H384 H 0.68225 0.11068 0.47901 0.0
H385 H 0.6409 0.1045 0.6981 0.0
H386 H 0.70903 0.12618 0.66887 0.0
H387 H 0.67384 0.15801 0.78641 0.0
O388 O 0.70651 0.15302 0.53458 0.0
O389 O 0.69691 0.17902 0.5852 0.0
O390 O 0.64849 0.14373 0.64917 0.0
C391 C 0.71224 0.1751 0.54547 0.0
H392 H 0.64305 0.17029 0.33991 0.0
H393 H 0.71541 0.12646 0.83744 0.0
H394 H 0.61913 0.06147 0.68571 0.0
H395 H 0.66204 0.06765 0.46411 0.0
H396 H 0.30662 0.47186 0.45936 0.0
H397 H 0.37779 0.53036 0.50065 0.0
H398 H 0.37249 0.52473 0.65597 0.0
H399 H 0.34801 0.50266 0.78086 0.0
H400 H 0.27692 0.444 0.7401 0.0
H401 H 0.28193 0.45003 0.58463 0.0
C402 C 0.32105 0.48324 0.50219 0.0
C403 C 0.34259 0.50155 0.46776 0.0
C404 C 0.3179 0.47987 0.59201 0.0
C405 C 0.36092 0.51633 0.52492 0.0
C406 C 0.35795 0.51306 0.614 0.0
C407 C 0.33349 0.49138 0.73815 0.0
C408 C 0.31211 0.47286 0.77263 0.0
C409 C 0.33652 0.4949 0.64842 0.0
C410 C 0.29366 0.45821 0.71566 0.0
C411 C 0.29649 0.46169 0.62654 0.0
H412 H 0.82466 0.32128 0.92155 0.0
H413 H 0.879 0.30227 0.89106 0.0
H414 H 0.88063 0.30992 0.73702 0.0
H415 H 0.86716 0.32258 0.61025 0.0
H416 H 0.81232 0.34099 0.64027 0.0
H417 H 0.81087 0.33358 0.79418 0.0
C418 C 0.83696 0.31893 0.8814 0.0
C419 C 0.85156 0.31104 0.91861 0.0
C420 C 0.83789 0.32344 0.79218 0.0
C421 C 0.86721 0.3079 0.86475 0.0
C422 C 0.8683 0.31244 0.77632 0.0
C423 C 0.85471 0.32477 0.65002 0.0
C424 C 0.83998 0.33248 0.61248 0.0
C425 C 0.85371 0.32019 0.73917 0.0
C426 C 0.82422 0.33549 0.66636 0.0
C427 C 0.82322 0.33108 0.7549 0.0
H428 H 0.48771 0.84375 0.07751 0.0
H429 H 0.54771 0.83363 0.03653 0.0
H430 H 0.5417 0.83254 0.88141 0.0
H431 H 0.51934 0.8343 0.75627 0.0
H432 H 0.45903 0.84384 0.79697 0.0
H433 H 0.46501 0.84496 0.95254 0.0
C434 C 0.49934 0.84105 0.03494 0.0
C435 C 0.51824 0.8389 0.06953 0.0
C436 C 0.49572 0.84033 0.94517 0.0
C437 C 0.53324 0.83571 0.0124 0.0
C438 C 0.52975 0.83497 0.92332 0.0
C439 C 0.50764 0.83685 0.79902 0.0
C440 C 0.48876 0.83902 0.76449 0.0
C441 C 0.51114 0.83739 0.88881 0.0
C442 C 0.47355 0.84189 0.82148 0.0
C443 C 0.47701 0.84261 0.91062 0.0
H444 H 0.65841 0.47748 0.03983 0.0
H445 H 0.65304 0.53927 0.97797 0.0
H446 H 0.66413 0.55383 0.12507 0.0
H447 H 0.67536 0.54894 0.27073 0.0
H448 H 0.67965 0.48674 0.33442 0.0
H449 H 0.66879 0.47214 0.18668 0.0
C450 C 0.6593 0.49392 0.05898 0.0
C451 C 0.65498 0.50733 0.99841 0.0
C452 C 0.66567 0.50214 0.14341 0.0
C453 C 0.65657 0.52881 0.02355 0.0
C454 C 0.66287 0.53712 0.10745 0.0
C455 C 0.67425 0.53239 0.25164 0.0
C456 C 0.6785 0.519 0.31229 0.0
C457 C 0.66766 0.52403 0.16757 0.0
C458 C 0.67644 0.49726 0.28808 0.0
C459 C 0.67022 0.48895 0.20402 0.0
H460 H 0.1783 0.66244 0.16531 0.0
H461 H 0.11107 0.65701 0.10285 0.0
H462 H 0.10764 0.66838 0.24948 0.0
H463 H 0.12375 0.6799 0.39522 0.0
H464 H 0.19054 0.68471 0.45943 0.0
H465 H 0.19415 0.6734 0.31239 0.0
C466 C 0.16276 0.66342 0.1842 0.0
C467 C 0.14499 0.65894 0.12333 0.0
C468 C 0.16094 0.67003 0.2686 0.0
C469 C 0.1251 0.66063 0.14841 0.0
C470 C 0.12312 0.6671 0.23216 0.0
C471 C 0.13925 0.67882 0.37656 0.0
C472 C 0.15697 0.68334 0.43757 0.0
C473 C 0.14102 0.67205 0.29253 0.0
C474 C 0.17669 0.68129 0.41329 0.0
C475 C 0.17874 0.67481 0.32943 0.0
H476 H 0.51643 0.18261 0.60189 0.0
H477 H 0.44275 0.12857 0.56992 0.0
H478 H 0.44892 0.12736 0.41583 0.0
H479 H 0.47525 0.14113 0.28945 0.0
H480 H 0.54884 0.19559 0.32079 0.0
H481 H 0.54275 0.19664 0.47489 0.0
C482 C 0.50174 0.17046 0.56143 0.0
C483 C 0.47911 0.15583 0.59826 0.0
C484 C 0.5054 0.16977 0.47217 0.0
C485 C 0.46028 0.14038 0.54395 0.0
C486 C 0.46382 0.13953 0.45548 0.0
C487 C 0.48995 0.15342 0.32954 0.0
C488 C 0.51251 0.16819 0.29236 0.0
C489 C 0.48629 0.15416 0.41873 0.0
C490 C 0.53134 0.1837 0.34665 0.0
C491 C 0.52785 0.18445 0.43527 0.0
H492 H 0.47493 0.63274 0.31268 0.0
H493 H 0.52833 0.70115 0.40904 0.0
H494 H 0.54036 0.71572 0.26255 0.0
H495 H 0.53694 0.70819 0.10698 0.0
H496 H 0.4835 0.6396 0.01173 0.0
H497 H 0.46978 0.62606 0.15755 0.0
C498 C 0.48895 0.6509 0.30121 0.0
C499 C 0.50105 0.66566 0.37077 0.0
C500 C 0.4957 0.65914 0.2172 0.0
C501 C 0.51925 0.68922 0.356 0.0
C502 C 0.52601 0.69763 0.27245 0.0
C503 C 0.52227 0.69036 0.11866 0.0
C504 C 0.51123 0.67499 0.04941 0.0
C505 C 0.51465 0.68258 0.20264 0.0
C506 C 0.49203 0.65192 0.06429 0.0
C507 C 0.48429 0.64407 0.14758 0.0
H508 H 0.86327 0.5314 0.58583 0.0
H509 H 0.80943 0.45761 0.55518 0.0
H510 H 0.80816 0.46353 0.40119 0.0
H511 H 0.82179 0.48972 0.27397 0.0
H512 H 0.87505 0.56361 0.30493 0.0
H513 H 0.87658 0.55765 0.45913 0.0
C514 C 0.85108 0.51662 0.54591 0.0
C515 C 0.83657 0.49404 0.58331 0.0
C516 C 0.85017 0.52018 0.45671 0.0
C517 C 0.82115 0.47512 0.52922 0.0
C518 C 0.82026 0.47851 0.44063 0.0
C519 C 0.83383 0.50449 0.31427 0.0
C520 C 0.84817 0.52712 0.27721 0.0
C521 C 0.83468 0.50095 0.40352 0.0
C522 C 0.86348 0.54608 0.3312 0.0
C523 C 0.86451 0.54266 0.41968 0.0
H524 H 0.33779 0.85279 0.41378 0.0
H525 H 0.27386 0.85618 0.45446 0.0
H526 H 0.27766 0.85352 0.60946 0.0
H527 H 0.29902 0.85018 0.73458 0.0
H528 H 0.36255 0.84615 0.69465 0.0
H529 H 0.35879 0.84871 0.53901 0.0
C530 C 0.32453 0.8527 0.45627 0.0
C531 C 0.30563 0.85486 0.42161 0.0
C532 C 0.32673 0.85103 0.54604 0.0
C533 C 0.28882 0.85496 0.47862 0.0
C534 C 0.29091 0.85331 0.56764 0.0
C535 C 0.31217 0.85008 0.69199 0.0
C536 C 0.33109 0.84804 0.72674 0.0
C537 C 0.30985 0.85149 0.60223 0.0
C538 C 0.34769 0.84748 0.66996 0.0
C539 C 0.3456 0.84904 0.58078 0.0
H540 H 0.5268 0.34489 0.82904 0.0
H541 H 0.46401 0.34831 0.89315 0.0
H542 H 0.44911 0.33675 0.74665 0.0
H543 H 0.45395 0.32577 0.60078 0.0
H544 H 0.51678 0.32276 0.53453 0.0
H545 H 0.53184 0.33425 0.68153 0.0
C546 C 0.51004 0.34343 0.81052 0.0
C547 C 0.4965 0.34742 0.8718 0.0
C548 C 0.50155 0.33669 0.7262 0.0
C549 C 0.47462 0.34509 0.84728 0.0
C550 C 0.46611 0.33851 0.7636 0.0
C551 C 0.47073 0.32722 0.6189 0.0
C552 C 0.48412 0.32317 0.55733 0.0
C553 C 0.47932 0.33407 0.70282 0.0
C554 C 0.50618 0.32579 0.58104 0.0
C555 C 0.51478 0.33237 0.66488 0.0
H556 H 0.13293 0.46217 0.08906 0.0
H557 H 0.1878 0.53555 0.05743 0.0
H558 H 0.1889 0.52947 0.90343 0.0
H559 H 0.17477 0.50324 0.77652 0.0
H560 H 0.12036 0.42976 0.80865 0.0
H561 H 0.11911 0.43589 0.96274 0.0
C562 C 0.14532 0.47681 0.04892 0.0
C563 C 0.16017 0.49933 0.08601 0.0
C564 C 0.1461 0.47316 0.95976 0.0
C565 C 0.17583 0.5181 0.03166 0.0
C566 C 0.17662 0.51461 0.9431 0.0
C567 C 0.16254 0.48859 0.81703 0.0
C568 C 0.1478 0.46602 0.78026 0.0
C569 C 0.16183 0.49223 0.90627 0.0
C570 C 0.13224 0.44723 0.8346 0.0
C571 C 0.13138 0.45075 0.92306 0.0
H572 H 0.6586 0.1455 0.92682 0.0
H573 H 0.72509 0.14721 0.96834 0.0
H574 H 0.72044 0.14872 0.12354 0.0
H575 H 0.69749 0.14948 0.24861 0.0
H576 H 0.63119 0.14808 0.20713 0.0
H577 H 0.63594 0.14685 0.0516 0.0
C578 C 0.67222 0.14645 0.96951 0.0
C579 C 0.69212 0.14609 0.93507 0.0
C580 C 0.66946 0.14735 0.0593 0.0
C581 C 0.7094 0.14709 0.99238 0.0
C582 C 0.70681 0.14805 0.08149 0.0
C583 C 0.68396 0.14867 0.20569 0.0
C584 C 0.66397 0.14883 0.24006 0.0
C585 C 0.68683 0.14802 0.11586 0.0
C586 C 0.64686 0.14821 0.18282 0.0
C587 C 0.64953 0.14742 0.09366 0.0
H588 H 0.43985 0.61199 0.83164 0.0
H589 H 0.47813 0.57469 0.78838 0.0
H590 H 0.45158 0.54326 0.88735 0.0
H591 H 0.41746 0.52634 0.98651 0.0
H592 H 0.37664 0.56135 0.0193 0.0
H593 H 0.40412 0.59376 0.92445 0.0
C594 C 0.44226 0.59691 0.84388 0.0
C595 C 0.46084 0.59559 0.80299 0.0
C596 C 0.42654 0.57859 0.89918 0.0
C597 C 0.46377 0.57594 0.81862 0.0
C598 C 0.4487 0.55804 0.8755 0.0
C599 C 0.41474 0.54117 0.97307 0.0
C600 C 0.39538 0.54177 1.01032 0.0
C601 C 0.43006 0.5592 0.91625 0.0
C602 C 0.39157 0.56069 0.99127 0.0
C603 C 0.40724 0.57917 0.93719 0.0
H604 H 0.86874 0.41655 0.26714 0.0
H605 H 0.86593 0.37344 0.05199 0.0
H606 H 0.86692 0.40286 0.95153 0.0
H607 H 0.86697 0.44023 0.92481 0.0
H608 H 0.86638 0.48164 0.14021 0.0
H609 H 0.86846 0.45375 0.24047 0.0
C610 C 0.86854 0.41377 0.19824 0.0
C611 C 0.86723 0.39293 0.16684 0.0
C612 C 0.86845 0.43046 0.14091 0.0
C613 C 0.86669 0.38929 0.07753 0.0
C614 C 0.86735 0.40613 0.02008 0.0
C615 C 0.86753 0.44319 0.99369 0.0
C616 C 0.86655 0.46288 0.02528 0.0
C617 C 0.86799 0.42668 0.051 0.0
C618 C 0.86694 0.46644 0.1146 0.0
C619 C 0.86818 0.45055 0.17191 0.0
H620 H 0.41054 0.86517 0.07162 0.0
H621 H 0.36883 0.86691 0.28433 0.0
H622 H 0.39722 0.86653 0.38645 0.0
H623 H 0.43359 0.86477 0.41553 0.0
H624 H 0.47357 0.85989 0.20307 0.0
H625 H 0.44639 0.86248 0.10074 0.0
C626 C 0.40781 0.8656 0.14033 0.0
C627 C 0.3877 0.86608 0.17052 0.0
C628 C 0.4239 0.86477 0.19872 0.0
C629 C 0.38412 0.86634 0.25967 0.0
C630 C 0.40039 0.86621 0.31809 0.0
C631 C 0.43635 0.86443 0.34681 0.0
C632 C 0.45547 0.86216 0.31667 0.0
C633 C 0.42028 0.86529 0.28841 0.0
C634 C 0.4588 0.86143 0.22759 0.0
C635 C 0.44333 0.86299 0.16909 0.0
H636 H 0.51559 0.4012 0.48174 0.0
H637 H 0.5606 0.39949 0.28099 0.0
H638 H 0.59581 0.43067 0.35472 0.0
H639 H 0.61375 0.45834 0.47741 0.0
H640 H 0.56787 0.45903 0.67729 0.0
H641 H 0.53316 0.42829 0.60261 0.0
C642 C 0.53306 0.40769 0.45358 0.0
C643 C 0.53541 0.39807 0.37568 0.0
C644 C 0.55314 0.4254 0.49647 0.0
C645 C 0.55826 0.4066 0.34083 0.0
C646 C 0.57841 0.42442 0.38303 0.0
C647 C 0.59617 0.45172 0.50467 0.0
C648 C 0.59351 0.46106 0.58297 0.0
C649 C 0.57607 0.43391 0.46115 0.0
C650 C 0.57054 0.45228 0.61717 0.0
C651 C 0.5506 0.43466 0.57448 0.0
H652 H 0.13391 0.55611 0.43258 0.0
H653 H 0.1296 0.51106 0.64363 0.0
H654 H 0.12791 0.5386 0.74641 0.0
H655 H 0.12898 0.57627 0.77659 0.0
H656 H 0.13692 0.62302 0.56624 0.0
H657 H 0.13588 0.59423 0.46301 0.0
C658 C 0.13239 0.55233 0.50105 0.0
C659 C 0.1318 0.53168 0.5308 0.0
C660 C 0.13222 0.56863 0.55987 0.0
C661 C 0.13021 0.52699 0.61958 0.0
C662 C 0.1292 0.54269 0.67828 0.0
C663 C 0.13036 0.58002 0.70811 0.0
C664 C 0.13301 0.60164 0.67894 0.0
C665 C 0.13041 0.56367 0.64926 0.0
C666 C 0.13506 0.60652 0.59018 0.0
C667 C 0.13438 0.59005 0.53109 0.0
H668 H 0.5849 0.1317 0.59763 0.0
H669 H 0.63001 0.13405 0.8052 0.0
H670 H 0.60281 0.13544 0.91052 0.0
H671 H 0.56652 0.13705 0.94354 0.0
H672 H 0.52294 0.13754 0.73519 0.0
H673 H 0.54895 0.13388 0.63049 0.0
C674 C 0.58863 0.1324 0.66596 0.0
C675 C 0.60942 0.1329 0.6938 0.0
C676 C 0.57316 0.13373 0.72602 0.0
C677 C 0.61425 0.13401 0.78238 0.0
C678 C 0.59865 0.13467 0.84261 0.0
C679 C 0.5627 0.13617 0.87522 0.0
C680 C 0.54293 0.13758 0.84697 0.0
C681 C 0.57811 0.1347 0.8152 0.0
C682 C 0.53824 0.13672 0.75831 0.0
C683 C 0.55305 0.13455 0.69843 0.0
H684 H 0.28602 0.51152 0.23976 0.0
H685 H 0.25171 0.43637 0.18873 0.0
H686 H 0.21512 0.43041 0.25772 0.0
H687 H 0.1928 0.44704 0.33091 0.0
H688 H 0.22892 0.52203 0.38952 0.0
H689 H 0.26491 0.52754 0.32023 0.0
C690 C 0.27045 0.49387 0.2433 0.0
C691 C 0.27129 0.47446 0.20818 0.0
C692 C 0.24988 0.49054 0.28512 0.0
C693 C 0.2513 0.45158 0.21496 0.0
C694 C 0.23044 0.44819 0.25445 0.0
C695 C 0.20863 0.46451 0.32907 0.0
C696 C 0.20814 0.48408 0.3652 0.0
C697 C 0.22951 0.46757 0.28972 0.0
C698 C 0.22881 0.50662 0.36265 0.0
C699 C 0.2494 0.50985 0.32255 0.0
H700 H 0.80975 0.24791 0.36984 0.0
H701 H 0.77052 0.28404 0.32044 0.0
H702 H 0.73601 0.25273 0.39572 0.0
H703 H 0.71713 0.21547 0.478 0.0
H704 H 0.75495 0.17766 0.51933 0.0
H705 H 0.78997 0.20932 0.44566 0.0
C706 C 0.79357 0.2488 0.37498 0.0
C707 C 0.7927 0.26827 0.33963 0.0
C708 C 0.77367 0.2306 0.41787 0.0
C709 C 0.7716 0.26917 0.34653 0.0
C710 C 0.7519 0.25135 0.39013 0.0
C711 C 0.73317 0.21434 0.47163 0.0
C712 C 0.73375 0.1946 0.50528 0.0
C713 C 0.75282 0.23213 0.42677 0.0
C714 C 0.75428 0.19289 0.49456 0.0
C715 C 0.77422 0.21091 0.45224 0.0
H716 H 0.54028 0.80172 0.51761 0.0
H717 H 0.46474 0.76366 0.46741 0.0
H718 H 0.4612 0.72786 0.53223 0.0
H719 H 0.4794 0.70738 0.60476 0.0
H720 H 0.55517 0.74443 0.64789 0.0
H721 H 0.55882 0.78063 0.58485 0.0
C722 C 0.52309 0.78555 0.52052 0.0
C723 C 0.50282 0.78536 0.48783 0.0
C724 C 0.5212 0.7649 0.55724 0.0
C725 C 0.48066 0.76425 0.49169 0.0
C726 C 0.47858 0.74379 0.52916 0.0
C727 C 0.49666 0.72346 0.60092 0.0
C728 C 0.51694 0.72342 0.63182 0.0
C729 C 0.49868 0.74395 0.56263 0.0
C730 C 0.5393 0.74415 0.62483 0.0
C731 C 0.54139 0.76481 0.58871 0.0
H732 H 0.80269 0.54491 0.83222 0.0
H733 H 0.76566 0.47002 0.89259 0.0
H734 H 0.72913 0.4655 0.83011 0.0
H735 H 0.70766 0.48279 0.75714 0.0
H736 H 0.74411 0.55804 0.70435 0.0
H737 H 0.78094 0.56244 0.76405 0.0
C738 C 0.78658 0.52764 0.83212 0.0
C739 C 0.78688 0.50786 0.86702 0.0
C740 C 0.76559 0.52519 0.79662 0.0
C741 C 0.76587 0.48558 0.86663 0.0
C742 C 0.74499 0.48294 0.83044 0.0
C743 C 0.72376 0.50008 0.75808 0.0
C744 C 0.72335 0.52002 0.72569 0.0
C745 C 0.74467 0.50258 0.79477 0.0
C746 C 0.74411 0.54243 0.72875 0.0
C747 C 0.76513 0.54496 0.76301 0.0
H748 H 0.27712 0.78007 0.99776 0.0
H749 H 0.24095 0.8203 1.00651 0.0
H750 H 0.20551 0.78695 0.94121 0.0
H751 H 0.18524 0.74644 0.87858 0.0
H752 H 0.2234 0.70815 0.86112 0.0
H753 H 0.25765 0.74067 0.93221 0.0
C754 C 0.26136 0.78141 0.98636 0.0
C755 C 0.26142 0.80238 1.00793 0.0
C756 C 0.24151 0.7626 0.9463 0.0
C757 C 0.24116 0.80418 0.99088 0.0
C758 C 0.22097 0.78517 0.95336 0.0
C759 C 0.20109 0.74531 0.89025 0.0
C760 C 0.20179 0.72495 0.86445 0.0
C761 C 0.22101 0.76433 0.93014 0.0
C762 C 0.22246 0.72371 0.87964 0.0
C763 C 0.24204 0.74224 0.92075 0.0
H764 H 0.52139 0.2957 0.11775 0.0
H765 H 0.44557 0.25917 0.16006 0.0
H766 H 0.44177 0.22258 0.10073 0.0
H767 H 0.46007 0.20107 0.0363 0.0
H768 H 0.53558 0.23837 0.98567 0.0
H769 H 0.53943 0.27462 0.04762 0.0
C770 C 0.5041 0.27963 0.11462 0.0
C771 C 0.48383 0.27993 0.14409 0.0
C772 C 0.50197 0.25891 0.07803 0.0
C773 C 0.46143 0.25923 0.13804 0.0
C774 C 0.45925 0.23837 0.10398 0.0
C775 C 0.47733 0.21718 0.0384 0.0
C776 C 0.4975 0.21704 1.00649 0.0
C777 C 0.47939 0.23803 0.07345 0.0
C778 C 0.51975 0.23805 1.00931 0.0
C779 C 0.522 0.25876 0.04521 0.0
H780 H 0.36141 0.40143 0.18776 0.0
H781 H 0.41502 0.45986 0.03808 0.0
H782 H 0.44002 0.44187 0.04101 0.0
H783 H 0.44724 0.41016 0.08877 0.0
H784 H 0.39533 0.35373 0.24991 0.0
H785 H 0.36921 0.3704 0.23955 0.0
C786 C 0.37866 0.41043 0.15654 0.0
C787 C 0.38617 0.43201 0.11263 0.0
C788 C 0.39333 0.40033 0.16038 0.0
C789 C 0.40845 0.44304 0.07107 0.0
C790 C 0.42293 0.43287 0.07333 0.0
C791 C 0.43037 0.40162 0.12265 0.0
C792 C 0.42339 0.38066 0.17008 0.0
C793 C 0.41563 0.41161 0.1183 0.0
C794 C 0.40112 0.36964 0.21172 0.0
C795 C 0.38619 0.37927 0.20645 0.0
H796 H 0.96224 0.39935 0.30863 0.0
H797 H 0.95621 0.33034 0.31799 0.0
H798 H -0.00091 0.3489 0.34483 0.0
H799 H 0.03833 0.38507 0.36819 0.0
H800 H 0.04326 0.45367 0.36682 0.0
H801 H 0.00086 0.43508 0.3338 0.0
C802 C 0.9704 0.38843 0.31588 0.0
C803 C 0.95624 0.36359 0.31086 0.0
C804 C 0.99484 0.39918 0.33285 0.0
C805 C 0.96684 0.34953 0.32186 0.0
C806 C 0.99132 0.36013 0.33698 0.0
C807 C 0.03003 0.39584 0.36013 0.0
C808 C 0.04375 0.42063 0.36973 0.0
C809 C 0.0055 0.38496 0.34295 0.0
C810 C 0.03291 0.43451 0.36011 0.0
C811 C 0.00873 0.42392 0.34112 0.0
H812 H 0.62463 0.03536 0.42236 0.0
H813 H 0.62135 0.02671 0.69859 0.0
H814 H 0.59731 0.9837 0.68199 0.0
H815 H 0.57603 0.94863 0.58929 0.0
H816 H 0.58148 0.95727 0.31305 0.0
H817 H 0.60602 0.00019 0.32982 0.0
C818 C 0.61906 0.02412 0.47909 0.0
C819 C 0.62472 0.03443 0.56162 0.0
C820 C 0.60549 -0.00065 0.46918 0.0
C821 C 0.61691 0.01942 0.63421 0.0
C822 C 0.60327 0.99476 0.62483 0.0
C823 C 0.58289 0.95982 0.53265 0.0
C824 C 0.57662 0.94962 0.45003 0.0
C825 C 0.59727 0.98454 0.54263 0.0
C826 C 0.5855 0.96456 0.3775 0.0
C827 C 0.5997 0.98915 0.38696 0.0
H828 H 0.59006 0.55356 0.68326 0.0
H829 H 0.65877 0.61619 0.64746 0.0
H830 H 0.64084 0.64142 0.66082 0.0
H831 H 0.60538 0.64545 0.68319 0.0
H832 H 0.53716 0.58262 0.72634 0.0
H833 H 0.55506 0.55761 0.71011 0.0
C834 C 0.60101 0.57274 0.67791 0.0
C835 C 0.62557 0.58309 0.66371 0.0
C836 C 0.59068 0.58703 0.68745 0.0
C837 C 0.63978 0.60793 0.65836 0.0
C838 C 0.62954 0.6223 0.66592 0.0
C839 C 0.59452 0.62628 0.6889 0.0
C840 C 0.57004 0.61583 0.7059 0.0
C841 C 0.605 0.61204 0.68058 0.0
C842 C 0.5561 0.59102 0.71405 0.0
C843 C 0.56628 0.57672 0.70436 0.0
H844 H 0.03196 0.64771 0.81413 0.0
H845 H 0.04064 0.58621 0.80871 0.0
H846 H 0.99842 0.56037 0.83985 0.0
H847 H 0.95905 0.55513 0.86896 0.0
H848 H 0.94935 0.61597 0.86911 0.0
H849 H 0.99187 0.64223 0.83962 0.0
C850 C 0.02453 0.62866 0.81995 0.0
C851 C 0.03932 0.61884 0.80901 0.0
C852 C 0.0001 0.61382 0.83692 0.0
C853 C 0.02952 0.59412 0.81595 0.0
C854 C 0.00542 0.57935 0.83415 0.0
C855 C 0.96632 0.57417 0.863 0.0
C856 C 0.95124 0.58368 0.8718 0.0
C857 C 0.99057 0.58899 0.84485 0.0
C858 C 0.9607 0.60829 0.8624 0.0
C859 C 0.98497 0.62328 0.84577 0.0
H860 H 0.41651 0.04155 0.88127 0.0
H861 H 0.42769 0.05824 0.15218 0.0
H862 H 0.40265 0.01625 0.18795 0.0
H863 H 0.37842 0.97467 0.14255 0.0
H864 H 0.36893 0.9578 0.87156 0.0
H865 H 0.39238 -5e-05 0.83587 0.0
C866 C 0.41364 0.03601 0.94815 0.0
C867 C 0.42404 0.05309 0.01382 0.0
C868 C 0.39947 0.01177 0.96838 0.0
C869 C 0.41969 0.04556 0.10021 0.0
C870 C 0.40549 0.02151 0.12081 0.0
C871 C 0.38162 0.98017 0.07566 0.0
C872 C 0.37191 0.96302 1.00996 0.0
C873 C 0.39543 0.00445 0.05544 0.0
C874 C 0.37588 0.97059 0.92359 0.0
C875 C 0.38945 0.9947 0.90301 0.0
loop_
_geom_bond_atom_site_label_1
_geom_bond_atom_site_label_2
_geom_bond_distance
_geom_bond_site_symmetry_2
_ccdc_geom_bond_type
Co0 N4 2.148 . S
Co0 N10 2.128 1_554 S
Co0 N20 2.194 . S
Co0 O25 2.351 . S
Co0 O26 2.155 . S
Co0 O27 2.096 . S
C1 N4 1.301 . S
C1 N5 1.328 . S
C1 H6 0.930 . S
C2 C3 1.333 . S
C2 N4 1.317 . S
C2 H7 0.930 . S
C3 C2 1.333 . S
C3 N5 1.350 . S
C3 H29 0.931 . S
N4 Co0 2.148 . S
N4 C1 1.301 . S
N4 C2 1.317 . S
N5 C1 1.328 . S
N5 C3 1.350 . S
H6 C1 0.930 . S
H7 C2 0.930 . S
C8 O9 1.224 . S
C8 O27 1.247 . S
O9 C8 1.224 . S
N10 Co0 2.128 1_556 S
N10 C11 1.355 . S
N10 C13 1.311 . S
C11 N10 1.355 . S
C11 C12 1.363 . S
C11 H23 0.929 . S
C12 C11 1.363 . S
C12 N14 1.375 . S
C12 H30 0.931 . S
C13 N10 1.311 . S
C13 N14 1.347 . S
C13 H24 0.929 . S
N14 C12 1.375 . S
N14 C13 1.347 . S
C15 C18 1.365 . S
C15 N20 1.328 . S
C15 H21 0.929 . S
C16 C17 1.362 . S
C16 C19 1.378 . S
C16 H31 0.929 . S
C17 C16 1.362 . S
C17 C18 1.366 . S
C18 C15 1.365 . S
C18 C17 1.366 . S
C18 H32 0.930 . S
C19 C16 1.378 . S
C19 N20 1.315 . S
C19 H22 0.930 . S
N20 Co0 2.194 . S
N20 C15 1.328 . S
N20 C19 1.315 . S
H21 C15 0.929 . S
H22 C19 0.930 . S
H23 C11 0.929 . S
H24 C13 0.929 . S
O25 Co0 2.351 . S
O25 C28 1.244 . S
O26 Co0 2.155 . S
O26 C28 1.240 . S
O27 Co0 2.096 . S
O27 C8 1.247 . S
C28 O25 1.244 . S
C28 O26 1.240 . S
H29 C3 0.931 . S
H30 C12 0.931 . S
H31 C16 0.929 . S
H32 C18 0.930 . S
Co33 N37 2.148 . S
Co33 N43 2.128 . S
Co33 N53 2.194 . S
Co33 O58 2.351 . S
Co33 O59 2.155 . S
Co33 O60 2.096 . S
C34 N37 1.301 . S
C34 N38 1.328 . S
C34 H39 0.930 . S
C35 C36 1.333 . S
C35 N37 1.317 . S
C35 H40 0.930 . S
C36 C35 1.333 . S
C36 N38 1.350 . S
C36 H62 0.931 . S
N37 Co33 2.148 . S
N37 C34 1.301 . S
N37 C35 1.317 . S
N38 C34 1.328 . S
N38 C36 1.350 . S
H39 C34 0.930 . S
H40 C35 0.930 . S
C41 O42 1.224 . S
C41 O60 1.247 . S
O42 C41 1.224 . S
N43 Co33 2.128 . S
N43 C44 1.355 . S
N43 C46 1.311 . S
C44 N43 1.355 . S
C44 C45 1.363 . S
C44 H56 0.929 . S
C45 C44 1.363 . S
C45 N47 1.375 1_554 S
C45 H63 0.931 1_554 S
C46 N43 1.311 . S
C46 N47 1.347 1_554 S
C46 H57 0.929 . S
N47 C45 1.375 1_556 S
N47 C46 1.347 1_556 S
C48 C51 1.365 . S
C48 N53 1.328 . S
C48 H54 0.929 . S
C49 C50 1.362 . S
C49 C52 1.378 . S
C49 H64 0.929 . S
C50 C49 1.362 . S
C50 C51 1.366 . S
C51 C48 1.365 . S
C51 C50 1.366 . S
C51 H65 0.930 . S
C52 C49 1.378 . S
C52 N53 1.315 . S
C52 H55 0.930 . S
N53 Co33 2.194 . S
N53 C48 1.328 . S
N53 C52 1.315 . S
H54 C48 0.929 . S
H55 C52 0.930 . S
H56 C44 0.929 . S
H57 C46 0.929 . S
O58 Co33 2.351 . S
O58 C61 1.244 . S
O59 Co33 2.155 . S
O59 C61 1.240 . S
O60 Co33 2.096 . S
O60 C41 1.247 . S
C61 O58 1.244 . S
C61 O59 1.240 . S
H62 C36 0.931 . S
H63 C45 0.931 1_556 S
H64 C49 0.929 . S
H65 C51 0.930 . S
Co66 N70 2.148 . S
Co66 N76 2.128 . S
Co66 N86 2.194 . S
Co66 O91 2.351 . S
Co66 O92 2.155 . S
Co66 O93 2.096 . S
C67 N70 1.301 . S
C67 N71 1.328 . S
C67 H72 0.930 . S
C68 C69 1.333 . S
C68 N70 1.317 . S
C68 H73 0.930 . S
C69 C68 1.333 . S
C69 N71 1.350 . S
C69 H95 0.931 . S
N70 Co66 2.148 . S
N70 C67 1.301 . S
N70 C68 1.317 . S
N71 C67 1.328 . S
N71 C69 1.350 . S
H72 C67 0.930 . S
H73 C68 0.930 . S
C74 O75 1.224 . S
C74 O93 1.247 . S
O75 C74 1.224 . S
N76 Co66 2.128 . S
N76 C77 1.355 . S
N76 C79 1.311 . S
C77 N76 1.355 . S
C77 C78 1.363 . S
C77 H89 0.929 . S
C78 C77 1.363 . S
C78 N80 1.375 . S
C78 H96 0.931 . S
C79 N76 1.311 . S
C79 N80 1.347 . S
C79 H90 0.929 . S
N80 C78 1.375 . S
N80 C79 1.347 . S
C81 C84 1.365 . S
C81 N86 1.328 . S
C81 H87 0.929 . S
C82 C83 1.362 . S
C82 C85 1.378 . S
C82 H97 0.929 . S
C83 C82 1.362 . S
C83 C84 1.366 . S
C84 C81 1.365 . S
C84 C83 1.366 . S
C84 H98 0.930 . S
C85 C82 1.378 . S
C85 N86 1.315 . S
C85 H88 0.930 . S
N86 Co66 2.194 . S
N86 C81 1.328 . S
N86 C85 1.315 . S
H87 C81 0.929 . S
H88 C85 0.930 . S
H89 C77 0.929 . S
H90 C79 0.929 . S
O91 Co66 2.351 . S
O91 C94 1.244 . S
O92 Co66 2.155 . S
O92 C94 1.240 . S
O93 Co66 2.096 . S
O93 C74 1.247 . S
C94 O91 1.244 . S
C94 O92 1.240 . S
H95 C69 0.931 . S
H96 C78 0.931 . S
H97 C82 0.929 . S
H98 C84 0.930 . S
Co99 N103 2.148 . S
Co99 N109 2.128 . S
Co99 N119 2.194 . S
Co99 O124 2.351 . S
Co99 O125 2.155 . S
Co99 O126 2.096 . S
C100 N103 1.301 . S
C100 N104 1.328 . S
C100 H105 0.930 . S
C101 C102 1.333 . S
C101 N103 1.317 . S
C101 H106 0.930 . S
C102 C101 1.333 . S
C102 N104 1.350 . S
C102 H128 0.931 . S
N103 Co99 2.148 . S
N103 C100 1.301 . S
N103 C101 1.317 . S
N104 C100 1.328 . S
N104 C102 1.350 . S
H105 C100 0.930 . S
H106 C101 0.930 . S
C107 O108 1.224 . S
C107 O126 1.247 . S
O108 C107 1.224 . S
N109 Co99 2.128 . S
N109 C110 1.355 . S
N109 C112 1.311 . S
C110 N109 1.355 . S
C110 C111 1.363 . S
C110 H122 0.929 . S
C111 C110 1.363 . S
C111 N113 1.375 . S
C111 H129 0.931 . S
C112 N109 1.311 . S
C112 N113 1.347 . S
C112 H123 0.929 . S
N113 C111 1.375 . S
N113 C112 1.347 . S
C114 C117 1.365 . S
C114 N119 1.328 . S
C114 H120 0.929 . S
C115 C116 1.362 . S
C115 C118 1.378 . S
C115 H130 0.929 . S
C116 C115 1.362 . S
C116 C117 1.366 . S
C117 C114 1.365 . S
C117 C116 1.366 . S
C117 H131 0.930 . S
C118 C115 1.378 . S
C118 N119 1.315 . S
C118 H121 0.930 . S
N119 Co99 2.194 . S
N119 C114 1.328 . S
N119 C118 1.315 . S
H120 C114 0.929 . S
H121 C118 0.930 . S
H122 C110 0.929 . S
H123 C112 0.929 . S
O124 Co99 2.351 . S
O124 C127 1.244 . S
O125 Co99 2.155 . S
O125 C127 1.240 . S
O126 Co99 2.096 . S
O126 C107 1.247 . S
C127 O124 1.244 . S
C127 O125 1.240 . S
H128 C102 0.931 . S
H129 C111 0.931 . S
H130 C115 0.929 . S
H131 C117 0.930 . S
Co132 N136 2.148 . S
Co132 N142 2.128 . S
Co132 N152 2.194 . S
Co132 O157 2.351 . S
Co132 O158 2.155 . S
Co132 O159 2.096 . S
C133 N136 1.301 . S
C133 N137 1.328 1_556 S
C133 H138 0.930 . S
C134 C135 1.333 . S
C134 N136 1.317 . S
C134 H139 0.930 . S
C135 C134 1.333 . S
C135 N137 1.350 1_556 S
C135 H161 0.931 1_556 S
N136 Co132 2.148 . S
N136 C133 1.301 . S
N136 C134 1.317 . S
N137 C133 1.328 1_554 S
N137 C135 1.350 1_554 S
H138 C133 0.930 . S
H139 C134 0.930 . S
C140 O141 1.224 . S
C140 O159 1.247 . S
O141 C140 1.224 . S
N142 Co132 2.128 . S
N142 C143 1.355 . S
N142 C145 1.311 . S
C143 N142 1.355 . S
C143 C144 1.363 . S
C143 H155 0.929 . S
C144 C143 1.363 . S
C144 N146 1.375 . S
C144 H162 0.931 . S
C145 N142 1.311 . S
C145 N146 1.347 . S
C145 H156 0.929 . S
N146 C144 1.375 . S
N146 C145 1.347 . S
C147 C150 1.365 . S
C147 N152 1.328 . S
C147 H153 0.929 . S
C148 C149 1.362 . S
C148 C151 1.378 . S
C148 H163 0.929 . S
C149 C148 1.362 . S
C149 C150 1.366 . S
C150 C147 1.365 . S
C150 C149 1.366 . S
C150 H164 0.930 . S
C151 C148 1.378 . S
C151 N152 1.315 . S
C151 H154 0.930 . S
N152 Co132 2.194 . S
N152 C147 1.328 . S
N152 C151 1.315 . S
H153 C147 0.929 . S
H154 C151 0.930 . S
H155 C143 0.929 . S
H156 C145 0.929 . S
O157 Co132 2.351 . S
O157 C160 1.244 . S
O158 Co132 2.155 . S
O158 C160 1.240 . S
O159 Co132 2.096 . S
O159 C140 1.247 . S
C160 O157 1.244 . S
C160 O158 1.240 . S
H161 C135 0.931 1_554 S
H162 C144 0.931 . S
H163 C148 0.929 . S
H164 C150 0.930 . S
Co165 N169 2.148 1_556 S
Co165 N175 2.128 . S
Co165 N185 2.194 . S
Co165 O190 2.351 . S
Co165 O191 2.155 . S
Co165 O192 2.096 . S
C166 N169 1.301 . S
C166 N170 1.328 . S
C166 H171 0.930 . S
C167 C168 1.333 . S
C167 N169 1.317 . S
C167 H172 0.930 . S
C168 C167 1.333 . S
C168 N170 1.350 . S
C168 H194 0.931 . S
N169 Co165 2.148 1_554 S
N169 C166 1.301 . S
N169 C167 1.317 . S
N170 C166 1.328 . S
N170 C168 1.350 . S
H171 C166 0.930 . S
H172 C167 0.930 . S
C173 O174 1.224 . S
C173 O192 1.247 . S
O174 C173 1.224 . S
N175 Co165 2.128 . S
N175 C176 1.355 . S
N175 C178 1.311 . S
C176 N175 1.355 . S
C176 C177 1.363 . S
C176 H188 0.929 . S
C177 C176 1.363 . S
C177 N179 1.375 . S
C177 H195 0.931 . S
C178 N175 1.311 . S
C178 N179 1.347 . S
C178 H189 0.929 . S
N179 C177 1.375 . S
N179 C178 1.347 . S
C180 C183 1.365 . S
C180 N185 1.328 . S
C180 H186 0.929 1_556 S
C181 C182 1.362 . S
C181 C184 1.378 . S
C181 H196 0.929 . S
C182 C181 1.362 . S
C182 C183 1.366 . S
C183 C180 1.365 . S
C183 C182 1.366 . S
C183 H197 0.930 1_556 S
C184 C181 1.378 . S
C184 N185 1.315 . S
C184 H187 0.930 . S
N185 Co165 2.194 . S
N185 C180 1.328 . S
N185 C184 1.315 . S
H186 C180 0.929 1_554 S
H187 C184 0.930 . S
H188 C176 0.929 . S
H189 C178 0.929 . S
O190 Co165 2.351 . S
O190 C193 1.244 . S
O191 Co165 2.155 . S
O191 C193 1.240 . S
O192 Co165 2.096 . S
O192 C173 1.247 . S
C193 O190 1.244 . S
C193 O191 1.240 . S
H194 C168 0.931 . S
H195 C177 0.931 . S
H196 C181 0.929 . S
H197 C183 0.930 1_554 S
Co198 N202 2.148 . S
Co198 N208 2.128 . S
Co198 N218 2.194 . S
Co198 O223 2.351 . S
Co198 O224 2.155 . S
Co198 O225 2.096 . S
C199 N202 1.301 . S
C199 N203 1.328 . S
C199 H204 0.930 . S
C200 C201 1.333 . S
C200 N202 1.317 . S
C200 H205 0.930 . S
C201 C200 1.333 . S
C201 N203 1.350 . S
C201 H227 0.931 . S
N202 Co198 2.148 . S
N202 C199 1.301 . S
N202 C200 1.317 . S
N203 C199 1.328 . S
N203 C201 1.350 . S
H204 C199 0.930 . S
H205 C200 0.930 . S
C206 O207 1.224 . S
C206 O225 1.247 . S
O207 C206 1.224 . S
N208 Co198 2.128 . S
N208 C209 1.355 . S
N208 C211 1.311 . S
C209 N208 1.355 . S
C209 C210 1.363 . S
C209 H221 0.929 . S
C210 C209 1.363 . S
C210 N212 1.375 1_556 S
C210 H228 0.931 1_556 S
C211 N208 1.311 . S
C211 N212 1.347 1_556 S
C211 H222 0.929 . S
N212 C210 1.375 1_554 S
N212 C211 1.347 1_554 S
C213 C216 1.365 . S
C213 N218 1.328 . S
C213 H219 0.929 . S
C214 C215 1.362 . S
C214 C217 1.378 . S
C214 H229 0.929 . S
C215 C214 1.362 . S
C215 C216 1.366 . S
C216 C213 1.365 . S
C216 C215 1.366 . S
C216 H230 0.930 . S
C217 C214 1.378 . S
C217 N218 1.315 . S
C217 H220 0.930 . S
N218 Co198 2.194 . S
N218 C213 1.328 . S
N218 C217 1.315 . S
H219 C213 0.929 . S
H220 C217 0.930 . S
H221 C209 0.929 . S
H222 C211 0.929 . S
O223 Co198 2.351 . S
O223 C226 1.244 . S
O224 Co198 2.155 . S
O224 C226 1.240 . S
O225 Co198 2.096 . S
O225 C206 1.247 . S
C226 O223 1.244 . S
C226 O224 1.240 . S
H227 C201 0.931 . S
H228 C210 0.931 1_554 S
H229 C214 0.929 . S
H230 C216 0.930 . S
Co231 N235 2.148 . S
Co231 N241 2.128 1_556 S
Co231 N251 2.194 . S
Co231 O256 2.351 . S
Co231 O257 2.155 . S
Co231 O258 2.096 . S
C232 N235 1.301 . S
C232 N236 1.328 . S
C232 H237 0.930 . S
C233 C234 1.333 . S
C233 N235 1.317 . S
C233 H238 0.930 . S
C234 C233 1.333 . S
C234 N236 1.350 . S
C234 H260 0.931 . S
N235 Co231 2.148 . S
N235 C232 1.301 . S
N235 C233 1.317 . S
N236 C232 1.328 . S
N236 C234 1.350 . S
H237 C232 0.930 . S
H238 C233 0.930 . S
C239 O240 1.224 . S
C239 O258 1.247 . S
O240 C239 1.224 . S
N241 Co231 2.128 1_554 S
N241 C242 1.355 . S
N241 C244 1.311 . S
C242 N241 1.355 . S
C242 C243 1.363 . S
C242 H254 0.929 . S
C243 C242 1.363 . S
C243 N245 1.375 . S
C243 H261 0.931 . S
C244 N241 1.311 . S
C244 N245 1.347 . S
C244 H255 0.929 . S
N245 C243 1.375 . S
N245 C244 1.347 . S
C246 C249 1.365 . S
C246 N251 1.328 . S
C246 H252 0.929 . S
C247 C248 1.362 . S
C247 C250 1.378 . S
C247 H262 0.929 . S
C248 C247 1.362 . S
C248 C249 1.366 . S
C249 C246 1.365 . S
C249 C248 1.366 . S
C249 H263 0.930 . S
C250 C247 1.378 . S
C250 N251 1.315 . S
C250 H253 0.930 . S
N251 Co231 2.194 . S
N251 C246 1.328 . S
N251 C250 1.315 . S
H252 C246 0.929 . S
H253 C250 0.930 . S
H254 C242 0.929 . S
H255 C244 0.929 . S
O256 Co231 2.351 . S
O256 C259 1.244 . S
O257 Co231 2.155 . S
O257 C259 1.240 . S
O258 Co231 2.096 . S
O258 C239 1.247 . S
C259 O256 1.244 . S
C259 O257 1.240 . S
H260 C234 0.931 . S
H261 C243 0.931 . S
H262 C247 0.929 . S
H263 C249 0.930 . S
Co264 N268 2.148 1_554 S
Co264 N274 2.128 . S
Co264 N284 2.194 . S
Co264 O289 2.351 . S
Co264 O290 2.155 . S
Co264 O291 2.096 . S
C265 N268 1.301 . S
C265 N269 1.328 . S
C265 H270 0.930 . S
C266 C267 1.333 . S
C266 N268 1.317 . S
C266 H271 0.930 . S
C267 C266 1.333 . S
C267 N269 1.350 . S
C267 H293 0.931 . S
N268 Co264 2.148 1_556 S
N268 C265 1.301 . S
N268 C266 1.317 . S
N269 C265 1.328 . S
N269 C267 1.350 . S
H270 C265 0.930 . S
H271 C266 0.930 . S
C272 O273 1.224 . S
C272 O291 1.247 . S
O273 C272 1.224 . S
N274 Co264 2.128 . S
N274 C275 1.355 . S
N274 C277 1.311 . S
C275 N274 1.355 . S
C275 C276 1.363 . S
C275 H287 0.929 . S
C276 C275 1.363 . S
C276 N278 1.375 . S
C276 H294 0.931 . S
C277 N274 1.311 . S
C277 N278 1.347 . S
C277 H288 0.929 . S
N278 C276 1.375 . S
N278 C277 1.347 . S
C279 C282 1.365 . S
C279 N284 1.328 . S
C279 H285 0.929 1_554 S
C280 C281 1.362 . S
C280 C283 1.378 . S
C280 H295 0.929 . S
C281 C280 1.362 . S
C281 C282 1.366 . S
C282 C279 1.365 . S
C282 C281 1.366 . S
C282 H296 0.930 1_554 S
C283 C280 1.378 . S
C283 N284 1.315 . S
C283 H286 0.930 . S
N284 Co264 2.194 . S
N284 C279 1.328 . S
N284 C283 1.315 . S
H285 C279 0.929 1_556 S
H286 C283 0.930 . S
H287 C275 0.929 . S
H288 C277 0.929 . S
O289 Co264 2.351 . S
O289 C292 1.244 . S
O290 Co264 2.155 . S
O290 C292 1.240 . S
O291 Co264 2.096 . S
O291 C272 1.247 . S
C292 O289 1.244 . S
C292 O290 1.240 . S
H293 C267 0.931 . S
H294 C276 0.931 . S
H295 C280 0.929 . S
H296 C282 0.930 1_556 S
Co297 N301 2.148 . S
Co297 N307 2.128 . S
Co297 N317 2.194 . S
Co297 O322 2.351 . S
Co297 O323 2.155 . S
Co297 O324 2.096 . S
C298 N301 1.301 . S
C298 N302 1.328 1_554 S
C298 H303 0.930 . S
C299 C300 1.333 . S
C299 N301 1.317 . S
C299 H304 0.930 . S
C300 C299 1.333 . S
C300 N302 1.350 1_554 S
C300 H326 0.931 1_554 S
N301 Co297 2.148 . S
N301 C298 1.301 . S
N301 C299 1.317 . S
N302 C298 1.328 1_556 S
N302 C300 1.350 1_556 S
H303 C298 0.930 . S
H304 C299 0.930 . S
C305 O306 1.224 . S
C305 O324 1.247 . S
O306 C305 1.224 . S
N307 Co297 2.128 . S
N307 C308 1.355 . S
N307 C310 1.311 . S
C308 N307 1.355 . S
C308 C309 1.363 . S
C308 H320 0.929 . S
C309 C308 1.363 . S
C309 N311 1.375 . S
C309 H327 0.931 . S
C310 N307 1.311 . S
C310 N311 1.347 . S
C310 H321 0.929 . S
N311 C309 1.375 . S
N311 C310 1.347 . S
C312 C315 1.365 . S
C312 N317 1.328 . S
C312 H318 0.929 . S
C313 C314 1.362 . S
C313 C316 1.378 . S
C313 H328 0.929 . S
C314 C313 1.362 . S
C314 C315 1.366 . S
C315 C312 1.365 . S
C315 C314 1.366 . S
C315 H329 0.930 . S
C316 C313 1.378 . S
C316 N317 1.315 . S
C316 H319 0.930 . S
N317 Co297 2.194 . S
N317 C312 1.328 . S
N317 C316 1.315 . S
H318 C312 0.929 . S
H319 C316 0.930 . S
H320 C308 0.929 . S
H321 C310 0.929 . S
O322 Co297 2.351 . S
O322 C325 1.244 . S
O323 Co297 2.155 . S
O323 C325 1.240 . S
O324 Co297 2.096 . S
O324 C305 1.247 . S
C325 O322 1.244 . S
C325 O323 1.240 . S
H326 C300 0.931 1_556 S
H327 C309 0.931 . S
H328 C313 0.929 . S
H329 C315 0.930 . S
Co330 N334 2.148 . S
Co330 N340 2.128 . S
Co330 N350 2.194 . S
Co330 O355 2.351 . S
Co330 O356 2.155 . S
Co330 O357 2.096 . S
C331 N334 1.301 . S
C331 N335 1.328 . S
C331 H336 0.930 . S
C332 C333 1.333 . S
C332 N334 1.317 . S
C332 H337 0.930 . S
C333 C332 1.333 . S
C333 N335 1.350 . S
C333 H359 0.931 . S
N334 Co330 2.148 . S
N334 C331 1.301 . S
N334 C332 1.317 . S
N335 C331 1.328 . S
N335 C333 1.350 . S
H336 C331 0.930 . S
H337 C332 0.930 . S
C338 O339 1.224 . S
C338 O357 1.247 . S
O339 C338 1.224 . S
N340 Co330 2.128 . S
N340 C341 1.355 . S
N340 C343 1.311 . S
C341 N340 1.355 . S
C341 C342 1.363 . S
C341 H353 0.929 . S
C342 C341 1.363 . S
C342 N344 1.375 . S
C342 H360 0.931 . S
C343 N340 1.311 . S
C343 N344 1.347 . S
C343 H354 0.929 . S
N344 C342 1.375 . S
N344 C343 1.347 . S
C345 C348 1.365 . S
C345 N350 1.328 . S
C345 H351 0.929 . S
C346 C347 1.362 . S
C346 C349 1.378 . S
C346 H361 0.929 . S
C347 C346 1.362 . S
C347 C348 1.366 . S
C348 C345 1.365 . S
C348 C347 1.366 . S
C348 H362 0.930 . S
C349 C346 1.378 . S
C349 N350 1.315 . S
C349 H352 0.930 . S
N350 Co330 2.194 . S
N350 C345 1.328 . S
N350 C349 1.315 . S
H351 C345 0.929 . S
H352 C349 0.930 . S
H353 C341 0.929 . S
H354 C343 0.929 . S
O355 Co330 2.351 . S
O355 C358 1.244 . S
O356 Co330 2.155 . S
O356 C358 1.240 . S
O357 Co330 2.096 . S
O357 C338 1.247 . S
C358 O355 1.244 . S
C358 O356 1.240 . S
H359 C333 0.931 . S
H360 C342 0.931 . S
H361 C346 0.929 . S
H362 C348 0.930 . S
Co363 N367 2.148 . S
Co363 N373 2.128 . S
Co363 N383 2.194 . S
Co363 O388 2.351 . S
Co363 O389 2.155 . S
Co363 O390 2.096 . S
C364 N367 1.301 . S
C364 N368 1.328 . S
C364 H369 0.930 . S
C365 C366 1.333 . S
C365 N367 1.317 . S
C365 H370 0.930 . S
C366 C365 1.333 . S
C366 N368 1.350 . S
C366 H392 0.931 . S
N367 Co363 2.148 . S
N367 C364 1.301 . S
N367 C365 1.317 . S
N368 C364 1.328 . S
N368 C366 1.350 . S
H369 C364 0.930 . S
H370 C365 0.930 . S
C371 O372 1.224 . S
C371 O390 1.247 . S
O372 C371 1.224 . S
N373 Co363 2.128 . S
N373 C374 1.355 . S
N373 C376 1.311 . S
C374 N373 1.355 . S
C374 C375 1.363 . S
C374 H386 0.929 . S
C375 C374 1.363 . S
C375 N377 1.375 . S
C375 H393 0.931 . S
C376 N373 1.311 . S
C376 N377 1.347 . S
C376 H387 0.929 . S
N377 C375 1.375 . S
N377 C376 1.347 . S
C378 C381 1.365 . S
C378 N383 1.328 . S
C378 H384 0.929 . S
C379 C380 1.362 . S
C379 C382 1.378 . S
C379 H394 0.929 . S
C380 C379 1.362 . S
C380 C381 1.366 . S
C381 C378 1.365 . S
C381 C380 1.366 . S
C381 H395 0.930 . S
C382 C379 1.378 . S
C382 N383 1.315 . S
C382 H385 0.930 . S
N383 Co363 2.194 . S
N383 C378 1.328 . S
N383 C382 1.315 . S
H384 C378 0.929 . S
H385 C382 0.930 . S
H386 C374 0.929 . S
H387 C376 0.929 . S
O388 Co363 2.351 . S
O388 C391 1.244 . S
O389 Co363 2.155 . S
O389 C391 1.240 . S
O390 Co363 2.096 . S
O390 C371 1.247 . S
C391 O388 1.244 . S
C391 O389 1.240 . S
H392 C366 0.931 . S
H393 C375 0.931 . S
H394 C379 0.929 . S
H395 C381 0.930 . S
H396 C402 0.930 . S
H397 C405 0.930 . S
H398 C406 0.930 . S
H399 C407 0.930 . S
H400 C410 0.930 . S
H401 C411 0.930 . S
C402 H396 0.930 . S
C402 C403 1.355 . S
C402 C404 1.415 . S
C403 C402 1.355 . S
C403 C405 1.419 . S
C404 C402 1.415 . S
C404 C409 1.425 . S
C404 C411 1.409 . S
C405 H397 0.930 . S
C405 C403 1.419 . S
C405 C406 1.362 . S
C406 H398 0.930 . S
C406 C405 1.362 . S
C406 C409 1.409 . S
C407 H399 0.930 . S
C407 C408 1.355 . S
C407 C409 1.415 . S
C408 C407 1.355 . S
C408 C410 1.419 . S
C409 C404 1.425 . S
C409 C406 1.409 . S
C409 C407 1.415 . S
C410 H400 0.930 . S
C410 C408 1.419 . S
C410 C411 1.362 . S
C411 H401 0.930 . S
C411 C404 1.409 . S
C411 C410 1.362 . S
H412 C418 0.930 . S
H413 C421 0.930 . S
H414 C422 0.930 . S
H415 C423 0.930 . S
H416 C426 0.930 . S
H417 C427 0.930 . S
C418 H412 0.930 . S
C418 C419 1.355 . S
C418 C420 1.415 . S
C419 C418 1.355 . S
C419 C421 1.419 . S
C420 C418 1.415 . S
C420 C425 1.425 . S
C420 C427 1.409 . S
C421 H413 0.930 . S
C421 C419 1.419 . S
C421 C422 1.362 . S
C422 H414 0.930 . S
C422 C421 1.362 . S
C422 C425 1.409 . S
C423 H415 0.930 . S
C423 C424 1.355 . S
C423 C425 1.415 . S
C424 C423 1.355 . S
C424 C426 1.419 . S
C425 C420 1.425 . S
C425 C422 1.409 . S
C425 C423 1.415 . S
C426 H416 0.930 . S
C426 C424 1.419 . S
C426 C427 1.362 . S
C427 H417 0.930 . S
C427 C420 1.409 . S
C427 C426 1.362 . S
H428 C434 0.930 . S
H429 C437 0.930 . S
H430 C438 0.930 . S
H431 C439 0.930 . S
H432 C442 0.930 . S
H433 C443 0.930 . S
C434 H428 0.930 . S
C434 C435 1.355 . S
C434 C436 1.415 1_554 S
C435 C434 1.355 . S
C435 C437 1.419 . S
C436 C434 1.415 1_556 S
C436 C441 1.425 . S
C436 C443 1.409 . S
C437 H429 0.930 . S
C437 C435 1.419 . S
C437 C438 1.362 1_554 S
C438 H430 0.930 . S
C438 C437 1.362 1_556 S
C438 C441 1.409 . S
C439 H431 0.930 . S
C439 C440 1.355 . S
C439 C441 1.415 . S
C440 C439 1.355 . S
C440 C442 1.419 . S
C441 C436 1.425 . S
C441 C438 1.409 . S
C441 C439 1.415 . S
C442 H432 0.930 . S
C442 C440 1.419 . S
C442 C443 1.362 . S
C443 H433 0.930 . S
C443 C436 1.409 . S
C443 C442 1.362 . S
H444 C450 0.930 . S
H445 C453 0.930 . S
H446 C454 0.930 . S
H447 C455 0.930 . S
H448 C458 0.930 . S
H449 C459 0.930 . S
C450 H444 0.930 . S
C450 C451 1.355 . S
C450 C452 1.415 1_556 S
C451 C450 1.355 . S
C451 C453 1.419 . S
C452 C450 1.415 1_554 S
C452 C457 1.425 . S
C452 C459 1.409 . S
C453 H445 0.930 . S
C453 C451 1.419 . S
C453 C454 1.362 1_556 S
C454 H446 0.930 . S
C454 C453 1.362 1_554 S
C454 C457 1.409 . S
C455 H447 0.930 . S
C455 C456 1.355 . S
C455 C457 1.415 . S
C456 C455 1.355 . S
C456 C458 1.419 . S
C457 C452 1.425 . S
C457 C454 1.409 . S
C457 C455 1.415 . S
C458 H448 0.930 . S
C458 C456 1.419 . S
C458 C459 1.362 . S
C459 H449 0.930 . S
C459 C452 1.409 . S
C459 C458 1.362 . S
H460 C466 0.930 . S
H461 C469 0.930 . S
H462 C470 0.930 . S
H463 C471 0.930 . S
H464 C474 0.930 . S
H465 C475 0.930 . S
C466 H460 0.930 . S
C466 C467 1.355 . S
C466 C468 1.415 . S
C467 C466 1.355 . S
C467 C469 1.419 . S
C468 C466 1.415 . S
C468 C473 1.425 . S
C468 C475 1.409 . S
C469 H461 0.930 . S
C469 C467 1.419 . S
C469 C470 1.362 . S
C470 H462 0.930 . S
C470 C469 1.362 . S
C470 C473 1.409 . S
C471 H463 0.930 . S
C471 C472 1.355 . S
C471 C473 1.415 . S
C472 C471 1.355 . S
C472 C474 1.419 . S
C473 C468 1.425 . S
C473 C470 1.409 . S
C473 C471 1.415 . S
C474 H464 0.930 . S
C474 C472 1.419 . S
C474 C475 1.362 . S
C475 H465 0.930 . S
C475 C468 1.409 . S
C475 C474 1.362 . S
H476 C482 0.930 . S
H477 C485 0.930 . S
H478 C486 0.930 . S
H479 C487 0.930 . S
H480 C490 0.930 . S
H481 C491 0.930 . S
C482 H476 0.930 . S
C482 C483 1.355 . S
C482 C484 1.415 . S
C483 C482 1.355 . S
C483 C485 1.419 . S
C484 C482 1.415 . S
C484 C489 1.425 . S
C484 C491 1.409 . S
C485 H477 0.930 . S
C485 C483 1.419 . S
C485 C486 1.362 . S
C486 H478 0.930 . S
C486 C485 1.362 . S
C486 C489 1.409 . S
C487 H479 0.930 . S
C487 C488 1.355 . S
C487 C489 1.415 . S
C488 C487 1.355 . S
C488 C490 1.419 . S
C489 C484 1.425 . S
C489 C486 1.409 . S
C489 C487 1.415 . S
C490 H480 0.930 . S
C490 C488 1.419 . S
C490 C491 1.362 . S
C491 H481 0.930 . S
C491 C484 1.409 . S
C491 C490 1.362 . S
H492 C498 0.930 . S
H493 C501 0.930 . S
H494 C502 0.930 . S
H495 C503 0.930 . S
H496 C506 0.930 . S
H497 C507 0.930 . S
C498 H492 0.930 . S
C498 C499 1.355 . S
C498 C500 1.415 . S
C499 C498 1.355 . S
C499 C501 1.419 . S
C500 C498 1.415 . S
C500 C505 1.425 . S
C500 C507 1.409 . S
C501 H493 0.930 . S
C501 C499 1.419 . S
C501 C502 1.362 . S
C502 H494 0.930 . S
C502 C501 1.362 . S
C502 C505 1.409 . S
C503 H495 0.930 . S
C503 C504 1.355 . S
C503 C505 1.415 . S
C504 C503 1.355 . S
C504 C506 1.419 . S
C505 C500 1.425 . S
C505 C502 1.409 . S
C505 C503 1.415 . S
C506 H496 0.930 . S
C506 C504 1.419 . S
C506 C507 1.362 . S
C507 H497 0.930 . S
C507 C500 1.409 . S
C507 C506 1.362 . S
H508 C514 0.930 . S
H509 C517 0.930 . S
H510 C518 0.930 . S
H511 C519 0.930 . S
H512 C522 0.930 . S
H513 C523 0.930 . S
C514 H508 0.930 . S
C514 C515 1.355 . S
C514 C516 1.415 . S
C515 C514 1.355 . S
C515 C517 1.419 . S
C516 C514 1.415 . S
C516 C521 1.425 . S
C516 C523 1.409 . S
C517 H509 0.930 . S
C517 C515 1.419 . S
C517 C518 1.362 . S
C518 H510 0.930 . S
C518 C517 1.362 . S
C518 C521 1.409 . S
C519 H511 0.930 . S
C519 C520 1.355 . S
C519 C521 1.415 . S
C520 C519 1.355 . S
C520 C522 1.419 . S
C521 C516 1.425 . S
C521 C518 1.409 . S
C521 C519 1.415 . S
C522 H512 0.930 . S
C522 C520 1.419 . S
C522 C523 1.362 . S
C523 H513 0.930 . S
C523 C516 1.409 . S
C523 C522 1.362 . S
H524 C530 0.930 . S
H525 C533 0.930 . S
H526 C534 0.930 . S
H527 C535 0.930 . S
H528 C538 0.930 . S
H529 C539 0.930 . S
C530 H524 0.930 . S
C530 C531 1.355 . S
C530 C532 1.415 . S
C531 C530 1.355 . S
C531 C533 1.419 . S
C532 C530 1.415 . S
C532 C537 1.425 . S
C532 C539 1.409 . S
C533 H525 0.930 . S
C533 C531 1.419 . S
C533 C534 1.362 . S
C534 H526 0.930 . S
C534 C533 1.362 . S
C534 C537 1.409 . S
C535 H527 0.930 . S
C535 C536 1.355 . S
C535 C537 1.415 . S
C536 C535 1.355 . S
C536 C538 1.419 . S
C537 C532 1.425 . S
C537 C534 1.409 . S
C537 C535 1.415 . S
C538 H528 0.930 . S
C538 C536 1.419 . S
C538 C539 1.362 . S
C539 H529 0.930 . S
C539 C532 1.409 . S
C539 C538 1.362 . S
H540 C546 0.930 . S
H541 C549 0.930 . S
H542 C550 0.930 . S
H543 C551 0.930 . S
H544 C554 0.930 . S
H545 C555 0.930 . S
C546 H540 0.930 . S
C546 C547 1.355 . S
C546 C548 1.415 . S
C547 C546 1.355 . S
C547 C549 1.419 . S
C548 C546 1.415 . S
C548 C553 1.425 . S
C548 C555 1.409 . S
C549 H541 0.930 . S
C549 C547 1.419 . S
C549 C550 1.362 . S
C550 H542 0.930 . S
C550 C549 1.362 . S
C550 C553 1.409 . S
C551 H543 0.930 . S
C551 C552 1.355 . S
C551 C553 1.415 . S
C552 C551 1.355 . S
C552 C554 1.419 . S
C553 C548 1.425 . S
C553 C550 1.409 . S
C553 C551 1.415 . S
C554 H544 0.930 . S
C554 C552 1.419 . S
C554 C555 1.362 . S
C555 H545 0.930 . S
C555 C548 1.409 . S
C555 C554 1.362 . S
H556 C562 0.930 . S
H557 C565 0.930 . S
H558 C566 0.930 . S
H559 C567 0.930 . S
H560 C570 0.930 . S
H561 C571 0.930 . S
C562 H556 0.930 . S
C562 C563 1.355 . S
C562 C564 1.415 1_554 S
C563 C562 1.355 . S
C563 C565 1.419 . S
C564 C562 1.415 1_556 S
C564 C569 1.425 . S
C564 C571 1.409 . S
C565 H557 0.930 . S
C565 C563 1.419 . S
C565 C566 1.362 1_554 S
C566 H558 0.930 . S
C566 C565 1.362 1_556 S
C566 C569 1.409 . S
C567 H559 0.930 . S
C567 C568 1.355 . S
C567 C569 1.415 . S
C568 C567 1.355 . S
C568 C570 1.419 . S
C569 C564 1.425 . S
C569 C566 1.409 . S
C569 C567 1.415 . S
C570 H560 0.930 . S
C570 C568 1.419 . S
C570 C571 1.362 . S
C571 H561 0.930 . S
C571 C564 1.409 . S
C571 C570 1.362 . S
H572 C578 0.930 . S
H573 C581 0.930 . S
H574 C582 0.930 . S
H575 C583 0.930 . S
H576 C586 0.930 . S
H577 C587 0.930 . S
C578 H572 0.930 . S
C578 C579 1.355 . S
C578 C580 1.415 1_556 S
C579 C578 1.355 . S
C579 C581 1.419 . S
C580 C578 1.415 1_554 S
C580 C585 1.425 . S
C580 C587 1.409 . S
C581 H573 0.930 . S
C581 C579 1.419 . S
C581 C582 1.362 1_556 S
C582 H574 0.930 . S
C582 C581 1.362 1_554 S
C582 C585 1.409 . S
C583 H575 0.930 . S
C583 C584 1.355 . S
C583 C585 1.415 . S
C584 C583 1.355 . S
C584 C586 1.419 . S
C585 C580 1.425 . S
C585 C582 1.409 . S
C585 C583 1.415 . S
C586 H576 0.930 . S
C586 C584 1.419 . S
C586 C587 1.362 . S
C587 H577 0.930 . S
C587 C580 1.409 . S
C587 C586 1.362 . S
H588 C594 0.930 . S
H589 C597 0.930 . S
H590 C598 0.930 . S
H591 C599 0.930 1_554 S
H592 C602 0.930 . S
H593 C603 0.930 . S
C594 H588 0.930 . S
C594 C595 1.355 . S
C594 C596 1.415 . S
C595 C594 1.355 . S
C595 C597 1.419 . S
C596 C594 1.415 . S
C596 C601 1.425 . S
C596 C603 1.409 . S
C597 H589 0.930 . S
C597 C595 1.419 . S
C597 C598 1.362 . S
C598 H590 0.930 . S
C598 C597 1.362 . S
C598 C601 1.409 . S
C599 H591 0.930 1_556 S
C599 C600 1.355 . S
C599 C601 1.415 . S
C600 C599 1.355 . S
C600 C602 1.419 . S
C601 C596 1.425 . S
C601 C598 1.409 . S
C601 C599 1.415 . S
C602 H592 0.930 . S
C602 C600 1.419 . S
C602 C603 1.362 . S
C603 H593 0.930 . S
C603 C596 1.409 . S
C603 C602 1.362 . S
H604 C610 0.930 . S
H605 C613 0.930 . S
H606 C614 0.930 1_556 S
H607 C615 0.930 . S
H608 C618 0.930 . S
H609 C619 0.930 . S
C610 H604 0.930 . S
C610 C611 1.355 . S
C610 C612 1.415 . S
C611 C610 1.355 . S
C611 C613 1.419 . S
C612 C610 1.415 . S
C612 C617 1.425 . S
C612 C619 1.409 . S
C613 H605 0.930 . S
C613 C611 1.419 . S
C613 C614 1.362 . S
C614 H606 0.930 1_554 S
C614 C613 1.362 . S
C614 C617 1.409 . S
C615 H607 0.930 . S
C615 C616 1.355 1_556 S
C615 C617 1.415 1_556 S
C616 C615 1.355 1_554 S
C616 C618 1.419 . S
C617 C612 1.425 . S
C617 C614 1.409 . S
C617 C615 1.415 1_554 S
C618 H608 0.930 . S
C618 C616 1.419 . S
C618 C619 1.362 . S
C619 H609 0.930 . S
C619 C612 1.409 . S
C619 C618 1.362 . S
H620 C626 0.930 . S
H621 C629 0.930 . S
H622 C630 0.930 . S
H623 C631 0.930 . S
H624 C634 0.930 . S
H625 C635 0.930 . S
C626 H620 0.930 . S
C626 C627 1.355 . S
C626 C628 1.415 . S
C627 C626 1.355 . S
C627 C629 1.419 . S
C628 C626 1.415 . S
C628 C633 1.425 . S
C628 C635 1.409 . S
C629 H621 0.930 . S
C629 C627 1.419 . S
C629 C630 1.362 . S
C630 H622 0.930 . S
C630 C629 1.362 . S
C630 C633 1.409 . S
C631 H623 0.930 . S
C631 C632 1.355 . S
C631 C633 1.415 . S
C632 C631 1.355 . S
C632 C634 1.419 . S
C633 C628 1.425 . S
C633 C630 1.409 . S
C633 C631 1.415 . S
C634 H624 0.930 . S
C634 C632 1.419 . S
C634 C635 1.362 . S
C635 H625 0.930 . S
C635 C628 1.409 . S
C635 C634 1.362 . S
H636 C642 0.930 . S
H637 C645 0.930 . S
H638 C646 0.930 . S
H639 C647 0.930 . S
H640 C650 0.930 . S
H641 C651 0.930 . S
C642 H636 0.930 . S
C642 C643 1.355 . S
C642 C644 1.415 . S
C643 C642 1.355 . S
C643 C645 1.419 . S
C644 C642 1.415 . S
C644 C649 1.425 . S
C644 C651 1.409 . S
C645 H637 0.930 . S
C645 C643 1.419 . S
C645 C646 1.362 . S
C646 H638 0.930 . S
C646 C645 1.362 . S
C646 C649 1.409 . S
C647 H639 0.930 . S
C647 C648 1.355 . S
C647 C649 1.415 . S
C648 C647 1.355 . S
C648 C650 1.419 . S
C649 C644 1.425 . S
C649 C646 1.409 . S
C649 C647 1.415 . S
C650 H640 0.930 . S
C650 C648 1.419 . S
C650 C651 1.362 . S
C651 H641 0.930 . S
C651 C644 1.409 . S
C651 C650 1.362 . S
H652 C658 0.930 . S
H653 C661 0.930 . S
H654 C662 0.930 . S
H655 C663 0.930 . S
H656 C666 0.930 . S
H657 C667 0.930 . S
C658 H652 0.930 . S
C658 C659 1.355 . S
C658 C660 1.415 . S
C659 C658 1.355 . S
C659 C661 1.419 . S
C660 C658 1.415 . S
C660 C665 1.425 . S
C660 C667 1.409 . S
C661 H653 0.930 . S
C661 C659 1.419 . S
C661 C662 1.362 . S
C662 H654 0.930 . S
C662 C661 1.362 . S
C662 C665 1.409 . S
C663 H655 0.930 . S
C663 C664 1.355 . S
C663 C665 1.415 . S
C664 C663 1.355 . S
C664 C666 1.419 . S
C665 C660 1.425 . S
C665 C662 1.409 . S
C665 C663 1.415 . S
C666 H656 0.930 . S
C666 C664 1.419 . S
C666 C667 1.362 . S
C667 H657 0.930 . S
C667 C660 1.409 . S
C667 C666 1.362 . S
H668 C674 0.930 . S
H669 C677 0.930 . S
H670 C678 0.930 . S
H671 C679 0.930 . S
H672 C682 0.930 . S
H673 C683 0.930 . S
C674 H668 0.930 . S
C674 C675 1.355 . S
C674 C676 1.415 . S
C675 C674 1.355 . S
C675 C677 1.419 . S
C676 C674 1.415 . S
C676 C681 1.425 . S
C676 C683 1.409 . S
C677 H669 0.930 . S
C677 C675 1.419 . S
C677 C678 1.362 . S
C678 H670 0.930 . S
C678 C677 1.362 . S
C678 C681 1.409 . S
C679 H671 0.930 . S
C679 C680 1.355 . S
C679 C681 1.415 . S
C680 C679 1.355 . S
C680 C682 1.419 . S
C681 C676 1.425 . S
C681 C678 1.409 . S
C681 C679 1.415 . S
C682 H672 0.930 . S
C682 C680 1.419 . S
C682 C683 1.362 . S
C683 H673 0.930 . S
C683 C676 1.409 . S
C683 C682 1.362 . S
H684 C690 0.930 . S
H685 C693 0.930 . S
H686 C694 0.930 . S
H687 C695 0.930 . S
H688 C698 0.930 . S
H689 C699 0.930 . S
C690 H684 0.930 . S
C690 C691 1.355 . S
C690 C692 1.415 . S
C691 C690 1.355 . S
C691 C693 1.419 . S
C692 C690 1.415 . S
C692 C697 1.425 . S
C692 C699 1.409 . S
C693 H685 0.930 . S
C693 C691 1.419 . S
C693 C694 1.362 . S
C694 H686 0.930 . S
C694 C693 1.362 . S
C694 C697 1.409 . S
C695 H687 0.930 . S
C695 C696 1.355 . S
C695 C697 1.415 . S
C696 C695 1.355 . S
C696 C698 1.419 . S
C697 C692 1.425 . S
C697 C694 1.409 . S
C697 C695 1.415 . S
C698 H688 0.930 . S
C698 C696 1.419 . S
C698 C699 1.362 . S
C699 H689 0.930 . S
C699 C692 1.409 . S
C699 C698 1.362 . S
H700 C706 0.930 . S
H701 C709 0.930 . S
H702 C710 0.930 . S
H703 C711 0.930 . S
H704 C714 0.930 . S
H705 C715 0.930 . S
C706 H700 0.930 . S
C706 C707 1.355 . S
C706 C708 1.415 . S
C707 C706 1.355 . S
C707 C709 1.419 . S
C708 C706 1.415 . S
C708 C713 1.425 . S
C708 C715 1.409 . S
C709 H701 0.930 . S
C709 C707 1.419 . S
C709 C710 1.362 . S
C710 H702 0.930 . S
C710 C709 1.362 . S
C710 C713 1.409 . S
C711 H703 0.930 . S
C711 C712 1.355 . S
C711 C713 1.415 . S
C712 C711 1.355 . S
C712 C714 1.419 . S
C713 C708 1.425 . S
C713 C710 1.409 . S
C713 C711 1.415 . S
C714 H704 0.930 . S
C714 C712 1.419 . S
C714 C715 1.362 . S
C715 H705 0.930 . S
C715 C708 1.409 . S
C715 C714 1.362 . S
H716 C722 0.930 . S
H717 C725 0.930 . S
H718 C726 0.930 . S
H719 C727 0.930 . S
H720 C730 0.930 . S
H721 C731 0.930 . S
C722 H716 0.930 . S
C722 C723 1.355 . S
C722 C724 1.415 . S
C723 C722 1.355 . S
C723 C725 1.419 . S
C724 C722 1.415 . S
C724 C729 1.425 . S
C724 C731 1.409 . S
C725 H717 0.930 . S
C725 C723 1.419 . S
C725 C726 1.362 . S
C726 H718 0.930 . S
C726 C725 1.362 . S
C726 C729 1.409 . S
C727 H719 0.930 . S
C727 C728 1.355 . S
C727 C729 1.415 . S
C728 C727 1.355 . S
C728 C730 1.419 . S
C729 C724 1.425 . S
C729 C726 1.409 . S
C729 C727 1.415 . S
C730 H720 0.930 . S
C730 C728 1.419 . S
C730 C731 1.362 . S
C731 H721 0.930 . S
C731 C724 1.409 . S
C731 C730 1.362 . S
H732 C738 0.930 . S
H733 C741 0.930 . S
H734 C742 0.930 . S
H735 C743 0.930 . S
H736 C746 0.930 . S
H737 C747 0.930 . S
C738 H732 0.930 . S
C738 C739 1.355 . S
C738 C740 1.415 . S
C739 C738 1.355 . S
C739 C741 1.419 . S
C740 C738 1.415 . S
C740 C745 1.425 . S
C740 C747 1.409 . S
C741 H733 0.930 . S
C741 C739 1.419 . S
C741 C742 1.362 . S
C742 H734 0.930 . S
C742 C741 1.362 . S
C742 C745 1.409 . S
C743 H735 0.930 . S
C743 C744 1.355 . S
C743 C745 1.415 . S
C744 C743 1.355 . S
C744 C746 1.419 . S
C745 C740 1.425 . S
C745 C742 1.409 . S
C745 C743 1.415 . S
C746 H736 0.930 . S
C746 C744 1.419 . S
C746 C747 1.362 . S
C747 H737 0.930 . S
C747 C740 1.409 . S
C747 C746 1.362 . S
H748 C754 0.926 1_554 S
H749 C757 0.930 . S
H750 C758 0.930 . S
H751 C759 0.930 . S
H752 C762 0.930 . S
H753 C763 0.930 . S
C754 H748 0.926 1_556 S
C754 C755 1.355 . S
C754 C756 1.418 . S
C755 C754 1.355 . S
C755 C757 1.419 . S
C756 C754 1.418 . S
C756 C761 1.425 . S
C756 C763 1.409 . S
C757 H749 0.930 . S
C757 C755 1.419 . S
C757 C758 1.362 . S
C758 H750 0.930 . S
C758 C757 1.362 . S
C758 C761 1.409 . S
C759 H751 0.930 . S
C759 C760 1.355 . S
C759 C761 1.415 . S
C760 C759 1.355 . S
C760 C762 1.419 . S
C761 C756 1.425 . S
C761 C758 1.409 . S
C761 C759 1.415 . S
C762 H752 0.930 . S
C762 C760 1.419 . S
C762 C763 1.362 . S
C763 H753 0.930 . S
C763 C756 1.409 . S
C763 C762 1.362 . S
H764 C770 0.930 . S
H765 C773 0.930 . S
H766 C774 0.930 . S
H767 C775 0.930 1_556 S
H768 C778 0.930 . S
H769 C779 0.930 . S
C770 H764 0.930 . S
C770 C771 1.355 . S
C770 C772 1.415 . S
C771 C770 1.355 . S
C771 C773 1.419 . S
C772 C770 1.415 . S
C772 C777 1.425 . S
C772 C779 1.409 . S
C773 H765 0.930 . S
C773 C771 1.419 . S
C773 C774 1.362 . S
C774 H766 0.930 . S
C774 C773 1.362 . S
C774 C777 1.409 . S
C775 H767 0.930 1_554 S
C775 C776 1.355 . S
C775 C777 1.415 . S
C776 C775 1.355 . S
C776 C778 1.419 . S
C777 C772 1.425 . S
C777 C774 1.409 . S
C777 C775 1.415 . S
C778 H768 0.930 . S
C778 C776 1.419 . S
C778 C779 1.362 . S
C779 H769 0.930 . S
C779 C772 1.409 . S
C779 C778 1.362 . S
H780 C786 0.930 . S
H781 C789 0.930 . S
H782 C790 0.930 . S
H783 C791 0.930 . S
H784 C794 0.930 . S
H785 C795 0.930 . S
C786 H780 0.930 . S
C786 C787 1.355 . S
C786 C788 1.415 . S
C787 C786 1.355 . S
C787 C789 1.419 . S
C788 C786 1.415 . S
C788 C793 1.425 . S
C788 C795 1.409 . S
C789 H781 0.930 . S
C789 C787 1.419 . S
C789 C790 1.362 . S
C790 H782 0.930 . S
C790 C789 1.362 . S
C790 C793 1.409 . S
C791 H783 0.930 . S
C791 C792 1.355 . S
C791 C793 1.415 . S
C792 C791 1.355 . S
C792 C794 1.419 . S
C793 C788 1.425 . S
C793 C790 1.409 . S
C793 C791 1.415 . S
C794 H784 0.930 . S
C794 C792 1.419 . S
C794 C795 1.362 . S
C795 H785 0.930 . S
C795 C788 1.409 . S
C795 C794 1.362 . S
H796 C802 0.930 . S
H797 C805 0.930 . S
H798 C806 0.930 . S
H799 C807 0.930 . S
H800 C810 0.930 . S
H801 C811 0.930 . S
C802 H796 0.930 . S
C802 C803 1.355 . S
C802 C804 1.415 . S
C803 C802 1.355 . S
C803 C805 1.419 . S
C804 C802 1.415 . S
C804 C809 1.425 1_655 S
C804 C811 1.409 1_655 S
C805 H797 0.930 . S
C805 C803 1.419 . S
C805 C806 1.362 . S
C806 H798 0.930 . S
C806 C805 1.362 . S
C806 C809 1.409 1_655 S
C807 H799 0.930 . S
C807 C808 1.355 . S
C807 C809 1.415 . S
C808 C807 1.355 . S
C808 C810 1.419 . S
C809 C804 1.425 1_455 S
C809 C806 1.409 1_455 S
C809 C807 1.415 . S
C810 H800 0.930 . S
C810 C808 1.419 . S
C810 C811 1.362 . S
C811 H801 0.930 . S
C811 C804 1.409 1_455 S
C811 C810 1.362 . S
H812 C818 0.930 . S
H813 C821 0.930 . S
H814 C822 0.931 . S
H815 C823 0.930 . S
H816 C826 0.930 . S
H817 C827 0.931 . S
C818 H812 0.930 . S
C818 C819 1.355 . S
C818 C820 1.415 . S
C819 C818 1.355 . S
C819 C821 1.419 . S
C820 C818 1.415 . S
C820 C825 1.425 1_545 S
C820 C827 1.409 1_545 S
C821 H813 0.930 . S
C821 C819 1.419 . S
C821 C822 1.362 . S
C822 H814 0.931 . S
C822 C821 1.362 . S
C822 C825 1.409 1_545 S
C823 H815 0.930 . S
C823 C824 1.355 . S
C823 C825 1.415 . S
C824 C823 1.355 . S
C824 C826 1.419 . S
C825 C820 1.425 1_565 S
C825 C822 1.409 1_565 S
C825 C823 1.415 . S
C826 H816 0.930 . S
C826 C824 1.419 . S
C826 C827 1.362 . S
C827 H817 0.931 . S
C827 C820 1.409 1_565 S
C827 C826 1.362 . S
H828 C834 0.930 . S
H829 C837 0.930 . S
H830 C838 0.930 . S
H831 C839 0.930 . S
H832 C842 0.930 . S
H833 C843 0.930 . S
C834 H828 0.930 . S
C834 C835 1.355 . S
C834 C836 1.415 . S
C835 C834 1.355 . S
C835 C837 1.419 . S
C836 C834 1.415 . S
C836 C841 1.425 . S
C836 C843 1.409 . S
C837 H829 0.930 . S
C837 C835 1.419 . S
C837 C838 1.362 . S
C838 H830 0.930 . S
C838 C837 1.362 . S
C838 C841 1.409 . S
C839 H831 0.930 . S
C839 C840 1.355 . S
C839 C841 1.415 . S
C840 C839 1.355 . S
C840 C842 1.419 . S
C841 C836 1.425 . S
C841 C838 1.409 . S
C841 C839 1.415 . S
C842 H832 0.930 . S
C842 C840 1.419 . S
C842 C843 1.362 . S
C843 H833 0.930 . S
C843 C836 1.409 . S
C843 C842 1.362 . S
H844 C850 0.930 . S
H845 C853 0.930 . S
H846 C854 0.930 . S
H847 C855 0.930 . S
H848 C858 0.930 . S
H849 C859 0.930 . S
C850 H844 0.930 . S
C850 C851 1.355 . S
C850 C852 1.415 . S
C851 C850 1.355 . S
C851 C853 1.419 . S
C852 C850 1.415 . S
C852 C857 1.425 1_455 S
C852 C859 1.409 1_455 S
C853 H845 0.930 . S
C853 C851 1.419 . S
C853 C854 1.362 . S
C854 H846 0.930 . S
C854 C853 1.362 . S
C854 C857 1.409 1_455 S
C855 H847 0.930 . S
C855 C856 1.355 . S
C855 C857 1.415 . S
C856 C855 1.355 . S
C856 C858 1.419 . S
C857 C852 1.425 1_655 S
C857 C854 1.409 1_655 S
C857 C855 1.415 . S
C858 H848 0.930 . S
C858 C856 1.419 . S
C858 C859 1.362 . S
C859 H849 0.930 . S
C859 C852 1.409 1_655 S
C859 C858 1.362 . S
H860 C866 0.930 . S
H861 C869 0.930 . S
H862 C870 0.930 . S
H863 C871 0.930 . S
H864 C874 0.930 . S
H865 C875 0.930 . S
C866 H860 0.930 . S
C866 C867 1.355 . S
C866 C868 1.415 . S
C867 C866 1.355 . S
C867 C869 1.419 1_556 S
C868 C866 1.415 . S
C868 C873 1.425 1_546 S
C868 C875 1.409 1_545 S
C869 H861 0.930 . S
C869 C867 1.419 1_554 S
C869 C870 1.362 . S
C870 H862 0.930 . S
C870 C869 1.362 . S
C870 C873 1.409 1_545 S
C871 H863 0.930 . S
C871 C872 1.355 . S
C871 C873 1.415 . S
C872 C871 1.355 . S
C872 C874 1.419 1_554 S
C873 C868 1.425 1_564 S
C873 C870 1.409 1_565 S
C873 C871 1.415 . S
C874 H864 0.930 . S
C874 C872 1.419 1_556 S
C874 C875 1.362 . S
C875 H865 0.930 . S
C875 C868 1.409 1_565 S
C875 C874 1.362 . S
C403 N5 1.311 . S
C408 N14 1.310 . S
C419 N47 1.309 . S
C424 N38 1.314 . S
C435 N80 1.308 . S
C440 N71 1.310 . S
C451 N104 1.312 . S
C456 N113 1.314 . S
C467 N137 1.317 . S
C472 N146 1.320 . S
C483 N179 1.308 . S
C488 N170 1.313 . S
C499 N203 1.318 . S
C504 N212 1.321 . S
C515 N236 1.316 . S
C520 N245 1.312 . S
C531 N278 1.308 . S
C536 N269 1.310 . S
C547 N302 1.316 . S
C552 N311 1.319 . S
C563 N335 1.316 . S
C568 N344 1.312 . S
C579 N377 1.314 . S
C584 N368 1.312 . S
C595 C206 1.503 . S
C600 C8 1.522 1_556 S
C611 C41 1.506 . S
C616 C239 1.515 1_554 S
C627 C272 1.525 . S
C632 C74 1.502 . S
C643 C305 1.510 . S
C648 C107 1.542 . S
C659 C338 1.510 . S
C664 C140 1.509 . S
C675 C371 1.521 . S
C680 C173 1.503 . S
C691 C28 1.152 . S
C696 C358 1.159 . S
C707 C61 1.148 . S
C712 C391 1.177 . S
C723 C94 1.149 . S
C728 C226 1.181 . S
C739 C259 1.191 . S
C744 C127 1.207 . S
C755 C292 1.170 1_556 S
C760 C160 1.148 . S
C771 C325 1.177 . S
C776 C193 1.149 1_554 S
C787 C17 1.496 . S
C792 C314 1.534 . S
C803 C50 1.544 . S
C808 C347 1.511 . S
C819 C380 1.509 . S
C824 C83 1.544 . S
C835 C116 1.543 . S
C840 C215 1.509 . S
C851 C149 1.495 . S
C856 C248 1.525 . S
C867 C182 1.516 . S
C872 C281 1.497 . S
