# Generated by pormake.
# Topology qtz-e, (6)-cn, num edge types: 1
# Building blocks:
#     Node 0, Type 0, BuildingBlock: KUMBUR_clean_sbu_0, # of connection points: 6
#     Node 1, Type 0, BuildingBlock: KUMBUR_clean_sbu_0, # of connection points: 6
#     Node 2, Type 0, BuildingBlock: KUMBUR_clean_sbu_0, # of connection points: 6
#     Node 3, Type 0, BuildingBlock: KUMBUR_clean_sbu_0, # of connection points: 6
#     Node 4, Type 0, BuildingBlock: KUMBUR_clean_sbu_0, # of connection points: 6
#     Node 5, Type 0, BuildingBlock: KUMBUR_clean_sbu_0, # of connection points: 6
#     Edge 6, Type (0, 0), BuildingBlock: XIVTED_clean_linker_0, # of connection points: 2
#     Edge 7, Type (0, 0), BuildingBlock: XIVTED_clean_linker_0, # of connection points: 2
#     Edge 8, Type (0, 0), BuildingBlock: XIVTED_clean_linker_0, # of connection points: 2
#     Edge 9, Type (0, 0), BuildingBlock: XIVTED_clean_linker_0, # of connection points: 2
#     Edge 10, Type (0, 0), BuildingBlock: XIVTED_clean_linker_0, # of connection points: 2
#     Edge 11, Type (0, 0), BuildingBlock: XIVTED_clean_linker_0, # of connection points: 2
#     Edge 12, Type (0, 0), BuildingBlock: XIVTED_clean_linker_0, # of connection points: 2
#     Edge 13, Type (0, 0), BuildingBlock: XIVTED_clean_linker_0, # of connection points: 2
#     Edge 14, Type (0, 0), BuildingBlock: XIVTED_clean_linker_0, # of connection points: 2
#     Edge 15, Type (0, 0), BuildingBlock: XIVTED_clean_linker_0, # of connection points: 2
#     Edge 16, Type (0, 0), BuildingBlock: XIVTED_clean_linker_0, # of connection points: 2
#     Edge 17, Type (0, 0), BuildingBlock: XIVTED_clean_linker_0, # of connection points: 2
#     Edge 18, Type (0, 0), BuildingBlock: XIVTED_clean_linker_0, # of connection points: 2
#     Edge 19, Type (0, 0), BuildingBlock: XIVTED_clean_linker_0, # of connection points: 2
#     Edge 20, Type (0, 0), BuildingBlock: XIVTED_clean_linker_0, # of connection points: 2
#     Edge 21, Type (0, 0), BuildingBlock: XIVTED_clean_linker_0, # of connection points: 2
#     Edge 22, Type (0, 0), BuildingBlock: XIVTED_clean_linker_0, # of connection points: 2
#     Edge 23, Type (0, 0), BuildingBlock: XIVTED_clean_linker_0, # of connection points: 2
# Relax obj value: 0.058
# Max RMSD: 0.144
# Mean RMSD: 0.144
data_MOF--net-qtz-e--node1-KUMBUR_clean_sbu_0--edge1-XIVTED_clean_linker_0
_symmetry_space_group_name_H-M    P1
_symmetry_Int_Tables_number       1
_symmetry_cell_setting            triclinic
loop_
_symmetry_equiv_pos_as_xyz
'x, y, z'
_cell_length_a     29.473359
_cell_length_b     29.533956
_cell_length_c     46.377674
_cell_angle_alpha  90.108604
_cell_angle_beta   90.099816
_cell_angle_gamma 119.79711
loop_
_atom_site_label
_atom_site_type_symbol
_atom_site_fract_x
_atom_site_fract_y
_atom_site_fract_z
_atom_type_partial_charge
Tb0 Tb 0.26128 0.50958 0.04433 0.0
C1 C 0.09153 0.27982 0.02438 0.0
C2 C 0.1059 0.23674 0.06467 0.0
C3 C 0.01926 0.19978 0.04332 0.0
C4 C 0.12455 0.27797 0.04464 0.0
C5 C 0.03868 0.24027 0.02297 0.0
C6 C 0.05284 0.19808 0.0642 0.0
C7 C 0.02948 0.28191 0.98035 0.0
N8 N 0.11194 0.31945 1.00523 0.0
C9 C 0.08225 0.32007 0.98268 0.0
C10 C 1.0074 0.24207 1.00078 0.0
Tb11 Tb 0.19832 0.381 1.01057 0.0
N12 N 0.17537 0.31608 0.04422 0.0
C13 C 0.21052 0.31342 0.06247 0.0
C14 C 0.14128 0.23526 0.08421 0.0
C15 C 0.19393 0.27352 0.08291 0.0
H16 H 0.099 0.35081 0.96682 0.0
H17 H 0.22182 0.2724 0.09768 0.0
H18 H 0.03764 0.16627 0.07953 0.0
H19 H 1.00593 0.28321 0.96279 0.0
H20 H 0.25131 0.34263 0.06214 0.0
H21 H 0.27295 0.65093 0.96609 0.0
H22 H 0.12855 0.20438 0.10003 0.0
H23 H 0.34834 0.51957 0.09321 0.0
H24 H 0.22846 0.57374 0.99707 0.0
H25 H 0.44259 0.57545 0.10255 0.0
H26 H 0.97866 0.16919 0.04278 0.0
H27 H 0.36939 0.70451 0.96682 0.0
H28 H 0.45457 0.72349 0.98956 0.0
H29 H 0.96658 0.21243 0.9989 0.0
H30 H 0.5009 0.70347 0.02723 0.0
N31 N 0.29885 0.58073 1.01421 0.0
C32 C 0.27054 0.59602 0.99749 0.0
C33 C 0.35006 0.67018 0.98032 0.0
C34 C 0.37865 0.65706 0.99926 0.0
C35 C 0.29565 0.64014 0.97991 0.0
C36 C 0.35149 0.61195 0.01635 0.0
H37 H 0.49659 0.64879 0.06985 0.0
N38 N 0.34878 0.55957 0.05492 0.0
C39 C 0.42479 0.58302 0.08412 0.0
C40 C 0.37735 0.60142 0.03775 0.0
C41 C 0.37125 0.55138 0.07873 0.0
C42 C 0.45517 0.6243 0.06558 0.0
C43 C 0.43134 0.63458 0.04235 0.0
O44 O 0.25983 0.53201 0.08726 0.0
O45 O 0.2073 0.42646 0.04901 0.0
O46 O 0.13651 0.40231 0.01876 0.0
O47 O 0.18701 0.49335 0.02482 0.0
O48 O 0.25575 0.46311 0.08249 0.0
O49 O 0.22916 0.55789 0.05276 0.0
O50 O 0.19692 0.36108 0.96664 0.0
O51 O 0.24655 0.46376 1.00567 0.0
O52 O 0.32323 0.49671 0.02902 0.0
O53 O 0.27983 0.40581 0.02533 0.0
O54 O 0.1945 0.42297 0.97297 0.0
O55 O 0.23821 0.3414 0.99754 0.0
C56 C 0.21719 0.41911 0.0745 0.0
C57 C 0.27698 0.61837 0.08991 0.0
C58 C 0.31751 0.679 0.13018 0.0
C59 C 0.28123 0.62902 0.11958 0.0
C60 C 0.35071 0.71743 0.11042 0.0
C61 C 0.30753 0.6588 0.07067 0.0
C62 C 0.34493 0.70758 0.0809 0.0
C63 C 0.14193 0.45006 0.02012 0.0
C64 C 0.2439 0.56427 0.07968 0.0
C65 C 0.45929 0.67771 0.02422 0.0
C66 C 0.43294 0.689 1.00272 0.0
C67 C 0.23081 0.46821 0.98108 0.0
C68 C 0.20971 0.29023 0.95433 0.0
C69 C 0.23781 0.28941 0.92958 0.0
C70 C 0.22269 0.24213 0.91439 0.0
C71 C 0.17842 0.19647 0.92423 0.0
C72 C 0.16605 0.24385 0.96336 0.0
C73 C 0.15052 0.19744 0.94834 0.0
C74 C 0.32318 0.45223 0.02717 0.0
C75 C 0.22563 0.33952 0.9704 0.0
H76 H 0.25559 0.5983 0.13412 0.0
H77 H 0.38082 0.75555 0.11759 0.0
H78 H 0.30319 0.65296 0.04774 0.0
H79 H 0.36952 0.73791 0.06587 0.0
H80 H 0.27173 0.32515 0.92254 0.0
H81 H 0.1649 0.15971 0.91306 0.0
H82 H 0.14389 0.24356 0.98203 0.0
H83 H 0.11657 0.16185 0.95544 0.0
Tb84 Tb 0.75912 0.25265 0.38388 0.0
C85 C 0.81788 0.08908 0.35307 0.0
C86 C 0.87678 0.09914 0.39203 0.0
C87 C 0.82404 0.01422 0.36945 0.0
C88 C 0.85401 0.12008 0.37348 0.0
C89 C 0.80348 0.03612 0.35016 0.0
C90 C 0.86059 0.0457 0.39041 0.0
C91 C 0.75422 0.03222 0.30759 0.0
N92 N 0.79951 0.1119 0.33475 0.0
C93 C 0.77 0.08505 0.31132 0.0
C94 C 0.7704 0.0074 0.32736 0.0
Tb95 Tb 0.82568 0.19776 0.34321 0.0
N96 N 0.86904 0.17151 0.37397 0.0
C97 C 0.90959 0.20509 0.39126 0.0
C98 C 0.91626 0.13286 0.41095 0.0
C99 C 0.93331 0.18621 0.41022 0.0
H100 H 0.75731 0.1041 0.29604 0.0
H101 H 0.96452 0.21281 0.42436 0.0
H102 H 0.87723 0.02871 0.40467 0.0
H103 H 0.72971 0.01074 0.28947 0.0
H104 H 0.92294 0.24634 0.3912 0.0
H105 H 0.62245 0.26985 0.31275 0.0
H106 H 0.93473 0.11835 0.42562 0.0
H107 H 0.83468 0.33256 0.43603 0.0
H108 H 0.66123 0.22421 0.33775 0.0
H109 H 0.86617 0.42263 0.45194 0.0
H110 H 0.81306 0.97343 0.36781 0.0
H111 H 0.65752 0.36423 0.3209 0.0
H112 H 0.71894 0.44537 0.34833 0.0
H113 H 0.75842 0.96658 0.32434 0.0
H114 H 0.78512 0.487 0.38658 0.0
N115 N 0.72042 0.29206 0.35897 0.0
C116 C 0.67776 0.26537 0.34142 0.0
C117 C 0.67515 0.34437 0.33182 0.0
C118 C 0.7161 0.37077 0.35146 0.0
C119 C 0.65523 0.29115 0.32722 0.0
C120 C 0.73763 0.34299 0.36509 0.0
H121 H 0.83957 0.47854 0.4257 0.0
N122 N 0.79125 0.33677 0.40025 0.0
C123 C 0.84055 0.40737 0.43339 0.0
C124 C 0.77419 0.36615 0.38664 0.0
C125 C 0.82243 0.35603 0.42421 0.0
C126 C 0.82557 0.43884 0.4185 0.0
C127 C 0.79125 0.41808 0.3951 0.0
O128 O 0.73463 0.24322 0.4271 0.0
O129 O 0.79198 0.20112 0.38406 0.0
O130 O 0.74445 0.13351 0.35137 0.0
O131 O 0.7026 0.18174 0.36107 0.0
O132 O 0.8045 0.24594 0.41936 0.0
O133 O 0.67866 0.21038 0.3923 0.0
O134 O 0.84241 0.20532 0.29872 0.0
O135 O 0.79052 0.24604 0.34332 0.0
O136 O 0.83218 0.31894 0.3704 0.0
O137 O 0.88148 0.27891 0.35886 0.0
O138 O 0.77829 0.19981 0.30753 0.0
O139 O 0.90448 0.23065 0.32955 0.0
C140 C 0.81198 0.21001 0.40895 0.0
C141 C 0.65808 0.24904 0.43101 0.0
C142 C 0.63862 0.28863 0.47174 0.0
C143 C 0.66314 0.26227 0.46029 0.0
C144 C 0.61006 0.30308 0.45326 0.0
C145 C 0.62823 0.26263 0.41303 0.0
C146 C 0.60505 0.29013 0.42408 0.0
C147 C 0.7016 0.13769 0.35425 0.0
C148 C 0.6857 0.22287 0.41953 0.0
C149 C 0.77219 0.44692 0.38057 0.0
C150 C 0.7346 0.42326 0.35877 0.0
C151 C 0.76968 0.23473 0.3187 0.0
C152 C 0.91937 0.20779 0.28218 0.0
C153 C 0.95082 0.24007 0.25934 0.0
C154 C 0.97185 0.22065 0.23837 0.0
C155 C 0.96145 0.16896 0.24094 0.0
C156 C 0.91059 0.15673 0.28427 0.0
C157 C 0.93155 0.13758 0.2638 0.0
C158 C 0.87704 0.32079 0.36503 0.0
C159 C 0.89259 0.22624 0.30219 0.0
H160 H 0.68605 0.25177 0.4742 0.0
H161 H 0.58988 0.32257 0.46152 0.0
H162 H 0.6226 0.25212 0.39047 0.0
H163 H 0.58232 0.30062 0.41007 0.0
H164 H 0.95769 0.27955 0.25744 0.0
H165 H 0.9771 0.15297 0.22536 0.0
H166 H 0.8869 0.13139 0.30149 0.0
H167 H 0.92423 0.09796 0.26553 0.0
Tb168 Tb 0.51511 0.74257 0.70836 0.0
C169 C 0.74497 0.81785 0.6884 0.0
C170 C 0.78484 0.87852 0.72789 0.0
C171 C 0.82652 0.83128 0.70916 0.0
C172 C 0.74405 0.85269 0.7077 0.0
C173 C 0.78691 0.80772 0.68824 0.0
C174 C 0.82542 0.8666 0.72903 0.0
C175 C 0.75011 0.75645 0.64501 0.0
N176 N 0.70642 0.79671 0.66842 0.0
C177 C 0.70953 0.76807 0.64605 0.0
C178 C 0.78862 0.77577 0.66644 0.0
Tb179 Tb 0.64011 0.81554 0.67242 0.0
N180 N 0.70468 0.8636 0.70542 0.0
C181 C 0.70572 0.90294 0.72156 0.0
C182 C 0.78447 0.91671 0.74559 0.0
C183 C 0.74515 0.92954 0.74208 0.0
H184 H 0.67968 0.75279 0.62951 0.0
H185 H 0.74502 0.95976 0.75526 0.0
H186 H 0.8569 0.88563 0.74457 0.0
H187 H 0.75167 0.73268 0.62767 0.0
H188 H 0.67553 0.9132 0.71937 0.0
H189 H 0.37352 0.59458 0.63682 0.0
H190 H 0.81501 0.93743 0.76145 0.0
H191 H 0.50663 0.82876 0.75148 0.0
H192 H 0.45667 0.64124 0.66316 0.0
H193 H 0.44221 0.85589 0.76265 0.0
H194 H 0.85885 0.82362 0.70964 0.0
H195 H 0.30685 0.62158 0.64202 0.0
H196 H 0.27823 0.67933 0.66623 0.0
H197 H 0.82021 0.76703 0.66551 0.0
H198 H 0.29632 0.74942 0.701 0.0
N199 N 0.43967 0.6972 0.68187 0.0
C200 C 0.42873 0.65452 0.66531 0.0
C201 C 0.34374 0.64281 0.65341 0.0
C202 C 0.35359 0.68423 0.67186 0.0
C203 C 0.38124 0.62747 0.65043 0.0
C204 C 0.40233 0.71065 0.68613 0.0
H205 H 0.35714 0.81514 0.7372 0.0
N206 N 0.45915 0.773 0.71955 0.0
C207 C 0.43325 0.8259 0.74662 0.0
C208 C 0.41212 0.74945 0.70589 0.0
C209 C 0.4697 0.81014 0.74024 0.0
C210 C 0.38529 0.80285 0.73219 0.0
C211 C 0.37406 0.76389 0.71166 0.0
O212 O 0.49776 0.72199 0.75187 0.0
O213 O 0.59958 0.78045 0.71205 0.0
O214 O 0.6282 0.73628 0.68201 0.0
O215 O 0.53748 0.68859 0.6899 0.0
O216 O 0.5614 0.79154 0.74481 0.0
O217 O 0.47865 0.66307 0.71898 0.0
O218 O 0.65805 0.83303 0.62836 0.0
O219 O 0.55689 0.77262 0.66877 0.0
O220 O 0.51556 0.80843 0.68783 0.0
O221 O 0.60535 0.86513 0.68611 0.0
O222 O 0.59898 0.76636 0.63528 0.0
O223 O 0.67521 0.89408 0.65879 0.0
C224 C 0.60679 0.80086 0.73672 0.0
C225 C 0.41823 0.64413 0.75693 0.0
C226 C 0.35964 0.62481 0.7976 0.0
C227 C 0.41034 0.64765 0.78639 0.0
C228 C 0.3165 0.59873 0.77899 0.0
C229 C 0.37472 0.61639 0.73871 0.0
C230 C 0.32416 0.59439 0.74969 0.0
C231 C 0.58311 0.69159 0.68517 0.0
C232 C 0.47185 0.67232 0.74567 0.0
C233 C 0.32602 0.73879 0.69694 0.0
C234 C 0.31579 0.699 0.67708 0.0
C235 C 0.55267 0.75228 0.6443 0.0
C236 C 0.72778 0.9166 0.61647 0.0
C237 C 0.72894 0.94509 0.59157 0.0
C238 C 0.77662 0.97719 0.57697 0.0
C239 C 0.82236 0.97894 0.58744 0.0
C240 C 0.77424 0.91979 0.6263 0.0
C241 C 0.82107 0.95055 0.61178 0.0
C242 C 0.55608 0.85595 0.68586 0.0
C243 C 0.67808 0.88302 0.63185 0.0
H244 H 0.44376 0.66857 0.8006 0.0
H245 H 0.27695 0.5802 0.78725 0.0
H246 H 0.37943 0.61178 0.71603 0.0
H247 H 0.29085 0.5735 0.7355 0.0
H248 H 0.69317 0.94304 0.58398 0.0
H249 H 0.85944 1.00223 0.57667 0.0
H250 H 0.77431 0.89839 0.64519 0.0
H251 H 0.85671 0.95251 0.61947 0.0
Tb252 Tb 0.75864 0.52105 0.04882 0.0
C253 C 0.93881 0.74038 0.02224 0.0
C254 C 0.92799 0.79044 0.06004 0.0
C255 C 0.01455 0.81847 0.04069 0.0
C256 C 0.90712 0.7472 0.04119 0.0
C257 C 0.99277 0.77655 0.02109 0.0
C258 C 0.98215 0.82537 0.06021 0.0
C259 C 0.99819 0.72979 0.97968 0.0
N260 N 0.91592 0.69988 1.0036 0.0
C261 C 0.94437 0.69522 0.98167 0.0
C262 C 0.02269 0.7703 0.99972 0.0
Tb263 Tb 0.82837 0.6427 1.00931 0.0
N264 N 0.85518 0.71296 0.03986 0.0
C265 C 0.82119 0.72211 0.05548 0.0
C266 C 0.89361 0.79808 0.07739 0.0
C267 C 0.83988 0.76419 0.07475 0.0
H268 H 0.92579 0.66382 0.96619 0.0
H269 H 0.81278 0.77034 0.08761 0.0
H270 H 0.9991 0.85859 0.07472 0.0
H271 H 0.0207 0.72515 0.96269 0.0
H272 H 0.77956 0.69632 0.05394 0.0
H273 H 0.74964 0.36201 0.98604 0.0
H274 H 0.908 0.83072 0.09225 0.0
H275 H 0.66722 0.52977 0.08633 0.0
H276 H 0.79338 0.44608 1.01164 0.0
H277 H 0.57153 0.4793 0.09196 0.0
H278 H 0.05603 0.84647 0.04041 0.0
H279 H 0.6531 0.30966 0.98504 0.0
H280 H 0.56686 0.29783 1.00192 0.0
H281 H 0.0643 0.79721 0.99806 0.0
H282 H 0.51835 0.32932 0.03111 0.0
N283 N 0.72242 0.44346 0.02401 0.0
C284 C 0.75122 0.4242 1.01125 0.0
C285 C 0.67208 0.34687 0.99619 0.0
C286 C 0.64283 0.36497 1.01094 0.0
C287 C 0.72655 0.37625 0.99675 0.0
C288 C 0.6695 0.41371 0.02506 0.0
H289 H 0.51979 0.39682 0.06494 0.0
N290 N 0.66993 0.47708 0.05586 0.0
C291 C 0.59096 0.46526 0.07773 0.0
C292 C 0.64231 0.43083 0.0418 0.0
C293 C 0.6453 0.49374 0.07451 0.0
C294 C 0.56187 0.41877 0.0624 0.0
C295 C 0.58756 0.40062 0.04445 0.0
O296 O 0.75193 0.50595 0.09328 0.0
O297 O 0.81559 0.60381 0.05051 0.0
O298 O 0.88738 0.61868 0.02025 0.0
O299 O 0.83387 0.53138 0.03484 0.0
O300 O 0.76233 0.57551 0.08244 0.0
O301 O 0.78803 0.47444 0.06503 0.0
O302 O 0.82969 0.65699 0.96458 0.0
O303 O 0.78016 0.55984 1.00812 0.0
O304 O 0.7026 0.5315 0.02376 0.0
O305 O 0.74703 0.62185 0.02287 0.0
O306 O 0.8306 0.59404 0.97435 0.0
O307 O 0.78983 0.68183 0.99342 0.0
C308 C 0.80417 0.61646 0.07424 0.0
C309 C 0.73795 0.42255 0.1042 0.0
C310 C 0.7046 0.37181 0.14813 0.0
C311 C 0.73389 0.41998 0.13424 0.0
C312 C 0.67726 0.32623 0.13134 0.0
C313 C 0.71137 0.37655 0.08781 0.0
C314 C 0.68053 0.3288 0.10134 0.0
C315 C 0.87986 0.57158 0.02771 0.0
C316 C 0.76995 0.47376 0.09077 0.0
C317 C 0.56048 0.35304 0.02948 0.0
C318 C 0.58809 0.33519 1.0128 0.0
C319 C 0.79497 0.55036 0.98455 0.0
C320 C 0.81929 0.72776 0.949 0.0
C321 C 0.79044 0.72705 0.92424 0.0
C322 C 0.80623 0.77291 0.90774 0.0
C323 C 0.85183 0.81874 0.91627 0.0
C324 C 0.86441 0.77416 0.95674 0.0
C325 C 0.88056 0.81921 0.9404 0.0
C326 C 0.70308 0.57598 0.02091 0.0
C327 C 0.80213 0.68011 0.96663 0.0
H328 H 0.75446 0.45559 0.14681 0.0
H329 H 0.65516 0.28828 0.14131 0.0
H330 H 0.71466 0.37707 0.06468 0.0
H331 H 0.66018 0.29349 0.08859 0.0
H332 H 0.75536 0.6913 0.91824 0.0
H333 H 0.8657 0.85443 0.90407 0.0
H334 H 0.88712 0.77552 0.97545 0.0
H335 H 0.91557 0.85486 0.94652 0.0
Tb336 Tb 0.24677 0.74507 0.37773 0.0
C337 C 0.21404 0.9345 0.36018 0.0
C338 C 0.15646 0.92397 0.39965 0.0
C339 C 0.21542 0.01067 0.3811 0.0
C340 C 0.17649 0.90282 0.37939 0.0
C341 C 0.23323 0.98874 0.36016 0.0
C342 C 0.17707 0.97827 0.40088 0.0
C343 C 0.28211 0.99437 0.31731 0.0
N344 N 0.22937 0.91147 0.34026 0.0
C345 C 0.26163 0.94029 0.31826 0.0
C346 C 0.26839 0.01886 0.33859 0.0
Tb347 Tb 0.19712 0.82332 0.34405 0.0
N348 N 0.15743 0.85079 0.37702 0.0
C349 C 0.11502 0.81715 0.39306 0.0
C350 C 0.11529 0.88979 0.41734 0.0
C351 C 0.09393 0.83609 0.41368 0.0
H352 H 0.27281 0.92186 0.3018 0.0
H353 H 0.0613 0.80918 0.42681 0.0
H354 H 0.1626 0.99539 0.41647 0.0
H355 H 0.30852 0.01709 0.30019 0.0
H356 H 0.09796 0.77553 0.39083 0.0
H357 H 0.38808 0.73525 0.30738 0.0
H358 H 0.09881 0.90437 0.43325 0.0
H359 H 0.14885 0.65177 0.41482 0.0
H360 H 0.35438 0.77859 0.33913 0.0
H361 H 0.09798 0.5555 0.41493 0.0
H362 H 0.23001 0.05234 0.38168 0.0
H363 H 0.33615 0.64004 0.29895 0.0
H364 H 0.25728 0.55401 0.31147 0.0
H365 H 0.28409 0.06069 0.33777 0.0
H366 H 0.17867 0.50475 0.34131 0.0
N367 N 0.28257 0.70906 0.34787 0.0
C368 C 0.33103 0.73703 0.33569 0.0
C369 C 0.3209 0.65887 0.31283 0.0
C370 C 0.27318 0.62979 0.32707 0.0
C371 C 0.35042 0.71258 0.31764 0.0
C372 C 0.25512 0.65629 0.34483 0.0
H373 H 0.11938 0.50493 0.38041 0.0
N374 N 0.19805 0.65577 0.3802 0.0
C375 C 0.12987 0.5756 0.39989 0.0
C376 C 0.21187 0.6285 0.36208 0.0
C377 C 0.15887 0.63016 0.39982 0.0
C378 C 0.14198 0.54717 0.38032 0.0
C379 C 0.18399 0.57357 0.36138 0.0
O380 O 0.25546 0.7316 0.42137 0.0
O381 O 0.22458 0.80467 0.38323 0.0
O382 O 0.28126 0.8783 0.35486 0.0
O383 O 0.31286 0.82076 0.36564 0.0
O384 O 0.20006 0.74885 0.41379 0.0
O385 O 0.32178 0.76452 0.39272 0.0
O386 O 0.18194 0.82689 0.29975 0.0
O387 O 0.22935 0.77298 0.33903 0.0
O388 O 0.17747 0.69533 0.35271 0.0
O389 O 0.13527 0.74307 0.35728 0.0
O390 O 0.24594 0.82788 0.3076 0.0
O391 O 0.11878 0.78762 0.32922 0.0
C392 C 0.20217 0.79218 0.40738 0.0
C393 C 0.31833 0.70624 0.42896 0.0
C394 C 0.33858 0.66614 0.4693 0.0
C395 C 0.32937 0.70541 0.45834 0.0
C396 C 0.33344 0.62617 0.45061 0.0
C397 C 0.31818 0.66852 0.41052 0.0
C398 C 0.32423 0.62799 0.42135 0.0
C399 C 0.32014 0.86814 0.3603 0.0
C400 C 0.30441 0.74473 0.41817 0.0
C401 C 0.19978 0.54699 0.34236 0.0
C402 C 0.24441 0.57506 0.32528 0.0
C403 C 0.25303 0.7902 0.31547 0.0
C404 C 0.10053 0.81795 0.28535 0.0
C405 C 0.07026 0.78905 0.26106 0.0
C406 C 0.04013 0.80593 0.24514 0.0
C407 C 0.0421 0.85264 0.25376 0.0
C408 C 0.10125 0.86412 0.29314 0.0
C409 C 0.07237 0.88132 0.27737 0.0
C410 C 0.13454 0.69833 0.35249 0.0
C411 C 0.13148 0.80005 0.30234 0.0
H412 H 0.33218 0.73618 0.47228 0.0
H413 H 0.33792 0.59407 0.45839 0.0
H414 H 0.31364 0.67015 0.38776 0.0
H415 H 0.32243 0.59825 0.40694 0.0
H416 H 0.06939 0.75319 0.25497 0.0
H417 H 0.02037 0.86739 0.24203 0.0
H418 H 0.12424 0.8869 0.31144 0.0
H419 H 0.07332 0.91716 0.28353 0.0
Tb420 Tb 0.50705 0.25177 0.71731 0.0
C421 C 0.27979 0.18984 0.69289 0.0
C422 C 0.23608 0.12988 0.73192 0.0
C423 C 0.19893 0.18052 0.71209 0.0
C424 C 0.27802 0.15422 0.71241 0.0
C425 C 0.23964 0.20257 0.69185 0.0
C426 C 0.19719 0.14422 0.73216 0.0
C427 C 0.28042 0.25358 0.64927 0.0
N428 N 0.31929 0.2094 0.67361 0.0
C429 C 0.31911 0.23938 0.65118 0.0
C430 C 0.24083 0.23563 0.66993 0.0
Tb431 Tb 0.38284 0.18686 0.67904 0.0
N432 N 0.31587 0.14104 0.71099 0.0
C433 C 0.31193 0.10063 0.72724 0.0
C434 C 0.23363 0.09071 0.74984 0.0
C435 C 0.2713 0.07545 0.74714 0.0
H436 H 0.34977 0.25366 0.63522 0.0
H437 H 0.26922 0.04443 0.76046 0.0
H438 H 0.16487 0.12637 0.74716 0.0
H439 H 0.28116 0.27829 0.63186 0.0
H440 H 0.34077 0.08845 0.72569 0.0
H441 H 0.65097 0.39587 0.64583 0.0
H442 H 0.20213 0.07107 0.76519 0.0
H443 H 0.51095 0.16195 0.75883 0.0
H444 H 0.56955 0.35435 0.67394 0.0
H445 H 0.5698 0.12626 0.76674 0.0
H446 H 0.16792 0.19014 0.71188 0.0
H447 H 0.71065 0.3596 0.64684 0.0
H448 H 0.73313 0.29465 0.66768 0.0
H449 H 0.21072 0.24639 0.66832 0.0
H450 H 0.71192 0.22239 0.70128 0.0
N451 N 0.5809 0.29282 0.68957 0.0
C452 C 0.5947 0.33749 0.67437 0.0
C453 C 0.67462 0.34079 0.65905 0.0
C454 C 0.66226 0.29741 0.6763 0.0
C455 C 0.64108 0.36143 0.65847 0.0
C456 C 0.61481 0.27436 0.69171 0.0
H457 H 0.65137 0.15973 0.73856 0.0
N458 N 0.55815 0.21475 0.72602 0.0
C459 C 0.57971 0.15669 0.75096 0.0
C460 C 0.60358 0.23463 0.71101 0.0
C461 C 0.54647 0.17715 0.74644 0.0
C462 C 0.62572 0.17567 0.735 0.0
C463 C 0.6384 0.21543 0.71488 0.0
O464 O 0.5282 0.26862 0.76105 0.0
O465 O 0.42287 0.21899 0.71969 0.0
O466 O 0.39958 0.26798 0.68825 0.0
O467 O 0.48852 0.31049 0.70193 0.0
O468 O 0.45736 0.20302 0.75268 0.0
O469 O 0.5507 0.33047 0.72999 0.0
O470 O 0.36695 0.17107 0.6345 0.0
O471 O 0.46628 0.22642 0.67688 0.0
O472 O 0.50141 0.18448 0.69548 0.0
O473 O 0.41133 0.13205 0.69247 0.0
O474 O 0.42751 0.23812 0.64354 0.0
O475 O 0.34682 0.10876 0.66409 0.0
C476 C 0.41351 0.19767 0.74414 0.0
C477 C 0.61238 0.34146 0.76623 0.0
C478 C 0.67453 0.36076 0.80577 0.0
C479 C 0.62331 0.34473 0.7959 0.0
C480 C 0.71329 0.3696 0.7852 0.0
C481 C 0.65366 0.35732 0.74659 0.0
C482 C 0.70319 0.36932 0.75592 0.0
C483 C 0.44521 0.31066 0.69446 0.0
C484 C 0.55774 0.3184 0.75604 0.0
C485 C 0.68472 0.23674 0.69873 0.0
C486 C 0.69667 0.27772 0.6795 0.0
C487 C 0.4729 0.24964 0.65317 0.0
C488 C 0.2979 0.08779 0.62014 0.0
C489 C 0.29826 0.05868 0.59565 0.0
C490 C 0.25153 0.02652 0.57989 0.0
C491 C 0.20534 0.0254 0.58886 0.0
C492 C 0.25094 0.08521 0.62825 0.0
C493 C 0.20518 0.05443 0.61265 0.0
C494 C 0.45944 0.13841 0.69214 0.0
C495 C 0.34631 0.12089 0.63713 0.0
H496 H 0.59201 0.33596 0.81095 0.0
H497 H 0.75217 0.37841 0.79155 0.0
H498 H 0.64803 0.3602 0.72398 0.0
H499 H 0.73402 0.37893 0.74038 0.0
H500 H 0.33438 0.06029 0.5893 0.0
H501 H 0.16901 1.00218 0.57726 0.0
H502 H 0.24966 0.10708 0.6467 0.0
H503 H 0.16917 0.05294 0.61908 0.0
H504 H 0.34402 0.84172 0.28775 0.0
H505 H 0.29385 0.61452 0.17807 0.0
H506 H 0.20817 0.68918 0.29646 0.0
H507 H 0.34288 0.77386 0.15396 0.0
H508 H 0.28638 0.63678 0.22815 0.0
H509 H 0.3709 0.81073 0.24571 0.0
C510 C 0.32084 0.8012 0.28124 0.0
C511 C 0.27454 0.76751 0.29564 0.0
C512 C 0.2996 0.66665 0.2117 0.0
C513 C 0.30409 0.73244 0.24756 0.0
C514 C 0.30341 0.65409 0.18306 0.0
C515 C 0.31864 0.69216 0.16131 0.0
C516 C 0.3126 0.71783 0.21866 0.0
C517 C 0.33204 0.74313 0.16961 0.0
C518 C 0.33604 0.78367 0.25736 0.0
C519 C 0.24482 0.71573 0.28617 0.0
N520 N 0.32869 0.75434 0.19755 0.0
N521 N 0.25994 0.69966 0.26238 0.0
H522 H 0.53345 0.20507 0.6429 0.0
H523 H 0.64646 0.37335 0.5008 0.0
H524 H 0.50938 0.33202 0.61774 0.0
H525 H 0.62946 0.22105 0.51448 0.0
H526 H 0.62563 0.37584 0.5516 0.0
H527 H 0.59705 0.22809 0.60398 0.0
C528 C 0.5428 0.23871 0.62971 0.0
C529 C 0.51704 0.2673 0.63356 0.0
C530 C 0.62765 0.34244 0.54353 0.0
C531 C 0.58797 0.29274 0.58875 0.0
C532 C 0.63921 0.34086 0.51457 0.0
C533 C 0.63818 0.2963 0.50323 0.0
C534 C 0.61482 0.29908 0.56109 0.0
C535 C 0.63029 0.25605 0.5222 0.0
C536 C 0.5788 0.25169 0.60744 0.0
C537 C 0.52892 0.30939 0.61533 0.0
N538 N 0.61792 0.25797 0.55012 0.0
N539 N 0.56341 0.32074 0.59353 0.0
H540 H 0.1827 0.50041 0.94461 0.0
H541 H 0.29299 0.64805 0.82653 0.0
H542 H 0.33524 0.52775 0.96945 0.0
H543 H 0.40874 0.60123 0.83979 0.0
H544 H 0.26937 0.63131 0.87748 0.0
H545 H 0.22132 0.55953 0.90436 0.0
C546 C 0.22477 0.52054 0.94198 0.0
C547 C 0.25619 0.51064 0.96054 0.0
C548 C 0.2999 0.62464 0.86925 0.0
C549 C 0.30106 0.57791 0.91429 0.0
C550 C 0.31352 0.63449 0.84028 0.0
C551 C 0.35163 0.62442 0.82894 0.0
C552 C 0.32358 0.60313 0.88656 0.0
C553 C 0.37851 0.60868 0.8477 0.0
C554 C 0.24705 0.55478 0.91914 0.0
C555 C 0.31017 0.53571 0.95583 0.0
N556 N 0.36321 0.59746 0.87555 0.0
N557 N 0.33095 0.56779 0.93277 0.0
H558 H 0.81321 0.34087 0.3162 0.0
H559 H 0.78973 0.42714 0.18305 0.0
H560 H 0.69075 0.1964 0.28067 0.0
H561 H 0.62691 0.30764 0.18551 0.0
H562 H 0.79992 0.4065 0.23228 0.0
H563 H 0.79024 0.38914 0.28155 0.0
C564 C 0.78099 0.31955 0.30138 0.0
C565 C 0.75338 0.2649 0.30112 0.0
C566 C 0.76143 0.38611 0.22255 0.0
C567 C 0.72816 0.31903 0.26135 0.0
C568 C 0.75551 0.39781 0.19425 0.0
C569 C 0.70758 0.36818 0.17983 0.0
C570 C 0.71934 0.34398 0.23631 0.0
C571 C 0.66499 0.33024 0.19548 0.0
C572 C 0.76817 0.34693 0.28157 0.0
C573 C 0.7127 0.23864 0.28133 0.0
N574 N 0.67225 0.31821 0.22267 0.0
N575 N 0.70126 0.26601 0.26218 0.0
H576 H 0.52688 0.67038 0.60997 0.0
H577 H 0.31489 0.7028 0.519 0.0
H578 H 0.47886 0.78138 0.63381 0.0
H579 H 0.40839 0.63729 0.48799 0.0
H580 H 0.35632 0.71493 0.56655 0.0
H581 H 0.46201 0.63807 0.57148 0.0
C582 C 0.50176 0.68715 0.60735 0.0
C583 C 0.50741 0.72785 0.62513 0.0
C584 C 0.36684 0.69717 0.54929 0.0
C585 C 0.4348 0.69295 0.58044 0.0
C586 C 0.3436 0.69055 0.52211 0.0
C587 C 0.35807 0.66901 0.49922 0.0
C588 C 0.40422 0.6816 0.55355 0.0
C589 C 0.3948 0.65299 0.50482 0.0
C590 C 0.46494 0.66895 0.58536 0.0
C591 C 0.47478 0.7492 0.62072 0.0
N592 N 0.41655 0.65978 0.53128 0.0
N593 N 0.43997 0.7318 0.59845 0.0
H594 H 0.84692 0.51021 0.95754 0.0
H595 H 0.61259 0.31971 0.85491 0.0
H596 H 0.69171 0.48598 0.9708 0.0
H597 H 0.77018 0.43143 0.82841 0.0
H598 H 0.63726 0.3508 0.90469 0.0
H599 H 0.8134 0.44598 0.9185 0.0
C600 C 0.80542 0.49003 0.9527 0.0
C601 C 0.7718 0.50275 0.96729 0.0
C602 C 0.66625 0.36722 0.88777 0.0
C603 C 0.73371 0.43094 0.92239 0.0
C604 C 0.65229 0.35008 0.85926 0.0
C605 C 0.6891 0.37282 0.83685 0.0
C606 C 0.71761 0.40608 0.8939 0.0
C607 C 0.74029 0.41113 0.84442 0.0
C608 C 0.78639 0.45358 0.93053 0.0
C609 C 0.71849 0.47642 0.96013 0.0
N610 N 0.7528 0.42635 0.87216 0.0
N611 N 0.70099 0.44202 0.93772 0.0
H612 H 0.37572 0.45389 0.97883 0.0
H613 H 0.65242 0.6071 0.05856 0.0
H614 H 0.39059 0.46793 0.07119 0.0
H615 H 0.63407 0.52773 0.97775 0.0
H616 H 0.55703 0.57142 0.06013 0.0
H617 H 0.47089 0.49045 0.97518 0.0
C618 C 0.39892 0.4631 0.99837 0.0
C619 C 0.37539 0.4572 0.02537 0.0
C620 C 0.57412 0.56277 0.04176 0.0
C621 C 0.48424 0.50212 0.02134 0.0
C622 C 0.62855 0.58409 0.04057 0.0
C623 C 0.65107 0.57121 0.01769 0.0
C624 C 0.54233 0.52891 0.01974 0.0
C625 C 0.61818 0.53932 0.99549 0.0
C626 C 0.45322 0.48482 0.99628 0.0
C627 C 0.40735 0.47169 0.04999 0.0
N628 N 0.56554 0.51922 0.99705 0.0
N629 N 0.46021 0.49414 0.04741 0.0
H630 H 0.05295 0.65259 0.39052 0.0
H631 H 0.93193 0.36984 0.31675 0.0
H632 H 0.11008 0.62724 0.3102 0.0
H633 H 0.92262 0.39312 0.40767 0.0
H634 H 0.98939 0.46459 0.31112 0.0
H635 H 0.99112 0.55816 0.39342 0.0
C636 C 0.05077 0.62746 0.37289 0.0
C637 C 0.08588 0.64768 0.34984 0.0
C638 C 0.97505 0.44889 0.33236 0.0
C639 C 0.01715 0.53988 0.35347 0.0
C640 C 0.9431 0.39482 0.33562 0.0
C641 C 0.9226 0.37382 0.36273 0.0
C642 C 0.98563 0.48208 0.35631 0.0
C643 C 0.93687 0.40797 0.38636 0.0
C644 C 0.01641 0.5735 0.37483 0.0
C645 C 0.08299 0.61315 0.32809 0.0
N646 N 0.96701 0.46039 0.38261 0.0
N647 N 0.04958 0.561 0.33049 0.0
H648 H 0.39203 0.03173 0.6989 0.0
H649 H 0.62236 0.96271 0.6915 0.0
H650 H 0.55046 0.14415 0.67545 0.0
H651 H 0.46093 0.84753 0.67568 0.0
H652 H 0.59701 0.03059 0.69154 0.0
H653 H 0.41591 0.96265 0.69604 0.0
C654 C 0.43154 0.04191 0.69306 0.0
C655 C 0.46941 0.09407 0.688 0.0
C656 C 0.56726 0.99028 0.6881 0.0
C657 C 0.49722 0.01588 0.68523 0.0
C658 C 0.5818 0.95163 0.688 0.0
C659 C 0.54378 0.8991 0.68407 0.0
C660 C 0.51432 0.9762 0.68456 0.0
C661 C 0.49162 0.8872 0.67955 0.0
C662 C 0.44526 1.00264 0.69155 0.0
C663 C 0.52014 0.10489 0.68042 0.0
N664 N 0.47841 0.92517 0.68023 0.0
N665 N 0.53263 0.06647 0.67961 0.0
H666 H 0.5669 0.62981 0.6382 0.0
H667 H 0.46145 0.37628 0.73861 0.0
H668 H 0.58386 0.63487 0.73046 0.0
H669 H 0.45201 0.36642 0.64602 0.0
H670 H 0.50256 0.47121 0.73553 0.0
H671 H 0.5268 0.53428 0.6396 0.0
C672 C 0.56429 0.61093 0.6586 0.0
C673 C 0.58024 0.64036 0.68415 0.0
C674 C 0.49069 0.4485 0.7158 0.0
C675 C 0.53166 0.53094 0.68623 0.0
C676 C 0.46619 0.39418 0.71762 0.0
C677 C 0.45178 0.36343 0.69259 0.0
C678 C 0.50182 0.47271 0.68865 0.0
C679 C 0.46097 0.38869 0.66586 0.0
C680 C 0.54043 0.55632 0.65949 0.0
C681 C 0.57374 0.61378 0.71018 0.0
N682 N 0.48572 0.4419 0.66455 0.0
N683 N 0.54962 0.56073 0.71058 0.0
H684 H 0.13711 0.51888 0.98364 0.0
H685 H 0.89291 0.50786 0.06434 0.0
H686 H 0.04713 0.40445 0.04806 0.0
H687 H 0.96374 0.60499 0.98999 0.0
H688 H 0.9518 0.4729 0.05956 0.0
H689 H 0.07488 0.55077 0.98495 0.0
C690 C 0.10337 0.49956 0.99756 0.0
C691 C 0.09701 0.4586 1.01559 0.0
C692 C 0.95484 0.50198 0.0443 0.0
C693 C 0.02632 0.49627 0.01796 0.0
C694 C 0.92139 0.52237 0.04711 0.0
C695 C 0.92319 0.5595 0.02749 0.0
C696 C 0.99102 0.51873 0.02169 0.0
C697 C 0.9613 0.57698 1.0058 0.0
C698 C 0.06808 0.51815 0.99847 0.0
C699 C 0.05301 0.43548 0.03347 0.0
N700 N 0.9936 0.55625 1.00341 0.0
N701 N 0.0197 0.45507 0.03446 0.0
H702 H 0.36498 0.96679 0.33538 0.0
H703 H 0.65983 0.03655 0.37374 0.0
H704 H 0.4043 0.8648 0.38227 0.0
H705 H 0.62192 0.13704 0.32466 0.0
H706 H 0.56627 0.9704 0.3745 0.0
H707 H 0.45884 0.02947 0.33048 0.0
C708 C 0.39301 0.95765 0.34483 0.0
C709 C 0.37618 0.91011 0.35913 0.0
C710 C 0.57851 0.0068 0.36332 0.0
C711 C 0.48396 0.98136 0.35331 0.0
C712 C 0.63201 0.04418 0.36259 0.0
C713 C 0.64856 0.09249 0.34938 0.0
C714 C 0.5415 0.01796 0.35074 0.0
C715 C 0.61071 0.10068 0.33556 0.0
C716 C 0.44673 0.99326 0.34184 0.0
C717 C 0.41487 0.90053 0.37079 0.0
N718 N 0.55912 0.06418 0.33681 0.0
N719 N 0.46652 0.93555 0.36759 0.0
H720 H 0.37961 0.14065 0.79308 0.0
H721 H 0.26221 0.30753 0.86669 0.0
H722 H 0.36782 0.2606 0.74675 0.0
H723 H 0.25018 0.16776 0.90302 0.0
H724 H 0.30382 0.29497 0.82355 0.0
H725 H 0.3331 0.15189 0.83358 0.0
C726 C 0.36642 0.16885 0.79125 0.0
C727 C 0.37718 0.19914 0.76624 0.0
C728 C 0.292 0.26708 0.84099 0.0
C729 C 0.32496 0.21385 0.81338 0.0
C730 C 0.26867 0.27452 0.86579 0.0
C731 C 0.25224 0.23858 0.8887 0.0
C732 C 0.2997 0.22371 0.83911 0.0
C733 C 0.2614 0.19627 0.88595 0.0
C734 C 0.34005 0.17554 0.81452 0.0
C735 C 0.35974 0.23574 0.76537 0.0
N736 N 0.28435 0.19019 0.86188 0.0
N737 N 0.33497 0.24239 0.78864 0.0
H738 H 0.06555 0.31269 0.24031 0.0
H739 H 0.10859 0.3584 0.07048 0.0
H740 H 0.9544 0.20109 0.18029 0.0
H741 H 0.23675 0.40434 0.12989 0.0
H742 H 0.04719 0.30992 0.10962 0.0
H743 H 0.12421 0.35882 0.1997 0.0
C744 C 0.05309 0.29846 0.21855 0.0
C745 C 1.00486 0.2531 0.21373 0.0
C746 C 0.08881 0.33029 0.11397 0.0
C747 C 0.07183 0.30574 0.16703 0.0
C748 C 0.12397 0.35751 0.09151 0.0
C749 C 0.17824 0.38445 0.09656 0.0
C750 C 0.10781 0.33176 0.14205 0.0
C751 C 0.19541 0.38359 0.12479 0.0
C752 C 0.08677 0.32446 0.1954 0.0
C753 C 0.99115 0.23599 0.185 0.0
N754 N 0.16054 0.35828 0.14638 0.0
N755 N 0.02418 0.26237 0.16279 0.0
H756 H 0.85044 0.07875 0.56686 0.0
H757 H 0.75048 0.10163 0.40869 0.0
H758 H 0.71246 0.95162 0.52844 0.0
H759 H 0.8703 0.23019 0.45711 0.0
H760 H 0.7409 0.04259 0.44882 0.0
H761 H 0.86189 0.13131 0.52426 0.0
C762 C 0.82242 0.06172 0.54941 0.0
C763 C 0.7805 0.0103 0.55141 0.0
C764 C 0.76972 0.08362 0.45047 0.0
C765 C 0.79354 0.07117 0.50182 0.0
C766 C 0.77565 0.11721 0.4274 0.0
C767 C 0.81182 0.17092 0.42939 0.0
C768 C 0.80013 0.10395 0.47567 0.0
C769 C 0.84234 0.18907 0.45452 0.0
C770 C 0.82898 0.09197 0.52496 0.0
C771 C 0.74517 0.99107 0.52804 0.0
N772 N 0.83581 0.15592 0.47649 0.0
N773 N 0.75259 0.02134 0.5042 0.0
H774 H 0.63788 0.85915 0.7855 0.0
H775 H 0.76414 0.70348 0.86179 0.0
H776 H 0.6574 0.74275 0.74003 0.0
H777 H 0.7795 0.84713 0.89455 0.0
H778 H 0.7204 0.71232 0.81846 0.0
H779 H 0.68686 0.8523 0.82629 0.0
C780 C 0.65329 0.8327 0.78393 0.0
C781 C 0.64414 0.80218 0.75906 0.0
C782 C 0.73343 0.74188 0.83515 0.0
C783 C 0.69901 0.79243 0.80648 0.0
C784 C 0.75797 0.73659 0.86005 0.0
C785 C 0.77584 0.77466 0.88199 0.0
C786 C 0.72585 0.78517 0.83227 0.0
C787 C 0.76703 0.81699 0.87823 0.0
C788 C 0.68108 0.82855 0.80733 0.0
C789 C 0.66427 0.76778 0.75852 0.0
N790 N 0.74272 0.82091 0.85411 0.0
N791 N 0.69029 0.76348 0.78193 0.0
H792 H 0.93922 0.78236 0.23463 0.0
H793 H 0.91201 0.6571 0.07664 0.0
H794 H 0.06165 0.76137 0.19777 0.0
H795 H 0.784 0.65211 0.12393 0.0
H796 H 0.9705 0.70259 0.11773 0.0
H797 H 0.88504 0.74084 0.19223 0.0
C798 C 0.95482 0.76891 0.21761 0.0
C799 C 1.00547 0.77573 0.22001 0.0
C800 C 0.9297 0.69187 0.11903 0.0
C801 C 0.94283 0.72777 0.17055 0.0
C802 C 0.89633 0.66633 0.09541 0.0
C803 C 0.84286 0.65104 0.09663 0.0
C804 C 0.90963 0.70239 0.14415 0.0
C805 C 0.82485 0.66333 0.12187 0.0
C806 C 0.92366 0.74504 0.19328 0.0
C807 C 0.02287 0.75675 0.19712 0.0
N808 N 0.85789 0.68809 0.14441 0.0
N809 N 0.99188 0.73406 0.17336 0.0
H810 H 0.31755 0.0517 0.53235 0.0
H811 H 0.14737 0.76906 0.45741 0.0
H812 H 0.17818 0.92453 0.5689 0.0
H813 H 0.26987 0.8995 0.41204 0.0
H814 H 0.16082 0.82603 0.49876 0.0
H815 H 0.30522 0.99733 0.48927 0.0
C816 C 0.28475 0.01228 0.53154 0.0
C817 C 0.24881 0.99304 0.55448 0.0
C818 C 0.18468 0.84258 0.47976 0.0
C819 C 0.23414 0.93041 0.50493 0.0
C820 C 0.17681 0.80994 0.45602 0.0
C821 C 0.207 0.82936 0.43095 0.0
C822 C 0.22393 0.89545 0.479 0.0
C823 C 0.24509 0.88278 0.43068 0.0
C824 C 0.27743 0.98136 0.50677 0.0
C825 C 0.20673 0.9416 0.55183 0.0
N826 N 0.25263 0.91378 0.45431 0.0
N827 N 0.20072 0.91247 0.52777 0.0
loop_
_geom_bond_atom_site_label_1
_geom_bond_atom_site_label_2
_geom_bond_distance
_geom_bond_site_symmetry_2
_ccdc_geom_bond_type
Tb0 N31 2.660 . S
Tb0 N38 2.600 . S
Tb0 O44 2.546 . S
Tb0 O45 2.610 . S
Tb0 O47 2.320 . S
Tb0 O48 2.552 . S
Tb0 O49 2.413 . S
Tb0 O51 2.362 1_554 S
Tb0 O52 2.421 . S
Tb0 C64 2.833 . S
C1 C4 1.432 . S
C1 C5 1.414 . S
C1 N8 1.359 1_554 S
C2 C4 1.417 . S
C2 C6 1.432 . S
C2 C14 1.410 . S
C3 C5 1.444 . S
C3 C6 1.317 . S
C3 H26 0.929 1_455 S
C4 C1 1.432 . S
C4 C2 1.417 . S
C4 N12 1.360 . S
C5 C1 1.414 . S
C5 C3 1.444 . S
C5 C10 1.385 1_454 S
C6 C2 1.432 . S
C6 C3 1.317 . S
C6 H18 0.930 . S
C7 C9 1.392 1_655 S
C7 C10 1.370 . S
C7 H19 0.931 . S
N8 C1 1.359 1_556 S
N8 C9 1.327 . S
N8 Tb11 2.600 . S
C9 C7 1.392 1_455 S
C9 N8 1.327 . S
C9 H16 0.930 . S
C10 C5 1.385 1_656 S
C10 C7 1.370 . S
C10 H29 0.930 . S
Tb11 N8 2.600 . S
Tb11 N12 2.660 1_556 S
Tb11 O45 2.362 1_556 S
Tb11 O46 2.421 . S
Tb11 O50 2.546 . S
Tb11 O51 2.610 . S
Tb11 O53 2.320 1_556 S
Tb11 O54 2.552 . S
Tb11 O55 2.413 . S
Tb11 C75 2.833 . S
N12 C4 1.360 . S
N12 Tb11 2.660 1_554 S
N12 C13 1.305 . S
C13 N12 1.305 . S
C13 C15 1.407 . S
C13 H20 0.930 . S
C14 C2 1.410 . S
C14 C15 1.345 . S
C14 H22 0.930 . S
C15 C13 1.407 . S
C15 C14 1.345 . S
C15 H17 0.930 . S
H16 C9 0.930 . S
H17 C15 0.930 . S
H18 C6 0.930 . S
H19 C7 0.931 . S
H20 C13 0.930 . S
H21 C35 0.930 . S
H22 C14 0.930 . S
H23 C41 0.930 . S
H24 C32 0.930 . S
H25 C39 0.931 . S
H26 C3 0.929 1_655 S
H27 C33 0.930 . S
H28 C66 0.930 . S
H29 C10 0.930 . S
H30 C65 0.929 . S
N31 Tb0 2.660 . S
N31 C32 1.305 1_554 S
N31 C36 1.360 . S
C32 H24 0.930 . S
C32 N31 1.305 1_556 S
C32 C35 1.407 . S
C33 H27 0.930 . S
C33 C34 1.410 . S
C33 C35 1.345 . S
C34 C33 1.410 . S
C34 C36 1.417 1_556 S
C34 C66 1.432 . S
C35 H21 0.930 . S
C35 C32 1.407 . S
C35 C33 1.345 . S
C36 N31 1.360 . S
C36 C34 1.417 1_554 S
C36 C40 1.432 . S
H37 C42 0.930 . S
N38 Tb0 2.600 . S
N38 C40 1.359 . S
N38 C41 1.327 . S
C39 H25 0.931 . S
C39 C41 1.392 . S
C39 C42 1.370 . S
C40 C36 1.432 . S
C40 N38 1.359 . S
C40 C43 1.414 . S
C41 H23 0.930 . S
C41 N38 1.327 . S
C41 C39 1.392 . S
C42 H37 0.930 . S
C42 C39 1.370 . S
C42 C43 1.385 . S
C43 C40 1.414 . S
C43 C42 1.385 . S
C43 C65 1.444 . S
O44 Tb0 2.546 . S
O44 C64 1.251 . S
O45 Tb0 2.610 . S
O45 Tb11 2.362 1_554 S
O45 C56 1.283 . S
O46 Tb11 2.421 . S
O46 C63 1.262 1_556 S
O47 Tb0 2.320 . S
O47 C63 1.260 . S
O48 Tb0 2.552 . S
O48 C56 1.243 . S
O49 Tb0 2.413 . S
O49 C64 1.256 . S
O50 Tb11 2.546 . S
O50 C75 1.251 . S
O51 Tb0 2.362 1_556 S
O51 Tb11 2.610 . S
O51 C67 1.283 . S
O52 Tb0 2.421 . S
O52 C74 1.262 . S
O53 Tb11 2.320 1_554 S
O53 C74 1.260 . S
O54 Tb11 2.552 . S
O54 C67 1.243 . S
O55 Tb11 2.413 . S
O55 C75 1.256 . S
C56 O45 1.283 . S
C56 O48 1.243 . S
C57 C59 1.382 . S
C57 C61 1.393 . S
C57 C64 1.500 . S
C58 C59 1.400 . S
C58 C60 1.384 . S
C59 C57 1.382 . S
C59 C58 1.400 . S
C59 H76 0.930 . S
C60 C58 1.384 . S
C60 C62 1.392 . S
C60 H77 0.931 . S
C61 C57 1.393 . S
C61 C62 1.401 . S
C61 H78 0.930 . S
C62 C60 1.392 . S
C62 C61 1.401 . S
C62 H79 0.930 . S
C63 O46 1.262 1_554 S
C63 O47 1.260 . S
C64 Tb0 2.833 . S
C64 O44 1.251 . S
C64 O49 1.256 . S
C64 C57 1.500 . S
C65 H30 0.929 . S
C65 C43 1.444 . S
C65 C66 1.317 1_554 S
C66 H28 0.930 . S
C66 C34 1.432 . S
C66 C65 1.317 1_556 S
C67 O51 1.283 . S
C67 O54 1.243 . S
C68 C69 1.382 . S
C68 C72 1.393 . S
C68 C75 1.500 . S
C69 C68 1.382 . S
C69 C70 1.400 . S
C69 H80 0.930 . S
C70 C69 1.400 . S
C70 C71 1.384 . S
C71 C70 1.384 . S
C71 C73 1.392 . S
C71 H81 0.931 . S
C72 C68 1.393 . S
C72 C73 1.401 . S
C72 H82 0.930 . S
C73 C71 1.392 . S
C73 C72 1.401 . S
C73 H83 0.930 . S
C74 O52 1.262 . S
C74 O53 1.260 . S
C75 Tb11 2.833 . S
C75 O50 1.251 . S
C75 O55 1.256 . S
C75 C68 1.500 . S
H76 C59 0.930 . S
H77 C60 0.931 . S
H78 C61 0.930 . S
H79 C62 0.930 . S
H80 C69 0.930 . S
H81 C71 0.931 . S
H82 C72 0.930 . S
H83 C73 0.930 . S
Tb84 N115 2.660 . S
Tb84 N122 2.600 . S
Tb84 O128 2.546 . S
Tb84 O129 2.610 . S
Tb84 O131 2.320 . S
Tb84 O132 2.552 . S
Tb84 O133 2.413 . S
Tb84 O135 2.362 . S
Tb84 O136 2.421 . S
Tb84 C148 2.833 . S
C85 C88 1.432 . S
C85 C89 1.414 . S
C85 N92 1.359 . S
C86 C88 1.417 . S
C86 C90 1.432 . S
C86 C98 1.410 . S
C87 C89 1.444 . S
C87 C90 1.317 . S
C87 H110 0.929 1_545 S
C88 C85 1.432 . S
C88 C86 1.417 . S
C88 N96 1.360 . S
C89 C85 1.414 . S
C89 C87 1.444 . S
C89 C94 1.385 1_545 S
C90 C86 1.432 . S
C90 C87 1.317 . S
C90 H102 0.930 . S
C91 C93 1.392 1_565 S
C91 C94 1.370 . S
C91 H103 0.931 . S
N92 C85 1.359 . S
N92 C93 1.327 . S
N92 Tb95 2.600 . S
C93 C91 1.392 1_545 S
C93 N92 1.327 . S
C93 H100 0.930 . S
C94 C89 1.385 1_565 S
C94 C91 1.370 . S
C94 H113 0.930 . S
Tb95 N92 2.600 . S
Tb95 N96 2.660 . S
Tb95 O129 2.362 . S
Tb95 O130 2.421 . S
Tb95 O134 2.546 . S
Tb95 O135 2.610 . S
Tb95 O137 2.320 . S
Tb95 O138 2.552 . S
Tb95 O139 2.413 . S
Tb95 C159 2.833 . S
N96 C88 1.360 . S
N96 Tb95 2.660 . S
N96 C97 1.305 . S
C97 N96 1.305 . S
C97 C99 1.407 . S
C97 H104 0.930 . S
C98 C86 1.410 . S
C98 C99 1.345 . S
C98 H106 0.930 . S
C99 C97 1.407 . S
C99 C98 1.345 . S
C99 H101 0.930 . S
H100 C93 0.930 . S
H101 C99 0.930 . S
H102 C90 0.930 . S
H103 C91 0.931 . S
H104 C97 0.930 . S
H105 C119 0.930 . S
H106 C98 0.930 . S
H107 C125 0.930 . S
H108 C116 0.930 . S
H109 C123 0.931 . S
H110 C87 0.929 1_565 S
H111 C117 0.930 . S
H112 C150 0.930 . S
H113 C94 0.930 . S
H114 C149 0.929 . S
N115 Tb84 2.660 . S
N115 C116 1.305 . S
N115 C120 1.360 . S
C116 H108 0.930 . S
C116 N115 1.305 . S
C116 C119 1.407 . S
C117 H111 0.930 . S
C117 C118 1.410 . S
C117 C119 1.345 . S
C118 C117 1.410 . S
C118 C120 1.417 . S
C118 C150 1.432 . S
C119 H105 0.930 . S
C119 C116 1.407 . S
C119 C117 1.345 . S
C120 N115 1.360 . S
C120 C118 1.417 . S
C120 C124 1.432 . S
H121 C126 0.930 . S
N122 Tb84 2.600 . S
N122 C124 1.359 . S
N122 C125 1.327 . S
C123 H109 0.931 . S
C123 C125 1.392 . S
C123 C126 1.370 . S
C124 C120 1.432 . S
C124 N122 1.359 . S
C124 C127 1.414 . S
C125 H107 0.930 . S
C125 N122 1.327 . S
C125 C123 1.392 . S
C126 H121 0.930 . S
C126 C123 1.370 . S
C126 C127 1.385 . S
C127 C124 1.414 . S
C127 C126 1.385 . S
C127 C149 1.444 . S
O128 Tb84 2.546 . S
O128 C148 1.251 . S
O129 Tb84 2.610 . S
O129 Tb95 2.362 . S
O129 C140 1.283 . S
O130 Tb95 2.421 . S
O130 C147 1.262 . S
O131 Tb84 2.320 . S
O131 C147 1.260 . S
O132 Tb84 2.552 . S
O132 C140 1.243 . S
O133 Tb84 2.413 . S
O133 C148 1.256 . S
O134 Tb95 2.546 . S
O134 C159 1.251 . S
O135 Tb84 2.362 . S
O135 Tb95 2.610 . S
O135 C151 1.283 . S
O136 Tb84 2.421 . S
O136 C158 1.262 . S
O137 Tb95 2.320 . S
O137 C158 1.260 . S
O138 Tb95 2.552 . S
O138 C151 1.243 . S
O139 Tb95 2.413 . S
O139 C159 1.256 . S
C140 O129 1.283 . S
C140 O132 1.243 . S
C141 C143 1.382 . S
C141 C145 1.393 . S
C141 C148 1.500 . S
C142 C143 1.400 . S
C142 C144 1.384 . S
C143 C141 1.382 . S
C143 C142 1.400 . S
C143 H160 0.930 . S
C144 C142 1.384 . S
C144 C146 1.392 . S
C144 H161 0.931 . S
C145 C141 1.393 . S
C145 C146 1.401 . S
C145 H162 0.930 . S
C146 C144 1.392 . S
C146 C145 1.401 . S
C146 H163 0.930 . S
C147 O130 1.262 . S
C147 O131 1.260 . S
C148 Tb84 2.833 . S
C148 O128 1.251 . S
C148 O133 1.256 . S
C148 C141 1.500 . S
C149 H114 0.929 . S
C149 C127 1.444 . S
C149 C150 1.317 . S
C150 H112 0.930 . S
C150 C118 1.432 . S
C150 C149 1.317 . S
C151 O135 1.283 . S
C151 O138 1.243 . S
C152 C153 1.382 . S
C152 C156 1.393 . S
C152 C159 1.500 . S
C153 C152 1.382 . S
C153 C154 1.400 . S
C153 H164 0.930 . S
C154 C153 1.400 . S
C154 C155 1.384 . S
C155 C154 1.384 . S
C155 C157 1.392 . S
C155 H165 0.931 . S
C156 C152 1.393 . S
C156 C157 1.401 . S
C156 H166 0.930 . S
C157 C155 1.392 . S
C157 C156 1.401 . S
C157 H167 0.930 . S
C158 O136 1.262 . S
C158 O137 1.260 . S
C159 Tb95 2.833 . S
C159 O134 1.251 . S
C159 O139 1.256 . S
C159 C152 1.500 . S
H160 C143 0.930 . S
H161 C144 0.931 . S
H162 C145 0.930 . S
H163 C146 0.930 . S
H164 C153 0.930 . S
H165 C155 0.931 . S
H166 C156 0.930 . S
H167 C157 0.930 . S
Tb168 N199 2.660 . S
Tb168 N206 2.600 . S
Tb168 O212 2.546 . S
Tb168 O213 2.610 . S
Tb168 O215 2.320 . S
Tb168 O216 2.552 . S
Tb168 O217 2.413 . S
Tb168 O219 2.362 . S
Tb168 O220 2.421 . S
Tb168 C232 2.833 . S
C169 C172 1.432 . S
C169 C173 1.414 . S
C169 N176 1.359 . S
C170 C172 1.417 . S
C170 C174 1.432 . S
C170 C182 1.410 . S
C171 C173 1.444 . S
C171 C174 1.317 . S
C171 H194 0.929 . S
C172 C169 1.432 . S
C172 C170 1.417 . S
C172 N180 1.360 . S
C173 C169 1.414 . S
C173 C171 1.444 . S
C173 C178 1.385 . S
C174 C170 1.432 . S
C174 C171 1.317 . S
C174 H186 0.930 . S
C175 C177 1.392 . S
C175 C178 1.370 . S
C175 H187 0.931 . S
N176 C169 1.359 . S
N176 C177 1.327 . S
N176 Tb179 2.600 . S
C177 C175 1.392 . S
C177 N176 1.327 . S
C177 H184 0.930 . S
C178 C173 1.385 . S
C178 C175 1.370 . S
C178 H197 0.930 . S
Tb179 N176 2.600 . S
Tb179 N180 2.660 . S
Tb179 O213 2.362 . S
Tb179 O214 2.421 . S
Tb179 O218 2.546 . S
Tb179 O219 2.610 . S
Tb179 O221 2.320 . S
Tb179 O222 2.552 . S
Tb179 O223 2.413 . S
Tb179 C243 2.833 . S
N180 C172 1.360 . S
N180 Tb179 2.660 . S
N180 C181 1.305 . S
C181 N180 1.305 . S
C181 C183 1.407 . S
C181 H188 0.930 . S
C182 C170 1.410 . S
C182 C183 1.345 . S
C182 H190 0.930 . S
C183 C181 1.407 . S
C183 C182 1.345 . S
C183 H185 0.930 . S
H184 C177 0.930 . S
H185 C183 0.930 . S
H186 C174 0.930 . S
H187 C175 0.931 . S
H188 C181 0.930 . S
H189 C203 0.930 . S
H190 C182 0.930 . S
H191 C209 0.930 . S
H192 C200 0.930 . S
H193 C207 0.931 . S
H194 C171 0.929 . S
H195 C201 0.930 . S
H196 C234 0.930 . S
H197 C178 0.930 . S
H198 C233 0.929 . S
N199 Tb168 2.660 . S
N199 C200 1.305 . S
N199 C204 1.360 . S
C200 H192 0.930 . S
C200 N199 1.305 . S
C200 C203 1.407 . S
C201 H195 0.930 . S
C201 C202 1.410 . S
C201 C203 1.345 . S
C202 C201 1.410 . S
C202 C204 1.417 . S
C202 C234 1.432 . S
C203 H189 0.930 . S
C203 C200 1.407 . S
C203 C201 1.345 . S
C204 N199 1.360 . S
C204 C202 1.417 . S
C204 C208 1.432 . S
H205 C210 0.930 . S
N206 Tb168 2.600 . S
N206 C208 1.359 . S
N206 C209 1.327 . S
C207 H193 0.931 . S
C207 C209 1.392 . S
C207 C210 1.370 . S
C208 C204 1.432 . S
C208 N206 1.359 . S
C208 C211 1.414 . S
C209 H191 0.930 . S
C209 N206 1.327 . S
C209 C207 1.392 . S
C210 H205 0.930 . S
C210 C207 1.370 . S
C210 C211 1.385 . S
C211 C208 1.414 . S
C211 C210 1.385 . S
C211 C233 1.444 . S
O212 Tb168 2.546 . S
O212 C232 1.251 . S
O213 Tb168 2.610 . S
O213 Tb179 2.362 . S
O213 C224 1.283 . S
O214 Tb179 2.421 . S
O214 C231 1.262 . S
O215 Tb168 2.320 . S
O215 C231 1.260 . S
O216 Tb168 2.552 . S
O216 C224 1.243 . S
O217 Tb168 2.413 . S
O217 C232 1.256 . S
O218 Tb179 2.546 . S
O218 C243 1.251 . S
O219 Tb168 2.362 . S
O219 Tb179 2.610 . S
O219 C235 1.283 . S
O220 Tb168 2.421 . S
O220 C242 1.262 . S
O221 Tb179 2.320 . S
O221 C242 1.260 . S
O222 Tb179 2.552 . S
O222 C235 1.243 . S
O223 Tb179 2.413 . S
O223 C243 1.256 . S
C224 O213 1.283 . S
C224 O216 1.243 . S
C225 C227 1.382 . S
C225 C229 1.393 . S
C225 C232 1.500 . S
C226 C227 1.400 . S
C226 C228 1.384 . S
C227 C225 1.382 . S
C227 C226 1.400 . S
C227 H244 0.930 . S
C228 C226 1.384 . S
C228 C230 1.392 . S
C228 H245 0.931 . S
C229 C225 1.393 . S
C229 C230 1.401 . S
C229 H246 0.930 . S
C230 C228 1.392 . S
C230 C229 1.401 . S
C230 H247 0.930 . S
C231 O214 1.262 . S
C231 O215 1.260 . S
C232 Tb168 2.833 . S
C232 O212 1.251 . S
C232 O217 1.256 . S
C232 C225 1.500 . S
C233 H198 0.929 . S
C233 C211 1.444 . S
C233 C234 1.317 . S
C234 H196 0.930 . S
C234 C202 1.432 . S
C234 C233 1.317 . S
C235 O219 1.283 . S
C235 O222 1.243 . S
C236 C237 1.382 . S
C236 C240 1.393 . S
C236 C243 1.500 . S
C237 C236 1.382 . S
C237 C238 1.400 . S
C237 H248 0.930 . S
C238 C237 1.400 . S
C238 C239 1.384 . S
C239 C238 1.384 . S
C239 C241 1.392 . S
C239 H249 0.931 . S
C240 C236 1.393 . S
C240 C241 1.401 . S
C240 H250 0.930 . S
C241 C239 1.392 . S
C241 C240 1.401 . S
C241 H251 0.930 . S
C242 O220 1.262 . S
C242 O221 1.260 . S
C243 Tb179 2.833 . S
C243 O218 1.251 . S
C243 O223 1.256 . S
C243 C236 1.500 . S
H244 C227 0.930 . S
H245 C228 0.931 . S
H246 C229 0.930 . S
H247 C230 0.930 . S
H248 C237 0.930 . S
H249 C239 0.931 . S
H250 C240 0.930 . S
H251 C241 0.930 . S
Tb252 N283 2.660 . S
Tb252 N290 2.600 . S
Tb252 O296 2.546 . S
Tb252 O297 2.610 . S
Tb252 O299 2.320 . S
Tb252 O300 2.552 . S
Tb252 O301 2.413 . S
Tb252 O303 2.362 1_554 S
Tb252 O304 2.421 . S
Tb252 C316 2.833 . S
C253 C256 1.432 . S
C253 C257 1.414 . S
C253 N260 1.359 1_554 S
C254 C256 1.417 . S
C254 C258 1.432 . S
C254 C266 1.410 . S
C255 C257 1.444 . S
C255 C258 1.317 . S
C255 H278 0.929 1_655 S
C256 C253 1.432 . S
C256 C254 1.417 . S
C256 N264 1.360 . S
C257 C253 1.414 . S
C257 C255 1.444 . S
C257 C262 1.385 1_654 S
C258 C254 1.432 . S
C258 C255 1.317 . S
C258 H270 0.930 . S
C259 C261 1.392 1_455 S
C259 C262 1.370 . S
C259 H271 0.931 . S
N260 C253 1.359 1_556 S
N260 C261 1.327 . S
N260 Tb263 2.600 . S
C261 C259 1.392 1_655 S
C261 N260 1.327 . S
C261 H268 0.930 . S
C262 C257 1.385 1_456 S
C262 C259 1.370 . S
C262 H281 0.930 . S
Tb263 N260 2.600 . S
Tb263 N264 2.660 1_556 S
Tb263 O297 2.362 1_556 S
Tb263 O298 2.421 . S
Tb263 O302 2.546 . S
Tb263 O303 2.610 . S
Tb263 O305 2.320 1_556 S
Tb263 O306 2.552 . S
Tb263 O307 2.413 . S
Tb263 C327 2.833 . S
N264 C256 1.360 . S
N264 Tb263 2.660 1_554 S
N264 C265 1.305 . S
C265 N264 1.305 . S
C265 C267 1.407 . S
C265 H272 0.930 . S
C266 C254 1.410 . S
C266 C267 1.345 . S
C266 H274 0.930 . S
C267 C265 1.407 . S
C267 C266 1.345 . S
C267 H269 0.930 . S
H268 C261 0.930 . S
H269 C267 0.930 . S
H270 C258 0.930 . S
H271 C259 0.931 . S
H272 C265 0.930 . S
H273 C287 0.930 . S
H274 C266 0.930 . S
H275 C293 0.930 . S
H276 C284 0.930 . S
H277 C291 0.931 . S
H278 C255 0.929 1_455 S
H279 C285 0.930 . S
H280 C318 0.930 . S
H281 C262 0.930 . S
H282 C317 0.929 . S
N283 Tb252 2.660 . S
N283 C284 1.305 1_554 S
N283 C288 1.360 . S
C284 H276 0.930 . S
C284 N283 1.305 1_556 S
C284 C287 1.407 . S
C285 H279 0.930 . S
C285 C286 1.410 . S
C285 C287 1.345 . S
C286 C285 1.410 . S
C286 C288 1.417 1_556 S
C286 C318 1.432 . S
C287 H273 0.930 . S
C287 C284 1.407 . S
C287 C285 1.345 . S
C288 N283 1.360 . S
C288 C286 1.417 1_554 S
C288 C292 1.432 . S
H289 C294 0.930 . S
N290 Tb252 2.600 . S
N290 C292 1.359 . S
N290 C293 1.327 . S
C291 H277 0.931 . S
C291 C293 1.392 . S
C291 C294 1.370 . S
C292 C288 1.432 . S
C292 N290 1.359 . S
C292 C295 1.414 . S
C293 H275 0.930 . S
C293 N290 1.327 . S
C293 C291 1.392 . S
C294 H289 0.930 . S
C294 C291 1.370 . S
C294 C295 1.385 . S
C295 C292 1.414 . S
C295 C294 1.385 . S
C295 C317 1.444 . S
O296 Tb252 2.546 . S
O296 C316 1.251 . S
O297 Tb252 2.610 . S
O297 Tb263 2.362 1_554 S
O297 C308 1.283 . S
O298 Tb263 2.421 . S
O298 C315 1.262 1_556 S
O299 Tb252 2.320 . S
O299 C315 1.260 . S
O300 Tb252 2.552 . S
O300 C308 1.243 . S
O301 Tb252 2.413 . S
O301 C316 1.256 . S
O302 Tb263 2.546 . S
O302 C327 1.251 . S
O303 Tb252 2.362 1_556 S
O303 Tb263 2.610 . S
O303 C319 1.283 . S
O304 Tb252 2.421 . S
O304 C326 1.262 . S
O305 Tb263 2.320 1_554 S
O305 C326 1.260 . S
O306 Tb263 2.552 . S
O306 C319 1.243 . S
O307 Tb263 2.413 . S
O307 C327 1.256 . S
C308 O297 1.283 . S
C308 O300 1.243 . S
C309 C311 1.382 . S
C309 C313 1.393 . S
C309 C316 1.500 . S
C310 C311 1.400 . S
C310 C312 1.384 . S
C311 C309 1.382 . S
C311 C310 1.400 . S
C311 H328 0.930 . S
C312 C310 1.384 . S
C312 C314 1.392 . S
C312 H329 0.931 . S
C313 C309 1.393 . S
C313 C314 1.401 . S
C313 H330 0.930 . S
C314 C312 1.392 . S
C314 C313 1.401 . S
C314 H331 0.930 . S
C315 O298 1.262 1_554 S
C315 O299 1.260 . S
C316 Tb252 2.833 . S
C316 O296 1.251 . S
C316 O301 1.256 . S
C316 C309 1.500 . S
C317 H282 0.929 . S
C317 C295 1.444 . S
C317 C318 1.317 1_554 S
C318 H280 0.930 . S
C318 C286 1.432 . S
C318 C317 1.317 1_556 S
C319 O303 1.283 . S
C319 O306 1.243 . S
C320 C321 1.382 . S
C320 C324 1.393 . S
C320 C327 1.500 . S
C321 C320 1.382 . S
C321 C322 1.400 . S
C321 H332 0.930 . S
C322 C321 1.400 . S
C322 C323 1.384 . S
C323 C322 1.384 . S
C323 C325 1.392 . S
C323 H333 0.931 . S
C324 C320 1.393 . S
C324 C325 1.401 . S
C324 H334 0.930 . S
C325 C323 1.392 . S
C325 C324 1.401 . S
C325 H335 0.930 . S
C326 O304 1.262 . S
C326 O305 1.260 . S
C327 Tb263 2.833 . S
C327 O302 1.251 . S
C327 O307 1.256 . S
C327 C320 1.500 . S
H328 C311 0.930 . S
H329 C312 0.931 . S
H330 C313 0.930 . S
H331 C314 0.930 . S
H332 C321 0.930 . S
H333 C323 0.931 . S
H334 C324 0.930 . S
H335 C325 0.930 . S
Tb336 N367 2.660 . S
Tb336 N374 2.600 . S
Tb336 O380 2.546 . S
Tb336 O381 2.610 . S
Tb336 O383 2.320 . S
Tb336 O384 2.552 . S
Tb336 O385 2.413 . S
Tb336 O387 2.362 . S
Tb336 O388 2.421 . S
Tb336 C400 2.833 . S
C337 C340 1.432 . S
C337 C341 1.414 . S
C337 N344 1.359 . S
C338 C340 1.417 . S
C338 C342 1.432 . S
C338 C350 1.410 . S
C339 C341 1.444 . S
C339 C342 1.317 . S
C339 H362 0.929 1_565 S
C340 C337 1.432 . S
C340 C338 1.417 . S
C340 N348 1.360 . S
C341 C337 1.414 . S
C341 C339 1.444 . S
C341 C346 1.385 1_565 S
C342 C338 1.432 . S
C342 C339 1.317 . S
C342 H354 0.930 . S
C343 C345 1.392 1_545 S
C343 C346 1.370 . S
C343 H355 0.931 . S
N344 C337 1.359 . S
N344 C345 1.327 . S
N344 Tb347 2.600 . S
C345 C343 1.392 1_565 S
C345 N344 1.327 . S
C345 H352 0.930 . S
C346 C341 1.385 1_545 S
C346 C343 1.370 . S
C346 H365 0.930 . S
Tb347 N344 2.600 . S
Tb347 N348 2.660 . S
Tb347 O381 2.362 . S
Tb347 O382 2.421 . S
Tb347 O386 2.546 . S
Tb347 O387 2.610 . S
Tb347 O389 2.320 . S
Tb347 O390 2.552 . S
Tb347 O391 2.413 . S
Tb347 C411 2.833 . S
N348 C340 1.360 . S
N348 Tb347 2.660 . S
N348 C349 1.305 . S
C349 N348 1.305 . S
C349 C351 1.407 . S
C349 H356 0.930 . S
C350 C338 1.410 . S
C350 C351 1.345 . S
C350 H358 0.930 . S
C351 C349 1.407 . S
C351 C350 1.345 . S
C351 H353 0.930 . S
H352 C345 0.930 . S
H353 C351 0.930 . S
H354 C342 0.930 . S
H355 C343 0.931 . S
H356 C349 0.930 . S
H357 C371 0.930 . S
H358 C350 0.930 . S
H359 C377 0.930 . S
H360 C368 0.930 . S
H361 C375 0.931 . S
H362 C339 0.929 1_545 S
H363 C369 0.930 . S
H364 C402 0.930 . S
H365 C346 0.930 . S
H366 C401 0.929 . S
N367 Tb336 2.660 . S
N367 C368 1.305 . S
N367 C372 1.360 . S
C368 H360 0.930 . S
C368 N367 1.305 . S
C368 C371 1.407 . S
C369 H363 0.930 . S
C369 C370 1.410 . S
C369 C371 1.345 . S
C370 C369 1.410 . S
C370 C372 1.417 . S
C370 C402 1.432 . S
C371 H357 0.930 . S
C371 C368 1.407 . S
C371 C369 1.345 . S
C372 N367 1.360 . S
C372 C370 1.417 . S
C372 C376 1.432 . S
H373 C378 0.930 . S
N374 Tb336 2.600 . S
N374 C376 1.359 . S
N374 C377 1.327 . S
C375 H361 0.931 . S
C375 C377 1.392 . S
C375 C378 1.370 . S
C376 C372 1.432 . S
C376 N374 1.359 . S
C376 C379 1.414 . S
C377 H359 0.930 . S
C377 N374 1.327 . S
C377 C375 1.392 . S
C378 H373 0.930 . S
C378 C375 1.370 . S
C378 C379 1.385 . S
C379 C376 1.414 . S
C379 C378 1.385 . S
C379 C401 1.444 . S
O380 Tb336 2.546 . S
O380 C400 1.251 . S
O381 Tb336 2.610 . S
O381 Tb347 2.362 . S
O381 C392 1.283 . S
O382 Tb347 2.421 . S
O382 C399 1.262 . S
O383 Tb336 2.320 . S
O383 C399 1.260 . S
O384 Tb336 2.552 . S
O384 C392 1.243 . S
O385 Tb336 2.413 . S
O385 C400 1.256 . S
O386 Tb347 2.546 . S
O386 C411 1.251 . S
O387 Tb336 2.362 . S
O387 Tb347 2.610 . S
O387 C403 1.283 . S
O388 Tb336 2.421 . S
O388 C410 1.262 . S
O389 Tb347 2.320 . S
O389 C410 1.260 . S
O390 Tb347 2.552 . S
O390 C403 1.243 . S
O391 Tb347 2.413 . S
O391 C411 1.256 . S
C392 O381 1.283 . S
C392 O384 1.243 . S
C393 C395 1.382 . S
C393 C397 1.393 . S
C393 C400 1.500 . S
C394 C395 1.400 . S
C394 C396 1.384 . S
C395 C393 1.382 . S
C395 C394 1.400 . S
C395 H412 0.930 . S
C396 C394 1.384 . S
C396 C398 1.392 . S
C396 H413 0.931 . S
C397 C393 1.393 . S
C397 C398 1.401 . S
C397 H414 0.930 . S
C398 C396 1.392 . S
C398 C397 1.401 . S
C398 H415 0.930 . S
C399 O382 1.262 . S
C399 O383 1.260 . S
C400 Tb336 2.833 . S
C400 O380 1.251 . S
C400 O385 1.256 . S
C400 C393 1.500 . S
C401 H366 0.929 . S
C401 C379 1.444 . S
C401 C402 1.317 . S
C402 H364 0.930 . S
C402 C370 1.432 . S
C402 C401 1.317 . S
C403 O387 1.283 . S
C403 O390 1.243 . S
C404 C405 1.382 . S
C404 C408 1.393 . S
C404 C411 1.500 . S
C405 C404 1.382 . S
C405 C406 1.400 . S
C405 H416 0.930 . S
C406 C405 1.400 . S
C406 C407 1.384 . S
C407 C406 1.384 . S
C407 C409 1.392 . S
C407 H417 0.931 . S
C408 C404 1.393 . S
C408 C409 1.401 . S
C408 H418 0.930 . S
C409 C407 1.392 . S
C409 C408 1.401 . S
C409 H419 0.930 . S
C410 O388 1.262 . S
C410 O389 1.260 . S
C411 Tb347 2.833 . S
C411 O386 1.251 . S
C411 O391 1.256 . S
C411 C404 1.500 . S
H412 C395 0.930 . S
H413 C396 0.931 . S
H414 C397 0.930 . S
H415 C398 0.930 . S
H416 C405 0.930 . S
H417 C407 0.931 . S
H418 C408 0.930 . S
H419 C409 0.930 . S
Tb420 N451 2.660 . S
Tb420 N458 2.600 . S
Tb420 O464 2.546 . S
Tb420 O465 2.610 . S
Tb420 O467 2.320 . S
Tb420 O468 2.552 . S
Tb420 O469 2.413 . S
Tb420 O471 2.362 . S
Tb420 O472 2.421 . S
Tb420 C484 2.833 . S
C421 C424 1.432 . S
C421 C425 1.414 . S
C421 N428 1.359 . S
C422 C424 1.417 . S
C422 C426 1.432 . S
C422 C434 1.410 . S
C423 C425 1.444 . S
C423 C426 1.317 . S
C423 H446 0.929 . S
C424 C421 1.432 . S
C424 C422 1.417 . S
C424 N432 1.360 . S
C425 C421 1.414 . S
C425 C423 1.444 . S
C425 C430 1.385 . S
C426 C422 1.432 . S
C426 C423 1.317 . S
C426 H438 0.930 . S
C427 C429 1.392 . S
C427 C430 1.370 . S
C427 H439 0.931 . S
N428 C421 1.359 . S
N428 C429 1.327 . S
N428 Tb431 2.600 . S
C429 C427 1.392 . S
C429 N428 1.327 . S
C429 H436 0.930 . S
C430 C425 1.385 . S
C430 C427 1.370 . S
C430 H449 0.930 . S
Tb431 N428 2.600 . S
Tb431 N432 2.660 . S
Tb431 O465 2.362 . S
Tb431 O466 2.421 . S
Tb431 O470 2.546 . S
Tb431 O471 2.610 . S
Tb431 O473 2.320 . S
Tb431 O474 2.552 . S
Tb431 O475 2.413 . S
Tb431 C495 2.833 . S
N432 C424 1.360 . S
N432 Tb431 2.660 . S
N432 C433 1.305 . S
C433 N432 1.305 . S
C433 C435 1.407 . S
C433 H440 0.930 . S
C434 C422 1.410 . S
C434 C435 1.345 . S
C434 H442 0.930 . S
C435 C433 1.407 . S
C435 C434 1.345 . S
C435 H437 0.930 . S
H436 C429 0.930 . S
H437 C435 0.930 . S
H438 C426 0.930 . S
H439 C427 0.931 . S
H440 C433 0.930 . S
H441 C455 0.930 . S
H442 C434 0.930 . S
H443 C461 0.930 . S
H444 C452 0.930 . S
H445 C459 0.931 . S
H446 C423 0.929 . S
H447 C453 0.930 . S
H448 C486 0.930 . S
H449 C430 0.930 . S
H450 C485 0.929 . S
N451 Tb420 2.660 . S
N451 C452 1.305 . S
N451 C456 1.360 . S
C452 H444 0.930 . S
C452 N451 1.305 . S
C452 C455 1.407 . S
C453 H447 0.930 . S
C453 C454 1.410 . S
C453 C455 1.345 . S
C454 C453 1.410 . S
C454 C456 1.417 . S
C454 C486 1.432 . S
C455 H441 0.930 . S
C455 C452 1.407 . S
C455 C453 1.345 . S
C456 N451 1.360 . S
C456 C454 1.417 . S
C456 C460 1.432 . S
H457 C462 0.930 . S
N458 Tb420 2.600 . S
N458 C460 1.359 . S
N458 C461 1.327 . S
C459 H445 0.931 . S
C459 C461 1.392 . S
C459 C462 1.370 . S
C460 C456 1.432 . S
C460 N458 1.359 . S
C460 C463 1.414 . S
C461 H443 0.930 . S
C461 N458 1.327 . S
C461 C459 1.392 . S
C462 H457 0.930 . S
C462 C459 1.370 . S
C462 C463 1.385 . S
C463 C460 1.414 . S
C463 C462 1.385 . S
C463 C485 1.444 . S
O464 Tb420 2.546 . S
O464 C484 1.251 . S
O465 Tb420 2.610 . S
O465 Tb431 2.362 . S
O465 C476 1.283 . S
O466 Tb431 2.421 . S
O466 C483 1.262 . S
O467 Tb420 2.320 . S
O467 C483 1.260 . S
O468 Tb420 2.552 . S
O468 C476 1.243 . S
O469 Tb420 2.413 . S
O469 C484 1.256 . S
O470 Tb431 2.546 . S
O470 C495 1.251 . S
O471 Tb420 2.362 . S
O471 Tb431 2.610 . S
O471 C487 1.283 . S
O472 Tb420 2.421 . S
O472 C494 1.262 . S
O473 Tb431 2.320 . S
O473 C494 1.260 . S
O474 Tb431 2.552 . S
O474 C487 1.243 . S
O475 Tb431 2.413 . S
O475 C495 1.256 . S
C476 O465 1.283 . S
C476 O468 1.243 . S
C477 C479 1.382 . S
C477 C481 1.393 . S
C477 C484 1.500 . S
C478 C479 1.400 . S
C478 C480 1.384 . S
C479 C477 1.382 . S
C479 C478 1.400 . S
C479 H496 0.930 . S
C480 C478 1.384 . S
C480 C482 1.392 . S
C480 H497 0.931 . S
C481 C477 1.393 . S
C481 C482 1.401 . S
C481 H498 0.930 . S
C482 C480 1.392 . S
C482 C481 1.401 . S
C482 H499 0.930 . S
C483 O466 1.262 . S
C483 O467 1.260 . S
C484 Tb420 2.833 . S
C484 O464 1.251 . S
C484 O469 1.256 . S
C484 C477 1.500 . S
C485 H450 0.929 . S
C485 C463 1.444 . S
C485 C486 1.317 . S
C486 H448 0.930 . S
C486 C454 1.432 . S
C486 C485 1.317 . S
C487 O471 1.283 . S
C487 O474 1.243 . S
C488 C489 1.382 . S
C488 C492 1.393 . S
C488 C495 1.500 . S
C489 C488 1.382 . S
C489 C490 1.400 . S
C489 H500 0.930 . S
C490 C489 1.400 . S
C490 C491 1.384 . S
C491 C490 1.384 . S
C491 C493 1.392 . S
C491 H501 0.931 . S
C492 C488 1.393 . S
C492 C493 1.401 . S
C492 H502 0.930 . S
C493 C491 1.392 . S
C493 C492 1.401 . S
C493 H503 0.930 . S
C494 O472 1.262 . S
C494 O473 1.260 . S
C495 Tb431 2.833 . S
C495 O470 1.251 . S
C495 O475 1.256 . S
C495 C488 1.500 . S
H496 C479 0.930 . S
H497 C480 0.931 . S
H498 C481 0.930 . S
H499 C482 0.930 . S
H500 C489 0.930 . S
H501 C491 0.931 . S
H502 C492 0.930 . S
H503 C493 0.930 . S
H504 C510 0.930 . S
H505 C514 0.930 . S
H506 C519 0.929 . S
H507 C517 0.929 . S
H508 C512 0.929 . S
H509 C518 0.929 . S
C510 H504 0.930 . S
C510 C511 1.367 . S
C510 C518 1.378 . S
C511 C510 1.367 . S
C511 C519 1.433 . S
C512 H508 0.929 . S
C512 C514 1.378 . S
C512 C516 1.350 . S
C513 C516 1.463 . S
C513 C518 1.350 . S
C513 N521 1.427 . S
C514 H505 0.930 . S
C514 C512 1.378 . S
C514 C515 1.367 . S
C515 C514 1.367 . S
C515 C517 1.433 . S
C516 C512 1.350 . S
C516 C513 1.463 . S
C516 N520 1.427 . S
C517 H507 0.929 . S
C517 C515 1.433 . S
C517 N520 1.384 . S
C518 H509 0.929 . S
C518 C510 1.378 . S
C518 C513 1.350 . S
C519 H506 0.929 . S
C519 C511 1.433 . S
C519 N521 1.384 . S
N520 C516 1.427 . S
N520 C517 1.384 . S
N521 C513 1.427 . S
N521 C519 1.384 . S
H522 C528 0.930 . S
H523 C532 0.930 . S
H524 C537 0.929 . S
H525 C535 0.929 . S
H526 C530 0.929 . S
H527 C536 0.929 . S
C528 H522 0.930 . S
C528 C529 1.367 . S
C528 C536 1.378 . S
C529 C528 1.367 . S
C529 C537 1.433 . S
C530 H526 0.929 . S
C530 C532 1.378 . S
C530 C534 1.350 . S
C531 C534 1.463 . S
C531 C536 1.350 . S
C531 N539 1.427 . S
C532 H523 0.930 . S
C532 C530 1.378 . S
C532 C533 1.367 . S
C533 C532 1.367 . S
C533 C535 1.433 . S
C534 C530 1.350 . S
C534 C531 1.463 . S
C534 N538 1.427 . S
C535 H525 0.929 . S
C535 C533 1.433 . S
C535 N538 1.384 . S
C536 H527 0.929 . S
C536 C528 1.378 . S
C536 C531 1.350 . S
C537 H524 0.929 . S
C537 C529 1.433 . S
C537 N539 1.384 . S
N538 C534 1.427 . S
N538 C535 1.384 . S
N539 C531 1.427 . S
N539 C537 1.384 . S
H540 C546 0.930 . S
H541 C550 0.930 . S
H542 C555 0.929 . S
H543 C553 0.929 . S
H544 C548 0.929 . S
H545 C554 0.929 . S
C546 H540 0.930 . S
C546 C547 1.367 . S
C546 C554 1.378 . S
C547 C546 1.367 . S
C547 C555 1.433 . S
C548 H544 0.929 . S
C548 C550 1.378 . S
C548 C552 1.350 . S
C549 C552 1.463 . S
C549 C554 1.350 . S
C549 N557 1.427 . S
C550 H541 0.930 . S
C550 C548 1.378 . S
C550 C551 1.367 . S
C551 C550 1.367 . S
C551 C553 1.433 . S
C552 C548 1.350 . S
C552 C549 1.463 . S
C552 N556 1.427 . S
C553 H543 0.929 . S
C553 C551 1.433 . S
C553 N556 1.384 . S
C554 H545 0.929 . S
C554 C546 1.378 . S
C554 C549 1.350 . S
C555 H542 0.929 . S
C555 C547 1.433 . S
C555 N557 1.384 . S
N556 C552 1.427 . S
N556 C553 1.384 . S
N557 C549 1.427 . S
N557 C555 1.384 . S
H558 C564 0.930 . S
H559 C568 0.930 . S
H560 C573 0.929 . S
H561 C571 0.929 . S
H562 C566 0.929 . S
H563 C572 0.929 . S
C564 H558 0.930 . S
C564 C565 1.367 . S
C564 C572 1.378 . S
C565 C564 1.367 . S
C565 C573 1.433 . S
C566 H562 0.929 . S
C566 C568 1.378 . S
C566 C570 1.350 . S
C567 C570 1.463 . S
C567 C572 1.350 . S
C567 N575 1.427 . S
C568 H559 0.930 . S
C568 C566 1.378 . S
C568 C569 1.367 . S
C569 C568 1.367 . S
C569 C571 1.433 . S
C570 C566 1.350 . S
C570 C567 1.463 . S
C570 N574 1.427 . S
C571 H561 0.929 . S
C571 C569 1.433 . S
C571 N574 1.384 . S
C572 H563 0.929 . S
C572 C564 1.378 . S
C572 C567 1.350 . S
C573 H560 0.929 . S
C573 C565 1.433 . S
C573 N575 1.384 . S
N574 C570 1.427 . S
N574 C571 1.384 . S
N575 C567 1.427 . S
N575 C573 1.384 . S
H576 C582 0.930 . S
H577 C586 0.930 . S
H578 C591 0.929 . S
H579 C589 0.929 . S
H580 C584 0.929 . S
H581 C590 0.929 . S
C582 H576 0.930 . S
C582 C583 1.367 . S
C582 C590 1.378 . S
C583 C582 1.367 . S
C583 C591 1.433 . S
C584 H580 0.929 . S
C584 C586 1.378 . S
C584 C588 1.350 . S
C585 C588 1.463 . S
C585 C590 1.350 . S
C585 N593 1.427 . S
C586 H577 0.930 . S
C586 C584 1.378 . S
C586 C587 1.367 . S
C587 C586 1.367 . S
C587 C589 1.433 . S
C588 C584 1.350 . S
C588 C585 1.463 . S
C588 N592 1.427 . S
C589 H579 0.929 . S
C589 C587 1.433 . S
C589 N592 1.384 . S
C590 H581 0.929 . S
C590 C582 1.378 . S
C590 C585 1.350 . S
C591 H578 0.929 . S
C591 C583 1.433 . S
C591 N593 1.384 . S
N592 C588 1.427 . S
N592 C589 1.384 . S
N593 C585 1.427 . S
N593 C591 1.384 . S
H594 C600 0.930 . S
H595 C604 0.930 . S
H596 C609 0.929 . S
H597 C607 0.929 . S
H598 C602 0.929 . S
H599 C608 0.929 . S
C600 H594 0.930 . S
C600 C601 1.367 . S
C600 C608 1.378 . S
C601 C600 1.367 . S
C601 C609 1.433 . S
C602 H598 0.929 . S
C602 C604 1.378 . S
C602 C606 1.350 . S
C603 C606 1.463 . S
C603 C608 1.350 . S
C603 N611 1.427 . S
C604 H595 0.930 . S
C604 C602 1.378 . S
C604 C605 1.367 . S
C605 C604 1.367 . S
C605 C607 1.433 . S
C606 C602 1.350 . S
C606 C603 1.463 . S
C606 N610 1.427 . S
C607 H597 0.929 . S
C607 C605 1.433 . S
C607 N610 1.384 . S
C608 H599 0.929 . S
C608 C600 1.378 . S
C608 C603 1.350 . S
C609 H596 0.929 . S
C609 C601 1.433 . S
C609 N611 1.384 . S
N610 C606 1.427 . S
N610 C607 1.384 . S
N611 C603 1.427 . S
N611 C609 1.384 . S
H612 C618 0.930 . S
H613 C622 0.930 . S
H614 C627 0.929 . S
H615 C625 0.929 . S
H616 C620 0.929 . S
H617 C626 0.929 . S
C618 H612 0.930 . S
C618 C619 1.367 1_556 S
C618 C626 1.378 . S
C619 C618 1.367 1_554 S
C619 C627 1.433 . S
C620 H616 0.929 . S
C620 C622 1.378 . S
C620 C624 1.350 . S
C621 C624 1.463 . S
C621 C626 1.350 1_554 S
C621 N629 1.427 . S
C622 H613 0.930 . S
C622 C620 1.378 . S
C622 C623 1.367 . S
C623 C622 1.367 . S
C623 C625 1.433 1_554 S
C624 C620 1.350 . S
C624 C621 1.463 . S
C624 N628 1.427 1_554 S
C625 H615 0.929 . S
C625 C623 1.433 1_556 S
C625 N628 1.384 . S
C626 H617 0.929 . S
C626 C618 1.378 . S
C626 C621 1.350 1_556 S
C627 H614 0.929 . S
C627 C619 1.433 . S
C627 N629 1.384 . S
N628 C624 1.427 1_556 S
N628 C625 1.384 . S
N629 C621 1.427 . S
N629 C627 1.384 . S
H630 C636 0.930 . S
H631 C640 0.930 . S
H632 C645 0.929 . S
H633 C643 0.929 . S
H634 C638 0.929 . S
H635 C644 0.929 . S
C636 H630 0.930 . S
C636 C637 1.367 . S
C636 C644 1.378 1_455 S
C637 C636 1.367 . S
C637 C645 1.433 . S
C638 H634 0.929 . S
C638 C640 1.378 1_455 S
C638 C642 1.350 1_455 S
C639 C642 1.463 1_455 S
C639 C644 1.350 1_455 S
C639 N647 1.427 . S
C640 H631 0.930 . S
C640 C638 1.378 1_655 S
C640 C641 1.367 . S
C641 C640 1.367 . S
C641 C643 1.433 . S
C642 C638 1.350 1_655 S
C642 C639 1.463 1_655 S
C642 N646 1.427 . S
C643 H633 0.929 . S
C643 C641 1.433 . S
C643 N646 1.384 . S
C644 H635 0.929 . S
C644 C636 1.378 1_655 S
C644 C639 1.350 1_655 S
C645 H632 0.929 . S
C645 C637 1.433 . S
C645 N647 1.384 . S
N646 C642 1.427 . S
N646 C643 1.384 . S
N647 C639 1.427 . S
N647 C645 1.384 . S
H648 C654 0.930 1_565 S
H649 C658 0.930 1_545 S
H650 C663 0.929 . S
H651 C661 0.929 . S
H652 C656 0.929 . S
H653 C662 0.929 . S
C654 H648 0.930 1_545 S
C654 C655 1.367 . S
C654 C662 1.378 1_545 S
C655 C654 1.367 . S
C655 C663 1.433 . S
C656 H652 0.929 . S
C656 C658 1.378 1_545 S
C656 C660 1.350 1_545 S
C657 C660 1.463 1_545 S
C657 C662 1.350 1_545 S
C657 N665 1.427 . S
C658 H649 0.930 1_565 S
C658 C656 1.378 1_565 S
C658 C659 1.367 . S
C659 C658 1.367 . S
C659 C661 1.433 . S
C660 C656 1.350 1_565 S
C660 C657 1.463 1_565 S
C660 N664 1.427 . S
C661 H651 0.929 . S
C661 C659 1.433 . S
C661 N664 1.384 . S
C662 H653 0.929 . S
C662 C654 1.378 1_565 S
C662 C657 1.350 1_565 S
C663 H650 0.929 . S
C663 C655 1.433 . S
C663 N665 1.384 . S
N664 C660 1.427 . S
N664 C661 1.384 . S
N665 C657 1.427 . S
N665 C663 1.384 . S
H666 C672 0.930 . S
H667 C676 0.930 . S
H668 C681 0.929 . S
H669 C679 0.929 . S
H670 C674 0.929 . S
H671 C680 0.929 . S
C672 H666 0.930 . S
C672 C673 1.367 . S
C672 C680 1.378 . S
C673 C672 1.367 . S
C673 C681 1.433 . S
C674 H670 0.929 . S
C674 C676 1.378 . S
C674 C678 1.350 . S
C675 C678 1.463 . S
C675 C680 1.350 . S
C675 N683 1.427 . S
C676 H667 0.930 . S
C676 C674 1.378 . S
C676 C677 1.367 . S
C677 C676 1.367 . S
C677 C679 1.433 . S
C678 C674 1.350 . S
C678 C675 1.463 . S
C678 N682 1.427 . S
C679 H669 0.929 . S
C679 C677 1.433 . S
C679 N682 1.384 . S
C680 H671 0.929 . S
C680 C672 1.378 . S
C680 C675 1.350 . S
C681 H668 0.929 . S
C681 C673 1.433 . S
C681 N683 1.384 . S
N682 C678 1.427 . S
N682 C679 1.384 . S
N683 C675 1.427 . S
N683 C681 1.384 . S
H684 C690 0.930 . S
H685 C694 0.930 . S
H686 C699 0.929 . S
H687 C697 0.929 . S
H688 C692 0.929 . S
H689 C698 0.929 . S
C690 H684 0.930 . S
C690 C691 1.367 1_556 S
C690 C698 1.378 . S
C691 C690 1.367 1_554 S
C691 C699 1.433 . S
C692 H688 0.929 . S
C692 C694 1.378 . S
C692 C696 1.350 . S
C693 C696 1.463 1_455 S
C693 C698 1.350 1_554 S
C693 N701 1.427 . S
C694 H685 0.930 . S
C694 C692 1.378 . S
C694 C695 1.367 . S
C695 C694 1.367 . S
C695 C697 1.433 1_554 S
C696 C692 1.350 . S
C696 C693 1.463 1_655 S
C696 N700 1.427 1_554 S
C697 H687 0.929 . S
C697 C695 1.433 1_556 S
C697 N700 1.384 . S
C698 H689 0.929 . S
C698 C690 1.378 . S
C698 C693 1.350 1_556 S
C699 H686 0.929 . S
C699 C691 1.433 . S
C699 N701 1.384 . S
N700 C696 1.427 1_556 S
N700 C697 1.384 . S
N701 C693 1.427 . S
N701 C699 1.384 . S
H702 C708 0.930 . S
H703 C712 0.930 . S
H704 C717 0.929 . S
H705 C715 0.929 . S
H706 C710 0.929 . S
H707 C716 0.929 . S
C708 H702 0.930 . S
C708 C709 1.367 . S
C708 C716 1.378 1_565 S
C709 C708 1.367 . S
C709 C717 1.433 . S
C710 H706 0.929 . S
C710 C712 1.378 1_565 S
C710 C714 1.350 1_565 S
C711 C714 1.463 1_565 S
C711 C716 1.350 1_565 S
C711 N719 1.427 . S
C712 H703 0.930 . S
C712 C710 1.378 1_545 S
C712 C713 1.367 . S
C713 C712 1.367 . S
C713 C715 1.433 . S
C714 C710 1.350 1_545 S
C714 C711 1.463 1_545 S
C714 N718 1.427 . S
C715 H705 0.929 . S
C715 C713 1.433 . S
C715 N718 1.384 . S
C716 H707 0.929 . S
C716 C708 1.378 1_545 S
C716 C711 1.350 1_545 S
C717 H704 0.929 . S
C717 C709 1.433 . S
C717 N719 1.384 . S
N718 C714 1.427 . S
N718 C715 1.384 . S
N719 C711 1.427 . S
N719 C717 1.384 . S
H720 C726 0.930 . S
H721 C730 0.930 . S
H722 C735 0.929 . S
H723 C733 0.929 . S
H724 C728 0.929 . S
H725 C734 0.929 . S
C726 H720 0.930 . S
C726 C727 1.367 . S
C726 C734 1.378 . S
C727 C726 1.367 . S
C727 C735 1.433 . S
C728 H724 0.929 . S
C728 C730 1.378 . S
C728 C732 1.350 . S
C729 C732 1.463 . S
C729 C734 1.350 . S
C729 N737 1.427 . S
C730 H721 0.930 . S
C730 C728 1.378 . S
C730 C731 1.367 . S
C731 C730 1.367 . S
C731 C733 1.433 . S
C732 C728 1.350 . S
C732 C729 1.463 . S
C732 N736 1.427 . S
C733 H723 0.929 . S
C733 C731 1.433 . S
C733 N736 1.384 . S
C734 H725 0.929 . S
C734 C726 1.378 . S
C734 C729 1.350 . S
C735 H722 0.929 . S
C735 C727 1.433 . S
C735 N737 1.384 . S
N736 C732 1.427 . S
N736 C733 1.384 . S
N737 C729 1.427 . S
N737 C735 1.384 . S
H738 C744 0.930 . S
H739 C748 0.930 . S
H740 C753 0.929 . S
H741 C751 0.929 . S
H742 C746 0.929 . S
H743 C752 0.929 . S
C744 H738 0.930 . S
C744 C745 1.367 . S
C744 C752 1.378 . S
C745 C744 1.367 . S
C745 C753 1.433 1_455 S
C746 H742 0.929 . S
C746 C748 1.378 . S
C746 C750 1.350 . S
C747 C750 1.463 . S
C747 C752 1.350 . S
C747 N755 1.427 . S
C748 H739 0.930 . S
C748 C746 1.378 . S
C748 C749 1.367 . S
C749 C748 1.367 . S
C749 C751 1.433 . S
C750 C746 1.350 . S
C750 C747 1.463 . S
C750 N754 1.427 . S
C751 H741 0.929 . S
C751 C749 1.433 . S
C751 N754 1.384 . S
C752 H743 0.929 . S
C752 C744 1.378 . S
C752 C747 1.350 . S
C753 H740 0.929 . S
C753 C745 1.433 1_655 S
C753 N755 1.384 1_655 S
N754 C750 1.427 . S
N754 C751 1.384 . S
N755 C747 1.427 . S
N755 C753 1.384 1_455 S
H756 C762 0.930 . S
H757 C766 0.930 . S
H758 C771 0.929 . S
H759 C769 0.929 . S
H760 C764 0.929 . S
H761 C770 0.929 . S
C762 H756 0.930 . S
C762 C763 1.367 . S
C762 C770 1.378 . S
C763 C762 1.367 . S
C763 C771 1.433 1_545 S
C764 H760 0.929 . S
C764 C766 1.378 . S
C764 C768 1.350 . S
C765 C768 1.463 . S
C765 C770 1.350 . S
C765 N773 1.427 . S
C766 H757 0.930 . S
C766 C764 1.378 . S
C766 C767 1.367 . S
C767 C766 1.367 . S
C767 C769 1.433 . S
C768 C764 1.350 . S
C768 C765 1.463 . S
C768 N772 1.427 . S
C769 H759 0.929 . S
C769 C767 1.433 . S
C769 N772 1.384 . S
C770 H761 0.929 . S
C770 C762 1.378 . S
C770 C765 1.350 . S
C771 H758 0.929 . S
C771 C763 1.433 1_565 S
C771 N773 1.384 1_565 S
N772 C768 1.427 . S
N772 C769 1.384 . S
N773 C765 1.427 . S
N773 C771 1.384 1_545 S
H774 C780 0.930 . S
H775 C784 0.930 . S
H776 C789 0.929 . S
H777 C787 0.929 . S
H778 C782 0.929 . S
H779 C788 0.929 . S
C780 H774 0.930 . S
C780 C781 1.367 . S
C780 C788 1.378 . S
C781 C780 1.367 . S
C781 C789 1.433 . S
C782 H778 0.929 . S
C782 C784 1.378 . S
C782 C786 1.350 . S
C783 C786 1.463 . S
C783 C788 1.350 . S
C783 N791 1.427 . S
C784 H775 0.930 . S
C784 C782 1.378 . S
C784 C785 1.367 . S
C785 C784 1.367 . S
C785 C787 1.433 . S
C786 C782 1.350 . S
C786 C783 1.463 . S
C786 N790 1.427 . S
C787 H777 0.929 . S
C787 C785 1.433 . S
C787 N790 1.384 . S
C788 H779 0.929 . S
C788 C780 1.378 . S
C788 C783 1.350 . S
C789 H776 0.929 . S
C789 C781 1.433 . S
C789 N791 1.384 . S
N790 C786 1.427 . S
N790 C787 1.384 . S
N791 C783 1.427 . S
N791 C789 1.384 . S
H792 C798 0.930 . S
H793 C802 0.930 . S
H794 C807 0.929 . S
H795 C805 0.929 . S
H796 C800 0.929 . S
H797 C806 0.929 . S
C798 H792 0.930 . S
C798 C799 1.367 . S
C798 C806 1.378 . S
C799 C798 1.367 . S
C799 C807 1.433 . S
C800 H796 0.929 . S
C800 C802 1.378 . S
C800 C804 1.350 . S
C801 C804 1.463 . S
C801 C806 1.350 . S
C801 N809 1.427 . S
C802 H793 0.930 . S
C802 C800 1.378 . S
C802 C803 1.367 . S
C803 C802 1.367 . S
C803 C805 1.433 . S
C804 C800 1.350 . S
C804 C801 1.463 . S
C804 N808 1.427 . S
C805 H795 0.929 . S
C805 C803 1.433 . S
C805 N808 1.384 . S
C806 H797 0.929 . S
C806 C798 1.378 . S
C806 C801 1.350 . S
C807 H794 0.929 . S
C807 C799 1.433 . S
C807 N809 1.384 . S
N808 C804 1.427 . S
N808 C805 1.384 . S
N809 C801 1.427 . S
N809 C807 1.384 . S
H810 C816 0.930 . S
H811 C820 0.930 . S
H812 C825 0.929 . S
H813 C823 0.929 . S
H814 C818 0.929 . S
H815 C824 0.929 1_545 S
C816 H810 0.930 . S
C816 C817 1.367 1_545 S
C816 C824 1.378 1_545 S
C817 C816 1.367 1_565 S
C817 C825 1.433 . S
C818 H814 0.929 . S
C818 C820 1.378 . S
C818 C822 1.350 . S
C819 C822 1.463 . S
C819 C824 1.350 . S
C819 N827 1.427 . S
C820 H811 0.930 . S
C820 C818 1.378 . S
C820 C821 1.367 . S
C821 C820 1.367 . S
C821 C823 1.433 . S
C822 C818 1.350 . S
C822 C819 1.463 . S
C822 N826 1.427 . S
C823 H813 0.929 . S
C823 C821 1.433 . S
C823 N826 1.384 . S
C824 H815 0.929 1_565 S
C824 C816 1.378 1_565 S
C824 C819 1.350 . S
C825 H812 0.929 . S
C825 C817 1.433 . S
C825 N827 1.384 . S
N826 C822 1.427 . S
N826 C823 1.384 . S
N827 C819 1.427 . S
N827 C825 1.384 . S
C511 C403 1.144 . S
C515 C58 1.034 . S
C529 C487 1.137 . S
C533 C142 1.001 . S
C547 C67 1.134 . S
C551 C226 1.012 . S
C565 C151 1.159 . S
C569 C310 1.023 . S
C583 C235 1.145 . S
C587 C394 1.035 . S
C601 C319 1.147 . S
C605 C478 1.037 . S
C619 C74 1.819 . S
C623 C326 1.811 . S
C637 C410 1.814 . S
C641 C158 1.818 . S
C655 C494 1.816 . S
C659 C242 1.818 . S
C673 C231 1.807 . S
C677 C483 1.812 . S
C691 C63 1.799 . S
C695 C315 1.805 . S
C709 C399 1.809 . S
C713 C147 1.813 . S
C727 C476 1.232 . S
C731 C70 1.223 . S
C745 C154 1.225 1_455 S
C749 C56 1.235 . S
C763 C238 1.211 1_545 S
C767 C140 1.222 . S
C781 C224 1.217 . S
C785 C322 1.206 . S
C799 C406 1.203 1_655 S
C803 C308 1.215 . S
C817 C490 1.213 1_565 S
C821 C392 1.223 . S
