# Generated by pormake.
# Topology umw, (4)-cn, num edge types: 1
# Building blocks:
#     Node 0, Type 0, BuildingBlock: CEKHIL_clean_sbu_0, # of connection points: 4
#     Node 1, Type 0, BuildingBlock: CEKHIL_clean_sbu_0, # of connection points: 4
#     Node 2, Type 0, BuildingBlock: CEKHIL_clean_sbu_0, # of connection points: 4
#     Node 3, Type 0, BuildingBlock: CEKHIL_clean_sbu_0, # of connection points: 4
#     Node 4, Type 0, BuildingBlock: CEKHIL_clean_sbu_0, # of connection points: 4
#     Node 5, Type 0, BuildingBlock: CEKHIL_clean_sbu_0, # of connection points: 4
#     Node 6, Type 0, BuildingBlock: CEKHIL_clean_sbu_0, # of connection points: 4
#     Node 7, Type 0, BuildingBlock: CEKHIL_clean_sbu_0, # of connection points: 4
#     Edge 8, Type (0, 0), BuildingBlock: XIVTED_clean_linker_0, # of connection points: 2
#     Edge 9, Type (0, 0), BuildingBlock: XIVTED_clean_linker_0, # of connection points: 2
#     Edge 10, Type (0, 0), BuildingBlock: XIVTED_clean_linker_0, # of connection points: 2
#     Edge 11, Type (0, 0), BuildingBlock: XIVTED_clean_linker_0, # of connection points: 2
#     Edge 12, Type (0, 0), BuildingBlock: XIVTED_clean_linker_0, # of connection points: 2
#     Edge 13, Type (0, 0), BuildingBlock: XIVTED_clean_linker_0, # of connection points: 2
#     Edge 14, Type (0, 0), BuildingBlock: XIVTED_clean_linker_0, # of connection points: 2
#     Edge 15, Type (0, 0), BuildingBlock: XIVTED_clean_linker_0, # of connection points: 2
#     Edge 16, Type (0, 0), BuildingBlock: XIVTED_clean_linker_0, # of connection points: 2
#     Edge 17, Type (0, 0), BuildingBlock: XIVTED_clean_linker_0, # of connection points: 2
#     Edge 18, Type (0, 0), BuildingBlock: XIVTED_clean_linker_0, # of connection points: 2
#     Edge 19, Type (0, 0), BuildingBlock: XIVTED_clean_linker_0, # of connection points: 2
#     Edge 20, Type (0, 0), BuildingBlock: XIVTED_clean_linker_0, # of connection points: 2
#     Edge 21, Type (0, 0), BuildingBlock: XIVTED_clean_linker_0, # of connection points: 2
#     Edge 22, Type (0, 0), BuildingBlock: XIVTED_clean_linker_0, # of connection points: 2
#     Edge 23, Type (0, 0), BuildingBlock: XIVTED_clean_linker_0, # of connection points: 2
# Relax obj value: 0.134
# Max RMSD: 0.105
# Mean RMSD: 0.105
data_MOF--net-umw--node1-CEKHIL_clean_sbu_0--edge1-XIVTED_clean_linker_0
_symmetry_space_group_name_H-M    P1
_symmetry_Int_Tables_number       1
_symmetry_cell_setting            triclinic
loop_
_symmetry_equiv_pos_as_xyz
'x, y, z'
_cell_length_a     40.573152
_cell_length_b     40.561204
_cell_length_c     26.007661
_cell_angle_alpha  90.066395
_cell_angle_beta   90.047914
_cell_angle_gamma 90.021202
loop_
_atom_site_label
_atom_site_type_symbol
_atom_site_fract_x
_atom_site_fract_y
_atom_site_fract_z
_atom_type_partial_charge
Co0 Co 0.42643 0.19599 0.28807 0.0
O1 O 0.41072 0.24101 0.28914 0.0
O2 O 0.38459 0.19855 0.32353 0.0
C3 C 0.44306 0.19385 0.2054 0.0
O4 O 0.43401 0.14628 0.29466 0.0
Co5 Co 0.50084 0.18049 0.26724 0.0
O6 O 0.48669 0.13401 0.27505 0.0
C7 C 0.48074 0.21374 0.36196 0.0
C8 C 0.38591 0.2302 0.31592 0.0
C9 C 0.45769 0.12548 0.28846 0.0
O10 O 0.45068 0.20477 0.35431 0.0
O11 O 0.50353 0.20993 0.32856 0.0
O12 O 0.41192 0.18993 0.21603 0.0
O13 O 0.46144 0.20221 0.24338 0.0
Co14 Co 0.82198 0.42452 0.53899 0.0
O15 O 0.77679 0.41273 0.5545 0.0
O16 O 0.82034 0.38244 0.57396 0.0
C17 C 0.81169 0.44209 0.45822 0.0
O18 O 0.87196 0.4269 0.53045 0.0
Co19 Co 0.84576 0.4946 0.50597 0.0
O20 O 0.88833 0.47295 0.49002 0.0
C21 C 0.82475 0.48069 0.61335 0.0
C22 C 0.78858 0.38631 0.57603 0.0
C23 C 0.8944 0.44481 0.50944 0.0
O24 O 0.82473 0.44927 0.60573 0.0
O25 O 0.82973 0.50192 0.57778 0.0
O26 O 0.81637 0.41072 0.46643 0.0
O27 O 0.81281 0.46069 0.49796 0.0
Co28 Co 0.59766 0.82271 0.78656 0.0
O29 O 0.61391 0.77883 0.79944 0.0
O30 O 0.63982 0.82451 0.82222 0.0
C31 C 0.58153 0.81397 0.70464 0.0
O32 O 0.589 0.87227 0.77917 0.0
Co33 Co 0.52343 0.83416 0.75977 0.0
O34 O 0.53854 0.87968 0.74515 0.0
C35 C 0.5431 0.81667 0.8654 0.0
C36 C 0.63879 0.79242 0.82265 0.0
C37 C 0.56627 0.89092 0.76032 0.0
O38 O 0.57364 0.82155 0.8543 0.0
O39 O 0.51995 0.81752 0.83195 0.0
O40 O 0.61225 0.82103 0.71417 0.0
O41 O 0.56301 0.80999 0.74407 0.0
Co42 Co 0.20102 0.59994 0.03123 0.0
O43 O 0.24555 0.61679 0.03437 0.0
O44 O 0.20149 0.64329 0.0626 0.0
C45 C 0.20215 0.57962 0.95027 0.0
O46 O 0.15136 0.59125 0.03469 0.0
Co47 Co 0.1884 0.52428 0.01683 0.0
O48 O 0.14141 0.53752 0.0189 0.0
C49 C 0.21734 0.5495 0.11201 0.0
C50 C 0.23339 0.64234 0.0579 0.0
C51 C 0.13153 0.56666 0.02905 0.0
O52 O 0.20785 0.57887 0.10052 0.0
O53 O 0.2157 0.5253 0.08057 0.0
O54 O 0.19715 0.61105 0.95732 0.0
O55 O 0.20963 0.56326 -0.00924 0.0
Co56 Co 0.42283 0.81393 0.31314 0.0
O57 O 0.40722 0.76994 0.29874 0.0
O58 O 0.38102 0.81558 0.2767 0.0
C59 C 0.43837 0.80505 0.39527 0.0
O60 O 0.43063 0.86344 0.32186 0.0
Co61 Co 0.4966 0.82651 0.34177 0.0
O62 O 0.48053 0.87159 0.35745 0.0
C63 C 0.47821 0.81035 0.23501 0.0
C64 C 0.38239 0.78353 0.27541 0.0
C65 C 0.45273 0.88236 0.34189 0.0
O66 O 0.44744 0.81383 0.2459 0.0
O67 O 0.50115 0.81153 0.26879 0.0
O68 O 0.40762 0.81157 0.3851 0.0
O69 O 0.45731 0.80148 0.35619 0.0
Co70 Co 0.20698 0.42357 0.54997 0.0
O71 O 0.25228 0.40969 0.5404 0.0
O72 O 0.20844 0.38068 0.51766 0.0
C73 C 0.21303 0.44312 0.63088 0.0
O74 O 0.15691 0.42799 0.55261 0.0
Co75 Co 0.18513 0.49575 0.57428 0.0
O76 O 0.14095 0.47629 0.58675 0.0
C77 C 0.21158 0.47736 0.47184 0.0
C78 C 0.24034 0.38337 0.51859 0.0
C79 C 0.1345 0.44759 0.56959 0.0
O80 O 0.20852 0.44636 0.48152 0.0
O81 O 0.20644 0.50001 0.50523 0.0
O82 O 0.20818 0.41164 0.62378 0.0
O83 O 0.21538 0.46048 0.58997 0.0
Co84 Co 0.59504 0.2055 0.8025 0.0
O85 O 0.6122 0.24984 0.80056 0.0
O86 O 0.63872 0.20582 0.77214 0.0
C87 C 0.57411 0.20739 0.88292 0.0
O88 O 0.58584 0.15588 0.7986 0.0
Co89 Co 0.51942 0.19299 0.81675 0.0
O90 O 0.5327 0.14597 0.81825 0.0
C91 C 0.54504 0.22219 0.72146 0.0
C92 C 0.63789 0.23772 0.77753 0.0
C93 C 0.56158 0.13599 0.80669 0.0
O94 O 0.57448 0.21292 0.73301 0.0
O95 O 0.52071 0.21993 0.75253 0.0
O96 O 0.60537 0.20104 0.87659 0.0
O97 O 0.55832 0.21487 0.84193 0.0
Co98 Co 0.81735 0.60218 0.06018 0.0
O99 O 0.77242 0.61704 0.05249 0.0
O100 O 0.81638 0.6469 0.03368 0.0
C101 C 0.81229 0.5781 0.13826 0.0
O102 O 0.86741 0.59572 0.06354 0.0
Co103 Co 0.83273 0.52672 0.06835 0.0
O104 O 0.87797 0.54262 0.08278 0.0
C105 C 0.80764 0.55498 0.97274 0.0
C106 C 0.78442 0.64423 0.03386 0.0
C107 C 0.88746 0.57219 0.07513 0.0
O108 O 0.8157 0.58408 -0.01194 0.0
O109 O 0.80854 0.52961 0.00182 0.0
O110 O 0.81626 0.60995 0.13539 0.0
O111 O 0.80809 0.56342 0.09509 0.0
H112 H 0.54239 0.23188 0.39367 0.0
H113 H 0.4874 0.24817 0.68557 0.0
H114 H 0.44148 0.22539 0.44599 0.0
H115 H 0.58589 0.222 0.63722 0.0
H116 H 0.47233 0.25732 0.59618 0.0
H117 H 0.55957 0.24545 0.48082 0.0
C118 C 0.52373 0.23365 0.4233 0.0
C119 C 0.49048 0.22661 0.41277 0.0
C120 C 0.49734 0.25 0.60526 0.0
C121 C 0.51017 0.24235 0.51237 0.0
C122 C 0.50603 0.2447 0.65625 0.0
C123 C 0.53774 0.23333 0.66877 0.0
C124 C 0.5205 0.24394 0.56654 0.0
C125 C 0.561 0.23013 0.62924 0.0
C126 C 0.53364 0.24146 0.473 0.0
C127 C 0.46744 0.22997 0.45256 0.0
N128 N 0.55174 0.23492 0.57964 0.0
N129 N 0.4778 0.23721 0.50088 0.0
H130 H 0.83247 0.54394 0.64685 0.0
H131 H 0.77413 0.50326 0.93167 0.0
H132 H 0.80106 0.44743 0.69744 0.0
H133 H 0.82488 0.5929 0.8898 0.0
H134 H 0.77265 0.48721 0.84153 0.0
H135 H 0.8203 0.56578 0.73177 0.0
C136 C 0.82297 0.52728 0.6758 0.0
C137 C 0.81803 0.49366 0.66514 0.0
C138 C 0.7838 0.51054 0.85197 0.0
C139 C 0.80387 0.51876 0.76234 0.0
C140 C 0.78459 0.51979 0.90334 0.0
C141 C 0.80042 0.54907 0.91819 0.0
C142 C 0.79904 0.53066 0.81528 0.0
C143 C 0.81281 0.56994 0.87994 0.0
C144 C 0.81596 0.53987 0.72423 0.0
C145 C 0.8056 0.47339 0.70415 0.0
N146 N 0.81234 0.56004 0.83008 0.0
N147 N 0.79901 0.48628 0.75119 0.0
H148 H 0.5406 0.80391 0.19636 0.0
H149 H 0.48143 0.80515 0.90381 0.0
H150 H 0.43838 0.80724 0.14967 0.0
H151 H 0.58324 0.81483 0.95055 0.0
H152 H 0.4657 0.79903 -0.00653 0.0
H153 H 0.55677 0.801 0.10642 0.0
C154 C 0.52148 0.80387 0.16727 0.0
C155 C 0.48802 0.80621 0.1807 0.0
C156 C 0.49149 0.80238 0.98412 0.0
C157 C 0.50655 0.80289 0.07746 0.0
C158 C 0.50056 0.80589 0.93285 0.0
C159 C 0.53374 0.81092 0.91953 0.0
C160 C 0.51571 0.80389 0.02251 0.0
C161 C 0.55736 0.81129 0.95897 0.0
C162 C 0.5308 0.80223 0.11586 0.0
C163 C 0.46446 0.80576 0.14119 0.0
N164 N 0.54784 0.80802 0.00876 0.0
N165 N 0.4742 0.80435 0.0913 0.0
H166 H 0.22573 0.43895 0.38754 0.0
H167 H 0.21609 0.59027 0.19639 0.0
H168 H 0.21899 0.54044 0.43742 0.0
H169 H 0.24159 0.49138 0.14881 0.0
H170 H 0.22332 0.57359 0.28582 0.0
H171 H 0.23691 0.45821 0.30033 0.0
C172 C 0.22678 0.46522 0.38028 0.0
C173 C 0.22076 0.48806 0.41965 0.0
C174 C 0.22779 0.55568 0.25571 0.0
C175 C 0.23358 0.51025 0.32027 0.0
C176 C 0.22367 0.56522 0.20465 0.0
C177 C 0.22734 0.54196 0.16517 0.0
C178 C 0.23532 0.52266 0.26711 0.0
C179 C 0.23766 0.50996 0.17808 0.0
C180 C 0.23333 0.47622 0.33058 0.0
C181 C 0.22292 0.52185 0.40818 0.0
N182 N 0.24074 0.5011 0.22801 0.0
N183 N 0.22876 0.5319 0.35943 0.0
H184 H 0.39159 0.29702 0.32705 0.0
H185 H 0.22401 0.32162 0.48376 0.0
H186 H 0.32776 0.21555 0.36509 0.0
H187 H 0.30504 0.39036 0.4906 0.0
H188 H 0.25839 0.28407 0.43285 0.0
H189 H 0.35627 0.33366 0.37754 0.0
C190 C 0.36991 0.28688 0.34548 0.0
C191 C 0.36264 0.25312 0.34175 0.0
C192 C 0.26868 0.30728 0.44577 0.0
C193 C 0.32212 0.29502 0.39997 0.0
C194 C 0.2491 0.32872 0.47488 0.0
C195 C 0.2617 0.35916 0.49167 0.0
C196 C 0.30092 0.31658 0.43248 0.0
C197 C 0.29436 0.36709 0.47882 0.0
C198 C 0.34991 0.30779 0.37468 0.0
C199 C 0.33432 0.24139 0.3669 0.0
N200 N 0.31271 0.34609 0.44967 0.0
N201 N 0.31506 0.2623 0.39484 0.0
H202 H 0.80399 0.32452 0.61215 0.0
H203 H 0.63511 0.30459 0.76724 0.0
H204 H 0.72459 0.39511 0.60604 0.0
H205 H 0.69641 0.22097 0.73021 0.0
H206 H 0.67219 0.34003 0.71833 0.0
H207 H 0.76884 0.28784 0.66352 0.0
C208 C 0.77914 0.33226 0.62141 0.0
C209 C 0.76718 0.36293 0.60461 0.0
C210 C 0.67766 0.31396 0.72106 0.0
C211 C 0.72713 0.32135 0.66411 0.0
C212 C 0.65662 0.29369 0.74937 0.0
C213 C 0.66259 0.25967 0.75288 0.0
C214 C 0.70523 0.30034 0.69632 0.0
C215 C 0.69083 0.24704 0.72853 0.0
C216 C 0.75913 0.31131 0.65073 0.0
C217 C 0.73481 0.37167 0.61787 0.0
N218 N 0.71113 0.26737 0.70129 0.0
N219 N 0.71606 0.35113 0.64707 0.0
H220 H 0.71864 0.63888 0.01386 0.0
H221 H 0.69723 0.81137 0.86895 0.0
H222 H 0.80085 0.70514 -0.0061 0.0
H223 H 0.6341 0.72707 0.84534 0.0
H224 H 0.73335 0.77704 0.92315 0.0
H225 H 0.6844 0.67585 0.96283 0.0
C226 C 0.72944 0.66143 -0.0007 0.0
C227 C 0.76277 0.6688 0.00815 0.0
C228 C 0.71165 0.76615 0.90582 0.0
C229 C 0.72348 0.71139 0.94908 0.0
C230 C 0.69106 0.78568 0.87486 0.0
C231 C 0.66259 0.77209 0.85241 0.0
C232 C 0.7033 0.73303 0.9151 0.0
C233 C 0.65578 0.73866 0.86157 0.0
C234 C 0.70989 0.68245 0.96976 0.0
C235 C 0.7753 0.69843 0.98796 0.0
N236 N 0.67577 0.72046 0.8924 0.0
N237 N 0.75566 0.71867 0.95933 0.0
H238 H 0.21637 0.70145 0.10299 0.0
H239 H 0.38825 0.71879 0.24894 0.0
H240 H 0.29966 0.63787 0.07489 0.0
H241 H 0.32349 0.80232 0.23081 0.0
H242 H 0.3522 0.68647 0.19322 0.0
H243 H 0.2519 0.73721 0.1557 0.0
C244 C 0.24217 0.69521 0.10737 0.0
C245 C 0.25504 0.66659 0.08437 0.0
C246 C 0.3458 0.71186 0.20141 0.0
C247 C 0.29552 0.70692 0.14557 0.0
C248 C 0.36626 0.7303 0.23361 0.0
C249 C 0.35893 0.76337 0.24467 0.0
C250 C 0.31738 0.72629 0.1804 0.0
C251 C 0.33011 0.77692 0.22329 0.0
C252 C 0.26238 0.71559 0.13753 0.0
C253 C 0.28863 0.65968 0.09161 0.0
N254 N 0.31028 0.75828 0.19233 0.0
N255 N 0.30753 0.67944 0.12195 0.0
H256 H 0.48865 0.92815 0.39442 0.0
H257 H 0.40032 0.08865 0.2815 0.0
H258 H 0.40471 0.91941 0.29308 0.0
H259 H 0.50298 0.08208 0.32381 0.0
H260 H 0.39421 0.0293 0.30088 0.0
H261 H 0.48559 0.98777 0.38687 0.0
C262 C 0.46935 0.93873 0.37084 0.0
C263 C 0.44734 0.91857 0.34347 0.0
C264 C 0.41794 0.04109 0.30597 0.0
C265 C 0.44383 0.98726 0.33457 0.0
C266 C 0.42144 0.07482 0.29506 0.0
C267 C 0.4523 0.09021 0.30055 0.0
C268 C 0.44531 0.02312 0.3237 0.0
C269 C 0.47885 0.07122 0.3183 0.0
C270 C 0.46768 0.97285 0.3665 0.0
C271 C 0.42242 0.93396 0.31443 0.0
N272 N 0.47469 0.03886 0.32936 0.0
N273 N 0.42154 0.96749 0.31023 0.0
H274 H 0.92306 0.4166 0.59311 0.0
H275 H 0.10662 0.41626 0.48775 0.0
H276 H 0.94507 0.45235 0.44084 0.0
H277 H 0.08303 0.45856 0.63541 0.0
H278 H 0.04744 0.40824 0.47136 0.0
H279 H 0.98241 0.41042 0.6094 0.0
C280 C 0.94035 0.42225 0.56262 0.0
C281 C 0.92927 0.43511 0.51558 0.0
C282 C 0.0554 0.41871 0.50764 0.0
C283 C 0.99671 0.42765 0.53381 0.0
C284 C 0.08902 0.42313 0.51718 0.0
C285 C 0.09958 0.43823 0.56292 0.0
C286 C 0.0324 0.42854 0.54478 0.0
C287 C 0.0758 0.44702 0.59957 0.0
C288 C 0.97407 0.41895 0.57213 0.0
C289 C 0.95269 0.4425 0.47765 0.0
N290 N 0.04323 0.44196 0.58978 0.0
N291 N 0.98541 0.43863 0.48755 0.0
H292 H 0.52628 0.93653 0.71529 0.0
H293 H 0.61941 0.09941 0.80674 0.0
H294 H 0.6161 0.92879 0.80377 0.0
H295 H 0.51404 0.09032 0.78813 0.0
H296 H 0.62464 0.0395 0.79132 0.0
H297 H 0.52855 0.99604 0.72396 0.0
C298 C 0.5467 0.94727 0.7363 0.0
C299 C 0.57071 0.92735 0.75967 0.0
C300 C 0.60049 0.05085 0.79078 0.0
C301 C 0.57333 0.99612 0.76972 0.0
C302 C 0.59746 0.08493 0.79946 0.0
C303 C 0.5662 0.09997 0.79894 0.0
C304 C 0.57215 0.03207 0.78031 0.0
C305 C 0.53862 0.07998 0.78933 0.0
C306 C 0.54789 0.98138 0.74133 0.0
C307 C 0.59687 0.94311 0.78554 0.0
N308 N 0.54229 0.0473 0.78009 0.0
N309 N 0.59738 0.97666 0.79026 0.0
H310 H 0.92352 0.6226 0.03012 0.0
H311 H 0.08803 0.51977 0.05856 0.0
H312 H 0.93379 0.53534 0.12364 0.0
H313 H 0.09348 0.62345 0.02219 0.0
H314 H 0.02971 0.52562 0.07553 0.0
H315 H 0.9841 0.62522 0.02255 0.0
C316 C 0.93843 0.6044 0.04977 0.0
C317 C 0.92351 0.57832 0.07674 0.0
C318 C 0.04352 0.54724 0.06403 0.0
C319 C 0.99229 0.581 0.06773 0.0
C320 C 0.07691 0.54385 0.05382 0.0
C321 C 0.09576 0.57111 0.03856 0.0
C322 C 0.02827 0.57805 0.05834 0.0
C323 C 0.07983 0.60179 0.03387 0.0
C324 C 0.97292 0.60588 0.0453 0.0
C325 C 0.94403 0.55547 0.10149 0.0
N326 N 0.04679 0.60442 0.04324 0.0
N327 N 0.97716 0.55714 0.09586 0.0
H328 H 0.59355 0.17682 0.97324 0.0
H329 H 0.41883 0.2098 0.10995 0.0
H330 H 0.51185 0.22734 0.90187 0.0
H331 H 0.50208 0.16531 0.18598 0.0
H332 H 0.45047 0.21008 0.02937 0.0
H333 H 0.55906 0.16777 0.04978 0.0
C334 C 0.56855 0.18616 0.97382 0.0
C335 C 0.55561 0.2029 0.9313 0.0
C336 C 0.46165 0.19987 0.06366 0.0
C337 C 0.51599 0.19238 0.0178 0.0
C338 C 0.44342 0.19942 0.10937 0.0
C339 C 0.45805 0.18793 0.15466 0.0
C340 C 0.49454 0.18861 0.06358 0.0
C341 C 0.49012 0.17501 0.15214 0.0
C342 C 0.54877 0.18081 0.01721 0.0
C343 C 0.52288 0.2142 0.93374 0.0
N344 N 0.50738 0.17593 0.10756 0.0
N345 N 0.50428 0.20877 0.97612 0.0
H346 H 0.83334 0.51467 0.14762 0.0
H347 H 0.77756 0.49715 0.43864 0.0
H348 H 0.79715 0.59635 0.23761 0.0
H349 H 0.83868 0.42448 0.36403 0.0
H350 H 0.77932 0.53096 0.36163 0.0
H351 H 0.83243 0.48 0.22334 0.0
C352 C 0.82532 0.52551 0.18335 0.0
C353 C 0.81512 0.5586 0.18604 0.0
C354 C 0.79226 0.50761 0.36179 0.0
C355 C 0.81347 0.51838 0.2733 0.0
C356 C 0.79104 0.48809 0.40555 0.0
C357 C 0.80808 0.45799 0.40764 0.0
C358 C 0.81062 0.49706 0.31938 0.0
C359 C 0.82497 0.44737 0.36373 0.0
C360 C 0.82485 0.50551 0.22673 0.0
C361 C 0.80532 0.57106 0.23384 0.0
N362 N 0.82598 0.46707 0.32125 0.0
N363 N 0.80437 0.55079 0.27558 0.0
H364 H 0.56747 0.86561 0.64103 0.0
H365 H 0.46268 0.75321 0.44737 0.0
H366 H 0.55861 0.76026 0.65553 0.0
H367 H 0.45051 0.85848 0.4564 0.0
H368 H 0.50023 0.75541 0.5209 0.0
H369 H 0.52917 0.86396 0.56749 0.0
C370 C 0.55832 0.84205 0.62746 0.0
C371 C 0.56673 0.81289 0.65315 0.0
C372 C 0.48897 0.77803 0.50753 0.0
C373 C 0.52224 0.81086 0.57096 0.0
C374 C 0.4672 0.77667 0.46606 0.0
C375 C 0.45292 0.80555 0.44696 0.0
C376 C 0.49726 0.80869 0.5292 0.0
C377 C 0.46044 0.83557 0.47108 0.0
C378 C 0.53605 0.84116 0.58625 0.0
C379 C 0.55326 0.78313 0.63575 0.0
N380 N 0.48241 0.83645 0.51075 0.0
N381 N 0.53171 0.78285 0.59576 0.0
H382 H 0.2178 0.60099 0.85304 0.0
H383 H 0.18402 0.4239 0.72284 0.0
H384 H 0.17775 0.51802 0.9355 0.0
H385 H 0.23873 0.50274 0.65138 0.0
H386 H 0.17743 0.45878 0.79992 0.0
H387 H 0.21953 0.56684 0.77492 0.0
C388 C 0.20882 0.57586 0.85445 0.0
C389 C 0.19802 0.5622 0.90084 0.0
C390 C 0.19101 0.46826 0.76731 0.0
C391 C 0.20024 0.52291 0.81245 0.0
C392 C 0.19502 0.44823 0.72369 0.0
C393 C 0.21191 0.46045 0.68081 0.0
C394 C 0.20396 0.50056 0.76759 0.0
C395 C 0.22531 0.49238 0.68352 0.0
C396 C 0.21011 0.55623 0.81015 0.0
C397 C 0.18688 0.52938 0.90081 0.0
N398 N 0.22094 0.51129 0.72589 0.0
N399 N 0.18841 0.51081 0.85747 0.0
loop_
_geom_bond_atom_site_label_1
_geom_bond_atom_site_label_2
_geom_bond_distance
_geom_bond_site_symmetry_2
_ccdc_geom_bond_type
Co0 O1 2.216 . S
Co0 O2 2.091 . S
Co0 O4 2.004 . S
Co0 O10 2.021 . S
Co0 O12 2.137 . S
Co0 O13 2.244 . S
O1 Co0 2.216 . S
O1 C8 1.247 . S
O2 Co0 2.091 . S
O2 C8 1.261 . S
C3 O12 1.247 . S
C3 O13 1.272 . S
O4 Co0 2.004 . S
O4 C9 1.259 . S
Co5 O6 2.061 . S
Co5 O11 2.052 . S
Co5 O13 2.135 . S
O6 Co5 2.061 . S
O6 C9 1.235 . S
C7 O10 1.238 . S
C7 O11 1.241 . S
C8 O1 1.247 . S
C8 O2 1.261 . S
C9 O4 1.259 . S
C9 O6 1.235 . S
O10 Co0 2.021 . S
O10 C7 1.238 . S
O11 Co5 2.052 . S
O11 C7 1.241 . S
O12 Co0 2.137 . S
O12 C3 1.247 . S
O13 Co0 2.244 . S
O13 C3 1.272 . S
O13 Co5 2.135 . S
Co14 O15 2.216 . S
Co14 O16 2.091 . S
Co14 O18 2.004 . S
Co14 O24 2.021 . S
Co14 O26 2.137 . S
Co14 O27 2.244 . S
O15 Co14 2.216 . S
O15 C22 1.247 . S
O16 Co14 2.091 . S
O16 C22 1.261 . S
C17 O26 1.247 . S
C17 O27 1.272 . S
O18 Co14 2.004 . S
O18 C23 1.259 . S
Co19 O20 2.061 . S
Co19 O25 2.052 . S
Co19 O27 2.135 . S
O20 Co19 2.061 . S
O20 C23 1.235 . S
C21 O24 1.238 . S
C21 O25 1.241 . S
C22 O15 1.247 . S
C22 O16 1.261 . S
C23 O18 1.259 . S
C23 O20 1.235 . S
O24 Co14 2.021 . S
O24 C21 1.238 . S
O25 Co19 2.052 . S
O25 C21 1.241 . S
O26 Co14 2.137 . S
O26 C17 1.247 . S
O27 Co14 2.244 . S
O27 C17 1.272 . S
O27 Co19 2.135 . S
Co28 O29 2.216 . S
Co28 O30 2.091 . S
Co28 O32 2.004 . S
Co28 O38 2.021 . S
Co28 O40 2.137 . S
Co28 O41 2.244 . S
O29 Co28 2.216 . S
O29 C36 1.247 . S
O30 Co28 2.091 . S
O30 C36 1.261 . S
C31 O40 1.247 . S
C31 O41 1.272 . S
O32 Co28 2.004 . S
O32 C37 1.259 . S
Co33 O34 2.061 . S
Co33 O39 2.052 . S
Co33 O41 2.135 . S
O34 Co33 2.061 . S
O34 C37 1.235 . S
C35 O38 1.238 . S
C35 O39 1.241 . S
C36 O29 1.247 . S
C36 O30 1.261 . S
C37 O32 1.259 . S
C37 O34 1.235 . S
O38 Co28 2.021 . S
O38 C35 1.238 . S
O39 Co33 2.052 . S
O39 C35 1.241 . S
O40 Co28 2.137 . S
O40 C31 1.247 . S
O41 Co28 2.244 . S
O41 C31 1.272 . S
O41 Co33 2.135 . S
Co42 O43 2.216 . S
Co42 O44 2.091 . S
Co42 O46 2.004 . S
Co42 O52 2.021 . S
Co42 O54 2.137 1_554 S
Co42 O55 2.244 . S
O43 Co42 2.216 . S
O43 C50 1.247 . S
O44 Co42 2.091 . S
O44 C50 1.261 . S
C45 O54 1.247 . S
C45 O55 1.272 1_556 S
O46 Co42 2.004 . S
O46 C51 1.259 . S
Co47 O48 2.061 . S
Co47 O53 2.052 . S
Co47 O55 2.135 . S
O48 Co47 2.061 . S
O48 C51 1.235 . S
C49 O52 1.238 . S
C49 O53 1.241 . S
C50 O43 1.247 . S
C50 O44 1.261 . S
C51 O46 1.259 . S
C51 O48 1.235 . S
O52 Co42 2.021 . S
O52 C49 1.238 . S
O53 Co47 2.052 . S
O53 C49 1.241 . S
O54 Co42 2.137 1_556 S
O54 C45 1.247 . S
O55 Co42 2.244 . S
O55 C45 1.272 1_554 S
O55 Co47 2.135 . S
Co56 O57 2.216 . S
Co56 O58 2.091 . S
Co56 O60 2.004 . S
Co56 O66 2.021 . S
Co56 O68 2.137 . S
Co56 O69 2.244 . S
O57 Co56 2.216 . S
O57 C64 1.247 . S
O58 Co56 2.091 . S
O58 C64 1.261 . S
C59 O68 1.247 . S
C59 O69 1.272 . S
O60 Co56 2.004 . S
O60 C65 1.259 . S
Co61 O62 2.061 . S
Co61 O67 2.052 . S
Co61 O69 2.135 . S
O62 Co61 2.061 . S
O62 C65 1.235 . S
C63 O66 1.238 . S
C63 O67 1.241 . S
C64 O57 1.247 . S
C64 O58 1.261 . S
C65 O60 1.259 . S
C65 O62 1.235 . S
O66 Co56 2.021 . S
O66 C63 1.238 . S
O67 Co61 2.052 . S
O67 C63 1.241 . S
O68 Co56 2.137 . S
O68 C59 1.247 . S
O69 Co56 2.244 . S
O69 C59 1.272 . S
O69 Co61 2.135 . S
Co70 O71 2.216 . S
Co70 O72 2.091 . S
Co70 O74 2.004 . S
Co70 O80 2.021 . S
Co70 O82 2.137 . S
Co70 O83 2.244 . S
O71 Co70 2.216 . S
O71 C78 1.247 . S
O72 Co70 2.091 . S
O72 C78 1.261 . S
C73 O82 1.247 . S
C73 O83 1.272 . S
O74 Co70 2.004 . S
O74 C79 1.259 . S
Co75 O76 2.061 . S
Co75 O81 2.052 . S
Co75 O83 2.135 . S
O76 Co75 2.061 . S
O76 C79 1.235 . S
C77 O80 1.238 . S
C77 O81 1.241 . S
C78 O71 1.247 . S
C78 O72 1.261 . S
C79 O74 1.259 . S
C79 O76 1.235 . S
O80 Co70 2.021 . S
O80 C77 1.238 . S
O81 Co75 2.052 . S
O81 C77 1.241 . S
O82 Co70 2.137 . S
O82 C73 1.247 . S
O83 Co70 2.244 . S
O83 C73 1.272 . S
O83 Co75 2.135 . S
Co84 O85 2.216 . S
Co84 O86 2.091 . S
Co84 O88 2.004 . S
Co84 O94 2.021 . S
Co84 O96 2.137 . S
Co84 O97 2.244 . S
O85 Co84 2.216 . S
O85 C92 1.247 . S
O86 Co84 2.091 . S
O86 C92 1.261 . S
C87 O96 1.247 . S
C87 O97 1.272 . S
O88 Co84 2.004 . S
O88 C93 1.259 . S
Co89 O90 2.061 . S
Co89 O95 2.052 . S
Co89 O97 2.135 . S
O90 Co89 2.061 . S
O90 C93 1.235 . S
C91 O94 1.238 . S
C91 O95 1.241 . S
C92 O85 1.247 . S
C92 O86 1.261 . S
C93 O88 1.259 . S
C93 O90 1.235 . S
O94 Co84 2.021 . S
O94 C91 1.238 . S
O95 Co89 2.052 . S
O95 C91 1.241 . S
O96 Co84 2.137 . S
O96 C87 1.247 . S
O97 Co84 2.244 . S
O97 C87 1.272 . S
O97 Co89 2.135 . S
Co98 O99 2.216 . S
Co98 O100 2.091 . S
Co98 O102 2.004 . S
Co98 O108 2.021 1_554 S
Co98 O110 2.137 . S
Co98 O111 2.244 . S
O99 Co98 2.216 . S
O99 C106 1.247 . S
O100 Co98 2.091 . S
O100 C106 1.261 . S
C101 O110 1.247 . S
C101 O111 1.272 . S
O102 Co98 2.004 . S
O102 C107 1.259 . S
Co103 O104 2.061 . S
Co103 O109 2.052 1_554 S
Co103 O111 2.135 . S
O104 Co103 2.061 . S
O104 C107 1.235 . S
C105 O108 1.238 . S
C105 O109 1.241 . S
C106 O99 1.247 . S
C106 O100 1.261 . S
C107 O102 1.259 . S
C107 O104 1.235 . S
O108 Co98 2.021 1_556 S
O108 C105 1.238 . S
O109 Co103 2.052 1_556 S
O109 C105 1.241 . S
O110 Co98 2.137 . S
O110 C101 1.247 . S
O111 Co98 2.244 . S
O111 C101 1.272 . S
O111 Co103 2.135 . S
H112 C118 0.930 . S
H113 C122 0.930 . S
H114 C127 0.929 . S
H115 C125 0.929 . S
H116 C120 0.929 . S
H117 C126 0.929 . S
C118 H112 0.930 . S
C118 C119 1.367 . S
C118 C126 1.378 . S
C119 C118 1.367 . S
C119 C127 1.433 . S
C120 H116 0.929 . S
C120 C122 1.378 . S
C120 C124 1.350 . S
C121 C124 1.463 . S
C121 C126 1.350 . S
C121 N129 1.427 . S
C122 H113 0.930 . S
C122 C120 1.378 . S
C122 C123 1.367 . S
C123 C122 1.367 . S
C123 C125 1.433 . S
C124 C120 1.350 . S
C124 C121 1.463 . S
C124 N128 1.427 . S
C125 H115 0.929 . S
C125 C123 1.433 . S
C125 N128 1.384 . S
C126 H117 0.929 . S
C126 C118 1.378 . S
C126 C121 1.350 . S
C127 H114 0.929 . S
C127 C119 1.433 . S
C127 N129 1.384 . S
N128 C124 1.427 . S
N128 C125 1.384 . S
N129 C121 1.427 . S
N129 C127 1.384 . S
H130 C136 0.930 . S
H131 C140 0.930 . S
H132 C145 0.929 . S
H133 C143 0.929 . S
H134 C138 0.929 . S
H135 C144 0.929 . S
C136 H130 0.930 . S
C136 C137 1.367 . S
C136 C144 1.378 . S
C137 C136 1.367 . S
C137 C145 1.433 . S
C138 H134 0.929 . S
C138 C140 1.378 . S
C138 C142 1.350 . S
C139 C142 1.463 . S
C139 C144 1.350 . S
C139 N147 1.427 . S
C140 H131 0.930 . S
C140 C138 1.378 . S
C140 C141 1.367 . S
C141 C140 1.367 . S
C141 C143 1.433 . S
C142 C138 1.350 . S
C142 C139 1.463 . S
C142 N146 1.427 . S
C143 H133 0.929 . S
C143 C141 1.433 . S
C143 N146 1.384 . S
C144 H135 0.929 . S
C144 C136 1.378 . S
C144 C139 1.350 . S
C145 H132 0.929 . S
C145 C137 1.433 . S
C145 N147 1.384 . S
N146 C142 1.427 . S
N146 C143 1.384 . S
N147 C139 1.427 . S
N147 C145 1.384 . S
H148 C154 0.930 . S
H149 C158 0.930 . S
H150 C163 0.929 . S
H151 C161 0.929 . S
H152 C156 0.931 . S
H153 C162 0.929 . S
C154 H148 0.930 . S
C154 C155 1.367 . S
C154 C162 1.378 . S
C155 C154 1.367 . S
C155 C163 1.433 . S
C156 H152 0.931 . S
C156 C158 1.370 1_554 S
C156 C160 1.355 . S
C157 C160 1.463 . S
C157 C162 1.350 . S
C157 N165 1.427 . S
C158 H149 0.930 . S
C158 C156 1.370 1_556 S
C158 C159 1.367 . S
C159 C158 1.367 . S
C159 C161 1.433 . S
C160 C156 1.355 . S
C160 C157 1.463 . S
C160 N164 1.427 . S
C161 H151 0.929 . S
C161 C159 1.433 . S
C161 N164 1.384 1_556 S
C162 H153 0.929 . S
C162 C154 1.378 . S
C162 C157 1.350 . S
C163 H150 0.929 . S
C163 C155 1.433 . S
C163 N165 1.384 . S
N164 C160 1.427 . S
N164 C161 1.384 1_554 S
N165 C157 1.427 . S
N165 C163 1.384 . S
H166 C172 0.930 . S
H167 C176 0.930 . S
H168 C181 0.929 . S
H169 C179 0.929 . S
H170 C174 0.929 . S
H171 C180 0.929 . S
C172 H166 0.930 . S
C172 C173 1.367 . S
C172 C180 1.378 . S
C173 C172 1.367 . S
C173 C181 1.433 . S
C174 H170 0.929 . S
C174 C176 1.378 . S
C174 C178 1.350 . S
C175 C178 1.463 . S
C175 C180 1.350 . S
C175 N183 1.427 . S
C176 H167 0.930 . S
C176 C174 1.378 . S
C176 C177 1.367 . S
C177 C176 1.367 . S
C177 C179 1.433 . S
C178 C174 1.350 . S
C178 C175 1.463 . S
C178 N182 1.427 . S
C179 H169 0.929 . S
C179 C177 1.433 . S
C179 N182 1.384 . S
C180 H171 0.929 . S
C180 C172 1.378 . S
C180 C175 1.350 . S
C181 H168 0.929 . S
C181 C173 1.433 . S
C181 N183 1.384 . S
N182 C178 1.427 . S
N182 C179 1.384 . S
N183 C175 1.427 . S
N183 C181 1.384 . S
H184 C190 0.930 . S
H185 C194 0.930 . S
H186 C199 0.929 . S
H187 C197 0.929 . S
H188 C192 0.929 . S
H189 C198 0.929 . S
C190 H184 0.930 . S
C190 C191 1.367 . S
C190 C198 1.378 . S
C191 C190 1.367 . S
C191 C199 1.433 . S
C192 H188 0.929 . S
C192 C194 1.378 . S
C192 C196 1.350 . S
C193 C196 1.463 . S
C193 C198 1.350 . S
C193 N201 1.427 . S
C194 H185 0.930 . S
C194 C192 1.378 . S
C194 C195 1.367 . S
C195 C194 1.367 . S
C195 C197 1.433 . S
C196 C192 1.350 . S
C196 C193 1.463 . S
C196 N200 1.427 . S
C197 H187 0.929 . S
C197 C195 1.433 . S
C197 N200 1.384 . S
C198 H189 0.929 . S
C198 C190 1.378 . S
C198 C193 1.350 . S
C199 H186 0.929 . S
C199 C191 1.433 . S
C199 N201 1.384 . S
N200 C196 1.427 . S
N200 C197 1.384 . S
N201 C193 1.427 . S
N201 C199 1.384 . S
H202 C208 0.930 . S
H203 C212 0.930 . S
H204 C217 0.929 . S
H205 C215 0.929 . S
H206 C210 0.929 . S
H207 C216 0.929 . S
C208 H202 0.930 . S
C208 C209 1.367 . S
C208 C216 1.378 . S
C209 C208 1.367 . S
C209 C217 1.433 . S
C210 H206 0.929 . S
C210 C212 1.378 . S
C210 C214 1.350 . S
C211 C214 1.463 . S
C211 C216 1.350 . S
C211 N219 1.427 . S
C212 H203 0.930 . S
C212 C210 1.378 . S
C212 C213 1.367 . S
C213 C212 1.367 . S
C213 C215 1.433 . S
C214 C210 1.350 . S
C214 C211 1.463 . S
C214 N218 1.427 . S
C215 H205 0.929 . S
C215 C213 1.433 . S
C215 N218 1.384 . S
C216 H207 0.929 . S
C216 C208 1.378 . S
C216 C211 1.350 . S
C217 H204 0.929 . S
C217 C209 1.433 . S
C217 N219 1.384 . S
N218 C214 1.427 . S
N218 C215 1.384 . S
N219 C211 1.427 . S
N219 C217 1.384 . S
H220 C226 0.930 . S
H221 C230 0.930 . S
H222 C235 0.929 . S
H223 C233 0.929 . S
H224 C228 0.929 . S
H225 C234 0.929 . S
C226 H220 0.930 . S
C226 C227 1.367 1_556 S
C226 C234 1.378 . S
C227 C226 1.367 1_554 S
C227 C235 1.433 . S
C228 H224 0.929 . S
C228 C230 1.378 . S
C228 C232 1.350 . S
C229 C232 1.463 . S
C229 C234 1.350 . S
C229 N237 1.427 . S
C230 H221 0.930 . S
C230 C228 1.378 . S
C230 C231 1.367 . S
C231 C230 1.367 . S
C231 C233 1.433 . S
C232 C228 1.350 . S
C232 C229 1.463 . S
C232 N236 1.427 . S
C233 H223 0.929 . S
C233 C231 1.433 . S
C233 N236 1.384 . S
C234 H225 0.929 . S
C234 C226 1.378 . S
C234 C229 1.350 . S
C235 H222 0.929 . S
C235 C227 1.433 . S
C235 N237 1.384 1_554 S
N236 C232 1.427 . S
N236 C233 1.384 . S
N237 C229 1.427 . S
N237 C235 1.384 1_556 S
H238 C244 0.930 . S
H239 C248 0.930 . S
H240 C253 0.929 . S
H241 C251 0.929 . S
H242 C246 0.929 . S
H243 C252 0.929 . S
C244 H238 0.930 . S
C244 C245 1.367 . S
C244 C252 1.378 . S
C245 C244 1.367 . S
C245 C253 1.433 . S
C246 H242 0.929 . S
C246 C248 1.378 . S
C246 C250 1.350 . S
C247 C250 1.463 . S
C247 C252 1.350 . S
C247 N255 1.427 . S
C248 H239 0.930 . S
C248 C246 1.378 . S
C248 C249 1.367 . S
C249 C248 1.367 . S
C249 C251 1.433 . S
C250 C246 1.350 . S
C250 C247 1.463 . S
C250 N254 1.427 . S
C251 H241 0.929 . S
C251 C249 1.433 . S
C251 N254 1.384 . S
C252 H243 0.929 . S
C252 C244 1.378 . S
C252 C247 1.350 . S
C253 H240 0.929 . S
C253 C245 1.433 . S
C253 N255 1.384 . S
N254 C250 1.427 . S
N254 C251 1.384 . S
N255 C247 1.427 . S
N255 C253 1.384 . S
H256 C262 0.930 . S
H257 C266 0.930 . S
H258 C271 0.929 . S
H259 C269 0.929 . S
H260 C264 0.929 . S
H261 C270 0.929 . S
C262 H256 0.930 . S
C262 C263 1.367 . S
C262 C270 1.378 . S
C263 C262 1.367 . S
C263 C271 1.433 . S
C264 H260 0.929 . S
C264 C266 1.378 . S
C264 C268 1.350 . S
C265 C268 1.463 1_565 S
C265 C270 1.350 . S
C265 N273 1.427 . S
C266 H257 0.930 . S
C266 C264 1.378 . S
C266 C267 1.367 . S
C267 C266 1.367 . S
C267 C269 1.433 . S
C268 C264 1.350 . S
C268 C265 1.463 1_545 S
C268 N272 1.427 . S
C269 H259 0.929 . S
C269 C267 1.433 . S
C269 N272 1.384 . S
C270 H261 0.929 . S
C270 C262 1.378 . S
C270 C265 1.350 . S
C271 H258 0.929 . S
C271 C263 1.433 . S
C271 N273 1.384 . S
N272 C268 1.427 . S
N272 C269 1.384 . S
N273 C265 1.427 . S
N273 C271 1.384 . S
H274 C280 0.930 . S
H275 C284 0.930 . S
H276 C289 0.929 . S
H277 C287 0.929 . S
H278 C282 0.929 . S
H279 C288 0.929 . S
C280 H274 0.930 . S
C280 C281 1.367 . S
C280 C288 1.378 . S
C281 C280 1.367 . S
C281 C289 1.433 . S
C282 H278 0.929 . S
C282 C284 1.378 . S
C282 C286 1.350 . S
C283 C286 1.463 1_655 S
C283 C288 1.350 . S
C283 N291 1.427 . S
C284 H275 0.930 . S
C284 C282 1.378 . S
C284 C285 1.367 . S
C285 C284 1.367 . S
C285 C287 1.433 . S
C286 C282 1.350 . S
C286 C283 1.463 1_455 S
C286 N290 1.427 . S
C287 H277 0.929 . S
C287 C285 1.433 . S
C287 N290 1.384 . S
C288 H279 0.929 . S
C288 C280 1.378 . S
C288 C283 1.350 . S
C289 H276 0.929 . S
C289 C281 1.433 . S
C289 N291 1.384 . S
N290 C286 1.427 . S
N290 C287 1.384 . S
N291 C283 1.427 . S
N291 C289 1.384 . S
H292 C298 0.930 . S
H293 C302 0.930 . S
H294 C307 0.929 . S
H295 C305 0.929 . S
H296 C300 0.929 . S
H297 C306 0.929 . S
C298 H292 0.930 . S
C298 C299 1.367 . S
C298 C306 1.378 . S
C299 C298 1.367 . S
C299 C307 1.433 . S
C300 H296 0.929 . S
C300 C302 1.378 . S
C300 C304 1.350 . S
C301 C304 1.463 1_565 S
C301 C306 1.350 . S
C301 N309 1.427 . S
C302 H293 0.930 . S
C302 C300 1.378 . S
C302 C303 1.367 . S
C303 C302 1.367 . S
C303 C305 1.433 . S
C304 C300 1.350 . S
C304 C301 1.463 1_545 S
C304 N308 1.427 . S
C305 H295 0.929 . S
C305 C303 1.433 . S
C305 N308 1.384 . S
C306 H297 0.929 . S
C306 C298 1.378 . S
C306 C301 1.350 . S
C307 H294 0.929 . S
C307 C299 1.433 . S
C307 N309 1.384 . S
N308 C304 1.427 . S
N308 C305 1.384 . S
N309 C301 1.427 . S
N309 C307 1.384 . S
H310 C316 0.930 1_556 S
H311 C320 0.930 . S
H312 C325 0.929 . S
H313 C323 0.921 1_556 S
H314 C318 0.929 . S
H315 C324 0.929 1_556 S
C316 H310 0.930 1_554 S
C316 C317 1.367 . S
C316 C324 1.378 . S
C317 C316 1.367 . S
C317 C325 1.433 . S
C318 H314 0.929 . S
C318 C320 1.378 . S
C318 C322 1.350 . S
C319 C322 1.463 1_655 S
C319 C324 1.350 . S
C319 N327 1.427 . S
C320 H311 0.930 . S
C320 C318 1.378 . S
C320 C321 1.367 . S
C321 C320 1.367 . S
C321 C323 1.433 . S
C322 C318 1.350 . S
C322 C319 1.463 1_455 S
C322 N326 1.427 . S
C323 H313 0.921 1_554 S
C323 C321 1.433 . S
C323 N326 1.384 . S
C324 H315 0.929 1_554 S
C324 C316 1.378 . S
C324 C319 1.350 . S
C325 H312 0.929 . S
C325 C317 1.433 . S
C325 N327 1.384 . S
N326 C322 1.427 . S
N326 C323 1.384 . S
N327 C319 1.427 . S
N327 C325 1.384 . S
H328 C334 0.930 . S
H329 C338 0.930 . S
H330 C343 0.929 . S
H331 C341 0.929 . S
H332 C336 0.929 . S
H333 C342 0.929 . S
C334 H328 0.930 . S
C334 C335 1.367 . S
C334 C342 1.378 1_556 S
C335 C334 1.367 . S
C335 C343 1.433 . S
C336 H332 0.929 . S
C336 C338 1.378 . S
C336 C340 1.350 . S
C337 C340 1.463 . S
C337 C342 1.350 . S
C337 N345 1.427 . S
C338 H329 0.930 . S
C338 C336 1.378 . S
C338 C339 1.367 . S
C339 C338 1.367 . S
C339 C341 1.433 . S
C340 C336 1.350 . S
C340 C337 1.463 . S
C340 N344 1.427 . S
C341 H331 0.929 . S
C341 C339 1.433 . S
C341 N344 1.384 . S
C342 H333 0.929 . S
C342 C334 1.378 1_554 S
C342 C337 1.350 . S
C343 H330 0.929 . S
C343 C335 1.433 . S
C343 N345 1.384 1_556 S
N344 C340 1.427 . S
N344 C341 1.384 . S
N345 C337 1.427 . S
N345 C343 1.384 1_554 S
H346 C352 0.930 . S
H347 C356 0.930 . S
H348 C361 0.929 . S
H349 C359 0.929 . S
H350 C354 0.929 . S
H351 C360 0.929 . S
C352 H346 0.930 . S
C352 C353 1.367 . S
C352 C360 1.378 . S
C353 C352 1.367 . S
C353 C361 1.433 . S
C354 H350 0.929 . S
C354 C356 1.378 . S
C354 C358 1.350 . S
C355 C358 1.463 . S
C355 C360 1.350 . S
C355 N363 1.427 . S
C356 H347 0.930 . S
C356 C354 1.378 . S
C356 C357 1.367 . S
C357 C356 1.367 . S
C357 C359 1.433 . S
C358 C354 1.350 . S
C358 C355 1.463 . S
C358 N362 1.427 . S
C359 H349 0.929 . S
C359 C357 1.433 . S
C359 N362 1.384 . S
C360 H351 0.929 . S
C360 C352 1.378 . S
C360 C355 1.350 . S
C361 H348 0.929 . S
C361 C353 1.433 . S
C361 N363 1.384 . S
N362 C358 1.427 . S
N362 C359 1.384 . S
N363 C355 1.427 . S
N363 C361 1.384 . S
H364 C370 0.930 . S
H365 C374 0.930 . S
H366 C379 0.929 . S
H367 C377 0.929 . S
H368 C372 0.929 . S
H369 C378 0.929 . S
C370 H364 0.930 . S
C370 C371 1.367 . S
C370 C378 1.378 . S
C371 C370 1.367 . S
C371 C379 1.433 . S
C372 H368 0.929 . S
C372 C374 1.378 . S
C372 C376 1.350 . S
C373 C376 1.463 . S
C373 C378 1.350 . S
C373 N381 1.427 . S
C374 H365 0.930 . S
C374 C372 1.378 . S
C374 C375 1.367 . S
C375 C374 1.367 . S
C375 C377 1.433 . S
C376 C372 1.350 . S
C376 C373 1.463 . S
C376 N380 1.427 . S
C377 H367 0.929 . S
C377 C375 1.433 . S
C377 N380 1.384 . S
C378 H369 0.929 . S
C378 C370 1.378 . S
C378 C373 1.350 . S
C379 H366 0.929 . S
C379 C371 1.433 . S
C379 N381 1.384 . S
N380 C376 1.427 . S
N380 C377 1.384 . S
N381 C373 1.427 . S
N381 C379 1.384 . S
H382 C388 0.930 . S
H383 C392 0.930 . S
H384 C397 0.929 . S
H385 C395 0.929 . S
H386 C390 0.929 . S
H387 C396 0.929 . S
C388 H382 0.930 . S
C388 C389 1.367 . S
C388 C396 1.378 . S
C389 C388 1.367 . S
C389 C397 1.433 . S
C390 H386 0.929 . S
C390 C392 1.378 . S
C390 C394 1.350 . S
C391 C394 1.463 . S
C391 C396 1.350 . S
C391 N399 1.427 . S
C392 H383 0.930 . S
C392 C390 1.378 . S
C392 C393 1.367 . S
C393 C392 1.367 . S
C393 C395 1.433 . S
C394 C390 1.350 . S
C394 C391 1.463 . S
C394 N398 1.427 . S
C395 H385 0.929 . S
C395 C393 1.433 . S
C395 N398 1.384 . S
C396 H387 0.929 . S
C396 C388 1.378 . S
C396 C391 1.350 . S
C397 H384 0.929 . S
C397 C389 1.433 . S
C397 N399 1.384 . S
N398 C394 1.427 . S
N398 C395 1.384 . S
N399 C391 1.427 . S
N399 C397 1.384 . S
C119 C7 0.675 . S
C123 C91 0.687 . S
C137 C21 0.676 . S
C141 C105 0.692 . S
C155 C63 0.675 . S
C159 C35 0.690 . S
C173 C77 0.694 . S
C177 C49 0.688 . S
C191 C8 1.548 . S
C195 C78 1.546 . S
C209 C22 1.545 . S
C213 C92 1.547 . S
C227 C106 1.542 . S
C231 C36 1.541 . S
C245 C50 1.545 . S
C249 C64 1.547 . S
C263 C65 1.497 . S
C267 C9 1.505 . S
C281 C23 1.499 . S
C285 C79 1.504 . S
C299 C37 1.497 . S
C303 C93 1.505 . S
C317 C107 1.504 . S
C321 C51 1.499 . S
C335 C87 1.526 . S
C339 C3 1.531 . S
C353 C101 1.526 . S
C357 C17 1.530 . S
C371 C31 1.525 . S
C375 C59 1.531 . S
C389 C45 1.530 . S
C393 C73 1.526 . S
