# Generated by pormake.
# Topology snv-x, (7)-cn, num edge types: 1
# Building blocks:
#     Node 0, Type 0, BuildingBlock: NUHQUE_clean_sbu_2, # of connection points: 7
#     Node 1, Type 0, BuildingBlock: NUHQUE_clean_sbu_2, # of connection points: 7
#     Node 2, Type 0, BuildingBlock: NUHQUE_clean_sbu_2, # of connection points: 7
#     Node 3, Type 0, BuildingBlock: NUHQUE_clean_sbu_2, # of connection points: 7
#     Node 4, Type 0, BuildingBlock: NUHQUE_clean_sbu_2, # of connection points: 7
#     Node 5, Type 0, BuildingBlock: NUHQUE_clean_sbu_2, # of connection points: 7
#     Node 6, Type 0, BuildingBlock: NUHQUE_clean_sbu_2, # of connection points: 7
#     Node 7, Type 0, BuildingBlock: NUHQUE_clean_sbu_2, # of connection points: 7
#     Node 8, Type 0, BuildingBlock: NUHQUE_clean_sbu_2, # of connection points: 7
#     Node 9, Type 0, BuildingBlock: NUHQUE_clean_sbu_2, # of connection points: 7
#     Node 10, Type 0, BuildingBlock: NUHQUE_clean_sbu_2, # of connection points: 7
#     Node 11, Type 0, BuildingBlock: NUHQUE_clean_sbu_2, # of connection points: 7
#     Node 12, Type 0, BuildingBlock: NUHQUE_clean_sbu_2, # of connection points: 7
#     Node 13, Type 0, BuildingBlock: NUHQUE_clean_sbu_2, # of connection points: 7
#     Node 14, Type 0, BuildingBlock: NUHQUE_clean_sbu_2, # of connection points: 7
#     Node 15, Type 0, BuildingBlock: NUHQUE_clean_sbu_2, # of connection points: 7
#     Node 16, Type 0, BuildingBlock: NUHQUE_clean_sbu_2, # of connection points: 7
#     Node 17, Type 0, BuildingBlock: NUHQUE_clean_sbu_2, # of connection points: 7
#     Node 18, Type 0, BuildingBlock: NUHQUE_clean_sbu_2, # of connection points: 7
#     Node 19, Type 0, BuildingBlock: NUHQUE_clean_sbu_2, # of connection points: 7
#     Node 20, Type 0, BuildingBlock: NUHQUE_clean_sbu_2, # of connection points: 7
#     Node 21, Type 0, BuildingBlock: NUHQUE_clean_sbu_2, # of connection points: 7
#     Node 22, Type 0, BuildingBlock: NUHQUE_clean_sbu_2, # of connection points: 7
#     Node 23, Type 0, BuildingBlock: NUHQUE_clean_sbu_2, # of connection points: 7
#     Edge 24, Type (0, 0), BuildingBlock: CIFDUS_clean_linker_0, # of connection points: 2
#     Edge 25, Type (0, 0), BuildingBlock: CIFDUS_clean_linker_0, # of connection points: 2
#     Edge 26, Type (0, 0), BuildingBlock: CIFDUS_clean_linker_0, # of connection points: 2
#     Edge 27, Type (0, 0), BuildingBlock: CIFDUS_clean_linker_0, # of connection points: 2
#     Edge 28, Type (0, 0), BuildingBlock: CIFDUS_clean_linker_0, # of connection points: 2
#     Edge 29, Type (0, 0), BuildingBlock: CIFDUS_clean_linker_0, # of connection points: 2
#     Edge 30, Type (0, 0), BuildingBlock: CIFDUS_clean_linker_0, # of connection points: 2
#     Edge 31, Type (0, 0), BuildingBlock: CIFDUS_clean_linker_0, # of connection points: 2
#     Edge 32, Type (0, 0), BuildingBlock: CIFDUS_clean_linker_0, # of connection points: 2
#     Edge 33, Type (0, 0), BuildingBlock: CIFDUS_clean_linker_0, # of connection points: 2
#     Edge 34, Type (0, 0), BuildingBlock: CIFDUS_clean_linker_0, # of connection points: 2
#     Edge 35, Type (0, 0), BuildingBlock: CIFDUS_clean_linker_0, # of connection points: 2
#     Edge 36, Type (0, 0), BuildingBlock: CIFDUS_clean_linker_0, # of connection points: 2
#     Edge 37, Type (0, 0), BuildingBlock: CIFDUS_clean_linker_0, # of connection points: 2
#     Edge 38, Type (0, 0), BuildingBlock: CIFDUS_clean_linker_0, # of connection points: 2
#     Edge 39, Type (0, 0), BuildingBlock: CIFDUS_clean_linker_0, # of connection points: 2
#     Edge 40, Type (0, 0), BuildingBlock: CIFDUS_clean_linker_0, # of connection points: 2
#     Edge 41, Type (0, 0), BuildingBlock: CIFDUS_clean_linker_0, # of connection points: 2
#     Edge 42, Type (0, 0), BuildingBlock: CIFDUS_clean_linker_0, # of connection points: 2
#     Edge 43, Type (0, 0), BuildingBlock: CIFDUS_clean_linker_0, # of connection points: 2
#     Edge 44, Type (0, 0), BuildingBlock: CIFDUS_clean_linker_0, # of connection points: 2
#     Edge 45, Type (0, 0), BuildingBlock: CIFDUS_clean_linker_0, # of connection points: 2
#     Edge 46, Type (0, 0), BuildingBlock: CIFDUS_clean_linker_0, # of connection points: 2
#     Edge 47, Type (0, 0), BuildingBlock: CIFDUS_clean_linker_0, # of connection points: 2
#     Edge 48, Type (0, 0), BuildingBlock: CIFDUS_clean_linker_0, # of connection points: 2
#     Edge 49, Type (0, 0), BuildingBlock: CIFDUS_clean_linker_0, # of connection points: 2
#     Edge 50, Type (0, 0), BuildingBlock: CIFDUS_clean_linker_0, # of connection points: 2
#     Edge 51, Type (0, 0), BuildingBlock: CIFDUS_clean_linker_0, # of connection points: 2
#     Edge 52, Type (0, 0), BuildingBlock: CIFDUS_clean_linker_0, # of connection points: 2
#     Edge 53, Type (0, 0), BuildingBlock: CIFDUS_clean_linker_0, # of connection points: 2
#     Edge 54, Type (0, 0), BuildingBlock: CIFDUS_clean_linker_0, # of connection points: 2
#     Edge 55, Type (0, 0), BuildingBlock: CIFDUS_clean_linker_0, # of connection points: 2
#     Edge 56, Type (0, 0), BuildingBlock: CIFDUS_clean_linker_0, # of connection points: 2
#     Edge 57, Type (0, 0), BuildingBlock: CIFDUS_clean_linker_0, # of connection points: 2
#     Edge 58, Type (0, 0), BuildingBlock: CIFDUS_clean_linker_0, # of connection points: 2
#     Edge 59, Type (0, 0), BuildingBlock: CIFDUS_clean_linker_0, # of connection points: 2
#     Edge 60, Type (0, 0), BuildingBlock: CIFDUS_clean_linker_0, # of connection points: 2
#     Edge 61, Type (0, 0), BuildingBlock: CIFDUS_clean_linker_0, # of connection points: 2
#     Edge 62, Type (0, 0), BuildingBlock: CIFDUS_clean_linker_0, # of connection points: 2
#     Edge 63, Type (0, 0), BuildingBlock: CIFDUS_clean_linker_0, # of connection points: 2
#     Edge 64, Type (0, 0), BuildingBlock: CIFDUS_clean_linker_0, # of connection points: 2
#     Edge 65, Type (0, 0), BuildingBlock: CIFDUS_clean_linker_0, # of connection points: 2
#     Edge 66, Type (0, 0), BuildingBlock: CIFDUS_clean_linker_0, # of connection points: 2
#     Edge 67, Type (0, 0), BuildingBlock: CIFDUS_clean_linker_0, # of connection points: 2
#     Edge 68, Type (0, 0), BuildingBlock: CIFDUS_clean_linker_0, # of connection points: 2
#     Edge 69, Type (0, 0), BuildingBlock: CIFDUS_clean_linker_0, # of connection points: 2
#     Edge 70, Type (0, 0), BuildingBlock: CIFDUS_clean_linker_0, # of connection points: 2
#     Edge 71, Type (0, 0), BuildingBlock: CIFDUS_clean_linker_0, # of connection points: 2
#     Edge 72, Type (0, 0), BuildingBlock: CIFDUS_clean_linker_0, # of connection points: 2
#     Edge 73, Type (0, 0), BuildingBlock: CIFDUS_clean_linker_0, # of connection points: 2
#     Edge 74, Type (0, 0), BuildingBlock: CIFDUS_clean_linker_0, # of connection points: 2
#     Edge 75, Type (0, 0), BuildingBlock: CIFDUS_clean_linker_0, # of connection points: 2
#     Edge 76, Type (0, 0), BuildingBlock: CIFDUS_clean_linker_0, # of connection points: 2
#     Edge 77, Type (0, 0), BuildingBlock: CIFDUS_clean_linker_0, # of connection points: 2
#     Edge 78, Type (0, 0), BuildingBlock: CIFDUS_clean_linker_0, # of connection points: 2
#     Edge 79, Type (0, 0), BuildingBlock: CIFDUS_clean_linker_0, # of connection points: 2
#     Edge 80, Type (0, 0), BuildingBlock: CIFDUS_clean_linker_0, # of connection points: 2
#     Edge 81, Type (0, 0), BuildingBlock: CIFDUS_clean_linker_0, # of connection points: 2
#     Edge 82, Type (0, 0), BuildingBlock: CIFDUS_clean_linker_0, # of connection points: 2
#     Edge 83, Type (0, 0), BuildingBlock: CIFDUS_clean_linker_0, # of connection points: 2
#     Edge 84, Type (0, 0), BuildingBlock: CIFDUS_clean_linker_0, # of connection points: 2
#     Edge 85, Type (0, 0), BuildingBlock: CIFDUS_clean_linker_0, # of connection points: 2
#     Edge 86, Type (0, 0), BuildingBlock: CIFDUS_clean_linker_0, # of connection points: 2
#     Edge 87, Type (0, 0), BuildingBlock: CIFDUS_clean_linker_0, # of connection points: 2
#     Edge 88, Type (0, 0), BuildingBlock: CIFDUS_clean_linker_0, # of connection points: 2
#     Edge 89, Type (0, 0), BuildingBlock: CIFDUS_clean_linker_0, # of connection points: 2
#     Edge 90, Type (0, 0), BuildingBlock: CIFDUS_clean_linker_0, # of connection points: 2
#     Edge 91, Type (0, 0), BuildingBlock: CIFDUS_clean_linker_0, # of connection points: 2
#     Edge 92, Type (0, 0), BuildingBlock: CIFDUS_clean_linker_0, # of connection points: 2
#     Edge 93, Type (0, 0), BuildingBlock: CIFDUS_clean_linker_0, # of connection points: 2
#     Edge 94, Type (0, 0), BuildingBlock: CIFDUS_clean_linker_0, # of connection points: 2
#     Edge 95, Type (0, 0), BuildingBlock: CIFDUS_clean_linker_0, # of connection points: 2
#     Edge 96, Type (0, 0), BuildingBlock: CIFDUS_clean_linker_0, # of connection points: 2
#     Edge 97, Type (0, 0), BuildingBlock: CIFDUS_clean_linker_0, # of connection points: 2
#     Edge 98, Type (0, 0), BuildingBlock: CIFDUS_clean_linker_0, # of connection points: 2
#     Edge 99, Type (0, 0), BuildingBlock: CIFDUS_clean_linker_0, # of connection points: 2
#     Edge 100, Type (0, 0), BuildingBlock: CIFDUS_clean_linker_0, # of connection points: 2
#     Edge 101, Type (0, 0), BuildingBlock: CIFDUS_clean_linker_0, # of connection points: 2
#     Edge 102, Type (0, 0), BuildingBlock: CIFDUS_clean_linker_0, # of connection points: 2
#     Edge 103, Type (0, 0), BuildingBlock: CIFDUS_clean_linker_0, # of connection points: 2
#     Edge 104, Type (0, 0), BuildingBlock: CIFDUS_clean_linker_0, # of connection points: 2
#     Edge 105, Type (0, 0), BuildingBlock: CIFDUS_clean_linker_0, # of connection points: 2
#     Edge 106, Type (0, 0), BuildingBlock: CIFDUS_clean_linker_0, # of connection points: 2
#     Edge 107, Type (0, 0), BuildingBlock: CIFDUS_clean_linker_0, # of connection points: 2
# Relax obj value: 0.195
# Max RMSD: 0.251
# Mean RMSD: 0.251
data_MOF--net-snv-x--node1-NUHQUE_clean_sbu_2--edge1-CIFDUS_clean_linker_0
_symmetry_space_group_name_H-M    P1
_symmetry_Int_Tables_number       1
_symmetry_cell_setting            triclinic
loop_
_symmetry_equiv_pos_as_xyz
'x, y, z'
_cell_length_a     47.657503
_cell_length_b     47.632748
_cell_length_c     47.320616
_cell_angle_alpha  89.572527
_cell_angle_beta   89.395115
_cell_angle_gamma 89.460834
loop_
_atom_site_label
_atom_site_type_symbol
_atom_site_fract_x
_atom_site_fract_y
_atom_site_fract_z
_atom_type_partial_charge
O0 O 0.17718 0.49427 0.25997 0.0
Tb1 Tb 0.15022 0.47959 0.29535 0.0
Eu2 Eu 0.1708 0.42979 0.36192 0.0
C3 C 0.20485 0.49252 0.26068 0.0
O4 O 0.21645 0.4776 0.28095 0.0
C5 C 0.18346 0.48883 0.35051 0.0
O6 O 0.16609 0.4006 0.3995 0.0
C7 C 0.20009 0.40901 0.32057 0.0
C8 C 0.14207 0.39837 0.41334 0.0
O9 O 0.11993 0.41198 0.40391 0.0
C10 C 0.11576 0.43024 0.32368 0.0
C11 C 0.20524 0.38145 0.30846 0.0
C12 C 0.21709 0.37964 0.28145 0.0
C13 C 0.22556 0.35357 0.27056 0.0
C14 C 0.22021 0.32919 0.28671 0.0
C15 C 0.20735 0.33083 0.31361 0.0
C16 C 0.19945 0.35718 0.3241 0.0
O17 O 0.18233 0.47488 0.32681 0.0
O18 O 0.18348 0.47316 0.37316 0.0
O19 O 0.11971 0.50804 0.27704 0.0
O20 O 0.12552 0.50829 0.32158 0.0
C21 C 0.1116 0.51927 0.30069 0.0
O22 O 0.12612 0.43787 0.34822 0.0
O23 O 0.12507 0.44079 0.29906 0.0
O24 O 0.2106 0.41358 0.34571 0.0
O25 O 0.1744 0.41822 0.31784 0.0
H26 H 0.22098 0.3988 0.26959 0.0
H27 H 0.22857 0.30918 0.27966 0.0
H28 H 0.1901 0.35898 0.34501 0.0
O29 O 0.60621 0.16066 0.29412 0.0
Tb30 Tb 0.61472 0.13341 0.33112 0.0
Eu31 Eu 0.63786 0.15979 0.39368 0.0
C32 C 0.57945 0.1644 0.28715 0.0
O33 O 0.56043 0.15033 0.30154 0.0
C34 C 0.57521 0.15476 0.37921 0.0
O35 O 0.64495 0.171 0.43901 0.0
C36 C 0.65298 0.19724 0.35693 0.0
C37 C 0.66969 0.17668 0.44942 0.0
O38 O 0.69182 0.17723 0.43265 0.0
C39 C 0.66876 0.10813 0.36485 0.0
C40 C 0.67961 0.20061 0.34158 0.0
C41 C 0.67993 0.21063 0.31359 0.0
C42 C 0.7055 0.21295 0.29876 0.0
C43 C 0.73053 0.20541 0.31237 0.0
C44 C 0.73049 0.19595 0.3405 0.0
C45 C 0.70486 0.19295 0.35475 0.0
O46 O 0.58448 0.16047 0.35364 0.0
O47 O 0.5929 0.14993 0.39944 0.0
O48 O 0.59831 0.10026 0.30478 0.0
O49 O 0.58999 0.09994 0.34934 0.0
C50 C 0.58597 0.08709 0.3256 0.0
O51 O 0.66278 0.12073 0.38875 0.0
O52 O 0.65759 0.11596 0.34016 0.0
O53 O 0.65373 0.20151 0.38436 0.0
O54 O 0.63897 0.1748 0.35016 0.0
H55 H 0.66047 0.21681 0.30353 0.0
H56 H 0.7504 0.20928 0.30172 0.0
H57 H 0.70467 0.18539 0.37641 0.0
O58 O 0.87858 0.58474 0.26258 0.0
Tb59 Tb 0.90582 0.59541 0.29877 0.0
Eu60 Eu 0.91087 0.61532 0.36859 0.0
C61 C 0.87632 0.55789 0.25533 0.0
O62 O 0.89139 0.53935 0.2693 0.0
C63 C 0.88896 0.55551 0.35053 0.0
O64 O 0.91954 0.61973 0.41486 0.0
C65 C 0.86871 0.64714 0.35544 0.0
C66 C 0.93223 0.642 0.42466 0.0
O67 O 0.94302 0.66033 0.40683 0.0
C68 C 0.94215 0.64411 0.32116 0.0
C69 C 0.86381 0.67043 0.3353 0.0
C70 C 0.85892 0.66492 0.30665 0.0
C71 C 0.85227 0.68675 0.28779 0.0
C72 C 0.8521 0.71451 0.29766 0.0
C73 C 0.85682 0.72042 0.32621 0.0
C74 C 0.86247 0.69826 0.345 0.0
O75 O 0.88158 0.56638 0.32581 0.0
O76 O 0.90355 0.56937 0.36912 0.0
O77 O 0.94005 0.58192 0.27116 0.0
O78 O 0.94257 0.57429 0.31562 0.0
C79 C 0.95552 0.57195 0.29145 0.0
O80 O 0.94764 0.62722 0.34226 0.0
O81 O 0.91909 0.63967 0.30611 0.0
O82 O 0.88545 0.65254 0.37652 0.0
O83 O 0.87261 0.62194 0.34484 0.0
H84 H 0.85911 0.64348 0.29917 0.0
H85 H 0.84547 0.73147 0.28379 0.0
H86 H 0.86517 0.70267 0.36725 0.0
O87 O 0.44785 0.90333 0.29355 0.0
Tb88 Tb 0.43546 0.9282 0.33125 0.0
Eu89 Eu 0.40072 0.90788 0.39396 0.0
C90 C 0.45173 0.87578 0.29542 0.0
O91 O 0.44396 0.86292 0.31878 0.0
C92 C 0.46508 0.90504 0.38425 0.0
O93 O 0.38874 0.90261 0.43961 0.0
C94 C 0.3858 0.86863 0.35994 0.0
C95 C 0.36368 0.89625 0.44942 0.0
O96 O 0.34311 0.89106 0.43202 0.0
C97 C 0.38 0.95946 0.35578 0.0
C98 C 0.36414 0.86494 0.33855 0.0
C99 C 0.37184 0.85316 0.31253 0.0
C100 C 0.35169 0.84846 0.29183 0.0
C101 C 0.3236 0.85585 0.29753 0.0
C102 C 0.31543 0.86723 0.32371 0.0
C103 C 0.33606 0.87248 0.34389 0.0
O104 O 0.45672 0.89821 0.35896 0.0
O105 O 0.44637 0.91154 0.40349 0.0
O106 O 0.4625 0.95924 0.31138 0.0
O107 O 0.4563 0.95961 0.35617 0.0
C108 C 0.46905 0.97141 0.33491 0.0
O109 O 0.38221 0.94896 0.38145 0.0
O110 O 0.39303 0.94833 0.33324 0.0
O111 O 0.3777 0.86936 0.3866 0.0
O112 O 0.40459 0.88748 0.35345 0.0
H113 H 0.39341 0.84683 0.3087 0.0
H114 H 0.30762 0.84999 0.28262 0.0
H115 H 0.33004 0.88121 0.36418 0.0
O116 O 0.17165 0.57777 0.77621 0.0
Tb117 Tb 0.14637 0.58852 0.73882 0.0
Eu118 Eu 0.16012 0.618 0.67449 0.0
C119 C 0.17621 0.55081 0.78219 0.0
O120 O 0.16365 0.53197 0.76678 0.0
C121 C 0.17541 0.55658 0.68892 0.0
O122 O 0.1508 0.63976 0.63343 0.0
C123 C 0.19879 0.64152 0.70377 0.0
C124 C 0.14513 0.66684 0.63319 0.0
O125 O 0.1489 0.68147 0.65624 0.0
C126 C 0.11124 0.63962 0.71417 0.0
C127 C 0.20348 0.6675 0.71969 0.0
C128 C 0.20592 0.66538 0.74921 0.0
C129 C 0.21181 0.68899 0.76544 0.0
C130 C 0.21444 0.71511 0.7519 0.0
C131 C 0.21271 0.71763 0.72238 0.0
C132 C 0.20724 0.6937 0.70624 0.0
O133 O 0.17968 0.56807 0.71374 0.0
O134 O 0.16475 0.5718 0.66841 0.0
O135 O 0.11382 0.56531 0.76075 0.0
O136 O 0.11614 0.56406 0.71559 0.0
C137 C 0.10252 0.55555 0.73799 0.0
O138 O 0.11745 0.631 0.6887 0.0
O139 O 0.12585 0.63077 0.73645 0.0
O140 O 0.19842 0.64273 0.67594 0.0
O141 O 0.17978 0.62481 0.71473 0.0
H142 H 0.2042 0.64504 0.75951 0.0
H143 H 0.2206 0.73317 0.76412 0.0
H144 H 0.20663 0.69543 0.68341 0.0
O145 O 0.46027 0.1176 0.77645 0.0
Tb146 Tb 0.44582 0.07612 0.76093 0.0
Eu147 Eu 0.42772 0.12099 0.71601 0.0
C148 C 0.48664 0.12035 0.78505 0.0
O149 O 0.50376 0.0988 0.78196 0.0
C150 C 0.48941 0.09475 0.71588 0.0
O151 O 0.41651 0.14386 0.6759 0.0
C152 C 0.40484 0.14359 0.76032 0.0
C153 C 0.39083 0.14439 0.66606 0.0
O154 O 0.37046 0.13327 0.68119 0.0
C155 C 0.39647 0.06222 0.71812 0.0
C156 C 0.37759 0.1532 0.77122 0.0
C157 C 0.37679 0.16626 0.79764 0.0
C158 C 0.35169 0.17781 0.80815 0.0
C159 C 0.3271 0.17484 0.79243 0.0
C160 C 0.32754 0.16203 0.76581 0.0
C161 C 0.35303 0.15125 0.75514 0.0
O162 O 0.47952 0.07281 0.72963 0.0
O163 O 0.47473 0.11816 0.71378 0.0
O164 O 0.44798 0.06626 0.80618 0.0
O165 O 0.46367 0.03696 0.77664 0.0
C166 C 0.46004 0.0418 0.80345 0.0
O167 O 0.40619 0.08223 0.70156 0.0
O168 O 0.4052 0.06001 0.74461 0.0
O169 O 0.41593 0.15837 0.73952 0.0
O170 O 0.40802 0.11637 0.75738 0.0
H171 H 0.39605 0.16865 0.80938 0.0
H172 H 0.30793 0.18509 0.79961 0.0
H173 H 0.35387 0.14206 0.73429 0.0
O174 O 0.881 0.46729 0.79565 0.0
Tb175 Tb 0.90855 0.4569 0.75929 0.0
Eu176 Eu 0.90827 0.44084 0.68779 0.0
C177 C 0.87931 0.49418 0.80296 0.0
O178 O 0.89643 0.51179 0.79036 0.0
C179 C 0.88327 0.49652 0.71274 0.0
O180 O 0.91476 0.43853 0.64085 0.0
C181 C 0.86977 0.40593 0.7038 0.0
C182 C 0.93565 0.42303 0.63124 0.0
O183 O 0.95291 0.41137 0.64945 0.0
C184 C 0.94796 0.41373 0.73059 0.0
C185 C 0.86472 0.38432 0.72568 0.0
C186 C 0.86115 0.39144 0.75434 0.0
C187 C 0.85292 0.37105 0.77423 0.0
C188 C 0.84871 0.34339 0.76524 0.0
C189 C 0.85136 0.33615 0.73662 0.0
C190 C 0.86001 0.35664 0.71708 0.0
O191 O 0.87764 0.4815 0.73555 0.0
O192 O 0.89803 0.48635 0.69159 0.0
O193 O 0.94272 0.47389 0.78377 0.0
O194 O 0.93975 0.48358 0.73962 0.0
C195 C 0.95423 0.48701 0.76244 0.0
O196 O 0.94842 0.43173 0.70965 0.0
O197 O 0.92677 0.41476 0.74922 0.0
O198 O 0.88866 0.39996 0.68432 0.0
O199 O 0.87024 0.43218 0.71186 0.0
H200 H 0.86345 0.413 0.76104 0.0
H201 H 0.84022 0.32821 0.78013 0.0
H202 H 0.86147 0.35144 0.69484 0.0
O203 O 0.59645 0.93065 0.75382 0.0
Tb204 Tb 0.6113 0.97221 0.73904 0.0
Eu205 Eu 0.633 0.93229 0.68774 0.0
C206 C 0.57046 0.9289 0.76413 0.0
O207 O 0.55413 0.95117 0.76193 0.0
C208 C 0.57104 0.95859 0.68937 0.0
O209 O 0.65017 0.91441 0.64692 0.0
C210 C 0.64939 0.90518 0.73227 0.0
C211 C 0.67657 0.91776 0.63928 0.0
O212 O 0.69393 0.92936 0.65704 0.0
C213 C 0.66211 0.99099 0.69876 0.0
C214 C 0.67433 0.89327 0.74547 0.0
C215 C 0.67105 0.87814 0.77075 0.0
C216 C 0.69423 0.86524 0.78353 0.0
C217 C 0.7209 0.86864 0.77114 0.0
C218 C 0.72437 0.88358 0.74566 0.0
C219 C 0.7009 0.89585 0.73274 0.0
O220 O 0.57936 0.97809 0.70695 0.0
O221 O 0.5865 0.93635 0.68344 0.0
O222 O 0.61111 0.97876 0.78475 0.0
O223 O 0.59196 1.00913 0.75822 0.0
C224 C 0.5977 1.00263 0.7843 0.0
O225 O 0.65433 0.97312 0.67945 0.0
O226 O 0.65209 0.98964 0.72496 0.0
O227 O 0.6404 0.89259 0.70947 0.0
O228 O 0.64822 0.93267 0.7307 0.0
H229 H 0.65029 0.87563 0.77997 0.0
H230 H 0.73877 0.85753 0.77998 0.0
H231 H 0.70319 0.90675 0.71267 0.0
O232 O 0.25516 0.15149 0.48009 0.0
Tb233 Tb 0.2959 0.13114 0.46996 0.0
Eu234 Eu 0.35817 0.1481 0.44465 0.0
C235 C 0.25281 0.17825 0.48753 0.0
O236 O 0.27408 0.19508 0.48301 0.0
C237 C 0.34184 0.15868 0.50719 0.0
O238 O 0.40254 0.14934 0.42883 0.0
C239 C 0.32737 0.18529 0.42 0.0
C240 C 0.42056 0.1311 0.43912 0.0
O241 O 0.41192 0.11296 0.4583 0.0
C242 C 0.32344 0.09977 0.41779 0.0
C243 C 0.31486 0.18555 0.39178 0.0
C244 C 0.28659 0.19309 0.38888 0.0
C245 C 0.2747 0.19585 0.36197 0.0
C246 C 0.29123 0.18923 0.33808 0.0
C247 C 0.31956 0.18138 0.34067 0.0
C248 C 0.33108 0.17899 0.36771 0.0
O249 O 0.31674 0.16208 0.49639 0.0
O250 O 0.36266 0.14973 0.49137 0.0
O251 O 0.27604 0.096 0.49094 0.0
O252 O 0.32081 0.09876 0.49099 0.0
C253 C 0.29929 0.08387 0.49874 0.0
O254 O 0.34845 0.10642 0.42669 0.0
O255 O 0.30061 0.1136 0.42669 0.0
O256 O 0.35486 0.18724 0.4211 0.0
O257 O 0.31695 0.16664 0.43756 0.0
H258 H 0.27431 0.19831 0.40757 0.0
H259 H 0.28304 0.19342 0.31718 0.0
H260 H 0.35305 0.17334 0.36985 0.0
O261 O 0.92938 0.28957 0.45656 0.0
Tb262 Tb 0.97169 0.30217 0.44201 0.0
Eu263 Eu 0.93089 0.34906 0.41804 0.0
C264 C 0.92581 0.28237 0.48349 0.0
O265 O 0.94678 0.28627 0.50079 0.0
C266 C 0.95552 0.35202 0.48048 0.0
O267 O 0.90847 0.38682 0.39997 0.0
C268 C 0.9096 0.30233 0.40094 0.0
C269 C 0.90937 0.39293 0.37284 0.0
O270 O 0.9224 0.37569 0.35546 0.0
C271 C 0.99199 0.3417 0.39131 0.0
C272 C 0.90048 0.28818 0.37543 0.0
C273 C 0.88779 0.26195 0.37835 0.0
C274 C 0.87707 0.24834 0.35474 0.0
C275 C 0.88031 0.2609 0.32798 0.0
C276 C 0.89291 0.28732 0.3247 0.0
C277 C 0.90316 0.30087 0.34868 0.0
O278 O 0.97634 0.33582 0.47192 0.0
O279 O 0.93281 0.35551 0.46517 0.0
O280 O 0.97918 0.25678 0.44506 0.0
O281 O 1.00748 0.28466 0.46422 0.0
C282 C 1.00205 0.2584 0.45965 0.0
O283 O 0.97189 0.35994 0.39706 0.0
O284 O 0.99154 0.31588 0.40192 0.0
O285 O 0.89418 0.32358 0.40987 0.0
O286 O 0.93662 0.30652 0.40287 0.0
H287 H 0.88512 0.2527 0.39922 0.0
H288 H 0.87039 0.2514 0.30995 0.0
H289 H 0.91239 0.32148 0.34669 0.0
O290 O 0.7914 0.9149 0.48802 0.0
Tb291 Tb 0.75199 0.93653 0.47604 0.0
Eu292 Eu 0.6834 0.91739 0.41103 0.0
C293 C 0.79156 0.88933 0.49941 0.0
O294 O 0.76852 0.87447 0.49876 0.0
C295 C 0.69854 0.89786 0.47255 0.0
O296 O 0.63898 0.9339 0.40845 0.0
C297 C 0.69558 0.88651 0.3679 0.0
C298 C 0.62775 0.94074 0.38402 0.0
O299 O 0.64397 0.94278 0.36153 0.0
C300 C 0.73309 0.96479 0.42327 0.0
C301 C 0.7184 0.87478 0.35047 0.0
C302 C 0.74208 0.86137 0.36209 0.0
C303 C 0.7623 0.84882 0.3442 0.0
C304 C 0.75867 0.85041 0.31476 0.0
C305 C 0.73473 0.86303 0.30312 0.0
C306 C 0.71493 0.87557 0.3211 0.0
O307 O 0.7242 0.90277 0.46303 0.0
O308 O 0.67844 0.89578 0.45368 0.0
O309 O 0.75775 0.95381 0.51799 0.0
O310 O 0.71946 0.96168 0.49717 0.0
C311 C 0.73365 0.96657 0.51981 0.0
O312 O 0.72131 0.94019 0.42586 0.0
O313 O 0.75359 0.96817 0.44141 0.0
O314 O 0.69226 0.91388 0.36625 0.0
O315 O 0.69102 0.87591 0.39335 0.0
H316 H 0.74424 0.8598 0.38483 0.0
H317 H 0.77296 0.83904 0.3009 0.0
H318 H 0.69599 0.88473 0.31225 0.0
O319 O 0.12808 0.77837 0.44963 0.0
Tb320 Tb 0.08785 0.75845 0.43655 0.0
Eu321 Eu 0.11413 0.69678 0.42001 0.0
C322 C 0.1385 0.77462 0.47538 0.0
O323 O 0.1277 0.755 0.49137 0.0
C324 C 0.09306 0.70852 0.48236 0.0
O325 O 0.12351 0.65151 0.41232 0.0
C326 C 0.15224 0.72938 0.39942 0.0
C327 C 0.12658 0.6417 0.38664 0.0
O328 O 0.12444 0.6588 0.36483 0.0
C329 C 0.06399 0.7216 0.38617 0.0
C330 C 0.16023 0.74452 0.37362 0.0
C331 C 0.17024 0.7718 0.37661 0.0
C332 C 0.18322 0.78563 0.35389 0.0
C333 C 0.18391 0.77254 0.32734 0.0
C334 C 0.17333 0.74532 0.32381 0.0
C335 C 0.16128 0.73141 0.34715 0.0
O336 O 0.07931 0.73122 0.47365 0.0
O337 O 0.11141 0.6951 0.46657 0.0
O338 O 0.07932 0.80366 0.43876 0.0
O339 O 0.04611 0.77515 0.44463 0.0
C340 C 0.05251 0.80155 0.44311 0.0
O341 O 0.07346 0.69857 0.3979 0.0
O342 O 0.07436 0.74639 0.39316 0.0
O343 O 0.15491 0.70189 0.39966 0.0
O344 O 0.12964 0.73858 0.41242 0.0
H345 H 0.16986 0.78142 0.39733 0.0
H346 H 0.19553 0.78222 0.3101 0.0
H347 H 0.15411 0.71001 0.34505 0.0
O348 O 0.24496 0.86924 0.59967 0.0
Tb349 Tb 0.275 0.90051 0.61593 0.0
Eu350 Eu 0.36303 0.90591 0.65858 0.0
C351 C 0.23985 0.86885 0.57202 0.0
O352 O 0.2528 0.88716 0.5558 0.0
C353 C 0.33436 0.87046 0.61317 0.0
O354 O 0.40338 0.92897 0.65185 0.0
C355 C 0.35658 0.88823 0.70993 0.0
C356 C 0.40823 0.95148 0.66689 0.0
O357 O 0.38846 0.9609 0.68392 0.0
C358 C 0.30414 0.93637 0.65884 0.0
C359 C 0.3337 0.87807 0.72795 0.0
C360 C 0.30938 0.86673 0.71622 0.0
C361 C 0.28805 0.85623 0.73392 0.0
C362 C 0.29112 0.85798 0.76337 0.0
C363 C 0.31557 0.86886 0.77523 0.0
C364 C 0.33671 0.87915 0.75732 0.0
O365 O 0.31189 0.87606 0.6287 0.0
O366 O 0.35896 0.87261 0.62538 0.0
O367 O 0.29695 0.9222 0.58164 0.0
O368 O 0.25514 0.93481 0.59364 0.0
C369 C 0.27627 0.93966 0.57677 0.0
O370 O 0.3237 0.92612 0.64222 0.0
O371 O 0.27809 0.92877 0.65303 0.0
O372 O 0.35478 0.91482 0.7027 0.0
O373 O 0.36489 0.87174 0.68918 0.0
H374 H 0.30747 0.86527 0.69347 0.0
H375 H 0.27561 0.8483 0.77715 0.0
H376 H 0.35592 0.88711 0.76622 0.0
O377 O 0.13272 0.27697 0.59821 0.0
Tb378 Tb 0.09137 0.29407 0.61257 0.0
Eu379 Eu 0.14006 0.33775 0.62903 0.0
C380 C 0.13567 0.25108 0.58822 0.0
O381 O 0.11493 0.23349 0.59147 0.0
C382 C 0.11352 0.33561 0.56813 0.0
O383 O 0.15733 0.38152 0.63165 0.0
C384 C 0.17215 0.29976 0.65178 0.0
C385 C 0.16374 0.39363 0.65557 0.0
O386 O 0.1624 0.37911 0.67925 0.0
C387 C 0.08022 0.33733 0.66283 0.0
C388 C 0.18538 0.28967 0.67787 0.0
C389 C 0.19989 0.26383 0.6772 0.0
C390 C 0.21376 0.25383 0.70127 0.0
C391 C 0.21283 0.26977 0.726 0.0
C392 C 0.19945 0.29611 0.72667 0.0
C393 C 0.18561 0.3061 0.70248 0.0
O394 O 0.09027 0.32724 0.58063 0.0
O395 O 0.13735 0.33442 0.58173 0.0
O396 O 0.07078 0.25295 0.61528 0.0
O397 O 0.05524 0.28402 0.58724 0.0
C398 C 0.05162 0.25866 0.59667 0.0
O399 O 0.10252 0.35175 0.65502 0.0
O400 O 0.07531 0.31216 0.65246 0.0
O401 O 0.18162 0.32342 0.641 0.0
O402 O 0.14478 0.29697 0.64973 0.0
H403 H 0.20098 0.25185 0.65781 0.0
H404 H 0.22463 0.26263 0.74424 0.0
H405 H 0.17566 0.32664 0.70262 0.0
O406 O 0.80242 0.18568 0.5909 0.0
Tb407 Tb 0.76763 0.1585 0.60516 0.0
Eu408 Eu 0.69079 0.16428 0.66956 0.0
C409 C 0.80684 0.19088 0.56363 0.0
O410 O 0.79035 0.17904 0.54521 0.0
C411 C 0.70925 0.19028 0.61173 0.0
O412 O 0.65605 0.13293 0.66392 0.0
C413 C 0.68308 0.19005 0.71669 0.0
C414 C 0.63422 0.14045 0.64878 0.0
O415 O 0.63563 0.16387 0.63403 0.0
C416 C 0.74842 0.13043 0.66111 0.0
C417 C 0.70239 0.19982 0.73816 0.0
C418 C 0.7304 0.20566 0.73097 0.0
C419 C 0.7491 0.21443 0.75171 0.0
C420 C 0.73958 0.2164 0.7798 0.0
C421 C 0.71158 0.2106 0.78724 0.0
C422 C 0.69309 0.20209 0.76621 0.0
O423 O 0.73381 0.18446 0.62292 0.0
O424 O 0.68696 0.18876 0.62846 0.0
O425 O 0.77742 0.1199 0.5835 0.0
O426 O 0.74018 0.14225 0.57238 0.0
C427 C 0.75494 0.11948 0.56824 0.0
O428 O 0.73689 0.15504 0.665 0.0
O429 O 0.76845 0.12885 0.64159 0.0
O430 O 0.68231 0.16262 0.71452 0.0
O431 O 0.68362 0.20332 0.69214 0.0
H432 H 0.73745 0.20396 0.70918 0.0
H433 H 0.7534 0.22501 0.79552 0.0
H434 H 0.67135 0.19778 0.77153 0.0
O435 O 0.9093 0.78658 0.60732 0.0
Tb436 Tb 0.9484 0.76138 0.61 0.0
Eu437 Eu 0.91366 0.69687 0.64367 0.0
C438 C 0.90945 0.81093 0.59343 0.0
O439 O 0.93372 0.82248 0.5876 0.0
C440 C 0.92972 0.69716 0.58304 0.0
O441 O 0.8954 0.66394 0.67229 0.0
C442 C 0.88627 0.74367 0.64824 0.0
C443 C 0.90597 0.65746 0.697 0.0
O444 O 0.92681 0.67225 0.70681 0.0
C445 C 0.97727 0.72023 0.65781 0.0
C446 C 0.87192 0.75678 0.67209 0.0
C447 C 0.85806 0.78263 0.66866 0.0
C448 C 0.845 0.79546 0.69195 0.0
C449 C 0.84628 0.78224 0.71857 0.0
C450 C 0.85947 0.75604 0.72193 0.0
C451 C 0.87226 0.74331 0.69858 0.0
O452 O 0.93675 0.72142 0.59332 0.0
O453 O 0.91726 0.67978 0.60021 0.0
O454 O 0.98161 0.79186 0.60091 0.0
O455 O 0.96456 0.76807 0.56745 0.0
C456 C 0.98216 0.78757 0.57382 0.0
O457 O 0.95902 0.69939 0.65672 0.0
O458 O 0.97346 0.74577 0.64635 0.0
O459 O 0.87479 0.72064 0.63879 0.0
O460 O 0.91355 0.74161 0.65099 0.0
H461 H 0.85715 0.79253 0.64798 0.0
H462 H 0.8351 0.79136 0.73641 0.0
H463 H 0.88229 0.72289 0.70094 0.0
O464 O 0.47476 0.27438 0.17227 0.0
Tb465 Tb 0.46473 0.30544 0.13886 0.0
Eu466 Eu 0.44085 0.36747 0.16573 0.0
C467 C 0.50108 0.26513 0.17406 0.0
O468 O 0.51921 0.27379 0.15487 0.0
C469 C 0.50618 0.35546 0.16166 0.0
O470 O 0.42705 0.41185 0.1752 0.0
C471 C 0.42279 0.32863 0.19944 0.0
C472 C 0.40539 0.42216 0.16145 0.0
O473 O 0.39109 0.40535 0.14524 0.0
C474 C 0.41454 0.33923 0.11334 0.0
C475 C 0.40137 0.30674 0.19865 0.0
C476 C 0.40586 0.28163 0.21354 0.0
C477 C 0.3836 0.26305 0.21856 0.0
C478 C 0.35701 0.26982 0.20756 0.0
C479 C 0.3523 0.29495 0.19246 0.0
C480 C 0.3752 0.31241 0.1866 0.0
O481 O 0.50099 0.33068 0.15053 0.0
O482 O 0.48666 0.37377 0.16882 0.0
O483 O 0.47253 0.27115 0.10942 0.0
O484 O 0.47977 0.31369 0.09651 0.0
C485 C 0.47982 0.28765 0.08859 0.0
O486 O 0.42461 0.36302 0.12203 0.0
O487 O 0.42106 0.31565 0.12688 0.0
O488 O 0.41367 0.3548 0.20049 0.0
O489 O 0.44444 0.32506 0.18256 0.0
H490 H 0.42619 0.27759 0.22287 0.0
H491 H 0.33916 0.25731 0.21397 0.0
H492 H 0.37197 0.33197 0.17517 0.0
O493 O 0.4717 0.81327 0.87952 0.0
Tb494 Tb 0.46379 0.77948 0.91091 0.0
Eu495 Eu 0.41308 0.69349 0.92387 0.0
C496 C 0.49597 0.81318 0.86536 0.0
O497 O 0.51342 0.79212 0.86977 0.0
C498 C 0.45393 0.72075 0.88077 0.0
O499 O 0.42432 0.64962 0.93802 0.0
C500 C 0.35922 0.70097 0.92402 0.0
C501 C 0.40397 0.63475 0.94933 0.0
O502 O 0.3803 0.64753 0.95594 0.0
C503 C 0.42617 0.75155 0.9539 0.0
C504 C 0.33841 0.72237 0.91649 0.0
C505 C 0.34656 0.75 0.91047 0.0
C506 C 0.32762 0.76886 0.89776 0.0
C507 C 0.30028 0.75971 0.89195 0.0
C508 C 0.29204 0.73196 0.89756 0.0
C509 C 0.31109 0.71368 0.91082 0.0
O510 O 0.44651 0.74757 0.88261 0.0
O511 O 0.43329 0.70245 0.88121 0.0
O512 O 0.49952 0.79718 0.93246 0.0
O513 O 0.49753 0.75314 0.92718 0.0
C514 C 0.51215 0.77343 0.93744 0.0
O515 O 0.4361 0.73205 0.93715 0.0
O516 O 0.43361 0.77749 0.94706 0.0
O517 O 0.37485 0.70616 0.94603 0.0
O518 O 0.37321 0.68988 0.90264 0.0
H519 H 0.36811 0.75613 0.9139 0.0
H520 H 0.28647 0.77321 0.87977 0.0
H521 H 0.30544 0.69197 0.91467 0.0
O522 O 0.28891 0.4495 0.89882 0.0
Tb523 Tb 0.32119 0.44514 0.93186 0.0
Eu524 Eu 0.38735 0.41252 0.91086 0.0
C525 C 0.2814 0.47582 0.89276 0.0
O526 O 0.2934 0.49582 0.90705 0.0
C527 C 0.37529 0.47497 0.91211 0.0
O528 O 0.4289 0.39014 0.90423 0.0
C529 C 0.349 0.40233 0.8738 0.0
C530 C 0.44845 0.39537 0.92286 0.0
O531 O 0.44188 0.41191 0.94408 0.0
C532 C 0.35379 0.39489 0.96811 0.0
C533 C 0.33552 0.37745 0.86246 0.0
C534 C 0.31081 0.38021 0.84667 0.0
C535 C 0.29699 0.35618 0.83718 0.0
C536 C 0.30824 0.32959 0.84369 0.0
C537 C 0.33329 0.32674 0.8588 0.0
C538 C 0.34678 0.35077 0.86832 0.0
O539 O 0.35179 0.46421 0.90307 0.0
O540 O 0.39583 0.4578 0.91814 0.0
O541 O 0.28853 0.46402 0.95842 0.0
O542 O 0.3294 0.48201 0.95696 0.0
C543 C 0.30413 0.48424 0.96739 0.0
O544 O 0.37741 0.39438 0.95334 0.0
O545 O 0.3304 0.40839 0.96007 0.0
O546 O 0.3756 0.40588 0.86705 0.0
O547 O 0.34355 0.40685 0.90058 0.0
H548 H 0.30241 0.4009 0.84178 0.0
H549 H 0.29853 0.31103 0.83515 0.0
H550 H 0.36616 0.34874 0.88001 0.0
O551 O 0.59014 0.24558 0.88273 0.0
Tb552 Tb 0.59771 0.28045 0.91268 0.0
Eu553 Eu 0.63627 0.37383 0.92277 0.0
C554 C 0.56456 0.24321 0.87186 0.0
O555 O 0.54599 0.26282 0.87802 0.0
C556 C 0.60172 0.33943 0.88063 0.0
O557 O 0.61933 0.41712 0.93123 0.0
C558 C 0.69055 0.37452 0.92339 0.0
C559 C 0.62008 0.43401 0.90916 0.0
O560 O 0.62556 0.42291 0.88434 0.0
C561 C 0.63324 0.31428 0.95393 0.0
C562 C 0.71344 0.35415 0.92007 0.0
C563 C 0.70718 0.32563 0.91803 0.0
C564 C 0.72775 0.30627 0.90941 0.0
C565 C 0.75503 0.31589 0.90354 0.0
C566 C 0.76156 0.34462 0.90493 0.0
C567 C 0.74062 0.36358 0.91401 0.0
O568 O 0.61392 0.31505 0.88654 0.0
O569 O 0.61791 0.3617 0.88072 0.0
O570 O 0.56967 0.2616 0.94339 0.0
O571 O 0.5581 0.30073 0.92425 0.0
C572 C 0.55051 0.28115 0.94202 0.0
O573 O 0.61881 0.33315 0.9397 0.0
O574 O 0.62851 0.28765 0.94721 0.0
O575 O 0.67506 0.37204 0.94646 0.0
O576 O 0.6758 0.3791 0.90042 0.0
H577 H 0.68572 0.31888 0.92119 0.0
H578 H 0.77029 0.30143 0.89451 0.0
H579 H 0.74487 0.38589 0.91446 0.0
O580 O 0.76425 0.6082 0.90545 0.0
Tb581 Tb 0.73101 0.6148 0.93774 0.0
Eu582 Eu 0.67279 0.65397 0.91533 0.0
C583 C 0.76668 0.58171 0.89677 0.0
O584 O 0.74813 0.56373 0.90645 0.0
C585 C 0.67535 0.59038 0.91584 0.0
O586 O 0.63517 0.68017 0.90301 0.0
C587 C 0.715 0.65965 0.88075 0.0
C588 C 0.61151 0.67558 0.91674 0.0
O589 O 0.61162 0.65723 0.93762 0.0
C590 C 0.70234 0.66836 0.97376 0.0
C591 C 0.73093 0.68346 0.86969 0.0
C592 C 0.75612 0.67874 0.85475 0.0
C593 C 0.77182 0.70156 0.84461 0.0
C594 C 0.76212 0.72894 0.85007 0.0
C595 C 0.73676 0.73384 0.86451 0.0
C596 C 0.72119 0.71096 0.87439 0.0
O597 O 0.70097 0.59707 0.90832 0.0
O598 O 0.65814 0.61031 0.92357 0.0
O599 O 0.76373 0.59406 0.96197 0.0
O600 O 0.72274 0.57643 0.96142 0.0
C601 C 0.74838 0.57315 0.9703 0.0
O602 O 0.68109 0.67325 0.95682 0.0
O603 O 0.72302 0.64987 0.96831 0.0
O604 O 0.68893 0.65765 0.87222 0.0
O605 O 0.71771 0.65536 0.90794 0.0
H606 H 0.7632 0.65744 0.85063 0.0
H607 H 0.77311 0.74667 0.84082 0.0
H608 H 0.70133 0.71452 0.88526 0.0
O609 O 0.57155 0.80023 0.16831 0.0
Tb610 Tb 0.58843 0.76612 0.14125 0.0
Eu611 Eu 0.627 0.68113 0.1481 0.0
C612 C 0.56291 0.79573 0.19463 0.0
O613 O 0.5685 0.77138 0.2066 0.0
C614 C 0.57751 0.709 0.17514 0.0
O615 O 0.62419 0.63591 0.13576 0.0
C616 C 0.67388 0.69045 0.17275 0.0
C617 C 0.63946 0.62652 0.11451 0.0
O618 O 0.65292 0.64465 0.09843 0.0
C619 C 0.63746 0.73569 0.11123 0.0
C620 C 0.69557 0.71214 0.17272 0.0
C621 C 0.68889 0.74029 0.17843 0.0
C622 C 0.71008 0.75933 0.18531 0.0
C623 C 0.73823 0.75 0.18409 0.0
C624 C 0.74526 0.72212 0.17718 0.0
C625 C 0.72364 0.70356 0.17073 0.0
O626 O 0.5949 0.72826 0.16566 0.0
O627 O 0.58822 0.68364 0.17531 0.0
O628 O 0.57874 0.78313 0.10008 0.0
O629 O 0.55886 0.74516 0.11363 0.0
C630 C 0.56205 0.76304 0.09288 0.0
O631 O 0.61994 0.71466 0.11477 0.0
O632 O 0.63033 0.76067 0.1218 0.0
O633 O 0.6722 0.67553 0.14966 0.0
O634 O 0.64939 0.69674 0.18432 0.0
H635 H 0.66706 0.74678 0.17946 0.0
H636 H 0.75459 0.76346 0.19179 0.0
H637 H 0.72851 0.68172 0.16636 0.0
O638 O 0.28556 0.61391 0.13679 0.0
Tb639 Tb 0.31857 0.62755 0.1059 0.0
Eu640 Eu 0.36545 0.64549 0.15212 0.0
C641 C 0.29142 0.59984 0.16034 0.0
O642 O 0.31741 0.59908 0.16893 0.0
C643 C 0.36211 0.5822 0.13162 0.0
O644 O 0.40392 0.65817 0.17547 0.0
C645 C 0.31981 0.66576 0.17469 0.0
C646 C 0.41473 0.68332 0.17293 0.0
O647 O 0.4016 0.70252 0.15784 0.0
C648 C 0.36057 0.67597 0.09274 0.0
C649 C 0.30599 0.69301 0.17848 0.0
C650 C 0.27749 0.69388 0.18606 0.0
C651 C 0.26432 0.71953 0.19258 0.0
C652 C 0.27993 0.74434 0.19032 0.0
C653 C 0.30863 0.74366 0.18321 0.0
C654 C 0.32147 0.71787 0.17678 0.0
O655 O 0.34675 0.59129 0.11034 0.0
O656 O 0.36976 0.59866 0.15226 0.0
O657 O 0.28376 0.62087 0.07687 0.0
O658 O 0.3258 0.61775 0.06193 0.0
C659 C 0.2997 0.61653 0.05481 0.0
O660 O 0.37844 0.66497 0.11069 0.0
O661 O 0.33353 0.67047 0.09574 0.0
O662 O 0.34295 0.66134 0.189 0.0
O663 O 0.32141 0.65683 0.14867 0.0
H664 H 0.26597 0.67444 0.18825 0.0
H665 H 0.27056 0.76392 0.19738 0.0
H666 H 0.34377 0.71695 0.17207 0.0
O667 O 0.7816 0.44903 0.13309 0.0
Tb668 Tb 0.76225 0.43385 0.09348 0.0
Eu669 Eu 0.71579 0.41772 0.13825 0.0
C670 C 0.78784 0.47604 0.13612 0.0
O671 O 0.78116 0.49352 0.11561 0.0
C672 C 0.71462 0.47722 0.10872 0.0
O673 O 0.67764 0.40068 0.16001 0.0
C674 C 0.76039 0.40054 0.16437 0.0
C675 C 0.67089 0.37432 0.15633 0.0
O676 O 0.68816 0.35785 0.14217 0.0
C677 C 0.72131 0.38527 0.07966 0.0
C678 C 0.76891 0.37567 0.18049 0.0
C679 C 0.79568 0.37441 0.19252 0.0
C680 C 0.80356 0.35103 0.20884 0.0
C681 C 0.78458 0.32898 0.21282 0.0
C682 C 0.75738 0.33064 0.20187 0.0
C683 C 0.74967 0.35405 0.18559 0.0
O684 O 0.73002 0.46605 0.08849 0.0
O685 O 0.7106 0.46416 0.13289 0.0
O686 O 0.80364 0.4446 0.07553 0.0
O687 O 0.76837 0.44265 0.0492 0.0
C688 C 0.79499 0.44773 0.0497 0.0
O689 O 0.70348 0.397 0.09741 0.0
O690 O 0.74827 0.39133 0.08154 0.0
O691 O 0.74076 0.41615 0.17631 0.0
O692 O 0.75662 0.39686 0.13719 0.0
H693 H 0.81001 0.3918 0.18985 0.0
H694 H 0.79018 0.31156 0.22663 0.0
H695 H 0.72853 0.35583 0.17768 0.0
H696 H 0.09567 0.38728 0.44589 0.0
H697 H 0.18561 0.3755 0.44291 0.0
H698 H 0.18443 0.35458 0.49008 0.0
H699 H 0.15841 0.34173 0.53304 0.0
H700 H 0.06842 0.35243 0.53636 0.0
H701 H 0.06909 0.37158 0.48817 0.0
C702 C 0.115 0.37997 0.45547 0.0
C703 C 0.14073 0.38322 0.44087 0.0
C704 C 0.11419 0.36792 0.48275 0.0
C705 C 0.16551 0.37338 0.45358 0.0
C706 C 0.16488 0.36147 0.48065 0.0
C707 C 0.13889 0.34824 0.52327 0.0
C708 C 0.11343 0.34597 0.53847 0.0
C709 C 0.13943 0.35903 0.49557 0.0
C710 C 0.08833 0.35406 0.52523 0.0
C711 C 0.08871 0.36505 0.49767 0.0
H712 H 0.71491 0.19586 0.47851 0.0
H713 H 0.63032 0.16557 0.48974 0.0
H714 H 0.63473 0.16866 0.54073 0.0
H715 H 0.66306 0.17751 0.58219 0.0
H716 H 0.74707 0.209 0.57231 0.0
H717 H 0.74236 0.20822 0.52069 0.0
C718 C 0.69743 0.19008 0.49214 0.0
C719 C 0.67241 0.18033 0.48027 0.0
C720 C 0.7 0.19205 0.52165 0.0
C721 C 0.64985 0.17314 0.49823 0.0
C722 C 0.65232 0.17484 0.52745 0.0
C723 C 0.68025 0.18451 0.56878 0.0
C724 C 0.70561 0.19273 0.58089 0.0
C725 C 0.67735 0.18397 0.53938 0.0
C726 C 0.72759 0.202 0.56328 0.0
C727 C 0.72487 0.20156 0.53386 0.0
H728 H 0.96109 0.68144 0.45414 0.0
H729 H 0.89816 0.61723 0.46351 0.0
H730 H 0.89135 0.62949 0.51286 0.0
H731 H 0.90261 0.65832 0.55325 0.0
H732 H 0.96725 0.72062 0.5459 0.0
H733 H 0.97382 0.70959 0.49587 0.0
C734 C 0.94605 0.67003 0.46707 0.0
C735 C 0.93024 0.64837 0.45513 0.0
C736 C 0.94232 0.67704 0.49569 0.0
C737 C 0.91082 0.63379 0.47215 0.0
C738 C 0.90675 0.64087 0.50038 0.0
C739 C 0.91821 0.66941 0.54072 0.0
C740 C 0.93409 0.69054 0.55303 0.0
C741 C 0.92231 0.66243 0.51232 0.0
C742 C 0.95417 0.70485 0.53661 0.0
C743 C 0.95816 0.69829 0.50809 0.0
H744 H 0.32252 0.8693 0.48012 0.0
H745 H 0.39539 0.92187 0.48814 0.0
H746 H 0.39189 0.91889 0.53921 0.0
H747 H 0.37002 0.90008 0.58139 0.0
H748 H 0.29783 0.84676 0.57585 0.0
H749 H 0.29898 0.85136 0.52394 0.0
C750 C 0.33743 0.88023 0.49313 0.0
C751 C 0.35938 0.89551 0.48034 0.0
C752 C 0.33555 0.87816 0.52281 0.0
C753 C 0.37855 0.90963 0.49741 0.0
C754 C 0.37658 0.908 0.52665 0.0
C755 C 0.3546 0.88928 0.56884 0.0
C756 C 0.33397 0.87295 0.58219 0.0
C757 C 0.35554 0.89198 0.53949 0.0
C758 C 0.3138 0.85954 0.56582 0.0
C759 C 0.31456 0.86212 0.53625 0.0
H760 H 0.12018 0.6403 0.59012 0.0
H761 H 0.13952 0.72289 0.62077 0.0
H762 H 0.1184 0.74413 0.57865 0.0
H763 H 0.09838 0.73866 0.53112 0.0
H764 H 0.08375 0.6555 0.49941 0.0
H765 H 0.09692 0.63512 0.54486 0.0
C766 C 0.11979 0.66296 0.58763 0.0
C767 C 0.13193 0.67996 0.60819 0.0
C768 C 0.10768 0.67493 0.56349 0.0
C769 C 0.13062 0.70932 0.605 0.0
C770 C 0.11841 0.72147 0.58102 0.0
C771 C 0.09777 0.71614 0.53428 0.0
C772 C 0.09073 0.6985 0.51179 0.0
C773 C 0.10735 0.70443 0.55984 0.0
C774 C 0.08922 0.66942 0.51647 0.0
C775 C 0.09716 0.65774 0.54228 0.0
H776 H 0.34068 0.15311 0.63995 0.0
H777 H 0.43025 0.15541 0.62546 0.0
H778 H 0.42288 0.1629 0.57512 0.0
H779 H 0.39129 0.16365 0.5346 0.0
H780 H 0.3017 0.16191 0.54867 0.0
H781 H 0.30882 0.1598 0.59969 0.0
C782 C 0.35857 0.15562 0.62582 0.0
C783 C 0.38596 0.15325 0.63644 0.0
C784 C 0.35421 0.15989 0.59675 0.0
C785 C 0.40891 0.15696 0.6179 0.0
C786 C 0.40475 0.16115 0.58903 0.0
C787 C 0.3733 0.16324 0.54884 0.0
C788 C 0.34605 0.16259 0.53783 0.0
C789 C 0.37753 0.16187 0.57813 0.0
C790 C 0.32294 0.1624 0.55657 0.0
C791 C 0.32699 0.16101 0.58577 0.0
H792 H 0.97553 0.39088 0.60555 0.0
H793 H 0.89965 0.43816 0.58902 0.0
H794 H 0.89975 0.42127 0.54041 0.0
H795 H 0.91966 0.39061 0.50361 0.0
H796 H 0.99544 0.34322 0.52059 0.0
H797 H 0.99704 0.36269 0.56798 0.0
C798 C 0.95914 0.39773 0.59127 0.0
C799 C 0.9375 0.41557 0.60099 0.0
C800 C 0.95916 0.38774 0.56346 0.0
C801 C 0.91653 0.42436 0.58212 0.0
C802 C 0.9165 0.41463 0.55433 0.0
C803 C 0.9366 0.38463 0.51761 0.0
C804 C 0.95723 0.36529 0.50857 0.0
C805 C 0.93741 0.39588 0.54494 0.0
C806 C 0.97919 0.358 0.52695 0.0
C807 C 0.98014 0.36909 0.55412 0.0
H808 H 0.64404 0.90314 0.59487 0.0
H809 H 0.72993 0.91922 0.61731 0.0
H810 H 0.74461 0.91308 0.56808 0.0
H811 H 0.73253 0.90557 0.51828 0.0
H812 H 0.64646 0.89135 0.49589 0.0
H813 H 0.63243 0.89425 0.54539 0.0
C814 C 0.66604 0.90501 0.58911 0.0
C815 C 0.68582 0.91161 0.60986 0.0
C816 C 0.67429 0.90196 0.56067 0.0
C817 C 0.71421 0.91414 0.60185 0.0
C818 C 0.72263 0.91069 0.57365 0.0
C819 C 0.71083 0.90282 0.52417 0.0
C820 C 0.69077 0.89846 0.50313 0.0
C821 C 0.70279 0.90495 0.55281 0.0
C822 C 0.66252 0.89503 0.51142 0.0
C823 C 0.6544 0.89667 0.53982 0.0
H824 H 0.44355 0.15978 0.3947 0.0
H825 H 0.46431 0.10361 0.46362 0.0
H826 H 0.51385 0.10614 0.45079 0.0
H827 H 0.55124 0.12519 0.42119 0.0
H828 H 0.53147 0.17982 0.35093 0.0
H829 H 0.48135 0.17699 0.36307 0.0
C830 C 0.45894 0.14809 0.40687 0.0
C831 C 0.45031 0.13175 0.43026 0.0
C832 C 0.48746 0.14946 0.39924 0.0
C833 C 0.4704 0.1164 0.4456 0.0
C834 C 0.49875 0.11788 0.43832 0.0
C835 C 0.53599 0.13664 0.4086 0.0
C836 C 0.54495 0.15311 0.38555 0.0
C837 C 0.50748 0.13455 0.41542 0.0
C838 C 0.52498 0.1672 0.36894 0.0
C839 C 0.4964 0.16558 0.37588 0.0
H840 H 0.88844 0.43567 0.40459 0.0
H841 H 0.90813 0.41299 0.31844 0.0
H842 H 0.8986 0.4612 0.30299 0.0
H843 H 0.89118 0.51095 0.31515 0.0
H844 H 0.87483 0.53371 0.40175 0.0
H845 H 0.87608 0.48428 0.41582 0.0
C846 C 0.89023 0.4411 0.38235 0.0
C847 C 0.89941 0.42081 0.36279 0.0
C848 C 0.88538 0.46897 0.37372 0.0
C849 C 0.90142 0.42825 0.33402 0.0
C850 C 0.89599 0.45584 0.32516 0.0
C851 C 0.88693 0.505 0.33687 0.0
C852 C 0.8828 0.52589 0.35734 0.0
C853 C 0.88883 0.47657 0.34496 0.0
C854 C 0.87802 0.51794 0.38562 0.0
C855 C 0.87891 0.48971 0.39369 0.0
H856 H 0.5882 0.92913 0.42439 0.0
H857 H 0.59802 0.94939 0.33573 0.0
H858 H 0.54872 0.93903 0.32795 0.0
H859 H 0.50393 0.92074 0.34547 0.0
H860 H 0.49276 0.90326 0.4344 0.0
H861 H 0.54187 0.91515 0.4428 0.0
C862 C 0.5795 0.93165 0.40343 0.0
C863 C 0.59694 0.93964 0.38062 0.0
C864 C 0.55115 0.92541 0.39901 0.0
C865 C 0.58519 0.94305 0.35365 0.0
C866 C 0.55703 0.93692 0.34911 0.0
C867 C 0.51227 0.91944 0.36668 0.0
C868 C 0.49498 0.91069 0.38924 0.0
C869 C 0.54006 0.92733 0.37146 0.0
C870 C 0.50585 0.90964 0.41668 0.0
C871 C 0.53383 0.9166 0.4215 0.0
H872 H 0.15064 0.61703 0.34051 0.0
H873 H 0.11905 0.59969 0.42467 0.0
H874 H 0.13441 0.551 0.42087 0.0
H875 H 0.15789 0.51391 0.39461 0.0
H876 H 0.19023 0.53005 0.31064 0.0
H877 H 0.17377 0.57893 0.31348 0.0
C878 C 0.14695 0.60248 0.35787 0.0
C879 C 0.13394 0.61192 0.38289 0.0
C880 C 0.15626 0.57453 0.35574 0.0
C881 C 0.12929 0.59296 0.40529 0.0
C882 C 0.13808 0.56514 0.40318 0.0
C883 C 0.1616 0.52816 0.377 0.0
C884 C 0.17529 0.51857 0.35249 0.0
C885 C 0.15194 0.55585 0.37872 0.0
C886 C 0.17972 0.53714 0.32973 0.0
C887 C 0.17023 0.56496 0.33132 0.0
H888 H 0.52631 0.99006 0.70764 0.0
H889 H 0.55205 0.93051 0.64381 0.0
H890 H 0.5038 0.92644 0.62828 0.0
H891 H 0.45397 0.93458 0.63703 0.0
H892 H 0.42728 0.99256 0.70185 0.0
H893 H 0.4762 1.00295 0.71228 0.0
C894 C 0.52141 0.97663 0.68999 0.0
C895 C 0.54264 0.9602 0.67728 0.0
C896 C 0.49341 0.97391 0.68146 0.0
C897 C 0.53601 0.94299 0.65433 0.0
C898 C 0.50841 0.94065 0.64538 0.0
C899 C 0.4588 0.94984 0.65312 0.0
C900 C 0.43708 0.96225 0.66906 0.0
C901 C 0.48686 0.95518 0.65947 0.0
C902 C 0.44367 0.98237 0.68952 0.0
C903 C 0.47165 0.98825 0.69559 0.0
H904 H 0.18569 0.42476 0.6982 0.0
H905 H 0.15298 0.43154 0.61366 0.0
H906 H 0.15596 0.48249 0.61559 0.0
H907 H 0.16387 0.52528 0.64266 0.0
H908 H 0.19862 0.51904 0.72631 0.0
H909 H 0.19894 0.4679 0.72327 0.0
C910 C 0.17948 0.43739 0.68011 0.0
C911 C 0.16882 0.42429 0.65597 0.0
C912 C 0.18138 0.46684 0.68126 0.0
C913 C 0.1612 0.44098 0.63257 0.0
C914 C 0.1628 0.4702 0.63366 0.0
C915 C 0.17192 0.5128 0.66009 0.0
C916 C 0.18044 0.52604 0.68501 0.0
C917 C 0.17231 0.48338 0.65809 0.0
C918 C 0.19115 0.50944 0.70719 0.0
C919 C 0.19145 0.48014 0.70543 0.0
H920 H 0.61885 0.10141 0.68902 0.0
H921 H 0.58683 0.15021 0.61892 0.0
H922 H 0.53905 0.138 0.63226 0.0
H923 H 0.50615 0.11915 0.66732 0.0
H924 H 0.53677 0.06942 0.73709 0.0
H925 H 0.58523 0.07604 0.72033 0.0
C926 C 0.60146 0.10881 0.67629 0.0
C927 C 0.60646 0.1272 0.65331 0.0
C928 C 0.57375 0.1019 0.68427 0.0
C929 C 0.58365 0.13639 0.63694 0.0
C930 C 0.55624 0.12951 0.6446 0.0
C931 C 0.52344 0.10942 0.67861 0.0
C932 C 0.51805 0.09426 0.7036 0.0
C933 C 0.55102 0.11325 0.66882 0.0
C934 C 0.54049 0.08129 0.71781 0.0
C935 C 0.56818 0.0852 0.7083 0.0
H936 H 0.86512 0.62216 0.68049 0.0
H937 H 0.93029 0.6312 0.74241 0.0
H938 H 0.92533 0.58189 0.75599 0.0
H939 H 0.90879 0.53491 0.74384 0.0
H940 H 0.84643 0.52513 0.67965 0.0
H941 H 0.84412 0.57622 0.67291 0.0
C942 C 0.8779 0.61354 0.69735 0.0
C943 C 0.89849 0.63018 0.71 0.0
C944 C 0.87565 0.585 0.70428 0.0
C945 C 0.9145 0.61879 0.73212 0.0
C946 C 0.9118 0.59055 0.73978 0.0
C947 C 0.89376 0.54413 0.72941 0.0
C948 C 0.87726 0.52667 0.71275 0.0
C949 C 0.89332 0.57325 0.72513 0.0
C950 C 0.85895 0.53847 0.6929 0.0
C951 C 0.85778 0.56756 0.68901 0.0
H952 H 0.37414 0.4506 0.1233 0.0
H953 H 0.42375 0.46242 0.19793 0.0
H954 H 0.41523 0.51321 0.19514 0.0
H955 H 0.39373 0.55423 0.17113 0.0
H956 H 0.34571 0.5414 0.0954 0.0
H957 H 0.35388 0.49109 0.09892 0.0
C958 C 0.38295 0.46421 0.13913 0.0
C959 C 0.39937 0.45272 0.16094 0.0
C960 C 0.37848 0.49328 0.13704 0.0
C961 C 0.41095 0.47075 0.18099 0.0
C962 C 0.40614 0.49978 0.17935 0.0
C963 C 0.3852 0.54047 0.15529 0.0
C964 C 0.36913 0.55178 0.13302 0.0
C965 C 0.39002 0.51131 0.15736 0.0
C966 C 0.35824 0.53349 0.11274 0.0
C967 C 0.36279 0.5046 0.11477 0.0
H968 H 0.3636 0.60587 0.92455 0.0
H969 H 0.44427 0.59581 0.96374 0.0
H970 H 0.44284 0.54487 0.95541 0.0
H971 H 0.41782 0.50335 0.9373 0.0
H972 H 0.33985 0.51575 0.89319 0.0
H973 H 0.34096 0.56576 0.90308 0.0
C974 C 0.38077 0.59245 0.93147 0.0
C975 C 0.40372 0.6042 0.94525 0.0
C976 C 0.38022 0.56372 0.92565 0.0
C977 C 0.42627 0.58694 0.95338 0.0
C978 C 0.42544 0.55795 0.94854 0.0
C979 C 0.4012 0.51705 0.92967 0.0
C980 C 0.37822 0.50567 0.91534 0.0
C981 C 0.40247 0.5461 0.93468 0.0
C982 C 0.35713 0.52376 0.90521 0.0
C983 C 0.35789 0.55243 0.91063 0.0
H984 H 0.46987 0.35683 0.88497 0.0
H985 H 0.49352 0.41159 0.9529 0.0
H986 H 0.5425 0.39862 0.94614 0.0
H987 H 0.57911 0.37344 0.92005 0.0
H988 H 0.55705 0.31711 0.85329 0.0
H989 H 0.50708 0.32877 0.86049 0.0
C990 C 0.48575 0.36578 0.89834 0.0
C991 C 0.4779 0.38539 0.91923 0.0
C992 C 0.51421 0.358 0.89453 0.0
C993 C 0.49879 0.39656 0.93657 0.0
C994 C 0.52693 0.38922 0.93272 0.0
C995 C 0.56333 0.36358 0.90721 0.0
C996 C 0.57158 0.34432 0.88634 0.0
C997 C 0.5349 0.37025 0.91161 0.0
C998 C 0.55102 0.33173 0.86974 0.0
C999 C 0.52253 0.33851 0.87379 0.0
H1000 H 0.64885 0.46872 0.87485 0.0
H1001 H 0.60026 0.46743 0.95224 0.0
H1002 H 0.61109 0.51712 0.95993 0.0
H1003 H 0.63731 0.55995 0.94592 0.0
H1004 H 0.6901 0.55796 0.87134 0.0
H1005 H 0.67472 0.51042 0.86118 0.0
C1006 C 0.64018 0.47937 0.8932 0.0
C1007 C 0.62351 0.46456 0.91281 0.0
C1008 C 0.64753 0.50727 0.89804 0.0
C1009 C 0.61301 0.47851 0.93678 0.0
C1010 C 0.61929 0.50683 0.9412 0.0
C1011 C 0.6451 0.5491 0.92732 0.0
C1012 C 0.6646 0.56235 0.90926 0.0
C1013 C 0.63695 0.52129 0.92219 0.0
C1014 C 0.67506 0.54809 0.8855 0.0
C1015 C 0.66627 0.52096 0.87967 0.0
H1016 H 0.55967 0.66534 0.93792 0.0
H1017 H 0.60291 0.71487 0.87471 0.0
H1018 H 0.5579 0.7337 0.85811 0.0
H1019 H 0.50569 0.73466 0.86066 0.0
H1020 H 0.46384 0.68377 0.92359 0.0
H1021 H 0.50871 0.66663 0.94087 0.0
C1022 C 0.55938 0.68036 0.92058 0.0
C1023 C 0.58466 0.6886 0.90755 0.0
C1024 C 0.53353 0.6907 0.91092 0.0
C1025 C 0.58375 0.70811 0.88511 0.0
C1026 C 0.558 0.71882 0.87554 0.0
C1027 C 0.50656 0.71997 0.87825 0.0
C1028 C 0.48146 0.71089 0.89119 0.0
C1029 C 0.53269 0.71003 0.8881 0.0
C1030 C 0.48275 0.6913 0.91348 0.0
C1031 C 0.50847 0.68153 0.92344 0.0
H1032 H 0.67691 0.601 0.07906 0.0
H1033 H 0.61811 0.58408 0.14701 0.0
H1034 H 0.63563 0.53594 0.15051 0.0
H1035 H 0.67035 0.49998 0.13719 0.0
H1036 H 0.72917 0.51671 0.06927 0.0
H1037 H 0.70895 0.56361 0.06293 0.0
C1038 C 0.6676 0.58667 0.09434 0.0
C1039 C 0.64645 0.59626 0.11296 0.0
C1040 C 0.67805 0.5591 0.09655 0.0
C1041 C 0.63454 0.57734 0.13252 0.0
C1042 C 0.64464 0.54982 0.13466 0.0
C1043 C 0.6787 0.51387 0.12096 0.0
C1044 C 0.70144 0.50503 0.104 0.0
C1045 C 0.66691 0.54073 0.11733 0.0
C1046 C 0.71173 0.52306 0.08271 0.0
C1047 C 0.70019 0.5499 0.07907 0.0
H1048 H 0.44753 0.72942 0.16429 0.0
H1049 H 0.4474 0.647 0.20302 0.0
H1050 H 0.49775 0.64958 0.21024 0.0
H1051 H 0.54236 0.67208 0.19951 0.0
H1052 H 0.54313 0.7543 0.16112 0.0
H1053 H 0.49213 0.75518 0.16024 0.0
C1054 C 0.45842 0.71225 0.17479 0.0
C1055 C 0.44379 0.68778 0.18246 0.0
C1056 C 0.48758 0.71365 0.17858 0.0
C1057 C 0.45817 0.66591 0.19644 0.0
C1058 C 0.48703 0.6673 0.20054 0.0
C1059 C 0.53143 0.69036 0.19115 0.0
C1060 C 0.54678 0.71267 0.17927 0.0
C1061 C 0.50205 0.69057 0.19066 0.0
C1062 C 0.53213 0.73647 0.16951 0.0
C1063 C 0.5028 0.73699 0.16908 0.0
H1064 H 0.62668 0.40677 0.17275 0.0
H1065 H 0.65027 0.32123 0.15343 0.0
H1066 H 0.60106 0.30751 0.15541 0.0
H1067 H 0.55154 0.3208 0.15777 0.0
H1068 H 0.52768 0.40669 0.17538 0.0
H1069 H 0.57704 0.41927 0.17895 0.0
C1070 C 0.62113 0.38502 0.16944 0.0
C1071 C 0.64204 0.3651 0.16261 0.0
C1072 C 0.5928 0.37744 0.16988 0.0
C1073 C 0.63452 0.337 0.15848 0.0
C1074 C 0.60639 0.32917 0.15948 0.0
C1075 C 0.55702 0.34228 0.16249 0.0
C1076 C 0.53589 0.36285 0.16584 0.0
C1077 C 0.58536 0.34941 0.16428 0.0
C1078 C 0.54349 0.39046 0.17246 0.0
C1079 C 0.57172 0.39769 0.17451 0.0
H1080 H 0.19059 0.53466 0.22193 0.0
H1081 H 0.26142 0.4883 0.25521 0.0
H1082 H 0.2934 0.51726 0.22777 0.0
H1083 H 0.30216 0.55637 0.19572 0.0
H1084 H 0.23304 0.60307 0.16003 0.0
H1085 H 0.19977 0.57355 0.18684 0.0
C1086 C 0.21299 0.5307 0.22292 0.0
C1087 C 0.22336 0.50913 0.24095 0.0
C1088 C 0.23173 0.54774 0.20681 0.0
C1089 C 0.25257 0.5046 0.24184 0.0
C1090 C 0.27104 0.52127 0.22611 0.0
C1091 C 0.27981 0.56035 0.19377 0.0
C1092 C 0.27026 0.58234 0.17605 0.0
C1093 C 0.26095 0.54308 0.20885 0.0
C1094 C 0.24112 0.5865 0.17356 0.0
C1095 C 0.22207 0.56955 0.18893 0.0
H1096 H 0.52565 0.18055 0.27567 0.0
H1097 H 0.61105 0.19377 0.24773 0.0
H1098 H 0.59418 0.22579 0.2106 0.0
H1099 H 0.55515 0.24968 0.18582 0.0
H1100 H 0.46991 0.23727 0.21469 0.0
H1101 H 0.48682 0.2053 0.25175 0.0
C1102 C 0.54072 0.19033 0.26147 0.0
C1103 C 0.56976 0.18442 0.26453 0.0
C1104 C 0.53083 0.2089 0.2403 0.0
C1105 C 0.58871 0.19771 0.24597 0.0
C1106 C 0.57901 0.21605 0.22469 0.0
C1107 C 0.54015 0.23998 0.20015 0.0
C1108 C 0.5111 0.24587 0.19716 0.0
C1109 C 0.55011 0.22173 0.22159 0.0
C1110 C 0.49224 0.2332 0.21627 0.0
C1111 C 0.50197 0.21486 0.2375 0.0
H1112 H 0.79873 0.53099 0.14962 0.0
H1113 H 0.81272 0.44623 0.17946 0.0
H1114 H 0.84062 0.46412 0.2185 0.0
H1115 H 0.8623 0.50362 0.24355 0.0
H1116 H 0.84758 0.58857 0.21471 0.0
H1117 H 0.81877 0.57083 0.1761 0.0
C1118 C 0.80775 0.51632 0.16469 0.0
C1119 C 0.80353 0.48705 0.16123 0.0
C1120 C 0.82381 0.52686 0.18732 0.0
C1121 C 0.81542 0.46869 0.18131 0.0
C1122 C 0.83151 0.47898 0.20369 0.0
C1123 C 0.85282 0.51842 0.22889 0.0
C1124 C 0.85751 0.54761 0.23216 0.0
C1125 C 0.83606 0.508 0.2068 0.0
C1126 C 0.84459 0.56614 0.21291 0.0
C1127 C 0.82809 0.55592 0.19073 0.0
H1128 H 0.519 0.78236 0.22853 0.0
H1129 H 0.56179 0.85382 0.19304 0.0
H1130 H 0.52996 0.88559 0.21918 0.0
H1131 H 0.49114 0.89279 0.25489 0.0
H1132 H 0.44789 0.81993 0.28738 0.0
H1133 H 0.47817 0.78935 0.25947 0.0
C1134 C 0.52144 0.80491 0.2265 0.0
C1135 C 0.54318 0.81564 0.20926 0.0
C1136 C 0.50271 0.82294 0.24104 0.0
C1137 C 0.54544 0.84495 0.20633 0.0
C1138 C 0.52719 0.86313 0.22131 0.0
C1139 C 0.48799 0.87028 0.25536 0.0
C1140 C 0.46724 0.85883 0.2736 0.0
C1141 C 0.50581 0.85239 0.23904 0.0
C1142 C 0.46373 0.8295 0.27392 0.0
C1143 C 0.48116 0.81185 0.25797 0.0
H1144 H 0.19165 0.49674 0.79564 0.0
H1145 H 0.20591 0.58276 0.81939 0.0
H1146 H 0.23909 0.56675 0.85533 0.0
H1147 H 0.26426 0.5288 0.87964 0.0
H1148 H 0.25108 0.44254 0.8562 0.0
H1149 H 0.21718 0.45827 0.82043 0.0
C1150 C 0.20189 0.51208 0.80873 0.0
C1151 C 0.19603 0.5411 0.80472 0.0
C1152 C 0.22117 0.50265 0.82936 0.0
C1153 C 0.20978 0.56044 0.8219 0.0
C1154 C 0.22883 0.55124 0.84248 0.0
C1155 C 0.25404 0.51322 0.86682 0.0
C1156 C 0.26037 0.48432 0.87083 0.0
C1157 C 0.23472 0.52245 0.84634 0.0
C1158 C 0.24672 0.46479 0.85378 0.0
C1159 C 0.22732 0.47385 0.83329 0.0
H1160 H 0.53966 0.1301 0.80495 0.0
H1161 H 0.45798 0.16932 0.79813 0.0
H1162 H 0.47517 0.2104 0.82336 0.0
H1163 H 0.51294 0.23485 0.84844 0.0
H1164 H 0.59459 0.19569 0.85575 0.0
H1165 H 0.57787 0.15513 0.82921 0.0
C1166 C 0.52552 0.14764 0.8088 0.0
C1167 C 0.49732 0.14632 0.79942 0.0
C1168 C 0.53561 0.1713 0.82353 0.0
C1169 C 0.47963 0.16948 0.80486 0.0
C1170 C 0.48952 0.19305 0.8194 0.0
C1171 C 0.52729 0.21755 0.84422 0.0
C1172 C 0.55523 0.21863 0.85436 0.0
C1173 C 0.51741 0.19416 0.82899 0.0
C1174 C 0.57315 0.19575 0.8484 0.0
C1175 C 0.56349 0.17245 0.83319 0.0
H1176 H 0.77675 0.52714 0.88321 0.0
H1177 H 0.8096 0.6103 0.86914 0.0
H1178 H 0.84753 0.5902 0.83977 0.0
H1179 H 0.87093 0.54904 0.81785 0.0
H1180 H 0.83749 0.4661 0.83202 0.0
H1181 H 0.8002 0.48623 0.86189 0.0
C1182 C 0.7921 0.5411 0.87375 0.0
C1183 C 0.79006 0.57045 0.87846 0.0
C1184 C 0.81382 0.52934 0.85702 0.0
C1185 C 0.81045 0.58781 0.86599 0.0
C1186 C 0.83218 0.57624 0.84919 0.0
C1187 C 0.85562 0.5352 0.82756 0.0
C1188 C 0.85726 0.50585 0.82262 0.0
C1189 C 0.83406 0.54703 0.84457 0.0
C1190 C 0.837 0.48857 0.83542 0.0
C1191 C 0.81558 0.50016 0.85246 0.0
H1192 H 0.5451 0.81756 0.83504 0.0
H1193 H 0.46744 0.86206 0.85167 0.0
H1194 H 0.48331 0.90087 0.82134 0.0
H1195 H 0.51966 0.92278 0.79102 0.0
H1196 H 0.59752 0.87853 0.7748 0.0
H1197 H 0.58109 0.83908 0.80393 0.0
C1198 C 0.53147 0.83566 0.83202 0.0
C1199 C 0.50492 0.83666 0.84587 0.0
C1200 C 0.54084 0.85803 0.81456 0.0
C1201 C 0.48783 0.86048 0.84146 0.0
C1202 C 0.49697 0.88276 0.82407 0.0
C1203 C 0.53308 0.90447 0.79363 0.0
C1204 C 0.55999 0.90385 0.78051 0.0
C1205 C 0.52349 0.88185 0.81062 0.0
C1206 C 0.57686 0.87979 0.78446 0.0
C1207 C 0.56741 0.85718 0.8012 0.0
H1208 H 0.14327 0.20108 0.56152 0.0
H1209 H 0.18398 0.28036 0.57484 0.0
H1210 H 0.22304 0.2653 0.54407 0.0
H1211 H 0.24563 0.22942 0.51331 0.0
H1212 H 0.20418 0.15039 0.50047 0.0
H1213 H 0.1653 0.16579 0.53085 0.0
C1214 C 0.1607 0.21516 0.55794 0.0
C1215 C 0.16058 0.2419 0.57084 0.0
C1216 C 0.1829 0.20646 0.54 0.0
C1217 C 0.18344 0.25969 0.5655 0.0
C1218 C 0.20576 0.25108 0.54775 0.0
C1219 C 0.228 0.21559 0.51691 0.0
C1220 C 0.22796 0.18867 0.5043 0.0
C1221 C 0.20569 0.22452 0.53479 0.0
C1222 C 0.20491 0.17114 0.50961 0.0
C1223 C 0.18265 0.17993 0.52714 0.0
H1224 H 0.81634 0.21063 0.50973 0.0
H1225 H 0.84979 0.21354 0.59405 0.0
H1226 H 0.88847 0.24271 0.57688 0.0
H1227 H 0.91372 0.26626 0.5378 0.0
H1228 H 0.88031 0.26396 0.45346 0.0
H1229 H 0.84072 0.23594 0.4708 0.0
C1230 C 0.83204 0.21765 0.52445 0.0
C1231 C 0.83005 0.20958 0.55329 0.0
C1232 C 0.85429 0.23463 0.51438 0.0
C1233 C 0.85062 0.21923 0.57186 0.0
C1234 C 0.87283 0.23595 0.56199 0.0
C1235 C 0.89771 0.25987 0.52313 0.0
C1236 C 0.90022 0.26734 0.49419 0.0
C1237 C 0.87499 0.24365 0.53329 0.0
C1238 C 0.87908 0.2587 0.47574 0.0
C1239 C 0.85642 0.24255 0.48569 0.0
H1240 H 0.90548 0.8589 0.56172 0.0
H1241 H 0.85543 0.79039 0.5937 0.0
H1242 H 0.81501 0.80835 0.56726 0.0
H1243 H 0.79426 0.84271 0.53372 0.0
H1244 H 0.8447 0.911 0.50187 0.0
H1245 H 0.88461 0.89365 0.52927 0.0
C1246 C 0.8857 0.84791 0.56322 0.0
C1247 C 0.88367 0.82324 0.58 0.0
C1248 C 0.86265 0.85815 0.54757 0.0
C1249 C 0.85773 0.80946 0.58133 0.0
C1250 C 0.83461 0.81966 0.56597 0.0
C1251 C 0.81401 0.85378 0.53258 0.0
C1252 C 0.81637 0.87814 0.51535 0.0
C1253 C 0.8369 0.8438 0.54874 0.0
C1254 C 0.84215 0.89223 0.51465 0.0
C1255 C 0.86501 0.88232 0.53045 0.0
H1256 H 0.15703 0.77403 0.52984 0.0
H1257 H 0.16762 0.81878 0.45083 0.0
H1258 H 0.19971 0.85132 0.47384 0.0
H1259 H 0.22383 0.86772 0.51664 0.0
H1260 H 0.21223 0.82351 0.5958 0.0
H1261 H 0.18132 0.79017 0.57241 0.0
C1262 C 0.16642 0.79076 0.51741 0.0
C1263 C 0.15975 0.79372 0.48835 0.0
C1264 C 0.18455 0.80965 0.53095 0.0
C1265 C 0.17223 0.81577 0.47302 0.0
C1266 C 0.19056 0.83447 0.48628 0.0
C1267 C 0.2146 0.85082 0.52894 0.0
C1268 C 0.2205 0.84836 0.55823 0.0
C1269 C 0.19671 0.83175 0.51528 0.0
C1270 C 0.20814 0.82618 0.57346 0.0
C1271 C 0.19047 0.80703 0.56 0.0
H1272 H 0.99288 0.56519 0.33312 0.0
H1273 H 0.98377 0.56136 0.2426 0.0
H1274 H 0.03339 0.5487 0.23733 0.0
H1275 H 0.07801 0.53584 0.25874 0.0
H1276 H 0.08717 0.53835 0.3493 0.0
H1277 H 0.0388 0.55563 0.35437 0.0
C1278 C 1.00181 0.56145 0.31228 0.0
C1279 C 0.9849 0.5636 0.28828 0.0
C1280 C 0.03024 0.5545 0.30947 0.0
C1281 C 0.99656 0.55938 0.26132 0.0
C1282 C 1.02484 0.55235 0.25832 0.0
C1283 C 0.06956 0.54068 0.27955 0.0
C1284 C 0.08571 0.53563 0.30366 0.0
C1285 C 0.04173 0.54958 0.28227 0.0
C1286 C 0.07484 0.54206 0.3305 0.0
C1287 C 0.04721 0.55164 0.3334 0.0
H1288 H 0.50135 0.99307 0.29331 0.0
H1289 H 0.48455 0.99702 0.383 0.0
H1290 H 0.52109 0.0321 0.38821 0.0
H1291 H 0.55656 0.06237 0.36708 0.0
H1292 H 0.57332 0.05929 0.27737 0.0
H1293 H 0.53815 1.02255 0.27228 0.0
C1294 C 0.50568 1.00177 0.31392 0.0
C1295 C 0.49027 0.99299 0.33768 0.0
C1296 C 0.52673 1.02172 0.31674 0.0
C1297 C 0.4961 1.0039 0.3644 0.0
C1298 C 0.51701 1.02377 0.36741 0.0
C1299 C 0.55268 0.05344 0.34646 0.0
C1300 C 0.56723 0.06331 0.32261 0.0
C1301 C 0.53231 0.03289 0.34371 0.0
C1302 C 0.56219 0.0518 0.29598 0.0
C1303 C 0.54208 0.03098 0.29306 0.0
H1304 H 0.98547 0.50149 0.71743 0.0
H1305 H 0.98399 0.50168 0.8086 0.0
H1306 H 0.03102 0.52193 0.80898 0.0
H1307 H 0.07204 0.53964 0.78321 0.0
H1308 H 0.07376 0.53859 0.69202 0.0
H1309 H 1.02699 0.5179 0.69171 0.0
C1310 C 0.99542 0.50618 0.73735 0.0
C1311 C 0.98152 0.5005 0.76295 0.0
C1312 C 1.02242 0.51721 0.73735 0.0
C1313 C 0.99451 0.50616 0.78869 0.0
C1314 C 1.02131 0.51757 0.7889 0.0
C1315 C 0.06222 0.53464 0.76331 0.0
C1316 C 0.07601 0.54054 0.73768 0.0
C1317 C 0.03543 0.52308 0.76334 0.0
C1318 C 0.06333 0.53407 0.71198 0.0
C1319 C 0.03663 0.52244 0.71179 0.0
H1320 H 0.56137 0.97247 0.81447 0.0
H1321 H 0.59372 0.056 0.8041 0.0
H1322 H 0.55086 0.0757 0.82514 0.0
H1323 H 0.50032 0.06975 0.82916 0.0
H1324 H 0.46546 0.98735 0.82079 0.0
H1325 H 0.51194 0.96615 0.82655 0.0
C1326 C 0.5594 0.99487 0.81812 0.0
C1327 C 0.58026 1.01291 0.8077 0.0
C1328 C 0.53342 1.00607 0.82664 0.0
C1329 C 0.57777 0.04187 0.81212 0.0
C1330 C 0.55311 0.05308 0.82379 0.0
C1331 C 0.5029 0.04711 0.82994 0.0
C1332 C 0.47993 0.03007 0.82381 0.0
C1333 C 0.53001 0.03555 0.82864 0.0
C1334 C 0.48304 1.0008 0.8253 0.0
C1335 C 0.50974 0.98877 0.82793 0.0
H1336 H 0.32204 0.96744 0.558 0.0
H1337 H 0.23175 0.96507 0.55313 0.0
H1338 H 0.23123 1.00956 0.52734 0.0
H1339 H 0.25587 0.05061 0.51 0.0
H1340 H 0.34592 0.05512 0.51621 0.0
H1341 H 0.34727 1.00826 0.53809 0.0
C1342 C 0.30241 0.97653 0.55072 0.0
C1343 C 0.27697 0.9634 0.55728 0.0
C1344 C 0.30222 1.00257 0.53679 0.0
C1345 C 0.25152 0.97515 0.54821 0.0
C1346 C 0.2512 1.00055 0.53366 0.0
C1347 C 0.2758 0.04132 0.51615 0.0
C1348 C 0.3007 0.05613 0.51196 0.0
C1349 C 0.27632 1.01475 0.52857 0.0
C1350 C 0.32646 0.04396 0.51963 0.0
C1351 C 0.32724 1.01723 0.53196 0.0
H1352 H 0.97344 0.2365 0.50283 0.0
H1353 H 0.05385 0.23432 0.46073 0.0
H1354 H 0.07657 0.22112 0.50496 0.0
H1355 H 0.07503 0.22882 0.55562 0.0
H1356 H 0.99619 0.24558 0.59748 0.0
H1357 H 0.97103 0.23397 0.55439 0.0
C1358 C 0.99572 0.23166 0.50325 0.0
C1359 C 1.01215 0.23659 0.47896 0.0
C1360 C 1.00887 0.22761 0.52933 0.0
C1361 C 0.04094 0.23052 0.47933 0.0
C1362 C 0.05393 0.22348 0.50474 0.0
C1363 C 0.0523 0.22818 0.55572 0.0
C1364 C 0.03736 0.23796 0.57943 0.0
C1365 C 0.03842 0.22465 0.53011 0.0
C1366 C 1.00797 0.23784 0.57939 0.0
C1367 C 0.99368 0.23168 0.55459 0.0
H1368 H 0.70644 1.01471 0.50653 0.0
H1369 H 0.75295 0.97302 0.57262 0.0
H1370 H 0.76223 1.01813 0.59459 0.0
H1371 H 0.76434 0.06883 0.58993 0.0
H1372 H 0.71898 0.11189 0.52401 0.0
H1373 H 0.70227 0.06655 0.50634 0.0
C1374 C 0.71759 1.01553 0.52638 0.0
C1375 C 0.7293 0.99087 0.53798 0.0
C1376 C 0.72395 0.04164 0.53806 0.0
C1377 C 0.74388 0.99192 0.56348 0.0
C1378 C 0.7495 1.01766 0.57575 0.0
C1379 C 0.75073 0.0683 0.57171 0.0
C1380 C 0.74362 0.09325 0.5575 0.0
C1381 C 0.74099 0.04258 0.5623 0.0
C1382 C 0.72519 0.09263 0.53465 0.0
C1383 C 0.71555 0.06684 0.52479 0.0
H1384 H 0.96252 0.80234 0.52324 0.0
H1385 H 0.03342 0.8122 0.57789 0.0
H1386 H 0.06084 0.83209 0.53853 0.0
H1387 H 0.06777 0.83233 0.48717 0.0
H1388 H 0.99828 0.81551 0.4328 0.0
H1389 H 0.96621 0.81555 0.47326 0.0
C1390 C 0.98378 0.8095 0.52658 0.0
C1391 C 0.9966 0.80492 0.55275 0.0
C1392 C 0.99931 0.82027 0.50389 0.0
C1393 C 1.02362 0.81503 0.5575 0.0
C1394 C 0.03917 0.82644 0.53508 0.0
C1395 C 0.04532 0.83048 0.48412 0.0
C1396 C 0.03531 0.82244 0.45765 0.0
C1397 C 1.02778 0.82732 0.50783 0.0
C1398 C 1.00632 0.82097 0.45337 0.0
C1399 C 0.98815 0.82018 0.4766 0.0
H1400 H 0.53357 0.24121 0.97831 0.0
H1401 H 0.51601 0.32611 0.95102 0.0
H1402 H 0.48781 0.33414 0.99367 0.0
H1403 H 0.4769 0.31987 0.04232 0.0
H1404 H 0.49676 0.23589 0.07087 0.0
H1405 H 0.51539 0.22433 1.02386 0.0
C1406 C 0.52294 0.26122 0.98143 0.0
C1407 C 0.5273 0.28335 0.96224 0.0
C1408 C 0.50781 0.26591 1.00637 0.0
C1409 C 0.51312 0.30899 0.96589 0.0
C1410 C 0.49724 0.31362 0.99033 0.0
C1411 C 0.485 0.29894 0.03804 0.0
C1412 C 0.48646 0.27892 0.05984 0.0
C1413 C 0.4959 0.29274 1.01135 0.0
C1414 C 0.49602 0.25163 0.05423 0.0
C1415 C 0.50663 0.24509 1.02749 0.0
H1416 H 0.51237 0.73154 0.97534 0.0
H1417 H 0.55367 0.8086 0.95208 0.0
H1418 H 0.57469 0.81096 0.99894 0.0
H1419 H 0.57498 0.79512 0.04804 0.0
H1420 H 0.52979 0.72071 0.07294 0.0
H1421 H 0.51572 0.71357 1.02386 0.0
C1422 C 0.52677 0.74829 0.98031 0.0
C1423 C 0.5317 0.76988 0.96063 0.0
C1424 C 0.537 0.75052 1.00776 0.0
C1425 C 0.54991 0.79176 0.96712 0.0
C1426 C 0.56151 0.7933 0.99394 0.0
C1427 C 0.56202 0.77735 0.04271 0.0
C1428 C 0.55283 0.75877 0.0639 0.0
C1429 C 0.55402 0.77356 1.01475 0.0
C1430 C 0.53656 0.73553 0.05684 0.0
C1431 C 0.52878 0.73133 1.02885 0.0
H1432 H 0.32136 0.53657 0.95888 0.0
H1433 H 0.26245 0.48716 1.00714 0.0
H1434 H 0.24881 0.5287 0.03469 0.0
H1435 H 0.26105 0.5762 0.05038 0.0
H1436 H 0.32199 0.62401 1.00293 0.0
H1437 H 0.32626 0.58652 0.96828 0.0
C1438 C 0.30532 0.53508 0.97524 0.0
C1439 C 0.29356 0.50906 0.98195 0.0
C1440 C 0.29762 0.55885 0.99057 0.0
C1441 C 0.27212 0.50715 1.00234 0.0
C1442 C 0.26428 0.53083 1.01788 0.0
C1443 C 0.2741 0.57889 1.03163 0.0
C1444 C 0.29146 0.60237 1.0291 0.0
C1445 C 0.27776 0.55651 1.0129 0.0
C1446 C 0.30853 0.60588 1.00505 0.0
C1447 C 0.31135 0.58428 0.98559 0.0
H1448 H 0.79247 0.56399 1.00482 0.0
H1449 H 0.73222 0.52242 0.9526 0.0
H1450 H 0.75321 0.47692 0.96407 0.0
H1451 H 0.78218 0.44912 0.99539 0.0
H1452 H 0.83322 0.48977 0.05704 0.0
H1453 H 0.82511 0.53516 0.03378 0.0
C1454 C 0.78408 0.54485 0.9961 0.0
C1455 C 0.76045 0.54615 0.9787 0.0
C1456 C 0.79543 0.51869 1.00385 0.0
C1457 C 0.74984 0.52158 0.96689 0.0
C1458 C 0.76211 0.49569 0.97303 0.0
C1459 C 0.79252 0.46784 1.00289 0.0
C1460 C 0.80712 0.46658 1.0284 0.0
C1461 C 0.7842 0.49396 0.99225 0.0
C1462 C 0.82136 0.49043 0.03763 0.0
C1463 C 0.81594 0.5165 1.02489 0.0
H1464 H 0.25693 0.24114 0.3918 0.0
H1465 H 0.23326 0.188 0.32267 0.0
H1466 H 0.20321 0.22547 0.30407 0.0
H1467 H 0.1948 0.27657 0.30103 0.0
H1468 H 0.2221 0.32931 0.36911 0.0
H1469 H 0.23825 0.2884 0.39518 0.0
C1470 C 0.24425 0.23704 0.37343 0.0
C1471 C 0.2483 0.2122 0.35798 0.0
C1472 C 0.22787 0.25892 0.36237 0.0
C1473 C 0.23129 0.20738 0.33439 0.0
C1474 C 0.2142 0.22884 0.32367 0.0
C1475 C 0.20358 0.27895 0.32192 0.0
C1476 C 0.20799 0.30599 0.33266 0.0
C1477 C 0.21412 0.25535 0.33635 0.0
C1478 C 0.21858 0.30881 0.36013 0.0
C1479 C 0.22816 0.28538 0.37502 0.0
H1480 H 0.77982 0.1721 0.32326 0.0
H1481 H 0.74159 0.21787 0.39216 0.0
H1482 H 0.7876 0.23213 0.40821 0.0
H1483 H 0.83562 0.24309 0.3939 0.0
H1484 H 0.87354 0.20091 0.32253 0.0
H1485 H 0.83096 0.17357 0.31638 0.0
C1486 C 0.78172 0.18442 0.34233 0.0
C1487 C 0.75739 0.19469 0.35592 0.0
C1488 C 0.80817 0.19381 0.35056 0.0
C1489 C 0.75998 0.20993 0.38108 0.0
C1490 C 0.78633 0.21842 0.3901 0.0
C1491 C 0.83513 0.227 0.37781 0.0
C1492 C 0.8573 0.22465 0.35809 0.0
C1493 C 0.81024 0.21224 0.37372 0.0
C1494 C 0.85637 0.20358 0.33749 0.0
C1495 C 0.83199 0.18805 0.33388 0.0
H1496 H 0.82079 0.73552 0.36806 0.0
H1497 H 0.87845 0.76956 0.30628 0.0
H1498 H 0.85784 0.81633 0.31259 0.0
H1499 H 0.81683 0.84425 0.32731 0.0
H1500 H 0.75611 0.80846 0.38501 0.0
H1501 H 0.78512 0.7663 0.38985 0.0
C1502 C 0.82955 0.75341 0.35686 0.0
C1503 C 0.85082 0.74917 0.33649 0.0
C1504 C 0.81677 0.77995 0.35971 0.0
C1505 C 0.86189 0.77241 0.32189 0.0
C1506 C 0.85001 0.79908 0.32539 0.0
C1507 C 0.81043 0.82754 0.34162 0.0
C1508 C 0.78407 0.8292 0.35523 0.0
C1509 C 0.82639 0.80268 0.34297 0.0
C1510 C 0.77624 0.80773 0.37418 0.0
C1511 C 0.79265 0.78338 0.37664 0.0
H1512 H 0.19204 0.83161 0.32008 0.0
H1513 H 0.21698 0.79383 0.39934 0.0
H1514 H 0.25784 0.82351 0.40062 0.0
H1515 H 0.29248 0.8492 0.37302 0.0
H1516 H 0.27039 0.8844 0.2919 0.0
H1517 H 0.22261 0.8669 0.29763 0.0
C1518 C 0.20607 0.83043 0.33797 0.0
C1519 C 0.20177 0.80991 0.35907 0.0
C1520 C 0.23051 0.84662 0.33793 0.0
C1521 C 0.21963 0.80924 0.38261 0.0
C1522 C 0.24336 0.82603 0.38325 0.0
C1523 C 0.27696 0.85425 0.35713 0.0
C1524 C 0.28521 0.86727 0.33166 0.0
C1525 C 0.24995 0.84326 0.36009 0.0
C1526 C 0.26469 0.8737 0.31139 0.0
C1527 C 0.23742 0.86358 0.31459 0.0
H1528 H 0.19267 0.76984 0.73333 0.0
H1529 H 0.25416 0.72514 0.68321 0.0
H1530 H 0.28083 0.76826 0.67636 0.0
H1531 H 0.29247 0.81456 0.69533 0.0
H1532 H 0.23239 0.85821 0.74821 0.0
H1533 H 0.19916 0.81992 0.74298 0.0
C1534 C 0.21132 0.7699 0.71997 0.0
C1535 C 0.22176 0.74439 0.7092 0.0
C1536 C 0.22714 0.79447 0.71722 0.0
C1537 C 0.24576 0.74456 0.69173 0.0
C1538 C 0.26122 0.76915 0.68815 0.0
C1539 C 0.27165 0.81625 0.70469 0.0
C1540 C 0.2651 0.83884 0.72267 0.0
C1541 C 0.25304 0.79371 0.70236 0.0
C1542 C 0.23805 0.84074 0.7347 0.0
C1543 C 0.21912 0.8188 0.73182 0.0
H1544 H 0.32353 0.18559 0.71356 0.0
H1545 H 0.2744 0.14642 0.7796 0.0
H1546 H 0.23167 0.16778 0.76081 0.0
H1547 H 0.21103 0.20663 0.73326 0.0
H1548 H 0.2602 0.24717 0.66824 0.0
H1549 H 0.29997 0.21592 0.67836 0.0
C1550 C 0.30329 0.1807 0.72299 0.0
C1551 C 0.30209 0.16492 0.74822 0.0
C1552 C 0.27889 0.19386 0.71258 0.0
C1553 C 0.27577 0.15876 0.76032 0.0
C1554 C 0.25139 0.17121 0.74974 0.0
C1555 C 0.2301 0.20775 0.72059 0.0
C1556 C 0.23292 0.22922 0.70029 0.0
C1557 C 0.25303 0.19021 0.72705 0.0
C1558 C 0.25762 0.23069 0.68393 0.0
C1559 C 0.28045 0.21303 0.68994 0.0
H1560 H 0.7608 0.24976 0.70817 0.0
H1561 H 0.79931 0.20668 0.77847 0.0
H1562 H 0.83947 0.23812 0.77549 0.0
H1563 H 0.85753 0.28398 0.76002 0.0
H1564 H 0.81646 0.32854 0.69207 0.0
H1565 H 0.78436 0.28975 0.68608 0.0
C1566 C 0.77849 0.24646 0.72209 0.0
C1567 C 0.77679 0.22641 0.74397 0.0
C1568 C 0.80101 0.26517 0.72084 0.0
C1569 C 0.7999 0.22243 0.76185 0.0
C1570 C 0.82281 0.24045 0.76021 0.0
C1571 C 0.84203 0.2848 0.7434 0.0
C1572 C 0.83902 0.30938 0.72701 0.0
C1573 C 0.82269 0.26295 0.74094 0.0
C1574 C 0.8193 0.30995 0.70508 0.0
C1575 C 0.80061 0.28787 0.70186 0.0
H1576 H 0.73484 0.86293 0.69357 0.0
H1577 H 0.77518 0.89869 0.7658 0.0
H1578 H 0.82038 0.87951 0.75008 0.0
H1579 H 0.84469 0.8427 0.72325 0.0
H1580 H 0.80315 0.80314 0.65382 0.0
H1581 H 0.76258 0.83431 0.66012 0.0
C1582 C 0.7538 0.86755 0.7051 0.0
C1583 C 0.75182 0.88176 0.73098 0.0
C1584 C 0.7794 0.85528 0.69664 0.0
C1585 C 0.77636 0.88757 0.74593 0.0
C1586 C 0.8021 0.8764 0.73707 0.0
C1587 C 0.82712 0.84167 0.7089 0.0
C1588 C 0.82648 0.82032 0.68863 0.0
C1589 C 0.80341 0.85867 0.71358 0.0
C1590 C 0.80397 0.81934 0.66975 0.0
C1591 C 0.78062 0.83693 0.67358 0.0
H1592 H 0.35864 0.21156 0.21966 0.0
H1593 H 0.41275 0.26473 0.26818 0.0
H1594 H 0.40294 0.23729 0.31033 0.0
H1595 H 0.36918 0.20794 0.33536 0.0
H1596 H 0.3106 0.15844 0.28853 0.0
H1597 H 0.33169 0.17472 0.24407 0.0
C1598 C 0.36878 0.21673 0.23935 0.0
C1599 C 0.38569 0.24078 0.24075 0.0
C1600 C 0.36159 0.20197 0.26412 0.0
C1601 C 0.39949 0.24655 0.2662 0.0
C1602 C 0.39356 0.23104 0.2906 0.0
C1603 C 0.36179 0.19969 0.31551 0.0
C1604 C 0.33797 0.1825 0.31519 0.0
C1605 C 0.37316 0.2101 0.29015 0.0
C1606 C 0.32862 0.17211 0.28924 0.0
C1607 C 0.34058 0.18153 0.26384 0.0
H1608 H 0.84626 0.31338 0.20671 0.0
H1609 H 0.81721 0.38748 0.25005 0.0
H1610 H 0.84907 0.37736 0.28911 0.0
H1611 H 0.87535 0.34106 0.31527 0.0
H1612 H 0.90362 0.26637 0.27209 0.0
H1613 H 0.88253 0.28336 0.22835 0.0
C1614 C 0.84788 0.32787 0.2242 0.0
C1615 C 0.82934 0.35087 0.22586 0.0
C1616 C 0.86566 0.32148 0.24683 0.0
C1617 C 0.83141 0.36965 0.24845 0.0
C1618 C 0.84937 0.36367 0.27091 0.0
C1619 C 0.878 0.32907 0.29601 0.0
C1620 C 0.89022 0.30208 0.29709 0.0
C1621 C 0.86524 0.3387 0.27107 0.0
C1622 C 0.89365 0.2869 0.27189 0.0
C1623 C 0.88148 0.29654 0.24691 0.0
H1624 H 0.73977 0.80854 0.18509 0.0
H1625 H 0.66454 0.77095 0.21986 0.0
H1626 H 0.66172 0.80686 0.25548 0.0
H1627 H 0.68744 0.8395 0.28464 0.0
H1628 H 0.7671 0.87136 0.25564 0.0
H1629 H 0.76176 0.84702 0.21063 0.0
C1630 C 0.72257 0.80831 0.20027 0.0
C1631 C 0.70313 0.78616 0.20014 0.0
C1632 C 0.72231 0.8277 0.22246 0.0
C1633 C 0.68014 0.78729 0.21913 0.0
C1634 C 0.67866 0.80773 0.24003 0.0
C1635 C 0.70307 0.84207 0.268 0.0
C1636 C 0.72773 0.85691 0.27342 0.0
C1637 C 0.70067 0.82667 0.24307 0.0
C1638 C 0.74802 0.85984 0.25188 0.0
C1639 C 0.74504 0.84578 0.22627 0.0
H1640 H 0.24621 0.68476 0.23449 0.0
H1641 H 0.22099 0.75704 0.18512 0.0
H1642 H 0.1847 0.76834 0.22017 0.0
H1643 H 0.1683 0.76364 0.26945 0.0
H1644 H 0.19592 0.6927 0.31944 0.0
H1645 H 0.22205 0.67423 0.27908 0.0
C1646 C 0.23202 0.70229 0.2307 0.0
C1647 C 0.23678 0.72045 0.20759 0.0
C1648 C 0.21178 0.70911 0.25132 0.0
C1649 C 0.21814 0.74309 0.2031 0.0
C1650 C 0.19747 0.74963 0.22319 0.0
C1651 C 0.17938 0.74371 0.27119 0.0
C1652 C 0.18069 0.72992 0.29754 0.0
C1653 C 0.19534 0.73378 0.24819 0.0
C1654 C 0.19462 0.70383 0.29945 0.0
C1655 C 0.20988 0.69339 0.27643 0.0
H1656 H 0.36111 0.84411 0.79833 0.0
H1657 H 0.28109 0.88149 0.81998 0.0
H1658 H 0.2824 0.85881 0.86648 0.0
H1659 H 0.30025 0.81925 0.89467 0.0
H1660 H 0.37701 0.77744 0.86902 0.0
H1661 H 0.38399 0.81197 0.83164 0.0
C1662 C 0.34456 0.84827 0.81369 0.0
C1663 C 0.32079 0.86397 0.80567 0.0
C1664 C 0.3448 0.83402 0.83972 0.0
C1665 C 0.2994 0.86912 0.82567 0.0
C1666 C 0.30009 0.85604 0.85216 0.0
C1667 C 0.31893 0.81824 0.88139 0.0
C1668 C 0.33749 0.79523 0.88405 0.0
C1669 C 0.32175 0.83695 0.85855 0.0
C1670 C 0.36212 0.79467 0.86738 0.0
C1671 C 0.36594 0.81423 0.84561 0.0
H1672 H 0.22724 0.34529 0.7281 0.0
H1673 H 0.1842 0.28527 0.78102 0.0
H1674 H 0.20726 0.30372 0.82276 0.0
H1675 H 0.24749 0.32894 0.8417 0.0
H1676 H 0.29317 0.38657 0.78828 0.0
H1677 H 0.26094 0.37779 0.74948 0.0
C1678 C 0.22199 0.33721 0.74897 0.0
C1679 C 0.20423 0.31392 0.75161 0.0
C1680 C 0.23633 0.34713 0.77269 0.0
C1681 C 0.1978 0.30326 0.77863 0.0
C1682 C 0.21123 0.31359 0.80242 0.0
C1683 C 0.24978 0.34021 0.82181 0.0
C1684 C 0.27289 0.35796 0.81762 0.0
C1685 C 0.23178 0.3343 0.79939 0.0
C1686 C 0.27556 0.37276 0.79196 0.0
C1687 C 0.25729 0.3675 0.76968 0.0
H1688 H 0.73612 0.20011 0.83792 0.0
H1689 H 0.66393 0.24015 0.80022 0.0
H1690 H 0.65747 0.26923 0.84184 0.0
H1691 H 0.68126 0.29278 0.88005 0.0
H1692 H 0.75635 0.25632 0.91569 0.0
H1693 H 0.75276 0.21637 0.88391 0.0
C1694 C 0.71844 0.21458 0.83931 0.0
C1695 C 0.7012 0.21875 0.81567 0.0
C1696 C 0.71592 0.2325 0.86255 0.0
C1697 C 0.67778 0.23679 0.81795 0.0
C1698 C 0.67429 0.25375 0.84164 0.0
C1699 C 0.69615 0.27554 0.88194 0.0
C1700 C 0.71964 0.278 0.89951 0.0
C1701 C 0.69459 0.25331 0.86287 0.0
C1702 C 0.73855 0.25527 0.9017 0.0
C1703 C 0.73656 0.23248 0.88346 0.0
H1704 H 0.8348 0.70593 0.73064 0.0
H1705 H 0.87567 0.77331 0.77378 0.0
H1706 H 0.85751 0.75609 0.81915 0.0
H1707 H 0.82132 0.72919 0.844 0.0
H1708 H 0.77524 0.66622 0.79941 0.0
H1709 H 0.80498 0.67317 0.75769 0.0
C1710 C 0.84056 0.7161 0.75016 0.0
C1711 C 0.85623 0.74094 0.74909 0.0
C1712 C 0.8288 0.70694 0.7759 0.0
C1713 C 0.86347 0.75423 0.77431 0.0
C1714 C 0.85296 0.74448 0.80015 0.0
C1715 C 0.81837 0.71644 0.82538 0.0
C1716 C 0.79565 0.69784 0.82449 0.0
C1717 C 0.83423 0.72194 0.80091 0.0
C1718 C 0.79244 0.68086 0.8006 0.0
C1719 C 0.8092 0.68513 0.77655 0.0
H1720 H 0.33558 0.34856 0.20223 0.0
H1721 H 0.30306 0.26728 0.18059 0.0
H1722 H 0.25667 0.28152 0.19814 0.0
H1723 H 0.22965 0.31259 0.23013 0.0
H1724 H 0.26595 0.39141 0.25511 0.0
H1725 H 0.3057 0.38314 0.22427 0.0
C1726 C 0.31826 0.3342 0.19997 0.0
C1727 C 0.32317 0.30646 0.19103 0.0
C1728 C 0.29212 0.34207 0.21113 0.0
C1729 C 0.30009 0.28849 0.18825 0.0
C1730 C 0.27357 0.29657 0.19842 0.0
C1731 C 0.24604 0.32817 0.22846 0.0
C1732 C 0.24494 0.35217 0.2457 0.0
C1733 C 0.26998 0.32258 0.2118 0.0
C1734 C 0.26588 0.37266 0.24235 0.0
C1735 C 0.28902 0.36782 0.22486 0.0
H1736 H 0.19724 0.7224 0.80992 0.0
H1737 H 0.24661 0.64923 0.78784 0.0
H1738 H 0.27198 0.65239 0.83201 0.0
H1739 H 0.28768 0.68245 0.86992 0.0
H1740 H 0.2401 0.7569 0.89174 0.0
H1741 H 0.20645 0.74666 0.85468 0.0
C1742 C 0.21306 0.70675 0.81519 0.0
C1743 C 0.22046 0.68603 0.79536 0.0
C1744 C 0.22832 0.70927 0.84024 0.0
C1745 C 0.24052 0.66546 0.80265 0.0
C1746 C 0.2553 0.66743 0.82782 0.0
C1747 C 0.26933 0.69586 0.86758 0.0
C1748 C 0.2669 0.72088 0.88311 0.0
C1749 C 0.25049 0.69021 0.84587 0.0
C1750 C 0.24288 0.7379 0.87955 0.0
C1751 C 0.22368 0.7321 0.8583 0.0
H1752 H 0.38986 0.21835 0.8177 0.0
H1753 H 0.31297 0.18356 0.85105 0.0
H1754 H 0.30314 0.22714 0.87629 0.0
H1755 H 0.31052 0.27817 0.87792 0.0
H1756 H 0.38641 0.31302 0.84258 0.0
H1757 H 0.40308 0.26612 0.82994 0.0
C1758 C 0.37161 0.21972 0.83152 0.0
C1759 C 0.35167 0.19814 0.83175 0.0
C1760 C 0.36569 0.24511 0.84521 0.0
C1761 C 0.32823 0.20026 0.84995 0.0
C1762 C 0.32253 0.22522 0.86425 0.0
C1763 C 0.33113 0.27526 0.86836 0.0
C1764 C 0.34696 0.29885 0.86055 0.0
C1765 C 0.34012 0.24836 0.86033 0.0
C1766 C 0.37382 0.29508 0.84861 0.0
C1767 C 0.38322 0.2683 0.84112 0.0
H1768 H 0.76764 0.39025 0.87032 0.0
H1769 H 0.81446 0.32133 0.90706 0.0
H1770 H 0.8516 0.3277 0.87174 0.0
H1771 H 0.86465 0.34559 0.82446 0.0
H1772 H 0.81697 0.41375 0.7877 0.0
H1773 H 0.78715 0.41592 0.8298 0.0
C1774 C 0.78646 0.37735 0.87152 0.0
C1775 C 0.78776 0.3547 0.89082 0.0
C1776 C 0.80754 0.38086 0.85089 0.0
C1777 C 0.8125 0.33836 0.8919 0.0
C1778 C 0.83375 0.34197 0.87167 0.0
C1779 C 0.84832 0.36153 0.82616 0.0
C1780 C 0.84259 0.37901 0.80279 0.0
C1781 C 0.8306 0.36199 0.85005 0.0
C1782 C 0.82174 0.39993 0.80533 0.0
C1783 C 0.80441 0.40094 0.82929 0.0
H1784 H 0.68659 0.75039 0.84421 0.0
H1785 H 0.76149 0.78167 0.88273 0.0
H1786 H 0.7506 0.82904 0.86567 0.0
H1787 H 0.72631 0.858 0.8303 0.0
H1788 H 0.65402 0.82498 0.78814 0.0
H1789 H 0.65661 0.78242 0.81682 0.0
C1790 C 0.6998 0.76785 0.84993 0.0
C1791 C 0.72499 0.76265 0.86426 0.0
C1792 C 0.6941 0.79468 0.83887 0.0
C1793 C 0.7421 0.7853 0.87147 0.0
C1794 C 0.73601 0.81229 0.86149 0.0
C1795 C 0.71071 0.84175 0.82795 0.0
C1796 C 0.6905 0.84433 0.80665 0.0
C1797 C 0.7131 0.81675 0.84361 0.0
C1798 C 0.66994 0.82351 0.80427 0.0
C1799 C 0.67157 0.79896 0.82048 0.0
H1800 H 0.75831 0.67271 0.20306 0.0
H1801 H 0.79644 0.74717 0.16776 0.0
H1802 H 0.83868 0.73796 0.19527 0.0
H1803 H 0.85845 0.7158 0.23796 0.0
H1804 H 0.81694 0.6439 0.27494 0.0
H1805 H 0.78356 0.64395 0.2368 0.0
C1806 C 0.77622 0.68632 0.20016 0.0
C1807 C 0.77375 0.7112 0.18412 0.0
C1808 C 0.79996 0.68141 0.21666 0.0
C1809 C 0.79745 0.72835 0.18072 0.0
C1810 C 0.82159 0.72313 0.1965 0.0
C1811 C 0.84249 0.69974 0.23726 0.0
C1812 C 0.83964 0.68062 0.25993 0.0
C1813 C 0.82214 0.70088 0.21607 0.0
C1814 C 0.81963 0.65917 0.2581 0.0
C1815 C 0.80015 0.65937 0.23639 0.0
H1816 H 0.35502 0.7451 0.21529 0.0
H1817 H 0.29938 0.79819 0.1669 0.0
H1818 H 0.31447 0.83914 0.19339 0.0
H1819 H 0.33334 0.85635 0.23806 0.0
H1820 H 0.38474 0.80133 0.28914 0.0
H1821 H 0.38257 0.76514 0.25329 0.0
C1822 C 0.3472 0.76582 0.2096 0.0
C1823 C 0.32565 0.76861 0.18969 0.0
C1824 C 0.35487 0.78891 0.22589 0.0
C1825 C 0.31569 0.79557 0.18251 0.0
C1826 C 0.32412 0.81891 0.19783 0.0
C1827 C 0.34467 0.83669 0.24093 0.0
C1828 C 0.35839 0.83123 0.26659 0.0
C1829 C 0.34208 0.81537 0.22089 0.0
C1830 C 0.37376 0.80606 0.26974 0.0
C1831 C 0.37227 0.78516 0.24933 0.0
H1832 H 0.76038 0.27407 0.19766 0.0
H1833 H 0.70795 0.34138 0.22892 0.0
H1834 H 0.68156 0.30819 0.25827 0.0
H1835 H 0.68152 0.26248 0.28296 0.0
H1836 H 0.73495 0.19552 0.25239 0.0
H1837 H 0.75237 0.22581 0.21439 0.0
C1838 C 0.74253 0.2812 0.21018 0.0
C1839 C 0.73635 0.31002 0.21163 0.0
C1840 C 0.72794 0.26211 0.22744 0.0
C1841 C 0.71307 0.31921 0.22761 0.0
C1842 C 0.69817 0.30028 0.2446 0.0
C1843 C 0.69603 0.25417 0.26724 0.0
C1844 C 0.7075 0.22709 0.27081 0.0
C1845 C 0.70652 0.27198 0.24589 0.0
C1846 C 0.72626 0.21652 0.25028 0.0
C1847 C 0.73636 0.23388 0.22868 0.0
H1848 H 0.99545 0.38553 0.35328 0.0
H1849 H 0.04502 0.31978 0.39207 0.0
H1850 H 0.08764 0.33957 0.37134 0.0
H1851 H 0.1115 0.37876 0.34704 0.0
H1852 H 0.0626 0.44382 0.30683 0.0
H1853 H 1.01913 0.42095 0.32268 0.0
C1854 C 1.01552 0.37524 0.35678 0.0
C1855 C 1.01693 0.35125 0.37452 0.0
C1856 C 0.04012 0.38665 0.34448 0.0
C1857 C 0.04316 0.33814 0.37855 0.0
C1858 C 0.06764 0.34955 0.36678 0.0
C1859 C 0.09127 0.38736 0.34092 0.0
C1860 C 0.09021 0.41273 0.32546 0.0
C1861 C 0.06647 0.37418 0.35032 0.0
C1862 C 0.06393 0.42399 0.31813 0.0
C1863 C 0.0391 0.41109 0.32757 0.0
H1864 H 0.7517 1.01925 0.41719 0.0
H1865 H 0.68744 0.9634 0.38913 0.0
H1866 H 0.6643 1.00182 0.36397 0.0
H1867 H 0.65904 0.05283 0.35447 0.0
H1868 H 0.72197 0.10922 0.38445 0.0
H1869 H 0.74902 0.06957 0.40347 0.0
C1870 C 0.73291 1.01536 0.40517 0.0
C1871 C 0.72139 0.98813 0.4052 0.0
C1872 C 0.71941 0.03795 0.39086 0.0
C1873 C 0.69692 0.98383 0.38952 0.0
C1874 C 0.68357 1.00597 0.3751 0.0
C1875 C 0.67927 0.05628 0.36409 0.0
C1876 C 0.68879 0.084 0.36733 0.0
C1877 C 0.69423 0.0333 0.37607 0.0
C1878 C 0.71449 0.08812 0.38101 0.0
C1879 C 0.72979 0.06541 0.39229 0.0
H1880 H 0.99424 0.65452 0.30092 0.0
H1881 H 0.92599 0.69201 0.34777 0.0
H1882 H 0.95842 0.72462 0.3698 0.0
H1883 H 1.00774 0.73472 0.38356 0.0
H1884 H 0.07563 0.69607 0.33685 0.0
H1885 H 0.04219 0.67243 0.30665 0.0
C1886 C 0.98623 0.67096 0.31464 0.0
C1887 C 0.95752 0.6711 0.32215 0.0
C1888 C 1.00529 0.68915 0.32788 0.0
C1889 C 0.94774 0.6919 0.34089 0.0
C1890 C 0.96649 0.71023 0.35398 0.0
C1891 C 1.01516 0.72229 0.36584 0.0
C1892 C 0.04429 0.71749 0.36231 0.0
C1893 C 0.99556 0.70806 0.34878 0.0
C1894 C 0.05344 0.70051 0.33978 0.0
C1895 C 0.03425 0.68667 0.32267 0.0
H1896 H 0.33104 0.97414 0.38216 0.0
H1897 H 0.39616 1.00704 0.32782 0.0
H1898 H 0.38113 0.05501 0.33919 0.0
H1899 H 0.35545 0.08696 0.37176 0.0
H1900 H 0.28997 0.05415 0.42568 0.0
H1901 H 0.29873 1.00693 0.40706 0.0
C1902 C 0.34122 0.99183 0.37192 0.0
C1903 C 0.36476 0.98692 0.35409 0.0
C1904 C 0.33263 1.01941 0.37891 0.0
C1905 C 0.37782 1.01008 0.3412 0.0
C1906 C 0.36945 0.03758 0.34808 0.0
C1907 C 0.34236 0.06963 0.37861 0.0
C1908 C 0.32197 0.07412 0.40006 0.0
C1909 C 0.34774 0.04246 0.36791 0.0
C1910 C 0.3054 0.05142 0.40892 0.0
C1911 C 0.31071 1.02431 0.39851 0.0
H1912 H 0.98759 0.68262 0.70087 0.0
H1913 H 0.02899 0.7419 0.64552 0.0
H1914 H 0.0747 0.72496 0.66182 0.0
H1915 H 0.10284 0.68918 0.68717 0.0
H1916 H 0.06198 0.63006 0.74273 0.0
H1917 H 1.01628 0.6515 0.73175 0.0
C1918 C 1.00659 0.69225 0.69277 0.0
C1919 C 1.00467 0.71349 0.67175 0.0
C1920 C 0.03297 0.68245 0.70244 0.0
C1921 C 0.02964 0.72573 0.66173 0.0
C1922 C 0.05587 0.7159 0.67097 0.0
C1923 C 0.08404 0.68167 0.69771 0.0
C1924 C 0.08599 0.65826 0.71615 0.0
C1925 C 0.05781 0.69379 0.69076 0.0
C1926 C 0.06129 0.64847 0.72916 0.0
C1927 C 0.03506 0.66046 0.72242 0.0
H1928 H 0.32403 0.9848 0.63934 0.0
H1929 H 0.30396 0.94265 0.71751 0.0
H1930 H 0.33025 0.97828 0.74375 0.0
H1931 H 0.36394 1.01923 0.74335 0.0
H1932 H 0.38208 0.05954 0.66307 0.0
H1933 H 0.35196 1.02718 0.63929 0.0
C1934 C 0.32462 0.98387 0.66226 0.0
C1935 C 0.31187 0.96112 0.67636 0.0
C1936 C 0.34007 1.00407 0.67695 0.0
C1937 C 0.31314 0.96013 0.70606 0.0
C1938 C 0.32859 0.98037 0.72102 0.0
C1939 C 0.36109 1.02108 0.72072 0.0
C1940 C 0.3759 0.04207 0.7053 0.0
C1941 C 0.343 1.00208 0.70659 0.0
C1942 C 0.37147 0.0439 0.6759 0.0
C1943 C 0.35401 1.02529 0.66202 0.0
H1944 H 1.00358 0.42097 0.73356 0.0
H1945 H 0.94166 0.35755 0.71988 0.0
H1946 H 0.97788 0.3266 0.69916 0.0
H1947 H 1.02626 0.32062 0.67861 0.0
H1948 H 0.08701 0.38578 0.6922 0.0
H1949 H 0.0525 0.41258 0.71911 0.0
C1950 C 0.99825 0.39983 0.72723 0.0
C1951 C 0.97 0.39135 0.72908 0.0
C1952 C 1.01903 0.38264 0.71447 0.0
C1953 C 0.96331 0.36429 0.71972 0.0
C1954 C 0.98402 0.34681 0.7073 0.0
C1955 C 0.03214 0.34041 0.6879 0.0
C1956 C 0.05946 0.35108 0.68282 0.0
C1957 C 1.01184 0.35616 0.70357 0.0
C1958 C 0.06634 0.3769 0.69522 0.0
C1959 C 0.04651 0.39239 0.71077 0.0
H1960 H 0.67511 0.03994 0.72614 0.0
H1961 H 0.69475 0.99246 0.65103 0.0
H1962 H 0.72463 0.03011 0.63365 0.0
H1963 H 0.74329 0.07806 0.63805 0.0
H1964 H 0.72323 0.126 0.71246 0.0
H1965 H 0.69579 0.087 0.73167 0.0
C1966 C 0.68622 0.03765 0.70617 0.0
C1967 C 0.68246 1.01324 0.69003 0.0
C1968 C 0.7033 0.05971 0.69594 0.0
C1969 C 0.69698 1.01092 0.66401 0.0
C1970 C 0.71419 0.03252 0.65394 0.0
C1971 C 0.73328 0.07975 0.65865 0.0
C1972 C 0.73503 0.10506 0.67366 0.0
C1973 C 0.71725 0.05721 0.66949 0.0
C1974 C 0.72171 0.10696 0.70024 0.0
C1975 C 0.70611 0.08459 0.71131 0.0
H1976 H 0.38308 0.34781 0.98481 0.0
H1977 H 0.3289 0.41358 1.01669 0.0
H1978 H 0.34071 0.40022 0.06518 0.0
H1979 H 0.37167 0.37417 0.0982 0.0
H1980 H 0.42355 0.30649 0.0669 0.0
H1981 H 0.40731 0.31596 1.01874 0.0
C1982 C 0.37323 0.35872 1.00239 0.0
C1983 C 0.35513 0.38182 0.99695 0.0
C1984 C 0.38 0.35073 1.0304 0.0
C1985 C 0.3426 0.39562 1.02008 0.0
C1986 C 0.34961 0.38815 0.04791 0.0
C1987 C 0.37874 0.36094 0.08094 0.0
C1988 C 0.39888 0.33964 0.0862 0.0
C1989 C 0.36899 0.36635 0.05329 0.0
C1990 C 0.4079 0.32277 0.06357 0.0
C1991 C 0.39877 0.3284 0.03593 0.0
H1992 H 0.42992 0.70224 0.98139 0.0
H1993 H 0.38647 0.78179 0.98576 0.0
H1994 H 0.36078 0.76542 1.02831 0.0
H1995 H 0.3512 0.72765 0.06513 0.0
H1996 H 0.39723 0.64944 0.05909 0.0
H1997 H 0.42073 0.66583 1.01628 0.0
C1998 C 0.41469 0.7161 0.99144 0.0
C1999 C 0.40993 0.74316 0.97998 0.0
C2000 C 0.40023 0.70656 1.01572 0.0
C2001 C 0.3905 0.76084 0.99387 0.0
C2002 C 0.37574 0.75137 1.01821 0.0
C2003 C 0.36617 0.7142 0.05422 0.0
C2004 C 0.37233 0.68716 0.06543 0.0
C2005 C 0.38039 0.72415 1.02943 0.0
C2006 C 0.39209 0.67024 0.05112 0.0
C2007 C 0.40564 0.67963 1.02659 0.0
H2008 H 0.68963 0.31078 0.97188 0.0
H2009 H 0.60701 0.33917 0.99715 0.0
H2010 H 0.62633 0.36138 0.03875 0.0
H2011 H 0.66651 0.37638 0.06627 0.0
H2012 H 0.75032 0.35327 0.03972 0.0
H2013 H 0.73102 0.3263 1.0004 0.0
C2014 C 0.67589 0.32173 0.9865 0.0
C2015 C 0.64669 0.32328 0.98104 0.0
C2016 C 0.68748 0.33593 1.01013 0.0
C2017 C 0.62942 0.3375 1.00063 0.0
C2018 C 0.6405 0.35043 1.02446 0.0
C2019 C 0.68075 0.36528 0.05214 0.0
C2020 C 0.71003 0.36699 0.05639 0.0
C2021 C 0.66952 0.35037 1.02916 0.0
C2022 C 0.72777 0.35246 0.03733 0.0
C2023 C 0.71667 0.33696 1.01471 0.0
H2024 H 0.67818 0.71916 0.98639 0.0
H2025 H 0.72173 0.64905 1.02469 0.0
H2026 H 0.7089 0.66641 0.07168 0.0
H2027 H 0.67919 0.69755 0.10138 0.0
H2028 H 0.63578 0.76756 0.06324 0.0
H2029 H 0.65508 0.7547 1.01688 0.0
C2030 C 0.68549 0.70802 1.00502 0.0
C2031 C 0.70079 0.68261 1.00184 0.0
C2032 C 0.67789 0.71811 1.03208 0.0
C2033 C 0.71015 0.66866 1.02632 0.0
C2034 C 0.70257 0.67848 0.05328 0.0
C2035 C 0.6747 0.71048 0.08309 0.0
C2036 C 0.65618 0.7336 0.08592 0.0
C2037 C 0.68561 0.70263 0.05638 0.0
C2038 C 0.65042 0.75006 0.06187 0.0
C2039 C 0.66115 0.74242 0.03523 0.0
loop_
_geom_bond_atom_site_label_1
_geom_bond_atom_site_label_2
_geom_bond_distance
_geom_bond_site_symmetry_2
_ccdc_geom_bond_type
O0 Tb1 2.292 . S
O0 C3 1.255 . S
Tb1 O0 2.292 . S
Tb1 O17 2.326 . S
Tb1 O19 2.500 . S
Tb1 O20 2.473 . S
Tb1 O23 2.324 . S
Eu2 O6 2.292 . S
Eu2 C7 2.852 . S
Eu2 O18 2.324 . S
Eu2 O22 2.326 . S
Eu2 O24 2.500 . S
Eu2 O25 2.473 . S
C3 O0 1.255 . S
C3 O4 1.247 . S
O4 C3 1.247 . S
C5 O17 1.242 . S
C5 O18 1.258 . S
O6 Eu2 2.292 . S
O6 C8 1.255 . S
C7 Eu2 2.852 . S
C7 C11 1.503 . S
C7 O24 1.273 . S
C7 O25 1.257 . S
C8 O6 1.255 . S
C8 O9 1.247 . S
O9 C8 1.247 . S
C10 O22 1.242 . S
C10 O23 1.258 . S
C11 C7 1.503 . S
C11 C12 1.379 . S
C11 C16 1.392 . S
C12 C11 1.379 . S
C12 C13 1.404 . S
C12 H26 0.929 . S
C13 C12 1.404 . S
C13 C14 1.389 . S
C14 C13 1.389 . S
C14 C15 1.399 . S
C14 H27 0.931 . S
C15 C14 1.399 . S
C15 C16 1.390 . S
C16 C11 1.392 . S
C16 C15 1.390 . S
C16 H28 0.929 . S
O17 Tb1 2.326 . S
O17 C5 1.242 . S
O18 Eu2 2.324 . S
O18 C5 1.258 . S
O19 Tb1 2.500 . S
O19 C21 1.273 . S
O20 Tb1 2.473 . S
O20 C21 1.257 . S
C21 O19 1.273 . S
C21 O20 1.257 . S
O22 Eu2 2.326 . S
O22 C10 1.242 . S
O23 Tb1 2.324 . S
O23 C10 1.258 . S
O24 Eu2 2.500 . S
O24 C7 1.273 . S
O25 Eu2 2.473 . S
O25 C7 1.257 . S
H26 C12 0.929 . S
H27 C14 0.931 . S
H28 C16 0.929 . S
O29 Tb30 2.292 . S
O29 C32 1.255 . S
Tb30 O29 2.292 . S
Tb30 O46 2.326 . S
Tb30 O48 2.500 . S
Tb30 O49 2.473 . S
Tb30 O52 2.324 . S
Eu31 O35 2.292 . S
Eu31 C36 2.852 . S
Eu31 O47 2.324 . S
Eu31 O51 2.326 . S
Eu31 O53 2.500 . S
Eu31 O54 2.473 . S
C32 O29 1.255 . S
C32 O33 1.247 . S
O33 C32 1.247 . S
C34 O46 1.242 . S
C34 O47 1.258 . S
O35 Eu31 2.292 . S
O35 C37 1.255 . S
C36 Eu31 2.852 . S
C36 C40 1.503 . S
C36 O53 1.273 . S
C36 O54 1.257 . S
C37 O35 1.255 . S
C37 O38 1.247 . S
O38 C37 1.247 . S
C39 O51 1.242 . S
C39 O52 1.258 . S
C40 C36 1.503 . S
C40 C41 1.379 . S
C40 C45 1.392 . S
C41 C40 1.379 . S
C41 C42 1.404 . S
C41 H55 0.929 . S
C42 C41 1.404 . S
C42 C43 1.389 . S
C43 C42 1.389 . S
C43 C44 1.399 . S
C43 H56 0.931 . S
C44 C43 1.399 . S
C44 C45 1.390 . S
C45 C40 1.392 . S
C45 C44 1.390 . S
C45 H57 0.929 . S
O46 Tb30 2.326 . S
O46 C34 1.242 . S
O47 Eu31 2.324 . S
O47 C34 1.258 . S
O48 Tb30 2.500 . S
O48 C50 1.273 . S
O49 Tb30 2.473 . S
O49 C50 1.257 . S
C50 O48 1.273 . S
C50 O49 1.257 . S
O51 Eu31 2.326 . S
O51 C39 1.242 . S
O52 Tb30 2.324 . S
O52 C39 1.258 . S
O53 Eu31 2.500 . S
O53 C36 1.273 . S
O54 Eu31 2.473 . S
O54 C36 1.257 . S
H55 C41 0.929 . S
H56 C43 0.931 . S
H57 C45 0.929 . S
O58 Tb59 2.292 . S
O58 C61 1.255 . S
Tb59 O58 2.292 . S
Tb59 O75 2.326 . S
Tb59 O77 2.500 . S
Tb59 O78 2.473 . S
Tb59 O81 2.324 . S
Eu60 O64 2.292 . S
Eu60 C65 2.852 . S
Eu60 O76 2.324 . S
Eu60 O80 2.326 . S
Eu60 O82 2.500 . S
Eu60 O83 2.473 . S
C61 O58 1.255 . S
C61 O62 1.247 . S
O62 C61 1.247 . S
C63 O75 1.242 . S
C63 O76 1.258 . S
O64 Eu60 2.292 . S
O64 C66 1.255 . S
C65 Eu60 2.852 . S
C65 C69 1.503 . S
C65 O82 1.273 . S
C65 O83 1.257 . S
C66 O64 1.255 . S
C66 O67 1.247 . S
O67 C66 1.247 . S
C68 O80 1.242 . S
C68 O81 1.258 . S
C69 C65 1.503 . S
C69 C70 1.379 . S
C69 C74 1.392 . S
C70 C69 1.379 . S
C70 C71 1.404 . S
C70 H84 0.929 . S
C71 C70 1.404 . S
C71 C72 1.389 . S
C72 C71 1.389 . S
C72 C73 1.399 . S
C72 H85 0.931 . S
C73 C72 1.399 . S
C73 C74 1.390 . S
C74 C69 1.392 . S
C74 C73 1.390 . S
C74 H86 0.929 . S
O75 Tb59 2.326 . S
O75 C63 1.242 . S
O76 Eu60 2.324 . S
O76 C63 1.258 . S
O77 Tb59 2.500 . S
O77 C79 1.273 . S
O78 Tb59 2.473 . S
O78 C79 1.257 . S
C79 O77 1.273 . S
C79 O78 1.257 . S
O80 Eu60 2.326 . S
O80 C68 1.242 . S
O81 Tb59 2.324 . S
O81 C68 1.258 . S
O82 Eu60 2.500 . S
O82 C65 1.273 . S
O83 Eu60 2.473 . S
O83 C65 1.257 . S
H84 C70 0.929 . S
H85 C72 0.931 . S
H86 C74 0.929 . S
O87 Tb88 2.292 . S
O87 C90 1.255 . S
Tb88 O87 2.292 . S
Tb88 O104 2.326 . S
Tb88 O106 2.500 . S
Tb88 O107 2.473 . S
Tb88 O110 2.324 . S
Eu89 O93 2.292 . S
Eu89 C94 2.852 . S
Eu89 O105 2.324 . S
Eu89 O109 2.326 . S
Eu89 O111 2.500 . S
Eu89 O112 2.473 . S
C90 O87 1.255 . S
C90 O91 1.247 . S
O91 C90 1.247 . S
C92 O104 1.242 . S
C92 O105 1.258 . S
O93 Eu89 2.292 . S
O93 C95 1.255 . S
C94 Eu89 2.852 . S
C94 C98 1.503 . S
C94 O111 1.273 . S
C94 O112 1.257 . S
C95 O93 1.255 . S
C95 O96 1.247 . S
O96 C95 1.247 . S
C97 O109 1.242 . S
C97 O110 1.258 . S
C98 C94 1.503 . S
C98 C99 1.379 . S
C98 C103 1.392 . S
C99 C98 1.379 . S
C99 C100 1.404 . S
C99 H113 0.929 . S
C100 C99 1.404 . S
C100 C101 1.389 . S
C101 C100 1.389 . S
C101 C102 1.399 . S
C101 H114 0.931 . S
C102 C101 1.399 . S
C102 C103 1.390 . S
C103 C98 1.392 . S
C103 C102 1.390 . S
C103 H115 0.929 . S
O104 Tb88 2.326 . S
O104 C92 1.242 . S
O105 Eu89 2.324 . S
O105 C92 1.258 . S
O106 Tb88 2.500 . S
O106 C108 1.273 . S
O107 Tb88 2.473 . S
O107 C108 1.257 . S
C108 O106 1.273 . S
C108 O107 1.257 . S
O109 Eu89 2.326 . S
O109 C97 1.242 . S
O110 Tb88 2.324 . S
O110 C97 1.258 . S
O111 Eu89 2.500 . S
O111 C94 1.273 . S
O112 Eu89 2.473 . S
O112 C94 1.257 . S
H113 C99 0.929 . S
H114 C101 0.931 . S
H115 C103 0.929 . S
O116 Tb117 2.292 . S
O116 C119 1.255 . S
Tb117 O116 2.292 . S
Tb117 O133 2.326 . S
Tb117 O135 2.500 . S
Tb117 O136 2.473 . S
Tb117 O139 2.324 . S
Eu118 O122 2.292 . S
Eu118 C123 2.852 . S
Eu118 O134 2.324 . S
Eu118 O138 2.326 . S
Eu118 O140 2.500 . S
Eu118 O141 2.473 . S
C119 O116 1.255 . S
C119 O120 1.247 . S
O120 C119 1.247 . S
C121 O133 1.242 . S
C121 O134 1.258 . S
O122 Eu118 2.292 . S
O122 C124 1.255 . S
C123 Eu118 2.852 . S
C123 C127 1.503 . S
C123 O140 1.273 . S
C123 O141 1.257 . S
C124 O122 1.255 . S
C124 O125 1.247 . S
O125 C124 1.247 . S
C126 O138 1.242 . S
C126 O139 1.258 . S
C127 C123 1.503 . S
C127 C128 1.379 . S
C127 C132 1.392 . S
C128 C127 1.379 . S
C128 C129 1.404 . S
C128 H142 0.929 . S
C129 C128 1.404 . S
C129 C130 1.389 . S
C130 C129 1.389 . S
C130 C131 1.399 . S
C130 H143 0.931 . S
C131 C130 1.399 . S
C131 C132 1.390 . S
C132 C127 1.392 . S
C132 C131 1.390 . S
C132 H144 0.929 . S
O133 Tb117 2.326 . S
O133 C121 1.242 . S
O134 Eu118 2.324 . S
O134 C121 1.258 . S
O135 Tb117 2.500 . S
O135 C137 1.273 . S
O136 Tb117 2.473 . S
O136 C137 1.257 . S
C137 O135 1.273 . S
C137 O136 1.257 . S
O138 Eu118 2.326 . S
O138 C126 1.242 . S
O139 Tb117 2.324 . S
O139 C126 1.258 . S
O140 Eu118 2.500 . S
O140 C123 1.273 . S
O141 Eu118 2.473 . S
O141 C123 1.257 . S
H142 C128 0.929 . S
H143 C130 0.931 . S
H144 C132 0.929 . S
O145 Tb146 2.292 . S
O145 C148 1.255 . S
Tb146 O145 2.292 . S
Tb146 O162 2.326 . S
Tb146 O164 2.500 . S
Tb146 O165 2.473 . S
Tb146 O168 2.324 . S
Eu147 O151 2.292 . S
Eu147 C152 2.852 . S
Eu147 O163 2.324 . S
Eu147 O167 2.326 . S
Eu147 O169 2.500 . S
Eu147 O170 2.473 . S
C148 O145 1.255 . S
C148 O149 1.247 . S
O149 C148 1.247 . S
C150 O162 1.242 . S
C150 O163 1.258 . S
O151 Eu147 2.292 . S
O151 C153 1.255 . S
C152 Eu147 2.852 . S
C152 C156 1.503 . S
C152 O169 1.273 . S
C152 O170 1.257 . S
C153 O151 1.255 . S
C153 O154 1.247 . S
O154 C153 1.247 . S
C155 O167 1.242 . S
C155 O168 1.258 . S
C156 C152 1.503 . S
C156 C157 1.379 . S
C156 C161 1.392 . S
C157 C156 1.379 . S
C157 C158 1.404 . S
C157 H171 0.929 . S
C158 C157 1.404 . S
C158 C159 1.389 . S
C159 C158 1.389 . S
C159 C160 1.399 . S
C159 H172 0.931 . S
C160 C159 1.399 . S
C160 C161 1.390 . S
C161 C156 1.392 . S
C161 C160 1.390 . S
C161 H173 0.929 . S
O162 Tb146 2.326 . S
O162 C150 1.242 . S
O163 Eu147 2.324 . S
O163 C150 1.258 . S
O164 Tb146 2.500 . S
O164 C166 1.273 . S
O165 Tb146 2.473 . S
O165 C166 1.257 . S
C166 O164 1.273 . S
C166 O165 1.257 . S
O167 Eu147 2.326 . S
O167 C155 1.242 . S
O168 Tb146 2.324 . S
O168 C155 1.258 . S
O169 Eu147 2.500 . S
O169 C152 1.273 . S
O170 Eu147 2.473 . S
O170 C152 1.257 . S
H171 C157 0.929 . S
H172 C159 0.931 . S
H173 C161 0.929 . S
O174 Tb175 2.292 . S
O174 C177 1.255 . S
Tb175 O174 2.292 . S
Tb175 O191 2.326 . S
Tb175 O193 2.500 . S
Tb175 O194 2.473 . S
Tb175 O197 2.324 . S
Eu176 O180 2.292 . S
Eu176 C181 2.852 . S
Eu176 O192 2.324 . S
Eu176 O196 2.326 . S
Eu176 O198 2.500 . S
Eu176 O199 2.473 . S
C177 O174 1.255 . S
C177 O178 1.247 . S
O178 C177 1.247 . S
C179 O191 1.242 . S
C179 O192 1.258 . S
O180 Eu176 2.292 . S
O180 C182 1.255 . S
C181 Eu176 2.852 . S
C181 C185 1.503 . S
C181 O198 1.273 . S
C181 O199 1.257 . S
C182 O180 1.255 . S
C182 O183 1.247 . S
O183 C182 1.247 . S
C184 O196 1.242 . S
C184 O197 1.258 . S
C185 C181 1.503 . S
C185 C186 1.379 . S
C185 C190 1.392 . S
C186 C185 1.379 . S
C186 C187 1.404 . S
C186 H200 0.929 . S
C187 C186 1.404 . S
C187 C188 1.389 . S
C188 C187 1.389 . S
C188 C189 1.399 . S
C188 H201 0.931 . S
C189 C188 1.399 . S
C189 C190 1.390 . S
C190 C185 1.392 . S
C190 C189 1.390 . S
C190 H202 0.929 . S
O191 Tb175 2.326 . S
O191 C179 1.242 . S
O192 Eu176 2.324 . S
O192 C179 1.258 . S
O193 Tb175 2.500 . S
O193 C195 1.273 . S
O194 Tb175 2.473 . S
O194 C195 1.257 . S
C195 O193 1.273 . S
C195 O194 1.257 . S
O196 Eu176 2.326 . S
O196 C184 1.242 . S
O197 Tb175 2.324 . S
O197 C184 1.258 . S
O198 Eu176 2.500 . S
O198 C181 1.273 . S
O199 Eu176 2.473 . S
O199 C181 1.257 . S
H200 C186 0.929 . S
H201 C188 0.931 . S
H202 C190 0.929 . S
O203 Tb204 2.292 . S
O203 C206 1.255 . S
Tb204 O203 2.292 . S
Tb204 O220 2.326 . S
Tb204 O222 2.500 . S
Tb204 O223 2.473 . S
Tb204 O226 2.324 . S
Eu205 O209 2.292 . S
Eu205 C210 2.852 . S
Eu205 O221 2.324 . S
Eu205 O225 2.326 . S
Eu205 O227 2.500 . S
Eu205 O228 2.473 . S
C206 O203 1.255 . S
C206 O207 1.247 . S
O207 C206 1.247 . S
C208 O220 1.242 . S
C208 O221 1.258 . S
O209 Eu205 2.292 . S
O209 C211 1.255 . S
C210 Eu205 2.852 . S
C210 C214 1.503 . S
C210 O227 1.273 . S
C210 O228 1.257 . S
C211 O209 1.255 . S
C211 O212 1.247 . S
O212 C211 1.247 . S
C213 O225 1.242 . S
C213 O226 1.258 . S
C214 C210 1.503 . S
C214 C215 1.379 . S
C214 C219 1.392 . S
C215 C214 1.379 . S
C215 C216 1.404 . S
C215 H229 0.929 . S
C216 C215 1.404 . S
C216 C217 1.389 . S
C217 C216 1.389 . S
C217 C218 1.399 . S
C217 H230 0.931 . S
C218 C217 1.399 . S
C218 C219 1.390 . S
C219 C214 1.392 . S
C219 C218 1.390 . S
C219 H231 0.929 . S
O220 Tb204 2.326 . S
O220 C208 1.242 . S
O221 Eu205 2.324 . S
O221 C208 1.258 . S
O222 Tb204 2.500 . S
O222 C224 1.273 . S
O223 Tb204 2.473 . S
O223 C224 1.257 . S
C224 O222 1.273 . S
C224 O223 1.257 . S
O225 Eu205 2.326 . S
O225 C213 1.242 . S
O226 Tb204 2.324 . S
O226 C213 1.258 . S
O227 Eu205 2.500 . S
O227 C210 1.273 . S
O228 Eu205 2.473 . S
O228 C210 1.257 . S
H229 C215 0.929 . S
H230 C217 0.931 . S
H231 C219 0.929 . S
O232 Tb233 2.292 . S
O232 C235 1.255 . S
Tb233 O232 2.292 . S
Tb233 O249 2.326 . S
Tb233 O251 2.500 . S
Tb233 O252 2.473 . S
Tb233 O255 2.324 . S
Eu234 O238 2.292 . S
Eu234 C239 2.852 . S
Eu234 O250 2.324 . S
Eu234 O254 2.326 . S
Eu234 O256 2.500 . S
Eu234 O257 2.473 . S
C235 O232 1.255 . S
C235 O236 1.247 . S
O236 C235 1.247 . S
C237 O249 1.242 . S
C237 O250 1.258 . S
O238 Eu234 2.292 . S
O238 C240 1.255 . S
C239 Eu234 2.852 . S
C239 C243 1.503 . S
C239 O256 1.273 . S
C239 O257 1.257 . S
C240 O238 1.255 . S
C240 O241 1.247 . S
O241 C240 1.247 . S
C242 O254 1.242 . S
C242 O255 1.258 . S
C243 C239 1.503 . S
C243 C244 1.379 . S
C243 C248 1.392 . S
C244 C243 1.379 . S
C244 C245 1.404 . S
C244 H258 0.929 . S
C245 C244 1.404 . S
C245 C246 1.389 . S
C246 C245 1.389 . S
C246 C247 1.399 . S
C246 H259 0.931 . S
C247 C246 1.399 . S
C247 C248 1.390 . S
C248 C243 1.392 . S
C248 C247 1.390 . S
C248 H260 0.929 . S
O249 Tb233 2.326 . S
O249 C237 1.242 . S
O250 Eu234 2.324 . S
O250 C237 1.258 . S
O251 Tb233 2.500 . S
O251 C253 1.273 . S
O252 Tb233 2.473 . S
O252 C253 1.257 . S
C253 O251 1.273 . S
C253 O252 1.257 . S
O254 Eu234 2.326 . S
O254 C242 1.242 . S
O255 Tb233 2.324 . S
O255 C242 1.258 . S
O256 Eu234 2.500 . S
O256 C239 1.273 . S
O257 Eu234 2.473 . S
O257 C239 1.257 . S
H258 C244 0.929 . S
H259 C246 0.931 . S
H260 C248 0.929 . S
O261 Tb262 2.292 . S
O261 C264 1.255 . S
Tb262 O261 2.292 . S
Tb262 O278 2.326 . S
Tb262 O280 2.500 . S
Tb262 O281 2.473 . S
Tb262 O284 2.324 . S
Eu263 O267 2.292 . S
Eu263 C268 2.852 . S
Eu263 O279 2.324 . S
Eu263 O283 2.326 . S
Eu263 O285 2.500 . S
Eu263 O286 2.473 . S
C264 O261 1.255 . S
C264 O265 1.247 . S
O265 C264 1.247 . S
C266 O278 1.242 . S
C266 O279 1.258 . S
O267 Eu263 2.292 . S
O267 C269 1.255 . S
C268 Eu263 2.852 . S
C268 C272 1.503 . S
C268 O285 1.273 . S
C268 O286 1.257 . S
C269 O267 1.255 . S
C269 O270 1.247 . S
O270 C269 1.247 . S
C271 O283 1.242 . S
C271 O284 1.258 . S
C272 C268 1.503 . S
C272 C273 1.379 . S
C272 C277 1.392 . S
C273 C272 1.379 . S
C273 C274 1.404 . S
C273 H287 0.929 . S
C274 C273 1.404 . S
C274 C275 1.389 . S
C275 C274 1.389 . S
C275 C276 1.399 . S
C275 H288 0.931 . S
C276 C275 1.399 . S
C276 C277 1.390 . S
C277 C272 1.392 . S
C277 C276 1.390 . S
C277 H289 0.929 . S
O278 Tb262 2.326 . S
O278 C266 1.242 . S
O279 Eu263 2.324 . S
O279 C266 1.258 . S
O280 Tb262 2.500 . S
O280 C282 1.273 . S
O281 Tb262 2.473 . S
O281 C282 1.257 . S
C282 O280 1.273 . S
C282 O281 1.257 . S
O283 Eu263 2.326 . S
O283 C271 1.242 . S
O284 Tb262 2.324 . S
O284 C271 1.258 . S
O285 Eu263 2.500 . S
O285 C268 1.273 . S
O286 Eu263 2.473 . S
O286 C268 1.257 . S
H287 C273 0.929 . S
H288 C275 0.931 . S
H289 C277 0.929 . S
O290 Tb291 2.292 . S
O290 C293 1.255 . S
Tb291 O290 2.292 . S
Tb291 O307 2.326 . S
Tb291 O309 2.500 . S
Tb291 O310 2.473 . S
Tb291 O313 2.324 . S
Eu292 O296 2.292 . S
Eu292 C297 2.852 . S
Eu292 O308 2.324 . S
Eu292 O312 2.326 . S
Eu292 O314 2.500 . S
Eu292 O315 2.473 . S
C293 O290 1.255 . S
C293 O294 1.247 . S
O294 C293 1.247 . S
C295 O307 1.242 . S
C295 O308 1.258 . S
O296 Eu292 2.292 . S
O296 C298 1.255 . S
C297 Eu292 2.852 . S
C297 C301 1.503 . S
C297 O314 1.273 . S
C297 O315 1.257 . S
C298 O296 1.255 . S
C298 O299 1.247 . S
O299 C298 1.247 . S
C300 O312 1.242 . S
C300 O313 1.258 . S
C301 C297 1.503 . S
C301 C302 1.379 . S
C301 C306 1.392 . S
C302 C301 1.379 . S
C302 C303 1.404 . S
C302 H316 0.929 . S
C303 C302 1.404 . S
C303 C304 1.389 . S
C304 C303 1.389 . S
C304 C305 1.399 . S
C304 H317 0.931 . S
C305 C304 1.399 . S
C305 C306 1.390 . S
C306 C301 1.392 . S
C306 C305 1.390 . S
C306 H318 0.929 . S
O307 Tb291 2.326 . S
O307 C295 1.242 . S
O308 Eu292 2.324 . S
O308 C295 1.258 . S
O309 Tb291 2.500 . S
O309 C311 1.273 . S
O310 Tb291 2.473 . S
O310 C311 1.257 . S
C311 O309 1.273 . S
C311 O310 1.257 . S
O312 Eu292 2.326 . S
O312 C300 1.242 . S
O313 Tb291 2.324 . S
O313 C300 1.258 . S
O314 Eu292 2.500 . S
O314 C297 1.273 . S
O315 Eu292 2.473 . S
O315 C297 1.257 . S
H316 C302 0.929 . S
H317 C304 0.931 . S
H318 C306 0.929 . S
O319 Tb320 2.292 . S
O319 C322 1.255 . S
Tb320 O319 2.292 . S
Tb320 O336 2.326 . S
Tb320 O338 2.500 . S
Tb320 O339 2.473 . S
Tb320 O342 2.324 . S
Eu321 O325 2.292 . S
Eu321 C326 2.852 . S
Eu321 O337 2.324 . S
Eu321 O341 2.326 . S
Eu321 O343 2.500 . S
Eu321 O344 2.473 . S
C322 O319 1.255 . S
C322 O323 1.247 . S
O323 C322 1.247 . S
C324 O336 1.242 . S
C324 O337 1.258 . S
O325 Eu321 2.292 . S
O325 C327 1.255 . S
C326 Eu321 2.852 . S
C326 C330 1.503 . S
C326 O343 1.273 . S
C326 O344 1.257 . S
C327 O325 1.255 . S
C327 O328 1.247 . S
O328 C327 1.247 . S
C329 O341 1.242 . S
C329 O342 1.258 . S
C330 C326 1.503 . S
C330 C331 1.379 . S
C330 C335 1.392 . S
C331 C330 1.379 . S
C331 C332 1.404 . S
C331 H345 0.929 . S
C332 C331 1.404 . S
C332 C333 1.389 . S
C333 C332 1.389 . S
C333 C334 1.399 . S
C333 H346 0.931 . S
C334 C333 1.399 . S
C334 C335 1.390 . S
C335 C330 1.392 . S
C335 C334 1.390 . S
C335 H347 0.929 . S
O336 Tb320 2.326 . S
O336 C324 1.242 . S
O337 Eu321 2.324 . S
O337 C324 1.258 . S
O338 Tb320 2.500 . S
O338 C340 1.273 . S
O339 Tb320 2.473 . S
O339 C340 1.257 . S
C340 O338 1.273 . S
C340 O339 1.257 . S
O341 Eu321 2.326 . S
O341 C329 1.242 . S
O342 Tb320 2.324 . S
O342 C329 1.258 . S
O343 Eu321 2.500 . S
O343 C326 1.273 . S
O344 Eu321 2.473 . S
O344 C326 1.257 . S
H345 C331 0.929 . S
H346 C333 0.931 . S
H347 C335 0.929 . S
O348 Tb349 2.292 . S
O348 C351 1.255 . S
Tb349 O348 2.292 . S
Tb349 O365 2.326 . S
Tb349 O367 2.500 . S
Tb349 O368 2.473 . S
Tb349 O371 2.324 . S
Eu350 O354 2.292 . S
Eu350 C355 2.852 . S
Eu350 O366 2.324 . S
Eu350 O370 2.326 . S
Eu350 O372 2.500 . S
Eu350 O373 2.473 . S
C351 O348 1.255 . S
C351 O352 1.247 . S
O352 C351 1.247 . S
C353 O365 1.242 . S
C353 O366 1.258 . S
O354 Eu350 2.292 . S
O354 C356 1.255 . S
C355 Eu350 2.852 . S
C355 C359 1.503 . S
C355 O372 1.273 . S
C355 O373 1.257 . S
C356 O354 1.255 . S
C356 O357 1.247 . S
O357 C356 1.247 . S
C358 O370 1.242 . S
C358 O371 1.258 . S
C359 C355 1.503 . S
C359 C360 1.379 . S
C359 C364 1.392 . S
C360 C359 1.379 . S
C360 C361 1.404 . S
C360 H374 0.929 . S
C361 C360 1.404 . S
C361 C362 1.389 . S
C362 C361 1.389 . S
C362 C363 1.399 . S
C362 H375 0.931 . S
C363 C362 1.399 . S
C363 C364 1.390 . S
C364 C359 1.392 . S
C364 C363 1.390 . S
C364 H376 0.929 . S
O365 Tb349 2.326 . S
O365 C353 1.242 . S
O366 Eu350 2.324 . S
O366 C353 1.258 . S
O367 Tb349 2.500 . S
O367 C369 1.273 . S
O368 Tb349 2.473 . S
O368 C369 1.257 . S
C369 O367 1.273 . S
C369 O368 1.257 . S
O370 Eu350 2.326 . S
O370 C358 1.242 . S
O371 Tb349 2.324 . S
O371 C358 1.258 . S
O372 Eu350 2.500 . S
O372 C355 1.273 . S
O373 Eu350 2.473 . S
O373 C355 1.257 . S
H374 C360 0.929 . S
H375 C362 0.931 . S
H376 C364 0.929 . S
O377 Tb378 2.292 . S
O377 C380 1.255 . S
Tb378 O377 2.292 . S
Tb378 O394 2.326 . S
Tb378 O396 2.500 . S
Tb378 O397 2.473 . S
Tb378 O400 2.324 . S
Eu379 O383 2.292 . S
Eu379 C384 2.852 . S
Eu379 O395 2.324 . S
Eu379 O399 2.326 . S
Eu379 O401 2.500 . S
Eu379 O402 2.473 . S
C380 O377 1.255 . S
C380 O381 1.247 . S
O381 C380 1.247 . S
C382 O394 1.242 . S
C382 O395 1.258 . S
O383 Eu379 2.292 . S
O383 C385 1.255 . S
C384 Eu379 2.852 . S
C384 C388 1.503 . S
C384 O401 1.273 . S
C384 O402 1.257 . S
C385 O383 1.255 . S
C385 O386 1.247 . S
O386 C385 1.247 . S
C387 O399 1.242 . S
C387 O400 1.258 . S
C388 C384 1.503 . S
C388 C389 1.379 . S
C388 C393 1.392 . S
C389 C388 1.379 . S
C389 C390 1.404 . S
C389 H403 0.929 . S
C390 C389 1.404 . S
C390 C391 1.389 . S
C391 C390 1.389 . S
C391 C392 1.399 . S
C391 H404 0.931 . S
C392 C391 1.399 . S
C392 C393 1.390 . S
C393 C388 1.392 . S
C393 C392 1.390 . S
C393 H405 0.929 . S
O394 Tb378 2.326 . S
O394 C382 1.242 . S
O395 Eu379 2.324 . S
O395 C382 1.258 . S
O396 Tb378 2.500 . S
O396 C398 1.273 . S
O397 Tb378 2.473 . S
O397 C398 1.257 . S
C398 O396 1.273 . S
C398 O397 1.257 . S
O399 Eu379 2.326 . S
O399 C387 1.242 . S
O400 Tb378 2.324 . S
O400 C387 1.258 . S
O401 Eu379 2.500 . S
O401 C384 1.273 . S
O402 Eu379 2.473 . S
O402 C384 1.257 . S
H403 C389 0.929 . S
H404 C391 0.931 . S
H405 C393 0.929 . S
O406 Tb407 2.292 . S
O406 C409 1.255 . S
Tb407 O406 2.292 . S
Tb407 O423 2.326 . S
Tb407 O425 2.500 . S
Tb407 O426 2.473 . S
Tb407 O429 2.324 . S
Eu408 O412 2.292 . S
Eu408 C413 2.852 . S
Eu408 O424 2.324 . S
Eu408 O428 2.326 . S
Eu408 O430 2.500 . S
Eu408 O431 2.473 . S
C409 O406 1.255 . S
C409 O410 1.247 . S
O410 C409 1.247 . S
C411 O423 1.242 . S
C411 O424 1.258 . S
O412 Eu408 2.292 . S
O412 C414 1.255 . S
C413 Eu408 2.852 . S
C413 C417 1.503 . S
C413 O430 1.273 . S
C413 O431 1.257 . S
C414 O412 1.255 . S
C414 O415 1.247 . S
O415 C414 1.247 . S
C416 O428 1.242 . S
C416 O429 1.258 . S
C417 C413 1.503 . S
C417 C418 1.379 . S
C417 C422 1.392 . S
C418 C417 1.379 . S
C418 C419 1.404 . S
C418 H432 0.929 . S
C419 C418 1.404 . S
C419 C420 1.389 . S
C420 C419 1.389 . S
C420 C421 1.399 . S
C420 H433 0.931 . S
C421 C420 1.399 . S
C421 C422 1.390 . S
C422 C417 1.392 . S
C422 C421 1.390 . S
C422 H434 0.929 . S
O423 Tb407 2.326 . S
O423 C411 1.242 . S
O424 Eu408 2.324 . S
O424 C411 1.258 . S
O425 Tb407 2.500 . S
O425 C427 1.273 . S
O426 Tb407 2.473 . S
O426 C427 1.257 . S
C427 O425 1.273 . S
C427 O426 1.257 . S
O428 Eu408 2.326 . S
O428 C416 1.242 . S
O429 Tb407 2.324 . S
O429 C416 1.258 . S
O430 Eu408 2.500 . S
O430 C413 1.273 . S
O431 Eu408 2.473 . S
O431 C413 1.257 . S
H432 C418 0.929 . S
H433 C420 0.931 . S
H434 C422 0.929 . S
O435 Tb436 2.292 . S
O435 C438 1.255 . S
Tb436 O435 2.292 . S
Tb436 O452 2.326 . S
Tb436 O454 2.500 . S
Tb436 O455 2.473 . S
Tb436 O458 2.324 . S
Eu437 O441 2.292 . S
Eu437 C442 2.852 . S
Eu437 O453 2.324 . S
Eu437 O457 2.326 . S
Eu437 O459 2.500 . S
Eu437 O460 2.473 . S
C438 O435 1.255 . S
C438 O439 1.247 . S
O439 C438 1.247 . S
C440 O452 1.242 . S
C440 O453 1.258 . S
O441 Eu437 2.292 . S
O441 C443 1.255 . S
C442 Eu437 2.852 . S
C442 C446 1.503 . S
C442 O459 1.273 . S
C442 O460 1.257 . S
C443 O441 1.255 . S
C443 O444 1.247 . S
O444 C443 1.247 . S
C445 O457 1.242 . S
C445 O458 1.258 . S
C446 C442 1.503 . S
C446 C447 1.379 . S
C446 C451 1.392 . S
C447 C446 1.379 . S
C447 C448 1.404 . S
C447 H461 0.929 . S
C448 C447 1.404 . S
C448 C449 1.389 . S
C449 C448 1.389 . S
C449 C450 1.399 . S
C449 H462 0.931 . S
C450 C449 1.399 . S
C450 C451 1.390 . S
C451 C446 1.392 . S
C451 C450 1.390 . S
C451 H463 0.929 . S
O452 Tb436 2.326 . S
O452 C440 1.242 . S
O453 Eu437 2.324 . S
O453 C440 1.258 . S
O454 Tb436 2.500 . S
O454 C456 1.273 . S
O455 Tb436 2.473 . S
O455 C456 1.257 . S
C456 O454 1.273 . S
C456 O455 1.257 . S
O457 Eu437 2.326 . S
O457 C445 1.242 . S
O458 Tb436 2.324 . S
O458 C445 1.258 . S
O459 Eu437 2.500 . S
O459 C442 1.273 . S
O460 Eu437 2.473 . S
O460 C442 1.257 . S
H461 C447 0.929 . S
H462 C449 0.931 . S
H463 C451 0.929 . S
O464 Tb465 2.292 . S
O464 C467 1.255 . S
Tb465 O464 2.292 . S
Tb465 O481 2.326 . S
Tb465 O483 2.500 . S
Tb465 O484 2.473 . S
Tb465 O487 2.324 . S
Eu466 O470 2.292 . S
Eu466 C471 2.852 . S
Eu466 O482 2.324 . S
Eu466 O486 2.326 . S
Eu466 O488 2.500 . S
Eu466 O489 2.473 . S
C467 O464 1.255 . S
C467 O468 1.247 . S
O468 C467 1.247 . S
C469 O481 1.242 . S
C469 O482 1.258 . S
O470 Eu466 2.292 . S
O470 C472 1.255 . S
C471 Eu466 2.852 . S
C471 C475 1.503 . S
C471 O488 1.273 . S
C471 O489 1.257 . S
C472 O470 1.255 . S
C472 O473 1.247 . S
O473 C472 1.247 . S
C474 O486 1.242 . S
C474 O487 1.258 . S
C475 C471 1.503 . S
C475 C476 1.379 . S
C475 C480 1.392 . S
C476 C475 1.379 . S
C476 C477 1.404 . S
C476 H490 0.929 . S
C477 C476 1.404 . S
C477 C478 1.389 . S
C478 C477 1.389 . S
C478 C479 1.399 . S
C478 H491 0.931 . S
C479 C478 1.399 . S
C479 C480 1.390 . S
C480 C475 1.392 . S
C480 C479 1.390 . S
C480 H492 0.929 . S
O481 Tb465 2.326 . S
O481 C469 1.242 . S
O482 Eu466 2.324 . S
O482 C469 1.258 . S
O483 Tb465 2.500 . S
O483 C485 1.273 . S
O484 Tb465 2.473 . S
O484 C485 1.257 . S
C485 O483 1.273 . S
C485 O484 1.257 . S
O486 Eu466 2.326 . S
O486 C474 1.242 . S
O487 Tb465 2.324 . S
O487 C474 1.258 . S
O488 Eu466 2.500 . S
O488 C471 1.273 . S
O489 Eu466 2.473 . S
O489 C471 1.257 . S
H490 C476 0.929 . S
H491 C478 0.931 . S
H492 C480 0.929 . S
O493 Tb494 2.292 . S
O493 C496 1.255 . S
Tb494 O493 2.292 . S
Tb494 O510 2.326 . S
Tb494 O512 2.500 . S
Tb494 O513 2.473 . S
Tb494 O516 2.324 . S
Eu495 O499 2.292 . S
Eu495 C500 2.852 . S
Eu495 O511 2.324 . S
Eu495 O515 2.326 . S
Eu495 O517 2.500 . S
Eu495 O518 2.473 . S
C496 O493 1.255 . S
C496 O497 1.247 . S
O497 C496 1.247 . S
C498 O510 1.242 . S
C498 O511 1.258 . S
O499 Eu495 2.292 . S
O499 C501 1.255 . S
C500 Eu495 2.852 . S
C500 C504 1.503 . S
C500 O517 1.273 . S
C500 O518 1.257 . S
C501 O499 1.255 . S
C501 O502 1.247 . S
O502 C501 1.247 . S
C503 O515 1.242 . S
C503 O516 1.258 . S
C504 C500 1.503 . S
C504 C505 1.379 . S
C504 C509 1.392 . S
C505 C504 1.379 . S
C505 C506 1.404 . S
C505 H519 0.929 . S
C506 C505 1.404 . S
C506 C507 1.389 . S
C507 C506 1.389 . S
C507 C508 1.399 . S
C507 H520 0.931 . S
C508 C507 1.399 . S
C508 C509 1.390 . S
C509 C504 1.392 . S
C509 C508 1.390 . S
C509 H521 0.929 . S
O510 Tb494 2.326 . S
O510 C498 1.242 . S
O511 Eu495 2.324 . S
O511 C498 1.258 . S
O512 Tb494 2.500 . S
O512 C514 1.273 . S
O513 Tb494 2.473 . S
O513 C514 1.257 . S
C514 O512 1.273 . S
C514 O513 1.257 . S
O515 Eu495 2.326 . S
O515 C503 1.242 . S
O516 Tb494 2.324 . S
O516 C503 1.258 . S
O517 Eu495 2.500 . S
O517 C500 1.273 . S
O518 Eu495 2.473 . S
O518 C500 1.257 . S
H519 C505 0.929 . S
H520 C507 0.931 . S
H521 C509 0.929 . S
O522 Tb523 2.292 . S
O522 C525 1.255 . S
Tb523 O522 2.292 . S
Tb523 O539 2.326 . S
Tb523 O541 2.500 . S
Tb523 O542 2.473 . S
Tb523 O545 2.324 . S
Eu524 O528 2.292 . S
Eu524 C529 2.852 . S
Eu524 O540 2.324 . S
Eu524 O544 2.326 . S
Eu524 O546 2.500 . S
Eu524 O547 2.473 . S
C525 O522 1.255 . S
C525 O526 1.247 . S
O526 C525 1.247 . S
C527 O539 1.242 . S
C527 O540 1.258 . S
O528 Eu524 2.292 . S
O528 C530 1.255 . S
C529 Eu524 2.852 . S
C529 C533 1.503 . S
C529 O546 1.273 . S
C529 O547 1.257 . S
C530 O528 1.255 . S
C530 O531 1.247 . S
O531 C530 1.247 . S
C532 O544 1.242 . S
C532 O545 1.258 . S
C533 C529 1.503 . S
C533 C534 1.379 . S
C533 C538 1.392 . S
C534 C533 1.379 . S
C534 C535 1.404 . S
C534 H548 0.929 . S
C535 C534 1.404 . S
C535 C536 1.389 . S
C536 C535 1.389 . S
C536 C537 1.399 . S
C536 H549 0.931 . S
C537 C536 1.399 . S
C537 C538 1.390 . S
C538 C533 1.392 . S
C538 C537 1.390 . S
C538 H550 0.929 . S
O539 Tb523 2.326 . S
O539 C527 1.242 . S
O540 Eu524 2.324 . S
O540 C527 1.258 . S
O541 Tb523 2.500 . S
O541 C543 1.273 . S
O542 Tb523 2.473 . S
O542 C543 1.257 . S
C543 O541 1.273 . S
C543 O542 1.257 . S
O544 Eu524 2.326 . S
O544 C532 1.242 . S
O545 Tb523 2.324 . S
O545 C532 1.258 . S
O546 Eu524 2.500 . S
O546 C529 1.273 . S
O547 Eu524 2.473 . S
O547 C529 1.257 . S
H548 C534 0.929 . S
H549 C536 0.931 . S
H550 C538 0.929 . S
O551 Tb552 2.292 . S
O551 C554 1.255 . S
Tb552 O551 2.292 . S
Tb552 O568 2.326 . S
Tb552 O570 2.500 . S
Tb552 O571 2.473 . S
Tb552 O574 2.324 . S
Eu553 O557 2.292 . S
Eu553 C558 2.852 . S
Eu553 O569 2.324 . S
Eu553 O573 2.326 . S
Eu553 O575 2.500 . S
Eu553 O576 2.473 . S
C554 O551 1.255 . S
C554 O555 1.247 . S
O555 C554 1.247 . S
C556 O568 1.242 . S
C556 O569 1.258 . S
O557 Eu553 2.292 . S
O557 C559 1.255 . S
C558 Eu553 2.852 . S
C558 C562 1.503 . S
C558 O575 1.273 . S
C558 O576 1.257 . S
C559 O557 1.255 . S
C559 O560 1.247 . S
O560 C559 1.247 . S
C561 O573 1.242 . S
C561 O574 1.258 . S
C562 C558 1.503 . S
C562 C563 1.379 . S
C562 C567 1.392 . S
C563 C562 1.379 . S
C563 C564 1.404 . S
C563 H577 0.929 . S
C564 C563 1.404 . S
C564 C565 1.389 . S
C565 C564 1.389 . S
C565 C566 1.399 . S
C565 H578 0.931 . S
C566 C565 1.399 . S
C566 C567 1.390 . S
C567 C562 1.392 . S
C567 C566 1.390 . S
C567 H579 0.929 . S
O568 Tb552 2.326 . S
O568 C556 1.242 . S
O569 Eu553 2.324 . S
O569 C556 1.258 . S
O570 Tb552 2.500 . S
O570 C572 1.273 . S
O571 Tb552 2.473 . S
O571 C572 1.257 . S
C572 O570 1.273 . S
C572 O571 1.257 . S
O573 Eu553 2.326 . S
O573 C561 1.242 . S
O574 Tb552 2.324 . S
O574 C561 1.258 . S
O575 Eu553 2.500 . S
O575 C558 1.273 . S
O576 Eu553 2.473 . S
O576 C558 1.257 . S
H577 C563 0.929 . S
H578 C565 0.931 . S
H579 C567 0.929 . S
O580 Tb581 2.292 . S
O580 C583 1.255 . S
Tb581 O580 2.292 . S
Tb581 O597 2.326 . S
Tb581 O599 2.500 . S
Tb581 O600 2.473 . S
Tb581 O603 2.324 . S
Eu582 O586 2.292 . S
Eu582 C587 2.852 . S
Eu582 O598 2.324 . S
Eu582 O602 2.326 . S
Eu582 O604 2.500 . S
Eu582 O605 2.473 . S
C583 O580 1.255 . S
C583 O584 1.247 . S
O584 C583 1.247 . S
C585 O597 1.242 . S
C585 O598 1.258 . S
O586 Eu582 2.292 . S
O586 C588 1.255 . S
C587 Eu582 2.852 . S
C587 C591 1.503 . S
C587 O604 1.273 . S
C587 O605 1.257 . S
C588 O586 1.255 . S
C588 O589 1.247 . S
O589 C588 1.247 . S
C590 O602 1.242 . S
C590 O603 1.258 . S
C591 C587 1.503 . S
C591 C592 1.379 . S
C591 C596 1.392 . S
C592 C591 1.379 . S
C592 C593 1.404 . S
C592 H606 0.929 . S
C593 C592 1.404 . S
C593 C594 1.389 . S
C594 C593 1.389 . S
C594 C595 1.399 . S
C594 H607 0.931 . S
C595 C594 1.399 . S
C595 C596 1.390 . S
C596 C591 1.392 . S
C596 C595 1.390 . S
C596 H608 0.929 . S
O597 Tb581 2.326 . S
O597 C585 1.242 . S
O598 Eu582 2.324 . S
O598 C585 1.258 . S
O599 Tb581 2.500 . S
O599 C601 1.273 . S
O600 Tb581 2.473 . S
O600 C601 1.257 . S
C601 O599 1.273 . S
C601 O600 1.257 . S
O602 Eu582 2.326 . S
O602 C590 1.242 . S
O603 Tb581 2.324 . S
O603 C590 1.258 . S
O604 Eu582 2.500 . S
O604 C587 1.273 . S
O605 Eu582 2.473 . S
O605 C587 1.257 . S
H606 C592 0.929 . S
H607 C594 0.931 . S
H608 C596 0.929 . S
O609 Tb610 2.292 . S
O609 C612 1.255 . S
Tb610 O609 2.292 . S
Tb610 O626 2.326 . S
Tb610 O628 2.500 . S
Tb610 O629 2.473 . S
Tb610 O632 2.324 . S
Eu611 O615 2.292 . S
Eu611 C616 2.852 . S
Eu611 O627 2.324 . S
Eu611 O631 2.326 . S
Eu611 O633 2.500 . S
Eu611 O634 2.473 . S
C612 O609 1.255 . S
C612 O613 1.247 . S
O613 C612 1.247 . S
C614 O626 1.242 . S
C614 O627 1.258 . S
O615 Eu611 2.292 . S
O615 C617 1.255 . S
C616 Eu611 2.852 . S
C616 C620 1.503 . S
C616 O633 1.273 . S
C616 O634 1.257 . S
C617 O615 1.255 . S
C617 O618 1.247 . S
O618 C617 1.247 . S
C619 O631 1.242 . S
C619 O632 1.258 . S
C620 C616 1.503 . S
C620 C621 1.379 . S
C620 C625 1.392 . S
C621 C620 1.379 . S
C621 C622 1.404 . S
C621 H635 0.929 . S
C622 C621 1.404 . S
C622 C623 1.389 . S
C623 C622 1.389 . S
C623 C624 1.399 . S
C623 H636 0.931 . S
C624 C623 1.399 . S
C624 C625 1.390 . S
C625 C620 1.392 . S
C625 C624 1.390 . S
C625 H637 0.929 . S
O626 Tb610 2.326 . S
O626 C614 1.242 . S
O627 Eu611 2.324 . S
O627 C614 1.258 . S
O628 Tb610 2.500 . S
O628 C630 1.273 . S
O629 Tb610 2.473 . S
O629 C630 1.257 . S
C630 O628 1.273 . S
C630 O629 1.257 . S
O631 Eu611 2.326 . S
O631 C619 1.242 . S
O632 Tb610 2.324 . S
O632 C619 1.258 . S
O633 Eu611 2.500 . S
O633 C616 1.273 . S
O634 Eu611 2.473 . S
O634 C616 1.257 . S
H635 C621 0.929 . S
H636 C623 0.931 . S
H637 C625 0.929 . S
O638 Tb639 2.292 . S
O638 C641 1.255 . S
Tb639 O638 2.292 . S
Tb639 O655 2.326 . S
Tb639 O657 2.500 . S
Tb639 O658 2.473 . S
Tb639 O661 2.324 . S
Eu640 O644 2.292 . S
Eu640 C645 2.852 . S
Eu640 O656 2.324 . S
Eu640 O660 2.326 . S
Eu640 O662 2.500 . S
Eu640 O663 2.473 . S
C641 O638 1.255 . S
C641 O642 1.247 . S
O642 C641 1.247 . S
C643 O655 1.242 . S
C643 O656 1.258 . S
O644 Eu640 2.292 . S
O644 C646 1.255 . S
C645 Eu640 2.852 . S
C645 C649 1.503 . S
C645 O662 1.273 . S
C645 O663 1.257 . S
C646 O644 1.255 . S
C646 O647 1.247 . S
O647 C646 1.247 . S
C648 O660 1.242 . S
C648 O661 1.258 . S
C649 C645 1.503 . S
C649 C650 1.379 . S
C649 C654 1.392 . S
C650 C649 1.379 . S
C650 C651 1.404 . S
C650 H664 0.929 . S
C651 C650 1.404 . S
C651 C652 1.389 . S
C652 C651 1.389 . S
C652 C653 1.399 . S
C652 H665 0.931 . S
C653 C652 1.399 . S
C653 C654 1.390 . S
C654 C649 1.392 . S
C654 C653 1.390 . S
C654 H666 0.929 . S
O655 Tb639 2.326 . S
O655 C643 1.242 . S
O656 Eu640 2.324 . S
O656 C643 1.258 . S
O657 Tb639 2.500 . S
O657 C659 1.273 . S
O658 Tb639 2.473 . S
O658 C659 1.257 . S
C659 O657 1.273 . S
C659 O658 1.257 . S
O660 Eu640 2.326 . S
O660 C648 1.242 . S
O661 Tb639 2.324 . S
O661 C648 1.258 . S
O662 Eu640 2.500 . S
O662 C645 1.273 . S
O663 Eu640 2.473 . S
O663 C645 1.257 . S
H664 C650 0.929 . S
H665 C652 0.931 . S
H666 C654 0.929 . S
O667 Tb668 2.292 . S
O667 C670 1.255 . S
Tb668 O667 2.292 . S
Tb668 O684 2.326 . S
Tb668 O686 2.500 . S
Tb668 O687 2.473 . S
Tb668 O690 2.324 . S
Eu669 O673 2.292 . S
Eu669 C674 2.852 . S
Eu669 O685 2.324 . S
Eu669 O689 2.326 . S
Eu669 O691 2.500 . S
Eu669 O692 2.473 . S
C670 O667 1.255 . S
C670 O671 1.247 . S
O671 C670 1.247 . S
C672 O684 1.242 . S
C672 O685 1.258 . S
O673 Eu669 2.292 . S
O673 C675 1.255 . S
C674 Eu669 2.852 . S
C674 C678 1.503 . S
C674 O691 1.273 . S
C674 O692 1.257 . S
C675 O673 1.255 . S
C675 O676 1.247 . S
O676 C675 1.247 . S
C677 O689 1.242 . S
C677 O690 1.258 . S
C678 C674 1.503 . S
C678 C679 1.379 . S
C678 C683 1.392 . S
C679 C678 1.379 . S
C679 C680 1.404 . S
C679 H693 0.929 . S
C680 C679 1.404 . S
C680 C681 1.389 . S
C681 C680 1.389 . S
C681 C682 1.399 . S
C681 H694 0.931 . S
C682 C681 1.399 . S
C682 C683 1.390 . S
C683 C678 1.392 . S
C683 C682 1.390 . S
C683 H695 0.929 . S
O684 Tb668 2.326 . S
O684 C672 1.242 . S
O685 Eu669 2.324 . S
O685 C672 1.258 . S
O686 Tb668 2.500 . S
O686 C688 1.273 . S
O687 Tb668 2.473 . S
O687 C688 1.257 . S
C688 O686 1.273 . S
C688 O687 1.257 . S
O689 Eu669 2.326 . S
O689 C677 1.242 . S
O690 Tb668 2.324 . S
O690 C677 1.258 . S
O691 Eu669 2.500 . S
O691 C674 1.273 . S
O692 Eu669 2.473 . S
O692 C674 1.257 . S
H693 C679 0.929 . S
H694 C681 0.931 . S
H695 C683 0.929 . S
H696 C702 0.930 . S
H697 C705 0.930 . S
H698 C706 0.930 . S
H699 C707 0.930 . S
H700 C710 0.930 . S
H701 C711 0.930 . S
C702 H696 0.930 . S
C702 C703 1.355 . S
C702 C704 1.415 . S
C703 C702 1.355 . S
C703 C705 1.419 . S
C704 C702 1.415 . S
C704 C709 1.425 . S
C704 C711 1.409 . S
C705 H697 0.930 . S
C705 C703 1.419 . S
C705 C706 1.362 . S
C706 H698 0.930 . S
C706 C705 1.362 . S
C706 C709 1.409 . S
C707 H699 0.930 . S
C707 C708 1.355 . S
C707 C709 1.415 . S
C708 C707 1.355 . S
C708 C710 1.419 . S
C709 C704 1.425 . S
C709 C706 1.409 . S
C709 C707 1.415 . S
C710 H700 0.930 . S
C710 C708 1.419 . S
C710 C711 1.362 . S
C711 H701 0.930 . S
C711 C704 1.409 . S
C711 C710 1.362 . S
H712 C718 0.930 . S
H713 C721 0.930 . S
H714 C722 0.930 . S
H715 C723 0.930 . S
H716 C726 0.930 . S
H717 C727 0.930 . S
C718 H712 0.930 . S
C718 C719 1.355 . S
C718 C720 1.415 . S
C719 C718 1.355 . S
C719 C721 1.419 . S
C720 C718 1.415 . S
C720 C725 1.425 . S
C720 C727 1.409 . S
C721 H713 0.930 . S
C721 C719 1.419 . S
C721 C722 1.362 . S
C722 H714 0.930 . S
C722 C721 1.362 . S
C722 C725 1.409 . S
C723 H715 0.930 . S
C723 C724 1.355 . S
C723 C725 1.415 . S
C724 C723 1.355 . S
C724 C726 1.419 . S
C725 C720 1.425 . S
C725 C722 1.409 . S
C725 C723 1.415 . S
C726 H716 0.930 . S
C726 C724 1.419 . S
C726 C727 1.362 . S
C727 H717 0.930 . S
C727 C720 1.409 . S
C727 C726 1.362 . S
H728 C734 0.930 . S
H729 C737 0.930 . S
H730 C738 0.930 . S
H731 C739 0.930 . S
H732 C742 0.930 . S
H733 C743 0.930 . S
C734 H728 0.930 . S
C734 C735 1.355 . S
C734 C736 1.415 . S
C735 C734 1.355 . S
C735 C737 1.419 . S
C736 C734 1.415 . S
C736 C741 1.425 . S
C736 C743 1.409 . S
C737 H729 0.930 . S
C737 C735 1.419 . S
C737 C738 1.362 . S
C738 H730 0.930 . S
C738 C737 1.362 . S
C738 C741 1.409 . S
C739 H731 0.930 . S
C739 C740 1.355 . S
C739 C741 1.415 . S
C740 C739 1.355 . S
C740 C742 1.419 . S
C741 C736 1.425 . S
C741 C738 1.409 . S
C741 C739 1.415 . S
C742 H732 0.930 . S
C742 C740 1.419 . S
C742 C743 1.362 . S
C743 H733 0.930 . S
C743 C736 1.409 . S
C743 C742 1.362 . S
H744 C750 0.930 . S
H745 C753 0.930 . S
H746 C754 0.930 . S
H747 C755 0.930 . S
H748 C758 0.930 . S
H749 C759 0.930 . S
C750 H744 0.930 . S
C750 C751 1.355 . S
C750 C752 1.415 . S
C751 C750 1.355 . S
C751 C753 1.419 . S
C752 C750 1.415 . S
C752 C757 1.425 . S
C752 C759 1.409 . S
C753 H745 0.930 . S
C753 C751 1.419 . S
C753 C754 1.362 . S
C754 H746 0.930 . S
C754 C753 1.362 . S
C754 C757 1.409 . S
C755 H747 0.930 . S
C755 C756 1.355 . S
C755 C757 1.415 . S
C756 C755 1.355 . S
C756 C758 1.419 . S
C757 C752 1.425 . S
C757 C754 1.409 . S
C757 C755 1.415 . S
C758 H748 0.930 . S
C758 C756 1.419 . S
C758 C759 1.362 . S
C759 H749 0.930 . S
C759 C752 1.409 . S
C759 C758 1.362 . S
H760 C766 0.930 . S
H761 C769 0.930 . S
H762 C770 0.930 . S
H763 C771 0.930 . S
H764 C774 0.930 . S
H765 C775 0.930 . S
C766 H760 0.930 . S
C766 C767 1.355 . S
C766 C768 1.415 . S
C767 C766 1.355 . S
C767 C769 1.419 . S
C768 C766 1.415 . S
C768 C773 1.425 . S
C768 C775 1.409 . S
C769 H761 0.930 . S
C769 C767 1.419 . S
C769 C770 1.362 . S
C770 H762 0.930 . S
C770 C769 1.362 . S
C770 C773 1.409 . S
C771 H763 0.930 . S
C771 C772 1.355 . S
C771 C773 1.415 . S
C772 C771 1.355 . S
C772 C774 1.419 . S
C773 C768 1.425 . S
C773 C770 1.409 . S
C773 C771 1.415 . S
C774 H764 0.930 . S
C774 C772 1.419 . S
C774 C775 1.362 . S
C775 H765 0.930 . S
C775 C768 1.409 . S
C775 C774 1.362 . S
H776 C782 0.930 . S
H777 C785 0.930 . S
H778 C786 0.930 . S
H779 C787 0.930 . S
H780 C790 0.930 . S
H781 C791 0.930 . S
C782 H776 0.930 . S
C782 C783 1.355 . S
C782 C784 1.415 . S
C783 C782 1.355 . S
C783 C785 1.419 . S
C784 C782 1.415 . S
C784 C789 1.425 . S
C784 C791 1.409 . S
C785 H777 0.930 . S
C785 C783 1.419 . S
C785 C786 1.362 . S
C786 H778 0.930 . S
C786 C785 1.362 . S
C786 C789 1.409 . S
C787 H779 0.930 . S
C787 C788 1.355 . S
C787 C789 1.415 . S
C788 C787 1.355 . S
C788 C790 1.419 . S
C789 C784 1.425 . S
C789 C786 1.409 . S
C789 C787 1.415 . S
C790 H780 0.930 . S
C790 C788 1.419 . S
C790 C791 1.362 . S
C791 H781 0.930 . S
C791 C784 1.409 . S
C791 C790 1.362 . S
H792 C798 0.930 . S
H793 C801 0.930 . S
H794 C802 0.930 . S
H795 C803 0.930 . S
H796 C806 0.930 . S
H797 C807 0.930 . S
C798 H792 0.930 . S
C798 C799 1.355 . S
C798 C800 1.415 . S
C799 C798 1.355 . S
C799 C801 1.419 . S
C800 C798 1.415 . S
C800 C805 1.425 . S
C800 C807 1.409 . S
C801 H793 0.930 . S
C801 C799 1.419 . S
C801 C802 1.362 . S
C802 H794 0.930 . S
C802 C801 1.362 . S
C802 C805 1.409 . S
C803 H795 0.930 . S
C803 C804 1.355 . S
C803 C805 1.415 . S
C804 C803 1.355 . S
C804 C806 1.419 . S
C805 C800 1.425 . S
C805 C802 1.409 . S
C805 C803 1.415 . S
C806 H796 0.930 . S
C806 C804 1.419 . S
C806 C807 1.362 . S
C807 H797 0.930 . S
C807 C800 1.409 . S
C807 C806 1.362 . S
H808 C814 0.930 . S
H809 C817 0.930 . S
H810 C818 0.930 . S
H811 C819 0.930 . S
H812 C822 0.930 . S
H813 C823 0.930 . S
C814 H808 0.930 . S
C814 C815 1.355 . S
C814 C816 1.415 . S
C815 C814 1.355 . S
C815 C817 1.419 . S
C816 C814 1.415 . S
C816 C821 1.425 . S
C816 C823 1.409 . S
C817 H809 0.930 . S
C817 C815 1.419 . S
C817 C818 1.362 . S
C818 H810 0.930 . S
C818 C817 1.362 . S
C818 C821 1.409 . S
C819 H811 0.930 . S
C819 C820 1.355 . S
C819 C821 1.415 . S
C820 C819 1.355 . S
C820 C822 1.419 . S
C821 C816 1.425 . S
C821 C818 1.409 . S
C821 C819 1.415 . S
C822 H812 0.930 . S
C822 C820 1.419 . S
C822 C823 1.362 . S
C823 H813 0.930 . S
C823 C816 1.409 . S
C823 C822 1.362 . S
H824 C830 0.930 . S
H825 C833 0.930 . S
H826 C834 0.930 . S
H827 C835 0.930 . S
H828 C838 0.930 . S
H829 C839 0.930 . S
C830 H824 0.930 . S
C830 C831 1.355 . S
C830 C832 1.415 . S
C831 C830 1.355 . S
C831 C833 1.419 . S
C832 C830 1.415 . S
C832 C837 1.425 . S
C832 C839 1.409 . S
C833 H825 0.930 . S
C833 C831 1.419 . S
C833 C834 1.362 . S
C834 H826 0.930 . S
C834 C833 1.362 . S
C834 C837 1.409 . S
C835 H827 0.930 . S
C835 C836 1.355 . S
C835 C837 1.415 . S
C836 C835 1.355 . S
C836 C838 1.419 . S
C837 C832 1.425 . S
C837 C834 1.409 . S
C837 C835 1.415 . S
C838 H828 0.930 . S
C838 C836 1.419 . S
C838 C839 1.362 . S
C839 H829 0.930 . S
C839 C832 1.409 . S
C839 C838 1.362 . S
H840 C846 0.930 . S
H841 C849 0.930 . S
H842 C850 0.930 . S
H843 C851 0.930 . S
H844 C854 0.930 . S
H845 C855 0.930 . S
C846 H840 0.930 . S
C846 C847 1.355 . S
C846 C848 1.415 . S
C847 C846 1.355 . S
C847 C849 1.419 . S
C848 C846 1.415 . S
C848 C853 1.425 . S
C848 C855 1.409 . S
C849 H841 0.930 . S
C849 C847 1.419 . S
C849 C850 1.362 . S
C850 H842 0.930 . S
C850 C849 1.362 . S
C850 C853 1.409 . S
C851 H843 0.930 . S
C851 C852 1.355 . S
C851 C853 1.415 . S
C852 C851 1.355 . S
C852 C854 1.419 . S
C853 C848 1.425 . S
C853 C850 1.409 . S
C853 C851 1.415 . S
C854 H844 0.930 . S
C854 C852 1.419 . S
C854 C855 1.362 . S
C855 H845 0.930 . S
C855 C848 1.409 . S
C855 C854 1.362 . S
H856 C862 0.930 . S
H857 C865 0.930 . S
H858 C866 0.930 . S
H859 C867 0.930 . S
H860 C870 0.930 . S
H861 C871 0.930 . S
C862 H856 0.930 . S
C862 C863 1.355 . S
C862 C864 1.415 . S
C863 C862 1.355 . S
C863 C865 1.419 . S
C864 C862 1.415 . S
C864 C869 1.425 . S
C864 C871 1.409 . S
C865 H857 0.930 . S
C865 C863 1.419 . S
C865 C866 1.362 . S
C866 H858 0.930 . S
C866 C865 1.362 . S
C866 C869 1.409 . S
C867 H859 0.930 . S
C867 C868 1.355 . S
C867 C869 1.415 . S
C868 C867 1.355 . S
C868 C870 1.419 . S
C869 C864 1.425 . S
C869 C866 1.409 . S
C869 C867 1.415 . S
C870 H860 0.930 . S
C870 C868 1.419 . S
C870 C871 1.362 . S
C871 H861 0.930 . S
C871 C864 1.409 . S
C871 C870 1.362 . S
H872 C878 0.930 . S
H873 C881 0.930 . S
H874 C882 0.930 . S
H875 C883 0.930 . S
H876 C886 0.930 . S
H877 C887 0.930 . S
C878 H872 0.930 . S
C878 C879 1.355 . S
C878 C880 1.415 . S
C879 C878 1.355 . S
C879 C881 1.419 . S
C880 C878 1.415 . S
C880 C885 1.425 . S
C880 C887 1.409 . S
C881 H873 0.930 . S
C881 C879 1.419 . S
C881 C882 1.362 . S
C882 H874 0.930 . S
C882 C881 1.362 . S
C882 C885 1.409 . S
C883 H875 0.930 . S
C883 C884 1.355 . S
C883 C885 1.415 . S
C884 C883 1.355 . S
C884 C886 1.419 . S
C885 C880 1.425 . S
C885 C882 1.409 . S
C885 C883 1.415 . S
C886 H876 0.930 . S
C886 C884 1.419 . S
C886 C887 1.362 . S
C887 H877 0.930 . S
C887 C880 1.409 . S
C887 C886 1.362 . S
H888 C894 0.930 . S
H889 C897 0.930 . S
H890 C898 0.930 . S
H891 C899 0.930 . S
H892 C902 0.930 . S
H893 C903 0.930 . S
C894 H888 0.930 . S
C894 C895 1.355 . S
C894 C896 1.415 . S
C895 C894 1.355 . S
C895 C897 1.419 . S
C896 C894 1.415 . S
C896 C901 1.425 . S
C896 C903 1.409 . S
C897 H889 0.930 . S
C897 C895 1.419 . S
C897 C898 1.362 . S
C898 H890 0.930 . S
C898 C897 1.362 . S
C898 C901 1.409 . S
C899 H891 0.930 . S
C899 C900 1.355 . S
C899 C901 1.415 . S
C900 C899 1.355 . S
C900 C902 1.419 . S
C901 C896 1.425 . S
C901 C898 1.409 . S
C901 C899 1.415 . S
C902 H892 0.930 . S
C902 C900 1.419 . S
C902 C903 1.362 . S
C903 H893 0.930 . S
C903 C896 1.409 . S
C903 C902 1.362 . S
H904 C910 0.930 . S
H905 C913 0.930 . S
H906 C914 0.930 . S
H907 C915 0.930 . S
H908 C918 0.930 . S
H909 C919 0.930 . S
C910 H904 0.930 . S
C910 C911 1.355 . S
C910 C912 1.415 . S
C911 C910 1.355 . S
C911 C913 1.419 . S
C912 C910 1.415 . S
C912 C917 1.425 . S
C912 C919 1.409 . S
C913 H905 0.930 . S
C913 C911 1.419 . S
C913 C914 1.362 . S
C914 H906 0.930 . S
C914 C913 1.362 . S
C914 C917 1.409 . S
C915 H907 0.930 . S
C915 C916 1.355 . S
C915 C917 1.415 . S
C916 C915 1.355 . S
C916 C918 1.419 . S
C917 C912 1.425 . S
C917 C914 1.409 . S
C917 C915 1.415 . S
C918 H908 0.930 . S
C918 C916 1.419 . S
C918 C919 1.362 . S
C919 H909 0.930 . S
C919 C912 1.409 . S
C919 C918 1.362 . S
H920 C926 0.930 . S
H921 C929 0.930 . S
H922 C930 0.930 . S
H923 C931 0.930 . S
H924 C934 0.930 . S
H925 C935 0.930 . S
C926 H920 0.930 . S
C926 C927 1.355 . S
C926 C928 1.415 . S
C927 C926 1.355 . S
C927 C929 1.419 . S
C928 C926 1.415 . S
C928 C933 1.425 . S
C928 C935 1.409 . S
C929 H921 0.930 . S
C929 C927 1.419 . S
C929 C930 1.362 . S
C930 H922 0.930 . S
C930 C929 1.362 . S
C930 C933 1.409 . S
C931 H923 0.930 . S
C931 C932 1.355 . S
C931 C933 1.415 . S
C932 C931 1.355 . S
C932 C934 1.419 . S
C933 C928 1.425 . S
C933 C930 1.409 . S
C933 C931 1.415 . S
C934 H924 0.930 . S
C934 C932 1.419 . S
C934 C935 1.362 . S
C935 H925 0.930 . S
C935 C928 1.409 . S
C935 C934 1.362 . S
H936 C942 0.930 . S
H937 C945 0.930 . S
H938 C946 0.930 . S
H939 C947 0.930 . S
H940 C950 0.930 . S
H941 C951 0.930 . S
C942 H936 0.930 . S
C942 C943 1.355 . S
C942 C944 1.415 . S
C943 C942 1.355 . S
C943 C945 1.419 . S
C944 C942 1.415 . S
C944 C949 1.425 . S
C944 C951 1.409 . S
C945 H937 0.930 . S
C945 C943 1.419 . S
C945 C946 1.362 . S
C946 H938 0.930 . S
C946 C945 1.362 . S
C946 C949 1.409 . S
C947 H939 0.930 . S
C947 C948 1.355 . S
C947 C949 1.415 . S
C948 C947 1.355 . S
C948 C950 1.419 . S
C949 C944 1.425 . S
C949 C946 1.409 . S
C949 C947 1.415 . S
C950 H940 0.930 . S
C950 C948 1.419 . S
C950 C951 1.362 . S
C951 H941 0.930 . S
C951 C944 1.409 . S
C951 C950 1.362 . S
H952 C958 0.930 . S
H953 C961 0.930 . S
H954 C962 0.930 . S
H955 C963 0.930 . S
H956 C966 0.930 . S
H957 C967 0.930 . S
C958 H952 0.930 . S
C958 C959 1.355 . S
C958 C960 1.415 . S
C959 C958 1.355 . S
C959 C961 1.419 . S
C960 C958 1.415 . S
C960 C965 1.425 . S
C960 C967 1.409 . S
C961 H953 0.930 . S
C961 C959 1.419 . S
C961 C962 1.362 . S
C962 H954 0.930 . S
C962 C961 1.362 . S
C962 C965 1.409 . S
C963 H955 0.930 . S
C963 C964 1.355 . S
C963 C965 1.415 . S
C964 C963 1.355 . S
C964 C966 1.419 . S
C965 C960 1.425 . S
C965 C962 1.409 . S
C965 C963 1.415 . S
C966 H956 0.930 . S
C966 C964 1.419 . S
C966 C967 1.362 . S
C967 H957 0.930 . S
C967 C960 1.409 . S
C967 C966 1.362 . S
H968 C974 0.930 . S
H969 C977 0.930 . S
H970 C978 0.930 . S
H971 C979 0.930 . S
H972 C982 0.930 . S
H973 C983 0.930 . S
C974 H968 0.930 . S
C974 C975 1.355 . S
C974 C976 1.415 . S
C975 C974 1.355 . S
C975 C977 1.419 . S
C976 C974 1.415 . S
C976 C981 1.425 . S
C976 C983 1.409 . S
C977 H969 0.930 . S
C977 C975 1.419 . S
C977 C978 1.362 . S
C978 H970 0.930 . S
C978 C977 1.362 . S
C978 C981 1.409 . S
C979 H971 0.930 . S
C979 C980 1.355 . S
C979 C981 1.415 . S
C980 C979 1.355 . S
C980 C982 1.419 . S
C981 C976 1.425 . S
C981 C978 1.409 . S
C981 C979 1.415 . S
C982 H972 0.930 . S
C982 C980 1.419 . S
C982 C983 1.362 . S
C983 H973 0.930 . S
C983 C976 1.409 . S
C983 C982 1.362 . S
H984 C990 0.930 . S
H985 C993 0.930 . S
H986 C994 0.930 . S
H987 C995 0.930 . S
H988 C998 0.930 . S
H989 C999 0.930 . S
C990 H984 0.930 . S
C990 C991 1.355 . S
C990 C992 1.415 . S
C991 C990 1.355 . S
C991 C993 1.419 . S
C992 C990 1.415 . S
C992 C997 1.425 . S
C992 C999 1.409 . S
C993 H985 0.930 . S
C993 C991 1.419 . S
C993 C994 1.362 . S
C994 H986 0.930 . S
C994 C993 1.362 . S
C994 C997 1.409 . S
C995 H987 0.930 . S
C995 C996 1.355 . S
C995 C997 1.415 . S
C996 C995 1.355 . S
C996 C998 1.419 . S
C997 C992 1.425 . S
C997 C994 1.409 . S
C997 C995 1.415 . S
C998 H988 0.930 . S
C998 C996 1.419 . S
C998 C999 1.362 . S
C999 H989 0.930 . S
C999 C992 1.409 . S
C999 C998 1.362 . S
H1000 C1006 0.930 . S
H1001 C1009 0.930 . S
H1002 C1010 0.930 . S
H1003 C1011 0.930 . S
H1004 C1014 0.930 . S
H1005 C1015 0.930 . S
C1006 H1000 0.930 . S
C1006 C1007 1.355 . S
C1006 C1008 1.415 . S
C1007 C1006 1.355 . S
C1007 C1009 1.419 . S
C1008 C1006 1.415 . S
C1008 C1013 1.425 . S
C1008 C1015 1.409 . S
C1009 H1001 0.930 . S
C1009 C1007 1.419 . S
C1009 C1010 1.362 . S
C1010 H1002 0.930 . S
C1010 C1009 1.362 . S
C1010 C1013 1.409 . S
C1011 H1003 0.930 . S
C1011 C1012 1.355 . S
C1011 C1013 1.415 . S
C1012 C1011 1.355 . S
C1012 C1014 1.419 . S
C1013 C1008 1.425 . S
C1013 C1010 1.409 . S
C1013 C1011 1.415 . S
C1014 H1004 0.930 . S
C1014 C1012 1.419 . S
C1014 C1015 1.362 . S
C1015 H1005 0.930 . S
C1015 C1008 1.409 . S
C1015 C1014 1.362 . S
H1016 C1022 0.930 . S
H1017 C1025 0.930 . S
H1018 C1026 0.930 . S
H1019 C1027 0.930 . S
H1020 C1030 0.930 . S
H1021 C1031 0.930 . S
C1022 H1016 0.930 . S
C1022 C1023 1.355 . S
C1022 C1024 1.415 . S
C1023 C1022 1.355 . S
C1023 C1025 1.419 . S
C1024 C1022 1.415 . S
C1024 C1029 1.425 . S
C1024 C1031 1.409 . S
C1025 H1017 0.930 . S
C1025 C1023 1.419 . S
C1025 C1026 1.362 . S
C1026 H1018 0.930 . S
C1026 C1025 1.362 . S
C1026 C1029 1.409 . S
C1027 H1019 0.930 . S
C1027 C1028 1.355 . S
C1027 C1029 1.415 . S
C1028 C1027 1.355 . S
C1028 C1030 1.419 . S
C1029 C1024 1.425 . S
C1029 C1026 1.409 . S
C1029 C1027 1.415 . S
C1030 H1020 0.930 . S
C1030 C1028 1.419 . S
C1030 C1031 1.362 . S
C1031 H1021 0.930 . S
C1031 C1024 1.409 . S
C1031 C1030 1.362 . S
H1032 C1038 0.930 . S
H1033 C1041 0.930 . S
H1034 C1042 0.930 . S
H1035 C1043 0.930 . S
H1036 C1046 0.930 . S
H1037 C1047 0.930 . S
C1038 H1032 0.930 . S
C1038 C1039 1.355 . S
C1038 C1040 1.415 . S
C1039 C1038 1.355 . S
C1039 C1041 1.419 . S
C1040 C1038 1.415 . S
C1040 C1045 1.425 . S
C1040 C1047 1.409 . S
C1041 H1033 0.930 . S
C1041 C1039 1.419 . S
C1041 C1042 1.362 . S
C1042 H1034 0.930 . S
C1042 C1041 1.362 . S
C1042 C1045 1.409 . S
C1043 H1035 0.930 . S
C1043 C1044 1.355 . S
C1043 C1045 1.415 . S
C1044 C1043 1.355 . S
C1044 C1046 1.419 . S
C1045 C1040 1.425 . S
C1045 C1042 1.409 . S
C1045 C1043 1.415 . S
C1046 H1036 0.930 . S
C1046 C1044 1.419 . S
C1046 C1047 1.362 . S
C1047 H1037 0.930 . S
C1047 C1040 1.409 . S
C1047 C1046 1.362 . S
H1048 C1054 0.930 . S
H1049 C1057 0.930 . S
H1050 C1058 0.930 . S
H1051 C1059 0.930 . S
H1052 C1062 0.930 . S
H1053 C1063 0.930 . S
C1054 H1048 0.930 . S
C1054 C1055 1.355 . S
C1054 C1056 1.415 . S
C1055 C1054 1.355 . S
C1055 C1057 1.419 . S
C1056 C1054 1.415 . S
C1056 C1061 1.425 . S
C1056 C1063 1.409 . S
C1057 H1049 0.930 . S
C1057 C1055 1.419 . S
C1057 C1058 1.362 . S
C1058 H1050 0.930 . S
C1058 C1057 1.362 . S
C1058 C1061 1.409 . S
C1059 H1051 0.930 . S
C1059 C1060 1.355 . S
C1059 C1061 1.415 . S
C1060 C1059 1.355 . S
C1060 C1062 1.419 . S
C1061 C1056 1.425 . S
C1061 C1058 1.409 . S
C1061 C1059 1.415 . S
C1062 H1052 0.930 . S
C1062 C1060 1.419 . S
C1062 C1063 1.362 . S
C1063 H1053 0.930 . S
C1063 C1056 1.409 . S
C1063 C1062 1.362 . S
H1064 C1070 0.930 . S
H1065 C1073 0.930 . S
H1066 C1074 0.930 . S
H1067 C1075 0.930 . S
H1068 C1078 0.930 . S
H1069 C1079 0.930 . S
C1070 H1064 0.930 . S
C1070 C1071 1.355 . S
C1070 C1072 1.415 . S
C1071 C1070 1.355 . S
C1071 C1073 1.419 . S
C1072 C1070 1.415 . S
C1072 C1077 1.425 . S
C1072 C1079 1.409 . S
C1073 H1065 0.930 . S
C1073 C1071 1.419 . S
C1073 C1074 1.362 . S
C1074 H1066 0.930 . S
C1074 C1073 1.362 . S
C1074 C1077 1.409 . S
C1075 H1067 0.930 . S
C1075 C1076 1.355 . S
C1075 C1077 1.415 . S
C1076 C1075 1.355 . S
C1076 C1078 1.419 . S
C1077 C1072 1.425 . S
C1077 C1074 1.409 . S
C1077 C1075 1.415 . S
C1078 H1068 0.930 . S
C1078 C1076 1.419 . S
C1078 C1079 1.362 . S
C1079 H1069 0.930 . S
C1079 C1072 1.409 . S
C1079 C1078 1.362 . S
H1080 C1086 0.930 . S
H1081 C1089 0.930 . S
H1082 C1090 0.930 . S
H1083 C1091 0.930 . S
H1084 C1094 0.930 . S
H1085 C1095 0.930 . S
C1086 H1080 0.930 . S
C1086 C1087 1.355 . S
C1086 C1088 1.415 . S
C1087 C1086 1.355 . S
C1087 C1089 1.419 . S
C1088 C1086 1.415 . S
C1088 C1093 1.425 . S
C1088 C1095 1.409 . S
C1089 H1081 0.930 . S
C1089 C1087 1.419 . S
C1089 C1090 1.362 . S
C1090 H1082 0.930 . S
C1090 C1089 1.362 . S
C1090 C1093 1.409 . S
C1091 H1083 0.930 . S
C1091 C1092 1.355 . S
C1091 C1093 1.415 . S
C1092 C1091 1.355 . S
C1092 C1094 1.419 . S
C1093 C1088 1.425 . S
C1093 C1090 1.409 . S
C1093 C1091 1.415 . S
C1094 H1084 0.930 . S
C1094 C1092 1.419 . S
C1094 C1095 1.362 . S
C1095 H1085 0.930 . S
C1095 C1088 1.409 . S
C1095 C1094 1.362 . S
H1096 C1102 0.930 . S
H1097 C1105 0.930 . S
H1098 C1106 0.930 . S
H1099 C1107 0.930 . S
H1100 C1110 0.930 . S
H1101 C1111 0.930 . S
C1102 H1096 0.930 . S
C1102 C1103 1.355 . S
C1102 C1104 1.415 . S
C1103 C1102 1.355 . S
C1103 C1105 1.419 . S
C1104 C1102 1.415 . S
C1104 C1109 1.425 . S
C1104 C1111 1.409 . S
C1105 H1097 0.930 . S
C1105 C1103 1.419 . S
C1105 C1106 1.362 . S
C1106 H1098 0.930 . S
C1106 C1105 1.362 . S
C1106 C1109 1.409 . S
C1107 H1099 0.930 . S
C1107 C1108 1.355 . S
C1107 C1109 1.415 . S
C1108 C1107 1.355 . S
C1108 C1110 1.419 . S
C1109 C1104 1.425 . S
C1109 C1106 1.409 . S
C1109 C1107 1.415 . S
C1110 H1100 0.930 . S
C1110 C1108 1.419 . S
C1110 C1111 1.362 . S
C1111 H1101 0.930 . S
C1111 C1104 1.409 . S
C1111 C1110 1.362 . S
H1112 C1118 0.930 . S
H1113 C1121 0.930 . S
H1114 C1122 0.930 . S
H1115 C1123 0.930 . S
H1116 C1126 0.930 . S
H1117 C1127 0.930 . S
C1118 H1112 0.930 . S
C1118 C1119 1.355 . S
C1118 C1120 1.415 . S
C1119 C1118 1.355 . S
C1119 C1121 1.419 . S
C1120 C1118 1.415 . S
C1120 C1125 1.425 . S
C1120 C1127 1.409 . S
C1121 H1113 0.930 . S
C1121 C1119 1.419 . S
C1121 C1122 1.362 . S
C1122 H1114 0.930 . S
C1122 C1121 1.362 . S
C1122 C1125 1.409 . S
C1123 H1115 0.930 . S
C1123 C1124 1.355 . S
C1123 C1125 1.415 . S
C1124 C1123 1.355 . S
C1124 C1126 1.419 . S
C1125 C1120 1.425 . S
C1125 C1122 1.409 . S
C1125 C1123 1.415 . S
C1126 H1116 0.930 . S
C1126 C1124 1.419 . S
C1126 C1127 1.362 . S
C1127 H1117 0.930 . S
C1127 C1120 1.409 . S
C1127 C1126 1.362 . S
H1128 C1134 0.930 . S
H1129 C1137 0.930 . S
H1130 C1138 0.930 . S
H1131 C1139 0.930 . S
H1132 C1142 0.930 . S
H1133 C1143 0.930 . S
C1134 H1128 0.930 . S
C1134 C1135 1.355 . S
C1134 C1136 1.415 . S
C1135 C1134 1.355 . S
C1135 C1137 1.419 . S
C1136 C1134 1.415 . S
C1136 C1141 1.425 . S
C1136 C1143 1.409 . S
C1137 H1129 0.930 . S
C1137 C1135 1.419 . S
C1137 C1138 1.362 . S
C1138 H1130 0.930 . S
C1138 C1137 1.362 . S
C1138 C1141 1.409 . S
C1139 H1131 0.930 . S
C1139 C1140 1.355 . S
C1139 C1141 1.415 . S
C1140 C1139 1.355 . S
C1140 C1142 1.419 . S
C1141 C1136 1.425 . S
C1141 C1138 1.409 . S
C1141 C1139 1.415 . S
C1142 H1132 0.930 . S
C1142 C1140 1.419 . S
C1142 C1143 1.362 . S
C1143 H1133 0.930 . S
C1143 C1136 1.409 . S
C1143 C1142 1.362 . S
H1144 C1150 0.930 . S
H1145 C1153 0.930 . S
H1146 C1154 0.930 . S
H1147 C1155 0.930 . S
H1148 C1158 0.930 . S
H1149 C1159 0.930 . S
C1150 H1144 0.930 . S
C1150 C1151 1.355 . S
C1150 C1152 1.415 . S
C1151 C1150 1.355 . S
C1151 C1153 1.419 . S
C1152 C1150 1.415 . S
C1152 C1157 1.425 . S
C1152 C1159 1.409 . S
C1153 H1145 0.930 . S
C1153 C1151 1.419 . S
C1153 C1154 1.362 . S
C1154 H1146 0.930 . S
C1154 C1153 1.362 . S
C1154 C1157 1.409 . S
C1155 H1147 0.930 . S
C1155 C1156 1.355 . S
C1155 C1157 1.415 . S
C1156 C1155 1.355 . S
C1156 C1158 1.419 . S
C1157 C1152 1.425 . S
C1157 C1154 1.409 . S
C1157 C1155 1.415 . S
C1158 H1148 0.930 . S
C1158 C1156 1.419 . S
C1158 C1159 1.362 . S
C1159 H1149 0.930 . S
C1159 C1152 1.409 . S
C1159 C1158 1.362 . S
H1160 C1166 0.930 . S
H1161 C1169 0.930 . S
H1162 C1170 0.930 . S
H1163 C1171 0.930 . S
H1164 C1174 0.930 . S
H1165 C1175 0.930 . S
C1166 H1160 0.930 . S
C1166 C1167 1.355 . S
C1166 C1168 1.415 . S
C1167 C1166 1.355 . S
C1167 C1169 1.419 . S
C1168 C1166 1.415 . S
C1168 C1173 1.425 . S
C1168 C1175 1.409 . S
C1169 H1161 0.930 . S
C1169 C1167 1.419 . S
C1169 C1170 1.362 . S
C1170 H1162 0.930 . S
C1170 C1169 1.362 . S
C1170 C1173 1.409 . S
C1171 H1163 0.930 . S
C1171 C1172 1.355 . S
C1171 C1173 1.415 . S
C1172 C1171 1.355 . S
C1172 C1174 1.419 . S
C1173 C1168 1.425 . S
C1173 C1170 1.409 . S
C1173 C1171 1.415 . S
C1174 H1164 0.930 . S
C1174 C1172 1.419 . S
C1174 C1175 1.362 . S
C1175 H1165 0.930 . S
C1175 C1168 1.409 . S
C1175 C1174 1.362 . S
H1176 C1182 0.930 . S
H1177 C1185 0.930 . S
H1178 C1186 0.930 . S
H1179 C1187 0.930 . S
H1180 C1190 0.930 . S
H1181 C1191 0.930 . S
C1182 H1176 0.930 . S
C1182 C1183 1.355 . S
C1182 C1184 1.415 . S
C1183 C1182 1.355 . S
C1183 C1185 1.419 . S
C1184 C1182 1.415 . S
C1184 C1189 1.425 . S
C1184 C1191 1.409 . S
C1185 H1177 0.930 . S
C1185 C1183 1.419 . S
C1185 C1186 1.362 . S
C1186 H1178 0.930 . S
C1186 C1185 1.362 . S
C1186 C1189 1.409 . S
C1187 H1179 0.930 . S
C1187 C1188 1.355 . S
C1187 C1189 1.415 . S
C1188 C1187 1.355 . S
C1188 C1190 1.419 . S
C1189 C1184 1.425 . S
C1189 C1186 1.409 . S
C1189 C1187 1.415 . S
C1190 H1180 0.930 . S
C1190 C1188 1.419 . S
C1190 C1191 1.362 . S
C1191 H1181 0.930 . S
C1191 C1184 1.409 . S
C1191 C1190 1.362 . S
H1192 C1198 0.930 . S
H1193 C1201 0.930 . S
H1194 C1202 0.930 . S
H1195 C1203 0.930 . S
H1196 C1206 0.930 . S
H1197 C1207 0.930 . S
C1198 H1192 0.930 . S
C1198 C1199 1.355 . S
C1198 C1200 1.415 . S
C1199 C1198 1.355 . S
C1199 C1201 1.419 . S
C1200 C1198 1.415 . S
C1200 C1205 1.425 . S
C1200 C1207 1.409 . S
C1201 H1193 0.930 . S
C1201 C1199 1.419 . S
C1201 C1202 1.362 . S
C1202 H1194 0.930 . S
C1202 C1201 1.362 . S
C1202 C1205 1.409 . S
C1203 H1195 0.930 . S
C1203 C1204 1.355 . S
C1203 C1205 1.415 . S
C1204 C1203 1.355 . S
C1204 C1206 1.419 . S
C1205 C1200 1.425 . S
C1205 C1202 1.409 . S
C1205 C1203 1.415 . S
C1206 H1196 0.930 . S
C1206 C1204 1.419 . S
C1206 C1207 1.362 . S
C1207 H1197 0.930 . S
C1207 C1200 1.409 . S
C1207 C1206 1.362 . S
H1208 C1214 0.930 . S
H1209 C1217 0.930 . S
H1210 C1218 0.930 . S
H1211 C1219 0.930 . S
H1212 C1222 0.930 . S
H1213 C1223 0.930 . S
C1214 H1208 0.930 . S
C1214 C1215 1.355 . S
C1214 C1216 1.415 . S
C1215 C1214 1.355 . S
C1215 C1217 1.419 . S
C1216 C1214 1.415 . S
C1216 C1221 1.425 . S
C1216 C1223 1.409 . S
C1217 H1209 0.930 . S
C1217 C1215 1.419 . S
C1217 C1218 1.362 . S
C1218 H1210 0.930 . S
C1218 C1217 1.362 . S
C1218 C1221 1.409 . S
C1219 H1211 0.930 . S
C1219 C1220 1.355 . S
C1219 C1221 1.415 . S
C1220 C1219 1.355 . S
C1220 C1222 1.419 . S
C1221 C1216 1.425 . S
C1221 C1218 1.409 . S
C1221 C1219 1.415 . S
C1222 H1212 0.930 . S
C1222 C1220 1.419 . S
C1222 C1223 1.362 . S
C1223 H1213 0.930 . S
C1223 C1216 1.409 . S
C1223 C1222 1.362 . S
H1224 C1230 0.930 . S
H1225 C1233 0.930 . S
H1226 C1234 0.930 . S
H1227 C1235 0.930 . S
H1228 C1238 0.930 . S
H1229 C1239 0.930 . S
C1230 H1224 0.930 . S
C1230 C1231 1.355 . S
C1230 C1232 1.415 . S
C1231 C1230 1.355 . S
C1231 C1233 1.419 . S
C1232 C1230 1.415 . S
C1232 C1237 1.425 . S
C1232 C1239 1.409 . S
C1233 H1225 0.930 . S
C1233 C1231 1.419 . S
C1233 C1234 1.362 . S
C1234 H1226 0.930 . S
C1234 C1233 1.362 . S
C1234 C1237 1.409 . S
C1235 H1227 0.930 . S
C1235 C1236 1.355 . S
C1235 C1237 1.415 . S
C1236 C1235 1.355 . S
C1236 C1238 1.419 . S
C1237 C1232 1.425 . S
C1237 C1234 1.409 . S
C1237 C1235 1.415 . S
C1238 H1228 0.930 . S
C1238 C1236 1.419 . S
C1238 C1239 1.362 . S
C1239 H1229 0.930 . S
C1239 C1232 1.409 . S
C1239 C1238 1.362 . S
H1240 C1246 0.930 . S
H1241 C1249 0.930 . S
H1242 C1250 0.930 . S
H1243 C1251 0.930 . S
H1244 C1254 0.930 . S
H1245 C1255 0.930 . S
C1246 H1240 0.930 . S
C1246 C1247 1.355 . S
C1246 C1248 1.415 . S
C1247 C1246 1.355 . S
C1247 C1249 1.419 . S
C1248 C1246 1.415 . S
C1248 C1253 1.425 . S
C1248 C1255 1.409 . S
C1249 H1241 0.930 . S
C1249 C1247 1.419 . S
C1249 C1250 1.362 . S
C1250 H1242 0.930 . S
C1250 C1249 1.362 . S
C1250 C1253 1.409 . S
C1251 H1243 0.930 . S
C1251 C1252 1.355 . S
C1251 C1253 1.415 . S
C1252 C1251 1.355 . S
C1252 C1254 1.419 . S
C1253 C1248 1.425 . S
C1253 C1250 1.409 . S
C1253 C1251 1.415 . S
C1254 H1244 0.930 . S
C1254 C1252 1.419 . S
C1254 C1255 1.362 . S
C1255 H1245 0.930 . S
C1255 C1248 1.409 . S
C1255 C1254 1.362 . S
H1256 C1262 0.930 . S
H1257 C1265 0.930 . S
H1258 C1266 0.930 . S
H1259 C1267 0.930 . S
H1260 C1270 0.930 . S
H1261 C1271 0.930 . S
C1262 H1256 0.930 . S
C1262 C1263 1.355 . S
C1262 C1264 1.415 . S
C1263 C1262 1.355 . S
C1263 C1265 1.419 . S
C1264 C1262 1.415 . S
C1264 C1269 1.425 . S
C1264 C1271 1.409 . S
C1265 H1257 0.930 . S
C1265 C1263 1.419 . S
C1265 C1266 1.362 . S
C1266 H1258 0.930 . S
C1266 C1265 1.362 . S
C1266 C1269 1.409 . S
C1267 H1259 0.930 . S
C1267 C1268 1.355 . S
C1267 C1269 1.415 . S
C1268 C1267 1.355 . S
C1268 C1270 1.419 . S
C1269 C1264 1.425 . S
C1269 C1266 1.409 . S
C1269 C1267 1.415 . S
C1270 H1260 0.930 . S
C1270 C1268 1.419 . S
C1270 C1271 1.362 . S
C1271 H1261 0.930 . S
C1271 C1264 1.409 . S
C1271 C1270 1.362 . S
H1272 C1278 0.930 . S
H1273 C1281 0.930 . S
H1274 C1282 0.930 . S
H1275 C1283 0.930 . S
H1276 C1286 0.930 . S
H1277 C1287 0.930 . S
C1278 H1272 0.930 . S
C1278 C1279 1.355 . S
C1278 C1280 1.415 . S
C1279 C1278 1.355 . S
C1279 C1281 1.419 1_655 S
C1280 C1278 1.415 . S
C1280 C1285 1.425 1_655 S
C1280 C1287 1.409 . S
C1281 H1273 0.930 . S
C1281 C1279 1.419 1_455 S
C1281 C1282 1.362 . S
C1282 H1274 0.930 . S
C1282 C1281 1.362 . S
C1282 C1285 1.409 . S
C1283 H1275 0.930 . S
C1283 C1284 1.355 . S
C1283 C1285 1.415 . S
C1284 C1283 1.355 . S
C1284 C1286 1.419 1_455 S
C1285 C1280 1.425 1_455 S
C1285 C1282 1.409 . S
C1285 C1283 1.415 . S
C1286 H1276 0.930 . S
C1286 C1284 1.419 1_655 S
C1286 C1287 1.362 . S
C1287 H1277 0.930 . S
C1287 C1280 1.409 . S
C1287 C1286 1.362 . S
H1288 C1294 0.937 . S
H1289 C1297 0.930 . S
H1290 C1298 0.930 . S
H1291 C1299 0.937 . S
H1292 C1302 0.930 . S
H1293 C1303 0.930 . S
C1294 H1288 0.937 . S
C1294 C1295 1.343 1_545 S
C1294 C1296 1.419 . S
C1295 C1294 1.343 1_565 S
C1295 C1297 1.419 . S
C1296 C1294 1.419 . S
C1296 C1301 1.425 1_545 S
C1296 C1303 1.409 . S
C1297 H1289 0.930 . S
C1297 C1295 1.419 . S
C1297 C1298 1.362 . S
C1298 H1290 0.930 . S
C1298 C1297 1.362 . S
C1298 C1301 1.409 . S
C1299 H1291 0.937 . S
C1299 C1300 1.343 1_565 S
C1299 C1301 1.419 . S
C1300 C1299 1.343 1_545 S
C1300 C1302 1.419 . S
C1301 C1296 1.425 1_565 S
C1301 C1298 1.409 . S
C1301 C1299 1.419 . S
C1302 H1292 0.930 . S
C1302 C1300 1.419 . S
C1302 C1303 1.362 . S
C1303 H1293 0.930 . S
C1303 C1296 1.409 . S
C1303 C1302 1.362 . S
H1304 C1310 0.930 . S
H1305 C1313 0.930 . S
H1306 C1314 0.930 . S
H1307 C1315 0.930 . S
H1308 C1318 0.930 . S
H1309 C1319 0.930 . S
C1310 H1304 0.930 . S
C1310 C1311 1.355 . S
C1310 C1312 1.415 . S
C1311 C1310 1.355 . S
C1311 C1313 1.419 1_655 S
C1312 C1310 1.415 . S
C1312 C1317 1.425 1_655 S
C1312 C1319 1.409 . S
C1313 H1305 0.930 . S
C1313 C1311 1.419 1_455 S
C1313 C1314 1.362 . S
C1314 H1306 0.930 . S
C1314 C1313 1.362 . S
C1314 C1317 1.409 . S
C1315 H1307 0.930 . S
C1315 C1316 1.355 . S
C1315 C1317 1.415 . S
C1316 C1315 1.355 . S
C1316 C1318 1.419 1_455 S
C1317 C1312 1.425 1_455 S
C1317 C1314 1.409 . S
C1317 C1315 1.415 . S
C1318 H1308 0.930 . S
C1318 C1316 1.419 1_655 S
C1318 C1319 1.362 . S
C1319 H1309 0.930 . S
C1319 C1312 1.409 . S
C1319 C1318 1.362 . S
H1320 C1326 0.943 . S
H1321 C1329 0.930 . S
H1322 C1330 0.930 . S
H1323 C1331 0.943 . S
H1324 C1334 0.930 . S
H1325 C1335 0.930 . S
C1326 H1320 0.943 . S
C1326 C1327 1.355 . S
C1326 C1328 1.415 1_565 S
C1327 C1326 1.355 . S
C1327 C1329 1.419 . S
C1328 C1326 1.415 1_545 S
C1328 C1333 1.425 1_545 S
C1328 C1335 1.409 . S
C1329 H1321 0.930 . S
C1329 C1327 1.419 . S
C1329 C1330 1.362 . S
C1330 H1322 0.930 . S
C1330 C1329 1.362 . S
C1330 C1333 1.409 . S
C1331 H1323 0.943 . S
C1331 C1332 1.355 . S
C1331 C1333 1.415 1_545 S
C1332 C1331 1.355 . S
C1332 C1334 1.419 . S
C1333 C1328 1.425 1_565 S
C1333 C1330 1.409 . S
C1333 C1331 1.415 1_565 S
C1334 H1324 0.930 . S
C1334 C1332 1.419 . S
C1334 C1335 1.362 . S
C1335 H1325 0.930 . S
C1335 C1328 1.409 . S
C1335 C1334 1.362 . S
H1336 C1342 0.930 . S
H1337 C1345 0.930 . S
H1338 C1346 0.930 . S
H1339 C1347 0.930 . S
H1340 C1350 0.930 . S
H1341 C1351 0.930 . S
C1342 H1336 0.930 . S
C1342 C1343 1.355 . S
C1342 C1344 1.412 1_565 S
C1343 C1342 1.355 . S
C1343 C1345 1.419 . S
C1344 C1342 1.412 1_545 S
C1344 C1349 1.425 1_545 S
C1344 C1351 1.412 . S
C1345 H1337 0.930 . S
C1345 C1343 1.419 . S
C1345 C1346 1.362 . S
C1346 H1338 0.930 . S
C1346 C1345 1.362 . S
C1346 C1349 1.412 . S
C1347 H1339 0.930 . S
C1347 C1348 1.355 . S
C1347 C1349 1.412 1_545 S
C1348 C1347 1.355 . S
C1348 C1350 1.419 . S
C1349 C1344 1.425 1_565 S
C1349 C1346 1.412 . S
C1349 C1347 1.412 1_565 S
C1350 H1340 0.930 . S
C1350 C1348 1.419 . S
C1350 C1351 1.362 . S
C1351 H1341 0.930 . S
C1351 C1344 1.412 . S
C1351 C1350 1.362 . S
H1352 C1358 0.930 . S
H1353 C1361 0.930 . S
H1354 C1362 0.930 . S
H1355 C1363 0.930 . S
H1356 C1366 0.930 . S
H1357 C1367 0.930 . S
C1358 H1352 0.930 . S
C1358 C1359 1.355 . S
C1358 C1360 1.415 . S
C1359 C1358 1.355 . S
C1359 C1361 1.419 . S
C1360 C1358 1.415 . S
C1360 C1365 1.425 1_655 S
C1360 C1367 1.409 . S
C1361 H1353 0.930 . S
C1361 C1359 1.419 . S
C1361 C1362 1.362 1_655 S
C1362 H1354 0.930 . S
C1362 C1361 1.362 1_455 S
C1362 C1365 1.409 . S
C1363 H1355 0.930 . S
C1363 C1364 1.355 . S
C1363 C1365 1.415 . S
C1364 C1363 1.355 . S
C1364 C1366 1.419 . S
C1365 C1360 1.425 1_455 S
C1365 C1362 1.409 . S
C1365 C1363 1.415 . S
C1366 H1356 0.930 . S
C1366 C1364 1.419 . S
C1366 C1367 1.362 1_455 S
C1367 H1357 0.930 . S
C1367 C1360 1.409 . S
C1367 C1366 1.362 1_655 S
H1368 C1374 0.930 . S
H1369 C1377 0.930 . S
H1370 C1378 0.930 . S
H1371 C1379 0.930 . S
H1372 C1382 0.930 . S
H1373 C1383 0.930 . S
C1374 H1368 0.930 . S
C1374 C1375 1.355 . S
C1374 C1376 1.415 . S
C1375 C1374 1.355 . S
C1375 C1377 1.419 1_565 S
C1376 C1374 1.415 . S
C1376 C1381 1.425 1_565 S
C1376 C1383 1.409 . S
C1377 H1369 0.930 . S
C1377 C1375 1.419 1_545 S
C1377 C1378 1.362 . S
C1378 H1370 0.930 . S
C1378 C1377 1.362 . S
C1378 C1381 1.409 . S
C1379 H1371 0.930 . S
C1379 C1380 1.355 . S
C1379 C1381 1.415 . S
C1380 C1379 1.355 . S
C1380 C1382 1.419 1_545 S
C1381 C1376 1.425 1_545 S
C1381 C1378 1.409 . S
C1381 C1379 1.415 . S
C1382 H1372 0.930 . S
C1382 C1380 1.419 1_565 S
C1382 C1383 1.362 . S
C1383 H1373 0.930 . S
C1383 C1376 1.409 . S
C1383 C1382 1.362 . S
H1384 C1390 0.930 . S
H1385 C1393 0.930 . S
H1386 C1394 0.930 . S
H1387 C1395 0.930 . S
H1388 C1398 0.930 . S
H1389 C1399 0.930 . S
C1390 H1384 0.930 . S
C1390 C1391 1.355 . S
C1390 C1392 1.415 . S
C1391 C1390 1.355 . S
C1391 C1393 1.419 1_655 S
C1392 C1390 1.415 . S
C1392 C1397 1.425 1_655 S
C1392 C1399 1.409 . S
C1393 H1385 0.930 . S
C1393 C1391 1.419 1_455 S
C1393 C1394 1.362 . S
C1394 H1386 0.930 . S
C1394 C1393 1.362 . S
C1394 C1397 1.409 . S
C1395 H1387 0.930 . S
C1395 C1396 1.355 . S
C1395 C1397 1.415 . S
C1396 C1395 1.355 . S
C1396 C1398 1.419 1_455 S
C1397 C1392 1.425 1_455 S
C1397 C1394 1.409 . S
C1397 C1395 1.415 . S
C1398 H1388 0.930 . S
C1398 C1396 1.419 1_655 S
C1398 C1399 1.362 . S
C1399 H1389 0.930 . S
C1399 C1392 1.409 . S
C1399 C1398 1.362 . S
H1400 C1406 0.930 . S
H1401 C1409 0.930 . S
H1402 C1410 0.930 . S
H1403 C1411 0.930 . S
H1404 C1414 0.930 . S
H1405 C1415 0.930 . S
C1406 H1400 0.930 . S
C1406 C1407 1.355 . S
C1406 C1408 1.415 . S
C1407 C1406 1.355 . S
C1407 C1409 1.419 1_556 S
C1408 C1406 1.415 . S
C1408 C1413 1.425 1_556 S
C1408 C1415 1.409 . S
C1409 H1401 0.930 . S
C1409 C1407 1.419 1_554 S
C1409 C1410 1.362 . S
C1410 H1402 0.930 . S
C1410 C1409 1.362 . S
C1410 C1413 1.409 . S
C1411 H1403 0.930 . S
C1411 C1412 1.355 . S
C1411 C1413 1.415 . S
C1412 C1411 1.355 . S
C1412 C1414 1.419 1_554 S
C1413 C1408 1.425 1_554 S
C1413 C1410 1.409 . S
C1413 C1411 1.415 . S
C1414 H1404 0.930 . S
C1414 C1412 1.419 1_556 S
C1414 C1415 1.362 . S
C1415 H1405 0.930 . S
C1415 C1408 1.409 . S
C1415 C1414 1.362 . S
H1416 C1422 0.935 . S
H1417 C1425 0.930 . S
H1418 C1426 0.930 . S
H1419 C1427 0.935 . S
H1420 C1430 0.930 . S
H1421 C1431 0.930 . S
C1422 H1416 0.935 . S
C1422 C1423 1.347 1_554 S
C1422 C1424 1.417 . S
C1423 C1422 1.347 1_556 S
C1423 C1425 1.419 . S
C1424 C1422 1.417 . S
C1424 C1429 1.425 1_554 S
C1424 C1431 1.409 . S
C1425 H1417 0.930 . S
C1425 C1423 1.419 . S
C1425 C1426 1.362 . S
C1426 H1418 0.930 . S
C1426 C1425 1.362 . S
C1426 C1429 1.409 . S
C1427 H1419 0.935 . S
C1427 C1428 1.347 1_556 S
C1427 C1429 1.417 . S
C1428 C1427 1.347 1_554 S
C1428 C1430 1.419 . S
C1429 C1424 1.425 1_556 S
C1429 C1426 1.409 . S
C1429 C1427 1.417 . S
C1430 H1420 0.930 . S
C1430 C1428 1.419 . S
C1430 C1431 1.362 . S
C1431 H1421 0.930 . S
C1431 C1424 1.409 . S
C1431 C1430 1.362 . S
H1432 C1438 0.923 1_554 S
H1433 C1441 0.930 . S
H1434 C1442 0.930 . S
H1435 C1443 0.923 1_556 S
H1436 C1446 0.930 . S
H1437 C1447 0.930 . S
C1438 H1432 0.923 1_556 S
C1438 C1439 1.355 . S
C1438 C1440 1.415 1_556 S
C1439 C1438 1.355 . S
C1439 C1441 1.419 . S
C1440 C1438 1.415 1_554 S
C1440 C1445 1.425 1_554 S
C1440 C1447 1.409 . S
C1441 H1433 0.930 . S
C1441 C1439 1.419 . S
C1441 C1442 1.362 . S
C1442 H1434 0.930 . S
C1442 C1441 1.362 . S
C1442 C1445 1.409 . S
C1443 H1435 0.923 1_554 S
C1443 C1444 1.355 . S
C1443 C1445 1.415 1_554 S
C1444 C1443 1.355 . S
C1444 C1446 1.419 . S
C1445 C1440 1.425 1_556 S
C1445 C1442 1.409 . S
C1445 C1443 1.415 1_556 S
C1446 H1436 0.930 . S
C1446 C1444 1.419 . S
C1446 C1447 1.362 . S
C1447 H1437 0.930 . S
C1447 C1440 1.409 . S
C1447 C1446 1.362 . S
H1448 C1454 0.930 1_554 S
H1449 C1457 0.930 . S
H1450 C1458 0.930 . S
H1451 C1459 0.930 1_556 S
H1452 C1462 0.930 . S
H1453 C1463 0.930 . S
C1454 H1448 0.930 1_556 S
C1454 C1455 1.355 . S
C1454 C1456 1.415 1_556 S
C1455 C1454 1.355 . S
C1455 C1457 1.419 . S
C1456 C1454 1.415 1_554 S
C1456 C1461 1.425 1_554 S
C1456 C1463 1.409 . S
C1457 H1449 0.930 . S
C1457 C1455 1.419 . S
C1457 C1458 1.362 . S
C1458 H1450 0.930 . S
C1458 C1457 1.362 . S
C1458 C1461 1.409 . S
C1459 H1451 0.930 1_554 S
C1459 C1460 1.355 . S
C1459 C1461 1.415 1_554 S
C1460 C1459 1.355 . S
C1460 C1462 1.419 . S
C1461 C1456 1.425 1_556 S
C1461 C1458 1.409 . S
C1461 C1459 1.415 1_556 S
C1462 H1452 0.930 . S
C1462 C1460 1.419 . S
C1462 C1463 1.362 . S
C1463 H1453 0.930 . S
C1463 C1456 1.409 . S
C1463 C1462 1.362 . S
H1464 C1470 0.930 . S
H1465 C1473 0.930 . S
H1466 C1474 0.930 . S
H1467 C1475 0.930 . S
H1468 C1478 0.930 . S
H1469 C1479 0.930 . S
C1470 H1464 0.930 . S
C1470 C1471 1.355 . S
C1470 C1472 1.415 . S
C1471 C1470 1.355 . S
C1471 C1473 1.419 . S
C1472 C1470 1.415 . S
C1472 C1477 1.425 . S
C1472 C1479 1.409 . S
C1473 H1465 0.930 . S
C1473 C1471 1.419 . S
C1473 C1474 1.362 . S
C1474 H1466 0.930 . S
C1474 C1473 1.362 . S
C1474 C1477 1.409 . S
C1475 H1467 0.930 . S
C1475 C1476 1.355 . S
C1475 C1477 1.415 . S
C1476 C1475 1.355 . S
C1476 C1478 1.419 . S
C1477 C1472 1.425 . S
C1477 C1474 1.409 . S
C1477 C1475 1.415 . S
C1478 H1468 0.930 . S
C1478 C1476 1.419 . S
C1478 C1479 1.362 . S
C1479 H1469 0.930 . S
C1479 C1472 1.409 . S
C1479 C1478 1.362 . S
H1480 C1486 0.930 . S
H1481 C1489 0.930 . S
H1482 C1490 0.930 . S
H1483 C1491 0.930 . S
H1484 C1494 0.930 . S
H1485 C1495 0.930 . S
C1486 H1480 0.930 . S
C1486 C1487 1.355 . S
C1486 C1488 1.415 . S
C1487 C1486 1.355 . S
C1487 C1489 1.419 . S
C1488 C1486 1.415 . S
C1488 C1493 1.425 . S
C1488 C1495 1.409 . S
C1489 H1481 0.930 . S
C1489 C1487 1.419 . S
C1489 C1490 1.362 . S
C1490 H1482 0.930 . S
C1490 C1489 1.362 . S
C1490 C1493 1.409 . S
C1491 H1483 0.930 . S
C1491 C1492 1.355 . S
C1491 C1493 1.415 . S
C1492 C1491 1.355 . S
C1492 C1494 1.419 . S
C1493 C1488 1.425 . S
C1493 C1490 1.409 . S
C1493 C1491 1.415 . S
C1494 H1484 0.930 . S
C1494 C1492 1.419 . S
C1494 C1495 1.362 . S
C1495 H1485 0.930 . S
C1495 C1488 1.409 . S
C1495 C1494 1.362 . S
H1496 C1502 0.930 . S
H1497 C1505 0.930 . S
H1498 C1506 0.930 . S
H1499 C1507 0.930 . S
H1500 C1510 0.930 . S
H1501 C1511 0.930 . S
C1502 H1496 0.930 . S
C1502 C1503 1.355 . S
C1502 C1504 1.415 . S
C1503 C1502 1.355 . S
C1503 C1505 1.419 . S
C1504 C1502 1.415 . S
C1504 C1509 1.425 . S
C1504 C1511 1.409 . S
C1505 H1497 0.930 . S
C1505 C1503 1.419 . S
C1505 C1506 1.362 . S
C1506 H1498 0.930 . S
C1506 C1505 1.362 . S
C1506 C1509 1.409 . S
C1507 H1499 0.930 . S
C1507 C1508 1.355 . S
C1507 C1509 1.415 . S
C1508 C1507 1.355 . S
C1508 C1510 1.419 . S
C1509 C1504 1.425 . S
C1509 C1506 1.409 . S
C1509 C1507 1.415 . S
C1510 H1500 0.930 . S
C1510 C1508 1.419 . S
C1510 C1511 1.362 . S
C1511 H1501 0.930 . S
C1511 C1504 1.409 . S
C1511 C1510 1.362 . S
H1512 C1518 0.930 . S
H1513 C1521 0.930 . S
H1514 C1522 0.930 . S
H1515 C1523 0.930 . S
H1516 C1526 0.930 . S
H1517 C1527 0.930 . S
C1518 H1512 0.930 . S
C1518 C1519 1.355 . S
C1518 C1520 1.415 . S
C1519 C1518 1.355 . S
C1519 C1521 1.419 . S
C1520 C1518 1.415 . S
C1520 C1525 1.425 . S
C1520 C1527 1.409 . S
C1521 H1513 0.930 . S
C1521 C1519 1.419 . S
C1521 C1522 1.362 . S
C1522 H1514 0.930 . S
C1522 C1521 1.362 . S
C1522 C1525 1.409 . S
C1523 H1515 0.930 . S
C1523 C1524 1.355 . S
C1523 C1525 1.415 . S
C1524 C1523 1.355 . S
C1524 C1526 1.419 . S
C1525 C1520 1.425 . S
C1525 C1522 1.409 . S
C1525 C1523 1.415 . S
C1526 H1516 0.930 . S
C1526 C1524 1.419 . S
C1526 C1527 1.362 . S
C1527 H1517 0.930 . S
C1527 C1520 1.409 . S
C1527 C1526 1.362 . S
H1528 C1534 0.930 . S
H1529 C1537 0.930 . S
H1530 C1538 0.930 . S
H1531 C1539 0.930 . S
H1532 C1542 0.930 . S
H1533 C1543 0.930 . S
C1534 H1528 0.930 . S
C1534 C1535 1.355 . S
C1534 C1536 1.415 . S
C1535 C1534 1.355 . S
C1535 C1537 1.419 . S
C1536 C1534 1.415 . S
C1536 C1541 1.425 . S
C1536 C1543 1.409 . S
C1537 H1529 0.930 . S
C1537 C1535 1.419 . S
C1537 C1538 1.362 . S
C1538 H1530 0.930 . S
C1538 C1537 1.362 . S
C1538 C1541 1.409 . S
C1539 H1531 0.930 . S
C1539 C1540 1.355 . S
C1539 C1541 1.415 . S
C1540 C1539 1.355 . S
C1540 C1542 1.419 . S
C1541 C1536 1.425 . S
C1541 C1538 1.409 . S
C1541 C1539 1.415 . S
C1542 H1532 0.930 . S
C1542 C1540 1.419 . S
C1542 C1543 1.362 . S
C1543 H1533 0.930 . S
C1543 C1536 1.409 . S
C1543 C1542 1.362 . S
H1544 C1550 0.930 . S
H1545 C1553 0.930 . S
H1546 C1554 0.930 . S
H1547 C1555 0.930 . S
H1548 C1558 0.930 . S
H1549 C1559 0.930 . S
C1550 H1544 0.930 . S
C1550 C1551 1.355 . S
C1550 C1552 1.415 . S
C1551 C1550 1.355 . S
C1551 C1553 1.419 . S
C1552 C1550 1.415 . S
C1552 C1557 1.425 . S
C1552 C1559 1.409 . S
C1553 H1545 0.930 . S
C1553 C1551 1.419 . S
C1553 C1554 1.362 . S
C1554 H1546 0.930 . S
C1554 C1553 1.362 . S
C1554 C1557 1.409 . S
C1555 H1547 0.930 . S
C1555 C1556 1.355 . S
C1555 C1557 1.415 . S
C1556 C1555 1.355 . S
C1556 C1558 1.419 . S
C1557 C1552 1.425 . S
C1557 C1554 1.409 . S
C1557 C1555 1.415 . S
C1558 H1548 0.930 . S
C1558 C1556 1.419 . S
C1558 C1559 1.362 . S
C1559 H1549 0.930 . S
C1559 C1552 1.409 . S
C1559 C1558 1.362 . S
H1560 C1566 0.930 . S
H1561 C1569 0.930 . S
H1562 C1570 0.930 . S
H1563 C1571 0.930 . S
H1564 C1574 0.930 . S
H1565 C1575 0.930 . S
C1566 H1560 0.930 . S
C1566 C1567 1.355 . S
C1566 C1568 1.415 . S
C1567 C1566 1.355 . S
C1567 C1569 1.419 . S
C1568 C1566 1.415 . S
C1568 C1573 1.425 . S
C1568 C1575 1.409 . S
C1569 H1561 0.930 . S
C1569 C1567 1.419 . S
C1569 C1570 1.362 . S
C1570 H1562 0.930 . S
C1570 C1569 1.362 . S
C1570 C1573 1.409 . S
C1571 H1563 0.930 . S
C1571 C1572 1.355 . S
C1571 C1573 1.415 . S
C1572 C1571 1.355 . S
C1572 C1574 1.419 . S
C1573 C1568 1.425 . S
C1573 C1570 1.409 . S
C1573 C1571 1.415 . S
C1574 H1564 0.930 . S
C1574 C1572 1.419 . S
C1574 C1575 1.362 . S
C1575 H1565 0.930 . S
C1575 C1568 1.409 . S
C1575 C1574 1.362 . S
H1576 C1582 0.930 . S
H1577 C1585 0.930 . S
H1578 C1586 0.930 . S
H1579 C1587 0.930 . S
H1580 C1590 0.930 . S
H1581 C1591 0.930 . S
C1582 H1576 0.930 . S
C1582 C1583 1.355 . S
C1582 C1584 1.415 . S
C1583 C1582 1.355 . S
C1583 C1585 1.419 . S
C1584 C1582 1.415 . S
C1584 C1589 1.425 . S
C1584 C1591 1.409 . S
C1585 H1577 0.930 . S
C1585 C1583 1.419 . S
C1585 C1586 1.362 . S
C1586 H1578 0.930 . S
C1586 C1585 1.362 . S
C1586 C1589 1.409 . S
C1587 H1579 0.930 . S
C1587 C1588 1.355 . S
C1587 C1589 1.415 . S
C1588 C1587 1.355 . S
C1588 C1590 1.419 . S
C1589 C1584 1.425 . S
C1589 C1586 1.409 . S
C1589 C1587 1.415 . S
C1590 H1580 0.930 . S
C1590 C1588 1.419 . S
C1590 C1591 1.362 . S
C1591 H1581 0.930 . S
C1591 C1584 1.409 . S
C1591 C1590 1.362 . S
H1592 C1598 0.930 . S
H1593 C1601 0.930 . S
H1594 C1602 0.930 . S
H1595 C1603 0.930 . S
H1596 C1606 0.930 . S
H1597 C1607 0.930 . S
C1598 H1592 0.930 . S
C1598 C1599 1.355 . S
C1598 C1600 1.415 . S
C1599 C1598 1.355 . S
C1599 C1601 1.419 . S
C1600 C1598 1.415 . S
C1600 C1605 1.425 . S
C1600 C1607 1.409 . S
C1601 H1593 0.930 . S
C1601 C1599 1.419 . S
C1601 C1602 1.362 . S
C1602 H1594 0.930 . S
C1602 C1601 1.362 . S
C1602 C1605 1.409 . S
C1603 H1595 0.930 . S
C1603 C1604 1.355 . S
C1603 C1605 1.415 . S
C1604 C1603 1.355 . S
C1604 C1606 1.419 . S
C1605 C1600 1.425 . S
C1605 C1602 1.409 . S
C1605 C1603 1.415 . S
C1606 H1596 0.930 . S
C1606 C1604 1.419 . S
C1606 C1607 1.362 . S
C1607 H1597 0.930 . S
C1607 C1600 1.409 . S
C1607 C1606 1.362 . S
H1608 C1614 0.930 . S
H1609 C1617 0.930 . S
H1610 C1618 0.930 . S
H1611 C1619 0.930 . S
H1612 C1622 0.930 . S
H1613 C1623 0.930 . S
C1614 H1608 0.930 . S
C1614 C1615 1.355 . S
C1614 C1616 1.415 . S
C1615 C1614 1.355 . S
C1615 C1617 1.419 . S
C1616 C1614 1.415 . S
C1616 C1621 1.425 . S
C1616 C1623 1.409 . S
C1617 H1609 0.930 . S
C1617 C1615 1.419 . S
C1617 C1618 1.362 . S
C1618 H1610 0.930 . S
C1618 C1617 1.362 . S
C1618 C1621 1.409 . S
C1619 H1611 0.930 . S
C1619 C1620 1.355 . S
C1619 C1621 1.415 . S
C1620 C1619 1.355 . S
C1620 C1622 1.419 . S
C1621 C1616 1.425 . S
C1621 C1618 1.409 . S
C1621 C1619 1.415 . S
C1622 H1612 0.930 . S
C1622 C1620 1.419 . S
C1622 C1623 1.362 . S
C1623 H1613 0.930 . S
C1623 C1616 1.409 . S
C1623 C1622 1.362 . S
H1624 C1630 0.930 . S
H1625 C1633 0.930 . S
H1626 C1634 0.930 . S
H1627 C1635 0.930 . S
H1628 C1638 0.930 . S
H1629 C1639 0.930 . S
C1630 H1624 0.930 . S
C1630 C1631 1.355 . S
C1630 C1632 1.415 . S
C1631 C1630 1.355 . S
C1631 C1633 1.419 . S
C1632 C1630 1.415 . S
C1632 C1637 1.425 . S
C1632 C1639 1.409 . S
C1633 H1625 0.930 . S
C1633 C1631 1.419 . S
C1633 C1634 1.362 . S
C1634 H1626 0.930 . S
C1634 C1633 1.362 . S
C1634 C1637 1.409 . S
C1635 H1627 0.930 . S
C1635 C1636 1.355 . S
C1635 C1637 1.415 . S
C1636 C1635 1.355 . S
C1636 C1638 1.419 . S
C1637 C1632 1.425 . S
C1637 C1634 1.409 . S
C1637 C1635 1.415 . S
C1638 H1628 0.930 . S
C1638 C1636 1.419 . S
C1638 C1639 1.362 . S
C1639 H1629 0.930 . S
C1639 C1632 1.409 . S
C1639 C1638 1.362 . S
H1640 C1646 0.930 . S
H1641 C1649 0.930 . S
H1642 C1650 0.930 . S
H1643 C1651 0.930 . S
H1644 C1654 0.930 . S
H1645 C1655 0.930 . S
C1646 H1640 0.930 . S
C1646 C1647 1.355 . S
C1646 C1648 1.415 . S
C1647 C1646 1.355 . S
C1647 C1649 1.419 . S
C1648 C1646 1.415 . S
C1648 C1653 1.425 . S
C1648 C1655 1.409 . S
C1649 H1641 0.930 . S
C1649 C1647 1.419 . S
C1649 C1650 1.362 . S
C1650 H1642 0.930 . S
C1650 C1649 1.362 . S
C1650 C1653 1.409 . S
C1651 H1643 0.930 . S
C1651 C1652 1.355 . S
C1651 C1653 1.415 . S
C1652 C1651 1.355 . S
C1652 C1654 1.419 . S
C1653 C1648 1.425 . S
C1653 C1650 1.409 . S
C1653 C1651 1.415 . S
C1654 H1644 0.930 . S
C1654 C1652 1.419 . S
C1654 C1655 1.362 . S
C1655 H1645 0.930 . S
C1655 C1648 1.409 . S
C1655 C1654 1.362 . S
H1656 C1662 0.930 . S
H1657 C1665 0.930 . S
H1658 C1666 0.930 . S
H1659 C1667 0.930 . S
H1660 C1670 0.930 . S
H1661 C1671 0.930 . S
C1662 H1656 0.930 . S
C1662 C1663 1.355 . S
C1662 C1664 1.415 . S
C1663 C1662 1.355 . S
C1663 C1665 1.419 . S
C1664 C1662 1.415 . S
C1664 C1669 1.425 . S
C1664 C1671 1.409 . S
C1665 H1657 0.930 . S
C1665 C1663 1.419 . S
C1665 C1666 1.362 . S
C1666 H1658 0.930 . S
C1666 C1665 1.362 . S
C1666 C1669 1.409 . S
C1667 H1659 0.930 . S
C1667 C1668 1.355 . S
C1667 C1669 1.415 . S
C1668 C1667 1.355 . S
C1668 C1670 1.419 . S
C1669 C1664 1.425 . S
C1669 C1666 1.409 . S
C1669 C1667 1.415 . S
C1670 H1660 0.930 . S
C1670 C1668 1.419 . S
C1670 C1671 1.362 . S
C1671 H1661 0.930 . S
C1671 C1664 1.409 . S
C1671 C1670 1.362 . S
H1672 C1678 0.930 . S
H1673 C1681 0.930 . S
H1674 C1682 0.930 . S
H1675 C1683 0.930 . S
H1676 C1686 0.930 . S
H1677 C1687 0.930 . S
C1678 H1672 0.930 . S
C1678 C1679 1.355 . S
C1678 C1680 1.415 . S
C1679 C1678 1.355 . S
C1679 C1681 1.419 . S
C1680 C1678 1.415 . S
C1680 C1685 1.425 . S
C1680 C1687 1.409 . S
C1681 H1673 0.930 . S
C1681 C1679 1.419 . S
C1681 C1682 1.362 . S
C1682 H1674 0.930 . S
C1682 C1681 1.362 . S
C1682 C1685 1.409 . S
C1683 H1675 0.930 . S
C1683 C1684 1.355 . S
C1683 C1685 1.415 . S
C1684 C1683 1.355 . S
C1684 C1686 1.419 . S
C1685 C1680 1.425 . S
C1685 C1682 1.409 . S
C1685 C1683 1.415 . S
C1686 H1676 0.930 . S
C1686 C1684 1.419 . S
C1686 C1687 1.362 . S
C1687 H1677 0.930 . S
C1687 C1680 1.409 . S
C1687 C1686 1.362 . S
H1688 C1694 0.930 . S
H1689 C1697 0.930 . S
H1690 C1698 0.930 . S
H1691 C1699 0.930 . S
H1692 C1702 0.930 . S
H1693 C1703 0.930 . S
C1694 H1688 0.930 . S
C1694 C1695 1.355 . S
C1694 C1696 1.415 . S
C1695 C1694 1.355 . S
C1695 C1697 1.419 . S
C1696 C1694 1.415 . S
C1696 C1701 1.425 . S
C1696 C1703 1.409 . S
C1697 H1689 0.930 . S
C1697 C1695 1.419 . S
C1697 C1698 1.362 . S
C1698 H1690 0.930 . S
C1698 C1697 1.362 . S
C1698 C1701 1.409 . S
C1699 H1691 0.930 . S
C1699 C1700 1.355 . S
C1699 C1701 1.415 . S
C1700 C1699 1.355 . S
C1700 C1702 1.419 . S
C1701 C1696 1.425 . S
C1701 C1698 1.409 . S
C1701 C1699 1.415 . S
C1702 H1692 0.930 . S
C1702 C1700 1.419 . S
C1702 C1703 1.362 . S
C1703 H1693 0.930 . S
C1703 C1696 1.409 . S
C1703 C1702 1.362 . S
H1704 C1710 0.930 . S
H1705 C1713 0.930 . S
H1706 C1714 0.930 . S
H1707 C1715 0.930 . S
H1708 C1718 0.930 . S
H1709 C1719 0.930 . S
C1710 H1704 0.930 . S
C1710 C1711 1.355 . S
C1710 C1712 1.415 . S
C1711 C1710 1.355 . S
C1711 C1713 1.419 . S
C1712 C1710 1.415 . S
C1712 C1717 1.425 . S
C1712 C1719 1.409 . S
C1713 H1705 0.930 . S
C1713 C1711 1.419 . S
C1713 C1714 1.362 . S
C1714 H1706 0.930 . S
C1714 C1713 1.362 . S
C1714 C1717 1.409 . S
C1715 H1707 0.930 . S
C1715 C1716 1.355 . S
C1715 C1717 1.415 . S
C1716 C1715 1.355 . S
C1716 C1718 1.419 . S
C1717 C1712 1.425 . S
C1717 C1714 1.409 . S
C1717 C1715 1.415 . S
C1718 H1708 0.930 . S
C1718 C1716 1.419 . S
C1718 C1719 1.362 . S
C1719 H1709 0.930 . S
C1719 C1712 1.409 . S
C1719 C1718 1.362 . S
H1720 C1726 0.930 . S
H1721 C1729 0.930 . S
H1722 C1730 0.930 . S
H1723 C1731 0.930 . S
H1724 C1734 0.930 . S
H1725 C1735 0.930 . S
C1726 H1720 0.930 . S
C1726 C1727 1.355 . S
C1726 C1728 1.415 . S
C1727 C1726 1.355 . S
C1727 C1729 1.419 . S
C1728 C1726 1.415 . S
C1728 C1733 1.425 . S
C1728 C1735 1.409 . S
C1729 H1721 0.930 . S
C1729 C1727 1.419 . S
C1729 C1730 1.362 . S
C1730 H1722 0.930 . S
C1730 C1729 1.362 . S
C1730 C1733 1.409 . S
C1731 H1723 0.930 . S
C1731 C1732 1.355 . S
C1731 C1733 1.415 . S
C1732 C1731 1.355 . S
C1732 C1734 1.419 . S
C1733 C1728 1.425 . S
C1733 C1730 1.409 . S
C1733 C1731 1.415 . S
C1734 H1724 0.930 . S
C1734 C1732 1.419 . S
C1734 C1735 1.362 . S
C1735 H1725 0.930 . S
C1735 C1728 1.409 . S
C1735 C1734 1.362 . S
H1736 C1742 0.930 . S
H1737 C1745 0.930 . S
H1738 C1746 0.930 . S
H1739 C1747 0.930 . S
H1740 C1750 0.930 . S
H1741 C1751 0.930 . S
C1742 H1736 0.930 . S
C1742 C1743 1.355 . S
C1742 C1744 1.415 . S
C1743 C1742 1.355 . S
C1743 C1745 1.419 . S
C1744 C1742 1.415 . S
C1744 C1749 1.425 . S
C1744 C1751 1.409 . S
C1745 H1737 0.930 . S
C1745 C1743 1.419 . S
C1745 C1746 1.362 . S
C1746 H1738 0.930 . S
C1746 C1745 1.362 . S
C1746 C1749 1.409 . S
C1747 H1739 0.930 . S
C1747 C1748 1.355 . S
C1747 C1749 1.415 . S
C1748 C1747 1.355 . S
C1748 C1750 1.419 . S
C1749 C1744 1.425 . S
C1749 C1746 1.409 . S
C1749 C1747 1.415 . S
C1750 H1740 0.930 . S
C1750 C1748 1.419 . S
C1750 C1751 1.362 . S
C1751 H1741 0.930 . S
C1751 C1744 1.409 . S
C1751 C1750 1.362 . S
H1752 C1758 0.930 . S
H1753 C1761 0.930 . S
H1754 C1762 0.930 . S
H1755 C1763 0.930 . S
H1756 C1766 0.930 . S
H1757 C1767 0.930 . S
C1758 H1752 0.930 . S
C1758 C1759 1.355 . S
C1758 C1760 1.415 . S
C1759 C1758 1.355 . S
C1759 C1761 1.419 . S
C1760 C1758 1.415 . S
C1760 C1765 1.425 . S
C1760 C1767 1.409 . S
C1761 H1753 0.930 . S
C1761 C1759 1.419 . S
C1761 C1762 1.362 . S
C1762 H1754 0.930 . S
C1762 C1761 1.362 . S
C1762 C1765 1.409 . S
C1763 H1755 0.930 . S
C1763 C1764 1.355 . S
C1763 C1765 1.415 . S
C1764 C1763 1.355 . S
C1764 C1766 1.419 . S
C1765 C1760 1.425 . S
C1765 C1762 1.409 . S
C1765 C1763 1.415 . S
C1766 H1756 0.930 . S
C1766 C1764 1.419 . S
C1766 C1767 1.362 . S
C1767 H1757 0.930 . S
C1767 C1760 1.409 . S
C1767 C1766 1.362 . S
H1768 C1774 0.930 . S
H1769 C1777 0.930 . S
H1770 C1778 0.930 . S
H1771 C1779 0.930 . S
H1772 C1782 0.930 . S
H1773 C1783 0.930 . S
C1774 H1768 0.930 . S
C1774 C1775 1.355 . S
C1774 C1776 1.415 . S
C1775 C1774 1.355 . S
C1775 C1777 1.419 . S
C1776 C1774 1.415 . S
C1776 C1781 1.425 . S
C1776 C1783 1.409 . S
C1777 H1769 0.930 . S
C1777 C1775 1.419 . S
C1777 C1778 1.362 . S
C1778 H1770 0.930 . S
C1778 C1777 1.362 . S
C1778 C1781 1.409 . S
C1779 H1771 0.930 . S
C1779 C1780 1.355 . S
C1779 C1781 1.415 . S
C1780 C1779 1.355 . S
C1780 C1782 1.419 . S
C1781 C1776 1.425 . S
C1781 C1778 1.409 . S
C1781 C1779 1.415 . S
C1782 H1772 0.930 . S
C1782 C1780 1.419 . S
C1782 C1783 1.362 . S
C1783 H1773 0.930 . S
C1783 C1776 1.409 . S
C1783 C1782 1.362 . S
H1784 C1790 0.930 . S
H1785 C1793 0.930 . S
H1786 C1794 0.930 . S
H1787 C1795 0.930 . S
H1788 C1798 0.930 . S
H1789 C1799 0.930 . S
C1790 H1784 0.930 . S
C1790 C1791 1.355 . S
C1790 C1792 1.415 . S
C1791 C1790 1.355 . S
C1791 C1793 1.419 . S
C1792 C1790 1.415 . S
C1792 C1797 1.425 . S
C1792 C1799 1.409 . S
C1793 H1785 0.930 . S
C1793 C1791 1.419 . S
C1793 C1794 1.362 . S
C1794 H1786 0.930 . S
C1794 C1793 1.362 . S
C1794 C1797 1.409 . S
C1795 H1787 0.930 . S
C1795 C1796 1.355 . S
C1795 C1797 1.415 . S
C1796 C1795 1.355 . S
C1796 C1798 1.419 . S
C1797 C1792 1.425 . S
C1797 C1794 1.409 . S
C1797 C1795 1.415 . S
C1798 H1788 0.930 . S
C1798 C1796 1.419 . S
C1798 C1799 1.362 . S
C1799 H1789 0.930 . S
C1799 C1792 1.409 . S
C1799 C1798 1.362 . S
H1800 C1806 0.930 . S
H1801 C1809 0.930 . S
H1802 C1810 0.930 . S
H1803 C1811 0.930 . S
H1804 C1814 0.930 . S
H1805 C1815 0.930 . S
C1806 H1800 0.930 . S
C1806 C1807 1.355 . S
C1806 C1808 1.415 . S
C1807 C1806 1.355 . S
C1807 C1809 1.419 . S
C1808 C1806 1.415 . S
C1808 C1813 1.425 . S
C1808 C1815 1.409 . S
C1809 H1801 0.930 . S
C1809 C1807 1.419 . S
C1809 C1810 1.362 . S
C1810 H1802 0.930 . S
C1810 C1809 1.362 . S
C1810 C1813 1.409 . S
C1811 H1803 0.930 . S
C1811 C1812 1.355 . S
C1811 C1813 1.415 . S
C1812 C1811 1.355 . S
C1812 C1814 1.419 . S
C1813 C1808 1.425 . S
C1813 C1810 1.409 . S
C1813 C1811 1.415 . S
C1814 H1804 0.930 . S
C1814 C1812 1.419 . S
C1814 C1815 1.362 . S
C1815 H1805 0.930 . S
C1815 C1808 1.409 . S
C1815 C1814 1.362 . S
H1816 C1822 0.930 . S
H1817 C1825 0.930 . S
H1818 C1826 0.930 . S
H1819 C1827 0.930 . S
H1820 C1830 0.930 . S
H1821 C1831 0.930 . S
C1822 H1816 0.930 . S
C1822 C1823 1.355 . S
C1822 C1824 1.415 . S
C1823 C1822 1.355 . S
C1823 C1825 1.419 . S
C1824 C1822 1.415 . S
C1824 C1829 1.425 . S
C1824 C1831 1.409 . S
C1825 H1817 0.930 . S
C1825 C1823 1.419 . S
C1825 C1826 1.362 . S
C1826 H1818 0.930 . S
C1826 C1825 1.362 . S
C1826 C1829 1.409 . S
C1827 H1819 0.930 . S
C1827 C1828 1.355 . S
C1827 C1829 1.415 . S
C1828 C1827 1.355 . S
C1828 C1830 1.419 . S
C1829 C1824 1.425 . S
C1829 C1826 1.409 . S
C1829 C1827 1.415 . S
C1830 H1820 0.930 . S
C1830 C1828 1.419 . S
C1830 C1831 1.362 . S
C1831 H1821 0.930 . S
C1831 C1824 1.409 . S
C1831 C1830 1.362 . S
H1832 C1838 0.930 . S
H1833 C1841 0.930 . S
H1834 C1842 0.930 . S
H1835 C1843 0.930 . S
H1836 C1846 0.930 . S
H1837 C1847 0.930 . S
C1838 H1832 0.930 . S
C1838 C1839 1.355 . S
C1838 C1840 1.415 . S
C1839 C1838 1.355 . S
C1839 C1841 1.419 . S
C1840 C1838 1.415 . S
C1840 C1845 1.425 . S
C1840 C1847 1.409 . S
C1841 H1833 0.930 . S
C1841 C1839 1.419 . S
C1841 C1842 1.362 . S
C1842 H1834 0.930 . S
C1842 C1841 1.362 . S
C1842 C1845 1.409 . S
C1843 H1835 0.930 . S
C1843 C1844 1.355 . S
C1843 C1845 1.415 . S
C1844 C1843 1.355 . S
C1844 C1846 1.419 . S
C1845 C1840 1.425 . S
C1845 C1842 1.409 . S
C1845 C1843 1.415 . S
C1846 H1836 0.930 . S
C1846 C1844 1.419 . S
C1846 C1847 1.362 . S
C1847 H1837 0.930 . S
C1847 C1840 1.409 . S
C1847 C1846 1.362 . S
H1848 C1854 0.930 . S
H1849 C1857 0.930 . S
H1850 C1858 0.930 . S
H1851 C1859 0.930 . S
H1852 C1862 0.930 . S
H1853 C1863 0.930 . S
C1854 H1848 0.930 . S
C1854 C1855 1.355 . S
C1854 C1856 1.415 . S
C1855 C1854 1.355 . S
C1855 C1857 1.419 . S
C1856 C1854 1.415 . S
C1856 C1861 1.425 1_655 S
C1856 C1863 1.409 . S
C1857 H1849 0.930 . S
C1857 C1855 1.419 . S
C1857 C1858 1.362 1_655 S
C1858 H1850 0.930 . S
C1858 C1857 1.362 1_455 S
C1858 C1861 1.409 . S
C1859 H1851 0.930 . S
C1859 C1860 1.355 . S
C1859 C1861 1.415 . S
C1860 C1859 1.355 . S
C1860 C1862 1.419 . S
C1861 C1856 1.425 1_455 S
C1861 C1858 1.409 . S
C1861 C1859 1.415 . S
C1862 H1852 0.930 . S
C1862 C1860 1.419 . S
C1862 C1863 1.362 1_455 S
C1863 H1853 0.930 . S
C1863 C1856 1.409 . S
C1863 C1862 1.362 1_655 S
H1864 C1870 0.930 . S
H1865 C1873 0.930 . S
H1866 C1874 0.930 1_545 S
H1867 C1875 0.930 . S
H1868 C1878 0.930 . S
H1869 C1879 0.930 1_565 S
C1870 H1864 0.930 . S
C1870 C1871 1.355 . S
C1870 C1872 1.415 . S
C1871 C1870 1.355 . S
C1871 C1873 1.419 . S
C1872 C1870 1.415 . S
C1872 C1877 1.425 1_565 S
C1872 C1879 1.409 1_565 S
C1873 H1865 0.930 . S
C1873 C1871 1.419 . S
C1873 C1874 1.362 . S
C1874 H1866 0.930 1_565 S
C1874 C1873 1.362 . S
C1874 C1877 1.409 1_565 S
C1875 H1867 0.930 . S
C1875 C1876 1.355 . S
C1875 C1877 1.415 . S
C1876 C1875 1.355 . S
C1876 C1878 1.419 . S
C1877 C1872 1.425 1_545 S
C1877 C1874 1.409 1_545 S
C1877 C1875 1.415 . S
C1878 H1868 0.930 . S
C1878 C1876 1.419 . S
C1878 C1879 1.362 . S
C1879 H1869 0.930 1_545 S
C1879 C1872 1.409 1_545 S
C1879 C1878 1.362 . S
H1880 C1886 0.930 . S
H1881 C1889 0.930 . S
H1882 C1890 0.930 . S
H1883 C1891 0.930 . S
H1884 C1894 0.930 . S
H1885 C1895 0.930 . S
C1886 H1880 0.930 . S
C1886 C1887 1.355 . S
C1886 C1888 1.415 1_655 S
C1887 C1886 1.355 . S
C1887 C1889 1.419 . S
C1888 C1886 1.415 1_455 S
C1888 C1893 1.425 1_455 S
C1888 C1895 1.409 . S
C1889 H1881 0.930 . S
C1889 C1887 1.419 . S
C1889 C1890 1.362 . S
C1890 H1882 0.930 . S
C1890 C1889 1.362 . S
C1890 C1893 1.409 . S
C1891 H1883 0.930 . S
C1891 C1892 1.355 . S
C1891 C1893 1.415 1_455 S
C1892 C1891 1.355 . S
C1892 C1894 1.419 . S
C1893 C1888 1.425 1_655 S
C1893 C1890 1.409 . S
C1893 C1891 1.415 1_655 S
C1894 H1884 0.930 . S
C1894 C1892 1.419 . S
C1894 C1895 1.362 . S
C1895 H1885 0.930 . S
C1895 C1888 1.409 . S
C1895 C1894 1.362 . S
H1896 C1902 0.930 . S
H1897 C1905 0.930 . S
H1898 C1906 0.930 . S
H1899 C1907 0.930 . S
H1900 C1910 0.930 . S
H1901 C1911 0.930 . S
C1902 H1896 0.930 . S
C1902 C1903 1.355 . S
C1902 C1904 1.415 . S
C1903 C1902 1.355 . S
C1903 C1905 1.419 . S
C1904 C1902 1.415 . S
C1904 C1909 1.425 1_565 S
C1904 C1911 1.409 . S
C1905 H1897 0.930 . S
C1905 C1903 1.419 . S
C1905 C1906 1.362 1_565 S
C1906 H1898 0.930 . S
C1906 C1905 1.362 1_545 S
C1906 C1909 1.409 . S
C1907 H1899 0.930 . S
C1907 C1908 1.355 . S
C1907 C1909 1.415 . S
C1908 C1907 1.355 . S
C1908 C1910 1.419 . S
C1909 C1904 1.425 1_545 S
C1909 C1906 1.409 . S
C1909 C1907 1.415 . S
C1910 H1900 0.930 . S
C1910 C1908 1.419 . S
C1910 C1911 1.362 1_545 S
C1911 H1901 0.930 . S
C1911 C1904 1.409 . S
C1911 C1910 1.362 1_565 S
H1912 C1918 0.930 . S
H1913 C1921 0.930 . S
H1914 C1922 0.918 1_455 S
H1915 C1923 0.930 . S
H1916 C1926 0.930 . S
H1917 C1927 0.918 1_655 S
C1918 H1912 0.930 . S
C1918 C1919 1.355 . S
C1918 C1920 1.415 . S
C1919 C1918 1.355 . S
C1919 C1921 1.419 . S
C1920 C1918 1.415 . S
C1920 C1925 1.425 1_655 S
C1920 C1927 1.409 1_655 S
C1921 H1913 0.930 . S
C1921 C1919 1.419 . S
C1921 C1922 1.362 . S
C1922 H1914 0.918 1_655 S
C1922 C1921 1.362 . S
C1922 C1925 1.409 1_655 S
C1923 H1915 0.930 . S
C1923 C1924 1.355 . S
C1923 C1925 1.415 . S
C1924 C1923 1.355 . S
C1924 C1926 1.419 . S
C1925 C1920 1.425 1_455 S
C1925 C1922 1.409 1_455 S
C1925 C1923 1.415 . S
C1926 H1916 0.930 . S
C1926 C1924 1.419 . S
C1926 C1927 1.362 . S
C1927 H1917 0.918 1_455 S
C1927 C1920 1.409 1_455 S
C1927 C1926 1.362 . S
H1928 C1934 0.930 . S
H1929 C1937 0.930 . S
H1930 C1938 0.930 . S
H1931 C1939 0.930 . S
H1932 C1942 0.930 . S
H1933 C1943 0.930 . S
C1934 H1928 0.930 . S
C1934 C1935 1.355 . S
C1934 C1936 1.415 . S
C1935 C1934 1.355 . S
C1935 C1937 1.419 . S
C1936 C1934 1.415 . S
C1936 C1941 1.425 1_565 S
C1936 C1943 1.409 1_565 S
C1937 H1929 0.930 . S
C1937 C1935 1.419 . S
C1937 C1938 1.362 . S
C1938 H1930 0.930 . S
C1938 C1937 1.362 . S
C1938 C1941 1.409 1_565 S
C1939 H1931 0.930 . S
C1939 C1940 1.355 . S
C1939 C1941 1.415 . S
C1940 C1939 1.355 . S
C1940 C1942 1.419 . S
C1941 C1936 1.425 1_545 S
C1941 C1938 1.409 1_545 S
C1941 C1939 1.415 . S
C1942 H1932 0.930 . S
C1942 C1940 1.419 . S
C1942 C1943 1.362 . S
C1943 H1933 0.930 . S
C1943 C1936 1.409 1_545 S
C1943 C1942 1.362 . S
H1944 C1950 0.930 . S
H1945 C1953 0.930 . S
H1946 C1954 0.930 . S
H1947 C1955 0.930 . S
H1948 C1958 0.930 . S
H1949 C1959 0.930 . S
C1950 H1944 0.930 . S
C1950 C1951 1.355 . S
C1950 C1952 1.415 1_655 S
C1951 C1950 1.355 . S
C1951 C1953 1.419 . S
C1952 C1950 1.415 1_455 S
C1952 C1957 1.425 1_455 S
C1952 C1959 1.409 . S
C1953 H1945 0.930 . S
C1953 C1951 1.419 . S
C1953 C1954 1.362 . S
C1954 H1946 0.930 . S
C1954 C1953 1.362 . S
C1954 C1957 1.409 . S
C1955 H1947 0.930 . S
C1955 C1956 1.355 . S
C1955 C1957 1.415 1_455 S
C1956 C1955 1.355 . S
C1956 C1958 1.419 . S
C1957 C1952 1.425 1_655 S
C1957 C1954 1.409 . S
C1957 C1955 1.415 1_655 S
C1958 H1948 0.930 . S
C1958 C1956 1.419 . S
C1958 C1959 1.362 . S
C1959 H1949 0.930 . S
C1959 C1952 1.409 . S
C1959 C1958 1.362 . S
H1960 C1966 0.930 . S
H1961 C1969 0.930 . S
H1962 C1970 0.930 . S
H1963 C1971 0.930 . S
H1964 C1974 0.930 . S
H1965 C1975 0.930 . S
C1966 H1960 0.930 . S
C1966 C1967 1.355 . S
C1966 C1968 1.423 . S
C1967 C1966 1.355 . S
C1967 C1969 1.419 . S
C1968 C1966 1.423 . S
C1968 C1973 1.425 1_565 S
C1968 C1975 1.401 1_565 S
C1969 H1961 0.930 . S
C1969 C1967 1.419 . S
C1969 C1970 1.362 . S
C1970 H1962 0.930 . S
C1970 C1969 1.362 . S
C1970 C1973 1.401 1_565 S
C1971 H1963 0.930 . S
C1971 C1972 1.355 . S
C1971 C1973 1.423 . S
C1972 C1971 1.355 . S
C1972 C1974 1.419 . S
C1973 C1968 1.425 1_545 S
C1973 C1970 1.401 1_545 S
C1973 C1971 1.423 . S
C1974 H1964 0.930 . S
C1974 C1972 1.419 . S
C1974 C1975 1.362 . S
C1975 H1965 0.930 . S
C1975 C1968 1.401 1_545 S
C1975 C1974 1.362 . S
H1976 C1982 0.930 . S
H1977 C1985 0.930 . S
H1978 C1986 0.930 . S
H1979 C1987 0.930 . S
H1980 C1990 0.930 . S
H1981 C1991 0.930 . S
C1982 H1976 0.930 . S
C1982 C1983 1.355 . S
C1982 C1984 1.415 . S
C1983 C1982 1.355 . S
C1983 C1985 1.419 . S
C1984 C1982 1.415 . S
C1984 C1989 1.425 1_556 S
C1984 C1991 1.409 . S
C1985 H1977 0.930 . S
C1985 C1983 1.419 . S
C1985 C1986 1.362 1_556 S
C1986 H1978 0.930 . S
C1986 C1985 1.362 1_554 S
C1986 C1989 1.409 . S
C1987 H1979 0.930 . S
C1987 C1988 1.355 . S
C1987 C1989 1.415 . S
C1988 C1987 1.355 . S
C1988 C1990 1.419 . S
C1989 C1984 1.425 1_554 S
C1989 C1986 1.409 . S
C1989 C1987 1.415 . S
C1990 H1980 0.930 . S
C1990 C1988 1.419 . S
C1990 C1991 1.362 1_554 S
C1991 H1981 0.930 . S
C1991 C1984 1.409 . S
C1991 C1990 1.362 1_556 S
H1992 C1998 0.930 . S
H1993 C2001 0.930 . S
H1994 C2002 0.930 . S
H1995 C2003 0.930 . S
H1996 C2006 0.930 . S
H1997 C2007 0.930 . S
C1998 H1992 0.930 . S
C1998 C1999 1.355 . S
C1998 C2000 1.415 1_556 S
C1999 C1998 1.355 . S
C1999 C2001 1.419 . S
C2000 C1998 1.415 1_554 S
C2000 C2005 1.425 1_554 S
C2000 C2007 1.409 . S
C2001 H1993 0.930 . S
C2001 C1999 1.419 . S
C2001 C2002 1.362 . S
C2002 H1994 0.930 . S
C2002 C2001 1.362 . S
C2002 C2005 1.409 . S
C2003 H1995 0.930 . S
C2003 C2004 1.355 . S
C2003 C2005 1.415 1_554 S
C2004 C2003 1.355 . S
C2004 C2006 1.419 . S
C2005 C2000 1.425 1_556 S
C2005 C2002 1.409 . S
C2005 C2003 1.415 1_556 S
C2006 H1996 0.930 . S
C2006 C2004 1.419 . S
C2006 C2007 1.362 . S
C2007 H1997 0.930 . S
C2007 C2000 1.409 . S
C2007 C2006 1.362 . S
H2008 C2014 0.930 . S
H2009 C2017 0.930 . S
H2010 C2018 0.930 1_554 S
H2011 C2019 0.930 . S
H2012 C2022 0.930 . S
H2013 C2023 0.930 1_556 S
C2014 H2008 0.930 . S
C2014 C2015 1.355 . S
C2014 C2016 1.415 . S
C2015 C2014 1.355 . S
C2015 C2017 1.419 . S
C2016 C2014 1.415 . S
C2016 C2021 1.425 1_556 S
C2016 C2023 1.409 1_556 S
C2017 H2009 0.930 . S
C2017 C2015 1.419 . S
C2017 C2018 1.362 . S
C2018 H2010 0.930 1_556 S
C2018 C2017 1.362 . S
C2018 C2021 1.409 1_556 S
C2019 H2011 0.930 . S
C2019 C2020 1.355 . S
C2019 C2021 1.415 . S
C2020 C2019 1.355 . S
C2020 C2022 1.419 . S
C2021 C2016 1.425 1_554 S
C2021 C2018 1.409 1_554 S
C2021 C2019 1.415 . S
C2022 H2012 0.930 . S
C2022 C2020 1.419 . S
C2022 C2023 1.362 . S
C2023 H2013 0.930 1_554 S
C2023 C2016 1.409 1_554 S
C2023 C2022 1.362 . S
H2024 C2030 0.930 . S
H2025 C2033 0.930 . S
H2026 C2034 0.930 . S
H2027 C2035 0.930 . S
H2028 C2038 0.930 . S
H2029 C2039 0.930 . S
C2030 H2024 0.930 . S
C2030 C2031 1.355 . S
C2030 C2032 1.415 . S
C2031 C2030 1.355 . S
C2031 C2033 1.419 . S
C2032 C2030 1.415 . S
C2032 C2037 1.425 1_556 S
C2032 C2039 1.409 . S
C2033 H2025 0.930 . S
C2033 C2031 1.419 . S
C2033 C2034 1.362 1_556 S
C2034 H2026 0.930 . S
C2034 C2033 1.362 1_554 S
C2034 C2037 1.409 . S
C2035 H2027 0.930 . S
C2035 C2036 1.355 . S
C2035 C2037 1.415 . S
C2036 C2035 1.355 . S
C2036 C2038 1.419 . S
C2037 C2032 1.425 1_554 S
C2037 C2034 1.409 . S
C2037 C2035 1.415 . S
C2038 H2028 0.930 . S
C2038 C2036 1.419 . S
C2038 C2039 1.362 1_554 S
C2039 H2029 0.930 . S
C2039 C2032 1.409 . S
C2039 C2038 1.362 1_556 S
C703 C8 2.616 . S
C708 C382 2.600 . S
C719 C37 2.619 . S
C724 C411 2.610 . S
C735 C66 2.620 . S
C740 C440 2.583 . S
C751 C95 2.637 . S
C756 C353 2.625 . S
C767 C124 2.661 . S
C772 C324 2.615 . S
C783 C153 2.636 . S
C788 C237 2.625 . S
C799 C182 2.639 . S
C804 C266 2.625 . S
C815 C211 2.665 . S
C820 C295 2.583 . S
C831 C240 2.660 . S
C836 C34 2.616 . S
C847 C269 2.667 . S
C852 C63 2.601 . S
C863 C298 2.658 . S
C868 C92 2.572 . S
C879 C327 2.655 . S
C884 C5 2.621 . S
C895 C208 2.592 . S
C900 C356 2.667 . S
C911 C385 2.625 . S
C916 C121 2.619 . S
C927 C414 2.647 . S
C932 C150 2.624 . S
C943 C443 2.667 . S
C948 C179 2.601 . S
C959 C472 2.617 . S
C964 C643 2.592 . S
C975 C501 2.635 . S
C980 C527 2.624 . S
C991 C530 2.648 . S
C996 C556 2.624 . S
C1007 C559 2.623 . S
C1012 C585 2.617 . S
C1023 C588 2.634 . S
C1028 C498 2.569 . S
C1039 C617 2.620 . S
C1044 C672 2.613 . S
C1055 C646 2.643 . S
C1060 C614 2.625 . S
C1071 C675 2.667 . S
C1076 C469 2.599 . S
C1087 C3 2.243 . S
C1092 C641 2.262 . S
C1103 C32 2.261 . S
C1108 C467 2.244 . S
C1119 C670 2.243 . S
C1124 C61 2.265 . S
C1135 C612 2.279 . S
C1140 C90 2.246 . S
C1151 C119 2.261 . S
C1156 C525 2.244 . S
C1167 C148 2.277 . S
C1172 C554 2.244 . S
C1183 C583 2.250 . S
C1188 C177 2.284 . S
C1199 C496 2.243 . S
C1204 C206 2.262 . S
C1215 C380 2.252 . S
C1220 C235 2.249 . S
C1231 C409 2.272 . S
C1236 C264 2.243 . S
C1247 C438 2.243 . S
C1252 C293 2.274 . S
C1263 C322 2.283 . S
C1268 C351 2.274 . S
C1279 C79 0.798 . S
C1284 C21 0.769 . S
C1295 C108 0.732 . S
C1300 C50 0.762 . S
C1311 C195 0.798 . S
C1316 C137 0.769 . S
C1327 C224 0.686 . S
C1332 C166 0.831 . S
C1343 C369 0.692 . S
C1348 C253 0.837 . S
C1359 C282 0.838 . S
C1364 C398 0.694 . S
C1375 C311 0.799 . S
C1380 C427 0.768 . S
C1391 C456 0.798 . S
C1396 C340 0.769 . S
C1407 C572 0.820 . S
C1412 C485 0.739 . S
C1423 C514 0.707 . S
C1428 C630 0.792 . S
C1439 C543 0.686 . S
C1444 C659 0.829 . S
C1455 C601 0.761 . S
C1460 C688 0.734 . S
C1471 C245 1.034 . S
C1476 C15 0.967 . S
C1487 C44 0.982 . S
C1492 C274 0.998 . S
C1503 C73 1.057 . S
C1508 C303 0.936 . S
C1519 C332 0.949 . S
C1524 C102 1.052 . S
C1535 C131 0.968 . S
C1540 C361 1.031 . S
C1551 C160 1.058 . S
C1556 C390 0.932 . S
C1567 C419 1.047 . S
C1572 C189 0.979 . S
C1583 C218 1.058 . S
C1588 C448 0.933 . S
C1599 C477 0.936 . S
C1604 C247 1.057 . S
C1615 C680 0.903 . S
C1620 C276 1.062 . S
C1631 C622 0.918 . S
C1636 C305 1.062 . S
C1647 C651 1.050 . S
C1652 C334 0.969 . S
C1663 C363 0.994 . S
C1668 C506 1.035 . S
C1679 C392 1.051 . S
C1684 C535 0.951 . S
C1695 C421 0.979 . S
C1700 C564 1.005 . S
C1711 C450 1.050 . S
C1716 C593 0.954 . S
C1727 C479 1.063 . S
C1732 C13 0.912 . S
C1743 C129 0.912 . S
C1748 C508 1.041 . S
C1759 C158 1.048 . S
C1764 C537 0.967 . S
C1775 C566 1.062 . S
C1780 C187 0.918 . S
C1791 C595 0.994 . S
C1796 C216 1.036 . S
C1807 C624 1.057 . S
C1812 C71 0.937 . S
C1823 C653 1.000 . S
C1828 C100 1.029 . S
C1839 C682 0.966 . S
C1844 C42 1.038 . S
C1855 C271 1.520 . S
C1860 C10 1.485 . S
C1871 C300 1.482 . S
C1876 C39 1.532 . S
C1887 C68 1.548 . S
C1892 C329 1.562 . S
C1903 C97 1.504 . S
C1908 C242 1.494 . S
C1919 C445 1.483 . S
C1924 C126 1.540 . S
C1935 C358 1.495 . S
C1940 C155 1.563 . S
C1951 C184 1.561 . S
C1956 C387 1.550 . S
C1967 C213 1.571 . S
C1972 C416 1.527 . S
C1983 C532 1.538 . S
C1988 C474 1.482 . S
C1999 C503 1.541 . S
C2004 C648 1.566 . S
C2015 C561 1.483 . S
C2020 C677 1.527 . S
C2031 C590 1.527 . S
C2036 C619 1.483 . S
