# Generated by pormake.
# Topology dia, (4)-cn, num edge types: 1
# Building blocks:
#     Node 0, Type 0, BuildingBlock: UXUYUI_clean_sbu_0, # of connection points: 4
#     Node 1, Type 0, BuildingBlock: UXUYUI_clean_sbu_0, # of connection points: 4
#     Node 2, Type 0, BuildingBlock: UXUYUI_clean_sbu_0, # of connection points: 4
#     Node 3, Type 0, BuildingBlock: UXUYUI_clean_sbu_0, # of connection points: 4
#     Node 4, Type 0, BuildingBlock: UXUYUI_clean_sbu_0, # of connection points: 4
#     Node 5, Type 0, BuildingBlock: UXUYUI_clean_sbu_0, # of connection points: 4
#     Node 6, Type 0, BuildingBlock: UXUYUI_clean_sbu_0, # of connection points: 4
#     Node 7, Type 0, BuildingBlock: UXUYUI_clean_sbu_0, # of connection points: 4
#     Edge 8, Type (0, 0), BuildingBlock: UVAHIK_clean_linker_0, # of connection points: 2
#     Edge 9, Type (0, 0), BuildingBlock: UVAHIK_clean_linker_0, # of connection points: 2
#     Edge 10, Type (0, 0), BuildingBlock: UVAHIK_clean_linker_0, # of connection points: 2
#     Edge 11, Type (0, 0), BuildingBlock: UVAHIK_clean_linker_0, # of connection points: 2
#     Edge 12, Type (0, 0), BuildingBlock: UVAHIK_clean_linker_0, # of connection points: 2
#     Edge 13, Type (0, 0), BuildingBlock: UVAHIK_clean_linker_0, # of connection points: 2
#     Edge 14, Type (0, 0), BuildingBlock: UVAHIK_clean_linker_0, # of connection points: 2
#     Edge 15, Type (0, 0), BuildingBlock: UVAHIK_clean_linker_0, # of connection points: 2
#     Edge 16, Type (0, 0), BuildingBlock: UVAHIK_clean_linker_0, # of connection points: 2
#     Edge 17, Type (0, 0), BuildingBlock: UVAHIK_clean_linker_0, # of connection points: 2
#     Edge 18, Type (0, 0), BuildingBlock: UVAHIK_clean_linker_0, # of connection points: 2
#     Edge 19, Type (0, 0), BuildingBlock: UVAHIK_clean_linker_0, # of connection points: 2
#     Edge 20, Type (0, 0), BuildingBlock: UVAHIK_clean_linker_0, # of connection points: 2
#     Edge 21, Type (0, 0), BuildingBlock: UVAHIK_clean_linker_0, # of connection points: 2
#     Edge 22, Type (0, 0), BuildingBlock: UVAHIK_clean_linker_0, # of connection points: 2
#     Edge 23, Type (0, 0), BuildingBlock: UVAHIK_clean_linker_0, # of connection points: 2
# Relax obj value: 0.000
# Max RMSD: 0.003
# Mean RMSD: 0.003
data_MOF--net-dia--node1-UXUYUI_clean_sbu_0--edge1-UVAHIK_clean_linker_0
_symmetry_space_group_name_H-M    P1
_symmetry_Int_Tables_number       1
_symmetry_cell_setting            triclinic
loop_
_symmetry_equiv_pos_as_xyz
'x, y, z'
_cell_length_a     62.290775
_cell_length_b     61.859408
_cell_length_c     61.882234
_cell_angle_alpha  90.008799
_cell_angle_beta   89.996698
_cell_angle_gamma 90.001674
loop_
_atom_site_label
_atom_site_type_symbol
_atom_site_fract_x
_atom_site_fract_y
_atom_site_fract_z
_atom_type_partial_charge
Li0 Li 0.11755 0.14497 0.64412 0.0
Li1 Li 0.145 0.11556 0.64418 0.0
Li2 Li 0.14515 0.14417 0.61534 0.0
Li3 Li 0.11739 0.11521 0.61526 0.0
C4 C 0.15782 0.16368 0.65871 0.0
N5 N 0.17458 0.19726 0.68279 0.0
C6 C 0.16859 0.15941 0.67805 0.0
C7 C 0.15563 0.18499 0.65156 0.0
C8 C 0.17693 0.17662 0.69002 0.0
C9 C 0.16422 0.20175 0.66398 0.0
C10 C 0.1039 0.09901 0.66086 0.0
C11 C 0.09097 0.06324 0.66916 0.0
N12 N 0.0849 0.07022 0.68909 0.0
C13 C 0.09733 0.10592 0.68132 0.0
C14 C 0.10052 0.07757 0.65461 0.0
C15 C 0.08784 0.09108 0.6954 0.0
C16 C 0.07835 0.1641 0.65625 0.0
N17 N 0.09946 0.16272 0.66172 0.0
C18 C 0.09401 0.18667 0.69157 0.0
C19 C 0.10734 0.1734 0.67923 0.0
C20 C 0.07221 0.18847 0.68623 0.0
C21 C 0.0643 0.17682 0.66848 0.0
H22 H 0.07245 0.15527 0.64237 0.0
H23 H 0.12392 0.17158 0.68382 0.0
C24 C 0.18303 0.09343 0.65519 0.0
N25 N 0.16285 0.09804 0.66218 0.0
C26 C 0.19662 0.08045 0.66763 0.0
C27 C 0.16855 0.07752 0.69441 0.0
C28 C 0.15557 0.09063 0.68152 0.0
C29 C 0.18936 0.07219 0.68748 0.0
H30 H 0.18855 0.09977 0.63988 0.0
H31 H 0.13976 0.09497 0.68708 0.0
C32 C 0.10693 0.16302 0.59872 0.0
N33 N 0.09418 0.19549 0.57095 0.0
C34 C 0.09981 0.15794 0.57792 0.0
C35 C 0.10722 0.18453 0.60556 0.0
C36 C 0.09353 0.17461 0.56407 0.0
C37 C 0.1008 0.20074 0.59124 0.0
C38 C 0.15733 0.09361 0.6044 0.0
C39 C 0.17099 0.09387 0.5865 0.0
C40 C 0.15206 0.07396 0.61417 0.0
C41 C 0.17908 0.07436 0.57856 0.0
C42 C 0.1605 0.0548 0.60578 0.0
N43 N 0.17371 0.0554 0.58828 0.0
C44 C 0.18148 0.16987 0.6054 0.0
C45 C 0.15747 0.16468 0.57619 0.0
C46 C 0.19469 0.18286 0.5926 0.0
N47 N 0.16306 0.16143 0.59717 0.0
C48 C 0.17017 0.17761 0.56281 0.0
C49 C 0.18902 0.18704 0.57101 0.0
H50 H 0.186 0.16643 0.6219 0.0
H51 H 0.14318 0.15719 0.56977 0.0
C52 C 0.07801 0.09689 0.60259 0.0
N53 N 0.09928 0.09763 0.59769 0.0
C54 C 0.06403 0.08419 0.59028 0.0
C55 C 0.09412 0.07317 0.56823 0.0
C56 C 0.10743 0.08635 0.5807 0.0
C57 C 0.07212 0.07199 0.57297 0.0
H58 H 0.07194 0.10615 0.61611 0.0
H59 H 0.12424 0.0876 0.5767 0.0
O60 O 0.1494 0.14701 0.64696 0.0
O61 O 0.11315 0.11334 0.64686 0.0
O62 O 0.11317 0.1469 0.61245 0.0
O63 O 0.14921 0.11257 0.61225 0.0
H64 H 0.1704 0.14297 0.68378 0.0
H65 H 0.14748 0.18854 0.63655 0.0
H66 H 0.18526 0.17358 0.70505 0.0
H67 H 0.16264 0.21833 0.65865 0.0
H68 H 0.08831 0.04657 0.66458 0.0
H69 H 0.09971 0.12251 0.68633 0.0
H70 H 0.10509 0.07208 0.63867 0.0
H71 H 0.08281 0.09614 0.71135 0.0
H72 H 0.10058 0.19517 0.70538 0.0
H73 H 0.04754 0.17782 0.66393 0.0
H74 H 0.21251 0.07667 0.66161 0.0
H75 H 0.16246 0.07187 0.7098 0.0
H76 H 0.09933 0.1413 0.57249 0.0
H77 H 0.11225 0.18866 0.62177 0.0
H78 H 0.08815 0.17096 0.54786 0.0
H79 H 0.10102 0.21749 0.59626 0.0
H80 H 0.17522 0.109 0.57878 0.0
H81 H 0.14168 0.07354 0.62815 0.0
H82 H 0.18962 0.0743 0.56466 0.0
H83 H 0.15658 0.03947 0.61318 0.0
H84 H 0.20933 0.18932 0.59947 0.0
H85 H 0.16511 0.18039 0.5463 0.0
H86 H 0.04714 0.08366 0.59444 0.0
H87 H 0.10089 0.06425 0.55479 0.0
Li88 Li 0.86515 0.39231 0.86498 0.0
Li89 Li 0.89294 0.39381 0.89284 0.0
Li90 Li 0.89176 0.3638 0.86558 0.0
Li91 Li 0.86518 0.36523 0.89438 0.0
C92 C 0.89926 0.4106 0.84574 0.0
N93 N 0.90337 0.44219 0.81447 0.0
C94 C 0.90249 0.43214 0.85173 0.0
C95 C 0.89852 0.40506 0.82387 0.0
C96 C 0.90442 0.44789 0.83567 0.0
C97 C 0.90052 0.42128 0.8083 0.0
C98 C 0.85611 0.40262 0.91738 0.0
C99 C 0.86255 0.40003 0.95572 0.0
N100 N 0.84527 0.41295 0.95942 0.0
C101 C 0.83843 0.41587 0.92155 0.0
C102 C 0.8683 0.39463 0.93459 0.0
C103 C 0.83321 0.42092 0.94292 0.0
C104 C 0.83357 0.40144 0.83289 0.0
N105 N 0.84733 0.41037 0.84741 0.0
C106 C 0.83588 0.44592 0.83746 0.0
C107 C 0.84841 0.43215 0.85016 0.0
C108 C 0.82181 0.43718 0.82198 0.0
C109 C 0.82068 0.41458 0.81991 0.0
H110 H 0.83234 0.38411 0.83152 0.0
H111 H 0.85903 0.43884 0.86225 0.0
C112 C 0.9313 0.40551 0.91404 0.0
N113 N 0.91109 0.41228 0.90933 0.0
C114 C 0.94483 0.41833 0.9267 0.0
C115 C 0.91655 0.44498 0.92917 0.0
C116 C 0.90362 0.43169 0.91639 0.0
C117 C 0.93744 0.43831 0.93458 0.0
H118 H 0.93686 0.39007 0.90806 0.0
H119 H 0.88756 0.43681 0.91215 0.0
C120 C 0.85533 0.34576 0.84771 0.0
N121 N 0.84642 0.3151 0.81647 0.0
C122 C 0.84615 0.32596 0.85351 0.0
C123 C 0.85986 0.34998 0.826 0.0
C124 C 0.8418 0.31067 0.83749 0.0
C125 C 0.85527 0.33428 0.81045 0.0
C126 C 0.90332 0.34248 0.90505 0.0
C127 C 0.89339 0.32361 0.89773 0.0
C128 C 0.91947 0.34118 0.92067 0.0
C129 C 0.89998 0.30366 0.90595 0.0
C130 C 0.92559 0.32093 0.92854 0.0
N131 N 0.91581 0.30274 0.92106 0.0
C132 C 0.92868 0.35425 0.84118 0.0
C133 C 0.9043 0.32491 0.84295 0.0
C134 C 0.94254 0.34223 0.82806 0.0
N135 N 0.90987 0.34554 0.84819 0.0
C136 C 0.91741 0.31253 0.82949 0.0
C137 C 0.93676 0.3212 0.82187 0.0
H138 H 0.93289 0.37059 0.84571 0.0
H139 H 0.88967 0.31795 0.84909 0.0
C140 C 0.82699 0.34449 0.90712 0.0
N141 N 0.84749 0.34867 0.91337 0.0
C142 C 0.81355 0.33194 0.92012 0.0
C143 C 0.84233 0.32881 0.9461 0.0
C144 C 0.85524 0.34133 0.93255 0.0
C145 C 0.8212 0.32379 0.93989 0.0
H146 H 0.82119 0.35071 0.89186 0.0
H147 H 0.87147 0.34516 0.93739 0.0
O148 O 0.89701 0.39501 0.86122 0.0
O149 O 0.8613 0.39748 0.89653 0.0
O150 O 0.85981 0.36088 0.86322 0.0
O151 O 0.8968 0.36222 0.89761 0.0
H152 H 0.90323 0.43667 0.8686 0.0
H153 H 0.8965 0.3884 0.81897 0.0
H154 H 0.90672 0.46466 0.84007 0.0
H155 H 0.89985 0.41724 0.7913 0.0
H156 H 0.87183 0.39395 0.96919 0.0
H157 H 0.82884 0.42218 0.90839 0.0
H158 H 0.88207 0.3844 0.93168 0.0
H159 H 0.81956 0.43116 0.94639 0.0
H160 H 0.83738 0.46323 0.83961 0.0
H161 H 0.80969 0.40707 0.80862 0.0
H162 H 0.96075 0.41248 0.9306 0.0
H163 H 0.91032 0.4604 0.93459 0.0
H164 H 0.84263 0.32231 0.87023 0.0
H165 H 0.86688 0.36522 0.82121 0.0
H166 H 0.8348 0.29525 0.84177 0.0
H167 H 0.85876 0.33732 0.7936 0.0
H168 H 0.8805 0.32442 0.88609 0.0
H169 H 0.92709 0.35567 0.92677 0.0
H170 H 0.89242 0.28893 0.90041 0.0
H171 H 0.93806 0.31968 0.94064 0.0
H172 H 0.9574 0.34941 0.82248 0.0
H173 H 0.9126 0.29624 0.82527 0.0
H174 H 0.79747 0.32835 0.91452 0.0
H175 H 0.84881 0.32329 0.96137 0.0
Li176 Li 0.61454 0.14325 0.1443 0.0
Li177 Li 0.64247 0.11464 0.14261 0.0
Li178 Li 0.64259 0.14315 0.1155 0.0
Li179 Li 0.61464 0.11449 0.11645 0.0
C180 C 0.65201 0.16683 0.15309 0.0
N181 N 0.66299 0.20845 0.16488 0.0
C182 C 0.66733 0.17033 0.1692 0.0
C183 C 0.64229 0.18447 0.14295 0.0
C184 C 0.67266 0.1915 0.17494 0.0
C185 C 0.64805 0.2054 0.14914 0.0
C186 C 0.59437 0.09766 0.14975 0.0
C187 C 0.57912 0.06211 0.14515 0.0
N188 N 0.55958 0.06996 0.15102 0.0
C189 C 0.57418 0.10534 0.1559 0.0
C190 C 0.59692 0.07583 0.14449 0.0
C191 C 0.55678 0.09109 0.15639 0.0
C192 C 0.57746 0.16718 0.15519 0.0
N193 N 0.59727 0.16127 0.16221 0.0
C194 C 0.59253 0.18138 0.19485 0.0
C195 C 0.60491 0.16792 0.18168 0.0
C196 C 0.57194 0.18782 0.18807 0.0
C197 C 0.56444 0.18044 0.16793 0.0
H198 H 0.57168 0.16139 0.13975 0.0
H199 H 0.62066 0.16285 0.18696 0.0
C200 C 0.68211 0.10134 0.16084 0.0
N201 N 0.66068 0.09726 0.16029 0.0
C202 C 0.69573 0.08852 0.17341 0.0
C203 C 0.66485 0.06798 0.18513 0.0
C204 C 0.65188 0.08109 0.17222 0.0
C205 C 0.68714 0.07152 0.1858 0.0
H206 H 0.68865 0.11448 0.15137 0.0
H207 H 0.63475 0.07843 0.17182 0.0
C208 C 0.60135 0.15687 0.09623 0.0
N209 N 0.58207 0.17842 0.06226 0.0
C210 C 0.59918 0.14677 0.07613 0.0
C211 C 0.59361 0.17789 0.09907 0.0
C212 C 0.58942 0.15795 0.05915 0.0
C213 C 0.58396 0.18852 0.08169 0.0
C214 C 0.66276 0.09782 0.1097 0.0
C215 C 0.68324 0.10561 0.10477 0.0
C216 C 0.6599 0.07585 0.11415 0.0
C217 C 0.7006 0.09132 0.10466 0.0
C218 C 0.67768 0.06208 0.11391 0.0
N219 N 0.69749 0.07004 0.10923 0.0
C220 C 0.6796 0.16803 0.10591 0.0
C221 C 0.6539 0.16744 0.07774 0.0
C222 C 0.69301 0.18145 0.09375 0.0
N223 N 0.66034 0.16147 0.09786 0.0
C224 C 0.66673 0.18092 0.06507 0.0
C225 C 0.68657 0.18816 0.07306 0.0
H226 H 0.68464 0.16273 0.12176 0.0
H227 H 0.63892 0.16162 0.07133 0.0
C228 C 0.5747 0.10044 0.09911 0.0
N229 N 0.59629 0.09717 0.09877 0.0
C230 C 0.56117 0.08775 0.08632 0.0
C231 C 0.59239 0.06904 0.07259 0.0
C232 C 0.60529 0.08196 0.08577 0.0
C233 C 0.57001 0.07181 0.0728 0.0
H234 H 0.56801 0.11293 0.10932 0.0
H235 H 0.6225 0.07991 0.08556 0.0
O236 O 0.64667 0.14618 0.14733 0.0
O237 O 0.61152 0.11146 0.1488 0.0
O238 O 0.61055 0.14609 0.11319 0.0
O239 O 0.64562 0.11165 0.11029 0.0
H240 H 0.67502 0.1568 0.17717 0.0
H241 H 0.63051 0.18203 0.13038 0.0
H242 H 0.68449 0.19446 0.1874 0.0
H243 H 0.64066 0.2192 0.14141 0.0
H244 H 0.58084 0.04522 0.14094 0.0
H245 H 0.57192 0.12212 0.16018 0.0
H246 H 0.61241 0.0696 0.13968 0.0
H247 H 0.54104 0.09685 0.16102 0.0
H248 H 0.59916 0.18684 0.21007 0.0
H249 H 0.54856 0.18457 0.16216 0.0
H250 H 0.7128 0.09176 0.1732 0.0
H251 H 0.6574 0.05541 0.19473 0.0
H252 H 0.60533 0.13065 0.0735 0.0
H253 H 0.59502 0.18594 0.11452 0.0
H254 H 0.58775 0.15037 0.04349 0.0
H255 H 0.57793 0.20481 0.08366 0.0
H256 H 0.68573 0.12252 0.10119 0.0
H257 H 0.64418 0.06954 0.118 0.0
H258 H 0.71656 0.09716 0.10099 0.0
H259 H 0.67572 0.04508 0.11749 0.0
H260 H 0.70815 0.18669 0.10059 0.0
H261 H 0.66133 0.18533 0.04903 0.0
H262 H 0.54403 0.09061 0.08674 0.0
H263 H 0.59986 0.05686 0.06251 0.0
Li264 Li 0.89389 0.89519 0.39316 0.0
Li265 Li 0.86601 0.89422 0.364 0.0
Li266 Li 0.86625 0.86606 0.39266 0.0
Li267 Li 0.89409 0.86798 0.36382 0.0
C268 C 0.8531 0.90904 0.41191 0.0
N269 N 0.83546 0.93304 0.4451 0.0
C270 C 0.84276 0.92859 0.40746 0.0
C271 C 0.85434 0.90161 0.43319 0.0
C272 C 0.83399 0.94052 0.42448 0.0
C273 C 0.84535 0.914 0.44976 0.0
C274 C 0.91392 0.90076 0.34717 0.0
C275 C 0.92783 0.89662 0.31102 0.0
N276 N 0.94803 0.90003 0.31862 0.0
C277 C 0.9348 0.90437 0.35459 0.0
C278 C 0.91037 0.897 0.32518 0.0
C279 C 0.95184 0.90389 0.33991 0.0
C280 C 0.93122 0.90623 0.41655 0.0
N281 N 0.91099 0.9129 0.41173 0.0
C282 C 0.9156 0.94463 0.43331 0.0
C283 C 0.90312 0.93179 0.41965 0.0
C284 C 0.9367 0.93833 0.43848 0.0
C285 C 0.94445 0.9188 0.42976 0.0
H286 H 0.93719 0.89122 0.40987 0.0
H287 H 0.88716 0.93701 0.41534 0.0
C288 C 0.82605 0.91132 0.34976 0.0
N289 N 0.84769 0.91228 0.34711 0.0
C290 C 0.81254 0.92397 0.33692 0.0
C291 C 0.84388 0.93899 0.31948 0.0
C292 C 0.85676 0.92593 0.33254 0.0
C293 C 0.82141 0.93801 0.32142 0.0
H294 H 0.81928 0.90052 0.36169 0.0
H295 H 0.87402 0.92674 0.33107 0.0
C296 C 0.90621 0.85195 0.41194 0.0
N297 N 0.92215 0.82761 0.44574 0.0
C298 C 0.91571 0.83188 0.40793 0.0
C299 C 0.90497 0.85972 0.4331 0.0
C300 C 0.92362 0.81978 0.42525 0.0
C301 C 0.91309 0.84716 0.44997 0.0
C302 C 0.84561 0.86066 0.3474 0.0
C303 C 0.82584 0.85356 0.35538 0.0
C304 C 0.8474 0.86669 0.3257 0.0
C305 C 0.8081 0.85289 0.34157 0.0
C306 C 0.82928 0.86582 0.31242 0.0
N307 N 0.81017 0.85902 0.32057 0.0
C308 C 0.82931 0.85511 0.41684 0.0
C309 C 0.85645 0.82832 0.41712 0.0
C310 C 0.8162 0.84233 0.42998 0.0
N311 N 0.84906 0.84798 0.41077 0.0
C312 C 0.84405 0.81517 0.43055 0.0
C313 C 0.82354 0.82204 0.43715 0.0
H314 H 0.82362 0.87064 0.41122 0.0
H315 H 0.87196 0.82274 0.41172 0.0
C316 C 0.93346 0.84809 0.3522 0.0
N317 N 0.91256 0.85062 0.3464 0.0
C318 C 0.94723 0.83554 0.33954 0.0
C319 C 0.91771 0.82848 0.31519 0.0
C320 C 0.9045 0.84105 0.32838 0.0
C321 C 0.93939 0.82557 0.32071 0.0
H322 H 0.93942 0.8559 0.36665 0.0
H323 H 0.88779 0.84312 0.32426 0.0
O324 O 0.86183 0.89724 0.39543 0.0
O325 O 0.8971 0.90051 0.3614 0.0
O326 O 0.89835 0.86394 0.39515 0.0
O327 O 0.86309 0.86172 0.36076 0.0
H328 H 0.84166 0.93455 0.39105 0.0
H329 H 0.86201 0.88638 0.43688 0.0
H330 H 0.82601 0.95572 0.4213 0.0
H331 H 0.8462 0.90845 0.46631 0.0
H332 H 0.92532 0.89354 0.29399 0.0
H333 H 0.93785 0.90736 0.37151 0.0
H334 H 0.89434 0.8941 0.31915 0.0
H335 H 0.96809 0.90654 0.34546 0.0
H336 H 0.90862 0.95927 0.43982 0.0
H337 H 0.96069 0.91336 0.43277 0.0
H338 H 0.79533 0.9225 0.33891 0.0
H339 H 0.85151 0.9499 0.30816 0.0
H340 H 0.91677 0.82562 0.39163 0.0
H341 H 0.89796 0.87535 0.43645 0.0
H342 H 0.93092 0.80417 0.4224 0.0
H343 H 0.91223 0.85297 0.46644 0.0
H344 H 0.82417 0.84864 0.37204 0.0
H345 H 0.86252 0.87233 0.31924 0.0
H346 H 0.79268 0.84753 0.34757 0.0
H347 H 0.83041 0.87064 0.29565 0.0
H348 H 0.80037 0.8482 0.43414 0.0
H349 H 0.85062 0.79985 0.4358 0.0
H350 H 0.96388 0.83386 0.34428 0.0
H351 H 0.91092 0.82084 0.301 0.0
Li352 Li 0.11524 0.64426 0.14329 0.0
Li353 Li 0.14206 0.615 0.14271 0.0
Li354 Li 0.1422 0.64398 0.11375 0.0
Li355 Li 0.11501 0.61525 0.11462 0.0
C356 C 0.15498 0.66317 0.15761 0.0
N357 N 0.17121 0.69667 0.18225 0.0
C358 C 0.16356 0.65907 0.17808 0.0
C359 C 0.15503 0.68426 0.14952 0.0
C360 C 0.17157 0.67623 0.19033 0.0
C361 C 0.16321 0.70099 0.16226 0.0
C362 C 0.1073 0.59824 0.16272 0.0
C363 C 0.10873 0.56188 0.17671 0.0
N364 N 0.10198 0.56927 0.19627 0.0
C365 C 0.10021 0.60545 0.1829 0.0
C366 C 0.11143 0.57626 0.15952 0.0
C367 C 0.09768 0.59056 0.19968 0.0
C368 C 0.07816 0.66823 0.15409 0.0
N369 N 0.09789 0.66226 0.16133 0.0
C370 C 0.09256 0.68193 0.19416 0.0
C371 C 0.1051 0.66858 0.18107 0.0
C372 C 0.07218 0.68862 0.18704 0.0
C373 C 0.065 0.68148 0.1667 0.0
H374 H 0.07261 0.66264 0.1385 0.0
H375 H 0.12053 0.66313 0.1868 0.0
C376 C 0.17555 0.58526 0.15123 0.0
N377 N 0.15989 0.59735 0.1606 0.0
C378 C 0.18882 0.57215 0.16387 0.0
C379 C 0.16952 0.58407 0.19556 0.0
C380 C 0.15687 0.59719 0.18235 0.0
C381 C 0.18585 0.57131 0.1864 0.0
H382 H 0.17786 0.58593 0.13392 0.0
H383 H 0.1446 0.60724 0.18948 0.0
C384 C 0.10355 0.66488 0.10076 0.0
N385 N 0.08968 0.70128 0.07896 0.0
C386 C 0.09365 0.66291 0.08058 0.0
C387 C 0.10607 0.68534 0.10999 0.0
C388 C 0.08685 0.68152 0.06977 0.0
C389 C 0.09903 0.70355 0.0987 0.0
C390 C 0.14862 0.59752 0.09471 0.0
C391 C 0.1536 0.6044 0.0738 0.0
C392 C 0.14537 0.57555 0.09878 0.0
C393 C 0.1549 0.58916 0.05718 0.0
C394 C 0.14679 0.56081 0.08174 0.0
N395 N 0.15146 0.56787 0.06146 0.0
C396 C 0.1798 0.66699 0.1029 0.0
C397 C 0.15275 0.66816 0.07604 0.0
C398 C 0.19325 0.67992 0.09029 0.0
N399 N 0.15989 0.66158 0.09572 0.0
C400 C 0.1656 0.6812 0.06294 0.0
C401 C 0.18618 0.68732 0.07 0.0
H402 H 0.18525 0.66119 0.11845 0.0
H403 H 0.13714 0.66316 0.07038 0.0
C404 C 0.08346 0.58333 0.10588 0.0
N405 N 0.09715 0.59772 0.09665 0.0
C406 C 0.07047 0.57018 0.09299 0.0
C407 C 0.0858 0.58702 0.06132 0.0
C408 C 0.09838 0.59992 0.07483 0.0
C409 C 0.07157 0.57185 0.07035 0.0
H410 H 0.0825 0.58213 0.12327 0.0
H411 H 0.10924 0.61165 0.06789 0.0
O412 O 0.14706 0.64651 0.14542 0.0
O413 O 0.11007 0.61263 0.14617 0.0
O414 O 0.1104 0.64681 0.11149 0.0
O415 O 0.14694 0.61224 0.11111 0.0
H416 H 0.16388 0.64283 0.18452 0.0
H417 H 0.14907 0.68769 0.1335 0.0
H418 H 0.17808 0.6733 0.20627 0.0
H419 H 0.16329 0.7174 0.15621 0.0
H420 H 0.112 0.54485 0.1745 0.0
H421 H 0.09681 0.62238 0.18562 0.0
H422 H 0.1168 0.5704 0.14398 0.0
H423 H 0.09232 0.59593 0.21542 0.0
H424 H 0.09888 0.68709 0.20962 0.0
H425 H 0.04926 0.68583 0.16068 0.0
H426 H 0.20145 0.56303 0.15603 0.0
H427 H 0.16633 0.58384 0.21275 0.0
H428 H 0.09136 0.6472 0.07328 0.0
H429 H 0.11314 0.68713 0.12582 0.0
H430 H 0.07931 0.68023 0.05408 0.0
H431 H 0.10092 0.71948 0.10565 0.0
H432 H 0.15625 0.62134 0.07039 0.0
H433 H 0.1417 0.56995 0.11491 0.0
H434 H 0.1586 0.59427 0.04088 0.0
H435 H 0.14418 0.54377 0.08463 0.0
H436 H 0.20913 0.68382 0.09625 0.0
H437 H 0.15936 0.68659 0.04753 0.0
H438 H 0.05948 0.55904 0.10071 0.0
H439 H 0.08741 0.58876 0.04399 0.0
Li440 Li 0.36579 0.3943 0.36371 0.0
Li441 Li 0.39366 0.39551 0.39244 0.0
Li442 Li 0.39293 0.36734 0.36394 0.0
Li443 Li 0.36495 0.3674 0.39244 0.0
C444 C 0.41443 0.39954 0.34713 0.0
N445 N 0.44989 0.39854 0.32029 0.0
C446 C 0.43457 0.40565 0.35497 0.0
C447 C 0.41229 0.39313 0.32556 0.0
C448 C 0.45231 0.405 0.34116 0.0
C449 C 0.43042 0.39265 0.31228 0.0
C450 C 0.35631 0.40678 0.41527 0.0
C451 C 0.35882 0.40478 0.45409 0.0
N452 N 0.3459 0.42243 0.45574 0.0
C453 C 0.34306 0.42489 0.41732 0.0
C454 C 0.36428 0.39664 0.43377 0.0
C455 C 0.33798 0.43256 0.43793 0.0
C456 C 0.3279 0.41737 0.3538 0.0
N457 N 0.34776 0.41218 0.34631 0.0
C458 C 0.3414 0.4317 0.31361 0.0
C459 C 0.35475 0.4192 0.32672 0.0
C460 C 0.32079 0.4373 0.32089 0.0
C461 C 0.3141 0.43007 0.34133 0.0
H462 H 0.32273 0.41146 0.36941 0.0
H463 H 0.37064 0.41501 0.3212 0.0
C464 C 0.43097 0.40543 0.41638 0.0
N465 N 0.41133 0.413 0.41051 0.0
C466 C 0.4443 0.41779 0.4297 0.0
C467 C 0.41678 0.44531 0.43098 0.0
C468 C 0.40417 0.43262 0.4173 0.0
C469 C 0.43714 0.43793 0.43727 0.0
H470 H 0.43633 0.38984 0.41059 0.0
H471 H 0.38866 0.43846 0.41208 0.0
C472 C 0.34396 0.3626 0.348 0.0
N473 N 0.30788 0.36499 0.32213 0.0
C474 C 0.32352 0.36059 0.3571 0.0
C475 C 0.34605 0.36572 0.32572 0.0
C476 C 0.30548 0.36185 0.34375 0.0
C477 C 0.32761 0.36693 0.31293 0.0
C478 C 0.40463 0.34778 0.40792 0.0
C479 C 0.40727 0.32716 0.39906 0.0
C480 C 0.41058 0.35155 0.42938 0.0
C481 C 0.41547 0.31055 0.41194 0.0
C482 C 0.41873 0.33452 0.44173 0.0
N483 N 0.42097 0.31454 0.43283 0.0
C484 C 0.43236 0.3476 0.35222 0.0
C485 C 0.4027 0.33779 0.33032 0.0
C486 C 0.44608 0.33475 0.33979 0.0
N487 N 0.41115 0.34899 0.34719 0.0
C488 C 0.41584 0.3249 0.31737 0.0
C489 C 0.43786 0.32331 0.322 0.0
H490 H 0.43862 0.35664 0.36579 0.0
H491 H 0.38574 0.33891 0.32688 0.0
C492 C 0.32961 0.35829 0.42047 0.0
N493 N 0.34706 0.34962 0.41046 0.0
C494 C 0.31655 0.34549 0.43362 0.0
C495 C 0.33912 0.31484 0.42538 0.0
C496 C 0.35169 0.32823 0.41235 0.0
C497 C 0.32132 0.32346 0.43634 0.0
H498 H 0.32564 0.37511 0.41812 0.0
H499 H 0.36495 0.32143 0.40347 0.0
O500 O 0.39695 0.39967 0.36053 0.0
O501 O 0.36166 0.39929 0.39518 0.0
O502 O 0.36178 0.36205 0.36092 0.0
O503 O 0.39691 0.36434 0.39549 0.0
H504 H 0.43652 0.41082 0.37152 0.0
H505 H 0.39692 0.38803 0.31927 0.0
H506 H 0.46801 0.40961 0.34705 0.0
H507 H 0.42903 0.38748 0.29564 0.0
H508 H 0.36485 0.39706 0.46855 0.0
H509 H 0.33685 0.43299 0.40313 0.0
H510 H 0.37443 0.38256 0.43242 0.0
H511 H 0.32776 0.44658 0.43977 0.0
H512 H 0.34724 0.43717 0.29805 0.0
H513 H 0.29826 0.43392 0.34745 0.0
H514 H 0.45991 0.41155 0.43426 0.0
H515 H 0.41084 0.46089 0.43629 0.0
H516 H 0.32157 0.35827 0.37429 0.0
H517 H 0.36171 0.36765 0.31843 0.0
H518 H 0.28956 0.36041 0.35059 0.0
H519 H 0.32899 0.36954 0.2957 0.0
H520 H 0.40272 0.3239 0.38251 0.0
H521 H 0.40904 0.36746 0.43644 0.0
H522 H 0.41744 0.29448 0.40533 0.0
H523 H 0.42334 0.3372 0.45837 0.0
H524 H 0.46298 0.33407 0.34383 0.0
H525 H 0.4088 0.31608 0.30401 0.0
H526 H 0.30298 0.35284 0.44173 0.0
H527 H 0.34307 0.29783 0.42652 0.0
Li528 Li 0.36638 0.89248 0.86497 0.0
Li529 Li 0.39346 0.89281 0.89382 0.0
Li530 Li 0.39402 0.86518 0.86528 0.0
Li531 Li 0.36647 0.86503 0.89358 0.0
C532 C 0.39934 0.91393 0.84891 0.0
N533 N 0.4003 0.94945 0.82188 0.0
C534 C 0.40389 0.93441 0.85726 0.0
C535 C 0.39542 0.91147 0.8268 0.0
C536 C 0.40428 0.95218 0.84333 0.0
C537 C 0.39592 0.92965 0.81341 0.0
C538 C 0.34458 0.89718 0.90936 0.0
C539 C 0.32814 0.89288 0.94437 0.0
N540 N 0.30847 0.89562 0.93522 0.0
C541 C 0.32423 0.90001 0.90029 0.0
C542 C 0.3466 0.89366 0.93158 0.0
C543 C 0.30616 0.89916 0.91365 0.0
C544 C 0.33632 0.90115 0.8316 0.0
N545 N 0.34861 0.91031 0.84726 0.0
C546 C 0.33584 0.94551 0.83784 0.0
C547 C 0.34836 0.93199 0.85079 0.0
C548 C 0.3231 0.93658 0.82132 0.0
C549 C 0.32338 0.91403 0.81841 0.0
H550 H 0.33642 0.88383 0.82944 0.0
H551 H 0.35803 0.9388 0.8636 0.0
C552 C 0.43246 0.91157 0.90801 0.0
N553 N 0.41091 0.91106 0.91143 0.0
C554 C 0.44565 0.92442 0.92098 0.0
C555 C 0.41413 0.93657 0.94024 0.0
C556 C 0.40159 0.92334 0.92701 0.0
C557 C 0.43653 0.93717 0.93742 0.0
H558 H 0.43942 0.90183 0.8953 0.0
H559 H 0.38437 0.92297 0.92911 0.0
C560 C 0.36145 0.84398 0.8483 0.0
N561 N 0.36117 0.80889 0.82067 0.0
C562 C 0.35706 0.8233 0.85626 0.0
C563 C 0.36558 0.84684 0.82628 0.0
C564 C 0.35701 0.80576 0.84202 0.0
C565 C 0.36542 0.82889 0.81259 0.0
C566 C 0.41511 0.86009 0.91003 0.0
C567 C 0.43526 0.85492 0.90154 0.0
C568 C 0.41314 0.86512 0.93198 0.0
C569 C 0.45315 0.85497 0.91515 0.0
C570 C 0.43143 0.86504 0.94504 0.0
N571 N 0.45089 0.86001 0.93643 0.0
C572 C 0.4244 0.8567 0.83221 0.0
C573 C 0.41229 0.82571 0.85109 0.0
C574 C 0.43747 0.84394 0.81902 0.0
N575 N 0.41203 0.84742 0.84772 0.0
C576 C 0.42492 0.81231 0.83813 0.0
C577 C 0.43777 0.82137 0.82176 0.0
H578 H 0.42424 0.87404 0.83014 0.0
H579 H 0.40254 0.81879 0.86379 0.0
C580 C 0.32771 0.84416 0.90501 0.0
N581 N 0.3485 0.84711 0.911 0.0
C582 C 0.31402 0.83146 0.91761 0.0
C583 C 0.34344 0.82497 0.94223 0.0
C584 C 0.35657 0.83772 0.92911 0.0
C585 C 0.32184 0.82172 0.93655 0.0
H586 H 0.32175 0.85179 0.89046 0.0
H587 H 0.3732 0.84009 0.93337 0.0
O588 O 0.39852 0.89639 0.86233 0.0
O589 O 0.36241 0.89736 0.89647 0.0
O590 O 0.36193 0.86129 0.86203 0.0
O591 O 0.39745 0.86044 0.8969 0.0
H592 H 0.40688 0.93662 0.87433 0.0
H593 H 0.39175 0.89575 0.8201 0.0
H594 H 0.40768 0.96815 0.84957 0.0
H595 H 0.39276 0.92801 0.7963 0.0
H596 H 0.32944 0.89 0.96157 0.0
H597 H 0.32236 0.9026 0.88311 0.0
H598 H 0.36222 0.89119 0.93881 0.0
H599 H 0.29029 0.90122 0.90685 0.0
H600 H 0.33636 0.96278 0.84061 0.0
H601 H 0.31349 0.90633 0.80625 0.0
H602 H 0.46282 0.92412 0.9183 0.0
H603 H 0.4063 0.94643 0.95236 0.0
H604 H 0.35398 0.82076 0.87327 0.0
H605 H 0.36916 0.86271 0.81989 0.0
H606 H 0.35374 0.78965 0.84797 0.0
H607 H 0.36873 0.83084 0.79554 0.0
H608 H 0.43712 0.85108 0.8846 0.0
H609 H 0.39773 0.86947 0.93876 0.0
H610 H 0.46886 0.85108 0.90879 0.0
H611 H 0.43016 0.86907 0.962 0.0
H612 H 0.44742 0.85176 0.80699 0.0
H613 H 0.42439 0.79502 0.84076 0.0
H614 H 0.29744 0.82955 0.91272 0.0
H615 H 0.35022 0.8175 0.95651 0.0
Li616 Li 0.61608 0.64345 0.6429 0.0
Li617 Li 0.64274 0.61605 0.64549 0.0
Li618 Li 0.64353 0.64523 0.61599 0.0
Li619 Li 0.61529 0.61569 0.61636 0.0
C620 C 0.64917 0.66081 0.66501 0.0
N621 N 0.65183 0.6879 0.70035 0.0
C622 C 0.64322 0.65335 0.68546 0.0
C623 C 0.65672 0.68193 0.66253 0.0
C624 C 0.6446 0.66734 0.70312 0.0
C625 C 0.65789 0.69541 0.6806 0.0
C626 C 0.60705 0.5907 0.652 0.0
C627 C 0.61436 0.55302 0.64503 0.0
N628 N 0.5993 0.54739 0.65991 0.0
C629 C 0.59164 0.58451 0.66722 0.0
C630 C 0.61853 0.5748 0.64083 0.0
C631 C 0.58797 0.56256 0.671 0.0
C632 C 0.58237 0.65224 0.67233 0.0
N633 N 0.59821 0.66172 0.66058 0.0
C634 C 0.58833 0.69658 0.67408 0.0
C635 C 0.60141 0.68347 0.66128 0.0
C636 C 0.57189 0.68721 0.68645 0.0
C637 C 0.56901 0.66471 0.6855 0.0
H638 H 0.58005 0.63497 0.67141 0.0
H639 H 0.6141 0.69072 0.65187 0.0
C640 C 0.68144 0.59567 0.6576 0.0
N641 N 0.6607 0.5989 0.6636 0.0
C642 C 0.69498 0.58283 0.67023 0.0
C643 C 0.6657 0.57733 0.69525 0.0
C644 C 0.65275 0.59028 0.68216 0.0
C645 C 0.68712 0.57335 0.6893 0.0
H646 H 0.68743 0.603 0.64292 0.0
H647 H 0.63634 0.59349 0.68683 0.0
C648 C 0.59787 0.66404 0.61071 0.0
N649 N 0.56892 0.69795 0.6111 0.0
C650 C 0.57594 0.66006 0.61334 0.0
C651 C 0.60505 0.68532 0.60827 0.0
C652 C 0.56157 0.6774 0.61354 0.0
C653 C 0.59017 0.70223 0.60847 0.0
C654 C 0.65765 0.60387 0.59686 0.0
C655 C 0.65594 0.61301 0.57627 0.0
C656 C 0.6698 0.5851 0.59978 0.0
C657 C 0.66665 0.60332 0.55896 0.0
C658 C 0.68022 0.57587 0.58204 0.0
N659 N 0.67847 0.58511 0.56218 0.0
C660 C 0.68304 0.66417 0.60372 0.0
C661 C 0.65396 0.67184 0.5803 0.0
C662 C 0.6969 0.67651 0.59092 0.0
N663 N 0.66202 0.66216 0.59825 0.0
C664 C 0.66712 0.68458 0.56723 0.0
C665 C 0.68898 0.68707 0.57239 0.0
H666 H 0.68905 0.65609 0.618 0.0
H667 H 0.63724 0.66968 0.57611 0.0
C668 C 0.57641 0.5972 0.60192 0.0
N669 N 0.598 0.59686 0.59869 0.0
C670 C 0.56282 0.58437 0.58933 0.0
C671 C 0.59397 0.56999 0.57115 0.0
C672 C 0.6069 0.5833 0.58389 0.0
C673 C 0.57153 0.57059 0.57352 0.0
H674 H 0.56971 0.60736 0.61439 0.0
H675 H 0.62404 0.58248 0.58201 0.0
O676 O 0.64761 0.6475 0.64747 0.0
O677 O 0.61077 0.61221 0.64825 0.0
O678 O 0.61222 0.64726 0.6107 0.0
O679 O 0.64733 0.6131 0.61405 0.0
H680 H 0.63731 0.63703 0.68759 0.0
H681 H 0.66141 0.68788 0.64676 0.0
H682 H 0.63989 0.66186 0.71903 0.0
H683 H 0.66356 0.71185 0.67893 0.0
H684 H 0.62312 0.54058 0.63647 0.0
H685 H 0.58264 0.59654 0.67611 0.0
H686 H 0.63054 0.57911 0.62904 0.0
H687 H 0.57611 0.55758 0.68276 0.0
H688 H 0.59126 0.71383 0.67451 0.0
H689 H 0.55637 0.65686 0.69461 0.0
H690 H 0.71133 0.58011 0.66492 0.0
H691 H 0.65907 0.57072 0.71002 0.0
H692 H 0.57005 0.64382 0.6155 0.0
H693 H 0.62197 0.68887 0.60679 0.0
H694 H 0.54457 0.67451 0.61568 0.0
H695 H 0.59555 0.71876 0.60674 0.0
H696 H 0.64618 0.62721 0.57363 0.0
H697 H 0.67101 0.5776 0.61552 0.0
H698 H 0.66548 0.61021 0.54294 0.0
H699 H 0.68965 0.56133 0.58407 0.0
H700 H 0.71366 0.67752 0.59539 0.0
H701 H 0.66008 0.69258 0.55339 0.0
H702 H 0.54566 0.58552 0.59184 0.0
H703 H 0.60158 0.55916 0.55974 0.0
C704 C 0.28522 0.31161 0.45014 0.0
C705 C 0.3077 0.30948 0.45029 0.0
C706 C 0.27243 0.2984 0.46319 0.0
C707 C 0.27436 0.26385 0.51189 0.0
H708 H 0.22127 0.24043 0.48902 0.0
C709 C 0.21249 0.2197 0.56568 0.0
C710 C 0.20272 0.20106 0.55714 0.0
C711 C 0.22532 0.2329 0.55266 0.0
C712 C 0.23612 0.24671 0.49561 0.0
H713 H 0.33434 0.29194 0.46449 0.0
H714 H 0.312 0.26865 0.48696 0.0
H715 H 0.24378 0.26318 0.46618 0.0
H716 H 0.19912 0.18157 0.52821 0.0
H717 H 0.22141 0.20464 0.50551 0.0
H718 H 0.26689 0.24706 0.54118 0.0
C719 C 0.30427 0.28067 0.4769 0.0
C720 C 0.2489 0.25997 0.4826 0.0
C721 C 0.31707 0.29386 0.46383 0.0
C722 C 0.2061 0.19597 0.53525 0.0
C723 C 0.21889 0.2092 0.52222 0.0
C724 C 0.26156 0.25062 0.52491 0.0
C725 C 0.2818 0.28277 0.47672 0.0
C726 C 0.26818 0.26869 0.49058 0.0
C727 C 0.22867 0.22782 0.53078 0.0
C728 C 0.24229 0.24189 0.51692 0.0
H729 H 0.27747 0.32332 0.43974 0.0
H730 H 0.25518 0.3006 0.46283 0.0
H731 H 0.289 0.27048 0.51862 0.0
H732 H 0.20995 0.22432 0.58236 0.0
H733 H 0.23234 0.2473 0.55968 0.0
C734 C 0.72277 0.56483 0.70643 0.0
C735 C 0.70113 0.55939 0.70291 0.0
C736 C 0.73589 0.55172 0.71924 0.0
C737 C 0.74037 0.49621 0.74107 0.0
H738 H 0.78077 0.52255 0.78082 0.0
C739 C 0.80455 0.44636 0.7864 0.0
C740 C 0.80825 0.45146 0.80823 0.0
C741 C 0.7916 0.45959 0.77353 0.0
C742 C 0.76947 0.51493 0.76991 0.0
H743 H 0.67643 0.53569 0.70994 0.0
H744 H 0.69919 0.51308 0.73263 0.0
H745 H 0.75766 0.54544 0.75874 0.0
H746 H 0.80098 0.47449 0.83366 0.0
H747 H 0.77851 0.49761 0.81119 0.0
H748 H 0.75187 0.46571 0.75255 0.0
C749 C 0.70608 0.52738 0.7253 0.0
C750 C 0.7564 0.52806 0.75706 0.0
C751 C 0.69295 0.5405 0.7125 0.0
C752 C 0.79877 0.47023 0.81683 0.0
C753 C 0.78586 0.48349 0.80395 0.0
C754 C 0.75346 0.48309 0.7539 0.0
C755 C 0.72771 0.53283 0.72884 0.0
C756 C 0.74167 0.51887 0.74249 0.0
C757 C 0.78207 0.4783 0.78215 0.0
C758 C 0.76816 0.49229 0.76848 0.0
H759 H 0.72954 0.57938 0.69947 0.0
H760 H 0.75254 0.55628 0.72144 0.0
H761 H 0.72937 0.48859 0.72986 0.0
H762 H 0.81188 0.43225 0.77912 0.0
H763 H 0.7893 0.4553 0.75672 0.0
C764 C 0.56185 0.05379 0.0374 0.0
C765 C 0.55603 0.0582 0.0589 0.0
C766 C 0.54882 0.04084 0.02434 0.0
C767 C 0.49344 0.01893 0.01994 0.0
H768 H 0.52008 0.97904 0.9797 0.0
C769 C 0.44544 0.95369 0.97352 0.0
C770 C 0.45025 0.95104 0.95146 0.0
C771 C 0.45824 0.96681 0.98667 0.0
C772 C 0.51241 0.99023 0.99072 0.0
H773 H 0.5321 0.05228 0.08362 0.0
H774 H 0.5095 0.02941 0.06097 0.0
H775 H 0.54254 1.00167 1.00266 0.0
H776 H 0.47227 0.96047 0.92595 0.0
H777 H 0.49476 0.98301 0.94898 0.0
H778 H 0.46329 0.00719 0.00813 0.0
C779 C 0.5239 0.03632 0.05401 0.0
C780 C 0.52527 1.00327 1.00387 0.0
C781 C 0.53687 0.0494 0.06703 0.0
C782 C 0.46827 0.96179 0.94293 0.0
C783 C 0.48115 0.97478 0.95611 0.0
C784 C 0.48058 0.00578 0.00689 0.0
C785 C 0.52971 0.03185 0.03249 0.0
C786 C 0.51597 0.01784 0.01861 0.0
C787 C 0.47626 0.97746 0.97812 0.0
C788 C 0.48992 0.99133 0.9921 0.0
H789 H 0.57635 0.0606 0.03056 0.0
H790 H 0.55362 0.03811 0.00775 0.0
H791 H 0.48569 0.03019 0.03082 0.0
H792 H 0.43194 0.94538 0.98077 0.0
H793 H 0.45422 0.96832 1.00363 0.0
C794 C 0.96797 0.79726 0.31636 0.0
C795 C 0.95361 0.81205 0.30697 0.0
C796 C 0.98093 0.78412 0.3034 0.0
C797 C 0.9854 0.76265 0.24754 0.0
H798 H 0.04378 0.74962 0.26496 0.0
C799 C 0.04578 0.71914 0.19142 0.0
C800 C 0.05852 0.70284 0.20077 0.0
C801 C 0.03302 0.73252 0.20433 0.0
C802 C 0.02744 0.75296 0.25998 0.0
H803 H 0.942 0.82504 0.27661 0.0
H804 H 0.96479 0.80239 0.25399 0.0
H805 H 0.02168 0.77308 0.28749 0.0
H806 H 0.06743 0.6877 0.23112 0.0
H807 H 0.04543 0.71126 0.25359 0.0
H808 H 0.9913 0.74267 0.21991 0.0
C809 C 0.96571 0.80054 0.27137 0.0
C810 C 0.01474 0.76638 0.27291 0.0
C811 C 0.95268 0.81358 0.28433 0.0
C812 C 0.05816 0.70031 0.22337 0.0
C813 C 0.04551 0.71379 0.23627 0.0
C814 C 0.99814 0.74934 0.23455 0.0
C815 C 0.97993 0.78555 0.28072 0.0
C816 C 0.99354 0.77137 0.26688 0.0
C817 C 0.03278 0.73003 0.22691 0.0
C818 C 0.01929 0.74431 0.24065 0.0
H819 H 0.96886 0.7955 0.33375 0.0
H820 H 0.99143 0.77254 0.31118 0.0
H821 H 0.96903 0.76581 0.24257 0.0
H822 H 0.04591 0.72182 0.17413 0.0
H823 H 0.0236 0.74508 0.19666 0.0
C824 C 0.29918 0.96898 0.8159 0.0
C825 C 0.30952 0.95066 0.80733 0.0
C826 C 0.28646 0.98217 0.80277 0.0
C827 C 0.25538 0.98193 0.7522 0.0
H828 H 0.25971 0.04432 0.75668 0.0
C829 C 0.19494 0.03974 0.71119 0.0
C830 C 0.20337 0.05815 0.70092 0.0
C831 C 0.20805 0.02657 0.72394 0.0
C832 C 0.25841 0.02693 0.75514 0.0
H833 H 0.31475 0.93215 0.77798 0.0
H834 H 0.29225 0.95495 0.75523 0.0
H835 H 0.2825 0.02146 0.77923 0.0
H836 H 0.23217 0.07726 0.69616 0.0
H837 H 0.25512 0.05416 0.7183 0.0
H838 H 0.2314 0.98739 0.72801 0.0
C839 C 0.29389 0.95897 0.77218 0.0
C840 C 0.2713 0.01384 0.76821 0.0
C841 C 0.30675 0.94587 0.78527 0.0
C842 C 0.22523 0.06309 0.7037 0.0
C843 C 0.23832 0.04999 0.71656 0.0
C844 C 0.24239 0.99502 0.73923 0.0
C845 C 0.28362 0.97728 0.78078 0.0
C846 C 0.26994 0.99119 0.76687 0.0
C847 C 0.22988 0.03157 0.72682 0.0
C848 C 0.24376 0.01766 0.74054 0.0
H849 H 0.3006 0.97298 0.83288 0.0
H850 H 0.27852 0.996 0.80994 0.0
H851 H 0.25383 0.96454 0.75092 0.0
H852 H 0.17822 0.03537 0.70921 0.0
H853 H 0.20102 0.01261 0.73179 0.0
C854 C 0.97332 0.45455 0.94377 0.0
C855 C 0.95137 0.45205 0.94846 0.0
C856 C 0.98639 0.46744 0.95687 0.0
C857 C 0.98976 0.49099 0.01162 0.0
H858 H 0.0318 0.52907 0.98541 0.0
C859 C 0.05384 0.5363 0.06178 0.0
C860 C 0.05791 0.55798 0.05627 0.0
C861 C 0.04093 0.52332 0.04862 0.0
C862 C 0.02005 0.51862 0.99297 0.0
H863 H 0.92603 0.46095 0.9708 0.0
H864 H 0.94876 0.48367 0.99346 0.0
H865 H 0.00887 0.50681 0.96246 0.0
H866 H 0.05124 0.58302 0.03264 0.0
H867 H 0.02892 0.56031 0.00962 0.0
H868 H 1.00071 0.50305 0.04212 0.0
C869 C 0.9559 0.47554 0.97973 0.0
C870 C 0.00707 0.50569 0.97983 0.0
C871 C 0.94282 0.46271 0.96659 0.0
C872 C 0.04878 0.56631 0.03722 0.0
C873 C 0.03594 0.5533 0.02401 0.0
C874 C 1.00279 0.50387 0.02476 0.0
C875 C 0.97784 0.47807 0.97502 0.0
C876 C 0.99174 0.49174 0.989 0.0
C877 C 0.03183 0.53166 0.02958 0.0
C878 C 0.01807 0.51786 0.01559 0.0
H879 H 0.98037 0.44672 0.92982 0.0
H880 H 1.00326 0.46888 0.9529 0.0
H881 H 0.97826 0.48027 0.01921 0.0
H882 H 0.06088 0.52922 0.07612 0.0
H883 H 0.03833 0.50662 0.0532 0.0
C884 C 0.46746 0.29606 0.31773 0.0
C885 C 0.45211 0.30978 0.30831 0.0
C886 C 0.48055 0.28301 0.30481 0.0
C887 C 0.48426 0.25986 0.24947 0.0
H888 H 0.54358 0.24975 0.26555 0.0
C889 C 0.54497 0.21783 0.19266 0.0
C890 C 0.55835 0.20201 0.20194 0.0
C891 C 0.5321 0.23101 0.20566 0.0
C892 C 0.52699 0.25229 0.26095 0.0
H893 H 0.43885 0.32099 0.27794 0.0
H894 H 0.4619 0.29858 0.25537 0.0
H895 H 0.52114 0.2729 0.28807 0.0
H896 H 0.56837 0.18762 0.23232 0.0
H897 H 0.54623 0.21091 0.25494 0.0
H898 H 0.49028 0.23946 0.22216 0.0
C899 C 0.4635 0.29743 0.27276 0.0
C900 C 0.51409 0.26551 0.27389 0.0
C901 C 0.4503 0.31034 0.28569 0.0
C902 C 0.5586 0.19985 0.22458 0.0
C903 C 0.54585 0.21316 0.23758 0.0
C904 C 0.49721 0.24678 0.23646 0.0
C905 C 0.47872 0.28349 0.28214 0.0
C906 C 0.49253 0.26946 0.26834 0.0
C907 C 0.53242 0.22884 0.22826 0.0
C908 C 0.51871 0.24282 0.24206 0.0
H909 H 0.46905 0.29509 0.33514 0.0
H910 H 0.49183 0.27224 0.31265 0.0
H911 H 0.46764 0.26216 0.24488 0.0
H912 H 0.54463 0.22027 0.17534 0.0
H913 H 0.52213 0.24314 0.19803 0.0
C914 C 0.79593 0.81724 0.46662 0.0
C915 C 0.80986 0.80807 0.45122 0.0
C916 C 0.78301 0.80414 0.47966 0.0
C917 C 0.76176 0.74787 0.48401 0.0
H918 H 0.74853 0.76597 0.54245 0.0
C919 C 0.7001 0.70178 0.53608 0.0
C920 C 0.70332 0.7006 0.55856 0.0
C921 C 0.71314 0.71486 0.52316 0.0
C922 C 0.75227 0.76045 0.52628 0.0
H923 H 0.82078 0.77766 0.43754 0.0
H924 H 0.79936 0.75495 0.46103 0.0
H925 H 0.77167 0.78826 0.52015 0.0
H926 H 0.72308 0.71246 0.58493 0.0
H927 H 0.74652 0.73414 0.56233 0.0
H928 H 0.74331 0.71951 0.4905 0.0
C929 C 0.79793 0.77231 0.46267 0.0
C930 C 0.76529 0.7735 0.51329 0.0
C931 C 0.81058 0.78541 0.44939 0.0
C932 C 0.7202 0.71265 0.56768 0.0
C933 C 0.73348 0.72546 0.5547 0.0
C934 C 0.74904 0.73465 0.49711 0.0
C935 C 0.78387 0.78147 0.47794 0.0
C936 C 0.77015 0.76745 0.49191 0.0
C937 C 0.73006 0.72686 0.53226 0.0
C938 C 0.74399 0.7408 0.51841 0.0
H939 H 0.79509 0.83458 0.4688 0.0
H940 H 0.77219 0.81189 0.49094 0.0
H941 H 0.7648 0.74274 0.46756 0.0
H942 H 0.68755 0.6925 0.52831 0.0
H943 H 0.70971 0.7157 0.50604 0.0
C944 C 0.20545 0.56393 0.22127 0.0
C945 C 0.19974 0.55737 0.20027 0.0
C946 C 0.21825 0.55079 0.23436 0.0
C947 C 0.23824 0.49421 0.23974 0.0
H948 H 0.27891 0.52074 0.27908 0.0
C949 C 0.30399 0.44611 0.28513 0.0
C950 C 0.30643 0.4507 0.30724 0.0
C951 C 0.29068 0.4589 0.27219 0.0
C952 C 0.2675 0.51312 0.26829 0.0
H953 H 0.20313 0.53153 0.17675 0.0
H954 H 0.22633 0.50927 0.19905 0.0
H955 H 0.25674 0.54352 0.256 0.0
H956 H 0.29698 0.47233 0.3331 0.0
H957 H 0.27381 0.49479 0.31042 0.0
H958 H 0.24956 0.46378 0.25174 0.0
C959 C 0.22045 0.52435 0.20567 0.0
C960 C 0.2547 0.52616 0.25509 0.0
C961 C 0.20738 0.53735 0.19268 0.0
C962 C 0.29528 0.46833 0.31615 0.0
C963 C 0.28218 0.48127 0.30315 0.0
C964 C 0.25125 0.48118 0.25274 0.0
C965 C 0.22601 0.53084 0.22673 0.0
C966 C 0.23982 0.5169 0.24067 0.0
C967 C 0.27974 0.47668 0.28104 0.0
C968 C 0.26596 0.4905 0.2672 0.0
H969 H 0.20022 0.57935 0.22764 0.0
H970 H 0.22188 0.55626 0.25057 0.0
H971 H 0.22672 0.48644 0.22919 0.0
H972 H 0.31227 0.43253 0.27787 0.0
H973 H 0.28921 0.45507 0.25517 0.0
C974 C 0.78526 0.31445 0.956 0.0
C975 C 0.80732 0.31005 0.95386 0.0
C976 C 0.77222 0.30143 0.96899 0.0
C977 C 0.77426 0.26278 0.01437 0.0
H978 H 0.71806 0.24552 0.99368 0.0
C979 C 0.72279 0.19905 0.05884 0.0
C980 C 0.7005 0.20245 0.05976 0.0
C981 C 0.73582 0.21228 0.04605 0.0
C982 C 0.73359 0.25042 0.99985 0.0
H983 H 0.83282 0.28821 0.96356 0.0
H984 H 0.81013 0.26568 0.98638 0.0
H985 H 0.7407 0.26849 0.97122 0.0
H986 H 0.67449 0.22274 0.04834 0.0
H987 H 0.6972 0.24596 0.02623 0.0
H988 H 0.76713 0.24486 0.04305 0.0
C989 C 0.80298 0.27938 0.97818 0.0
C990 C 0.74658 0.26357 0.98694 0.0
C991 C 0.816 0.29233 0.96511 0.0
C992 C 0.69156 0.21949 0.04773 0.0
C993 C 0.70459 0.23278 0.03502 0.0
C994 C 0.76123 0.24971 0.02732 0.0
C995 C 0.78093 0.28375 0.98025 0.0
C996 C 0.76707 0.26988 0.99404 0.0
C997 C 0.72689 0.22931 0.03395 0.0
C998 C 0.74073 0.24333 0.02022 0.0
H999 H 0.77808 0.32816 0.94786 0.0
H1000 H 0.75536 0.30542 0.97048 0.0
H1001 H 0.78984 0.26761 0.02044 0.0
H1002 H 0.73014 0.18587 0.06767 0.0
H1003 H 0.75287 0.20891 0.04536 0.0
C1004 C 0.78847 0.96091 0.31554 0.0
C1005 C 0.8074 0.95156 0.30737 0.0
C1006 C 0.77545 0.97375 0.30234 0.0
C1007 C 0.77665 0.00682 0.25281 0.0
H1008 H 0.71475 1.00039 0.25468 0.0
C1009 C 0.71883 0.06659 0.2106 0.0
C1010 C 0.70124 0.05767 0.19946 0.0
C1011 C 0.73187 0.05362 0.22364 0.0
C1012 C 0.73201 1.0023 0.25389 0.0
H1013 H 0.82714 0.94812 0.27865 0.0
H1014 H 0.80458 0.97073 0.2558 0.0
H1015 H 0.73727 0.97758 0.27753 0.0
H1016 H 0.68396 0.02788 0.19303 0.0
H1017 H 0.70653 0.00537 0.21599 0.0
H1018 H 0.7714 0.03139 0.22901 0.0
C1019 C 0.79997 0.96831 0.2725 0.0
C1020 C 0.7449 0.98938 0.26713 0.0
C1021 C 0.81292 0.95537 0.28564 0.0
C1022 C 0.69709 0.03541 0.20166 0.0
C1023 C 0.71006 0.02248 0.2148 0.0
C1024 C 0.76376 0.01982 0.23965 0.0
C1025 C 0.78109 0.97766 0.2807 0.0
C1026 C 0.76737 0.99147 0.26672 0.0
C1027 C 0.72758 0.03143 0.22596 0.0
C1028 C 0.74129 0.01768 0.24001 0.0
H1029 H 0.78387 0.95863 0.33226 0.0
H1030 H 0.76114 0.98094 0.30922 0.0
H1031 H 0.7939 0.00896 0.25226 0.0
H1032 H 0.72232 0.08371 0.2096 0.0
H1033 H 0.74509 0.06106 0.23224 0.0
C1034 C 0.94838 0.97476 0.45263 0.0
C1035 C 0.95052 0.9521 0.45265 0.0
C1036 C 0.96115 0.98764 0.466 0.0
C1037 C 0.99778 0.9847 0.51385 0.0
H1038 H 0.01443 0.04189 0.4944 0.0
C1039 C 0.06343 0.03665 0.55522 0.0
C1040 C 0.05776 0.05816 0.5598 0.0
C1041 C 0.05004 0.02365 0.54258 0.0
C1042 C 0.00978 0.026 0.50007 0.0
H1043 H 0.96805 0.92541 0.46714 0.0
H1044 H 0.99119 0.94785 0.48919 0.0
H1045 H 0.9923 0.01922 0.47118 0.0
H1046 H 0.03379 0.083 0.55463 0.0
H1047 H 0.01051 0.06033 0.53214 0.0
H1048 H 0.01611 0.9914 0.54241 0.0
C1049 C 0.97913 0.9557 0.47936 0.0
C1050 C 0.99697 0.01299 0.48683 0.0
C1051 C 0.96604 0.94277 0.46631 0.0
C1052 C 0.03846 0.06644 0.55145 0.0
C1053 C 0.02524 0.05354 0.5385 0.0
C1054 C 0.01093 0.99757 0.52688 0.0
C1055 C 0.97682 0.97834 0.47949 0.0
C1056 C 0.99068 0.99217 0.49356 0.0
C1057 C 0.0309 0.03202 0.53398 0.0
C1058 C 0.01697 0.01837 0.52016 0.0
H1059 H 0.93696 0.98271 0.44213 0.0
H1060 H 0.95855 0.00494 0.46582 0.0
H1061 H 0.99299 0.96901 0.51988 0.0
H1062 H 0.07817 0.02985 0.56156 0.0
H1063 H 0.05481 0.00715 0.53923 0.0
C1064 C 0.9723 0.30457 0.81294 0.0
C1065 C 0.95077 0.3083 0.8075 0.0
C1066 C 0.98529 0.29172 0.79971 0.0
C1067 C 0.98215 0.25194 0.75402 0.0
H1068 H 0.04338 0.26253 0.75177 0.0
C1069 C 0.03912 0.19393 0.70852 0.0
C1070 C 0.05788 0.20238 0.69928 0.0
C1071 C 0.02607 0.20689 0.7216 0.0
C1072 C 0.02628 0.25948 0.75183 0.0
H1073 H 0.92598 0.30217 0.7838 0.0
H1074 H 0.9488 0.28082 0.76001 0.0
H1075 H 0.02083 0.28565 0.7736 0.0
H1076 H 0.07751 0.23102 0.69585 0.0
H1077 H 0.05427 0.25404 0.71757 0.0
H1078 H 0.98739 0.2267 0.73111 0.0
C1079 C 0.95562 0.28691 0.7749 0.0
C1080 C 0.0133 0.27256 0.76482 0.0
C1081 C 0.94253 0.29933 0.78841 0.0
C1082 C 0.06318 0.22411 0.70298 0.0
C1083 C 0.04991 0.23722 0.71562 0.0
C1084 C 0.99506 0.23918 0.74062 0.0
C1085 C 0.97718 0.28271 0.78042 0.0
C1086 C 0.99103 0.26893 0.76625 0.0
C1087 C 0.03124 0.22877 0.72535 0.0
C1088 C 0.01736 0.24265 0.7394 0.0
H1089 H 0.97893 0.31117 0.82772 0.0
H1090 H 1.00158 0.28858 0.80489 0.0
H1091 H 0.9652 0.24823 0.75487 0.0
H1092 H 0.03483 0.17714 0.70606 0.0
H1093 H 0.01218 0.19953 0.72908 0.0
C1094 C 0.54974 0.72058 0.69252 0.0
C1095 C 0.55786 0.70085 0.70028 0.0
C1096 C 0.53661 0.73346 0.70555 0.0
C1097 C 0.52305 0.74437 0.76237 0.0
H1098 H 0.47154 0.7702 0.73849 0.0
C1099 C 0.46163 0.78894 0.81619 0.0
C1100 C 0.45146 0.80741 0.80775 0.0
C1101 C 0.47444 0.77585 0.80304 0.0
C1102 C 0.48601 0.76338 0.74537 0.0
H1103 H 0.55875 0.67927 0.72787 0.0
H1104 H 0.53574 0.70175 0.75062 0.0
H1105 H 0.49429 0.74775 0.71563 0.0
H1106 H 0.44675 0.82635 0.7786 0.0
H1107 H 0.46977 0.80412 0.75598 0.0
H1108 H 0.51507 0.76023 0.79199 0.0
C1109 C 0.53959 0.70726 0.73446 0.0
C1110 C 0.49902 0.75046 0.73225 0.0
C1111 C 0.55259 0.6943 0.72137 0.0
C1112 C 0.45453 0.81245 0.78579 0.0
C1113 C 0.46751 0.79947 0.77269 0.0
C1114 C 0.51015 0.75744 0.77544 0.0
C1115 C 0.53144 0.72698 0.72669 0.0
C1116 C 0.51765 0.74077 0.74062 0.0
C1117 C 0.47761 0.78097 0.78112 0.0
C1118 C 0.49142 0.7671 0.76715 0.0
H1119 H 0.55337 0.72597 0.67627 0.0
H1120 H 0.53072 0.74865 0.69917 0.0
H1121 H 0.53747 0.73737 0.7692 0.0
H1122 H 0.45992 0.78466 0.83307 0.0
H1123 H 0.4817 0.76159 0.81007 0.0
C1124 C 0.21339 0.71711 0.0656 0.0
C1125 C 0.20019 0.70119 0.05627 0.0
C1126 C 0.2265 0.73014 0.0527 0.0
C1127 C 0.25106 0.73303 0.99809 0.0
H1128 H 0.25831 0.79361 0.01247 0.0
C1129 C 0.29322 0.79341 0.94081 0.0
C1130 C 0.30762 0.80813 0.95026 0.0
C1131 C 0.28005 0.78043 0.95372 0.0
C1132 C 0.25661 0.77667 0.00836 0.0
H1133 H 0.19072 0.68643 0.0259 0.0
H1134 H 0.21296 0.7096 1.00341 0.0
H1135 H 0.23545 0.77089 0.03496 0.0
H1136 H 0.31923 0.82101 0.98069 0.0
H1137 H 0.29642 0.79821 1.00322 0.0
H1138 H 0.27208 0.73893 0.97136 0.0
C1139 C 0.21346 0.7118 0.02076 0.0
C1140 C 0.24353 0.76362 0.02127 0.0
C1141 C 0.20044 0.69869 0.03367 0.0
C1142 C 0.30846 0.80968 0.97291 0.0
C1143 C 0.29523 0.79678 0.98582 0.0
C1144 C 0.26405 0.74612 0.98511 0.0
C1145 C 0.22669 0.72768 0.0301 0.0
C1146 C 0.2406 0.74161 0.01632 0.0
C1147 C 0.28091 0.78196 0.97638 0.0
C1148 C 0.267 0.76808 0.99011 0.0
H1149 H 0.21344 0.7197 0.08291 0.0
H1150 H 0.23667 0.74201 0.06049 0.0
H1151 H 0.2495 0.71609 0.99398 0.0
H1152 H 0.29232 0.79168 0.92342 0.0
H1153 H 0.26905 0.76933 0.94595 0.0
C1154 C 0.47239 0.45538 0.44597 0.0
C1155 C 0.4509 0.45129 0.45152 0.0
C1156 C 0.48524 0.46837 0.45918 0.0
C1157 C 0.49193 0.487 0.51465 0.0
H1158 H 0.52349 0.53468 0.4893 0.0
C1159 C 0.53817 0.54817 0.56767 0.0
C1160 C 0.55741 0.55694 0.55959 0.0
C1161 C 0.52494 0.53549 0.55452 0.0
C1162 C 0.51511 0.52123 0.49666 0.0
H1163 H 0.42609 0.45718 0.47534 0.0
H1164 H 0.44874 0.47958 0.49871 0.0
H1165 H 0.50136 0.51171 0.46636 0.0
H1166 H 0.57755 0.55925 0.53102 0.0
H1167 H 0.5553 0.53621 0.50866 0.0
H1168 H 0.50611 0.49589 0.54479 0.0
C1169 C 0.45554 0.47287 0.48405 0.0
C1170 C 0.50234 0.50815 0.48348 0.0
C1171 C 0.44258 0.4602 0.47065 0.0
C1172 C 0.56308 0.55254 0.53802 0.0
C1173 C 0.55004 0.53958 0.52499 0.0
C1174 C 0.505 0.49984 0.52779 0.0
C1175 C 0.47695 0.47719 0.47837 0.0
C1176 C 0.49058 0.49096 0.49236 0.0
C1177 C 0.53073 0.53093 0.53301 0.0
C1178 C 0.51675 0.51719 0.519 0.0
H1179 H 0.47914 0.44881 0.43123 0.0
H1180 H 0.50174 0.47136 0.45451 0.0
H1181 H 0.48317 0.47369 0.52185 0.0
H1182 H 0.53334 0.55088 0.58425 0.0
H1183 H 0.51007 0.52944 0.56125 0.0
loop_
_geom_bond_atom_site_label_1
_geom_bond_atom_site_label_2
_geom_bond_distance
_geom_bond_site_symmetry_2
_ccdc_geom_bond_type
Li0 N17 1.990 . S
Li0 O60 1.956 . S
Li0 O61 1.970 . S
Li0 O62 1.961 . S
Li1 N25 1.990 . S
Li1 O60 1.970 . S
Li1 O61 1.956 . S
Li1 O63 1.961 . S
Li2 N47 1.990 . S
Li2 O60 1.961 . S
Li2 O62 1.956 . S
Li2 O63 1.970 . S
Li3 N53 1.990 . S
Li3 O61 1.961 . S
Li3 O62 1.970 . S
Li3 O63 1.956 . S
C4 C6 1.348 . S
C4 C7 1.356 . S
C4 O60 1.325 . S
N5 C8 1.314 . S
N5 C9 1.279 . S
C6 C4 1.348 . S
C6 C8 1.353 . S
C6 H64 0.929 . S
C7 C4 1.356 . S
C7 C9 1.358 . S
C7 H65 0.930 . S
C8 N5 1.314 . S
C8 C6 1.353 . S
C8 H66 0.930 . S
C9 N5 1.279 . S
C9 C7 1.358 . S
C9 H67 0.930 . S
C10 C13 1.348 . S
C10 C14 1.356 . S
C10 O61 1.325 . S
C11 N12 1.279 . S
C11 C14 1.358 . S
C11 H68 0.930 . S
N12 C11 1.279 . S
N12 C15 1.314 . S
C13 C10 1.348 . S
C13 C15 1.353 . S
C13 H69 0.929 . S
C14 C10 1.356 . S
C14 C11 1.358 . S
C14 H70 0.930 . S
C15 N12 1.314 . S
C15 C13 1.353 . S
C15 H71 0.930 . S
C16 N17 1.314 . S
C16 C21 1.353 . S
C16 H22 0.930 . S
N17 Li0 1.990 . S
N17 C16 1.314 . S
N17 C19 1.279 . S
C18 C19 1.358 . S
C18 C20 1.356 . S
C18 H72 0.930 . S
C19 N17 1.279 . S
C19 C18 1.358 . S
C19 H23 0.930 . S
C20 C18 1.356 . S
C20 C21 1.348 . S
C21 C16 1.353 . S
C21 C20 1.348 . S
C21 H73 0.929 . S
H22 C16 0.930 . S
H23 C19 0.930 . S
C24 N25 1.314 . S
C24 C26 1.353 . S
C24 H30 0.930 . S
N25 Li1 1.990 . S
N25 C24 1.314 . S
N25 C28 1.279 . S
C26 C24 1.353 . S
C26 C29 1.348 . S
C26 H74 0.929 . S
C27 C28 1.358 . S
C27 C29 1.356 . S
C27 H75 0.930 . S
C28 N25 1.279 . S
C28 C27 1.358 . S
C28 H31 0.930 . S
C29 C26 1.348 . S
C29 C27 1.356 . S
H30 C24 0.930 . S
H31 C28 0.930 . S
C32 C34 1.348 . S
C32 C35 1.356 . S
C32 O62 1.325 . S
N33 C36 1.314 . S
N33 C37 1.279 . S
C34 C32 1.348 . S
C34 C36 1.353 . S
C34 H76 0.929 . S
C35 C32 1.356 . S
C35 C37 1.358 . S
C35 H77 0.930 . S
C36 N33 1.314 . S
C36 C34 1.353 . S
C36 H78 0.930 . S
C37 N33 1.279 . S
C37 C35 1.358 . S
C37 H79 0.930 . S
C38 C39 1.348 . S
C38 C40 1.356 . S
C38 O63 1.325 . S
C39 C38 1.348 . S
C39 C41 1.353 . S
C39 H80 0.929 . S
C40 C38 1.356 . S
C40 C42 1.358 . S
C40 H81 0.930 . S
C41 C39 1.353 . S
C41 N43 1.314 . S
C41 H82 0.930 . S
C42 C40 1.358 . S
C42 N43 1.279 . S
C42 H83 0.930 . S
N43 C41 1.314 . S
N43 C42 1.279 . S
C44 C46 1.353 . S
C44 N47 1.314 . S
C44 H50 0.930 . S
C45 N47 1.279 . S
C45 C48 1.358 . S
C45 H51 0.930 . S
C46 C44 1.353 . S
C46 C49 1.348 . S
C46 H84 0.929 . S
N47 Li2 1.990 . S
N47 C44 1.314 . S
N47 C45 1.279 . S
C48 C45 1.358 . S
C48 C49 1.356 . S
C48 H85 0.930 . S
C49 C46 1.348 . S
C49 C48 1.356 . S
H50 C44 0.930 . S
H51 C45 0.930 . S
C52 N53 1.314 . S
C52 C54 1.353 . S
C52 H58 0.930 . S
N53 Li3 1.990 . S
N53 C52 1.314 . S
N53 C56 1.279 . S
C54 C52 1.353 . S
C54 C57 1.348 . S
C54 H86 0.929 . S
C55 C56 1.358 . S
C55 C57 1.356 . S
C55 H87 0.930 . S
C56 N53 1.279 . S
C56 C55 1.358 . S
C56 H59 0.930 . S
C57 C54 1.348 . S
C57 C55 1.356 . S
H58 C52 0.930 . S
H59 C56 0.930 . S
O60 Li0 1.956 . S
O60 Li1 1.970 . S
O60 Li2 1.961 . S
O60 C4 1.325 . S
O61 Li0 1.970 . S
O61 Li1 1.956 . S
O61 Li3 1.961 . S
O61 C10 1.325 . S
O62 Li0 1.961 . S
O62 Li2 1.956 . S
O62 Li3 1.970 . S
O62 C32 1.325 . S
O63 Li1 1.961 . S
O63 Li2 1.970 . S
O63 Li3 1.956 . S
O63 C38 1.325 . S
H64 C6 0.929 . S
H65 C7 0.930 . S
H66 C8 0.930 . S
H67 C9 0.930 . S
H68 C11 0.930 . S
H69 C13 0.929 . S
H70 C14 0.930 . S
H71 C15 0.930 . S
H72 C18 0.930 . S
H73 C21 0.929 . S
H74 C26 0.929 . S
H75 C27 0.930 . S
H76 C34 0.929 . S
H77 C35 0.930 . S
H78 C36 0.930 . S
H79 C37 0.930 . S
H80 C39 0.929 . S
H81 C40 0.930 . S
H82 C41 0.930 . S
H83 C42 0.930 . S
H84 C46 0.929 . S
H85 C48 0.930 . S
H86 C54 0.929 . S
H87 C55 0.930 . S
Li88 N105 1.990 . S
Li88 O148 1.956 . S
Li88 O149 1.970 . S
Li88 O150 1.961 . S
Li89 N113 1.990 . S
Li89 O148 1.970 . S
Li89 O149 1.956 . S
Li89 O151 1.961 . S
Li90 N135 1.990 . S
Li90 O148 1.961 . S
Li90 O150 1.956 . S
Li90 O151 1.970 . S
Li91 N141 1.990 . S
Li91 O149 1.961 . S
Li91 O150 1.970 . S
Li91 O151 1.956 . S
C92 C94 1.348 . S
C92 C95 1.356 . S
C92 O148 1.325 . S
N93 C96 1.314 . S
N93 C97 1.279 . S
C94 C92 1.348 . S
C94 C96 1.353 . S
C94 H152 0.929 . S
C95 C92 1.356 . S
C95 C97 1.358 . S
C95 H153 0.930 . S
C96 N93 1.314 . S
C96 C94 1.353 . S
C96 H154 0.930 . S
C97 N93 1.279 . S
C97 C95 1.358 . S
C97 H155 0.930 . S
C98 C101 1.348 . S
C98 C102 1.356 . S
C98 O149 1.325 . S
C99 N100 1.279 . S
C99 C102 1.358 . S
C99 H156 0.930 . S
N100 C99 1.279 . S
N100 C103 1.314 . S
C101 C98 1.348 . S
C101 C103 1.353 . S
C101 H157 0.929 . S
C102 C98 1.356 . S
C102 C99 1.358 . S
C102 H158 0.930 . S
C103 N100 1.314 . S
C103 C101 1.353 . S
C103 H159 0.930 . S
C104 N105 1.314 . S
C104 C109 1.353 . S
C104 H110 0.930 . S
N105 Li88 1.990 . S
N105 C104 1.314 . S
N105 C107 1.279 . S
C106 C107 1.358 . S
C106 C108 1.356 . S
C106 H160 0.930 . S
C107 N105 1.279 . S
C107 C106 1.358 . S
C107 H111 0.930 . S
C108 C106 1.356 . S
C108 C109 1.348 . S
C109 C104 1.353 . S
C109 C108 1.348 . S
C109 H161 0.929 . S
H110 C104 0.930 . S
H111 C107 0.930 . S
C112 N113 1.314 . S
C112 C114 1.353 . S
C112 H118 0.930 . S
N113 Li89 1.990 . S
N113 C112 1.314 . S
N113 C116 1.279 . S
C114 C112 1.353 . S
C114 C117 1.348 . S
C114 H162 0.929 . S
C115 C116 1.358 . S
C115 C117 1.356 . S
C115 H163 0.930 . S
C116 N113 1.279 . S
C116 C115 1.358 . S
C116 H119 0.930 . S
C117 C114 1.348 . S
C117 C115 1.356 . S
H118 C112 0.930 . S
H119 C116 0.930 . S
C120 C122 1.348 . S
C120 C123 1.356 . S
C120 O150 1.325 . S
N121 C124 1.314 . S
N121 C125 1.279 . S
C122 C120 1.348 . S
C122 C124 1.353 . S
C122 H164 0.929 . S
C123 C120 1.356 . S
C123 C125 1.358 . S
C123 H165 0.930 . S
C124 N121 1.314 . S
C124 C122 1.353 . S
C124 H166 0.930 . S
C125 N121 1.279 . S
C125 C123 1.358 . S
C125 H167 0.930 . S
C126 C127 1.348 . S
C126 C128 1.356 . S
C126 O151 1.325 . S
C127 C126 1.348 . S
C127 C129 1.353 . S
C127 H168 0.929 . S
C128 C126 1.356 . S
C128 C130 1.358 . S
C128 H169 0.930 . S
C129 C127 1.353 . S
C129 N131 1.314 . S
C129 H170 0.930 . S
C130 C128 1.358 . S
C130 N131 1.279 . S
C130 H171 0.930 . S
N131 C129 1.314 . S
N131 C130 1.279 . S
C132 C134 1.353 . S
C132 N135 1.314 . S
C132 H138 0.930 . S
C133 N135 1.279 . S
C133 C136 1.358 . S
C133 H139 0.930 . S
C134 C132 1.353 . S
C134 C137 1.348 . S
C134 H172 0.929 . S
N135 Li90 1.990 . S
N135 C132 1.314 . S
N135 C133 1.279 . S
C136 C133 1.358 . S
C136 C137 1.356 . S
C136 H173 0.930 . S
C137 C134 1.348 . S
C137 C136 1.356 . S
H138 C132 0.930 . S
H139 C133 0.930 . S
C140 N141 1.314 . S
C140 C142 1.353 . S
C140 H146 0.930 . S
N141 Li91 1.990 . S
N141 C140 1.314 . S
N141 C144 1.279 . S
C142 C140 1.353 . S
C142 C145 1.348 . S
C142 H174 0.929 . S
C143 C144 1.358 . S
C143 C145 1.356 . S
C143 H175 0.930 . S
C144 N141 1.279 . S
C144 C143 1.358 . S
C144 H147 0.930 . S
C145 C142 1.348 . S
C145 C143 1.356 . S
H146 C140 0.930 . S
H147 C144 0.930 . S
O148 Li88 1.956 . S
O148 Li89 1.970 . S
O148 Li90 1.961 . S
O148 C92 1.325 . S
O149 Li88 1.970 . S
O149 Li89 1.956 . S
O149 Li91 1.961 . S
O149 C98 1.325 . S
O150 Li88 1.961 . S
O150 Li90 1.956 . S
O150 Li91 1.970 . S
O150 C120 1.325 . S
O151 Li89 1.961 . S
O151 Li90 1.970 . S
O151 Li91 1.956 . S
O151 C126 1.325 . S
H152 C94 0.929 . S
H153 C95 0.930 . S
H154 C96 0.930 . S
H155 C97 0.930 . S
H156 C99 0.930 . S
H157 C101 0.929 . S
H158 C102 0.930 . S
H159 C103 0.930 . S
H160 C106 0.930 . S
H161 C109 0.929 . S
H162 C114 0.929 . S
H163 C115 0.930 . S
H164 C122 0.929 . S
H165 C123 0.930 . S
H166 C124 0.930 . S
H167 C125 0.930 . S
H168 C127 0.929 . S
H169 C128 0.930 . S
H170 C129 0.930 . S
H171 C130 0.930 . S
H172 C134 0.929 . S
H173 C136 0.930 . S
H174 C142 0.929 . S
H175 C143 0.930 . S
Li176 N193 1.990 . S
Li176 O236 1.956 . S
Li176 O237 1.970 . S
Li176 O238 1.961 . S
Li177 N201 1.990 . S
Li177 O236 1.970 . S
Li177 O237 1.956 . S
Li177 O239 1.961 . S
Li178 N223 1.990 . S
Li178 O236 1.961 . S
Li178 O238 1.956 . S
Li178 O239 1.970 . S
Li179 N229 1.990 . S
Li179 O237 1.961 . S
Li179 O238 1.970 . S
Li179 O239 1.956 . S
C180 C182 1.348 . S
C180 C183 1.356 . S
C180 O236 1.325 . S
N181 C184 1.314 . S
N181 C185 1.279 . S
C182 C180 1.348 . S
C182 C184 1.353 . S
C182 H240 0.929 . S
C183 C180 1.356 . S
C183 C185 1.358 . S
C183 H241 0.930 . S
C184 N181 1.314 . S
C184 C182 1.353 . S
C184 H242 0.930 . S
C185 N181 1.279 . S
C185 C183 1.358 . S
C185 H243 0.930 . S
C186 C189 1.348 . S
C186 C190 1.356 . S
C186 O237 1.325 . S
C187 N188 1.279 . S
C187 C190 1.358 . S
C187 H244 0.930 . S
N188 C187 1.279 . S
N188 C191 1.314 . S
C189 C186 1.348 . S
C189 C191 1.353 . S
C189 H245 0.929 . S
C190 C186 1.356 . S
C190 C187 1.358 . S
C190 H246 0.930 . S
C191 N188 1.314 . S
C191 C189 1.353 . S
C191 H247 0.930 . S
C192 N193 1.314 . S
C192 C197 1.353 . S
C192 H198 0.930 . S
N193 Li176 1.990 . S
N193 C192 1.314 . S
N193 C195 1.279 . S
C194 C195 1.358 . S
C194 C196 1.356 . S
C194 H248 0.930 . S
C195 N193 1.279 . S
C195 C194 1.358 . S
C195 H199 0.930 . S
C196 C194 1.356 . S
C196 C197 1.348 . S
C197 C192 1.353 . S
C197 C196 1.348 . S
C197 H249 0.929 . S
H198 C192 0.930 . S
H199 C195 0.930 . S
C200 N201 1.314 . S
C200 C202 1.353 . S
C200 H206 0.930 . S
N201 Li177 1.990 . S
N201 C200 1.314 . S
N201 C204 1.279 . S
C202 C200 1.353 . S
C202 C205 1.348 . S
C202 H250 0.929 . S
C203 C204 1.358 . S
C203 C205 1.356 . S
C203 H251 0.930 . S
C204 N201 1.279 . S
C204 C203 1.358 . S
C204 H207 0.930 . S
C205 C202 1.348 . S
C205 C203 1.356 . S
H206 C200 0.930 . S
H207 C204 0.930 . S
C208 C210 1.348 . S
C208 C211 1.356 . S
C208 O238 1.325 . S
N209 C212 1.314 . S
N209 C213 1.279 . S
C210 C208 1.348 . S
C210 C212 1.353 . S
C210 H252 0.929 . S
C211 C208 1.356 . S
C211 C213 1.358 . S
C211 H253 0.930 . S
C212 N209 1.314 . S
C212 C210 1.353 . S
C212 H254 0.930 . S
C213 N209 1.279 . S
C213 C211 1.358 . S
C213 H255 0.930 . S
C214 C215 1.348 . S
C214 C216 1.356 . S
C214 O239 1.325 . S
C215 C214 1.348 . S
C215 C217 1.353 . S
C215 H256 0.929 . S
C216 C214 1.356 . S
C216 C218 1.358 . S
C216 H257 0.930 . S
C217 C215 1.353 . S
C217 N219 1.314 . S
C217 H258 0.930 . S
C218 C216 1.358 . S
C218 N219 1.279 . S
C218 H259 0.930 . S
N219 C217 1.314 . S
N219 C218 1.279 . S
C220 C222 1.353 . S
C220 N223 1.314 . S
C220 H226 0.930 . S
C221 N223 1.279 . S
C221 C224 1.358 . S
C221 H227 0.930 . S
C222 C220 1.353 . S
C222 C225 1.348 . S
C222 H260 0.929 . S
N223 Li178 1.990 . S
N223 C220 1.314 . S
N223 C221 1.279 . S
C224 C221 1.358 . S
C224 C225 1.356 . S
C224 H261 0.930 . S
C225 C222 1.348 . S
C225 C224 1.356 . S
H226 C220 0.930 . S
H227 C221 0.930 . S
C228 N229 1.314 . S
C228 C230 1.353 . S
C228 H234 0.930 . S
N229 Li179 1.990 . S
N229 C228 1.314 . S
N229 C232 1.279 . S
C230 C228 1.353 . S
C230 C233 1.348 . S
C230 H262 0.929 . S
C231 C232 1.358 . S
C231 C233 1.356 . S
C231 H263 0.930 . S
C232 N229 1.279 . S
C232 C231 1.358 . S
C232 H235 0.930 . S
C233 C230 1.348 . S
C233 C231 1.356 . S
H234 C228 0.930 . S
H235 C232 0.930 . S
O236 Li176 1.956 . S
O236 Li177 1.970 . S
O236 Li178 1.961 . S
O236 C180 1.325 . S
O237 Li176 1.970 . S
O237 Li177 1.956 . S
O237 Li179 1.961 . S
O237 C186 1.325 . S
O238 Li176 1.961 . S
O238 Li178 1.956 . S
O238 Li179 1.970 . S
O238 C208 1.325 . S
O239 Li177 1.961 . S
O239 Li178 1.970 . S
O239 Li179 1.956 . S
O239 C214 1.325 . S
H240 C182 0.929 . S
H241 C183 0.930 . S
H242 C184 0.930 . S
H243 C185 0.930 . S
H244 C187 0.930 . S
H245 C189 0.929 . S
H246 C190 0.930 . S
H247 C191 0.930 . S
H248 C194 0.930 . S
H249 C197 0.929 . S
H250 C202 0.929 . S
H251 C203 0.930 . S
H252 C210 0.929 . S
H253 C211 0.930 . S
H254 C212 0.930 . S
H255 C213 0.930 . S
H256 C215 0.929 . S
H257 C216 0.930 . S
H258 C217 0.930 . S
H259 C218 0.930 . S
H260 C222 0.929 . S
H261 C224 0.930 . S
H262 C230 0.929 . S
H263 C231 0.930 . S
Li264 N281 1.990 . S
Li264 O324 1.956 . S
Li264 O325 1.970 . S
Li264 O326 1.961 . S
Li265 N289 1.990 . S
Li265 O324 1.970 . S
Li265 O325 1.956 . S
Li265 O327 1.961 . S
Li266 N311 1.990 . S
Li266 O324 1.961 . S
Li266 O326 1.956 . S
Li266 O327 1.970 . S
Li267 N317 1.990 . S
Li267 O325 1.961 . S
Li267 O326 1.970 . S
Li267 O327 1.956 . S
C268 C270 1.348 . S
C268 C271 1.356 . S
C268 O324 1.325 . S
N269 C272 1.314 . S
N269 C273 1.279 . S
C270 C268 1.348 . S
C270 C272 1.353 . S
C270 H328 0.929 . S
C271 C268 1.356 . S
C271 C273 1.358 . S
C271 H329 0.930 . S
C272 N269 1.314 . S
C272 C270 1.353 . S
C272 H330 0.930 . S
C273 N269 1.279 . S
C273 C271 1.358 . S
C273 H331 0.930 . S
C274 C277 1.348 . S
C274 C278 1.356 . S
C274 O325 1.325 . S
C275 N276 1.279 . S
C275 C278 1.358 . S
C275 H332 0.930 . S
N276 C275 1.279 . S
N276 C279 1.314 . S
C277 C274 1.348 . S
C277 C279 1.353 . S
C277 H333 0.929 . S
C278 C274 1.356 . S
C278 C275 1.358 . S
C278 H334 0.930 . S
C279 N276 1.314 . S
C279 C277 1.353 . S
C279 H335 0.930 . S
C280 N281 1.314 . S
C280 C285 1.353 . S
C280 H286 0.930 . S
N281 Li264 1.990 . S
N281 C280 1.314 . S
N281 C283 1.279 . S
C282 C283 1.358 . S
C282 C284 1.356 . S
C282 H336 0.930 . S
C283 N281 1.279 . S
C283 C282 1.358 . S
C283 H287 0.930 . S
C284 C282 1.356 . S
C284 C285 1.348 . S
C285 C280 1.353 . S
C285 C284 1.348 . S
C285 H337 0.929 . S
H286 C280 0.930 . S
H287 C283 0.930 . S
C288 N289 1.314 . S
C288 C290 1.353 . S
C288 H294 0.930 . S
N289 Li265 1.990 . S
N289 C288 1.314 . S
N289 C292 1.279 . S
C290 C288 1.353 . S
C290 C293 1.348 . S
C290 H338 0.929 . S
C291 C292 1.358 . S
C291 C293 1.356 . S
C291 H339 0.930 . S
C292 N289 1.279 . S
C292 C291 1.358 . S
C292 H295 0.930 . S
C293 C290 1.348 . S
C293 C291 1.356 . S
H294 C288 0.930 . S
H295 C292 0.930 . S
C296 C298 1.348 . S
C296 C299 1.356 . S
C296 O326 1.325 . S
N297 C300 1.314 . S
N297 C301 1.279 . S
C298 C296 1.348 . S
C298 C300 1.353 . S
C298 H340 0.929 . S
C299 C296 1.356 . S
C299 C301 1.358 . S
C299 H341 0.930 . S
C300 N297 1.314 . S
C300 C298 1.353 . S
C300 H342 0.930 . S
C301 N297 1.279 . S
C301 C299 1.358 . S
C301 H343 0.930 . S
C302 C303 1.348 . S
C302 C304 1.356 . S
C302 O327 1.325 . S
C303 C302 1.348 . S
C303 C305 1.353 . S
C303 H344 0.929 . S
C304 C302 1.356 . S
C304 C306 1.358 . S
C304 H345 0.930 . S
C305 C303 1.353 . S
C305 N307 1.314 . S
C305 H346 0.930 . S
C306 C304 1.358 . S
C306 N307 1.279 . S
C306 H347 0.930 . S
N307 C305 1.314 . S
N307 C306 1.279 . S
C308 C310 1.353 . S
C308 N311 1.314 . S
C308 H314 0.930 . S
C309 N311 1.279 . S
C309 C312 1.358 . S
C309 H315 0.930 . S
C310 C308 1.353 . S
C310 C313 1.348 . S
C310 H348 0.929 . S
N311 Li266 1.990 . S
N311 C308 1.314 . S
N311 C309 1.279 . S
C312 C309 1.358 . S
C312 C313 1.356 . S
C312 H349 0.930 . S
C313 C310 1.348 . S
C313 C312 1.356 . S
H314 C308 0.930 . S
H315 C309 0.930 . S
C316 N317 1.314 . S
C316 C318 1.353 . S
C316 H322 0.930 . S
N317 Li267 1.990 . S
N317 C316 1.314 . S
N317 C320 1.279 . S
C318 C316 1.353 . S
C318 C321 1.348 . S
C318 H350 0.929 . S
C319 C320 1.358 . S
C319 C321 1.356 . S
C319 H351 0.930 . S
C320 N317 1.279 . S
C320 C319 1.358 . S
C320 H323 0.930 . S
C321 C318 1.348 . S
C321 C319 1.356 . S
H322 C316 0.930 . S
H323 C320 0.930 . S
O324 Li264 1.956 . S
O324 Li265 1.970 . S
O324 Li266 1.961 . S
O324 C268 1.325 . S
O325 Li264 1.970 . S
O325 Li265 1.956 . S
O325 Li267 1.961 . S
O325 C274 1.325 . S
O326 Li264 1.961 . S
O326 Li266 1.956 . S
O326 Li267 1.970 . S
O326 C296 1.325 . S
O327 Li265 1.961 . S
O327 Li266 1.970 . S
O327 Li267 1.956 . S
O327 C302 1.325 . S
H328 C270 0.929 . S
H329 C271 0.930 . S
H330 C272 0.930 . S
H331 C273 0.930 . S
H332 C275 0.930 . S
H333 C277 0.929 . S
H334 C278 0.930 . S
H335 C279 0.930 . S
H336 C282 0.930 . S
H337 C285 0.929 . S
H338 C290 0.929 . S
H339 C291 0.930 . S
H340 C298 0.929 . S
H341 C299 0.930 . S
H342 C300 0.930 . S
H343 C301 0.930 . S
H344 C303 0.929 . S
H345 C304 0.930 . S
H346 C305 0.930 . S
H347 C306 0.930 . S
H348 C310 0.929 . S
H349 C312 0.930 . S
H350 C318 0.929 . S
H351 C319 0.930 . S
Li352 N369 1.990 . S
Li352 O412 1.956 . S
Li352 O413 1.970 . S
Li352 O414 1.961 . S
Li353 N377 1.990 . S
Li353 O412 1.970 . S
Li353 O413 1.956 . S
Li353 O415 1.961 . S
Li354 N399 1.990 . S
Li354 O412 1.961 . S
Li354 O414 1.956 . S
Li354 O415 1.970 . S
Li355 N405 1.990 . S
Li355 O413 1.961 . S
Li355 O414 1.970 . S
Li355 O415 1.956 . S
C356 C358 1.348 . S
C356 C359 1.356 . S
C356 O412 1.325 . S
N357 C360 1.314 . S
N357 C361 1.279 . S
C358 C356 1.348 . S
C358 C360 1.353 . S
C358 H416 0.929 . S
C359 C356 1.356 . S
C359 C361 1.358 . S
C359 H417 0.930 . S
C360 N357 1.314 . S
C360 C358 1.353 . S
C360 H418 0.930 . S
C361 N357 1.279 . S
C361 C359 1.358 . S
C361 H419 0.930 . S
C362 C365 1.348 . S
C362 C366 1.356 . S
C362 O413 1.325 . S
C363 N364 1.279 . S
C363 C366 1.358 . S
C363 H420 0.930 . S
N364 C363 1.279 . S
N364 C367 1.314 . S
C365 C362 1.348 . S
C365 C367 1.353 . S
C365 H421 0.929 . S
C366 C362 1.356 . S
C366 C363 1.358 . S
C366 H422 0.930 . S
C367 N364 1.314 . S
C367 C365 1.353 . S
C367 H423 0.930 . S
C368 N369 1.314 . S
C368 C373 1.353 . S
C368 H374 0.930 . S
N369 Li352 1.990 . S
N369 C368 1.314 . S
N369 C371 1.279 . S
C370 C371 1.358 . S
C370 C372 1.356 . S
C370 H424 0.930 . S
C371 N369 1.279 . S
C371 C370 1.358 . S
C371 H375 0.930 . S
C372 C370 1.356 . S
C372 C373 1.348 . S
C373 C368 1.353 . S
C373 C372 1.348 . S
C373 H425 0.929 . S
H374 C368 0.930 . S
H375 C371 0.930 . S
C376 N377 1.314 . S
C376 C378 1.353 . S
C376 H382 0.930 . S
N377 Li353 1.990 . S
N377 C376 1.314 . S
N377 C380 1.279 . S
C378 C376 1.353 . S
C378 C381 1.348 . S
C378 H426 0.929 . S
C379 C380 1.358 . S
C379 C381 1.356 . S
C379 H427 0.930 . S
C380 N377 1.279 . S
C380 C379 1.358 . S
C380 H383 0.930 . S
C381 C378 1.348 . S
C381 C379 1.356 . S
H382 C376 0.930 . S
H383 C380 0.930 . S
C384 C386 1.348 . S
C384 C387 1.356 . S
C384 O414 1.325 . S
N385 C388 1.314 . S
N385 C389 1.279 . S
C386 C384 1.348 . S
C386 C388 1.353 . S
C386 H428 0.929 . S
C387 C384 1.356 . S
C387 C389 1.358 . S
C387 H429 0.930 . S
C388 N385 1.314 . S
C388 C386 1.353 . S
C388 H430 0.930 . S
C389 N385 1.279 . S
C389 C387 1.358 . S
C389 H431 0.930 . S
C390 C391 1.348 . S
C390 C392 1.356 . S
C390 O415 1.325 . S
C391 C390 1.348 . S
C391 C393 1.353 . S
C391 H432 0.929 . S
C392 C390 1.356 . S
C392 C394 1.358 . S
C392 H433 0.930 . S
C393 C391 1.353 . S
C393 N395 1.314 . S
C393 H434 0.930 . S
C394 C392 1.358 . S
C394 N395 1.279 . S
C394 H435 0.930 . S
N395 C393 1.314 . S
N395 C394 1.279 . S
C396 C398 1.353 . S
C396 N399 1.314 . S
C396 H402 0.930 . S
C397 N399 1.279 . S
C397 C400 1.358 . S
C397 H403 0.930 . S
C398 C396 1.353 . S
C398 C401 1.348 . S
C398 H436 0.929 . S
N399 Li354 1.990 . S
N399 C396 1.314 . S
N399 C397 1.279 . S
C400 C397 1.358 . S
C400 C401 1.356 . S
C400 H437 0.930 . S
C401 C398 1.348 . S
C401 C400 1.356 . S
H402 C396 0.930 . S
H403 C397 0.930 . S
C404 N405 1.314 . S
C404 C406 1.353 . S
C404 H410 0.930 . S
N405 Li355 1.990 . S
N405 C404 1.314 . S
N405 C408 1.279 . S
C406 C404 1.353 . S
C406 C409 1.348 . S
C406 H438 0.929 . S
C407 C408 1.358 . S
C407 C409 1.356 . S
C407 H439 0.930 . S
C408 N405 1.279 . S
C408 C407 1.358 . S
C408 H411 0.930 . S
C409 C406 1.348 . S
C409 C407 1.356 . S
H410 C404 0.930 . S
H411 C408 0.930 . S
O412 Li352 1.956 . S
O412 Li353 1.970 . S
O412 Li354 1.961 . S
O412 C356 1.325 . S
O413 Li352 1.970 . S
O413 Li353 1.956 . S
O413 Li355 1.961 . S
O413 C362 1.325 . S
O414 Li352 1.961 . S
O414 Li354 1.956 . S
O414 Li355 1.970 . S
O414 C384 1.325 . S
O415 Li353 1.961 . S
O415 Li354 1.970 . S
O415 Li355 1.956 . S
O415 C390 1.325 . S
H416 C358 0.929 . S
H417 C359 0.930 . S
H418 C360 0.930 . S
H419 C361 0.930 . S
H420 C363 0.930 . S
H421 C365 0.929 . S
H422 C366 0.930 . S
H423 C367 0.930 . S
H424 C370 0.930 . S
H425 C373 0.929 . S
H426 C378 0.929 . S
H427 C379 0.930 . S
H428 C386 0.929 . S
H429 C387 0.930 . S
H430 C388 0.930 . S
H431 C389 0.930 . S
H432 C391 0.929 . S
H433 C392 0.930 . S
H434 C393 0.930 . S
H435 C394 0.930 . S
H436 C398 0.929 . S
H437 C400 0.930 . S
H438 C406 0.929 . S
H439 C407 0.930 . S
Li440 N457 1.990 . S
Li440 O500 1.956 . S
Li440 O501 1.970 . S
Li440 O502 1.961 . S
Li441 N465 1.990 . S
Li441 O500 1.970 . S
Li441 O501 1.956 . S
Li441 O503 1.961 . S
Li442 N487 1.990 . S
Li442 O500 1.961 . S
Li442 O502 1.956 . S
Li442 O503 1.970 . S
Li443 N493 1.990 . S
Li443 O501 1.961 . S
Li443 O502 1.970 . S
Li443 O503 1.956 . S
C444 C446 1.348 . S
C444 C447 1.356 . S
C444 O500 1.325 . S
N445 C448 1.314 . S
N445 C449 1.279 . S
C446 C444 1.348 . S
C446 C448 1.353 . S
C446 H504 0.929 . S
C447 C444 1.356 . S
C447 C449 1.358 . S
C447 H505 0.930 . S
C448 N445 1.314 . S
C448 C446 1.353 . S
C448 H506 0.930 . S
C449 N445 1.279 . S
C449 C447 1.358 . S
C449 H507 0.930 . S
C450 C453 1.348 . S
C450 C454 1.356 . S
C450 O501 1.325 . S
C451 N452 1.279 . S
C451 C454 1.358 . S
C451 H508 0.930 . S
N452 C451 1.279 . S
N452 C455 1.314 . S
C453 C450 1.348 . S
C453 C455 1.353 . S
C453 H509 0.929 . S
C454 C450 1.356 . S
C454 C451 1.358 . S
C454 H510 0.930 . S
C455 N452 1.314 . S
C455 C453 1.353 . S
C455 H511 0.930 . S
C456 N457 1.314 . S
C456 C461 1.353 . S
C456 H462 0.930 . S
N457 Li440 1.990 . S
N457 C456 1.314 . S
N457 C459 1.279 . S
C458 C459 1.358 . S
C458 C460 1.356 . S
C458 H512 0.930 . S
C459 N457 1.279 . S
C459 C458 1.358 . S
C459 H463 0.930 . S
C460 C458 1.356 . S
C460 C461 1.348 . S
C461 C456 1.353 . S
C461 C460 1.348 . S
C461 H513 0.929 . S
H462 C456 0.930 . S
H463 C459 0.930 . S
C464 N465 1.314 . S
C464 C466 1.353 . S
C464 H470 0.930 . S
N465 Li441 1.990 . S
N465 C464 1.314 . S
N465 C468 1.279 . S
C466 C464 1.353 . S
C466 C469 1.348 . S
C466 H514 0.929 . S
C467 C468 1.358 . S
C467 C469 1.356 . S
C467 H515 0.930 . S
C468 N465 1.279 . S
C468 C467 1.358 . S
C468 H471 0.930 . S
C469 C466 1.348 . S
C469 C467 1.356 . S
H470 C464 0.930 . S
H471 C468 0.930 . S
C472 C474 1.348 . S
C472 C475 1.356 . S
C472 O502 1.325 . S
N473 C476 1.314 . S
N473 C477 1.279 . S
C474 C472 1.348 . S
C474 C476 1.353 . S
C474 H516 0.929 . S
C475 C472 1.356 . S
C475 C477 1.358 . S
C475 H517 0.930 . S
C476 N473 1.314 . S
C476 C474 1.353 . S
C476 H518 0.930 . S
C477 N473 1.279 . S
C477 C475 1.358 . S
C477 H519 0.930 . S
C478 C479 1.348 . S
C478 C480 1.356 . S
C478 O503 1.325 . S
C479 C478 1.348 . S
C479 C481 1.353 . S
C479 H520 0.929 . S
C480 C478 1.356 . S
C480 C482 1.358 . S
C480 H521 0.930 . S
C481 C479 1.353 . S
C481 N483 1.314 . S
C481 H522 0.930 . S
C482 C480 1.358 . S
C482 N483 1.279 . S
C482 H523 0.930 . S
N483 C481 1.314 . S
N483 C482 1.279 . S
C484 C486 1.353 . S
C484 N487 1.314 . S
C484 H490 0.930 . S
C485 N487 1.279 . S
C485 C488 1.358 . S
C485 H491 0.930 . S
C486 C484 1.353 . S
C486 C489 1.348 . S
C486 H524 0.929 . S
N487 Li442 1.990 . S
N487 C484 1.314 . S
N487 C485 1.279 . S
C488 C485 1.358 . S
C488 C489 1.356 . S
C488 H525 0.930 . S
C489 C486 1.348 . S
C489 C488 1.356 . S
H490 C484 0.930 . S
H491 C485 0.930 . S
C492 N493 1.314 . S
C492 C494 1.353 . S
C492 H498 0.930 . S
N493 Li443 1.990 . S
N493 C492 1.314 . S
N493 C496 1.279 . S
C494 C492 1.353 . S
C494 C497 1.348 . S
C494 H526 0.929 . S
C495 C496 1.358 . S
C495 C497 1.356 . S
C495 H527 0.930 . S
C496 N493 1.279 . S
C496 C495 1.358 . S
C496 H499 0.930 . S
C497 C494 1.348 . S
C497 C495 1.356 . S
H498 C492 0.930 . S
H499 C496 0.930 . S
O500 Li440 1.956 . S
O500 Li441 1.970 . S
O500 Li442 1.961 . S
O500 C444 1.325 . S
O501 Li440 1.970 . S
O501 Li441 1.956 . S
O501 Li443 1.961 . S
O501 C450 1.325 . S
O502 Li440 1.961 . S
O502 Li442 1.956 . S
O502 Li443 1.970 . S
O502 C472 1.325 . S
O503 Li441 1.961 . S
O503 Li442 1.970 . S
O503 Li443 1.956 . S
O503 C478 1.325 . S
H504 C446 0.929 . S
H505 C447 0.930 . S
H506 C448 0.930 . S
H507 C449 0.930 . S
H508 C451 0.930 . S
H509 C453 0.929 . S
H510 C454 0.930 . S
H511 C455 0.930 . S
H512 C458 0.930 . S
H513 C461 0.929 . S
H514 C466 0.929 . S
H515 C467 0.930 . S
H516 C474 0.929 . S
H517 C475 0.930 . S
H518 C476 0.930 . S
H519 C477 0.930 . S
H520 C479 0.929 . S
H521 C480 0.930 . S
H522 C481 0.930 . S
H523 C482 0.930 . S
H524 C486 0.929 . S
H525 C488 0.930 . S
H526 C494 0.929 . S
H527 C495 0.930 . S
Li528 N545 1.990 . S
Li528 O588 1.956 . S
Li528 O589 1.970 . S
Li528 O590 1.961 . S
Li529 N553 1.990 . S
Li529 O588 1.970 . S
Li529 O589 1.956 . S
Li529 O591 1.961 . S
Li530 N575 1.990 . S
Li530 O588 1.961 . S
Li530 O590 1.956 . S
Li530 O591 1.970 . S
Li531 N581 1.990 . S
Li531 O589 1.961 . S
Li531 O590 1.970 . S
Li531 O591 1.956 . S
C532 C534 1.348 . S
C532 C535 1.356 . S
C532 O588 1.325 . S
N533 C536 1.314 . S
N533 C537 1.279 . S
C534 C532 1.348 . S
C534 C536 1.353 . S
C534 H592 0.929 . S
C535 C532 1.356 . S
C535 C537 1.358 . S
C535 H593 0.930 . S
C536 N533 1.314 . S
C536 C534 1.353 . S
C536 H594 0.930 . S
C537 N533 1.279 . S
C537 C535 1.358 . S
C537 H595 0.930 . S
C538 C541 1.348 . S
C538 C542 1.356 . S
C538 O589 1.325 . S
C539 N540 1.279 . S
C539 C542 1.358 . S
C539 H596 0.930 . S
N540 C539 1.279 . S
N540 C543 1.314 . S
C541 C538 1.348 . S
C541 C543 1.353 . S
C541 H597 0.929 . S
C542 C538 1.356 . S
C542 C539 1.358 . S
C542 H598 0.930 . S
C543 N540 1.314 . S
C543 C541 1.353 . S
C543 H599 0.930 . S
C544 N545 1.314 . S
C544 C549 1.353 . S
C544 H550 0.930 . S
N545 Li528 1.990 . S
N545 C544 1.314 . S
N545 C547 1.279 . S
C546 C547 1.358 . S
C546 C548 1.356 . S
C546 H600 0.930 . S
C547 N545 1.279 . S
C547 C546 1.358 . S
C547 H551 0.930 . S
C548 C546 1.356 . S
C548 C549 1.348 . S
C549 C544 1.353 . S
C549 C548 1.348 . S
C549 H601 0.929 . S
H550 C544 0.930 . S
H551 C547 0.930 . S
C552 N553 1.314 . S
C552 C554 1.353 . S
C552 H558 0.930 . S
N553 Li529 1.990 . S
N553 C552 1.314 . S
N553 C556 1.279 . S
C554 C552 1.353 . S
C554 C557 1.348 . S
C554 H602 0.929 . S
C555 C556 1.358 . S
C555 C557 1.356 . S
C555 H603 0.930 . S
C556 N553 1.279 . S
C556 C555 1.358 . S
C556 H559 0.930 . S
C557 C554 1.348 . S
C557 C555 1.356 . S
H558 C552 0.930 . S
H559 C556 0.930 . S
C560 C562 1.348 . S
C560 C563 1.356 . S
C560 O590 1.325 . S
N561 C564 1.314 . S
N561 C565 1.279 . S
C562 C560 1.348 . S
C562 C564 1.353 . S
C562 H604 0.929 . S
C563 C560 1.356 . S
C563 C565 1.358 . S
C563 H605 0.930 . S
C564 N561 1.314 . S
C564 C562 1.353 . S
C564 H606 0.930 . S
C565 N561 1.279 . S
C565 C563 1.358 . S
C565 H607 0.930 . S
C566 C567 1.348 . S
C566 C568 1.356 . S
C566 O591 1.325 . S
C567 C566 1.348 . S
C567 C569 1.353 . S
C567 H608 0.929 . S
C568 C566 1.356 . S
C568 C570 1.358 . S
C568 H609 0.930 . S
C569 C567 1.353 . S
C569 N571 1.314 . S
C569 H610 0.930 . S
C570 C568 1.358 . S
C570 N571 1.279 . S
C570 H611 0.930 . S
N571 C569 1.314 . S
N571 C570 1.279 . S
C572 C574 1.353 . S
C572 N575 1.314 . S
C572 H578 0.930 . S
C573 N575 1.279 . S
C573 C576 1.358 . S
C573 H579 0.930 . S
C574 C572 1.353 . S
C574 C577 1.348 . S
C574 H612 0.929 . S
N575 Li530 1.990 . S
N575 C572 1.314 . S
N575 C573 1.279 . S
C576 C573 1.358 . S
C576 C577 1.356 . S
C576 H613 0.930 . S
C577 C574 1.348 . S
C577 C576 1.356 . S
H578 C572 0.930 . S
H579 C573 0.930 . S
C580 N581 1.314 . S
C580 C582 1.353 . S
C580 H586 0.930 . S
N581 Li531 1.990 . S
N581 C580 1.314 . S
N581 C584 1.279 . S
C582 C580 1.353 . S
C582 C585 1.348 . S
C582 H614 0.929 . S
C583 C584 1.358 . S
C583 C585 1.356 . S
C583 H615 0.930 . S
C584 N581 1.279 . S
C584 C583 1.358 . S
C584 H587 0.930 . S
C585 C582 1.348 . S
C585 C583 1.356 . S
H586 C580 0.930 . S
H587 C584 0.930 . S
O588 Li528 1.956 . S
O588 Li529 1.970 . S
O588 Li530 1.961 . S
O588 C532 1.325 . S
O589 Li528 1.970 . S
O589 Li529 1.956 . S
O589 Li531 1.961 . S
O589 C538 1.325 . S
O590 Li528 1.961 . S
O590 Li530 1.956 . S
O590 Li531 1.970 . S
O590 C560 1.325 . S
O591 Li529 1.961 . S
O591 Li530 1.970 . S
O591 Li531 1.956 . S
O591 C566 1.325 . S
H592 C534 0.929 . S
H593 C535 0.930 . S
H594 C536 0.930 . S
H595 C537 0.930 . S
H596 C539 0.930 . S
H597 C541 0.929 . S
H598 C542 0.930 . S
H599 C543 0.930 . S
H600 C546 0.930 . S
H601 C549 0.929 . S
H602 C554 0.929 . S
H603 C555 0.930 . S
H604 C562 0.929 . S
H605 C563 0.930 . S
H606 C564 0.930 . S
H607 C565 0.930 . S
H608 C567 0.929 . S
H609 C568 0.930 . S
H610 C569 0.930 . S
H611 C570 0.930 . S
H612 C574 0.929 . S
H613 C576 0.930 . S
H614 C582 0.929 . S
H615 C583 0.930 . S
Li616 N633 1.990 . S
Li616 O676 1.956 . S
Li616 O677 1.970 . S
Li616 O678 1.961 . S
Li617 N641 1.990 . S
Li617 O676 1.970 . S
Li617 O677 1.956 . S
Li617 O679 1.961 . S
Li618 N663 1.990 . S
Li618 O676 1.961 . S
Li618 O678 1.956 . S
Li618 O679 1.970 . S
Li619 N669 1.990 . S
Li619 O677 1.961 . S
Li619 O678 1.970 . S
Li619 O679 1.956 . S
C620 C622 1.348 . S
C620 C623 1.356 . S
C620 O676 1.325 . S
N621 C624 1.314 . S
N621 C625 1.279 . S
C622 C620 1.348 . S
C622 C624 1.353 . S
C622 H680 0.929 . S
C623 C620 1.356 . S
C623 C625 1.358 . S
C623 H681 0.930 . S
C624 N621 1.314 . S
C624 C622 1.353 . S
C624 H682 0.930 . S
C625 N621 1.279 . S
C625 C623 1.358 . S
C625 H683 0.930 . S
C626 C629 1.348 . S
C626 C630 1.356 . S
C626 O677 1.325 . S
C627 N628 1.279 . S
C627 C630 1.358 . S
C627 H684 0.930 . S
N628 C627 1.279 . S
N628 C631 1.314 . S
C629 C626 1.348 . S
C629 C631 1.353 . S
C629 H685 0.929 . S
C630 C626 1.356 . S
C630 C627 1.358 . S
C630 H686 0.930 . S
C631 N628 1.314 . S
C631 C629 1.353 . S
C631 H687 0.930 . S
C632 N633 1.314 . S
C632 C637 1.353 . S
C632 H638 0.930 . S
N633 Li616 1.990 . S
N633 C632 1.314 . S
N633 C635 1.279 . S
C634 C635 1.358 . S
C634 C636 1.356 . S
C634 H688 0.930 . S
C635 N633 1.279 . S
C635 C634 1.358 . S
C635 H639 0.930 . S
C636 C634 1.356 . S
C636 C637 1.348 . S
C637 C632 1.353 . S
C637 C636 1.348 . S
C637 H689 0.929 . S
H638 C632 0.930 . S
H639 C635 0.930 . S
C640 N641 1.314 . S
C640 C642 1.353 . S
C640 H646 0.930 . S
N641 Li617 1.990 . S
N641 C640 1.314 . S
N641 C644 1.279 . S
C642 C640 1.353 . S
C642 C645 1.348 . S
C642 H690 0.929 . S
C643 C644 1.358 . S
C643 C645 1.356 . S
C643 H691 0.930 . S
C644 N641 1.279 . S
C644 C643 1.358 . S
C644 H647 0.930 . S
C645 C642 1.348 . S
C645 C643 1.356 . S
H646 C640 0.930 . S
H647 C644 0.930 . S
C648 C650 1.348 . S
C648 C651 1.356 . S
C648 O678 1.325 . S
N649 C652 1.314 . S
N649 C653 1.279 . S
C650 C648 1.348 . S
C650 C652 1.353 . S
C650 H692 0.929 . S
C651 C648 1.356 . S
C651 C653 1.358 . S
C651 H693 0.930 . S
C652 N649 1.314 . S
C652 C650 1.353 . S
C652 H694 0.930 . S
C653 N649 1.279 . S
C653 C651 1.358 . S
C653 H695 0.930 . S
C654 C655 1.348 . S
C654 C656 1.356 . S
C654 O679 1.325 . S
C655 C654 1.348 . S
C655 C657 1.353 . S
C655 H696 0.929 . S
C656 C654 1.356 . S
C656 C658 1.358 . S
C656 H697 0.930 . S
C657 C655 1.353 . S
C657 N659 1.314 . S
C657 H698 0.930 . S
C658 C656 1.358 . S
C658 N659 1.279 . S
C658 H699 0.930 . S
N659 C657 1.314 . S
N659 C658 1.279 . S
C660 C662 1.353 . S
C660 N663 1.314 . S
C660 H666 0.930 . S
C661 N663 1.279 . S
C661 C664 1.358 . S
C661 H667 0.930 . S
C662 C660 1.353 . S
C662 C665 1.348 . S
C662 H700 0.929 . S
N663 Li618 1.990 . S
N663 C660 1.314 . S
N663 C661 1.279 . S
C664 C661 1.358 . S
C664 C665 1.356 . S
C664 H701 0.930 . S
C665 C662 1.348 . S
C665 C664 1.356 . S
H666 C660 0.930 . S
H667 C661 0.930 . S
C668 N669 1.314 . S
C668 C670 1.353 . S
C668 H674 0.930 . S
N669 Li619 1.990 . S
N669 C668 1.314 . S
N669 C672 1.279 . S
C670 C668 1.353 . S
C670 C673 1.348 . S
C670 H702 0.929 . S
C671 C672 1.358 . S
C671 C673 1.356 . S
C671 H703 0.930 . S
C672 N669 1.279 . S
C672 C671 1.358 . S
C672 H675 0.930 . S
C673 C670 1.348 . S
C673 C671 1.356 . S
H674 C668 0.930 . S
H675 C672 0.930 . S
O676 Li616 1.956 . S
O676 Li617 1.970 . S
O676 Li618 1.961 . S
O676 C620 1.325 . S
O677 Li616 1.970 . S
O677 Li617 1.956 . S
O677 Li619 1.961 . S
O677 C626 1.325 . S
O678 Li616 1.961 . S
O678 Li618 1.956 . S
O678 Li619 1.970 . S
O678 C648 1.325 . S
O679 Li617 1.961 . S
O679 Li618 1.970 . S
O679 Li619 1.956 . S
O679 C654 1.325 . S
H680 C622 0.929 . S
H681 C623 0.930 . S
H682 C624 0.930 . S
H683 C625 0.930 . S
H684 C627 0.930 . S
H685 C629 0.929 . S
H686 C630 0.930 . S
H687 C631 0.930 . S
H688 C634 0.930 . S
H689 C637 0.929 . S
H690 C642 0.929 . S
H691 C643 0.930 . S
H692 C650 0.929 . S
H693 C651 0.930 . S
H694 C652 0.930 . S
H695 C653 0.930 . S
H696 C655 0.929 . S
H697 C656 0.930 . S
H698 C657 0.930 . S
H699 C658 0.930 . S
H700 C662 0.929 . S
H701 C664 0.930 . S
H702 C670 0.929 . S
H703 C671 0.930 . S
C704 C705 1.349 . S
C704 C706 1.327 . S
C704 H729 0.950 . S
C705 C704 1.349 . S
C705 C721 1.349 . S
C706 C704 1.327 . S
C706 C725 1.429 . S
C706 H730 0.950 . S
C707 C724 1.574 . S
C707 C726 1.368 . S
C707 H731 0.949 . S
H708 C712 0.949 . S
C709 C710 1.349 . S
C709 C711 1.327 . S
C709 H732 0.950 . S
C710 C709 1.349 . S
C710 C722 1.349 . S
C711 C709 1.327 . S
C711 C727 1.429 . S
C711 H733 0.950 . S
C712 H708 0.949 . S
C712 C720 1.574 . S
C712 C728 1.368 . S
H713 C721 0.950 . S
H714 C719 0.950 . S
H715 C720 0.949 . S
H716 C722 0.950 . S
H717 C723 0.950 . S
H718 C724 0.949 . S
C719 H714 0.950 . S
C719 C721 1.327 . S
C719 C725 1.429 . S
C720 C712 1.574 . S
C720 H715 0.949 . S
C720 C726 1.368 . S
C721 C705 1.349 . S
C721 H713 0.950 . S
C721 C719 1.327 . S
C722 C710 1.349 . S
C722 H716 0.950 . S
C722 C723 1.327 . S
C723 H717 0.950 . S
C723 C722 1.327 . S
C723 C727 1.429 . S
C724 C707 1.574 . S
C724 H718 0.949 . S
C724 C728 1.368 . S
C725 C706 1.429 . S
C725 C719 1.429 . S
C725 C726 1.523 . S
C726 C707 1.368 . S
C726 C720 1.368 . S
C726 C725 1.523 . S
C727 C711 1.429 . S
C727 C723 1.429 . S
C727 C728 1.523 . S
C728 C712 1.368 . S
C728 C724 1.368 . S
C728 C727 1.523 . S
H729 C704 0.950 . S
H730 C706 0.950 . S
H731 C707 0.949 . S
H732 C709 0.950 . S
H733 C711 0.950 . S
C734 C735 1.349 . S
C734 C736 1.327 . S
C734 H759 0.950 . S
C735 C734 1.349 . S
C735 C751 1.349 . S
C736 C734 1.327 . S
C736 C755 1.429 . S
C736 H760 0.950 . S
C737 C754 1.574 . S
C737 C756 1.368 . S
C737 H761 0.949 . S
H738 C742 0.949 . S
C739 C740 1.349 . S
C739 C741 1.327 . S
C739 H762 0.950 . S
C740 C739 1.349 . S
C740 C752 1.349 . S
C741 C739 1.327 . S
C741 C757 1.429 . S
C741 H763 0.950 . S
C742 H738 0.949 . S
C742 C750 1.574 . S
C742 C758 1.368 . S
H743 C751 0.950 . S
H744 C749 0.950 . S
H745 C750 0.949 . S
H746 C752 0.950 . S
H747 C753 0.950 . S
H748 C754 0.949 . S
C749 H744 0.950 . S
C749 C751 1.327 . S
C749 C755 1.429 . S
C750 C742 1.574 . S
C750 H745 0.949 . S
C750 C756 1.368 . S
C751 C735 1.349 . S
C751 H743 0.950 . S
C751 C749 1.327 . S
C752 C740 1.349 . S
C752 H746 0.950 . S
C752 C753 1.327 . S
C753 H747 0.950 . S
C753 C752 1.327 . S
C753 C757 1.429 . S
C754 C737 1.574 . S
C754 H748 0.949 . S
C754 C758 1.368 . S
C755 C736 1.429 . S
C755 C749 1.429 . S
C755 C756 1.523 . S
C756 C737 1.368 . S
C756 C750 1.368 . S
C756 C755 1.523 . S
C757 C741 1.429 . S
C757 C753 1.429 . S
C757 C758 1.523 . S
C758 C742 1.368 . S
C758 C754 1.368 . S
C758 C757 1.523 . S
H759 C734 0.950 . S
H760 C736 0.950 . S
H761 C737 0.949 . S
H762 C739 0.950 . S
H763 C741 0.950 . S
C764 C765 1.349 . S
C764 C766 1.327 . S
C764 H789 0.950 . S
C765 C764 1.349 . S
C765 C781 1.349 . S
C766 C764 1.327 . S
C766 C785 1.429 . S
C766 H790 0.950 . S
C767 C784 1.574 1_545 S
C767 C786 1.368 . S
C767 H791 0.949 . S
H768 C772 0.949 . S
C769 C770 1.349 . S
C769 C771 1.327 . S
C769 H792 0.950 . S
C770 C769 1.349 . S
C770 C782 1.349 . S
C771 C769 1.327 . S
C771 C787 1.429 . S
C771 H793 0.950 . S
C772 H768 0.949 . S
C772 C780 1.574 1_565 S
C772 C788 1.368 . S
H773 C781 0.950 . S
H774 C779 0.950 . S
H775 C780 0.949 . S
H776 C782 0.950 . S
H777 C783 0.950 . S
H778 C784 0.949 . S
C779 H774 0.950 . S
C779 C781 1.327 . S
C779 C785 1.429 . S
C780 C772 1.574 1_545 S
C780 H775 0.949 . S
C780 C786 1.368 1_556 S
C781 C765 1.349 . S
C781 H773 0.950 . S
C781 C779 1.327 . S
C782 C770 1.349 . S
C782 H776 0.950 . S
C782 C783 1.327 . S
C783 H777 0.950 . S
C783 C782 1.327 . S
C783 C787 1.429 . S
C784 C767 1.574 1_565 S
C784 H778 0.949 . S
C784 C788 1.368 1_554 S
C785 C766 1.429 . S
C785 C779 1.429 . S
C785 C786 1.523 . S
C786 C767 1.368 . S
C786 C780 1.368 1_554 S
C786 C785 1.523 . S
C787 C771 1.429 . S
C787 C783 1.429 . S
C787 C788 1.523 . S
C788 C772 1.368 . S
C788 C784 1.368 1_556 S
C788 C787 1.523 . S
H789 C764 0.950 . S
H790 C766 0.950 . S
H791 C767 0.949 . S
H792 C769 0.950 . S
H793 C771 0.950 . S
C794 C795 1.349 . S
C794 C796 1.327 . S
C794 H819 0.950 . S
C795 C794 1.349 . S
C795 C811 1.349 . S
C796 C794 1.327 . S
C796 C815 1.429 . S
C796 H820 0.950 . S
C797 C814 1.574 . S
C797 C816 1.368 . S
C797 H821 0.949 . S
H798 C802 0.949 . S
C799 C800 1.349 . S
C799 C801 1.327 . S
C799 H822 0.950 . S
C800 C799 1.349 . S
C800 C812 1.349 . S
C801 C799 1.327 . S
C801 C817 1.429 . S
C801 H823 0.950 . S
C802 H798 0.949 . S
C802 C810 1.574 . S
C802 C818 1.368 . S
H803 C811 0.950 . S
H804 C809 0.950 . S
H805 C810 0.949 . S
H806 C812 0.950 . S
H807 C813 0.950 . S
H808 C814 0.949 . S
C809 H804 0.950 . S
C809 C811 1.327 . S
C809 C815 1.429 . S
C810 C802 1.574 . S
C810 H805 0.949 . S
C810 C816 1.368 1_455 S
C811 C795 1.349 . S
C811 H803 0.950 . S
C811 C809 1.327 . S
C812 C800 1.349 . S
C812 H806 0.950 . S
C812 C813 1.327 . S
C813 H807 0.950 . S
C813 C812 1.327 . S
C813 C817 1.429 . S
C814 C797 1.574 . S
C814 H808 0.949 . S
C814 C818 1.368 1_655 S
C815 C796 1.429 . S
C815 C809 1.429 . S
C815 C816 1.523 . S
C816 C797 1.368 . S
C816 C810 1.368 1_655 S
C816 C815 1.523 . S
C817 C801 1.429 . S
C817 C813 1.429 . S
C817 C818 1.523 . S
C818 C802 1.368 . S
C818 C814 1.368 1_455 S
C818 C817 1.523 . S
H819 C794 0.950 . S
H820 C796 0.950 . S
H821 C797 0.949 . S
H822 C799 0.950 . S
H823 C801 0.950 . S
C824 C825 1.349 . S
C824 C826 1.327 . S
C824 H849 0.950 . S
C825 C824 1.349 . S
C825 C841 1.349 . S
C826 C824 1.327 . S
C826 C845 1.429 . S
C826 H850 0.950 . S
C827 C844 1.574 . S
C827 C846 1.368 . S
C827 H851 0.949 . S
H828 C832 0.949 . S
C829 C830 1.349 . S
C829 C831 1.327 . S
C829 H852 0.950 . S
C830 C829 1.349 . S
C830 C842 1.349 . S
C831 C829 1.327 . S
C831 C847 1.429 . S
C831 H853 0.950 . S
C832 H828 0.949 . S
C832 C840 1.574 . S
C832 C848 1.368 . S
H833 C841 0.950 . S
H834 C839 0.950 . S
H835 C840 0.949 . S
H836 C842 0.950 . S
H837 C843 0.950 . S
H838 C844 0.949 . S
C839 H834 0.950 . S
C839 C841 1.327 . S
C839 C845 1.429 . S
C840 C832 1.574 . S
C840 H835 0.949 . S
C840 C846 1.368 1_545 S
C841 C825 1.349 . S
C841 H833 0.950 . S
C841 C839 1.327 . S
C842 C830 1.349 . S
C842 H836 0.950 . S
C842 C843 1.327 . S
C843 H837 0.950 . S
C843 C842 1.327 . S
C843 C847 1.429 . S
C844 C827 1.574 . S
C844 H838 0.949 . S
C844 C848 1.368 1_565 S
C845 C826 1.429 . S
C845 C839 1.429 . S
C845 C846 1.523 . S
C846 C827 1.368 . S
C846 C840 1.368 1_565 S
C846 C845 1.523 . S
C847 C831 1.429 . S
C847 C843 1.429 . S
C847 C848 1.523 . S
C848 C832 1.368 . S
C848 C844 1.368 1_545 S
C848 C847 1.523 . S
H849 C824 0.950 . S
H850 C826 0.950 . S
H851 C827 0.949 . S
H852 C829 0.950 . S
H853 C831 0.950 . S
C854 C855 1.349 . S
C854 C856 1.327 . S
C854 H879 0.950 . S
C855 C854 1.349 . S
C855 C871 1.349 . S
C856 C854 1.327 . S
C856 C875 1.429 . S
C856 H880 0.950 . S
C857 C874 1.574 . S
C857 C876 1.368 1_554 S
C857 H881 0.949 . S
H858 C862 0.949 . S
C859 C860 1.349 . S
C859 C861 1.327 . S
C859 H882 0.950 . S
C860 C859 1.349 . S
C860 C872 1.349 . S
C861 C859 1.327 . S
C861 C877 1.429 . S
C861 H883 0.950 . S
C862 H858 0.949 . S
C862 C870 1.574 . S
C862 C878 1.368 1_556 S
H863 C871 0.950 . S
H864 C869 0.950 . S
H865 C870 0.949 . S
H866 C872 0.950 . S
H867 C873 0.950 . S
H868 C874 0.949 . S
C869 H864 0.950 . S
C869 C871 1.327 . S
C869 C875 1.429 . S
C870 C862 1.574 . S
C870 H865 0.949 . S
C870 C876 1.368 1_455 S
C871 C855 1.349 . S
C871 H863 0.950 . S
C871 C869 1.327 . S
C872 C860 1.349 . S
C872 H866 0.950 . S
C872 C873 1.327 . S
C873 H867 0.950 . S
C873 C872 1.327 . S
C873 C877 1.429 . S
C874 C857 1.574 . S
C874 H868 0.949 . S
C874 C878 1.368 1_655 S
C875 C856 1.429 . S
C875 C869 1.429 . S
C875 C876 1.523 . S
C876 C857 1.368 1_556 S
C876 C870 1.368 1_655 S
C876 C875 1.523 . S
C877 C861 1.429 . S
C877 C873 1.429 . S
C877 C878 1.523 . S
C878 C862 1.368 1_554 S
C878 C874 1.368 1_455 S
C878 C877 1.523 . S
H879 C854 0.950 . S
H880 C856 0.950 . S
H881 C857 0.949 . S
H882 C859 0.950 . S
H883 C861 0.950 . S
C884 C885 1.349 . S
C884 C886 1.327 . S
C884 H909 0.950 . S
C885 C884 1.349 . S
C885 C901 1.349 . S
C886 C884 1.327 . S
C886 C905 1.429 . S
C886 H910 0.950 . S
C887 C904 1.574 . S
C887 C906 1.368 . S
C887 H911 0.949 . S
H888 C892 0.949 . S
C889 C890 1.349 . S
C889 C891 1.327 . S
C889 H912 0.950 . S
C890 C889 1.349 . S
C890 C902 1.349 . S
C891 C889 1.327 . S
C891 C907 1.429 . S
C891 H913 0.950 . S
C892 H888 0.949 . S
C892 C900 1.574 . S
C892 C908 1.368 . S
H893 C901 0.950 . S
H894 C899 0.950 . S
H895 C900 0.949 . S
H896 C902 0.950 . S
H897 C903 0.950 . S
H898 C904 0.949 . S
C899 H894 0.950 . S
C899 C901 1.327 . S
C899 C905 1.429 . S
C900 C892 1.574 . S
C900 H895 0.949 . S
C900 C906 1.368 . S
C901 C885 1.349 . S
C901 H893 0.950 . S
C901 C899 1.327 . S
C902 C890 1.349 . S
C902 H896 0.950 . S
C902 C903 1.327 . S
C903 H897 0.950 . S
C903 C902 1.327 . S
C903 C907 1.429 . S
C904 C887 1.574 . S
C904 H898 0.949 . S
C904 C908 1.368 . S
C905 C886 1.429 . S
C905 C899 1.429 . S
C905 C906 1.523 . S
C906 C887 1.368 . S
C906 C900 1.368 . S
C906 C905 1.523 . S
C907 C891 1.429 . S
C907 C903 1.429 . S
C907 C908 1.523 . S
C908 C892 1.368 . S
C908 C904 1.368 . S
C908 C907 1.523 . S
H909 C884 0.950 . S
H910 C886 0.950 . S
H911 C887 0.949 . S
H912 C889 0.950 . S
H913 C891 0.950 . S
C914 C915 1.349 . S
C914 C916 1.327 . S
C914 H939 0.950 . S
C915 C914 1.349 . S
C915 C931 1.349 . S
C916 C914 1.327 . S
C916 C935 1.429 . S
C916 H940 0.950 . S
C917 C934 1.574 . S
C917 C936 1.368 . S
C917 H941 0.949 . S
H918 C922 0.949 . S
C919 C920 1.349 . S
C919 C921 1.327 . S
C919 H942 0.950 . S
C920 C919 1.349 . S
C920 C932 1.349 . S
C921 C919 1.327 . S
C921 C937 1.429 . S
C921 H943 0.950 . S
C922 H918 0.949 . S
C922 C930 1.574 . S
C922 C938 1.368 . S
H923 C931 0.950 . S
H924 C929 0.950 . S
H925 C930 0.949 . S
H926 C932 0.950 . S
H927 C933 0.950 . S
H928 C934 0.949 . S
C929 H924 0.950 . S
C929 C931 1.327 . S
C929 C935 1.429 . S
C930 C922 1.574 . S
C930 H925 0.949 . S
C930 C936 1.368 . S
C931 C915 1.349 . S
C931 H923 0.950 . S
C931 C929 1.327 . S
C932 C920 1.349 . S
C932 H926 0.950 . S
C932 C933 1.327 . S
C933 H927 0.950 . S
C933 C932 1.327 . S
C933 C937 1.429 . S
C934 C917 1.574 . S
C934 H928 0.949 . S
C934 C938 1.368 . S
C935 C916 1.429 . S
C935 C929 1.429 . S
C935 C936 1.523 . S
C936 C917 1.368 . S
C936 C930 1.368 . S
C936 C935 1.523 . S
C937 C921 1.429 . S
C937 C933 1.429 . S
C937 C938 1.523 . S
C938 C922 1.368 . S
C938 C934 1.368 . S
C938 C937 1.523 . S
H939 C914 0.950 . S
H940 C916 0.950 . S
H941 C917 0.949 . S
H942 C919 0.950 . S
H943 C921 0.950 . S
C944 C945 1.349 . S
C944 C946 1.327 . S
C944 H969 0.950 . S
C945 C944 1.349 . S
C945 C961 1.349 . S
C946 C944 1.327 . S
C946 C965 1.429 . S
C946 H970 0.950 . S
C947 C964 1.574 . S
C947 C966 1.368 . S
C947 H971 0.949 . S
H948 C952 0.949 . S
C949 C950 1.349 . S
C949 C951 1.327 . S
C949 H972 0.950 . S
C950 C949 1.349 . S
C950 C962 1.349 . S
C951 C949 1.327 . S
C951 C967 1.429 . S
C951 H973 0.950 . S
C952 H948 0.949 . S
C952 C960 1.574 . S
C952 C968 1.368 . S
H953 C961 0.950 . S
H954 C959 0.950 . S
H955 C960 0.949 . S
H956 C962 0.950 . S
H957 C963 0.950 . S
H958 C964 0.949 . S
C959 H954 0.950 . S
C959 C961 1.327 . S
C959 C965 1.429 . S
C960 C952 1.574 . S
C960 H955 0.949 . S
C960 C966 1.368 . S
C961 C945 1.349 . S
C961 H953 0.950 . S
C961 C959 1.327 . S
C962 C950 1.349 . S
C962 H956 0.950 . S
C962 C963 1.327 . S
C963 H957 0.950 . S
C963 C962 1.327 . S
C963 C967 1.429 . S
C964 C947 1.574 . S
C964 H958 0.949 . S
C964 C968 1.368 . S
C965 C946 1.429 . S
C965 C959 1.429 . S
C965 C966 1.523 . S
C966 C947 1.368 . S
C966 C960 1.368 . S
C966 C965 1.523 . S
C967 C951 1.429 . S
C967 C963 1.429 . S
C967 C968 1.523 . S
C968 C952 1.368 . S
C968 C964 1.368 . S
C968 C967 1.523 . S
H969 C944 0.950 . S
H970 C946 0.950 . S
H971 C947 0.949 . S
H972 C949 0.950 . S
H973 C951 0.950 . S
C974 C975 1.349 . S
C974 C976 1.327 . S
C974 H999 0.950 . S
C975 C974 1.349 . S
C975 C991 1.349 . S
C976 C974 1.327 . S
C976 C995 1.429 . S
C976 H1000 0.950 . S
C977 C994 1.574 1_556 S
C977 C996 1.368 . S
C977 H1001 0.949 . S
H978 C982 0.949 . S
C979 C980 1.349 . S
C979 C981 1.327 . S
C979 H1002 0.950 . S
C980 C979 1.349 . S
C980 C992 1.349 . S
C981 C979 1.327 . S
C981 C997 1.429 . S
C981 H1003 0.950 . S
C982 H978 0.949 . S
C982 C990 1.574 1_554 S
C982 C998 1.368 . S
H983 C991 0.950 . S
H984 C989 0.950 . S
H985 C990 0.949 . S
H986 C992 0.950 . S
H987 C993 0.950 . S
H988 C994 0.949 . S
C989 H984 0.950 . S
C989 C991 1.327 . S
C989 C995 1.429 . S
C990 C982 1.574 1_556 S
C990 H985 0.949 . S
C990 C996 1.368 . S
C991 C975 1.349 . S
C991 H983 0.950 . S
C991 C989 1.327 . S
C992 C980 1.349 . S
C992 H986 0.950 . S
C992 C993 1.327 . S
C993 H987 0.950 . S
C993 C992 1.327 . S
C993 C997 1.429 . S
C994 C977 1.574 1_554 S
C994 H988 0.949 . S
C994 C998 1.368 . S
C995 C976 1.429 . S
C995 C989 1.429 . S
C995 C996 1.523 . S
C996 C977 1.368 . S
C996 C990 1.368 . S
C996 C995 1.523 . S
C997 C981 1.429 . S
C997 C993 1.429 . S
C997 C998 1.523 . S
C998 C982 1.368 . S
C998 C994 1.368 . S
C998 C997 1.523 . S
H999 C974 0.950 . S
H1000 C976 0.950 . S
H1001 C977 0.949 . S
H1002 C979 0.950 . S
H1003 C981 0.950 . S
C1004 C1005 1.349 . S
C1004 C1006 1.327 . S
C1004 H1029 0.950 . S
C1005 C1004 1.349 . S
C1005 C1021 1.349 . S
C1006 C1004 1.327 . S
C1006 C1025 1.429 . S
C1006 H1030 0.950 . S
C1007 C1024 1.574 . S
C1007 C1026 1.368 1_545 S
C1007 H1031 0.949 . S
H1008 C1012 0.949 . S
C1009 C1010 1.349 . S
C1009 C1011 1.327 . S
C1009 H1032 0.950 . S
C1010 C1009 1.349 . S
C1010 C1022 1.349 . S
C1011 C1009 1.327 . S
C1011 C1027 1.429 . S
C1011 H1033 0.950 . S
C1012 H1008 0.949 . S
C1012 C1020 1.574 . S
C1012 C1028 1.368 1_565 S
H1013 C1021 0.950 . S
H1014 C1019 0.950 . S
H1015 C1020 0.949 . S
H1016 C1022 0.950 . S
H1017 C1023 0.950 . S
H1018 C1024 0.949 . S
C1019 H1014 0.950 . S
C1019 C1021 1.327 . S
C1019 C1025 1.429 . S
C1020 C1012 1.574 . S
C1020 H1015 0.949 . S
C1020 C1026 1.368 . S
C1021 C1005 1.349 . S
C1021 H1013 0.950 . S
C1021 C1019 1.327 . S
C1022 C1010 1.349 . S
C1022 H1016 0.950 . S
C1022 C1023 1.327 . S
C1023 H1017 0.950 . S
C1023 C1022 1.327 . S
C1023 C1027 1.429 . S
C1024 C1007 1.574 . S
C1024 H1018 0.949 . S
C1024 C1028 1.368 . S
C1025 C1006 1.429 . S
C1025 C1019 1.429 . S
C1025 C1026 1.523 . S
C1026 C1007 1.368 1_565 S
C1026 C1020 1.368 . S
C1026 C1025 1.523 . S
C1027 C1011 1.429 . S
C1027 C1023 1.429 . S
C1027 C1028 1.523 . S
C1028 C1012 1.368 1_545 S
C1028 C1024 1.368 . S
C1028 C1027 1.523 . S
H1029 C1004 0.950 . S
H1030 C1006 0.950 . S
H1031 C1007 0.949 . S
H1032 C1009 0.950 . S
H1033 C1011 0.950 . S
C1034 C1035 1.349 . S
C1034 C1036 1.327 . S
C1034 H1059 0.950 . S
C1035 C1034 1.349 . S
C1035 C1051 1.349 . S
C1036 C1034 1.327 . S
C1036 C1055 1.429 . S
C1036 H1060 0.950 . S
C1037 C1054 1.574 1_655 S
C1037 C1056 1.368 . S
C1037 H1061 0.949 . S
H1038 C1042 0.949 . S
C1039 C1040 1.349 . S
C1039 C1041 1.327 . S
C1039 H1062 0.950 . S
C1040 C1039 1.349 . S
C1040 C1052 1.349 . S
C1041 C1039 1.327 . S
C1041 C1057 1.429 . S
C1041 H1063 0.950 . S
C1042 H1038 0.949 . S
C1042 C1050 1.574 1_455 S
C1042 C1058 1.368 . S
H1043 C1051 0.950 . S
H1044 C1049 0.950 . S
H1045 C1050 0.949 . S
H1046 C1052 0.950 . S
H1047 C1053 0.950 . S
H1048 C1054 0.949 . S
C1049 H1044 0.950 . S
C1049 C1051 1.327 . S
C1049 C1055 1.429 . S
C1050 C1042 1.574 1_655 S
C1050 H1045 0.949 . S
C1050 C1056 1.368 1_545 S
C1051 C1035 1.349 . S
C1051 H1043 0.950 . S
C1051 C1049 1.327 . S
C1052 C1040 1.349 . S
C1052 H1046 0.950 . S
C1052 C1053 1.327 . S
C1053 H1047 0.950 . S
C1053 C1052 1.327 . S
C1053 C1057 1.429 . S
C1054 C1037 1.574 1_455 S
C1054 H1048 0.949 . S
C1054 C1058 1.368 1_565 S
C1055 C1036 1.429 . S
C1055 C1049 1.429 . S
C1055 C1056 1.523 . S
C1056 C1037 1.368 . S
C1056 C1050 1.368 1_565 S
C1056 C1055 1.523 . S
C1057 C1041 1.429 . S
C1057 C1053 1.429 . S
C1057 C1058 1.523 . S
C1058 C1042 1.368 . S
C1058 C1054 1.368 1_545 S
C1058 C1057 1.523 . S
H1059 C1034 0.950 . S
H1060 C1036 0.950 . S
H1061 C1037 0.949 . S
H1062 C1039 0.950 . S
H1063 C1041 0.950 . S
C1064 C1065 1.349 . S
C1064 C1066 1.327 . S
C1064 H1089 0.950 . S
C1065 C1064 1.349 . S
C1065 C1081 1.349 . S
C1066 C1064 1.327 . S
C1066 C1085 1.429 . S
C1066 H1090 0.950 . S
C1067 C1084 1.574 . S
C1067 C1086 1.368 . S
C1067 H1091 0.949 . S
H1068 C1072 0.949 . S
C1069 C1070 1.349 . S
C1069 C1071 1.327 . S
C1069 H1092 0.950 . S
C1070 C1069 1.349 . S
C1070 C1082 1.349 . S
C1071 C1069 1.327 . S
C1071 C1087 1.429 . S
C1071 H1093 0.950 . S
C1072 H1068 0.949 . S
C1072 C1080 1.574 . S
C1072 C1088 1.368 . S
H1073 C1081 0.950 . S
H1074 C1079 0.950 . S
H1075 C1080 0.949 . S
H1076 C1082 0.950 . S
H1077 C1083 0.950 . S
H1078 C1084 0.949 . S
C1079 H1074 0.950 . S
C1079 C1081 1.327 . S
C1079 C1085 1.429 . S
C1080 C1072 1.574 . S
C1080 H1075 0.949 . S
C1080 C1086 1.368 1_455 S
C1081 C1065 1.349 . S
C1081 H1073 0.950 . S
C1081 C1079 1.327 . S
C1082 C1070 1.349 . S
C1082 H1076 0.950 . S
C1082 C1083 1.327 . S
C1083 H1077 0.950 . S
C1083 C1082 1.327 . S
C1083 C1087 1.429 . S
C1084 C1067 1.574 . S
C1084 H1078 0.949 . S
C1084 C1088 1.368 1_655 S
C1085 C1066 1.429 . S
C1085 C1079 1.429 . S
C1085 C1086 1.523 . S
C1086 C1067 1.368 . S
C1086 C1080 1.368 1_655 S
C1086 C1085 1.523 . S
C1087 C1071 1.429 . S
C1087 C1083 1.429 . S
C1087 C1088 1.523 . S
C1088 C1072 1.368 . S
C1088 C1084 1.368 1_455 S
C1088 C1087 1.523 . S
H1089 C1064 0.950 . S
H1090 C1066 0.950 . S
H1091 C1067 0.949 . S
H1092 C1069 0.950 . S
H1093 C1071 0.950 . S
C1094 C1095 1.349 . S
C1094 C1096 1.327 . S
C1094 H1119 0.950 . S
C1095 C1094 1.349 . S
C1095 C1111 1.349 . S
C1096 C1094 1.327 . S
C1096 C1115 1.429 . S
C1096 H1120 0.950 . S
C1097 C1114 1.574 . S
C1097 C1116 1.368 . S
C1097 H1121 0.949 . S
H1098 C1102 0.949 . S
C1099 C1100 1.349 . S
C1099 C1101 1.327 . S
C1099 H1122 0.950 . S
C1100 C1099 1.349 . S
C1100 C1112 1.349 . S
C1101 C1099 1.327 . S
C1101 C1117 1.429 . S
C1101 H1123 0.950 . S
C1102 H1098 0.949 . S
C1102 C1110 1.574 . S
C1102 C1118 1.368 . S
H1103 C1111 0.950 . S
H1104 C1109 0.950 . S
H1105 C1110 0.949 . S
H1106 C1112 0.950 . S
H1107 C1113 0.950 . S
H1108 C1114 0.949 . S
C1109 H1104 0.950 . S
C1109 C1111 1.327 . S
C1109 C1115 1.429 . S
C1110 C1102 1.574 . S
C1110 H1105 0.949 . S
C1110 C1116 1.368 . S
C1111 C1095 1.349 . S
C1111 H1103 0.950 . S
C1111 C1109 1.327 . S
C1112 C1100 1.349 . S
C1112 H1106 0.950 . S
C1112 C1113 1.327 . S
C1113 H1107 0.950 . S
C1113 C1112 1.327 . S
C1113 C1117 1.429 . S
C1114 C1097 1.574 . S
C1114 H1108 0.949 . S
C1114 C1118 1.368 . S
C1115 C1096 1.429 . S
C1115 C1109 1.429 . S
C1115 C1116 1.523 . S
C1116 C1097 1.368 . S
C1116 C1110 1.368 . S
C1116 C1115 1.523 . S
C1117 C1101 1.429 . S
C1117 C1113 1.429 . S
C1117 C1118 1.523 . S
C1118 C1102 1.368 . S
C1118 C1114 1.368 . S
C1118 C1117 1.523 . S
H1119 C1094 0.950 . S
H1120 C1096 0.950 . S
H1121 C1097 0.949 . S
H1122 C1099 0.950 . S
H1123 C1101 0.950 . S
C1124 C1125 1.349 . S
C1124 C1126 1.327 . S
C1124 H1149 0.950 . S
C1125 C1124 1.349 . S
C1125 C1141 1.349 . S
C1126 C1124 1.327 . S
C1126 C1145 1.429 . S
C1126 H1150 0.950 . S
C1127 C1144 1.574 . S
C1127 C1146 1.368 1_556 S
C1127 H1151 0.949 . S
H1128 C1132 0.949 . S
C1129 C1130 1.349 . S
C1129 C1131 1.327 . S
C1129 H1152 0.950 . S
C1130 C1129 1.349 . S
C1130 C1142 1.349 . S
C1131 C1129 1.327 . S
C1131 C1147 1.429 . S
C1131 H1153 0.950 . S
C1132 H1128 0.949 . S
C1132 C1140 1.574 . S
C1132 C1148 1.368 1_554 S
H1133 C1141 0.950 . S
H1134 C1139 0.950 . S
H1135 C1140 0.949 . S
H1136 C1142 0.950 . S
H1137 C1143 0.950 . S
H1138 C1144 0.949 . S
C1139 H1134 0.950 . S
C1139 C1141 1.327 . S
C1139 C1145 1.429 . S
C1140 C1132 1.574 . S
C1140 H1135 0.949 . S
C1140 C1146 1.368 . S
C1141 C1125 1.349 . S
C1141 H1133 0.950 . S
C1141 C1139 1.327 . S
C1142 C1130 1.349 . S
C1142 H1136 0.950 . S
C1142 C1143 1.327 . S
C1143 H1137 0.950 . S
C1143 C1142 1.327 . S
C1143 C1147 1.429 . S
C1144 C1127 1.574 . S
C1144 H1138 0.949 . S
C1144 C1148 1.368 . S
C1145 C1126 1.429 . S
C1145 C1139 1.429 . S
C1145 C1146 1.523 . S
C1146 C1127 1.368 1_554 S
C1146 C1140 1.368 . S
C1146 C1145 1.523 . S
C1147 C1131 1.429 . S
C1147 C1143 1.429 . S
C1147 C1148 1.523 . S
C1148 C1132 1.368 1_556 S
C1148 C1144 1.368 . S
C1148 C1147 1.523 . S
H1149 C1124 0.950 . S
H1150 C1126 0.950 . S
H1151 C1127 0.949 . S
H1152 C1129 0.950 . S
H1153 C1131 0.950 . S
C1154 C1155 1.349 . S
C1154 C1156 1.327 . S
C1154 H1179 0.950 . S
C1155 C1154 1.349 . S
C1155 C1171 1.349 . S
C1156 C1154 1.327 . S
C1156 C1175 1.429 . S
C1156 H1180 0.950 . S
C1157 C1174 1.574 . S
C1157 C1176 1.368 . S
C1157 H1181 0.949 . S
H1158 C1162 0.949 . S
C1159 C1160 1.349 . S
C1159 C1161 1.327 . S
C1159 H1182 0.950 . S
C1160 C1159 1.349 . S
C1160 C1172 1.349 . S
C1161 C1159 1.327 . S
C1161 C1177 1.429 . S
C1161 H1183 0.950 . S
C1162 H1158 0.949 . S
C1162 C1170 1.574 . S
C1162 C1178 1.368 . S
H1163 C1171 0.950 . S
H1164 C1169 0.950 . S
H1165 C1170 0.949 . S
H1166 C1172 0.950 . S
H1167 C1173 0.950 . S
H1168 C1174 0.949 . S
C1169 H1164 0.950 . S
C1169 C1171 1.327 . S
C1169 C1175 1.429 . S
C1170 C1162 1.574 . S
C1170 H1165 0.949 . S
C1170 C1176 1.368 . S
C1171 C1155 1.349 . S
C1171 H1163 0.950 . S
C1171 C1169 1.327 . S
C1172 C1160 1.349 . S
C1172 H1166 0.950 . S
C1172 C1173 1.327 . S
C1173 H1167 0.950 . S
C1173 C1172 1.327 . S
C1173 C1177 1.429 . S
C1174 C1157 1.574 . S
C1174 H1168 0.949 . S
C1174 C1178 1.368 . S
C1175 C1156 1.429 . S
C1175 C1169 1.429 . S
C1175 C1176 1.523 . S
C1176 C1157 1.368 . S
C1176 C1170 1.368 . S
C1176 C1175 1.523 . S
C1177 C1161 1.429 . S
C1177 C1173 1.429 . S
C1177 C1178 1.523 . S
C1178 C1162 1.368 . S
C1178 C1174 1.368 . S
C1178 C1177 1.523 . S
H1179 C1154 0.950 . S
H1180 C1156 0.950 . S
H1181 C1157 0.949 . S
H1182 C1159 0.950 . S
H1183 C1161 0.950 . S
C705 C497 1.500 . S
C710 C49 1.500 . S
C735 C645 1.500 . S
C740 C108 1.500 . S
C765 C233 1.500 . S
C770 C557 1.500 . S
C795 C321 1.500 . S
C800 C372 1.500 . S
C825 C548 1.500 . S
C830 C29 1.500 . S
C855 C117 1.500 . S
C860 C409 1.500 . S
C885 C489 1.500 . S
C890 C196 1.500 . S
C915 C313 1.500 . S
C920 C665 1.500 . S
C945 C381 1.500 . S
C950 C460 1.500 . S
C975 C145 1.500 . S
C980 C225 1.500 . S
C1005 C293 1.500 . S
C1010 C205 1.500 . S
C1035 C284 1.500 . S
C1040 C57 1.500 . S
C1065 C137 1.500 . S
C1070 C20 1.500 . S
C1095 C636 1.500 . S
C1100 C577 1.500 . S
C1125 C401 1.500 . S
C1130 C585 1.500 . S
C1155 C469 1.500 . S
C1160 C673 1.500 . S
