# Generated by pormake.
# Topology lcy-e, (6)-cn, num edge types: 1
# Building blocks:
#     Node 0, Type 0, BuildingBlock: INOVEN_clean_sbu_0, # of connection points: 6
#     Node 1, Type 0, BuildingBlock: INOVEN_clean_sbu_0, # of connection points: 6
#     Node 2, Type 0, BuildingBlock: INOVEN_clean_sbu_0, # of connection points: 6
#     Node 3, Type 0, BuildingBlock: INOVEN_clean_sbu_0, # of connection points: 6
#     Node 4, Type 0, BuildingBlock: INOVEN_clean_sbu_0, # of connection points: 6
#     Node 5, Type 0, BuildingBlock: INOVEN_clean_sbu_0, # of connection points: 6
#     Node 6, Type 0, BuildingBlock: INOVEN_clean_sbu_0, # of connection points: 6
#     Node 7, Type 0, BuildingBlock: INOVEN_clean_sbu_0, # of connection points: 6
#     Node 8, Type 0, BuildingBlock: INOVEN_clean_sbu_0, # of connection points: 6
#     Node 9, Type 0, BuildingBlock: INOVEN_clean_sbu_0, # of connection points: 6
#     Node 10, Type 0, BuildingBlock: INOVEN_clean_sbu_0, # of connection points: 6
#     Node 11, Type 0, BuildingBlock: INOVEN_clean_sbu_0, # of connection points: 6
#     Edge 12, Type (0, 0), BuildingBlock: ZUJKAS_clean_linker_0, # of connection points: 2
#     Edge 13, Type (0, 0), BuildingBlock: ZUJKAS_clean_linker_0, # of connection points: 2
#     Edge 14, Type (0, 0), BuildingBlock: ZUJKAS_clean_linker_0, # of connection points: 2
#     Edge 15, Type (0, 0), BuildingBlock: ZUJKAS_clean_linker_0, # of connection points: 2
#     Edge 16, Type (0, 0), BuildingBlock: ZUJKAS_clean_linker_0, # of connection points: 2
#     Edge 17, Type (0, 0), BuildingBlock: ZUJKAS_clean_linker_0, # of connection points: 2
#     Edge 18, Type (0, 0), BuildingBlock: ZUJKAS_clean_linker_0, # of connection points: 2
#     Edge 19, Type (0, 0), BuildingBlock: ZUJKAS_clean_linker_0, # of connection points: 2
#     Edge 20, Type (0, 0), BuildingBlock: ZUJKAS_clean_linker_0, # of connection points: 2
#     Edge 21, Type (0, 0), BuildingBlock: ZUJKAS_clean_linker_0, # of connection points: 2
#     Edge 22, Type (0, 0), BuildingBlock: ZUJKAS_clean_linker_0, # of connection points: 2
#     Edge 23, Type (0, 0), BuildingBlock: ZUJKAS_clean_linker_0, # of connection points: 2
#     Edge 24, Type (0, 0), BuildingBlock: ZUJKAS_clean_linker_0, # of connection points: 2
#     Edge 25, Type (0, 0), BuildingBlock: ZUJKAS_clean_linker_0, # of connection points: 2
#     Edge 26, Type (0, 0), BuildingBlock: ZUJKAS_clean_linker_0, # of connection points: 2
#     Edge 27, Type (0, 0), BuildingBlock: ZUJKAS_clean_linker_0, # of connection points: 2
#     Edge 28, Type (0, 0), BuildingBlock: ZUJKAS_clean_linker_0, # of connection points: 2
#     Edge 29, Type (0, 0), BuildingBlock: ZUJKAS_clean_linker_0, # of connection points: 2
#     Edge 30, Type (0, 0), BuildingBlock: ZUJKAS_clean_linker_0, # of connection points: 2
#     Edge 31, Type (0, 0), BuildingBlock: ZUJKAS_clean_linker_0, # of connection points: 2
#     Edge 32, Type (0, 0), BuildingBlock: ZUJKAS_clean_linker_0, # of connection points: 2
#     Edge 33, Type (0, 0), BuildingBlock: ZUJKAS_clean_linker_0, # of connection points: 2
#     Edge 34, Type (0, 0), BuildingBlock: ZUJKAS_clean_linker_0, # of connection points: 2
#     Edge 35, Type (0, 0), BuildingBlock: ZUJKAS_clean_linker_0, # of connection points: 2
#     Edge 36, Type (0, 0), BuildingBlock: ZUJKAS_clean_linker_0, # of connection points: 2
#     Edge 37, Type (0, 0), BuildingBlock: ZUJKAS_clean_linker_0, # of connection points: 2
#     Edge 38, Type (0, 0), BuildingBlock: ZUJKAS_clean_linker_0, # of connection points: 2
#     Edge 39, Type (0, 0), BuildingBlock: ZUJKAS_clean_linker_0, # of connection points: 2
#     Edge 40, Type (0, 0), BuildingBlock: ZUJKAS_clean_linker_0, # of connection points: 2
#     Edge 41, Type (0, 0), BuildingBlock: ZUJKAS_clean_linker_0, # of connection points: 2
#     Edge 42, Type (0, 0), BuildingBlock: ZUJKAS_clean_linker_0, # of connection points: 2
#     Edge 43, Type (0, 0), BuildingBlock: ZUJKAS_clean_linker_0, # of connection points: 2
#     Edge 44, Type (0, 0), BuildingBlock: ZUJKAS_clean_linker_0, # of connection points: 2
#     Edge 45, Type (0, 0), BuildingBlock: ZUJKAS_clean_linker_0, # of connection points: 2
#     Edge 46, Type (0, 0), BuildingBlock: ZUJKAS_clean_linker_0, # of connection points: 2
#     Edge 47, Type (0, 0), BuildingBlock: ZUJKAS_clean_linker_0, # of connection points: 2
# Relax obj value: 0.187
# Max RMSD: 0.299
# Mean RMSD: 0.283
data_MOF--net-lcy-e--node1-INOVEN_clean_sbu_0--edge1-ZUJKAS_clean_linker_0
_symmetry_space_group_name_H-M    P1
_symmetry_Int_Tables_number       1
_symmetry_cell_setting            triclinic
loop_
_symmetry_equiv_pos_as_xyz
'x, y, z'
_cell_length_a     56.275843
_cell_length_b     53.391474
_cell_length_c     54.859012
_cell_angle_alpha  89.56082
_cell_angle_beta   90.454961
_cell_angle_gamma 88.054006
loop_
_atom_site_label
_atom_site_type_symbol
_atom_site_fract_x
_atom_site_fract_y
_atom_site_fract_z
_atom_type_partial_charge
Gd0 Gd 0.13332 0.22373 0.50503 0.0
Gd1 Gd 0.12597 0.26109 0.45888 0.0
C2 C 0.09347 0.21152 0.46454 0.0
C3 C 0.12543 0.20103 0.54579 0.0
C4 C 0.12088 0.17563 0.55509 0.0
C5 C 0.1378 0.15571 0.55371 0.0
C6 C 0.09861 0.17128 0.56534 0.0
C7 C 0.1098 0.12744 0.57215 0.0
C8 C 0.09308 0.14747 0.57364 0.0
C9 C 0.13233 0.1318 0.56232 0.0
C10 C 0.1651 0.21256 0.469 0.0
C11 C 0.16294 0.27431 0.49968 0.0
C12 C 0.124 0.27773 0.41448 0.0
C13 C 0.13826 0.28695 0.3941 0.0
C14 C 0.13005 0.28324 0.37027 0.0
C15 C 0.15913 0.30011 0.39783 0.0
C16 C 0.16267 0.30686 0.35391 0.0
C17 C 0.17122 0.31004 0.37788 0.0
C18 C 0.14209 0.29306 0.35039 0.0
C19 C 0.10347 0.2752 0.50024 0.0
O20 O 0.10712 0.20273 0.48266 0.0
O21 O 0.09636 0.23378 0.4542 0.0
O22 O 0.14692 0.20612 0.53846 0.0
O23 O 0.10862 0.21084 0.53174 0.0
O24 O 0.16387 0.19982 0.48924 0.0
O25 O 0.14897 0.22938 0.4694 0.0
O26 O 0.16002 0.27348 0.47569 0.0
O27 O 0.15152 0.25951 0.51492 0.0
O28 O 0.12148 0.2922 0.43356 0.0
O29 O 0.12659 0.25389 0.42006 0.0
O30 O 0.10889 0.29102 0.48315 0.0
O31 O 0.10756 0.25314 0.49287 0.0
H32 H 0.15513 0.15852 0.5459 0.0
H33 H 0.08534 0.18638 0.56681 0.0
H34 H 0.07576 0.14481 0.58155 0.0
H35 H 0.14554 0.11666 0.56098 0.0
H36 H 0.11394 0.27317 0.36703 0.0
H37 H 0.16586 0.30303 0.41611 0.0
H38 H 0.18717 0.32033 0.38122 0.0
H39 H 0.13476 0.29054 0.3323 0.0
Gd40 Gd 0.99922 0.8676 0.71959 0.0
Gd41 Gd 0.04078 0.8802 0.75357 0.0
C42 C 0.03523 0.91225 0.70467 0.0
C43 C 0.96078 0.86906 0.6931 0.0
C44 C 0.95186 0.87912 0.6695 0.0
C45 C 0.92763 0.87761 0.66387 0.0
C46 C 0.96695 0.89034 0.65266 0.0
C47 C 0.9334 0.89866 0.62482 0.0
C48 C 0.95781 0.89997 0.63047 0.0
C49 C 0.91849 0.88724 0.64181 0.0
C50 C 0.03809 0.83749 0.71476 0.0
C51 C 1.00661 0.83582 0.76835 0.0
C52 C 0.07883 0.88135 0.78059 0.0
C53 C 0.0974 0.86672 0.79454 0.0
C54 C 0.09819 0.86844 0.82007 0.0
C55 C 0.11629 0.85404 0.78266 0.0
C56 C 0.13725 0.84706 0.82141 0.0
C57 C 0.13595 0.84429 0.79593 0.0
C58 C 0.11778 0.85865 0.83334 0.0
C59 C 0.99949 0.9075 0.75966 0.0
O60 O 0.01486 0.90119 0.70061 0.0
O61 O 0.04929 0.90599 0.72319 0.0
O62 O 0.9768 0.85074 0.69235 0.0
O63 O 0.96524 0.88552 0.70995 0.0
O64 O 0.01649 0.8302 0.71173 0.0
O65 O 0.03829 0.86087 0.71824 0.0
O66 O 0.02893 0.84279 0.76756 0.0
O67 O 0.99021 0.84599 0.7535 0.0
O68 O 0.0573 0.88333 0.78942 0.0
O69 O 0.07908 0.88001 0.75679 0.0
O70 O 0.02036 0.91681 0.76236 0.0
O71 O 1.00187 0.88457 0.75543 0.0
H72 H 0.91571 0.86896 0.6766 0.0
H73 H 0.98572 0.89175 0.65671 0.0
H74 H 0.96977 0.90882 0.61794 0.0
H75 H 0.89972 0.8855 0.63796 0.0
H76 H 0.08404 0.87826 0.82977 0.0
H77 H 0.11643 0.85254 0.76298 0.0
H78 H 0.15062 0.83565 0.78606 0.0
H79 H 0.11789 0.86071 0.85296 0.0
Gd80 Gd 0.37908 0.79051 1.00482 0.0
Gd81 Gd 0.38946 0.75674 0.95735 0.0
C82 C 0.4181 0.80908 0.96637 0.0
C83 C 0.38094 0.80881 0.04836 0.0
C84 C 0.38728 0.83269 0.05935 0.0
C85 C 0.39491 0.85258 0.04486 0.0
C86 C 0.38608 0.83549 0.08466 0.0
C87 C 0.40028 0.87797 0.08111 0.0
C88 C 0.3925 0.85793 0.09547 0.0
C89 C 0.40137 0.87505 0.05565 0.0
C90 C 0.34719 0.80121 0.9681 0.0
C91 C 0.35224 0.73802 0.99543 0.0
C92 C 0.39352 0.74163 0.91283 0.0
C93 C 0.38147 0.72743 0.89352 0.0
C94 C 0.39323 0.70635 0.88357 0.0
C95 C 0.35949 0.73568 0.88341 0.0
C96 C 0.36174 0.7024 0.8532 0.0
C97 C 0.34972 0.72326 0.86349 0.0
C98 C 0.3835 0.69396 0.86369 0.0
C99 C 0.41268 0.74328 0.99893 0.0
O100 O 0.40562 0.81466 0.98618 0.0
O101 O 0.4152 0.78827 0.95365 0.0
O102 O 0.36157 0.80926 0.03501 0.0
O103 O 0.39843 0.79586 0.03851 0.0
O104 O 0.34766 0.81344 0.98846 0.0
O105 O 0.3642 0.78546 0.96872 0.0
O106 O 0.35672 0.73976 0.97181 0.0
O107 O 0.36172 0.75322 0.01174 0.0
O108 O 0.40236 0.72891 0.93153 0.0
O109 O 0.38415 0.76353 0.91878 0.0
O110 O 0.40634 0.72716 0.98261 0.0
O111 O 0.40778 0.76525 0.9915 0.0
H112 H 0.39592 0.8507 0.02524 0.0
H113 H 0.38034 0.82025 0.0961 0.0
H114 H 0.39179 0.85939 0.11513 0.0
H115 H 0.40704 0.89018 0.04405 0.0
H116 H 0.41034 0.69981 0.89078 0.0
H117 H 0.35002 0.75199 0.89052 0.0
H118 H 0.33281 0.73011 0.85606 0.0
H119 H 0.39346 0.67823 0.85605 0.0
Gd120 Gd 0.5152 0.13087 0.23194 0.0
Gd121 Gd 0.47287 0.12333 0.26613 0.0
C122 C 0.47776 0.09074 0.21562 0.0
C123 C 0.55578 0.13341 0.21004 0.0
C124 C 0.56611 0.12488 0.18675 0.0
C125 C 0.59017 0.12865 0.18207 0.0
C126 C 0.55236 0.11275 0.16925 0.0
C127 C 0.58674 0.10846 0.14244 0.0
C128 C 0.56257 0.10461 0.14731 0.0
C129 C 0.60038 0.12055 0.16019 0.0
C130 C 0.47548 0.15909 0.22164 0.0
C131 C 0.51087 0.16102 0.2833 0.0
C132 C 0.43079 0.12155 0.28508 0.0
C133 C 0.41216 0.1356 0.29912 0.0
C134 C 0.41014 0.13184 0.32441 0.0
C135 C 0.39441 0.15032 0.28704 0.0
C136 C 0.37236 0.15585 0.32495 0.0
C137 C 0.37482 0.16035 0.29978 0.0
C138 C 0.3906 0.14191 0.33716 0.0
C139 C 0.51293 0.09575 0.27695 0.0
O140 O 0.49931 0.09904 0.21207 0.0
O141 O 0.46437 0.09849 0.23405 0.0
O142 O 0.53913 0.15108 0.20867 0.0
O143 O 0.55091 0.11584 0.22576 0.0
O144 O 0.48949 0.14961 0.20517 0.0
O145 O 0.48375 0.15422 0.24259 0.0
O146 O 0.48779 0.15738 0.28279 0.0
O147 O 0.52542 0.15011 0.26733 0.0
O148 O 0.45025 0.11378 0.29651 0.0
O149 O 0.43464 0.12861 0.26256 0.0
O150 O 0.49842 0.10453 0.29334 0.0
O151 O 0.50454 0.10042 0.25601 0.0
H152 H 0.60112 0.13781 0.19542 0.0
H153 H 0.53373 0.10962 0.17255 0.0
H154 H 0.55143 0.0956 0.13404 0.0
H155 H 0.61911 0.12347 0.15735 0.0
H156 H 0.42331 0.12042 0.3343 0.0
H157 H 0.39515 0.15335 0.26752 0.0
H158 H 0.3611 0.17073 0.28965 0.0
H159 H 0.3896 0.13838 0.35658 0.0
Gd160 Gd 0.6327 0.26163 0.55246 0.0
Gd161 Gd 0.64182 0.3064 0.51841 0.0
C162 C 0.67389 0.30124 0.5665 0.0
C163 C 0.6357 0.22118 0.57895 0.0
C164 C 0.644 0.21244 0.60319 0.0
C165 C 0.63943 0.1879 0.61052 0.0
C166 C 0.65674 0.22786 0.61886 0.0
C167 C 0.6608 0.19382 0.64878 0.0
C168 C 0.66504 0.21864 0.64151 0.0
C169 C 0.64771 0.17868 0.63306 0.0
C170 C 0.60181 0.30069 0.55723 0.0
C171 C 0.60308 0.26661 0.50286 0.0
C172 C 0.64026 0.34755 0.49291 0.0
C173 C 0.62527 0.36693 0.48014 0.0
C174 C 0.60979 0.36127 0.46088 0.0
C175 C 0.62817 0.39211 0.48627 0.0
C176 C 0.60138 0.40596 0.45335 0.0
C177 C 0.61641 0.41137 0.47309 0.0
C178 C 0.59794 0.38061 0.44763 0.0
C179 C 0.6701 0.26465 0.51182 0.0
O180 O 0.66388 0.27963 0.57114 0.0
O181 O 0.66722 0.31574 0.54797 0.0
O182 O 0.61689 0.23625 0.57829 0.0
O183 O 0.65213 0.2277 0.56362 0.0
O184 O 0.5963 0.27748 0.56015 0.0
O185 O 0.6239 0.30243 0.55386 0.0
O186 O 0.60779 0.29075 0.50349 0.0
O187 O 0.61377 0.25039 0.51813 0.0
O188 O 0.64295 0.32528 0.48322 0.0
O189 O 0.63927 0.34694 0.51672 0.0
O190 O 0.67739 0.28721 0.50825 0.0
O191 O 0.64843 0.26574 0.51665 0.0
H192 H 0.62955 0.17576 0.59872 0.0
H193 H 0.66044 0.24688 0.61349 0.0
H194 H 0.6752 0.23074 0.65308 0.0
H195 H 0.64373 0.15967 0.63821 0.0
H196 H 0.6072 0.342 0.45574 0.0
H197 H 0.6402 0.39699 0.50088 0.0
H198 H 0.61988 0.43055 0.47785 0.0
H199 H 0.58627 0.3757 0.43276 0.0
Gd200 Gd 0.98121 0.38712 0.74584 0.0
Gd201 Gd 0.01591 0.36596 0.78374 0.0
C202 C 0.96745 0.33831 0.77564 0.0
C203 C 0.95627 0.40072 0.70799 0.0
C204 C 0.93146 0.39706 0.70069 0.0
C205 C 0.92397 0.4028 0.67684 0.0
C206 C 0.91585 0.38543 0.7167 0.0
C207 C 0.88572 0.38421 0.68461 0.0
C208 C 0.89317 0.37911 0.70876 0.0
C209 C 0.90128 0.39649 0.66886 0.0
C210 C 0.97168 0.40194 0.79232 0.0
C211 C 0.0312 0.41463 0.75376 0.0
C212 C 0.04327 0.35618 0.82095 0.0
C213 C 0.05658 0.36908 0.83998 0.0
C214 C 0.06841 0.35471 0.85804 0.0
C215 C 0.05673 0.39533 0.84111 0.0
C216 C 0.08029 0.39261 0.87866 0.0
C217 C 0.06849 0.40702 0.86033 0.0
C218 C 0.08013 0.36631 0.87718 0.0
C219 C 0.01828 0.34365 0.73907 0.0
O220 O 0.96638 0.34917 0.75393 0.0
O221 O 0.98278 0.3455 0.79225 0.0
O222 O 0.95975 0.41555 0.72653 0.0
O223 O 0.96944 0.38005 0.70908 0.0
O224 O 0.95566 0.39629 0.77635 0.0
O225 O 0.99191 0.39957 0.78278 0.0
O226 O 0.03452 0.40093 0.77372 0.0
O227 O 0.01256 0.41181 0.73918 0.0
O228 O 0.05117 0.35779 0.79861 0.0
O229 O 0.02007 0.35833 0.82228 0.0
O230 O 0.02169 0.33157 0.75947 0.0
O231 O 0.01517 0.36642 0.74365 0.0
H232 H 0.93592 0.41146 0.66416 0.0
H233 H 0.92146 0.38064 0.73515 0.0
H234 H 0.88157 0.36996 0.72144 0.0
H235 H 0.89629 0.40038 0.65008 0.0
H236 H 0.06827 0.33442 0.85755 0.0
H237 H 0.0476 0.40671 0.82729 0.0
H238 H 0.06842 0.42729 0.86079 0.0
H239 H 0.08861 0.3546 0.89116 0.0
Gd240 Gd 0.8916 0.75618 0.04373 0.0
Gd241 Gd 0.87806 0.71145 0.01208 0.0
C242 C 0.84856 0.71981 0.06052 0.0
C243 C 0.89176 0.79682 0.06936 0.0
C244 C 0.88129 0.80643 0.09214 0.0
C245 C 0.86933 0.79071 0.10821 0.0
C246 C 0.88331 0.83179 0.09788 0.0
C247 C 0.86185 0.82571 0.13583 0.0
C248 C 0.87372 0.84134 0.11949 0.0
C249 C 0.85962 0.80027 0.12983 0.0
C250 C 0.9206 0.71557 0.04885 0.0
C251 C 0.91961 0.74742 0.99431 0.0
C252 C 0.87617 0.67053 0.98697 0.0
C253 C 0.88927 0.65226 0.97139 0.0
C254 C 0.87847 0.64448 0.94973 0.0
C255 C 0.9109 0.6405 0.97883 0.0
C256 C 0.90989 0.61252 0.94374 0.0
C257 C 0.9211 0.62085 0.96514 0.0
C258 C 0.88862 0.62491 0.93607 0.0
C259 C 0.8523 0.75505 1.00478 0.0
O260 O 0.85949 0.74122 0.06316 0.0
O261 O 0.85414 0.70384 0.04313 0.0
O262 O 0.90787 0.77868 0.07159 0.0
O263 O 0.87691 0.79336 0.05133 0.0
O264 O 0.92754 0.73844 0.05021 0.0
O265 O 0.89819 0.715 0.04662 0.0
O266 O 0.91235 0.72411 0.99553 0.0
O267 O 0.91113 0.76497 0.0092 0.0
O268 O 0.87064 0.69272 0.97784 0.0
O269 O 0.88171 0.67106 0.01018 0.0
O270 O 0.84308 0.73312 1.00332 0.0
O271 O 0.87418 0.75236 1.00855 0.0
H272 H 0.86766 0.77104 0.10412 0.0
H273 H 0.89236 0.84424 0.08564 0.0
H274 H 0.87545 0.86107 0.12329 0.0
H275 H 0.85079 0.78766 0.14207 0.0
H276 H 0.86164 0.65301 0.94376 0.0
H277 H 0.91965 0.64606 0.9955 0.0
H278 H 0.93766 0.61203 0.97145 0.0
H279 H 0.87923 0.61888 0.91996 0.0
Gd280 Gd 0.53961 0.62867 0.23918 0.0
Gd281 Gd 0.50644 0.64342 0.28035 0.0
C282 C 0.55261 0.67569 0.27476 0.0
C283 C 0.56531 0.62807 0.20023 0.0
C284 C 0.58909 0.63572 0.19302 0.0
C285 C 0.60433 0.64699 0.20973 0.0
C286 C 0.59654 0.63198 0.169 0.0
C287 C 0.63439 0.65076 0.17828 0.0
C288 C 0.61898 0.63939 0.16168 0.0
C289 C 0.62679 0.65452 0.2024 0.0
C290 C 0.54569 0.59973 0.27922 0.0
C291 C 0.49322 0.59761 0.24631 0.0
C292 C 0.47965 0.64566 0.31851 0.0
C293 C 0.46782 0.62997 0.33683 0.0
C294 C 0.44308 0.63247 0.33947 0.0
C295 C 0.48094 0.61459 0.35337 0.0
C296 C 0.44494 0.60629 0.37608 0.0
C297 C 0.4696 0.60285 0.37277 0.0
C298 C 0.43175 0.6207 0.3588 0.0
C299 C 0.49877 0.6685 0.23734 0.0
O300 O 0.55757 0.66259 0.25491 0.0
O301 O 0.5343 0.6708 0.28861 0.0
O302 O 0.56455 0.60917 0.21548 0.0
O303 O 0.55009 0.64628 0.20545 0.0
O304 O 0.54888 0.59195 0.25711 0.0
O305 O 0.54146 0.62322 0.27946 0.0
O306 O 0.49428 0.60528 0.26913 0.0
O307 O 0.50694 0.60745 0.22948 0.0
O308 O 0.47115 0.64595 0.29623 0.0
O309 O 0.50287 0.64623 0.31939 0.0
O310 O 0.49579 0.67883 0.25849 0.0
O311 O 0.504 0.64573 0.24036 0.0
H312 H 0.59887 0.64993 0.2284 0.0
H313 H 0.58493 0.62341 0.15585 0.0
H314 H 0.62412 0.63656 0.14289 0.0
H315 H 0.63831 0.663 0.21568 0.0
H316 H 0.43256 0.64425 0.32702 0.0
H317 H 0.50006 0.61232 0.3519 0.0
H318 H 0.48035 0.59204 0.3858 0.0
H319 H 0.41267 0.62335 0.36049 0.0
Gd320 Gd 0.22458 0.51207 0.13304 0.0
Gd321 Gd 0.25649 0.46764 0.11851 0.0
C322 C 0.20829 0.47507 0.08872 0.0
C323 C 0.19745 0.55223 0.13384 0.0
C324 C 0.17337 0.55956 0.12516 0.0
C325 C 0.16578 0.58478 0.1258 0.0
C326 C 0.15792 0.54168 0.11611 0.0
C327 C 0.1274 0.57437 0.10829 0.0
C328 C 0.13512 0.54901 0.10775 0.0
C329 C 0.14302 0.59213 0.11749 0.0
C330 C 0.22146 0.47174 0.16229 0.0
C331 C 0.27399 0.50458 0.1606 0.0
C332 C 0.28273 0.42696 0.11618 0.0
C333 C 0.29824 0.40959 0.13066 0.0
C334 C 0.31911 0.39989 0.12003 0.0
C335 C 0.29172 0.40089 0.15384 0.0
C336 C 0.32616 0.37183 0.15475 0.0
C337 C 0.30556 0.38214 0.16576 0.0
C338 C 0.33293 0.38126 0.13191 0.0
C339 C 0.2612 0.51024 0.0918 0.0
O340 O 0.20486 0.49642 0.10051 0.0
O341 O 0.22627 0.45946 0.09388 0.0
O342 O 0.19873 0.53583 0.15168 0.0
O343 O 0.21327 0.54776 0.11693 0.0
O344 O 0.2197 0.4947 0.16978 0.0
O345 O 0.22314 0.47102 0.13931 0.0
O346 O 0.27308 0.48095 0.1536 0.0
O347 O 0.25867 0.52185 0.15187 0.0
O348 O 0.2907 0.44916 0.11124 0.0
O349 O 0.25996 0.4273 0.12088 0.0
O350 O 0.2629 0.48795 0.08251 0.0
O351 O 0.25851 0.5085 0.11437 0.0
H352 H 0.17745 0.59882 0.1328 0.0
H353 H 0.16349 0.52209 0.11547 0.0
H354 H 0.12369 0.53488 0.10056 0.0
H355 H 0.13757 0.61174 0.11855 0.0
H356 H 0.32435 0.40619 0.10209 0.0
H357 H 0.27568 0.40813 0.16247 0.0
H358 H 0.29999 0.37553 0.18347 0.0
H359 H 0.34845 0.37355 0.1227 0.0
Gd360 Gd 0.72691 0.99725 0.87857 0.0
Gd361 Gd 0.75873 0.0401 0.89307 0.0
C362 C 0.71169 0.03455 0.92401 0.0
C363 C 0.70051 0.95838 0.87761 0.0
C364 C 0.67667 0.95068 0.88545 0.0
C365 C 0.66155 0.93968 0.86845 0.0
C366 C 0.66904 0.9532 0.9097 0.0
C367 C 0.63186 0.933 0.89985 0.0
C368 C 0.6469 0.94444 0.91681 0.0
C369 C 0.63942 0.93104 0.87551 0.0
C370 C 0.7222 0.03813 0.8498 0.0
C371 C 0.77573 1.00257 0.85037 0.0
C372 C 0.78419 0.07971 0.8941 0.0
C373 C 0.79865 0.09639 0.87878 0.0
C374 C 0.82315 0.09771 0.88339 0.0
C375 C 0.78807 0.11295 0.86145 0.0
C376 C 0.82598 0.13291 0.85497 0.0
C377 C 0.80158 0.13096 0.84967 0.0
C378 C 0.83666 0.11563 0.87159 0.0
C379 C 0.76522 0.99657 0.91884 0.0
O380 O 0.70802 0.01369 0.91173 0.0
O381 O 0.72939 0.0492 0.91886 0.0
O382 O 0.7012 0.9747 0.85974 0.0
O383 O 0.71639 0.96219 0.89464 0.0
O384 O 0.7204 0.01534 0.84219 0.0
O385 O 0.7247 0.03854 0.87277 0.0
O386 O 0.77447 0.02616 0.85765 0.0
O387 O 0.76081 0.98598 0.85898 0.0
O388 O 0.79282 0.05716 0.89911 0.0
O389 O 0.76114 0.08038 0.89055 0.0
O390 O 0.76747 0.01855 0.92847 0.0
O391 O 0.76139 0.99907 0.89644 0.0
H392 H 0.66698 0.93755 0.84965 0.0
H393 H 0.68029 0.96162 0.92326 0.0
H394 H 0.64186 0.9461 0.93575 0.0
H395 H 0.62821 0.92283 0.86179 0.0
H396 H 0.8318 0.08532 0.89672 0.0
H397 H 0.76919 0.11258 0.85752 0.0
H398 H 0.79265 0.144 0.83715 0.0
H399 H 0.85546 0.11616 0.8758 0.0
Gd400 Gd 0.74902 0.97712 0.39377 0.0
Gd401 Gd 0.78983 0.00863 0.37701 0.0
C402 C 0.78298 0.95803 0.34869 0.0
C403 C 0.71174 0.95008 0.39722 0.0
C404 C 0.70162 0.92805 0.38532 0.0
C405 C 0.68887 0.91117 0.39938 0.0
C406 C 0.70416 0.92375 0.36022 0.0
C407 C 0.68054 0.88629 0.36334 0.0
C408 C 0.69372 0.90309 0.34933 0.0
C409 C 0.6785 0.89052 0.38856 0.0
C410 C 0.78762 0.97346 0.42299 0.0
C411 C 0.75607 0.02935 0.42006 0.0
C412 C 0.82763 0.03451 0.37152 0.0
C413 C 0.84483 0.05088 0.38339 0.0
C414 C 0.85429 0.07033 0.36963 0.0
C415 C 0.85359 0.04617 0.40709 0.0
C416 C 0.88212 0.07938 0.40244 0.0
C417 C 0.87206 0.06031 0.41654 0.0
C418 C 0.8727 0.08441 0.37899 0.0
C419 C 0.74826 0.01499 0.35142 0.0
O420 O 0.76243 0.95646 0.3601 0.0
O421 O 0.79809 0.97548 0.35401 0.0
O422 O 0.73101 0.94597 0.41031 0.0
O423 O 0.7123 0.97074 0.38428 0.0
O424 O 0.76586 0.97327 0.43057 0.0
O425 O 0.78826 0.97424 0.39986 0.0
O426 O 0.77806 0.02773 0.4117 0.0
O427 O 0.73985 0.01337 0.41304 0.0
O428 O 0.80614 0.04367 0.36718 0.0
O429 O 0.8281 0.01087 0.37803 0.0
O430 O 0.76903 0.01555 0.34133 0.0
O431 O 0.7509 0.01237 0.37396 0.0
H432 H 0.68683 0.91403 0.41879 0.0
H433 H 0.71399 0.93649 0.34898 0.0
H434 H 0.69554 0.9006 0.32986 0.0
H435 H 0.66893 0.87778 0.40004 0.0
H436 H 0.84796 0.07412 0.35121 0.0
H437 H 0.84656 0.03123 0.41808 0.0
H438 H 0.87863 0.05613 0.43478 0.0
H439 H 0.88015 0.09861 0.36742 0.0
Gd440 Gd 0.29627 0.50171 0.63339 0.0
Gd441 Gd 0.26496 0.54522 0.61497 0.0
C442 C 0.31371 0.53585 0.58732 0.0
C443 C 0.32458 0.46278 0.63875 0.0
C444 C 0.34908 0.4557 0.63135 0.0
C445 C 0.36534 0.44616 0.64885 0.0
C446 C 0.35654 0.45843 0.6071 0.0
C447 C 0.3961 0.44167 0.61795 0.0
C448 C 0.37978 0.45147 0.60047 0.0
C449 C 0.3886 0.43926 0.64226 0.0
C450 C 0.29819 0.54333 0.66047 0.0
C451 C 0.24604 0.51005 0.65807 0.0
C452 C 0.2401 0.58659 0.60924 0.0
C453 C 0.22737 0.60655 0.6226 0.0
C454 C 0.21548 0.62558 0.60917 0.0
C455 C 0.22816 0.60793 0.64815 0.0
C456 C 0.20579 0.64787 0.6465 0.0
C457 C 0.21729 0.62843 0.66006 0.0
C458 C 0.20481 0.64603 0.62097 0.0
C459 C 0.2603 0.50185 0.59 0.0
O460 O 0.31684 0.51527 0.60069 0.0
O461 O 0.2956 0.55165 0.59066 0.0
O462 O 0.32245 0.48039 0.65508 0.0
O463 O 0.30857 0.46505 0.62139 0.0
O464 O 0.29894 0.52079 0.6694 0.0
O465 O 0.29767 0.54299 0.63743 0.0
O466 O 0.24726 0.53338 0.64992 0.0
O467 O 0.26168 0.49246 0.65108 0.0
O468 O 0.23076 0.56448 0.60878 0.0
O469 O 0.26321 0.58555 0.6119 0.0
O470 O 0.25795 0.52392 0.58 0.0
O471 O 0.26301 0.50412 0.61258 0.0
H472 H 0.36004 0.44402 0.66767 0.0
H473 H 0.34439 0.46574 0.59318 0.0
H474 H 0.38479 0.45329 0.58154 0.0
H475 H 0.40076 0.43216 0.65628 0.0
H476 H 0.21477 0.62483 0.58944 0.0
H477 H 0.23747 0.59343 0.65878 0.0
H478 H 0.21835 0.62938 0.67975 0.0
H479 H 0.19572 0.66044 0.61005 0.0
H480 H 0.20708 0.29016 0.48773 0.0
H481 H 0.22679 0.32718 0.5034 0.0
H482 H 0.16508 0.3451 0.5471 0.0
H483 H 0.14663 0.30702 0.53327 0.0
H484 H 0.21929 0.373 0.49945 0.0
H485 H 0.21198 0.35458 0.5979 0.0
H486 H 0.20454 0.3314 0.57572 0.0
H487 H 0.18285 0.35528 0.58463 0.0
C488 C 0.19814 0.30176 0.50119 0.0
C489 C 0.1757 0.29552 0.50984 0.0
C490 C 0.20927 0.32301 0.51001 0.0
C491 C 0.1978 0.3388 0.52705 0.0
C492 C 0.17495 0.33279 0.53497 0.0
H493 H 0.23574 0.4954 0.5472 0.0
H494 H 0.22112 0.45608 0.53112 0.0
C495 C 0.16429 0.31108 0.52692 0.0
C496 C 0.20914 0.36206 0.53572 0.0
H497 H 0.21776 0.39741 0.58635 0.0
C498 C 0.21933 0.3781 0.51855 0.0
C499 C 0.20972 0.36874 0.56067 0.0
C500 C 0.20193 0.3514 0.58074 0.0
C501 C 0.22966 0.40063 0.5255 0.0
C502 C 0.22852 0.40823 0.5502 0.0
C503 C 0.21853 0.39201 0.56735 0.0
C504 C 0.23798 0.43242 0.55905 0.0
C505 C 0.24225 0.41547 0.5063 0.0
C506 C 0.2515 0.43272 0.5807 0.0
C507 C 0.25864 0.45529 0.59057 0.0
C508 C 0.25346 0.47813 0.57855 0.0
C509 C 0.24045 0.478 0.5566 0.0
C510 C 0.23233 0.45541 0.54723 0.0
H511 H 0.249 0.40314 0.49147 0.0
H512 H 0.22952 0.4294 0.49791 0.0
H513 H 0.25749 0.42546 0.5141 0.0
H514 H 0.25616 0.41547 0.59038 0.0
H515 H 0.2679 0.45481 0.60789 0.0
H516 H 0.81091 0.03141 0.8324 0.0
H517 H 0.84795 0.01731 0.81325 0.0
H518 H 0.82541 0.94101 0.81587 0.0
H519 H 0.78817 0.9549 0.83525 0.0
H520 H 0.88102 0.98145 0.83616 0.0
H521 H 0.85054 0.95078 0.7449 0.0
H522 H 0.83314 0.97216 0.76354 0.0
H523 H 0.83425 0.93923 0.77049 0.0
C524 C 0.81355 0.01164 0.82858 0.0
C525 C 0.79647 0.99428 0.83545 0.0
C526 C 0.83482 1.00364 0.81765 0.0
C527 C 0.83943 0.97815 0.81304 0.0
C528 C 0.8221 0.96082 0.81899 0.0
H529 H 0.95682 0.88564 0.76289 0.0
H530 H 0.91879 0.90452 0.7751 0.0
C531 C 0.80081 0.9688 0.83009 0.0
C532 C 0.86306 0.96959 0.8037 0.0
H533 H 0.89063 0.94086 0.75568 0.0
C534 C 0.8832 0.97273 0.81849 0.0
C535 C 0.86581 0.95819 0.78069 0.0
C536 C 0.84486 0.955 0.76382 0.0
C537 C 0.90593 0.96405 0.81125 0.0
C538 C 0.90873 0.95252 0.78823 0.0
C539 C 0.88857 0.94976 0.77328 0.0
C540 C 0.93208 0.94172 0.77997 0.0
C541 C 0.9265 0.96641 0.82881 0.0
C542 C 0.95236 0.95637 0.7782 0.0
C543 C 0.97437 0.94548 0.77139 0.0
C544 C 0.97637 0.91984 0.76591 0.0
C545 C 0.95592 0.90545 0.76701 0.0
C546 C 0.93409 0.91625 0.77397 0.0
H547 H 0.92036 0.96962 0.84776 0.0
H548 H 0.93831 0.94932 0.82867 0.0
H549 H 0.93712 0.98262 0.82332 0.0
H550 H 0.95119 0.97621 0.78215 0.0
H551 H 0.98978 0.95705 0.7705 0.0
H552 H 0.33367 0.70072 0.96793 0.0
H553 H 0.31469 0.66296 0.98225 0.0
H554 H 0.32052 0.68818 0.05642 0.0
H555 H 0.33972 0.72611 0.04235 0.0
H556 H 0.33725 0.62762 0.01715 0.0
H557 H 0.24979 0.66639 0.04818 0.0
H558 H 0.26804 0.68264 0.02665 0.0
H559 H 0.27556 0.68246 0.05851 0.0
C560 C 0.33066 0.69851 0.98729 0.0
C561 C 0.33827 0.71656 1.00399 0.0
C562 C 0.31983 0.67683 0.99542 0.0
C563 C 0.31608 0.67284 0.02035 0.0
C564 C 0.323 0.69106 0.03705 0.0
H565 H 0.2657 0.55579 0.11255 0.0
H566 H 0.27814 0.5945 0.09344 0.0
C567 C 0.33401 0.71272 0.02896 0.0
C568 C 0.30635 0.64887 0.02896 0.0
H569 H 0.25911 0.62388 0.05796 0.0
C570 C 0.32009 0.62671 0.02591 0.0
C571 C 0.28401 0.64782 0.04041 0.0
C572 C 0.26833 0.67103 0.04354 0.0
C573 C 0.31244 0.60357 0.03476 0.0
C574 C 0.29009 0.60247 0.04635 0.0
C575 C 0.27618 0.62466 0.049 0.0
C576 C 0.28151 0.57886 0.0573 0.0
C577 C 0.32885 0.58077 0.03249 0.0
C578 C 0.27877 0.55715 0.04329 0.0
C579 C 0.27183 0.53477 0.0543 0.0
C580 C 0.26723 0.53387 0.07941 0.0
C581 C 0.26919 0.55583 0.09316 0.0
C582 C 0.27627 0.57804 0.08224 0.0
H583 H 0.34746 0.58595 0.02889 0.0
H584 H 0.32867 0.56908 0.04931 0.0
H585 H 0.32283 0.56924 0.01702 0.0
H586 H 0.28213 0.55747 0.02389 0.0
H587 H 0.27026 0.51818 0.04324 0.0
H588 H 0.53911 0.1013 0.31843 0.0
H589 H 0.58032 0.08681 0.32627 0.0
H590 H 0.58338 0.05379 0.25486 0.0
H591 H 0.54211 0.06839 0.24685 0.0
H592 H 0.60095 0.02207 0.2978 0.0
H593 H 0.64089 0.11567 0.29101 0.0
H594 H 0.61467 0.11389 0.30943 0.0
H595 H 0.61258 0.10893 0.27718 0.0
C596 C 0.54853 0.09085 0.30445 0.0
C597 C 0.53745 0.08601 0.28201 0.0
C598 C 0.57211 0.08273 0.30889 0.0
C599 C 0.58499 0.06945 0.29105 0.0
C600 C 0.5738 0.06414 0.2688 0.0
H601 H 0.73836 0.02662 0.30319 0.0
H602 H 0.69927 0.03905 0.28532 0.0
C603 C 0.55028 0.07249 0.26425 0.0
C604 C 0.61001 0.06087 0.29591 0.0
H605 H 0.66566 0.0823 0.30685 0.0
C606 C 0.61516 0.03519 0.29949 0.0
C607 C 0.62856 0.07799 0.29793 0.0
C608 C 0.62408 0.10567 0.29353 0.0
C609 C 0.63818 0.02633 0.30609 0.0
C610 C 0.6565 0.04356 0.30905 0.0
C611 C 0.65159 0.06912 0.30451 0.0
C612 C 0.68016 0.03561 0.31918 0.0
C613 C 0.64272 0.99865 0.31043 0.0
C614 C 0.68233 0.02981 0.34406 0.0
C615 C 0.70446 0.02304 0.35424 0.0
C616 C 0.72498 0.02164 0.33976 0.0
C617 C 0.72285 0.02738 0.31476 0.0
C618 C 0.70058 0.03448 0.30456 0.0
H619 H 0.62811 0.98736 0.30309 0.0
H620 H 0.65971 0.99232 0.30193 0.0
H621 H 0.6443 0.99499 0.33034 0.0
H622 H 0.66688 0.03085 0.35571 0.0
H623 H 0.70549 0.01921 0.37363 0.0
H624 H 0.65353 0.21784 0.51595 0.0
H625 H 0.67286 0.17833 0.5043 0.0
H626 H 0.73447 0.21759 0.48093 0.0
H627 H 0.71518 0.25769 0.49314 0.0
H628 H 0.71352 0.18225 0.4459 0.0
H629 H 0.73069 0.13944 0.53715 0.0
H630 H 0.70128 0.15305 0.53286 0.0
H631 H 0.72646 0.17285 0.5325 0.0
C632 C 0.67139 0.21815 0.5088 0.0
C633 C 0.68295 0.2409 0.50573 0.0
C634 C 0.68241 0.19548 0.50214 0.0
C635 C 0.70521 0.19497 0.49208 0.0
C636 C 0.71693 0.2176 0.48891 0.0
H637 H 0.78529 0.06159 0.44322 0.0
H638 H 0.77411 0.10164 0.46208 0.0
C639 C 0.70594 0.24044 0.49588 0.0
C640 C 0.71579 0.17079 0.48356 0.0
H641 H 0.73253 0.11176 0.5031 0.0
C642 C 0.71802 0.16695 0.4584 0.0
C643 C 0.72154 0.15083 0.49992 0.0
C644 C 0.72009 0.1542 0.52715 0.0
C645 C 0.72501 0.14338 0.44915 0.0
C646 C 0.7299 0.12323 0.46547 0.0
C647 C 0.72851 0.12724 0.49066 0.0
C648 C 0.73636 0.09784 0.45646 0.0
C649 C 0.72675 0.13993 0.42195 0.0
C650 C 0.71874 0.08218 0.44769 0.0
C651 C 0.72502 0.05915 0.43705 0.0
C652 C 0.74907 0.05153 0.43483 0.0
C653 C 0.7666 0.06689 0.44457 0.0
C654 C 0.76028 0.08979 0.45536 0.0
H655 H 0.72463 0.15796 0.41181 0.0
H656 H 0.74419 0.13093 0.41731 0.0
H657 H 0.71269 0.12728 0.41577 0.0
H658 H 0.70016 0.08812 0.44844 0.0
H659 H 0.71109 0.04788 0.42962 0.0
H660 H 0.03567 0.44085 0.71075 0.0
H661 H 0.07109 0.46169 0.69626 0.0
H662 H 0.10648 0.44545 0.76486 0.0
H663 H 0.07115 0.42536 0.77972 0.0
H664 H 0.11722 0.49142 0.74765 0.0
H665 H 0.1289 0.42011 0.67518 0.0
H666 H 0.10107 0.43751 0.67359 0.0
H667 H 0.10751 0.41717 0.69925 0.0
C668 C 0.05081 0.44216 0.72293 0.0
C669 C 0.05062 0.43111 0.74628 0.0
C670 C 0.07114 0.45386 0.71452 0.0
C671 C 0.09168 0.45451 0.72923 0.0
C672 C 0.09094 0.44498 0.75309 0.0
H673 H 0.23639 0.46417 0.67774 0.0
H674 H 0.19946 0.45175 0.69693 0.0
C675 C 0.07066 0.43343 0.76154 0.0
C676 C 0.11441 0.46373 0.71954 0.0
H677 H 0.15628 0.45261 0.67584 0.0
C678 C 0.12574 0.483 0.73191 0.0
C679 C 0.12579 0.45234 0.69932 0.0
C680 C 0.11536 0.43048 0.68618 0.0
C681 C 0.14804 0.49129 0.72452 0.0
C682 C 0.15909 0.48037 0.70389 0.0
C683 C 0.14778 0.46105 0.6916 0.0
C684 C 0.18233 0.48861 0.69456 0.0
C685 C 0.1598 0.51119 0.73931 0.0
C686 C 0.18516 0.51354 0.68715 0.0
C687 C 0.20634 0.52075 0.6764 0.0
C688 C 0.22504 0.50309 0.6725 0.0
C689 C 0.2224 0.47826 0.6805 0.0
C690 C 0.20125 0.47111 0.6914 0.0
H691 H 0.15276 0.51202 0.75816 0.0
H692 H 0.17936 0.50778 0.7403 0.0
H693 H 0.15618 0.52975 0.73057 0.0
H694 H 0.17068 0.52728 0.68886 0.0
H695 H 0.20764 0.54 0.67032 0.0
H696 H 0.77993 0.98643 0.96611 0.0
H697 H 0.79228 0.94523 0.98345 0.0
H698 H 0.77547 0.91023 0.91518 0.0
H699 H 0.76385 0.95092 0.89775 0.0
H700 H 0.76856 0.89849 0.98846 0.0
H701 H 0.84559 0.89024 0.9263 0.0
H702 H 0.82913 0.91941 0.93076 0.0
H703 H 0.81777 0.89605 0.91072 0.0
C704 C 0.77878 0.96989 0.95492 0.0
C705 C 0.77105 0.97196 0.93054 0.0
C706 C 0.78576 0.94638 0.96483 0.0
C707 C 0.78515 0.92467 0.95048 0.0
C708 C 0.77651 0.92671 0.92648 0.0
H709 H 0.80523 0.76585 0.99296 0.0
H710 H 0.78743 0.80698 0.98102 0.0
C711 C 0.76972 0.95004 0.91658 0.0
C712 C 0.79448 0.89999 0.9599 0.0
H713 H 0.83612 0.85364 0.94844 0.0
C714 C 0.78341 0.88869 0.97984 0.0
C715 C 0.81399 0.88731 0.94875 0.0
C716 C 0.82748 0.89894 0.9281 0.0
C717 C 0.79113 0.86488 0.98867 0.0
C718 C 0.8102 0.8519 0.97701 0.0
C719 C 0.82136 0.86341 0.95725 0.0
C720 C 0.81997 0.82705 0.98565 0.0
C721 C 0.77916 0.85407 0.01068 0.0
C722 C 0.84415 0.82449 0.99187 0.0
C723 C 0.8543 0.80114 0.99827 0.0
C724 C 0.84054 0.77965 0.9988 0.0
C725 C 0.81622 0.78211 0.99287 0.0
C726 C 0.80602 0.80564 0.98624 0.0
H727 H 0.76899 0.86868 0.02094 0.0
H728 H 0.76654 0.8398 1.00465 0.0
H729 H 0.79241 0.84477 0.02318 0.0
H730 H 0.85535 0.8406 0.99147 0.0
H731 H 0.87314 0.79993 1.00245 0.0
H732 H 0.46481 0.57064 0.27611 0.0
H733 H 0.42842 0.54969 0.26485 0.0
H734 H 0.43983 0.56831 0.18928 0.0
H735 H 0.47651 0.58877 0.20032 0.0
H736 H 0.38976 0.57223 0.245 0.0
H737 H 0.4213 0.49643 0.18387 0.0
H738 H 0.44125 0.51322 0.20325 0.0
H739 H 0.43149 0.52643 0.17443 0.0
C740 C 0.45988 0.56977 0.25702 0.0
C741 C 0.47359 0.58136 0.2391 0.0
C742 C 0.43902 0.55785 0.25062 0.0
C743 C 0.43143 0.55724 0.2262 0.0
C744 C 0.44555 0.56801 0.20818 0.0
H745 H 0.28905 0.55201 0.1687 0.0
H746 H 0.32656 0.56378 0.18733 0.0
C747 C 0.46653 0.57978 0.21453 0.0
C748 C 0.40779 0.54741 0.21987 0.0
H749 H 0.37969 0.50776 0.18152 0.0
C750 C 0.38759 0.55791 0.23132 0.0
C751 C 0.40493 0.5285 0.20227 0.0
C752 C 0.42592 0.5153 0.19044 0.0
C753 C 0.36459 0.55063 0.22508 0.0
C754 C 0.36166 0.53278 0.20647 0.0
C755 C 0.3819 0.52165 0.19561 0.0
C756 C 0.33783 0.52589 0.19737 0.0
C757 C 0.3437 0.56208 0.23858 0.0
C758 C 0.33162 0.50066 0.19673 0.0
C759 C 0.31026 0.49384 0.18586 0.0
C760 C 0.29467 0.51213 0.17537 0.0
C761 C 0.3005 0.53748 0.17684 0.0
C762 C 0.32196 0.54426 0.18757 0.0
H763 H 0.34908 0.56869 0.25691 0.0
H764 H 0.33644 0.57855 0.22815 0.0
H765 H 0.32934 0.5485 0.24078 0.0
H766 H 0.34358 0.48615 0.20415 0.0
H767 H 0.30632 0.47414 0.18505 0.0
H768 H 0.55683 0.16129 0.30023 0.0
H769 H 0.57117 0.1812 0.33743 0.0
H770 H 0.50116 0.2139 0.34943 0.0
H771 H 0.48661 0.1938 0.31264 0.0
H772 H 0.5721 0.23048 0.35317 0.0
H773 H 0.51414 0.17448 0.41227 0.0
H774 H 0.51892 0.16733 0.38056 0.0
H775 H 0.49821 0.1921 0.38902 0.0
C776 C 0.54459 0.17303 0.3106 0.0
C777 C 0.52054 0.1758 0.3036 0.0
C778 C 0.55278 0.18431 0.3319 0.0
C779 C 0.53709 0.19854 0.3465 0.0
C780 C 0.51342 0.20246 0.33879 0.0
H781 H 0.57978 0.29385 0.46685 0.0
H782 H 0.56246 0.2779 0.42925 0.0
C783 C 0.50518 0.19107 0.31766 0.0
C784 C 0.54523 0.20871 0.37014 0.0
H785 H 0.53482 0.20706 0.43141 0.0
C786 C 0.56398 0.22537 0.37029 0.0
C787 C 0.53483 0.20171 0.3925 0.0
C788 C 0.51557 0.18274 0.39371 0.0
C789 C 0.57242 0.23547 0.39216 0.0
C790 C 0.56149 0.2291 0.41444 0.0
C791 C 0.54294 0.2122 0.4143 0.0
C792 C 0.56982 0.23885 0.43819 0.0
C793 C 0.59337 0.25236 0.39127 0.0
C794 C 0.57851 0.22215 0.4563 0.0
C795 C 0.58813 0.23117 0.47797 0.0
C796 C 0.58925 0.25711 0.48196 0.0
C797 C 0.57936 0.27376 0.46433 0.0
C798 C 0.56965 0.2647 0.4427 0.0
H799 H 0.60334 0.25027 0.37396 0.0
H800 H 0.5869 0.27217 0.39256 0.0
H801 H 0.6058 0.24835 0.40674 0.0
H802 H 0.57863 0.20211 0.4533 0.0
H803 H 0.59557 0.21779 0.49112 0.0
H804 H 0.07333 0.31429 0.51227 0.0
H805 H 0.05855 0.32548 0.55299 0.0
H806 H 0.09939 0.26315 0.58413 0.0
H807 H 0.11524 0.25334 0.54399 0.0
H808 H 0.03212 0.2994 0.58489 0.0
H809 H 0.11878 0.31827 0.62818 0.0
H810 H 0.11545 0.31455 0.59569 0.0
H811 H 0.11831 0.28748 0.61542 0.0
C812 C 0.07918 0.3031 0.52788 0.0
C813 C 0.09475 0.28224 0.52481 0.0
C814 C 0.07068 0.30943 0.55113 0.0
C815 C 0.07788 0.29524 0.57179 0.0
C816 C 0.09366 0.2746 0.56866 0.0
H817 H 0.03735 0.29743 0.72622 0.0
H818 H 0.05097 0.28436 0.68552 0.0
C819 C 0.10221 0.26845 0.54552 0.0
C820 C 0.06862 0.30164 0.59652 0.0
H821 H 0.08588 0.31447 0.65499 0.0
C822 C 0.0439 0.30282 0.60015 0.0
C823 C 0.08394 0.30616 0.61657 0.0
C824 C 0.11057 0.30681 0.61375 0.0
C825 C 0.03417 0.308 0.62322 0.0
C826 C 0.04949 0.31212 0.64324 0.0
C827 C 0.07417 0.31095 0.63969 0.0
C828 C 0.04021 0.31924 0.66765 0.0
C829 C 1.00753 0.30886 0.62615 0.0
C830 C 0.02969 0.34311 0.67108 0.0
C831 C 0.02215 0.35064 0.69421 0.0
C832 C 0.02477 0.3344 0.71445 0.0
C833 C 0.03493 0.31028 0.71096 0.0
C834 C 0.04277 0.30284 0.68776 0.0
H835 H 0.99831 0.30077 0.61022 0.0
H836 H 1.00249 0.29853 0.64288 0.0
H837 H 1.00118 0.32864 0.62812 0.0
H838 H 0.0278 0.35618 0.65593 0.0
H839 H 0.01471 0.36946 0.69631 0.0
H840 H 0.03549 0.80811 0.79929 0.0
H841 H 0.02423 0.78769 0.83729 0.0
H842 H 0.9506 0.80803 0.82287 0.0
H843 H 0.96162 0.82801 0.78461 0.0
H844 H 1.00429 0.81149 0.87528 0.0
H845 H 0.9456 0.73638 0.84535 0.0
H846 H 0.96472 0.75241 0.82455 0.0
H847 H 0.9364 0.76637 0.83294 0.0
C848 C 0.01682 0.80772 0.8039 0.0
C849 C 0.99944 0.8197 0.7889 0.0
C850 C 0.01044 0.7961 0.82568 0.0
C851 C 0.98656 0.79617 0.83289 0.0
C852 C 0.96907 0.80725 0.81747 0.0
H853 H 0.92775 0.79447 0.97685 0.0
H854 H 0.94695 0.80528 0.9386 0.0
C855 C 0.97542 0.81873 0.79559 0.0
C856 C 0.98022 0.78681 0.85746 0.0
H857 H 0.94268 0.74844 0.88731 0.0
C858 C 0.99103 0.79746 0.87791 0.0
C859 C 0.96315 0.7683 0.86091 0.0
C860 C 0.95198 0.75501 0.83975 0.0
C861 C 0.98464 0.79073 0.90171 0.0
C862 C 0.96658 0.7733 0.90513 0.0
C863 C 0.95637 0.762 0.88469 0.0
C864 C 0.95736 0.76705 0.92964 0.0
C865 C 0.99737 0.80234 0.9229 0.0
C866 C 0.95682 0.74197 0.9374 0.0
C867 C 0.94564 0.73571 0.95915 0.0
C868 C 0.93474 0.75443 0.97358 0.0
C869 C 0.93619 0.77963 0.96631 0.0
C870 C 0.94723 0.78586 0.94444 0.0
H871 H 0.01526 0.80855 0.9176 0.0
H872 H 0.98693 0.81908 0.92908 0.0
H873 H 0.9994 0.78899 0.93846 0.0
H874 H 0.9645 0.72716 0.92627 0.0
H875 H 0.94489 0.71612 0.96424 0.0
H876 H 0.47813 0.71503 0.22721 0.0
H877 H 0.46395 0.73102 0.18723 0.0
H878 H 0.48835 0.66216 0.15371 0.0
H879 H 0.50227 0.64615 0.19324 0.0
H880 H 0.50084 0.70725 0.12812 0.0
H881 H 0.40456 0.70437 0.15006 0.0
H882 H 0.42314 0.7208 0.171 0.0
H883 H 0.4271 0.6875 0.16785 0.0
C884 C 0.48056 0.70342 0.21126 0.0
C885 C 0.49133 0.67935 0.21339 0.0
C886 C 0.47236 0.7125 0.18847 0.0
C887 C 0.47491 0.69767 0.1675 0.0
C888 C 0.48617 0.67392 0.1696 0.0
H889 H 0.40767 0.70001 0.02492 0.0
H890 H 0.42309 0.69003 0.06603 0.0
C891 C 0.49415 0.66481 0.19226 0.0
C892 C 0.46573 0.70644 0.14327 0.0
H893 H 0.41447 0.71812 0.11061 0.0
C894 C 0.48197 0.70985 0.12433 0.0
C895 C 0.44108 0.70946 0.13828 0.0
C896 C 0.42284 0.70521 0.15774 0.0
C897 C 0.47425 0.71613 0.10053 0.0
C898 C 0.44961 0.71919 0.09554 0.0
C899 C 0.43335 0.71586 0.11449 0.0
C900 C 0.44037 0.7253 0.07062 0.0
C901 C 0.49247 0.71875 0.08073 0.0
C902 C 0.44492 0.74844 0.05956 0.0
C903 C 0.43612 0.75414 0.03614 0.0
C904 C 0.42254 0.73686 0.02337 0.0
C905 C 0.41815 0.71363 0.03434 0.0
C906 C 0.42683 0.70798 0.05785 0.0
H907 H 0.5102 0.71085 0.08638 0.0
H908 H 0.48674 0.70921 0.06386 0.0
H909 H 0.49433 0.7389 0.07634 0.0
H910 H 0.45514 0.76217 0.06912 0.0
H911 H 0.44002 0.77205 0.02797 0.0
H912 H 0.18063 0.35386 0.35119 0.0
H913 H 0.19574 0.3752 0.31519 0.0
H914 H 0.18558 0.30898 0.2724 0.0
H915 H 0.17062 0.28736 0.30839 0.0
H916 H 0.23395 0.36291 0.28266 0.0
H917 H 0.14557 0.36401 0.23616 0.0
H918 H 0.14914 0.35697 0.26823 0.0
H919 H 0.1575 0.3339 0.24596 0.0
C920 C 0.182 0.34364 0.33426 0.0
C921 C 0.1742 0.31894 0.33267 0.0
C922 C 0.19055 0.35592 0.31365 0.0
C923 C 0.1914 0.34383 0.29103 0.0
C924 C 0.18461 0.31884 0.28956 0.0
H925 H 0.21677 0.42189 0.15097 0.0
H926 H 0.21261 0.38684 0.18001 0.0
C927 C 0.17605 0.30653 0.31016 0.0
C928 C 0.1985 0.35787 0.26892 0.0
H929 H 0.17634 0.38422 0.21613 0.0
C930 C 0.22145 0.36733 0.26797 0.0
C931 C 0.18223 0.36345 0.24965 0.0
C932 C 0.15716 0.35425 0.24997 0.0
C933 C 0.2283 0.38287 0.24866 0.0
C934 C 0.21163 0.38949 0.23007 0.0
C935 C 0.18909 0.37905 0.23037 0.0
C936 C 0.21607 0.40975 0.21215 0.0
C937 C 0.25319 0.39248 0.24856 0.0
C938 C 0.21927 0.43412 0.22059 0.0
C939 C 0.22144 0.45396 0.2042 0.0
C940 C 0.2204 0.44994 0.17895 0.0
C941 C 0.21766 0.42547 0.17035 0.0
C942 C 0.21529 0.4055 0.18689 0.0
H943 H 0.2657 0.37977 0.25893 0.0
H944 H 0.25984 0.3946 0.22967 0.0
H945 H 0.25317 0.41111 0.2574 0.0
H946 H 0.21944 0.43795 0.23996 0.0
H947 H 0.22358 0.4726 0.21139 0.0
H948 H 0.95231 0.89582 0.5787 0.0
H949 H 0.93462 0.91196 0.5404 0.0
H950 H 0.87369 0.94068 0.57975 0.0
H951 H 0.89141 0.92529 0.61797 0.0
H952 H 0.8916 0.89957 0.51898 0.0
H953 H 0.89099 1.00097 0.53856 0.0
H954 H 0.90866 0.97829 0.55607 0.0
H955 H 0.87755 0.98344 0.5625 0.0
C956 C 0.93532 0.90594 0.57924 0.0
C957 C 0.92331 0.90922 0.60148 0.0
C958 C 0.92517 0.91503 0.5573 0.0
C959 C 0.90296 0.92788 0.55719 0.0
C960 C 0.89104 0.93129 0.57937 0.0
H961 H 0.78673 0.97661 0.47195 0.0
H962 H 0.81853 0.96683 0.50113 0.0
C963 C 0.9011 0.92217 0.60122 0.0
C964 C 0.89148 0.93672 0.53394 0.0
H965 H 0.86376 0.98802 0.50732 0.0
C966 C 0.88594 0.919 0.51614 0.0
C967 C 0.88425 0.96211 0.53012 0.0
C968 C 0.89089 0.98234 0.54772 0.0
C969 C 0.87192 0.92568 0.49555 0.0
C970 C 0.86347 0.9508 0.49253 0.0
C971 C 0.87017 0.96875 0.50963 0.0
C972 C 0.84507 0.95812 0.47391 0.0
C973 C 0.86499 0.90554 0.47798 0.0
C974 C 0.84946 0.95701 0.44869 0.0
C975 C 0.8311 0.96272 0.43174 0.0
C976 C 0.80814 0.96945 0.43987 0.0
C977 C 0.80415 0.97127 0.46506 0.0
C978 C 0.82236 0.96575 0.48183 0.0
H979 H 0.87055 0.88648 0.48455 0.0
H980 H 0.84544 0.90619 0.47497 0.0
H981 H 0.87354 0.90884 0.46013 0.0
H982 H 0.86696 0.95152 0.44214 0.0
H983 H 0.8347 0.96129 0.41243 0.0
H984 H 0.28746 0.54671 0.7081 0.0
H985 H 0.29445 0.58146 0.73559 0.0
H986 H 0.32062 0.62504 0.67564 0.0
H987 H 0.31315 0.59014 0.64767 0.0
H988 H 0.35224 0.61655 0.71988 0.0
H989 H 0.26172 0.6538 0.74181 0.0
H990 H 0.26493 0.62016 0.74136 0.0
H991 H 0.26855 0.63773 0.71367 0.0
C992 C 0.29432 0.56386 0.70066 0.0
C993 C 0.29993 0.56574 0.67583 0.0
C994 C 0.29816 0.58373 0.71636 0.0
C995 C 0.30789 0.60584 0.70762 0.0
C996 C 0.31292 0.60815 0.68265 0.0
H997 H 0.33997 0.72429 0.81296 0.0
H998 H 0.32647 0.70365 0.77581 0.0
C999 C 0.30865 0.58829 0.66675 0.0
C1000 C 0.31501 0.62504 0.72533 0.0
H1001 H 0.29278 0.66276 0.77032 0.0
C1002 C 0.33929 0.6271 0.73058 0.0
C1003 C 0.29807 0.63875 0.73921 0.0
C1004 C 0.27183 0.63775 0.73367 0.0
C1005 C 0.34701 0.64139 0.75031 0.0
C1006 C 0.32999 0.65379 0.76521 0.0
C1007 C 0.30578 0.653 0.75904 0.0
C1008 C 0.33704 0.66631 0.78806 0.0
C1009 C 0.37332 0.64255 0.75551 0.0
C1010 C 0.34686 0.65205 0.80746 0.0
C1011 C 0.35435 0.6637 0.82878 0.0
C1012 C 0.35219 0.6899 0.83115 0.0
C1013 C 0.3417 0.70407 0.81188 0.0
C1014 C 0.33411 0.69235 0.79056 0.0
H1015 H 0.38405 0.63754 0.73924 0.0
H1016 H 0.37801 0.66156 0.7616 0.0
H1017 H 0.37823 0.62905 0.77034 0.0
H1018 H 0.34884 0.63186 0.80606 0.0
H1019 H 0.36187 0.65214 0.8434 0.0
H1020 H 0.5793 0.06501 0.11708 0.0
H1021 H 0.59857 0.0508 0.07947 0.0
H1022 H 0.63841 0.11829 0.07719 0.0
H1023 H 0.61914 0.13276 0.11449 0.0
H1024 H 0.60026 0.07313 0.03248 0.0
H1025 H 0.69029 0.06264 0.07379 0.0
H1026 H 0.66373 0.06595 0.09188 0.0
H1027 H 0.67647 0.09305 0.07816 0.0
C1028 C 0.592 0.07696 0.10848 0.0
C1029 C 0.5978 0.09997 0.11906 0.0
C1030 C 0.60308 0.06874 0.08701 0.0
C1031 C 0.62027 0.08324 0.07572 0.0
C1032 C 0.62564 0.10647 0.08586 0.0
H1033 H 0.71253 0.07699 0.95156 0.0
H1034 H 0.68899 0.0874 0.9874 0.0
C1035 C 0.6146 0.1147 0.10727 0.0
C1036 C 0.63272 0.07422 0.05339 0.0
H1037 H 0.68797 0.06067 0.03055 0.0
C1038 C 0.61941 0.07018 0.03207 0.0
C1039 C 0.65771 0.07024 0.05289 0.0
C1040 C 0.6729 0.07295 0.07545 0.0
C1041 C 0.63052 0.06327 0.01007 0.0
C1042 C 0.65558 0.0599 0.00946 0.0
C1043 C 0.66878 0.06338 0.03094 0.0
C1044 C 0.66871 0.05373 0.98663 0.0
C1045 C 0.61542 0.0605 0.98747 0.0
C1046 C 0.66514 0.0313 0.97405 0.0
C1047 C 0.67862 0.02525 0.95334 0.0
C1048 C 0.69607 0.04144 0.9449 0.0
C1049 C 0.69932 0.06401 0.95743 0.0
C1050 C 0.68586 0.07002 0.97802 0.0
H1051 H 0.59739 0.0693 0.98961 0.0
H1052 H 0.62398 0.06904 0.9714 0.0
H1053 H 0.61337 0.04029 0.98376 0.0
H1054 H 0.65233 0.01818 0.98056 0.0
H1055 H 0.6757 0.00765 0.94428 0.0
H1056 H 0.68118 0.14738 0.65748 0.0
H1057 H 0.69468 0.12923 0.69635 0.0
H1058 H 0.67618 0.1985 0.73254 0.0
H1059 H 0.66196 0.21669 0.69362 0.0
H1060 H 0.73005 0.1455 0.72922 0.0
H1061 H 0.64052 0.14549 0.77191 0.0
H1062 H 0.64429 0.14981 0.73951 0.0
H1063 H 0.65038 0.17484 0.76005 0.0
C1064 C 0.67976 0.15875 0.67371 0.0
C1065 C 0.67019 0.18342 0.67243 0.0
C1066 C 0.68768 0.14839 0.69591 0.0
C1067 C 0.68618 0.16237 0.71743 0.0
C1068 C 0.67719 0.18723 0.71623 0.0
H1069 H 0.71522 0.08827 0.86104 0.0
H1070 H 0.70902 0.12335 0.83179 0.0
C1071 C 0.66927 0.19767 0.69393 0.0
C1072 C 0.69378 0.15042 0.74094 0.0
H1073 H 0.67205 0.1257 0.79361 0.0
C1074 C 0.71745 0.14155 0.74348 0.0
C1075 C 0.67739 0.14544 0.75968 0.0
C1076 C 0.65167 0.15421 0.75776 0.0
C1077 C 0.72488 0.12684 0.76365 0.0
C1078 C 0.70814 0.12048 0.78157 0.0
C1079 C 0.68485 0.13064 0.77986 0.0
C1080 C 0.71344 0.10025 0.79977 0.0
C1081 C 0.75044 0.11746 0.76521 0.0
C1082 C 0.71787 0.0758 0.79147 0.0
C1083 C 0.72115 0.05598 0.80794 0.0
C1084 C 0.7201 0.06007 0.83319 0.0
C1085 C 0.71616 0.08463 0.84167 0.0
C1086 C 0.7126 0.10461 0.82502 0.0
H1087 H 0.76233 0.12993 0.75501 0.0
H1088 H 0.75666 0.11603 0.78446 0.0
H1089 H 0.75201 0.09854 0.75702 0.0
H1090 H 0.7182 0.07191 0.77211 0.0
H1091 H 0.72422 0.03729 0.80081 0.0
H1092 H 0.21106 0.43378 0.05972 0.0
H1093 H 0.18596 0.42389 0.02503 0.0
H1094 H 0.14331 0.49128 0.03679 0.0
H1095 H 0.16878 0.50173 0.07148 0.0
H1096 H 0.13817 0.4157 0.02293 0.0
H1097 H 0.16025 0.49742 0.96481 0.0
H1098 H 0.17716 0.48875 0.99185 0.0
H1099 H 0.14873 0.5048 0.99445 0.0
C1100 C 0.19636 0.44659 0.05505 0.0
C1101 C 0.19204 0.46865 0.06841 0.0
C1102 C 0.18199 0.44086 0.03515 0.0
C1103 C 0.16296 0.457 0.02806 0.0
C1104 C 0.15821 0.4788 0.04161 0.0
H1105 H 0.06514 0.43397 0.90461 0.0
H1106 H 0.08372 0.4515 0.94103 0.0
C1107 C 0.17268 0.48464 0.06157 0.0
C1108 C 0.14823 0.45053 1.00656 0.0
H1109 H 0.13346 0.46888 0.94835 0.0
C1110 C 0.13702 0.42743 1.0067 0.0
C1111 C 0.14668 0.46588 0.98539 0.0
C1112 C 0.15897 0.49052 0.9839 0.0
C1113 C 0.12477 0.41902 0.98612 0.0
C1114 C 0.12386 0.43397 0.96474 0.0
C1115 C 0.13427 0.45747 0.9648 0.0
C1116 C 0.11338 0.42467 0.94179 0.0
C1117 C 0.1131 0.39401 0.98728 0.0
C1118 C 0.12429 0.40428 0.92983 0.0
C1119 C 0.1139 0.39439 0.90896 0.0
C1120 C 0.09231 0.40466 0.89962 0.0
C1121 C 0.08184 0.4257 0.91119 0.0
C1122 C 0.09234 0.43567 0.93207 0.0
H1123 H 0.1105 0.38768 1.00639 0.0
H1124 H 0.09558 0.39492 0.97779 0.0
H1125 H 0.12456 0.37975 0.97803 0.0
H1126 H 0.14077 0.39582 0.93682 0.0
H1127 H 0.12274 0.37856 0.90024 0.0
H1128 H 0.82437 0.95493 0.32313 0.0
H1129 H 0.83426 0.928 0.28884 0.0
H1130 H 0.76609 0.89396 0.29416 0.0
H1131 H 0.75577 0.92128 0.32858 0.0
H1132 H 0.83722 0.87592 0.28598 0.0
H1133 H 0.76822 0.91616 0.22234 0.0
H1134 H 0.77615 0.93138 0.25038 0.0
H1135 H 0.75777 0.90455 0.25103 0.0
C1136 C 0.81138 0.94175 0.31713 0.0
C1137 C 0.78917 0.94045 0.32862 0.0
C1138 C 0.81713 0.92629 0.29748 0.0
C1139 C 0.80083 0.90918 0.28867 0.0
C1140 C 0.7788 0.90735 0.30035 0.0
H1141 H 0.81911 0.81622 0.15749 0.0
H1142 H 0.80329 0.83372 0.19553 0.0
C1143 C 0.77299 0.92287 0.32014 0.0
C1144 C 0.80726 0.89353 0.26721 0.0
H1145 H 0.79401 0.88453 0.20703 0.0
C1146 C 0.82764 0.87765 0.26877 0.0
C1147 C 0.79472 0.89571 0.24478 0.0
C1148 C 0.77309 0.91298 0.24181 0.0
C1149 C 0.8361 0.86433 0.24844 0.0
C1150 C 0.82412 0.86726 0.22577 0.0
C1151 C 0.80322 0.88237 0.2244 0.0
C1152 C 0.83383 0.85606 0.20302 0.0
C1153 C 0.85791 0.84731 0.2514 0.0
C1154 C 0.85613 0.86296 0.19445 0.0
C1155 C 0.86522 0.85298 0.17281 0.0
C1156 C 0.85216 0.83593 0.15911 0.0
C1157 C 0.82977 0.82906 0.16772 0.0
C1158 C 0.82064 0.83915 0.18938 0.0
H1159 H 0.86064 0.84132 0.27069 0.0
H1160 H 0.85664 0.83037 0.23991 0.0
H1161 H 0.87379 0.85756 0.24569 0.0
H1162 H 0.86646 0.8763 0.20441 0.0
H1163 H 0.8826 0.85853 0.16689 0.0
H1164 H 0.31413 0.57746 0.55808 0.0
H1165 H 0.34025 0.58558 0.52391 0.0
H1166 H 0.37771 0.51491 0.5369 0.0
H1167 H 0.35147 0.50644 0.57125 0.0
H1168 H 0.391 0.5878 0.5236 0.0
H1169 H 0.35753 0.5126 0.46387 0.0
H1170 H 0.34139 0.52362 0.49024 0.0
H1171 H 0.36735 0.50348 0.49404 0.0
C1172 C 0.32792 0.56358 0.5538 0.0
C1173 C 0.33055 0.54118 0.56739 0.0
C1174 C 0.34286 0.5683 0.53423 0.0
C1175 C 0.3607 0.55072 0.52767 0.0
C1176 C 0.36379 0.52855 0.54143 0.0
H1177 H 0.45279 0.56066 0.39907 0.0
H1178 H 0.43464 0.5458 0.43681 0.0
C1179 C 0.34885 0.52381 0.56114 0.0
C1180 C 0.37586 0.55591 0.50634 0.0
H1181 H 0.38659 0.53842 0.44754 0.0
C1182 C 0.3902 0.57688 0.50704 0.0
C1183 C 0.37488 0.54155 0.48481 0.0
C1184 C 0.35938 0.51912 0.48295 0.0
C1185 C 0.40323 0.5842 0.48662 0.0
C1186 C 0.40145 0.5705 0.46474 0.0
C1187 C 0.38784 0.54895 0.4643 0.0
C1188 C 0.4124 0.57919 0.44178 0.0
C1189 C 0.41869 0.60665 0.48866 0.0
C1190 C 0.40559 0.60265 0.43182 0.0
C1191 C 0.41596 0.61121 0.41041 0.0
C1192 C 0.43326 0.59641 0.39829 0.0
C1193 C 0.43973 0.57266 0.40807 0.0
C1194 C 0.42931 0.56408 0.42956 0.0
H1195 H 0.42386 0.61014 0.5079 0.0
H1196 H 0.43508 0.60416 0.47767 0.0
H1197 H 0.40864 0.62353 0.48179 0.0
H1198 H 0.39224 0.61442 0.44067 0.0
H1199 H 0.41072 0.62971 0.40365 0.0
H1200 H 0.17644 0.24302 0.43017 0.0
H1201 H 0.20953 0.23646 0.40144 0.0
H1202 H 0.22899 0.1667 0.43765 0.0
H1203 H 0.19626 0.1731 0.46609 0.0
H1204 H 0.2596 0.22966 0.41365 0.0
H1205 H 0.22591 0.14735 0.36513 0.0
H1206 H 0.20687 0.16811 0.38274 0.0
H1207 H 0.22503 0.14417 0.39771 0.0
C1208 C 0.18761 0.22614 0.4317 0.0
C1209 C 0.18366 0.20846 0.45026 0.0
C1210 C 0.20656 0.22247 0.41538 0.0
C1211 C 0.2216 0.2009 0.41717 0.0
C1212 C 0.21743 0.18324 0.43559 0.0
H1213 H 0.34826 0.13076 0.36038 0.0
H1214 H 0.31191 0.144 0.38129 0.0
C1215 C 0.19873 0.18697 0.45191 0.0
C1216 C 0.24232 0.19694 0.40068 0.0
H1217 H 0.26752 0.15432 0.3616 0.0
C1218 C 0.26122 0.21343 0.40193 0.0
C1219 C 0.24446 0.17572 0.38544 0.0
C1220 C 0.2244 0.15793 0.38244 0.0
C1221 C 0.28263 0.20856 0.38936 0.0
C1222 C 0.28506 0.18683 0.37478 0.0
C1223 C 0.2658 0.17087 0.37287 0.0
C1224 C 0.30775 0.17955 0.3623 0.0
C1225 C 0.30284 0.22609 0.39273 0.0
C1226 C 0.31767 0.19506 0.34452 0.0
C1227 C 0.33873 0.18762 0.33262 0.0
C1228 C 0.35033 0.16442 0.33814 0.0
C1229 C 0.34023 0.14896 0.35593 0.0
C1230 C 0.31924 0.15641 0.36779 0.0
H1231 H 0.30012 0.23844 0.40875 0.0
H1232 H 0.32001 0.21544 0.39508 0.0
H1233 H 0.30413 0.2382 0.3763 0.0
H1234 H 0.30897 0.2128 0.33959 0.0
H1235 H 0.34596 0.20011 0.31914 0.0
H1236 H 0.13641 0.09596 0.60189 0.0
H1237 H 0.12409 0.05676 0.62084 0.0
H1238 H 0.05674 0.06358 0.58294 0.0
H1239 H 0.069 0.10257 0.56377 0.0
H1240 H 0.0822 0.05499 0.65079 0.0
H1241 H 0.07875 0.98917 0.57289 0.0
H1242 H 0.09585 0.0172 0.57214 0.0
H1243 H 0.06415 0.01932 0.56814 0.0
C1244 C 0.1192 0.08879 0.59719 0.0
C1245 C 0.10362 0.10234 0.58144 0.0
C1246 C 0.11216 0.06649 0.60808 0.0
C1247 C 0.08959 0.05721 0.60312 0.0
C1248 C 0.07434 0.07024 0.58674 0.0
H1249 H 0.01007 0.93517 0.66692 0.0
H1250 H 0.02258 0.97029 0.64142 0.0
C1251 C 0.08129 0.0926 0.57599 0.0
C1252 C 0.08114 0.03526 0.61676 0.0
H1253 H 0.06303 0.97521 0.61043 0.0
C1254 C 0.07812 0.0375 0.642 0.0
C1255 C 0.0755 0.01265 0.60513 0.0
C1256 C 0.07885 0.00923 0.5781 0.0
C1257 C 0.06953 0.01773 0.65599 0.0
C1258 C 0.06434 0.9949 0.64449 0.0
C1259 C 0.06705 0.99274 0.61917 0.0
C1260 C 0.05708 0.97282 0.65877 0.0
C1261 C 0.06578 0.02159 0.68294 0.0
C1262 C 0.07255 0.96228 0.67646 0.0
C1263 C 0.06549 0.94243 0.69103 0.0
C1264 C 0.04281 0.93247 0.6881 0.0
C1265 C 0.02759 0.94247 0.66974 0.0
C1266 C 0.03471 0.9625 0.65514 0.0
H1267 H 0.06407 0.04181 0.68751 0.0
H1268 H 0.04961 0.01219 0.68925 0.0
H1269 H 0.08131 0.01342 0.69317 0.0
H1270 H 0.09008 0.96963 0.67918 0.0
H1271 H 0.07783 0.93505 0.70476 0.0
H1272 H 0.16677 0.80525 0.81512 0.0
H1273 H 0.20341 0.7937 0.83768 0.0
H1274 H 0.1946 0.86008 0.88135 0.0
H1275 H 0.15834 0.87188 0.85888 0.0
H1276 H 0.24576 0.82024 0.84374 0.0
H1277 H 0.20252 0.80426 0.93256 0.0
H1278 H 0.18602 0.80626 0.90422 0.0
H1279 H 0.19466 0.83431 0.91941 0.0
C1280 C 0.17265 0.81743 0.82949 0.0
C1281 C 0.15933 0.83937 0.83533 0.0
C1282 C 0.19358 0.81075 0.84241 0.0
C1283 C 0.20156 0.82578 0.86151 0.0
C1284 C 0.18851 0.84783 0.86711 0.0
H1285 H 0.31473 0.83949 0.96402 0.0
H1286 H 0.28071 0.84339 0.9362 0.0
C1287 C 0.16767 0.85452 0.85425 0.0
C1288 C 0.22364 0.81884 0.87552 0.0
H1289 H 0.24459 0.80891 0.93353 0.0
C1290 C 0.24552 0.81742 0.86333 0.0
C1291 C 0.22332 0.81497 0.90107 0.0
C1292 C 0.20035 0.81476 0.91507 0.0
C1293 C 0.26715 0.81356 0.87619 0.0
C1294 C 0.26684 0.81078 0.90187 0.0
C1295 C 0.24488 0.81125 0.91388 0.0
C1296 C 0.28896 0.80899 0.91698 0.0
C1297 C 0.29022 0.81357 0.86238 0.0
C1298 C 0.30522 0.78847 0.91528 0.0
C1299 C 0.32488 0.78626 0.93122 0.0
C1300 C 0.32847 0.80449 0.94912 0.0
C1301 C 0.31249 0.82521 0.95035 0.0
C1302 C 0.29298 0.82743 0.93449 0.0
H1303 H 0.28768 0.82057 0.84338 0.0
H1304 H 0.30331 0.82534 0.87177 0.0
H1305 H 0.29786 0.79416 0.86165 0.0
H1306 H 0.30229 0.77376 0.90223 0.0
H1307 H 0.33664 0.76986 0.93024 0.0
H1308 H 0.4993 0.07055 0.1753 0.0
H1309 H 0.48529 0.03669 0.14972 0.0
H1310 H 0.42246 0.03195 0.19377 0.0
H1311 H 0.43606 0.06602 0.2192 0.0
H1312 H 0.47662 0.98854 0.1642 0.0
H1313 H 0.39449 0.03366 0.12526 0.0
H1314 H 0.41712 0.05124 0.14032 0.0
H1315 H 0.3958 0.03463 0.15794 0.0
C1316 C 0.48237 0.06251 0.17943 0.0
C1317 C 0.4688 0.07107 0.19933 0.0
C1318 C 0.4744 0.04313 0.16477 0.0
C1319 C 0.45267 0.03202 0.16961 0.0
C1320 C 0.43901 0.04062 0.18934 0.0
H1321 H 0.37875 0.90303 0.11881 0.0
H1322 H 0.39197 0.94072 0.1393 0.0
C1323 C 0.44692 0.06003 0.20397 0.0
C1324 C 0.44496 0.01046 0.15494 0.0
H1325 H 0.39925 0.98942 0.12015 0.0
C1326 C 0.45981 0.98881 0.15436 0.0
C1327 C 0.42299 0.01083 0.14219 0.0
C1328 C 0.40677 0.03392 0.14122 0.0
C1329 C 0.45301 0.96728 0.14192 0.0
C1330 C 0.43092 0.96755 0.12942 0.0
C1331 C 0.41616 0.98927 0.12979 0.0
C1332 C 0.42262 0.94524 0.11633 0.0
C1333 C 0.4692 0.94417 0.14289 0.0
C1334 C 0.43525 0.93555 0.09636 0.0
C1335 C 0.42784 0.91392 0.08471 0.0
C1336 C 0.40758 0.90162 0.09276 0.0
C1337 C 0.39465 0.91179 0.11241 0.0
C1338 C 0.40207 0.93342 0.12403 0.0
H1339 H 0.48267 0.94514 0.15775 0.0
H1340 H 0.45883 0.92705 0.14561 0.0
H1341 H 0.47878 0.94233 0.12536 0.0
H1342 H 0.45095 0.94463 0.08989 0.0
H1343 H 0.43829 0.90653 0.06974 0.0
H1344 H 0.8541 0.40924 0.65401 0.0
H1345 H 0.817 0.39401 0.63701 0.0
H1346 H 0.82729 0.32484 0.67737 0.0
H1347 H 0.86454 0.33975 0.69424 0.0
H1348 H 0.81291 0.35042 0.6088 0.0
H1349 H 0.75785 0.34593 0.6923 0.0
H1350 H 0.78455 0.36369 0.6908 0.0
H1351 H 0.78656 0.33022 0.69437 0.0
C1352 C 0.84847 0.3908 0.65932 0.0
C1353 C 0.86233 0.37575 0.67552 0.0
C1354 C 0.8272 0.38218 0.64969 0.0
C1355 C 0.81924 0.35842 0.65616 0.0
C1356 C 0.83282 0.34345 0.67254 0.0
H1357 H 0.69838 0.27451 0.60235 0.0
H1358 H 0.73364 0.28741 0.62506 0.0
C1359 C 0.85413 0.35204 0.68218 0.0
C1360 C 0.79751 0.34878 0.64455 0.0
H1361 H 0.74138 0.32948 0.65614 0.0
C1362 C 0.79726 0.34589 0.61915 0.0
C1363 C 0.77722 0.34261 0.65813 0.0
C1364 C 0.77635 0.34592 0.68539 0.0
C1365 C 0.77726 0.33705 0.60693 0.0
C1366 C 0.75675 0.33144 0.62041 0.0
C1367 C 0.75712 0.33385 0.64587 0.0
C1368 C 0.73451 0.32408 0.60811 0.0
C1369 C 0.77836 0.33359 0.57967 0.0
C1370 C 0.72294 0.3407 0.59165 0.0
C1371 C 0.70294 0.33343 0.57867 0.0
C1372 C 0.69389 0.30939 0.582 0.0
C1373 C 0.70491 0.29311 0.5993 0.0
C1374 C 0.72505 0.30044 0.61228 0.0
H1375 H 0.797 0.33188 0.57321 0.0
H1376 H 0.76885 0.31666 0.57402 0.0
H1377 H 0.76972 0.35013 0.57048 0.0
H1378 H 0.72963 0.35923 0.58856 0.0
H1379 H 0.6948 0.3466 0.56575 0.0
H1380 H 1.00352 0.42353 0.82291 0.0
H1381 H 0.99549 0.45681 0.85258 0.0
H1382 H 0.92049 0.45418 0.83637 0.0
H1383 H 0.92838 0.42061 0.80717 0.0
H1384 H 0.97681 0.50284 0.84307 0.0
H1385 H 0.91939 0.45627 0.90968 0.0
H1386 H 0.93658 0.43898 0.8874 0.0
H1387 H 0.90837 0.45369 0.87907 0.0
C1388 C 0.98527 0.42969 0.82608 0.0
C1389 C 0.96658 0.41941 0.8127 0.0
C1390 C 0.9807 0.4488 0.84297 0.0
C1391 C 0.95734 0.45796 0.84696 0.0
C1392 C 0.93861 0.44716 0.83411 0.0
H1393 H 0.91106 0.6058 0.8941 0.0
H1394 H 0.92391 0.56838 0.87183 0.0
C1395 C 0.94316 0.42799 0.81729 0.0
C1396 C 0.95272 0.48001 0.86305 0.0
H1397 H 0.91867 0.50122 0.91048 0.0
C1398 C 0.96427 0.50237 0.85797 0.0
C1399 C 0.9366 0.47946 0.88274 0.0
C1400 C 0.92472 0.45573 0.89023 0.0
C1401 C 0.9596 0.5243 0.87144 0.0
C1402 C 0.9425 0.52412 0.89024 0.0
C1403 C 0.93156 0.50153 0.89589 0.0
C1404 C 0.93532 0.54722 0.90389 0.0
C1405 C 0.97318 0.54741 0.86545 0.0
C1406 C 0.93697 0.54779 0.92945 0.0
C1407 C 0.92929 0.56913 0.94233 0.0
C1408 C 0.91962 0.59039 0.92996 0.0
C1409 C 0.9182 0.58979 0.90432 0.0
C1410 C 0.92584 0.56845 0.89149 0.0
H1411 H 0.99031 0.54253 0.85642 0.0
H1412 H 0.96245 0.55949 0.85269 0.0
H1413 H 0.97692 0.55836 0.88209 0.0
H1414 H 0.94406 0.53162 0.93949 0.0
H1415 H 0.93034 0.56868 0.96205 0.0
H1416 H 0.82368 0.67678 0.06205 0.0
H1417 H 0.78938 0.66774 0.08706 0.0
H1418 H 0.79407 0.73967 0.12165 0.0
H1419 H 0.82833 0.74916 0.09633 0.0
H1420 H 0.78435 0.66576 0.13797 0.0
H1421 H 0.72528 0.74007 0.0958 0.0
H1422 H 0.7532 0.73009 0.08244 0.0
H1423 H 0.75283 0.75027 0.10848 0.0
C1424 C 0.81754 0.69073 0.07499 0.0
C1425 C 0.82874 0.7138 0.07702 0.0
C1426 C 0.79792 0.68547 0.08934 0.0
C1427 C 0.78896 0.70315 0.10596 0.0
C1428 C 0.80045 0.72593 0.10861 0.0
H1429 H 0.65665 0.69429 0.18908 0.0
H1430 H 0.69536 0.7077 0.17461 0.0
C1431 C 0.82014 0.73124 0.09423 0.0
C1432 C 0.76731 0.69765 0.12003 0.0
H1433 H 0.70864 0.71484 0.1261 0.0
C1434 C 0.76783 0.6766 0.13553 0.0
C1435 C 0.74581 0.71187 0.11686 0.0
C1436 C 0.74404 0.73424 0.09988 0.0
C1437 C 0.74733 0.66912 0.14764 0.0
C1438 C 0.72564 0.68281 0.1438 0.0
C1439 C 0.7253 0.70437 0.12898 0.0
C1440 C 0.70283 0.67419 0.15371 0.0
C1441 C 0.74905 0.64655 0.16436 0.0
C1442 C 0.69416 0.65099 0.14666 0.0
C1443 C 0.67214 0.64326 0.15491 0.0
C1444 C 0.65824 0.65866 0.17031 0.0
C1445 C 0.66704 0.68186 0.17748 0.0
C1446 C 0.68909 0.68961 0.16914 0.0
H1447 H 0.76755 0.64293 0.17105 0.0
H1448 H 0.73718 0.64898 0.1803 0.0
H1449 H 0.74357 0.62977 0.1542 0.0
H1450 H 0.70425 0.63899 0.13439 0.0
H1451 H 0.66599 0.6252 0.14921 0.0
H1452 H 0.58306 0.4517 0.46846 0.0
H1453 H 0.56885 0.48712 0.44308 0.0
H1454 H 0.58089 0.44314 0.37853 0.0
H1455 H 0.59555 0.40783 0.40362 0.0
H1456 H 0.59474 0.51179 0.40673 0.0
H1457 H 0.51298 0.47229 0.36819 0.0
H1458 H 0.52793 0.45918 0.39486 0.0
H1459 H 0.53884 0.452 0.3649 0.0
C1460 C 0.58267 0.4495 0.44885 0.0
C1461 C 0.59051 0.42679 0.43815 0.0
C1462 C 0.57443 0.46977 0.43439 0.0
C1463 C 0.57355 0.46774 0.40892 0.0
C1464 C 0.58093 0.44501 0.39818 0.0
H1465 H 0.55581 0.55003 0.2784 0.0
H1466 H 0.56044 0.52088 0.31246 0.0
C1467 C 0.58927 0.42476 0.4126 0.0
C1468 C 0.5662 0.48969 0.39339 0.0
H1469 H 0.52793 0.50807 0.34753 0.0
C1470 C 0.5799 0.5112 0.39404 0.0
C1471 C 0.54673 0.48896 0.37698 0.0
C1472 C 0.53061 0.46697 0.3763 0.0
C1473 C 0.57557 0.53132 0.37766 0.0
C1474 C 0.55677 0.53006 0.36046 0.0
C1475 C 0.54238 0.50905 0.36066 0.0
C1476 C 0.5535 0.54865 0.34023 0.0
C1477 C 0.59196 0.5531 0.37798 0.0
C1478 C 0.54791 0.57418 0.34439 0.0
C1479 C 0.54539 0.59115 0.32471 0.0
C1480 C 0.54827 0.58275 0.30065 0.0
C1481 C 0.55356 0.55719 0.29669 0.0
C1482 C 0.55614 0.54041 0.31618 0.0
H1483 H 0.60794 0.54925 0.38961 0.0
H1484 H 0.59784 0.55764 0.35923 0.0
H1485 H 0.58229 0.56985 0.38524 0.0
H1486 H 0.5454 0.58093 0.36278 0.0
H1487 H 0.54119 0.61071 0.32828 0.0
H1488 H 0.37456 0.3642 0.15674 0.0
H1489 H 0.39689 0.32688 0.17122 0.0
H1490 H 0.33163 0.29397 0.19386 0.0
H1491 H 0.30903 0.33086 0.17855 0.0
H1492 H 0.40105 0.30379 0.21615 0.0
H1493 H 0.36017 0.24083 0.1487 0.0
H1494 H 0.35685 0.27451 0.1467 0.0
H1495 H 0.33936 0.25733 0.16794 0.0
C1496 C 0.36491 0.349 0.16472 0.0
C1497 C 0.33995 0.35044 0.16618 0.0
C1498 C 0.37773 0.32774 0.17315 0.0
C1499 C 0.3659 0.30742 0.18319 0.0
C1500 C 0.34109 0.30921 0.18571 0.0
H1501 H 0.44583 0.18223 0.25428 0.0
H1502 H 0.41727 0.21709 0.24633 0.0
C1503 C 0.32822 0.33047 0.17723 0.0
C1504 C 0.37962 0.28422 0.19035 0.0
H1505 H 0.3872 0.22205 0.17702 0.0
C1506 C 0.39796 0.28587 0.20771 0.0
C1507 C 0.37575 0.26093 0.17907 0.0
C1508 C 0.35712 0.25821 0.1594 0.0
C1509 C 0.41266 0.26496 0.21394 0.0
C1510 C 0.40862 0.2416 0.20285 0.0
C1511 C 0.39013 0.2399 0.18567 0.0
C1512 C 0.42434 0.21913 0.20764 0.0
C1513 C 0.43296 0.26835 0.23163 0.0
C1514 C 0.43695 0.2079 0.18837 0.0
C1515 C 0.45299 0.18777 0.19282 0.0
C1516 C 0.45676 0.17856 0.21663 0.0
C1517 C 0.44345 0.18914 0.23577 0.0
C1518 C 0.42726 0.20916 0.23129 0.0
H1519 H 0.4371 0.28841 0.23382 0.0
H1520 H 0.42804 0.26088 0.24976 0.0
H1521 H 0.44927 0.25799 0.22554 0.0
H1522 H 0.43488 0.21516 0.16996 0.0
H1523 H 0.46294 0.17992 0.1777 0.0
H1524 H 0.96537 0.31203 0.81847 0.0
H1525 H 0.94058 0.27686 0.82827 0.0
H1526 H 0.9089 0.28134 0.7565 0.0
H1527 H 0.9336 0.317 0.74651 0.0
H1528 H 0.87561 0.27492 0.79391 0.0
H1529 H 0.95049 0.20545 0.80345 0.0
H1530 H 0.95421 0.23271 0.82183 0.0
H1531 H 0.95373 0.23569 0.78913 0.0
C1532 C 0.95318 0.30563 0.80467 0.0
C1533 C 0.95168 0.31731 0.78159 0.0
C1534 C 0.93908 0.28534 0.8103 0.0
C1535 C 0.92321 0.27607 0.79297 0.0
C1536 C 0.92118 0.28802 0.77009 0.0
H1537 H 0.82352 0.15271 0.80836 0.0
H1538 H 0.84619 0.18712 0.79149 0.0
C1539 C 0.93533 0.3084 0.76441 0.0
C1540 C 0.90869 0.25407 0.79908 0.0
H1541 H 0.91321 0.19344 0.81957 0.0
C1542 C 0.88379 0.25699 0.79922 0.0
C1543 C 0.91936 0.23063 0.80594 0.0
C1544 C 0.9459 0.22579 0.80487 0.0
C1545 C 0.86936 0.23749 0.80708 0.0
C1546 C 0.88011 0.21433 0.81469 0.0
C1547 C 0.90496 0.21122 0.81388 0.0
C1548 C 0.86607 0.19348 0.82466 0.0
C1549 C 0.8428 0.24215 0.80812 0.0
C1550 C 0.86997 0.18524 0.84876 0.0
C1551 C 0.85705 0.16563 0.85846 0.0
C1552 C 0.83999 0.15355 0.84424 0.0
C1553 C 0.83624 0.16173 0.81998 0.0
C1554 C 0.84919 0.18144 0.81029 0.0
H1555 H 0.83779 0.26241 0.80653 0.0
H1556 H 0.83425 0.23227 0.79283 0.0
H1557 H 0.83558 0.23476 0.82543 0.0
H1558 H 0.88288 0.19423 0.86022 0.0
H1559 H 0.86018 0.16025 0.87732 0.0
H1560 H 0.11482 0.61609 0.08124 0.0
H1561 H 0.07502 0.63067 0.06853 0.0
H1562 H 0.04534 0.56519 0.10129 0.0
H1563 H 0.08516 0.5508 0.11485 0.0
H1564 H 0.04092 0.60796 0.03891 0.0
H1565 H 1.00767 0.62316 0.13325 0.0
H1566 H 0.03888 0.6183 0.12682 0.0
H1567 H 0.01944 0.59234 0.1263 0.0
C1568 C 0.09985 0.60485 0.08595 0.0
C1569 C 0.10321 0.58241 0.09935 0.0
C1570 C 0.0771 0.61311 0.07847 0.0
C1571 C 0.05715 0.5992 0.08422 0.0
C1572 C 0.06043 0.57643 0.09697 0.0
H1573 H 0.91196 0.66636 0.06085 0.0
H1574 H 0.94216 0.63218 0.06711 0.0
C1575 C 0.08324 0.56812 0.1045 0.0
C1576 C 0.03305 0.60919 0.07725 0.0
H1577 H 0.98257 0.63637 0.10102 0.0
C1578 C 0.02799 0.61377 0.05248 0.0
C1579 C 0.01607 0.61658 0.09494 0.0
C1580 C 0.0207 0.61255 0.12184 0.0
C1581 C 1.00698 0.62668 0.04503 0.0
C1582 C 0.99077 0.63551 0.06281 0.0
C1583 C 0.99502 0.62949 0.08743 0.0
C1584 C 0.97184 0.65461 0.05674 0.0
C1585 C 1.00272 0.63166 0.01822 0.0
C1586 C 0.97854 0.67834 0.04882 0.0
C1587 C 0.96157 0.69769 0.04561 0.0
C1588 C 0.93745 0.69378 0.05013 0.0
C1589 C 0.93046 0.66979 0.0572 0.0
C1590 C 0.94765 0.65035 0.06079 0.0
H1591 H 0.0122 0.61744 1.00686 0.0
H1592 H 0.98344 0.63173 0.01367 0.0
H1593 H 1.00953 0.65031 0.0134 0.0
H1594 H 0.9971 0.68218 0.04597 0.0
H1595 H 0.96747 0.71596 0.04003 0.0
H1596 H 0.69715 0.85544 0.32671 0.0
H1597 H 0.67712 0.82029 0.30791 0.0
H1598 H 0.61741 0.8325 0.35562 0.0
H1599 H 0.63674 0.86812 0.37375 0.0
H1600 H 0.66223 0.77637 0.32826 0.0
H1601 H 0.58484 0.83022 0.28977 0.0
H1602 H 0.61102 0.84516 0.30096 0.0
H1603 H 0.58852 0.8354 0.32182 0.0
C1604 C 0.6796 0.85089 0.33297 0.0
C1605 C 0.66858 0.86475 0.35176 0.0
C1606 C 0.66824 0.83066 0.3223 0.0
C1607 C 0.64557 0.82397 0.33004 0.0
C1608 C 0.63467 0.83759 0.34893 0.0
H1609 H 0.54585 0.70839 0.31235 0.0
H1610 H 0.56992 0.74364 0.32365 0.0
C1611 C 0.64594 0.8578 0.35955 0.0
C1612 C 0.63345 0.80238 0.31894 0.0
H1613 H 0.5811 0.7857 0.2926 0.0
C1614 C 0.64463 0.77845 0.32014 0.0
C1615 C 0.61052 0.80508 0.3082 0.0
C1616 C 0.59812 0.83039 0.30486 0.0
C1617 C 0.63306 0.75706 0.31197 0.0
C1618 C 0.60978 0.7597 0.30217 0.0
C1619 C 0.5989 0.78369 0.30027 0.0
C1620 C 0.59576 0.73772 0.29515 0.0
C1621 C 0.64538 0.73166 0.31477 0.0
C1622 C 0.60224 0.72264 0.27523 0.0
C1623 C 0.58839 0.70235 0.26858 0.0
C1624 C 0.56783 0.69678 0.28178 0.0
C1625 C 0.56155 0.71196 0.30176 0.0
C1626 C 0.57528 0.73222 0.30827 0.0
H1627 H 0.66174 0.73236 0.32619 0.0
H1628 H 0.63323 0.7181 0.32307 0.0
H1629 H 0.65045 0.72454 0.29652 0.0
H1630 H 0.61781 0.72674 0.26464 0.0
H1631 H 0.59373 0.69117 0.25305 0.0
H1632 H 0.5542 0.29759 0.55529 0.0
H1633 H 0.52416 0.33078 0.56142 0.0
H1634 H 0.5791 0.38446 0.57005 0.0
H1635 H 0.60964 0.35093 0.56364 0.0
H1636 H 0.54364 0.38325 0.60857 0.0
H1637 H 0.50207 0.39049 0.51695 0.0
H1638 H 0.50649 0.35864 0.5272 0.0
H1639 H 0.53184 0.37758 0.52201 0.0
C1640 C 0.55995 0.3165 0.5582 0.0
C1641 C 0.58423 0.3217 0.5591 0.0
C1642 C 0.54274 0.33549 0.56153 0.0
C1643 C 0.54938 0.36012 0.5659 0.0
C1644 C 0.57365 0.36557 0.56648 0.0
H1645 H 0.42582 0.46387 0.5852 0.0
H1646 H 0.46539 0.44885 0.5724 0.0
C1647 C 0.59101 0.34648 0.56282 0.0
C1648 C 0.53065 0.37923 0.57183 0.0
H1649 H 0.47724 0.40306 0.55078 0.0
C1650 C 0.52939 0.38814 0.59579 0.0
C1651 C 0.5122 0.3858 0.55509 0.0
C1652 C 0.51328 0.37784 0.52879 0.0
C1653 C 0.50926 0.40182 0.60394 0.0
C1654 C 0.48986 0.40641 0.58776 0.0
C1655 C 0.49196 0.39923 0.56329 0.0
C1656 C 0.4665 0.41646 0.59635 0.0
C1657 C 0.50863 0.41056 0.63001 0.0
C1658 C 0.45388 0.40306 0.61381 0.0
C1659 C 0.43122 0.4114 0.62097 0.0
C1660 C 0.42059 0.43334 0.61076 0.0
C1661 C 0.43334 0.44678 0.59328 0.0
C1662 C 0.45603 0.43834 0.58605 0.0
H1663 H 0.52686 0.41287 0.6374 0.0
H1664 H 0.49841 0.42862 0.63167 0.0
H1665 H 0.49992 0.39632 0.6414 0.0
H1666 H 0.46133 0.38574 0.6215 0.0
H1667 H 0.42179 0.40025 0.63405 0.0
H1668 H 0.2094 0.69698 0.63353 0.0
H1669 H 0.18704 0.73313 0.64969 0.0
H1670 H 0.15423 0.68525 0.70243 0.0
H1671 H 0.17676 0.64897 0.68641 0.0
H1672 H 0.13927 0.73723 0.64767 0.0
H1673 H 0.1691 0.74595 0.7436 0.0
H1674 H 0.18567 0.72774 0.72146 0.0
H1675 H 0.16033 0.71488 0.73621 0.0
C1676 C 0.19765 0.69421 0.6488 0.0
C1677 C 0.19465 0.6701 0.65856 0.0
C1678 C 0.18499 0.7149 0.65809 0.0
C1679 C 0.16908 0.71198 0.67739 0.0
C1680 C 0.16678 0.68809 0.68789 0.0
H1681 H 0.03835 0.78757 0.70708 0.0
H1682 H 0.07243 0.75937 0.69942 0.0
C1683 C 0.17958 0.66734 0.67866 0.0
C1684 C 0.15287 0.73322 0.68438 0.0
H1685 H 0.13204 0.76726 0.73275 0.0
C1686 C 0.138 0.74403 0.66622 0.0
C1687 C 0.15128 0.74224 0.70854 0.0
C1688 C 0.16762 0.73228 0.72853 0.0
C1689 C 0.12093 0.76281 0.67172 0.0
C1690 C 0.11849 0.77088 0.69606 0.0
C1691 C 0.13394 0.7609 0.71412 0.0
C1692 C 0.0985 0.78795 0.70308 0.0
C1693 C 0.10513 0.77349 0.65157 0.0
C1694 C 0.10199 0.81331 0.70816 0.0
C1695 C 0.08241 0.82963 0.71244 0.0
C1696 C 0.05921 0.82066 0.71176 0.0
C1697 C 0.05599 0.79508 0.70752 0.0
C1698 C 0.07543 0.77891 0.70321 0.0
H1699 H 0.11242 0.76923 0.63325 0.0
H1700 H 0.08734 0.76525 0.65287 0.0
H1701 H 0.10276 0.79413 0.65339 0.0
H1702 H 0.11973 0.82057 0.70812 0.0
H1703 H 0.08537 0.84925 0.71574 0.0
H1704 H 0.43265 0.85232 0.98835 0.0
H1705 H 0.4666 0.87756 0.97733 0.0
H1706 H 0.48228 0.82803 0.91744 0.0
H1707 H 0.44834 0.80315 0.92786 0.0
H1708 H 0.51354 0.8635 0.97612 0.0
H1709 H 0.48493 0.89521 0.88398 0.0
H1710 H 0.46478 0.8814 0.90525 0.0
H1711 H 0.48432 0.8618 0.88717 0.0
C1712 C 0.44309 0.847 0.9726 0.0
C1713 C 0.43757 0.8257 0.95895 0.0
C1714 C 0.46257 0.86144 0.96637 0.0
C1715 C 0.47683 0.85499 0.94629 0.0
C1716 C 0.47125 0.83384 0.93261 0.0
H1717 H 0.61131 0.88997 0.88425 0.0
H1718 H 0.57328 0.87322 0.89633 0.0
C1719 C 0.45183 0.81948 0.93874 0.0
C1720 C 0.49831 0.86937 0.94031 0.0
H1721 H 0.52651 0.8982 0.89333 0.0
C1722 C 0.51622 0.87142 0.95813 0.0
C1723 C 0.50186 0.87978 0.91684 0.0
C1724 C 0.48284 0.87968 0.8973 0.0
C1725 C 0.5379 0.88258 0.9528 0.0
C1726 C 0.54173 0.89214 0.92908 0.0
C1727 C 0.52362 0.89071 0.91146 0.0
C1728 C 0.56477 0.90276 0.92187 0.0
C1729 C 0.55693 0.88322 0.97229 0.0
C1730 C 0.57258 0.92512 0.93205 0.0
C1731 C 0.59429 0.93497 0.92496 0.0
C1732 C 0.60865 0.92267 0.90751 0.0
C1733 C 0.60064 0.90026 0.89739 0.0
C1734 C 0.57893 0.89052 0.90439 0.0
H1735 H 0.55284 0.87116 0.9882 0.0
H1736 H 0.57444 0.87703 0.96483 0.0
H1737 H 0.55848 0.90274 0.97877 0.0
H1738 H 0.56177 0.9351 0.9453 0.0
H1739 H 0.59961 0.95244 0.93289 0.0
H1740 H 0.92073 0.0609 0.4287 0.0
H1741 H 0.9562 0.08305 0.44093 0.0
H1742 H 0.92722 0.15086 0.40744 0.0
H1743 H 0.89129 0.12923 0.39616 0.0
H1744 H 0.98834 0.10475 0.41188 0.0
H1745 H 0.9483 0.17677 0.47253 0.0
H1746 H 0.93231 0.14991 0.46258 0.0
H1747 H 0.93457 0.17686 0.44291 0.0
C1748 C 0.92161 0.08068 0.42444 0.0
C1749 C 0.90303 0.09325 0.41146 0.0
C1750 C 0.94203 0.09328 0.43126 0.0
C1751 C 0.94433 0.11873 0.42538 0.0
C1752 C 0.92573 0.13138 0.41266 0.0
H1753 H 0.0568 0.2257 0.43357 0.0
H1754 H 0.02133 0.2024 0.42371 0.0
C1755 C 0.90527 0.11885 0.40593 0.0
C1756 C 0.96662 0.13171 0.43142 0.0
H1757 H 0.98811 0.18322 0.45971 0.0
C1758 C 0.9883 0.12178 0.42253 0.0
C1759 C 0.96662 0.15398 0.44531 0.0
C1760 C 0.94424 0.16488 0.45659 0.0
C1761 C 1.00981 0.13378 0.42665 0.0
C1762 C 1.0097 0.15623 0.44015 0.0
C1763 C 0.98811 0.16609 0.4492 0.0
C1764 C 0.03184 0.16973 0.44524 0.0
C1765 C 0.03245 0.12269 0.41609 0.0
C1766 C 0.04958 0.15905 0.46057 0.0
C1767 C 0.06987 0.17234 0.46633 0.0
C1768 C 0.07288 0.19661 0.45685 0.0
C1769 C 0.05521 0.20704 0.44113 0.0
C1770 C 0.03485 0.19379 0.43552 0.0
H1771 H 0.02888 0.10832 0.40211 0.0
H1772 H 0.04314 0.13756 0.40773 0.0
H1773 H 0.04328 0.11365 0.43091 0.0
H1774 H 0.04748 0.14063 0.46851 0.0
H1775 H 0.08301 0.16371 0.47855 0.0
loop_
_geom_bond_atom_site_label_1
_geom_bond_atom_site_label_2
_geom_bond_distance
_geom_bond_site_symmetry_2
_ccdc_geom_bond_type
Gd0 C3 2.818 . S
Gd0 O20 2.377 . S
Gd0 O22 2.448 . S
Gd0 O23 2.506 . S
Gd0 O24 2.435 . S
Gd0 O25 2.717 . S
Gd0 O27 2.395 . S
Gd0 O31 2.327 . S
Gd1 C12 2.818 . S
Gd1 O21 2.395 . S
Gd1 O25 2.327 . S
Gd1 O26 2.377 . S
Gd1 O28 2.448 . S
Gd1 O29 2.506 . S
Gd1 O30 2.435 . S
Gd1 O31 2.717 . S
C2 O20 1.240 . S
C2 O21 1.240 . S
C3 Gd0 2.818 . S
C3 C4 1.510 . S
C3 O22 1.249 . S
C3 O23 1.252 . S
C4 C3 1.510 . S
C4 C5 1.404 . S
C4 C6 1.352 . S
C5 C4 1.404 . S
C5 C9 1.389 . S
C5 H32 0.930 . S
C6 C4 1.352 . S
C6 C8 1.374 . S
C6 H33 0.931 . S
C7 C8 1.359 . S
C7 C9 1.364 . S
C8 C6 1.374 . S
C8 C7 1.359 . S
C8 H34 0.931 . S
C9 C5 1.389 . S
C9 C7 1.364 . S
C9 H35 0.931 . S
C10 O24 1.256 . S
C10 O25 1.257 . S
C11 O26 1.240 . S
C11 O27 1.240 . S
C12 Gd1 2.818 . S
C12 C13 1.510 . S
C12 O28 1.249 . S
C12 O29 1.252 . S
C13 C12 1.510 . S
C13 C14 1.404 . S
C13 C15 1.352 . S
C14 C13 1.404 . S
C14 C18 1.389 . S
C14 H36 0.930 . S
C15 C13 1.352 . S
C15 C17 1.374 . S
C15 H37 0.931 . S
C16 C17 1.359 . S
C16 C18 1.364 . S
C17 C15 1.374 . S
C17 C16 1.359 . S
C17 H38 0.931 . S
C18 C14 1.389 . S
C18 C16 1.364 . S
C18 H39 0.931 . S
C19 O30 1.256 . S
C19 O31 1.257 . S
O20 Gd0 2.377 . S
O20 C2 1.240 . S
O21 Gd1 2.395 . S
O21 C2 1.240 . S
O22 Gd0 2.448 . S
O22 C3 1.249 . S
O23 Gd0 2.506 . S
O23 C3 1.252 . S
O24 Gd0 2.435 . S
O24 C10 1.256 . S
O25 Gd0 2.717 . S
O25 Gd1 2.327 . S
O25 C10 1.257 . S
O26 Gd1 2.377 . S
O26 C11 1.240 . S
O27 Gd0 2.395 . S
O27 C11 1.240 . S
O28 Gd1 2.448 . S
O28 C12 1.249 . S
O29 Gd1 2.506 . S
O29 C12 1.252 . S
O30 Gd1 2.435 . S
O30 C19 1.256 . S
O31 Gd0 2.327 . S
O31 Gd1 2.717 . S
O31 C19 1.257 . S
H32 C5 0.930 . S
H33 C6 0.931 . S
H34 C8 0.931 . S
H35 C9 0.931 . S
H36 C14 0.930 . S
H37 C15 0.931 . S
H38 C17 0.931 . S
H39 C18 0.931 . S
Gd40 C43 2.818 . S
Gd40 O60 2.377 1_655 S
Gd40 O62 2.448 . S
Gd40 O63 2.506 . S
Gd40 O64 2.435 1_655 S
Gd40 O65 2.717 1_655 S
Gd40 O67 2.395 . S
Gd40 O71 2.327 . S
Gd41 C52 2.818 . S
Gd41 O61 2.395 . S
Gd41 O65 2.327 . S
Gd41 O66 2.377 . S
Gd41 O68 2.448 . S
Gd41 O69 2.506 . S
Gd41 O70 2.435 . S
Gd41 O71 2.717 1_455 S
C42 O60 1.240 . S
C42 O61 1.240 . S
C43 Gd40 2.818 . S
C43 C44 1.510 . S
C43 O62 1.249 . S
C43 O63 1.252 . S
C44 C43 1.510 . S
C44 C45 1.404 . S
C44 C46 1.352 . S
C45 C44 1.404 . S
C45 C49 1.389 . S
C45 H72 0.930 . S
C46 C44 1.352 . S
C46 C48 1.374 . S
C46 H73 0.931 . S
C47 C48 1.359 . S
C47 C49 1.364 . S
C48 C46 1.374 . S
C48 C47 1.359 . S
C48 H74 0.931 . S
C49 C45 1.389 . S
C49 C47 1.364 . S
C49 H75 0.931 . S
C50 O64 1.256 . S
C50 O65 1.257 . S
C51 O66 1.240 . S
C51 O67 1.240 1_455 S
C52 Gd41 2.818 . S
C52 C53 1.510 . S
C52 O68 1.249 . S
C52 O69 1.252 . S
C53 C52 1.510 . S
C53 C54 1.404 . S
C53 C55 1.352 . S
C54 C53 1.404 . S
C54 C58 1.389 . S
C54 H76 0.930 . S
C55 C53 1.352 . S
C55 C57 1.374 . S
C55 H77 0.931 . S
C56 C57 1.359 . S
C56 C58 1.364 . S
C57 C55 1.374 . S
C57 C56 1.359 . S
C57 H78 0.931 . S
C58 C54 1.389 . S
C58 C56 1.364 . S
C58 H79 0.931 . S
C59 O70 1.256 1_655 S
C59 O71 1.257 . S
O60 Gd40 2.377 1_455 S
O60 C42 1.240 . S
O61 Gd41 2.395 . S
O61 C42 1.240 . S
O62 Gd40 2.448 . S
O62 C43 1.249 . S
O63 Gd40 2.506 . S
O63 C43 1.252 . S
O64 Gd40 2.435 1_455 S
O64 C50 1.256 . S
O65 Gd40 2.717 1_455 S
O65 Gd41 2.327 . S
O65 C50 1.257 . S
O66 Gd41 2.377 . S
O66 C51 1.240 . S
O67 Gd40 2.395 . S
O67 C51 1.240 1_655 S
O68 Gd41 2.448 . S
O68 C52 1.249 . S
O69 Gd41 2.506 . S
O69 C52 1.252 . S
O70 Gd41 2.435 . S
O70 C59 1.256 1_455 S
O71 Gd40 2.327 . S
O71 Gd41 2.717 1_655 S
O71 C59 1.257 . S
H72 C45 0.930 . S
H73 C46 0.931 . S
H74 C48 0.931 . S
H75 C49 0.931 . S
H76 C54 0.930 . S
H77 C55 0.931 . S
H78 C57 0.931 . S
H79 C58 0.931 . S
Gd80 C83 2.818 . S
Gd80 O100 2.377 1_554 S
Gd80 O102 2.448 . S
Gd80 O103 2.506 . S
Gd80 O104 2.435 1_554 S
Gd80 O105 2.717 1_554 S
Gd80 O107 2.395 . S
Gd80 O111 2.328 1_554 S
Gd81 C92 2.818 . S
Gd81 O101 2.395 . S
Gd81 O105 2.327 . S
Gd81 O106 2.377 . S
Gd81 O108 2.448 . S
Gd81 O109 2.506 . S
Gd81 O110 2.435 . S
Gd81 O111 2.713 . S
C82 O100 1.240 . S
C82 O101 1.240 . S
C83 Gd80 2.818 . S
C83 C84 1.510 . S
C83 O102 1.249 . S
C83 O103 1.252 . S
C84 C83 1.510 . S
C84 C85 1.404 . S
C84 C86 1.352 . S
C85 C84 1.404 . S
C85 C89 1.389 . S
C85 H112 0.930 . S
C86 C84 1.352 . S
C86 C88 1.374 . S
C86 H113 0.931 . S
C87 C88 1.359 . S
C87 C89 1.364 . S
C88 C86 1.374 . S
C88 C87 1.359 . S
C88 H114 0.931 . S
C89 C85 1.389 . S
C89 C87 1.364 . S
C89 H115 0.931 . S
C90 O104 1.256 . S
C90 O105 1.257 . S
C91 O106 1.240 . S
C91 O107 1.240 1_556 S
C92 Gd81 2.818 . S
C92 C93 1.510 . S
C92 O108 1.249 . S
C92 O109 1.252 . S
C93 C92 1.510 . S
C93 C94 1.404 . S
C93 C95 1.352 . S
C94 C93 1.404 . S
C94 C98 1.389 . S
C94 H116 0.930 . S
C95 C93 1.352 . S
C95 C97 1.374 . S
C95 H117 0.931 . S
C96 C97 1.359 . S
C96 C98 1.364 . S
C97 C95 1.374 . S
C97 C96 1.359 . S
C97 H118 0.931 . S
C98 C94 1.389 . S
C98 C96 1.364 . S
C98 H119 0.931 . S
C99 O110 1.256 1_554 S
C99 O111 1.258 1_554 S
O100 Gd80 2.377 1_556 S
O100 C82 1.240 . S
O101 Gd81 2.395 . S
O101 C82 1.240 . S
O102 Gd80 2.448 . S
O102 C83 1.249 . S
O103 Gd80 2.506 . S
O103 C83 1.252 . S
O104 Gd80 2.435 1_556 S
O104 C90 1.256 . S
O105 Gd80 2.717 1_556 S
O105 Gd81 2.327 . S
O105 C90 1.257 . S
O106 Gd81 2.377 . S
O106 C91 1.240 . S
O107 Gd80 2.395 . S
O107 C91 1.240 1_554 S
O108 Gd81 2.448 . S
O108 C92 1.249 . S
O109 Gd81 2.506 . S
O109 C92 1.252 . S
O110 Gd81 2.435 . S
O110 C99 1.256 1_556 S
O111 Gd80 2.328 1_556 S
O111 Gd81 2.713 . S
O111 C99 1.258 1_556 S
H112 C85 0.930 . S
H113 C86 0.931 . S
H114 C88 0.931 . S
H115 C89 0.931 . S
H116 C94 0.930 . S
H117 C95 0.931 . S
H118 C97 0.931 . S
H119 C98 0.931 . S
Gd120 C123 2.818 . S
Gd120 O140 2.377 . S
Gd120 O142 2.448 . S
Gd120 O143 2.506 . S
Gd120 O144 2.435 . S
Gd120 O145 2.717 . S
Gd120 O147 2.395 . S
Gd120 O151 2.327 . S
Gd121 C132 2.818 . S
Gd121 O141 2.395 . S
Gd121 O145 2.327 . S
Gd121 O146 2.377 . S
Gd121 O148 2.448 . S
Gd121 O149 2.506 . S
Gd121 O150 2.435 . S
Gd121 O151 2.717 . S
C122 O140 1.240 . S
C122 O141 1.240 . S
C123 Gd120 2.818 . S
C123 C124 1.510 . S
C123 O142 1.249 . S
C123 O143 1.252 . S
C124 C123 1.510 . S
C124 C125 1.404 . S
C124 C126 1.352 . S
C125 C124 1.404 . S
C125 C129 1.389 . S
C125 H152 0.930 . S
C126 C124 1.352 . S
C126 C128 1.374 . S
C126 H153 0.931 . S
C127 C128 1.359 . S
C127 C129 1.364 . S
C128 C126 1.374 . S
C128 C127 1.359 . S
C128 H154 0.931 . S
C129 C125 1.389 . S
C129 C127 1.364 . S
C129 H155 0.931 . S
C130 O144 1.256 . S
C130 O145 1.257 . S
C131 O146 1.240 . S
C131 O147 1.240 . S
C132 Gd121 2.818 . S
C132 C133 1.510 . S
C132 O148 1.249 . S
C132 O149 1.252 . S
C133 C132 1.510 . S
C133 C134 1.404 . S
C133 C135 1.352 . S
C134 C133 1.404 . S
C134 C138 1.389 . S
C134 H156 0.930 . S
C135 C133 1.352 . S
C135 C137 1.374 . S
C135 H157 0.931 . S
C136 C137 1.359 . S
C136 C138 1.364 . S
C137 C135 1.374 . S
C137 C136 1.359 . S
C137 H158 0.931 . S
C138 C134 1.389 . S
C138 C136 1.364 . S
C138 H159 0.931 . S
C139 O150 1.256 . S
C139 O151 1.257 . S
O140 Gd120 2.377 . S
O140 C122 1.240 . S
O141 Gd121 2.395 . S
O141 C122 1.240 . S
O142 Gd120 2.448 . S
O142 C123 1.249 . S
O143 Gd120 2.506 . S
O143 C123 1.252 . S
O144 Gd120 2.435 . S
O144 C130 1.256 . S
O145 Gd120 2.717 . S
O145 Gd121 2.327 . S
O145 C130 1.257 . S
O146 Gd121 2.377 . S
O146 C131 1.240 . S
O147 Gd120 2.395 . S
O147 C131 1.240 . S
O148 Gd121 2.448 . S
O148 C132 1.249 . S
O149 Gd121 2.506 . S
O149 C132 1.252 . S
O150 Gd121 2.435 . S
O150 C139 1.256 . S
O151 Gd120 2.327 . S
O151 Gd121 2.717 . S
O151 C139 1.257 . S
H152 C125 0.930 . S
H153 C126 0.931 . S
H154 C128 0.931 . S
H155 C129 0.931 . S
H156 C134 0.930 . S
H157 C135 0.931 . S
H158 C137 0.931 . S
H159 C138 0.931 . S
Gd160 C163 2.818 . S
Gd160 O180 2.377 . S
Gd160 O182 2.448 . S
Gd160 O183 2.506 . S
Gd160 O184 2.435 . S
Gd160 O185 2.717 . S
Gd160 O187 2.395 . S
Gd160 O191 2.327 . S
Gd161 C172 2.818 . S
Gd161 O181 2.395 . S
Gd161 O185 2.327 . S
Gd161 O186 2.377 . S
Gd161 O188 2.448 . S
Gd161 O189 2.506 . S
Gd161 O190 2.435 . S
Gd161 O191 2.717 . S
C162 O180 1.240 . S
C162 O181 1.240 . S
C163 Gd160 2.818 . S
C163 C164 1.510 . S
C163 O182 1.249 . S
C163 O183 1.252 . S
C164 C163 1.510 . S
C164 C165 1.404 . S
C164 C166 1.352 . S
C165 C164 1.404 . S
C165 C169 1.389 . S
C165 H192 0.930 . S
C166 C164 1.352 . S
C166 C168 1.374 . S
C166 H193 0.931 . S
C167 C168 1.359 . S
C167 C169 1.364 . S
C168 C166 1.374 . S
C168 C167 1.359 . S
C168 H194 0.931 . S
C169 C165 1.389 . S
C169 C167 1.364 . S
C169 H195 0.931 . S
C170 O184 1.256 . S
C170 O185 1.257 . S
C171 O186 1.240 . S
C171 O187 1.240 . S
C172 Gd161 2.818 . S
C172 C173 1.510 . S
C172 O188 1.249 . S
C172 O189 1.252 . S
C173 C172 1.510 . S
C173 C174 1.404 . S
C173 C175 1.352 . S
C174 C173 1.404 . S
C174 C178 1.389 . S
C174 H196 0.930 . S
C175 C173 1.352 . S
C175 C177 1.374 . S
C175 H197 0.931 . S
C176 C177 1.359 . S
C176 C178 1.364 . S
C177 C175 1.374 . S
C177 C176 1.359 . S
C177 H198 0.931 . S
C178 C174 1.389 . S
C178 C176 1.364 . S
C178 H199 0.931 . S
C179 O190 1.256 . S
C179 O191 1.257 . S
O180 Gd160 2.377 . S
O180 C162 1.240 . S
O181 Gd161 2.395 . S
O181 C162 1.240 . S
O182 Gd160 2.448 . S
O182 C163 1.249 . S
O183 Gd160 2.506 . S
O183 C163 1.252 . S
O184 Gd160 2.435 . S
O184 C170 1.256 . S
O185 Gd160 2.717 . S
O185 Gd161 2.327 . S
O185 C170 1.257 . S
O186 Gd161 2.377 . S
O186 C171 1.240 . S
O187 Gd160 2.395 . S
O187 C171 1.240 . S
O188 Gd161 2.448 . S
O188 C172 1.249 . S
O189 Gd161 2.506 . S
O189 C172 1.252 . S
O190 Gd161 2.435 . S
O190 C179 1.256 . S
O191 Gd160 2.327 . S
O191 Gd161 2.717 . S
O191 C179 1.257 . S
H192 C165 0.930 . S
H193 C166 0.931 . S
H194 C168 0.931 . S
H195 C169 0.931 . S
H196 C174 0.930 . S
H197 C175 0.931 . S
H198 C177 0.931 . S
H199 C178 0.931 . S
Gd200 C203 2.818 . S
Gd200 O220 2.377 . S
Gd200 O222 2.448 . S
Gd200 O223 2.506 . S
Gd200 O224 2.435 . S
Gd200 O225 2.717 . S
Gd200 O227 2.395 . S
Gd200 O231 2.327 . S
Gd201 C212 2.818 . S
Gd201 O221 2.395 1_455 S
Gd201 O225 2.327 1_455 S
Gd201 O226 2.377 . S
Gd201 O228 2.448 . S
Gd201 O229 2.506 . S
Gd201 O230 2.435 . S
Gd201 O231 2.717 1_455 S
C202 O220 1.240 . S
C202 O221 1.240 . S
C203 Gd200 2.818 . S
C203 C204 1.510 . S
C203 O222 1.249 . S
C203 O223 1.252 . S
C204 C203 1.510 . S
C204 C205 1.404 . S
C204 C206 1.352 . S
C205 C204 1.404 . S
C205 C209 1.389 . S
C205 H232 0.930 . S
C206 C204 1.352 . S
C206 C208 1.374 . S
C206 H233 0.931 . S
C207 C208 1.359 . S
C207 C209 1.364 . S
C208 C206 1.374 . S
C208 C207 1.359 . S
C208 H234 0.931 . S
C209 C205 1.389 . S
C209 C207 1.364 . S
C209 H235 0.931 . S
C210 O224 1.256 . S
C210 O225 1.257 . S
C211 O226 1.240 . S
C211 O227 1.240 1_455 S
C212 Gd201 2.818 . S
C212 C213 1.510 . S
C212 O228 1.249 . S
C212 O229 1.252 . S
C213 C212 1.510 . S
C213 C214 1.404 . S
C213 C215 1.352 . S
C214 C213 1.404 . S
C214 C218 1.389 . S
C214 H236 0.930 . S
C215 C213 1.352 . S
C215 C217 1.374 . S
C215 H237 0.931 . S
C216 C217 1.359 . S
C216 C218 1.364 . S
C217 C215 1.374 . S
C217 C216 1.359 . S
C217 H238 0.931 . S
C218 C214 1.389 . S
C218 C216 1.364 . S
C218 H239 0.931 . S
C219 O230 1.256 . S
C219 O231 1.257 1_455 S
O220 Gd200 2.377 . S
O220 C202 1.240 . S
O221 Gd201 2.395 1_655 S
O221 C202 1.240 . S
O222 Gd200 2.448 . S
O222 C203 1.249 . S
O223 Gd200 2.506 . S
O223 C203 1.252 . S
O224 Gd200 2.435 . S
O224 C210 1.256 . S
O225 Gd200 2.717 . S
O225 Gd201 2.327 1_655 S
O225 C210 1.257 . S
O226 Gd201 2.377 . S
O226 C211 1.240 . S
O227 Gd200 2.395 . S
O227 C211 1.240 1_655 S
O228 Gd201 2.448 . S
O228 C212 1.249 . S
O229 Gd201 2.506 . S
O229 C212 1.252 . S
O230 Gd201 2.435 . S
O230 C219 1.256 . S
O231 Gd200 2.327 . S
O231 Gd201 2.717 1_655 S
O231 C219 1.257 1_655 S
H232 C205 0.930 . S
H233 C206 0.931 . S
H234 C208 0.931 . S
H235 C209 0.931 . S
H236 C214 0.930 . S
H237 C215 0.931 . S
H238 C217 0.931 . S
H239 C218 0.931 . S
Gd240 C243 2.818 . S
Gd240 O260 2.377 . S
Gd240 O262 2.448 . S
Gd240 O263 2.506 . S
Gd240 O264 2.435 . S
Gd240 O265 2.717 . S
Gd240 O267 2.395 1_554 S
Gd240 O271 2.327 . S
Gd241 C252 2.818 . S
Gd241 O261 2.395 1_556 S
Gd241 O265 2.327 1_556 S
Gd241 O266 2.377 . S
Gd241 O268 2.448 . S
Gd241 O269 2.506 . S
Gd241 O270 2.435 . S
Gd241 O271 2.717 1_556 S
C242 O260 1.240 . S
C242 O261 1.240 . S
C243 Gd240 2.818 . S
C243 C244 1.510 . S
C243 O262 1.249 . S
C243 O263 1.252 . S
C244 C243 1.510 . S
C244 C245 1.404 . S
C244 C246 1.352 . S
C245 C244 1.404 . S
C245 C249 1.389 . S
C245 H272 0.930 . S
C246 C244 1.352 . S
C246 C248 1.374 . S
C246 H273 0.931 . S
C247 C248 1.359 . S
C247 C249 1.364 . S
C248 C246 1.374 . S
C248 C247 1.359 . S
C248 H274 0.931 . S
C249 C245 1.389 . S
C249 C247 1.364 . S
C249 H275 0.931 . S
C250 O264 1.256 . S
C250 O265 1.257 . S
C251 O266 1.240 . S
C251 O267 1.240 . S
C252 Gd241 2.818 . S
C252 C253 1.510 . S
C252 O268 1.249 . S
C252 O269 1.252 . S
C253 C252 1.510 . S
C253 C254 1.404 . S
C253 C255 1.352 . S
C254 C253 1.404 . S
C254 C258 1.389 . S
C254 H276 0.930 . S
C255 C253 1.352 . S
C255 C257 1.374 . S
C255 H277 0.931 . S
C256 C257 1.359 . S
C256 C258 1.364 . S
C257 C255 1.374 . S
C257 C256 1.359 . S
C257 H278 0.931 . S
C258 C254 1.389 . S
C258 C256 1.364 . S
C258 H279 0.931 . S
C259 O270 1.256 . S
C259 O271 1.257 1_556 S
O260 Gd240 2.377 . S
O260 C242 1.240 . S
O261 Gd241 2.395 1_554 S
O261 C242 1.240 . S
O262 Gd240 2.448 . S
O262 C243 1.249 . S
O263 Gd240 2.506 . S
O263 C243 1.252 . S
O264 Gd240 2.435 . S
O264 C250 1.256 . S
O265 Gd240 2.717 . S
O265 Gd241 2.327 1_554 S
O265 C250 1.257 . S
O266 Gd241 2.377 . S
O266 C251 1.240 . S
O267 Gd240 2.395 1_556 S
O267 C251 1.240 . S
O268 Gd241 2.448 . S
O268 C252 1.249 . S
O269 Gd241 2.506 . S
O269 C252 1.252 . S
O270 Gd241 2.435 . S
O270 C259 1.256 . S
O271 Gd240 2.327 . S
O271 Gd241 2.717 1_554 S
O271 C259 1.257 1_554 S
H272 C245 0.930 . S
H273 C246 0.931 . S
H274 C248 0.931 . S
H275 C249 0.931 . S
H276 C254 0.930 . S
H277 C255 0.931 . S
H278 C257 0.931 . S
H279 C258 0.931 . S
Gd280 C283 2.818 . S
Gd280 O300 2.377 . S
Gd280 O302 2.448 . S
Gd280 O303 2.506 . S
Gd280 O304 2.435 . S
Gd280 O305 2.717 . S
Gd280 O307 2.395 . S
Gd280 O311 2.327 . S
Gd281 C292 2.818 . S
Gd281 O301 2.395 . S
Gd281 O305 2.327 . S
Gd281 O306 2.377 . S
Gd281 O308 2.448 . S
Gd281 O309 2.506 . S
Gd281 O310 2.435 . S
Gd281 O311 2.717 . S
C282 O300 1.240 . S
C282 O301 1.240 . S
C283 Gd280 2.818 . S
C283 C284 1.510 . S
C283 O302 1.249 . S
C283 O303 1.252 . S
C284 C283 1.510 . S
C284 C285 1.404 . S
C284 C286 1.352 . S
C285 C284 1.404 . S
C285 C289 1.389 . S
C285 H312 0.930 . S
C286 C284 1.352 . S
C286 C288 1.374 . S
C286 H313 0.931 . S
C287 C288 1.359 . S
C287 C289 1.364 . S
C288 C286 1.374 . S
C288 C287 1.359 . S
C288 H314 0.931 . S
C289 C285 1.389 . S
C289 C287 1.364 . S
C289 H315 0.931 . S
C290 O304 1.256 . S
C290 O305 1.257 . S
C291 O306 1.240 . S
C291 O307 1.240 . S
C292 Gd281 2.818 . S
C292 C293 1.510 . S
C292 O308 1.249 . S
C292 O309 1.252 . S
C293 C292 1.510 . S
C293 C294 1.404 . S
C293 C295 1.352 . S
C294 C293 1.404 . S
C294 C298 1.389 . S
C294 H316 0.930 . S
C295 C293 1.352 . S
C295 C297 1.374 . S
C295 H317 0.931 . S
C296 C297 1.359 . S
C296 C298 1.364 . S
C297 C295 1.374 . S
C297 C296 1.359 . S
C297 H318 0.931 . S
C298 C294 1.389 . S
C298 C296 1.364 . S
C298 H319 0.931 . S
C299 O310 1.256 . S
C299 O311 1.257 . S
O300 Gd280 2.377 . S
O300 C282 1.240 . S
O301 Gd281 2.395 . S
O301 C282 1.240 . S
O302 Gd280 2.448 . S
O302 C283 1.249 . S
O303 Gd280 2.506 . S
O303 C283 1.252 . S
O304 Gd280 2.435 . S
O304 C290 1.256 . S
O305 Gd280 2.717 . S
O305 Gd281 2.327 . S
O305 C290 1.257 . S
O306 Gd281 2.377 . S
O306 C291 1.240 . S
O307 Gd280 2.395 . S
O307 C291 1.240 . S
O308 Gd281 2.448 . S
O308 C292 1.249 . S
O309 Gd281 2.506 . S
O309 C292 1.252 . S
O310 Gd281 2.435 . S
O310 C299 1.256 . S
O311 Gd280 2.327 . S
O311 Gd281 2.717 . S
O311 C299 1.257 . S
H312 C285 0.930 . S
H313 C286 0.931 . S
H314 C288 0.931 . S
H315 C289 0.931 . S
H316 C294 0.930 . S
H317 C295 0.931 . S
H318 C297 0.931 . S
H319 C298 0.931 . S
Gd320 C323 2.818 . S
Gd320 O340 2.377 . S
Gd320 O342 2.448 . S
Gd320 O343 2.506 . S
Gd320 O344 2.435 . S
Gd320 O345 2.717 . S
Gd320 O347 2.395 . S
Gd320 O351 2.327 . S
Gd321 C332 2.818 . S
Gd321 O341 2.395 . S
Gd321 O345 2.327 . S
Gd321 O346 2.377 . S
Gd321 O348 2.448 . S
Gd321 O349 2.506 . S
Gd321 O350 2.435 . S
Gd321 O351 2.717 . S
C322 O340 1.240 . S
C322 O341 1.240 . S
C323 Gd320 2.818 . S
C323 C324 1.510 . S
C323 O342 1.249 . S
C323 O343 1.252 . S
C324 C323 1.510 . S
C324 C325 1.404 . S
C324 C326 1.352 . S
C325 C324 1.404 . S
C325 C329 1.389 . S
C325 H352 0.930 . S
C326 C324 1.352 . S
C326 C328 1.374 . S
C326 H353 0.931 . S
C327 C328 1.359 . S
C327 C329 1.364 . S
C328 C326 1.374 . S
C328 C327 1.359 . S
C328 H354 0.931 . S
C329 C325 1.389 . S
C329 C327 1.364 . S
C329 H355 0.931 . S
C330 O344 1.256 . S
C330 O345 1.257 . S
C331 O346 1.240 . S
C331 O347 1.240 . S
C332 Gd321 2.818 . S
C332 C333 1.510 . S
C332 O348 1.249 . S
C332 O349 1.252 . S
C333 C332 1.510 . S
C333 C334 1.404 . S
C333 C335 1.352 . S
C334 C333 1.404 . S
C334 C338 1.389 . S
C334 H356 0.930 . S
C335 C333 1.352 . S
C335 C337 1.374 . S
C335 H357 0.931 . S
C336 C337 1.359 . S
C336 C338 1.364 . S
C337 C335 1.374 . S
C337 C336 1.359 . S
C337 H358 0.931 . S
C338 C334 1.389 . S
C338 C336 1.364 . S
C338 H359 0.931 . S
C339 O350 1.256 . S
C339 O351 1.257 . S
O340 Gd320 2.377 . S
O340 C322 1.240 . S
O341 Gd321 2.395 . S
O341 C322 1.240 . S
O342 Gd320 2.448 . S
O342 C323 1.249 . S
O343 Gd320 2.506 . S
O343 C323 1.252 . S
O344 Gd320 2.435 . S
O344 C330 1.256 . S
O345 Gd320 2.717 . S
O345 Gd321 2.327 . S
O345 C330 1.257 . S
O346 Gd321 2.377 . S
O346 C331 1.240 . S
O347 Gd320 2.395 . S
O347 C331 1.240 . S
O348 Gd321 2.448 . S
O348 C332 1.249 . S
O349 Gd321 2.506 . S
O349 C332 1.252 . S
O350 Gd321 2.435 . S
O350 C339 1.256 . S
O351 Gd320 2.327 . S
O351 Gd321 2.717 . S
O351 C339 1.257 . S
H352 C325 0.930 . S
H353 C326 0.931 . S
H354 C328 0.931 . S
H355 C329 0.931 . S
H356 C334 0.930 . S
H357 C335 0.931 . S
H358 C337 0.931 . S
H359 C338 0.931 . S
Gd360 C363 2.818 . S
Gd360 O380 2.377 1_565 S
Gd360 O382 2.448 . S
Gd360 O383 2.506 . S
Gd360 O384 2.435 1_565 S
Gd360 O385 2.717 1_565 S
Gd360 O387 2.395 . S
Gd360 O391 2.327 . S
Gd361 C372 2.818 . S
Gd361 O381 2.395 . S
Gd361 O385 2.327 . S
Gd361 O386 2.377 . S
Gd361 O388 2.448 . S
Gd361 O389 2.506 . S
Gd361 O390 2.435 . S
Gd361 O391 2.717 1_545 S
C362 O380 1.240 . S
C362 O381 1.240 . S
C363 Gd360 2.818 . S
C363 C364 1.510 . S
C363 O382 1.249 . S
C363 O383 1.252 . S
C364 C363 1.510 . S
C364 C365 1.404 . S
C364 C366 1.352 . S
C365 C364 1.404 . S
C365 C369 1.389 . S
C365 H392 0.930 . S
C366 C364 1.352 . S
C366 C368 1.374 . S
C366 H393 0.931 . S
C367 C368 1.359 . S
C367 C369 1.364 . S
C368 C366 1.374 . S
C368 C367 1.359 . S
C368 H394 0.931 . S
C369 C365 1.389 . S
C369 C367 1.364 . S
C369 H395 0.931 . S
C370 O384 1.256 . S
C370 O385 1.257 . S
C371 O386 1.240 . S
C371 O387 1.240 1_545 S
C372 Gd361 2.818 . S
C372 C373 1.510 . S
C372 O388 1.249 . S
C372 O389 1.252 . S
C373 C372 1.510 . S
C373 C374 1.404 . S
C373 C375 1.352 . S
C374 C373 1.404 . S
C374 C378 1.389 . S
C374 H396 0.930 . S
C375 C373 1.352 . S
C375 C377 1.374 . S
C375 H397 0.931 . S
C376 C377 1.359 . S
C376 C378 1.364 . S
C377 C375 1.374 . S
C377 C376 1.359 . S
C377 H398 0.931 . S
C378 C374 1.389 . S
C378 C376 1.364 . S
C378 H399 0.931 . S
C379 O390 1.256 1_565 S
C379 O391 1.257 . S
O380 Gd360 2.377 1_545 S
O380 C362 1.240 . S
O381 Gd361 2.395 . S
O381 C362 1.240 . S
O382 Gd360 2.448 . S
O382 C363 1.249 . S
O383 Gd360 2.506 . S
O383 C363 1.252 . S
O384 Gd360 2.435 1_545 S
O384 C370 1.256 . S
O385 Gd360 2.717 1_545 S
O385 Gd361 2.327 . S
O385 C370 1.257 . S
O386 Gd361 2.377 . S
O386 C371 1.240 . S
O387 Gd360 2.395 . S
O387 C371 1.240 1_565 S
O388 Gd361 2.448 . S
O388 C372 1.249 . S
O389 Gd361 2.506 . S
O389 C372 1.252 . S
O390 Gd361 2.435 . S
O390 C379 1.256 1_545 S
O391 Gd360 2.327 . S
O391 Gd361 2.717 1_565 S
O391 C379 1.257 . S
H392 C365 0.930 . S
H393 C366 0.931 . S
H394 C368 0.931 . S
H395 C369 0.931 . S
H396 C374 0.930 . S
H397 C375 0.931 . S
H398 C377 0.931 . S
H399 C378 0.931 . S
Gd400 C403 2.818 . S
Gd400 O420 2.377 . S
Gd400 O422 2.448 . S
Gd400 O423 2.506 . S
Gd400 O424 2.435 . S
Gd400 O425 2.717 . S
Gd400 O427 2.395 . S
Gd400 O431 2.327 . S
Gd401 C412 2.818 . S
Gd401 O421 2.395 1_545 S
Gd401 O425 2.327 1_545 S
Gd401 O426 2.377 . S
Gd401 O428 2.448 . S
Gd401 O429 2.506 . S
Gd401 O430 2.435 . S
Gd401 O431 2.717 1_545 S
C402 O420 1.240 . S
C402 O421 1.240 . S
C403 Gd400 2.818 . S
C403 C404 1.510 . S
C403 O422 1.249 . S
C403 O423 1.252 . S
C404 C403 1.510 . S
C404 C405 1.404 . S
C404 C406 1.352 . S
C405 C404 1.404 . S
C405 C409 1.389 . S
C405 H432 0.930 . S
C406 C404 1.352 . S
C406 C408 1.374 . S
C406 H433 0.931 . S
C407 C408 1.359 . S
C407 C409 1.364 . S
C408 C406 1.374 . S
C408 C407 1.359 . S
C408 H434 0.931 . S
C409 C405 1.389 . S
C409 C407 1.364 . S
C409 H435 0.931 . S
C410 O424 1.256 . S
C410 O425 1.257 . S
C411 O426 1.240 . S
C411 O427 1.240 1_545 S
C412 Gd401 2.818 . S
C412 C413 1.510 . S
C412 O428 1.249 . S
C412 O429 1.252 . S
C413 C412 1.510 . S
C413 C414 1.404 . S
C413 C415 1.352 . S
C414 C413 1.404 . S
C414 C418 1.389 . S
C414 H436 0.930 . S
C415 C413 1.352 . S
C415 C417 1.374 . S
C415 H437 0.931 . S
C416 C417 1.359 . S
C416 C418 1.364 . S
C417 C415 1.374 . S
C417 C416 1.359 . S
C417 H438 0.931 . S
C418 C414 1.389 . S
C418 C416 1.364 . S
C418 H439 0.931 . S
C419 O430 1.256 . S
C419 O431 1.257 1_545 S
O420 Gd400 2.377 . S
O420 C402 1.240 . S
O421 Gd401 2.395 1_565 S
O421 C402 1.240 . S
O422 Gd400 2.448 . S
O422 C403 1.249 . S
O423 Gd400 2.506 . S
O423 C403 1.252 . S
O424 Gd400 2.435 . S
O424 C410 1.256 . S
O425 Gd400 2.717 . S
O425 Gd401 2.327 1_565 S
O425 C410 1.257 . S
O426 Gd401 2.377 . S
O426 C411 1.240 . S
O427 Gd400 2.395 . S
O427 C411 1.240 1_565 S
O428 Gd401 2.448 . S
O428 C412 1.249 . S
O429 Gd401 2.506 . S
O429 C412 1.252 . S
O430 Gd401 2.435 . S
O430 C419 1.256 . S
O431 Gd400 2.327 . S
O431 Gd401 2.717 1_565 S
O431 C419 1.257 1_565 S
H432 C405 0.930 . S
H433 C406 0.931 . S
H434 C408 0.931 . S
H435 C409 0.931 . S
H436 C414 0.930 . S
H437 C415 0.931 . S
H438 C417 0.931 . S
H439 C418 0.931 . S
Gd440 C443 2.818 . S
Gd440 O460 2.377 . S
Gd440 O462 2.448 . S
Gd440 O463 2.506 . S
Gd440 O464 2.435 . S
Gd440 O465 2.717 . S
Gd440 O467 2.395 . S
Gd440 O471 2.327 . S
Gd441 C452 2.818 . S
Gd441 O461 2.395 . S
Gd441 O465 2.327 . S
Gd441 O466 2.377 . S
Gd441 O468 2.448 . S
Gd441 O469 2.506 . S
Gd441 O470 2.435 . S
Gd441 O471 2.717 . S
C442 O460 1.240 . S
C442 O461 1.240 . S
C443 Gd440 2.818 . S
C443 C444 1.510 . S
C443 O462 1.249 . S
C443 O463 1.252 . S
C444 C443 1.510 . S
C444 C445 1.404 . S
C444 C446 1.352 . S
C445 C444 1.404 . S
C445 C449 1.389 . S
C445 H472 0.930 . S
C446 C444 1.352 . S
C446 C448 1.374 . S
C446 H473 0.931 . S
C447 C448 1.359 . S
C447 C449 1.364 . S
C448 C446 1.374 . S
C448 C447 1.359 . S
C448 H474 0.931 . S
C449 C445 1.389 . S
C449 C447 1.364 . S
C449 H475 0.931 . S
C450 O464 1.256 . S
C450 O465 1.257 . S
C451 O466 1.240 . S
C451 O467 1.240 . S
C452 Gd441 2.818 . S
C452 C453 1.510 . S
C452 O468 1.249 . S
C452 O469 1.252 . S
C453 C452 1.510 . S
C453 C454 1.404 . S
C453 C455 1.352 . S
C454 C453 1.404 . S
C454 C458 1.389 . S
C454 H476 0.930 . S
C455 C453 1.352 . S
C455 C457 1.374 . S
C455 H477 0.931 . S
C456 C457 1.359 . S
C456 C458 1.364 . S
C457 C455 1.374 . S
C457 C456 1.359 . S
C457 H478 0.931 . S
C458 C454 1.389 . S
C458 C456 1.364 . S
C458 H479 0.931 . S
C459 O470 1.256 . S
C459 O471 1.257 . S
O460 Gd440 2.377 . S
O460 C442 1.240 . S
O461 Gd441 2.395 . S
O461 C442 1.240 . S
O462 Gd440 2.448 . S
O462 C443 1.249 . S
O463 Gd440 2.506 . S
O463 C443 1.252 . S
O464 Gd440 2.435 . S
O464 C450 1.256 . S
O465 Gd440 2.717 . S
O465 Gd441 2.327 . S
O465 C450 1.257 . S
O466 Gd441 2.377 . S
O466 C451 1.240 . S
O467 Gd440 2.395 . S
O467 C451 1.240 . S
O468 Gd441 2.448 . S
O468 C452 1.249 . S
O469 Gd441 2.506 . S
O469 C452 1.252 . S
O470 Gd441 2.435 . S
O470 C459 1.256 . S
O471 Gd440 2.327 . S
O471 Gd441 2.717 . S
O471 C459 1.257 . S
H472 C445 0.930 . S
H473 C446 0.931 . S
H474 C448 0.931 . S
H475 C449 0.931 . S
H476 C454 0.930 . S
H477 C455 0.931 . S
H478 C457 0.931 . S
H479 C458 0.931 . S
H480 C488 0.929 . S
H481 C490 0.930 . S
H482 C492 0.930 . S
H483 C495 0.929 . S
H484 C498 0.930 . S
H485 C500 0.960 . S
H486 C500 0.960 . S
H487 C500 0.960 . S
C488 H480 0.929 . S
C488 C489 1.377 . S
C488 C490 1.384 . S
C489 C488 1.377 . S
C489 C495 1.390 . S
C490 H481 0.930 . S
C490 C488 1.384 . S
C490 C491 1.372 . S
C491 C490 1.372 . S
C491 C492 1.400 . S
C491 C496 1.490 . S
C492 H482 0.930 . S
C492 C491 1.400 . S
C492 C495 1.386 . S
H493 C509 0.930 . S
H494 C510 0.931 . S
C495 H483 0.929 . S
C495 C489 1.390 . S
C495 C492 1.386 . S
C496 C491 1.490 . S
C496 C498 1.395 . S
C496 C499 1.403 . S
H497 C503 0.930 . S
C498 H484 0.930 . S
C498 C496 1.395 . S
C498 C501 1.403 . S
C499 C496 1.403 . S
C499 C500 1.524 . S
C499 C503 1.400 . S
C500 H485 0.960 . S
C500 H486 0.960 . S
C500 H487 0.960 . S
C500 C499 1.524 . S
C501 C498 1.403 . S
C501 C502 1.392 . S
C501 C505 1.495 . S
C502 C501 1.392 . S
C502 C503 1.385 . S
C502 C504 1.478 . S
C503 H497 0.930 . S
C503 C499 1.400 . S
C503 C502 1.385 . S
C504 C502 1.478 . S
C504 C506 1.381 . S
C504 C510 1.383 . S
C505 C501 1.495 . S
C505 H511 0.959 . S
C505 H512 0.961 . S
C505 H513 0.960 . S
C506 C504 1.381 . S
C506 C507 1.394 . S
C506 H514 0.930 . S
C507 C506 1.394 . S
C507 C508 1.383 . S
C507 H515 0.929 . S
C508 C507 1.383 . S
C508 C509 1.377 . S
C509 H493 0.930 . S
C509 C508 1.377 . S
C509 C510 1.379 . S
C510 H494 0.931 . S
C510 C504 1.383 . S
C510 C509 1.379 . S
H511 C505 0.959 . S
H512 C505 0.961 . S
H513 C505 0.960 . S
H514 C506 0.930 . S
H515 C507 0.929 . S
H516 C524 0.929 . S
H517 C526 0.930 . S
H518 C528 0.930 . S
H519 C531 0.929 . S
H520 C534 0.963 . S
H521 C536 0.960 . S
H522 C536 0.960 . S
H523 C536 0.960 . S
C524 H516 0.929 . S
C524 C525 1.360 1_545 S
C524 C526 1.384 . S
C525 C524 1.360 1_565 S
C525 C531 1.421 . S
C526 H517 0.930 . S
C526 C524 1.384 . S
C526 C527 1.372 1_545 S
C527 C526 1.372 1_565 S
C527 C528 1.400 . S
C527 C532 1.490 . S
C528 H518 0.930 . S
C528 C527 1.400 . S
C528 C531 1.386 . S
H529 C545 0.930 . S
H530 C546 0.931 . S
C531 H519 0.929 . S
C531 C525 1.421 . S
C531 C528 1.386 . S
C532 C527 1.490 . S
C532 C534 1.395 . S
C532 C535 1.403 . S
H533 C539 0.930 . S
C534 H520 0.963 . S
C534 C532 1.395 . S
C534 C537 1.403 . S
C535 C532 1.403 . S
C535 C536 1.524 . S
C535 C539 1.400 . S
C536 H521 0.960 . S
C536 H522 0.960 . S
C536 H523 0.960 . S
C536 C535 1.524 . S
C537 C534 1.403 . S
C537 C538 1.392 . S
C537 C541 1.495 . S
C538 C537 1.392 . S
C538 C539 1.385 . S
C538 C540 1.478 . S
C539 H533 0.930 . S
C539 C535 1.400 . S
C539 C538 1.385 . S
C540 C538 1.478 . S
C540 C542 1.381 . S
C540 C546 1.383 . S
C541 C537 1.495 . S
C541 H547 0.959 1_565 S
C541 H548 0.961 . S
C541 H549 0.960 . S
C542 C540 1.381 . S
C542 C543 1.394 . S
C542 H550 0.930 . S
C543 C542 1.394 . S
C543 C544 1.383 . S
C543 H551 0.929 . S
C544 C543 1.383 . S
C544 C545 1.377 . S
C545 H529 0.930 . S
C545 C544 1.377 . S
C545 C546 1.379 . S
C546 H530 0.931 . S
C546 C540 1.383 . S
C546 C545 1.379 . S
H547 C541 0.959 1_545 S
H548 C541 0.961 . S
H549 C541 0.960 . S
H550 C542 0.930 . S
H551 C543 0.929 . S
H552 C560 0.929 . S
H553 C562 0.927 1_556 S
H554 C564 0.930 . S
H555 C567 0.929 . S
H556 C570 0.930 1_556 S
H557 C572 0.960 . S
H558 C572 0.960 . S
H559 C572 0.960 . S
C560 H552 0.929 . S
C560 C561 1.377 . S
C560 C562 1.378 1_556 S
C561 C560 1.377 . S
C561 C567 1.390 1_556 S
C562 H553 0.927 1_554 S
C562 C560 1.378 1_554 S
C562 C563 1.381 . S
C563 C562 1.381 . S
C563 C564 1.400 . S
C563 C568 1.490 . S
C564 H554 0.930 . S
C564 C563 1.400 . S
C564 C567 1.386 . S
H565 C581 0.930 . S
H566 C582 0.931 . S
C567 H555 0.929 . S
C567 C561 1.390 1_554 S
C567 C564 1.386 . S
C568 C563 1.490 . S
C568 C570 1.395 . S
C568 C571 1.403 . S
H569 C575 0.930 . S
C570 H556 0.930 1_554 S
C570 C568 1.395 . S
C570 C573 1.403 . S
C571 C568 1.403 . S
C571 C572 1.524 . S
C571 C575 1.400 . S
C572 H557 0.960 . S
C572 H558 0.960 . S
C572 H559 0.960 . S
C572 C571 1.524 . S
C573 C570 1.403 . S
C573 C574 1.392 . S
C573 C577 1.495 1_554 S
C574 C573 1.392 . S
C574 C575 1.385 . S
C574 C576 1.478 . S
C575 H569 0.930 . S
C575 C571 1.400 . S
C575 C574 1.385 . S
C576 C574 1.478 . S
C576 C578 1.381 . S
C576 C582 1.383 . S
C577 C573 1.495 1_556 S
C577 H583 0.959 . S
C577 H584 0.965 . S
C577 H585 0.960 1_556 S
C578 C576 1.381 . S
C578 C579 1.394 . S
C578 H586 0.930 . S
C579 C578 1.394 . S
C579 C580 1.383 . S
C579 H587 0.929 . S
C580 C579 1.383 . S
C580 C581 1.377 . S
C581 H565 0.930 . S
C581 C580 1.377 . S
C581 C582 1.379 . S
C582 H566 0.931 . S
C582 C576 1.383 . S
C582 C581 1.379 . S
H583 C577 0.959 . S
H584 C577 0.965 . S
H585 C577 0.960 1_554 S
H586 C578 0.930 . S
H587 C579 0.929 . S
H588 C596 0.929 . S
H589 C598 0.930 . S
H590 C600 0.930 . S
H591 C603 0.929 . S
H592 C606 0.930 . S
H593 C608 0.960 . S
H594 C608 0.960 . S
H595 C608 0.960 . S
C596 H588 0.929 . S
C596 C597 1.377 . S
C596 C598 1.384 . S
C597 C596 1.377 . S
C597 C603 1.390 . S
C598 H589 0.930 . S
C598 C596 1.384 . S
C598 C599 1.372 . S
C599 C598 1.372 . S
C599 C600 1.400 . S
C599 C604 1.490 . S
C600 H590 0.930 . S
C600 C599 1.400 . S
C600 C603 1.386 . S
H601 C617 0.930 . S
H602 C618 0.931 . S
C603 H591 0.929 . S
C603 C597 1.390 . S
C603 C600 1.386 . S
C604 C599 1.490 . S
C604 C606 1.395 . S
C604 C607 1.403 . S
H605 C611 0.930 . S
C606 H592 0.930 . S
C606 C604 1.395 . S
C606 C609 1.403 . S
C607 C604 1.403 . S
C607 C608 1.524 . S
C607 C611 1.400 . S
C608 H593 0.960 . S
C608 H594 0.960 . S
C608 H595 0.960 . S
C608 C607 1.524 . S
C609 C606 1.403 . S
C609 C610 1.392 . S
C609 C613 1.495 1_545 S
C610 C609 1.392 . S
C610 C611 1.385 . S
C610 C612 1.478 . S
C611 H605 0.930 . S
C611 C607 1.400 . S
C611 C610 1.385 . S
C612 C610 1.478 . S
C612 C614 1.381 . S
C612 C618 1.383 . S
C613 C609 1.495 1_565 S
C613 H619 0.959 . S
C613 H620 0.961 . S
C613 H621 0.960 . S
C614 C612 1.381 . S
C614 C615 1.394 . S
C614 H622 0.930 . S
C615 C614 1.394 . S
C615 C616 1.383 . S
C615 H623 0.929 . S
C616 C615 1.383 . S
C616 C617 1.377 . S
C617 H601 0.930 . S
C617 C616 1.377 . S
C617 C618 1.379 . S
C618 H602 0.931 . S
C618 C612 1.383 . S
C618 C617 1.379 . S
H619 C613 0.959 . S
H620 C613 0.961 . S
H621 C613 0.960 . S
H622 C614 0.930 . S
H623 C615 0.929 . S
H624 C632 0.929 . S
H625 C634 0.930 . S
H626 C636 0.930 . S
H627 C639 0.929 . S
H628 C642 0.930 . S
H629 C644 0.960 . S
H630 C644 0.960 . S
H631 C644 0.960 . S
C632 H624 0.929 . S
C632 C633 1.377 . S
C632 C634 1.384 . S
C633 C632 1.377 . S
C633 C639 1.390 . S
C634 H625 0.930 . S
C634 C632 1.384 . S
C634 C635 1.372 . S
C635 C634 1.372 . S
C635 C636 1.400 . S
C635 C640 1.490 . S
C636 H626 0.930 . S
C636 C635 1.400 . S
C636 C639 1.386 . S
H637 C653 0.930 . S
H638 C654 0.931 . S
C639 H627 0.929 . S
C639 C633 1.390 . S
C639 C636 1.386 . S
C640 C635 1.490 . S
C640 C642 1.395 . S
C640 C643 1.403 . S
H641 C647 0.930 . S
C642 H628 0.930 . S
C642 C640 1.395 . S
C642 C645 1.403 . S
C643 C640 1.403 . S
C643 C644 1.524 . S
C643 C647 1.400 . S
C644 H629 0.960 . S
C644 H630 0.960 . S
C644 H631 0.960 . S
C644 C643 1.524 . S
C645 C642 1.403 . S
C645 C646 1.392 . S
C645 C649 1.495 . S
C646 C645 1.392 . S
C646 C647 1.385 . S
C646 C648 1.478 . S
C647 H641 0.930 . S
C647 C643 1.400 . S
C647 C646 1.385 . S
C648 C646 1.478 . S
C648 C650 1.381 . S
C648 C654 1.383 . S
C649 C645 1.495 . S
C649 H655 0.959 . S
C649 H656 0.961 . S
C649 H657 0.960 . S
C650 C648 1.381 . S
C650 C651 1.394 . S
C650 H658 0.930 . S
C651 C650 1.394 . S
C651 C652 1.383 . S
C651 H659 0.929 . S
C652 C651 1.383 . S
C652 C653 1.377 . S
C653 H637 0.930 . S
C653 C652 1.377 . S
C653 C654 1.379 . S
C654 H638 0.931 . S
C654 C648 1.383 . S
C654 C653 1.379 . S
H655 C649 0.959 . S
H656 C649 0.961 . S
H657 C649 0.960 . S
H658 C650 0.930 . S
H659 C651 0.929 . S
H660 C668 0.929 . S
H661 C670 0.930 . S
H662 C672 0.930 . S
H663 C675 0.929 . S
H664 C678 0.930 . S
H665 C680 0.960 . S
H666 C680 0.960 . S
H667 C680 0.960 . S
C668 H660 0.929 . S
C668 C669 1.377 . S
C668 C670 1.384 . S
C669 C668 1.377 . S
C669 C675 1.390 . S
C670 H661 0.930 . S
C670 C668 1.384 . S
C670 C671 1.372 . S
C671 C670 1.372 . S
C671 C672 1.400 . S
C671 C676 1.490 . S
C672 H662 0.930 . S
C672 C671 1.400 . S
C672 C675 1.386 . S
H673 C689 0.930 . S
H674 C690 0.931 . S
C675 H663 0.929 . S
C675 C669 1.390 . S
C675 C672 1.386 . S
C676 C671 1.490 . S
C676 C678 1.395 . S
C676 C679 1.403 . S
H677 C683 0.930 . S
C678 H664 0.930 . S
C678 C676 1.395 . S
C678 C681 1.403 . S
C679 C676 1.403 . S
C679 C680 1.524 . S
C679 C683 1.400 . S
C680 H665 0.960 . S
C680 H666 0.960 . S
C680 H667 0.960 . S
C680 C679 1.524 . S
C681 C678 1.403 . S
C681 C682 1.392 . S
C681 C685 1.495 . S
C682 C681 1.392 . S
C682 C683 1.385 . S
C682 C684 1.478 . S
C683 H677 0.930 . S
C683 C679 1.400 . S
C683 C682 1.385 . S
C684 C682 1.478 . S
C684 C686 1.381 . S
C684 C690 1.383 . S
C685 C681 1.495 . S
C685 H691 0.959 . S
C685 H692 0.961 . S
C685 H693 0.960 . S
C686 C684 1.381 . S
C686 C687 1.394 . S
C686 H694 0.930 . S
C687 C686 1.394 . S
C687 C688 1.383 . S
C687 H695 0.929 . S
C688 C687 1.383 . S
C688 C689 1.377 . S
C689 H673 0.930 . S
C689 C688 1.377 . S
C689 C690 1.379 . S
C690 H674 0.931 . S
C690 C684 1.383 . S
C690 C689 1.379 . S
H691 C685 0.959 . S
H692 C685 0.961 . S
H693 C685 0.960 . S
H694 C686 0.930 . S
H695 C687 0.929 . S
H696 C704 0.929 . S
H697 C706 0.930 . S
H698 C708 0.930 . S
H699 C711 0.929 . S
H700 C714 0.930 . S
H701 C716 0.960 . S
H702 C716 0.960 . S
H703 C716 0.960 . S
C704 H696 0.929 . S
C704 C705 1.377 . S
C704 C706 1.384 . S
C705 C704 1.377 . S
C705 C711 1.390 . S
C706 H697 0.930 . S
C706 C704 1.384 . S
C706 C707 1.372 . S
C707 C706 1.372 . S
C707 C708 1.400 . S
C707 C712 1.490 . S
C708 H698 0.930 . S
C708 C707 1.400 . S
C708 C711 1.386 . S
H709 C725 0.930 . S
H710 C726 0.931 . S
C711 H699 0.929 . S
C711 C705 1.390 . S
C711 C708 1.386 . S
C712 C707 1.490 . S
C712 C714 1.395 . S
C712 C715 1.403 . S
H713 C719 0.930 . S
C714 H700 0.930 . S
C714 C712 1.395 . S
C714 C717 1.403 . S
C715 C712 1.403 . S
C715 C716 1.524 . S
C715 C719 1.400 . S
C716 H701 0.960 . S
C716 H702 0.960 . S
C716 H703 0.960 . S
C716 C715 1.524 . S
C717 C714 1.403 . S
C717 C718 1.392 . S
C717 C721 1.495 1_556 S
C718 C717 1.392 . S
C718 C719 1.385 . S
C718 C720 1.478 . S
C719 H713 0.930 . S
C719 C715 1.400 . S
C719 C718 1.385 . S
C720 C718 1.478 . S
C720 C722 1.381 . S
C720 C726 1.383 . S
C721 C717 1.495 1_554 S
C721 H727 0.959 . S
C721 H728 0.961 . S
C721 H729 0.960 . S
C722 C720 1.381 . S
C722 C723 1.394 . S
C722 H730 0.930 . S
C723 C722 1.394 . S
C723 C724 1.383 . S
C723 H731 0.929 1_556 S
C724 C723 1.383 . S
C724 C725 1.377 . S
C725 H709 0.930 . S
C725 C724 1.377 . S
C725 C726 1.379 . S
C726 H710 0.931 . S
C726 C720 1.383 . S
C726 C725 1.379 . S
H727 C721 0.959 . S
H728 C721 0.961 . S
H729 C721 0.960 . S
H730 C722 0.930 . S
H731 C723 0.929 1_554 S
H732 C740 0.929 . S
H733 C742 0.930 . S
H734 C744 0.930 . S
H735 C747 0.929 . S
H736 C750 0.930 . S
H737 C752 0.960 . S
H738 C752 0.960 . S
H739 C752 0.960 . S
C740 H732 0.929 . S
C740 C741 1.377 . S
C740 C742 1.384 . S
C741 C740 1.377 . S
C741 C747 1.390 . S
C742 H733 0.930 . S
C742 C740 1.384 . S
C742 C743 1.372 . S
C743 C742 1.372 . S
C743 C744 1.400 . S
C743 C748 1.490 . S
C744 H734 0.930 . S
C744 C743 1.400 . S
C744 C747 1.386 . S
H745 C761 0.930 . S
H746 C762 0.931 . S
C747 H735 0.929 . S
C747 C741 1.390 . S
C747 C744 1.386 . S
C748 C743 1.490 . S
C748 C750 1.395 . S
C748 C751 1.403 . S
H749 C755 0.930 . S
C750 H736 0.930 . S
C750 C748 1.395 . S
C750 C753 1.403 . S
C751 C748 1.403 . S
C751 C752 1.524 . S
C751 C755 1.400 . S
C752 H737 0.960 . S
C752 H738 0.960 . S
C752 H739 0.960 . S
C752 C751 1.524 . S
C753 C750 1.403 . S
C753 C754 1.392 . S
C753 C757 1.495 . S
C754 C753 1.392 . S
C754 C755 1.385 . S
C754 C756 1.478 . S
C755 H749 0.930 . S
C755 C751 1.400 . S
C755 C754 1.385 . S
C756 C754 1.478 . S
C756 C758 1.381 . S
C756 C762 1.383 . S
C757 C753 1.495 . S
C757 H763 0.959 . S
C757 H764 0.961 . S
C757 H765 0.960 . S
C758 C756 1.381 . S
C758 C759 1.394 . S
C758 H766 0.930 . S
C759 C758 1.394 . S
C759 C760 1.383 . S
C759 H767 0.929 . S
C760 C759 1.383 . S
C760 C761 1.377 . S
C761 H745 0.930 . S
C761 C760 1.377 . S
C761 C762 1.379 . S
C762 H746 0.931 . S
C762 C756 1.383 . S
C762 C761 1.379 . S
H763 C757 0.959 . S
H764 C757 0.961 . S
H765 C757 0.960 . S
H766 C758 0.930 . S
H767 C759 0.929 . S
H768 C776 0.929 . S
H769 C778 0.930 . S
H770 C780 0.930 . S
H771 C783 0.929 . S
H772 C786 0.930 . S
H773 C788 0.960 . S
H774 C788 0.960 . S
H775 C788 0.960 . S
C776 H768 0.929 . S
C776 C777 1.377 . S
C776 C778 1.384 . S
C777 C776 1.377 . S
C777 C783 1.390 . S
C778 H769 0.930 . S
C778 C776 1.384 . S
C778 C779 1.372 . S
C779 C778 1.372 . S
C779 C780 1.400 . S
C779 C784 1.490 . S
C780 H770 0.930 . S
C780 C779 1.400 . S
C780 C783 1.386 . S
H781 C797 0.930 . S
H782 C798 0.931 . S
C783 H771 0.929 . S
C783 C777 1.390 . S
C783 C780 1.386 . S
C784 C779 1.490 . S
C784 C786 1.395 . S
C784 C787 1.403 . S
H785 C791 0.930 . S
C786 H772 0.930 . S
C786 C784 1.395 . S
C786 C789 1.403 . S
C787 C784 1.403 . S
C787 C788 1.524 . S
C787 C791 1.400 . S
C788 H773 0.960 . S
C788 H774 0.960 . S
C788 H775 0.960 . S
C788 C787 1.524 . S
C789 C786 1.403 . S
C789 C790 1.392 . S
C789 C793 1.495 . S
C790 C789 1.392 . S
C790 C791 1.385 . S
C790 C792 1.478 . S
C791 H785 0.930 . S
C791 C787 1.400 . S
C791 C790 1.385 . S
C792 C790 1.478 . S
C792 C794 1.381 . S
C792 C798 1.383 . S
C793 C789 1.495 . S
C793 H799 0.959 . S
C793 H800 0.961 . S
C793 H801 0.960 . S
C794 C792 1.381 . S
C794 C795 1.394 . S
C794 H802 0.930 . S
C795 C794 1.394 . S
C795 C796 1.383 . S
C795 H803 0.929 . S
C796 C795 1.383 . S
C796 C797 1.377 . S
C797 H781 0.930 . S
C797 C796 1.377 . S
C797 C798 1.379 . S
C798 H782 0.931 . S
C798 C792 1.383 . S
C798 C797 1.379 . S
H799 C793 0.959 . S
H800 C793 0.961 . S
H801 C793 0.960 . S
H802 C794 0.930 . S
H803 C795 0.929 . S
H804 C812 0.929 . S
H805 C814 0.930 . S
H806 C816 0.930 . S
H807 C819 0.929 . S
H808 C822 0.930 . S
H809 C824 0.960 . S
H810 C824 0.960 . S
H811 C824 0.960 . S
C812 H804 0.929 . S
C812 C813 1.377 . S
C812 C814 1.384 . S
C813 C812 1.377 . S
C813 C819 1.390 . S
C814 H805 0.930 . S
C814 C812 1.384 . S
C814 C815 1.372 . S
C815 C814 1.372 . S
C815 C816 1.400 . S
C815 C820 1.490 . S
C816 H806 0.930 . S
C816 C815 1.400 . S
C816 C819 1.386 . S
H817 C833 0.930 . S
H818 C834 0.931 . S
C819 H807 0.929 . S
C819 C813 1.390 . S
C819 C816 1.386 . S
C820 C815 1.490 . S
C820 C822 1.395 . S
C820 C823 1.403 . S
H821 C827 0.930 . S
C822 H808 0.930 . S
C822 C820 1.395 . S
C822 C825 1.403 . S
C823 C820 1.403 . S
C823 C824 1.524 . S
C823 C827 1.400 . S
C824 H809 0.960 . S
C824 H810 0.960 . S
C824 H811 0.960 . S
C824 C823 1.524 . S
C825 C822 1.403 . S
C825 C826 1.392 . S
C825 C829 1.495 1_455 S
C826 C825 1.392 . S
C826 C827 1.385 . S
C826 C828 1.478 . S
C827 H821 0.930 . S
C827 C823 1.400 . S
C827 C826 1.385 . S
C828 C826 1.478 . S
C828 C830 1.381 . S
C828 C834 1.383 . S
C829 C825 1.495 1_655 S
C829 H835 0.959 . S
C829 H836 0.961 . S
C829 H837 0.960 . S
C830 C828 1.381 . S
C830 C831 1.390 1_455 S
C830 H838 0.930 1_455 S
C831 C830 1.390 1_655 S
C831 C832 1.377 1_655 S
C831 H839 0.941 . S
C832 C831 1.377 1_455 S
C832 C833 1.377 . S
C833 H817 0.930 . S
C833 C832 1.377 . S
C833 C834 1.379 . S
C834 H818 0.931 . S
C834 C828 1.383 . S
C834 C833 1.379 . S
H835 C829 0.959 . S
H836 C829 0.961 . S
H837 C829 0.960 . S
H838 C830 0.930 1_655 S
H839 C831 0.941 . S
H840 C848 0.933 . S
H841 C850 0.930 . S
H842 C852 0.930 . S
H843 C855 0.929 . S
H844 C858 0.976 . S
H845 C860 0.960 . S
H846 C860 0.960 . S
H847 C860 0.960 . S
C848 H840 0.933 . S
C848 C849 1.377 . S
C848 C850 1.384 . S
C849 C848 1.377 . S
C849 C855 1.390 . S
C850 H841 0.930 . S
C850 C848 1.384 . S
C850 C851 1.372 . S
C851 C850 1.372 . S
C851 C852 1.400 . S
C851 C856 1.490 . S
C852 H842 0.930 . S
C852 C851 1.400 . S
C852 C855 1.386 . S
H853 C869 0.930 . S
H854 C870 0.931 . S
C855 H843 0.929 . S
C855 C849 1.390 . S
C855 C852 1.386 . S
C856 C851 1.490 . S
C856 C858 1.395 . S
C856 C859 1.403 . S
H857 C863 0.930 . S
C858 H844 0.976 . S
C858 C856 1.395 . S
C858 C861 1.403 . S
C859 C856 1.403 . S
C859 C860 1.524 . S
C859 C863 1.400 . S
C860 H845 0.960 . S
C860 H846 0.960 . S
C860 H847 0.960 . S
C860 C859 1.524 . S
C861 C858 1.403 . S
C861 C862 1.392 . S
C861 C865 1.495 . S
C862 C861 1.392 . S
C862 C863 1.385 . S
C862 C864 1.478 . S
C863 H857 0.930 . S
C863 C859 1.400 . S
C863 C862 1.385 . S
C864 C862 1.478 . S
C864 C866 1.381 . S
C864 C870 1.383 . S
C865 C861 1.495 . S
C865 H871 0.959 1_655 S
C865 H872 0.961 . S
C865 H873 0.960 . S
C866 C864 1.381 . S
C866 C867 1.394 . S
C866 H874 0.930 . S
C867 C866 1.394 . S
C867 C868 1.383 . S
C867 H875 0.929 . S
C868 C867 1.383 . S
C868 C869 1.377 . S
C869 H853 0.930 . S
C869 C868 1.377 . S
C869 C870 1.379 . S
C870 H854 0.931 . S
C870 C864 1.383 . S
C870 C869 1.379 . S
H871 C865 0.959 1_455 S
H872 C865 0.961 . S
H873 C865 0.960 . S
H874 C866 0.930 . S
H875 C867 0.929 . S
H876 C884 0.929 . S
H877 C886 0.930 . S
H878 C888 0.930 . S
H879 C891 0.929 . S
H880 C894 0.930 . S
H881 C896 0.960 . S
H882 C896 0.960 . S
H883 C896 0.960 . S
C884 H876 0.929 . S
C884 C885 1.377 . S
C884 C886 1.384 . S
C885 C884 1.377 . S
C885 C891 1.390 . S
C886 H877 0.930 . S
C886 C884 1.384 . S
C886 C887 1.372 . S
C887 C886 1.372 . S
C887 C888 1.400 . S
C887 C892 1.490 . S
C888 H878 0.930 . S
C888 C887 1.400 . S
C888 C891 1.386 . S
H889 C905 0.930 . S
H890 C906 0.931 . S
C891 H879 0.929 . S
C891 C885 1.390 . S
C891 C888 1.386 . S
C892 C887 1.490 . S
C892 C894 1.395 . S
C892 C895 1.403 . S
H893 C899 0.930 . S
C894 H880 0.930 . S
C894 C892 1.395 . S
C894 C897 1.403 . S
C895 C892 1.403 . S
C895 C896 1.524 . S
C895 C899 1.400 . S
C896 H881 0.960 . S
C896 H882 0.960 . S
C896 H883 0.960 . S
C896 C895 1.524 . S
C897 C894 1.403 . S
C897 C898 1.392 . S
C897 C901 1.495 . S
C898 C897 1.392 . S
C898 C899 1.385 . S
C898 C900 1.478 . S
C899 H893 0.930 . S
C899 C895 1.400 . S
C899 C898 1.385 . S
C900 C898 1.478 . S
C900 C902 1.381 . S
C900 C906 1.383 . S
C901 C897 1.495 . S
C901 H907 0.959 . S
C901 H908 0.961 . S
C901 H909 0.960 . S
C902 C900 1.381 . S
C902 C903 1.394 . S
C902 H910 0.930 . S
C903 C902 1.394 . S
C903 C904 1.383 . S
C903 H911 0.929 . S
C904 C903 1.383 . S
C904 C905 1.377 . S
C905 H889 0.930 . S
C905 C904 1.377 . S
C905 C906 1.379 . S
C906 H890 0.931 . S
C906 C900 1.383 . S
C906 C905 1.379 . S
H907 C901 0.959 . S
H908 C901 0.961 . S
H909 C901 0.960 . S
H910 C902 0.930 . S
H911 C903 0.929 . S
H912 C920 0.929 . S
H913 C922 0.930 . S
H914 C924 0.930 . S
H915 C927 0.929 . S
H916 C930 0.930 . S
H917 C932 0.960 . S
H918 C932 0.960 . S
H919 C932 0.960 . S
C920 H912 0.929 . S
C920 C921 1.377 . S
C920 C922 1.384 . S
C921 C920 1.377 . S
C921 C927 1.390 . S
C922 H913 0.930 . S
C922 C920 1.384 . S
C922 C923 1.372 . S
C923 C922 1.372 . S
C923 C924 1.400 . S
C923 C928 1.490 . S
C924 H914 0.930 . S
C924 C923 1.400 . S
C924 C927 1.386 . S
H925 C941 0.930 . S
H926 C942 0.931 . S
C927 H915 0.929 . S
C927 C921 1.390 . S
C927 C924 1.386 . S
C928 C923 1.490 . S
C928 C930 1.395 . S
C928 C931 1.403 . S
H929 C935 0.930 . S
C930 H916 0.930 . S
C930 C928 1.395 . S
C930 C933 1.403 . S
C931 C928 1.403 . S
C931 C932 1.524 . S
C931 C935 1.400 . S
C932 H917 0.960 . S
C932 H918 0.960 . S
C932 H919 0.960 . S
C932 C931 1.524 . S
C933 C930 1.403 . S
C933 C934 1.392 . S
C933 C937 1.495 . S
C934 C933 1.392 . S
C934 C935 1.385 . S
C934 C936 1.478 . S
C935 H929 0.930 . S
C935 C931 1.400 . S
C935 C934 1.385 . S
C936 C934 1.478 . S
C936 C938 1.381 . S
C936 C942 1.383 . S
C937 C933 1.495 . S
C937 H943 0.959 . S
C937 H944 0.961 . S
C937 H945 0.960 . S
C938 C936 1.381 . S
C938 C939 1.394 . S
C938 H946 0.930 . S
C939 C938 1.394 . S
C939 C940 1.383 . S
C939 H947 0.929 . S
C940 C939 1.383 . S
C940 C941 1.377 . S
C941 H925 0.930 . S
C941 C940 1.377 . S
C941 C942 1.379 . S
C942 H926 0.931 . S
C942 C936 1.383 . S
C942 C941 1.379 . S
H943 C937 0.959 . S
H944 C937 0.961 . S
H945 C937 0.960 . S
H946 C938 0.930 . S
H947 C939 0.929 . S
H948 C956 0.929 . S
H949 C958 0.930 . S
H950 C960 0.930 . S
H951 C963 0.929 . S
H952 C966 0.930 . S
H953 C968 0.960 . S
H954 C968 0.960 . S
H955 C968 0.960 . S
C956 H948 0.929 . S
C956 C957 1.377 . S
C956 C958 1.384 . S
C957 C956 1.377 . S
C957 C963 1.390 . S
C958 H949 0.930 . S
C958 C956 1.384 . S
C958 C959 1.372 . S
C959 C958 1.372 . S
C959 C960 1.400 . S
C959 C964 1.490 . S
C960 H950 0.930 . S
C960 C959 1.400 . S
C960 C963 1.386 . S
H961 C977 0.930 . S
H962 C978 0.931 . S
C963 H951 0.929 . S
C963 C957 1.390 . S
C963 C960 1.386 . S
C964 C959 1.490 . S
C964 C966 1.395 . S
C964 C967 1.403 . S
H965 C971 0.930 . S
C966 H952 0.930 . S
C966 C964 1.395 . S
C966 C969 1.403 . S
C967 C964 1.403 . S
C967 C968 1.524 . S
C967 C971 1.400 . S
C968 H953 0.960 . S
C968 H954 0.960 . S
C968 H955 0.960 . S
C968 C967 1.524 . S
C969 C966 1.403 . S
C969 C970 1.392 . S
C969 C973 1.495 . S
C970 C969 1.392 . S
C970 C971 1.385 . S
C970 C972 1.478 . S
C971 H965 0.930 . S
C971 C967 1.400 . S
C971 C970 1.385 . S
C972 C970 1.478 . S
C972 C974 1.381 . S
C972 C978 1.383 . S
C973 C969 1.495 . S
C973 H979 0.959 . S
C973 H980 0.961 . S
C973 H981 0.960 . S
C974 C972 1.381 . S
C974 C975 1.394 . S
C974 H982 0.930 . S
C975 C974 1.394 . S
C975 C976 1.383 . S
C975 H983 0.929 . S
C976 C975 1.383 . S
C976 C977 1.377 . S
C977 H961 0.930 . S
C977 C976 1.377 . S
C977 C978 1.379 . S
C978 H962 0.931 . S
C978 C972 1.383 . S
C978 C977 1.379 . S
H979 C973 0.959 . S
H980 C973 0.961 . S
H981 C973 0.960 . S
H982 C974 0.930 . S
H983 C975 0.929 . S
H984 C992 0.929 . S
H985 C994 0.930 . S
H986 C996 0.930 . S
H987 C999 0.929 . S
H988 C1002 0.930 . S
H989 C1004 0.960 . S
H990 C1004 0.960 . S
H991 C1004 0.960 . S
C992 H984 0.929 . S
C992 C993 1.377 . S
C992 C994 1.384 . S
C993 C992 1.377 . S
C993 C999 1.390 . S
C994 H985 0.930 . S
C994 C992 1.384 . S
C994 C995 1.372 . S
C995 C994 1.372 . S
C995 C996 1.400 . S
C995 C1000 1.490 . S
C996 H986 0.930 . S
C996 C995 1.400 . S
C996 C999 1.386 . S
H997 C1013 0.930 . S
H998 C1014 0.931 . S
C999 H987 0.929 . S
C999 C993 1.390 . S
C999 C996 1.386 . S
C1000 C995 1.490 . S
C1000 C1002 1.395 . S
C1000 C1003 1.403 . S
H1001 C1007 0.930 . S
C1002 H988 0.930 . S
C1002 C1000 1.395 . S
C1002 C1005 1.403 . S
C1003 C1000 1.403 . S
C1003 C1004 1.524 . S
C1003 C1007 1.400 . S
C1004 H989 0.960 . S
C1004 H990 0.960 . S
C1004 H991 0.960 . S
C1004 C1003 1.524 . S
C1005 C1002 1.403 . S
C1005 C1006 1.392 . S
C1005 C1009 1.495 . S
C1006 C1005 1.392 . S
C1006 C1007 1.385 . S
C1006 C1008 1.478 . S
C1007 H1001 0.930 . S
C1007 C1003 1.400 . S
C1007 C1006 1.385 . S
C1008 C1006 1.478 . S
C1008 C1010 1.381 . S
C1008 C1014 1.383 . S
C1009 C1005 1.495 . S
C1009 H1015 0.959 . S
C1009 H1016 0.961 . S
C1009 H1017 0.960 . S
C1010 C1008 1.381 . S
C1010 C1011 1.394 . S
C1010 H1018 0.930 . S
C1011 C1010 1.394 . S
C1011 C1012 1.383 . S
C1011 H1019 0.929 . S
C1012 C1011 1.383 . S
C1012 C1013 1.377 . S
C1013 H997 0.930 . S
C1013 C1012 1.377 . S
C1013 C1014 1.379 . S
C1014 H998 0.931 . S
C1014 C1008 1.383 . S
C1014 C1013 1.379 . S
H1015 C1009 0.959 . S
H1016 C1009 0.961 . S
H1017 C1009 0.960 . S
H1018 C1010 0.930 . S
H1019 C1011 0.929 . S
H1020 C1028 0.929 . S
H1021 C1030 0.930 . S
H1022 C1032 0.930 . S
H1023 C1035 0.929 . S
H1024 C1038 0.930 . S
H1025 C1040 0.960 . S
H1026 C1040 0.960 . S
H1027 C1040 0.960 . S
C1028 H1020 0.929 . S
C1028 C1029 1.377 . S
C1028 C1030 1.384 . S
C1029 C1028 1.377 . S
C1029 C1035 1.390 . S
C1030 H1021 0.930 . S
C1030 C1028 1.384 . S
C1030 C1031 1.372 . S
C1031 C1030 1.372 . S
C1031 C1032 1.400 . S
C1031 C1036 1.490 . S
C1032 H1022 0.930 . S
C1032 C1031 1.400 . S
C1032 C1035 1.386 . S
H1033 C1049 0.930 . S
H1034 C1050 0.931 . S
C1035 H1023 0.929 . S
C1035 C1029 1.390 . S
C1035 C1032 1.386 . S
C1036 C1031 1.490 . S
C1036 C1038 1.395 . S
C1036 C1039 1.403 . S
H1037 C1043 0.945 . S
C1038 H1024 0.930 . S
C1038 C1036 1.395 . S
C1038 C1041 1.403 . S
C1039 C1036 1.403 . S
C1039 C1040 1.524 . S
C1039 C1043 1.379 1_554 S
C1040 H1025 0.960 . S
C1040 H1026 0.960 . S
C1040 H1027 0.960 . S
C1040 C1039 1.524 . S
C1041 C1038 1.403 . S
C1041 C1042 1.392 1_554 S
C1041 C1045 1.495 . S
C1042 C1041 1.392 1_556 S
C1042 C1043 1.392 . S
C1042 C1044 1.478 . S
C1043 H1037 0.945 . S
C1043 C1039 1.379 1_556 S
C1043 C1042 1.392 . S
C1044 C1042 1.478 . S
C1044 C1046 1.381 . S
C1044 C1050 1.383 . S
C1045 C1041 1.495 . S
C1045 H1051 0.975 . S
C1045 H1052 0.961 1_554 S
C1045 H1053 0.960 . S
C1046 C1044 1.381 . S
C1046 C1047 1.394 . S
C1046 H1054 0.930 . S
C1047 C1046 1.394 . S
C1047 C1048 1.383 . S
C1047 H1055 0.929 . S
C1048 C1047 1.383 . S
C1048 C1049 1.377 . S
C1049 H1033 0.930 . S
C1049 C1048 1.377 . S
C1049 C1050 1.379 . S
C1050 H1034 0.931 . S
C1050 C1044 1.383 . S
C1050 C1049 1.379 . S
H1051 C1045 0.975 . S
H1052 C1045 0.961 1_556 S
H1053 C1045 0.960 . S
H1054 C1046 0.930 . S
H1055 C1047 0.929 . S
H1056 C1064 0.929 . S
H1057 C1066 0.930 . S
H1058 C1068 0.930 . S
H1059 C1071 0.929 . S
H1060 C1074 0.930 . S
H1061 C1076 0.960 . S
H1062 C1076 0.960 . S
H1063 C1076 0.960 . S
C1064 H1056 0.929 . S
C1064 C1065 1.377 . S
C1064 C1066 1.384 . S
C1065 C1064 1.377 . S
C1065 C1071 1.390 . S
C1066 H1057 0.930 . S
C1066 C1064 1.384 . S
C1066 C1067 1.372 . S
C1067 C1066 1.372 . S
C1067 C1068 1.400 . S
C1067 C1072 1.490 . S
C1068 H1058 0.930 . S
C1068 C1067 1.400 . S
C1068 C1071 1.386 . S
H1069 C1085 0.930 . S
H1070 C1086 0.931 . S
C1071 H1059 0.929 . S
C1071 C1065 1.390 . S
C1071 C1068 1.386 . S
C1072 C1067 1.490 . S
C1072 C1074 1.395 . S
C1072 C1075 1.403 . S
H1073 C1079 0.930 . S
C1074 H1060 0.930 . S
C1074 C1072 1.395 . S
C1074 C1077 1.403 . S
C1075 C1072 1.403 . S
C1075 C1076 1.524 . S
C1075 C1079 1.400 . S
C1076 H1061 0.960 . S
C1076 H1062 0.960 . S
C1076 H1063 0.960 . S
C1076 C1075 1.524 . S
C1077 C1074 1.403 . S
C1077 C1078 1.392 . S
C1077 C1081 1.495 . S
C1078 C1077 1.392 . S
C1078 C1079 1.385 . S
C1078 C1080 1.478 . S
C1079 H1073 0.930 . S
C1079 C1075 1.400 . S
C1079 C1078 1.385 . S
C1080 C1078 1.478 . S
C1080 C1082 1.381 . S
C1080 C1086 1.383 . S
C1081 C1077 1.495 . S
C1081 H1087 0.959 . S
C1081 H1088 0.961 . S
C1081 H1089 0.960 . S
C1082 C1080 1.381 . S
C1082 C1083 1.394 . S
C1082 H1090 0.930 . S
C1083 C1082 1.394 . S
C1083 C1084 1.383 . S
C1083 H1091 0.929 . S
C1084 C1083 1.383 . S
C1084 C1085 1.377 . S
C1085 H1069 0.930 . S
C1085 C1084 1.377 . S
C1085 C1086 1.379 . S
C1086 H1070 0.931 . S
C1086 C1080 1.383 . S
C1086 C1085 1.379 . S
H1087 C1081 0.959 . S
H1088 C1081 0.961 . S
H1089 C1081 0.960 . S
H1090 C1082 0.930 . S
H1091 C1083 0.929 . S
H1092 C1100 0.929 . S
H1093 C1102 0.930 . S
H1094 C1104 0.930 . S
H1095 C1107 0.929 . S
H1096 C1110 0.930 . S
H1097 C1112 0.960 . S
H1098 C1112 0.960 . S
H1099 C1112 0.960 . S
C1100 H1092 0.929 . S
C1100 C1101 1.377 . S
C1100 C1102 1.384 . S
C1101 C1100 1.377 . S
C1101 C1107 1.390 . S
C1102 H1093 0.930 . S
C1102 C1100 1.384 . S
C1102 C1103 1.372 . S
C1103 C1102 1.372 . S
C1103 C1104 1.400 . S
C1103 C1108 1.490 1_554 S
C1104 H1094 0.930 . S
C1104 C1103 1.400 . S
C1104 C1107 1.386 . S
H1105 C1121 0.930 . S
H1106 C1122 0.931 . S
C1107 H1095 0.929 . S
C1107 C1101 1.390 . S
C1107 C1104 1.386 . S
C1108 C1103 1.490 1_556 S
C1108 C1110 1.395 . S
C1108 C1111 1.403 . S
H1109 C1115 0.930 . S
C1110 H1096 0.930 . S
C1110 C1108 1.395 . S
C1110 C1113 1.403 . S
C1111 C1108 1.403 . S
C1111 C1112 1.524 . S
C1111 C1115 1.400 . S
C1112 H1097 0.960 . S
C1112 H1098 0.960 . S
C1112 H1099 0.960 . S
C1112 C1111 1.524 . S
C1113 C1110 1.403 . S
C1113 C1114 1.392 . S
C1113 C1117 1.495 . S
C1114 C1113 1.392 . S
C1114 C1115 1.385 . S
C1114 C1116 1.478 . S
C1115 H1109 0.930 . S
C1115 C1111 1.400 . S
C1115 C1114 1.385 . S
C1116 C1114 1.478 . S
C1116 C1118 1.381 . S
C1116 C1122 1.383 . S
C1117 C1113 1.495 . S
C1117 H1123 0.959 . S
C1117 H1124 0.961 . S
C1117 H1125 0.960 . S
C1118 C1116 1.381 . S
C1118 C1119 1.394 . S
C1118 H1126 0.930 . S
C1119 C1118 1.394 . S
C1119 C1120 1.383 . S
C1119 H1127 0.929 . S
C1120 C1119 1.383 . S
C1120 C1121 1.377 . S
C1121 H1105 0.930 . S
C1121 C1120 1.377 . S
C1121 C1122 1.379 . S
C1122 H1106 0.931 . S
C1122 C1116 1.383 . S
C1122 C1121 1.379 . S
H1123 C1117 0.959 . S
H1124 C1117 0.961 . S
H1125 C1117 0.960 . S
H1126 C1118 0.930 . S
H1127 C1119 0.929 . S
H1128 C1136 0.929 . S
H1129 C1138 0.930 . S
H1130 C1140 0.930 . S
H1131 C1143 0.929 . S
H1132 C1146 0.930 . S
H1133 C1148 0.960 . S
H1134 C1148 0.960 . S
H1135 C1148 0.960 . S
C1136 H1128 0.929 . S
C1136 C1137 1.377 . S
C1136 C1138 1.384 . S
C1137 C1136 1.377 . S
C1137 C1143 1.390 . S
C1138 H1129 0.930 . S
C1138 C1136 1.384 . S
C1138 C1139 1.372 . S
C1139 C1138 1.372 . S
C1139 C1140 1.400 . S
C1139 C1144 1.490 . S
C1140 H1130 0.930 . S
C1140 C1139 1.400 . S
C1140 C1143 1.386 . S
H1141 C1157 0.930 . S
H1142 C1158 0.931 . S
C1143 H1131 0.929 . S
C1143 C1137 1.390 . S
C1143 C1140 1.386 . S
C1144 C1139 1.490 . S
C1144 C1146 1.395 . S
C1144 C1147 1.403 . S
H1145 C1151 0.930 . S
C1146 H1132 0.930 . S
C1146 C1144 1.395 . S
C1146 C1149 1.403 . S
C1147 C1144 1.403 . S
C1147 C1148 1.524 . S
C1147 C1151 1.400 . S
C1148 H1133 0.960 . S
C1148 H1134 0.960 . S
C1148 H1135 0.960 . S
C1148 C1147 1.524 . S
C1149 C1146 1.403 . S
C1149 C1150 1.392 . S
C1149 C1153 1.495 . S
C1150 C1149 1.392 . S
C1150 C1151 1.385 . S
C1150 C1152 1.478 . S
C1151 H1145 0.930 . S
C1151 C1147 1.400 . S
C1151 C1150 1.385 . S
C1152 C1150 1.478 . S
C1152 C1154 1.381 . S
C1152 C1158 1.383 . S
C1153 C1149 1.495 . S
C1153 H1159 0.959 . S
C1153 H1160 0.961 . S
C1153 H1161 0.960 . S
C1154 C1152 1.381 . S
C1154 C1155 1.394 . S
C1154 H1162 0.930 . S
C1155 C1154 1.394 . S
C1155 C1156 1.383 . S
C1155 H1163 0.929 . S
C1156 C1155 1.383 . S
C1156 C1157 1.377 . S
C1157 H1141 0.930 . S
C1157 C1156 1.377 . S
C1157 C1158 1.379 . S
C1158 H1142 0.931 . S
C1158 C1152 1.383 . S
C1158 C1157 1.379 . S
H1159 C1153 0.959 . S
H1160 C1153 0.961 . S
H1161 C1153 0.960 . S
H1162 C1154 0.930 . S
H1163 C1155 0.929 . S
H1164 C1172 0.929 . S
H1165 C1174 0.930 . S
H1166 C1176 0.930 . S
H1167 C1179 0.929 . S
H1168 C1182 0.930 . S
H1169 C1184 0.960 . S
H1170 C1184 0.960 . S
H1171 C1184 0.960 . S
C1172 H1164 0.929 . S
C1172 C1173 1.377 . S
C1172 C1174 1.384 . S
C1173 C1172 1.377 . S
C1173 C1179 1.390 . S
C1174 H1165 0.930 . S
C1174 C1172 1.384 . S
C1174 C1175 1.372 . S
C1175 C1174 1.372 . S
C1175 C1176 1.400 . S
C1175 C1180 1.490 . S
C1176 H1166 0.930 . S
C1176 C1175 1.400 . S
C1176 C1179 1.386 . S
H1177 C1193 0.930 . S
H1178 C1194 0.931 . S
C1179 H1167 0.929 . S
C1179 C1173 1.390 . S
C1179 C1176 1.386 . S
C1180 C1175 1.490 . S
C1180 C1182 1.395 . S
C1180 C1183 1.403 . S
H1181 C1187 0.930 . S
C1182 H1168 0.930 . S
C1182 C1180 1.395 . S
C1182 C1185 1.403 . S
C1183 C1180 1.403 . S
C1183 C1184 1.524 . S
C1183 C1187 1.400 . S
C1184 H1169 0.960 . S
C1184 H1170 0.960 . S
C1184 H1171 0.960 . S
C1184 C1183 1.524 . S
C1185 C1182 1.403 . S
C1185 C1186 1.392 . S
C1185 C1189 1.495 . S
C1186 C1185 1.392 . S
C1186 C1187 1.385 . S
C1186 C1188 1.478 . S
C1187 H1181 0.930 . S
C1187 C1183 1.400 . S
C1187 C1186 1.385 . S
C1188 C1186 1.478 . S
C1188 C1190 1.381 . S
C1188 C1194 1.383 . S
C1189 C1185 1.495 . S
C1189 H1195 0.959 . S
C1189 H1196 0.961 . S
C1189 H1197 0.960 . S
C1190 C1188 1.381 . S
C1190 C1191 1.394 . S
C1190 H1198 0.930 . S
C1191 C1190 1.394 . S
C1191 C1192 1.383 . S
C1191 H1199 0.929 . S
C1192 C1191 1.383 . S
C1192 C1193 1.377 . S
C1193 H1177 0.930 . S
C1193 C1192 1.377 . S
C1193 C1194 1.379 . S
C1194 H1178 0.931 . S
C1194 C1188 1.383 . S
C1194 C1193 1.379 . S
H1195 C1189 0.959 . S
H1196 C1189 0.961 . S
H1197 C1189 0.960 . S
H1198 C1190 0.930 . S
H1199 C1191 0.929 . S
H1200 C1208 0.929 . S
H1201 C1210 0.930 . S
H1202 C1212 0.930 . S
H1203 C1215 0.929 . S
H1204 C1218 0.930 . S
H1205 C1220 0.960 . S
H1206 C1220 0.960 . S
H1207 C1220 0.960 . S
C1208 H1200 0.929 . S
C1208 C1209 1.377 . S
C1208 C1210 1.384 . S
C1209 C1208 1.377 . S
C1209 C1215 1.390 . S
C1210 H1201 0.930 . S
C1210 C1208 1.384 . S
C1210 C1211 1.372 . S
C1211 C1210 1.372 . S
C1211 C1212 1.400 . S
C1211 C1216 1.490 . S
C1212 H1202 0.930 . S
C1212 C1211 1.400 . S
C1212 C1215 1.386 . S
H1213 C1229 0.930 . S
H1214 C1230 0.931 . S
C1215 H1203 0.929 . S
C1215 C1209 1.390 . S
C1215 C1212 1.386 . S
C1216 C1211 1.490 . S
C1216 C1218 1.395 . S
C1216 C1219 1.403 . S
H1217 C1223 0.930 . S
C1218 H1204 0.930 . S
C1218 C1216 1.395 . S
C1218 C1221 1.403 . S
C1219 C1216 1.403 . S
C1219 C1220 1.524 . S
C1219 C1223 1.400 . S
C1220 H1205 0.960 . S
C1220 H1206 0.960 . S
C1220 H1207 0.960 . S
C1220 C1219 1.524 . S
C1221 C1218 1.403 . S
C1221 C1222 1.392 . S
C1221 C1225 1.495 . S
C1222 C1221 1.392 . S
C1222 C1223 1.385 . S
C1222 C1224 1.478 . S
C1223 H1217 0.930 . S
C1223 C1219 1.400 . S
C1223 C1222 1.385 . S
C1224 C1222 1.478 . S
C1224 C1226 1.381 . S
C1224 C1230 1.383 . S
C1225 C1221 1.495 . S
C1225 H1231 0.959 . S
C1225 H1232 0.961 . S
C1225 H1233 0.960 . S
C1226 C1224 1.381 . S
C1226 C1227 1.394 . S
C1226 H1234 0.930 . S
C1227 C1226 1.394 . S
C1227 C1228 1.383 . S
C1227 H1235 0.929 . S
C1228 C1227 1.383 . S
C1228 C1229 1.377 . S
C1229 H1213 0.930 . S
C1229 C1228 1.377 . S
C1229 C1230 1.379 . S
C1230 H1214 0.931 . S
C1230 C1224 1.383 . S
C1230 C1229 1.379 . S
H1231 C1225 0.959 . S
H1232 C1225 0.961 . S
H1233 C1225 0.960 . S
H1234 C1226 0.930 . S
H1235 C1227 0.929 . S
H1236 C1244 0.929 . S
H1237 C1246 0.930 . S
H1238 C1248 0.930 . S
H1239 C1251 0.929 . S
H1240 C1254 0.930 . S
H1241 C1256 0.960 1_565 S
H1242 C1256 0.960 . S
H1243 C1256 0.960 . S
C1244 H1236 0.929 . S
C1244 C1245 1.377 . S
C1244 C1246 1.384 . S
C1245 C1244 1.377 . S
C1245 C1251 1.390 . S
C1246 H1237 0.930 . S
C1246 C1244 1.384 . S
C1246 C1247 1.372 . S
C1247 C1246 1.372 . S
C1247 C1248 1.400 . S
C1247 C1252 1.490 . S
C1248 H1238 0.930 . S
C1248 C1247 1.400 . S
C1248 C1251 1.386 . S
H1249 C1265 0.930 1_655 S
H1250 C1266 0.931 . S
C1251 H1239 0.929 . S
C1251 C1245 1.390 . S
C1251 C1248 1.386 . S
C1252 C1247 1.490 . S
C1252 C1254 1.395 . S
C1252 C1255 1.403 . S
H1253 C1259 0.930 . S
C1254 H1240 0.930 . S
C1254 C1252 1.395 . S
C1254 C1257 1.403 . S
C1255 C1252 1.403 . S
C1255 C1256 1.524 . S
C1255 C1259 1.400 1_545 S
C1256 H1241 0.960 1_545 S
C1256 H1242 0.960 . S
C1256 H1243 0.960 . S
C1256 C1255 1.524 . S
C1257 C1254 1.403 . S
C1257 C1258 1.392 1_545 S
C1257 C1261 1.495 . S
C1258 C1257 1.392 1_565 S
C1258 C1259 1.385 . S
C1258 C1260 1.478 . S
C1259 H1253 0.930 . S
C1259 C1255 1.400 1_565 S
C1259 C1258 1.385 . S
C1260 C1258 1.478 . S
C1260 C1262 1.381 . S
C1260 C1266 1.383 . S
C1261 C1257 1.495 . S
C1261 H1267 0.959 . S
C1261 H1268 0.961 . S
C1261 H1269 0.960 . S
C1262 C1260 1.381 . S
C1262 C1263 1.394 . S
C1262 H1270 0.930 . S
C1263 C1262 1.394 . S
C1263 C1264 1.383 . S
C1263 H1271 0.929 . S
C1264 C1263 1.383 . S
C1264 C1265 1.377 . S
C1265 H1249 0.930 1_455 S
C1265 C1264 1.377 . S
C1265 C1266 1.379 . S
C1266 H1250 0.931 . S
C1266 C1260 1.383 . S
C1266 C1265 1.379 . S
H1267 C1261 0.959 . S
H1268 C1261 0.961 . S
H1269 C1261 0.960 . S
H1270 C1262 0.930 . S
H1271 C1263 0.929 . S
H1272 C1280 0.929 . S
H1273 C1282 0.930 . S
H1274 C1284 0.930 . S
H1275 C1287 0.929 . S
H1276 C1290 0.930 . S
H1277 C1292 0.960 . S
H1278 C1292 0.960 . S
H1279 C1292 0.960 . S
C1280 H1272 0.929 . S
C1280 C1281 1.377 . S
C1280 C1282 1.384 . S
C1281 C1280 1.377 . S
C1281 C1287 1.390 . S
C1282 H1273 0.930 . S
C1282 C1280 1.384 . S
C1282 C1283 1.372 . S
C1283 C1282 1.372 . S
C1283 C1284 1.400 . S
C1283 C1288 1.490 . S
C1284 H1274 0.930 . S
C1284 C1283 1.400 . S
C1284 C1287 1.386 . S
H1285 C1301 0.930 . S
H1286 C1302 0.931 . S
C1287 H1275 0.929 . S
C1287 C1281 1.390 . S
C1287 C1284 1.386 . S
C1288 C1283 1.490 . S
C1288 C1290 1.395 . S
C1288 C1291 1.403 . S
H1289 C1295 0.930 . S
C1290 H1276 0.930 . S
C1290 C1288 1.395 . S
C1290 C1293 1.403 . S
C1291 C1288 1.403 . S
C1291 C1292 1.524 . S
C1291 C1295 1.400 . S
C1292 H1277 0.960 . S
C1292 H1278 0.960 . S
C1292 H1279 0.960 . S
C1292 C1291 1.524 . S
C1293 C1290 1.403 . S
C1293 C1294 1.392 . S
C1293 C1297 1.495 . S
C1294 C1293 1.392 . S
C1294 C1295 1.385 . S
C1294 C1296 1.478 . S
C1295 H1289 0.930 . S
C1295 C1291 1.400 . S
C1295 C1294 1.385 . S
C1296 C1294 1.478 . S
C1296 C1298 1.381 . S
C1296 C1302 1.383 . S
C1297 C1293 1.495 . S
C1297 H1303 0.959 . S
C1297 H1304 0.961 . S
C1297 H1305 0.960 . S
C1298 C1296 1.381 . S
C1298 C1299 1.394 . S
C1298 H1306 0.930 . S
C1299 C1298 1.394 . S
C1299 C1300 1.383 . S
C1299 H1307 0.929 . S
C1300 C1299 1.383 . S
C1300 C1301 1.377 . S
C1301 H1285 0.930 . S
C1301 C1300 1.377 . S
C1301 C1302 1.379 . S
C1302 H1286 0.931 . S
C1302 C1296 1.383 . S
C1302 C1301 1.379 . S
H1303 C1297 0.959 . S
H1304 C1297 0.961 . S
H1305 C1297 0.960 . S
H1306 C1298 0.930 . S
H1307 C1299 0.929 . S
H1308 C1316 0.929 . S
H1309 C1318 0.930 . S
H1310 C1320 0.930 . S
H1311 C1323 0.929 . S
H1312 C1326 0.930 . S
H1313 C1328 0.960 . S
H1314 C1328 0.960 1_545 S
H1315 C1328 0.960 . S
C1316 H1308 0.929 . S
C1316 C1317 1.377 . S
C1316 C1318 1.384 . S
C1317 C1316 1.377 . S
C1317 C1323 1.390 . S
C1318 H1309 0.930 . S
C1318 C1316 1.384 . S
C1318 C1319 1.372 . S
C1319 C1318 1.372 . S
C1319 C1320 1.400 . S
C1319 C1324 1.490 . S
C1320 H1310 0.930 . S
C1320 C1319 1.400 . S
C1320 C1323 1.386 . S
H1321 C1337 0.930 . S
H1322 C1338 0.931 . S
C1323 H1311 0.929 . S
C1323 C1317 1.390 . S
C1323 C1320 1.386 . S
C1324 C1319 1.490 . S
C1324 C1326 1.395 . S
C1324 C1327 1.403 1_545 S
H1325 C1331 0.930 . S
C1326 H1312 0.930 . S
C1326 C1324 1.395 . S
C1326 C1329 1.403 1_545 S
C1327 C1324 1.403 1_565 S
C1327 C1328 1.524 . S
C1327 C1331 1.400 . S
C1328 H1313 0.960 . S
C1328 H1314 0.960 1_565 S
C1328 H1315 0.960 . S
C1328 C1327 1.524 . S
C1329 C1326 1.403 1_565 S
C1329 C1330 1.392 . S
C1329 C1333 1.495 . S
C1330 C1329 1.392 . S
C1330 C1331 1.385 . S
C1330 C1332 1.478 . S
C1331 H1325 0.930 . S
C1331 C1327 1.400 . S
C1331 C1330 1.385 . S
C1332 C1330 1.478 . S
C1332 C1334 1.381 . S
C1332 C1338 1.383 . S
C1333 C1329 1.495 . S
C1333 H1339 0.959 1_565 S
C1333 H1340 0.961 . S
C1333 H1341 0.960 . S
C1334 C1332 1.381 . S
C1334 C1335 1.394 . S
C1334 H1342 0.930 . S
C1335 C1334 1.394 . S
C1335 C1336 1.383 . S
C1335 H1343 0.929 . S
C1336 C1335 1.383 . S
C1336 C1337 1.377 . S
C1337 H1321 0.930 . S
C1337 C1336 1.377 . S
C1337 C1338 1.379 . S
C1338 H1322 0.931 . S
C1338 C1332 1.383 . S
C1338 C1337 1.379 . S
H1339 C1333 0.959 1_545 S
H1340 C1333 0.961 . S
H1341 C1333 0.960 . S
H1342 C1334 0.930 . S
H1343 C1335 0.929 . S
H1344 C1352 0.929 . S
H1345 C1354 0.930 . S
H1346 C1356 0.930 . S
H1347 C1359 0.929 . S
H1348 C1362 0.930 . S
H1349 C1364 0.960 . S
H1350 C1364 0.960 . S
H1351 C1364 0.960 . S
C1352 H1344 0.929 . S
C1352 C1353 1.377 . S
C1352 C1354 1.384 . S
C1353 C1352 1.377 . S
C1353 C1359 1.390 . S
C1354 H1345 0.930 . S
C1354 C1352 1.384 . S
C1354 C1355 1.372 . S
C1355 C1354 1.372 . S
C1355 C1356 1.400 . S
C1355 C1360 1.490 . S
C1356 H1346 0.930 . S
C1356 C1355 1.400 . S
C1356 C1359 1.386 . S
H1357 C1373 0.930 . S
H1358 C1374 0.931 . S
C1359 H1347 0.929 . S
C1359 C1353 1.390 . S
C1359 C1356 1.386 . S
C1360 C1355 1.490 . S
C1360 C1362 1.395 . S
C1360 C1363 1.403 . S
H1361 C1367 0.930 . S
C1362 H1348 0.930 . S
C1362 C1360 1.395 . S
C1362 C1365 1.403 . S
C1363 C1360 1.403 . S
C1363 C1364 1.524 . S
C1363 C1367 1.400 . S
C1364 H1349 0.960 . S
C1364 H1350 0.960 . S
C1364 H1351 0.960 . S
C1364 C1363 1.524 . S
C1365 C1362 1.403 . S
C1365 C1366 1.392 . S
C1365 C1369 1.495 . S
C1366 C1365 1.392 . S
C1366 C1367 1.385 . S
C1366 C1368 1.478 . S
C1367 H1361 0.930 . S
C1367 C1363 1.400 . S
C1367 C1366 1.385 . S
C1368 C1366 1.478 . S
C1368 C1370 1.381 . S
C1368 C1374 1.383 . S
C1369 C1365 1.495 . S
C1369 H1375 0.959 . S
C1369 H1376 0.961 . S
C1369 H1377 0.960 . S
C1370 C1368 1.381 . S
C1370 C1371 1.394 . S
C1370 H1378 0.930 . S
C1371 C1370 1.394 . S
C1371 C1372 1.383 . S
C1371 H1379 0.929 . S
C1372 C1371 1.383 . S
C1372 C1373 1.377 . S
C1373 H1357 0.930 . S
C1373 C1372 1.377 . S
C1373 C1374 1.379 . S
C1374 H1358 0.931 . S
C1374 C1368 1.383 . S
C1374 C1373 1.379 . S
H1375 C1369 0.959 . S
H1376 C1369 0.961 . S
H1377 C1369 0.960 . S
H1378 C1370 0.930 . S
H1379 C1371 0.929 . S
H1380 C1388 0.929 . S
H1381 C1390 0.930 . S
H1382 C1392 0.930 . S
H1383 C1395 0.929 . S
H1384 C1398 0.930 . S
H1385 C1400 0.960 . S
H1386 C1400 0.960 . S
H1387 C1400 0.960 . S
C1388 H1380 0.929 . S
C1388 C1389 1.377 . S
C1388 C1390 1.384 . S
C1389 C1388 1.377 . S
C1389 C1395 1.390 . S
C1390 H1381 0.930 . S
C1390 C1388 1.384 . S
C1390 C1391 1.372 . S
C1391 C1390 1.372 . S
C1391 C1392 1.400 . S
C1391 C1396 1.490 . S
C1392 H1382 0.930 . S
C1392 C1391 1.400 . S
C1392 C1395 1.386 . S
H1393 C1409 0.930 . S
H1394 C1410 0.931 . S
C1395 H1383 0.929 . S
C1395 C1389 1.390 . S
C1395 C1392 1.386 . S
C1396 C1391 1.490 . S
C1396 C1398 1.395 . S
C1396 C1399 1.403 . S
H1397 C1403 0.930 . S
C1398 H1384 0.930 . S
C1398 C1396 1.395 . S
C1398 C1401 1.403 . S
C1399 C1396 1.403 . S
C1399 C1400 1.524 . S
C1399 C1403 1.400 . S
C1400 H1385 0.960 . S
C1400 H1386 0.960 . S
C1400 H1387 0.960 . S
C1400 C1399 1.524 . S
C1401 C1398 1.403 . S
C1401 C1402 1.392 . S
C1401 C1405 1.495 . S
C1402 C1401 1.392 . S
C1402 C1403 1.385 . S
C1402 C1404 1.478 . S
C1403 H1397 0.930 . S
C1403 C1399 1.400 . S
C1403 C1402 1.385 . S
C1404 C1402 1.478 . S
C1404 C1406 1.381 . S
C1404 C1410 1.383 . S
C1405 C1401 1.495 . S
C1405 H1411 0.959 . S
C1405 H1412 0.961 . S
C1405 H1413 0.960 . S
C1406 C1404 1.381 . S
C1406 C1407 1.394 . S
C1406 H1414 0.930 . S
C1407 C1406 1.394 . S
C1407 C1408 1.383 . S
C1407 H1415 0.929 . S
C1408 C1407 1.383 . S
C1408 C1409 1.377 . S
C1409 H1393 0.930 . S
C1409 C1408 1.377 . S
C1409 C1410 1.379 . S
C1410 H1394 0.931 . S
C1410 C1404 1.383 . S
C1410 C1409 1.379 . S
H1411 C1405 0.959 . S
H1412 C1405 0.961 . S
H1413 C1405 0.960 . S
H1414 C1406 0.930 . S
H1415 C1407 0.929 . S
H1416 C1424 0.929 . S
H1417 C1426 0.930 . S
H1418 C1428 0.930 . S
H1419 C1431 0.929 . S
H1420 C1434 0.930 . S
H1421 C1436 0.960 . S
H1422 C1436 0.960 . S
H1423 C1436 0.960 . S
C1424 H1416 0.929 . S
C1424 C1425 1.377 . S
C1424 C1426 1.384 . S
C1425 C1424 1.377 . S
C1425 C1431 1.390 . S
C1426 H1417 0.930 . S
C1426 C1424 1.384 . S
C1426 C1427 1.372 . S
C1427 C1426 1.372 . S
C1427 C1428 1.400 . S
C1427 C1432 1.490 . S
C1428 H1418 0.930 . S
C1428 C1427 1.400 . S
C1428 C1431 1.386 . S
H1429 C1445 0.930 . S
H1430 C1446 0.931 . S
C1431 H1419 0.929 . S
C1431 C1425 1.390 . S
C1431 C1428 1.386 . S
C1432 C1427 1.490 . S
C1432 C1434 1.395 . S
C1432 C1435 1.403 . S
H1433 C1439 0.930 . S
C1434 H1420 0.930 . S
C1434 C1432 1.395 . S
C1434 C1437 1.403 . S
C1435 C1432 1.403 . S
C1435 C1436 1.524 . S
C1435 C1439 1.400 . S
C1436 H1421 0.960 . S
C1436 H1422 0.960 . S
C1436 H1423 0.960 . S
C1436 C1435 1.524 . S
C1437 C1434 1.403 . S
C1437 C1438 1.392 . S
C1437 C1441 1.495 . S
C1438 C1437 1.392 . S
C1438 C1439 1.385 . S
C1438 C1440 1.478 . S
C1439 H1433 0.930 . S
C1439 C1435 1.400 . S
C1439 C1438 1.385 . S
C1440 C1438 1.478 . S
C1440 C1442 1.381 . S
C1440 C1446 1.383 . S
C1441 C1437 1.495 . S
C1441 H1447 0.959 . S
C1441 H1448 0.961 . S
C1441 H1449 0.960 . S
C1442 C1440 1.381 . S
C1442 C1443 1.394 . S
C1442 H1450 0.930 . S
C1443 C1442 1.394 . S
C1443 C1444 1.383 . S
C1443 H1451 0.929 . S
C1444 C1443 1.383 . S
C1444 C1445 1.377 . S
C1445 H1429 0.930 . S
C1445 C1444 1.377 . S
C1445 C1446 1.379 . S
C1446 H1430 0.931 . S
C1446 C1440 1.383 . S
C1446 C1445 1.379 . S
H1447 C1441 0.959 . S
H1448 C1441 0.961 . S
H1449 C1441 0.960 . S
H1450 C1442 0.930 . S
H1451 C1443 0.929 . S
H1452 C1460 0.929 . S
H1453 C1462 0.930 . S
H1454 C1464 0.930 . S
H1455 C1467 0.929 . S
H1456 C1470 0.930 . S
H1457 C1472 0.960 . S
H1458 C1472 0.960 . S
H1459 C1472 0.960 . S
C1460 H1452 0.929 . S
C1460 C1461 1.377 . S
C1460 C1462 1.384 . S
C1461 C1460 1.377 . S
C1461 C1467 1.390 . S
C1462 H1453 0.930 . S
C1462 C1460 1.384 . S
C1462 C1463 1.372 . S
C1463 C1462 1.372 . S
C1463 C1464 1.400 . S
C1463 C1468 1.490 . S
C1464 H1454 0.930 . S
C1464 C1463 1.400 . S
C1464 C1467 1.386 . S
H1465 C1481 0.930 . S
H1466 C1482 0.931 . S
C1467 H1455 0.929 . S
C1467 C1461 1.390 . S
C1467 C1464 1.386 . S
C1468 C1463 1.490 . S
C1468 C1470 1.395 . S
C1468 C1471 1.403 . S
H1469 C1475 0.930 . S
C1470 H1456 0.930 . S
C1470 C1468 1.395 . S
C1470 C1473 1.403 . S
C1471 C1468 1.403 . S
C1471 C1472 1.524 . S
C1471 C1475 1.400 . S
C1472 H1457 0.960 . S
C1472 H1458 0.960 . S
C1472 H1459 0.960 . S
C1472 C1471 1.524 . S
C1473 C1470 1.403 . S
C1473 C1474 1.392 . S
C1473 C1477 1.495 . S
C1474 C1473 1.392 . S
C1474 C1475 1.385 . S
C1474 C1476 1.478 . S
C1475 H1469 0.930 . S
C1475 C1471 1.400 . S
C1475 C1474 1.385 . S
C1476 C1474 1.478 . S
C1476 C1478 1.381 . S
C1476 C1482 1.383 . S
C1477 C1473 1.495 . S
C1477 H1483 0.959 . S
C1477 H1484 0.961 . S
C1477 H1485 0.960 . S
C1478 C1476 1.381 . S
C1478 C1479 1.394 . S
C1478 H1486 0.930 . S
C1479 C1478 1.394 . S
C1479 C1480 1.383 . S
C1479 H1487 0.929 . S
C1480 C1479 1.383 . S
C1480 C1481 1.377 . S
C1481 H1465 0.930 . S
C1481 C1480 1.377 . S
C1481 C1482 1.379 . S
C1482 H1466 0.931 . S
C1482 C1476 1.383 . S
C1482 C1481 1.379 . S
H1483 C1477 0.959 . S
H1484 C1477 0.961 . S
H1485 C1477 0.960 . S
H1486 C1478 0.930 . S
H1487 C1479 0.929 . S
H1488 C1496 0.929 . S
H1489 C1498 0.930 . S
H1490 C1500 0.930 . S
H1491 C1503 0.929 . S
H1492 C1506 0.930 . S
H1493 C1508 0.960 . S
H1494 C1508 0.960 . S
H1495 C1508 0.960 . S
C1496 H1488 0.929 . S
C1496 C1497 1.377 . S
C1496 C1498 1.384 . S
C1497 C1496 1.377 . S
C1497 C1503 1.390 . S
C1498 H1489 0.930 . S
C1498 C1496 1.384 . S
C1498 C1499 1.372 . S
C1499 C1498 1.372 . S
C1499 C1500 1.400 . S
C1499 C1504 1.490 . S
C1500 H1490 0.930 . S
C1500 C1499 1.400 . S
C1500 C1503 1.386 . S
H1501 C1517 0.930 . S
H1502 C1518 0.931 . S
C1503 H1491 0.929 . S
C1503 C1497 1.390 . S
C1503 C1500 1.386 . S
C1504 C1499 1.490 . S
C1504 C1506 1.395 . S
C1504 C1507 1.403 . S
H1505 C1511 0.930 . S
C1506 H1492 0.930 . S
C1506 C1504 1.395 . S
C1506 C1509 1.403 . S
C1507 C1504 1.403 . S
C1507 C1508 1.524 . S
C1507 C1511 1.400 . S
C1508 H1493 0.960 . S
C1508 H1494 0.960 . S
C1508 H1495 0.960 . S
C1508 C1507 1.524 . S
C1509 C1506 1.403 . S
C1509 C1510 1.392 . S
C1509 C1513 1.495 . S
C1510 C1509 1.392 . S
C1510 C1511 1.385 . S
C1510 C1512 1.478 . S
C1511 H1505 0.930 . S
C1511 C1507 1.400 . S
C1511 C1510 1.385 . S
C1512 C1510 1.478 . S
C1512 C1514 1.381 . S
C1512 C1518 1.383 . S
C1513 C1509 1.495 . S
C1513 H1519 0.959 . S
C1513 H1520 0.961 . S
C1513 H1521 0.960 . S
C1514 C1512 1.381 . S
C1514 C1515 1.394 . S
C1514 H1522 0.930 . S
C1515 C1514 1.394 . S
C1515 C1516 1.383 . S
C1515 H1523 0.929 . S
C1516 C1515 1.383 . S
C1516 C1517 1.377 . S
C1517 H1501 0.930 . S
C1517 C1516 1.377 . S
C1517 C1518 1.379 . S
C1518 H1502 0.931 . S
C1518 C1512 1.383 . S
C1518 C1517 1.379 . S
H1519 C1513 0.959 . S
H1520 C1513 0.961 . S
H1521 C1513 0.960 . S
H1522 C1514 0.930 . S
H1523 C1515 0.929 . S
H1524 C1532 0.929 . S
H1525 C1534 0.930 . S
H1526 C1536 0.930 . S
H1527 C1539 0.929 . S
H1528 C1542 0.930 . S
H1529 C1544 0.960 . S
H1530 C1544 0.960 . S
H1531 C1544 0.960 . S
C1532 H1524 0.929 . S
C1532 C1533 1.377 . S
C1532 C1534 1.384 . S
C1533 C1532 1.377 . S
C1533 C1539 1.390 . S
C1534 H1525 0.930 . S
C1534 C1532 1.384 . S
C1534 C1535 1.372 . S
C1535 C1534 1.372 . S
C1535 C1536 1.400 . S
C1535 C1540 1.490 . S
C1536 H1526 0.930 . S
C1536 C1535 1.400 . S
C1536 C1539 1.386 . S
H1537 C1553 0.930 . S
H1538 C1554 0.931 . S
C1539 H1527 0.929 . S
C1539 C1533 1.390 . S
C1539 C1536 1.386 . S
C1540 C1535 1.490 . S
C1540 C1542 1.395 . S
C1540 C1543 1.403 . S
H1541 C1547 0.930 . S
C1542 H1528 0.930 . S
C1542 C1540 1.395 . S
C1542 C1545 1.403 . S
C1543 C1540 1.403 . S
C1543 C1544 1.524 . S
C1543 C1547 1.400 . S
C1544 H1529 0.960 . S
C1544 H1530 0.960 . S
C1544 H1531 0.960 . S
C1544 C1543 1.524 . S
C1545 C1542 1.403 . S
C1545 C1546 1.392 . S
C1545 C1549 1.495 . S
C1546 C1545 1.392 . S
C1546 C1547 1.385 . S
C1546 C1548 1.478 . S
C1547 H1541 0.930 . S
C1547 C1543 1.400 . S
C1547 C1546 1.385 . S
C1548 C1546 1.478 . S
C1548 C1550 1.381 . S
C1548 C1554 1.383 . S
C1549 C1545 1.495 . S
C1549 H1555 0.959 . S
C1549 H1556 0.961 . S
C1549 H1557 0.960 . S
C1550 C1548 1.381 . S
C1550 C1551 1.394 . S
C1550 H1558 0.930 . S
C1551 C1550 1.394 . S
C1551 C1552 1.383 . S
C1551 H1559 0.929 . S
C1552 C1551 1.383 . S
C1552 C1553 1.377 . S
C1553 H1537 0.930 . S
C1553 C1552 1.377 . S
C1553 C1554 1.379 . S
C1554 H1538 0.931 . S
C1554 C1548 1.383 . S
C1554 C1553 1.379 . S
H1555 C1549 0.959 . S
H1556 C1549 0.961 . S
H1557 C1549 0.960 . S
H1558 C1550 0.930 . S
H1559 C1551 0.929 . S
H1560 C1568 0.929 . S
H1561 C1570 0.930 . S
H1562 C1572 0.930 . S
H1563 C1575 0.929 . S
H1564 C1578 0.930 . S
H1565 C1580 0.960 1_655 S
H1566 C1580 0.960 . S
H1567 C1580 0.960 . S
C1568 H1560 0.929 . S
C1568 C1569 1.377 . S
C1568 C1570 1.384 . S
C1569 C1568 1.377 . S
C1569 C1575 1.390 . S
C1570 H1561 0.930 . S
C1570 C1568 1.384 . S
C1570 C1571 1.372 . S
C1571 C1570 1.372 . S
C1571 C1572 1.400 . S
C1571 C1576 1.490 . S
C1572 H1562 0.930 . S
C1572 C1571 1.400 . S
C1572 C1575 1.386 . S
H1573 C1589 0.930 . S
H1574 C1590 0.931 . S
C1575 H1563 0.929 . S
C1575 C1569 1.390 . S
C1575 C1572 1.386 . S
C1576 C1571 1.490 . S
C1576 C1578 1.395 . S
C1576 C1579 1.403 . S
H1577 C1583 0.930 . S
C1578 H1564 0.930 . S
C1578 C1576 1.395 . S
C1578 C1581 1.403 . S
C1579 C1576 1.403 . S
C1579 C1580 1.524 . S
C1579 C1583 1.400 1_455 S
C1580 H1565 0.960 1_455 S
C1580 H1566 0.960 . S
C1580 H1567 0.960 . S
C1580 C1579 1.524 . S
C1581 C1578 1.403 . S
C1581 C1582 1.392 1_455 S
C1581 C1585 1.495 . S
C1582 C1581 1.392 1_655 S
C1582 C1583 1.385 . S
C1582 C1584 1.478 . S
C1583 H1577 0.930 . S
C1583 C1579 1.400 1_655 S
C1583 C1582 1.385 . S
C1584 C1582 1.478 . S
C1584 C1586 1.381 . S
C1584 C1590 1.383 . S
C1585 C1581 1.495 . S
C1585 H1591 0.959 . S
C1585 H1592 0.961 . S
C1585 H1593 0.960 . S
C1586 C1584 1.381 . S
C1586 C1587 1.394 . S
C1586 H1594 0.930 . S
C1587 C1586 1.394 . S
C1587 C1588 1.383 . S
C1587 H1595 0.929 . S
C1588 C1587 1.383 . S
C1588 C1589 1.377 . S
C1589 H1573 0.930 . S
C1589 C1588 1.377 . S
C1589 C1590 1.379 . S
C1590 H1574 0.931 . S
C1590 C1584 1.383 . S
C1590 C1589 1.379 . S
H1591 C1585 0.959 . S
H1592 C1585 0.961 . S
H1593 C1585 0.960 . S
H1594 C1586 0.930 . S
H1595 C1587 0.929 . S
H1596 C1604 0.929 . S
H1597 C1606 0.930 . S
H1598 C1608 0.930 . S
H1599 C1611 0.929 . S
H1600 C1614 0.930 . S
H1601 C1616 0.960 . S
H1602 C1616 0.960 . S
H1603 C1616 0.960 . S
C1604 H1596 0.929 . S
C1604 C1605 1.377 . S
C1604 C1606 1.384 . S
C1605 C1604 1.377 . S
C1605 C1611 1.390 . S
C1606 H1597 0.930 . S
C1606 C1604 1.384 . S
C1606 C1607 1.372 . S
C1607 C1606 1.372 . S
C1607 C1608 1.400 . S
C1607 C1612 1.490 . S
C1608 H1598 0.930 . S
C1608 C1607 1.400 . S
C1608 C1611 1.386 . S
H1609 C1625 0.930 . S
H1610 C1626 0.931 . S
C1611 H1599 0.929 . S
C1611 C1605 1.390 . S
C1611 C1608 1.386 . S
C1612 C1607 1.490 . S
C1612 C1614 1.395 . S
C1612 C1615 1.403 . S
H1613 C1619 0.930 . S
C1614 H1600 0.930 . S
C1614 C1612 1.395 . S
C1614 C1617 1.403 . S
C1615 C1612 1.403 . S
C1615 C1616 1.524 . S
C1615 C1619 1.400 . S
C1616 H1601 0.960 . S
C1616 H1602 0.960 . S
C1616 H1603 0.960 . S
C1616 C1615 1.524 . S
C1617 C1614 1.403 . S
C1617 C1618 1.392 . S
C1617 C1621 1.495 . S
C1618 C1617 1.392 . S
C1618 C1619 1.385 . S
C1618 C1620 1.478 . S
C1619 H1613 0.930 . S
C1619 C1615 1.400 . S
C1619 C1618 1.385 . S
C1620 C1618 1.478 . S
C1620 C1622 1.381 . S
C1620 C1626 1.383 . S
C1621 C1617 1.495 . S
C1621 H1627 0.959 . S
C1621 H1628 0.961 . S
C1621 H1629 0.960 . S
C1622 C1620 1.381 . S
C1622 C1623 1.394 . S
C1622 H1630 0.930 . S
C1623 C1622 1.394 . S
C1623 C1624 1.383 . S
C1623 H1631 0.929 . S
C1624 C1623 1.383 . S
C1624 C1625 1.377 . S
C1625 H1609 0.930 . S
C1625 C1624 1.377 . S
C1625 C1626 1.379 . S
C1626 H1610 0.931 . S
C1626 C1620 1.383 . S
C1626 C1625 1.379 . S
H1627 C1621 0.959 . S
H1628 C1621 0.961 . S
H1629 C1621 0.960 . S
H1630 C1622 0.930 . S
H1631 C1623 0.929 . S
H1632 C1640 0.929 . S
H1633 C1642 0.930 . S
H1634 C1644 0.930 . S
H1635 C1647 0.929 . S
H1636 C1650 0.930 . S
H1637 C1652 0.960 . S
H1638 C1652 0.960 . S
H1639 C1652 0.960 . S
C1640 H1632 0.929 . S
C1640 C1641 1.377 . S
C1640 C1642 1.384 . S
C1641 C1640 1.377 . S
C1641 C1647 1.390 . S
C1642 H1633 0.930 . S
C1642 C1640 1.384 . S
C1642 C1643 1.372 . S
C1643 C1642 1.372 . S
C1643 C1644 1.400 . S
C1643 C1648 1.490 . S
C1644 H1634 0.930 . S
C1644 C1643 1.400 . S
C1644 C1647 1.386 . S
H1645 C1661 0.930 . S
H1646 C1662 0.931 . S
C1647 H1635 0.929 . S
C1647 C1641 1.390 . S
C1647 C1644 1.386 . S
C1648 C1643 1.490 . S
C1648 C1650 1.395 . S
C1648 C1651 1.403 . S
H1649 C1655 0.930 . S
C1650 H1636 0.930 . S
C1650 C1648 1.395 . S
C1650 C1653 1.403 . S
C1651 C1648 1.403 . S
C1651 C1652 1.524 . S
C1651 C1655 1.400 . S
C1652 H1637 0.960 . S
C1652 H1638 0.960 . S
C1652 H1639 0.960 . S
C1652 C1651 1.524 . S
C1653 C1650 1.403 . S
C1653 C1654 1.392 . S
C1653 C1657 1.495 . S
C1654 C1653 1.392 . S
C1654 C1655 1.385 . S
C1654 C1656 1.478 . S
C1655 H1649 0.930 . S
C1655 C1651 1.400 . S
C1655 C1654 1.385 . S
C1656 C1654 1.478 . S
C1656 C1658 1.381 . S
C1656 C1662 1.383 . S
C1657 C1653 1.495 . S
C1657 H1663 0.959 . S
C1657 H1664 0.961 . S
C1657 H1665 0.960 . S
C1658 C1656 1.381 . S
C1658 C1659 1.394 . S
C1658 H1666 0.930 . S
C1659 C1658 1.394 . S
C1659 C1660 1.383 . S
C1659 H1667 0.929 . S
C1660 C1659 1.383 . S
C1660 C1661 1.377 . S
C1661 H1645 0.930 . S
C1661 C1660 1.377 . S
C1661 C1662 1.379 . S
C1662 H1646 0.931 . S
C1662 C1656 1.383 . S
C1662 C1661 1.379 . S
H1663 C1657 0.959 . S
H1664 C1657 0.961 . S
H1665 C1657 0.960 . S
H1666 C1658 0.930 . S
H1667 C1659 0.929 . S
H1668 C1676 0.929 . S
H1669 C1678 0.930 . S
H1670 C1680 0.930 . S
H1671 C1683 0.929 . S
H1672 C1686 0.930 . S
H1673 C1688 0.960 . S
H1674 C1688 0.960 . S
H1675 C1688 0.960 . S
C1676 H1668 0.929 . S
C1676 C1677 1.377 . S
C1676 C1678 1.384 . S
C1677 C1676 1.377 . S
C1677 C1683 1.390 . S
C1678 H1669 0.930 . S
C1678 C1676 1.384 . S
C1678 C1679 1.372 . S
C1679 C1678 1.372 . S
C1679 C1680 1.400 . S
C1679 C1684 1.490 . S
C1680 H1670 0.930 . S
C1680 C1679 1.400 . S
C1680 C1683 1.386 . S
H1681 C1697 0.930 . S
H1682 C1698 0.931 . S
C1683 H1671 0.929 . S
C1683 C1677 1.390 . S
C1683 C1680 1.386 . S
C1684 C1679 1.490 . S
C1684 C1686 1.395 . S
C1684 C1687 1.403 . S
H1685 C1691 0.930 . S
C1686 H1672 0.930 . S
C1686 C1684 1.395 . S
C1686 C1689 1.403 . S
C1687 C1684 1.403 . S
C1687 C1688 1.524 . S
C1687 C1691 1.400 . S
C1688 H1673 0.960 . S
C1688 H1674 0.960 . S
C1688 H1675 0.960 . S
C1688 C1687 1.524 . S
C1689 C1686 1.403 . S
C1689 C1690 1.392 . S
C1689 C1693 1.495 . S
C1690 C1689 1.392 . S
C1690 C1691 1.385 . S
C1690 C1692 1.478 . S
C1691 H1685 0.930 . S
C1691 C1687 1.400 . S
C1691 C1690 1.385 . S
C1692 C1690 1.478 . S
C1692 C1694 1.381 . S
C1692 C1698 1.383 . S
C1693 C1689 1.495 . S
C1693 H1699 0.959 . S
C1693 H1700 0.961 . S
C1693 H1701 0.960 . S
C1694 C1692 1.381 . S
C1694 C1695 1.394 . S
C1694 H1702 0.930 . S
C1695 C1694 1.394 . S
C1695 C1696 1.383 . S
C1695 H1703 0.929 . S
C1696 C1695 1.383 . S
C1696 C1697 1.377 . S
C1697 H1681 0.930 . S
C1697 C1696 1.377 . S
C1697 C1698 1.379 . S
C1698 H1682 0.931 . S
C1698 C1692 1.383 . S
C1698 C1697 1.379 . S
H1699 C1693 0.959 . S
H1700 C1693 0.961 . S
H1701 C1693 0.960 . S
H1702 C1694 0.930 . S
H1703 C1695 0.929 . S
H1704 C1712 0.929 . S
H1705 C1714 0.930 . S
H1706 C1716 0.930 . S
H1707 C1719 0.929 . S
H1708 C1722 0.930 . S
H1709 C1724 0.960 . S
H1710 C1724 0.960 . S
H1711 C1724 0.960 . S
C1712 H1704 0.929 . S
C1712 C1713 1.377 . S
C1712 C1714 1.384 . S
C1713 C1712 1.377 . S
C1713 C1719 1.390 . S
C1714 H1705 0.930 . S
C1714 C1712 1.384 . S
C1714 C1715 1.372 . S
C1715 C1714 1.372 . S
C1715 C1716 1.400 . S
C1715 C1720 1.490 . S
C1716 H1706 0.930 . S
C1716 C1715 1.400 . S
C1716 C1719 1.386 . S
H1717 C1733 0.930 . S
H1718 C1734 0.931 . S
C1719 H1707 0.929 . S
C1719 C1713 1.390 . S
C1719 C1716 1.386 . S
C1720 C1715 1.490 . S
C1720 C1722 1.395 . S
C1720 C1723 1.403 . S
H1721 C1727 0.930 . S
C1722 H1708 0.930 . S
C1722 C1720 1.395 . S
C1722 C1725 1.403 . S
C1723 C1720 1.403 . S
C1723 C1724 1.524 . S
C1723 C1727 1.400 . S
C1724 H1709 0.960 . S
C1724 H1710 0.960 . S
C1724 H1711 0.960 . S
C1724 C1723 1.524 . S
C1725 C1722 1.403 . S
C1725 C1726 1.392 . S
C1725 C1729 1.495 . S
C1726 C1725 1.392 . S
C1726 C1727 1.385 . S
C1726 C1728 1.478 . S
C1727 H1721 0.930 . S
C1727 C1723 1.400 . S
C1727 C1726 1.385 . S
C1728 C1726 1.478 . S
C1728 C1730 1.381 . S
C1728 C1734 1.383 . S
C1729 C1725 1.495 . S
C1729 H1735 0.959 . S
C1729 H1736 0.961 . S
C1729 H1737 0.960 . S
C1730 C1728 1.381 . S
C1730 C1731 1.394 . S
C1730 H1738 0.930 . S
C1731 C1730 1.394 . S
C1731 C1732 1.383 . S
C1731 H1739 0.929 . S
C1732 C1731 1.383 . S
C1732 C1733 1.377 . S
C1733 H1717 0.930 . S
C1733 C1732 1.377 . S
C1733 C1734 1.379 . S
C1734 H1718 0.931 . S
C1734 C1728 1.383 . S
C1734 C1733 1.379 . S
H1735 C1729 0.959 . S
H1736 C1729 0.961 . S
H1737 C1729 0.960 . S
H1738 C1730 0.930 . S
H1739 C1731 0.929 . S
H1740 C1748 0.929 . S
H1741 C1750 0.930 . S
H1742 C1752 0.930 . S
H1743 C1755 0.929 . S
H1744 C1758 0.930 . S
H1745 C1760 0.960 . S
H1746 C1760 0.960 . S
H1747 C1760 0.960 . S
C1748 H1740 0.929 . S
C1748 C1749 1.377 . S
C1748 C1750 1.384 . S
C1749 C1748 1.377 . S
C1749 C1755 1.390 . S
C1750 H1741 0.930 . S
C1750 C1748 1.384 . S
C1750 C1751 1.372 . S
C1751 C1750 1.372 . S
C1751 C1752 1.400 . S
C1751 C1756 1.490 . S
C1752 H1742 0.930 . S
C1752 C1751 1.400 . S
C1752 C1755 1.386 . S
H1753 C1769 0.930 . S
H1754 C1770 0.931 1_655 S
C1755 H1743 0.929 . S
C1755 C1749 1.390 . S
C1755 C1752 1.386 . S
C1756 C1751 1.490 . S
C1756 C1758 1.395 . S
C1756 C1759 1.403 . S
H1757 C1763 0.930 . S
C1758 H1744 0.930 . S
C1758 C1756 1.395 . S
C1758 C1761 1.403 . S
C1759 C1756 1.403 . S
C1759 C1760 1.524 . S
C1759 C1763 1.400 . S
C1760 H1745 0.960 . S
C1760 H1746 0.960 . S
C1760 H1747 0.960 . S
C1760 C1759 1.524 . S
C1761 C1758 1.403 . S
C1761 C1762 1.392 . S
C1761 C1765 1.496 . S
C1762 C1761 1.392 . S
C1762 C1763 1.385 . S
C1762 C1764 1.478 1_655 S
C1763 H1757 0.930 . S
C1763 C1759 1.400 . S
C1763 C1762 1.385 . S
C1764 C1762 1.478 1_455 S
C1764 C1766 1.381 . S
C1764 C1770 1.383 . S
C1765 C1761 1.496 . S
C1765 H1771 0.960 . S
C1765 H1772 0.961 1_655 S
C1765 H1773 0.959 1_655 S
C1766 C1764 1.381 . S
C1766 C1767 1.394 . S
C1766 H1774 0.930 . S
C1767 C1766 1.394 . S
C1767 C1768 1.383 . S
C1767 H1775 0.929 . S
C1768 C1767 1.383 . S
C1768 C1769 1.377 . S
C1769 H1753 0.930 . S
C1769 C1768 1.377 . S
C1769 C1770 1.379 . S
C1770 H1754 0.931 1_455 S
C1770 C1764 1.383 . S
C1770 C1769 1.379 . S
H1771 C1765 0.960 . S
H1772 C1765 0.961 1_455 S
H1773 C1765 0.959 1_455 S
H1774 C1766 0.930 . S
H1775 C1767 0.929 . S
C489 C11 1.121 . S
C508 C459 1.154 . S
C525 C371 1.788 1_565 S
C544 C59 1.843 . S
C561 C91 1.148 . S
C580 C339 1.184 . S
C597 C139 1.908 . S
C616 C419 1.906 . S
C633 C179 1.754 . S
C652 C411 1.687 . S
C669 C211 1.405 . S
C688 C451 1.435 . S
C705 C379 1.805 . S
C724 C259 1.816 . S
C741 C291 1.490 . S
C760 C331 1.535 . S
C777 C131 1.561 . S
C796 C171 1.553 . S
C813 C19 1.386 . S
C832 C219 1.398 . S
C849 C51 1.556 1_655 S
C868 C251 1.591 . S
C885 C299 1.728 . S
C904 C99 1.739 . S
C921 C16 1.801 . S
C940 C330 1.791 . S
C957 C47 1.211 . S
C976 C410 1.203 . S
C993 C450 1.827 . S
C1012 C96 1.846 . S
C1029 C127 1.537 . S
C1048 C362 1.534 . S
C1065 C167 1.074 . S
C1084 C370 1.013 . S
C1101 C322 2.068 . S
C1120 C216 1.982 . S
C1137 C402 1.392 . S
C1156 C247 1.402 . S
C1173 C442 2.142 . S
C1192 C296 2.045 . S
C1209 C10 2.375 . S
C1228 C136 2.389 . S
C1245 C7 1.768 . S
C1264 C42 1.739 . S
C1281 C56 2.123 . S
C1300 C90 2.140 . S
C1317 C122 1.609 . S
C1336 C87 1.623 . S
C1353 C207 1.492 . S
C1372 C162 1.451 . S
C1389 C210 1.131 . S
C1408 C256 1.128 . S
C1425 C242 1.379 . S
C1444 C287 1.392 . S
C1461 C176 0.899 . S
C1480 C290 0.938 . S
C1497 C336 1.308 . S
C1516 C130 1.258 . S
C1533 C202 2.079 . S
C1552 C376 1.995 . S
C1569 C327 1.309 . S
C1588 C250 1.220 . S
C1605 C407 1.852 . S
C1624 C282 1.839 . S
C1641 C170 1.212 . S
C1660 C447 1.259 . S
C1677 C456 1.263 . S
C1696 C50 1.216 . S
C1713 C82 1.684 . S
C1732 C367 1.687 . S
C1749 C416 1.899 . S
C1768 C2 1.969 . S
