# Generated by pormake.
# Topology neb, (4)-cn, num edge types: 1
# Building blocks:
#     Node 0, Type 0, BuildingBlock: ICAMEG_clean_sbu_1, # of connection points: 4
#     Node 1, Type 0, BuildingBlock: ICAMEG_clean_sbu_1, # of connection points: 4
#     Node 2, Type 0, BuildingBlock: ICAMEG_clean_sbu_1, # of connection points: 4
#     Node 3, Type 0, BuildingBlock: ICAMEG_clean_sbu_1, # of connection points: 4
#     Node 4, Type 0, BuildingBlock: ICAMEG_clean_sbu_1, # of connection points: 4
#     Node 5, Type 0, BuildingBlock: ICAMEG_clean_sbu_1, # of connection points: 4
#     Node 6, Type 0, BuildingBlock: ICAMEG_clean_sbu_1, # of connection points: 4
#     Node 7, Type 0, BuildingBlock: ICAMEG_clean_sbu_1, # of connection points: 4
#     Node 8, Type 0, BuildingBlock: ICAMEG_clean_sbu_1, # of connection points: 4
#     Node 9, Type 0, BuildingBlock: ICAMEG_clean_sbu_1, # of connection points: 4
#     Node 10, Type 0, BuildingBlock: ICAMEG_clean_sbu_1, # of connection points: 4
#     Node 11, Type 0, BuildingBlock: ICAMEG_clean_sbu_1, # of connection points: 4
#     Node 12, Type 0, BuildingBlock: ICAMEG_clean_sbu_1, # of connection points: 4
#     Node 13, Type 0, BuildingBlock: ICAMEG_clean_sbu_1, # of connection points: 4
#     Node 14, Type 0, BuildingBlock: ICAMEG_clean_sbu_1, # of connection points: 4
#     Node 15, Type 0, BuildingBlock: ICAMEG_clean_sbu_1, # of connection points: 4
#     Edge 16, Type (0, 0), BuildingBlock: ZUJKAS_clean_linker_0, # of connection points: 2
#     Edge 17, Type (0, 0), BuildingBlock: ZUJKAS_clean_linker_0, # of connection points: 2
#     Edge 18, Type (0, 0), BuildingBlock: ZUJKAS_clean_linker_0, # of connection points: 2
#     Edge 19, Type (0, 0), BuildingBlock: ZUJKAS_clean_linker_0, # of connection points: 2
#     Edge 20, Type (0, 0), BuildingBlock: ZUJKAS_clean_linker_0, # of connection points: 2
#     Edge 21, Type (0, 0), BuildingBlock: ZUJKAS_clean_linker_0, # of connection points: 2
#     Edge 22, Type (0, 0), BuildingBlock: ZUJKAS_clean_linker_0, # of connection points: 2
#     Edge 23, Type (0, 0), BuildingBlock: ZUJKAS_clean_linker_0, # of connection points: 2
#     Edge 24, Type (0, 0), BuildingBlock: ZUJKAS_clean_linker_0, # of connection points: 2
#     Edge 25, Type (0, 0), BuildingBlock: ZUJKAS_clean_linker_0, # of connection points: 2
#     Edge 26, Type (0, 0), BuildingBlock: ZUJKAS_clean_linker_0, # of connection points: 2
#     Edge 27, Type (0, 0), BuildingBlock: ZUJKAS_clean_linker_0, # of connection points: 2
#     Edge 28, Type (0, 0), BuildingBlock: ZUJKAS_clean_linker_0, # of connection points: 2
#     Edge 29, Type (0, 0), BuildingBlock: ZUJKAS_clean_linker_0, # of connection points: 2
#     Edge 30, Type (0, 0), BuildingBlock: ZUJKAS_clean_linker_0, # of connection points: 2
#     Edge 31, Type (0, 0), BuildingBlock: ZUJKAS_clean_linker_0, # of connection points: 2
#     Edge 32, Type (0, 0), BuildingBlock: ZUJKAS_clean_linker_0, # of connection points: 2
#     Edge 33, Type (0, 0), BuildingBlock: ZUJKAS_clean_linker_0, # of connection points: 2
#     Edge 34, Type (0, 0), BuildingBlock: ZUJKAS_clean_linker_0, # of connection points: 2
#     Edge 35, Type (0, 0), BuildingBlock: ZUJKAS_clean_linker_0, # of connection points: 2
#     Edge 36, Type (0, 0), BuildingBlock: ZUJKAS_clean_linker_0, # of connection points: 2
#     Edge 37, Type (0, 0), BuildingBlock: ZUJKAS_clean_linker_0, # of connection points: 2
#     Edge 38, Type (0, 0), BuildingBlock: ZUJKAS_clean_linker_0, # of connection points: 2
#     Edge 39, Type (0, 0), BuildingBlock: ZUJKAS_clean_linker_0, # of connection points: 2
#     Edge 40, Type (0, 0), BuildingBlock: ZUJKAS_clean_linker_0, # of connection points: 2
#     Edge 41, Type (0, 0), BuildingBlock: ZUJKAS_clean_linker_0, # of connection points: 2
#     Edge 42, Type (0, 0), BuildingBlock: ZUJKAS_clean_linker_0, # of connection points: 2
#     Edge 43, Type (0, 0), BuildingBlock: ZUJKAS_clean_linker_0, # of connection points: 2
#     Edge 44, Type (0, 0), BuildingBlock: ZUJKAS_clean_linker_0, # of connection points: 2
#     Edge 45, Type (0, 0), BuildingBlock: ZUJKAS_clean_linker_0, # of connection points: 2
#     Edge 46, Type (0, 0), BuildingBlock: ZUJKAS_clean_linker_0, # of connection points: 2
#     Edge 47, Type (0, 0), BuildingBlock: ZUJKAS_clean_linker_0, # of connection points: 2
# Relax obj value: 0.005
# Max RMSD: 0.058
# Mean RMSD: 0.058
data_MOF--net-neb--node1-ICAMEG_clean_sbu_1--edge1-ZUJKAS_clean_linker_0
_symmetry_space_group_name_H-M    P1
_symmetry_Int_Tables_number       1
_symmetry_cell_setting            triclinic
loop_
_symmetry_equiv_pos_as_xyz
'x, y, z'
_cell_length_a     52.861773
_cell_length_b     31.447569
_cell_length_c     105.62441
_cell_angle_alpha  89.966001
_cell_angle_beta   100.62972
_cell_angle_gamma 89.980632
loop_
_atom_site_label
_atom_site_type_symbol
_atom_site_fract_x
_atom_site_fract_y
_atom_site_fract_z
_atom_type_partial_charge
Co0 Co 0.15258 0.08905 0.43559 0.0
Co1 Co 0.10349 0.14722 0.4439 0.0
O2 O 0.118 0.09312 0.4396 0.0
C3 C 0.1222 0.03986 0.41357 0.0
O4 O 0.10728 0.07295 0.41024 0.0
C5 C 0.09319 0.09087 0.46514 0.0
O6 O 0.11753 0.07957 0.4673 0.0
O7 O 0.13382 0.15711 0.45794 0.0
O8 O 0.16573 0.13487 0.44822 0.0
H9 H 0.10627 0.3028 0.45486 0.0
H10 H 0.12665 0.01194 0.44313 0.0
O11 O 0.1407 0.04197 0.42315 0.0
H12 H 0.20704 0.02437 0.47509 0.0
H13 H 0.22937 0.01045 0.42536 0.0
H14 H 0.19206 0.15135 0.43103 0.0
H15 H 0.19666 0.07645 0.45744 0.0
H16 H 0.18622 0.01662 0.43094 0.0
O17 O 0.0848 0.11732 0.45621 0.0
H18 H 0.12402 0.23447 0.44907 0.0
H19 H 0.05183 0.17446 0.44848 0.0
H20 H 0.23533 0.14661 0.42555 0.0
H21 H 0.13641 0.95889 0.46055 0.0
H22 H 0.25427 0.07576 0.42268 0.0
H23 H 0.17683 0.96499 0.47671 0.0
O24 O 0.14393 0.13293 0.42176 0.0
H25 H 0.03274 0.05964 0.41814 0.0
H26 H 0.07504 0.19994 0.42233 0.0
H27 H 0.03864 0.18722 0.40449 0.0
H28 H 0.01718 0.11665 0.40233 0.0
H29 H 0.06937 0.07366 0.43578 0.0
H30 H 0.03337 0.24206 0.45436 0.0
H31 H 0.06063 0.30689 0.45754 0.0
O32 O 0.1212 0.17866 0.43152 0.0
C33 C 0.15765 0.15472 0.45723 0.0
C34 C 0.09418 0.2748 0.45347 0.0
C35 C 0.05327 0.24069 0.45321 0.0
N36 N 0.08894 0.20058 0.44836 0.0
C37 C 0.1041 0.23604 0.45016 0.0
C38 C 0.06386 0.20248 0.44991 0.0
C39 C 0.06857 0.27706 0.45498 0.0
C40 C 0.14438 0.01461 0.45006 0.0
N41 N 0.1611 0.04719 0.44923 0.0
C42 C 0.14976 0.98455 0.45993 0.0
C43 C 0.17242 0.98803 0.469 0.0
C44 C 0.18937 0.02136 0.4681 0.0
C45 C 0.18335 0.05083 0.45811 0.0
C46 C 0.22134 0.0415 0.4266 0.0
C47 C 0.20021 0.1204 0.42986 0.0
C48 C 0.19689 0.04521 0.42973 0.0
N49 N 0.18668 0.08432 0.43139 0.0
C50 C 0.2247 0.11792 0.42673 0.0
C51 C 0.23531 0.07816 0.4251 0.0
C52 C 0.13387 0.1695 0.4227 0.0
C53 C 0.04189 0.09055 0.419 0.0
C54 C 0.06589 0.16911 0.42143 0.0
C55 C 0.04523 0.16212 0.41132 0.0
C56 C 0.03319 0.12253 0.41012 0.0
N57 N 0.07428 0.13762 0.43011 0.0
C58 C 0.06259 0.09871 0.42899 0.0
Co59 Co 0.10701 0.08683 0.82141 0.0
Co60 Co 0.15688 0.14293 0.81289 0.0
O61 O 0.14168 0.08947 0.81735 0.0
C62 C 0.13864 0.03695 0.84278 0.0
O63 O 0.15632 0.06674 0.84408 0.0
C64 C 0.16632 0.08574 0.79164 0.0
O65 O 0.14191 0.07488 0.78956 0.0
O66 O 0.12659 0.15376 0.79889 0.0
O67 O 0.09438 0.13199 0.80846 0.0
H68 H 0.15604 0.29828 0.80167 0.0
H69 H 0.13223 0.00818 0.81453 0.0
O70 O 0.11819 0.04074 0.83435 0.0
H71 H 0.05227 0.0208 0.78227 0.0
H72 H 0.02912 0.01213 0.83187 0.0
H73 H 0.06828 0.15104 0.82559 0.0
H74 H 0.06298 0.074 0.79955 0.0
H75 H 0.07237 0.01614 0.82632 0.0
O76 O 0.17498 0.11211 0.80053 0.0
H77 H 0.13747 0.23084 0.8076 0.0
H78 H 0.20882 0.16801 0.80816 0.0
H79 H 0.02491 0.14848 0.83104 0.0
H80 H 0.12214 0.95401 0.79747 0.0
H81 H 1.00504 0.07864 0.83422 0.0
H82 H 0.08193 0.96019 0.78116 0.0
O83 O 0.11606 0.13129 0.83499 0.0
H84 H 0.22732 0.05357 0.83824 0.0
H85 H 0.18606 0.19478 0.83445 0.0
H86 H 0.22262 0.18108 0.85213 0.0
H87 H 0.24356 0.11005 0.8541 0.0
H88 H 0.19048 0.06852 0.82079 0.0
H89 H 0.22809 0.23469 0.80213 0.0
H90 H 0.20167 0.30049 0.79889 0.0
O91 O 0.13979 0.17545 0.82527 0.0
C92 C 0.10272 0.15178 0.79952 0.0
C93 C 0.16777 0.26985 0.80308 0.0
C94 C 0.2082 0.23415 0.80333 0.0
N95 N 0.17208 0.19558 0.8083 0.0
C96 C 0.15738 0.23158 0.80647 0.0
C97 C 0.19715 0.19645 0.80671 0.0
C98 C 0.19337 0.27106 0.80152 0.0
C99 C 0.11459 0.01089 0.80753 0.0
N100 N 0.09817 0.04412 0.80808 0.0
C101 C 0.10902 0.9802 0.79787 0.0
C102 C 0.08648 0.98372 0.78871 0.0
C103 C 0.06984 0.01773 0.78932 0.0
C104 C 0.07605 0.04784 0.79912 0.0
C105 C 0.03756 0.04275 0.8305 0.0
C106 C 0.05973 0.12051 0.82691 0.0
C107 C 0.06208 0.04523 0.82739 0.0
N108 N 0.07281 0.08378 0.82558 0.0
C109 C 0.03518 0.11927 0.83001 0.0
C110 C 0.02406 0.08008 0.83181 0.0
C111 C 0.12678 0.16724 0.83403 0.0
C112 C 0.21839 0.08467 0.83748 0.0
C113 C 0.19493 0.16373 0.83528 0.0
C114 C 0.21571 0.15619 0.84529 0.0
C115 C 0.22747 0.11635 0.84638 0.0
N116 N 0.18614 0.13249 0.82659 0.0
C117 C 0.19759 0.09337 0.82758 0.0
Co118 Co 0.85668 0.92639 0.57194 0.0
Co119 Co 0.9063 0.86996 0.5633 0.0
O120 O 0.89132 0.92347 0.56786 0.0
C121 C 0.88863 0.9759 0.59326 0.0
O122 O 0.90619 0.94588 0.59453 0.0
C123 C 0.91588 0.92759 0.54218 0.0
O124 O 0.89149 0.9386 0.54013 0.0
O125 O 0.87597 0.85973 0.5493 0.0
O126 O 0.84385 0.88151 0.55894 0.0
H127 H 0.90488 0.71483 0.55183 0.0
H128 H 0.88215 1.00486 0.5651 0.0
O129 O 0.86807 0.97227 0.5849 0.0
H130 H 0.80205 0.99347 0.5329 0.0
H131 H 0.77911 1.00174 0.58254 0.0
H132 H 0.81773 0.86253 0.57607 0.0
H133 H 0.81263 0.93996 0.55013 0.0
H134 H 0.82232 0.99737 0.57696 0.0
O135 O 0.9245 0.9009 0.55099 0.0
H136 H 0.88657 0.78234 0.55788 0.0
H137 H 0.95812 0.84448 0.5585 0.0
H138 H 0.7744 0.86545 0.58154 0.0
H139 H 0.8722 0.05934 0.5481 0.0
H140 H 0.7548 0.93545 0.58482 0.0
H141 H 0.83193 0.05377 0.53182 0.0
O142 O 0.86562 0.88166 0.58546 0.0
H143 H 0.97718 0.95802 0.58878 0.0
H144 H 0.93525 0.8174 0.58478 0.0
H145 H 0.97191 0.83034 0.60247 0.0
H146 H 0.99318 0.90106 0.60453 0.0
H147 H 0.94025 0.94383 0.57132 0.0
H148 H 0.97714 0.77772 0.55235 0.0
H149 H 0.95049 0.71223 0.54902 0.0
O150 O 0.88909 0.83736 0.57564 0.0
C151 C 0.85211 0.86187 0.54995 0.0
C152 C 0.91671 0.74313 0.55328 0.0
C153 C 0.95726 0.77844 0.55356 0.0
N154 N 0.9213 0.81726 0.55862 0.0
C155 C 0.90647 0.78143 0.55674 0.0
C156 C 0.94636 0.81618 0.55701 0.0
C157 C 0.9423 0.7417 0.5517 0.0
C158 C 0.86448 1.00243 0.55812 0.0
N159 N 0.84795 0.96936 0.55865 0.0
C160 C 0.859 0.03328 0.54849 0.0
C161 C 0.83642 0.0301 0.53935 0.0
C162 C 0.81965 0.99627 0.53994 0.0
C163 C 0.82578 0.96599 0.5497 0.0
C164 C 0.78743 0.97105 0.58113 0.0
C165 C 0.80931 0.89312 0.57743 0.0
C166 C 0.81193 0.96837 0.578 0.0
N167 N 0.82251 0.92973 0.57614 0.0
C168 C 0.78477 0.89457 0.58055 0.0
C169 C 0.7738 0.93385 0.5824 0.0
C170 C 0.87615 0.84557 0.58443 0.0
C171 C 0.96811 0.92704 0.58796 0.0
C172 C 0.94428 0.84833 0.58566 0.0
C173 C 0.9651 0.85542 0.59567 0.0
C174 C 0.97705 0.89509 0.59681 0.0
N175 N 0.93562 0.87982 0.57701 0.0
C176 C 0.94725 0.91877 0.57807 0.0
Co177 Co 0.90405 0.92651 0.18517 0.0
Co178 Co 0.85409 0.87038 0.19356 0.0
O179 O 0.86933 0.92384 0.18916 0.0
C180 C 0.87253 0.97653 0.16381 0.0
O181 O 0.85502 0.94644 0.16237 0.0
C182 C 0.84452 0.92735 0.21482 0.0
O183 O 0.86898 0.93787 0.21701 0.0
O184 O 0.88427 0.85956 0.20761 0.0
O185 O 0.91659 0.88121 0.1981 0.0
H186 H 0.85481 0.71499 0.20473 0.0
H187 H 0.87879 1.00508 0.1921 0.0
O188 O 0.89292 0.97279 0.17229 0.0
H189 H 0.95861 0.99212 0.22444 0.0
H190 H 0.98204 1.00137 0.17489 0.0
H191 H 0.94283 0.86238 0.18101 0.0
H192 H 0.94797 0.93912 0.20709 0.0
H193 H 0.93872 0.99728 0.18036 0.0
O194 O 0.83585 0.90122 0.20586 0.0
H195 H 0.87346 0.78246 0.19886 0.0
H196 H 0.80207 0.84529 0.19817 0.0
H197 H 0.98627 0.86502 0.17565 0.0
H198 H 0.8888 0.05905 0.20923 0.0
H199 H 0.00616 0.93491 0.17255 0.0
H200 H 0.92894 0.05269 0.22557 0.0
O201 O 0.89507 0.88217 0.17155 0.0
H202 H 0.78382 0.95971 0.16806 0.0
H203 H 0.82515 0.81855 0.17193 0.0
H204 H 0.78872 0.83225 0.15417 0.0
H205 H 0.76775 0.90325 0.15217 0.0
H206 H 0.8205 0.94477 0.18559 0.0
H207 H 0.78272 0.77859 0.20413 0.0
H208 H 0.80912 0.71278 0.2074 0.0
O209 O 0.87133 0.83788 0.18122 0.0
C210 C 0.90815 0.86149 0.20702 0.0
C211 C 0.84309 0.74343 0.2033 0.0
C212 C 0.80264 0.77914 0.20298 0.0
N213 N 0.83883 0.81772 0.19809 0.0
C214 C 0.85353 0.78171 0.19994 0.0
C215 C 0.81373 0.81685 0.19963 0.0
C216 C 0.81746 0.74222 0.20481 0.0
C217 C 0.8964 1.0023 0.19911 0.0
N218 N 0.91282 0.96908 0.19855 0.0
C219 C 0.90192 0.03287 0.20882 0.0
C220 C 0.92442 0.02925 0.21799 0.0
C221 C 0.94107 0.99526 0.21737 0.0
C222 C 0.93491 0.96527 0.20754 0.0
C223 C 0.97359 0.97073 0.17623 0.0
C224 C 0.95139 0.89292 0.17973 0.0
C225 C 0.94903 0.96821 0.17929 0.0
N226 N 0.93829 0.92962 0.18106 0.0
C227 C 0.97598 0.89421 0.17667 0.0
C228 C 0.98712 0.93343 0.17492 0.0
C229 C 0.8844 0.84615 0.17249 0.0
C230 C 0.79276 0.92862 0.16884 0.0
C231 C 0.81624 0.84959 0.17108 0.0
C232 C 0.79555 0.85712 0.16103 0.0
C233 C 0.78378 0.89695 0.15992 0.0
N234 N 0.82494 0.88081 0.1798 0.0
C235 C 0.81347 0.91992 0.17878 0.0
Co236 Co 0.15302 0.58666 0.93457 0.0
Co237 Co 0.10272 0.64227 0.94286 0.0
O238 O 0.11822 0.58902 0.93847 0.0
C239 C 0.12171 0.53696 0.91311 0.0
O240 O 0.10396 0.56666 0.91183 0.0
C241 C 0.09347 0.58515 0.96414 0.0
O242 O 0.11797 0.57481 0.96627 0.0
O243 O 0.13279 0.65331 0.95694 0.0
O244 O 0.16535 0.63165 0.9476 0.0
H245 H 0.10271 0.79756 0.95403 0.0
H246 H 0.12781 0.50774 0.94127 0.0
O247 O 0.14213 0.54073 0.92156 0.0
H248 H 0.20729 0.52037 0.97385 0.0
H249 H 0.23137 0.51254 0.9244 0.0
H250 H 0.19177 0.65114 0.93064 0.0
H251 H 0.19676 0.57374 0.95657 0.0
H252 H 0.18793 0.51623 0.92974 0.0
O253 O 0.08462 0.61117 0.95517 0.0
H254 H 0.12168 0.73036 0.94818 0.0
H255 H 0.05056 0.66671 0.94743 0.0
H256 H 0.23532 0.64889 0.92541 0.0
H257 H 0.13772 0.4534 0.95831 0.0
H258 H 0.25541 0.57921 0.92224 0.0
H259 H 0.17768 0.4596 0.97478 0.0
O260 O 0.14412 0.63127 0.92101 0.0
H261 H 0.03286 0.55232 0.91737 0.0
H262 H 0.0736 0.69389 0.9212 0.0
H263 H 0.03727 0.67988 0.90343 0.0
H264 H 0.0166 0.60868 0.90144 0.0
H265 H 0.06945 0.56758 0.93491 0.0
H266 H 0.03088 0.73314 0.95338 0.0
H267 H 0.05699 0.79923 0.95667 0.0
O268 O 0.11985 0.67505 0.93054 0.0
C269 C 0.15672 0.65129 0.95648 0.0
C270 C 0.09112 0.769 0.95259 0.0
C271 C 0.05082 0.73283 0.95224 0.0
N272 N 0.08721 0.69471 0.94738 0.0
C273 C 0.10174 0.73087 0.94924 0.0
C274 C 0.06209 0.69528 0.9489 0.0
C275 C 0.06547 0.7699 0.95408 0.0
C276 C 0.14535 0.51045 0.94833 0.0
N277 N 0.16173 0.54378 0.94788 0.0
C278 C 0.15081 0.47967 0.95799 0.0
C279 C 0.17322 0.4832 0.96723 0.0
C280 C 0.18983 0.5173 0.96672 0.0
C281 C 0.18373 0.54749 0.95693 0.0
C282 C 0.22283 0.5431 0.92576 0.0
C283 C 0.20042 0.62068 0.92933 0.0
C284 C 0.19821 0.54539 0.92875 0.0
N285 N 0.18736 0.58386 0.93056 0.0
C286 C 0.22507 0.61962 0.92634 0.0
C287 C 0.23631 0.58051 0.92456 0.0
C288 C 0.13316 0.66708 0.92189 0.0
C289 C 0.04167 0.5835 0.91814 0.0
C290 C 0.06483 0.66276 0.92036 0.0
C291 C 0.04419 0.65505 0.9103 0.0
C292 C 0.03258 0.61511 0.9092 0.0
N293 N 0.07364 0.63159 0.92909 0.0
C294 C 0.06233 0.59238 0.92809 0.0
Co295 Co 0.10707 0.58817 0.32249 0.0
Co296 Co 0.15596 0.64397 0.31313 0.0
O297 O 0.14149 0.59055 0.31812 0.0
C298 C 0.13933 0.53811 0.34367 0.0
O299 O 0.15712 0.5677 0.34482 0.0
C300 C 0.16615 0.58564 0.29228 0.0
O301 O 0.14178 0.57453 0.29008 0.0
O302 O 0.1255 0.65234 0.29909 0.0
O303 O 0.09395 0.63307 0.30946 0.0
H304 H 0.15286 0.79791 0.30015 0.0
H305 H 0.13194 0.5094 0.31544 0.0
O306 O 0.11862 0.54222 0.33544 0.0
H307 H 0.05083 0.52115 0.28396 0.0
H308 H 0.02973 0.51429 0.33388 0.0
H309 H 0.06876 0.65274 0.32692 0.0
H310 H 0.06222 0.57474 0.30108 0.0
H311 H 0.07262 0.51784 0.3279 0.0
O312 O 0.17451 0.61241 0.3011 0.0
H313 H 0.13527 0.73064 0.30684 0.0
H314 H 0.20755 0.67007 0.30816 0.0
H315 H 0.02574 0.65064 0.33279 0.0
H316 H 0.12118 0.45482 0.29855 0.0
H317 H 0.00594 0.58103 0.33631 0.0
H318 H 0.08039 0.46058 0.28263 0.0
O319 O 0.11678 0.63296 0.33592 0.0
H320 H 0.22791 0.55978 0.33935 0.0
H321 H 0.18414 0.69891 0.33418 0.0
H322 H 0.22093 0.6883 0.35197 0.0
H323 H 0.24314 0.61836 0.35463 0.0
H324 H 0.19082 0.57162 0.32177 0.0
H325 H 0.22586 0.73661 0.30139 0.0
H326 H 0.19848 0.80119 0.29739 0.0
O327 O 0.13844 0.67732 0.32518 0.0
C328 C 0.1018 0.6511 0.30007 0.0
C329 C 0.16501 0.77001 0.3019 0.0
C330 C 0.20597 0.7356 0.30258 0.0
N331 N 0.1704 0.69653 0.30797 0.0
C332 C 0.15517 0.73185 0.30571 0.0
C333 C 0.19547 0.69798 0.30638 0.0
C334 C 0.1906 0.77182 0.30034 0.0
C335 C 0.11406 0.51193 0.30862 0.0
N336 N 0.09769 0.54514 0.30929 0.0
C337 C 0.10811 0.48101 0.29904 0.0
C338 C 0.08524 0.48429 0.29011 0.0
C339 C 0.06865 0.51828 0.29084 0.0
C340 C 0.07524 0.54861 0.30054 0.0
C341 C 0.03814 0.54481 0.33236 0.0
C342 C 0.06024 0.62232 0.32839 0.0
C343 C 0.06246 0.54703 0.32901 0.0
N344 N 0.07315 0.58546 0.32701 0.0
C345 C 0.03589 0.62133 0.33173 0.0
C346 C 0.0248 0.58227 0.33372 0.0
C347 C 0.12658 0.66931 0.3344 0.0
C348 C 0.21844 0.59044 0.33827 0.0
C349 C 0.19359 0.6683 0.33531 0.0
C350 C 0.21448 0.66253 0.34538 0.0
C351 C 0.22695 0.62329 0.34685 0.0
N352 N 0.18537 0.63592 0.32692 0.0
C353 C 0.19749 0.59738 0.32831 0.0
Co354 Co 0.85825 0.42667 0.0724 0.0
Co355 Co 0.90854 0.37058 0.06427 0.0
O356 O 0.89305 0.424 0.06853 0.0
C357 C 0.88955 0.47662 0.0938 0.0
O358 O 0.90711 0.44659 0.09525 0.0
C359 C 0.91782 0.42716 0.04288 0.0
O360 O 0.89333 0.43754 0.04073 0.0
O361 O 0.87847 0.35921 0.05021 0.0
O362 O 0.84589 0.38142 0.05945 0.0
H363 H 0.90851 0.21498 0.05348 0.0
H364 H 0.88361 0.50526 0.06557 0.0
O365 O 0.8692 0.47289 0.0853 0.0
H366 H 0.80418 0.4924 0.03297 0.0
H367 H 0.77998 0.50156 0.08237 0.0
H368 H 0.81935 0.36255 0.07641 0.0
H369 H 0.81459 0.43935 0.05034 0.0
H370 H 0.82345 0.49745 0.07707 0.0
O371 O 0.92667 0.40129 0.05189 0.0
H372 H 0.88955 0.2824 0.05916 0.0
H373 H 0.96069 0.34584 0.05978 0.0
H374 H 0.77578 0.36522 0.0816 0.0
H375 H 0.87383 0.55928 0.04842 0.0
H376 H 0.75581 0.43511 0.08462 0.0
H377 H 0.83389 0.55297 0.03194 0.0
O378 O 0.86703 0.38229 0.08605 0.0
H379 H 0.97838 0.46098 0.08958 0.0
H380 H 0.93758 0.31946 0.08606 0.0
H381 H 0.97388 0.33382 0.10382 0.0
H382 H 0.99459 0.405 0.10564 0.0
H383 H 0.94182 0.44537 0.07206 0.0
H384 H 0.98036 0.27918 0.054 0.0
H385 H 0.95424 0.21309 0.05086 0.0
O386 O 0.89136 0.33822 0.07665 0.0
C387 C 0.85453 0.36133 0.05066 0.0
C388 C 0.92011 0.24354 0.05486 0.0
C389 C 0.96043 0.27958 0.05513 0.0
N390 N 0.92403 0.31796 0.05988 0.0
C391 C 0.9095 0.28179 0.0581 0.0
C392 C 0.94916 0.31726 0.05837 0.0
C393 C 0.94576 0.24251 0.05338 0.0
C394 C 0.86609 0.5025 0.0585 0.0
N395 N 0.84965 0.46928 0.059 0.0
C396 C 0.86069 0.5331 0.04878 0.0
C397 C 0.8383 0.52951 0.03953 0.0
C398 C 0.82164 0.49552 0.0401 0.0
C399 C 0.82767 0.4655 0.04994 0.0
C400 C 0.78847 0.47092 0.08107 0.0
C401 C 0.81076 0.3931 0.07766 0.0
C402 C 0.81311 0.46839 0.0781 0.0
N403 N 0.82389 0.4298 0.07638 0.0
C404 C 0.78609 0.3944 0.08062 0.0
C405 C 0.77491 0.43363 0.08232 0.0
C406 C 0.87797 0.34641 0.08525 0.0
C407 C 0.96956 0.42981 0.08887 0.0
C408 C 0.94637 0.35058 0.08683 0.0
C409 C 0.96699 0.35848 0.09688 0.0
C410 C 0.97862 0.39841 0.09789 0.0
N411 N 0.9376 0.38153 0.07802 0.0
C412 C 0.94892 0.42074 0.07894 0.0
Co413 Co 0.90392 0.42595 0.68455 0.0
Co414 Co 0.85444 0.36894 0.69309 0.0
O415 O 0.86929 0.42272 0.68864 0.0
C416 C 0.87199 0.47581 0.66326 0.0
O417 O 0.85452 0.44566 0.66188 0.0
C418 C 0.84464 0.42552 0.7144 0.0
O419 O 0.869 0.43665 0.71654 0.0
O420 O 0.8848 0.35861 0.70708 0.0
O421 O 0.91683 0.38074 0.69744 0.0
H422 H 0.85635 0.21354 0.70431 0.0
H423 H 0.87834 0.50407 0.69156 0.0
O424 O 0.89246 0.47217 0.67168 0.0
H425 H 0.95849 0.49212 0.72372 0.0
H426 H 0.98137 0.50203 0.6741 0.0
H427 H 0.94294 0.36242 0.68026 0.0
H428 H 0.94797 0.43907 0.70638 0.0
H429 H 0.93817 0.49726 0.67968 0.0
O430 O 0.83612 0.39932 0.70545 0.0
H431 H 0.87445 0.28138 0.69838 0.0
H432 H 0.80268 0.34282 0.69781 0.0
H433 H 0.98626 0.36574 0.67478 0.0
H434 H 0.88823 0.55809 0.70868 0.0
H435 H 1.00576 0.43594 0.67166 0.0
H436 H 0.92853 0.55223 0.72494 0.0
O437 O 0.89504 0.38158 0.67093 0.0
H438 H 0.78339 0.45708 0.66772 0.0
H439 H 0.82568 0.31669 0.67152 0.0
H440 H 0.78902 0.32979 0.65383 0.0
H441 H 0.76757 0.40039 0.65187 0.0
H442 H 0.82032 0.44274 0.68518 0.0
H443 H 0.78386 0.27572 0.70384 0.0
H444 H 0.81073 0.21042 0.70708 0.0
O445 O 0.87177 0.33684 0.68071 0.0
C446 C 0.90864 0.36086 0.70641 0.0
C447 C 0.84442 0.24175 0.7029 0.0
C448 C 0.80375 0.27667 0.70265 0.0
N449 N 0.83961 0.31597 0.69767 0.0
C450 C 0.85455 0.28024 0.69951 0.0
C451 C 0.81454 0.3146 0.69926 0.0
C452 C 0.81883 0.24003 0.70446 0.0
C453 C 0.89602 0.50151 0.69854 0.0
N454 N 0.9126 0.46855 0.69793 0.0
C455 C 0.90147 0.53211 0.70823 0.0
C456 C 0.92407 0.52877 0.71736 0.0
C457 C 0.94088 0.49504 0.71669 0.0
C458 C 0.93478 0.46502 0.70686 0.0
C459 C 0.97309 0.47126 0.67544 0.0
C460 C 0.95133 0.3931 0.67896 0.0
C461 C 0.9486 0.46835 0.67857 0.0
N462 N 0.93808 0.4296 0.68034 0.0
C463 C 0.97585 0.39477 0.67584 0.0
C464 C 0.98677 0.43417 0.67408 0.0
C465 C 0.88464 0.34536 0.67192 0.0
C466 C 0.79254 0.42615 0.66849 0.0
C467 C 0.81657 0.34756 0.67069 0.0
C468 C 0.79575 0.35475 0.66068 0.0
C469 C 0.7837 0.39436 0.65959 0.0
N470 N 0.82513 0.3789 0.67939 0.0
C471 C 0.8134 0.4178 0.67839 0.0
Co472 Co 0.65587 0.08568 0.93589 0.0
Co473 Co 0.60669 0.14264 0.94469 0.0
O474 O 0.62141 0.08898 0.94011 0.0
C475 C 0.62498 0.03718 0.91388 0.0
O476 O 0.60954 0.0699 0.911 0.0
C477 C 0.59727 0.0836 0.96545 0.0
O478 O 0.6211 0.07014 0.9666 0.0
O479 O 0.63726 0.15272 0.95855 0.0
O480 O 0.66909 0.13097 0.9487 0.0
H481 H 0.60881 0.29792 0.95601 0.0
H482 H 0.63065 0.00728 0.94303 0.0
O483 O 0.64396 0.03924 0.92323 0.0
H484 H 0.71125 0.0195 0.97486 0.0
H485 H 0.73259 0.00899 0.92483 0.0
H486 H 0.69493 0.1489 0.93142 0.0
H487 H 0.70024 0.07268 0.95756 0.0
H488 H 0.68964 0.01411 0.93068 0.0
O489 O 0.58877 0.11219 0.95722 0.0
H490 H 0.62675 0.23015 0.9499 0.0
H491 H 0.55516 0.16867 0.94975 0.0
H492 H 0.73801 0.14521 0.92567 0.0
H493 H 0.64107 0.95308 0.96008 0.0
H494 H 0.75712 0.07486 0.92233 0.0
H495 H 0.68159 0.95908 0.97618 0.0
O496 O 0.64678 0.13017 0.92228 0.0
H497 H 0.53587 0.0542 0.91936 0.0
H498 H 0.57719 0.19529 0.9234 0.0
H499 H 0.54036 0.18222 0.90581 0.0
H500 H 0.51939 0.11125 0.90372 0.0
H501 H 0.57291 0.06858 0.93674 0.0
H502 H 0.53651 0.2357 0.95596 0.0
H503 H 0.56337 0.30098 0.95908 0.0
O504 O 0.62365 0.17483 0.93218 0.0
C505 C 0.66104 0.1506 0.95776 0.0
C506 C 0.59689 0.26972 0.95464 0.0
C507 C 0.55632 0.23478 0.95463 0.0
N508 N 0.59198 0.19556 0.9494 0.0
C509 C 0.60692 0.23127 0.95116 0.0
C510 C 0.56701 0.19689 0.95115 0.0
C511 C 0.5714 0.2714 0.95638 0.0
C512 C 0.64844 0.0099 0.94992 0.0
N513 N 0.66484 0.04308 0.94927 0.0
C514 C 0.65419 0.9792 0.95959 0.0
C515 C 0.6769 0.98262 0.96863 0.0
C516 C 0.69354 0.01653 0.9679 0.0
C517 C 0.68715 0.04665 0.95811 0.0
C518 C 0.72448 0.03982 0.92628 0.0
C519 C 0.70316 0.11816 0.93005 0.0
C520 C 0.70014 0.04293 0.92956 0.0
N521 N 0.68984 0.08177 0.93147 0.0
C522 C 0.72754 0.11627 0.92676 0.0
C523 C 0.73824 0.07679 0.92488 0.0
C524 C 0.63632 0.16635 0.9233 0.0
C525 C 0.5448 0.08528 0.92018 0.0
C526 C 0.56826 0.16429 0.92252 0.0
C527 C 0.54736 0.1571 0.91256 0.0
C528 C 0.53559 0.11729 0.9114 0.0
N529 N 0.57715 0.13277 0.93111 0.0
C530 C 0.56573 0.09364 0.93003 0.0
Co531 Co 0.60842 0.08793 0.32236 0.0
Co532 Co 0.65847 0.14415 0.31407 0.0
O533 O 0.64319 0.09065 0.31843 0.0
C534 C 0.63986 0.0378 0.34372 0.0
O535 O 0.65758 0.06753 0.34507 0.0
C536 C 0.66807 0.0873 0.29279 0.0
O537 O 0.64361 0.07679 0.29059 0.0
O538 O 0.62834 0.15511 0.3 0.0
O539 O 0.59595 0.13322 0.30942 0.0
H540 H 0.65783 0.29959 0.30299 0.0
H541 H 0.63377 0.00938 0.3155 0.0
O542 O 0.61944 0.04171 0.33528 0.0
H543 H 0.55416 0.02226 0.28301 0.0
H544 H 0.5303 0.01302 0.33247 0.0
H545 H 0.56957 0.15205 0.32646 0.0
H546 H 0.56465 0.0753 0.30036 0.0
H547 H 0.57368 0.01715 0.32708 0.0
O548 O 0.67674 0.11338 0.30176 0.0
H549 H 0.63914 0.23211 0.30881 0.0
H550 H 0.71053 0.16924 0.30952 0.0
H551 H 0.52608 0.14937 0.33174 0.0
H552 H 0.62391 0.95538 0.29837 0.0
H553 H 0.50615 0.07948 0.33479 0.0
H554 H 0.58388 0.9617 0.28195 0.0
O555 O 0.61728 0.13227 0.33598 0.0
H556 H 0.72873 0.05468 0.33953 0.0
H557 H 0.68733 0.19579 0.33576 0.0
H558 H 0.72373 0.18198 0.35352 0.0
H559 H 0.74474 0.11101 0.35547 0.0
H560 H 0.69206 0.06972 0.322 0.0
H561 H 0.72993 0.23597 0.30361 0.0
H562 H 0.70355 0.30181 0.30035 0.0
O563 O 0.64118 0.17656 0.3264 0.0
C564 C 0.60444 0.15313 0.30055 0.0
C565 C 0.66955 0.27115 0.30441 0.0
C566 C 0.71 0.23542 0.30475 0.0
N567 N 0.67376 0.19683 0.30958 0.0
C568 C 0.65908 0.23286 0.30774 0.0
C569 C 0.69889 0.1977 0.30806 0.0
C570 C 0.69519 0.27236 0.30292 0.0
C571 C 0.61621 0.01214 0.30845 0.0
N572 N 0.59976 0.04535 0.30897 0.0
C573 C 0.61077 0.98155 0.29875 0.0
C574 C 0.58832 0.98516 0.28953 0.0
C575 C 0.57165 0.01914 0.29011 0.0
C576 C 0.57773 0.04914 0.29995 0.0
C577 C 0.53877 0.04367 0.33116 0.0
C578 C 0.561 0.1215 0.32772 0.0
C579 C 0.56336 0.04621 0.32814 0.0
N580 N 0.57412 0.0848 0.3264 0.0
C581 C 0.53638 0.12019 0.33073 0.0
C582 C 0.52522 0.08097 0.33245 0.0
C583 C 0.628 0.16827 0.33509 0.0
C584 C 0.71977 0.08576 0.33877 0.0
C585 C 0.69624 0.16476 0.33659 0.0
C586 C 0.71692 0.15717 0.34664 0.0
C587 C 0.72872 0.11736 0.34772 0.0
N588 N 0.68758 0.13361 0.32784 0.0
C589 C 0.69907 0.09452 0.32883 0.0
Co590 Co 0.35324 0.92697 0.07178 0.0
Co591 Co 0.40364 0.87453 0.06245 0.0
O592 O 0.38704 0.92659 0.0668 0.0
C593 C 0.3845 0.97788 0.093 0.0
O594 O 0.40085 0.9462 0.09553 0.0
C595 C 0.41838 0.8963 0.03753 0.0
O596 O 0.40594 0.8618 0.03297 0.0
O597 O 0.37252 0.86005 0.04932 0.0
O598 O 0.3406 0.88052 0.05932 0.0
H599 H 0.40752 0.7189 0.05222 0.0
H600 H 0.37534 0.00684 0.06356 0.0
O601 O 0.36477 0.97452 0.08411 0.0
H602 H 0.29269 0.98807 0.03367 0.0
H603 H 0.27593 0.9973 0.08439 0.0
H604 H 0.31681 0.86063 0.07721 0.0
H605 H 0.3069 0.93606 0.051 0.0
H606 H 0.31813 0.99569 0.0776 0.0
O607 O 0.41857 0.9075 0.04917 0.0
H608 H 0.38706 0.78501 0.05785 0.0
H609 H 0.45619 0.85347 0.05753 0.0
H610 H 0.27452 0.86079 0.0839 0.0
H611 H 0.36173 0.05989 0.04645 0.0
H612 H 0.2538 0.9295 0.08754 0.0
H613 H 0.32014 0.05063 0.03134 0.0
O614 O 0.36468 0.88353 0.08546 0.0
H615 H 0.47181 0.97293 0.08544 0.0
H616 H 0.43647 0.82759 0.08409 0.0
H617 H 0.47352 0.84652 0.10094 0.0
H618 H 0.4915 0.91963 0.10167 0.0
H619 H 0.43458 0.95277 0.06883 0.0
H620 H 0.47739 0.78811 0.05187 0.0
H621 H 0.45301 0.72019 0.04919 0.0
O622 O 0.3893 0.84112 0.07566 0.0
C623 C 0.34881 0.86074 0.05034 0.0
C624 C 0.41835 0.74829 0.05337 0.0
C625 C 0.45757 0.78712 0.05318 0.0
N626 N 0.42042 0.82303 0.05805 0.0
C627 C 0.40687 0.78582 0.05657 0.0
C628 C 0.44546 0.82402 0.05639 0.0
C629 C 0.44387 0.74904 0.05167 0.0
C630 C 0.35715 1.00272 0.05708 0.0
N631 N 0.3419 0.96848 0.05832 0.0
C632 C 0.34957 0.03281 0.04738 0.0
C633 C 0.32625 0.02757 0.0389 0.0
C634 C 0.31084 0.99247 0.0402 0.0
C635 C 0.31904 0.96305 0.05001 0.0
C636 C 0.28475 0.96716 0.08282 0.0
C637 C 0.30787 0.89066 0.07871 0.0
C638 C 0.30868 0.96604 0.07901 0.0
N639 N 0.31987 0.9281 0.07694 0.0
C640 C 0.28394 0.89055 0.08253 0.0
C641 C 0.27234 0.92911 0.08458 0.0
C642 C 0.37653 0.84854 0.08458 0.0
C643 C 0.4642 0.94093 0.0852 0.0
C644 C 0.44408 0.85952 0.08437 0.0
C645 C 0.46513 0.87002 0.09392 0.0
C646 C 0.47522 0.91103 0.09432 0.0
N647 N 0.43344 0.88897 0.07543 0.0
C648 C 0.44319 0.92928 0.07578 0.0
Co649 Co 0.40426 0.92413 0.68522 0.0
Co650 Co 0.35434 0.86769 0.69356 0.0
O651 O 0.3695 0.92126 0.68915 0.0
C652 C 0.37269 0.97403 0.66383 0.0
O653 O 0.35499 0.94428 0.66254 0.0
C654 C 0.34456 0.92479 0.71474 0.0
O655 O 0.36895 0.93574 0.71687 0.0
O656 O 0.38449 0.85703 0.70764 0.0
O657 O 0.41684 0.879 0.6982 0.0
H658 H 0.35536 0.71232 0.70477 0.0
H659 H 0.37877 1.00262 0.69202 0.0
O660 O 0.39315 0.97021 0.67226 0.0
H661 H 0.4584 0.99031 0.72451 0.0
H662 H 0.48223 0.99934 0.67504 0.0
H663 H 0.44323 0.86017 0.68117 0.0
H664 H 0.44802 0.93713 0.7072 0.0
H665 H 0.43886 0.99505 0.68044 0.0
O666 O 0.33599 0.89839 0.70585 0.0
H667 H 0.37389 0.77989 0.6989 0.0
H668 H 0.30234 0.84229 0.69811 0.0
H669 H 0.48672 0.86301 0.67588 0.0
H670 H 0.38853 0.05678 0.7091 0.0
H671 H 0.50651 0.93298 0.67277 0.0
H672 H 0.42857 0.05075 0.72553 0.0
O673 O 0.39548 0.87966 0.67163 0.0
H674 H 0.28386 0.95656 0.66803 0.0
H675 H 0.32561 0.81573 0.67191 0.0
H676 H 0.28918 0.8292 0.65413 0.0
H677 H 0.268 0.90003 0.65213 0.0
H678 H 0.32056 0.94185 0.68557 0.0
H679 H 0.2831 0.77548 0.70408 0.0
H680 H 0.30965 0.70983 0.70739 0.0
O681 O 0.3717 0.8353 0.68125 0.0
C682 C 0.40839 0.85914 0.70709 0.0
C683 C 0.34358 0.74069 0.70332 0.0
C684 C 0.30303 0.77615 0.70294 0.0
N685 N 0.33918 0.81494 0.69809 0.0
C686 C 0.35395 0.77902 0.69996 0.0
C687 C 0.31405 0.81392 0.6996 0.0
C688 C 0.31794 0.73932 0.7048 0.0
C689 C 0.39634 0.99999 0.69906 0.0
N690 N 0.41285 0.96685 0.69857 0.0
C691 C 0.40172 0.03066 0.70874 0.0
C692 C 0.42417 0.02722 0.71796 0.0
C693 C 0.4409 0.99331 0.71741 0.0
C694 C 0.43488 0.96322 0.7076 0.0
C695 C 0.47382 0.96866 0.67638 0.0
C696 C 0.45174 0.89075 0.67988 0.0
C697 C 0.44924 0.96603 0.6794 0.0
N698 N 0.43855 0.9274 0.68117 0.0
C699 C 0.47636 0.89215 0.67686 0.0
C700 C 0.48744 0.93142 0.67511 0.0
C701 C 0.38484 0.84361 0.67255 0.0
C702 C 0.29289 0.92554 0.66882 0.0
C703 C 0.31662 0.8467 0.67106 0.0
C704 C 0.29593 0.8541 0.661 0.0
C705 C 0.28403 0.89383 0.65989 0.0
N706 N 0.3252 0.87796 0.67978 0.0
C707 C 0.31362 0.91697 0.67876 0.0
Co708 Co 0.65382 0.58697 0.4353 0.0
Co709 Co 0.60386 0.64319 0.44369 0.0
O710 O 0.61909 0.58972 0.43928 0.0
C711 C 0.62231 0.53723 0.41391 0.0
O712 O 0.60478 0.56732 0.41248 0.0
C713 C 0.59418 0.58616 0.46495 0.0
O714 O 0.61862 0.57548 0.46717 0.0
O715 O 0.63405 0.65391 0.45774 0.0
O716 O 0.66638 0.63211 0.44826 0.0
H717 H 0.60465 0.79852 0.45488 0.0
H718 H 0.62845 0.50845 0.44218 0.0
O719 O 0.64268 0.54086 0.42239 0.0
H720 H 0.70825 0.52078 0.47455 0.0
H721 H 0.73178 0.51196 0.42503 0.0
H722 H 0.69268 0.65103 0.4312 0.0
H723 H 0.69771 0.57398 0.45723 0.0
H724 H 0.68845 0.51614 0.43048 0.0
O725 O 0.58559 0.61236 0.45599 0.0
H726 H 0.62327 0.73104 0.449 0.0
H727 H 0.55185 0.66838 0.44829 0.0
H728 H 0.73612 0.64829 0.42585 0.0
H729 H 0.63837 0.45428 0.45928 0.0
H730 H 0.75597 0.57837 0.42273 0.0
H731 H 0.67849 0.46032 0.47564 0.0
O732 O 0.64491 0.63147 0.4217 0.0
H733 H 0.53361 0.55403 0.41818 0.0
H734 H 0.57488 0.69517 0.42208 0.0
H735 H 0.53846 0.68158 0.40432 0.0
H736 H 0.51751 0.6106 0.4023 0.0
H737 H 0.57029 0.56886 0.43571 0.0
H738 H 0.53252 0.73509 0.45426 0.0
H739 H 0.55895 0.80083 0.45755 0.0
O740 O 0.62111 0.6757 0.43135 0.0
C741 C 0.65794 0.65187 0.45717 0.0
C742 C 0.59291 0.77011 0.45344 0.0
C743 C 0.55244 0.73451 0.45311 0.0
N744 N 0.58863 0.69587 0.44823 0.0
C745 C 0.60333 0.73183 0.45009 0.0
C746 C 0.56351 0.69679 0.44976 0.0
C747 C 0.56728 0.77138 0.45495 0.0
C748 C 0.64605 0.5111 0.4492 0.0
N749 N 0.66252 0.54425 0.44867 0.0
C750 C 0.65152 0.48041 0.45888 0.0
C751 C 0.67402 0.48385 0.46807 0.0
C752 C 0.69071 0.51778 0.46747 0.0
C753 C 0.6846 0.54788 0.45766 0.0
C754 C 0.72335 0.54262 0.42638 0.0
C755 C 0.70121 0.62047 0.42991 0.0
C756 C 0.69879 0.54519 0.42943 0.0
N757 N 0.68808 0.58379 0.43121 0.0
C758 C 0.72581 0.61913 0.42686 0.0
C759 C 0.73692 0.57989 0.42509 0.0
C760 C 0.63419 0.66746 0.42263 0.0
C761 C 0.54254 0.58512 0.41897 0.0
C762 C 0.566 0.66413 0.42122 0.0
C763 C 0.54531 0.65667 0.41117 0.0
C764 C 0.53354 0.61685 0.41005 0.0
N765 N 0.57471 0.63286 0.42993 0.0
C766 C 0.56325 0.59375 0.4289 0.0
Co767 Co 0.60755 0.58548 0.82244 0.0
Co768 Co 0.65636 0.64043 0.8127 0.0
O769 O 0.6419 0.58735 0.81796 0.0
C770 C 0.63993 0.53588 0.84372 0.0
O771 O 0.65796 0.56501 0.84462 0.0
C772 C 0.66627 0.58112 0.79203 0.0
O773 O 0.64191 0.56997 0.78997 0.0
O774 O 0.6258 0.64837 0.7987 0.0
O775 O 0.59439 0.62989 0.80925 0.0
H776 H 0.65325 0.79373 0.79904 0.0
H777 H 0.63218 0.50617 0.81564 0.0
O778 O 0.6191 0.54005 0.83556 0.0
H779 H 0.55084 0.51718 0.78429 0.0
H780 H 0.53024 0.51293 0.83433 0.0
H781 H 0.56947 0.65065 0.82673 0.0
H782 H 0.56248 0.57146 0.80119 0.0
H783 H 0.57303 0.51576 0.82821 0.0
O784 O 0.67474 0.60821 0.80073 0.0
H785 H 0.63568 0.72691 0.80606 0.0
H786 H 0.70789 0.66598 0.80753 0.0
H787 H 0.52656 0.64926 0.83273 0.0
H788 H 0.62117 0.45091 0.79897 0.0
H789 H 0.50666 0.58002 0.83658 0.0
H790 H 0.58026 0.45629 0.78313 0.0
O791 O 0.61749 0.6308 0.83568 0.0
H792 H 0.72852 0.55706 0.83906 0.0
H793 H 0.68471 0.69612 0.8335 0.0
H794 H 0.72168 0.68611 0.85124 0.0
H795 H 0.7439 0.61621 0.85409 0.0
H796 H 0.69127 0.5683 0.82153 0.0
H797 H 0.72619 0.73205 0.80043 0.0
H798 H 0.69882 0.79659 0.79619 0.0
O799 O 0.63899 0.67448 0.82466 0.0
C800 C 0.60213 0.64743 0.79976 0.0
C801 C 0.66539 0.76585 0.8009 0.0
C802 C 0.70631 0.73122 0.80166 0.0
N803 N 0.67078 0.69265 0.80729 0.0
C804 C 0.65556 0.72794 0.8049 0.0
C805 C 0.69583 0.69387 0.80565 0.0
C806 C 0.69095 0.76743 0.79929 0.0
C807 C 0.61425 0.50854 0.80884 0.0
N808 N 0.59796 0.54193 0.80942 0.0
C809 C 0.60815 0.47723 0.7994 0.0
C810 C 0.58522 0.4803 0.7905 0.0
C811 C 0.56871 0.51447 0.79115 0.0
C812 C 0.57545 0.54519 0.80072 0.0
C813 C 0.5387 0.54329 0.83267 0.0
C814 C 0.56091 0.62038 0.82834 0.0
C815 C 0.56296 0.5451 0.82924 0.0
N816 N 0.57371 0.58333 0.82706 0.0
C817 C 0.53662 0.6198 0.83176 0.0
C818 C 0.52547 0.58095 0.83392 0.0
C819 C 0.62724 0.66703 0.83395 0.0
C820 C 0.71904 0.5877 0.8379 0.0
C821 C 0.69417 0.66552 0.83471 0.0
C822 C 0.71516 0.6601 0.84475 0.0
C823 C 0.72763 0.62088 0.84634 0.0
N824 N 0.68587 0.63283 0.82646 0.0
C825 C 0.69801 0.5943 0.82796 0.0
Co826 Co 0.35751 0.42527 0.57233 0.0
Co827 Co 0.40709 0.369 0.56361 0.0
O828 O 0.39211 0.42248 0.56819 0.0
C829 C 0.38942 0.47473 0.59367 0.0
O830 O 0.40693 0.44463 0.59498 0.0
C831 C 0.4167 0.42644 0.54242 0.0
O832 O 0.39229 0.43729 0.54027 0.0
O833 O 0.37671 0.35887 0.54961 0.0
O834 O 0.34467 0.38036 0.55934 0.0
H835 H 0.40562 0.21396 0.55203 0.0
H836 H 0.38285 0.50379 0.56542 0.0
O837 O 0.36892 0.47119 0.58527 0.0
H838 H 0.30257 0.49215 0.53335 0.0
H839 H 0.27994 0.50034 0.58304 0.0
H840 H 0.3187 0.36126 0.57653 0.0
H841 H 0.31331 0.43871 0.55059 0.0
H842 H 0.32311 0.49612 0.5774 0.0
O843 O 0.42529 0.4 0.55131 0.0
H844 H 0.38734 0.28142 0.55814 0.0
H845 H 0.45889 0.34356 0.55877 0.0
H846 H 0.27541 0.36403 0.58206 0.0
H847 H 0.37273 0.5582 0.54841 0.0
H848 H 0.25575 0.43396 0.58536 0.0
H849 H 0.33237 0.55251 0.5322 0.0
O850 O 0.36659 0.38058 0.58585 0.0
H851 H 0.4779 0.45706 0.58913 0.0
H852 H 0.43616 0.3163 0.58502 0.0
H853 H 0.47281 0.3292 0.60271 0.0
H854 H 0.49399 0.4 0.60483 0.0
H855 H 0.44097 0.4429 0.57167 0.0
H856 H 0.47789 0.27685 0.55257 0.0
H857 H 0.45122 0.21138 0.54921 0.0
O858 O 0.38992 0.33631 0.57594 0.0
C859 C 0.35288 0.36094 0.5503 0.0
C860 C 0.41746 0.24224 0.5535 0.0
C861 C 0.45801 0.27755 0.55379 0.0
N862 N 0.42206 0.31633 0.55889 0.0
C863 C 0.40723 0.28052 0.55699 0.0
C864 C 0.44712 0.31526 0.55726 0.0
C865 C 0.44304 0.24083 0.55191 0.0
C866 C 0.36514 0.5013 0.55847 0.0
N867 N 0.34865 0.4682 0.55904 0.0
C868 C 0.35956 0.53212 0.54883 0.0
C869 C 0.33693 0.52887 0.53972 0.0
C870 C 0.32021 0.495 0.54036 0.0
C871 C 0.32643 0.46476 0.55013 0.0
C872 C 0.2883 0.46968 0.58162 0.0
C873 C 0.31024 0.39183 0.5779 0.0
C874 C 0.31277 0.46709 0.57846 0.0
N875 N 0.32338 0.42849 0.57658 0.0
C876 C 0.28574 0.39319 0.58105 0.0
C877 C 0.27473 0.43243 0.58291 0.0
C878 C 0.37712 0.3445 0.58479 0.0
C879 C 0.46886 0.42605 0.58829 0.0
C880 C 0.44514 0.34725 0.58592 0.0
C881 C 0.46596 0.35433 0.59594 0.0
C882 C 0.47786 0.39405 0.59711 0.0
N883 N 0.43642 0.3788 0.57731 0.0
C884 C 0.44801 0.4178 0.5784 0.0
Co885 Co 0.40566 0.42743 0.18544 0.0
Co886 Co 0.35647 0.3723 0.19472 0.0
O887 O 0.37116 0.42555 0.18973 0.0
C888 C 0.37405 0.47754 0.16406 0.0
O889 O 0.35618 0.44806 0.16277 0.0
C890 C 0.34616 0.43087 0.21548 0.0
O891 O 0.37056 0.44178 0.21776 0.0
O892 O 0.38676 0.36386 0.20884 0.0
O893 O 0.41844 0.38238 0.19848 0.0
H894 H 0.35903 0.21856 0.20789 0.0
H895 H 0.38113 0.50657 0.19243 0.0
O896 O 0.39448 0.47346 0.17248 0.0
H897 H 0.46197 0.49378 0.22407 0.0
H898 H 0.48357 0.50008 0.17425 0.0
H899 H 0.44366 0.36225 0.18106 0.0
H900 H 0.45044 0.44027 0.20693 0.0
H901 H 0.44059 0.49721 0.18015 0.0
O902 O 0.33782 0.40417 0.20664 0.0
H903 H 0.3769 0.28557 0.20119 0.0
H904 H 0.30468 0.34667 0.19951 0.0
H905 H 0.48677 0.36367 0.17528 0.0
H906 H 0.39203 0.56106 0.20935 0.0
H907 H 0.50701 0.43296 0.17184 0.0
H908 H 0.43268 0.55479 0.22534 0.0
O909 O 0.39577 0.38279 0.17199 0.0
H910 H 0.28507 0.45675 0.16817 0.0
H911 H 0.3284 0.31728 0.17366 0.0
H912 H 0.29185 0.32795 0.15574 0.0
H913 H 0.26986 0.39807 0.15293 0.0
H914 H 0.3219 0.44484 0.18588 0.0
H915 H 0.28608 0.2804 0.20629 0.0
H916 H 0.3133 0.21568 0.21048 0.0
O917 O 0.37407 0.33862 0.18277 0.0
C918 C 0.41048 0.36464 0.20788 0.0
C919 C 0.34695 0.24651 0.20606 0.0
C920 C 0.30602 0.28123 0.20517 0.0
N921 N 0.34181 0.31993 0.19987 0.0
C922 C 0.35695 0.28453 0.20223 0.0
C923 C 0.31668 0.3187 0.20137 0.0
C924 C 0.3213 0.24493 0.20752 0.0
C925 C 0.39895 0.50381 0.1993 0.0
N926 N 0.41516 0.47036 0.19866 0.0
C927 C 0.40498 0.53468 0.20888 0.0
C928 C 0.42777 0.53111 0.21786 0.0
C929 C 0.44421 0.49688 0.21716 0.0
C930 C 0.43754 0.4666 0.20745 0.0
C931 C 0.47496 0.46969 0.17574 0.0
C932 C 0.45237 0.39254 0.17962 0.0
C933 C 0.45059 0.46786 0.17904 0.0
N934 N 0.43965 0.4296 0.18099 0.0
C935 C 0.47677 0.39314 0.17633 0.0
C936 C 0.48811 0.43202 0.17439 0.0
C937 C 0.38588 0.34652 0.17353 0.0
C938 C 0.29444 0.42602 0.16932 0.0
C939 C 0.31903 0.34796 0.17247 0.0
C940 C 0.29828 0.35377 0.16232 0.0
C941 C 0.28595 0.3931 0.16076 0.0
N942 N 0.32724 0.3804 0.18083 0.0
C943 C 0.31524 0.41904 0.17935 0.0
H944 H 0.36036 0.31426 0.52916 0.0
H945 H 0.32726 0.27989 0.51302 0.0
H946 H 0.2684 0.32436 0.53312 0.0
H947 H 0.30085 0.35881 0.54908 0.0
H948 H 0.29083 0.21702 0.51693 0.0
H949 H 0.24205 0.36415 0.49613 0.0
H950 H 0.2738 0.36448 0.50602 0.0
H951 H 0.24574 0.36086 0.51335 0.0
C952 C 0.34036 0.31692 0.5301 0.0
C953 C 0.33336 0.33969 0.54039 0.0
C954 C 0.32148 0.29723 0.52088 0.0
C955 C 0.29533 0.30028 0.52175 0.0
C956 C 0.28838 0.32244 0.53208 0.0
H957 H 0.15043 0.20196 0.4783 0.0
H958 H 0.1837 0.23645 0.49432 0.0
C959 C 0.3071 0.34199 0.54126 0.0
C960 C 0.27515 0.27937 0.51213 0.0
H961 H 0.2201 0.29899 0.49031 0.0
C962 C 0.27548 0.23493 0.51103 0.0
C963 C 0.255 0.3028 0.50453 0.0
C964 C 0.25417 0.35074 0.50495 0.0
C965 C 0.25593 0.2132 0.5027 0.0
C966 C 0.23576 0.23663 0.49511 0.0
C967 C 0.23546 0.28108 0.49621 0.0
C968 C 0.2155 0.2157 0.48555 0.0
C969 C 0.25675 0.16525 0.50229 0.0
C970 C 0.22231 0.1933 0.47522 0.0
C971 C 0.20349 0.17367 0.46612 0.0
C972 C 0.17727 0.17613 0.46705 0.0
C973 C 0.1704 0.19917 0.47732 0.0
C974 C 0.18937 0.21892 0.48647 0.0
H975 H 0.2689 0.15187 0.51111 0.0
H976 H 0.23713 0.15152 0.50125 0.0
H977 H 0.26514 0.15511 0.49389 0.0
H978 H 0.24226 0.19125 0.47414 0.0
H979 H 0.20964 0.15664 0.45831 0.0
H980 H 0.96728 0.91151 0.54435 0.0
H981 H 0.99692 0.93991 0.53132 0.0
H982 H 0.93534 0.01311 0.50907 0.0
H983 H 0.90523 0.98433 0.52203 0.0
H984 H 0.96538 0.96886 0.494 0.0
H985 H 0.0275 0.05943 0.53282 0.0
H986 H 0.02341 1.0046 0.53673 0.0
H987 H 0.99612 0.0398 0.53437 0.0
C988 C 0.95994 0.93378 0.53672 0.0
C989 C 0.9338 0.9457 0.53427 0.0
C990 C 0.97702 0.95021 0.52933 0.0
C991 C 0.96849 0.97919 0.51936 0.0
C992 C 0.94239 0.99098 0.51678 0.0
H993 H 0.04184 0.10783 0.46285 0.0
H994 H 0.01191 0.08009 0.47583 0.0
C995 C 0.92521 0.97454 0.52421 0.0
C996 C 0.98675 0.99609 0.51142 0.0
H997 H 0.04303 0.05126 0.51321 0.0
C998 C 0.98226 0.98714 0.49818 0.0
C999 C 0.00887 0.01971 0.5169 0.0
C1000 C 0.01421 0.03184 0.53096 0.0
C1001 C 0.99952 1.00046 0.49031 0.0
C1002 C 0.02167 0.02402 0.49579 0.0
C1003 C 0.02613 0.03302 0.50903 0.0
C1004 C 0.04007 0.04058 0.48788 0.0
C1005 C 0.99419 0.98832 0.47625 0.0
C1006 C 0.0661 0.02843 0.49052 0.0
C1007 C 0.08344 0.04448 0.48313 0.0
C1008 C 0.07508 0.07328 0.47302 0.0
C1009 C 0.049 0.08558 0.4705 0.0
C1010 C 0.03176 0.06953 0.47787 0.0
H1011 H 0.98077 0.96091 0.47437 0.0
H1012 H 0.98516 0.01566 0.47047 0.0
H1013 H 0.01227 0.98009 0.47287 0.0
H1014 H 0.07298 1.00632 0.49826 0.0
H1015 H 0.10336 0.0344 0.48535 0.0
H1016 H 0.35502 0.98101 0.735 0.0
H1017 H 0.32493 0.00863 0.74812 0.0
H1018 H 0.2635 0.93575 0.72568 0.0
H1019 H 0.29315 0.90853 0.71248 0.0
H1020 H 0.24935 0.01885 0.72967 0.0
H1021 H 0.29557 0.9436 0.77573 0.0
H1022 H 0.3167 0.97584 0.76825 0.0
H1023 H 0.30314 0.92819 0.76039 0.0
C1024 C 0.33512 0.97082 0.73288 0.0
C1025 C 0.3266 0.94233 0.72272 0.0
C1026 C 0.31797 0.98645 0.74043 0.0
C1027 C 0.29202 0.97374 0.73802 0.0
C1028 C 0.28343 0.94585 0.72778 0.0
H1029 H 0.15566 0.02953 0.77138 0.0
H1030 H 0.18565 1.00175 0.75822 0.0
C1031 C 0.3005 0.93025 0.72024 0.0
C1032 C 0.2736 0.98979 0.74599 0.0
H1033 H 0.26127 0.99131 0.77663 0.0
C1034 C 0.2519 0.01273 0.73993 0.0
C1035 C 0.27691 0.98169 0.75938 0.0
C1036 C 0.2992 0.95567 0.76634 0.0
C1037 C 0.2337 0.02845 0.74692 0.0
C1038 C 0.23701 0.02037 0.76031 0.0
C1039 C 0.25871 0.99742 0.76637 0.0
C1040 C 0.21864 0.03653 0.76829 0.0
C1041 C 0.21141 0.05449 0.73997 0.0
C1042 C 0.22731 0.06442 0.77853 0.0
C1043 C 0.21031 0.0801 0.78608 0.0
C1044 C 0.18419 0.06812 0.78363 0.0
C1045 C 0.17558 0.03965 0.77348 0.0
C1046 C 0.19267 0.02393 0.76591 0.0
H1047 H 0.21502 0.06649 0.73056 0.0
H1048 H 0.19389 0.03435 0.73808 0.0
H1049 H 0.20751 0.08201 0.7459 0.0
H1050 H 0.24725 0.07444 0.7806 0.0
H1051 H 0.21772 0.10181 0.79384 0.0
H1052 H 0.11051 0.19886 0.7785 0.0
H1053 H 0.07773 0.23546 0.76271 0.0
H1054 H 0.01853 0.1908 0.78255 0.0
H1055 H 0.0507 0.15475 0.7983 0.0
H1056 H 0.0335 0.19986 0.74642 0.0
H1057 H 1.00569 0.31955 0.77993 0.0
H1058 H 0.03513 0.28919 0.78365 0.0
H1059 H 1.00502 0.26568 0.7855 0.0
C1060 C 0.09052 0.19692 0.77951 0.0
C1061 C 0.08336 0.1739 0.78973 0.0
C1062 C 0.07183 0.21784 0.77049 0.0
C1063 C 0.04575 0.21641 0.7716 0.0
C1064 C 0.03858 0.19308 0.78166 0.0
H1065 H 0.90115 0.31373 0.72747 0.0
H1066 H 0.93412 0.27741 0.74323 0.0
C1067 C 0.05711 0.17222 0.79063 0.0
C1068 C 0.02575 0.2383 0.76212 0.0
H1069 H 0.97832 0.31344 0.75944 0.0
C1070 C 0.02156 0.22492 0.74923 0.0
C1071 C 0.01005 0.27073 0.76585 0.0
C1072 C 0.01429 0.28747 0.77946 0.0
C1073 C 1.00178 0.2426 0.74001 0.0
C1074 C 0.98606 0.275 0.74374 0.0
C1075 C 0.99027 0.2884 0.75662 0.0
C1076 C 0.96596 0.29673 0.73428 0.0
C1077 C 0.99754 0.22586 0.7264 0.0
C1078 C 0.973 0.32011 0.72419 0.0
C1079 C 0.95436 0.34082 0.71523 0.0
C1080 C 0.92813 0.33892 0.71619 0.0
C1081 C 0.92111 0.31584 0.72642 0.0
C1082 C 0.93991 0.29508 0.73543 0.0
H1083 H 0.00623 0.19386 0.72592 0.0
H1084 H 0.97669 0.22398 0.72222 0.0
H1085 H 0.0067 0.24775 0.72034 0.0
H1086 H 0.99302 0.32256 0.72326 0.0
H1087 H 0.96065 0.35834 0.70755 0.0
H1088 H 0.85986 0.81422 0.52906 0.0
H1089 H 0.82704 0.77836 0.51318 0.0
H1090 H 0.76774 0.82467 0.5327 0.0
H1091 H 0.80003 0.85991 0.54858 0.0
H1092 H 0.76301 0.73855 0.52679 0.0
H1093 H 0.77526 0.83432 0.48411 0.0
H1094 H 0.8042 0.81021 0.49273 0.0
H1095 H 0.7883 0.85063 0.50039 0.0
C1096 C 0.83983 0.81692 0.52993 0.0
C1097 C 0.83268 0.84023 0.54009 0.0
C1098 C 0.82109 0.79656 0.52082 0.0
C1099 C 0.7949 0.7993 0.52167 0.0
C1100 C 0.78779 0.82224 0.53182 0.0
H1101 H 0.64987 0.6997 0.47798 0.0
H1102 H 0.6825 0.7359 0.49388 0.0
C1103 C 0.80639 0.8425 0.5409 0.0
C1104 C 0.77474 0.77777 0.51219 0.0
H1105 H 0.74657 0.77599 0.48038 0.0
C1106 C 0.75936 0.74677 0.51664 0.0
C1107 C 0.76995 0.78871 0.49897 0.0
C1108 C 0.78511 0.82303 0.49373 0.0
C1109 C 0.73962 0.72585 0.5082 0.0
C1110 C 0.73485 0.73676 0.49498 0.0
C1111 C 0.75021 0.76779 0.49053 0.0
C1112 C 0.71479 0.71506 0.48549 0.0
C1113 C 0.72446 0.69153 0.51344 0.0
C1114 C 0.72205 0.69207 0.47538 0.0
C1115 C 0.70356 0.67162 0.4663 0.0
C1116 C 0.67724 0.67375 0.46704 0.0
C1117 C 0.66993 0.69711 0.47715 0.0
C1118 C 0.68857 0.71766 0.48628 0.0
H1119 H 0.73424 0.68038 0.52309 0.0
H1120 H 0.70532 0.70428 0.51437 0.0
H1121 H 0.72138 0.66385 0.50681 0.0
H1122 H 0.74213 0.68974 0.47456 0.0
H1123 H 0.71005 0.65417 0.45866 0.0
H1124 H 0.65723 0.03281 0.27211 0.0
H1125 H 0.68733 1.00492 0.259 0.0
H1126 H 0.74934 0.07442 0.28223 0.0
H1127 H 0.71971 0.10193 0.29539 0.0
H1128 H 0.71807 0.05062 0.24457 0.0
H1129 H 0.77875 0.95416 0.28248 0.0
H1130 H 0.74748 0.97409 0.28413 0.0
H1131 H 0.77509 0.00854 0.28699 0.0
C1132 C 0.6773 0.04195 0.27447 0.0
C1133 C 0.68601 0.06953 0.28484 0.0
C1134 C 0.69447 0.02602 0.26696 0.0
C1135 C 0.72068 0.03705 0.26975 0.0
C1136 C 0.72934 0.06472 0.28005 0.0
H1137 H 0.85539 0.98189 0.23549 0.0
H1138 H 0.82532 0.00986 0.24859 0.0
C1139 C 0.71227 0.08065 0.28753 0.0
C1140 C 0.7389 0.02082 0.26171 0.0
H1141 H 0.79457 0.9642 0.26303 0.0
C1142 C 0.7347 0.03149 0.24858 0.0
C1143 C 0.76071 0.99609 0.26697 0.0
C1144 C 0.76572 0.98217 0.28089 0.0
C1145 C 0.75193 0.01874 0.24063 0.0
C1146 C 0.77373 0.994 0.24589 0.0
C1147 C 0.77794 0.98334 0.25902 0.0
C1148 C 0.79195 0.97774 0.23784 0.0
C1149 C 0.74691 0.03265 0.22671 0.0
C1150 C 0.78327 0.95006 0.22756 0.0
C1151 C 0.80033 0.93409 0.22008 0.0
C1152 C 0.82659 0.94518 0.22276 0.0
C1153 C 0.83532 0.97278 0.23313 0.0
C1154 C 0.81816 0.98875 0.24063 0.0
H1155 H 0.7339 0.06067 0.22512 0.0
H1156 H 0.76516 0.04072 0.22347 0.0
H1157 H 0.73754 1.00629 0.22061 0.0
H1158 H 0.76327 0.94038 0.22538 0.0
H1159 H 0.79288 0.91279 0.21222 0.0
H1160 H 0.90011 0.81455 0.22802 0.0
H1161 H 0.93281 0.77915 0.24414 0.0
H1162 H 0.99224 0.82265 0.22427 0.0
H1163 H 0.9602 0.85822 0.20835 0.0
H1164 H 0.96854 0.71561 0.2404 0.0
H1165 H 0.01886 0.86126 0.26122 0.0
H1166 H 0.98724 0.8626 0.25122 0.0
H1167 H 0.01542 0.85803 0.24402 0.0
C1168 C 0.92016 0.81679 0.22714 0.0
C1169 C 0.92744 0.83964 0.21692 0.0
C1170 C 0.9388 0.79651 0.23634 0.0
C1171 C 0.96501 0.79898 0.23554 0.0
C1172 C 0.97223 0.82118 0.22527 0.0
H1173 H 0.10895 0.69672 0.27869 0.0
H1174 H 0.07578 0.73151 0.26269 0.0
C1175 C 0.95374 0.84136 0.21611 0.0
C1176 C 0.98494 0.77748 0.24516 0.0
H1177 H 0.04025 0.79547 0.26695 0.0
C1178 C 0.98411 0.73306 0.24629 0.0
C1179 C 1.00535 0.80032 0.25276 0.0
C1180 C 0.00672 0.84822 0.25236 0.0
C1181 C 1.00341 0.71077 0.25462 0.0
C1182 C 0.02386 0.7336 0.26218 0.0
C1183 C 0.02466 0.77802 0.26108 0.0
C1184 C 0.04401 0.71212 0.27168 0.0
C1185 C 1.00202 0.66288 0.25507 0.0
C1186 C 0.03718 0.69027 0.28211 0.0
C1187 C 0.05596 0.67048 0.29122 0.0
C1188 C 0.08214 0.67219 0.29018 0.0
C1189 C 0.089 0.6945 0.27976 0.0
C1190 C 0.07009 0.71444 0.27062 0.0
H1191 H 0.98953 0.64976 0.24633 0.0
H1192 H 0.02147 0.6485 0.25601 0.0
H1193 H 0.99378 0.65317 0.26356 0.0
H1194 H 0.01727 0.68888 0.28329 0.0
H1195 H 0.04984 0.65401 0.29915 0.0
H1196 H 0.35633 0.81475 0.02911 0.0
H1197 H 0.32343 0.77918 0.01319 0.0
H1198 H 0.26481 0.81884 0.03413 0.0
H1199 H 0.29711 0.8545 0.04991 0.0
H1200 H 0.28805 0.71402 0.01715 0.0
H1201 H 0.23709 0.86073 0.99736 0.0
H1202 H 0.26907 0.86159 0.00701 0.0
H1203 H 0.24144 0.85605 0.01457 0.0
C1204 C 0.33644 0.81602 0.0303 0.0
C1205 C 0.32944 0.83794 0.04075 0.0
C1206 C 0.31767 0.79565 0.02121 0.0
C1207 C 0.29162 0.79711 0.02236 0.0
C1208 C 0.2847 0.81816 0.03289 0.0
H1209 H 0.14829 0.69675 0.97766 0.0
H1210 H 0.18075 0.73114 0.9941 0.0
C1211 C 0.30332 0.8384 0.04195 0.0
C1212 C 0.27156 0.77605 0.01272 0.0
H1213 H 0.21643 0.79514 0.99092 0.0
C1214 C 0.27248 0.73174 0.01135 0.0
C1215 C 0.25113 0.79924 0.00526 0.0
C1216 C 0.24965 0.84708 0.00601 0.0
C1217 C 0.25329 0.70989 1.00284 0.0
C1218 C 0.23292 0.7331 0.99533 0.0
C1219 C 0.23197 0.7774 0.99674 0.0
C1220 C 0.21315 0.71219 0.98551 0.0
C1221 C 0.25476 0.66205 1.00214 0.0
C1222 C 0.22056 0.69086 0.97514 0.0
C1223 C 0.2022 0.67127 0.9658 0.0
C1224 C 0.17585 0.67274 0.96652 0.0
C1225 C 0.16838 0.69476 0.97683 0.0
C1226 C 0.18689 0.71444 0.98622 0.0
H1227 H 0.2668 0.64845 0.01095 0.0
H1228 H 0.2353 0.64755 1.00083 0.0
H1229 H 0.26363 0.65299 0.99379 0.0
H1230 H 0.24062 0.68961 0.97422 0.0
H1231 H 0.2088 0.65505 0.95797 0.0
H1232 H 0.04191 0.59997 0.96185 0.0
H1233 H 0.01275 0.57311 0.97539 0.0
H1234 H 0.07515 0.50315 0.99821 0.0
H1235 H 0.10474 0.53042 0.98476 0.0
H1236 H 0.99955 0.49 0.98014 0.0
H1237 H 0.0456 0.57007 0.0254 0.0
H1238 H 0.05273 0.58434 0.00988 0.0
H1239 H 0.06692 0.53763 0.01809 0.0
C1240 C 0.04956 0.57895 0.96976 0.0
C1241 C 0.07579 0.56761 0.97226 0.0
C1242 C 0.03278 0.56356 0.97749 0.0
C1243 C 0.04179 0.53663 0.98793 0.0
C1244 C 0.06786 0.5246 0.99036 0.0
H1245 H 0.96937 0.41215 0.04516 0.0
H1246 H 0.99856 0.43887 0.03162 0.0
C1247 C 0.08473 0.54001 0.98261 0.0
C1248 C 0.02369 0.52092 0.99613 0.0
H1249 H 0.01181 0.52193 0.02685 0.0
C1250 C 1.00218 0.49707 0.99035 0.0
C1251 C 0.0271 0.53026 0.00944 0.0
C1252 C 0.04919 0.55729 0.01608 0.0
C1253 C 0.98425 0.48167 0.99755 0.0
C1254 C 0.98766 0.49101 0.01087 0.0
C1255 C 0.00918 0.51486 0.01665 0.0
C1256 C 0.96955 0.47535 0.01906 0.0
C1257 C 0.96216 0.45465 0.99091 0.0
C1258 C 0.94348 0.48743 0.01663 0.0
C1259 C 0.9266 0.4721 0.02437 0.0
C1260 C 0.93552 0.44455 0.03474 0.0
C1261 C 0.96174 0.43314 0.03724 0.0
C1262 C 0.97853 0.44845 0.02951 0.0
H1263 H 0.96577 0.44184 0.9816 0.0
H1264 H 0.9586 0.42762 0.99712 0.0
H1265 H 0.94445 0.47432 0.98889 0.0
H1266 H 0.93622 0.50887 0.00877 0.0
H1267 H 0.9066 0.48175 0.02222 0.0
H1268 H 0.29451 0.41594 0.21254 0.0
H1269 H 0.26443 0.44301 0.22553 0.0
H1270 H 0.32598 0.51201 0.24929 0.0
H1271 H 0.35637 0.48539 0.23618 0.0
H1272 H 0.26528 0.43166 0.25156 0.0
H1273 H 0.27058 0.60323 0.2399 0.0
H1274 H 0.28287 0.56223 0.23071 0.0
H1275 H 0.30114 0.57883 0.24598 0.0
C1276 C 0.30175 0.43706 0.22048 0.0
C1277 C 0.32794 0.44853 0.22329 0.0
C1278 C 0.28445 0.45247 0.22792 0.0
C1279 C 0.29283 0.47991 0.2383 0.0
C1280 C 0.31895 0.4915 0.24117 0.0
H1281 H 0.21776 0.60076 0.29513 0.0
H1282 H 0.24777 0.57373 0.28209 0.0
C1283 C 0.33634 0.47608 0.23371 0.0
C1284 C 0.27422 0.49528 0.24627 0.0
H1285 H 0.24687 0.58498 0.25608 0.0
C1286 C 0.26118 0.46519 0.25252 0.0
C1287 C 0.26886 0.53902 0.2475 0.0
C1288 C 0.28139 0.57275 0.24059 0.0
C1289 C 0.24329 0.47763 0.26015 0.0
C1290 C 0.23792 0.52136 0.26138 0.0
C1291 C 0.25096 0.55146 0.25513 0.0
C1292 C 0.21935 0.53675 0.26937 0.0
C1293 C 0.23077 0.44389 0.26707 0.0
C1294 C 0.19323 0.5251 0.26654 0.0
C1295 C 0.17588 0.54049 0.27403 0.0
C1296 C 0.18432 0.56807 0.28443 0.0
C1297 C 0.2105 0.57962 0.2872 0.0
C1298 C 0.22776 0.56423 0.27974 0.0
H1299 H 0.24158 0.41342 0.26776 0.0
H1300 H 0.22929 0.45442 0.27694 0.0
H1301 H 0.21102 0.43779 0.26168 0.0
H1302 H 0.18618 0.50456 0.25843 0.0
H1303 H 0.15586 0.53112 0.27158 0.0
H1304 H 0.71309 0.15269 0.95892 0.0
H1305 H 0.74557 0.18773 0.97478 0.0
H1306 H 0.68656 0.2337 0.99455 0.0
H1307 H 0.6536 0.19806 0.97871 0.0
H1308 H 0.75053 0.2736 0.98086 0.0
H1309 H 0.73837 0.17724 0.02343 0.0
H1310 H 0.72516 0.16128 0.00713 0.0
H1311 H 0.70937 0.2015 0.01493 0.0
C1312 C 0.70685 0.17 0.96665 0.0
C1313 C 0.6806 0.17222 0.96755 0.0
C1314 C 0.72554 0.19014 0.97571 0.0
C1315 C 0.71856 0.21288 0.98594 0.0
C1316 C 0.69242 0.21562 0.98686 0.0
H1317 H 0.80237 0.35873 0.04895 0.0
H1318 H 0.77062 0.32274 0.03298 0.0
C1319 C 0.67359 0.19538 0.97777 0.0
C1320 C 0.73878 0.23423 0.99543 0.0
H1321 H 0.76671 0.23606 0.02727 0.0
C1322 C 0.75414 0.26533 0.99101 0.0
C1323 C 0.74353 0.22321 0.00864 0.0
C1324 C 0.72843 0.18873 0.01384 0.0
C1325 C 0.77377 0.28635 0.99948 0.0
C1326 C 0.77844 0.27547 0.0127 0.0
C1327 C 0.76314 0.24426 0.01712 0.0
C1328 C 0.79829 0.29741 0.02224 0.0
C1329 C 0.78891 0.3208 0.99429 0.0
C1330 C 0.82456 0.29494 0.02158 0.0
C1331 C 0.843 0.31571 0.03075 0.0
C1332 C 0.83543 0.33919 0.04076 0.0
C1333 C 0.80905 0.34119 0.04138 0.0
C1334 C 0.79076 0.32051 0.03226 0.0
H1335 H 0.77927 0.33175 0.98459 0.0
H1336 H 0.79173 0.34857 1.00089 0.0
H1337 H 0.80817 0.30827 0.99348 0.0
H1338 H 0.83083 0.27664 0.01404 0.0
H1339 H 0.86312 0.31323 0.03002 0.0
H1340 H 0.71774 0.59693 0.79442 0.0
H1341 H 0.74734 0.57017 0.78112 0.0
H1342 H 0.68584 0.49791 0.7585 0.0
H1343 H 0.65579 0.52508 0.77171 0.0
H1344 H 0.76152 0.48727 0.77674 0.0
H1345 H 0.7149 0.56475 0.73111 0.0
H1346 H 0.70749 0.57931 0.74655 0.0
H1347 H 0.6939 0.53197 0.73851 0.0
C1348 C 0.71038 0.57541 0.78661 0.0
C1349 C 0.68425 0.56342 0.78409 0.0
C1350 C 0.72741 0.56007 0.77902 0.0
C1351 C 0.71878 0.53254 0.76869 0.0
C1352 C 0.69284 0.51982 0.76626 0.0
H1353 H 0.79326 0.40899 0.71208 0.0
H1354 H 0.76364 0.43506 0.72547 0.0
C1355 C 0.67571 0.53517 0.77388 0.0
C1356 C 0.73714 0.51706 0.7606 0.0
H1357 H 0.74935 0.51768 0.72993 0.0
C1358 C 0.7589 0.49399 0.76651 0.0
C1359 C 0.73375 0.52597 0.74725 0.0
C1360 C 0.71139 0.55217 0.74046 0.0
C1361 C 0.77711 0.47895 0.75942 0.0
C1362 C 0.77373 0.48787 0.74607 0.0
C1363 C 0.75196 0.51093 0.74016 0.0
C1364 C 0.79214 0.47255 0.73799 0.0
C1365 C 0.79948 0.45276 0.76621 0.0
C1366 C 0.81806 0.48539 0.74044 0.0
C1367 C 0.8352 0.47043 0.73278 0.0
C1368 C 0.82669 0.44249 0.72247 0.0
C1369 C 0.8006 0.4303 0.71995 0.0
C1370 C 0.78355 0.44524 0.72759 0.0
H1371 H 0.79592 0.44004 0.77554 0.0
H1372 H 0.80345 0.42571 0.76011 0.0
H1373 H 0.81694 0.47301 0.76821 0.0
H1374 H 0.82502 0.50715 0.74825 0.0
H1375 H 0.85509 0.48068 0.73494 0.0
H1376 H 0.60335 0.01011 0.97979 0.0
H1377 H 0.57278 0.97858 0.99199 0.0
H1378 H 0.52143 0.0848 0.98176 0.0
H1379 H 0.55133 0.11566 0.96928 0.0
H1380 H 0.55322 1.00503 0.01235 0.0
H1381 H 0.47354 0.9875 0.97062 0.0
H1382 H 0.50583 1.00095 0.9688 0.0
H1383 H 0.48449 0.04141 0.97279 0.0
C1384 C 0.58553 0.0267 0.98014 0.0
C1385 C 0.57967 0.06516 0.97344 0.0
C1386 C 0.56807 0.00865 0.98712 0.0
C1387 C 0.54448 0.02878 0.98756 0.0
C1388 C 0.53908 0.06793 0.98125 0.0
H1389 H 0.44534 0.97066 0.04318 0.0
H1390 H 0.47559 1.00356 0.03114 0.0
C1391 C 0.55632 0.0857 0.97417 0.0
C1392 C 0.52556 0.00913 0.99466 0.0
H1393 H 0.46275 0.97795 0.99137 0.0
C1394 C 0.53347 0.99891 0.00774 0.0
C1395 C 0.49985 1.00048 0.98863 0.0
C1396 C 0.49048 0.00773 0.97441 0.0
C1397 C 0.51633 0.98099 0.01499 0.0
C1398 C 0.49032 0.97414 0.00909 0.0
C1399 C 0.48255 0.98375 0.99596 0.0
C1400 C 0.47106 0.95555 0.0162 0.0
C1401 C 0.52648 0.96864 0.0288 0.0
C1402 C 0.45746 0.91871 0.01153 0.0
C1403 C 0.43977 0.90033 0.01825 0.0
C1404 C 0.43531 0.91828 0.02984 0.0
C1405 C 0.44842 0.95584 0.03433 0.0
C1406 C 0.46595 0.97446 0.02752 0.0
H1407 H 0.54771 0.96435 0.03065 0.0
H1408 H 0.52196 0.99425 0.03526 0.0
H1409 H 0.51749 0.93871 0.03137 0.0
H1410 H 0.4609 0.90362 1.00279 0.0
H1411 H 0.43009 0.8714 0.0145 0.0
H1412 H 0.46241 0.36069 0.2088 0.0
H1413 H 0.4947 0.32478 0.22456 0.0
H1414 H 0.43589 0.28392 0.24523 0.0
H1415 H 0.40303 0.31966 0.22932 0.0
H1416 H 0.50789 0.33787 0.25105 0.0
H1417 H 0.47344 0.1729 0.2397 0.0
H1418 H 0.46278 0.21732 0.22923 0.0
H1419 H 0.44963 0.20902 0.24355 0.0
C1420 C 0.45615 0.34414 0.21667 0.0
C1421 C 0.42997 0.3431 0.21774 0.0
C1422 C 0.47475 0.32361 0.22569 0.0
C1423 C 0.46771 0.30128 0.23598 0.0
C1424 C 0.44169 0.30041 0.23723 0.0
H1425 H 0.55241 0.15672 0.29924 0.0
H1426 H 0.5205 0.19342 0.28351 0.0
C1427 C 0.42295 0.32106 0.22817 0.0
C1428 C 0.48784 0.27935 0.2454 0.0
H1429 H 0.50782 0.18156 0.25732 0.0
C1430 C 0.50793 0.30368 0.25242 0.0
C1431 C 0.4879 0.23474 0.2471 0.0
C1432 C 0.46743 0.2068 0.23943 0.0
C1433 C 0.52781 0.2847 0.26129 0.0
C1434 C 0.52786 0.24008 0.26301 0.0
C1435 C 0.5078 0.21576 0.25596 0.0
C1436 C 0.54787 0.21808 0.27248 0.0
C1437 C 0.54821 0.3127 0.26899 0.0
C1438 C 0.57402 0.21939 0.27148 0.0
C1439 C 0.59257 0.19837 0.28054 0.0
C1440 C 0.58522 0.17541 0.29072 0.0
C1441 C 0.55893 0.17398 0.29156 0.0
C1442 C 0.54054 0.19496 0.28255 0.0
H1443 H 0.54208 0.34653 0.26879 0.0
H1444 H 0.55296 0.30201 0.27918 0.0
H1445 H 0.56598 0.31082 0.26484 0.0
H1446 H 0.58006 0.23642 0.26363 0.0
H1447 H 0.61258 0.20006 0.27957 0.0
H1448 H 0.40033 0.81175 0.728 0.0
H1449 H 0.43301 0.77612 0.74407 0.0
H1450 H 0.49249 0.82039 0.72434 0.0
H1451 H 0.46046 0.85622 0.70848 0.0
H1452 H 0.46867 0.71283 0.74026 0.0
H1453 H 0.51917 0.85796 0.76134 0.0
H1454 H 0.48759 0.85958 0.75131 0.0
H1455 H 0.51581 0.85513 0.74414 0.0
C1456 C 0.42038 0.81413 0.72714 0.0
C1457 C 0.42768 0.83726 0.71698 0.0
C1458 C 0.43902 0.7937 0.73632 0.0
C1459 C 0.46524 0.7963 0.73554 0.0
C1460 C 0.47247 0.81882 0.72533 0.0
H1461 H 0.60917 0.69291 0.77834 0.0
H1462 H 0.57596 0.7279 0.7624 0.0
C1463 C 0.45399 0.83915 0.7162 0.0
C1464 C 0.48517 0.77458 0.74511 0.0
H1465 H 0.54057 0.79204 0.76688 0.0
C1466 C 0.48427 0.73015 0.74616 0.0
C1467 C 0.50563 0.79723 0.75274 0.0
C1468 C 0.50705 0.84514 0.75244 0.0
C1469 C 0.50357 0.70766 0.75444 0.0
C1470 C 0.52409 0.73029 0.76201 0.0
C1471 C 0.52494 0.77473 0.76099 0.0
C1472 C 0.54425 0.70858 0.77145 0.0
C1473 C 0.50212 0.65976 0.75481 0.0
C1474 C 0.53746 0.68668 0.78188 0.0
C1475 C 0.55627 0.6668 0.79096 0.0
C1476 C 0.58243 0.66844 0.78987 0.0
C1477 C 0.58925 0.69074 0.77944 0.0
C1478 C 0.57031 0.71079 0.77034 0.0
H1479 H 0.48952 0.64682 0.74608 0.0
H1480 H 0.52153 0.64532 0.75567 0.0
H1481 H 0.49397 0.64993 0.76332 0.0
H1482 H 0.51757 0.68537 0.7831 0.0
H1483 H 0.55019 0.65034 0.79889 0.0
H1484 H 0.4683 0.4114 0.54503 0.0
H1485 H 0.49805 0.43899 0.53196 0.0
H1486 H 0.43631 0.50944 0.50881 0.0
H1487 H 0.40608 0.48148 0.52183 0.0
H1488 H 0.46703 0.46375 0.49433 0.0
H1489 H 0.52781 0.55904 0.53246 0.0
H1490 H 0.52396 0.50461 0.53688 0.0
H1491 H 0.49646 0.53934 0.53402 0.0
C1492 C 0.46094 0.43291 0.53721 0.0
C1493 C 0.43471 0.44428 0.53452 0.0
C1494 C 0.47809 0.44888 0.52978 0.0
C1495 C 0.46954 0.47683 0.51953 0.0
C1496 C 0.44337 0.48812 0.51674 0.0
H1497 H 0.54257 0.6012 0.46229 0.0
H1498 H 0.51278 0.57375 0.47537 0.0
C1499 C 0.42612 0.47215 0.52419 0.0
C1500 C 0.48786 0.49308 0.51154 0.0
H1501 H 0.54376 0.54913 0.51304 0.0
C1502 C 0.48371 0.48267 0.49839 0.0
C1503 C 0.50974 0.51752 0.51687 0.0
C1504 C 0.51471 0.53117 0.5308 0.0
C1505 C 0.50105 0.49536 0.4905 0.0
C1506 C 0.52293 0.5198 0.49583 0.0
C1507 C 0.52708 0.53022 0.50897 0.0
C1508 C 0.54127 0.536 0.48784 0.0
C1509 C 0.49609 0.48169 0.47657 0.0
C1510 C 0.56745 0.52474 0.49066 0.0
C1511 C 0.58472 0.54064 0.48321 0.0
C1512 C 0.57614 0.56841 0.47285 0.0
C1513 C 0.54992 0.57976 0.47014 0.0
C1514 C 0.53274 0.56387 0.47757 0.0
H1515 H 0.48299 0.4538 0.47492 0.0
H1516 H 0.48682 0.50822 0.47049 0.0
H1517 H 0.51434 0.47353 0.47335 0.0
H1518 H 0.57449 0.50348 0.49861 0.0
H1519 H 0.60476 0.53132 0.48559 0.0
H1520 H 0.14282 0.75124 0.33299 0.0
H1521 H 0.13875 0.81012 0.34731 0.0
H1522 H 0.1 0.72866 0.37046 0.0
H1523 H 0.10357 0.66883 0.35589 0.0
H1524 H 0.07692 0.8101 0.36568 0.0
H1525 H 0.18195 0.82381 0.38325 0.0
H1526 H 0.17348 0.82528 0.36601 0.0
H1527 H 0.16754 0.77786 0.37455 0.0
C1528 C 0.13344 0.74543 0.34112 0.0
C1529 C 0.12376 0.70488 0.34333 0.0
C1530 C 0.13122 0.77933 0.34934 0.0
C1531 C 0.11952 0.77369 0.36009 0.0
C1532 C 0.10928 0.73363 0.36225 0.0
H1533 H 0.14209 0.96216 0.42115 0.0
H1534 H 0.13869 0.89642 0.40879 0.0
C1535 C 0.11142 0.69944 0.35395 0.0
C1536 C 0.11835 0.8099 0.36901 0.0
H1537 H 0.15638 0.88283 0.38743 0.0
C1538 C 0.09427 0.8258 0.37056 0.0
C1539 C 0.14098 0.83009 0.37549 0.0
C1540 C 0.16745 0.81315 0.37486 0.0
C1541 C 0.09225 0.86215 0.3781 0.0
C1542 C 0.11491 0.88355 0.38406 0.0
C1543 C 0.13895 0.86682 0.38277 0.0
C1544 C 0.11449 0.92293 0.39186 0.0
C1545 C 0.06589 0.87694 0.37972 0.0
C1546 C 0.10175 0.95994 0.38656 0.0
C1547 C 0.10346 0.99781 0.3937 0.0
C1548 C 0.11832 0.99949 0.40619 0.0
C1549 C 0.13063 0.96218 0.41152 0.0
C1550 C 0.12869 0.92443 0.40446 0.0
H1551 H 0.05154 0.85082 0.37786 0.0
H1552 H 0.06621 0.88949 0.38958 0.0
H1553 H 0.0594 0.90277 0.37272 0.0
H1554 H 0.09115 0.95996 0.37675 0.0
H1555 H 0.09388 0.02602 0.3893 0.0
H1556 H 0.16507 0.17034 0.40436 0.0
H1557 H 0.17286 0.23042 0.39066 0.0
H1558 H 0.11917 0.30689 0.40692 0.0
H1559 H 0.11168 0.24817 0.42066 0.0
H1560 H 0.14017 0.27599 0.3722 0.0
H1561 H 0.18188 0.38315 0.412 0.0
H1562 H 0.17762 0.32692 0.41436 0.0
H1563 H 0.15115 0.36322 0.41411 0.0
C1564 C 0.1549 0.19994 0.40499 0.0
C1565 C 0.13783 0.20427 0.41369 0.0
C1566 C 0.15943 0.23428 0.39718 0.0
C1567 C 0.14708 0.27356 0.39799 0.0
C1568 C 0.12952 0.27741 0.40638 0.0
H1569 H 0.10406 0.47602 0.34528 0.0
H1570 H 0.1097 0.41109 0.35799 0.0
C1571 C 0.12507 0.24343 0.41417 0.0
C1572 C 0.15172 0.31054 0.38992 0.0
H1573 H 0.16503 0.41696 0.39167 0.0
C1574 C 0.14602 0.30665 0.37646 0.0
C1575 C 0.1599 0.35045 0.39542 0.0
C1576 C 0.16826 0.35611 0.40977 0.0
C1577 C 0.1467 0.3421 0.3684 0.0
C1578 C 0.1527 0.38273 0.37395 0.0
C1579 C 0.16001 0.38606 0.38738 0.0
C1580 C 0.1498 0.42241 0.3661 0.0
C1581 C 0.14074 0.33564 0.354 0.0
C1582 C 0.17018 0.45157 0.36676 0.0
C1583 C 0.1669 0.48941 0.35957 0.0
C1584 C 0.14313 0.49883 0.35164 0.0
C1585 C 0.12273 0.46976 0.35117 0.0
C1586 C 0.12598 0.43226 0.35836 0.0
H1587 H 0.14556 0.30279 0.35139 0.0
H1588 H 0.11982 0.34042 0.35049 0.0
H1589 H 0.15147 0.35847 0.34895 0.0
H1590 H 0.18867 0.44493 0.37277 0.0
H1591 H 0.183 0.51107 0.36017 0.0
H1592 H 0.15057 0.24461 0.83623 0.0
H1593 H 0.14427 0.30364 0.8501 0.0
H1594 H 0.08817 0.23066 0.86574 0.0
H1595 H 0.09487 0.17031 0.85199 0.0
H1596 H 0.10094 0.34926 0.85063 0.0
H1597 H 0.13526 0.27276 0.89817 0.0
H1598 H 0.14062 0.24954 0.88327 0.0
H1599 H 0.10955 0.24567 0.88778 0.0
C1600 C 0.13706 0.24061 0.84269 0.0
C1601 C 0.1234 0.2023 0.84303 0.0
C1602 C 0.13339 0.27468 0.8506 0.0
C1603 C 0.11591 0.27163 0.85905 0.0
C1604 C 0.10213 0.23355 0.85946 0.0
H1605 H 0.07824 0.50964 0.89658 0.0
H1606 H 0.07322 0.44438 0.8836 0.0
C1607 C 0.10593 0.19909 0.85157 0.0
C1608 C 0.11219 0.30894 0.86719 0.0
H1609 H 0.12122 0.34374 0.89833 0.0
C1610 C 0.10514 0.34801 0.86107 0.0
C1611 C 0.11784 0.30732 0.88081 0.0
C1612 C 0.12644 0.26672 0.88794 0.0
C1613 C 0.10443 0.38569 0.86815 0.0
C1614 C 0.11034 0.38418 0.88176 0.0
C1615 C 0.11656 0.34485 0.8879 0.0
C1616 C 0.11259 0.42339 0.88979 0.0
C1617 C 0.09863 0.42707 0.86094 0.0
C1618 C 0.13614 0.43287 0.89781 0.0
C1619 C 0.13897 0.46973 0.90529 0.0
C1620 C 0.1183 0.4982 0.90495 0.0
C1621 C 0.09461 0.48864 0.89697 0.0
C1622 C 0.09174 0.4514 0.88952 0.0
H1623 H 0.10022 0.42403 0.85064 0.0
H1624 H 0.07867 0.43705 0.86136 0.0
H1625 H 0.11191 0.45255 0.86536 0.0
H1626 H 0.15251 0.41187 0.89819 0.0
H1627 H 0.1575 0.47595 0.91131 0.0
H1628 H 0.10903 0.74421 0.91951 0.0
H1629 H 0.11546 0.80337 0.90568 0.0
H1630 H 0.17242 0.73103 0.89049 0.0
H1631 H 0.16561 0.67057 0.90419 0.0
H1632 H 0.15871 0.84949 0.90538 0.0
H1633 H 0.12587 0.77256 0.85781 0.0
H1634 H 0.12023 0.74931 0.87266 0.0
H1635 H 0.15149 0.74574 0.86835 0.0
C1636 C 0.12276 0.74038 0.91315 0.0
C1637 C 0.13663 0.70222 0.91292 0.0
C1638 C 0.12651 0.77453 0.90527 0.0
C1639 C 0.14426 0.77168 0.89695 0.0
C1640 C 0.15825 0.73375 0.89666 0.0
H1641 H 0.182 0.00999 0.85951 0.0
H1642 H 0.18702 0.94479 0.87254 0.0
C1643 C 0.15438 0.69923 0.90452 0.0
C1644 C 0.14804 0.80902 0.88883 0.0
H1645 H 0.13971 0.84365 0.85767 0.0
C1646 C 0.15479 0.84817 0.89494 0.0
C1647 C 0.14276 0.80731 0.87521 0.0
C1648 C 0.13448 0.76663 0.86807 0.0
C1649 C 0.15557 0.88584 0.88785 0.0
C1650 C 0.15003 0.88423 0.87423 0.0
C1651 C 0.1441 0.84483 0.86811 0.0
C1652 C 0.1478 0.92339 0.86616 0.0
C1653 C 0.16105 0.92728 0.89503 0.0
C1654 C 0.12435 0.93264 0.85803 0.0
C1655 C 0.12152 0.96946 0.85051 0.0
C1656 C 0.14209 0.99815 0.85095 0.0
C1657 C 0.1657 0.98882 0.85904 0.0
C1658 C 0.16857 0.95161 0.86653 0.0
H1659 H 0.15924 0.92426 0.90531 0.0
H1660 H 0.18101 0.93747 0.89471 0.0
H1661 H 0.14773 0.95263 0.89052 0.0
H1662 H 0.10803 0.91147 0.85758 0.0
H1663 H 0.10305 0.97548 0.84441 0.0
H1664 H 0.86194 0.2671 0.67001 0.0
H1665 H 0.86914 0.20791 0.65639 0.0
H1666 H 0.92346 0.28291 0.64011 0.0
H1667 H 0.91597 0.34342 0.65367 0.0
H1668 H 0.89059 0.23794 0.62169 0.0
H1669 H 0.93131 0.13035 0.66162 0.0
H1670 H 0.90067 0.15094 0.66364 0.0
H1671 H 0.9274 0.18669 0.66393 0.0
C1672 C 0.87541 0.27141 0.66354 0.0
C1673 C 0.88842 0.31027 0.663 0.0
C1674 C 0.87969 0.23716 0.65582 0.0
C1675 C 0.89734 0.24049 0.64746 0.0
C1676 C 0.90996 0.27946 0.6466 0.0
H1677 H 0.93231 1.00223 0.60984 0.0
H1678 H 0.9382 0.0683 0.62245 0.0
C1679 C 0.90559 0.31406 0.65433 0.0
C1680 C 0.90178 0.20331 0.63943 0.0
H1681 H 0.91447 0.09669 0.64128 0.0
C1682 C 0.89622 0.2072 0.62597 0.0
C1683 C 0.90968 0.16332 0.64498 0.0
C1684 C 0.91788 0.15765 0.65933 0.0
C1685 C 0.89678 0.17169 0.61794 0.0
C1686 C 0.9025 0.13101 0.62353 0.0
C1687 C 0.90965 0.12765 0.63697 0.0
C1688 C 0.89946 0.09135 0.6157 0.0
C1689 C 0.89099 0.17813 0.60354 0.0
C1690 C 0.87563 0.08186 0.60793 0.0
C1691 C 0.87225 0.0444 0.60073 0.0
C1692 C 0.89253 0.01506 0.60124 0.0
C1693 C 0.9163 0.02412 0.60922 0.0
C1694 C 0.91971 0.06191 0.6164 0.0
H1695 H 0.89601 0.21088 0.60092 0.0
H1696 H 0.90166 0.15508 0.59854 0.0
H1697 H 0.87006 0.17365 0.59998 0.0
H1698 H 0.85945 0.10327 0.60753 0.0
H1699 H 0.85359 0.0384 0.59481 0.0
H1700 H 0.90688 0.53881 0.66203 0.0
H1701 H 0.9012 0.60355 0.64922 0.0
H1702 H 0.82291 0.5677 0.63365 0.0
H1703 H 0.82863 0.50175 0.64634 0.0
H1704 H 0.84728 0.59616 0.61507 0.0
H1705 H 0.86385 0.71089 0.65528 0.0
H1706 H 0.89001 0.67394 0.6565 0.0
H1707 H 0.85835 0.65506 0.65769 0.0
C1708 C 0.88835 0.54459 0.65595 0.0
C1709 C 0.86816 0.51502 0.65527 0.0
C1710 C 0.88507 0.58198 0.64869 0.0
C1711 C 0.86142 0.59119 0.64071 0.0
C1712 C 0.84126 0.56154 0.63986 0.0
H1713 H 0.84458 0.84296 0.60256 0.0
H1714 H 0.83724 0.78224 0.61608 0.0
C1715 C 0.84457 0.52381 0.64709 0.0
C1716 C 0.8585 0.63075 0.63281 0.0
H1717 H 0.86983 0.73783 0.63458 0.0
C1718 C 0.85181 0.62721 0.61936 0.0
C1719 C 0.86385 0.67154 0.63837 0.0
C1720 C 0.86913 0.67817 0.65276 0.0
C1721 C 0.85185 0.66282 0.61132 0.0
C1722 C 0.85937 0.70297 0.61685 0.0
C1723 C 0.8645 0.707 0.63031 0.0
C1724 C 0.86372 0.74024 0.60883 0.0
C1725 C 0.84408 0.65694 0.59695 0.0
C1726 C 0.88152 0.73725 0.60053 0.0
C1727 C 0.8857 0.77162 0.59282 0.0
C1728 C 0.87245 0.8103 0.59331 0.0
C1729 C 0.85514 0.81375 0.60192 0.0
C1730 C 0.85086 0.77903 0.60963 0.0
H1731 H 0.83083 0.62946 0.59462 0.0
H1732 H 0.83452 0.68582 0.59226 0.0
H1733 H 0.8615 0.6504 0.5928 0.0
H1734 H 0.89226 0.70817 0.6 0.0
H1735 H 0.89928 0.76759 0.58639 0.0
H1736 H 0.85446 0.53945 0.0949 0.0
H1737 H 0.85989 0.60424 0.10767 0.0
H1738 H 0.93816 0.56871 0.12345 0.0
H1739 H 0.9327 0.50273 0.1108 0.0
H1740 H 0.9135 0.59701 0.14193 0.0
H1741 H 0.89716 0.71173 0.10166 0.0
H1742 H 0.87105 0.67468 0.1004 0.0
H1743 H 0.90279 0.65592 0.09929 0.0
C1744 C 0.87293 0.54532 0.10102 0.0
C1745 C 0.8932 0.51583 0.10177 0.0
C1746 C 0.87607 0.58273 0.10825 0.0
C1747 C 0.89964 0.59203 0.11628 0.0
C1748 C 0.91987 0.56247 0.11721 0.0
H1749 H 0.91622 0.84358 0.15448 0.0
H1750 H 0.92363 0.78295 0.14095 0.0
C1751 C 0.91671 0.52473 0.11 0.0
C1752 C 0.90242 0.6316 0.12416 0.0
H1753 H 0.89103 0.73868 0.12232 0.0
C1754 C 0.90898 0.62806 0.13762 0.0
C1755 C 0.89708 0.67238 0.11858 0.0
C1756 C 0.89191 0.67899 0.10418 0.0
C1757 C 0.90884 0.66367 0.14563 0.0
C1758 C 0.90135 0.70381 0.14007 0.0
C1759 C 0.89633 0.70784 0.12661 0.0
C1760 C 0.89691 0.74107 0.14806 0.0
C1761 C 0.91646 0.65779 0.16001 0.0
C1762 C 0.87895 0.73812 0.15627 0.0
C1763 C 0.87473 0.77243 0.16398 0.0
C1764 C 0.8881 0.811 0.16358 0.0
C1765 C 0.90557 0.81444 0.15505 0.0
C1766 C 0.90988 0.77978 0.14733 0.0
H1767 H 0.92966 0.63026 0.16239 0.0
H1768 H 0.92602 0.68665 0.16471 0.0
H1769 H 0.89897 0.65138 0.16412 0.0
H1770 H 0.86814 0.70909 0.15674 0.0
H1771 H 0.86103 0.76841 0.17035 0.0
H1772 H 0.90736 0.03988 0.1629 0.0
H1773 H 0.90183 0.10472 0.15013 0.0
H1774 H 0.82392 0.06831 0.134 0.0
H1775 H 0.82948 1.00229 0.14665 0.0
H1776 H 0.84899 0.09703 0.11567 0.0
H1777 H 0.86374 0.21168 0.15591 0.0
H1778 H 0.89004 0.17492 0.15735 0.0
H1779 H 0.85829 0.15579 0.15825 0.0
C1780 C 0.88894 0.04556 0.1567 0.0
C1781 C 0.86881 0.01581 0.15586 0.0
C1782 C 0.88575 0.083 0.14947 0.0
C1783 C 0.86225 0.09206 0.14134 0.0
C1784 C 0.84215 0.06225 0.14032 0.0
H1785 H 0.84549 0.34351 0.10295 0.0
H1786 H 0.83792 0.28281 0.11644 0.0
C1787 C 0.84537 0.02448 0.14754 0.0
C1788 C 0.85944 0.13164 0.13345 0.0
H1789 H 0.87032 0.23884 0.13534 0.0
C1790 C 0.85325 0.1281 0.11999 0.0
C1791 C 0.86445 0.17244 0.13905 0.0
C1792 C 0.86921 0.17902 0.15344 0.0
C1793 C 0.85347 0.16376 0.11199 0.0
C1794 C 0.86064 0.20395 0.11758 0.0
C1795 C 0.86526 0.20797 0.13104 0.0
C1796 C 0.8652 0.24128 0.10963 0.0
C1797 C 0.84629 0.15788 0.09759 0.0
C1798 C 0.88352 0.23854 0.10161 0.0
C1799 C 0.88784 0.2729 0.09393 0.0
C1800 C 0.8742 0.31129 0.09417 0.0
C1801 C 0.85637 0.31452 0.10252 0.0
C1802 C 0.85196 0.27982 0.1102 0.0
H1803 H 0.83327 0.13019 0.09512 0.0
H1804 H 0.8367 0.18664 0.09283 0.0
H1805 H 0.86398 0.15174 0.09363 0.0
H1806 H 0.89453 0.20965 0.10126 0.0
H1807 H 0.90183 0.26905 0.0877 0.0
H1808 H 0.60657 0.66706 0.85619 0.0
H1809 H 0.60298 0.72779 0.87038 0.0
H1810 H 0.63707 0.80945 0.84533 0.0
H1811 H 0.64134 0.74956 0.83143 0.0
H1812 H 0.65928 0.82046 0.86987 0.0
H1813 H 0.55308 0.82744 0.86554 0.0
H1814 H 0.56719 0.77699 0.8708 0.0
H1815 H 0.56855 0.79591 0.85488 0.0
C1816 C 0.61323 0.69799 0.8537 0.0
C1817 C 0.62433 0.70318 0.84266 0.0
C1818 C 0.61096 0.73277 0.86177 0.0
C1819 C 0.61946 0.7734 0.85885 0.0
C1820 C 0.63034 0.77853 0.8478 0.0
H1821 H 0.59489 0.02405 0.88997 0.0
H1822 H 0.59232 0.95907 0.87687 0.0
C1823 C 0.63277 0.744 0.83984 0.0
C1824 C 0.61837 0.81057 0.86746 0.0
H1825 H 0.5776 0.8748 0.88048 0.0
C1826 C 0.6414 0.83225 0.87219 0.0
C1827 C 0.595 0.8264 0.87035 0.0
C1828 C 0.56949 0.80579 0.86505 0.0
C1829 C 0.64176 0.86917 0.87967 0.0
C1830 C 0.61852 0.8844 0.88287 0.0
C1831 C 0.59542 0.86292 0.87812 0.0
C1832 C 0.61809 0.92257 0.89114 0.0
C1833 C 0.66702 0.89213 0.88379 0.0
C1834 C 0.63276 0.92325 0.90364 0.0
C1835 C 0.63448 0.96025 0.91104 0.0
C1836 C 0.62122 0.99738 0.90621 0.0
C1837 C 0.60543 0.99609 0.89394 0.0
C1838 C 0.60392 0.95897 0.88646 0.0
H1839 H 0.68114 0.88366 0.87761 0.0
H1840 H 0.66427 0.92715 0.88346 0.0
H1841 H 0.67545 0.88297 0.89383 0.0
H1842 H 0.64334 0.89528 0.90759 0.0
H1843 H 0.64649 0.95981 0.92053 0.0
H1844 H 0.6131 0.24421 0.92135 0.0
H1845 H 0.61915 0.3031 0.90736 0.0
H1846 H 0.67382 0.229 0.89103 0.0
H1847 H 0.66739 0.16879 0.90492 0.0
H1848 H 0.66259 0.34794 0.90633 0.0
H1849 H 0.62569 0.272 0.859 0.0
H1850 H 0.62086 0.24896 0.87402 0.0
H1851 H 0.65157 0.24445 0.86915 0.0
C1852 C 0.62625 0.23993 0.91472 0.0
C1853 C 0.63959 0.20135 0.91423 0.0
C1854 C 0.62978 0.27393 0.90674 0.0
C1855 C 0.64678 0.27054 0.89806 0.0
C1856 C 0.66023 0.23217 0.89749 0.0
H1857 H 0.68385 0.50784 0.85982 0.0
H1858 H 0.68909 0.44259 0.87283 0.0
C1859 C 0.65658 0.19779 0.90547 0.0
C1860 C 0.65034 0.30779 0.88984 0.0
H1861 H 0.63998 0.34277 0.85867 0.0
C1862 C 0.65788 0.34675 0.89589 0.0
C1863 C 0.64402 0.30628 0.87623 0.0
C1864 C 0.63488 0.26583 0.86917 0.0
C1865 C 0.65847 0.38443 0.88878 0.0
C1866 C 0.65189 0.38303 0.87517 0.0
C1867 C 0.64515 0.34381 0.8691 0.0
C1868 C 0.64948 0.42231 0.86714 0.0
C1869 C 0.66486 0.4257 0.89594 0.0
C1870 C 0.6257 0.43224 0.85939 0.0
C1871 C 0.62273 0.46911 0.85189 0.0
C1872 C 0.64349 0.49717 0.85194 0.0
C1873 C 0.66741 0.48718 0.85966 0.0
C1874 C 0.67041 0.44993 0.86713 0.0
H1875 H 0.66382 0.42268 0.90632 0.0
H1876 H 0.68475 0.43534 0.89525 0.0
H1877 H 0.65156 0.45141 0.89169 0.0
H1878 H 0.60925 0.41156 0.85923 0.0
H1879 H 0.60402 0.47563 0.84609 0.0
H1880 H 0.59591 0.17079 0.35297 0.0
H1881 H 0.58831 0.23136 0.36647 0.0
H1882 H 0.64411 0.30527 0.35092 0.0
H1883 H 0.65141 0.24599 0.33734 0.0
H1884 H 0.62067 0.27544 0.38521 0.0
H1885 H 0.58267 0.38423 0.34513 0.0
H1886 H 0.58632 0.32786 0.34279 0.0
H1887 H 0.61341 0.3631 0.3435 0.0
C1888 C 0.60659 0.19992 0.35245 0.0
C1889 C 0.6242 0.20339 0.34399 0.0
C1890 C 0.60217 0.23455 0.36015 0.0
C1891 C 0.61517 0.27326 0.35948 0.0
C1892 C 0.63327 0.27625 0.35134 0.0
H1893 H 0.6573 0.47425 0.41282 0.0
H1894 H 0.65185 0.40959 0.4 0.0
C1895 C 0.6376 0.24196 0.34364 0.0
C1896 C 0.61063 0.31047 0.36747 0.0
H1897 H 0.5986 0.4173 0.36566 0.0
C1898 C 0.61545 0.30632 0.38093 0.0
C1899 C 0.60325 0.35066 0.36192 0.0
C1900 C 0.59584 0.35667 0.34754 0.0
C1901 C 0.61463 0.34172 0.38897 0.0
C1902 C 0.6094 0.38255 0.38341 0.0
C1903 C 0.60302 0.38622 0.36995 0.0
C1904 C 0.61217 0.42204 0.39132 0.0
C1905 C 0.61959 0.33499 0.40336 0.0
C1906 C 0.59198 0.45169 0.39038 0.0
C1907 C 0.59515 0.48936 0.39763 0.0
C1908 C 0.61863 0.49809 0.40591 0.0
C1909 C 0.63885 0.46851 0.40666 0.0
C1910 C 0.63571 0.43118 0.3994 0.0
H1911 H 0.61425 0.30225 0.40583 0.0
H1912 H 0.64043 0.3392 0.40721 0.0
H1913 H 0.60866 0.35806 0.40822 0.0
H1914 H 0.57372 0.44558 0.38409 0.0
H1915 H 0.5792 0.51143 0.39681 0.0
H1916 H 0.61041 0.74487 0.42037 0.0
H1917 H 0.61687 0.80395 0.40652 0.0
H1918 H 0.67317 0.73095 0.39104 0.0
H1919 H 0.66632 0.67055 0.40476 0.0
H1920 H 0.66021 0.84953 0.40611 0.0
H1921 H 0.62644 0.77327 0.35852 0.0
H1922 H 0.62091 0.74998 0.37338 0.0
H1923 H 0.65207 0.74615 0.36896 0.0
C1924 C 0.624 0.74087 0.41395 0.0
C1925 C 0.63768 0.70255 0.41364 0.0
C1926 C 0.62776 0.77497 0.40605 0.0
C1927 C 0.64535 0.77193 0.39765 0.0
C1928 C 0.65914 0.73383 0.39728 0.0
H1929 H 0.68325 0.01036 0.36033 0.0
H1930 H 0.68823 0.94497 0.37327 0.0
C1931 C 0.65525 0.69934 0.40515 0.0
C1932 C 0.64916 0.80929 0.38954 0.0
H1933 H 0.64045 0.84427 0.3584 0.0
C1934 C 0.65612 0.84833 0.39567 0.0
C1935 C 0.64366 0.80775 0.37592 0.0
C1936 C 0.63515 0.76719 0.36876 0.0
C1937 C 0.65689 0.88606 0.38861 0.0
C1938 C 0.65113 0.88463 0.37498 0.0
C1939 C 0.64499 0.84533 0.36884 0.0
C1940 C 0.64893 0.92389 0.36696 0.0
C1941 C 0.66258 0.9274 0.39582 0.0
C1942 C 0.62543 0.93339 0.35888 0.0
C1943 C 0.62263 0.97032 0.35142 0.0
C1944 C 0.64326 0.99889 0.35185 0.0
C1945 C 0.6669 0.9893 0.35988 0.0
C1946 C 0.66975 0.95198 0.36731 0.0
H1947 H 0.66088 0.92429 0.40611 0.0
H1948 H 0.68256 0.9374 0.39546 0.0
H1949 H 0.64932 0.9529 0.39138 0.0
H1950 H 0.60907 0.91233 0.35845 0.0
H1951 H 0.60413 0.97654 0.34536 0.0
H1952 H 0.40561 0.34818 0.15103 0.0
H1953 H 0.40797 0.28865 0.1362 0.0
H1954 H 0.37519 0.20502 0.16121 0.0
H1955 H 0.37225 0.26363 0.1758 0.0
H1956 H 0.43257 0.20876 0.13974 0.0
H1957 H 0.32687 0.18962 0.12683 0.0
H1958 H 0.34168 0.23599 0.13512 0.0
H1959 H 0.33828 0.18789 0.14391 0.0
C1960 C 0.39886 0.31712 0.15334 0.0
C1961 C 0.38842 0.31101 0.16455 0.0
C1962 C 0.40029 0.28312 0.14488 0.0
C1963 C 0.39128 0.24256 0.14747 0.0
C1964 C 0.38167 0.23621 0.15884 0.0
H1965 H 0.41643 0.99299 0.11626 0.0
H1966 H 0.41987 0.05875 0.12895 0.0
C1967 C 0.3801 0.26994 0.16721 0.0
C1968 C 0.39145 0.20661 0.13835 0.0
H1969 H 0.35221 0.13198 0.12142 0.0
C1970 C 0.415 0.19218 0.13561 0.0
C1971 C 0.36848 0.1853 0.13283 0.0
C1972 C 0.34238 0.20073 0.13471 0.0
C1973 C 0.41626 0.1562 0.12781 0.0
C1974 C 0.3934 0.13361 0.12284 0.0
C1975 C 0.36981 0.14888 0.12532 0.0
C1976 C 0.39311 0.09446 0.11487 0.0
C1977 C 0.442 0.14312 0.12485 0.0
C1978 C 0.37669 0.09225 0.10283 0.0
C1979 C 0.37432 0.0546 0.09571 0.0
C1980 C 0.38844 0.01815 0.10042 0.0
C1981 C 0.4054 0.02056 0.11233 0.0
C1982 C 0.40753 0.05827 0.11955 0.0
H1983 H 0.45577 0.17014 0.12601 0.0
H1984 H 0.45034 0.1177 0.13166 0.0
H1985 H 0.44003 0.13061 0.11489 0.0
H1986 H 0.36534 0.11961 0.09899 0.0
H1987 H 0.36121 0.05404 0.08653 0.0
H1988 H 0.33124 0.50428 0.14687 0.0
H1989 H 0.32671 0.56937 0.13379 0.0
H1990 H 0.40522 0.60318 0.14962 0.0
H1991 H 0.40973 0.53926 0.16282 0.0
H1992 H 0.37317 0.67083 0.14913 0.0
H1993 H 0.35629 0.59021 0.1015 0.0
H1994 H 0.33396 0.57655 0.11177 0.0
H1995 H 0.36727 0.56195 0.11636 0.0
C1996 C 0.34754 0.52554 0.14752 0.0
C1997 C 0.37087 0.51634 0.15587 0.0
C1998 C 0.34496 0.56267 0.14 0.0
C1999 C 0.36574 0.59101 0.14059 0.0
C2000 C 0.38891 0.58192 0.14898 0.0
H2001 H 0.40314 0.77359 0.08726 0.0
H2002 H 0.39827 0.71384 0.10122 0.0
C2003 C 0.39146 0.54514 0.15652 0.0
C2004 C 0.36378 0.63019 0.13253 0.0
H2005 H 0.35596 0.66506 0.10141 0.0
C2006 C 0.36921 0.66964 0.13869 0.0
C2007 C 0.35884 0.62858 0.11891 0.0
C2008 C 0.35397 0.58708 0.1117 0.0
C2009 C 0.37045 0.70729 0.13163 0.0
C2010 C 0.36562 0.70564 0.11801 0.0
C2011 C 0.35955 0.66636 0.11185 0.0
C2012 C 0.36875 0.74344 0.10994 0.0
C2013 C 0.37806 0.74811 0.13883 0.0
C2014 C 0.35389 0.78042 0.11021 0.0
C2015 C 0.35684 0.81522 0.10228 0.0
C2016 C 0.37451 0.81347 0.09381 0.0
C2017 C 0.3894 0.77638 0.09366 0.0
C2018 C 0.38656 0.74193 0.10161 0.0
H2019 H 0.38674 0.74221 0.14909 0.0
H2020 H 0.39204 0.76626 0.13428 0.0
H2021 H 0.36071 0.76817 0.13858 0.0
H2022 H 0.33968 0.7821 0.11638 0.0
H2023 H 0.34485 0.84301 0.10256 0.0
H2024 H 0.36165 0.76572 0.67042 0.0
H2025 H 0.36889 0.70648 0.65681 0.0
H2026 H 0.42425 0.7807 0.64104 0.0
H2027 H 0.41672 0.84124 0.65457 0.0
H2028 H 0.39171 0.73648 0.6224 0.0
H2029 H 0.43047 0.6278 0.66237 0.0
H2030 H 0.39978 0.6488 0.66414 0.0
H2031 H 0.42679 0.68416 0.66474 0.0
C2032 C 0.37536 0.76983 0.66406 0.0
C2033 C 0.38865 0.80848 0.66366 0.0
C2034 C 0.37966 0.73556 0.65635 0.0
C2035 C 0.39761 0.73865 0.64814 0.0
C2036 C 0.41051 0.77743 0.64742 0.0
H2037 H 0.43283 0.50046 0.61057 0.0
H2038 H 0.4386 0.56631 0.62328 0.0
C2039 C 0.40612 0.81204 0.65513 0.0
C2040 C 0.40208 0.70147 0.64012 0.0
H2041 H 0.41418 0.59466 0.64189 0.0
C2042 C 0.39702 0.70562 0.62666 0.0
C2043 C 0.40957 0.6613 0.64565 0.0
C2044 C 0.41724 0.65532 0.66002 0.0
C2045 C 0.39771 0.67021 0.61861 0.0
C2046 C 0.40303 0.62939 0.62416 0.0
C2047 C 0.40967 0.62574 0.63761 0.0
C2048 C 0.40008 0.58988 0.61625 0.0
C2049 C 0.39247 0.67692 0.60421 0.0
C2050 C 0.37641 0.58077 0.60829 0.0
C2051 C 0.3731 0.54343 0.60103 0.0
C2052 C 0.39328 0.51384 0.60168 0.0
C2053 C 0.4169 0.52254 0.60984 0.0
C2054 C 0.42024 0.56021 0.61708 0.0
H2055 H 0.39776 0.70965 0.60171 0.0
H2056 H 0.40327 0.65383 0.59929 0.0
H2057 H 0.3716 0.67272 0.60046 0.0
H2058 H 0.36029 0.60238 0.60778 0.0
H2059 H 0.35455 0.53772 0.59497 0.0
H2060 H 0.34558 0.34144 0.60292 0.0
H2061 H 0.339 0.28096 0.61667 0.0
H2062 H 0.39441 0.20768 0.60062 0.0
H2063 H 0.40057 0.26682 0.58674 0.0
H2064 H 0.35126 0.16228 0.60139 0.0
H2065 H 0.38644 0.23829 0.64888 0.0
H2066 H 0.36057 0.26553 0.63864 0.0
H2067 H 0.39148 0.26166 0.63394 0.0
C2068 C 0.35652 0.31256 0.60241 0.0
C2069 C 0.37375 0.3093 0.59376 0.0
C2070 C 0.35278 0.27803 0.61031 0.0
C2071 C 0.36641 0.23983 0.60979 0.0
C2072 C 0.38365 0.23673 0.60121 0.0
H2073 H 0.40844 0.03505 0.66198 0.0
H2074 H 0.40337 0.09922 0.64887 0.0
C2075 C 0.38725 0.27087 0.5933 0.0
C2076 C 0.3628 0.20246 0.61794 0.0
H2077 H 0.37226 0.1674 0.64908 0.0
C2078 C 0.35563 0.16345 0.61183 0.0
C2079 C 0.36866 0.20395 0.63155 0.0
C2080 C 0.37742 0.24445 0.63869 0.0
C2081 C 0.35499 0.12571 0.6189 0.0
C2082 C 0.3611 0.1271 0.63252 0.0
C2083 C 0.36745 0.16637 0.63865 0.0
C2084 C 0.3634 0.08783 0.64054 0.0
C2085 C 0.34906 0.08441 0.61169 0.0
C2086 C 0.34257 0.05983 0.6403 0.0
C2087 C 0.34549 0.02254 0.64775 0.0
C2088 C 0.36922 0.01288 0.65568 0.0
C2089 C 0.38987 0.04134 0.656 0.0
C2090 C 0.38699 0.07825 0.64852 0.0
H2091 H 0.35055 0.08751 0.60138 0.0
H2092 H 0.36233 0.05882 0.61607 0.0
H2093 H 0.3291 0.07454 0.61216 0.0
H2094 H 0.32401 0.06692 0.63443 0.0
H2095 H 0.32913 1.00156 0.64738 0.0
loop_
_geom_bond_atom_site_label_1
_geom_bond_atom_site_label_2
_geom_bond_distance
_geom_bond_site_symmetry_2
_ccdc_geom_bond_type
Co0 O2 2.143 . S
Co0 O8 2.074 . S
Co0 O11 2.093 . S
Co0 O24 2.097 . S
Co0 N41 2.151 . S
Co0 N49 2.214 . S
Co1 O2 2.160 . S
Co1 O7 2.058 . S
Co1 O17 2.057 . S
Co1 O32 2.037 . S
Co1 N36 2.145 . S
Co1 N57 2.257 . S
O2 Co0 2.143 . S
O2 Co1 2.160 . S
C3 O4 1.278 . S
C3 O11 1.224 . S
O4 C3 1.278 . S
C5 O6 1.245 . S
C5 O17 1.232 . S
O6 C5 1.245 . S
O7 Co1 2.058 . S
O7 C33 1.269 . S
O8 Co0 2.074 . S
O8 C33 1.257 . S
H9 C34 0.930 . S
H10 C40 0.930 . S
O11 Co0 2.093 . S
O11 C3 1.224 . S
H12 C44 0.929 . S
H13 C46 0.930 . S
H14 C47 0.930 . S
H15 C45 0.929 . S
H16 C48 0.928 . S
O17 Co1 2.057 . S
O17 C5 1.232 . S
H18 C37 0.929 . S
H19 C38 0.929 . S
H20 C50 0.931 . S
H21 C42 0.929 . S
H22 C51 0.930 . S
H23 C43 0.931 . S
O24 Co0 2.097 . S
O24 C52 1.214 . S
H25 C53 0.929 . S
H26 C54 0.929 . S
H27 C55 0.930 . S
H28 C56 0.929 . S
H29 C58 0.930 . S
H30 C35 0.930 . S
H31 C39 0.930 . S
O32 Co1 2.037 . S
O32 C52 1.234 . S
C33 O7 1.269 . S
C33 O8 1.257 . S
C34 H9 0.930 . S
C34 C37 1.388 . S
C34 C39 1.418 . S
C35 H30 0.930 . S
C35 C38 1.404 . S
C35 C39 1.353 . S
N36 Co1 2.145 . S
N36 C37 1.397 . S
N36 C38 1.334 . S
C37 H18 0.929 . S
C37 C34 1.388 . S
C37 N36 1.397 . S
C38 H19 0.929 . S
C38 C35 1.404 . S
C38 N36 1.334 . S
C39 H31 0.930 . S
C39 C34 1.418 . S
C39 C35 1.353 . S
C40 H10 0.930 . S
C40 N41 1.330 1_565 S
C40 C42 1.446 . S
N41 Co0 2.151 . S
N41 C40 1.330 1_545 S
N41 C45 1.418 . S
C42 H21 0.929 . S
C42 C40 1.446 . S
C42 C43 1.332 . S
C43 H23 0.931 . S
C43 C42 1.332 . S
C43 C44 1.267 1_565 S
C44 H12 0.929 . S
C44 C43 1.267 1_545 S
C44 C45 1.251 . S
C45 H15 0.929 . S
C45 N41 1.418 . S
C45 C44 1.251 . S
C46 H13 0.930 . S
C46 C48 1.406 . S
C46 C51 1.261 . S
C47 H14 0.930 . S
C47 N49 1.325 . S
C47 C50 1.357 . S
C48 H16 0.928 . S
C48 C46 1.406 . S
C48 N49 1.261 . S
N49 Co0 2.214 . S
N49 C47 1.325 . S
N49 C48 1.261 . S
C50 H20 0.931 . S
C50 C47 1.357 . S
C50 C51 1.312 . S
C51 H22 0.930 . S
C51 C46 1.261 . S
C51 C50 1.312 . S
C52 O24 1.214 . S
C52 O32 1.234 . S
C53 H25 0.929 . S
C53 C56 1.391 . S
C53 C58 1.391 . S
C54 H26 0.929 . S
C54 C55 1.390 . S
C54 N57 1.391 . S
C55 H27 0.930 . S
C55 C54 1.390 . S
C55 C56 1.392 . S
C56 H28 0.929 . S
C56 C53 1.391 . S
C56 C55 1.392 . S
N57 Co1 2.257 . S
N57 C54 1.391 . S
N57 C58 1.388 . S
C58 H29 0.930 . S
C58 C53 1.391 . S
C58 N57 1.388 . S
Co59 O61 2.143 . S
Co59 O67 2.074 . S
Co59 O70 2.093 . S
Co59 O83 2.097 . S
Co59 N100 2.151 . S
Co59 N108 2.214 . S
Co60 O61 2.160 . S
Co60 O66 2.058 . S
Co60 O76 2.057 . S
Co60 O91 2.037 . S
Co60 N95 2.145 . S
Co60 N116 2.257 . S
O61 Co59 2.143 . S
O61 Co60 2.160 . S
C62 O63 1.278 . S
C62 O70 1.224 . S
O63 C62 1.278 . S
C64 O65 1.245 . S
C64 O76 1.232 . S
O65 C64 1.245 . S
O66 Co60 2.058 . S
O66 C92 1.269 . S
O67 Co59 2.074 . S
O67 C92 1.257 . S
H68 C93 0.930 . S
H69 C99 0.930 . S
O70 Co59 2.093 . S
O70 C62 1.224 . S
H71 C103 0.929 . S
H72 C105 0.930 . S
H73 C106 0.930 . S
H74 C104 0.929 . S
H75 C107 0.928 . S
O76 Co60 2.057 . S
O76 C64 1.232 . S
H77 C96 0.929 . S
H78 C97 0.929 . S
H79 C109 0.931 . S
H80 C101 0.929 . S
H81 C110 0.930 . S
H82 C102 0.931 . S
O83 Co59 2.097 . S
O83 C111 1.214 . S
H84 C112 0.929 . S
H85 C113 0.929 . S
H86 C114 0.930 . S
H87 C115 0.929 . S
H88 C117 0.930 . S
H89 C94 0.930 . S
H90 C98 0.930 . S
O91 Co60 2.037 . S
O91 C111 1.234 . S
C92 O66 1.269 . S
C92 O67 1.257 . S
C93 H68 0.930 . S
C93 C96 1.388 . S
C93 C98 1.418 . S
C94 H89 0.930 . S
C94 C97 1.404 . S
C94 C98 1.353 . S
N95 Co60 2.145 . S
N95 C96 1.397 . S
N95 C97 1.334 . S
C96 H77 0.929 . S
C96 C93 1.388 . S
C96 N95 1.397 . S
C97 H78 0.929 . S
C97 C94 1.404 . S
C97 N95 1.334 . S
C98 H90 0.930 . S
C98 C93 1.418 . S
C98 C94 1.353 . S
C99 H69 0.930 . S
C99 N100 1.330 1_565 S
C99 C101 1.446 . S
N100 Co59 2.151 . S
N100 C99 1.330 1_545 S
N100 C104 1.418 . S
C101 H80 0.929 . S
C101 C99 1.446 . S
C101 C102 1.332 . S
C102 H82 0.931 . S
C102 C101 1.332 . S
C102 C103 1.267 1_565 S
C103 H71 0.929 . S
C103 C102 1.267 1_545 S
C103 C104 1.251 . S
C104 H74 0.929 . S
C104 N100 1.418 . S
C104 C103 1.251 . S
C105 H72 0.930 . S
C105 C107 1.406 . S
C105 C110 1.261 . S
C106 H73 0.930 . S
C106 N108 1.325 . S
C106 C109 1.357 . S
C107 H75 0.928 . S
C107 C105 1.406 . S
C107 N108 1.261 . S
N108 Co59 2.214 . S
N108 C106 1.325 . S
N108 C107 1.261 . S
C109 H79 0.931 . S
C109 C106 1.357 . S
C109 C110 1.312 . S
C110 H81 0.930 . S
C110 C105 1.261 . S
C110 C109 1.312 . S
C111 O83 1.214 . S
C111 O91 1.234 . S
C112 H84 0.929 . S
C112 C115 1.391 . S
C112 C117 1.391 . S
C113 H85 0.929 . S
C113 C114 1.390 . S
C113 N116 1.391 . S
C114 H86 0.930 . S
C114 C113 1.390 . S
C114 C115 1.392 . S
C115 H87 0.929 . S
C115 C112 1.391 . S
C115 C114 1.392 . S
N116 Co60 2.257 . S
N116 C113 1.391 . S
N116 C117 1.388 . S
C117 H88 0.930 . S
C117 C112 1.391 . S
C117 N116 1.388 . S
Co118 O120 2.143 . S
Co118 O126 2.074 . S
Co118 O129 2.093 . S
Co118 O142 2.097 . S
Co118 N159 2.151 . S
Co118 N167 2.214 . S
Co119 O120 2.160 . S
Co119 O125 2.058 . S
Co119 O135 2.057 . S
Co119 O150 2.037 . S
Co119 N154 2.145 . S
Co119 N175 2.257 . S
O120 Co118 2.143 . S
O120 Co119 2.160 . S
C121 O122 1.278 . S
C121 O129 1.224 . S
O122 C121 1.278 . S
C123 O124 1.245 . S
C123 O135 1.232 . S
O124 C123 1.245 . S
O125 Co119 2.058 . S
O125 C151 1.269 . S
O126 Co118 2.074 . S
O126 C151 1.257 . S
H127 C152 0.930 . S
H128 C158 0.930 . S
O129 Co118 2.093 . S
O129 C121 1.224 . S
H130 C162 0.929 . S
H131 C164 0.930 . S
H132 C165 0.930 . S
H133 C163 0.929 . S
H134 C166 0.928 . S
O135 Co119 2.057 . S
O135 C123 1.232 . S
H136 C155 0.929 . S
H137 C156 0.929 . S
H138 C168 0.931 . S
H139 C160 0.929 . S
H140 C169 0.930 . S
H141 C161 0.931 . S
O142 Co118 2.097 . S
O142 C170 1.214 . S
H143 C171 0.929 . S
H144 C172 0.929 . S
H145 C173 0.930 . S
H146 C174 0.929 . S
H147 C176 0.930 . S
H148 C153 0.930 . S
H149 C157 0.930 . S
O150 Co119 2.037 . S
O150 C170 1.234 . S
C151 O125 1.269 . S
C151 O126 1.257 . S
C152 H127 0.930 . S
C152 C155 1.388 . S
C152 C157 1.418 . S
C153 H148 0.930 . S
C153 C156 1.404 . S
C153 C157 1.353 . S
N154 Co119 2.145 . S
N154 C155 1.397 . S
N154 C156 1.334 . S
C155 H136 0.929 . S
C155 C152 1.388 . S
C155 N154 1.397 . S
C156 H137 0.929 . S
C156 C153 1.404 . S
C156 N154 1.334 . S
C157 H149 0.930 . S
C157 C152 1.418 . S
C157 C153 1.353 . S
C158 H128 0.930 . S
C158 N159 1.330 1_545 S
C158 C160 1.446 . S
N159 Co118 2.151 . S
N159 C158 1.330 1_565 S
N159 C163 1.418 . S
C160 H139 0.929 . S
C160 C158 1.446 . S
C160 C161 1.332 . S
C161 H141 0.931 . S
C161 C160 1.332 . S
C161 C162 1.267 1_545 S
C162 H130 0.929 . S
C162 C161 1.267 1_565 S
C162 C163 1.251 . S
C163 H133 0.929 . S
C163 N159 1.418 . S
C163 C162 1.251 . S
C164 H131 0.930 . S
C164 C166 1.406 . S
C164 C169 1.261 . S
C165 H132 0.930 . S
C165 N167 1.325 . S
C165 C168 1.357 . S
C166 H134 0.928 . S
C166 C164 1.406 . S
C166 N167 1.261 . S
N167 Co118 2.214 . S
N167 C165 1.325 . S
N167 C166 1.261 . S
C168 H138 0.931 . S
C168 C165 1.357 . S
C168 C169 1.312 . S
C169 H140 0.930 . S
C169 C164 1.261 . S
C169 C168 1.312 . S
C170 O142 1.214 . S
C170 O150 1.234 . S
C171 H143 0.929 . S
C171 C174 1.391 . S
C171 C176 1.391 . S
C172 H144 0.929 . S
C172 C173 1.390 . S
C172 N175 1.391 . S
C173 H145 0.930 . S
C173 C172 1.390 . S
C173 C174 1.392 . S
C174 H146 0.929 . S
C174 C171 1.391 . S
C174 C173 1.392 . S
N175 Co119 2.257 . S
N175 C172 1.391 . S
N175 C176 1.388 . S
C176 H147 0.930 . S
C176 C171 1.391 . S
C176 N175 1.388 . S
Co177 O179 2.143 . S
Co177 O185 2.074 . S
Co177 O188 2.093 . S
Co177 O201 2.097 . S
Co177 N218 2.151 . S
Co177 N226 2.214 . S
Co178 O179 2.160 . S
Co178 O184 2.058 . S
Co178 O194 2.057 . S
Co178 O209 2.037 . S
Co178 N213 2.145 . S
Co178 N234 2.257 . S
O179 Co177 2.143 . S
O179 Co178 2.160 . S
C180 O181 1.278 . S
C180 O188 1.224 . S
O181 C180 1.278 . S
C182 O183 1.245 . S
C182 O194 1.232 . S
O183 C182 1.245 . S
O184 Co178 2.058 . S
O184 C210 1.269 . S
O185 Co177 2.074 . S
O185 C210 1.257 . S
H186 C211 0.930 . S
H187 C217 0.930 . S
O188 Co177 2.093 . S
O188 C180 1.224 . S
H189 C221 0.929 . S
H190 C223 0.930 . S
H191 C224 0.930 . S
H192 C222 0.929 . S
H193 C225 0.928 . S
O194 Co178 2.057 . S
O194 C182 1.232 . S
H195 C214 0.929 . S
H196 C215 0.929 . S
H197 C227 0.931 . S
H198 C219 0.929 . S
H199 C228 0.930 . S
H200 C220 0.931 . S
O201 Co177 2.097 . S
O201 C229 1.214 . S
H202 C230 0.929 . S
H203 C231 0.929 . S
H204 C232 0.930 . S
H205 C233 0.929 . S
H206 C235 0.930 . S
H207 C212 0.930 . S
H208 C216 0.930 . S
O209 Co178 2.037 . S
O209 C229 1.234 . S
C210 O184 1.269 . S
C210 O185 1.257 . S
C211 H186 0.930 . S
C211 C214 1.388 . S
C211 C216 1.418 . S
C212 H207 0.930 . S
C212 C215 1.404 . S
C212 C216 1.353 . S
N213 Co178 2.145 . S
N213 C214 1.397 . S
N213 C215 1.334 . S
C214 H195 0.929 . S
C214 C211 1.388 . S
C214 N213 1.397 . S
C215 H196 0.929 . S
C215 C212 1.404 . S
C215 N213 1.334 . S
C216 H208 0.930 . S
C216 C211 1.418 . S
C216 C212 1.353 . S
C217 H187 0.930 . S
C217 N218 1.330 1_545 S
C217 C219 1.446 . S
N218 Co177 2.151 . S
N218 C217 1.330 1_565 S
N218 C222 1.418 . S
C219 H198 0.929 . S
C219 C217 1.446 . S
C219 C220 1.332 . S
C220 H200 0.931 . S
C220 C219 1.332 . S
C220 C221 1.267 1_545 S
C221 H189 0.929 . S
C221 C220 1.267 1_565 S
C221 C222 1.251 . S
C222 H192 0.929 . S
C222 N218 1.418 . S
C222 C221 1.251 . S
C223 H190 0.930 . S
C223 C225 1.406 . S
C223 C228 1.261 . S
C224 H191 0.930 . S
C224 N226 1.325 . S
C224 C227 1.357 . S
C225 H193 0.928 . S
C225 C223 1.406 . S
C225 N226 1.261 . S
N226 Co177 2.214 . S
N226 C224 1.325 . S
N226 C225 1.261 . S
C227 H197 0.931 . S
C227 C224 1.357 . S
C227 C228 1.312 . S
C228 H199 0.930 . S
C228 C223 1.261 . S
C228 C227 1.312 . S
C229 O201 1.214 . S
C229 O209 1.234 . S
C230 H202 0.929 . S
C230 C233 1.391 . S
C230 C235 1.391 . S
C231 H203 0.929 . S
C231 C232 1.390 . S
C231 N234 1.391 . S
C232 H204 0.930 . S
C232 C231 1.390 . S
C232 C233 1.392 . S
C233 H205 0.929 . S
C233 C230 1.391 . S
C233 C232 1.392 . S
N234 Co178 2.257 . S
N234 C231 1.391 . S
N234 C235 1.388 . S
C235 H206 0.930 . S
C235 C230 1.391 . S
C235 N234 1.388 . S
Co236 O238 2.143 . S
Co236 O244 2.074 . S
Co236 O247 2.093 . S
Co236 O260 2.097 . S
Co236 N277 2.151 . S
Co236 N285 2.214 . S
Co237 O238 2.160 . S
Co237 O243 2.058 . S
Co237 O253 2.057 . S
Co237 O268 2.037 . S
Co237 N272 2.145 . S
Co237 N293 2.257 . S
O238 Co236 2.143 . S
O238 Co237 2.160 . S
C239 O240 1.278 . S
C239 O247 1.224 . S
O240 C239 1.278 . S
C241 O242 1.245 . S
C241 O253 1.232 . S
O242 C241 1.245 . S
O243 Co237 2.058 . S
O243 C269 1.269 . S
O244 Co236 2.074 . S
O244 C269 1.257 . S
H245 C270 0.930 . S
H246 C276 0.930 . S
O247 Co236 2.093 . S
O247 C239 1.224 . S
H248 C280 0.929 . S
H249 C282 0.930 . S
H250 C283 0.930 . S
H251 C281 0.929 . S
H252 C284 0.928 . S
O253 Co237 2.057 . S
O253 C241 1.232 . S
H254 C273 0.929 . S
H255 C274 0.929 . S
H256 C286 0.931 . S
H257 C278 0.929 . S
H258 C287 0.930 . S
H259 C279 0.931 . S
O260 Co236 2.097 . S
O260 C288 1.214 . S
H261 C289 0.929 . S
H262 C290 0.929 . S
H263 C291 0.930 . S
H264 C292 0.929 . S
H265 C294 0.930 . S
H266 C271 0.930 . S
H267 C275 0.930 . S
O268 Co237 2.037 . S
O268 C288 1.234 . S
C269 O243 1.269 . S
C269 O244 1.257 . S
C270 H245 0.930 . S
C270 C273 1.388 . S
C270 C275 1.418 . S
C271 H266 0.930 . S
C271 C274 1.404 . S
C271 C275 1.353 . S
N272 Co237 2.145 . S
N272 C273 1.397 . S
N272 C274 1.334 . S
C273 H254 0.929 . S
C273 C270 1.388 . S
C273 N272 1.397 . S
C274 H255 0.929 . S
C274 C271 1.404 . S
C274 N272 1.334 . S
C275 H267 0.930 . S
C275 C270 1.418 . S
C275 C271 1.353 . S
C276 H246 0.930 . S
C276 N277 1.330 . S
C276 C278 1.446 . S
N277 Co236 2.151 . S
N277 C276 1.330 . S
N277 C281 1.418 . S
C278 H257 0.929 . S
C278 C276 1.446 . S
C278 C279 1.332 . S
C279 H259 0.931 . S
C279 C278 1.332 . S
C279 C280 1.267 . S
C280 H248 0.929 . S
C280 C279 1.267 . S
C280 C281 1.251 . S
C281 H251 0.929 . S
C281 N277 1.418 . S
C281 C280 1.251 . S
C282 H249 0.930 . S
C282 C284 1.406 . S
C282 C287 1.261 . S
C283 H250 0.930 . S
C283 N285 1.325 . S
C283 C286 1.357 . S
C284 H252 0.928 . S
C284 C282 1.406 . S
C284 N285 1.261 . S
N285 Co236 2.214 . S
N285 C283 1.325 . S
N285 C284 1.261 . S
C286 H256 0.931 . S
C286 C283 1.357 . S
C286 C287 1.312 . S
C287 H258 0.930 . S
C287 C282 1.261 . S
C287 C286 1.312 . S
C288 O260 1.214 . S
C288 O268 1.234 . S
C289 H261 0.929 . S
C289 C292 1.391 . S
C289 C294 1.391 . S
C290 H262 0.929 . S
C290 C291 1.390 . S
C290 N293 1.391 . S
C291 H263 0.930 . S
C291 C290 1.390 . S
C291 C292 1.392 . S
C292 H264 0.929 . S
C292 C289 1.391 . S
C292 C291 1.392 . S
N293 Co237 2.257 . S
N293 C290 1.391 . S
N293 C294 1.388 . S
C294 H265 0.930 . S
C294 C289 1.391 . S
C294 N293 1.388 . S
Co295 O297 2.143 . S
Co295 O303 2.074 . S
Co295 O306 2.093 . S
Co295 O319 2.097 . S
Co295 N336 2.151 . S
Co295 N344 2.214 . S
Co296 O297 2.160 . S
Co296 O302 2.058 . S
Co296 O312 2.057 . S
Co296 O327 2.037 . S
Co296 N331 2.145 . S
Co296 N352 2.257 . S
O297 Co295 2.143 . S
O297 Co296 2.160 . S
C298 O299 1.278 . S
C298 O306 1.224 . S
O299 C298 1.278 . S
C300 O301 1.245 . S
C300 O312 1.232 . S
O301 C300 1.245 . S
O302 Co296 2.058 . S
O302 C328 1.269 . S
O303 Co295 2.074 . S
O303 C328 1.257 . S
H304 C329 0.930 . S
H305 C335 0.930 . S
O306 Co295 2.093 . S
O306 C298 1.224 . S
H307 C339 0.929 . S
H308 C341 0.930 . S
H309 C342 0.930 . S
H310 C340 0.929 . S
H311 C343 0.928 . S
O312 Co296 2.057 . S
O312 C300 1.232 . S
H313 C332 0.929 . S
H314 C333 0.929 . S
H315 C345 0.931 . S
H316 C337 0.929 . S
H317 C346 0.930 . S
H318 C338 0.931 . S
O319 Co295 2.097 . S
O319 C347 1.214 . S
H320 C348 0.929 . S
H321 C349 0.929 . S
H322 C350 0.930 . S
H323 C351 0.929 . S
H324 C353 0.930 . S
H325 C330 0.930 . S
H326 C334 0.930 . S
O327 Co296 2.037 . S
O327 C347 1.234 . S
C328 O302 1.269 . S
C328 O303 1.257 . S
C329 H304 0.930 . S
C329 C332 1.388 . S
C329 C334 1.418 . S
C330 H325 0.930 . S
C330 C333 1.404 . S
C330 C334 1.353 . S
N331 Co296 2.145 . S
N331 C332 1.397 . S
N331 C333 1.334 . S
C332 H313 0.929 . S
C332 C329 1.388 . S
C332 N331 1.397 . S
C333 H314 0.929 . S
C333 C330 1.404 . S
C333 N331 1.334 . S
C334 H326 0.930 . S
C334 C329 1.418 . S
C334 C330 1.353 . S
C335 H305 0.930 . S
C335 N336 1.330 . S
C335 C337 1.446 . S
N336 Co295 2.151 . S
N336 C335 1.330 . S
N336 C340 1.418 . S
C337 H316 0.929 . S
C337 C335 1.446 . S
C337 C338 1.332 . S
C338 H318 0.931 . S
C338 C337 1.332 . S
C338 C339 1.267 . S
C339 H307 0.929 . S
C339 C338 1.267 . S
C339 C340 1.251 . S
C340 H310 0.929 . S
C340 N336 1.418 . S
C340 C339 1.251 . S
C341 H308 0.930 . S
C341 C343 1.406 . S
C341 C346 1.261 . S
C342 H309 0.930 . S
C342 N344 1.325 . S
C342 C345 1.357 . S
C343 H311 0.928 . S
C343 C341 1.406 . S
C343 N344 1.261 . S
N344 Co295 2.214 . S
N344 C342 1.325 . S
N344 C343 1.261 . S
C345 H315 0.931 . S
C345 C342 1.357 . S
C345 C346 1.312 . S
C346 H317 0.930 . S
C346 C341 1.261 . S
C346 C345 1.312 . S
C347 O319 1.214 . S
C347 O327 1.234 . S
C348 H320 0.929 . S
C348 C351 1.391 . S
C348 C353 1.391 . S
C349 H321 0.929 . S
C349 C350 1.390 . S
C349 N352 1.391 . S
C350 H322 0.930 . S
C350 C349 1.390 . S
C350 C351 1.392 . S
C351 H323 0.929 . S
C351 C348 1.391 . S
C351 C350 1.392 . S
N352 Co296 2.257 . S
N352 C349 1.391 . S
N352 C353 1.388 . S
C353 H324 0.930 . S
C353 C348 1.391 . S
C353 N352 1.388 . S
Co354 O356 2.143 . S
Co354 O362 2.074 . S
Co354 O365 2.093 . S
Co354 O378 2.097 . S
Co354 N395 2.151 . S
Co354 N403 2.214 . S
Co355 O356 2.160 . S
Co355 O361 2.058 . S
Co355 O371 2.057 . S
Co355 O386 2.037 . S
Co355 N390 2.145 . S
Co355 N411 2.257 . S
O356 Co354 2.143 . S
O356 Co355 2.160 . S
C357 O358 1.278 . S
C357 O365 1.224 . S
O358 C357 1.278 . S
C359 O360 1.245 . S
C359 O371 1.232 . S
O360 C359 1.245 . S
O361 Co355 2.058 . S
O361 C387 1.269 . S
O362 Co354 2.074 . S
O362 C387 1.257 . S
H363 C388 0.930 . S
H364 C394 0.930 . S
O365 Co354 2.093 . S
O365 C357 1.224 . S
H366 C398 0.929 . S
H367 C400 0.930 . S
H368 C401 0.930 . S
H369 C399 0.929 . S
H370 C402 0.928 . S
O371 Co355 2.057 . S
O371 C359 1.232 . S
H372 C391 0.929 . S
H373 C392 0.929 . S
H374 C404 0.931 . S
H375 C396 0.929 . S
H376 C405 0.930 . S
H377 C397 0.931 . S
O378 Co354 2.097 . S
O378 C406 1.214 . S
H379 C407 0.929 . S
H380 C408 0.929 . S
H381 C409 0.930 . S
H382 C410 0.929 . S
H383 C412 0.930 . S
H384 C389 0.930 . S
H385 C393 0.930 . S
O386 Co355 2.037 . S
O386 C406 1.234 . S
C387 O361 1.269 . S
C387 O362 1.257 . S
C388 H363 0.930 . S
C388 C391 1.388 . S
C388 C393 1.418 . S
C389 H384 0.930 . S
C389 C392 1.404 . S
C389 C393 1.353 . S
N390 Co355 2.145 . S
N390 C391 1.397 . S
N390 C392 1.334 . S
C391 H372 0.929 . S
C391 C388 1.388 . S
C391 N390 1.397 . S
C392 H373 0.929 . S
C392 C389 1.404 . S
C392 N390 1.334 . S
C393 H385 0.930 . S
C393 C388 1.418 . S
C393 C389 1.353 . S
C394 H364 0.930 . S
C394 N395 1.330 . S
C394 C396 1.446 . S
N395 Co354 2.151 . S
N395 C394 1.330 . S
N395 C399 1.418 . S
C396 H375 0.929 . S
C396 C394 1.446 . S
C396 C397 1.332 . S
C397 H377 0.931 . S
C397 C396 1.332 . S
C397 C398 1.267 . S
C398 H366 0.929 . S
C398 C397 1.267 . S
C398 C399 1.251 . S
C399 H369 0.929 . S
C399 N395 1.418 . S
C399 C398 1.251 . S
C400 H367 0.930 . S
C400 C402 1.406 . S
C400 C405 1.261 . S
C401 H368 0.930 . S
C401 N403 1.325 . S
C401 C404 1.357 . S
C402 H370 0.928 . S
C402 C400 1.406 . S
C402 N403 1.261 . S
N403 Co354 2.214 . S
N403 C401 1.325 . S
N403 C402 1.261 . S
C404 H374 0.931 . S
C404 C401 1.357 . S
C404 C405 1.312 . S
C405 H376 0.930 . S
C405 C400 1.261 . S
C405 C404 1.312 . S
C406 O378 1.214 . S
C406 O386 1.234 . S
C407 H379 0.929 . S
C407 C410 1.391 . S
C407 C412 1.391 . S
C408 H380 0.929 . S
C408 C409 1.390 . S
C408 N411 1.391 . S
C409 H381 0.930 . S
C409 C408 1.390 . S
C409 C410 1.392 . S
C410 H382 0.929 . S
C410 C407 1.391 . S
C410 C409 1.392 . S
N411 Co355 2.257 . S
N411 C408 1.391 . S
N411 C412 1.388 . S
C412 H383 0.930 . S
C412 C407 1.391 . S
C412 N411 1.388 . S
Co413 O415 2.143 . S
Co413 O421 2.074 . S
Co413 O424 2.093 . S
Co413 O437 2.097 . S
Co413 N454 2.151 . S
Co413 N462 2.214 . S
Co414 O415 2.160 . S
Co414 O420 2.058 . S
Co414 O430 2.057 . S
Co414 O445 2.037 . S
Co414 N449 2.145 . S
Co414 N470 2.257 . S
O415 Co413 2.143 . S
O415 Co414 2.160 . S
C416 O417 1.278 . S
C416 O424 1.224 . S
O417 C416 1.278 . S
C418 O419 1.245 . S
C418 O430 1.232 . S
O419 C418 1.245 . S
O420 Co414 2.058 . S
O420 C446 1.269 . S
O421 Co413 2.074 . S
O421 C446 1.257 . S
H422 C447 0.930 . S
H423 C453 0.930 . S
O424 Co413 2.093 . S
O424 C416 1.224 . S
H425 C457 0.929 . S
H426 C459 0.930 . S
H427 C460 0.930 . S
H428 C458 0.929 . S
H429 C461 0.928 . S
O430 Co414 2.057 . S
O430 C418 1.232 . S
H431 C450 0.929 . S
H432 C451 0.929 . S
H433 C463 0.931 . S
H434 C455 0.929 . S
H435 C464 0.930 . S
H436 C456 0.931 . S
O437 Co413 2.097 . S
O437 C465 1.214 . S
H438 C466 0.929 . S
H439 C467 0.929 . S
H440 C468 0.930 . S
H441 C469 0.929 . S
H442 C471 0.930 . S
H443 C448 0.930 . S
H444 C452 0.930 . S
O445 Co414 2.037 . S
O445 C465 1.234 . S
C446 O420 1.269 . S
C446 O421 1.257 . S
C447 H422 0.930 . S
C447 C450 1.388 . S
C447 C452 1.418 . S
C448 H443 0.930 . S
C448 C451 1.404 . S
C448 C452 1.353 . S
N449 Co414 2.145 . S
N449 C450 1.397 . S
N449 C451 1.334 . S
C450 H431 0.929 . S
C450 C447 1.388 . S
C450 N449 1.397 . S
C451 H432 0.929 . S
C451 C448 1.404 . S
C451 N449 1.334 . S
C452 H444 0.930 . S
C452 C447 1.418 . S
C452 C448 1.353 . S
C453 H423 0.930 . S
C453 N454 1.330 . S
C453 C455 1.446 . S
N454 Co413 2.151 . S
N454 C453 1.330 . S
N454 C458 1.418 . S
C455 H434 0.929 . S
C455 C453 1.446 . S
C455 C456 1.332 . S
C456 H436 0.931 . S
C456 C455 1.332 . S
C456 C457 1.267 . S
C457 H425 0.929 . S
C457 C456 1.267 . S
C457 C458 1.251 . S
C458 H428 0.929 . S
C458 N454 1.418 . S
C458 C457 1.251 . S
C459 H426 0.930 . S
C459 C461 1.406 . S
C459 C464 1.261 . S
C460 H427 0.930 . S
C460 N462 1.325 . S
C460 C463 1.357 . S
C461 H429 0.928 . S
C461 C459 1.406 . S
C461 N462 1.261 . S
N462 Co413 2.214 . S
N462 C460 1.325 . S
N462 C461 1.261 . S
C463 H433 0.931 . S
C463 C460 1.357 . S
C463 C464 1.312 . S
C464 H435 0.930 . S
C464 C459 1.261 . S
C464 C463 1.312 . S
C465 O437 1.214 . S
C465 O445 1.234 . S
C466 H438 0.929 . S
C466 C469 1.391 . S
C466 C471 1.391 . S
C467 H439 0.929 . S
C467 C468 1.390 . S
C467 N470 1.391 . S
C468 H440 0.930 . S
C468 C467 1.390 . S
C468 C469 1.392 . S
C469 H441 0.929 . S
C469 C466 1.391 . S
C469 C468 1.392 . S
N470 Co414 2.257 . S
N470 C467 1.391 . S
N470 C471 1.388 . S
C471 H442 0.930 . S
C471 C466 1.391 . S
C471 N470 1.388 . S
Co472 O474 2.143 . S
Co472 O480 2.074 . S
Co472 O483 2.093 . S
Co472 O496 2.097 . S
Co472 N513 2.151 . S
Co472 N521 2.214 . S
Co473 O474 2.160 . S
Co473 O479 2.058 . S
Co473 O489 2.057 . S
Co473 O504 2.037 . S
Co473 N508 2.145 . S
Co473 N529 2.257 . S
O474 Co472 2.143 . S
O474 Co473 2.160 . S
C475 O476 1.278 . S
C475 O483 1.224 . S
O476 C475 1.278 . S
C477 O478 1.245 . S
C477 O489 1.232 . S
O478 C477 1.245 . S
O479 Co473 2.058 . S
O479 C505 1.269 . S
O480 Co472 2.074 . S
O480 C505 1.257 . S
H481 C506 0.930 . S
H482 C512 0.930 . S
O483 Co472 2.093 . S
O483 C475 1.224 . S
H484 C516 0.929 . S
H485 C518 0.930 . S
H486 C519 0.930 . S
H487 C517 0.929 . S
H488 C520 0.928 . S
O489 Co473 2.057 . S
O489 C477 1.232 . S
H490 C509 0.929 . S
H491 C510 0.929 . S
H492 C522 0.931 . S
H493 C514 0.929 . S
H494 C523 0.930 . S
H495 C515 0.931 . S
O496 Co472 2.097 . S
O496 C524 1.214 . S
H497 C525 0.929 . S
H498 C526 0.929 . S
H499 C527 0.930 . S
H500 C528 0.929 . S
H501 C530 0.930 . S
H502 C507 0.930 . S
H503 C511 0.930 . S
O504 Co473 2.037 . S
O504 C524 1.234 . S
C505 O479 1.269 . S
C505 O480 1.257 . S
C506 H481 0.930 . S
C506 C509 1.388 . S
C506 C511 1.418 . S
C507 H502 0.930 . S
C507 C510 1.404 . S
C507 C511 1.353 . S
N508 Co473 2.145 . S
N508 C509 1.397 . S
N508 C510 1.334 . S
C509 H490 0.929 . S
C509 C506 1.388 . S
C509 N508 1.397 . S
C510 H491 0.929 . S
C510 C507 1.404 . S
C510 N508 1.334 . S
C511 H503 0.930 . S
C511 C506 1.418 . S
C511 C507 1.353 . S
C512 H482 0.930 . S
C512 N513 1.330 1_565 S
C512 C514 1.446 . S
N513 Co472 2.151 . S
N513 C512 1.330 1_545 S
N513 C517 1.418 . S
C514 H493 0.929 . S
C514 C512 1.446 . S
C514 C515 1.332 . S
C515 H495 0.931 . S
C515 C514 1.332 . S
C515 C516 1.267 1_565 S
C516 H484 0.929 . S
C516 C515 1.267 1_545 S
C516 C517 1.251 . S
C517 H487 0.929 . S
C517 N513 1.418 . S
C517 C516 1.251 . S
C518 H485 0.930 . S
C518 C520 1.406 . S
C518 C523 1.261 . S
C519 H486 0.930 . S
C519 N521 1.325 . S
C519 C522 1.357 . S
C520 H488 0.928 . S
C520 C518 1.406 . S
C520 N521 1.261 . S
N521 Co472 2.214 . S
N521 C519 1.325 . S
N521 C520 1.261 . S
C522 H492 0.931 . S
C522 C519 1.357 . S
C522 C523 1.312 . S
C523 H494 0.930 . S
C523 C518 1.261 . S
C523 C522 1.312 . S
C524 O496 1.214 . S
C524 O504 1.234 . S
C525 H497 0.929 . S
C525 C528 1.391 . S
C525 C530 1.391 . S
C526 H498 0.929 . S
C526 C527 1.390 . S
C526 N529 1.391 . S
C527 H499 0.930 . S
C527 C526 1.390 . S
C527 C528 1.392 . S
C528 H500 0.929 . S
C528 C525 1.391 . S
C528 C527 1.392 . S
N529 Co473 2.257 . S
N529 C526 1.391 . S
N529 C530 1.388 . S
C530 H501 0.930 . S
C530 C525 1.391 . S
C530 N529 1.388 . S
Co531 O533 2.143 . S
Co531 O539 2.074 . S
Co531 O542 2.093 . S
Co531 O555 2.097 . S
Co531 N572 2.151 . S
Co531 N580 2.214 . S
Co532 O533 2.160 . S
Co532 O538 2.058 . S
Co532 O548 2.057 . S
Co532 O563 2.037 . S
Co532 N567 2.145 . S
Co532 N588 2.257 . S
O533 Co531 2.143 . S
O533 Co532 2.160 . S
C534 O535 1.278 . S
C534 O542 1.224 . S
O535 C534 1.278 . S
C536 O537 1.245 . S
C536 O548 1.232 . S
O537 C536 1.245 . S
O538 Co532 2.058 . S
O538 C564 1.269 . S
O539 Co531 2.074 . S
O539 C564 1.257 . S
H540 C565 0.930 . S
H541 C571 0.930 . S
O542 Co531 2.093 . S
O542 C534 1.224 . S
H543 C575 0.929 . S
H544 C577 0.930 . S
H545 C578 0.930 . S
H546 C576 0.929 . S
H547 C579 0.928 . S
O548 Co532 2.057 . S
O548 C536 1.232 . S
H549 C568 0.929 . S
H550 C569 0.929 . S
H551 C581 0.931 . S
H552 C573 0.929 . S
H553 C582 0.930 . S
H554 C574 0.931 . S
O555 Co531 2.097 . S
O555 C583 1.214 . S
H556 C584 0.929 . S
H557 C585 0.929 . S
H558 C586 0.930 . S
H559 C587 0.929 . S
H560 C589 0.930 . S
H561 C566 0.930 . S
H562 C570 0.930 . S
O563 Co532 2.037 . S
O563 C583 1.234 . S
C564 O538 1.269 . S
C564 O539 1.257 . S
C565 H540 0.930 . S
C565 C568 1.388 . S
C565 C570 1.418 . S
C566 H561 0.930 . S
C566 C569 1.404 . S
C566 C570 1.353 . S
N567 Co532 2.145 . S
N567 C568 1.397 . S
N567 C569 1.334 . S
C568 H549 0.929 . S
C568 C565 1.388 . S
C568 N567 1.397 . S
C569 H550 0.929 . S
C569 C566 1.404 . S
C569 N567 1.334 . S
C570 H562 0.930 . S
C570 C565 1.418 . S
C570 C566 1.353 . S
C571 H541 0.930 . S
C571 N572 1.330 1_565 S
C571 C573 1.446 . S
N572 Co531 2.151 . S
N572 C571 1.330 1_545 S
N572 C576 1.418 . S
C573 H552 0.929 . S
C573 C571 1.446 . S
C573 C574 1.332 . S
C574 H554 0.931 . S
C574 C573 1.332 . S
C574 C575 1.267 1_565 S
C575 H543 0.929 . S
C575 C574 1.267 1_545 S
C575 C576 1.251 . S
C576 H546 0.929 . S
C576 N572 1.418 . S
C576 C575 1.251 . S
C577 H544 0.930 . S
C577 C579 1.406 . S
C577 C582 1.261 . S
C578 H545 0.930 . S
C578 N580 1.325 . S
C578 C581 1.357 . S
C579 H547 0.928 . S
C579 C577 1.406 . S
C579 N580 1.261 . S
N580 Co531 2.214 . S
N580 C578 1.325 . S
N580 C579 1.261 . S
C581 H551 0.931 . S
C581 C578 1.357 . S
C581 C582 1.312 . S
C582 H553 0.930 . S
C582 C577 1.261 . S
C582 C581 1.312 . S
C583 O555 1.214 . S
C583 O563 1.234 . S
C584 H556 0.929 . S
C584 C587 1.391 . S
C584 C589 1.391 . S
C585 H557 0.929 . S
C585 C586 1.390 . S
C585 N588 1.391 . S
C586 H558 0.930 . S
C586 C585 1.390 . S
C586 C587 1.392 . S
C587 H559 0.929 . S
C587 C584 1.391 . S
C587 C586 1.392 . S
N588 Co532 2.257 . S
N588 C585 1.391 . S
N588 C589 1.388 . S
C589 H560 0.930 . S
C589 C584 1.391 . S
C589 N588 1.388 . S
Co590 O592 2.143 . S
Co590 O598 2.074 . S
Co590 O601 2.093 . S
Co590 O614 2.097 . S
Co590 N631 2.151 . S
Co590 N639 2.214 . S
Co591 O592 2.160 . S
Co591 O597 2.058 . S
Co591 O607 2.057 . S
Co591 O622 2.037 . S
Co591 N626 2.145 . S
Co591 N647 2.257 . S
O592 Co590 2.143 . S
O592 Co591 2.160 . S
C593 O594 1.278 . S
C593 O601 1.224 . S
O594 C593 1.278 . S
C595 O596 1.245 . S
C595 O607 1.232 . S
O596 C595 1.245 . S
O597 Co591 2.058 . S
O597 C623 1.269 . S
O598 Co590 2.074 . S
O598 C623 1.257 . S
H599 C624 0.930 . S
H600 C630 0.930 . S
O601 Co590 2.093 . S
O601 C593 1.224 . S
H602 C634 0.929 . S
H603 C636 0.930 . S
H604 C637 0.930 . S
H605 C635 0.929 . S
H606 C638 0.928 . S
O607 Co591 2.057 . S
O607 C595 1.232 . S
H608 C627 0.929 . S
H609 C628 0.929 . S
H610 C640 0.931 . S
H611 C632 0.929 . S
H612 C641 0.930 . S
H613 C633 0.931 . S
O614 Co590 2.097 . S
O614 C642 1.214 . S
H615 C643 0.929 . S
H616 C644 0.929 . S
H617 C645 0.930 . S
H618 C646 0.929 . S
H619 C648 0.930 . S
H620 C625 0.930 . S
H621 C629 0.930 . S
O622 Co591 2.037 . S
O622 C642 1.234 . S
C623 O597 1.269 . S
C623 O598 1.257 . S
C624 H599 0.930 . S
C624 C627 1.388 . S
C624 C629 1.418 . S
C625 H620 0.930 . S
C625 C628 1.404 . S
C625 C629 1.353 . S
N626 Co591 2.145 . S
N626 C627 1.397 . S
N626 C628 1.334 . S
C627 H608 0.929 . S
C627 C624 1.388 . S
C627 N626 1.397 . S
C628 H609 0.929 . S
C628 C625 1.404 . S
C628 N626 1.334 . S
C629 H621 0.930 . S
C629 C624 1.418 . S
C629 C625 1.353 . S
C630 H600 0.930 . S
C630 N631 1.330 1_545 S
C630 C632 1.446 . S
N631 Co590 2.151 . S
N631 C630 1.330 1_565 S
N631 C635 1.418 . S
C632 H611 0.929 . S
C632 C630 1.446 . S
C632 C633 1.332 . S
C633 H613 0.931 . S
C633 C632 1.332 . S
C633 C634 1.267 1_545 S
C634 H602 0.929 . S
C634 C633 1.267 1_565 S
C634 C635 1.251 . S
C635 H605 0.929 . S
C635 N631 1.418 . S
C635 C634 1.251 . S
C636 H603 0.930 . S
C636 C638 1.406 . S
C636 C641 1.261 . S
C637 H604 0.930 . S
C637 N639 1.325 . S
C637 C640 1.357 . S
C638 H606 0.928 . S
C638 C636 1.406 . S
C638 N639 1.261 . S
N639 Co590 2.214 . S
N639 C637 1.325 . S
N639 C638 1.261 . S
C640 H610 0.931 . S
C640 C637 1.357 . S
C640 C641 1.312 . S
C641 H612 0.930 . S
C641 C636 1.261 . S
C641 C640 1.312 . S
C642 O614 1.214 . S
C642 O622 1.234 . S
C643 H615 0.929 . S
C643 C646 1.391 . S
C643 C648 1.391 . S
C644 H616 0.929 . S
C644 C645 1.390 . S
C644 N647 1.391 . S
C645 H617 0.930 . S
C645 C644 1.390 . S
C645 C646 1.392 . S
C646 H618 0.929 . S
C646 C643 1.391 . S
C646 C645 1.392 . S
N647 Co591 2.257 . S
N647 C644 1.391 . S
N647 C648 1.388 . S
C648 H619 0.930 . S
C648 C643 1.391 . S
C648 N647 1.388 . S
Co649 O651 2.143 . S
Co649 O657 2.074 . S
Co649 O660 2.093 . S
Co649 O673 2.097 . S
Co649 N690 2.151 . S
Co649 N698 2.214 . S
Co650 O651 2.160 . S
Co650 O656 2.058 . S
Co650 O666 2.057 . S
Co650 O681 2.037 . S
Co650 N685 2.145 . S
Co650 N706 2.257 . S
O651 Co649 2.143 . S
O651 Co650 2.160 . S
C652 O653 1.278 . S
C652 O660 1.224 . S
O653 C652 1.278 . S
C654 O655 1.245 . S
C654 O666 1.232 . S
O655 C654 1.245 . S
O656 Co650 2.058 . S
O656 C682 1.269 . S
O657 Co649 2.074 . S
O657 C682 1.257 . S
H658 C683 0.930 . S
H659 C689 0.930 . S
O660 Co649 2.093 . S
O660 C652 1.224 . S
H661 C693 0.929 . S
H662 C695 0.930 . S
H663 C696 0.930 . S
H664 C694 0.929 . S
H665 C697 0.928 . S
O666 Co650 2.057 . S
O666 C654 1.232 . S
H667 C686 0.929 . S
H668 C687 0.929 . S
H669 C699 0.931 . S
H670 C691 0.929 . S
H671 C700 0.930 . S
H672 C692 0.931 . S
O673 Co649 2.097 . S
O673 C701 1.214 . S
H674 C702 0.929 . S
H675 C703 0.929 . S
H676 C704 0.930 . S
H677 C705 0.929 . S
H678 C707 0.930 . S
H679 C684 0.930 . S
H680 C688 0.930 . S
O681 Co650 2.037 . S
O681 C701 1.234 . S
C682 O656 1.269 . S
C682 O657 1.257 . S
C683 H658 0.930 . S
C683 C686 1.388 . S
C683 C688 1.418 . S
C684 H679 0.930 . S
C684 C687 1.404 . S
C684 C688 1.353 . S
N685 Co650 2.145 . S
N685 C686 1.397 . S
N685 C687 1.334 . S
C686 H667 0.929 . S
C686 C683 1.388 . S
C686 N685 1.397 . S
C687 H668 0.929 . S
C687 C684 1.404 . S
C687 N685 1.334 . S
C688 H680 0.930 . S
C688 C683 1.418 . S
C688 C684 1.353 . S
C689 H659 0.930 . S
C689 N690 1.330 1_545 S
C689 C691 1.446 . S
N690 Co649 2.151 . S
N690 C689 1.330 1_565 S
N690 C694 1.418 . S
C691 H670 0.929 . S
C691 C689 1.446 . S
C691 C692 1.332 . S
C692 H672 0.931 . S
C692 C691 1.332 . S
C692 C693 1.267 1_545 S
C693 H661 0.929 . S
C693 C692 1.267 1_565 S
C693 C694 1.251 . S
C694 H664 0.929 . S
C694 N690 1.418 . S
C694 C693 1.251 . S
C695 H662 0.930 . S
C695 C697 1.406 . S
C695 C700 1.261 . S
C696 H663 0.930 . S
C696 N698 1.325 . S
C696 C699 1.357 . S
C697 H665 0.928 . S
C697 C695 1.406 . S
C697 N698 1.261 . S
N698 Co649 2.214 . S
N698 C696 1.325 . S
N698 C697 1.261 . S
C699 H669 0.931 . S
C699 C696 1.357 . S
C699 C700 1.312 . S
C700 H671 0.930 . S
C700 C695 1.261 . S
C700 C699 1.312 . S
C701 O673 1.214 . S
C701 O681 1.234 . S
C702 H674 0.929 . S
C702 C705 1.391 . S
C702 C707 1.391 . S
C703 H675 0.929 . S
C703 C704 1.390 . S
C703 N706 1.391 . S
C704 H676 0.930 . S
C704 C703 1.390 . S
C704 C705 1.392 . S
C705 H677 0.929 . S
C705 C702 1.391 . S
C705 C704 1.392 . S
N706 Co650 2.257 . S
N706 C703 1.391 . S
N706 C707 1.388 . S
C707 H678 0.930 . S
C707 C702 1.391 . S
C707 N706 1.388 . S
Co708 O710 2.143 . S
Co708 O716 2.074 . S
Co708 O719 2.093 . S
Co708 O732 2.097 . S
Co708 N749 2.151 . S
Co708 N757 2.214 . S
Co709 O710 2.160 . S
Co709 O715 2.058 . S
Co709 O725 2.057 . S
Co709 O740 2.037 . S
Co709 N744 2.145 . S
Co709 N765 2.257 . S
O710 Co708 2.143 . S
O710 Co709 2.160 . S
C711 O712 1.278 . S
C711 O719 1.224 . S
O712 C711 1.278 . S
C713 O714 1.245 . S
C713 O725 1.232 . S
O714 C713 1.245 . S
O715 Co709 2.058 . S
O715 C741 1.269 . S
O716 Co708 2.074 . S
O716 C741 1.257 . S
H717 C742 0.930 . S
H718 C748 0.930 . S
O719 Co708 2.093 . S
O719 C711 1.224 . S
H720 C752 0.929 . S
H721 C754 0.930 . S
H722 C755 0.930 . S
H723 C753 0.929 . S
H724 C756 0.928 . S
O725 Co709 2.057 . S
O725 C713 1.232 . S
H726 C745 0.929 . S
H727 C746 0.929 . S
H728 C758 0.931 . S
H729 C750 0.929 . S
H730 C759 0.930 . S
H731 C751 0.931 . S
O732 Co708 2.097 . S
O732 C760 1.214 . S
H733 C761 0.929 . S
H734 C762 0.929 . S
H735 C763 0.930 . S
H736 C764 0.929 . S
H737 C766 0.930 . S
H738 C743 0.930 . S
H739 C747 0.930 . S
O740 Co709 2.037 . S
O740 C760 1.234 . S
C741 O715 1.269 . S
C741 O716 1.257 . S
C742 H717 0.930 . S
C742 C745 1.388 . S
C742 C747 1.418 . S
C743 H738 0.930 . S
C743 C746 1.404 . S
C743 C747 1.353 . S
N744 Co709 2.145 . S
N744 C745 1.397 . S
N744 C746 1.334 . S
C745 H726 0.929 . S
C745 C742 1.388 . S
C745 N744 1.397 . S
C746 H727 0.929 . S
C746 C743 1.404 . S
C746 N744 1.334 . S
C747 H739 0.930 . S
C747 C742 1.418 . S
C747 C743 1.353 . S
C748 H718 0.930 . S
C748 N749 1.330 . S
C748 C750 1.446 . S
N749 Co708 2.151 . S
N749 C748 1.330 . S
N749 C753 1.418 . S
C750 H729 0.929 . S
C750 C748 1.446 . S
C750 C751 1.332 . S
C751 H731 0.931 . S
C751 C750 1.332 . S
C751 C752 1.267 . S
C752 H720 0.929 . S
C752 C751 1.267 . S
C752 C753 1.251 . S
C753 H723 0.929 . S
C753 N749 1.418 . S
C753 C752 1.251 . S
C754 H721 0.930 . S
C754 C756 1.406 . S
C754 C759 1.261 . S
C755 H722 0.930 . S
C755 N757 1.325 . S
C755 C758 1.357 . S
C756 H724 0.928 . S
C756 C754 1.406 . S
C756 N757 1.261 . S
N757 Co708 2.214 . S
N757 C755 1.325 . S
N757 C756 1.261 . S
C758 H728 0.931 . S
C758 C755 1.357 . S
C758 C759 1.312 . S
C759 H730 0.930 . S
C759 C754 1.261 . S
C759 C758 1.312 . S
C760 O732 1.214 . S
C760 O740 1.234 . S
C761 H733 0.929 . S
C761 C764 1.391 . S
C761 C766 1.391 . S
C762 H734 0.929 . S
C762 C763 1.390 . S
C762 N765 1.391 . S
C763 H735 0.930 . S
C763 C762 1.390 . S
C763 C764 1.392 . S
C764 H736 0.929 . S
C764 C761 1.391 . S
C764 C763 1.392 . S
N765 Co709 2.257 . S
N765 C762 1.391 . S
N765 C766 1.388 . S
C766 H737 0.930 . S
C766 C761 1.391 . S
C766 N765 1.388 . S
Co767 O769 2.143 . S
Co767 O775 2.074 . S
Co767 O778 2.093 . S
Co767 O791 2.097 . S
Co767 N808 2.151 . S
Co767 N816 2.214 . S
Co768 O769 2.160 . S
Co768 O774 2.058 . S
Co768 O784 2.057 . S
Co768 O799 2.037 . S
Co768 N803 2.145 . S
Co768 N824 2.257 . S
O769 Co767 2.143 . S
O769 Co768 2.160 . S
C770 O771 1.278 . S
C770 O778 1.224 . S
O771 C770 1.278 . S
C772 O773 1.245 . S
C772 O784 1.232 . S
O773 C772 1.245 . S
O774 Co768 2.058 . S
O774 C800 1.269 . S
O775 Co767 2.074 . S
O775 C800 1.257 . S
H776 C801 0.930 . S
H777 C807 0.930 . S
O778 Co767 2.093 . S
O778 C770 1.224 . S
H779 C811 0.929 . S
H780 C813 0.930 . S
H781 C814 0.930 . S
H782 C812 0.929 . S
H783 C815 0.928 . S
O784 Co768 2.057 . S
O784 C772 1.232 . S
H785 C804 0.929 . S
H786 C805 0.929 . S
H787 C817 0.931 . S
H788 C809 0.929 . S
H789 C818 0.930 . S
H790 C810 0.931 . S
O791 Co767 2.097 . S
O791 C819 1.214 . S
H792 C820 0.929 . S
H793 C821 0.929 . S
H794 C822 0.930 . S
H795 C823 0.929 . S
H796 C825 0.930 . S
H797 C802 0.930 . S
H798 C806 0.930 . S
O799 Co768 2.037 . S
O799 C819 1.234 . S
C800 O774 1.269 . S
C800 O775 1.257 . S
C801 H776 0.930 . S
C801 C804 1.388 . S
C801 C806 1.418 . S
C802 H797 0.930 . S
C802 C805 1.404 . S
C802 C806 1.353 . S
N803 Co768 2.145 . S
N803 C804 1.397 . S
N803 C805 1.334 . S
C804 H785 0.929 . S
C804 C801 1.388 . S
C804 N803 1.397 . S
C805 H786 0.929 . S
C805 C802 1.404 . S
C805 N803 1.334 . S
C806 H798 0.930 . S
C806 C801 1.418 . S
C806 C802 1.353 . S
C807 H777 0.930 . S
C807 N808 1.330 . S
C807 C809 1.446 . S
N808 Co767 2.151 . S
N808 C807 1.330 . S
N808 C812 1.418 . S
C809 H788 0.929 . S
C809 C807 1.446 . S
C809 C810 1.332 . S
C810 H790 0.931 . S
C810 C809 1.332 . S
C810 C811 1.267 . S
C811 H779 0.929 . S
C811 C810 1.267 . S
C811 C812 1.251 . S
C812 H782 0.929 . S
C812 N808 1.418 . S
C812 C811 1.251 . S
C813 H780 0.930 . S
C813 C815 1.406 . S
C813 C818 1.261 . S
C814 H781 0.930 . S
C814 N816 1.325 . S
C814 C817 1.357 . S
C815 H783 0.928 . S
C815 C813 1.406 . S
C815 N816 1.261 . S
N816 Co767 2.214 . S
N816 C814 1.325 . S
N816 C815 1.261 . S
C817 H787 0.931 . S
C817 C814 1.357 . S
C817 C818 1.312 . S
C818 H789 0.930 . S
C818 C813 1.261 . S
C818 C817 1.312 . S
C819 O791 1.214 . S
C819 O799 1.234 . S
C820 H792 0.929 . S
C820 C823 1.391 . S
C820 C825 1.391 . S
C821 H793 0.929 . S
C821 C822 1.390 . S
C821 N824 1.391 . S
C822 H794 0.930 . S
C822 C821 1.390 . S
C822 C823 1.392 . S
C823 H795 0.929 . S
C823 C820 1.391 . S
C823 C822 1.392 . S
N824 Co768 2.257 . S
N824 C821 1.391 . S
N824 C825 1.388 . S
C825 H796 0.930 . S
C825 C820 1.391 . S
C825 N824 1.388 . S
Co826 O828 2.143 . S
Co826 O834 2.074 . S
Co826 O837 2.093 . S
Co826 O850 2.097 . S
Co826 N867 2.151 . S
Co826 N875 2.214 . S
Co827 O828 2.160 . S
Co827 O833 2.058 . S
Co827 O843 2.057 . S
Co827 O858 2.037 . S
Co827 N862 2.145 . S
Co827 N883 2.257 . S
O828 Co826 2.143 . S
O828 Co827 2.160 . S
C829 O830 1.278 . S
C829 O837 1.224 . S
O830 C829 1.278 . S
C831 O832 1.245 . S
C831 O843 1.232 . S
O832 C831 1.245 . S
O833 Co827 2.058 . S
O833 C859 1.269 . S
O834 Co826 2.074 . S
O834 C859 1.257 . S
H835 C860 0.930 . S
H836 C866 0.930 . S
O837 Co826 2.093 . S
O837 C829 1.224 . S
H838 C870 0.929 . S
H839 C872 0.930 . S
H840 C873 0.930 . S
H841 C871 0.929 . S
H842 C874 0.928 . S
O843 Co827 2.057 . S
O843 C831 1.232 . S
H844 C863 0.929 . S
H845 C864 0.929 . S
H846 C876 0.931 . S
H847 C868 0.929 . S
H848 C877 0.930 . S
H849 C869 0.931 . S
O850 Co826 2.097 . S
O850 C878 1.214 . S
H851 C879 0.929 . S
H852 C880 0.929 . S
H853 C881 0.930 . S
H854 C882 0.929 . S
H855 C884 0.930 . S
H856 C861 0.930 . S
H857 C865 0.930 . S
O858 Co827 2.037 . S
O858 C878 1.234 . S
C859 O833 1.269 . S
C859 O834 1.257 . S
C860 H835 0.930 . S
C860 C863 1.388 . S
C860 C865 1.418 . S
C861 H856 0.930 . S
C861 C864 1.404 . S
C861 C865 1.353 . S
N862 Co827 2.145 . S
N862 C863 1.397 . S
N862 C864 1.334 . S
C863 H844 0.929 . S
C863 C860 1.388 . S
C863 N862 1.397 . S
C864 H845 0.929 . S
C864 C861 1.404 . S
C864 N862 1.334 . S
C865 H857 0.930 . S
C865 C860 1.418 . S
C865 C861 1.353 . S
C866 H836 0.930 . S
C866 N867 1.330 . S
C866 C868 1.446 . S
N867 Co826 2.151 . S
N867 C866 1.330 . S
N867 C871 1.418 . S
C868 H847 0.929 . S
C868 C866 1.446 . S
C868 C869 1.332 . S
C869 H849 0.931 . S
C869 C868 1.332 . S
C869 C870 1.267 . S
C870 H838 0.929 . S
C870 C869 1.267 . S
C870 C871 1.251 . S
C871 H841 0.929 . S
C871 N867 1.418 . S
C871 C870 1.251 . S
C872 H839 0.930 . S
C872 C874 1.406 . S
C872 C877 1.261 . S
C873 H840 0.930 . S
C873 N875 1.325 . S
C873 C876 1.357 . S
C874 H842 0.928 . S
C874 C872 1.406 . S
C874 N875 1.261 . S
N875 Co826 2.214 . S
N875 C873 1.325 . S
N875 C874 1.261 . S
C876 H846 0.931 . S
C876 C873 1.357 . S
C876 C877 1.312 . S
C877 H848 0.930 . S
C877 C872 1.261 . S
C877 C876 1.312 . S
C878 O850 1.214 . S
C878 O858 1.234 . S
C879 H851 0.929 . S
C879 C882 1.391 . S
C879 C884 1.391 . S
C880 H852 0.929 . S
C880 C881 1.390 . S
C880 N883 1.391 . S
C881 H853 0.930 . S
C881 C880 1.390 . S
C881 C882 1.392 . S
C882 H854 0.929 . S
C882 C879 1.391 . S
C882 C881 1.392 . S
N883 Co827 2.257 . S
N883 C880 1.391 . S
N883 C884 1.388 . S
C884 H855 0.930 . S
C884 C879 1.391 . S
C884 N883 1.388 . S
Co885 O887 2.143 . S
Co885 O893 2.074 . S
Co885 O896 2.093 . S
Co885 O909 2.097 . S
Co885 N926 2.151 . S
Co885 N934 2.214 . S
Co886 O887 2.160 . S
Co886 O892 2.058 . S
Co886 O902 2.057 . S
Co886 O917 2.037 . S
Co886 N921 2.145 . S
Co886 N942 2.257 . S
O887 Co885 2.143 . S
O887 Co886 2.160 . S
C888 O889 1.278 . S
C888 O896 1.224 . S
O889 C888 1.278 . S
C890 O891 1.245 . S
C890 O902 1.232 . S
O891 C890 1.245 . S
O892 Co886 2.058 . S
O892 C918 1.269 . S
O893 Co885 2.074 . S
O893 C918 1.257 . S
H894 C919 0.930 . S
H895 C925 0.930 . S
O896 Co885 2.093 . S
O896 C888 1.224 . S
H897 C929 0.929 . S
H898 C931 0.930 . S
H899 C932 0.930 . S
H900 C930 0.929 . S
H901 C933 0.928 . S
O902 Co886 2.057 . S
O902 C890 1.232 . S
H903 C922 0.929 . S
H904 C923 0.929 . S
H905 C935 0.931 . S
H906 C927 0.929 . S
H907 C936 0.930 . S
H908 C928 0.931 . S
O909 Co885 2.097 . S
O909 C937 1.214 . S
H910 C938 0.929 . S
H911 C939 0.929 . S
H912 C940 0.930 . S
H913 C941 0.929 . S
H914 C943 0.930 . S
H915 C920 0.930 . S
H916 C924 0.930 . S
O917 Co886 2.037 . S
O917 C937 1.234 . S
C918 O892 1.269 . S
C918 O893 1.257 . S
C919 H894 0.930 . S
C919 C922 1.388 . S
C919 C924 1.418 . S
C920 H915 0.930 . S
C920 C923 1.404 . S
C920 C924 1.353 . S
N921 Co886 2.145 . S
N921 C922 1.397 . S
N921 C923 1.334 . S
C922 H903 0.929 . S
C922 C919 1.388 . S
C922 N921 1.397 . S
C923 H904 0.929 . S
C923 C920 1.404 . S
C923 N921 1.334 . S
C924 H916 0.930 . S
C924 C919 1.418 . S
C924 C920 1.353 . S
C925 H895 0.930 . S
C925 N926 1.330 . S
C925 C927 1.446 . S
N926 Co885 2.151 . S
N926 C925 1.330 . S
N926 C930 1.418 . S
C927 H906 0.929 . S
C927 C925 1.446 . S
C927 C928 1.332 . S
C928 H908 0.931 . S
C928 C927 1.332 . S
C928 C929 1.267 . S
C929 H897 0.929 . S
C929 C928 1.267 . S
C929 C930 1.251 . S
C930 H900 0.929 . S
C930 N926 1.418 . S
C930 C929 1.251 . S
C931 H898 0.930 . S
C931 C933 1.406 . S
C931 C936 1.261 . S
C932 H899 0.930 . S
C932 N934 1.325 . S
C932 C935 1.357 . S
C933 H901 0.928 . S
C933 C931 1.406 . S
C933 N934 1.261 . S
N934 Co885 2.214 . S
N934 C932 1.325 . S
N934 C933 1.261 . S
C935 H905 0.931 . S
C935 C932 1.357 . S
C935 C936 1.312 . S
C936 H907 0.930 . S
C936 C931 1.261 . S
C936 C935 1.312 . S
C937 O909 1.214 . S
C937 O917 1.234 . S
C938 H910 0.929 . S
C938 C941 1.391 . S
C938 C943 1.391 . S
C939 H911 0.929 . S
C939 C940 1.390 . S
C939 N942 1.391 . S
C940 H912 0.930 . S
C940 C939 1.390 . S
C940 C941 1.392 . S
C941 H913 0.929 . S
C941 C938 1.391 . S
C941 C940 1.392 . S
N942 Co886 2.257 . S
N942 C939 1.391 . S
N942 C943 1.388 . S
C943 H914 0.930 . S
C943 C938 1.391 . S
C943 N942 1.388 . S
H944 C952 0.929 . S
H945 C954 0.930 . S
H946 C956 0.930 . S
H947 C959 0.929 . S
H948 C962 0.930 . S
H949 C964 0.960 . S
H950 C964 0.960 . S
H951 C964 0.960 . S
C952 H944 0.929 . S
C952 C953 1.377 . S
C952 C954 1.384 . S
C953 C952 1.377 . S
C953 C959 1.390 . S
C954 H945 0.930 . S
C954 C952 1.384 . S
C954 C955 1.372 . S
C955 C954 1.372 . S
C955 C956 1.400 . S
C955 C960 1.490 . S
C956 H946 0.930 . S
C956 C955 1.400 . S
C956 C959 1.386 . S
H957 C973 0.930 . S
H958 C974 0.931 . S
C959 H947 0.929 . S
C959 C953 1.390 . S
C959 C956 1.386 . S
C960 C955 1.490 . S
C960 C962 1.395 . S
C960 C963 1.403 . S
H961 C967 0.930 . S
C962 H948 0.930 . S
C962 C960 1.395 . S
C962 C965 1.403 . S
C963 C960 1.403 . S
C963 C964 1.524 . S
C963 C967 1.400 . S
C964 H949 0.960 . S
C964 H950 0.960 . S
C964 H951 0.960 . S
C964 C963 1.524 . S
C965 C962 1.403 . S
C965 C966 1.392 . S
C965 C969 1.495 . S
C966 C965 1.392 . S
C966 C967 1.385 . S
C966 C968 1.478 . S
C967 H961 0.930 . S
C967 C963 1.400 . S
C967 C966 1.385 . S
C968 C966 1.478 . S
C968 C970 1.381 . S
C968 C974 1.383 . S
C969 C965 1.495 . S
C969 H975 0.959 . S
C969 H976 0.961 . S
C969 H977 0.960 . S
C970 C968 1.381 . S
C970 C971 1.394 . S
C970 H978 0.930 . S
C971 C970 1.394 . S
C971 C972 1.383 . S
C971 H979 0.929 . S
C972 C971 1.383 . S
C972 C973 1.377 . S
C973 H957 0.930 . S
C973 C972 1.377 . S
C973 C974 1.379 . S
C974 H958 0.931 . S
C974 C968 1.383 . S
C974 C973 1.379 . S
H975 C969 0.959 . S
H976 C969 0.961 . S
H977 C969 0.960 . S
H978 C970 0.930 . S
H979 C971 0.929 . S
H980 C988 0.929 . S
H981 C990 0.930 . S
H982 C992 0.930 1_545 S
H983 C995 0.929 . S
H984 C998 0.930 . S
H985 C1000 0.960 . S
H986 C1000 0.960 . S
H987 C1000 0.960 . S
C988 H980 0.929 . S
C988 C989 1.377 . S
C988 C990 1.384 . S
C989 C988 1.377 . S
C989 C995 1.390 . S
C990 H981 0.930 . S
C990 C988 1.384 . S
C990 C991 1.372 . S
C991 C990 1.372 . S
C991 C992 1.400 . S
C991 C996 1.490 . S
C992 H982 0.930 1_565 S
C992 C991 1.400 . S
C992 C995 1.386 . S
H993 C1009 0.930 . S
H994 C1010 0.931 . S
C995 H983 0.929 . S
C995 C989 1.390 . S
C995 C992 1.386 . S
C996 C991 1.490 . S
C996 C998 1.395 1_565 S
C996 C999 1.403 1_655 S
H997 C1003 0.930 . S
C998 H984 0.930 . S
C998 C996 1.395 1_545 S
C998 C1001 1.403 . S
C999 C996 1.403 1_455 S
C999 C1000 1.524 . S
C999 C1003 1.400 . S
C1000 H985 0.960 . S
C1000 H986 0.960 . S
C1000 H987 0.960 . S
C1000 C999 1.524 . S
C1001 C998 1.403 . S
C1001 C1002 1.392 1_655 S
C1001 C1005 1.495 . S
C1002 C1001 1.392 1_455 S
C1002 C1003 1.385 1_545 S
C1002 C1004 1.478 . S
C1003 H997 0.930 . S
C1003 C999 1.400 . S
C1003 C1002 1.385 1_565 S
C1004 C1002 1.478 . S
C1004 C1006 1.381 . S
C1004 C1010 1.383 . S
C1005 C1001 1.495 . S
C1005 H1011 0.959 . S
C1005 H1012 0.961 . S
C1005 H1013 0.960 . S
C1006 C1004 1.381 . S
C1006 C1007 1.394 . S
C1006 H1014 0.930 1_545 S
C1007 C1006 1.394 . S
C1007 C1008 1.383 . S
C1007 H1015 0.935 . S
C1008 C1007 1.383 . S
C1008 C1009 1.377 . S
C1009 H993 0.930 . S
C1009 C1008 1.377 . S
C1009 C1010 1.379 . S
C1010 H994 0.931 . S
C1010 C1004 1.383 . S
C1010 C1009 1.379 . S
H1011 C1005 0.959 . S
H1012 C1005 0.961 . S
H1013 C1005 0.960 . S
H1014 C1006 0.930 1_565 S
H1015 C1007 0.935 . S
H1016 C1024 0.929 . S
H1017 C1026 0.930 1_545 S
H1018 C1028 0.930 . S
H1019 C1031 0.929 . S
H1020 C1034 0.930 . S
H1021 C1036 0.960 . S
H1022 C1036 0.960 . S
H1023 C1036 0.960 1_565 S
C1024 H1016 0.929 . S
C1024 C1025 1.377 . S
C1024 C1026 1.384 . S
C1025 C1024 1.377 . S
C1025 C1031 1.390 . S
C1026 H1017 0.930 1_565 S
C1026 C1024 1.384 . S
C1026 C1027 1.372 . S
C1027 C1026 1.372 . S
C1027 C1028 1.400 . S
C1027 C1032 1.490 . S
C1028 H1018 0.930 . S
C1028 C1027 1.400 . S
C1028 C1031 1.386 . S
H1029 C1045 0.930 1_565 S
H1030 C1046 0.928 1_565 S
C1031 H1019 0.929 . S
C1031 C1025 1.390 . S
C1031 C1028 1.386 . S
C1032 C1027 1.490 . S
C1032 C1034 1.395 . S
C1032 C1035 1.403 1_565 S
H1033 C1039 0.930 . S
C1034 H1020 0.930 . S
C1034 C1032 1.395 . S
C1034 C1037 1.403 . S
C1035 C1032 1.403 1_545 S
C1035 C1036 1.524 . S
C1035 C1039 1.400 . S
C1036 H1021 0.960 . S
C1036 H1022 0.960 . S
C1036 H1023 0.960 1_545 S
C1036 C1035 1.524 . S
C1037 C1034 1.403 . S
C1037 C1038 1.392 1_565 S
C1037 C1041 1.495 . S
C1038 C1037 1.392 1_545 S
C1038 C1039 1.385 . S
C1038 C1040 1.478 . S
C1039 H1033 0.930 . S
C1039 C1035 1.400 . S
C1039 C1038 1.385 . S
C1040 C1038 1.478 . S
C1040 C1042 1.381 . S
C1040 C1046 1.385 . S
C1041 C1037 1.495 . S
C1041 H1047 0.959 . S
C1041 H1048 0.961 . S
C1041 H1049 0.960 1_565 S
C1042 C1040 1.381 . S
C1042 C1043 1.394 . S
C1042 H1050 0.930 . S
C1043 C1042 1.394 . S
C1043 C1044 1.383 . S
C1043 H1051 0.929 . S
C1044 C1043 1.383 . S
C1044 C1045 1.377 . S
C1045 H1029 0.930 1_545 S
C1045 C1044 1.377 . S
C1045 C1046 1.381 . S
C1046 H1030 0.928 1_545 S
C1046 C1040 1.385 . S
C1046 C1045 1.381 . S
H1047 C1041 0.959 . S
H1048 C1041 0.961 . S
H1049 C1041 0.960 1_545 S
H1050 C1042 0.930 . S
H1051 C1043 0.929 . S
H1052 C1060 0.929 . S
H1053 C1062 0.930 . S
H1054 C1064 0.930 . S
H1055 C1067 0.929 . S
H1056 C1070 0.930 . S
H1057 C1072 0.960 . S
H1058 C1072 0.960 . S
H1059 C1072 0.960 . S
C1060 H1052 0.929 . S
C1060 C1061 1.377 . S
C1060 C1062 1.384 . S
C1061 C1060 1.377 . S
C1061 C1067 1.390 . S
C1062 H1053 0.930 . S
C1062 C1060 1.384 . S
C1062 C1063 1.372 . S
C1063 C1062 1.372 . S
C1063 C1064 1.400 . S
C1063 C1068 1.490 . S
C1064 H1054 0.930 . S
C1064 C1063 1.400 . S
C1064 C1067 1.386 . S
H1065 C1081 0.930 . S
H1066 C1082 0.931 . S
C1067 H1055 0.929 . S
C1067 C1061 1.390 . S
C1067 C1064 1.386 . S
C1068 C1063 1.490 . S
C1068 C1070 1.395 . S
C1068 C1071 1.403 . S
H1069 C1075 0.930 . S
C1070 H1056 0.930 . S
C1070 C1068 1.395 . S
C1070 C1073 1.403 1_455 S
C1071 C1068 1.403 . S
C1071 C1072 1.524 . S
C1071 C1075 1.400 1_455 S
C1072 H1057 0.960 . S
C1072 H1058 0.960 . S
C1072 H1059 0.960 . S
C1072 C1071 1.524 . S
C1073 C1070 1.403 1_655 S
C1073 C1074 1.392 . S
C1073 C1077 1.495 . S
C1074 C1073 1.392 . S
C1074 C1075 1.385 . S
C1074 C1076 1.478 . S
C1075 H1069 0.930 . S
C1075 C1071 1.400 1_655 S
C1075 C1074 1.385 . S
C1076 C1074 1.478 . S
C1076 C1078 1.381 . S
C1076 C1082 1.383 . S
C1077 C1073 1.495 . S
C1077 H1083 0.959 . S
C1077 H1084 0.961 . S
C1077 H1085 0.960 . S
C1078 C1076 1.381 . S
C1078 C1079 1.394 . S
C1078 H1086 0.930 . S
C1079 C1078 1.394 . S
C1079 C1080 1.383 . S
C1079 H1087 0.929 . S
C1080 C1079 1.383 . S
C1080 C1081 1.377 . S
C1081 H1065 0.930 . S
C1081 C1080 1.377 . S
C1081 C1082 1.379 . S
C1082 H1066 0.931 . S
C1082 C1076 1.383 . S
C1082 C1081 1.379 . S
H1083 C1077 0.959 . S
H1084 C1077 0.961 . S
H1085 C1077 0.960 . S
H1086 C1078 0.930 . S
H1087 C1079 0.929 . S
H1088 C1096 0.929 . S
H1089 C1098 0.930 . S
H1090 C1100 0.930 . S
H1091 C1103 0.929 . S
H1092 C1106 0.930 . S
H1093 C1108 0.960 . S
H1094 C1108 0.960 . S
H1095 C1108 0.960 . S
C1096 H1088 0.929 . S
C1096 C1097 1.377 . S
C1096 C1098 1.384 . S
C1097 C1096 1.377 . S
C1097 C1103 1.390 . S
C1098 H1089 0.930 . S
C1098 C1096 1.384 . S
C1098 C1099 1.372 . S
C1099 C1098 1.372 . S
C1099 C1100 1.400 . S
C1099 C1104 1.490 . S
C1100 H1090 0.930 . S
C1100 C1099 1.400 . S
C1100 C1103 1.386 . S
H1101 C1117 0.930 . S
H1102 C1118 0.931 . S
C1103 H1091 0.929 . S
C1103 C1097 1.390 . S
C1103 C1100 1.386 . S
C1104 C1099 1.490 . S
C1104 C1106 1.395 . S
C1104 C1107 1.403 . S
H1105 C1111 0.930 . S
C1106 H1092 0.930 . S
C1106 C1104 1.395 . S
C1106 C1109 1.403 . S
C1107 C1104 1.403 . S
C1107 C1108 1.524 . S
C1107 C1111 1.400 . S
C1108 H1093 0.960 . S
C1108 H1094 0.960 . S
C1108 H1095 0.960 . S
C1108 C1107 1.524 . S
C1109 C1106 1.403 . S
C1109 C1110 1.392 . S
C1109 C1113 1.495 . S
C1110 C1109 1.392 . S
C1110 C1111 1.385 . S
C1110 C1112 1.478 . S
C1111 H1105 0.930 . S
C1111 C1107 1.400 . S
C1111 C1110 1.385 . S
C1112 C1110 1.478 . S
C1112 C1114 1.381 . S
C1112 C1118 1.383 . S
C1113 C1109 1.495 . S
C1113 H1119 0.959 . S
C1113 H1120 0.961 . S
C1113 H1121 0.960 . S
C1114 C1112 1.381 . S
C1114 C1115 1.394 . S
C1114 H1122 0.930 . S
C1115 C1114 1.394 . S
C1115 C1116 1.383 . S
C1115 H1123 0.929 . S
C1116 C1115 1.383 . S
C1116 C1117 1.377 . S
C1117 H1101 0.930 . S
C1117 C1116 1.377 . S
C1117 C1118 1.379 . S
C1118 H1102 0.931 . S
C1118 C1112 1.383 . S
C1118 C1117 1.379 . S
H1119 C1113 0.959 . S
H1120 C1113 0.961 . S
H1121 C1113 0.960 . S
H1122 C1114 0.930 . S
H1123 C1115 0.929 . S
H1124 C1132 0.929 . S
H1125 C1134 0.943 . S
H1126 C1136 0.930 . S
H1127 C1139 0.929 . S
H1128 C1142 0.930 . S
H1129 C1144 0.960 . S
H1130 C1144 0.960 . S
H1131 C1144 0.960 . S
C1132 H1124 0.929 . S
C1132 C1133 1.377 . S
C1132 C1134 1.384 . S
C1133 C1132 1.377 . S
C1133 C1139 1.390 . S
C1134 H1125 0.943 . S
C1134 C1132 1.384 . S
C1134 C1135 1.372 . S
C1135 C1134 1.372 . S
C1135 C1136 1.400 . S
C1135 C1140 1.490 . S
C1136 H1126 0.930 . S
C1136 C1135 1.400 . S
C1136 C1139 1.386 . S
H1137 C1153 0.930 . S
H1138 C1154 0.931 1_545 S
C1139 H1127 0.929 . S
C1139 C1133 1.390 . S
C1139 C1136 1.386 . S
C1140 C1135 1.490 . S
C1140 C1142 1.395 . S
C1140 C1143 1.403 1_545 S
H1141 C1147 0.930 . S
C1142 H1128 0.930 . S
C1142 C1140 1.395 . S
C1142 C1145 1.403 . S
C1143 C1140 1.403 1_565 S
C1143 C1144 1.524 . S
C1143 C1147 1.400 . S
C1144 H1129 0.960 . S
C1144 H1130 0.960 . S
C1144 H1131 0.960 . S
C1144 C1143 1.524 . S
C1145 C1142 1.403 . S
C1145 C1146 1.392 1_545 S
C1145 C1149 1.495 . S
C1146 C1145 1.392 1_565 S
C1146 C1147 1.385 . S
C1146 C1148 1.478 . S
C1147 H1141 0.930 . S
C1147 C1143 1.400 . S
C1147 C1146 1.385 . S
C1148 C1146 1.478 . S
C1148 C1150 1.381 . S
C1148 C1154 1.383 . S
C1149 C1145 1.495 . S
C1149 H1155 0.959 . S
C1149 H1156 0.961 . S
C1149 H1157 0.960 . S
C1150 C1148 1.381 . S
C1150 C1151 1.394 . S
C1150 H1158 0.930 . S
C1151 C1150 1.394 . S
C1151 C1152 1.383 . S
C1151 H1159 0.929 . S
C1152 C1151 1.383 . S
C1152 C1153 1.377 . S
C1153 H1137 0.930 . S
C1153 C1152 1.377 . S
C1153 C1154 1.379 . S
C1154 H1138 0.931 1_565 S
C1154 C1148 1.383 . S
C1154 C1153 1.379 . S
H1155 C1149 0.959 . S
H1156 C1149 0.961 . S
H1157 C1149 0.960 . S
H1158 C1150 0.930 . S
H1159 C1151 0.929 . S
H1160 C1168 0.929 . S
H1161 C1170 0.930 . S
H1162 C1172 0.930 . S
H1163 C1175 0.929 . S
H1164 C1178 0.930 . S
H1165 C1180 0.960 . S
H1166 C1180 0.960 . S
H1167 C1180 0.960 . S
C1168 H1160 0.929 . S
C1168 C1169 1.377 . S
C1168 C1170 1.384 . S
C1169 C1168 1.377 . S
C1169 C1175 1.390 . S
C1170 H1161 0.930 . S
C1170 C1168 1.384 . S
C1170 C1171 1.372 . S
C1171 C1170 1.372 . S
C1171 C1172 1.400 . S
C1171 C1176 1.490 . S
C1172 H1162 0.930 . S
C1172 C1171 1.400 . S
C1172 C1175 1.386 . S
H1173 C1189 0.930 . S
H1174 C1190 0.931 . S
C1175 H1163 0.929 . S
C1175 C1169 1.390 . S
C1175 C1172 1.386 . S
C1176 C1171 1.490 . S
C1176 C1178 1.395 . S
C1176 C1179 1.403 1_655 S
H1177 C1183 0.930 . S
C1178 H1164 0.930 . S
C1178 C1176 1.395 . S
C1178 C1181 1.403 . S
C1179 C1176 1.403 1_455 S
C1179 C1180 1.524 . S
C1179 C1183 1.400 . S
C1180 H1165 0.960 . S
C1180 H1166 0.960 . S
C1180 H1167 0.960 . S
C1180 C1179 1.524 . S
C1181 C1178 1.403 . S
C1181 C1182 1.392 1_655 S
C1181 C1185 1.495 . S
C1182 C1181 1.392 1_455 S
C1182 C1183 1.385 . S
C1182 C1184 1.478 . S
C1183 H1177 0.930 . S
C1183 C1179 1.400 . S
C1183 C1182 1.385 . S
C1184 C1182 1.478 . S
C1184 C1186 1.381 . S
C1184 C1190 1.383 . S
C1185 C1181 1.495 . S
C1185 H1191 0.959 . S
C1185 H1192 0.961 . S
C1185 H1193 0.960 . S
C1186 C1184 1.381 . S
C1186 C1187 1.394 . S
C1186 H1194 0.930 . S
C1187 C1186 1.394 . S
C1187 C1188 1.383 . S
C1187 H1195 0.929 . S
C1188 C1187 1.383 . S
C1188 C1189 1.377 . S
C1189 H1173 0.930 . S
C1189 C1188 1.377 . S
C1189 C1190 1.379 . S
C1190 H1174 0.931 . S
C1190 C1184 1.383 . S
C1190 C1189 1.379 . S
H1191 C1185 0.959 . S
H1192 C1185 0.961 . S
H1193 C1185 0.960 . S
H1194 C1186 0.930 . S
H1195 C1187 0.929 . S
H1196 C1204 0.929 . S
H1197 C1206 0.930 . S
H1198 C1208 0.930 . S
H1199 C1211 0.929 . S
H1200 C1214 0.930 . S
H1201 C1216 0.960 . S
H1202 C1216 0.960 . S
H1203 C1216 0.960 . S
C1204 H1196 0.929 . S
C1204 C1205 1.377 . S
C1204 C1206 1.384 . S
C1205 C1204 1.377 . S
C1205 C1211 1.390 . S
C1206 H1197 0.930 . S
C1206 C1204 1.384 . S
C1206 C1207 1.372 . S
C1207 C1206 1.372 . S
C1207 C1208 1.400 . S
C1207 C1212 1.490 . S
C1208 H1198 0.930 . S
C1208 C1207 1.400 . S
C1208 C1211 1.386 . S
H1209 C1225 0.930 . S
H1210 C1226 0.931 . S
C1211 H1199 0.929 . S
C1211 C1205 1.390 . S
C1211 C1208 1.386 . S
C1212 C1207 1.490 . S
C1212 C1214 1.395 1_554 S
C1212 C1215 1.403 . S
H1213 C1219 0.913 1_554 S
C1214 H1200 0.930 . S
C1214 C1212 1.395 1_556 S
C1214 C1217 1.403 . S
C1215 C1212 1.403 . S
C1215 C1216 1.524 . S
C1215 C1219 1.406 1_554 S
C1216 H1201 0.960 . S
C1216 H1202 0.960 . S
C1216 H1203 0.960 . S
C1216 C1215 1.524 . S
C1217 C1214 1.403 . S
C1217 C1218 1.392 . S
C1217 C1221 1.495 . S
C1218 C1217 1.392 . S
C1218 C1219 1.377 . S
C1218 C1220 1.478 . S
C1219 H1213 0.913 1_556 S
C1219 C1215 1.406 1_556 S
C1219 C1218 1.377 . S
C1220 C1218 1.478 . S
C1220 C1222 1.381 . S
C1220 C1226 1.383 . S
C1221 C1217 1.495 . S
C1221 H1227 0.959 . S
C1221 H1228 0.961 . S
C1221 H1229 0.960 . S
C1222 C1220 1.381 . S
C1222 C1223 1.394 . S
C1222 H1230 0.930 . S
C1223 C1222 1.394 . S
C1223 C1224 1.383 . S
C1223 H1231 0.929 . S
C1224 C1223 1.383 . S
C1224 C1225 1.377 . S
C1225 H1209 0.930 . S
C1225 C1224 1.377 . S
C1225 C1226 1.379 . S
C1226 H1210 0.931 . S
C1226 C1220 1.383 . S
C1226 C1225 1.379 . S
H1227 C1221 0.959 . S
H1228 C1221 0.961 . S
H1229 C1221 0.960 . S
H1230 C1222 0.930 . S
H1231 C1223 0.929 . S
H1232 C1240 0.929 . S
H1233 C1242 0.930 . S
H1234 C1244 0.930 . S
H1235 C1247 0.929 . S
H1236 C1250 0.930 . S
H1237 C1252 0.960 . S
H1238 C1252 0.960 . S
H1239 C1252 0.960 . S
C1240 H1232 0.929 . S
C1240 C1241 1.377 . S
C1240 C1242 1.384 . S
C1241 C1240 1.377 . S
C1241 C1247 1.390 . S
C1242 H1233 0.930 . S
C1242 C1240 1.384 . S
C1242 C1243 1.372 . S
C1243 C1242 1.372 . S
C1243 C1244 1.400 . S
C1243 C1248 1.490 . S
C1244 H1234 0.930 . S
C1244 C1243 1.400 . S
C1244 C1247 1.386 . S
H1245 C1261 0.930 . S
H1246 C1262 0.931 . S
C1247 H1235 0.929 . S
C1247 C1241 1.390 . S
C1247 C1244 1.386 . S
C1248 C1243 1.490 . S
C1248 C1250 1.395 1_455 S
C1248 C1251 1.403 1_556 S
H1249 C1255 0.930 . S
C1250 H1236 0.930 . S
C1250 C1248 1.395 1_655 S
C1250 C1253 1.403 . S
C1251 C1248 1.403 1_554 S
C1251 C1252 1.524 . S
C1251 C1255 1.400 . S
C1252 H1237 0.960 . S
C1252 H1238 0.960 . S
C1252 H1239 0.960 . S
C1252 C1251 1.524 . S
C1253 C1250 1.403 . S
C1253 C1254 1.392 1_556 S
C1253 C1257 1.495 . S
C1254 C1253 1.392 1_554 S
C1254 C1255 1.385 1_655 S
C1254 C1256 1.478 . S
C1255 H1249 0.930 . S
C1255 C1251 1.400 . S
C1255 C1254 1.385 1_455 S
C1256 C1254 1.478 . S
C1256 C1258 1.381 . S
C1256 C1262 1.383 . S
C1257 C1253 1.495 . S
C1257 H1263 0.959 . S
C1257 H1264 0.961 . S
C1257 H1265 0.960 . S
C1258 C1256 1.381 . S
C1258 C1259 1.394 . S
C1258 H1266 0.930 . S
C1259 C1258 1.394 . S
C1259 C1260 1.383 . S
C1259 H1267 0.929 . S
C1260 C1259 1.383 . S
C1260 C1261 1.377 . S
C1261 H1245 0.930 . S
C1261 C1260 1.377 . S
C1261 C1262 1.379 . S
C1262 H1246 0.931 . S
C1262 C1256 1.383 . S
C1262 C1261 1.379 . S
H1263 C1257 0.959 . S
H1264 C1257 0.961 . S
H1265 C1257 0.960 . S
H1266 C1258 0.930 . S
H1267 C1259 0.929 . S
H1268 C1276 0.929 . S
H1269 C1278 0.930 . S
H1270 C1280 0.930 . S
H1271 C1283 0.929 . S
H1272 C1286 0.930 . S
H1273 C1288 0.960 . S
H1274 C1288 0.960 . S
H1275 C1288 0.960 . S
C1276 H1268 0.929 . S
C1276 C1277 1.377 . S
C1276 C1278 1.384 . S
C1277 C1276 1.377 . S
C1277 C1283 1.390 . S
C1278 H1269 0.930 . S
C1278 C1276 1.384 . S
C1278 C1279 1.372 . S
C1279 C1278 1.372 . S
C1279 C1280 1.400 . S
C1279 C1284 1.490 . S
C1280 H1270 0.930 . S
C1280 C1279 1.400 . S
C1280 C1283 1.386 . S
H1281 C1297 0.930 . S
H1282 C1298 0.931 . S
C1283 H1271 0.929 . S
C1283 C1277 1.390 . S
C1283 C1280 1.386 . S
C1284 C1279 1.490 . S
C1284 C1286 1.395 . S
C1284 C1287 1.403 . S
H1285 C1291 0.930 . S
C1286 H1272 0.930 . S
C1286 C1284 1.395 . S
C1286 C1289 1.403 . S
C1287 C1284 1.403 . S
C1287 C1288 1.524 . S
C1287 C1291 1.400 . S
C1288 H1273 0.960 . S
C1288 H1274 0.960 . S
C1288 H1275 0.960 . S
C1288 C1287 1.524 . S
C1289 C1286 1.403 . S
C1289 C1290 1.392 . S
C1289 C1293 1.495 . S
C1290 C1289 1.392 . S
C1290 C1291 1.385 . S
C1290 C1292 1.478 . S
C1291 H1285 0.930 . S
C1291 C1287 1.400 . S
C1291 C1290 1.385 . S
C1292 C1290 1.478 . S
C1292 C1294 1.381 . S
C1292 C1298 1.383 . S
C1293 C1289 1.495 . S
C1293 H1299 0.959 . S
C1293 H1300 0.961 . S
C1293 H1301 0.960 . S
C1294 C1292 1.381 . S
C1294 C1295 1.394 . S
C1294 H1302 0.930 . S
C1295 C1294 1.394 . S
C1295 C1296 1.383 . S
C1295 H1303 0.929 . S
C1296 C1295 1.383 . S
C1296 C1297 1.377 . S
C1297 H1281 0.930 . S
C1297 C1296 1.377 . S
C1297 C1298 1.379 . S
C1298 H1282 0.931 . S
C1298 C1292 1.383 . S
C1298 C1297 1.379 . S
H1299 C1293 0.959 . S
H1300 C1293 0.961 . S
H1301 C1293 0.960 . S
H1302 C1294 0.930 . S
H1303 C1295 0.929 . S
H1304 C1312 0.929 . S
H1305 C1314 0.930 . S
H1306 C1316 0.930 . S
H1307 C1319 0.929 . S
H1308 C1322 0.930 . S
H1309 C1324 0.960 . S
H1310 C1324 0.960 . S
H1311 C1324 0.960 1_556 S
C1312 H1304 0.929 . S
C1312 C1313 1.377 . S
C1312 C1314 1.384 . S
C1313 C1312 1.377 . S
C1313 C1319 1.390 . S
C1314 H1305 0.930 . S
C1314 C1312 1.384 . S
C1314 C1315 1.372 . S
C1315 C1314 1.372 . S
C1315 C1316 1.400 . S
C1315 C1320 1.490 . S
C1316 H1306 0.930 . S
C1316 C1315 1.400 . S
C1316 C1319 1.386 . S
H1317 C1333 0.930 . S
H1318 C1334 0.931 . S
C1319 H1307 0.929 . S
C1319 C1313 1.390 . S
C1319 C1316 1.386 . S
C1320 C1315 1.490 . S
C1320 C1322 1.395 . S
C1320 C1323 1.403 1_556 S
H1321 C1327 0.930 . S
C1322 H1308 0.930 . S
C1322 C1320 1.395 . S
C1322 C1325 1.403 . S
C1323 C1320 1.403 1_554 S
C1323 C1324 1.524 . S
C1323 C1327 1.400 . S
C1324 H1309 0.960 . S
C1324 H1310 0.960 . S
C1324 H1311 0.960 1_554 S
C1324 C1323 1.524 . S
C1325 C1322 1.403 . S
C1325 C1326 1.392 1_556 S
C1325 C1329 1.495 . S
C1326 C1325 1.392 1_554 S
C1326 C1327 1.385 . S
C1326 C1328 1.478 . S
C1327 H1321 0.930 . S
C1327 C1323 1.400 . S
C1327 C1326 1.385 . S
C1328 C1326 1.478 . S
C1328 C1330 1.381 . S
C1328 C1334 1.383 . S
C1329 C1325 1.495 . S
C1329 H1335 0.959 . S
C1329 H1336 0.961 . S
C1329 H1337 0.960 1_556 S
C1330 C1328 1.381 . S
C1330 C1331 1.394 . S
C1330 H1338 0.930 . S
C1331 C1330 1.394 . S
C1331 C1332 1.383 . S
C1331 H1339 0.929 . S
C1332 C1331 1.383 . S
C1332 C1333 1.377 . S
C1333 H1317 0.930 . S
C1333 C1332 1.377 . S
C1333 C1334 1.379 . S
C1334 H1318 0.931 . S
C1334 C1328 1.383 . S
C1334 C1333 1.379 . S
H1335 C1329 0.959 . S
H1336 C1329 0.961 . S
H1337 C1329 0.960 1_554 S
H1338 C1330 0.930 . S
H1339 C1331 0.929 . S
H1340 C1348 0.929 . S
H1341 C1350 0.930 . S
H1342 C1352 0.930 . S
H1343 C1355 0.929 . S
H1344 C1358 0.930 . S
H1345 C1360 0.960 . S
H1346 C1360 0.960 . S
H1347 C1360 0.960 . S
C1348 H1340 0.929 . S
C1348 C1349 1.377 . S
C1348 C1350 1.384 . S
C1349 C1348 1.377 . S
C1349 C1355 1.390 . S
C1350 H1341 0.930 . S
C1350 C1348 1.384 . S
C1350 C1351 1.372 . S
C1351 C1350 1.372 . S
C1351 C1352 1.400 . S
C1351 C1356 1.490 . S
C1352 H1342 0.930 . S
C1352 C1351 1.400 . S
C1352 C1355 1.386 . S
H1353 C1369 0.930 . S
H1354 C1370 0.931 . S
C1355 H1343 0.929 . S
C1355 C1349 1.390 . S
C1355 C1352 1.386 . S
C1356 C1351 1.490 . S
C1356 C1358 1.395 . S
C1356 C1359 1.403 . S
H1357 C1363 0.930 . S
C1358 H1344 0.930 . S
C1358 C1356 1.395 . S
C1358 C1361 1.403 . S
C1359 C1356 1.403 . S
C1359 C1360 1.524 . S
C1359 C1363 1.400 . S
C1360 H1345 0.960 . S
C1360 H1346 0.960 . S
C1360 H1347 0.960 . S
C1360 C1359 1.524 . S
C1361 C1358 1.403 . S
C1361 C1362 1.392 . S
C1361 C1365 1.495 . S
C1362 C1361 1.392 . S
C1362 C1363 1.385 . S
C1362 C1364 1.478 . S
C1363 H1357 0.930 . S
C1363 C1359 1.400 . S
C1363 C1362 1.385 . S
C1364 C1362 1.478 . S
C1364 C1366 1.381 . S
C1364 C1370 1.383 . S
C1365 C1361 1.495 . S
C1365 H1371 0.959 . S
C1365 H1372 0.961 . S
C1365 H1373 0.960 . S
C1366 C1364 1.381 . S
C1366 C1367 1.394 . S
C1366 H1374 0.930 . S
C1367 C1366 1.394 . S
C1367 C1368 1.383 . S
C1367 H1375 0.929 . S
C1368 C1367 1.383 . S
C1368 C1369 1.377 . S
C1369 H1353 0.930 . S
C1369 C1368 1.377 . S
C1369 C1370 1.379 . S
C1370 H1354 0.931 . S
C1370 C1364 1.383 . S
C1370 C1369 1.379 . S
H1371 C1365 0.959 . S
H1372 C1365 0.961 . S
H1373 C1365 0.960 . S
H1374 C1366 0.930 . S
H1375 C1367 0.929 . S
H1376 C1384 0.929 . S
H1377 C1386 0.930 . S
H1378 C1388 0.930 . S
H1379 C1391 0.929 . S
H1380 C1394 0.930 . S
H1381 C1396 0.960 1_554 S
H1382 C1396 0.960 . S
H1383 C1396 0.959 1_554 S
C1384 H1376 0.929 . S
C1384 C1385 1.377 . S
C1384 C1386 1.384 . S
C1385 C1384 1.377 . S
C1385 C1391 1.390 . S
C1386 H1377 0.930 . S
C1386 C1384 1.384 . S
C1386 C1387 1.372 . S
C1387 C1386 1.372 . S
C1387 C1388 1.400 . S
C1387 C1392 1.490 . S
C1388 H1378 0.930 . S
C1388 C1387 1.400 . S
C1388 C1391 1.386 . S
H1389 C1405 0.930 . S
H1390 C1406 0.931 . S
C1391 H1379 0.929 . S
C1391 C1385 1.390 . S
C1391 C1388 1.386 . S
C1392 C1387 1.490 . S
C1392 C1394 1.395 1_545 S
C1392 C1395 1.403 . S
H1393 C1399 0.930 . S
C1394 H1380 0.930 . S
C1394 C1392 1.395 1_565 S
C1394 C1397 1.424 . S
C1395 C1392 1.403 . S
C1395 C1396 1.524 . S
C1395 C1399 1.400 1_556 S
C1396 H1381 0.960 1_556 S
C1396 H1382 0.960 . S
C1396 H1383 0.959 1_556 S
C1396 C1395 1.524 . S
C1397 C1394 1.424 . S
C1397 C1398 1.374 1_556 S
C1397 C1401 1.494 . S
C1398 C1397 1.374 1_554 S
C1398 C1399 1.385 1_565 S
C1398 C1400 1.478 . S
C1399 H1393 0.930 . S
C1399 C1395 1.400 1_554 S
C1399 C1398 1.385 1_545 S
C1400 C1398 1.478 . S
C1400 C1402 1.381 . S
C1400 C1406 1.383 . S
C1401 C1397 1.494 . S
C1401 H1407 0.964 . S
C1401 H1408 0.956 1_556 S
C1401 H1409 0.960 . S
C1402 C1400 1.381 . S
C1402 C1403 1.394 . S
C1402 H1410 0.930 . S
C1403 C1402 1.394 . S
C1403 C1404 1.383 . S
C1403 H1411 0.929 . S
C1404 C1403 1.383 . S
C1404 C1405 1.377 . S
C1405 H1389 0.930 . S
C1405 C1404 1.377 . S
C1405 C1406 1.379 . S
C1406 H1390 0.931 . S
C1406 C1400 1.383 . S
C1406 C1405 1.379 . S
H1407 C1401 0.964 . S
H1408 C1401 0.956 1_554 S
H1409 C1401 0.960 . S
H1410 C1402 0.930 . S
H1411 C1403 0.929 . S
H1412 C1420 0.929 . S
H1413 C1422 0.930 . S
H1414 C1424 0.930 . S
H1415 C1427 0.929 . S
H1416 C1430 0.930 . S
H1417 C1432 0.960 . S
H1418 C1432 0.960 . S
H1419 C1432 0.960 . S
C1420 H1412 0.929 . S
C1420 C1421 1.377 . S
C1420 C1422 1.384 . S
C1421 C1420 1.377 . S
C1421 C1427 1.390 . S
C1422 H1413 0.930 . S
C1422 C1420 1.384 . S
C1422 C1423 1.372 . S
C1423 C1422 1.372 . S
C1423 C1424 1.400 . S
C1423 C1428 1.490 . S
C1424 H1414 0.930 . S
C1424 C1423 1.400 . S
C1424 C1427 1.386 . S
H1425 C1441 0.930 . S
H1426 C1442 0.931 . S
C1427 H1415 0.929 . S
C1427 C1421 1.390 . S
C1427 C1424 1.386 . S
C1428 C1423 1.490 . S
C1428 C1430 1.395 . S
C1428 C1431 1.403 . S
H1429 C1435 0.930 . S
C1430 H1416 0.930 . S
C1430 C1428 1.395 . S
C1430 C1433 1.403 . S
C1431 C1428 1.403 . S
C1431 C1432 1.524 . S
C1431 C1435 1.400 . S
C1432 H1417 0.960 . S
C1432 H1418 0.960 . S
C1432 H1419 0.960 . S
C1432 C1431 1.524 . S
C1433 C1430 1.403 . S
C1433 C1434 1.392 . S
C1433 C1437 1.495 . S
C1434 C1433 1.392 . S
C1434 C1435 1.385 . S
C1434 C1436 1.478 . S
C1435 H1429 0.930 . S
C1435 C1431 1.400 . S
C1435 C1434 1.385 . S
C1436 C1434 1.478 . S
C1436 C1438 1.381 . S
C1436 C1442 1.383 . S
C1437 C1433 1.495 . S
C1437 H1443 0.959 . S
C1437 H1444 0.961 . S
C1437 H1445 0.960 . S
C1438 C1436 1.381 . S
C1438 C1439 1.394 . S
C1438 H1446 0.930 . S
C1439 C1438 1.394 . S
C1439 C1440 1.383 . S
C1439 H1447 0.929 . S
C1440 C1439 1.383 . S
C1440 C1441 1.377 . S
C1441 H1425 0.930 . S
C1441 C1440 1.377 . S
C1441 C1442 1.379 . S
C1442 H1426 0.931 . S
C1442 C1436 1.383 . S
C1442 C1441 1.379 . S
H1443 C1437 0.959 . S
H1444 C1437 0.961 . S
H1445 C1437 0.960 . S
H1446 C1438 0.930 . S
H1447 C1439 0.929 . S
H1448 C1456 0.929 . S
H1449 C1458 0.930 . S
H1450 C1460 0.930 . S
H1451 C1463 0.929 . S
H1452 C1466 0.930 . S
H1453 C1468 0.960 . S
H1454 C1468 0.960 . S
H1455 C1468 0.960 . S
C1456 H1448 0.929 . S
C1456 C1457 1.377 . S
C1456 C1458 1.384 . S
C1457 C1456 1.377 . S
C1457 C1463 1.390 . S
C1458 H1449 0.930 . S
C1458 C1456 1.384 . S
C1458 C1459 1.372 . S
C1459 C1458 1.372 . S
C1459 C1460 1.400 . S
C1459 C1464 1.490 . S
C1460 H1450 0.930 . S
C1460 C1459 1.400 . S
C1460 C1463 1.386 . S
H1461 C1477 0.930 . S
H1462 C1478 0.931 . S
C1463 H1451 0.929 . S
C1463 C1457 1.390 . S
C1463 C1460 1.386 . S
C1464 C1459 1.490 . S
C1464 C1466 1.395 . S
C1464 C1467 1.403 . S
H1465 C1471 0.930 . S
C1466 H1452 0.930 . S
C1466 C1464 1.395 . S
C1466 C1469 1.403 . S
C1467 C1464 1.403 . S
C1467 C1468 1.524 . S
C1467 C1471 1.400 . S
C1468 H1453 0.960 . S
C1468 H1454 0.960 . S
C1468 H1455 0.960 . S
C1468 C1467 1.524 . S
C1469 C1466 1.403 . S
C1469 C1470 1.392 . S
C1469 C1473 1.495 . S
C1470 C1469 1.392 . S
C1470 C1471 1.385 . S
C1470 C1472 1.478 . S
C1471 H1465 0.930 . S
C1471 C1467 1.400 . S
C1471 C1470 1.385 . S
C1472 C1470 1.478 . S
C1472 C1474 1.381 . S
C1472 C1478 1.383 . S
C1473 C1469 1.495 . S
C1473 H1479 0.959 . S
C1473 H1480 0.961 . S
C1473 H1481 0.960 . S
C1474 C1472 1.381 . S
C1474 C1475 1.394 . S
C1474 H1482 0.930 . S
C1475 C1474 1.394 . S
C1475 C1476 1.383 . S
C1475 H1483 0.929 . S
C1476 C1475 1.383 . S
C1476 C1477 1.377 . S
C1477 H1461 0.930 . S
C1477 C1476 1.377 . S
C1477 C1478 1.379 . S
C1478 H1462 0.931 . S
C1478 C1472 1.383 . S
C1478 C1477 1.379 . S
H1479 C1473 0.959 . S
H1480 C1473 0.961 . S
H1481 C1473 0.960 . S
H1482 C1474 0.930 . S
H1483 C1475 0.929 . S
H1484 C1492 0.929 . S
H1485 C1494 0.930 . S
H1486 C1496 0.930 . S
H1487 C1499 0.929 . S
H1488 C1502 0.930 . S
H1489 C1504 0.960 . S
H1490 C1504 0.960 . S
H1491 C1504 0.960 . S
C1492 H1484 0.929 . S
C1492 C1493 1.377 . S
C1492 C1494 1.384 . S
C1493 C1492 1.377 . S
C1493 C1499 1.390 . S
C1494 H1485 0.930 . S
C1494 C1492 1.384 . S
C1494 C1495 1.372 . S
C1495 C1494 1.372 . S
C1495 C1496 1.400 . S
C1495 C1500 1.490 . S
C1496 H1486 0.930 . S
C1496 C1495 1.400 . S
C1496 C1499 1.386 . S
H1497 C1513 0.930 . S
H1498 C1514 0.931 . S
C1499 H1487 0.929 . S
C1499 C1493 1.390 . S
C1499 C1496 1.386 . S
C1500 C1495 1.490 . S
C1500 C1502 1.395 . S
C1500 C1503 1.403 . S
H1501 C1507 0.930 . S
C1502 H1488 0.930 . S
C1502 C1500 1.395 . S
C1502 C1505 1.403 . S
C1503 C1500 1.403 . S
C1503 C1504 1.524 . S
C1503 C1507 1.400 . S
C1504 H1489 0.960 . S
C1504 H1490 0.960 . S
C1504 H1491 0.960 . S
C1504 C1503 1.524 . S
C1505 C1502 1.403 . S
C1505 C1506 1.392 . S
C1505 C1509 1.495 . S
C1506 C1505 1.392 . S
C1506 C1507 1.385 . S
C1506 C1508 1.478 . S
C1507 H1501 0.930 . S
C1507 C1503 1.400 . S
C1507 C1506 1.385 . S
C1508 C1506 1.478 . S
C1508 C1510 1.381 . S
C1508 C1514 1.383 . S
C1509 C1505 1.495 . S
C1509 H1515 0.959 . S
C1509 H1516 0.961 . S
C1509 H1517 0.960 . S
C1510 C1508 1.381 . S
C1510 C1511 1.394 . S
C1510 H1518 0.930 . S
C1511 C1510 1.394 . S
C1511 C1512 1.383 . S
C1511 H1519 0.929 . S
C1512 C1511 1.383 . S
C1512 C1513 1.377 . S
C1513 H1497 0.930 . S
C1513 C1512 1.377 . S
C1513 C1514 1.379 . S
C1514 H1498 0.931 . S
C1514 C1508 1.383 . S
C1514 C1513 1.379 . S
H1515 C1509 0.959 . S
H1516 C1509 0.961 . S
H1517 C1509 0.960 . S
H1518 C1510 0.930 . S
H1519 C1511 0.929 . S
H1520 C1528 0.929 . S
H1521 C1530 0.930 . S
H1522 C1532 0.930 . S
H1523 C1535 0.929 . S
H1524 C1538 0.930 . S
H1525 C1540 0.960 . S
H1526 C1540 0.960 . S
H1527 C1540 0.960 . S
C1528 H1520 0.929 . S
C1528 C1529 1.377 . S
C1528 C1530 1.384 . S
C1529 C1528 1.377 . S
C1529 C1535 1.390 . S
C1530 H1521 0.930 . S
C1530 C1528 1.384 . S
C1530 C1531 1.372 . S
C1531 C1530 1.372 . S
C1531 C1532 1.400 . S
C1531 C1536 1.490 . S
C1532 H1522 0.930 . S
C1532 C1531 1.400 . S
C1532 C1535 1.386 . S
H1533 C1549 0.930 . S
H1534 C1550 0.931 . S
C1535 H1523 0.929 . S
C1535 C1529 1.390 . S
C1535 C1532 1.386 . S
C1536 C1531 1.490 . S
C1536 C1538 1.395 . S
C1536 C1539 1.403 . S
H1537 C1543 0.930 . S
C1538 H1524 0.930 . S
C1538 C1536 1.395 . S
C1538 C1541 1.403 . S
C1539 C1536 1.403 . S
C1539 C1540 1.524 . S
C1539 C1543 1.400 . S
C1540 H1525 0.960 . S
C1540 H1526 0.960 . S
C1540 H1527 0.960 . S
C1540 C1539 1.524 . S
C1541 C1538 1.403 . S
C1541 C1542 1.392 . S
C1541 C1545 1.495 . S
C1542 C1541 1.392 . S
C1542 C1543 1.385 . S
C1542 C1544 1.478 . S
C1543 H1537 0.930 . S
C1543 C1539 1.400 . S
C1543 C1542 1.385 . S
C1544 C1542 1.478 . S
C1544 C1546 1.381 . S
C1544 C1550 1.383 . S
C1545 C1541 1.495 . S
C1545 H1551 0.959 . S
C1545 H1552 0.961 . S
C1545 H1553 0.960 . S
C1546 C1544 1.381 . S
C1546 C1547 1.394 . S
C1546 H1554 0.930 . S
C1547 C1546 1.394 . S
C1547 C1548 1.383 . S
C1547 H1555 0.929 1_565 S
C1548 C1547 1.383 . S
C1548 C1549 1.377 . S
C1549 H1533 0.930 . S
C1549 C1548 1.377 . S
C1549 C1550 1.379 . S
C1550 H1534 0.931 . S
C1550 C1544 1.383 . S
C1550 C1549 1.379 . S
H1551 C1545 0.959 . S
H1552 C1545 0.961 . S
H1553 C1545 0.960 . S
H1554 C1546 0.930 . S
H1555 C1547 0.929 1_545 S
H1556 C1564 0.929 . S
H1557 C1566 0.930 . S
H1558 C1568 0.930 . S
H1559 C1571 0.929 . S
H1560 C1574 0.930 . S
H1561 C1576 0.960 . S
H1562 C1576 0.960 . S
H1563 C1576 0.960 . S
C1564 H1556 0.929 . S
C1564 C1565 1.377 . S
C1564 C1566 1.384 . S
C1565 C1564 1.377 . S
C1565 C1571 1.390 . S
C1566 H1557 0.930 . S
C1566 C1564 1.384 . S
C1566 C1567 1.372 . S
C1567 C1566 1.372 . S
C1567 C1568 1.400 . S
C1567 C1572 1.490 . S
C1568 H1558 0.930 . S
C1568 C1567 1.400 . S
C1568 C1571 1.386 . S
H1569 C1585 0.930 . S
H1570 C1586 0.931 . S
C1571 H1559 0.929 . S
C1571 C1565 1.390 . S
C1571 C1568 1.386 . S
C1572 C1567 1.490 . S
C1572 C1574 1.395 . S
C1572 C1575 1.403 . S
H1573 C1579 0.930 . S
C1574 H1560 0.930 . S
C1574 C1572 1.395 . S
C1574 C1577 1.403 . S
C1575 C1572 1.403 . S
C1575 C1576 1.524 . S
C1575 C1579 1.400 . S
C1576 H1561 0.960 . S
C1576 H1562 0.960 . S
C1576 H1563 0.960 . S
C1576 C1575 1.524 . S
C1577 C1574 1.403 . S
C1577 C1578 1.392 . S
C1577 C1581 1.495 . S
C1578 C1577 1.392 . S
C1578 C1579 1.385 . S
C1578 C1580 1.478 . S
C1579 H1573 0.930 . S
C1579 C1575 1.400 . S
C1579 C1578 1.385 . S
C1580 C1578 1.478 . S
C1580 C1582 1.381 . S
C1580 C1586 1.383 . S
C1581 C1577 1.495 . S
C1581 H1587 0.959 . S
C1581 H1588 0.961 . S
C1581 H1589 0.960 . S
C1582 C1580 1.381 . S
C1582 C1583 1.394 . S
C1582 H1590 0.930 . S
C1583 C1582 1.394 . S
C1583 C1584 1.383 . S
C1583 H1591 0.929 . S
C1584 C1583 1.383 . S
C1584 C1585 1.377 . S
C1585 H1569 0.930 . S
C1585 C1584 1.377 . S
C1585 C1586 1.379 . S
C1586 H1570 0.931 . S
C1586 C1580 1.383 . S
C1586 C1585 1.379 . S
H1587 C1581 0.959 . S
H1588 C1581 0.961 . S
H1589 C1581 0.960 . S
H1590 C1582 0.930 . S
H1591 C1583 0.929 . S
H1592 C1600 0.929 . S
H1593 C1602 0.930 . S
H1594 C1604 0.930 . S
H1595 C1607 0.929 . S
H1596 C1610 0.930 . S
H1597 C1612 0.960 . S
H1598 C1612 0.960 . S
H1599 C1612 0.960 . S
C1600 H1592 0.929 . S
C1600 C1601 1.377 . S
C1600 C1602 1.384 . S
C1601 C1600 1.377 . S
C1601 C1607 1.390 . S
C1602 H1593 0.930 . S
C1602 C1600 1.384 . S
C1602 C1603 1.372 . S
C1603 C1602 1.372 . S
C1603 C1604 1.400 . S
C1603 C1608 1.490 . S
C1604 H1594 0.930 . S
C1604 C1603 1.400 . S
C1604 C1607 1.386 . S
H1605 C1621 0.930 . S
H1606 C1622 0.931 . S
C1607 H1595 0.929 . S
C1607 C1601 1.390 . S
C1607 C1604 1.386 . S
C1608 C1603 1.490 . S
C1608 C1610 1.395 . S
C1608 C1611 1.403 . S
H1609 C1615 0.930 . S
C1610 H1596 0.930 . S
C1610 C1608 1.395 . S
C1610 C1613 1.403 . S
C1611 C1608 1.403 . S
C1611 C1612 1.524 . S
C1611 C1615 1.400 . S
C1612 H1597 0.960 . S
C1612 H1598 0.960 . S
C1612 H1599 0.960 . S
C1612 C1611 1.524 . S
C1613 C1610 1.403 . S
C1613 C1614 1.392 . S
C1613 C1617 1.495 . S
C1614 C1613 1.392 . S
C1614 C1615 1.385 . S
C1614 C1616 1.478 . S
C1615 H1609 0.930 . S
C1615 C1611 1.400 . S
C1615 C1614 1.385 . S
C1616 C1614 1.478 . S
C1616 C1618 1.381 . S
C1616 C1622 1.383 . S
C1617 C1613 1.495 . S
C1617 H1623 0.959 . S
C1617 H1624 0.961 . S
C1617 H1625 0.960 . S
C1618 C1616 1.381 . S
C1618 C1619 1.394 . S
C1618 H1626 0.930 . S
C1619 C1618 1.394 . S
C1619 C1620 1.383 . S
C1619 H1627 0.929 . S
C1620 C1619 1.383 . S
C1620 C1621 1.377 . S
C1621 H1605 0.930 . S
C1621 C1620 1.377 . S
C1621 C1622 1.379 . S
C1622 H1606 0.931 . S
C1622 C1616 1.383 . S
C1622 C1621 1.379 . S
H1623 C1617 0.959 . S
H1624 C1617 0.961 . S
H1625 C1617 0.960 . S
H1626 C1618 0.930 . S
H1627 C1619 0.929 . S
H1628 C1636 0.929 . S
H1629 C1638 0.930 . S
H1630 C1640 0.930 . S
H1631 C1643 0.929 . S
H1632 C1646 0.930 . S
H1633 C1648 0.960 . S
H1634 C1648 0.960 . S
H1635 C1648 0.960 . S
C1636 H1628 0.929 . S
C1636 C1637 1.377 . S
C1636 C1638 1.384 . S
C1637 C1636 1.377 . S
C1637 C1643 1.390 . S
C1638 H1629 0.930 . S
C1638 C1636 1.384 . S
C1638 C1639 1.372 . S
C1639 C1638 1.372 . S
C1639 C1640 1.400 . S
C1639 C1644 1.490 . S
C1640 H1630 0.930 . S
C1640 C1639 1.400 . S
C1640 C1643 1.386 . S
H1641 C1657 0.930 . S
H1642 C1658 0.931 . S
C1643 H1631 0.929 . S
C1643 C1637 1.390 . S
C1643 C1640 1.386 . S
C1644 C1639 1.490 . S
C1644 C1646 1.395 . S
C1644 C1647 1.403 . S
H1645 C1651 0.930 . S
C1646 H1632 0.930 . S
C1646 C1644 1.395 . S
C1646 C1649 1.403 . S
C1647 C1644 1.403 . S
C1647 C1648 1.524 . S
C1647 C1651 1.400 . S
C1648 H1633 0.960 . S
C1648 H1634 0.960 . S
C1648 H1635 0.960 . S
C1648 C1647 1.524 . S
C1649 C1646 1.403 . S
C1649 C1650 1.392 . S
C1649 C1653 1.495 . S
C1650 C1649 1.392 . S
C1650 C1651 1.385 . S
C1650 C1652 1.478 . S
C1651 H1645 0.930 . S
C1651 C1647 1.400 . S
C1651 C1650 1.385 . S
C1652 C1650 1.478 . S
C1652 C1654 1.381 . S
C1652 C1658 1.383 . S
C1653 C1649 1.495 . S
C1653 H1659 0.959 . S
C1653 H1660 0.961 . S
C1653 H1661 0.960 . S
C1654 C1652 1.381 . S
C1654 C1655 1.394 . S
C1654 H1662 0.930 . S
C1655 C1654 1.394 . S
C1655 C1656 1.383 . S
C1655 H1663 0.929 1_565 S
C1656 C1655 1.383 . S
C1656 C1657 1.377 . S
C1657 H1641 0.930 . S
C1657 C1656 1.377 . S
C1657 C1658 1.379 . S
C1658 H1642 0.931 . S
C1658 C1652 1.383 . S
C1658 C1657 1.379 . S
H1659 C1653 0.959 . S
H1660 C1653 0.961 . S
H1661 C1653 0.960 . S
H1662 C1654 0.930 . S
H1663 C1655 0.929 1_545 S
H1664 C1672 0.929 . S
H1665 C1674 0.930 . S
H1666 C1676 0.930 . S
H1667 C1679 0.929 . S
H1668 C1682 0.930 . S
H1669 C1684 0.960 . S
H1670 C1684 0.960 . S
H1671 C1684 0.960 . S
C1672 H1664 0.929 . S
C1672 C1673 1.377 . S
C1672 C1674 1.384 . S
C1673 C1672 1.377 . S
C1673 C1679 1.390 . S
C1674 H1665 0.930 . S
C1674 C1672 1.384 . S
C1674 C1675 1.372 . S
C1675 C1674 1.372 . S
C1675 C1676 1.400 . S
C1675 C1680 1.490 . S
C1676 H1666 0.930 . S
C1676 C1675 1.400 . S
C1676 C1679 1.386 . S
H1677 C1693 0.930 . S
H1678 C1694 0.931 . S
C1679 H1667 0.929 . S
C1679 C1673 1.390 . S
C1679 C1676 1.386 . S
C1680 C1675 1.490 . S
C1680 C1682 1.395 . S
C1680 C1683 1.403 . S
H1681 C1687 0.930 . S
C1682 H1668 0.930 . S
C1682 C1680 1.395 . S
C1682 C1685 1.403 . S
C1683 C1680 1.403 . S
C1683 C1684 1.524 . S
C1683 C1687 1.400 . S
C1684 H1669 0.960 . S
C1684 H1670 0.960 . S
C1684 H1671 0.960 . S
C1684 C1683 1.524 . S
C1685 C1682 1.403 . S
C1685 C1686 1.392 . S
C1685 C1689 1.495 . S
C1686 C1685 1.392 . S
C1686 C1687 1.385 . S
C1686 C1688 1.478 . S
C1687 H1681 0.930 . S
C1687 C1683 1.400 . S
C1687 C1686 1.385 . S
C1688 C1686 1.478 . S
C1688 C1690 1.381 . S
C1688 C1694 1.383 . S
C1689 C1685 1.495 . S
C1689 H1695 0.959 . S
C1689 H1696 0.961 . S
C1689 H1697 0.960 . S
C1690 C1688 1.381 . S
C1690 C1691 1.394 . S
C1690 H1698 0.930 . S
C1691 C1690 1.394 . S
C1691 C1692 1.383 . S
C1691 H1699 0.929 1_545 S
C1692 C1691 1.383 . S
C1692 C1693 1.377 . S
C1693 H1677 0.930 . S
C1693 C1692 1.377 . S
C1693 C1694 1.379 . S
C1694 H1678 0.931 . S
C1694 C1688 1.383 . S
C1694 C1693 1.379 . S
H1695 C1689 0.959 . S
H1696 C1689 0.961 . S
H1697 C1689 0.960 . S
H1698 C1690 0.930 . S
H1699 C1691 0.929 1_565 S
H1700 C1708 0.929 . S
H1701 C1710 0.930 . S
H1702 C1712 0.930 . S
H1703 C1715 0.929 . S
H1704 C1718 0.930 . S
H1705 C1720 0.960 . S
H1706 C1720 0.960 . S
H1707 C1720 0.960 . S
C1708 H1700 0.929 . S
C1708 C1709 1.377 . S
C1708 C1710 1.384 . S
C1709 C1708 1.377 . S
C1709 C1715 1.390 . S
C1710 H1701 0.930 . S
C1710 C1708 1.384 . S
C1710 C1711 1.372 . S
C1711 C1710 1.372 . S
C1711 C1712 1.400 . S
C1711 C1716 1.490 . S
C1712 H1702 0.930 . S
C1712 C1711 1.400 . S
C1712 C1715 1.386 . S
H1713 C1729 0.930 . S
H1714 C1730 0.931 . S
C1715 H1703 0.929 . S
C1715 C1709 1.390 . S
C1715 C1712 1.386 . S
C1716 C1711 1.490 . S
C1716 C1718 1.395 . S
C1716 C1719 1.403 . S
H1717 C1723 0.930 . S
C1718 H1704 0.930 . S
C1718 C1716 1.395 . S
C1718 C1721 1.403 . S
C1719 C1716 1.403 . S
C1719 C1720 1.524 . S
C1719 C1723 1.400 . S
C1720 H1705 0.960 . S
C1720 H1706 0.960 . S
C1720 H1707 0.960 . S
C1720 C1719 1.524 . S
C1721 C1718 1.403 . S
C1721 C1722 1.392 . S
C1721 C1725 1.495 . S
C1722 C1721 1.392 . S
C1722 C1723 1.385 . S
C1722 C1724 1.478 . S
C1723 H1717 0.930 . S
C1723 C1719 1.400 . S
C1723 C1722 1.385 . S
C1724 C1722 1.478 . S
C1724 C1726 1.381 . S
C1724 C1730 1.383 . S
C1725 C1721 1.495 . S
C1725 H1731 0.959 . S
C1725 H1732 0.961 . S
C1725 H1733 0.960 . S
C1726 C1724 1.381 . S
C1726 C1727 1.394 . S
C1726 H1734 0.930 . S
C1727 C1726 1.394 . S
C1727 C1728 1.383 . S
C1727 H1735 0.929 . S
C1728 C1727 1.383 . S
C1728 C1729 1.377 . S
C1729 H1713 0.930 . S
C1729 C1728 1.377 . S
C1729 C1730 1.379 . S
C1730 H1714 0.931 . S
C1730 C1724 1.383 . S
C1730 C1729 1.379 . S
H1731 C1725 0.959 . S
H1732 C1725 0.961 . S
H1733 C1725 0.960 . S
H1734 C1726 0.930 . S
H1735 C1727 0.929 . S
H1736 C1744 0.929 . S
H1737 C1746 0.930 . S
H1738 C1748 0.930 . S
H1739 C1751 0.929 . S
H1740 C1754 0.930 . S
H1741 C1756 0.960 . S
H1742 C1756 0.960 . S
H1743 C1756 0.960 . S
C1744 H1736 0.929 . S
C1744 C1745 1.377 . S
C1744 C1746 1.384 . S
C1745 C1744 1.377 . S
C1745 C1751 1.390 . S
C1746 H1737 0.930 . S
C1746 C1744 1.384 . S
C1746 C1747 1.372 . S
C1747 C1746 1.372 . S
C1747 C1748 1.400 . S
C1747 C1752 1.490 . S
C1748 H1738 0.930 . S
C1748 C1747 1.400 . S
C1748 C1751 1.386 . S
H1749 C1765 0.930 . S
H1750 C1766 0.931 . S
C1751 H1739 0.929 . S
C1751 C1745 1.390 . S
C1751 C1748 1.386 . S
C1752 C1747 1.490 . S
C1752 C1754 1.395 . S
C1752 C1755 1.403 . S
H1753 C1759 0.930 . S
C1754 H1740 0.930 . S
C1754 C1752 1.395 . S
C1754 C1757 1.403 . S
C1755 C1752 1.403 . S
C1755 C1756 1.524 . S
C1755 C1759 1.400 . S
C1756 H1741 0.960 . S
C1756 H1742 0.960 . S
C1756 H1743 0.960 . S
C1756 C1755 1.524 . S
C1757 C1754 1.403 . S
C1757 C1758 1.392 . S
C1757 C1761 1.495 . S
C1758 C1757 1.392 . S
C1758 C1759 1.385 . S
C1758 C1760 1.478 . S
C1759 H1753 0.930 . S
C1759 C1755 1.400 . S
C1759 C1758 1.385 . S
C1760 C1758 1.478 . S
C1760 C1762 1.381 . S
C1760 C1766 1.383 . S
C1761 C1757 1.495 . S
C1761 H1767 0.959 . S
C1761 H1768 0.961 . S
C1761 H1769 0.960 . S
C1762 C1760 1.381 . S
C1762 C1763 1.394 . S
C1762 H1770 0.930 . S
C1763 C1762 1.394 . S
C1763 C1764 1.383 . S
C1763 H1771 0.929 . S
C1764 C1763 1.383 . S
C1764 C1765 1.377 . S
C1765 H1749 0.930 . S
C1765 C1764 1.377 . S
C1765 C1766 1.379 . S
C1766 H1750 0.931 . S
C1766 C1760 1.383 . S
C1766 C1765 1.379 . S
H1767 C1761 0.959 . S
H1768 C1761 0.961 . S
H1769 C1761 0.960 . S
H1770 C1762 0.930 . S
H1771 C1763 0.929 . S
H1772 C1780 0.929 1_565 S
H1773 C1782 0.930 . S
H1774 C1784 0.930 . S
H1775 C1787 0.929 . S
H1776 C1790 0.930 . S
H1777 C1792 0.960 . S
H1778 C1792 0.960 . S
H1779 C1792 0.960 . S
C1780 H1772 0.929 1_545 S
C1780 C1781 1.377 . S
C1780 C1782 1.384 . S
C1781 C1780 1.377 . S
C1781 C1787 1.390 . S
C1782 H1773 0.930 . S
C1782 C1780 1.384 . S
C1782 C1783 1.372 . S
C1783 C1782 1.372 . S
C1783 C1784 1.400 . S
C1783 C1788 1.490 . S
C1784 H1774 0.930 . S
C1784 C1783 1.400 . S
C1784 C1787 1.386 . S
H1785 C1801 0.930 . S
H1786 C1802 0.931 . S
C1787 H1775 0.929 . S
C1787 C1781 1.390 . S
C1787 C1784 1.386 . S
C1788 C1783 1.490 . S
C1788 C1790 1.395 . S
C1788 C1791 1.403 . S
H1789 C1795 0.930 . S
C1790 H1776 0.930 . S
C1790 C1788 1.395 . S
C1790 C1793 1.403 . S
C1791 C1788 1.403 . S
C1791 C1792 1.524 . S
C1791 C1795 1.400 . S
C1792 H1777 0.960 . S
C1792 H1778 0.960 . S
C1792 H1779 0.960 . S
C1792 C1791 1.524 . S
C1793 C1790 1.403 . S
C1793 C1794 1.392 . S
C1793 C1797 1.495 . S
C1794 C1793 1.392 . S
C1794 C1795 1.385 . S
C1794 C1796 1.478 . S
C1795 H1789 0.930 . S
C1795 C1791 1.400 . S
C1795 C1794 1.385 . S
C1796 C1794 1.478 . S
C1796 C1798 1.381 . S
C1796 C1802 1.383 . S
C1797 C1793 1.495 . S
C1797 H1803 0.959 . S
C1797 H1804 0.961 . S
C1797 H1805 0.960 . S
C1798 C1796 1.381 . S
C1798 C1799 1.394 . S
C1798 H1806 0.930 . S
C1799 C1798 1.394 . S
C1799 C1800 1.383 . S
C1799 H1807 0.929 . S
C1800 C1799 1.383 . S
C1800 C1801 1.377 . S
C1801 H1785 0.930 . S
C1801 C1800 1.377 . S
C1801 C1802 1.379 . S
C1802 H1786 0.931 . S
C1802 C1796 1.383 . S
C1802 C1801 1.379 . S
H1803 C1797 0.959 . S
H1804 C1797 0.961 . S
H1805 C1797 0.960 . S
H1806 C1798 0.930 . S
H1807 C1799 0.929 . S
H1808 C1816 0.929 . S
H1809 C1818 0.930 . S
H1810 C1820 0.930 . S
H1811 C1823 0.929 . S
H1812 C1826 0.930 . S
H1813 C1828 0.960 . S
H1814 C1828 0.960 . S
H1815 C1828 0.960 . S
C1816 H1808 0.929 . S
C1816 C1817 1.377 . S
C1816 C1818 1.384 . S
C1817 C1816 1.377 . S
C1817 C1823 1.390 . S
C1818 H1809 0.930 . S
C1818 C1816 1.384 . S
C1818 C1819 1.372 . S
C1819 C1818 1.372 . S
C1819 C1820 1.400 . S
C1819 C1824 1.490 . S
C1820 H1810 0.930 . S
C1820 C1819 1.400 . S
C1820 C1823 1.386 . S
H1821 C1837 0.912 1_545 S
H1822 C1838 0.931 . S
C1823 H1811 0.929 . S
C1823 C1817 1.390 . S
C1823 C1820 1.386 . S
C1824 C1819 1.490 . S
C1824 C1826 1.395 . S
C1824 C1827 1.403 . S
H1825 C1831 0.930 . S
C1826 H1812 0.930 . S
C1826 C1824 1.395 . S
C1826 C1829 1.403 . S
C1827 C1824 1.403 . S
C1827 C1828 1.524 . S
C1827 C1831 1.400 . S
C1828 H1813 0.960 . S
C1828 H1814 0.960 . S
C1828 H1815 0.960 . S
C1828 C1827 1.524 . S
C1829 C1826 1.403 . S
C1829 C1830 1.392 . S
C1829 C1833 1.495 . S
C1830 C1829 1.392 . S
C1830 C1831 1.385 . S
C1830 C1832 1.478 . S
C1831 H1825 0.930 . S
C1831 C1827 1.400 . S
C1831 C1830 1.385 . S
C1832 C1830 1.478 . S
C1832 C1834 1.381 . S
C1832 C1838 1.383 . S
C1833 C1829 1.495 . S
C1833 H1839 0.959 . S
C1833 H1840 0.961 . S
C1833 H1841 0.960 . S
C1834 C1832 1.381 . S
C1834 C1835 1.394 . S
C1834 H1842 0.930 . S
C1835 C1834 1.394 . S
C1835 C1836 1.383 . S
C1835 H1843 0.929 . S
C1836 C1835 1.383 . S
C1836 C1837 1.377 . S
C1837 H1821 0.912 1_565 S
C1837 C1836 1.377 . S
C1837 C1838 1.379 . S
C1838 H1822 0.931 . S
C1838 C1832 1.383 . S
C1838 C1837 1.379 . S
H1839 C1833 0.959 . S
H1840 C1833 0.961 . S
H1841 C1833 0.960 . S
H1842 C1834 0.930 . S
H1843 C1835 0.929 . S
H1844 C1852 0.929 . S
H1845 C1854 0.930 . S
H1846 C1856 0.930 . S
H1847 C1859 0.929 . S
H1848 C1862 0.930 . S
H1849 C1864 0.960 . S
H1850 C1864 0.960 . S
H1851 C1864 0.960 . S
C1852 H1844 0.929 . S
C1852 C1853 1.377 . S
C1852 C1854 1.384 . S
C1853 C1852 1.377 . S
C1853 C1859 1.390 . S
C1854 H1845 0.930 . S
C1854 C1852 1.384 . S
C1854 C1855 1.372 . S
C1855 C1854 1.372 . S
C1855 C1856 1.400 . S
C1855 C1860 1.490 . S
C1856 H1846 0.930 . S
C1856 C1855 1.400 . S
C1856 C1859 1.386 . S
H1857 C1873 0.930 . S
H1858 C1874 0.931 . S
C1859 H1847 0.929 . S
C1859 C1853 1.390 . S
C1859 C1856 1.386 . S
C1860 C1855 1.490 . S
C1860 C1862 1.395 . S
C1860 C1863 1.403 . S
H1861 C1867 0.930 . S
C1862 H1848 0.930 . S
C1862 C1860 1.395 . S
C1862 C1865 1.403 . S
C1863 C1860 1.403 . S
C1863 C1864 1.524 . S
C1863 C1867 1.400 . S
C1864 H1849 0.960 . S
C1864 H1850 0.960 . S
C1864 H1851 0.960 . S
C1864 C1863 1.524 . S
C1865 C1862 1.403 . S
C1865 C1866 1.392 . S
C1865 C1869 1.495 . S
C1866 C1865 1.392 . S
C1866 C1867 1.385 . S
C1866 C1868 1.478 . S
C1867 H1861 0.930 . S
C1867 C1863 1.400 . S
C1867 C1866 1.385 . S
C1868 C1866 1.478 . S
C1868 C1870 1.381 . S
C1868 C1874 1.383 . S
C1869 C1865 1.495 . S
C1869 H1875 0.959 . S
C1869 H1876 0.961 . S
C1869 H1877 0.960 . S
C1870 C1868 1.381 . S
C1870 C1871 1.394 . S
C1870 H1878 0.930 . S
C1871 C1870 1.394 . S
C1871 C1872 1.383 . S
C1871 H1879 0.929 . S
C1872 C1871 1.383 . S
C1872 C1873 1.377 . S
C1873 H1857 0.930 . S
C1873 C1872 1.377 . S
C1873 C1874 1.379 . S
C1874 H1858 0.931 . S
C1874 C1868 1.383 . S
C1874 C1873 1.379 . S
H1875 C1869 0.959 . S
H1876 C1869 0.961 . S
H1877 C1869 0.960 . S
H1878 C1870 0.930 . S
H1879 C1871 0.929 . S
H1880 C1888 0.929 . S
H1881 C1890 0.930 . S
H1882 C1892 0.930 . S
H1883 C1895 0.929 . S
H1884 C1898 0.930 . S
H1885 C1900 0.960 . S
H1886 C1900 0.960 . S
H1887 C1900 0.960 . S
C1888 H1880 0.929 . S
C1888 C1889 1.377 . S
C1888 C1890 1.384 . S
C1889 C1888 1.377 . S
C1889 C1895 1.390 . S
C1890 H1881 0.930 . S
C1890 C1888 1.384 . S
C1890 C1891 1.372 . S
C1891 C1890 1.372 . S
C1891 C1892 1.400 . S
C1891 C1896 1.490 . S
C1892 H1882 0.930 . S
C1892 C1891 1.400 . S
C1892 C1895 1.386 . S
H1893 C1909 0.930 . S
H1894 C1910 0.931 . S
C1895 H1883 0.929 . S
C1895 C1889 1.390 . S
C1895 C1892 1.386 . S
C1896 C1891 1.490 . S
C1896 C1898 1.395 . S
C1896 C1899 1.403 . S
H1897 C1903 0.930 . S
C1898 H1884 0.930 . S
C1898 C1896 1.395 . S
C1898 C1901 1.403 . S
C1899 C1896 1.403 . S
C1899 C1900 1.524 . S
C1899 C1903 1.400 . S
C1900 H1885 0.960 . S
C1900 H1886 0.960 . S
C1900 H1887 0.960 . S
C1900 C1899 1.524 . S
C1901 C1898 1.403 . S
C1901 C1902 1.392 . S
C1901 C1905 1.495 . S
C1902 C1901 1.392 . S
C1902 C1903 1.385 . S
C1902 C1904 1.478 . S
C1903 H1897 0.930 . S
C1903 C1899 1.400 . S
C1903 C1902 1.385 . S
C1904 C1902 1.478 . S
C1904 C1906 1.381 . S
C1904 C1910 1.383 . S
C1905 C1901 1.495 . S
C1905 H1911 0.959 . S
C1905 H1912 0.961 . S
C1905 H1913 0.960 . S
C1906 C1904 1.381 . S
C1906 C1907 1.394 . S
C1906 H1914 0.930 . S
C1907 C1906 1.394 . S
C1907 C1908 1.383 . S
C1907 H1915 0.929 . S
C1908 C1907 1.383 . S
C1908 C1909 1.377 . S
C1909 H1893 0.930 . S
C1909 C1908 1.377 . S
C1909 C1910 1.379 . S
C1910 H1894 0.931 . S
C1910 C1904 1.383 . S
C1910 C1909 1.379 . S
H1911 C1905 0.959 . S
H1912 C1905 0.961 . S
H1913 C1905 0.960 . S
H1914 C1906 0.930 . S
H1915 C1907 0.929 . S
H1916 C1924 0.929 . S
H1917 C1926 0.930 . S
H1918 C1928 0.930 . S
H1919 C1931 0.929 . S
H1920 C1934 0.930 . S
H1921 C1936 0.960 . S
H1922 C1936 0.960 . S
H1923 C1936 0.960 . S
C1924 H1916 0.929 . S
C1924 C1925 1.377 . S
C1924 C1926 1.384 . S
C1925 C1924 1.377 . S
C1925 C1931 1.390 . S
C1926 H1917 0.930 . S
C1926 C1924 1.384 . S
C1926 C1927 1.372 . S
C1927 C1926 1.372 . S
C1927 C1928 1.400 . S
C1927 C1932 1.490 . S
C1928 H1918 0.930 . S
C1928 C1927 1.400 . S
C1928 C1931 1.386 . S
H1929 C1945 0.930 . S
H1930 C1946 0.931 . S
C1931 H1919 0.929 . S
C1931 C1925 1.390 . S
C1931 C1928 1.386 . S
C1932 C1927 1.490 . S
C1932 C1934 1.395 . S
C1932 C1935 1.403 . S
H1933 C1939 0.930 . S
C1934 H1920 0.930 . S
C1934 C1932 1.395 . S
C1934 C1937 1.403 . S
C1935 C1932 1.403 . S
C1935 C1936 1.524 . S
C1935 C1939 1.400 . S
C1936 H1921 0.960 . S
C1936 H1922 0.960 . S
C1936 H1923 0.960 . S
C1936 C1935 1.524 . S
C1937 C1934 1.403 . S
C1937 C1938 1.392 . S
C1937 C1941 1.495 . S
C1938 C1937 1.392 . S
C1938 C1939 1.385 . S
C1938 C1940 1.478 . S
C1939 H1933 0.930 . S
C1939 C1935 1.400 . S
C1939 C1938 1.385 . S
C1940 C1938 1.478 . S
C1940 C1942 1.381 . S
C1940 C1946 1.383 . S
C1941 C1937 1.495 . S
C1941 H1947 0.959 . S
C1941 H1948 0.961 . S
C1941 H1949 0.960 . S
C1942 C1940 1.381 . S
C1942 C1943 1.394 . S
C1942 H1950 0.930 . S
C1943 C1942 1.394 . S
C1943 C1944 1.383 . S
C1943 H1951 0.929 1_565 S
C1944 C1943 1.383 . S
C1944 C1945 1.377 . S
C1945 H1929 0.930 . S
C1945 C1944 1.377 . S
C1945 C1946 1.379 . S
C1946 H1930 0.931 . S
C1946 C1940 1.383 . S
C1946 C1945 1.379 . S
H1947 C1941 0.959 . S
H1948 C1941 0.961 . S
H1949 C1941 0.960 . S
H1950 C1942 0.930 . S
H1951 C1943 0.929 1_545 S
H1952 C1960 0.929 . S
H1953 C1962 0.930 . S
H1954 C1964 0.930 . S
H1955 C1967 0.929 . S
H1956 C1970 0.930 . S
H1957 C1972 0.960 . S
H1958 C1972 0.960 . S
H1959 C1972 0.960 . S
C1960 H1952 0.929 . S
C1960 C1961 1.377 . S
C1960 C1962 1.384 . S
C1961 C1960 1.377 . S
C1961 C1967 1.390 . S
C1962 H1953 0.930 . S
C1962 C1960 1.384 . S
C1962 C1963 1.372 . S
C1963 C1962 1.372 . S
C1963 C1964 1.400 . S
C1963 C1968 1.490 . S
C1964 H1954 0.930 . S
C1964 C1963 1.400 . S
C1964 C1967 1.386 . S
H1965 C1981 0.930 1_565 S
H1966 C1982 0.931 . S
C1967 H1955 0.929 . S
C1967 C1961 1.390 . S
C1967 C1964 1.386 . S
C1968 C1963 1.490 . S
C1968 C1970 1.395 . S
C1968 C1971 1.403 . S
H1969 C1975 0.930 . S
C1970 H1956 0.930 . S
C1970 C1968 1.395 . S
C1970 C1973 1.403 . S
C1971 C1968 1.403 . S
C1971 C1972 1.524 . S
C1971 C1975 1.400 . S
C1972 H1957 0.960 . S
C1972 H1958 0.960 . S
C1972 H1959 0.960 . S
C1972 C1971 1.524 . S
C1973 C1970 1.403 . S
C1973 C1974 1.392 . S
C1973 C1977 1.495 . S
C1974 C1973 1.392 . S
C1974 C1975 1.385 . S
C1974 C1976 1.478 . S
C1975 H1969 0.930 . S
C1975 C1971 1.400 . S
C1975 C1974 1.385 . S
C1976 C1974 1.478 . S
C1976 C1978 1.381 . S
C1976 C1982 1.383 . S
C1977 C1973 1.495 . S
C1977 H1983 0.959 . S
C1977 H1984 0.961 . S
C1977 H1985 0.960 . S
C1978 C1976 1.381 . S
C1978 C1979 1.394 . S
C1978 H1986 0.930 . S
C1979 C1978 1.394 . S
C1979 C1980 1.383 . S
C1979 H1987 0.929 . S
C1980 C1979 1.383 . S
C1980 C1981 1.377 . S
C1981 H1965 0.930 1_545 S
C1981 C1980 1.377 . S
C1981 C1982 1.379 . S
C1982 H1966 0.931 . S
C1982 C1976 1.383 . S
C1982 C1981 1.379 . S
H1983 C1977 0.959 . S
H1984 C1977 0.961 . S
H1985 C1977 0.960 . S
H1986 C1978 0.930 . S
H1987 C1979 0.929 . S
H1988 C1996 0.929 . S
H1989 C1998 0.930 . S
H1990 C2000 0.930 . S
H1991 C2003 0.929 . S
H1992 C2006 0.930 . S
H1993 C2008 0.960 . S
H1994 C2008 0.960 . S
H1995 C2008 0.960 . S
C1996 H1988 0.929 . S
C1996 C1997 1.377 . S
C1996 C1998 1.384 . S
C1997 C1996 1.377 . S
C1997 C2003 1.390 . S
C1998 H1989 0.930 . S
C1998 C1996 1.384 . S
C1998 C1999 1.372 . S
C1999 C1998 1.372 . S
C1999 C2000 1.400 . S
C1999 C2004 1.490 . S
C2000 H1990 0.930 . S
C2000 C1999 1.400 . S
C2000 C2003 1.386 . S
H2001 C2017 0.930 . S
H2002 C2018 0.931 . S
C2003 H1991 0.929 . S
C2003 C1997 1.390 . S
C2003 C2000 1.386 . S
C2004 C1999 1.490 . S
C2004 C2006 1.395 . S
C2004 C2007 1.403 . S
H2005 C2011 0.930 . S
C2006 H1992 0.930 . S
C2006 C2004 1.395 . S
C2006 C2009 1.403 . S
C2007 C2004 1.403 . S
C2007 C2008 1.524 . S
C2007 C2011 1.400 . S
C2008 H1993 0.960 . S
C2008 H1994 0.960 . S
C2008 H1995 0.960 . S
C2008 C2007 1.524 . S
C2009 C2006 1.403 . S
C2009 C2010 1.392 . S
C2009 C2013 1.495 . S
C2010 C2009 1.392 . S
C2010 C2011 1.385 . S
C2010 C2012 1.478 . S
C2011 H2005 0.930 . S
C2011 C2007 1.400 . S
C2011 C2010 1.385 . S
C2012 C2010 1.478 . S
C2012 C2014 1.381 . S
C2012 C2018 1.383 . S
C2013 C2009 1.495 . S
C2013 H2019 0.959 . S
C2013 H2020 0.961 . S
C2013 H2021 0.960 . S
C2014 C2012 1.381 . S
C2014 C2015 1.394 . S
C2014 H2022 0.930 . S
C2015 C2014 1.394 . S
C2015 C2016 1.383 . S
C2015 H2023 0.929 . S
C2016 C2015 1.383 . S
C2016 C2017 1.377 . S
C2017 H2001 0.930 . S
C2017 C2016 1.377 . S
C2017 C2018 1.379 . S
C2018 H2002 0.931 . S
C2018 C2012 1.383 . S
C2018 C2017 1.379 . S
H2019 C2013 0.959 . S
H2020 C2013 0.961 . S
H2021 C2013 0.960 . S
H2022 C2014 0.930 . S
H2023 C2015 0.929 . S
H2024 C2032 0.929 . S
H2025 C2034 0.930 . S
H2026 C2036 0.930 . S
H2027 C2039 0.929 . S
H2028 C2042 0.930 . S
H2029 C2044 0.960 . S
H2030 C2044 0.960 . S
H2031 C2044 0.960 . S
C2032 H2024 0.929 . S
C2032 C2033 1.377 . S
C2032 C2034 1.384 . S
C2033 C2032 1.377 . S
C2033 C2039 1.390 . S
C2034 H2025 0.930 . S
C2034 C2032 1.384 . S
C2034 C2035 1.372 . S
C2035 C2034 1.372 . S
C2035 C2036 1.400 . S
C2035 C2040 1.490 . S
C2036 H2026 0.930 . S
C2036 C2035 1.400 . S
C2036 C2039 1.386 . S
H2037 C2053 0.930 . S
H2038 C2054 0.931 . S
C2039 H2027 0.929 . S
C2039 C2033 1.390 . S
C2039 C2036 1.386 . S
C2040 C2035 1.490 . S
C2040 C2042 1.395 . S
C2040 C2043 1.403 . S
H2041 C2047 0.930 . S
C2042 H2028 0.930 . S
C2042 C2040 1.395 . S
C2042 C2045 1.403 . S
C2043 C2040 1.403 . S
C2043 C2044 1.524 . S
C2043 C2047 1.400 . S
C2044 H2029 0.960 . S
C2044 H2030 0.960 . S
C2044 H2031 0.960 . S
C2044 C2043 1.524 . S
C2045 C2042 1.403 . S
C2045 C2046 1.392 . S
C2045 C2049 1.495 . S
C2046 C2045 1.392 . S
C2046 C2047 1.385 . S
C2046 C2048 1.478 . S
C2047 H2041 0.930 . S
C2047 C2043 1.400 . S
C2047 C2046 1.385 . S
C2048 C2046 1.478 . S
C2048 C2050 1.381 . S
C2048 C2054 1.383 . S
C2049 C2045 1.495 . S
C2049 H2055 0.959 . S
C2049 H2056 0.961 . S
C2049 H2057 0.960 . S
C2050 C2048 1.381 . S
C2050 C2051 1.394 . S
C2050 H2058 0.930 . S
C2051 C2050 1.394 . S
C2051 C2052 1.383 . S
C2051 H2059 0.929 . S
C2052 C2051 1.383 . S
C2052 C2053 1.377 . S
C2053 H2037 0.930 . S
C2053 C2052 1.377 . S
C2053 C2054 1.379 . S
C2054 H2038 0.931 . S
C2054 C2048 1.383 . S
C2054 C2053 1.379 . S
H2055 C2049 0.959 . S
H2056 C2049 0.961 . S
H2057 C2049 0.960 . S
H2058 C2050 0.930 . S
H2059 C2051 0.929 . S
H2060 C2068 0.929 . S
H2061 C2070 0.930 . S
H2062 C2072 0.930 . S
H2063 C2075 0.929 . S
H2064 C2078 0.930 . S
H2065 C2080 0.960 . S
H2066 C2080 0.960 . S
H2067 C2080 0.960 . S
C2068 H2060 0.929 . S
C2068 C2069 1.377 . S
C2068 C2070 1.384 . S
C2069 C2068 1.377 . S
C2069 C2075 1.390 . S
C2070 H2061 0.930 . S
C2070 C2068 1.384 . S
C2070 C2071 1.372 . S
C2071 C2070 1.372 . S
C2071 C2072 1.400 . S
C2071 C2076 1.490 . S
C2072 H2062 0.930 . S
C2072 C2071 1.400 . S
C2072 C2075 1.386 . S
H2073 C2089 0.930 . S
H2074 C2090 0.931 . S
C2075 H2063 0.929 . S
C2075 C2069 1.390 . S
C2075 C2072 1.386 . S
C2076 C2071 1.490 . S
C2076 C2078 1.395 . S
C2076 C2079 1.403 . S
H2077 C2083 0.930 . S
C2078 H2064 0.930 . S
C2078 C2076 1.395 . S
C2078 C2081 1.403 . S
C2079 C2076 1.403 . S
C2079 C2080 1.524 . S
C2079 C2083 1.400 . S
C2080 H2065 0.960 . S
C2080 H2066 0.960 . S
C2080 H2067 0.960 . S
C2080 C2079 1.524 . S
C2081 C2078 1.403 . S
C2081 C2082 1.392 . S
C2081 C2085 1.495 . S
C2082 C2081 1.392 . S
C2082 C2083 1.385 . S
C2082 C2084 1.478 . S
C2083 H2077 0.930 . S
C2083 C2079 1.400 . S
C2083 C2082 1.385 . S
C2084 C2082 1.478 . S
C2084 C2086 1.381 . S
C2084 C2090 1.383 . S
C2085 C2081 1.495 . S
C2085 H2091 0.959 . S
C2085 H2092 0.961 . S
C2085 H2093 0.960 . S
C2086 C2084 1.381 . S
C2086 C2087 1.394 . S
C2086 H2094 0.930 . S
C2087 C2086 1.394 . S
C2087 C2088 1.383 . S
C2087 H2095 0.929 . S
C2088 C2087 1.383 . S
C2088 C2089 1.377 . S
C2089 H2073 0.930 . S
C2089 C2088 1.377 . S
C2089 C2090 1.379 . S
C2090 H2074 0.931 . S
C2090 C2084 1.383 . S
C2090 C2089 1.379 . S
H2091 C2085 0.959 . S
H2092 C2085 0.961 . S
H2093 C2085 0.960 . S
H2094 C2086 0.930 . S
H2095 C2087 0.929 . S
C953 C859 1.513 . S
C972 C33 1.509 . S
C989 C123 1.510 . S
C1008 C5 1.509 . S
C1025 C654 1.512 . S
C1044 C64 1.506 . S
C1061 C92 1.513 . S
C1080 C446 1.509 . S
C1097 C151 1.513 . S
C1116 C741 1.510 . S
C1133 C536 1.512 . S
C1152 C182 1.513 . S
C1169 C210 1.513 . S
C1188 C328 1.509 . S
C1205 C623 1.513 . S
C1224 C269 1.508 . S
C1241 C241 1.510 . S
C1260 C359 1.503 . S
C1277 C890 1.511 . S
C1296 C300 1.513 . S
C1313 C505 1.513 . S
C1332 C387 1.510 . S
C1349 C772 1.510 . S
C1368 C418 1.503 . S
C1385 C477 1.511 . S
C1404 C595 1.503 . S
C1421 C918 1.512 . S
C1440 C564 1.510 . S
C1457 C682 1.513 . S
C1476 C800 1.509 . S
C1493 C831 1.510 . S
C1512 C713 1.510 . S
C1529 C347 1.624 . S
C1548 C3 1.615 1_565 S
C1565 C52 1.624 . S
C1584 C298 1.617 . S
C1601 C111 1.623 . S
C1620 C239 1.600 . S
C1637 C288 1.623 . S
C1656 C62 1.604 1_565 S
C1673 C465 1.624 . S
C1692 C121 1.607 1_545 S
C1709 C416 1.613 . S
C1728 C170 1.622 . S
C1745 C357 1.612 . S
C1764 C229 1.623 . S
C1781 C180 1.612 1_545 S
C1800 C406 1.623 . S
C1817 C819 1.623 . S
C1836 C475 1.603 1_565 S
C1853 C524 1.623 . S
C1872 C770 1.603 . S
C1889 C583 1.624 . S
C1908 C711 1.609 . S
C1925 C760 1.623 . S
C1944 C534 1.610 1_565 S
C1961 C937 1.623 . S
C1980 C593 1.619 1_545 S
C1997 C888 1.615 . S
C2016 C642 1.618 . S
C2033 C701 1.623 . S
C2052 C829 1.619 . S
C2069 C878 1.624 . S
C2088 C652 1.602 1_545 S
