# Generated by pormake.
# Topology wme, (6)-cn, num edge types: 1
# Building blocks:
#     Node 0, Type 0, BuildingBlock: MAKGUD_clean_sbu_1, # of connection points: 6
#     Node 1, Type 0, BuildingBlock: MAKGUD_clean_sbu_1, # of connection points: 6
#     Node 2, Type 0, BuildingBlock: MAKGUD_clean_sbu_1, # of connection points: 6
#     Node 3, Type 0, BuildingBlock: MAKGUD_clean_sbu_1, # of connection points: 6
#     Node 4, Type 0, BuildingBlock: MAKGUD_clean_sbu_1, # of connection points: 6
#     Node 5, Type 0, BuildingBlock: MAKGUD_clean_sbu_1, # of connection points: 6
#     Node 6, Type 0, BuildingBlock: MAKGUD_clean_sbu_1, # of connection points: 6
#     Node 7, Type 0, BuildingBlock: MAKGUD_clean_sbu_1, # of connection points: 6
#     Node 8, Type 0, BuildingBlock: MAKGUD_clean_sbu_1, # of connection points: 6
#     Node 9, Type 0, BuildingBlock: MAKGUD_clean_sbu_1, # of connection points: 6
#     Node 10, Type 0, BuildingBlock: MAKGUD_clean_sbu_1, # of connection points: 6
#     Node 11, Type 0, BuildingBlock: MAKGUD_clean_sbu_1, # of connection points: 6
#     Edge 12, Type (0, 0), BuildingBlock: XUDNAN_clean_linker_2, # of connection points: 2
#     Edge 13, Type (0, 0), BuildingBlock: XUDNAN_clean_linker_2, # of connection points: 2
#     Edge 14, Type (0, 0), BuildingBlock: XUDNAN_clean_linker_2, # of connection points: 2
#     Edge 15, Type (0, 0), BuildingBlock: XUDNAN_clean_linker_2, # of connection points: 2
#     Edge 16, Type (0, 0), BuildingBlock: XUDNAN_clean_linker_2, # of connection points: 2
#     Edge 17, Type (0, 0), BuildingBlock: XUDNAN_clean_linker_2, # of connection points: 2
#     Edge 18, Type (0, 0), BuildingBlock: XUDNAN_clean_linker_2, # of connection points: 2
#     Edge 19, Type (0, 0), BuildingBlock: XUDNAN_clean_linker_2, # of connection points: 2
#     Edge 20, Type (0, 0), BuildingBlock: XUDNAN_clean_linker_2, # of connection points: 2
#     Edge 21, Type (0, 0), BuildingBlock: XUDNAN_clean_linker_2, # of connection points: 2
#     Edge 22, Type (0, 0), BuildingBlock: XUDNAN_clean_linker_2, # of connection points: 2
#     Edge 23, Type (0, 0), BuildingBlock: XUDNAN_clean_linker_2, # of connection points: 2
#     Edge 24, Type (0, 0), BuildingBlock: XUDNAN_clean_linker_2, # of connection points: 2
#     Edge 25, Type (0, 0), BuildingBlock: XUDNAN_clean_linker_2, # of connection points: 2
#     Edge 26, Type (0, 0), BuildingBlock: XUDNAN_clean_linker_2, # of connection points: 2
#     Edge 27, Type (0, 0), BuildingBlock: XUDNAN_clean_linker_2, # of connection points: 2
#     Edge 28, Type (0, 0), BuildingBlock: XUDNAN_clean_linker_2, # of connection points: 2
#     Edge 29, Type (0, 0), BuildingBlock: XUDNAN_clean_linker_2, # of connection points: 2
#     Edge 30, Type (0, 0), BuildingBlock: XUDNAN_clean_linker_2, # of connection points: 2
#     Edge 31, Type (0, 0), BuildingBlock: XUDNAN_clean_linker_2, # of connection points: 2
#     Edge 32, Type (0, 0), BuildingBlock: XUDNAN_clean_linker_2, # of connection points: 2
#     Edge 33, Type (0, 0), BuildingBlock: XUDNAN_clean_linker_2, # of connection points: 2
#     Edge 34, Type (0, 0), BuildingBlock: XUDNAN_clean_linker_2, # of connection points: 2
#     Edge 35, Type (0, 0), BuildingBlock: XUDNAN_clean_linker_2, # of connection points: 2
#     Edge 36, Type (0, 0), BuildingBlock: XUDNAN_clean_linker_2, # of connection points: 2
#     Edge 37, Type (0, 0), BuildingBlock: XUDNAN_clean_linker_2, # of connection points: 2
#     Edge 38, Type (0, 0), BuildingBlock: XUDNAN_clean_linker_2, # of connection points: 2
#     Edge 39, Type (0, 0), BuildingBlock: XUDNAN_clean_linker_2, # of connection points: 2
#     Edge 40, Type (0, 0), BuildingBlock: XUDNAN_clean_linker_2, # of connection points: 2
#     Edge 41, Type (0, 0), BuildingBlock: XUDNAN_clean_linker_2, # of connection points: 2
#     Edge 42, Type (0, 0), BuildingBlock: XUDNAN_clean_linker_2, # of connection points: 2
#     Edge 43, Type (0, 0), BuildingBlock: XUDNAN_clean_linker_2, # of connection points: 2
#     Edge 44, Type (0, 0), BuildingBlock: XUDNAN_clean_linker_2, # of connection points: 2
#     Edge 45, Type (0, 0), BuildingBlock: XUDNAN_clean_linker_2, # of connection points: 2
#     Edge 46, Type (0, 0), BuildingBlock: XUDNAN_clean_linker_2, # of connection points: 2
#     Edge 47, Type (0, 0), BuildingBlock: XUDNAN_clean_linker_2, # of connection points: 2
# Relax obj value: 0.158
# Max RMSD: 0.286
# Mean RMSD: 0.286
data_MOF--net-wme--node1-MAKGUD_clean_sbu_1--edge1-XUDNAN_clean_linker_2
_symmetry_space_group_name_H-M    P1
_symmetry_Int_Tables_number       1
_symmetry_cell_setting            triclinic
loop_
_symmetry_equiv_pos_as_xyz
'x, y, z'
_cell_length_a     36.757038
_cell_length_b     36.952186
_cell_length_c     49.708215
_cell_angle_alpha  90.084346
_cell_angle_beta   89.57829
_cell_angle_gamma 119.60325
loop_
_atom_site_label
_atom_site_type_symbol
_atom_site_fract_x
_atom_site_fract_y
_atom_site_fract_z
_atom_type_partial_charge
O0 O 0.36984 0.48096 0.11014 0.0
Tb1 Tb 0.30646 0.44301 0.12608 0.0
C2 C 0.24918 0.36701 0.16524 0.0
O3 O 0.24403 0.36166 0.10084 0.0
Tb4 Tb 0.21046 0.30069 0.11885 0.0
C5 C 0.24011 0.24863 0.11255 0.0
O6 O 0.30568 0.41384 0.08777 0.0
O7 O 0.1421 0.26682 0.11936 0.0
C8 C 0.12037 0.23807 0.10137 0.0
O9 O 0.14013 0.23266 0.081 0.0
O10 O 0.28439 0.38618 0.1509 0.0
O11 O 0.21943 0.32923 0.15825 0.0
O12 O 0.26457 0.46815 0.12054 0.0
C13 C 0.27603 0.37538 0.08429 0.0
C14 C 0.38552 0.50547 0.13068 0.0
O15 O 0.22239 0.25897 0.09376 0.0
O16 O 0.24204 0.26847 0.13468 0.0
C17 C 0.26279 0.49308 0.13881 0.0
O18 O 0.28311 0.49875 0.16144 0.0
O19 O 0.35675 0.49399 0.14938 0.0
O20 O 0.85865 0.30262 0.60915 0.0
Tb21 Tb 0.88523 0.26237 0.6174 0.0
C22 C 0.91867 0.2172 0.66408 0.0
O23 O 0.90819 0.20511 0.59245 0.0
Tb24 Tb 0.93478 0.1713 0.61063 0.0
C25 C 1.01285 0.19054 0.59785 0.0
O26 O 0.9177 0.26614 0.57996 0.0
O27 O 0.89751 0.10335 0.61272 0.0
C28 C 0.90312 0.08044 0.59457 0.0
O29 O 0.92659 0.09896 0.57342 0.0
O30 O 0.90491 0.24195 0.65398 0.0
O31 O 0.9292 0.19207 0.65093 0.0
O32 O 0.81846 0.21753 0.62021 0.0
C33 C 0.92695 0.2369 0.57608 0.0
C34 C 0.88705 0.33574 0.62108 0.0
O35 O 0.98271 0.18049 0.58073 0.0
O36 O 0.99932 0.19108 0.62204 0.0
C37 C 0.79997 0.21205 0.64388 0.0
O38 O 0.82343 0.22945 0.66502 0.0
O39 O 0.91465 0.32749 0.6315 0.0
O40 O 0.61938 0.88371 0.09579 0.0
Tb41 Tb 0.66982 0.88355 0.11885 0.0
C42 C 0.73119 0.8925 0.16608 0.0
O43 O 0.75032 0.89685 0.07903 0.0
Tb44 Tb 0.78744 0.9074 0.11474 0.0
C45 C 0.84669 0.98747 0.11698 0.0
O46 O 0.71214 0.92848 0.08907 0.0
O47 O 0.82183 0.87307 0.11616 0.0
C48 C 0.84727 0.87569 0.09643 0.0
O49 O 0.84745 0.89455 0.074 0.0
O50 O 0.7038 0.90297 0.157 0.0
O51 O 0.7496 0.87741 0.15037 0.0
O52 O 0.64619 0.81653 0.11651 0.0
C53 C 0.73837 0.92398 0.07309 0.0
C54 C 0.60043 0.89033 0.11573 0.0
O55 O 0.84769 0.95894 0.10239 0.0
O56 O 0.81189 0.97098 0.13094 0.0
C57 C 0.61821 0.79331 0.1349 0.0
O58 O 0.61033 0.81229 0.15457 0.0
O59 O 0.62086 0.89361 0.13776 0.0
O60 O 0.74885 0.59522 0.60305 0.0
Tb61 Tb 0.81239 0.63614 0.61776 0.0
C62 C 0.86966 0.6991 0.66198 0.0
O63 O 0.87532 0.70861 0.57388 0.0
Tb64 Tb 0.90578 0.74712 0.60822 0.0
C65 C 0.88925 0.80981 0.61221 0.0
O66 O 0.80704 0.67507 0.5867 0.0
O67 O 0.97323 0.77358 0.60448 0.0
C68 C 0.99373 0.79577 0.58326 0.0
O69 O 0.9726 0.79861 0.56294 0.0
O70 O 0.83079 0.67453 0.65406 0.0
O71 O 0.90177 0.71432 0.64524 0.0
O72 O 0.85281 0.60943 0.60946 0.0
C73 C 0.83646 0.69884 0.56942 0.0
C74 C 0.73509 0.57113 0.62399 0.0
O75 O 0.9204 0.81071 0.59922 0.0
O76 O 0.86722 0.77341 0.62357 0.0
C77 C 0.83545 0.57154 0.59928 0.0
O78 O 0.79715 0.55519 0.59007 0.0
O79 O 0.76479 0.58389 0.64163 0.0
O80 O 0.21228 0.74651 0.09406 0.0
Tb81 Tb 0.22107 0.80319 0.11373 0.0
C82 C 0.20712 0.85553 0.1594 0.0
O83 O 0.20589 0.865 0.07282 0.0
Tb84 Tb 0.1924 0.89297 0.10672 0.0
C85 C 0.11153 0.87184 0.10927 0.0
O86 O 0.17499 0.79674 0.0839 0.0
O87 O 0.22944 0.96055 0.10681 0.0
C88 C 0.22841 0.98366 0.08702 0.0
O89 O 0.20734 0.9656 0.06515 0.0
O90 O 0.19917 0.81842 0.15086 0.0
O91 O 0.22113 0.88848 0.14369 0.0
O92 O 0.28794 0.84502 0.10703 0.0
C93 C 0.17869 0.82619 0.06746 0.0
C94 C 0.21243 0.727 0.11569 0.0
O95 O 0.14004 0.90135 0.09455 0.0
O96 O 0.12858 0.854 0.12294 0.0
C97 C 0.314 0.84635 0.12568 0.0
O98 O 0.29817 0.82717 0.14862 0.0
O99 O 0.21731 0.75035 0.13647 0.0
O100 O 0.5097 0.18312 0.61406 0.0
Tb101 Tb 0.45684 0.19039 0.62628 0.0
C102 C 0.36886 0.15262 0.66109 0.0
O103 O 0.3706 0.1599 0.59397 0.0
Tb104 Tb 0.31004 0.12313 0.61385 0.0
C105 C 0.26406 0.04279 0.60146 0.0
O106 O 0.43113 0.15862 0.58795 0.0
O107 O 0.27064 0.15161 0.61129 0.0
C108 C 0.26294 0.16176 0.58748 0.0
O109 O 0.28157 0.15679 0.56627 0.0
O110 O 0.39218 0.15508 0.64025 0.0
O111 O 0.32852 0.13533 0.6561 0.0
O112 O 0.48184 0.25745 0.62516 0.0
C113 C 0.3913 0.14392 0.58184 0.0
C114 C 0.51737 0.17326 0.63763 0.0
O115 O 0.26763 0.07363 0.58694 0.0
O116 O 0.28746 0.0573 0.62268 0.0
C117 C 0.51423 0.28111 0.64037 0.0
O118 O 0.52803 0.26307 0.65699 0.0
O119 O 0.49002 0.17215 0.6552 0.0
O120 O 0.58363 0.73931 0.42543 0.0
Tb121 Tb 0.63961 0.78784 0.40584 0.0
C122 C 0.70424 0.82445 0.35837 0.0
O123 O 0.7378 0.85357 0.42929 0.0
Tb124 Tb 0.77951 0.85944 0.39626 0.0
C125 C 0.83507 0.83513 0.40702 0.0
O126 O 0.68209 0.78875 0.43672 0.0
O127 O 0.81132 0.92552 0.3866 0.0
C128 C 0.83595 0.9514 0.40511 0.0
O129 O 0.83826 0.93596 0.42842 0.0
O130 O 0.66588 0.81351 0.36621 0.0
O131 O 0.72689 0.81393 0.37326 0.0
O132 O 0.61215 0.82764 0.411 0.0
C133 C 0.71945 0.81897 0.44348 0.0
C134 C 0.57461 0.711 0.40723 0.0
O135 O 0.81246 0.84131 0.42457 0.0
O136 O 0.82634 0.84252 0.38297 0.0
C137 C 0.5829 0.82201 0.39367 0.0
O138 O 0.57434 0.79472 0.37433 0.0
O139 O 0.60206 0.72591 0.38771 0.0
O140 O 0.92721 0.61031 0.89932 0.0
Tb141 Tb 0.88826 0.6396 0.90557 0.0
C142 C 0.9134 0.71239 0.85764 0.0
O143 O 0.91001 0.71633 0.9398 0.0
Tb144 Tb 0.94199 0.76778 0.91283 0.0
C145 C 1.02213 0.82537 0.92065 0.0
O146 O 0.925 0.66535 0.94198 0.0
O147 O 0.90451 0.79807 0.91339 0.0
C148 C 0.90702 0.82262 0.89354 0.0
O149 O 0.93088 0.82677 0.87263 0.0
O150 O 0.89739 0.67393 0.86751 0.0
O151 O 0.93077 0.74784 0.87128 0.0
O152 O 0.82269 0.61494 0.91746 0.0
C153 C 0.93051 0.70055 0.95158 0.0
C154 C 0.89639 0.5729 0.8954 0.0
O155 O 0.98974 0.82776 0.92893 0.0
O156 O 1.00935 0.78981 0.90853 0.0
C157 C 0.79365 0.59777 0.89877 0.0
O158 O 0.8058 0.60149 0.8735 0.0
O159 O 0.86142 0.57337 0.89679 0.0
O160 O 0.34559 0.90737 0.41678 0.0
Tb161 Tb 0.28295 0.88505 0.40048 0.0
C162 C 0.23182 0.89823 0.35487 0.0
O163 O 0.22103 0.89776 0.44631 0.0
Tb164 Tb 0.19747 0.91226 0.41054 0.0
C165 C 0.2119 0.99067 0.41205 0.0
O166 O 0.28891 0.92774 0.43248 0.0
O167 O 0.12992 0.87394 0.41157 0.0
C168 C 0.10886 0.86348 0.43438 0.0
O169 O 0.12936 0.8732 0.45719 0.0
O170 O 0.26932 0.90802 0.36376 0.0
O171 O 0.19933 0.88852 0.37072 0.0
O172 O 0.23994 0.81929 0.40916 0.0
C173 C 0.26103 0.91914 0.45155 0.0
C174 C 0.35946 0.89316 0.39784 0.0
O175 O 0.17981 0.95837 0.42246 0.0
O176 O 0.2364 0.9789 0.40049 0.0
C177 C 0.25488 0.79807 0.42181 0.0
O178 O 0.29226 0.81888 0.43247 0.0
O179 O 0.3303 0.87459 0.38002 0.0
O180 O 0.48749 0.33446 0.92667 0.0
Tb181 Tb 0.43887 0.28601 0.90172 0.0
C182 C 0.3912 0.23227 0.85125 0.0
O183 O 0.36091 0.21606 0.93883 0.0
Tb184 Tb 0.328 0.19155 0.90131 0.0
C185 C 0.26678 0.21084 0.89616 0.0
O186 O 0.39063 0.28449 0.92809 0.0
O187 O 0.2954 0.12334 0.90245 0.0
C188 C 0.27087 0.10284 0.92303 0.0
O189 O 0.26975 0.12394 0.94402 0.0
O190 O 0.41179 0.2701 0.86166 0.0
O191 O 0.36587 0.19843 0.86534 0.0
O192 O 0.46333 0.24304 0.90625 0.0
C193 C 0.37032 0.25404 0.94529 0.0
C194 C 0.50583 0.36225 0.90792 0.0
O195 O 0.26652 0.18301 0.91206 0.0
O196 O 0.30211 0.22852 0.8828 0.0
C197 C 0.50327 0.25825 0.90009 0.0
O198 O 0.52443 0.2966 0.89109 0.0
O199 O 0.48614 0.34722 0.88536 0.0
O200 O 0.224 0.503 0.42282 0.0
Tb201 Tb 0.19944 0.43734 0.41295 0.0
C202 C 0.18752 0.37529 0.35762 0.0
O203 O 0.16116 0.353 0.42178 0.0
Tb204 Tb 0.14574 0.29681 0.40134 0.0
C205 C 0.0655 0.23875 0.3975 0.0
O206 O 0.16495 0.40154 0.44808 0.0
O207 O 0.18343 0.26627 0.40639 0.0
C208 C 0.1694 0.23251 0.42146 0.0
O209 O 0.13525 0.22079 0.43583 0.0
O210 O 0.19596 0.40843 0.37299 0.0
O211 O 0.1708 0.3353 0.36504 0.0
O212 O 0.2654 0.45758 0.41796 0.0
C213 C 0.15033 0.36198 0.44478 0.0
C214 C 0.19542 0.50785 0.41085 0.0
O215 O 0.08571 0.25299 0.41996 0.0
O216 O 0.09021 0.25836 0.37729 0.0
C217 C 0.29154 0.48192 0.39924 0.0
O218 O 0.27611 0.49038 0.37795 0.0
O219 O 0.16864 0.47262 0.39978 0.0
O220 O 0.75799 0.21291 0.91824 0.0
Tb221 Tb 0.80253 0.19527 0.90242 0.0
C222 C 0.84731 0.17829 0.85595 0.0
O223 O 0.87672 0.17103 0.92555 0.0
Tb224 Tb 0.89292 0.14368 0.89181 0.0
C225 C 0.87045 0.06393 0.89561 0.0
O226 O 0.8086 0.1555 0.93289 0.0
O227 O 0.96032 0.18035 0.88399 0.0
C228 C 0.98498 0.17703 0.90182 0.0
O229 O 0.96752 0.15515 0.92369 0.0
O230 O 0.82609 0.19727 0.86167 0.0
O231 O 0.84334 0.14925 0.87271 0.0
O232 O 0.84396 0.26186 0.90616 0.0
C233 C 0.84065 0.14981 0.93844 0.0
C234 C 0.72595 0.18662 0.90433 0.0
O235 O 0.87832 0.089 0.91584 0.0
O236 O 0.87528 0.0838 0.87305 0.0
C237 C 0.83596 0.28432 0.88921 0.0
O238 O 0.80623 0.26468 0.87146 0.0
O239 O 0.73677 0.16437 0.88935 0.0
H240 H 0.21735 0.03853 0.05544 0.0
H241 H 0.27611 1.03064 0.12896 0.0
H242 H 0.29461 0.10266 0.14012 0.0
H243 H 0.29164 0.15334 0.04228 0.0
H244 H 0.24979 0.16081 0.03007 0.0
H245 H 0.24803 0.11161 0.0251 0.0
H246 H 0.17539 0.07366 0.04856 0.0
H247 H 0.17697 0.12255 0.05373 0.0
H248 H 0.16948 0.08905 0.08202 0.0
H249 H 0.29655 0.17021 0.14716 0.0
H250 H 0.28304 0.22937 0.14889 0.0
H251 H 0.22425 0.19491 0.07067 0.0
C252 C 0.23534 0.05242 0.07344 0.0
C253 C 0.2454 1.02891 0.09128 0.0
C254 C 0.26814 0.04798 0.11492 0.0
C255 C 0.27896 0.089 0.1214 0.0
C256 C 0.26727 0.11081 0.10391 0.0
C257 C 0.24643 0.09345 0.0802 0.0
C258 C 0.23382 0.12209 0.06629 0.0
C259 C 0.25722 0.13789 0.03934 0.0
C260 C 0.1861 0.10055 0.06245 0.0
C261 C 0.24869 0.15705 0.08665 0.0
C262 C 0.26862 0.1503 0.10794 0.0
C263 C 0.28184 0.17634 0.13033 0.0
C264 C 0.27392 0.20976 0.1312 0.0
C265 C 0.25285 0.2167 0.10987 0.0
C266 C 0.24099 0.19059 0.08706 0.0
H267 H 0.21506 0.17131 0.62669 0.0
H268 H 0.23701 0.17975 0.5404 0.0
H269 H 0.17918 0.19455 0.534 0.0
H270 H 0.10587 0.11885 0.62395 0.0
H271 H 0.09852 0.14536 0.65215 0.0
H272 H 0.14435 0.13969 0.65025 0.0
H273 H 0.19165 0.21961 0.65438 0.0
H274 H 0.14588 0.22552 0.65633 0.0
H275 H 0.18538 0.2534 0.63104 0.0
H276 H 0.11435 0.20122 0.53648 0.0
H277 H 1.04829 0.20031 0.54802 0.0
H278 H 0.06971 0.18992 0.63261 0.0
C279 C 0.20825 0.17706 0.6065 0.0
C280 C 0.23077 0.17451 0.58408 0.0
C281 C 0.22043 0.18172 0.55794 0.0
C282 C 0.18761 0.19022 0.55408 0.0
C283 C 0.16558 0.19182 0.57655 0.0
C284 C 0.17565 0.18575 0.60228 0.0
C285 C 0.14557 0.1868 0.62288 0.0
C286 C 0.1222 0.1452 0.63819 0.0
C287 C 0.1685 0.22353 0.6423 0.0
C288 C 0.1164 0.19332 0.60466 0.0
C289 C 0.12861 0.19638 0.57801 0.0
C290 C 0.10489 0.19956 0.55732 0.0
C291 C 0.06745 0.19901 0.56403 0.0
C292 C 0.05431 0.1956 0.59119 0.0
C293 C 0.07949 0.19341 0.61172 0.0
H294 H 0.91066 1.02355 0.0813 0.0
H295 H 0.86104 0.04927 0.15368 0.0
H296 H 0.92363 0.11992 0.15561 0.0
H297 H 1.01458 0.0709 0.1007 0.0
H298 H 1.03596 0.09109 0.06783 0.0
H299 H 0.98561 0.04499 0.07094 0.0
H300 H 0.95222 0.07962 0.04248 0.0
H301 H 1.00263 0.12586 0.03917 0.0
H302 H 0.95877 0.12934 0.05259 0.0
H303 H 0.99591 0.18531 0.15157 0.0
H304 H 0.06916 0.23896 0.14179 0.0
H305 H 0.06928 0.16938 0.07142 0.0
C306 C 0.91261 0.04426 0.09737 0.0
C307 C 0.88115 1.03109 0.1174 0.0
C308 C 0.88479 0.05896 0.13809 0.0
C309 C 0.92021 0.09906 0.13931 0.0
C310 C 0.95121 0.11077 0.11945 0.0
C311 C 0.94736 0.08417 0.09872 0.0
C312 C 0.98554 0.10296 0.08051 0.0
C313 C 1.00666 0.07588 0.07999 0.0
C314 C 0.9741 0.10986 0.052 0.0
C315 C 1.01235 0.14389 0.09467 0.0
C316 C 0.99201 0.14814 0.11695 0.0
C317 C 1.0118 0.18248 0.13396 0.0
C318 C 0.05347 0.21282 0.12824 0.0
C319 C 0.07503 0.20862 0.10574 0.0
C320 C 0.05369 0.17392 0.08859 0.0
H321 H 0.91944 0.87507 0.57762 0.0
H322 H 0.83965 0.82364 0.64787 0.0
H323 H 0.82981 0.88551 0.64959 0.0
H324 H 0.97161 0.97946 0.5974 0.0
H325 H 0.97326 0.99998 0.56426 0.0
H326 H 0.97145 0.95071 0.56802 0.0
H327 H 0.90518 0.91548 0.5383 0.0
H328 H 0.90678 0.96473 0.53442 0.0
H329 H 0.86016 0.92027 0.54727 0.0
H330 H 0.83475 0.95731 0.6455 0.0
H331 H 0.8513 1.02949 0.63504 0.0
H332 H 0.92481 1.03055 0.56604 0.0
C333 C 0.89962 0.87666 0.59327 0.0
C334 C 0.8805 0.84483 0.61275 0.0
C335 C 0.85453 0.84778 0.63276 0.0
C336 C 0.84881 0.88279 0.63386 0.0
C337 C 0.86867 0.91405 0.61448 0.0
C338 C 0.8931 0.91087 0.59435 0.0
C339 C 0.9117 0.94866 0.57612 0.0
C340 C 0.95984 0.97101 0.57649 0.0
C341 C 0.89495 0.93656 0.54733 0.0
C342 C 0.89513 0.97445 0.58957 0.0
C343 C 0.87023 0.95407 0.61161 0.0
C344 C 0.85368 0.9732 0.62804 0.0
C345 C 0.86324 1.01423 0.62196 0.0
C346 C 0.88902 0.03569 0.59958 0.0
C347 C 0.90446 1.01499 0.58306 0.0
H348 H 0.07149 0.89604 0.07383 0.0
H349 H 1.05185 0.82549 0.14729 0.0
H350 H 0.97943 0.81393 0.15052 0.0
H351 H 1.01738 0.94788 0.09281 0.0
H352 H 0.99521 0.94528 0.06016 0.0
H353 H 1.04391 0.94514 0.06287 0.0
H354 H 1.01284 0.87617 0.03607 0.0
H355 H 0.96393 0.87604 0.0332 0.0
H356 H 0.96497 0.83178 0.04753 0.0
H357 H 0.91119 0.81634 0.14767 0.0
H358 H 0.85287 0.82976 0.13814 0.0
H359 H 0.9168 0.89605 0.06536 0.0
C360 C 1.05177 0.87776 0.09045 0.0
C361 C 0.0672 0.86173 0.1104 0.0
C362 C 1.04051 0.83789 0.13178 0.0
C363 C 0.99938 0.83123 0.13375 0.0
C364 C 0.98528 0.84805 0.11392 0.0
C365 C 1.01062 0.87039 0.09249 0.0
C366 C 0.98862 0.88608 0.07415 0.0
C367 C 1.01271 0.93392 0.07242 0.0
C368 C 0.9822 0.86633 0.04608 0.0
C369 C 0.94734 0.87029 0.08902 0.0
C370 C 0.94585 0.84826 0.11185 0.0
C371 C 0.91182 0.83297 0.12961 0.0
C372 C 0.8788 0.84078 0.12405 0.0
C373 C 0.87988 0.86356 0.10086 0.0
C374 C 0.91448 0.87787 0.08301 0.0
H375 H 1.04164 0.8667 0.55427 0.0
H376 H 1.04905 0.78781 0.61597 0.0
H377 H 0.12387 0.83898 0.62243 0.0
H378 H 0.15187 0.91234 0.52757 0.0
H379 H 0.1559 0.96261 0.52323 0.0
H380 H 0.106 0.91594 0.51956 0.0
H381 H 0.07415 0.94349 0.55554 0.0
H382 H 0.12398 0.98979 0.55935 0.0
H383 H 0.09787 0.9578 0.58828 0.0
H384 H 0.1951 0.90266 0.62627 0.0
H385 H 0.25513 0.97444 0.62858 0.0
H386 H 0.19881 1.01288 0.56677 0.0
C387 C 0.05936 0.85948 0.56847 0.0
C388 C 1.0397 0.823 0.58437 0.0
C389 C 0.06361 0.81539 0.60341 0.0
C390 C 0.10617 0.84421 0.60713 0.0
C391 C 0.12433 0.88054 0.5917 0.0
C392 C 0.10163 0.88821 0.5727 0.0
C393 C 0.12665 0.93182 0.56128 0.0
C394 C 0.13564 0.93058 0.53112 0.0
C395 C 0.10434 0.9572 0.56644 0.0
C396 C 0.16628 0.94806 0.57759 0.0
C397 C 0.16487 0.91774 0.59452 0.0
C398 C 0.19685 0.9264 0.61275 0.0
C399 C 0.23076 0.96721 0.61398 0.0
C400 C 0.23205 0.99885 0.59735 0.0
C401 C 0.19957 0.98891 0.57882 0.0
H402 H 0.06059 0.85946 0.39164 0.0
H403 H 0.05405 0.83183 0.47696 0.0
H404 H 0.97931 0.81229 0.47754 0.0
H405 H 1.0022 0.90894 0.39511 0.0
H406 H 0.97618 0.8903 0.36336 0.0
H407 H 1.02677 0.89522 0.36854 0.0
H408 H 0.99719 0.81754 0.35624 0.0
H409 H 0.94638 0.81237 0.3509 0.0
H410 H 0.95216 0.77819 0.37415 0.0
H411 H 0.90815 0.80368 0.47004 0.0
H412 H 0.84677 0.80862 0.45537 0.0
H413 H 0.89997 0.84337 0.37519 0.0
C414 C 1.04318 0.84813 0.4103 0.0
C415 C 0.06304 0.84671 0.43421 0.0
C416 C 1.0394 0.83282 0.45836 0.0
C417 C 0.9969 0.82154 0.45886 0.0
C418 C 0.97856 0.8243 0.43504 0.0
C419 C 1.00093 0.83716 0.41119 0.0
C420 C 0.97527 0.84167 0.38907 0.0
C421 C 0.99636 0.8867 0.37841 0.0
C422 C 0.96727 0.81058 0.36624 0.0
C423 C 0.93534 0.83056 0.40439 0.0
C424 C 0.93766 0.82 0.43078 0.0
C425 C 0.9058 0.81133 0.44935 0.0
C426 C 0.87114 0.81438 0.44088 0.0
C427 C 0.86872 0.82627 0.41418 0.0
C428 C 0.90078 0.83352 0.39558 0.0
H429 H 0.05337 0.89625 0.95098 0.0
H430 H 0.08889 0.83423 0.89081 0.0
H431 H 0.15882 0.89708 0.88681 0.0
H432 H 0.10168 0.99464 0.92171 0.0
H433 H 0.1191 1.02339 0.9527 0.0
H434 H 0.07359 0.97238 0.95267 0.0
H435 H 0.10694 0.94779 0.98891 0.0
H436 H 0.15253 0.99891 0.98926 0.0
H437 H 0.15808 0.95381 0.98299 0.0
H438 H 0.22163 0.97041 0.88522 0.0
H439 H 0.27406 0.04526 0.88934 0.0
H440 H 0.199 0.05774 0.95251 0.0
C441 C 0.07621 0.89565 0.93737 0.0
C442 C 0.06579 0.8604 0.92119 0.0
C443 C 0.09636 0.8608 0.90353 0.0
C444 C 0.13612 0.89643 0.90107 0.0
C445 C 0.14509 0.93117 0.91679 0.0
C446 C 0.11623 0.93071 0.935 0.0
C447 C 0.13312 0.97239 0.949 0.0
C448 C 0.10522 0.99183 0.94369 0.0
C449 C 0.13796 0.96796 0.97934 0.0
C450 C 0.17539 0.99686 0.93518 0.0
C451 C 0.18179 0.97261 0.91665 0.0
C452 C 0.21728 0.98942 0.90006 0.0
C453 C 0.24686 0.03201 0.90246 0.0
C454 C 0.24105 0.05732 0.92148 0.0
C455 C 0.20492 0.03914 0.93816 0.0
H456 H 0.14256 0.15795 0.44719 0.0
H457 H 0.23747 0.24316 0.39134 0.0
H458 H 0.26293 0.1928 0.38535 0.0
H459 H 0.20533 0.11588 0.47771 0.0
H460 H 0.16082 0.06425 0.48032 0.0
H461 H 0.15361 0.10902 0.48236 0.0
H462 H 0.10048 0.07982 0.44323 0.0
H463 H 0.1077 0.03518 0.441 0.0
H464 H 0.11615 0.06721 0.41173 0.0
H465 H 0.2745 0.12964 0.38312 0.0
H466 H 0.2698 0.06025 0.38437 0.0
H467 H 0.1662 1.01713 0.44084 0.0
C468 C 0.16926 0.16655 0.43407 0.0
C469 C 0.18814 0.2048 0.41986 0.0
C470 C 0.22263 0.21428 0.40262 0.0
C471 C 0.23731 0.18581 0.39909 0.0
C472 C 0.21733 0.14799 0.41301 0.0
C473 C 0.18414 0.13852 0.43028 0.0
C474 C 0.16618 0.09492 0.44165 0.0
C475 C 0.17183 0.09611 0.47233 0.0
C476 C 0.1199 0.06769 0.43393 0.0
C477 C 0.19361 0.08074 0.42753 0.0
C478 C 0.22339 0.11187 0.41138 0.0
C479 C 0.25145 0.10524 0.39587 0.0
C480 C 0.24861 0.06578 0.39668 0.0
C481 C 0.21763 0.03334 0.41263 0.0
C482 C 0.19025 0.04131 0.42844 0.0
H483 H 0.20264 0.18854 0.93145 0.0
H484 H 0.24858 0.24781 0.85397 0.0
H485 H 0.18301 0.25077 0.84765 0.0
H486 H 0.09896 0.12414 0.91369 0.0
H487 H 0.07717 0.12915 0.94515 0.0
H488 H 0.12894 0.13557 0.94417 0.0
H489 H 0.15868 0.20843 0.96582 0.0
H490 H 0.10696 0.20241 0.96694 0.0
H491 H 0.14901 0.2469 0.95031 0.0
H492 H 0.10749 0.23982 0.84852 0.0
H493 H 1.03315 0.21939 0.85729 0.0
H494 H 1.03992 0.16969 0.93493 0.0
C495 C 0.19924 0.20278 0.91331 0.0
C496 C 0.23063 0.21795 0.89316 0.0
C497 C 0.22501 0.2363 0.86973 0.0
C498 C 0.1878 0.23796 0.86599 0.0
C499 C 0.15691 0.22177 0.88608 0.0
C500 C 0.16275 0.2051 0.90947 0.0
C501 C 0.12475 0.18848 0.92775 0.0
C502 C 0.10638 0.14156 0.93298 0.0
C503 C 0.13549 0.21303 0.95427 0.0
C504 C 0.09581 0.19701 0.91073 0.0
C505 C 0.11473 0.21643 0.8868 0.0
C506 C 0.09274 0.22517 0.86739 0.0
C507 C 1.05047 0.21345 0.87252 0.0
C508 C 1.03054 0.19313 0.89685 0.0
C509 C 0.05405 0.18549 0.9162 0.0
H510 H 1.02427 0.17866 0.43556 0.0
H511 H 1.01556 0.21173 0.3532 0.0
H512 H 0.95159 0.14347 0.34706 0.0
H513 H 0.99742 0.07609 0.4221 0.0
H514 H 0.96826 0.05462 0.45282 0.0
H515 H 1.00965 0.10792 0.45182 0.0
H516 H 0.95812 0.13127 0.46867 0.0
H517 H 0.91564 0.07847 0.46909 0.0
H518 H 0.91118 0.11756 0.45002 0.0
H519 H 0.89212 0.06872 0.34882 0.0
H520 H 0.84276 0.99434 0.35836 0.0
H521 H 0.89164 1.0105 0.43936 0.0
C522 C 1.0081 0.17203 0.41652 0.0
C523 C 1.0243 0.20068 0.39498 0.0
C524 C 1.00324 0.19035 0.37004 0.0
C525 C 0.96692 0.15167 0.36639 0.0
C526 C 0.95217 0.12365 0.38787 0.0
C527 C 0.97205 0.13347 0.41251 0.0
C528 C 0.95211 0.09671 0.43163 0.0
C529 C 0.98374 0.08304 0.44007 0.0
C530 C 0.93312 0.10662 0.45629 0.0
C531 C 0.91835 0.06451 0.41382 0.0
C532 C 0.91857 0.08062 0.38872 0.0
C533 C 0.89137 0.05595 0.36853 0.0
C534 C 0.86346 1.01371 0.3741 0.0
C535 C 0.86312 0.99653 0.39962 0.0
C536 C 0.89075 1.02262 0.4197 0.0
H537 H 0.90641 0.87714 0.85651 0.0
H538 H 0.8656 0.82958 0.93744 0.0
H539 H 0.8427 0.8813 0.94465 0.0
H540 H 0.94997 0.98034 0.87188 0.0
H541 H 0.93409 0.9958 0.84179 0.0
H542 H 0.94093 0.95089 0.8413 0.0
H543 H 0.865 0.90538 0.82437 0.0
H544 H 0.85797 0.95034 0.82465 0.0
H545 H 0.82222 0.90418 0.8431 0.0
H546 H 0.83571 0.94506 0.94586 0.0
H547 H 0.84131 1.01406 0.93978 0.0
H548 H 0.88331 1.0184 0.85753 0.0
C549 C 0.89162 0.87685 0.8755 0.0
C550 C 0.88779 0.84933 0.8964 0.0
C551 C 0.86872 0.85025 0.92107 0.0
C552 C 0.85552 0.87948 0.92536 0.0
C553 C 0.86098 0.90708 0.90463 0.0
C554 C 0.878 0.90562 0.88003 0.0
C555 C 0.88364 0.94092 0.86188 0.0
C556 C 0.9299 0.96861 0.85376 0.0
C557 C 0.85552 0.92419 0.83703 0.0
C558 C 0.86893 0.96353 0.88056 0.0
C559 C 0.85564 0.94331 0.90506 0.0
C560 C 0.84492 0.9606 0.92654 0.0
C561 C 0.84834 0.99978 0.92296 0.0
C562 C 0.8621 1.02092 0.89808 0.0
C563 C 0.87163 1.0022 0.87649 0.0
H564 H 0.23237 0.69077 0.15694 0.0
H565 H 0.18844 0.67142 0.07465 0.0
H566 H 0.18918 0.60494 0.07333 0.0
H567 H 0.30414 0.65547 0.14731 0.0
H568 H 0.29596 0.6309 0.17979 0.0
H569 H 0.2869 0.67413 0.17546 0.0
H570 H 0.21122 0.62935 0.19371 0.0
H571 H 0.22008 0.58589 0.19807 0.0
H572 H 0.17678 0.5801 0.1781 0.0
H573 H 0.19996 0.54357 0.07964 0.0
H574 H 0.22297 0.4935 0.09244 0.0
H575 H 0.26123 0.55329 0.17038 0.0
C576 C 0.22206 0.67202 0.13889 0.0
C577 C 0.20994 0.68589 0.11598 0.0
C578 C 0.19761 0.66114 0.09246 0.0
C579 C 0.19778 0.62329 0.09156 0.0
C580 C 0.21049 0.61068 0.11433 0.0
C581 C 0.22247 0.6343 0.13756 0.0
C582 C 0.23812 0.61544 0.1584 0.0
C583 C 0.284 0.64579 0.16565 0.0
C584 C 0.20985 0.60189 0.18356 0.0
C585 C 0.23395 0.57811 0.14305 0.0
C586 C 0.2174 0.57559 0.11781 0.0
C587 C 0.21254 0.54494 0.09947 0.0
C588 C 0.22569 0.51661 0.10693 0.0
C589 C 0.24379 0.5193 0.13243 0.0
C590 C 0.24714 0.55005 0.15083 0.0
H591 H 0.74365 0.20463 0.60503 0.0
H592 H 0.75286 0.18087 0.68942 0.0
H593 H 0.67897 0.16192 0.69641 0.0
H594 H 0.68527 0.254 0.61503 0.0
H595 H 0.65327 0.23351 0.58554 0.0
H596 H 0.70473 0.23911 0.58613 0.0
H597 H 0.67361 0.1609 0.57485 0.0
H598 H 0.62198 0.1551 0.57397 0.0
H599 H 0.63239 0.12234 0.59572 0.0
H600 H 0.60627 0.15342 0.69541 0.0
H601 H 0.54067 0.15458 0.68586 0.0
H602 H 0.57904 0.18405 0.60239 0.0
C603 C 0.72969 0.19404 0.62475 0.0
C604 C 0.75392 0.1937 0.64659 0.0
C605 C 0.73483 0.18102 0.67232 0.0
C606 C 0.69283 0.17021 0.6765 0.0
C607 C 0.67014 0.17218 0.65477 0.0
C608 C 0.68781 0.18347 0.62933 0.0
C609 C 0.65781 0.18651 0.60991 0.0
C610 C 0.67639 0.23092 0.5985 0.0
C611 C 0.64573 0.15428 0.58728 0.0
C612 C 0.62093 0.17596 0.62848 0.0
C613 C 0.62845 0.1675 0.65425 0.0
C614 C 0.59979 0.15935 0.67518 0.0
C615 C 0.56264 0.16009 0.66963 0.0
C616 C 0.55459 0.16899 0.64339 0.0
C617 C 0.58402 0.17656 0.6226 0.0
H618 H 0.55218 0.74048 0.16697 0.0
H619 H 0.62297 0.74197 0.09631 0.0
H620 H 0.57429 0.66656 0.09008 0.0
H621 H 0.52436 0.63587 0.19114 0.0
H622 H 0.47284 0.62455 0.20188 0.0
H623 H 0.51552 0.6774 0.2022 0.0
H624 H 0.47292 0.70011 0.17225 0.0
H625 H 0.43019 0.64742 0.1718 0.0
H626 H 0.45279 0.67424 0.1406 0.0
H627 H 0.51438 0.59217 0.08962 0.0
H628 H 0.44831 0.52558 0.09439 0.0
H629 H 0.41618 0.57258 0.16534 0.0
C630 C 0.55806 0.72492 0.15042 0.0
C631 C 0.59178 0.74728 0.1322 0.0
C632 C 0.59768 0.72561 0.11063 0.0
C633 C 0.57013 0.68273 0.10696 0.0
C634 C 0.53685 0.66189 0.12506 0.0
C635 C 0.53081 0.68231 0.14642 0.0
C636 C 0.49124 0.65352 0.16207 0.0
C637 C 0.50162 0.64748 0.19104 0.0
C638 C 0.45995 0.6698 0.16164 0.0
C639 C 0.47538 0.61375 0.14592 0.0
C640 C 0.50236 0.61917 0.12478 0.0
C641 C 0.49339 0.58753 0.10628 0.0
C642 C 0.45573 0.54976 0.10918 0.0
C643 C 0.42728 0.54369 0.13039 0.0
C644 C 0.43765 0.576 0.14922 0.0
H645 H 0.80253 0.49043 0.58367 0.0
H646 H 0.91051 0.5901 0.62316 0.0
H647 H 0.93673 0.54119 0.63288 0.0
H648 H 0.78615 0.41138 0.62982 0.0
H649 H 0.76996 0.37113 0.60476 0.0
H650 H 0.7617 0.41468 0.59932 0.0
H651 H 0.80281 0.43128 0.55424 0.0
H652 H 0.81081 0.38748 0.55939 0.0
H653 H 0.85508 0.43859 0.55384 0.0
H654 H 0.94892 0.47862 0.64012 0.0
H655 H 0.94688 0.41046 0.64246 0.0
H656 H 0.82998 0.35324 0.59883 0.0
C657 C 0.83208 0.50238 0.594 0.0
C658 C 0.85458 0.54438 0.60247 0.0
C659 C 0.89285 0.55825 0.61622 0.0
C660 C 0.90788 0.53058 0.62194 0.0
C661 C 0.88429 0.4891 0.61381 0.0
C662 C 0.84729 0.47527 0.59996 0.0
C663 C 0.82683 0.42911 0.59407 0.0
C664 C 0.78361 0.40518 0.60782 0.0
C665 C 0.82372 0.42116 0.56358 0.0
C666 C 0.85792 0.41884 0.60681 0.0
C667 C 0.89095 0.4537 0.61811 0.0
C668 C 0.92322 0.45128 0.63122 0.0
C669 C 0.92179 0.41244 0.63253 0.0
C670 C 0.8883 0.37656 0.62086 0.0
C671 C 0.85603 0.38007 0.60797 0.0
H672 H 0.54153 0.87693 0.15507 0.0
H673 H 0.56949 0.90554 0.07034 0.0
H674 H 0.50195 0.90381 0.06442 0.0
H675 H 0.43432 0.80336 0.14583 0.0
H676 H 0.41634 0.81692 0.176 0.0
H677 H 0.46869 0.82482 0.17422 0.0
H678 H 0.49843 0.9026 0.18622 0.0
H679 H 0.44609 0.89491 0.18799 0.0
H680 H 0.48443 0.93433 0.16607 0.0
H681 H 0.4294 0.89538 0.06711 0.0
H682 H 0.35633 0.87685 0.07775 0.0
H683 H 0.37425 0.85141 0.16035 0.0
C684 C 0.53371 0.88364 0.13542 0.0
C685 C 0.56099 0.89191 0.11321 0.0
C686 C 0.54918 0.8994 0.08766 0.0
C687 C 0.5109 0.89859 0.08411 0.0
C688 C 0.48439 0.88986 0.10628 0.0
C689 C 0.49516 0.88228 0.13143 0.0
C690 C 0.45959 0.87046 0.15142 0.0
C691 C 0.44381 0.82627 0.16251 0.0
C692 C 0.47294 0.9025 0.17428 0.0
C693 C 0.42713 0.87225 0.13356 0.0
C694 C 0.4422 0.88395 0.10766 0.0
C695 C 0.41738 0.88645 0.0874 0.0
C696 C 0.37588 0.87597 0.09364 0.0
C697 C 0.35937 0.8628 0.11989 0.0
C698 C 0.38582 0.86164 0.14011 0.0
H699 H 0.71176 0.50668 0.6594 0.0
H700 H 0.6679 0.54708 0.59122 0.0
H701 H 0.60267 0.47895 0.59069 0.0
H702 H 0.67705 0.40581 0.63585 0.0
H703 H 0.66252 0.38104 0.66839 0.0
H704 H 0.70295 0.43459 0.66566 0.0
H705 H 0.66254 0.45603 0.69911 0.0
H706 H 0.62196 0.40242 0.70203 0.0
H707 H 0.60895 0.44162 0.69231 0.0
H708 H 0.54474 0.40428 0.59539 0.0
H709 H 0.50018 0.32882 0.60401 0.0
H710 H 0.583 0.33708 0.66845 0.0
C711 C 0.68793 0.50149 0.64481 0.0
C712 C 0.69448 0.5322 0.62556 0.0
C713 C 0.6632 0.52399 0.60629 0.0
C714 C 0.62606 0.48544 0.60587 0.0
C715 C 0.6208 0.45541 0.62482 0.0
C716 C 0.65091 0.46301 0.64394 0.0
C717 C 0.63933 0.42445 0.66056 0.0
C718 C 0.67241 0.41067 0.65741 0.0
C719 C 0.6328 0.43157 0.69027 0.0
C720 C 0.5984 0.39377 0.64753 0.0
C721 C 0.58795 0.41228 0.62716 0.0
C722 C 0.5524 0.38956 0.61149 0.0
C723 C 0.52725 0.34671 0.61653 0.0
C724 C 0.53795 0.32698 0.63693 0.0
C725 C 0.5737 0.35118 0.65282 0.0
H726 H 0.38612 0.85131 0.36485 0.0
H727 H 0.42253 0.934 0.4336 0.0
H728 H 0.48681 0.92899 0.43831 0.0
H729 H 0.418 0.78357 0.39133 0.0
H730 H 0.43645 0.77423 0.3598 0.0
H731 H 0.39566 0.78774 0.36012 0.0
H732 H 0.43968 0.85002 0.32823 0.0
H733 H 0.48059 0.83657 0.3277 0.0
H734 H 0.49222 0.88816 0.33749 0.0
H735 H 0.54442 0.9104 0.43769 0.0
H736 H 0.59077 0.88005 0.43138 0.0
H737 H 0.51633 0.80972 0.3631 0.0
C738 C 0.40811 0.86904 0.38052 0.0
C739 C 0.39967 0.89334 0.39872 0.0
C740 C 0.42866 0.91544 0.41932 0.0
C741 C 0.46523 0.91279 0.42216 0.0
C742 C 0.47235 0.88794 0.40419 0.0
C743 C 0.44468 0.8666 0.38369 0.0
C744 C 0.45833 0.84009 0.36807 0.0
C745 C 0.42515 0.79367 0.36996 0.0
C746 C 0.46831 0.8546 0.33863 0.0
C747 C 0.49759 0.84937 0.38322 0.0
C748 C 0.50536 0.8772 0.4039 0.0
C749 C 0.53892 0.88893 0.42136 0.0
C750 C 0.56505 0.87153 0.41765 0.0
C751 C 0.55736 0.84269 0.3967 0.0
C752 C 0.52338 0.83196 0.37918 0.0
H753 H 0.72911 0.55132 0.86422 0.0
H754 H 0.75691 0.57691 0.94909 0.0
H755 H 0.68446 0.52275 0.9604 0.0
H756 H 0.6198 0.52866 0.86751 0.0
H757 H 0.60273 0.48763 0.84294 0.0
H758 H 0.6554 0.53088 0.84158 0.0
H759 H 0.68436 0.4797 0.84322 0.0
H760 H 0.63188 0.43634 0.8447 0.0
H761 H 0.66886 0.44268 0.87044 0.0
H762 H 0.61068 0.46137 0.96247 0.0
H763 H 0.54155 0.3992 0.95527 0.0
H764 H 0.56127 0.41374 0.86898 0.0
C765 C 0.71986 0.54622 0.88521 0.0
C766 C 0.74888 0.56878 0.90579 0.0
C767 C 0.73537 0.56043 0.93296 0.0
C768 C 0.69422 0.52961 0.93957 0.0
C769 C 0.66676 0.50742 0.91879 0.0
C770 C 0.67899 0.51555 0.89214 0.0
C771 C 0.64424 0.48587 0.87363 0.0
C772 C 0.62968 0.50969 0.85534 0.0
C773 C 0.65818 0.4596 0.85703 0.0
C774 C 0.61062 0.4593 0.89401 0.0
C775 C 0.62424 0.47235 0.91995 0.0
C776 C 0.59959 0.45132 0.94223 0.0
C777 C 0.56033 0.41598 0.93794 0.0
C778 C 0.54577 0.40188 0.91158 0.0
C779 C 0.57119 0.42421 0.88934 0.0
H780 H 0.28323 0.7481 0.44247 0.0
H781 H 0.18103 0.74323 0.39651 0.0
H782 H 0.15255 0.66745 0.38968 0.0
H783 H 0.29994 0.68023 0.40138 0.0
H784 H 0.31255 0.65644 0.42871 0.0
H785 H 0.32242 0.70905 0.43182 0.0
H786 H 0.27745 0.68927 0.4754 0.0
H787 H 0.26773 0.63663 0.47258 0.0
H788 H 0.22446 0.64653 0.47488 0.0
H789 H 0.13789 0.59157 0.38585 0.0
H790 H 0.13804 0.52439 0.3864 0.0
H791 H 0.25084 0.58121 0.43423 0.0
C792 C 0.25442 0.73114 0.43134 0.0
C793 C 0.23425 0.75179 0.42019 0.0
C794 C 0.19691 0.72819 0.40547 0.0
C795 C 0.18058 0.6851 0.40142 0.0
C796 C 0.20191 0.666 0.41221 0.0
C797 C 0.23794 0.68842 0.42702 0.0
C798 C 0.25624 0.66147 0.43561 0.0
C799 C 0.30039 0.67778 0.42366 0.0
C800 C 0.25646 0.65829 0.46644 0.0
C801 C 0.22517 0.62029 0.42319 0.0
C802 C 0.19388 0.62325 0.40983 0.0
C803 C 0.16217 0.58902 0.39641 0.0
C804 C 0.16249 0.55099 0.39678 0.0
C805 C 0.19437 0.54754 0.41037 0.0
C806 C 0.22595 0.58277 0.42371 0.0
H807 H 0.71119 0.24802 0.92095 0.0
H808 H 0.64959 0.12445 0.88629 0.0
H809 H 0.58256 0.1257 0.88542 0.0
H810 H 0.62494 0.23893 0.96202 0.0
H811 H 0.63676 0.29147 0.95489 0.0
H812 H 0.6781 0.27863 0.95501 0.0
H813 H 0.69935 0.30743 0.90651 0.0
H814 H 0.65839 0.32066 0.90629 0.0
H815 H 0.66061 0.28766 0.88034 0.0
H816 H 0.52176 0.14242 0.88805 0.0
H817 H 0.47713 0.17575 0.88869 0.0
H818 H 0.58176 0.28933 0.91875 0.0
C819 C 0.68345 0.22091 0.91355 0.0
C820 C 0.6853 0.18586 0.90405 0.0
C821 C 0.64864 0.15148 0.89384 0.0
C822 C 0.61048 0.15191 0.89339 0.0
C823 C 0.60975 0.18717 0.90292 0.0
C824 C 0.6456 0.22121 0.91249 0.0
C825 C 0.63802 0.25678 0.91948 0.0
C826 C 0.64486 0.26703 0.94964 0.0
C827 C 0.66571 0.29539 0.90211 0.0
C828 C 0.59234 0.23776 0.91224 0.0
C829 C 0.57607 0.19734 0.90319 0.0
C830 C 0.5343 0.17403 0.89516 0.0
C831 C 0.50905 0.193 0.89576 0.0
C832 C 0.52604 0.23497 0.90382 0.0
C833 C 0.56794 0.25712 0.91254 0.0
H834 H 0.35275 0.53035 0.36304 0.0
H835 H 0.33336 0.48755 0.4459 0.0
H836 H 0.40794 0.53592 0.4552 0.0
H837 H 0.46287 0.54919 0.35607 0.0
H838 H 0.47821 0.59474 0.33557 0.0
H839 H 0.42528 0.55197 0.33434 0.0
H840 H 0.39753 0.60239 0.34595 0.0
H841 H 0.4502 0.64516 0.34745 0.0
H842 H 0.41561 0.63359 0.37598 0.0
H843 H 0.47965 0.59735 0.45761 0.0
H844 H 0.54552 0.664 0.45212 0.0
H845 H 0.52068 0.66497 0.36716 0.0
C846 C 0.36444 0.53026 0.38296 0.0
C847 C 0.33724 0.50514 0.40377 0.0
C848 C 0.35364 0.50626 0.42961 0.0
C849 C 0.39599 0.53367 0.43507 0.0
C850 C 0.4216 0.55914 0.41435 0.0
C851 C 0.40665 0.55716 0.38867 0.0
C852 C 0.43973 0.59026 0.37057 0.0
C853 C 0.45227 0.57034 0.34779 0.0
C854 C 0.42487 0.61957 0.35935 0.0
C855 C 0.47504 0.61247 0.3904 0.0
C856 C 0.46396 0.5938 0.41552 0.0
C857 C 0.48921 0.61147 0.4379 0.0
C858 C 0.52642 0.64934 0.43463 0.0
C859 C 0.53833 0.66882 0.40913 0.0
C860 C 0.51281 0.64978 0.38664 0.0
H861 H 0.83719 0.49852 0.87612 0.0
H862 H 0.9614 0.56101 0.91044 0.0
H863 H 0.96129 0.49377 0.91192 0.0
H864 H 0.79628 0.40673 0.91385 0.0
H865 H 0.76648 0.37301 0.88665 0.0
H866 H 0.77783 0.42625 0.88708 0.0
H867 H 0.81207 0.43804 0.83972 0.0
H868 H 0.80047 0.38464 0.83914 0.0
H869 H 0.85347 0.42605 0.83407 0.0
H870 H 0.94322 0.41702 0.91382 0.0
H871 H 0.91237 0.34016 0.91105 0.0
H872 H 0.80246 0.33123 0.87298 0.0
C873 C 0.86464 0.49814 0.88355 0.0
C874 C 0.8993 0.53468 0.89317 0.0
C875 C 0.93468 0.53319 0.90279 0.0
C876 C 0.93476 0.49517 0.90382 0.0
C877 C 0.89951 0.45933 0.89471 0.0
C878 C 0.86547 0.46081 0.88428 0.0
C879 C 0.83129 0.41825 0.8759 0.0
C880 C 0.79059 0.40533 0.89183 0.0
C881 C 0.82392 0.41667 0.8454 0.0
C882 C 0.8509 0.39229 0.88372 0.0
C883 C 0.89011 0.41622 0.89473 0.0
C884 C 0.91284 0.39813 0.90481 0.0
C885 C 0.8951 0.35456 0.90329 0.0
C886 C 0.85539 0.32996 0.89147 0.0
C887 C 0.83328 0.34929 0.88163 0.0
H888 H 0.16125 0.32046 0.31521 0.0
H889 H 0.24341 0.45061 0.33431 0.0
H890 H 0.26918 0.46393 0.2874 0.0
H891 H 0.23019 0.30812 0.27095 0.0
H892 H 0.18962 0.27453 0.24809 0.0
H893 H 0.1774 0.27583 0.28308 0.0
H894 H 0.12009 0.294 0.27003 0.0
H895 H 0.13195 0.29245 0.23499 0.0
H896 H 0.13364 0.33841 0.24874 0.0
H897 H 0.28959 0.46127 0.23768 0.0
H898 H 0.29648 0.44357 0.19027 0.0
H899 H 0.19772 0.31674 0.20498 0.0
C900 C 0.18454 0.35188 0.30965 0.0
C901 C 0.20049 0.38433 0.32878 0.0
C902 C 0.23064 0.42503 0.32026 0.0
C903 C 0.24564 0.43295 0.29356 0.0
C904 C 0.22977 0.4 0.27539 0.0
C905 C 0.19938 0.36041 0.28309 0.0
C906 C 0.18683 0.33028 0.25989 0.0
C907 C 0.19661 0.29513 0.26587 0.0
C908 C 0.14038 0.31277 0.25301 0.0
C909 C 0.21509 0.35889 0.23796 0.0
C910 C 0.24003 0.39896 0.24711 0.0
C911 C 0.26973 0.43004 0.23027 0.0
C912 C 0.27352 0.4198 0.20339 0.0
C913 C 0.24732 0.37905 0.1936 0.0
C914 C 0.21797 0.3485 0.2114 0.0
H915 H 0.88496 0.24708 0.70224 0.0
H916 H 0.95501 0.18121 0.69418 0.0
H917 H 0.94966 0.16916 0.74303 0.0
H918 H 0.92794 0.29513 0.76833 0.0
H919 H 0.87837 0.28861 0.77971 0.0
H920 H 0.89183 0.29624 0.74444 0.0
H921 H 0.82354 0.22808 0.73338 0.0
H922 H 0.80998 0.22016 0.76855 0.0
H923 H 0.81318 0.18024 0.74954 0.0
H924 H 0.92992 0.1572 0.79238 0.0
H925 H 0.89918 0.14896 0.83799 0.0
H926 H 0.84358 0.22356 0.81386 0.0
C927 C 0.89999 0.23088 0.71069 0.0
C928 C 0.92024 0.21504 0.69402 0.0
C929 C 0.93906 0.19362 0.70623 0.0
C930 C 0.93633 0.18664 0.7341 0.0
C931 C 0.91501 0.20151 0.74974 0.0
C932 C 0.89753 0.22357 0.73851 0.0
C933 C 0.87406 0.23396 0.75951 0.0
C934 C 0.89427 0.2813 0.76322 0.0
C935 C 0.82744 0.21444 0.75231 0.0
C936 C 0.88022 0.21345 0.78411 0.0
C937 C 0.90412 0.19507 0.77817 0.0
C938 C 0.91169 0.17203 0.79736 0.0
C939 C 0.89404 0.1674 0.82322 0.0
C940 C 0.86921 0.18577 0.82963 0.0
C941 C 0.8629 0.20956 0.80981 0.0
H942 H 0.67517 0.87961 0.20738 0.0
H943 H 0.80036 0.90092 0.19103 0.0
H944 H 0.80942 0.892 0.23923 0.0
H945 H 0.69701 0.92982 0.27458 0.0
H946 H 0.64718 0.89124 0.28818 0.0
H947 H 0.65223 0.90422 0.2529 0.0
H948 H 0.62311 0.82656 0.2408 0.0
H949 H 0.61811 0.8134 0.27598 0.0
H950 H 0.64824 0.79913 0.25405 0.0
H951 H 0.80316 0.87524 0.28848 0.0
H952 H 0.78126 0.85054 0.3351 0.0
H953 H 0.65979 0.83889 0.31972 0.0
C954 C 0.70482 0.88342 0.21409 0.0
C955 C 0.7372 0.89128 0.19547 0.0
C956 C 0.77515 0.89494 0.20494 0.0
C957 C 0.78067 0.89008 0.23231 0.0
C958 C 0.74791 0.88143 0.25008 0.0
C959 C 0.71072 0.87817 0.24142 0.0
C960 C 0.67935 0.86545 0.2644 0.0
C961 C 0.66831 0.89973 0.27036 0.0
C962 C 0.63988 0.82365 0.25845 0.0
C963 C 0.70445 0.86131 0.28712 0.0
C964 C 0.74407 0.87111 0.2785 0.0
C965 C 0.77233 0.86785 0.29554 0.0
C966 C 0.75959 0.85372 0.322 0.0
C967 C 0.71885 0.84278 0.33117 0.0
C968 C 0.69128 0.84728 0.31348 0.0
H969 H 0.83077 0.6487 0.70607 0.0
H970 H 0.9302 0.77132 0.68265 0.0
H971 H 0.95074 0.78779 0.73008 0.0
H972 H 0.80383 0.67905 0.77034 0.0
H973 H 0.79535 0.63264 0.78762 0.0
H974 H 0.78609 0.63118 0.75198 0.0
H975 H 0.83704 0.60277 0.74372 0.0
H976 H 0.84671 0.60447 0.7793 0.0
H977 H 0.88982 0.6315 0.75612 0.0
H978 H 0.96208 0.79096 0.77899 0.0
H979 H 0.96441 0.78079 0.8276 0.0
H980 H 0.85971 0.65489 0.82063 0.0
C981 C 0.85636 0.6792 0.71109 0.0
C982 C 0.8788 0.70891 0.69078 0.0
C983 C 0.91268 0.74818 0.69794 0.0
C984 C 0.92454 0.75785 0.72481 0.0
C985 C 0.90246 0.72775 0.74431 0.0
C986 C 0.86914 0.68919 0.73794 0.0
C987 C 0.85233 0.66201 0.76291 0.0
C988 C 0.80669 0.65056 0.76854 0.0
C989 C 0.85675 0.62288 0.76035 0.0
C990 C 0.88151 0.69139 0.78416 0.0
C991 C 0.90991 0.72918 0.77287 0.0
C992 C 0.93998 0.76156 0.78813 0.0
C993 C 0.94097 0.75542 0.8158 0.0
C994 C 0.91225 0.71703 0.82806 0.0
C995 C 0.88229 0.68448 0.81188 0.0
H996 H 0.24146 0.83516 0.20166 0.0
H997 H 0.16682 0.89252 0.1818 0.0
H998 H 0.16436 0.90884 0.22981 0.0
H999 H 0.19354 0.79182 0.26698 0.0
H1000 H 0.24246 0.80391 0.28244 0.0
H1001 H 0.23542 0.79362 0.24687 0.0
H1002 H 0.30143 0.8647 0.23716 0.0
H1003 H 0.30847 0.87536 0.27269 0.0
H1004 H 0.30448 0.9116 0.25034 0.0
H1005 H 0.16916 0.91816 0.27959 0.0
H1006 H 0.18455 0.92394 0.32822 0.0
H1007 H 0.26191 0.86685 0.31583 0.0
C1008 C 0.22404 0.85047 0.20763 0.0
C1009 C 0.20367 0.86204 0.18831 0.0
C1010 C 0.18222 0.88316 0.1965 0.0
C1011 C 0.18068 0.89252 0.22365 0.0
C1012 C 0.20151 0.88128 0.24226 0.0
C1013 C 0.22311 0.86105 0.23467 0.0
C1014 C 0.24492 0.85486 0.25858 0.0
C1015 C 0.22807 0.80828 0.26404 0.0
C1016 C 0.29266 0.87802 0.25443 0.0
C1017 C 0.2321 0.87468 0.28074 0.0
C1018 C 0.20659 0.88918 0.27088 0.0
C1019 C 0.18938 0.90726 0.28754 0.0
C1020 C 0.19827 0.91041 0.31508 0.0
C1021 C 0.22478 0.89635 0.3256 0.0
C1022 C 0.24219 0.87857 0.30816 0.0
H1023 H 0.33758 0.17037 0.81766 0.0
H1024 H 0.45882 0.2826 0.81914 0.0
H1025 H 0.46939 0.27275 0.77097 0.0
H1026 H 0.36443 0.11087 0.77222 0.0
H1027 H 0.3148 0.08787 0.75526 0.0
H1028 H 0.31813 0.10291 0.79003 0.0
H1029 H 0.28531 0.149 0.77856 0.0
H1030 H 0.28161 0.13386 0.74383 0.0
H1031 H 0.309 0.18821 0.75272 0.0
H1032 H 0.4662 0.24916 0.7216 0.0
H1033 H 0.44587 0.21831 0.67588 0.0
H1034 H 0.32596 0.12453 0.70765 0.0
C1035 C 0.36652 0.19276 0.80794 0.0
C1036 C 0.39747 0.2271 0.82224 0.0
C1037 C 0.43458 0.25606 0.80859 0.0
C1038 C 0.44098 0.25058 0.78126 0.0
C1039 C 0.4098 0.21622 0.76776 0.0
C1040 C 0.37309 0.18813 0.78068 0.0
C1041 C 0.34331 0.15509 0.76156 0.0
C1042 C 0.33468 0.11162 0.77029 0.0
C1043 C 0.30241 0.15666 0.75901 0.0
C1044 C 0.3688 0.16888 0.73582 0.0
C1045 C 0.40735 0.20382 0.73968 0.0
C1046 C 0.43601 0.22183 0.71843 0.0
C1047 C 0.42443 0.20408 0.69257 0.0
C1048 C 0.38442 0.16926 0.68826 0.0
C1049 C 0.35674 0.15136 0.7103 0.0
H1050 H 0.3244 0.29341 0.94856 0.0
H1051 H 0.37513 0.23135 0.99668 0.0
H1052 H 0.35125 0.25097 0.03824 0.0
H1053 H 0.34979 0.37815 0.98922 0.0
H1054 H 0.30184 0.37948 0.9847 0.0
H1055 H 0.31973 0.35759 0.95896 0.0
H1056 H 0.24918 0.28831 0.9612 0.0
H1057 H 0.23084 0.31021 0.98678 0.0
H1058 H 0.23062 0.26208 0.99305 0.0
H1059 H 0.3341 0.28922 0.07392 0.0
H1060 H 0.31303 0.33194 0.10145 0.0
H1061 H 0.26488 0.36093 0.03046 0.0
C1062 C 0.32991 0.28355 0.96789 0.0
C1063 C 0.35198 0.26143 0.96968 0.0
C1064 C 0.3583 0.24843 0.9951 0.0
C1065 C 0.34492 0.25948 0.01871 0.0
C1066 C 0.32418 0.28237 0.01636 0.0
C1067 C 0.31556 0.29314 0.99155 0.0
C1068 C 0.29279 0.31773 0.9945 0.0
C1069 C 0.31753 0.36078 0.98106 0.0
C1070 C 0.24822 0.29312 0.98322 0.0
C1071 C 0.29209 0.32126 0.02486 0.0
C1072 C 0.31049 0.30075 0.0371 0.0
C1073 C 0.31811 0.30392 0.06469 0.0
C1074 C 0.30605 0.32812 0.08016 0.0
C1075 C 0.28531 0.34749 0.06819 0.0
C1076 C 0.27869 0.34444 0.04019 0.0
H1077 H 0.0659 0.30766 0.44315 0.0
H1078 H 0.17441 0.35426 0.49442 0.0
H1079 H 0.12856 0.31986 0.5337 0.0
H1080 H 1.0033 0.32385 0.48657 0.0
H1081 H 0.95475 0.27747 0.47899 0.0
H1082 H 0.99587 0.29931 0.45414 0.0
H1083 H 0.99456 0.22931 0.45037 0.0
H1084 H 0.95378 0.2064 0.47552 0.0
H1085 H 1.00202 0.20559 0.47996 0.0
H1086 H 0.0713 0.29441 0.56816 0.0
H1087 H 1.00602 0.2694 0.59487 0.0
H1088 H 0.93372 0.23314 0.52166 0.0
C1089 C 0.07994 0.30852 0.46238 0.0
C1090 C 0.12373 0.33213 0.46567 0.0
C1091 C 0.14101 0.33509 0.49144 0.0
C1092 C 0.11519 0.31588 0.51386 0.0
C1093 C 0.07201 0.29372 0.51018 0.0
C1094 C 0.05446 0.2891 0.48499 0.0
C1095 C 1.00702 0.26638 0.48695 0.0
C1096 C 0.98922 0.29338 0.47602 0.0
C1097 C 0.98821 0.22439 0.47234 0.0
C1098 C 1.00074 0.26041 0.51718 0.0
C1099 C 1.03871 0.27665 0.53021 0.0
C1100 C 1.04132 0.27995 0.55819 0.0
C1101 C 1.0042 0.26563 0.57321 0.0
C1102 C 0.96494 0.24692 0.56035 0.0
C1103 C 0.96328 0.24488 0.53198 0.0
H1104 H 0.70864 0.96599 0.04342 0.0
H1105 H 0.81889 0.95369 0.0545 0.0
H1106 H 0.8585 1.01225 0.02297 0.0
H1107 H 0.72557 0.98611 0.97132 0.0
H1108 H 0.70467 1.02114 0.97134 0.0
H1109 H 0.68608 0.97952 0.99562 0.0
H1110 H 0.7053 0.03311 0.03417 0.0
H1111 H 0.72439 0.07492 1.01002 0.0
H1112 H 0.7581 0.07589 0.0365 0.0
H1113 H 0.88752 0.07738 0.993 0.0
H1114 H 0.89978 0.1336 0.96093 0.0
H1115 H 0.76769 0.0956 0.96457 0.0
C1116 C 0.74108 0.97553 0.03913 0.0
C1117 C 0.76096 0.95589 0.05193 0.0
C1118 C 0.8032 0.96871 0.04534 0.0
C1119 C 0.82596 1.00199 0.02743 0.0
C1120 C 0.80563 1.02125 0.01555 0.0
C1121 C 0.76378 1.00765 0.02058 0.0
C1122 C 0.74848 0.03181 1.00404 0.0
C1123 C 0.71418 1.00292 0.98441 0.0
C1124 C 0.73317 0.05532 0.02228 0.0
C1125 C 0.78835 0.06161 0.9892 0.0
C1126 C 0.82122 0.05566 0.99646 0.0
C1127 C 0.86168 0.08145 0.98662 0.0
C1128 C 0.86834 0.11328 0.96834 0.0
C1129 C 0.83451 0.11809 0.95922 0.0
C1130 C 0.7942 0.09224 0.97039 0.0
H1131 H 0.76478 0.67403 0.54077 0.0
H1132 H 0.88801 0.77983 0.55388 0.0
H1133 H 0.86942 0.82408 0.52655 0.0
H1134 H 0.76262 0.6997 0.47036 0.0
H1135 H 0.70691 0.67994 0.47066 0.0
H1136 H 0.72936 0.65801 0.49294 0.0
H1137 H 0.69462 0.67357 0.53359 0.0
H1138 H 0.6727 0.69623 0.51144 0.0
H1139 H 0.70503 0.72606 0.53915 0.0
H1140 H 0.8339 0.85791 0.50068 0.0
H1141 H 0.79235 0.87457 0.46909 0.0
H1142 H 0.69743 0.74399 0.46727 0.0
C1143 C 0.78784 0.7065 0.53782 0.0
C1144 C 0.82741 0.72386 0.55013 0.0
C1145 C 0.85718 0.76616 0.54521 0.0
C1146 C 0.84685 0.79155 0.52973 0.0
C1147 C 0.80709 0.77373 0.51847 0.0
C1148 C 0.77866 0.73181 0.5215 0.0
C1149 C 0.73965 0.71936 0.50517 0.0
C1150 C 0.73434 0.68737 0.48349 0.0
C1151 C 0.70071 0.70284 0.52343 0.0
C1152 C 0.75028 0.76088 0.49277 0.0
C1153 C 0.78878 0.79213 0.50124 0.0
C1154 C 0.80415 0.83346 0.49341 0.0
C1155 C 0.78037 0.84264 0.47546 0.0
C1156 C 0.74247 0.81044 0.46478 0.0
C1157 C 0.72681 0.76929 0.47437 0.0
H1158 H 0.98422 0.67849 0.97519 0.0
H1159 H 0.95664 0.77956 0.96972 0.0
H1160 H 1.02012 0.82462 0.9959 0.0
H1161 H 1.01695 0.69941 0.04472 0.0
H1162 H 0.0561 0.68389 0.04073 0.0
H1163 H 1.01018 0.6609 0.01996 0.0
H1164 H 0.05732 0.68354 0.9773 0.0
H1165 H 0.10339 0.707 0.99794 0.0
H1166 H 0.09584 0.7376 0.97269 0.0
H1167 H 0.09 0.86001 0.01998 0.0
H1168 H 0.15252 0.87888 0.04757 0.0
H1169 H 0.12801 0.75154 0.04324 0.0
C1170 C 0.99159 0.71015 0.97939 0.0
C1171 C 0.96656 0.72621 0.96928 0.0
C1172 C 0.97645 0.76726 0.97616 0.0
C1173 C 1.0123 0.793 0.99118 0.0
C1174 C 1.03709 0.77664 1.00006 0.0
C1175 C 1.02648 0.73578 0.9951 0.0
C1176 C 0.05649 0.72479 1.00872 0.0
C1177 C 1.03356 0.69021 0.02979 0.0
C1178 C 0.07963 0.71252 0.98792 0.0
C1179 C 0.08591 0.76595 0.0219 0.0
C1180 C 0.07473 0.79573 0.0162 0.0
C1181 C 0.09851 0.83669 0.02505 0.0
C1182 C 0.13396 0.84712 0.04074 0.0
C1183 C 0.14444 0.81642 0.04822 0.0
C1184 C 0.12032 0.7755 0.03827 0.0
H1185 H 0.2578 0.98929 0.46384 0.0
H1186 H 0.29823 0.90503 0.49388 0.0
H1187 H 0.33038 0.95091 0.53323 0.0
H1188 H 0.35079 0.08101 0.48009 0.0
H1189 H 0.32566 0.11076 0.48894 0.0
H1190 H 0.30152 0.06888 0.46512 0.0
H1191 H 0.23506 0.03689 0.4937 0.0
H1192 H 0.25801 0.07576 0.51968 0.0
H1193 H 0.23615 1.02131 0.52773 0.0
H1194 H 0.36472 1.00899 0.56589 0.0
H1195 H 0.39821 0.07532 0.59092 0.0
H1196 H 0.33541 0.12275 0.54046 0.0
C1197 C 0.27239 0.98009 0.47921 0.0
C1198 C 0.27481 0.94331 0.47649 0.0
C1199 C 0.29544 0.93273 0.49618 0.0
C1200 C 0.31378 0.9586 0.51846 0.0
C1201 C 0.31151 0.9951 0.52047 0.0
C1202 C 0.2914 1.00595 0.50138 0.0
C1203 C 0.29658 0.0486 0.5071 0.0
C1204 C 0.32005 0.0791 0.48394 0.0
C1205 C 0.25393 0.04554 0.51239 0.0
C1206 C 0.32298 0.06014 0.53236 0.0
C1207 C 0.33123 1.02878 0.53962 0.0
C1208 C 0.3579 0.03346 0.56074 0.0
C1209 C 0.37694 0.07124 0.57473 0.0
C1210 C 0.36892 0.1037 0.56774 0.0
C1211 C 0.34125 0.09794 0.54649 0.0
loop_
_geom_bond_atom_site_label_1
_geom_bond_atom_site_label_2
_geom_bond_distance
_geom_bond_site_symmetry_2
_ccdc_geom_bond_type
O0 Tb1 2.506 . S
O0 C14 1.265 . S
Tb1 O0 2.506 . S
Tb1 O6 2.312 . S
Tb1 O10 2.271 . S
Tb1 O12 2.338 . S
Tb1 O19 2.441 . S
C2 O10 1.252 . S
C2 O11 1.253 . S
O3 Tb4 2.271 . S
O3 C13 1.252 . S
Tb4 O3 2.271 . S
Tb4 O7 2.338 . S
Tb4 O11 2.312 . S
Tb4 O15 2.441 . S
Tb4 O16 2.506 . S
C5 O15 1.244 . S
C5 O16 1.265 . S
O6 Tb1 2.312 . S
O6 C13 1.253 . S
O7 Tb4 2.338 . S
O7 C8 1.258 . S
C8 O7 1.258 . S
C8 O9 1.251 . S
O9 C8 1.251 . S
O10 Tb1 2.271 . S
O10 C2 1.252 . S
O11 C2 1.253 . S
O11 Tb4 2.312 . S
O12 Tb1 2.338 . S
O12 C17 1.258 . S
C13 O3 1.252 . S
C13 O6 1.253 . S
C14 O0 1.265 . S
C14 O19 1.244 . S
O15 Tb4 2.441 . S
O15 C5 1.244 . S
O16 Tb4 2.506 . S
O16 C5 1.265 . S
C17 O12 1.258 . S
C17 O18 1.251 . S
O18 C17 1.251 . S
O19 Tb1 2.441 . S
O19 C14 1.244 . S
O20 Tb21 2.506 . S
O20 C34 1.265 . S
Tb21 O20 2.506 . S
Tb21 O26 2.312 . S
Tb21 O30 2.271 . S
Tb21 O32 2.338 . S
Tb21 O39 2.441 . S
C22 O30 1.252 . S
C22 O31 1.253 . S
O23 Tb24 2.271 . S
O23 C33 1.252 . S
Tb24 O23 2.271 . S
Tb24 O27 2.338 . S
Tb24 O31 2.312 . S
Tb24 O35 2.441 . S
Tb24 O36 2.506 . S
C25 O35 1.244 . S
C25 O36 1.265 . S
O26 Tb21 2.312 . S
O26 C33 1.253 . S
O27 Tb24 2.338 . S
O27 C28 1.258 . S
C28 O27 1.258 . S
C28 O29 1.251 . S
O29 C28 1.251 . S
O30 Tb21 2.271 . S
O30 C22 1.252 . S
O31 C22 1.253 . S
O31 Tb24 2.312 . S
O32 Tb21 2.338 . S
O32 C37 1.258 . S
C33 O23 1.252 . S
C33 O26 1.253 . S
C34 O20 1.265 . S
C34 O39 1.244 . S
O35 Tb24 2.441 . S
O35 C25 1.244 . S
O36 Tb24 2.506 . S
O36 C25 1.265 . S
C37 O32 1.258 . S
C37 O38 1.251 . S
O38 C37 1.251 . S
O39 Tb21 2.441 . S
O39 C34 1.244 . S
O40 Tb41 2.506 . S
O40 C54 1.265 . S
Tb41 O40 2.506 . S
Tb41 O46 2.312 . S
Tb41 O50 2.271 . S
Tb41 O52 2.338 . S
Tb41 O59 2.441 . S
C42 O50 1.252 . S
C42 O51 1.253 . S
O43 Tb44 2.271 . S
O43 C53 1.252 . S
Tb44 O43 2.271 . S
Tb44 O47 2.338 . S
Tb44 O51 2.312 . S
Tb44 O55 2.441 . S
Tb44 O56 2.506 . S
C45 O55 1.244 . S
C45 O56 1.265 . S
O46 Tb41 2.312 . S
O46 C53 1.253 . S
O47 Tb44 2.338 . S
O47 C48 1.258 . S
C48 O47 1.258 . S
C48 O49 1.251 . S
O49 C48 1.251 . S
O50 Tb41 2.271 . S
O50 C42 1.252 . S
O51 C42 1.253 . S
O51 Tb44 2.312 . S
O52 Tb41 2.338 . S
O52 C57 1.258 . S
C53 O43 1.252 . S
C53 O46 1.253 . S
C54 O40 1.265 . S
C54 O59 1.244 . S
O55 Tb44 2.441 . S
O55 C45 1.244 . S
O56 Tb44 2.506 . S
O56 C45 1.265 . S
C57 O52 1.258 . S
C57 O58 1.251 . S
O58 C57 1.251 . S
O59 Tb41 2.441 . S
O59 C54 1.244 . S
O60 Tb61 2.506 . S
O60 C74 1.265 . S
Tb61 O60 2.506 . S
Tb61 O66 2.312 . S
Tb61 O70 2.271 . S
Tb61 O72 2.338 . S
Tb61 O79 2.441 . S
C62 O70 1.252 . S
C62 O71 1.253 . S
O63 Tb64 2.271 . S
O63 C73 1.252 . S
Tb64 O63 2.271 . S
Tb64 O67 2.338 . S
Tb64 O71 2.312 . S
Tb64 O75 2.441 . S
Tb64 O76 2.506 . S
C65 O75 1.244 . S
C65 O76 1.265 . S
O66 Tb61 2.312 . S
O66 C73 1.253 . S
O67 Tb64 2.338 . S
O67 C68 1.258 . S
C68 O67 1.258 . S
C68 O69 1.251 . S
O69 C68 1.251 . S
O70 Tb61 2.271 . S
O70 C62 1.252 . S
O71 C62 1.253 . S
O71 Tb64 2.312 . S
O72 Tb61 2.338 . S
O72 C77 1.258 . S
C73 O63 1.252 . S
C73 O66 1.253 . S
C74 O60 1.265 . S
C74 O79 1.244 . S
O75 Tb64 2.441 . S
O75 C65 1.244 . S
O76 Tb64 2.506 . S
O76 C65 1.265 . S
C77 O72 1.258 . S
C77 O78 1.251 . S
O78 C77 1.251 . S
O79 Tb61 2.441 . S
O79 C74 1.244 . S
O80 Tb81 2.506 . S
O80 C94 1.265 . S
Tb81 O80 2.506 . S
Tb81 O86 2.312 . S
Tb81 O90 2.271 . S
Tb81 O92 2.338 . S
Tb81 O99 2.441 . S
C82 O90 1.252 . S
C82 O91 1.253 . S
O83 Tb84 2.271 . S
O83 C93 1.252 . S
Tb84 O83 2.271 . S
Tb84 O87 2.338 . S
Tb84 O91 2.312 . S
Tb84 O95 2.441 . S
Tb84 O96 2.506 . S
C85 O95 1.244 . S
C85 O96 1.265 . S
O86 Tb81 2.312 . S
O86 C93 1.253 . S
O87 Tb84 2.338 . S
O87 C88 1.258 . S
C88 O87 1.258 . S
C88 O89 1.251 . S
O89 C88 1.251 . S
O90 Tb81 2.271 . S
O90 C82 1.252 . S
O91 C82 1.253 . S
O91 Tb84 2.312 . S
O92 Tb81 2.338 . S
O92 C97 1.258 . S
C93 O83 1.252 . S
C93 O86 1.253 . S
C94 O80 1.265 . S
C94 O99 1.244 . S
O95 Tb84 2.441 . S
O95 C85 1.244 . S
O96 Tb84 2.506 . S
O96 C85 1.265 . S
C97 O92 1.258 . S
C97 O98 1.251 . S
O98 C97 1.251 . S
O99 Tb81 2.441 . S
O99 C94 1.244 . S
O100 Tb101 2.506 . S
O100 C114 1.265 . S
Tb101 O100 2.506 . S
Tb101 O106 2.312 . S
Tb101 O110 2.271 . S
Tb101 O112 2.338 . S
Tb101 O119 2.441 . S
C102 O110 1.252 . S
C102 O111 1.253 . S
O103 Tb104 2.271 . S
O103 C113 1.252 . S
Tb104 O103 2.271 . S
Tb104 O107 2.338 . S
Tb104 O111 2.312 . S
Tb104 O115 2.441 . S
Tb104 O116 2.506 . S
C105 O115 1.244 . S
C105 O116 1.265 . S
O106 Tb101 2.312 . S
O106 C113 1.253 . S
O107 Tb104 2.338 . S
O107 C108 1.258 . S
C108 O107 1.258 . S
C108 O109 1.251 . S
O109 C108 1.251 . S
O110 Tb101 2.271 . S
O110 C102 1.252 . S
O111 C102 1.253 . S
O111 Tb104 2.312 . S
O112 Tb101 2.338 . S
O112 C117 1.258 . S
C113 O103 1.252 . S
C113 O106 1.253 . S
C114 O100 1.265 . S
C114 O119 1.244 . S
O115 Tb104 2.441 . S
O115 C105 1.244 . S
O116 Tb104 2.506 . S
O116 C105 1.265 . S
C117 O112 1.258 . S
C117 O118 1.251 . S
O118 C117 1.251 . S
O119 Tb101 2.441 . S
O119 C114 1.244 . S
O120 Tb121 2.506 . S
O120 C134 1.265 . S
Tb121 O120 2.506 . S
Tb121 O126 2.312 . S
Tb121 O130 2.271 . S
Tb121 O132 2.338 . S
Tb121 O139 2.441 . S
C122 O130 1.252 . S
C122 O131 1.253 . S
O123 Tb124 2.271 . S
O123 C133 1.252 . S
Tb124 O123 2.271 . S
Tb124 O127 2.338 . S
Tb124 O131 2.312 . S
Tb124 O135 2.441 . S
Tb124 O136 2.506 . S
C125 O135 1.244 . S
C125 O136 1.265 . S
O126 Tb121 2.312 . S
O126 C133 1.253 . S
O127 Tb124 2.338 . S
O127 C128 1.258 . S
C128 O127 1.258 . S
C128 O129 1.251 . S
O129 C128 1.251 . S
O130 Tb121 2.271 . S
O130 C122 1.252 . S
O131 C122 1.253 . S
O131 Tb124 2.312 . S
O132 Tb121 2.338 . S
O132 C137 1.258 . S
C133 O123 1.252 . S
C133 O126 1.253 . S
C134 O120 1.265 . S
C134 O139 1.244 . S
O135 Tb124 2.441 . S
O135 C125 1.244 . S
O136 Tb124 2.506 . S
O136 C125 1.265 . S
C137 O132 1.258 . S
C137 O138 1.251 . S
O138 C137 1.251 . S
O139 Tb121 2.441 . S
O139 C134 1.244 . S
O140 Tb141 2.506 . S
O140 C154 1.265 . S
Tb141 O140 2.506 . S
Tb141 O146 2.312 . S
Tb141 O150 2.271 . S
Tb141 O152 2.338 . S
Tb141 O159 2.441 . S
C142 O150 1.252 . S
C142 O151 1.253 . S
O143 Tb144 2.271 . S
O143 C153 1.252 . S
Tb144 O143 2.271 . S
Tb144 O147 2.338 . S
Tb144 O151 2.312 . S
Tb144 O155 2.441 . S
Tb144 O156 2.506 . S
C145 O155 1.244 . S
C145 O156 1.265 . S
O146 Tb141 2.312 . S
O146 C153 1.253 . S
O147 Tb144 2.338 . S
O147 C148 1.258 . S
C148 O147 1.258 . S
C148 O149 1.251 . S
O149 C148 1.251 . S
O150 Tb141 2.271 . S
O150 C142 1.252 . S
O151 C142 1.253 . S
O151 Tb144 2.312 . S
O152 Tb141 2.338 . S
O152 C157 1.258 . S
C153 O143 1.252 . S
C153 O146 1.253 . S
C154 O140 1.265 . S
C154 O159 1.244 . S
O155 Tb144 2.441 . S
O155 C145 1.244 . S
O156 Tb144 2.506 . S
O156 C145 1.265 . S
C157 O152 1.258 . S
C157 O158 1.251 . S
O158 C157 1.251 . S
O159 Tb141 2.441 . S
O159 C154 1.244 . S
O160 Tb161 2.506 . S
O160 C174 1.265 . S
Tb161 O160 2.506 . S
Tb161 O166 2.312 . S
Tb161 O170 2.271 . S
Tb161 O172 2.338 . S
Tb161 O179 2.441 . S
C162 O170 1.252 . S
C162 O171 1.253 . S
O163 Tb164 2.271 . S
O163 C173 1.252 . S
Tb164 O163 2.271 . S
Tb164 O167 2.338 . S
Tb164 O171 2.312 . S
Tb164 O175 2.441 . S
Tb164 O176 2.506 . S
C165 O175 1.244 . S
C165 O176 1.265 . S
O166 Tb161 2.312 . S
O166 C173 1.253 . S
O167 Tb164 2.338 . S
O167 C168 1.258 . S
C168 O167 1.258 . S
C168 O169 1.251 . S
O169 C168 1.251 . S
O170 Tb161 2.271 . S
O170 C162 1.252 . S
O171 C162 1.253 . S
O171 Tb164 2.312 . S
O172 Tb161 2.338 . S
O172 C177 1.258 . S
C173 O163 1.252 . S
C173 O166 1.253 . S
C174 O160 1.265 . S
C174 O179 1.244 . S
O175 Tb164 2.441 . S
O175 C165 1.244 . S
O176 Tb164 2.506 . S
O176 C165 1.265 . S
C177 O172 1.258 . S
C177 O178 1.251 . S
O178 C177 1.251 . S
O179 Tb161 2.441 . S
O179 C174 1.244 . S
O180 Tb181 2.506 . S
O180 C194 1.265 . S
Tb181 O180 2.506 . S
Tb181 O186 2.312 . S
Tb181 O190 2.271 . S
Tb181 O192 2.338 . S
Tb181 O199 2.441 . S
C182 O190 1.252 . S
C182 O191 1.253 . S
O183 Tb184 2.271 . S
O183 C193 1.252 . S
Tb184 O183 2.271 . S
Tb184 O187 2.338 . S
Tb184 O191 2.312 . S
Tb184 O195 2.441 . S
Tb184 O196 2.506 . S
C185 O195 1.244 . S
C185 O196 1.265 . S
O186 Tb181 2.312 . S
O186 C193 1.253 . S
O187 Tb184 2.338 . S
O187 C188 1.258 . S
C188 O187 1.258 . S
C188 O189 1.251 . S
O189 C188 1.251 . S
O190 Tb181 2.271 . S
O190 C182 1.252 . S
O191 C182 1.253 . S
O191 Tb184 2.312 . S
O192 Tb181 2.338 . S
O192 C197 1.258 . S
C193 O183 1.252 . S
C193 O186 1.253 . S
C194 O180 1.265 . S
C194 O199 1.244 . S
O195 Tb184 2.441 . S
O195 C185 1.244 . S
O196 Tb184 2.506 . S
O196 C185 1.265 . S
C197 O192 1.258 . S
C197 O198 1.251 . S
O198 C197 1.251 . S
O199 Tb181 2.441 . S
O199 C194 1.244 . S
O200 Tb201 2.506 . S
O200 C214 1.265 . S
Tb201 O200 2.506 . S
Tb201 O206 2.312 . S
Tb201 O210 2.271 . S
Tb201 O212 2.338 . S
Tb201 O219 2.441 . S
C202 O210 1.252 . S
C202 O211 1.253 . S
O203 Tb204 2.271 . S
O203 C213 1.252 . S
Tb204 O203 2.271 . S
Tb204 O207 2.338 . S
Tb204 O211 2.312 . S
Tb204 O215 2.441 . S
Tb204 O216 2.506 . S
C205 O215 1.244 . S
C205 O216 1.265 . S
O206 Tb201 2.312 . S
O206 C213 1.253 . S
O207 Tb204 2.338 . S
O207 C208 1.258 . S
C208 O207 1.258 . S
C208 O209 1.251 . S
O209 C208 1.251 . S
O210 Tb201 2.271 . S
O210 C202 1.252 . S
O211 C202 1.253 . S
O211 Tb204 2.312 . S
O212 Tb201 2.338 . S
O212 C217 1.258 . S
C213 O203 1.252 . S
C213 O206 1.253 . S
C214 O200 1.265 . S
C214 O219 1.244 . S
O215 Tb204 2.441 . S
O215 C205 1.244 . S
O216 Tb204 2.506 . S
O216 C205 1.265 . S
C217 O212 1.258 . S
C217 O218 1.251 . S
O218 C217 1.251 . S
O219 Tb201 2.441 . S
O219 C214 1.244 . S
O220 Tb221 2.506 . S
O220 C234 1.265 . S
Tb221 O220 2.506 . S
Tb221 O226 2.312 . S
Tb221 O230 2.271 . S
Tb221 O232 2.338 . S
Tb221 O239 2.441 . S
C222 O230 1.252 . S
C222 O231 1.253 . S
O223 Tb224 2.271 . S
O223 C233 1.252 . S
Tb224 O223 2.271 . S
Tb224 O227 2.338 . S
Tb224 O231 2.312 . S
Tb224 O235 2.441 . S
Tb224 O236 2.506 . S
C225 O235 1.244 . S
C225 O236 1.265 . S
O226 Tb221 2.312 . S
O226 C233 1.253 . S
O227 Tb224 2.338 . S
O227 C228 1.258 . S
C228 O227 1.258 . S
C228 O229 1.251 . S
O229 C228 1.251 . S
O230 Tb221 2.271 . S
O230 C222 1.252 . S
O231 C222 1.253 . S
O231 Tb224 2.312 . S
O232 Tb221 2.338 . S
O232 C237 1.258 . S
C233 O223 1.252 . S
C233 O226 1.253 . S
C234 O220 1.265 . S
C234 O239 1.244 . S
O235 Tb224 2.441 . S
O235 C225 1.244 . S
O236 Tb224 2.506 . S
O236 C225 1.265 . S
C237 O232 1.258 . S
C237 O238 1.251 . S
O238 C237 1.251 . S
O239 Tb221 2.441 . S
O239 C234 1.244 . S
H240 C252 0.930 . S
H241 C254 0.930 . S
H242 C255 0.930 . S
H243 C259 0.959 . S
H244 C259 0.959 . S
H245 C259 0.961 . S
H246 C260 0.960 . S
H247 C260 0.961 . S
H248 C260 0.959 . S
H249 C263 0.929 . S
H250 C264 0.931 . S
H251 C266 0.930 . S
C252 H240 0.930 . S
C252 C253 1.399 . S
C252 C257 1.399 1_565 S
C253 C252 1.399 . S
C253 C254 1.376 . S
C254 H241 0.930 . S
C254 C253 1.376 . S
C254 C255 1.388 . S
C255 H242 0.930 . S
C255 C254 1.388 . S
C255 C256 1.390 1_565 S
C256 C255 1.390 1_545 S
C256 C257 1.394 . S
C256 C262 1.465 . S
C257 C252 1.399 1_545 S
C257 C256 1.394 . S
C257 C258 1.516 . S
C258 C257 1.516 . S
C258 C259 1.502 . S
C258 C260 1.561 . S
C258 C261 1.526 . S
C259 H243 0.959 . S
C259 H244 0.959 . S
C259 H245 0.961 . S
C259 C258 1.502 . S
C260 H246 0.960 . S
C260 H247 0.961 . S
C260 H248 0.959 . S
C260 C258 1.561 . S
C261 C258 1.526 . S
C261 C262 1.396 . S
C261 C266 1.390 . S
C262 C256 1.465 . S
C262 C261 1.396 . S
C262 C263 1.399 . S
C263 H249 0.929 . S
C263 C262 1.399 . S
C263 C264 1.385 . S
C264 H250 0.931 . S
C264 C263 1.385 . S
C264 C265 1.389 . S
C265 C264 1.389 . S
C265 C266 1.387 . S
C266 H251 0.930 . S
C266 C261 1.390 . S
C266 C265 1.387 . S
H267 C279 0.930 . S
H268 C281 0.930 . S
H269 C282 0.930 . S
H270 C286 0.959 . S
H271 C286 0.959 . S
H272 C286 0.961 . S
H273 C287 0.960 . S
H274 C287 0.961 . S
H275 C287 0.959 . S
H276 C290 0.929 . S
H277 C291 0.931 . S
H278 C293 0.930 . S
C279 H267 0.930 . S
C279 C280 1.399 . S
C279 C284 1.399 . S
C280 C279 1.399 . S
C280 C281 1.376 . S
C281 H268 0.930 . S
C281 C280 1.376 . S
C281 C282 1.388 . S
C282 H269 0.930 . S
C282 C281 1.388 . S
C282 C283 1.390 . S
C283 C282 1.390 . S
C283 C284 1.394 . S
C283 C289 1.465 . S
C284 C279 1.399 . S
C284 C283 1.394 . S
C284 C285 1.516 . S
C285 C284 1.516 . S
C285 C286 1.502 . S
C285 C287 1.561 . S
C285 C288 1.526 . S
C286 H270 0.959 . S
C286 H271 0.959 . S
C286 H272 0.961 . S
C286 C285 1.502 . S
C287 H273 0.960 . S
C287 H274 0.961 . S
C287 H275 0.959 . S
C287 C285 1.561 . S
C288 C285 1.526 . S
C288 C289 1.396 . S
C288 C293 1.390 . S
C289 C283 1.465 . S
C289 C288 1.396 . S
C289 C290 1.399 . S
C290 H276 0.929 . S
C290 C289 1.399 . S
C290 C291 1.385 1_455 S
C291 H277 0.931 . S
C291 C290 1.385 1_655 S
C291 C292 1.389 1_655 S
C292 C291 1.389 1_455 S
C292 C293 1.387 . S
C293 H278 0.930 . S
C293 C288 1.390 . S
C293 C292 1.387 . S
H294 C306 0.931 . S
H295 C308 0.930 . S
H296 C309 0.930 . S
H297 C313 0.959 . S
H298 C313 0.959 . S
H299 C313 0.961 . S
H300 C314 0.960 . S
H301 C314 0.961 . S
H302 C314 0.959 . S
H303 C317 0.929 1_655 S
H304 C318 0.931 . S
H305 C320 0.930 . S
C306 H294 0.931 . S
C306 C307 1.399 . S
C306 C311 1.399 . S
C307 C306 1.399 . S
C307 C308 1.376 . S
C308 H295 0.930 . S
C308 C307 1.376 . S
C308 C309 1.388 . S
C309 H296 0.930 . S
C309 C308 1.388 . S
C309 C310 1.390 . S
C310 C309 1.390 . S
C310 C311 1.394 . S
C310 C316 1.465 . S
C311 C306 1.399 . S
C311 C310 1.394 . S
C311 C312 1.516 . S
C312 C311 1.516 . S
C312 C313 1.502 . S
C312 C314 1.561 . S
C312 C315 1.526 . S
C313 H297 0.959 . S
C313 H298 0.959 . S
C313 H299 0.961 . S
C313 C312 1.502 . S
C314 H300 0.960 . S
C314 H301 0.961 . S
C314 H302 0.959 . S
C314 C312 1.561 . S
C315 C312 1.526 . S
C315 C316 1.396 . S
C315 C320 1.390 1_655 S
C316 C310 1.465 . S
C316 C315 1.396 . S
C316 C317 1.399 1_655 S
C317 H303 0.929 1_455 S
C317 C316 1.399 1_455 S
C317 C318 1.385 . S
C318 H304 0.931 . S
C318 C317 1.385 . S
C318 C319 1.389 . S
C319 C318 1.389 . S
C319 C320 1.387 . S
C320 H305 0.930 . S
C320 C315 1.390 1_455 S
C320 C319 1.387 . S
H321 C333 0.930 . S
H322 C335 0.930 . S
H323 C336 0.930 . S
H324 C340 0.959 . S
H325 C340 0.959 . S
H326 C340 0.961 . S
H327 C341 0.960 . S
H328 C341 0.961 . S
H329 C341 0.959 . S
H330 C344 0.929 1_565 S
H331 C345 0.931 . S
H332 C347 0.930 . S
C333 H321 0.930 . S
C333 C334 1.399 . S
C333 C338 1.399 . S
C334 C333 1.399 . S
C334 C335 1.376 . S
C335 H322 0.930 . S
C335 C334 1.376 . S
C335 C336 1.388 . S
C336 H323 0.930 . S
C336 C335 1.388 . S
C336 C337 1.390 . S
C337 C336 1.390 . S
C337 C338 1.394 . S
C337 C343 1.465 . S
C338 C333 1.399 . S
C338 C337 1.394 . S
C338 C339 1.516 . S
C339 C338 1.516 . S
C339 C340 1.502 . S
C339 C341 1.561 . S
C339 C342 1.526 . S
C340 H324 0.959 . S
C340 H325 0.959 . S
C340 H326 0.961 . S
C340 C339 1.502 . S
C341 H327 0.960 . S
C341 H328 0.961 . S
C341 H329 0.959 . S
C341 C339 1.561 . S
C342 C339 1.526 . S
C342 C343 1.396 . S
C342 C347 1.390 1_565 S
C343 C337 1.465 . S
C343 C342 1.396 . S
C343 C344 1.399 1_565 S
C344 H330 0.929 1_545 S
C344 C343 1.399 1_545 S
C344 C345 1.385 . S
C345 H331 0.931 . S
C345 C344 1.385 . S
C345 C346 1.389 . S
C346 C345 1.389 . S
C346 C347 1.387 . S
C347 H332 0.930 . S
C347 C342 1.390 1_545 S
C347 C346 1.387 . S
H348 C360 0.930 . S
H349 C362 0.930 . S
H350 C363 0.930 . S
H351 C367 0.959 . S
H352 C367 0.959 . S
H353 C367 0.961 . S
H354 C368 0.960 . S
H355 C368 0.961 . S
H356 C368 0.959 . S
H357 C371 0.929 . S
H358 C372 0.931 . S
H359 C374 0.930 . S
C360 H348 0.930 . S
C360 C361 1.399 . S
C360 C365 1.399 . S
C361 C360 1.399 . S
C361 C362 1.376 . S
C362 H349 0.930 . S
C362 C361 1.376 . S
C362 C363 1.388 . S
C363 H350 0.930 . S
C363 C362 1.388 . S
C363 C364 1.390 . S
C364 C363 1.390 . S
C364 C365 1.394 . S
C364 C370 1.465 . S
C365 C360 1.399 . S
C365 C364 1.394 . S
C365 C366 1.516 . S
C366 C365 1.516 . S
C366 C367 1.502 . S
C366 C368 1.561 . S
C366 C369 1.526 . S
C367 H351 0.959 . S
C367 H352 0.959 . S
C367 H353 0.961 . S
C367 C366 1.502 . S
C368 H354 0.960 . S
C368 H355 0.961 . S
C368 H356 0.959 . S
C368 C366 1.561 . S
C369 C366 1.526 . S
C369 C370 1.396 . S
C369 C374 1.390 . S
C370 C364 1.465 . S
C370 C369 1.396 . S
C370 C371 1.399 . S
C371 H357 0.929 . S
C371 C370 1.399 . S
C371 C372 1.385 . S
C372 H358 0.931 . S
C372 C371 1.385 . S
C372 C373 1.389 . S
C373 C372 1.389 . S
C373 C374 1.387 . S
C374 H359 0.930 . S
C374 C369 1.390 . S
C374 C373 1.387 . S
H375 C387 0.930 . S
H376 C389 0.930 . S
H377 C390 0.930 . S
H378 C394 0.959 . S
H379 C394 0.959 . S
H380 C394 0.961 . S
H381 C395 0.960 . S
H382 C395 0.961 . S
H383 C395 0.959 . S
H384 C398 0.929 . S
H385 C399 0.931 . S
H386 C401 0.930 . S
C387 H375 0.930 . S
C387 C388 1.399 . S
C387 C392 1.399 1_655 S
C388 C387 1.399 . S
C388 C389 1.376 . S
C389 H376 0.930 . S
C389 C388 1.376 . S
C389 C390 1.388 . S
C390 H377 0.930 . S
C390 C389 1.388 . S
C390 C391 1.390 1_655 S
C391 C390 1.390 1_455 S
C391 C392 1.394 . S
C391 C397 1.465 . S
C392 C387 1.399 1_455 S
C392 C391 1.394 . S
C392 C393 1.516 . S
C393 C392 1.516 . S
C393 C394 1.502 . S
C393 C395 1.561 . S
C393 C396 1.526 . S
C394 H378 0.959 . S
C394 H379 0.959 . S
C394 H380 0.961 . S
C394 C393 1.502 . S
C395 H381 0.960 . S
C395 H382 0.961 . S
C395 H383 0.959 . S
C395 C393 1.561 . S
C396 C393 1.526 . S
C396 C397 1.396 . S
C396 C401 1.390 . S
C397 C391 1.465 . S
C397 C396 1.396 . S
C397 C398 1.399 . S
C398 H384 0.929 . S
C398 C397 1.399 . S
C398 C399 1.385 . S
C399 H385 0.931 . S
C399 C398 1.385 . S
C399 C400 1.389 . S
C400 C399 1.389 . S
C400 C401 1.387 . S
C401 H386 0.930 . S
C401 C396 1.390 . S
C401 C400 1.387 . S
H402 C414 0.930 . S
H403 C416 0.930 . S
H404 C417 0.930 . S
H405 C421 0.959 . S
H406 C421 0.959 . S
H407 C421 0.961 . S
H408 C422 0.960 . S
H409 C422 0.961 . S
H410 C422 0.959 . S
H411 C425 0.929 . S
H412 C426 0.931 . S
H413 C428 0.930 . S
C414 H402 0.930 . S
C414 C415 1.399 . S
C414 C419 1.399 1_455 S
C415 C414 1.399 . S
C415 C416 1.376 . S
C416 H403 0.930 . S
C416 C415 1.376 . S
C416 C417 1.388 . S
C417 H404 0.930 . S
C417 C416 1.388 . S
C417 C418 1.390 1_455 S
C418 C417 1.390 1_655 S
C418 C419 1.394 . S
C418 C424 1.465 . S
C419 C414 1.399 1_655 S
C419 C418 1.394 . S
C419 C420 1.516 . S
C420 C419 1.516 . S
C420 C421 1.502 . S
C420 C422 1.561 . S
C420 C423 1.526 . S
C421 H405 0.959 . S
C421 H406 0.959 . S
C421 H407 0.961 . S
C421 C420 1.502 . S
C422 H408 0.960 . S
C422 H409 0.961 . S
C422 H410 0.959 . S
C422 C420 1.561 . S
C423 C420 1.526 . S
C423 C424 1.396 . S
C423 C428 1.390 . S
C424 C418 1.465 . S
C424 C423 1.396 . S
C424 C425 1.399 . S
C425 H411 0.929 . S
C425 C424 1.399 . S
C425 C426 1.385 . S
C426 H412 0.931 . S
C426 C425 1.385 . S
C426 C427 1.389 . S
C427 C426 1.389 . S
C427 C428 1.387 . S
C428 H413 0.930 . S
C428 C423 1.390 . S
C428 C427 1.387 . S
H429 C441 0.930 . S
H430 C443 0.930 . S
H431 C444 0.930 . S
H432 C448 0.959 . S
H433 C448 0.959 . S
H434 C448 0.961 . S
H435 C449 0.960 . S
H436 C449 0.961 . S
H437 C449 0.959 . S
H438 C452 0.929 . S
H439 C453 0.931 . S
H440 C455 0.930 . S
C441 H429 0.930 . S
C441 C442 1.399 . S
C441 C446 1.399 . S
C442 C441 1.399 . S
C442 C443 1.376 . S
C443 H430 0.930 . S
C443 C442 1.376 . S
C443 C444 1.388 . S
C444 H431 0.930 . S
C444 C443 1.388 . S
C444 C445 1.390 . S
C445 C444 1.390 . S
C445 C446 1.394 . S
C445 C451 1.465 . S
C446 C441 1.399 . S
C446 C445 1.394 . S
C446 C447 1.516 . S
C447 C446 1.516 . S
C447 C448 1.502 . S
C447 C449 1.561 . S
C447 C450 1.526 . S
C448 H432 0.959 . S
C448 H433 0.959 . S
C448 H434 0.961 . S
C448 C447 1.502 . S
C449 H435 0.960 . S
C449 H436 0.961 . S
C449 H437 0.959 . S
C449 C447 1.561 . S
C450 C447 1.526 . S
C450 C451 1.396 . S
C450 C455 1.390 1_565 S
C451 C445 1.465 . S
C451 C450 1.396 . S
C451 C452 1.399 1_565 S
C452 H438 0.929 . S
C452 C451 1.399 1_545 S
C452 C453 1.385 . S
C453 H439 0.931 . S
C453 C452 1.385 . S
C453 C454 1.389 . S
C454 C453 1.389 . S
C454 C455 1.387 . S
C455 H440 0.930 . S
C455 C450 1.390 1_545 S
C455 C454 1.387 . S
H456 C468 0.930 . S
H457 C470 0.930 . S
H458 C471 0.930 . S
H459 C475 0.959 . S
H460 C475 0.959 . S
H461 C475 0.961 . S
H462 C476 0.960 . S
H463 C476 0.961 . S
H464 C476 0.959 . S
H465 C479 0.929 . S
H466 C480 0.931 1_565 S
H467 C482 0.930 . S
C468 H456 0.930 . S
C468 C469 1.399 . S
C468 C473 1.399 . S
C469 C468 1.399 . S
C469 C470 1.376 . S
C470 H457 0.930 . S
C470 C469 1.376 . S
C470 C471 1.388 . S
C471 H458 0.930 . S
C471 C470 1.388 . S
C471 C472 1.390 . S
C472 C471 1.390 . S
C472 C473 1.394 . S
C472 C478 1.465 . S
C473 C468 1.399 . S
C473 C472 1.394 . S
C473 C474 1.516 . S
C474 C473 1.516 . S
C474 C475 1.502 . S
C474 C476 1.561 . S
C474 C477 1.526 . S
C475 H459 0.959 . S
C475 H460 0.959 . S
C475 H461 0.961 . S
C475 C474 1.502 . S
C476 H462 0.960 . S
C476 H463 0.961 . S
C476 H464 0.959 . S
C476 C474 1.561 . S
C477 C474 1.526 . S
C477 C478 1.396 . S
C477 C482 1.390 . S
C478 C472 1.465 . S
C478 C477 1.396 . S
C478 C479 1.399 . S
C479 H465 0.929 . S
C479 C478 1.399 . S
C479 C480 1.385 . S
C480 H466 0.931 1_545 S
C480 C479 1.385 . S
C480 C481 1.389 . S
C481 C480 1.389 . S
C481 C482 1.387 . S
C482 H467 0.930 . S
C482 C477 1.390 . S
C482 C481 1.387 . S
H483 C495 0.930 . S
H484 C497 0.930 . S
H485 C498 0.930 . S
H486 C502 0.959 . S
H487 C502 0.959 . S
H488 C502 0.961 . S
H489 C503 0.960 . S
H490 C503 0.961 . S
H491 C503 0.959 . S
H492 C506 0.929 . S
H493 C507 0.931 . S
H494 C509 0.930 . S
C495 H483 0.930 . S
C495 C496 1.399 . S
C495 C500 1.399 . S
C496 C495 1.399 . S
C496 C497 1.376 . S
C497 H484 0.930 . S
C497 C496 1.376 . S
C497 C498 1.388 . S
C498 H485 0.930 . S
C498 C497 1.388 . S
C498 C499 1.390 . S
C499 C498 1.390 . S
C499 C500 1.394 . S
C499 C505 1.465 . S
C500 C495 1.399 . S
C500 C499 1.394 . S
C500 C501 1.516 . S
C501 C500 1.516 . S
C501 C502 1.502 . S
C501 C503 1.561 . S
C501 C504 1.526 . S
C502 H486 0.959 . S
C502 H487 0.959 . S
C502 H488 0.961 . S
C502 C501 1.502 . S
C503 H489 0.960 . S
C503 H490 0.961 . S
C503 H491 0.959 . S
C503 C501 1.561 . S
C504 C501 1.526 . S
C504 C505 1.396 . S
C504 C509 1.390 1_455 S
C505 C499 1.465 . S
C505 C504 1.396 . S
C505 C506 1.399 1_455 S
C506 H492 0.929 . S
C506 C505 1.399 1_655 S
C506 C507 1.385 . S
C507 H493 0.931 . S
C507 C506 1.385 . S
C507 C508 1.389 . S
C508 C507 1.389 . S
C508 C509 1.387 . S
C509 H494 0.930 . S
C509 C504 1.390 1_655 S
C509 C508 1.387 . S
H510 C522 0.930 . S
H511 C524 0.930 1_455 S
H512 C525 0.930 . S
H513 C529 0.959 . S
H514 C529 0.959 . S
H515 C529 0.961 . S
H516 C530 0.960 . S
H517 C530 0.961 . S
H518 C530 0.959 . S
H519 C533 0.929 . S
H520 C534 0.931 . S
H521 C536 0.930 . S
C522 H510 0.930 . S
C522 C523 1.399 . S
C522 C527 1.399 . S
C523 C522 1.399 . S
C523 C524 1.376 . S
C524 H511 0.930 1_655 S
C524 C523 1.376 . S
C524 C525 1.388 . S
C525 H512 0.930 . S
C525 C524 1.388 . S
C525 C526 1.390 . S
C526 C525 1.390 . S
C526 C527 1.394 . S
C526 C532 1.465 . S
C527 C522 1.399 . S
C527 C526 1.394 . S
C527 C528 1.516 . S
C528 C527 1.516 . S
C528 C529 1.502 . S
C528 C530 1.561 . S
C528 C531 1.526 . S
C529 H513 0.959 . S
C529 H514 0.959 . S
C529 H515 0.961 . S
C529 C528 1.502 . S
C530 H516 0.960 . S
C530 H517 0.961 . S
C530 H518 0.959 . S
C530 C528 1.561 . S
C531 C528 1.526 . S
C531 C532 1.396 . S
C531 C536 1.390 1_545 S
C532 C526 1.465 . S
C532 C531 1.396 . S
C532 C533 1.399 1_545 S
C533 H519 0.929 . S
C533 C532 1.399 1_565 S
C533 C534 1.385 . S
C534 H520 0.931 . S
C534 C533 1.385 . S
C534 C535 1.389 . S
C535 C534 1.389 . S
C535 C536 1.387 . S
C536 H521 0.930 . S
C536 C531 1.390 1_565 S
C536 C535 1.387 . S
H537 C549 0.930 . S
H538 C551 0.930 . S
H539 C552 0.930 . S
H540 C556 0.959 . S
H541 C556 0.959 . S
H542 C556 0.961 . S
H543 C557 0.960 . S
H544 C557 0.961 . S
H545 C557 0.959 . S
H546 C560 0.929 . S
H547 C561 0.931 1_545 S
H548 C563 0.930 . S
C549 H537 0.930 . S
C549 C550 1.399 . S
C549 C554 1.399 . S
C550 C549 1.399 . S
C550 C551 1.376 . S
C551 H538 0.930 . S
C551 C550 1.376 . S
C551 C552 1.388 . S
C552 H539 0.930 . S
C552 C551 1.388 . S
C552 C553 1.390 . S
C553 C552 1.390 . S
C553 C554 1.394 . S
C553 C559 1.465 . S
C554 C549 1.399 . S
C554 C553 1.394 . S
C554 C555 1.516 . S
C555 C554 1.516 . S
C555 C556 1.502 . S
C555 C557 1.561 . S
C555 C558 1.526 . S
C556 H540 0.959 . S
C556 H541 0.959 . S
C556 H542 0.961 . S
C556 C555 1.502 . S
C557 H543 0.960 . S
C557 H544 0.961 . S
C557 H545 0.959 . S
C557 C555 1.561 . S
C558 C555 1.526 . S
C558 C559 1.396 . S
C558 C563 1.390 . S
C559 C553 1.465 . S
C559 C558 1.396 . S
C559 C560 1.399 . S
C560 H546 0.929 . S
C560 C559 1.399 . S
C560 C561 1.385 . S
C561 H547 0.931 1_565 S
C561 C560 1.385 . S
C561 C562 1.389 . S
C562 C561 1.389 . S
C562 C563 1.387 . S
C563 H548 0.930 . S
C563 C558 1.390 . S
C563 C562 1.387 . S
H564 C576 0.930 . S
H565 C578 0.930 . S
H566 C579 0.930 . S
H567 C583 0.959 . S
H568 C583 0.959 . S
H569 C583 0.961 . S
H570 C584 0.960 . S
H571 C584 0.961 . S
H572 C584 0.959 . S
H573 C587 0.929 . S
H574 C588 0.931 . S
H575 C590 0.930 . S
C576 H564 0.930 . S
C576 C577 1.399 . S
C576 C581 1.399 . S
C577 C576 1.399 . S
C577 C578 1.376 . S
C578 H565 0.930 . S
C578 C577 1.376 . S
C578 C579 1.388 . S
C579 H566 0.930 . S
C579 C578 1.388 . S
C579 C580 1.390 . S
C580 C579 1.390 . S
C580 C581 1.394 . S
C580 C586 1.465 . S
C581 C576 1.399 . S
C581 C580 1.394 . S
C581 C582 1.516 . S
C582 C581 1.516 . S
C582 C583 1.502 . S
C582 C584 1.561 . S
C582 C585 1.526 . S
C583 H567 0.959 . S
C583 H568 0.959 . S
C583 H569 0.961 . S
C583 C582 1.502 . S
C584 H570 0.960 . S
C584 H571 0.961 . S
C584 H572 0.959 . S
C584 C582 1.561 . S
C585 C582 1.526 . S
C585 C586 1.396 . S
C585 C590 1.390 . S
C586 C580 1.465 . S
C586 C585 1.396 . S
C586 C587 1.399 . S
C587 H573 0.929 . S
C587 C586 1.399 . S
C587 C588 1.385 . S
C588 H574 0.931 . S
C588 C587 1.385 . S
C588 C589 1.389 . S
C589 C588 1.389 . S
C589 C590 1.387 . S
C590 H575 0.930 . S
C590 C585 1.390 . S
C590 C589 1.387 . S
H591 C603 0.930 . S
H592 C605 0.930 . S
H593 C606 0.930 . S
H594 C610 0.959 . S
H595 C610 0.959 . S
H596 C610 0.961 . S
H597 C611 0.960 . S
H598 C611 0.961 . S
H599 C611 0.959 . S
H600 C614 0.929 . S
H601 C615 0.931 . S
H602 C617 0.930 . S
C603 H591 0.930 . S
C603 C604 1.399 . S
C603 C608 1.399 . S
C604 C603 1.399 . S
C604 C605 1.376 . S
C605 H592 0.930 . S
C605 C604 1.376 . S
C605 C606 1.388 . S
C606 H593 0.930 . S
C606 C605 1.388 . S
C606 C607 1.390 . S
C607 C606 1.390 . S
C607 C608 1.394 . S
C607 C613 1.465 . S
C608 C603 1.399 . S
C608 C607 1.394 . S
C608 C609 1.516 . S
C609 C608 1.516 . S
C609 C610 1.502 . S
C609 C611 1.561 . S
C609 C612 1.526 . S
C610 H594 0.959 . S
C610 H595 0.959 . S
C610 H596 0.961 . S
C610 C609 1.502 . S
C611 H597 0.960 . S
C611 H598 0.961 . S
C611 H599 0.959 . S
C611 C609 1.561 . S
C612 C609 1.526 . S
C612 C613 1.396 . S
C612 C617 1.390 . S
C613 C607 1.465 . S
C613 C612 1.396 . S
C613 C614 1.399 . S
C614 H600 0.929 . S
C614 C613 1.399 . S
C614 C615 1.385 . S
C615 H601 0.931 . S
C615 C614 1.385 . S
C615 C616 1.389 . S
C616 C615 1.389 . S
C616 C617 1.387 . S
C617 H602 0.930 . S
C617 C612 1.390 . S
C617 C616 1.387 . S
H618 C630 0.930 . S
H619 C632 0.930 . S
H620 C633 0.930 . S
H621 C637 0.959 . S
H622 C637 0.959 . S
H623 C637 0.961 . S
H624 C638 0.960 . S
H625 C638 0.961 . S
H626 C638 0.959 . S
H627 C641 0.929 . S
H628 C642 0.931 . S
H629 C644 0.930 . S
C630 H618 0.930 . S
C630 C631 1.399 . S
C630 C635 1.399 . S
C631 C630 1.399 . S
C631 C632 1.376 . S
C632 H619 0.930 . S
C632 C631 1.376 . S
C632 C633 1.388 . S
C633 H620 0.930 . S
C633 C632 1.388 . S
C633 C634 1.390 . S
C634 C633 1.390 . S
C634 C635 1.394 . S
C634 C640 1.465 . S
C635 C630 1.399 . S
C635 C634 1.394 . S
C635 C636 1.516 . S
C636 C635 1.516 . S
C636 C637 1.502 . S
C636 C638 1.561 . S
C636 C639 1.526 . S
C637 H621 0.959 . S
C637 H622 0.959 . S
C637 H623 0.961 . S
C637 C636 1.502 . S
C638 H624 0.960 . S
C638 H625 0.961 . S
C638 H626 0.959 . S
C638 C636 1.561 . S
C639 C636 1.526 . S
C639 C640 1.396 . S
C639 C644 1.390 . S
C640 C634 1.465 . S
C640 C639 1.396 . S
C640 C641 1.399 . S
C641 H627 0.929 . S
C641 C640 1.399 . S
C641 C642 1.385 . S
C642 H628 0.931 . S
C642 C641 1.385 . S
C642 C643 1.389 . S
C643 C642 1.389 . S
C643 C644 1.387 . S
C644 H629 0.930 . S
C644 C639 1.390 . S
C644 C643 1.387 . S
H645 C657 0.930 . S
H646 C659 0.930 . S
H647 C660 0.930 . S
H648 C664 0.959 . S
H649 C664 0.959 . S
H650 C664 0.961 . S
H651 C665 0.960 . S
H652 C665 0.961 . S
H653 C665 0.959 . S
H654 C668 0.929 . S
H655 C669 0.931 . S
H656 C671 0.930 . S
C657 H645 0.930 . S
C657 C658 1.399 . S
C657 C662 1.399 . S
C658 C657 1.399 . S
C658 C659 1.376 . S
C659 H646 0.930 . S
C659 C658 1.376 . S
C659 C660 1.388 . S
C660 H647 0.930 . S
C660 C659 1.388 . S
C660 C661 1.390 . S
C661 C660 1.390 . S
C661 C662 1.394 . S
C661 C667 1.465 . S
C662 C657 1.399 . S
C662 C661 1.394 . S
C662 C663 1.516 . S
C663 C662 1.516 . S
C663 C664 1.502 . S
C663 C665 1.561 . S
C663 C666 1.526 . S
C664 H648 0.959 . S
C664 H649 0.959 . S
C664 H650 0.961 . S
C664 C663 1.502 . S
C665 H651 0.960 . S
C665 H652 0.961 . S
C665 H653 0.959 . S
C665 C663 1.561 . S
C666 C663 1.526 . S
C666 C667 1.396 . S
C666 C671 1.390 . S
C667 C661 1.465 . S
C667 C666 1.396 . S
C667 C668 1.399 . S
C668 H654 0.929 . S
C668 C667 1.399 . S
C668 C669 1.385 . S
C669 H655 0.931 . S
C669 C668 1.385 . S
C669 C670 1.389 . S
C670 C669 1.389 . S
C670 C671 1.387 . S
C671 H656 0.930 . S
C671 C666 1.390 . S
C671 C670 1.387 . S
H672 C684 0.930 . S
H673 C686 0.930 . S
H674 C687 0.930 . S
H675 C691 0.959 . S
H676 C691 0.959 . S
H677 C691 0.961 . S
H678 C692 0.960 . S
H679 C692 0.961 . S
H680 C692 0.959 . S
H681 C695 0.929 . S
H682 C696 0.931 . S
H683 C698 0.930 . S
C684 H672 0.930 . S
C684 C685 1.399 . S
C684 C689 1.399 . S
C685 C684 1.399 . S
C685 C686 1.376 . S
C686 H673 0.930 . S
C686 C685 1.376 . S
C686 C687 1.388 . S
C687 H674 0.930 . S
C687 C686 1.388 . S
C687 C688 1.390 . S
C688 C687 1.390 . S
C688 C689 1.394 . S
C688 C694 1.465 . S
C689 C684 1.399 . S
C689 C688 1.394 . S
C689 C690 1.516 . S
C690 C689 1.516 . S
C690 C691 1.502 . S
C690 C692 1.561 . S
C690 C693 1.526 . S
C691 H675 0.959 . S
C691 H676 0.959 . S
C691 H677 0.961 . S
C691 C690 1.502 . S
C692 H678 0.960 . S
C692 H679 0.961 . S
C692 H680 0.959 . S
C692 C690 1.561 . S
C693 C690 1.526 . S
C693 C694 1.396 . S
C693 C698 1.390 . S
C694 C688 1.465 . S
C694 C693 1.396 . S
C694 C695 1.399 . S
C695 H681 0.929 . S
C695 C694 1.399 . S
C695 C696 1.385 . S
C696 H682 0.931 . S
C696 C695 1.385 . S
C696 C697 1.389 . S
C697 C696 1.389 . S
C697 C698 1.387 . S
C698 H683 0.930 . S
C698 C693 1.390 . S
C698 C697 1.387 . S
H699 C711 0.930 . S
H700 C713 0.930 . S
H701 C714 0.930 . S
H702 C718 0.959 . S
H703 C718 0.959 . S
H704 C718 0.961 . S
H705 C719 0.960 . S
H706 C719 0.961 . S
H707 C719 0.959 . S
H708 C722 0.929 . S
H709 C723 0.931 . S
H710 C725 0.930 . S
C711 H699 0.930 . S
C711 C712 1.399 . S
C711 C716 1.399 . S
C712 C711 1.399 . S
C712 C713 1.376 . S
C713 H700 0.930 . S
C713 C712 1.376 . S
C713 C714 1.388 . S
C714 H701 0.930 . S
C714 C713 1.388 . S
C714 C715 1.390 . S
C715 C714 1.390 . S
C715 C716 1.394 . S
C715 C721 1.465 . S
C716 C711 1.399 . S
C716 C715 1.394 . S
C716 C717 1.516 . S
C717 C716 1.516 . S
C717 C718 1.502 . S
C717 C719 1.561 . S
C717 C720 1.526 . S
C718 H702 0.959 . S
C718 H703 0.959 . S
C718 H704 0.961 . S
C718 C717 1.502 . S
C719 H705 0.960 . S
C719 H706 0.961 . S
C719 H707 0.959 . S
C719 C717 1.561 . S
C720 C717 1.526 . S
C720 C721 1.396 . S
C720 C725 1.390 . S
C721 C715 1.465 . S
C721 C720 1.396 . S
C721 C722 1.399 . S
C722 H708 0.929 . S
C722 C721 1.399 . S
C722 C723 1.385 . S
C723 H709 0.931 . S
C723 C722 1.385 . S
C723 C724 1.389 . S
C724 C723 1.389 . S
C724 C725 1.387 . S
C725 H710 0.930 . S
C725 C720 1.390 . S
C725 C724 1.387 . S
H726 C738 0.930 . S
H727 C740 0.930 . S
H728 C741 0.930 . S
H729 C745 0.959 . S
H730 C745 0.959 . S
H731 C745 0.961 . S
H732 C746 0.960 . S
H733 C746 0.961 . S
H734 C746 0.959 . S
H735 C749 0.929 . S
H736 C750 0.931 . S
H737 C752 0.930 . S
C738 H726 0.930 . S
C738 C739 1.399 . S
C738 C743 1.399 . S
C739 C738 1.399 . S
C739 C740 1.376 . S
C740 H727 0.930 . S
C740 C739 1.376 . S
C740 C741 1.388 . S
C741 H728 0.930 . S
C741 C740 1.388 . S
C741 C742 1.390 . S
C742 C741 1.390 . S
C742 C743 1.394 . S
C742 C748 1.465 . S
C743 C738 1.399 . S
C743 C742 1.394 . S
C743 C744 1.516 . S
C744 C743 1.516 . S
C744 C745 1.502 . S
C744 C746 1.561 . S
C744 C747 1.526 . S
C745 H729 0.959 . S
C745 H730 0.959 . S
C745 H731 0.961 . S
C745 C744 1.502 . S
C746 H732 0.960 . S
C746 H733 0.961 . S
C746 H734 0.959 . S
C746 C744 1.561 . S
C747 C744 1.526 . S
C747 C748 1.396 . S
C747 C752 1.390 . S
C748 C742 1.465 . S
C748 C747 1.396 . S
C748 C749 1.399 . S
C749 H735 0.929 . S
C749 C748 1.399 . S
C749 C750 1.385 . S
C750 H736 0.931 . S
C750 C749 1.385 . S
C750 C751 1.389 . S
C751 C750 1.389 . S
C751 C752 1.387 . S
C752 H737 0.930 . S
C752 C747 1.390 . S
C752 C751 1.387 . S
H753 C765 0.930 . S
H754 C767 0.930 . S
H755 C768 0.930 . S
H756 C772 0.959 . S
H757 C772 0.959 . S
H758 C772 0.961 . S
H759 C773 0.960 . S
H760 C773 0.961 . S
H761 C773 0.959 . S
H762 C776 0.929 . S
H763 C777 0.931 . S
H764 C779 0.930 . S
C765 H753 0.930 . S
C765 C766 1.399 . S
C765 C770 1.399 . S
C766 C765 1.399 . S
C766 C767 1.376 . S
C767 H754 0.930 . S
C767 C766 1.376 . S
C767 C768 1.388 . S
C768 H755 0.930 . S
C768 C767 1.388 . S
C768 C769 1.390 . S
C769 C768 1.390 . S
C769 C770 1.394 . S
C769 C775 1.465 . S
C770 C765 1.399 . S
C770 C769 1.394 . S
C770 C771 1.516 . S
C771 C770 1.516 . S
C771 C772 1.502 . S
C771 C773 1.561 . S
C771 C774 1.526 . S
C772 H756 0.959 . S
C772 H757 0.959 . S
C772 H758 0.961 . S
C772 C771 1.502 . S
C773 H759 0.960 . S
C773 H760 0.961 . S
C773 H761 0.959 . S
C773 C771 1.561 . S
C774 C771 1.526 . S
C774 C775 1.396 . S
C774 C779 1.390 . S
C775 C769 1.465 . S
C775 C774 1.396 . S
C775 C776 1.399 . S
C776 H762 0.929 . S
C776 C775 1.399 . S
C776 C777 1.385 . S
C777 H763 0.931 . S
C777 C776 1.385 . S
C777 C778 1.389 . S
C778 C777 1.389 . S
C778 C779 1.387 . S
C779 H764 0.930 . S
C779 C774 1.390 . S
C779 C778 1.387 . S
H780 C792 0.930 . S
H781 C794 0.930 . S
H782 C795 0.930 . S
H783 C799 0.959 . S
H784 C799 0.959 . S
H785 C799 0.961 . S
H786 C800 0.960 . S
H787 C800 0.961 . S
H788 C800 0.959 . S
H789 C803 0.929 . S
H790 C804 0.931 . S
H791 C806 0.930 . S
C792 H780 0.930 . S
C792 C793 1.399 . S
C792 C797 1.399 . S
C793 C792 1.399 . S
C793 C794 1.376 . S
C794 H781 0.930 . S
C794 C793 1.376 . S
C794 C795 1.388 . S
C795 H782 0.930 . S
C795 C794 1.388 . S
C795 C796 1.390 . S
C796 C795 1.390 . S
C796 C797 1.394 . S
C796 C802 1.465 . S
C797 C792 1.399 . S
C797 C796 1.394 . S
C797 C798 1.516 . S
C798 C797 1.516 . S
C798 C799 1.502 . S
C798 C800 1.561 . S
C798 C801 1.526 . S
C799 H783 0.959 . S
C799 H784 0.959 . S
C799 H785 0.961 . S
C799 C798 1.502 . S
C800 H786 0.960 . S
C800 H787 0.961 . S
C800 H788 0.959 . S
C800 C798 1.561 . S
C801 C798 1.526 . S
C801 C802 1.396 . S
C801 C806 1.390 . S
C802 C796 1.465 . S
C802 C801 1.396 . S
C802 C803 1.399 . S
C803 H789 0.929 . S
C803 C802 1.399 . S
C803 C804 1.385 . S
C804 H790 0.931 . S
C804 C803 1.385 . S
C804 C805 1.389 . S
C805 C804 1.389 . S
C805 C806 1.387 . S
C806 H791 0.930 . S
C806 C801 1.390 . S
C806 C805 1.387 . S
H807 C819 0.930 . S
H808 C821 0.930 . S
H809 C822 0.930 . S
H810 C826 0.959 . S
H811 C826 0.959 . S
H812 C826 0.961 . S
H813 C827 0.960 . S
H814 C827 0.961 . S
H815 C827 0.959 . S
H816 C830 0.929 . S
H817 C831 0.931 . S
H818 C833 0.930 . S
C819 H807 0.930 . S
C819 C820 1.399 . S
C819 C824 1.399 . S
C820 C819 1.399 . S
C820 C821 1.376 . S
C821 H808 0.930 . S
C821 C820 1.376 . S
C821 C822 1.388 . S
C822 H809 0.930 . S
C822 C821 1.388 . S
C822 C823 1.390 . S
C823 C822 1.390 . S
C823 C824 1.394 . S
C823 C829 1.465 . S
C824 C819 1.399 . S
C824 C823 1.394 . S
C824 C825 1.516 . S
C825 C824 1.516 . S
C825 C826 1.502 . S
C825 C827 1.561 . S
C825 C828 1.526 . S
C826 H810 0.959 . S
C826 H811 0.959 . S
C826 H812 0.961 . S
C826 C825 1.502 . S
C827 H813 0.960 . S
C827 H814 0.961 . S
C827 H815 0.959 . S
C827 C825 1.561 . S
C828 C825 1.526 . S
C828 C829 1.396 . S
C828 C833 1.390 . S
C829 C823 1.465 . S
C829 C828 1.396 . S
C829 C830 1.399 . S
C830 H816 0.929 . S
C830 C829 1.399 . S
C830 C831 1.385 . S
C831 H817 0.931 . S
C831 C830 1.385 . S
C831 C832 1.389 . S
C832 C831 1.389 . S
C832 C833 1.387 . S
C833 H818 0.930 . S
C833 C828 1.390 . S
C833 C832 1.387 . S
H834 C846 0.930 . S
H835 C848 0.930 . S
H836 C849 0.930 . S
H837 C853 0.959 . S
H838 C853 0.959 . S
H839 C853 0.961 . S
H840 C854 0.960 . S
H841 C854 0.961 . S
H842 C854 0.959 . S
H843 C857 0.929 . S
H844 C858 0.931 . S
H845 C860 0.930 . S
C846 H834 0.930 . S
C846 C847 1.399 . S
C846 C851 1.399 . S
C847 C846 1.399 . S
C847 C848 1.376 . S
C848 H835 0.930 . S
C848 C847 1.376 . S
C848 C849 1.388 . S
C849 H836 0.930 . S
C849 C848 1.388 . S
C849 C850 1.390 . S
C850 C849 1.390 . S
C850 C851 1.394 . S
C850 C856 1.465 . S
C851 C846 1.399 . S
C851 C850 1.394 . S
C851 C852 1.516 . S
C852 C851 1.516 . S
C852 C853 1.502 . S
C852 C854 1.561 . S
C852 C855 1.526 . S
C853 H837 0.959 . S
C853 H838 0.959 . S
C853 H839 0.961 . S
C853 C852 1.502 . S
C854 H840 0.960 . S
C854 H841 0.961 . S
C854 H842 0.959 . S
C854 C852 1.561 . S
C855 C852 1.526 . S
C855 C856 1.396 . S
C855 C860 1.390 . S
C856 C850 1.465 . S
C856 C855 1.396 . S
C856 C857 1.399 . S
C857 H843 0.929 . S
C857 C856 1.399 . S
C857 C858 1.385 . S
C858 H844 0.931 . S
C858 C857 1.385 . S
C858 C859 1.389 . S
C859 C858 1.389 . S
C859 C860 1.387 . S
C860 H845 0.930 . S
C860 C855 1.390 . S
C860 C859 1.387 . S
H861 C873 0.930 . S
H862 C875 0.930 . S
H863 C876 0.930 . S
H864 C880 0.959 . S
H865 C880 0.959 . S
H866 C880 0.961 . S
H867 C881 0.960 . S
H868 C881 0.961 . S
H869 C881 0.959 . S
H870 C884 0.929 . S
H871 C885 0.931 . S
H872 C887 0.930 . S
C873 H861 0.930 . S
C873 C874 1.399 . S
C873 C878 1.399 . S
C874 C873 1.399 . S
C874 C875 1.376 . S
C875 H862 0.930 . S
C875 C874 1.376 . S
C875 C876 1.388 . S
C876 H863 0.930 . S
C876 C875 1.388 . S
C876 C877 1.390 . S
C877 C876 1.390 . S
C877 C878 1.394 . S
C877 C883 1.465 . S
C878 C873 1.399 . S
C878 C877 1.394 . S
C878 C879 1.516 . S
C879 C878 1.516 . S
C879 C880 1.502 . S
C879 C881 1.561 . S
C879 C882 1.526 . S
C880 H864 0.959 . S
C880 H865 0.959 . S
C880 H866 0.961 . S
C880 C879 1.502 . S
C881 H867 0.960 . S
C881 H868 0.961 . S
C881 H869 0.959 . S
C881 C879 1.561 . S
C882 C879 1.526 . S
C882 C883 1.396 . S
C882 C887 1.390 . S
C883 C877 1.465 . S
C883 C882 1.396 . S
C883 C884 1.399 . S
C884 H870 0.929 . S
C884 C883 1.399 . S
C884 C885 1.385 . S
C885 H871 0.931 . S
C885 C884 1.385 . S
C885 C886 1.389 . S
C886 C885 1.389 . S
C886 C887 1.387 . S
C887 H872 0.930 . S
C887 C882 1.390 . S
C887 C886 1.387 . S
H888 C900 0.930 . S
H889 C902 0.930 . S
H890 C903 0.930 . S
H891 C907 0.959 . S
H892 C907 0.959 . S
H893 C907 0.961 . S
H894 C908 0.960 . S
H895 C908 0.961 . S
H896 C908 0.959 . S
H897 C911 0.929 . S
H898 C912 0.931 . S
H899 C914 0.930 . S
C900 H888 0.930 . S
C900 C901 1.399 . S
C900 C905 1.399 . S
C901 C900 1.399 . S
C901 C902 1.376 . S
C902 H889 0.930 . S
C902 C901 1.376 . S
C902 C903 1.388 . S
C903 H890 0.930 . S
C903 C902 1.388 . S
C903 C904 1.390 . S
C904 C903 1.390 . S
C904 C905 1.394 . S
C904 C910 1.465 . S
C905 C900 1.399 . S
C905 C904 1.394 . S
C905 C906 1.516 . S
C906 C905 1.516 . S
C906 C907 1.502 . S
C906 C908 1.561 . S
C906 C909 1.526 . S
C907 H891 0.959 . S
C907 H892 0.959 . S
C907 H893 0.961 . S
C907 C906 1.502 . S
C908 H894 0.960 . S
C908 H895 0.961 . S
C908 H896 0.959 . S
C908 C906 1.561 . S
C909 C906 1.526 . S
C909 C910 1.396 . S
C909 C914 1.390 . S
C910 C904 1.465 . S
C910 C909 1.396 . S
C910 C911 1.399 . S
C911 H897 0.929 . S
C911 C910 1.399 . S
C911 C912 1.385 . S
C912 H898 0.931 . S
C912 C911 1.385 . S
C912 C913 1.389 . S
C913 C912 1.389 . S
C913 C914 1.387 . S
C914 H899 0.930 . S
C914 C909 1.390 . S
C914 C913 1.387 . S
H915 C927 0.930 . S
H916 C929 0.930 . S
H917 C930 0.930 . S
H918 C934 0.959 . S
H919 C934 0.959 . S
H920 C934 0.961 . S
H921 C935 0.960 . S
H922 C935 0.961 . S
H923 C935 0.959 . S
H924 C938 0.929 . S
H925 C939 0.931 . S
H926 C941 0.930 . S
C927 H915 0.930 . S
C927 C928 1.399 . S
C927 C932 1.399 . S
C928 C927 1.399 . S
C928 C929 1.376 . S
C929 H916 0.930 . S
C929 C928 1.376 . S
C929 C930 1.388 . S
C930 H917 0.930 . S
C930 C929 1.388 . S
C930 C931 1.390 . S
C931 C930 1.390 . S
C931 C932 1.394 . S
C931 C937 1.465 . S
C932 C927 1.399 . S
C932 C931 1.394 . S
C932 C933 1.516 . S
C933 C932 1.516 . S
C933 C934 1.502 . S
C933 C935 1.561 . S
C933 C936 1.526 . S
C934 H918 0.959 . S
C934 H919 0.959 . S
C934 H920 0.961 . S
C934 C933 1.502 . S
C935 H921 0.960 . S
C935 H922 0.961 . S
C935 H923 0.959 . S
C935 C933 1.561 . S
C936 C933 1.526 . S
C936 C937 1.396 . S
C936 C941 1.390 . S
C937 C931 1.465 . S
C937 C936 1.396 . S
C937 C938 1.399 . S
C938 H924 0.929 . S
C938 C937 1.399 . S
C938 C939 1.385 . S
C939 H925 0.931 . S
C939 C938 1.385 . S
C939 C940 1.389 . S
C940 C939 1.389 . S
C940 C941 1.387 . S
C941 H926 0.930 . S
C941 C936 1.390 . S
C941 C940 1.387 . S
H942 C954 0.930 . S
H943 C956 0.930 . S
H944 C957 0.930 . S
H945 C961 0.959 . S
H946 C961 0.959 . S
H947 C961 0.961 . S
H948 C962 0.960 . S
H949 C962 0.961 . S
H950 C962 0.959 . S
H951 C965 0.929 . S
H952 C966 0.931 . S
H953 C968 0.930 . S
C954 H942 0.930 . S
C954 C955 1.399 . S
C954 C959 1.399 . S
C955 C954 1.399 . S
C955 C956 1.376 . S
C956 H943 0.930 . S
C956 C955 1.376 . S
C956 C957 1.388 . S
C957 H944 0.930 . S
C957 C956 1.388 . S
C957 C958 1.390 . S
C958 C957 1.390 . S
C958 C959 1.394 . S
C958 C964 1.465 . S
C959 C954 1.399 . S
C959 C958 1.394 . S
C959 C960 1.516 . S
C960 C959 1.516 . S
C960 C961 1.502 . S
C960 C962 1.561 . S
C960 C963 1.526 . S
C961 H945 0.959 . S
C961 H946 0.959 . S
C961 H947 0.961 . S
C961 C960 1.502 . S
C962 H948 0.960 . S
C962 H949 0.961 . S
C962 H950 0.959 . S
C962 C960 1.561 . S
C963 C960 1.526 . S
C963 C964 1.396 . S
C963 C968 1.390 . S
C964 C958 1.465 . S
C964 C963 1.396 . S
C964 C965 1.399 . S
C965 H951 0.929 . S
C965 C964 1.399 . S
C965 C966 1.385 . S
C966 H952 0.931 . S
C966 C965 1.385 . S
C966 C967 1.389 . S
C967 C966 1.389 . S
C967 C968 1.387 . S
C968 H953 0.930 . S
C968 C963 1.390 . S
C968 C967 1.387 . S
H969 C981 0.930 . S
H970 C983 0.930 . S
H971 C984 0.930 . S
H972 C988 0.959 . S
H973 C988 0.959 . S
H974 C988 0.961 . S
H975 C989 0.960 . S
H976 C989 0.961 . S
H977 C989 0.959 . S
H978 C992 0.929 . S
H979 C993 0.931 . S
H980 C995 0.930 . S
C981 H969 0.930 . S
C981 C982 1.399 . S
C981 C986 1.399 . S
C982 C981 1.399 . S
C982 C983 1.376 . S
C983 H970 0.930 . S
C983 C982 1.376 . S
C983 C984 1.388 . S
C984 H971 0.930 . S
C984 C983 1.388 . S
C984 C985 1.390 . S
C985 C984 1.390 . S
C985 C986 1.394 . S
C985 C991 1.465 . S
C986 C981 1.399 . S
C986 C985 1.394 . S
C986 C987 1.516 . S
C987 C986 1.516 . S
C987 C988 1.502 . S
C987 C989 1.561 . S
C987 C990 1.526 . S
C988 H972 0.959 . S
C988 H973 0.959 . S
C988 H974 0.961 . S
C988 C987 1.502 . S
C989 H975 0.960 . S
C989 H976 0.961 . S
C989 H977 0.959 . S
C989 C987 1.561 . S
C990 C987 1.526 . S
C990 C991 1.396 . S
C990 C995 1.390 . S
C991 C985 1.465 . S
C991 C990 1.396 . S
C991 C992 1.399 . S
C992 H978 0.929 . S
C992 C991 1.399 . S
C992 C993 1.385 . S
C993 H979 0.931 . S
C993 C992 1.385 . S
C993 C994 1.389 . S
C994 C993 1.389 . S
C994 C995 1.387 . S
C995 H980 0.930 . S
C995 C990 1.390 . S
C995 C994 1.387 . S
H996 C1008 0.930 . S
H997 C1010 0.930 . S
H998 C1011 0.930 . S
H999 C1015 0.959 . S
H1000 C1015 0.959 . S
H1001 C1015 0.961 . S
H1002 C1016 0.960 . S
H1003 C1016 0.961 . S
H1004 C1016 0.959 . S
H1005 C1019 0.929 . S
H1006 C1020 0.931 . S
H1007 C1022 0.930 . S
C1008 H996 0.930 . S
C1008 C1009 1.399 . S
C1008 C1013 1.399 . S
C1009 C1008 1.399 . S
C1009 C1010 1.376 . S
C1010 H997 0.930 . S
C1010 C1009 1.376 . S
C1010 C1011 1.388 . S
C1011 H998 0.930 . S
C1011 C1010 1.388 . S
C1011 C1012 1.390 . S
C1012 C1011 1.390 . S
C1012 C1013 1.394 . S
C1012 C1018 1.465 . S
C1013 C1008 1.399 . S
C1013 C1012 1.394 . S
C1013 C1014 1.516 . S
C1014 C1013 1.516 . S
C1014 C1015 1.502 . S
C1014 C1016 1.561 . S
C1014 C1017 1.526 . S
C1015 H999 0.959 . S
C1015 H1000 0.959 . S
C1015 H1001 0.961 . S
C1015 C1014 1.502 . S
C1016 H1002 0.960 . S
C1016 H1003 0.961 . S
C1016 H1004 0.959 . S
C1016 C1014 1.561 . S
C1017 C1014 1.526 . S
C1017 C1018 1.396 . S
C1017 C1022 1.390 . S
C1018 C1012 1.465 . S
C1018 C1017 1.396 . S
C1018 C1019 1.399 . S
C1019 H1005 0.929 . S
C1019 C1018 1.399 . S
C1019 C1020 1.385 . S
C1020 H1006 0.931 . S
C1020 C1019 1.385 . S
C1020 C1021 1.389 . S
C1021 C1020 1.389 . S
C1021 C1022 1.387 . S
C1022 H1007 0.930 . S
C1022 C1017 1.390 . S
C1022 C1021 1.387 . S
H1023 C1035 0.930 . S
H1024 C1037 0.930 . S
H1025 C1038 0.930 . S
H1026 C1042 0.959 . S
H1027 C1042 0.959 . S
H1028 C1042 0.961 . S
H1029 C1043 0.960 . S
H1030 C1043 0.961 . S
H1031 C1043 0.959 . S
H1032 C1046 0.929 . S
H1033 C1047 0.931 . S
H1034 C1049 0.930 . S
C1035 H1023 0.930 . S
C1035 C1036 1.399 . S
C1035 C1040 1.399 . S
C1036 C1035 1.399 . S
C1036 C1037 1.376 . S
C1037 H1024 0.930 . S
C1037 C1036 1.376 . S
C1037 C1038 1.388 . S
C1038 H1025 0.930 . S
C1038 C1037 1.388 . S
C1038 C1039 1.390 . S
C1039 C1038 1.390 . S
C1039 C1040 1.394 . S
C1039 C1045 1.465 . S
C1040 C1035 1.399 . S
C1040 C1039 1.394 . S
C1040 C1041 1.516 . S
C1041 C1040 1.516 . S
C1041 C1042 1.502 . S
C1041 C1043 1.561 . S
C1041 C1044 1.526 . S
C1042 H1026 0.959 . S
C1042 H1027 0.959 . S
C1042 H1028 0.961 . S
C1042 C1041 1.502 . S
C1043 H1029 0.960 . S
C1043 H1030 0.961 . S
C1043 H1031 0.959 . S
C1043 C1041 1.561 . S
C1044 C1041 1.526 . S
C1044 C1045 1.396 . S
C1044 C1049 1.390 . S
C1045 C1039 1.465 . S
C1045 C1044 1.396 . S
C1045 C1046 1.399 . S
C1046 H1032 0.929 . S
C1046 C1045 1.399 . S
C1046 C1047 1.385 . S
C1047 H1033 0.931 . S
C1047 C1046 1.385 . S
C1047 C1048 1.389 . S
C1048 C1047 1.389 . S
C1048 C1049 1.387 . S
C1049 H1034 0.930 . S
C1049 C1044 1.390 . S
C1049 C1048 1.387 . S
H1050 C1062 0.930 . S
H1051 C1064 0.930 . S
H1052 C1065 0.930 . S
H1053 C1069 0.959 . S
H1054 C1069 0.959 . S
H1055 C1069 0.961 . S
H1056 C1070 0.960 . S
H1057 C1070 0.961 . S
H1058 C1070 0.959 1_554 S
H1059 C1073 0.929 . S
H1060 C1074 0.931 . S
H1061 C1076 0.930 . S
C1062 H1050 0.930 . S
C1062 C1063 1.399 . S
C1062 C1067 1.399 . S
C1063 C1062 1.399 . S
C1063 C1064 1.376 . S
C1064 H1051 0.930 . S
C1064 C1063 1.376 . S
C1064 C1065 1.388 1_556 S
C1065 H1052 0.930 . S
C1065 C1064 1.388 1_554 S
C1065 C1066 1.390 . S
C1066 C1065 1.390 . S
C1066 C1067 1.384 1_554 S
C1066 C1072 1.473 . S
C1067 C1062 1.399 . S
C1067 C1066 1.384 1_556 S
C1067 C1068 1.516 . S
C1068 C1067 1.516 . S
C1068 C1069 1.502 . S
C1068 C1070 1.561 . S
C1068 C1071 1.526 1_556 S
C1069 H1053 0.959 . S
C1069 H1054 0.959 . S
C1069 H1055 0.961 . S
C1069 C1068 1.502 . S
C1070 H1056 0.960 . S
C1070 H1057 0.961 . S
C1070 H1058 0.959 1_556 S
C1070 C1068 1.561 . S
C1071 C1068 1.526 1_554 S
C1071 C1072 1.396 . S
C1071 C1076 1.390 . S
C1072 C1066 1.473 . S
C1072 C1071 1.396 . S
C1072 C1073 1.399 . S
C1073 H1059 0.929 . S
C1073 C1072 1.399 . S
C1073 C1074 1.385 . S
C1074 H1060 0.931 . S
C1074 C1073 1.385 . S
C1074 C1075 1.389 . S
C1075 C1074 1.389 . S
C1075 C1076 1.387 . S
C1076 H1061 0.930 . S
C1076 C1071 1.390 . S
C1076 C1075 1.387 . S
H1077 C1089 0.930 . S
H1078 C1091 0.930 . S
H1079 C1092 0.930 . S
H1080 C1096 0.959 . S
H1081 C1096 0.959 . S
H1082 C1096 0.961 . S
H1083 C1097 0.960 . S
H1084 C1097 0.961 . S
H1085 C1097 0.959 . S
H1086 C1100 0.929 1_455 S
H1087 C1101 0.931 . S
H1088 C1103 0.930 . S
C1089 H1077 0.930 . S
C1089 C1090 1.399 . S
C1089 C1094 1.399 . S
C1090 C1089 1.399 . S
C1090 C1091 1.376 . S
C1091 H1078 0.930 . S
C1091 C1090 1.376 . S
C1091 C1092 1.388 . S
C1092 H1079 0.930 . S
C1092 C1091 1.388 . S
C1092 C1093 1.390 . S
C1093 C1092 1.390 . S
C1093 C1094 1.394 . S
C1093 C1099 1.465 1_455 S
C1094 C1089 1.399 . S
C1094 C1093 1.394 . S
C1094 C1095 1.516 1_455 S
C1095 C1094 1.516 1_655 S
C1095 C1096 1.502 . S
C1095 C1097 1.561 . S
C1095 C1098 1.526 . S
C1096 H1080 0.959 . S
C1096 H1081 0.959 . S
C1096 H1082 0.961 . S
C1096 C1095 1.502 . S
C1097 H1083 0.960 . S
C1097 H1084 0.961 . S
C1097 H1085 0.959 . S
C1097 C1095 1.561 . S
C1098 C1095 1.526 . S
C1098 C1099 1.396 . S
C1098 C1103 1.390 . S
C1099 C1093 1.465 1_655 S
C1099 C1098 1.396 . S
C1099 C1100 1.399 . S
C1100 H1086 0.929 1_655 S
C1100 C1099 1.399 . S
C1100 C1101 1.385 . S
C1101 H1087 0.931 . S
C1101 C1100 1.385 . S
C1101 C1102 1.389 . S
C1102 C1101 1.389 . S
C1102 C1103 1.387 . S
C1103 H1088 0.930 . S
C1103 C1098 1.390 . S
C1103 C1102 1.387 . S
H1104 C1116 0.930 . S
H1105 C1118 0.930 . S
H1106 C1119 0.930 1_545 S
H1107 C1123 0.959 . S
H1108 C1123 0.959 . S
H1109 C1123 0.961 . S
H1110 C1124 0.960 . S
H1111 C1124 0.961 . S
H1112 C1124 0.959 . S
H1113 C1127 0.929 . S
H1114 C1128 0.931 . S
H1115 C1130 0.930 . S
C1116 H1104 0.930 . S
C1116 C1117 1.399 . S
C1116 C1121 1.399 . S
C1117 C1116 1.399 . S
C1117 C1118 1.376 . S
C1118 H1105 0.930 . S
C1118 C1117 1.376 . S
C1118 C1119 1.388 . S
C1119 H1106 0.930 1_565 S
C1119 C1118 1.388 . S
C1119 C1120 1.390 . S
C1120 C1119 1.390 . S
C1120 C1121 1.394 . S
C1120 C1126 1.485 1_565 S
C1121 C1116 1.399 . S
C1121 C1120 1.394 . S
C1121 C1122 1.516 1_554 S
C1122 C1121 1.516 1_556 S
C1122 C1123 1.502 . S
C1122 C1124 1.561 . S
C1122 C1125 1.526 1_565 S
C1123 H1107 0.959 . S
C1123 H1108 0.959 . S
C1123 H1109 0.961 . S
C1123 C1122 1.502 . S
C1124 H1110 0.960 . S
C1124 H1111 0.961 . S
C1124 H1112 0.959 . S
C1124 C1122 1.561 . S
C1125 C1122 1.526 1_545 S
C1125 C1126 1.367 1_556 S
C1125 C1130 1.390 . S
C1126 C1120 1.485 1_545 S
C1126 C1125 1.367 1_554 S
C1126 C1127 1.404 . S
C1127 H1113 0.929 . S
C1127 C1126 1.404 . S
C1127 C1128 1.385 1_554 S
C1128 H1114 0.931 . S
C1128 C1127 1.385 1_556 S
C1128 C1129 1.389 . S
C1129 C1128 1.389 . S
C1129 C1130 1.387 . S
C1130 H1115 0.930 . S
C1130 C1125 1.390 . S
C1130 C1129 1.387 . S
H1131 C1143 0.930 . S
H1132 C1145 0.930 . S
H1133 C1146 0.930 . S
H1134 C1150 0.959 . S
H1135 C1150 0.959 . S
H1136 C1150 0.961 . S
H1137 C1151 0.960 . S
H1138 C1151 0.961 . S
H1139 C1151 0.959 . S
H1140 C1154 0.929 . S
H1141 C1155 0.931 . S
H1142 C1157 0.930 . S
C1143 H1131 0.930 . S
C1143 C1144 1.399 . S
C1143 C1148 1.399 . S
C1144 C1143 1.399 . S
C1144 C1145 1.376 . S
C1145 H1132 0.930 . S
C1145 C1144 1.376 . S
C1145 C1146 1.388 . S
C1146 H1133 0.930 . S
C1146 C1145 1.388 . S
C1146 C1147 1.390 . S
C1147 C1146 1.390 . S
C1147 C1148 1.394 . S
C1147 C1153 1.465 . S
C1148 C1143 1.399 . S
C1148 C1147 1.394 . S
C1148 C1149 1.516 . S
C1149 C1148 1.516 . S
C1149 C1150 1.502 . S
C1149 C1151 1.561 . S
C1149 C1152 1.526 . S
C1150 H1134 0.959 . S
C1150 H1135 0.959 . S
C1150 H1136 0.961 . S
C1150 C1149 1.502 . S
C1151 H1137 0.960 . S
C1151 H1138 0.961 . S
C1151 H1139 0.959 . S
C1151 C1149 1.561 . S
C1152 C1149 1.526 . S
C1152 C1153 1.396 . S
C1152 C1157 1.390 . S
C1153 C1147 1.465 . S
C1153 C1152 1.396 . S
C1153 C1154 1.399 . S
C1154 H1140 0.929 . S
C1154 C1153 1.399 . S
C1154 C1155 1.385 . S
C1155 H1141 0.931 . S
C1155 C1154 1.385 . S
C1155 C1156 1.389 . S
C1156 C1155 1.389 . S
C1156 C1157 1.387 . S
C1157 H1142 0.930 . S
C1157 C1152 1.390 . S
C1157 C1156 1.387 . S
H1158 C1170 0.930 . S
H1159 C1172 0.930 . S
H1160 C1173 0.930 1_455 S
H1161 C1177 0.959 . S
H1162 C1177 0.959 . S
H1163 C1177 0.961 . S
H1164 C1178 0.952 1_556 S
H1165 C1178 0.961 1_455 S
H1166 C1178 0.959 1_456 S
H1167 C1181 0.929 1_556 S
H1168 C1182 0.931 . S
H1169 C1184 0.930 . S
C1170 H1158 0.930 . S
C1170 C1171 1.399 . S
C1170 C1175 1.399 . S
C1171 C1170 1.399 . S
C1171 C1172 1.376 . S
C1172 H1159 0.930 . S
C1172 C1171 1.376 . S
C1172 C1173 1.388 . S
C1173 H1160 0.930 1_655 S
C1173 C1172 1.388 . S
C1173 C1174 1.390 . S
C1174 C1173 1.390 . S
C1174 C1175 1.394 . S
C1174 C1180 1.449 1_656 S
C1175 C1170 1.399 . S
C1175 C1174 1.394 . S
C1175 C1176 1.516 1_556 S
C1176 C1175 1.516 1_554 S
C1176 C1177 1.502 . S
C1176 C1178 1.561 . S
C1176 C1179 1.526 1_655 S
C1177 H1161 0.959 . S
C1177 H1162 0.959 . S
C1177 H1163 0.961 . S
C1177 C1176 1.502 . S
C1178 H1164 0.952 1_554 S
C1178 H1165 0.961 1_655 S
C1178 H1166 0.959 1_654 S
C1178 C1176 1.561 . S
C1179 C1176 1.526 1_455 S
C1179 C1180 1.414 . S
C1179 C1184 1.390 . S
C1180 C1174 1.449 1_454 S
C1180 C1179 1.414 . S
C1180 C1181 1.400 . S
C1181 H1167 0.929 1_554 S
C1181 C1180 1.400 . S
C1181 C1182 1.385 . S
C1182 H1168 0.931 . S
C1182 C1181 1.385 . S
C1182 C1183 1.389 . S
C1183 C1182 1.389 . S
C1183 C1184 1.387 . S
C1184 H1169 0.930 . S
C1184 C1179 1.390 . S
C1184 C1183 1.387 . S
H1185 C1197 0.930 . S
H1186 C1199 0.930 . S
H1187 C1200 0.930 . S
H1188 C1204 0.959 . S
H1189 C1204 0.959 . S
H1190 C1204 0.961 1_565 S
H1191 C1205 0.960 . S
H1192 C1205 0.961 . S
H1193 C1205 0.959 . S
H1194 C1208 0.929 . S
H1195 C1209 0.931 . S
H1196 C1211 0.930 . S
C1197 H1185 0.930 . S
C1197 C1198 1.399 . S
C1197 C1202 1.399 . S
C1198 C1197 1.399 . S
C1198 C1199 1.376 . S
C1199 H1186 0.930 . S
C1199 C1198 1.376 . S
C1199 C1200 1.388 . S
C1200 H1187 0.930 . S
C1200 C1199 1.388 . S
C1200 C1201 1.390 . S
C1201 C1200 1.390 . S
C1201 C1202 1.394 . S
C1201 C1207 1.465 1_565 S
C1202 C1197 1.399 . S
C1202 C1201 1.394 . S
C1202 C1203 1.516 . S
C1203 C1202 1.516 . S
C1203 C1204 1.502 1_565 S
C1203 C1205 1.561 . S
C1203 C1206 1.526 1_565 S
C1204 H1188 0.959 . S
C1204 H1189 0.959 . S
C1204 H1190 0.961 1_545 S
C1204 C1203 1.502 1_545 S
C1205 H1191 0.960 . S
C1205 H1192 0.961 . S
C1205 H1193 0.959 . S
C1205 C1203 1.561 . S
C1206 C1203 1.526 1_545 S
C1206 C1207 1.396 . S
C1206 C1211 1.390 . S
C1207 C1201 1.465 1_545 S
C1207 C1206 1.396 . S
C1207 C1208 1.399 . S
C1208 H1194 0.929 . S
C1208 C1207 1.399 . S
C1208 C1209 1.385 . S
C1209 H1195 0.931 . S
C1209 C1208 1.385 . S
C1209 C1210 1.389 . S
C1210 C1209 1.389 . S
C1210 C1211 1.387 . S
C1211 H1196 0.930 . S
C1211 C1206 1.390 . S
C1211 C1210 1.387 . S
C253 C88 1.748 . S
C265 C5 2.071 . S
C280 C108 1.804 . S
C292 C25 2.062 1_455 S
C307 C45 2.061 1_545 S
C319 C8 1.690 . S
C334 C65 2.061 . S
C346 C28 1.690 . S
C361 C85 2.065 1_655 S
C373 C48 1.701 . S
C388 C68 1.727 . S
C400 C105 2.070 1_565 S
C415 C168 1.804 . S
C427 C125 2.064 . S
C442 C145 2.062 1_455 S
C454 C188 1.692 . S
C469 C208 1.749 . S
C481 C165 2.071 1_545 S
C496 C185 2.070 . S
C508 C228 1.777 . S
C523 C205 2.069 1_655 S
C535 C128 1.727 . S
C550 C148 1.768 . S
C562 C225 2.053 1_565 S
C577 C94 1.846 . S
C589 C17 1.740 . S
C604 C37 1.807 . S
C616 C114 1.879 . S
C631 C57 1.735 . S
C643 C14 1.846 . S
C658 C77 1.763 . S
C670 C34 1.855 . S
C685 C54 1.869 . S
C697 C97 1.760 . S
C712 C74 1.846 . S
C724 C117 1.735 . S
C739 C174 1.846 . S
C751 C137 1.734 . S
C766 C157 1.794 . S
C778 C194 1.886 . S
C793 C177 1.806 . S
C805 C214 1.878 . S
C820 C234 1.862 . S
C832 C197 1.780 . S
C847 C217 1.745 . S
C859 C134 1.860 . S
C874 C154 1.845 . S
C886 C237 1.736 . S
C901 C202 1.816 . S
C913 C2 1.838 . S
C928 C22 1.832 . S
C940 C222 1.788 . S
C955 C42 1.776 . S
C967 C122 1.790 . S
C982 C62 1.802 . S
C994 C142 1.774 . S
C1009 C82 1.830 . S
C1021 C162 1.785 . S
C1036 C182 1.837 . S
C1048 C102 1.798 . S
C1063 C193 1.877 . S
C1075 C13 1.821 . S
C1090 C213 1.888 . S
C1102 C33 1.840 . S
C1117 C53 1.820 . S
C1129 C233 1.874 . S
C1144 C73 1.838 . S
C1156 C133 1.888 . S
C1171 C153 1.836 . S
C1183 C93 1.888 . S
C1198 C173 1.846 . S
C1210 C113 1.834 . S
