# Generated by pormake.
# Topology skb, (5)-cn, num edge types: 1
# Building blocks:
#     Node 0, Type 0, BuildingBlock: XOMCOT_clean_sbu_1, # of connection points: 5
#     Node 1, Type 0, BuildingBlock: XOMCOT_clean_sbu_1, # of connection points: 5
#     Node 2, Type 0, BuildingBlock: XOMCOT_clean_sbu_1, # of connection points: 5
#     Node 3, Type 0, BuildingBlock: XOMCOT_clean_sbu_1, # of connection points: 5
#     Node 4, Type 0, BuildingBlock: XOMCOT_clean_sbu_1, # of connection points: 5
#     Node 5, Type 0, BuildingBlock: XOMCOT_clean_sbu_1, # of connection points: 5
#     Node 6, Type 0, BuildingBlock: XOMCOT_clean_sbu_1, # of connection points: 5
#     Node 7, Type 0, BuildingBlock: XOMCOT_clean_sbu_1, # of connection points: 5
#     Node 8, Type 0, BuildingBlock: XOMCOT_clean_sbu_1, # of connection points: 5
#     Node 9, Type 0, BuildingBlock: XOMCOT_clean_sbu_1, # of connection points: 5
#     Node 10, Type 0, BuildingBlock: XOMCOT_clean_sbu_1, # of connection points: 5
#     Node 11, Type 0, BuildingBlock: XOMCOT_clean_sbu_1, # of connection points: 5
#     Node 12, Type 0, BuildingBlock: XOMCOT_clean_sbu_1, # of connection points: 5
#     Node 13, Type 0, BuildingBlock: XOMCOT_clean_sbu_1, # of connection points: 5
#     Node 14, Type 0, BuildingBlock: XOMCOT_clean_sbu_1, # of connection points: 5
#     Node 15, Type 0, BuildingBlock: XOMCOT_clean_sbu_1, # of connection points: 5
#     Edge 16, Type (0, 0), BuildingBlock: TEMPAE_clean_linker_10, # of connection points: 2
#     Edge 17, Type (0, 0), BuildingBlock: TEMPAE_clean_linker_10, # of connection points: 2
#     Edge 18, Type (0, 0), BuildingBlock: TEMPAE_clean_linker_10, # of connection points: 2
#     Edge 19, Type (0, 0), BuildingBlock: TEMPAE_clean_linker_10, # of connection points: 2
#     Edge 20, Type (0, 0), BuildingBlock: TEMPAE_clean_linker_10, # of connection points: 2
#     Edge 21, Type (0, 0), BuildingBlock: TEMPAE_clean_linker_10, # of connection points: 2
#     Edge 22, Type (0, 0), BuildingBlock: TEMPAE_clean_linker_10, # of connection points: 2
#     Edge 23, Type (0, 0), BuildingBlock: TEMPAE_clean_linker_10, # of connection points: 2
#     Edge 24, Type (0, 0), BuildingBlock: TEMPAE_clean_linker_10, # of connection points: 2
#     Edge 25, Type (0, 0), BuildingBlock: TEMPAE_clean_linker_10, # of connection points: 2
#     Edge 26, Type (0, 0), BuildingBlock: TEMPAE_clean_linker_10, # of connection points: 2
#     Edge 27, Type (0, 0), BuildingBlock: TEMPAE_clean_linker_10, # of connection points: 2
#     Edge 28, Type (0, 0), BuildingBlock: TEMPAE_clean_linker_10, # of connection points: 2
#     Edge 29, Type (0, 0), BuildingBlock: TEMPAE_clean_linker_10, # of connection points: 2
#     Edge 30, Type (0, 0), BuildingBlock: TEMPAE_clean_linker_10, # of connection points: 2
#     Edge 31, Type (0, 0), BuildingBlock: TEMPAE_clean_linker_10, # of connection points: 2
#     Edge 32, Type (0, 0), BuildingBlock: TEMPAE_clean_linker_10, # of connection points: 2
#     Edge 33, Type (0, 0), BuildingBlock: TEMPAE_clean_linker_10, # of connection points: 2
#     Edge 34, Type (0, 0), BuildingBlock: TEMPAE_clean_linker_10, # of connection points: 2
#     Edge 35, Type (0, 0), BuildingBlock: TEMPAE_clean_linker_10, # of connection points: 2
#     Edge 36, Type (0, 0), BuildingBlock: TEMPAE_clean_linker_10, # of connection points: 2
#     Edge 37, Type (0, 0), BuildingBlock: TEMPAE_clean_linker_10, # of connection points: 2
#     Edge 38, Type (0, 0), BuildingBlock: TEMPAE_clean_linker_10, # of connection points: 2
#     Edge 39, Type (0, 0), BuildingBlock: TEMPAE_clean_linker_10, # of connection points: 2
#     Edge 40, Type (0, 0), BuildingBlock: TEMPAE_clean_linker_10, # of connection points: 2
#     Edge 41, Type (0, 0), BuildingBlock: TEMPAE_clean_linker_10, # of connection points: 2
#     Edge 42, Type (0, 0), BuildingBlock: TEMPAE_clean_linker_10, # of connection points: 2
#     Edge 43, Type (0, 0), BuildingBlock: TEMPAE_clean_linker_10, # of connection points: 2
#     Edge 44, Type (0, 0), BuildingBlock: TEMPAE_clean_linker_10, # of connection points: 2
#     Edge 45, Type (0, 0), BuildingBlock: TEMPAE_clean_linker_10, # of connection points: 2
#     Edge 46, Type (0, 0), BuildingBlock: TEMPAE_clean_linker_10, # of connection points: 2
#     Edge 47, Type (0, 0), BuildingBlock: TEMPAE_clean_linker_10, # of connection points: 2
#     Edge 48, Type (0, 0), BuildingBlock: TEMPAE_clean_linker_10, # of connection points: 2
#     Edge 49, Type (0, 0), BuildingBlock: TEMPAE_clean_linker_10, # of connection points: 2
#     Edge 50, Type (0, 0), BuildingBlock: TEMPAE_clean_linker_10, # of connection points: 2
#     Edge 51, Type (0, 0), BuildingBlock: TEMPAE_clean_linker_10, # of connection points: 2
#     Edge 52, Type (0, 0), BuildingBlock: TEMPAE_clean_linker_10, # of connection points: 2
#     Edge 53, Type (0, 0), BuildingBlock: TEMPAE_clean_linker_10, # of connection points: 2
#     Edge 54, Type (0, 0), BuildingBlock: TEMPAE_clean_linker_10, # of connection points: 2
#     Edge 55, Type (0, 0), BuildingBlock: TEMPAE_clean_linker_10, # of connection points: 2
# Relax obj value: 0.061
# Max RMSD: 0.108
# Mean RMSD: 0.108
data_MOF--net-skb--node1-XOMCOT_clean_sbu_1--edge1-TEMPAE_clean_linker_10
_symmetry_space_group_name_H-M    P1
_symmetry_Int_Tables_number       1
_symmetry_cell_setting            triclinic
loop_
_symmetry_equiv_pos_as_xyz
'x, y, z'
_cell_length_a     49.741417
_cell_length_b     28.01765
_cell_length_c     69.568055
_cell_angle_alpha  90.015076
_cell_angle_beta   90.012432
_cell_angle_gamma 90.021333
loop_
_atom_site_label
_atom_site_type_symbol
_atom_site_fract_x
_atom_site_fract_y
_atom_site_fract_z
_atom_type_partial_charge
C0 C 0.16565 0.0851 0.11758 0.0
C1 C 0.16492 0.09085 0.09796 0.0
N2 N 0.18111 0.05796 0.08987 0.0
N3 N 0.18209 0.04847 0.122 0.0
C4 C 0.19164 0.03311 0.1048 0.0
H5 H 0.15401 0.10507 0.12795 0.0
Co6 Co 0.18633 0.02488 0.14727 0.0
C7 C 0.19734 0.92264 0.13443 0.0
O8 O 0.17203 0.91104 0.13662 0.0
N9 N 0.19159 1.00118 0.17301 0.0
C10 C 0.19183 0.95198 0.19821 0.0
C11 C 0.18456 0.95732 0.17932 0.0
C12 C 0.20329 0.02174 0.18866 0.0
N13 N 0.20361 0.99257 0.20424 0.0
O14 O 0.21914 0.06137 0.14896 0.0
H15 H 0.17428 0.93067 0.17094 0.0
H16 H 0.21131 0.05754 0.18879 0.0
O17 O 0.2053 0.96564 0.13777 0.0
C18 C 0.20985 0.1013 0.15512 0.0
O19 O 0.18433 0.10317 0.16001 0.0
N20 N 0.15094 0.99843 0.14605 0.0
C21 C 0.09489 0.99731 0.14266 0.0
C22 C 0.11109 0.98352 0.12721 0.0
C23 C 0.13905 0.98433 0.12918 0.0
C24 C 0.13507 0.01092 0.1613 0.0
C25 C 0.1071 0.00937 0.16008 0.0
H26 H 0.15106 0.97646 0.11665 0.0
H27 H 0.1438 0.02648 0.17406 0.0
H28 H 0.20474 1.00258 0.10314 0.0
H29 H 0.15286 0.11663 0.09022 0.0
H30 H 0.18896 0.92004 0.2067 0.0
H31 H 0.10225 0.97464 0.11343 0.0
H32 H 0.09517 0.02167 0.17213 0.0
C33 C 0.83238 0.98236 0.11797 0.0
C34 C 0.83222 0.9761 0.09838 0.0
N35 N 0.81343 1.00507 0.09063 0.0
N36 N 0.81395 0.01543 0.12282 0.0
C37 C 0.80248 0.02828 0.10588 0.0
H38 H 0.84592 0.96532 0.12801 0.0
Co39 Co 0.80906 0.03798 0.14822 0.0
C40 C 0.79233 0.1376 0.13553 0.0
O41 O 0.81698 0.15354 0.13692 0.0
N42 N 0.80303 0.06069 0.174 0.0
C43 C 0.80027 0.11004 0.1991 0.0
C44 C 0.80808 0.10545 0.18028 0.0
C45 C 0.79191 0.03884 0.18957 0.0
N46 N 0.79007 0.06809 0.20509 0.0
O47 O 0.77841 0.9959 0.15025 0.0
H48 H 0.81711 0.13341 0.17183 0.0
H49 H 0.78524 1.00217 0.18963 0.0
O50 O 0.78685 0.09361 0.13918 0.0
C51 C 0.79036 0.95779 0.15594 0.0
O52 O 0.81602 0.96107 0.16035 0.0
N53 N 0.84286 0.07028 0.14668 0.0
C54 C 0.89862 0.07881 0.14269 0.0
C55 C 0.88156 0.09033 0.12741 0.0
C56 C 0.85375 0.08587 0.12968 0.0
C57 C 0.85954 0.06034 0.1618 0.0
C58 C 0.88731 0.06562 0.16028 0.0
H59 H 0.84118 0.09164 0.11724 0.0
H60 H 0.85182 0.04365 0.17465 0.0
H61 H 0.78688 0.05498 0.10476 0.0
H62 H 0.84588 0.95339 0.09048 0.0
H63 H 0.80149 0.14241 0.20753 0.0
H64 H 0.88971 0.09992 0.1135 0.0
H65 H 0.89996 0.05493 0.17221 0.0
C66 C 0.16472 0.9579 0.92143 0.0
C67 C 0.16562 0.95337 0.94106 0.0
N68 N 0.18175 0.98773 0.94826 0.0
N69 N 0.18016 0.99498 0.91599 0.0
C70 C 0.19038 0.01249 0.93265 0.0
H71 H 0.15274 0.93652 0.91172 0.0
Co72 Co 0.18205 0.01534 0.89027 0.0
C73 C 0.19774 0.11764 0.8948 0.0
O74 O 0.17538 0.12958 0.88611 0.0
N75 N 0.18417 0.03572 0.86352 0.0
C76 C 0.17581 0.07189 0.83551 0.0
C77 C 0.16804 0.06716 0.85427 0.0
C78 C 0.20181 0.02205 0.84954 0.0
N79 N 0.197 0.0432 0.83229 0.0
O80 O 0.21344 0.97541 0.88712 0.0
H81 H 0.15137 0.08628 0.86052 0.0
H82 H 0.2178 0.99667 0.85188 0.0
O83 O 0.20334 0.07341 0.89777 0.0
C84 C 0.20255 0.93651 0.88121 0.0
O85 O 0.17683 0.93756 0.8769 0.0
N86 N 0.14848 0.04474 0.89372 0.0
C87 C 0.09401 0.05763 0.90169 0.0
C88 C 0.11364 0.07987 0.91309 0.0
C89 C 0.14095 0.07264 0.90895 0.0
C90 C 0.12946 0.02197 0.88298 0.0
C91 C 0.10226 0.02893 0.88635 0.0
H92 H 0.15592 0.08717 0.91858 0.0
H93 H 0.13549 0.99666 0.87208 0.0
H94 H 0.20338 0.04338 0.93334 0.0
H95 H 0.15419 0.92784 0.94939 0.0
H96 H 0.16653 0.09555 0.82519 0.0
H97 H 0.10796 0.10132 0.92539 0.0
H98 H 0.08777 0.0097 0.87766 0.0
C99 C 0.81727 0.1172 0.92253 0.0
C100 C 0.81762 0.11917 0.94226 0.0
N101 N 0.80777 0.07781 0.94917 0.0
N102 N 0.8073 0.07477 0.91684 0.0
C103 C 0.80145 0.05151 0.93344 0.0
H104 H 0.82477 0.14437 0.91289 0.0
Co105 Co 0.80751 0.05657 0.89086 0.0
C106 C 0.79525 0.95337 0.89121 0.0
O107 O 0.81637 0.94797 0.88014 0.0
N108 N 0.8077 0.03889 0.86379 0.0
C109 C 0.82002 0.01334 0.83461 0.0
C110 C 0.8281 0.02018 0.85327 0.0
C111 C 0.78739 0.04318 0.85074 0.0
N112 N 0.79444 0.02798 0.83294 0.0
O113 O 0.77462 0.09195 0.88739 0.0
H114 H 0.84768 0.01048 0.85864 0.0
H115 H 0.7676 0.05667 0.85418 0.0
O116 O 0.78864 0.99533 0.89702 0.0
C117 C 0.78278 0.13178 0.88042 0.0
O118 O 0.8081 0.13527 0.87524 0.0
N119 N 0.84195 0.0315 0.89492 0.0
C120 C 0.89579 0.02741 0.90588 0.0
C121 C 0.87724 0.9944 0.91327 0.0
C122 C 0.85005 0.99785 0.90796 0.0
C123 C 0.85998 0.06339 0.88769 0.0
C124 C 0.88693 0.06154 0.8927 0.0
H125 H 0.83551 0.97566 0.91524 0.0
H126 H 0.85316 0.09179 0.87841 0.0
H127 H 0.79412 0.01517 0.93404 0.0
H128 H 0.82508 0.14848 0.95089 0.0
H129 H 0.83219 0.99904 0.82307 0.0
H130 H 0.8834 0.96821 0.92383 0.0
H131 H 0.90065 0.08767 0.88672 0.0
C132 C 0.17518 0.59377 0.61485 0.0
C133 C 0.17537 0.59474 0.59513 0.0
N134 N 0.18521 0.55294 0.58872 0.0
N135 N 0.18475 0.5515 0.62105 0.0
C136 C 0.19092 0.52724 0.60473 0.0
H137 H 0.16742 0.6215 0.62411 0.0
Co138 Co 0.18312 0.53573 0.64726 0.0
C139 C 0.1947 0.43259 0.64974 0.0
O140 O 0.17339 0.43085 0.66083 0.0
N141 N 0.18137 0.52123 0.67459 0.0
C142 C 0.16675 0.50495 0.70425 0.0
C143 C 0.15977 0.50814 0.68523 0.0
C144 C 0.20139 0.52514 0.68789 0.0
N145 N 0.19291 0.51616 0.70608 0.0
O146 O 0.21604 0.57134 0.65128 0.0
H147 H 0.14 0.50011 0.67978 0.0
H148 H 0.22173 0.53564 0.6844 0.0
O149 O 0.20192 0.47307 0.64265 0.0
C150 C 0.20719 0.61143 0.65759 0.0
O151 O 0.18135 0.61513 0.66117 0.0
N152 N 0.14871 0.51076 0.64265 0.0
C153 C 0.09514 0.50488 0.63114 0.0
C154 C 0.11376 0.47038 0.62506 0.0
C155 C 0.14086 0.47473 0.63059 0.0
C156 C 0.13062 0.54436 0.64841 0.0
C157 C 0.10383 0.54169 0.64313 0.0
H158 H 0.15552 0.45095 0.62433 0.0
H159 H 0.13721 0.57442 0.65688 0.0
H160 H 0.19796 0.49069 0.60452 0.0
H161 H 0.16818 0.62356 0.58613 0.0
H162 H 0.15346 0.49453 0.71582 0.0
H163 H 0.10772 0.44209 0.61537 0.0
H164 H 0.09006 0.5691 0.64803 0.0
C165 C 0.82711 0.46903 0.61543 0.0
C166 C 0.82625 0.46134 0.59597 0.0
N167 N 0.80925 0.49317 0.58796 0.0
N168 N 0.81084 0.50571 0.62 0.0
C169 C 0.80008 0.51968 0.60296 0.0
H170 H 0.83964 0.45015 0.6256 0.0
Co171 Co 0.80837 0.52924 0.64538 0.0
C172 C 0.79537 0.63205 0.63572 0.0
O173 O 0.81994 0.64479 0.64011 0.0
N174 N 0.80531 0.55271 0.67155 0.0
C175 C 0.81054 0.59724 0.69793 0.0
C176 C 0.81743 0.59182 0.67899 0.0
C177 C 0.79086 0.53532 0.68667 0.0
N178 N 0.79387 0.56154 0.70296 0.0
O179 O 0.77619 0.49155 0.64851 0.0
H180 H 0.83122 0.61479 0.67145 0.0
H181 H 0.7785 0.50371 0.68595 0.0
O182 O 0.78819 0.58791 0.63673 0.0
C183 C 0.78665 0.45245 0.6546 0.0
O184 O 0.81244 0.45254 0.65878 0.0
N185 N 0.843 0.55626 0.6424 0.0
C186 C 0.89833 0.55879 0.63533 0.0
C187 C 0.88013 0.57723 0.62184 0.0
C188 C 0.85249 0.57533 0.62558 0.0
C189 C 0.86066 0.53864 0.65564 0.0
C190 C 0.88828 0.54059 0.65262 0.0
H191 H 0.8387 0.58628 0.61442 0.0
H192 H 0.85334 0.51943 0.66805 0.0
H193 H 0.78629 0.54931 0.60156 0.0
H194 H 0.83827 0.43547 0.58827 0.0
H195 H 0.81727 0.62584 0.70721 0.0
H196 H 0.88713 0.59102 0.60818 0.0
H197 H 0.90155 0.52451 0.66313 0.0
C198 C 0.16328 0.4588 0.41977 0.0
C199 C 0.16399 0.45242 0.43932 0.0
N200 N 0.18113 0.48451 0.44704 0.0
N201 N 0.17977 0.49489 0.41487 0.0
C202 C 0.19048 0.50988 0.43178 0.0
H203 H 0.1508 0.43931 0.40974 0.0
Co204 Co 0.18245 0.5164 0.3893 0.0
C205 C 0.19703 0.61881 0.39467 0.0
O206 O 0.1747 0.63016 0.3858 0.0
N207 N 0.18546 0.53762 0.36267 0.0
C208 C 0.1784 0.57427 0.33452 0.0
C209 C 0.16967 0.56912 0.35309 0.0
C210 C 0.20378 0.52424 0.3491 0.0
N211 N 0.19986 0.54597 0.33191 0.0
O212 O 0.2141 0.47728 0.38653 0.0
H213 H 0.15251 0.58764 0.35894 0.0
H214 H 0.22002 0.49948 0.3517 0.0
O215 O 0.20309 0.57468 0.39747 0.0
C216 C 0.20348 0.43851 0.38026 0.0
O217 O 0.17787 0.4394 0.37559 0.0
N218 N 0.14861 0.54514 0.39232 0.0
C219 C 0.09401 0.55312 0.40082 0.0
C220 C 0.11325 0.57548 0.41251 0.0
C221 C 0.14061 0.57091 0.40804 0.0
C222 C 0.12996 0.52298 0.38105 0.0
C223 C 0.10265 0.52761 0.3847 0.0
H224 H 0.15535 0.58501 0.41795 0.0
H225 H 0.13638 0.49923 0.3697 0.0
H226 H 0.20447 0.53931 0.43287 0.0
H227 H 0.15183 0.42715 0.44723 0.0
H228 H 0.16929 0.59662 0.32362 0.0
H229 H 0.10726 0.59454 0.42536 0.0
H230 H 0.08848 0.50846 0.37572 0.0
C231 C 0.82337 0.58836 0.41906 0.0
C232 C 0.82301 0.59097 0.43875 0.0
N233 N 0.81064 0.5518 0.44562 0.0
N234 N 0.81136 0.54766 0.41331 0.0
C235 C 0.80355 0.52608 0.42988 0.0
H236 H 0.83279 0.61377 0.4095 0.0
Co237 Co 0.81197 0.52984 0.38725 0.0
C238 C 0.79924 0.42739 0.38643 0.0
O239 O 0.82053 0.42404 0.37538 0.0
N240 N 0.81254 0.51313 0.36004 0.0
C241 C 0.82517 0.49261 0.33031 0.0
C242 C 0.83328 0.49763 0.34906 0.0
C243 C 0.79192 0.51692 0.34722 0.0
N244 N 0.79912 0.50492 0.32903 0.0
O245 O 0.77973 0.56719 0.38329 0.0
H246 H 0.85323 0.48934 0.35407 0.0
H247 H 0.77187 0.52828 0.3511 0.0
O248 O 0.79224 0.46868 0.39283 0.0
C249 C 0.78982 0.60625 0.37686 0.0
O250 O 0.81569 0.6071 0.37314 0.0
N251 N 0.84599 0.50312 0.39175 0.0
C252 C 0.89895 0.49791 0.40461 0.0
C253 C 0.87965 0.4658 0.41159 0.0
C254 C 0.85289 0.46974 0.40526 0.0
C255 C 0.86487 0.53398 0.38489 0.0
C256 C 0.8914 0.53149 0.39083 0.0
H257 H 0.83764 0.44849 0.41224 0.0
H258 H 0.85905 0.56237 0.37527 0.0
H259 H 0.79423 0.4912 0.43049 0.0
H260 H 0.83174 0.61909 0.44742 0.0
H261 H 0.8378 0.48159 0.31845 0.0
H262 H 0.88482 0.44014 0.42262 0.0
H263 H 0.90578 0.55708 0.38525 0.0
C264 C 0.66927 0.10899 0.61783 0.0
C265 C 0.66933 0.11499 0.59824 0.0
N266 N 0.68179 0.07731 0.59012 0.0
N267 N 0.68174 0.06782 0.62233 0.0
C268 C 0.68941 0.0494 0.60512 0.0
H269 H 0.65999 0.13266 0.62815 0.0
Co270 Co 0.68328 0.04528 0.64788 0.0
C271 C 0.69588 0.94188 0.64166 0.0
O272 O 0.67272 0.93119 0.6495 0.0
N273 N 0.68512 0.02297 0.67446 0.0
C274 C 0.67611 0.98574 0.70216 0.0
C275 C 0.6689 0.9909 0.68327 0.0
C276 C 0.70229 0.03638 0.6888 0.0
N277 N 0.69705 0.0147 0.70587 0.0
O278 O 0.71573 0.08205 0.65124 0.0
H279 H 0.65225 0.97236 0.67671 0.0
H280 H 0.71817 0.0622 0.68691 0.0
O281 O 0.70296 0.98584 0.63971 0.0
C282 C 0.70616 0.12126 0.65791 0.0
O283 O 0.68066 0.12207 0.66286 0.0
N284 N 0.6488 0.01917 0.64435 0.0
C285 C 0.59402 0.01423 0.63598 0.0
C286 C 0.61281 0.99133 0.62411 0.0
C287 C 0.64027 0.99439 0.62851 0.0
C288 C 0.63059 0.04202 0.65575 0.0
C289 C 0.60318 0.03891 0.65217 0.0
H290 H 0.65465 0.97934 0.61859 0.0
H291 H 0.63747 0.06495 0.66725 0.0
H292 H 0.69919 0.01512 0.60356 0.0
H293 H 0.66052 0.14475 0.59059 0.0
H294 H 0.66649 0.96197 0.71228 0.0
H295 H 0.60641 0.97275 0.61125 0.0
H296 H 0.58936 0.05834 0.66132 0.0
C297 C 0.32238 0.96279 0.61648 0.0
C298 C 0.32208 0.962 0.59677 0.0
N299 N 0.31019 1.0022 0.59048 0.0
N300 N 0.31079 1.00333 0.6228 0.0
C301 C 0.30332 0.02671 0.60656 0.0
H302 H 0.33149 0.93622 0.62567 0.0
Co303 Co 0.31156 0.01873 0.64904 0.0
C304 C 0.29593 0.11995 0.65226 0.0
O305 O 0.31719 0.12412 0.66329 0.0
N306 N 0.31245 0.03283 0.67637 0.0
C307 C 0.32502 0.05331 0.70614 0.0
C308 C 0.33312 0.04876 0.68737 0.0
C309 C 0.29199 0.02769 0.68922 0.0
N310 N 0.29919 0.03978 0.70736 0.0
O311 O 0.27995 0.9793 0.65272 0.0
H312 H 0.3529 0.05819 0.6823 0.0
H313 H 0.27201 0.0158 0.6854 0.0
O314 O 0.29061 0.07922 0.64455 0.0
C315 C 0.29018 0.93999 0.65874 0.0
O316 O 0.31608 0.93918 0.66239 0.0
N317 N 0.3449 0.04785 0.64474 0.0
C318 C 0.39773 0.05814 0.63217 0.0
C319 C 0.37793 0.09063 0.62622 0.0
C320 C 0.35123 0.08415 0.63237 0.0
C321 C 0.36421 0.01663 0.6506 0.0
C322 C 0.39068 0.02157 0.64481 0.0
H323 H 0.33563 0.1061 0.62618 0.0
H324 H 0.35881 0.98631 0.65935 0.0
H325 H 0.29442 0.06196 0.60646 0.0
H326 H 0.33053 0.9344 0.5877 0.0
H327 H 0.33729 0.06526 0.71807 0.0
H328 H 0.38272 0.11873 0.6161 0.0
H329 H 0.40543 0.99575 0.64965 0.0
C330 C 0.6866 0.9527 0.42284 0.0
C331 C 0.68703 0.95232 0.44253 0.0
N332 N 0.68867 0.99766 0.44886 0.0
N333 N 0.68823 0.998 0.41645 0.0
C334 C 0.68954 0.02485 0.43269 0.0
H335 H 0.68445 0.92167 0.41375 0.0
Co336 Co 0.68535 0.01195 0.39008 0.0
C337 C 0.70101 0.11306 0.38435 0.0
O338 O 0.68141 0.11519 0.37174 0.0
N339 N 0.68242 0.0242 0.36288 0.0
C340 C 0.66711 0.03511 0.33304 0.0
C341 C 0.66003 0.02889 0.35197 0.0
C342 C 0.70287 0.02725 0.34995 0.0
N343 N 0.69407 0.03391 0.33171 0.0
O344 O 0.71767 0.97492 0.38543 0.0
H345 H 0.63962 0.02786 0.35715 0.0
H346 H 0.72388 0.02482 0.35385 0.0
O347 O 0.70516 0.07392 0.3936 0.0
C348 C 0.70878 0.93563 0.37835 0.0
O349 O 0.68292 0.93219 0.37481 0.0
N350 N 0.65166 0.039 0.39492 0.0
C351 C 0.59688 0.0545 0.39992 0.0
C352 C 0.61541 0.09094 0.4041 0.0
C353 C 0.64308 0.08218 0.40174 0.0
C354 C 0.63389 1.00248 0.39263 0.0
C355 C 0.60653 0.00956 0.39471 0.0
H356 H 0.65725 0.10976 0.40555 0.0
H357 H 0.64105 0.9676 0.38854 0.0
H358 H 0.68998 0.06347 0.43268 0.0
H359 H 0.68593 0.92084 0.45151 0.0
H360 H 0.65336 0.03909 0.32109 0.0
H361 H 0.60858 0.12569 0.40884 0.0
H362 H 0.59294 0.98001 0.3921 0.0
C363 C 0.32586 0.09292 0.42117 0.0
C364 C 0.32528 0.10047 0.44066 0.0
N365 N 0.30863 0.06819 0.44877 0.0
N366 N 0.3098 0.05582 0.41673 0.0
C367 C 0.29937 0.04162 0.43382 0.0
H368 H 0.33805 0.11218 0.4109 0.0
Co369 Co 0.30644 0.03174 0.3915 0.0
C370 C 0.29607 0.92895 0.40378 0.0
O371 O 0.32141 0.91778 0.40142 0.0
N372 N 0.30223 1.00739 0.36572 0.0
C373 C 0.30442 0.95874 0.34037 0.0
C374 C 0.31153 0.96502 0.35925 0.0
C375 C 0.28936 0.02608 0.35016 0.0
N376 N 0.29048 0.99725 0.33449 0.0
O377 O 0.27338 0.06714 0.38922 0.0
H378 H 0.32327 0.94012 0.36752 0.0
H379 H 0.27945 0.06033 0.35017 0.0
O380 O 0.28791 0.97197 0.40081 0.0
C381 C 0.28297 0.10681 0.38299 0.0
O382 O 0.30862 0.1083 0.37843 0.0
N383 N 0.34196 1.00724 0.3933 0.0
C384 C 0.39763 0.01442 0.39819 0.0
C385 C 0.38155 0.9947 0.41269 0.0
C386 C 0.35366 0.99223 0.4101 0.0
C387 C 0.35779 0.02434 0.37881 0.0
C388 C 0.38556 0.02754 0.38084 0.0
H389 H 0.34137 0.9819 0.42222 0.0
H390 H 0.34886 0.04024 0.3662 0.0
H391 H 0.2857 0.01183 0.43528 0.0
H392 H 0.33724 0.12659 0.44828 0.0
H393 H 0.30894 0.92756 0.3318 0.0
H394 H 0.39015 0.98487 0.42643 0.0
H395 H 0.39731 0.04308 0.36932 0.0
C396 C 0.6827 0.61504 0.11464 0.0
C397 C 0.68281 0.61651 0.09491 0.0
N398 N 0.6878 0.57227 0.08819 0.0
N399 N 0.68765 0.57014 0.12057 0.0
C400 C 0.69088 0.54477 0.10409 0.0
H401 H 0.67833 0.64465 0.12411 0.0
Co402 Co 0.68526 0.5527 0.14659 0.0
C403 C 0.69638 0.44947 0.1478 0.0
O404 O 0.6751 0.44572 0.15885 0.0
N405 N 0.68298 0.53576 0.17357 0.0
C406 C 0.66839 0.51706 0.20299 0.0
C407 C 0.66102 0.5251 0.18425 0.0
C408 C 0.70352 0.53368 0.1865 0.0
N409 N 0.69515 0.52261 0.20452 0.0
O410 O 0.71847 0.58667 0.15127 0.0
H411 H 0.64068 0.5226 0.17903 0.0
H412 H 0.72432 0.54007 0.18278 0.0
O413 O 0.70347 0.49059 0.14137 0.0
C414 C 0.71088 0.62627 0.15878 0.0
O415 O 0.68547 0.63098 0.16352 0.0
N416 N 0.65075 0.52918 0.1414 0.0
C417 C 0.59728 0.52617 0.1294 0.0
C418 C 0.61533 0.4902 0.1238 0.0
C419 C 0.64238 0.49307 0.12956 0.0
C420 C 0.6333 0.56424 0.14669 0.0
C421 C 0.60655 0.56304 0.14118 0.0
H422 H 0.65658 0.46797 0.12362 0.0
H423 H 0.64043 0.59426 0.15497 0.0
H424 H 0.69404 0.50657 0.10371 0.0
H425 H 0.67902 0.64771 0.08615 0.0
H426 H 0.65485 0.50873 0.2147 0.0
H427 H 0.60892 0.46171 0.11433 0.0
H428 H 0.59328 0.59142 0.14586 0.0
C429 C 0.32856 0.45475 0.11556 0.0
C430 C 0.32789 0.45151 0.09588 0.0
N431 N 0.31237 0.48702 0.08891 0.0
N432 N 0.31359 0.49213 0.12129 0.0
C433 C 0.30389 0.51117 0.10473 0.0
H434 H 0.34014 0.43229 0.12511 0.0
Co435 Co 0.31213 0.51103 0.14724 0.0
C436 C 0.29589 0.61294 0.14468 0.0
O437 O 0.31761 0.62383 0.15437 0.0
N438 N 0.31055 0.5297 0.17427 0.0
C439 C 0.32045 0.56128 0.20295 0.0
C440 C 0.32792 0.55795 0.18407 0.0
C441 C 0.29236 0.51679 0.18802 0.0
N442 N 0.29815 0.53507 0.20564 0.0
O443 O 0.28082 0.47087 0.15038 0.0
H444 H 0.34511 0.57617 0.1781 0.0
H445 H 0.27532 0.49382 0.18532 0.0
O446 O 0.29074 0.5692 0.14044 0.0
C447 C 0.29163 0.43183 0.15618 0.0
O448 O 0.31742 0.4325 0.16027 0.0
N449 N 0.34547 0.54097 0.14367 0.0
C450 C 0.39953 0.55547 0.13494 0.0
C451 C 0.37945 0.57924 0.12449 0.0
C452 C 0.35234 0.57126 0.12904 0.0
C453 C 0.36493 0.51664 0.15339 0.0
C454 C 0.39198 0.52439 0.14968 0.0
H455 H 0.33697 0.58708 0.12009 0.0
H456 H 0.35935 0.48974 0.16378 0.0
H457 H 0.29142 0.54275 0.10429 0.0
H458 H 0.3391 0.42601 0.08739 0.0
H459 H 0.33058 0.58233 0.2138 0.0
H460 H 0.38465 0.60248 0.11262 0.0
H461 H 0.40688 0.50413 0.15759 0.0
C462 C 0.65327 0.50297 0.91924 0.0
C463 C 0.65241 0.49326 0.9386 0.0
N464 N 0.67594 0.50672 0.94659 0.0
N465 N 0.67694 0.52378 0.91486 0.0
C466 C 0.69075 0.52361 0.93168 0.0
H467 H 0.6372 0.49679 0.90905 0.0
Co468 Co 0.68656 0.54547 0.88988 0.0
C469 C 0.70877 0.63076 0.91419 0.0
O470 O 0.69552 0.62235 0.93014 0.0
N471 N 0.69677 0.56679 0.8648 0.0
C472 C 0.70331 0.61727 0.84054 0.0
C473 C 0.69518 0.61288 0.85928 0.0
C474 C 0.70602 0.54372 0.8489 0.0
N475 N 0.71003 0.57376 0.83383 0.0
O476 O 0.71696 0.50272 0.89065 0.0
H477 H 0.68808 0.6417 0.86828 0.0
H478 H 0.70926 0.5056 0.84823 0.0
O479 O 0.70651 0.60224 0.89983 0.0
C480 C 0.70511 0.46474 0.88467 0.0
O481 O 0.67985 0.46856 0.87925 0.0
N482 N 0.6538 0.57995 0.88806 0.0
C483 C 0.59776 0.58845 0.88817 0.0
C484 C 0.6132 0.6063 0.90353 0.0
C485 C 0.64132 0.60257 0.90301 0.0
C486 C 0.63921 0.56695 0.87229 0.0
C487 C 0.61148 0.57274 0.87174 0.0
H488 H 0.6523 0.61168 0.91578 0.0
H489 H 0.64851 0.54752 0.86065 0.0
H490 H 0.71119 0.53637 0.93301 0.0
H491 H 0.63519 0.47936 0.94628 0.0
H492 H 0.70441 0.65037 0.83258 0.0
H493 H 0.6038 0.61897 0.91659 0.0
H494 H 0.60082 0.56086 0.85905 0.0
C495 C 0.32742 0.5908 0.91973 0.0
C496 C 0.32842 0.59653 0.93936 0.0
N497 N 0.31275 0.56299 0.94757 0.0
N498 N 0.31142 0.55344 0.91542 0.0
C499 C 0.30234 0.53774 0.93271 0.0
H500 H 0.33855 0.61137 0.90926 0.0
Co501 Co 0.30643 0.52921 0.89026 0.0
C502 C 0.29743 0.42769 0.90464 0.0
O503 O 0.32318 0.41832 0.90375 0.0
N504 N 0.30006 0.50432 0.86483 0.0
C505 C 0.29801 0.45263 0.84045 0.0
C506 C 0.30646 0.45969 0.85902 0.0
C507 C 0.28759 0.52361 0.84923 0.0
N508 N 0.286 0.49277 0.83423 0.0
O509 O 0.27323 0.5647 0.88918 0.0
H510 H 0.31705 0.43372 0.86759 0.0
H511 H 0.27918 0.55914 0.8489 0.0
O512 O 0.28864 0.46952 0.90026 0.0
C513 C 0.28236 0.60434 0.88255 0.0
O514 O 0.30769 0.60579 0.87713 0.0
N515 N 0.34247 0.50442 0.89055 0.0
C516 C 0.39887 0.51207 0.89184 0.0
C517 C 0.3842 0.49834 0.90817 0.0
C518 C 0.35616 0.49446 0.9072 0.0
C519 C 0.35682 0.51535 0.87436 0.0
C520 C 0.38478 0.51746 0.87453 0.0
H521 H 0.34547 0.48729 0.92039 0.0
H522 H 0.34688 0.52723 0.86144 0.0
H523 H 0.28953 0.50683 0.93447 0.0
H524 H 0.34023 0.62282 0.94703 0.0
H525 H 0.30078 0.42038 0.83212 0.0
H526 H 0.39387 0.494 0.92199 0.0
H527 H 0.39502 0.52664 0.86131 0.0
C528 C 0.23498 0.03544 0.22626 0.0
C529 C 0.21467 1.00133 0.22326 0.0
C530 C 0.24718 0.04114 0.24444 0.0
C531 C 0.23915 0.01175 0.26002 0.0
C532 C 0.21802 0.97858 0.25725 0.0
C533 C 0.20598 0.9741 0.23907 0.0
C534 C 0.26931 0.07752 0.24681 0.0
C535 C 0.20877 0.94634 0.27335 0.0
C536 C 0.28859 0.9786 0.29963 0.0
C537 C 0.27894 1.00458 0.31551 0.0
C538 C 0.27636 0.98183 0.28147 0.0
C539 C 0.25406 0.01249 0.27877 0.0
C540 C 0.24497 0.04066 0.29442 0.0
C541 C 0.25737 0.03619 0.31258 0.0
C542 C 0.28676 0.95094 0.2653 0.0
C543 C 0.22155 0.07441 0.29213 0.0
H544 H 0.24199 0.05672 0.21428 0.0
H545 H 0.18985 0.94859 0.23723 0.0
H546 H 0.26575 0.09958 0.25981 0.0
H547 H 0.28881 0.05898 0.24882 0.0
H548 H 0.271 0.10146 0.23414 0.0
H549 H 0.19129 0.92394 0.26915 0.0
H550 H 0.22547 0.92243 0.27772 0.0
H551 H 0.20312 0.96783 0.28611 0.0
H552 H 0.30565 0.95508 0.30138 0.0
H553 H 0.24959 0.0565 0.32459 0.0
H554 H 0.29164 0.97321 0.25259 0.0
H555 H 0.27095 0.92525 0.26085 0.0
H556 H 0.30499 0.93051 0.26945 0.0
H557 H 0.22433 0.09706 0.2792 0.0
H558 H 0.21896 0.09789 0.30487 0.0
H559 H 0.20278 0.05367 0.29003 0.0
C560 C 0.78591 0.08644 0.23986 0.0
C561 C 0.77868 0.05831 0.22392 0.0
C562 C 0.77351 0.08055 0.25787 0.0
C563 C 0.75349 0.04514 0.26028 0.0
C564 C 0.74684 0.0152 0.24453 0.0
C565 C 0.75942 0.02221 0.22656 0.0
C566 C 0.78126 0.11338 0.27418 0.0
C567 C 0.7258 0.97669 0.24648 0.0
C568 C 0.73342 0.01139 0.31169 0.0
C569 C 0.70964 0.03764 0.31418 0.0
C570 C 0.74774 0.01288 0.29419 0.0
C571 C 0.7383 0.04184 0.27887 0.0
C572 C 0.71451 0.0689 0.28147 0.0
C573 C 0.70048 0.06627 0.29898 0.0
C574 C 0.77281 0.98308 0.292 0.0
C575 C 0.7039 0.10091 0.26574 0.0
H576 H 0.80119 0.11365 0.23826 0.0
H577 H 0.75349 1.00031 0.21446 0.0
H578 H 0.7637 0.13546 0.27838 0.0
H579 H 0.78723 0.09228 0.28697 0.0
H580 H 0.7981 0.13759 0.27028 0.0
H581 H 0.72462 0.95367 0.2335 0.0
H582 H 0.73019 0.95392 0.25915 0.0
H583 H 0.70583 0.99326 0.24888 0.0
H584 H 0.74044 0.98876 0.32327 0.0
H585 H 0.68233 0.08709 0.30087 0.0
H586 H 0.79027 1.00639 0.28877 0.0
H587 H 0.77048 0.95818 0.27971 0.0
H588 H 0.77736 0.96202 0.30513 0.0
H589 H 0.71926 0.12802 0.26191 0.0
H590 H 0.68515 0.11966 0.27001 0.0
H591 H 0.69976 0.07963 0.25262 0.0
C592 C 0.26651 0.99931 0.72872 0.0
C593 C 0.28328 0.03829 0.72472 0.0
C594 C 0.25257 0.99608 0.74634 0.0
C595 C 0.25494 0.03332 0.76008 0.0
C596 C 0.27149 0.07315 0.75587 0.0
C597 C 0.28564 0.07484 0.73839 0.0
C598 C 0.23559 0.95257 0.75035 0.0
C599 C 0.27409 0.1143 0.76977 0.0
C600 C 0.19928 0.05319 0.79682 0.0
C601 C 0.2111 0.03742 0.81409 0.0
C602 C 0.21311 0.05128 0.77922 0.0
C603 C 0.23934 0.03195 0.77852 0.0
C604 C 0.25107 0.01397 0.79564 0.0
C605 C 0.23695 0.01724 0.81321 0.0
C606 C 0.19985 0.07138 0.76143 0.0
C607 C 0.27881 0.99221 0.79549 0.0
H608 H 0.26496 0.97071 0.71829 0.0
H609 H 0.29845 0.10514 0.73526 0.0
H610 H 0.24247 0.93515 0.76381 0.0
H611 H 0.21434 0.96318 0.75255 0.0
H612 H 0.23648 0.9261 0.73848 0.0
H613 H 0.28759 0.14281 0.76428 0.0
H614 H 0.254 0.13005 0.77257 0.0
H615 H 0.28206 0.10142 0.78372 0.0
H616 H 0.17912 0.06755 0.79691 0.0
H617 H 0.24649 1.00484 0.82626 0.0
H618 H 0.19899 0.04389 0.74998 0.0
H619 H 0.21194 0.10159 0.7558 0.0
H620 H 0.17911 0.08429 0.76426 0.0
H621 H 0.2802 0.96447 0.78414 0.0
H622 H 0.28413 0.97587 0.80953 0.0
H623 H 0.29392 0.02007 0.79206 0.0
C624 C 0.73596 0.04179 0.72582 0.0
C625 C 0.71027 0.02108 0.72439 0.0
C626 C 0.74916 0.0462 0.74371 0.0
C627 C 0.73664 0.02901 0.76068 0.0
C628 C 0.71057 1.00903 0.75942 0.0
C629 C 0.6977 1.00578 0.74146 0.0
C630 C 0.77679 0.06837 0.7444 0.0
C631 C 0.69647 0.98982 0.77703 0.0
C632 C 0.78146 0.9898 0.80232 0.0
C633 C 0.77872 0.02758 0.81543 0.0
C634 C 0.76784 0.98983 0.7846 0.0
C635 C 0.75132 0.02907 0.77956 0.0
C636 C 0.74838 0.06736 0.79277 0.0
C637 C 0.76189 0.06592 0.81063 0.0
C638 C 0.77113 0.94768 0.77128 0.0
C639 C 0.73132 0.1102 0.78791 0.0
H640 H 0.74609 0.05375 0.71293 0.0
H641 H 0.67766 0.99091 0.74092 0.0
H642 H 0.77742 0.09702 0.75541 0.0
H643 H 0.79178 0.04102 0.74864 0.0
H644 H 0.78286 0.08367 0.73033 0.0
H645 H 0.67592 0.97655 0.77378 0.0
H646 H 0.70833 0.96005 0.78325 0.0
H647 H 0.69499 0.01796 0.78819 0.0
H648 H 0.79425 0.9599 0.80604 0.0
H649 H 0.75998 0.09546 0.82059 0.0
H650 H 0.77972 0.95961 0.75737 0.0
H651 H 0.75121 0.93156 0.76818 0.0
H652 H 0.78442 0.9197 0.77741 0.0
H653 H 0.73885 0.12715 0.77454 0.0
H654 H 0.73131 0.13726 0.79959 0.0
H655 H 0.71029 0.09893 0.78516 0.0
C656 C 0.1943 0.52738 0.7414 0.0
C657 C 0.20784 0.51885 0.72399 0.0
C658 C 0.20782 0.52669 0.75915 0.0
C659 C 0.23581 0.51766 0.7597 0.0
C660 C 0.24989 0.51096 0.74216 0.0
C661 C 0.23577 0.51158 0.72454 0.0
C662 C 0.1919 0.53408 0.77739 0.0
C663 C 0.27975 0.50156 0.74204 0.0
C664 C 0.27238 0.54494 0.80696 0.0
C665 C 0.27347 0.49968 0.8156 0.0
C666 C 0.26076 0.55132 0.78861 0.0
C667 C 0.2497 0.51161 0.7787 0.0
C668 C 0.2507 0.46596 0.78741 0.0
C669 C 0.26253 0.4606 0.80564 0.0
C670 C 0.26028 0.60055 0.77983 0.0
C671 C 0.23885 0.42269 0.7776 0.0
H672 H 0.17291 0.53433 0.74123 0.0
H673 H 0.24649 0.50489 0.71127 0.0
H674 H 0.19244 0.50105 0.78619 0.0
H675 H 0.201 0.56299 0.78613 0.0
H676 H 0.17056 0.54329 0.77449 0.0
H677 H 0.2882 0.50144 0.72726 0.0
H678 H 0.29041 0.52899 0.75067 0.0
H679 H 0.28388 0.46643 0.74878 0.0
H680 H 0.28099 0.57525 0.81441 0.0
H681 H 0.2628 0.42564 0.81226 0.0
H682 H 0.2392 0.612 0.77746 0.0
H683 H 0.27029 0.59996 0.76558 0.0
H684 H 0.27044 0.62745 0.78905 0.0
H685 H 0.21696 0.42797 0.77538 0.0
H686 H 0.24186 0.38947 0.78605 0.0
H687 H 0.24809 0.41786 0.76323 0.0
C688 C 0.75808 0.52812 0.7242 0.0
C689 C 0.78204 0.55411 0.72184 0.0
C690 C 0.74557 0.52415 0.74236 0.0
C691 C 0.75707 0.5471 0.75859 0.0
C692 C 0.78174 0.57173 0.75642 0.0
C693 C 0.79394 0.57456 0.73823 0.0
C694 C 0.71954 0.49684 0.74404 0.0
C695 C 0.7948 0.59693 0.77321 0.0
C696 C 0.7133 0.59414 0.79927 0.0
C697 C 0.71959 0.56327 0.81455 0.0
C698 C 0.72454 0.5881 0.7809 0.0
C699 C 0.74234 0.54966 0.7774 0.0
C700 C 0.74765 0.51668 0.79242 0.0
C701 C 0.73632 0.52395 0.81082 0.0
C702 C 0.71823 0.62429 0.76545 0.0
C703 C 0.76612 0.47471 0.78926 0.0
H704 H 0.74858 0.51208 0.71177 0.0
H705 H 0.8128 0.5935 0.73688 0.0
H706 H 0.72022 0.47228 0.75654 0.0
H707 H 0.70274 0.52214 0.74651 0.0
H708 H 0.71509 0.4758 0.73088 0.0
H709 H 0.81467 0.6124 0.76941 0.0
H710 H 0.78153 0.62616 0.77829 0.0
H711 H 0.79755 0.57183 0.78537 0.0
H712 H 0.69981 0.62382 0.8017 0.0
H713 H 0.74134 0.49978 0.82242 0.0
H714 H 0.7108 0.60611 0.75232 0.0
H715 H 0.73683 0.64382 0.76147 0.0
H716 H 0.70292 0.6507 0.77013 0.0
H717 H 0.76074 0.45575 0.77579 0.0
H718 H 0.7654 0.44898 0.8014 0.0
H719 H 0.7871 0.48758 0.78768 0.0
C720 C 0.25643 0.51875 0.22441 0.0
C721 C 0.28407 0.52893 0.22378 0.0
C722 C 0.24244 0.51693 0.24207 0.0
C723 C 0.25632 0.52576 0.25956 0.0
C724 C 0.28436 0.53419 0.25903 0.0
C725 C 0.29782 0.53529 0.24127 0.0
C726 C 0.21261 0.50722 0.24197 0.0
C727 C 0.30007 0.54394 0.2772 0.0
C728 C 0.21786 0.57964 0.30172 0.0
C729 C 0.21481 0.54059 0.31418 0.0
C730 C 0.23108 0.57509 0.28396 0.0
C731 C 0.2414 0.53015 0.27823 0.0
C732 C 0.23842 0.49046 0.29074 0.0
C733 C 0.22536 0.49623 0.30862 0.0
C734 C 0.23421 0.61866 0.27138 0.0
C735 C 0.24883 0.44183 0.28515 0.0
H736 H 0.24553 0.51377 0.21109 0.0
H737 H 0.31927 0.54179 0.24114 0.0
H738 H 0.20762 0.47877 0.25247 0.0
H739 H 0.20162 0.53985 0.24642 0.0
H740 H 0.20527 0.49624 0.22754 0.0
H741 H 0.32199 0.54728 0.27448 0.0
H742 H 0.29286 0.57758 0.28386 0.0
H743 H 0.29678 0.51494 0.28778 0.0
H744 H 0.21007 0.61414 0.306 0.0
H745 H 0.2228 0.4658 0.31805 0.0
H746 H 0.22489 0.61216 0.25713 0.0
H747 H 0.25586 0.62599 0.2689 0.0
H748 H 0.22487 0.65093 0.27781 0.0
H749 H 0.23965 0.43052 0.27134 0.0
H750 H 0.24443 0.41437 0.29623 0.0
H751 H 0.27089 0.44336 0.2829 0.0
C752 C 0.70221 0.48918 0.23712 0.0
C753 C 0.71078 0.51906 0.22209 0.0
C754 C 0.71613 0.487 0.25471 0.0
C755 C 0.73934 0.51545 0.25754 0.0
C756 C 0.74829 0.54543 0.24239 0.0
C757 C 0.734 0.54676 0.22486 0.0
C758 C 0.70597 0.4541 0.27029 0.0
C759 C 0.77289 0.57642 0.24476 0.0
C760 C 0.76222 0.53949 0.30929 0.0
C761 C 0.78323 0.5065 0.31153 0.0
C762 C 0.74788 0.54304 0.29182 0.0
C763 C 0.75456 0.51275 0.27618 0.0
C764 C 0.77549 0.47898 0.27847 0.0
C765 C 0.78948 0.47628 0.29602 0.0
C766 C 0.72572 0.57954 0.29005 0.0
C767 C 0.78319 0.44561 0.26233 0.0
H768 H 0.68458 0.46708 0.23508 0.0
H769 H 0.74064 0.57035 0.21348 0.0
H770 H 0.72171 0.42765 0.27405 0.0
H771 H 0.70151 0.47485 0.28349 0.0
H772 H 0.68751 0.43457 0.26592 0.0
H773 H 0.77714 0.59808 0.23173 0.0
H774 H 0.77015 0.60085 0.25716 0.0
H775 H 0.79068 0.55386 0.2479 0.0
H776 H 0.75739 0.56336 0.32104 0.0
H777 H 0.80533 0.45013 0.29762 0.0
H778 H 0.70646 0.56154 0.28654 0.0
H779 H 0.73025 0.60446 0.27809 0.0
H780 H 0.723 0.60056 0.30345 0.0
H781 H 0.76565 0.42342 0.25818 0.0
H782 H 0.80004 0.42157 0.26634 0.0
H783 H 0.78918 0.46647 0.24948 0.0
C784 C 0.24474 0.15914 0.14273 0.0
C785 C 0.22553 0.14624 0.15651 0.0
C786 C 0.2552 0.20606 0.14218 0.0
C787 C 0.24623 0.24057 0.15572 0.0
C788 C 0.22755 0.22693 0.17001 0.0
C789 C 0.21752 0.18018 0.17022 0.0
C790 C 0.27532 0.21908 0.12684 0.0
C791 C 0.21768 0.26203 0.18492 0.0
C792 C 0.28983 0.34792 0.16764 0.0
C793 C 0.27759 0.38498 0.15719 0.0
C794 C 0.28009 0.30101 0.167 0.0
C795 C 0.25722 0.29036 0.15574 0.0
C796 C 0.2442 0.32772 0.14551 0.0
C797 C 0.25456 0.37471 0.14633 0.0
C798 C 0.2945 0.2627 0.1783 0.0
C799 C 0.21955 0.31787 0.13352 0.0
H800 H 0.25063 0.13336 0.1319 0.0
H801 H 0.20267 0.17043 0.18094 0.0
H802 H 0.26708 0.24802 0.11769 0.0
H803 H 0.294 0.2329 0.13356 0.0
H804 H 0.28053 0.1882 0.11753 0.0
H805 H 0.20298 0.24579 0.19502 0.0
H806 H 0.23487 0.27603 0.19337 0.0
H807 H 0.208 0.29294 0.17775 0.0
H808 H 0.30758 0.35538 0.17618 0.0
H809 H 0.24517 0.40291 0.13806 0.0
H810 H 0.30105 0.23365 0.16853 0.0
H811 H 0.28064 0.24668 0.18899 0.0
H812 H 0.31242 0.27666 0.18601 0.0
H813 H 0.22428 0.29083 0.12237 0.0
H814 H 0.21183 0.35053 0.12635 0.0
H815 H 0.2034 0.30282 0.14269 0.0
C816 C 0.72199 0.70306 0.17437 0.0
C817 C 0.72774 0.66976 0.15987 0.0
C818 C 0.73182 0.74993 0.17357 0.0
C819 C 0.74797 0.7642 0.15786 0.0
C820 C 0.75493 0.73013 0.14357 0.0
C821 C 0.74469 0.68317 0.14472 0.0
C822 C 0.72416 0.7846 0.18928 0.0
C823 C 0.7724 0.74378 0.12672 0.0
C824 C 0.75327 0.89862 0.14805 0.0
C825 C 0.77765 0.90972 0.15712 0.0
C826 C 0.74343 0.85124 0.14792 0.0
C827 C 0.75837 0.81431 0.157 0.0
C828 C 0.78277 0.82566 0.16631 0.0
C829 C 0.79195 0.87292 0.16634 0.0
C830 C 0.71714 0.84057 0.13801 0.0
C831 C 0.79932 0.78779 0.17629 0.0
H832 H 0.70872 0.69291 0.18605 0.0
H833 H 0.74867 0.65794 0.13326 0.0
H834 H 0.74248 0.79947 0.19613 0.0
H835 H 0.71283 0.815 0.18305 0.0
H836 H 0.7116 0.76772 0.2006 0.0
H837 H 0.7767 0.71293 0.11717 0.0
H838 H 0.76229 0.77196 0.11816 0.0
H839 H 0.79173 0.75881 0.13189 0.0
H840 H 0.74221 0.92661 0.14077 0.0
H841 H 0.81077 0.88086 0.17352 0.0
H842 H 0.70264 0.82545 0.14848 0.0
H843 H 0.72027 0.81333 0.12665 0.0
H844 H 0.70811 0.87289 0.13139 0.0
H845 H 0.78753 0.77159 0.18815 0.0
H846 H 0.81832 0.80222 0.18234 0.0
H847 H 0.80434 0.75876 0.16605 0.0
C848 C 0.23912 0.87871 0.89141 0.0
C849 C 0.21632 0.88936 0.88037 0.0
C850 C 0.24914 0.83151 0.89237 0.0
C851 C 0.236 0.79428 0.88213 0.0
C852 C 0.21333 0.80528 0.87072 0.0
C853 C 0.20395 0.8524 0.86991 0.0
C854 C 0.27361 0.82132 0.9045 0.0
C855 C 0.19878 0.76714 0.8594 0.0
C856 C 0.27503 0.68345 0.86758 0.0
C857 C 0.26689 0.64956 0.88128 0.0
C858 C 0.26535 0.73041 0.86787 0.0
C859 C 0.24675 0.74431 0.88216 0.0
C860 C 0.23758 0.70987 0.89568 0.0
C861 C 0.24779 0.66276 0.8951 0.0
C862 C 0.27551 0.76543 0.85303 0.0
C863 C 0.21746 0.72313 0.91098 0.0
H864 H 0.2486 0.90681 0.8997 0.0
H865 H 0.18637 0.86011 0.86124 0.0
H866 H 0.26863 0.79437 0.91563 0.0
H867 H 0.28978 0.806 0.89541 0.0
H868 H 0.28143 0.85387 0.91171 0.0
H869 H 0.18092 0.78131 0.85169 0.0
H870 H 0.21258 0.75101 0.8487 0.0
H871 H 0.19211 0.73814 0.86915 0.0
H872 H 0.28977 0.67352 0.85681 0.0
H873 H 0.24176 0.63705 0.90591 0.0
H874 H 0.28521 0.79625 0.86026 0.0
H875 H 0.25845 0.77959 0.84448 0.0
H876 H 0.29026 0.74908 0.84301 0.0
H877 H 0.22582 0.75189 0.92018 0.0
H878 H 0.21204 0.69229 0.92024 0.0
H879 H 0.19889 0.73729 0.90423 0.0
C880 C 0.70305 0.37938 0.875 0.0
C881 C 0.71743 0.41628 0.88413 0.0
C882 C 0.71215 0.33212 0.87508 0.0
C883 C 0.73656 0.32079 0.88437 0.0
C884 C 0.75147 0.3577 0.89351 0.0
C885 C 0.74171 0.40513 0.89332 0.0
C886 C 0.69565 0.29429 0.86501 0.0
C887 C 0.77773 0.34701 0.90345 0.0
C888 C 0.74992 0.18894 0.89543 0.0
C889 C 0.76665 0.17617 0.88007 0.0
C890 C 0.74005 0.23602 0.89715 0.0
C891 C 0.74711 0.27085 0.88319 0.0
C892 C 0.76315 0.25734 0.86731 0.0
C893 C 0.77266 0.21036 0.86597 0.0
C894 C 0.72274 0.2489 0.91418 0.0
C895 C 0.77084 0.29281 0.8519 0.0
H896 H 0.6843 0.38726 0.86773 0.0
H897 H 0.75284 0.43318 0.90051 0.0
H898 H 0.70735 0.27875 0.85297 0.0
H899 H 0.69091 0.2648 0.8751 0.0
H900 H 0.67648 0.30859 0.85918 0.0
H901 H 0.78651 0.37913 0.91041 0.0
H902 H 0.77469 0.31905 0.91453 0.0
H903 H 0.79241 0.3328 0.89289 0.0
H904 H 0.74574 0.16297 0.90658 0.0
H905 H 0.78574 0.20069 0.85412 0.0
H906 H 0.70328 0.26376 0.9092 0.0
H907 H 0.73281 0.27701 0.92281 0.0
H908 H 0.71868 0.2177 0.9236 0.0
H909 H 0.75251 0.30763 0.84506 0.0
H910 H 0.7836 0.27662 0.84053 0.0
H911 H 0.78194 0.32314 0.85841 0.0
C912 C 0.79726 0.86934 0.90255 0.0
C913 C 0.78155 0.90938 0.89801 0.0
C914 C 0.78554 0.82473 0.90638 0.0
C915 C 0.75729 0.81937 0.90521 0.0
C916 C 0.74119 0.86006 0.90115 0.0
C917 C 0.75351 0.90479 0.8978 0.0
C918 C 0.80355 0.78297 0.91114 0.0
C919 C 0.71104 0.85587 0.89952 0.0
C920 C 0.73212 0.69332 0.89403 0.0
C921 C 0.72288 0.67763 0.91203 0.0
C922 C 0.74273 0.73957 0.89155 0.0
C923 C 0.74493 0.7708 0.90753 0.0
C924 C 0.73644 0.75468 0.92585 0.0
C925 C 0.72537 0.70864 0.92784 0.0
C926 C 0.75138 0.75518 0.87172 0.0
C927 C 0.73907 0.78607 0.94339 0.0
H928 H 0.81898 0.87277 0.90279 0.0
H929 H 0.74132 0.93548 0.89406 0.0
H930 H 0.79664 0.76531 0.92453 0.0
H931 H 0.80249 0.75607 0.89946 0.0
H932 H 0.82487 0.79385 0.91301 0.0
H933 H 0.70125 0.891 0.89713 0.0
H934 H 0.70588 0.83192 0.88735 0.0
H935 H 0.70259 0.8396 0.91274 0.0
H936 H 0.73067 0.66979 0.88175 0.0
H937 H 0.7185 0.69707 0.94187 0.0
H938 H 0.77327 0.76271 0.87164 0.0
H939 H 0.74093 0.78873 0.86772 0.0
H940 H 0.74704 0.72775 0.86061 0.0
H941 H 0.76042 0.79632 0.9455 0.0
H942 H 0.73178 0.76819 0.95665 0.0
H943 H 0.7275 0.8195 0.94131 0.0
C944 C 0.25732 0.37819 0.89533 0.0
C945 C 0.27923 0.38625 0.90757 0.0
C946 C 0.24417 0.33349 0.89498 0.0
C947 C 0.25285 0.29625 0.90739 0.0
C948 C 0.27393 0.3054 0.92056 0.0
C949 C 0.28701 0.34993 0.92032 0.0
C950 C 0.22193 0.32532 0.8806 0.0
C951 C 0.28347 0.26747 0.93437 0.0
C952 C 0.20469 0.19125 0.91401 0.0
C953 C 0.21522 0.15726 0.90127 0.0
C954 C 0.21729 0.23575 0.91675 0.0
C955 C 0.24065 0.24726 0.90606 0.0
C956 C 0.25189 0.21227 0.89364 0.0
C957 C 0.2391 0.1676 0.89146 0.0
C958 C 0.20488 0.27122 0.93045 0.0
C959 C 0.27663 0.22298 0.88185 0.0
H960 H 0.2516 0.40569 0.88516 0.0
H961 H 0.30407 0.35587 0.92974 0.0
H962 H 0.2282 0.29755 0.87014 0.0
H963 H 0.20364 0.31196 0.88796 0.0
H964 H 0.2167 0.3583 0.87257 0.0
H965 H 0.29829 0.28157 0.9449 0.0
H966 H 0.2662 0.25217 0.94236 0.0
H967 H 0.29301 0.23791 0.92625 0.0
H968 H 0.18588 0.18369 0.92128 0.0
H969 H 0.24681 0.14198 0.88117 0.0
H970 H 0.19668 0.30189 0.92225 0.0
H971 H 0.22034 0.28545 0.94043 0.0
H972 H 0.18835 0.25522 0.93905 0.0
H973 H 0.27229 0.25259 0.87172 0.0
H974 H 0.2835 0.19152 0.87346 0.0
H975 H 0.29328 0.23489 0.89132 0.0
C976 C 0.69385 0.36597 0.13577 0.0
C977 C 0.70975 0.40467 0.1417 0.0
C978 C 0.70506 0.32057 0.13262 0.0
C979 C 0.73278 0.31306 0.13611 0.0
C980 C 0.74909 0.35243 0.14163 0.0
C981 C 0.73742 0.39797 0.14412 0.0
C982 C 0.68704 0.28031 0.12613 0.0
C983 C 0.77863 0.34598 0.14581 0.0
C984 C 0.75723 0.18867 0.15035 0.0
C985 C 0.7712 0.1744 0.13385 0.0
C986 C 0.74404 0.23314 0.15112 0.0
C987 C 0.74444 0.26375 0.13485 0.0
C988 C 0.75702 0.24786 0.11773 0.0
C989 C 0.77068 0.20383 0.11756 0.0
C990 C 0.73126 0.2487 0.16977 0.0
C991 C 0.75728 0.27841 0.09987 0.0
H992 H 0.6724 0.37112 0.1339 0.0
H993 H 0.74965 0.42765 0.14898 0.0
H994 H 0.69596 0.2619 0.11352 0.0
H995 H 0.68512 0.25353 0.13779 0.0
H996 H 0.6666 0.29298 0.12221 0.0
H997 H 0.78868 0.38018 0.14952 0.0
H998 H 0.7812 0.32077 0.15798 0.0
H999 H 0.78892 0.33017 0.13318 0.0
H1000 H 0.75841 0.16671 0.16316 0.0
H1001 H 0.78207 0.19338 0.10495 0.0
H1002 H 0.7101 0.25955 0.16733 0.0
H1003 H 0.74211 0.28029 0.17549 0.0
H1004 H 0.73164 0.22008 0.18082 0.0
H1005 H 0.73678 0.29195 0.0967 0.0
H1006 H 0.76478 0.25854 0.08713 0.0
H1007 H 0.77043 0.30985 0.1022 0.0
C1008 C 0.20836 0.84599 0.11829 0.0
C1009 C 0.21622 0.88258 0.13089 0.0
C1010 C 0.22162 0.80168 0.11802 0.0
C1011 C 0.24303 0.7931 0.13097 0.0
C1012 C 0.25199 0.83084 0.14305 0.0
C1013 C 0.23858 0.87528 0.14278 0.0
C1014 C 0.21169 0.76317 0.10459 0.0
C1015 C 0.27466 0.82332 0.15714 0.0
C1016 C 0.25565 0.66528 0.14816 0.0
C1017 C 0.27902 0.65318 0.13809 0.0
C1018 C 0.24343 0.7103 0.14568 0.0
C1019 C 0.25481 0.74393 0.13274 0.0
C1020 C 0.27774 0.73076 0.12188 0.0
C1021 C 0.28974 0.68585 0.12488 0.0
C1022 C 0.2191 0.72274 0.15763 0.0
C1023 C 0.29029 0.76484 0.10768 0.0
H1024 H 0.19093 0.85137 0.10918 0.0
H1025 H 0.24436 0.90301 0.15284 0.0
H1026 H 0.22878 0.74687 0.09672 0.0
H1027 H 0.20191 0.73442 0.11303 0.0
H1028 H 0.19695 0.77704 0.09398 0.0
H1029 H 0.28054 0.85692 0.16451 0.0
H1030 H 0.26842 0.79694 0.16817 0.0
H1031 H 0.29252 0.80852 0.14969 0.0
H1032 H 0.24785 0.64065 0.15881 0.0
H1033 H 0.30823 0.67693 0.11744 0.0
H1034 H 0.20232 0.73421 0.14821 0.0
H1035 H 0.22395 0.75315 0.16726 0.0
H1036 H 0.21218 0.69227 0.16657 0.0
H1037 H 0.27479 0.77895 0.09771 0.0
H1038 H 0.30645 0.74768 0.0991 0.0
H1039 H 0.29899 0.79576 0.11547 0.0
C1040 C 0.21475 0.68962 0.67314 0.0
C1041 C 0.22347 0.65543 0.65975 0.0
C1042 C 0.22478 0.73635 0.67307 0.0
C1043 C 0.24438 0.74955 0.65936 0.0
C1044 C 0.25429 0.71464 0.64632 0.0
C1045 C 0.24365 0.66785 0.64663 0.0
C1046 C 0.21376 0.77197 0.68735 0.0
C1047 C 0.27554 0.72717 0.6317 0.0
C1048 C 0.2532 0.88299 0.64882 0.0
C1049 C 0.27544 0.89404 0.66035 0.0
C1050 C 0.24285 0.836 0.64824 0.0
C1051 C 0.25513 0.79945 0.65938 0.0
C1052 C 0.27707 0.81101 0.67141 0.0
C1053 C 0.28675 0.85795 0.67183 0.0
C1054 C 0.21911 0.82519 0.63547 0.0
C1055 C 0.2907 0.77356 0.68364 0.0
H1056 H 0.19913 0.68024 0.68334 0.0
H1057 H 0.25011 0.64189 0.63604 0.0
H1058 H 0.23029 0.78675 0.69625 0.0
H1059 H 0.20439 0.80232 0.6796 0.0
H1060 H 0.19851 0.75596 0.69707 0.0
H1061 H 0.28171 0.69582 0.62298 0.0
H1062 H 0.26783 0.75525 0.62191 0.0
H1063 H 0.29353 0.74192 0.63903 0.0
H1064 H 0.24459 0.91046 0.63975 0.0
H1065 H 0.30388 0.86613 0.6809 0.0
H1066 H 0.20247 0.80993 0.64414 0.0
H1067 H 0.22482 0.79801 0.62462 0.0
H1068 H 0.21162 0.85746 0.6279 0.0
H1069 H 0.27607 0.75782 0.69386 0.0
H1070 H 0.30787 0.78824 0.69197 0.0
H1071 H 0.2982 0.74415 0.6744 0.0
C1072 C 0.78318 0.37121 0.66851 0.0
C1073 C 0.77209 0.40637 0.65647 0.0
C1074 C 0.7735 0.32425 0.66858 0.0
C1075 C 0.75188 0.31166 0.65642 0.0
C1076 C 0.73988 0.34726 0.64465 0.0
C1077 C 0.75016 0.39433 0.64479 0.0
C1078 C 0.78678 0.28788 0.68152 0.0
C1079 C 0.71654 0.33534 0.63167 0.0
C1080 C 0.7415 0.17864 0.64576 0.0
C1081 C 0.72115 0.16705 0.65887 0.0
C1082 C 0.75166 0.22569 0.64467 0.0
C1083 C 0.74116 0.26174 0.65693 0.0
C1084 C 0.72121 0.24959 0.67054 0.0
C1085 C 0.7116 0.20262 0.67138 0.0
C1086 C 0.77322 0.23712 0.63014 0.0
C1087 C 0.7096 0.28646 0.68406 0.0
H1088 H 0.80007 0.38016 0.67768 0.0
H1089 H 0.74173 0.42107 0.63528 0.0
H1090 H 0.77185 0.27299 0.69173 0.0
H1091 H 0.79455 0.25771 0.67282 0.0
H1092 H 0.8037 0.30329 0.6899 0.0
H1093 H 0.7093 0.36691 0.62353 0.0
H1094 H 0.72256 0.30721 0.62131 0.0
H1095 H 0.69963 0.32085 0.64029 0.0
H1096 H 0.74865 0.1516 0.63587 0.0
H1097 H 0.69589 0.19397 0.68161 0.0
H1098 H 0.79113 0.25208 0.63751 0.0
H1099 H 0.76583 0.26473 0.62 0.0
H1100 H 0.77947 0.20521 0.62178 0.0
H1101 H 0.72576 0.30188 0.69312 0.0
H1102 H 0.69389 0.27134 0.69363 0.0
H1103 H 0.70064 0.31619 0.6757 0.0
C1104 C 0.20585 0.35526 0.3682 0.0
C1105 C 0.2174 0.39163 0.37942 0.0
C1106 C 0.2151 0.30809 0.36905 0.0
C1107 C 0.23679 0.29653 0.3813 0.0
C1108 C 0.24919 0.33323 0.3923 0.0
C1109 C 0.23931 0.38047 0.39126 0.0
C1110 C 0.2014 0.27048 0.35692 0.0
C1111 C 0.27264 0.32239 0.40532 0.0
C1112 C 0.24738 0.16481 0.39422 0.0
C1113 C 0.26758 0.15194 0.38119 0.0
C1114 C 0.23712 0.21185 0.39452 0.0
C1115 C 0.24738 0.24654 0.38152 0.0
C1116 C 0.26709 0.23296 0.36796 0.0
C1117 C 0.27677 0.18603 0.36792 0.0
C1118 C 0.21579 0.22482 0.40901 0.0
C1119 C 0.27845 0.26831 0.3537 0.0
H1120 H 0.18896 0.36347 0.35891 0.0
H1121 H 0.24812 0.40815 0.40014 0.0
H1122 H 0.21602 0.25448 0.34676 0.0
H1123 H 0.19382 0.24127 0.36623 0.0
H1124 H 0.18428 0.28511 0.34853 0.0
H1125 H 0.28002 0.35465 0.41297 0.0
H1126 H 0.2667 0.29523 0.41612 0.0
H1127 H 0.28943 0.30708 0.39683 0.0
H1128 H 0.24051 0.13888 0.40469 0.0
H1129 H 0.29235 0.17632 0.35774 0.0
H1130 H 0.19785 0.23937 0.40155 0.0
H1131 H 0.22344 0.25319 0.4187 0.0
H1132 H 0.20952 0.19374 0.41785 0.0
H1133 H 0.26212 0.28287 0.34457 0.0
H1134 H 0.29391 0.25212 0.3442 0.0
H1135 H 0.28766 0.29884 0.36145 0.0
C1136 C 0.7866 0.68806 0.36363 0.0
C1137 C 0.77509 0.65211 0.37508 0.0
C1138 C 0.77721 0.73513 0.3641 0.0
C1139 C 0.75525 0.74689 0.37606 0.0
C1140 C 0.74264 0.71044 0.38706 0.0
C1141 C 0.7528 0.66335 0.38652 0.0
C1142 C 0.79126 0.77254 0.35209 0.0
C1143 C 0.71878 0.72148 0.39967 0.0
C1144 C 0.74467 0.87827 0.38928 0.0
C1145 C 0.72486 0.89155 0.37602 0.0
C1146 C 0.75491 0.83125 0.38947 0.0
C1147 C 0.74492 0.79698 0.3762 0.0
C1148 C 0.72571 0.81105 0.36234 0.0
C1149 C 0.71613 0.85803 0.36236 0.0
C1150 C 0.77583 0.81781 0.40421 0.0
C1151 C 0.71459 0.77606 0.34784 0.0
H1152 H 0.80376 0.67973 0.35463 0.0
H1153 H 0.74401 0.63597 0.39555 0.0
H1154 H 0.77688 0.78886 0.34183 0.0
H1155 H 0.79888 0.80157 0.36148 0.0
H1156 H 0.80842 0.75766 0.34381 0.0
H1157 H 0.71085 0.68917 0.40698 0.0
H1158 H 0.72456 0.74809 0.41074 0.0
H1159 H 0.70245 0.73755 0.39094 0.0
H1160 H 0.75112 0.90374 0.40007 0.0
H1161 H 0.70077 0.86813 0.35206 0.0
H1162 H 0.79379 0.80269 0.39697 0.0
H1163 H 0.76771 0.78975 0.41385 0.0
H1164 H 0.78218 0.84879 0.41309 0.0
H1165 H 0.73111 0.7611 0.33899 0.0
H1166 H 0.6996 0.79269 0.33808 0.0
H1167 H 0.70488 0.74575 0.35539 0.0
C1168 C 0.79849 0.33852 0.38858 0.0
C1169 C 0.78501 0.38208 0.39146 0.0
C1170 C 0.78533 0.29446 0.39044 0.0
C1171 C 0.75777 0.29325 0.39541 0.0
C1172 C 0.74438 0.33688 0.3996 0.0
C1173 C 0.75815 0.38086 0.39758 0.0
C1174 C 0.80059 0.2493 0.38574 0.0
C1175 C 0.7151 0.33727 0.40519 0.0
C1176 C 0.71857 0.19105 0.37274 0.0
C1177 C 0.71681 0.15753 0.3877 0.0
C1178 C 0.73131 0.23529 0.37527 0.0
C1179 C 0.74251 0.24722 0.39336 0.0
C1180 C 0.7408 0.21364 0.40863 0.0
C1181 C 0.72815 0.16896 0.40559 0.0
C1182 C 0.73309 0.26908 0.35838 0.0
C1183 C 0.7522 0.22507 0.42819 0.0
H1184 H 0.8194 0.33872 0.38419 0.0
H1185 H 0.74757 0.41415 0.39996 0.0
H1186 H 0.79748 0.22208 0.39709 0.0
H1187 H 0.7929 0.23413 0.37207 0.0
H1188 H 0.82251 0.25574 0.38416 0.0
H1189 H 0.70872 0.37258 0.41084 0.0
H1190 H 0.70262 0.32868 0.39242 0.0
H1191 H 0.71101 0.30961 0.41622 0.0
H1192 H 0.70998 0.18254 0.35883 0.0
H1193 H 0.72654 0.14359 0.41729 0.0
H1194 H 0.75448 0.2758 0.35476 0.0
H1195 H 0.72393 0.30393 0.36216 0.0
H1196 H 0.72282 0.25493 0.34539 0.0
H1197 H 0.77423 0.23056 0.42713 0.0
H1198 H 0.74823 0.19627 0.43879 0.0
H1199 H 0.74338 0.25885 0.43363 0.0
C1200 C 0.2386 0.66872 0.39229 0.0
C1201 C 0.21406 0.65892 0.40131 0.0
C1202 C 0.25119 0.71359 0.39446 0.0
C1203 C 0.23909 0.74929 0.40613 0.0
C1204 C 0.21505 0.73831 0.41611 0.0
C1205 C 0.20267 0.69364 0.41335 0.0
C1206 C 0.27666 0.72371 0.38341 0.0
C1207 C 0.20172 0.77452 0.42904 0.0
C1208 C 0.28445 0.85329 0.42053 0.0
C1209 C 0.27734 0.88857 0.40714 0.0
C1210 C 0.27135 0.80878 0.42097 0.0
C1211 C 0.25106 0.79849 0.4073 0.0
C1212 C 0.24303 0.83478 0.39422 0.0
C1213 C 0.25611 0.87954 0.39441 0.0
C1214 C 0.28013 0.77197 0.43552 0.0
C1215 C 0.22169 0.82538 0.37928 0.0
H1216 H 0.24702 0.64251 0.38253 0.0
H1217 H 0.18339 0.68645 0.42004 0.0
H1218 H 0.27294 0.75262 0.37284 0.0
H1219 H 0.29264 0.73636 0.3933 0.0
H1220 H 0.28413 0.69177 0.3756 0.0
H1221 H 0.18473 0.75889 0.43728 0.0
H1222 H 0.21653 0.78955 0.43933 0.0
H1223 H 0.19394 0.80456 0.42028 0.0
H1224 H 0.3011 0.85995 0.43024 0.0
H1225 H 0.25102 0.90619 0.38371 0.0
H1226 H 0.29045 0.74215 0.42807 0.0
H1227 H 0.2624 0.75676 0.44302 0.0
H1228 H 0.29406 0.78711 0.44641 0.0
H1229 H 0.22869 0.79705 0.36931 0.0
H1230 H 0.21683 0.85777 0.37075 0.0
H1231 H 0.20303 0.81225 0.38621 0.0
C1232 C 0.75522 0.6813 0.64437 0.0
C1233 C 0.77628 0.67137 0.63162 0.0
C1234 C 0.74215 0.72606 0.64413 0.0
C1235 C 0.75007 0.76147 0.63064 0.0
C1236 C 0.7702 0.75024 0.61697 0.0
C1237 C 0.7833 0.70574 0.61784 0.0
C1238 C 0.72099 0.73646 0.6591 0.0
C1239 C 0.77887 0.78606 0.60201 0.0
C1240 C 0.70143 0.86563 0.62387 0.0
C1241 C 0.71288 0.90121 0.63548 0.0
C1242 C 0.71389 0.82092 0.62145 0.0
C1243 C 0.73809 0.81075 0.63136 0.0
C1244 C 0.75027 0.84728 0.64257 0.0
C1245 C 0.73762 0.89221 0.64438 0.0
C1246 C 0.70048 0.78386 0.60895 0.0
C1247 C 0.77591 0.83802 0.65355 0.0
H1248 H 0.7503 0.65544 0.65541 0.0
H1249 H 0.79995 0.6985 0.6082 0.0
H1250 H 0.72813 0.76543 0.66872 0.0
H1251 H 0.70226 0.74914 0.65213 0.0
H1252 H 0.71621 0.70464 0.66799 0.0
H1253 H 0.79257 0.77011 0.59115 0.0
H1254 H 0.76108 0.80101 0.5945 0.0
H1255 H 0.78943 0.81621 0.60907 0.0
H1256 H 0.68206 0.87225 0.61721 0.0
H1257 H 0.74615 0.91911 0.65378 0.0
H1258 H 0.69286 0.75429 0.61804 0.0
H1259 H 0.71519 0.76834 0.59872 0.0
H1260 H 0.68336 0.79887 0.60066 0.0
H1261 H 0.77237 0.80981 0.66445 0.0
H1262 H 0.78344 0.87051 0.66096 0.0
H1263 H 0.79177 0.82479 0.6437 0.0
C1264 C 0.2345 0.38452 0.63719 0.0
C1265 C 0.20887 0.38657 0.64558 0.0
C1266 C 0.24827 0.34049 0.63531 0.0
C1267 C 0.23617 0.29756 0.64197 0.0
C1268 C 0.20978 0.29937 0.64949 0.0
C1269 C 0.19657 0.34346 0.65115 0.0
C1270 C 0.27626 0.34022 0.62699 0.0
C1271 C 0.19597 0.25502 0.65693 0.0
C1272 C 0.26463 0.17203 0.63231 0.0
C1273 C 0.27936 0.16372 0.64919 0.0
C1274 C 0.25114 0.21599 0.62936 0.0
C1275 C 0.25206 0.25207 0.64374 0.0
C1276 C 0.26668 0.24331 0.66083 0.0
C1277 C 0.28012 0.1997 0.66326 0.0
C1278 C 0.23602 0.22396 0.61085 0.0
C1279 C 0.26785 0.27983 0.6768 0.0
H1280 H 0.24416 0.41735 0.63271 0.0
H1281 H 0.1766 0.34407 0.65738 0.0
H1282 H 0.29104 0.33351 0.63863 0.0
H1283 H 0.27839 0.31102 0.61632 0.0
H1284 H 0.28135 0.37467 0.61997 0.0
H1285 H 0.17454 0.26151 0.66057 0.0
H1286 H 0.19699 0.22595 0.64614 0.0
H1287 H 0.20644 0.24227 0.67006 0.0
H1288 H 0.2642 0.14476 0.62126 0.0
H1289 H 0.29129 0.19368 0.67643 0.0
H1290 H 0.24341 0.25687 0.60372 0.0
H1291 H 0.21435 0.22933 0.61393 0.0
H1292 H 0.23817 0.1935 0.60074 0.0
H1293 H 0.27589 0.31409 0.67126 0.0
H1294 H 0.28063 0.26803 0.68901 0.0
H1295 H 0.24729 0.28687 0.68231 0.0
C1296 C 0.9368 0.03888 0.12619 0.0
C1297 C 0.9278 0.07243 0.13967 0.0
C1298 C 0.96403 0.02607 0.1252 0.0
C1299 C 0.9827 0.04817 0.13772 0.0
C1300 C 0.97385 0.08383 0.15071 0.0
C1301 C 0.94637 0.09502 0.15174 0.0
C1302 C 0.97255 0.9872 0.11145 0.0
C1303 C 0.99325 0.10907 0.16395 0.0
C1304 C 0.04702 0.98453 0.15216 0.0
C1305 C 0.06585 1.00609 0.14001 0.0
C1306 C 0.01969 0.99672 0.15108 0.0
C1307 C 0.01125 0.03236 0.13794 0.0
C1308 C 0.03023 0.0538 0.12548 0.0
C1309 C 0.0573 0.03998 0.12653 0.0
C1310 C -6e-05 0.9722 0.16428 0.0
C1311 C 0.02214 0.09265 0.1116 0.0
H1312 H 0.92228 0.0208 0.11711 0.0
H1313 H 0.93929 0.12077 0.16221 0.0
H1314 H 0.98937 0.99971 0.10228 0.0
H1315 H 0.97997 0.95598 0.11972 0.0
H1316 H 0.95581 0.9753 0.10203 0.0
H1317 H 0.98356 0.13884 0.1719 0.0
H1318 H 0.00148 0.08336 0.17455 0.0
H1319 H 0.01047 0.12348 0.15563 0.0
H1320 H 0.05376 0.95848 0.16263 0.0
H1321 H 0.07204 0.05721 0.11737 0.0
H1322 H 0.98298 0.95727 0.15583 0.0
H1323 H 0.99139 0.99847 0.17452 0.0
H1324 H 0.00942 0.94289 0.17263 0.0
H1325 H 0.00567 0.08005 0.10213 0.0
H1326 H 0.03919 0.10459 0.10247 0.0
H1327 H 0.01439 0.12385 0.11971 0.0
C1328 C 0.04644 0.06879 0.89158 0.0
C1329 C 0.06499 0.06016 0.90632 0.0
C1330 C 0.0188 0.06327 0.89467 0.0
C1331 C 0.00945 0.04865 0.91298 0.0
C1332 C 0.028 0.04193 0.92819 0.0
C1333 C 0.05565 0.04785 0.92468 0.0
C1334 C -0.00031 0.0715 0.87812 0.0
C1335 C 0.01877 0.02656 0.9479 0.0
C1336 C 0.93515 0.07215 0.91855 0.0
C1337 C 0.92419 0.02885 0.91215 0.0
C1338 C 0.96299 0.07801 0.92045 0.0
C1339 C 0.98024 0.03964 0.91575 0.0
C1340 C 0.96913 0.99459 0.91087 0.0
C1341 C 0.9411 0.98967 0.90916 0.0
C1342 C 0.97393 0.12644 0.9259 0.0
C1343 C 0.98687 0.9527 0.9059 0.0
H1344 H 0.05369 0.07853 0.87741 0.0
H1345 H 0.07003 0.04058 0.93602 0.0
H1346 H 0.98903 0.03781 0.87461 0.0
H1347 H 0.98425 0.09821 0.88219 0.0
H1348 H 0.01017 0.08426 0.86499 0.0
H1349 H 0.03533 0.02751 0.95861 0.0
H1350 H 0.00219 0.0498 0.95301 0.0
H1351 H 0.01079 0.98962 0.94716 0.0
H1352 H 0.92195 0.10232 0.92106 0.0
H1353 H 0.93257 0.95624 0.9042 0.0
H1354 H 0.98232 0.14405 0.91294 0.0
H1355 H 0.99048 0.12296 0.9365 0.0
H1356 H 0.95812 0.14994 0.93204 0.0
H1357 H 0.99654 0.95907 0.89176 0.0
H1358 H 0.97534 0.91879 0.90509 0.0
H1359 H 0.00314 0.94865 0.91669 0.0
C1360 C 0.93561 0.53265 0.6135 0.0
C1361 C 0.92734 0.55345 0.63088 0.0
C1362 C 0.96279 0.52154 0.61023 0.0
C1363 C 0.98206 0.5317 0.62463 0.0
C1364 C 0.97388 0.55408 0.64194 0.0
C1365 C 0.94663 0.56457 0.64485 0.0
C1366 C 0.97076 0.49769 0.59163 0.0
C1367 C 0.99384 0.56615 0.65758 0.0
C1368 C 0.04915 0.46915 0.63056 0.0
C1369 C 0.0668 0.50525 0.62476 0.0
C1370 C 0.02118 0.47568 0.6292 0.0
C1371 C 0.0109 0.51929 0.62189 0.0
C1372 C 0.02879 0.5539 0.61444 0.0
C1373 C 0.05655 0.54644 0.61599 0.0
C1374 C 0.00273 0.4377 0.63709 0.0
C1375 C 0.01875 0.60068 0.60641 0.0
H1376 H 0.92069 0.52331 0.60279 0.0
H1377 H 0.94029 0.58087 0.65824 0.0
H1378 H 0.98721 0.51792 0.58458 0.0
H1379 H 0.97853 0.46134 0.59464 0.0
H1380 H 0.95364 0.49473 0.58144 0.0
H1381 H 0.98425 0.5843 0.67001 0.0
H1382 H 0.0037 0.53308 0.66279 0.0
H1383 H 0.00983 0.58972 0.65179 0.0
H1384 H 0.05714 0.43746 0.63745 0.0
H1385 H 0.07033 0.57428 0.61147 0.0
H1386 H 0.98564 0.43134 0.62717 0.0
H1387 H 0.99425 0.44991 0.651 0.0
H1388 H 0.01343 0.40342 0.63953 0.0
H1389 H 0.00165 0.59477 0.59647 0.0
H1390 H 0.0348 0.62043 0.59865 0.0
H1391 H 0.01141 0.62345 0.61836 0.0
C1392 C 0.94508 0.46403 0.40754 0.0
C1393 C 0.92666 0.49994 0.4121 0.0
C1394 C 0.97284 0.47203 0.40958 0.0
C1395 C 0.98208 0.51698 0.41628 0.0
C1396 C 0.96333 0.55141 0.42269 0.0
C1397 C 0.93579 0.54248 0.42047 0.0
C1398 C 0.99222 0.43416 0.40284 0.0
C1399 C 0.97225 0.59954 0.43008 0.0
C1400 C 0.05728 0.53368 0.4241 0.0
C1401 C 0.06521 0.55132 0.40611 0.0
C1402 C 0.03014 0.52327 0.42791 0.0
C1403 C 0.01066 0.53093 0.41339 0.0
C1404 C 0.0185 0.55101 0.39556 0.0
C1405 C 0.04569 0.5608 0.39213 0.0
C1406 C 0.02254 0.50202 0.44708 0.0
C1407 C -0.00168 0.56049 0.37978 0.0
H1408 H 0.93793 0.43128 0.40098 0.0
H1409 H 0.92139 0.57018 0.424 0.0
H1410 H 0.00097 0.44501 0.38883 0.0
H1411 H 0.00904 0.4301 0.41318 0.0
H1412 H 0.9822 0.39901 0.40096 0.0
H1413 H 0.95571 0.61867 0.43755 0.0
H1414 H 0.98946 0.59582 0.44011 0.0
H1415 H 0.97906 0.62181 0.41782 0.0
H1416 H 0.07245 0.5257 0.43482 0.0
H1417 H 0.05187 0.57451 0.37824 0.0
H1418 H 0.01664 0.46415 0.44507 0.0
H1419 H 0.00496 0.52092 0.45326 0.0
H1420 H 0.03938 0.50349 0.45755 0.0
H1421 H 0.98911 0.52637 0.37505 0.0
H1422 H 0.00758 0.57804 0.36708 0.0
H1423 H 0.98189 0.5836 0.38521 0.0
C1424 C 0.44293 0.09643 0.62989 0.0
C1425 C 0.42559 0.05918 0.62485 0.0
C1426 C 0.4709 0.09102 0.62797 0.0
C1427 C 0.48148 0.04733 0.62096 0.0
C1428 C 0.4638 0.01166 0.61409 0.0
C1429 C 0.43602 0.01807 0.61611 0.0
C1430 C 0.48912 0.13023 0.63515 0.0
C1431 C 0.47413 0.9647 0.60643 0.0
C1432 C 0.55697 0.03511 0.61316 0.0
C1433 C 0.56515 0.01672 0.63097 0.0
C1434 C 0.52972 0.0449 0.60949 0.0
C1435 C 0.51036 0.03566 0.62394 0.0
C1436 C 0.51851 0.01525 0.64165 0.0
C1437 C 0.54582 1.00629 0.64496 0.0
C1438 C 0.5218 0.06681 0.59051 0.0
C1439 C 0.49848 1.00399 0.65733 0.0
H1440 H 0.43479 0.1281 0.6367 0.0
H1441 H 0.42247 0.98937 0.61216 0.0
H1442 H 0.49779 0.11968 0.64922 0.0
H1443 H 0.50608 0.136 0.62505 0.0
H1444 H 0.47815 0.16444 0.63706 0.0
H1445 H 0.45821 0.94437 0.59877 0.0
H1446 H 0.49127 0.97036 0.5965 0.0
H1447 H 0.48148 0.94261 0.61859 0.0
H1448 H 0.57201 0.04386 0.60245 0.0
H1449 H 0.55221 0.99206 0.65872 0.0
H1450 H 0.51453 0.10377 0.5929 0.0
H1451 H 0.50503 0.04648 0.5839 0.0
H1452 H 0.53885 0.06798 0.58021 0.0
H1453 H 0.48852 0.03731 0.66218 0.0
H1454 H 0.50803 0.98671 0.66997 0.0
H1455 H 0.48257 0.97993 0.65173 0.0
C1456 C 0.44412 0.99158 0.40871 0.0
C1457 C 0.42632 0.02598 0.4016 0.0
C1458 C 0.47173 1.00153 0.41031 0.0
C1459 C 0.48157 0.04711 0.40488 0.0
C1460 C 0.46338 0.08278 0.39878 0.0
C1461 C 0.43599 0.07171 0.39713 0.0
C1462 C 0.49055 0.96247 0.41679 0.0
C1463 C 0.47297 0.13193 0.39309 0.0
C1464 C 0.55443 0.07526 0.41751 0.0
C1465 C 0.56743 0.06155 0.40053 0.0
C1466 C 0.52625 0.0724 0.41903 0.0
C1467 C 0.51102 0.05535 0.40321 0.0
C1468 C 0.52409 0.04407 0.38573 0.0
C1469 C 0.55209 0.04749 0.38461 0.0
C1470 C 0.51293 0.0854 0.43779 0.0
C1471 C 0.50867 0.02611 0.36847 0.0
H1472 H 0.43663 0.95632 0.41224 0.0
H1473 H 0.42212 0.09874 0.39204 0.0
H1474 H 0.50345 0.95133 0.40458 0.0
H1475 H 0.50402 0.97573 0.42833 0.0
H1476 H 0.47955 0.93065 0.42218 0.0
H1477 H 0.45603 0.15725 0.39103 0.0
H1478 H 0.48675 0.14658 0.40416 0.0
H1479 H 0.48442 0.12965 0.37943 0.0
H1480 H 0.56635 0.08577 0.42985 0.0
H1481 H 0.56223 0.03716 0.37144 0.0
H1482 H 0.50508 0.05263 0.44476 0.0
H1483 H 0.49555 0.10938 0.43523 0.0
H1484 H 0.52708 0.10318 0.44787 0.0
H1485 H 0.49886 0.99162 0.372 0.0
H1486 H 0.52179 0.02073 0.35573 0.0
H1487 H 0.49254 0.05167 0.36457 0.0
C1488 C 0.55791 0.56976 0.11597 0.0
C1489 C 0.56886 0.52709 0.12305 0.0
C1490 C 0.53006 0.57569 0.11421 0.0
C1491 C 0.51278 0.53794 0.11961 0.0
C1492 C 0.52384 0.49324 0.12501 0.0
C1493 C 0.55187 0.48832 0.12668 0.0
C1494 C 0.51918 0.62375 0.10823 0.0
C1495 C 0.50605 0.45189 0.13062 0.0
C1496 C 0.44717 0.56846 0.14428 0.0
C1497 C 0.42831 0.55891 0.12985 0.0
C1498 C 0.47474 0.56315 0.14087 0.0
C1499 C 0.48367 0.54746 0.12259 0.0
C1500 C 0.46476 0.53981 0.10767 0.0
C1501 C 0.4372 0.54579 0.11148 0.0
C1502 C 0.49424 0.57254 0.15709 0.0
C1503 C 0.47351 0.52309 0.08802 0.0
H1504 H 0.57114 0.59956 0.11287 0.0
H1505 H 0.56033 0.45532 0.13213 0.0
H1506 H 0.50236 0.6196 0.0979 0.0
H1507 H 0.51119 0.64256 0.12105 0.0
H1508 H 0.53493 0.64652 0.10158 0.0
H1509 H 0.51749 0.41794 0.13168 0.0
H1510 H 0.4967 0.45933 0.14479 0.0
H1511 H 0.48956 0.44726 0.12004 0.0
H1512 H 0.4402 0.57857 0.15848 0.0
H1513 H 0.42253 0.53773 0.1004 0.0
H1514 H 0.50977 0.59854 0.15248 0.0
H1515 H 0.50474 0.53897 0.16099 0.0
H1516 H 0.4841 0.58669 0.17013 0.0
H1517 H 0.49029 0.5454 0.08257 0.0
H1518 H 0.45679 0.52407 0.07745 0.0
H1519 H 0.48103 0.48589 0.08902 0.0
C1520 C 0.43837 0.56163 0.88124 0.0
C1521 C 0.42799 0.52527 0.89307 0.0
C1522 C 0.46566 0.57394 0.88161 0.0
C1523 C 0.48304 0.55096 0.89474 0.0
C1524 C 0.47262 0.51608 0.90746 0.0
C1525 C 0.44536 0.50305 0.90625 0.0
C1526 C 0.47606 0.61039 0.86742 0.0
C1527 C 0.4904 0.49177 0.92206 0.0
C1528 C 0.55632 0.5406 0.88067 0.0
C1529 C 0.56812 0.58002 0.88998 0.0
C1530 C 0.52877 0.53115 0.88204 0.0
C1531 C 0.51248 0.56031 0.89381 0.0
C1532 C 0.52416 0.59909 0.90388 0.0
C1533 C 0.55174 0.60899 0.9016 0.0
C1534 C 0.51707 0.49011 0.87066 0.0
C1535 C 0.50753 0.63004 0.91706 0.0
H1536 H 0.4252 0.58076 0.87154 0.0
H1537 H 0.43785 0.4749 0.91546 0.0
H1538 H 0.4862 0.64002 0.8751 0.0
H1539 H 0.49123 0.59357 0.85788 0.0
H1540 H 0.45981 0.62556 0.85834 0.0
H1541 H 0.4786 0.47055 0.93259 0.0
H1542 H 0.50462 0.46749 0.91465 0.0
H1543 H 0.50255 0.51857 0.92999 0.0
H1544 H 0.56861 0.51631 0.87236 0.0
H1545 H 0.56036 0.63953 0.90889 0.0
H1546 H 0.50067 0.50321 0.86122 0.0
H1547 H 0.50819 0.46335 0.88053 0.0
H1548 H 0.53234 0.47201 0.86157 0.0
H1549 H 0.49234 0.64996 0.9086 0.0
H1550 H 0.52002 0.65613 0.92512 0.0
H1551 H 0.49645 0.60746 0.9275 0.0
C1552 C 0.1937 0.04327 0.97492 0.0
C1553 C 0.18639 0.99748 0.96851 0.0
C1554 C 0.19568 0.0538 0.99471 0.0
C1555 C 0.18995 0.01793 1.0085 0.0
C1556 C 0.18359 0.97129 1.00212 0.0
C1557 C 0.18215 0.96161 0.98232 0.0
C1558 C 0.20294 0.10383 1.00085 0.0
C1559 C 0.17715 0.93194 1.01623 0.0
C1560 C 0.20814 0.03219 0.06171 0.0
C1561 C 0.18377 0.04831 0.06951 0.0
C1562 C 0.21075 0.02332 0.04182 0.0
C1563 C 0.18831 0.02982 0.02949 0.0
C1564 C 0.16366 0.04585 0.03737 0.0
C1565 C 0.16176 0.05513 0.05718 0.0
C1566 C 0.23749 1.00699 0.03399 0.0
C1567 C 0.13904 0.05236 0.02494 0.0
H1568 H 0.19698 0.07143 0.96454 0.0
H1569 H 0.17721 0.92579 0.97769 0.0
H1570 H 0.18519 0.12118 1.00751 0.0
H1571 H 0.2191 0.10295 1.01184 0.0
H1572 H 0.20974 0.12611 0.98857 0.0
H1573 H 0.17398 0.89699 1.00903 0.0
H1574 H 0.19361 0.9281 0.02686 0.0
H1575 H 0.15864 0.94118 0.02432 0.0
H1576 H 0.22525 0.0272 0.07113 0.0
H1577 H 0.14274 0.06679 0.06312 0.0
H1578 H 0.24421 0.0314 0.02238 0.0
H1579 H 0.23543 0.97095 0.02756 0.0
H1580 H 0.25329 1.00567 0.04527 0.0
H1581 H 0.14335 0.07802 1.0132 0.0
H1582 H 0.12146 0.06558 0.03323 0.0
H1583 H 0.13354 0.01788 1.01813 0.0
C1584 C 0.82763 0.07786 0.98167 0.0
C1585 C 0.80687 0.06402 0.9692 0.0
C1586 C 0.82688 0.0667 1.00136 0.0
C1587 C 0.80455 0.04167 1.00899 0.0
C1588 C 0.78349 0.02742 0.99646 0.0
C1589 C 0.78505 0.0383 0.97666 0.0
C1590 C 0.85012 0.08162 1.01399 0.0
C1591 C 0.75914 1.00137 1.00401 0.0
C1592 C 0.81704 0.9783 0.05667 0.0
C1593 C 0.80847 0.01234 0.07023 0.0
C1594 C 0.8151 0.9867 0.03678 0.0
C1595 C 0.80377 0.02991 0.03003 0.0
C1596 C 0.79376 0.0634 0.04354 0.0
C1597 C 0.79637 0.05442 0.06341 0.0
C1598 C 0.82627 0.95009 0.02299 0.0
C1599 C 0.78114 0.10962 0.03701 0.0
H1600 H 0.84472 0.09713 0.97593 0.0
H1601 H 0.76889 0.02788 0.9671 0.0
H1602 H 0.84291 0.10589 0.02548 0.0
H1603 H 0.85894 0.04985 0.02111 0.0
H1604 H 0.8662 0.1001 1.00577 0.0
H1605 H 0.74443 0.99301 0.99247 0.0
H1606 H 0.76533 0.96756 1.01101 0.0
H1607 H 0.74902 0.0234 1.01512 0.0
H1608 H 0.82577 0.94509 0.06155 0.0
H1609 H 0.78969 0.08121 0.07354 0.0
H1610 H 0.84363 0.96552 1.01513 0.0
H1611 H 0.81091 0.94024 1.01213 0.0
H1612 H 0.83304 0.91714 0.03043 0.0
H1613 H 0.79669 0.13268 0.03035 0.0
H1614 H 0.77175 0.1295 0.04909 0.0
H1615 H 0.76561 0.10258 0.02592 0.0
C1616 C 0.20939 0.51708 0.5611 0.0
C1617 C 0.18631 0.53843 0.56881 0.0
C1618 C 0.21133 0.50732 0.54122 0.0
C1619 C 0.18941 0.51815 0.52888 0.0
C1620 C 0.1658 0.53844 0.53681 0.0
C1621 C 0.16468 0.54874 0.55656 0.0
C1622 C 0.23703 0.48648 0.53335 0.0
C1623 C 0.14164 0.54944 0.52442 0.0
C1624 C 0.1958 0.53538 0.47453 0.0
C1625 C 0.18616 0.49162 0.46744 0.0
C1626 C 0.1983 0.54369 0.49447 0.0
C1627 C 0.19065 0.50772 0.50774 0.0
C1628 C 0.1819 0.46296 0.50068 0.0
C1629 C 0.18007 0.45534 0.48074 0.0
C1630 C 0.20819 0.59168 0.50134 0.0
C1631 C 0.17326 0.42367 0.5142 0.0
H1632 H 0.22621 0.5096 0.57052 0.0
H1633 H 0.14674 0.56489 0.56254 0.0
H1634 H 0.23281 0.45235 0.52585 0.0
H1635 H 0.24581 0.51121 0.52259 0.0
H1636 H 0.25216 0.47986 0.54479 0.0
H1637 H 0.12457 0.56396 0.53289 0.0
H1638 H 0.14716 0.57583 0.51321 0.0
H1639 H 0.13483 0.51662 0.51693 0.0
H1640 H 0.2006 0.56383 0.46459 0.0
H1641 H 0.17335 0.42089 0.47563 0.0
H1642 H 0.22414 0.58707 0.51233 0.0
H1643 H 0.19142 0.61139 0.50822 0.0
H1644 H 0.21625 0.61377 0.48939 0.0
H1645 H 0.18927 0.41635 0.52489 0.0
H1646 H 0.16847 0.38997 0.5065 0.0
H1647 H 0.15515 0.43518 0.52228 0.0
C1648 C 0.78432 0.52089 0.47326 0.0
C1649 C 0.80831 0.5393 0.46571 0.0
C1650 C 0.78144 0.51273 0.4932 0.0
C1651 C 0.80327 0.52221 0.5058 0.0
C1652 C 0.82773 0.53961 0.49807 0.0
C1653 C 0.82984 0.54829 0.47824 0.0
C1654 C 0.75489 0.4949 0.50083 0.0
C1655 C 0.85179 0.54912 0.51076 0.0
C1656 C 0.7961 0.5433 0.55989 0.0
C1657 C 0.80443 0.49925 0.56749 0.0
C1658 C 0.79421 0.55056 0.53985 0.0
C1659 C 0.8011 0.51314 0.52701 0.0
C1660 C 0.80839 0.46811 0.5346 0.0
C1661 C 0.80968 0.46163 0.55462 0.0
C1662 C 0.78591 0.59895 0.53242 0.0
C1663 C 0.81612 0.42724 0.52156 0.0
H1664 H 0.76759 0.51437 0.46363 0.0
H1665 H 0.8485 0.56203 0.47242 0.0
H1666 H 0.7578 0.4608 0.50866 0.0
H1667 H 0.74661 0.52101 0.51127 0.0
H1668 H 0.7399 0.4892 0.48922 0.0
H1669 H 0.86951 0.56168 0.50246 0.0
H1670 H 0.8467 0.57652 0.52168 0.0
H1671 H 0.85743 0.51612 0.5186 0.0
H1672 H 0.79199 0.57274 0.56952 0.0
H1673 H 0.8154 0.42702 0.56017 0.0
H1674 H 0.77017 0.59513 0.52121 0.0
H1675 H 0.80343 0.61677 0.52565 0.0
H1676 H 0.77814 0.62238 0.54405 0.0
H1677 H 0.80024 0.42096 0.51066 0.0
H1678 H 0.81954 0.39356 0.52962 0.0
H1679 H 0.83484 0.43641 0.5137 0.0
C1680 C 0.70491 0.03926 0.56233 0.0
C1681 C 0.68413 0.06785 0.56966 0.0
C1682 C 0.7071 0.03002 0.54244 0.0
C1683 C 0.68797 0.04954 0.5295 0.0
C1684 C 0.6671 0.07868 0.53681 0.0
C1685 C 0.66544 0.08738 0.55669 0.0
C1686 C 0.72968 0.99878 0.53528 0.0
C1687 C 0.64603 0.09977 0.52369 0.0
C1688 C 0.70167 0.05314 0.47524 0.0
C1689 C 0.68794 0.01235 0.46885 0.0
C1690 C 0.70217 0.06552 0.49493 0.0
C1691 C 0.68843 0.0367 0.50855 0.0
C1692 C 0.67421 0.99599 0.50208 0.0
C1693 C 0.67413 0.98444 0.48243 0.0
C1694 C 0.71756 0.10924 0.5012 0.0
C1695 C 0.65892 0.96454 0.51592 0.0
H1696 H 0.71959 0.02434 0.57213 0.0
H1697 H 0.64897 0.10873 0.56209 0.0
H1698 H 0.72129 0.96579 0.5288 0.0
H1699 H 0.74112 0.01754 0.52386 0.0
H1700 H 0.74379 0.98854 0.54695 0.0
H1701 H 0.632 0.12385 0.53145 0.0
H1702 H 0.65575 0.12018 0.51192 0.0
H1703 H 0.63418 0.07071 0.51693 0.0
H1704 H 0.7125 0.07473 0.4649 0.0
H1705 H 0.66297 0.95345 0.47766 0.0
H1706 H 0.73323 0.09906 0.51179 0.0
H1707 H 0.70382 0.13469 0.50846 0.0
H1708 H 0.72737 0.12772 0.48894 0.0
H1709 H 0.67271 0.95055 0.52711 0.0
H1710 H 0.64911 0.93384 0.50863 0.0
H1711 H 0.64321 0.9857 0.52337 0.0
C1712 C 0.30982 0.09873 0.48227 0.0
C1713 C 0.30411 0.06164 0.46924 0.0
C1714 C 0.30862 0.09167 0.50226 0.0
C1715 C 0.30097 0.04661 0.50965 0.0
C1716 C 0.29365 0.00978 0.49666 0.0
C1717 C 0.29546 0.01758 0.47667 0.0
C1718 C 0.31682 0.1319 0.51548 0.0
C1719 C 0.28497 0.96139 0.50389 0.0
C1720 C 0.32954 1.008 0.55799 0.0
C1721 C 0.30807 0.01659 0.5706 0.0
C1722 C 0.32752 0.01818 0.53828 0.0
C1723 C 0.3032 0.03674 0.53077 0.0
C1724 C 0.28148 0.04604 0.54347 0.0
C1725 C 0.28428 0.03632 0.56329 0.0
C1726 C 0.35146 1.00877 0.52547 0.0
C1727 C 0.2551 0.06514 0.53605 0.0
H1728 H 0.3158 0.13335 0.47687 0.0
H1729 H 0.291 0.98851 0.46694 0.0
H1730 H 0.30112 0.13818 0.5265 0.0
H1731 H 0.33555 0.12201 0.52318 0.0
H1732 H 0.32042 0.16577 0.50758 0.0
H1733 H 0.27696 0.93848 0.49217 0.0
H1734 H 0.30236 0.94293 0.51055 0.0
H1735 H 0.2693 0.96528 0.51513 0.0
H1736 H 0.34806 0.99326 0.56364 0.0
H1737 H 0.26761 0.04256 0.57299 0.0
H1738 H 0.35725 0.04196 0.51782 0.0
H1739 H 0.34614 0.98187 0.5144 0.0
H1740 H 0.36915 0.99559 0.53364 0.0
H1741 H 0.25836 0.09924 0.5283 0.0
H1742 H 0.24033 0.07123 0.54777 0.0
H1743 H 0.24635 0.03955 0.5256 0.0
C1744 C 0.70476 0.5223 0.06126 0.0
C1745 C 0.68742 0.55786 0.06819 0.0
C1746 C 0.70533 0.51024 0.04153 0.0
C1747 C 0.68783 0.53372 0.02848 0.0
C1748 C 0.6699 0.56886 0.03555 0.0
C1749 C 0.67003 0.58057 0.05519 0.0
C1750 C 0.72493 0.47294 0.03461 0.0
C1751 C 0.65052 0.59428 0.02234 0.0
C1752 C 0.70025 0.54241 0.97438 0.0
C1753 C 0.68188 0.5089 0.96704 0.0
C1754 C 0.70347 0.54907 0.99435 0.0
C1755 C 0.68787 0.52185 1.00742 0.0
C1756 C 0.67029 0.4864 1.00014 0.0
C1757 C 0.66765 0.48021 0.98014 0.0
C1758 C 0.72266 0.58695 1.00142 0.0
C1759 C 0.6532 0.45655 1.01345 0.0
H1760 H 0.71835 0.50483 0.07118 0.0
H1761 H 0.65622 0.60744 0.06046 0.0
H1762 H 0.71401 0.44366 0.02723 0.0
H1763 H 0.73887 0.48894 0.02396 0.0
H1764 H 0.73694 0.4575 0.04655 0.0
H1765 H 0.63758 0.62016 0.03013 0.0
H1766 H 0.66179 0.61374 1.01103 0.0
H1767 H 0.63741 0.56791 1.015 0.0
H1768 H 0.71131 0.56504 0.96457 0.0
H1769 H 0.65384 0.45348 0.97477 0.0
H1770 H 0.73579 0.5724 1.0129 0.0
H1771 H 0.7111 0.61696 1.00773 0.0
H1772 H 0.73551 0.6012 0.98969 0.0
H1773 H 0.66579 0.44018 0.02484 0.0
H1774 H 0.64232 0.42774 1.0057 0.0
H1775 H 0.6382 0.47969 0.02069 0.0
C1776 C 0.33232 0.56065 0.98023 0.0
C1777 C 0.31031 0.55331 0.96794 0.0
C1778 C 0.33067 0.55086 1.00002 0.0
C1779 C 0.30623 0.5339 1.00795 0.0
C1780 C 0.28375 0.52711 0.99568 0.0
C1781 C 0.28614 0.53639 0.97581 0.0
C1782 C 0.35535 0.55765 1.01237 0.0
C1783 C 0.2572 0.50989 1.00355 0.0
C1784 C 0.31268 0.46321 0.05453 0.0
C1785 C 0.30813 0.49812 0.06871 0.0
C1786 C 0.31145 0.4741 0.03482 0.0
C1787 C 0.30489 0.52097 0.02887 0.0
C1788 C 0.29892 0.55591 0.043 0.0
C1789 C 0.30077 0.54422 0.0627 0.0
C1790 C 0.3182 0.43569 0.02036 0.0
C1791 C 0.29138 0.60613 0.03732 0.0
H1792 H 0.35118 0.57299 0.97424 0.0
H1793 H 0.26901 0.53104 0.96644 0.0
H1794 H 0.35091 0.58262 0.02433 0.0
H1795 H 0.36126 0.52305 0.01888 0.0
H1796 H 0.37269 0.57182 1.00408 0.0
H1797 H 0.24124 0.50899 0.99238 0.0
H1798 H 0.25953 0.47349 1.00958 0.0
H1799 H 0.25054 0.53346 1.01545 0.0
H1800 H 0.31764 0.42714 0.05879 0.0
H1801 H 0.29723 0.5717 0.07334 0.0
H1802 H 0.33645 0.44609 1.01219 0.0
H1803 H 0.30162 0.43165 1.00984 0.0
H1804 H 0.32193 0.40055 0.02726 0.0
H1805 H 0.30897 0.62409 0.0307 0.0
H1806 H 0.28461 0.6277 0.04981 0.0
H1807 H 0.27511 0.60551 0.0264 0.0
loop_
_geom_bond_atom_site_label_1
_geom_bond_atom_site_label_2
_geom_bond_distance
_geom_bond_site_symmetry_2
_ccdc_geom_bond_type
C0 C1 1.351 . S
C0 N3 1.368 . S
C0 H5 0.931 . S
C1 C0 1.351 . S
C1 N2 1.373 . S
C1 H29 0.930 . S
N2 C1 1.373 . S
N2 C4 1.340 . S
N3 C0 1.368 . S
N3 C4 1.321 . S
N3 Co6 2.135 . S
C4 N2 1.340 . S
C4 N3 1.321 . S
C4 H28 0.930 1_545 S
H5 C0 0.931 . S
Co6 N3 2.135 . S
Co6 N9 2.121 . S
Co6 O14 2.055 . S
Co6 O17 2.039 1_545 S
Co6 N20 2.140 . S
C7 O8 1.227 . S
C7 O17 1.265 . S
O8 C7 1.227 . S
N9 Co6 2.121 . S
N9 C11 1.375 1_545 S
N9 C12 1.313 . S
C10 C11 1.338 . S
C10 N13 1.377 1_565 S
C10 H30 0.930 . S
C11 N9 1.375 1_565 S
C11 C10 1.338 . S
C11 H15 0.931 . S
C12 N9 1.313 . S
C12 N13 1.344 . S
C12 H16 0.930 . S
N13 C10 1.377 1_545 S
N13 C12 1.344 . S
O14 Co6 2.055 . S
O14 C18 1.253 . S
H15 C11 0.931 . S
H16 C12 0.930 . S
O17 Co6 2.039 1_565 S
O17 C7 1.265 . S
C18 O14 1.253 . S
C18 O19 1.227 . S
O19 C18 1.227 . S
N20 Co6 2.140 . S
N20 C23 1.346 . S
N20 C24 1.345 . S
C21 C22 1.387 . S
C21 C25 1.391 . S
C22 C21 1.387 . S
C22 C23 1.369 . S
C22 H31 0.929 1_545 S
C23 N20 1.346 . S
C23 C22 1.369 . S
C23 H26 0.928 1_545 S
C24 N20 1.345 . S
C24 C25 1.371 . S
C24 H27 0.931 . S
C25 C21 1.391 . S
C25 C24 1.371 . S
C25 H32 0.930 . S
H26 C23 0.928 1_565 S
H27 C24 0.931 . S
H28 C4 0.930 1_565 S
H29 C1 0.930 . S
H30 C10 0.930 . S
H31 C22 0.929 1_565 S
H32 C25 0.930 . S
C33 C34 1.351 . S
C33 N36 1.368 . S
C33 H38 0.931 . S
C34 C33 1.351 . S
C34 N35 1.373 1_565 S
C34 H62 0.930 . S
N35 C34 1.373 1_545 S
N35 C37 1.340 . S
N36 C33 1.368 . S
N36 C37 1.321 1_565 S
N36 Co39 2.135 1_565 S
C37 N35 1.340 . S
C37 N36 1.321 1_545 S
C37 H61 0.930 . S
H38 C33 0.931 . S
Co39 N36 2.135 1_545 S
Co39 N42 2.121 . S
Co39 O47 2.055 1_545 S
Co39 O50 2.039 . S
Co39 N53 2.140 . S
C40 O41 1.227 . S
C40 O50 1.265 . S
O41 C40 1.227 . S
N42 Co39 2.121 . S
N42 C44 1.375 . S
N42 C45 1.313 1_545 S
C43 C44 1.338 . S
C43 N46 1.377 . S
C43 H63 0.930 . S
C44 N42 1.375 . S
C44 C43 1.338 . S
C44 H48 0.931 . S
C45 N42 1.313 1_565 S
C45 N46 1.344 1_565 S
C45 H49 0.930 . S
N46 C43 1.377 . S
N46 C45 1.344 1_545 S
O47 Co39 2.055 1_565 S
O47 C51 1.253 . S
H48 C44 0.931 . S
H49 C45 0.930 . S
O50 Co39 2.039 . S
O50 C40 1.265 . S
C51 O47 1.253 . S
C51 O52 1.227 . S
O52 C51 1.227 . S
N53 Co39 2.140 . S
N53 C56 1.346 . S
N53 C57 1.345 1_545 S
C54 C55 1.387 . S
C54 C58 1.391 1_545 S
C55 C54 1.387 . S
C55 C56 1.369 . S
C55 H64 0.929 . S
C56 N53 1.346 . S
C56 C55 1.369 . S
C56 H59 0.928 . S
C57 N53 1.345 1_565 S
C57 C58 1.371 . S
C57 H60 0.931 . S
C58 C54 1.391 1_565 S
C58 C57 1.371 . S
C58 H65 0.930 . S
H59 C56 0.928 . S
H60 C57 0.931 . S
H61 C37 0.930 . S
H62 C34 0.930 . S
H63 C43 0.930 . S
H64 C55 0.929 . S
H65 C58 0.930 . S
C66 C67 1.351 . S
C66 N69 1.368 . S
C66 H71 0.931 . S
C67 C66 1.351 . S
C67 N68 1.373 1_565 S
C67 H95 0.930 . S
N68 C67 1.373 1_545 S
N68 C70 1.340 . S
N69 C66 1.368 . S
N69 C70 1.321 1_565 S
N69 Co72 2.135 1_565 S
C70 N68 1.340 . S
C70 N69 1.321 1_545 S
C70 H94 0.930 . S
H71 C66 0.931 . S
Co72 N69 2.135 1_545 S
Co72 N75 2.121 . S
Co72 O80 2.055 1_545 S
Co72 O83 2.039 . S
Co72 N86 2.140 . S
C73 O74 1.227 . S
C73 O83 1.265 . S
O74 C73 1.227 . S
N75 Co72 2.121 . S
N75 C77 1.375 . S
N75 C78 1.313 1_545 S
C76 C77 1.338 . S
C76 N79 1.377 . S
C76 H96 0.930 . S
C77 N75 1.375 . S
C77 C76 1.338 . S
C77 H81 0.931 . S
C78 N75 1.313 1_565 S
C78 N79 1.344 1_565 S
C78 H82 0.930 . S
N79 C76 1.377 . S
N79 C78 1.344 1_545 S
O80 Co72 2.055 1_565 S
O80 C84 1.253 . S
H81 C77 0.931 . S
H82 C78 0.930 . S
O83 Co72 2.039 . S
O83 C73 1.265 . S
C84 O80 1.253 . S
C84 O85 1.227 . S
O85 C84 1.227 . S
N86 Co72 2.140 . S
N86 C89 1.346 . S
N86 C90 1.345 1_545 S
C87 C88 1.387 . S
C87 C91 1.391 1_545 S
C88 C87 1.387 . S
C88 C89 1.369 . S
C88 H97 0.929 . S
C89 N86 1.346 . S
C89 C88 1.369 . S
C89 H92 0.928 . S
C90 N86 1.345 1_565 S
C90 C91 1.371 . S
C90 H93 0.931 . S
C91 C87 1.391 1_565 S
C91 C90 1.371 . S
C91 H98 0.930 . S
H92 C89 0.928 . S
H93 C90 0.931 . S
H94 C70 0.930 . S
H95 C67 0.930 . S
H96 C76 0.930 . S
H97 C88 0.929 . S
H98 C91 0.930 . S
C99 C100 1.351 . S
C99 N102 1.368 . S
C99 H104 0.931 . S
C100 C99 1.351 . S
C100 N101 1.373 . S
C100 H128 0.930 . S
N101 C100 1.373 . S
N101 C103 1.340 . S
N102 C99 1.368 . S
N102 C103 1.321 . S
N102 Co105 2.135 . S
C103 N101 1.340 . S
C103 N102 1.321 . S
C103 H127 0.930 1_545 S
H104 C99 0.931 . S
Co105 N102 2.135 . S
Co105 N108 2.121 . S
Co105 O113 2.055 . S
Co105 O116 2.039 1_545 S
Co105 N119 2.140 . S
C106 O107 1.227 . S
C106 O116 1.265 . S
O107 C106 1.227 . S
N108 Co105 2.121 . S
N108 C110 1.375 1_545 S
N108 C111 1.313 . S
C109 C110 1.338 . S
C109 N112 1.377 1_565 S
C109 H129 0.930 . S
C110 N108 1.375 1_565 S
C110 C109 1.338 . S
C110 H114 0.931 . S
C111 N108 1.313 . S
C111 N112 1.344 . S
C111 H115 0.930 . S
N112 C109 1.377 1_545 S
N112 C111 1.344 . S
O113 Co105 2.055 . S
O113 C117 1.253 . S
H114 C110 0.931 . S
H115 C111 0.930 . S
O116 Co105 2.039 1_565 S
O116 C106 1.265 . S
C117 O113 1.253 . S
C117 O118 1.227 . S
O118 C117 1.227 . S
N119 Co105 2.140 . S
N119 C122 1.346 . S
N119 C123 1.345 . S
C120 C121 1.387 . S
C120 C124 1.391 . S
C121 C120 1.387 . S
C121 C122 1.369 . S
C121 H130 0.929 1_545 S
C122 N119 1.346 . S
C122 C121 1.369 . S
C122 H125 0.928 1_545 S
C123 N119 1.345 . S
C123 C124 1.371 . S
C123 H126 0.931 . S
C124 C120 1.391 . S
C124 C123 1.371 . S
C124 H131 0.930 . S
H125 C122 0.928 1_565 S
H126 C123 0.931 . S
H127 C103 0.930 1_565 S
H128 C100 0.930 . S
H129 C109 0.930 . S
H130 C121 0.929 1_565 S
H131 C124 0.930 . S
C132 C133 1.351 . S
C132 N135 1.368 . S
C132 H137 0.931 . S
C133 C132 1.351 . S
C133 N134 1.373 . S
C133 H161 0.930 . S
N134 C133 1.373 . S
N134 C136 1.340 . S
N135 C132 1.368 . S
N135 C136 1.321 . S
N135 Co138 2.135 . S
C136 N134 1.340 . S
C136 N135 1.321 . S
C136 H160 0.930 . S
H137 C132 0.931 . S
Co138 N135 2.135 . S
Co138 N141 2.121 . S
Co138 O146 2.055 . S
Co138 O149 2.039 . S
Co138 N152 2.140 . S
C139 O140 1.227 . S
C139 O149 1.265 . S
O140 C139 1.227 . S
N141 Co138 2.121 . S
N141 C143 1.375 . S
N141 C144 1.313 . S
C142 C143 1.338 . S
C142 N145 1.377 . S
C142 H162 0.930 . S
C143 N141 1.375 . S
C143 C142 1.338 . S
C143 H147 0.931 . S
C144 N141 1.313 . S
C144 N145 1.344 . S
C144 H148 0.930 . S
N145 C142 1.377 . S
N145 C144 1.344 . S
O146 Co138 2.055 . S
O146 C150 1.253 . S
H147 C143 0.931 . S
H148 C144 0.930 . S
O149 Co138 2.039 . S
O149 C139 1.265 . S
C150 O146 1.253 . S
C150 O151 1.227 . S
O151 C150 1.227 . S
N152 Co138 2.140 . S
N152 C155 1.346 . S
N152 C156 1.345 . S
C153 C154 1.387 . S
C153 C157 1.391 . S
C154 C153 1.387 . S
C154 C155 1.369 . S
C154 H163 0.929 . S
C155 N152 1.346 . S
C155 C154 1.369 . S
C155 H158 0.928 . S
C156 N152 1.345 . S
C156 C157 1.371 . S
C156 H159 0.931 . S
C157 C153 1.391 . S
C157 C156 1.371 . S
C157 H164 0.930 . S
H158 C155 0.928 . S
H159 C156 0.931 . S
H160 C136 0.930 . S
H161 C133 0.930 . S
H162 C142 0.930 . S
H163 C154 0.929 . S
H164 C157 0.930 . S
C165 C166 1.351 . S
C165 N168 1.368 . S
C165 H170 0.931 . S
C166 C165 1.351 . S
C166 N167 1.373 . S
C166 H194 0.930 . S
N167 C166 1.373 . S
N167 C169 1.340 . S
N168 C165 1.368 . S
N168 C169 1.321 . S
N168 Co171 2.135 . S
C169 N167 1.340 . S
C169 N168 1.321 . S
C169 H193 0.930 . S
H170 C165 0.931 . S
Co171 N168 2.135 . S
Co171 N174 2.121 . S
Co171 O179 2.055 . S
Co171 O182 2.039 . S
Co171 N185 2.140 . S
C172 O173 1.227 . S
C172 O182 1.265 . S
O173 C172 1.227 . S
N174 Co171 2.121 . S
N174 C176 1.375 . S
N174 C177 1.313 . S
C175 C176 1.338 . S
C175 N178 1.377 . S
C175 H195 0.930 . S
C176 N174 1.375 . S
C176 C175 1.338 . S
C176 H180 0.931 . S
C177 N174 1.313 . S
C177 N178 1.344 . S
C177 H181 0.930 . S
N178 C175 1.377 . S
N178 C177 1.344 . S
O179 Co171 2.055 . S
O179 C183 1.253 . S
H180 C176 0.931 . S
H181 C177 0.930 . S
O182 Co171 2.039 . S
O182 C172 1.265 . S
C183 O179 1.253 . S
C183 O184 1.227 . S
O184 C183 1.227 . S
N185 Co171 2.140 . S
N185 C188 1.346 . S
N185 C189 1.345 . S
C186 C187 1.387 . S
C186 C190 1.391 . S
C187 C186 1.387 . S
C187 C188 1.369 . S
C187 H196 0.929 . S
C188 N185 1.346 . S
C188 C187 1.369 . S
C188 H191 0.928 . S
C189 N185 1.345 . S
C189 C190 1.371 . S
C189 H192 0.931 . S
C190 C186 1.391 . S
C190 C189 1.371 . S
C190 H197 0.930 . S
H191 C188 0.928 . S
H192 C189 0.931 . S
H193 C169 0.930 . S
H194 C166 0.930 . S
H195 C175 0.930 . S
H196 C187 0.929 . S
H197 C190 0.930 . S
C198 C199 1.351 . S
C198 N201 1.368 . S
C198 H203 0.931 . S
C199 C198 1.351 . S
C199 N200 1.373 . S
C199 H227 0.930 . S
N200 C199 1.373 . S
N200 C202 1.340 . S
N201 C198 1.368 . S
N201 C202 1.321 . S
N201 Co204 2.135 . S
C202 N200 1.340 . S
C202 N201 1.321 . S
C202 H226 0.930 . S
H203 C198 0.931 . S
Co204 N201 2.135 . S
Co204 N207 2.121 . S
Co204 O212 2.055 . S
Co204 O215 2.039 . S
Co204 N218 2.140 . S
C205 O206 1.227 . S
C205 O215 1.265 . S
O206 C205 1.227 . S
N207 Co204 2.121 . S
N207 C209 1.375 . S
N207 C210 1.313 . S
C208 C209 1.338 . S
C208 N211 1.377 . S
C208 H228 0.930 . S
C209 N207 1.375 . S
C209 C208 1.338 . S
C209 H213 0.931 . S
C210 N207 1.313 . S
C210 N211 1.344 . S
C210 H214 0.930 . S
N211 C208 1.377 . S
N211 C210 1.344 . S
O212 Co204 2.055 . S
O212 C216 1.253 . S
H213 C209 0.931 . S
H214 C210 0.930 . S
O215 Co204 2.039 . S
O215 C205 1.265 . S
C216 O212 1.253 . S
C216 O217 1.227 . S
O217 C216 1.227 . S
N218 Co204 2.140 . S
N218 C221 1.346 . S
N218 C222 1.345 . S
C219 C220 1.387 . S
C219 C223 1.391 . S
C220 C219 1.387 . S
C220 C221 1.369 . S
C220 H229 0.929 . S
C221 N218 1.346 . S
C221 C220 1.369 . S
C221 H224 0.928 . S
C222 N218 1.345 . S
C222 C223 1.371 . S
C222 H225 0.931 . S
C223 C219 1.391 . S
C223 C222 1.371 . S
C223 H230 0.930 . S
H224 C221 0.928 . S
H225 C222 0.931 . S
H226 C202 0.930 . S
H227 C199 0.930 . S
H228 C208 0.930 . S
H229 C220 0.929 . S
H230 C223 0.930 . S
C231 C232 1.351 . S
C231 N234 1.368 . S
C231 H236 0.931 . S
C232 C231 1.351 . S
C232 N233 1.373 . S
C232 H260 0.930 . S
N233 C232 1.373 . S
N233 C235 1.340 . S
N234 C231 1.368 . S
N234 C235 1.321 . S
N234 Co237 2.135 . S
C235 N233 1.340 . S
C235 N234 1.321 . S
C235 H259 0.930 . S
H236 C231 0.931 . S
Co237 N234 2.135 . S
Co237 N240 2.121 . S
Co237 O245 2.055 . S
Co237 O248 2.039 . S
Co237 N251 2.140 . S
C238 O239 1.227 . S
C238 O248 1.265 . S
O239 C238 1.227 . S
N240 Co237 2.121 . S
N240 C242 1.375 . S
N240 C243 1.313 . S
C241 C242 1.338 . S
C241 N244 1.377 . S
C241 H261 0.930 . S
C242 N240 1.375 . S
C242 C241 1.338 . S
C242 H246 0.931 . S
C243 N240 1.313 . S
C243 N244 1.344 . S
C243 H247 0.930 . S
N244 C241 1.377 . S
N244 C243 1.344 . S
O245 Co237 2.055 . S
O245 C249 1.253 . S
H246 C242 0.931 . S
H247 C243 0.930 . S
O248 Co237 2.039 . S
O248 C238 1.265 . S
C249 O245 1.253 . S
C249 O250 1.227 . S
O250 C249 1.227 . S
N251 Co237 2.140 . S
N251 C254 1.346 . S
N251 C255 1.345 . S
C252 C253 1.387 . S
C252 C256 1.391 . S
C253 C252 1.387 . S
C253 C254 1.369 . S
C253 H262 0.929 . S
C254 N251 1.346 . S
C254 C253 1.369 . S
C254 H257 0.928 . S
C255 N251 1.345 . S
C255 C256 1.371 . S
C255 H258 0.931 . S
C256 C252 1.391 . S
C256 C255 1.371 . S
C256 H263 0.930 . S
H257 C254 0.928 . S
H258 C255 0.931 . S
H259 C235 0.930 . S
H260 C232 0.930 . S
H261 C241 0.930 . S
H262 C253 0.929 . S
H263 C256 0.930 . S
C264 C265 1.351 . S
C264 N267 1.368 . S
C264 H269 0.931 . S
C265 C264 1.351 . S
C265 N266 1.373 . S
C265 H293 0.930 . S
N266 C265 1.373 . S
N266 C268 1.340 . S
N267 C264 1.368 . S
N267 C268 1.321 . S
N267 Co270 2.135 . S
C268 N266 1.340 . S
C268 N267 1.321 . S
C268 H292 0.930 1_545 S
H269 C264 0.931 . S
Co270 N267 2.135 . S
Co270 N273 2.121 . S
Co270 O278 2.055 . S
Co270 O281 2.039 1_545 S
Co270 N284 2.140 . S
C271 O272 1.227 . S
C271 O281 1.265 . S
O272 C271 1.227 . S
N273 Co270 2.121 . S
N273 C275 1.375 1_545 S
N273 C276 1.313 . S
C274 C275 1.338 . S
C274 N277 1.377 1_565 S
C274 H294 0.930 . S
C275 N273 1.375 1_565 S
C275 C274 1.338 . S
C275 H279 0.931 . S
C276 N273 1.313 . S
C276 N277 1.344 . S
C276 H280 0.930 . S
N277 C274 1.377 1_545 S
N277 C276 1.344 . S
O278 Co270 2.055 . S
O278 C282 1.253 . S
H279 C275 0.931 . S
H280 C276 0.930 . S
O281 Co270 2.039 1_565 S
O281 C271 1.265 . S
C282 O278 1.253 . S
C282 O283 1.227 . S
O283 C282 1.227 . S
N284 Co270 2.140 . S
N284 C287 1.346 . S
N284 C288 1.345 . S
C285 C286 1.387 . S
C285 C289 1.391 . S
C286 C285 1.387 . S
C286 C287 1.369 . S
C286 H295 0.929 1_545 S
C287 N284 1.346 . S
C287 C286 1.369 . S
C287 H290 0.928 1_545 S
C288 N284 1.345 . S
C288 C289 1.371 . S
C288 H291 0.931 . S
C289 C285 1.391 . S
C289 C288 1.371 . S
C289 H296 0.930 . S
H290 C287 0.928 1_565 S
H291 C288 0.931 . S
H292 C268 0.930 1_565 S
H293 C265 0.930 . S
H294 C274 0.930 . S
H295 C286 0.929 1_565 S
H296 C289 0.930 . S
C297 C298 1.351 . S
C297 N300 1.368 . S
C297 H302 0.931 . S
C298 C297 1.351 . S
C298 N299 1.373 1_565 S
C298 H326 0.930 . S
N299 C298 1.373 1_545 S
N299 C301 1.340 . S
N300 C297 1.368 . S
N300 C301 1.321 1_565 S
N300 Co303 2.135 1_565 S
C301 N299 1.340 . S
C301 N300 1.321 1_545 S
C301 H325 0.930 . S
H302 C297 0.931 . S
Co303 N300 2.135 1_545 S
Co303 N306 2.121 . S
Co303 O311 2.055 1_545 S
Co303 O314 2.039 . S
Co303 N317 2.140 . S
C304 O305 1.227 . S
C304 O314 1.265 . S
O305 C304 1.227 . S
N306 Co303 2.121 . S
N306 C308 1.375 . S
N306 C309 1.313 1_545 S
C307 C308 1.338 . S
C307 N310 1.377 . S
C307 H327 0.930 . S
C308 N306 1.375 . S
C308 C307 1.338 . S
C308 H312 0.931 . S
C309 N306 1.313 1_565 S
C309 N310 1.344 1_565 S
C309 H313 0.930 . S
N310 C307 1.377 . S
N310 C309 1.344 1_545 S
O311 Co303 2.055 1_565 S
O311 C315 1.253 . S
H312 C308 0.931 . S
H313 C309 0.930 . S
O314 Co303 2.039 . S
O314 C304 1.265 . S
C315 O311 1.253 . S
C315 O316 1.227 . S
O316 C315 1.227 . S
N317 Co303 2.140 . S
N317 C320 1.346 . S
N317 C321 1.345 1_545 S
C318 C319 1.387 . S
C318 C322 1.391 1_545 S
C319 C318 1.387 . S
C319 C320 1.369 . S
C319 H328 0.929 . S
C320 N317 1.346 . S
C320 C319 1.369 . S
C320 H323 0.928 . S
C321 N317 1.345 1_565 S
C321 C322 1.371 . S
C321 H324 0.931 . S
C322 C318 1.391 1_565 S
C322 C321 1.371 . S
C322 H329 0.930 . S
H323 C320 0.928 . S
H324 C321 0.931 . S
H325 C301 0.930 . S
H326 C298 0.930 . S
H327 C307 0.930 . S
H328 C319 0.929 . S
H329 C322 0.930 . S
C330 C331 1.351 . S
C330 N333 1.368 . S
C330 H335 0.931 . S
C331 C330 1.351 . S
C331 N332 1.373 1_565 S
C331 H359 0.930 . S
N332 C331 1.373 1_545 S
N332 C334 1.340 . S
N333 C330 1.368 . S
N333 C334 1.321 1_565 S
N333 Co336 2.135 1_565 S
C334 N332 1.340 . S
C334 N333 1.321 1_545 S
C334 H358 0.930 . S
H335 C330 0.931 . S
Co336 N333 2.135 1_545 S
Co336 N339 2.121 . S
Co336 O344 2.055 1_545 S
Co336 O347 2.039 . S
Co336 N350 2.140 . S
C337 O338 1.227 . S
C337 O347 1.265 . S
O338 C337 1.227 . S
N339 Co336 2.121 . S
N339 C341 1.375 . S
N339 C342 1.313 1_545 S
C340 C341 1.338 . S
C340 N343 1.377 . S
C340 H360 0.930 . S
C341 N339 1.375 . S
C341 C340 1.338 . S
C341 H345 0.931 . S
C342 N339 1.313 1_565 S
C342 N343 1.344 1_565 S
C342 H346 0.930 . S
N343 C340 1.377 . S
N343 C342 1.344 1_545 S
O344 Co336 2.055 1_565 S
O344 C348 1.253 . S
H345 C341 0.931 . S
H346 C342 0.930 . S
O347 Co336 2.039 . S
O347 C337 1.265 . S
C348 O344 1.253 . S
C348 O349 1.227 . S
O349 C348 1.227 . S
N350 Co336 2.140 . S
N350 C353 1.346 . S
N350 C354 1.345 1_545 S
C351 C352 1.387 . S
C351 C355 1.391 1_545 S
C352 C351 1.387 . S
C352 C353 1.369 . S
C352 H361 0.929 . S
C353 N350 1.346 . S
C353 C352 1.369 . S
C353 H356 0.928 . S
C354 N350 1.345 1_565 S
C354 C355 1.371 . S
C354 H357 0.931 . S
C355 C351 1.391 1_565 S
C355 C354 1.371 . S
C355 H362 0.930 . S
H356 C353 0.928 . S
H357 C354 0.931 . S
H358 C334 0.930 . S
H359 C331 0.930 . S
H360 C340 0.930 . S
H361 C352 0.929 . S
H362 C355 0.930 . S
C363 C364 1.351 . S
C363 N366 1.368 . S
C363 H368 0.931 . S
C364 C363 1.351 . S
C364 N365 1.373 . S
C364 H392 0.930 . S
N365 C364 1.373 . S
N365 C367 1.340 . S
N366 C363 1.368 . S
N366 C367 1.321 . S
N366 Co369 2.135 . S
C367 N365 1.340 . S
C367 N366 1.321 . S
C367 H391 0.930 1_545 S
H368 C363 0.931 . S
Co369 N366 2.135 . S
Co369 N372 2.121 . S
Co369 O377 2.055 . S
Co369 O380 2.039 1_545 S
Co369 N383 2.140 . S
C370 O371 1.227 . S
C370 O380 1.265 . S
O371 C370 1.227 . S
N372 Co369 2.121 . S
N372 C374 1.375 1_545 S
N372 C375 1.313 . S
C373 C374 1.338 . S
C373 N376 1.377 1_565 S
C373 H393 0.930 . S
C374 N372 1.375 1_565 S
C374 C373 1.338 . S
C374 H378 0.931 . S
C375 N372 1.313 . S
C375 N376 1.344 . S
C375 H379 0.930 . S
N376 C373 1.377 1_545 S
N376 C375 1.344 . S
O377 Co369 2.055 . S
O377 C381 1.253 . S
H378 C374 0.931 . S
H379 C375 0.930 . S
O380 Co369 2.039 1_565 S
O380 C370 1.265 . S
C381 O377 1.253 . S
C381 O382 1.227 . S
O382 C381 1.227 . S
N383 Co369 2.140 . S
N383 C386 1.346 . S
N383 C387 1.345 . S
C384 C385 1.387 . S
C384 C388 1.391 . S
C385 C384 1.387 . S
C385 C386 1.369 . S
C385 H394 0.929 1_545 S
C386 N383 1.346 . S
C386 C385 1.369 . S
C386 H389 0.928 1_545 S
C387 N383 1.345 . S
C387 C388 1.371 . S
C387 H390 0.931 . S
C388 C384 1.391 . S
C388 C387 1.371 . S
C388 H395 0.930 . S
H389 C386 0.928 1_565 S
H390 C387 0.931 . S
H391 C367 0.930 1_565 S
H392 C364 0.930 . S
H393 C373 0.930 . S
H394 C385 0.929 1_565 S
H395 C388 0.930 . S
C396 C397 1.351 . S
C396 N399 1.368 . S
C396 H401 0.931 . S
C397 C396 1.351 . S
C397 N398 1.373 . S
C397 H425 0.930 . S
N398 C397 1.373 . S
N398 C400 1.340 . S
N399 C396 1.368 . S
N399 C400 1.321 . S
N399 Co402 2.135 . S
C400 N398 1.340 . S
C400 N399 1.321 . S
C400 H424 0.930 . S
H401 C396 0.931 . S
Co402 N399 2.135 . S
Co402 N405 2.121 . S
Co402 O410 2.055 . S
Co402 O413 2.039 . S
Co402 N416 2.140 . S
C403 O404 1.227 . S
C403 O413 1.265 . S
O404 C403 1.227 . S
N405 Co402 2.121 . S
N405 C407 1.375 . S
N405 C408 1.313 . S
C406 C407 1.338 . S
C406 N409 1.377 . S
C406 H426 0.930 . S
C407 N405 1.375 . S
C407 C406 1.338 . S
C407 H411 0.931 . S
C408 N405 1.313 . S
C408 N409 1.344 . S
C408 H412 0.930 . S
N409 C406 1.377 . S
N409 C408 1.344 . S
O410 Co402 2.055 . S
O410 C414 1.253 . S
H411 C407 0.931 . S
H412 C408 0.930 . S
O413 Co402 2.039 . S
O413 C403 1.265 . S
C414 O410 1.253 . S
C414 O415 1.227 . S
O415 C414 1.227 . S
N416 Co402 2.140 . S
N416 C419 1.346 . S
N416 C420 1.345 . S
C417 C418 1.387 . S
C417 C421 1.391 . S
C418 C417 1.387 . S
C418 C419 1.369 . S
C418 H427 0.929 . S
C419 N416 1.346 . S
C419 C418 1.369 . S
C419 H422 0.928 . S
C420 N416 1.345 . S
C420 C421 1.371 . S
C420 H423 0.931 . S
C421 C417 1.391 . S
C421 C420 1.371 . S
C421 H428 0.930 . S
H422 C419 0.928 . S
H423 C420 0.931 . S
H424 C400 0.930 . S
H425 C397 0.930 . S
H426 C406 0.930 . S
H427 C418 0.929 . S
H428 C421 0.930 . S
C429 C430 1.351 . S
C429 N432 1.368 . S
C429 H434 0.931 . S
C430 C429 1.351 . S
C430 N431 1.373 . S
C430 H458 0.930 . S
N431 C430 1.373 . S
N431 C433 1.340 . S
N432 C429 1.368 . S
N432 C433 1.321 . S
N432 Co435 2.135 . S
C433 N431 1.340 . S
C433 N432 1.321 . S
C433 H457 0.930 . S
H434 C429 0.931 . S
Co435 N432 2.135 . S
Co435 N438 2.121 . S
Co435 O443 2.055 . S
Co435 O446 2.039 . S
Co435 N449 2.140 . S
C436 O437 1.227 . S
C436 O446 1.265 . S
O437 C436 1.227 . S
N438 Co435 2.121 . S
N438 C440 1.375 . S
N438 C441 1.313 . S
C439 C440 1.338 . S
C439 N442 1.377 . S
C439 H459 0.930 . S
C440 N438 1.375 . S
C440 C439 1.338 . S
C440 H444 0.931 . S
C441 N438 1.313 . S
C441 N442 1.344 . S
C441 H445 0.930 . S
N442 C439 1.377 . S
N442 C441 1.344 . S
O443 Co435 2.055 . S
O443 C447 1.253 . S
H444 C440 0.931 . S
H445 C441 0.930 . S
O446 Co435 2.039 . S
O446 C436 1.265 . S
C447 O443 1.253 . S
C447 O448 1.227 . S
O448 C447 1.227 . S
N449 Co435 2.140 . S
N449 C452 1.346 . S
N449 C453 1.345 . S
C450 C451 1.387 . S
C450 C454 1.391 . S
C451 C450 1.387 . S
C451 C452 1.369 . S
C451 H460 0.929 . S
C452 N449 1.346 . S
C452 C451 1.369 . S
C452 H455 0.928 . S
C453 N449 1.345 . S
C453 C454 1.371 . S
C453 H456 0.931 . S
C454 C450 1.391 . S
C454 C453 1.371 . S
C454 H461 0.930 . S
H455 C452 0.928 . S
H456 C453 0.931 . S
H457 C433 0.930 . S
H458 C430 0.930 . S
H459 C439 0.930 . S
H460 C451 0.929 . S
H461 C454 0.930 . S
C462 C463 1.351 . S
C462 N465 1.368 . S
C462 H467 0.931 . S
C463 C462 1.351 . S
C463 N464 1.373 . S
C463 H491 0.930 . S
N464 C463 1.373 . S
N464 C466 1.340 . S
N465 C462 1.368 . S
N465 C466 1.321 . S
N465 Co468 2.135 . S
C466 N464 1.340 . S
C466 N465 1.321 . S
C466 H490 0.930 . S
H467 C462 0.931 . S
Co468 N465 2.135 . S
Co468 N471 2.121 . S
Co468 O476 2.055 . S
Co468 O479 2.039 . S
Co468 N482 2.140 . S
C469 O470 1.227 . S
C469 O479 1.265 . S
O470 C469 1.227 . S
N471 Co468 2.121 . S
N471 C473 1.375 . S
N471 C474 1.313 . S
C472 C473 1.338 . S
C472 N475 1.377 . S
C472 H492 0.930 . S
C473 N471 1.375 . S
C473 C472 1.338 . S
C473 H477 0.931 . S
C474 N471 1.313 . S
C474 N475 1.344 . S
C474 H478 0.930 . S
N475 C472 1.377 . S
N475 C474 1.344 . S
O476 Co468 2.055 . S
O476 C480 1.253 . S
H477 C473 0.931 . S
H478 C474 0.930 . S
O479 Co468 2.039 . S
O479 C469 1.265 . S
C480 O476 1.253 . S
C480 O481 1.227 . S
O481 C480 1.227 . S
N482 Co468 2.140 . S
N482 C485 1.346 . S
N482 C486 1.345 . S
C483 C484 1.387 . S
C483 C487 1.391 . S
C484 C483 1.387 . S
C484 C485 1.369 . S
C484 H493 0.929 . S
C485 N482 1.346 . S
C485 C484 1.369 . S
C485 H488 0.928 . S
C486 N482 1.345 . S
C486 C487 1.371 . S
C486 H489 0.931 . S
C487 C483 1.391 . S
C487 C486 1.371 . S
C487 H494 0.930 . S
H488 C485 0.928 . S
H489 C486 0.931 . S
H490 C466 0.930 . S
H491 C463 0.930 . S
H492 C472 0.930 . S
H493 C484 0.929 . S
H494 C487 0.930 . S
C495 C496 1.351 . S
C495 N498 1.368 . S
C495 H500 0.931 . S
C496 C495 1.351 . S
C496 N497 1.373 . S
C496 H524 0.930 . S
N497 C496 1.373 . S
N497 C499 1.340 . S
N498 C495 1.368 . S
N498 C499 1.321 . S
N498 Co501 2.135 . S
C499 N497 1.340 . S
C499 N498 1.321 . S
C499 H523 0.930 . S
H500 C495 0.931 . S
Co501 N498 2.135 . S
Co501 N504 2.121 . S
Co501 O509 2.055 . S
Co501 O512 2.039 . S
Co501 N515 2.140 . S
C502 O503 1.227 . S
C502 O512 1.265 . S
O503 C502 1.227 . S
N504 Co501 2.121 . S
N504 C506 1.375 . S
N504 C507 1.313 . S
C505 C506 1.338 . S
C505 N508 1.377 . S
C505 H525 0.930 . S
C506 N504 1.375 . S
C506 C505 1.338 . S
C506 H510 0.931 . S
C507 N504 1.313 . S
C507 N508 1.344 . S
C507 H511 0.930 . S
N508 C505 1.377 . S
N508 C507 1.344 . S
O509 Co501 2.055 . S
O509 C513 1.253 . S
H510 C506 0.931 . S
H511 C507 0.930 . S
O512 Co501 2.039 . S
O512 C502 1.265 . S
C513 O509 1.253 . S
C513 O514 1.227 . S
O514 C513 1.227 . S
N515 Co501 2.140 . S
N515 C518 1.346 . S
N515 C519 1.345 . S
C516 C517 1.387 . S
C516 C520 1.391 . S
C517 C516 1.387 . S
C517 C518 1.369 . S
C517 H526 0.929 . S
C518 N515 1.346 . S
C518 C517 1.369 . S
C518 H521 0.928 . S
C519 N515 1.345 . S
C519 C520 1.371 . S
C519 H522 0.931 . S
C520 C516 1.391 . S
C520 C519 1.371 . S
C520 H527 0.930 . S
H521 C518 0.928 . S
H522 C519 0.931 . S
H523 C499 0.930 . S
H524 C496 0.930 . S
H525 C505 0.930 . S
H526 C517 0.929 . S
H527 C520 0.930 . S
C528 C529 1.391 . S
C528 C530 1.394 . S
C528 H544 0.931 . S
C529 C528 1.391 . S
C529 C533 1.376 . S
C530 C528 1.394 . S
C530 C531 1.369 . S
C530 C534 1.531 . S
C531 C530 1.369 . S
C531 C532 1.410 . S
C531 C539 1.503 . S
C532 C531 1.410 . S
C532 C533 1.392 . S
C532 C535 1.511 1_545 S
C533 C529 1.376 . S
C533 C532 1.392 . S
C533 H545 0.929 1_545 S
C534 C530 1.531 . S
C534 H546 0.960 . S
C534 H547 0.962 . S
C534 H548 0.960 . S
C535 C532 1.511 1_565 S
C535 H549 0.961 . S
C535 H550 0.961 . S
C535 H551 0.961 . S
C536 C537 1.370 . S
C536 C538 1.363 . S
C536 H552 0.931 . S
C537 C536 1.370 . S
C537 C541 1.408 . S
C538 C536 1.363 . S
C538 C539 1.370 . S
C538 C542 1.524 . S
C539 C531 1.503 . S
C539 C538 1.370 . S
C539 C540 1.403 . S
C540 C539 1.403 . S
C540 C541 1.404 . S
C540 C543 1.539 . S
C541 C537 1.408 . S
C541 C540 1.404 . S
C541 H553 0.930 . S
C542 C538 1.524 . S
C542 H554 0.956 . S
C542 H555 0.961 1_545 S
C542 H556 0.961 1_545 S
C543 C540 1.539 . S
C543 H557 0.958 . S
C543 H558 0.961 . S
C543 H559 0.960 . S
H544 C528 0.931 . S
H545 C533 0.929 1_565 S
H546 C534 0.960 . S
H547 C534 0.962 . S
H548 C534 0.960 . S
H549 C535 0.961 . S
H550 C535 0.961 . S
H551 C535 0.961 . S
H552 C536 0.931 . S
H553 C541 0.930 . S
H554 C542 0.956 . S
H555 C542 0.961 1_565 S
H556 C542 0.961 1_565 S
H557 C543 0.958 . S
H558 C543 0.961 . S
H559 C543 0.960 . S
C560 C561 1.391 1_545 S
C560 C562 1.394 . S
C560 H576 0.931 . S
C561 C560 1.391 1_565 S
C561 C565 1.376 . S
C562 C560 1.394 . S
C562 C563 1.369 . S
C562 C566 1.531 . S
C563 C562 1.369 . S
C563 C564 1.410 1_545 S
C563 C571 1.503 1_545 S
C564 C563 1.410 1_565 S
C564 C565 1.392 . S
C564 C567 1.511 . S
C565 C561 1.376 . S
C565 C564 1.392 . S
C565 H577 0.929 . S
C566 C562 1.531 . S
C566 H578 0.960 . S
C566 H579 0.962 . S
C566 H580 0.960 . S
C567 C564 1.511 . S
C567 H581 0.961 . S
C567 H582 0.961 . S
C567 H583 0.961 . S
C568 C569 1.370 . S
C568 C570 1.363 . S
C568 H584 0.931 . S
C569 C568 1.370 . S
C569 C573 1.408 1_565 S
C570 C568 1.363 . S
C570 C571 1.375 . S
C570 C574 1.524 . S
C571 C563 1.503 1_565 S
C571 C570 1.375 . S
C571 C572 1.398 1_565 S
C572 C571 1.398 1_545 S
C572 C573 1.404 . S
C572 C575 1.539 . S
C573 C569 1.408 1_545 S
C573 C572 1.404 . S
C573 H585 0.930 . S
C574 C570 1.524 . S
C574 H586 0.956 . S
C574 H587 0.961 . S
C574 H588 0.961 . S
C575 C572 1.539 . S
C575 H589 0.958 . S
C575 H590 0.961 . S
C575 H591 0.960 . S
H576 C560 0.931 . S
H577 C565 0.929 . S
H578 C566 0.960 . S
H579 C566 0.962 . S
H580 C566 0.960 . S
H581 C567 0.961 . S
H582 C567 0.961 . S
H583 C567 0.961 . S
H584 C568 0.931 . S
H585 C573 0.930 . S
H586 C574 0.956 . S
H587 C574 0.961 . S
H588 C574 0.961 . S
H589 C575 0.958 . S
H590 C575 0.961 . S
H591 C575 0.960 . S
C592 C593 1.391 . S
C592 C594 1.394 . S
C592 H608 0.931 . S
C593 C592 1.391 . S
C593 C597 1.376 1_565 S
C594 C592 1.394 . S
C594 C595 1.369 . S
C594 C598 1.531 . S
C595 C594 1.369 . S
C595 C596 1.410 1_565 S
C595 C603 1.503 . S
C596 C595 1.410 1_545 S
C596 C597 1.392 . S
C596 C599 1.511 . S
C597 C593 1.376 1_545 S
C597 C596 1.392 . S
C597 H609 0.929 . S
C598 C594 1.531 . S
C598 H610 0.960 . S
C598 H611 0.962 . S
C598 H612 0.960 . S
C599 C596 1.511 . S
C599 H613 0.961 . S
C599 H614 0.961 . S
C599 H615 0.961 . S
C600 C601 1.370 . S
C600 C602 1.363 . S
C600 H616 0.931 . S
C601 C600 1.370 . S
C601 C605 1.408 . S
C602 C600 1.363 . S
C602 C603 1.370 . S
C602 C606 1.524 . S
C603 C595 1.503 . S
C603 C602 1.370 . S
C603 C604 1.403 . S
C604 C603 1.403 . S
C604 C605 1.404 . S
C604 C607 1.539 . S
C605 C601 1.408 . S
C605 C604 1.404 . S
C605 H617 0.930 . S
C606 C602 1.524 . S
C606 H618 0.956 . S
C606 H619 0.961 1_565 S
C606 H620 0.961 . S
C607 C604 1.539 . S
C607 H621 0.958 . S
C607 H622 0.961 1_565 S
C607 H623 0.960 1_565 S
H608 C592 0.931 . S
H609 C597 0.929 . S
H610 C598 0.960 . S
H611 C598 0.962 . S
H612 C598 0.960 . S
H613 C599 0.961 . S
H614 C599 0.961 . S
H615 C599 0.961 . S
H616 C600 0.931 . S
H617 C605 0.930 . S
H618 C606 0.956 . S
H619 C606 0.961 1_545 S
H620 C606 0.961 . S
H621 C607 0.958 . S
H622 C607 0.961 1_545 S
H623 C607 0.960 1_545 S
C624 C625 1.391 . S
C624 C626 1.394 . S
C624 H640 0.931 . S
C625 C624 1.391 . S
C625 C629 1.376 . S
C626 C624 1.394 . S
C626 C627 1.369 . S
C626 C630 1.531 . S
C627 C626 1.369 . S
C627 C628 1.410 . S
C627 C635 1.503 . S
C628 C627 1.410 . S
C628 C629 1.392 . S
C628 C631 1.511 1_545 S
C629 C625 1.376 . S
C629 C628 1.392 . S
C629 H641 0.929 1_545 S
C630 C626 1.531 . S
C630 H642 0.960 . S
C630 H643 0.962 . S
C630 H644 0.960 . S
C631 C628 1.511 1_565 S
C631 H645 0.961 . S
C631 H646 0.961 . S
C631 H647 0.957 1_565 S
C632 C633 1.370 . S
C632 C634 1.363 . S
C632 H648 0.931 . S
C633 C632 1.370 . S
C633 C637 1.408 . S
C634 C632 1.363 . S
C634 C635 1.370 . S
C634 C638 1.532 . S
C635 C627 1.503 . S
C635 C634 1.370 . S
C635 C636 1.403 . S
C636 C635 1.403 . S
C636 C637 1.404 . S
C636 C639 1.539 . S
C637 C633 1.408 . S
C637 C636 1.404 . S
C637 H649 0.930 . S
C638 C634 1.532 . S
C638 H650 0.966 . S
C638 H651 0.951 1_545 S
C638 H652 0.952 1_545 S
C639 C636 1.539 . S
C639 H653 0.958 . S
C639 H654 0.961 . S
C639 H655 0.960 . S
H640 C624 0.931 . S
H641 C629 0.929 1_565 S
H642 C630 0.960 . S
H643 C630 0.962 . S
H644 C630 0.960 . S
H645 C631 0.961 . S
H646 C631 0.961 . S
H647 C631 0.957 1_545 S
H648 C632 0.931 . S
H649 C637 0.930 . S
H650 C638 0.966 . S
H651 C638 0.951 1_565 S
H652 C638 0.952 1_565 S
H653 C639 0.958 . S
H654 C639 0.961 . S
H655 C639 0.960 . S
C656 C657 1.391 . S
C656 C658 1.394 . S
C656 H672 0.931 . S
C657 C656 1.391 . S
C657 C661 1.376 . S
C658 C656 1.394 . S
C658 C659 1.369 . S
C658 C662 1.531 . S
C659 C658 1.369 . S
C659 C660 1.410 . S
C659 C667 1.503 . S
C660 C659 1.410 . S
C660 C661 1.392 . S
C660 C663 1.511 . S
C661 C657 1.376 . S
C661 C660 1.392 . S
C661 H673 0.929 . S
C662 C658 1.531 . S
C662 H674 0.960 . S
C662 H675 0.962 . S
C662 H676 0.960 . S
C663 C660 1.511 . S
C663 H677 0.961 . S
C663 H678 0.961 . S
C663 H679 0.961 . S
C664 C665 1.370 . S
C664 C666 1.363 . S
C664 H680 0.931 . S
C665 C664 1.370 . S
C665 C669 1.408 . S
C666 C664 1.363 . S
C666 C667 1.370 . S
C666 C670 1.524 . S
C667 C659 1.503 . S
C667 C666 1.370 . S
C667 C668 1.403 . S
C668 C667 1.403 . S
C668 C669 1.404 . S
C668 C671 1.539 . S
C669 C665 1.408 . S
C669 C668 1.404 . S
C669 H681 0.930 . S
C670 C666 1.524 . S
C670 H682 0.956 . S
C670 H683 0.961 . S
C670 H684 0.961 . S
C671 C668 1.539 . S
C671 H685 0.958 . S
C671 H686 0.961 . S
C671 H687 0.960 . S
H672 C656 0.931 . S
H673 C661 0.929 . S
H674 C662 0.960 . S
H675 C662 0.962 . S
H676 C662 0.960 . S
H677 C663 0.961 . S
H678 C663 0.961 . S
H679 C663 0.961 . S
H680 C664 0.931 . S
H681 C669 0.930 . S
H682 C670 0.956 . S
H683 C670 0.961 . S
H684 C670 0.961 . S
H685 C671 0.958 . S
H686 C671 0.961 . S
H687 C671 0.960 . S
C688 C689 1.391 . S
C688 C690 1.394 . S
C688 H704 0.931 . S
C689 C688 1.391 . S
C689 C693 1.376 . S
C690 C688 1.394 . S
C690 C691 1.369 . S
C690 C694 1.531 . S
C691 C690 1.369 . S
C691 C692 1.410 . S
C691 C699 1.503 . S
C692 C691 1.410 . S
C692 C693 1.392 . S
C692 C695 1.511 . S
C693 C689 1.376 . S
C693 C692 1.392 . S
C693 H705 0.929 . S
C694 C690 1.531 . S
C694 H706 0.960 . S
C694 H707 0.962 . S
C694 H708 0.960 . S
C695 C692 1.511 . S
C695 H709 0.961 . S
C695 H710 0.961 . S
C695 H711 0.961 . S
C696 C697 1.370 . S
C696 C698 1.363 . S
C696 H712 0.931 . S
C697 C696 1.370 . S
C697 C701 1.408 . S
C698 C696 1.363 . S
C698 C699 1.370 . S
C698 C702 1.524 . S
C699 C691 1.503 . S
C699 C698 1.370 . S
C699 C700 1.403 . S
C700 C699 1.403 . S
C700 C701 1.404 . S
C700 C703 1.539 . S
C701 C697 1.408 . S
C701 C700 1.404 . S
C701 H713 0.930 . S
C702 C698 1.524 . S
C702 H714 0.956 . S
C702 H715 0.961 . S
C702 H716 0.961 . S
C703 C700 1.539 . S
C703 H717 0.958 . S
C703 H718 0.961 . S
C703 H719 0.960 . S
H704 C688 0.931 . S
H705 C693 0.929 . S
H706 C694 0.960 . S
H707 C694 0.962 . S
H708 C694 0.960 . S
H709 C695 0.961 . S
H710 C695 0.961 . S
H711 C695 0.961 . S
H712 C696 0.931 . S
H713 C701 0.930 . S
H714 C702 0.956 . S
H715 C702 0.961 . S
H716 C702 0.961 . S
H717 C703 0.958 . S
H718 C703 0.961 . S
H719 C703 0.960 . S
C720 C721 1.391 . S
C720 C722 1.394 . S
C720 H736 0.931 . S
C721 C720 1.391 . S
C721 C725 1.376 . S
C722 C720 1.394 . S
C722 C723 1.369 . S
C722 C726 1.531 . S
C723 C722 1.369 . S
C723 C724 1.410 . S
C723 C731 1.503 . S
C724 C723 1.410 . S
C724 C725 1.392 . S
C724 C727 1.511 . S
C725 C721 1.376 . S
C725 C724 1.392 . S
C725 H737 0.929 . S
C726 C722 1.531 . S
C726 H738 0.960 . S
C726 H739 0.962 . S
C726 H740 0.960 . S
C727 C724 1.511 . S
C727 H741 0.961 . S
C727 H742 0.961 . S
C727 H743 0.961 . S
C728 C729 1.370 . S
C728 C730 1.363 . S
C728 H744 0.931 . S
C729 C728 1.370 . S
C729 C733 1.408 . S
C730 C728 1.363 . S
C730 C731 1.370 . S
C730 C734 1.524 . S
C731 C723 1.503 . S
C731 C730 1.370 . S
C731 C732 1.403 . S
C732 C731 1.403 . S
C732 C733 1.404 . S
C732 C735 1.539 . S
C733 C729 1.408 . S
C733 C732 1.404 . S
C733 H745 0.930 . S
C734 C730 1.524 . S
C734 H746 0.956 . S
C734 H747 0.961 . S
C734 H748 0.961 . S
C735 C732 1.539 . S
C735 H749 0.958 . S
C735 H750 0.961 . S
C735 H751 0.960 . S
H736 C720 0.931 . S
H737 C725 0.929 . S
H738 C726 0.960 . S
H739 C726 0.962 . S
H740 C726 0.960 . S
H741 C727 0.961 . S
H742 C727 0.961 . S
H743 C727 0.961 . S
H744 C728 0.931 . S
H745 C733 0.930 . S
H746 C734 0.956 . S
H747 C734 0.961 . S
H748 C734 0.961 . S
H749 C735 0.958 . S
H750 C735 0.961 . S
H751 C735 0.960 . S
C752 C753 1.391 . S
C752 C754 1.394 . S
C752 H768 0.931 . S
C753 C752 1.391 . S
C753 C757 1.376 . S
C754 C752 1.394 . S
C754 C755 1.369 . S
C754 C758 1.531 . S
C755 C754 1.369 . S
C755 C756 1.410 . S
C755 C763 1.503 . S
C756 C755 1.410 . S
C756 C757 1.392 . S
C756 C759 1.511 . S
C757 C753 1.376 . S
C757 C756 1.392 . S
C757 H769 0.929 . S
C758 C754 1.531 . S
C758 H770 0.960 . S
C758 H771 0.962 . S
C758 H772 0.960 . S
C759 C756 1.511 . S
C759 H773 0.961 . S
C759 H774 0.961 . S
C759 H775 0.961 . S
C760 C761 1.370 . S
C760 C762 1.363 . S
C760 H776 0.931 . S
C761 C760 1.370 . S
C761 C765 1.408 . S
C762 C760 1.363 . S
C762 C763 1.370 . S
C762 C766 1.524 . S
C763 C755 1.503 . S
C763 C762 1.370 . S
C763 C764 1.403 . S
C764 C763 1.403 . S
C764 C765 1.404 . S
C764 C767 1.539 . S
C765 C761 1.408 . S
C765 C764 1.404 . S
C765 H777 0.930 . S
C766 C762 1.524 . S
C766 H778 0.956 . S
C766 H779 0.961 . S
C766 H780 0.961 . S
C767 C764 1.539 . S
C767 H781 0.958 . S
C767 H782 0.961 . S
C767 H783 0.960 . S
H768 C752 0.931 . S
H769 C757 0.929 . S
H770 C758 0.960 . S
H771 C758 0.962 . S
H772 C758 0.960 . S
H773 C759 0.961 . S
H774 C759 0.961 . S
H775 C759 0.961 . S
H776 C760 0.931 . S
H777 C765 0.930 . S
H778 C766 0.956 . S
H779 C766 0.961 . S
H780 C766 0.961 . S
H781 C767 0.958 . S
H782 C767 0.961 . S
H783 C767 0.960 . S
C784 C785 1.391 . S
C784 C786 1.394 . S
C784 H800 0.931 . S
C785 C784 1.391 . S
C785 C789 1.376 . S
C786 C784 1.394 . S
C786 C787 1.369 . S
C786 C790 1.531 . S
C787 C786 1.369 . S
C787 C788 1.410 . S
C787 C795 1.503 . S
C788 C787 1.410 . S
C788 C789 1.392 . S
C788 C791 1.511 . S
C789 C785 1.376 . S
C789 C788 1.392 . S
C789 H801 0.929 . S
C790 C786 1.531 . S
C790 H802 0.960 . S
C790 H803 0.962 . S
C790 H804 0.960 . S
C791 C788 1.511 . S
C791 H805 0.961 . S
C791 H806 0.961 . S
C791 H807 0.961 . S
C792 C793 1.370 . S
C792 C794 1.363 . S
C792 H808 0.931 . S
C793 C792 1.370 . S
C793 C797 1.408 . S
C794 C792 1.363 . S
C794 C795 1.370 . S
C794 C798 1.524 . S
C795 C787 1.503 . S
C795 C794 1.370 . S
C795 C796 1.403 . S
C796 C795 1.403 . S
C796 C797 1.404 . S
C796 C799 1.539 . S
C797 C793 1.408 . S
C797 C796 1.404 . S
C797 H809 0.930 . S
C798 C794 1.524 . S
C798 H810 0.956 . S
C798 H811 0.961 . S
C798 H812 0.961 . S
C799 C796 1.539 . S
C799 H813 0.958 . S
C799 H814 0.961 . S
C799 H815 0.960 . S
H800 C784 0.931 . S
H801 C789 0.929 . S
H802 C790 0.960 . S
H803 C790 0.962 . S
H804 C790 0.960 . S
H805 C791 0.961 . S
H806 C791 0.961 . S
H807 C791 0.961 . S
H808 C792 0.931 . S
H809 C797 0.930 . S
H810 C798 0.956 . S
H811 C798 0.961 . S
H812 C798 0.961 . S
H813 C799 0.958 . S
H814 C799 0.961 . S
H815 C799 0.960 . S
C816 C817 1.391 . S
C816 C818 1.394 . S
C816 H832 0.931 . S
C817 C816 1.391 . S
C817 C821 1.376 . S
C818 C816 1.394 . S
C818 C819 1.369 . S
C818 C822 1.531 . S
C819 C818 1.369 . S
C819 C820 1.410 . S
C819 C827 1.503 . S
C820 C819 1.410 . S
C820 C821 1.392 . S
C820 C823 1.511 . S
C821 C817 1.376 . S
C821 C820 1.392 . S
C821 H833 0.929 . S
C822 C818 1.531 . S
C822 H834 0.960 . S
C822 H835 0.962 . S
C822 H836 0.960 . S
C823 C820 1.511 . S
C823 H837 0.961 . S
C823 H838 0.961 . S
C823 H839 0.961 . S
C824 C825 1.370 . S
C824 C826 1.363 . S
C824 H840 0.931 . S
C825 C824 1.370 . S
C825 C829 1.408 . S
C826 C824 1.363 . S
C826 C827 1.370 . S
C826 C830 1.524 . S
C827 C819 1.503 . S
C827 C826 1.370 . S
C827 C828 1.403 . S
C828 C827 1.403 . S
C828 C829 1.404 . S
C828 C831 1.539 . S
C829 C825 1.408 . S
C829 C828 1.404 . S
C829 H841 0.930 . S
C830 C826 1.524 . S
C830 H842 0.956 . S
C830 H843 0.961 . S
C830 H844 0.961 . S
C831 C828 1.539 . S
C831 H845 0.958 . S
C831 H846 0.961 . S
C831 H847 0.960 . S
H832 C816 0.931 . S
H833 C821 0.929 . S
H834 C822 0.960 . S
H835 C822 0.962 . S
H836 C822 0.960 . S
H837 C823 0.961 . S
H838 C823 0.961 . S
H839 C823 0.961 . S
H840 C824 0.931 . S
H841 C829 0.930 . S
H842 C830 0.956 . S
H843 C830 0.961 . S
H844 C830 0.961 . S
H845 C831 0.958 . S
H846 C831 0.961 . S
H847 C831 0.960 . S
C848 C849 1.391 . S
C848 C850 1.394 . S
C848 H864 0.931 . S
C849 C848 1.391 . S
C849 C853 1.376 . S
C850 C848 1.394 . S
C850 C851 1.369 . S
C850 C854 1.531 . S
C851 C850 1.369 . S
C851 C852 1.410 . S
C851 C859 1.503 . S
C852 C851 1.410 . S
C852 C853 1.392 . S
C852 C855 1.511 . S
C853 C849 1.376 . S
C853 C852 1.392 . S
C853 H865 0.929 . S
C854 C850 1.531 . S
C854 H866 0.960 . S
C854 H867 0.962 . S
C854 H868 0.960 . S
C855 C852 1.511 . S
C855 H869 0.961 . S
C855 H870 0.961 . S
C855 H871 0.961 . S
C856 C857 1.370 . S
C856 C858 1.363 . S
C856 H872 0.931 . S
C857 C856 1.370 . S
C857 C861 1.408 . S
C858 C856 1.363 . S
C858 C859 1.370 . S
C858 C862 1.524 . S
C859 C851 1.503 . S
C859 C858 1.370 . S
C859 C860 1.403 . S
C860 C859 1.403 . S
C860 C861 1.404 . S
C860 C863 1.539 . S
C861 C857 1.408 . S
C861 C860 1.404 . S
C861 H873 0.930 . S
C862 C858 1.524 . S
C862 H874 0.956 . S
C862 H875 0.961 . S
C862 H876 0.961 . S
C863 C860 1.539 . S
C863 H877 0.958 . S
C863 H878 0.961 . S
C863 H879 0.960 . S
H864 C848 0.931 . S
H865 C853 0.929 . S
H866 C854 0.960 . S
H867 C854 0.962 . S
H868 C854 0.960 . S
H869 C855 0.961 . S
H870 C855 0.961 . S
H871 C855 0.961 . S
H872 C856 0.931 . S
H873 C861 0.930 . S
H874 C862 0.956 . S
H875 C862 0.961 . S
H876 C862 0.961 . S
H877 C863 0.958 . S
H878 C863 0.961 . S
H879 C863 0.960 . S
C880 C881 1.391 . S
C880 C882 1.394 . S
C880 H896 0.931 . S
C881 C880 1.391 . S
C881 C885 1.376 . S
C882 C880 1.394 . S
C882 C883 1.369 . S
C882 C886 1.531 . S
C883 C882 1.369 . S
C883 C884 1.410 . S
C883 C891 1.503 . S
C884 C883 1.410 . S
C884 C885 1.392 . S
C884 C887 1.511 . S
C885 C881 1.376 . S
C885 C884 1.392 . S
C885 H897 0.929 . S
C886 C882 1.531 . S
C886 H898 0.960 . S
C886 H899 0.962 . S
C886 H900 0.960 . S
C887 C884 1.511 . S
C887 H901 0.961 . S
C887 H902 0.961 . S
C887 H903 0.961 . S
C888 C889 1.370 . S
C888 C890 1.363 . S
C888 H904 0.931 . S
C889 C888 1.370 . S
C889 C893 1.408 . S
C890 C888 1.363 . S
C890 C891 1.370 . S
C890 C894 1.524 . S
C891 C883 1.503 . S
C891 C890 1.370 . S
C891 C892 1.403 . S
C892 C891 1.403 . S
C892 C893 1.404 . S
C892 C895 1.539 . S
C893 C889 1.408 . S
C893 C892 1.404 . S
C893 H905 0.930 . S
C894 C890 1.524 . S
C894 H906 0.956 . S
C894 H907 0.961 . S
C894 H908 0.961 . S
C895 C892 1.539 . S
C895 H909 0.958 . S
C895 H910 0.961 . S
C895 H911 0.960 . S
H896 C880 0.931 . S
H897 C885 0.929 . S
H898 C886 0.960 . S
H899 C886 0.962 . S
H900 C886 0.960 . S
H901 C887 0.961 . S
H902 C887 0.961 . S
H903 C887 0.961 . S
H904 C888 0.931 . S
H905 C893 0.930 . S
H906 C894 0.956 . S
H907 C894 0.961 . S
H908 C894 0.961 . S
H909 C895 0.958 . S
H910 C895 0.961 . S
H911 C895 0.960 . S
C912 C913 1.391 . S
C912 C914 1.394 . S
C912 H928 0.931 . S
C913 C912 1.391 . S
C913 C917 1.376 . S
C914 C912 1.394 . S
C914 C915 1.369 . S
C914 C918 1.531 . S
C915 C914 1.369 . S
C915 C916 1.410 . S
C915 C923 1.503 . S
C916 C915 1.410 . S
C916 C917 1.392 . S
C916 C919 1.511 . S
C917 C913 1.376 . S
C917 C916 1.392 . S
C917 H929 0.929 . S
C918 C914 1.531 . S
C918 H930 0.960 . S
C918 H931 0.962 . S
C918 H932 0.960 . S
C919 C916 1.511 . S
C919 H933 0.961 . S
C919 H934 0.961 . S
C919 H935 0.961 . S
C920 C921 1.370 . S
C920 C922 1.363 . S
C920 H936 0.931 . S
C921 C920 1.370 . S
C921 C925 1.408 . S
C922 C920 1.363 . S
C922 C923 1.370 . S
C922 C926 1.524 . S
C923 C915 1.503 . S
C923 C922 1.370 . S
C923 C924 1.403 . S
C924 C923 1.403 . S
C924 C925 1.404 . S
C924 C927 1.539 . S
C925 C921 1.408 . S
C925 C924 1.404 . S
C925 H937 0.930 . S
C926 C922 1.524 . S
C926 H938 0.956 . S
C926 H939 0.961 . S
C926 H940 0.961 . S
C927 C924 1.539 . S
C927 H941 0.958 . S
C927 H942 0.961 . S
C927 H943 0.960 . S
H928 C912 0.931 . S
H929 C917 0.929 . S
H930 C918 0.960 . S
H931 C918 0.962 . S
H932 C918 0.960 . S
H933 C919 0.961 . S
H934 C919 0.961 . S
H935 C919 0.961 . S
H936 C920 0.931 . S
H937 C925 0.930 . S
H938 C926 0.956 . S
H939 C926 0.961 . S
H940 C926 0.961 . S
H941 C927 0.958 . S
H942 C927 0.961 . S
H943 C927 0.960 . S
C944 C945 1.391 . S
C944 C946 1.394 . S
C944 H960 0.931 . S
C945 C944 1.391 . S
C945 C949 1.376 . S
C946 C944 1.394 . S
C946 C947 1.369 . S
C946 C950 1.531 . S
C947 C946 1.369 . S
C947 C948 1.410 . S
C947 C955 1.503 . S
C948 C947 1.410 . S
C948 C949 1.392 . S
C948 C951 1.511 . S
C949 C945 1.376 . S
C949 C948 1.392 . S
C949 H961 0.929 . S
C950 C946 1.531 . S
C950 H962 0.960 . S
C950 H963 0.962 . S
C950 H964 0.960 . S
C951 C948 1.511 . S
C951 H965 0.961 . S
C951 H966 0.961 . S
C951 H967 0.961 . S
C952 C953 1.370 . S
C952 C954 1.363 . S
C952 H968 0.931 . S
C953 C952 1.370 . S
C953 C957 1.408 . S
C954 C952 1.363 . S
C954 C955 1.370 . S
C954 C958 1.524 . S
C955 C947 1.503 . S
C955 C954 1.370 . S
C955 C956 1.403 . S
C956 C955 1.403 . S
C956 C957 1.404 . S
C956 C959 1.539 . S
C957 C953 1.408 . S
C957 C956 1.404 . S
C957 H969 0.930 . S
C958 C954 1.524 . S
C958 H970 0.956 . S
C958 H971 0.961 . S
C958 H972 0.961 . S
C959 C956 1.539 . S
C959 H973 0.958 . S
C959 H974 0.961 . S
C959 H975 0.960 . S
H960 C944 0.931 . S
H961 C949 0.929 . S
H962 C950 0.960 . S
H963 C950 0.962 . S
H964 C950 0.960 . S
H965 C951 0.961 . S
H966 C951 0.961 . S
H967 C951 0.961 . S
H968 C952 0.931 . S
H969 C957 0.930 . S
H970 C958 0.956 . S
H971 C958 0.961 . S
H972 C958 0.961 . S
H973 C959 0.958 . S
H974 C959 0.961 . S
H975 C959 0.960 . S
C976 C977 1.391 . S
C976 C978 1.394 . S
C976 H992 0.931 . S
C977 C976 1.391 . S
C977 C981 1.376 . S
C978 C976 1.394 . S
C978 C979 1.369 . S
C978 C982 1.531 . S
C979 C978 1.369 . S
C979 C980 1.410 . S
C979 C987 1.503 . S
C980 C979 1.410 . S
C980 C981 1.392 . S
C980 C983 1.511 . S
C981 C977 1.376 . S
C981 C980 1.392 . S
C981 H993 0.929 . S
C982 C978 1.531 . S
C982 H994 0.960 . S
C982 H995 0.962 . S
C982 H996 0.960 . S
C983 C980 1.511 . S
C983 H997 0.961 . S
C983 H998 0.961 . S
C983 H999 0.961 . S
C984 C985 1.370 . S
C984 C986 1.363 . S
C984 H1000 0.931 . S
C985 C984 1.370 . S
C985 C989 1.408 . S
C986 C984 1.363 . S
C986 C987 1.370 . S
C986 C990 1.524 . S
C987 C979 1.503 . S
C987 C986 1.370 . S
C987 C988 1.403 . S
C988 C987 1.403 . S
C988 C989 1.404 . S
C988 C991 1.539 . S
C989 C985 1.408 . S
C989 C988 1.404 . S
C989 H1001 0.930 . S
C990 C986 1.524 . S
C990 H1002 0.956 . S
C990 H1003 0.961 . S
C990 H1004 0.961 . S
C991 C988 1.539 . S
C991 H1005 0.958 . S
C991 H1006 0.961 . S
C991 H1007 0.960 . S
H992 C976 0.931 . S
H993 C981 0.929 . S
H994 C982 0.960 . S
H995 C982 0.962 . S
H996 C982 0.960 . S
H997 C983 0.961 . S
H998 C983 0.961 . S
H999 C983 0.961 . S
H1000 C984 0.931 . S
H1001 C989 0.930 . S
H1002 C990 0.956 . S
H1003 C990 0.961 . S
H1004 C990 0.961 . S
H1005 C991 0.958 . S
H1006 C991 0.961 . S
H1007 C991 0.960 . S
C1008 C1009 1.391 . S
C1008 C1010 1.394 . S
C1008 H1024 0.931 . S
C1009 C1008 1.391 . S
C1009 C1013 1.376 . S
C1010 C1008 1.394 . S
C1010 C1011 1.369 . S
C1010 C1014 1.531 . S
C1011 C1010 1.369 . S
C1011 C1012 1.410 . S
C1011 C1019 1.503 . S
C1012 C1011 1.410 . S
C1012 C1013 1.392 . S
C1012 C1015 1.511 . S
C1013 C1009 1.376 . S
C1013 C1012 1.392 . S
C1013 H1025 0.929 . S
C1014 C1010 1.531 . S
C1014 H1026 0.960 . S
C1014 H1027 0.962 . S
C1014 H1028 0.960 . S
C1015 C1012 1.511 . S
C1015 H1029 0.961 . S
C1015 H1030 0.961 . S
C1015 H1031 0.961 . S
C1016 C1017 1.370 . S
C1016 C1018 1.363 . S
C1016 H1032 0.931 . S
C1017 C1016 1.370 . S
C1017 C1021 1.408 . S
C1018 C1016 1.363 . S
C1018 C1019 1.370 . S
C1018 C1022 1.524 . S
C1019 C1011 1.503 . S
C1019 C1018 1.370 . S
C1019 C1020 1.403 . S
C1020 C1019 1.403 . S
C1020 C1021 1.404 . S
C1020 C1023 1.539 . S
C1021 C1017 1.408 . S
C1021 C1020 1.404 . S
C1021 H1033 0.930 . S
C1022 C1018 1.524 . S
C1022 H1034 0.956 . S
C1022 H1035 0.961 . S
C1022 H1036 0.961 . S
C1023 C1020 1.539 . S
C1023 H1037 0.958 . S
C1023 H1038 0.961 . S
C1023 H1039 0.960 . S
H1024 C1008 0.931 . S
H1025 C1013 0.929 . S
H1026 C1014 0.960 . S
H1027 C1014 0.962 . S
H1028 C1014 0.960 . S
H1029 C1015 0.961 . S
H1030 C1015 0.961 . S
H1031 C1015 0.961 . S
H1032 C1016 0.931 . S
H1033 C1021 0.930 . S
H1034 C1022 0.956 . S
H1035 C1022 0.961 . S
H1036 C1022 0.961 . S
H1037 C1023 0.958 . S
H1038 C1023 0.961 . S
H1039 C1023 0.960 . S
C1040 C1041 1.391 . S
C1040 C1042 1.394 . S
C1040 H1056 0.931 . S
C1041 C1040 1.391 . S
C1041 C1045 1.376 . S
C1042 C1040 1.394 . S
C1042 C1043 1.369 . S
C1042 C1046 1.531 . S
C1043 C1042 1.369 . S
C1043 C1044 1.410 . S
C1043 C1051 1.503 . S
C1044 C1043 1.410 . S
C1044 C1045 1.392 . S
C1044 C1047 1.511 . S
C1045 C1041 1.376 . S
C1045 C1044 1.392 . S
C1045 H1057 0.929 . S
C1046 C1042 1.531 . S
C1046 H1058 0.960 . S
C1046 H1059 0.962 . S
C1046 H1060 0.960 . S
C1047 C1044 1.511 . S
C1047 H1061 0.961 . S
C1047 H1062 0.961 . S
C1047 H1063 0.961 . S
C1048 C1049 1.370 . S
C1048 C1050 1.363 . S
C1048 H1064 0.931 . S
C1049 C1048 1.370 . S
C1049 C1053 1.408 . S
C1050 C1048 1.363 . S
C1050 C1051 1.370 . S
C1050 C1054 1.524 . S
C1051 C1043 1.503 . S
C1051 C1050 1.370 . S
C1051 C1052 1.403 . S
C1052 C1051 1.403 . S
C1052 C1053 1.404 . S
C1052 C1055 1.539 . S
C1053 C1049 1.408 . S
C1053 C1052 1.404 . S
C1053 H1065 0.930 . S
C1054 C1050 1.524 . S
C1054 H1066 0.956 . S
C1054 H1067 0.961 . S
C1054 H1068 0.961 . S
C1055 C1052 1.539 . S
C1055 H1069 0.958 . S
C1055 H1070 0.961 . S
C1055 H1071 0.960 . S
H1056 C1040 0.931 . S
H1057 C1045 0.929 . S
H1058 C1046 0.960 . S
H1059 C1046 0.962 . S
H1060 C1046 0.960 . S
H1061 C1047 0.961 . S
H1062 C1047 0.961 . S
H1063 C1047 0.961 . S
H1064 C1048 0.931 . S
H1065 C1053 0.930 . S
H1066 C1054 0.956 . S
H1067 C1054 0.961 . S
H1068 C1054 0.961 . S
H1069 C1055 0.958 . S
H1070 C1055 0.961 . S
H1071 C1055 0.960 . S
C1072 C1073 1.391 . S
C1072 C1074 1.394 . S
C1072 H1088 0.931 . S
C1073 C1072 1.391 . S
C1073 C1077 1.376 . S
C1074 C1072 1.394 . S
C1074 C1075 1.369 . S
C1074 C1078 1.531 . S
C1075 C1074 1.369 . S
C1075 C1076 1.410 . S
C1075 C1083 1.503 . S
C1076 C1075 1.410 . S
C1076 C1077 1.392 . S
C1076 C1079 1.511 . S
C1077 C1073 1.376 . S
C1077 C1076 1.392 . S
C1077 H1089 0.929 . S
C1078 C1074 1.531 . S
C1078 H1090 0.960 . S
C1078 H1091 0.962 . S
C1078 H1092 0.960 . S
C1079 C1076 1.511 . S
C1079 H1093 0.961 . S
C1079 H1094 0.961 . S
C1079 H1095 0.961 . S
C1080 C1081 1.370 . S
C1080 C1082 1.363 . S
C1080 H1096 0.931 . S
C1081 C1080 1.370 . S
C1081 C1085 1.408 . S
C1082 C1080 1.363 . S
C1082 C1083 1.370 . S
C1082 C1086 1.524 . S
C1083 C1075 1.503 . S
C1083 C1082 1.370 . S
C1083 C1084 1.403 . S
C1084 C1083 1.403 . S
C1084 C1085 1.404 . S
C1084 C1087 1.539 . S
C1085 C1081 1.408 . S
C1085 C1084 1.404 . S
C1085 H1097 0.930 . S
C1086 C1082 1.524 . S
C1086 H1098 0.956 . S
C1086 H1099 0.961 . S
C1086 H1100 0.961 . S
C1087 C1084 1.539 . S
C1087 H1101 0.958 . S
C1087 H1102 0.961 . S
C1087 H1103 0.960 . S
H1088 C1072 0.931 . S
H1089 C1077 0.929 . S
H1090 C1078 0.960 . S
H1091 C1078 0.962 . S
H1092 C1078 0.960 . S
H1093 C1079 0.961 . S
H1094 C1079 0.961 . S
H1095 C1079 0.961 . S
H1096 C1080 0.931 . S
H1097 C1085 0.930 . S
H1098 C1086 0.956 . S
H1099 C1086 0.961 . S
H1100 C1086 0.961 . S
H1101 C1087 0.958 . S
H1102 C1087 0.961 . S
H1103 C1087 0.960 . S
C1104 C1105 1.391 . S
C1104 C1106 1.394 . S
C1104 H1120 0.931 . S
C1105 C1104 1.391 . S
C1105 C1109 1.376 . S
C1106 C1104 1.394 . S
C1106 C1107 1.369 . S
C1106 C1110 1.531 . S
C1107 C1106 1.369 . S
C1107 C1108 1.410 . S
C1107 C1115 1.503 . S
C1108 C1107 1.410 . S
C1108 C1109 1.392 . S
C1108 C1111 1.511 . S
C1109 C1105 1.376 . S
C1109 C1108 1.392 . S
C1109 H1121 0.929 . S
C1110 C1106 1.531 . S
C1110 H1122 0.960 . S
C1110 H1123 0.962 . S
C1110 H1124 0.960 . S
C1111 C1108 1.511 . S
C1111 H1125 0.961 . S
C1111 H1126 0.961 . S
C1111 H1127 0.961 . S
C1112 C1113 1.370 . S
C1112 C1114 1.363 . S
C1112 H1128 0.931 . S
C1113 C1112 1.370 . S
C1113 C1117 1.408 . S
C1114 C1112 1.363 . S
C1114 C1115 1.370 . S
C1114 C1118 1.524 . S
C1115 C1107 1.503 . S
C1115 C1114 1.370 . S
C1115 C1116 1.403 . S
C1116 C1115 1.403 . S
C1116 C1117 1.404 . S
C1116 C1119 1.539 . S
C1117 C1113 1.408 . S
C1117 C1116 1.404 . S
C1117 H1129 0.930 . S
C1118 C1114 1.524 . S
C1118 H1130 0.956 . S
C1118 H1131 0.961 . S
C1118 H1132 0.961 . S
C1119 C1116 1.539 . S
C1119 H1133 0.958 . S
C1119 H1134 0.961 . S
C1119 H1135 0.960 . S
H1120 C1104 0.931 . S
H1121 C1109 0.929 . S
H1122 C1110 0.960 . S
H1123 C1110 0.962 . S
H1124 C1110 0.960 . S
H1125 C1111 0.961 . S
H1126 C1111 0.961 . S
H1127 C1111 0.961 . S
H1128 C1112 0.931 . S
H1129 C1117 0.930 . S
H1130 C1118 0.956 . S
H1131 C1118 0.961 . S
H1132 C1118 0.961 . S
H1133 C1119 0.958 . S
H1134 C1119 0.961 . S
H1135 C1119 0.960 . S
C1136 C1137 1.391 . S
C1136 C1138 1.394 . S
C1136 H1152 0.931 . S
C1137 C1136 1.391 . S
C1137 C1141 1.376 . S
C1138 C1136 1.394 . S
C1138 C1139 1.369 . S
C1138 C1142 1.531 . S
C1139 C1138 1.369 . S
C1139 C1140 1.410 . S
C1139 C1147 1.503 . S
C1140 C1139 1.410 . S
C1140 C1141 1.392 . S
C1140 C1143 1.511 . S
C1141 C1137 1.376 . S
C1141 C1140 1.392 . S
C1141 H1153 0.929 . S
C1142 C1138 1.531 . S
C1142 H1154 0.960 . S
C1142 H1155 0.962 . S
C1142 H1156 0.960 . S
C1143 C1140 1.511 . S
C1143 H1157 0.961 . S
C1143 H1158 0.961 . S
C1143 H1159 0.961 . S
C1144 C1145 1.370 . S
C1144 C1146 1.363 . S
C1144 H1160 0.931 . S
C1145 C1144 1.370 . S
C1145 C1149 1.408 . S
C1146 C1144 1.363 . S
C1146 C1147 1.370 . S
C1146 C1150 1.524 . S
C1147 C1139 1.503 . S
C1147 C1146 1.370 . S
C1147 C1148 1.403 . S
C1148 C1147 1.403 . S
C1148 C1149 1.404 . S
C1148 C1151 1.539 . S
C1149 C1145 1.408 . S
C1149 C1148 1.404 . S
C1149 H1161 0.930 . S
C1150 C1146 1.524 . S
C1150 H1162 0.956 . S
C1150 H1163 0.961 . S
C1150 H1164 0.961 . S
C1151 C1148 1.539 . S
C1151 H1165 0.958 . S
C1151 H1166 0.961 . S
C1151 H1167 0.960 . S
H1152 C1136 0.931 . S
H1153 C1141 0.929 . S
H1154 C1142 0.960 . S
H1155 C1142 0.962 . S
H1156 C1142 0.960 . S
H1157 C1143 0.961 . S
H1158 C1143 0.961 . S
H1159 C1143 0.961 . S
H1160 C1144 0.931 . S
H1161 C1149 0.930 . S
H1162 C1150 0.956 . S
H1163 C1150 0.961 . S
H1164 C1150 0.961 . S
H1165 C1151 0.958 . S
H1166 C1151 0.961 . S
H1167 C1151 0.960 . S
C1168 C1169 1.391 . S
C1168 C1170 1.394 . S
C1168 H1184 0.931 . S
C1169 C1168 1.391 . S
C1169 C1173 1.376 . S
C1170 C1168 1.394 . S
C1170 C1171 1.369 . S
C1170 C1174 1.531 . S
C1171 C1170 1.369 . S
C1171 C1172 1.410 . S
C1171 C1179 1.503 . S
C1172 C1171 1.410 . S
C1172 C1173 1.392 . S
C1172 C1175 1.511 . S
C1173 C1169 1.376 . S
C1173 C1172 1.392 . S
C1173 H1185 0.929 . S
C1174 C1170 1.531 . S
C1174 H1186 0.960 . S
C1174 H1187 0.962 . S
C1174 H1188 0.960 . S
C1175 C1172 1.511 . S
C1175 H1189 0.961 . S
C1175 H1190 0.961 . S
C1175 H1191 0.961 . S
C1176 C1177 1.370 . S
C1176 C1178 1.363 . S
C1176 H1192 0.931 . S
C1177 C1176 1.370 . S
C1177 C1181 1.408 . S
C1178 C1176 1.363 . S
C1178 C1179 1.370 . S
C1178 C1182 1.524 . S
C1179 C1171 1.503 . S
C1179 C1178 1.370 . S
C1179 C1180 1.403 . S
C1180 C1179 1.403 . S
C1180 C1181 1.404 . S
C1180 C1183 1.539 . S
C1181 C1177 1.408 . S
C1181 C1180 1.404 . S
C1181 H1193 0.930 . S
C1182 C1178 1.524 . S
C1182 H1194 0.956 . S
C1182 H1195 0.961 . S
C1182 H1196 0.961 . S
C1183 C1180 1.539 . S
C1183 H1197 0.958 . S
C1183 H1198 0.961 . S
C1183 H1199 0.960 . S
H1184 C1168 0.931 . S
H1185 C1173 0.929 . S
H1186 C1174 0.960 . S
H1187 C1174 0.962 . S
H1188 C1174 0.960 . S
H1189 C1175 0.961 . S
H1190 C1175 0.961 . S
H1191 C1175 0.961 . S
H1192 C1176 0.931 . S
H1193 C1181 0.930 . S
H1194 C1182 0.956 . S
H1195 C1182 0.961 . S
H1196 C1182 0.961 . S
H1197 C1183 0.958 . S
H1198 C1183 0.961 . S
H1199 C1183 0.960 . S
C1200 C1201 1.391 . S
C1200 C1202 1.394 . S
C1200 H1216 0.931 . S
C1201 C1200 1.391 . S
C1201 C1205 1.376 . S
C1202 C1200 1.394 . S
C1202 C1203 1.369 . S
C1202 C1206 1.531 . S
C1203 C1202 1.369 . S
C1203 C1204 1.410 . S
C1203 C1211 1.503 . S
C1204 C1203 1.410 . S
C1204 C1205 1.392 . S
C1204 C1207 1.511 . S
C1205 C1201 1.376 . S
C1205 C1204 1.392 . S
C1205 H1217 0.929 . S
C1206 C1202 1.531 . S
C1206 H1218 0.960 . S
C1206 H1219 0.962 . S
C1206 H1220 0.960 . S
C1207 C1204 1.511 . S
C1207 H1221 0.961 . S
C1207 H1222 0.961 . S
C1207 H1223 0.961 . S
C1208 C1209 1.370 . S
C1208 C1210 1.363 . S
C1208 H1224 0.931 . S
C1209 C1208 1.370 . S
C1209 C1213 1.408 . S
C1210 C1208 1.363 . S
C1210 C1211 1.370 . S
C1210 C1214 1.524 . S
C1211 C1203 1.503 . S
C1211 C1210 1.370 . S
C1211 C1212 1.403 . S
C1212 C1211 1.403 . S
C1212 C1213 1.404 . S
C1212 C1215 1.539 . S
C1213 C1209 1.408 . S
C1213 C1212 1.404 . S
C1213 H1225 0.930 . S
C1214 C1210 1.524 . S
C1214 H1226 0.956 . S
C1214 H1227 0.961 . S
C1214 H1228 0.961 . S
C1215 C1212 1.539 . S
C1215 H1229 0.958 . S
C1215 H1230 0.961 . S
C1215 H1231 0.960 . S
H1216 C1200 0.931 . S
H1217 C1205 0.929 . S
H1218 C1206 0.960 . S
H1219 C1206 0.962 . S
H1220 C1206 0.960 . S
H1221 C1207 0.961 . S
H1222 C1207 0.961 . S
H1223 C1207 0.961 . S
H1224 C1208 0.931 . S
H1225 C1213 0.930 . S
H1226 C1214 0.956 . S
H1227 C1214 0.961 . S
H1228 C1214 0.961 . S
H1229 C1215 0.958 . S
H1230 C1215 0.961 . S
H1231 C1215 0.960 . S
C1232 C1233 1.391 . S
C1232 C1234 1.394 . S
C1232 H1248 0.931 . S
C1233 C1232 1.391 . S
C1233 C1237 1.376 . S
C1234 C1232 1.394 . S
C1234 C1235 1.369 . S
C1234 C1238 1.531 . S
C1235 C1234 1.369 . S
C1235 C1236 1.410 . S
C1235 C1243 1.503 . S
C1236 C1235 1.410 . S
C1236 C1237 1.392 . S
C1236 C1239 1.511 . S
C1237 C1233 1.376 . S
C1237 C1236 1.392 . S
C1237 H1249 0.929 . S
C1238 C1234 1.531 . S
C1238 H1250 0.960 . S
C1238 H1251 0.962 . S
C1238 H1252 0.960 . S
C1239 C1236 1.511 . S
C1239 H1253 0.961 . S
C1239 H1254 0.961 . S
C1239 H1255 0.961 . S
C1240 C1241 1.370 . S
C1240 C1242 1.363 . S
C1240 H1256 0.931 . S
C1241 C1240 1.370 . S
C1241 C1245 1.408 . S
C1242 C1240 1.363 . S
C1242 C1243 1.370 . S
C1242 C1246 1.524 . S
C1243 C1235 1.503 . S
C1243 C1242 1.370 . S
C1243 C1244 1.403 . S
C1244 C1243 1.403 . S
C1244 C1245 1.404 . S
C1244 C1247 1.539 . S
C1245 C1241 1.408 . S
C1245 C1244 1.404 . S
C1245 H1257 0.930 . S
C1246 C1242 1.524 . S
C1246 H1258 0.956 . S
C1246 H1259 0.961 . S
C1246 H1260 0.961 . S
C1247 C1244 1.539 . S
C1247 H1261 0.958 . S
C1247 H1262 0.961 . S
C1247 H1263 0.960 . S
H1248 C1232 0.931 . S
H1249 C1237 0.929 . S
H1250 C1238 0.960 . S
H1251 C1238 0.962 . S
H1252 C1238 0.960 . S
H1253 C1239 0.961 . S
H1254 C1239 0.961 . S
H1255 C1239 0.961 . S
H1256 C1240 0.931 . S
H1257 C1245 0.930 . S
H1258 C1246 0.956 . S
H1259 C1246 0.961 . S
H1260 C1246 0.961 . S
H1261 C1247 0.958 . S
H1262 C1247 0.961 . S
H1263 C1247 0.960 . S
C1264 C1265 1.391 . S
C1264 C1266 1.394 . S
C1264 H1280 0.931 . S
C1265 C1264 1.391 . S
C1265 C1269 1.376 . S
C1266 C1264 1.394 . S
C1266 C1267 1.369 . S
C1266 C1270 1.531 . S
C1267 C1266 1.369 . S
C1267 C1268 1.410 . S
C1267 C1275 1.503 . S
C1268 C1267 1.410 . S
C1268 C1269 1.392 . S
C1268 C1271 1.511 . S
C1269 C1265 1.376 . S
C1269 C1268 1.392 . S
C1269 H1281 0.929 . S
C1270 C1266 1.531 . S
C1270 H1282 0.960 . S
C1270 H1283 0.962 . S
C1270 H1284 0.960 . S
C1271 C1268 1.511 . S
C1271 H1285 0.961 . S
C1271 H1286 0.961 . S
C1271 H1287 0.961 . S
C1272 C1273 1.370 . S
C1272 C1274 1.363 . S
C1272 H1288 0.931 . S
C1273 C1272 1.370 . S
C1273 C1277 1.408 . S
C1274 C1272 1.363 . S
C1274 C1275 1.370 . S
C1274 C1278 1.524 . S
C1275 C1267 1.503 . S
C1275 C1274 1.370 . S
C1275 C1276 1.403 . S
C1276 C1275 1.403 . S
C1276 C1277 1.404 . S
C1276 C1279 1.539 . S
C1277 C1273 1.408 . S
C1277 C1276 1.404 . S
C1277 H1289 0.930 . S
C1278 C1274 1.524 . S
C1278 H1290 0.956 . S
C1278 H1291 0.961 . S
C1278 H1292 0.961 . S
C1279 C1276 1.539 . S
C1279 H1293 0.958 . S
C1279 H1294 0.961 . S
C1279 H1295 0.960 . S
H1280 C1264 0.931 . S
H1281 C1269 0.929 . S
H1282 C1270 0.960 . S
H1283 C1270 0.962 . S
H1284 C1270 0.960 . S
H1285 C1271 0.961 . S
H1286 C1271 0.961 . S
H1287 C1271 0.961 . S
H1288 C1272 0.931 . S
H1289 C1277 0.930 . S
H1290 C1278 0.956 . S
H1291 C1278 0.961 . S
H1292 C1278 0.961 . S
H1293 C1279 0.958 . S
H1294 C1279 0.961 . S
H1295 C1279 0.960 . S
C1296 C1297 1.391 1_565 S
C1296 C1298 1.394 . S
C1296 H1312 0.931 . S
C1297 C1296 1.391 1_545 S
C1297 C1301 1.376 . S
C1298 C1296 1.394 . S
C1298 C1299 1.369 1_565 S
C1298 C1302 1.531 . S
C1299 C1298 1.369 1_545 S
C1299 C1300 1.410 . S
C1299 C1307 1.503 1_655 S
C1300 C1299 1.410 . S
C1300 C1301 1.392 . S
C1300 C1303 1.511 . S
C1301 C1297 1.376 . S
C1301 C1300 1.392 . S
C1301 H1313 0.929 . S
C1302 C1298 1.531 . S
C1302 H1314 0.960 1_655 S
C1302 H1315 0.962 . S
C1302 H1316 0.960 . S
C1303 C1300 1.511 . S
C1303 H1317 0.961 . S
C1303 H1318 0.961 1_655 S
C1303 H1319 0.961 . S
C1304 C1305 1.370 1_565 S
C1304 C1306 1.363 . S
C1304 H1320 0.931 . S
C1305 C1304 1.370 1_545 S
C1305 C1309 1.408 . S
C1306 C1304 1.363 . S
C1306 C1307 1.370 1_565 S
C1306 C1310 1.524 . S
C1307 C1299 1.503 1_455 S
C1307 C1306 1.370 1_545 S
C1307 C1308 1.403 . S
C1308 C1307 1.403 . S
C1308 C1309 1.404 . S
C1308 C1311 1.539 . S
C1309 C1305 1.408 . S
C1309 C1308 1.404 . S
C1309 H1321 0.930 . S
C1310 C1306 1.524 . S
C1310 H1322 0.956 . S
C1310 H1323 0.936 1_455 S
C1310 H1324 0.961 . S
C1311 C1308 1.539 . S
C1311 H1325 0.958 . S
C1311 H1326 0.961 . S
C1311 H1327 0.960 1_455 S
H1312 C1296 0.931 . S
H1313 C1301 0.929 . S
H1314 C1302 0.960 1_455 S
H1315 C1302 0.962 . S
H1316 C1302 0.960 . S
H1317 C1303 0.961 . S
H1318 C1303 0.961 1_455 S
H1319 C1303 0.961 . S
H1320 C1304 0.931 . S
H1321 C1309 0.930 . S
H1322 C1310 0.956 . S
H1323 C1310 0.936 1_655 S
H1324 C1310 0.961 . S
H1325 C1311 0.958 . S
H1326 C1311 0.961 . S
H1327 C1311 0.960 1_655 S
C1328 C1329 1.391 . S
C1328 C1330 1.394 . S
C1328 H1344 0.931 . S
C1329 C1328 1.391 . S
C1329 C1333 1.376 1_545 S
C1330 C1328 1.394 . S
C1330 C1331 1.369 . S
C1330 C1334 1.531 . S
C1331 C1330 1.369 . S
C1331 C1332 1.410 1_545 S
C1331 C1339 1.503 1_455 S
C1332 C1331 1.410 1_565 S
C1332 C1333 1.392 . S
C1332 C1335 1.511 . S
C1333 C1329 1.376 1_565 S
C1333 C1332 1.392 . S
C1333 H1345 0.929 . S
C1334 C1330 1.531 . S
C1334 H1346 0.960 1_455 S
C1334 H1347 0.962 . S
C1334 H1348 0.960 . S
C1335 C1332 1.511 . S
C1335 H1349 0.961 . S
C1335 H1350 0.961 1_455 S
C1335 H1351 0.961 . S
C1336 C1337 1.370 . S
C1336 C1338 1.363 . S
C1336 H1352 0.931 . S
C1337 C1336 1.370 . S
C1337 C1341 1.408 1_545 S
C1338 C1336 1.363 . S
C1338 C1339 1.370 . S
C1338 C1342 1.524 . S
C1339 C1331 1.503 1_655 S
C1339 C1338 1.370 . S
C1339 C1340 1.403 1_545 S
C1340 C1339 1.403 1_565 S
C1340 C1341 1.404 . S
C1340 C1343 1.539 . S
C1341 C1337 1.408 1_565 S
C1341 C1340 1.404 . S
C1341 H1353 0.930 . S
C1342 C1338 1.524 . S
C1342 H1354 0.949 1_655 S
C1342 H1355 0.961 1_655 S
C1342 H1356 0.961 . S
C1343 C1340 1.539 . S
C1343 H1357 0.958 . S
C1343 H1358 0.961 . S
C1343 H1359 0.960 . S
H1344 C1328 0.931 . S
H1345 C1333 0.929 . S
H1346 C1334 0.960 1_655 S
H1347 C1334 0.962 . S
H1348 C1334 0.960 . S
H1349 C1335 0.961 . S
H1350 C1335 0.961 1_655 S
H1351 C1335 0.961 . S
H1352 C1336 0.931 . S
H1353 C1341 0.930 . S
H1354 C1342 0.949 1_455 S
H1355 C1342 0.961 1_455 S
H1356 C1342 0.961 . S
H1357 C1343 0.958 . S
H1358 C1343 0.961 . S
H1359 C1343 0.960 . S
C1360 C1361 1.391 . S
C1360 C1362 1.394 . S
C1360 H1376 0.931 . S
C1361 C1360 1.391 . S
C1361 C1365 1.376 . S
C1362 C1360 1.394 . S
C1362 C1363 1.369 . S
C1362 C1366 1.531 . S
C1363 C1362 1.369 . S
C1363 C1364 1.410 . S
C1363 C1371 1.503 1_655 S
C1364 C1363 1.410 . S
C1364 C1365 1.392 . S
C1364 C1367 1.511 . S
C1365 C1361 1.376 . S
C1365 C1364 1.392 . S
C1365 H1377 0.929 . S
C1366 C1362 1.531 . S
C1366 H1378 0.960 1_655 S
C1366 H1379 0.962 . S
C1366 H1380 0.960 . S
C1367 C1364 1.511 . S
C1367 H1381 0.961 . S
C1367 H1382 0.961 1_655 S
C1367 H1383 0.961 . S
C1368 C1369 1.370 . S
C1368 C1370 1.363 . S
C1368 H1384 0.931 . S
C1369 C1368 1.370 . S
C1369 C1373 1.408 . S
C1370 C1368 1.363 . S
C1370 C1371 1.370 . S
C1370 C1374 1.524 . S
C1371 C1363 1.503 1_455 S
C1371 C1370 1.370 . S
C1371 C1372 1.403 . S
C1372 C1371 1.403 . S
C1372 C1373 1.404 . S
C1372 C1375 1.539 . S
C1373 C1369 1.408 . S
C1373 C1372 1.404 . S
C1373 H1385 0.930 . S
C1374 C1370 1.524 . S
C1374 H1386 0.956 . S
C1374 H1387 0.961 1_455 S
C1374 H1388 0.961 . S
C1375 C1372 1.539 . S
C1375 H1389 0.958 . S
C1375 H1390 0.961 . S
C1375 H1391 0.921 1_455 S
H1376 C1360 0.931 . S
H1377 C1365 0.929 . S
H1378 C1366 0.960 1_455 S
H1379 C1366 0.962 . S
H1380 C1366 0.960 . S
H1381 C1367 0.961 . S
H1382 C1367 0.961 1_455 S
H1383 C1367 0.961 . S
H1384 C1368 0.931 . S
H1385 C1373 0.930 . S
H1386 C1374 0.956 . S
H1387 C1374 0.961 1_655 S
H1388 C1374 0.961 . S
H1389 C1375 0.958 . S
H1390 C1375 0.961 . S
H1391 C1375 0.921 1_655 S
C1392 C1393 1.391 . S
C1392 C1394 1.394 . S
C1392 H1408 0.931 . S
C1393 C1392 1.391 . S
C1393 C1397 1.376 . S
C1394 C1392 1.394 . S
C1394 C1395 1.369 . S
C1394 C1398 1.531 . S
C1395 C1394 1.369 . S
C1395 C1396 1.410 . S
C1395 C1403 1.503 1_655 S
C1396 C1395 1.410 . S
C1396 C1397 1.392 . S
C1396 C1399 1.511 . S
C1397 C1393 1.376 . S
C1397 C1396 1.392 . S
C1397 H1409 0.929 . S
C1398 C1394 1.531 . S
C1398 H1410 0.932 1_655 S
C1398 H1411 0.962 . S
C1398 H1412 0.960 . S
C1399 C1396 1.511 . S
C1399 H1413 0.961 . S
C1399 H1414 0.961 1_655 S
C1399 H1415 0.961 . S
C1400 C1401 1.370 . S
C1400 C1402 1.363 . S
C1400 H1416 0.931 . S
C1401 C1400 1.370 . S
C1401 C1405 1.408 . S
C1402 C1400 1.363 . S
C1402 C1403 1.370 . S
C1402 C1406 1.524 . S
C1403 C1395 1.503 1_455 S
C1403 C1402 1.370 . S
C1403 C1404 1.403 . S
C1404 C1403 1.403 . S
C1404 C1405 1.404 . S
C1404 C1407 1.539 . S
C1405 C1401 1.408 . S
C1405 C1404 1.404 . S
C1405 H1417 0.930 . S
C1406 C1402 1.524 . S
C1406 H1418 0.979 . S
C1406 H1419 0.939 1_455 S
C1406 H1420 0.961 . S
C1407 C1404 1.539 . S
C1407 H1421 0.958 . S
C1407 H1422 0.961 . S
C1407 H1423 0.971 . S
H1408 C1392 0.931 . S
H1409 C1397 0.929 . S
H1410 C1398 0.932 1_455 S
H1411 C1398 0.962 . S
H1412 C1398 0.960 . S
H1413 C1399 0.961 . S
H1414 C1399 0.961 1_455 S
H1415 C1399 0.961 . S
H1416 C1400 0.931 . S
H1417 C1405 0.930 . S
H1418 C1406 0.979 . S
H1419 C1406 0.939 1_655 S
H1420 C1406 0.961 . S
H1421 C1407 0.958 . S
H1422 C1407 0.961 . S
H1423 C1407 0.971 . S
C1424 C1425 1.391 . S
C1424 C1426 1.394 . S
C1424 H1440 0.931 . S
C1425 C1424 1.391 . S
C1425 C1429 1.376 1_545 S
C1426 C1424 1.394 . S
C1426 C1427 1.369 . S
C1426 C1430 1.531 . S
C1427 C1426 1.369 . S
C1427 C1428 1.410 1_545 S
C1427 C1435 1.503 . S
C1428 C1427 1.410 1_565 S
C1428 C1429 1.392 . S
C1428 C1431 1.511 . S
C1429 C1425 1.376 1_565 S
C1429 C1428 1.392 . S
C1429 H1441 0.929 . S
C1430 C1426 1.531 . S
C1430 H1442 0.960 . S
C1430 H1443 0.962 . S
C1430 H1444 0.960 . S
C1431 C1428 1.511 . S
C1431 H1445 0.961 . S
C1431 H1446 0.961 . S
C1431 H1447 0.961 . S
C1432 C1433 1.370 . S
C1432 C1434 1.363 . S
C1432 H1448 0.931 . S
C1433 C1432 1.370 . S
C1433 C1437 1.408 . S
C1434 C1432 1.363 . S
C1434 C1435 1.370 . S
C1434 C1438 1.524 . S
C1435 C1427 1.503 . S
C1435 C1434 1.370 . S
C1435 C1436 1.403 . S
C1436 C1435 1.403 . S
C1436 C1437 1.404 . S
C1436 C1439 1.539 . S
C1437 C1433 1.408 . S
C1437 C1436 1.404 . S
C1437 H1449 0.930 . S
C1438 C1434 1.524 . S
C1438 H1450 0.956 . S
C1438 H1451 0.961 1_545 S
C1438 H1452 0.957 1_545 S
C1439 C1436 1.539 . S
C1439 H1453 0.958 . S
C1439 H1454 0.961 . S
C1439 H1455 0.960 . S
H1440 C1424 0.931 . S
H1441 C1429 0.929 . S
H1442 C1430 0.960 . S
H1443 C1430 0.962 . S
H1444 C1430 0.960 . S
H1445 C1431 0.961 . S
H1446 C1431 0.961 . S
H1447 C1431 0.961 . S
H1448 C1432 0.931 . S
H1449 C1437 0.930 . S
H1450 C1438 0.956 . S
H1451 C1438 0.961 1_565 S
H1452 C1438 0.957 1_565 S
H1453 C1439 0.958 . S
H1454 C1439 0.961 . S
H1455 C1439 0.960 . S
C1456 C1457 1.391 1_565 S
C1456 C1458 1.394 . S
C1456 H1472 0.931 . S
C1457 C1456 1.391 1_545 S
C1457 C1461 1.376 . S
C1458 C1456 1.394 . S
C1458 C1459 1.369 1_565 S
C1458 C1462 1.531 . S
C1459 C1458 1.369 1_545 S
C1459 C1460 1.410 . S
C1459 C1467 1.503 . S
C1460 C1459 1.410 . S
C1460 C1461 1.392 . S
C1460 C1463 1.511 . S
C1461 C1457 1.376 . S
C1461 C1460 1.392 . S
C1461 H1473 0.929 . S
C1462 C1458 1.531 . S
C1462 H1474 0.960 . S
C1462 H1475 0.962 . S
C1462 H1476 0.960 . S
C1463 C1460 1.511 . S
C1463 H1477 0.961 . S
C1463 H1478 0.961 . S
C1463 H1479 0.961 . S
C1464 C1465 1.370 . S
C1464 C1466 1.363 . S
C1464 H1480 0.931 . S
C1465 C1464 1.370 . S
C1465 C1469 1.408 . S
C1466 C1464 1.363 . S
C1466 C1467 1.370 . S
C1466 C1470 1.524 . S
C1467 C1459 1.503 . S
C1467 C1466 1.370 . S
C1467 C1468 1.403 . S
C1468 C1467 1.403 . S
C1468 C1469 1.404 . S
C1468 C1471 1.539 1_545 S
C1469 C1465 1.408 . S
C1469 C1468 1.404 . S
C1469 H1481 0.930 1_545 S
C1470 C1466 1.524 . S
C1470 H1482 0.956 . S
C1470 H1483 0.961 . S
C1470 H1484 0.961 . S
C1471 C1468 1.539 1_565 S
C1471 H1485 0.958 . S
C1471 H1486 0.961 1_565 S
C1471 H1487 0.960 1_565 S
H1472 C1456 0.931 . S
H1473 C1461 0.929 . S
H1474 C1462 0.960 . S
H1475 C1462 0.962 . S
H1476 C1462 0.960 . S
H1477 C1463 0.961 . S
H1478 C1463 0.961 . S
H1479 C1463 0.961 . S
H1480 C1464 0.931 . S
H1481 C1469 0.930 1_565 S
H1482 C1470 0.956 . S
H1483 C1470 0.961 . S
H1484 C1470 0.961 . S
H1485 C1471 0.958 . S
H1486 C1471 0.961 1_545 S
H1487 C1471 0.960 1_545 S
C1488 C1489 1.391 . S
C1488 C1490 1.394 . S
C1488 H1504 0.931 . S
C1489 C1488 1.391 . S
C1489 C1493 1.376 . S
C1490 C1488 1.394 . S
C1490 C1491 1.369 . S
C1490 C1494 1.531 . S
C1491 C1490 1.369 . S
C1491 C1492 1.410 . S
C1491 C1499 1.503 . S
C1492 C1491 1.410 . S
C1492 C1493 1.392 . S
C1492 C1495 1.511 . S
C1493 C1489 1.376 . S
C1493 C1492 1.392 . S
C1493 H1505 0.929 . S
C1494 C1490 1.531 . S
C1494 H1506 0.960 . S
C1494 H1507 0.962 . S
C1494 H1508 0.960 . S
C1495 C1492 1.511 . S
C1495 H1509 0.961 . S
C1495 H1510 0.961 . S
C1495 H1511 0.961 . S
C1496 C1497 1.370 . S
C1496 C1498 1.363 . S
C1496 H1512 0.931 . S
C1497 C1496 1.370 . S
C1497 C1501 1.408 . S
C1498 C1496 1.363 . S
C1498 C1499 1.370 . S
C1498 C1502 1.524 . S
C1499 C1491 1.503 . S
C1499 C1498 1.370 . S
C1499 C1500 1.403 . S
C1500 C1499 1.403 . S
C1500 C1501 1.404 . S
C1500 C1503 1.539 . S
C1501 C1497 1.408 . S
C1501 C1500 1.404 . S
C1501 H1513 0.930 . S
C1502 C1498 1.524 . S
C1502 H1514 0.956 . S
C1502 H1515 0.961 . S
C1502 H1516 0.961 . S
C1503 C1500 1.539 . S
C1503 H1517 0.958 . S
C1503 H1518 0.961 . S
C1503 H1519 0.960 . S
H1504 C1488 0.931 . S
H1505 C1493 0.929 . S
H1506 C1494 0.960 . S
H1507 C1494 0.962 . S
H1508 C1494 0.960 . S
H1509 C1495 0.961 . S
H1510 C1495 0.961 . S
H1511 C1495 0.961 . S
H1512 C1496 0.931 . S
H1513 C1501 0.930 . S
H1514 C1502 0.956 . S
H1515 C1502 0.961 . S
H1516 C1502 0.961 . S
H1517 C1503 0.958 . S
H1518 C1503 0.961 . S
H1519 C1503 0.960 . S
C1520 C1521 1.391 . S
C1520 C1522 1.394 . S
C1520 H1536 0.931 . S
C1521 C1520 1.391 . S
C1521 C1525 1.376 . S
C1522 C1520 1.394 . S
C1522 C1523 1.369 . S
C1522 C1526 1.531 . S
C1523 C1522 1.369 . S
C1523 C1524 1.410 . S
C1523 C1531 1.503 . S
C1524 C1523 1.410 . S
C1524 C1525 1.392 . S
C1524 C1527 1.511 . S
C1525 C1521 1.376 . S
C1525 C1524 1.392 . S
C1525 H1537 0.929 . S
C1526 C1522 1.531 . S
C1526 H1538 0.960 . S
C1526 H1539 0.962 . S
C1526 H1540 0.960 . S
C1527 C1524 1.511 . S
C1527 H1541 0.961 . S
C1527 H1542 0.961 . S
C1527 H1543 0.961 . S
C1528 C1529 1.370 . S
C1528 C1530 1.363 . S
C1528 H1544 0.931 . S
C1529 C1528 1.370 . S
C1529 C1533 1.408 . S
C1530 C1528 1.363 . S
C1530 C1531 1.370 . S
C1530 C1534 1.524 . S
C1531 C1523 1.503 . S
C1531 C1530 1.370 . S
C1531 C1532 1.403 . S
C1532 C1531 1.403 . S
C1532 C1533 1.404 . S
C1532 C1535 1.539 . S
C1533 C1529 1.408 . S
C1533 C1532 1.404 . S
C1533 H1545 0.930 . S
C1534 C1530 1.524 . S
C1534 H1546 0.956 . S
C1534 H1547 0.961 . S
C1534 H1548 0.961 . S
C1535 C1532 1.539 . S
C1535 H1549 0.958 . S
C1535 H1550 0.961 . S
C1535 H1551 0.960 . S
H1536 C1520 0.931 . S
H1537 C1525 0.929 . S
H1538 C1526 0.960 . S
H1539 C1526 0.962 . S
H1540 C1526 0.960 . S
H1541 C1527 0.961 . S
H1542 C1527 0.961 . S
H1543 C1527 0.961 . S
H1544 C1528 0.931 . S
H1545 C1533 0.930 . S
H1546 C1534 0.956 . S
H1547 C1534 0.961 . S
H1548 C1534 0.961 . S
H1549 C1535 0.958 . S
H1550 C1535 0.961 . S
H1551 C1535 0.960 . S
C1552 C1553 1.391 . S
C1552 C1554 1.394 . S
C1552 H1568 0.931 . S
C1553 C1552 1.391 . S
C1553 C1557 1.376 1_545 S
C1554 C1552 1.394 . S
C1554 C1555 1.369 . S
C1554 C1558 1.531 . S
C1555 C1554 1.369 . S
C1555 C1556 1.410 1_545 S
C1555 C1563 1.503 1_556 S
C1556 C1555 1.410 1_565 S
C1556 C1557 1.392 . S
C1556 C1559 1.511 . S
C1557 C1553 1.376 1_565 S
C1557 C1556 1.392 . S
C1557 H1569 0.929 . S
C1558 C1554 1.531 . S
C1558 H1570 0.960 1_556 S
C1558 H1571 0.962 . S
C1558 H1572 0.960 . S
C1559 C1556 1.511 . S
C1559 H1573 0.961 . S
C1559 H1574 0.961 1_556 S
C1559 H1575 0.961 . S
C1560 C1561 1.370 . S
C1560 C1562 1.363 . S
C1560 H1576 0.931 1_545 S
C1561 C1560 1.370 . S
C1561 C1565 1.408 . S
C1562 C1560 1.363 . S
C1562 C1563 1.370 . S
C1562 C1566 1.524 1_545 S
C1563 C1555 1.503 1_554 S
C1563 C1562 1.370 . S
C1563 C1564 1.403 . S
C1564 C1563 1.403 . S
C1564 C1565 1.404 . S
C1564 C1567 1.539 . S
C1565 C1561 1.408 . S
C1565 C1564 1.404 . S
C1565 H1577 0.930 . S
C1566 C1562 1.524 1_565 S
C1566 H1578 0.981 1_565 S
C1566 H1579 0.961 1_554 S
C1566 H1580 0.961 . S
C1567 C1564 1.539 . S
C1567 H1581 0.958 . S
C1567 H1582 0.961 . S
C1567 H1583 0.978 . S
H1568 C1552 0.931 . S
H1569 C1557 0.929 . S
H1570 C1558 0.960 1_554 S
H1571 C1558 0.962 . S
H1572 C1558 0.960 . S
H1573 C1559 0.961 . S
H1574 C1559 0.961 1_554 S
H1575 C1559 0.961 . S
H1576 C1560 0.931 1_565 S
H1577 C1565 0.930 . S
H1578 C1566 0.981 1_545 S
H1579 C1566 0.961 1_556 S
H1580 C1566 0.961 . S
H1581 C1567 0.958 . S
H1582 C1567 0.961 . S
H1583 C1567 0.978 . S
C1584 C1585 1.391 . S
C1584 C1586 1.394 . S
C1584 H1600 0.931 . S
C1585 C1584 1.391 . S
C1585 C1589 1.376 . S
C1586 C1584 1.394 . S
C1586 C1587 1.369 . S
C1586 C1590 1.531 . S
C1587 C1586 1.369 . S
C1587 C1588 1.410 . S
C1587 C1595 1.503 1_556 S
C1588 C1587 1.410 . S
C1588 C1589 1.392 . S
C1588 C1591 1.511 1_545 S
C1589 C1585 1.376 . S
C1589 C1588 1.392 . S
C1589 H1601 0.929 1_545 S
C1590 C1586 1.531 . S
C1590 H1602 0.960 1_556 S
C1590 H1603 0.962 . S
C1590 H1604 0.960 . S
C1591 C1588 1.511 1_565 S
C1591 H1605 0.961 . S
C1591 H1606 0.961 1_556 S
C1591 H1607 0.961 1_565 S
C1592 C1593 1.370 1_565 S
C1592 C1594 1.363 . S
C1592 H1608 0.931 . S
C1593 C1592 1.370 1_545 S
C1593 C1597 1.408 . S
C1594 C1592 1.363 . S
C1594 C1595 1.370 1_565 S
C1594 C1598 1.524 . S
C1595 C1587 1.503 1_554 S
C1595 C1594 1.370 1_545 S
C1595 C1596 1.403 . S
C1596 C1595 1.403 . S
C1596 C1597 1.404 . S
C1596 C1599 1.539 . S
C1597 C1593 1.408 . S
C1597 C1596 1.404 . S
C1597 H1609 0.930 . S
C1598 C1594 1.524 . S
C1598 H1610 0.956 . S
C1598 H1611 0.941 1_554 S
C1598 H1612 0.961 . S
C1599 C1596 1.539 . S
C1599 H1613 0.958 . S
C1599 H1614 0.961 . S
C1599 H1615 0.950 1_554 S
H1600 C1584 0.931 . S
H1601 C1589 0.929 1_565 S
H1602 C1590 0.960 1_554 S
H1603 C1590 0.962 . S
H1604 C1590 0.960 . S
H1605 C1591 0.961 . S
H1606 C1591 0.961 1_554 S
H1607 C1591 0.961 1_545 S
H1608 C1592 0.931 . S
H1609 C1597 0.930 . S
H1610 C1598 0.956 . S
H1611 C1598 0.941 1_556 S
H1612 C1598 0.961 . S
H1613 C1599 0.958 . S
H1614 C1599 0.961 . S
H1615 C1599 0.950 1_556 S
C1616 C1617 1.391 . S
C1616 C1618 1.394 . S
C1616 H1632 0.931 . S
C1617 C1616 1.391 . S
C1617 C1621 1.376 . S
C1618 C1616 1.394 . S
C1618 C1619 1.369 . S
C1618 C1622 1.531 . S
C1619 C1618 1.369 . S
C1619 C1620 1.410 . S
C1619 C1627 1.503 . S
C1620 C1619 1.410 . S
C1620 C1621 1.392 . S
C1620 C1623 1.511 . S
C1621 C1617 1.376 . S
C1621 C1620 1.392 . S
C1621 H1633 0.929 . S
C1622 C1618 1.531 . S
C1622 H1634 0.960 . S
C1622 H1635 0.962 . S
C1622 H1636 0.960 . S
C1623 C1620 1.511 . S
C1623 H1637 0.961 . S
C1623 H1638 0.961 . S
C1623 H1639 0.961 . S
C1624 C1625 1.370 . S
C1624 C1626 1.363 . S
C1624 H1640 0.931 . S
C1625 C1624 1.370 . S
C1625 C1629 1.408 . S
C1626 C1624 1.363 . S
C1626 C1627 1.370 . S
C1626 C1630 1.524 . S
C1627 C1619 1.503 . S
C1627 C1626 1.370 . S
C1627 C1628 1.403 . S
C1628 C1627 1.403 . S
C1628 C1629 1.404 . S
C1628 C1631 1.539 . S
C1629 C1625 1.408 . S
C1629 C1628 1.404 . S
C1629 H1641 0.930 . S
C1630 C1626 1.524 . S
C1630 H1642 0.956 . S
C1630 H1643 0.961 . S
C1630 H1644 0.961 . S
C1631 C1628 1.539 . S
C1631 H1645 0.958 . S
C1631 H1646 0.961 . S
C1631 H1647 0.960 . S
H1632 C1616 0.931 . S
H1633 C1621 0.929 . S
H1634 C1622 0.960 . S
H1635 C1622 0.962 . S
H1636 C1622 0.960 . S
H1637 C1623 0.961 . S
H1638 C1623 0.961 . S
H1639 C1623 0.961 . S
H1640 C1624 0.931 . S
H1641 C1629 0.930 . S
H1642 C1630 0.956 . S
H1643 C1630 0.961 . S
H1644 C1630 0.961 . S
H1645 C1631 0.958 . S
H1646 C1631 0.961 . S
H1647 C1631 0.960 . S
C1648 C1649 1.391 . S
C1648 C1650 1.394 . S
C1648 H1664 0.931 . S
C1649 C1648 1.391 . S
C1649 C1653 1.376 . S
C1650 C1648 1.394 . S
C1650 C1651 1.369 . S
C1650 C1654 1.531 . S
C1651 C1650 1.369 . S
C1651 C1652 1.410 . S
C1651 C1659 1.503 . S
C1652 C1651 1.410 . S
C1652 C1653 1.392 . S
C1652 C1655 1.511 . S
C1653 C1649 1.376 . S
C1653 C1652 1.392 . S
C1653 H1665 0.929 . S
C1654 C1650 1.531 . S
C1654 H1666 0.960 . S
C1654 H1667 0.962 . S
C1654 H1668 0.960 . S
C1655 C1652 1.511 . S
C1655 H1669 0.961 . S
C1655 H1670 0.961 . S
C1655 H1671 0.961 . S
C1656 C1657 1.370 . S
C1656 C1658 1.363 . S
C1656 H1672 0.931 . S
C1657 C1656 1.370 . S
C1657 C1661 1.408 . S
C1658 C1656 1.363 . S
C1658 C1659 1.370 . S
C1658 C1662 1.524 . S
C1659 C1651 1.503 . S
C1659 C1658 1.370 . S
C1659 C1660 1.403 . S
C1660 C1659 1.403 . S
C1660 C1661 1.404 . S
C1660 C1663 1.539 . S
C1661 C1657 1.408 . S
C1661 C1660 1.404 . S
C1661 H1673 0.930 . S
C1662 C1658 1.524 . S
C1662 H1674 0.956 . S
C1662 H1675 0.961 . S
C1662 H1676 0.961 . S
C1663 C1660 1.539 . S
C1663 H1677 0.958 . S
C1663 H1678 0.961 . S
C1663 H1679 0.960 . S
H1664 C1648 0.931 . S
H1665 C1653 0.929 . S
H1666 C1654 0.960 . S
H1667 C1654 0.962 . S
H1668 C1654 0.960 . S
H1669 C1655 0.961 . S
H1670 C1655 0.961 . S
H1671 C1655 0.961 . S
H1672 C1656 0.931 . S
H1673 C1661 0.930 . S
H1674 C1662 0.956 . S
H1675 C1662 0.961 . S
H1676 C1662 0.961 . S
H1677 C1663 0.958 . S
H1678 C1663 0.961 . S
H1679 C1663 0.960 . S
C1680 C1681 1.391 1_565 S
C1680 C1682 1.394 . S
C1680 H1696 0.931 . S
C1681 C1680 1.391 1_545 S
C1681 C1685 1.376 . S
C1682 C1680 1.394 . S
C1682 C1683 1.369 1_565 S
C1682 C1686 1.531 . S
C1683 C1682 1.369 1_545 S
C1683 C1684 1.410 . S
C1683 C1691 1.503 . S
C1684 C1683 1.410 . S
C1684 C1685 1.392 . S
C1684 C1687 1.511 . S
C1685 C1681 1.376 . S
C1685 C1684 1.392 . S
C1685 H1697 0.929 . S
C1686 C1682 1.531 . S
C1686 H1698 0.960 . S
C1686 H1699 0.962 . S
C1686 H1700 0.960 . S
C1687 C1684 1.511 . S
C1687 H1701 0.961 . S
C1687 H1702 0.961 . S
C1687 H1703 0.961 . S
C1688 C1689 1.370 . S
C1688 C1690 1.363 . S
C1688 H1704 0.931 . S
C1689 C1688 1.370 . S
C1689 C1693 1.408 1_545 S
C1690 C1688 1.363 . S
C1690 C1691 1.370 . S
C1690 C1694 1.524 . S
C1691 C1683 1.503 . S
C1691 C1690 1.370 . S
C1691 C1692 1.403 1_545 S
C1692 C1691 1.403 1_565 S
C1692 C1693 1.404 . S
C1692 C1695 1.539 . S
C1693 C1689 1.408 1_565 S
C1693 C1692 1.404 . S
C1693 H1705 0.930 . S
C1694 C1690 1.524 . S
C1694 H1706 0.956 . S
C1694 H1707 0.961 . S
C1694 H1708 0.961 . S
C1695 C1692 1.539 . S
C1695 H1709 0.958 . S
C1695 H1710 0.961 . S
C1695 H1711 0.960 . S
H1696 C1680 0.931 . S
H1697 C1685 0.929 . S
H1698 C1686 0.960 . S
H1699 C1686 0.962 . S
H1700 C1686 0.960 . S
H1701 C1687 0.961 . S
H1702 C1687 0.961 . S
H1703 C1687 0.961 . S
H1704 C1688 0.931 . S
H1705 C1693 0.930 . S
H1706 C1694 0.956 . S
H1707 C1694 0.961 . S
H1708 C1694 0.961 . S
H1709 C1695 0.958 . S
H1710 C1695 0.961 . S
H1711 C1695 0.960 . S
C1712 C1713 1.391 . S
C1712 C1714 1.394 . S
C1712 H1728 0.931 . S
C1713 C1712 1.391 . S
C1713 C1717 1.376 1_545 S
C1714 C1712 1.394 . S
C1714 C1715 1.369 . S
C1714 C1718 1.531 . S
C1715 C1714 1.369 . S
C1715 C1716 1.410 1_545 S
C1715 C1723 1.503 . S
C1716 C1715 1.410 1_565 S
C1716 C1717 1.392 . S
C1716 C1719 1.511 . S
C1717 C1713 1.376 1_565 S
C1717 C1716 1.392 . S
C1717 H1729 0.929 . S
C1718 C1714 1.531 . S
C1718 H1730 0.960 . S
C1718 H1731 0.962 . S
C1718 H1732 0.960 . S
C1719 C1716 1.511 . S
C1719 H1733 0.961 . S
C1719 H1734 0.961 . S
C1719 H1735 0.961 . S
C1720 C1721 1.364 1_565 S
C1720 C1722 1.363 1_565 S
C1720 H1736 0.937 . S
C1721 C1720 1.364 1_545 S
C1721 C1725 1.408 . S
C1722 C1720 1.363 1_545 S
C1722 C1723 1.370 . S
C1722 C1726 1.524 1_545 S
C1723 C1715 1.503 . S
C1723 C1722 1.370 . S
C1723 C1724 1.403 . S
C1724 C1723 1.403 . S
C1724 C1725 1.404 . S
C1724 C1727 1.539 . S
C1725 C1721 1.408 . S
C1725 C1724 1.404 . S
C1725 H1737 0.930 . S
C1726 C1722 1.524 1_565 S
C1726 H1738 0.956 . S
C1726 H1739 0.961 . S
C1726 H1740 0.961 . S
C1727 C1724 1.539 . S
C1727 H1741 0.958 . S
C1727 H1742 0.961 . S
C1727 H1743 0.960 . S
H1728 C1712 0.931 . S
H1729 C1717 0.929 . S
H1730 C1718 0.960 . S
H1731 C1718 0.962 . S
H1732 C1718 0.960 . S
H1733 C1719 0.961 . S
H1734 C1719 0.961 . S
H1735 C1719 0.961 . S
H1736 C1720 0.937 . S
H1737 C1725 0.930 . S
H1738 C1726 0.956 . S
H1739 C1726 0.961 . S
H1740 C1726 0.961 . S
H1741 C1727 0.958 . S
H1742 C1727 0.961 . S
H1743 C1727 0.960 . S
C1744 C1745 1.391 . S
C1744 C1746 1.394 . S
C1744 H1760 0.931 . S
C1745 C1744 1.391 . S
C1745 C1749 1.376 . S
C1746 C1744 1.394 . S
C1746 C1747 1.369 . S
C1746 C1750 1.531 . S
C1747 C1746 1.369 . S
C1747 C1748 1.410 . S
C1747 C1755 1.503 1_554 S
C1748 C1747 1.410 . S
C1748 C1749 1.392 . S
C1748 C1751 1.511 . S
C1749 C1745 1.376 . S
C1749 C1748 1.392 . S
C1749 H1761 0.929 . S
C1750 C1746 1.531 . S
C1750 H1762 0.960 1_554 S
C1750 H1763 0.962 . S
C1750 H1764 0.960 . S
C1751 C1748 1.511 . S
C1751 H1765 0.961 . S
C1751 H1766 0.961 1_554 S
C1751 H1767 0.961 . S
C1752 C1753 1.370 . S
C1752 C1754 1.363 . S
C1752 H1768 0.931 . S
C1753 C1752 1.370 . S
C1753 C1757 1.408 . S
C1754 C1752 1.363 . S
C1754 C1755 1.370 . S
C1754 C1758 1.524 . S
C1755 C1747 1.503 1_556 S
C1755 C1754 1.370 . S
C1755 C1756 1.403 . S
C1756 C1755 1.403 . S
C1756 C1757 1.404 . S
C1756 C1759 1.539 . S
C1757 C1753 1.408 . S
C1757 C1756 1.404 . S
C1757 H1769 0.930 . S
C1758 C1754 1.524 . S
C1758 H1770 0.962 . S
C1758 H1771 0.961 1_556 S
C1758 H1772 0.961 . S
C1759 C1756 1.539 . S
C1759 H1773 0.958 . S
C1759 H1774 0.961 . S
C1759 H1775 1.007 . S
H1760 C1744 0.931 . S
H1761 C1749 0.929 . S
H1762 C1750 0.960 1_556 S
H1763 C1750 0.962 . S
H1764 C1750 0.960 . S
H1765 C1751 0.961 . S
H1766 C1751 0.961 1_556 S
H1767 C1751 0.961 . S
H1768 C1752 0.931 . S
H1769 C1757 0.930 . S
H1770 C1758 0.962 . S
H1771 C1758 0.961 1_554 S
H1772 C1758 0.961 . S
H1773 C1759 0.958 . S
H1774 C1759 0.961 . S
H1775 C1759 1.007 . S
C1776 C1777 1.391 . S
C1776 C1778 1.394 . S
C1776 H1792 0.931 . S
C1777 C1776 1.391 . S
C1777 C1781 1.376 . S
C1778 C1776 1.394 . S
C1778 C1779 1.369 . S
C1778 C1782 1.531 . S
C1779 C1778 1.369 . S
C1779 C1780 1.410 . S
C1779 C1787 1.503 1_556 S
C1780 C1779 1.410 . S
C1780 C1781 1.392 . S
C1780 C1783 1.511 . S
C1781 C1777 1.376 . S
C1781 C1780 1.392 . S
C1781 H1793 0.929 . S
C1782 C1778 1.531 . S
C1782 H1794 0.960 1_556 S
C1782 H1795 0.962 . S
C1782 H1796 0.960 . S
C1783 C1780 1.511 . S
C1783 H1797 0.961 . S
C1783 H1798 0.961 1_556 S
C1783 H1799 0.961 . S
C1784 C1785 1.370 . S
C1784 C1786 1.363 . S
C1784 H1800 0.931 . S
C1785 C1784 1.370 . S
C1785 C1789 1.408 . S
C1786 C1784 1.363 . S
C1786 C1787 1.370 . S
C1786 C1790 1.524 . S
C1787 C1779 1.503 1_554 S
C1787 C1786 1.370 . S
C1787 C1788 1.403 . S
C1788 C1787 1.403 . S
C1788 C1789 1.404 . S
C1788 C1791 1.539 . S
C1789 C1785 1.408 . S
C1789 C1788 1.404 . S
C1789 H1801 0.930 . S
C1790 C1786 1.524 . S
C1790 H1802 0.956 . S
C1790 H1803 0.941 1_554 S
C1790 H1804 0.961 . S
C1791 C1788 1.539 . S
C1791 H1805 0.958 . S
C1791 H1806 0.961 . S
C1791 H1807 0.950 1_554 S
H1792 C1776 0.931 . S
H1793 C1781 0.929 . S
H1794 C1782 0.960 1_554 S
H1795 C1782 0.962 . S
H1796 C1782 0.960 . S
H1797 C1783 0.961 . S
H1798 C1783 0.961 1_554 S
H1799 C1783 0.961 . S
H1800 C1784 0.931 . S
H1801 C1789 0.930 . S
H1802 C1790 0.956 . S
H1803 C1790 0.941 1_556 S
H1804 C1790 0.961 . S
H1805 C1791 0.958 . S
H1806 C1791 0.961 . S
H1807 C1791 0.950 1_556 S
C529 N13 1.579 . S
C537 N376 1.556 . S
C561 N46 1.524 1_565 S
C569 N343 1.556 1_565 S
C593 N310 1.567 1_565 S
C601 N79 1.549 1_565 S
C625 N277 1.580 . S
C633 N112 1.557 . S
C657 N145 1.526 . S
C665 N508 1.546 . S
C689 N178 1.582 . S
C697 N475 1.560 . S
C721 N442 1.580 . S
C729 N211 1.557 . S
C753 N409 1.524 . S
C761 N244 1.555 . S
C785 C18 1.009 . S
C793 C447 1.035 . S
C817 C414 1.038 . S
C825 C51 1.023 . S
C849 C84 1.021 . S
C857 C513 1.032 . S
C881 C480 1.033 . S
C889 C117 1.024 . S
C913 C106 1.633 . S
C921 C469 1.631 . S
C945 C502 1.623 . S
C953 C73 1.639 . S
C977 C403 1.623 . S
C985 C40 1.635 . S
C1009 C7 1.639 . S
C1017 C436 1.630 . S
C1041 C150 1.031 . S
C1049 C315 1.025 . S
C1073 C183 1.040 . S
C1081 C282 1.022 . S
C1105 C216 1.038 . S
C1113 C381 1.022 . S
C1137 C249 1.028 . S
C1145 C348 1.026 . S
C1169 C238 1.623 . S
C1177 C337 1.635 . S
C1201 C205 1.632 . S
C1209 C370 1.636 . S
C1233 C172 1.623 . S
C1241 C271 1.639 . S
C1265 C139 1.628 . S
C1273 C304 1.637 . S
C1297 C54 1.484 . S
C1305 C21 1.491 . S
C1329 C87 1.491 . S
C1337 C120 1.493 . S
C1361 C186 1.484 . S
C1369 C153 1.491 . S
C1393 C252 1.493 . S
C1401 C219 1.494 . S
C1425 C318 1.493 . S
C1433 C285 1.494 . S
C1457 C384 1.493 . S
C1465 C351 1.494 . S
C1489 C417 1.483 . S
C1497 C450 1.490 . S
C1521 C516 1.485 . S
C1529 C483 1.490 . S
C1553 N68 1.503 . S
C1561 N2 1.487 . S
C1585 N101 1.450 . S
C1593 N35 1.493 . S
C1617 N134 1.514 . S
C1625 N200 1.476 . S
C1649 N233 1.513 . S
C1657 N167 1.478 . S
C1681 N266 1.514 . S
C1689 N332 1.478 . S
C1713 N365 1.455 . S
C1721 N299 1.489 . S
C1745 N398 1.503 . S
C1753 N464 1.472 . S
C1777 N497 1.450 . S
C1785 N431 1.493 . S
