# Generated by pormake.
# Topology yfc, (5)-cn, num edge types: 1
# Building blocks:
#     Node 0, Type 0, BuildingBlock: XOMCOT_clean_sbu_0, # of connection points: 5
#     Node 1, Type 0, BuildingBlock: XOMCOT_clean_sbu_0, # of connection points: 5
#     Node 2, Type 0, BuildingBlock: XOMCOT_clean_sbu_0, # of connection points: 5
#     Node 3, Type 0, BuildingBlock: XOMCOT_clean_sbu_0, # of connection points: 5
#     Node 4, Type 0, BuildingBlock: XOMCOT_clean_sbu_0, # of connection points: 5
#     Node 5, Type 0, BuildingBlock: XOMCOT_clean_sbu_0, # of connection points: 5
#     Node 6, Type 0, BuildingBlock: XOMCOT_clean_sbu_0, # of connection points: 5
#     Node 7, Type 0, BuildingBlock: XOMCOT_clean_sbu_0, # of connection points: 5
#     Node 8, Type 0, BuildingBlock: XOMCOT_clean_sbu_0, # of connection points: 5
#     Node 9, Type 0, BuildingBlock: XOMCOT_clean_sbu_0, # of connection points: 5
#     Node 10, Type 0, BuildingBlock: XOMCOT_clean_sbu_0, # of connection points: 5
#     Node 11, Type 0, BuildingBlock: XOMCOT_clean_sbu_0, # of connection points: 5
#     Node 12, Type 0, BuildingBlock: XOMCOT_clean_sbu_0, # of connection points: 5
#     Node 13, Type 0, BuildingBlock: XOMCOT_clean_sbu_0, # of connection points: 5
#     Node 14, Type 0, BuildingBlock: XOMCOT_clean_sbu_0, # of connection points: 5
#     Node 15, Type 0, BuildingBlock: XOMCOT_clean_sbu_0, # of connection points: 5
#     Edge 16, Type (0, 0), BuildingBlock: MIFKUJ_clean_linker_0, # of connection points: 2
#     Edge 17, Type (0, 0), BuildingBlock: MIFKUJ_clean_linker_0, # of connection points: 2
#     Edge 18, Type (0, 0), BuildingBlock: MIFKUJ_clean_linker_0, # of connection points: 2
#     Edge 19, Type (0, 0), BuildingBlock: MIFKUJ_clean_linker_0, # of connection points: 2
#     Edge 20, Type (0, 0), BuildingBlock: MIFKUJ_clean_linker_0, # of connection points: 2
#     Edge 21, Type (0, 0), BuildingBlock: MIFKUJ_clean_linker_0, # of connection points: 2
#     Edge 22, Type (0, 0), BuildingBlock: MIFKUJ_clean_linker_0, # of connection points: 2
#     Edge 23, Type (0, 0), BuildingBlock: MIFKUJ_clean_linker_0, # of connection points: 2
#     Edge 24, Type (0, 0), BuildingBlock: MIFKUJ_clean_linker_0, # of connection points: 2
#     Edge 25, Type (0, 0), BuildingBlock: MIFKUJ_clean_linker_0, # of connection points: 2
#     Edge 26, Type (0, 0), BuildingBlock: MIFKUJ_clean_linker_0, # of connection points: 2
#     Edge 27, Type (0, 0), BuildingBlock: MIFKUJ_clean_linker_0, # of connection points: 2
#     Edge 28, Type (0, 0), BuildingBlock: MIFKUJ_clean_linker_0, # of connection points: 2
#     Edge 29, Type (0, 0), BuildingBlock: MIFKUJ_clean_linker_0, # of connection points: 2
#     Edge 30, Type (0, 0), BuildingBlock: MIFKUJ_clean_linker_0, # of connection points: 2
#     Edge 31, Type (0, 0), BuildingBlock: MIFKUJ_clean_linker_0, # of connection points: 2
#     Edge 32, Type (0, 0), BuildingBlock: MIFKUJ_clean_linker_0, # of connection points: 2
#     Edge 33, Type (0, 0), BuildingBlock: MIFKUJ_clean_linker_0, # of connection points: 2
#     Edge 34, Type (0, 0), BuildingBlock: MIFKUJ_clean_linker_0, # of connection points: 2
#     Edge 35, Type (0, 0), BuildingBlock: MIFKUJ_clean_linker_0, # of connection points: 2
#     Edge 36, Type (0, 0), BuildingBlock: MIFKUJ_clean_linker_0, # of connection points: 2
#     Edge 37, Type (0, 0), BuildingBlock: MIFKUJ_clean_linker_0, # of connection points: 2
#     Edge 38, Type (0, 0), BuildingBlock: MIFKUJ_clean_linker_0, # of connection points: 2
#     Edge 39, Type (0, 0), BuildingBlock: MIFKUJ_clean_linker_0, # of connection points: 2
#     Edge 40, Type (0, 0), BuildingBlock: MIFKUJ_clean_linker_0, # of connection points: 2
#     Edge 41, Type (0, 0), BuildingBlock: MIFKUJ_clean_linker_0, # of connection points: 2
#     Edge 42, Type (0, 0), BuildingBlock: MIFKUJ_clean_linker_0, # of connection points: 2
#     Edge 43, Type (0, 0), BuildingBlock: MIFKUJ_clean_linker_0, # of connection points: 2
#     Edge 44, Type (0, 0), BuildingBlock: MIFKUJ_clean_linker_0, # of connection points: 2
#     Edge 45, Type (0, 0), BuildingBlock: MIFKUJ_clean_linker_0, # of connection points: 2
#     Edge 46, Type (0, 0), BuildingBlock: MIFKUJ_clean_linker_0, # of connection points: 2
#     Edge 47, Type (0, 0), BuildingBlock: MIFKUJ_clean_linker_0, # of connection points: 2
#     Edge 48, Type (0, 0), BuildingBlock: MIFKUJ_clean_linker_0, # of connection points: 2
#     Edge 49, Type (0, 0), BuildingBlock: MIFKUJ_clean_linker_0, # of connection points: 2
#     Edge 50, Type (0, 0), BuildingBlock: MIFKUJ_clean_linker_0, # of connection points: 2
#     Edge 51, Type (0, 0), BuildingBlock: MIFKUJ_clean_linker_0, # of connection points: 2
#     Edge 52, Type (0, 0), BuildingBlock: MIFKUJ_clean_linker_0, # of connection points: 2
#     Edge 53, Type (0, 0), BuildingBlock: MIFKUJ_clean_linker_0, # of connection points: 2
#     Edge 54, Type (0, 0), BuildingBlock: MIFKUJ_clean_linker_0, # of connection points: 2
#     Edge 55, Type (0, 0), BuildingBlock: MIFKUJ_clean_linker_0, # of connection points: 2
# Relax obj value: 0.558
# Max RMSD: 0.288
# Mean RMSD: 0.265
data_MOF--net-yfc--node1-XOMCOT_clean_sbu_0--edge1-MIFKUJ_clean_linker_0
_symmetry_space_group_name_H-M    P1
_symmetry_Int_Tables_number       1
_symmetry_cell_setting            triclinic
loop_
_symmetry_equiv_pos_as_xyz
'x, y, z'
_cell_length_a     50.693294
_cell_length_b     50.687592
_cell_length_c     61.9522
_cell_angle_alpha  90.005298
_cell_angle_beta   90.010201
_cell_angle_gamma 89.998505
loop_
_atom_site_label
_atom_site_type_symbol
_atom_site_fract_x
_atom_site_fract_y
_atom_site_fract_z
_atom_type_partial_charge
Co0 Co 0.73067 0.04586 0.17435 0.0
C1 C 0.72558 0.10261 0.16547 0.0
C2 C 0.73804 0.08184 0.13713 0.0
C3 C 0.73789 0.10844 0.13269 0.0
N4 N 0.72989 0.07817 0.15762 0.0
N5 N 0.73015 0.12154 0.15059 0.0
H6 H 0.72018 0.10637 0.18206 0.0
H7 H 0.74484 0.06651 0.12636 0.0
C8 C 0.6727 0.06169 0.17215 0.0
O9 O 0.67668 0.07768 0.1558 0.0
N10 N 0.73211 0.01361 0.19112 0.0
C11 C 0.75325 0.0025 0.20079 0.0
C12 C 0.74522 0.98011 0.2115 0.0
C13 C 0.71169 0.99757 0.1958 0.0
N14 N 0.71909 0.97712 0.20834 0.0
C15 C 0.75028 0.01063 0.14271 0.0
C16 C 0.70979 0.01647 0.11326 0.0
C17 C 0.73334 0.00446 0.10667 0.0
C18 C 0.75319 1.00029 0.12198 0.0
C19 C 0.70756 0.0262 0.13426 0.0
N20 N 0.72836 0.02474 0.14822 0.0
H21 H 0.76648 0.00879 0.15394 0.0
H22 H 0.68982 0.03641 0.1385 0.0
H23 H 0.7732 0.00997 0.20027 0.0
H24 H 0.69166 0.00095 0.19051 0.0
O25 O 0.76867 0.04973 0.17602 0.0
O26 O 0.73993 0.06589 0.19959 0.0
O27 O 0.69119 0.04687 0.17924 0.0
C28 C 0.76431 0.06338 0.19347 0.0
H29 H 0.74378 0.11731 0.11757 0.0
H30 H 0.75768 0.96702 0.2208 0.0
H31 H 0.69383 0.01962 0.10192 0.0
H32 H 0.77166 0.99101 0.11753 0.0
Co33 Co 0.46025 0.71926 0.69058 0.0
C34 C 0.4044 0.7289 0.67828 0.0
C35 C 0.40864 0.70028 0.70366 0.0
C36 C 0.38239 0.70224 0.69851 0.0
N37 N 0.42239 0.71677 0.69088 0.0
N38 N 0.37978 0.72012 0.68254 0.0
H39 H 0.40923 0.74325 0.66597 0.0
H40 H 0.41718 0.68748 0.71576 0.0
C41 C 0.47792 0.66191 0.68928 0.0
O42 O 0.50054 0.6674 0.68003 0.0
N43 N 0.49853 0.72105 0.69131 0.0
C44 C 0.51618 0.72972 0.67659 0.0
C45 C 0.54126 0.72553 0.68443 0.0
C46 C 0.51322 0.71217 0.70795 0.0
N47 N 0.53931 0.71443 0.70412 0.0
C48 C 0.46438 0.74034 0.64814 0.0
C49 C 0.44735 0.69632 0.62584 0.0
C50 C 0.45367 0.71929 0.61436 0.0
C51 C 0.46219 0.74146 0.62579 0.0
C52 C 0.45034 0.69586 0.64833 0.0
N53 N 0.45949 0.71753 0.65917 0.0
H54 H 0.47031 0.75798 0.65658 0.0
H55 H 0.44434 0.67838 0.65694 0.0
H56 H 0.51183 0.738 0.66102 0.0
H57 H 0.50489 0.70284 0.72211 0.0
O58 O 0.45802 0.75696 0.69394 0.0
O59 O 0.45946 0.7284 0.72098 0.0
O60 O 0.4612 0.67986 0.69378 0.0
C61 C 0.45772 0.75282 0.71462 0.0
H62 H 0.3664 0.69151 0.70606 0.0
H63 H 0.5595 0.72998 0.67612 0.0
H64 H 0.44015 0.67896 0.61752 0.0
H65 H 0.4666 0.75979 0.61754 0.0
Co66 Co 0.78019 0.4736 0.19249 0.0
C67 C 0.76685 0.41566 0.18638 0.0
C68 C 0.79009 0.42428 0.21442 0.0
C69 C 0.78405 0.39795 0.2147 0.0
N70 N 0.77933 0.43558 0.19674 0.0
N71 N 0.76952 0.39263 0.19709 0.0
H72 H 0.7554 0.41755 0.17184 0.0
H73 H 0.80123 0.43474 0.22661 0.0
C74 C 0.83518 0.45469 0.18793 0.0
O75 O 0.82617 0.43783 0.17358 0.0
N76 N 0.78163 0.51129 0.18972 0.0
C77 C 0.76557 0.5275 0.17857 0.0
C78 C 0.77375 0.55318 0.18201 0.0
C79 C 0.79909 0.52698 0.19974 0.0
N80 N 0.79491 0.55264 0.19523 0.0
C81 C 0.75987 0.46188 0.15057 0.0
C82 C 0.80163 0.48194 0.12708 0.0
C83 C 0.78002 0.4711 0.11612 0.0
C84 C 0.75894 0.4611 0.12812 0.0
C85 C 0.80201 0.48177 0.14969 0.0
N86 N 0.78172 0.47081 0.16117 0.0
H87 H 0.74256 0.45591 0.15943 0.0
H88 H 0.81828 0.49113 0.15793 0.0
H89 H 0.74911 0.52112 0.16877 0.0
H90 H 0.8142 0.51976 0.21058 0.0
O91 O 0.74244 0.47514 0.19579 0.0
O92 O 0.77126 0.47727 0.22266 0.0
O93 O 0.81975 0.47213 0.19583 0.0
C94 C 0.74675 0.4762 0.21645 0.0
H95 H 0.78989 0.38375 0.22685 0.0
H96 H 0.76499 0.57079 0.1752 0.0
H97 H 0.81794 0.49058 0.11829 0.0
H98 H 0.7414 0.45364 0.1202 0.0
Co99 Co 0.04245 0.78739 0.6968 0.0
C100 C 0.09553 0.77989 0.6776 0.0
C101 C 0.09589 0.80605 0.70498 0.0
C102 C 0.12105 0.80422 0.69698 0.0
N103 N 0.07989 0.79109 0.69267 0.0
N104 N 0.12067 0.78811 0.67973 0.0
H105 H 0.08863 0.76654 0.66518 0.0
H106 H 0.08969 0.81736 0.71889 0.0
C107 C 0.03188 0.84727 0.69719 0.0
O108 O 0.0172 0.84735 0.67973 0.0
N109 N 0.00469 0.78354 0.70183 0.0
C110 C 0.9901 0.76137 0.69946 0.0
C111 C 0.96481 0.76612 0.70643 0.0
C112 C 0.98814 0.80107 0.71111 0.0
N113 N 0.9637 0.79104 0.7138 0.0
C114 C 0.02293 0.77554 0.65475 0.0
C115 C 0.04912 0.81512 0.63284 0.0
C116 C 0.03458 0.79648 0.62105 0.0
C117 C 0.02121 0.77669 0.63237 0.0
C118 C 0.05017 0.81334 0.65539 0.0
N119 N 0.03686 0.79387 0.66614 0.0
H120 H 0.0143 0.75883 0.6627 0.0
H121 H 0.06253 0.82703 0.66414 0.0
H122 H 0.99733 0.74259 0.69373 0.0
H123 H 0.99376 0.82056 0.71635 0.0
O124 O 0.04653 0.74953 0.69573 0.0
O125 O 0.04914 0.7741 0.72535 0.0
O126 O 0.0413 0.8259 0.70488 0.0
C127 C 0.05071 0.7509 0.71645 0.0
H128 H 0.13857 0.81334 0.70352 0.0
H129 H 0.94877 0.75203 0.70684 0.0
H130 H 0.06007 0.83054 0.62473 0.0
H131 H 0.01067 0.7612 0.62395 0.0
Co132 Co 0.72865 0.47145 0.81196 0.0
C133 C 0.72942 0.41214 0.81972 0.0
C134 C 0.72552 0.42288 0.78646 0.0
C135 C 0.72674 0.39597 0.78772 0.0
N136 N 0.72785 0.43337 0.80644 0.0
N137 N 0.72892 0.38923 0.8086 0.0
H138 H 0.73057 0.41297 0.83707 0.0
H139 H 0.72295 0.43389 0.77169 0.0
C140 C 0.67244 0.45591 0.81589 0.0
O141 O 0.67998 0.43858 0.83039 0.0
N142 N 0.72913 0.50904 0.81623 0.0
C143 C 0.74228 0.52316 0.83123 0.0
C144 C 0.73596 0.54946 0.82861 0.0
C145 C 0.71562 0.52671 0.80445 0.0
N146 N 0.71941 0.55149 0.81166 0.0
C147 C 0.74795 0.45552 0.85314 0.0
C148 C 0.70904 0.47922 0.87766 0.0
C149 C 0.7302 0.46679 0.88809 0.0
C150 C 0.74969 0.45467 0.87557 0.0
C151 C 0.70775 0.47909 0.8551 0.0
N152 N 0.7268 0.46683 0.84311 0.0
H153 H 0.76378 0.44707 0.84372 0.0
H154 H 0.69205 0.48986 0.84724 0.0
H155 H 0.75519 0.51491 0.84338 0.0
H156 H 0.70277 0.52147 0.79116 0.0
O157 O 0.76654 0.47136 0.80894 0.0
O158 O 0.73824 0.47695 0.7821 0.0
O159 O 0.68914 0.47227 0.80816 0.0
C160 C 0.7626 0.47423 0.78834 0.0
H161 H 0.72575 0.38234 0.7743 0.0
H162 H 0.74295 0.5658 0.83831 0.0
H163 H 0.69389 0.48927 0.88685 0.0
H164 H 0.7667 0.4455 0.88303 0.0
Co165 Co 0.04521 0.73757 0.31818 0.0
C166 C 0.1026 0.73893 0.33086 0.0
C167 C 0.09678 0.74934 0.29772 0.0
C168 C 0.12327 0.75055 0.30212 0.0
N169 N 0.0835 0.74237 0.3158 0.0
N170 N 0.1268 0.7439 0.3229 0.0
H171 H 0.09924 0.73291 0.34735 0.0
H172 H 0.0882 0.75303 0.28206 0.0
C173 C 0.06563 0.68215 0.32382 0.0
O174 O 0.07874 0.68927 0.34111 0.0
N175 N 0.00768 0.73265 0.31976 0.0
C176 C 0.98989 0.74646 0.33129 0.0
C177 C 0.96497 0.7379 0.32563 0.0
C178 C 0.99363 0.71614 0.30729 0.0
N179 N 0.96746 0.71884 0.31054 0.0
C180 C 0.05675 0.7586 0.35945 0.0
C181 C 0.03499 0.71846 0.38386 0.0
C182 C 0.04613 0.74034 0.39436 0.0
C183 C 0.05699 0.76058 0.38183 0.0
C184 C 0.03547 0.7171 0.36128 0.0
N185 N 0.04697 0.73672 0.34945 0.0
H186 H 0.06474 0.77465 0.35002 0.0
H187 H 0.02625 0.70055 0.35326 0.0
H188 H 0.99468 0.76203 0.34257 0.0
H189 H 0.00245 0.70332 0.29533 0.0
O190 O 0.04013 0.77507 0.31475 0.0
O191 O 0.04131 0.74606 0.28799 0.0
O192 O 0.0501 0.69834 0.31445 0.0
C193 C 0.03928 0.77057 0.29409 0.0
H194 H 0.13885 0.75521 0.29079 0.0
H195 H 0.94651 0.74535 0.33194 0.0
H196 H 0.02599 0.70263 0.393 0.0
H197 H 0.06504 0.77818 0.38925 0.0
Co198 Co 0.7815 0.04598 0.8116 0.0
C199 C 0.7761 0.10165 0.82717 0.0
C200 C 0.81566 0.09281 0.81733 0.0
C201 C 0.81454 0.11876 0.82331 0.0
N202 N 0.79161 0.08177 0.81989 0.0
N203 N 0.78963 0.12452 0.82907 0.0
H204 H 0.75513 0.09992 0.83 0.0
H205 H 0.83311 0.0831 0.81136 0.0
C206 C 0.84029 0.03018 0.80515 0.0
O207 O 0.84347 0.01808 0.8237 0.0
N208 N 0.77177 0.01037 0.80262 0.0
C209 C 0.7484 0.00138 0.79507 0.0
C210 C 0.75091 0.97507 0.78986 0.0
C211 C 0.78785 0.98922 0.80216 0.0
N212 N 0.7758 0.96751 0.79433 0.0
C213 C 0.77109 0.01659 0.84965 0.0
C214 C 0.81199 0.03573 0.8746 0.0
C215 C 0.79371 0.01839 0.88389 0.0
C216 C 0.77327 0.00854 0.87106 0.0
C217 C 0.80935 0.04294 0.85292 0.0
N218 N 0.78917 0.03323 0.84061 0.0
H219 H 0.75412 0.01013 0.84054 0.0
H220 H 0.82354 0.05646 0.84623 0.0
H221 H 0.7306 0.01286 0.79325 0.0
H222 H 0.80818 0.9897 0.80702 0.0
O223 O 0.7448 0.05492 0.816 0.0
O224 O 0.76697 0.05969 0.78525 0.0
O225 O 0.81808 0.04011 0.79974 0.0
C226 C 0.74504 0.06254 0.7959 0.0
H227 H 0.83078 0.13255 0.82308 0.0
H228 H 0.73564 0.9626 0.78315 0.0
H229 H 0.82796 0.04391 0.8841 0.0
H230 H 0.75827 0.99575 0.87783 0.0
Co231 Co 0.46506 0.7686 0.31233 0.0
C232 C 0.41072 0.75134 0.32422 0.0
C233 C 0.4127 0.77126 0.29361 0.0
C234 C 0.38678 0.76584 0.29807 0.0
N235 N 0.42766 0.76243 0.31004 0.0
N236 N 0.38556 0.75362 0.31737 0.0
H237 H 0.41641 0.74314 0.33966 0.0
H238 H 0.42011 0.78177 0.27968 0.0
C239 C 0.4666 0.82875 0.31439 0.0
O240 O 0.48293 0.82937 0.33085 0.0
N241 N 0.50262 0.77534 0.31356 0.0
C242 C 0.52194 0.76312 0.32476 0.0
C243 C 0.54583 0.7741 0.31917 0.0
C244 C 0.51521 0.79274 0.30076 0.0
N245 N 0.54147 0.79272 0.30407 0.0
C246 C 0.47183 0.75178 0.35582 0.0
C247 C 0.4421 0.79068 0.37542 0.0
C248 C 0.45402 0.77123 0.38815 0.0
C249 C 0.46891 0.75159 0.37812 0.0
C250 C 0.4461 0.79051 0.35302 0.0
N251 N 0.4616 0.77165 0.34355 0.0
H252 H 0.48151 0.73521 0.34839 0.0
H253 H 0.43572 0.8048 0.34332 0.0
H254 H 0.51948 0.74679 0.33567 0.0
H255 H 0.50522 0.80521 0.28919 0.0
O256 O 0.47125 0.73103 0.31001 0.0
O257 O 0.4688 0.75887 0.28251 0.0
O258 O 0.45792 0.80696 0.30695 0.0
C259 C 0.47118 0.73471 0.2892 0.0
H260 H 0.36999 0.77109 0.28819 0.0
H261 H 0.56496 0.7683 0.3253 0.0
H262 H 0.42971 0.80567 0.38266 0.0
H263 H 0.47746 0.73561 0.3874 0.0
Co264 Co 0.28051 0.96447 0.84234 0.0
C265 C 0.31057 0.00801 0.82271 0.0
C266 C 0.31528 0.00768 0.85714 0.0
C267 C 0.33035 0.02787 0.84868 0.0
N268 N 0.30288 0.99532 0.84081 0.0
N269 N 0.32741 0.02804 0.82699 0.0
H270 H 0.30461 0.00209 0.80667 0.0
H271 H 0.31386 0.00219 0.87396 0.0
C272 C 0.24955 0.96834 0.88401 0.0
O273 O 0.22947 0.95624 0.87505 0.0
N274 N 0.25799 0.93306 0.84327 0.0
C275 C 0.23403 0.92984 0.834 0.0
C276 C 0.22526 0.90466 0.83771 0.0
C277 C 0.26342 0.90931 0.85233 0.0
N278 N 0.24369 0.89168 0.84918 0.0
C279 C 0.2502 0.98235 0.80638 0.0
C280 C 0.21085 0.00745 0.82933 0.0
C281 C 0.20661 0.00156 0.80746 0.0
C282 C 0.22744 0.99049 0.7957 0.0
C283 C 0.23432 0.99943 0.83935 0.0
N284 N 0.25248 0.98476 0.82829 0.0
H285 H 0.26486 0.97198 0.79711 0.0
H286 H 0.23702 0.00411 0.85613 0.0
H287 H 0.2231 0.94452 0.8252 0.0
H288 H 0.28142 0.90491 0.86098 0.0
O289 O 0.29773 0.9503 0.81701 0.0
O290 O 0.31082 0.94343 0.85058 0.0
O291 O 0.26975 0.97468 0.87276 0.0
C292 C 0.31452 0.93939 0.83009 0.0
H293 H 0.34253 0.04132 0.85787 0.0
H294 H 0.20699 0.8963 0.83178 0.0
H295 H 0.19564 0.01691 0.83886 0.0
H296 H 0.2253 0.98567 0.77876 0.0
Co297 Co 0.54335 0.27839 0.34038 0.0
C298 C 0.49694 0.30478 0.32021 0.0
C299 C 0.49865 0.31178 0.35418 0.0
C300 C 0.47866 0.32685 0.34558 0.0
N301 N 0.50982 0.2973 0.33839 0.0
N302 N 0.47753 0.32259 0.32408 0.0
H303 H 0.50308 0.29904 0.30428 0.0
H304 H 0.50571 0.31296 0.37061 0.0
C305 C 0.51709 0.26248 0.38187 0.0
O306 O 0.49602 0.25573 0.37081 0.0
N307 N 0.57716 0.26048 0.34181 0.0
C308 C 0.58558 0.24218 0.32758 0.0
C309 C 0.61123 0.23581 0.33217 0.0
C310 C 0.59826 0.26566 0.35451 0.0
N311 N 0.61928 0.25057 0.34901 0.0
C312 C 0.51865 0.24255 0.31088 0.0
C313 C 0.5267 0.19762 0.33523 0.0
C314 C 0.51997 0.19484 0.31338 0.0
C315 C 0.51484 0.21783 0.30149 0.0
C316 C 0.5307 0.22276 0.34393 0.0
N317 N 0.52723 0.24497 0.33166 0.0
H318 H 0.51764 0.25947 0.30049 0.0
H319 H 0.53929 0.22401 0.35983 0.0
H320 H 0.57426 0.2347 0.31412 0.0
H321 H 0.59848 0.2806 0.36699 0.0
O322 O 0.55348 0.29152 0.31232 0.0
O323 O 0.56082 0.31192 0.34351 0.0
O324 O 0.53751 0.27131 0.37215 0.0
C325 C 0.56332 0.31162 0.32263 0.0
H326 H 0.4671 0.34106 0.35451 0.0
H327 H 0.62354 0.22239 0.32303 0.0
H328 H 0.53084 0.18053 0.34515 0.0
H329 H 0.51044 0.21697 0.2844 0.0
Co330 Co 0.23282 0.53355 0.83681 0.0
C331 C 0.20011 0.48876 0.82125 0.0
C332 C 0.22176 0.47803 0.84961 0.0
C333 C 0.20779 0.45627 0.84249 0.0
N334 N 0.21681 0.49852 0.83632 0.0
N335 N 0.1943 0.46307 0.82455 0.0
H336 H 0.19252 0.50003 0.80783 0.0
H337 H 0.23522 0.47848 0.86314 0.0
C338 C 0.25421 0.54266 0.88218 0.0
O339 O 0.26649 0.56401 0.87573 0.0
N340 N 0.24833 0.56882 0.83589 0.0
C341 C 0.26761 0.57666 0.82228 0.0
C342 C 0.2707 0.60347 0.82383 0.0
C343 C 0.23899 0.59153 0.84465 0.0
N344 N 0.25284 0.61287 0.83796 0.0
C345 C 0.266 0.50679 0.80695 0.0
C346 C 0.31328 0.51803 0.82713 0.0
C347 C 0.31375 0.50935 0.80559 0.0
C348 C 0.28967 0.502 0.79609 0.0
C349 C 0.28917 0.52191 0.83761 0.0
N350 N 0.26591 0.51811 0.82693 0.0
H351 H 0.24762 0.50315 0.79864 0.0
H352 H 0.28954 0.53044 0.85343 0.0
H353 H 0.27792 0.56409 0.81102 0.0
H354 H 0.22251 0.59237 0.85573 0.0
O355 O 0.21739 0.54176 0.80916 0.0
O356 O 0.19853 0.54915 0.84095 0.0
O357 O 0.24189 0.52805 0.86861 0.0
C358 C 0.19743 0.55104 0.82001 0.0
H359 H 0.20833 0.43674 0.84954 0.0
H360 H 0.28431 0.61531 0.81448 0.0
H361 H 0.33113 0.52398 0.83538 0.0
H362 H 0.28888 0.49413 0.77986 0.0
Co363 Co 0.97279 0.23279 0.34322 0.0
C364 C 0.01873 0.20579 0.32302 0.0
C365 C 0.01374 0.19433 0.35597 0.0
C366 C 0.033 0.1787 0.3469 0.0
N367 N 0.00518 0.21197 0.34121 0.0
N368 N 0.03598 0.18578 0.32608 0.0
H369 H 0.01466 0.21415 0.30739 0.0
H370 H 0.00514 0.19139 0.37174 0.0
C371 C 0.99663 0.24085 0.38704 0.0
O372 O 0.01939 0.24545 0.37761 0.0
N373 N 0.94 0.25249 0.34462 0.0
C374 C 0.9333 0.27289 0.33176 0.0
C375 C 0.90756 0.2797 0.33576 0.0
C376 C 0.9179 0.24669 0.35588 0.0
N377 N 0.8978 0.26319 0.35083 0.0
C378 C 0.00158 0.2708 0.31858 0.0
C379 C 0.99145 0.31269 0.34586 0.0
C380 C 0.99837 0.31791 0.32437 0.0
C381 C 0.00522 0.29653 0.31116 0.0
C382 C 0.98775 0.28664 0.35259 0.0
N383 N 0.99151 0.26603 0.33864 0.0
H384 H 0.00346 0.25515 0.30702 0.0
H385 H 0.97842 0.2836 0.36803 0.0
H386 H 0.94584 0.28153 0.31956 0.0
H387 H 0.91633 0.23023 0.36693 0.0
O388 O 0.96471 0.22438 0.31361 0.0
O389 O 0.95303 0.20028 0.34196 0.0
O390 O 0.97623 0.23558 0.37567 0.0
C391 C 0.95271 0.20365 0.32112 0.0
H392 H 0.04246 0.16199 0.35455 0.0
H393 H 0.89638 0.29464 0.32725 0.0
H394 H 0.98615 0.32857 0.35673 0.0
H395 H 0.01023 0.29938 0.29433 0.0
Co396 Co 0.28274 0.53675 0.1547 0.0
C397 C 0.30915 0.48919 0.17313 0.0
C398 C 0.31867 0.4951 0.13984 0.0
C399 C 0.3348 0.47559 0.14791 0.0
N400 N 0.30216 0.50348 0.15552 0.0
N401 N 0.32877 0.47193 0.16885 0.0
H402 H 0.30243 0.49317 0.18931 0.0
H403 H 0.32052 0.50407 0.12408 0.0
C404 C 0.26795 0.51151 0.11263 0.0
O405 O 0.26327 0.48951 0.12318 0.0
N406 N 0.26442 0.57037 0.15436 0.0
C407 C 0.24719 0.57863 0.16951 0.0
C408 C 0.24016 0.60421 0.1652 0.0
C409 C 0.26822 0.59141 0.1413 0.0
N410 N 0.25339 0.61232 0.14753 0.0
C411 C 0.24707 0.51152 0.1839 0.0
C412 C 0.20228 0.52238 0.16013 0.0
C413 C 0.1997 0.5169 0.18221 0.0
C414 C 0.22238 0.50968 0.19372 0.0
C415 C 0.22738 0.52414 0.15093 0.0
N416 N 0.24956 0.52 0.16308 0.0
H417 H 0.26406 0.50972 0.19412 0.0
H418 H 0.22874 0.53235 0.13492 0.0
H419 H 0.2409 0.56722 0.18332 0.0
H420 H 0.28203 0.59163 0.12798 0.0
O421 O 0.29593 0.54564 0.18298 0.0
O422 O 0.31603 0.5548 0.15197 0.0
O423 O 0.27531 0.53215 0.12287 0.0
C424 C 0.31583 0.55618 0.17293 0.0
H425 H 0.35074 0.46593 0.13939 0.0
H426 H 0.2274 0.6164 0.17504 0.0
H427 H 0.18528 0.52798 0.15057 0.0
H428 H 0.22155 0.50582 0.2109 0.0
Co429 Co 0.96308 0.27384 0.66179 0.0
C430 C 0.00791 0.30067 0.68313 0.0
C431 C 0.01005 0.30421 0.64865 0.0
C432 C 0.03064 0.31816 0.65764 0.0
N433 N 0.99583 0.29324 0.66464 0.0
N434 N 0.02923 0.3161 0.67936 0.0
H435 H 0.00061 0.29568 0.69902 0.0
H436 H 0.00552 0.30281 0.63164 0.0
C437 C 0.96402 0.24678 0.61841 0.0
O438 O 0.95128 0.22669 0.62676 0.0
N439 N 0.92972 0.25464 0.65935 0.0
C440 C 0.9236 0.23071 0.66758 0.0
C441 C 0.89771 0.22506 0.66306 0.0
C442 C 0.90705 0.26322 0.65007 0.0
N443 N 0.88726 0.24549 0.65211 0.0
C444 C 0.97867 0.23709 0.69446 0.0
C445 C 0.0014 0.20002 0.6676 0.0
C446 C 0.99547 0.19301 0.68893 0.0
C447 C 0.9856 0.21249 0.70276 0.0
C448 C 0.99489 0.22529 0.66011 0.0
N449 N 0.98109 0.24241 0.67291 0.0
H450 H 0.96923 0.2509 0.70518 0.0
H451 H 1.00019 0.23036 0.64383 0.0
H452 H 0.93672 0.21779 0.67623 0.0
H453 H 0.905 0.28205 0.64204 0.0
O454 O 0.95051 0.28838 0.68874 0.0
O455 O 0.94477 0.30683 0.65667 0.0
O456 O 0.97161 0.26592 0.6304 0.0
C457 C 0.94078 0.30756 0.67738 0.0
H458 H 0.04535 0.32914 0.64874 0.0
H459 H 0.88717 0.2075 0.66802 0.0
H460 H 0.00995 0.18578 0.6566 0.0
H461 H 0.98094 0.20804 0.71944 0.0
Co462 Co 0.22395 0.96468 0.15686 0.0
C463 C 0.1969 0.01187 0.17506 0.0
C464 C 0.1889 0.0072 0.14141 0.0
C465 C 0.17363 0.02756 0.1492 0.0
N466 N 0.20413 0.99772 0.15748 0.0
N467 N 0.17852 0.03044 0.17049 0.0
H468 H 0.20302 0.00719 0.19124 0.0
H469 H 0.18777 0.99895 0.12534 0.0
C470 C 0.24071 0.99172 0.11586 0.0
O471 O 0.24282 0.01406 0.12649 0.0
N472 N 0.24275 0.93125 0.15667 0.0
C473 C 0.26103 0.92342 0.17116 0.0
C474 C 0.26846 0.89799 0.1666 0.0
C475 C 0.23869 0.91 0.14385 0.0
N476 N 0.25437 0.88953 0.14954 0.0
C477 C 0.25668 0.98801 0.18945 0.0
C478 C 0.30328 0.98404 0.16664 0.0
C479 C 0.30446 0.98767 0.18907 0.0
C480 C 0.28068 0.99123 0.20023 0.0
C481 C 0.27889 0.98065 0.1565 0.0
N482 N 0.25586 0.98169 0.16801 0.0
H483 H 0.23914 0.98721 0.19915 0.0
H484 H 0.27912 0.97401 0.13999 0.0
H485 H 0.26795 0.93493 0.18468 0.0
H486 H 0.22424 0.90933 0.13099 0.0
O487 O 0.20758 0.95458 0.18379 0.0
O488 O 0.19145 0.94628 0.15119 0.0
O489 O 0.2344 0.9705 0.12573 0.0
C490 C 0.18899 0.94425 0.17201 0.0
H491 H 0.15931 0.03859 0.13994 0.0
H492 H 0.28223 0.88613 0.17578 0.0
H493 H 0.32112 0.98133 0.15728 0.0
H494 H 0.28041 0.9935 0.21761 0.0
Co495 Co 0.5317 0.23293 0.65791 0.0
C496 C 0.48441 0.20727 0.67684 0.0
C497 C 0.48798 0.19868 0.64319 0.0
C498 C 0.46811 0.18329 0.65165 0.0
N499 N 0.49794 0.2143 0.65886 0.0
N500 N 0.46606 0.18851 0.67291 0.0
H501 H 0.48927 0.214 0.69286 0.0
H502 H 0.49607 0.19666 0.62715 0.0
C503 C 0.50902 0.24606 0.61465 0.0
O504 O 0.48739 0.25359 0.62459 0.0
N505 N 0.56575 0.25058 0.65773 0.0
C506 C 0.57331 0.26864 0.67245 0.0
C507 C 0.59917 0.27515 0.66892 0.0
C508 C 0.58754 0.24578 0.64571 0.0
N509 N 0.60826 0.26084 0.65215 0.0
C510 C 0.50467 0.27136 0.68368 0.0
C511 C 0.51804 0.31403 0.65823 0.0
C512 C 0.5106 0.31858 0.67972 0.0
C513 C 0.50223 0.29687 0.69201 0.0
C514 C 0.52091 0.28822 0.65075 0.0
N515 N 0.51523 0.2671 0.66371 0.0
H516 H 0.50123 0.25516 0.69449 0.0
H517 H 0.53076 0.28548 0.63548 0.0
H518 H 0.56114 0.2759 0.68548 0.0
H519 H 0.58838 0.23115 0.633 0.0
O520 O 0.5387 0.22222 0.68723 0.0
O521 O 0.54921 0.19914 0.65802 0.0
O522 O 0.52871 0.23752 0.62552 0.0
C523 C 0.54925 0.20111 0.67898 0.0
H524 H 0.45763 0.16782 0.64319 0.0
H525 H 0.61082 0.28839 0.67878 0.0
H526 H 0.52422 0.33011 0.6479 0.0
H527 H 0.49664 0.29909 0.70877 0.0
H528 H 0.72597 0.95099 0.24603 0.0
H529 H 0.69632 0.91843 0.26202 0.0
H530 H 0.6441 0.92569 0.20733 0.0
H531 H 0.6737 0.95824 0.19125 0.0
H532 H 0.61721 0.92713 0.24451 0.0
H533 H 0.68398 0.87207 0.21307 0.0
H534 H 0.72934 0.85661 0.2062 0.0
H535 H 0.73931 0.83973 0.27363 0.0
H536 H 0.69412 0.85543 0.28095 0.0
H537 H 0.53808 0.81486 0.26436 0.0
H538 H 0.56907 0.84583 0.24809 0.0
H539 H 0.61928 0.83986 0.3041 0.0
H540 H 0.58819 0.80896 0.32061 0.0
H541 H 0.64719 0.83795 0.26666 0.0
H542 H 0.57924 0.89196 0.29763 0.0
H543 H 0.53354 0.90673 0.30387 0.0
H544 H 0.52544 0.9256 0.23664 0.0
H545 H 0.57091 0.9104 0.22989 0.0
C546 C 0.70838 0.94539 0.23727 0.0
C547 C 0.7022 0.95716 0.21736 0.0
C548 C 0.69141 0.92684 0.24645 0.0
C549 C 0.66813 0.91951 0.23576 0.0
C550 C 0.66194 0.93115 0.21586 0.0
C551 C 0.67885 0.94977 0.20672 0.0
C552 C 0.64995 0.90004 0.24552 0.0
C553 C 0.62365 0.90749 0.24908 0.0
C554 C 0.65859 0.87469 0.25194 0.0
C555 C 0.68575 0.86518 0.24758 0.0
C556 C 0.69592 0.86526 0.22646 0.0
C557 C 0.72159 0.85642 0.22248 0.0
C558 C 0.73722 0.84726 0.23948 0.0
C559 C 0.72719 0.84686 0.26048 0.0
C560 C 0.70155 0.85571 0.26455 0.0
C561 C 0.55561 0.82024 0.2733 0.0
C562 C 0.56056 0.80964 0.29388 0.0
C563 C 0.57333 0.8379 0.26395 0.0
C564 C 0.59622 0.84542 0.27505 0.0
C565 C 0.60165 0.83431 0.29531 0.0
C566 C 0.58394 0.8166 0.30468 0.0
C567 C 0.61444 0.86498 0.26555 0.0
C568 C 0.64076 0.85758 0.26208 0.0
C569 C 0.60577 0.89035 0.25914 0.0
C570 C 0.57843 0.89972 0.26321 0.0
C571 C 0.56765 0.89901 0.28413 0.0
C572 C 0.54178 0.90749 0.28776 0.0
C573 C 0.52655 0.917 0.27065 0.0
C574 C 0.53721 0.91815 0.24987 0.0
C575 C 0.56304 0.90958 0.24613 0.0
H576 H 0.50652 0.92354 0.27349 0.0
H577 H 0.75708 0.84041 0.23637 0.0
H578 H 0.71362 0.56485 0.77 0.0
H579 H 0.68735 0.60156 0.75573 0.0
H580 H 0.66935 0.62645 0.82065 0.0
H581 H 0.69635 0.59006 0.83496 0.0
H582 H 0.62474 0.61267 0.7899 0.0
H583 H 0.70159 0.66725 0.79697 0.0
H584 H 0.74855 0.67847 0.79226 0.0
H585 H 0.7395 0.6751 0.72341 0.0
H586 H 0.69256 0.66345 0.72769 0.0
H587 H 0.53988 0.71006 0.74765 0.0
H588 H 0.57411 0.68939 0.76974 0.0
H589 H 0.62046 0.67476 0.71256 0.0
H590 H 0.58645 0.69561 0.69048 0.0
H591 H 0.652 0.68842 0.74435 0.0
H592 H 0.58427 0.62354 0.73487 0.0
H593 H 0.53962 0.60438 0.73525 0.0
H594 H 0.53279 0.62113 0.80297 0.0
H595 H 0.57777 0.63995 0.80305 0.0
C596 C 0.70447 0.57854 0.78115 0.0
C597 C 0.70684 0.57478 0.8035 0.0
C598 C 0.68965 0.59949 0.77304 0.0
C599 C 0.6766 0.61669 0.78718 0.0
C600 C 0.67953 0.61346 0.80954 0.0
C601 C 0.69491 0.59281 0.81767 0.0
C602 C 0.65744 0.63579 0.7784 0.0
C603 C 0.63061 0.62974 0.78048 0.0
C604 C 0.66535 0.6572 0.76533 0.0
C605 C 0.69357 0.66429 0.76267 0.0
C606 C 0.70965 0.66866 0.78082 0.0
C607 C 0.73627 0.67516 0.77823 0.0
C608 C 0.74701 0.67745 0.75755 0.0
C609 C 0.73115 0.67331 0.73942 0.0
C610 C 0.70453 0.6668 0.74192 0.0
C611 C 0.55741 0.70251 0.73982 0.0
C612 C 0.56038 0.70428 0.71731 0.0
C613 C 0.57696 0.69073 0.75245 0.0
C614 C 0.59969 0.6802 0.74278 0.0
C615 C 0.60314 0.68282 0.7204 0.0
C616 C 0.58368 0.69477 0.70779 0.0
C617 C 0.61921 0.66521 0.75574 0.0
C618 C 0.64606 0.67185 0.7543 0.0
C619 C 0.61147 0.64374 0.7689 0.0
C620 C 0.58415 0.63343 0.7689 0.0
C621 C 0.57312 0.62337 0.74979 0.0
C622 C 0.5478 0.61251 0.74994 0.0
C623 C 0.53326 0.61178 0.76907 0.0
C624 C 0.54406 0.62181 0.78814 0.0
C625 C 0.56951 0.63245 0.78813 0.0
H626 H 0.51373 0.60322 0.76914 0.0
H627 H 0.76762 0.68248 0.75557 0.0
H628 H 0.91788 0.73655 0.3021 0.0
H629 H 0.88424 0.71436 0.28021 0.0
H630 H 0.93696 0.64858 0.27066 0.0
H631 H 0.97034 0.67035 0.29262 0.0
H632 H 0.91534 0.66586 0.23282 0.0
H633 H 0.88605 0.64445 0.30545 0.0
H634 H 0.87094 0.65523 0.34225 0.0
H635 H 0.80503 0.69783 0.31614 0.0
H636 H 0.81997 0.68757 0.27916 0.0
H637 H 0.84677 0.55258 0.20466 0.0
H638 H 0.87196 0.58792 0.22143 0.0
H639 H 0.80307 0.63792 0.22082 0.0
H640 H 0.77738 0.60201 0.20435 0.0
H641 H 0.82772 0.63782 0.26013 0.0
H642 H 0.85327 0.65214 0.1874 0.0
H643 H 0.86821 0.64013 0.15083 0.0
H644 H 0.94104 0.61075 0.1768 0.0
H645 H 0.9264 0.62223 0.21357 0.0
C646 C 0.92213 0.71721 0.29559 0.0
C647 C 0.94687 0.70529 0.29897 0.0
C648 C 0.90295 0.70462 0.28302 0.0
C649 C 0.9082 0.67991 0.27374 0.0
C650 C 0.93264 0.6678 0.27747 0.0
C651 C 0.95172 0.68029 0.29 0.0
C652 C 0.88862 0.66649 0.25983 0.0
C653 C 0.89619 0.65967 0.23878 0.0
C654 C 0.86326 0.65938 0.26735 0.0
C655 C 0.85432 0.66555 0.28956 0.0
C656 C 0.86848 0.65633 0.30756 0.0
C657 C 0.85991 0.66229 0.32845 0.0
C658 C 0.83709 0.67729 0.33153 0.0
C659 C 0.82274 0.68628 0.31373 0.0
C660 C 0.83124 0.68038 0.2928 0.0
C661 C 0.83695 0.57108 0.20806 0.0
C662 C 0.81006 0.57449 0.20334 0.0
C663 C 0.85144 0.59138 0.21744 0.0
C664 C 0.83946 0.61564 0.22216 0.0
C665 C 0.81269 0.61936 0.21718 0.0
C666 C 0.79812 0.59896 0.20767 0.0
C667 C 0.85491 0.63627 0.23341 0.0
C668 C 0.84658 0.64454 0.25394 0.0
C669 C 0.87963 0.64475 0.22541 0.0
C670 C 0.88867 0.63798 0.20328 0.0
C671 C 0.87241 0.64298 0.18533 0.0
C672 C 0.88084 0.63628 0.16456 0.0
C673 C 0.90555 0.62467 0.16149 0.0
C674 C 0.92191 0.61977 0.1792 0.0
C675 C 0.91357 0.62642 0.20001 0.0
H676 H 0.91203 0.61948 0.1454 0.0
H677 H 0.83048 0.68188 0.34771 0.0
H678 H 0.91264 0.78481 0.70254 0.0
H679 H 0.87449 0.80789 0.71792 0.0
H680 H 0.92593 0.84922 0.76187 0.0
H681 H 0.96409 0.82626 0.74654 0.0
H682 H 0.87787 0.82871 0.78091 0.0
H683 H 0.90848 0.87999 0.71928 0.0
H684 H 0.92001 0.88582 0.6809 0.0
H685 H 0.84161 0.86297 0.66244 0.0
H686 H 0.82974 0.85664 0.70074 0.0
H687 H 0.81916 0.94679 0.8135 0.0
H688 H 0.84469 0.90924 0.80111 0.0
H689 H 0.78596 0.89295 0.75244 0.0
H690 H 0.76103 0.93171 0.76395 0.0
H691 H 0.8316 0.89383 0.73464 0.0
H692 H 0.79807 0.84986 0.7961 0.0
H693 H 0.7857 0.84336 0.83421 0.0
H694 H 0.86691 0.85028 0.85306 0.0
H695 H 0.87976 0.85721 0.8151 0.0
C696 C 0.91571 0.79862 0.71563 0.0
C697 C 0.94128 0.80392 0.72328 0.0
C698 C 0.89398 0.81178 0.72435 0.0
C699 C 0.8975 0.83021 0.74098 0.0
C700 C 0.92289 0.83498 0.74907 0.0
C701 C 0.94465 0.8221 0.74017 0.0
C702 C 0.87499 0.84572 0.7492 0.0
C703 C 0.86771 0.84304 0.77091 0.0
C704 C 0.86123 0.8636 0.73582 0.0
C705 C 0.86834 0.86752 0.71283 0.0
C706 C 0.89378 0.87597 0.70702 0.0
C707 C 0.90036 0.87942 0.68529 0.0
C708 C 0.88158 0.87468 0.66924 0.0
C709 C 0.85616 0.86657 0.67489 0.0
C710 C 0.84949 0.86306 0.6966 0.0
C711 C 0.81155 0.93523 0.80021 0.0
C712 C 0.78826 0.94264 0.78947 0.0
C713 C 0.826 0.91341 0.79335 0.0
C714 C 0.81719 0.89807 0.77592 0.0
C715 C 0.79315 0.90448 0.76594 0.0
C716 C 0.7788 0.92656 0.77266 0.0
C717 C 0.83464 0.87744 0.7667 0.0
C718 C 0.84113 0.87913 0.7447 0.0
C719 C 0.84744 0.85845 0.77982 0.0
C720 C 0.83986 0.85419 0.80272 0.0
C721 C 0.81329 0.85017 0.80838 0.0
C722 C 0.80619 0.84638 0.82996 0.0
C723 C 0.82551 0.84644 0.84605 0.0
C724 C 0.85197 0.85023 0.84058 0.0
C725 C 0.85918 0.85405 0.81902 0.0
H726 H 0.81997 0.84351 0.86275 0.0
H727 H 0.88671 0.87736 0.65242 0.0
H728 H 0.3111 0.04001 0.78629 0.0
H729 H 0.33351 0.06807 0.76001 0.0
H730 H 0.39525 0.08364 0.80616 0.0
H731 H 0.37313 0.05542 0.83247 0.0
H732 H 0.38059 0.1283 0.78571 0.0
H733 H 0.40465 0.04023 0.76488 0.0
H734 H 0.39635 0.99397 0.75458 0.0
H735 H 0.3526 0.0198 0.69912 0.0
H736 H 0.36033 0.06624 0.70926 0.0
H737 H 0.47817 0.17936 0.71507 0.0
H738 H 0.45298 0.15341 0.74099 0.0
H739 H 0.39404 0.13777 0.69244 0.0
H740 H 0.41926 0.16384 0.66632 0.0
H741 H 0.40586 0.09368 0.71371 0.0
H742 H 0.38276 0.18186 0.73399 0.0
H743 H 0.39107 0.22809 0.74432 0.0
H744 H 0.43287 0.20222 0.80077 0.0
H745 H 0.42512 0.15579 0.79062 0.0
C746 C 0.32955 0.04918 0.79085 0.0
C747 C 0.3403 0.04522 0.81157 0.0
C748 C 0.34233 0.06531 0.77578 0.0
C749 C 0.36625 0.07778 0.78099 0.0
C750 C 0.37681 0.07427 0.80174 0.0
C751 C 0.36405 0.05814 0.81683 0.0
C752 C 0.38035 0.09437 0.7648 0.0
C753 C 0.38639 0.12063 0.77006 0.0
C754 C 0.38738 0.08462 0.74415 0.0
C755 C 0.38284 0.05671 0.73795 0.0
C756 C 0.39309 0.03604 0.75058 0.0
C757 C 0.38851 0.00979 0.74476 0.0
C758 C 0.3739 0.00395 0.72624 0.0
C759 C 0.36389 0.02435 0.71347 0.0
C760 C 0.36837 0.05065 0.71924 0.0
C761 C 0.45965 0.17084 0.70993 0.0
C762 C 0.45066 0.17395 0.68857 0.0
C763 C 0.44525 0.15587 0.72481 0.0
C764 C 0.42138 0.14383 0.71881 0.0
C765 C 0.41237 0.14684 0.6975 0.0
C766 C 0.42682 0.16175 0.68256 0.0
C767 C 0.4062 0.12764 0.73462 0.0
C768 C 0.39997 0.10142 0.72931 0.0
C769 C 0.39898 0.13744 0.75522 0.0
C770 C 0.40356 0.16534 0.76143 0.0
C771 C 0.39389 0.18602 0.74853 0.0
C772 C 0.39847 0.21226 0.75436 0.0
C773 C 0.41254 0.21809 0.77316 0.0
C774 C 0.422 0.19768 0.7862 0.0
C775 C 0.41749 0.17139 0.78042 0.0
H776 H 0.41607 0.23842 0.77765 0.0
H777 H 0.37038 0.98361 0.72176 0.0
H778 H 0.47905 0.31878 0.27981 0.0
H779 H 0.45295 0.34338 0.25387 0.0
H780 H 0.4119 0.38238 0.3057 0.0
H781 H 0.43769 0.3579 0.33198 0.0
H782 H 0.39956 0.34663 0.2461 0.0
H783 H 0.4006 0.44661 0.28999 0.0
H784 H 0.42792 0.47106 0.3162 0.0
H785 H 0.49685 0.42951 0.29457 0.0
H786 H 0.47001 0.40509 0.26805 0.0
H787 H 0.30858 0.44337 0.20177 0.0
H788 H 0.3333 0.41671 0.22815 0.0
H789 H 0.40629 0.43942 0.19769 0.0
H790 H 0.38165 0.46544 0.17105 0.0
H791 H 0.40302 0.4445 0.24607 0.0
H792 H 0.39074 0.38366 0.18678 0.0
H793 H 0.3643 0.35926 0.16 0.0
H794 H 0.32025 0.32254 0.21101 0.0
H795 H 0.3462 0.34708 0.2381 0.0
C796 C 0.46456 0.33243 0.28599 0.0
C797 C 0.46116 0.33636 0.30839 0.0
C798 C 0.44948 0.34651 0.27094 0.0
C799 C 0.43068 0.365 0.27779 0.0
C800 C 0.42661 0.36852 0.3 0.0
C801 C 0.44158 0.35441 0.31508 0.0
C802 C 0.41579 0.381 0.26169 0.0
C803 C 0.40029 0.36802 0.24617 0.0
C804 C 0.41677 0.40894 0.26161 0.0
C805 C 0.43324 0.42385 0.27719 0.0
C806 C 0.42161 0.44278 0.29077 0.0
C807 C 0.43701 0.45662 0.30569 0.0
C808 C 0.46409 0.45178 0.3071 0.0
C809 C 0.47585 0.43317 0.29352 0.0
C810 C 0.46055 0.41931 0.27856 0.0
C811 C 0.32988 0.44257 0.20075 0.0
C812 C 0.3432 0.45628 0.18431 0.0
C813 C 0.34396 0.42736 0.21575 0.0
C814 C 0.37161 0.4261 0.21484 0.0
C815 C 0.38496 0.44013 0.19865 0.0
C816 C 0.37088 0.45481 0.18338 0.0
C817 C 0.3867 0.4101 0.23071 0.0
C818 C 0.40219 0.42311 0.24616 0.0
C819 C 0.38577 0.38222 0.23068 0.0
C820 C 0.37019 0.36745 0.21444 0.0
C821 C 0.37523 0.37061 0.19228 0.0
C822 C 0.36038 0.3567 0.17704 0.0
C823 C 0.34055 0.33942 0.18379 0.0
C824 C 0.33558 0.33597 0.2058 0.0
C825 C 0.35036 0.34986 0.2211 0.0
H826 H 0.32908 0.32866 0.17198 0.0
H827 H 0.47597 0.46249 0.31868 0.0
H828 H 0.05948 0.35982 0.6733 0.0
H829 H 0.088 0.38144 0.69947 0.0
H830 H 0.0657 0.3244 0.74773 0.0
H831 H 0.03718 0.30227 0.72144 0.0
H832 H 0.06579 0.37441 0.76409 0.0
H833 H 0.12565 0.32058 0.72408 0.0
H834 H 0.1467 0.30226 0.69148 0.0
H835 H 0.1732 0.37962 0.6734 0.0
H836 H 0.15198 0.39847 0.70575 0.0
H837 H 0.16709 0.41909 0.83638 0.0
H838 H 0.13952 0.39118 0.81323 0.0
H839 H 0.15696 0.44131 0.75884 0.0
H840 H 0.18501 0.46868 0.78161 0.0
H841 H 0.16011 0.39075 0.74744 0.0
H842 H 0.09768 0.44491 0.78588 0.0
H843 H 0.07628 0.46359 0.81819 0.0
H844 H 0.05458 0.38579 0.8391 0.0
H845 H 0.07618 0.36661 0.80703 0.0
C846 C 0.06079 0.35153 0.68934 0.0
C847 C 0.04606 0.32902 0.69507 0.0
C848 C 0.07713 0.36405 0.70437 0.0
C849 C 0.07933 0.35439 0.72553 0.0
C850 C 0.06438 0.33221 0.73149 0.0
C851 C 0.048 0.3196 0.71641 0.0
C852 C 0.09716 0.36767 0.74132 0.0
C853 C 0.08653 0.37757 0.76063 0.0
C854 C 0.12415 0.37224 0.7367 0.0
C855 C 0.13704 0.36096 0.71726 0.0
C856 C 0.1358 0.33372 0.71307 0.0
C857 C 0.14779 0.32323 0.69465 0.0
C858 C 0.16123 0.33977 0.68036 0.0
C859 C 0.16276 0.36683 0.68448 0.0
C860 C 0.15078 0.37743 0.70287 0.0
C861 C 0.16521 0.42405 0.81947 0.0
C862 C 0.17816 0.44632 0.81097 0.0
C863 C 0.14925 0.4082 0.80627 0.0
C864 C 0.14587 0.41427 0.78429 0.0
C865 C 0.15913 0.43622 0.77573 0.0
C866 C 0.175 0.45206 0.78888 0.0
C867 C 0.12865 0.3979 0.77005 0.0
C868 C 0.13943 0.3874 0.75101 0.0
C869 C 0.10182 0.39282 0.77493 0.0
C870 C 0.08881 0.40431 0.79419 0.0
C871 C 0.08854 0.43177 0.79746 0.0
C872 C 0.07634 0.44245 0.81571 0.0
C873 C 0.06415 0.42588 0.83073 0.0
C874 C 0.06408 0.3986 0.82748 0.0
C875 C 0.07628 0.38781 0.80927 0.0
H876 H 0.05471 0.43419 0.84485 0.0
H877 H 0.1705 0.33162 0.6661 0.0
H878 H 0.0252 0.18106 0.28318 0.0
H879 H 0.05036 0.15631 0.25635 0.0
H880 H 0.10647 0.13372 0.30529 0.0
H881 H 0.08168 0.15903 0.33218 0.0
H882 H 0.13095 0.14772 0.2676 0.0
H883 H 0.05924 0.09092 0.28889 0.0
H884 H 0.01248 0.07987 0.2951 0.0
H885 H 0.99556 0.09316 0.22806 0.0
H886 H 0.04218 0.10464 0.2215 0.0
H887 H 0.1937 0.04327 0.21147 0.0
H888 H 0.16994 0.07038 0.23739 0.0
H889 H 0.10931 0.08523 0.19011 0.0
H890 H 0.1321 0.05697 0.16445 0.0
H891 H 0.08696 0.07591 0.22679 0.0
H892 H 0.15753 0.13246 0.20472 0.0
H893 H 0.20369 0.14523 0.19777 0.0
H894 H 0.22224 0.13445 0.26482 0.0
H895 H 0.17625 0.12127 0.27212 0.0
C896 C 0.04308 0.17121 0.28823 0.0
C897 C 0.05138 0.17208 0.30992 0.0
C898 C 0.05734 0.1568 0.27287 0.0
C899 C 0.08016 0.14285 0.27882 0.0
C900 C 0.08887 0.14422 0.30031 0.0
C901 C 0.07458 0.15855 0.31571 0.0
C902 C 0.09468 0.12648 0.26274 0.0
C903 C 0.12143 0.1318 0.25885 0.0
C904 C 0.08211 0.10615 0.25089 0.0
C905 C 0.05415 0.09888 0.25475 0.0
C906 C 0.04552 0.09165 0.2755 0.0
C907 C 0.01904 0.08528 0.27908 0.0
C908 C 0.00104 0.08588 0.262 0.0
C909 C 0.00951 0.09274 0.24128 0.0
C910 C 0.03597 0.09915 0.23762 0.0
C911 C 0.17522 0.05202 0.20651 0.0
C912 C 0.16498 0.0476 0.18566 0.0
C913 C 0.16175 0.0679 0.22137 0.0
C914 C 0.13792 0.08026 0.21571 0.0
C915 C 0.12767 0.07602 0.19493 0.0
C916 C 0.14097 0.05993 0.18012 0.0
C917 C 0.12337 0.0971 0.23154 0.0
C918 C 0.09655 0.09185 0.23544 0.0
C919 C 0.13584 0.11767 0.24325 0.0
C920 C 0.1635 0.12563 0.23892 0.0
C921 C 0.1715 0.13262 0.21795 0.0
C922 C 0.19763 0.13997 0.21395 0.0
C923 C 0.2159 0.14059 0.23083 0.0
C924 C 0.20807 0.13393 0.25176 0.0
C925 C 0.18197 0.12654 0.25584 0.0
H926 H 0.23612 0.14628 0.2277 0.0
H927 H 0.98055 0.08097 0.26481 0.0
H928 H 0.66351 0.04593 0.21358 0.0
H929 H 0.62595 0.05755 0.23608 0.0
H930 H 0.58728 0.09257 0.18098 0.0
H931 H 0.6256 0.08216 0.15861 0.0
H932 H 0.58809 0.12615 0.21054 0.0
H933 H 0.56194 0.03637 0.21034 0.0
H934 H 0.5665 0.98807 0.21328 0.0
H935 H 0.58949 0.99579 0.27967 0.0
H936 H 0.58545 0.04417 0.27708 0.0
H937 H 0.4913 0.1753 0.27908 0.0
H938 H 0.50555 0.14065 0.25423 0.0
H939 H 0.56969 0.12094 0.2969 0.0
H940 H 0.55657 0.1561 0.32127 0.0
H941 H 0.54706 0.07601 0.27059 0.0
H942 H 0.58389 0.16563 0.26568 0.0
H943 H 0.57788 0.21384 0.26341 0.0
H944 H 0.53284 0.20448 0.20518 0.0
H945 H 0.53812 0.15611 0.20742 0.0
C946 C 0.64674 0.05552 0.2061 0.0
C947 C 0.64767 0.06344 0.18436 0.0
C948 C 0.62507 0.06199 0.219 0.0
C949 C 0.60356 0.0759 0.2103 0.0
C950 C 0.60364 0.08197 0.18815 0.0
C951 C 0.62555 0.07599 0.17534 0.0
C952 C 0.58324 0.08757 0.22484 0.0
C953 C 0.57857 0.11483 0.2232 0.0
C954 C 0.57107 0.07315 0.24178 0.0
C955 C 0.57352 0.04399 0.24346 0.0
C956 C 0.56816 0.02781 0.22553 0.0
C957 C 0.57061 0.0004 0.22715 0.0
C958 C 0.57832 0.98887 0.24664 0.0
C959 C 0.58352 0.00474 0.26458 0.0
C960 C 0.5811 0.03217 0.26306 0.0
C961 C 0.50809 0.16323 0.28346 0.0
C962 C 0.52313 0.16907 0.30198 0.0
C963 C 0.51598 0.14319 0.26935 0.0
C964 C 0.53881 0.12845 0.27366 0.0
C965 C 0.55191 0.132 0.29336 0.0
C966 C 0.54429 0.15225 0.30733 0.0
C967 C 0.5524 0.11414 0.25604 0.0
C968 C 0.55602 0.08676 0.25734 0.0
C969 C 0.56354 0.12824 0.23861 0.0
C970 C 0.56113 0.15731 0.23685 0.0
C971 C 0.57257 0.17386 0.25248 0.0
C972 C 0.56929 0.2012 0.2512 0.0
C973 C 0.55493 0.21222 0.23418 0.0
C974 C 0.54391 0.19591 0.21838 0.0
C975 C 0.54701 0.16854 0.21965 0.0
H976 H 0.5524 0.23339 0.23322 0.0
H977 H 0.58024 0.96766 0.24785 0.0
H978 H 0.3177 0.52173 0.76259 0.0
H979 H 0.35692 0.5333 0.74245 0.0
H980 H 0.40519 0.51676 0.79809 0.0
H981 H 0.3659 0.50359 0.81836 0.0
H982 H 0.41166 0.56737 0.78235 0.0
H983 H 0.41566 0.48136 0.75494 0.0
H984 H 0.40089 0.43931 0.73912 0.0
H985 H 0.37818 0.47939 0.68097 0.0
H986 H 0.39249 0.52179 0.69652 0.0
H987 H 0.50679 0.62967 0.71514 0.0
H988 H 0.49021 0.59027 0.73416 0.0
H989 H 0.41748 0.59526 0.69831 0.0
H990 H 0.43367 0.63474 0.67989 0.0
H991 H 0.43575 0.5414 0.70767 0.0
H992 H 0.42065 0.6278 0.74089 0.0
H993 H 0.43616 0.66978 0.75644 0.0
H994 H 0.47976 0.62742 0.80472 0.0
H995 H 0.46508 0.58512 0.78904 0.0
C996 C 0.33659 0.51935 0.77048 0.0
C997 C 0.33832 0.51175 0.79233 0.0
C998 C 0.35914 0.52618 0.75885 0.0
C999 C 0.38401 0.52588 0.76874 0.0
C1000 C 0.38615 0.51714 0.79016 0.0
C1001 C 0.36357 0.50984 0.80176 0.0
C1002 C 0.40672 0.53814 0.75741 0.0
C1003 C 0.41758 0.56118 0.7663 0.0
C1004 C 0.41424 0.53023 0.73638 0.0
C1005 C 0.4051 0.50485 0.72698 0.0
C1006 C 0.40728 0.48129 0.73886 0.0
C1007 C 0.39905 0.45736 0.72991 0.0
C1008 C 0.38858 0.45668 0.70906 0.0
C1009 C 0.38632 0.47995 0.69712 0.0
C1010 C 0.39456 0.50394 0.70598 0.0
C1011 C 0.48775 0.62158 0.7108 0.0
C1012 C 0.47151 0.63491 0.69606 0.0
C1013 C 0.47827 0.59927 0.72168 0.0
C1014 C 0.45262 0.58997 0.71766 0.0
C1015 C 0.43739 0.60199 0.70152 0.0
C1016 C 0.4466 0.62454 0.69104 0.0
C1017 C 0.43971 0.57092 0.73238 0.0
C1018 C 0.43056 0.54687 0.72406 0.0
C1019 C 0.43371 0.57784 0.75396 0.0
C1020 C 0.44222 0.60329 0.76353 0.0
C1021 C 0.43384 0.62742 0.75464 0.0
C1022 C 0.44244 0.65128 0.76349 0.0
C1023 C 0.45907 0.65127 0.78149 0.0
C1024 C 0.46698 0.6274 0.79073 0.0
C1025 C 0.45856 0.60347 0.78184 0.0
H1026 H 0.46572 0.66976 0.78833 0.0
H1027 H 0.38223 0.43812 0.70216 0.0
H1028 H 0.95618 0.34964 0.33287 0.0
H1029 H 0.93804 0.38316 0.30924 0.0
H1030 H 0.00637 0.37766 0.26816 0.0
H1031 H 0.02535 0.34428 0.29222 0.0
H1032 H 0.97682 0.43162 0.27065 0.0
H1033 H 0.96644 0.3376 0.25517 0.0
H1034 H 0.95662 0.29209 0.26676 0.0
H1035 H 0.87935 0.31613 0.28722 0.0
H1036 H 0.88898 0.36195 0.27623 0.0
H1037 H 0.87235 0.41847 0.17614 0.0
H1038 H 0.90997 0.40365 0.19752 0.0
H1039 H 0.89384 0.46392 0.24486 0.0
H1040 H 0.85633 0.47911 0.22345 0.0
H1041 H 0.90274 0.38296 0.23649 0.0
H1042 H 0.95047 0.47628 0.27403 0.0
H1043 H 0.9604 0.5222 0.26366 0.0
H1044 H 0.96378 0.49945 0.19697 0.0
H1045 H 0.95414 0.45336 0.20693 0.0
C1046 C 0.96819 0.35643 0.31954 0.0
C1047 C 0.99213 0.34386 0.3143 0.0
C1048 C 0.95764 0.37563 0.30594 0.0
C1049 C 0.97069 0.38254 0.28684 0.0
C1050 C 0.99602 0.37252 0.28287 0.0
C1051 C 0.0067 0.35327 0.29653 0.0
C1052 C 0.95544 0.395 0.26922 0.0
C1053 C 0.96067 0.42109 0.26305 0.0
C1054 C 0.93469 0.38097 0.25917 0.0
C1055 C 0.9285 0.35323 0.26502 0.0
C1056 C 0.94741 0.33321 0.26225 0.0
C1057 C 0.94188 0.30737 0.26871 0.0
C1058 C 0.91736 0.30122 0.27769 0.0
C1059 C 0.89832 0.32092 0.28023 0.0
C1060 C 0.90381 0.34683 0.2739 0.0
C1061 C 0.87718 0.42906 0.19081 0.0
C1062 C 0.86109 0.44975 0.19822 0.0
C1063 C 0.8987 0.42052 0.20303 0.0
C1064 C 0.90466 0.43256 0.22284 0.0
C1065 C 0.88981 0.45447 0.22953 0.0
C1066 C 0.86827 0.46308 0.21728 0.0
C1067 C 0.92378 0.41993 0.23778 0.0
C1068 C 0.9191 0.39361 0.24369 0.0
C1069 C 0.94504 0.4338 0.24737 0.0
C1070 C 0.95136 0.46139 0.24124 0.0
C1071 C 0.95347 0.48104 0.25716 0.0
C1072 C 0.95903 0.50711 0.25135 0.0
C1073 C 0.96267 0.51375 0.22967 0.0
C1074 C 0.96086 0.49431 0.21375 0.0
C1075 C 0.95529 0.46821 0.21947 0.0
H1076 H 0.96689 0.53395 0.22519 0.0
H1077 H 0.91311 0.2812 0.28267 0.0
H1078 H 0.19174 0.01673 0.76656 0.0
H1079 H 0.15199 0.00179 0.74772 0.0
H1080 H 0.12129 0.97094 0.80747 0.0
H1081 H 0.16091 0.98538 0.8263 0.0
H1082 H 0.136 0.93337 0.77431 0.0
H1083 H 0.08251 0.01357 0.78192 0.0
H1084 H 0.07585 0.06154 0.77776 0.0
H1085 H 0.0917 0.05535 0.70986 0.0
H1086 H 0.09839 0.00733 0.71364 0.0
H1087 H 0.03511 0.85583 0.74007 0.0
H1088 H 0.05666 0.8926 0.7583 0.0
H1089 H 0.06956 0.93081 0.69698 0.0
H1090 H 0.04689 0.89411 0.67863 0.0
H1091 H 0.06326 0.96801 0.72876 0.0
H1092 H 0.12553 0.90002 0.71721 0.0
H1093 H 0.14489 0.85571 0.71478 0.0
H1094 H 0.12429 0.84074 0.78095 0.0
H1095 H 0.10594 0.88581 0.78399 0.0
C1096 C 0.17606 0.00768 0.77583 0.0
C1097 C 0.17972 0.00181 0.79786 0.0
C1098 C 0.15326 0.99933 0.76506 0.0
C1099 C 0.13381 0.9851 0.77619 0.0
C1100 C 0.13605 0.98199 0.79862 0.0
C1101 C 0.15874 0.99039 0.8094 0.0
C1102 C 0.11513 0.96819 0.7641 0.0
C1103 C 0.11962 0.94096 0.76487 0.0
C1104 C 0.09522 0.9782 0.75038 0.0
C1105 C 0.09097 0.00693 0.74807 0.0
C1106 C 0.08465 0.02249 0.76613 0.0
C1107 C 0.08083 0.04966 0.76383 0.0
C1108 C 0.08339 0.0615 0.74356 0.0
C1109 C 0.08978 0.04617 0.72555 0.0
C1110 C 0.09346 0.01896 0.72774 0.0
C1111 C 0.04188 0.87241 0.73052 0.0
C1112 C 0.0395 0.87211 0.70797 0.0
C1113 C 0.05432 0.89338 0.74093 0.0
C1114 C 0.06534 0.91418 0.72898 0.0
C1115 C 0.06129 0.91494 0.70653 0.0
C1116 C 0.04832 0.89402 0.69607 0.0
C1117 C 0.0834 0.93306 0.73996 0.0
C1118 C 0.0792 0.96047 0.73867 0.0
C1119 C 0.10469 0.92351 0.75246 0.0
C1120 C 0.11403 0.89597 0.7507 0.0
C1121 C 0.12489 0.88714 0.73116 0.0
C1122 C 0.13582 0.86194 0.72972 0.0
C1123 C 0.13544 0.84512 0.7476 0.0
C1124 C 0.12444 0.85371 0.76707 0.0
C1125 C 0.114 0.87918 0.76873 0.0
H1126 H 0.14385 0.82555 0.74641 0.0
H1127 H 0.08039 0.08253 0.74181 0.0
H1128 H 0.48477 0.34362 0.71346 0.0
H1129 H 0.50351 0.3777 0.73703 0.0
H1130 H 0.57009 0.38529 0.69427 0.0
H1131 H 0.55252 0.35095 0.67135 0.0
H1132 H 0.58248 0.36772 0.73551 0.0
H1133 H 0.53206 0.43574 0.70057 0.0
H1134 H 0.49178 0.4583 0.68808 0.0
H1135 H 0.46482 0.46529 0.75352 0.0
H1136 H 0.50474 0.44233 0.7664 0.0
H1137 H 0.6532 0.48141 0.78009 0.0
H1138 H 0.61512 0.46799 0.75841 0.0
H1139 H 0.59449 0.4101 0.80646 0.0
H1140 H 0.63239 0.42324 0.82821 0.0
H1141 H 0.55593 0.45539 0.76387 0.0
H1142 H 0.59904 0.35502 0.78086 0.0
H1143 H 0.64122 0.33411 0.7913 0.0
H1144 H 0.68385 0.39397 0.75674 0.0
H1145 H 0.64207 0.41529 0.74651 0.0
C1146 C 0.50312 0.35294 0.70882 0.0
C1147 C 0.51722 0.34406 0.69058 0.0
C1148 C 0.51365 0.37262 0.72221 0.0
C1149 C 0.53827 0.38382 0.71745 0.0
C1150 C 0.55103 0.37688 0.69821 0.0
C1151 C 0.54071 0.35724 0.68496 0.0
C1152 C 0.55328 0.39861 0.73402 0.0
C1153 C 0.57648 0.38684 0.74169 0.0
C1154 C 0.54546 0.42351 0.74218 0.0
C1155 C 0.52127 0.43699 0.73443 0.0
C1156 C 0.51739 0.44176 0.71229 0.0
C1157 C 0.49465 0.4547 0.70514 0.0
C1158 C 0.4757 0.46315 0.71998 0.0
C1159 C 0.47947 0.45868 0.74202 0.0
C1160 C 0.50216 0.44571 0.74926 0.0
C1161 C 0.64005 0.46646 0.78643 0.0
C1162 C 0.64616 0.45301 0.80568 0.0
C1163 C 0.61817 0.45896 0.77407 0.0
C1164 C 0.60212 0.43797 0.7808 0.0
C1165 C 0.60663 0.42638 0.80103 0.0
C1166 C 0.62845 0.43382 0.81336 0.0
C1167 C 0.58493 0.42437 0.76501 0.0
C1168 C 0.56149 0.43615 0.7577 0.0
C1169 C 0.59242 0.39949 0.75684 0.0
C1170 C 0.61755 0.38678 0.76308 0.0
C1171 C 0.61748 0.36368 0.77559 0.0
C1172 C 0.64131 0.35182 0.78154 0.0
C1173 C 0.66526 0.36277 0.77485 0.0
C1174 C 0.6654 0.38561 0.76218 0.0
C1175 C 0.64166 0.39764 0.75636 0.0
H1176 H 0.68366 0.35348 0.77939 0.0
H1177 H 0.45817 0.47324 0.71439 0.0
H1178 H 0.16942 0.56055 0.1755 0.0
H1179 H 0.13862 0.58034 0.20078 0.0
H1180 H 0.14545 0.51264 0.24246 0.0
H1181 H 0.17615 0.49213 0.21685 0.0
H1182 H 0.09223 0.54103 0.2415 0.0
H1183 H 0.18638 0.55445 0.25249 0.0
H1184 H 0.2307 0.56534 0.23871 0.0
H1185 H 0.20345 0.6421 0.21969 0.0
H1186 H 0.15877 0.63141 0.23291 0.0
H1187 H 0.10457 0.64716 0.3345 0.0
H1188 H 0.12082 0.61047 0.3127 0.0
H1189 H 0.05884 0.62391 0.26628 0.0
H1190 H 0.0423 0.66054 0.28805 0.0
H1191 H 0.14004 0.61757 0.27271 0.0
H1192 H 0.04672 0.56629 0.23886 0.0
H1193 H 0.00165 0.55509 0.25067 0.0
H1194 H 0.02733 0.5536 0.31669 0.0
H1195 H 0.07262 0.56458 0.30528 0.0
C1196 C 0.16351 0.54914 0.18946 0.0
C1197 C 0.17552 0.52478 0.19421 0.0
C1198 C 0.14594 0.56064 0.20399 0.0
C1199 C 0.14009 0.5481 0.22357 0.0
C1200 C 0.14978 0.5226 0.2274 0.0
C1201 C 0.16745 0.51102 0.21283 0.0
C1202 C 0.12817 0.56359 0.2413 0.0
C1203 C 0.1026 0.55771 0.24844 0.0
C1204 C 0.142 0.58509 0.25048 0.0
C1205 C 0.16917 0.59203 0.24353 0.0
C1206 C 0.1898 0.5736 0.24528 0.0
C1207 C 0.21498 0.57973 0.23756 0.0
C1208 C 0.21987 0.60438 0.2283 0.0
C1209 C 0.19962 0.62301 0.22686 0.0
C1210 C 0.17437 0.61692 0.23447 0.0
C1211 C 0.09394 0.64193 0.31995 0.0
C1212 C 0.07225 0.65697 0.31293 0.0
C1213 C 0.10334 0.62098 0.30746 0.0
C1214 C 0.09108 0.61446 0.28785 0.0
C1215 C 0.06846 0.62839 0.28146 0.0
C1216 C 0.05909 0.64943 0.2939 0.0
C1217 C 0.10374 0.59537 0.27292 0.0
C1218 C 0.12961 0.6007 0.26612 0.0
C1219 C 0.09014 0.57341 0.26418 0.0
C1220 C 0.06304 0.56645 0.27121 0.0
C1221 C 0.04278 0.56344 0.25589 0.0
C1222 C 0.01718 0.55715 0.26251 0.0
C1223 C 0.01161 0.55365 0.28441 0.0
C1224 C 0.03165 0.5564 0.29974 0.0
C1225 C 0.05728 0.56272 0.2932 0.0
H1226 H 0.99178 0.54881 0.28952 0.0
H1227 H 0.23935 0.60906 0.22226 0.0
H1228 H 0.01561 0.17124 0.72597 0.0
H1229 H 0.0006 0.13 0.74257 0.0
H1230 H 0.95604 0.11182 0.68526 0.0
H1231 H 0.97161 0.15237 0.66837 0.0
H1232 H 0.93448 0.13335 0.7341 0.0
H1233 H 0.97975 0.06974 0.68934 0.0
H1234 H 0.01638 0.04378 0.6743 0.0
H1235 H 0.03564 0.01549 0.73767 0.0
H1236 H 0.00032 0.0427 0.75329 0.0
H1237 H 0.83871 0.04354 0.76276 0.0
H1238 H 0.87456 0.061 0.74088 0.0
H1239 H 0.92931 0.04705 0.79287 0.0
H1240 H 0.89324 0.02938 0.81515 0.0
H1241 H 0.94973 0.03809 0.74754 0.0
H1242 H 0.91042 0.10555 0.79255 0.0
H1243 H 0.87408 0.13074 0.80892 0.0
H1244 H 0.84374 0.14907 0.74591 0.0
H1245 H 0.88031 0.1242 0.72917 0.0
C1246 C 0.00383 0.15768 0.71649 0.0
C1247 C 0.9947 0.16503 0.69592 0.0
C1248 C 0.99542 0.13403 0.72593 0.0
C1249 C 0.97758 0.11757 0.71502 0.0
C1250 C 0.97049 0.12372 0.6937 0.0
C1251 C 0.9793 0.14706 0.6841 0.0
C1252 C 0.96001 0.10028 0.72778 0.0
C1253 C 0.93783 0.11246 0.73685 0.0
C1254 C 0.96476 0.07319 0.73181 0.0
C1255 C 0.98769 0.05891 0.72258 0.0
C1256 C 0.9924 0.05887 0.70021 0.0
C1257 C 0.01292 0.04378 0.69154 0.0
C1258 C 0.02856 0.02821 0.70504 0.0
C1259 C 0.02384 0.02787 0.72724 0.0
C1260 C 0.00368 0.04328 0.73602 0.0
C1261 C 0.85844 0.04362 0.76947 0.0
C1262 C 0.86307 0.03543 0.79083 0.0
C1263 C 0.87893 0.05354 0.75688 0.0
C1264 C 0.90447 0.05556 0.76535 0.0
C1265 C 0.90969 0.04557 0.78606 0.0
C1266 C 0.88908 0.03552 0.79875 0.0
C1267 C 0.92441 0.07129 0.75355 0.0
C1268 C 0.94678 0.05901 0.74479 0.0
C1269 C 0.92017 0.09842 0.74976 0.0
C1270 C 0.89787 0.11286 0.75966 0.0
C1271 C 0.89586 0.11478 0.78221 0.0
C1272 C 0.87526 0.12907 0.79154 0.0
C1273 C 0.85644 0.14136 0.77847 0.0
C1274 C 0.85829 0.13949 0.75602 0.0
C1275 C 0.87902 0.12541 0.7466 0.0
H1276 H 0.8405 0.15246 0.78569 0.0
H1277 H 0.04419 0.01624 0.69827 0.0
H1278 H 0.32331 0.01135 0.22625 0.0
H1279 H 0.35772 0.99387 0.25028 0.0
H1280 H 0.37527 0.93313 0.20381 0.0
H1281 H 0.34103 0.94979 0.18011 0.0
H1282 H 0.35585 0.91675 0.24632 0.0
H1283 H 0.41992 0.97365 0.21148 0.0
H1284 H 0.43878 0.0165 0.2007 0.0
H1285 H 0.4448 0.03938 0.26726 0.0
H1286 H 0.42557 0.99678 0.27842 0.0
H1287 H 0.45589 0.83399 0.27207 0.0
H1288 H 0.43454 0.87085 0.25404 0.0
H1289 H 0.43592 0.91551 0.31328 0.0
H1290 H 0.45795 0.87826 0.33163 0.0
H1291 H 0.44412 0.94611 0.27131 0.0
H1292 H 0.38323 0.88756 0.30629 0.0
H1293 H 0.36419 0.84464 0.31677 0.0
H1294 H 0.35119 0.82557 0.25009 0.0
H1295 H 0.3706 0.86813 0.23917 0.0
C1296 C 0.33496 0.99466 0.22094 0.0
C1297 C 0.3292 0.98194 0.20124 0.0
C1298 C 0.3547 0.98483 0.23463 0.0
C1299 C 0.36893 0.96219 0.2288 0.0
C1300 C 0.36458 0.95072 0.20853 0.0
C1301 C 0.34502 0.96048 0.19489 0.0
C1302 C 0.38497 0.94758 0.2448 0.0
C1303 C 0.37514 0.92321 0.2518 0.0
C1304 C 0.40967 0.95651 0.25252 0.0
C1305 C 0.42091 0.9822 0.24577 0.0
C1306 C 0.42491 0.98796 0.22381 0.0
C1307 C 0.43577 0.01216 0.21763 0.0
C1308 C 0.44288 0.0307 0.23328 0.0
C1309 C 0.43921 0.02504 0.25515 0.0
C1310 C 0.42834 0.00086 0.26141 0.0
C1311 C 0.45212 0.85181 0.28124 0.0
C1312 C 0.45808 0.85312 0.30336 0.0
C1313 C 0.44004 0.87291 0.27087 0.0
C1314 C 0.4333 0.89569 0.28241 0.0
C1315 C 0.44098 0.89802 0.30413 0.0
C1316 C 0.45345 0.87678 0.31458 0.0
C1317 C 0.41526 0.91494 0.27212 0.0
C1318 C 0.42456 0.94003 0.26624 0.0
C1319 C 0.38985 0.90685 0.26541 0.0
C1320 C 0.37846 0.88103 0.27192 0.0
C1321 C 0.37655 0.87411 0.29385 0.0
C1322 C 0.36566 0.84986 0.29987 0.0
C1323 C 0.35643 0.83245 0.2841 0.0
C1324 C 0.35829 0.83912 0.26228 0.0
C1325 C 0.36922 0.86331 0.25617 0.0
H1326 H 0.34769 0.81386 0.28877 0.0
H1327 H 0.45132 0.04941 0.22847 0.0
H1328 H 0.43964 0.80177 0.70518 0.0
H1329 H 0.42665 0.83616 0.73025 0.0
H1330 H 0.45341 0.78842 0.7837 0.0
H1331 H 0.46516 0.75307 0.75844 0.0
H1332 H 0.40883 0.80511 0.79316 0.0
H1333 H 0.48365 0.85032 0.76871 0.0
H1334 H 0.51669 0.86817 0.74345 0.0
H1335 H 0.45759 0.91727 0.71429 0.0
H1336 H 0.42407 0.89944 0.73912 0.0
H1337 H 0.35059 0.91114 0.85356 0.0
H1338 H 0.38566 0.88249 0.83961 0.0
H1339 H 0.36256 0.90167 0.77445 0.0
H1340 H 0.32787 0.93045 0.7882 0.0
H1341 H 0.41628 0.90113 0.77915 0.0
H1342 H 0.34133 0.84344 0.80002 0.0
H1343 H 0.31069 0.82402 0.82648 0.0
H1344 H 0.37612 0.79925 0.86563 0.0
H1345 H 0.40715 0.81847 0.83925 0.0
C1346 C 0.44321 0.79874 0.72224 0.0
C1347 C 0.45331 0.77471 0.72988 0.0
C1348 C 0.43601 0.81861 0.73662 0.0
C1349 C 0.43944 0.81524 0.75896 0.0
C1350 C 0.45061 0.79159 0.76656 0.0
C1351 C 0.45733 0.7714 0.75214 0.0
C1352 C 0.42828 0.83504 0.77417 0.0
C1353 C 0.41117 0.82612 0.79043 0.0
C1354 C 0.43122 0.86256 0.77085 0.0
C1355 C 0.45129 0.87343 0.75579 0.0
C1356 C 0.47763 0.86479 0.75682 0.0
C1357 C 0.49647 0.87493 0.74258 0.0
C1358 C 0.48924 0.89382 0.72727 0.0
C1359 C 0.46317 0.90264 0.72617 0.0
C1360 C 0.44424 0.89256 0.74037 0.0
C1361 C 0.35314 0.90936 0.83626 0.0
C1362 C 0.33638 0.92289 0.82196 0.0
C1363 C 0.37315 0.89297 0.82833 0.0
C1364 C 0.3766 0.8898 0.80599 0.0
C1365 C 0.3603 0.90387 0.79175 0.0
C1366 C 0.34037 0.9202 0.79963 0.0
C1367 C 0.39611 0.87092 0.79709 0.0
C1368 C 0.41477 0.8801 0.78214 0.0
C1369 C 0.39514 0.84369 0.80193 0.0
C1370 C 0.37646 0.83263 0.81786 0.0
C1371 C 0.34912 0.83403 0.81436 0.0
C1372 C 0.33171 0.823 0.82934 0.0
C1373 C 0.34146 0.81053 0.84783 0.0
C1374 C 0.36862 0.80897 0.85134 0.0
C1375 C 0.38612 0.81987 0.83637 0.0
H1376 H 0.32806 0.80194 0.85942 0.0
H1377 H 0.50386 0.90164 0.71626 0.0
H1378 H 0.7514 0.4549 0.25649 0.0
H1379 H 0.71654 0.43259 0.27654 0.0
H1380 H 0.65883 0.46142 0.23104 0.0
H1381 H 0.69393 0.48275 0.21033 0.0
H1382 H 0.67313 0.43905 0.29683 0.0
H1383 H 0.61636 0.4127 0.21788 0.0
H1384 H 0.62542 0.40741 0.17897 0.0
H1385 H 0.70692 0.39183 0.1927 0.0
H1386 H 0.69831 0.39646 0.23169 0.0
H1387 H 0.56385 0.36419 0.33127 0.0
H1388 H 0.59111 0.39796 0.31389 0.0
H1389 H 0.62548 0.33823 0.27279 0.0
H1390 H 0.59666 0.30507 0.28897 0.0
H1391 H 0.62187 0.37784 0.25048 0.0
H1392 H 0.65617 0.36451 0.32122 0.0
H1393 H 0.65534 0.36158 0.36095 0.0
H1394 H 0.63288 0.44313 0.365 0.0
H1395 H 0.63327 0.44644 0.32526 0.0
C1396 C 0.73118 0.4572 0.25115 0.0
C1397 C 0.72535 0.47023 0.23172 0.0
C1398 C 0.71124 0.44438 0.26261 0.0
C1399 C 0.68517 0.4447 0.25495 0.0
C1400 C 0.67893 0.46031 0.23691 0.0
C1401 C 0.69894 0.47267 0.22519 0.0
C1402 C 0.66538 0.42637 0.26426 0.0
C1403 C 0.66176 0.42579 0.2867 0.0
C1404 C 0.65133 0.40829 0.25114 0.0
C1405 C 0.65671 0.40531 0.22769 0.0
C1406 C 0.6362 0.40807 0.21259 0.0
C1407 C 0.64127 0.40515 0.19053 0.0
C1408 C 0.66676 0.39935 0.18338 0.0
C1409 C 0.68723 0.39635 0.19827 0.0
C1410 C 0.68226 0.39914 0.22035 0.0
C1411 C 0.57703 0.3585 0.31831 0.0
C1412 C 0.57831 0.33219 0.31139 0.0
C1413 C 0.59277 0.3777 0.30852 0.0
C1414 C 0.61091 0.37064 0.29234 0.0
C1415 C 0.61167 0.34431 0.28517 0.0
C1416 C 0.59526 0.32533 0.29443 0.0
C1417 C 0.62954 0.39036 0.28316 0.0
C1418 C 0.63296 0.39125 0.26068 0.0
C1419 C 0.64466 0.40751 0.29638 0.0
C1420 C 0.64447 0.40564 0.32027 0.0
C1421 C 0.65089 0.38177 0.33059 0.0
C1422 C 0.65052 0.38004 0.3531 0.0
C1423 C 0.64399 0.40214 0.36549 0.0
C1424 C 0.63789 0.42602 0.35538 0.0
C1425 C 0.6382 0.42784 0.33286 0.0
H1426 H 0.64371 0.40077 0.38292 0.0
H1427 H 0.67065 0.39712 0.16629 0.0
H1428 H 0.04705 0.69899 0.70493 0.0
H1429 H 0.06599 0.66105 0.72405 0.0
H1430 H 0.09357 0.71271 0.77455 0.0
H1431 H 0.07428 0.75056 0.75584 0.0
H1432 H 0.13299 0.67948 0.75401 0.0
H1433 H 0.04711 0.67544 0.78751 0.0
H1434 H 0.99855 0.67269 0.78756 0.0
H1435 H 0.00222 0.59869 0.75396 0.0
H1436 H 0.05082 0.60119 0.75342 0.0
H1437 H 0.15554 0.57589 0.83875 0.0
H1438 H 0.12386 0.60514 0.82101 0.0
H1439 H 0.15826 0.58661 0.75917 0.0
H1440 H 0.19011 0.55747 0.77676 0.0
H1441 H 0.0864 0.6027 0.78598 0.0
H1442 H 0.16938 0.64777 0.73506 0.0
H1443 H 0.21803 0.64858 0.73435 0.0
H1444 H 0.22013 0.64082 0.80327 0.0
H1445 H 0.17154 0.6409 0.80454 0.0
C1446 C 0.05676 0.70215 0.72029 0.0
C1447 C 0.05926 0.72768 0.72891 0.0
C1448 C 0.06749 0.68051 0.73118 0.0
C1449 C 0.08112 0.68421 0.75065 0.0
C1450 C 0.08304 0.70956 0.75954 0.0
C1451 C 0.07195 0.7311 0.74888 0.0
C1452 C 0.0952 0.66204 0.76091 0.0
C1453 C 0.12283 0.66274 0.76107 0.0
C1454 C 0.0818 0.64018 0.76988 0.0
C1455 C 0.0526 0.63865 0.77022 0.0
C1456 C 0.03756 0.65871 0.77994 0.0
C1457 C 0.01002 0.65717 0.7801 0.0
C1458 C 0.9973 0.63557 0.77072 0.0
C1459 C 0.01209 0.61543 0.76119 0.0
C1460 C 0.03964 0.61689 0.76097 0.0
C1461 C 0.15596 0.57757 0.82132 0.0
C1462 C 0.17556 0.5648 0.80915 0.0
C1463 C 0.13775 0.59414 0.81122 0.0
C1464 C 0.139 0.59819 0.78886 0.0
C1465 C 0.15717 0.58381 0.77649 0.0
C1466 C 0.17539 0.56728 0.78657 0.0
C1467 C 0.12418 0.62019 0.77904 0.0
C1468 C 0.09652 0.61947 0.77892 0.0
C1469 C 0.13753 0.64214 0.7701 0.0
C1470 C 0.16678 0.64389 0.76982 0.0
C1471 C 0.18022 0.64648 0.75009 0.0
C1472 C 0.2078 0.64678 0.74961 0.0
C1473 C 0.22216 0.64452 0.76877 0.0
C1474 C 0.20897 0.64236 0.78848 0.0
C1475 C 0.18141 0.64231 0.78909 0.0
H1476 H 0.2435 0.64464 0.76836 0.0
H1477 H 0.97598 0.63441 0.77087 0.0
H1478 H 0.93927 0.21215 0.27919 0.0
H1479 H 0.91076 0.18493 0.25657 0.0
H1480 H 0.90553 0.12703 0.30749 0.0
H1481 H 0.9333 0.15474 0.33052 0.0
H1482 H 0.90999 0.13827 0.23934 0.0
H1483 H 0.84179 0.10362 0.30981 0.0
H1484 H 0.8281 0.11902 0.34592 0.0
H1485 H 0.84672 0.19875 0.32816 0.0
H1486 H 0.86011 0.18396 0.29206 0.0
H1487 H 0.81613 0.0487 0.19531 0.0
H1488 H 0.85121 0.06945 0.21661 0.0
H1489 H 0.79571 0.12777 0.23946 0.0
H1490 H 0.76062 0.1064 0.21911 0.0
H1491 H 0.82301 0.11512 0.27075 0.0
H1492 H 0.84471 0.13939 0.1984 0.0
H1493 H 0.85495 0.13247 0.1599 0.0
H1494 H 0.92343 0.08728 0.17718 0.0
H1495 H 0.91339 0.09367 0.21581 0.0
C1496 C 0.93228 0.19347 0.28548 0.0
C1497 C 0.93816 0.1857 0.30671 0.0
C1498 C 0.91611 0.17786 0.27249 0.0
C1499 C 0.9057 0.15412 0.28044 0.0
C1500 C 0.91295 0.14552 0.30117 0.0
C1501 C 0.92881 0.16134 0.3143 0.0
C1502 C 0.88554 0.13966 0.26774 0.0
C1503 C 0.89102 0.13302 0.24621 0.0
C1504 C 0.86049 0.13355 0.27652 0.0
C1505 C 0.85233 0.14259 0.29831 0.0
C1506 C 0.84294 0.12444 0.31365 0.0
C1507 C 0.83523 0.13308 0.33414 0.0
C1508 C 0.83674 0.15984 0.33945 0.0
C1509 C 0.84589 0.178 0.32425 0.0
C1510 C 0.85349 0.1695 0.30374 0.0
C1511 C 0.81157 0.066 0.20488 0.0
C1512 C 0.78576 0.07597 0.20566 0.0
C1513 C 0.83161 0.07794 0.21694 0.0
C1514 C 0.82627 0.1005 0.22943 0.0
C1515 C 0.80042 0.11045 0.23001 0.0
C1516 C 0.78035 0.09821 0.21837 0.0
C1517 C 0.84731 0.11369 0.2422 0.0
C1518 C 0.84205 0.12004 0.26384 0.0
C1519 C 0.87204 0.12066 0.23318 0.0
C1520 C 0.87813 0.11676 0.20998 0.0
C1521 C 0.86184 0.12782 0.19398 0.0
C1522 C 0.86762 0.12401 0.17214 0.0
C1523 C 0.88978 0.10937 0.1661 0.0
C1524 C 0.90624 0.09857 0.18189 0.0
C1525 C 0.90052 0.10228 0.20376 0.0
H1526 H 0.89423 0.10645 0.14918 0.0
H1527 H 0.83071 0.1665 0.3553 0.0
H1528 H 0.457 0.73733 0.24702 0.0
H1529 H 0.43916 0.70153 0.22547 0.0
H1530 H 0.46125 0.64577 0.27496 0.0
H1531 H 0.47789 0.682 0.29726 0.0
H1532 H 0.44756 0.65822 0.2068 0.0
H1533 H 0.41163 0.60398 0.28433 0.0
H1534 H 0.40196 0.61474 0.32241 0.0
H1535 H 0.38757 0.69549 0.30498 0.0
H1536 H 0.39665 0.68511 0.26692 0.0
H1537 H 0.36875 0.55432 0.16614 0.0
H1538 H 0.40285 0.57924 0.18542 0.0
H1539 H 0.34245 0.61675 0.22396 0.0
H1540 H 0.30885 0.59016 0.20595 0.0
H1541 H 0.37941 0.60966 0.24832 0.0
H1542 H 0.37497 0.6473 0.17806 0.0
H1543 H 0.37538 0.64819 0.13826 0.0
H1544 H 0.45497 0.61911 0.13804 0.0
H1545 H 0.45491 0.61781 0.17788 0.0
C1546 C 0.45875 0.71738 0.25312 0.0
C1547 C 0.46825 0.7125 0.27405 0.0
C1548 C 0.4486 0.69684 0.24069 0.0
C1549 C 0.44815 0.67102 0.24885 0.0
C1550 C 0.46075 0.66566 0.26859 0.0
C1551 C 0.47038 0.68634 0.28128 0.0
C1552 C 0.43111 0.65098 0.2383 0.0
C1553 C 0.43286 0.64734 0.21589 0.0
C1554 C 0.4111 0.63766 0.24997 0.0
C1555 C 0.40522 0.64383 0.27286 0.0
C1556 C 0.40633 0.624 0.28867 0.0
C1557 C 0.40092 0.63003 0.31025 0.0
C1558 C 0.39424 0.65581 0.31617 0.0
C1559 C 0.3928 0.67556 0.30048 0.0
C1560 C 0.39807 0.66961 0.2789 0.0
C1561 C 0.36299 0.56774 0.17891 0.0
C1562 C 0.3364 0.57045 0.1847 0.0
C1563 C 0.38238 0.58212 0.18979 0.0
C1564 C 0.3753 0.60031 0.20594 0.0
C1565 C 0.34858 0.60276 0.21172 0.0
C1566 C 0.32935 0.58767 0.2014 0.0
C1567 C 0.39545 0.61716 0.21665 0.0
C1568 C 0.39439 0.62009 0.23917 0.0
C1569 C 0.41468 0.63143 0.20482 0.0
C1570 C 0.41482 0.63213 0.1809 0.0
C1571 C 0.39249 0.64091 0.1695 0.0
C1572 C 0.39267 0.64152 0.14695 0.0
C1573 C 0.41515 0.63361 0.13562 0.0
C1574 C 0.43754 0.62517 0.14684 0.0
C1575 C 0.43746 0.6245 0.1694 0.0
H1576 H 0.41526 0.6341 0.11816 0.0
H1577 H 0.39012 0.66045 0.33288 0.0
H1578 H 0.75726 0.45973 0.74624 0.0
H1579 H 0.79028 0.43683 0.72461 0.0
H1580 H 0.849 0.45244 0.77342 0.0
H1581 H 0.81567 0.47432 0.79561 0.0
H1582 H 0.83548 0.44052 0.70576 0.0
H1583 H 0.88334 0.39693 0.78396 0.0
H1584 H 0.8704 0.38783 0.82165 0.0
H1585 H 0.78896 0.38475 0.80284 0.0
H1586 H 0.80141 0.39315 0.76501 0.0
H1587 H 0.94167 0.36061 0.67026 0.0
H1588 H 0.91386 0.3941 0.68753 0.0
H1589 H 0.873 0.3327 0.72257 0.0
H1590 H 0.90236 0.2998 0.70677 0.0
H1591 H 0.87719 0.36851 0.74791 0.0
H1592 H 0.84722 0.36771 0.6754 0.0
H1593 H 0.84997 0.36984 0.6357 0.0
H1594 H 0.87895 0.44931 0.63955 0.0
H1595 H 0.87667 0.44754 0.67932 0.0
C1596 C 0.77739 0.459 0.75209 0.0
C1597 C 0.78381 0.46835 0.7728 0.0
C1598 C 0.79628 0.44589 0.73967 0.0
C1599 C 0.82193 0.44224 0.74768 0.0
C1600 C 0.82913 0.45443 0.76719 0.0
C1601 C 0.81012 0.46708 0.7798 0.0
C1602 C 0.83987 0.42294 0.73719 0.0
C1603 C 0.84479 0.42486 0.71495 0.0
C1604 C 0.85093 0.40169 0.74897 0.0
C1605 C 0.84333 0.39607 0.77168 0.0
C1606 C 0.86269 0.39418 0.78785 0.0
C1607 C 0.85543 0.3891 0.80924 0.0
C1608 C 0.82887 0.3858 0.81464 0.0
C1609 C 0.80951 0.38735 0.79864 0.0
C1610 C 0.81667 0.39226 0.77723 0.0
C1611 C 0.9268 0.35449 0.68177 0.0
C1612 C 0.9241 0.32783 0.68736 0.0
C1613 C 0.91073 0.37354 0.69149 0.0
C1614 C 0.89089 0.36605 0.70618 0.0
C1615 C 0.8882 0.33921 0.7115 0.0
C1616 C 0.9049 0.32036 0.70243 0.0
C1617 C 0.87313 0.386 0.71631 0.0
C1618 C 0.86818 0.38422 0.73859 0.0
C1619 C 0.86058 0.40621 0.70424 0.0
C1620 C 0.86205 0.40738 0.68034 0.0
C1621 C 0.85437 0.38557 0.66778 0.0
C1622 C 0.85581 0.38672 0.64527 0.0
C1623 C 0.86471 0.40966 0.63511 0.0
C1624 C 0.87211 0.43153 0.64745 0.0
C1625 C 0.87073 0.43048 0.66997 0.0
H1626 H 0.86581 0.41052 0.61768 0.0
H1627 H 0.82327 0.38202 0.83121 0.0
H1628 H 0.04871 0.82241 0.3025 0.0
H1629 H 0.06366 0.85546 0.27683 0.0
H1630 H 0.04982 0.80117 0.22434 0.0
H1631 H 0.03574 0.76754 0.25018 0.0
H1632 H 0.09753 0.81738 0.22262 0.0
H1633 H 0.01579 0.86188 0.22933 0.0
H1634 H 0.97736 0.88171 0.24753 0.0
H1635 H 0.0279 0.93781 0.27894 0.0
H1636 H 0.06671 0.91809 0.26119 0.0
H1637 H 0.15385 0.912 0.15177 0.0
H1638 H 0.11864 0.88597 0.16841 0.0
H1639 H 0.13804 0.91885 0.23063 0.0
H1640 H 0.17349 0.9448 0.21415 0.0
H1641 H 0.08189 0.91399 0.22183 0.0
H1642 H 0.16329 0.86341 0.21953 0.0
H1643 H 0.20159 0.84339 0.20124 0.0
H1644 H 0.14969 0.7984 0.16067 0.0
H1645 H 0.11104 0.81853 0.17849 0.0
C1646 C 0.04806 0.81774 0.28544 0.0
C1647 C 0.04135 0.79229 0.27835 0.0
C1648 C 0.0565 0.83677 0.27071 0.0
C1649 C 0.05787 0.83088 0.24858 0.0
C1650 C 0.04904 0.80614 0.24133 0.0
C1651 C 0.04091 0.78697 0.25611 0.0
C1652 C 0.07223 0.84885 0.23374 0.0
C1653 C 0.09353 0.8384 0.22201 0.0
C1654 C 0.06751 0.87639 0.23325 0.0
C1655 C 0.04421 0.88838 0.24399 0.0
C1656 C 0.01875 0.87832 0.24024 0.0
C1657 C 0.99689 0.88957 0.25046 0.0
C1658 C 1.00019 0.91098 0.2644 0.0
C1659 C 0.02537 0.92122 0.26813 0.0
C1660 C 0.04731 0.91004 0.25796 0.0
C1661 C 0.15041 0.91393 0.16895 0.0
C1662 C 0.16652 0.93021 0.18174 0.0
C1663 C 0.13028 0.8991 0.17839 0.0
C1664 C 0.12586 0.90052 0.2007 0.0
C1665 C 0.14114 0.91764 0.21335 0.0
C1666 C 0.16147 0.93225 0.20396 0.0
C1667 C 0.10703 0.88238 0.2112 0.0
C1668 C 0.08519 0.89285 0.22212 0.0
C1669 C 0.11107 0.85481 0.21088 0.0
C1670 C 0.13429 0.8427 0.20016 0.0
C1671 C 0.16004 0.84945 0.20656 0.0
C1672 C 0.18181 0.83806 0.19631 0.0
C1673 C 0.17807 0.81966 0.1798 0.0
C1674 C 0.15255 0.81267 0.17346 0.0
C1675 C 0.13071 0.82407 0.18362 0.0
H1676 H 0.19494 0.81072 0.17201 0.0
H1677 H 0.98324 0.91966 0.2723 0.0
H1678 H 0.70667 0.09334 0.81364 0.0
H1679 H 0.66888 0.11313 0.79502 0.0
H1680 H 0.69191 0.07381 0.73606 0.0
H1681 H 0.73055 0.05567 0.7543 0.0
H1682 H 0.68027 0.1201 0.72659 0.0
H1683 H 0.63613 0.05475 0.76927 0.0
H1684 H 0.62401 0.03096 0.80255 0.0
H1685 H 0.59195 0.10225 0.82928 0.0
H1686 H 0.60419 0.12655 0.79625 0.0
H1687 H 0.56884 0.15319 0.66684 0.0
H1688 H 0.59569 0.12329 0.68871 0.0
H1689 H 0.5856 0.17422 0.74388 0.0
H1690 H 0.55821 0.20384 0.72229 0.0
H1691 H 0.58882 0.12048 0.75514 0.0
H1692 H 0.63356 0.18418 0.7095 0.0
H1693 H 0.64255 0.2042 0.67418 0.0
H1694 H 0.67309 0.13044 0.6509 0.0
H1695 H 0.66343 0.10969 0.68604 0.0
C1696 C 0.70346 0.0889 0.79674 0.0
C1697 C 0.72139 0.07311 0.78531 0.0
C1698 C 0.68178 0.10001 0.78614 0.0
C1699 C 0.67722 0.09465 0.76417 0.0
C1700 C 0.69498 0.07835 0.75297 0.0
C1701 C 0.71702 0.06795 0.76338 0.0
C1702 C 0.65486 0.10704 0.75242 0.0
C1703 C 0.66023 0.11966 0.73272 0.0
C1704 C 0.6287 0.10705 0.76051 0.0
C1705 C 0.62126 0.0925 0.78036 0.0
C1706 C 0.62665 0.06539 0.7823 0.0
C1707 C 0.61973 0.05181 0.80111 0.0
C1708 C 0.60727 0.0651 0.81803 0.0
C1709 C 0.60163 0.09199 0.81616 0.0
C1710 C 0.60852 0.10567 0.79739 0.0
C1711 C 0.57188 0.15771 0.68374 0.0
C1712 C 0.56195 0.18111 0.69276 0.0
C1713 C 0.58708 0.14056 0.69623 0.0
C1714 C 0.59298 0.14684 0.71778 0.0
C1715 C 0.58131 0.16907 0.72727 0.0
C1716 C 0.56586 0.18609 0.71485 0.0
C1717 C 0.61435 0.13283 0.72931 0.0
C1718 C 0.60886 0.12038 0.74901 0.0
C1719 C 0.64036 0.13242 0.72105 0.0
C1720 C 0.64739 0.14528 0.70031 0.0
C1721 C 0.64188 0.17213 0.69678 0.0
C1722 C 0.64704 0.18359 0.67673 0.0
C1723 C 0.65819 0.16854 0.66018 0.0
C1724 C 0.66434 0.14203 0.66371 0.0
C1725 C 0.65899 0.1304 0.68368 0.0
H1726 H 0.66218 0.17735 0.64464 0.0
H1727 H 0.60193 0.05455 0.83258 0.0
H1728 H 0.77065 0.37018 0.15773 0.0
H1729 H 0.75842 0.32463 0.14897 0.0
H1730 H 0.7322 0.31298 0.21463 0.0
H1731 H 0.74565 0.35808 0.22347 0.0
H1732 H 0.76163 0.27464 0.20431 0.0
H1733 H 0.68897 0.3164 0.16987 0.0
H1734 H 0.66651 0.34819 0.14604 0.0
H1735 H 0.70545 0.31468 0.09093 0.0
H1736 H 0.7285 0.28293 0.11448 0.0
H1737 H 0.70593 0.14818 0.18329 0.0
H1738 H 0.70835 0.1953 0.19067 0.0
H1739 H 0.75409 0.20686 0.13283 0.0
H1740 H 0.75282 0.15967 0.12562 0.0
H1741 H 0.71195 0.24475 0.13982 0.0
H1742 H 0.78567 0.20384 0.17717 0.0
H1743 H 0.80731 0.17359 0.20286 0.0
H1744 H 0.7622 0.2066 0.25491 0.0
H1745 H 0.73996 0.23672 0.2295 0.0
C1746 C 0.76187 0.35789 0.17009 0.0
C1747 C 0.75922 0.36731 0.19125 0.0
C1748 C 0.75478 0.33196 0.16512 0.0
C1749 C 0.74422 0.31534 0.18112 0.0
C1750 C 0.74047 0.3253 0.20205 0.0
C1751 C 0.7481 0.35099 0.2071 0.0
C1752 C 0.73909 0.28705 0.17658 0.0
C1753 C 0.75028 0.26819 0.19043 0.0
C1754 C 0.7247 0.27853 0.15826 0.0
C1755 C 0.71063 0.29739 0.14398 0.0
C1756 C 0.69289 0.3159 0.15269 0.0
C1757 C 0.68004 0.33392 0.13922 0.0
C1758 C 0.68459 0.33349 0.11698 0.0
C1759 C 0.70196 0.315 0.10816 0.0
C1760 C 0.7149 0.29696 0.12156 0.0
C1761 C 0.71672 0.16053 0.17214 0.0
C1762 C 0.72953 0.14975 0.15398 0.0
C1763 C 0.71788 0.18756 0.17636 0.0
C1764 C 0.73155 0.20441 0.16237 0.0
C1765 C 0.7434 0.19407 0.14378 0.0
C1766 C 0.74256 0.167 0.13968 0.0
C1767 C 0.73444 0.23268 0.16758 0.0
C1768 C 0.72295 0.25141 0.15381 0.0
C1769 C 0.74809 0.24113 0.18624 0.0
C1770 C 0.76091 0.22235 0.20137 0.0
C1771 C 0.78009 0.2044 0.19404 0.0
C1772 C 0.79255 0.18733 0.20857 0.0
C1773 C 0.78616 0.1882 0.2305 0.0
C1774 C 0.76715 0.20597 0.23792 0.0
C1775 C 0.75461 0.22302 0.22347 0.0
H1776 H 0.79604 0.17525 0.24178 0.0
H1777 H 0.67463 0.34746 0.10659 0.0
H1778 H 0.33791 0.68907 0.67424 0.0
H1779 H 0.2943 0.7033 0.66229 0.0
H1780 H 0.32264 0.78325 0.65647 0.0
H1781 H 0.3665 0.76897 0.66868 0.0
H1782 H 0.2792 0.77914 0.68217 0.0
H1783 H 0.30375 0.75073 0.61192 0.0
H1784 H 0.32205 0.72066 0.58448 0.0
H1785 H 0.26239 0.66334 0.59932 0.0
H1786 H 0.24396 0.69288 0.62711 0.0
H1787 H 0.15376 0.82186 0.66074 0.0
H1788 H 0.19855 0.81164 0.64858 0.0
H1789 H 0.18407 0.72888 0.65977 0.0
H1790 H 0.13883 0.73924 0.67137 0.0
H1791 H 0.22186 0.73896 0.62609 0.0
H1792 H 0.20391 0.76273 0.70046 0.0
H1793 H 0.18445 0.7916 0.72828 0.0
H1794 H 0.23226 0.85615 0.70629 0.0
H1795 H 0.25164 0.82775 0.67805 0.0
C1796 C 0.33491 0.70962 0.67014 0.0
C1797 C 0.35541 0.72801 0.67261 0.0
C1798 C 0.31008 0.71767 0.66308 0.0
C1799 C 0.30528 0.7443 0.65837 0.0
C1800 C 0.32603 0.76257 0.65992 0.0
C1801 C 0.35103 0.75443 0.66681 0.0
C1802 C 0.27787 0.75325 0.65459 0.0
C1803 C 0.26689 0.7709 0.66952 0.0
C1804 C 0.26162 0.74185 0.63849 0.0
C1805 C 0.27255 0.724 0.62172 0.0
C1806 C 0.29464 0.73163 0.60946 0.0
C1807 C 0.30502 0.71469 0.59382 0.0
C1808 C 0.29341 0.69009 0.59018 0.0
C1809 C 0.27136 0.6824 0.60216 0.0
C1810 C 0.26091 0.69926 0.61784 0.0
C1811 C 0.1599 0.80144 0.65967 0.0
C1812 C 0.14326 0.78129 0.6671 0.0
C1813 C 0.18537 0.7956 0.65275 0.0
C1814 C 0.19471 0.76959 0.65371 0.0
C1815 C 0.17717 0.74908 0.65892 0.0
C1816 C 0.15144 0.75494 0.66555 0.0
C1817 C 0.22346 0.76465 0.6537 0.0
C1818 C 0.23449 0.74764 0.63831 0.0
C1819 C 0.23986 0.77638 0.66952 0.0
C1820 C 0.22901 0.79321 0.68702 0.0
C1821 C 0.21018 0.78312 0.70151 0.0
C1822 C 0.19916 0.79939 0.71734 0.0
C1823 C 0.20706 0.82572 0.71902 0.0
C1824 C 0.22612 0.83577 0.70494 0.0
C1825 C 0.23714 0.81959 0.68902 0.0
H1826 H 0.19845 0.83831 0.73125 0.0
H1827 H 0.30148 0.677 0.57806 0.0
H1828 H 0.7472 0.13819 0.85368 0.0
H1829 H 0.73051 0.18321 0.85993 0.0
H1830 H 0.79213 0.21423 0.81913 0.0
H1831 H 0.80854 0.17011 0.81291 0.0
H1832 H 0.78822 0.24272 0.85482 0.0
H1833 H 0.72913 0.20482 0.80091 0.0
H1834 H 0.69646 0.1722 0.78824 0.0
H1835 H 0.644 0.19447 0.83951 0.0
H1836 H 0.67656 0.22697 0.85266 0.0
H1837 H 0.75365 0.34849 0.78964 0.0
H1838 H 0.75673 0.30327 0.80286 0.0
H1839 H 0.71158 0.32439 0.85924 0.0
H1840 H 0.70851 0.3702 0.846 0.0
H1841 H 0.70009 0.2705 0.82841 0.0
H1842 H 0.76114 0.31657 0.87642 0.0
H1843 H 0.79552 0.35009 0.88296 0.0
H1844 H 0.846 0.31242 0.83663 0.0
H1845 H 0.81178 0.27886 0.82963 0.0
C1846 C 0.75709 0.1547 0.84611 0.0
C1847 C 0.77942 0.15059 0.83305 0.0
C1848 C 0.74761 0.18034 0.84973 0.0
C1849 C 0.76025 0.20208 0.84014 0.0
C1850 C 0.78235 0.19784 0.82703 0.0
C1851 C 0.79178 0.17249 0.82351 0.0
C1852 C 0.75056 0.22947 0.84279 0.0
C1853 C 0.76875 0.24872 0.84945 0.0
C1854 C 0.72507 0.23731 0.83599 0.0
C1855 C 0.7054 0.21804 0.82794 0.0
C1856 C 0.7107 0.20261 0.80957 0.0
C1857 C 0.6922 0.18417 0.80229 0.0
C1858 C 0.66821 0.18119 0.81311 0.0
C1859 C 0.66262 0.19674 0.83118 0.0
C1860 C 0.68109 0.21517 0.83856 0.0
C1861 C 0.74418 0.3435 0.80475 0.0
C1862 C 0.73086 0.36279 0.81682 0.0
C1863 C 0.74593 0.31771 0.81227 0.0
C1864 C 0.73422 0.31061 0.83189 0.0
C1865 C 0.72058 0.32962 0.84397 0.0
C1866 C 0.71909 0.3557 0.83654 0.0
C1867 C 0.73805 0.28347 0.83985 0.0
C1868 C 0.71897 0.26433 0.83494 0.0
C1869 C 0.76293 0.27562 0.84779 0.0
C1870 C 0.78389 0.29524 0.8525 0.0
C1871 C 0.77954 0.31549 0.86759 0.0
C1872 C 0.799 0.33448 0.87138 0.0
C1873 C 0.82294 0.33335 0.86024 0.0
C1874 C 0.82748 0.31321 0.8453 0.0
C1875 C 0.80809 0.29417 0.84145 0.0
H1876 H 0.83797 0.3481 0.86317 0.0
H1877 H 0.65392 0.16689 0.80746 0.0
H1878 H 0.34349 0.78521 0.32053 0.0
H1879 H 0.30117 0.77484 0.33696 0.0
H1880 H 0.33136 0.69935 0.35768 0.0
H1881 H 0.37443 0.71015 0.34131 0.0
H1882 H 0.28376 0.69668 0.33373 0.0
H1883 H 0.31349 0.73857 0.39643 0.0
H1884 H 0.33679 0.77151 0.41864 0.0
H1885 H 0.28467 0.83212 0.39573 0.0
H1886 H 0.26132 0.79969 0.37309 0.0
H1887 H 0.14274 0.70376 0.34845 0.0
H1888 H 0.1877 0.69696 0.36259 0.0
H1889 H 0.21133 0.77182 0.33565 0.0
H1890 H 0.16686 0.77824 0.32125 0.0
H1891 H 0.23296 0.76045 0.37808 0.0
H1892 H 0.2194 0.72026 0.30578 0.0
H1893 H 0.19719 0.68851 0.28165 0.0
H1894 H 0.21987 0.62473 0.32333 0.0
H1895 H 0.24196 0.65622 0.34784 0.0
C1896 C 0.34117 0.76651 0.32873 0.0
C1897 C 0.36189 0.74821 0.32925 0.0
C1898 C 0.31712 0.7607 0.33835 0.0
C1899 C 0.31318 0.73639 0.34866 0.0
C1900 C 0.33411 0.71828 0.34989 0.0
C1901 C 0.35856 0.72438 0.34053 0.0
C1902 C 0.28616 0.72957 0.3557 0.0
C1903 C 0.27275 0.70987 0.34418 0.0
C1904 C 0.27184 0.74682 0.3693 0.0
C1905 C 0.28556 0.76658 0.38307 0.0
C1906 C 0.30703 0.75893 0.39605 0.0
C1907 C 0.32027 0.77753 0.40872 0.0
C1908 C 0.31219 0.80388 0.40862 0.0
C1909 C 0.29086 0.81168 0.39584 0.0
C1910 C 0.27756 0.79316 0.38312 0.0
C1911 C 0.15751 0.71892 0.34605 0.0
C1912 C 0.15165 0.74144 0.33373 0.0
C1913 C 0.18304 0.71505 0.35409 0.0
C1914 C 0.20272 0.73394 0.35019 0.0
C1915 C 0.19634 0.75713 0.33898 0.0
C1916 C 0.1711 0.76071 0.33063 0.0
C1917 C 0.23074 0.72871 0.35511 0.0
C1918 C 0.24417 0.74624 0.36874 0.0
C1919 C 0.24511 0.70944 0.34352 0.0
C1920 C 0.232 0.69057 0.32875 0.0
C1921 C 0.21946 0.69948 0.30987 0.0
C1922 C 0.20693 0.68154 0.29611 0.0
C1923 C 0.20703 0.65462 0.30099 0.0
C1924 C 0.21974 0.64559 0.31961 0.0
C1925 C 0.23226 0.66347 0.33343 0.0
H1926 H 0.19734 0.64076 0.29032 0.0
H1927 H 0.32247 0.81825 0.41843 0.0
H1928 H 0.20717 0.63784 0.84891 0.0
H1929 H 0.20158 0.68522 0.85611 0.0
H1930 H 0.28507 0.69711 0.84685 0.0
H1931 H 0.29073 0.65011 0.84 0.0
H1932 H 0.26813 0.72406 0.8813 0.0
H1933 H 0.24213 0.71723 0.80555 0.0
H1934 H 0.21644 0.70196 0.7741 0.0
H1935 H 0.1443 0.72118 0.80681 0.0
H1936 H 0.16968 0.73732 0.83824 0.0
H1937 H 0.28511 0.85803 0.85257 0.0
H1938 H 0.28276 0.81014 0.85705 0.0
H1939 H 0.19822 0.81463 0.86277 0.0
H1940 H 0.20035 0.86247 0.85812 0.0
H1941 H 0.21035 0.77872 0.83472 0.0
H1942 H 0.24019 0.79701 0.90637 0.0
H1943 H 0.26865 0.81724 0.9341 0.0
H1944 H 0.33598 0.77684 0.9081 0.0
H1945 H 0.30799 0.75657 0.88009 0.0
C1946 C 0.22433 0.65054 0.84873 0.0
C1947 C 0.24938 0.64024 0.84375 0.0
C1948 C 0.22109 0.67764 0.85261 0.0
C1949 C 0.24289 0.6948 0.85183 0.0
C1950 C 0.26795 0.68434 0.84751 0.0
C1951 C 0.27113 0.65745 0.84345 0.0
C1952 C 0.23996 0.72372 0.85528 0.0
C1953 C 0.25552 0.73606 0.87111 0.0
C1954 C 0.22307 0.73935 0.84239 0.0
C1955 C 0.20774 0.72814 0.82427 0.0
C1956 C 0.22079 0.71794 0.80609 0.0
C1957 C 0.2063 0.70933 0.78824 0.0
C1958 C 0.17876 0.71047 0.78852 0.0
C1959 C 0.16564 0.72029 0.80665 0.0
C1960 C 0.18005 0.72932 0.82442 0.0
C1961 C 0.26609 0.84891 0.85527 0.0
C1962 C 0.2429 0.86406 0.8548 0.0
C1963 C 0.26478 0.8215 0.85785 0.0
C1964 C 0.24039 0.80868 0.86033 0.0
C1965 C 0.2173 0.82395 0.86078 0.0
C1966 C 0.21855 0.85131 0.85807 0.0
C1967 C 0.23888 0.77929 0.86053 0.0
C1968 C 0.2225 0.7668 0.84535 0.0
C1969 C 0.25518 0.76359 0.87396 0.0
C1970 C 0.27199 0.77537 0.89105 0.0
C1971 C 0.26109 0.79252 0.90651 0.0
C1972 C 0.27713 0.80398 0.92229 0.0
C1973 C 0.30411 0.79835 0.92285 0.0
C1974 C 0.31507 0.78116 0.90768 0.0
C1975 C 0.29911 0.76961 0.89188 0.0
H1976 H 0.31651 0.80728 0.93505 0.0
H1977 H 0.16762 0.70388 0.77464 0.0
H1978 H 0.86959 0.21912 0.36011 0.0
H1979 H 0.82156 0.21648 0.36499 0.0
H1980 H 0.81621 0.30121 0.36103 0.0
H1981 H 0.86402 0.30389 0.35579 0.0
H1982 H 0.78315 0.27824 0.39344 0.0
H1983 H 0.80503 0.27006 0.31883 0.0
H1984 H 0.82498 0.25249 0.28556 0.0
H1985 H 0.78654 0.17811 0.29592 0.0
H1986 H 0.76707 0.19492 0.32973 0.0
H1987 H 0.64724 0.29406 0.36048 0.0
H1988 H 0.69505 0.29594 0.3669 0.0
H1989 H 0.69943 0.2112 0.36118 0.0
H1990 H 0.65196 0.20943 0.35454 0.0
H1991 H 0.73333 0.234 0.33483 0.0
H1992 H 0.71047 0.24329 0.40967 0.0
H1993 H 0.68785 0.26324 0.4409 0.0
H1994 H 0.72593 0.33729 0.42819 0.0
H1995 H 0.74852 0.31788 0.39669 0.0
C1996 C 0.85822 0.23717 0.36067 0.0
C1997 C 0.87049 0.26168 0.35726 0.0
C1998 C 0.8308 0.23564 0.36335 0.0
C1999 C 0.81532 0.25864 0.36308 0.0
C2000 C 0.82776 0.28323 0.36117 0.0
C2001 C 0.85504 0.28472 0.35809 0.0
C2002 C 0.78607 0.25706 0.3634 0.0
C2003 C 0.7722 0.26866 0.3806 0.0
C2004 C 0.77185 0.24439 0.34669 0.0
C2005 C 0.78493 0.23365 0.32708 0.0
C2006 C 0.80127 0.24977 0.31432 0.0
C2007 C 0.81239 0.23999 0.29528 0.0
C2008 C 0.80699 0.21422 0.28863 0.0
C2009 C 0.79063 0.1981 0.30108 0.0
C2010 C 0.77969 0.2077 0.32026 0.0
C2011 C 0.65836 0.27585 0.36123 0.0
C2012 C 0.64599 0.2516 0.35691 0.0
C2013 C 0.68568 0.2769 0.36484 0.0
C2014 C 0.70092 0.25368 0.36445 0.0
C2015 C 0.68819 0.22939 0.3614 0.0
C2016 C 0.66108 0.22837 0.35765 0.0
C2017 C 0.73028 0.25466 0.3651 0.0
C2018 C 0.74423 0.24317 0.34791 0.0
C2019 C 0.74448 0.2675 0.38173 0.0
C2020 C 0.731 0.27919 0.4007 0.0
C2021 C 0.71387 0.26389 0.41343 0.0
C2022 C 0.70108 0.27508 0.4312 0.0
C2023 C 0.7054 0.30153 0.43649 0.0
C2024 C 0.72258 0.31682 0.42406 0.0
C2025 C 0.7354 0.30572 0.40626 0.0
H2026 H 0.69548 0.31016 0.45026 0.0
H2027 H 0.81554 0.20672 0.27384 0.0
H2028 H 0.29503 0.63921 0.13089 0.0
H2029 H 0.29661 0.68669 0.12309 0.0
H2030 H 0.21397 0.69331 0.13874 0.0
H2031 H 0.21228 0.64599 0.14618 0.0
H2032 H 0.2282 0.72619 0.10468 0.0
H2033 H 0.25911 0.70449 0.17716 0.0
H2034 H 0.28827 0.68031 0.20218 0.0
H2035 H 0.35627 0.7147 0.1719 0.0
H2036 H 0.32746 0.73889 0.14655 0.0
H2037 H 0.2122 0.85841 0.14146 0.0
H2038 H 0.21319 0.81092 0.13394 0.0
H2039 H 0.29831 0.8133 0.13186 0.0
H2040 H 0.29712 0.86044 0.1403 0.0
H2041 H 0.28593 0.77524 0.15537 0.0
H2042 H 0.25615 0.8014 0.08552 0.0
H2043 H 0.2281 0.82454 0.05907 0.0
H2044 H 0.16034 0.78185 0.08164 0.0
H2045 H 0.18791 0.75871 0.10843 0.0
C2046 C 0.27708 0.65069 0.13206 0.0
C2047 C 0.2536 0.63897 0.13938 0.0
C2048 C 0.27802 0.67783 0.12774 0.0
C2049 C 0.25547 0.69364 0.13063 0.0
C2050 C 0.23161 0.68158 0.13644 0.0
C2051 C 0.23072 0.65457 0.14085 0.0
C2052 C 0.25713 0.72293 0.12996 0.0
C2053 C 0.24076 0.73701 0.11575 0.0
C2054 C 0.27392 0.73701 0.1441 0.0
C2055 C 0.29116 0.72331 0.15987 0.0
C2056 C 0.28028 0.70685 0.17583 0.0
C2057 C 0.29674 0.69314 0.19005 0.0
C2058 C 0.32411 0.69592 0.1886 0.0
C2059 C 0.33506 0.71256 0.173 0.0
C2060 C 0.31868 0.7263 0.15872 0.0
C2061 C 0.23101 0.8488 0.13884 0.0
C2062 C 0.25459 0.86297 0.14135 0.0
C2063 C 0.23164 0.82164 0.13454 0.0
C2064 C 0.25587 0.80829 0.1322 0.0
C2065 C 0.27936 0.8229 0.13371 0.0
C2066 C 0.27871 0.84986 0.1384 0.0
C2067 C 0.25692 0.77893 0.13 0.0
C2068 C 0.27367 0.7647 0.14389 0.0
C2069 C 0.24071 0.76479 0.11535 0.0
C2070 C 0.22409 0.77845 0.09909 0.0
C2071 C 0.23524 0.79705 0.08493 0.0
C2072 C 0.21943 0.81016 0.06986 0.0
C2073 C 0.19245 0.8047 0.0687 0.0
C2074 C 0.18124 0.78607 0.08256 0.0
C2075 C 0.19696 0.77292 0.09767 0.0
H2076 H 0.18024 0.81489 0.05704 0.0
H2077 H 0.33683 0.68521 0.19956 0.0
H2078 H 0.63517 0.21916 0.63525 0.0
H2079 H 0.68324 0.21642 0.63005 0.0
H2080 H 0.69089 0.29822 0.64777 0.0
H2081 H 0.64325 0.30106 0.65311 0.0
H2082 H 0.72353 0.28359 0.61304 0.0
H2083 H 0.70226 0.25673 0.68471 0.0
H2084 H 0.68441 0.23207 0.71571 0.0
H2085 H 0.71908 0.16066 0.69158 0.0
H2086 H 0.73674 0.18481 0.66017 0.0
H2087 H 0.85801 0.29036 0.65018 0.0
H2088 H 0.81033 0.29334 0.64389 0.0
H2089 H 0.80715 0.20925 0.63341 0.0
H2090 H 0.85459 0.20624 0.63975 0.0
H2091 H 0.772 0.22398 0.66257 0.0
H2092 H 0.79688 0.25398 0.59189 0.0
H2093 H 0.82043 0.28224 0.56585 0.0
H2094 H 0.78161 0.35069 0.59152 0.0
H2095 H 0.75806 0.32287 0.6179 0.0
C2096 C 0.64707 0.23662 0.63772 0.0
C2097 C 0.63546 0.26011 0.64517 0.0
C2098 C 0.6745 0.23497 0.63491 0.0
C2099 C 0.69065 0.25694 0.63902 0.0
C2100 C 0.67886 0.28094 0.64476 0.0
C2101 C 0.65162 0.28248 0.6479 0.0
C2102 C 0.71989 0.25475 0.6384 0.0
C2103 C 0.73417 0.27058 0.62388 0.0
C2104 C 0.73377 0.23768 0.65247 0.0
C2105 C 0.72053 0.22255 0.6699 0.0
C2106 C 0.70559 0.23567 0.68573 0.0
C2107 C 0.69573 0.22183 0.7035 0.0
C2108 C 0.70087 0.19488 0.70573 0.0
C2109 C 0.71534 0.18159 0.68993 0.0
C2110 C 0.72517 0.19532 0.67209 0.0
C2111 C 0.84722 0.27264 0.64604 0.0
C2112 C 0.86002 0.24803 0.64565 0.0
C2113 C 0.81995 0.27434 0.64245 0.0
C2114 C 0.80508 0.2515 0.63814 0.0
C2115 C 0.81812 0.22713 0.63681 0.0
C2116 C 0.84523 0.22541 0.6405 0.0
C2117 C 0.77574 0.25244 0.63699 0.0
C2118 C 0.7614 0.23653 0.65133 0.0
C2119 C 0.76191 0.26961 0.62296 0.0
C2120 C 0.77586 0.28635 0.60698 0.0
C2121 C 0.7935 0.27508 0.59208 0.0
C2122 C 0.80682 0.29102 0.57724 0.0
C2123 C 0.80256 0.31825 0.57706 0.0
C2124 C 0.7849 0.32959 0.59168 0.0
C2125 C 0.77153 0.31374 0.60656 0.0
H2126 H 0.81291 0.33056 0.56557 0.0
H2127 H 0.69343 0.18425 0.71961 0.0
H2128 H 0.79744 0.05327 0.91703 0.0
H2129 H 0.79183 0.04432 0.95542 0.0
H2130 H 0.78542 0.96097 0.94194 0.0
H2131 H 0.79 0.97012 0.90327 0.0
H2132 H 0.74831 0.97341 0.96747 0.0
H2133 H 0.84013 0.98885 0.96951 0.0
H2134 H 0.88243 0.0111 0.9622 0.0
H2135 H 0.85603 0.07941 0.99703 0.0
H2136 H 0.81341 0.05773 0.00429 0.0
H2137 H 0.75344 0.96021 0.08706 0.0
H2138 H 0.76721 0.95592 0.04907 0.0
H2139 H 0.74111 0.03545 0.03677 0.0
H2140 H 0.72687 0.03967 0.07431 0.0
H2141 H 0.79964 0.01663 0.02576 0.0
H2142 H 0.70429 1.00022 0.01692 0.0
H2143 H 0.66378 0.97507 0.02485 0.0
H2144 H 0.70142 0.9037 0.00372 0.0
H2145 H 0.7423 0.92843 0.99596 0.0
C2146 C 0.79543 0.033 0.92232 0.0
C2147 C 0.79424 0.01237 0.90725 0.0
C2148 C 0.7923 0.02785 0.9443 0.0
C2149 C 0.78855 0.00189 0.9517 0.0
C2150 C 0.78828 0.98115 0.93666 0.0
C2151 C 0.79097 0.98636 0.91461 0.0
C2152 C 0.78272 0.99689 0.97486 0.0
C2153 C 0.75996 0.9824 0.98018 0.0
C2154 C 0.79782 0.00851 0.99161 0.0
C2155 C 0.82348 0.02168 0.98734 0.0
C2156 C 0.84326 0.00868 0.97549 0.0
C2157 C 0.86732 0.02119 0.97137 0.0
C2158 C 0.8719 0.04667 0.97912 0.0
C2159 C 0.85245 0.05967 0.99104 0.0
C2160 C 0.82835 0.04726 0.99519 0.0
C2161 C 0.75028 0.97654 0.07609 0.0
C2162 C 0.73886 1.00016 0.08349 0.0
C2163 C 0.75817 0.9741 0.05452 0.0
C2164 C 0.75516 0.99542 0.0403 0.0
C2165 C 0.74349 0.01882 0.04759 0.0
C2166 C 0.73517 0.02109 0.06894 0.0
C2167 C 0.76504 0.99404 0.01794 0.0
C2168 C 0.78852 0.00726 0.01291 0.0
C2169 C 0.75098 0.98085 0.00155 0.0
C2170 C 0.72642 0.96608 0.00617 0.0
C2171 C 0.70401 0.97912 0.01421 0.0
C2172 C 0.68097 0.96496 0.01861 0.0
C2173 C 0.68006 0.93778 0.01487 0.0
C2174 C 0.70217 0.92473 0.00666 0.0
C2175 C 0.72527 0.93881 0.00225 0.0
H2176 H 0.66219 0.92685 0.01828 0.0
H2177 H 0.89054 0.05632 0.97591 0.0
H2178 H 0.40793 0.7655 0.4104 0.0
H2179 H 0.40323 0.75538 0.44899 0.0
H2180 H 0.48738 0.76406 0.45722 0.0
H2181 H 0.49207 0.7731 0.41866 0.0
H2182 H 0.4723 0.72002 0.47428 0.0
H2183 H 0.44024 0.80989 0.47706 0.0
H2184 H 0.41109 0.84668 0.46655 0.0
H2185 H 0.34341 0.8024 0.48714 0.0
H2186 H 0.37216 0.76522 0.49756 0.0
H2187 H 0.49093 0.73535 0.58591 0.0
H2188 H 0.48605 0.74205 0.54703 0.0
H2189 H 0.40569 0.71436 0.55038 0.0
H2190 H 0.4106 0.70742 0.58953 0.0
H2191 H 0.4129 0.76329 0.52714 0.0
H2192 H 0.44663 0.67533 0.528 0.0
H2193 H 0.47666 0.63948 0.53894 0.0
H2194 H 0.54226 0.68138 0.51161 0.0
H2195 H 0.51268 0.71769 0.50079 0.0
C2196 C 0.42525 0.7658 0.42065 0.0
C2197 C 0.45034 0.77012 0.41175 0.0
C2198 C 0.42259 0.76001 0.44265 0.0
C2199 C 0.44497 0.75895 0.45606 0.0
C2200 C 0.46986 0.76455 0.44721 0.0
C2201 C 0.47254 0.7699 0.42526 0.0
C2202 C 0.44305 0.75038 0.47894 0.0
C2203 C 0.45947 0.72971 0.48584 0.0
C2204 C 0.42557 0.76224 0.49391 0.0
C2205 C 0.40832 0.78468 0.48787 0.0
C2206 C 0.41913 0.80794 0.47921 0.0
C2207 C 0.40268 0.82887 0.4733 0.0
C2208 C 0.37541 0.82685 0.47611 0.0
C2209 C 0.36453 0.80392 0.48493 0.0
C2210 C 0.38089 0.78293 0.49087 0.0
C2211 C 0.47231 0.73046 0.5783 0.0
C2212 C 0.45116 0.7208 0.59061 0.0
C2213 C 0.46954 0.73427 0.55614 0.0
C2214 C 0.44553 0.72865 0.54587 0.0
C2215 C 0.42437 0.71878 0.55806 0.0
C2216 C 0.42725 0.71462 0.58029 0.0
C2217 C 0.44281 0.73368 0.52244 0.0
C2218 C 0.42548 0.75352 0.51545 0.0
C2219 C 0.45958 0.72121 0.50736 0.0
C2220 C 0.47744 0.69932 0.51371 0.0
C2221 C 0.46749 0.677 0.52446 0.0
C2222 C 0.48443 0.65658 0.53062 0.0
C2223 C 0.51136 0.65817 0.526 0.0
C2224 C 0.5214 0.68017 0.51518 0.0
C2225 C 0.50455 0.70067 0.50901 0.0
H2226 H 0.52444 0.64234 0.53078 0.0
H2227 H 0.36271 0.84306 0.4715 0.0
H2228 H 0.7702 0.42952 0.08963 0.0
H2229 H 0.76345 0.43038 0.05044 0.0
H2230 H 0.77818 0.51418 0.04989 0.0
H2231 H 0.78546 0.5133 0.08914 0.0
H2232 H 0.72939 0.49589 0.02852 0.0
H2233 H 0.82304 0.48006 0.02981 0.0
H2234 H 0.86351 0.45689 0.04112 0.0
H2235 H 0.83412 0.38476 0.01384 0.0
H2236 H 0.79327 0.40743 0.00266 0.0
H2237 H 0.7284 0.51004 0.91419 0.0
H2238 H 0.73771 0.51202 0.95292 0.0
H2239 H 0.74759 0.42741 0.9542 0.0
H2240 H 0.73937 0.42563 0.9153 0.0
H2241 H 0.78519 0.44807 0.97565 0.0
H2242 H 0.69165 0.46075 0.97578 0.0
H2243 H 0.64932 0.48121 0.96556 0.0
H2244 H 0.67547 0.55547 0.99115 0.0
H2245 H 0.71812 0.53553 0.00128 0.0
C2246 C 0.77231 0.44803 0.08107 0.0
C2247 C 0.77843 0.47132 0.09228 0.0
C2248 C 0.76847 0.44851 0.05875 0.0
C2249 C 0.77033 0.47234 0.04736 0.0
C2250 C 0.7767 0.49561 0.05847 0.0
C2251 C 0.78103 0.49506 0.08077 0.0
C2252 C 0.76464 0.47294 0.02394 0.0
C2253 C 0.74177 0.48584 0.01684 0.0
C2254 C 0.78038 0.45904 0.00896 0.0
C2255 C 0.80498 0.4454 0.01558 0.0
C2256 C 0.82509 0.4592 0.0264 0.0
C2257 C 0.84813 0.44617 0.03275 0.0
C2258 C 0.85136 0.41935 0.02825 0.0
C2259 C 0.83158 0.40553 0.01734 0.0
C2260 C 0.80849 0.41847 0.01097 0.0
C2261 C 0.73219 0.49187 0.92286 0.0
C2262 C 0.73307 0.46767 0.91185 0.0
C2263 C 0.73748 0.49299 0.945 0.0
C2264 C 0.7431 0.46983 0.95662 0.0
C2265 C 0.74341 0.44557 0.94563 0.0
C2266 C 0.7386 0.44452 0.92345 0.0
C2267 C 0.74966 0.4709 0.98002 0.0
C2268 C 0.77275 0.45827 0.9872 0.0
C2269 C 0.73381 0.48465 0.99514 0.0
C2270 C 0.70819 0.49671 0.98908 0.0
C2271 C 0.68846 0.48149 0.97908 0.0
C2272 C 0.66439 0.49299 0.97333 0.0
C2273 C 0.65974 0.51964 0.97765 0.0
C2274 C 0.67912 0.53484 0.98778 0.0
C2275 C 0.70323 0.52344 0.99355 0.0
H2276 H 0.6411 0.5285 0.97319 0.0
H2277 H 0.8692 0.4093 0.03317 0.0
H2278 H 0.00458 0.73189 0.42167 0.0
H2279 H 0.00267 0.7416 0.46043 0.0
H2280 H 0.08439 0.76529 0.45925 0.0
H2281 H 0.0865 0.7553 0.42067 0.0
H2282 H 0.07234 0.73615 0.49526 0.0
H2283 H 0.0375 0.8111 0.45691 0.0
H2284 H 0.00789 0.83361 0.43125 0.0
H2285 H 0.94057 0.80834 0.46788 0.0
H2286 H 0.96979 0.78534 0.49359 0.0
H2287 H 0.07688 0.80422 0.59427 0.0
H2288 H 0.07882 0.79633 0.55536 0.0
H2289 H 0.99579 0.77767 0.55497 0.0
H2290 H 0.99347 0.78656 0.59367 0.0
H2291 H 0.00861 0.80429 0.51959 0.0
H2292 H 0.04271 0.72906 0.55771 0.0
H2293 H 0.0718 0.7059 0.58338 0.0
H2294 H 0.13977 0.73064 0.54732 0.0
H2295 H 0.11108 0.75428 0.52159 0.0
C2296 C 0.02224 0.73868 0.4298 0.0
C2297 C 0.04563 0.74303 0.41817 0.0
C2298 C 0.02107 0.74443 0.45186 0.0
C2299 C 0.04329 0.75454 0.4626 0.0
C2300 C 0.067 0.75764 0.45124 0.0
C2301 C 0.06813 0.75205 0.4292 0.0
C2302 C 0.04164 0.76295 0.48547 0.0
C2303 C 0.05862 0.75125 0.50056 0.0
C2304 C 0.0234 0.78232 0.4924 0.0
C2305 C 0.00581 0.79628 0.47704 0.0
C2306 C 0.01637 0.81017 0.45939 0.0
C2307 C 0.99966 0.82304 0.44486 0.0
C2308 C 0.97236 0.82234 0.4479 0.0
C2309 C 0.96172 0.80883 0.46552 0.0
C2310 C 0.97834 0.79588 0.48009 0.0
C2311 C 0.05889 0.79914 0.58581 0.0
C2312 C 0.03506 0.79576 0.59709 0.0
C2313 C 0.0601 0.79431 0.56361 0.0
C2314 C 0.03758 0.7858 0.55236 0.0
C2315 C 0.01346 0.78399 0.56335 0.0
C2316 C 0.0122 0.78892 0.58549 0.0
C2317 C 0.03932 0.77749 0.52944 0.0
C2318 C 0.02235 0.7892 0.51432 0.0
C2319 C 0.05749 0.75802 0.5225 0.0
C2320 C 0.07476 0.74366 0.53785 0.0
C2321 C 0.06387 0.72972 0.55534 0.0
C2322 C 0.08028 0.71648 0.56989 0.0
C2323 C 0.10762 0.71686 0.56701 0.0
C2324 C 0.11859 0.73041 0.54954 0.0
C2325 C 0.10227 0.74371 0.53497 0.0
H2326 H 0.1203 0.7066 0.57829 0.0
H2327 H 0.95945 0.83233 0.43663 0.0
H2328 H 0.2347 0.03244 0.08738 0.0
H2329 H 0.23646 0.03044 0.04795 0.0
H2330 H 0.25786 0.94811 0.05142 0.0
H2331 H 0.25469 0.94974 0.09076 0.0
H2332 H 0.27042 0.02202 0.0187 0.0
H2333 H 0.23506 0.91379 0.00976 0.0
H2334 H 0.20743 0.88164 0.02935 0.0
H2335 H 0.16376 0.94496 0.05838 0.0
H2336 H 0.19092 0.97747 0.03879 0.0
H2337 H 0.2911 0.97941 0.91072 0.0
H2338 H 0.29017 0.98544 0.94985 0.0
H2339 H 0.20538 0.97762 0.94933 0.0
H2340 H 0.20638 0.97041 0.91035 0.0
H2341 H 0.22255 0.9506 0.98049 0.0
H2342 H 0.23913 0.0388 0.95737 0.0
H2343 H 0.26182 0.0745 0.93772 0.0
H2344 H 0.33343 0.05791 0.97217 0.0
H2345 H 0.31125 0.02186 0.99183 0.0
C2346 C 0.2399 0.01395 0.07971 0.0
C2347 C 0.2443 0.99118 0.09214 0.0
C2348 C 0.24094 0.01282 0.05714 0.0
C2349 C 0.24675 0.98898 0.04654 0.0
C2350 C 0.25252 0.96656 0.05907 0.0
C2351 C 0.25088 0.96754 0.08159 0.0
C2352 C 0.24614 0.98744 0.02247 0.0
C2353 C 0.25994 0.00639 0.01036 0.0
C2354 C 0.23199 0.96744 0.01142 0.0
C2355 C 0.2152 0.94804 0.02296 0.0
C2356 C 0.21948 0.92084 0.02025 0.0
C2357 C 0.20392 0.90256 0.03137 0.0
C2358 C 0.18391 0.91125 0.04515 0.0
C2359 C 0.17933 0.93825 0.04776 0.0
C2360 C 0.19481 0.95661 0.03667 0.0
C2361 C 0.27223 0.97925 0.91892 0.0
C2362 C 0.24881 0.97445 0.90741 0.0
C2363 C 0.2717 0.9828 0.94134 0.0
C2364 C 0.24766 0.98228 0.95267 0.0
C2365 C 0.22421 0.97802 0.94107 0.0
C2366 C 0.22478 0.974 0.91874 0.0
C2367 C 0.24697 0.98509 0.97666 0.0
C2368 C 0.23299 0.96629 0.98878 0.0
C2369 C 0.26019 0.00575 0.98766 0.0
C2370 C 0.27359 0.02747 0.97593 0.0
C2371 C 0.25977 0.04264 0.96065 0.0
C2372 C 0.27253 0.06296 0.94952 0.0
C2373 C 0.29907 0.06843 0.95366 0.0
C2374 C 0.31288 0.05363 0.96897 0.0
C2375 C 0.30022 0.03327 0.98012 0.0
H2376 H 0.30892 0.08416 0.94503 0.0
H2377 H 0.17192 0.89707 0.05377 0.0
H2378 H 0.53852 0.21589 0.58721 0.0
H2379 H 0.54011 0.21838 0.54779 0.0
H2380 H 0.48593 0.28411 0.54916 0.0
H2381 H 0.48304 0.28046 0.58841 0.0
H2382 H 0.47249 0.25637 0.51823 0.0
H2383 H 0.55643 0.2895 0.53977 0.0
H2384 H 0.5993 0.28956 0.5586 0.0
H2385 H 0.62284 0.22032 0.52361 0.0
H2386 H 0.57995 0.21964 0.50478 0.0
H2387 H 0.54772 0.2896 0.41052 0.0
H2388 H 0.54649 0.2875 0.44992 0.0
H2389 H 0.48648 0.2272 0.44647 0.0
H2390 H 0.48663 0.23038 0.40709 0.0
H2391 H 0.55734 0.25433 0.47846 0.0
H2392 H 0.44642 0.22792 0.48913 0.0
H2393 H 0.40394 0.23593 0.47082 0.0
H2394 H 0.43519 0.30643 0.44215 0.0
H2395 H 0.47772 0.29903 0.4605 0.0
C2396 C 0.527 0.23087 0.57905 0.0
C2397 C 0.51069 0.248 0.59086 0.0
C2398 C 0.52803 0.23242 0.5565 0.0
C2399 C 0.51351 0.25176 0.54533 0.0
C2400 C 0.49729 0.26894 0.55724 0.0
C2401 C 0.4957 0.26691 0.57972 0.0
C2402 C 0.51479 0.2539 0.52128 0.0
C2403 C 0.4911 0.25596 0.5096 0.0
C2404 C 0.539 0.25397 0.50981 0.0
C2405 C 0.56488 0.25438 0.52102 0.0
C2406 C 0.57068 0.27419 0.53619 0.0
C2407 C 0.59499 0.27435 0.54686 0.0
C2408 C 0.61375 0.25492 0.54235 0.0
C2409 C 0.60827 0.23534 0.52711 0.0
C2410 C 0.58397 0.23507 0.51643 0.0
C2411 C 0.53422 0.27594 0.41819 0.0
C2412 C 0.51709 0.26033 0.40572 0.0
C2413 C 0.53358 0.27468 0.44074 0.0
C2414 C 0.51609 0.25749 0.45135 0.0
C2415 C 0.49962 0.2412 0.43882 0.0
C2416 C 0.49982 0.24291 0.41627 0.0
C2417 C 0.51505 0.25674 0.47545 0.0
C2418 C 0.53876 0.25481 0.48712 0.0
C2419 C 0.49093 0.25801 0.48698 0.0
C2420 C 0.46533 0.26274 0.47601 0.0
C2421 C 0.44418 0.24517 0.47897 0.0
C2422 C 0.4201 0.2496 0.46858 0.0
C2423 C 0.41689 0.27163 0.45527 0.0
C2424 C 0.43773 0.28933 0.45239 0.0
C2425 C 0.46183 0.28501 0.46277 0.0
H2426 H 0.39825 0.27501 0.44722 0.0
H2427 H 0.63256 0.25507 0.55062 0.0
H2428 H 0.25198 0.47187 0.08541 0.0
H2429 H 0.24716 0.47376 0.04613 0.0
H2430 H 0.27212 0.55512 0.04665 0.0
H2431 H 0.27653 0.55355 0.08585 0.0
H2432 H 0.23106 0.54923 0.02077 0.0
H2433 H 0.31375 0.50439 0.03127 0.0
H2434 H 0.34313 0.46972 0.04547 0.0
H2435 H 0.29761 0.41051 0.01275 0.0
H2436 H 0.26773 0.44483 0.99857 0.0
H2437 H 0.27332 0.57283 0.915 0.0
H2438 H 0.27269 0.56358 0.95352 0.0
H2439 H 0.23587 0.48837 0.9414 0.0
H2440 H 0.23622 0.49756 0.90241 0.0
H2441 H 0.27852 0.48717 0.9725 0.0
H2442 H 0.19814 0.53394 0.95938 0.0
H2443 H 0.17058 0.56974 0.94465 0.0
H2444 H 0.21359 0.62652 0.98217 0.0
H2445 H 0.2417 0.59109 0.99689 0.0
C2446 C 0.25641 0.49019 0.07718 0.0
C2447 C 0.26471 0.51254 0.08882 0.0
C2448 C 0.25375 0.49119 0.05468 0.0
C2449 C 0.25953 0.51451 0.04335 0.0
C2450 C 0.26753 0.5369 0.05499 0.0
C2451 C 0.27012 0.53594 0.07744 0.0
C2452 C 0.25722 0.51579 0.0194 0.0
C2453 C 0.24161 0.53576 0.01026 0.0
C2454 C 0.27039 0.49778 0.00558 0.0
C2455 C 0.28832 0.47714 0.01408 0.0
C2456 C 0.30987 0.48395 0.02725 0.0
C2457 C 0.32664 0.46437 0.03527 0.0
C2458 C 0.32219 0.43792 0.03008 0.0
C2459 C 0.301 0.431 0.0168 0.0
C2460 C 0.28415 0.45051 0.00876 0.0
C2461 C 0.26517 0.55421 0.92038 0.0
C2462 C 0.25475 0.53595 0.90552 0.0
C2463 C 0.26477 0.54901 0.94248 0.0
C2464 C 0.25401 0.52542 0.95035 0.0
C2465 C 0.24421 0.50674 0.93563 0.0
C2466 C 0.24437 0.51205 0.91339 0.0
C2467 C 0.25279 0.52088 0.97402 0.0
C2468 C 0.26771 0.50037 0.98307 0.0
C2469 C 0.23916 0.53849 0.9878 0.0
C2470 C 0.22216 0.55986 0.97911 0.0
C2471 C 0.20186 0.55408 0.96437 0.0
C2472 C 0.18612 0.5743 0.95604 0.0
C2473 C 0.19037 0.60039 0.96244 0.0
C2474 C 0.21033 0.6063 0.97722 0.0
C2475 C 0.22616 0.58615 0.98558 0.0
H2476 H 0.17816 0.61603 0.95597 0.0
H2477 H 0.3352 0.42279 0.03629 0.0
H2478 H 0.03631 0.23672 0.41674 0.0
H2479 H 0.03251 0.23738 0.4561 0.0
H2480 H 0.94857 0.24995 0.45051 0.0
H2481 H 0.95213 0.24803 0.41121 0.0
H2482 H 0.0195 0.27093 0.48462 0.0
H2483 H 0.91539 0.22367 0.49163 0.0
H2484 H 0.88757 0.19167 0.47206 0.0
H2485 H 0.95672 0.15532 0.44528 0.0
H2486 H 0.98496 0.18687 0.4649 0.0
H2487 H 0.97237 0.28898 0.59175 0.0
H2488 H 0.97943 0.28825 0.55267 0.0
H2489 H 0.97849 0.20306 0.55367 0.0
H2490 H 0.9699 0.20385 0.59242 0.0
H2491 H 0.95198 0.21676 0.52188 0.0
H2492 H 0.03714 0.24292 0.54677 0.0
H2493 H 0.06957 0.26962 0.56686 0.0
H2494 H 0.04686 0.33839 0.5309 0.0
H2495 H 0.01404 0.31216 0.51079 0.0
C2496 C 0.01703 0.23956 0.42392 0.0
C2497 C 0.99449 0.24206 0.41087 0.0
C2498 C 0.01489 0.24003 0.44645 0.0
C2499 C 0.99019 0.2433 0.45642 0.0
C2500 C 0.96777 0.24667 0.44333 0.0
C2501 C 0.96983 0.24568 0.42082 0.0
C2502 C 0.98787 0.24299 0.48044 0.0
C2503 C 0.00475 0.25905 0.49276 0.0
C2504 C 0.96907 0.22706 0.49125 0.0
C2505 C 0.95225 0.20781 0.47957 0.0
C2506 C 0.92465 0.20878 0.48163 0.0
C2507 C 0.90881 0.19074 0.47052 0.0
C2508 C 0.92036 0.17154 0.45738 0.0
C2509 C 0.94779 0.17027 0.45539 0.0
C2510 C 0.96372 0.18824 0.46649 0.0
C2511 C 0.97388 0.27013 0.58361 0.0
C2512 C 0.97056 0.24648 0.59512 0.0
C2513 C 0.97806 0.26969 0.56125 0.0
C2514 C 0.97983 0.24557 0.55007 0.0
C2515 C 0.97707 0.22196 0.56176 0.0
C2516 C 0.97226 0.22241 0.58397 0.0
C2517 C 0.98355 0.24479 0.52615 0.0
C2518 C 0.96682 0.2286 0.51381 0.0
C2519 C 0.00318 0.2598 0.51542 0.0
C2520 C 0.02297 0.27562 0.52742 0.0
C2521 C 0.03894 0.26377 0.54325 0.0
C2522 C 0.05741 0.27882 0.55463 0.0
C2523 C 0.06023 0.3057 0.5502 0.0
C2524 C 0.04463 0.31758 0.53434 0.0
C2525 C 0.02612 0.30263 0.52293 0.0
H2526 H 0.07453 0.31732 0.55903 0.0
H2527 H 0.90807 0.1576 0.44877 0.0
loop_
_geom_bond_atom_site_label_1
_geom_bond_atom_site_label_2
_geom_bond_distance
_geom_bond_site_symmetry_2
_ccdc_geom_bond_type
Co0 N4 2.148 . S
Co0 N10 2.128 . S
Co0 N20 2.194 . S
Co0 O25 2.351 . S
Co0 O26 2.155 . S
Co0 O27 2.096 . S
C1 N4 1.301 . S
C1 N5 1.328 . S
C1 H6 0.930 . S
C2 C3 1.333 . S
C2 N4 1.317 . S
C2 H7 0.930 . S
C3 C2 1.333 . S
C3 N5 1.350 . S
C3 H29 0.931 . S
N4 Co0 2.148 . S
N4 C1 1.301 . S
N4 C2 1.317 . S
N5 C1 1.328 . S
N5 C3 1.350 . S
H6 C1 0.930 . S
H7 C2 0.930 . S
C8 O9 1.224 . S
C8 O27 1.247 . S
O9 C8 1.224 . S
N10 Co0 2.128 . S
N10 C11 1.355 1_545 S
N10 C13 1.311 1_545 S
C11 N10 1.355 1_565 S
C11 C12 1.363 . S
C11 H23 0.929 . S
C12 C11 1.363 . S
C12 N14 1.375 . S
C12 H30 0.931 . S
C13 N10 1.311 1_565 S
C13 N14 1.347 . S
C13 H24 0.929 1_565 S
N14 C12 1.375 . S
N14 C13 1.347 . S
C15 C18 1.365 . S
C15 N20 1.328 . S
C15 H21 0.929 . S
C16 C17 1.362 . S
C16 C19 1.378 . S
C16 H31 0.929 . S
C17 C16 1.362 . S
C17 C18 1.366 . S
C18 C15 1.365 . S
C18 C17 1.366 . S
C18 H32 0.930 . S
C19 C16 1.378 . S
C19 N20 1.315 . S
C19 H22 0.930 . S
N20 Co0 2.194 . S
N20 C15 1.328 . S
N20 C19 1.315 . S
H21 C15 0.929 . S
H22 C19 0.930 . S
H23 C11 0.929 . S
H24 C13 0.929 1_545 S
O25 Co0 2.351 . S
O25 C28 1.244 . S
O26 Co0 2.155 . S
O26 C28 1.240 . S
O27 Co0 2.096 . S
O27 C8 1.247 . S
C28 O25 1.244 . S
C28 O26 1.240 . S
H29 C3 0.931 . S
H30 C12 0.931 . S
H31 C16 0.929 . S
H32 C18 0.930 . S
Co33 N37 2.148 . S
Co33 N43 2.128 . S
Co33 N53 2.194 . S
Co33 O58 2.351 . S
Co33 O59 2.155 . S
Co33 O60 2.096 . S
C34 N37 1.301 . S
C34 N38 1.328 . S
C34 H39 0.930 . S
C35 C36 1.333 . S
C35 N37 1.317 . S
C35 H40 0.930 . S
C36 C35 1.333 . S
C36 N38 1.350 . S
C36 H62 0.931 . S
N37 Co33 2.148 . S
N37 C34 1.301 . S
N37 C35 1.317 . S
N38 C34 1.328 . S
N38 C36 1.350 . S
H39 C34 0.930 . S
H40 C35 0.930 . S
C41 O42 1.224 . S
C41 O60 1.247 . S
O42 C41 1.224 . S
N43 Co33 2.128 . S
N43 C44 1.355 . S
N43 C46 1.311 . S
C44 N43 1.355 . S
C44 C45 1.363 . S
C44 H56 0.929 . S
C45 C44 1.363 . S
C45 N47 1.375 . S
C45 H63 0.931 . S
C46 N43 1.311 . S
C46 N47 1.347 . S
C46 H57 0.929 . S
N47 C45 1.375 . S
N47 C46 1.347 . S
C48 C51 1.365 . S
C48 N53 1.328 . S
C48 H54 0.929 . S
C49 C50 1.362 . S
C49 C52 1.378 . S
C49 H64 0.929 . S
C50 C49 1.362 . S
C50 C51 1.366 . S
C51 C48 1.365 . S
C51 C50 1.366 . S
C51 H65 0.930 . S
C52 C49 1.378 . S
C52 N53 1.315 . S
C52 H55 0.930 . S
N53 Co33 2.194 . S
N53 C48 1.328 . S
N53 C52 1.315 . S
H54 C48 0.929 . S
H55 C52 0.930 . S
H56 C44 0.929 . S
H57 C46 0.929 . S
O58 Co33 2.351 . S
O58 C61 1.244 . S
O59 Co33 2.155 . S
O59 C61 1.240 . S
O60 Co33 2.096 . S
O60 C41 1.247 . S
C61 O58 1.244 . S
C61 O59 1.240 . S
H62 C36 0.931 . S
H63 C45 0.931 . S
H64 C49 0.929 . S
H65 C51 0.930 . S
Co66 N70 2.148 . S
Co66 N76 2.128 . S
Co66 N86 2.194 . S
Co66 O91 2.351 . S
Co66 O92 2.155 . S
Co66 O93 2.096 . S
C67 N70 1.301 . S
C67 N71 1.328 . S
C67 H72 0.930 . S
C68 C69 1.333 . S
C68 N70 1.317 . S
C68 H73 0.930 . S
C69 C68 1.333 . S
C69 N71 1.350 . S
C69 H95 0.931 . S
N70 Co66 2.148 . S
N70 C67 1.301 . S
N70 C68 1.317 . S
N71 C67 1.328 . S
N71 C69 1.350 . S
H72 C67 0.930 . S
H73 C68 0.930 . S
C74 O75 1.224 . S
C74 O93 1.247 . S
O75 C74 1.224 . S
N76 Co66 2.128 . S
N76 C77 1.355 . S
N76 C79 1.311 . S
C77 N76 1.355 . S
C77 C78 1.363 . S
C77 H89 0.929 . S
C78 C77 1.363 . S
C78 N80 1.375 . S
C78 H96 0.931 . S
C79 N76 1.311 . S
C79 N80 1.347 . S
C79 H90 0.929 . S
N80 C78 1.375 . S
N80 C79 1.347 . S
C81 C84 1.365 . S
C81 N86 1.328 . S
C81 H87 0.929 . S
C82 C83 1.362 . S
C82 C85 1.378 . S
C82 H97 0.929 . S
C83 C82 1.362 . S
C83 C84 1.366 . S
C84 C81 1.365 . S
C84 C83 1.366 . S
C84 H98 0.930 . S
C85 C82 1.378 . S
C85 N86 1.315 . S
C85 H88 0.930 . S
N86 Co66 2.194 . S
N86 C81 1.328 . S
N86 C85 1.315 . S
H87 C81 0.929 . S
H88 C85 0.930 . S
H89 C77 0.929 . S
H90 C79 0.929 . S
O91 Co66 2.351 . S
O91 C94 1.244 . S
O92 Co66 2.155 . S
O92 C94 1.240 . S
O93 Co66 2.096 . S
O93 C74 1.247 . S
C94 O91 1.244 . S
C94 O92 1.240 . S
H95 C69 0.931 . S
H96 C78 0.931 . S
H97 C82 0.929 . S
H98 C84 0.930 . S
Co99 N103 2.148 . S
Co99 N109 2.128 . S
Co99 N119 2.194 . S
Co99 O124 2.351 . S
Co99 O125 2.155 . S
Co99 O126 2.096 . S
C100 N103 1.301 . S
C100 N104 1.328 . S
C100 H105 0.930 . S
C101 C102 1.333 . S
C101 N103 1.317 . S
C101 H106 0.930 . S
C102 C101 1.333 . S
C102 N104 1.350 . S
C102 H128 0.931 . S
N103 Co99 2.148 . S
N103 C100 1.301 . S
N103 C101 1.317 . S
N104 C100 1.328 . S
N104 C102 1.350 . S
H105 C100 0.930 . S
H106 C101 0.930 . S
C107 O108 1.224 . S
C107 O126 1.247 . S
O108 C107 1.224 . S
N109 Co99 2.128 . S
N109 C110 1.355 1_455 S
N109 C112 1.311 1_455 S
C110 N109 1.355 1_655 S
C110 C111 1.363 . S
C110 H122 0.929 . S
C111 C110 1.363 . S
C111 N113 1.375 . S
C111 H129 0.931 . S
C112 N109 1.311 1_655 S
C112 N113 1.347 . S
C112 H123 0.929 1_655 S
N113 C111 1.375 . S
N113 C112 1.347 . S
C114 C117 1.365 . S
C114 N119 1.328 . S
C114 H120 0.929 . S
C115 C116 1.362 . S
C115 C118 1.378 . S
C115 H130 0.929 . S
C116 C115 1.362 . S
C116 C117 1.366 . S
C117 C114 1.365 . S
C117 C116 1.366 . S
C117 H131 0.930 . S
C118 C115 1.378 . S
C118 N119 1.315 . S
C118 H121 0.930 . S
N119 Co99 2.194 . S
N119 C114 1.328 . S
N119 C118 1.315 . S
H120 C114 0.929 . S
H121 C118 0.930 . S
H122 C110 0.929 . S
H123 C112 0.929 1_455 S
O124 Co99 2.351 . S
O124 C127 1.244 . S
O125 Co99 2.155 . S
O125 C127 1.240 . S
O126 Co99 2.096 . S
O126 C107 1.247 . S
C127 O124 1.244 . S
C127 O125 1.240 . S
H128 C102 0.931 . S
H129 C111 0.931 . S
H130 C115 0.929 . S
H131 C117 0.930 . S
Co132 N136 2.148 . S
Co132 N142 2.128 . S
Co132 N152 2.194 . S
Co132 O157 2.351 . S
Co132 O158 2.155 . S
Co132 O159 2.096 . S
C133 N136 1.301 . S
C133 N137 1.328 . S
C133 H138 0.930 . S
C134 C135 1.333 . S
C134 N136 1.317 . S
C134 H139 0.930 . S
C135 C134 1.333 . S
C135 N137 1.350 . S
C135 H161 0.931 . S
N136 Co132 2.148 . S
N136 C133 1.301 . S
N136 C134 1.317 . S
N137 C133 1.328 . S
N137 C135 1.350 . S
H138 C133 0.930 . S
H139 C134 0.930 . S
C140 O141 1.224 . S
C140 O159 1.247 . S
O141 C140 1.224 . S
N142 Co132 2.128 . S
N142 C143 1.355 . S
N142 C145 1.311 . S
C143 N142 1.355 . S
C143 C144 1.363 . S
C143 H155 0.929 . S
C144 C143 1.363 . S
C144 N146 1.375 . S
C144 H162 0.931 . S
C145 N142 1.311 . S
C145 N146 1.347 . S
C145 H156 0.929 . S
N146 C144 1.375 . S
N146 C145 1.347 . S
C147 C150 1.365 . S
C147 N152 1.328 . S
C147 H153 0.929 . S
C148 C149 1.362 . S
C148 C151 1.378 . S
C148 H163 0.929 . S
C149 C148 1.362 . S
C149 C150 1.366 . S
C150 C147 1.365 . S
C150 C149 1.366 . S
C150 H164 0.930 . S
C151 C148 1.378 . S
C151 N152 1.315 . S
C151 H154 0.930 . S
N152 Co132 2.194 . S
N152 C147 1.328 . S
N152 C151 1.315 . S
H153 C147 0.929 . S
H154 C151 0.930 . S
H155 C143 0.929 . S
H156 C145 0.929 . S
O157 Co132 2.351 . S
O157 C160 1.244 . S
O158 Co132 2.155 . S
O158 C160 1.240 . S
O159 Co132 2.096 . S
O159 C140 1.247 . S
C160 O157 1.244 . S
C160 O158 1.240 . S
H161 C135 0.931 . S
H162 C144 0.931 . S
H163 C148 0.929 . S
H164 C150 0.930 . S
Co165 N169 2.148 . S
Co165 N175 2.128 . S
Co165 N185 2.194 . S
Co165 O190 2.351 . S
Co165 O191 2.155 . S
Co165 O192 2.096 . S
C166 N169 1.301 . S
C166 N170 1.328 . S
C166 H171 0.930 . S
C167 C168 1.333 . S
C167 N169 1.317 . S
C167 H172 0.930 . S
C168 C167 1.333 . S
C168 N170 1.350 . S
C168 H194 0.931 . S
N169 Co165 2.148 . S
N169 C166 1.301 . S
N169 C167 1.317 . S
N170 C166 1.328 . S
N170 C168 1.350 . S
H171 C166 0.930 . S
H172 C167 0.930 . S
C173 O174 1.224 . S
C173 O192 1.247 . S
O174 C173 1.224 . S
N175 Co165 2.128 . S
N175 C176 1.355 1_455 S
N175 C178 1.311 1_455 S
C176 N175 1.355 1_655 S
C176 C177 1.363 . S
C176 H188 0.929 . S
C177 C176 1.363 . S
C177 N179 1.375 . S
C177 H195 0.931 . S
C178 N175 1.311 1_655 S
C178 N179 1.347 . S
C178 H189 0.929 1_655 S
N179 C177 1.375 . S
N179 C178 1.347 . S
C180 C183 1.365 . S
C180 N185 1.328 . S
C180 H186 0.929 . S
C181 C182 1.362 . S
C181 C184 1.378 . S
C181 H196 0.929 . S
C182 C181 1.362 . S
C182 C183 1.366 . S
C183 C180 1.365 . S
C183 C182 1.366 . S
C183 H197 0.930 . S
C184 C181 1.378 . S
C184 N185 1.315 . S
C184 H187 0.930 . S
N185 Co165 2.194 . S
N185 C180 1.328 . S
N185 C184 1.315 . S
H186 C180 0.929 . S
H187 C184 0.930 . S
H188 C176 0.929 . S
H189 C178 0.929 1_455 S
O190 Co165 2.351 . S
O190 C193 1.244 . S
O191 Co165 2.155 . S
O191 C193 1.240 . S
O192 Co165 2.096 . S
O192 C173 1.247 . S
C193 O190 1.244 . S
C193 O191 1.240 . S
H194 C168 0.931 . S
H195 C177 0.931 . S
H196 C181 0.929 . S
H197 C183 0.930 . S
Co198 N202 2.148 . S
Co198 N208 2.128 . S
Co198 N218 2.194 . S
Co198 O223 2.351 . S
Co198 O224 2.155 . S
Co198 O225 2.096 . S
C199 N202 1.301 . S
C199 N203 1.328 . S
C199 H204 0.930 . S
C200 C201 1.333 . S
C200 N202 1.317 . S
C200 H205 0.930 . S
C201 C200 1.333 . S
C201 N203 1.350 . S
C201 H227 0.931 . S
N202 Co198 2.148 . S
N202 C199 1.301 . S
N202 C200 1.317 . S
N203 C199 1.328 . S
N203 C201 1.350 . S
H204 C199 0.930 . S
H205 C200 0.930 . S
C206 O207 1.224 . S
C206 O225 1.247 . S
O207 C206 1.224 . S
N208 Co198 2.128 . S
N208 C209 1.355 1_545 S
N208 C211 1.311 1_545 S
C209 N208 1.355 1_565 S
C209 C210 1.363 . S
C209 H221 0.929 . S
C210 C209 1.363 . S
C210 N212 1.375 . S
C210 H228 0.931 . S
C211 N208 1.311 1_565 S
C211 N212 1.347 . S
C211 H222 0.929 1_565 S
N212 C210 1.375 . S
N212 C211 1.347 . S
C213 C216 1.365 . S
C213 N218 1.328 . S
C213 H219 0.929 . S
C214 C215 1.362 . S
C214 C217 1.378 . S
C214 H229 0.929 . S
C215 C214 1.362 . S
C215 C216 1.366 . S
C216 C213 1.365 . S
C216 C215 1.366 . S
C216 H230 0.930 . S
C217 C214 1.378 . S
C217 N218 1.315 . S
C217 H220 0.930 . S
N218 Co198 2.194 . S
N218 C213 1.328 . S
N218 C217 1.315 . S
H219 C213 0.929 . S
H220 C217 0.930 . S
H221 C209 0.929 . S
H222 C211 0.929 1_545 S
O223 Co198 2.351 . S
O223 C226 1.244 . S
O224 Co198 2.155 . S
O224 C226 1.240 . S
O225 Co198 2.096 . S
O225 C206 1.247 . S
C226 O223 1.244 . S
C226 O224 1.240 . S
H227 C201 0.931 . S
H228 C210 0.931 . S
H229 C214 0.929 . S
H230 C216 0.930 . S
Co231 N235 2.148 . S
Co231 N241 2.128 . S
Co231 N251 2.194 . S
Co231 O256 2.351 . S
Co231 O257 2.155 . S
Co231 O258 2.096 . S
C232 N235 1.301 . S
C232 N236 1.328 . S
C232 H237 0.930 . S
C233 C234 1.333 . S
C233 N235 1.317 . S
C233 H238 0.930 . S
C234 C233 1.333 . S
C234 N236 1.350 . S
C234 H260 0.931 . S
N235 Co231 2.148 . S
N235 C232 1.301 . S
N235 C233 1.317 . S
N236 C232 1.328 . S
N236 C234 1.350 . S
H237 C232 0.930 . S
H238 C233 0.930 . S
C239 O240 1.224 . S
C239 O258 1.247 . S
O240 C239 1.224 . S
N241 Co231 2.128 . S
N241 C242 1.355 . S
N241 C244 1.311 . S
C242 N241 1.355 . S
C242 C243 1.363 . S
C242 H254 0.929 . S
C243 C242 1.363 . S
C243 N245 1.375 . S
C243 H261 0.931 . S
C244 N241 1.311 . S
C244 N245 1.347 . S
C244 H255 0.929 . S
N245 C243 1.375 . S
N245 C244 1.347 . S
C246 C249 1.365 . S
C246 N251 1.328 . S
C246 H252 0.929 . S
C247 C248 1.362 . S
C247 C250 1.378 . S
C247 H262 0.929 . S
C248 C247 1.362 . S
C248 C249 1.366 . S
C249 C246 1.365 . S
C249 C248 1.366 . S
C249 H263 0.930 . S
C250 C247 1.378 . S
C250 N251 1.315 . S
C250 H253 0.930 . S
N251 Co231 2.194 . S
N251 C246 1.328 . S
N251 C250 1.315 . S
H252 C246 0.929 . S
H253 C250 0.930 . S
H254 C242 0.929 . S
H255 C244 0.929 . S
O256 Co231 2.351 . S
O256 C259 1.244 . S
O257 Co231 2.155 . S
O257 C259 1.240 . S
O258 Co231 2.096 . S
O258 C239 1.247 . S
C259 O256 1.244 . S
C259 O257 1.240 . S
H260 C234 0.931 . S
H261 C243 0.931 . S
H262 C247 0.929 . S
H263 C249 0.930 . S
Co264 N268 2.148 . S
Co264 N274 2.128 . S
Co264 N284 2.194 . S
Co264 O289 2.351 . S
Co264 O290 2.155 . S
Co264 O291 2.096 . S
C265 N268 1.301 1_545 S
C265 N269 1.328 . S
C265 H270 0.930 1_545 S
C266 C267 1.333 . S
C266 N268 1.317 1_545 S
C266 H271 0.930 . S
C267 C266 1.333 . S
C267 N269 1.350 . S
C267 H293 0.931 . S
N268 Co264 2.148 . S
N268 C265 1.301 1_565 S
N268 C266 1.317 1_565 S
N269 C265 1.328 . S
N269 C267 1.350 . S
H270 C265 0.930 1_565 S
H271 C266 0.930 . S
C272 O273 1.224 . S
C272 O291 1.247 . S
O273 C272 1.224 . S
N274 Co264 2.128 . S
N274 C275 1.355 . S
N274 C277 1.311 . S
C275 N274 1.355 . S
C275 C276 1.363 . S
C275 H287 0.929 . S
C276 C275 1.363 . S
C276 N278 1.375 . S
C276 H294 0.931 . S
C277 N274 1.311 . S
C277 N278 1.347 . S
C277 H288 0.929 . S
N278 C276 1.375 . S
N278 C277 1.347 . S
C279 C282 1.365 . S
C279 N284 1.328 . S
C279 H285 0.929 . S
C280 C281 1.362 . S
C280 C283 1.378 . S
C280 H295 0.929 . S
C281 C280 1.362 . S
C281 C282 1.366 . S
C282 C279 1.365 . S
C282 C281 1.366 . S
C282 H296 0.930 . S
C283 C280 1.378 . S
C283 N284 1.315 . S
C283 H286 0.930 . S
N284 Co264 2.194 . S
N284 C279 1.328 . S
N284 C283 1.315 . S
H285 C279 0.929 . S
H286 C283 0.930 . S
H287 C275 0.929 . S
H288 C277 0.929 . S
O289 Co264 2.351 . S
O289 C292 1.244 . S
O290 Co264 2.155 . S
O290 C292 1.240 . S
O291 Co264 2.096 . S
O291 C272 1.247 . S
C292 O289 1.244 . S
C292 O290 1.240 . S
H293 C267 0.931 . S
H294 C276 0.931 . S
H295 C280 0.929 . S
H296 C282 0.930 . S
Co297 N301 2.148 . S
Co297 N307 2.128 . S
Co297 N317 2.194 . S
Co297 O322 2.351 . S
Co297 O323 2.155 . S
Co297 O324 2.096 . S
C298 N301 1.301 . S
C298 N302 1.328 . S
C298 H303 0.930 . S
C299 C300 1.333 . S
C299 N301 1.317 . S
C299 H304 0.930 . S
C300 C299 1.333 . S
C300 N302 1.350 . S
C300 H326 0.931 . S
N301 Co297 2.148 . S
N301 C298 1.301 . S
N301 C299 1.317 . S
N302 C298 1.328 . S
N302 C300 1.350 . S
H303 C298 0.930 . S
H304 C299 0.930 . S
C305 O306 1.224 . S
C305 O324 1.247 . S
O306 C305 1.224 . S
N307 Co297 2.128 . S
N307 C308 1.355 . S
N307 C310 1.311 . S
C308 N307 1.355 . S
C308 C309 1.363 . S
C308 H320 0.929 . S
C309 C308 1.363 . S
C309 N311 1.375 . S
C309 H327 0.931 . S
C310 N307 1.311 . S
C310 N311 1.347 . S
C310 H321 0.929 . S
N311 C309 1.375 . S
N311 C310 1.347 . S
C312 C315 1.365 . S
C312 N317 1.328 . S
C312 H318 0.929 . S
C313 C314 1.362 . S
C313 C316 1.378 . S
C313 H328 0.929 . S
C314 C313 1.362 . S
C314 C315 1.366 . S
C315 C312 1.365 . S
C315 C314 1.366 . S
C315 H329 0.930 . S
C316 C313 1.378 . S
C316 N317 1.315 . S
C316 H319 0.930 . S
N317 Co297 2.194 . S
N317 C312 1.328 . S
N317 C316 1.315 . S
H318 C312 0.929 . S
H319 C316 0.930 . S
H320 C308 0.929 . S
H321 C310 0.929 . S
O322 Co297 2.351 . S
O322 C325 1.244 . S
O323 Co297 2.155 . S
O323 C325 1.240 . S
O324 Co297 2.096 . S
O324 C305 1.247 . S
C325 O322 1.244 . S
C325 O323 1.240 . S
H326 C300 0.931 . S
H327 C309 0.931 . S
H328 C313 0.929 . S
H329 C315 0.930 . S
Co330 N334 2.148 . S
Co330 N340 2.128 . S
Co330 N350 2.194 . S
Co330 O355 2.351 . S
Co330 O356 2.155 . S
Co330 O357 2.096 . S
C331 N334 1.301 . S
C331 N335 1.328 . S
C331 H336 0.930 . S
C332 C333 1.333 . S
C332 N334 1.317 . S
C332 H337 0.930 . S
C333 C332 1.333 . S
C333 N335 1.350 . S
C333 H359 0.931 . S
N334 Co330 2.148 . S
N334 C331 1.301 . S
N334 C332 1.317 . S
N335 C331 1.328 . S
N335 C333 1.350 . S
H336 C331 0.930 . S
H337 C332 0.930 . S
C338 O339 1.224 . S
C338 O357 1.247 . S
O339 C338 1.224 . S
N340 Co330 2.128 . S
N340 C341 1.355 . S
N340 C343 1.311 . S
C341 N340 1.355 . S
C341 C342 1.363 . S
C341 H353 0.929 . S
C342 C341 1.363 . S
C342 N344 1.375 . S
C342 H360 0.931 . S
C343 N340 1.311 . S
C343 N344 1.347 . S
C343 H354 0.929 . S
N344 C342 1.375 . S
N344 C343 1.347 . S
C345 C348 1.365 . S
C345 N350 1.328 . S
C345 H351 0.929 . S
C346 C347 1.362 . S
C346 C349 1.378 . S
C346 H361 0.929 . S
C347 C346 1.362 . S
C347 C348 1.366 . S
C348 C345 1.365 . S
C348 C347 1.366 . S
C348 H362 0.930 . S
C349 C346 1.378 . S
C349 N350 1.315 . S
C349 H352 0.930 . S
N350 Co330 2.194 . S
N350 C345 1.328 . S
N350 C349 1.315 . S
H351 C345 0.929 . S
H352 C349 0.930 . S
H353 C341 0.929 . S
H354 C343 0.929 . S
O355 Co330 2.351 . S
O355 C358 1.244 . S
O356 Co330 2.155 . S
O356 C358 1.240 . S
O357 Co330 2.096 . S
O357 C338 1.247 . S
C358 O355 1.244 . S
C358 O356 1.240 . S
H359 C333 0.931 . S
H360 C342 0.931 . S
H361 C346 0.929 . S
H362 C348 0.930 . S
Co363 N367 2.148 . S
Co363 N373 2.128 . S
Co363 N383 2.194 . S
Co363 O388 2.351 . S
Co363 O389 2.155 . S
Co363 O390 2.096 . S
C364 N367 1.301 1_455 S
C364 N368 1.328 . S
C364 H369 0.930 1_455 S
C365 C366 1.333 . S
C365 N367 1.317 1_455 S
C365 H370 0.930 . S
C366 C365 1.333 . S
C366 N368 1.350 . S
C366 H392 0.931 . S
N367 Co363 2.148 . S
N367 C364 1.301 1_655 S
N367 C365 1.317 1_655 S
N368 C364 1.328 . S
N368 C366 1.350 . S
H369 C364 0.930 1_655 S
H370 C365 0.930 . S
C371 O372 1.224 . S
C371 O390 1.247 . S
O372 C371 1.224 . S
N373 Co363 2.128 . S
N373 C374 1.355 . S
N373 C376 1.311 . S
C374 N373 1.355 . S
C374 C375 1.363 . S
C374 H386 0.929 . S
C375 C374 1.363 . S
C375 N377 1.375 . S
C375 H393 0.931 . S
C376 N373 1.311 . S
C376 N377 1.347 . S
C376 H387 0.929 . S
N377 C375 1.375 . S
N377 C376 1.347 . S
C378 C381 1.365 . S
C378 N383 1.328 . S
C378 H384 0.929 . S
C379 C380 1.362 . S
C379 C382 1.378 . S
C379 H394 0.929 . S
C380 C379 1.362 . S
C380 C381 1.366 . S
C381 C378 1.365 . S
C381 C380 1.366 . S
C381 H395 0.930 . S
C382 C379 1.378 . S
C382 N383 1.315 . S
C382 H385 0.930 . S
N383 Co363 2.194 . S
N383 C378 1.328 . S
N383 C382 1.315 . S
H384 C378 0.929 . S
H385 C382 0.930 . S
H386 C374 0.929 . S
H387 C376 0.929 . S
O388 Co363 2.351 . S
O388 C391 1.244 . S
O389 Co363 2.155 . S
O389 C391 1.240 . S
O390 Co363 2.096 . S
O390 C371 1.247 . S
C391 O388 1.244 . S
C391 O389 1.240 . S
H392 C366 0.931 . S
H393 C375 0.931 . S
H394 C379 0.929 . S
H395 C381 0.930 . S
Co396 N400 2.148 . S
Co396 N406 2.128 . S
Co396 N416 2.194 . S
Co396 O421 2.351 . S
Co396 O422 2.155 . S
Co396 O423 2.096 . S
C397 N400 1.301 . S
C397 N401 1.328 . S
C397 H402 0.930 . S
C398 C399 1.333 . S
C398 N400 1.317 . S
C398 H403 0.930 . S
C399 C398 1.333 . S
C399 N401 1.350 . S
C399 H425 0.931 . S
N400 Co396 2.148 . S
N400 C397 1.301 . S
N400 C398 1.317 . S
N401 C397 1.328 . S
N401 C399 1.350 . S
H402 C397 0.930 . S
H403 C398 0.930 . S
C404 O405 1.224 . S
C404 O423 1.247 . S
O405 C404 1.224 . S
N406 Co396 2.128 . S
N406 C407 1.355 . S
N406 C409 1.311 . S
C407 N406 1.355 . S
C407 C408 1.363 . S
C407 H419 0.929 . S
C408 C407 1.363 . S
C408 N410 1.375 . S
C408 H426 0.931 . S
C409 N406 1.311 . S
C409 N410 1.347 . S
C409 H420 0.929 . S
N410 C408 1.375 . S
N410 C409 1.347 . S
C411 C414 1.365 . S
C411 N416 1.328 . S
C411 H417 0.929 . S
C412 C413 1.362 . S
C412 C415 1.378 . S
C412 H427 0.929 . S
C413 C412 1.362 . S
C413 C414 1.366 . S
C414 C411 1.365 . S
C414 C413 1.366 . S
C414 H428 0.930 . S
C415 C412 1.378 . S
C415 N416 1.315 . S
C415 H418 0.930 . S
N416 Co396 2.194 . S
N416 C411 1.328 . S
N416 C415 1.315 . S
H417 C411 0.929 . S
H418 C415 0.930 . S
H419 C407 0.929 . S
H420 C409 0.929 . S
O421 Co396 2.351 . S
O421 C424 1.244 . S
O422 Co396 2.155 . S
O422 C424 1.240 . S
O423 Co396 2.096 . S
O423 C404 1.247 . S
C424 O421 1.244 . S
C424 O422 1.240 . S
H425 C399 0.931 . S
H426 C408 0.931 . S
H427 C412 0.929 . S
H428 C414 0.930 . S
Co429 N433 2.148 . S
Co429 N439 2.128 . S
Co429 N449 2.194 . S
Co429 O454 2.351 . S
Co429 O455 2.155 . S
Co429 O456 2.096 . S
C430 N433 1.301 1_455 S
C430 N434 1.328 . S
C430 H435 0.930 1_455 S
C431 C432 1.333 . S
C431 N433 1.317 1_455 S
C431 H436 0.930 . S
C432 C431 1.333 . S
C432 N434 1.350 . S
C432 H458 0.931 . S
N433 Co429 2.148 . S
N433 C430 1.301 1_655 S
N433 C431 1.317 1_655 S
N434 C430 1.328 . S
N434 C432 1.350 . S
H435 C430 0.930 1_655 S
H436 C431 0.930 . S
C437 O438 1.224 . S
C437 O456 1.247 . S
O438 C437 1.224 . S
N439 Co429 2.128 . S
N439 C440 1.355 . S
N439 C442 1.311 . S
C440 N439 1.355 . S
C440 C441 1.363 . S
C440 H452 0.929 . S
C441 C440 1.363 . S
C441 N443 1.375 . S
C441 H459 0.931 . S
C442 N439 1.311 . S
C442 N443 1.347 . S
C442 H453 0.929 . S
N443 C441 1.375 . S
N443 C442 1.347 . S
C444 C447 1.365 . S
C444 N449 1.328 . S
C444 H450 0.929 . S
C445 C446 1.362 . S
C445 C448 1.378 . S
C445 H460 0.929 . S
C446 C445 1.362 . S
C446 C447 1.366 . S
C447 C444 1.365 . S
C447 C446 1.366 . S
C447 H461 0.930 . S
C448 C445 1.378 . S
C448 N449 1.315 . S
C448 H451 0.930 . S
N449 Co429 2.194 . S
N449 C444 1.328 . S
N449 C448 1.315 . S
H450 C444 0.929 . S
H451 C448 0.930 . S
H452 C440 0.929 . S
H453 C442 0.929 . S
O454 Co429 2.351 . S
O454 C457 1.244 . S
O455 Co429 2.155 . S
O455 C457 1.240 . S
O456 Co429 2.096 . S
O456 C437 1.247 . S
C457 O454 1.244 . S
C457 O455 1.240 . S
H458 C432 0.931 . S
H459 C441 0.931 . S
H460 C445 0.929 . S
H461 C447 0.930 . S
Co462 N466 2.148 . S
Co462 N472 2.128 . S
Co462 N482 2.194 . S
Co462 O487 2.351 . S
Co462 O488 2.155 . S
Co462 O489 2.096 . S
C463 N466 1.301 1_545 S
C463 N467 1.328 . S
C463 H468 0.930 1_545 S
C464 C465 1.333 . S
C464 N466 1.317 1_545 S
C464 H469 0.930 . S
C465 C464 1.333 . S
C465 N467 1.350 . S
C465 H491 0.931 . S
N466 Co462 2.148 . S
N466 C463 1.301 1_565 S
N466 C464 1.317 1_565 S
N467 C463 1.328 . S
N467 C465 1.350 . S
H468 C463 0.930 1_565 S
H469 C464 0.930 . S
C470 O471 1.224 . S
C470 O489 1.247 . S
O471 C470 1.224 . S
N472 Co462 2.128 . S
N472 C473 1.355 . S
N472 C475 1.311 . S
C473 N472 1.355 . S
C473 C474 1.363 . S
C473 H485 0.929 . S
C474 C473 1.363 . S
C474 N476 1.375 . S
C474 H492 0.931 . S
C475 N472 1.311 . S
C475 N476 1.347 . S
C475 H486 0.929 . S
N476 C474 1.375 . S
N476 C475 1.347 . S
C477 C480 1.365 . S
C477 N482 1.328 . S
C477 H483 0.929 . S
C478 C479 1.362 . S
C478 C481 1.378 . S
C478 H493 0.929 . S
C479 C478 1.362 . S
C479 C480 1.366 . S
C480 C477 1.365 . S
C480 C479 1.366 . S
C480 H494 0.930 . S
C481 C478 1.378 . S
C481 N482 1.315 . S
C481 H484 0.930 . S
N482 Co462 2.194 . S
N482 C477 1.328 . S
N482 C481 1.315 . S
H483 C477 0.929 . S
H484 C481 0.930 . S
H485 C473 0.929 . S
H486 C475 0.929 . S
O487 Co462 2.351 . S
O487 C490 1.244 . S
O488 Co462 2.155 . S
O488 C490 1.240 . S
O489 Co462 2.096 . S
O489 C470 1.247 . S
C490 O487 1.244 . S
C490 O488 1.240 . S
H491 C465 0.931 . S
H492 C474 0.931 . S
H493 C478 0.929 . S
H494 C480 0.930 . S
Co495 N499 2.148 . S
Co495 N505 2.128 . S
Co495 N515 2.194 . S
Co495 O520 2.351 . S
Co495 O521 2.155 . S
Co495 O522 2.096 . S
C496 N499 1.301 . S
C496 N500 1.328 . S
C496 H501 0.930 . S
C497 C498 1.333 . S
C497 N499 1.317 . S
C497 H502 0.930 . S
C498 C497 1.333 . S
C498 N500 1.350 . S
C498 H524 0.931 . S
N499 Co495 2.148 . S
N499 C496 1.301 . S
N499 C497 1.317 . S
N500 C496 1.328 . S
N500 C498 1.350 . S
H501 C496 0.930 . S
H502 C497 0.930 . S
C503 O504 1.224 . S
C503 O522 1.247 . S
O504 C503 1.224 . S
N505 Co495 2.128 . S
N505 C506 1.355 . S
N505 C508 1.311 . S
C506 N505 1.355 . S
C506 C507 1.363 . S
C506 H518 0.929 . S
C507 C506 1.363 . S
C507 N509 1.375 . S
C507 H525 0.931 . S
C508 N505 1.311 . S
C508 N509 1.347 . S
C508 H519 0.929 . S
N509 C507 1.375 . S
N509 C508 1.347 . S
C510 C513 1.365 . S
C510 N515 1.328 . S
C510 H516 0.929 . S
C511 C512 1.362 . S
C511 C514 1.378 . S
C511 H526 0.929 . S
C512 C511 1.362 . S
C512 C513 1.366 . S
C513 C510 1.365 . S
C513 C512 1.366 . S
C513 H527 0.930 . S
C514 C511 1.378 . S
C514 N515 1.315 . S
C514 H517 0.930 . S
N515 Co495 2.194 . S
N515 C510 1.328 . S
N515 C514 1.315 . S
H516 C510 0.929 . S
H517 C514 0.930 . S
H518 C506 0.929 . S
H519 C508 0.929 . S
O520 Co495 2.351 . S
O520 C523 1.244 . S
O521 Co495 2.155 . S
O521 C523 1.240 . S
O522 Co495 2.096 . S
O522 C503 1.247 . S
C523 O520 1.244 . S
C523 O521 1.240 . S
H524 C498 0.931 . S
H525 C507 0.931 . S
H526 C511 0.929 . S
H527 C513 0.930 . S
H528 C546 0.951 . S
H529 C548 0.951 . S
H530 C550 0.950 . S
H531 C551 0.950 . S
H532 C553 0.950 . S
H533 C556 0.950 . S
H534 C557 0.950 . S
H535 C559 0.950 . S
H536 C560 0.950 . S
H537 C561 0.951 . S
H538 C563 0.951 . S
H539 C565 0.950 . S
H540 C566 0.950 . S
H541 C568 0.950 . S
H542 C571 0.950 . S
H543 C572 0.950 . S
H544 C574 0.950 . S
H545 C575 0.950 . S
C546 H528 0.951 . S
C546 C547 1.366 . S
C546 C548 1.388 . S
C547 C546 1.366 . S
C547 C551 1.385 . S
C548 H529 0.951 . S
C548 C546 1.388 . S
C548 C549 1.366 . S
C549 C548 1.366 . S
C549 C550 1.414 . S
C549 C552 1.499 . S
C550 H530 0.950 . S
C550 C549 1.414 . S
C550 C551 1.374 . S
C551 H531 0.950 . S
C551 C547 1.385 . S
C551 C550 1.374 . S
C552 C549 1.499 . S
C552 C553 1.373 . S
C552 C554 1.389 . S
C553 H532 0.950 . S
C553 C552 1.373 . S
C553 C569 1.377 . S
C554 C552 1.389 . S
C554 C555 1.524 . S
C554 C568 1.377 . S
C555 C554 1.524 . S
C555 C556 1.397 . S
C555 C560 1.363 . S
C556 H533 0.950 . S
C556 C555 1.397 . S
C556 C557 1.334 . S
C557 H534 0.950 . S
C557 C556 1.334 . S
C557 C558 1.287 . S
C558 C557 1.287 . S
C558 C559 1.524 . S
C558 H577 0.913 . S
C559 H535 0.950 . S
C559 C558 1.524 . S
C559 C560 1.415 . S
C560 H536 0.950 . S
C560 C555 1.363 . S
C560 C559 1.415 . S
C561 H537 0.951 . S
C561 C562 1.366 . S
C561 C563 1.388 . S
C562 C561 1.366 . S
C562 C566 1.385 . S
C563 H538 0.951 . S
C563 C561 1.388 . S
C563 C564 1.366 . S
C564 C563 1.366 . S
C564 C565 1.414 . S
C564 C567 1.499 . S
C565 H539 0.950 . S
C565 C564 1.414 . S
C565 C566 1.374 . S
C566 H540 0.950 . S
C566 C562 1.385 . S
C566 C565 1.374 . S
C567 C564 1.499 . S
C567 C568 1.373 . S
C567 C569 1.389 . S
C568 H541 0.950 . S
C568 C554 1.377 . S
C568 C567 1.373 . S
C569 C553 1.377 . S
C569 C567 1.389 . S
C569 C570 1.524 . S
C570 C569 1.524 . S
C570 C571 1.397 . S
C570 C575 1.363 . S
C571 H542 0.950 . S
C571 C570 1.397 . S
C571 C572 1.334 . S
C572 H543 0.950 . S
C572 C571 1.334 . S
C572 C573 1.287 . S
C573 C572 1.287 . S
C573 C574 1.524 . S
C573 H576 0.999 . S
C574 H544 0.950 . S
C574 C573 1.524 . S
C574 C575 1.415 . S
C575 H545 0.950 . S
C575 C570 1.363 . S
C575 C574 1.415 . S
H576 C573 0.999 . S
H577 C558 0.913 . S
H578 C596 0.951 . S
H579 C598 0.951 . S
H580 C600 0.950 . S
H581 C601 0.950 . S
H582 C603 0.950 . S
H583 C606 0.950 . S
H584 C607 0.950 . S
H585 C609 0.950 . S
H586 C610 0.950 . S
H587 C611 0.951 . S
H588 C613 0.951 . S
H589 C615 0.950 . S
H590 C616 0.950 . S
H591 C618 0.950 . S
H592 C621 0.950 . S
H593 C622 0.950 . S
H594 C624 0.950 . S
H595 C625 0.950 . S
C596 H578 0.951 . S
C596 C597 1.366 . S
C596 C598 1.388 . S
C597 C596 1.366 . S
C597 C601 1.385 . S
C598 H579 0.951 . S
C598 C596 1.388 . S
C598 C599 1.366 . S
C599 C598 1.366 . S
C599 C600 1.414 . S
C599 C602 1.499 . S
C600 H580 0.950 . S
C600 C599 1.414 . S
C600 C601 1.374 . S
C601 H581 0.950 . S
C601 C597 1.385 . S
C601 C600 1.374 . S
C602 C599 1.499 . S
C602 C603 1.373 . S
C602 C604 1.389 . S
C603 H582 0.950 . S
C603 C602 1.373 . S
C603 C619 1.377 . S
C604 C602 1.389 . S
C604 C605 1.524 . S
C604 C618 1.377 . S
C605 C604 1.524 . S
C605 C606 1.397 . S
C605 C610 1.363 . S
C606 H583 0.950 . S
C606 C605 1.397 . S
C606 C607 1.334 . S
C607 H584 0.950 . S
C607 C606 1.334 . S
C607 C608 1.287 . S
C608 C607 1.287 . S
C608 C609 1.524 . S
C608 H627 0.913 . S
C609 H585 0.950 . S
C609 C608 1.524 . S
C609 C610 1.415 . S
C610 H586 0.950 . S
C610 C605 1.363 . S
C610 C609 1.415 . S
C611 H587 0.951 . S
C611 C612 1.366 . S
C611 C613 1.388 . S
C612 C611 1.366 . S
C612 C616 1.385 . S
C613 H588 0.951 . S
C613 C611 1.388 . S
C613 C614 1.366 . S
C614 C613 1.366 . S
C614 C615 1.414 . S
C614 C617 1.499 . S
C615 H589 0.950 . S
C615 C614 1.414 . S
C615 C616 1.374 . S
C616 H590 0.950 . S
C616 C612 1.385 . S
C616 C615 1.374 . S
C617 C614 1.499 . S
C617 C618 1.373 . S
C617 C619 1.389 . S
C618 H591 0.950 . S
C618 C604 1.377 . S
C618 C617 1.373 . S
C619 C603 1.377 . S
C619 C617 1.389 . S
C619 C620 1.524 . S
C620 C619 1.524 . S
C620 C621 1.397 . S
C620 C625 1.363 . S
C621 H592 0.950 . S
C621 C620 1.397 . S
C621 C622 1.334 . S
C622 H593 0.950 . S
C622 C621 1.334 . S
C622 C623 1.287 . S
C623 C622 1.287 . S
C623 C624 1.524 . S
C623 H626 0.999 . S
C624 H594 0.950 . S
C624 C623 1.524 . S
C624 C625 1.415 . S
C625 H595 0.950 . S
C625 C620 1.363 . S
C625 C624 1.415 . S
H626 C623 0.999 . S
H627 C608 0.913 . S
H628 C646 0.951 . S
H629 C648 0.951 . S
H630 C650 0.950 . S
H631 C651 0.950 . S
H632 C653 0.950 . S
H633 C656 0.950 . S
H634 C657 0.950 . S
H635 C659 0.950 . S
H636 C660 0.950 . S
H637 C661 0.951 . S
H638 C663 0.951 . S
H639 C665 0.950 . S
H640 C666 0.950 . S
H641 C668 0.950 . S
H642 C671 0.950 . S
H643 C672 0.950 . S
H644 C674 0.950 . S
H645 C675 0.950 . S
C646 H628 0.951 . S
C646 C647 1.366 . S
C646 C648 1.388 . S
C647 C646 1.366 . S
C647 C651 1.385 . S
C648 H629 0.951 . S
C648 C646 1.388 . S
C648 C649 1.366 . S
C649 C648 1.366 . S
C649 C650 1.414 . S
C649 C652 1.499 . S
C650 H630 0.950 . S
C650 C649 1.414 . S
C650 C651 1.374 . S
C651 H631 0.950 . S
C651 C647 1.385 . S
C651 C650 1.374 . S
C652 C649 1.499 . S
C652 C653 1.373 . S
C652 C654 1.389 . S
C653 H632 0.950 . S
C653 C652 1.373 . S
C653 C669 1.377 . S
C654 C652 1.389 . S
C654 C655 1.524 . S
C654 C668 1.377 . S
C655 C654 1.524 . S
C655 C656 1.397 . S
C655 C660 1.363 . S
C656 H633 0.950 . S
C656 C655 1.397 . S
C656 C657 1.334 . S
C657 H634 0.950 . S
C657 C656 1.334 . S
C657 C658 1.287 . S
C658 C657 1.287 . S
C658 C659 1.524 . S
C658 H677 0.913 . S
C659 H635 0.950 . S
C659 C658 1.524 . S
C659 C660 1.415 . S
C660 H636 0.950 . S
C660 C655 1.363 . S
C660 C659 1.415 . S
C661 H637 0.951 . S
C661 C662 1.366 . S
C661 C663 1.388 . S
C662 C661 1.366 . S
C662 C666 1.385 . S
C663 H638 0.951 . S
C663 C661 1.388 . S
C663 C664 1.366 . S
C664 C663 1.366 . S
C664 C665 1.414 . S
C664 C667 1.499 . S
C665 H639 0.950 . S
C665 C664 1.414 . S
C665 C666 1.374 . S
C666 H640 0.950 . S
C666 C662 1.385 . S
C666 C665 1.374 . S
C667 C664 1.499 . S
C667 C668 1.373 . S
C667 C669 1.389 . S
C668 H641 0.950 . S
C668 C654 1.377 . S
C668 C667 1.373 . S
C669 C653 1.377 . S
C669 C667 1.389 . S
C669 C670 1.524 . S
C670 C669 1.524 . S
C670 C671 1.397 . S
C670 C675 1.363 . S
C671 H642 0.950 . S
C671 C670 1.397 . S
C671 C672 1.334 . S
C672 H643 0.950 . S
C672 C671 1.334 . S
C672 C673 1.287 . S
C673 C672 1.287 . S
C673 C674 1.524 . S
C673 H676 0.999 . S
C674 H644 0.950 . S
C674 C673 1.524 . S
C674 C675 1.415 . S
C675 H645 0.950 . S
C675 C670 1.363 . S
C675 C674 1.415 . S
H676 C673 0.999 . S
H677 C658 0.913 . S
H678 C696 0.951 . S
H679 C698 0.951 . S
H680 C700 0.950 . S
H681 C701 0.950 . S
H682 C703 0.950 . S
H683 C706 0.950 . S
H684 C707 0.950 . S
H685 C709 0.950 . S
H686 C710 0.950 . S
H687 C711 0.951 . S
H688 C713 0.951 . S
H689 C715 0.950 . S
H690 C716 0.950 . S
H691 C718 0.950 . S
H692 C721 0.950 . S
H693 C722 0.950 . S
H694 C724 0.950 . S
H695 C725 0.950 . S
C696 H678 0.951 . S
C696 C697 1.366 . S
C696 C698 1.388 . S
C697 C696 1.366 . S
C697 C701 1.385 . S
C698 H679 0.951 . S
C698 C696 1.388 . S
C698 C699 1.366 . S
C699 C698 1.366 . S
C699 C700 1.414 . S
C699 C702 1.499 . S
C700 H680 0.950 . S
C700 C699 1.414 . S
C700 C701 1.374 . S
C701 H681 0.950 . S
C701 C697 1.385 . S
C701 C700 1.374 . S
C702 C699 1.499 . S
C702 C703 1.373 . S
C702 C704 1.389 . S
C703 H682 0.950 . S
C703 C702 1.373 . S
C703 C719 1.377 . S
C704 C702 1.389 . S
C704 C705 1.524 . S
C704 C718 1.377 . S
C705 C704 1.524 . S
C705 C706 1.397 . S
C705 C710 1.363 . S
C706 H683 0.950 . S
C706 C705 1.397 . S
C706 C707 1.334 . S
C707 H684 0.950 . S
C707 C706 1.334 . S
C707 C708 1.287 . S
C708 C707 1.287 . S
C708 C709 1.524 . S
C708 H727 0.913 . S
C709 H685 0.950 . S
C709 C708 1.524 . S
C709 C710 1.415 . S
C710 H686 0.950 . S
C710 C705 1.363 . S
C710 C709 1.415 . S
C711 H687 0.951 . S
C711 C712 1.366 . S
C711 C713 1.388 . S
C712 C711 1.366 . S
C712 C716 1.385 . S
C713 H688 0.951 . S
C713 C711 1.388 . S
C713 C714 1.366 . S
C714 C713 1.366 . S
C714 C715 1.414 . S
C714 C717 1.499 . S
C715 H689 0.950 . S
C715 C714 1.414 . S
C715 C716 1.374 . S
C716 H690 0.950 . S
C716 C712 1.385 . S
C716 C715 1.374 . S
C717 C714 1.499 . S
C717 C718 1.373 . S
C717 C719 1.389 . S
C718 H691 0.950 . S
C718 C704 1.377 . S
C718 C717 1.373 . S
C719 C703 1.377 . S
C719 C717 1.389 . S
C719 C720 1.524 . S
C720 C719 1.524 . S
C720 C721 1.397 . S
C720 C725 1.363 . S
C721 H692 0.950 . S
C721 C720 1.397 . S
C721 C722 1.334 . S
C722 H693 0.950 . S
C722 C721 1.334 . S
C722 C723 1.287 . S
C723 C722 1.287 . S
C723 C724 1.524 . S
C723 H726 0.999 . S
C724 H694 0.950 . S
C724 C723 1.524 . S
C724 C725 1.415 . S
C725 H695 0.950 . S
C725 C720 1.363 . S
C725 C724 1.415 . S
H726 C723 0.999 . S
H727 C708 0.913 . S
H728 C746 0.951 . S
H729 C748 0.951 . S
H730 C750 0.950 . S
H731 C751 0.950 . S
H732 C753 0.950 . S
H733 C756 0.950 . S
H734 C757 0.950 . S
H735 C759 0.950 . S
H736 C760 0.950 . S
H737 C761 0.951 . S
H738 C763 0.951 . S
H739 C765 0.950 . S
H740 C766 0.950 . S
H741 C768 0.950 . S
H742 C771 0.950 . S
H743 C772 0.950 . S
H744 C774 0.950 . S
H745 C775 0.950 . S
C746 H728 0.951 . S
C746 C747 1.366 . S
C746 C748 1.388 . S
C747 C746 1.366 . S
C747 C751 1.385 . S
C748 H729 0.951 . S
C748 C746 1.388 . S
C748 C749 1.366 . S
C749 C748 1.366 . S
C749 C750 1.414 . S
C749 C752 1.499 . S
C750 H730 0.950 . S
C750 C749 1.414 . S
C750 C751 1.374 . S
C751 H731 0.950 . S
C751 C747 1.385 . S
C751 C750 1.374 . S
C752 C749 1.499 . S
C752 C753 1.373 . S
C752 C754 1.389 . S
C753 H732 0.950 . S
C753 C752 1.373 . S
C753 C769 1.377 . S
C754 C752 1.389 . S
C754 C755 1.524 . S
C754 C768 1.377 . S
C755 C754 1.524 . S
C755 C756 1.397 . S
C755 C760 1.363 . S
C756 H733 0.950 . S
C756 C755 1.397 . S
C756 C757 1.334 . S
C757 H734 0.950 . S
C757 C756 1.334 . S
C757 C758 1.287 . S
C758 C757 1.287 . S
C758 C759 1.524 . S
C758 H777 0.913 . S
C759 H735 0.950 . S
C759 C758 1.524 . S
C759 C760 1.415 . S
C760 H736 0.950 . S
C760 C755 1.363 . S
C760 C759 1.415 . S
C761 H737 0.951 . S
C761 C762 1.366 . S
C761 C763 1.388 . S
C762 C761 1.366 . S
C762 C766 1.385 . S
C763 H738 0.951 . S
C763 C761 1.388 . S
C763 C764 1.366 . S
C764 C763 1.366 . S
C764 C765 1.414 . S
C764 C767 1.499 . S
C765 H739 0.950 . S
C765 C764 1.414 . S
C765 C766 1.374 . S
C766 H740 0.950 . S
C766 C762 1.385 . S
C766 C765 1.374 . S
C767 C764 1.499 . S
C767 C768 1.373 . S
C767 C769 1.389 . S
C768 H741 0.950 . S
C768 C754 1.377 . S
C768 C767 1.373 . S
C769 C753 1.377 . S
C769 C767 1.389 . S
C769 C770 1.524 . S
C770 C769 1.524 . S
C770 C771 1.397 . S
C770 C775 1.363 . S
C771 H742 0.950 . S
C771 C770 1.397 . S
C771 C772 1.334 . S
C772 H743 0.950 . S
C772 C771 1.334 . S
C772 C773 1.287 . S
C773 C772 1.287 . S
C773 C774 1.524 . S
C773 H776 0.999 . S
C774 H744 0.950 . S
C774 C773 1.524 . S
C774 C775 1.415 . S
C775 H745 0.950 . S
C775 C770 1.363 . S
C775 C774 1.415 . S
H776 C773 0.999 . S
H777 C758 0.913 . S
H778 C796 0.951 . S
H779 C798 0.951 . S
H780 C800 0.950 . S
H781 C801 0.950 . S
H782 C803 0.950 . S
H783 C806 0.950 . S
H784 C807 0.950 . S
H785 C809 0.950 . S
H786 C810 0.950 . S
H787 C811 0.951 . S
H788 C813 0.951 . S
H789 C815 0.950 . S
H790 C816 0.950 . S
H791 C818 0.950 . S
H792 C821 0.950 . S
H793 C822 0.950 . S
H794 C824 0.950 . S
H795 C825 0.950 . S
C796 H778 0.951 . S
C796 C797 1.366 . S
C796 C798 1.388 . S
C797 C796 1.366 . S
C797 C801 1.385 . S
C798 H779 0.951 . S
C798 C796 1.388 . S
C798 C799 1.366 . S
C799 C798 1.366 . S
C799 C800 1.414 . S
C799 C802 1.499 . S
C800 H780 0.950 . S
C800 C799 1.414 . S
C800 C801 1.374 . S
C801 H781 0.950 . S
C801 C797 1.385 . S
C801 C800 1.374 . S
C802 C799 1.499 . S
C802 C803 1.373 . S
C802 C804 1.389 . S
C803 H782 0.950 . S
C803 C802 1.373 . S
C803 C819 1.377 . S
C804 C802 1.389 . S
C804 C805 1.524 . S
C804 C818 1.377 . S
C805 C804 1.524 . S
C805 C806 1.397 . S
C805 C810 1.363 . S
C806 H783 0.950 . S
C806 C805 1.397 . S
C806 C807 1.334 . S
C807 H784 0.950 . S
C807 C806 1.334 . S
C807 C808 1.287 . S
C808 C807 1.287 . S
C808 C809 1.524 . S
C808 H827 0.913 . S
C809 H785 0.950 . S
C809 C808 1.524 . S
C809 C810 1.415 . S
C810 H786 0.950 . S
C810 C805 1.363 . S
C810 C809 1.415 . S
C811 H787 0.951 . S
C811 C812 1.366 . S
C811 C813 1.388 . S
C812 C811 1.366 . S
C812 C816 1.385 . S
C813 H788 0.951 . S
C813 C811 1.388 . S
C813 C814 1.366 . S
C814 C813 1.366 . S
C814 C815 1.414 . S
C814 C817 1.499 . S
C815 H789 0.950 . S
C815 C814 1.414 . S
C815 C816 1.374 . S
C816 H790 0.950 . S
C816 C812 1.385 . S
C816 C815 1.374 . S
C817 C814 1.499 . S
C817 C818 1.373 . S
C817 C819 1.389 . S
C818 H791 0.950 . S
C818 C804 1.377 . S
C818 C817 1.373 . S
C819 C803 1.377 . S
C819 C817 1.389 . S
C819 C820 1.524 . S
C820 C819 1.524 . S
C820 C821 1.397 . S
C820 C825 1.363 . S
C821 H792 0.950 . S
C821 C820 1.397 . S
C821 C822 1.334 . S
C822 H793 0.950 . S
C822 C821 1.334 . S
C822 C823 1.287 . S
C823 C822 1.287 . S
C823 C824 1.524 . S
C823 H826 0.999 . S
C824 H794 0.950 . S
C824 C823 1.524 . S
C824 C825 1.415 . S
C825 H795 0.950 . S
C825 C820 1.363 . S
C825 C824 1.415 . S
H826 C823 0.999 . S
H827 C808 0.913 . S
H828 C846 0.951 . S
H829 C848 0.951 . S
H830 C850 0.950 . S
H831 C851 0.950 . S
H832 C853 0.950 . S
H833 C856 0.950 . S
H834 C857 0.950 . S
H835 C859 0.950 . S
H836 C860 0.950 . S
H837 C861 0.951 . S
H838 C863 0.951 . S
H839 C865 0.950 . S
H840 C866 0.950 . S
H841 C868 0.950 . S
H842 C871 0.950 . S
H843 C872 0.950 . S
H844 C874 0.950 . S
H845 C875 0.950 . S
C846 H828 0.951 . S
C846 C847 1.366 . S
C846 C848 1.388 . S
C847 C846 1.366 . S
C847 C851 1.385 . S
C848 H829 0.951 . S
C848 C846 1.388 . S
C848 C849 1.366 . S
C849 C848 1.366 . S
C849 C850 1.414 . S
C849 C852 1.499 . S
C850 H830 0.950 . S
C850 C849 1.414 . S
C850 C851 1.374 . S
C851 H831 0.950 . S
C851 C847 1.385 . S
C851 C850 1.374 . S
C852 C849 1.499 . S
C852 C853 1.373 . S
C852 C854 1.389 . S
C853 H832 0.950 . S
C853 C852 1.373 . S
C853 C869 1.377 . S
C854 C852 1.389 . S
C854 C855 1.524 . S
C854 C868 1.377 . S
C855 C854 1.524 . S
C855 C856 1.397 . S
C855 C860 1.363 . S
C856 H833 0.950 . S
C856 C855 1.397 . S
C856 C857 1.334 . S
C857 H834 0.950 . S
C857 C856 1.334 . S
C857 C858 1.287 . S
C858 C857 1.287 . S
C858 C859 1.524 . S
C858 H877 0.913 . S
C859 H835 0.950 . S
C859 C858 1.524 . S
C859 C860 1.415 . S
C860 H836 0.950 . S
C860 C855 1.363 . S
C860 C859 1.415 . S
C861 H837 0.951 . S
C861 C862 1.366 . S
C861 C863 1.388 . S
C862 C861 1.366 . S
C862 C866 1.385 . S
C863 H838 0.951 . S
C863 C861 1.388 . S
C863 C864 1.366 . S
C864 C863 1.366 . S
C864 C865 1.414 . S
C864 C867 1.499 . S
C865 H839 0.950 . S
C865 C864 1.414 . S
C865 C866 1.374 . S
C866 H840 0.950 . S
C866 C862 1.385 . S
C866 C865 1.374 . S
C867 C864 1.499 . S
C867 C868 1.373 . S
C867 C869 1.389 . S
C868 H841 0.950 . S
C868 C854 1.377 . S
C868 C867 1.373 . S
C869 C853 1.377 . S
C869 C867 1.389 . S
C869 C870 1.524 . S
C870 C869 1.524 . S
C870 C871 1.397 . S
C870 C875 1.363 . S
C871 H842 0.950 . S
C871 C870 1.397 . S
C871 C872 1.334 . S
C872 H843 0.950 . S
C872 C871 1.334 . S
C872 C873 1.287 . S
C873 C872 1.287 . S
C873 C874 1.524 . S
C873 H876 0.999 . S
C874 H844 0.950 . S
C874 C873 1.524 . S
C874 C875 1.415 . S
C875 H845 0.950 . S
C875 C870 1.363 . S
C875 C874 1.415 . S
H876 C873 0.999 . S
H877 C858 0.913 . S
H878 C896 0.951 . S
H879 C898 0.951 . S
H880 C900 0.950 . S
H881 C901 0.950 . S
H882 C903 0.950 . S
H883 C906 0.950 . S
H884 C907 0.950 . S
H885 C909 0.950 . S
H886 C910 0.950 . S
H887 C911 0.951 . S
H888 C913 0.951 . S
H889 C915 0.950 . S
H890 C916 0.950 . S
H891 C918 0.950 . S
H892 C921 0.950 . S
H893 C922 0.950 . S
H894 C924 0.950 . S
H895 C925 0.950 . S
C896 H878 0.951 . S
C896 C897 1.366 . S
C896 C898 1.388 . S
C897 C896 1.366 . S
C897 C901 1.385 . S
C898 H879 0.951 . S
C898 C896 1.388 . S
C898 C899 1.366 . S
C899 C898 1.366 . S
C899 C900 1.414 . S
C899 C902 1.499 . S
C900 H880 0.950 . S
C900 C899 1.414 . S
C900 C901 1.374 . S
C901 H881 0.950 . S
C901 C897 1.385 . S
C901 C900 1.374 . S
C902 C899 1.499 . S
C902 C903 1.373 . S
C902 C904 1.389 . S
C903 H882 0.950 . S
C903 C902 1.373 . S
C903 C919 1.377 . S
C904 C902 1.389 . S
C904 C905 1.524 . S
C904 C918 1.377 . S
C905 C904 1.524 . S
C905 C906 1.397 . S
C905 C910 1.363 . S
C906 H883 0.950 . S
C906 C905 1.397 . S
C906 C907 1.334 . S
C907 H884 0.950 . S
C907 C906 1.334 . S
C907 C908 1.287 . S
C908 C907 1.287 . S
C908 C909 1.524 . S
C908 H927 0.913 . S
C909 H885 0.950 . S
C909 C908 1.524 . S
C909 C910 1.415 . S
C910 H886 0.950 . S
C910 C905 1.363 . S
C910 C909 1.415 . S
C911 H887 0.951 . S
C911 C912 1.366 . S
C911 C913 1.388 . S
C912 C911 1.366 . S
C912 C916 1.385 . S
C913 H888 0.951 . S
C913 C911 1.388 . S
C913 C914 1.366 . S
C914 C913 1.366 . S
C914 C915 1.414 . S
C914 C917 1.499 . S
C915 H889 0.950 . S
C915 C914 1.414 . S
C915 C916 1.374 . S
C916 H890 0.950 . S
C916 C912 1.385 . S
C916 C915 1.374 . S
C917 C914 1.499 . S
C917 C918 1.373 . S
C917 C919 1.389 . S
C918 H891 0.950 . S
C918 C904 1.377 . S
C918 C917 1.373 . S
C919 C903 1.377 . S
C919 C917 1.389 . S
C919 C920 1.524 . S
C920 C919 1.524 . S
C920 C921 1.397 . S
C920 C925 1.363 . S
C921 H892 0.950 . S
C921 C920 1.397 . S
C921 C922 1.334 . S
C922 H893 0.950 . S
C922 C921 1.334 . S
C922 C923 1.287 . S
C923 C922 1.287 . S
C923 C924 1.524 . S
C923 H926 0.999 . S
C924 H894 0.950 . S
C924 C923 1.524 . S
C924 C925 1.415 . S
C925 H895 0.950 . S
C925 C920 1.363 . S
C925 C924 1.415 . S
H926 C923 0.999 . S
H927 C908 0.913 . S
H928 C946 0.951 . S
H929 C948 0.951 . S
H930 C950 0.950 . S
H931 C951 0.950 . S
H932 C953 0.950 . S
H933 C956 0.950 . S
H934 C957 0.950 . S
H935 C959 0.950 . S
H936 C960 0.950 . S
H937 C961 0.951 . S
H938 C963 0.951 . S
H939 C965 0.950 . S
H940 C966 0.950 . S
H941 C968 0.950 . S
H942 C971 0.950 . S
H943 C972 0.950 . S
H944 C974 0.950 . S
H945 C975 0.950 . S
C946 H928 0.951 . S
C946 C947 1.366 . S
C946 C948 1.388 . S
C947 C946 1.366 . S
C947 C951 1.385 . S
C948 H929 0.951 . S
C948 C946 1.388 . S
C948 C949 1.366 . S
C949 C948 1.366 . S
C949 C950 1.414 . S
C949 C952 1.499 . S
C950 H930 0.950 . S
C950 C949 1.414 . S
C950 C951 1.374 . S
C951 H931 0.950 . S
C951 C947 1.385 . S
C951 C950 1.374 . S
C952 C949 1.499 . S
C952 C953 1.373 . S
C952 C954 1.389 . S
C953 H932 0.950 . S
C953 C952 1.373 . S
C953 C969 1.377 . S
C954 C952 1.389 . S
C954 C955 1.524 . S
C954 C968 1.377 . S
C955 C954 1.524 . S
C955 C956 1.397 . S
C955 C960 1.363 . S
C956 H933 0.950 . S
C956 C955 1.397 . S
C956 C957 1.334 . S
C957 H934 0.950 . S
C957 C956 1.334 . S
C957 C958 1.287 . S
C958 C957 1.287 . S
C958 C959 1.524 . S
C958 H977 0.913 . S
C959 H935 0.950 . S
C959 C958 1.524 . S
C959 C960 1.415 . S
C960 H936 0.950 . S
C960 C955 1.363 . S
C960 C959 1.415 . S
C961 H937 0.951 . S
C961 C962 1.366 . S
C961 C963 1.388 . S
C962 C961 1.366 . S
C962 C966 1.385 . S
C963 H938 0.951 . S
C963 C961 1.388 . S
C963 C964 1.366 . S
C964 C963 1.366 . S
C964 C965 1.414 . S
C964 C967 1.499 . S
C965 H939 0.950 . S
C965 C964 1.414 . S
C965 C966 1.374 . S
C966 H940 0.950 . S
C966 C962 1.385 . S
C966 C965 1.374 . S
C967 C964 1.499 . S
C967 C968 1.373 . S
C967 C969 1.389 . S
C968 H941 0.950 . S
C968 C954 1.377 . S
C968 C967 1.373 . S
C969 C953 1.377 . S
C969 C967 1.389 . S
C969 C970 1.524 . S
C970 C969 1.524 . S
C970 C971 1.397 . S
C970 C975 1.363 . S
C971 H942 0.950 . S
C971 C970 1.397 . S
C971 C972 1.334 . S
C972 H943 0.950 . S
C972 C971 1.334 . S
C972 C973 1.287 . S
C973 C972 1.287 . S
C973 C974 1.524 . S
C973 H976 0.999 . S
C974 H944 0.950 . S
C974 C973 1.524 . S
C974 C975 1.415 . S
C975 H945 0.950 . S
C975 C970 1.363 . S
C975 C974 1.415 . S
H976 C973 0.999 . S
H977 C958 0.913 . S
H978 C996 0.951 . S
H979 C998 0.951 . S
H980 C1000 0.950 . S
H981 C1001 0.950 . S
H982 C1003 0.950 . S
H983 C1006 0.950 . S
H984 C1007 0.950 . S
H985 C1009 0.950 . S
H986 C1010 0.950 . S
H987 C1011 0.951 . S
H988 C1013 0.951 . S
H989 C1015 0.950 . S
H990 C1016 0.950 . S
H991 C1018 0.950 . S
H992 C1021 0.950 . S
H993 C1022 0.950 . S
H994 C1024 0.950 . S
H995 C1025 0.950 . S
C996 H978 0.951 . S
C996 C997 1.366 . S
C996 C998 1.388 . S
C997 C996 1.366 . S
C997 C1001 1.385 . S
C998 H979 0.951 . S
C998 C996 1.388 . S
C998 C999 1.366 . S
C999 C998 1.366 . S
C999 C1000 1.414 . S
C999 C1002 1.499 . S
C1000 H980 0.950 . S
C1000 C999 1.414 . S
C1000 C1001 1.374 . S
C1001 H981 0.950 . S
C1001 C997 1.385 . S
C1001 C1000 1.374 . S
C1002 C999 1.499 . S
C1002 C1003 1.373 . S
C1002 C1004 1.389 . S
C1003 H982 0.950 . S
C1003 C1002 1.373 . S
C1003 C1019 1.377 . S
C1004 C1002 1.389 . S
C1004 C1005 1.524 . S
C1004 C1018 1.377 . S
C1005 C1004 1.524 . S
C1005 C1006 1.397 . S
C1005 C1010 1.363 . S
C1006 H983 0.950 . S
C1006 C1005 1.397 . S
C1006 C1007 1.334 . S
C1007 H984 0.950 . S
C1007 C1006 1.334 . S
C1007 C1008 1.287 . S
C1008 C1007 1.287 . S
C1008 C1009 1.524 . S
C1008 H1027 0.913 . S
C1009 H985 0.950 . S
C1009 C1008 1.524 . S
C1009 C1010 1.415 . S
C1010 H986 0.950 . S
C1010 C1005 1.363 . S
C1010 C1009 1.415 . S
C1011 H987 0.951 . S
C1011 C1012 1.366 . S
C1011 C1013 1.388 . S
C1012 C1011 1.366 . S
C1012 C1016 1.385 . S
C1013 H988 0.951 . S
C1013 C1011 1.388 . S
C1013 C1014 1.366 . S
C1014 C1013 1.366 . S
C1014 C1015 1.414 . S
C1014 C1017 1.499 . S
C1015 H989 0.950 . S
C1015 C1014 1.414 . S
C1015 C1016 1.374 . S
C1016 H990 0.950 . S
C1016 C1012 1.385 . S
C1016 C1015 1.374 . S
C1017 C1014 1.499 . S
C1017 C1018 1.373 . S
C1017 C1019 1.389 . S
C1018 H991 0.950 . S
C1018 C1004 1.377 . S
C1018 C1017 1.373 . S
C1019 C1003 1.377 . S
C1019 C1017 1.389 . S
C1019 C1020 1.524 . S
C1020 C1019 1.524 . S
C1020 C1021 1.397 . S
C1020 C1025 1.363 . S
C1021 H992 0.950 . S
C1021 C1020 1.397 . S
C1021 C1022 1.334 . S
C1022 H993 0.950 . S
C1022 C1021 1.334 . S
C1022 C1023 1.287 . S
C1023 C1022 1.287 . S
C1023 C1024 1.524 . S
C1023 H1026 0.999 . S
C1024 H994 0.950 . S
C1024 C1023 1.524 . S
C1024 C1025 1.415 . S
C1025 H995 0.950 . S
C1025 C1020 1.363 . S
C1025 C1024 1.415 . S
H1026 C1023 0.999 . S
H1027 C1008 0.913 . S
H1028 C1046 0.951 . S
H1029 C1048 0.951 . S
H1030 C1050 0.950 . S
H1031 C1051 0.950 . S
H1032 C1053 0.950 . S
H1033 C1056 0.950 . S
H1034 C1057 0.950 . S
H1035 C1059 0.950 . S
H1036 C1060 0.950 . S
H1037 C1061 0.951 . S
H1038 C1063 0.951 . S
H1039 C1065 0.950 . S
H1040 C1066 0.950 . S
H1041 C1068 0.950 . S
H1042 C1071 0.950 . S
H1043 C1072 0.950 . S
H1044 C1074 0.950 . S
H1045 C1075 0.950 . S
C1046 H1028 0.951 . S
C1046 C1047 1.366 . S
C1046 C1048 1.388 . S
C1047 C1046 1.366 . S
C1047 C1051 1.385 . S
C1048 H1029 0.951 . S
C1048 C1046 1.388 . S
C1048 C1049 1.366 . S
C1049 C1048 1.366 . S
C1049 C1050 1.414 . S
C1049 C1052 1.499 . S
C1050 H1030 0.950 . S
C1050 C1049 1.414 . S
C1050 C1051 1.374 . S
C1051 H1031 0.950 . S
C1051 C1047 1.385 . S
C1051 C1050 1.374 . S
C1052 C1049 1.499 . S
C1052 C1053 1.373 . S
C1052 C1054 1.389 . S
C1053 H1032 0.950 . S
C1053 C1052 1.373 . S
C1053 C1069 1.377 . S
C1054 C1052 1.389 . S
C1054 C1055 1.524 . S
C1054 C1068 1.377 . S
C1055 C1054 1.524 . S
C1055 C1056 1.397 . S
C1055 C1060 1.363 . S
C1056 H1033 0.950 . S
C1056 C1055 1.397 . S
C1056 C1057 1.334 . S
C1057 H1034 0.950 . S
C1057 C1056 1.334 . S
C1057 C1058 1.287 . S
C1058 C1057 1.287 . S
C1058 C1059 1.524 . S
C1058 H1077 0.913 . S
C1059 H1035 0.950 . S
C1059 C1058 1.524 . S
C1059 C1060 1.415 . S
C1060 H1036 0.950 . S
C1060 C1055 1.363 . S
C1060 C1059 1.415 . S
C1061 H1037 0.951 . S
C1061 C1062 1.366 . S
C1061 C1063 1.388 . S
C1062 C1061 1.366 . S
C1062 C1066 1.385 . S
C1063 H1038 0.951 . S
C1063 C1061 1.388 . S
C1063 C1064 1.366 . S
C1064 C1063 1.366 . S
C1064 C1065 1.414 . S
C1064 C1067 1.499 . S
C1065 H1039 0.950 . S
C1065 C1064 1.414 . S
C1065 C1066 1.374 . S
C1066 H1040 0.950 . S
C1066 C1062 1.385 . S
C1066 C1065 1.374 . S
C1067 C1064 1.499 . S
C1067 C1068 1.373 . S
C1067 C1069 1.389 . S
C1068 H1041 0.950 . S
C1068 C1054 1.377 . S
C1068 C1067 1.373 . S
C1069 C1053 1.377 . S
C1069 C1067 1.389 . S
C1069 C1070 1.524 . S
C1070 C1069 1.524 . S
C1070 C1071 1.397 . S
C1070 C1075 1.363 . S
C1071 H1042 0.950 . S
C1071 C1070 1.397 . S
C1071 C1072 1.334 . S
C1072 H1043 0.950 . S
C1072 C1071 1.334 . S
C1072 C1073 1.287 . S
C1073 C1072 1.287 . S
C1073 C1074 1.524 . S
C1073 H1076 0.999 . S
C1074 H1044 0.950 . S
C1074 C1073 1.524 . S
C1074 C1075 1.415 . S
C1075 H1045 0.950 . S
C1075 C1070 1.363 . S
C1075 C1074 1.415 . S
H1076 C1073 0.999 . S
H1077 C1058 0.913 . S
H1078 C1096 0.951 . S
H1079 C1098 0.951 . S
H1080 C1100 0.950 . S
H1081 C1101 0.950 . S
H1082 C1103 0.950 . S
H1083 C1106 0.950 . S
H1084 C1107 0.950 1_545 S
H1085 C1109 0.950 . S
H1086 C1110 0.950 . S
H1087 C1111 0.951 . S
H1088 C1113 0.951 . S
H1089 C1115 0.950 . S
H1090 C1116 0.950 . S
H1091 C1118 0.950 . S
H1092 C1121 0.950 . S
H1093 C1122 0.950 . S
H1094 C1124 0.950 . S
H1095 C1125 0.950 . S
C1096 H1078 0.951 . S
C1096 C1097 1.366 . S
C1096 C1098 1.388 . S
C1097 C1096 1.366 . S
C1097 C1101 1.385 . S
C1098 H1079 0.951 . S
C1098 C1096 1.388 . S
C1098 C1099 1.366 . S
C1099 C1098 1.366 . S
C1099 C1100 1.414 . S
C1099 C1102 1.499 . S
C1100 H1080 0.950 . S
C1100 C1099 1.414 . S
C1100 C1101 1.374 . S
C1101 H1081 0.950 . S
C1101 C1097 1.385 . S
C1101 C1100 1.374 . S
C1102 C1099 1.499 . S
C1102 C1103 1.373 . S
C1102 C1104 1.389 . S
C1103 H1082 0.950 . S
C1103 C1102 1.373 . S
C1103 C1119 1.377 . S
C1104 C1102 1.389 . S
C1104 C1105 1.524 . S
C1104 C1118 1.377 . S
C1105 C1104 1.524 . S
C1105 C1106 1.397 . S
C1105 C1110 1.363 . S
C1106 H1083 0.950 . S
C1106 C1105 1.397 . S
C1106 C1107 1.334 . S
C1107 H1084 0.950 1_565 S
C1107 C1106 1.334 . S
C1107 C1108 1.287 . S
C1108 C1107 1.287 . S
C1108 C1109 1.524 . S
C1108 H1127 0.913 1_565 S
C1109 H1085 0.950 . S
C1109 C1108 1.524 . S
C1109 C1110 1.415 . S
C1110 H1086 0.950 . S
C1110 C1105 1.363 . S
C1110 C1109 1.415 . S
C1111 H1087 0.951 . S
C1111 C1112 1.366 . S
C1111 C1113 1.388 . S
C1112 C1111 1.366 . S
C1112 C1116 1.385 . S
C1113 H1088 0.951 . S
C1113 C1111 1.388 . S
C1113 C1114 1.366 . S
C1114 C1113 1.366 . S
C1114 C1115 1.414 . S
C1114 C1117 1.499 . S
C1115 H1089 0.950 . S
C1115 C1114 1.414 . S
C1115 C1116 1.374 . S
C1116 H1090 0.950 . S
C1116 C1112 1.385 . S
C1116 C1115 1.374 . S
C1117 C1114 1.499 . S
C1117 C1118 1.373 . S
C1117 C1119 1.389 . S
C1118 H1091 0.950 . S
C1118 C1104 1.377 . S
C1118 C1117 1.373 . S
C1119 C1103 1.377 . S
C1119 C1117 1.389 . S
C1119 C1120 1.524 . S
C1120 C1119 1.524 . S
C1120 C1121 1.397 . S
C1120 C1125 1.363 . S
C1121 H1092 0.950 . S
C1121 C1120 1.397 . S
C1121 C1122 1.334 . S
C1122 H1093 0.950 . S
C1122 C1121 1.334 . S
C1122 C1123 1.287 . S
C1123 C1122 1.287 . S
C1123 C1124 1.524 . S
C1123 H1126 0.999 . S
C1124 H1094 0.950 . S
C1124 C1123 1.524 . S
C1124 C1125 1.415 . S
C1125 H1095 0.950 . S
C1125 C1120 1.363 . S
C1125 C1124 1.415 . S
H1126 C1123 0.999 . S
H1127 C1108 0.913 1_545 S
H1128 C1146 0.951 . S
H1129 C1148 0.951 . S
H1130 C1150 0.950 . S
H1131 C1151 0.950 . S
H1132 C1153 0.950 . S
H1133 C1156 0.950 . S
H1134 C1157 0.950 . S
H1135 C1159 0.950 . S
H1136 C1160 0.950 . S
H1137 C1161 0.951 . S
H1138 C1163 0.951 . S
H1139 C1165 0.950 . S
H1140 C1166 0.950 . S
H1141 C1168 0.950 . S
H1142 C1171 0.950 . S
H1143 C1172 0.950 . S
H1144 C1174 0.950 . S
H1145 C1175 0.950 . S
C1146 H1128 0.951 . S
C1146 C1147 1.366 . S
C1146 C1148 1.388 . S
C1147 C1146 1.366 . S
C1147 C1151 1.385 . S
C1148 H1129 0.951 . S
C1148 C1146 1.388 . S
C1148 C1149 1.366 . S
C1149 C1148 1.366 . S
C1149 C1150 1.414 . S
C1149 C1152 1.499 . S
C1150 H1130 0.950 . S
C1150 C1149 1.414 . S
C1150 C1151 1.374 . S
C1151 H1131 0.950 . S
C1151 C1147 1.385 . S
C1151 C1150 1.374 . S
C1152 C1149 1.499 . S
C1152 C1153 1.373 . S
C1152 C1154 1.389 . S
C1153 H1132 0.950 . S
C1153 C1152 1.373 . S
C1153 C1169 1.377 . S
C1154 C1152 1.389 . S
C1154 C1155 1.524 . S
C1154 C1168 1.377 . S
C1155 C1154 1.524 . S
C1155 C1156 1.397 . S
C1155 C1160 1.363 . S
C1156 H1133 0.950 . S
C1156 C1155 1.397 . S
C1156 C1157 1.334 . S
C1157 H1134 0.950 . S
C1157 C1156 1.334 . S
C1157 C1158 1.287 . S
C1158 C1157 1.287 . S
C1158 C1159 1.524 . S
C1158 H1177 0.913 . S
C1159 H1135 0.950 . S
C1159 C1158 1.524 . S
C1159 C1160 1.415 . S
C1160 H1136 0.950 . S
C1160 C1155 1.363 . S
C1160 C1159 1.415 . S
C1161 H1137 0.951 . S
C1161 C1162 1.366 . S
C1161 C1163 1.388 . S
C1162 C1161 1.366 . S
C1162 C1166 1.385 . S
C1163 H1138 0.951 . S
C1163 C1161 1.388 . S
C1163 C1164 1.366 . S
C1164 C1163 1.366 . S
C1164 C1165 1.414 . S
C1164 C1167 1.499 . S
C1165 H1139 0.950 . S
C1165 C1164 1.414 . S
C1165 C1166 1.374 . S
C1166 H1140 0.950 . S
C1166 C1162 1.385 . S
C1166 C1165 1.374 . S
C1167 C1164 1.499 . S
C1167 C1168 1.373 . S
C1167 C1169 1.389 . S
C1168 H1141 0.950 . S
C1168 C1154 1.377 . S
C1168 C1167 1.373 . S
C1169 C1153 1.377 . S
C1169 C1167 1.389 . S
C1169 C1170 1.524 . S
C1170 C1169 1.524 . S
C1170 C1171 1.397 . S
C1170 C1175 1.363 . S
C1171 H1142 0.950 . S
C1171 C1170 1.397 . S
C1171 C1172 1.334 . S
C1172 H1143 0.950 . S
C1172 C1171 1.334 . S
C1172 C1173 1.287 . S
C1173 C1172 1.287 . S
C1173 C1174 1.524 . S
C1173 H1176 0.999 . S
C1174 H1144 0.950 . S
C1174 C1173 1.524 . S
C1174 C1175 1.415 . S
C1175 H1145 0.950 . S
C1175 C1170 1.363 . S
C1175 C1174 1.415 . S
H1176 C1173 0.999 . S
H1177 C1158 0.913 . S
H1178 C1196 0.951 . S
H1179 C1198 0.951 . S
H1180 C1200 0.950 . S
H1181 C1201 0.950 . S
H1182 C1203 0.950 . S
H1183 C1206 0.950 . S
H1184 C1207 0.950 . S
H1185 C1209 0.950 . S
H1186 C1210 0.950 . S
H1187 C1211 0.951 . S
H1188 C1213 0.951 . S
H1189 C1215 0.950 . S
H1190 C1216 0.950 . S
H1191 C1218 0.950 . S
H1192 C1221 0.950 . S
H1193 C1222 0.950 . S
H1194 C1224 0.950 . S
H1195 C1225 0.950 . S
C1196 H1178 0.951 . S
C1196 C1197 1.366 . S
C1196 C1198 1.388 . S
C1197 C1196 1.366 . S
C1197 C1201 1.385 . S
C1198 H1179 0.951 . S
C1198 C1196 1.388 . S
C1198 C1199 1.366 . S
C1199 C1198 1.366 . S
C1199 C1200 1.414 . S
C1199 C1202 1.499 . S
C1200 H1180 0.950 . S
C1200 C1199 1.414 . S
C1200 C1201 1.374 . S
C1201 H1181 0.950 . S
C1201 C1197 1.385 . S
C1201 C1200 1.374 . S
C1202 C1199 1.499 . S
C1202 C1203 1.373 . S
C1202 C1204 1.389 . S
C1203 H1182 0.950 . S
C1203 C1202 1.373 . S
C1203 C1219 1.377 . S
C1204 C1202 1.389 . S
C1204 C1205 1.524 . S
C1204 C1218 1.377 . S
C1205 C1204 1.524 . S
C1205 C1206 1.397 . S
C1205 C1210 1.363 . S
C1206 H1183 0.950 . S
C1206 C1205 1.397 . S
C1206 C1207 1.334 . S
C1207 H1184 0.950 . S
C1207 C1206 1.334 . S
C1207 C1208 1.287 . S
C1208 C1207 1.287 . S
C1208 C1209 1.524 . S
C1208 H1227 0.913 . S
C1209 H1185 0.950 . S
C1209 C1208 1.524 . S
C1209 C1210 1.415 . S
C1210 H1186 0.950 . S
C1210 C1205 1.363 . S
C1210 C1209 1.415 . S
C1211 H1187 0.951 . S
C1211 C1212 1.366 . S
C1211 C1213 1.388 . S
C1212 C1211 1.366 . S
C1212 C1216 1.385 . S
C1213 H1188 0.951 . S
C1213 C1211 1.388 . S
C1213 C1214 1.366 . S
C1214 C1213 1.366 . S
C1214 C1215 1.414 . S
C1214 C1217 1.499 . S
C1215 H1189 0.950 . S
C1215 C1214 1.414 . S
C1215 C1216 1.374 . S
C1216 H1190 0.950 . S
C1216 C1212 1.385 . S
C1216 C1215 1.374 . S
C1217 C1214 1.499 . S
C1217 C1218 1.373 . S
C1217 C1219 1.389 . S
C1218 H1191 0.950 . S
C1218 C1204 1.377 . S
C1218 C1217 1.373 . S
C1219 C1203 1.377 . S
C1219 C1217 1.389 . S
C1219 C1220 1.524 . S
C1220 C1219 1.524 . S
C1220 C1221 1.397 . S
C1220 C1225 1.363 . S
C1221 H1192 0.950 . S
C1221 C1220 1.397 . S
C1221 C1222 1.334 . S
C1222 H1193 0.950 . S
C1222 C1221 1.334 . S
C1222 C1223 1.287 . S
C1223 C1222 1.287 . S
C1223 C1224 1.524 . S
C1223 H1226 0.999 1_455 S
C1224 H1194 0.950 . S
C1224 C1223 1.524 . S
C1224 C1225 1.415 . S
C1225 H1195 0.950 . S
C1225 C1220 1.363 . S
C1225 C1224 1.415 . S
H1226 C1223 0.999 1_655 S
H1227 C1208 0.913 . S
H1228 C1246 0.951 . S
H1229 C1248 0.951 . S
H1230 C1250 0.950 . S
H1231 C1251 0.950 . S
H1232 C1253 0.950 . S
H1233 C1256 0.950 . S
H1234 C1257 0.950 . S
H1235 C1259 0.950 . S
H1236 C1260 0.950 . S
H1237 C1261 0.951 . S
H1238 C1263 0.951 . S
H1239 C1265 0.950 . S
H1240 C1266 0.950 . S
H1241 C1268 0.950 . S
H1242 C1271 0.950 . S
H1243 C1272 0.950 . S
H1244 C1274 0.950 . S
H1245 C1275 0.950 . S
C1246 H1228 0.951 . S
C1246 C1247 1.366 . S
C1246 C1248 1.388 . S
C1247 C1246 1.366 . S
C1247 C1251 1.385 . S
C1248 H1229 0.951 . S
C1248 C1246 1.388 . S
C1248 C1249 1.366 . S
C1249 C1248 1.366 . S
C1249 C1250 1.414 . S
C1249 C1252 1.499 . S
C1250 H1230 0.950 . S
C1250 C1249 1.414 . S
C1250 C1251 1.374 . S
C1251 H1231 0.950 . S
C1251 C1247 1.385 . S
C1251 C1250 1.374 . S
C1252 C1249 1.499 . S
C1252 C1253 1.373 . S
C1252 C1254 1.389 . S
C1253 H1232 0.950 . S
C1253 C1252 1.373 . S
C1253 C1269 1.377 . S
C1254 C1252 1.389 . S
C1254 C1255 1.524 . S
C1254 C1268 1.377 . S
C1255 C1254 1.524 . S
C1255 C1256 1.397 . S
C1255 C1260 1.363 . S
C1256 H1233 0.950 . S
C1256 C1255 1.397 . S
C1256 C1257 1.334 . S
C1257 H1234 0.950 . S
C1257 C1256 1.334 . S
C1257 C1258 1.287 . S
C1258 C1257 1.287 . S
C1258 C1259 1.524 . S
C1258 H1277 0.913 1_655 S
C1259 H1235 0.950 . S
C1259 C1258 1.524 . S
C1259 C1260 1.415 . S
C1260 H1236 0.950 . S
C1260 C1255 1.363 . S
C1260 C1259 1.415 . S
C1261 H1237 0.951 . S
C1261 C1262 1.366 . S
C1261 C1263 1.388 . S
C1262 C1261 1.366 . S
C1262 C1266 1.385 . S
C1263 H1238 0.951 . S
C1263 C1261 1.388 . S
C1263 C1264 1.366 . S
C1264 C1263 1.366 . S
C1264 C1265 1.414 . S
C1264 C1267 1.499 . S
C1265 H1239 0.950 . S
C1265 C1264 1.414 . S
C1265 C1266 1.374 . S
C1266 H1240 0.950 . S
C1266 C1262 1.385 . S
C1266 C1265 1.374 . S
C1267 C1264 1.499 . S
C1267 C1268 1.373 . S
C1267 C1269 1.389 . S
C1268 H1241 0.950 . S
C1268 C1254 1.377 . S
C1268 C1267 1.373 . S
C1269 C1253 1.377 . S
C1269 C1267 1.389 . S
C1269 C1270 1.524 . S
C1270 C1269 1.524 . S
C1270 C1271 1.397 . S
C1270 C1275 1.363 . S
C1271 H1242 0.950 . S
C1271 C1270 1.397 . S
C1271 C1272 1.334 . S
C1272 H1243 0.950 . S
C1272 C1271 1.334 . S
C1272 C1273 1.287 . S
C1273 C1272 1.287 . S
C1273 C1274 1.524 . S
C1273 H1276 0.999 . S
C1274 H1244 0.950 . S
C1274 C1273 1.524 . S
C1274 C1275 1.415 . S
C1275 H1245 0.950 . S
C1275 C1270 1.363 . S
C1275 C1274 1.415 . S
H1276 C1273 0.999 . S
H1277 C1258 0.913 1_455 S
H1278 C1296 0.951 . S
H1279 C1298 0.951 . S
H1280 C1300 0.950 . S
H1281 C1301 0.950 . S
H1282 C1303 0.950 . S
H1283 C1306 0.950 . S
H1284 C1307 0.950 . S
H1285 C1309 0.950 . S
H1286 C1310 0.950 . S
H1287 C1311 0.951 . S
H1288 C1313 0.951 . S
H1289 C1315 0.950 . S
H1290 C1316 0.950 . S
H1291 C1318 0.950 . S
H1292 C1321 0.950 . S
H1293 C1322 0.950 . S
H1294 C1324 0.950 . S
H1295 C1325 0.950 . S
C1296 H1278 0.951 . S
C1296 C1297 1.366 . S
C1296 C1298 1.388 . S
C1297 C1296 1.366 . S
C1297 C1301 1.385 . S
C1298 H1279 0.951 . S
C1298 C1296 1.388 . S
C1298 C1299 1.366 . S
C1299 C1298 1.366 . S
C1299 C1300 1.414 . S
C1299 C1302 1.499 . S
C1300 H1280 0.950 . S
C1300 C1299 1.414 . S
C1300 C1301 1.374 . S
C1301 H1281 0.950 . S
C1301 C1297 1.385 . S
C1301 C1300 1.374 . S
C1302 C1299 1.499 . S
C1302 C1303 1.373 . S
C1302 C1304 1.389 . S
C1303 H1282 0.950 . S
C1303 C1302 1.373 . S
C1303 C1319 1.377 . S
C1304 C1302 1.389 . S
C1304 C1305 1.524 . S
C1304 C1318 1.377 . S
C1305 C1304 1.524 . S
C1305 C1306 1.397 . S
C1305 C1310 1.363 . S
C1306 H1283 0.950 . S
C1306 C1305 1.397 . S
C1306 C1307 1.334 . S
C1307 H1284 0.950 . S
C1307 C1306 1.334 . S
C1307 C1308 1.287 . S
C1308 C1307 1.287 . S
C1308 C1309 1.524 . S
C1308 H1327 0.913 1_565 S
C1309 H1285 0.950 . S
C1309 C1308 1.524 . S
C1309 C1310 1.415 . S
C1310 H1286 0.950 . S
C1310 C1305 1.363 . S
C1310 C1309 1.415 . S
C1311 H1287 0.951 . S
C1311 C1312 1.366 . S
C1311 C1313 1.388 . S
C1312 C1311 1.366 . S
C1312 C1316 1.385 . S
C1313 H1288 0.951 . S
C1313 C1311 1.388 . S
C1313 C1314 1.366 . S
C1314 C1313 1.366 . S
C1314 C1315 1.414 . S
C1314 C1317 1.499 . S
C1315 H1289 0.950 . S
C1315 C1314 1.414 . S
C1315 C1316 1.374 . S
C1316 H1290 0.950 . S
C1316 C1312 1.385 . S
C1316 C1315 1.374 . S
C1317 C1314 1.499 . S
C1317 C1318 1.373 . S
C1317 C1319 1.389 . S
C1318 H1291 0.950 . S
C1318 C1304 1.377 . S
C1318 C1317 1.373 . S
C1319 C1303 1.377 . S
C1319 C1317 1.389 . S
C1319 C1320 1.524 . S
C1320 C1319 1.524 . S
C1320 C1321 1.397 . S
C1320 C1325 1.363 . S
C1321 H1292 0.950 . S
C1321 C1320 1.397 . S
C1321 C1322 1.334 . S
C1322 H1293 0.950 . S
C1322 C1321 1.334 . S
C1322 C1323 1.287 . S
C1323 C1322 1.287 . S
C1323 C1324 1.524 . S
C1323 H1326 0.999 . S
C1324 H1294 0.950 . S
C1324 C1323 1.524 . S
C1324 C1325 1.415 . S
C1325 H1295 0.950 . S
C1325 C1320 1.363 . S
C1325 C1324 1.415 . S
H1326 C1323 0.999 . S
H1327 C1308 0.913 1_545 S
H1328 C1346 0.951 . S
H1329 C1348 0.951 . S
H1330 C1350 0.950 . S
H1331 C1351 0.950 . S
H1332 C1353 0.950 . S
H1333 C1356 0.950 . S
H1334 C1357 0.950 . S
H1335 C1359 0.950 . S
H1336 C1360 0.950 . S
H1337 C1361 0.951 . S
H1338 C1363 0.951 . S
H1339 C1365 0.950 . S
H1340 C1366 0.950 . S
H1341 C1368 0.950 . S
H1342 C1371 0.950 . S
H1343 C1372 0.950 . S
H1344 C1374 0.950 . S
H1345 C1375 0.950 . S
C1346 H1328 0.951 . S
C1346 C1347 1.366 . S
C1346 C1348 1.388 . S
C1347 C1346 1.366 . S
C1347 C1351 1.385 . S
C1348 H1329 0.951 . S
C1348 C1346 1.388 . S
C1348 C1349 1.366 . S
C1349 C1348 1.366 . S
C1349 C1350 1.414 . S
C1349 C1352 1.499 . S
C1350 H1330 0.950 . S
C1350 C1349 1.414 . S
C1350 C1351 1.374 . S
C1351 H1331 0.950 . S
C1351 C1347 1.385 . S
C1351 C1350 1.374 . S
C1352 C1349 1.499 . S
C1352 C1353 1.373 . S
C1352 C1354 1.389 . S
C1353 H1332 0.950 . S
C1353 C1352 1.373 . S
C1353 C1369 1.377 . S
C1354 C1352 1.389 . S
C1354 C1355 1.524 . S
C1354 C1368 1.377 . S
C1355 C1354 1.524 . S
C1355 C1356 1.397 . S
C1355 C1360 1.363 . S
C1356 H1333 0.950 . S
C1356 C1355 1.397 . S
C1356 C1357 1.334 . S
C1357 H1334 0.950 . S
C1357 C1356 1.334 . S
C1357 C1358 1.287 . S
C1358 C1357 1.287 . S
C1358 C1359 1.524 . S
C1358 H1377 0.913 . S
C1359 H1335 0.950 . S
C1359 C1358 1.524 . S
C1359 C1360 1.415 . S
C1360 H1336 0.950 . S
C1360 C1355 1.363 . S
C1360 C1359 1.415 . S
C1361 H1337 0.951 . S
C1361 C1362 1.366 . S
C1361 C1363 1.388 . S
C1362 C1361 1.366 . S
C1362 C1366 1.385 . S
C1363 H1338 0.951 . S
C1363 C1361 1.388 . S
C1363 C1364 1.366 . S
C1364 C1363 1.366 . S
C1364 C1365 1.414 . S
C1364 C1367 1.499 . S
C1365 H1339 0.950 . S
C1365 C1364 1.414 . S
C1365 C1366 1.374 . S
C1366 H1340 0.950 . S
C1366 C1362 1.385 . S
C1366 C1365 1.374 . S
C1367 C1364 1.499 . S
C1367 C1368 1.373 . S
C1367 C1369 1.389 . S
C1368 H1341 0.950 . S
C1368 C1354 1.377 . S
C1368 C1367 1.373 . S
C1369 C1353 1.377 . S
C1369 C1367 1.389 . S
C1369 C1370 1.524 . S
C1370 C1369 1.524 . S
C1370 C1371 1.397 . S
C1370 C1375 1.363 . S
C1371 H1342 0.950 . S
C1371 C1370 1.397 . S
C1371 C1372 1.334 . S
C1372 H1343 0.950 . S
C1372 C1371 1.334 . S
C1372 C1373 1.287 . S
C1373 C1372 1.287 . S
C1373 C1374 1.524 . S
C1373 H1376 0.999 . S
C1374 H1344 0.950 . S
C1374 C1373 1.524 . S
C1374 C1375 1.415 . S
C1375 H1345 0.950 . S
C1375 C1370 1.363 . S
C1375 C1374 1.415 . S
H1376 C1373 0.999 . S
H1377 C1358 0.913 . S
H1378 C1396 0.951 . S
H1379 C1398 0.951 . S
H1380 C1400 0.950 . S
H1381 C1401 0.950 . S
H1382 C1403 0.950 . S
H1383 C1406 0.950 . S
H1384 C1407 0.950 . S
H1385 C1409 0.950 . S
H1386 C1410 0.950 . S
H1387 C1411 0.951 . S
H1388 C1413 0.951 . S
H1389 C1415 0.950 . S
H1390 C1416 0.950 . S
H1391 C1418 0.950 . S
H1392 C1421 0.950 . S
H1393 C1422 0.950 . S
H1394 C1424 0.950 . S
H1395 C1425 0.950 . S
C1396 H1378 0.951 . S
C1396 C1397 1.366 . S
C1396 C1398 1.388 . S
C1397 C1396 1.366 . S
C1397 C1401 1.385 . S
C1398 H1379 0.951 . S
C1398 C1396 1.388 . S
C1398 C1399 1.366 . S
C1399 C1398 1.366 . S
C1399 C1400 1.414 . S
C1399 C1402 1.499 . S
C1400 H1380 0.950 . S
C1400 C1399 1.414 . S
C1400 C1401 1.374 . S
C1401 H1381 0.950 . S
C1401 C1397 1.385 . S
C1401 C1400 1.374 . S
C1402 C1399 1.499 . S
C1402 C1403 1.373 . S
C1402 C1404 1.389 . S
C1403 H1382 0.950 . S
C1403 C1402 1.373 . S
C1403 C1419 1.377 . S
C1404 C1402 1.389 . S
C1404 C1405 1.524 . S
C1404 C1418 1.377 . S
C1405 C1404 1.524 . S
C1405 C1406 1.397 . S
C1405 C1410 1.363 . S
C1406 H1383 0.950 . S
C1406 C1405 1.397 . S
C1406 C1407 1.334 . S
C1407 H1384 0.950 . S
C1407 C1406 1.334 . S
C1407 C1408 1.287 . S
C1408 C1407 1.287 . S
C1408 C1409 1.524 . S
C1408 H1427 0.913 . S
C1409 H1385 0.950 . S
C1409 C1408 1.524 . S
C1409 C1410 1.415 . S
C1410 H1386 0.950 . S
C1410 C1405 1.363 . S
C1410 C1409 1.415 . S
C1411 H1387 0.951 . S
C1411 C1412 1.366 . S
C1411 C1413 1.388 . S
C1412 C1411 1.366 . S
C1412 C1416 1.385 . S
C1413 H1388 0.951 . S
C1413 C1411 1.388 . S
C1413 C1414 1.366 . S
C1414 C1413 1.366 . S
C1414 C1415 1.414 . S
C1414 C1417 1.499 . S
C1415 H1389 0.950 . S
C1415 C1414 1.414 . S
C1415 C1416 1.374 . S
C1416 H1390 0.950 . S
C1416 C1412 1.385 . S
C1416 C1415 1.374 . S
C1417 C1414 1.499 . S
C1417 C1418 1.373 . S
C1417 C1419 1.389 . S
C1418 H1391 0.950 . S
C1418 C1404 1.377 . S
C1418 C1417 1.373 . S
C1419 C1403 1.377 . S
C1419 C1417 1.389 . S
C1419 C1420 1.524 . S
C1420 C1419 1.524 . S
C1420 C1421 1.397 . S
C1420 C1425 1.363 . S
C1421 H1392 0.950 . S
C1421 C1420 1.397 . S
C1421 C1422 1.334 . S
C1422 H1393 0.950 . S
C1422 C1421 1.334 . S
C1422 C1423 1.287 . S
C1423 C1422 1.287 . S
C1423 C1424 1.524 . S
C1423 H1426 0.999 . S
C1424 H1394 0.950 . S
C1424 C1423 1.524 . S
C1424 C1425 1.415 . S
C1425 H1395 0.950 . S
C1425 C1420 1.363 . S
C1425 C1424 1.415 . S
H1426 C1423 0.999 . S
H1427 C1408 0.913 . S
H1428 C1446 0.951 . S
H1429 C1448 0.951 . S
H1430 C1450 0.950 . S
H1431 C1451 0.950 . S
H1432 C1453 0.950 . S
H1433 C1456 0.950 . S
H1434 C1457 0.950 . S
H1435 C1459 0.950 . S
H1436 C1460 0.950 . S
H1437 C1461 0.951 . S
H1438 C1463 0.951 . S
H1439 C1465 0.950 . S
H1440 C1466 0.950 . S
H1441 C1468 0.950 . S
H1442 C1471 0.950 . S
H1443 C1472 0.950 . S
H1444 C1474 0.950 . S
H1445 C1475 0.950 . S
C1446 H1428 0.951 . S
C1446 C1447 1.366 . S
C1446 C1448 1.388 . S
C1447 C1446 1.366 . S
C1447 C1451 1.385 . S
C1448 H1429 0.951 . S
C1448 C1446 1.388 . S
C1448 C1449 1.366 . S
C1449 C1448 1.366 . S
C1449 C1450 1.414 . S
C1449 C1452 1.499 . S
C1450 H1430 0.950 . S
C1450 C1449 1.414 . S
C1450 C1451 1.374 . S
C1451 H1431 0.950 . S
C1451 C1447 1.385 . S
C1451 C1450 1.374 . S
C1452 C1449 1.499 . S
C1452 C1453 1.373 . S
C1452 C1454 1.389 . S
C1453 H1432 0.950 . S
C1453 C1452 1.373 . S
C1453 C1469 1.377 . S
C1454 C1452 1.389 . S
C1454 C1455 1.524 . S
C1454 C1468 1.377 . S
C1455 C1454 1.524 . S
C1455 C1456 1.397 . S
C1455 C1460 1.363 . S
C1456 H1433 0.950 . S
C1456 C1455 1.397 . S
C1456 C1457 1.334 . S
C1457 H1434 0.950 . S
C1457 C1456 1.334 . S
C1457 C1458 1.287 . S
C1458 C1457 1.287 . S
C1458 C1459 1.524 . S
C1458 H1477 0.913 1_455 S
C1459 H1435 0.950 . S
C1459 C1458 1.524 . S
C1459 C1460 1.415 . S
C1460 H1436 0.950 . S
C1460 C1455 1.363 . S
C1460 C1459 1.415 . S
C1461 H1437 0.951 . S
C1461 C1462 1.366 . S
C1461 C1463 1.388 . S
C1462 C1461 1.366 . S
C1462 C1466 1.385 . S
C1463 H1438 0.951 . S
C1463 C1461 1.388 . S
C1463 C1464 1.366 . S
C1464 C1463 1.366 . S
C1464 C1465 1.414 . S
C1464 C1467 1.499 . S
C1465 H1439 0.950 . S
C1465 C1464 1.414 . S
C1465 C1466 1.374 . S
C1466 H1440 0.950 . S
C1466 C1462 1.385 . S
C1466 C1465 1.374 . S
C1467 C1464 1.499 . S
C1467 C1468 1.373 . S
C1467 C1469 1.389 . S
C1468 H1441 0.950 . S
C1468 C1454 1.377 . S
C1468 C1467 1.373 . S
C1469 C1453 1.377 . S
C1469 C1467 1.389 . S
C1469 C1470 1.524 . S
C1470 C1469 1.524 . S
C1470 C1471 1.397 . S
C1470 C1475 1.363 . S
C1471 H1442 0.950 . S
C1471 C1470 1.397 . S
C1471 C1472 1.334 . S
C1472 H1443 0.950 . S
C1472 C1471 1.334 . S
C1472 C1473 1.287 . S
C1473 C1472 1.287 . S
C1473 C1474 1.524 . S
C1473 H1476 0.999 . S
C1474 H1444 0.950 . S
C1474 C1473 1.524 . S
C1474 C1475 1.415 . S
C1475 H1445 0.950 . S
C1475 C1470 1.363 . S
C1475 C1474 1.415 . S
H1476 C1473 0.999 . S
H1477 C1458 0.913 1_655 S
H1478 C1496 0.951 . S
H1479 C1498 0.951 . S
H1480 C1500 0.950 . S
H1481 C1501 0.950 . S
H1482 C1503 0.950 . S
H1483 C1506 0.950 . S
H1484 C1507 0.950 . S
H1485 C1509 0.950 . S
H1486 C1510 0.950 . S
H1487 C1511 0.951 . S
H1488 C1513 0.951 . S
H1489 C1515 0.950 . S
H1490 C1516 0.950 . S
H1491 C1518 0.950 . S
H1492 C1521 0.950 . S
H1493 C1522 0.950 . S
H1494 C1524 0.950 . S
H1495 C1525 0.950 . S
C1496 H1478 0.951 . S
C1496 C1497 1.366 . S
C1496 C1498 1.388 . S
C1497 C1496 1.366 . S
C1497 C1501 1.385 . S
C1498 H1479 0.951 . S
C1498 C1496 1.388 . S
C1498 C1499 1.366 . S
C1499 C1498 1.366 . S
C1499 C1500 1.414 . S
C1499 C1502 1.499 . S
C1500 H1480 0.950 . S
C1500 C1499 1.414 . S
C1500 C1501 1.374 . S
C1501 H1481 0.950 . S
C1501 C1497 1.385 . S
C1501 C1500 1.374 . S
C1502 C1499 1.499 . S
C1502 C1503 1.373 . S
C1502 C1504 1.389 . S
C1503 H1482 0.950 . S
C1503 C1502 1.373 . S
C1503 C1519 1.377 . S
C1504 C1502 1.389 . S
C1504 C1505 1.524 . S
C1504 C1518 1.377 . S
C1505 C1504 1.524 . S
C1505 C1506 1.397 . S
C1505 C1510 1.363 . S
C1506 H1483 0.950 . S
C1506 C1505 1.397 . S
C1506 C1507 1.334 . S
C1507 H1484 0.950 . S
C1507 C1506 1.334 . S
C1507 C1508 1.287 . S
C1508 C1507 1.287 . S
C1508 C1509 1.524 . S
C1508 H1527 0.913 . S
C1509 H1485 0.950 . S
C1509 C1508 1.524 . S
C1509 C1510 1.415 . S
C1510 H1486 0.950 . S
C1510 C1505 1.363 . S
C1510 C1509 1.415 . S
C1511 H1487 0.951 . S
C1511 C1512 1.366 . S
C1511 C1513 1.388 . S
C1512 C1511 1.366 . S
C1512 C1516 1.385 . S
C1513 H1488 0.951 . S
C1513 C1511 1.388 . S
C1513 C1514 1.366 . S
C1514 C1513 1.366 . S
C1514 C1515 1.414 . S
C1514 C1517 1.499 . S
C1515 H1489 0.950 . S
C1515 C1514 1.414 . S
C1515 C1516 1.374 . S
C1516 H1490 0.950 . S
C1516 C1512 1.385 . S
C1516 C1515 1.374 . S
C1517 C1514 1.499 . S
C1517 C1518 1.373 . S
C1517 C1519 1.389 . S
C1518 H1491 0.950 . S
C1518 C1504 1.377 . S
C1518 C1517 1.373 . S
C1519 C1503 1.377 . S
C1519 C1517 1.389 . S
C1519 C1520 1.524 . S
C1520 C1519 1.524 . S
C1520 C1521 1.397 . S
C1520 C1525 1.363 . S
C1521 H1492 0.950 . S
C1521 C1520 1.397 . S
C1521 C1522 1.334 . S
C1522 H1493 0.950 . S
C1522 C1521 1.334 . S
C1522 C1523 1.287 . S
C1523 C1522 1.287 . S
C1523 C1524 1.524 . S
C1523 H1526 0.999 . S
C1524 H1494 0.950 . S
C1524 C1523 1.524 . S
C1524 C1525 1.415 . S
C1525 H1495 0.950 . S
C1525 C1520 1.363 . S
C1525 C1524 1.415 . S
H1526 C1523 0.999 . S
H1527 C1508 0.913 . S
H1528 C1546 0.951 . S
H1529 C1548 0.951 . S
H1530 C1550 0.950 . S
H1531 C1551 0.950 . S
H1532 C1553 0.950 . S
H1533 C1556 0.950 . S
H1534 C1557 0.950 . S
H1535 C1559 0.950 . S
H1536 C1560 0.950 . S
H1537 C1561 0.951 . S
H1538 C1563 0.951 . S
H1539 C1565 0.950 . S
H1540 C1566 0.950 . S
H1541 C1568 0.950 . S
H1542 C1571 0.950 . S
H1543 C1572 0.950 . S
H1544 C1574 0.950 . S
H1545 C1575 0.950 . S
C1546 H1528 0.951 . S
C1546 C1547 1.366 . S
C1546 C1548 1.388 . S
C1547 C1546 1.366 . S
C1547 C1551 1.385 . S
C1548 H1529 0.951 . S
C1548 C1546 1.388 . S
C1548 C1549 1.366 . S
C1549 C1548 1.366 . S
C1549 C1550 1.414 . S
C1549 C1552 1.499 . S
C1550 H1530 0.950 . S
C1550 C1549 1.414 . S
C1550 C1551 1.374 . S
C1551 H1531 0.950 . S
C1551 C1547 1.385 . S
C1551 C1550 1.374 . S
C1552 C1549 1.499 . S
C1552 C1553 1.373 . S
C1552 C1554 1.389 . S
C1553 H1532 0.950 . S
C1553 C1552 1.373 . S
C1553 C1569 1.377 . S
C1554 C1552 1.389 . S
C1554 C1555 1.524 . S
C1554 C1568 1.377 . S
C1555 C1554 1.524 . S
C1555 C1556 1.397 . S
C1555 C1560 1.363 . S
C1556 H1533 0.950 . S
C1556 C1555 1.397 . S
C1556 C1557 1.334 . S
C1557 H1534 0.950 . S
C1557 C1556 1.334 . S
C1557 C1558 1.287 . S
C1558 C1557 1.287 . S
C1558 C1559 1.524 . S
C1558 H1577 0.913 . S
C1559 H1535 0.950 . S
C1559 C1558 1.524 . S
C1559 C1560 1.415 . S
C1560 H1536 0.950 . S
C1560 C1555 1.363 . S
C1560 C1559 1.415 . S
C1561 H1537 0.951 . S
C1561 C1562 1.366 . S
C1561 C1563 1.388 . S
C1562 C1561 1.366 . S
C1562 C1566 1.385 . S
C1563 H1538 0.951 . S
C1563 C1561 1.388 . S
C1563 C1564 1.366 . S
C1564 C1563 1.366 . S
C1564 C1565 1.414 . S
C1564 C1567 1.499 . S
C1565 H1539 0.950 . S
C1565 C1564 1.414 . S
C1565 C1566 1.374 . S
C1566 H1540 0.950 . S
C1566 C1562 1.385 . S
C1566 C1565 1.374 . S
C1567 C1564 1.499 . S
C1567 C1568 1.373 . S
C1567 C1569 1.389 . S
C1568 H1541 0.950 . S
C1568 C1554 1.377 . S
C1568 C1567 1.373 . S
C1569 C1553 1.377 . S
C1569 C1567 1.389 . S
C1569 C1570 1.524 . S
C1570 C1569 1.524 . S
C1570 C1571 1.397 . S
C1570 C1575 1.363 . S
C1571 H1542 0.950 . S
C1571 C1570 1.397 . S
C1571 C1572 1.334 . S
C1572 H1543 0.950 . S
C1572 C1571 1.334 . S
C1572 C1573 1.287 . S
C1573 C1572 1.287 . S
C1573 C1574 1.524 . S
C1573 H1576 0.999 . S
C1574 H1544 0.950 . S
C1574 C1573 1.524 . S
C1574 C1575 1.415 . S
C1575 H1545 0.950 . S
C1575 C1570 1.363 . S
C1575 C1574 1.415 . S
H1576 C1573 0.999 . S
H1577 C1558 0.913 . S
H1578 C1596 0.951 . S
H1579 C1598 0.951 . S
H1580 C1600 0.950 . S
H1581 C1601 0.950 . S
H1582 C1603 0.950 . S
H1583 C1606 0.950 . S
H1584 C1607 0.950 . S
H1585 C1609 0.950 . S
H1586 C1610 0.950 . S
H1587 C1611 0.951 . S
H1588 C1613 0.951 . S
H1589 C1615 0.950 . S
H1590 C1616 0.950 . S
H1591 C1618 0.950 . S
H1592 C1621 0.950 . S
H1593 C1622 0.950 . S
H1594 C1624 0.950 . S
H1595 C1625 0.950 . S
C1596 H1578 0.951 . S
C1596 C1597 1.366 . S
C1596 C1598 1.388 . S
C1597 C1596 1.366 . S
C1597 C1601 1.385 . S
C1598 H1579 0.951 . S
C1598 C1596 1.388 . S
C1598 C1599 1.366 . S
C1599 C1598 1.366 . S
C1599 C1600 1.414 . S
C1599 C1602 1.499 . S
C1600 H1580 0.950 . S
C1600 C1599 1.414 . S
C1600 C1601 1.374 . S
C1601 H1581 0.950 . S
C1601 C1597 1.385 . S
C1601 C1600 1.374 . S
C1602 C1599 1.499 . S
C1602 C1603 1.373 . S
C1602 C1604 1.389 . S
C1603 H1582 0.950 . S
C1603 C1602 1.373 . S
C1603 C1619 1.377 . S
C1604 C1602 1.389 . S
C1604 C1605 1.524 . S
C1604 C1618 1.377 . S
C1605 C1604 1.524 . S
C1605 C1606 1.397 . S
C1605 C1610 1.363 . S
C1606 H1583 0.950 . S
C1606 C1605 1.397 . S
C1606 C1607 1.334 . S
C1607 H1584 0.950 . S
C1607 C1606 1.334 . S
C1607 C1608 1.287 . S
C1608 C1607 1.287 . S
C1608 C1609 1.524 . S
C1608 H1627 0.913 . S
C1609 H1585 0.950 . S
C1609 C1608 1.524 . S
C1609 C1610 1.415 . S
C1610 H1586 0.950 . S
C1610 C1605 1.363 . S
C1610 C1609 1.415 . S
C1611 H1587 0.951 . S
C1611 C1612 1.366 . S
C1611 C1613 1.388 . S
C1612 C1611 1.366 . S
C1612 C1616 1.385 . S
C1613 H1588 0.951 . S
C1613 C1611 1.388 . S
C1613 C1614 1.366 . S
C1614 C1613 1.366 . S
C1614 C1615 1.414 . S
C1614 C1617 1.499 . S
C1615 H1589 0.950 . S
C1615 C1614 1.414 . S
C1615 C1616 1.374 . S
C1616 H1590 0.950 . S
C1616 C1612 1.385 . S
C1616 C1615 1.374 . S
C1617 C1614 1.499 . S
C1617 C1618 1.373 . S
C1617 C1619 1.389 . S
C1618 H1591 0.950 . S
C1618 C1604 1.377 . S
C1618 C1617 1.373 . S
C1619 C1603 1.377 . S
C1619 C1617 1.389 . S
C1619 C1620 1.524 . S
C1620 C1619 1.524 . S
C1620 C1621 1.397 . S
C1620 C1625 1.363 . S
C1621 H1592 0.950 . S
C1621 C1620 1.397 . S
C1621 C1622 1.334 . S
C1622 H1593 0.950 . S
C1622 C1621 1.334 . S
C1622 C1623 1.287 . S
C1623 C1622 1.287 . S
C1623 C1624 1.524 . S
C1623 H1626 0.999 . S
C1624 H1594 0.950 . S
C1624 C1623 1.524 . S
C1624 C1625 1.415 . S
C1625 H1595 0.950 . S
C1625 C1620 1.363 . S
C1625 C1624 1.415 . S
H1626 C1623 0.999 . S
H1627 C1608 0.913 . S
H1628 C1646 0.951 . S
H1629 C1648 0.951 . S
H1630 C1650 0.950 . S
H1631 C1651 0.950 . S
H1632 C1653 0.950 . S
H1633 C1656 0.950 . S
H1634 C1657 0.950 . S
H1635 C1659 0.950 . S
H1636 C1660 0.950 . S
H1637 C1661 0.951 . S
H1638 C1663 0.951 . S
H1639 C1665 0.950 . S
H1640 C1666 0.950 . S
H1641 C1668 0.950 . S
H1642 C1671 0.950 . S
H1643 C1672 0.950 . S
H1644 C1674 0.950 . S
H1645 C1675 0.950 . S
C1646 H1628 0.951 . S
C1646 C1647 1.366 . S
C1646 C1648 1.388 . S
C1647 C1646 1.366 . S
C1647 C1651 1.385 . S
C1648 H1629 0.951 . S
C1648 C1646 1.388 . S
C1648 C1649 1.366 . S
C1649 C1648 1.366 . S
C1649 C1650 1.414 . S
C1649 C1652 1.499 . S
C1650 H1630 0.950 . S
C1650 C1649 1.414 . S
C1650 C1651 1.374 . S
C1651 H1631 0.950 . S
C1651 C1647 1.385 . S
C1651 C1650 1.374 . S
C1652 C1649 1.499 . S
C1652 C1653 1.373 . S
C1652 C1654 1.389 . S
C1653 H1632 0.950 . S
C1653 C1652 1.373 . S
C1653 C1669 1.377 . S
C1654 C1652 1.389 . S
C1654 C1655 1.524 . S
C1654 C1668 1.377 . S
C1655 C1654 1.524 . S
C1655 C1656 1.397 . S
C1655 C1660 1.363 . S
C1656 H1633 0.950 . S
C1656 C1655 1.397 . S
C1656 C1657 1.334 . S
C1657 H1634 0.950 . S
C1657 C1656 1.334 . S
C1657 C1658 1.287 . S
C1658 C1657 1.287 . S
C1658 C1659 1.524 . S
C1658 H1677 0.913 . S
C1659 H1635 0.950 . S
C1659 C1658 1.524 . S
C1659 C1660 1.415 . S
C1660 H1636 0.950 . S
C1660 C1655 1.363 . S
C1660 C1659 1.415 . S
C1661 H1637 0.951 . S
C1661 C1662 1.366 . S
C1661 C1663 1.388 . S
C1662 C1661 1.366 . S
C1662 C1666 1.385 . S
C1663 H1638 0.951 . S
C1663 C1661 1.388 . S
C1663 C1664 1.366 . S
C1664 C1663 1.366 . S
C1664 C1665 1.414 . S
C1664 C1667 1.499 . S
C1665 H1639 0.950 . S
C1665 C1664 1.414 . S
C1665 C1666 1.374 . S
C1666 H1640 0.950 . S
C1666 C1662 1.385 . S
C1666 C1665 1.374 . S
C1667 C1664 1.499 . S
C1667 C1668 1.373 . S
C1667 C1669 1.389 . S
C1668 H1641 0.950 . S
C1668 C1654 1.377 . S
C1668 C1667 1.373 . S
C1669 C1653 1.377 . S
C1669 C1667 1.389 . S
C1669 C1670 1.524 . S
C1670 C1669 1.524 . S
C1670 C1671 1.397 . S
C1670 C1675 1.363 . S
C1671 H1642 0.950 . S
C1671 C1670 1.397 . S
C1671 C1672 1.334 . S
C1672 H1643 0.950 . S
C1672 C1671 1.334 . S
C1672 C1673 1.287 . S
C1673 C1672 1.287 . S
C1673 C1674 1.524 . S
C1673 H1676 0.999 . S
C1674 H1644 0.950 . S
C1674 C1673 1.524 . S
C1674 C1675 1.415 . S
C1675 H1645 0.950 . S
C1675 C1670 1.363 . S
C1675 C1674 1.415 . S
H1676 C1673 0.999 . S
H1677 C1658 0.913 . S
H1678 C1696 0.951 . S
H1679 C1698 0.951 . S
H1680 C1700 0.950 . S
H1681 C1701 0.950 . S
H1682 C1703 0.950 . S
H1683 C1706 0.950 . S
H1684 C1707 0.950 . S
H1685 C1709 0.950 . S
H1686 C1710 0.950 . S
H1687 C1711 0.951 . S
H1688 C1713 0.951 . S
H1689 C1715 0.950 . S
H1690 C1716 0.950 . S
H1691 C1718 0.950 . S
H1692 C1721 0.950 . S
H1693 C1722 0.950 . S
H1694 C1724 0.950 . S
H1695 C1725 0.950 . S
C1696 H1678 0.951 . S
C1696 C1697 1.366 . S
C1696 C1698 1.388 . S
C1697 C1696 1.366 . S
C1697 C1701 1.385 . S
C1698 H1679 0.951 . S
C1698 C1696 1.388 . S
C1698 C1699 1.366 . S
C1699 C1698 1.366 . S
C1699 C1700 1.414 . S
C1699 C1702 1.499 . S
C1700 H1680 0.950 . S
C1700 C1699 1.414 . S
C1700 C1701 1.374 . S
C1701 H1681 0.950 . S
C1701 C1697 1.385 . S
C1701 C1700 1.374 . S
C1702 C1699 1.499 . S
C1702 C1703 1.373 . S
C1702 C1704 1.389 . S
C1703 H1682 0.950 . S
C1703 C1702 1.373 . S
C1703 C1719 1.377 . S
C1704 C1702 1.389 . S
C1704 C1705 1.524 . S
C1704 C1718 1.377 . S
C1705 C1704 1.524 . S
C1705 C1706 1.397 . S
C1705 C1710 1.363 . S
C1706 H1683 0.950 . S
C1706 C1705 1.397 . S
C1706 C1707 1.334 . S
C1707 H1684 0.950 . S
C1707 C1706 1.334 . S
C1707 C1708 1.287 . S
C1708 C1707 1.287 . S
C1708 C1709 1.524 . S
C1708 H1727 0.913 . S
C1709 H1685 0.950 . S
C1709 C1708 1.524 . S
C1709 C1710 1.415 . S
C1710 H1686 0.950 . S
C1710 C1705 1.363 . S
C1710 C1709 1.415 . S
C1711 H1687 0.951 . S
C1711 C1712 1.366 . S
C1711 C1713 1.388 . S
C1712 C1711 1.366 . S
C1712 C1716 1.385 . S
C1713 H1688 0.951 . S
C1713 C1711 1.388 . S
C1713 C1714 1.366 . S
C1714 C1713 1.366 . S
C1714 C1715 1.414 . S
C1714 C1717 1.499 . S
C1715 H1689 0.950 . S
C1715 C1714 1.414 . S
C1715 C1716 1.374 . S
C1716 H1690 0.950 . S
C1716 C1712 1.385 . S
C1716 C1715 1.374 . S
C1717 C1714 1.499 . S
C1717 C1718 1.373 . S
C1717 C1719 1.389 . S
C1718 H1691 0.950 . S
C1718 C1704 1.377 . S
C1718 C1717 1.373 . S
C1719 C1703 1.377 . S
C1719 C1717 1.389 . S
C1719 C1720 1.524 . S
C1720 C1719 1.524 . S
C1720 C1721 1.397 . S
C1720 C1725 1.363 . S
C1721 H1692 0.950 . S
C1721 C1720 1.397 . S
C1721 C1722 1.334 . S
C1722 H1693 0.950 . S
C1722 C1721 1.334 . S
C1722 C1723 1.287 . S
C1723 C1722 1.287 . S
C1723 C1724 1.524 . S
C1723 H1726 0.999 . S
C1724 H1694 0.950 . S
C1724 C1723 1.524 . S
C1724 C1725 1.415 . S
C1725 H1695 0.950 . S
C1725 C1720 1.363 . S
C1725 C1724 1.415 . S
H1726 C1723 0.999 . S
H1727 C1708 0.913 . S
H1728 C1746 0.951 . S
H1729 C1748 0.951 . S
H1730 C1750 0.950 . S
H1731 C1751 0.950 . S
H1732 C1753 0.950 . S
H1733 C1756 0.950 . S
H1734 C1757 0.950 . S
H1735 C1759 0.950 . S
H1736 C1760 0.950 . S
H1737 C1761 0.951 . S
H1738 C1763 0.951 . S
H1739 C1765 0.950 . S
H1740 C1766 0.950 . S
H1741 C1768 0.950 . S
H1742 C1771 0.950 . S
H1743 C1772 0.950 . S
H1744 C1774 0.950 . S
H1745 C1775 0.950 . S
C1746 H1728 0.951 . S
C1746 C1747 1.366 . S
C1746 C1748 1.388 . S
C1747 C1746 1.366 . S
C1747 C1751 1.385 . S
C1748 H1729 0.951 . S
C1748 C1746 1.388 . S
C1748 C1749 1.366 . S
C1749 C1748 1.366 . S
C1749 C1750 1.414 . S
C1749 C1752 1.499 . S
C1750 H1730 0.950 . S
C1750 C1749 1.414 . S
C1750 C1751 1.374 . S
C1751 H1731 0.950 . S
C1751 C1747 1.385 . S
C1751 C1750 1.374 . S
C1752 C1749 1.499 . S
C1752 C1753 1.373 . S
C1752 C1754 1.389 . S
C1753 H1732 0.950 . S
C1753 C1752 1.373 . S
C1753 C1769 1.377 . S
C1754 C1752 1.389 . S
C1754 C1755 1.524 . S
C1754 C1768 1.377 . S
C1755 C1754 1.524 . S
C1755 C1756 1.397 . S
C1755 C1760 1.363 . S
C1756 H1733 0.950 . S
C1756 C1755 1.397 . S
C1756 C1757 1.334 . S
C1757 H1734 0.950 . S
C1757 C1756 1.334 . S
C1757 C1758 1.287 . S
C1758 C1757 1.287 . S
C1758 C1759 1.524 . S
C1758 H1777 0.913 . S
C1759 H1735 0.950 . S
C1759 C1758 1.524 . S
C1759 C1760 1.415 . S
C1760 H1736 0.950 . S
C1760 C1755 1.363 . S
C1760 C1759 1.415 . S
C1761 H1737 0.951 . S
C1761 C1762 1.366 . S
C1761 C1763 1.388 . S
C1762 C1761 1.366 . S
C1762 C1766 1.385 . S
C1763 H1738 0.951 . S
C1763 C1761 1.388 . S
C1763 C1764 1.366 . S
C1764 C1763 1.366 . S
C1764 C1765 1.414 . S
C1764 C1767 1.499 . S
C1765 H1739 0.950 . S
C1765 C1764 1.414 . S
C1765 C1766 1.374 . S
C1766 H1740 0.950 . S
C1766 C1762 1.385 . S
C1766 C1765 1.374 . S
C1767 C1764 1.499 . S
C1767 C1768 1.373 . S
C1767 C1769 1.389 . S
C1768 H1741 0.950 . S
C1768 C1754 1.377 . S
C1768 C1767 1.373 . S
C1769 C1753 1.377 . S
C1769 C1767 1.389 . S
C1769 C1770 1.524 . S
C1770 C1769 1.524 . S
C1770 C1771 1.397 . S
C1770 C1775 1.363 . S
C1771 H1742 0.950 . S
C1771 C1770 1.397 . S
C1771 C1772 1.334 . S
C1772 H1743 0.950 . S
C1772 C1771 1.334 . S
C1772 C1773 1.287 . S
C1773 C1772 1.287 . S
C1773 C1774 1.524 . S
C1773 H1776 0.999 . S
C1774 H1744 0.950 . S
C1774 C1773 1.524 . S
C1774 C1775 1.415 . S
C1775 H1745 0.950 . S
C1775 C1770 1.363 . S
C1775 C1774 1.415 . S
H1776 C1773 0.999 . S
H1777 C1758 0.913 . S
H1778 C1796 0.951 . S
H1779 C1798 0.951 . S
H1780 C1800 0.950 . S
H1781 C1801 0.950 . S
H1782 C1803 0.950 . S
H1783 C1806 0.950 . S
H1784 C1807 0.950 . S
H1785 C1809 0.950 . S
H1786 C1810 0.950 . S
H1787 C1811 0.951 . S
H1788 C1813 0.951 . S
H1789 C1815 0.950 . S
H1790 C1816 0.950 . S
H1791 C1818 0.950 . S
H1792 C1821 0.950 . S
H1793 C1822 0.950 . S
H1794 C1824 0.950 . S
H1795 C1825 0.950 . S
C1796 H1778 0.951 . S
C1796 C1797 1.366 . S
C1796 C1798 1.388 . S
C1797 C1796 1.366 . S
C1797 C1801 1.385 . S
C1798 H1779 0.951 . S
C1798 C1796 1.388 . S
C1798 C1799 1.366 . S
C1799 C1798 1.366 . S
C1799 C1800 1.414 . S
C1799 C1802 1.499 . S
C1800 H1780 0.950 . S
C1800 C1799 1.414 . S
C1800 C1801 1.374 . S
C1801 H1781 0.950 . S
C1801 C1797 1.385 . S
C1801 C1800 1.374 . S
C1802 C1799 1.499 . S
C1802 C1803 1.373 . S
C1802 C1804 1.389 . S
C1803 H1782 0.950 . S
C1803 C1802 1.373 . S
C1803 C1819 1.377 . S
C1804 C1802 1.389 . S
C1804 C1805 1.524 . S
C1804 C1818 1.377 . S
C1805 C1804 1.524 . S
C1805 C1806 1.397 . S
C1805 C1810 1.363 . S
C1806 H1783 0.950 . S
C1806 C1805 1.397 . S
C1806 C1807 1.334 . S
C1807 H1784 0.950 . S
C1807 C1806 1.334 . S
C1807 C1808 1.287 . S
C1808 C1807 1.287 . S
C1808 C1809 1.524 . S
C1808 H1827 0.913 . S
C1809 H1785 0.950 . S
C1809 C1808 1.524 . S
C1809 C1810 1.415 . S
C1810 H1786 0.950 . S
C1810 C1805 1.363 . S
C1810 C1809 1.415 . S
C1811 H1787 0.951 . S
C1811 C1812 1.366 . S
C1811 C1813 1.388 . S
C1812 C1811 1.366 . S
C1812 C1816 1.385 . S
C1813 H1788 0.951 . S
C1813 C1811 1.388 . S
C1813 C1814 1.366 . S
C1814 C1813 1.366 . S
C1814 C1815 1.414 . S
C1814 C1817 1.499 . S
C1815 H1789 0.950 . S
C1815 C1814 1.414 . S
C1815 C1816 1.374 . S
C1816 H1790 0.950 . S
C1816 C1812 1.385 . S
C1816 C1815 1.374 . S
C1817 C1814 1.499 . S
C1817 C1818 1.373 . S
C1817 C1819 1.389 . S
C1818 H1791 0.950 . S
C1818 C1804 1.377 . S
C1818 C1817 1.373 . S
C1819 C1803 1.377 . S
C1819 C1817 1.389 . S
C1819 C1820 1.524 . S
C1820 C1819 1.524 . S
C1820 C1821 1.397 . S
C1820 C1825 1.363 . S
C1821 H1792 0.950 . S
C1821 C1820 1.397 . S
C1821 C1822 1.334 . S
C1822 H1793 0.950 . S
C1822 C1821 1.334 . S
C1822 C1823 1.287 . S
C1823 C1822 1.287 . S
C1823 C1824 1.524 . S
C1823 H1826 0.999 . S
C1824 H1794 0.950 . S
C1824 C1823 1.524 . S
C1824 C1825 1.415 . S
C1825 H1795 0.950 . S
C1825 C1820 1.363 . S
C1825 C1824 1.415 . S
H1826 C1823 0.999 . S
H1827 C1808 0.913 . S
H1828 C1846 0.951 . S
H1829 C1848 0.951 . S
H1830 C1850 0.950 . S
H1831 C1851 0.950 . S
H1832 C1853 0.950 . S
H1833 C1856 0.950 . S
H1834 C1857 0.950 . S
H1835 C1859 0.950 . S
H1836 C1860 0.950 . S
H1837 C1861 0.951 . S
H1838 C1863 0.951 . S
H1839 C1865 0.950 . S
H1840 C1866 0.950 . S
H1841 C1868 0.950 . S
H1842 C1871 0.950 . S
H1843 C1872 0.950 . S
H1844 C1874 0.950 . S
H1845 C1875 0.950 . S
C1846 H1828 0.951 . S
C1846 C1847 1.366 . S
C1846 C1848 1.388 . S
C1847 C1846 1.366 . S
C1847 C1851 1.385 . S
C1848 H1829 0.951 . S
C1848 C1846 1.388 . S
C1848 C1849 1.366 . S
C1849 C1848 1.366 . S
C1849 C1850 1.414 . S
C1849 C1852 1.499 . S
C1850 H1830 0.950 . S
C1850 C1849 1.414 . S
C1850 C1851 1.374 . S
C1851 H1831 0.950 . S
C1851 C1847 1.385 . S
C1851 C1850 1.374 . S
C1852 C1849 1.499 . S
C1852 C1853 1.373 . S
C1852 C1854 1.389 . S
C1853 H1832 0.950 . S
C1853 C1852 1.373 . S
C1853 C1869 1.377 . S
C1854 C1852 1.389 . S
C1854 C1855 1.524 . S
C1854 C1868 1.377 . S
C1855 C1854 1.524 . S
C1855 C1856 1.397 . S
C1855 C1860 1.363 . S
C1856 H1833 0.950 . S
C1856 C1855 1.397 . S
C1856 C1857 1.334 . S
C1857 H1834 0.950 . S
C1857 C1856 1.334 . S
C1857 C1858 1.287 . S
C1858 C1857 1.287 . S
C1858 C1859 1.524 . S
C1858 H1877 0.913 . S
C1859 H1835 0.950 . S
C1859 C1858 1.524 . S
C1859 C1860 1.415 . S
C1860 H1836 0.950 . S
C1860 C1855 1.363 . S
C1860 C1859 1.415 . S
C1861 H1837 0.951 . S
C1861 C1862 1.366 . S
C1861 C1863 1.388 . S
C1862 C1861 1.366 . S
C1862 C1866 1.385 . S
C1863 H1838 0.951 . S
C1863 C1861 1.388 . S
C1863 C1864 1.366 . S
C1864 C1863 1.366 . S
C1864 C1865 1.414 . S
C1864 C1867 1.499 . S
C1865 H1839 0.950 . S
C1865 C1864 1.414 . S
C1865 C1866 1.374 . S
C1866 H1840 0.950 . S
C1866 C1862 1.385 . S
C1866 C1865 1.374 . S
C1867 C1864 1.499 . S
C1867 C1868 1.373 . S
C1867 C1869 1.389 . S
C1868 H1841 0.950 . S
C1868 C1854 1.377 . S
C1868 C1867 1.373 . S
C1869 C1853 1.377 . S
C1869 C1867 1.389 . S
C1869 C1870 1.524 . S
C1870 C1869 1.524 . S
C1870 C1871 1.397 . S
C1870 C1875 1.363 . S
C1871 H1842 0.950 . S
C1871 C1870 1.397 . S
C1871 C1872 1.334 . S
C1872 H1843 0.950 . S
C1872 C1871 1.334 . S
C1872 C1873 1.287 . S
C1873 C1872 1.287 . S
C1873 C1874 1.524 . S
C1873 H1876 0.999 . S
C1874 H1844 0.950 . S
C1874 C1873 1.524 . S
C1874 C1875 1.415 . S
C1875 H1845 0.950 . S
C1875 C1870 1.363 . S
C1875 C1874 1.415 . S
H1876 C1873 0.999 . S
H1877 C1858 0.913 . S
H1878 C1896 0.951 . S
H1879 C1898 0.951 . S
H1880 C1900 0.950 . S
H1881 C1901 0.950 . S
H1882 C1903 0.950 . S
H1883 C1906 0.950 . S
H1884 C1907 0.950 . S
H1885 C1909 0.950 . S
H1886 C1910 0.950 . S
H1887 C1911 0.951 . S
H1888 C1913 0.951 . S
H1889 C1915 0.950 . S
H1890 C1916 0.950 . S
H1891 C1918 0.950 . S
H1892 C1921 0.950 . S
H1893 C1922 0.950 . S
H1894 C1924 0.950 . S
H1895 C1925 0.950 . S
C1896 H1878 0.951 . S
C1896 C1897 1.366 . S
C1896 C1898 1.388 . S
C1897 C1896 1.366 . S
C1897 C1901 1.385 . S
C1898 H1879 0.951 . S
C1898 C1896 1.388 . S
C1898 C1899 1.366 . S
C1899 C1898 1.366 . S
C1899 C1900 1.414 . S
C1899 C1902 1.499 . S
C1900 H1880 0.950 . S
C1900 C1899 1.414 . S
C1900 C1901 1.374 . S
C1901 H1881 0.950 . S
C1901 C1897 1.385 . S
C1901 C1900 1.374 . S
C1902 C1899 1.499 . S
C1902 C1903 1.373 . S
C1902 C1904 1.389 . S
C1903 H1882 0.950 . S
C1903 C1902 1.373 . S
C1903 C1919 1.377 . S
C1904 C1902 1.389 . S
C1904 C1905 1.524 . S
C1904 C1918 1.377 . S
C1905 C1904 1.524 . S
C1905 C1906 1.397 . S
C1905 C1910 1.363 . S
C1906 H1883 0.950 . S
C1906 C1905 1.397 . S
C1906 C1907 1.334 . S
C1907 H1884 0.950 . S
C1907 C1906 1.334 . S
C1907 C1908 1.287 . S
C1908 C1907 1.287 . S
C1908 C1909 1.524 . S
C1908 H1927 0.913 . S
C1909 H1885 0.950 . S
C1909 C1908 1.524 . S
C1909 C1910 1.415 . S
C1910 H1886 0.950 . S
C1910 C1905 1.363 . S
C1910 C1909 1.415 . S
C1911 H1887 0.951 . S
C1911 C1912 1.366 . S
C1911 C1913 1.388 . S
C1912 C1911 1.366 . S
C1912 C1916 1.385 . S
C1913 H1888 0.951 . S
C1913 C1911 1.388 . S
C1913 C1914 1.366 . S
C1914 C1913 1.366 . S
C1914 C1915 1.414 . S
C1914 C1917 1.499 . S
C1915 H1889 0.950 . S
C1915 C1914 1.414 . S
C1915 C1916 1.374 . S
C1916 H1890 0.950 . S
C1916 C1912 1.385 . S
C1916 C1915 1.374 . S
C1917 C1914 1.499 . S
C1917 C1918 1.373 . S
C1917 C1919 1.389 . S
C1918 H1891 0.950 . S
C1918 C1904 1.377 . S
C1918 C1917 1.373 . S
C1919 C1903 1.377 . S
C1919 C1917 1.389 . S
C1919 C1920 1.524 . S
C1920 C1919 1.524 . S
C1920 C1921 1.397 . S
C1920 C1925 1.363 . S
C1921 H1892 0.950 . S
C1921 C1920 1.397 . S
C1921 C1922 1.334 . S
C1922 H1893 0.950 . S
C1922 C1921 1.334 . S
C1922 C1923 1.287 . S
C1923 C1922 1.287 . S
C1923 C1924 1.524 . S
C1923 H1926 0.999 . S
C1924 H1894 0.950 . S
C1924 C1923 1.524 . S
C1924 C1925 1.415 . S
C1925 H1895 0.950 . S
C1925 C1920 1.363 . S
C1925 C1924 1.415 . S
H1926 C1923 0.999 . S
H1927 C1908 0.913 . S
H1928 C1946 0.951 . S
H1929 C1948 0.951 . S
H1930 C1950 0.950 . S
H1931 C1951 0.950 . S
H1932 C1953 0.950 . S
H1933 C1956 0.950 . S
H1934 C1957 0.950 . S
H1935 C1959 0.950 . S
H1936 C1960 0.950 . S
H1937 C1961 0.951 . S
H1938 C1963 0.951 . S
H1939 C1965 0.950 . S
H1940 C1966 0.950 . S
H1941 C1968 0.950 . S
H1942 C1971 0.950 . S
H1943 C1972 0.950 . S
H1944 C1974 0.950 . S
H1945 C1975 0.950 . S
C1946 H1928 0.951 . S
C1946 C1947 1.366 . S
C1946 C1948 1.388 . S
C1947 C1946 1.366 . S
C1947 C1951 1.385 . S
C1948 H1929 0.951 . S
C1948 C1946 1.388 . S
C1948 C1949 1.366 . S
C1949 C1948 1.366 . S
C1949 C1950 1.414 . S
C1949 C1952 1.499 . S
C1950 H1930 0.950 . S
C1950 C1949 1.414 . S
C1950 C1951 1.374 . S
C1951 H1931 0.950 . S
C1951 C1947 1.385 . S
C1951 C1950 1.374 . S
C1952 C1949 1.499 . S
C1952 C1953 1.373 . S
C1952 C1954 1.389 . S
C1953 H1932 0.950 . S
C1953 C1952 1.373 . S
C1953 C1969 1.377 . S
C1954 C1952 1.389 . S
C1954 C1955 1.524 . S
C1954 C1968 1.377 . S
C1955 C1954 1.524 . S
C1955 C1956 1.397 . S
C1955 C1960 1.363 . S
C1956 H1933 0.950 . S
C1956 C1955 1.397 . S
C1956 C1957 1.334 . S
C1957 H1934 0.950 . S
C1957 C1956 1.334 . S
C1957 C1958 1.287 . S
C1958 C1957 1.287 . S
C1958 C1959 1.524 . S
C1958 H1977 0.913 . S
C1959 H1935 0.950 . S
C1959 C1958 1.524 . S
C1959 C1960 1.415 . S
C1960 H1936 0.950 . S
C1960 C1955 1.363 . S
C1960 C1959 1.415 . S
C1961 H1937 0.951 . S
C1961 C1962 1.366 . S
C1961 C1963 1.388 . S
C1962 C1961 1.366 . S
C1962 C1966 1.385 . S
C1963 H1938 0.951 . S
C1963 C1961 1.388 . S
C1963 C1964 1.366 . S
C1964 C1963 1.366 . S
C1964 C1965 1.414 . S
C1964 C1967 1.499 . S
C1965 H1939 0.950 . S
C1965 C1964 1.414 . S
C1965 C1966 1.374 . S
C1966 H1940 0.950 . S
C1966 C1962 1.385 . S
C1966 C1965 1.374 . S
C1967 C1964 1.499 . S
C1967 C1968 1.373 . S
C1967 C1969 1.389 . S
C1968 H1941 0.950 . S
C1968 C1954 1.377 . S
C1968 C1967 1.373 . S
C1969 C1953 1.377 . S
C1969 C1967 1.389 . S
C1969 C1970 1.524 . S
C1970 C1969 1.524 . S
C1970 C1971 1.397 . S
C1970 C1975 1.363 . S
C1971 H1942 0.950 . S
C1971 C1970 1.397 . S
C1971 C1972 1.334 . S
C1972 H1943 0.950 . S
C1972 C1971 1.334 . S
C1972 C1973 1.287 . S
C1973 C1972 1.287 . S
C1973 C1974 1.524 . S
C1973 H1976 0.999 . S
C1974 H1944 0.950 . S
C1974 C1973 1.524 . S
C1974 C1975 1.415 . S
C1975 H1945 0.950 . S
C1975 C1970 1.363 . S
C1975 C1974 1.415 . S
H1976 C1973 0.999 . S
H1977 C1958 0.913 . S
H1978 C1996 0.951 . S
H1979 C1998 0.951 . S
H1980 C2000 0.950 . S
H1981 C2001 0.950 . S
H1982 C2003 0.950 . S
H1983 C2006 0.950 . S
H1984 C2007 0.950 . S
H1985 C2009 0.950 . S
H1986 C2010 0.950 . S
H1987 C2011 0.951 . S
H1988 C2013 0.951 . S
H1989 C2015 0.950 . S
H1990 C2016 0.950 . S
H1991 C2018 0.950 . S
H1992 C2021 0.950 . S
H1993 C2022 0.950 . S
H1994 C2024 0.950 . S
H1995 C2025 0.950 . S
C1996 H1978 0.951 . S
C1996 C1997 1.366 . S
C1996 C1998 1.388 . S
C1997 C1996 1.366 . S
C1997 C2001 1.385 . S
C1998 H1979 0.951 . S
C1998 C1996 1.388 . S
C1998 C1999 1.366 . S
C1999 C1998 1.366 . S
C1999 C2000 1.414 . S
C1999 C2002 1.499 . S
C2000 H1980 0.950 . S
C2000 C1999 1.414 . S
C2000 C2001 1.374 . S
C2001 H1981 0.950 . S
C2001 C1997 1.385 . S
C2001 C2000 1.374 . S
C2002 C1999 1.499 . S
C2002 C2003 1.373 . S
C2002 C2004 1.389 . S
C2003 H1982 0.950 . S
C2003 C2002 1.373 . S
C2003 C2019 1.377 . S
C2004 C2002 1.389 . S
C2004 C2005 1.524 . S
C2004 C2018 1.377 . S
C2005 C2004 1.524 . S
C2005 C2006 1.397 . S
C2005 C2010 1.363 . S
C2006 H1983 0.950 . S
C2006 C2005 1.397 . S
C2006 C2007 1.334 . S
C2007 H1984 0.950 . S
C2007 C2006 1.334 . S
C2007 C2008 1.287 . S
C2008 C2007 1.287 . S
C2008 C2009 1.524 . S
C2008 H2027 0.913 . S
C2009 H1985 0.950 . S
C2009 C2008 1.524 . S
C2009 C2010 1.415 . S
C2010 H1986 0.950 . S
C2010 C2005 1.363 . S
C2010 C2009 1.415 . S
C2011 H1987 0.951 . S
C2011 C2012 1.366 . S
C2011 C2013 1.388 . S
C2012 C2011 1.366 . S
C2012 C2016 1.385 . S
C2013 H1988 0.951 . S
C2013 C2011 1.388 . S
C2013 C2014 1.366 . S
C2014 C2013 1.366 . S
C2014 C2015 1.414 . S
C2014 C2017 1.499 . S
C2015 H1989 0.950 . S
C2015 C2014 1.414 . S
C2015 C2016 1.374 . S
C2016 H1990 0.950 . S
C2016 C2012 1.385 . S
C2016 C2015 1.374 . S
C2017 C2014 1.499 . S
C2017 C2018 1.373 . S
C2017 C2019 1.389 . S
C2018 H1991 0.950 . S
C2018 C2004 1.377 . S
C2018 C2017 1.373 . S
C2019 C2003 1.377 . S
C2019 C2017 1.389 . S
C2019 C2020 1.524 . S
C2020 C2019 1.524 . S
C2020 C2021 1.397 . S
C2020 C2025 1.363 . S
C2021 H1992 0.950 . S
C2021 C2020 1.397 . S
C2021 C2022 1.334 . S
C2022 H1993 0.950 . S
C2022 C2021 1.334 . S
C2022 C2023 1.287 . S
C2023 C2022 1.287 . S
C2023 C2024 1.524 . S
C2023 H2026 0.999 . S
C2024 H1994 0.950 . S
C2024 C2023 1.524 . S
C2024 C2025 1.415 . S
C2025 H1995 0.950 . S
C2025 C2020 1.363 . S
C2025 C2024 1.415 . S
H2026 C2023 0.999 . S
H2027 C2008 0.913 . S
H2028 C2046 0.951 . S
H2029 C2048 0.951 . S
H2030 C2050 0.950 . S
H2031 C2051 0.950 . S
H2032 C2053 0.950 . S
H2033 C2056 0.950 . S
H2034 C2057 0.950 . S
H2035 C2059 0.950 . S
H2036 C2060 0.950 . S
H2037 C2061 0.951 . S
H2038 C2063 0.951 . S
H2039 C2065 0.950 . S
H2040 C2066 0.950 . S
H2041 C2068 0.950 . S
H2042 C2071 0.950 . S
H2043 C2072 0.950 . S
H2044 C2074 0.950 . S
H2045 C2075 0.950 . S
C2046 H2028 0.951 . S
C2046 C2047 1.366 . S
C2046 C2048 1.388 . S
C2047 C2046 1.366 . S
C2047 C2051 1.385 . S
C2048 H2029 0.951 . S
C2048 C2046 1.388 . S
C2048 C2049 1.366 . S
C2049 C2048 1.366 . S
C2049 C2050 1.414 . S
C2049 C2052 1.499 . S
C2050 H2030 0.950 . S
C2050 C2049 1.414 . S
C2050 C2051 1.374 . S
C2051 H2031 0.950 . S
C2051 C2047 1.385 . S
C2051 C2050 1.374 . S
C2052 C2049 1.499 . S
C2052 C2053 1.373 . S
C2052 C2054 1.389 . S
C2053 H2032 0.950 . S
C2053 C2052 1.373 . S
C2053 C2069 1.377 . S
C2054 C2052 1.389 . S
C2054 C2055 1.524 . S
C2054 C2068 1.377 . S
C2055 C2054 1.524 . S
C2055 C2056 1.397 . S
C2055 C2060 1.363 . S
C2056 H2033 0.950 . S
C2056 C2055 1.397 . S
C2056 C2057 1.334 . S
C2057 H2034 0.950 . S
C2057 C2056 1.334 . S
C2057 C2058 1.287 . S
C2058 C2057 1.287 . S
C2058 C2059 1.524 . S
C2058 H2077 0.913 . S
C2059 H2035 0.950 . S
C2059 C2058 1.524 . S
C2059 C2060 1.415 . S
C2060 H2036 0.950 . S
C2060 C2055 1.363 . S
C2060 C2059 1.415 . S
C2061 H2037 0.951 . S
C2061 C2062 1.366 . S
C2061 C2063 1.388 . S
C2062 C2061 1.366 . S
C2062 C2066 1.385 . S
C2063 H2038 0.951 . S
C2063 C2061 1.388 . S
C2063 C2064 1.366 . S
C2064 C2063 1.366 . S
C2064 C2065 1.414 . S
C2064 C2067 1.499 . S
C2065 H2039 0.950 . S
C2065 C2064 1.414 . S
C2065 C2066 1.374 . S
C2066 H2040 0.950 . S
C2066 C2062 1.385 . S
C2066 C2065 1.374 . S
C2067 C2064 1.499 . S
C2067 C2068 1.373 . S
C2067 C2069 1.389 . S
C2068 H2041 0.950 . S
C2068 C2054 1.377 . S
C2068 C2067 1.373 . S
C2069 C2053 1.377 . S
C2069 C2067 1.389 . S
C2069 C2070 1.524 . S
C2070 C2069 1.524 . S
C2070 C2071 1.397 . S
C2070 C2075 1.363 . S
C2071 H2042 0.950 . S
C2071 C2070 1.397 . S
C2071 C2072 1.334 . S
C2072 H2043 0.950 . S
C2072 C2071 1.334 . S
C2072 C2073 1.287 . S
C2073 C2072 1.287 . S
C2073 C2074 1.524 . S
C2073 H2076 0.999 . S
C2074 H2044 0.950 . S
C2074 C2073 1.524 . S
C2074 C2075 1.415 . S
C2075 H2045 0.950 . S
C2075 C2070 1.363 . S
C2075 C2074 1.415 . S
H2076 C2073 0.999 . S
H2077 C2058 0.913 . S
H2078 C2096 0.951 . S
H2079 C2098 0.951 . S
H2080 C2100 0.950 . S
H2081 C2101 0.950 . S
H2082 C2103 0.950 . S
H2083 C2106 0.950 . S
H2084 C2107 0.950 . S
H2085 C2109 0.950 . S
H2086 C2110 0.950 . S
H2087 C2111 0.951 . S
H2088 C2113 0.951 . S
H2089 C2115 0.950 . S
H2090 C2116 0.950 . S
H2091 C2118 0.950 . S
H2092 C2121 0.950 . S
H2093 C2122 0.950 . S
H2094 C2124 0.950 . S
H2095 C2125 0.950 . S
C2096 H2078 0.951 . S
C2096 C2097 1.366 . S
C2096 C2098 1.388 . S
C2097 C2096 1.366 . S
C2097 C2101 1.385 . S
C2098 H2079 0.951 . S
C2098 C2096 1.388 . S
C2098 C2099 1.366 . S
C2099 C2098 1.366 . S
C2099 C2100 1.414 . S
C2099 C2102 1.499 . S
C2100 H2080 0.950 . S
C2100 C2099 1.414 . S
C2100 C2101 1.374 . S
C2101 H2081 0.950 . S
C2101 C2097 1.385 . S
C2101 C2100 1.374 . S
C2102 C2099 1.499 . S
C2102 C2103 1.373 . S
C2102 C2104 1.389 . S
C2103 H2082 0.950 . S
C2103 C2102 1.373 . S
C2103 C2119 1.377 . S
C2104 C2102 1.389 . S
C2104 C2105 1.524 . S
C2104 C2118 1.377 . S
C2105 C2104 1.524 . S
C2105 C2106 1.397 . S
C2105 C2110 1.363 . S
C2106 H2083 0.950 . S
C2106 C2105 1.397 . S
C2106 C2107 1.334 . S
C2107 H2084 0.950 . S
C2107 C2106 1.334 . S
C2107 C2108 1.287 . S
C2108 C2107 1.287 . S
C2108 C2109 1.524 . S
C2108 H2127 0.913 . S
C2109 H2085 0.950 . S
C2109 C2108 1.524 . S
C2109 C2110 1.415 . S
C2110 H2086 0.950 . S
C2110 C2105 1.363 . S
C2110 C2109 1.415 . S
C2111 H2087 0.951 . S
C2111 C2112 1.366 . S
C2111 C2113 1.388 . S
C2112 C2111 1.366 . S
C2112 C2116 1.385 . S
C2113 H2088 0.951 . S
C2113 C2111 1.388 . S
C2113 C2114 1.366 . S
C2114 C2113 1.366 . S
C2114 C2115 1.414 . S
C2114 C2117 1.499 . S
C2115 H2089 0.950 . S
C2115 C2114 1.414 . S
C2115 C2116 1.374 . S
C2116 H2090 0.950 . S
C2116 C2112 1.385 . S
C2116 C2115 1.374 . S
C2117 C2114 1.499 . S
C2117 C2118 1.373 . S
C2117 C2119 1.389 . S
C2118 H2091 0.950 . S
C2118 C2104 1.377 . S
C2118 C2117 1.373 . S
C2119 C2103 1.377 . S
C2119 C2117 1.389 . S
C2119 C2120 1.524 . S
C2120 C2119 1.524 . S
C2120 C2121 1.397 . S
C2120 C2125 1.363 . S
C2121 H2092 0.950 . S
C2121 C2120 1.397 . S
C2121 C2122 1.334 . S
C2122 H2093 0.950 . S
C2122 C2121 1.334 . S
C2122 C2123 1.287 . S
C2123 C2122 1.287 . S
C2123 C2124 1.524 . S
C2123 H2126 0.999 . S
C2124 H2094 0.950 . S
C2124 C2123 1.524 . S
C2124 C2125 1.415 . S
C2125 H2095 0.950 . S
C2125 C2120 1.363 . S
C2125 C2124 1.415 . S
H2126 C2123 0.999 . S
H2127 C2108 0.913 . S
H2128 C2146 0.951 . S
H2129 C2148 0.951 . S
H2130 C2150 0.986 . S
H2131 C2151 0.969 . S
H2132 C2153 0.950 . S
H2133 C2156 0.950 1_565 S
H2134 C2157 0.944 1_565 S
H2135 C2159 0.950 . S
H2136 C2160 0.950 . S
H2137 C2161 0.948 1_565 S
H2138 C2163 0.936 1_565 S
H2139 C2165 0.950 . S
H2140 C2166 0.950 . S
H2141 C2168 0.950 . S
H2142 C2171 0.950 . S
H2143 C2172 0.950 . S
H2144 C2174 0.950 . S
H2145 C2175 0.950 . S
C2146 H2128 0.951 . S
C2146 C2147 1.366 . S
C2146 C2148 1.388 . S
C2147 C2146 1.366 . S
C2147 C2151 1.365 1_545 S
C2148 H2129 0.951 . S
C2148 C2146 1.388 . S
C2148 C2149 1.366 . S
C2149 C2148 1.366 . S
C2149 C2150 1.379 1_545 S
C2149 C2152 1.499 . S
C2150 H2130 0.986 . S
C2150 C2149 1.379 1_565 S
C2150 C2151 1.374 . S
C2151 H2131 0.969 . S
C2151 C2147 1.365 1_565 S
C2151 C2150 1.374 . S
C2152 C2149 1.499 . S
C2152 C2153 1.373 . S
C2152 C2154 1.389 . S
C2153 H2132 0.950 . S
C2153 C2152 1.373 . S
C2153 C2169 1.377 1_556 S
C2154 C2152 1.389 . S
C2154 C2155 1.524 . S
C2154 C2168 1.377 1_556 S
C2155 C2154 1.524 . S
C2155 C2156 1.397 . S
C2155 C2160 1.363 . S
C2156 H2133 0.950 1_545 S
C2156 C2155 1.397 . S
C2156 C2157 1.334 . S
C2157 H2134 0.944 1_545 S
C2157 C2156 1.334 . S
C2157 C2158 1.287 . S
C2158 C2157 1.287 . S
C2158 C2159 1.524 . S
C2158 H2177 0.913 . S
C2159 H2135 0.950 . S
C2159 C2158 1.524 . S
C2159 C2160 1.415 . S
C2160 H2136 0.950 . S
C2160 C2155 1.363 . S
C2160 C2159 1.415 . S
C2161 H2137 0.948 1_545 S
C2161 C2162 1.368 . S
C2161 C2163 1.388 . S
C2162 C2161 1.368 . S
C2162 C2166 1.385 . S
C2163 H2138 0.936 1_545 S
C2163 C2161 1.388 . S
C2163 C2164 1.381 . S
C2164 C2163 1.381 . S
C2164 C2165 1.414 . S
C2164 C2167 1.499 . S
C2165 H2139 0.950 . S
C2165 C2164 1.414 . S
C2165 C2166 1.374 . S
C2166 H2140 0.950 . S
C2166 C2162 1.385 . S
C2166 C2165 1.374 . S
C2167 C2164 1.499 . S
C2167 C2168 1.373 . S
C2167 C2169 1.389 . S
C2168 H2141 0.950 . S
C2168 C2154 1.377 1_554 S
C2168 C2167 1.373 . S
C2169 C2153 1.377 1_554 S
C2169 C2167 1.389 . S
C2169 C2170 1.524 . S
C2170 C2169 1.524 . S
C2170 C2171 1.397 . S
C2170 C2175 1.363 1_545 S
C2171 H2142 0.950 . S
C2171 C2170 1.397 . S
C2171 C2172 1.334 . S
C2172 H2143 0.950 . S
C2172 C2171 1.334 . S
C2172 C2173 1.287 . S
C2173 C2172 1.287 . S
C2173 C2174 1.524 1_545 S
C2173 H2176 0.999 . S
C2174 H2144 0.950 . S
C2174 C2173 1.524 1_565 S
C2174 C2175 1.415 . S
C2175 H2145 0.950 . S
C2175 C2170 1.363 1_565 S
C2175 C2174 1.415 . S
H2176 C2173 0.999 . S
H2177 C2158 0.913 . S
H2178 C2196 0.951 . S
H2179 C2198 0.951 . S
H2180 C2200 0.950 . S
H2181 C2201 0.950 . S
H2182 C2203 0.950 . S
H2183 C2206 0.950 . S
H2184 C2207 0.950 . S
H2185 C2209 0.950 . S
H2186 C2210 0.950 . S
H2187 C2211 0.951 . S
H2188 C2213 0.951 . S
H2189 C2215 0.950 . S
H2190 C2216 0.950 . S
H2191 C2218 0.950 . S
H2192 C2221 0.950 . S
H2193 C2222 0.950 . S
H2194 C2224 0.950 . S
H2195 C2225 0.950 . S
C2196 H2178 0.951 . S
C2196 C2197 1.366 . S
C2196 C2198 1.388 . S
C2197 C2196 1.366 . S
C2197 C2201 1.385 . S
C2198 H2179 0.951 . S
C2198 C2196 1.388 . S
C2198 C2199 1.366 . S
C2199 C2198 1.366 . S
C2199 C2200 1.414 . S
C2199 C2202 1.499 . S
C2200 H2180 0.950 . S
C2200 C2199 1.414 . S
C2200 C2201 1.374 . S
C2201 H2181 0.950 . S
C2201 C2197 1.385 . S
C2201 C2200 1.374 . S
C2202 C2199 1.499 . S
C2202 C2203 1.373 . S
C2202 C2204 1.389 . S
C2203 H2182 0.950 . S
C2203 C2202 1.373 . S
C2203 C2219 1.377 . S
C2204 C2202 1.389 . S
C2204 C2205 1.524 . S
C2204 C2218 1.377 . S
C2205 C2204 1.524 . S
C2205 C2206 1.397 . S
C2205 C2210 1.363 . S
C2206 H2183 0.950 . S
C2206 C2205 1.397 . S
C2206 C2207 1.334 . S
C2207 H2184 0.950 . S
C2207 C2206 1.334 . S
C2207 C2208 1.287 . S
C2208 C2207 1.287 . S
C2208 C2209 1.524 . S
C2208 H2227 0.913 . S
C2209 H2185 0.950 . S
C2209 C2208 1.524 . S
C2209 C2210 1.415 . S
C2210 H2186 0.950 . S
C2210 C2205 1.363 . S
C2210 C2209 1.415 . S
C2211 H2187 0.951 . S
C2211 C2212 1.366 . S
C2211 C2213 1.388 . S
C2212 C2211 1.366 . S
C2212 C2216 1.385 . S
C2213 H2188 0.951 . S
C2213 C2211 1.388 . S
C2213 C2214 1.366 . S
C2214 C2213 1.366 . S
C2214 C2215 1.414 . S
C2214 C2217 1.499 . S
C2215 H2189 0.950 . S
C2215 C2214 1.414 . S
C2215 C2216 1.374 . S
C2216 H2190 0.950 . S
C2216 C2212 1.385 . S
C2216 C2215 1.374 . S
C2217 C2214 1.499 . S
C2217 C2218 1.373 . S
C2217 C2219 1.389 . S
C2218 H2191 0.950 . S
C2218 C2204 1.377 . S
C2218 C2217 1.373 . S
C2219 C2203 1.377 . S
C2219 C2217 1.389 . S
C2219 C2220 1.524 . S
C2220 C2219 1.524 . S
C2220 C2221 1.397 . S
C2220 C2225 1.363 . S
C2221 H2192 0.950 . S
C2221 C2220 1.397 . S
C2221 C2222 1.334 . S
C2222 H2193 0.950 . S
C2222 C2221 1.334 . S
C2222 C2223 1.287 . S
C2223 C2222 1.287 . S
C2223 C2224 1.524 . S
C2223 H2226 0.999 . S
C2224 H2194 0.950 . S
C2224 C2223 1.524 . S
C2224 C2225 1.415 . S
C2225 H2195 0.950 . S
C2225 C2220 1.363 . S
C2225 C2224 1.415 . S
H2226 C2223 0.999 . S
H2227 C2208 0.913 . S
H2228 C2246 0.951 . S
H2229 C2248 0.951 . S
H2230 C2250 0.950 . S
H2231 C2251 0.950 . S
H2232 C2253 0.950 . S
H2233 C2256 0.950 . S
H2234 C2257 0.950 . S
H2235 C2259 0.950 . S
H2236 C2260 0.950 . S
H2237 C2261 0.951 . S
H2238 C2263 0.951 . S
H2239 C2265 0.950 . S
H2240 C2266 0.950 . S
H2241 C2268 0.950 . S
H2242 C2271 0.950 . S
H2243 C2272 0.950 . S
H2244 C2274 0.950 . S
H2245 C2275 0.950 . S
C2246 H2228 0.951 . S
C2246 C2247 1.366 . S
C2246 C2248 1.388 . S
C2247 C2246 1.366 . S
C2247 C2251 1.385 . S
C2248 H2229 0.951 . S
C2248 C2246 1.388 . S
C2248 C2249 1.366 . S
C2249 C2248 1.366 . S
C2249 C2250 1.414 . S
C2249 C2252 1.499 . S
C2250 H2230 0.950 . S
C2250 C2249 1.414 . S
C2250 C2251 1.374 . S
C2251 H2231 0.950 . S
C2251 C2247 1.385 . S
C2251 C2250 1.374 . S
C2252 C2249 1.499 . S
C2252 C2253 1.373 . S
C2252 C2254 1.389 . S
C2253 H2232 0.950 . S
C2253 C2252 1.373 . S
C2253 C2269 1.377 1_554 S
C2254 C2252 1.389 . S
C2254 C2255 1.524 . S
C2254 C2268 1.377 1_554 S
C2255 C2254 1.524 . S
C2255 C2256 1.397 . S
C2255 C2260 1.363 . S
C2256 H2233 0.950 . S
C2256 C2255 1.397 . S
C2256 C2257 1.334 . S
C2257 H2234 0.950 . S
C2257 C2256 1.334 . S
C2257 C2258 1.287 . S
C2258 C2257 1.287 . S
C2258 C2259 1.524 . S
C2258 H2277 0.913 . S
C2259 H2235 0.950 . S
C2259 C2258 1.524 . S
C2259 C2260 1.415 . S
C2260 H2236 0.950 . S
C2260 C2255 1.363 . S
C2260 C2259 1.415 . S
C2261 H2237 0.951 . S
C2261 C2262 1.366 . S
C2261 C2263 1.388 . S
C2262 C2261 1.366 . S
C2262 C2266 1.385 . S
C2263 H2238 0.951 . S
C2263 C2261 1.388 . S
C2263 C2264 1.366 . S
C2264 C2263 1.366 . S
C2264 C2265 1.414 . S
C2264 C2267 1.499 . S
C2265 H2239 0.950 . S
C2265 C2264 1.414 . S
C2265 C2266 1.374 . S
C2266 H2240 0.950 . S
C2266 C2262 1.385 . S
C2266 C2265 1.374 . S
C2267 C2264 1.499 . S
C2267 C2268 1.373 . S
C2267 C2269 1.389 . S
C2268 H2241 0.950 . S
C2268 C2254 1.377 1_556 S
C2268 C2267 1.373 . S
C2269 C2253 1.377 1_556 S
C2269 C2267 1.389 . S
C2269 C2270 1.524 . S
C2270 C2269 1.524 . S
C2270 C2271 1.397 . S
C2270 C2275 1.363 . S
C2271 H2242 0.950 . S
C2271 C2270 1.397 . S
C2271 C2272 1.334 . S
C2272 H2243 0.950 . S
C2272 C2271 1.334 . S
C2272 C2273 1.287 . S
C2273 C2272 1.287 . S
C2273 C2274 1.524 . S
C2273 H2276 0.999 . S
C2274 H2244 0.950 . S
C2274 C2273 1.524 . S
C2274 C2275 1.415 . S
C2275 H2245 0.950 . S
C2275 C2270 1.363 . S
C2275 C2274 1.415 . S
H2276 C2273 0.999 . S
H2277 C2258 0.913 . S
H2278 C2296 0.951 . S
H2279 C2298 0.951 . S
H2280 C2300 0.950 . S
H2281 C2301 0.950 . S
H2282 C2303 0.950 . S
H2283 C2306 0.950 1_455 S
H2284 C2307 0.950 . S
H2285 C2309 0.950 . S
H2286 C2310 0.950 . S
H2287 C2311 0.951 . S
H2288 C2313 0.951 . S
H2289 C2315 0.950 . S
H2290 C2316 0.950 . S
H2291 C2318 0.950 1_655 S
H2292 C2321 0.950 . S
H2293 C2322 0.950 . S
H2294 C2324 0.950 . S
H2295 C2325 0.950 . S
C2296 H2278 0.951 . S
C2296 C2297 1.366 1_655 S
C2296 C2298 1.388 . S
C2297 C2296 1.366 1_455 S
C2297 C2301 1.385 . S
C2298 H2279 0.951 . S
C2298 C2296 1.388 . S
C2298 C2299 1.366 1_655 S
C2299 C2298 1.366 1_455 S
C2299 C2300 1.414 . S
C2299 C2302 1.499 . S
C2300 H2280 0.950 . S
C2300 C2299 1.414 . S
C2300 C2301 1.374 . S
C2301 H2281 0.950 . S
C2301 C2297 1.385 . S
C2301 C2300 1.374 . S
C2302 C2299 1.499 . S
C2302 C2303 1.373 . S
C2302 C2304 1.389 . S
C2303 H2282 0.950 . S
C2303 C2302 1.373 . S
C2303 C2319 1.377 . S
C2304 C2302 1.389 . S
C2304 C2305 1.524 1_455 S
C2304 C2318 1.377 . S
C2305 C2304 1.524 1_655 S
C2305 C2306 1.397 . S
C2305 C2310 1.363 . S
C2306 H2283 0.950 1_655 S
C2306 C2305 1.397 . S
C2306 C2307 1.334 . S
C2307 H2284 0.950 . S
C2307 C2306 1.334 . S
C2307 C2308 1.287 . S
C2308 C2307 1.287 . S
C2308 C2309 1.524 . S
C2308 H2327 0.913 . S
C2309 H2285 0.950 . S
C2309 C2308 1.524 . S
C2309 C2310 1.415 . S
C2310 H2286 0.950 . S
C2310 C2305 1.363 . S
C2310 C2309 1.415 . S
C2311 H2287 0.951 . S
C2311 C2312 1.366 . S
C2311 C2313 1.388 . S
C2312 C2311 1.366 . S
C2312 C2316 1.385 1_455 S
C2313 H2288 0.951 . S
C2313 C2311 1.388 . S
C2313 C2314 1.366 . S
C2314 C2313 1.366 . S
C2314 C2315 1.414 1_455 S
C2314 C2317 1.499 . S
C2315 H2289 0.950 . S
C2315 C2314 1.414 1_655 S
C2315 C2316 1.374 . S
C2316 H2290 0.950 . S
C2316 C2312 1.385 1_655 S
C2316 C2315 1.374 . S
C2317 C2314 1.499 . S
C2317 C2318 1.373 . S
C2317 C2319 1.389 . S
C2318 H2291 0.950 1_455 S
C2318 C2304 1.377 . S
C2318 C2317 1.373 . S
C2319 C2303 1.377 . S
C2319 C2317 1.389 . S
C2319 C2320 1.524 . S
C2320 C2319 1.524 . S
C2320 C2321 1.397 . S
C2320 C2325 1.363 . S
C2321 H2292 0.950 . S
C2321 C2320 1.397 . S
C2321 C2322 1.334 . S
C2322 H2293 0.950 . S
C2322 C2321 1.334 . S
C2322 C2323 1.287 . S
C2323 C2322 1.287 . S
C2323 C2324 1.524 . S
C2323 H2326 0.999 . S
C2324 H2294 0.950 . S
C2324 C2323 1.524 . S
C2324 C2325 1.415 . S
C2325 H2295 0.950 . S
C2325 C2320 1.363 . S
C2325 C2324 1.415 . S
H2326 C2323 0.999 . S
H2327 C2308 0.913 . S
H2328 C2346 0.951 . S
H2329 C2348 0.951 . S
H2330 C2350 0.950 . S
H2331 C2351 0.950 . S
H2332 C2353 0.950 . S
H2333 C2356 0.950 . S
H2334 C2357 0.950 . S
H2335 C2359 0.950 . S
H2336 C2360 0.950 . S
H2337 C2361 0.951 . S
H2338 C2363 0.951 . S
H2339 C2365 0.950 . S
H2340 C2366 0.950 . S
H2341 C2368 0.950 . S
H2342 C2371 0.950 . S
H2343 C2372 0.950 . S
H2344 C2374 0.950 . S
H2345 C2375 0.950 . S
C2346 H2328 0.951 . S
C2346 C2347 1.366 . S
C2346 C2348 1.388 . S
C2347 C2346 1.366 . S
C2347 C2351 1.385 . S
C2348 H2329 0.951 . S
C2348 C2346 1.388 . S
C2348 C2349 1.366 . S
C2349 C2348 1.366 . S
C2349 C2350 1.414 . S
C2349 C2352 1.499 . S
C2350 H2330 0.950 . S
C2350 C2349 1.414 . S
C2350 C2351 1.374 . S
C2351 H2331 0.950 . S
C2351 C2347 1.385 . S
C2351 C2350 1.374 . S
C2352 C2349 1.499 . S
C2352 C2353 1.373 . S
C2352 C2354 1.389 . S
C2353 H2332 0.950 . S
C2353 C2352 1.373 . S
C2353 C2369 1.377 1_554 S
C2354 C2352 1.389 . S
C2354 C2355 1.524 . S
C2354 C2368 1.377 1_554 S
C2355 C2354 1.524 . S
C2355 C2356 1.397 . S
C2355 C2360 1.363 . S
C2356 H2333 0.950 . S
C2356 C2355 1.397 . S
C2356 C2357 1.334 . S
C2357 H2334 0.950 . S
C2357 C2356 1.334 . S
C2357 C2358 1.287 . S
C2358 C2357 1.287 . S
C2358 C2359 1.524 . S
C2358 H2377 0.913 . S
C2359 H2335 0.950 . S
C2359 C2358 1.524 . S
C2359 C2360 1.415 . S
C2360 H2336 0.950 . S
C2360 C2355 1.363 . S
C2360 C2359 1.415 . S
C2361 H2337 0.951 . S
C2361 C2362 1.366 . S
C2361 C2363 1.388 . S
C2362 C2361 1.366 . S
C2362 C2366 1.385 . S
C2363 H2338 0.951 . S
C2363 C2361 1.388 . S
C2363 C2364 1.366 . S
C2364 C2363 1.366 . S
C2364 C2365 1.414 . S
C2364 C2367 1.499 . S
C2365 H2339 0.950 . S
C2365 C2364 1.414 . S
C2365 C2366 1.374 . S
C2366 H2340 0.950 . S
C2366 C2362 1.385 . S
C2366 C2365 1.374 . S
C2367 C2364 1.499 . S
C2367 C2368 1.373 . S
C2367 C2369 1.389 . S
C2368 H2341 0.950 . S
C2368 C2354 1.377 1_556 S
C2368 C2367 1.373 . S
C2369 C2353 1.377 1_556 S
C2369 C2367 1.389 . S
C2369 C2370 1.524 . S
C2370 C2369 1.524 . S
C2370 C2371 1.397 1_565 S
C2370 C2375 1.363 . S
C2371 H2342 0.950 . S
C2371 C2370 1.397 1_545 S
C2371 C2372 1.334 . S
C2372 H2343 0.950 . S
C2372 C2371 1.334 . S
C2372 C2373 1.287 . S
C2373 C2372 1.287 . S
C2373 C2374 1.524 1_545 S
C2373 H2376 0.999 . S
C2374 H2344 0.950 . S
C2374 C2373 1.524 1_565 S
C2374 C2375 1.415 . S
C2375 H2345 0.950 . S
C2375 C2370 1.363 . S
C2375 C2374 1.415 . S
H2376 C2373 0.999 . S
H2377 C2358 0.913 . S
H2378 C2396 0.951 . S
H2379 C2398 0.951 . S
H2380 C2400 0.950 . S
H2381 C2401 0.950 . S
H2382 C2403 0.950 . S
H2383 C2406 0.950 . S
H2384 C2407 0.950 . S
H2385 C2409 0.950 . S
H2386 C2410 0.950 . S
H2387 C2411 0.951 . S
H2388 C2413 0.951 . S
H2389 C2415 0.950 . S
H2390 C2416 0.950 . S
H2391 C2418 0.950 . S
H2392 C2421 0.950 . S
H2393 C2422 0.950 . S
H2394 C2424 0.950 . S
H2395 C2425 0.950 . S
C2396 H2378 0.951 . S
C2396 C2397 1.366 . S
C2396 C2398 1.388 . S
C2397 C2396 1.366 . S
C2397 C2401 1.385 . S
C2398 H2379 0.951 . S
C2398 C2396 1.388 . S
C2398 C2399 1.366 . S
C2399 C2398 1.366 . S
C2399 C2400 1.414 . S
C2399 C2402 1.499 . S
C2400 H2380 0.950 . S
C2400 C2399 1.414 . S
C2400 C2401 1.374 . S
C2401 H2381 0.950 . S
C2401 C2397 1.385 . S
C2401 C2400 1.374 . S
C2402 C2399 1.499 . S
C2402 C2403 1.373 . S
C2402 C2404 1.389 . S
C2403 H2382 0.950 . S
C2403 C2402 1.373 . S
C2403 C2419 1.377 . S
C2404 C2402 1.389 . S
C2404 C2405 1.524 . S
C2404 C2418 1.377 . S
C2405 C2404 1.524 . S
C2405 C2406 1.397 . S
C2405 C2410 1.363 . S
C2406 H2383 0.950 . S
C2406 C2405 1.397 . S
C2406 C2407 1.334 . S
C2407 H2384 0.950 . S
C2407 C2406 1.334 . S
C2407 C2408 1.287 . S
C2408 C2407 1.287 . S
C2408 C2409 1.524 . S
C2408 H2427 0.913 . S
C2409 H2385 0.950 . S
C2409 C2408 1.524 . S
C2409 C2410 1.415 . S
C2410 H2386 0.950 . S
C2410 C2405 1.363 . S
C2410 C2409 1.415 . S
C2411 H2387 0.951 . S
C2411 C2412 1.366 . S
C2411 C2413 1.388 . S
C2412 C2411 1.366 . S
C2412 C2416 1.385 . S
C2413 H2388 0.951 . S
C2413 C2411 1.388 . S
C2413 C2414 1.366 . S
C2414 C2413 1.366 . S
C2414 C2415 1.414 . S
C2414 C2417 1.499 . S
C2415 H2389 0.950 . S
C2415 C2414 1.414 . S
C2415 C2416 1.374 . S
C2416 H2390 0.950 . S
C2416 C2412 1.385 . S
C2416 C2415 1.374 . S
C2417 C2414 1.499 . S
C2417 C2418 1.373 . S
C2417 C2419 1.389 . S
C2418 H2391 0.950 . S
C2418 C2404 1.377 . S
C2418 C2417 1.373 . S
C2419 C2403 1.377 . S
C2419 C2417 1.389 . S
C2419 C2420 1.524 . S
C2420 C2419 1.524 . S
C2420 C2421 1.397 . S
C2420 C2425 1.363 . S
C2421 H2392 0.950 . S
C2421 C2420 1.397 . S
C2421 C2422 1.334 . S
C2422 H2393 0.950 . S
C2422 C2421 1.334 . S
C2422 C2423 1.287 . S
C2423 C2422 1.287 . S
C2423 C2424 1.524 . S
C2423 H2426 0.999 . S
C2424 H2394 0.950 . S
C2424 C2423 1.524 . S
C2424 C2425 1.415 . S
C2425 H2395 0.950 . S
C2425 C2420 1.363 . S
C2425 C2424 1.415 . S
H2426 C2423 0.999 . S
H2427 C2408 0.913 . S
H2428 C2446 0.951 . S
H2429 C2448 0.951 . S
H2430 C2450 0.950 . S
H2431 C2451 0.950 . S
H2432 C2453 0.950 . S
H2433 C2456 0.950 . S
H2434 C2457 0.950 . S
H2435 C2459 0.950 . S
H2436 C2460 0.950 . S
H2437 C2461 0.951 . S
H2438 C2463 0.951 . S
H2439 C2465 0.950 . S
H2440 C2466 0.950 . S
H2441 C2468 0.950 . S
H2442 C2471 0.950 . S
H2443 C2472 0.950 . S
H2444 C2474 0.950 . S
H2445 C2475 0.950 . S
C2446 H2428 0.951 . S
C2446 C2447 1.366 . S
C2446 C2448 1.388 . S
C2447 C2446 1.366 . S
C2447 C2451 1.385 . S
C2448 H2429 0.951 . S
C2448 C2446 1.388 . S
C2448 C2449 1.366 . S
C2449 C2448 1.366 . S
C2449 C2450 1.414 . S
C2449 C2452 1.499 . S
C2450 H2430 0.950 . S
C2450 C2449 1.414 . S
C2450 C2451 1.374 . S
C2451 H2431 0.950 . S
C2451 C2447 1.385 . S
C2451 C2450 1.374 . S
C2452 C2449 1.499 . S
C2452 C2453 1.373 . S
C2452 C2454 1.389 . S
C2453 H2432 0.950 . S
C2453 C2452 1.373 . S
C2453 C2469 1.377 1_554 S
C2454 C2452 1.389 . S
C2454 C2455 1.524 . S
C2454 C2468 1.377 1_554 S
C2455 C2454 1.524 . S
C2455 C2456 1.397 . S
C2455 C2460 1.363 . S
C2456 H2433 0.950 . S
C2456 C2455 1.397 . S
C2456 C2457 1.334 . S
C2457 H2434 0.950 . S
C2457 C2456 1.334 . S
C2457 C2458 1.287 . S
C2458 C2457 1.287 . S
C2458 C2459 1.524 . S
C2458 H2477 0.913 . S
C2459 H2435 0.950 . S
C2459 C2458 1.524 . S
C2459 C2460 1.415 . S
C2460 H2436 0.950 . S
C2460 C2455 1.363 . S
C2460 C2459 1.415 . S
C2461 H2437 0.951 . S
C2461 C2462 1.366 . S
C2461 C2463 1.388 . S
C2462 C2461 1.366 . S
C2462 C2466 1.385 . S
C2463 H2438 0.951 . S
C2463 C2461 1.388 . S
C2463 C2464 1.366 . S
C2464 C2463 1.366 . S
C2464 C2465 1.414 . S
C2464 C2467 1.499 . S
C2465 H2439 0.950 . S
C2465 C2464 1.414 . S
C2465 C2466 1.374 . S
C2466 H2440 0.950 . S
C2466 C2462 1.385 . S
C2466 C2465 1.374 . S
C2467 C2464 1.499 . S
C2467 C2468 1.373 . S
C2467 C2469 1.389 . S
C2468 H2441 0.950 . S
C2468 C2454 1.377 1_556 S
C2468 C2467 1.373 . S
C2469 C2453 1.377 1_556 S
C2469 C2467 1.389 . S
C2469 C2470 1.524 . S
C2470 C2469 1.524 . S
C2470 C2471 1.397 . S
C2470 C2475 1.363 . S
C2471 H2442 0.950 . S
C2471 C2470 1.397 . S
C2471 C2472 1.334 . S
C2472 H2443 0.950 . S
C2472 C2471 1.334 . S
C2472 C2473 1.287 . S
C2473 C2472 1.287 . S
C2473 C2474 1.524 . S
C2473 H2476 0.999 . S
C2474 H2444 0.950 . S
C2474 C2473 1.524 . S
C2474 C2475 1.415 . S
C2475 H2445 0.950 . S
C2475 C2470 1.363 . S
C2475 C2474 1.415 . S
H2476 C2473 0.999 . S
H2477 C2458 0.913 . S
H2478 C2496 0.951 . S
H2479 C2498 0.951 . S
H2480 C2500 0.950 . S
H2481 C2501 0.950 . S
H2482 C2503 0.950 . S
H2483 C2506 0.950 . S
H2484 C2507 0.950 . S
H2485 C2509 0.950 . S
H2486 C2510 0.950 . S
H2487 C2511 0.951 . S
H2488 C2513 0.951 . S
H2489 C2515 0.950 . S
H2490 C2516 0.950 . S
H2491 C2518 0.950 . S
H2492 C2521 0.950 . S
H2493 C2522 0.950 . S
H2494 C2524 0.950 . S
H2495 C2525 0.950 . S
C2496 H2478 0.951 . S
C2496 C2497 1.366 . S
C2496 C2498 1.388 . S
C2497 C2496 1.366 . S
C2497 C2501 1.385 . S
C2498 H2479 0.951 . S
C2498 C2496 1.388 . S
C2498 C2499 1.366 . S
C2499 C2498 1.366 . S
C2499 C2500 1.414 . S
C2499 C2502 1.499 . S
C2500 H2480 0.950 . S
C2500 C2499 1.414 . S
C2500 C2501 1.374 . S
C2501 H2481 0.950 . S
C2501 C2497 1.385 . S
C2501 C2500 1.374 . S
C2502 C2499 1.499 . S
C2502 C2503 1.373 . S
C2502 C2504 1.389 . S
C2503 H2482 0.950 . S
C2503 C2502 1.373 . S
C2503 C2519 1.377 . S
C2504 C2502 1.389 . S
C2504 C2505 1.524 . S
C2504 C2518 1.377 . S
C2505 C2504 1.524 . S
C2505 C2506 1.397 . S
C2505 C2510 1.363 . S
C2506 H2483 0.950 . S
C2506 C2505 1.397 . S
C2506 C2507 1.334 . S
C2507 H2484 0.950 . S
C2507 C2506 1.334 . S
C2507 C2508 1.287 . S
C2508 C2507 1.287 . S
C2508 C2509 1.524 . S
C2508 H2527 0.913 . S
C2509 H2485 0.950 . S
C2509 C2508 1.524 . S
C2509 C2510 1.415 . S
C2510 H2486 0.950 . S
C2510 C2505 1.363 . S
C2510 C2509 1.415 . S
C2511 H2487 0.951 . S
C2511 C2512 1.366 . S
C2511 C2513 1.388 . S
C2512 C2511 1.366 . S
C2512 C2516 1.385 . S
C2513 H2488 0.951 . S
C2513 C2511 1.388 . S
C2513 C2514 1.366 . S
C2514 C2513 1.366 . S
C2514 C2515 1.414 . S
C2514 C2517 1.499 . S
C2515 H2489 0.950 . S
C2515 C2514 1.414 . S
C2515 C2516 1.374 . S
C2516 H2490 0.950 . S
C2516 C2512 1.385 . S
C2516 C2515 1.374 . S
C2517 C2514 1.499 . S
C2517 C2518 1.373 . S
C2517 C2519 1.389 . S
C2518 H2491 0.950 . S
C2518 C2504 1.377 . S
C2518 C2517 1.373 . S
C2519 C2503 1.377 . S
C2519 C2517 1.389 . S
C2519 C2520 1.524 . S
C2520 C2519 1.524 . S
C2520 C2521 1.397 1_655 S
C2520 C2525 1.363 . S
C2521 H2492 0.950 . S
C2521 C2520 1.397 1_455 S
C2521 C2522 1.334 . S
C2522 H2493 0.950 . S
C2522 C2521 1.334 . S
C2522 C2523 1.306 . S
C2523 C2522 1.306 . S
C2523 C2524 1.489 1_455 S
C2523 H2526 1.012 . S
C2524 H2494 0.950 . S
C2524 C2523 1.489 1_655 S
C2524 C2525 1.415 . S
C2525 H2495 0.950 . S
C2525 C2520 1.363 . S
C2525 C2524 1.415 . S
H2526 C2523 1.012 . S
H2527 C2508 0.913 . S
C547 N14 1.665 . S
C562 N245 1.665 . S
C597 N146 1.666 . S
C612 N47 1.666 . S
C647 N179 1.665 . S
C662 N80 1.665 . S
C697 N113 1.665 . S
C712 N212 1.665 . S
C747 N269 2.322 . S
C762 N500 2.322 . S
C797 N302 2.323 . S
C812 N401 2.323 . S
C847 N434 2.322 . S
C862 N335 2.322 . S
C897 N368 2.322 . S
C912 N467 2.322 . S
C947 C8 0.402 . S
C962 C314 0.550 . S
C997 C347 0.549 . S
C1012 C41 0.404 . S
C1047 C380 0.552 . S
C1062 C74 0.402 . S
C1097 C281 0.548 . S
C1112 C107 0.404 . S
C1147 C512 0.548 . S
C1162 C140 0.404 . S
C1197 C413 0.551 . S
C1212 C173 0.402 . S
C1247 C446 0.548 . S
C1262 C206 0.404 . S
C1297 C479 0.548 . S
C1312 C239 0.404 . S
C1347 C61 0.733 . S
C1362 C292 0.732 . S
C1397 C94 0.734 . S
C1412 C325 0.731 . S
C1447 C127 0.733 . S
C1462 C358 0.732 . S
C1497 C391 0.732 . S
C1512 C28 0.733 . S
C1547 C259 0.734 . S
C1562 C424 0.731 . S
C1597 C160 0.734 . S
C1612 C457 0.731 . S
C1647 C193 0.732 . S
C1662 C490 0.732 . S
C1697 C226 0.733 . S
C1712 C523 0.732 . S
C1747 N71 0.886 . S
C1762 N5 0.887 . S
C1797 N38 0.886 . S
C1812 N104 0.888 . S
C1847 N203 0.886 . S
C1862 N137 0.885 . S
C1897 N236 0.887 . S
C1912 N170 0.888 . S
C1947 N344 0.901 . S
C1962 N278 0.898 . S
C1997 N377 0.901 . S
C2012 N311 0.898 . S
C2047 N410 0.901 . S
C2062 N476 0.899 . S
C2097 N509 0.901 . S
C2112 N443 0.899 . S
C2147 C215 1.272 . S
C2162 C17 1.272 . S
C2197 C248 1.273 . S
C2212 C50 1.273 . S
C2247 C83 1.273 . S
C2262 C149 1.273 . S
C2297 C182 1.272 . S
C2312 C116 1.273 . S
C2347 C470 1.390 . S
C2362 C272 1.389 . S
C2397 C503 1.390 . S
C2412 C305 1.390 . S
C2447 C404 1.390 . S
C2462 C338 1.390 . S
C2497 C371 1.390 . S
C2512 C437 1.389 . S
