# Generated by pormake.
# Topology sml, (6)-cn, num edge types: 1
# Building blocks:
#     Node 0, Type 0, BuildingBlock: CUKXOW_clean_sbu_0, # of connection points: 6
#     Node 1, Type 0, BuildingBlock: CUKXOW_clean_sbu_0, # of connection points: 6
#     Node 2, Type 0, BuildingBlock: CUKXOW_clean_sbu_0, # of connection points: 6
#     Node 3, Type 0, BuildingBlock: CUKXOW_clean_sbu_0, # of connection points: 6
#     Node 4, Type 0, BuildingBlock: CUKXOW_clean_sbu_0, # of connection points: 6
#     Node 5, Type 0, BuildingBlock: CUKXOW_clean_sbu_0, # of connection points: 6
#     Edge 6, Type (0, 0), BuildingBlock: MIFKUJ_clean_linker_0, # of connection points: 2
#     Edge 7, Type (0, 0), BuildingBlock: MIFKUJ_clean_linker_0, # of connection points: 2
#     Edge 8, Type (0, 0), BuildingBlock: MIFKUJ_clean_linker_0, # of connection points: 2
#     Edge 9, Type (0, 0), BuildingBlock: MIFKUJ_clean_linker_0, # of connection points: 2
#     Edge 10, Type (0, 0), BuildingBlock: MIFKUJ_clean_linker_0, # of connection points: 2
#     Edge 11, Type (0, 0), BuildingBlock: MIFKUJ_clean_linker_0, # of connection points: 2
#     Edge 12, Type (0, 0), BuildingBlock: MIFKUJ_clean_linker_0, # of connection points: 2
#     Edge 13, Type (0, 0), BuildingBlock: MIFKUJ_clean_linker_0, # of connection points: 2
#     Edge 14, Type (0, 0), BuildingBlock: MIFKUJ_clean_linker_0, # of connection points: 2
#     Edge 15, Type (0, 0), BuildingBlock: MIFKUJ_clean_linker_0, # of connection points: 2
#     Edge 16, Type (0, 0), BuildingBlock: MIFKUJ_clean_linker_0, # of connection points: 2
#     Edge 17, Type (0, 0), BuildingBlock: MIFKUJ_clean_linker_0, # of connection points: 2
#     Edge 18, Type (0, 0), BuildingBlock: MIFKUJ_clean_linker_0, # of connection points: 2
#     Edge 19, Type (0, 0), BuildingBlock: MIFKUJ_clean_linker_0, # of connection points: 2
#     Edge 20, Type (0, 0), BuildingBlock: MIFKUJ_clean_linker_0, # of connection points: 2
#     Edge 21, Type (0, 0), BuildingBlock: MIFKUJ_clean_linker_0, # of connection points: 2
#     Edge 22, Type (0, 0), BuildingBlock: MIFKUJ_clean_linker_0, # of connection points: 2
#     Edge 23, Type (0, 0), BuildingBlock: MIFKUJ_clean_linker_0, # of connection points: 2
# Relax obj value: 0.141
# Max RMSD: 0.191
# Mean RMSD: 0.191
data_MOF--net-sml--node1-CUKXOW_clean_sbu_0--edge1-MIFKUJ_clean_linker_0
_symmetry_space_group_name_H-M    P1
_symmetry_Int_Tables_number       1
_symmetry_cell_setting            triclinic
loop_
_symmetry_equiv_pos_as_xyz
'x, y, z'
_cell_length_a     54.220289
_cell_length_b     54.118749
_cell_length_c     19.035878
_cell_angle_alpha  89.950975
_cell_angle_beta   90.196553
_cell_angle_gamma 119.92468
loop_
_atom_site_label
_atom_site_type_symbol
_atom_site_fract_x
_atom_site_fract_y
_atom_site_fract_z
_atom_type_partial_charge
Tb0 Tb 0.2059 0.39264 0.0475 0.0
C1 C 0.14347 0.37586 0.07975 0.0
Tb2 Tb 0.194 0.4398 0.07579 0.0
O3 O 0.19395 0.37601 0.1542 0.0
O4 O 0.21192 0.41954 0.13617 0.0
O5 O 0.15977 0.36775 0.04706 0.0
C6 C 0.18105 0.47732 0.13083 0.0
O7 O 0.15348 0.40232 0.10261 0.0
C8 C 0.20005 0.43243 0.94084 0.0
C9 C 0.25637 0.4566 0.04299 0.0
O10 O 0.17 0.46264 0.07399 0.0
O11 O 0.19915 0.47073 0.15657 0.0
O12 O 0.20619 0.45663 0.9692 0.0
O13 O 0.18827 0.41313 0.98691 0.0
O14 O 0.23994 0.46437 0.07625 0.0
O15 O 0.24653 0.4302 1.0199 0.0
C16 C 0.22073 0.35618 0.99523 0.0
O17 O 0.23147 0.37165 0.05104 0.0
O18 O 0.20171 0.3613 0.9686 0.0
C19 C 0.20038 0.4003 0.18247 0.0
Tb20 Tb 0.80851 0.20756 0.36274 0.0
C21 C 0.76275 0.14428 0.40063 0.0
Tb22 Tb 0.74424 0.19164 0.39599 0.0
O23 O 0.82263 0.21161 0.47381 0.0
O24 O 0.78252 0.20283 0.44926 0.0
O25 O 0.78709 0.16104 0.36722 0.0
C26 C 0.69664 0.18185 0.45955 0.0
O27 O 0.74526 0.15313 0.42346 0.0
C28 C 0.75423 0.19268 0.25781 0.0
C29 C 0.78952 0.25476 0.3587 0.0
O30 O 0.69852 0.16506 0.41381 0.0
O31 O 0.72162 0.204 0.46987 0.0
O32 O 0.73008 0.18732 0.28484 0.0
O33 O 0.77038 0.1967 0.30942 0.0
O34 O 0.76553 0.23775 0.39241 0.0
O35 O 0.80711 0.2462 0.3348 0.0
C36 C 0.85822 0.22314 0.302 0.0
O37 O 0.85312 0.23836 0.34591 0.0
O38 O 0.83512 0.19877 0.29177 0.0
C39 C 0.79859 0.20653 0.50091 0.0
Tb40 Tb 0.59405 0.80862 0.68741 0.0
C41 C 0.61246 0.76378 0.72863 0.0
Tb42 Tb 0.54657 0.74388 0.7215 0.0
O43 O 0.6031 0.82308 0.79864 0.0
O44 O 0.57303 0.78248 0.77397 0.0
O45 O 0.61953 0.78763 0.69313 0.0
C46 C 0.50855 0.69726 0.78875 0.0
O47 O 0.58633 0.74611 0.75218 0.0
C48 C 0.55606 0.75344 0.58324 0.0
C49 C 0.52796 0.78874 0.68246 0.0
O50 O 0.52856 0.69876 0.74841 0.0
O51 O 0.51018 0.72201 0.79153 0.0
O52 O 0.53806 0.72896 0.61071 0.0
O53 O 0.5673 0.77009 0.63451 0.0
O54 O 0.52128 0.76466 0.71583 0.0
O55 O 0.55399 0.80672 0.65894 0.0
C56 C 0.62806 0.85817 0.62472 0.0
O57 O 0.60729 0.85305 0.66687 0.0
O58 O 0.62986 0.8352 0.61747 0.0
C59 C 0.58457 0.79876 0.82569 0.0
Tb60 Tb 0.77973 0.59633 1.0253 0.0
C61 C 0.84238 0.6123 0.05466 0.0
Tb62 Tb 0.79072 0.54853 0.05694 0.0
O63 O 0.79241 0.61353 0.13173 0.0
O64 O 0.77335 0.56981 0.11474 0.0
O65 O 0.82584 0.62086 1.02469 0.0
C66 C 0.80238 0.51142 0.12057 0.0
O67 O 0.83244 0.5858 0.07733 0.0
C68 C 0.78476 0.5553 0.92139 0.0
C69 C 0.72846 0.53246 1.02318 0.0
O70 O 0.81147 0.5225 0.05895 0.0
O71 O 0.78693 0.52133 0.14604 0.0
O72 O 0.77818 0.53108 0.95058 0.0
O73 O 0.79675 0.57477 0.96716 0.0
O74 O 0.74476 0.52426 0.05574 0.0
O75 O 0.73847 0.55893 1.00041 0.0
C76 C 0.76463 0.63201 0.96848 0.0
O77 O 0.75579 0.61899 1.02812 0.0
O78 O 0.78217 0.6251 0.94081 0.0
C79 C 0.78531 0.58917 0.16075 0.0
Tb80 Tb 0.17424 0.78164 0.36142 0.0
C81 C 0.22098 0.84468 0.39779 0.0
Tb82 Tb 0.23812 0.79639 0.39642 0.0
O83 O 0.15969 0.77676 0.47218 0.0
O84 O 0.19984 0.78559 0.44865 0.0
O85 O 0.19669 0.82817 0.36358 0.0
C86 C 0.2847 0.80484 0.46423 0.0
O87 O 0.23772 0.83527 0.42325 0.0
C88 C 0.22866 0.79644 0.25797 0.0
C89 C 0.19242 0.73392 0.35479 0.0
O90 O 0.28343 0.82278 0.42098 0.0
O91 O 0.2597 0.78227 0.46956 0.0
O92 O 0.25271 0.80146 0.28564 0.0
O93 O 0.2124 0.79222 0.30919 0.0
O94 O 0.21634 0.75027 0.38987 0.0
O95 O 0.17531 0.74316 0.33123 0.0
C96 C 0.12528 0.76637 0.29599 0.0
O97 O 0.13079 0.74989 0.33438 0.0
O98 O 0.14743 0.79189 0.29454 0.0
C99 C 0.18365 0.78157 0.49989 0.0
Tb100 Tb 0.38825 0.1842 0.66352 0.0
C101 C 0.36995 0.22776 0.71595 0.0
Tb102 Tb 0.43584 0.24907 0.69654 0.0
O103 O 0.38142 0.16984 0.77493 0.0
O104 O 0.41139 0.21012 0.74871 0.0
O105 O 0.3622 0.20419 0.67837 0.0
C106 C 0.47497 0.29543 0.76294 0.0
O107 O 0.39666 0.24581 0.73535 0.0
C108 C 0.42375 0.24002 0.55897 0.0
C109 C 0.45416 0.20496 0.64908 0.0
O110 O 0.45329 0.2936 0.72883 0.0
O111 O 0.4744 0.27118 0.7599 0.0
O112 O 0.44201 0.26446 0.5864 0.0
O113 O 0.41335 0.22311 0.6101 0.0
O114 O 0.46118 0.22857 0.68505 0.0
O115 O 0.4278 0.18694 0.62743 0.0
C116 C 0.35394 0.13384 0.60468 0.0
O117 O 0.3748 0.13953 0.64743 0.0
O118 O 0.35227 0.15678 0.59425 0.0
C119 C 0.40062 0.1941 0.80103 0.0
H120 H 0.37407 0.26074 0.82756 0.0
H121 H 0.33904 0.27273 0.86955 0.0
H122 H 0.28085 0.22126 0.70598 0.0
H123 H 0.31613 0.20888 0.66298 0.0
H124 H 0.28988 0.27883 0.72133 0.0
H125 H 0.26527 0.19638 0.85866 0.0
H126 H 0.27335 0.16452 0.9358 0.0
H127 H 0.30529 0.22824 0.09783 0.0
H128 H 0.29831 0.2609 1.02095 0.0
H129 H 0.19785 0.32074 0.88256 0.0
H130 H 0.21367 0.28939 0.83167 0.0
H131 H 0.2793 0.31677 0.99019 0.0
H132 H 0.26305 0.34742 0.04214 0.0
H133 H 0.25568 0.26096 0.96772 0.0
H134 H 0.29508 0.34629 0.82247 0.0
H135 H 0.29022 0.38159 0.75045 0.0
H136 H 0.23302 0.31504 0.61108 0.0
H137 H 0.23772 0.27943 0.68209 0.0
C138 C 0.35386 0.25187 0.80024 0.0
C139 C 0.34791 0.23396 0.74158 0.0
C140 C 0.33378 0.2586 0.82478 0.0
C141 C 0.30733 0.24763 0.79132 0.0
C142 C 0.30116 0.22975 0.73266 0.0
C143 C 0.32124 0.22268 0.70835 0.0
C144 C 0.28702 0.25624 0.81698 0.0
C145 C 0.28169 0.27428 0.77456 0.0
C146 C 0.27702 0.25082 0.88704 0.0
C147 C 0.28139 0.23122 0.93361 0.0
C148 C 0.27432 0.20378 0.9104 0.0
C149 C 0.2787 0.18554 0.95416 0.0
C150 C 0.28984 0.19435 1.02166 0.0
C151 C 0.29657 0.2214 0.0456 0.0
C152 C 0.29248 0.23982 1.00184 0.0
C153 C 0.21551 0.31984 0.90669 0.0
C154 C 0.22939 0.33655 0.9659 0.0
C155 C 0.22455 0.30201 0.87757 0.0
C156 C 0.24785 0.30097 0.90671 0.0
C157 C 0.26122 0.31716 0.96697 0.0
C158 C 0.25205 0.33478 0.99637 0.0
C159 C 0.25946 0.28428 0.87294 0.0
C160 C 0.26319 0.26482 0.9139 0.0
C161 C 0.26849 0.28878 0.8021 0.0
C162 C 0.2666 0.31024 0.75768 0.0
C163 C 0.28153 0.33925 0.77631 0.0
C164 C 0.27884 0.35931 0.73565 0.0
C165 C 0.26136 0.35059 0.67614 0.0
C166 C 0.24668 0.32182 0.65691 0.0
C167 C 0.24941 0.30169 0.69721 0.0
H168 H 0.25918 0.36615 0.64508 0.0
H169 H 0.29324 0.18021 0.05542 0.0
H170 H 0.11197 0.32133 1.02797 0.0
H171 H 0.06255 0.28609 0.05709 0.0
H172 H 0.05823 0.3471 0.19461 0.0
H173 H 0.10711 0.38223 0.16597 0.0
H174 H 0.03887 0.29335 0.25584 0.0
H175 H 0.02873 0.33519 0.03731 0.0
H176 H 0.03704 0.34635 0.91099 0.0
H177 H -0.00102 0.25718 0.86299 0.0
H178 H 0.99079 0.24553 0.98924 0.0
H179 H 0.90619 0.27314 0.32543 0.0
H180 H 0.95358 0.28905 0.27951 0.0
H181 H 0.92187 0.21044 0.16361 0.0
H182 H 0.87372 0.19426 0.20972 0.0
H183 H 0.95902 0.25945 0.08536 0.0
H184 H 0.96006 0.21734 0.30248 0.0
H185 H 0.95115 0.20622 0.42862 0.0
H186 H 0.00636 0.29443 0.47988 0.0
H187 H 0.01528 0.3062 0.35402 0.0
C188 C 0.10042 0.32722 0.06424 0.0
C189 C 0.11347 0.3546 0.09461 0.0
C190 C 0.07224 0.30709 0.08069 0.0
C191 C 0.05685 0.31404 0.12807 0.0
C192 C 0.06983 0.34131 0.15815 0.0
C193 C 0.09776 0.36143 0.14138 0.0
C194 C 0.02723 0.29321 0.1476 0.0
C195 C 0.02138 0.28582 0.21863 0.0
C196 C 0.00461 0.28248 0.09839 0.0
C197 C 0.00952 0.28952 1.02268 0.0
C198 C 0.02239 0.31799 0.99985 0.0
C199 C 0.02702 0.3244 0.92828 0.0
C200 C 0.01864 0.30249 0.87901 0.0
C201 C 0.00553 0.27413 0.90122 0.0
C202 C 0.00088 0.26761 0.97276 0.0
C203 C 0.90921 0.25918 0.29015 0.0
C204 C 0.88639 0.2324 0.27142 0.0
C205 C 0.93634 0.26826 0.26416 0.0
C206 C 0.9413 0.25071 0.21919 0.0
C207 C 0.91844 0.22416 0.19873 0.0
C208 C 0.89107 0.21497 0.22506 0.0
C209 C 0.97063 0.26083 0.19425 0.0
C210 C 0.97649 0.26616 0.12233 0.0
C211 C -0.00664 0.26959 0.24262 0.0
C212 C 0.98827 0.26265 0.31864 0.0
C213 C 0.97018 0.23441 0.3406 0.0
C214 C 0.96514 0.22799 0.41209 0.0
C215 C 0.97817 0.24961 0.46223 0.0
C216 C -0.0037 0.2777 0.44098 0.0
C217 C 0.0014 0.28425 0.36955 0.0
H218 H 0.97423 0.24459 0.51755 0.0
H219 H 0.02224 0.30749 0.82361 0.0
H220 H 0.78923 0.11434 0.35902 0.0
H221 H 0.77552 0.06498 0.38997 0.0
H222 H 0.70476 0.05774 0.50937 0.0
H223 H 0.71802 0.10631 0.47942 0.0
H224 H 0.73637 0.03919 0.58255 0.0
H225 H 0.69496 0.02931 0.34775 0.0
H226 H 0.69834 0.03834 0.22013 0.0
H227 H 0.75257 0.00203 0.19891 0.0
H228 H 0.74978 0.99313 0.32666 0.0
H229 H 0.62312 0.9052 0.63565 0.0
H230 H 0.65509 0.95276 0.59053 0.0
H231 H 0.70801 0.92288 0.4981 0.0
H232 H 0.67551 0.87457 0.54308 0.0
H233 H 0.6994 0.96001 0.40961 0.0
H234 H 0.73175 0.96061 0.64203 0.0
H235 H 0.72736 0.95108 0.76937 0.0
H236 H 0.69112 0.00516 0.79616 0.0
H237 H 0.69486 0.01468 0.66884 0.0
C238 C 0.77074 0.10217 0.39176 0.0
C239 C 0.75478 0.11438 0.4167 0.0
C240 C 0.76293 0.074 0.40926 0.0
C241 C 0.73917 0.05778 0.45212 0.0
C242 C 0.72328 0.06994 0.47662 0.0
C243 C 0.73089 0.09779 0.45904 0.0
C244 C 0.73029 0.0281 0.47282 0.0
C245 C 0.72842 0.02186 0.54478 0.0
C246 C 0.72096 0.00565 0.4234 0.0
C247 C 0.72248 0.01091 0.34676 0.0
C248 C 0.7078 0.02348 0.31593 0.0
C249 C 0.70957 0.02853 0.24358 0.0
C250 C 0.72575 0.02086 0.20147 0.0
C251 C 0.74011 0.00803 0.23161 0.0
C252 C 0.73844 0.00297 0.30396 0.0
C253 C 0.64148 0.90864 0.60552 0.0
C254 C 0.64701 0.8863 0.59332 0.0
C255 C 0.65979 0.93587 0.57993 0.0
C256 C 0.6842 0.94147 0.54211 0.0
C257 C 0.68938 0.919 0.52763 0.0
C258 C 0.67089 0.89153 0.55335 0.0
C259 C 0.70411 0.9711 0.51946 0.0
C260 C 0.70816 0.97734 0.4474 0.0
C261 C 0.71557 0.99369 0.56881 0.0
C262 C 0.71353 0.9883 0.64572 0.0
C263 C 0.7227 0.97036 0.67499 0.0
C264 C 0.72034 0.96496 0.74721 0.0
C265 C 0.70895 0.97749 0.79082 0.0
C266 C 0.69995 -0.00451 0.76232 0.0
C267 C 0.70224 0.00093 0.69013 0.0
H268 H 0.70713 0.97328 0.84671 0.0
H269 H 0.72709 0.02478 0.14547 0.0
H270 H 0.66266 0.77958 0.65942 0.0
H271 H 0.69814 0.76537 0.68867 0.0
H272 H 0.64788 0.7183 0.8673 0.0
H273 H 0.61254 0.73193 0.83835 0.0
H274 H 0.70724 0.75386 0.89569 0.0
H275 H 0.64247 0.68382 0.72338 0.0
H276 H 0.62028 0.67028 0.60599 0.0
H277 H 0.70279 0.70541 0.51129 0.0
H278 H 0.72548 0.71953 0.6282 0.0
H279 H 0.72542 0.64417 1.0198 0.0
H280 H 0.70908 0.67467 0.96787 0.0
H281 H 0.76681 0.69347 0.79431 0.0
H282 H 0.78271 0.66203 0.84558 0.0
H283 H 0.71639 0.68339 0.74782 0.0
H284 H 0.78083 0.74435 0.92022 0.0
H285 H 0.80415 0.75874 0.03616 0.0
H286 H 0.72576 0.74388 0.12841 0.0
H287 H 0.70183 0.72898 1.01326 0.0
C288 C 0.65935 0.76634 0.70508 0.0
C289 C 0.63476 0.75669 0.74631 0.0
C290 C 0.67955 0.75822 0.72157 0.0
C291 C 0.67554 0.74079 0.78008 0.0
C292 C 0.65137 0.73181 0.82203 0.0
C293 C 0.6311 0.73948 0.80509 0.0
C294 C 0.69574 0.73086 0.79789 0.0
C295 C 0.7094 0.73854 0.8634 0.0
C296 C 0.69938 0.71178 0.75434 0.0
C297 C 0.68567 0.7031 0.68433 0.0
C298 C 0.65588 0.6889 0.67746 0.0
C299 C 0.64321 0.68107 0.61104 0.0
C300 C 0.66011 0.68709 0.55118 0.0
C301 C 0.68972 0.70084 0.55767 0.0
C302 C 0.7025 0.70876 0.62398 0.0
C303 C 0.73474 0.6549 0.97077 0.0
C304 C 0.75546 0.65098 0.93695 0.0
C305 C 0.72553 0.67249 0.9413 0.0
C306 C 0.73718 0.68691 0.87796 0.0
C307 C 0.75775 0.6828 0.84359 0.0
C308 C 0.76684 0.66494 0.87292 0.0
C309 C 0.72683 0.70534 0.84744 0.0
C310 C 0.71506 0.69934 0.77951 0.0
C311 C 0.7252 0.72629 0.88849 0.0
C312 C 0.73951 0.73545 0.95799 0.0
C313 C 0.76851 0.74399 0.96528 0.0
C314 C 0.78185 0.75225 1.03088 0.0
C315 C 0.76644 0.7522 0.08962 0.0
C316 C 0.73767 0.74393 0.08285 0.0
C317 C 0.72423 0.73562 1.01738 0.0
H318 H 0.7768 0.7586 0.14037 0.0
H319 H 0.65026 0.68102 0.4998 0.0
H320 H 0.08417 0.7119 0.27493 0.0
H321 H 0.03878 0.69455 0.2144 0.0
H322 H 0.05917 0.78108 0.17307 0.0
H323 H 0.10539 0.79877 0.2331 0.0
H324 H 0.00181 0.74155 0.23353 0.0
H325 H 0.06055 0.75004 0.03989 0.0
H326 H 0.09787 0.74549 0.97755 0.0
H327 H 0.04898 0.65439 0.99698 0.0
H328 H 0.01157 0.65839 0.06053 0.0
H329 H 0.86953 0.67054 0.0425 0.0
H330 H 0.91989 0.70457 0.06516 0.0
H331 H 0.93457 0.63492 0.1115 0.0
H332 H 0.88452 0.60088 0.0892 0.0
H333 H 0.97705 0.67664 1.02859 0.0
H334 H 0.9246 0.66909 0.24147 0.0
H335 H 0.88764 0.67221 0.30958 0.0
H336 H 0.92518 0.7609 0.25694 0.0
H337 H 0.96212 0.75815 0.18752 0.0
C338 C 0.07908 0.72728 0.25281 0.0
C339 C 0.0982 0.75665 0.25856 0.0
C340 C 0.0532 0.71734 0.21811 0.0
C341 C 0.04579 0.73655 0.18903 0.0
C342 C 0.06467 0.76599 0.19511 0.0
C343 C 0.09095 0.77601 0.2291 0.0
C344 C 0.01788 0.72514 0.15377 0.0
C345 C -0.0035 0.72806 0.18739 0.0
C346 C 0.01102 0.70718 0.09441 0.0
C347 C 0.03328 0.70454 0.0553 0.0
C348 C 0.05782 0.72903 0.0313 0.0
C349 C 0.079 0.72656 0.99568 0.0
C350 C 0.07581 0.69967 0.98337 0.0
C351 C 0.05141 0.6752 1.00653 0.0
C352 C 0.03019 0.67757 0.04226 0.0
C353 C 0.88354 0.66247 0.05692 0.0
C354 C 0.87299 0.633 0.06447 0.0
C355 C 0.91227 0.68194 0.0699 0.0
C356 C 0.93088 0.67223 0.09018 0.0
C357 C 0.92056 0.64283 0.09565 0.0
C358 C 0.89188 0.62342 0.08333 0.0
C359 C 0.96082 0.69242 0.10951 0.0
C360 C 0.98251 0.69095 0.07314 0.0
C361 C 0.96793 0.71162 0.16648 0.0
C362 C 0.94587 0.71332 0.20855 0.0
C363 C 0.92482 0.68919 0.24391 0.0
C364 C 0.9039 0.6909 0.28283 0.0
C365 C 0.904 0.71672 0.28739 0.0
C366 C 0.92508 0.7409 0.25321 0.0
C367 C 0.94601 0.73928 0.21406 0.0
H368 H 0.8878 0.71801 0.31757 0.0
H369 H 0.09223 0.69779 0.95583 0.0
H370 H 0.35772 0.08666 0.62678 0.0
H371 H 0.32903 0.03961 0.57495 0.0
H372 H 0.27977 0.06912 0.46098 0.0
H373 H 0.30873 0.11689 0.51357 0.0
H374 H 0.24731 0.01186 0.52931 0.0
H375 H 0.32471 0.06358 0.36939 0.0
H376 H 0.37518 0.09599 0.34158 0.0
H377 H 0.39727 0.0369 0.43232 0.0
H378 H 0.34695 0.00435 0.46198 0.0
H379 H 0.19471 0.87469 0.35508 0.0
H380 H 0.21166 0.92562 0.37341 0.0
H381 H 0.28492 0.93421 0.48497 0.0
H382 H 0.26857 0.88405 0.46674 0.0
H383 H 0.30009 0.97583 0.39019 0.0
H384 H 0.22846 0.93029 0.57094 0.0
H385 H 0.17994 0.89816 0.61442 0.0
H386 H 0.14864 0.9446 0.4967 0.0
H387 H 0.19697 0.97676 0.45156 0.0
C388 C 0.34074 0.08322 0.59091 0.0
C389 C 0.33555 0.10544 0.57373 0.0
C390 C 0.32434 0.05629 0.5614 0.0
C391 C 0.30248 0.051 0.51375 0.0
C392 C 0.2966 0.07288 0.49768 0.0
C393 C 0.31318 0.10008 0.52736 0.0
C394 C 0.28702 0.02271 0.47939 0.0
C395 C 0.25851 0.0041 0.49714 0.0
C396 C 0.3019 0.01259 0.43858 0.0
C397 C 0.33203 0.03155 0.41803 0.0
C398 C 0.34034 0.05752 0.38355 0.0
C399 C 0.36895 0.07594 0.36751 0.0
C400 C 0.38946 0.06852 0.3852 0.0
C401 C 0.38136 0.0426 0.4186 0.0
C402 C 0.35278 0.02414 0.43494 0.0
C403 C 0.21441 0.88745 0.38355 0.0
C404 C 0.23028 0.87521 0.40921 0.0
C405 C 0.22402 0.91652 0.39406 0.0
C406 C 0.24959 0.9337 0.43042 0.0
C407 C 0.26526 0.92143 0.45625 0.0
C408 C 0.25575 0.8926 0.44591 0.0
C409 C 0.26064 0.96456 0.44224 0.0
C410 C 0.28845 0.98371 0.4202 0.0
C411 C 0.24522 0.97496 0.47997 0.0
C412 C 0.21622 0.95566 0.50709 0.0
C413 C 0.21118 0.93348 0.5538 0.0
C414 C 0.18374 0.9153 0.57887 0.0
C415 C 0.16121 0.91928 0.55819 0.0
C416 C 0.1661 0.9415 0.51253 0.0
C417 C 0.19351 0.9597 0.48716 0.0
H418 H 0.13997 0.90519 0.5777 0.0
H419 H 0.41163 0.08283 0.37316 0.0
H420 H 0.21977 0.47329 0.83957 0.0
H421 H 0.22001 0.46757 0.71232 0.0
H422 H 0.18326 0.3768 0.73806 0.0
H423 H 0.18252 0.38241 0.86633 0.0
H424 H 0.22775 0.40009 0.6371 0.0
H425 H 0.14168 0.40109 0.68533 0.0
H426 H 0.11215 0.41949 0.7357 0.0
H427 H 0.15855 0.49684 0.61742 0.0
H428 H 0.18868 0.47907 0.56711 0.0
H429 H 0.18241 0.35983 0.28449 0.0
H430 H 0.18332 0.3659 0.4118 0.0
H431 H 0.21903 0.45649 0.38498 0.0
H432 H 0.21866 0.45052 0.25666 0.0
H433 H 0.17521 0.43334 0.48623 0.0
H434 H 0.26287 0.43476 0.44417 0.0
H435 H 0.29288 0.41742 0.39112 0.0
H436 H 0.24365 0.33673 0.49392 0.0
H437 H 0.21338 0.35366 0.54809 0.0
C438 C 0.21169 0.45204 0.81839 0.0
C439 C 0.20097 0.42827 0.86345 0.0
C440 C 0.21183 0.44881 0.74532 0.0
C441 C 0.2014 0.42172 0.71496 0.0
C442 C 0.1914 0.39795 0.7599 0.0
C443 C 0.19097 0.40116 0.83333 0.0
C444 C 0.20046 0.41843 0.63646 0.0
C445 C 0.2159 0.407 0.60439 0.0
C446 C 0.18567 0.42808 0.59287 0.0
C447 C 0.16764 0.43887 0.62303 0.0
C448 C 0.14577 0.42214 0.67056 0.0
C449 C 0.12888 0.43243 0.699 0.0
C450 C 0.13352 0.45935 0.67992 0.0
C451 C 0.15502 0.47601 0.63223 0.0
C452 C 0.17199 0.46583 0.6037 0.0
C453 C 0.19049 0.3811 0.30545 0.0
C454 C 0.20045 0.4047 0.26002 0.0
C455 C 0.19106 0.38455 0.37855 0.0
C456 C 0.20145 0.41168 0.40859 0.0
C457 C 0.2109 0.4353 0.36337 0.0
C458 C 0.21064 0.43189 0.2899 0.0
C459 C 0.20251 0.41508 0.48706 0.0
C460 C 0.18706 0.42649 0.51907 0.0
C461 C 0.21738 0.40556 0.53057 0.0
C462 C 0.23581 0.39542 0.49985 0.0
C463 C 0.25844 0.4133 0.45544 0.0
C464 C 0.27552 0.40358 0.42535 0.0
C465 C 0.27019 0.376 0.43933 0.0
C466 C 0.2478 0.35812 0.48356 0.0
C467 C 0.23073 0.3678 0.51413 0.0
H468 H 0.28338 0.36847 0.41583 0.0
H469 H 0.12041 0.46727 0.70197 0.0
H470 H 0.71865 0.18799 0.15224 0.0
H471 H 0.72643 0.19046 1.02589 0.0
H472 H 0.811 0.20418 0.06059 0.0
H473 H 0.8034 0.20249 0.18857 0.0
H474 H 0.81206 0.23766 0.95711 0.0
H475 H 0.75364 0.138 1.00395 0.0
H476 H 0.71237 0.09488 0.05175 0.0
H477 H 0.6559 0.11067 0.92549 0.0
H478 H 0.69681 0.15411 0.87761 0.0
H479 H 0.83441 0.21139 0.60599 0.0
H480 H 0.82689 0.20883 0.73241 0.0
H481 H 0.74208 0.19467 0.69909 0.0
H482 H 0.74938 0.19629 0.57108 0.0
H483 H 0.74132 0.16135 0.80208 0.0
H484 H 0.80019 0.26125 0.75533 0.0
H485 H 0.84171 0.30423 0.70783 0.0
H486 H 0.89767 0.28773 0.83418 0.0
H487 H 0.85651 0.24444 0.88177 0.0
C488 C 0.73897 0.19151 0.13324 0.0
C489 C 0.76032 0.19477 0.18084 0.0
C490 C 0.74333 0.19275 0.06052 0.0
C491 C 0.76909 0.19685 0.03268 0.0
C492 C 0.7908 0.20074 0.0802 0.0
C493 C 0.78646 0.19969 0.1535 0.0
C494 C 0.77313 0.19731 0.95427 0.0
C495 C 0.79679 0.22071 0.92348 0.0
C496 C 0.75292 0.17567 0.90929 0.0
C497 C 0.72829 0.14945 0.93765 0.0
C498 C 0.7324 0.13238 0.98673 0.0
C499 C 0.70908 0.10786 1.01379 0.0
C500 C 0.68152 0.10007 0.9918 0.0
C501 C 0.67725 0.11674 0.94254 0.0
C502 C 0.7005 0.1413 0.91536 0.0
C503 C 0.81408 0.20773 0.62529 0.0
C504 C 0.79258 0.20435 0.578 0.0
C505 C 0.80988 0.20647 0.69808 0.0
C506 C 0.78415 0.20225 0.72637 0.0
C507 C 0.76229 0.19823 0.67918 0.0
C508 C 0.76646 0.19927 0.6058 0.0
C509 C 0.78023 0.20173 0.80486 0.0
C510 C 0.75659 0.17831 0.83569 0.0
C511 C 0.80049 0.22333 0.84988 0.0
C512 C 0.82527 0.24946 0.82165 0.0
C513 C 0.82137 0.26669 0.77264 0.0
C514 C 0.84484 0.29112 0.74575 0.0
C515 C 0.87232 0.29867 0.76785 0.0
C516 C 0.87638 0.28185 0.81705 0.0
C517 C 0.85298 0.25737 0.84406 0.0
H518 H 0.89046 0.31759 0.74695 0.0
H519 H 0.66349 0.08109 1.01282 0.0
H520 H 0.53237 0.71501 0.47783 0.0
H521 H 0.53723 0.7227 0.35126 0.0
H522 H 0.59414 0.81251 0.38514 0.0
H523 H 0.58889 0.80481 0.51331 0.0
H524 H 0.55685 0.80441 0.28106 0.0
H525 H 0.61843 0.76689 0.33034 0.0
H526 H 0.63173 0.73289 0.37896 0.0
H527 H 0.56775 0.66598 0.25171 0.0
H528 H 0.55377 0.69949 0.20307 0.0
H529 H 0.6081 0.83683 0.93181 0.0
H530 H 0.60275 0.82882 0.05825 0.0
H531 H 0.54583 0.73913 1.02273 0.0
H532 H 0.55154 0.74717 0.89472 0.0
H533 H 0.58277 0.74688 0.12756 0.0
H534 H 0.5213 0.78421 0.07785 0.0
H535 H 0.50747 0.8179 1.02986 0.0
H536 H 0.57079 0.88489 0.15818 0.0
H537 H 0.5853 0.8517 0.20621 0.0
C538 C 0.54609 0.73645 0.45861 0.0
C539 C 0.56045 0.75925 0.50606 0.0
C540 C 0.54895 0.74081 0.38578 0.0
C541 C 0.56644 0.76813 0.35765 0.0
C542 C 0.58063 0.79114 0.40498 0.0
C543 C 0.57777 0.78674 0.47839 0.0
C544 C 0.56932 0.77241 0.27913 0.0
C545 C 0.56301 0.79215 0.24777 0.0
C546 C 0.57645 0.75585 0.23457 0.0
C547 C 0.58487 0.73566 0.26355 0.0
C548 C 0.60704 0.74488 0.31312 0.0
C549 C 0.61473 0.7257 0.34062 0.0
C550 C 0.60055 0.69728 0.31857 0.0
C551 C 0.5787 0.68799 0.26882 0.0
C552 C 0.57089 0.70708 0.24122 0.0
C553 C 0.5943 0.81534 0.95064 0.0
C554 C 0.58005 0.79268 0.90276 0.0
C555 C 0.59114 0.81081 1.02339 0.0
C556 C 0.5735 0.78342 0.05102 0.0
C557 C 0.55945 0.76054 1.00328 0.0
C558 C 0.56257 0.76514 0.92995 0.0
C559 C 0.5704 0.77896 0.12949 0.0
C560 C 0.57664 0.75917 0.16084 0.0
C561 C 0.56319 0.79546 0.17404 0.0
C562 C 0.55458 0.81551 0.1451 0.0
C563 C 0.53245 0.80618 0.09539 0.0
C564 C 0.52446 0.82518 0.06826 0.0
C565 C 0.53829 0.85354 0.09081 0.0
C566 C 0.56012 0.86293 0.14068 0.0
C567 C 0.56822 0.84403 0.16791 0.0
H568 H 0.53206 0.86821 0.06977 0.0
H569 H 0.60654 0.68246 0.33993 0.0
H570 H 0.80747 0.60546 0.84543 0.0
H571 H 0.80715 0.61099 0.71734 0.0
H572 H 0.76022 0.5196 0.69327 0.0
H573 H 0.76063 0.51405 0.82081 0.0
H574 H 0.80048 0.54127 0.59678 0.0
H575 H 0.72844 0.56118 0.67373 0.0
H576 H 0.70805 0.58496 0.74357 0.0
H577 H 0.76859 0.66582 0.65545 0.0
H578 H 0.78964 0.64256 0.58567 0.0
H579 H 0.76028 0.53881 0.23616 0.0
H580 H 0.75958 0.53287 0.36421 0.0
H581 H 0.80884 0.62411 0.38975 0.0
H582 H 0.80955 0.63006 0.26214 0.0
H583 H 0.7669 0.60207 0.48517 0.0
H584 H 0.83922 0.58138 0.40947 0.0
H585 H 0.85763 0.55664 0.33616 0.0
H586 H 0.7946 0.47606 0.4205 0.0
H587 H 0.77558 0.50032 0.4939 0.0
C588 C 0.7969 0.58657 0.81287 0.0
C589 C 0.78403 0.55932 0.8437 0.0
C590 C 0.7967 0.58971 0.73937 0.0
C591 C 0.78349 0.5657 0.69473 0.0
C592 C 0.77066 0.53852 0.7258 0.0
C593 C 0.77083 0.53538 0.79907 0.0
C594 C 0.78305 0.56877 0.61598 0.0
C595 C 0.7928 0.55432 0.57262 0.0
C596 C 0.77345 0.58607 0.58338 0.0
C597 C 0.76079 0.60015 0.62491 0.0
C598 C 0.73755 0.58406 0.66958 0.0
C599 C 0.72585 0.59744 0.7091 0.0
C600 C 0.73703 0.62688 0.70396 0.0
C601 C 0.75996 0.64301 0.65933 0.0
C602 C 0.77177 0.62974 0.61973 0.0
C603 C 0.77121 0.55757 0.26899 0.0
C604 C 0.78518 0.5849 0.23853 0.0
C605 C 0.77076 0.55419 0.34249 0.0
C606 C 0.78435 0.57804 0.38751 0.0
C607 C 0.79811 0.60531 0.35688 0.0
C608 C 0.7986 0.60868 0.28359 0.0
C609 C 0.78444 0.5747 0.46619 0.0
C610 C 0.77461 0.58907 0.50947 0.0
C611 C 0.79383 0.55723 0.49871 0.0
C612 C 0.80585 0.54265 0.45678 0.0
C613 C 0.82924 0.55837 0.41229 0.0
C614 C 0.83978 0.54445 0.37073 0.0
C615 C 0.82725 0.5148 0.37361 0.0
C616 C 0.80427 0.49903 0.41839 0.0
C617 C 0.79363 0.51286 0.46008 0.0
H618 H 0.83536 0.50409 0.3411 0.0
H619 H 0.72786 0.63716 0.73439 0.0
H620 H 0.14628 0.77126 0.60508 0.0
H621 H 0.15404 0.77386 0.73172 0.0
H622 H 0.24195 0.79839 0.69849 0.0
H623 H 0.23408 0.79566 0.57034 0.0
H624 H 0.21948 0.75979 0.80436 0.0
H625 H 0.22232 0.84736 0.75025 0.0
H626 H 0.20542 0.87815 0.69915 0.0
H627 H 0.13004 0.83685 0.82563 0.0
H628 H 0.14631 0.80551 0.87681 0.0
H629 H 0.26575 0.80619 0.15245 0.0
H630 H 0.25773 0.80322 1.02592 0.0
H631 H 0.17002 0.77932 0.05995 0.0
H632 H 0.17821 0.7826 0.1881 0.0
H633 H 0.19221 0.81739 0.95361 0.0
H634 H 0.18981 0.72999 1.00842 0.0
H635 H 0.20691 0.69922 0.05871 0.0
H636 H 0.28178 0.74041 0.93039 0.0
H637 H 0.2653 0.77168 0.87999 0.0
C638 C 0.16735 0.77726 0.62445 0.0
C639 C 0.18956 0.78324 0.57716 0.0
C640 C 0.1718 0.77887 0.6973 0.0
C641 C 0.1987 0.78673 0.72561 0.0
C642 C 0.22096 0.79234 0.67849 0.0
C643 C 0.21648 0.79077 0.60506 0.0
C644 C 0.2032 0.7888 0.80411 0.0
C645 C 0.21393 0.77277 0.83674 0.0
C646 C 0.19526 0.80505 0.84742 0.0
C647 C 0.18543 0.8239 0.8169 0.0
C648 C 0.20204 0.84468 0.76678 0.0
C649 C 0.19258 0.86226 0.73785 0.0
C650 C 0.16664 0.85941 0.75901 0.0
C651 C 0.15012 0.83901 0.80924 0.0
C652 C 0.15946 0.82135 0.83828 0.0
C653 C 0.24468 0.80026 0.13328 0.0
C654 C 0.22262 0.7946 0.18077 0.0
C655 C 0.24007 0.79841 0.06048 0.0
C656 C 0.21313 0.79059 0.03242 0.0
C657 C 0.19102 0.78529 0.07975 0.0
C658 C 0.19567 0.78715 0.15314 0.0
C659 C 0.20851 0.78839 0.95393 0.0
C660 C 0.19774 0.80439 0.92128 0.0
C661 C 0.21646 0.77214 0.91059 0.0
C662 C 0.22645 0.75339 0.94094 0.0
C663 C 0.21004 0.73266 0.99135 0.0
C664 C 0.21959 0.71508 1.0198 0.0
C665 C 0.24544 0.7179 0.9979 0.0
C666 C 0.26177 0.73826 0.94739 0.0
C667 C 0.25232 0.7559 0.91882 0.0
H668 H 0.25279 0.70426 1.01995 0.0
H669 H 0.15935 0.87305 0.73661 0.0
H670 H 0.39355 0.18839 0.48754 0.0
H671 H 0.3899 0.18098 0.35922 0.0
H672 H 0.44128 0.27175 0.32788 0.0
H673 H 0.44453 0.27909 0.45465 0.0
H674 H 0.40154 0.25247 0.23368 0.0
H675 H 0.46661 0.22476 0.3177 0.0
H676 H 0.48441 0.19831 0.38666 0.0
H677 H 0.42418 0.12046 0.28475 0.0
H678 H 0.40484 0.14607 0.21824 0.0
H679 H 0.43403 0.24609 0.86862 0.0
H680 H 0.43964 0.25491 0.99637 0.0
H681 H 0.38336 0.1653 0.03431 0.0
H682 H 0.37811 0.15653 0.90803 0.0
H683 H 0.42733 0.18541 0.12414 0.0
H684 H 0.36191 0.21591 0.04315 0.0
H685 H 0.3497 0.24503 0.96683 0.0
H686 H 0.41734 0.3215 0.0583 0.0
H687 H 0.43075 0.29282 0.13328 0.0
C688 C 0.40376 0.20671 0.45314 0.0
C689 C 0.4193 0.23433 0.48163 0.0
C690 C 0.40186 0.20249 0.37958 0.0
C691 C 0.41554 0.22579 0.33284 0.0
C692 C 0.43043 0.25333 0.36182 0.0
C693 C 0.43235 0.25749 0.43479 0.0
C694 C 0.41512 0.22186 0.25415 0.0
C695 C 0.40741 0.23791 0.21008 0.0
C696 C 0.42282 0.20298 0.22208 0.0
C697 C 0.43389 0.18733 0.26373 0.0
C698 C 0.45671 0.2019 0.31103 0.0
C699 C 0.46705 0.18702 0.34988 0.0
C700 C 0.45521 0.15765 0.34076 0.0
C701 C 0.43303 0.14311 0.29272 0.0
C702 C 0.42227 0.15778 0.25465 0.0
C703 C 0.42309 0.22832 0.90432 0.0
C704 C 0.40562 0.20061 0.87788 0.0
C705 C 0.42616 0.23335 0.97753 0.0
C706 C 0.41174 0.21079 1.02587 0.0
C707 C 0.39481 0.18314 0.99895 0.0
C708 C 0.39172 0.17816 0.92633 0.0
C709 C 0.41332 0.2156 0.10425 0.0
C710 C 0.42133 0.19981 0.14814 0.0
C711 C 0.40637 0.23502 0.13613 0.0
C712 C 0.39747 0.25221 0.0935 0.0
C713 C 0.37426 0.23894 0.04684 0.0
C714 C 0.36716 0.25537 1.0037 0.0
C715 C 0.38262 0.2851 1.00792 0.0
C716 C 0.40533 0.29846 0.05517 0.0
C717 C 0.41276 0.28213 0.09786 0.0
H718 H 0.37703 0.29776 0.97452 0.0
H719 H 0.46336 0.14619 0.37053 0.0
H720 H 0.14305 0.49277 0.08338 0.0
H721 H 0.13742 0.53251 0.12541 0.0
H722 H 0.20292 0.5527 0.28098 0.0
H723 H 0.20792 0.51261 0.24061 0.0
H724 H 0.16188 0.55848 0.33612 0.0
H725 H 0.21599 0.58862 0.1207 0.0
H726 H 0.22472 0.58585 0.99464 0.0
H727 H 0.151 0.59218 0.94191 0.0
H728 H 0.14163 0.59461 0.06778 0.0
H729 H 0.2191 0.70543 0.40164 0.0
H730 H 0.20956 0.65807 0.36743 0.0
H731 H 0.14051 0.64803 0.23469 0.0
H732 H 0.15004 0.69565 0.26811 0.0
H733 H 0.17594 0.63419 0.16696 0.0
H734 H 0.12639 0.61063 0.3857 0.0
H735 H 0.12016 0.61531 0.5123 0.0
H736 H 0.18777 0.59834 0.5598 0.0
H737 H 0.19471 0.59397 0.4334 0.0
C738 C 0.15599 0.50557 0.12699 0.0
C739 C 0.17603 0.49981 0.15857 0.0
C740 C 0.15287 0.52832 0.15073 0.0
C741 C 0.17006 0.54588 0.20566 0.0
C742 C 0.18943 0.53949 0.23854 0.0
C743 C 0.19235 0.51664 0.21529 0.0
C744 C 0.16883 0.57156 0.22767 0.0
C745 C 0.16511 0.57511 0.29918 0.0
C746 C 0.17232 0.59296 0.17925 0.0
C747 C 0.1779 0.59142 0.10363 0.0
C748 C 0.20151 0.58918 0.08223 0.0
C749 C 0.2066 0.58771 1.01082 0.0
C750 C 0.18837 0.58874 0.96031 0.0
C751 C 0.16506 0.59131 0.9811 0.0
C752 C 0.15985 0.59274 0.05245 0.0
C753 C 0.20172 0.69314 0.3656 0.0
C754 C 0.18537 0.70441 0.33759 0.0
C755 C 0.19619 0.66595 0.3464 0.0
C756 C 0.17414 0.64941 0.29907 0.0
C757 C 0.15755 0.66042 0.27152 0.0
C758 C 0.16301 0.68762 0.29088 0.0
C759 C 0.16959 0.62134 0.27554 0.0
C760 C 0.17224 0.61736 0.20375 0.0
C761 C 0.1654 0.59969 0.3238 0.0
C762 C 0.16119 0.60216 0.39996 0.0
C763 C 0.14008 0.6081 0.42309 0.0
C764 C 0.1364 0.61066 0.49484 0.0
C765 C 0.15359 0.60717 0.54405 0.0
C766 C 0.17447 0.60105 0.52161 0.0
C767 C 0.17826 0.59849 0.44992 0.0
H768 H 0.15071 0.60917 0.59958 0.0
H769 H 0.19235 0.58762 0.90505 0.0
H770 H 0.64263 0.14355 0.41839 0.0
H771 H 0.5989 0.14344 0.45129 0.0
H772 H 0.64683 0.21246 0.59647 0.0
H773 H 0.69062 0.21321 0.56214 0.0
H774 H 0.5687 0.13694 0.56873 0.0
H775 H 0.62486 0.26027 0.58667 0.0
H776 H 0.66728 0.30214 0.53821 0.0
H777 H 0.66393 0.25353 0.35664 0.0
H778 H 0.62121 0.21155 0.40333 0.0
H779 H 0.50854 0.23184 0.69931 0.0
H780 H 0.5472 0.22359 0.66675 0.0
H781 H 0.49139 0.1573 0.52326 0.0
H782 H 0.45221 0.16516 0.55626 0.0
H783 H 0.5715 0.22948 0.54024 0.0
H784 H 0.51386 0.1076 0.51607 0.0
H785 H 0.47137 0.06522 0.56266 0.0
H786 H 0.47712 0.11066 0.75246 0.0
H787 H 0.51981 0.15316 0.70733 0.0
C788 C 0.64369 0.1584 0.45805 0.0
C789 C 0.66993 0.17865 0.48717 0.0
C790 C 0.61874 0.15828 0.47684 0.0
C791 C 0.61975 0.17835 0.52513 0.0
C792 C 0.6457 0.19722 0.55788 0.0
C793 C 0.67066 0.19757 0.53851 0.0
C794 C 0.5942 0.18094 0.53791 0.0
C795 C 0.56916 0.15707 0.56168 0.0
C796 C 0.59486 0.20723 0.52874 0.0
C797 C 0.61998 0.23268 0.49891 0.0
C798 C 0.63305 0.25858 0.53617 0.0
C799 C 0.65717 0.28233 0.50902 0.0
C800 C 0.66836 0.28047 0.4445 0.0
C801 C 0.65531 0.25493 0.40669 0.0
C802 C 0.63114 0.23115 0.43348 0.0
C803 C 0.50434 0.21541 0.66098 0.0
C804 C 0.47723 0.19912 0.63049 0.0
C805 C 0.52652 0.21077 0.64236 0.0
C806 C 0.52213 0.18976 0.59294 0.0
C807 C 0.49511 0.17337 0.56229 0.0
C808 C 0.47277 0.17792 0.58116 0.0
C809 C 0.54624 0.18571 0.57292 0.0
C810 C 0.57099 0.20932 0.54711 0.0
C811 C 0.54518 0.15916 0.5797 0.0
C812 C 0.51983 0.13362 0.60797 0.0
C813 C 0.5061 0.10849 0.56784 0.0
C814 C 0.48198 0.08446 0.59397 0.0
C815 C 0.4715 0.08528 0.66038 0.0
C816 C 0.48519 0.11009 0.70092 0.0
C817 C 0.50932 0.13416 0.67504 0.0
H818 H 0.45281 0.06667 0.68048 0.0
H819 H 0.68713 0.29884 0.42384 0.0
H820 H 0.28112 0.51376 0.06655 0.0
H821 H 0.32725 0.55112 1.02534 0.0
H822 H 0.34477 0.48784 0.93933 0.0
H823 H 0.29819 0.44991 0.97992 0.0
H824 H 0.39323 0.5384 1.01302 0.0
H825 H 0.32472 0.51325 0.82798 0.0
H826 H 0.2779 0.50135 0.77915 0.0
H827 H 0.29233 0.58427 0.83646 0.0
H828 H 0.33906 0.59648 0.88689 0.0
H829 H 0.5022 0.64389 0.78697 0.0
H830 H 0.462 0.59989 0.83339 0.0
H831 H 0.42331 0.64784 0.90809 0.0
H832 H 0.46331 0.6917 0.86213 0.0
H833 H 0.38629 0.60049 0.83115 0.0
H834 H 0.4535 0.62446 1.02166 0.0
H835 H 0.49949 0.63578 0.07487 0.0
H836 H 0.48752 0.55481 1.0073 0.0
H837 H 0.4416 0.54318 0.95281 0.0
C838 C 0.29484 0.5076 0.03983 0.0
C839 C 0.28581 0.4788 1.02591 0.0
C840 C 0.32122 0.52904 1.01639 0.0
C841 C 0.33919 0.52215 0.97897 0.0
C842 C 0.3311 0.49346 0.96826 0.0
C843 C 0.30447 0.47189 0.99121 0.0
C844 C 0.36511 0.54524 0.94611 0.0
C845 C 0.39188 0.5517 0.97226 0.0
C846 C 0.36309 0.56264 0.89361 0.0
C847 C 0.33531 0.55569 0.86176 0.0
C848 C 0.31783 0.52888 0.83064 0.0
C849 C 0.29131 0.52208 0.80263 0.0
C850 C 0.28211 0.54201 0.80484 0.0
C851 C 0.29948 0.56883 0.83484 0.0
C852 C 0.326 0.57572 0.8631 0.0
C853 C 0.48522 0.645 0.81395 0.0
C854 C 0.48575 0.67109 0.82098 0.0
C855 C 0.46234 0.61992 0.84044 0.0
C856 C 0.43971 0.62066 0.87408 0.0
C857 C 0.44052 0.64683 0.88205 0.0
C858 C 0.46341 0.67185 0.85605 0.0
C859 C 0.41458 0.59416 0.89898 0.0
C860 C 0.38783 0.58702 0.87114 0.0
C861 C 0.41671 0.57614 0.94963 0.0
C862 C 0.44429 0.5831 0.98241 0.0
C863 C 0.4608 0.60918 1.01756 0.0
C864 C 0.48683 0.61563 0.04808 0.0
C865 C 0.49647 0.59607 0.04426 0.0
C866 C 0.48005 0.56997 1.01009 0.0
C867 C 0.45402 0.56343 0.97942 0.0
H868 H 0.51662 0.60109 0.06795 0.0
H869 H 0.26156 0.53669 0.78321 0.0
H870 H 0.76356 0.28252 0.4137 0.0
H871 H 0.77029 0.32891 0.37997 0.0
H872 H 0.8357 0.34002 0.23397 0.0
H873 H 0.82945 0.29361 0.2683 0.0
H874 H 0.84946 0.38985 0.30025 0.0
H875 H 0.76912 0.31683 0.17745 0.0
H876 H 0.72302 0.27256 0.16401 0.0
H877 H 0.68254 0.30811 0.28895 0.0
H878 H 0.72857 0.35235 0.30476 0.0
H879 H 0.83545 0.48973 0.07498 0.0
H880 H 0.83796 0.44912 0.12451 0.0
H881 H 0.77991 0.44148 0.28865 0.0
H882 H 0.77765 0.48221 0.24008 0.0
H883 H 0.76352 0.39051 0.21219 0.0
H884 H 0.84449 0.46326 0.33596 0.0
H885 H 0.89051 0.50792 0.34576 0.0
H886 H 0.92943 0.47295 0.21305 0.0
H887 H 0.88346 0.42825 0.20149 0.0
C888 C 0.77957 0.29486 0.37481 0.0
C889 C 0.79573 0.28415 0.34307 0.0
C890 C 0.78336 0.32141 0.35554 0.0
C891 C 0.80311 0.33769 0.30349 0.0
C892 C 0.82026 0.32774 0.27405 0.0
C893 C 0.8166 0.30118 0.29365 0.0
C894 C 0.80465 0.36428 0.27742 0.0
C895 C 0.83075 0.38994 0.2802 0.0
C896 C 0.78014 0.36446 0.25209 0.0
C897 C 0.75239 0.33782 0.2429 0.0
C898 C 0.75046 0.31511 0.20271 0.0
C899 C 0.72433 0.29001 0.19466 0.0
C900 C 0.69989 0.28748 0.22585 0.0
C901 C 0.70152 0.31007 0.26507 0.0
C902 C 0.72763 0.33515 0.27366 0.0
C903 C 0.82357 0.4796 0.12217 0.0
C904 C 0.80622 0.48891 0.1535 0.0
C905 C 0.82506 0.4565 0.15045 0.0
C906 C 0.80906 0.44231 0.21009 0.0
C907 C 0.79233 0.45211 0.24246 0.0
C908 C 0.7911 0.47537 0.21472 0.0
C909 C 0.80818 0.41605 0.23583 0.0
C910 C 0.78219 0.3904 0.23249 0.0
C911 C 0.83277 0.41588 0.26005 0.0
C912 C 0.86048 0.44259 0.26717 0.0
C913 C 0.86281 0.46524 0.30827 0.0
C914 C 0.88889 0.49052 0.31428 0.0
C915 C 0.91287 0.49331 0.27986 0.0
C916 C 0.91082 0.47078 0.23956 0.0
C917 C 0.88476 0.44546 0.2333 0.0
H918 H 0.93306 0.51289 0.28458 0.0
H919 H 0.67967 0.26806 0.21945 0.0
H920 H 0.28964 0.76749 0.55036 0.0
H921 H 0.33345 0.77108 0.59639 0.0
H922 H 0.38254 0.85339 0.49794 0.0
H923 H 0.33865 0.84963 0.45075 0.0
H924 H 0.40409 0.8194 0.46969 0.0
H925 H 0.37452 0.84755 0.67663 0.0
H926 H 0.34088 0.84342 0.76895 0.0
H927 H 0.33267 0.76391 0.83616 0.0
H928 H 0.36598 0.76735 0.74361 0.0
H929 H 0.53181 0.83627 0.61985 0.0
H930 H 0.49289 0.84523 0.59203 0.0
H931 H 0.43286 0.7644 0.68396 0.0
H932 H 0.47148 0.75551 0.71325 0.0
H933 H 0.41987 0.80409 0.71903 0.0
H934 H 0.44372 0.77242 0.50613 0.0
H935 H 0.47583 0.77429 0.41217 0.0
H936 H 0.49305 0.85817 0.35482 0.0
H937 H 0.46135 0.85696 0.44921 0.0
C938 C 0.30976 0.78649 0.53926 0.0
C939 C 0.31085 0.80828 0.49704 0.0
C940 C 0.33476 0.78859 0.56583 0.0
C941 C 0.36126 0.81264 0.55116 0.0
C942 C 0.36231 0.83469 0.51001 0.0
C943 C 0.33727 0.83256 0.4833 0.0
C944 C 0.38787 0.81383 0.57521 0.0
C945 C 0.40785 0.81668 0.52445 0.0
C946 C 0.39241 0.80959 0.64641 0.0
C947 C 0.37264 0.80764 0.70282 0.0
C948 C 0.36542 0.82909 0.71081 0.0
C949 C 0.34642 0.82689 0.76323 0.0
C950 C 0.33461 0.8034 0.80832 0.0
C951 C 0.34184 0.7821 0.80119 0.0
C952 C 0.36082 0.78419 0.74883 0.0
C953 C 0.51037 0.82048 0.63454 0.0
C954 C 0.5048 0.79507 0.66828 0.0
C955 C 0.48812 0.8256 0.61849 0.0
C956 C 0.45992 0.80531 0.63518 0.0
C957 C 0.45444 0.78036 0.67064 0.0
C958 C 0.47662 0.77529 0.68702 0.0
C959 C 0.43583 0.80928 0.61337 0.0
C960 C 0.41632 0.80731 0.66448 0.0
C961 C 0.43156 0.81408 0.54239 0.0
C962 C 0.45044 0.81474 0.48526 0.0
C963 C 0.45452 0.79135 0.47382 0.0
C964 C 0.47262 0.79228 0.42045 0.0
C965 C 0.48654 0.81637 0.37769 0.0
C966 C 0.4823 0.83955 0.38809 0.0
C967 C 0.46427 0.83875 0.4415 0.0
H968 H 0.50054 0.81705 0.33641 0.0
H969 H 0.31991 0.80173 0.84886 0.0
H970 H 0.70432 0.47483 0.03479 0.0
H971 H 0.6574 0.43853 0.99408 0.0
H972 H 0.63806 0.50377 0.93351 0.0
H973 H 0.68547 0.54064 0.97319 0.0
H974 H 0.59122 0.44698 1.0096 0.0
H975 H 0.65339 0.48554 0.80897 0.0
H976 H 0.6991 0.50267 0.7478 0.0
H977 H 0.6915 0.42021 0.77048 0.0
H978 H 0.64603 0.40277 0.8332 0.0
H979 H 0.47785 0.34695 0.78046 0.0
H980 H 0.518 0.39079 0.82869 0.0
H981 H 0.56421 0.34613 0.86455 0.0
H982 H 0.52426 0.30244 0.8173 0.0
H983 H 0.59581 0.39783 0.79404 0.0
H984 H 0.53593 0.35975 0.99789 0.0
H985 H 0.49105 0.34165 0.0635 0.0
H986 H 0.49434 0.42206 0.03731 0.0
H987 H 0.53901 0.44047 0.97035 0.0
C988 C 0.69002 0.48159 1.01395 0.0
C989 C 0.69874 0.51067 1.0067 0.0
C990 C 0.66319 0.46078 0.99085 0.0
C991 C 0.64444 0.46858 0.96083 0.0
C992 C 0.65231 0.49745 0.95691 0.0
C993 C 0.67942 0.51843 0.9792 0.0
C994 C 0.61806 0.44642 0.92724 0.0
C995 C 0.59197 0.43658 0.9616 0.0
C996 C 0.61938 0.43271 0.86542 0.0
C997 C 0.64643 0.44293 0.82638 0.0
C998 C 0.66159 0.47113 0.80149 0.0
C999 C 0.68744 0.48089 0.76646 0.0
C1000 C 0.69822 0.46255 0.75539 0.0
C1001 C 0.68313 0.4344 0.77917 0.0
C1002 C 0.65732 0.42456 0.81443 0.0
C1003 C 0.49653 0.34654 0.79919 0.0
C1004 C 0.49807 0.32143 0.79522 0.0
C1005 C 0.51936 0.3715 0.82666 0.0
C1006 C 0.54403 0.37162 0.84995 0.0
C1007 C 0.54539 0.34645 0.84653 0.0
C1008 C 0.52254 0.32152 0.81985 0.0
C1009 C 0.56883 0.39801 0.87669 0.0
C1010 C 0.59477 0.40857 0.84111 0.0
C1011 C 0.56727 0.41229 0.93732 0.0
C1012 C 0.54062 0.40137 0.97831 0.0
C1013 C 0.52695 0.37349 1.00554 0.0
C1014 C 0.50157 0.36319 0.04306 0.0
C1015 C 0.4898 0.38066 0.05436 0.0
C1016 C 0.50345 0.40852 1.02837 0.0
C1017 C 0.5288 0.41891 0.99063 0.0
H1018 H 0.47015 0.37264 0.08341 0.0
H1019 H 0.71822 0.47011 0.72825 0.0
loop_
_geom_bond_atom_site_label_1
_geom_bond_atom_site_label_2
_geom_bond_distance
_geom_bond_site_symmetry_2
_ccdc_geom_bond_type
Tb0 O3 2.453 . S
Tb0 O4 2.596 . S
Tb0 O5 2.374 . S
Tb0 O13 2.343 1_554 S
Tb0 O15 2.353 . S
Tb0 O17 2.427 1_554 S
Tb0 O18 2.513 1_554 S
C1 O5 1.251 . S
C1 O7 1.263 . S
Tb2 O4 2.343 1_556 S
Tb2 O7 2.353 1_556 S
Tb2 O10 2.427 1_556 S
Tb2 O11 2.513 1_556 S
Tb2 O12 2.453 . S
Tb2 O13 2.596 . S
Tb2 O14 2.374 . S
O3 Tb0 2.453 . S
O3 C19 1.245 . S
O4 Tb0 2.596 . S
O4 Tb2 2.343 1_554 S
O4 C19 1.259 . S
O5 Tb0 2.374 . S
O5 C1 1.251 . S
C6 O10 1.275 . S
C6 O11 1.246 . S
O7 C1 1.263 . S
O7 Tb2 2.353 1_554 S
C8 O12 1.245 . S
C8 O13 1.259 . S
C9 O14 1.250 . S
C9 O15 1.263 1_556 S
O10 Tb2 2.427 1_554 S
O10 C6 1.275 . S
O11 Tb2 2.513 1_554 S
O11 C6 1.246 . S
O12 Tb2 2.453 . S
O12 C8 1.245 . S
O13 Tb0 2.343 1_556 S
O13 Tb2 2.596 . S
O13 C8 1.259 . S
O14 Tb2 2.374 . S
O14 C9 1.250 . S
O15 Tb0 2.353 . S
O15 C9 1.263 1_554 S
C16 O17 1.275 . S
C16 O18 1.246 . S
O17 Tb0 2.427 1_556 S
O17 C16 1.275 . S
O18 Tb0 2.513 1_556 S
O18 C16 1.246 . S
C19 O3 1.245 . S
C19 O4 1.259 . S
Tb20 O23 2.453 . S
Tb20 O24 2.596 . S
Tb20 O25 2.374 . S
Tb20 O33 2.343 . S
Tb20 O35 2.353 . S
Tb20 O37 2.427 . S
Tb20 O38 2.513 . S
C21 O25 1.251 . S
C21 O27 1.263 . S
Tb22 O24 2.343 . S
Tb22 O27 2.353 . S
Tb22 O30 2.427 . S
Tb22 O31 2.513 . S
Tb22 O32 2.453 . S
Tb22 O33 2.596 . S
Tb22 O34 2.374 . S
O23 Tb20 2.453 . S
O23 C39 1.245 . S
O24 Tb20 2.596 . S
O24 Tb22 2.343 . S
O24 C39 1.259 . S
O25 Tb20 2.374 . S
O25 C21 1.251 . S
C26 O30 1.275 . S
C26 O31 1.246 . S
O27 C21 1.263 . S
O27 Tb22 2.353 . S
C28 O32 1.245 . S
C28 O33 1.259 . S
C29 O34 1.250 . S
C29 O35 1.263 . S
O30 Tb22 2.427 . S
O30 C26 1.275 . S
O31 Tb22 2.513 . S
O31 C26 1.246 . S
O32 Tb22 2.453 . S
O32 C28 1.245 . S
O33 Tb20 2.343 . S
O33 Tb22 2.596 . S
O33 C28 1.259 . S
O34 Tb22 2.374 . S
O34 C29 1.250 . S
O35 Tb20 2.353 . S
O35 C29 1.263 . S
C36 O37 1.275 . S
C36 O38 1.246 . S
O37 Tb20 2.427 . S
O37 C36 1.275 . S
O38 Tb20 2.513 . S
O38 C36 1.246 . S
C39 O23 1.245 . S
C39 O24 1.259 . S
Tb40 O43 2.453 . S
Tb40 O44 2.596 . S
Tb40 O45 2.374 . S
Tb40 O53 2.343 . S
Tb40 O55 2.353 . S
Tb40 O57 2.427 . S
Tb40 O58 2.513 . S
C41 O45 1.251 . S
C41 O47 1.263 . S
Tb42 O44 2.343 . S
Tb42 O47 2.353 . S
Tb42 O50 2.427 . S
Tb42 O51 2.513 . S
Tb42 O52 2.453 . S
Tb42 O53 2.596 . S
Tb42 O54 2.374 . S
O43 Tb40 2.453 . S
O43 C59 1.245 . S
O44 Tb40 2.596 . S
O44 Tb42 2.343 . S
O44 C59 1.259 . S
O45 Tb40 2.374 . S
O45 C41 1.251 . S
C46 O50 1.275 . S
C46 O51 1.246 . S
O47 C41 1.263 . S
O47 Tb42 2.353 . S
C48 O52 1.245 . S
C48 O53 1.259 . S
C49 O54 1.250 . S
C49 O55 1.263 . S
O50 Tb42 2.427 . S
O50 C46 1.275 . S
O51 Tb42 2.513 . S
O51 C46 1.246 . S
O52 Tb42 2.453 . S
O52 C48 1.245 . S
O53 Tb40 2.343 . S
O53 Tb42 2.596 . S
O53 C48 1.259 . S
O54 Tb42 2.374 . S
O54 C49 1.250 . S
O55 Tb40 2.353 . S
O55 C49 1.263 . S
C56 O57 1.275 . S
C56 O58 1.246 . S
O57 Tb40 2.427 . S
O57 C56 1.275 . S
O58 Tb40 2.513 . S
O58 C56 1.246 . S
C59 O43 1.245 . S
C59 O44 1.259 . S
Tb60 O63 2.453 . S
Tb60 O64 2.596 . S
Tb60 O65 2.374 . S
Tb60 O73 2.343 1_554 S
Tb60 O75 2.353 . S
Tb60 O77 2.427 1_554 S
Tb60 O78 2.513 1_554 S
C61 O65 1.251 . S
C61 O67 1.263 . S
Tb62 O64 2.343 1_556 S
Tb62 O67 2.353 1_556 S
Tb62 O70 2.427 1_556 S
Tb62 O71 2.513 1_556 S
Tb62 O72 2.453 . S
Tb62 O73 2.596 . S
Tb62 O74 2.374 . S
O63 Tb60 2.453 . S
O63 C79 1.245 . S
O64 Tb60 2.596 . S
O64 Tb62 2.343 1_554 S
O64 C79 1.259 . S
O65 Tb60 2.374 . S
O65 C61 1.251 . S
C66 O70 1.275 . S
C66 O71 1.246 . S
O67 C61 1.263 . S
O67 Tb62 2.353 1_554 S
C68 O72 1.245 . S
C68 O73 1.259 . S
C69 O74 1.250 . S
C69 O75 1.263 1_556 S
O70 Tb62 2.427 1_554 S
O70 C66 1.275 . S
O71 Tb62 2.513 1_554 S
O71 C66 1.246 . S
O72 Tb62 2.453 . S
O72 C68 1.245 . S
O73 Tb60 2.343 1_556 S
O73 Tb62 2.596 . S
O73 C68 1.259 . S
O74 Tb62 2.374 . S
O74 C69 1.250 . S
O75 Tb60 2.353 . S
O75 C69 1.263 1_554 S
C76 O77 1.275 . S
C76 O78 1.246 . S
O77 Tb60 2.427 1_556 S
O77 C76 1.275 . S
O78 Tb60 2.513 1_556 S
O78 C76 1.246 . S
C79 O63 1.245 . S
C79 O64 1.259 . S
Tb80 O83 2.453 . S
Tb80 O84 2.596 . S
Tb80 O85 2.374 . S
Tb80 O93 2.343 . S
Tb80 O95 2.353 . S
Tb80 O97 2.427 . S
Tb80 O98 2.513 . S
C81 O85 1.251 . S
C81 O87 1.263 . S
Tb82 O84 2.343 . S
Tb82 O87 2.353 . S
Tb82 O90 2.427 . S
Tb82 O91 2.513 . S
Tb82 O92 2.453 . S
Tb82 O93 2.596 . S
Tb82 O94 2.374 . S
O83 Tb80 2.453 . S
O83 C99 1.245 . S
O84 Tb80 2.596 . S
O84 Tb82 2.343 . S
O84 C99 1.259 . S
O85 Tb80 2.374 . S
O85 C81 1.251 . S
C86 O90 1.275 . S
C86 O91 1.246 . S
O87 C81 1.263 . S
O87 Tb82 2.353 . S
C88 O92 1.245 . S
C88 O93 1.259 . S
C89 O94 1.250 . S
C89 O95 1.263 . S
O90 Tb82 2.427 . S
O90 C86 1.275 . S
O91 Tb82 2.513 . S
O91 C86 1.246 . S
O92 Tb82 2.453 . S
O92 C88 1.245 . S
O93 Tb80 2.343 . S
O93 Tb82 2.596 . S
O93 C88 1.259 . S
O94 Tb82 2.374 . S
O94 C89 1.250 . S
O95 Tb80 2.353 . S
O95 C89 1.263 . S
C96 O97 1.275 . S
C96 O98 1.246 . S
O97 Tb80 2.427 . S
O97 C96 1.275 . S
O98 Tb80 2.513 . S
O98 C96 1.246 . S
C99 O83 1.245 . S
C99 O84 1.259 . S
Tb100 O103 2.453 . S
Tb100 O104 2.596 . S
Tb100 O105 2.374 . S
Tb100 O113 2.343 . S
Tb100 O115 2.353 . S
Tb100 O117 2.427 . S
Tb100 O118 2.513 . S
C101 O105 1.251 . S
C101 O107 1.263 . S
Tb102 O104 2.343 . S
Tb102 O107 2.353 . S
Tb102 O110 2.427 . S
Tb102 O111 2.513 . S
Tb102 O112 2.453 . S
Tb102 O113 2.596 . S
Tb102 O114 2.374 . S
O103 Tb100 2.453 . S
O103 C119 1.245 . S
O104 Tb100 2.596 . S
O104 Tb102 2.343 . S
O104 C119 1.259 . S
O105 Tb100 2.374 . S
O105 C101 1.251 . S
C106 O110 1.275 . S
C106 O111 1.246 . S
O107 C101 1.263 . S
O107 Tb102 2.353 . S
C108 O112 1.245 . S
C108 O113 1.259 . S
C109 O114 1.250 . S
C109 O115 1.263 . S
O110 Tb102 2.427 . S
O110 C106 1.275 . S
O111 Tb102 2.513 . S
O111 C106 1.246 . S
O112 Tb102 2.453 . S
O112 C108 1.245 . S
O113 Tb100 2.343 . S
O113 Tb102 2.596 . S
O113 C108 1.259 . S
O114 Tb102 2.374 . S
O114 C109 1.250 . S
O115 Tb100 2.353 . S
O115 C109 1.263 . S
C116 O117 1.275 . S
C116 O118 1.246 . S
O117 Tb100 2.427 . S
O117 C116 1.275 . S
O118 Tb100 2.513 . S
O118 C116 1.246 . S
C119 O103 1.245 . S
C119 O104 1.259 . S
H120 C138 0.951 . S
H121 C140 0.951 . S
H122 C142 0.950 . S
H123 C143 0.950 . S
H124 C145 0.950 . S
H125 C148 0.950 . S
H126 C149 0.950 . S
H127 C151 0.950 . S
H128 C152 0.950 . S
H129 C153 0.951 . S
H130 C155 0.951 . S
H131 C157 0.950 . S
H132 C158 0.950 . S
H133 C160 0.950 . S
H134 C163 0.950 . S
H135 C164 0.950 . S
H136 C166 0.950 . S
H137 C167 0.950 . S
C138 H120 0.951 . S
C138 C139 1.366 . S
C138 C140 1.388 . S
C139 C138 1.366 . S
C139 C143 1.385 . S
C140 H121 0.951 . S
C140 C138 1.388 . S
C140 C141 1.366 . S
C141 C140 1.366 . S
C141 C142 1.414 . S
C141 C144 1.499 . S
C142 H122 0.950 . S
C142 C141 1.414 . S
C142 C143 1.374 . S
C143 H123 0.950 . S
C143 C139 1.385 . S
C143 C142 1.374 . S
C144 C141 1.499 . S
C144 C145 1.373 . S
C144 C146 1.389 . S
C145 H124 0.950 . S
C145 C144 1.373 . S
C145 C161 1.377 . S
C146 C144 1.389 . S
C146 C147 1.524 . S
C146 C160 1.377 . S
C147 C146 1.524 . S
C147 C148 1.397 . S
C147 C152 1.363 . S
C148 H125 0.950 . S
C148 C147 1.397 . S
C148 C149 1.334 . S
C149 H126 0.950 . S
C149 C148 1.334 . S
C149 C150 1.287 . S
C150 C149 1.287 . S
C150 C151 1.524 . S
C150 H169 0.913 . S
C151 H127 0.950 . S
C151 C150 1.524 . S
C151 C152 1.415 . S
C152 H128 0.950 . S
C152 C147 1.363 . S
C152 C151 1.415 . S
C153 H129 0.951 . S
C153 C154 1.366 . S
C153 C155 1.388 . S
C154 C153 1.366 . S
C154 C158 1.385 . S
C155 H130 0.951 . S
C155 C153 1.388 . S
C155 C156 1.366 . S
C156 C155 1.366 . S
C156 C157 1.414 . S
C156 C159 1.499 . S
C157 H131 0.950 . S
C157 C156 1.414 . S
C157 C158 1.374 . S
C158 H132 0.950 . S
C158 C154 1.385 . S
C158 C157 1.374 . S
C159 C156 1.499 . S
C159 C160 1.373 . S
C159 C161 1.389 . S
C160 H133 0.950 . S
C160 C146 1.377 . S
C160 C159 1.373 . S
C161 C145 1.377 . S
C161 C159 1.389 . S
C161 C162 1.524 . S
C162 C161 1.524 . S
C162 C163 1.397 . S
C162 C167 1.363 . S
C163 H134 0.950 . S
C163 C162 1.397 . S
C163 C164 1.334 . S
C164 H135 0.950 . S
C164 C163 1.334 . S
C164 C165 1.287 . S
C165 C164 1.287 . S
C165 C166 1.524 . S
C165 H168 0.999 . S
C166 H136 0.950 . S
C166 C165 1.524 . S
C166 C167 1.415 . S
C167 H137 0.950 . S
C167 C162 1.363 . S
C167 C166 1.415 . S
H168 C165 0.999 . S
H169 C150 0.913 . S
H170 C188 0.951 . S
H171 C190 0.951 . S
H172 C192 0.950 . S
H173 C193 0.950 . S
H174 C195 0.950 . S
H175 C198 0.950 . S
H176 C199 0.950 . S
H177 C201 0.950 . S
H178 C202 0.950 1_554 S
H179 C203 0.951 . S
H180 C205 0.951 . S
H181 C207 0.950 . S
H182 C208 0.950 . S
H183 C210 0.950 . S
H184 C213 0.950 . S
H185 C214 0.950 . S
H186 C216 0.950 . S
H187 C217 0.950 . S
C188 H170 0.951 . S
C188 C189 1.366 . S
C188 C190 1.388 . S
C189 C188 1.366 . S
C189 C193 1.385 . S
C190 H171 0.951 . S
C190 C188 1.388 . S
C190 C191 1.366 . S
C191 C190 1.366 . S
C191 C192 1.414 . S
C191 C194 1.499 . S
C192 H172 0.950 . S
C192 C191 1.414 . S
C192 C193 1.374 . S
C193 H173 0.950 . S
C193 C189 1.385 . S
C193 C192 1.374 . S
C194 C191 1.499 . S
C194 C195 1.373 . S
C194 C196 1.389 . S
C195 H174 0.950 . S
C195 C194 1.373 . S
C195 C211 1.377 . S
C196 C194 1.389 . S
C196 C197 1.524 . S
C196 C210 1.377 1_455 S
C197 C196 1.524 . S
C197 C198 1.397 1_554 S
C197 C202 1.363 1_554 S
C198 H175 0.950 . S
C198 C197 1.397 1_556 S
C198 C199 1.334 . S
C199 H176 0.950 . S
C199 C198 1.334 . S
C199 C200 1.287 . S
C200 C199 1.287 . S
C200 C201 1.524 . S
C200 H219 0.913 . S
C201 H177 0.950 . S
C201 C200 1.524 . S
C201 C202 1.415 . S
C202 H178 0.950 1_556 S
C202 C197 1.363 1_556 S
C202 C201 1.415 . S
C203 H179 0.951 . S
C203 C204 1.366 . S
C203 C205 1.388 . S
C204 C203 1.366 . S
C204 C208 1.385 . S
C205 H180 0.951 . S
C205 C203 1.388 . S
C205 C206 1.366 . S
C206 C205 1.366 . S
C206 C207 1.414 . S
C206 C209 1.499 . S
C207 H181 0.950 . S
C207 C206 1.414 . S
C207 C208 1.374 . S
C208 H182 0.950 . S
C208 C204 1.385 . S
C208 C207 1.374 . S
C209 C206 1.499 . S
C209 C210 1.373 . S
C209 C211 1.389 1_655 S
C210 H183 0.950 . S
C210 C196 1.377 1_655 S
C210 C209 1.373 . S
C211 C195 1.377 . S
C211 C209 1.389 1_455 S
C211 C212 1.524 1_455 S
C212 C211 1.524 1_655 S
C212 C213 1.397 . S
C212 C217 1.363 1_655 S
C213 H184 0.950 . S
C213 C212 1.397 . S
C213 C214 1.334 . S
C214 H185 0.950 . S
C214 C213 1.334 . S
C214 C215 1.287 . S
C215 C214 1.287 . S
C215 C216 1.524 1_655 S
C215 H218 0.999 . S
C216 H186 0.950 . S
C216 C215 1.524 1_455 S
C216 C217 1.415 . S
C217 H187 0.950 . S
C217 C212 1.363 1_455 S
C217 C216 1.415 . S
H218 C215 0.999 . S
H219 C200 0.913 . S
H220 C238 0.951 . S
H221 C240 0.951 . S
H222 C242 0.950 . S
H223 C243 0.950 . S
H224 C245 0.950 . S
H225 C248 0.950 . S
H226 C249 0.950 . S
H227 C251 0.950 . S
H228 C252 0.950 . S
H229 C253 0.951 . S
H230 C255 0.951 . S
H231 C257 0.950 . S
H232 C258 0.950 . S
H233 C260 0.950 . S
H234 C263 0.950 . S
H235 C264 0.950 . S
H236 C266 0.965 . S
H237 C267 0.950 . S
C238 H220 0.951 . S
C238 C239 1.366 . S
C238 C240 1.388 . S
C239 C238 1.366 . S
C239 C243 1.385 . S
C240 H221 0.951 . S
C240 C238 1.388 . S
C240 C241 1.366 . S
C241 C240 1.366 . S
C241 C242 1.414 . S
C241 C244 1.499 . S
C242 H222 0.950 . S
C242 C241 1.414 . S
C242 C243 1.374 . S
C243 H223 0.950 . S
C243 C239 1.385 . S
C243 C242 1.374 . S
C244 C241 1.499 . S
C244 C245 1.373 . S
C244 C246 1.389 . S
C245 H224 0.950 . S
C245 C244 1.373 . S
C245 C261 1.377 . S
C246 C244 1.389 . S
C246 C247 1.524 . S
C246 C260 1.377 1_545 S
C247 C246 1.524 . S
C247 C248 1.397 . S
C247 C252 1.363 . S
C248 H225 0.950 . S
C248 C247 1.397 . S
C248 C249 1.334 . S
C249 H226 0.950 . S
C249 C248 1.334 . S
C249 C250 1.287 . S
C250 C249 1.287 . S
C250 C251 1.524 . S
C250 H269 0.913 . S
C251 H227 0.950 . S
C251 C250 1.524 . S
C251 C252 1.415 . S
C252 H228 0.950 . S
C252 C247 1.363 . S
C252 C251 1.415 . S
C253 H229 0.951 . S
C253 C254 1.366 . S
C253 C255 1.388 . S
C254 C253 1.366 . S
C254 C258 1.385 . S
C255 H230 0.951 . S
C255 C253 1.388 . S
C255 C256 1.366 . S
C256 C255 1.366 . S
C256 C257 1.414 . S
C256 C259 1.499 . S
C257 H231 0.950 . S
C257 C256 1.414 . S
C257 C258 1.374 . S
C258 H232 0.950 . S
C258 C254 1.385 . S
C258 C257 1.374 . S
C259 C256 1.499 . S
C259 C260 1.373 . S
C259 C261 1.389 1_565 S
C260 H233 0.950 . S
C260 C246 1.377 1_565 S
C260 C259 1.373 . S
C261 C245 1.377 . S
C261 C259 1.389 1_545 S
C261 C262 1.524 1_545 S
C262 C261 1.524 1_565 S
C262 C263 1.397 . S
C262 C267 1.363 1_565 S
C263 H234 0.950 . S
C263 C262 1.397 . S
C263 C264 1.334 . S
C264 H235 0.950 . S
C264 C263 1.334 . S
C264 C265 1.287 . S
C265 C264 1.287 . S
C265 C266 1.524 . S
C265 H268 0.999 . S
C266 H236 0.965 . S
C266 C265 1.524 . S
C266 C267 1.415 1_565 S
C267 H237 0.950 . S
C267 C262 1.363 1_545 S
C267 C266 1.415 1_545 S
H268 C265 0.999 . S
H269 C250 0.913 . S
H270 C288 0.951 . S
H271 C290 0.951 . S
H272 C292 0.950 . S
H273 C293 0.950 . S
H274 C295 0.950 . S
H275 C298 0.950 . S
H276 C299 0.950 . S
H277 C301 0.950 . S
H278 C302 0.950 . S
H279 C303 0.951 . S
H280 C305 0.951 . S
H281 C307 0.950 . S
H282 C308 0.950 . S
H283 C310 0.950 . S
H284 C313 0.950 . S
H285 C314 0.950 . S
H286 C316 0.950 . S
H287 C317 0.950 . S
C288 H270 0.951 . S
C288 C289 1.366 . S
C288 C290 1.388 . S
C289 C288 1.366 . S
C289 C293 1.385 . S
C290 H271 0.951 . S
C290 C288 1.388 . S
C290 C291 1.366 . S
C291 C290 1.366 . S
C291 C292 1.414 . S
C291 C294 1.499 . S
C292 H272 0.950 . S
C292 C291 1.414 . S
C292 C293 1.374 . S
C293 H273 0.950 . S
C293 C289 1.385 . S
C293 C292 1.374 . S
C294 C291 1.499 . S
C294 C295 1.373 . S
C294 C296 1.389 . S
C295 H274 0.950 . S
C295 C294 1.373 . S
C295 C311 1.377 . S
C296 C294 1.389 . S
C296 C297 1.524 . S
C296 C310 1.377 . S
C297 C296 1.524 . S
C297 C298 1.397 . S
C297 C302 1.363 . S
C298 H275 0.950 . S
C298 C297 1.397 . S
C298 C299 1.334 . S
C299 H276 0.950 . S
C299 C298 1.334 . S
C299 C300 1.287 . S
C300 C299 1.287 . S
C300 C301 1.524 . S
C300 H319 0.913 . S
C301 H277 0.950 . S
C301 C300 1.524 . S
C301 C302 1.415 . S
C302 H278 0.950 . S
C302 C297 1.363 . S
C302 C301 1.415 . S
C303 H279 0.951 . S
C303 C304 1.366 . S
C303 C305 1.388 . S
C304 C303 1.366 . S
C304 C308 1.385 . S
C305 H280 0.951 . S
C305 C303 1.388 . S
C305 C306 1.366 . S
C306 C305 1.366 . S
C306 C307 1.414 . S
C306 C309 1.499 . S
C307 H281 0.950 . S
C307 C306 1.414 . S
C307 C308 1.374 . S
C308 H282 0.950 . S
C308 C304 1.385 . S
C308 C307 1.374 . S
C309 C306 1.499 . S
C309 C310 1.373 . S
C309 C311 1.389 . S
C310 H283 0.950 . S
C310 C296 1.377 . S
C310 C309 1.373 . S
C311 C295 1.377 . S
C311 C309 1.389 . S
C311 C312 1.524 . S
C312 C311 1.524 . S
C312 C313 1.397 . S
C312 C317 1.363 . S
C313 H284 0.950 . S
C313 C312 1.397 . S
C313 C314 1.334 . S
C314 H285 0.950 . S
C314 C313 1.334 . S
C314 C315 1.287 . S
C315 C314 1.287 . S
C315 C316 1.524 1_556 S
C315 H318 0.999 1_556 S
C316 H286 0.950 . S
C316 C315 1.524 1_554 S
C316 C317 1.415 1_554 S
C317 H287 0.950 . S
C317 C312 1.363 . S
C317 C316 1.415 1_556 S
H318 C315 0.999 1_554 S
H319 C300 0.913 . S
H320 C338 0.951 . S
H321 C340 0.951 . S
H322 C342 0.950 . S
H323 C343 0.950 . S
H324 C345 0.950 1_455 S
H325 C348 0.950 . S
H326 C349 0.950 . S
H327 C351 0.950 . S
H328 C352 0.950 1_554 S
H329 C353 0.951 . S
H330 C355 0.951 . S
H331 C357 0.950 . S
H332 C358 0.950 . S
H333 C360 0.950 . S
H334 C363 0.950 . S
H335 C364 0.950 . S
H336 C366 0.950 . S
H337 C367 0.950 . S
C338 H320 0.951 . S
C338 C339 1.366 . S
C338 C340 1.388 . S
C339 C338 1.366 . S
C339 C343 1.385 . S
C340 H321 0.951 . S
C340 C338 1.388 . S
C340 C341 1.366 . S
C341 C340 1.366 . S
C341 C342 1.414 . S
C341 C344 1.499 . S
C342 H322 0.950 . S
C342 C341 1.414 . S
C342 C343 1.374 . S
C343 H323 0.950 . S
C343 C339 1.385 . S
C343 C342 1.374 . S
C344 C341 1.499 . S
C344 C345 1.373 1_455 S
C344 C346 1.389 . S
C345 H324 0.950 1_655 S
C345 C344 1.373 1_655 S
C345 C361 1.377 . S
C346 C344 1.389 . S
C346 C347 1.524 . S
C346 C360 1.377 1_455 S
C347 C346 1.524 . S
C347 C348 1.397 . S
C347 C352 1.363 1_554 S
C348 H325 0.950 . S
C348 C347 1.397 . S
C348 C349 1.334 1_554 S
C349 H326 0.950 . S
C349 C348 1.334 1_556 S
C349 C350 1.287 . S
C350 C349 1.287 . S
C350 C351 1.524 . S
C350 H369 0.913 . S
C351 H327 0.950 . S
C351 C350 1.524 . S
C351 C352 1.415 . S
C352 H328 0.950 1_556 S
C352 C347 1.363 1_556 S
C352 C351 1.415 . S
C353 H329 0.951 . S
C353 C354 1.366 . S
C353 C355 1.388 . S
C354 C353 1.366 . S
C354 C358 1.385 . S
C355 H330 0.951 . S
C355 C353 1.388 . S
C355 C356 1.366 . S
C356 C355 1.366 . S
C356 C357 1.414 . S
C356 C359 1.499 . S
C357 H331 0.950 . S
C357 C356 1.414 . S
C357 C358 1.374 . S
C358 H332 0.950 . S
C358 C354 1.385 . S
C358 C357 1.374 . S
C359 C356 1.499 . S
C359 C360 1.373 . S
C359 C361 1.389 . S
C360 H333 0.950 . S
C360 C346 1.377 1_655 S
C360 C359 1.373 . S
C361 C345 1.377 . S
C361 C359 1.389 . S
C361 C362 1.524 . S
C362 C361 1.524 . S
C362 C363 1.397 . S
C362 C367 1.363 . S
C363 H334 0.950 . S
C363 C362 1.397 . S
C363 C364 1.334 . S
C364 H335 0.950 . S
C364 C363 1.334 . S
C364 C365 1.287 . S
C365 C364 1.287 . S
C365 C366 1.524 . S
C365 H368 0.999 . S
C366 H336 0.950 . S
C366 C365 1.524 . S
C366 C367 1.415 . S
C367 H337 0.950 . S
C367 C362 1.363 . S
C367 C366 1.415 . S
H368 C365 0.999 . S
H369 C350 0.913 . S
H370 C388 0.951 . S
H371 C390 0.951 . S
H372 C392 0.950 . S
H373 C393 0.950 . S
H374 C395 0.950 . S
H375 C398 0.950 . S
H376 C399 0.950 . S
H377 C401 0.950 . S
H378 C402 0.950 . S
H379 C403 0.951 . S
H380 C405 0.951 . S
H381 C407 0.950 . S
H382 C408 0.950 . S
H383 C410 0.950 . S
H384 C413 0.950 . S
H385 C414 0.950 . S
H386 C416 0.950 . S
H387 C417 0.950 1_545 S
C388 H370 0.951 . S
C388 C389 1.366 . S
C388 C390 1.388 . S
C389 C388 1.366 . S
C389 C393 1.385 . S
C390 H371 0.951 . S
C390 C388 1.388 . S
C390 C391 1.366 . S
C391 C390 1.366 . S
C391 C392 1.414 . S
C391 C394 1.499 . S
C392 H372 0.950 . S
C392 C391 1.414 . S
C392 C393 1.374 . S
C393 H373 0.950 . S
C393 C389 1.385 . S
C393 C392 1.374 . S
C394 C391 1.499 . S
C394 C395 1.373 . S
C394 C396 1.389 1_545 S
C395 H374 0.950 . S
C395 C394 1.373 . S
C395 C411 1.377 1_545 S
C396 C394 1.389 1_565 S
C396 C397 1.524 1_565 S
C396 C410 1.377 . S
C397 C396 1.524 1_545 S
C397 C398 1.397 . S
C397 C402 1.363 1_545 S
C398 H375 0.950 . S
C398 C397 1.397 . S
C398 C399 1.334 . S
C399 H376 0.950 . S
C399 C398 1.334 . S
C399 C400 1.287 . S
C400 C399 1.287 . S
C400 C401 1.524 1_545 S
C400 H419 0.913 . S
C401 H377 0.950 . S
C401 C400 1.524 1_565 S
C401 C402 1.415 . S
C402 H378 0.950 . S
C402 C397 1.363 1_565 S
C402 C401 1.415 . S
C403 H379 0.951 . S
C403 C404 1.366 . S
C403 C405 1.388 . S
C404 C403 1.366 . S
C404 C408 1.385 . S
C405 H380 0.951 . S
C405 C403 1.388 . S
C405 C406 1.366 . S
C406 C405 1.366 . S
C406 C407 1.414 . S
C406 C409 1.499 . S
C407 H381 0.950 . S
C407 C406 1.414 . S
C407 C408 1.374 . S
C408 H382 0.950 . S
C408 C404 1.385 . S
C408 C407 1.374 . S
C409 C406 1.499 . S
C409 C410 1.373 . S
C409 C411 1.389 . S
C410 H383 0.950 . S
C410 C396 1.377 . S
C410 C409 1.373 . S
C411 C395 1.377 1_565 S
C411 C409 1.389 . S
C411 C412 1.524 . S
C412 C411 1.524 . S
C412 C413 1.397 . S
C412 C417 1.363 . S
C413 H384 0.950 . S
C413 C412 1.397 . S
C413 C414 1.334 . S
C414 H385 0.950 . S
C414 C413 1.334 . S
C414 C415 1.287 . S
C415 C414 1.287 . S
C415 C416 1.524 . S
C415 H418 0.999 . S
C416 H386 0.950 . S
C416 C415 1.524 . S
C416 C417 1.415 . S
C417 H387 0.950 1_565 S
C417 C412 1.363 . S
C417 C416 1.415 . S
H418 C415 0.999 . S
H419 C400 0.913 . S
H420 C438 0.951 . S
H421 C440 0.951 . S
H422 C442 0.950 . S
H423 C443 0.950 . S
H424 C445 0.950 . S
H425 C448 0.950 . S
H426 C449 0.950 . S
H427 C451 0.950 . S
H428 C452 0.950 . S
H429 C453 0.951 . S
H430 C455 0.951 . S
H431 C457 0.950 . S
H432 C458 0.950 . S
H433 C460 0.950 . S
H434 C463 0.950 . S
H435 C464 0.950 . S
H436 C466 0.950 . S
H437 C467 0.950 . S
C438 H420 0.951 . S
C438 C439 1.366 . S
C438 C440 1.388 . S
C439 C438 1.366 . S
C439 C443 1.385 . S
C440 H421 0.951 . S
C440 C438 1.388 . S
C440 C441 1.366 . S
C441 C440 1.366 . S
C441 C442 1.414 . S
C441 C444 1.499 . S
C442 H422 0.950 . S
C442 C441 1.414 . S
C442 C443 1.374 . S
C443 H423 0.950 . S
C443 C439 1.385 . S
C443 C442 1.374 . S
C444 C441 1.499 . S
C444 C445 1.373 . S
C444 C446 1.389 . S
C445 H424 0.950 . S
C445 C444 1.373 . S
C445 C461 1.377 . S
C446 C444 1.389 . S
C446 C447 1.524 . S
C446 C460 1.377 . S
C447 C446 1.524 . S
C447 C448 1.397 . S
C447 C452 1.363 . S
C448 H425 0.950 . S
C448 C447 1.397 . S
C448 C449 1.334 . S
C449 H426 0.950 . S
C449 C448 1.334 . S
C449 C450 1.287 . S
C450 C449 1.287 . S
C450 C451 1.524 . S
C450 H469 0.913 . S
C451 H427 0.950 . S
C451 C450 1.524 . S
C451 C452 1.415 . S
C452 H428 0.950 . S
C452 C447 1.363 . S
C452 C451 1.415 . S
C453 H429 0.951 . S
C453 C454 1.366 . S
C453 C455 1.388 . S
C454 C453 1.366 . S
C454 C458 1.385 . S
C455 H430 0.951 . S
C455 C453 1.388 . S
C455 C456 1.366 . S
C456 C455 1.366 . S
C456 C457 1.414 . S
C456 C459 1.499 . S
C457 H431 0.950 . S
C457 C456 1.414 . S
C457 C458 1.374 . S
C458 H432 0.950 . S
C458 C454 1.385 . S
C458 C457 1.374 . S
C459 C456 1.499 . S
C459 C460 1.373 . S
C459 C461 1.389 . S
C460 H433 0.950 . S
C460 C446 1.377 . S
C460 C459 1.373 . S
C461 C445 1.377 . S
C461 C459 1.389 . S
C461 C462 1.524 . S
C462 C461 1.524 . S
C462 C463 1.397 . S
C462 C467 1.363 . S
C463 H434 0.950 . S
C463 C462 1.397 . S
C463 C464 1.334 . S
C464 H435 0.950 . S
C464 C463 1.334 . S
C464 C465 1.287 . S
C465 C464 1.287 . S
C465 C466 1.524 . S
C465 H468 0.999 . S
C466 H436 0.950 . S
C466 C465 1.524 . S
C466 C467 1.415 . S
C467 H437 0.950 . S
C467 C462 1.363 . S
C467 C466 1.415 . S
H468 C465 0.999 . S
H469 C450 0.913 . S
H470 C488 0.951 . S
H471 C490 0.951 1_556 S
H472 C492 0.950 1_556 S
H473 C493 0.950 . S
H474 C495 0.950 . S
H475 C498 0.950 . S
H476 C499 0.950 1_554 S
H477 C501 0.950 . S
H478 C502 0.950 . S
H479 C503 0.951 . S
H480 C505 0.951 . S
H481 C507 0.950 . S
H482 C508 0.950 . S
H483 C510 0.950 . S
H484 C513 0.950 . S
H485 C514 0.950 . S
H486 C516 0.950 . S
H487 C517 0.950 . S
C488 H470 0.951 . S
C488 C489 1.366 . S
C488 C490 1.388 . S
C489 C488 1.366 . S
C489 C493 1.385 . S
C490 H471 0.951 1_554 S
C490 C488 1.388 . S
C490 C491 1.366 1_554 S
C491 C490 1.366 1_556 S
C491 C492 1.414 1_556 S
C491 C494 1.499 . S
C492 H472 0.950 1_554 S
C492 C491 1.414 1_554 S
C492 C493 1.374 . S
C493 H473 0.950 . S
C493 C489 1.385 . S
C493 C492 1.374 . S
C494 C491 1.499 . S
C494 C495 1.373 . S
C494 C496 1.389 . S
C495 H474 0.950 . S
C495 C494 1.373 . S
C495 C511 1.377 . S
C496 C494 1.389 . S
C496 C497 1.524 . S
C496 C510 1.377 . S
C497 C496 1.524 . S
C497 C498 1.397 . S
C497 C502 1.363 . S
C498 H475 0.950 . S
C498 C497 1.397 . S
C498 C499 1.334 . S
C499 H476 0.950 1_556 S
C499 C498 1.334 . S
C499 C500 1.287 . S
C500 C499 1.287 . S
C500 C501 1.524 . S
C500 H519 0.913 . S
C501 H477 0.950 . S
C501 C500 1.524 . S
C501 C502 1.415 . S
C502 H478 0.950 . S
C502 C497 1.363 . S
C502 C501 1.415 . S
C503 H479 0.951 . S
C503 C504 1.366 . S
C503 C505 1.388 . S
C504 C503 1.366 . S
C504 C508 1.385 . S
C505 H480 0.951 . S
C505 C503 1.388 . S
C505 C506 1.366 . S
C506 C505 1.366 . S
C506 C507 1.414 . S
C506 C509 1.499 . S
C507 H481 0.950 . S
C507 C506 1.414 . S
C507 C508 1.374 . S
C508 H482 0.950 . S
C508 C504 1.385 . S
C508 C507 1.374 . S
C509 C506 1.499 . S
C509 C510 1.373 . S
C509 C511 1.389 . S
C510 H483 0.950 . S
C510 C496 1.377 . S
C510 C509 1.373 . S
C511 C495 1.377 . S
C511 C509 1.389 . S
C511 C512 1.524 . S
C512 C511 1.524 . S
C512 C513 1.397 . S
C512 C517 1.363 . S
C513 H484 0.950 . S
C513 C512 1.397 . S
C513 C514 1.334 . S
C514 H485 0.950 . S
C514 C513 1.334 . S
C514 C515 1.287 . S
C515 C514 1.287 . S
C515 C516 1.524 . S
C515 H518 0.999 . S
C516 H486 0.950 . S
C516 C515 1.524 . S
C516 C517 1.415 . S
C517 H487 0.950 . S
C517 C512 1.363 . S
C517 C516 1.415 . S
H518 C515 0.999 . S
H519 C500 0.913 . S
H520 C538 0.951 . S
H521 C540 0.951 . S
H522 C542 0.950 . S
H523 C543 0.950 . S
H524 C545 0.950 . S
H525 C548 0.950 . S
H526 C549 0.950 . S
H527 C551 0.950 . S
H528 C552 0.950 . S
H529 C553 0.951 . S
H530 C555 0.951 1_554 S
H531 C557 0.950 1_554 S
H532 C558 0.950 . S
H533 C560 0.950 . S
H534 C563 0.950 . S
H535 C564 0.950 . S
H536 C566 0.950 . S
H537 C567 0.950 . S
C538 H520 0.951 . S
C538 C539 1.366 . S
C538 C540 1.388 . S
C539 C538 1.366 . S
C539 C543 1.385 . S
C540 H521 0.951 . S
C540 C538 1.388 . S
C540 C541 1.366 . S
C541 C540 1.366 . S
C541 C542 1.414 . S
C541 C544 1.499 . S
C542 H522 0.950 . S
C542 C541 1.414 . S
C542 C543 1.374 . S
C543 H523 0.950 . S
C543 C539 1.385 . S
C543 C542 1.374 . S
C544 C541 1.499 . S
C544 C545 1.373 . S
C544 C546 1.389 . S
C545 H524 0.950 . S
C545 C544 1.373 . S
C545 C561 1.377 . S
C546 C544 1.389 . S
C546 C547 1.524 . S
C546 C560 1.377 . S
C547 C546 1.524 . S
C547 C548 1.397 . S
C547 C552 1.363 . S
C548 H525 0.950 . S
C548 C547 1.397 . S
C548 C549 1.334 . S
C549 H526 0.950 . S
C549 C548 1.334 . S
C549 C550 1.287 . S
C550 C549 1.287 . S
C550 C551 1.524 . S
C550 H569 0.913 . S
C551 H527 0.950 . S
C551 C550 1.524 . S
C551 C552 1.415 . S
C552 H528 0.950 . S
C552 C547 1.363 . S
C552 C551 1.415 . S
C553 H529 0.951 . S
C553 C554 1.366 . S
C553 C555 1.388 . S
C554 C553 1.366 . S
C554 C558 1.385 . S
C555 H530 0.951 1_556 S
C555 C553 1.388 . S
C555 C556 1.366 1_556 S
C556 C555 1.366 1_554 S
C556 C557 1.414 1_554 S
C556 C559 1.499 . S
C557 H531 0.950 1_556 S
C557 C556 1.414 1_556 S
C557 C558 1.374 . S
C558 H532 0.950 . S
C558 C554 1.385 . S
C558 C557 1.374 . S
C559 C556 1.499 . S
C559 C560 1.373 . S
C559 C561 1.389 . S
C560 H533 0.950 . S
C560 C546 1.377 . S
C560 C559 1.373 . S
C561 C545 1.377 . S
C561 C559 1.389 . S
C561 C562 1.524 . S
C562 C561 1.524 . S
C562 C563 1.397 . S
C562 C567 1.363 . S
C563 H534 0.950 . S
C563 C562 1.397 . S
C563 C564 1.334 . S
C564 H535 0.950 . S
C564 C563 1.334 . S
C564 C565 1.287 . S
C565 C564 1.287 . S
C565 C566 1.524 . S
C565 H568 0.999 . S
C566 H536 0.950 . S
C566 C565 1.524 . S
C566 C567 1.415 . S
C567 H537 0.950 . S
C567 C562 1.363 . S
C567 C566 1.415 . S
H568 C565 0.999 . S
H569 C550 0.913 . S
H570 C588 0.951 . S
H571 C590 0.951 . S
H572 C592 0.950 . S
H573 C593 0.950 . S
H574 C595 0.950 . S
H575 C598 0.950 . S
H576 C599 0.950 . S
H577 C601 0.950 . S
H578 C602 0.950 . S
H579 C603 0.951 . S
H580 C605 0.951 . S
H581 C607 0.950 . S
H582 C608 0.950 . S
H583 C610 0.950 . S
H584 C613 0.950 . S
H585 C614 0.950 . S
H586 C616 0.950 . S
H587 C617 0.950 . S
C588 H570 0.951 . S
C588 C589 1.366 . S
C588 C590 1.388 . S
C589 C588 1.366 . S
C589 C593 1.385 . S
C590 H571 0.951 . S
C590 C588 1.388 . S
C590 C591 1.366 . S
C591 C590 1.366 . S
C591 C592 1.414 . S
C591 C594 1.499 . S
C592 H572 0.950 . S
C592 C591 1.414 . S
C592 C593 1.374 . S
C593 H573 0.950 . S
C593 C589 1.385 . S
C593 C592 1.374 . S
C594 C591 1.499 . S
C594 C595 1.373 . S
C594 C596 1.389 . S
C595 H574 0.950 . S
C595 C594 1.373 . S
C595 C611 1.377 . S
C596 C594 1.389 . S
C596 C597 1.524 . S
C596 C610 1.377 . S
C597 C596 1.524 . S
C597 C598 1.397 . S
C597 C602 1.363 . S
C598 H575 0.950 . S
C598 C597 1.397 . S
C598 C599 1.334 . S
C599 H576 0.950 . S
C599 C598 1.334 . S
C599 C600 1.287 . S
C600 C599 1.287 . S
C600 C601 1.524 . S
C600 H619 0.913 . S
C601 H577 0.950 . S
C601 C600 1.524 . S
C601 C602 1.415 . S
C602 H578 0.950 . S
C602 C597 1.363 . S
C602 C601 1.415 . S
C603 H579 0.951 . S
C603 C604 1.366 . S
C603 C605 1.388 . S
C604 C603 1.366 . S
C604 C608 1.385 . S
C605 H580 0.951 . S
C605 C603 1.388 . S
C605 C606 1.366 . S
C606 C605 1.366 . S
C606 C607 1.414 . S
C606 C609 1.499 . S
C607 H581 0.950 . S
C607 C606 1.414 . S
C607 C608 1.374 . S
C608 H582 0.950 . S
C608 C604 1.385 . S
C608 C607 1.374 . S
C609 C606 1.499 . S
C609 C610 1.373 . S
C609 C611 1.389 . S
C610 H583 0.950 . S
C610 C596 1.377 . S
C610 C609 1.373 . S
C611 C595 1.377 . S
C611 C609 1.389 . S
C611 C612 1.524 . S
C612 C611 1.524 . S
C612 C613 1.397 . S
C612 C617 1.363 . S
C613 H584 0.950 . S
C613 C612 1.397 . S
C613 C614 1.334 . S
C614 H585 0.950 . S
C614 C613 1.334 . S
C614 C615 1.287 . S
C615 C614 1.287 . S
C615 C616 1.524 . S
C615 H618 0.999 . S
C616 H586 0.950 . S
C616 C615 1.524 . S
C616 C617 1.415 . S
C617 H587 0.950 . S
C617 C612 1.363 . S
C617 C616 1.415 . S
H618 C615 0.999 . S
H619 C600 0.913 . S
H620 C638 0.951 . S
H621 C640 0.951 . S
H622 C642 0.950 . S
H623 C643 0.950 . S
H624 C645 0.950 . S
H625 C648 0.950 . S
H626 C649 0.950 . S
H627 C651 0.950 . S
H628 C652 0.950 . S
H629 C653 0.951 . S
H630 C655 0.955 . S
H631 C657 0.950 1_556 S
H632 C658 0.950 . S
H633 C660 0.950 . S
H634 C663 0.950 . S
H635 C664 0.950 1_554 S
H636 C666 0.950 . S
H637 C667 0.950 . S
C638 H620 0.951 . S
C638 C639 1.366 . S
C638 C640 1.388 . S
C639 C638 1.366 . S
C639 C643 1.385 . S
C640 H621 0.951 . S
C640 C638 1.388 . S
C640 C641 1.366 . S
C641 C640 1.366 . S
C641 C642 1.414 . S
C641 C644 1.499 . S
C642 H622 0.950 . S
C642 C641 1.414 . S
C642 C643 1.374 . S
C643 H623 0.950 . S
C643 C639 1.385 . S
C643 C642 1.374 . S
C644 C641 1.499 . S
C644 C645 1.373 . S
C644 C646 1.389 . S
C645 H624 0.950 . S
C645 C644 1.373 . S
C645 C661 1.377 . S
C646 C644 1.389 . S
C646 C647 1.524 . S
C646 C660 1.377 . S
C647 C646 1.524 . S
C647 C648 1.397 . S
C647 C652 1.363 . S
C648 H625 0.950 . S
C648 C647 1.397 . S
C648 C649 1.334 . S
C649 H626 0.950 . S
C649 C648 1.334 . S
C649 C650 1.287 . S
C650 C649 1.287 . S
C650 C651 1.524 . S
C650 H669 0.913 . S
C651 H627 0.950 . S
C651 C650 1.524 . S
C651 C652 1.415 . S
C652 H628 0.950 . S
C652 C647 1.363 . S
C652 C651 1.415 . S
C653 H629 0.951 . S
C653 C654 1.366 . S
C653 C655 1.388 . S
C654 C653 1.366 . S
C654 C658 1.385 . S
C655 H630 0.955 . S
C655 C653 1.388 . S
C655 C656 1.366 1_554 S
C656 C655 1.366 1_556 S
C656 C657 1.414 1_556 S
C656 C659 1.499 . S
C657 H631 0.950 1_554 S
C657 C656 1.414 1_554 S
C657 C658 1.374 . S
C658 H632 0.950 . S
C658 C654 1.385 . S
C658 C657 1.374 . S
C659 C656 1.499 . S
C659 C660 1.373 . S
C659 C661 1.389 . S
C660 H633 0.950 . S
C660 C646 1.377 . S
C660 C659 1.373 . S
C661 C645 1.377 . S
C661 C659 1.389 . S
C661 C662 1.524 . S
C662 C661 1.524 . S
C662 C663 1.397 . S
C662 C667 1.363 . S
C663 H634 0.950 . S
C663 C662 1.397 . S
C663 C664 1.334 . S
C664 H635 0.950 1_556 S
C664 C663 1.334 . S
C664 C665 1.287 . S
C665 C664 1.287 . S
C665 C666 1.524 . S
C665 H668 0.999 . S
C666 H636 0.950 . S
C666 C665 1.524 . S
C666 C667 1.415 . S
C667 H637 0.950 . S
C667 C662 1.363 . S
C667 C666 1.415 . S
H668 C665 0.999 . S
H669 C650 0.913 . S
H670 C688 0.951 . S
H671 C690 0.951 . S
H672 C692 0.950 . S
H673 C693 0.950 . S
H674 C695 0.950 . S
H675 C698 0.950 . S
H676 C699 0.950 . S
H677 C701 0.950 . S
H678 C702 0.950 . S
H679 C703 0.951 . S
H680 C705 0.951 1_554 S
H681 C707 0.950 1_554 S
H682 C708 0.950 . S
H683 C710 0.950 . S
H684 C713 0.950 . S
H685 C714 0.939 1_556 S
H686 C716 0.950 . S
H687 C717 0.950 . S
C688 H670 0.951 . S
C688 C689 1.366 . S
C688 C690 1.388 . S
C689 C688 1.366 . S
C689 C693 1.385 . S
C690 H671 0.951 . S
C690 C688 1.388 . S
C690 C691 1.366 . S
C691 C690 1.366 . S
C691 C692 1.414 . S
C691 C694 1.499 . S
C692 H672 0.950 . S
C692 C691 1.414 . S
C692 C693 1.374 . S
C693 H673 0.950 . S
C693 C689 1.385 . S
C693 C692 1.374 . S
C694 C691 1.499 . S
C694 C695 1.373 . S
C694 C696 1.389 . S
C695 H674 0.950 . S
C695 C694 1.373 . S
C695 C711 1.377 . S
C696 C694 1.389 . S
C696 C697 1.524 . S
C696 C710 1.377 . S
C697 C696 1.524 . S
C697 C698 1.397 . S
C697 C702 1.363 . S
C698 H675 0.950 . S
C698 C697 1.397 . S
C698 C699 1.334 . S
C699 H676 0.950 . S
C699 C698 1.334 . S
C699 C700 1.287 . S
C700 C699 1.287 . S
C700 C701 1.524 . S
C700 H719 0.913 . S
C701 H677 0.950 . S
C701 C700 1.524 . S
C701 C702 1.415 . S
C702 H678 0.950 . S
C702 C697 1.363 . S
C702 C701 1.415 . S
C703 H679 0.951 . S
C703 C704 1.366 . S
C703 C705 1.388 . S
C704 C703 1.366 . S
C704 C708 1.385 . S
C705 H680 0.951 1_556 S
C705 C703 1.388 . S
C705 C706 1.366 1_556 S
C706 C705 1.366 1_554 S
C706 C707 1.414 1_554 S
C706 C709 1.499 . S
C707 H681 0.950 1_556 S
C707 C706 1.414 1_556 S
C707 C708 1.374 . S
C708 H682 0.950 . S
C708 C704 1.385 . S
C708 C707 1.374 . S
C709 C706 1.499 . S
C709 C710 1.373 . S
C709 C711 1.389 . S
C710 H683 0.950 . S
C710 C696 1.377 . S
C710 C709 1.373 . S
C711 C695 1.377 . S
C711 C709 1.389 . S
C711 C712 1.524 . S
C712 C711 1.524 . S
C712 C713 1.397 . S
C712 C717 1.363 . S
C713 H684 0.950 . S
C713 C712 1.397 . S
C713 C714 1.334 . S
C714 H685 0.939 1_554 S
C714 C713 1.334 . S
C714 C715 1.287 . S
C715 C714 1.287 . S
C715 C716 1.524 . S
C715 H718 0.999 . S
C716 H686 0.950 . S
C716 C715 1.524 . S
C716 C717 1.415 . S
C717 H687 0.950 . S
C717 C712 1.363 . S
C717 C716 1.415 . S
H718 C715 0.999 . S
H719 C700 0.913 . S
H720 C738 0.951 . S
H721 C740 0.951 . S
H722 C742 0.950 . S
H723 C743 0.950 . S
H724 C745 0.950 . S
H725 C748 0.950 . S
H726 C749 0.950 . S
H727 C751 0.950 . S
H728 C752 0.950 . S
H729 C753 0.951 . S
H730 C755 0.951 . S
H731 C757 0.950 . S
H732 C758 0.950 . S
H733 C760 0.950 . S
H734 C763 0.950 . S
H735 C764 0.950 . S
H736 C766 0.950 . S
H737 C767 0.950 . S
C738 H720 0.951 . S
C738 C739 1.366 . S
C738 C740 1.388 . S
C739 C738 1.366 . S
C739 C743 1.385 . S
C740 H721 0.951 . S
C740 C738 1.388 . S
C740 C741 1.366 . S
C741 C740 1.366 . S
C741 C742 1.414 . S
C741 C744 1.499 . S
C742 H722 0.950 . S
C742 C741 1.414 . S
C742 C743 1.374 . S
C743 H723 0.950 . S
C743 C739 1.385 . S
C743 C742 1.374 . S
C744 C741 1.499 . S
C744 C745 1.373 . S
C744 C746 1.389 . S
C745 H724 0.950 . S
C745 C744 1.373 . S
C745 C761 1.377 . S
C746 C744 1.389 . S
C746 C747 1.524 . S
C746 C760 1.377 . S
C747 C746 1.524 . S
C747 C748 1.397 . S
C747 C752 1.363 . S
C748 H725 0.950 . S
C748 C747 1.397 . S
C748 C749 1.334 1_554 S
C749 H726 0.950 . S
C749 C748 1.334 1_556 S
C749 C750 1.287 . S
C750 C749 1.287 . S
C750 C751 1.524 1_556 S
C750 H769 0.913 . S
C751 H727 0.950 . S
C751 C750 1.524 1_554 S
C751 C752 1.415 . S
C752 H728 0.950 . S
C752 C747 1.363 . S
C752 C751 1.415 . S
C753 H729 0.951 . S
C753 C754 1.366 . S
C753 C755 1.388 . S
C754 C753 1.366 . S
C754 C758 1.385 . S
C755 H730 0.951 . S
C755 C753 1.388 . S
C755 C756 1.366 . S
C756 C755 1.366 . S
C756 C757 1.414 . S
C756 C759 1.499 . S
C757 H731 0.950 . S
C757 C756 1.414 . S
C757 C758 1.374 . S
C758 H732 0.950 . S
C758 C754 1.385 . S
C758 C757 1.374 . S
C759 C756 1.499 . S
C759 C760 1.373 . S
C759 C761 1.389 . S
C760 H733 0.950 . S
C760 C746 1.377 . S
C760 C759 1.373 . S
C761 C745 1.377 . S
C761 C759 1.389 . S
C761 C762 1.524 . S
C762 C761 1.524 . S
C762 C763 1.397 . S
C762 C767 1.363 . S
C763 H734 0.950 . S
C763 C762 1.397 . S
C763 C764 1.334 . S
C764 H735 0.950 . S
C764 C763 1.334 . S
C764 C765 1.287 . S
C765 C764 1.287 . S
C765 C766 1.524 . S
C765 H768 0.999 . S
C766 H736 0.950 . S
C766 C765 1.524 . S
C766 C767 1.415 . S
C767 H737 0.950 . S
C767 C762 1.363 . S
C767 C766 1.415 . S
H768 C765 0.999 . S
H769 C750 0.913 . S
H770 C788 0.951 . S
H771 C790 0.951 . S
H772 C792 0.950 . S
H773 C793 0.950 . S
H774 C795 0.950 . S
H775 C798 0.950 . S
H776 C799 0.950 . S
H777 C801 0.950 . S
H778 C802 0.950 . S
H779 C803 0.951 . S
H780 C805 0.951 . S
H781 C807 0.950 . S
H782 C808 0.950 . S
H783 C810 0.950 . S
H784 C813 0.950 . S
H785 C814 0.950 . S
H786 C816 0.950 . S
H787 C817 0.950 . S
C788 H770 0.951 . S
C788 C789 1.366 . S
C788 C790 1.388 . S
C789 C788 1.366 . S
C789 C793 1.385 . S
C790 H771 0.951 . S
C790 C788 1.388 . S
C790 C791 1.366 . S
C791 C790 1.366 . S
C791 C792 1.414 . S
C791 C794 1.499 . S
C792 H772 0.950 . S
C792 C791 1.414 . S
C792 C793 1.374 . S
C793 H773 0.950 . S
C793 C789 1.385 . S
C793 C792 1.374 . S
C794 C791 1.499 . S
C794 C795 1.373 . S
C794 C796 1.389 . S
C795 H774 0.950 . S
C795 C794 1.373 . S
C795 C811 1.377 . S
C796 C794 1.389 . S
C796 C797 1.524 . S
C796 C810 1.377 . S
C797 C796 1.524 . S
C797 C798 1.397 . S
C797 C802 1.363 . S
C798 H775 0.950 . S
C798 C797 1.397 . S
C798 C799 1.334 . S
C799 H776 0.950 . S
C799 C798 1.334 . S
C799 C800 1.287 . S
C800 C799 1.287 . S
C800 C801 1.524 . S
C800 H819 0.913 . S
C801 H777 0.950 . S
C801 C800 1.524 . S
C801 C802 1.415 . S
C802 H778 0.950 . S
C802 C797 1.363 . S
C802 C801 1.415 . S
C803 H779 0.951 . S
C803 C804 1.366 . S
C803 C805 1.388 . S
C804 C803 1.366 . S
C804 C808 1.385 . S
C805 H780 0.951 . S
C805 C803 1.388 . S
C805 C806 1.366 . S
C806 C805 1.366 . S
C806 C807 1.414 . S
C806 C809 1.499 . S
C807 H781 0.950 . S
C807 C806 1.414 . S
C807 C808 1.374 . S
C808 H782 0.950 . S
C808 C804 1.385 . S
C808 C807 1.374 . S
C809 C806 1.499 . S
C809 C810 1.373 . S
C809 C811 1.389 . S
C810 H783 0.950 . S
C810 C796 1.377 . S
C810 C809 1.373 . S
C811 C795 1.377 . S
C811 C809 1.389 . S
C811 C812 1.524 . S
C812 C811 1.524 . S
C812 C813 1.397 . S
C812 C817 1.363 . S
C813 H784 0.950 . S
C813 C812 1.397 . S
C813 C814 1.334 . S
C814 H785 0.950 . S
C814 C813 1.334 . S
C814 C815 1.287 . S
C815 C814 1.287 . S
C815 C816 1.524 . S
C815 H818 0.999 . S
C816 H786 0.950 . S
C816 C815 1.524 . S
C816 C817 1.415 . S
C817 H787 0.950 . S
C817 C812 1.363 . S
C817 C816 1.415 . S
H818 C815 0.999 . S
H819 C800 0.913 . S
H820 C838 0.951 . S
H821 C840 0.951 . S
H822 C842 0.950 . S
H823 C843 0.950 . S
H824 C845 0.950 . S
H825 C848 0.950 . S
H826 C849 0.950 . S
H827 C851 0.950 . S
H828 C852 0.950 . S
H829 C853 0.951 . S
H830 C855 0.951 . S
H831 C857 0.950 . S
H832 C858 0.950 . S
H833 C860 0.950 . S
H834 C863 0.950 . S
H835 C864 0.950 . S
H836 C866 0.950 . S
H837 C867 0.950 . S
C838 H820 0.951 . S
C838 C839 1.366 . S
C838 C840 1.388 . S
C839 C838 1.366 . S
C839 C843 1.385 . S
C840 H821 0.951 . S
C840 C838 1.388 . S
C840 C841 1.366 . S
C841 C840 1.366 . S
C841 C842 1.414 . S
C841 C844 1.499 . S
C842 H822 0.950 . S
C842 C841 1.414 . S
C842 C843 1.374 . S
C843 H823 0.950 . S
C843 C839 1.385 . S
C843 C842 1.374 . S
C844 C841 1.499 . S
C844 C845 1.373 . S
C844 C846 1.389 . S
C845 H824 0.950 . S
C845 C844 1.373 . S
C845 C861 1.377 . S
C846 C844 1.389 . S
C846 C847 1.524 . S
C846 C860 1.377 . S
C847 C846 1.524 . S
C847 C848 1.397 . S
C847 C852 1.363 . S
C848 H825 0.950 . S
C848 C847 1.397 . S
C848 C849 1.334 . S
C849 H826 0.950 . S
C849 C848 1.334 . S
C849 C850 1.287 . S
C850 C849 1.287 . S
C850 C851 1.524 . S
C850 H869 0.913 . S
C851 H827 0.950 . S
C851 C850 1.524 . S
C851 C852 1.415 . S
C852 H828 0.950 . S
C852 C847 1.363 . S
C852 C851 1.415 . S
C853 H829 0.951 . S
C853 C854 1.366 . S
C853 C855 1.388 . S
C854 C853 1.366 . S
C854 C858 1.385 . S
C855 H830 0.951 . S
C855 C853 1.388 . S
C855 C856 1.366 . S
C856 C855 1.366 . S
C856 C857 1.414 . S
C856 C859 1.499 . S
C857 H831 0.950 . S
C857 C856 1.414 . S
C857 C858 1.374 . S
C858 H832 0.950 . S
C858 C854 1.385 . S
C858 C857 1.374 . S
C859 C856 1.499 . S
C859 C860 1.373 . S
C859 C861 1.389 . S
C860 H833 0.950 . S
C860 C846 1.377 . S
C860 C859 1.373 . S
C861 C845 1.377 . S
C861 C859 1.389 . S
C861 C862 1.524 . S
C862 C861 1.524 . S
C862 C863 1.397 . S
C862 C867 1.363 . S
C863 H834 0.950 . S
C863 C862 1.397 . S
C863 C864 1.334 1_556 S
C864 H835 0.950 . S
C864 C863 1.334 1_554 S
C864 C865 1.287 . S
C865 C864 1.287 . S
C865 C866 1.524 1_554 S
C865 H868 0.999 . S
C866 H836 0.950 . S
C866 C865 1.524 1_556 S
C866 C867 1.415 . S
C867 H837 0.950 . S
C867 C862 1.363 . S
C867 C866 1.415 . S
H868 C865 0.999 . S
H869 C850 0.913 . S
H870 C888 0.951 . S
H871 C890 0.951 . S
H872 C892 0.950 . S
H873 C893 0.950 . S
H874 C895 0.950 . S
H875 C898 0.950 . S
H876 C899 0.950 . S
H877 C901 0.950 . S
H878 C902 0.950 . S
H879 C903 0.951 . S
H880 C905 0.951 . S
H881 C907 0.950 . S
H882 C908 0.950 . S
H883 C910 0.950 . S
H884 C913 0.950 . S
H885 C914 0.950 . S
H886 C916 0.950 . S
H887 C917 0.950 . S
C888 H870 0.951 . S
C888 C889 1.366 . S
C888 C890 1.388 . S
C889 C888 1.366 . S
C889 C893 1.385 . S
C890 H871 0.951 . S
C890 C888 1.388 . S
C890 C891 1.366 . S
C891 C890 1.366 . S
C891 C892 1.414 . S
C891 C894 1.499 . S
C892 H872 0.950 . S
C892 C891 1.414 . S
C892 C893 1.374 . S
C893 H873 0.950 . S
C893 C889 1.385 . S
C893 C892 1.374 . S
C894 C891 1.499 . S
C894 C895 1.373 . S
C894 C896 1.389 . S
C895 H874 0.950 . S
C895 C894 1.373 . S
C895 C911 1.377 . S
C896 C894 1.389 . S
C896 C897 1.524 . S
C896 C910 1.377 . S
C897 C896 1.524 . S
C897 C898 1.397 . S
C897 C902 1.363 . S
C898 H875 0.950 . S
C898 C897 1.397 . S
C898 C899 1.334 . S
C899 H876 0.950 . S
C899 C898 1.334 . S
C899 C900 1.287 . S
C900 C899 1.287 . S
C900 C901 1.524 . S
C900 H919 0.913 1_554 S
C901 H877 0.950 . S
C901 C900 1.524 . S
C901 C902 1.415 . S
C902 H878 0.950 . S
C902 C897 1.363 . S
C902 C901 1.415 . S
C903 H879 0.951 . S
C903 C904 1.366 . S
C903 C905 1.388 . S
C904 C903 1.366 . S
C904 C908 1.385 . S
C905 H880 0.951 . S
C905 C903 1.388 . S
C905 C906 1.366 . S
C906 C905 1.366 . S
C906 C907 1.414 . S
C906 C909 1.499 . S
C907 H881 0.950 . S
C907 C906 1.414 . S
C907 C908 1.374 . S
C908 H882 0.950 . S
C908 C904 1.385 . S
C908 C907 1.374 . S
C909 C906 1.499 . S
C909 C910 1.373 . S
C909 C911 1.389 . S
C910 H883 0.950 . S
C910 C896 1.377 . S
C910 C909 1.373 . S
C911 C895 1.377 . S
C911 C909 1.389 . S
C911 C912 1.524 . S
C912 C911 1.524 . S
C912 C913 1.397 . S
C912 C917 1.363 . S
C913 H884 0.950 . S
C913 C912 1.397 . S
C913 C914 1.334 . S
C914 H885 0.950 . S
C914 C913 1.334 . S
C914 C915 1.287 . S
C915 C914 1.287 . S
C915 C916 1.524 . S
C915 H918 0.999 . S
C916 H886 0.950 . S
C916 C915 1.524 . S
C916 C917 1.415 . S
C917 H887 0.950 . S
C917 C912 1.363 . S
C917 C916 1.415 . S
H918 C915 0.999 . S
H919 C900 0.913 1_556 S
H920 C938 0.951 . S
H921 C940 0.951 . S
H922 C942 0.950 . S
H923 C943 0.950 . S
H924 C945 0.950 . S
H925 C948 0.950 . S
H926 C949 0.950 . S
H927 C951 0.950 . S
H928 C952 0.950 . S
H929 C953 0.951 . S
H930 C955 0.951 . S
H931 C957 0.950 . S
H932 C958 0.950 . S
H933 C960 0.950 . S
H934 C963 0.950 . S
H935 C964 0.950 . S
H936 C966 0.950 . S
H937 C967 0.950 . S
C938 H920 0.951 . S
C938 C939 1.366 . S
C938 C940 1.388 . S
C939 C938 1.366 . S
C939 C943 1.385 . S
C940 H921 0.951 . S
C940 C938 1.388 . S
C940 C941 1.366 . S
C941 C940 1.366 . S
C941 C942 1.414 . S
C941 C944 1.499 . S
C942 H922 0.950 . S
C942 C941 1.414 . S
C942 C943 1.374 . S
C943 H923 0.950 . S
C943 C939 1.385 . S
C943 C942 1.374 . S
C944 C941 1.499 . S
C944 C945 1.373 . S
C944 C946 1.389 . S
C945 H924 0.950 . S
C945 C944 1.373 . S
C945 C961 1.377 . S
C946 C944 1.389 . S
C946 C947 1.524 . S
C946 C960 1.377 . S
C947 C946 1.524 . S
C947 C948 1.397 . S
C947 C952 1.363 . S
C948 H925 0.950 . S
C948 C947 1.397 . S
C948 C949 1.334 . S
C949 H926 0.950 . S
C949 C948 1.334 . S
C949 C950 1.287 . S
C950 C949 1.287 . S
C950 C951 1.524 . S
C950 H969 0.913 . S
C951 H927 0.950 . S
C951 C950 1.524 . S
C951 C952 1.415 . S
C952 H928 0.950 . S
C952 C947 1.363 . S
C952 C951 1.415 . S
C953 H929 0.951 . S
C953 C954 1.366 . S
C953 C955 1.388 . S
C954 C953 1.366 . S
C954 C958 1.385 . S
C955 H930 0.951 . S
C955 C953 1.388 . S
C955 C956 1.366 . S
C956 C955 1.366 . S
C956 C957 1.414 . S
C956 C959 1.499 . S
C957 H931 0.950 . S
C957 C956 1.414 . S
C957 C958 1.374 . S
C958 H932 0.950 . S
C958 C954 1.385 . S
C958 C957 1.374 . S
C959 C956 1.499 . S
C959 C960 1.373 . S
C959 C961 1.389 . S
C960 H933 0.950 . S
C960 C946 1.377 . S
C960 C959 1.373 . S
C961 C945 1.377 . S
C961 C959 1.389 . S
C961 C962 1.524 . S
C962 C961 1.524 . S
C962 C963 1.397 . S
C962 C967 1.363 . S
C963 H934 0.950 . S
C963 C962 1.397 . S
C963 C964 1.334 . S
C964 H935 0.950 . S
C964 C963 1.334 . S
C964 C965 1.287 . S
C965 C964 1.287 . S
C965 C966 1.524 . S
C965 H968 0.999 . S
C966 H936 0.950 . S
C966 C965 1.524 . S
C966 C967 1.415 . S
C967 H937 0.950 . S
C967 C962 1.363 . S
C967 C966 1.415 . S
H968 C965 0.999 . S
H969 C950 0.913 . S
H970 C988 0.951 . S
H971 C990 0.951 . S
H972 C992 0.950 . S
H973 C993 0.950 . S
H974 C995 0.950 . S
H975 C998 0.950 . S
H976 C999 0.950 . S
H977 C1001 0.950 . S
H978 C1002 0.950 . S
H979 C1003 0.951 . S
H980 C1005 0.951 . S
H981 C1007 0.950 . S
H982 C1008 0.950 . S
H983 C1010 0.950 . S
H984 C1013 0.950 . S
H985 C1014 0.950 . S
H986 C1016 0.950 . S
H987 C1017 0.950 . S
C988 H970 0.951 . S
C988 C989 1.366 . S
C988 C990 1.388 . S
C989 C988 1.366 . S
C989 C993 1.385 . S
C990 H971 0.951 . S
C990 C988 1.388 . S
C990 C991 1.366 . S
C991 C990 1.366 . S
C991 C992 1.414 . S
C991 C994 1.499 . S
C992 H972 0.950 . S
C992 C991 1.414 . S
C992 C993 1.374 . S
C993 H973 0.950 . S
C993 C989 1.385 . S
C993 C992 1.374 . S
C994 C991 1.499 . S
C994 C995 1.373 . S
C994 C996 1.389 . S
C995 H974 0.950 . S
C995 C994 1.373 . S
C995 C1011 1.377 . S
C996 C994 1.389 . S
C996 C997 1.524 . S
C996 C1010 1.377 . S
C997 C996 1.524 . S
C997 C998 1.397 . S
C997 C1002 1.363 . S
C998 H975 0.950 . S
C998 C997 1.397 . S
C998 C999 1.334 . S
C999 H976 0.950 . S
C999 C998 1.334 . S
C999 C1000 1.287 . S
C1000 C999 1.287 . S
C1000 C1001 1.524 . S
C1000 H1019 0.913 . S
C1001 H977 0.950 . S
C1001 C1000 1.524 . S
C1001 C1002 1.415 . S
C1002 H978 0.950 . S
C1002 C997 1.363 . S
C1002 C1001 1.415 . S
C1003 H979 0.951 . S
C1003 C1004 1.366 . S
C1003 C1005 1.388 . S
C1004 C1003 1.366 . S
C1004 C1008 1.385 . S
C1005 H980 0.951 . S
C1005 C1003 1.388 . S
C1005 C1006 1.366 . S
C1006 C1005 1.366 . S
C1006 C1007 1.414 . S
C1006 C1009 1.499 . S
C1007 H981 0.950 . S
C1007 C1006 1.414 . S
C1007 C1008 1.374 . S
C1008 H982 0.950 . S
C1008 C1004 1.385 . S
C1008 C1007 1.374 . S
C1009 C1006 1.499 . S
C1009 C1010 1.373 . S
C1009 C1011 1.389 . S
C1010 H983 0.950 . S
C1010 C996 1.377 . S
C1010 C1009 1.373 . S
C1011 C995 1.377 . S
C1011 C1009 1.389 . S
C1011 C1012 1.524 . S
C1012 C1011 1.524 . S
C1012 C1013 1.397 . S
C1012 C1017 1.363 1_556 S
C1013 H984 0.950 . S
C1013 C1012 1.397 . S
C1013 C1014 1.334 1_556 S
C1014 H985 0.950 . S
C1014 C1013 1.334 1_554 S
C1014 C1015 1.287 . S
C1015 C1014 1.287 . S
C1015 C1016 1.524 . S
C1015 H1018 0.999 . S
C1016 H986 0.950 . S
C1016 C1015 1.524 . S
C1016 C1017 1.415 . S
C1017 H987 0.950 . S
C1017 C1012 1.363 1_554 S
C1017 C1016 1.415 . S
H1018 C1015 0.999 . S
H1019 C1000 0.913 . S
C139 C101 1.448 . S
C154 C16 1.398 . S
C189 C1 1.449 . S
C204 C36 1.399 . S
C239 C21 1.449 . S
C254 C56 1.399 . S
C289 C41 1.449 . S
C304 C76 1.398 . S
C339 C96 1.397 . S
C354 C61 1.448 . S
C389 C116 1.399 . S
C404 C81 1.448 . S
C439 C8 1.923 . S
C454 C19 1.923 . S
C489 C28 1.923 . S
C504 C39 1.923 . S
C539 C48 1.923 . S
C554 C59 1.923 . S
C589 C68 1.922 . S
C604 C79 1.922 . S
C639 C99 1.922 . S
C654 C88 1.922 . S
C689 C108 1.923 . S
C704 C119 1.923 . S
C739 C6 1.366 . S
C754 C89 1.399 . S
C789 C26 1.365 . S
C804 C109 1.398 . S
C839 C9 1.398 . S
C854 C46 1.365 . S
C889 C29 1.398 . S
C904 C66 1.365 . S
C939 C86 1.365 . S
C954 C49 1.398 . S
C989 C69 1.398 . S
C1004 C106 1.365 . S
