# Generated by pormake.
# Topology uou, (4)-cn, num edge types: 1
# Building blocks:
#     Node 0, Type 0, BuildingBlock: NAHDIM_clean_sbu_0, # of connection points: 4
#     Node 1, Type 0, BuildingBlock: NAHDIM_clean_sbu_0, # of connection points: 4
#     Node 2, Type 0, BuildingBlock: NAHDIM_clean_sbu_0, # of connection points: 4
#     Node 3, Type 0, BuildingBlock: NAHDIM_clean_sbu_0, # of connection points: 4
#     Node 4, Type 0, BuildingBlock: NAHDIM_clean_sbu_0, # of connection points: 4
#     Node 5, Type 0, BuildingBlock: NAHDIM_clean_sbu_0, # of connection points: 4
#     Node 6, Type 0, BuildingBlock: NAHDIM_clean_sbu_0, # of connection points: 4
#     Node 7, Type 0, BuildingBlock: NAHDIM_clean_sbu_0, # of connection points: 4
#     Node 8, Type 0, BuildingBlock: NAHDIM_clean_sbu_0, # of connection points: 4
#     Node 9, Type 0, BuildingBlock: NAHDIM_clean_sbu_0, # of connection points: 4
#     Node 10, Type 0, BuildingBlock: NAHDIM_clean_sbu_0, # of connection points: 4
#     Node 11, Type 0, BuildingBlock: NAHDIM_clean_sbu_0, # of connection points: 4
#     Node 12, Type 0, BuildingBlock: NAHDIM_clean_sbu_0, # of connection points: 4
#     Node 13, Type 0, BuildingBlock: NAHDIM_clean_sbu_0, # of connection points: 4
#     Node 14, Type 0, BuildingBlock: NAHDIM_clean_sbu_0, # of connection points: 4
#     Node 15, Type 0, BuildingBlock: NAHDIM_clean_sbu_0, # of connection points: 4
#     Edge 16, Type (0, 0), BuildingBlock: XIVTED_clean_linker_0, # of connection points: 2
#     Edge 17, Type (0, 0), BuildingBlock: XIVTED_clean_linker_0, # of connection points: 2
#     Edge 18, Type (0, 0), BuildingBlock: XIVTED_clean_linker_0, # of connection points: 2
#     Edge 19, Type (0, 0), BuildingBlock: XIVTED_clean_linker_0, # of connection points: 2
#     Edge 20, Type (0, 0), BuildingBlock: XIVTED_clean_linker_0, # of connection points: 2
#     Edge 21, Type (0, 0), BuildingBlock: XIVTED_clean_linker_0, # of connection points: 2
#     Edge 22, Type (0, 0), BuildingBlock: XIVTED_clean_linker_0, # of connection points: 2
#     Edge 23, Type (0, 0), BuildingBlock: XIVTED_clean_linker_0, # of connection points: 2
#     Edge 24, Type (0, 0), BuildingBlock: XIVTED_clean_linker_0, # of connection points: 2
#     Edge 25, Type (0, 0), BuildingBlock: XIVTED_clean_linker_0, # of connection points: 2
#     Edge 26, Type (0, 0), BuildingBlock: XIVTED_clean_linker_0, # of connection points: 2
#     Edge 27, Type (0, 0), BuildingBlock: XIVTED_clean_linker_0, # of connection points: 2
#     Edge 28, Type (0, 0), BuildingBlock: XIVTED_clean_linker_0, # of connection points: 2
#     Edge 29, Type (0, 0), BuildingBlock: XIVTED_clean_linker_0, # of connection points: 2
#     Edge 30, Type (0, 0), BuildingBlock: XIVTED_clean_linker_0, # of connection points: 2
#     Edge 31, Type (0, 0), BuildingBlock: XIVTED_clean_linker_0, # of connection points: 2
#     Edge 32, Type (0, 0), BuildingBlock: XIVTED_clean_linker_0, # of connection points: 2
#     Edge 33, Type (0, 0), BuildingBlock: XIVTED_clean_linker_0, # of connection points: 2
#     Edge 34, Type (0, 0), BuildingBlock: XIVTED_clean_linker_0, # of connection points: 2
#     Edge 35, Type (0, 0), BuildingBlock: XIVTED_clean_linker_0, # of connection points: 2
#     Edge 36, Type (0, 0), BuildingBlock: XIVTED_clean_linker_0, # of connection points: 2
#     Edge 37, Type (0, 0), BuildingBlock: XIVTED_clean_linker_0, # of connection points: 2
#     Edge 38, Type (0, 0), BuildingBlock: XIVTED_clean_linker_0, # of connection points: 2
#     Edge 39, Type (0, 0), BuildingBlock: XIVTED_clean_linker_0, # of connection points: 2
#     Edge 40, Type (0, 0), BuildingBlock: XIVTED_clean_linker_0, # of connection points: 2
#     Edge 41, Type (0, 0), BuildingBlock: XIVTED_clean_linker_0, # of connection points: 2
#     Edge 42, Type (0, 0), BuildingBlock: XIVTED_clean_linker_0, # of connection points: 2
#     Edge 43, Type (0, 0), BuildingBlock: XIVTED_clean_linker_0, # of connection points: 2
#     Edge 44, Type (0, 0), BuildingBlock: XIVTED_clean_linker_0, # of connection points: 2
#     Edge 45, Type (0, 0), BuildingBlock: XIVTED_clean_linker_0, # of connection points: 2
#     Edge 46, Type (0, 0), BuildingBlock: XIVTED_clean_linker_0, # of connection points: 2
#     Edge 47, Type (0, 0), BuildingBlock: XIVTED_clean_linker_0, # of connection points: 2
# Relax obj value: 0.108
# Max RMSD: 0.148
# Mean RMSD: 0.148
data_MOF--net-uou--node1-NAHDIM_clean_sbu_0--edge1-XIVTED_clean_linker_0
_symmetry_space_group_name_H-M    P1
_symmetry_Int_Tables_number       1
_symmetry_cell_setting            triclinic
loop_
_symmetry_equiv_pos_as_xyz
'x, y, z'
_cell_length_a     40.484869
_cell_length_b     39.633741
_cell_length_c     51.362944
_cell_angle_alpha  90.139149
_cell_angle_beta   90.056383
_cell_angle_gamma 90.112244
loop_
_atom_site_label
_atom_site_type_symbol
_atom_site_fract_x
_atom_site_fract_y
_atom_site_fract_z
_atom_type_partial_charge
C0 C 0.11473 0.9876 0.12413 0.0
O1 O 0.09095 0.96619 0.1297 0.0
O2 O 0.04118 0.01487 0.15922 0.0
Zn3 Zn 0.06129 0.03385 0.12674 0.0
O4 O 0.0357 0.01807 0.09547 0.0
C5 C 0.05066 0.10029 0.14911 0.0
O6 O 0.04839 0.08359 0.17109 0.0
O7 O 0.10808 0.01883 0.12254 0.0
C8 C 0.01621 0.0379 0.08361 0.0
O9 O 0.0124 0.06891 0.09212 0.0
C10 C 0.01049 0.00817 0.16002 0.0
O11 O -0.00721 0.01096 0.1387 0.0
O12 O 0.05821 0.08453 0.12838 0.0
C13 C 0.34088 0.90431 0.07859 0.0
O14 O 0.36023 0.92394 0.06474 0.0
O15 O 0.42558 0.89318 0.11517 0.0
Zn16 Zn 0.40185 0.87009 0.0856 0.0
O17 O 0.41787 0.88838 0.05138 0.0
C18 C 0.44338 0.81353 0.08795 0.0
O19 O 0.46517 0.8381 0.08702 0.0
O20 O 0.35303 0.87821 0.08924 0.0
C21 C 0.44416 0.90581 0.04993 0.0
O22 O 0.46145 0.9116 0.07113 0.0
C23 C 0.416 0.92017 0.12621 0.0
O24 O 0.38864 0.93476 0.11845 0.0
O25 O 0.41282 0.82079 0.0874 0.0
C26 C 0.61462 0.98329 0.3434 0.0
O27 O 0.59217 0.00636 0.33859 0.0
O28 O 0.54506 0.95479 0.30147 0.0
Zn29 Zn 0.5577 0.9439 0.3382 0.0
O30 O 0.53365 0.97264 0.36401 0.0
C31 C 0.51532 0.88805 0.33991 0.0
O32 O 0.49561 0.91161 0.33093 0.0
O33 O 0.60606 0.95243 0.34354 0.0
C34 C 0.54291 0.96846 0.3874 0.0
O35 O 0.56595 0.94606 0.39237 0.0
C36 C 0.52163 0.97443 0.2952 0.0
O37 O 0.50532 0.99046 0.31352 0.0
O38 O 0.54519 0.89559 0.34497 0.0
C39 C 0.8476 0.04908 0.38546 0.0
O40 O 0.87006 0.02555 0.38868 0.0
O41 O 0.92284 0.06589 0.34758 0.0
Zn42 Zn 0.90595 0.08654 0.38054 0.0
O43 O 0.92808 0.0618 0.40934 0.0
C44 C 0.95046 0.14081 0.38093 0.0
O45 O 0.97067 0.11493 0.38017 0.0
O46 O 0.85694 0.07945 0.38239 0.0
C47 C 0.92557 0.06958 0.43321 0.0
O48 O 0.90727 0.09545 0.44007 0.0
C49 C 0.90469 0.05884 0.32813 0.0
O50 O 0.87308 0.06618 0.32881 0.0
O51 O 0.91951 0.13534 0.38151 0.0
C52 C 0.86317 0.99825 0.85663 0.0
O53 O 0.88274 0.02172 0.86616 0.0
O54 O 0.9527 0.98007 0.83015 0.0
Zn55 Zn 0.92308 0.96118 0.85765 0.0
O56 O 0.9343 0.98099 0.89227 0.0
C57 C 0.96157 0.90317 0.86536 0.0
O58 O 0.98359 0.92701 0.86944 0.0
O59 O 0.87521 0.96972 0.85056 0.0
C60 C 0.92525 0.96472 0.9123 0.0
O61 O 0.90893 0.93627 0.90941 0.0
C62 C 0.94618 0.00326 0.81395 0.0
O63 O 0.91726 0.01818 0.81463 0.0
O64 O 0.9322 0.91151 0.85946 0.0
C65 C 0.61805 0.03014 0.85847 0.0
O66 O 0.5985 0.0041 0.86221 0.0
O67 O 0.53841 0.04255 0.81928 0.0
Zn68 Zn 0.55584 0.06122 0.85312 0.0
O69 O 0.53865 0.03566 0.88376 0.0
C70 C 0.50959 0.11457 0.85595 0.0
O71 O 0.48924 0.08879 0.85432 0.0
O72 O 0.60533 0.05884 0.85406 0.0
C73 C 0.51486 0.01476 0.88327 0.0
O74 O 0.49933 0.00881 0.86126 0.0
C75 C 0.55671 0.03058 0.80141 0.0
O76 O 0.58869 0.02845 0.80525 0.0
O77 O 0.54053 0.10916 0.856 0.0
C78 C 0.37922 0.0712 0.58355 0.0
O79 O 0.40374 0.04956 0.58247 0.0
O80 O 0.44856 0.08406 0.62223 0.0
Zn81 Zn 0.43448 0.11039 0.59094 0.0
O82 O 0.45758 0.09216 0.55961 0.0
C83 C 0.44906 0.17085 0.61934 0.0
O84 O 0.43896 0.15219 0.63889 0.0
O85 O 0.38582 0.10231 0.58683 0.0
C86 C 0.44667 0.09739 0.5368 0.0
O87 O 0.42019 0.11607 0.53367 0.0
C88 C 0.47551 0.06787 0.62386 0.0
O89 O 0.49598 0.06778 0.60404 0.0
O90 O 0.44752 0.15893 0.59637 0.0
C91 C 0.14922 0.98091 0.59869 0.0
O92 O 0.1242 0.00194 0.59908 0.0
O93 O 0.08605 0.95581 0.64786 0.0
Zn94 Zn 0.09731 0.93756 0.61251 0.0
O95 O 0.06717 0.95877 0.58656 0.0
C96 C 0.05883 0.87929 0.61616 0.0
O97 O 0.03724 0.90318 0.62111 0.0
O98 O 0.14408 0.94995 0.60376 0.0
C99 C 0.06527 0.94808 0.56333 0.0
O100 O 0.08369 0.9225 0.55603 0.0
C101 C 0.07048 0.98344 0.6505 0.0
O102 O 0.06226 0.00078 0.62973 0.0
O103 O 0.08869 0.88756 0.61186 0.0
C104 C 0.6212 0.48016 0.1132 0.0
O105 O 0.59882 0.45645 0.11633 0.0
O106 O 0.55071 0.5082 0.15328 0.0
Zn107 Zn 0.56392 0.51978 0.11694 0.0
O108 O 0.53902 0.49296 0.0904 0.0
C109 C 0.52267 0.57581 0.11027 0.0
O110 O 0.50089 0.55152 0.11326 0.0
O111 O 0.61212 0.5108 0.11272 0.0
C112 C 0.5464 0.49957 0.06695 0.0
O113 O 0.56974 0.52183 0.06226 0.0
C114 C 0.52507 0.49158 0.15948 0.0
O115 O 0.50571 0.47958 0.1411 0.0
O116 O 0.55324 0.5686 0.11108 0.0
C117 C 0.8612 0.42028 0.10691 0.0
O118 O 0.8829 0.44496 0.10614 0.0
O119 O 0.93683 0.41211 0.14013 0.0
Zn120 Zn 0.92088 0.38712 0.10868 0.0
O121 O 0.9383 0.41076 0.07729 0.0
C122 C 0.9413 0.32551 0.1322 0.0
O123 O 0.93146 0.34155 0.15321 0.0
O124 O 0.87154 0.39007 0.10817 0.0
C125 C 0.92425 0.40846 0.05525 0.0
O126 O 0.89851 0.38852 0.0525 0.0
C127 C 0.96705 0.42018 0.14237 0.0
O128 O 0.98772 0.41225 0.12364 0.0
O129 O 0.93794 0.3396 0.11015 0.0
C130 C 0.14305 0.46944 0.3639 0.0
O131 O 0.12041 0.49138 0.35696 0.0
O132 O 0.07346 0.44407 0.32631 0.0
Zn133 Zn 0.08635 0.4299 0.36228 0.0
O134 O 0.06227 0.45643 0.38939 0.0
C135 C 0.04327 0.37511 0.36806 0.0
O136 O 0.02263 0.40057 0.36656 0.0
O137 O 0.13463 0.43886 0.36729 0.0
C138 C 0.06889 0.44849 0.41275 0.0
O139 O 0.09044 0.4244 0.41713 0.0
C140 C 0.04708 0.45994 0.32105 0.0
O141 O 0.02708 0.46873 0.34001 0.0
O142 O 0.07412 0.38097 0.36673 0.0
C143 C 0.37563 0.54785 0.39282 0.0
O144 O 0.39656 0.52752 0.40441 0.0
O145 O 0.45574 0.56001 0.35009 0.0
Zn146 Zn 0.43571 0.5823 0.3815 0.0
O147 O 0.45551 0.56221 0.41353 0.0
C148 C 0.43296 0.65142 0.36408 0.0
O149 O 0.40993 0.63962 0.34847 0.0
O150 O 0.38655 0.5743 0.38177 0.0
C151 C 0.48073 0.57421 0.42499 0.0
O152 O 0.49523 0.60125 0.41562 0.0
C153 C 0.44176 0.5363 0.3375 0.0
O154 O 0.41283 0.52508 0.34514 0.0
O155 O 0.44664 0.63165 0.38022 0.0
C156 C 0.3327 0.45178 0.88086 0.0
O157 O 0.35885 0.47147 0.88054 0.0
O158 O 0.39779 0.42912 0.83551 0.0
Zn159 Zn 0.3831 0.40745 0.86886 0.0
O160 O 0.41093 0.42382 0.89845 0.0
C161 C 0.42116 0.35064 0.86286 0.0
O162 O 0.44247 0.37563 0.86153 0.0
O163 O 0.33628 0.42052 0.87607 0.0
C164 C 0.40669 0.41158 0.92101 0.0
O165 O 0.38364 0.38867 0.92458 0.0
C166 C 0.42007 0.45172 0.83469 0.0
O167 O 0.43372 0.46229 0.85644 0.0
O168 O 0.39074 0.35751 0.86591 0.0
C169 C 0.10902 0.55543 0.89827 0.0
O170 O 0.0831 0.53557 0.8963 0.0
O171 O 0.04536 0.58204 0.85518 0.0
Zn172 Zn 0.05779 0.60019 0.89032 0.0
O173 O 0.03014 0.57848 0.91792 0.0
C174 C 0.02102 0.65892 0.88418 0.0
O175 O -0.00099 0.63535 0.87923 0.0
O176 O 0.10486 0.58717 0.89696 0.0
C177 C 0.00656 0.55828 0.91293 0.0
O178 O -0.0017 0.5524 0.8886 0.0
C179 C 0.06662 0.58054 0.83705 0.0
O180 O 0.09684 0.59125 0.84148 0.0
O181 O 0.05022 0.65016 0.89023 0.0
C182 C 0.8805 0.57844 0.63588 0.0
O183 O 0.89388 0.59571 0.65506 0.0
O184 O 0.96483 0.56345 0.65094 0.0
Zn185 Zn 0.9469 0.57933 0.61686 0.0
O186 O 0.96793 0.55433 0.58747 0.0
C187 C 0.98671 0.63707 0.60816 0.0
O188 O 0.00834 0.6131 0.60367 0.0
O189 O 0.89832 0.56984 0.61665 0.0
C190 C 0.96067 0.56273 0.56434 0.0
O191 O 0.93944 0.58726 0.56051 0.0
C192 C -0.00584 0.55311 0.65442 0.0
O193 O 0.01445 0.55126 0.63453 0.0
O194 O 0.95717 0.62893 0.61379 0.0
C195 C 0.64882 0.49161 0.65159 0.0
O196 O 0.62573 0.51081 0.66173 0.0
O197 O 0.56669 0.47128 0.66709 0.0
Zn198 Zn 0.59231 0.45359 0.63652 0.0
O199 O 0.57634 0.47617 0.60391 0.0
C200 C 0.57292 0.3862 0.65226 0.0
O201 O 0.57152 0.39997 0.67552 0.0
O202 O 0.64056 0.46429 0.6403 0.0
C203 C 0.55602 0.46145 0.5888 0.0
O204 O 0.54493 0.43132 0.59487 0.0
C205 C 0.53534 0.47119 0.6662 0.0
O206 O 0.5205 0.46086 0.64487 0.0
O207 O 0.58344 0.40363 0.63325 0.0
H208 H 0.29296 0.8692 0.10493 0.0
H209 H 0.1668 0.02389 0.1051 0.0
H210 H 0.31085 0.96336 0.06519 0.0
H211 H 0.13898 0.92341 0.12904 0.0
H212 H 0.22133 0.00282 0.09333 0.0
H213 H 0.23756 0.88902 0.11628 0.0
C214 C 0.28519 0.89393 0.09846 0.0
C215 C 0.30658 0.91468 0.08412 0.0
C216 C 0.20331 0.98536 0.10114 0.0
C217 C 0.2435 0.93758 0.09725 0.0
C218 C 0.1722 0.9974 0.108 0.0
C219 C 0.14828 0.97535 0.11804 0.0
C220 C 0.2107 0.95105 0.10452 0.0
C221 C 0.15667 0.94127 0.1213 0.0
C222 C 0.25359 0.90522 0.10496 0.0
C223 C 0.29522 0.94649 0.07625 0.0
N224 N 0.18724 0.93015 0.11459 0.0
N225 N 0.26455 0.95703 0.08305 0.0
H226 H 0.64037 0.04706 0.34505 0.0
H227 H 0.82019 0.98622 0.38912 0.0
H228 H 0.66649 0.94269 0.3572 0.0
H229 H 0.79522 0.09023 0.374 0.0
H230 H 0.76318 0.97018 0.37983 0.0
H231 H 0.69637 0.06358 0.35726 0.0
C232 C 0.6579 0.02758 0.35022 0.0
C233 C 0.64875 0.99341 0.35003 0.0
C234 C 0.77012 0.99653 0.37865 0.0
C235 C 0.7129 0.01221 0.36418 0.0
C236 C 0.80266 0.00575 0.38403 0.0
C237 C 0.81254 0.03962 0.38221 0.0
C238 C 0.74723 0.02135 0.37136 0.0
C239 C 0.78872 0.06381 0.37559 0.0
C240 C 0.68987 0.03706 0.35725 0.0
C241 C 0.67249 0.96931 0.357 0.0
N242 N 0.7572 0.05417 0.37028 0.0
N243 N 0.70349 0.97919 0.36379 0.0
H244 H 0.82998 0.05775 0.86318 0.0
H245 H 0.65225 0.97086 0.85874 0.0
H246 H 0.81462 0.95216 0.84606 0.0
H247 H 0.66609 0.07886 0.85618 0.0
H248 H 0.71199 0.96351 0.85671 0.0
H249 H 0.77016 0.06612 0.86276 0.0
C250 C 0.81405 0.03637 0.85921 0.0
C251 C 0.82728 0.00418 0.85474 0.0
C252 C 0.70197 0.98882 0.85652 0.0
C253 C 0.75893 0.01353 0.85446 0.0
C254 C 0.66786 0.99306 0.85781 0.0
C255 C 0.65419 0.02554 0.85766 0.0
C256 C 0.7226 0.01727 0.85532 0.0
C257 C 0.67561 0.05336 0.85632 0.0
C258 C 0.77992 0.04118 0.85895 0.0
C259 C 0.80549 0.9774 0.84961 0.0
N260 N 0.70882 0.0486 0.85531 0.0
N261 N 0.77237 0.98264 0.8498 0.0
H262 H 0.20653 0.94455 0.59463 0.0
H263 H 0.32193 0.10814 0.58564 0.0
H264 H 0.16869 0.04625 0.5914 0.0
H265 H 0.35815 0.00601 0.57964 0.0
H266 H 0.26541 0.08616 0.58689 0.0
H267 H 0.2623 0.96672 0.58836 0.0
C268 C 0.20993 0.97152 0.5925 0.0
C269 C 0.18294 0.99359 0.59368 0.0
C270 C 0.28575 0.0686 0.58515 0.0
C271 C 0.24668 0.01916 0.5866 0.0
C272 C 0.318 0.08114 0.58444 0.0
C273 C 0.34479 0.05887 0.58269 0.0
C274 C 0.28033 0.03357 0.58425 0.0
C275 C 0.33826 0.02412 0.58112 0.0
C276 C 0.24177 0.98417 0.58889 0.0
C277 C 0.18879 0.0283 0.5907 0.0
N278 N 0.30673 0.01255 0.58209 0.0
N279 N 0.22004 0.04003 0.58745 0.0
H280 H 0.80906 0.37603 0.10973 0.0
H281 H 0.67359 0.52288 0.10644 0.0
H282 H 0.8322 0.48208 0.10323 0.0
H283 H 0.64912 0.41733 0.11454 0.0
H284 H 0.73185 0.50789 0.10366 0.0
H285 H 0.75022 0.39012 0.11 0.0
C286 C 0.80178 0.40224 0.10831 0.0
C287 C 0.82556 0.42793 0.10656 0.0
C288 C 0.71375 0.48797 0.106 0.0
C289 C 0.75844 0.4442 0.10685 0.0
C290 C 0.68046 0.49653 0.10759 0.0
C291 C 0.65646 0.47133 0.11083 0.0
C292 C 0.72318 0.45395 0.10768 0.0
C293 C 0.66681 0.43759 0.11212 0.0
C294 C 0.76821 0.41027 0.10847 0.0
C295 C 0.81475 0.46145 0.10471 0.0
N296 N 0.69943 0.42988 0.1106 0.0
N297 N 0.78201 0.4686 0.10495 0.0
H298 H 0.32531 0.58344 0.37008 0.0
H299 H 0.1947 0.43271 0.38343 0.0
H300 H 0.34627 0.4895 0.40912 0.0
H301 H 0.16952 0.53177 0.35488 0.0
H302 H 0.251 0.45247 0.39159 0.0
H303 H 0.26839 0.56462 0.36339 0.0
C304 C 0.3179 0.55896 0.37738 0.0
C305 C 0.3406 0.53799 0.39014 0.0
C306 C 0.23313 0.46989 0.38357 0.0
C307 C 0.27563 0.51618 0.38235 0.0
C308 C 0.20102 0.45858 0.37882 0.0
C309 C 0.17738 0.48062 0.36845 0.0
C310 C 0.2417 0.50341 0.37778 0.0
C311 C 0.18693 0.51391 0.36292 0.0
C312 C 0.28542 0.54821 0.37353 0.0
C313 C 0.32963 0.50651 0.39918 0.0
N314 N 0.21837 0.52427 0.36761 0.0
N315 N 0.29798 0.4965 0.39499 0.0
H316 H 0.16861 0.58848 0.89965 0.0
H317 H 0.27333 0.41866 0.88411 0.0
H318 H 0.12549 0.48874 0.89925 0.0
H319 H 0.31715 0.51785 0.88953 0.0
H320 H 0.21901 0.44377 0.89133 0.0
H321 H 0.22352 0.563 0.89793 0.0
C322 C 0.17069 0.56124 0.8994 0.0
C323 C 0.14244 0.54071 0.89942 0.0
C324 C 0.24054 0.46002 0.89106 0.0
C325 C 0.20509 0.51141 0.89728 0.0
C326 C 0.27154 0.44569 0.88689 0.0
C327 C 0.29977 0.46621 0.88607 0.0
C328 C 0.23776 0.49512 0.89431 0.0
C329 C 0.29603 0.50107 0.88991 0.0
C330 C 0.20203 0.5467 0.89839 0.0
C331 C 0.14659 0.50556 0.89912 0.0
N332 N 0.26557 0.51444 0.89373 0.0
N333 N 0.17731 0.49203 0.8979 0.0
H334 H 0.67596 0.54492 0.67799 0.0
H335 H 0.84885 0.53339 0.60404 0.0
H336 H 0.70044 0.46541 0.62377 0.0
H337 H 0.83371 0.59577 0.67202 0.0
H338 H 0.79284 0.51141 0.60875 0.0
H339 H 0.73239 0.56648 0.67438 0.0
C340 C 0.69324 0.53188 0.66544 0.0
C341 C 0.68346 0.50335 0.65112 0.0
C342 C 0.80177 0.52991 0.62264 0.0
C343 C 0.74789 0.52812 0.64669 0.0
C344 C 0.83369 0.54264 0.61988 0.0
C345 C 0.846 0.56647 0.63768 0.0
C346 C 0.78186 0.54128 0.64321 0.0
C347 C 0.82524 0.5774 0.65787 0.0
C348 C 0.72544 0.54421 0.66339 0.0
C349 C 0.70692 0.48744 0.6352 0.0
N350 N 0.79414 0.56476 0.66006 0.0
N351 N 0.73798 0.50019 0.63327 0.0
H352 H 0.9687 0.03916 0.3211 0.0
H353 H 0.94426 0.0022 0.16973 0.0
H354 H 0.87433 0.04311 0.28195 0.0
H355 H 0.03908 0.00567 0.20826 0.0
H356 H 0.91721 0.00675 0.21204 0.0
H357 H -0.00635 0.01739 0.28134 0.0
C358 C 0.95316 0.03529 0.30417 0.0
C359 C 0.91946 0.04346 0.30471 0.0
C360 C 0.94393 0.00606 0.21125 0.0
C361 C 0.94792 0.01851 0.2591 0.0
C362 C 0.95941 0.00334 0.1871 0.0
C363 C -0.006 0.00421 0.18543 0.0
C364 C 0.9632 0.00974 0.23383 0.0
C365 C 0.01234 0.0054 0.2086 0.0
C366 C 0.96743 0.02276 0.28148 0.0
C367 C 0.90049 0.03751 0.28229 0.0
N368 N -0.00329 0.00859 0.23182 0.0
N369 N 0.91506 0.02569 0.26029 0.0
H370 H 0.47759 0.90195 0.14251 0.0
H371 H 0.46625 0.00503 0.27545 0.0
H372 H 0.39737 0.96972 0.16051 0.0
H373 H 0.54981 0.94403 0.25299 0.0
H374 H 0.44308 0.99747 0.23181 0.0
H375 H 0.50664 0.92156 0.18125 0.0
C376 C 0.46615 0.92111 0.15456 0.0
C377 C 0.43483 0.93392 0.14846 0.0
C378 C 0.46669 0.98611 0.23636 0.0
C379 C 0.46794 0.95644 0.19298 0.0
C380 C 0.47997 0.99048 0.26125 0.0
C381 C 0.50976 0.9747 0.268 0.0
C382 C 0.4833 0.96572 0.2182 0.0
C383 C 0.52655 0.95628 0.24878 0.0
C384 C 0.48281 0.9324 0.17666 0.0
C385 C 0.42139 0.959 0.1646 0.0
N386 N 0.51289 0.95199 0.22488 0.0
N387 N 0.43787 0.96919 0.18632 0.0
H388 H 0.08844 0.95809 0.69783 0.0
H389 H 0.93725 0.04311 0.77084 0.0
H390 H 0.02536 0.03254 0.66211 0.0
H391 H 0.00826 0.97783 0.80802 0.0
H392 H 0.97296 0.04564 0.73249 0.0
H393 H 0.06337 0.97067 0.73984 0.0
C394 C 0.06952 0.97734 0.69888 0.0
C395 C 0.05859 0.99391 0.6764 0.0
C396 C 0.98092 0.03117 0.74921 0.0
C397 C 0.02951 0.00825 0.7244 0.0
C398 C 0.96055 0.02974 0.77111 0.0
C399 C 0.96948 0.00968 0.79244 0.0
C400 C 0.01025 0.01225 0.74868 0.0
C401 C 9e-05 0.99313 0.79183 0.0
C402 C 0.05524 0.98459 0.7229 0.0
C403 C 0.0343 0.01893 0.67894 0.0
N404 N 0.01913 0.99441 0.77016 0.0
N405 N 0.0202 0.025 0.70247 0.0
H406 H 0.43697 0.05957 0.66695 0.0
H407 H 0.58965 0.01179 0.75717 0.0
H408 H 0.53516 0.04051 0.63771 0.0
H409 H 0.49224 0.03569 0.78591 0.0
H410 H 0.56782 0.01144 0.71283 0.0
H411 H 0.45452 0.04043 0.7098 0.0
C412 C 0.46218 0.05105 0.66948 0.0
C413 C 0.48483 0.05223 0.64884 0.0
C414 C 0.55114 0.01631 0.72887 0.0
C415 C 0.50513 0.03044 0.69795 0.0
C416 C 0.56357 0.01646 0.75421 0.0
C417 C 0.54286 0.02446 0.77523 0.0
C418 C 0.51781 0.02431 0.72456 0.0
C419 C 0.50922 0.02992 0.77025 0.0
C420 C 0.47217 0.04007 0.69397 0.0
C421 C 0.517 0.04039 0.65316 0.0
N422 N 0.49784 0.0302 0.7454 0.0
N423 N 0.52634 0.03041 0.67736 0.0
H424 H 0.4676 0.46642 0.18021 0.0
H425 H 0.50373 0.54893 0.3189 0.0
H426 H 0.56023 0.51301 0.20174 0.0
H427 H 0.41425 0.49399 0.30118 0.0
H428 H 0.52658 0.53127 0.27719 0.0
H429 H 0.44938 0.47113 0.22549 0.0
C430 C 0.48426 0.47722 0.1945 0.0
C431 C 0.51527 0.48981 0.18711 0.0
C432 C 0.50205 0.52279 0.28248 0.0
C433 C 0.49455 0.49548 0.23879 0.0
C434 C 0.48896 0.53295 0.30629 0.0
C435 C 0.45689 0.52325 0.31338 0.0
C436 C 0.48283 0.50307 0.26547 0.0
C437 C 0.43901 0.50225 0.2964 0.0
C438 C 0.47383 0.47994 0.22033 0.0
C439 C 0.53592 0.50338 0.20646 0.0
N440 N 0.45209 0.49316 0.27306 0.0
N441 N 0.52504 0.50618 0.23133 0.0
H442 H 0.08539 0.45221 0.27775 0.0
H443 H 0.93046 0.4436 0.18328 0.0
H444 H 0.98622 0.47701 0.30186 0.0
H445 H 0.03111 0.43099 0.15737 0.0
H446 H 0.9509 0.46216 0.22566 0.0
H447 H 0.06682 0.4509 0.2326 0.0
C448 C 0.05976 0.45777 0.27351 0.0
C449 C 0.03718 0.46419 0.29361 0.0
C450 C 0.96854 0.45573 0.21062 0.0
C451 C 0.01568 0.4624 0.24197 0.0
C452 C 0.95689 0.44505 0.18642 0.0
C453 C 0.97914 0.43523 0.1669 0.0
C454 C 0.00269 0.45628 0.21542 0.0
C455 C 0.01308 0.43799 0.17195 0.0
C456 C 0.04917 0.45706 0.2477 0.0
C457 C 0.00439 0.47166 0.28697 0.0
N458 N 0.02382 0.44785 0.19584 0.0
N459 N -0.0055 0.47005 0.26172 0.0
H460 H 0.55767 0.49468 0.71322 0.0
H461 H 0.39368 0.44035 0.78645 0.0
H462 H 0.46901 0.46232 0.67351 0.0
H463 H 0.47599 0.48857 0.82509 0.0
H464 H 0.41896 0.45303 0.74451 0.0
H465 H 0.5266 0.49768 0.75388 0.0
C466 C 0.53157 0.4886 0.71299 0.0
C467 C 0.51601 0.47776 0.69002 0.0
C468 C 0.43133 0.46123 0.76214 0.0
C469 C 0.4804 0.48085 0.7365 0.0
C470 C 0.41693 0.45392 0.7861 0.0
C471 C 0.43299 0.46301 0.8093 0.0
C472 C 0.46222 0.47736 0.76136 0.0
C473 C 0.46288 0.48086 0.80768 0.0
C474 C 0.51384 0.49036 0.73621 0.0
C475 C 0.48209 0.4705 0.6908 0.0
N476 N 0.47678 0.48705 0.78411 0.0
N477 N 0.46552 0.47173 0.71375 0.0
H478 H 0.00577 0.55886 0.82098 0.0
H479 H 0.05818 0.54715 0.67128 0.0
H480 H 0.10535 0.57505 0.79357 0.0
H481 H 0.95734 0.54692 0.69857 0.0
H482 H 0.07718 0.5465 0.71654 0.0
H483 H 0.98909 0.54389 0.7768 0.0
C484 C 0.0242 0.55905 0.8057 0.0
C485 C 0.0569 0.56871 0.81088 0.0
C486 C 0.0509 0.54621 0.71257 0.0
C487 C 0.03795 0.55162 0.76026 0.0
C488 C 0.04005 0.54643 0.68676 0.0
C489 C 0.00614 0.54761 0.6812 0.0
C490 C 0.02764 0.54702 0.73284 0.0
C491 C 0.98373 0.54653 0.70199 0.0
C492 C 0.01465 0.55048 0.78047 0.0
C493 C 0.07978 0.56814 0.79038 0.0
N494 N -0.00512 0.5466 0.72689 0.0
N495 N 0.0698 0.56004 0.76589 0.0
H496 H 0.02877 0.1407 0.18882 0.0
H497 H 0.96787 0.28705 0.09309 0.0
H498 H 0.04556 0.14013 0.1058 0.0
H499 H 0.95372 0.28925 0.17639 0.0
H500 H -0.00246 0.23378 0.09751 0.0
H501 H 0.00341 0.19632 0.18494 0.0
C502 C 0.02748 0.15241 0.16981 0.0
C503 C 0.03917 0.13562 0.14759 0.0
C504 C 0.98796 0.24592 0.11483 0.0
C505 C 0.00979 0.19914 0.14296 0.0
C506 C 0.97089 0.27629 0.1123 0.0
C507 C 0.95819 0.29261 0.1344 0.0
C508 C 0.99235 0.23171 0.13962 0.0
C509 C 0.963 0.27753 0.15881 0.0
C510 C 0.01286 0.18413 0.1676 0.0
C511 C 0.03681 0.15206 0.12347 0.0
N512 N 0.97967 0.24793 0.16076 0.0
N513 N 0.02219 0.18279 0.12178 0.0
H514 H 0.40533 0.7564 0.09161 0.0
H515 H 0.56072 0.63251 0.10385 0.0
H516 H 0.50678 0.79011 0.08957 0.0
H517 H 0.45927 0.59903 0.10737 0.0
H518 H 0.54144 0.69032 0.09759 0.0
H519 H 0.42462 0.69834 0.09633 0.0
C520 C 0.43165 0.7516 0.0921 0.0
C521 C 0.45447 0.77816 0.09024 0.0
C522 C 0.5234 0.67032 0.09971 0.0
C523 C 0.47673 0.7118 0.09567 0.0
C524 C 0.5344 0.6373 0.10328 0.0
C525 C 0.51158 0.6109 0.10619 0.0
C526 C 0.48933 0.67699 0.09903 0.0
C527 C 0.47776 0.61859 0.10526 0.0
C528 C 0.44266 0.71844 0.09481 0.0
C529 C 0.48829 0.77044 0.09098 0.0
N530 N 0.46767 0.65092 0.10179 0.0
N531 N 0.49838 0.73798 0.09367 0.0
H532 H 0.48577 0.6811 0.3884 0.0
H533 H 0.45563 0.86237 0.32491 0.0
H534 H 0.40639 0.70219 0.33467 0.0
H535 H 0.54609 0.83494 0.36403 0.0
H536 H 0.43486 0.80521 0.33158 0.0
H537 H 0.50568 0.7389 0.38311 0.0
C538 C 0.47241 0.69792 0.37558 0.0
C539 C 0.44438 0.68676 0.3619 0.0
C540 C 0.45926 0.81167 0.33868 0.0
C541 C 0.4671 0.75295 0.35578 0.0
C542 C 0.47114 0.84433 0.33494 0.0
C543 C 0.50269 0.85344 0.3439 0.0
C544 C 0.47894 0.78794 0.35167 0.0
C545 C 0.52167 0.82898 0.35673 0.0
C546 C 0.48389 0.73088 0.3725 0.0
C547 C 0.42814 0.70967 0.34553 0.0
N548 N 0.50946 0.79734 0.36029 0.0
N549 N 0.43973 0.74169 0.34295 0.0
H550 H 0.07827 0.31591 0.37092 0.0
H551 H 0.91603 0.20036 0.38115 0.0
H552 H 0.97887 0.35517 0.37182 0.0
H553 H 0.01519 0.16052 0.37925 0.0
H554 H 0.93878 0.25744 0.37892 0.0
H555 H 0.05582 0.2588 0.37507 0.0
C556 C 0.05175 0.31254 0.37203 0.0
C557 C 0.03043 0.34037 0.37096 0.0
C558 C 0.95557 0.23621 0.37904 0.0
C559 C 0.00457 0.27514 0.37571 0.0
C560 C 0.94258 0.2036 0.38033 0.0
C561 C 0.96372 0.1756 0.38032 0.0
C562 C 0.98995 0.24088 0.37772 0.0
C563 C -0.00207 0.18135 0.37925 0.0
C564 C 0.03894 0.27994 0.37439 0.0
C565 C -0.00373 0.33449 0.37251 0.0
N566 N 0.00997 0.21332 0.37795 0.0
N567 N 0.98442 0.30256 0.37477 0.0
H568 H 0.96084 0.68526 0.87157 0.0
H569 H 0.02189 0.87722 0.87841 0.0
H570 H 0.06046 0.71453 0.89167 0.0
H571 H 0.92223 0.84744 0.85886 0.0
H572 H 0.03654 0.81787 0.88343 0.0
H573 H 0.94629 0.74461 0.86708 0.0
C574 C 0.97967 0.70417 0.87509 0.0
C575 C 0.01194 0.69489 0.88199 0.0
C576 C 0.01147 0.82431 0.87804 0.0
C577 C -0.00458 0.76302 0.87682 0.0
C578 C 0.00307 0.8582 0.87514 0.0
C579 C 0.97077 0.86731 0.86818 0.0
C580 C 0.9874 0.7993 0.87395 0.0
C581 C 0.94744 0.84158 0.86423 0.0
C582 C 0.97133 0.7381 0.8725 0.0
C583 C 0.03528 0.72054 0.88631 0.0
N584 N 0.95622 0.80875 0.86717 0.0
N585 N 0.02656 0.75345 0.88362 0.0
H586 H 0.38472 0.29201 0.8647 0.0
H587 H 0.54468 0.17363 0.85712 0.0
H588 H 0.48472 0.32909 0.85811 0.0
H589 H 0.44496 0.1348 0.8577 0.0
H590 H 0.52276 0.23086 0.8587 0.0
H591 H 0.40589 0.23414 0.86316 0.0
C592 C 0.41108 0.288 0.86289 0.0
C593 C 0.43298 0.31543 0.86153 0.0
C594 C 0.50564 0.20985 0.85848 0.0
C595 C 0.45732 0.24946 0.85985 0.0
C596 C 0.51816 0.17713 0.85761 0.0
C597 C 0.49663 0.14937 0.85725 0.0
C598 C 0.4713 0.21493 0.85905 0.0
C599 C 0.46248 0.15546 0.85792 0.0
C600 C 0.42314 0.25499 0.86202 0.0
C601 C 0.46689 0.30877 0.85922 0.0
N602 N 0.45086 0.1876 0.85879 0.0
N603 N 0.47798 0.27651 0.85849 0.0
H604 H 0.45848 0.20256 0.66618 0.0
H605 H 0.5663 0.35276 0.60577 0.0
H606 H 0.47829 0.2132 0.58402 0.0
H607 H 0.54384 0.34395 0.68765 0.0
H608 H 0.53573 0.30063 0.59763 0.0
H609 H 0.49004 0.25402 0.67448 0.0
C610 C 0.46926 0.21583 0.64984 0.0
C611 C 0.46573 0.20349 0.62435 0.0
C612 C 0.53762 0.31001 0.6174 0.0
C613 C 0.50223 0.26233 0.63377 0.0
C614 C 0.55523 0.33971 0.6221 0.0
C615 C 0.55762 0.35282 0.64745 0.0
C616 C 0.52222 0.29325 0.63819 0.0
C617 C 0.54266 0.33481 0.66779 0.0
C618 C 0.48741 0.24517 0.65462 0.0
C619 C 0.48033 0.22177 0.60398 0.0
N620 N 0.5255 0.30603 0.6627 0.0
N621 N 0.49802 0.25019 0.60915 0.0
H622 H -0.00305 0.85411 0.62474 0.0
H623 H 0.04815 0.6623 0.59764 0.0
H624 H 0.09597 0.82325 0.60475 0.0
H625 H 0.94949 0.69328 0.61861 0.0
H626 H 0.06588 0.72114 0.59929 0.0
H627 H 0.97906 0.79543 0.62205 0.0
C628 C 0.01498 0.83499 0.61981 0.0
C629 C 0.04805 0.84364 0.61498 0.0
C630 C 0.04034 0.7151 0.60348 0.0
C631 C 0.02763 0.77626 0.6118 0.0
C632 C 0.03015 0.68148 0.6025 0.0
C633 C -0.00274 0.67281 0.60803 0.0
C634 C 0.0175 0.74032 0.61005 0.0
C635 C 0.97508 0.69879 0.61421 0.0
C636 C 0.00471 0.80144 0.61825 0.0
C637 C 0.07025 0.81774 0.60866 0.0
N638 N 0.98563 0.73135 0.6151 0.0
N639 N 0.05963 0.78522 0.60725 0.0
H640 H 0.94507 0.02798 0.92655 0.0
H641 H 0.00722 0.97328 0.06623 0.0
H642 H 0.92714 0.92833 0.95731 0.0
H643 H 0.98643 0.07706 0.04688 0.0
H644 H 0.98134 0.95565 0.02533 0.0
H645 H 0.96384 0.04622 0.96962 0.0
C646 C 0.94497 0.01 0.94241 0.0
C647 C 0.93471 0.97658 0.93842 0.0
C648 C 0.98222 0.98224 0.03018 0.0
C649 C 0.95636 0.99713 0.98747 0.0
C650 C -0.0029 0.99232 0.05342 0.0
C651 C -0.0009 0.02668 0.05982 0.0
C652 C 0.96984 0.00675 0.01311 0.0
C653 C 0.98542 0.05031 0.04265 0.0
C654 C 0.95552 0.02045 0.96696 0.0
C655 C 0.93484 0.95434 0.95961 0.0
N656 N 0.97166 0.03992 0.0199 0.0
N657 N 0.94589 0.96492 0.98322 0.0
H658 H 0.54439 0.0193 0.93089 0.0
H659 H 0.41401 0.89945 0.00235 0.0
H660 H 0.46297 0.97117 0.89096 0.0
H661 H 0.49832 0.945 0.04028 0.0
H662 H 0.43146 0.92482 0.96125 0.0
H663 H 0.52772 0.99169 0.97102 0.0
C664 C 0.52297 0.00289 0.93054 0.0
C665 C 0.50498 0.9976 0.90752 0.0
C666 C 0.44616 0.92917 0.97856 0.0
C667 C 0.48572 0.96582 0.95357 0.0
C668 C 0.43623 0.9147 0.00203 0.0
C669 C 0.45472 0.92018 0.0248 0.0
C670 C 0.47473 0.94929 0.97789 0.0
C671 C 0.48328 0.94014 0.02324 0.0
C672 C 0.51348 0.98707 0.95351 0.0
C673 C 0.47752 0.97597 0.90828 0.0
N674 N 0.49235 0.95402 0.0002 0.0
N675 N 0.46866 0.9609 0.93098 0.0
H676 H 0.50081 0.0565 0.53715 0.0
H677 H 0.49361 0.01574 0.3846 0.0
H678 H 0.42837 0.09991 0.4854 0.0
H679 H 0.56022 0.96768 0.43869 0.0
H680 H 0.47099 0.04913 0.42054 0.0
H681 H 0.52487 0.02646 0.50043 0.0
C682 C 0.49003 0.05985 0.51802 0.0
C683 C 0.46243 0.08065 0.51435 0.0
C684 C 0.49057 0.03128 0.4245 0.0
C685 C 0.48985 0.04612 0.47216 0.0
C686 C 0.50347 0.01221 0.40401 0.0
C687 C 0.52876 0.98883 0.40869 0.0
C688 C 0.50315 0.02695 0.44976 0.0
C689 C 0.54066 0.98532 0.43419 0.0
C690 C 0.50377 0.0426 0.49705 0.0
C691 C 0.44959 0.08406 0.4891 0.0
N692 N 0.52775 0.00416 0.45374 0.0
N693 N 0.46336 0.06685 0.46894 0.0
H694 H 0.02313 0.00043 0.57287 0.0
H695 H 0.9639 0.01407 0.42491 0.0
H696 H 0.05632 0.93384 0.5116 0.0
H697 H 0.92963 0.08049 0.48592 0.0
H698 H -0.00374 0.98317 0.45684 0.0
H699 H 0.98723 0.02881 0.54174 0.0
C700 C 0.02283 0.99172 0.55286 0.0
C701 C 0.04287 0.9648 0.54477 0.0
C702 C 0.9816 0.00442 0.4633 0.0
C703 C 0.00181 0.99723 0.50906 0.0
C704 C 0.96309 0.02213 0.44506 0.0
C705 C 0.94414 0.05005 0.45275 0.0
C706 C 0.98127 0.01468 0.48945 0.0
C707 C 0.94397 0.05919 0.47914 0.0
C708 C 0.00229 0.00794 0.53511 0.0
C709 C 0.04136 0.95453 0.51866 0.0
N710 N 0.96239 0.0416 0.49656 0.0
N711 N 0.02125 0.97085 0.50171 0.0
H712 H 0.55495 0.51015 0.01492 0.0
H713 H 0.40303 0.39293 0.97228 0.0
H714 H 0.49513 0.45443 0.06959 0.0
H715 H 0.45846 0.45575 0.91933 0.0
H716 H 0.43833 0.41237 0.00798 0.0
H717 H 0.52189 0.48726 0.97935 0.0
C718 C 0.53494 0.49296 0.01945 0.0
C719 C 0.52769 0.4843 0.04527 0.0
C720 C 0.44275 0.42185 0.98853 0.0
C721 C 0.48962 0.45807 0.00461 0.0
C722 C 0.42262 0.41077 0.96815 0.0
C723 C 0.42775 0.42282 0.94282 0.0
C724 C 0.46821 0.44505 0.98348 0.0
C725 C 0.45353 0.44587 0.93858 0.0
C726 C 0.51602 0.47994 -0.00089 0.0
C727 C 0.50152 0.46184 0.04996 0.0
N728 N 0.47277 0.45623 0.9587 0.0
N729 N 0.48333 0.44957 0.0298 0.0
H730 H 0.90063 0.41054 0.00515 0.0
H731 H 0.02001 0.56272 0.96489 0.0
H732 H 0.97282 0.45621 0.05629 0.0
H733 H 0.95888 0.50917 0.90952 0.0
H734 H -0.00126 0.52685 -0.00058 0.0
H735 H 0.91835 0.44868 0.97038 0.0
C736 C 0.92025 0.42848 0.00904 0.0
C737 C 0.93532 0.43015 0.03363 0.0
C738 C 0.98986 0.52297 0.97974 0.0
C739 C 0.95541 0.47392 -0.00586 0.0
C740 C 0.00192 0.54355 0.96 0.0
C741 C 0.99138 0.53878 0.93423 0.0
C742 C 0.96706 0.49738 0.97374 0.0
C743 C 0.96777 0.51362 0.92911 0.0
C744 C 0.93029 0.45026 0.98922 0.0
C745 C 0.96054 0.45393 0.03763 0.0
N746 N 0.95649 0.49371 0.9487 0.0
N747 N 0.96973 0.47489 0.01811 0.0
H748 H 0.00603 0.51178 0.56569 0.0
H749 H 0.02286 0.49903 0.41074 0.0
H750 H 0.95117 0.57445 0.51235 0.0
H751 H 0.0776 0.43713 0.46469 0.0
H752 H -0.00394 0.52691 0.44757 0.0
H753 H 0.0322 0.48396 0.52873 0.0
C754 C -0.00055 0.51968 0.54619 0.0
C755 C 0.97638 0.54549 0.54209 0.0
C756 C 0.01394 0.50723 0.45133 0.0
C757 C 0.0063 0.51374 0.49965 0.0
C758 C 0.02925 0.49131 0.43033 0.0
C759 C 0.05251 0.46573 0.43467 0.0
C760 C 0.02195 0.49746 0.47683 0.0
C761 C 0.05983 0.45673 0.46043 0.0
C762 C 0.01442 0.50378 0.52508 0.0
C763 C 0.96883 0.55467 0.5164 0.0
N764 N 0.0446 0.47258 0.48053 0.0
N765 N 0.98378 0.53881 0.49613 0.0
H766 H 0.51058 0.43838 0.55368 0.0
H767 H 0.53123 0.59496 0.45694 0.0
H768 H 0.57664 0.52191 0.56867 0.0
H769 H 0.4582 0.51628 0.44745 0.0
H770 H 0.55024 0.56754 0.49688 0.0
H771 H 0.49296 0.46566 0.51356 0.0
C772 C 0.52139 0.46248 0.54854 0.0
C773 C 0.54508 0.47791 0.56456 0.0
C774 C 0.53006 0.55633 0.48602 0.0
C775 C 0.52506 0.50929 0.51859 0.0
C776 C 0.51925 0.57192 0.46322 0.0
C777 C 0.49307 0.55792 0.44888 0.0
C778 C 0.51463 0.5265 0.49443 0.0
C779 C 0.47843 0.52803 0.4579 0.0
C780 C 0.5113 0.47807 0.52562 0.0
C781 C 0.55824 0.50915 0.55691 0.0
N782 N 0.48942 0.51335 0.48008 0.0
N783 N 0.54806 0.52382 0.53442 0.0
loop_
_geom_bond_atom_site_label_1
_geom_bond_atom_site_label_2
_geom_bond_distance
_geom_bond_site_symmetry_2
_ccdc_geom_bond_type
C0 O1 1.160 . S
C0 O7 1.185 . S
O1 C0 1.160 . S
O2 Zn3 1.899 . S
O2 C10 1.284 . S
Zn3 O2 1.899 . S
Zn3 O4 2.032 . S
Zn3 O7 2.086 . S
Zn3 O12 1.977 . S
O4 Zn3 2.032 . S
O4 C8 1.278 . S
C5 O6 1.203 . S
C5 O12 1.267 . S
O6 C5 1.203 . S
O7 C0 1.185 . S
O7 Zn3 2.086 . S
C8 O4 1.278 . S
C8 O9 1.211 . S
O9 C8 1.211 . S
C10 O2 1.284 . S
C10 O11 1.273 . S
O11 C10 1.273 . S
O12 Zn3 1.977 . S
O12 C5 1.267 . S
C13 O14 1.160 . S
C13 O20 1.185 . S
O14 C13 1.160 . S
O15 Zn16 1.899 . S
O15 C23 1.284 . S
Zn16 O15 1.899 . S
Zn16 O17 2.032 . S
Zn16 O20 2.086 . S
Zn16 O25 1.977 . S
O17 Zn16 2.032 . S
O17 C21 1.278 . S
C18 O19 1.203 . S
C18 O25 1.267 . S
O19 C18 1.203 . S
O20 C13 1.185 . S
O20 Zn16 2.086 . S
C21 O17 1.278 . S
C21 O22 1.211 . S
O22 C21 1.211 . S
C23 O15 1.284 . S
C23 O24 1.273 . S
O24 C23 1.273 . S
O25 Zn16 1.977 . S
O25 C18 1.267 . S
C26 O27 1.160 . S
C26 O33 1.185 . S
O27 C26 1.160 . S
O28 Zn29 1.899 . S
O28 C36 1.284 . S
Zn29 O28 1.899 . S
Zn29 O30 2.032 . S
Zn29 O33 2.086 . S
Zn29 O38 1.977 . S
O30 Zn29 2.032 . S
O30 C34 1.278 . S
C31 O32 1.203 . S
C31 O38 1.267 . S
O32 C31 1.203 . S
O33 C26 1.185 . S
O33 Zn29 2.086 . S
C34 O30 1.278 . S
C34 O35 1.211 . S
O35 C34 1.211 . S
C36 O28 1.284 . S
C36 O37 1.273 . S
O37 C36 1.273 . S
O38 Zn29 1.977 . S
O38 C31 1.267 . S
C39 O40 1.160 . S
C39 O46 1.185 . S
O40 C39 1.160 . S
O41 Zn42 1.899 . S
O41 C49 1.284 . S
Zn42 O41 1.899 . S
Zn42 O43 2.032 . S
Zn42 O46 2.086 . S
Zn42 O51 1.977 . S
O43 Zn42 2.032 . S
O43 C47 1.278 . S
C44 O45 1.203 . S
C44 O51 1.267 . S
O45 C44 1.203 . S
O46 C39 1.185 . S
O46 Zn42 2.086 . S
C47 O43 1.278 . S
C47 O48 1.211 . S
O48 C47 1.211 . S
C49 O41 1.284 . S
C49 O50 1.273 . S
O50 C49 1.273 . S
O51 Zn42 1.977 . S
O51 C44 1.267 . S
C52 O53 1.160 . S
C52 O59 1.185 . S
O53 C52 1.160 . S
O54 Zn55 1.899 . S
O54 C62 1.284 . S
Zn55 O54 1.899 . S
Zn55 O56 2.032 . S
Zn55 O59 2.086 . S
Zn55 O64 1.977 . S
O56 Zn55 2.032 . S
O56 C60 1.278 . S
C57 O58 1.203 . S
C57 O64 1.267 . S
O58 C57 1.203 . S
O59 C52 1.185 . S
O59 Zn55 2.086 . S
C60 O56 1.278 . S
C60 O61 1.211 . S
O61 C60 1.211 . S
C62 O54 1.284 . S
C62 O63 1.273 . S
O63 C62 1.273 . S
O64 Zn55 1.977 . S
O64 C57 1.267 . S
C65 O66 1.160 . S
C65 O72 1.185 . S
O66 C65 1.160 . S
O67 Zn68 1.899 . S
O67 C75 1.284 . S
Zn68 O67 1.899 . S
Zn68 O69 2.032 . S
Zn68 O72 2.086 . S
Zn68 O77 1.977 . S
O69 Zn68 2.032 . S
O69 C73 1.278 . S
C70 O71 1.203 . S
C70 O77 1.267 . S
O71 C70 1.203 . S
O72 C65 1.185 . S
O72 Zn68 2.086 . S
C73 O69 1.278 . S
C73 O74 1.211 . S
O74 C73 1.211 . S
C75 O67 1.284 . S
C75 O76 1.273 . S
O76 C75 1.273 . S
O77 Zn68 1.977 . S
O77 C70 1.267 . S
C78 O79 1.160 . S
C78 O85 1.185 . S
O79 C78 1.160 . S
O80 Zn81 1.899 . S
O80 C88 1.284 . S
Zn81 O80 1.899 . S
Zn81 O82 2.032 . S
Zn81 O85 2.086 . S
Zn81 O90 1.977 . S
O82 Zn81 2.032 . S
O82 C86 1.278 . S
C83 O84 1.203 . S
C83 O90 1.267 . S
O84 C83 1.203 . S
O85 C78 1.185 . S
O85 Zn81 2.086 . S
C86 O82 1.278 . S
C86 O87 1.211 . S
O87 C86 1.211 . S
C88 O80 1.284 . S
C88 O89 1.273 . S
O89 C88 1.273 . S
O90 Zn81 1.977 . S
O90 C83 1.267 . S
C91 O92 1.160 . S
C91 O98 1.185 . S
O92 C91 1.160 . S
O93 Zn94 1.899 . S
O93 C101 1.284 . S
Zn94 O93 1.899 . S
Zn94 O95 2.032 . S
Zn94 O98 2.086 . S
Zn94 O103 1.977 . S
O95 Zn94 2.032 . S
O95 C99 1.278 . S
C96 O97 1.203 . S
C96 O103 1.267 . S
O97 C96 1.203 . S
O98 C91 1.185 . S
O98 Zn94 2.086 . S
C99 O95 1.278 . S
C99 O100 1.211 . S
O100 C99 1.211 . S
C101 O93 1.284 . S
C101 O102 1.273 . S
O102 C101 1.273 . S
O103 Zn94 1.977 . S
O103 C96 1.267 . S
C104 O105 1.160 . S
C104 O111 1.185 . S
O105 C104 1.160 . S
O106 Zn107 1.899 . S
O106 C114 1.284 . S
Zn107 O106 1.899 . S
Zn107 O108 2.032 . S
Zn107 O111 2.086 . S
Zn107 O116 1.977 . S
O108 Zn107 2.032 . S
O108 C112 1.278 . S
C109 O110 1.203 . S
C109 O116 1.267 . S
O110 C109 1.203 . S
O111 C104 1.185 . S
O111 Zn107 2.086 . S
C112 O108 1.278 . S
C112 O113 1.211 . S
O113 C112 1.211 . S
C114 O106 1.284 . S
C114 O115 1.273 . S
O115 C114 1.273 . S
O116 Zn107 1.977 . S
O116 C109 1.267 . S
C117 O118 1.160 . S
C117 O124 1.185 . S
O118 C117 1.160 . S
O119 Zn120 1.899 . S
O119 C127 1.284 . S
Zn120 O119 1.899 . S
Zn120 O121 2.032 . S
Zn120 O124 2.086 . S
Zn120 O129 1.977 . S
O121 Zn120 2.032 . S
O121 C125 1.278 . S
C122 O123 1.203 . S
C122 O129 1.267 . S
O123 C122 1.203 . S
O124 C117 1.185 . S
O124 Zn120 2.086 . S
C125 O121 1.278 . S
C125 O126 1.211 . S
O126 C125 1.211 . S
C127 O119 1.284 . S
C127 O128 1.273 . S
O128 C127 1.273 . S
O129 Zn120 1.977 . S
O129 C122 1.267 . S
C130 O131 1.160 . S
C130 O137 1.185 . S
O131 C130 1.160 . S
O132 Zn133 1.899 . S
O132 C140 1.284 . S
Zn133 O132 1.899 . S
Zn133 O134 2.032 . S
Zn133 O137 2.086 . S
Zn133 O142 1.977 . S
O134 Zn133 2.032 . S
O134 C138 1.278 . S
C135 O136 1.203 . S
C135 O142 1.267 . S
O136 C135 1.203 . S
O137 C130 1.185 . S
O137 Zn133 2.086 . S
C138 O134 1.278 . S
C138 O139 1.211 . S
O139 C138 1.211 . S
C140 O132 1.284 . S
C140 O141 1.273 . S
O141 C140 1.273 . S
O142 Zn133 1.977 . S
O142 C135 1.267 . S
C143 O144 1.160 . S
C143 O150 1.185 . S
O144 C143 1.160 . S
O145 Zn146 1.899 . S
O145 C153 1.284 . S
Zn146 O145 1.899 . S
Zn146 O147 2.032 . S
Zn146 O150 2.086 . S
Zn146 O155 1.977 . S
O147 Zn146 2.032 . S
O147 C151 1.278 . S
C148 O149 1.203 . S
C148 O155 1.267 . S
O149 C148 1.203 . S
O150 C143 1.185 . S
O150 Zn146 2.086 . S
C151 O147 1.278 . S
C151 O152 1.211 . S
O152 C151 1.211 . S
C153 O145 1.284 . S
C153 O154 1.273 . S
O154 C153 1.273 . S
O155 Zn146 1.977 . S
O155 C148 1.267 . S
C156 O157 1.160 . S
C156 O163 1.185 . S
O157 C156 1.160 . S
O158 Zn159 1.899 . S
O158 C166 1.284 . S
Zn159 O158 1.899 . S
Zn159 O160 2.032 . S
Zn159 O163 2.086 . S
Zn159 O168 1.977 . S
O160 Zn159 2.032 . S
O160 C164 1.278 . S
C161 O162 1.203 . S
C161 O168 1.267 . S
O162 C161 1.203 . S
O163 C156 1.185 . S
O163 Zn159 2.086 . S
C164 O160 1.278 . S
C164 O165 1.211 . S
O165 C164 1.211 . S
C166 O158 1.284 . S
C166 O167 1.273 . S
O167 C166 1.273 . S
O168 Zn159 1.977 . S
O168 C161 1.267 . S
C169 O170 1.160 . S
C169 O176 1.185 . S
O170 C169 1.160 . S
O171 Zn172 1.899 . S
O171 C179 1.284 . S
Zn172 O171 1.899 . S
Zn172 O173 2.032 . S
Zn172 O176 2.086 . S
Zn172 O181 1.977 . S
O173 Zn172 2.032 . S
O173 C177 1.278 . S
C174 O175 1.203 . S
C174 O181 1.267 . S
O175 C174 1.203 . S
O176 C169 1.185 . S
O176 Zn172 2.086 . S
C177 O173 1.278 . S
C177 O178 1.211 . S
O178 C177 1.211 . S
C179 O171 1.284 . S
C179 O180 1.273 . S
O180 C179 1.273 . S
O181 Zn172 1.977 . S
O181 C174 1.267 . S
C182 O183 1.160 . S
C182 O189 1.185 . S
O183 C182 1.160 . S
O184 Zn185 1.899 . S
O184 C192 1.284 . S
Zn185 O184 1.899 . S
Zn185 O186 2.032 . S
Zn185 O189 2.086 . S
Zn185 O194 1.977 . S
O186 Zn185 2.032 . S
O186 C190 1.278 . S
C187 O188 1.203 . S
C187 O194 1.267 . S
O188 C187 1.203 . S
O189 C182 1.185 . S
O189 Zn185 2.086 . S
C190 O186 1.278 . S
C190 O191 1.211 . S
O191 C190 1.211 . S
C192 O184 1.284 . S
C192 O193 1.273 . S
O193 C192 1.273 . S
O194 Zn185 1.977 . S
O194 C187 1.267 . S
C195 O196 1.160 . S
C195 O202 1.185 . S
O196 C195 1.160 . S
O197 Zn198 1.899 . S
O197 C205 1.284 . S
Zn198 O197 1.899 . S
Zn198 O199 2.032 . S
Zn198 O202 2.086 . S
Zn198 O207 1.977 . S
O199 Zn198 2.032 . S
O199 C203 1.278 . S
C200 O201 1.203 . S
C200 O207 1.267 . S
O201 C200 1.203 . S
O202 C195 1.185 . S
O202 Zn198 2.086 . S
C203 O199 1.278 . S
C203 O204 1.211 . S
O204 C203 1.211 . S
C205 O197 1.284 . S
C205 O206 1.273 . S
O206 C205 1.273 . S
O207 Zn198 1.977 . S
O207 C200 1.267 . S
H208 C214 0.930 . S
H209 C218 0.930 . S
H210 C223 0.929 1_545 S
H211 C221 0.929 1_565 S
H212 C216 0.929 . S
H213 C222 0.929 . S
C214 H208 0.930 . S
C214 C215 1.367 . S
C214 C222 1.378 . S
C215 C214 1.367 . S
C215 C223 1.433 . S
C216 H212 0.929 . S
C216 C218 1.378 . S
C216 C220 1.350 . S
C217 C220 1.463 1_565 S
C217 C222 1.350 . S
C217 N225 1.427 1_565 S
C218 H209 0.930 . S
C218 C216 1.378 . S
C218 C219 1.367 . S
C219 C218 1.367 . S
C219 C221 1.433 . S
C220 C216 1.350 . S
C220 C217 1.463 1_545 S
C220 N224 1.427 1_545 S
C221 H211 0.929 1_545 S
C221 C219 1.433 . S
C221 N224 1.384 1_545 S
C222 H213 0.929 . S
C222 C214 1.378 . S
C222 C217 1.350 . S
C223 H210 0.929 1_565 S
C223 C215 1.433 . S
C223 N225 1.384 1_565 S
N224 C220 1.427 1_565 S
N224 C221 1.384 1_565 S
N225 C217 1.427 1_545 S
N225 C223 1.384 1_545 S
H226 C232 0.930 . S
H227 C236 0.930 . S
H228 C241 0.929 . S
H229 C239 0.929 . S
H230 C234 0.929 . S
H231 C240 0.929 . S
C232 H226 0.930 . S
C232 C233 1.367 1_545 S
C232 C240 1.378 . S
C233 C232 1.367 1_565 S
C233 C241 1.433 . S
C234 H230 0.929 . S
C234 C236 1.378 . S
C234 C238 1.350 1_565 S
C235 C238 1.463 1_565 S
C235 C240 1.350 1_565 S
C235 N243 1.427 . S
C236 H227 0.930 . S
C236 C234 1.378 . S
C236 C237 1.367 1_565 S
C237 C236 1.367 1_545 S
C237 C239 1.433 . S
C238 C234 1.350 1_545 S
C238 C235 1.463 1_545 S
C238 N242 1.427 . S
C239 H229 0.929 . S
C239 C237 1.433 . S
C239 N242 1.384 . S
C240 H231 0.929 . S
C240 C232 1.378 . S
C240 C235 1.350 1_545 S
C241 H228 0.929 . S
C241 C233 1.433 . S
C241 N243 1.384 . S
N242 C238 1.427 . S
N242 C239 1.384 . S
N243 C235 1.427 . S
N243 C241 1.384 . S
H244 C250 0.930 1_545 S
H245 C254 0.930 1_565 S
H246 C259 0.929 . S
H247 C257 0.929 . S
H248 C252 0.929 . S
H249 C258 0.929 . S
C250 H244 0.930 1_565 S
C250 C251 1.367 . S
C250 C258 1.378 1_565 S
C251 C250 1.367 . S
C251 C259 1.433 . S
C252 H248 0.929 . S
C252 C254 1.378 1_565 S
C252 C256 1.350 1_565 S
C253 C256 1.463 1_565 S
C253 C258 1.350 1_565 S
C253 N261 1.427 . S
C254 H245 0.930 1_545 S
C254 C252 1.378 1_545 S
C254 C255 1.367 . S
C255 C254 1.367 . S
C255 C257 1.433 . S
C256 C252 1.350 1_545 S
C256 C253 1.463 1_545 S
C256 N260 1.427 . S
C257 H247 0.929 . S
C257 C255 1.433 . S
C257 N260 1.384 . S
C258 H249 0.929 . S
C258 C250 1.378 1_545 S
C258 C253 1.350 1_545 S
C259 H246 0.929 . S
C259 C251 1.433 . S
C259 N261 1.384 . S
N260 C256 1.427 . S
N260 C257 1.384 . S
N261 C253 1.427 . S
N261 C259 1.384 . S
H262 C268 0.930 . S
H263 C272 0.930 . S
H264 C277 0.929 1_545 S
H265 C275 0.929 1_565 S
H266 C270 0.929 . S
H267 C276 0.929 . S
C268 H262 0.930 . S
C268 C269 1.367 . S
C268 C276 1.378 . S
C269 C268 1.367 . S
C269 C277 1.433 . S
C270 H266 0.929 . S
C270 C272 1.378 . S
C270 C274 1.350 . S
C271 C274 1.463 1_565 S
C271 C276 1.350 . S
C271 N279 1.427 1_565 S
C272 H263 0.930 . S
C272 C270 1.378 . S
C272 C273 1.367 . S
C273 C272 1.367 . S
C273 C275 1.433 . S
C274 C270 1.350 . S
C274 C271 1.463 1_545 S
C274 N278 1.427 1_545 S
C275 H265 0.929 1_545 S
C275 C273 1.433 . S
C275 N278 1.384 1_545 S
C276 H267 0.929 . S
C276 C268 1.378 . S
C276 C271 1.350 . S
C277 H264 0.929 1_565 S
C277 C269 1.433 . S
C277 N279 1.384 1_565 S
N278 C274 1.427 1_565 S
N278 C275 1.384 1_565 S
N279 C271 1.427 1_545 S
N279 C277 1.384 1_545 S
H280 C286 0.930 . S
H281 C290 0.930 . S
H282 C295 0.929 . S
H283 C293 0.929 . S
H284 C288 0.929 . S
H285 C294 0.929 . S
C286 H280 0.930 . S
C286 C287 1.367 . S
C286 C294 1.378 . S
C287 C286 1.367 . S
C287 C295 1.433 . S
C288 H284 0.929 . S
C288 C290 1.378 . S
C288 C292 1.350 . S
C289 C292 1.463 . S
C289 C294 1.350 . S
C289 N297 1.427 . S
C290 H281 0.930 . S
C290 C288 1.378 . S
C290 C291 1.367 . S
C291 C290 1.367 . S
C291 C293 1.433 . S
C292 C288 1.350 . S
C292 C289 1.463 . S
C292 N296 1.427 . S
C293 H283 0.929 . S
C293 C291 1.433 . S
C293 N296 1.384 . S
C294 H285 0.929 . S
C294 C286 1.378 . S
C294 C289 1.350 . S
C295 H282 0.929 . S
C295 C287 1.433 . S
C295 N297 1.384 . S
N296 C292 1.427 . S
N296 C293 1.384 . S
N297 C289 1.427 . S
N297 C295 1.384 . S
H298 C304 0.930 . S
H299 C308 0.930 . S
H300 C313 0.929 . S
H301 C311 0.929 . S
H302 C306 0.929 . S
H303 C312 0.929 . S
C304 H298 0.930 . S
C304 C305 1.367 . S
C304 C312 1.378 . S
C305 C304 1.367 . S
C305 C313 1.433 . S
C306 H302 0.929 . S
C306 C308 1.378 . S
C306 C310 1.350 . S
C307 C310 1.463 . S
C307 C312 1.350 . S
C307 N315 1.427 . S
C308 H299 0.930 . S
C308 C306 1.378 . S
C308 C309 1.367 . S
C309 C308 1.367 . S
C309 C311 1.433 . S
C310 C306 1.350 . S
C310 C307 1.463 . S
C310 N314 1.427 . S
C311 H301 0.929 . S
C311 C309 1.433 . S
C311 N314 1.384 . S
C312 H303 0.929 . S
C312 C304 1.378 . S
C312 C307 1.350 . S
C313 H300 0.929 . S
C313 C305 1.433 . S
C313 N315 1.384 . S
N314 C310 1.427 . S
N314 C311 1.384 . S
N315 C307 1.427 . S
N315 C313 1.384 . S
H316 C322 0.930 . S
H317 C326 0.930 . S
H318 C331 0.929 . S
H319 C329 0.929 . S
H320 C324 0.929 . S
H321 C330 0.929 . S
C322 H316 0.930 . S
C322 C323 1.367 . S
C322 C330 1.378 . S
C323 C322 1.367 . S
C323 C331 1.433 . S
C324 H320 0.929 . S
C324 C326 1.378 . S
C324 C328 1.350 . S
C325 C328 1.463 . S
C325 C330 1.350 . S
C325 N333 1.427 . S
C326 H317 0.930 . S
C326 C324 1.378 . S
C326 C327 1.367 . S
C327 C326 1.367 . S
C327 C329 1.433 . S
C328 C324 1.350 . S
C328 C325 1.463 . S
C328 N332 1.427 . S
C329 H319 0.929 . S
C329 C327 1.433 . S
C329 N332 1.384 . S
C330 H321 0.929 . S
C330 C322 1.378 . S
C330 C325 1.350 . S
C331 H318 0.929 . S
C331 C323 1.433 . S
C331 N333 1.384 . S
N332 C328 1.427 . S
N332 C329 1.384 . S
N333 C325 1.427 . S
N333 C331 1.384 . S
H334 C340 0.930 . S
H335 C344 0.930 . S
H336 C349 0.929 . S
H337 C347 0.929 . S
H338 C342 0.929 . S
H339 C348 0.929 . S
C340 H334 0.930 . S
C340 C341 1.367 . S
C340 C348 1.378 . S
C341 C340 1.367 . S
C341 C349 1.433 . S
C342 H338 0.929 . S
C342 C344 1.378 . S
C342 C346 1.350 . S
C343 C346 1.463 . S
C343 C348 1.350 . S
C343 N351 1.427 . S
C344 H335 0.930 . S
C344 C342 1.378 . S
C344 C345 1.367 . S
C345 C344 1.367 . S
C345 C347 1.433 . S
C346 C342 1.350 . S
C346 C343 1.463 . S
C346 N350 1.427 . S
C347 H337 0.929 . S
C347 C345 1.433 . S
C347 N350 1.384 . S
C348 H339 0.929 . S
C348 C340 1.378 . S
C348 C343 1.350 . S
C349 H336 0.929 . S
C349 C341 1.433 . S
C349 N351 1.384 . S
N350 C346 1.427 . S
N350 C347 1.384 . S
N351 C343 1.427 . S
N351 C349 1.384 . S
H352 C358 0.930 . S
H353 C362 0.930 1_565 S
H354 C367 0.929 1_565 S
H355 C365 0.929 . S
H356 C360 0.929 1_565 S
H357 C366 0.929 . S
C358 H352 0.930 . S
C358 C359 1.367 . S
C358 C366 1.378 . S
C359 C358 1.367 . S
C359 C367 1.433 . S
C360 H356 0.929 1_545 S
C360 C362 1.378 . S
C360 C364 1.350 . S
C361 C364 1.463 1_655 S
C361 C366 1.350 . S
C361 N369 1.427 . S
C362 H353 0.930 1_545 S
C362 C360 1.378 . S
C362 C363 1.367 . S
C363 C362 1.367 . S
C363 C365 1.433 . S
C364 C360 1.350 . S
C364 C361 1.463 1_455 S
C364 N368 1.427 . S
C365 H355 0.929 . S
C365 C363 1.433 . S
C365 N368 1.384 . S
C366 H357 0.929 . S
C366 C358 1.378 . S
C366 C361 1.350 . S
C367 H354 0.929 1_545 S
C367 C359 1.433 . S
C367 N369 1.384 . S
N368 C364 1.427 . S
N368 C365 1.384 . S
N369 C361 1.427 . S
N369 C367 1.384 . S
H370 C376 0.930 . S
H371 C380 0.930 . S
H372 C385 0.929 . S
H373 C383 0.929 . S
H374 C378 0.929 . S
H375 C384 0.929 . S
C376 H370 0.930 . S
C376 C377 1.367 . S
C376 C384 1.378 . S
C377 C376 1.367 . S
C377 C385 1.433 . S
C378 H374 0.929 . S
C378 C380 1.378 . S
C378 C382 1.350 . S
C379 C382 1.463 . S
C379 C384 1.350 . S
C379 N387 1.427 . S
C380 H371 0.930 . S
C380 C378 1.378 . S
C380 C381 1.367 . S
C381 C380 1.367 . S
C381 C383 1.433 . S
C382 C378 1.350 . S
C382 C379 1.463 . S
C382 N386 1.427 . S
C383 H373 0.929 . S
C383 C381 1.433 . S
C383 N386 1.384 . S
C384 H375 0.929 . S
C384 C376 1.378 . S
C384 C379 1.350 . S
C385 H372 0.929 . S
C385 C377 1.433 . S
C385 N387 1.384 . S
N386 C382 1.427 . S
N386 C383 1.384 . S
N387 C379 1.427 . S
N387 C385 1.384 . S
H388 C394 0.930 . S
H389 C398 0.930 . S
H390 C403 0.928 1_655 S
H391 C401 0.928 1_455 S
H392 C396 0.929 . S
H393 C402 0.929 . S
C394 H388 0.930 . S
C394 C395 1.367 . S
C394 C402 1.378 . S
C395 C394 1.367 . S
C395 C403 1.434 . S
C396 H392 0.929 . S
C396 C398 1.378 . S
C396 C400 1.350 . S
C397 C400 1.463 1_455 S
C397 C402 1.350 . S
C397 N405 1.427 1_455 S
C398 H389 0.930 . S
C398 C396 1.378 . S
C398 C399 1.367 . S
C399 C398 1.367 . S
C399 C401 1.434 . S
C400 C396 1.350 . S
C400 C397 1.463 1_655 S
C400 N404 1.427 1_655 S
C401 H391 0.928 1_655 S
C401 C399 1.434 . S
C401 N404 1.383 1_655 S
C402 H393 0.929 . S
C402 C394 1.378 . S
C402 C397 1.350 . S
C403 H390 0.928 1_455 S
C403 C395 1.434 . S
C403 N405 1.383 1_455 S
N404 C400 1.427 1_455 S
N404 C401 1.383 1_455 S
N405 C397 1.427 1_655 S
N405 C403 1.383 1_655 S
H406 C412 0.930 . S
H407 C416 0.930 1_565 S
H408 C421 0.929 1_565 S
H409 C419 0.929 . S
H410 C414 0.929 1_565 S
H411 C420 0.929 . S
C412 H406 0.930 . S
C412 C413 1.367 . S
C412 C420 1.378 . S
C413 C412 1.367 . S
C413 C421 1.433 . S
C414 H410 0.929 1_545 S
C414 C416 1.378 . S
C414 C418 1.350 . S
C415 C418 1.463 . S
C415 C420 1.350 . S
C415 N423 1.427 . S
C416 H407 0.930 1_545 S
C416 C414 1.378 . S
C416 C417 1.367 . S
C417 C416 1.367 . S
C417 C419 1.433 . S
C418 C414 1.350 . S
C418 C415 1.463 . S
C418 N422 1.427 . S
C419 H409 0.929 . S
C419 C417 1.433 . S
C419 N422 1.384 . S
C420 H411 0.929 . S
C420 C412 1.378 . S
C420 C415 1.350 . S
C421 H408 0.929 1_545 S
C421 C413 1.433 . S
C421 N423 1.384 . S
N422 C418 1.427 . S
N422 C419 1.384 . S
N423 C415 1.427 . S
N423 C421 1.384 . S
H424 C430 0.930 . S
H425 C434 0.930 . S
H426 C439 0.929 . S
H427 C437 0.929 . S
H428 C432 0.929 . S
H429 C438 0.929 . S
C430 H424 0.930 . S
C430 C431 1.367 . S
C430 C438 1.378 . S
C431 C430 1.367 . S
C431 C439 1.433 . S
C432 H428 0.929 . S
C432 C434 1.378 . S
C432 C436 1.350 . S
C433 C436 1.463 . S
C433 C438 1.350 . S
C433 N441 1.427 . S
C434 H425 0.930 . S
C434 C432 1.378 . S
C434 C435 1.367 . S
C435 C434 1.367 . S
C435 C437 1.433 . S
C436 C432 1.350 . S
C436 C433 1.463 . S
C436 N440 1.427 . S
C437 H427 0.929 . S
C437 C435 1.433 . S
C437 N440 1.384 . S
C438 H429 0.929 . S
C438 C430 1.378 . S
C438 C433 1.350 . S
C439 H426 0.929 . S
C439 C431 1.433 . S
C439 N441 1.384 . S
N440 C436 1.427 . S
N440 C437 1.384 . S
N441 C433 1.427 . S
N441 C439 1.384 . S
H442 C448 0.930 . S
H443 C452 0.930 . S
H444 C457 0.929 . S
H445 C455 0.929 . S
H446 C450 0.929 . S
H447 C456 0.929 . S
C448 H442 0.930 . S
C448 C449 1.367 . S
C448 C456 1.378 . S
C449 C448 1.367 . S
C449 C457 1.433 1_455 S
C450 H446 0.929 . S
C450 C452 1.378 . S
C450 C454 1.350 . S
C451 C454 1.463 1_455 S
C451 C456 1.350 . S
C451 N459 1.427 1_455 S
C452 H443 0.930 . S
C452 C450 1.378 . S
C452 C453 1.367 . S
C453 C452 1.367 . S
C453 C455 1.433 1_655 S
C454 C450 1.350 . S
C454 C451 1.463 1_655 S
C454 N458 1.427 1_655 S
C455 H445 0.929 . S
C455 C453 1.433 1_455 S
C455 N458 1.384 . S
C456 H447 0.929 . S
C456 C448 1.378 . S
C456 C451 1.350 . S
C457 H444 0.929 . S
C457 C449 1.433 1_655 S
C457 N459 1.384 . S
N458 C454 1.427 1_455 S
N458 C455 1.384 . S
N459 C451 1.427 1_655 S
N459 C457 1.384 . S
H460 C466 0.930 . S
H461 C470 0.930 . S
H462 C475 0.929 . S
H463 C473 0.929 . S
H464 C468 0.929 . S
H465 C474 0.929 . S
C466 H460 0.930 . S
C466 C467 1.367 . S
C466 C474 1.378 . S
C467 C466 1.367 . S
C467 C475 1.433 . S
C468 H464 0.929 . S
C468 C470 1.378 . S
C468 C472 1.350 . S
C469 C472 1.463 . S
C469 C474 1.350 . S
C469 N477 1.427 . S
C470 H461 0.930 . S
C470 C468 1.378 . S
C470 C471 1.367 . S
C471 C470 1.367 . S
C471 C473 1.433 . S
C472 C468 1.350 . S
C472 C469 1.463 . S
C472 N476 1.427 . S
C473 H463 0.929 . S
C473 C471 1.433 . S
C473 N476 1.384 . S
C474 H465 0.929 . S
C474 C466 1.378 . S
C474 C469 1.350 . S
C475 H462 0.929 . S
C475 C467 1.433 . S
C475 N477 1.384 . S
N476 C472 1.427 . S
N476 C473 1.384 . S
N477 C469 1.427 . S
N477 C475 1.384 . S
H478 C484 0.930 . S
H479 C488 0.930 . S
H480 C493 0.929 . S
H481 C491 0.929 . S
H482 C486 0.929 . S
H483 C492 0.929 . S
C484 H478 0.930 . S
C484 C485 1.367 . S
C484 C492 1.378 . S
C485 C484 1.367 . S
C485 C493 1.433 . S
C486 H482 0.929 . S
C486 C488 1.378 . S
C486 C490 1.350 . S
C487 C490 1.463 1_455 S
C487 C492 1.350 . S
C487 N495 1.427 . S
C488 H479 0.930 . S
C488 C486 1.378 . S
C488 C489 1.367 . S
C489 C488 1.367 . S
C489 C491 1.433 . S
C490 C486 1.350 . S
C490 C487 1.463 1_655 S
C490 N494 1.427 . S
C491 H481 0.929 . S
C491 C489 1.433 . S
C491 N494 1.384 . S
C492 H483 0.929 . S
C492 C484 1.378 . S
C492 C487 1.350 . S
C493 H480 0.929 . S
C493 C485 1.433 . S
C493 N495 1.384 . S
N494 C490 1.427 . S
N494 C491 1.384 . S
N495 C487 1.427 . S
N495 C493 1.384 . S
H496 C502 0.930 . S
H497 C506 0.930 . S
H498 C511 0.929 . S
H499 C509 0.929 . S
H500 C504 0.929 . S
H501 C510 0.929 . S
C502 H496 0.930 . S
C502 C503 1.367 . S
C502 C510 1.378 . S
C503 C502 1.367 . S
C503 C511 1.433 . S
C504 H500 0.929 . S
C504 C506 1.378 . S
C504 C508 1.350 . S
C505 C508 1.463 1_455 S
C505 C510 1.350 . S
C505 N513 1.427 . S
C506 H497 0.930 . S
C506 C504 1.378 . S
C506 C507 1.367 . S
C507 C506 1.367 . S
C507 C509 1.433 . S
C508 C504 1.350 . S
C508 C505 1.463 1_655 S
C508 N512 1.427 . S
C509 H499 0.929 . S
C509 C507 1.433 . S
C509 N512 1.384 . S
C510 H501 0.929 . S
C510 C502 1.378 . S
C510 C505 1.350 . S
C511 H498 0.929 . S
C511 C503 1.433 . S
C511 N513 1.384 . S
N512 C508 1.427 . S
N512 C509 1.384 . S
N513 C505 1.427 . S
N513 C511 1.384 . S
H514 C520 0.930 . S
H515 C524 0.930 . S
H516 C529 0.929 . S
H517 C527 0.929 . S
H518 C522 0.929 . S
H519 C528 0.929 . S
C520 H514 0.930 . S
C520 C521 1.367 . S
C520 C528 1.378 . S
C521 C520 1.367 . S
C521 C529 1.433 . S
C522 H518 0.929 . S
C522 C524 1.378 . S
C522 C526 1.350 . S
C523 C526 1.463 . S
C523 C528 1.350 . S
C523 N531 1.427 . S
C524 H515 0.930 . S
C524 C522 1.378 . S
C524 C525 1.367 . S
C525 C524 1.367 . S
C525 C527 1.433 . S
C526 C522 1.350 . S
C526 C523 1.463 . S
C526 N530 1.427 . S
C527 H517 0.929 . S
C527 C525 1.433 . S
C527 N530 1.384 . S
C528 H519 0.929 . S
C528 C520 1.378 . S
C528 C523 1.350 . S
C529 H516 0.929 . S
C529 C521 1.433 . S
C529 N531 1.384 . S
N530 C526 1.427 . S
N530 C527 1.384 . S
N531 C523 1.427 . S
N531 C529 1.384 . S
H532 C538 0.930 . S
H533 C542 0.930 . S
H534 C547 0.929 . S
H535 C545 0.929 . S
H536 C540 0.929 . S
H537 C546 0.929 . S
C538 H532 0.930 . S
C538 C539 1.367 . S
C538 C546 1.378 . S
C539 C538 1.367 . S
C539 C547 1.433 . S
C540 H536 0.929 . S
C540 C542 1.378 . S
C540 C544 1.350 . S
C541 C544 1.463 . S
C541 C546 1.350 . S
C541 N549 1.427 . S
C542 H533 0.930 . S
C542 C540 1.378 . S
C542 C543 1.367 . S
C543 C542 1.367 . S
C543 C545 1.433 . S
C544 C540 1.350 . S
C544 C541 1.463 . S
C544 N548 1.427 . S
C545 H535 0.929 . S
C545 C543 1.433 . S
C545 N548 1.384 . S
C546 H537 0.929 . S
C546 C538 1.378 . S
C546 C541 1.350 . S
C547 H534 0.929 . S
C547 C539 1.433 . S
C547 N549 1.384 . S
N548 C544 1.427 . S
N548 C545 1.384 . S
N549 C541 1.427 . S
N549 C547 1.384 . S
H550 C556 0.930 . S
H551 C560 0.930 . S
H552 C565 0.929 1_655 S
H553 C563 0.929 1_455 S
H554 C558 0.929 . S
H555 C564 0.929 . S
C556 H550 0.930 . S
C556 C557 1.367 . S
C556 C564 1.378 . S
C557 C556 1.367 . S
C557 C565 1.433 . S
C558 H554 0.929 . S
C558 C560 1.378 . S
C558 C562 1.350 . S
C559 C562 1.463 1_455 S
C559 C564 1.350 . S
C559 N567 1.427 1_455 S
C560 H551 0.930 . S
C560 C558 1.378 . S
C560 C561 1.367 . S
C561 C560 1.367 . S
C561 C563 1.433 . S
C562 C558 1.350 . S
C562 C559 1.463 1_655 S
C562 N566 1.427 1_655 S
C563 H553 0.929 1_655 S
C563 C561 1.433 . S
C563 N566 1.384 1_655 S
C564 H555 0.929 . S
C564 C556 1.378 . S
C564 C559 1.350 . S
C565 H552 0.929 1_455 S
C565 C557 1.433 . S
C565 N567 1.384 1_455 S
N566 C562 1.427 1_455 S
N566 C563 1.384 1_455 S
N567 C559 1.427 1_655 S
N567 C565 1.384 1_655 S
H568 C574 0.930 . S
H569 C578 0.930 . S
H570 C583 0.929 . S
H571 C581 0.929 . S
H572 C576 0.929 1_455 S
H573 C582 0.929 1_655 S
C574 H568 0.930 . S
C574 C575 1.367 . S
C574 C582 1.378 . S
C575 C574 1.367 . S
C575 C583 1.433 . S
C576 H572 0.929 1_655 S
C576 C578 1.378 . S
C576 C580 1.350 . S
C577 C580 1.463 1_455 S
C577 C582 1.350 . S
C577 N585 1.427 . S
C578 H569 0.930 . S
C578 C576 1.378 . S
C578 C579 1.367 . S
C579 C578 1.367 . S
C579 C581 1.433 . S
C580 C576 1.350 . S
C580 C577 1.463 1_655 S
C580 N584 1.427 . S
C581 H571 0.929 . S
C581 C579 1.433 . S
C581 N584 1.384 . S
C582 H573 0.929 1_455 S
C582 C574 1.378 . S
C582 C577 1.350 . S
C583 H570 0.929 . S
C583 C575 1.433 . S
C583 N585 1.384 . S
N584 C580 1.427 . S
N584 C581 1.384 . S
N585 C577 1.427 . S
N585 C583 1.384 . S
H586 C592 0.930 . S
H587 C596 0.930 . S
H588 C601 0.929 . S
H589 C599 0.929 . S
H590 C594 0.929 . S
H591 C600 0.929 . S
C592 H586 0.930 . S
C592 C593 1.367 . S
C592 C600 1.378 . S
C593 C592 1.367 . S
C593 C601 1.433 . S
C594 H590 0.929 . S
C594 C596 1.378 . S
C594 C598 1.350 . S
C595 C598 1.463 . S
C595 C600 1.350 . S
C595 N603 1.427 . S
C596 H587 0.930 . S
C596 C594 1.378 . S
C596 C597 1.367 . S
C597 C596 1.367 . S
C597 C599 1.433 . S
C598 C594 1.350 . S
C598 C595 1.463 . S
C598 N602 1.427 . S
C599 H589 0.929 . S
C599 C597 1.433 . S
C599 N602 1.384 . S
C600 H591 0.929 . S
C600 C592 1.378 . S
C600 C595 1.350 . S
C601 H588 0.929 . S
C601 C593 1.433 . S
C601 N603 1.384 . S
N602 C598 1.427 . S
N602 C599 1.384 . S
N603 C595 1.427 . S
N603 C601 1.384 . S
H604 C610 0.930 . S
H605 C614 0.930 . S
H606 C619 0.929 . S
H607 C617 0.929 . S
H608 C612 0.929 . S
H609 C618 0.929 . S
C610 H604 0.930 . S
C610 C611 1.367 . S
C610 C618 1.378 . S
C611 C610 1.367 . S
C611 C619 1.433 . S
C612 H608 0.929 . S
C612 C614 1.378 . S
C612 C616 1.350 . S
C613 C616 1.463 . S
C613 C618 1.350 . S
C613 N621 1.427 . S
C614 H605 0.930 . S
C614 C612 1.378 . S
C614 C615 1.367 . S
C615 C614 1.367 . S
C615 C617 1.433 . S
C616 C612 1.350 . S
C616 C613 1.463 . S
C616 N620 1.427 . S
C617 H607 0.929 . S
C617 C615 1.433 . S
C617 N620 1.384 . S
C618 H609 0.929 . S
C618 C610 1.378 . S
C618 C613 1.350 . S
C619 H606 0.929 . S
C619 C611 1.433 . S
C619 N621 1.384 . S
N620 C616 1.427 . S
N620 C617 1.384 . S
N621 C613 1.427 . S
N621 C619 1.384 . S
H622 C628 0.932 . S
H623 C632 0.932 . S
H624 C637 0.929 . S
H625 C635 0.929 . S
H626 C630 0.929 . S
H627 C636 0.929 . S
C628 H622 0.932 . S
C628 C629 1.367 . S
C628 C636 1.378 1_455 S
C629 C628 1.367 . S
C629 C637 1.433 . S
C630 H626 0.929 . S
C630 C632 1.378 1_455 S
C630 C634 1.350 1_455 S
C631 C634 1.463 1_455 S
C631 C636 1.350 1_455 S
C631 N639 1.427 . S
C632 H623 0.932 . S
C632 C630 1.378 1_655 S
C632 C633 1.367 . S
C633 C632 1.367 . S
C633 C635 1.433 . S
C634 C630 1.350 1_655 S
C634 C631 1.463 1_655 S
C634 N638 1.427 . S
C635 H625 0.929 . S
C635 C633 1.433 . S
C635 N638 1.384 . S
C636 H627 0.929 . S
C636 C628 1.378 1_655 S
C636 C631 1.350 1_655 S
C637 H624 0.929 . S
C637 C629 1.433 . S
C637 N639 1.384 . S
N638 C634 1.427 . S
N638 C635 1.384 . S
N639 C631 1.427 . S
N639 C637 1.384 . S
H640 C646 0.930 . S
H641 C650 0.930 . S
H642 C655 0.929 . S
H643 C653 0.929 . S
H644 C648 0.929 . S
H645 C654 0.929 . S
C646 H640 0.930 . S
C646 C647 1.367 1_545 S
C646 C654 1.378 . S
C647 C646 1.367 1_565 S
C647 C655 1.433 . S
C648 H644 0.929 . S
C648 C650 1.378 . S
C648 C652 1.350 1_565 S
C649 C652 1.463 1_666 S
C649 C654 1.350 1_565 S
C649 N657 1.427 1_655 S
C650 H641 0.930 . S
C650 C648 1.378 . S
C650 C651 1.367 1_565 S
C651 C650 1.367 1_545 S
C651 C653 1.433 . S
C652 C648 1.350 1_545 S
C652 C649 1.463 1_444 S
C652 N656 1.427 1_455 S
C653 H643 0.929 . S
C653 C651 1.433 . S
C653 N656 1.384 1_455 S
C654 H645 0.929 . S
C654 C646 1.378 . S
C654 C649 1.350 1_545 S
C655 H642 0.929 . S
C655 C647 1.433 . S
C655 N657 1.384 1_655 S
N656 C652 1.427 1_655 S
N656 C653 1.384 1_655 S
N657 C649 1.427 1_455 S
N657 C655 1.384 1_455 S
H658 C664 0.930 . S
H659 C668 0.930 . S
H660 C673 0.929 . S
H661 C671 0.929 . S
H662 C666 0.929 1_545 S
H663 C672 0.929 1_565 S
C664 H658 0.930 . S
C664 C665 1.367 . S
C664 C672 1.378 . S
C665 C664 1.367 . S
C665 C673 1.433 . S
C666 H662 0.929 1_565 S
C666 C668 1.378 . S
C666 C670 1.350 . S
C667 C670 1.463 1_546 S
C667 C672 1.350 . S
C667 N675 1.427 . S
C668 H659 0.930 . S
C668 C666 1.378 . S
C668 C669 1.367 . S
C669 C668 1.367 . S
C669 C671 1.433 . S
C670 C666 1.350 . S
C670 C667 1.463 1_564 S
C670 N674 1.427 . S
C671 H661 0.929 . S
C671 C669 1.433 . S
C671 N674 1.384 . S
C672 H663 0.929 1_545 S
C672 C664 1.378 . S
C672 C667 1.350 . S
C673 H660 0.929 . S
C673 C665 1.433 . S
C673 N675 1.384 . S
N674 C670 1.427 . S
N674 C671 1.384 . S
N675 C667 1.427 . S
N675 C673 1.384 . S
H676 C682 0.930 . S
H677 C686 0.930 . S
H678 C691 0.929 . S
H679 C689 0.929 . S
H680 C684 0.929 . S
H681 C690 0.929 . S
C682 H676 0.930 . S
C682 C683 1.367 1_565 S
C682 C690 1.378 . S
C683 C682 1.367 1_545 S
C683 C691 1.433 . S
C684 H680 0.929 . S
C684 C686 1.378 . S
C684 C688 1.350 1_545 S
C685 C688 1.463 1_545 S
C685 C690 1.350 1_545 S
C685 N693 1.427 . S
C686 H677 0.930 . S
C686 C684 1.378 . S
C686 C687 1.367 1_545 S
C687 C686 1.367 1_565 S
C687 C689 1.433 . S
C688 C684 1.350 1_565 S
C688 C685 1.463 1_565 S
C688 N692 1.427 . S
C689 H679 0.929 . S
C689 C687 1.433 . S
C689 N692 1.384 . S
C690 H681 0.929 . S
C690 C682 1.378 . S
C690 C685 1.350 1_565 S
C691 H678 0.929 . S
C691 C683 1.433 . S
C691 N693 1.384 . S
N692 C688 1.427 . S
N692 C689 1.384 . S
N693 C685 1.427 . S
N693 C691 1.384 . S
H694 C700 0.930 . S
H695 C704 0.930 . S
H696 C709 0.929 1_655 S
H697 C707 0.929 1_455 S
H698 C702 0.929 . S
H699 C708 0.929 . S
C700 H694 0.930 . S
C700 C701 1.367 1_545 S
C700 C708 1.378 . S
C701 C700 1.367 1_565 S
C701 C709 1.433 . S
C702 H698 0.929 . S
C702 C704 1.378 . S
C702 C706 1.350 1_565 S
C703 C706 1.463 1_465 S
C703 C708 1.350 1_565 S
C703 N711 1.427 1_455 S
C704 H695 0.930 . S
C704 C702 1.378 . S
C704 C705 1.367 1_565 S
C705 C704 1.367 1_545 S
C705 C707 1.433 . S
C706 C702 1.350 1_545 S
C706 C703 1.463 1_645 S
C706 N710 1.427 1_655 S
C707 H697 0.929 1_655 S
C707 C705 1.433 . S
C707 N710 1.384 1_655 S
C708 H699 0.929 . S
C708 C700 1.378 . S
C708 C703 1.350 1_545 S
C709 H696 0.929 1_455 S
C709 C701 1.433 . S
C709 N711 1.384 1_455 S
N710 C706 1.427 1_455 S
N710 C707 1.384 1_455 S
N711 C703 1.427 1_655 S
N711 C709 1.384 1_655 S
H712 C718 0.930 . S
H713 C722 0.930 . S
H714 C727 0.929 . S
H715 C725 0.929 . S
H716 C720 0.929 . S
H717 C726 0.929 . S
C718 H712 0.930 . S
C718 C719 1.367 . S
C718 C726 1.378 . S
C719 C718 1.367 . S
C719 C727 1.433 . S
C720 H716 0.929 . S
C720 C722 1.378 . S
C720 C724 1.350 . S
C721 C724 1.463 1_554 S
C721 C726 1.350 . S
C721 N729 1.427 . S
C722 H713 0.930 . S
C722 C720 1.378 . S
C722 C723 1.367 . S
C723 C722 1.367 . S
C723 C725 1.433 . S
C724 C720 1.350 . S
C724 C721 1.463 1_556 S
C724 N728 1.427 . S
C725 H715 0.929 . S
C725 C723 1.433 . S
C725 N728 1.384 . S
C726 H717 0.929 . S
C726 C718 1.378 . S
C726 C721 1.350 . S
C727 H714 0.929 . S
C727 C719 1.433 . S
C727 N729 1.384 . S
N728 C724 1.427 . S
N728 C725 1.384 . S
N729 C721 1.427 . S
N729 C727 1.384 . S
H730 C736 0.930 . S
H731 C740 0.930 . S
H732 C745 0.929 . S
H733 C743 0.929 . S
H734 C738 0.929 . S
H735 C744 0.929 . S
C736 H730 0.930 . S
C736 C737 1.367 . S
C736 C744 1.378 . S
C737 C736 1.367 . S
C737 C745 1.433 . S
C738 H734 0.929 . S
C738 C740 1.378 . S
C738 C742 1.350 . S
C739 C742 1.463 1_654 S
C739 C744 1.350 . S
C739 N747 1.427 1_655 S
C740 H731 0.930 . S
C740 C738 1.378 . S
C740 C741 1.367 . S
C741 C740 1.367 . S
C741 C743 1.433 . S
C742 C738 1.350 . S
C742 C739 1.463 1_456 S
C742 N746 1.427 1_455 S
C743 H733 0.929 . S
C743 C741 1.433 . S
C743 N746 1.384 1_455 S
C744 H735 0.929 . S
C744 C736 1.378 . S
C744 C739 1.350 . S
C745 H732 0.929 . S
C745 C737 1.433 . S
C745 N747 1.384 1_655 S
N746 C742 1.427 1_655 S
N746 C743 1.384 1_655 S
N747 C739 1.427 1_455 S
N747 C745 1.384 1_455 S
H748 C754 0.930 . S
H749 C758 0.930 . S
H750 C763 0.929 . S
H751 C761 0.929 . S
H752 C756 0.929 . S
H753 C762 0.929 . S
C754 H748 0.930 . S
C754 C755 1.367 . S
C754 C762 1.378 . S
C755 C754 1.367 . S
C755 C763 1.433 . S
C756 H752 0.929 . S
C756 C758 1.378 . S
C756 C760 1.350 . S
C757 C760 1.463 1_655 S
C757 C762 1.350 . S
C757 N765 1.427 1_655 S
C758 H749 0.930 . S
C758 C756 1.378 . S
C758 C759 1.367 . S
C759 C758 1.367 . S
C759 C761 1.433 . S
C760 C756 1.350 . S
C760 C757 1.463 1_455 S
C760 N764 1.427 1_455 S
C761 H751 0.929 . S
C761 C759 1.433 . S
C761 N764 1.384 1_455 S
C762 H753 0.929 . S
C762 C754 1.378 . S
C762 C757 1.350 . S
C763 H750 0.929 . S
C763 C755 1.433 . S
C763 N765 1.384 1_655 S
N764 C760 1.427 1_655 S
N764 C761 1.384 1_655 S
N765 C757 1.427 1_455 S
N765 C763 1.384 1_455 S
H766 C772 0.930 . S
H767 C776 0.930 . S
H768 C781 0.929 . S
H769 C779 0.929 . S
H770 C774 0.929 . S
H771 C780 0.929 . S
C772 H766 0.930 . S
C772 C773 1.367 . S
C772 C780 1.378 . S
C773 C772 1.367 . S
C773 C781 1.433 . S
C774 H770 0.929 . S
C774 C776 1.378 . S
C774 C778 1.350 . S
C775 C778 1.463 . S
C775 C780 1.350 . S
C775 N783 1.427 . S
C776 H767 0.930 . S
C776 C774 1.378 . S
C776 C777 1.367 . S
C777 C776 1.367 . S
C777 C779 1.433 . S
C778 C774 1.350 . S
C778 C775 1.463 . S
C778 N782 1.427 . S
C779 H769 0.929 . S
C779 C777 1.433 . S
C779 N782 1.384 . S
C780 H771 0.929 . S
C780 C772 1.378 . S
C780 C775 1.350 . S
C781 H768 0.929 . S
C781 C773 1.433 . S
C781 N783 1.384 . S
N782 C778 1.427 . S
N782 C779 1.384 . S
N783 C775 1.427 . S
N783 C781 1.384 . S
C215 C13 1.458 . S
C219 C0 1.451 . S
C233 C26 1.448 . S
C237 C39 1.452 . S
C251 C52 1.455 . S
C255 C65 1.447 . S
C269 C91 1.452 . S
C273 C78 1.458 . S
C287 C117 1.458 . S
C291 C104 1.448 . S
C305 C143 1.459 . S
C309 C130 1.448 . S
C323 C169 1.451 . S
C327 C156 1.459 . S
C341 C195 1.447 . S
C345 C182 1.458 . S
C359 C49 1.216 . S
C363 C10 1.219 . S
C377 C23 1.216 . S
C381 C36 1.218 . S
C395 C101 1.217 . S
C399 C62 1.219 . S
C413 C88 1.216 . S
C417 C75 1.219 . S
C431 C114 1.218 . S
C435 C153 1.216 . S
C449 C140 1.218 . S
C453 C127 1.218 . S
C467 C205 1.217 . S
C471 C166 1.218 . S
C485 C179 1.216 . S
C489 C192 1.219 . S
C503 C5 1.452 . S
C507 C122 1.460 . S
C521 C18 1.455 . S
C525 C109 1.462 . S
C539 C148 1.459 . S
C543 C31 1.450 . S
C557 C135 1.459 . S
C561 C44 1.463 . S
C575 C174 1.457 . S
C579 C57 1.449 . S
C593 C161 1.463 . S
C597 C70 1.461 . S
C611 C83 1.448 . S
C615 C200 1.456 . S
C629 C96 1.447 . S
C633 C187 1.453 . S
C647 C60 1.045 . S
C651 C8 1.045 . S
C665 C73 1.036 . S
C669 C21 1.036 . S
C683 C86 1.042 . S
C687 C34 1.042 . S
C701 C99 1.044 . S
C705 C47 1.044 . S
C719 C112 1.025 . S
C723 C164 1.025 . S
C737 C125 1.024 . S
C741 C177 1.024 . S
C755 C190 1.045 . S
C759 C138 1.045 . S
C773 C203 1.023 . S
C777 C151 1.023 . S
