# Generated by pormake.
# Topology ukb, (4)-cn, num edge types: 1
# Building blocks:
#     Node 0, Type 0, BuildingBlock: NAHDIM_clean_sbu_0, # of connection points: 4
#     Node 1, Type 0, BuildingBlock: NAHDIM_clean_sbu_0, # of connection points: 4
#     Node 2, Type 0, BuildingBlock: NAHDIM_clean_sbu_0, # of connection points: 4
#     Node 3, Type 0, BuildingBlock: NAHDIM_clean_sbu_0, # of connection points: 4
#     Node 4, Type 0, BuildingBlock: NAHDIM_clean_sbu_0, # of connection points: 4
#     Node 5, Type 0, BuildingBlock: NAHDIM_clean_sbu_0, # of connection points: 4
#     Node 6, Type 0, BuildingBlock: NAHDIM_clean_sbu_0, # of connection points: 4
#     Node 7, Type 0, BuildingBlock: NAHDIM_clean_sbu_0, # of connection points: 4
#     Node 8, Type 0, BuildingBlock: NAHDIM_clean_sbu_0, # of connection points: 4
#     Node 9, Type 0, BuildingBlock: NAHDIM_clean_sbu_0, # of connection points: 4
#     Node 10, Type 0, BuildingBlock: NAHDIM_clean_sbu_0, # of connection points: 4
#     Node 11, Type 0, BuildingBlock: NAHDIM_clean_sbu_0, # of connection points: 4
#     Node 12, Type 0, BuildingBlock: NAHDIM_clean_sbu_0, # of connection points: 4
#     Node 13, Type 0, BuildingBlock: NAHDIM_clean_sbu_0, # of connection points: 4
#     Node 14, Type 0, BuildingBlock: NAHDIM_clean_sbu_0, # of connection points: 4
#     Node 15, Type 0, BuildingBlock: NAHDIM_clean_sbu_0, # of connection points: 4
#     Edge 16, Type (0, 0), BuildingBlock: CIFDUS_clean_linker_0, # of connection points: 2
#     Edge 17, Type (0, 0), BuildingBlock: CIFDUS_clean_linker_0, # of connection points: 2
#     Edge 18, Type (0, 0), BuildingBlock: CIFDUS_clean_linker_0, # of connection points: 2
#     Edge 19, Type (0, 0), BuildingBlock: CIFDUS_clean_linker_0, # of connection points: 2
#     Edge 20, Type (0, 0), BuildingBlock: CIFDUS_clean_linker_0, # of connection points: 2
#     Edge 21, Type (0, 0), BuildingBlock: CIFDUS_clean_linker_0, # of connection points: 2
#     Edge 22, Type (0, 0), BuildingBlock: CIFDUS_clean_linker_0, # of connection points: 2
#     Edge 23, Type (0, 0), BuildingBlock: CIFDUS_clean_linker_0, # of connection points: 2
#     Edge 24, Type (0, 0), BuildingBlock: CIFDUS_clean_linker_0, # of connection points: 2
#     Edge 25, Type (0, 0), BuildingBlock: CIFDUS_clean_linker_0, # of connection points: 2
#     Edge 26, Type (0, 0), BuildingBlock: CIFDUS_clean_linker_0, # of connection points: 2
#     Edge 27, Type (0, 0), BuildingBlock: CIFDUS_clean_linker_0, # of connection points: 2
#     Edge 28, Type (0, 0), BuildingBlock: CIFDUS_clean_linker_0, # of connection points: 2
#     Edge 29, Type (0, 0), BuildingBlock: CIFDUS_clean_linker_0, # of connection points: 2
#     Edge 30, Type (0, 0), BuildingBlock: CIFDUS_clean_linker_0, # of connection points: 2
#     Edge 31, Type (0, 0), BuildingBlock: CIFDUS_clean_linker_0, # of connection points: 2
#     Edge 32, Type (0, 0), BuildingBlock: CIFDUS_clean_linker_0, # of connection points: 2
#     Edge 33, Type (0, 0), BuildingBlock: CIFDUS_clean_linker_0, # of connection points: 2
#     Edge 34, Type (0, 0), BuildingBlock: CIFDUS_clean_linker_0, # of connection points: 2
#     Edge 35, Type (0, 0), BuildingBlock: CIFDUS_clean_linker_0, # of connection points: 2
#     Edge 36, Type (0, 0), BuildingBlock: CIFDUS_clean_linker_0, # of connection points: 2
#     Edge 37, Type (0, 0), BuildingBlock: CIFDUS_clean_linker_0, # of connection points: 2
#     Edge 38, Type (0, 0), BuildingBlock: CIFDUS_clean_linker_0, # of connection points: 2
#     Edge 39, Type (0, 0), BuildingBlock: CIFDUS_clean_linker_0, # of connection points: 2
#     Edge 40, Type (0, 0), BuildingBlock: CIFDUS_clean_linker_0, # of connection points: 2
#     Edge 41, Type (0, 0), BuildingBlock: CIFDUS_clean_linker_0, # of connection points: 2
#     Edge 42, Type (0, 0), BuildingBlock: CIFDUS_clean_linker_0, # of connection points: 2
#     Edge 43, Type (0, 0), BuildingBlock: CIFDUS_clean_linker_0, # of connection points: 2
#     Edge 44, Type (0, 0), BuildingBlock: CIFDUS_clean_linker_0, # of connection points: 2
#     Edge 45, Type (0, 0), BuildingBlock: CIFDUS_clean_linker_0, # of connection points: 2
#     Edge 46, Type (0, 0), BuildingBlock: CIFDUS_clean_linker_0, # of connection points: 2
#     Edge 47, Type (0, 0), BuildingBlock: CIFDUS_clean_linker_0, # of connection points: 2
# Relax obj value: 0.149
# Max RMSD: 0.160
# Mean RMSD: 0.160
data_MOF--net-ukb--node1-NAHDIM_clean_sbu_0--edge1-CIFDUS_clean_linker_0
_symmetry_space_group_name_H-M    P1
_symmetry_Int_Tables_number       1
_symmetry_cell_setting            triclinic
loop_
_symmetry_equiv_pos_as_xyz
'x, y, z'
_cell_length_a     38.007876
_cell_length_b     38.034032
_cell_length_c     33.169643
_cell_angle_alpha  90.126085
_cell_angle_beta   89.98167
_cell_angle_gamma 90.059883
loop_
_atom_site_label
_atom_site_type_symbol
_atom_site_fract_x
_atom_site_fract_y
_atom_site_fract_z
_atom_type_partial_charge
C0 C 0.44845 0.17738 0.19483 0.0
O1 O 0.44674 0.19282 0.15952 0.0
O2 O 0.51691 0.2148 0.13516 0.0
Zn3 Zn 0.52321 0.19555 0.19115 0.0
O4 O 0.55975 0.15732 0.18927 0.0
C5 C 0.53752 0.26522 0.22572 0.0
O6 O 0.51469 0.27693 0.19923 0.0
O7 O 0.4777 0.17621 0.21341 0.0
C8 C 0.58875 0.16424 0.17186 0.0
O9 O 0.59263 0.19495 0.15432 0.0
C10 C 0.51377 0.19342 0.10589 0.0
O11 O 0.51382 0.15948 0.11325 0.0
O12 O 0.54355 0.23244 0.22775 0.0
C13 C 0.29948 0.43353 0.69722 0.0
O14 O 0.29096 0.43516 0.65891 0.0
O15 O 0.2847 0.50812 0.63615 0.0
Zn16 Zn 0.28885 0.50964 0.69653 0.0
O17 O 0.32987 0.54026 0.71267 0.0
C18 C 0.24392 0.55094 0.74889 0.0
O19 O 0.27382 0.55848 0.76681 0.0
O20 O 0.29854 0.46132 0.7186 0.0
C21 C 0.33874 0.56843 0.69479 0.0
O22 O 0.32055 0.57894 0.66337 0.0
C23 C 0.31104 0.50331 0.61319 0.0
O24 O 0.34237 0.49913 0.62921 0.0
O25 O 0.24393 0.52984 0.71911 0.0
C26 C 0.04469 0.31847 0.21504 0.0
O27 O 0.0365 0.32676 0.17779 0.0
O28 O 0.98535 0.26535 0.15245 0.0
Zn29 Zn 0.97806 0.28568 0.20819 0.0
O30 O 0.94959 0.33013 0.20665 0.0
C31 C 0.953 0.21814 0.23698 0.0
O32 O 0.97634 0.20572 0.21143 0.0
O33 O 0.02404 0.29853 0.23469 0.0
C34 C 0.91758 0.33039 0.19572 0.0
O35 O 0.90329 0.30118 0.1822 0.0
C36 C 0.98336 0.28341 0.12033 0.0
O37 O 0.97673 0.31723 0.12284 0.0
O38 O 0.95028 0.2512 0.24153 0.0
C39 C 0.20431 0.06439 0.70213 0.0
O40 O 0.19765 0.06062 0.66351 0.0
O41 O 0.23843 -3e-05 0.63287 0.0
Zn42 Zn 0.23116 0.99412 0.69286 0.0
O43 O 0.18945 0.96283 0.7039 0.0
C44 C 0.2732 0.94944 0.74447 0.0
O45 O 0.24257 0.94226 0.76088 0.0
O46 O 0.22059 0.04006 0.72052 0.0
C47 C 0.18615 0.93163 0.69068 0.0
O48 O 0.21084 0.91837 0.66745 0.0
C49 C 0.21462 0.99304 0.60711 0.0
O50 O 0.18328 0.98339 0.6196 0.0
O51 O 0.27478 0.97165 0.71594 0.0
C52 C 0.42765 0.30717 0.81377 0.0
O53 O 0.43556 0.30725 0.8523 0.0
O54 O 0.50092 0.2699 0.86492 0.0
Zn55 Zn 0.49955 0.2841 0.80645 0.0
O56 O 0.52973 0.32676 0.79732 0.0
C57 C 0.51536 0.21289 0.78128 0.0
O58 O 0.49284 0.20457 0.80977 0.0
O59 O 0.45036 0.2963 0.78851 0.0
C60 C 0.56199 0.32675 0.80729 0.0
O61 O 0.5751 0.29893 0.82524 0.0
C62 C 0.50609 0.29156 0.89356 0.0
O63 O 0.51014 0.32509 0.88531 0.0
O64 O 0.52083 0.24513 0.7735 0.0
C65 C 0.18349 0.45678 0.29834 0.0
O66 O 0.18544 0.45591 0.33786 0.0
O67 O 0.22393 0.51636 0.36719 0.0
Zn68 Zn 0.21722 0.52499 0.30787 0.0
O69 O 0.18518 0.56676 0.30138 0.0
C70 C 0.26415 0.55606 0.25063 0.0
O71 O 0.23428 0.56335 0.23257 0.0
O72 O 0.19605 0.48307 0.27959 0.0
C73 C 0.15209 0.5646 0.2965 0.0
O74 O 0.13699 0.53351 0.29647 0.0
C75 C 0.25375 0.50831 0.38181 0.0
O76 O 0.28069 0.50425 0.35742 0.0
O77 O 0.2636 0.53826 0.28299 0.0
C78 C 0.06512 0.19545 0.79511 0.0
O79 O 0.06152 0.18953 0.8339 0.0
O80 O 0.9993 0.23964 0.85928 0.0
Zn81 Zn 0.99389 0.22125 0.80257 0.0
O82 O 0.96443 0.17729 0.80078 0.0
C83 C 0.97669 0.29008 0.77213 0.0
O84 O 0.00435 0.29945 0.79335 0.0
O85 O 0.0402 0.21027 0.77612 0.0
C86 C 0.9326 0.17732 0.8125 0.0
O87 O 0.91952 0.20611 0.82851 0.0
C88 C 0.99705 0.22084 0.8908 0.0
O89 O 0.99249 0.18673 0.88712 0.0
O90 O 0.96801 0.25784 0.77077 0.0
C91 C 0.31577 0.04799 0.30456 0.0
O92 O 0.32268 0.03092 0.33803 0.0
O93 O 0.26227 0.98742 0.35552 0.0
Zn94 Zn 0.27663 0.98698 0.29689 0.0
O95 O 0.31895 0.95638 0.28846 0.0
C96 C 0.20585 0.97702 0.26297 0.0
O97 O 0.19698 0.00385 0.28583 0.0
O98 O 0.29308 0.03516 0.28046 0.0
C99 C 0.32665 0.92827 0.30703 0.0
O100 O 0.30568 0.91672 0.33559 0.0
C101 C 0.23873 0.96726 0.36988 0.0
O102 O 0.22311 0.94443 0.34609 0.0
O103 O 0.23779 0.96717 0.26212 0.0
C104 C 0.55291 0.82643 0.80622 0.0
O105 O 0.54141 0.82698 0.84353 0.0
O106 O 0.49491 0.76515 0.8534 0.0
Zn107 Zn 0.49063 0.78498 0.79713 0.0
O108 O 0.45154 0.82057 0.79569 0.0
C109 C 0.47371 0.71447 0.77037 0.0
O110 O 0.48613 0.70599 0.80599 0.0
O111 O 0.5359 0.80884 0.77999 0.0
C112 C 0.42084 0.81094 0.80618 0.0
O113 O 0.4161 0.77866 0.81915 0.0
C114 C 0.48569 0.78189 0.88488 0.0
O115 O 0.47352 0.81406 0.88142 0.0
O116 O 0.47539 0.74634 0.75899 0.0
C117 C 0.67384 0.55034 0.31103 0.0
O118 O 0.67067 0.53934 0.34834 0.0
O119 O 0.72426 0.48075 0.35725 0.0
Zn120 Zn 0.70225 0.48141 0.30187 0.0
O121 O 0.65859 0.45166 0.2993 0.0
C122 C 0.76922 0.46391 0.26492 0.0
O123 O 0.78192 0.48618 0.29154 0.0
O124 O 0.68858 0.53042 0.28525 0.0
C125 C 0.66018 0.41899 0.30688 0.0
O126 O 0.69005 0.40568 0.31967 0.0
C127 C 0.70723 0.47536 0.38963 0.0
O128 O 0.67308 0.47015 0.38791 0.0
O129 O 0.73616 0.45936 0.26288 0.0
C130 C 0.95771 0.68363 0.77832 0.0
O131 O 0.95684 0.68761 0.81764 0.0
O132 O 0.01629 0.73757 0.8399 0.0
Zn133 Zn 0.02686 0.71627 0.78541 0.0
O134 O 0.06368 0.67866 0.7909 0.0
C135 C 0.04825 0.78555 0.75813 0.0
O136 O 0.02974 0.79642 0.78919 0.0
O137 O 0.98417 0.69493 0.75876 0.0
C138 C 0.09263 0.68597 0.80816 0.0
O139 O 0.09681 0.7173 0.82426 0.0
C140 C 0.01728 0.7197 0.8722 0.0
O141 O 0.02368 0.68581 0.87009 0.0
O142 O 0.04904 0.75293 0.74988 0.0
C143 C 0.82007 0.93729 0.31302 0.0
O144 O 0.8265 0.95076 0.34877 0.0
O145 O 0.76448 0.00068 0.36422 0.0
Zn146 Zn 0.78106 0.00089 0.30655 0.0
O147 O 0.82081 0.03521 0.29799 0.0
C148 C 0.7407 0.03565 0.24322 0.0
O149 O 0.77163 0.04576 0.22987 0.0
O150 O 0.79922 0.95341 0.2895 0.0
C151 C 0.8198 0.06776 0.3066 0.0
O152 O 0.79141 0.08084 0.32352 0.0
C153 C 0.78183 0.01099 0.39478 0.0
O154 O 0.81445 0.02173 0.39018 0.0
O155 O 0.73906 0.01549 0.27367 0.0
C156 C 0.55503 0.69078 0.20002 0.0
O157 O 0.5548 0.70104 0.16226 0.0
O158 O 0.48769 0.73819 0.14631 0.0
Zn159 Zn 0.48255 0.71641 0.20129 0.0
O160 O 0.44597 0.67827 0.19873 0.0
C161 C 0.46425 0.78499 0.23298 0.0
O162 O 0.48159 0.7963 0.20127 0.0
O163 O 0.52792 0.69576 0.22179 0.0
C164 C 0.41706 0.68458 0.18092 0.0
O165 O 0.41284 0.71506 0.16301 0.0
C166 C 0.48798 0.71966 0.1144 0.0
O167 O 0.4864 0.68524 0.11735 0.0
O168 O 0.46301 0.7522 0.23992 0.0
C169 C 0.81985 0.53977 0.7054 0.0
O170 O 0.82679 0.53027 0.66815 0.0
O171 O 0.76164 0.47945 0.64876 0.0
Zn172 Zn 0.78322 0.47414 0.70398 0.0
O173 O 0.82442 0.44116 0.70235 0.0
C174 C 0.7147 0.45554 0.73588 0.0
O175 O 0.7033 0.47739 0.70819 0.0
O176 O 0.80007 0.52031 0.72675 0.0
C177 C 0.81968 0.40916 0.69269 0.0
O178 O 0.78816 0.39889 0.68138 0.0
C179 C 0.77851 0.4744 0.61617 0.0
O180 O 0.81212 0.46651 0.61779 0.0
O181 O 0.74762 0.45147 0.74046 0.0
C182 C 0.9454 0.80861 0.19147 0.0
O183 O 0.94602 0.80182 0.15264 0.0
O184 O 0.01336 0.76709 0.13279 0.0
Zn185 Zn 0.01867 0.7856 0.18936 0.0
O186 O 0.05322 0.82583 0.19159 0.0
C187 C 0.02263 0.71635 0.22335 0.0
O188 O 0.99217 0.71289 0.20503 0.0
O189 O 0.97267 0.80257 0.21254 0.0
C190 C 0.08485 0.822 0.18 0.0
O191 O 0.09459 0.79163 0.16471 0.0
C192 C 0.0142 0.78555 0.10093 0.0
O193 O 0.01779 0.81982 0.10388 0.0
O194 O 0.03829 0.74586 0.22219 0.0
C195 C 0.68879 0.9584 0.70487 0.0
O196 O 0.6974 0.96151 0.66671 0.0
O197 O 0.73336 0.02933 0.65461 0.0
Zn198 Zn 0.71118 0.03168 0.70979 0.0
O199 O 0.66926 0.06391 0.70952 0.0
C200 C 0.77909 0.04829 0.7447 0.0
O201 O 0.7906 0.02592 0.71749 0.0
O202 O 0.69414 0.98412 0.7287 0.0
C203 C 0.67141 0.09516 0.6963 0.0
O204 O 0.70122 0.10593 0.68045 0.0
C205 C 0.71536 0.02933 0.62235 0.0
O206 O 0.68087 0.03048 0.62464 0.0
O207 O 0.74618 0.05333 0.74805 0.0
H208 H 0.43898 0.15404 0.27126 0.0
H209 H 0.38844 0.15839 0.15491 0.0
H210 H 0.34056 0.12141 0.17982 0.0
H211 H 0.31612 0.08321 0.23282 0.0
H212 H 0.36718 0.0793 0.34903 0.0
H213 H 0.41138 0.12107 0.32611 0.0
C214 C 0.41733 0.14716 0.25144 0.0
C215 C 0.41753 0.15853 0.21117 0.0
C216 C 0.38997 0.12586 0.26589 0.0
C217 C 0.38902 0.14985 0.18603 0.0
C218 C 0.36166 0.12861 0.20021 0.0
C219 C 0.33657 0.09194 0.25333 0.0
C220 C 0.33856 0.07772 0.29239 0.0
C221 C 0.36227 0.11579 0.23983 0.0
C222 C 0.36515 0.08951 0.31866 0.0
C223 C 0.39057 0.11335 0.30556 0.0
H224 H 0.30976 0.41705 0.77586 0.0
H225 H 0.32805 0.37884 0.65506 0.0
H226 H 0.36653 0.3329 0.68125 0.0
H227 H 0.40125 0.3091 0.73746 0.0
H228 H 0.38277 0.34756 0.8582 0.0
H229 H 0.33777 0.38745 0.83305 0.0
C230 C 0.32169 0.39828 0.75533 0.0
C231 C 0.31659 0.40174 0.71356 0.0
C232 C 0.34403 0.37215 0.77053 0.0
C233 C 0.33171 0.37689 0.68736 0.0
C234 C 0.35391 0.35072 0.70229 0.0
C235 C 0.38695 0.32578 0.75836 0.0
C236 C 0.39589 0.32584 0.79951 0.0
C237 C 0.36125 0.34894 0.74367 0.0
C238 C 0.37671 0.34718 0.8263 0.0
C239 C 0.35103 0.37016 0.81194 0.0
H240 H 0.09093 0.36442 0.1819 0.0
H241 H 0.06455 0.31374 0.29427 0.0
H242 H 0.10763 0.35026 0.32956 0.0
H243 H 0.14857 0.40039 0.32946 0.0
H244 H 0.17334 0.45192 0.21705 0.0
H245 H 0.13521 0.41109 0.1809 0.0
C246 C 0.09486 0.361 0.21404 0.0
C247 C 0.07423 0.33664 0.23545 0.0
C248 C 0.11919 0.38248 0.23424 0.0
C249 C 0.07993 0.33241 0.27704 0.0
C250 C 0.10447 0.3534 0.2973 0.0
C251 C 0.14595 0.40247 0.297 0.0
C252 C 0.16351 0.42947 0.27611 0.0
C253 C 0.12359 0.37914 0.27636 0.0
C254 C 0.15995 0.4316 0.23399 0.0
C255 C 0.1381 0.40826 0.21324 0.0
H256 H 0.16458 0.11796 0.67291 0.0
H257 H 0.20531 0.07485 0.78377 0.0
H258 H 0.16852 0.11503 0.82266 0.0
H259 H 0.11941 0.15687 0.82508 0.0
H260 H 0.07759 0.19867 0.71407 0.0
H261 H 0.12047 0.16485 0.67551 0.0
C262 C 0.16587 0.11771 0.70557 0.0
C263 C 0.18725 0.09299 0.72533 0.0
C264 C 0.14416 0.14045 0.7278 0.0
C265 C 0.18887 0.09336 0.7677 0.0
C266 C 0.16771 0.11626 0.79002 0.0
C267 C 0.12001 0.15904 0.79249 0.0
C268 C 0.09489 0.17982 0.77252 0.0
C269 C 0.14439 0.13906 0.77038 0.0
C270 C 0.09634 0.18258 0.73027 0.0
C271 C 0.12081 0.16317 0.70812 0.0
H272 H 0.58357 0.83259 0.73206 0.0
H273 H 0.58977 0.87138 0.85432 0.0
H274 H 0.63468 0.91359 0.8344 0.0
H275 H 0.66848 0.94297 0.78142 0.0
H276 H 0.66245 0.90469 0.659 0.0
H277 H 0.62167 0.85863 0.68001 0.0
C278 C 0.59501 0.85003 0.75442 0.0
C279 C 0.58293 0.84907 0.7945 0.0
C280 C 0.62081 0.87449 0.74275 0.0
C281 C 0.59831 0.87166 0.82317 0.0
C282 C 0.62401 0.89591 0.81183 0.0
C283 C 0.65859 0.92431 0.75938 0.0
C284 C 0.66821 0.92759 0.71863 0.0
C285 C 0.63489 0.89808 0.77156 0.0
C286 C 0.65539 0.90293 0.69057 0.0
C287 C 0.63191 0.87663 0.70251 0.0
H288 H 0.56809 0.67352 0.27791 0.0
H289 H 0.60792 0.65972 0.15704 0.0
H290 H 0.6511 0.61735 0.18154 0.0
H291 H 0.67303 0.57959 0.23607 0.0
H292 H 0.63273 0.59347 0.35681 0.0
H293 H 0.59463 0.64072 0.33358 0.0
C294 C 0.58649 0.66156 0.25698 0.0
C295 C 0.58442 0.66935 0.21565 0.0
C296 C 0.61106 0.63706 0.27119 0.0
C297 C 0.6088 0.65405 0.189 0.0
C298 C 0.63343 0.62969 0.20296 0.0
C299 C 0.65629 0.59328 0.25742 0.0
C300 C 0.65535 0.58257 0.29798 0.0
C301 C 0.63412 0.62028 0.24381 0.0
C302 C 0.63379 0.6009 0.32533 0.0
C303 C 0.61186 0.62789 0.31207 0.0
H304 H 0.90181 0.64984 0.81207 0.0
H305 H 0.9525 0.66948 0.69776 0.0
H306 H 0.91204 0.62894 0.66453 0.0
H307 H 0.86587 0.58415 0.66888 0.0
H308 H 0.81605 0.56324 0.78335 0.0
H309 H 0.85235 0.60833 0.81539 0.0
C310 C 0.90378 0.6456 0.77981 0.0
C311 C 0.93044 0.66242 0.75757 0.0
C312 C 0.88071 0.62185 0.76091 0.0
C313 C 0.93243 0.65671 0.71573 0.0
C314 C 0.90932 0.63346 0.69666 0.0
C315 C 0.86263 0.58968 0.70075 0.0
C316 C 0.83852 0.57004 0.72372 0.0
C317 C 0.88392 0.61529 0.71911 0.0
C318 C 0.83454 0.5778 0.76495 0.0
C319 C 0.85536 0.60353 0.78335 0.0
H320 H 0.81944 0.90802 0.2379 0.0
H321 H 0.8684 0.89903 0.35489 0.0
H322 H 0.9095 0.85565 0.32827 0.0
H323 H 0.93542 0.82503 0.27045 0.0
H324 H 0.88745 0.8348 0.15304 0.0
H325 H 0.84192 0.87277 0.18133 0.0
C326 C 0.83876 0.8962 0.25774 0.0
C327 C 0.8411 0.90716 0.29821 0.0
C328 C 0.86272 0.8716 0.24211 0.0
C329 C 0.86616 0.89136 0.32353 0.0
C330 C 0.88978 0.86658 0.30832 0.0
C331 C 0.91479 0.83511 0.25108 0.0
C332 C 0.91518 0.82746 0.20957 0.0
C333 C 0.88894 0.85727 0.26742 0.0
C334 C 0.88798 0.84044 0.18505 0.0
C335 C 0.86195 0.86227 0.20118 0.0
H336 H 0.53418 0.33688 0.22703 0.0
H337 H 0.59054 0.24896 0.27785 0.0
H338 H 0.63162 0.28907 0.3105 0.0
H339 H 0.65483 0.34865 0.31959 0.0
H340 H 0.59905 0.43675 0.26851 0.0
H341 H 0.55435 0.39706 0.24156 0.0
C342 C 0.55519 0.3265 0.24563 0.0
C343 C 0.55946 0.28993 0.24948 0.0
C344 C 0.57901 0.34974 0.26417 0.0
C345 C 0.5867 0.27697 0.27403 0.0
C346 C 0.61032 0.2999 0.29271 0.0
C347 C 0.63269 0.35925 0.30298 0.0
C348 C 0.6306 0.39557 0.29567 0.0
C349 C 0.60723 0.33627 0.2872 0.0
C350 C 0.60148 0.40886 0.27443 0.0
C351 C 0.57592 0.38617 0.25884 0.0
H352 H 0.23708 0.60508 0.802 0.0
H353 H 0.17724 0.53884 0.72132 0.0
H354 H 0.12436 0.57312 0.73528 0.0
H355 H 0.09618 0.62443 0.76639 0.0
H356 H 0.15656 0.69199 0.84504 0.0
H357 H 0.20803 0.65445 0.83611 0.0
C358 C 0.2124 0.59787 0.78779 0.0
C359 C 0.21123 0.56956 0.76045 0.0
C360 C 0.18219 0.61805 0.79543 0.0
C361 C 0.17898 0.56063 0.74232 0.0
C362 C 0.1487 0.58024 0.75025 0.0
C363 C 0.12046 0.63075 0.78197 0.0
C364 C 0.12254 0.66113 0.80614 0.0
C365 C 0.15016 0.6094 0.77615 0.0
C366 C 0.15426 0.66889 0.82608 0.0
C367 C 0.18375 0.64746 0.82094 0.0
H368 H 0.82656 0.13827 0.31969 0.0
H369 H 0.87972 0.04923 0.26651 0.0
H370 H 0.92656 0.08757 0.24238 0.0
H371 H 0.95088 0.14671 0.23301 0.0
H372 H 0.89777 0.23594 0.28576 0.0
H373 H 0.85278 0.19715 0.31362 0.0
C374 C 0.8485 0.1272 0.30306 0.0
C375 C 0.84939 0.09094 0.29471 0.0
C376 C 0.8754 0.14945 0.28906 0.0
C377 C 0.87819 0.07706 0.27328 0.0
C378 C 0.90504 0.09898 0.25939 0.0
C379 C 0.92964 0.15768 0.25087 0.0
C380 C 0.92765 0.19423 0.257 0.0
C381 C 0.90367 0.13527 0.2666 0.0
C382 C 0.89997 0.20792 0.28043 0.0
C383 C 0.87413 0.18576 0.29632 0.0
H384 H 0.27606 0.89048 0.79039 0.0
H385 H 0.34162 0.96333 0.72474 0.0
H386 H 0.39347 0.92795 0.74016 0.0
H387 H 0.41969 0.87474 0.7692 0.0
H388 H 0.3536 0.80074 0.83245 0.0
H389 H 0.30252 0.83827 0.82115 0.0
C390 C 0.30173 0.89885 0.77979 0.0
C391 C 0.30493 0.92949 0.7564 0.0
C392 C 0.33134 0.87807 0.78815 0.0
C393 C 0.33839 0.93978 0.74269 0.0
C394 C 0.36807 0.91956 0.75147 0.0
C395 C 0.39417 0.86695 0.78082 0.0
C396 C 0.39048 0.83492 0.80154 0.0
C397 C 0.36478 0.8884 0.7737 0.0
C398 C 0.35719 0.82519 0.81627 0.0
C399 C 0.32793 0.84663 0.80982 0.0
H400 H 0.56957 0.22253 0.72885 0.0
H401 H 0.51204 0.14173 0.79216 0.0
H402 H 0.55375 0.09753 0.76835 0.0
H403 H 0.60931 0.08277 0.73466 0.0
H404 H 0.66784 0.16401 0.67332 0.0
H405 H 0.62276 0.207 0.69104 0.0
C406 C 0.56584 0.1952 0.73707 0.0
C407 C 0.53785 0.18555 0.76259 0.0
C408 C 0.59026 0.17001 0.72386 0.0
C409 C 0.53344 0.14996 0.77276 0.0
C410 C 0.55734 0.12465 0.75924 0.0
C411 C 0.61206 0.10979 0.72476 0.0
C412 C 0.64214 0.12018 0.70303 0.0
C413 C 0.5863 0.13452 0.73557 0.0
C414 C 0.64512 0.15529 0.6903 0.0
C415 C 0.61936 0.17994 0.70048 0.0
H416 H 0.413 0.62569 0.22714 0.0
H417 H 0.35378 0.68807 0.1424 0.0
H418 H 0.30203 0.65135 0.15361 0.0
H419 H 0.27221 0.60503 0.19185 0.0
H420 H 0.33066 0.54428 0.27883 0.0
H421 H 0.38416 0.57665 0.262 0.0
C422 C 0.38892 0.63099 0.21072 0.0
C423 C 0.38719 0.65979 0.18424 0.0
C424 C 0.35904 0.61019 0.21787 0.0
C425 C 0.35577 0.66625 0.1632 0.0
C426 C 0.32612 0.64528 0.16961 0.0
C427 C 0.29673 0.59851 0.20676 0.0
C428 C 0.29733 0.57246 0.23679 0.0
C429 C 0.32724 0.6177 0.19756 0.0
C430 C 0.32938 0.56437 0.25577 0.0
C431 C 0.36 0.58291 0.24623 0.0
H432 H 0.88562 0.42105 0.72173 0.0
H433 H 0.81733 0.33851 0.67812 0.0
H434 H 0.8613 0.29454 0.69597 0.0
H435 H 0.91682 0.27917 0.72902 0.0
H436 H 0.98455 0.36153 0.77418 0.0
H437 H 0.94316 0.40589 0.75032 0.0
C438 C 0.88048 0.39348 0.71569 0.0
C439 C 0.84804 0.3831 0.69898 0.0
C440 C 0.90567 0.36825 0.72654 0.0
C441 C 0.84195 0.34726 0.69118 0.0
C442 C 0.86706 0.32205 0.70146 0.0
C443 C 0.92275 0.30683 0.73332 0.0
C444 C 0.9536 0.31696 0.75375 0.0
C445 C 0.89866 0.33219 0.71997 0.0
C446 C 0.96092 0.35294 0.75878 0.0
C447 C 0.93723 0.37836 0.74521 0.0
H448 H 0.07363 0.88692 0.21262 0.0
H449 H 0.15532 0.82029 0.16409 0.0
H450 H 0.19963 0.86394 0.18233 0.0
H451 H 0.21569 0.91869 0.21675 0.0
H452 H 0.13433 0.98497 0.26657 0.0
H453 H 0.08943 0.94396 0.24263 0.0
C454 C 0.10109 0.88206 0.20567 0.0
C455 C 0.11111 0.85015 0.18737 0.0
C456 C 0.12654 0.90717 0.21658 0.0
C457 C 0.14681 0.84447 0.17836 0.0
C458 C 0.17222 0.86942 0.18883 0.0
C459 C 0.18812 0.92444 0.22202 0.0
C460 C 0.17848 0.95476 0.24379 0.0
C461 C 0.16246 0.90052 0.20867 0.0
C462 C 0.14258 0.96181 0.25005 0.0
C463 C 0.11685 0.93828 0.23649 0.0
H464 H 0.364 0.63039 0.66519 0.0
H465 H 0.3797 0.55476 0.76042 0.0
H466 H 0.42534 0.5918 0.78983 0.0
H467 H 0.45772 0.64738 0.79145 0.0
H468 H 0.44129 0.72396 0.69746 0.0
H469 H 0.39948 0.68455 0.66438 0.0
C470 C 0.37756 0.62188 0.69221 0.0
C471 C 0.36812 0.58997 0.71073 0.0
C472 C 0.4037 0.64347 0.70925 0.0
C473 C 0.3862 0.57928 0.74562 0.0
C474 C 0.41235 0.60045 0.76251 0.0
C475 C 0.44539 0.65534 0.76344 0.0
C476 C 0.45248 0.68873 0.74719 0.0
C477 C 0.42089 0.63285 0.74498 0.0
C478 C 0.43625 0.69847 0.71078 0.0
C479 C 0.4122 0.676 0.6919 0.0
H480 H 0.84794 0.33898 0.17943 0.0
H481 H 0.93778 0.39227 0.2308 0.0
H482 H 0.90007 0.44026 0.25334 0.0
H483 H 0.84087 0.46404 0.26469 0.0
H484 H 0.75095 0.41027 0.21413 0.0
H485 H 0.78948 0.3659 0.18475 0.0
C486 C 0.85937 0.3613 0.19508 0.0
C487 C 0.89555 0.36171 0.20389 0.0
C488 C 0.83748 0.38869 0.2084 0.0
C489 C 0.90995 0.39106 0.22387 0.0
C490 C 0.88839 0.41853 0.23691 0.0
C491 C 0.82971 0.4429 0.24679 0.0
C492 C 0.79303 0.44029 0.24215 0.0
C493 C 0.85199 0.41715 0.23032 0.0
C494 C 0.77908 0.41285 0.2185 0.0
C495 C 0.80109 0.38734 0.20175 0.0
H496 H 0.05762 0.85531 0.7727 0.0
H497 H 0.09284 0.7707 0.69567 0.0
H498 H 0.13743 0.80908 0.66632 0.0
H499 H 0.16939 0.86527 0.66622 0.0
H500 H 0.13444 0.94951 0.74396 0.0
H501 H 0.08682 0.91265 0.76914 0.0
C502 C 0.07475 0.84533 0.74916 0.0
C503 C 0.07205 0.81007 0.73673 0.0
C504 C 0.10066 0.86739 0.73274 0.0
C505 C 0.09441 0.79769 0.70602 0.0
C506 C 0.12004 0.81959 0.68927 0.0
C507 C 0.15123 0.87565 0.68847 0.0
C508 C 0.15576 0.90998 0.70344 0.0
C509 C 0.12391 0.85425 0.70303 0.0
C510 C 0.13175 0.92311 0.73203 0.0
C511 C 0.10447 0.90204 0.74651 0.0
H512 H 0.59166 0.10209 0.21236 0.0
H513 H 0.65422 0.17216 0.13928 0.0
H514 H 0.70625 0.13628 0.15157 0.0
H515 H 0.7351 0.08836 0.18823 0.0
H516 H 0.67285 0.01936 0.26298 0.0
H517 H 0.61964 0.05125 0.24444 0.0
C518 C 0.61657 0.1093 0.1987 0.0
C519 C 0.61907 0.14002 0.17532 0.0
C520 C 0.64656 0.08884 0.20636 0.0
C521 C 0.65155 0.14882 0.15768 0.0
C522 C 0.68139 0.12834 0.16473 0.0
C523 C 0.70985 0.07994 0.20001 0.0
C524 C 0.70809 0.05173 0.22729 0.0
C525 C 0.67937 0.09878 0.18981 0.0
C526 C 0.67507 0.04116 0.24216 0.0
C527 C 0.64458 0.05943 0.23166 0.0
H528 H 0.45386 0.85466 0.21977 0.0
H529 H 0.42336 0.76972 0.29855 0.0
H530 H 0.37978 0.80755 0.33082 0.0
H531 H 0.34659 0.86303 0.33233 0.0
H532 H 0.37639 0.94717 0.25199 0.0
H533 H 0.42398 0.91139 0.22493 0.0
C534 C 0.43805 0.84451 0.24436 0.0
C535 C 0.44167 0.8093 0.25639 0.0
C536 C 0.41259 0.86618 0.26231 0.0
C537 C 0.42101 0.79668 0.28847 0.0
C538 C 0.39596 0.81826 0.30689 0.0
C539 C 0.36372 0.87368 0.30922 0.0
C540 C 0.35759 0.90757 0.29391 0.0
C541 C 0.39091 0.85279 0.29336 0.0
C542 C 0.38021 0.92102 0.26408 0.0
C543 C 0.4075 0.90058 0.24854 0.0
H544 H 0.64328 0.45437 0.72996 0.0
H545 H 0.73032 0.40427 0.79055 0.0
H546 H 0.69029 0.36138 0.82019 0.0
H547 H 0.63139 0.33529 0.82467 0.0
H548 H 0.54442 0.38491 0.76348 0.0
H549 H 0.58361 0.43084 0.73861 0.0
C550 C 0.65347 0.43433 0.75 0.0
C551 C 0.68981 0.4324 0.75766 0.0
C552 C 0.63035 0.40945 0.76666 0.0
C553 C 0.70249 0.40632 0.78392 0.0
C554 C 0.67963 0.38168 0.80084 0.0
C555 C 0.62092 0.3563 0.80618 0.0
C556 C 0.58509 0.35639 0.79562 0.0
C557 C 0.64363 0.38254 0.79172 0.0
C558 C 0.57194 0.38403 0.7719 0.0
C559 C 0.59434 0.41032 0.75759 0.0
H560 H 0.0826 0.56904 0.27684 0.0
H561 H 0.1751 0.63257 0.2976 0.0
H562 H 0.1424 0.68535 0.27966 0.0
H563 H 0.08877 0.7131 0.25425 0.0
H564 H 0.99657 0.64969 0.23153 0.0
H565 H 0.02788 0.59737 0.25444 0.0
C566 C 0.09554 0.59445 0.27776 0.0
C567 C 0.13133 0.59674 0.28833 0.0
C568 C 0.07668 0.62476 0.26696 0.0
C569 C 0.14765 0.62994 0.28939 0.0
C570 C 0.12897 0.6602 0.27911 0.0
C571 C 0.07535 0.68792 0.25467 0.0
C572 C 0.04041 0.68534 0.24097 0.0
C573 C 0.09365 0.65786 0.26729 0.0
C574 C 0.0235 0.65245 0.24176 0.0
C575 C 0.04141 0.62247 0.25478 0.0
H576 H 0.86314 0.16984 0.8306 0.0
H577 H 0.95013 0.11646 0.77343 0.0
H578 H 0.91065 0.06993 0.75056 0.0
H579 H 0.85067 0.04734 0.74132 0.0
H580 H 0.76356 0.10126 0.79758 0.0
H581 H 0.80392 0.1443 0.82656 0.0
C582 C 0.87357 0.14783 0.81355 0.0
C583 C 0.90949 0.14694 0.80334 0.0
C584 C 0.85065 0.12129 0.80008 0.0
C585 C 0.92256 0.11801 0.7815 0.0
C586 C 0.89998 0.09138 0.7683 0.0
C587 C 0.84052 0.06822 0.76034 0.0
C588 C 0.80407 0.07124 0.76682 0.0
C589 C 0.86384 0.0932 0.77656 0.0
C590 C 0.79146 0.09837 0.79183 0.0
C591 C 0.81453 0.12311 0.80836 0.0
H592 H 0.5169 0.26127 0.08019 0.0
H593 H 0.50369 0.15471 0.03754 0.0
H594 H 0.49971 0.17577 0.9683 0.0
H595 H 0.50076 0.22417 0.9198 0.0
H596 H 0.51455 0.33075 0.96207 0.0
H597 H 0.5175 0.30986 0.03155 0.0
C598 C 0.51305 0.24264 0.05578 0.0
C599 C 0.51063 0.20646 0.06408 0.0
C600 C 0.51095 0.2549 0.01596 0.0
C601 C 0.5057 0.1827 0.03205 0.0
C602 C 0.50342 0.1947 0.9924 0.0
C603 C 0.50435 0.24289 0.94418 0.0
C604 C 0.50745 0.27898 0.9357 0.0
C605 C 0.50614 0.23071 0.98401 0.0
C606 C 0.51212 0.30282 0.96771 0.0
C607 C 0.51381 0.2909 0.00747 0.0
H608 H 0.3149 0.49867 0.42298 0.0
H609 H 0.20313 0.51271 0.43998 0.0
H610 H 0.21106 0.51184 0.51292 0.0
H611 H 0.24971 0.50873 0.57175 0.0
H612 H 0.36157 0.49522 0.55518 0.0
H613 H 0.35353 0.49426 0.48212 0.0
C614 C 0.29223 0.50134 0.44261 0.0
C615 C 0.25849 0.50584 0.42598 0.0
C616 C 0.29699 0.50108 0.48459 0.0
C617 C 0.22942 0.5093 0.45192 0.0
C618 C 0.23392 0.50884 0.49367 0.0
C619 C 0.27238 0.50553 0.55222 0.0
C620 C 0.30621 0.50218 0.56895 0.0
C621 C 0.2676 0.50506 0.5103 0.0
C622 C 0.33523 0.49793 0.54313 0.0
C623 C 0.33067 0.49737 0.50133 0.0
H624 H 0.98949 0.31514 0.04732 0.0
H625 H 0.98707 0.21306 0.1039 0.0
H626 H 0.99215 0.18469 0.03805 0.0
H627 H 0.99551 0.1888 0.9642 0.0
H628 H 0.99862 0.29105 0.90794 0.0
H629 H 0.99524 0.31929 0.97386 0.0
C630 C 0.99012 0.28669 0.04529 0.0
C631 C 0.98769 0.2663 0.0805 0.0
C632 C 0.99318 0.27051 0.00735 0.0
C633 C 0.98887 0.22943 0.07729 0.0
C634 C 0.99173 0.21315 0.03963 0.0
C635 C 0.99561 0.21726 0.96634 0.0
C636 C 0.99715 0.23771 0.93109 0.0
C637 C 0.99365 0.23342 0.00442 0.0
C638 C 0.99743 0.27459 0.93451 0.0
C639 C 0.99541 0.29082 0.97223 0.0
H640 H 0.27358 0.00184 0.42958 0.0
H641 H 0.18166 0.93804 0.40684 0.0
H642 H 0.16521 0.94191 0.47787 0.0
H643 H 0.17753 0.96236 0.54664 0.0
H644 H 0.27075 0.02402 0.56998 0.0
H645 H 0.28597 0.02219 0.49843 0.0
C646 C 0.24989 0.98886 0.44013 0.0
C647 C 0.22889 0.96968 0.41294 0.0
C648 C 0.24079 0.99084 0.4811 0.0
C649 C 0.19839 0.95284 0.42716 0.0
C650 C 0.1889 0.95511 0.46776 0.0
C651 C 0.20103 0.97564 0.53603 0.0
C652 C 0.22291 0.99339 0.56356 0.0
C653 C 0.20997 0.97393 0.49502 0.0
C654 C 0.25348 0.01013 0.5494 0.0
C655 C 0.26221 0.00909 0.50851 0.0
H656 H 0.47978 0.81338 0.95809 0.0
H657 H 0.49782 0.71269 0.90148 0.0
H658 H 0.50071 0.68464 0.96753 0.0
H659 H 0.49686 0.68849 0.04129 0.0
H660 H 0.48002 0.78944 0.09784 0.0
H661 H 0.47808 0.81757 0.03185 0.0
C662 C 0.48436 0.7853 0.96019 0.0
C663 C 0.4884 0.76515 0.92492 0.0
C664 C 0.48623 0.76937 0.99824 0.0
C665 C 0.49463 0.72883 0.92817 0.0
C666 C 0.49624 0.71274 0.96593 0.0
C667 C 0.49285 0.71665 0.03919 0.0
C668 C 0.48845 0.73677 0.07443 0.0
C669 C 0.49189 0.73272 0.00115 0.0
C670 C 0.48352 0.7733 0.07119 0.0
C671 C 0.48231 0.78943 0.03346 0.0
H672 H 0.80756 0.47303 0.54124 0.0
H673 H 0.70776 0.47917 0.60303 0.0
H674 H 0.67695 0.47972 0.53851 0.0
H675 H 0.67821 0.47777 0.46453 0.0
H676 H 0.77807 0.47311 0.40271 0.0
H677 H 0.8089 0.47264 0.46725 0.0
C678 C 0.77907 0.47453 0.54061 0.0
C679 C 0.76004 0.47595 0.57694 0.0
C680 C 0.76149 0.47503 0.50339 0.0
C681 C 0.72311 0.47811 0.57554 0.0
C682 C 0.70543 0.47834 0.53864 0.0
C683 C 0.70671 0.47659 0.46517 0.0
C684 C 0.72577 0.47533 0.42885 0.0
C685 C 0.72433 0.47667 0.50238 0.0
C686 C 0.76273 0.47413 0.43022 0.0
C687 C 0.78041 0.47383 0.46712 0.0
H688 H 0.01091 0.81653 0.02695 0.0
H689 H 0.01361 0.71514 0.08522 0.0
H690 H 0.01352 0.68594 0.01978 0.0
H691 H 0.01482 0.68902 0.94604 0.0
H692 H 0.01179 0.79018 0.88739 0.0
H693 H 0.00963 0.8195 0.95289 0.0
C694 C 0.01135 0.78805 0.02535 0.0
C695 C 0.01247 0.76813 0.061 0.0
C696 C 0.01127 0.77132 0.98752 0.0
C697 C 0.01282 0.73121 0.05831 0.0
C698 C 0.0128 0.71442 0.02086 0.0
C699 C 0.01352 0.71748 0.94753 0.0
C700 C 0.01365 0.73732 0.91183 0.0
C701 C 0.01235 0.7342 0.98528 0.0
C702 C 0.01175 0.7742 0.91438 0.0
C703 C 0.0106 0.79104 0.95185 0.0
H704 H 0.68559 0.01501 0.54975 0.0
H705 H 0.78526 0.03828 0.60618 0.0
H706 H 0.81473 0.03452 0.54087 0.0
H707 H 0.81215 0.02492 0.46757 0.0
H708 H 0.71249 0.00013 0.41179 0.0
H709 H 0.68321 0.00407 0.47699 0.0
C710 C 0.71375 0.01934 0.54777 0.0
C711 C 0.73314 0.02705 0.58276 0.0
C712 C 0.7306 0.01678 0.51022 0.0
C713 C 0.76968 0.03228 0.5797 0.0
C714 C 0.78658 0.03016 0.54236 0.0
C715 C 0.78404 0.02033 0.46968 0.0
C716 C 0.76459 0.01232 0.43478 0.0
C717 C 0.7673 0.02244 0.50739 0.0
C718 C 0.72818 0.00628 0.43813 0.0
C719 C 0.71134 0.0086 0.47543 0.0
loop_
_geom_bond_atom_site_label_1
_geom_bond_atom_site_label_2
_geom_bond_distance
_geom_bond_site_symmetry_2
_ccdc_geom_bond_type
C0 O1 1.160 . S
C0 O7 1.185 . S
O1 C0 1.160 . S
O2 Zn3 1.899 . S
O2 C10 1.284 . S
Zn3 O2 1.899 . S
Zn3 O4 2.032 . S
Zn3 O7 2.086 . S
Zn3 O12 1.977 . S
O4 Zn3 2.032 . S
O4 C8 1.278 . S
C5 O6 1.203 . S
C5 O12 1.267 . S
O6 C5 1.203 . S
O7 C0 1.185 . S
O7 Zn3 2.086 . S
C8 O4 1.278 . S
C8 O9 1.211 . S
O9 C8 1.211 . S
C10 O2 1.284 . S
C10 O11 1.273 . S
O11 C10 1.273 . S
O12 Zn3 1.977 . S
O12 C5 1.267 . S
C13 O14 1.160 . S
C13 O20 1.185 . S
O14 C13 1.160 . S
O15 Zn16 1.899 . S
O15 C23 1.284 . S
Zn16 O15 1.899 . S
Zn16 O17 2.032 . S
Zn16 O20 2.086 . S
Zn16 O25 1.977 . S
O17 Zn16 2.032 . S
O17 C21 1.278 . S
C18 O19 1.203 . S
C18 O25 1.267 . S
O19 C18 1.203 . S
O20 C13 1.185 . S
O20 Zn16 2.086 . S
C21 O17 1.278 . S
C21 O22 1.211 . S
O22 C21 1.211 . S
C23 O15 1.284 . S
C23 O24 1.273 . S
O24 C23 1.273 . S
O25 Zn16 1.977 . S
O25 C18 1.267 . S
C26 O27 1.160 . S
C26 O33 1.185 . S
O27 C26 1.160 . S
O28 Zn29 1.899 . S
O28 C36 1.284 . S
Zn29 O28 1.899 . S
Zn29 O30 2.032 . S
Zn29 O33 2.086 1_655 S
Zn29 O38 1.977 . S
O30 Zn29 2.032 . S
O30 C34 1.278 . S
C31 O32 1.203 . S
C31 O38 1.267 . S
O32 C31 1.203 . S
O33 C26 1.185 . S
O33 Zn29 2.086 1_455 S
C34 O30 1.278 . S
C34 O35 1.211 . S
O35 C34 1.211 . S
C36 O28 1.284 . S
C36 O37 1.273 . S
O37 C36 1.273 . S
O38 Zn29 1.977 . S
O38 C31 1.267 . S
C39 O40 1.160 . S
C39 O46 1.185 . S
O40 C39 1.160 . S
O41 Zn42 1.899 . S
O41 C49 1.284 . S
Zn42 O41 1.899 . S
Zn42 O43 2.032 . S
Zn42 O46 2.086 1_565 S
Zn42 O51 1.977 . S
O43 Zn42 2.032 . S
O43 C47 1.278 . S
C44 O45 1.203 . S
C44 O51 1.267 . S
O45 C44 1.203 . S
O46 C39 1.185 . S
O46 Zn42 2.086 1_545 S
C47 O43 1.278 . S
C47 O48 1.211 . S
O48 C47 1.211 . S
C49 O41 1.284 . S
C49 O50 1.273 . S
O50 C49 1.273 . S
O51 Zn42 1.977 . S
O51 C44 1.267 . S
C52 O53 1.160 . S
C52 O59 1.185 . S
O53 C52 1.160 . S
O54 Zn55 1.899 . S
O54 C62 1.284 . S
Zn55 O54 1.899 . S
Zn55 O56 2.032 . S
Zn55 O59 2.086 . S
Zn55 O64 1.977 . S
O56 Zn55 2.032 . S
O56 C60 1.278 . S
C57 O58 1.203 . S
C57 O64 1.267 . S
O58 C57 1.203 . S
O59 C52 1.185 . S
O59 Zn55 2.086 . S
C60 O56 1.278 . S
C60 O61 1.211 . S
O61 C60 1.211 . S
C62 O54 1.284 . S
C62 O63 1.273 . S
O63 C62 1.273 . S
O64 Zn55 1.977 . S
O64 C57 1.267 . S
C65 O66 1.160 . S
C65 O72 1.185 . S
O66 C65 1.160 . S
O67 Zn68 1.899 . S
O67 C75 1.284 . S
Zn68 O67 1.899 . S
Zn68 O69 2.032 . S
Zn68 O72 2.086 . S
Zn68 O77 1.977 . S
O69 Zn68 2.032 . S
O69 C73 1.278 . S
C70 O71 1.203 . S
C70 O77 1.267 . S
O71 C70 1.203 . S
O72 C65 1.185 . S
O72 Zn68 2.086 . S
C73 O69 1.278 . S
C73 O74 1.211 . S
O74 C73 1.211 . S
C75 O67 1.284 . S
C75 O76 1.273 . S
O76 C75 1.273 . S
O77 Zn68 1.977 . S
O77 C70 1.267 . S
C78 O79 1.160 . S
C78 O85 1.185 . S
O79 C78 1.160 . S
O80 Zn81 1.899 . S
O80 C88 1.284 . S
Zn81 O80 1.899 . S
Zn81 O82 2.032 . S
Zn81 O85 2.086 1_655 S
Zn81 O90 1.977 . S
O82 Zn81 2.032 . S
O82 C86 1.278 . S
C83 O84 1.203 . S
C83 O90 1.267 . S
O84 C83 1.203 . S
O85 C78 1.185 . S
O85 Zn81 2.086 1_455 S
C86 O82 1.278 . S
C86 O87 1.211 . S
O87 C86 1.211 . S
C88 O80 1.284 . S
C88 O89 1.273 . S
O89 C88 1.273 . S
O90 Zn81 1.977 . S
O90 C83 1.267 . S
C91 O92 1.160 . S
C91 O98 1.185 . S
O92 C91 1.160 . S
O93 Zn94 1.899 . S
O93 C101 1.284 . S
Zn94 O93 1.899 . S
Zn94 O95 2.032 . S
Zn94 O98 2.086 1_565 S
Zn94 O103 1.977 . S
O95 Zn94 2.032 . S
O95 C99 1.278 . S
C96 O97 1.203 . S
C96 O103 1.267 . S
O97 C96 1.203 . S
O98 C91 1.185 . S
O98 Zn94 2.086 1_545 S
C99 O95 1.278 . S
C99 O100 1.211 . S
O100 C99 1.211 . S
C101 O93 1.284 . S
C101 O102 1.273 . S
O102 C101 1.273 . S
O103 Zn94 1.977 . S
O103 C96 1.267 . S
C104 O105 1.160 . S
C104 O111 1.185 . S
O105 C104 1.160 . S
O106 Zn107 1.899 . S
O106 C114 1.284 . S
Zn107 O106 1.899 . S
Zn107 O108 2.032 . S
Zn107 O111 2.086 . S
Zn107 O116 1.977 . S
O108 Zn107 2.032 . S
O108 C112 1.278 . S
C109 O110 1.203 . S
C109 O116 1.267 . S
O110 C109 1.203 . S
O111 C104 1.185 . S
O111 Zn107 2.086 . S
C112 O108 1.278 . S
C112 O113 1.211 . S
O113 C112 1.211 . S
C114 O106 1.284 . S
C114 O115 1.273 . S
O115 C114 1.273 . S
O116 Zn107 1.977 . S
O116 C109 1.267 . S
C117 O118 1.160 . S
C117 O124 1.185 . S
O118 C117 1.160 . S
O119 Zn120 1.899 . S
O119 C127 1.284 . S
Zn120 O119 1.899 . S
Zn120 O121 2.032 . S
Zn120 O124 2.086 . S
Zn120 O129 1.977 . S
O121 Zn120 2.032 . S
O121 C125 1.278 . S
C122 O123 1.203 . S
C122 O129 1.267 . S
O123 C122 1.203 . S
O124 C117 1.185 . S
O124 Zn120 2.086 . S
C125 O121 1.278 . S
C125 O126 1.211 . S
O126 C125 1.211 . S
C127 O119 1.284 . S
C127 O128 1.273 . S
O128 C127 1.273 . S
O129 Zn120 1.977 . S
O129 C122 1.267 . S
C130 O131 1.160 . S
C130 O137 1.185 . S
O131 C130 1.160 . S
O132 Zn133 1.899 . S
O132 C140 1.284 . S
Zn133 O132 1.899 . S
Zn133 O134 2.032 . S
Zn133 O137 2.086 1_455 S
Zn133 O142 1.977 . S
O134 Zn133 2.032 . S
O134 C138 1.278 . S
C135 O136 1.203 . S
C135 O142 1.267 . S
O136 C135 1.203 . S
O137 C130 1.185 . S
O137 Zn133 2.086 1_655 S
C138 O134 1.278 . S
C138 O139 1.211 . S
O139 C138 1.211 . S
C140 O132 1.284 . S
C140 O141 1.273 . S
O141 C140 1.273 . S
O142 Zn133 1.977 . S
O142 C135 1.267 . S
C143 O144 1.160 . S
C143 O150 1.185 . S
O144 C143 1.160 . S
O145 Zn146 1.899 . S
O145 C153 1.284 . S
Zn146 O145 1.899 . S
Zn146 O147 2.032 . S
Zn146 O150 2.086 1_545 S
Zn146 O155 1.977 . S
O147 Zn146 2.032 . S
O147 C151 1.278 . S
C148 O149 1.203 . S
C148 O155 1.267 . S
O149 C148 1.203 . S
O150 C143 1.185 . S
O150 Zn146 2.086 1_565 S
C151 O147 1.278 . S
C151 O152 1.211 . S
O152 C151 1.211 . S
C153 O145 1.284 . S
C153 O154 1.273 . S
O154 C153 1.273 . S
O155 Zn146 1.977 . S
O155 C148 1.267 . S
C156 O157 1.160 . S
C156 O163 1.185 . S
O157 C156 1.160 . S
O158 Zn159 1.899 . S
O158 C166 1.284 . S
Zn159 O158 1.899 . S
Zn159 O160 2.032 . S
Zn159 O163 2.086 . S
Zn159 O168 1.977 . S
O160 Zn159 2.032 . S
O160 C164 1.278 . S
C161 O162 1.203 . S
C161 O168 1.267 . S
O162 C161 1.203 . S
O163 C156 1.185 . S
O163 Zn159 2.086 . S
C164 O160 1.278 . S
C164 O165 1.211 . S
O165 C164 1.211 . S
C166 O158 1.284 . S
C166 O167 1.273 . S
O167 C166 1.273 . S
O168 Zn159 1.977 . S
O168 C161 1.267 . S
C169 O170 1.160 . S
C169 O176 1.185 . S
O170 C169 1.160 . S
O171 Zn172 1.899 . S
O171 C179 1.284 . S
Zn172 O171 1.899 . S
Zn172 O173 2.032 . S
Zn172 O176 2.086 . S
Zn172 O181 1.977 . S
O173 Zn172 2.032 . S
O173 C177 1.278 . S
C174 O175 1.203 . S
C174 O181 1.267 . S
O175 C174 1.203 . S
O176 C169 1.185 . S
O176 Zn172 2.086 . S
C177 O173 1.278 . S
C177 O178 1.211 . S
O178 C177 1.211 . S
C179 O171 1.284 . S
C179 O180 1.273 . S
O180 C179 1.273 . S
O181 Zn172 1.977 . S
O181 C174 1.267 . S
C182 O183 1.160 . S
C182 O189 1.185 . S
O183 C182 1.160 . S
O184 Zn185 1.899 . S
O184 C192 1.284 . S
Zn185 O184 1.899 . S
Zn185 O186 2.032 . S
Zn185 O189 2.086 1_455 S
Zn185 O194 1.977 . S
O186 Zn185 2.032 . S
O186 C190 1.278 . S
C187 O188 1.203 . S
C187 O194 1.267 . S
O188 C187 1.203 . S
O189 C182 1.185 . S
O189 Zn185 2.086 1_655 S
C190 O186 1.278 . S
C190 O191 1.211 . S
O191 C190 1.211 . S
C192 O184 1.284 . S
C192 O193 1.273 . S
O193 C192 1.273 . S
O194 Zn185 1.977 . S
O194 C187 1.267 . S
C195 O196 1.160 . S
C195 O202 1.185 . S
O196 C195 1.160 . S
O197 Zn198 1.899 . S
O197 C205 1.284 . S
Zn198 O197 1.899 . S
Zn198 O199 2.032 . S
Zn198 O202 2.086 1_545 S
Zn198 O207 1.977 . S
O199 Zn198 2.032 . S
O199 C203 1.278 . S
C200 O201 1.203 . S
C200 O207 1.267 . S
O201 C200 1.203 . S
O202 C195 1.185 . S
O202 Zn198 2.086 1_565 S
C203 O199 1.278 . S
C203 O204 1.211 . S
O204 C203 1.211 . S
C205 O197 1.284 . S
C205 O206 1.273 . S
O206 C205 1.273 . S
O207 Zn198 1.977 . S
O207 C200 1.267 . S
H208 C214 0.930 . S
H209 C217 0.930 . S
H210 C218 0.930 . S
H211 C219 0.930 . S
H212 C222 0.930 . S
H213 C223 0.930 . S
C214 H208 0.930 . S
C214 C215 1.355 . S
C214 C216 1.415 . S
C215 C214 1.355 . S
C215 C217 1.419 . S
C216 C214 1.415 . S
C216 C221 1.425 . S
C216 C223 1.409 . S
C217 H209 0.930 . S
C217 C215 1.419 . S
C217 C218 1.362 . S
C218 H210 0.930 . S
C218 C217 1.362 . S
C218 C221 1.409 . S
C219 H211 0.930 . S
C219 C220 1.355 . S
C219 C221 1.415 . S
C220 C219 1.355 . S
C220 C222 1.419 . S
C221 C216 1.425 . S
C221 C218 1.409 . S
C221 C219 1.415 . S
C222 H212 0.930 . S
C222 C220 1.419 . S
C222 C223 1.362 . S
C223 H213 0.930 . S
C223 C216 1.409 . S
C223 C222 1.362 . S
H224 C230 0.930 . S
H225 C233 0.930 . S
H226 C234 0.930 . S
H227 C235 0.930 . S
H228 C238 0.930 . S
H229 C239 0.930 . S
C230 H224 0.930 . S
C230 C231 1.355 . S
C230 C232 1.415 . S
C231 C230 1.355 . S
C231 C233 1.419 . S
C232 C230 1.415 . S
C232 C237 1.425 . S
C232 C239 1.409 . S
C233 H225 0.930 . S
C233 C231 1.419 . S
C233 C234 1.362 . S
C234 H226 0.930 . S
C234 C233 1.362 . S
C234 C237 1.409 . S
C235 H227 0.930 . S
C235 C236 1.355 . S
C235 C237 1.415 . S
C236 C235 1.355 . S
C236 C238 1.419 . S
C237 C232 1.425 . S
C237 C234 1.409 . S
C237 C235 1.415 . S
C238 H228 0.930 . S
C238 C236 1.419 . S
C238 C239 1.362 . S
C239 H229 0.930 . S
C239 C232 1.409 . S
C239 C238 1.362 . S
H240 C246 0.930 . S
H241 C249 0.930 . S
H242 C250 0.930 . S
H243 C251 0.930 . S
H244 C254 0.930 . S
H245 C255 0.930 . S
C246 H240 0.930 . S
C246 C247 1.355 . S
C246 C248 1.415 . S
C247 C246 1.355 . S
C247 C249 1.419 . S
C248 C246 1.415 . S
C248 C253 1.425 . S
C248 C255 1.409 . S
C249 H241 0.930 . S
C249 C247 1.419 . S
C249 C250 1.362 . S
C250 H242 0.930 . S
C250 C249 1.362 . S
C250 C253 1.409 . S
C251 H243 0.930 . S
C251 C252 1.355 . S
C251 C253 1.415 . S
C252 C251 1.355 . S
C252 C254 1.419 . S
C253 C248 1.425 . S
C253 C250 1.409 . S
C253 C251 1.415 . S
C254 H244 0.930 . S
C254 C252 1.419 . S
C254 C255 1.362 . S
C255 H245 0.930 . S
C255 C248 1.409 . S
C255 C254 1.362 . S
H256 C262 0.930 . S
H257 C265 0.930 . S
H258 C266 0.930 . S
H259 C267 0.930 . S
H260 C270 0.930 . S
H261 C271 0.930 . S
C262 H256 0.930 . S
C262 C263 1.355 . S
C262 C264 1.415 . S
C263 C262 1.355 . S
C263 C265 1.419 . S
C264 C262 1.415 . S
C264 C269 1.425 . S
C264 C271 1.409 . S
C265 H257 0.930 . S
C265 C263 1.419 . S
C265 C266 1.362 . S
C266 H258 0.930 . S
C266 C265 1.362 . S
C266 C269 1.409 . S
C267 H259 0.930 . S
C267 C268 1.355 . S
C267 C269 1.415 . S
C268 C267 1.355 . S
C268 C270 1.419 . S
C269 C264 1.425 . S
C269 C266 1.409 . S
C269 C267 1.415 . S
C270 H260 0.930 . S
C270 C268 1.419 . S
C270 C271 1.362 . S
C271 H261 0.930 . S
C271 C264 1.409 . S
C271 C270 1.362 . S
H272 C278 0.930 . S
H273 C281 0.930 . S
H274 C282 0.930 . S
H275 C283 0.930 . S
H276 C286 0.930 . S
H277 C287 0.930 . S
C278 H272 0.930 . S
C278 C279 1.355 . S
C278 C280 1.415 . S
C279 C278 1.355 . S
C279 C281 1.419 . S
C280 C278 1.415 . S
C280 C285 1.425 . S
C280 C287 1.409 . S
C281 H273 0.930 . S
C281 C279 1.419 . S
C281 C282 1.362 . S
C282 H274 0.930 . S
C282 C281 1.362 . S
C282 C285 1.409 . S
C283 H275 0.930 . S
C283 C284 1.355 . S
C283 C285 1.415 . S
C284 C283 1.355 . S
C284 C286 1.419 . S
C285 C280 1.425 . S
C285 C282 1.409 . S
C285 C283 1.415 . S
C286 H276 0.930 . S
C286 C284 1.419 . S
C286 C287 1.362 . S
C287 H277 0.930 . S
C287 C280 1.409 . S
C287 C286 1.362 . S
H288 C294 0.930 . S
H289 C297 0.930 . S
H290 C298 0.930 . S
H291 C299 0.930 . S
H292 C302 0.930 . S
H293 C303 0.930 . S
C294 H288 0.930 . S
C294 C295 1.355 . S
C294 C296 1.415 . S
C295 C294 1.355 . S
C295 C297 1.419 . S
C296 C294 1.415 . S
C296 C301 1.425 . S
C296 C303 1.409 . S
C297 H289 0.930 . S
C297 C295 1.419 . S
C297 C298 1.362 . S
C298 H290 0.930 . S
C298 C297 1.362 . S
C298 C301 1.409 . S
C299 H291 0.930 . S
C299 C300 1.355 . S
C299 C301 1.415 . S
C300 C299 1.355 . S
C300 C302 1.419 . S
C301 C296 1.425 . S
C301 C298 1.409 . S
C301 C299 1.415 . S
C302 H292 0.930 . S
C302 C300 1.419 . S
C302 C303 1.362 . S
C303 H293 0.930 . S
C303 C296 1.409 . S
C303 C302 1.362 . S
H304 C310 0.930 . S
H305 C313 0.930 . S
H306 C314 0.930 . S
H307 C315 0.930 . S
H308 C318 0.930 . S
H309 C319 0.930 . S
C310 H304 0.930 . S
C310 C311 1.355 . S
C310 C312 1.415 . S
C311 C310 1.355 . S
C311 C313 1.419 . S
C312 C310 1.415 . S
C312 C317 1.425 . S
C312 C319 1.409 . S
C313 H305 0.930 . S
C313 C311 1.419 . S
C313 C314 1.362 . S
C314 H306 0.930 . S
C314 C313 1.362 . S
C314 C317 1.409 . S
C315 H307 0.930 . S
C315 C316 1.355 . S
C315 C317 1.415 . S
C316 C315 1.355 . S
C316 C318 1.419 . S
C317 C312 1.425 . S
C317 C314 1.409 . S
C317 C315 1.415 . S
C318 H308 0.930 . S
C318 C316 1.419 . S
C318 C319 1.362 . S
C319 H309 0.930 . S
C319 C312 1.409 . S
C319 C318 1.362 . S
H320 C326 0.930 . S
H321 C329 0.930 . S
H322 C330 0.930 . S
H323 C331 0.930 . S
H324 C334 0.930 . S
H325 C335 0.930 . S
C326 H320 0.930 . S
C326 C327 1.355 . S
C326 C328 1.415 . S
C327 C326 1.355 . S
C327 C329 1.419 . S
C328 C326 1.415 . S
C328 C333 1.425 . S
C328 C335 1.409 . S
C329 H321 0.930 . S
C329 C327 1.419 . S
C329 C330 1.362 . S
C330 H322 0.930 . S
C330 C329 1.362 . S
C330 C333 1.409 . S
C331 H323 0.930 . S
C331 C332 1.355 . S
C331 C333 1.415 . S
C332 C331 1.355 . S
C332 C334 1.419 . S
C333 C328 1.425 . S
C333 C330 1.409 . S
C333 C331 1.415 . S
C334 H324 0.930 . S
C334 C332 1.419 . S
C334 C335 1.362 . S
C335 H325 0.930 . S
C335 C328 1.409 . S
C335 C334 1.362 . S
H336 C342 0.930 . S
H337 C345 0.930 . S
H338 C346 0.930 . S
H339 C347 0.930 . S
H340 C350 0.930 . S
H341 C351 0.930 . S
C342 H336 0.930 . S
C342 C343 1.355 . S
C342 C344 1.415 . S
C343 C342 1.355 . S
C343 C345 1.419 . S
C344 C342 1.415 . S
C344 C349 1.425 . S
C344 C351 1.409 . S
C345 H337 0.930 . S
C345 C343 1.419 . S
C345 C346 1.362 . S
C346 H338 0.930 . S
C346 C345 1.362 . S
C346 C349 1.409 . S
C347 H339 0.930 . S
C347 C348 1.355 . S
C347 C349 1.415 . S
C348 C347 1.355 . S
C348 C350 1.419 . S
C349 C344 1.425 . S
C349 C346 1.409 . S
C349 C347 1.415 . S
C350 H340 0.930 . S
C350 C348 1.419 . S
C350 C351 1.362 . S
C351 H341 0.930 . S
C351 C344 1.409 . S
C351 C350 1.362 . S
H352 C358 0.930 . S
H353 C361 0.930 . S
H354 C362 0.930 . S
H355 C363 0.930 . S
H356 C366 0.930 . S
H357 C367 0.930 . S
C358 H352 0.930 . S
C358 C359 1.355 . S
C358 C360 1.415 . S
C359 C358 1.355 . S
C359 C361 1.419 . S
C360 C358 1.415 . S
C360 C365 1.425 . S
C360 C367 1.409 . S
C361 H353 0.930 . S
C361 C359 1.419 . S
C361 C362 1.362 . S
C362 H354 0.930 . S
C362 C361 1.362 . S
C362 C365 1.409 . S
C363 H355 0.930 . S
C363 C364 1.355 . S
C363 C365 1.415 . S
C364 C363 1.355 . S
C364 C366 1.419 . S
C365 C360 1.425 . S
C365 C362 1.409 . S
C365 C363 1.415 . S
C366 H356 0.930 . S
C366 C364 1.419 . S
C366 C367 1.362 . S
C367 H357 0.930 . S
C367 C360 1.409 . S
C367 C366 1.362 . S
H368 C374 0.930 . S
H369 C377 0.930 . S
H370 C378 0.930 . S
H371 C379 0.930 . S
H372 C382 0.930 . S
H373 C383 0.930 . S
C374 H368 0.930 . S
C374 C375 1.355 . S
C374 C376 1.415 . S
C375 C374 1.355 . S
C375 C377 1.419 . S
C376 C374 1.415 . S
C376 C381 1.425 . S
C376 C383 1.409 . S
C377 H369 0.930 . S
C377 C375 1.419 . S
C377 C378 1.362 . S
C378 H370 0.930 . S
C378 C377 1.362 . S
C378 C381 1.409 . S
C379 H371 0.930 . S
C379 C380 1.355 . S
C379 C381 1.415 . S
C380 C379 1.355 . S
C380 C382 1.419 . S
C381 C376 1.425 . S
C381 C378 1.409 . S
C381 C379 1.415 . S
C382 H372 0.930 . S
C382 C380 1.419 . S
C382 C383 1.362 . S
C383 H373 0.930 . S
C383 C376 1.409 . S
C383 C382 1.362 . S
H384 C390 0.930 . S
H385 C393 0.930 . S
H386 C394 0.930 . S
H387 C395 0.930 . S
H388 C398 0.930 . S
H389 C399 0.930 . S
C390 H384 0.930 . S
C390 C391 1.355 . S
C390 C392 1.415 . S
C391 C390 1.355 . S
C391 C393 1.419 . S
C392 C390 1.415 . S
C392 C397 1.425 . S
C392 C399 1.409 . S
C393 H385 0.930 . S
C393 C391 1.419 . S
C393 C394 1.362 . S
C394 H386 0.930 . S
C394 C393 1.362 . S
C394 C397 1.409 . S
C395 H387 0.930 . S
C395 C396 1.355 . S
C395 C397 1.415 . S
C396 C395 1.355 . S
C396 C398 1.419 . S
C397 C392 1.425 . S
C397 C394 1.409 . S
C397 C395 1.415 . S
C398 H388 0.930 . S
C398 C396 1.419 . S
C398 C399 1.362 . S
C399 H389 0.930 . S
C399 C392 1.409 . S
C399 C398 1.362 . S
H400 C406 0.930 . S
H401 C409 0.930 . S
H402 C410 0.930 . S
H403 C411 0.930 . S
H404 C414 0.930 . S
H405 C415 0.930 . S
C406 H400 0.930 . S
C406 C407 1.355 . S
C406 C408 1.415 . S
C407 C406 1.355 . S
C407 C409 1.419 . S
C408 C406 1.415 . S
C408 C413 1.425 . S
C408 C415 1.409 . S
C409 H401 0.930 . S
C409 C407 1.419 . S
C409 C410 1.362 . S
C410 H402 0.930 . S
C410 C409 1.362 . S
C410 C413 1.409 . S
C411 H403 0.930 . S
C411 C412 1.355 . S
C411 C413 1.415 . S
C412 C411 1.355 . S
C412 C414 1.419 . S
C413 C408 1.425 . S
C413 C410 1.409 . S
C413 C411 1.415 . S
C414 H404 0.930 . S
C414 C412 1.419 . S
C414 C415 1.362 . S
C415 H405 0.930 . S
C415 C408 1.409 . S
C415 C414 1.362 . S
H416 C422 0.930 . S
H417 C425 0.930 . S
H418 C426 0.930 . S
H419 C427 0.930 . S
H420 C430 0.930 . S
H421 C431 0.930 . S
C422 H416 0.930 . S
C422 C423 1.355 . S
C422 C424 1.415 . S
C423 C422 1.355 . S
C423 C425 1.419 . S
C424 C422 1.415 . S
C424 C429 1.425 . S
C424 C431 1.409 . S
C425 H417 0.930 . S
C425 C423 1.419 . S
C425 C426 1.362 . S
C426 H418 0.930 . S
C426 C425 1.362 . S
C426 C429 1.409 . S
C427 H419 0.930 . S
C427 C428 1.355 . S
C427 C429 1.415 . S
C428 C427 1.355 . S
C428 C430 1.419 . S
C429 C424 1.425 . S
C429 C426 1.409 . S
C429 C427 1.415 . S
C430 H420 0.930 . S
C430 C428 1.419 . S
C430 C431 1.362 . S
C431 H421 0.930 . S
C431 C424 1.409 . S
C431 C430 1.362 . S
H432 C438 0.930 . S
H433 C441 0.930 . S
H434 C442 0.930 . S
H435 C443 0.930 . S
H436 C446 0.930 . S
H437 C447 0.930 . S
C438 H432 0.930 . S
C438 C439 1.355 . S
C438 C440 1.415 . S
C439 C438 1.355 . S
C439 C441 1.419 . S
C440 C438 1.415 . S
C440 C445 1.425 . S
C440 C447 1.409 . S
C441 H433 0.930 . S
C441 C439 1.419 . S
C441 C442 1.362 . S
C442 H434 0.930 . S
C442 C441 1.362 . S
C442 C445 1.409 . S
C443 H435 0.930 . S
C443 C444 1.355 . S
C443 C445 1.415 . S
C444 C443 1.355 . S
C444 C446 1.419 . S
C445 C440 1.425 . S
C445 C442 1.409 . S
C445 C443 1.415 . S
C446 H436 0.930 . S
C446 C444 1.419 . S
C446 C447 1.362 . S
C447 H437 0.930 . S
C447 C440 1.409 . S
C447 C446 1.362 . S
H448 C454 0.930 . S
H449 C457 0.930 . S
H450 C458 0.930 . S
H451 C459 0.930 . S
H452 C462 0.930 . S
H453 C463 0.930 . S
C454 H448 0.930 . S
C454 C455 1.355 . S
C454 C456 1.415 . S
C455 C454 1.355 . S
C455 C457 1.419 . S
C456 C454 1.415 . S
C456 C461 1.425 . S
C456 C463 1.409 . S
C457 H449 0.930 . S
C457 C455 1.419 . S
C457 C458 1.362 . S
C458 H450 0.930 . S
C458 C457 1.362 . S
C458 C461 1.409 . S
C459 H451 0.930 . S
C459 C460 1.355 . S
C459 C461 1.415 . S
C460 C459 1.355 . S
C460 C462 1.419 . S
C461 C456 1.425 . S
C461 C458 1.409 . S
C461 C459 1.415 . S
C462 H452 0.930 . S
C462 C460 1.419 . S
C462 C463 1.362 . S
C463 H453 0.930 . S
C463 C456 1.409 . S
C463 C462 1.362 . S
H464 C470 0.930 . S
H465 C473 0.930 . S
H466 C474 0.930 . S
H467 C475 0.930 . S
H468 C478 0.930 . S
H469 C479 0.930 . S
C470 H464 0.930 . S
C470 C471 1.355 . S
C470 C472 1.415 . S
C471 C470 1.355 . S
C471 C473 1.419 . S
C472 C470 1.415 . S
C472 C477 1.425 . S
C472 C479 1.409 . S
C473 H465 0.930 . S
C473 C471 1.419 . S
C473 C474 1.362 . S
C474 H466 0.930 . S
C474 C473 1.362 . S
C474 C477 1.409 . S
C475 H467 0.930 . S
C475 C476 1.355 . S
C475 C477 1.415 . S
C476 C475 1.355 . S
C476 C478 1.419 . S
C477 C472 1.425 . S
C477 C474 1.409 . S
C477 C475 1.415 . S
C478 H468 0.930 . S
C478 C476 1.419 . S
C478 C479 1.362 . S
C479 H469 0.930 . S
C479 C472 1.409 . S
C479 C478 1.362 . S
H480 C486 0.930 . S
H481 C489 0.930 . S
H482 C490 0.930 . S
H483 C491 0.930 . S
H484 C494 0.930 . S
H485 C495 0.930 . S
C486 H480 0.930 . S
C486 C487 1.355 . S
C486 C488 1.415 . S
C487 C486 1.355 . S
C487 C489 1.419 . S
C488 C486 1.415 . S
C488 C493 1.425 . S
C488 C495 1.409 . S
C489 H481 0.930 . S
C489 C487 1.419 . S
C489 C490 1.362 . S
C490 H482 0.930 . S
C490 C489 1.362 . S
C490 C493 1.409 . S
C491 H483 0.930 . S
C491 C492 1.355 . S
C491 C493 1.415 . S
C492 C491 1.355 . S
C492 C494 1.419 . S
C493 C488 1.425 . S
C493 C490 1.409 . S
C493 C491 1.415 . S
C494 H484 0.930 . S
C494 C492 1.419 . S
C494 C495 1.362 . S
C495 H485 0.930 . S
C495 C488 1.409 . S
C495 C494 1.362 . S
H496 C502 0.930 . S
H497 C505 0.930 . S
H498 C506 0.930 . S
H499 C507 0.930 . S
H500 C510 0.930 . S
H501 C511 0.930 . S
C502 H496 0.930 . S
C502 C503 1.355 . S
C502 C504 1.415 . S
C503 C502 1.355 . S
C503 C505 1.419 . S
C504 C502 1.415 . S
C504 C509 1.425 . S
C504 C511 1.409 . S
C505 H497 0.930 . S
C505 C503 1.419 . S
C505 C506 1.362 . S
C506 H498 0.930 . S
C506 C505 1.362 . S
C506 C509 1.409 . S
C507 H499 0.930 . S
C507 C508 1.355 . S
C507 C509 1.415 . S
C508 C507 1.355 . S
C508 C510 1.419 . S
C509 C504 1.425 . S
C509 C506 1.409 . S
C509 C507 1.415 . S
C510 H500 0.930 . S
C510 C508 1.419 . S
C510 C511 1.362 . S
C511 H501 0.930 . S
C511 C504 1.409 . S
C511 C510 1.362 . S
H512 C518 0.930 . S
H513 C521 0.930 . S
H514 C522 0.930 . S
H515 C523 0.930 . S
H516 C526 0.930 . S
H517 C527 0.930 . S
C518 H512 0.930 . S
C518 C519 1.355 . S
C518 C520 1.415 . S
C519 C518 1.355 . S
C519 C521 1.419 . S
C520 C518 1.415 . S
C520 C525 1.425 . S
C520 C527 1.409 . S
C521 H513 0.930 . S
C521 C519 1.419 . S
C521 C522 1.362 . S
C522 H514 0.930 . S
C522 C521 1.362 . S
C522 C525 1.409 . S
C523 H515 0.930 . S
C523 C524 1.355 . S
C523 C525 1.415 . S
C524 C523 1.355 . S
C524 C526 1.419 . S
C525 C520 1.425 . S
C525 C522 1.409 . S
C525 C523 1.415 . S
C526 H516 0.930 . S
C526 C524 1.419 . S
C526 C527 1.362 . S
C527 H517 0.930 . S
C527 C520 1.409 . S
C527 C526 1.362 . S
H528 C534 0.930 . S
H529 C537 0.930 . S
H530 C538 0.930 . S
H531 C539 0.930 . S
H532 C542 0.930 . S
H533 C543 0.930 . S
C534 H528 0.930 . S
C534 C535 1.355 . S
C534 C536 1.415 . S
C535 C534 1.355 . S
C535 C537 1.419 . S
C536 C534 1.415 . S
C536 C541 1.425 . S
C536 C543 1.409 . S
C537 H529 0.930 . S
C537 C535 1.419 . S
C537 C538 1.362 . S
C538 H530 0.930 . S
C538 C537 1.362 . S
C538 C541 1.409 . S
C539 H531 0.930 . S
C539 C540 1.355 . S
C539 C541 1.415 . S
C540 C539 1.355 . S
C540 C542 1.419 . S
C541 C536 1.425 . S
C541 C538 1.409 . S
C541 C539 1.415 . S
C542 H532 0.930 . S
C542 C540 1.419 . S
C542 C543 1.362 . S
C543 H533 0.930 . S
C543 C536 1.409 . S
C543 C542 1.362 . S
H544 C550 0.930 . S
H545 C553 0.930 . S
H546 C554 0.930 . S
H547 C555 0.930 . S
H548 C558 0.930 . S
H549 C559 0.930 . S
C550 H544 0.930 . S
C550 C551 1.355 . S
C550 C552 1.415 . S
C551 C550 1.355 . S
C551 C553 1.419 . S
C552 C550 1.415 . S
C552 C557 1.425 . S
C552 C559 1.409 . S
C553 H545 0.930 . S
C553 C551 1.419 . S
C553 C554 1.362 . S
C554 H546 0.930 . S
C554 C553 1.362 . S
C554 C557 1.409 . S
C555 H547 0.930 . S
C555 C556 1.355 . S
C555 C557 1.415 . S
C556 C555 1.355 . S
C556 C558 1.419 . S
C557 C552 1.425 . S
C557 C554 1.409 . S
C557 C555 1.415 . S
C558 H548 0.930 . S
C558 C556 1.419 . S
C558 C559 1.362 . S
C559 H549 0.930 . S
C559 C552 1.409 . S
C559 C558 1.362 . S
H560 C566 0.930 . S
H561 C569 0.930 . S
H562 C570 0.930 . S
H563 C571 0.930 . S
H564 C574 0.930 . S
H565 C575 0.930 . S
C566 H560 0.930 . S
C566 C567 1.355 . S
C566 C568 1.415 . S
C567 C566 1.355 . S
C567 C569 1.419 . S
C568 C566 1.415 . S
C568 C573 1.425 . S
C568 C575 1.409 . S
C569 H561 0.930 . S
C569 C567 1.419 . S
C569 C570 1.362 . S
C570 H562 0.930 . S
C570 C569 1.362 . S
C570 C573 1.409 . S
C571 H563 0.930 . S
C571 C572 1.355 . S
C571 C573 1.415 . S
C572 C571 1.355 . S
C572 C574 1.419 . S
C573 C568 1.425 . S
C573 C570 1.409 . S
C573 C571 1.415 . S
C574 H564 0.930 . S
C574 C572 1.419 . S
C574 C575 1.362 . S
C575 H565 0.930 . S
C575 C568 1.409 . S
C575 C574 1.362 . S
H576 C582 0.930 . S
H577 C585 0.930 . S
H578 C586 0.930 . S
H579 C587 0.930 . S
H580 C590 0.930 . S
H581 C591 0.930 . S
C582 H576 0.930 . S
C582 C583 1.355 . S
C582 C584 1.415 . S
C583 C582 1.355 . S
C583 C585 1.419 . S
C584 C582 1.415 . S
C584 C589 1.425 . S
C584 C591 1.409 . S
C585 H577 0.930 . S
C585 C583 1.419 . S
C585 C586 1.362 . S
C586 H578 0.930 . S
C586 C585 1.362 . S
C586 C589 1.409 . S
C587 H579 0.930 . S
C587 C588 1.355 . S
C587 C589 1.415 . S
C588 C587 1.355 . S
C588 C590 1.419 . S
C589 C584 1.425 . S
C589 C586 1.409 . S
C589 C587 1.415 . S
C590 H580 0.930 . S
C590 C588 1.419 . S
C590 C591 1.362 . S
C591 H581 0.930 . S
C591 C584 1.409 . S
C591 C590 1.362 . S
H592 C598 0.930 . S
H593 C601 0.930 . S
H594 C602 0.930 1_556 S
H595 C603 0.930 . S
H596 C606 0.930 . S
H597 C607 0.930 1_554 S
C598 H592 0.930 . S
C598 C599 1.355 . S
C598 C600 1.415 . S
C599 C598 1.355 . S
C599 C601 1.419 . S
C600 C598 1.415 . S
C600 C605 1.425 1_554 S
C600 C607 1.409 1_554 S
C601 H593 0.930 . S
C601 C599 1.419 . S
C601 C602 1.362 . S
C602 H594 0.930 1_554 S
C602 C601 1.362 . S
C602 C605 1.409 1_554 S
C603 H595 0.930 . S
C603 C604 1.355 . S
C603 C605 1.415 . S
C604 C603 1.355 . S
C604 C606 1.419 . S
C605 C600 1.425 1_556 S
C605 C602 1.409 1_556 S
C605 C603 1.415 . S
C606 H596 0.930 . S
C606 C604 1.419 . S
C606 C607 1.362 . S
C607 H597 0.930 1_556 S
C607 C600 1.409 1_556 S
C607 C606 1.362 . S
H608 C614 0.930 . S
H609 C617 0.930 . S
H610 C618 0.930 . S
H611 C619 0.930 . S
H612 C622 0.930 . S
H613 C623 0.930 . S
C614 H608 0.930 . S
C614 C615 1.355 . S
C614 C616 1.415 . S
C615 C614 1.355 . S
C615 C617 1.419 . S
C616 C614 1.415 . S
C616 C621 1.425 . S
C616 C623 1.409 . S
C617 H609 0.930 . S
C617 C615 1.419 . S
C617 C618 1.362 . S
C618 H610 0.930 . S
C618 C617 1.362 . S
C618 C621 1.409 . S
C619 H611 0.930 . S
C619 C620 1.355 . S
C619 C621 1.415 . S
C620 C619 1.355 . S
C620 C622 1.419 . S
C621 C616 1.425 . S
C621 C618 1.409 . S
C621 C619 1.415 . S
C622 H612 0.930 . S
C622 C620 1.419 . S
C622 C623 1.362 . S
C623 H613 0.930 . S
C623 C616 1.409 . S
C623 C622 1.362 . S
H624 C630 0.930 . S
H625 C633 0.930 1_455 S
H626 C634 0.933 . S
H627 C635 0.930 1_455 S
H628 C638 0.930 . S
H629 C639 0.930 . S
C630 H624 0.930 . S
C630 C631 1.355 . S
C630 C632 1.415 . S
C631 C630 1.355 . S
C631 C633 1.419 . S
C632 C630 1.415 . S
C632 C637 1.425 1_554 S
C632 C639 1.409 1_554 S
C633 H625 0.930 1_655 S
C633 C631 1.419 . S
C633 C634 1.362 1_655 S
C634 H626 0.933 . S
C634 C633 1.362 1_455 S
C634 C637 1.407 1_454 S
C635 H627 0.930 1_655 S
C635 C636 1.355 . S
C635 C637 1.415 . S
C636 C635 1.355 . S
C636 C638 1.419 . S
C637 C632 1.425 1_556 S
C637 C634 1.407 1_656 S
C637 C635 1.415 . S
C638 H628 0.930 . S
C638 C636 1.419 . S
C638 C639 1.362 . S
C639 H629 0.930 . S
C639 C632 1.409 1_556 S
C639 C638 1.362 . S
H640 C646 0.930 . S
H641 C649 0.930 . S
H642 C650 0.930 . S
H643 C651 0.930 . S
H644 C654 0.930 . S
H645 C655 0.930 . S
C646 H640 0.930 . S
C646 C647 1.355 1_545 S
C646 C648 1.415 1_545 S
C647 C646 1.355 1_565 S
C647 C649 1.419 . S
C648 C646 1.415 1_565 S
C648 C653 1.425 . S
C648 C655 1.409 1_565 S
C649 H641 0.930 . S
C649 C647 1.419 . S
C649 C650 1.362 . S
C650 H642 0.930 . S
C650 C649 1.362 . S
C650 C653 1.409 . S
C651 H643 0.930 . S
C651 C652 1.355 . S
C651 C653 1.415 . S
C652 C651 1.355 . S
C652 C654 1.419 1_565 S
C653 C648 1.425 . S
C653 C650 1.409 . S
C653 C651 1.415 . S
C654 H644 0.930 . S
C654 C652 1.419 1_545 S
C654 C655 1.362 . S
C655 H645 0.930 . S
C655 C648 1.409 1_545 S
C655 C654 1.362 . S
H656 C662 0.930 . S
H657 C665 0.930 . S
H658 C666 0.930 . S
H659 C667 0.930 . S
H660 C670 0.930 . S
H661 C671 0.930 . S
C662 H656 0.930 . S
C662 C663 1.355 . S
C662 C664 1.415 . S
C663 C662 1.355 . S
C663 C665 1.419 . S
C664 C662 1.415 . S
C664 C669 1.425 1_556 S
C664 C671 1.409 1_556 S
C665 H657 0.930 . S
C665 C663 1.419 . S
C665 C666 1.362 . S
C666 H658 0.930 . S
C666 C665 1.362 . S
C666 C669 1.409 1_556 S
C667 H659 0.930 . S
C667 C668 1.355 . S
C667 C669 1.415 . S
C668 C667 1.355 . S
C668 C670 1.419 . S
C669 C664 1.425 1_554 S
C669 C666 1.409 1_554 S
C669 C667 1.415 . S
C670 H660 0.930 . S
C670 C668 1.419 . S
C670 C671 1.362 . S
C671 H661 0.930 . S
C671 C664 1.409 1_554 S
C671 C670 1.362 . S
H672 C678 0.930 . S
H673 C681 0.930 . S
H674 C682 0.930 . S
H675 C683 0.930 . S
H676 C686 0.930 . S
H677 C687 0.930 . S
C678 H672 0.930 . S
C678 C679 1.355 . S
C678 C680 1.415 . S
C679 C678 1.355 . S
C679 C681 1.419 . S
C680 C678 1.415 . S
C680 C685 1.425 . S
C680 C687 1.409 . S
C681 H673 0.930 . S
C681 C679 1.419 . S
C681 C682 1.362 . S
C682 H674 0.930 . S
C682 C681 1.362 . S
C682 C685 1.409 . S
C683 H675 0.930 . S
C683 C684 1.355 . S
C683 C685 1.415 . S
C684 C683 1.355 . S
C684 C686 1.419 . S
C685 C680 1.425 . S
C685 C682 1.409 . S
C685 C683 1.415 . S
C686 H676 0.930 . S
C686 C684 1.419 . S
C686 C687 1.362 . S
C687 H677 0.930 . S
C687 C680 1.409 . S
C687 C686 1.362 . S
H688 C694 0.930 . S
H689 C697 0.930 . S
H690 C698 0.930 . S
H691 C699 0.930 . S
H692 C702 0.930 . S
H693 C703 0.939 . S
C694 H688 0.930 . S
C694 C695 1.355 . S
C694 C696 1.415 . S
C695 C694 1.355 . S
C695 C697 1.419 . S
C696 C694 1.415 . S
C696 C701 1.425 1_554 S
C696 C703 1.409 1_554 S
C697 H689 0.930 . S
C697 C695 1.419 . S
C697 C698 1.362 . S
C698 H690 0.930 . S
C698 C697 1.362 . S
C698 C701 1.409 1_554 S
C699 H691 0.930 . S
C699 C700 1.355 . S
C699 C701 1.415 . S
C700 C699 1.355 . S
C700 C702 1.419 . S
C701 C696 1.425 1_556 S
C701 C698 1.409 1_556 S
C701 C699 1.415 . S
C702 H692 0.930 . S
C702 C700 1.419 . S
C702 C703 1.362 . S
C703 H693 0.939 . S
C703 C696 1.409 1_556 S
C703 C702 1.362 . S
H704 C710 0.930 . S
H705 C713 0.930 . S
H706 C714 0.930 . S
H707 C715 0.930 1_565 S
H708 C718 0.930 . S
H709 C719 0.930 . S
C710 H704 0.930 . S
C710 C711 1.355 . S
C710 C712 1.415 . S
C711 C710 1.355 . S
C711 C713 1.419 1_545 S
C712 C710 1.415 . S
C712 C717 1.425 . S
C712 C719 1.409 . S
C713 H705 0.930 . S
C713 C711 1.419 1_565 S
C713 C714 1.362 . S
C714 H706 0.930 . S
C714 C713 1.362 . S
C714 C717 1.409 1_565 S
C715 H707 0.930 1_545 S
C715 C716 1.355 . S
C715 C717 1.415 . S
C716 C715 1.355 . S
C716 C718 1.419 . S
C717 C712 1.425 . S
C717 C714 1.409 1_545 S
C717 C715 1.415 . S
C718 H708 0.930 . S
C718 C716 1.419 . S
C718 C719 1.362 . S
C719 H709 0.930 . S
C719 C712 1.409 . S
C719 C718 1.362 . S
C215 C0 1.177 . S
C220 C91 1.169 . S
C231 C13 1.185 . S
C236 C52 1.202 . S
C247 C26 1.234 . S
C252 C65 1.217 . S
C263 C39 1.204 . S
C268 C78 1.186 . S
C279 C104 1.205 . S
C284 C195 1.187 . S
C295 C156 1.209 . S
C300 C117 1.191 . S
C311 C130 1.210 . S
C316 C169 1.228 . S
C327 C143 1.170 . S
C332 C182 1.180 . S
C343 C5 1.239 . S
C348 C125 1.369 . S
C359 C18 1.333 . S
C364 C138 1.317 . S
C375 C151 1.326 . S
C380 C31 1.321 . S
C391 C44 1.325 . S
C396 C112 1.323 . S
C407 C57 1.293 . S
C412 C203 1.333 . S
C423 C164 1.316 . S
C428 C70 1.333 . S
C439 C177 1.367 . S
C444 C83 1.233 . S
C455 C190 1.329 . S
C460 C96 1.301 . S
C471 C21 1.349 . S
C476 C109 1.281 . S
C487 C34 1.371 . S
C492 C122 1.234 . S
C503 C135 1.235 . S
C508 C47 1.371 . S
C519 C8 1.316 . S
C524 C148 1.333 . S
C535 C161 1.316 . S
C540 C99 1.330 . S
C551 C174 1.296 . S
C556 C60 1.342 . S
C567 C73 1.363 . S
C572 C187 1.240 . S
C583 C86 1.369 . S
C588 C200 1.241 . S
C599 C10 1.517 . S
C604 C62 1.490 . S
C615 C75 1.523 . S
C620 C23 1.492 . S
C631 C36 1.512 . S
C636 C88 1.505 . S
C647 C101 1.487 . S
C652 C49 1.523 . S
C663 C114 1.519 . S
C668 C166 1.497 . S
C679 C179 1.490 . S
C684 C127 1.524 . S
C695 C192 1.509 . S
C700 C140 1.509 . S
C711 C205 1.523 . S
C716 C153 1.492 . S
