# Generated by pormake.
# Topology fng, (5)-cn, num edge types: 1
# Building blocks:
#     Node 0, Type 0, BuildingBlock: BEQFEK_clean_sbu_0, # of connection points: 5
#     Node 1, Type 0, BuildingBlock: BEQFEK_clean_sbu_0, # of connection points: 5
#     Node 2, Type 0, BuildingBlock: BEQFEK_clean_sbu_0, # of connection points: 5
#     Node 3, Type 0, BuildingBlock: BEQFEK_clean_sbu_0, # of connection points: 5
#     Node 4, Type 0, BuildingBlock: BEQFEK_clean_sbu_0, # of connection points: 5
#     Node 5, Type 0, BuildingBlock: BEQFEK_clean_sbu_0, # of connection points: 5
#     Node 6, Type 0, BuildingBlock: BEQFEK_clean_sbu_0, # of connection points: 5
#     Node 7, Type 0, BuildingBlock: BEQFEK_clean_sbu_0, # of connection points: 5
#     Node 8, Type 0, BuildingBlock: BEQFEK_clean_sbu_0, # of connection points: 5
#     Node 9, Type 0, BuildingBlock: BEQFEK_clean_sbu_0, # of connection points: 5
#     Node 10, Type 0, BuildingBlock: BEQFEK_clean_sbu_0, # of connection points: 5
#     Node 11, Type 0, BuildingBlock: BEQFEK_clean_sbu_0, # of connection points: 5
#     Node 12, Type 0, BuildingBlock: BEQFEK_clean_sbu_0, # of connection points: 5
#     Node 13, Type 0, BuildingBlock: BEQFEK_clean_sbu_0, # of connection points: 5
#     Node 14, Type 0, BuildingBlock: BEQFEK_clean_sbu_0, # of connection points: 5
#     Node 15, Type 0, BuildingBlock: BEQFEK_clean_sbu_0, # of connection points: 5
#     Node 16, Type 0, BuildingBlock: BEQFEK_clean_sbu_0, # of connection points: 5
#     Node 17, Type 0, BuildingBlock: BEQFEK_clean_sbu_0, # of connection points: 5
#     Edge 18, Type (0, 0), BuildingBlock: EZIPEK_clean_linker_0, # of connection points: 2
#     Edge 19, Type (0, 0), BuildingBlock: EZIPEK_clean_linker_0, # of connection points: 2
#     Edge 20, Type (0, 0), BuildingBlock: EZIPEK_clean_linker_0, # of connection points: 2
#     Edge 21, Type (0, 0), BuildingBlock: EZIPEK_clean_linker_0, # of connection points: 2
#     Edge 22, Type (0, 0), BuildingBlock: EZIPEK_clean_linker_0, # of connection points: 2
#     Edge 23, Type (0, 0), BuildingBlock: EZIPEK_clean_linker_0, # of connection points: 2
#     Edge 24, Type (0, 0), BuildingBlock: EZIPEK_clean_linker_0, # of connection points: 2
#     Edge 25, Type (0, 0), BuildingBlock: EZIPEK_clean_linker_0, # of connection points: 2
#     Edge 26, Type (0, 0), BuildingBlock: EZIPEK_clean_linker_0, # of connection points: 2
#     Edge 27, Type (0, 0), BuildingBlock: EZIPEK_clean_linker_0, # of connection points: 2
#     Edge 28, Type (0, 0), BuildingBlock: EZIPEK_clean_linker_0, # of connection points: 2
#     Edge 29, Type (0, 0), BuildingBlock: EZIPEK_clean_linker_0, # of connection points: 2
#     Edge 30, Type (0, 0), BuildingBlock: EZIPEK_clean_linker_0, # of connection points: 2
#     Edge 31, Type (0, 0), BuildingBlock: EZIPEK_clean_linker_0, # of connection points: 2
#     Edge 32, Type (0, 0), BuildingBlock: EZIPEK_clean_linker_0, # of connection points: 2
#     Edge 33, Type (0, 0), BuildingBlock: EZIPEK_clean_linker_0, # of connection points: 2
#     Edge 34, Type (0, 0), BuildingBlock: EZIPEK_clean_linker_0, # of connection points: 2
#     Edge 35, Type (0, 0), BuildingBlock: EZIPEK_clean_linker_0, # of connection points: 2
#     Edge 36, Type (0, 0), BuildingBlock: EZIPEK_clean_linker_0, # of connection points: 2
#     Edge 37, Type (0, 0), BuildingBlock: EZIPEK_clean_linker_0, # of connection points: 2
#     Edge 38, Type (0, 0), BuildingBlock: EZIPEK_clean_linker_0, # of connection points: 2
#     Edge 39, Type (0, 0), BuildingBlock: EZIPEK_clean_linker_0, # of connection points: 2
#     Edge 40, Type (0, 0), BuildingBlock: EZIPEK_clean_linker_0, # of connection points: 2
#     Edge 41, Type (0, 0), BuildingBlock: EZIPEK_clean_linker_0, # of connection points: 2
#     Edge 42, Type (0, 0), BuildingBlock: EZIPEK_clean_linker_0, # of connection points: 2
#     Edge 43, Type (0, 0), BuildingBlock: EZIPEK_clean_linker_0, # of connection points: 2
#     Edge 44, Type (0, 0), BuildingBlock: EZIPEK_clean_linker_0, # of connection points: 2
#     Edge 45, Type (0, 0), BuildingBlock: EZIPEK_clean_linker_0, # of connection points: 2
#     Edge 46, Type (0, 0), BuildingBlock: EZIPEK_clean_linker_0, # of connection points: 2
#     Edge 47, Type (0, 0), BuildingBlock: EZIPEK_clean_linker_0, # of connection points: 2
#     Edge 48, Type (0, 0), BuildingBlock: EZIPEK_clean_linker_0, # of connection points: 2
#     Edge 49, Type (0, 0), BuildingBlock: EZIPEK_clean_linker_0, # of connection points: 2
#     Edge 50, Type (0, 0), BuildingBlock: EZIPEK_clean_linker_0, # of connection points: 2
#     Edge 51, Type (0, 0), BuildingBlock: EZIPEK_clean_linker_0, # of connection points: 2
#     Edge 52, Type (0, 0), BuildingBlock: EZIPEK_clean_linker_0, # of connection points: 2
#     Edge 53, Type (0, 0), BuildingBlock: EZIPEK_clean_linker_0, # of connection points: 2
#     Edge 54, Type (0, 0), BuildingBlock: EZIPEK_clean_linker_0, # of connection points: 2
#     Edge 55, Type (0, 0), BuildingBlock: EZIPEK_clean_linker_0, # of connection points: 2
#     Edge 56, Type (0, 0), BuildingBlock: EZIPEK_clean_linker_0, # of connection points: 2
#     Edge 57, Type (0, 0), BuildingBlock: EZIPEK_clean_linker_0, # of connection points: 2
#     Edge 58, Type (0, 0), BuildingBlock: EZIPEK_clean_linker_0, # of connection points: 2
#     Edge 59, Type (0, 0), BuildingBlock: EZIPEK_clean_linker_0, # of connection points: 2
#     Edge 60, Type (0, 0), BuildingBlock: EZIPEK_clean_linker_0, # of connection points: 2
#     Edge 61, Type (0, 0), BuildingBlock: EZIPEK_clean_linker_0, # of connection points: 2
#     Edge 62, Type (0, 0), BuildingBlock: EZIPEK_clean_linker_0, # of connection points: 2
# Relax obj value: 0.360
# Max RMSD: 0.252
# Mean RMSD: 0.252
data_MOF--net-fng--node1-BEQFEK_clean_sbu_0--edge1-EZIPEK_clean_linker_0
_symmetry_space_group_name_H-M    P1
_symmetry_Int_Tables_number       1
_symmetry_cell_setting            triclinic
loop_
_symmetry_equiv_pos_as_xyz
'x, y, z'
_cell_length_a     56.099104
_cell_length_b     56.057389
_cell_length_c     14.424546
_cell_angle_alpha  90.019819
_cell_angle_beta   89.946773
_cell_angle_gamma 119.94918
loop_
_atom_site_label
_atom_site_type_symbol
_atom_site_fract_x
_atom_site_fract_y
_atom_site_fract_z
_atom_type_partial_charge
Co0 Co 0.12264 0.24484 -0.0013 0.0
Co1 Co 0.11458 0.21377 0.18286 0.0
C2 C 0.06624 0.20449 0.05888 0.0
O3 O 0.0821 0.22463 0.00768 0.0
O4 O 0.07632 0.19773 0.12646 0.0
C5 C 0.11398 0.26152 0.82431 0.0
O6 O 0.09075 0.25721 0.86089 0.0
C7 C 0.10089 0.21794 0.37251 0.0
C8 C 0.12665 0.20502 0.44874 0.0
C9 C 0.11131 0.21807 0.45962 0.0
N10 N 0.11078 0.20662 0.31231 0.0
N11 N 0.1256 0.19831 0.3587 0.0
C12 C 0.08132 0.22769 0.3466 0.0
H13 H 0.0601 0.21021 0.35494 0.0
H14 H 0.08441 0.23461 0.27328 0.0
H15 H 0.08295 0.24416 0.39303 0.0
C16 C 0.15193 0.29408 0.12532 0.0
N17 N 0.13809 0.26703 0.10378 0.0
N18 N 0.1385 0.25292 0.17564 0.0
C19 C 0.15515 0.27048 0.24104 0.0
C20 C 0.16303 0.2971 0.21388 0.0
C21 C 0.15465 0.31657 0.06294 0.0
H22 H 0.14302 0.30799 -0.00236 0.0
H23 H 0.1469 0.32885 0.09899 0.0
H24 H 0.17672 0.33064 0.04708 0.0
O25 O 0.1375 0.21845 0.98865 0.0
O26 O 0.13252 0.19604 0.12093 0.0
H27 H 0.16783 0.24288 0.29589 0.0
H28 H 0.19121 0.27848 0.31915 0.0
C29 C 0.16917 0.26272 0.31383 0.0
H30 H 0.16018 0.26121 0.38288 0.0
H31 H 0.13682 0.19017 0.32787 0.0
O32 O 0.1332 0.26419 0.87753 0.0
C33 C 0.14046 0.20105 0.03704 0.0
Co34 Co 0.77527 0.89353 0.99589 0.0
Co35 Co 0.79925 0.89376 0.18635 0.0
C36 C 0.81258 0.8681 0.04647 0.0
O37 O 0.79835 0.87511 0.99709 0.0
O38 O 0.81584 0.8734 0.13264 0.0
C39 C 0.75883 0.86514 0.83114 0.0
O40 O 0.75645 0.84483 0.883 0.0
C41 C 0.80555 0.88222 0.38232 0.0
C42 C 0.7915 0.90895 0.44676 0.0
C43 C 0.79773 0.88853 0.46599 0.0
N44 N 0.80283 0.8976 0.31611 0.0
N45 N 0.79506 0.91389 0.35553 0.0
C46 C 0.81485 0.86184 0.36467 0.0
H47 H 0.83508 0.87235 0.32897 0.0
H48 H 0.80021 0.8455 0.31736 0.0
H49 H 0.81667 0.85253 0.4303 0.0
C50 C 0.72528 0.87757 0.11576 0.0
N51 N 0.7504 0.88134 0.09495 0.0
N52 N 0.75998 0.87455 0.16667 0.0
C53 C 0.73989 0.86256 0.23023 0.0
C54 C 0.71743 0.86511 0.20352 0.0
C55 C 0.71127 0.88902 0.05748 0.0
H56 H 0.72683 0.90928 0.0288 0.0
H57 H 0.70113 0.87515 -0.00231 0.0
H58 H 0.69579 0.89142 0.09812 0.0
O59 O 0.79871 0.93269 0.00592 0.0
O60 O 0.81973 0.93334 0.13636 0.0
H61 H 0.74768 0.85733 0.37129 0.0
H62 H 0.71968 0.82729 0.32017 0.0
C63 C 0.74053 0.84507 0.30716 0.0
H64 H 0.75477 0.83744 0.28947 0.0
H65 H 0.79023 0.92697 0.31898 0.0
O66 O 0.75964 0.88593 0.8698 0.0
C67 C 0.81689 0.94583 0.06679 0.0
Co68 Co 0.11454 0.89096 0.98829 0.0
Co69 Co 0.09762 0.89946 0.1871 0.0
C70 C 0.12903 0.94664 0.0534 0.0
O71 O 0.12992 0.9307 0.99321 0.0
O72 O 0.11765 0.9376 0.13197 0.0
C73 C 0.14712 0.90351 0.82735 0.0
O74 O 0.16695 0.92091 0.88182 0.0
C75 C 0.12019 0.91573 0.3719 0.0
C76 C 0.08433 0.89134 0.46224 0.0
C77 C 0.11275 0.90779 0.46307 0.0
N78 N 0.09739 0.90363 0.3189 0.0
N79 N 0.07593 0.88951 0.37365 0.0
C80 C 0.14853 0.93408 0.33499 0.0
H81 H 0.15137 0.92587 0.26844 0.0
H82 H 0.16456 0.93673 0.38559 0.0
H83 H 0.15089 0.95461 0.3214 0.0
C84 C 0.13881 0.86264 0.09998 0.0
N85 N 0.12588 0.87734 0.08908 0.0
N86 N 0.11427 0.87742 0.1681 0.0
C87 C 0.11693 0.86063 0.22853 0.0
C88 C 0.13373 0.8518 0.18964 0.0
C89 C 0.15452 0.85807 0.02513 0.0
H90 H 0.17235 0.87817 0.00469 0.0
H91 H 0.16188 0.84398 0.04835 0.0
H92 H 0.14122 0.84941 0.96312 0.0
O93 O 0.0734 0.87344 0.99073 0.0
O94 O 0.06059 0.8799 0.13113 0.0
H95 H 0.09489 0.82724 0.32659 0.0
H96 H 0.10762 0.86069 0.37318 0.0
C97 C 0.09851 0.84811 0.31104 0.0
H98 H 0.07837 0.84671 0.29802 0.0
H99 H 0.05581 0.8772 0.35 0.0
O100 O 0.12468 0.88503 0.86282 0.0
C101 C 0.05487 0.87066 0.0484 0.0
Co102 Co 0.22541 0.11808 0.98425 0.0
Co103 Co 0.20193 0.10187 0.78468 0.0
C104 C 0.18026 0.05968 0.92917 0.0
O105 O 0.19674 0.07853 0.98347 0.0
O106 O 0.18114 0.0648 0.84291 0.0
C107 C 0.24354 0.1044 0.14848 0.0
O108 O 0.23773 0.08235 0.09992 0.0
C109 C 0.19868 0.08676 0.58829 0.0
C110 C 0.18954 0.11709 0.52445 0.0
C111 C 0.19857 0.09874 0.50378 0.0
N112 N 0.19295 0.09961 0.65579 0.0
N113 N 0.18614 0.11671 0.61685 0.0
C114 C 0.20553 0.06454 0.60617 0.0
H115 H 0.21235 0.06543 0.67893 0.0
H116 H 0.22124 0.06576 0.55661 0.0
H117 H 0.18667 0.04425 0.59671 0.0
C118 C 0.27809 0.14659 0.88252 0.0
N119 N 0.25084 0.1286 0.88573 0.0
N120 N 0.24176 0.11905 0.80201 0.0
C121 C 0.26385 0.12903 0.74459 0.0
C122 C 0.28735 0.14747 0.79237 0.0
C123 C 0.29403 0.16437 0.96261 0.0
H124 H 0.28125 0.17112 0.00089 0.0
H125 H 0.29897 0.15211 0.01122 0.0
H126 H 0.31344 0.1826 0.93928 0.0
O127 O 0.20695 0.13947 0.97858 0.0
O128 O 0.18799 0.1261 0.83921 0.0
H129 H 0.24892 0.12376 0.60672 0.0
H130 H 0.28403 0.13199 0.61274 0.0
C131 C 0.26362 0.12047 0.64654 0.0
H132 H 0.25794 0.09856 0.64563 0.0
H133 H 0.18145 0.12986 0.65368 0.0
O134 O 0.24238 0.12394 0.10782 0.0
C135 C 0.19169 0.13967 0.91415 0.0
Co136 Co 0.89103 0.12115 0.02548 0.0
Co137 Co 0.90414 0.10532 0.83433 0.0
C138 C 0.94929 0.14255 0.96262 0.0
O139 O 0.93178 0.14021 0.02279 0.0
O140 O 0.94171 0.13095 0.88391 0.0
C141 C 0.9 0.14936 0.19396 0.0
O142 O 0.92136 0.16876 0.14985 0.0
C143 C 0.91816 0.12429 0.64751 0.0
C144 C 0.89426 0.08628 0.56609 0.0
C145 C 0.9089 0.11479 0.55899 0.0
N146 N 0.90812 0.10255 0.70512 0.0
N147 N 0.89443 0.0798 0.65584 0.0
C148 C 0.93614 0.15343 0.67792 0.0
H149 H 0.9262 0.15816 0.73608 0.0
H150 H 0.94071 0.16816 0.62011 0.0
H151 H 0.95579 0.15573 0.70373 0.0
C152 C 0.86139 0.14194 0.90281 0.0
N153 N 0.87683 0.13014 0.92049 0.0
N154 N 0.87825 0.11791 0.84474 0.0
C155 C 0.86144 0.11887 0.7801 0.0
C156 C 0.85131 0.13526 0.81255 0.0
C157 C 0.85524 0.15804 0.97167 0.0
H158 H 0.83399 0.14497 -0.00179 0.0
H159 H 0.86987 0.16454 0.03062 0.0
H160 H 0.85626 0.17631 0.93775 0.0
O161 O 0.87523 0.07987 0.02715 0.0
O162 O 0.88952 0.06969 0.89733 0.0
H163 H 0.85067 0.08009 0.71655 0.0
H164 H 0.82751 0.09254 0.69057 0.0
C165 C 0.84942 0.09881 0.70146 0.0
H166 H 0.86018 0.108 0.63607 0.0
H167 H 0.88348 0.06007 0.68419 0.0
O168 O 0.88095 0.12992 0.1475 0.0
C169 C 0.87692 0.06239 0.97473 0.0
Co170 Co 0.88314 0.77477 0.95041 0.0
Co171 Co 0.90385 0.80357 0.75933 0.0
C172 C 0.8668 0.81436 0.88211 0.0
O173 O 0.86529 0.79681 0.9401 0.0
O174 O 0.8811 0.81954 0.80858 0.0
C175 C 0.85453 0.75907 0.1197 0.0
O176 O 0.83628 0.76282 0.07523 0.0
C177 C 0.8851 0.80107 0.57323 0.0
C178 C 0.92204 0.81161 0.48957 0.0
C179 C 0.89377 0.80071 0.48364 0.0
N180 N 0.90695 0.81027 0.62995 0.0
N181 N 0.92912 0.81721 0.57945 0.0
C182 C 0.85649 0.79205 0.6059 0.0
H183 H 0.85618 0.80969 0.6396 0.0
H184 H 0.85031 0.77567 0.659 0.0
H185 H 0.84157 0.78452 0.54769 0.0
C186 C 0.86138 0.72414 0.83015 0.0
N187 N 0.87475 0.7515 0.84664 0.0
N188 N 0.88766 0.76447 0.77065 0.0
C189 C 0.88524 0.74585 0.70681 0.0
C190 C 0.86754 0.7198 0.74041 0.0
C191 C 0.84372 0.70263 0.89904 0.0
H192 H 0.83814 0.71191 0.95711 0.0
H193 H 0.82487 0.68635 0.86475 0.0
H194 H 0.8552 0.69284 0.92686 0.0
O195 O 0.9241 0.79958 0.95809 0.0
O196 O 0.9397 0.82114 0.82285 0.0
H197 H 0.92475 0.77053 0.64304 0.0
H198 H 0.90785 0.73458 0.61215 0.0
C199 C 0.90461 0.75217 0.62694 0.0
H200 H 0.89635 0.75617 0.56348 0.0
H201 H 0.94866 0.82385 0.60684 0.0
O202 O 0.87278 0.75698 0.07379 0.0
C203 C 0.94375 0.81645 0.90613 0.0
Co204 Co 0.78307 0.55964 0.32444 0.0
Co205 Co 0.76915 0.53557 0.52301 0.0
C206 C 0.72449 0.52214 0.39133 0.0
O207 O 0.74258 0.5371 0.33264 0.0
O208 O 0.73111 0.51906 0.47278 0.0
C209 C 0.76967 0.57398 0.15834 0.0
O210 O 0.75047 0.57482 0.20787 0.0
C211 C 0.74794 0.52643 0.71182 0.0
C212 C 0.7855 0.53485 0.7883 0.0
C213 C 0.75958 0.53175 0.79943 0.0
N214 N 0.76705 0.52837 0.6512 0.0
N215 N 0.78899 0.53226 0.69756 0.0
C216 C 0.71967 0.52027 0.68502 0.0
H217 H 0.70934 0.5006 0.64598 0.0
H218 H 0.72114 0.53663 0.63807 0.0
H219 H 0.70715 0.51859 0.74695 0.0
C220 C 0.81288 0.61302 0.42561 0.0
N221 N 0.79695 0.58536 0.42148 0.0
N222 N 0.79045 0.57526 0.50605 0.0
C223 C 0.80194 0.59651 0.56639 0.0
C224 C 0.8164 0.62094 0.51813 0.0
C225 C 0.8245 0.6312 0.34264 0.0
H226 H 0.83539 0.62349 0.29835 0.0
H227 H 0.80738 0.63017 0.30104 0.0
H228 H 0.83878 0.65287 0.36308 0.0
O229 O 0.79949 0.53582 0.32705 0.0
O230 O 0.78808 0.51688 0.46693 0.0
H231 H 0.81333 0.58688 0.69591 0.0
H232 H 0.80527 0.6141 0.70283 0.0
C233 C 0.79954 0.59414 0.66926 0.0
H234 H 0.77816 0.57942 0.68714 0.0
H235 H 0.80719 0.53553 0.66651 0.0
O236 O 0.79022 0.57498 0.19883 0.0
C237 C 0.79935 0.51947 0.38814 0.0
Co238 Co 0.44399 0.22253 0.36994 0.0
Co239 Co 0.47231 0.2303 0.56137 0.0
C240 C 0.48236 0.19948 0.42419 0.0
O241 O 0.46662 0.20402 0.37326 0.0
O242 O 0.48773 0.20839 0.50704 0.0
C243 C 0.42972 0.19561 0.20162 0.0
O244 O 0.42862 0.17506 0.24876 0.0
C245 C 0.48223 0.22157 0.75734 0.0
C246 C 0.46708 0.24729 0.82216 0.0
C247 C 0.47429 0.22756 0.84179 0.0
N248 N 0.47838 0.23619 0.69092 0.0
N249 N 0.47018 0.25209 0.73072 0.0
C250 C 0.49318 0.20254 0.73903 0.0
H251 H 0.51289 0.21383 0.70056 0.0
H252 H 0.47868 0.18539 0.69382 0.0
H253 H 0.49655 0.19429 0.80462 0.0
C254 C 0.39412 0.20482 0.4951 0.0
N255 N 0.42053 0.21262 0.47433 0.0
N256 N 0.43294 0.21194 0.55019 0.0
C257 C 0.41457 0.20136 0.61932 0.0
C258 C 0.38989 0.19972 0.59155 0.0
C259 C 0.37297 0.1983 0.42128 0.0
H260 H 0.37775 0.18939 0.36013 0.0
H261 H 0.35197 0.1835 0.44641 0.0
H262 H 0.37384 0.21755 0.39768 0.0
O263 O 0.46813 0.2623 0.37131 0.0
O264 O 0.49042 0.26829 0.50416 0.0
H265 H 0.4255 0.1942 0.75397 0.0
H266 H 0.39677 0.16432 0.70318 0.0
C267 C 0.41698 0.18289 0.68904 0.0
H268 H 0.43127 0.17609 0.66323 0.0
H269 H 0.46448 0.26454 0.6943 0.0
O270 O 0.42762 0.21429 0.24465 0.0
C271 C 0.48618 0.27776 0.42944 0.0
Co272 Co 0.77753 0.2131 0.35963 0.0
Co273 Co 0.76108 0.22439 0.55642 0.0
C274 C 0.79476 0.27009 0.42177 0.0
O275 O 0.79357 0.25294 0.36242 0.0
O276 O 0.78368 0.26242 0.50143 0.0
C277 C 0.80768 0.22449 0.19156 0.0
O278 O 0.82457 0.24692 0.23705 0.0
C279 C 0.77803 0.23717 0.74894 0.0
C280 C 0.73862 0.2209 0.82379 0.0
C281 C 0.76655 0.23094 0.83696 0.0
N282 N 0.75772 0.22958 0.68641 0.0
N283 N 0.73429 0.22069 0.73171 0.0
C284 C 0.80768 0.2482 0.72424 0.0
H285 H 0.81019 0.24626 0.64885 0.0
H286 H 0.81649 0.23759 0.7646 0.0
H287 H 0.81951 0.27035 0.74271 0.0
C288 C 0.80256 0.18683 0.47677 0.0
N289 N 0.78841 0.20027 0.46417 0.0
N290 N 0.77774 0.20163 0.54398 0.0
C291 C 0.78272 0.18697 0.60735 0.0
C292 C 0.79953 0.17819 0.56873 0.0
C293 C 0.81814 0.18205 0.40199 0.0
H294 H 0.83185 0.20178 0.36619 0.0
H295 H 0.8304 0.17314 0.43031 0.0
H296 H 0.80338 0.16777 0.34981 0.0
O297 O 0.73665 0.1961 0.35827 0.0
O298 O 0.72443 0.20525 0.49518 0.0
H299 H 0.76178 0.15615 0.71209 0.0
H300 H 0.78386 0.18984 0.75542 0.0
C301 C 0.76896 0.17822 0.69972 0.0
H302 H 0.75079 0.18098 0.70277 0.0
H303 H 0.71513 0.21268 0.69976 0.0
O304 O 0.78792 0.20514 0.23659 0.0
C305 C 0.71836 0.19476 0.4141 0.0
Co306 Co 0.89209 0.43873 0.34065 0.0
Co307 Co 0.86461 0.42652 0.14347 0.0
C308 C 0.85187 0.38147 0.2811 0.0
O309 O 0.8678 0.39891 0.33977 0.0
O310 O 0.84878 0.38875 0.20038 0.0
C311 C 0.91124 0.42764 0.50767 0.0
O312 O 0.90603 0.40539 0.46152 0.0
C313 C 0.86914 0.41396 0.95078 0.0
C314 C 0.84543 0.42968 0.87648 0.0
C315 C 0.86369 0.42009 0.86296 0.0
N316 N 0.85614 0.42118 0.01358 0.0
N317 N 0.84128 0.42974 0.96861 0.0
C318 C 0.88818 0.40339 0.97497 0.0
H319 H 0.89236 0.40499 0.05049 0.0
H320 H 0.90769 0.41457 0.93537 0.0
H321 H 0.87841 0.38138 0.95506 0.0
C322 C 0.94343 0.46603 0.22555 0.0
N323 N 0.91585 0.45111 0.23648 0.0
N324 N 0.90394 0.44913 0.15599 0.0
C325 C 0.92353 0.46463 0.09353 0.0
C326 C 0.94908 0.47486 0.13393 0.0
C327 C 0.96368 0.47314 0.30247 0.0
H328 H 0.9629 0.48872 0.34789 0.0
H329 H 0.95792 0.45457 0.3452 0.0
H330 H 0.98491 0.48161 0.27518 0.0
O331 O 0.86896 0.45647 0.3396 0.0
O332 O 0.84759 0.4464 0.20266 0.0
H333 H 0.89721 0.47023 -0.00118 0.0
H334 H 0.93287 0.49557 0.98941 0.0
C335 C 0.9183 0.4734 0.00156 0.0
H336 H 0.9218 0.46201 0.94548 0.0
H337 H 0.82985 0.43744 0.00084 0.0
O338 O 0.9104 0.44688 0.46341 0.0
C339 C 0.85223 0.45765 0.28254 0.0
Co340 Co 0.55711 0.45036 0.33468 0.0
Co341 Co 0.5635 0.42831 0.14415 0.0
C342 C 0.61216 0.46697 0.26302 0.0
O343 O 0.59682 0.46955 0.32133 0.0
O344 O 0.60225 0.4514 0.19253 0.0
C345 C 0.56964 0.47894 0.50455 0.0
O346 O 0.59154 0.49747 0.46026 0.0
C347 C 0.57956 0.44753 0.95826 0.0
C348 C 0.55371 0.4107 0.87354 0.0
C349 C 0.5708 0.43905 0.8684 0.0
N350 N 0.56705 0.42549 0.0144 0.0
N351 N 0.55212 0.40339 0.96326 0.0
C352 C 0.59884 0.47613 0.99165 0.0
H353 H 0.61707 0.47668 0.02369 0.0
H354 H 0.58863 0.48183 0.04622 0.0
H355 H 0.60578 0.4913 0.93413 0.0
C356 C 0.52774 0.4718 0.21386 0.0
N357 N 0.54086 0.45761 0.23176 0.0
N358 N 0.54013 0.44392 0.15685 0.0
C359 C 0.52415 0.44658 0.09282 0.0
C360 C 0.51691 0.46536 0.1245 0.0
C361 C 0.52623 0.49165 0.2793 0.0
H362 H 0.53027 0.48775 0.3514 0.0
H363 H 0.54203 0.51289 0.25937 0.0
H364 H 0.50577 0.49014 0.27451 0.0
O365 O 0.54305 0.40957 0.34486 0.0
O366 O 0.54626 0.39269 0.20846 0.0
H367 H 0.50981 0.40728 0.02779 0.0
H368 H 0.49021 0.42371 -0.00096 0.0
C369 C 0.51119 0.42732 0.0127 0.0
H370 H 0.52319 0.4359 0.94889 0.0
H371 H 0.53941 0.38372 0.99009 0.0
O372 O 0.54961 0.46039 0.45856 0.0
C373 C 0.53955 0.38942 0.29391 0.0
Co374 Co 0.54607 0.09873 0.31924 0.0
Co375 Co 0.56639 0.12846 0.12914 0.0
C376 C 0.5308 0.13991 0.25726 0.0
O377 O 0.52914 0.12184 0.31326 0.0
O378 O 0.54439 0.14488 0.18212 0.0
C379 C 0.51783 0.08299 0.48914 0.0
O380 O 0.49951 0.08674 0.44511 0.0
C381 C 0.54731 0.12619 0.94315 0.0
C382 C 0.58438 0.13753 0.85929 0.0
C383 C 0.55602 0.12601 0.85335 0.0
N384 N 0.56922 0.13577 -0.00019 0.0
N385 N 0.59147 0.14328 0.9491 0.0
C386 C 0.51866 0.11688 0.97606 0.0
H387 H 0.51832 0.1342 0.01211 0.0
H388 H 0.51241 0.10004 0.02736 0.0
H389 H 0.50383 0.10988 0.9176 0.0
C390 C 0.52384 0.04846 0.19509 0.0
N391 N 0.53705 0.07576 0.21347 0.0
N392 N 0.54995 0.08917 0.13809 0.0
C393 C 0.54788 0.07098 0.07303 0.0
C394 C 0.53016 0.04459 0.10471 0.0
C395 C 0.50655 0.02651 0.26333 0.0
H396 H 0.50118 0.0354 0.32313 0.0
H397 H 0.48758 0.01037 0.22927 0.0
H398 H 0.51823 0.01663 0.28861 0.0
O399 O 0.5872 0.12306 0.32592 0.0
O400 O 0.60246 0.14547 0.19181 0.0
H401 H 0.58706 0.09719 0.00928 0.0
H402 H 0.57201 0.06162 0.9779 0.0
C403 C 0.56742 0.07826 0.99307 0.0
H404 H 0.55868 0.08155 0.92951 0.0
H405 H 0.61109 0.15027 0.97633 0.0
O406 O 0.53585 0.08066 0.4426 0.0
C407 C 0.60673 0.14021 0.27414 0.0
Co408 Co 0.44547 0.89863 0.63526 0.0
Co409 Co 0.43654 0.86773 0.82234 0.0
C410 C 0.38875 0.857 0.69571 0.0
O411 O 0.40509 0.8754 0.63983 0.0
O412 O 0.39786 0.85187 0.76974 0.0
C413 C 0.43556 0.91498 0.4623 0.0
O414 O 0.4119 0.90906 0.49965 0.0
C415 C 0.42273 0.87013 0.01275 0.0
C416 C 0.45065 0.85968 0.08693 0.0
C417 C 0.43392 0.87116 0.09905 0.0
N418 N 0.43356 0.86005 0.9515 0.0
N419 N 0.44963 0.85307 0.99672 0.0
C420 C 0.40162 0.87792 0.98857 0.0
H421 H 0.3816 0.85867 0.98153 0.0
H422 H 0.40681 0.88902 0.92134 0.0
H423 H 0.39923 0.89036 0.04363 0.0
C424 C 0.47309 0.94797 0.76228 0.0
N425 N 0.45935 0.9208 0.74224 0.0
N426 N 0.45972 0.90707 0.81541 0.0
C427 C 0.47622 0.92505 0.88032 0.0
C428 C 0.48406 0.95152 0.85127 0.0
C429 C 0.4767 0.97014 0.69665 0.0
H430 H 0.49783 0.98012 0.66754 0.0
H431 H 0.46162 0.96143 0.6391 0.0
H432 H 0.47433 0.98616 0.73398 0.0
O433 O 0.46209 0.87401 0.62573 0.0
O434 O 0.45463 0.85032 0.75669 0.0
H435 H 0.49005 0.89858 0.93674 0.0
H436 H 0.51201 0.93423 0.96257 0.0
C437 C 0.49027 0.91789 0.9547 0.0
H438 H 0.48048 0.91573 0.02262 0.0
H439 H 0.46172 0.84608 0.96492 0.0
O440 O 0.45528 0.91867 0.51503 0.0
C441 C 0.46405 0.85608 0.67442 0.0
Co442 Co 0.10205 0.55199 0.69194 0.0
Co443 Co 0.13112 0.57174 0.8851 0.0
C444 C 0.14473 0.5388 0.74868 0.0
O445 O 0.12491 0.53509 0.69749 0.0
O446 O 0.15006 0.55321 0.82223 0.0
C447 C 0.08482 0.52293 0.52042 0.0
O448 O 0.09075 0.50606 0.56426 0.0
C449 C 0.12793 0.55457 0.07778 0.0
C450 C 0.15049 0.59408 0.15236 0.0
C451 C 0.13305 0.56606 0.16588 0.0
N452 N 0.14022 0.57494 0.015 0.0
N453 N 0.15443 0.59843 0.06021 0.0
C454 C 0.10985 0.52481 0.05335 0.0
H455 H 0.10592 0.52214 0.97769 0.0
H456 H 0.09018 0.51582 0.0923 0.0
H457 H 0.1203 0.51325 0.07382 0.0
C458 C 0.05153 0.52675 0.81149 0.0
N459 N 0.07894 0.54161 0.79675 0.0
N460 N 0.09135 0.553 0.87533 0.0
C461 C 0.07194 0.54779 0.93999 0.0
C462 C 0.04632 0.53013 0.90343 0.0
C463 C 0.03089 0.51035 0.73858 0.0
H464 H 0.02627 0.52432 0.69767 0.0
H465 H 0.03952 0.50109 0.69062 0.0
H466 H 0.01149 0.49407 0.77016 0.0
O467 O 0.12596 0.59325 0.68863 0.0
O468 O 0.14586 0.60812 0.82666 0.0
H469 H 0.09765 0.58077 0.03248 0.0
H470 H 0.06159 0.56878 0.04299 0.0
C471 C 0.07698 0.5622 0.0311 0.0
H472 H 0.07439 0.54785 0.08804 0.0
H473 H 0.16517 0.61765 0.02817 0.0
O474 O 0.08409 0.54178 0.56771 0.0
C475 C 0.14162 0.61272 0.74347 0.0
Co476 Co 0.4549 0.55596 0.68024 0.0
Co477 Co 0.44147 0.57051 0.87605 0.0
C478 C 0.47259 0.61422 0.73691 0.0
O479 O 0.46937 0.59588 0.67894 0.0
O480 O 0.46438 0.60806 0.82036 0.0
C481 C 0.48477 0.56733 0.51256 0.0
O482 O 0.50182 0.58935 0.55953 0.0
C483 C 0.45749 0.58284 0.06973 0.0
C484 C 0.41767 0.56693 0.14165 0.0
C485 C 0.44542 0.57646 0.15689 0.0
N486 N 0.43765 0.57576 0.0057 0.0
N487 N 0.41399 0.5671 0.04928 0.0
C488 C 0.48721 0.59349 0.04724 0.0
H489 H 0.49004 0.59111 0.9724 0.0
H490 H 0.49568 0.58299 0.08986 0.0
H491 H 0.49907 0.61573 0.06441 0.0
C492 C 0.47924 0.52906 0.79544 0.0
N493 N 0.46699 0.54437 0.78423 0.0
N494 N 0.45744 0.54698 0.86477 0.0
C495 C 0.46149 0.53158 0.92787 0.0
C496 C 0.4763 0.52068 0.88752 0.0
C497 C 0.49165 0.52106 0.71837 0.0
H498 H 0.47489 0.50485 0.67596 0.0
H499 H 0.5039 0.53907 0.67273 0.0
H500 H 0.50477 0.513 0.74564 0.0
O501 O 0.41415 0.53732 0.68399 0.0
O502 O 0.4049 0.55272 0.81334 0.0
H503 H 0.4301 0.52695 0.02323 0.0
H504 H 0.44025 0.50156 0.03514 0.0
C505 C 0.44792 0.52362 0.02076 0.0
H506 H 0.46305 0.53541 0.07566 0.0
H507 H 0.39506 0.55944 0.01591 0.0
O508 O 0.46486 0.54788 0.55665 0.0
C509 C 0.39704 0.53912 0.73768 0.0
Co510 Co 0.55706 0.7828 0.62229 0.0
Co511 Co 0.53366 0.7626 0.42592 0.0
C512 C 0.51971 0.72191 0.56857 0.0
O513 O 0.53377 0.74205 0.62229 0.0
O514 O 0.51718 0.72555 0.48291 0.0
C515 C 0.5754 0.77029 0.78237 0.0
O516 O 0.57996 0.75398 0.72917 0.0
C517 C 0.53036 0.74782 0.22644 0.0
C518 C 0.52009 0.77783 0.16682 0.0
C519 C 0.52867 0.75934 0.14334 0.0
N520 N 0.52525 0.76053 0.29628 0.0
N521 N 0.51799 0.7776 0.25969 0.0
C522 C 0.53651 0.72492 0.23847 0.0
H523 H 0.54013 0.7224 0.31251 0.0
H524 H 0.5543 0.72852 0.19474 0.0
H525 H 0.51857 0.70542 0.21445 0.0
C526 C 0.60882 0.81631 0.51459 0.0
N527 N 0.58243 0.79602 0.5236 0.0
N528 N 0.57349 0.78314 0.44413 0.0
C529 C 0.59511 0.79261 0.38558 0.0
C530 C 0.61804 0.81481 0.42587 0.0
C531 C 0.62331 0.83816 0.58636 0.0
H532 H 0.60869 0.84385 0.61727 0.0
H533 H 0.6304 0.82985 0.64312 0.0
H534 H 0.64118 0.8567 0.5564 0.0
O535 O 0.53438 0.79948 0.61752 0.0
O536 O 0.51567 0.78364 0.47957 0.0
H537 H 0.58417 0.78159 0.2437 0.0
H538 H 0.61674 0.78506 0.27487 0.0
C539 C 0.59552 0.77807 0.29929 0.0
H540 H 0.58595 0.75585 0.31444 0.0
H541 H 0.51353 0.79064 0.29825 0.0
O542 O 0.57284 0.78955 0.74605 0.0
C543 C 0.51802 0.79724 0.55343 0.0
Co544 Co 0.21646 0.78469 0.64171 0.0
Co545 Co 0.22582 0.76358 0.45335 0.0
C546 C 0.27323 0.79906 0.58292 0.0
O547 O 0.25672 0.80078 0.63889 0.0
O548 O 0.2644 0.78553 0.50742 0.0
C549 C 0.22706 0.81129 0.81355 0.0
O550 O 0.25047 0.82906 0.77486 0.0
C551 C 0.24063 0.77953 0.26292 0.0
C552 C 0.2115 0.74161 0.18893 0.0
C553 C 0.22929 0.76962 0.17658 0.0
N554 N 0.22886 0.75876 0.32438 0.0
N555 N 0.21209 0.73594 0.27925 0.0
C556 C 0.26266 0.80803 0.28704 0.0
H557 H 0.25718 0.81486 0.35186 0.0
H558 H 0.26663 0.82284 0.23007 0.0
H559 H 0.28189 0.80749 0.29895 0.0
C560 C 0.19047 0.80825 0.51664 0.0
N561 N 0.20382 0.79434 0.53511 0.0
N562 N 0.20358 0.78077 0.46055 0.0
C563 C 0.1875 0.7831 0.39591 0.0
C564 C 0.17985 0.80166 0.42715 0.0
C565 C 0.18668 0.82623 0.58443 0.0
H566 H 0.16571 0.81459 0.61458 0.0
H567 H 0.20202 0.8326 0.64114 0.0
H568 H 0.18849 0.84462 0.54882 0.0
O569 O 0.19828 0.74331 0.64826 0.0
O570 O 0.20644 0.72784 0.51671 0.0
H571 H 0.17238 0.74288 0.33712 0.0
H572 H 0.15228 0.75854 0.30833 0.0
C573 C 0.17351 0.76264 0.31942 0.0
H574 H 0.18438 0.77033 0.25317 0.0
H575 H 0.19927 0.71706 0.31118 0.0
O576 O 0.20705 0.79519 0.762 0.0
C577 C 0.1961 0.72367 0.59766 0.0
Co578 Co 0.22191 0.44378 0.68094 0.0
Co579 Co 0.23868 0.47292 0.48979 0.0
C580 C 0.20457 0.48446 0.623 0.0
O581 O 0.20544 0.46789 0.68087 0.0
O582 O 0.21596 0.48818 0.54385 0.0
C583 C 0.19348 0.42529 0.84943 0.0
O584 O 0.17479 0.4285 0.80557 0.0
C585 C 0.21951 0.46885 0.3031 0.0
C586 C 0.25714 0.4809 0.22165 0.0
C587 C 0.2287 0.46827 0.21467 0.0
N588 N 0.24128 0.47973 0.36057 0.0
N589 N 0.26384 0.48762 0.31118 0.0
C590 C 0.19072 0.45972 0.33312 0.0
H591 H 0.18959 0.47826 0.35253 0.0
H592 H 0.18548 0.44633 0.39522 0.0
H593 H 0.17566 0.44894 0.27677 0.0
C594 C 0.19885 0.39328 0.55955 0.0
N595 N 0.21119 0.42063 0.57586 0.0
N596 N 0.22331 0.43386 0.49941 0.0
C597 C 0.22165 0.41561 0.43532 0.0
C598 C 0.20494 0.38928 0.46914 0.0
C599 C 0.1833 0.37157 0.63056 0.0
H600 H 0.19786 0.36704 0.66802 0.0
H601 H 0.17362 0.37896 0.68159 0.0
H602 H 0.16746 0.35231 0.59703 0.0
O603 O 0.26337 0.46698 0.67991 0.0
O604 O 0.27512 0.49116 0.54908 0.0
H605 H 0.26045 0.44256 0.37029 0.0
H606 H 0.24708 0.40695 0.34408 0.0
C607 C 0.24134 0.42294 0.35576 0.0
H608 H 0.23211 0.42474 0.29088 0.0
H609 H 0.28346 0.49549 0.33945 0.0
O610 O 0.21234 0.42457 0.80262 0.0
C611 C 0.28167 0.48506 0.62646 0.0
C612 C 0.09984 0.21184 0.62648 0.0
C613 C 0.10814 0.22951 0.54882 0.0
C614 C 0.11702 0.26816 0.65165 0.0
C615 C 0.11298 0.25115 0.72928 0.0
N616 N 0.10596 0.20772 0.78904 0.0
N617 N 0.12838 0.27619 0.4892 0.0
C618 C 0.10602 0.22328 0.71631 0.0
C619 C 0.11755 0.25815 0.56136 0.0
N620 N 0.08529 0.18392 0.61457 0.0
N621 N 0.12042 0.29385 0.66394 0.0
H622 H 0.12825 0.27012 0.42123 0.0
H623 H 0.13897 0.29748 0.49782 0.0
H624 H 0.12129 0.3022 0.72936 0.0
H625 H 0.1203 0.30595 0.60931 0.0
H626 H 0.07653 0.17014 0.66953 0.0
H627 H 0.07924 0.17474 0.54938 0.0
H628 H 0.10441 0.18851 0.7808 0.0
H629 H 0.10914 0.21464 0.85702 0.0
C630 C 0.76813 0.85212 0.57863 0.0
C631 C 0.79357 0.87602 0.55883 0.0
C632 C 0.79907 0.8887 0.72223 0.0
C633 C 0.77099 0.86839 0.7377 0.0
N634 N 0.72867 0.83016 0.6813 0.0
N635 N 0.83501 0.91554 0.61072 0.0
C636 C 0.75558 0.8496 0.6664 0.0
C637 C 0.80982 0.89343 0.63106 0.0
N638 N 0.75631 0.83176 0.514 0.0
N639 N 0.81569 0.90315 0.7945 0.0
H640 H 0.84399 0.9182 0.54527 0.0
H641 H 0.84643 0.93155 0.65681 0.0
H642 H 0.80848 0.90218 0.8613 0.0
H643 H 0.83702 0.91487 0.78928 0.0
H644 H 0.73868 0.81287 0.526 0.0
H645 H 0.76614 0.83267 0.45187 0.0
H646 H 0.71552 0.81776 0.62906 0.0
H647 H 0.71886 0.82772 0.74494 0.0
C648 C 0.14792 0.89318 0.65864 0.0
C649 C 0.14677 0.91033 0.72835 0.0
C650 C 0.1306 0.93163 0.61482 0.0
C651 C 0.13041 0.91349 0.54631 0.0
N652 N 0.14951 0.88563 0.49409 0.0
N653 N 0.1459 0.95193 0.76656 0.0
C654 C 0.1425 0.89698 0.5652 0.0
C655 C 0.14118 0.93168 0.7043 0.0
N656 N 0.15357 0.87291 0.68202 0.0
N657 N 0.11972 0.9481 0.59518 0.0
H658 H 0.15347 0.95277 0.83295 0.0
H659 H 0.14499 0.96949 0.7493 0.0
H660 H 0.11352 0.94986 0.52854 0.0
H661 H 0.11576 0.95905 0.64532 0.0
H662 H 0.15144 0.85761 0.63611 0.0
H663 H 0.15907 0.87061 0.74916 0.0
H664 H 0.16001 0.87485 0.50326 0.0
H665 H 0.14816 0.89019 0.42513 0.0
C666 C 0.20903 0.07592 0.37165 0.0
C667 C 0.2147 0.10032 0.41937 0.0
C668 C 0.24992 0.12774 0.30254 0.0
C669 C 0.24212 0.1033 0.25204 0.0
N670 N 0.22818 0.05541 0.27054 0.0
N671 N 0.24763 0.14884 0.44591 0.0
C672 C 0.22615 0.07768 0.29672 0.0
C673 C 0.23738 0.12614 0.3899 0.0
N674 N 0.18662 0.05125 0.39439 0.0
N675 N 0.26928 0.15241 0.26622 0.0
H676 H 0.23976 0.1491 0.51086 0.0
H677 H 0.26576 0.16711 0.43213 0.0
H678 H 0.28124 0.15356 0.20903 0.0
H679 H 0.27315 0.17144 0.29119 0.0
H680 H 0.18102 0.03316 0.35785 0.0
H681 H 0.17227 0.04942 0.44398 0.0
H682 H 0.21868 0.03693 0.30735 0.0
H683 H 0.24263 0.05692 0.22182 0.0
C684 C 0.89969 0.14659 0.45782 0.0
C685 C 0.9124 0.13026 0.47183 0.0
C686 C 0.91655 0.12677 0.30543 0.0
C687 C 0.90428 0.1433 0.29021 0.0
N688 N 0.88939 0.17373 0.35054 0.0
N689 N 0.94164 0.11402 0.41144 0.0
C690 C 0.89762 0.15488 0.36612 0.0
C691 C 0.92377 0.12351 0.39619 0.0
N692 N 0.88866 0.15332 0.53069 0.0
N693 N 0.92003 0.11285 0.23409 0.0
H694 H 0.94773 0.112 0.478 0.0
H695 H 0.95271 0.11126 0.35854 0.0
H696 H 0.91415 0.11364 0.16646 0.0
H697 H 0.92609 0.09824 0.244 0.0
H698 H 0.87568 0.16148 0.52307 0.0
H699 H 0.89175 0.15001 0.59929 0.0
H700 H 0.88694 0.1851 0.40297 0.0
H701 H 0.88688 0.17944 0.28399 0.0
C702 C 0.87958 0.79821 0.23018 0.0
C703 C 0.8614 0.7696 0.21551 0.0
C704 C 0.85916 0.7614 0.3827 0.0
C705 C 0.87759 0.79009 0.39683 0.0
N706 N 0.89735 0.83626 0.33849 0.0
N707 N 0.82893 0.72509 0.27665 0.0
C708 C 0.88513 0.80861 0.32174 0.0
C709 C 0.84952 0.75155 0.29158 0.0
N710 N 0.89255 0.81534 0.15702 0.0
N711 N 0.85173 0.74334 0.4549 0.0
H712 H 0.82199 0.71718 0.21042 0.0
H713 H 0.81733 0.71166 0.32962 0.0
H714 H 0.85592 0.74951 0.52356 0.0
H715 H 0.84205 0.72208 0.44656 0.0
H716 H 0.90832 0.83565 0.1646 0.0
H717 H 0.88939 0.80872 0.08858 0.0
H718 H 0.90096 0.85074 0.28712 0.0
H719 H 0.90106 0.84436 0.40554 0.0
C720 C 0.75414 0.53288 0.05473 0.0
C721 C 0.76214 0.56121 0.06578 0.0
C722 C 0.75302 0.56399 0.90196 0.0
C723 C 0.7503 0.53766 0.88807 0.0
N724 N 0.74386 0.49514 0.94904 0.0
N725 N 0.76956 0.60403 0.00149 0.0
C726 C 0.74884 0.52132 0.96453 0.0
C727 C 0.76125 0.57674 0.99008 0.0
N728 N 0.75172 0.51709 0.13016 0.0
N729 N 0.74721 0.57656 0.83175 0.0
H730 H 0.77533 0.61394 0.06558 0.0
H731 H 0.77273 0.61738 0.94668 0.0
H732 H 0.73973 0.56718 0.76819 0.0
H733 H 0.74661 0.5947 0.83966 0.0
H734 H 0.74266 0.49576 0.12867 0.0
H735 H 0.75796 0.52513 0.19611 0.0
H736 H 0.74601 0.48289 -0.00132 0.0
H737 H 0.73802 0.48583 0.88392 0.0
C738 C 0.47081 0.22476 0.10006 0.0
C739 C 0.44356 0.20203 0.11 0.0
C740 C 0.44512 0.18871 0.94962 0.0
C741 C 0.46932 0.21443 0.93455 0.0
N742 N 0.50688 0.25605 0.99564 0.0
N743 N 0.40426 0.16263 0.04329 0.0
C744 C 0.48288 0.23192 0.01052 0.0
C745 C 0.4307 0.18386 0.03478 0.0
N746 N 0.4855 0.2391 0.17604 0.0
N747 N 0.43621 0.16865 0.88377 0.0
H748 H 0.393 0.1584 0.10469 0.0
H749 H 0.3927 0.15063 0.98753 0.0
H750 H 0.44695 0.17107 0.82272 0.0
H751 H 0.42008 0.14866 0.89408 0.0
H752 H 0.50638 0.25363 0.17439 0.0
H753 H 0.47749 0.23509 0.24264 0.0
H754 H 0.51597 0.2718 0.04436 0.0
H755 H 0.51717 0.26062 0.93208 0.0
C756 C 0.80188 0.25297 0.96327 0.0
C757 C 0.78009 0.22876 0.923 0.0
C758 C 0.78644 0.2008 0.04151 0.0
C759 C 0.80517 0.22519 0.08821 0.0
N760 N 0.84136 0.27202 0.06546 0.0
N761 N 0.75149 0.17896 0.92374 0.0
C762 C 0.81624 0.25066 0.04071 0.0
C763 C 0.77254 0.20241 0.96134 0.0
N764 N 0.80782 0.2783 0.93118 0.0
N765 N 0.78335 0.17629 0.07149 0.0
H766 H 0.74139 0.17859 0.86301 0.0
H767 H 0.74279 0.15976 0.95557 0.0
H768 H 0.79503 0.1753 0.12616 0.0
H769 H 0.77204 0.15771 0.0365 0.0
H770 H 0.82142 0.29662 0.96447 0.0
H771 H 0.79729 0.28095 0.87625 0.0
H772 H 0.85139 0.29052 0.02906 0.0
H773 H 0.85397 0.26961 0.11311 0.0
C774 C 0.87737 0.39855 0.73586 0.0
C775 C 0.87947 0.42258 0.77677 0.0
C776 C 0.91352 0.45099 0.65833 0.0
C777 C 0.90817 0.42675 0.61105 0.0
N778 N 0.89814 0.38004 0.63249 0.0
N779 N 0.90007 0.47233 0.77718 0.0
C780 C 0.89407 0.40118 0.65808 0.0
C781 C 0.89799 0.44906 0.73885 0.0
N782 N 0.85826 0.3731 0.76769 0.0
N783 N 0.93466 0.47566 0.62842 0.0
H784 H 0.89026 0.47245 0.83813 0.0
H785 H 0.91036 0.49161 0.7458 0.0
H786 H 0.94734 0.47689 0.57336 0.0
H787 H 0.9417 0.49418 0.66368 0.0
H788 H 0.85376 0.35488 0.73395 0.0
H789 H 0.84507 0.37021 0.82292 0.0
H790 H 0.88989 0.36148 0.66847 0.0
H791 H 0.91318 0.38269 0.58448 0.0
C792 C 0.56579 0.47345 0.76733 0.0
C793 C 0.57659 0.45548 0.782 0.0
C794 C 0.58456 0.45482 0.61593 0.0
C795 C 0.57327 0.47225 0.60063 0.0
N796 N 0.55896 0.50314 0.6607 0.0
N797 N 0.6044 0.43701 0.72595 0.0
C798 C 0.5658 0.48323 0.67619 0.0
C799 C 0.58864 0.4488 0.70785 0.0
N800 N 0.55457 0.48037 0.83918 0.0
N801 N 0.59034 0.44302 0.54277 0.0
H802 H 0.60822 0.43297 0.79332 0.0
H803 H 0.61604 0.43405 0.67577 0.0
H804 H 0.58787 0.44689 0.47404 0.0
H805 H 0.59547 0.42765 0.5501 0.0
H806 H 0.54264 0.48967 0.83071 0.0
H807 H 0.55664 0.4763 0.90791 0.0
H808 H 0.55604 0.51414 0.71333 0.0
H809 H 0.55821 0.51018 0.59439 0.0
C810 C 0.51255 0.07596 0.66146 0.0
C811 C 0.5249 0.0937 0.58488 0.0
C812 C 0.54795 0.1331 0.68999 0.0
C813 C 0.54 0.11492 0.76624 0.0
N814 N 0.51394 0.06829 0.82568 0.0
N815 N 0.55694 0.13912 0.5259 0.0
C816 C 0.52171 0.08614 0.75275 0.0
C817 C 0.54316 0.12231 0.59894 0.0
N818 N 0.49199 0.04947 0.64693 0.0
N819 N 0.55988 0.1608 0.70508 0.0
H820 H 0.5547 0.13213 0.45807 0.0
H821 H 0.57265 0.15945 0.53363 0.0
H822 H 0.56299 0.16917 0.77164 0.0
H823 H 0.56378 0.17501 0.65242 0.0
H824 H 0.48 0.03634 0.69994 0.0
H825 H 0.4855 0.04123 0.58076 0.0
H826 H 0.50432 0.047 0.81814 0.0
H827 H 0.51782 0.07462 0.89423 0.0
C828 C 0.42918 0.87706 0.35576 0.0
C829 C 0.43486 0.90456 0.36752 0.0
C830 C 0.43817 0.91078 0.19909 0.0
C831 C 0.43045 0.88246 0.18808 0.0
N832 N 0.41023 0.83725 0.25599 0.0
N833 N 0.44001 0.94622 0.30093 0.0
C834 C 0.4234 0.86522 0.26655 0.0
C835 C 0.43774 0.92097 0.28925 0.0
N836 N 0.42997 0.86223 0.42934 0.0
N837 N 0.44711 0.92836 0.12525 0.0
H838 H 0.44088 0.95467 0.36618 0.0
H839 H 0.43906 0.95788 0.24632 0.0
H840 H 0.4463 0.922 0.05726 0.0
H841 H 0.45668 0.94967 0.13198 0.0
H842 H 0.42971 0.8436 0.42224 0.0
H843 H 0.43244 0.86926 0.49706 0.0
H844 H 0.40224 0.82359 0.31156 0.0
H845 H 0.40445 0.82769 0.1913 0.0
C846 C 0.10344 0.51588 0.36888 0.0
C847 C 0.08879 0.52657 0.41729 0.0
C848 C 0.0986 0.55967 0.29153 0.0
C849 C 0.11752 0.55238 0.25234 0.0
N850 N 0.13999 0.52526 0.26045 0.0
N851 N 0.06162 0.54836 0.40199 0.0
C852 C 0.12024 0.5307 0.2922 0.0
C853 C 0.08315 0.54551 0.37169 0.0
N854 N 0.09971 0.49061 0.39161 0.0
N855 N 0.09596 0.58067 0.2545 0.0
H856 H 0.04877 0.53631 0.45576 0.0
H857 H 0.05438 0.55983 0.36781 0.0
H858 H 0.10539 0.59075 0.19336 0.0
H859 H 0.08549 0.58931 0.28707 0.0
H860 H 0.10834 0.4809 0.35413 0.0
H861 H 0.08457 0.47759 0.43826 0.0
H862 H 0.1449 0.51178 0.29379 0.0
H863 H 0.15329 0.53614 0.2061 0.0
C864 C 0.46361 0.54474 0.36103 0.0
C865 C 0.48241 0.56876 0.40935 0.0
C866 C 0.47998 0.59749 0.28587 0.0
C867 C 0.45822 0.57363 0.24379 0.0
N868 N 0.42891 0.52391 0.24205 0.0
N869 N 0.51895 0.61565 0.39014 0.0
C870 C 0.45012 0.54701 0.28086 0.0
C871 C 0.49387 0.59456 0.36362 0.0
N872 N 0.46012 0.51992 0.3893 0.0
N873 N 0.48638 0.62306 0.25497 0.0
H874 H 0.53135 0.61282 0.43751 0.0
H875 H 0.52923 0.6344 0.35532 0.0
H876 H 0.47628 0.62614 0.1996 0.0
H877 H 0.49991 0.64116 0.28953 0.0
H878 H 0.44877 0.5016 0.3529 0.0
H879 H 0.47152 0.51841 0.44386 0.0
H880 H 0.41981 0.50457 0.27308 0.0
H881 H 0.41903 0.52398 0.18133 0.0
C882 C 0.531 0.73698 0.99489 0.0
C883 C 0.54281 0.76004 0.05524 0.0
C884 C 0.58051 0.78571 0.94473 0.0
C885 C 0.56757 0.76381 0.88117 0.0
N886 N 0.53342 0.71629 0.84979 0.0
N887 N 0.57762 0.80743 0.08472 0.0
C888 C 0.54383 0.73858 0.90772 0.0
C889 C 0.5674 0.78456 0.02986 0.0
N890 N 0.50635 0.71445 0.01803 0.0
N891 N 0.60598 0.80741 0.92395 0.0
H892 H 0.57128 0.80733 0.15254 0.0
H893 H 0.59131 0.82709 0.0603 0.0
H894 H 0.61653 0.80816 0.86334 0.0
H895 H 0.61777 0.82346 0.96928 0.0
H896 H 0.4948 0.69787 0.97433 0.0
H897 H 0.49619 0.7129 0.08023 0.0
H898 H 0.51795 0.69664 0.8679 0.0
H899 H 0.54133 0.71647 0.78459 0.0
C900 C 0.23906 0.77339 0.00872 0.0
C901 C 0.23316 0.78446 0.08752 0.0
C902 C 0.22689 0.81633 0.98651 0.0
C903 C 0.22829 0.80188 0.90825 0.0
N904 N 0.2311 0.76318 0.84654 0.0
N905 N 0.21884 0.81555 0.15112 0.0
C906 C 0.233 0.7794 0.91983 0.0
C907 C 0.22662 0.80591 0.07682 0.0
N908 N 0.25133 0.75772 0.01865 0.0
N909 N 0.22581 0.83996 0.97468 0.0
H910 H 0.21973 0.81009 0.21915 0.0
H911 H 0.21008 0.82805 0.14484 0.0
H912 H 0.22485 0.84748 0.90944 0.0
H913 H 0.22789 0.85312 0.02901 0.0
H914 H 0.2585 0.7513 0.96268 0.0
H915 H 0.25724 0.75391 0.08304 0.0
H916 H 0.23063 0.74445 0.854 0.0
H917 H 0.2285 0.7676 0.7788 0.0
C918 C 0.18675 0.41782 0.02181 0.0
C919 C 0.19994 0.43555 0.94581 0.0
C920 C 0.22153 0.47487 0.05117 0.0
C921 C 0.21311 0.45684 0.1274 0.0
N922 N 0.18704 0.41021 0.1868 0.0
N923 N 0.234 0.48065 0.89071 0.0
C924 C 0.19516 0.42801 0.11367 0.0
C925 C 0.21832 0.46401 0.96106 0.0
N926 N 0.16633 0.39135 0.00625 0.0
N927 N 0.23266 0.50253 0.06518 0.0
H928 H 0.23301 0.47382 0.82315 0.0
H929 H 0.24991 0.50072 0.90193 0.0
H930 H 0.23461 0.51096 0.13121 0.0
H931 H 0.23691 0.51649 0.01132 0.0
H932 H 0.15389 0.37825 0.05862 0.0
H933 H 0.1605 0.38314 0.93973 0.0
H934 H 0.17739 0.38891 0.17936 0.0
H935 H 0.19072 0.41663 0.25537 0.0
C936 C 0.20994 0.35295 0.38344 0.0
C937 C 0.19298 0.36363 0.41241 0.0
C938 C 0.15554 0.32931 0.31579 0.0
C939 C 0.17384 0.32132 0.27726 0.0
N940 N 0.22009 0.32961 0.2615 0.0
N941 N 0.15081 0.36488 0.39425 0.0
C942 C 0.20154 0.3343 0.30751 0.0
C943 C 0.16606 0.3526 0.3754 0.0
N944 N 0.23391 0.36035 0.42941 0.0
N945 N 0.12794 0.31412 0.29862 0.0
H946 H 0.15742 0.38171 0.43858 0.0
H947 H 0.1325 0.35971 0.36004 0.0
H948 H 0.11917 0.29678 0.25608 0.0
H949 H 0.11344 0.31723 0.33354 0.0
H950 H 0.24592 0.3513 0.41672 0.0
H951 H 0.24038 0.3738 0.48586 0.0
H952 H 0.24114 0.3405 0.27506 0.0
H953 H 0.21466 0.31656 0.20416 0.0
C954 C 0.69439 0.86011 0.35995 0.0
C955 C 0.69223 0.85738 0.2616 0.0
C956 C 0.64326 0.84005 0.28184 0.0
C957 C 0.64448 0.83364 0.37613 0.0
N958 N 0.67415 0.83469 0.50026 0.0
N959 N 0.66038 0.8363 0.13377 0.0
C960 C 0.67092 0.84311 0.41503 0.0
C961 C 0.66552 0.8454 0.22294 0.0
N962 N 0.71821 0.87924 0.40079 0.0
N963 N 0.62107 0.84085 0.24791 0.0
H964 H 0.67514 0.83556 0.09197 0.0
H965 H 0.64039 0.82587 0.10763 0.0
H966 H 0.60473 0.838 0.29017 0.0
H967 H 0.62125 0.84794 0.18096 0.0
H968 H 0.71989 0.88239 0.47237 0.0
H969 H 0.73492 0.89364 0.36185 0.0
H970 H 0.69355 0.84038 0.52702 0.0
H971 H 0.65769 0.81966 0.53818 0.0
C972 C 0.1399 0.80019 0.34261 0.0
C973 C 0.16797 0.81506 0.36868 0.0
C974 C 0.17409 0.85421 0.27453 0.0
C975 C 0.1467 0.83822 0.24143 0.0
N976 N 0.10575 0.79391 0.22759 0.0
N977 N 0.21333 0.85422 0.34423 0.0
C978 C 0.13032 0.81049 0.27028 0.0
C979 C 0.18555 0.84151 0.33019 0.0
N980 N 0.12219 0.77665 0.38894 0.0
N981 N 0.18887 0.8818 0.25618 0.0
H982 H 0.22266 0.84585 0.38503 0.0
H983 H 0.22732 0.87197 0.30892 0.0
H984 H 0.18151 0.89199 0.21494 0.0
H985 H 0.2076 0.89498 0.28794 0.0
H986 H 0.10097 0.76634 0.37883 0.0
H987 H 0.12856 0.76884 0.44322 0.0
H988 H 0.09404 0.77282 0.23994 0.0
H989 H 0.09839 0.80094 0.17384 0.0
C990 C 0.34353 0.19788 0.62559 0.0
C991 C 0.36539 0.19369 0.65353 0.0
C992 C 0.33899 0.16758 0.7875 0.0
C993 C 0.31502 0.16631 0.75082 0.0
N994 N 0.29589 0.18639 0.64718 0.0
N995 N 0.38662 0.20066 0.80349 0.0
C996 C 0.31773 0.18356 0.67361 0.0
C997 C 0.36453 0.18605 0.74744 0.0
N998 N 0.3489 0.21869 0.56527 0.0
N999 N 0.33789 0.15114 0.85887 0.0
H1000 H 0.40387 0.21862 0.78003 0.0
H1001 H 0.38598 0.19687 0.8746 0.0
H1002 H 0.31946 0.13585 0.8873 0.0
H1003 H 0.35556 0.15141 0.8831 0.0
H1004 H 0.33458 0.22427 0.54487 0.0
H1005 H 0.36899 0.23271 0.54504 0.0
H1006 H 0.29516 0.19549 0.58521 0.0
H1007 H 0.27812 0.1791 0.68723 0.0
C1008 C 0.80974 0.13053 0.72967 0.0
C1009 C 0.83783 0.14703 0.75392 0.0
C1010 C 0.84145 0.18389 0.65237 0.0
C1011 C 0.81399 0.1664 0.62217 0.0
N1012 N 0.77385 0.12129 0.61775 0.0
N1013 N 0.88196 0.1875 0.72554 0.0
C1014 C 0.79872 0.13911 0.65646 0.0
C1015 C 0.85415 0.17319 0.71159 0.0
N1016 N 0.79343 0.10695 0.77821 0.0
N1017 N 0.8551 0.21107 0.62764 0.0
H1018 H 0.8921 0.18084 0.76997 0.0
H1019 H 0.89528 0.20493 0.68746 0.0
H1020 H 0.84689 0.21971 0.5829 0.0
H1021 H 0.87379 0.22551 0.65682 0.0
H1022 H 0.77218 0.09537 0.76997 0.0
H1023 H 0.80094 0.10027 0.83253 0.0
H1024 H 0.76282 0.10038 0.63361 0.0
H1025 H 0.76544 0.12703 0.56355 0.0
C1026 C 0.86793 0.67859 0.67312 0.0
C1027 C 0.85456 0.69424 0.68365 0.0
C1028 C 0.82018 0.66568 0.56661 0.0
C1029 C 0.83223 0.64871 0.56146 0.0
N1030 N 0.86734 0.63836 0.60721 0.0
N1031 N 0.81729 0.70233 0.64646 0.0
C1032 C 0.85624 0.65518 0.61351 0.0
C1033 C 0.83057 0.68777 0.63158 0.0
N1034 N 0.89205 0.6865 0.71921 0.0
N1035 N 0.7988 0.66064 0.50905 0.0
H1036 H 0.8245 0.71897 0.69191 0.0
H1037 H 0.7982 0.69709 0.61859 0.0
H1038 H 0.79011 0.64413 0.46301 0.0
H1039 H 0.79086 0.67378 0.50139 0.0
H1040 H 0.90458 0.678 0.70813 0.0
H1041 H 0.90038 0.70274 0.76656 0.0
H1042 H 0.88267 0.63954 0.65063 0.0
H1043 H 0.86053 0.62236 0.55912 0.0
C1044 C 0.98808 0.47474 0.04868 0.0
C1045 C 0.9758 0.48973 0.08377 0.0
C1046 C 0.00677 0.52939 0.98777 0.0
C1047 C 0.02046 0.51523 0.95831 0.0
N1048 N 0.02748 0.47628 0.97359 0.0
N1049 N 0.9765 0.53275 0.10092 0.0
C1050 C 0.01206 0.4884 0.99238 0.0
C1051 C 0.98617 0.51757 0.05771 0.0
N1052 N 0.9763 0.44718 0.06639 0.0
N1053 N 0.01306 0.55387 0.94715 0.0
H1054 H 0.96147 0.52457 0.15259 0.0
H1055 H 0.98498 0.55387 0.0915 0.0
H1056 H 0.02796 0.56293 0.89541 0.0
H1057 H 0.002 0.56397 0.95895 0.0
H1058 H 0.98225 0.43446 0.03323 0.0
H1059 H 0.95928 0.43654 0.10967 0.0
H1060 H 0.02429 0.45828 0.00572 0.0
H1061 H 0.04483 0.48523 0.93104 0.0
C1062 C 0.51554 0.51957 0.96766 0.0
C1063 C 0.48775 0.50537 0.93759 0.0
C1064 C 0.4784 0.46661 0.03955 0.0
C1065 C 0.50655 0.47996 0.06498 0.0
N1066 N 0.55313 0.51664 0.0384 0.0
N1067 N 0.44436 0.46323 0.9285 0.0
C1068 C 0.5255 0.50573 0.02471 0.0
C1069 C 0.46971 0.47814 0.96835 0.0
N1070 N 0.5322 0.54663 0.94472 0.0
N1071 N 0.45985 0.44333 0.08538 0.0
H1072 H 0.4376 0.47119 0.87584 0.0
H1073 H 0.43116 0.4424 0.94165 0.0
H1074 H 0.46559 0.4345 0.13819 0.0
H1075 H 0.43865 0.43415 0.07648 0.0
H1076 H 0.55152 0.559 0.97412 0.0
H1077 H 0.52604 0.55734 0.90094 0.0
H1078 H 0.568 0.53356 0.00172 0.0
H1079 H 0.56139 0.50753 0.08074 0.0
C1080 C 0.49041 0.00909 0.01014 0.0
C1081 C 0.51735 0.01925 0.04603 0.0
C1082 C 0.52402 0.98888 0.93976 0.0
C1083 C 0.49612 0.97645 0.91192 0.0
N1084 N 0.45111 0.9713 0.93513 0.0
N1085 N 0.55746 0.01436 0.05955 0.0
C1086 C 0.47881 0.98558 0.95119 0.0
C1087 C 0.53343 0.00772 0.01529 0.0
N1088 N 0.47617 0.02242 0.02926 0.0
N1089 N 0.54175 0.98335 0.89214 0.0
H1090 H 0.56468 0.02786 0.11582 0.0
H1091 H 0.56881 0.00466 0.04561 0.0
H1092 H 0.53551 0.97003 0.83537 0.0
H1093 H 0.5629 0.99378 0.90388 0.0
H1094 H 0.45787 0.01781 0.99604 0.0
H1095 H 0.48369 0.03959 0.07241 0.0
H1096 H 0.43723 0.97519 0.97071 0.0
H1097 H 0.44165 0.95403 0.89238 0.0
C1098 C 0.1363 0.15773 0.9719 0.0
C1099 C 0.15309 0.18601 0.9941 0.0
C1100 C 0.19382 0.1848 0.93877 0.0
C1101 C 0.17766 0.1558 0.92926 0.0
N1102 N 0.13388 0.11395 0.94314 0.0
N1103 N 0.19795 0.22655 0.00456 0.0
C1104 C 0.1489 0.14206 0.94638 0.0
C1105 C 0.18188 0.19968 0.97821 0.0
N1106 N 0.1083 0.14601 0.97362 0.0
N1107 N 0.22049 0.19808 0.90853 0.0
H1108 H 0.18989 0.23822 0.03249 0.0
H1109 H 0.21935 0.23679 0.00483 0.0
H1110 H 0.22968 0.1877 0.87862 0.0
H1111 H 0.23269 0.21942 0.90513 0.0
H1112 H 0.09491 0.1263 0.94893 0.0
H1113 H 0.09843 0.15692 0.99222 0.0
H1114 H 0.1136 0.10257 0.96592 0.0
H1115 H 0.14221 0.10173 0.92345 0.0
C1116 C 0.84376 0.99611 0.12029 0.0
C1117 C 0.83583 0.97584 0.0498 0.0
C1118 C 0.85173 0.01195 0.93247 0.0
C1119 C 0.86299 0.03264 0.00192 0.0
N1120 N 0.87678 0.04289 0.16285 0.0
N1121 N 0.84374 0.96695 0.89218 0.0
C1122 C 0.86112 0.02435 0.09642 0.0
C1123 C 0.84355 0.98457 0.95692 0.0
N1124 N 0.83412 0.98895 0.20867 0.0
N1125 N 0.8471 0.01769 0.84448 0.0
H1126 H 0.84066 0.94762 0.91044 0.0
H1127 H 0.85074 0.97309 0.82454 0.0
H1128 H 0.8492 0.03657 0.82539 0.0
H1129 H 0.83735 0.00238 0.79441 0.0
H1130 H 0.83748 0.00352 0.25957 0.0
H1131 H 0.82063 0.96877 0.22885 0.0
H1132 H 0.8775 0.03724 0.23122 0.0
H1133 H 0.89172 0.06298 0.14693 0.0
C1134 C 0.98562 0.859 0.96349 0.0
C1135 C 0.9721 0.8304 0.94365 0.0
C1136 C 0.01153 0.82774 0.00468 0.0
C1137 C 0.02595 0.85671 0.01668 0.0
N1138 N 0.02858 0.90069 -0.0025 0.0
N1139 N 0.9731 0.78797 0.93319 0.0
C1140 C 0.01348 0.87258 0.99361 0.0
C1141 C 0.98526 0.81483 0.96125 0.0
N1142 N 0.97151 0.87298 0.95651 0.0
N1143 N 0.02269 0.81253 0.03703 0.0
H1144 H 0.95388 0.7778 0.9011 0.0
H1145 H 0.98289 0.77635 0.93472 0.0
H1146 H 0.04196 0.82137 0.06872 0.0
H1147 H 0.01203 0.79111 0.03956 0.0
H1148 H 0.97914 0.89307 0.97984 0.0
H1149 H 0.95117 0.86373 0.93398 0.0
H1150 H 0.02176 0.91354 0.97126 0.0
H1151 H 0.04885 0.91136 0.0211 0.0
C1152 C 0.8239 0.81578 0.91453 0.0
C1153 C 0.85297 0.83011 0.90706 0.0
C1154 C 0.85516 0.87054 0.98143 0.0
C1155 C 0.82653 0.85489 -9e-05 0.0
N1156 N 0.78358 0.8121 0.99062 0.0
N1157 N 0.89687 0.87025 0.93975 0.0
C1158 C 0.8108 0.8274 0.96754 0.0
C1159 C 0.86878 0.85739 0.94132 0.0
N1160 N 0.80891 0.7912 0.86964 0.0
N1161 N 0.8692 0.89815 -8e-05 0.0
H1162 H 0.90761 0.86177 0.90795 0.0
H1163 H 0.90952 0.88858 0.97461 0.0
H1164 H 0.86002 0.90847 0.03029 0.0
H1165 H 0.88935 0.91127 0.97841 0.0
H1166 H 0.78755 0.78076 0.86484 0.0
H1167 H 0.81809 0.78247 0.82956 0.0
H1168 H 0.77159 0.79111 0.97747 0.0
H1169 H 0.77337 0.81995 0.02958 0.0
C1170 C 0.1651 0.02482 0.06023 0.0
C1171 C 0.16139 0.03117 0.96766 0.0
C1172 C 0.12865 0.9817 0.94509 0.0
C1173 C 0.13907 0.97573 0.02643 0.0
N1174 N 0.17022 0.9925 0.15615 0.0
N1175 N 0.13301 0.01507 0.82987 0.0
C1176 C 0.15807 0.99752 0.08273 0.0
C1177 C 0.14122 0.0094 0.91195 0.0
N1178 N 0.17285 0.04397 0.12904 0.0
N1179 N 0.10572 0.96118 0.90281 0.0
H1180 H 0.13574 0.03441 0.81415 0.0
H1181 H 0.12255 1.00031 0.77891 0.0
H1182 H 0.09523 0.94101 0.92745 0.0
H1183 H 0.09553 0.96447 0.8484 0.0
H1184 H 0.17372 0.03916 0.19821 0.0
H1185 H 0.17336 0.06267 0.12022 0.0
H1186 H 0.18585 0.00827 0.19452 0.0
H1187 H 0.16686 0.97291 0.17177 0.0
C1188 C 0.99824 0.17847 0.92702 0.0
C1189 C 0.979 0.15812 0.98705 0.0
C1190 C 0.01565 0.17095 0.10146 0.0
C1191 C 0.03591 0.18806 0.03512 0.0
N1192 N 0.04406 0.19719 0.86962 0.0
N1193 N 0.97212 0.129 0.11924 0.0
C1194 C 0.02661 0.18895 0.94341 0.0
C1195 C 0.98845 0.15252 0.07086 0.0
N1196 N 0.98975 0.18812 0.8549 0.0
N1197 N 0.02145 0.17282 0.19379 0.0
H1198 H 0.95314 0.11379 0.09399 0.0
H1199 H 0.97906 0.12321 0.17743 0.0
H1200 H 0.03987 0.18799 0.22153 0.0
H1201 H 0.00643 0.16175 0.2436 0.0
H1202 H 0.00354 0.20439 0.8131 0.0
H1203 H 0.96912 0.18211 0.84443 0.0
H1204 H 0.03751 0.19666 0.80159 0.0
H1205 H 0.06356 0.19962 0.87449 0.0
C1206 C 0.85455 0.50212 0.32424 0.0
C1207 C 0.83846 0.47328 0.30965 0.0
C1208 C 0.79642 0.47478 0.34454 0.0
C1209 C 0.81274 0.50318 0.36595 0.0
N1210 N 0.85729 0.54311 0.39124 0.0
N1211 N 0.79481 0.43119 0.31996 0.0
C1212 C 0.84182 0.51663 0.36016 0.0
C1213 C 0.80956 0.4593 0.32355 0.0
N1214 N 0.88177 0.51581 0.30009 0.0
N1215 N 0.76841 0.46283 0.34109 0.0
H1216 H 0.8037 0.41917 0.30461 0.0
H1217 H 0.77423 0.41964 0.33948 0.0
H1218 H 0.75806 0.47342 0.35728 0.0
H1219 H 0.75554 0.44309 0.31555 0.0
H1220 H 0.89388 0.53718 0.2996 0.0
H1221 H 0.8918 0.50596 0.27251 0.0
H1222 H 0.87859 0.55308 0.39827 0.0
H1223 H 0.84863 0.55439 0.41778 0.0
C1224 C 0.50045 0.34965 0.37677 0.0
C1225 C 0.52694 0.36146 0.33532 0.0
C1226 C 0.52783 0.31868 0.3631 0.0
C1227 C 0.50203 0.30753 0.40843 0.0
N1228 N 0.46635 0.31388 0.47585 0.0
N1229 N 0.56833 0.3595 0.30639 0.0
C1230 C 0.48923 0.32359 0.42107 0.0
C1231 C 0.54139 0.34663 0.33353 0.0
N1232 N 0.48527 0.36252 0.36893 0.0
N1233 N 0.5389 0.30226 0.34529 0.0
H1234 H 0.57902 0.37997 0.28484 0.0
H1235 H 0.58078 0.3507 0.31293 0.0
H1236 H 0.53 0.28199 0.36871 0.0
H1237 H 0.55589 0.30812 0.30244 0.0
H1238 H 0.46473 0.3535 0.38893 0.0
H1239 H 0.49226 0.38119 0.33443 0.0
H1240 H 0.45762 0.32571 0.49555 0.0
H1241 H 0.45759 0.29477 0.50885 0.0
C1242 C 0.67608 0.1522 0.35923 0.0
C1243 C 0.68929 0.18058 0.38271 0.0
C1244 C 0.64726 0.18165 0.34358 0.0
C1245 C 0.63515 0.15415 0.3112 0.0
N1246 N 0.63883 0.11402 0.27705 0.0
N1247 N 0.68911 0.22354 0.38461 0.0
C1248 C 0.64978 0.13961 0.31601 0.0
C1249 C 0.67529 0.19565 0.37189 0.0
N1250 N 0.68826 0.13705 0.38148 0.0
N1251 N 0.63172 0.19415 0.34972 0.0
H1252 H 0.70965 0.23459 0.40508 0.0
H1253 H 0.68096 0.23608 0.36754 0.0
H1254 H 0.61118 0.18451 0.3292 0.0
H1255 H 0.63839 0.21302 0.38224 0.0
H1256 H 0.67848 0.11573 0.37509 0.0
H1257 H 0.70732 0.14547 0.41444 0.0
H1258 H 0.64973 0.10362 0.26897 0.0
H1259 H 0.61946 0.104 0.24596 0.0
C1260 C 0.53542 0.18439 0.31508 0.0
C1261 C 0.51829 0.15663 0.28671 0.0
C1262 C 0.47832 0.15631 0.35771 0.0
C1263 C 0.49519 0.18441 0.3824 0.0
N1264 N 0.53847 0.22678 0.36947 0.0
N1265 N 0.47295 0.11779 0.26469 0.0
C1266 C 0.52338 0.19892 0.3568 0.0
C1267 C 0.48954 0.1431 0.30319 0.0
N1268 N 0.56333 0.19656 0.30611 0.0
N1269 N 0.4518 0.14204 0.38917 0.0
H1270 H 0.48062 0.10786 0.22331 0.0
H1271 H 0.45155 0.10781 0.26624 0.0
H1272 H 0.443 0.15103 0.42977 0.0
H1273 H 0.43922 0.12085 0.38183 0.0
H1274 H 0.57709 0.21528 0.33676 0.0
H1275 H 0.57294 0.18718 0.27251 0.0
H1276 H 0.55809 0.23904 0.34204 0.0
H1277 H 0.53063 0.23807 0.40167 0.0
C1278 C 0.79401 0.31243 0.36908 0.0
C1279 C 0.80933 0.29949 0.39438 0.0
C1280 C 0.85142 0.33877 0.3327 0.0
C1281 C 0.83649 0.35227 0.31074 0.0
N1282 N 0.79455 0.35416 0.32021 0.0
N1283 N 0.8535 0.30142 0.4031 0.0
C1284 C 0.80798 0.33965 0.33185 0.0
C1285 C 0.83808 0.31291 0.37743 0.0
N1286 N 0.76597 0.29823 0.37683 0.0
N1287 N 0.87874 0.35067 0.31114 0.0
H1288 H 0.84575 0.28276 0.43851 0.0
H1289 H 0.84575 0.28276 0.43851 0.0
H1290 H 0.88942 0.36926 0.27525 0.0
H1291 H 0.89046 0.34145 0.32696 0.0
H1292 H 0.75327 0.30499 0.34898 0.0
H1293 H 0.75513 0.27868 0.40639 0.0
H1294 H 0.77478 0.3476 0.34478 0.0
H1295 H 0.80385 0.3738 0.29107 0.0
C1296 C 0.68356 0.52324 0.32767 0.0
C1297 C 0.69539 0.50761 0.36088 0.0
C1298 C 0.65277 0.46485 0.32472 0.0
C1299 C 0.64181 0.48051 0.28507 0.0
N1300 N 0.64803 0.52411 0.23422 0.0
N1301 N 0.6934 0.46373 0.37467 0.0
C1302 C 0.65766 0.5096 0.28205 0.0
C1303 C 0.6806 0.47844 0.35497 0.0
N1304 N 0.6966 0.55099 0.34328 0.0
N1305 N 0.63628 0.43712 0.33718 0.0
H1306 H 0.71371 0.47281 0.39744 0.0
H1307 H 0.68464 0.44275 0.36117 0.0
H1308 H 0.61595 0.4263 0.31443 0.0
H1309 H 0.64209 0.4252 0.37603 0.0
H1310 H 0.68781 0.56313 0.32898 0.0
H1311 H 0.71526 0.56156 0.37864 0.0
H1312 H 0.65971 0.54517 0.22147 0.0
H1313 H 0.62915 0.51459 0.19975 0.0
C1314 C 0.51778 0.84131 0.57028 0.0
C1315 C 0.50264 0.81216 0.56559 0.0
C1316 C 0.46099 0.81254 0.61493 0.0
C1317 C 0.47712 0.84121 0.63304 0.0
N1318 N 0.52132 0.88286 0.63515 0.0
N1319 N 0.46027 0.76944 0.588 0.0
C1320 C 0.50561 0.85569 0.61163 0.0
C1321 C 0.47425 0.79758 0.58808 0.0
N1322 N 0.54378 0.85519 0.53411 0.0
N1323 N 0.43296 0.79979 0.62114 0.0
H1324 H 0.46911 0.75786 0.56609 0.0
H1325 H 0.4405 0.75757 0.61471 0.0
H1326 H 0.42257 0.81016 0.64003 0.0
H1327 H 0.41989 0.77961 0.59979 0.0
H1328 H 0.55502 0.87651 0.52719 0.0
H1329 H 0.55311 0.84515 0.50265 0.0
H1330 H 0.5427 0.89373 0.631 0.0
H1331 H 0.51321 0.89411 0.66593 0.0
C1332 C 0.15297 0.67978 0.63689 0.0
C1333 C 0.18211 0.69543 0.6359 0.0
C1334 C 0.18473 0.65642 0.70108 0.0
C1335 C 0.15559 0.64141 0.70838 0.0
N1336 N 0.11208 0.64017 0.69823 0.0
N1337 N 0.22591 0.70089 0.68117 0.0
C1338 C 0.1397 0.65346 0.68024 0.0
C1339 C 0.19806 0.6844 0.67217 0.0
N1340 N 0.13802 0.68984 0.59441 0.0
N1341 N 0.19959 0.64357 0.71769 0.0
H1342 H 0.23645 0.7214 0.65964 0.0
H1343 H 0.23828 0.69499 0.71677 0.0
H1344 H 0.19062 0.62303 0.73813 0.0
H1345 H 0.22053 0.65251 0.70354 0.0
H1346 H 0.11688 0.67824 0.5836 0.0
H1347 H 0.14707 0.70925 0.56348 0.0
H1348 H 0.09984 0.64909 0.68841 0.0
H1349 H 0.1017 0.62101 0.73073 0.0
C1350 C 0.33236 0.50614 0.588 0.0
C1351 C 0.31126 0.49918 0.65482 0.0
C1352 C 0.34612 0.51419 0.77704 0.0
C1353 C 0.36746 0.52555 0.70963 0.0
N1354 N 0.37906 0.53959 0.54886 0.0
N1355 N 0.30064 0.50586 0.81198 0.0
C1356 C 0.36013 0.52371 0.61429 0.0
C1357 C 0.31883 0.50586 0.7493 0.0
N1358 N 0.32636 0.49524 0.50074 0.0
N1359 N 0.35131 0.51016 0.86642 0.0
H1360 H 0.28171 0.50332 0.79187 0.0
H1361 H 0.30604 0.51236 0.88038 0.0
H1362 H 0.37036 0.51336 0.88855 0.0
H1363 H 0.33566 0.50016 0.91522 0.0
H1364 H 0.34164 0.49851 0.45282 0.0
H1365 H 0.30669 0.48023 0.48041 0.0
H1366 H 0.37373 0.53994 0.47981 0.0
H1367 H 0.39894 0.55507 0.56523 0.0
C1368 C 0.17797 0.52071 0.77876 0.0
C1369 C 0.16237 0.52721 0.71647 0.0
C1370 C 0.17297 0.50386 0.59256 0.0
C1371 C 0.19115 0.50057 0.65185 0.0
N1372 N 0.21911 0.51746 0.78934 0.0
N1373 N 0.1567 0.53491 0.55355 0.0
C1374 C 0.19616 0.51247 0.74158 0.0
C1375 C 0.16331 0.52182 0.61992 0.0
N1376 N 0.17491 0.52097 0.87257 0.0
N1377 N 0.16395 0.48928 0.51216 0.0
H1378 H 0.15344 0.55126 0.56841 0.0
H1379 H 0.15864 0.5323 0.48287 0.0
H1380 H 0.16854 0.47402 0.49437 0.0
H1381 H 0.14921 0.49003 0.47016 0.0
H1382 H 0.18505 0.51458 0.91822 0.0
H1383 H 0.15994 0.52395 0.90432 0.0
H1384 H 0.22449 0.52799 0.85236 0.0
H1385 H 0.2344 0.51454 0.75934 0.0
C1386 C 0.47007 0.6569 0.7004 0.0
C1387 C 0.48545 0.64303 0.70293 0.0
C1388 C 0.5212 0.67912 0.6056 0.0
C1389 C 0.5068 0.69389 0.60863 0.0
N1390 N 0.47002 0.69949 0.67121 0.0
N1391 N 0.52812 0.64368 0.67524 0.0
C1392 C 0.48202 0.68361 0.66008 0.0
C1393 C 0.51175 0.65495 0.66027 0.0
N1394 N 0.44351 0.644 0.73165 0.0
N1395 N 0.54381 0.6881 0.54986 0.0
H1396 H 0.52215 0.6265 0.71752 0.0
H1397 H 0.54852 0.6528 0.6535 0.0
H1398 H 0.55166 0.70605 0.51039 0.0
H1399 H 0.55341 0.67663 0.53678 0.0
H1400 H 0.43027 0.65176 0.72156 0.0
H1401 H 0.43384 0.62444 0.76131 0.0
H1402 H 0.45389 0.6946 0.71717 0.0
H1403 H 0.47739 0.71857 0.63901 0.0
C1404 C 0.32454 0.82485 0.5449 0.0
C1405 C 0.30296 0.81212 0.61046 0.0
C1406 C 0.33742 0.83097 0.73454 0.0
C1407 C 0.35899 0.84022 0.66871 0.0
N1408 N 0.37035 0.83395 0.51231 0.0
N1409 N 0.29153 0.79425 0.76662 0.0
C1410 C 0.35181 0.83367 0.57382 0.0
C1411 C 0.31012 0.81256 0.70536 0.0
N1412 N 0.31962 0.82987 0.45674 0.0
N1413 N 0.34241 0.84043 0.82332 0.0
H1414 H 0.27312 0.77761 0.7438 0.0
H1415 H 0.29641 0.79311 0.83566 0.0
H1416 H 0.36155 0.85632 0.84382 0.0
H1417 H 0.32668 0.83513 0.87159 0.0
H1418 H 0.33539 0.84048 0.40879 0.0
H1419 H 0.30055 0.827 0.43691 0.0
H1420 H 0.36544 0.8281 0.44314 0.0
H1421 H 0.38865 0.83547 0.53511 0.0
loop_
_geom_bond_atom_site_label_1
_geom_bond_atom_site_label_2
_geom_bond_distance
_geom_bond_site_symmetry_2
_ccdc_geom_bond_type
Co0 O3 1.970 . S
Co0 N17 1.989 . S
Co0 O25 1.967 . S
Co0 O32 1.920 1_554 S
Co1 O4 1.966 . S
Co1 N10 2.022 . S
Co1 N18 1.993 . S
Co1 O26 1.941 . S
C2 O3 1.258 . S
C2 O4 1.263 . S
O3 Co0 1.970 . S
O3 C2 1.258 . S
O4 Co1 1.966 . S
O4 C2 1.263 . S
C5 O6 1.235 . S
C5 O32 1.289 . S
O6 C5 1.235 . S
C7 C9 1.400 . S
C7 N10 1.351 . S
C7 C12 1.501 . S
C8 C9 1.387 . S
C8 N11 1.341 . S
C9 C7 1.400 . S
C9 C8 1.387 . S
N10 Co1 2.022 . S
N10 C7 1.351 . S
N10 N11 1.365 . S
N11 C8 1.341 . S
N11 N10 1.365 . S
N11 H31 0.862 . S
C12 C7 1.501 . S
C12 H13 0.961 . S
C12 H14 0.961 . S
C12 H15 0.960 . S
H13 C12 0.961 . S
H14 C12 0.961 . S
H15 C12 0.960 . S
C16 N17 1.342 . S
C16 C20 1.401 . S
C16 C21 1.499 . S
N17 Co0 1.989 . S
N17 C16 1.342 . S
N17 N18 1.388 . S
N18 Co1 1.993 . S
N18 N17 1.388 . S
N18 C19 1.346 . S
C19 N18 1.346 . S
C19 C20 1.396 . S
C19 C29 1.510 . S
C20 C16 1.401 . S
C20 C19 1.396 . S
C21 C16 1.499 . S
C21 H22 0.959 1_554 S
C21 H23 0.960 . S
C21 H24 0.961 . S
H22 C21 0.959 1_556 S
H23 C21 0.960 . S
H24 C21 0.961 . S
O25 Co0 1.967 . S
O25 C33 1.258 . S
O26 Co1 1.941 . S
O26 C33 1.266 . S
H27 C29 0.959 . S
H28 C29 0.961 . S
C29 C19 1.510 . S
C29 H27 0.959 . S
C29 H28 0.961 . S
C29 H30 0.960 . S
H30 C29 0.960 . S
H31 N11 0.862 . S
O32 Co0 1.920 1_556 S
O32 C5 1.289 . S
C33 O25 1.258 . S
C33 O26 1.266 . S
Co34 O37 1.970 . S
Co34 N51 1.989 . S
Co34 O59 1.967 . S
Co34 O66 1.920 1_554 S
Co35 O38 1.966 . S
Co35 N44 2.022 . S
Co35 N52 1.993 . S
Co35 O60 1.941 . S
C36 O37 1.258 . S
C36 O38 1.263 . S
O37 Co34 1.970 . S
O37 C36 1.258 . S
O38 Co35 1.966 . S
O38 C36 1.263 . S
C39 O40 1.235 . S
C39 O66 1.289 . S
O40 C39 1.235 . S
C41 C43 1.400 . S
C41 N44 1.351 . S
C41 C46 1.501 . S
C42 C43 1.387 . S
C42 N45 1.341 . S
C43 C41 1.400 . S
C43 C42 1.387 . S
N44 Co35 2.022 . S
N44 C41 1.351 . S
N44 N45 1.365 . S
N45 C42 1.341 . S
N45 N44 1.365 . S
N45 H65 0.862 . S
C46 C41 1.501 . S
C46 H47 0.961 . S
C46 H48 0.961 . S
C46 H49 0.960 . S
H47 C46 0.961 . S
H48 C46 0.961 . S
H49 C46 0.960 . S
C50 N51 1.342 . S
C50 C54 1.401 . S
C50 C55 1.499 . S
N51 Co34 1.989 . S
N51 C50 1.342 . S
N51 N52 1.388 . S
N52 Co35 1.993 . S
N52 N51 1.388 . S
N52 C53 1.346 . S
C53 N52 1.346 . S
C53 C54 1.396 . S
C53 C63 1.510 . S
C54 C50 1.401 . S
C54 C53 1.396 . S
C55 C50 1.499 . S
C55 H56 0.959 1_554 S
C55 H57 0.960 . S
C55 H58 0.961 . S
H56 C55 0.959 1_556 S
H57 C55 0.960 . S
H58 C55 0.961 . S
O59 Co34 1.967 . S
O59 C67 1.258 . S
O60 Co35 1.941 . S
O60 C67 1.266 . S
H61 C63 0.959 . S
H62 C63 0.961 . S
C63 C53 1.510 . S
C63 H61 0.959 . S
C63 H62 0.961 . S
C63 H64 0.960 . S
H64 C63 0.960 . S
H65 N45 0.862 . S
O66 Co34 1.920 1_556 S
O66 C39 1.289 . S
C67 O59 1.258 . S
C67 O60 1.266 . S
Co68 O71 1.970 . S
Co68 N85 1.989 . S
Co68 O93 1.967 . S
Co68 O100 1.920 1_554 S
Co69 O72 1.966 . S
Co69 N78 2.022 . S
Co69 N86 1.993 . S
Co69 O94 1.941 . S
C70 O71 1.258 . S
C70 O72 1.263 . S
O71 Co68 1.970 . S
O71 C70 1.258 . S
O72 Co69 1.966 . S
O72 C70 1.263 . S
C73 O74 1.235 . S
C73 O100 1.289 . S
O74 C73 1.235 . S
C75 C77 1.400 . S
C75 N78 1.351 . S
C75 C80 1.501 . S
C76 C77 1.387 . S
C76 N79 1.341 . S
C77 C75 1.400 . S
C77 C76 1.387 . S
N78 Co69 2.022 . S
N78 C75 1.351 . S
N78 N79 1.365 . S
N79 C76 1.341 . S
N79 N78 1.365 . S
N79 H99 0.862 . S
C80 C75 1.501 . S
C80 H81 0.961 . S
C80 H82 0.961 . S
C80 H83 0.960 . S
H81 C80 0.961 . S
H82 C80 0.961 . S
H83 C80 0.960 . S
C84 N85 1.342 . S
C84 C88 1.401 . S
C84 C89 1.499 . S
N85 Co68 1.989 . S
N85 C84 1.342 . S
N85 N86 1.388 . S
N86 Co69 1.993 . S
N86 N85 1.388 . S
N86 C87 1.346 . S
C87 N86 1.346 . S
C87 C88 1.396 . S
C87 C97 1.510 . S
C88 C84 1.401 . S
C88 C87 1.396 . S
C89 C84 1.499 . S
C89 H90 0.959 1_554 S
C89 H91 0.960 . S
C89 H92 0.961 . S
H90 C89 0.959 1_556 S
H91 C89 0.960 . S
H92 C89 0.961 . S
O93 Co68 1.967 . S
O93 C101 1.258 . S
O94 Co69 1.941 . S
O94 C101 1.266 . S
H95 C97 0.959 . S
H96 C97 0.961 . S
C97 C87 1.510 . S
C97 H95 0.959 . S
C97 H96 0.961 . S
C97 H98 0.960 . S
H98 C97 0.960 . S
H99 N79 0.862 . S
O100 Co68 1.920 1_556 S
O100 C73 1.289 . S
C101 O93 1.258 . S
C101 O94 1.266 . S
Co102 O105 1.970 . S
Co102 N119 1.989 . S
Co102 O127 1.967 . S
Co102 O134 1.920 1_556 S
Co103 O106 1.966 . S
Co103 N112 2.022 . S
Co103 N120 1.993 . S
Co103 O128 1.941 . S
C104 O105 1.258 . S
C104 O106 1.263 . S
O105 Co102 1.970 . S
O105 C104 1.258 . S
O106 Co103 1.966 . S
O106 C104 1.263 . S
C107 O108 1.235 . S
C107 O134 1.289 . S
O108 C107 1.235 . S
C109 C111 1.400 . S
C109 N112 1.351 . S
C109 C114 1.501 . S
C110 C111 1.387 . S
C110 N113 1.341 . S
C111 C109 1.400 . S
C111 C110 1.387 . S
N112 Co103 2.022 . S
N112 C109 1.351 . S
N112 N113 1.365 . S
N113 C110 1.341 . S
N113 N112 1.365 . S
N113 H133 0.862 . S
C114 C109 1.501 . S
C114 H115 0.961 . S
C114 H116 0.961 . S
C114 H117 0.960 . S
H115 C114 0.961 . S
H116 C114 0.961 . S
H117 C114 0.960 . S
C118 N119 1.342 . S
C118 C122 1.401 . S
C118 C123 1.499 . S
N119 Co102 1.989 . S
N119 C118 1.342 . S
N119 N120 1.388 . S
N120 Co103 1.993 . S
N120 N119 1.388 . S
N120 C121 1.346 . S
C121 N120 1.346 . S
C121 C122 1.396 . S
C121 C131 1.510 . S
C122 C118 1.401 . S
C122 C121 1.396 . S
C123 C118 1.499 . S
C123 H124 0.959 1_556 S
C123 H125 0.960 . S
C123 H126 0.961 . S
H124 C123 0.959 1_554 S
H125 C123 0.960 . S
H126 C123 0.961 . S
O127 Co102 1.967 . S
O127 C135 1.258 . S
O128 Co103 1.941 . S
O128 C135 1.266 . S
H129 C131 0.959 . S
H130 C131 0.961 . S
C131 C121 1.510 . S
C131 H129 0.959 . S
C131 H130 0.961 . S
C131 H132 0.960 . S
H132 C131 0.960 . S
H133 N113 0.862 . S
O134 Co102 1.920 1_554 S
O134 C107 1.289 . S
C135 O127 1.258 . S
C135 O128 1.266 . S
Co136 O139 1.970 . S
Co136 N153 1.989 . S
Co136 O161 1.967 . S
Co136 O168 1.920 1_556 S
Co137 O140 1.966 . S
Co137 N146 2.022 . S
Co137 N154 1.993 . S
Co137 O162 1.941 . S
C138 O139 1.258 . S
C138 O140 1.263 . S
O139 Co136 1.970 . S
O139 C138 1.258 . S
O140 Co137 1.966 . S
O140 C138 1.263 . S
C141 O142 1.235 . S
C141 O168 1.289 . S
O142 C141 1.235 . S
C143 C145 1.400 . S
C143 N146 1.351 . S
C143 C148 1.501 . S
C144 C145 1.387 . S
C144 N147 1.341 . S
C145 C143 1.400 . S
C145 C144 1.387 . S
N146 Co137 2.022 . S
N146 C143 1.351 . S
N146 N147 1.365 . S
N147 C144 1.341 . S
N147 N146 1.365 . S
N147 H167 0.862 . S
C148 C143 1.501 . S
C148 H149 0.961 . S
C148 H150 0.961 . S
C148 H151 0.960 . S
H149 C148 0.961 . S
H150 C148 0.961 . S
H151 C148 0.960 . S
C152 N153 1.342 . S
C152 C156 1.401 . S
C152 C157 1.499 . S
N153 Co136 1.989 . S
N153 C152 1.342 . S
N153 N154 1.388 . S
N154 Co137 1.993 . S
N154 N153 1.388 . S
N154 C155 1.346 . S
C155 N154 1.346 . S
C155 C156 1.396 . S
C155 C165 1.510 . S
C156 C152 1.401 . S
C156 C155 1.396 . S
C157 C152 1.499 . S
C157 H158 0.959 1_556 S
C157 H159 0.960 . S
C157 H160 0.961 . S
H158 C157 0.959 1_554 S
H159 C157 0.960 . S
H160 C157 0.961 . S
O161 Co136 1.967 . S
O161 C169 1.258 . S
O162 Co137 1.941 . S
O162 C169 1.266 . S
H163 C165 0.959 . S
H164 C165 0.961 . S
C165 C155 1.510 . S
C165 H163 0.959 . S
C165 H164 0.961 . S
C165 H166 0.960 . S
H166 C165 0.960 . S
H167 N147 0.862 . S
O168 Co136 1.920 1_554 S
O168 C141 1.289 . S
C169 O161 1.258 . S
C169 O162 1.266 . S
Co170 O173 1.970 . S
Co170 N187 1.989 . S
Co170 O195 1.967 . S
Co170 O202 1.920 1_556 S
Co171 O174 1.966 . S
Co171 N180 2.022 . S
Co171 N188 1.993 . S
Co171 O196 1.941 . S
C172 O173 1.258 . S
C172 O174 1.263 . S
O173 Co170 1.970 . S
O173 C172 1.258 . S
O174 Co171 1.966 . S
O174 C172 1.263 . S
C175 O176 1.235 . S
C175 O202 1.289 . S
O176 C175 1.235 . S
C177 C179 1.400 . S
C177 N180 1.351 . S
C177 C182 1.501 . S
C178 C179 1.387 . S
C178 N181 1.341 . S
C179 C177 1.400 . S
C179 C178 1.387 . S
N180 Co171 2.022 . S
N180 C177 1.351 . S
N180 N181 1.365 . S
N181 C178 1.341 . S
N181 N180 1.365 . S
N181 H201 0.862 . S
C182 C177 1.501 . S
C182 H183 0.961 . S
C182 H184 0.961 . S
C182 H185 0.960 . S
H183 C182 0.961 . S
H184 C182 0.961 . S
H185 C182 0.960 . S
C186 N187 1.342 . S
C186 C190 1.401 . S
C186 C191 1.499 . S
N187 Co170 1.989 . S
N187 C186 1.342 . S
N187 N188 1.388 . S
N188 Co171 1.993 . S
N188 N187 1.388 . S
N188 C189 1.346 . S
C189 N188 1.346 . S
C189 C190 1.396 . S
C189 C199 1.510 . S
C190 C186 1.401 . S
C190 C189 1.396 . S
C191 C186 1.499 . S
C191 H192 0.959 1_556 S
C191 H193 0.960 . S
C191 H194 0.961 . S
H192 C191 0.959 1_554 S
H193 C191 0.960 . S
H194 C191 0.961 . S
O195 Co170 1.967 . S
O195 C203 1.258 . S
O196 Co171 1.941 . S
O196 C203 1.266 . S
H197 C199 0.959 . S
H198 C199 0.961 . S
C199 C189 1.510 . S
C199 H197 0.959 . S
C199 H198 0.961 . S
C199 H200 0.960 . S
H200 C199 0.960 . S
H201 N181 0.862 . S
O202 Co170 1.920 1_554 S
O202 C175 1.289 . S
C203 O195 1.258 . S
C203 O196 1.266 . S
Co204 O207 1.970 . S
Co204 N221 1.989 . S
Co204 O229 1.967 . S
Co204 O236 1.920 . S
Co205 O208 1.966 . S
Co205 N214 2.022 . S
Co205 N222 1.993 . S
Co205 O230 1.941 . S
C206 O207 1.258 . S
C206 O208 1.263 . S
O207 Co204 1.970 . S
O207 C206 1.258 . S
O208 Co205 1.966 . S
O208 C206 1.263 . S
C209 O210 1.235 . S
C209 O236 1.289 . S
O210 C209 1.235 . S
C211 C213 1.400 . S
C211 N214 1.351 . S
C211 C216 1.501 . S
C212 C213 1.387 . S
C212 N215 1.341 . S
C213 C211 1.400 . S
C213 C212 1.387 . S
N214 Co205 2.022 . S
N214 C211 1.351 . S
N214 N215 1.365 . S
N215 C212 1.341 . S
N215 N214 1.365 . S
N215 H235 0.862 . S
C216 C211 1.501 . S
C216 H217 0.961 . S
C216 H218 0.961 . S
C216 H219 0.960 . S
H217 C216 0.961 . S
H218 C216 0.961 . S
H219 C216 0.960 . S
C220 N221 1.342 . S
C220 C224 1.401 . S
C220 C225 1.499 . S
N221 Co204 1.989 . S
N221 C220 1.342 . S
N221 N222 1.388 . S
N222 Co205 1.993 . S
N222 N221 1.388 . S
N222 C223 1.346 . S
C223 N222 1.346 . S
C223 C224 1.396 . S
C223 C233 1.510 . S
C224 C220 1.401 . S
C224 C223 1.396 . S
C225 C220 1.499 . S
C225 H226 0.959 . S
C225 H227 0.960 . S
C225 H228 0.961 . S
H226 C225 0.959 . S
H227 C225 0.960 . S
H228 C225 0.961 . S
O229 Co204 1.967 . S
O229 C237 1.258 . S
O230 Co205 1.941 . S
O230 C237 1.266 . S
H231 C233 0.959 . S
H232 C233 0.961 . S
C233 C223 1.510 . S
C233 H231 0.959 . S
C233 H232 0.961 . S
C233 H234 0.960 . S
H234 C233 0.960 . S
H235 N215 0.862 . S
O236 Co204 1.920 . S
O236 C209 1.289 . S
C237 O229 1.258 . S
C237 O230 1.266 . S
Co238 O241 1.970 . S
Co238 N255 1.989 . S
Co238 O263 1.967 . S
Co238 O270 1.920 . S
Co239 O242 1.966 . S
Co239 N248 2.022 . S
Co239 N256 1.993 . S
Co239 O264 1.941 . S
C240 O241 1.258 . S
C240 O242 1.263 . S
O241 Co238 1.970 . S
O241 C240 1.258 . S
O242 Co239 1.966 . S
O242 C240 1.263 . S
C243 O244 1.235 . S
C243 O270 1.289 . S
O244 C243 1.235 . S
C245 C247 1.400 . S
C245 N248 1.351 . S
C245 C250 1.501 . S
C246 C247 1.387 . S
C246 N249 1.341 . S
C247 C245 1.400 . S
C247 C246 1.387 . S
N248 Co239 2.022 . S
N248 C245 1.351 . S
N248 N249 1.365 . S
N249 C246 1.341 . S
N249 N248 1.365 . S
N249 H269 0.862 . S
C250 C245 1.501 . S
C250 H251 0.961 . S
C250 H252 0.961 . S
C250 H253 0.960 . S
H251 C250 0.961 . S
H252 C250 0.961 . S
H253 C250 0.960 . S
C254 N255 1.342 . S
C254 C258 1.401 . S
C254 C259 1.499 . S
N255 Co238 1.989 . S
N255 C254 1.342 . S
N255 N256 1.388 . S
N256 Co239 1.993 . S
N256 N255 1.388 . S
N256 C257 1.346 . S
C257 N256 1.346 . S
C257 C258 1.396 . S
C257 C267 1.510 . S
C258 C254 1.401 . S
C258 C257 1.396 . S
C259 C254 1.499 . S
C259 H260 0.959 . S
C259 H261 0.960 . S
C259 H262 0.961 . S
H260 C259 0.959 . S
H261 C259 0.960 . S
H262 C259 0.961 . S
O263 Co238 1.967 . S
O263 C271 1.258 . S
O264 Co239 1.941 . S
O264 C271 1.266 . S
H265 C267 0.959 . S
H266 C267 0.961 . S
C267 C257 1.510 . S
C267 H265 0.959 . S
C267 H266 0.961 . S
C267 H268 0.960 . S
H268 C267 0.960 . S
H269 N249 0.862 . S
O270 Co238 1.920 . S
O270 C243 1.289 . S
C271 O263 1.258 . S
C271 O264 1.266 . S
Co272 O275 1.970 . S
Co272 N289 1.989 . S
Co272 O297 1.967 . S
Co272 O304 1.920 . S
Co273 O276 1.966 . S
Co273 N282 2.022 . S
Co273 N290 1.993 . S
Co273 O298 1.941 . S
C274 O275 1.258 . S
C274 O276 1.263 . S
O275 Co272 1.970 . S
O275 C274 1.258 . S
O276 Co273 1.966 . S
O276 C274 1.263 . S
C277 O278 1.235 . S
C277 O304 1.289 . S
O278 C277 1.235 . S
C279 C281 1.400 . S
C279 N282 1.351 . S
C279 C284 1.501 . S
C280 C281 1.387 . S
C280 N283 1.341 . S
C281 C279 1.400 . S
C281 C280 1.387 . S
N282 Co273 2.022 . S
N282 C279 1.351 . S
N282 N283 1.365 . S
N283 C280 1.341 . S
N283 N282 1.365 . S
N283 H303 0.862 . S
C284 C279 1.501 . S
C284 H285 0.961 . S
C284 H286 0.961 . S
C284 H287 0.960 . S
H285 C284 0.961 . S
H286 C284 0.961 . S
H287 C284 0.960 . S
C288 N289 1.342 . S
C288 C292 1.401 . S
C288 C293 1.499 . S
N289 Co272 1.989 . S
N289 C288 1.342 . S
N289 N290 1.388 . S
N290 Co273 1.993 . S
N290 N289 1.388 . S
N290 C291 1.346 . S
C291 N290 1.346 . S
C291 C292 1.396 . S
C291 C301 1.510 . S
C292 C288 1.401 . S
C292 C291 1.396 . S
C293 C288 1.499 . S
C293 H294 0.959 . S
C293 H295 0.960 . S
C293 H296 0.961 . S
H294 C293 0.959 . S
H295 C293 0.960 . S
H296 C293 0.961 . S
O297 Co272 1.967 . S
O297 C305 1.258 . S
O298 Co273 1.941 . S
O298 C305 1.266 . S
H299 C301 0.959 . S
H300 C301 0.961 . S
C301 C291 1.510 . S
C301 H299 0.959 . S
C301 H300 0.961 . S
C301 H302 0.960 . S
H302 C301 0.960 . S
H303 N283 0.862 . S
O304 Co272 1.920 . S
O304 C277 1.289 . S
C305 O297 1.258 . S
C305 O298 1.266 . S
Co306 O309 1.970 . S
Co306 N323 1.989 . S
Co306 O331 1.967 . S
Co306 O338 1.920 . S
Co307 O310 1.966 . S
Co307 N316 2.022 1_554 S
Co307 N324 1.993 . S
Co307 O332 1.941 . S
C308 O309 1.258 . S
C308 O310 1.263 . S
O309 Co306 1.970 . S
O309 C308 1.258 . S
O310 Co307 1.966 . S
O310 C308 1.263 . S
C311 O312 1.235 . S
C311 O338 1.289 . S
O312 C311 1.235 . S
C313 C315 1.400 . S
C313 N316 1.351 . S
C313 C318 1.501 . S
C314 C315 1.387 . S
C314 N317 1.341 . S
C315 C313 1.400 . S
C315 C314 1.387 . S
N316 Co307 2.022 1_556 S
N316 C313 1.351 . S
N316 N317 1.365 . S
N317 C314 1.341 . S
N317 N316 1.365 . S
N317 H337 0.862 . S
C318 C313 1.501 . S
C318 H319 0.961 1_556 S
C318 H320 0.961 . S
C318 H321 0.960 . S
H319 C318 0.961 1_554 S
H320 C318 0.961 . S
H321 C318 0.960 . S
C322 N323 1.342 . S
C322 C326 1.401 . S
C322 C327 1.499 . S
N323 Co306 1.989 . S
N323 C322 1.342 . S
N323 N324 1.388 . S
N324 Co307 1.993 . S
N324 N323 1.388 . S
N324 C325 1.346 . S
C325 N324 1.346 . S
C325 C326 1.396 . S
C325 C335 1.510 1_554 S
C326 C322 1.401 . S
C326 C325 1.396 . S
C327 C322 1.499 . S
C327 H328 0.959 . S
C327 H329 0.960 . S
C327 H330 0.961 . S
H328 C327 0.959 . S
H329 C327 0.960 . S
H330 C327 0.961 . S
O331 Co306 1.967 . S
O331 C339 1.258 . S
O332 Co307 1.941 . S
O332 C339 1.266 . S
H333 C335 0.959 . S
H334 C335 0.961 . S
C335 C325 1.510 1_556 S
C335 H333 0.959 . S
C335 H334 0.961 . S
C335 H336 0.960 . S
H336 C335 0.960 . S
H337 N317 0.862 . S
O338 Co306 1.920 . S
O338 C311 1.289 . S
C339 O331 1.258 . S
C339 O332 1.266 . S
Co340 O343 1.970 . S
Co340 N357 1.989 . S
Co340 O365 1.967 . S
Co340 O372 1.920 . S
Co341 O344 1.966 . S
Co341 N350 2.022 1_554 S
Co341 N358 1.993 . S
Co341 O366 1.941 . S
C342 O343 1.258 . S
C342 O344 1.263 . S
O343 Co340 1.970 . S
O343 C342 1.258 . S
O344 Co341 1.966 . S
O344 C342 1.263 . S
C345 O346 1.235 . S
C345 O372 1.289 . S
O346 C345 1.235 . S
C347 C349 1.400 . S
C347 N350 1.351 . S
C347 C352 1.501 . S
C348 C349 1.387 . S
C348 N351 1.341 . S
C349 C347 1.400 . S
C349 C348 1.387 . S
N350 Co341 2.022 1_556 S
N350 C347 1.351 . S
N350 N351 1.365 . S
N351 C348 1.341 . S
N351 N350 1.365 . S
N351 H371 0.862 . S
C352 C347 1.501 . S
C352 H353 0.961 1_556 S
C352 H354 0.961 . S
C352 H355 0.960 . S
H353 C352 0.961 1_554 S
H354 C352 0.961 . S
H355 C352 0.960 . S
C356 N357 1.342 . S
C356 C360 1.401 . S
C356 C361 1.499 . S
N357 Co340 1.989 . S
N357 C356 1.342 . S
N357 N358 1.388 . S
N358 Co341 1.993 . S
N358 N357 1.388 . S
N358 C359 1.346 . S
C359 N358 1.346 . S
C359 C360 1.396 . S
C359 C369 1.510 1_554 S
C360 C356 1.401 . S
C360 C359 1.396 . S
C361 C356 1.499 . S
C361 H362 0.959 . S
C361 H363 0.960 . S
C361 H364 0.961 . S
H362 C361 0.959 . S
H363 C361 0.960 . S
H364 C361 0.961 . S
O365 Co340 1.967 . S
O365 C373 1.258 . S
O366 Co341 1.941 . S
O366 C373 1.266 . S
H367 C369 0.959 . S
H368 C369 0.961 . S
C369 C359 1.510 1_556 S
C369 H367 0.959 . S
C369 H368 0.961 . S
C369 H370 0.960 . S
H370 C369 0.960 . S
H371 N351 0.862 . S
O372 Co340 1.920 . S
O372 C345 1.289 . S
C373 O365 1.258 . S
C373 O366 1.266 . S
Co374 O377 1.970 . S
Co374 N391 1.989 . S
Co374 O399 1.967 . S
Co374 O406 1.920 . S
Co375 O378 1.966 . S
Co375 N384 2.022 1_554 S
Co375 N392 1.993 . S
Co375 O400 1.941 . S
C376 O377 1.258 . S
C376 O378 1.263 . S
O377 Co374 1.970 . S
O377 C376 1.258 . S
O378 Co375 1.966 . S
O378 C376 1.263 . S
C379 O380 1.235 . S
C379 O406 1.289 . S
O380 C379 1.235 . S
C381 C383 1.400 . S
C381 N384 1.351 . S
C381 C386 1.501 . S
C382 C383 1.387 . S
C382 N385 1.341 . S
C383 C381 1.400 . S
C383 C382 1.387 . S
N384 Co375 2.022 1_556 S
N384 C381 1.351 . S
N384 N385 1.365 . S
N385 C382 1.341 . S
N385 N384 1.365 . S
N385 H405 0.862 . S
C386 C381 1.501 . S
C386 H387 0.961 1_556 S
C386 H388 0.961 . S
C386 H389 0.960 . S
H387 C386 0.961 1_554 S
H388 C386 0.961 . S
H389 C386 0.960 . S
C390 N391 1.342 . S
C390 C394 1.401 . S
C390 C395 1.499 . S
N391 Co374 1.989 . S
N391 C390 1.342 . S
N391 N392 1.388 . S
N392 Co375 1.993 . S
N392 N391 1.388 . S
N392 C393 1.346 . S
C393 N392 1.346 . S
C393 C394 1.396 . S
C393 C403 1.510 1_554 S
C394 C390 1.401 . S
C394 C393 1.396 . S
C395 C390 1.499 . S
C395 H396 0.959 . S
C395 H397 0.960 . S
C395 H398 0.961 . S
H396 C395 0.959 . S
H397 C395 0.960 . S
H398 C395 0.961 . S
O399 Co374 1.967 . S
O399 C407 1.258 . S
O400 Co375 1.941 . S
O400 C407 1.266 . S
H401 C403 0.959 . S
H402 C403 0.961 . S
C403 C393 1.510 1_556 S
C403 H401 0.959 . S
C403 H402 0.961 . S
C403 H404 0.960 . S
H404 C403 0.960 . S
H405 N385 0.862 . S
O406 Co374 1.920 . S
O406 C379 1.289 . S
C407 O399 1.258 . S
C407 O400 1.266 . S
Co408 O411 1.970 . S
Co408 N425 1.989 . S
Co408 O433 1.967 . S
Co408 O440 1.920 . S
Co409 O412 1.966 . S
Co409 N418 2.022 1_556 S
Co409 N426 1.993 . S
Co409 O434 1.941 . S
C410 O411 1.258 . S
C410 O412 1.263 . S
O411 Co408 1.970 . S
O411 C410 1.258 . S
O412 Co409 1.966 . S
O412 C410 1.263 . S
C413 O414 1.235 . S
C413 O440 1.289 . S
O414 C413 1.235 . S
C415 C417 1.400 . S
C415 N418 1.351 . S
C415 C420 1.501 . S
C416 C417 1.387 . S
C416 N419 1.341 . S
C417 C415 1.400 . S
C417 C416 1.387 . S
N418 Co409 2.022 1_554 S
N418 C415 1.351 . S
N418 N419 1.365 . S
N419 C416 1.341 . S
N419 N418 1.365 . S
N419 H439 0.862 . S
C420 C415 1.501 . S
C420 H421 0.961 1_554 S
C420 H422 0.961 . S
C420 H423 0.960 . S
H421 C420 0.961 1_556 S
H422 C420 0.961 . S
H423 C420 0.960 . S
C424 N425 1.342 . S
C424 C428 1.401 . S
C424 C429 1.499 . S
N425 Co408 1.989 . S
N425 C424 1.342 . S
N425 N426 1.388 . S
N426 Co409 1.993 . S
N426 N425 1.388 . S
N426 C427 1.346 . S
C427 N426 1.346 . S
C427 C428 1.396 . S
C427 C437 1.510 1_556 S
C428 C424 1.401 . S
C428 C427 1.396 . S
C429 C424 1.499 . S
C429 H430 0.959 . S
C429 H431 0.960 . S
C429 H432 0.961 . S
H430 C429 0.959 . S
H431 C429 0.960 . S
H432 C429 0.961 . S
O433 Co408 1.967 . S
O433 C441 1.258 . S
O434 Co409 1.941 . S
O434 C441 1.266 . S
H435 C437 0.959 . S
H436 C437 0.961 . S
C437 C427 1.510 1_554 S
C437 H435 0.959 . S
C437 H436 0.961 . S
C437 H438 0.960 . S
H438 C437 0.960 . S
H439 N419 0.862 . S
O440 Co408 1.920 . S
O440 C413 1.289 . S
C441 O433 1.258 . S
C441 O434 1.266 . S
Co442 O445 1.970 . S
Co442 N459 1.989 . S
Co442 O467 1.967 . S
Co442 O474 1.920 . S
Co443 O446 1.966 . S
Co443 N452 2.022 1_556 S
Co443 N460 1.993 . S
Co443 O468 1.941 . S
C444 O445 1.258 . S
C444 O446 1.263 . S
O445 Co442 1.970 . S
O445 C444 1.258 . S
O446 Co443 1.966 . S
O446 C444 1.263 . S
C447 O448 1.235 . S
C447 O474 1.289 . S
O448 C447 1.235 . S
C449 C451 1.400 . S
C449 N452 1.351 . S
C449 C454 1.501 . S
C450 C451 1.387 . S
C450 N453 1.341 . S
C451 C449 1.400 . S
C451 C450 1.387 . S
N452 Co443 2.022 1_554 S
N452 C449 1.351 . S
N452 N453 1.365 . S
N453 C450 1.341 . S
N453 N452 1.365 . S
N453 H473 0.862 . S
C454 C449 1.501 . S
C454 H455 0.961 1_554 S
C454 H456 0.961 . S
C454 H457 0.960 . S
H455 C454 0.961 1_556 S
H456 C454 0.961 . S
H457 C454 0.960 . S
C458 N459 1.342 . S
C458 C462 1.401 . S
C458 C463 1.499 . S
N459 Co442 1.989 . S
N459 C458 1.342 . S
N459 N460 1.388 . S
N460 Co443 1.993 . S
N460 N459 1.388 . S
N460 C461 1.346 . S
C461 N460 1.346 . S
C461 C462 1.396 . S
C461 C471 1.510 1_556 S
C462 C458 1.401 . S
C462 C461 1.396 . S
C463 C458 1.499 . S
C463 H464 0.959 . S
C463 H465 0.960 . S
C463 H466 0.961 . S
H464 C463 0.959 . S
H465 C463 0.960 . S
H466 C463 0.961 . S
O467 Co442 1.967 . S
O467 C475 1.258 . S
O468 Co443 1.941 . S
O468 C475 1.266 . S
H469 C471 0.959 . S
H470 C471 0.961 . S
C471 C461 1.510 1_554 S
C471 H469 0.959 . S
C471 H470 0.961 . S
C471 H472 0.960 . S
H472 C471 0.960 . S
H473 N453 0.862 . S
O474 Co442 1.920 . S
O474 C447 1.289 . S
C475 O467 1.258 . S
C475 O468 1.266 . S
Co476 O479 1.970 . S
Co476 N493 1.989 . S
Co476 O501 1.967 . S
Co476 O508 1.920 . S
Co477 O480 1.966 . S
Co477 N486 2.022 1_556 S
Co477 N494 1.993 . S
Co477 O502 1.941 . S
C478 O479 1.258 . S
C478 O480 1.263 . S
O479 Co476 1.970 . S
O479 C478 1.258 . S
O480 Co477 1.966 . S
O480 C478 1.263 . S
C481 O482 1.235 . S
C481 O508 1.289 . S
O482 C481 1.235 . S
C483 C485 1.400 . S
C483 N486 1.351 . S
C483 C488 1.501 . S
C484 C485 1.387 . S
C484 N487 1.341 . S
C485 C483 1.400 . S
C485 C484 1.387 . S
N486 Co477 2.022 1_554 S
N486 C483 1.351 . S
N486 N487 1.365 . S
N487 C484 1.341 . S
N487 N486 1.365 . S
N487 H507 0.862 . S
C488 C483 1.501 . S
C488 H489 0.961 1_554 S
C488 H490 0.961 . S
C488 H491 0.960 . S
H489 C488 0.961 1_556 S
H490 C488 0.961 . S
H491 C488 0.960 . S
C492 N493 1.342 . S
C492 C496 1.401 . S
C492 C497 1.499 . S
N493 Co476 1.989 . S
N493 C492 1.342 . S
N493 N494 1.388 . S
N494 Co477 1.993 . S
N494 N493 1.388 . S
N494 C495 1.346 . S
C495 N494 1.346 . S
C495 C496 1.396 . S
C495 C505 1.510 1_556 S
C496 C492 1.401 . S
C496 C495 1.396 . S
C497 C492 1.499 . S
C497 H498 0.959 . S
C497 H499 0.960 . S
C497 H500 0.961 . S
H498 C497 0.959 . S
H499 C497 0.960 . S
H500 C497 0.961 . S
O501 Co476 1.967 . S
O501 C509 1.258 . S
O502 Co477 1.941 . S
O502 C509 1.266 . S
H503 C505 0.959 . S
H504 C505 0.961 . S
C505 C495 1.510 1_554 S
C505 H503 0.959 . S
C505 H504 0.961 . S
C505 H506 0.960 . S
H506 C505 0.960 . S
H507 N487 0.862 . S
O508 Co476 1.920 . S
O508 C481 1.289 . S
C509 O501 1.258 . S
C509 O502 1.266 . S
Co510 O513 1.970 . S
Co510 N527 1.989 . S
Co510 O535 1.967 . S
Co510 O542 1.920 . S
Co511 O514 1.966 . S
Co511 N520 2.022 . S
Co511 N528 1.993 . S
Co511 O536 1.941 . S
C512 O513 1.258 . S
C512 O514 1.263 . S
O513 Co510 1.970 . S
O513 C512 1.258 . S
O514 Co511 1.966 . S
O514 C512 1.263 . S
C515 O516 1.235 . S
C515 O542 1.289 . S
O516 C515 1.235 . S
C517 C519 1.400 . S
C517 N520 1.351 . S
C517 C522 1.501 . S
C518 C519 1.387 . S
C518 N521 1.341 . S
C519 C517 1.400 . S
C519 C518 1.387 . S
N520 Co511 2.022 . S
N520 C517 1.351 . S
N520 N521 1.365 . S
N521 C518 1.341 . S
N521 N520 1.365 . S
N521 H541 0.862 . S
C522 C517 1.501 . S
C522 H523 0.961 . S
C522 H524 0.961 . S
C522 H525 0.960 . S
H523 C522 0.961 . S
H524 C522 0.961 . S
H525 C522 0.960 . S
C526 N527 1.342 . S
C526 C530 1.401 . S
C526 C531 1.499 . S
N527 Co510 1.989 . S
N527 C526 1.342 . S
N527 N528 1.388 . S
N528 Co511 1.993 . S
N528 N527 1.388 . S
N528 C529 1.346 . S
C529 N528 1.346 . S
C529 C530 1.396 . S
C529 C539 1.510 . S
C530 C526 1.401 . S
C530 C529 1.396 . S
C531 C526 1.499 . S
C531 H532 0.959 . S
C531 H533 0.960 . S
C531 H534 0.961 . S
H532 C531 0.959 . S
H533 C531 0.960 . S
H534 C531 0.961 . S
O535 Co510 1.967 . S
O535 C543 1.258 . S
O536 Co511 1.941 . S
O536 C543 1.266 . S
H537 C539 0.959 . S
H538 C539 0.961 . S
C539 C529 1.510 . S
C539 H537 0.959 . S
C539 H538 0.961 . S
C539 H540 0.960 . S
H540 C539 0.960 . S
H541 N521 0.862 . S
O542 Co510 1.920 . S
O542 C515 1.289 . S
C543 O535 1.258 . S
C543 O536 1.266 . S
Co544 O547 1.970 . S
Co544 N561 1.989 . S
Co544 O569 1.967 . S
Co544 O576 1.920 . S
Co545 O548 1.966 . S
Co545 N554 2.022 . S
Co545 N562 1.993 . S
Co545 O570 1.941 . S
C546 O547 1.258 . S
C546 O548 1.263 . S
O547 Co544 1.970 . S
O547 C546 1.258 . S
O548 Co545 1.966 . S
O548 C546 1.263 . S
C549 O550 1.235 . S
C549 O576 1.289 . S
O550 C549 1.235 . S
C551 C553 1.400 . S
C551 N554 1.351 . S
C551 C556 1.501 . S
C552 C553 1.387 . S
C552 N555 1.341 . S
C553 C551 1.400 . S
C553 C552 1.387 . S
N554 Co545 2.022 . S
N554 C551 1.351 . S
N554 N555 1.365 . S
N555 C552 1.341 . S
N555 N554 1.365 . S
N555 H575 0.862 . S
C556 C551 1.501 . S
C556 H557 0.961 . S
C556 H558 0.961 . S
C556 H559 0.960 . S
H557 C556 0.961 . S
H558 C556 0.961 . S
H559 C556 0.960 . S
C560 N561 1.342 . S
C560 C564 1.401 . S
C560 C565 1.499 . S
N561 Co544 1.989 . S
N561 C560 1.342 . S
N561 N562 1.388 . S
N562 Co545 1.993 . S
N562 N561 1.388 . S
N562 C563 1.346 . S
C563 N562 1.346 . S
C563 C564 1.396 . S
C563 C573 1.510 . S
C564 C560 1.401 . S
C564 C563 1.396 . S
C565 C560 1.499 . S
C565 H566 0.959 . S
C565 H567 0.960 . S
C565 H568 0.961 . S
H566 C565 0.959 . S
H567 C565 0.960 . S
H568 C565 0.961 . S
O569 Co544 1.967 . S
O569 C577 1.258 . S
O570 Co545 1.941 . S
O570 C577 1.266 . S
H571 C573 0.959 . S
H572 C573 0.961 . S
C573 C563 1.510 . S
C573 H571 0.959 . S
C573 H572 0.961 . S
C573 H574 0.960 . S
H574 C573 0.960 . S
H575 N555 0.862 . S
O576 Co544 1.920 . S
O576 C549 1.289 . S
C577 O569 1.258 . S
C577 O570 1.266 . S
Co578 O581 1.970 . S
Co578 N595 1.989 . S
Co578 O603 1.967 . S
Co578 O610 1.920 . S
Co579 O582 1.966 . S
Co579 N588 2.022 . S
Co579 N596 1.993 . S
Co579 O604 1.941 . S
C580 O581 1.258 . S
C580 O582 1.263 . S
O581 Co578 1.970 . S
O581 C580 1.258 . S
O582 Co579 1.966 . S
O582 C580 1.263 . S
C583 O584 1.235 . S
C583 O610 1.289 . S
O584 C583 1.235 . S
C585 C587 1.400 . S
C585 N588 1.351 . S
C585 C590 1.501 . S
C586 C587 1.387 . S
C586 N589 1.341 . S
C587 C585 1.400 . S
C587 C586 1.387 . S
N588 Co579 2.022 . S
N588 C585 1.351 . S
N588 N589 1.365 . S
N589 C586 1.341 . S
N589 N588 1.365 . S
N589 H609 0.862 . S
C590 C585 1.501 . S
C590 H591 0.961 . S
C590 H592 0.961 . S
C590 H593 0.960 . S
H591 C590 0.961 . S
H592 C590 0.961 . S
H593 C590 0.960 . S
C594 N595 1.342 . S
C594 C598 1.401 . S
C594 C599 1.499 . S
N595 Co578 1.989 . S
N595 C594 1.342 . S
N595 N596 1.388 . S
N596 Co579 1.993 . S
N596 N595 1.388 . S
N596 C597 1.346 . S
C597 N596 1.346 . S
C597 C598 1.396 . S
C597 C607 1.510 . S
C598 C594 1.401 . S
C598 C597 1.396 . S
C599 C594 1.499 . S
C599 H600 0.959 . S
C599 H601 0.960 . S
C599 H602 0.961 . S
H600 C599 0.959 . S
H601 C599 0.960 . S
H602 C599 0.961 . S
O603 Co578 1.967 . S
O603 C611 1.258 . S
O604 Co579 1.941 . S
O604 C611 1.266 . S
H605 C607 0.959 . S
H606 C607 0.961 . S
C607 C597 1.510 . S
C607 H605 0.959 . S
C607 H606 0.961 . S
C607 H608 0.960 . S
H608 C607 0.960 . S
H609 N589 0.862 . S
O610 Co578 1.920 . S
O610 C583 1.289 . S
C611 O603 1.258 . S
C611 O604 1.266 . S
C612 C613 1.363 . S
C612 C618 1.379 . S
C612 N620 1.356 . S
C613 C612 1.363 . S
C613 C619 1.363 . S
C614 C615 1.363 . S
C614 C619 1.379 . S
C614 N621 1.356 . S
C615 C614 1.363 . S
C615 C618 1.363 . S
N616 C618 1.356 . S
N616 H628 0.984 . S
N616 H629 0.985 . S
N617 C619 1.356 . S
N617 H622 0.984 . S
N617 H623 0.985 . S
C618 C612 1.379 . S
C618 C615 1.363 . S
C618 N616 1.356 . S
C619 C613 1.363 . S
C619 C614 1.379 . S
C619 N617 1.356 . S
N620 C612 1.356 . S
N620 H626 0.984 . S
N620 H627 0.984 . S
N621 C614 1.356 . S
N621 H624 0.984 . S
N621 H625 0.985 . S
H622 N617 0.984 . S
H623 N617 0.985 . S
H624 N621 0.984 . S
H625 N621 0.985 . S
H626 N620 0.984 . S
H627 N620 0.984 . S
H628 N616 0.984 . S
H629 N616 0.985 . S
C630 C631 1.363 . S
C630 C636 1.379 . S
C630 N638 1.356 . S
C631 C630 1.363 . S
C631 C637 1.363 . S
C632 C633 1.363 . S
C632 C637 1.379 . S
C632 N639 1.356 . S
C633 C632 1.363 . S
C633 C636 1.363 . S
N634 C636 1.356 . S
N634 H646 0.984 . S
N634 H647 0.985 . S
N635 C637 1.356 . S
N635 H640 0.984 . S
N635 H641 0.985 . S
C636 C630 1.379 . S
C636 C633 1.363 . S
C636 N634 1.356 . S
C637 C631 1.363 . S
C637 C632 1.379 . S
C637 N635 1.356 . S
N638 C630 1.356 . S
N638 H644 0.984 . S
N638 H645 0.984 . S
N639 C632 1.356 . S
N639 H642 0.984 . S
N639 H643 0.985 . S
H640 N635 0.984 . S
H641 N635 0.985 . S
H642 N639 0.984 . S
H643 N639 0.985 . S
H644 N638 0.984 . S
H645 N638 0.984 . S
H646 N634 0.984 . S
H647 N634 0.985 . S
C648 C649 1.363 . S
C648 C654 1.379 . S
C648 N656 1.356 . S
C649 C648 1.363 . S
C649 C655 1.363 . S
C650 C651 1.363 . S
C650 C655 1.379 . S
C650 N657 1.356 . S
C651 C650 1.363 . S
C651 C654 1.363 . S
N652 C654 1.356 . S
N652 H664 0.984 . S
N652 H665 0.985 . S
N653 C655 1.356 . S
N653 H658 0.984 . S
N653 H659 0.985 . S
C654 C648 1.379 . S
C654 C651 1.363 . S
C654 N652 1.356 . S
C655 C649 1.363 . S
C655 C650 1.379 . S
C655 N653 1.356 . S
N656 C648 1.356 . S
N656 H662 0.984 . S
N656 H663 0.984 . S
N657 C650 1.356 . S
N657 H660 0.984 . S
N657 H661 0.985 . S
H658 N653 0.984 . S
H659 N653 0.985 . S
H660 N657 0.984 . S
H661 N657 0.985 . S
H662 N656 0.984 . S
H663 N656 0.984 . S
H664 N652 0.984 . S
H665 N652 0.985 . S
C666 C667 1.363 . S
C666 C672 1.379 . S
C666 N674 1.356 . S
C667 C666 1.363 . S
C667 C673 1.363 . S
C668 C669 1.363 . S
C668 C673 1.379 . S
C668 N675 1.356 . S
C669 C668 1.363 . S
C669 C672 1.363 . S
N670 C672 1.356 . S
N670 H682 0.984 . S
N670 H683 0.985 . S
N671 C673 1.356 . S
N671 H676 0.984 . S
N671 H677 0.985 . S
C672 C666 1.379 . S
C672 C669 1.363 . S
C672 N670 1.356 . S
C673 C667 1.363 . S
C673 C668 1.379 . S
C673 N671 1.356 . S
N674 C666 1.356 . S
N674 H680 0.984 . S
N674 H681 0.984 . S
N675 C668 1.356 . S
N675 H678 0.984 . S
N675 H679 0.985 . S
H676 N671 0.984 . S
H677 N671 0.985 . S
H678 N675 0.984 . S
H679 N675 0.985 . S
H680 N674 0.984 . S
H681 N674 0.984 . S
H682 N670 0.984 . S
H683 N670 0.985 . S
C684 C685 1.363 . S
C684 C690 1.379 . S
C684 N692 1.356 . S
C685 C684 1.363 . S
C685 C691 1.363 . S
C686 C687 1.363 . S
C686 C691 1.379 . S
C686 N693 1.356 . S
C687 C686 1.363 . S
C687 C690 1.363 . S
N688 C690 1.356 . S
N688 H700 0.984 . S
N688 H701 0.985 . S
N689 C691 1.356 . S
N689 H694 0.984 . S
N689 H695 0.985 . S
C690 C684 1.379 . S
C690 C687 1.363 . S
C690 N688 1.356 . S
C691 C685 1.363 . S
C691 C686 1.379 . S
C691 N689 1.356 . S
N692 C684 1.356 . S
N692 H698 0.984 . S
N692 H699 0.984 . S
N693 C686 1.356 . S
N693 H696 0.984 . S
N693 H697 0.985 . S
H694 N689 0.984 . S
H695 N689 0.985 . S
H696 N693 0.984 . S
H697 N693 0.985 . S
H698 N692 0.984 . S
H699 N692 0.984 . S
H700 N688 0.984 . S
H701 N688 0.985 . S
C702 C703 1.363 . S
C702 C708 1.379 . S
C702 N710 1.356 . S
C703 C702 1.363 . S
C703 C709 1.363 . S
C704 C705 1.363 . S
C704 C709 1.379 . S
C704 N711 1.356 . S
C705 C704 1.363 . S
C705 C708 1.363 . S
N706 C708 1.356 . S
N706 H718 0.984 . S
N706 H719 0.985 . S
N707 C709 1.356 . S
N707 H712 0.984 . S
N707 H713 0.985 . S
C708 C702 1.379 . S
C708 C705 1.363 . S
C708 N706 1.356 . S
C709 C703 1.363 . S
C709 C704 1.379 . S
C709 N707 1.356 . S
N710 C702 1.356 . S
N710 H716 0.984 . S
N710 H717 0.984 . S
N711 C704 1.356 . S
N711 H714 0.984 . S
N711 H715 0.985 . S
H712 N707 0.984 . S
H713 N707 0.985 . S
H714 N711 0.984 . S
H715 N711 0.985 . S
H716 N710 0.984 . S
H717 N710 0.984 . S
H718 N706 0.984 . S
H719 N706 0.985 . S
C720 C721 1.363 . S
C720 C726 1.379 . S
C720 N728 1.356 . S
C721 C720 1.363 . S
C721 C727 1.363 . S
C722 C723 1.363 . S
C722 C727 1.379 1_556 S
C722 N729 1.356 . S
C723 C722 1.363 . S
C723 C726 1.363 1_556 S
N724 C726 1.356 1_556 S
N724 H736 0.984 1_556 S
N724 H737 0.985 . S
N725 C727 1.356 . S
N725 H730 0.984 . S
N725 H731 0.985 . S
C726 C720 1.379 . S
C726 C723 1.363 1_554 S
C726 N724 1.356 1_554 S
C727 C721 1.363 . S
C727 C722 1.379 1_554 S
C727 N725 1.356 . S
N728 C720 1.356 . S
N728 H734 0.984 . S
N728 H735 0.984 . S
N729 C722 1.356 . S
N729 H732 0.984 . S
N729 H733 0.985 . S
H730 N725 0.984 . S
H731 N725 0.985 . S
H732 N729 0.984 . S
H733 N729 0.985 . S
H734 N728 0.984 . S
H735 N728 0.984 . S
H736 N724 0.984 1_554 S
H737 N724 0.985 . S
C738 C739 1.363 . S
C738 C744 1.379 1_554 S
C738 N746 1.356 . S
C739 C738 1.363 . S
C739 C745 1.363 . S
C740 C741 1.363 . S
C740 C745 1.379 1_556 S
C740 N747 1.356 . S
C741 C740 1.363 . S
C741 C744 1.363 . S
N742 C744 1.356 . S
N742 H754 0.984 . S
N742 H755 0.985 . S
N743 C745 1.356 . S
N743 H748 0.984 . S
N743 H749 0.985 . S
C744 C738 1.379 1_556 S
C744 C741 1.363 . S
C744 N742 1.356 . S
C745 C739 1.363 . S
C745 C740 1.379 1_554 S
C745 N743 1.356 . S
N746 C738 1.356 . S
N746 H752 0.984 . S
N746 H753 0.984 . S
N747 C740 1.356 . S
N747 H750 0.984 . S
N747 H751 0.985 . S
H748 N743 0.984 . S
H749 N743 0.985 . S
H750 N747 0.984 . S
H751 N747 0.985 . S
H752 N746 0.984 . S
H753 N746 0.984 . S
H754 N742 0.984 . S
H755 N742 0.985 . S
C756 C757 1.363 1_554 S
C756 C762 1.379 . S
C756 N764 1.356 1_554 S
C757 C756 1.363 1_556 S
C757 C763 1.363 . S
C758 C759 1.363 . S
C758 C763 1.379 1_554 S
C758 N765 1.356 . S
C759 C758 1.363 . S
C759 C762 1.363 . S
N760 C762 1.356 . S
N760 H772 0.984 . S
N760 H773 0.985 . S
N761 C763 1.356 . S
N761 H766 0.984 . S
N761 H767 0.985 . S
C762 C756 1.379 . S
C762 C759 1.363 . S
C762 N760 1.356 . S
C763 C757 1.363 . S
C763 C758 1.379 1_556 S
C763 N761 1.356 . S
N764 C756 1.356 1_556 S
N764 H770 0.984 1_556 S
N764 H771 0.984 . S
N765 C758 1.356 . S
N765 H768 0.984 . S
N765 H769 0.985 1_554 S
H766 N761 0.984 . S
H767 N761 0.985 . S
H768 N765 0.984 . S
H769 N765 0.985 1_556 S
H770 N764 0.984 1_554 S
H771 N764 0.984 . S
H772 N760 0.984 . S
H773 N760 0.985 . S
C774 C775 1.363 . S
C774 C780 1.379 . S
C774 N782 1.356 . S
C775 C774 1.363 . S
C775 C781 1.363 . S
C776 C777 1.363 . S
C776 C781 1.379 . S
C776 N783 1.356 . S
C777 C776 1.363 . S
C777 C780 1.363 . S
N778 C780 1.356 . S
N778 H790 0.984 . S
N778 H791 0.985 . S
N779 C781 1.356 . S
N779 H784 0.984 . S
N779 H785 0.985 . S
C780 C774 1.379 . S
C780 C777 1.363 . S
C780 N778 1.356 . S
C781 C775 1.363 . S
C781 C776 1.379 . S
C781 N779 1.356 . S
N782 C774 1.356 . S
N782 H788 0.984 . S
N782 H789 0.984 . S
N783 C776 1.356 . S
N783 H786 0.984 . S
N783 H787 0.985 . S
H784 N779 0.984 . S
H785 N779 0.985 . S
H786 N783 0.984 . S
H787 N783 0.985 . S
H788 N782 0.984 . S
H789 N782 0.984 . S
H790 N778 0.984 . S
H791 N778 0.985 . S
C792 C793 1.363 . S
C792 C798 1.379 . S
C792 N800 1.356 . S
C793 C792 1.363 . S
C793 C799 1.363 . S
C794 C795 1.363 . S
C794 C799 1.379 . S
C794 N801 1.356 . S
C795 C794 1.363 . S
C795 C798 1.363 . S
N796 C798 1.356 . S
N796 H808 0.984 . S
N796 H809 0.985 . S
N797 C799 1.356 . S
N797 H802 0.984 . S
N797 H803 0.985 . S
C798 C792 1.379 . S
C798 C795 1.363 . S
C798 N796 1.356 . S
C799 C793 1.363 . S
C799 C794 1.379 . S
C799 N797 1.356 . S
N800 C792 1.356 . S
N800 H806 0.984 . S
N800 H807 0.984 . S
N801 C794 1.356 . S
N801 H804 0.984 . S
N801 H805 0.985 . S
H802 N797 0.984 . S
H803 N797 0.985 . S
H804 N801 0.984 . S
H805 N801 0.985 . S
H806 N800 0.984 . S
H807 N800 0.984 . S
H808 N796 0.984 . S
H809 N796 0.985 . S
C810 C811 1.363 . S
C810 C816 1.379 . S
C810 N818 1.356 . S
C811 C810 1.363 . S
C811 C817 1.363 . S
C812 C813 1.363 . S
C812 C817 1.379 . S
C812 N819 1.356 . S
C813 C812 1.363 . S
C813 C816 1.363 . S
N814 C816 1.356 . S
N814 H826 0.984 . S
N814 H827 0.985 . S
N815 C817 1.356 . S
N815 H820 0.984 . S
N815 H821 0.985 . S
C816 C810 1.379 . S
C816 C813 1.363 . S
C816 N814 1.356 . S
C817 C811 1.363 . S
C817 C812 1.379 . S
C817 N815 1.356 . S
N818 C810 1.356 . S
N818 H824 0.984 . S
N818 H825 0.984 . S
N819 C812 1.356 . S
N819 H822 0.984 . S
N819 H823 0.985 . S
H820 N815 0.984 . S
H821 N815 0.985 . S
H822 N819 0.984 . S
H823 N819 0.985 . S
H824 N818 0.984 . S
H825 N818 0.984 . S
H826 N814 0.984 . S
H827 N814 0.985 . S
C828 C829 1.363 . S
C828 C834 1.379 . S
C828 N836 1.356 . S
C829 C828 1.363 . S
C829 C835 1.363 . S
C830 C831 1.363 . S
C830 C835 1.379 . S
C830 N837 1.356 . S
C831 C830 1.363 . S
C831 C834 1.363 . S
N832 C834 1.356 . S
N832 H844 0.984 . S
N832 H845 0.985 . S
N833 C835 1.356 . S
N833 H838 0.984 . S
N833 H839 0.985 . S
C834 C828 1.379 . S
C834 C831 1.363 . S
C834 N832 1.356 . S
C835 C829 1.363 . S
C835 C830 1.379 . S
C835 N833 1.356 . S
N836 C828 1.356 . S
N836 H842 0.984 . S
N836 H843 0.984 . S
N837 C830 1.356 . S
N837 H840 0.984 . S
N837 H841 0.985 . S
H838 N833 0.984 . S
H839 N833 0.985 . S
H840 N837 0.984 . S
H841 N837 0.985 . S
H842 N836 0.984 . S
H843 N836 0.984 . S
H844 N832 0.984 . S
H845 N832 0.985 . S
C846 C847 1.363 . S
C846 C852 1.379 . S
C846 N854 1.356 . S
C847 C846 1.363 . S
C847 C853 1.363 . S
C848 C849 1.363 . S
C848 C853 1.379 . S
C848 N855 1.356 . S
C849 C848 1.363 . S
C849 C852 1.363 . S
N850 C852 1.356 . S
N850 H862 0.984 . S
N850 H863 0.985 . S
N851 C853 1.356 . S
N851 H856 0.984 . S
N851 H857 0.985 . S
C852 C846 1.379 . S
C852 C849 1.363 . S
C852 N850 1.356 . S
C853 C847 1.363 . S
C853 C848 1.379 . S
C853 N851 1.356 . S
N854 C846 1.356 . S
N854 H860 0.984 . S
N854 H861 0.984 . S
N855 C848 1.356 . S
N855 H858 0.984 . S
N855 H859 0.985 . S
H856 N851 0.984 . S
H857 N851 0.985 . S
H858 N855 0.984 . S
H859 N855 0.985 . S
H860 N854 0.984 . S
H861 N854 0.984 . S
H862 N850 0.984 . S
H863 N850 0.985 . S
C864 C865 1.363 . S
C864 C870 1.379 . S
C864 N872 1.356 . S
C865 C864 1.363 . S
C865 C871 1.363 . S
C866 C867 1.363 . S
C866 C871 1.379 . S
C866 N873 1.356 . S
C867 C866 1.363 . S
C867 C870 1.363 . S
N868 C870 1.356 . S
N868 H880 0.984 . S
N868 H881 0.985 . S
N869 C871 1.356 . S
N869 H874 0.984 . S
N869 H875 0.985 . S
C870 C864 1.379 . S
C870 C867 1.363 . S
C870 N868 1.356 . S
C871 C865 1.363 . S
C871 C866 1.379 . S
C871 N869 1.356 . S
N872 C864 1.356 . S
N872 H878 0.984 . S
N872 H879 0.984 . S
N873 C866 1.356 . S
N873 H876 0.984 . S
N873 H877 0.985 . S
H874 N869 0.984 . S
H875 N869 0.985 . S
H876 N873 0.984 . S
H877 N873 0.985 . S
H878 N872 0.984 . S
H879 N872 0.984 . S
H880 N868 0.984 . S
H881 N868 0.985 . S
C882 C883 1.363 . S
C882 C888 1.379 1_554 S
C882 N890 1.356 . S
C883 C882 1.363 . S
C883 C889 1.363 . S
C884 C885 1.363 . S
C884 C889 1.379 1_556 S
C884 N891 1.356 . S
C885 C884 1.363 . S
C885 C888 1.363 . S
N886 C888 1.356 . S
N886 H898 0.984 . S
N886 H899 0.985 . S
N887 C889 1.356 . S
N887 H892 0.984 . S
N887 H893 0.985 . S
C888 C882 1.379 1_556 S
C888 C885 1.363 . S
C888 N886 1.356 . S
C889 C883 1.363 . S
C889 C884 1.379 1_554 S
C889 N887 1.356 . S
N890 C882 1.356 . S
N890 H896 0.984 . S
N890 H897 0.984 . S
N891 C884 1.356 . S
N891 H894 0.984 . S
N891 H895 0.985 . S
H892 N887 0.984 . S
H893 N887 0.985 . S
H894 N891 0.984 . S
H895 N891 0.985 . S
H896 N890 0.984 . S
H897 N890 0.984 . S
H898 N886 0.984 . S
H899 N886 0.985 . S
C900 C901 1.363 1_556 S
C900 C906 1.379 . S
C900 N908 1.356 1_556 S
C901 C900 1.363 1_554 S
C901 C907 1.363 . S
C902 C903 1.363 . S
C902 C907 1.379 1_556 S
C902 N909 1.356 . S
C903 C902 1.363 . S
C903 C906 1.363 . S
N904 C906 1.356 . S
N904 H916 0.984 . S
N904 H917 0.985 . S
N905 C907 1.356 . S
N905 H910 0.984 . S
N905 H911 0.985 . S
C906 C900 1.379 . S
C906 C903 1.363 . S
C906 N904 1.356 . S
C907 C901 1.363 . S
C907 C902 1.379 1_554 S
C907 N905 1.356 . S
N908 C900 1.356 1_554 S
N908 H914 0.984 1_554 S
N908 H915 0.984 . S
N909 C902 1.356 . S
N909 H912 0.984 . S
N909 H913 0.985 1_556 S
H910 N905 0.984 . S
H911 N905 0.985 . S
H912 N909 0.984 . S
H913 N909 0.985 1_554 S
H914 N908 0.984 1_556 S
H915 N908 0.984 . S
H916 N904 0.984 . S
H917 N904 0.985 . S
C918 C919 1.363 . S
C918 C924 1.379 1_556 S
C918 N926 1.356 . S
C919 C918 1.363 . S
C919 C925 1.363 . S
C920 C921 1.363 . S
C920 C925 1.379 1_554 S
C920 N927 1.356 . S
C921 C920 1.363 . S
C921 C924 1.363 . S
N922 C924 1.356 . S
N922 H934 0.984 . S
N922 H935 0.985 . S
N923 C925 1.356 . S
N923 H928 0.984 . S
N923 H929 0.985 . S
C924 C918 1.379 1_554 S
C924 C921 1.363 . S
C924 N922 1.356 . S
C925 C919 1.363 . S
C925 C920 1.379 1_556 S
C925 N923 1.356 . S
N926 C918 1.356 . S
N926 H932 0.984 . S
N926 H933 0.984 . S
N927 C920 1.356 . S
N927 H930 0.984 . S
N927 H931 0.985 . S
H928 N923 0.984 . S
H929 N923 0.985 . S
H930 N927 0.984 . S
H931 N927 0.985 . S
H932 N926 0.984 . S
H933 N926 0.984 . S
H934 N922 0.984 . S
H935 N922 0.985 . S
C936 C937 1.363 . S
C936 C942 1.379 . S
C936 N944 1.356 . S
C937 C936 1.363 . S
C937 C943 1.363 . S
C938 C939 1.363 . S
C938 C943 1.379 . S
C938 N945 1.356 . S
C939 C938 1.363 . S
C939 C942 1.363 . S
N940 C942 1.356 . S
N940 H952 0.984 . S
N940 H953 0.985 . S
N941 C943 1.356 . S
N941 H946 0.984 . S
N941 H947 0.985 . S
C942 C936 1.379 . S
C942 C939 1.363 . S
C942 N940 1.356 . S
C943 C937 1.363 . S
C943 C938 1.379 . S
C943 N941 1.356 . S
N944 C936 1.356 . S
N944 H950 0.984 . S
N944 H951 0.984 . S
N945 C938 1.356 . S
N945 H948 0.984 . S
N945 H949 0.985 . S
H946 N941 0.984 . S
H947 N941 0.985 . S
H948 N945 0.984 . S
H949 N945 0.985 . S
H950 N944 0.984 . S
H951 N944 0.984 . S
H952 N940 0.984 . S
H953 N940 0.985 . S
C954 C955 1.363 . S
C954 C960 1.379 . S
C954 N962 1.356 . S
C955 C954 1.363 . S
C955 C961 1.363 . S
C956 C957 1.363 . S
C956 C961 1.379 . S
C956 N963 1.356 . S
C957 C956 1.363 . S
C957 C960 1.363 . S
N958 C960 1.356 . S
N958 H970 0.984 . S
N958 H971 0.985 . S
N959 C961 1.356 . S
N959 H964 0.984 . S
N959 H965 0.985 . S
C960 C954 1.379 . S
C960 C957 1.363 . S
C960 N958 1.356 . S
C961 C955 1.363 . S
C961 C956 1.379 . S
C961 N959 1.356 . S
N962 C954 1.356 . S
N962 H968 0.984 . S
N962 H969 0.984 . S
N963 C956 1.356 . S
N963 H966 0.984 . S
N963 H967 0.985 . S
H964 N959 0.984 . S
H965 N959 0.985 . S
H966 N963 0.984 . S
H967 N963 0.985 . S
H968 N962 0.984 . S
H969 N962 0.984 . S
H970 N958 0.984 . S
H971 N958 0.985 . S
C972 C973 1.363 . S
C972 C978 1.379 . S
C972 N980 1.356 . S
C973 C972 1.363 . S
C973 C979 1.363 . S
C974 C975 1.363 . S
C974 C979 1.379 . S
C974 N981 1.356 . S
C975 C974 1.363 . S
C975 C978 1.363 . S
N976 C978 1.356 . S
N976 H988 0.984 . S
N976 H989 0.985 . S
N977 C979 1.356 . S
N977 H982 0.984 . S
N977 H983 0.985 . S
C978 C972 1.379 . S
C978 C975 1.363 . S
C978 N976 1.356 . S
C979 C973 1.363 . S
C979 C974 1.379 . S
C979 N977 1.356 . S
N980 C972 1.356 . S
N980 H986 0.984 . S
N980 H987 0.984 . S
N981 C974 1.356 . S
N981 H984 0.984 . S
N981 H985 0.985 . S
H982 N977 0.984 . S
H983 N977 0.985 . S
H984 N981 0.984 . S
H985 N981 0.985 . S
H986 N980 0.984 . S
H987 N980 0.984 . S
H988 N976 0.984 . S
H989 N976 0.985 . S
C990 C991 1.363 . S
C990 C996 1.379 . S
C990 N998 1.356 . S
C991 C990 1.363 . S
C991 C997 1.363 . S
C992 C993 1.363 . S
C992 C997 1.379 . S
C992 N999 1.356 . S
C993 C992 1.363 . S
C993 C996 1.363 . S
N994 C996 1.356 . S
N994 H1006 0.984 . S
N994 H1007 0.985 . S
N995 C997 1.356 . S
N995 H1000 0.984 . S
N995 H1001 0.985 . S
C996 C990 1.379 . S
C996 C993 1.363 . S
C996 N994 1.356 . S
C997 C991 1.363 . S
C997 C992 1.379 . S
C997 N995 1.356 . S
N998 C990 1.356 . S
N998 H1004 0.984 . S
N998 H1005 0.984 . S
N999 C992 1.356 . S
N999 H1002 0.984 . S
N999 H1003 0.985 . S
H1000 N995 0.984 . S
H1001 N995 0.985 . S
H1002 N999 0.984 . S
H1003 N999 0.985 . S
H1004 N998 0.984 . S
H1005 N998 0.984 . S
H1006 N994 0.984 . S
H1007 N994 0.985 . S
C1008 C1009 1.363 . S
C1008 C1014 1.379 . S
C1008 N1016 1.356 . S
C1009 C1008 1.363 . S
C1009 C1015 1.363 . S
C1010 C1011 1.363 . S
C1010 C1015 1.379 . S
C1010 N1017 1.356 . S
C1011 C1010 1.363 . S
C1011 C1014 1.363 . S
N1012 C1014 1.356 . S
N1012 H1024 0.984 . S
N1012 H1025 0.985 . S
N1013 C1015 1.356 . S
N1013 H1018 0.984 . S
N1013 H1019 0.985 . S
C1014 C1008 1.379 . S
C1014 C1011 1.363 . S
C1014 N1012 1.356 . S
C1015 C1009 1.363 . S
C1015 C1010 1.379 . S
C1015 N1013 1.356 . S
N1016 C1008 1.356 . S
N1016 H1022 0.984 . S
N1016 H1023 0.984 . S
N1017 C1010 1.356 . S
N1017 H1020 0.984 . S
N1017 H1021 0.985 . S
H1018 N1013 0.984 . S
H1019 N1013 0.985 . S
H1020 N1017 0.984 . S
H1021 N1017 0.985 . S
H1022 N1016 0.984 . S
H1023 N1016 0.984 . S
H1024 N1012 0.984 . S
H1025 N1012 0.985 . S
C1026 C1027 1.363 . S
C1026 C1032 1.379 . S
C1026 N1034 1.356 . S
C1027 C1026 1.363 . S
C1027 C1033 1.363 . S
C1028 C1029 1.363 . S
C1028 C1033 1.379 . S
C1028 N1035 1.356 . S
C1029 C1028 1.363 . S
C1029 C1032 1.363 . S
N1030 C1032 1.356 . S
N1030 H1042 0.984 . S
N1030 H1043 0.985 . S
N1031 C1033 1.356 . S
N1031 H1036 0.984 . S
N1031 H1037 0.985 . S
C1032 C1026 1.379 . S
C1032 C1029 1.363 . S
C1032 N1030 1.356 . S
C1033 C1027 1.363 . S
C1033 C1028 1.379 . S
C1033 N1031 1.356 . S
N1034 C1026 1.356 . S
N1034 H1040 0.984 . S
N1034 H1041 0.984 . S
N1035 C1028 1.356 . S
N1035 H1038 0.984 . S
N1035 H1039 0.985 . S
H1036 N1031 0.984 . S
H1037 N1031 0.985 . S
H1038 N1035 0.984 . S
H1039 N1035 0.985 . S
H1040 N1034 0.984 . S
H1041 N1034 0.984 . S
H1042 N1030 0.984 . S
H1043 N1030 0.985 . S
C1044 C1045 1.363 . S
C1044 C1050 1.379 1_654 S
C1044 N1052 1.356 . S
C1045 C1044 1.363 . S
C1045 C1051 1.363 . S
C1046 C1047 1.363 . S
C1046 C1051 1.379 1_456 S
C1046 N1053 1.356 . S
C1047 C1046 1.363 . S
C1047 C1050 1.363 . S
N1048 C1050 1.356 . S
N1048 H1060 0.984 . S
N1048 H1061 0.985 . S
N1049 C1051 1.356 . S
N1049 H1054 0.984 . S
N1049 H1055 0.985 . S
C1050 C1044 1.379 1_456 S
C1050 C1047 1.363 . S
C1050 N1048 1.356 . S
C1051 C1045 1.363 . S
C1051 C1046 1.379 1_654 S
C1051 N1049 1.356 . S
N1052 C1044 1.356 . S
N1052 H1058 0.984 . S
N1052 H1059 0.984 . S
N1053 C1046 1.356 . S
N1053 H1056 0.984 . S
N1053 H1057 0.985 . S
H1054 N1049 0.984 . S
H1055 N1049 0.985 . S
H1056 N1053 0.984 . S
H1057 N1053 0.985 . S
H1058 N1052 0.984 . S
H1059 N1052 0.984 . S
H1060 N1048 0.984 . S
H1061 N1048 0.985 . S
C1062 C1063 1.363 . S
C1062 C1068 1.379 1_556 S
C1062 N1070 1.356 . S
C1063 C1062 1.363 . S
C1063 C1069 1.363 . S
C1064 C1065 1.363 . S
C1064 C1069 1.379 1_554 S
C1064 N1071 1.356 . S
C1065 C1064 1.363 . S
C1065 C1068 1.363 . S
N1066 C1068 1.356 . S
N1066 H1078 0.984 . S
N1066 H1079 0.985 . S
N1067 C1069 1.356 . S
N1067 H1072 0.984 . S
N1067 H1073 0.985 . S
C1068 C1062 1.379 1_554 S
C1068 C1065 1.363 . S
C1068 N1066 1.356 . S
C1069 C1063 1.363 . S
C1069 C1064 1.379 1_556 S
C1069 N1067 1.356 . S
N1070 C1062 1.356 . S
N1070 H1076 0.984 . S
N1070 H1077 0.984 . S
N1071 C1064 1.356 . S
N1071 H1074 0.984 . S
N1071 H1075 0.985 . S
H1072 N1067 0.984 . S
H1073 N1067 0.985 . S
H1074 N1071 0.984 . S
H1075 N1071 0.985 . S
H1076 N1070 0.984 . S
H1077 N1070 0.984 . S
H1078 N1066 0.984 . S
H1079 N1066 0.985 . S
C1080 C1081 1.363 1_556 S
C1080 C1086 1.372 1_545 S
C1080 N1088 1.356 1_556 S
C1081 C1080 1.363 1_554 S
C1081 C1087 1.373 . S
C1082 C1083 1.363 1_554 S
C1082 C1087 1.372 1_565 S
C1082 N1089 1.356 1_554 S
C1083 C1082 1.363 1_556 S
C1083 C1086 1.373 . S
N1084 C1086 1.356 . S
N1084 H1096 0.984 1_565 S
N1084 H1097 0.985 . S
N1085 C1087 1.356 . S
N1085 H1090 0.984 . S
N1085 H1091 0.985 1_545 S
C1086 C1080 1.372 1_565 S
C1086 C1083 1.373 . S
C1086 N1084 1.356 . S
C1087 C1081 1.373 . S
C1087 C1082 1.372 1_545 S
C1087 N1085 1.356 . S
N1088 C1080 1.356 1_554 S
N1088 H1094 0.984 1_554 S
N1088 H1095 0.984 . S
N1089 C1082 1.356 1_556 S
N1089 H1092 0.984 . S
N1089 H1093 0.985 1_556 S
H1090 N1085 0.984 . S
H1091 N1085 0.985 1_565 S
H1092 N1089 0.984 . S
H1093 N1089 0.985 1_554 S
H1094 N1088 0.984 1_556 S
H1095 N1088 0.984 . S
H1096 N1084 0.984 1_545 S
H1097 N1084 0.985 . S
C1098 C1099 1.363 . S
C1098 C1104 1.379 . S
C1098 N1106 1.356 . S
C1099 C1098 1.363 . S
C1099 C1105 1.363 1_554 S
C1100 C1101 1.363 . S
C1100 C1105 1.379 . S
C1100 N1107 1.356 . S
C1101 C1100 1.363 . S
C1101 C1104 1.363 1_556 S
N1102 C1104 1.356 . S
N1102 H1114 0.984 . S
N1102 H1115 0.985 1_554 S
N1103 C1105 1.356 . S
N1103 H1108 0.984 1_556 S
N1103 H1109 0.985 . S
C1104 C1098 1.379 . S
C1104 C1101 1.363 1_554 S
C1104 N1102 1.356 . S
C1105 C1099 1.363 1_556 S
C1105 C1100 1.379 . S
C1105 N1103 1.356 . S
N1106 C1098 1.356 . S
N1106 H1112 0.984 . S
N1106 H1113 0.984 . S
N1107 C1100 1.356 . S
N1107 H1110 0.984 . S
N1107 H1111 0.985 . S
H1108 N1103 0.984 1_554 S
H1109 N1103 0.985 . S
H1110 N1107 0.984 . S
H1111 N1107 0.985 . S
H1112 N1106 0.984 . S
H1113 N1106 0.984 . S
H1114 N1102 0.984 . S
H1115 N1102 0.985 1_556 S
C1116 C1117 1.363 1_545 S
C1116 C1122 1.379 . S
C1116 N1124 1.356 1_545 S
C1117 C1116 1.363 1_565 S
C1117 C1123 1.363 1_554 S
C1118 C1119 1.363 1_565 S
C1118 C1123 1.379 . S
C1118 N1125 1.356 1_565 S
C1119 C1118 1.363 1_545 S
C1119 C1122 1.363 1_556 S
N1120 C1122 1.356 . S
N1120 H1132 0.984 . S
N1120 H1133 0.985 1_554 S
N1121 C1123 1.356 . S
N1121 H1126 0.984 1_556 S
N1121 H1127 0.985 . S
C1122 C1116 1.379 . S
C1122 C1119 1.363 1_554 S
C1122 N1120 1.356 . S
C1123 C1117 1.363 1_556 S
C1123 C1118 1.379 . S
C1123 N1121 1.356 . S
N1124 C1116 1.356 1_565 S
N1124 H1130 0.984 1_565 S
N1124 H1131 0.984 . S
N1125 C1118 1.356 1_545 S
N1125 H1128 0.984 . S
N1125 H1129 0.985 1_545 S
H1126 N1121 0.984 1_554 S
H1127 N1121 0.985 . S
H1128 N1125 0.984 . S
H1129 N1125 0.985 1_565 S
H1130 N1124 0.984 1_545 S
H1131 N1124 0.984 . S
H1132 N1120 0.984 . S
H1133 N1120 0.985 1_556 S
C1134 C1135 1.363 1_455 S
C1134 C1140 1.379 . S
C1134 N1142 1.356 1_455 S
C1135 C1134 1.363 1_655 S
C1135 C1141 1.363 1_556 S
C1136 C1137 1.363 1_655 S
C1136 C1141 1.379 . S
C1136 N1143 1.356 1_655 S
C1137 C1136 1.363 1_455 S
C1137 C1140 1.363 1_554 S
N1138 C1140 1.356 . S
N1138 H1150 0.984 . S
N1138 H1151 0.985 1_556 S
N1139 C1141 1.356 . S
N1139 H1144 0.984 1_554 S
N1139 H1145 0.985 . S
C1140 C1134 1.379 . S
C1140 C1137 1.363 1_556 S
C1140 N1138 1.356 . S
C1141 C1135 1.363 1_554 S
C1141 C1136 1.379 . S
C1141 N1139 1.356 . S
N1142 C1134 1.356 1_655 S
N1142 H1148 0.984 1_655 S
N1142 H1149 0.984 . S
N1143 C1136 1.356 1_455 S
N1143 H1146 0.984 . S
N1143 H1147 0.985 1_455 S
H1144 N1139 0.984 1_556 S
H1145 N1139 0.985 . S
H1146 N1143 0.984 . S
H1147 N1143 0.985 1_655 S
H1148 N1142 0.984 1_455 S
H1149 N1142 0.984 . S
H1150 N1138 0.984 . S
H1151 N1138 0.985 1_554 S
C1152 C1153 1.363 1_554 S
C1152 C1158 1.379 . S
C1152 N1160 1.356 . S
C1153 C1152 1.363 1_556 S
C1153 C1159 1.363 . S
C1154 C1155 1.363 1_556 S
C1154 C1159 1.379 . S
C1154 N1161 1.356 . S
C1155 C1154 1.363 1_554 S
C1155 C1158 1.363 . S
N1156 C1158 1.356 . S
N1156 H1168 0.984 . S
N1156 H1169 0.985 . S
N1157 C1159 1.356 . S
N1157 H1162 0.984 . S
N1157 H1163 0.985 . S
C1158 C1152 1.379 . S
C1158 C1155 1.363 . S
C1158 N1156 1.356 . S
C1159 C1153 1.363 . S
C1159 C1154 1.379 . S
C1159 N1157 1.356 . S
N1160 C1152 1.356 . S
N1160 H1166 0.984 . S
N1160 H1167 0.984 1_554 S
N1161 C1154 1.356 . S
N1161 H1164 0.984 1_556 S
N1161 H1165 0.985 . S
H1162 N1157 0.984 . S
H1163 N1157 0.985 . S
H1164 N1161 0.984 1_554 S
H1165 N1161 0.985 . S
H1166 N1160 0.984 . S
H1167 N1160 0.984 1_556 S
H1168 N1156 0.984 . S
H1169 N1156 0.985 . S
C1170 C1171 1.363 1_554 S
C1170 C1176 1.379 . S
C1170 N1178 1.356 . S
C1171 C1170 1.363 1_556 S
C1171 C1177 1.363 1_545 S
C1172 C1173 1.363 1_556 S
C1172 C1177 1.379 . S
C1172 N1179 1.356 . S
C1173 C1172 1.363 1_554 S
C1173 C1176 1.363 1_565 S
N1174 C1176 1.356 1_565 S
N1174 H1186 0.984 1_565 S
N1174 H1187 0.985 . S
N1175 C1177 1.356 1_545 S
N1175 H1180 0.984 . S
N1175 H1181 0.985 1_545 S
C1176 C1170 1.379 . S
C1176 C1173 1.363 1_545 S
C1176 N1174 1.356 1_545 S
C1177 C1171 1.363 1_565 S
C1177 C1172 1.379 . S
C1177 N1175 1.356 1_565 S
N1178 C1170 1.356 . S
N1178 H1184 0.984 . S
N1178 H1185 0.984 1_554 S
N1179 C1172 1.356 . S
N1179 H1182 0.984 1_556 S
N1179 H1183 0.985 . S
H1180 N1175 0.984 . S
H1181 N1175 0.985 1_565 S
H1182 N1179 0.984 1_554 S
H1183 N1179 0.985 . S
H1184 N1178 0.984 . S
H1185 N1178 0.984 1_556 S
H1186 N1174 0.984 1_545 S
H1187 N1174 0.985 . S
C1188 C1189 1.363 1_455 S
C1188 C1194 1.379 . S
C1188 N1196 1.356 1_455 S
C1189 C1188 1.363 1_655 S
C1189 C1195 1.363 1_556 S
C1190 C1191 1.363 1_655 S
C1190 C1195 1.379 . S
C1190 N1197 1.356 1_655 S
C1191 C1190 1.363 1_455 S
C1191 C1194 1.363 1_554 S
N1192 C1194 1.356 . S
N1192 H1204 0.984 . S
N1192 H1205 0.985 1_556 S
N1193 C1195 1.356 . S
N1193 H1198 0.984 1_554 S
N1193 H1199 0.985 . S
C1194 C1188 1.379 . S
C1194 C1191 1.363 1_556 S
C1194 N1192 1.356 . S
C1195 C1189 1.363 1_554 S
C1195 C1190 1.379 . S
C1195 N1193 1.356 . S
N1196 C1188 1.356 1_655 S
N1196 H1202 0.984 1_655 S
N1196 H1203 0.984 . S
N1197 C1190 1.356 1_455 S
N1197 H1200 0.984 . S
N1197 H1201 0.985 1_455 S
H1198 N1193 0.984 1_556 S
H1199 N1193 0.985 . S
H1200 N1197 0.984 . S
H1201 N1197 0.985 1_655 S
H1202 N1196 0.984 1_455 S
H1203 N1196 0.984 . S
H1204 N1192 0.984 . S
H1205 N1192 0.985 1_554 S
C1206 C1207 1.363 . S
C1206 C1212 1.379 . S
C1206 N1214 1.356 . S
C1207 C1206 1.363 . S
C1207 C1213 1.363 . S
C1208 C1209 1.363 . S
C1208 C1213 1.379 . S
C1208 N1215 1.356 . S
C1209 C1208 1.363 . S
C1209 C1212 1.363 . S
N1210 C1212 1.356 . S
N1210 H1222 0.984 . S
N1210 H1223 0.985 . S
N1211 C1213 1.356 . S
N1211 H1216 0.984 . S
N1211 H1217 0.985 . S
C1212 C1206 1.379 . S
C1212 C1209 1.363 . S
C1212 N1210 1.356 . S
C1213 C1207 1.363 . S
C1213 C1208 1.379 . S
C1213 N1211 1.356 . S
N1214 C1206 1.356 . S
N1214 H1220 0.984 . S
N1214 H1221 0.984 . S
N1215 C1208 1.356 . S
N1215 H1218 0.984 . S
N1215 H1219 0.985 . S
H1216 N1211 0.984 . S
H1217 N1211 0.985 . S
H1218 N1215 0.984 . S
H1219 N1215 0.985 . S
H1220 N1214 0.984 . S
H1221 N1214 0.984 . S
H1222 N1210 0.984 . S
H1223 N1210 0.985 . S
C1224 C1225 1.363 . S
C1224 C1230 1.379 . S
C1224 N1232 1.356 . S
C1225 C1224 1.363 . S
C1225 C1231 1.363 . S
C1226 C1227 1.363 . S
C1226 C1231 1.379 . S
C1226 N1233 1.356 . S
C1227 C1226 1.363 . S
C1227 C1230 1.363 . S
N1228 C1230 1.356 . S
N1228 H1240 0.984 . S
N1228 H1241 0.985 . S
N1229 C1231 1.356 . S
N1229 H1234 0.984 . S
N1229 H1235 0.985 . S
C1230 C1224 1.379 . S
C1230 C1227 1.363 . S
C1230 N1228 1.356 . S
C1231 C1225 1.363 . S
C1231 C1226 1.379 . S
C1231 N1229 1.356 . S
N1232 C1224 1.356 . S
N1232 H1238 0.984 . S
N1232 H1239 0.984 . S
N1233 C1226 1.356 . S
N1233 H1236 0.984 . S
N1233 H1237 0.985 . S
H1234 N1229 0.984 . S
H1235 N1229 0.985 . S
H1236 N1233 0.984 . S
H1237 N1233 0.985 . S
H1238 N1232 0.984 . S
H1239 N1232 0.984 . S
H1240 N1228 0.984 . S
H1241 N1228 0.985 . S
C1242 C1243 1.363 . S
C1242 C1248 1.379 . S
C1242 N1250 1.356 . S
C1243 C1242 1.363 . S
C1243 C1249 1.363 . S
C1244 C1245 1.363 . S
C1244 C1249 1.379 . S
C1244 N1251 1.356 . S
C1245 C1244 1.363 . S
C1245 C1248 1.363 . S
N1246 C1248 1.356 . S
N1246 H1258 0.984 . S
N1246 H1259 0.985 . S
N1247 C1249 1.356 . S
N1247 H1252 0.984 . S
N1247 H1253 0.985 . S
C1248 C1242 1.379 . S
C1248 C1245 1.363 . S
C1248 N1246 1.356 . S
C1249 C1243 1.363 . S
C1249 C1244 1.379 . S
C1249 N1247 1.356 . S
N1250 C1242 1.356 . S
N1250 H1256 0.984 . S
N1250 H1257 0.984 . S
N1251 C1244 1.356 . S
N1251 H1254 0.984 . S
N1251 H1255 0.985 . S
H1252 N1247 0.984 . S
H1253 N1247 0.985 . S
H1254 N1251 0.984 . S
H1255 N1251 0.985 . S
H1256 N1250 0.984 . S
H1257 N1250 0.984 . S
H1258 N1246 0.984 . S
H1259 N1246 0.985 . S
C1260 C1261 1.363 . S
C1260 C1266 1.379 . S
C1260 N1268 1.356 . S
C1261 C1260 1.363 . S
C1261 C1267 1.363 . S
C1262 C1263 1.363 . S
C1262 C1267 1.379 . S
C1262 N1269 1.356 . S
C1263 C1262 1.363 . S
C1263 C1266 1.363 . S
N1264 C1266 1.356 . S
N1264 H1276 0.984 . S
N1264 H1277 0.985 . S
N1265 C1267 1.356 . S
N1265 H1270 0.984 . S
N1265 H1271 0.985 . S
C1266 C1260 1.379 . S
C1266 C1263 1.363 . S
C1266 N1264 1.356 . S
C1267 C1261 1.363 . S
C1267 C1262 1.379 . S
C1267 N1265 1.356 . S
N1268 C1260 1.356 . S
N1268 H1274 0.984 . S
N1268 H1275 0.984 . S
N1269 C1262 1.356 . S
N1269 H1272 0.984 . S
N1269 H1273 0.985 . S
H1270 N1265 0.984 . S
H1271 N1265 0.985 . S
H1272 N1269 0.984 . S
H1273 N1269 0.985 . S
H1274 N1268 0.984 . S
H1275 N1268 0.984 . S
H1276 N1264 0.984 . S
H1277 N1264 0.985 . S
C1278 C1279 1.363 . S
C1278 C1284 1.379 . S
C1278 N1286 1.356 . S
C1279 C1278 1.363 . S
C1279 C1285 1.363 . S
C1280 C1281 1.363 . S
C1280 C1285 1.379 . S
C1280 N1287 1.356 . S
C1281 C1280 1.363 . S
C1281 C1284 1.363 . S
N1282 C1284 1.356 . S
N1282 H1294 0.984 . S
N1282 H1295 0.985 . S
N1283 C1285 1.356 . S
N1283 H1288 0.984 . S
N1283 H1289 0.985 . S
C1284 C1278 1.379 . S
C1284 C1281 1.363 . S
C1284 N1282 1.356 . S
C1285 C1279 1.363 . S
C1285 C1280 1.379 . S
C1285 N1283 1.356 . S
N1286 C1278 1.356 . S
N1286 H1292 0.984 . S
N1286 H1293 0.984 . S
N1287 C1280 1.356 . S
N1287 H1290 0.984 . S
N1287 H1291 0.985 . S
H1288 N1283 0.984 . S
H1289 N1283 0.985 . S
H1290 N1287 0.984 . S
H1291 N1287 0.985 . S
H1292 N1286 0.984 . S
H1293 N1286 0.984 . S
H1294 N1282 0.984 . S
H1295 N1282 0.985 . S
C1296 C1297 1.363 . S
C1296 C1302 1.379 . S
C1296 N1304 1.356 . S
C1297 C1296 1.363 . S
C1297 C1303 1.363 . S
C1298 C1299 1.363 . S
C1298 C1303 1.379 . S
C1298 N1305 1.356 . S
C1299 C1298 1.363 . S
C1299 C1302 1.363 . S
N1300 C1302 1.356 . S
N1300 H1312 0.984 . S
N1300 H1313 0.985 . S
N1301 C1303 1.356 . S
N1301 H1306 0.984 . S
N1301 H1307 0.985 . S
C1302 C1296 1.379 . S
C1302 C1299 1.363 . S
C1302 N1300 1.356 . S
C1303 C1297 1.363 . S
C1303 C1298 1.379 . S
C1303 N1301 1.356 . S
N1304 C1296 1.356 . S
N1304 H1310 0.984 . S
N1304 H1311 0.984 . S
N1305 C1298 1.356 . S
N1305 H1308 0.984 . S
N1305 H1309 0.985 . S
H1306 N1301 0.984 . S
H1307 N1301 0.985 . S
H1308 N1305 0.984 . S
H1309 N1305 0.985 . S
H1310 N1304 0.984 . S
H1311 N1304 0.984 . S
H1312 N1300 0.984 . S
H1313 N1300 0.985 . S
C1314 C1315 1.363 . S
C1314 C1320 1.379 . S
C1314 N1322 1.356 . S
C1315 C1314 1.363 . S
C1315 C1321 1.363 . S
C1316 C1317 1.363 . S
C1316 C1321 1.379 . S
C1316 N1323 1.356 . S
C1317 C1316 1.363 . S
C1317 C1320 1.363 . S
N1318 C1320 1.356 . S
N1318 H1330 0.984 . S
N1318 H1331 0.985 . S
N1319 C1321 1.356 . S
N1319 H1324 0.984 . S
N1319 H1325 0.985 . S
C1320 C1314 1.379 . S
C1320 C1317 1.363 . S
C1320 N1318 1.356 . S
C1321 C1315 1.363 . S
C1321 C1316 1.379 . S
C1321 N1319 1.356 . S
N1322 C1314 1.356 . S
N1322 H1328 0.984 . S
N1322 H1329 0.984 . S
N1323 C1316 1.356 . S
N1323 H1326 0.984 . S
N1323 H1327 0.985 . S
H1324 N1319 0.984 . S
H1325 N1319 0.985 . S
H1326 N1323 0.984 . S
H1327 N1323 0.985 . S
H1328 N1322 0.984 . S
H1329 N1322 0.984 . S
H1330 N1318 0.984 . S
H1331 N1318 0.985 . S
C1332 C1333 1.363 . S
C1332 C1338 1.379 . S
C1332 N1340 1.356 . S
C1333 C1332 1.363 . S
C1333 C1339 1.363 . S
C1334 C1335 1.363 . S
C1334 C1339 1.379 . S
C1334 N1341 1.356 . S
C1335 C1334 1.363 . S
C1335 C1338 1.363 . S
N1336 C1338 1.356 . S
N1336 H1348 0.984 . S
N1336 H1349 0.985 . S
N1337 C1339 1.356 . S
N1337 H1342 0.984 . S
N1337 H1343 0.985 . S
C1338 C1332 1.379 . S
C1338 C1335 1.363 . S
C1338 N1336 1.356 . S
C1339 C1333 1.363 . S
C1339 C1334 1.379 . S
C1339 N1337 1.356 . S
N1340 C1332 1.356 . S
N1340 H1346 0.984 . S
N1340 H1347 0.984 . S
N1341 C1334 1.356 . S
N1341 H1344 0.984 . S
N1341 H1345 0.985 . S
H1342 N1337 0.984 . S
H1343 N1337 0.985 . S
H1344 N1341 0.984 . S
H1345 N1341 0.985 . S
H1346 N1340 0.984 . S
H1347 N1340 0.984 . S
H1348 N1336 0.984 . S
H1349 N1336 0.985 . S
C1350 C1351 1.363 . S
C1350 C1356 1.379 . S
C1350 N1358 1.356 . S
C1351 C1350 1.363 . S
C1351 C1357 1.363 . S
C1352 C1353 1.363 . S
C1352 C1357 1.379 . S
C1352 N1359 1.356 . S
C1353 C1352 1.363 . S
C1353 C1356 1.363 . S
N1354 C1356 1.356 . S
N1354 H1366 0.984 . S
N1354 H1367 0.985 . S
N1355 C1357 1.356 . S
N1355 H1360 0.984 . S
N1355 H1361 0.985 . S
C1356 C1350 1.379 . S
C1356 C1353 1.363 . S
C1356 N1354 1.356 . S
C1357 C1351 1.363 . S
C1357 C1352 1.379 . S
C1357 N1355 1.356 . S
N1358 C1350 1.356 . S
N1358 H1364 0.984 . S
N1358 H1365 0.984 . S
N1359 C1352 1.356 . S
N1359 H1362 0.984 . S
N1359 H1363 0.985 . S
H1360 N1355 0.984 . S
H1361 N1355 0.985 . S
H1362 N1359 0.984 . S
H1363 N1359 0.985 . S
H1364 N1358 0.984 . S
H1365 N1358 0.984 . S
H1366 N1354 0.984 . S
H1367 N1354 0.985 . S
C1368 C1369 1.363 . S
C1368 C1374 1.379 . S
C1368 N1376 1.356 . S
C1369 C1368 1.363 . S
C1369 C1375 1.363 . S
C1370 C1371 1.363 . S
C1370 C1375 1.379 . S
C1370 N1377 1.356 . S
C1371 C1370 1.363 . S
C1371 C1374 1.363 . S
N1372 C1374 1.356 . S
N1372 H1384 0.984 . S
N1372 H1385 0.985 . S
N1373 C1375 1.356 . S
N1373 H1378 0.984 . S
N1373 H1379 0.985 . S
C1374 C1368 1.379 . S
C1374 C1371 1.363 . S
C1374 N1372 1.356 . S
C1375 C1369 1.363 . S
C1375 C1370 1.379 . S
C1375 N1373 1.356 . S
N1376 C1368 1.356 . S
N1376 H1382 0.984 . S
N1376 H1383 0.984 . S
N1377 C1370 1.356 . S
N1377 H1380 0.984 . S
N1377 H1381 0.985 . S
H1378 N1373 0.984 . S
H1379 N1373 0.985 . S
H1380 N1377 0.984 . S
H1381 N1377 0.985 . S
H1382 N1376 0.984 . S
H1383 N1376 0.984 . S
H1384 N1372 0.984 . S
H1385 N1372 0.985 . S
C1386 C1387 1.363 . S
C1386 C1392 1.379 . S
C1386 N1394 1.356 . S
C1387 C1386 1.363 . S
C1387 C1393 1.363 . S
C1388 C1389 1.363 . S
C1388 C1393 1.379 . S
C1388 N1395 1.356 . S
C1389 C1388 1.363 . S
C1389 C1392 1.363 . S
N1390 C1392 1.356 . S
N1390 H1402 0.984 . S
N1390 H1403 0.985 . S
N1391 C1393 1.356 . S
N1391 H1396 0.984 . S
N1391 H1397 0.985 . S
C1392 C1386 1.379 . S
C1392 C1389 1.363 . S
C1392 N1390 1.356 . S
C1393 C1387 1.363 . S
C1393 C1388 1.379 . S
C1393 N1391 1.356 . S
N1394 C1386 1.356 . S
N1394 H1400 0.984 . S
N1394 H1401 0.984 . S
N1395 C1388 1.356 . S
N1395 H1398 0.984 . S
N1395 H1399 0.985 . S
H1396 N1391 0.984 . S
H1397 N1391 0.985 . S
H1398 N1395 0.984 . S
H1399 N1395 0.985 . S
H1400 N1394 0.984 . S
H1401 N1394 0.984 . S
H1402 N1390 0.984 . S
H1403 N1390 0.985 . S
C1404 C1405 1.363 . S
C1404 C1410 1.379 . S
C1404 N1412 1.356 . S
C1405 C1404 1.363 . S
C1405 C1411 1.363 . S
C1406 C1407 1.363 . S
C1406 C1411 1.379 . S
C1406 N1413 1.356 . S
C1407 C1406 1.363 . S
C1407 C1410 1.363 . S
N1408 C1410 1.356 . S
N1408 H1420 0.984 . S
N1408 H1421 0.985 . S
N1409 C1411 1.356 . S
N1409 H1414 0.984 . S
N1409 H1415 0.985 . S
C1410 C1404 1.379 . S
C1410 C1407 1.363 . S
C1410 N1408 1.356 . S
C1411 C1405 1.363 . S
C1411 C1406 1.379 . S
C1411 N1409 1.356 . S
N1412 C1404 1.356 . S
N1412 H1418 0.984 . S
N1412 H1419 0.984 . S
N1413 C1406 1.356 . S
N1413 H1416 0.984 . S
N1413 H1417 0.985 . S
H1414 N1409 0.984 . S
H1415 N1409 0.985 . S
H1416 N1413 0.984 . S
H1417 N1413 0.985 . S
H1418 N1412 0.984 . S
H1419 N1412 0.984 . S
H1420 N1408 0.984 . S
H1421 N1408 0.985 . S
C613 C9 1.268 . S
C615 C5 1.311 . S
C631 C43 1.268 . S
C633 C39 1.311 . S
C649 C73 1.311 . S
C651 C77 1.268 . S
C667 C111 1.268 . S
C669 C107 1.311 . S
C685 C145 1.268 . S
C687 C141 1.311 . S
C703 C175 1.311 . S
C705 C179 1.268 . S
C721 C209 1.311 . S
C723 C213 1.268 . S
C739 C243 1.311 . S
C741 C247 1.268 . S
C757 C281 1.268 . S
C759 C277 1.311 . S
C775 C315 1.268 . S
C777 C311 1.311 . S
C793 C349 1.268 . S
C795 C345 1.311 . S
C811 C379 1.311 . S
C813 C383 1.268 . S
C829 C413 1.311 . S
C831 C417 1.268 . S
C847 C447 1.311 . S
C849 C451 1.268 . S
C865 C481 1.311 . S
C867 C485 1.268 . S
C883 C519 1.268 . S
C885 C515 1.311 . S
C901 C553 1.268 . S
C903 C549 1.311 . S
C919 C583 1.311 . S
C921 C587 1.268 . S
C937 C598 1.816 . S
C939 C20 1.816 . S
C955 C54 1.816 . S
C957 C530 1.816 . S
C973 C564 1.816 . S
C975 C88 1.816 . S
C991 C258 1.816 . S
C993 C122 1.816 . S
C1009 C156 1.816 . S
C1011 C292 1.816 . S
C1027 C190 1.816 . S
C1029 C224 1.816 . S
C1045 C326 1.816 . S
C1047 C462 1.816 . S
C1063 C496 1.816 . S
C1065 C360 1.816 . S
C1081 C394 1.816 . S
C1083 C428 1.816 . S
C1099 C33 1.374 . S
C1101 C135 1.374 . S
C1117 C67 1.374 . S
C1119 C169 1.374 . S
C1135 C203 1.374 . S
C1137 C101 1.374 . S
C1153 C172 1.725 . S
C1155 C36 1.725 . S
C1171 C104 1.725 . S
C1173 C70 1.725 . S
C1189 C138 1.725 . S
C1191 C2 1.725 . S
C1207 C339 1.374 . S
C1209 C237 1.374 . S
C1225 C373 1.374 . S
C1227 C271 1.374 . S
C1243 C305 1.374 . S
C1245 C407 1.374 . S
C1261 C376 1.725 . S
C1263 C240 1.725 . S
C1279 C274 1.725 . S
C1281 C308 1.725 . S
C1297 C206 1.725 . S
C1299 C342 1.725 . S
C1315 C543 1.374 . S
C1317 C441 1.374 . S
C1333 C577 1.374 . S
C1335 C475 1.374 . S
C1351 C611 1.374 . S
C1353 C509 1.374 . S
C1369 C444 1.725 . S
C1371 C580 1.725 . S
C1387 C478 1.725 . S
C1389 C512 1.725 . S
C1405 C546 1.725 . S
C1407 C410 1.725 . S
