# Generated by pormake.
# Topology soh, (5)-cn, num edge types: 1
# Building blocks:
#     Node 0, Type 0, BuildingBlock: XOMCOT_clean_sbu_0, # of connection points: 5
#     Node 1, Type 0, BuildingBlock: XOMCOT_clean_sbu_0, # of connection points: 5
#     Node 2, Type 0, BuildingBlock: XOMCOT_clean_sbu_0, # of connection points: 5
#     Node 3, Type 0, BuildingBlock: XOMCOT_clean_sbu_0, # of connection points: 5
#     Node 4, Type 0, BuildingBlock: XOMCOT_clean_sbu_0, # of connection points: 5
#     Node 5, Type 0, BuildingBlock: XOMCOT_clean_sbu_0, # of connection points: 5
#     Node 6, Type 0, BuildingBlock: XOMCOT_clean_sbu_0, # of connection points: 5
#     Node 7, Type 0, BuildingBlock: XOMCOT_clean_sbu_0, # of connection points: 5
#     Node 8, Type 0, BuildingBlock: XOMCOT_clean_sbu_0, # of connection points: 5
#     Node 9, Type 0, BuildingBlock: XOMCOT_clean_sbu_0, # of connection points: 5
#     Node 10, Type 0, BuildingBlock: XOMCOT_clean_sbu_0, # of connection points: 5
#     Node 11, Type 0, BuildingBlock: XOMCOT_clean_sbu_0, # of connection points: 5
#     Node 12, Type 0, BuildingBlock: XOMCOT_clean_sbu_0, # of connection points: 5
#     Node 13, Type 0, BuildingBlock: XOMCOT_clean_sbu_0, # of connection points: 5
#     Node 14, Type 0, BuildingBlock: XOMCOT_clean_sbu_0, # of connection points: 5
#     Node 15, Type 0, BuildingBlock: XOMCOT_clean_sbu_0, # of connection points: 5
#     Node 16, Type 0, BuildingBlock: XOMCOT_clean_sbu_0, # of connection points: 5
#     Node 17, Type 0, BuildingBlock: XOMCOT_clean_sbu_0, # of connection points: 5
#     Node 18, Type 0, BuildingBlock: XOMCOT_clean_sbu_0, # of connection points: 5
#     Node 19, Type 0, BuildingBlock: XOMCOT_clean_sbu_0, # of connection points: 5
#     Node 20, Type 0, BuildingBlock: XOMCOT_clean_sbu_0, # of connection points: 5
#     Node 21, Type 0, BuildingBlock: XOMCOT_clean_sbu_0, # of connection points: 5
#     Node 22, Type 0, BuildingBlock: XOMCOT_clean_sbu_0, # of connection points: 5
#     Node 23, Type 0, BuildingBlock: XOMCOT_clean_sbu_0, # of connection points: 5
#     Node 24, Type 0, BuildingBlock: XOMCOT_clean_sbu_0, # of connection points: 5
#     Node 25, Type 0, BuildingBlock: XOMCOT_clean_sbu_0, # of connection points: 5
#     Node 26, Type 0, BuildingBlock: XOMCOT_clean_sbu_0, # of connection points: 5
#     Node 27, Type 0, BuildingBlock: XOMCOT_clean_sbu_0, # of connection points: 5
#     Node 28, Type 0, BuildingBlock: XOMCOT_clean_sbu_0, # of connection points: 5
#     Node 29, Type 0, BuildingBlock: XOMCOT_clean_sbu_0, # of connection points: 5
#     Node 30, Type 0, BuildingBlock: XOMCOT_clean_sbu_0, # of connection points: 5
#     Node 31, Type 0, BuildingBlock: XOMCOT_clean_sbu_0, # of connection points: 5
#     Edge 32, Type (0, 0), BuildingBlock: CIFDUS_clean_linker_0, # of connection points: 2
#     Edge 33, Type (0, 0), BuildingBlock: CIFDUS_clean_linker_0, # of connection points: 2
#     Edge 34, Type (0, 0), BuildingBlock: CIFDUS_clean_linker_0, # of connection points: 2
#     Edge 35, Type (0, 0), BuildingBlock: CIFDUS_clean_linker_0, # of connection points: 2
#     Edge 36, Type (0, 0), BuildingBlock: CIFDUS_clean_linker_0, # of connection points: 2
#     Edge 37, Type (0, 0), BuildingBlock: CIFDUS_clean_linker_0, # of connection points: 2
#     Edge 38, Type (0, 0), BuildingBlock: CIFDUS_clean_linker_0, # of connection points: 2
#     Edge 39, Type (0, 0), BuildingBlock: CIFDUS_clean_linker_0, # of connection points: 2
#     Edge 40, Type (0, 0), BuildingBlock: CIFDUS_clean_linker_0, # of connection points: 2
#     Edge 41, Type (0, 0), BuildingBlock: CIFDUS_clean_linker_0, # of connection points: 2
#     Edge 42, Type (0, 0), BuildingBlock: CIFDUS_clean_linker_0, # of connection points: 2
#     Edge 43, Type (0, 0), BuildingBlock: CIFDUS_clean_linker_0, # of connection points: 2
#     Edge 44, Type (0, 0), BuildingBlock: CIFDUS_clean_linker_0, # of connection points: 2
#     Edge 45, Type (0, 0), BuildingBlock: CIFDUS_clean_linker_0, # of connection points: 2
#     Edge 46, Type (0, 0), BuildingBlock: CIFDUS_clean_linker_0, # of connection points: 2
#     Edge 47, Type (0, 0), BuildingBlock: CIFDUS_clean_linker_0, # of connection points: 2
#     Edge 48, Type (0, 0), BuildingBlock: CIFDUS_clean_linker_0, # of connection points: 2
#     Edge 49, Type (0, 0), BuildingBlock: CIFDUS_clean_linker_0, # of connection points: 2
#     Edge 50, Type (0, 0), BuildingBlock: CIFDUS_clean_linker_0, # of connection points: 2
#     Edge 51, Type (0, 0), BuildingBlock: CIFDUS_clean_linker_0, # of connection points: 2
#     Edge 52, Type (0, 0), BuildingBlock: CIFDUS_clean_linker_0, # of connection points: 2
#     Edge 53, Type (0, 0), BuildingBlock: CIFDUS_clean_linker_0, # of connection points: 2
#     Edge 54, Type (0, 0), BuildingBlock: CIFDUS_clean_linker_0, # of connection points: 2
#     Edge 55, Type (0, 0), BuildingBlock: CIFDUS_clean_linker_0, # of connection points: 2
#     Edge 56, Type (0, 0), BuildingBlock: CIFDUS_clean_linker_0, # of connection points: 2
#     Edge 57, Type (0, 0), BuildingBlock: CIFDUS_clean_linker_0, # of connection points: 2
#     Edge 58, Type (0, 0), BuildingBlock: CIFDUS_clean_linker_0, # of connection points: 2
#     Edge 59, Type (0, 0), BuildingBlock: CIFDUS_clean_linker_0, # of connection points: 2
#     Edge 60, Type (0, 0), BuildingBlock: CIFDUS_clean_linker_0, # of connection points: 2
#     Edge 61, Type (0, 0), BuildingBlock: CIFDUS_clean_linker_0, # of connection points: 2
#     Edge 62, Type (0, 0), BuildingBlock: CIFDUS_clean_linker_0, # of connection points: 2
#     Edge 63, Type (0, 0), BuildingBlock: CIFDUS_clean_linker_0, # of connection points: 2
#     Edge 64, Type (0, 0), BuildingBlock: CIFDUS_clean_linker_0, # of connection points: 2
#     Edge 65, Type (0, 0), BuildingBlock: CIFDUS_clean_linker_0, # of connection points: 2
#     Edge 66, Type (0, 0), BuildingBlock: CIFDUS_clean_linker_0, # of connection points: 2
#     Edge 67, Type (0, 0), BuildingBlock: CIFDUS_clean_linker_0, # of connection points: 2
#     Edge 68, Type (0, 0), BuildingBlock: CIFDUS_clean_linker_0, # of connection points: 2
#     Edge 69, Type (0, 0), BuildingBlock: CIFDUS_clean_linker_0, # of connection points: 2
#     Edge 70, Type (0, 0), BuildingBlock: CIFDUS_clean_linker_0, # of connection points: 2
#     Edge 71, Type (0, 0), BuildingBlock: CIFDUS_clean_linker_0, # of connection points: 2
#     Edge 72, Type (0, 0), BuildingBlock: CIFDUS_clean_linker_0, # of connection points: 2
#     Edge 73, Type (0, 0), BuildingBlock: CIFDUS_clean_linker_0, # of connection points: 2
#     Edge 74, Type (0, 0), BuildingBlock: CIFDUS_clean_linker_0, # of connection points: 2
#     Edge 75, Type (0, 0), BuildingBlock: CIFDUS_clean_linker_0, # of connection points: 2
#     Edge 76, Type (0, 0), BuildingBlock: CIFDUS_clean_linker_0, # of connection points: 2
#     Edge 77, Type (0, 0), BuildingBlock: CIFDUS_clean_linker_0, # of connection points: 2
#     Edge 78, Type (0, 0), BuildingBlock: CIFDUS_clean_linker_0, # of connection points: 2
#     Edge 79, Type (0, 0), BuildingBlock: CIFDUS_clean_linker_0, # of connection points: 2
#     Edge 80, Type (0, 0), BuildingBlock: CIFDUS_clean_linker_0, # of connection points: 2
#     Edge 81, Type (0, 0), BuildingBlock: CIFDUS_clean_linker_0, # of connection points: 2
#     Edge 82, Type (0, 0), BuildingBlock: CIFDUS_clean_linker_0, # of connection points: 2
#     Edge 83, Type (0, 0), BuildingBlock: CIFDUS_clean_linker_0, # of connection points: 2
#     Edge 84, Type (0, 0), BuildingBlock: CIFDUS_clean_linker_0, # of connection points: 2
#     Edge 85, Type (0, 0), BuildingBlock: CIFDUS_clean_linker_0, # of connection points: 2
#     Edge 86, Type (0, 0), BuildingBlock: CIFDUS_clean_linker_0, # of connection points: 2
#     Edge 87, Type (0, 0), BuildingBlock: CIFDUS_clean_linker_0, # of connection points: 2
#     Edge 88, Type (0, 0), BuildingBlock: CIFDUS_clean_linker_0, # of connection points: 2
#     Edge 89, Type (0, 0), BuildingBlock: CIFDUS_clean_linker_0, # of connection points: 2
#     Edge 90, Type (0, 0), BuildingBlock: CIFDUS_clean_linker_0, # of connection points: 2
#     Edge 91, Type (0, 0), BuildingBlock: CIFDUS_clean_linker_0, # of connection points: 2
#     Edge 92, Type (0, 0), BuildingBlock: CIFDUS_clean_linker_0, # of connection points: 2
#     Edge 93, Type (0, 0), BuildingBlock: CIFDUS_clean_linker_0, # of connection points: 2
#     Edge 94, Type (0, 0), BuildingBlock: CIFDUS_clean_linker_0, # of connection points: 2
#     Edge 95, Type (0, 0), BuildingBlock: CIFDUS_clean_linker_0, # of connection points: 2
#     Edge 96, Type (0, 0), BuildingBlock: CIFDUS_clean_linker_0, # of connection points: 2
#     Edge 97, Type (0, 0), BuildingBlock: CIFDUS_clean_linker_0, # of connection points: 2
#     Edge 98, Type (0, 0), BuildingBlock: CIFDUS_clean_linker_0, # of connection points: 2
#     Edge 99, Type (0, 0), BuildingBlock: CIFDUS_clean_linker_0, # of connection points: 2
#     Edge 100, Type (0, 0), BuildingBlock: CIFDUS_clean_linker_0, # of connection points: 2
#     Edge 101, Type (0, 0), BuildingBlock: CIFDUS_clean_linker_0, # of connection points: 2
#     Edge 102, Type (0, 0), BuildingBlock: CIFDUS_clean_linker_0, # of connection points: 2
#     Edge 103, Type (0, 0), BuildingBlock: CIFDUS_clean_linker_0, # of connection points: 2
#     Edge 104, Type (0, 0), BuildingBlock: CIFDUS_clean_linker_0, # of connection points: 2
#     Edge 105, Type (0, 0), BuildingBlock: CIFDUS_clean_linker_0, # of connection points: 2
#     Edge 106, Type (0, 0), BuildingBlock: CIFDUS_clean_linker_0, # of connection points: 2
#     Edge 107, Type (0, 0), BuildingBlock: CIFDUS_clean_linker_0, # of connection points: 2
#     Edge 108, Type (0, 0), BuildingBlock: CIFDUS_clean_linker_0, # of connection points: 2
#     Edge 109, Type (0, 0), BuildingBlock: CIFDUS_clean_linker_0, # of connection points: 2
#     Edge 110, Type (0, 0), BuildingBlock: CIFDUS_clean_linker_0, # of connection points: 2
#     Edge 111, Type (0, 0), BuildingBlock: CIFDUS_clean_linker_0, # of connection points: 2
# Relax obj value: 0.222
# Max RMSD: 0.196
# Mean RMSD: 0.196
data_MOF--net-soh--node1-XOMCOT_clean_sbu_0--edge1-CIFDUS_clean_linker_0
_symmetry_space_group_name_H-M    P1
_symmetry_Int_Tables_number       1
_symmetry_cell_setting            triclinic
loop_
_symmetry_equiv_pos_as_xyz
'x, y, z'
_cell_length_a     75.471606
_cell_length_b     38.277654
_cell_length_c     40.504426
_cell_angle_alpha  89.925937
_cell_angle_beta   89.914859
_cell_angle_gamma 90.31975
loop_
_atom_site_label
_atom_site_type_symbol
_atom_site_fract_x
_atom_site_fract_y
_atom_site_fract_z
_atom_type_partial_charge
Co0 Co 0.30622 0.33462 0.20235 0.0
C1 C 0.31084 0.26566 0.16862 0.0
C2 C 0.32521 0.30712 0.14476 0.0
C3 C 0.32784 0.27674 0.12735 0.0
N4 N 0.31462 0.30024 0.17076 0.0
N5 N 0.31876 0.2506 0.14227 0.0
H6 H 0.30219 0.25181 0.18545 0.0
H7 H 0.33059 0.33259 0.13873 0.0
C8 C 0.34539 0.34662 0.20744 0.0
O9 O 0.34674 0.31325 0.21453 0.0
N10 N 0.29774 0.36873 0.23369 0.0
C11 C 0.28303 0.38829 0.2308 0.0
C12 C 0.27899 0.40217 0.26116 0.0
C13 C 0.30243 0.37098 0.26576 0.0
N14 N 0.29104 0.39083 0.28326 0.0
C15 C 0.2843 0.35037 0.14672 0.0
C16 C 0.29571 0.4184 0.13676 0.0
C17 C 0.28138 0.40586 0.11802 0.0
C18 C 0.27592 0.37113 0.12297 0.0
C19 C 0.3036 0.3969 0.16069 0.0
N20 N 0.29768 0.36346 0.16577 0.0
H21 H 0.2797 0.32389 0.15051 0.0
H22 H 0.31391 0.40779 0.17609 0.0
H23 H 0.27495 0.39023 0.20887 0.0
H24 H 0.31294 0.35569 0.27663 0.0
O25 O 0.2849 0.30738 0.21066 0.0
O26 O 0.30971 0.30165 0.23885 0.0
O27 O 0.3301 0.3595 0.2015 0.0
C28 C 0.29313 0.29265 0.23513 0.0
H29 H 0.33601 0.2742 0.10552 0.0
H30 H 0.26745 0.4177 0.26683 0.0
H31 H 0.30028 0.44513 0.13402 0.0
H32 H 0.26507 0.36015 0.10883 0.0
Co33 Co 0.97473 0.94752 0.20877 0.0
C34 C 0.96789 0.01994 0.18614 0.0
C35 C 0.96965 0.98574 0.14461 0.0
C36 C 0.96791 1.01946 0.13322 0.0
N37 N 0.96977 0.98586 0.17801 0.0
N38 N 0.967 0.04096 0.15943 0.0
H39 H 0.96757 0.02963 0.21115 0.0
H40 H 0.9711 0.96307 0.12906 0.0
C41 C 0.93801 0.92732 0.18408 0.0
O42 O 0.94349 0.93296 0.1538 0.0
N43 N 0.97967 0.9106 0.23951 0.0
C44 C 0.99411 0.8901 0.23994 0.0
C45 C 0.99509 0.87412 0.27033 0.0
C46 C 0.97199 0.90668 0.26929 0.0
N47 N 0.98124 0.88484 0.28875 0.0
C48 C 0.99628 0.92413 0.15437 0.0
C49 C 0.97926 0.86099 0.14393 0.0
C50 C 0.99401 0.86934 0.12414 0.0
C51 C 1.00258 0.90143 0.1299 0.0
C52 C 0.97344 0.88436 0.16829 0.0
N53 N 0.98153 0.9161 0.17257 0.0
H54 H 1.00318 0.94855 0.15854 0.0
H55 H 0.96272 0.87636 0.18433 0.0
H56 H 1.00405 0.88924 0.2207 0.0
H57 H 0.96107 0.92256 0.27782 0.0
O58 O 0.99794 0.96811 0.21836 0.0
O59 O 0.97357 0.97997 0.24606 0.0
O60 O 0.94874 0.93178 0.20826 0.0
C61 C 0.99056 0.98503 0.24258 0.0
H62 H 0.96822 0.02761 0.10763 0.0
H63 H 1.00591 0.8582 0.27914 0.0
H64 H 0.97253 0.83608 0.14132 0.0
H65 H 1.01403 0.90918 0.11544 0.0
Co66 Co 0.31347 0.95831 0.06237 0.0
C67 C 0.31266 0.01992 0.10734 0.0
C68 C 0.33899 1.00581 0.09319 0.0
C69 C 0.3397 0.03764 0.1086 0.0
N70 N 0.32209 0.99396 0.09287 0.0
N71 N 0.32319 0.04655 0.11745 0.0
H72 H 0.29836 0.02138 0.107 0.0
H73 H 0.34984 0.99454 0.07956 0.0
C74 C 0.34801 0.92595 0.08578 0.0
O75 O 0.344 0.93344 0.11654 0.0
N76 N 0.30527 0.92433 0.03061 0.0
C77 C 0.29031 0.90494 0.03134 0.0
C78 C 0.28845 0.88835 1.00129 0.0
C79 C 0.31213 0.91977 1.0002 0.0
N80 N 0.3021 0.89806 0.98178 0.0
C81 C 0.29212 0.93974 0.12038 0.0
C82 C 0.30402 0.87167 0.12514 0.0
C83 C 0.29154 0.8831 0.14834 0.0
C84 C 0.28537 0.91759 0.14538 0.0
C85 C 0.31009 0.89423 0.10029 0.0
N86 N 0.30465 0.92826 0.09856 0.0
H87 H 0.28703 0.96593 0.11828 0.0
H88 H 0.319 0.88387 0.08191 0.0
H89 H 0.28094 0.90428 0.05157 0.0
H90 H 0.32377 0.93342 0.99117 0.0
O91 O 0.29254 0.98674 0.05237 0.0
O92 O 0.31831 0.99052 0.02669 0.0
O93 O 0.33737 0.93401 0.06239 0.0
C94 C 0.3021 1.00141 0.02922 0.0
H95 H 0.35119 0.05466 0.11006 0.0
H96 H 0.27733 0.87235 0.99361 0.0
H97 H 0.30881 0.84505 0.1257 0.0
H98 H 0.27556 0.9275 0.16246 0.0
Co99 Co 0.98153 0.3325 0.06849 0.0
C100 C 0.97162 0.2633 0.09634 0.0
C101 C 0.97759 0.29916 0.13527 0.0
C102 C 0.97379 0.26709 0.14899 0.0
N103 N 0.97632 0.29695 0.10204 0.0
N104 N 0.97014 0.24447 0.12444 0.0
H105 H 0.96988 0.25227 0.07204 0.0
H106 H 0.98082 0.32238 0.14914 0.0
C107 C 0.94559 0.3552 0.09465 0.0
O108 O 0.95115 0.3497 0.12485 0.0
N109 N 0.98657 0.36667 0.03476 0.0
C110 C 1.00077 0.38812 0.03257 0.0
C111 C 1.00222 0.39981 1.00044 0.0
C112 C 0.9796 0.36572 1.00422 0.0
N113 N 0.98903 0.38518 0.98274 0.0
C114 C 1.00587 0.35675 0.11739 0.0
C115 C 0.99129 0.42177 0.12837 0.0
C116 C 1.00725 0.4133 0.14432 0.0
C117 C 1.01439 0.38011 0.13865 0.0
C118 C 0.9832 0.39759 0.1069 0.0
N119 N 0.99037 0.36524 0.10199 0.0
H120 H 1.01179 0.33151 0.11326 0.0
H121 H 0.9716 0.40549 0.0933 0.0
H122 H 1.01041 0.39221 0.05192 0.0
H123 H 0.96895 0.34827 0.99705 0.0
O124 O 1.00379 0.30957 0.05802 0.0
O125 O 0.97837 0.29766 0.03368 0.0
O126 O 0.95614 0.35053 0.07026 0.0
C127 C 0.99533 0.29194 0.03556 0.0
H128 H 0.97374 0.26102 0.17508 0.0
H129 H 1.01315 0.41471 0.99018 0.0
H130 H 0.98546 0.44735 0.13146 0.0
H131 H 0.02657 0.37216 0.15054 0.0
Co132 Co 0.73381 0.70443 0.81894 0.0
C133 C 0.73281 0.76638 0.86395 0.0
C134 C 0.70701 0.75134 0.847 0.0
C135 C 0.70548 0.78192 0.86434 0.0
N136 N 0.72403 0.74056 0.84759 0.0
N137 N 0.72167 0.79148 0.87477 0.0
H138 H 0.74706 0.76804 0.8662 0.0
H139 H 0.69653 0.73981 0.83248 0.0
C140 C 0.69799 0.67175 0.83601 0.0
O141 O 0.70107 0.67765 0.86744 0.0
N142 N 0.74345 0.67015 0.78912 0.0
C143 C 0.75879 0.65269 0.79234 0.0
C144 C 0.76315 0.63841 0.76223 0.0
C145 C 0.73873 0.6664 0.75725 0.0
N146 N 0.75064 0.64749 0.74004 0.0
C147 C 0.75235 0.68592 0.87945 0.0
C148 C 0.74091 0.61718 0.8819 0.0
C149 C 0.75311 0.62852 0.90574 0.0
C150 C 0.75891 0.66344 0.90413 0.0
C151 C 0.73503 0.64015 0.85729 0.0
N152 N 0.74037 0.6744 0.85655 0.0
H153 H 0.75741 0.71228 0.87812 0.0
H154 H 0.72662 0.62983 0.83804 0.0
H155 H 0.76692 0.65249 0.81431 0.0
H156 H 0.72772 0.68017 0.7463 0.0
O157 O 0.75563 0.73148 0.81375 0.0
O158 O 0.73193 0.73698 0.78228 0.0
O159 O 0.70955 0.68078 0.81428 0.0
C160 C 0.74818 0.74643 0.78842 0.0
H161 H 0.6936 0.7974 0.86699 0.0
H162 H 0.77514 0.62414 0.75683 0.0
H163 H 0.73639 0.59028 0.88152 0.0
H164 H 0.76845 0.67333 0.92179 0.0
Co165 Co 0.05777 0.09319 0.8098 0.0
C166 C 0.06092 0.02074 0.83605 0.0
C167 C 0.07156 0.05826 0.86992 0.0
C168 C 0.07384 0.02516 0.88296 0.0
N169 N 0.06339 0.05548 0.84045 0.0
N170 N 0.06721 1.0016 0.86144 0.0
H171 H 0.05464 1.00927 0.81476 0.0
H172 H 0.07583 0.08261 0.88093 0.0
C173 C 0.09716 0.10113 0.80803 0.0
O174 O 0.0979 0.0691 0.79655 0.0
N175 N 0.05258 0.13002 0.77866 0.0
C176 C 0.0386 0.15178 0.77815 0.0
C177 C 0.03795 0.16781 0.74758 0.0
C178 C 0.06013 0.13297 0.7486 0.0
N179 N 0.05138 0.15549 0.72901 0.0
C180 C 0.03462 0.10863 0.86375 0.0
C181 C 0.04739 0.1749 0.87759 0.0
C182 C 0.03254 0.16254 0.89515 0.0
C183 C 0.02634 0.12871 0.88811 0.0
C184 C 0.05521 0.15404 0.85307 0.0
N185 N 0.0487 0.12142 0.84625 0.0
H186 H 0.02952 0.08279 0.85848 0.0
H187 H 0.06608 0.1647 0.83883 0.0
H188 H 0.0288 0.15389 0.79755 0.0
H189 H 0.07107 0.11699 0.74037 0.0
O190 O 0.03589 0.07028 0.79742 0.0
O191 O 0.06152 0.06167 0.77238 0.0
O192 O 0.08217 0.11419 0.81567 0.0
C193 C 0.04452 0.05524 0.77366 0.0
H194 H 0.0803 1.01894 0.90605 0.0
H195 H 0.02755 0.1848 0.73875 0.0
H196 H 0.05253 0.20097 0.88188 0.0
H197 H 1.01509 0.11782 0.90126 0.0
Co198 Co 0.72973 0.08485 0.95999 0.0
C199 C 0.73254 0.01973 0.91933 0.0
C200 C 0.70584 0.03227 0.93234 0.0
C201 C 0.70602 0.9991 0.91983 0.0
N202 N 0.72238 0.04599 0.93163 0.0
N203 N 0.72278 0.99095 0.91195 0.0
H204 H 0.74687 0.01999 0.91938 0.0
H205 H 0.69463 0.04341 0.94499 0.0
C206 C 0.69454 0.11071 0.93494 0.0
O207 O 0.70016 0.10364 0.90496 0.0
N208 N 0.73659 0.12164 0.99001 0.0
C209 C 0.75117 0.14213 0.98917 0.0
C210 C 0.75271 0.15903 0.01917 0.0
C211 C 0.72962 0.12598 0.02036 0.0
N212 N 0.73925 0.14841 0.03876 0.0
C213 C 0.74962 0.10292 0.90048 0.0
C214 C 0.73701 0.17038 0.89474 0.0
C215 C 0.74975 0.15916 0.87185 0.0
C216 C 0.75615 0.1249 0.8752 0.0
C217 C 0.7311 0.14792 0.91988 0.0
N218 N 0.73703 0.11427 0.92224 0.0
H219 H 0.75502 0.07703 0.90299 0.0
H220 H 0.72196 0.15803 0.93802 0.0
H221 H 0.76066 0.14294 0.96913 0.0
H222 H 0.7184 0.11116 0.02957 0.0
O223 O 0.75203 0.06147 0.96928 0.0
O224 O 0.72722 0.0536 0.99749 0.0
O225 O 0.70469 0.10484 0.95966 0.0
C226 C 0.74392 0.04619 0.99385 0.0
H227 H 0.69491 0.98106 0.91946 0.0
H228 H 0.76363 0.17554 0.02689 0.0
H229 H 0.73196 0.19679 0.89383 0.0
H230 H 0.76608 0.11505 0.85833 0.0
Co231 Co 0.05542 0.70651 0.95526 0.0
C232 C 0.05802 0.77941 0.92916 0.0
C233 C 0.06743 0.74186 0.89422 0.0
C234 C 0.06993 0.77493 0.88127 0.0
N235 N 0.05992 0.74462 0.92431 0.0
N236 N 0.06409 0.79856 0.90342 0.0
H237 H 0.05245 0.79086 0.95112 0.0
H238 H 0.0713 0.71752 0.88283 0.0
C239 C 0.09343 0.68848 0.96463 0.0
O240 O 0.09187 0.70181 0.99432 0.0
N241 N 0.05088 0.66874 0.98661 0.0
C242 C 0.03833 0.64362 0.98383 0.0
C243 C 0.03543 0.62867 0.01423 0.0
C244 C 0.05534 0.66853 0.01901 0.0
N245 N 0.04591 0.64475 0.03647 0.0
C246 C 0.02987 0.68771 0.90495 0.0
C247 C 0.04536 0.62537 0.8863 0.0
C248 C 0.02906 0.63429 0.87191 0.0
C249 C 0.02146 0.66629 0.8814 0.0
C250 C 0.05328 0.64736 0.90984 0.0
N251 N 0.04545 0.67797 0.91929 0.0
H252 H 0.02368 0.71192 0.91219 0.0
H253 H 0.0653 0.63864 0.92156 0.0
H254 H 0.03045 0.63847 0.96214 0.0
H255 H 0.06383 0.68787 0.03039 0.0
O256 O 0.03401 0.72953 0.97177 0.0
O257 O 0.06087 0.73767 0.99173 0.0
O258 O 0.08 0.688 0.94538 0.0
C259 C 0.04405 0.74453 0.9938 0.0
H260 H 0.07616 0.78105 0.85788 0.0
H261 H 0.02539 0.60926 0.01989 0.0
H262 H 0.05169 0.60083 0.88044 0.0
H263 H 1.00904 0.67476 0.87081 0.0
Co264 Co 0.30657 0.83536 0.70611 0.0
C265 C 0.31439 0.76387 0.68154 0.0
C266 C 0.30466 0.7956 0.64208 0.0
C267 C 0.30731 0.76237 0.63031 0.0
N268 N 0.30905 0.79682 0.67444 0.0
N269 N 0.31332 0.74232 0.65519 0.0
H270 H 0.3189 0.75553 0.70558 0.0
H271 H 0.3001 0.81717 0.62731 0.0
C272 C 0.34129 0.85105 0.67203 0.0
O273 O 0.3332 0.84275 0.64449 0.0
N274 N 0.30411 0.87237 0.73835 0.0
C275 C 0.29264 0.89932 0.73804 0.0
C276 C 0.29335 0.91604 0.76809 0.0
C277 C 0.31138 0.87278 0.76878 0.0
N278 N 0.305 0.89907 0.78737 0.0
C279 C 0.28104 0.8606 0.65956 0.0
C280 C 0.29829 0.92117 0.64036 0.0
C281 C 0.28127 0.91444 0.62764 0.0
C282 C 0.27278 0.88344 0.63752 0.0
C283 C 0.30612 0.89755 0.66266 0.0
N284 N 0.29767 0.86717 0.67155 0.0
H285 H 0.27403 0.83714 0.66676 0.0
H286 H 0.31862 0.90463 0.67378 0.0
H287 H 0.28352 0.90527 0.71831 0.0
H288 H 0.32046 0.85319 0.77781 0.0
O289 O 0.28393 0.81622 0.72045 0.0
O290 O 0.30952 0.80184 0.7425 0.0
O291 O 0.33257 0.85006 0.69924 0.0
C292 C 0.29235 0.79794 0.74233 0.0
H293 H 0.3045 0.75348 0.6055 0.0
H294 H 0.28498 0.93733 0.77605 0.0
H295 H 0.30521 0.94517 0.63419 0.0
H296 H 0.25974 0.87675 0.62831 0.0
Co297 Co 0.98254 0.45007 0.704 0.0
C298 C 0.98337 0.51822 0.66989 0.0
C299 C 0.96342 0.48506 0.64913 0.0
C300 C 0.9617 0.51813 0.6358 0.0
N301 N 0.9768 0.4854 0.67117 0.0
N302 N 0.97415 0.53908 0.64937 0.0
H303 H 0.99442 0.52719 0.68445 0.0
H304 H 0.95486 0.46294 0.64426 0.0
C305 C 0.94325 0.4399 0.70786 0.0
O306 O 0.94237 0.47166 0.71997 0.0
N307 N 0.98803 0.41556 0.73694 0.0
C308 C 1.00277 0.39598 0.73919 0.0
C309 C 1.0042 0.38383 0.77117 0.0
C310 C 0.9807 0.41493 0.76722 0.0
N311 N 0.99042 0.39628 0.78866 0.0
C312 C 1.00599 0.43205 0.651 0.0
C313 C 0.99399 0.36437 0.64147 0.0
C314 C 1.00863 0.37608 0.62288 0.0
C315 C 1.01444 0.41065 0.62779 0.0
C316 C 0.98597 0.38658 0.66465 0.0
N317 N 0.99207 0.41992 0.66934 0.0
H318 H 1.01084 0.45838 0.65472 0.0
H319 H 0.97525 0.37645 0.67962 0.0
H320 H 1.01273 0.39373 0.72009 0.0
H321 H 0.96958 0.43101 0.77437 0.0
O322 O 1.00409 0.475 0.71634 0.0
O323 O 0.9781 0.48408 0.73945 0.0
O324 O 0.95827 0.42765 0.69903 0.0
C325 C 0.99498 0.49144 0.7387 0.0
H326 H 0.95141 0.52645 0.61903 0.0
H327 H 1.01546 0.37035 0.78159 0.0
H328 H 0.98913 0.33784 0.63897 0.0
H329 H 0.02551 0.42116 0.61384 0.0
Co330 Co 0.30928 0.4531 0.55956 0.0
C331 C 0.31633 0.52379 0.58697 0.0
C332 C 0.32264 0.48394 0.62212 0.0
C333 C 0.32594 0.5162 0.63627 0.0
N334 N 0.31643 0.48876 0.59123 0.0
N335 N 0.32202 0.54114 0.61394 0.0
H336 H 0.31198 0.53678 0.56479 0.0
H337 H 0.32464 0.45876 0.63362 0.0
C338 C 0.34869 0.44374 0.55904 0.0
O339 O 0.35015 0.47732 0.55287 0.0
N340 N 0.30231 0.41812 0.52792 0.0
C341 C 0.28691 0.40017 0.52745 0.0
C342 C 0.28486 0.38542 0.49669 0.0
C343 C 0.30946 0.41395 0.49769 0.0
N344 N 0.29897 0.39443 0.47795 0.0
C345 C 0.2862 0.43541 0.61376 0.0
C346 C 0.29845 0.36828 0.62417 0.0
C347 C 0.28381 0.37967 0.64266 0.0
C348 C 0.27786 0.41396 0.63732 0.0
C349 C 0.3063 0.39043 0.60054 0.0
N350 N 0.30012 0.42355 0.59544 0.0
H351 H 0.28125 0.46152 0.60975 0.0
H352 H 0.31693 0.38032 0.58552 0.0
H353 H 0.27718 0.40015 0.54708 0.0
H354 H 0.32115 0.42788 0.48929 0.0
O355 O 0.28786 0.47877 0.54908 0.0
O356 O 0.31324 0.48586 0.52283 0.0
O357 O 0.33332 0.4301 0.56295 0.0
C358 C 0.29651 0.49395 0.52522 0.0
H359 H 0.33102 0.5209 0.66085 0.0
H360 H 0.27334 0.37113 0.48813 0.0
H361 H 0.30339 0.34194 0.62699 0.0
H362 H 0.26673 0.42415 0.65114 0.0
Co363 Co 0.98171 0.83642 0.56501 0.0
C364 C 0.97394 0.76451 0.58944 0.0
C365 C 0.9811 0.79784 0.62964 0.0
C366 C 0.97859 0.76467 0.64163 0.0
N367 N 0.97816 0.79812 0.59671 0.0
N368 N 0.97431 0.7435 0.61629 0.0
H369 H 0.97132 0.75512 0.5648 0.0
H370 H 0.98465 0.82004 0.64465 0.0
C371 C 0.94737 0.85496 0.59838 0.0
O372 O 0.95577 0.84906 0.62608 0.0
N373 N 0.98559 0.87338 0.53303 0.0
C374 C 0.99877 0.89736 0.53389 0.0
C375 C 1.00091 0.91145 0.50299 0.0
C376 C 0.97993 0.87332 0.50143 0.0
N377 N 0.98932 0.89579 0.48244 0.0
C378 C 1.00673 0.85982 0.61339 0.0
C379 C 0.9913 0.92337 0.6276 0.0
C380 C 1.00771 0.91542 0.64209 0.0
C381 C 1.01529 0.88296 0.63484 0.0
C382 C 0.98315 0.89944 0.60612 0.0
N383 N 0.9907 0.86772 0.59966 0.0
H384 H 1.01305 0.8353 0.60773 0.0
H385 H 0.97126 0.90728 0.59341 0.0
H386 H 1.00759 0.90191 0.55443 0.0
H387 H 0.97064 0.85434 0.49169 0.0
O388 O 1.00415 0.81607 0.55168 0.0
O389 O 0.97852 0.80328 0.52853 0.0
O390 O 0.95583 0.85224 0.57097 0.0
C391 C 0.99561 0.79851 0.5293 0.0
H392 H 0.97996 0.75692 0.66718 0.0
H393 H 1.01127 0.92952 0.49565 0.0
H394 H 0.98516 0.94849 0.63169 0.0
H395 H 0.02785 0.87543 0.64552 0.0
Co396 Co 0.73442 0.20358 0.31652 0.0
C397 C 0.72607 0.27389 0.34344 0.0
C398 C 0.73822 0.24233 0.38064 0.0
C399 C 0.73591 0.27537 0.3931 0.0
N400 N 0.73223 0.24121 0.34917 0.0
N401 N 0.72839 0.29524 0.36964 0.0
H402 H 0.72055 0.28244 0.3202 0.0
H403 H 0.74367 0.22087 0.39441 0.0
C404 C 0.69981 0.18792 0.35119 0.0
O405 O 0.70764 0.19799 0.37849 0.0
N406 N 0.73668 0.16736 0.28326 0.0
C407 C 0.74746 0.13931 0.2835 0.0
C408 C 0.74695 0.12362 0.25293 0.0
C409 C 0.72997 0.16849 0.25236 0.0
N410 N 0.73611 0.14225 0.23339 0.0
C411 C 0.76096 0.17677 0.36047 0.0
C412 C 0.74293 0.11874 0.38371 0.0
C413 C 0.76028 0.12481 0.39512 0.0
C414 C 0.7692 0.15443 0.38302 0.0
C415 C 0.73512 0.14183 0.36086 0.0
N416 N 0.74392 0.17117 0.35016 0.0
H417 H 0.76827 0.19935 0.35193 0.0
H418 H 0.72227 0.13515 0.35102 0.0
H419 H 0.75601 0.13173 0.30359 0.0
H420 H 0.72141 0.18897 0.24335 0.0
O421 O 0.7567 0.22379 0.30146 0.0
O422 O 0.73068 0.23794 0.28113 0.0
O423 O 0.70863 0.1881 0.32409 0.0
C424 C 0.7478 0.24236 0.28046 0.0
H425 H 0.73945 0.28407 0.41765 0.0
H426 H 0.7549 0.10173 0.24497 0.0
H427 H 0.73565 0.09569 0.39148 0.0
H428 H 0.78253 0.16062 0.39107 0.0
Co429 Co 0.05908 0.58899 0.31286 0.0
C430 C 0.06515 0.517 0.33818 0.0
C431 C 0.07217 0.55532 0.37441 0.0
C432 C 0.07517 0.52242 0.38742 0.0
N433 N 0.0657 0.55189 0.34353 0.0
N434 N 0.07081 0.49841 0.36444 0.0
H435 H 0.06057 0.50502 0.31564 0.0
H436 H 0.07462 0.57999 0.38661 0.0
C437 C 0.09854 0.59737 0.31104 0.0
O438 O 0.09946 0.56429 0.30268 0.0
N439 N 0.05272 0.62512 0.28191 0.0
C440 C 0.03709 0.64186 0.28034 0.0
C441 C 0.03544 0.65647 0.24938 0.0
C442 C 0.06043 0.63004 0.2522 0.0
N443 N 0.05007 0.64872 0.23169 0.0
C444 C 0.03653 0.60514 0.36785 0.0
C445 C 0.04828 0.67291 0.37777 0.0
C446 C 0.03373 0.66083 0.39637 0.0
C447 C 0.0281 0.62617 0.39137 0.0
C448 C 0.05629 0.65106 0.35426 0.0
N449 N 0.05029 0.61769 0.34933 0.0
H450 H 0.03173 0.57881 0.3639 0.0
H451 H 0.06683 0.66158 0.33909 0.0
H452 H 0.02691 0.64069 0.29914 0.0
H453 H 0.07237 0.61675 0.2445 0.0
O454 O 0.03725 0.56474 0.30214 0.0
O455 O 0.06245 0.55738 0.27533 0.0
O456 O 0.08343 0.61103 0.31682 0.0
C457 C 0.04556 0.55008 0.27777 0.0
H458 H 0.08044 0.51668 0.41165 0.0
H459 H 0.02382 0.66946 0.23981 0.0
H460 H 0.053 0.69953 0.38033 0.0
H461 H 1.01711 0.61538 0.40535 0.0
Co462 Co 0.72637 0.58502 0.46519 0.0
C463 C 0.72706 0.5226 0.42196 0.0
C464 C 0.70057 0.53695 0.43434 0.0
C465 C 0.70012 0.5048 0.41924 0.0
N466 N 0.71746 0.54875 0.43554 0.0
N467 N 0.71683 0.49552 0.41188 0.0
H468 H 0.74136 0.52171 0.4223 0.0
H469 H 0.68946 0.54851 0.44699 0.0
C470 C 0.69114 0.6171 0.44485 0.0
O471 O 0.69503 0.61117 0.41373 0.0
N472 N 0.73509 0.61945 0.49582 0.0
C473 C 0.75108 0.63524 0.49531 0.0
C474 C 0.75426 0.64938 0.52602 0.0
C475 C 0.72874 0.62423 0.52656 0.0
N476 N 0.74025 0.6421 0.54568 0.0
C477 C 0.74662 0.60244 0.40688 0.0
C478 C 0.73745 0.67218 0.4035 0.0
C479 C 0.75056 0.65987 0.38181 0.0
C480 C 0.75487 0.62426 0.38357 0.0
C481 C 0.7296 0.64948 0.42672 0.0
N482 N 0.73413 0.6149 0.42822 0.0
H483 H 0.75099 0.5758 0.40876 0.0
H484 H 0.72052 0.66024 0.44461 0.0
H485 H 0.76038 0.63404 0.47501 0.0
H486 H 0.71681 0.61166 0.53567 0.0
O487 O 0.74809 0.5588 0.47206 0.0
O488 O 0.72379 0.55195 0.50178 0.0
O489 O 0.70207 0.60817 0.46757 0.0
C490 C 0.7402 0.5431 0.49658 0.0
H491 H 0.68862 0.48789 0.41736 0.0
H492 H 0.7664 0.66206 0.53384 0.0
H493 H 0.73389 0.69955 0.40366 0.0
H494 H 0.76486 0.61335 0.36744 0.0
Co495 Co 0.05886 0.20105 0.4518 0.0
C496 C 0.0665 0.27295 0.42715 0.0
C497 C 0.05759 0.24066 0.38741 0.0
C498 C 0.05972 0.27426 0.37583 0.0
N499 N 0.06174 0.23956 0.41987 0.0
N500 N 0.06519 0.29471 0.40092 0.0
H501 H 0.07063 0.28152 0.45134 0.0
H502 H 0.05329 0.21885 0.37257 0.0
C503 C 0.09323 0.18343 0.41756 0.0
O504 O 0.08519 0.19152 0.38993 0.0
N505 N 0.05599 0.16436 0.4845 0.0
C506 C 0.0438 0.13841 0.48502 0.0
C507 C 0.04374 0.12319 0.51589 0.0
C508 C 0.06297 0.16477 0.5152 0.0
N509 N 0.05564 0.14015 0.53485 0.0
C510 C 0.03299 0.17652 0.40504 0.0
C511 C 0.04899 0.11453 0.38729 0.0
C512 C 0.03215 0.12191 0.37418 0.0
C513 C 0.02433 0.15369 0.3833 0.0
C514 C 0.05725 0.13819 0.40923 0.0
N515 N 0.04941 0.16922 0.41748 0.0
H516 H 0.02643 0.20047 0.4118 0.0
H517 H 0.06956 0.13064 0.42064 0.0
H518 H 0.03458 0.13254 0.46539 0.0
H519 H 0.07238 0.18417 0.52375 0.0
O520 O 0.03653 0.22101 0.46631 0.0
O521 O 0.06244 0.23445 0.48796 0.0
O522 O 0.08462 0.18546 0.44483 0.0
C523 C 0.04533 0.23887 0.48812 0.0
H524 H 0.05681 0.28307 0.35104 0.0
H525 H 0.03461 0.10329 0.52457 0.0
H526 H 0.05542 0.09001 0.38179 0.0
H527 H 1.01147 0.16099 0.37382 0.0
Co528 Co 0.80842 0.33378 0.70844 0.0
C529 C 0.81171 0.26591 0.67278 0.0
C530 C 0.82367 0.30827 0.6461 0.0
C531 C 0.82621 0.27788 0.62854 0.0
N532 N 0.81469 0.30073 0.674 0.0
N533 N 0.81873 0.25113 0.64539 0.0
H534 H 0.8045 0.25158 0.69142 0.0
H535 H 0.82831 0.33406 0.63922 0.0
C536 C 0.84739 0.34569 0.70649 0.0
O537 O 0.84888 0.31215 0.71272 0.0
N538 N 0.80237 0.36685 0.74252 0.0
C539 C 0.78856 0.38906 0.74339 0.0
C540 C 0.78836 0.40543 0.77367 0.0
C541 C 0.81021 0.36961 0.77228 0.0
N542 N 0.8019 0.3929 0.79172 0.0
C543 C 0.78262 0.3515 0.65905 0.0
C544 C 0.79498 0.41816 0.64526 0.0
C545 C 0.77959 0.40641 0.62913 0.0
C546 C 0.77352 0.37244 0.63627 0.0
C547 C 0.80356 0.39657 0.66825 0.0
N548 N 0.79733 0.36367 0.67501 0.0
H549 H 0.77774 0.32546 0.6642 0.0
H550 H 0.81489 0.40693 0.68126 0.0
H551 H 0.77884 0.39213 0.72405 0.0
H552 H 0.82137 0.35399 0.78002 0.0
O553 O 0.78803 0.30515 0.72194 0.0
O554 O 0.81492 0.30006 0.74248 0.0
O555 O 0.83198 0.35887 0.70277 0.0
C556 C 0.79842 0.28998 0.7432 0.0
H557 H 0.83344 0.27572 0.60556 0.0
H558 H 0.77844 0.42349 0.78251 0.0
H559 H 0.80004 0.4443 0.64096 0.0
H560 H 0.76182 0.36203 0.62427 0.0
Co561 Co 0.47614 0.95766 0.70879 0.0
C562 C 0.4712 0.02755 0.67562 0.0
C563 C 0.47166 0.98585 0.64058 0.0
C564 C 0.47065 1.01683 0.62372 0.0
N565 N 0.47191 0.99208 0.67339 0.0
N566 N 0.47061 0.04333 0.64559 0.0
H567 H 0.47191 0.04179 0.69858 0.0
H568 H 0.473 0.96067 0.62895 0.0
C569 C 0.44121 0.92817 0.68037 0.0
O570 O 0.44762 0.92936 0.65033 0.0
N571 N 0.48065 0.92435 0.74397 0.0
C572 C 0.49382 0.90065 0.74507 0.0
C573 C 0.49374 0.88475 0.77552 0.0
C574 C 0.47307 0.9232 0.77424 0.0
N575 N 0.48079 0.8991 0.79384 0.0
C576 C 0.5018 0.93458 0.66098 0.0
C577 C 0.48812 0.8685 0.64972 0.0
C578 C 0.50371 0.87837 0.63293 0.0
C579 C 0.51047 0.91205 0.639 0.0
C580 C 0.47989 0.89181 0.67175 0.0
N581 N 0.4865 0.92478 0.67667 0.0
H582 H 0.50732 0.96029 0.66522 0.0
H583 H 0.46851 0.88283 0.68561 0.0
H584 H 0.50346 0.89626 0.7258 0.0
H585 H 0.46258 0.94044 0.78219 0.0
O586 O 0.49758 0.98309 0.72205 0.0
O587 O 0.4708 0.99274 0.74184 0.0
O588 O 0.4509 0.93763 0.70484 0.0
C589 C 0.48761 1.00035 0.7426 0.0
H590 H 0.4704 1.01936 0.59713 0.0
H591 H 0.50318 0.86568 0.78429 0.0
H592 H 0.4826 0.84254 0.64668 0.0
H593 H 0.52237 0.92118 0.62668 0.0
Co594 Co 0.81156 0.95654 0.57072 0.0
C595 C 0.81653 0.02749 0.6012 0.0
C596 C 0.81853 0.98675 0.63716 0.0
C597 C 0.8199 1.01817 0.65304 0.0
N598 N 0.81651 0.99214 0.60442 0.0
N599 N 0.81842 0.04399 0.63061 0.0
H600 H 0.81443 0.04101 0.57813 0.0
H601 H 0.81807 0.96185 0.6496 0.0
C602 C 0.84737 0.929 0.59559 0.0
O603 O 0.84144 0.92859 0.62598 0.0
N604 N 0.80657 0.9219 0.53743 0.0
C605 C 0.79306 0.8987 0.53679 0.0
C606 C 0.79302 0.88225 0.50658 0.0
C607 C 0.81435 0.91972 0.50756 0.0
N608 N 0.80631 0.89576 0.48826 0.0
C609 C 0.78819 0.93421 0.6222 0.0
C610 C 0.80167 0.86804 0.63233 0.0
C611 C 0.78672 0.87835 0.65052 0.0
C612 C 0.78005 0.91197 0.64511 0.0
C613 C 0.80931 0.89104 0.60908 0.0
N614 N 0.80281 0.92407 0.6048 0.0
H615 H 0.78272 0.95992 0.61839 0.0
H616 H 0.8201 0.88188 0.59389 0.0
H617 H 0.78332 0.89527 0.55614 0.0
H618 H 0.82511 0.93653 0.49953 0.0
O619 O 0.78917 0.97911 0.56007 0.0
O620 O 0.8146 0.99113 0.53558 0.0
O621 O 0.83722 0.93895 0.57204 0.0
C622 C 0.79759 0.99651 0.53725 0.0
H623 H 0.82144 0.02148 0.67939 0.0
H624 H 0.78322 0.86367 0.49789 0.0
H625 H 0.80698 0.84198 0.63511 0.0
H626 H 0.76851 0.92104 0.65846 0.0
Co627 Co 0.48242 0.33442 0.56519 0.0
C628 C 0.47707 0.26585 0.59968 0.0
C629 C 0.46418 0.30794 0.62473 0.0
C630 C 0.46094 0.2774 0.64186 0.0
N631 N 0.47421 0.30074 0.5981 0.0
N632 N 0.46903 0.25078 0.62611 0.0
H633 H 0.48503 0.25172 0.58211 0.0
H634 H 0.45944 0.33365 0.63119 0.0
C635 C 0.44365 0.34778 0.56203 0.0
O636 O 0.44199 0.31454 0.55459 0.0
N637 N 0.49077 0.36771 0.53251 0.0
C638 C 0.5057 0.38709 0.53461 0.0
C639 C 0.50972 0.40023 0.50393 0.0
C640 C 0.48596 0.36929 0.50041 0.0
N641 N 0.49747 0.38858 0.4823 0.0
C642 C 0.50578 0.35108 0.61963 0.0
C643 C 0.49473 0.41931 0.62844 0.0
C644 C 0.50885 0.40723 0.64784 0.0
C645 C 0.5142 0.37235 0.64328 0.0
C646 C 0.48674 0.39732 0.60499 0.0
N647 N 0.49236 0.3637 0.60054 0.0
H648 H 0.51024 0.32454 0.61619 0.0
H649 H 0.47653 0.40807 0.58943 0.0
H650 H 0.514 0.38932 0.55623 0.0
H651 H 0.47527 0.35396 0.48996 0.0
O652 O 0.50283 0.30506 0.55406 0.0
O653 O 0.4767 0.30185 0.52994 0.0
O654 O 0.45907 0.36035 0.56793 0.0
C655 C 0.493 0.2911 0.53105 0.0
H656 H 0.45294 0.27511 0.66394 0.0
H657 H 0.5214 0.4154 0.49772 0.0
H658 H 0.49026 0.44606 0.63041 0.0
H659 H 0.52487 0.36149 0.65781 0.0
Co660 Co 0.23327 0.70514 0.30917 0.0
C661 C 0.22342 0.77437 0.33693 0.0
C662 C 0.21997 0.73363 0.3727 0.0
C663 C 0.21565 0.76515 0.38719 0.0
N664 N 0.22506 0.73948 0.3412 0.0
N665 N 0.21777 0.79061 0.3645 0.0
H666 H 0.22651 0.78811 0.31436 0.0
H667 H 0.21946 0.70827 0.38446 0.0
C668 C 0.19443 0.6918 0.30894 0.0
O669 O 0.19283 0.72531 0.30272 0.0
N670 N 0.24159 0.67128 0.2773 0.0
C671 C 0.25623 0.65144 0.27999 0.0
C672 C 0.26019 0.63763 0.24963 0.0
C673 C 0.2369 0.66927 0.24519 0.0
N674 N 0.24822 0.64933 0.22759 0.0
C675 C 0.25775 0.68948 0.3621 0.0
C676 C 0.24552 0.62255 0.37512 0.0
C677 C 0.26045 0.63459 0.39248 0.0
C678 C 0.26644 0.66876 0.38575 0.0
C679 C 0.23734 0.64388 0.35148 0.0
N680 N 0.24349 0.67693 0.34501 0.0
H681 H 0.26267 0.71553 0.35705 0.0
H682 H 0.22651 0.63296 0.33746 0.0
H683 H 0.26438 0.64916 0.30178 0.0
H684 H 0.22642 0.68465 0.23436 0.0
O685 O 0.25355 0.73506 0.29737 0.0
O686 O 0.22745 0.73678 0.27311 0.0
O687 O 0.2099 0.6789 0.31283 0.0
C688 C 0.24366 0.74849 0.2743 0.0
H689 H 0.21115 0.76898 0.41231 0.0
H690 H 0.27164 0.62185 0.24394 0.0
H691 H 0.24054 0.59625 0.37884 0.0
H692 H 0.2778 0.67947 0.39862 0.0
Co693 Co 0.56379 0.08859 0.31533 0.0
C694 C 0.57082 1.01744 0.34201 0.0
C695 C 0.56715 0.05384 0.38144 0.0
C696 C 0.56872 0.02095 0.39474 0.0
N697 N 0.56828 0.05189 0.34813 0.0
N698 N 0.5709 0.99809 0.3699 0.0
H699 H 0.5717 1.00617 0.31763 0.0
H700 H 0.56517 0.07731 0.39566 0.0
C701 C 0.60024 0.1094 0.34162 0.0
O702 O 0.59463 0.10295 0.37168 0.0
N703 N 0.55925 0.12401 0.28242 0.0
C704 C 0.54686 0.14929 0.28304 0.0
C705 C 0.54626 0.16503 0.25245 0.0
C706 C 0.56582 0.12442 0.25145 0.0
N707 N 0.55807 0.14906 0.23268 0.0
C708 C 0.54045 0.11376 0.36655 0.0
C709 C 0.55826 0.17521 0.38059 0.0
C710 C 0.5429 0.16724 0.39896 0.0
C711 C 0.53391 0.13606 0.3912 0.0
C712 C 0.56435 0.1522 0.35606 0.0
N713 N 0.55586 0.12117 0.35006 0.0
H714 H 0.53334 0.08983 0.36132 0.0
H715 H 0.57567 0.15991 0.34142 0.0
H716 H 0.53807 0.1546 0.3035 0.0
H717 H 0.57538 0.10584 0.24225 0.0
O718 O 0.54107 0.06662 0.30449 0.0
O719 O 0.56627 0.05435 0.27975 0.0
O720 O 0.58963 0.10538 0.31716 0.0
C721 C 0.54927 0.04879 0.28182 0.0
H722 H 0.56801 1.01432 0.42069 0.0
H723 H 0.53697 0.18482 0.24461 0.0
H724 H 0.56537 0.19947 0.38461 0.0
H725 H 0.52202 0.12847 0.40445 0.0
Co726 Co 0.22899 0.08567 0.45539 0.0
C727 C 0.22047 1.01363 0.43236 0.0
C728 C 0.22445 0.04776 0.39115 0.0
C729 C 0.22189 1.01438 0.37952 0.0
N730 N 0.22368 0.04753 0.4245 0.0
N731 N 0.21951 0.99278 0.40547 0.0
H732 H 0.21915 1.00404 0.45732 0.0
H733 H 0.22698 0.07032 0.37582 0.0
C734 C 0.19299 0.1077 0.42843 0.0
O735 O 0.19866 0.10102 0.39849 0.0
N736 N 0.23425 0.12244 0.48656 0.0
C737 C 0.24753 0.14619 0.48534 0.0
C738 C 0.24865 0.16265 0.51551 0.0
C739 C 0.22766 0.12451 0.51743 0.0
N740 N 0.23628 0.14863 0.5356 0.0
C741 C 0.25293 0.1062 0.40397 0.0
C742 C 0.23842 0.17045 0.38914 0.0
C743 C 0.25429 0.16082 0.37345 0.0
C744 C 0.26139 0.12802 0.38106 0.0
C745 C 0.23042 0.14788 0.41238 0.0
N746 N 0.23756 0.11588 0.41928 0.0
H747 H 0.25885 0.08127 0.40958 0.0
H748 H 0.21897 0.15693 0.42583 0.0
H749 H 0.25661 0.14964 0.46492 0.0
H750 H 0.21757 0.1071 0.52713 0.0
O751 O 0.2514 0.06365 0.46661 0.0
O752 O 0.22626 0.0534 0.49268 0.0
O753 O 0.20343 0.10345 0.45306 0.0
C754 C 0.2432 0.04739 0.49036 0.0
H755 H 0.22252 1.00655 0.35389 0.0
H756 H 0.25871 0.18129 0.52298 0.0
H757 H 0.23264 0.19583 0.38459 0.0
H758 H 0.27353 0.11926 0.36952 0.0
Co759 Co 0.55347 0.70408 0.45957 0.0
C760 C 0.55569 0.77658 0.43313 0.0
C761 C 0.56303 0.73871 0.39681 0.0
C762 C 0.56477 0.7716 0.38315 0.0
N763 N 0.55717 0.74183 0.42811 0.0
N764 N 0.56012 0.79542 0.40609 0.0
H765 H 0.55198 0.78815 0.45637 0.0
H766 H 0.56605 0.71423 0.38479 0.0
C767 C 0.59249 0.69385 0.46721 0.0
O768 O 0.59147 0.71414 0.49324 0.0
N769 N 0.5501 0.66668 0.49108 0.0
C770 C 0.53727 0.64199 0.49141 0.0
C771 C 0.5375 0.62531 0.52161 0.0
C772 C 0.55779 0.66488 0.52102 0.0
N773 N 0.55028 0.64012 0.54023 0.0
C774 C 0.5289 0.68402 0.40887 0.0
C775 C 0.5442 0.62094 0.3922 0.0
C776 C 0.52817 0.63017 0.37687 0.0
C777 C 0.52069 0.66249 0.38537 0.0
C778 C 0.55195 0.64317 0.41584 0.0
N779 N 0.54421 0.6742 0.42413 0.0
H780 H 0.52281 0.70861 0.41519 0.0
H781 H 0.56384 0.63472 0.42828 0.0
H782 H 0.5276 0.63797 0.4721 0.0
H783 H 0.56788 0.68288 0.52947 0.0
O784 O 0.53128 0.72447 0.47451 0.0
O785 O 0.55721 0.7367 0.49651 0.0
O786 O 0.57851 0.68738 0.45037 0.0
C787 C 0.54009 0.74121 0.49708 0.0
H788 H 0.5691 0.77735 0.35825 0.0
H789 H 0.52809 0.60584 0.53015 0.0
H790 H 0.55042 0.59615 0.38684 0.0
H791 H 0.50851 0.67115 0.37397 0.0
Co792 Co 0.80383 0.83707 0.21413 0.0
C793 C 0.81006 0.7655 0.18868 0.0
C794 C 0.79891 0.79749 0.15073 0.0
C795 C 0.80048 0.76406 0.13883 0.0
N796 N 0.80476 0.79858 0.1823 0.0
N797 N 0.80738 0.74394 0.16278 0.0
H798 H 0.81534 0.75693 0.21211 0.0
H799 H 0.7942 0.81926 0.13643 0.0
C800 C 0.8384 0.84916 0.17815 0.0
O801 O 0.83012 0.83949 0.15119 0.0
N802 N 0.80286 0.87428 0.24623 0.0
C803 C 0.79177 0.9018 0.247 0.0
C804 C 0.79382 0.91881 0.27669 0.0
C805 C 0.81134 0.87476 0.27548 0.0
N806 N 0.80598 0.90152 0.29459 0.0
C807 C 0.77792 0.8651 0.16991 0.0
C808 C 0.79701 0.92203 0.14709 0.0
C809 C 0.77961 0.91708 0.13564 0.0
C810 C 0.77011 0.88807 0.14747 0.0
C811 C 0.80435 0.89838 0.16985 0.0
N812 N 0.79502 0.86958 0.18025 0.0
H813 H 0.77022 0.84302 0.17845 0.0
H814 H 0.81725 0.90418 0.17991 0.0
H815 H 0.78206 0.90799 0.22834 0.0
H816 H 0.82052 0.85481 0.28339 0.0
O817 O 0.78115 0.81958 0.23023 0.0
O818 O 0.80691 0.80337 0.25029 0.0
O819 O 0.82987 0.84978 0.20555 0.0
C820 C 0.7897 0.80063 0.25143 0.0
H821 H 0.797 0.75534 0.11425 0.0
H822 H 0.78596 0.94049 0.28549 0.0
H823 H 0.80467 0.94465 0.13946 0.0
H824 H 0.75668 0.88295 0.13936 0.0
Co825 Co 0.48059 0.45258 0.20474 0.0
C826 C 0.47764 0.52232 0.17194 0.0
C827 C 0.46466 0.48194 0.14429 0.0
C828 C 0.46278 0.51319 0.12765 0.0
N829 N 0.47397 0.48763 0.17214 0.0
N830 N 0.47094 0.53863 0.14511 0.0
H831 H 0.48531 0.53551 0.19065 0.0
H832 H 0.45957 0.45676 0.1366 0.0
C833 C 0.44119 0.44228 0.20648 0.0
O834 O 0.43997 0.47549 0.21423 0.0
N835 N 0.4871 0.41809 0.23723 0.0
C836 C 0.50221 0.39955 0.23801 0.0
C837 C 0.50393 0.38487 0.26887 0.0
C838 C 0.47981 0.41441 0.26746 0.0
N839 N 0.48993 0.39456 0.28745 0.0
C840 C 0.50409 0.43511 0.15142 0.0
C841 C 0.49239 0.36726 0.1417 0.0
C842 C 0.5072 0.37902 0.12362 0.0
C843 C 0.51284 0.41368 0.12857 0.0
C844 C 0.48412 0.38944 0.16466 0.0
N845 N 0.49009 0.42286 0.16952 0.0
H846 H 0.50883 0.46151 0.15518 0.0
H847 H 0.47336 0.37914 0.17942 0.0
H848 H 0.51196 0.39889 0.21844 0.0
H849 H 0.46827 0.42872 0.27559 0.0
O850 O 0.50196 0.47854 0.21574 0.0
O851 O 0.47626 0.48583 0.2407 0.0
O852 O 0.45646 0.42912 0.2009 0.0
C853 C 0.49305 0.49392 0.23902 0.0
H854 H 0.45573 0.51687 0.10468 0.0
H855 H 0.51515 0.36998 0.27754 0.0
H856 H 0.48764 0.34067 0.13911 0.0
H857 H 0.52403 0.4242 0.115 0.0
Co858 Co 0.81331 0.45422 0.0658 0.0
C859 C 0.8093 0.51719 0.10815 0.0
C860 C 0.83645 0.50362 0.10077 0.0
C861 C 0.83589 0.53544 0.11621 0.0
N862 N 0.81979 0.49138 0.09646 0.0
N863 N 0.81881 0.54422 0.12056 0.0
H864 H 0.7951 0.51781 0.10491 0.0
H865 H 0.84826 0.49232 0.09028 0.0
C866 C 0.84488 0.42438 0.10055 0.0
O867 O 0.83654 0.43264 0.12795 0.0
N868 N 0.80716 0.41869 0.03394 0.0
C869 C 0.79243 0.39852 0.03341 0.0
C870 C 0.79169 0.38125 1.00365 0.0
C871 C 0.8149 0.41409 1.00427 0.0
N872 N 0.80574 0.39133 0.98542 0.0
C873 C 0.78863 0.4382 0.11914 0.0
C874 C 0.79874 0.36948 0.12804 0.0
C875 C 0.78474 0.38227 0.14732 0.0
C876 C 0.77973 0.41724 0.14246 0.0
C877 C 0.80717 0.39116 0.10484 0.0
N878 N 0.80242 0.42544 0.10097 0.0
H879 H 0.784 0.46439 0.11504 0.0
H880 H 0.81725 0.37993 0.08921 0.0
H881 H 0.78231 0.39809 0.05233 0.0
H882 H 0.82634 0.42879 0.9958 0.0
O883 O 0.79264 0.48085 0.05145 0.0
O884 O 0.81939 0.48608 0.02987 0.0
O885 O 0.83753 0.43104 0.07266 0.0
C886 C 0.8029 0.496 0.02978 0.0
H887 H 0.84715 0.55247 0.12055 0.0
H888 H 0.78091 0.3649 0.99498 0.0
H889 H 0.8028 0.34246 0.13 0.0
H890 H 0.76892 0.42839 0.15647 0.0
Co891 Co 0.48408 0.83246 0.07035 0.0
C892 C 0.48224 0.76169 0.10244 0.0
C893 C 0.47389 0.80296 0.13456 0.0
C894 C 0.47215 0.77169 0.1511 0.0
N895 N 0.48031 0.79686 0.10407 0.0
N896 N 0.47738 0.74568 0.13091 0.0
H897 H 0.48708 0.74788 0.08105 0.0
H898 H 0.4704 0.82845 0.14398 0.0
C899 C 0.44557 0.84594 0.06488 0.0
O900 O 0.44593 0.82472 0.03948 0.0
N901 N 0.48754 0.868 0.03657 0.0
C902 C 0.49999 0.89344 0.03579 0.0
C903 C 0.49903 0.9106 1.00593 0.0
C904 C 0.47947 0.86962 1.00683 0.0
N905 N 0.48621 0.8954 0.98771 0.0
C906 C 0.5105 0.85335 0.11821 0.0
C907 C 0.49589 0.91722 0.13461 0.0
C908 C 0.51198 0.90785 0.14956 0.0
C909 C 0.51916 0.87515 0.14109 0.0
C910 C 0.4877 0.89476 0.11173 0.0
N911 N 0.49503 0.86326 0.10359 0.0
H912 H 0.51628 0.82841 0.11203 0.0
H913 H 0.47572 0.90344 0.09979 0.0
H914 H 0.5097 0.89832 0.05483 0.0
H915 H 0.46932 0.85153 0.99874 0.0
O916 O 0.50502 0.80799 0.05336 0.0
O917 O 0.4777 0.79916 0.03621 0.0
O918 O 0.45984 0.85214 0.08092 0.0
C919 C 0.49439 0.79189 0.03304 0.0
H920 H 0.46698 0.76836 0.17584 0.0
H921 H 0.50779 0.93125 0.99748 0.0
H922 H 0.4899 0.94228 0.13971 0.0
H923 H 0.5314 0.8663 0.15213 0.0
Co924 Co 0.23298 0.20051 0.81051 0.0
C925 C 0.22563 0.27172 0.83617 0.0
C926 C 0.22306 0.23343 0.87454 0.0
C927 C 0.22028 0.26609 0.888 0.0
N928 N 0.22678 0.23699 0.84206 0.0
N929 N 0.22186 0.28993 0.8637 0.0
H930 H 0.22764 0.28394 0.8124 0.0
H931 H 0.22239 0.20889 0.88773 0.0
C932 C 0.19329 0.19409 0.80993 0.0
O933 O 0.19235 0.2279 0.80471 0.0
N934 N 0.23885 0.16489 0.77881 0.0
C935 C 0.25244 0.14217 0.77931 0.0
C936 C 0.2533 0.12578 0.749 0.0
C937 C 0.23174 0.16223 0.74846 0.0
N938 N 0.24038 0.13882 0.7297 0.0
C939 C 0.25516 0.18009 0.86534 0.0
C940 C 0.23879 0.11659 0.87793 0.0
C941 C 0.25308 0.12665 0.89805 0.0
C942 C 0.26135 0.1589 0.89121 0.0
C943 C 0.23306 0.13841 0.85228 0.0
N944 N 0.24102 0.17004 0.84651 0.0
H945 H 0.26158 0.20492 0.86067 0.0
H946 H 0.22242 0.12929 0.83669 0.0
H947 H 0.26171 0.1392 0.79943 0.0
H948 H 0.22109 0.17858 0.73962 0.0
O949 O 0.25512 0.22439 0.80006 0.0
O950 O 0.22993 0.23337 0.77388 0.0
O951 O 0.20837 0.17968 0.81359 0.0
C952 C 0.2468 0.24036 0.77635 0.0
H953 H 0.21705 0.27186 0.91346 0.0
H954 H 0.26341 0.10771 0.74096 0.0
H955 H 0.23225 0.09162 0.88148 0.0
H956 H 0.27237 0.16801 0.90601 0.0
Co957 Co 0.56019 0.586 0.81549 0.0
C958 C 0.56191 0.5131 0.84018 0.0
C959 C 0.56284 0.54934 0.88036 0.0
C960 C 0.56311 0.51584 0.89306 0.0
N961 N 0.56174 0.54764 0.84709 0.0
N962 N 0.56257 0.49329 0.86761 0.0
H963 H 0.56154 0.50213 0.81564 0.0
H964 H 0.5636 0.57311 0.89466 0.0
C965 C 0.59937 0.59563 0.80666 0.0
O966 O 0.59767 0.58139 0.77737 0.0
N967 N 0.55864 0.62385 0.78363 0.0
C968 C 0.54869 0.65301 0.78558 0.0
C969 C 0.54858 0.66929 0.75524 0.0
C970 C 0.56419 0.6227 0.75194 0.0
N971 N 0.55817 0.6499 0.73412 0.0
C972 C 0.53618 0.61227 0.86537 0.0
C973 C 0.55696 0.66803 0.88554 0.0
C974 C 0.5406 0.66261 0.90143 0.0
C975 C 0.53013 0.63426 0.89075 0.0
C976 C 0.56252 0.6455 0.86038 0.0
N977 N 0.5523 0.61768 0.85074 0.0
H978 H 0.52802 0.59042 0.85779 0.0
H979 H 0.57489 0.65128 0.84812 0.0
H980 H 0.54088 0.66081 0.80666 0.0
H981 H 0.57153 0.60128 0.74137 0.0
O982 O 0.53735 0.5685 0.79992 0.0
O983 O 0.56308 0.55277 0.77912 0.0
O984 O 0.58579 0.59849 0.82539 0.0
C985 C 0.54588 0.54994 0.77825 0.0
H986 H 0.56414 0.50862 0.91883 0.0
H987 H 0.54086 0.69197 0.74855 0.0
H988 H 0.56534 0.69 0.89202 0.0
H989 H 0.51747 0.62867 0.90224 0.0
Co990 Co 0.22752 0.58277 0.95396 0.0
C991 C 0.22799 0.51741 0.91454 0.0
C992 C 0.20165 0.53689 0.91942 0.0
C993 C 0.20078 0.50428 0.90537 0.0
N994 N 0.21877 0.5458 0.9247 0.0
N995 N 0.21733 0.49183 0.90276 0.0
H996 H 0.24208 0.51414 0.91807 0.0
H997 H 0.19025 0.55064 0.92855 0.0
C998 C 0.1924 0.61688 0.9348 0.0
O999 O 0.19636 0.61422 0.90331 0.0
N1000 N 0.23601 0.61789 0.98407 0.0
C1001 C 0.25195 0.63389 0.98371 0.0
C1002 C 0.25457 0.6496 0.0139 0.0
C1003 C 0.22915 0.62403 0.01419 0.0
N1004 N 0.24028 0.64307 0.03308 0.0
C1005 C 0.24671 0.59872 0.8943 0.0
C1006 C 0.23927 0.66938 0.89238 0.0
C1007 C 0.25176 0.65617 0.86992 0.0
C1008 C 0.25517 0.62013 0.87087 0.0
C1009 C 0.23123 0.64711 0.91569 0.0
N1010 N 0.23499 0.61216 0.91658 0.0
H1011 H 0.25028 0.5715 0.89553 0.0
H1012 H 0.22263 0.6584 0.93413 0.0
H1013 H 0.26152 0.63199 0.9639 0.0
H1014 H 0.21712 0.61174 0.02318 0.0
O1015 O 0.24949 0.55752 0.96093 0.0
O1016 O 0.22528 0.5503 0.99095 0.0
O1017 O 0.20311 0.60521 0.95671 0.0
C1018 C 0.24177 0.54201 0.98575 0.0
H1019 H 0.18881 0.48929 0.90098 0.0
H1020 H 0.26653 0.66286 0.02182 0.0
H1021 H 0.23638 0.69705 0.89309 0.0
H1022 H 0.26463 0.60856 0.85403 0.0
Co1023 Co 0.56002 0.20067 0.95803 0.0
C1024 C 0.55575 0.26498 0.91708 0.0
C1025 C 0.58292 0.25116 0.92361 0.0
C1026 C 0.58236 0.28312 0.90857 0.0
N1027 N 0.56627 0.23875 0.92799 0.0
N1028 N 0.5653 0.29207 0.9048 0.0
H1029 H 0.54156 0.26575 0.92064 0.0
H1030 H 0.59479 0.24017 0.93405 0.0
C1031 C 0.59295 0.17344 0.92629 0.0
O1032 O 0.58485 0.18044 0.89836 0.0
N1033 N 0.55428 0.16456 0.98957 0.0
C1034 C 0.5397 0.14404 0.99068 0.0
C1035 C 0.5391 0.12757 0.02098 0.0
C1036 C 0.56213 0.16083 0.01918 0.0
N1037 N 0.55312 0.13854 0.03884 0.0
C1038 C 0.53915 0.18236 0.89997 0.0
C1039 C 0.55045 0.11388 0.89551 0.0
C1040 C 0.5382 0.12589 0.87211 0.0
C1041 C 0.53241 0.16062 0.87489 0.0
C1042 C 0.55665 0.13622 0.92036 0.0
N1043 N 0.55143 0.1704 0.92198 0.0
H1044 H 0.53429 0.2087 0.90191 0.0
H1045 H 0.56575 0.1259 0.93846 0.0
H1046 H 0.52959 0.14298 0.97181 0.0
H1047 H 0.57348 0.17608 0.02704 0.0
O1048 O 0.53791 0.2235 0.96916 0.0
O1049 O 0.56322 0.23361 0.99469 0.0
O1050 O 0.58516 0.18058 0.95372 0.0
C1051 C 0.54632 0.2402 0.99233 0.0
H1052 H 0.59359 0.30029 0.90438 0.0
H1053 H 0.52843 0.11123 0.03021 0.0
H1054 H 0.555 0.0871 0.89505 0.0
H1055 H 0.52286 0.17107 0.85762 0.0
H1056 H 0.31794 0.3876 0.32704 0.0
H1057 H 0.26117 0.3981 0.31969 0.0
H1058 H 0.25867 0.39906 0.3795 0.0
H1059 H 0.27243 0.39682 0.43401 0.0
H1060 H 0.32905 0.38669 0.44254 0.0
H1061 H 0.33182 0.38522 0.38221 0.0
C1062 C 0.30504 0.39 0.33856 0.0
C1063 C 0.28981 0.393 0.31874 0.0
C1064 C 0.30365 0.39029 0.37319 0.0
C1065 C 0.27318 0.39644 0.33412 0.0
C1066 C 0.27169 0.39663 0.36843 0.0
C1067 C 0.28534 0.3937 0.42269 0.0
C1068 C 0.3005 0.39141 0.44264 0.0
C1069 C 0.28681 0.39344 0.38818 0.0
C1070 C 0.31721 0.38841 0.42759 0.0
C1071 C 0.31878 0.38762 0.39317 0.0
H1072 H 0.96245 0.88642 0.43965 0.0
H1073 H 1.01898 0.90248 0.44561 0.0
H1074 H 0.02148 0.89837 0.38592 0.0
H1075 H 1.00774 0.89076 0.33195 0.0
H1076 H 0.95128 0.8767 0.32433 0.0
H1077 H 0.94853 0.87893 0.38475 0.0
C1078 C 0.97526 0.88904 0.42774 0.0
C1079 C 0.99044 0.89517 0.447 0.0
C1080 C 0.97663 0.88659 0.39322 0.0
C1081 C 1.00702 0.89859 0.43137 0.0
C1082 C 1.00851 0.89585 0.39723 0.0
C1083 C 0.9949 0.8875 0.3436 0.0
C1084 C 0.97976 0.88293 0.32402 0.0
C1085 C 0.99344 0.8898 0.37796 0.0
C1086 C 0.96309 0.87991 0.3392 0.0
C1087 C 0.96154 0.88134 0.37359 0.0
H1088 H 0.3023 0.84951 0.83386 0.0
H1089 H 0.31161 0.95941 0.81885 0.0
H1090 H 0.3129 0.96862 0.87876 0.0
H1091 H 0.30972 0.94564 0.93527 0.0
H1092 H 0.29763 0.83674 0.95033 0.0
H1093 H 0.29905 0.8265 0.89056 0.0
C1094 C 0.3049 0.87529 0.84389 0.0
C1095 C 0.30711 0.90376 0.8223 0.0
C1096 C 0.30497 0.88044 0.87823 0.0
C1097 C 0.30999 0.93726 0.83526 0.0
C1098 C 0.31069 0.94245 0.86938 0.0
C1099 C 0.30766 0.91962 0.92537 0.0
C1100 C 0.30377 0.89183 0.94694 0.0
C1101 C 0.30798 0.9143 0.89108 0.0
C1102 C 0.30067 0.85837 0.93399 0.0
C1103 C 0.3015 0.85259 0.89994 0.0
H1104 H 0.98946 0.43695 0.93845 0.0
H1105 H 0.98821 0.32504 0.9487 0.0
H1106 H 0.98884 0.31817 0.88864 0.0
H1107 H 0.99006 0.3444 0.83289 0.0
H1108 H 0.98956 0.4563 0.82265 0.0
H1109 H 0.98929 0.46317 0.88273 0.0
C1110 C 0.98925 0.41122 0.92728 0.0
C1111 C 0.98869 0.3816 0.94755 0.0
C1112 C 0.98931 0.40756 0.89281 0.0
C1113 C 0.98839 0.34817 0.93326 0.0
C1114 C 0.98885 0.34425 0.89903 0.0
C1115 C 0.98983 0.37011 0.84408 0.0
C1116 C 0.98975 0.39976 0.82383 0.0
C1117 C 0.98933 0.37376 0.87855 0.0
C1118 C 0.98942 0.43318 0.83811 0.0
C1119 C 0.98934 0.43709 0.87233 0.0
H1120 H 0.72332 0.64999 0.69712 0.0
H1121 H 0.7801 0.63796 0.70248 0.0
H1122 H 0.78186 0.63607 0.64258 0.0
H1123 H 0.76745 0.63857 0.58847 0.0
H1124 H 0.71086 0.6517 0.58252 0.0
H1125 H 0.70889 0.65311 0.64284 0.0
C1126 C 0.7361 0.64715 0.68524 0.0
C1127 C 0.75152 0.64411 0.70455 0.0
C1128 C 0.73709 0.64665 0.6506 0.0
C1129 C 0.76793 0.63983 0.68854 0.0
C1130 C 0.76901 0.63911 0.65414 0.0
C1131 C 0.75473 0.64232 0.60035 0.0
C1132 C 0.73933 0.64536 0.58106 0.0
C1133 C 0.7537 0.64276 0.63494 0.0
C1134 C 0.72288 0.64928 0.59688 0.0
C1135 C 0.72176 0.65005 0.63132 0.0
H1136 H 0.0569 0.10373 0.68573 0.0
H1137 H 0.04953 0.21488 0.69338 0.0
H1138 H 0.05163 0.22055 0.63308 0.0
H1139 H 0.05436 0.19316 0.57808 0.0
H1140 H 0.05917 0.08144 0.57059 0.0
H1141 H 0.05944 0.0764 0.631 0.0
C1142 C 0.05603 0.12922 0.67414 0.0
C1143 C 0.05331 0.15898 0.69381 0.0
C1144 C 0.05676 0.132 0.63958 0.0
C1145 C 0.05168 0.19175 0.67858 0.0
C1146 C 0.0529 0.19493 0.64422 0.0
C1147 C 0.05575 0.16785 0.58983 0.0
C1148 C 0.05701 0.13768 0.57017 0.0
C1149 C 0.0553 0.16518 0.62445 0.0
C1150 C 0.0583 0.10489 0.58543 0.0
C1151 C 0.05842 0.10206 0.61985 0.0
H1152 H 0.73886 0.19309 0.18793 0.0
H1153 H 0.73005 0.08263 0.20029 0.0
H1154 H 0.72911 0.07494 0.14022 0.0
H1155 H 0.73224 0.09941 0.08435 0.0
H1156 H 0.74349 0.20901 0.07171 0.0
H1157 H 0.74209 0.21762 0.13173 0.0
C1158 C 0.73645 0.16751 0.17732 0.0
C1159 C 0.73429 0.13846 0.19826 0.0
C1160 C 0.73651 0.16325 0.14284 0.0
C1161 C 0.73165 0.10524 0.18445 0.0
C1162 C 0.73115 0.10091 0.15022 0.0
C1163 C 0.73411 0.12523 0.0948 0.0
C1164 C 0.73774 0.15369 0.07381 0.0
C1165 C 0.73374 0.12966 0.12919 0.0
C1166 C 0.74065 0.18686 0.08755 0.0
C1167 C 0.73982 0.19172 0.12176 0.0
H1168 H 0.02476 0.63867 0.18624 0.0
H1169 H 0.08018 0.66268 0.19806 0.0
H1170 H 0.08407 0.66344 0.13785 0.0
H1171 H 0.0715 0.65646 0.08175 0.0
H1172 H 1.01608 0.63069 0.07122 0.0
H1173 H 1.0124 0.63103 0.13088 0.0
C1174 C 0.03762 0.64461 0.17559 0.0
C1175 C 0.05212 0.65119 0.19642 0.0
C1176 C 0.03978 0.64419 0.14118 0.0
C1177 C 0.06884 0.65778 0.18237 0.0
C1178 C 0.07104 0.65812 0.14803 0.0
C1179 C 0.05865 0.65094 0.0926 0.0
C1180 C 0.04415 0.6433 0.07194 0.0
C1181 C 0.0566 0.65119 0.12716 0.0
C1182 C 0.02757 0.63596 0.08639 0.0
C1183 C 0.02539 0.63649 0.12058 0.0
H1184 H 0.80754 0.44087 0.93911 0.0
H1185 H 0.80736 0.32963 0.95426 0.0
H1186 H 0.80787 0.32 0.89432 0.0
H1187 H 0.80633 0.34366 0.83777 0.0
H1188 H 0.80323 0.45479 0.82287 0.0
H1189 H 0.80609 0.46454 0.88252 0.0
C1190 C 0.80795 0.41463 0.92907 0.0
C1191 C 0.8077 0.3859 0.95063 0.0
C1192 C 0.80751 0.40949 0.89478 0.0
C1193 C 0.80771 0.35192 0.93778 0.0
C1194 C 0.80794 0.34652 0.90367 0.0
C1195 C 0.80658 0.36995 0.84772 0.0
C1196 C 0.80478 0.39857 0.82629 0.0
C1197 C 0.80758 0.37512 0.88196 0.0
C1198 C 0.80465 0.43255 0.83918 0.0
C1199 C 0.80628 0.43804 0.87314 0.0
H1200 H 0.47998 0.84766 0.94047 0.0
H1201 H 0.48481 0.95826 0.95781 0.0
H1202 H 0.48137 0.96981 0.89863 0.0
H1203 H 0.47942 0.94786 0.84134 0.0
H1204 H 0.47726 0.83706 0.824 0.0
H1205 H 0.47693 0.82589 0.88361 0.0
C1206 C 0.47993 0.87428 0.93129 0.0
C1207 C 0.48256 0.90212 0.95339 0.0
C1208 C 0.47846 0.88056 0.89719 0.0
C1209 C 0.48286 0.93648 0.94116 0.0
C1210 C 0.48089 0.94305 0.90738 0.0
C1211 C 0.47847 0.9214 0.8508 0.0
C1212 C 0.47816 0.89326 0.82857 0.0
C1213 C 0.479 0.91525 0.88507 0.0
C1214 C 0.4774 0.85898 0.84087 0.0
C1215 C 0.47729 0.85266 0.87485 0.0
H1216 H 0.8117 0.94564 0.44285 0.0
H1217 H 0.80588 0.83452 0.45591 0.0
H1218 H 0.80718 0.82596 0.39598 0.0
H1219 H 0.80754 0.85077 0.34003 0.0
H1220 H 0.81082 0.96226 0.32682 0.0
H1221 H 0.81307 0.97035 0.38674 0.0
C1222 C 0.81109 0.91956 0.43247 0.0
C1223 C 0.80885 0.89065 0.45349 0.0
C1224 C 0.81127 0.91509 0.3981 0.0
C1225 C 0.80762 0.85701 0.43996 0.0
C1226 C 0.80834 0.85218 0.40583 0.0
C1227 C 0.80915 0.87672 0.35032 0.0
C1228 C 0.8092 0.90592 0.32927 0.0
C1229 C 0.80985 0.88109 0.38466 0.0
C1230 C 0.81079 0.93953 0.34277 0.0
C1231 C 0.81205 0.94409 0.37691 0.0
H1232 H 0.51637 0.39365 0.33169 0.0
H1233 H 0.45953 0.3894 0.32271 0.0
H1234 H 0.45662 0.38713 0.38302 0.0
H1235 H 0.47049 0.38729 0.43847 0.0
H1236 H 0.52749 0.39212 0.44592 0.0
H1237 H 0.53008 0.39335 0.38614 0.0
C1238 C 0.50335 0.39163 0.34286 0.0
C1239 C 0.48819 0.39128 0.32277 0.0
C1240 C 0.50181 0.39084 0.37735 0.0
C1241 C 0.47139 0.38969 0.33772 0.0
C1242 C 0.46974 0.38839 0.37215 0.0
C1243 C 0.48344 0.38852 0.42693 0.0
C1244 C 0.49873 0.39 0.44677 0.0
C1245 C 0.48488 0.38914 0.39226 0.0
C1246 C 0.51546 0.39175 0.43143 0.0
C1247 C 0.51699 0.39212 0.39715 0.0
H1248 H 0.22145 0.65433 0.18366 0.0
H1249 H 0.27802 0.64029 0.19127 0.0
H1250 H 0.28054 0.63854 0.13153 0.0
H1251 H 0.26684 0.64049 0.077 0.0
H1252 H 0.21044 0.65455 0.06824 0.0
H1253 H 0.2077 0.65736 0.12848 0.0
C1254 C 0.23432 0.65105 0.17222 0.0
C1255 C 0.24946 0.64715 0.19211 0.0
C1256 C 0.23574 0.65037 0.13762 0.0
C1257 C 0.26605 0.6426 0.17681 0.0
C1258 C 0.26756 0.64197 0.14253 0.0
C1259 C 0.254 0.64482 0.08823 0.0
C1260 C 0.23888 0.64766 0.06825 0.0
C1261 C 0.25252 0.64587 0.12271 0.0
C1262 C 0.22225 0.65231 0.08321 0.0
C1263 C 0.22069 0.65386 0.11759 0.0
H1264 H 0.5588 0.18938 0.08283 0.0
H1265 H 0.55181 0.07823 0.07291 0.0
H1266 H 0.55419 0.0711 0.13303 0.0
H1267 H 0.55691 0.09724 0.18844 0.0
H1268 H 0.56112 0.20892 0.19842 0.0
H1269 H 0.56129 0.21552 0.13813 0.0
C1270 C 0.55808 0.16362 0.09394 0.0
C1271 C 0.5554 0.13423 0.07377 0.0
C1272 C 0.5589 0.16003 0.12837 0.0
C1273 C 0.55396 0.10103 0.08822 0.0
C1274 C 0.55531 0.09704 0.12243 0.0
C1275 C 0.55814 0.12289 0.17724 0.0
C1276 C 0.55925 0.1526 0.19749 0.0
C1277 C 0.55763 0.12641 0.14276 0.0
C1278 C 0.56035 0.18585 0.18303 0.0
C1279 C 0.56042 0.18954 0.14872 0.0
H1280 H 0.23648 0.09706 0.58023 0.0
H1281 H 0.23501 0.20888 0.56938 0.0
H1282 H 0.23512 0.21584 0.62964 0.0
H1283 H 0.23671 0.18982 0.68511 0.0
H1284 H 0.24077 0.07826 0.69597 0.0
H1285 H 0.2386 0.07104 0.63585 0.0
C1286 C 0.23594 0.12284 0.59125 0.0
C1287 C 0.23547 0.1525 0.57078 0.0
C1288 C 0.23657 0.1265 0.62569 0.0
C1289 C 0.23526 0.18587 0.58496 0.0
C1290 C 0.23534 0.18976 0.61925 0.0
C1291 C 0.23689 0.16396 0.67421 0.0
C1292 C 0.23865 0.1345 0.69466 0.0
C1293 C 0.23612 0.16026 0.63981 0.0
C1294 C 0.23936 0.10114 0.68047 0.0
C1295 C 0.2381 0.09709 0.64624 0.0
H1296 H 0.55658 0.6908 0.58448 0.0
H1297 H 0.54899 0.57968 0.57442 0.0
H1298 H 0.55184 0.57243 0.63435 0.0
H1299 H 0.55533 0.59829 0.68955 0.0
H1300 H 0.56143 0.70974 0.69963 0.0
H1301 H 0.56045 0.71652 0.63948 0.0
C1302 C 0.55587 0.66495 0.59538 0.0
C1303 C 0.55278 0.6357 0.57516 0.0
C1304 C 0.55719 0.66119 0.62972 0.0
C1305 C 0.55136 0.60247 0.58962 0.0
C1306 C 0.55302 0.59837 0.62378 0.0
C1307 C 0.55675 0.62395 0.67849 0.0
C1308 C 0.55864 0.65351 0.69881 0.0
C1309 C 0.5558 0.6276 0.64407 0.0
C1310 C 0.55998 0.68674 0.68432 0.0
C1311 C 0.55943 0.69056 0.65004 0.0
H1312 H 0.38027 0.32651 0.20641 0.0
H1313 H 0.34728 0.41818 0.20574 0.0
H1314 H 0.37365 0.45556 0.2053 0.0
H1315 H 0.40628 0.46258 0.20594 0.0
H1316 H 0.43922 0.37082 0.20453 0.0
H1317 H 0.41284 0.33351 0.20485 0.0
C1318 C 0.37881 0.35467 0.20617 0.0
C1319 C 0.36166 0.36932 0.2063 0.0
C1320 C 0.39413 0.37618 0.20552 0.0
C1321 C 0.36019 0.40597 0.20566 0.0
C1322 C 0.37533 0.42746 0.20545 0.0
C1323 C 0.40773 0.43442 0.20564 0.0
C1324 C 0.42487 0.41972 0.20533 0.0
C1325 C 0.39239 0.41292 0.20551 0.0
C1326 C 0.42631 0.38307 0.2047 0.0
C1327 C 0.41118 0.36161 0.20497 0.0
H1328 H 0.91459 0.90491 0.13761 0.0
H1329 H 0.91996 0.91773 0.24288 0.0
H1330 H 0.8898 0.89485 0.25088 0.0
H1331 H 0.8615 0.8712 0.22751 0.0
H1332 H 0.85755 0.85773 0.12187 0.0
H1333 H 0.88732 0.88066 0.11479 0.0
C1334 C 0.90924 0.90285 0.16239 0.0
C1335 C 0.91965 0.91334 0.18955 0.0
C1336 C 0.89198 0.88937 0.16683 0.0
C1337 C 0.91234 0.91 0.22143 0.0
C1338 C 0.89504 0.89687 0.22602 0.0
C1339 C 0.86718 0.87321 0.20297 0.0
C1340 C 0.85705 0.86261 0.17531 0.0
C1341 C 0.88466 0.88645 0.19886 0.0
C1342 C 0.8648 0.86548 0.14375 0.0
C1343 C 0.88193 0.87872 0.13956 0.0
H1344 H 0.37791 0.92177 0.12401 0.0
H1345 H 0.3568 0.89207 0.02905 0.0
H1346 H 0.38486 0.86467 0.01463 0.0
H1347 H 0.4154 0.8493 0.02852 0.0
H1348 H 0.43737 0.88065 0.12226 0.0
H1349 H 0.40905 0.90726 0.13751 0.0
C1350 C 0.37943 0.90916 0.10023 0.0
C1351 C 0.36517 0.90892 0.07772 0.0
C1352 C 0.3958 0.89381 0.0918 0.0
C1353 C 0.36749 0.89277 0.04686 0.0
C1354 C 0.38356 0.87702 0.03857 0.0
C1355 C 0.41404 0.86186 0.05236 0.0
C1356 C 0.42853 0.86275 0.07426 0.0
C1357 C 0.39781 0.87743 0.06079 0.0
C1358 C 0.42648 0.87955 0.10488 0.0
C1359 C 0.41026 0.89473 0.11365 0.0
H1360 H 0.91953 0.36296 0.14052 0.0
H1361 H 0.92982 0.37609 0.03647 0.0
H1362 H 0.89959 0.39758 0.02839 0.0
H1363 H 0.87005 0.41393 0.05145 0.0
H1364 H 0.86074 0.39995 0.15589 0.0
H1365 H 0.8905 0.37757 0.16294 0.0
C1366 C 0.91524 0.37049 0.11599 0.0
C1367 C 0.9271 0.36795 0.08922 0.0
C1368 C 0.89784 0.38276 0.11151 0.0
C1369 C 0.92108 0.37774 0.05764 0.0
C1370 C 0.90374 0.39007 0.05298 0.0
C1371 C 0.87451 0.40578 0.07568 0.0
C1372 C 0.863 0.40892 0.10308 0.0
C1373 C 0.89195 0.39284 0.07979 0.0
C1374 C 0.86916 0.3982 0.13429 0.0
C1375 C 0.88627 0.3853 0.13844 0.0
H1376 H 0.66825 0.66036 0.87358 0.0
H1377 H 0.68862 0.64758 0.77475 0.0
H1378 H 0.66033 0.62232 0.75729 0.0
H1379 H 0.62957 0.60435 0.76973 0.0
H1380 H 0.60891 0.61889 0.86813 0.0
H1381 H 0.63743 0.64277 0.88592 0.0
C1382 C 0.66656 0.65196 0.84823 0.0
C1383 C 0.6807 0.65592 0.82559 0.0
C1384 C 0.65012 0.63771 0.83819 0.0
C1385 C 0.67808 0.645 0.79278 0.0
C1386 C 0.66186 0.63048 0.78274 0.0
C1387 C 0.63129 0.61257 0.79513 0.0
C1388 C 0.61699 0.60957 0.81753 0.0
C1389 C 0.64775 0.62676 0.80518 0.0
C1390 C 0.61957 0.62076 0.85027 0.0
C1391 C 0.63593 0.63447 0.86051 0.0
H1392 H 0.1318 0.08021 0.80342 0.0
H1393 H 0.09958 0.17163 0.81837 0.0
H1394 H 0.12614 0.20827 0.82028 0.0
H1395 H 0.15869 0.21491 0.81659 0.0
H1396 H 0.19091 0.12316 0.80368 0.0
H1397 H 0.16436 0.08651 0.80213 0.0
C1398 C 0.13056 0.10814 0.80718 0.0
C1399 C 0.11359 0.12298 0.81062 0.0
C1400 C 0.14599 0.12921 0.80856 0.0
C1401 C 0.11238 0.15928 0.8157 0.0
C1402 C 0.12761 0.18038 0.81671 0.0
C1403 C 0.15991 0.18689 0.81348 0.0
C1404 C 0.17688 0.17199 0.81015 0.0
C1405 C 0.14451 0.16571 0.81298 0.0
C1406 C 0.17811 0.13551 0.80642 0.0
C1407 C 0.16289 0.11443 0.80544 0.0
H1408 H 0.61811 0.16668 0.97603 0.0
H1409 H 0.6094 0.14814 0.87209 0.0
H1410 H 0.63955 0.12785 0.86588 0.0
H1411 H 0.66867 0.11607 0.88878 0.0
H1412 H 0.67849 0.13311 0.99237 0.0
H1413 H 0.6479 0.15313 0.99971 0.0
C1414 C 0.6228 0.158 0.95212 0.0
C1415 C 0.61135 0.15928 0.92458 0.0
C1416 C 0.64048 0.14618 0.94847 0.0
C1417 C 0.61778 0.14787 0.89378 0.0
C1418 C 0.63512 0.13615 0.89008 0.0
C1419 C 0.66421 0.12419 0.91303 0.0
C1420 C 0.676 0.12316 0.9399 0.0
C1421 C 0.64663 0.13544 0.9171 0.0
C1422 C 0.66978 0.13363 0.97115 0.0
C1423 C 0.65224 0.14509 0.97538 0.0
H1424 H 0.12294 0.67693 1.002 0.0
H1425 H 0.10336 0.66815 0.90231 0.0
H1426 H 0.13215 0.64613 0.88414 0.0
H1427 H 0.16306 0.62924 0.89652 0.0
H1428 H 0.18211 0.63654 0.99672 0.0
H1429 H 0.15348 0.65922 0.01452 0.0
C1430 C 0.12493 0.67025 0.97625 0.0
C1431 C 0.1109 0.67438 0.95359 0.0
C1432 C 0.14151 0.6573 0.96599 0.0
C1433 C 0.11382 0.66527 0.92038 0.0
C1434 C 0.13034 0.6527 0.90993 0.0
C1435 C 0.16099 0.6359 0.92224 0.0
C1436 C 0.17486 0.63119 0.94517 0.0
C1437 C 0.14432 0.64863 0.93249 0.0
C1438 C 0.17177 0.63975 0.97845 0.0
C1439 C 0.15535 0.65279 0.9887 0.0
H1440 H 0.4189 0.90103 0.6342 0.0
H1441 H 0.42171 0.92398 0.73825 0.0
H1442 H 0.39132 0.90203 0.74557 0.0
H1443 H 0.36342 0.87663 0.72178 0.0
H1444 H 0.362 0.85401 0.61731 0.0
H1445 H 0.39208 0.87534 0.61114 0.0
C1446 C 0.41296 0.90132 0.65859 0.0
C1447 C 0.42274 0.91438 0.68557 0.0
C1448 C 0.39552 0.88859 0.66262 0.0
C1449 C 0.41462 0.9142 0.71693 0.0
C1450 C 0.39717 0.90161 0.72113 0.0
C1451 C 0.36972 0.87627 0.69772 0.0
C1452 C 0.36016 0.86364 0.67009 0.0
C1453 C 0.3874 0.88877 0.69409 0.0
C1454 C 0.36873 0.86352 0.63914 0.0
C1455 C 0.38607 0.87578 0.63546 0.0
H1456 H 0.90851 0.4607 0.71082 0.0
H1457 H 0.94101 0.3692 0.69888 0.0
H1458 H 0.91451 0.33233 0.69703 0.0
H1459 H 0.88201 0.32554 0.70027 0.0
H1460 H 0.84936 0.41712 0.70994 0.0
H1461 H 0.87586 0.45419 0.71104 0.0
C1462 C 0.90981 0.4327 0.70773 0.0
C1463 C 0.92686 0.41788 0.70517 0.0
C1464 C 0.89441 0.41152 0.70629 0.0
C1465 C 0.92817 0.3815 0.70087 0.0
C1466 C 0.91297 0.3603 0.69989 0.0
C1467 C 0.88066 0.35363 0.70251 0.0
C1468 C 0.8636 0.36836 0.70519 0.0
C1469 C 0.89601 0.37494 0.7028 0.0
C1470 C 0.86223 0.40491 0.70777 0.0
C1471 C 0.87742 0.42619 0.70851 0.0
H1472 H 0.38367 0.46409 0.56225 0.0
H1473 H 0.3502 0.37236 0.55931 0.0
H1474 H 0.3763 0.33502 0.56016 0.0
H1475 H 0.40873 0.32797 0.56081 0.0
H1476 H 0.44235 0.41935 0.56547 0.0
H1477 H 0.41624 0.45691 0.56499 0.0
C1478 C 0.38206 0.43593 0.56183 0.0
C1479 C 0.36485 0.42125 0.56058 0.0
C1480 C 0.39723 0.41438 0.56263 0.0
C1481 C 0.36316 0.3846 0.56031 0.0
C1482 C 0.37814 0.36312 0.56074 0.0
C1483 C 0.41039 0.35611 0.56177 0.0
C1484 C 0.42762 0.37065 0.56302 0.0
C1485 C 0.39525 0.37766 0.56175 0.0
C1486 C 0.42936 0.40725 0.56451 0.0
C1487 C 0.41438 0.42883 0.56417 0.0
H1488 H 0.86974 0.89858 0.63918 0.0
H1489 H 0.86659 0.92995 0.53711 0.0
H1490 H 0.89698 0.90929 0.52795 0.0
H1491 H 0.92509 0.88291 0.54988 0.0
H1492 H 0.92651 0.85193 0.65251 0.0
H1493 H 0.89643 0.87163 0.66011 0.0
C1494 C 0.8756 0.90103 0.61482 0.0
C1495 C 0.86577 0.91611 0.58899 0.0
C1496 C 0.89298 0.88902 0.60973 0.0
C1497 C 0.87375 0.91859 0.55759 0.0
C1498 C 0.89119 0.90674 0.55234 0.0
C1499 C 0.91876 0.88031 0.5738 0.0
C1500 C 0.92836 0.86602 0.60057 0.0
C1501 C 0.90104 0.89195 0.57832 0.0
C1502 C 0.91977 0.86299 0.63138 0.0
C1503 C 0.90242 0.87427 0.63589 0.0
H1504 H 0.6238 0.12894 0.38905 0.0
H1505 H 0.61829 0.12228 0.2833 0.0
H1506 H 0.64846 0.1455 0.27635 0.0
H1507 H 0.67678 0.16799 0.30078 0.0
H1508 H 0.68086 0.17511 0.40695 0.0
H1509 H 0.65115 0.1516 0.41295 0.0
C1510 C 0.62912 0.13243 0.36438 0.0
C1511 C 0.61864 0.12361 0.33678 0.0
C1512 C 0.6464 0.14605 0.36057 0.0
C1513 C 0.62594 0.12871 0.30509 0.0
C1514 C 0.64325 0.14203 0.30109 0.0
C1515 C 0.67116 0.1644 0.3252 0.0
C1516 C 0.6813 0.17351 0.35333 0.0
C1517 C 0.65368 0.15085 0.3287 0.0
C1518 C 0.6736 0.16861 0.38473 0.0
C1519 C 0.65649 0.15503 0.3883 0.0
H1520 H 0.15976 0.712 0.31264 0.0
H1521 H 0.19254 0.62011 0.30907 0.0
H1522 H 0.16606 0.58293 0.30957 0.0
H1523 H 0.13336 0.57633 0.30984 0.0
H1524 H 0.10083 0.66855 0.31518 0.0
H1525 H 0.12731 0.70541 0.31524 0.0
C1526 C 0.16116 0.68383 0.31201 0.0
C1527 C 0.17825 0.66904 0.31063 0.0
C1528 C 0.14583 0.6625 0.31259 0.0
C1529 C 0.17966 0.63238 0.31014 0.0
C1530 C 0.16446 0.61103 0.31036 0.0
C1531 C 0.13204 0.60449 0.31109 0.0
C1532 C 0.11498 0.61946 0.31238 0.0
C1533 C 0.14745 0.62576 0.31139 0.0
C1534 C 0.11367 0.65609 0.31422 0.0
C1535 C 0.12886 0.6773 0.31418 0.0
H1536 H 0.66131 0.62294 0.40659 0.0
H1537 H 0.6816 0.64699 0.50352 0.0
H1538 H 0.65325 0.67315 0.51863 0.0
H1539 H 0.62257 0.68923 0.50459 0.0
H1540 H 0.60171 0.66282 0.40866 0.0
H1541 H 0.63026 0.63767 0.39304 0.0
C1542 C 0.65957 0.63399 0.431 0.0
C1543 C 0.67372 0.63304 0.45379 0.0
C1544 C 0.64305 0.6486 0.43978 0.0
C1545 C 0.67104 0.64723 0.48543 0.0
C1546 C 0.65479 0.66228 0.4941 0.0
C1547 C 0.62424 0.67806 0.48021 0.0
C1548 C 0.60991 0.67819 0.4578 0.0
C1549 C 0.64068 0.66312 0.47152 0.0
C1550 C 0.6124 0.66317 0.42646 0.0
C1551 C 0.62878 0.64879 0.41747 0.0
H1552 H 0.16937 0.12587 0.3807 0.0
H1553 H 0.17501 0.12155 0.48653 0.0
H1554 H 0.14485 0.14423 0.49314 0.0
H1555 H 0.11644 0.16545 0.46839 0.0
H1556 H 0.11219 0.16991 0.36209 0.0
H1557 H 0.14193 0.14723 0.35647 0.0
C1558 C 0.16409 0.1298 0.40532 0.0
C1559 C 0.17461 0.12178 0.43303 0.0
C1560 C 0.14678 0.14303 0.40894 0.0
C1561 C 0.16734 0.12737 0.46465 0.0
C1562 C 0.15002 0.14038 0.46845 0.0
C1563 C 0.12203 0.16148 0.44403 0.0
C1564 C 0.11181 0.16958 0.41576 0.0
C1565 C 0.13954 0.14834 0.44073 0.0
C1566 C 0.11948 0.16417 0.38444 0.0
C1567 C 0.13662 0.15106 0.38107 0.0
H1568 H 0.3249 0.10188 0.07778 0.0
H1569 H 0.31076 0.06935 0.17595 0.0
H1570 H 0.30712 0.13075 0.19264 0.0
H1571 H 0.31073 0.19372 0.18001 0.0
H1572 H 0.32458 0.2252 0.08078 0.0
H1573 H 0.3257 0.16439 0.06381 0.0
C1574 C 0.32067 0.10846 0.10261 0.0
C1575 C 0.31799 0.08153 0.12567 0.0
C1576 C 0.31888 0.14359 0.11191 0.0
C1577 C 0.31267 0.08989 0.15785 0.0
C1578 C 0.31076 0.12491 0.16736 0.0
C1579 C 0.31373 0.18741 0.15456 0.0
C1580 C 0.3179 0.21438 0.13195 0.0
C1581 C 0.31423 0.15206 0.14475 0.0
C1582 C 0.3218 0.2053 0.09907 0.0
C1583 C 0.32231 0.1704 0.08918 0.0
H1584 H 0.95409 0.08363 0.11224 0.0
H1585 H 0.98153 0.08344 0.20564 0.0
H1586 H 0.98409 0.14682 0.20376 0.0
H1587 H 0.98012 0.20199 0.17427 0.0
H1588 H 0.9527 0.20282 0.08084 0.0
H1589 H 0.94891 0.13956 0.08377 0.0
C1590 C 0.96062 0.09748 0.13215 0.0
C1591 C 0.96755 0.07866 0.15903 0.0
C1592 C 0.96224 0.13407 0.13078 0.0
C1593 C 0.9758 0.09711 0.18487 0.0
C1594 C 0.97742 0.13344 0.1837 0.0
C1595 C 0.97306 0.18854 0.15476 0.0
C1596 C 0.96683 0.20735 0.12727 0.0
C1597 C 0.97084 0.15215 0.15665 0.0
C1598 C 0.95793 0.18912 0.10203 0.0
C1599 C 0.95566 0.15289 0.10376 0.0
H1600 H 0.71505 0.93373 0.94682 0.0
H1601 H 0.74341 0.96977 0.86106 0.0
H1602 H 0.74818 0.9089 0.84356 0.0
H1603 H 0.74028 0.84558 0.8492 0.0
H1604 H 0.71056 0.8115 0.93414 0.0
H1605 H 0.71045 0.87109 0.95594 0.0
C1606 C 0.72256 0.92811 0.92463 0.0
C1607 C 0.72874 0.95598 0.90503 0.0
C1608 C 0.7249 0.89333 0.91464 0.0
C1609 C 0.73859 0.94862 0.87649 0.0
C1610 C 0.74117 0.91386 0.86644 0.0
C1611 C 0.73435 0.85126 0.87298 0.0
C1612 C 0.72559 0.82433 0.8904 0.0
C1613 C 0.73388 0.88599 0.88479 0.0
C1614 C 0.71752 0.83188 0.92073 0.0
C1615 C 0.71734 0.86593 0.93297 0.0
H1616 H 0.06705 0.96256 0.9173 0.0
H1617 H 0.0675 0.95502 0.81103 0.0
H1618 H 0.06643 0.89156 0.81463 0.0
H1619 H 0.06501 0.83781 0.84779 0.0
H1620 H 0.06536 0.84506 0.9541 0.0
H1621 H 0.06643 0.90855 0.95056 0.0
C1622 C 0.06707 0.94706 0.89494 0.0
C1623 C 0.0672 0.96384 0.86396 0.0
C1624 C 0.06651 0.91029 0.89714 0.0
C1625 C 0.06706 0.9431 0.83525 0.0
C1626 C 0.06656 0.90665 0.83725 0.0
C1627 C 0.06547 0.85319 0.8702 0.0
C1628 C 0.06497 0.83633 0.90113 0.0
C1629 C 0.06621 0.88992 0.86805 0.0
C1630 C 0.06538 0.85701 0.92989 0.0
C1631 C 0.06613 0.89349 0.92792 0.0
H1632 H 0.32318 0.70444 0.60234 0.0
H1633 H 0.31026 0.69597 0.7058 0.0
H1634 H 0.31312 0.63247 0.70287 0.0
H1635 H 0.3172 0.57878 0.66973 0.0
H1636 H 0.32945 0.58808 0.56605 0.0
H1637 H 0.3287 0.65156 0.57014 0.0
C1638 C 0.32096 0.68875 0.62426 0.0
C1639 C 0.31639 0.70509 0.65416 0.0
C1640 C 0.32235 0.65223 0.62228 0.0
C1641 C 0.31394 0.68426 0.68249 0.0
C1642 C 0.31544 0.64784 0.68078 0.0
C1643 C 0.31995 0.59475 0.6482 0.0
C1644 C 0.32316 0.57862 0.61755 0.0
C1645 C 0.31939 0.63146 0.65067 0.0
C1646 C 0.3266 0.59973 0.58979 0.0
C1647 C 0.32625 0.63609 0.59213 0.0
H1648 H 0.96202 0.58131 0.60039 0.0
H1649 H 0.98917 0.58272 0.69434 0.0
H1650 H 0.99183 0.64547 0.69157 0.0
H1651 H 0.98667 0.70011 0.66328 0.0
H1652 H 0.95784 0.70133 0.57133 0.0
H1653 H 0.95567 0.63762 0.5727 0.0
C1654 C 0.96845 0.59531 0.62031 0.0
C1655 C 0.97565 0.57672 0.64717 0.0
C1656 C 0.96964 0.63206 0.61907 0.0
C1657 C 0.98395 0.59564 0.67273 0.0
C1658 C 0.98534 0.63186 0.67144 0.0
C1659 C 0.97963 0.68678 0.6437 0.0
C1660 C 0.9724 0.70588 0.61733 0.0
C1661 C 0.97824 0.65031 0.64481 0.0
C1662 C 0.96372 0.68754 0.59186 0.0
C1663 C 0.9624 0.65101 0.59267 0.0
H1664 H 0.69999 0.44938 0.37252 0.0
H1665 H 0.74629 0.46259 0.43366 0.0
H1666 H 0.75426 0.40172 0.42485 0.0
H1667 H 0.74725 0.34374 0.40245 0.0
H1668 H 0.70109 0.32968 0.34135 0.0
H1669 H 0.69388 0.39171 0.34735 0.0
C1670 C 0.71188 0.43891 0.38369 0.0
C1671 C 0.72252 0.46063 0.40365 0.0
C1672 C 0.71633 0.40364 0.37875 0.0
C1673 C 0.73799 0.44679 0.41776 0.0
C1674 C 0.74248 0.4118 0.41302 0.0
C1675 C 0.73558 0.35425 0.39055 0.0
C1676 C 0.72458 0.33206 0.37183 0.0
C1677 C 0.7316 0.38986 0.39402 0.0
C1678 C 0.70975 0.34623 0.35586 0.0
C1679 C 0.7056 0.38165 0.3594 0.0
H1680 H 0.07292 0.33527 0.34808 0.0
H1681 H 0.0622 0.33969 0.45265 0.0
H1682 H 0.06405 0.40332 0.45107 0.0
H1683 H 0.06702 0.45834 0.41928 0.0
H1684 H 0.07703 0.45325 0.31453 0.0
H1685 H 0.07683 0.38965 0.31685 0.0
C1686 C 0.07092 0.35006 0.37055 0.0
C1687 C 0.06737 0.33237 0.40039 0.0
C1688 C 0.07171 0.38679 0.3694 0.0
C1689 C 0.06516 0.35226 0.42933 0.0
C1690 C 0.06608 0.38882 0.42843 0.0
C1691 C 0.06936 0.4433 0.39707 0.0
C1692 C 0.07184 0.46073 0.36671 0.0
C1693 C 0.06916 0.40644 0.39853 0.0
C1694 C 0.07473 0.44069 0.33811 0.0
C1695 C 0.07472 0.40422 0.33944 0.0
H1696 H 0.82417 0.09824 0.58829 0.0
H1697 H 0.80989 0.07405 0.68917 0.0
H1698 H 0.8091 0.1356 0.70239 0.0
H1699 H 0.81283 0.19624 0.68628 0.0
H1700 H 0.82514 0.22221 0.58501 0.0
H1701 H 0.82633 0.16024 0.57128 0.0
C1702 C 0.82074 0.10636 0.61308 0.0
C1703 C 0.81741 0.08103 0.63768 0.0
C1704 C 0.81998 0.1423 0.62064 0.0
C1705 C 0.81304 0.09244 0.66974 0.0
C1706 C 0.81241 0.12788 0.67739 0.0
C1707 C 0.81551 0.1887 0.66104 0.0
C1708 C 0.8189 0.21436 0.63686 0.0
C1709 C 0.81593 0.15302 0.65314 0.0
C1710 C 0.8227 0.20337 0.60442 0.0
C1711 C 0.82329 0.16779 0.59643 0.0
H1712 H 0.46273 0.09844 0.68569 0.0
H1713 H 0.48088 0.07288 0.58744 0.0
H1714 H 0.48165 0.13418 0.57294 0.0
H1715 H 0.47698 0.19528 0.58718 0.0
H1716 H 0.46054 0.22235 0.68599 0.0
H1717 H 0.45935 0.16067 0.70083 0.0
C1718 C 0.46698 0.10617 0.66119 0.0
C1719 C 0.47145 0.08039 0.63773 0.0
C1720 C 0.4677 0.14204 0.65286 0.0
C1721 C 0.47687 0.09147 0.60602 0.0
C1722 C 0.47749 0.12683 0.59763 0.0
C1723 C 0.47334 0.18802 0.61212 0.0
C1724 C 0.46881 0.21402 0.63522 0.0
C1725 C 0.47288 0.15237 0.62075 0.0
C1726 C 0.46387 0.20334 0.66731 0.0
C1727 C 0.46327 0.16787 0.67597 0.0
H1728 H 0.22399 0.82912 0.41913 0.0
H1729 H 0.20591 0.83566 0.31843 0.0
H1730 H 0.20386 0.89909 0.32288 0.0
H1731 H 0.20842 0.95285 0.35446 0.0
H1732 H 0.22789 0.94692 0.45446 0.0
H1733 H 0.22769 0.88336 0.45151 0.0
C1734 C 0.21937 0.84445 0.39838 0.0
C1735 C 0.21521 0.8277 0.36843 0.0
C1736 C 0.21845 0.8811 0.40098 0.0
C1737 C 0.20942 0.84795 0.34159 0.0
C1738 C 0.20819 0.88423 0.34415 0.0
C1739 C 0.21269 0.93778 0.37562 0.0
C1740 C 0.21822 0.95503 0.40456 0.0
C1741 C 0.21294 0.90114 0.37354 0.0
C1742 C 0.22336 0.93471 0.43192 0.0
C1743 C 0.22339 0.89819 0.43019 0.0
H1744 H 0.55316 0.95868 0.4139 0.0
H1745 H 0.58874 0.95295 0.33083 0.0
H1746 H 0.58855 0.88903 0.33442 0.0
H1747 H 0.57845 0.83493 0.3618 0.0
H1748 H 0.54167 0.84161 0.44338 0.0
H1749 H 0.54245 0.90492 0.4401 0.0
C1750 C 0.56103 0.94345 0.39683 0.0
C1751 C 0.57108 0.96051 0.37233 0.0
C1752 C 0.56069 0.90685 0.39883 0.0
C1753 C 0.58087 0.94039 0.34985 0.0
C1754 C 0.58079 0.90388 0.35196 0.0
C1755 C 0.57046 0.85009 0.37868 0.0
C1756 C 0.56018 0.83311 0.40306 0.0
C1757 C 0.57071 0.8868 0.37636 0.0
C1758 C 0.55005 0.85359 0.42482 0.0
C1759 C 0.55036 0.88998 0.42285 0.0
H1760 H 0.83395 0.58892 0.16322 0.0
H1761 H 0.79004 0.57757 0.09598 0.0
H1762 H 0.78208 0.63858 0.10456 0.0
H1763 H 0.78889 0.69627 0.12804 0.0
H1764 H 0.83325 0.70824 0.19409 0.0
H1765 H 0.83978 0.64595 0.18913 0.0
C1766 C 0.82258 0.5998 0.15064 0.0
C1767 C 0.81266 0.5787 0.12894 0.0
C1768 C 0.81827 0.6351 0.15522 0.0
C1769 C 0.79779 0.59299 0.11313 0.0
C1770 C 0.79334 0.62803 0.11775 0.0
C1771 C 0.80002 0.68525 0.14124 0.0
C1772 C 0.8107 0.70694 0.16109 0.0
C1773 C 0.80371 0.64949 0.13818 0.0
C1774 C 0.82481 0.69211 0.17873 0.0
C1775 C 0.82859 0.65654 0.17579 0.0
H1776 H 0.4756 0.5926 0.18747 0.0
H1777 H 0.46905 0.56827 0.08421 0.0
H1778 H 0.47074 0.63031 0.07045 0.0
H1779 H 0.47372 0.69189 0.0878 0.0
H1780 H 0.48078 0.71561 0.19106 0.0
H1781 H 0.47939 0.65359 0.20458 0.0
C1782 C 0.47475 0.60069 0.16189 0.0
C1783 C 0.47219 0.57547 0.13698 0.0
C1784 C 0.4758 0.63651 0.15409 0.0
C1785 C 0.47079 0.58688 0.10403 0.0
C1786 C 0.47187 0.62246 0.09608 0.0
C1787 C 0.47515 0.68351 0.11321 0.0
C1788 C 0.47728 0.70864 0.13835 0.0
C1789 C 0.47433 0.64757 0.1209 0.0
C1790 C 0.47887 0.69709 0.17121 0.0
C1791 C 0.47816 0.66151 0.17899 0.0
H1792 H 0.2366 0.33254 0.90872 0.0
H1793 H 0.20271 0.33063 0.82338 0.0
H1794 H 0.19879 0.39404 0.82697 0.0
H1795 H 0.20435 0.44986 0.85567 0.0
H1796 H 0.23964 0.45245 0.93908 0.0
H1797 H 0.24399 0.38926 0.93488 0.0
C1798 C 0.22835 0.34619 0.89108 0.0
C1799 C 0.21975 0.32716 0.86609 0.0
C1800 C 0.22658 0.38274 0.89282 0.0
C1801 C 0.20936 0.34494 0.84284 0.0
C1802 C 0.20715 0.38109 0.84491 0.0
C1803 C 0.21314 0.4365 0.87259 0.0
C1804 C 0.2217 0.45568 0.89753 0.0
C1805 C 0.21563 0.40025 0.86988 0.0
C1806 C 0.23312 0.43828 0.91938 0.0
C1807 C 0.23546 0.40212 0.91718 0.0
H1808 H 0.57731 0.33304 0.85656 0.0
H1809 H 0.54131 0.32996 0.939 0.0
H1810 H 0.53689 0.39327 0.93461 0.0
H1811 H 0.54558 0.45036 0.91003 0.0
H1812 H 0.5815 0.45228 0.82726 0.0
H1813 H 0.58385 0.3887 0.82905 0.0
C1814 C 0.56823 0.34628 0.87305 0.0
C1815 C 0.55963 0.3271 0.89796 0.0
C1816 C 0.56605 0.38251 0.87067 0.0
C1817 C 0.54786 0.34423 0.91933 0.0
C1818 C 0.54555 0.38044 0.91709 0.0
C1819 C 0.55389 0.43667 0.8925 0.0
C1820 C 0.56351 0.45581 0.86877 0.0
C1821 C 0.55497 0.39999 0.89342 0.0
C1822 C 0.57399 0.43798 0.84568 0.0
C1823 C 0.57533 0.40169 0.84671 0.0
H1824 H 0.24091 0.19952 0.32214 0.0
H1825 H 0.28965 0.17656 0.3729 0.0
H1826 H 0.30602 0.21454 0.33496 0.0
H1827 H 0.30667 0.25463 0.28694 0.0
H1828 H 0.25797 0.27616 0.23532 0.0
H1829 H 0.24163 0.23876 0.27362 0.0
C1830 C 0.2551 0.20301 0.32501 0.0
C1831 C 0.26398 0.18506 0.35043 0.0
C1832 C 0.26455 0.22467 0.30271 0.0
C1833 C 0.28244 0.1897 0.35344 0.0
C1834 C 0.29184 0.21155 0.33175 0.0
C1835 C 0.2925 0.25102 0.28399 0.0
C1836 C 0.28365 0.26829 0.25809 0.0
C1837 C 0.28308 0.22912 0.30616 0.0
C1838 C 0.26524 0.2632 0.25482 0.0
C1839 C 0.25581 0.24182 0.27685 0.0
H1840 H 0.04482 0.08044 0.32343 0.0
H1841 H 0.99685 0.10522 0.37634 0.0
H1842 H 0.97997 0.06602 0.34082 0.0
H1843 H 0.97843 0.02469 0.29421 0.0
H1844 H 0.02617 0.99941 0.241 0.0
H1845 H 0.0433 0.03825 0.27691 0.0
C1846 C 0.0307 0.0771 0.32737 0.0
C1847 C 0.02222 0.09634 0.35259 0.0
C1848 C 0.0209 0.05427 0.3066 0.0
C1849 C 1.00382 0.09154 0.35692 0.0
C1850 C 0.9941 0.06885 0.33664 0.0
C1851 C 0.99259 0.02763 0.29042 0.0
C1852 C 1.00091 1.00898 0.26473 0.0
C1853 C 1.00243 0.05019 0.31125 0.0
C1854 C 1.01932 1.01332 0.26041 0.0
C1855 C 0.02917 0.03559 0.28104 0.0
H1856 H 0.26743 1.01882 0.01523 0.0
H1857 H 0.32151 0.0443 0.9898 0.0
H1858 H 0.31134 0.08558 0.94825 0.0
H1859 H 0.28724 0.113 0.91706 0.0
H1860 H 0.23301 0.08751 0.94126 0.0
H1861 H 0.24304 0.04789 0.98467 0.0
C1862 C 0.27696 0.03368 1.00082 0.0
C1863 C 0.29524 0.0283 1.00581 0.0
C1864 C 0.271 0.0573 0.97631 0.0
C1865 C 0.30737 0.04766 0.98658 0.0
C1866 C 0.30157 0.07137 0.96268 0.0
C1867 C 0.27757 0.09916 0.93206 0.0
C1868 C 0.25935 0.10338 0.92557 0.0
C1869 C 0.28343 0.0762 0.95704 0.0
C1870 C 0.24712 0.08459 0.94516 0.0
C1871 C 0.25285 0.06197 0.97023 0.0
H1872 H 0.04675 0.20414 0.94366 0.0
H1873 H 0.99683 0.17177 0.90165 0.0
H1874 H 0.98093 0.20814 0.94122 0.0
H1875 H 0.98107 0.24979 0.98773 0.0
H1876 H 0.03095 0.28127 0.03052 0.0
H1877 H 0.04685 0.24491 0.99095 0.0
C1878 C 0.0324 0.20517 0.94308 0.0
C1879 C 0.02305 0.18508 0.91963 0.0
C1880 C 0.02326 0.22603 0.96622 0.0
C1881 C 1.00441 0.18654 0.91958 0.0
C1882 C 0.99528 0.2075 0.94217 0.0
C1883 C 0.99541 0.24856 0.98852 0.0
C1884 C 1.00475 0.26828 0.01223 0.0
C1885 C 1.00454 0.22736 0.96566 0.0
C1886 C 0.02336 0.26634 0.01272 0.0
C1887 C 0.0325 0.24557 0.98998 0.0
H1888 H 0.73494 0.78496 0.73752 0.0
H1889 H 0.7836 0.7627 0.78888 0.0
H1890 H 0.8 0.80017 0.75032 0.0
H1891 H 0.80058 0.83942 0.70133 0.0
H1892 H 0.75155 0.86276 0.6517 0.0
H1893 H 0.73537 0.82481 0.68989 0.0
C1894 C 0.74913 0.7884 0.74042 0.0
C1895 C 0.75798 0.77097 0.7662 0.0
C1896 C 0.75848 0.81016 0.71821 0.0
C1897 C 0.77639 0.77587 0.76945 0.0
C1898 C 0.78581 0.79722 0.74726 0.0
C1899 C 0.78638 0.83598 0.69883 0.0
C1900 C 0.77731 0.85394 0.6736 0.0
C1901 C 0.77702 0.81443 0.7214 0.0
C1902 C 0.75885 0.84947 0.67095 0.0
C1903 C 0.74957 0.82772 0.6928 0.0
H1904 H 0.05889 1.01492 0.72445 0.0
H1905 H 1.00924 0.04108 0.77097 0.0
H1906 H 0.99353 1.00112 0.7344 0.0
H1907 H 0.99372 0.95768 0.6898 0.0
H1908 H 0.04321 0.93108 0.64299 0.0
H1909 H 0.059 0.97177 0.67899 0.0
C1910 C 0.04464 1.0119 0.72651 0.0
C1911 C 0.03532 0.03102 0.75055 0.0
C1912 C 0.03558 0.98856 0.70537 0.0
C1913 C 1.01682 0.02671 0.75283 0.0
C1914 C 1.00777 1.00381 0.73187 0.0
C1915 C 1.00794 0.96098 0.68724 0.0
C1916 C 1.0172 0.94107 0.66373 0.0
C1917 C 1.01699 0.98449 0.7081 0.0
C1918 C 0.0357 0.94555 0.66116 0.0
C1919 C 0.04477 0.96902 0.68166 0.0
H1920 H 0.79357 0.94849 0.08018 0.0
H1921 H 0.74602 0.94283 0.13927 0.0
H1922 H 0.7309 0.9815 0.10081 0.0
H1923 H 0.73083 1.01648 0.04999 0.0
H1924 H 0.77817 0.02296 0.9905 0.0
H1925 H 0.79363 0.98474 0.02935 0.0
C1926 C 0.77995 0.95597 0.08476 0.0
C1927 C 0.77095 0.94238 0.11257 0.0
C1928 C 0.77122 0.97831 0.06231 0.0
C1929 C 0.75324 0.95228 0.11789 0.0
C1930 C 0.74456 0.97457 0.09593 0.0
C1931 C 0.74452 1.00947 0.04541 0.0
C1932 C 0.75327 0.02251 0.01719 0.0
C1933 C 0.75335 0.98753 0.06791 0.0
C1934 C 0.77106 1.01328 0.01191 0.0
C1935 C 0.77994 0.99142 0.03418 0.0
H1936 H 1.00939 0.76041 1.00871 0.0
H1937 H 0.06327 0.78417 0.03658 0.0
H1938 H 0.05276 0.82455 0.07865 0.0
H1939 H 0.02834 0.85312 0.10822 0.0
H1940 H 0.97434 0.82947 0.0812 0.0
H1941 H 0.98477 0.78912 0.03875 0.0
C1942 C 1.01882 0.77448 0.02395 0.0
C1943 C 0.03714 0.76917 0.01926 0.0
C1944 C 1.01265 0.79772 0.04852 0.0
C1945 C 0.04912 0.78758 0.03948 0.0
C1946 C 0.04311 0.81079 0.06364 0.0
C1947 C 1.01882 0.83942 0.09289 0.0
C1948 C 1.00053 0.84459 0.09808 0.0
C1949 C 0.02492 0.81612 0.06843 0.0
C1950 C 0.98847 0.82592 0.07818 0.0
C1951 C 0.99444 0.80289 0.05368 0.0
H1952 H 0.30543 0.74424 0.78037 0.0
H1953 H 0.25715 0.79841 0.7565 0.0
H1954 H 0.24047 0.76026 0.79366 0.0
H1955 H 0.23928 0.7109 0.83282 0.0
H1956 H 0.28726 0.65524 0.8556 0.0
H1957 H 0.30413 0.69401 0.81913 0.0
C1958 C 0.29127 0.74775 0.78342 0.0
C1959 C 0.28262 0.77436 0.76562 0.0
C1960 C 0.28159 0.72518 0.80462 0.0
C1961 C 0.26421 0.7782 0.76973 0.0
C1962 C 0.25461 0.75635 0.79107 0.0
C1963 C 0.25344 0.70731 0.82994 0.0
C1964 C 0.26189 0.67994 0.84703 0.0
C1965 C 0.26312 0.72967 0.80863 0.0
C1966 C 0.28027 0.67565 0.84254 0.0
C1967 C 0.29 0.69802 0.82177 0.0
H1968 H 0.04374 0.59332 0.82331 0.0
H1969 H 0.99342 0.61942 0.86717 0.0
H1970 H 0.97842 0.57837 0.83029 0.0
H1971 H 0.97951 0.53366 0.78585 0.0
H1972 H 0.03003 0.50811 0.74242 0.0
H1973 H 0.04482 0.54964 0.77883 0.0
C1974 C 0.0295 0.58999 0.82502 0.0
C1975 C 1.01984 0.60978 0.84826 0.0
C1976 C 0.02088 0.5661 0.8037 0.0
C1977 C 1.0013 0.60516 0.84942 0.0
C1978 C 0.99267 0.58138 0.8284 0.0
C1979 C 0.99375 0.53721 0.78432 0.0
C1980 C 1.00357 0.51752 0.76125 0.0
C1981 C 1.0023 0.56154 0.80545 0.0
C1982 C 0.02204 0.5227 0.75977 0.0
C1983 C 0.03057 0.54656 0.78067 0.0
H1984 H 0.3115 0.54014 0.48058 0.0
H1985 H 0.26112 0.50465 0.51869 0.0
H1986 H 0.24568 0.54453 0.48178 0.0
H1987 H 0.24618 0.58947 0.43824 0.0
H1988 H 0.29635 0.62645 0.40054 0.0
H1989 H 0.31199 0.58672 0.43767 0.0
C1990 C 0.29715 0.54115 0.48079 0.0
C1991 C 0.28755 0.51916 0.5025 0.0
C1992 C 0.28823 0.56468 0.45954 0.0
C1993 C 0.26893 0.52115 0.50245 0.0
C1994 C 0.26003 0.54401 0.48123 0.0
C1995 C 0.26054 0.58881 0.43801 0.0
C1996 C 0.26998 0.61111 0.41637 0.0
C1997 C 0.2695 0.56587 0.4596 0.0
C1998 C 0.28864 0.61003 0.41702 0.0
C1999 C 0.29763 0.58706 0.43818 0.0
H2000 H 0.98148 0.75107 0.48549 0.0
H2001 H 0.03125 0.7924 0.52073 0.0
H2002 H 0.04733 0.75428 0.48305 0.0
H2003 H 0.04751 0.70873 0.44003 0.0
H2004 H 0.99784 0.66651 0.40524 0.0
H2005 H 0.98168 0.70489 0.44267 0.0
C2006 C 0.99584 0.75176 0.48489 0.0
C2007 C 1.00508 0.77475 0.50602 0.0
C2008 C 1.00512 0.72936 0.4632 0.0
C2009 C 0.02372 0.77503 0.50491 0.0
C2010 C 0.03298 0.7532 0.48327 0.0
C2011 C 0.03315 0.70802 0.44047 0.0
C2012 C 0.024 0.68448 0.41972 0.0
C2013 C 0.02386 0.73021 0.46227 0.0
C2014 C 1.00534 0.68385 0.42112 0.0
C2015 C 0.99604 0.70602 0.44246 0.0
H2016 H 0.79868 0.33348 0.1894 0.0
H2017 H 0.74891 0.37811 0.15928 0.0
H2018 H 0.73306 0.33923 0.19726 0.0
H2019 H 0.7332 0.29157 0.23897 0.0
H2020 H 0.78323 0.24799 0.26916 0.0
H2021 H 0.7989 0.28686 0.23124 0.0
C2022 C 0.78436 0.33463 0.19095 0.0
C2023 C 0.77509 0.3589 0.1713 0.0
C2024 C 0.77527 0.31213 0.21295 0.0
C2025 C 0.7565 0.36015 0.17425 0.0
C2026 C 0.74737 0.33768 0.19588 0.0
C2027 C 0.74752 0.29058 0.23721 0.0
C2028 C 0.75696 0.26668 0.257 0.0
C2029 C 0.75659 0.31345 0.21537 0.0
C2030 C 0.77555 0.26601 0.25441 0.0
C2031 C 0.78458 0.2883 0.23263 0.0
H2032 H 0.05938 0.50988 0.22782 0.0
H2033 H 1.01014 0.53677 0.27542 0.0
H2034 H 0.99393 0.49838 0.23804 0.0
H2035 H 0.99355 0.45601 0.19219 0.0
H2036 H 0.04274 0.42811 0.14511 0.0
H2037 H 0.05896 0.46765 0.18161 0.0
C2038 C 0.04511 0.50734 0.22999 0.0
C2039 C 0.03607 0.52625 0.25456 0.0
C2040 C 0.03576 0.48486 0.2084 0.0
C2041 C 1.01753 0.52252 0.25692 0.0
C2042 C 1.00819 0.50055 0.23545 0.0
C2043 C 1.00779 0.45882 0.18972 0.0
C2044 C 1.01685 0.43889 0.16592 0.0
C2045 C 1.01713 0.48148 0.21111 0.0
C2046 C 0.03539 0.44271 0.16341 0.0
C2047 C 0.04471 0.46546 0.18426 0.0
H2048 H 0.79279 0.44858 0.57991 0.0
H2049 H 0.74378 0.41695 0.62621 0.0
H2050 H 0.72725 0.45575 0.5896 0.0
H2051 H 0.72664 0.4998 0.54473 0.0
H2052 H 0.77564 0.52976 0.49732 0.0
H2053 H 0.79207 0.49086 0.5338 0.0
C2054 C 0.77849 0.45024 0.58206 0.0
C2055 C 0.7696 0.42977 0.60596 0.0
C2056 C 0.76899 0.47246 0.56059 0.0
C2057 C 0.75101 0.43205 0.60796 0.0
C2058 C 0.74153 0.45442 0.58707 0.0
C2059 C 0.7409 0.49773 0.54231 0.0
C2060 C 0.74983 0.5179 0.51823 0.0
C2061 C 0.75035 0.47487 0.5633 0.0
C2062 C 0.76834 0.51463 0.51547 0.0
C2063 C 0.7778 0.49237 0.53644 0.0
H2064 H 0.9944 0.32865 0.57931 0.0
H2065 H 0.04446 0.36961 0.61348 0.0
H2066 H 0.06022 0.33125 0.57543 0.0
H2067 H 0.05995 0.28558 0.5321 0.0
H2068 H 1.00977 0.24548 0.49759 0.0
H2069 H 0.99411 0.28346 0.53598 0.0
C2070 C 1.00876 0.32907 0.57862 0.0
C2071 C 1.01814 0.35226 0.59937 0.0
C2072 C 1.01782 0.3069 0.55647 0.0
C2073 C 0.03679 0.35253 0.59763 0.0
C2074 C 0.04587 0.33037 0.57593 0.0
C2075 C 0.04559 0.28514 0.53301 0.0
C2076 C 0.03612 0.26254 0.51185 0.0
C2077 C 0.03655 0.30743 0.55514 0.0
C2078 C 1.01748 0.26254 0.51341 0.0
C2079 C 1.00846 0.2843 0.53546 0.0
H2080 H 0.78403 0.17232 0.85155 0.0
H2081 H 0.72992 0.20117 0.83188 0.0
H2082 H 0.73991 0.24286 0.78997 0.0
H2083 H 0.76411 0.27268 0.7595 0.0
H2084 H 0.81829 0.24573 0.7808 0.0
H2085 H 0.80826 0.20208 0.8209 0.0
C2086 C 0.77441 0.18748 0.83787 0.0
C2087 C 0.75619 0.18341 0.84506 0.0
C2088 C 0.7803 0.21203 0.81397 0.0
C2089 C 0.74401 0.20379 0.82723 0.0
C2090 C 0.74972 0.22767 0.80311 0.0
C2091 C 0.77373 0.25712 0.77277 0.0
C2092 C 0.79198 0.2626 0.7669 0.0
C2093 C 0.76785 0.23228 0.79638 0.0
C2094 C 0.80419 0.24227 0.78468 0.0
C2095 C 0.79845 0.21719 0.8077 0.0
H2096 H 0.52221 1.01278 0.76061 0.0
H2097 H 0.46885 0.04834 0.77755 0.0
H2098 H 0.47963 0.09093 0.81766 0.0
H2099 H 0.50411 0.11715 0.84971 0.0
H2100 H 0.5574 0.0805 0.83426 0.0
H2101 H 0.54682 0.03961 0.79229 0.0
C2102 C 0.51297 0.03002 0.77291 0.0
C2103 C 0.49471 0.02724 0.76589 0.0
C2104 C 0.51925 0.05431 0.79654 0.0
C2105 C 0.48295 0.0497 0.78239 0.0
C2106 C 0.48911 0.07417 0.80542 0.0
C2107 C 0.51344 0.10049 0.83693 0.0
C2108 C 0.53157 0.10203 0.84536 0.0
C2109 C 0.50722 0.0766 0.81293 0.0
C2110 C 0.54337 0.07975 0.82869 0.0
C2111 C 0.53733 0.05637 0.80452 0.0
H2112 H 0.8109 0.02958 0.48246 0.0
H2113 H 0.76284 1.01651 0.53896 0.0
H2114 H 0.74696 0.05385 0.50007 0.0
H2115 H 0.74664 0.09095 0.44984 0.0
H2116 H 0.79474 0.10296 0.39316 0.0
H2117 H 0.81047 0.06568 0.43199 0.0
C2118 C 0.79697 0.03503 0.48639 0.0
C2119 C 0.78817 0.02028 0.51386 0.0
C2120 C 0.78782 0.05646 0.46371 0.0
C2121 C 0.77004 0.02749 0.51821 0.0
C2122 C 0.7609 0.04887 0.49588 0.0
C2123 C 0.76052 0.08519 0.44581 0.0
C2124 C 0.76943 0.10025 0.41853 0.0
C2125 C 0.76962 0.06351 0.46844 0.0
C2126 C 0.78751 0.09247 0.41408 0.0
C2127 C 0.79656 0.07093 0.43629 0.0
H2128 H 0.5276 0.27295 0.51755 0.0
H2129 H 0.4737 0.25133 0.48846 0.0
H2130 H 0.48412 0.21144 0.44583 0.0
H2131 H 0.50848 0.1836 0.41535 0.0
H2132 H 0.56253 0.20513 0.44371 0.0
H2133 H 0.55216 0.24411 0.48728 0.0
C2134 C 0.51814 0.25927 0.50207 0.0
C2135 C 0.49983 0.26521 0.5065 0.0
C2136 C 0.52427 0.23646 0.47702 0.0
C2137 C 0.48783 0.24742 0.48583 0.0
C2138 C 0.49379 0.22454 0.46128 0.0
C2139 C 0.51805 0.19647 0.43121 0.0
C2140 C 0.53635 0.19118 0.42586 0.0
C2141 C 0.51198 0.21897 0.45645 0.0
C2142 C 0.5484 0.20884 0.44662 0.0
C2143 C 0.54246 0.23107 0.47184 0.0
H2144 H 0.27794 0.7684 0.2599 0.0
H2145 H 0.22359 0.7914 0.23599 0.0
H2146 H 0.23329 0.8361 0.19675 0.0
H2147 H 0.25731 0.86791 0.16743 0.0
H2148 H 0.31165 0.84279 0.18916 0.0
H2149 H 0.30196 0.80027 0.23063 0.0
C2150 C 0.26823 0.78334 0.24625 0.0
C2151 C 0.25002 0.7764 0.2511 0.0
C2152 C 0.27393 0.80881 0.22306 0.0
C2153 C 0.23767 0.79593 0.23284 0.0
C2154 C 0.24322 0.82165 0.21032 0.0
C2155 C 0.26702 0.85339 0.1815 0.0
C2156 C 0.28523 0.85875 0.1751 0.0
C2157 C 0.26132 0.82825 0.205 0.0
C2158 C 0.29758 0.8392 0.19335 0.0
C2159 C 0.29203 0.81482 0.21716 0.0
H2160 H 0.56338 1.00508 0.23497 0.0
H2161 H 0.51363 0.0356 0.27843 0.0
H2162 H 0.4978 0.99532 0.24194 0.0
H2163 H 0.49792 0.95112 0.19737 0.0
H2164 H 0.54775 0.92052 0.15411 0.0
H2165 H 0.56351 0.96052 0.19078 0.0
C2166 C 0.54907 1.00293 0.23652 0.0
C2167 C 0.53978 0.02359 0.25959 0.0
C2168 C 0.53998 0.97943 0.21541 0.0
C2169 C 0.52121 0.02018 0.26109 0.0
C2170 C 0.51211 0.99708 0.24012 0.0
C2171 C 0.51222 0.95326 0.19577 0.0
C2172 C 0.52152 0.9324 0.17278 0.0
C2173 C 0.52132 0.97655 0.21709 0.0
C2174 C 0.54013 0.93557 0.17168 0.0
C2175 C 0.54921 0.95873 0.19259 0.0
H2176 H 0.29482 0.95203 0.57521 0.0
H2177 H 0.2465 0.93421 0.62986 0.0
H2178 H 0.23053 0.97298 0.59264 0.0
H2179 H 0.22996 1.01175 0.5439 0.0
H2180 H 0.27822 0.0298 0.48916 0.0
H2181 H 0.29434 0.99163 0.52684 0.0
C2182 C 0.28084 0.95684 0.57915 0.0
C2183 C 0.27194 0.93978 0.60533 0.0
C2184 C 0.2716 0.97928 0.55742 0.0
C2185 C 0.25372 0.94634 0.60972 0.0
C2186 C 0.24454 0.96871 0.58846 0.0
C2187 C 0.244 1.0073 0.54016 0.0
C2188 C 0.25278 0.02367 0.51352 0.0
C2189 C 0.25328 0.98517 0.56205 0.0
C2190 C 0.27103 1.01759 0.5093 0.0
C2191 C 0.28031 0.99572 0.53093 0.0
H2192 H 0.48937 0.83273 0.58757 0.0
H2193 H 0.53955 0.86808 0.62635 0.0
H2194 H 0.55518 0.82929 0.58853 0.0
H2195 H 0.55483 0.78511 0.54373 0.0
H2196 H 0.50456 0.75044 0.50481 0.0
H2197 H 0.48899 0.78856 0.54321 0.0
C2198 C 0.50372 0.83179 0.58799 0.0
C2199 C 0.51315 0.85368 0.60994 0.0
C2200 C 0.51274 0.80935 0.56593 0.0
C2201 C 0.53182 0.85213 0.60958 0.0
C2202 C 0.54083 0.82971 0.58798 0.0
C2203 C 0.54047 0.78585 0.54368 0.0
C2204 C 0.53096 0.76474 0.52119 0.0
C2205 C 0.53147 0.80824 0.56589 0.0
C2206 C 0.51232 0.76629 0.52162 0.0
C2207 C 0.50334 0.78816 0.54369 0.0
H2208 H 0.73739 0.71302 0.34329 0.0
H2209 H 0.7862 0.66161 0.36883 0.0
H2210 H 0.80262 0.70036 0.33172 0.0
H2211 H 0.8033 0.74908 0.29138 0.0
H2212 H 0.75434 0.79941 0.26495 0.0
H2213 H 0.73804 0.7614 0.30286 0.0
C2214 C 0.75163 0.71038 0.34089 0.0
C2215 C 0.76044 0.6841 0.3589 0.0
C2216 C 0.76108 0.73276 0.3192 0.0
C2217 C 0.77893 0.68109 0.35505 0.0
C2218 C 0.7884 0.70346 0.33389 0.0
C2219 C 0.78908 0.75181 0.294 0.0
C2220 C 0.78013 0.77727 0.27523 0.0
C2221 C 0.77964 0.72939 0.31572 0.0
C2222 C 0.76164 0.78012 0.27891 0.0
C2223 C 0.75226 0.75833 0.30068 0.0
H2224 H 0.47804 0.53406 0.28805 0.0
H2225 H 0.52819 0.51 0.24246 0.0
H2226 H 0.5434 0.5491 0.28065 0.0
H2227 H 0.54275 0.59035 0.32739 0.0
H2228 H 0.49266 0.61526 0.37276 0.0
H2229 H 0.47735 0.5762 0.33449 0.0
C2230 C 0.49228 0.53744 0.28642 0.0
C2231 C 0.50188 0.51892 0.26223 0.0
C2232 C 0.50107 0.56032 0.30856 0.0
C2233 C 0.52037 0.52381 0.26063 0.0
C2234 C 0.52915 0.54622 0.28259 0.0
C2235 C 0.52849 0.58712 0.32907 0.0
C2236 C 0.51896 0.60599 0.3531 0.0
C2237 C 0.51967 0.56458 0.30675 0.0
C2238 C 0.50042 0.60158 0.3544 0.0
C2239 C 0.49161 0.57902 0.33255 0.0
H2240 H 0.78752 0.61551 0.92417 0.0
H2241 H 0.73362 0.5849 0.9451 0.0
H2242 H 0.74399 0.54228 0.98567 0.0
H2243 H 0.76847 0.51246 0.01471 0.0
H2244 H 0.82246 0.54079 0.99161 0.0
H2245 H 0.81206 0.58514 0.95281 0.0
C2246 C 0.77805 0.59972 0.93784 0.0
C2247 C 0.75977 0.60364 0.93157 0.0
C2248 C 0.78416 0.57457 0.96079 0.0
C2249 C 0.74774 0.58246 0.94924 0.0
C2250 C 0.75368 0.55804 0.97253 0.0
C2251 C 0.77797 0.52841 1.00127 0.0
C2252 C 0.79627 0.52318 1.00628 0.0
C2253 C 0.77187 0.55364 0.97842 0.0
C2254 C 0.80832 0.54403 0.98833 0.0
C2255 C 0.80237 0.56953 0.96609 0.0
H2256 H 0.50699 0.6863 0.91475 0.0
H2257 H 0.5608 0.693 0.95013 0.0
H2258 H 0.55158 0.7333 0.99342 0.0
H2259 H 0.52815 0.7674 0.02157 0.0
H2260 H 0.47434 0.75941 0.98643 0.0
H2261 H 0.48361 0.71892 0.94347 0.0
C2262 C 0.51671 0.69618 0.93211 0.0
C2263 C 0.53464 0.68649 0.92874 0.0
C2264 C 0.5113 0.71935 0.95727 0.0
C2265 C 0.54697 0.70025 0.95147 0.0
C2266 C 0.54169 0.72325 0.9765 0.0
C2267 C 0.51846 0.75673 1.00456 0.0
C2268 C 0.50054 0.76659 1.00744 0.0
C2269 C 0.52389 0.73317 0.97963 0.0
C2270 C 0.48821 0.75238 0.98505 0.0
C2271 C 0.4935 0.72915 0.96032 0.0
H2272 H 0.23241 0.28561 0.73113 0.0
H2273 H 0.28244 0.25066 0.77002 0.0
H2274 H 0.29824 0.28982 0.73235 0.0
H2275 H 0.29804 0.33429 0.68802 0.0
H2276 H 0.24802 0.37057 0.65022 0.0
H2277 H 0.2322 0.33111 0.68763 0.0
C2278 C 0.24677 0.28657 0.73138 0.0
C2279 C 0.25617 0.26503 0.75349 0.0
C2280 C 0.25585 0.3096 0.70976 0.0
C2281 C 0.2748 0.26689 0.75345 0.0
C2282 C 0.28389 0.28931 0.7318 0.0
C2283 C 0.28368 0.33349 0.68787 0.0
C2284 C 0.27431 0.35559 0.6662 0.0
C2285 C 0.27459 0.3108 0.70978 0.0
C2286 C 0.25566 0.35431 0.66678 0.0
C2287 C 0.24656 0.33154 0.68811 0.0
H2288 H 0.56017 0.49982 0.73778 0.0
H2289 H 0.51032 0.54536 0.76638 0.0
H2290 H 0.49458 0.50573 0.72919 0.0
H2291 H 0.49476 0.45763 0.68861 0.0
H2292 H 0.54457 0.41155 0.66038 0.0
H2293 H 0.56031 0.45125 0.69742 0.0
C2294 C 0.54586 0.50117 0.73581 0.0
C2295 C 0.5365 0.5258 0.75493 0.0
C2296 C 0.53679 0.47788 0.71449 0.0
C2297 C 0.51793 0.52681 0.7521 0.0
C2298 C 0.50888 0.50407 0.73077 0.0
C2299 C 0.50907 0.45631 0.69036 0.0
C2300 C 0.51835 0.43127 0.6715 0.0
C2301 C 0.51814 0.47942 0.71183 0.0
C2302 C 0.53692 0.42996 0.67474 0.0
C2303 C 0.54601 0.45295 0.69583 0.0
H2304 H 0.29479 0.45045 0.07094 0.0
H2305 H 0.24558 0.41386 0.11309 0.0
H2306 H 0.22898 0.45222 0.07626 0.0
H2307 H 0.22832 0.49698 0.03225 0.0
H2308 H 0.27746 0.53184 0.9885 0.0
H2309 H 0.29406 0.49364 0.02546 0.0
C2310 C 0.28044 0.45095 0.07209 0.0
C2311 C 0.27149 0.42921 0.09485 0.0
C2312 C 0.2709 0.47286 0.05042 0.0
C2313 C 0.25285 0.42999 0.09568 0.0
C2314 C 0.24332 0.45208 0.07467 0.0
C2315 C 0.24265 0.49615 0.03076 0.0
C2316 C 0.25159 0.51742 1.0076 0.0
C2317 C 0.25218 0.4737 0.05193 0.0
C2318 C 0.27019 0.51576 1.00595 0.0
C2319 C 0.27973 0.49394 0.0272 0.0
H2320 H 0.5602 0.28659 0.03777 0.0
H2321 H 0.51069 0.24884 0.998 0.0
H2322 H 0.49434 0.28741 0.03479 0.0
H2323 H 0.4938 0.33223 0.07851 0.0
H2324 H 0.54316 0.37163 0.11735 0.0
H2325 H 0.55964 0.33262 0.08092 0.0
C2326 C 0.54584 0.28681 0.03715 0.0
C2327 C 0.53677 0.2646 0.01501 0.0
C2328 C 0.53638 0.30958 0.05832 0.0
C2329 C 0.51812 0.26554 0.0146 0.0
C2330 C 0.50869 0.28764 0.03575 0.0
C2331 C 0.50816 0.3322 0.07913 0.0
C2332 C 0.51714 0.35506 0.10081 0.0
C2333 C 0.51764 0.3098 0.05777 0.0
C2334 C 0.53581 0.35476 0.10079 0.0
C2335 C 0.54529 0.33225 0.08 0.0
loop_
_geom_bond_atom_site_label_1
_geom_bond_atom_site_label_2
_geom_bond_distance
_geom_bond_site_symmetry_2
_ccdc_geom_bond_type
Co0 N4 2.148 . S
Co0 N10 2.128 . S
Co0 N20 2.194 . S
Co0 O25 2.351 . S
Co0 O26 2.155 . S
Co0 O27 2.096 . S
C1 N4 1.301 . S
C1 N5 1.328 . S
C1 H6 0.930 . S
C2 C3 1.333 . S
C2 N4 1.317 . S
C2 H7 0.930 . S
C3 C2 1.333 . S
C3 N5 1.350 . S
C3 H29 0.931 . S
N4 Co0 2.148 . S
N4 C1 1.301 . S
N4 C2 1.317 . S
N5 C1 1.328 . S
N5 C3 1.350 . S
H6 C1 0.930 . S
H7 C2 0.930 . S
C8 O9 1.224 . S
C8 O27 1.247 . S
O9 C8 1.224 . S
N10 Co0 2.128 . S
N10 C11 1.355 . S
N10 C13 1.311 . S
C11 N10 1.355 . S
C11 C12 1.363 . S
C11 H23 0.929 . S
C12 C11 1.363 . S
C12 N14 1.375 . S
C12 H30 0.931 . S
C13 N10 1.311 . S
C13 N14 1.347 . S
C13 H24 0.929 . S
N14 C12 1.375 . S
N14 C13 1.347 . S
C15 C18 1.365 . S
C15 N20 1.328 . S
C15 H21 0.929 . S
C16 C17 1.362 . S
C16 C19 1.378 . S
C16 H31 0.929 . S
C17 C16 1.362 . S
C17 C18 1.366 . S
C18 C15 1.365 . S
C18 C17 1.366 . S
C18 H32 0.930 . S
C19 C16 1.378 . S
C19 N20 1.315 . S
C19 H22 0.930 . S
N20 Co0 2.194 . S
N20 C15 1.328 . S
N20 C19 1.315 . S
H21 C15 0.929 . S
H22 C19 0.930 . S
H23 C11 0.929 . S
H24 C13 0.929 . S
O25 Co0 2.351 . S
O25 C28 1.244 . S
O26 Co0 2.155 . S
O26 C28 1.240 . S
O27 Co0 2.096 . S
O27 C8 1.247 . S
C28 O25 1.244 . S
C28 O26 1.240 . S
H29 C3 0.931 . S
H30 C12 0.931 . S
H31 C16 0.929 . S
H32 C18 0.930 . S
Co33 N37 2.148 1_565 S
Co33 N43 2.128 . S
Co33 N53 2.194 . S
Co33 O58 2.351 1_565 S
Co33 O59 2.155 1_565 S
Co33 O60 2.096 . S
C34 N37 1.301 . S
C34 N38 1.328 . S
C34 H39 0.930 . S
C35 C36 1.333 . S
C35 N37 1.317 . S
C35 H40 0.930 . S
C36 C35 1.333 . S
C36 N38 1.350 . S
C36 H62 0.931 . S
N37 Co33 2.148 1_545 S
N37 C34 1.301 . S
N37 C35 1.317 . S
N38 C34 1.328 . S
N38 C36 1.350 . S
H39 C34 0.930 . S
H40 C35 0.930 . S
C41 O42 1.224 . S
C41 O60 1.247 . S
O42 C41 1.224 . S
N43 Co33 2.128 . S
N43 C44 1.355 . S
N43 C46 1.311 . S
C44 N43 1.355 . S
C44 C45 1.363 . S
C44 H56 0.929 . S
C45 C44 1.363 . S
C45 N47 1.375 . S
C45 H63 0.931 . S
C46 N43 1.311 . S
C46 N47 1.347 . S
C46 H57 0.929 . S
N47 C45 1.375 . S
N47 C46 1.347 . S
C48 C51 1.365 . S
C48 N53 1.328 . S
C48 H54 0.929 . S
C49 C50 1.362 . S
C49 C52 1.378 . S
C49 H64 0.929 . S
C50 C49 1.362 . S
C50 C51 1.366 . S
C51 C48 1.365 . S
C51 C50 1.366 . S
C51 H65 0.930 1_655 S
C52 C49 1.378 . S
C52 N53 1.315 . S
C52 H55 0.930 . S
N53 Co33 2.194 . S
N53 C48 1.328 . S
N53 C52 1.315 . S
H54 C48 0.929 . S
H55 C52 0.930 . S
H56 C44 0.929 . S
H57 C46 0.929 . S
O58 Co33 2.351 1_545 S
O58 C61 1.244 . S
O59 Co33 2.155 1_545 S
O59 C61 1.240 . S
O60 Co33 2.096 . S
O60 C41 1.247 . S
C61 O58 1.244 . S
C61 O59 1.240 . S
H62 C36 0.931 . S
H63 C45 0.931 . S
H64 C49 0.929 . S
H65 C51 0.930 1_455 S
Co66 N70 2.148 1_565 S
Co66 N76 2.128 1_554 S
Co66 N86 2.194 . S
Co66 O91 2.351 1_564 S
Co66 O92 2.155 1_564 S
Co66 O93 2.096 1_554 S
C67 N70 1.301 . S
C67 N71 1.328 . S
C67 H72 0.930 . S
C68 C69 1.333 . S
C68 N70 1.317 . S
C68 H73 0.930 . S
C69 C68 1.333 . S
C69 N71 1.350 . S
C69 H95 0.931 . S
N70 Co66 2.148 1_545 S
N70 C67 1.301 . S
N70 C68 1.317 . S
N71 C67 1.328 . S
N71 C69 1.350 . S
H72 C67 0.930 . S
H73 C68 0.930 . S
C74 O75 1.224 . S
C74 O93 1.247 1_554 S
O75 C74 1.224 . S
N76 Co66 2.128 1_556 S
N76 C77 1.355 . S
N76 C79 1.311 . S
C77 N76 1.355 . S
C77 C78 1.363 . S
C77 H89 0.929 . S
C78 C77 1.363 . S
C78 N80 1.375 . S
C78 H96 0.931 . S
C79 N76 1.311 . S
C79 N80 1.347 . S
C79 H90 0.929 . S
N80 C78 1.375 . S
N80 C79 1.347 . S
C81 C84 1.365 . S
C81 N86 1.328 . S
C81 H87 0.929 . S
C82 C83 1.362 . S
C82 C85 1.378 . S
C82 H97 0.929 . S
C83 C82 1.362 . S
C83 C84 1.366 . S
C84 C81 1.365 . S
C84 C83 1.366 . S
C84 H98 0.930 . S
C85 C82 1.378 . S
C85 N86 1.315 . S
C85 H88 0.930 . S
N86 Co66 2.194 . S
N86 C81 1.328 . S
N86 C85 1.315 . S
H87 C81 0.929 . S
H88 C85 0.930 . S
H89 C77 0.929 . S
H90 C79 0.929 . S
O91 Co66 2.351 1_546 S
O91 C94 1.244 . S
O92 Co66 2.155 1_546 S
O92 C94 1.240 . S
O93 Co66 2.096 1_556 S
O93 C74 1.247 1_556 S
C94 O91 1.244 . S
C94 O92 1.240 . S
H95 C69 0.931 . S
H96 C78 0.931 . S
H97 C82 0.929 . S
H98 C84 0.930 . S
Co99 N103 2.148 . S
Co99 N109 2.128 1_554 S
Co99 N119 2.194 . S
Co99 O124 2.351 1_554 S
Co99 O125 2.155 1_554 S
Co99 O126 2.096 1_554 S
C100 N103 1.301 . S
C100 N104 1.328 . S
C100 H105 0.930 . S
C101 C102 1.333 . S
C101 N103 1.317 . S
C101 H106 0.930 . S
C102 C101 1.333 . S
C102 N104 1.350 . S
C102 H128 0.931 . S
N103 Co99 2.148 . S
N103 C100 1.301 . S
N103 C101 1.317 . S
N104 C100 1.328 . S
N104 C102 1.350 . S
H105 C100 0.930 . S
H106 C101 0.930 . S
C107 O108 1.224 . S
C107 O126 1.247 1_554 S
O108 C107 1.224 . S
N109 Co99 2.128 1_556 S
N109 C110 1.355 . S
N109 C112 1.311 . S
C110 N109 1.355 . S
C110 C111 1.363 . S
C110 H122 0.929 . S
C111 C110 1.363 . S
C111 N113 1.375 . S
C111 H129 0.931 . S
C112 N109 1.311 . S
C112 N113 1.347 . S
C112 H123 0.929 . S
N113 C111 1.375 . S
N113 C112 1.347 . S
C114 C117 1.365 . S
C114 N119 1.328 . S
C114 H120 0.929 . S
C115 C116 1.362 . S
C115 C118 1.378 . S
C115 H130 0.929 . S
C116 C115 1.362 . S
C116 C117 1.366 . S
C117 C114 1.365 . S
C117 C116 1.366 . S
C117 H131 0.930 1_655 S
C118 C115 1.378 . S
C118 N119 1.315 . S
C118 H121 0.930 . S
N119 Co99 2.194 . S
N119 C114 1.328 . S
N119 C118 1.315 . S
H120 C114 0.929 . S
H121 C118 0.930 . S
H122 C110 0.929 . S
H123 C112 0.929 . S
O124 Co99 2.351 1_556 S
O124 C127 1.244 . S
O125 Co99 2.155 1_556 S
O125 C127 1.240 . S
O126 Co99 2.096 1_556 S
O126 C107 1.247 1_556 S
C127 O124 1.244 . S
C127 O125 1.240 . S
H128 C102 0.931 . S
H129 C111 0.931 . S
H130 C115 0.929 . S
H131 C117 0.930 1_455 S
Co132 N136 2.148 . S
Co132 N142 2.128 . S
Co132 N152 2.194 . S
Co132 O157 2.351 . S
Co132 O158 2.155 . S
Co132 O159 2.096 . S
C133 N136 1.301 . S
C133 N137 1.328 . S
C133 H138 0.930 . S
C134 C135 1.333 . S
C134 N136 1.317 . S
C134 H139 0.930 . S
C135 C134 1.333 . S
C135 N137 1.350 . S
C135 H161 0.931 . S
N136 Co132 2.148 . S
N136 C133 1.301 . S
N136 C134 1.317 . S
N137 C133 1.328 . S
N137 C135 1.350 . S
H138 C133 0.930 . S
H139 C134 0.930 . S
C140 O141 1.224 . S
C140 O159 1.247 . S
O141 C140 1.224 . S
N142 Co132 2.128 . S
N142 C143 1.355 . S
N142 C145 1.311 . S
C143 N142 1.355 . S
C143 C144 1.363 . S
C143 H155 0.929 . S
C144 C143 1.363 . S
C144 N146 1.375 . S
C144 H162 0.931 . S
C145 N142 1.311 . S
C145 N146 1.347 . S
C145 H156 0.929 . S
N146 C144 1.375 . S
N146 C145 1.347 . S
C147 C150 1.365 . S
C147 N152 1.328 . S
C147 H153 0.929 . S
C148 C149 1.362 . S
C148 C151 1.378 . S
C148 H163 0.929 . S
C149 C148 1.362 . S
C149 C150 1.366 . S
C150 C147 1.365 . S
C150 C149 1.366 . S
C150 H164 0.930 . S
C151 C148 1.378 . S
C151 N152 1.315 . S
C151 H154 0.930 . S
N152 Co132 2.194 . S
N152 C147 1.328 . S
N152 C151 1.315 . S
H153 C147 0.929 . S
H154 C151 0.930 . S
H155 C143 0.929 . S
H156 C145 0.929 . S
O157 Co132 2.351 . S
O157 C160 1.244 . S
O158 Co132 2.155 . S
O158 C160 1.240 . S
O159 Co132 2.096 . S
O159 C140 1.247 . S
C160 O157 1.244 . S
C160 O158 1.240 . S
H161 C135 0.931 . S
H162 C144 0.931 . S
H163 C148 0.929 . S
H164 C150 0.930 . S
Co165 N169 2.148 1_545 S
Co165 N175 2.128 . S
Co165 N185 2.194 . S
Co165 O190 2.351 1_545 S
Co165 O191 2.155 1_545 S
Co165 O192 2.096 . S
C166 N169 1.301 . S
C166 N170 1.328 . S
C166 H171 0.930 . S
C167 C168 1.333 . S
C167 N169 1.317 . S
C167 H172 0.930 . S
C168 C167 1.333 . S
C168 N170 1.350 . S
C168 H194 0.931 . S
N169 Co165 2.148 1_565 S
N169 C166 1.301 . S
N169 C167 1.317 . S
N170 C166 1.328 . S
N170 C168 1.350 . S
H171 C166 0.930 . S
H172 C167 0.930 . S
C173 O174 1.224 . S
C173 O192 1.247 . S
O174 C173 1.224 . S
N175 Co165 2.128 . S
N175 C176 1.355 . S
N175 C178 1.311 . S
C176 N175 1.355 . S
C176 C177 1.363 . S
C176 H188 0.929 . S
C177 C176 1.363 . S
C177 N179 1.375 . S
C177 H195 0.931 . S
C178 N175 1.311 . S
C178 N179 1.347 . S
C178 H189 0.929 . S
N179 C177 1.375 . S
N179 C178 1.347 . S
C180 C183 1.365 . S
C180 N185 1.328 . S
C180 H186 0.929 . S
C181 C182 1.362 . S
C181 C184 1.378 . S
C181 H196 0.929 . S
C182 C181 1.362 . S
C182 C183 1.366 . S
C183 C180 1.365 . S
C183 C182 1.366 . S
C183 H197 0.930 1_455 S
C184 C181 1.378 . S
C184 N185 1.315 . S
C184 H187 0.930 . S
N185 Co165 2.194 . S
N185 C180 1.328 . S
N185 C184 1.315 . S
H186 C180 0.929 . S
H187 C184 0.930 . S
H188 C176 0.929 . S
H189 C178 0.929 . S
O190 Co165 2.351 1_565 S
O190 C193 1.244 . S
O191 Co165 2.155 1_565 S
O191 C193 1.240 . S
O192 Co165 2.096 . S
O192 C173 1.247 . S
C193 O190 1.244 . S
C193 O191 1.240 . S
H194 C168 0.931 . S
H195 C177 0.931 . S
H196 C181 0.929 . S
H197 C183 0.930 1_655 S
Co198 N202 2.148 1_545 S
Co198 N208 2.128 1_556 S
Co198 N218 2.194 . S
Co198 O223 2.351 1_546 S
Co198 O224 2.155 1_546 S
Co198 O225 2.096 1_556 S
C199 N202 1.301 . S
C199 N203 1.328 . S
C199 H204 0.930 . S
C200 C201 1.333 . S
C200 N202 1.317 . S
C200 H205 0.930 . S
C201 C200 1.333 . S
C201 N203 1.350 . S
C201 H227 0.931 . S
N202 Co198 2.148 1_565 S
N202 C199 1.301 . S
N202 C200 1.317 . S
N203 C199 1.328 . S
N203 C201 1.350 . S
H204 C199 0.930 . S
H205 C200 0.930 . S
C206 O207 1.224 . S
C206 O225 1.247 1_556 S
O207 C206 1.224 . S
N208 Co198 2.128 1_554 S
N208 C209 1.355 . S
N208 C211 1.311 . S
C209 N208 1.355 . S
C209 C210 1.363 . S
C209 H221 0.929 . S
C210 C209 1.363 . S
C210 N212 1.375 . S
C210 H228 0.931 . S
C211 N208 1.311 . S
C211 N212 1.347 . S
C211 H222 0.929 . S
N212 C210 1.375 . S
N212 C211 1.347 . S
C213 C216 1.365 . S
C213 N218 1.328 . S
C213 H219 0.929 . S
C214 C215 1.362 . S
C214 C217 1.378 . S
C214 H229 0.929 . S
C215 C214 1.362 . S
C215 C216 1.366 . S
C216 C213 1.365 . S
C216 C215 1.366 . S
C216 H230 0.930 . S
C217 C214 1.378 . S
C217 N218 1.315 . S
C217 H220 0.930 . S
N218 Co198 2.194 . S
N218 C213 1.328 . S
N218 C217 1.315 . S
H219 C213 0.929 . S
H220 C217 0.930 . S
H221 C209 0.929 . S
H222 C211 0.929 . S
O223 Co198 2.351 1_564 S
O223 C226 1.244 . S
O224 Co198 2.155 1_564 S
O224 C226 1.240 . S
O225 Co198 2.096 1_554 S
O225 C206 1.247 1_554 S
C226 O223 1.244 . S
C226 O224 1.240 . S
H227 C201 0.931 . S
H228 C210 0.931 . S
H229 C214 0.929 . S
H230 C216 0.930 . S
Co231 N235 2.148 . S
Co231 N241 2.128 1_556 S
Co231 N251 2.194 . S
Co231 O256 2.351 1_556 S
Co231 O257 2.155 1_556 S
Co231 O258 2.096 1_556 S
C232 N235 1.301 . S
C232 N236 1.328 . S
C232 H237 0.930 . S
C233 C234 1.333 . S
C233 N235 1.317 . S
C233 H238 0.930 . S
C234 C233 1.333 . S
C234 N236 1.350 . S
C234 H260 0.931 . S
N235 Co231 2.148 . S
N235 C232 1.301 . S
N235 C233 1.317 . S
N236 C232 1.328 . S
N236 C234 1.350 . S
H237 C232 0.930 . S
H238 C233 0.930 . S
C239 O240 1.224 . S
C239 O258 1.247 1_556 S
O240 C239 1.224 . S
N241 Co231 2.128 1_554 S
N241 C242 1.355 . S
N241 C244 1.311 . S
C242 N241 1.355 . S
C242 C243 1.363 . S
C242 H254 0.929 . S
C243 C242 1.363 . S
C243 N245 1.375 . S
C243 H261 0.931 . S
C244 N241 1.311 . S
C244 N245 1.347 . S
C244 H255 0.929 . S
N245 C243 1.375 . S
N245 C244 1.347 . S
C246 C249 1.365 . S
C246 N251 1.328 . S
C246 H252 0.929 . S
C247 C248 1.362 . S
C247 C250 1.378 . S
C247 H262 0.929 . S
C248 C247 1.362 . S
C248 C249 1.366 . S
C249 C246 1.365 . S
C249 C248 1.366 . S
C249 H263 0.930 1_455 S
C250 C247 1.378 . S
C250 N251 1.315 . S
C250 H253 0.930 . S
N251 Co231 2.194 . S
N251 C246 1.328 . S
N251 C250 1.315 . S
H252 C246 0.929 . S
H253 C250 0.930 . S
H254 C242 0.929 . S
H255 C244 0.929 . S
O256 Co231 2.351 1_554 S
O256 C259 1.244 . S
O257 Co231 2.155 1_554 S
O257 C259 1.240 . S
O258 Co231 2.096 1_554 S
O258 C239 1.247 1_554 S
C259 O256 1.244 . S
C259 O257 1.240 . S
H260 C234 0.931 . S
H261 C243 0.931 . S
H262 C247 0.929 . S
H263 C249 0.930 1_655 S
Co264 N268 2.148 . S
Co264 N274 2.128 . S
Co264 N284 2.194 . S
Co264 O289 2.351 . S
Co264 O290 2.155 . S
Co264 O291 2.096 . S
C265 N268 1.301 . S
C265 N269 1.328 . S
C265 H270 0.930 . S
C266 C267 1.333 . S
C266 N268 1.317 . S
C266 H271 0.930 . S
C267 C266 1.333 . S
C267 N269 1.350 . S
C267 H293 0.931 . S
N268 Co264 2.148 . S
N268 C265 1.301 . S
N268 C266 1.317 . S
N269 C265 1.328 . S
N269 C267 1.350 . S
H270 C265 0.930 . S
H271 C266 0.930 . S
C272 O273 1.224 . S
C272 O291 1.247 . S
O273 C272 1.224 . S
N274 Co264 2.128 . S
N274 C275 1.355 . S
N274 C277 1.311 . S
C275 N274 1.355 . S
C275 C276 1.363 . S
C275 H287 0.929 . S
C276 C275 1.363 . S
C276 N278 1.375 . S
C276 H294 0.931 . S
C277 N274 1.311 . S
C277 N278 1.347 . S
C277 H288 0.929 . S
N278 C276 1.375 . S
N278 C277 1.347 . S
C279 C282 1.365 . S
C279 N284 1.328 . S
C279 H285 0.929 . S
C280 C281 1.362 . S
C280 C283 1.378 . S
C280 H295 0.929 . S
C281 C280 1.362 . S
C281 C282 1.366 . S
C282 C279 1.365 . S
C282 C281 1.366 . S
C282 H296 0.930 . S
C283 C280 1.378 . S
C283 N284 1.315 . S
C283 H286 0.930 . S
N284 Co264 2.194 . S
N284 C279 1.328 . S
N284 C283 1.315 . S
H285 C279 0.929 . S
H286 C283 0.930 . S
H287 C275 0.929 . S
H288 C277 0.929 . S
O289 Co264 2.351 . S
O289 C292 1.244 . S
O290 Co264 2.155 . S
O290 C292 1.240 . S
O291 Co264 2.096 . S
O291 C272 1.247 . S
C292 O289 1.244 . S
C292 O290 1.240 . S
H293 C267 0.931 . S
H294 C276 0.931 . S
H295 C280 0.929 . S
H296 C282 0.930 . S
Co297 N301 2.148 . S
Co297 N307 2.128 . S
Co297 N317 2.194 . S
Co297 O322 2.351 . S
Co297 O323 2.155 . S
Co297 O324 2.096 . S
C298 N301 1.301 . S
C298 N302 1.328 . S
C298 H303 0.930 . S
C299 C300 1.333 . S
C299 N301 1.317 . S
C299 H304 0.930 . S
C300 C299 1.333 . S
C300 N302 1.350 . S
C300 H326 0.931 . S
N301 Co297 2.148 . S
N301 C298 1.301 . S
N301 C299 1.317 . S
N302 C298 1.328 . S
N302 C300 1.350 . S
H303 C298 0.930 . S
H304 C299 0.930 . S
C305 O306 1.224 . S
C305 O324 1.247 . S
O306 C305 1.224 . S
N307 Co297 2.128 . S
N307 C308 1.355 . S
N307 C310 1.311 . S
C308 N307 1.355 . S
C308 C309 1.363 . S
C308 H320 0.929 . S
C309 C308 1.363 . S
C309 N311 1.375 . S
C309 H327 0.931 . S
C310 N307 1.311 . S
C310 N311 1.347 . S
C310 H321 0.929 . S
N311 C309 1.375 . S
N311 C310 1.347 . S
C312 C315 1.365 . S
C312 N317 1.328 . S
C312 H318 0.929 . S
C313 C314 1.362 . S
C313 C316 1.378 . S
C313 H328 0.929 . S
C314 C313 1.362 . S
C314 C315 1.366 . S
C315 C312 1.365 . S
C315 C314 1.366 . S
C315 H329 0.930 1_655 S
C316 C313 1.378 . S
C316 N317 1.315 . S
C316 H319 0.930 . S
N317 Co297 2.194 . S
N317 C312 1.328 . S
N317 C316 1.315 . S
H318 C312 0.929 . S
H319 C316 0.930 . S
H320 C308 0.929 . S
H321 C310 0.929 . S
O322 Co297 2.351 . S
O322 C325 1.244 . S
O323 Co297 2.155 . S
O323 C325 1.240 . S
O324 Co297 2.096 . S
O324 C305 1.247 . S
C325 O322 1.244 . S
C325 O323 1.240 . S
H326 C300 0.931 . S
H327 C309 0.931 . S
H328 C313 0.929 . S
H329 C315 0.930 1_455 S
Co330 N334 2.148 . S
Co330 N340 2.128 . S
Co330 N350 2.194 . S
Co330 O355 2.351 . S
Co330 O356 2.155 . S
Co330 O357 2.096 . S
C331 N334 1.301 . S
C331 N335 1.328 . S
C331 H336 0.930 . S
C332 C333 1.333 . S
C332 N334 1.317 . S
C332 H337 0.930 . S
C333 C332 1.333 . S
C333 N335 1.350 . S
C333 H359 0.931 . S
N334 Co330 2.148 . S
N334 C331 1.301 . S
N334 C332 1.317 . S
N335 C331 1.328 . S
N335 C333 1.350 . S
H336 C331 0.930 . S
H337 C332 0.930 . S
C338 O339 1.224 . S
C338 O357 1.247 . S
O339 C338 1.224 . S
N340 Co330 2.128 . S
N340 C341 1.355 . S
N340 C343 1.311 . S
C341 N340 1.355 . S
C341 C342 1.363 . S
C341 H353 0.929 . S
C342 C341 1.363 . S
C342 N344 1.375 . S
C342 H360 0.931 . S
C343 N340 1.311 . S
C343 N344 1.347 . S
C343 H354 0.929 . S
N344 C342 1.375 . S
N344 C343 1.347 . S
C345 C348 1.365 . S
C345 N350 1.328 . S
C345 H351 0.929 . S
C346 C347 1.362 . S
C346 C349 1.378 . S
C346 H361 0.929 . S
C347 C346 1.362 . S
C347 C348 1.366 . S
C348 C345 1.365 . S
C348 C347 1.366 . S
C348 H362 0.930 . S
C349 C346 1.378 . S
C349 N350 1.315 . S
C349 H352 0.930 . S
N350 Co330 2.194 . S
N350 C345 1.328 . S
N350 C349 1.315 . S
H351 C345 0.929 . S
H352 C349 0.930 . S
H353 C341 0.929 . S
H354 C343 0.929 . S
O355 Co330 2.351 . S
O355 C358 1.244 . S
O356 Co330 2.155 . S
O356 C358 1.240 . S
O357 Co330 2.096 . S
O357 C338 1.247 . S
C358 O355 1.244 . S
C358 O356 1.240 . S
H359 C333 0.931 . S
H360 C342 0.931 . S
H361 C346 0.929 . S
H362 C348 0.930 . S
Co363 N367 2.148 . S
Co363 N373 2.128 . S
Co363 N383 2.194 . S
Co363 O388 2.351 . S
Co363 O389 2.155 . S
Co363 O390 2.096 . S
C364 N367 1.301 . S
C364 N368 1.328 . S
C364 H369 0.930 . S
C365 C366 1.333 . S
C365 N367 1.317 . S
C365 H370 0.930 . S
C366 C365 1.333 . S
C366 N368 1.350 . S
C366 H392 0.931 . S
N367 Co363 2.148 . S
N367 C364 1.301 . S
N367 C365 1.317 . S
N368 C364 1.328 . S
N368 C366 1.350 . S
H369 C364 0.930 . S
H370 C365 0.930 . S
C371 O372 1.224 . S
C371 O390 1.247 . S
O372 C371 1.224 . S
N373 Co363 2.128 . S
N373 C374 1.355 . S
N373 C376 1.311 . S
C374 N373 1.355 . S
C374 C375 1.363 . S
C374 H386 0.929 . S
C375 C374 1.363 . S
C375 N377 1.375 . S
C375 H393 0.931 . S
C376 N373 1.311 . S
C376 N377 1.347 . S
C376 H387 0.929 . S
N377 C375 1.375 . S
N377 C376 1.347 . S
C378 C381 1.365 . S
C378 N383 1.328 . S
C378 H384 0.929 . S
C379 C380 1.362 . S
C379 C382 1.378 . S
C379 H394 0.929 . S
C380 C379 1.362 . S
C380 C381 1.366 . S
C381 C378 1.365 . S
C381 C380 1.366 . S
C381 H395 0.930 1_655 S
C382 C379 1.378 . S
C382 N383 1.315 . S
C382 H385 0.930 . S
N383 Co363 2.194 . S
N383 C378 1.328 . S
N383 C382 1.315 . S
H384 C378 0.929 . S
H385 C382 0.930 . S
H386 C374 0.929 . S
H387 C376 0.929 . S
O388 Co363 2.351 . S
O388 C391 1.244 . S
O389 Co363 2.155 . S
O389 C391 1.240 . S
O390 Co363 2.096 . S
O390 C371 1.247 . S
C391 O388 1.244 . S
C391 O389 1.240 . S
H392 C366 0.931 . S
H393 C375 0.931 . S
H394 C379 0.929 . S
H395 C381 0.930 1_455 S
Co396 N400 2.148 . S
Co396 N406 2.128 . S
Co396 N416 2.194 . S
Co396 O421 2.351 . S
Co396 O422 2.155 . S
Co396 O423 2.096 . S
C397 N400 1.301 . S
C397 N401 1.328 . S
C397 H402 0.930 . S
C398 C399 1.333 . S
C398 N400 1.317 . S
C398 H403 0.930 . S
C399 C398 1.333 . S
C399 N401 1.350 . S
C399 H425 0.931 . S
N400 Co396 2.148 . S
N400 C397 1.301 . S
N400 C398 1.317 . S
N401 C397 1.328 . S
N401 C399 1.350 . S
H402 C397 0.930 . S
H403 C398 0.930 . S
C404 O405 1.224 . S
C404 O423 1.247 . S
O405 C404 1.224 . S
N406 Co396 2.128 . S
N406 C407 1.355 . S
N406 C409 1.311 . S
C407 N406 1.355 . S
C407 C408 1.363 . S
C407 H419 0.929 . S
C408 C407 1.363 . S
C408 N410 1.375 . S
C408 H426 0.931 . S
C409 N406 1.311 . S
C409 N410 1.347 . S
C409 H420 0.929 . S
N410 C408 1.375 . S
N410 C409 1.347 . S
C411 C414 1.365 . S
C411 N416 1.328 . S
C411 H417 0.929 . S
C412 C413 1.362 . S
C412 C415 1.378 . S
C412 H427 0.929 . S
C413 C412 1.362 . S
C413 C414 1.366 . S
C414 C411 1.365 . S
C414 C413 1.366 . S
C414 H428 0.930 . S
C415 C412 1.378 . S
C415 N416 1.315 . S
C415 H418 0.930 . S
N416 Co396 2.194 . S
N416 C411 1.328 . S
N416 C415 1.315 . S
H417 C411 0.929 . S
H418 C415 0.930 . S
H419 C407 0.929 . S
H420 C409 0.929 . S
O421 Co396 2.351 . S
O421 C424 1.244 . S
O422 Co396 2.155 . S
O422 C424 1.240 . S
O423 Co396 2.096 . S
O423 C404 1.247 . S
C424 O421 1.244 . S
C424 O422 1.240 . S
H425 C399 0.931 . S
H426 C408 0.931 . S
H427 C412 0.929 . S
H428 C414 0.930 . S
Co429 N433 2.148 . S
Co429 N439 2.128 . S
Co429 N449 2.194 . S
Co429 O454 2.351 . S
Co429 O455 2.155 . S
Co429 O456 2.096 . S
C430 N433 1.301 . S
C430 N434 1.328 . S
C430 H435 0.930 . S
C431 C432 1.333 . S
C431 N433 1.317 . S
C431 H436 0.930 . S
C432 C431 1.333 . S
C432 N434 1.350 . S
C432 H458 0.931 . S
N433 Co429 2.148 . S
N433 C430 1.301 . S
N433 C431 1.317 . S
N434 C430 1.328 . S
N434 C432 1.350 . S
H435 C430 0.930 . S
H436 C431 0.930 . S
C437 O438 1.224 . S
C437 O456 1.247 . S
O438 C437 1.224 . S
N439 Co429 2.128 . S
N439 C440 1.355 . S
N439 C442 1.311 . S
C440 N439 1.355 . S
C440 C441 1.363 . S
C440 H452 0.929 . S
C441 C440 1.363 . S
C441 N443 1.375 . S
C441 H459 0.931 . S
C442 N439 1.311 . S
C442 N443 1.347 . S
C442 H453 0.929 . S
N443 C441 1.375 . S
N443 C442 1.347 . S
C444 C447 1.365 . S
C444 N449 1.328 . S
C444 H450 0.929 . S
C445 C446 1.362 . S
C445 C448 1.378 . S
C445 H460 0.929 . S
C446 C445 1.362 . S
C446 C447 1.366 . S
C447 C444 1.365 . S
C447 C446 1.366 . S
C447 H461 0.930 1_455 S
C448 C445 1.378 . S
C448 N449 1.315 . S
C448 H451 0.930 . S
N449 Co429 2.194 . S
N449 C444 1.328 . S
N449 C448 1.315 . S
H450 C444 0.929 . S
H451 C448 0.930 . S
H452 C440 0.929 . S
H453 C442 0.929 . S
O454 Co429 2.351 . S
O454 C457 1.244 . S
O455 Co429 2.155 . S
O455 C457 1.240 . S
O456 Co429 2.096 . S
O456 C437 1.247 . S
C457 O454 1.244 . S
C457 O455 1.240 . S
H458 C432 0.931 . S
H459 C441 0.931 . S
H460 C445 0.929 . S
H461 C447 0.930 1_655 S
Co462 N466 2.148 . S
Co462 N472 2.128 . S
Co462 N482 2.194 . S
Co462 O487 2.351 . S
Co462 O488 2.155 . S
Co462 O489 2.096 . S
C463 N466 1.301 . S
C463 N467 1.328 . S
C463 H468 0.930 . S
C464 C465 1.333 . S
C464 N466 1.317 . S
C464 H469 0.930 . S
C465 C464 1.333 . S
C465 N467 1.350 . S
C465 H491 0.931 . S
N466 Co462 2.148 . S
N466 C463 1.301 . S
N466 C464 1.317 . S
N467 C463 1.328 . S
N467 C465 1.350 . S
H468 C463 0.930 . S
H469 C464 0.930 . S
C470 O471 1.224 . S
C470 O489 1.247 . S
O471 C470 1.224 . S
N472 Co462 2.128 . S
N472 C473 1.355 . S
N472 C475 1.311 . S
C473 N472 1.355 . S
C473 C474 1.363 . S
C473 H485 0.929 . S
C474 C473 1.363 . S
C474 N476 1.375 . S
C474 H492 0.931 . S
C475 N472 1.311 . S
C475 N476 1.347 . S
C475 H486 0.929 . S
N476 C474 1.375 . S
N476 C475 1.347 . S
C477 C480 1.365 . S
C477 N482 1.328 . S
C477 H483 0.929 . S
C478 C479 1.362 . S
C478 C481 1.378 . S
C478 H493 0.929 . S
C479 C478 1.362 . S
C479 C480 1.366 . S
C480 C477 1.365 . S
C480 C479 1.366 . S
C480 H494 0.930 . S
C481 C478 1.378 . S
C481 N482 1.315 . S
C481 H484 0.930 . S
N482 Co462 2.194 . S
N482 C477 1.328 . S
N482 C481 1.315 . S
H483 C477 0.929 . S
H484 C481 0.930 . S
H485 C473 0.929 . S
H486 C475 0.929 . S
O487 Co462 2.351 . S
O487 C490 1.244 . S
O488 Co462 2.155 . S
O488 C490 1.240 . S
O489 Co462 2.096 . S
O489 C470 1.247 . S
C490 O487 1.244 . S
C490 O488 1.240 . S
H491 C465 0.931 . S
H492 C474 0.931 . S
H493 C478 0.929 . S
H494 C480 0.930 . S
Co495 N499 2.148 . S
Co495 N505 2.128 . S
Co495 N515 2.194 . S
Co495 O520 2.351 . S
Co495 O521 2.155 . S
Co495 O522 2.096 . S
C496 N499 1.301 . S
C496 N500 1.328 . S
C496 H501 0.930 . S
C497 C498 1.333 . S
C497 N499 1.317 . S
C497 H502 0.930 . S
C498 C497 1.333 . S
C498 N500 1.350 . S
C498 H524 0.931 . S
N499 Co495 2.148 . S
N499 C496 1.301 . S
N499 C497 1.317 . S
N500 C496 1.328 . S
N500 C498 1.350 . S
H501 C496 0.930 . S
H502 C497 0.930 . S
C503 O504 1.224 . S
C503 O522 1.247 . S
O504 C503 1.224 . S
N505 Co495 2.128 . S
N505 C506 1.355 . S
N505 C508 1.311 . S
C506 N505 1.355 . S
C506 C507 1.363 . S
C506 H518 0.929 . S
C507 C506 1.363 . S
C507 N509 1.375 . S
C507 H525 0.931 . S
C508 N505 1.311 . S
C508 N509 1.347 . S
C508 H519 0.929 . S
N509 C507 1.375 . S
N509 C508 1.347 . S
C510 C513 1.365 . S
C510 N515 1.328 . S
C510 H516 0.929 . S
C511 C512 1.362 . S
C511 C514 1.378 . S
C511 H526 0.929 . S
C512 C511 1.362 . S
C512 C513 1.366 . S
C513 C510 1.365 . S
C513 C512 1.366 . S
C513 H527 0.930 1_455 S
C514 C511 1.378 . S
C514 N515 1.315 . S
C514 H517 0.930 . S
N515 Co495 2.194 . S
N515 C510 1.328 . S
N515 C514 1.315 . S
H516 C510 0.929 . S
H517 C514 0.930 . S
H518 C506 0.929 . S
H519 C508 0.929 . S
O520 Co495 2.351 . S
O520 C523 1.244 . S
O521 Co495 2.155 . S
O521 C523 1.240 . S
O522 Co495 2.096 . S
O522 C503 1.247 . S
C523 O520 1.244 . S
C523 O521 1.240 . S
H524 C498 0.931 . S
H525 C507 0.931 . S
H526 C511 0.929 . S
H527 C513 0.930 1_655 S
Co528 N532 2.148 . S
Co528 N538 2.128 . S
Co528 N548 2.194 . S
Co528 O553 2.351 . S
Co528 O554 2.155 . S
Co528 O555 2.096 . S
C529 N532 1.301 . S
C529 N533 1.328 . S
C529 H534 0.930 . S
C530 C531 1.333 . S
C530 N532 1.317 . S
C530 H535 0.930 . S
C531 C530 1.333 . S
C531 N533 1.350 . S
C531 H557 0.931 . S
N532 Co528 2.148 . S
N532 C529 1.301 . S
N532 C530 1.317 . S
N533 C529 1.328 . S
N533 C531 1.350 . S
H534 C529 0.930 . S
H535 C530 0.930 . S
C536 O537 1.224 . S
C536 O555 1.247 . S
O537 C536 1.224 . S
N538 Co528 2.128 . S
N538 C539 1.355 . S
N538 C541 1.311 . S
C539 N538 1.355 . S
C539 C540 1.363 . S
C539 H551 0.929 . S
C540 C539 1.363 . S
C540 N542 1.375 . S
C540 H558 0.931 . S
C541 N538 1.311 . S
C541 N542 1.347 . S
C541 H552 0.929 . S
N542 C540 1.375 . S
N542 C541 1.347 . S
C543 C546 1.365 . S
C543 N548 1.328 . S
C543 H549 0.929 . S
C544 C545 1.362 . S
C544 C547 1.378 . S
C544 H559 0.929 . S
C545 C544 1.362 . S
C545 C546 1.366 . S
C546 C543 1.365 . S
C546 C545 1.366 . S
C546 H560 0.930 . S
C547 C544 1.378 . S
C547 N548 1.315 . S
C547 H550 0.930 . S
N548 Co528 2.194 . S
N548 C543 1.328 . S
N548 C547 1.315 . S
H549 C543 0.929 . S
H550 C547 0.930 . S
H551 C539 0.929 . S
H552 C541 0.929 . S
O553 Co528 2.351 . S
O553 C556 1.244 . S
O554 Co528 2.155 . S
O554 C556 1.240 . S
O555 Co528 2.096 . S
O555 C536 1.247 . S
C556 O553 1.244 . S
C556 O554 1.240 . S
H557 C531 0.931 . S
H558 C540 0.931 . S
H559 C544 0.929 . S
H560 C546 0.930 . S
Co561 N565 2.148 1_565 S
Co561 N571 2.128 . S
Co561 N581 2.194 . S
Co561 O586 2.351 1_565 S
Co561 O587 2.155 1_565 S
Co561 O588 2.096 . S
C562 N565 1.301 . S
C562 N566 1.328 . S
C562 H567 0.930 . S
C563 C564 1.333 . S
C563 N565 1.317 . S
C563 H568 0.930 . S
C564 C563 1.333 . S
C564 N566 1.350 . S
C564 H590 0.931 . S
N565 Co561 2.148 1_545 S
N565 C562 1.301 . S
N565 C563 1.317 . S
N566 C562 1.328 . S
N566 C564 1.350 . S
H567 C562 0.930 . S
H568 C563 0.930 . S
C569 O570 1.224 . S
C569 O588 1.247 . S
O570 C569 1.224 . S
N571 Co561 2.128 . S
N571 C572 1.355 . S
N571 C574 1.311 . S
C572 N571 1.355 . S
C572 C573 1.363 . S
C572 H584 0.929 . S
C573 C572 1.363 . S
C573 N575 1.375 . S
C573 H591 0.931 . S
C574 N571 1.311 . S
C574 N575 1.347 . S
C574 H585 0.929 . S
N575 C573 1.375 . S
N575 C574 1.347 . S
C576 C579 1.365 . S
C576 N581 1.328 . S
C576 H582 0.929 . S
C577 C578 1.362 . S
C577 C580 1.378 . S
C577 H592 0.929 . S
C578 C577 1.362 . S
C578 C579 1.366 . S
C579 C576 1.365 . S
C579 C578 1.366 . S
C579 H593 0.930 . S
C580 C577 1.378 . S
C580 N581 1.315 . S
C580 H583 0.930 . S
N581 Co561 2.194 . S
N581 C576 1.328 . S
N581 C580 1.315 . S
H582 C576 0.929 . S
H583 C580 0.930 . S
H584 C572 0.929 . S
H585 C574 0.929 . S
O586 Co561 2.351 1_545 S
O586 C589 1.244 . S
O587 Co561 2.155 1_545 S
O587 C589 1.240 . S
O588 Co561 2.096 . S
O588 C569 1.247 . S
C589 O586 1.244 . S
C589 O587 1.240 . S
H590 C564 0.931 . S
H591 C573 0.931 . S
H592 C577 0.929 . S
H593 C579 0.930 . S
Co594 N598 2.148 1_565 S
Co594 N604 2.128 . S
Co594 N614 2.194 . S
Co594 O619 2.351 1_565 S
Co594 O620 2.155 1_565 S
Co594 O621 2.096 . S
C595 N598 1.301 . S
C595 N599 1.328 . S
C595 H600 0.930 . S
C596 C597 1.333 . S
C596 N598 1.317 . S
C596 H601 0.930 . S
C597 C596 1.333 . S
C597 N599 1.350 . S
C597 H623 0.931 . S
N598 Co594 2.148 1_545 S
N598 C595 1.301 . S
N598 C596 1.317 . S
N599 C595 1.328 . S
N599 C597 1.350 . S
H600 C595 0.930 . S
H601 C596 0.930 . S
C602 O603 1.224 . S
C602 O621 1.247 . S
O603 C602 1.224 . S
N604 Co594 2.128 . S
N604 C605 1.355 . S
N604 C607 1.311 . S
C605 N604 1.355 . S
C605 C606 1.363 . S
C605 H617 0.929 . S
C606 C605 1.363 . S
C606 N608 1.375 . S
C606 H624 0.931 . S
C607 N604 1.311 . S
C607 N608 1.347 . S
C607 H618 0.929 . S
N608 C606 1.375 . S
N608 C607 1.347 . S
C609 C612 1.365 . S
C609 N614 1.328 . S
C609 H615 0.929 . S
C610 C611 1.362 . S
C610 C613 1.378 . S
C610 H625 0.929 . S
C611 C610 1.362 . S
C611 C612 1.366 . S
C612 C609 1.365 . S
C612 C611 1.366 . S
C612 H626 0.930 . S
C613 C610 1.378 . S
C613 N614 1.315 . S
C613 H616 0.930 . S
N614 Co594 2.194 . S
N614 C609 1.328 . S
N614 C613 1.315 . S
H615 C609 0.929 . S
H616 C613 0.930 . S
H617 C605 0.929 . S
H618 C607 0.929 . S
O619 Co594 2.351 1_545 S
O619 C622 1.244 . S
O620 Co594 2.155 1_545 S
O620 C622 1.240 . S
O621 Co594 2.096 . S
O621 C602 1.247 . S
C622 O619 1.244 . S
C622 O620 1.240 . S
H623 C597 0.931 . S
H624 C606 0.931 . S
H625 C610 0.929 . S
H626 C612 0.930 . S
Co627 N631 2.148 . S
Co627 N637 2.128 . S
Co627 N647 2.194 . S
Co627 O652 2.351 . S
Co627 O653 2.155 . S
Co627 O654 2.096 . S
C628 N631 1.301 . S
C628 N632 1.328 . S
C628 H633 0.930 . S
C629 C630 1.333 . S
C629 N631 1.317 . S
C629 H634 0.930 . S
C630 C629 1.333 . S
C630 N632 1.350 . S
C630 H656 0.931 . S
N631 Co627 2.148 . S
N631 C628 1.301 . S
N631 C629 1.317 . S
N632 C628 1.328 . S
N632 C630 1.350 . S
H633 C628 0.930 . S
H634 C629 0.930 . S
C635 O636 1.224 . S
C635 O654 1.247 . S
O636 C635 1.224 . S
N637 Co627 2.128 . S
N637 C638 1.355 . S
N637 C640 1.311 . S
C638 N637 1.355 . S
C638 C639 1.363 . S
C638 H650 0.929 . S
C639 C638 1.363 . S
C639 N641 1.375 . S
C639 H657 0.931 . S
C640 N637 1.311 . S
C640 N641 1.347 . S
C640 H651 0.929 . S
N641 C639 1.375 . S
N641 C640 1.347 . S
C642 C645 1.365 . S
C642 N647 1.328 . S
C642 H648 0.929 . S
C643 C644 1.362 . S
C643 C646 1.378 . S
C643 H658 0.929 . S
C644 C643 1.362 . S
C644 C645 1.366 . S
C645 C642 1.365 . S
C645 C644 1.366 . S
C645 H659 0.930 . S
C646 C643 1.378 . S
C646 N647 1.315 . S
C646 H649 0.930 . S
N647 Co627 2.194 . S
N647 C642 1.328 . S
N647 C646 1.315 . S
H648 C642 0.929 . S
H649 C646 0.930 . S
H650 C638 0.929 . S
H651 C640 0.929 . S
O652 Co627 2.351 . S
O652 C655 1.244 . S
O653 Co627 2.155 . S
O653 C655 1.240 . S
O654 Co627 2.096 . S
O654 C635 1.247 . S
C655 O652 1.244 . S
C655 O653 1.240 . S
H656 C630 0.931 . S
H657 C639 0.931 . S
H658 C643 0.929 . S
H659 C645 0.930 . S
Co660 N664 2.148 . S
Co660 N670 2.128 . S
Co660 N680 2.194 . S
Co660 O685 2.351 . S
Co660 O686 2.155 . S
Co660 O687 2.096 . S
C661 N664 1.301 . S
C661 N665 1.328 . S
C661 H666 0.930 . S
C662 C663 1.333 . S
C662 N664 1.317 . S
C662 H667 0.930 . S
C663 C662 1.333 . S
C663 N665 1.350 . S
C663 H689 0.931 . S
N664 Co660 2.148 . S
N664 C661 1.301 . S
N664 C662 1.317 . S
N665 C661 1.328 . S
N665 C663 1.350 . S
H666 C661 0.930 . S
H667 C662 0.930 . S
C668 O669 1.224 . S
C668 O687 1.247 . S
O669 C668 1.224 . S
N670 Co660 2.128 . S
N670 C671 1.355 . S
N670 C673 1.311 . S
C671 N670 1.355 . S
C671 C672 1.363 . S
C671 H683 0.929 . S
C672 C671 1.363 . S
C672 N674 1.375 . S
C672 H690 0.931 . S
C673 N670 1.311 . S
C673 N674 1.347 . S
C673 H684 0.929 . S
N674 C672 1.375 . S
N674 C673 1.347 . S
C675 C678 1.365 . S
C675 N680 1.328 . S
C675 H681 0.929 . S
C676 C677 1.362 . S
C676 C679 1.378 . S
C676 H691 0.929 . S
C677 C676 1.362 . S
C677 C678 1.366 . S
C678 C675 1.365 . S
C678 C677 1.366 . S
C678 H692 0.930 . S
C679 C676 1.378 . S
C679 N680 1.315 . S
C679 H682 0.930 . S
N680 Co660 2.194 . S
N680 C675 1.328 . S
N680 C679 1.315 . S
H681 C675 0.929 . S
H682 C679 0.930 . S
H683 C671 0.929 . S
H684 C673 0.929 . S
O685 Co660 2.351 . S
O685 C688 1.244 . S
O686 Co660 2.155 . S
O686 C688 1.240 . S
O687 Co660 2.096 . S
O687 C668 1.247 . S
C688 O685 1.244 . S
C688 O686 1.240 . S
H689 C663 0.931 . S
H690 C672 0.931 . S
H691 C676 0.929 . S
H692 C678 0.930 . S
Co693 N697 2.148 1_545 S
Co693 N703 2.128 . S
Co693 N713 2.194 . S
Co693 O718 2.351 1_545 S
Co693 O719 2.155 1_545 S
Co693 O720 2.096 . S
C694 N697 1.301 . S
C694 N698 1.328 . S
C694 H699 0.930 . S
C695 C696 1.333 . S
C695 N697 1.317 . S
C695 H700 0.930 . S
C696 C695 1.333 . S
C696 N698 1.350 . S
C696 H722 0.931 . S
N697 Co693 2.148 1_565 S
N697 C694 1.301 . S
N697 C695 1.317 . S
N698 C694 1.328 . S
N698 C696 1.350 . S
H699 C694 0.930 . S
H700 C695 0.930 . S
C701 O702 1.224 . S
C701 O720 1.247 . S
O702 C701 1.224 . S
N703 Co693 2.128 . S
N703 C704 1.355 . S
N703 C706 1.311 . S
C704 N703 1.355 . S
C704 C705 1.363 . S
C704 H716 0.929 . S
C705 C704 1.363 . S
C705 N707 1.375 . S
C705 H723 0.931 . S
C706 N703 1.311 . S
C706 N707 1.347 . S
C706 H717 0.929 . S
N707 C705 1.375 . S
N707 C706 1.347 . S
C708 C711 1.365 . S
C708 N713 1.328 . S
C708 H714 0.929 . S
C709 C710 1.362 . S
C709 C712 1.378 . S
C709 H724 0.929 . S
C710 C709 1.362 . S
C710 C711 1.366 . S
C711 C708 1.365 . S
C711 C710 1.366 . S
C711 H725 0.930 . S
C712 C709 1.378 . S
C712 N713 1.315 . S
C712 H715 0.930 . S
N713 Co693 2.194 . S
N713 C708 1.328 . S
N713 C712 1.315 . S
H714 C708 0.929 . S
H715 C712 0.930 . S
H716 C704 0.929 . S
H717 C706 0.929 . S
O718 Co693 2.351 1_565 S
O718 C721 1.244 . S
O719 Co693 2.155 1_565 S
O719 C721 1.240 . S
O720 Co693 2.096 . S
O720 C701 1.247 . S
C721 O718 1.244 . S
C721 O719 1.240 . S
H722 C696 0.931 . S
H723 C705 0.931 . S
H724 C709 0.929 . S
H725 C711 0.930 . S
Co726 N730 2.148 1_545 S
Co726 N736 2.128 . S
Co726 N746 2.194 . S
Co726 O751 2.351 1_545 S
Co726 O752 2.155 1_545 S
Co726 O753 2.096 . S
C727 N730 1.301 . S
C727 N731 1.328 . S
C727 H732 0.930 . S
C728 C729 1.333 . S
C728 N730 1.317 . S
C728 H733 0.930 . S
C729 C728 1.333 . S
C729 N731 1.350 . S
C729 H755 0.931 . S
N730 Co726 2.148 1_565 S
N730 C727 1.301 . S
N730 C728 1.317 . S
N731 C727 1.328 . S
N731 C729 1.350 . S
H732 C727 0.930 . S
H733 C728 0.930 . S
C734 O735 1.224 . S
C734 O753 1.247 . S
O735 C734 1.224 . S
N736 Co726 2.128 . S
N736 C737 1.355 . S
N736 C739 1.311 . S
C737 N736 1.355 . S
C737 C738 1.363 . S
C737 H749 0.929 . S
C738 C737 1.363 . S
C738 N740 1.375 . S
C738 H756 0.931 . S
C739 N736 1.311 . S
C739 N740 1.347 . S
C739 H750 0.929 . S
N740 C738 1.375 . S
N740 C739 1.347 . S
C741 C744 1.365 . S
C741 N746 1.328 . S
C741 H747 0.929 . S
C742 C743 1.362 . S
C742 C745 1.378 . S
C742 H757 0.929 . S
C743 C742 1.362 . S
C743 C744 1.366 . S
C744 C741 1.365 . S
C744 C743 1.366 . S
C744 H758 0.930 . S
C745 C742 1.378 . S
C745 N746 1.315 . S
C745 H748 0.930 . S
N746 Co726 2.194 . S
N746 C741 1.328 . S
N746 C745 1.315 . S
H747 C741 0.929 . S
H748 C745 0.930 . S
H749 C737 0.929 . S
H750 C739 0.929 . S
O751 Co726 2.351 1_565 S
O751 C754 1.244 . S
O752 Co726 2.155 1_565 S
O752 C754 1.240 . S
O753 Co726 2.096 . S
O753 C734 1.247 . S
C754 O751 1.244 . S
C754 O752 1.240 . S
H755 C729 0.931 . S
H756 C738 0.931 . S
H757 C742 0.929 . S
H758 C744 0.930 . S
Co759 N763 2.148 . S
Co759 N769 2.128 . S
Co759 N779 2.194 . S
Co759 O784 2.351 . S
Co759 O785 2.155 . S
Co759 O786 2.096 . S
C760 N763 1.301 . S
C760 N764 1.328 . S
C760 H765 0.930 . S
C761 C762 1.333 . S
C761 N763 1.317 . S
C761 H766 0.930 . S
C762 C761 1.333 . S
C762 N764 1.350 . S
C762 H788 0.931 . S
N763 Co759 2.148 . S
N763 C760 1.301 . S
N763 C761 1.317 . S
N764 C760 1.328 . S
N764 C762 1.350 . S
H765 C760 0.930 . S
H766 C761 0.930 . S
C767 O768 1.224 . S
C767 O786 1.247 . S
O768 C767 1.224 . S
N769 Co759 2.128 . S
N769 C770 1.355 . S
N769 C772 1.311 . S
C770 N769 1.355 . S
C770 C771 1.363 . S
C770 H782 0.929 . S
C771 C770 1.363 . S
C771 N773 1.375 . S
C771 H789 0.931 . S
C772 N769 1.311 . S
C772 N773 1.347 . S
C772 H783 0.929 . S
N773 C771 1.375 . S
N773 C772 1.347 . S
C774 C777 1.365 . S
C774 N779 1.328 . S
C774 H780 0.929 . S
C775 C776 1.362 . S
C775 C778 1.378 . S
C775 H790 0.929 . S
C776 C775 1.362 . S
C776 C777 1.366 . S
C777 C774 1.365 . S
C777 C776 1.366 . S
C777 H791 0.930 . S
C778 C775 1.378 . S
C778 N779 1.315 . S
C778 H781 0.930 . S
N779 Co759 2.194 . S
N779 C774 1.328 . S
N779 C778 1.315 . S
H780 C774 0.929 . S
H781 C778 0.930 . S
H782 C770 0.929 . S
H783 C772 0.929 . S
O784 Co759 2.351 . S
O784 C787 1.244 . S
O785 Co759 2.155 . S
O785 C787 1.240 . S
O786 Co759 2.096 . S
O786 C767 1.247 . S
C787 O784 1.244 . S
C787 O785 1.240 . S
H788 C762 0.931 . S
H789 C771 0.931 . S
H790 C775 0.929 . S
H791 C777 0.930 . S
Co792 N796 2.148 . S
Co792 N802 2.128 . S
Co792 N812 2.194 . S
Co792 O817 2.351 . S
Co792 O818 2.155 . S
Co792 O819 2.096 . S
C793 N796 1.301 . S
C793 N797 1.328 . S
C793 H798 0.930 . S
C794 C795 1.333 . S
C794 N796 1.317 . S
C794 H799 0.930 . S
C795 C794 1.333 . S
C795 N797 1.350 . S
C795 H821 0.931 . S
N796 Co792 2.148 . S
N796 C793 1.301 . S
N796 C794 1.317 . S
N797 C793 1.328 . S
N797 C795 1.350 . S
H798 C793 0.930 . S
H799 C794 0.930 . S
C800 O801 1.224 . S
C800 O819 1.247 . S
O801 C800 1.224 . S
N802 Co792 2.128 . S
N802 C803 1.355 . S
N802 C805 1.311 . S
C803 N802 1.355 . S
C803 C804 1.363 . S
C803 H815 0.929 . S
C804 C803 1.363 . S
C804 N806 1.375 . S
C804 H822 0.931 . S
C805 N802 1.311 . S
C805 N806 1.347 . S
C805 H816 0.929 . S
N806 C804 1.375 . S
N806 C805 1.347 . S
C807 C810 1.365 . S
C807 N812 1.328 . S
C807 H813 0.929 . S
C808 C809 1.362 . S
C808 C811 1.378 . S
C808 H823 0.929 . S
C809 C808 1.362 . S
C809 C810 1.366 . S
C810 C807 1.365 . S
C810 C809 1.366 . S
C810 H824 0.930 . S
C811 C808 1.378 . S
C811 N812 1.315 . S
C811 H814 0.930 . S
N812 Co792 2.194 . S
N812 C807 1.328 . S
N812 C811 1.315 . S
H813 C807 0.929 . S
H814 C811 0.930 . S
H815 C803 0.929 . S
H816 C805 0.929 . S
O817 Co792 2.351 . S
O817 C820 1.244 . S
O818 Co792 2.155 . S
O818 C820 1.240 . S
O819 Co792 2.096 . S
O819 C800 1.247 . S
C820 O817 1.244 . S
C820 O818 1.240 . S
H821 C795 0.931 . S
H822 C804 0.931 . S
H823 C808 0.929 . S
H824 C810 0.930 . S
Co825 N829 2.148 . S
Co825 N835 2.128 . S
Co825 N845 2.194 . S
Co825 O850 2.351 . S
Co825 O851 2.155 . S
Co825 O852 2.096 . S
C826 N829 1.301 . S
C826 N830 1.328 . S
C826 H831 0.930 . S
C827 C828 1.333 . S
C827 N829 1.317 . S
C827 H832 0.930 . S
C828 C827 1.333 . S
C828 N830 1.350 . S
C828 H854 0.931 . S
N829 Co825 2.148 . S
N829 C826 1.301 . S
N829 C827 1.317 . S
N830 C826 1.328 . S
N830 C828 1.350 . S
H831 C826 0.930 . S
H832 C827 0.930 . S
C833 O834 1.224 . S
C833 O852 1.247 . S
O834 C833 1.224 . S
N835 Co825 2.128 . S
N835 C836 1.355 . S
N835 C838 1.311 . S
C836 N835 1.355 . S
C836 C837 1.363 . S
C836 H848 0.929 . S
C837 C836 1.363 . S
C837 N839 1.375 . S
C837 H855 0.931 . S
C838 N835 1.311 . S
C838 N839 1.347 . S
C838 H849 0.929 . S
N839 C837 1.375 . S
N839 C838 1.347 . S
C840 C843 1.365 . S
C840 N845 1.328 . S
C840 H846 0.929 . S
C841 C842 1.362 . S
C841 C844 1.378 . S
C841 H856 0.929 . S
C842 C841 1.362 . S
C842 C843 1.366 . S
C843 C840 1.365 . S
C843 C842 1.366 . S
C843 H857 0.930 . S
C844 C841 1.378 . S
C844 N845 1.315 . S
C844 H847 0.930 . S
N845 Co825 2.194 . S
N845 C840 1.328 . S
N845 C844 1.315 . S
H846 C840 0.929 . S
H847 C844 0.930 . S
H848 C836 0.929 . S
H849 C838 0.929 . S
O850 Co825 2.351 . S
O850 C853 1.244 . S
O851 Co825 2.155 . S
O851 C853 1.240 . S
O852 Co825 2.096 . S
O852 C833 1.247 . S
C853 O850 1.244 . S
C853 O851 1.240 . S
H854 C828 0.931 . S
H855 C837 0.931 . S
H856 C841 0.929 . S
H857 C843 0.930 . S
Co858 N862 2.148 . S
Co858 N868 2.128 1_554 S
Co858 N878 2.194 . S
Co858 O883 2.351 1_554 S
Co858 O884 2.155 1_554 S
Co858 O885 2.096 1_554 S
C859 N862 1.301 . S
C859 N863 1.328 . S
C859 H864 0.930 . S
C860 C861 1.333 . S
C860 N862 1.317 . S
C860 H865 0.930 . S
C861 C860 1.333 . S
C861 N863 1.350 . S
C861 H887 0.931 . S
N862 Co858 2.148 . S
N862 C859 1.301 . S
N862 C860 1.317 . S
N863 C859 1.328 . S
N863 C861 1.350 . S
H864 C859 0.930 . S
H865 C860 0.930 . S
C866 O867 1.224 . S
C866 O885 1.247 1_554 S
O867 C866 1.224 . S
N868 Co858 2.128 1_556 S
N868 C869 1.355 . S
N868 C871 1.311 . S
C869 N868 1.355 . S
C869 C870 1.363 . S
C869 H881 0.929 . S
C870 C869 1.363 . S
C870 N872 1.375 . S
C870 H888 0.931 . S
C871 N868 1.311 . S
C871 N872 1.347 . S
C871 H882 0.929 . S
N872 C870 1.375 . S
N872 C871 1.347 . S
C873 C876 1.365 . S
C873 N878 1.328 . S
C873 H879 0.929 . S
C874 C875 1.362 . S
C874 C877 1.378 . S
C874 H889 0.929 . S
C875 C874 1.362 . S
C875 C876 1.366 . S
C876 C873 1.365 . S
C876 C875 1.366 . S
C876 H890 0.930 . S
C877 C874 1.378 . S
C877 N878 1.315 . S
C877 H880 0.930 . S
N878 Co858 2.194 . S
N878 C873 1.328 . S
N878 C877 1.315 . S
H879 C873 0.929 . S
H880 C877 0.930 . S
H881 C869 0.929 . S
H882 C871 0.929 . S
O883 Co858 2.351 1_556 S
O883 C886 1.244 . S
O884 Co858 2.155 1_556 S
O884 C886 1.240 . S
O885 Co858 2.096 1_556 S
O885 C866 1.247 1_556 S
C886 O883 1.244 . S
C886 O884 1.240 . S
H887 C861 0.931 . S
H888 C870 0.931 . S
H889 C874 0.929 . S
H890 C876 0.930 . S
Co891 N895 2.148 . S
Co891 N901 2.128 1_554 S
Co891 N911 2.194 . S
Co891 O916 2.351 1_554 S
Co891 O917 2.155 1_554 S
Co891 O918 2.096 1_554 S
C892 N895 1.301 . S
C892 N896 1.328 . S
C892 H897 0.930 . S
C893 C894 1.333 . S
C893 N895 1.317 . S
C893 H898 0.930 . S
C894 C893 1.333 . S
C894 N896 1.350 . S
C894 H920 0.931 . S
N895 Co891 2.148 . S
N895 C892 1.301 . S
N895 C893 1.317 . S
N896 C892 1.328 . S
N896 C894 1.350 . S
H897 C892 0.930 . S
H898 C893 0.930 . S
C899 O900 1.224 . S
C899 O918 1.247 1_554 S
O900 C899 1.224 . S
N901 Co891 2.128 1_556 S
N901 C902 1.355 . S
N901 C904 1.311 . S
C902 N901 1.355 . S
C902 C903 1.363 . S
C902 H914 0.929 . S
C903 C902 1.363 . S
C903 N905 1.375 . S
C903 H921 0.931 . S
C904 N901 1.311 . S
C904 N905 1.347 . S
C904 H915 0.929 . S
N905 C903 1.375 . S
N905 C904 1.347 . S
C906 C909 1.365 . S
C906 N911 1.328 . S
C906 H912 0.929 . S
C907 C908 1.362 . S
C907 C910 1.378 . S
C907 H922 0.929 . S
C908 C907 1.362 . S
C908 C909 1.366 . S
C909 C906 1.365 . S
C909 C908 1.366 . S
C909 H923 0.930 . S
C910 C907 1.378 . S
C910 N911 1.315 . S
C910 H913 0.930 . S
N911 Co891 2.194 . S
N911 C906 1.328 . S
N911 C910 1.315 . S
H912 C906 0.929 . S
H913 C910 0.930 . S
H914 C902 0.929 . S
H915 C904 0.929 . S
O916 Co891 2.351 1_556 S
O916 C919 1.244 . S
O917 Co891 2.155 1_556 S
O917 C919 1.240 . S
O918 Co891 2.096 1_556 S
O918 C899 1.247 1_556 S
C919 O916 1.244 . S
C919 O917 1.240 . S
H920 C894 0.931 . S
H921 C903 0.931 . S
H922 C907 0.929 . S
H923 C909 0.930 . S
Co924 N928 2.148 . S
Co924 N934 2.128 . S
Co924 N944 2.194 . S
Co924 O949 2.351 . S
Co924 O950 2.155 . S
Co924 O951 2.096 . S
C925 N928 1.301 . S
C925 N929 1.328 . S
C925 H930 0.930 . S
C926 C927 1.333 . S
C926 N928 1.317 . S
C926 H931 0.930 . S
C927 C926 1.333 . S
C927 N929 1.350 . S
C927 H953 0.931 . S
N928 Co924 2.148 . S
N928 C925 1.301 . S
N928 C926 1.317 . S
N929 C925 1.328 . S
N929 C927 1.350 . S
H930 C925 0.930 . S
H931 C926 0.930 . S
C932 O933 1.224 . S
C932 O951 1.247 . S
O933 C932 1.224 . S
N934 Co924 2.128 . S
N934 C935 1.355 . S
N934 C937 1.311 . S
C935 N934 1.355 . S
C935 C936 1.363 . S
C935 H947 0.929 . S
C936 C935 1.363 . S
C936 N938 1.375 . S
C936 H954 0.931 . S
C937 N934 1.311 . S
C937 N938 1.347 . S
C937 H948 0.929 . S
N938 C936 1.375 . S
N938 C937 1.347 . S
C939 C942 1.365 . S
C939 N944 1.328 . S
C939 H945 0.929 . S
C940 C941 1.362 . S
C940 C943 1.378 . S
C940 H955 0.929 . S
C941 C940 1.362 . S
C941 C942 1.366 . S
C942 C939 1.365 . S
C942 C941 1.366 . S
C942 H956 0.930 . S
C943 C940 1.378 . S
C943 N944 1.315 . S
C943 H946 0.930 . S
N944 Co924 2.194 . S
N944 C939 1.328 . S
N944 C943 1.315 . S
H945 C939 0.929 . S
H946 C943 0.930 . S
H947 C935 0.929 . S
H948 C937 0.929 . S
O949 Co924 2.351 . S
O949 C952 1.244 . S
O950 Co924 2.155 . S
O950 C952 1.240 . S
O951 Co924 2.096 . S
O951 C932 1.247 . S
C952 O949 1.244 . S
C952 O950 1.240 . S
H953 C927 0.931 . S
H954 C936 0.931 . S
H955 C940 0.929 . S
H956 C942 0.930 . S
Co957 N961 2.148 . S
Co957 N967 2.128 . S
Co957 N977 2.194 . S
Co957 O982 2.351 . S
Co957 O983 2.155 . S
Co957 O984 2.096 . S
C958 N961 1.301 . S
C958 N962 1.328 . S
C958 H963 0.930 . S
C959 C960 1.333 . S
C959 N961 1.317 . S
C959 H964 0.930 . S
C960 C959 1.333 . S
C960 N962 1.350 . S
C960 H986 0.931 . S
N961 Co957 2.148 . S
N961 C958 1.301 . S
N961 C959 1.317 . S
N962 C958 1.328 . S
N962 C960 1.350 . S
H963 C958 0.930 . S
H964 C959 0.930 . S
C965 O966 1.224 . S
C965 O984 1.247 . S
O966 C965 1.224 . S
N967 Co957 2.128 . S
N967 C968 1.355 . S
N967 C970 1.311 . S
C968 N967 1.355 . S
C968 C969 1.363 . S
C968 H980 0.929 . S
C969 C968 1.363 . S
C969 N971 1.375 . S
C969 H987 0.931 . S
C970 N967 1.311 . S
C970 N971 1.347 . S
C970 H981 0.929 . S
N971 C969 1.375 . S
N971 C970 1.347 . S
C972 C975 1.365 . S
C972 N977 1.328 . S
C972 H978 0.929 . S
C973 C974 1.362 . S
C973 C976 1.378 . S
C973 H988 0.929 . S
C974 C973 1.362 . S
C974 C975 1.366 . S
C975 C972 1.365 . S
C975 C974 1.366 . S
C975 H989 0.930 . S
C976 C973 1.378 . S
C976 N977 1.315 . S
C976 H979 0.930 . S
N977 Co957 2.194 . S
N977 C972 1.328 . S
N977 C976 1.315 . S
H978 C972 0.929 . S
H979 C976 0.930 . S
H980 C968 0.929 . S
H981 C970 0.929 . S
O982 Co957 2.351 . S
O982 C985 1.244 . S
O983 Co957 2.155 . S
O983 C985 1.240 . S
O984 Co957 2.096 . S
O984 C965 1.247 . S
C985 O982 1.244 . S
C985 O983 1.240 . S
H986 C960 0.931 . S
H987 C969 0.931 . S
H988 C973 0.929 . S
H989 C975 0.930 . S
Co990 N994 2.148 . S
Co990 N1000 2.128 1_556 S
Co990 N1010 2.194 . S
Co990 O1015 2.351 1_556 S
Co990 O1016 2.155 1_556 S
Co990 O1017 2.096 1_556 S
C991 N994 1.301 . S
C991 N995 1.328 . S
C991 H996 0.930 . S
C992 C993 1.333 . S
C992 N994 1.317 . S
C992 H997 0.930 . S
C993 C992 1.333 . S
C993 N995 1.350 . S
C993 H1019 0.931 . S
N994 Co990 2.148 . S
N994 C991 1.301 . S
N994 C992 1.317 . S
N995 C991 1.328 . S
N995 C993 1.350 . S
H996 C991 0.930 . S
H997 C992 0.930 . S
C998 O999 1.224 . S
C998 O1017 1.247 1_556 S
O999 C998 1.224 . S
N1000 Co990 2.128 1_554 S
N1000 C1001 1.355 . S
N1000 C1003 1.311 . S
C1001 N1000 1.355 . S
C1001 C1002 1.363 . S
C1001 H1013 0.929 . S
C1002 C1001 1.363 . S
C1002 N1004 1.375 . S
C1002 H1020 0.931 . S
C1003 N1000 1.311 . S
C1003 N1004 1.347 . S
C1003 H1014 0.929 . S
N1004 C1002 1.375 . S
N1004 C1003 1.347 . S
C1005 C1008 1.365 . S
C1005 N1010 1.328 . S
C1005 H1011 0.929 . S
C1006 C1007 1.362 . S
C1006 C1009 1.378 . S
C1006 H1021 0.929 . S
C1007 C1006 1.362 . S
C1007 C1008 1.366 . S
C1008 C1005 1.365 . S
C1008 C1007 1.366 . S
C1008 H1022 0.930 . S
C1009 C1006 1.378 . S
C1009 N1010 1.315 . S
C1009 H1012 0.930 . S
N1010 Co990 2.194 . S
N1010 C1005 1.328 . S
N1010 C1009 1.315 . S
H1011 C1005 0.929 . S
H1012 C1009 0.930 . S
H1013 C1001 0.929 . S
H1014 C1003 0.929 . S
O1015 Co990 2.351 1_554 S
O1015 C1018 1.244 . S
O1016 Co990 2.155 1_554 S
O1016 C1018 1.240 . S
O1017 Co990 2.096 1_554 S
O1017 C998 1.247 1_554 S
C1018 O1015 1.244 . S
C1018 O1016 1.240 . S
H1019 C993 0.931 . S
H1020 C1002 0.931 . S
H1021 C1006 0.929 . S
H1022 C1008 0.930 . S
Co1023 N1027 2.148 . S
Co1023 N1033 2.128 1_556 S
Co1023 N1043 2.194 . S
Co1023 O1048 2.351 1_556 S
Co1023 O1049 2.155 1_556 S
Co1023 O1050 2.096 1_556 S
C1024 N1027 1.301 . S
C1024 N1028 1.328 . S
C1024 H1029 0.930 . S
C1025 C1026 1.333 . S
C1025 N1027 1.317 . S
C1025 H1030 0.930 . S
C1026 C1025 1.333 . S
C1026 N1028 1.350 . S
C1026 H1052 0.931 . S
N1027 Co1023 2.148 . S
N1027 C1024 1.301 . S
N1027 C1025 1.317 . S
N1028 C1024 1.328 . S
N1028 C1026 1.350 . S
H1029 C1024 0.930 . S
H1030 C1025 0.930 . S
C1031 O1032 1.224 . S
C1031 O1050 1.247 1_556 S
O1032 C1031 1.224 . S
N1033 Co1023 2.128 1_554 S
N1033 C1034 1.355 . S
N1033 C1036 1.311 . S
C1034 N1033 1.355 . S
C1034 C1035 1.363 . S
C1034 H1046 0.929 . S
C1035 C1034 1.363 . S
C1035 N1037 1.375 . S
C1035 H1053 0.931 . S
C1036 N1033 1.311 . S
C1036 N1037 1.347 . S
C1036 H1047 0.929 . S
N1037 C1035 1.375 . S
N1037 C1036 1.347 . S
C1038 C1041 1.365 . S
C1038 N1043 1.328 . S
C1038 H1044 0.929 . S
C1039 C1040 1.362 . S
C1039 C1042 1.378 . S
C1039 H1054 0.929 . S
C1040 C1039 1.362 . S
C1040 C1041 1.366 . S
C1041 C1038 1.365 . S
C1041 C1040 1.366 . S
C1041 H1055 0.930 . S
C1042 C1039 1.378 . S
C1042 N1043 1.315 . S
C1042 H1045 0.930 . S
N1043 Co1023 2.194 . S
N1043 C1038 1.328 . S
N1043 C1042 1.315 . S
H1044 C1038 0.929 . S
H1045 C1042 0.930 . S
H1046 C1034 0.929 . S
H1047 C1036 0.929 . S
O1048 Co1023 2.351 1_554 S
O1048 C1051 1.244 . S
O1049 Co1023 2.155 1_554 S
O1049 C1051 1.240 . S
O1050 Co1023 2.096 1_554 S
O1050 C1031 1.247 1_554 S
C1051 O1048 1.244 . S
C1051 O1049 1.240 . S
H1052 C1026 0.931 . S
H1053 C1035 0.931 . S
H1054 C1039 0.929 . S
H1055 C1041 0.930 . S
H1056 C1062 0.930 . S
H1057 C1065 0.930 . S
H1058 C1066 0.930 . S
H1059 C1067 0.930 . S
H1060 C1070 0.930 . S
H1061 C1071 0.930 . S
C1062 H1056 0.930 . S
C1062 C1063 1.355 . S
C1062 C1064 1.415 . S
C1063 C1062 1.355 . S
C1063 C1065 1.419 . S
C1064 C1062 1.415 . S
C1064 C1069 1.425 . S
C1064 C1071 1.409 . S
C1065 H1057 0.930 . S
C1065 C1063 1.419 . S
C1065 C1066 1.362 . S
C1066 H1058 0.930 . S
C1066 C1065 1.362 . S
C1066 C1069 1.409 . S
C1067 H1059 0.930 . S
C1067 C1068 1.355 . S
C1067 C1069 1.415 . S
C1068 C1067 1.355 . S
C1068 C1070 1.419 . S
C1069 C1064 1.425 . S
C1069 C1066 1.409 . S
C1069 C1067 1.415 . S
C1070 H1060 0.930 . S
C1070 C1068 1.419 . S
C1070 C1071 1.362 . S
C1071 H1061 0.930 . S
C1071 C1064 1.409 . S
C1071 C1070 1.362 . S
H1072 C1078 0.930 . S
H1073 C1081 0.930 . S
H1074 C1082 0.930 . S
H1075 C1083 0.930 . S
H1076 C1086 0.930 . S
H1077 C1087 0.930 . S
C1078 H1072 0.930 . S
C1078 C1079 1.355 . S
C1078 C1080 1.415 . S
C1079 C1078 1.355 . S
C1079 C1081 1.419 . S
C1080 C1078 1.415 . S
C1080 C1085 1.425 . S
C1080 C1087 1.409 . S
C1081 H1073 0.930 . S
C1081 C1079 1.419 . S
C1081 C1082 1.362 . S
C1082 H1074 0.930 . S
C1082 C1081 1.362 . S
C1082 C1085 1.409 . S
C1083 H1075 0.930 . S
C1083 C1084 1.355 . S
C1083 C1085 1.415 . S
C1084 C1083 1.355 . S
C1084 C1086 1.419 . S
C1085 C1080 1.425 . S
C1085 C1082 1.409 . S
C1085 C1083 1.415 . S
C1086 H1076 0.930 . S
C1086 C1084 1.419 . S
C1086 C1087 1.362 . S
C1087 H1077 0.930 . S
C1087 C1080 1.409 . S
C1087 C1086 1.362 . S
H1088 C1094 0.930 . S
H1089 C1097 0.930 . S
H1090 C1098 0.930 . S
H1091 C1099 0.930 . S
H1092 C1102 0.930 . S
H1093 C1103 0.930 . S
C1094 H1088 0.930 . S
C1094 C1095 1.355 . S
C1094 C1096 1.415 . S
C1095 C1094 1.355 . S
C1095 C1097 1.419 . S
C1096 C1094 1.415 . S
C1096 C1101 1.425 . S
C1096 C1103 1.409 . S
C1097 H1089 0.930 . S
C1097 C1095 1.419 . S
C1097 C1098 1.362 . S
C1098 H1090 0.930 . S
C1098 C1097 1.362 . S
C1098 C1101 1.409 . S
C1099 H1091 0.930 . S
C1099 C1100 1.355 . S
C1099 C1101 1.415 . S
C1100 C1099 1.355 . S
C1100 C1102 1.419 . S
C1101 C1096 1.425 . S
C1101 C1098 1.409 . S
C1101 C1099 1.415 . S
C1102 H1092 0.930 . S
C1102 C1100 1.419 . S
C1102 C1103 1.362 . S
C1103 H1093 0.930 . S
C1103 C1096 1.409 . S
C1103 C1102 1.362 . S
H1104 C1110 0.930 . S
H1105 C1113 0.930 . S
H1106 C1114 0.930 . S
H1107 C1115 0.930 . S
H1108 C1118 0.930 . S
H1109 C1119 0.930 . S
C1110 H1104 0.930 . S
C1110 C1111 1.355 . S
C1110 C1112 1.415 . S
C1111 C1110 1.355 . S
C1111 C1113 1.419 . S
C1112 C1110 1.415 . S
C1112 C1117 1.425 . S
C1112 C1119 1.409 . S
C1113 H1105 0.930 . S
C1113 C1111 1.419 . S
C1113 C1114 1.362 . S
C1114 H1106 0.930 . S
C1114 C1113 1.362 . S
C1114 C1117 1.409 . S
C1115 H1107 0.930 . S
C1115 C1116 1.355 . S
C1115 C1117 1.415 . S
C1116 C1115 1.355 . S
C1116 C1118 1.419 . S
C1117 C1112 1.425 . S
C1117 C1114 1.409 . S
C1117 C1115 1.415 . S
C1118 H1108 0.930 . S
C1118 C1116 1.419 . S
C1118 C1119 1.362 . S
C1119 H1109 0.930 . S
C1119 C1112 1.409 . S
C1119 C1118 1.362 . S
H1120 C1126 0.930 . S
H1121 C1129 0.930 . S
H1122 C1130 0.930 . S
H1123 C1131 0.930 . S
H1124 C1134 0.930 . S
H1125 C1135 0.930 . S
C1126 H1120 0.930 . S
C1126 C1127 1.355 . S
C1126 C1128 1.415 . S
C1127 C1126 1.355 . S
C1127 C1129 1.419 . S
C1128 C1126 1.415 . S
C1128 C1133 1.425 . S
C1128 C1135 1.409 . S
C1129 H1121 0.930 . S
C1129 C1127 1.419 . S
C1129 C1130 1.362 . S
C1130 H1122 0.930 . S
C1130 C1129 1.362 . S
C1130 C1133 1.409 . S
C1131 H1123 0.930 . S
C1131 C1132 1.355 . S
C1131 C1133 1.415 . S
C1132 C1131 1.355 . S
C1132 C1134 1.419 . S
C1133 C1128 1.425 . S
C1133 C1130 1.409 . S
C1133 C1131 1.415 . S
C1134 H1124 0.930 . S
C1134 C1132 1.419 . S
C1134 C1135 1.362 . S
C1135 H1125 0.930 . S
C1135 C1128 1.409 . S
C1135 C1134 1.362 . S
H1136 C1142 0.930 . S
H1137 C1145 0.930 . S
H1138 C1146 0.930 . S
H1139 C1147 0.930 . S
H1140 C1150 0.930 . S
H1141 C1151 0.930 . S
C1142 H1136 0.930 . S
C1142 C1143 1.355 . S
C1142 C1144 1.415 . S
C1143 C1142 1.355 . S
C1143 C1145 1.419 . S
C1144 C1142 1.415 . S
C1144 C1149 1.425 . S
C1144 C1151 1.409 . S
C1145 H1137 0.930 . S
C1145 C1143 1.419 . S
C1145 C1146 1.362 . S
C1146 H1138 0.930 . S
C1146 C1145 1.362 . S
C1146 C1149 1.409 . S
C1147 H1139 0.930 . S
C1147 C1148 1.355 . S
C1147 C1149 1.415 . S
C1148 C1147 1.355 . S
C1148 C1150 1.419 . S
C1149 C1144 1.425 . S
C1149 C1146 1.409 . S
C1149 C1147 1.415 . S
C1150 H1140 0.930 . S
C1150 C1148 1.419 . S
C1150 C1151 1.362 . S
C1151 H1141 0.930 . S
C1151 C1144 1.409 . S
C1151 C1150 1.362 . S
H1152 C1158 0.930 . S
H1153 C1161 0.930 . S
H1154 C1162 0.930 . S
H1155 C1163 0.930 . S
H1156 C1166 0.930 . S
H1157 C1167 0.930 . S
C1158 H1152 0.930 . S
C1158 C1159 1.355 . S
C1158 C1160 1.415 . S
C1159 C1158 1.355 . S
C1159 C1161 1.419 . S
C1160 C1158 1.415 . S
C1160 C1165 1.425 . S
C1160 C1167 1.409 . S
C1161 H1153 0.930 . S
C1161 C1159 1.419 . S
C1161 C1162 1.362 . S
C1162 H1154 0.930 . S
C1162 C1161 1.362 . S
C1162 C1165 1.409 . S
C1163 H1155 0.930 . S
C1163 C1164 1.355 . S
C1163 C1165 1.415 . S
C1164 C1163 1.355 . S
C1164 C1166 1.419 . S
C1165 C1160 1.425 . S
C1165 C1162 1.409 . S
C1165 C1163 1.415 . S
C1166 H1156 0.930 . S
C1166 C1164 1.419 . S
C1166 C1167 1.362 . S
C1167 H1157 0.930 . S
C1167 C1160 1.409 . S
C1167 C1166 1.362 . S
H1168 C1174 0.930 . S
H1169 C1177 0.930 . S
H1170 C1178 0.930 . S
H1171 C1179 0.930 . S
H1172 C1182 0.930 . S
H1173 C1183 0.930 . S
C1174 H1168 0.930 . S
C1174 C1175 1.355 . S
C1174 C1176 1.415 . S
C1175 C1174 1.355 . S
C1175 C1177 1.419 . S
C1176 C1174 1.415 . S
C1176 C1181 1.425 . S
C1176 C1183 1.409 . S
C1177 H1169 0.930 . S
C1177 C1175 1.419 . S
C1177 C1178 1.362 . S
C1178 H1170 0.930 . S
C1178 C1177 1.362 . S
C1178 C1181 1.409 . S
C1179 H1171 0.930 . S
C1179 C1180 1.355 . S
C1179 C1181 1.415 . S
C1180 C1179 1.355 . S
C1180 C1182 1.419 . S
C1181 C1176 1.425 . S
C1181 C1178 1.409 . S
C1181 C1179 1.415 . S
C1182 H1172 0.930 . S
C1182 C1180 1.419 . S
C1182 C1183 1.362 . S
C1183 H1173 0.930 . S
C1183 C1176 1.409 . S
C1183 C1182 1.362 . S
H1184 C1190 0.930 . S
H1185 C1193 0.930 . S
H1186 C1194 0.930 . S
H1187 C1195 0.930 . S
H1188 C1198 0.930 . S
H1189 C1199 0.930 . S
C1190 H1184 0.930 . S
C1190 C1191 1.355 . S
C1190 C1192 1.415 . S
C1191 C1190 1.355 . S
C1191 C1193 1.419 . S
C1192 C1190 1.415 . S
C1192 C1197 1.425 . S
C1192 C1199 1.409 . S
C1193 H1185 0.930 . S
C1193 C1191 1.419 . S
C1193 C1194 1.362 . S
C1194 H1186 0.930 . S
C1194 C1193 1.362 . S
C1194 C1197 1.409 . S
C1195 H1187 0.930 . S
C1195 C1196 1.355 . S
C1195 C1197 1.415 . S
C1196 C1195 1.355 . S
C1196 C1198 1.419 . S
C1197 C1192 1.425 . S
C1197 C1194 1.409 . S
C1197 C1195 1.415 . S
C1198 H1188 0.930 . S
C1198 C1196 1.419 . S
C1198 C1199 1.362 . S
C1199 H1189 0.930 . S
C1199 C1192 1.409 . S
C1199 C1198 1.362 . S
H1200 C1206 0.930 . S
H1201 C1209 0.930 . S
H1202 C1210 0.930 . S
H1203 C1211 0.930 . S
H1204 C1214 0.930 . S
H1205 C1215 0.930 . S
C1206 H1200 0.930 . S
C1206 C1207 1.355 . S
C1206 C1208 1.415 . S
C1207 C1206 1.355 . S
C1207 C1209 1.419 . S
C1208 C1206 1.415 . S
C1208 C1213 1.425 . S
C1208 C1215 1.409 . S
C1209 H1201 0.930 . S
C1209 C1207 1.419 . S
C1209 C1210 1.362 . S
C1210 H1202 0.930 . S
C1210 C1209 1.362 . S
C1210 C1213 1.409 . S
C1211 H1203 0.930 . S
C1211 C1212 1.355 . S
C1211 C1213 1.415 . S
C1212 C1211 1.355 . S
C1212 C1214 1.419 . S
C1213 C1208 1.425 . S
C1213 C1210 1.409 . S
C1213 C1211 1.415 . S
C1214 H1204 0.930 . S
C1214 C1212 1.419 . S
C1214 C1215 1.362 . S
C1215 H1205 0.930 . S
C1215 C1208 1.409 . S
C1215 C1214 1.362 . S
H1216 C1222 0.930 . S
H1217 C1225 0.930 . S
H1218 C1226 0.930 . S
H1219 C1227 0.930 . S
H1220 C1230 0.930 . S
H1221 C1231 0.930 . S
C1222 H1216 0.930 . S
C1222 C1223 1.355 . S
C1222 C1224 1.415 . S
C1223 C1222 1.355 . S
C1223 C1225 1.419 . S
C1224 C1222 1.415 . S
C1224 C1229 1.425 . S
C1224 C1231 1.409 . S
C1225 H1217 0.930 . S
C1225 C1223 1.419 . S
C1225 C1226 1.362 . S
C1226 H1218 0.930 . S
C1226 C1225 1.362 . S
C1226 C1229 1.409 . S
C1227 H1219 0.930 . S
C1227 C1228 1.355 . S
C1227 C1229 1.415 . S
C1228 C1227 1.355 . S
C1228 C1230 1.419 . S
C1229 C1224 1.425 . S
C1229 C1226 1.409 . S
C1229 C1227 1.415 . S
C1230 H1220 0.930 . S
C1230 C1228 1.419 . S
C1230 C1231 1.362 . S
C1231 H1221 0.930 . S
C1231 C1224 1.409 . S
C1231 C1230 1.362 . S
H1232 C1238 0.930 . S
H1233 C1241 0.930 . S
H1234 C1242 0.930 . S
H1235 C1243 0.930 . S
H1236 C1246 0.930 . S
H1237 C1247 0.930 . S
C1238 H1232 0.930 . S
C1238 C1239 1.355 . S
C1238 C1240 1.415 . S
C1239 C1238 1.355 . S
C1239 C1241 1.419 . S
C1240 C1238 1.415 . S
C1240 C1245 1.425 . S
C1240 C1247 1.409 . S
C1241 H1233 0.930 . S
C1241 C1239 1.419 . S
C1241 C1242 1.362 . S
C1242 H1234 0.930 . S
C1242 C1241 1.362 . S
C1242 C1245 1.409 . S
C1243 H1235 0.930 . S
C1243 C1244 1.355 . S
C1243 C1245 1.415 . S
C1244 C1243 1.355 . S
C1244 C1246 1.419 . S
C1245 C1240 1.425 . S
C1245 C1242 1.409 . S
C1245 C1243 1.415 . S
C1246 H1236 0.930 . S
C1246 C1244 1.419 . S
C1246 C1247 1.362 . S
C1247 H1237 0.930 . S
C1247 C1240 1.409 . S
C1247 C1246 1.362 . S
H1248 C1254 0.930 . S
H1249 C1257 0.930 . S
H1250 C1258 0.930 . S
H1251 C1259 0.930 . S
H1252 C1262 0.930 . S
H1253 C1263 0.930 . S
C1254 H1248 0.930 . S
C1254 C1255 1.355 . S
C1254 C1256 1.415 . S
C1255 C1254 1.355 . S
C1255 C1257 1.419 . S
C1256 C1254 1.415 . S
C1256 C1261 1.425 . S
C1256 C1263 1.409 . S
C1257 H1249 0.930 . S
C1257 C1255 1.419 . S
C1257 C1258 1.362 . S
C1258 H1250 0.930 . S
C1258 C1257 1.362 . S
C1258 C1261 1.409 . S
C1259 H1251 0.930 . S
C1259 C1260 1.355 . S
C1259 C1261 1.415 . S
C1260 C1259 1.355 . S
C1260 C1262 1.419 . S
C1261 C1256 1.425 . S
C1261 C1258 1.409 . S
C1261 C1259 1.415 . S
C1262 H1252 0.930 . S
C1262 C1260 1.419 . S
C1262 C1263 1.362 . S
C1263 H1253 0.930 . S
C1263 C1256 1.409 . S
C1263 C1262 1.362 . S
H1264 C1270 0.930 . S
H1265 C1273 0.930 . S
H1266 C1274 0.930 . S
H1267 C1275 0.930 . S
H1268 C1278 0.930 . S
H1269 C1279 0.930 . S
C1270 H1264 0.930 . S
C1270 C1271 1.355 . S
C1270 C1272 1.415 . S
C1271 C1270 1.355 . S
C1271 C1273 1.419 . S
C1272 C1270 1.415 . S
C1272 C1277 1.425 . S
C1272 C1279 1.409 . S
C1273 H1265 0.930 . S
C1273 C1271 1.419 . S
C1273 C1274 1.362 . S
C1274 H1266 0.930 . S
C1274 C1273 1.362 . S
C1274 C1277 1.409 . S
C1275 H1267 0.930 . S
C1275 C1276 1.355 . S
C1275 C1277 1.415 . S
C1276 C1275 1.355 . S
C1276 C1278 1.419 . S
C1277 C1272 1.425 . S
C1277 C1274 1.409 . S
C1277 C1275 1.415 . S
C1278 H1268 0.930 . S
C1278 C1276 1.419 . S
C1278 C1279 1.362 . S
C1279 H1269 0.930 . S
C1279 C1272 1.409 . S
C1279 C1278 1.362 . S
H1280 C1286 0.930 . S
H1281 C1289 0.930 . S
H1282 C1290 0.930 . S
H1283 C1291 0.930 . S
H1284 C1294 0.930 . S
H1285 C1295 0.930 . S
C1286 H1280 0.930 . S
C1286 C1287 1.355 . S
C1286 C1288 1.415 . S
C1287 C1286 1.355 . S
C1287 C1289 1.419 . S
C1288 C1286 1.415 . S
C1288 C1293 1.425 . S
C1288 C1295 1.409 . S
C1289 H1281 0.930 . S
C1289 C1287 1.419 . S
C1289 C1290 1.362 . S
C1290 H1282 0.930 . S
C1290 C1289 1.362 . S
C1290 C1293 1.409 . S
C1291 H1283 0.930 . S
C1291 C1292 1.355 . S
C1291 C1293 1.415 . S
C1292 C1291 1.355 . S
C1292 C1294 1.419 . S
C1293 C1288 1.425 . S
C1293 C1290 1.409 . S
C1293 C1291 1.415 . S
C1294 H1284 0.930 . S
C1294 C1292 1.419 . S
C1294 C1295 1.362 . S
C1295 H1285 0.930 . S
C1295 C1288 1.409 . S
C1295 C1294 1.362 . S
H1296 C1302 0.930 . S
H1297 C1305 0.930 . S
H1298 C1306 0.930 . S
H1299 C1307 0.930 . S
H1300 C1310 0.930 . S
H1301 C1311 0.930 . S
C1302 H1296 0.930 . S
C1302 C1303 1.355 . S
C1302 C1304 1.415 . S
C1303 C1302 1.355 . S
C1303 C1305 1.419 . S
C1304 C1302 1.415 . S
C1304 C1309 1.425 . S
C1304 C1311 1.409 . S
C1305 H1297 0.930 . S
C1305 C1303 1.419 . S
C1305 C1306 1.362 . S
C1306 H1298 0.930 . S
C1306 C1305 1.362 . S
C1306 C1309 1.409 . S
C1307 H1299 0.930 . S
C1307 C1308 1.355 . S
C1307 C1309 1.415 . S
C1308 C1307 1.355 . S
C1308 C1310 1.419 . S
C1309 C1304 1.425 . S
C1309 C1306 1.409 . S
C1309 C1307 1.415 . S
C1310 H1300 0.930 . S
C1310 C1308 1.419 . S
C1310 C1311 1.362 . S
C1311 H1301 0.930 . S
C1311 C1304 1.409 . S
C1311 C1310 1.362 . S
H1312 C1318 0.930 . S
H1313 C1321 0.930 . S
H1314 C1322 0.930 . S
H1315 C1323 0.930 . S
H1316 C1326 0.930 . S
H1317 C1327 0.930 . S
C1318 H1312 0.930 . S
C1318 C1319 1.355 . S
C1318 C1320 1.415 . S
C1319 C1318 1.355 . S
C1319 C1321 1.419 . S
C1320 C1318 1.415 . S
C1320 C1325 1.425 . S
C1320 C1327 1.409 . S
C1321 H1313 0.930 . S
C1321 C1319 1.419 . S
C1321 C1322 1.362 . S
C1322 H1314 0.930 . S
C1322 C1321 1.362 . S
C1322 C1325 1.409 . S
C1323 H1315 0.930 . S
C1323 C1324 1.355 . S
C1323 C1325 1.415 . S
C1324 C1323 1.355 . S
C1324 C1326 1.419 . S
C1325 C1320 1.425 . S
C1325 C1322 1.409 . S
C1325 C1323 1.415 . S
C1326 H1316 0.930 . S
C1326 C1324 1.419 . S
C1326 C1327 1.362 . S
C1327 H1317 0.930 . S
C1327 C1320 1.409 . S
C1327 C1326 1.362 . S
H1328 C1334 0.930 . S
H1329 C1337 0.930 . S
H1330 C1338 0.930 . S
H1331 C1339 0.930 . S
H1332 C1342 0.930 . S
H1333 C1343 0.930 . S
C1334 H1328 0.930 . S
C1334 C1335 1.355 . S
C1334 C1336 1.415 . S
C1335 C1334 1.355 . S
C1335 C1337 1.419 . S
C1336 C1334 1.415 . S
C1336 C1341 1.425 . S
C1336 C1343 1.409 . S
C1337 H1329 0.930 . S
C1337 C1335 1.419 . S
C1337 C1338 1.362 . S
C1338 H1330 0.930 . S
C1338 C1337 1.362 . S
C1338 C1341 1.409 . S
C1339 H1331 0.930 . S
C1339 C1340 1.355 . S
C1339 C1341 1.415 . S
C1340 C1339 1.355 . S
C1340 C1342 1.419 . S
C1341 C1336 1.425 . S
C1341 C1338 1.409 . S
C1341 C1339 1.415 . S
C1342 H1332 0.930 . S
C1342 C1340 1.419 . S
C1342 C1343 1.362 . S
C1343 H1333 0.930 . S
C1343 C1336 1.409 . S
C1343 C1342 1.362 . S
H1344 C1350 0.930 . S
H1345 C1353 0.930 . S
H1346 C1354 0.930 . S
H1347 C1355 0.930 1_556 S
H1348 C1358 0.930 . S
H1349 C1359 0.930 . S
C1350 H1344 0.930 . S
C1350 C1351 1.355 . S
C1350 C1352 1.415 . S
C1351 C1350 1.355 . S
C1351 C1353 1.419 1_554 S
C1352 C1350 1.415 . S
C1352 C1357 1.425 . S
C1352 C1359 1.409 . S
C1353 H1345 0.930 . S
C1353 C1351 1.419 1_556 S
C1353 C1354 1.362 . S
C1354 H1346 0.930 . S
C1354 C1353 1.362 . S
C1354 C1357 1.409 1_556 S
C1355 H1347 0.930 1_554 S
C1355 C1356 1.355 . S
C1355 C1357 1.415 . S
C1356 C1355 1.355 . S
C1356 C1358 1.419 . S
C1357 C1352 1.425 . S
C1357 C1354 1.409 1_554 S
C1357 C1355 1.415 . S
C1358 H1348 0.930 . S
C1358 C1356 1.419 . S
C1358 C1359 1.362 . S
C1359 H1349 0.930 . S
C1359 C1352 1.409 . S
C1359 C1358 1.362 . S
H1360 C1366 0.930 . S
H1361 C1369 0.930 . S
H1362 C1370 0.930 . S
H1363 C1371 0.919 1_556 S
H1364 C1374 0.930 . S
H1365 C1375 0.930 . S
C1366 H1360 0.930 . S
C1366 C1367 1.355 . S
C1366 C1368 1.415 . S
C1367 C1366 1.355 . S
C1367 C1369 1.419 1_554 S
C1368 C1366 1.415 . S
C1368 C1373 1.425 . S
C1368 C1375 1.409 . S
C1369 H1361 0.930 . S
C1369 C1367 1.419 1_556 S
C1369 C1370 1.362 . S
C1370 H1362 0.930 . S
C1370 C1369 1.362 . S
C1370 C1373 1.409 1_556 S
C1371 H1363 0.919 1_554 S
C1371 C1372 1.363 . S
C1371 C1373 1.417 . S
C1372 C1371 1.363 . S
C1372 C1374 1.419 . S
C1373 C1368 1.425 . S
C1373 C1370 1.409 1_554 S
C1373 C1371 1.417 . S
C1374 H1364 0.930 . S
C1374 C1372 1.419 . S
C1374 C1375 1.362 . S
C1375 H1365 0.930 . S
C1375 C1368 1.409 . S
C1375 C1374 1.362 . S
H1376 C1382 0.930 . S
H1377 C1385 0.930 . S
H1378 C1386 0.930 . S
H1379 C1387 0.930 . S
H1380 C1390 0.930 . S
H1381 C1391 0.930 . S
C1382 H1376 0.930 . S
C1382 C1383 1.355 . S
C1382 C1384 1.415 . S
C1383 C1382 1.355 . S
C1383 C1385 1.419 . S
C1384 C1382 1.415 . S
C1384 C1389 1.425 . S
C1384 C1391 1.409 . S
C1385 H1377 0.930 . S
C1385 C1383 1.419 . S
C1385 C1386 1.362 . S
C1386 H1378 0.930 . S
C1386 C1385 1.362 . S
C1386 C1389 1.409 . S
C1387 H1379 0.930 . S
C1387 C1388 1.355 . S
C1387 C1389 1.415 . S
C1388 C1387 1.355 . S
C1388 C1390 1.419 . S
C1389 C1384 1.425 . S
C1389 C1386 1.409 . S
C1389 C1387 1.415 . S
C1390 H1380 0.930 . S
C1390 C1388 1.419 . S
C1390 C1391 1.362 . S
C1391 H1381 0.930 . S
C1391 C1384 1.409 . S
C1391 C1390 1.362 . S
H1392 C1398 0.930 . S
H1393 C1401 0.930 . S
H1394 C1402 0.930 . S
H1395 C1403 0.930 . S
H1396 C1406 0.930 . S
H1397 C1407 0.930 . S
C1398 H1392 0.930 . S
C1398 C1399 1.355 . S
C1398 C1400 1.415 . S
C1399 C1398 1.355 . S
C1399 C1401 1.419 . S
C1400 C1398 1.415 . S
C1400 C1405 1.425 . S
C1400 C1407 1.409 . S
C1401 H1393 0.930 . S
C1401 C1399 1.419 . S
C1401 C1402 1.362 . S
C1402 H1394 0.930 . S
C1402 C1401 1.362 . S
C1402 C1405 1.409 . S
C1403 H1395 0.930 . S
C1403 C1404 1.355 . S
C1403 C1405 1.415 . S
C1404 C1403 1.355 . S
C1404 C1406 1.419 . S
C1405 C1400 1.425 . S
C1405 C1402 1.409 . S
C1405 C1403 1.415 . S
C1406 H1396 0.930 . S
C1406 C1404 1.419 . S
C1406 C1407 1.362 . S
C1407 H1397 0.930 . S
C1407 C1400 1.409 . S
C1407 C1406 1.362 . S
H1408 C1414 0.930 . S
H1409 C1417 0.930 . S
H1410 C1418 0.930 . S
H1411 C1419 0.930 . S
H1412 C1422 0.930 . S
H1413 C1423 0.930 . S
C1414 H1408 0.930 . S
C1414 C1415 1.355 . S
C1414 C1416 1.415 . S
C1415 C1414 1.355 . S
C1415 C1417 1.419 . S
C1416 C1414 1.415 . S
C1416 C1421 1.425 . S
C1416 C1423 1.409 . S
C1417 H1409 0.930 . S
C1417 C1415 1.419 . S
C1417 C1418 1.362 . S
C1418 H1410 0.930 . S
C1418 C1417 1.362 . S
C1418 C1421 1.409 . S
C1419 H1411 0.930 . S
C1419 C1420 1.355 . S
C1419 C1421 1.415 . S
C1420 C1419 1.355 . S
C1420 C1422 1.419 . S
C1421 C1416 1.425 . S
C1421 C1418 1.409 . S
C1421 C1419 1.415 . S
C1422 H1412 0.930 . S
C1422 C1420 1.419 . S
C1422 C1423 1.362 . S
C1423 H1413 0.930 . S
C1423 C1416 1.409 . S
C1423 C1422 1.362 . S
H1424 C1430 0.930 . S
H1425 C1433 0.930 . S
H1426 C1434 0.930 . S
H1427 C1435 0.930 . S
H1428 C1438 0.930 . S
H1429 C1439 0.930 . S
C1430 H1424 0.930 . S
C1430 C1431 1.355 . S
C1430 C1432 1.415 . S
C1431 C1430 1.355 . S
C1431 C1433 1.419 1_556 S
C1432 C1430 1.415 . S
C1432 C1437 1.425 1_556 S
C1432 C1439 1.409 . S
C1433 H1425 0.930 . S
C1433 C1431 1.419 1_554 S
C1433 C1434 1.362 . S
C1434 H1426 0.930 . S
C1434 C1433 1.362 . S
C1434 C1437 1.409 . S
C1435 H1427 0.930 . S
C1435 C1436 1.355 1_554 S
C1435 C1437 1.415 . S
C1436 C1435 1.355 1_556 S
C1436 C1438 1.419 . S
C1437 C1432 1.425 1_554 S
C1437 C1434 1.409 . S
C1437 C1435 1.415 . S
C1438 H1428 0.930 . S
C1438 C1436 1.419 . S
C1438 C1439 1.362 . S
C1439 H1429 0.930 . S
C1439 C1432 1.409 . S
C1439 C1438 1.362 . S
H1440 C1446 0.930 . S
H1441 C1449 0.930 . S
H1442 C1450 0.930 . S
H1443 C1451 0.930 . S
H1444 C1454 0.930 . S
H1445 C1455 0.930 . S
C1446 H1440 0.930 . S
C1446 C1447 1.355 . S
C1446 C1448 1.415 . S
C1447 C1446 1.355 . S
C1447 C1449 1.419 . S
C1448 C1446 1.415 . S
C1448 C1453 1.425 . S
C1448 C1455 1.409 . S
C1449 H1441 0.930 . S
C1449 C1447 1.419 . S
C1449 C1450 1.362 . S
C1450 H1442 0.930 . S
C1450 C1449 1.362 . S
C1450 C1453 1.409 . S
C1451 H1443 0.930 . S
C1451 C1452 1.355 . S
C1451 C1453 1.415 . S
C1452 C1451 1.355 . S
C1452 C1454 1.419 . S
C1453 C1448 1.425 . S
C1453 C1450 1.409 . S
C1453 C1451 1.415 . S
C1454 H1444 0.930 . S
C1454 C1452 1.419 . S
C1454 C1455 1.362 . S
C1455 H1445 0.930 . S
C1455 C1448 1.409 . S
C1455 C1454 1.362 . S
H1456 C1462 0.930 . S
H1457 C1465 0.930 . S
H1458 C1466 0.930 . S
H1459 C1467 0.930 . S
H1460 C1470 0.930 . S
H1461 C1471 0.930 . S
C1462 H1456 0.930 . S
C1462 C1463 1.355 . S
C1462 C1464 1.415 . S
C1463 C1462 1.355 . S
C1463 C1465 1.419 . S
C1464 C1462 1.415 . S
C1464 C1469 1.425 . S
C1464 C1471 1.409 . S
C1465 H1457 0.930 . S
C1465 C1463 1.419 . S
C1465 C1466 1.362 . S
C1466 H1458 0.930 . S
C1466 C1465 1.362 . S
C1466 C1469 1.409 . S
C1467 H1459 0.930 . S
C1467 C1468 1.355 . S
C1467 C1469 1.415 . S
C1468 C1467 1.355 . S
C1468 C1470 1.419 . S
C1469 C1464 1.425 . S
C1469 C1466 1.409 . S
C1469 C1467 1.415 . S
C1470 H1460 0.930 . S
C1470 C1468 1.419 . S
C1470 C1471 1.362 . S
C1471 H1461 0.930 . S
C1471 C1464 1.409 . S
C1471 C1470 1.362 . S
H1472 C1478 0.930 . S
H1473 C1481 0.930 . S
H1474 C1482 0.930 . S
H1475 C1483 0.930 . S
H1476 C1486 0.930 . S
H1477 C1487 0.930 . S
C1478 H1472 0.930 . S
C1478 C1479 1.355 . S
C1478 C1480 1.415 . S
C1479 C1478 1.355 . S
C1479 C1481 1.419 . S
C1480 C1478 1.415 . S
C1480 C1485 1.425 . S
C1480 C1487 1.409 . S
C1481 H1473 0.930 . S
C1481 C1479 1.419 . S
C1481 C1482 1.362 . S
C1482 H1474 0.930 . S
C1482 C1481 1.362 . S
C1482 C1485 1.409 . S
C1483 H1475 0.930 . S
C1483 C1484 1.355 . S
C1483 C1485 1.415 . S
C1484 C1483 1.355 . S
C1484 C1486 1.419 . S
C1485 C1480 1.425 . S
C1485 C1482 1.409 . S
C1485 C1483 1.415 . S
C1486 H1476 0.930 . S
C1486 C1484 1.419 . S
C1486 C1487 1.362 . S
C1487 H1477 0.930 . S
C1487 C1480 1.409 . S
C1487 C1486 1.362 . S
H1488 C1494 0.930 . S
H1489 C1497 0.930 . S
H1490 C1498 0.930 . S
H1491 C1499 0.930 . S
H1492 C1502 0.930 . S
H1493 C1503 0.930 . S
C1494 H1488 0.930 . S
C1494 C1495 1.355 . S
C1494 C1496 1.415 . S
C1495 C1494 1.355 . S
C1495 C1497 1.419 . S
C1496 C1494 1.415 . S
C1496 C1501 1.425 . S
C1496 C1503 1.409 . S
C1497 H1489 0.930 . S
C1497 C1495 1.419 . S
C1497 C1498 1.362 . S
C1498 H1490 0.930 . S
C1498 C1497 1.362 . S
C1498 C1501 1.409 . S
C1499 H1491 0.930 . S
C1499 C1500 1.355 . S
C1499 C1501 1.415 . S
C1500 C1499 1.355 . S
C1500 C1502 1.419 . S
C1501 C1496 1.425 . S
C1501 C1498 1.409 . S
C1501 C1499 1.415 . S
C1502 H1492 0.930 . S
C1502 C1500 1.419 . S
C1502 C1503 1.362 . S
C1503 H1493 0.930 . S
C1503 C1496 1.409 . S
C1503 C1502 1.362 . S
H1504 C1510 0.930 . S
H1505 C1513 0.930 . S
H1506 C1514 0.930 . S
H1507 C1515 0.930 . S
H1508 C1518 0.930 . S
H1509 C1519 0.930 . S
C1510 H1504 0.930 . S
C1510 C1511 1.355 . S
C1510 C1512 1.415 . S
C1511 C1510 1.355 . S
C1511 C1513 1.419 . S
C1512 C1510 1.415 . S
C1512 C1517 1.425 . S
C1512 C1519 1.409 . S
C1513 H1505 0.930 . S
C1513 C1511 1.419 . S
C1513 C1514 1.362 . S
C1514 H1506 0.930 . S
C1514 C1513 1.362 . S
C1514 C1517 1.409 . S
C1515 H1507 0.930 . S
C1515 C1516 1.355 . S
C1515 C1517 1.415 . S
C1516 C1515 1.355 . S
C1516 C1518 1.419 . S
C1517 C1512 1.425 . S
C1517 C1514 1.409 . S
C1517 C1515 1.415 . S
C1518 H1508 0.930 . S
C1518 C1516 1.419 . S
C1518 C1519 1.362 . S
C1519 H1509 0.930 . S
C1519 C1512 1.409 . S
C1519 C1518 1.362 . S
H1520 C1526 0.930 . S
H1521 C1529 0.930 . S
H1522 C1530 0.930 . S
H1523 C1531 0.930 . S
H1524 C1534 0.930 . S
H1525 C1535 0.930 . S
C1526 H1520 0.930 . S
C1526 C1527 1.355 . S
C1526 C1528 1.415 . S
C1527 C1526 1.355 . S
C1527 C1529 1.419 . S
C1528 C1526 1.415 . S
C1528 C1533 1.425 . S
C1528 C1535 1.409 . S
C1529 H1521 0.930 . S
C1529 C1527 1.419 . S
C1529 C1530 1.362 . S
C1530 H1522 0.930 . S
C1530 C1529 1.362 . S
C1530 C1533 1.409 . S
C1531 H1523 0.930 . S
C1531 C1532 1.355 . S
C1531 C1533 1.415 . S
C1532 C1531 1.355 . S
C1532 C1534 1.419 . S
C1533 C1528 1.425 . S
C1533 C1530 1.409 . S
C1533 C1531 1.415 . S
C1534 H1524 0.930 . S
C1534 C1532 1.419 . S
C1534 C1535 1.362 . S
C1535 H1525 0.930 . S
C1535 C1528 1.409 . S
C1535 C1534 1.362 . S
H1536 C1542 0.930 . S
H1537 C1545 0.930 . S
H1538 C1546 0.930 . S
H1539 C1547 0.930 . S
H1540 C1550 0.930 . S
H1541 C1551 0.930 . S
C1542 H1536 0.930 . S
C1542 C1543 1.355 . S
C1542 C1544 1.415 . S
C1543 C1542 1.355 . S
C1543 C1545 1.419 . S
C1544 C1542 1.415 . S
C1544 C1549 1.425 . S
C1544 C1551 1.409 . S
C1545 H1537 0.930 . S
C1545 C1543 1.419 . S
C1545 C1546 1.362 . S
C1546 H1538 0.930 . S
C1546 C1545 1.362 . S
C1546 C1549 1.409 . S
C1547 H1539 0.930 . S
C1547 C1548 1.355 . S
C1547 C1549 1.415 . S
C1548 C1547 1.355 . S
C1548 C1550 1.419 . S
C1549 C1544 1.425 . S
C1549 C1546 1.409 . S
C1549 C1547 1.415 . S
C1550 H1540 0.930 . S
C1550 C1548 1.419 . S
C1550 C1551 1.362 . S
C1551 H1541 0.930 . S
C1551 C1544 1.409 . S
C1551 C1550 1.362 . S
H1552 C1558 0.930 . S
H1553 C1561 0.930 . S
H1554 C1562 0.930 . S
H1555 C1563 0.930 . S
H1556 C1566 0.930 . S
H1557 C1567 0.930 . S
C1558 H1552 0.930 . S
C1558 C1559 1.355 . S
C1558 C1560 1.415 . S
C1559 C1558 1.355 . S
C1559 C1561 1.419 . S
C1560 C1558 1.415 . S
C1560 C1565 1.425 . S
C1560 C1567 1.409 . S
C1561 H1553 0.930 . S
C1561 C1559 1.419 . S
C1561 C1562 1.362 . S
C1562 H1554 0.930 . S
C1562 C1561 1.362 . S
C1562 C1565 1.409 . S
C1563 H1555 0.930 . S
C1563 C1564 1.355 . S
C1563 C1565 1.415 . S
C1564 C1563 1.355 . S
C1564 C1566 1.419 . S
C1565 C1560 1.425 . S
C1565 C1562 1.409 . S
C1565 C1563 1.415 . S
C1566 H1556 0.930 . S
C1566 C1564 1.419 . S
C1566 C1567 1.362 . S
C1567 H1557 0.930 . S
C1567 C1560 1.409 . S
C1567 C1566 1.362 . S
H1568 C1574 0.930 . S
H1569 C1577 0.930 . S
H1570 C1578 0.930 . S
H1571 C1579 0.930 . S
H1572 C1582 0.930 . S
H1573 C1583 0.930 . S
C1574 H1568 0.930 . S
C1574 C1575 1.355 . S
C1574 C1576 1.415 . S
C1575 C1574 1.355 . S
C1575 C1577 1.419 . S
C1576 C1574 1.415 . S
C1576 C1581 1.425 . S
C1576 C1583 1.409 . S
C1577 H1569 0.930 . S
C1577 C1575 1.419 . S
C1577 C1578 1.362 . S
C1578 H1570 0.930 . S
C1578 C1577 1.362 . S
C1578 C1581 1.409 . S
C1579 H1571 0.930 . S
C1579 C1580 1.355 . S
C1579 C1581 1.415 . S
C1580 C1579 1.355 . S
C1580 C1582 1.419 . S
C1581 C1576 1.425 . S
C1581 C1578 1.409 . S
C1581 C1579 1.415 . S
C1582 H1572 0.930 . S
C1582 C1580 1.419 . S
C1582 C1583 1.362 . S
C1583 H1573 0.930 . S
C1583 C1576 1.409 . S
C1583 C1582 1.362 . S
H1584 C1590 0.930 . S
H1585 C1593 0.930 . S
H1586 C1594 0.930 . S
H1587 C1595 0.930 . S
H1588 C1598 0.930 . S
H1589 C1599 0.930 . S
C1590 H1584 0.930 . S
C1590 C1591 1.355 . S
C1590 C1592 1.415 . S
C1591 C1590 1.355 . S
C1591 C1593 1.419 . S
C1592 C1590 1.415 . S
C1592 C1597 1.425 . S
C1592 C1599 1.409 . S
C1593 H1585 0.930 . S
C1593 C1591 1.419 . S
C1593 C1594 1.362 . S
C1594 H1586 0.930 . S
C1594 C1593 1.362 . S
C1594 C1597 1.409 . S
C1595 H1587 0.930 . S
C1595 C1596 1.355 . S
C1595 C1597 1.415 . S
C1596 C1595 1.355 . S
C1596 C1598 1.419 . S
C1597 C1592 1.425 . S
C1597 C1594 1.409 . S
C1597 C1595 1.415 . S
C1598 H1588 0.930 . S
C1598 C1596 1.419 . S
C1598 C1599 1.362 . S
C1599 H1589 0.930 . S
C1599 C1592 1.409 . S
C1599 C1598 1.362 . S
H1600 C1606 0.930 . S
H1601 C1609 0.930 . S
H1602 C1610 0.930 . S
H1603 C1611 0.930 . S
H1604 C1614 0.930 . S
H1605 C1615 0.930 . S
C1606 H1600 0.930 . S
C1606 C1607 1.355 . S
C1606 C1608 1.415 . S
C1607 C1606 1.355 . S
C1607 C1609 1.419 . S
C1608 C1606 1.415 . S
C1608 C1613 1.425 . S
C1608 C1615 1.409 . S
C1609 H1601 0.930 . S
C1609 C1607 1.419 . S
C1609 C1610 1.362 . S
C1610 H1602 0.930 . S
C1610 C1609 1.362 . S
C1610 C1613 1.409 . S
C1611 H1603 0.930 . S
C1611 C1612 1.355 . S
C1611 C1613 1.415 . S
C1612 C1611 1.355 . S
C1612 C1614 1.419 . S
C1613 C1608 1.425 . S
C1613 C1610 1.409 . S
C1613 C1611 1.415 . S
C1614 H1604 0.930 . S
C1614 C1612 1.419 . S
C1614 C1615 1.362 . S
C1615 H1605 0.930 . S
C1615 C1608 1.409 . S
C1615 C1614 1.362 . S
H1616 C1622 0.930 . S
H1617 C1625 0.930 . S
H1618 C1626 0.930 . S
H1619 C1627 0.930 . S
H1620 C1630 0.930 . S
H1621 C1631 0.930 . S
C1622 H1616 0.930 . S
C1622 C1623 1.355 . S
C1622 C1624 1.415 . S
C1623 C1622 1.355 . S
C1623 C1625 1.419 . S
C1624 C1622 1.415 . S
C1624 C1629 1.425 . S
C1624 C1631 1.409 . S
C1625 H1617 0.930 . S
C1625 C1623 1.419 . S
C1625 C1626 1.362 . S
C1626 H1618 0.930 . S
C1626 C1625 1.362 . S
C1626 C1629 1.409 . S
C1627 H1619 0.930 . S
C1627 C1628 1.355 . S
C1627 C1629 1.415 . S
C1628 C1627 1.355 . S
C1628 C1630 1.419 . S
C1629 C1624 1.425 . S
C1629 C1626 1.409 . S
C1629 C1627 1.415 . S
C1630 H1620 0.930 . S
C1630 C1628 1.419 . S
C1630 C1631 1.362 . S
C1631 H1621 0.930 . S
C1631 C1624 1.409 . S
C1631 C1630 1.362 . S
H1632 C1638 0.930 . S
H1633 C1641 0.930 . S
H1634 C1642 0.930 . S
H1635 C1643 0.930 . S
H1636 C1646 0.930 . S
H1637 C1647 0.930 . S
C1638 H1632 0.930 . S
C1638 C1639 1.355 . S
C1638 C1640 1.415 . S
C1639 C1638 1.355 . S
C1639 C1641 1.419 . S
C1640 C1638 1.415 . S
C1640 C1645 1.425 . S
C1640 C1647 1.409 . S
C1641 H1633 0.930 . S
C1641 C1639 1.419 . S
C1641 C1642 1.362 . S
C1642 H1634 0.930 . S
C1642 C1641 1.362 . S
C1642 C1645 1.409 . S
C1643 H1635 0.930 . S
C1643 C1644 1.355 . S
C1643 C1645 1.415 . S
C1644 C1643 1.355 . S
C1644 C1646 1.419 . S
C1645 C1640 1.425 . S
C1645 C1642 1.409 . S
C1645 C1643 1.415 . S
C1646 H1636 0.930 . S
C1646 C1644 1.419 . S
C1646 C1647 1.362 . S
C1647 H1637 0.930 . S
C1647 C1640 1.409 . S
C1647 C1646 1.362 . S
H1648 C1654 0.930 . S
H1649 C1657 0.930 . S
H1650 C1658 0.930 . S
H1651 C1659 0.930 . S
H1652 C1662 0.930 . S
H1653 C1663 0.930 . S
C1654 H1648 0.930 . S
C1654 C1655 1.355 . S
C1654 C1656 1.415 . S
C1655 C1654 1.355 . S
C1655 C1657 1.419 . S
C1656 C1654 1.415 . S
C1656 C1661 1.425 . S
C1656 C1663 1.409 . S
C1657 H1649 0.930 . S
C1657 C1655 1.419 . S
C1657 C1658 1.362 . S
C1658 H1650 0.930 . S
C1658 C1657 1.362 . S
C1658 C1661 1.409 . S
C1659 H1651 0.930 . S
C1659 C1660 1.355 . S
C1659 C1661 1.415 . S
C1660 C1659 1.355 . S
C1660 C1662 1.419 . S
C1661 C1656 1.425 . S
C1661 C1658 1.409 . S
C1661 C1659 1.415 . S
C1662 H1652 0.930 . S
C1662 C1660 1.419 . S
C1662 C1663 1.362 . S
C1663 H1653 0.930 . S
C1663 C1656 1.409 . S
C1663 C1662 1.362 . S
H1664 C1670 0.930 . S
H1665 C1673 0.930 . S
H1666 C1674 0.930 . S
H1667 C1675 0.930 . S
H1668 C1678 0.930 . S
H1669 C1679 0.930 . S
C1670 H1664 0.930 . S
C1670 C1671 1.355 . S
C1670 C1672 1.415 . S
C1671 C1670 1.355 . S
C1671 C1673 1.419 . S
C1672 C1670 1.415 . S
C1672 C1677 1.425 . S
C1672 C1679 1.409 . S
C1673 H1665 0.930 . S
C1673 C1671 1.419 . S
C1673 C1674 1.362 . S
C1674 H1666 0.930 . S
C1674 C1673 1.362 . S
C1674 C1677 1.409 . S
C1675 H1667 0.930 . S
C1675 C1676 1.355 . S
C1675 C1677 1.415 . S
C1676 C1675 1.355 . S
C1676 C1678 1.419 . S
C1677 C1672 1.425 . S
C1677 C1674 1.409 . S
C1677 C1675 1.415 . S
C1678 H1668 0.930 . S
C1678 C1676 1.419 . S
C1678 C1679 1.362 . S
C1679 H1669 0.930 . S
C1679 C1672 1.409 . S
C1679 C1678 1.362 . S
H1680 C1686 0.930 . S
H1681 C1689 0.930 . S
H1682 C1690 0.930 . S
H1683 C1691 0.930 . S
H1684 C1694 0.930 . S
H1685 C1695 0.930 . S
C1686 H1680 0.930 . S
C1686 C1687 1.355 . S
C1686 C1688 1.415 . S
C1687 C1686 1.355 . S
C1687 C1689 1.419 . S
C1688 C1686 1.415 . S
C1688 C1693 1.425 . S
C1688 C1695 1.409 . S
C1689 H1681 0.930 . S
C1689 C1687 1.419 . S
C1689 C1690 1.362 . S
C1690 H1682 0.930 . S
C1690 C1689 1.362 . S
C1690 C1693 1.409 . S
C1691 H1683 0.930 . S
C1691 C1692 1.355 . S
C1691 C1693 1.415 . S
C1692 C1691 1.355 . S
C1692 C1694 1.419 . S
C1693 C1688 1.425 . S
C1693 C1690 1.409 . S
C1693 C1691 1.415 . S
C1694 H1684 0.930 . S
C1694 C1692 1.419 . S
C1694 C1695 1.362 . S
C1695 H1685 0.930 . S
C1695 C1688 1.409 . S
C1695 C1694 1.362 . S
H1696 C1702 0.930 . S
H1697 C1705 0.930 . S
H1698 C1706 0.930 . S
H1699 C1707 0.930 . S
H1700 C1710 0.930 . S
H1701 C1711 0.930 . S
C1702 H1696 0.930 . S
C1702 C1703 1.355 . S
C1702 C1704 1.415 . S
C1703 C1702 1.355 . S
C1703 C1705 1.419 . S
C1704 C1702 1.415 . S
C1704 C1709 1.425 . S
C1704 C1711 1.409 . S
C1705 H1697 0.930 . S
C1705 C1703 1.419 . S
C1705 C1706 1.362 . S
C1706 H1698 0.930 . S
C1706 C1705 1.362 . S
C1706 C1709 1.409 . S
C1707 H1699 0.930 . S
C1707 C1708 1.355 . S
C1707 C1709 1.415 . S
C1708 C1707 1.355 . S
C1708 C1710 1.419 . S
C1709 C1704 1.425 . S
C1709 C1706 1.409 . S
C1709 C1707 1.415 . S
C1710 H1700 0.930 . S
C1710 C1708 1.419 . S
C1710 C1711 1.362 . S
C1711 H1701 0.930 . S
C1711 C1704 1.409 . S
C1711 C1710 1.362 . S
H1712 C1718 0.930 . S
H1713 C1721 0.930 . S
H1714 C1722 0.930 . S
H1715 C1723 0.930 . S
H1716 C1726 0.930 . S
H1717 C1727 0.930 . S
C1718 H1712 0.930 . S
C1718 C1719 1.355 . S
C1718 C1720 1.415 . S
C1719 C1718 1.355 . S
C1719 C1721 1.419 . S
C1720 C1718 1.415 . S
C1720 C1725 1.425 . S
C1720 C1727 1.409 . S
C1721 H1713 0.930 . S
C1721 C1719 1.419 . S
C1721 C1722 1.362 . S
C1722 H1714 0.930 . S
C1722 C1721 1.362 . S
C1722 C1725 1.409 . S
C1723 H1715 0.930 . S
C1723 C1724 1.355 . S
C1723 C1725 1.415 . S
C1724 C1723 1.355 . S
C1724 C1726 1.419 . S
C1725 C1720 1.425 . S
C1725 C1722 1.409 . S
C1725 C1723 1.415 . S
C1726 H1716 0.930 . S
C1726 C1724 1.419 . S
C1726 C1727 1.362 . S
C1727 H1717 0.930 . S
C1727 C1720 1.409 . S
C1727 C1726 1.362 . S
H1728 C1734 0.930 . S
H1729 C1737 0.930 . S
H1730 C1738 0.930 . S
H1731 C1739 0.930 . S
H1732 C1742 0.930 . S
H1733 C1743 0.930 . S
C1734 H1728 0.930 . S
C1734 C1735 1.355 . S
C1734 C1736 1.415 . S
C1735 C1734 1.355 . S
C1735 C1737 1.419 . S
C1736 C1734 1.415 . S
C1736 C1741 1.425 . S
C1736 C1743 1.409 . S
C1737 H1729 0.930 . S
C1737 C1735 1.419 . S
C1737 C1738 1.362 . S
C1738 H1730 0.930 . S
C1738 C1737 1.362 . S
C1738 C1741 1.409 . S
C1739 H1731 0.930 . S
C1739 C1740 1.355 . S
C1739 C1741 1.415 . S
C1740 C1739 1.355 . S
C1740 C1742 1.419 . S
C1741 C1736 1.425 . S
C1741 C1738 1.409 . S
C1741 C1739 1.415 . S
C1742 H1732 0.930 . S
C1742 C1740 1.419 . S
C1742 C1743 1.362 . S
C1743 H1733 0.930 . S
C1743 C1736 1.409 . S
C1743 C1742 1.362 . S
H1744 C1750 0.930 . S
H1745 C1753 0.930 . S
H1746 C1754 0.930 . S
H1747 C1755 0.930 . S
H1748 C1758 0.930 . S
H1749 C1759 0.930 . S
C1750 H1744 0.930 . S
C1750 C1751 1.355 . S
C1750 C1752 1.415 . S
C1751 C1750 1.355 . S
C1751 C1753 1.419 . S
C1752 C1750 1.415 . S
C1752 C1757 1.425 . S
C1752 C1759 1.409 . S
C1753 H1745 0.930 . S
C1753 C1751 1.419 . S
C1753 C1754 1.362 . S
C1754 H1746 0.930 . S
C1754 C1753 1.362 . S
C1754 C1757 1.409 . S
C1755 H1747 0.930 . S
C1755 C1756 1.355 . S
C1755 C1757 1.415 . S
C1756 C1755 1.355 . S
C1756 C1758 1.419 . S
C1757 C1752 1.425 . S
C1757 C1754 1.409 . S
C1757 C1755 1.415 . S
C1758 H1748 0.930 . S
C1758 C1756 1.419 . S
C1758 C1759 1.362 . S
C1759 H1749 0.930 . S
C1759 C1752 1.409 . S
C1759 C1758 1.362 . S
H1760 C1766 0.930 . S
H1761 C1769 0.930 . S
H1762 C1770 0.930 . S
H1763 C1771 0.930 . S
H1764 C1774 0.930 . S
H1765 C1775 0.930 . S
C1766 H1760 0.930 . S
C1766 C1767 1.355 . S
C1766 C1768 1.415 . S
C1767 C1766 1.355 . S
C1767 C1769 1.419 . S
C1768 C1766 1.415 . S
C1768 C1773 1.425 . S
C1768 C1775 1.409 . S
C1769 H1761 0.930 . S
C1769 C1767 1.419 . S
C1769 C1770 1.362 . S
C1770 H1762 0.930 . S
C1770 C1769 1.362 . S
C1770 C1773 1.409 . S
C1771 H1763 0.930 . S
C1771 C1772 1.355 . S
C1771 C1773 1.415 . S
C1772 C1771 1.355 . S
C1772 C1774 1.419 . S
C1773 C1768 1.425 . S
C1773 C1770 1.409 . S
C1773 C1771 1.415 . S
C1774 H1764 0.930 . S
C1774 C1772 1.419 . S
C1774 C1775 1.362 . S
C1775 H1765 0.930 . S
C1775 C1768 1.409 . S
C1775 C1774 1.362 . S
H1776 C1782 0.930 . S
H1777 C1785 0.930 . S
H1778 C1786 0.930 . S
H1779 C1787 0.930 . S
H1780 C1790 0.930 . S
H1781 C1791 0.930 . S
C1782 H1776 0.930 . S
C1782 C1783 1.355 . S
C1782 C1784 1.415 . S
C1783 C1782 1.355 . S
C1783 C1785 1.419 . S
C1784 C1782 1.415 . S
C1784 C1789 1.425 . S
C1784 C1791 1.409 . S
C1785 H1777 0.930 . S
C1785 C1783 1.419 . S
C1785 C1786 1.362 . S
C1786 H1778 0.930 . S
C1786 C1785 1.362 . S
C1786 C1789 1.409 . S
C1787 H1779 0.930 . S
C1787 C1788 1.355 . S
C1787 C1789 1.415 . S
C1788 C1787 1.355 . S
C1788 C1790 1.419 . S
C1789 C1784 1.425 . S
C1789 C1786 1.409 . S
C1789 C1787 1.415 . S
C1790 H1780 0.930 . S
C1790 C1788 1.419 . S
C1790 C1791 1.362 . S
C1791 H1781 0.930 . S
C1791 C1784 1.409 . S
C1791 C1790 1.362 . S
H1792 C1798 0.930 . S
H1793 C1801 0.930 . S
H1794 C1802 0.930 . S
H1795 C1803 0.930 . S
H1796 C1806 0.930 . S
H1797 C1807 0.930 . S
C1798 H1792 0.930 . S
C1798 C1799 1.355 . S
C1798 C1800 1.415 . S
C1799 C1798 1.355 . S
C1799 C1801 1.419 . S
C1800 C1798 1.415 . S
C1800 C1805 1.425 . S
C1800 C1807 1.409 . S
C1801 H1793 0.930 . S
C1801 C1799 1.419 . S
C1801 C1802 1.362 . S
C1802 H1794 0.930 . S
C1802 C1801 1.362 . S
C1802 C1805 1.409 . S
C1803 H1795 0.930 . S
C1803 C1804 1.355 . S
C1803 C1805 1.415 . S
C1804 C1803 1.355 . S
C1804 C1806 1.419 . S
C1805 C1800 1.425 . S
C1805 C1802 1.409 . S
C1805 C1803 1.415 . S
C1806 H1796 0.930 . S
C1806 C1804 1.419 . S
C1806 C1807 1.362 . S
C1807 H1797 0.930 . S
C1807 C1800 1.409 . S
C1807 C1806 1.362 . S
H1808 C1814 0.930 . S
H1809 C1817 0.930 . S
H1810 C1818 0.930 . S
H1811 C1819 0.930 . S
H1812 C1822 0.930 . S
H1813 C1823 0.930 . S
C1814 H1808 0.930 . S
C1814 C1815 1.355 . S
C1814 C1816 1.415 . S
C1815 C1814 1.355 . S
C1815 C1817 1.419 . S
C1816 C1814 1.415 . S
C1816 C1821 1.425 . S
C1816 C1823 1.409 . S
C1817 H1809 0.930 . S
C1817 C1815 1.419 . S
C1817 C1818 1.362 . S
C1818 H1810 0.930 . S
C1818 C1817 1.362 . S
C1818 C1821 1.409 . S
C1819 H1811 0.930 . S
C1819 C1820 1.355 . S
C1819 C1821 1.415 . S
C1820 C1819 1.355 . S
C1820 C1822 1.419 . S
C1821 C1816 1.425 . S
C1821 C1818 1.409 . S
C1821 C1819 1.415 . S
C1822 H1812 0.930 . S
C1822 C1820 1.419 . S
C1822 C1823 1.362 . S
C1823 H1813 0.930 . S
C1823 C1816 1.409 . S
C1823 C1822 1.362 . S
H1824 C1830 0.930 . S
H1825 C1833 0.930 . S
H1826 C1834 0.930 . S
H1827 C1835 0.930 . S
H1828 C1838 0.930 . S
H1829 C1839 0.930 . S
C1830 H1824 0.930 . S
C1830 C1831 1.355 . S
C1830 C1832 1.415 . S
C1831 C1830 1.355 . S
C1831 C1833 1.419 . S
C1832 C1830 1.415 . S
C1832 C1837 1.425 . S
C1832 C1839 1.409 . S
C1833 H1825 0.930 . S
C1833 C1831 1.419 . S
C1833 C1834 1.362 . S
C1834 H1826 0.930 . S
C1834 C1833 1.362 . S
C1834 C1837 1.409 . S
C1835 H1827 0.930 . S
C1835 C1836 1.355 . S
C1835 C1837 1.415 . S
C1836 C1835 1.355 . S
C1836 C1838 1.419 . S
C1837 C1832 1.425 . S
C1837 C1834 1.409 . S
C1837 C1835 1.415 . S
C1838 H1828 0.930 . S
C1838 C1836 1.419 . S
C1838 C1839 1.362 . S
C1839 H1829 0.930 . S
C1839 C1832 1.409 . S
C1839 C1838 1.362 . S
H1840 C1846 0.930 . S
H1841 C1849 0.930 . S
H1842 C1850 0.930 . S
H1843 C1851 0.930 . S
H1844 C1854 0.930 . S
H1845 C1855 0.930 1_455 S
C1846 H1840 0.930 . S
C1846 C1847 1.355 . S
C1846 C1848 1.415 1_455 S
C1847 C1846 1.355 . S
C1847 C1849 1.419 1_455 S
C1848 C1846 1.415 1_655 S
C1848 C1853 1.425 . S
C1848 C1855 1.409 . S
C1849 H1841 0.930 . S
C1849 C1847 1.419 1_655 S
C1849 C1850 1.362 . S
C1850 H1842 0.930 . S
C1850 C1849 1.362 . S
C1850 C1853 1.409 . S
C1851 H1843 0.930 . S
C1851 C1852 1.355 . S
C1851 C1853 1.415 . S
C1852 C1851 1.355 . S
C1852 C1854 1.419 . S
C1853 C1848 1.425 . S
C1853 C1850 1.409 . S
C1853 C1851 1.415 . S
C1854 H1844 0.930 . S
C1854 C1852 1.419 . S
C1854 C1855 1.362 . S
C1855 H1845 0.930 1_655 S
C1855 C1848 1.409 . S
C1855 C1854 1.362 . S
H1856 C1862 0.930 . S
H1857 C1865 0.930 . S
H1858 C1866 0.930 . S
H1859 C1867 0.930 . S
H1860 C1870 0.930 . S
H1861 C1871 0.930 . S
C1862 H1856 0.930 . S
C1862 C1863 1.355 . S
C1862 C1864 1.415 . S
C1863 C1862 1.355 . S
C1863 C1865 1.419 . S
C1864 C1862 1.415 . S
C1864 C1869 1.425 . S
C1864 C1871 1.409 . S
C1865 H1857 0.930 . S
C1865 C1863 1.419 . S
C1865 C1866 1.362 . S
C1866 H1858 0.930 . S
C1866 C1865 1.362 . S
C1866 C1869 1.409 . S
C1867 H1859 0.930 . S
C1867 C1868 1.355 . S
C1867 C1869 1.415 . S
C1868 C1867 1.355 . S
C1868 C1870 1.419 . S
C1869 C1864 1.425 . S
C1869 C1866 1.409 . S
C1869 C1867 1.415 . S
C1870 H1860 0.930 . S
C1870 C1868 1.419 . S
C1870 C1871 1.362 . S
C1871 H1861 0.930 . S
C1871 C1864 1.409 . S
C1871 C1870 1.362 . S
H1872 C1878 0.930 . S
H1873 C1881 0.930 . S
H1874 C1882 0.930 . S
H1875 C1883 0.930 . S
H1876 C1886 0.930 . S
H1877 C1887 0.930 1_455 S
C1878 H1872 0.930 . S
C1878 C1879 1.355 . S
C1878 C1880 1.415 1_455 S
C1879 C1878 1.355 . S
C1879 C1881 1.419 1_455 S
C1880 C1878 1.415 1_655 S
C1880 C1885 1.425 . S
C1880 C1887 1.409 . S
C1881 H1873 0.930 . S
C1881 C1879 1.419 1_655 S
C1881 C1882 1.362 . S
C1882 H1874 0.930 . S
C1882 C1881 1.362 . S
C1882 C1885 1.409 . S
C1883 H1875 0.930 . S
C1883 C1884 1.355 . S
C1883 C1885 1.415 . S
C1884 C1883 1.355 . S
C1884 C1886 1.419 . S
C1885 C1880 1.425 . S
C1885 C1882 1.409 . S
C1885 C1883 1.415 . S
C1886 H1876 0.930 . S
C1886 C1884 1.419 . S
C1886 C1887 1.362 . S
C1887 H1877 0.930 1_655 S
C1887 C1880 1.409 . S
C1887 C1886 1.362 . S
H1888 C1894 0.930 . S
H1889 C1897 0.930 . S
H1890 C1898 0.930 . S
H1891 C1899 0.930 . S
H1892 C1902 0.930 . S
H1893 C1903 0.930 . S
C1894 H1888 0.930 . S
C1894 C1895 1.355 . S
C1894 C1896 1.415 . S
C1895 C1894 1.355 . S
C1895 C1897 1.419 . S
C1896 C1894 1.415 . S
C1896 C1901 1.425 . S
C1896 C1903 1.409 . S
C1897 H1889 0.930 . S
C1897 C1895 1.419 . S
C1897 C1898 1.362 . S
C1898 H1890 0.930 . S
C1898 C1897 1.362 . S
C1898 C1901 1.409 . S
C1899 H1891 0.930 . S
C1899 C1900 1.355 . S
C1899 C1901 1.415 . S
C1900 C1899 1.355 . S
C1900 C1902 1.419 . S
C1901 C1896 1.425 . S
C1901 C1898 1.409 . S
C1901 C1899 1.415 . S
C1902 H1892 0.930 . S
C1902 C1900 1.419 . S
C1902 C1903 1.362 . S
C1903 H1893 0.930 . S
C1903 C1896 1.409 . S
C1903 C1902 1.362 . S
H1904 C1910 0.930 . S
H1905 C1913 0.930 1_655 S
H1906 C1914 0.930 . S
H1907 C1915 0.930 . S
H1908 C1918 0.930 . S
H1909 C1919 0.930 . S
C1910 H1904 0.930 . S
C1910 C1911 1.355 . S
C1910 C1912 1.415 . S
C1911 C1910 1.355 . S
C1911 C1913 1.419 . S
C1912 C1910 1.415 . S
C1912 C1917 1.425 . S
C1912 C1919 1.409 . S
C1913 H1905 0.930 1_455 S
C1913 C1911 1.419 . S
C1913 C1914 1.362 1_455 S
C1914 H1906 0.930 . S
C1914 C1913 1.362 1_655 S
C1914 C1917 1.409 1_655 S
C1915 H1907 0.930 . S
C1915 C1916 1.355 . S
C1915 C1917 1.415 1_655 S
C1916 C1915 1.355 . S
C1916 C1918 1.419 1_655 S
C1917 C1912 1.425 . S
C1917 C1914 1.409 1_455 S
C1917 C1915 1.415 1_455 S
C1918 H1908 0.930 . S
C1918 C1916 1.419 1_455 S
C1918 C1919 1.362 . S
C1919 H1909 0.930 . S
C1919 C1912 1.409 . S
C1919 C1918 1.362 . S
H1920 C1926 0.930 . S
H1921 C1929 0.930 . S
H1922 C1930 0.930 . S
H1923 C1931 0.930 . S
H1924 C1934 0.930 . S
H1925 C1935 0.930 . S
C1926 H1920 0.930 . S
C1926 C1927 1.355 . S
C1926 C1928 1.415 . S
C1927 C1926 1.355 . S
C1927 C1929 1.419 . S
C1928 C1926 1.415 . S
C1928 C1933 1.425 . S
C1928 C1935 1.409 . S
C1929 H1921 0.930 . S
C1929 C1927 1.419 . S
C1929 C1930 1.362 . S
C1930 H1922 0.930 . S
C1930 C1929 1.362 . S
C1930 C1933 1.409 . S
C1931 H1923 0.930 . S
C1931 C1932 1.355 . S
C1931 C1933 1.415 . S
C1932 C1931 1.355 . S
C1932 C1934 1.419 . S
C1933 C1928 1.425 . S
C1933 C1930 1.409 . S
C1933 C1931 1.415 . S
C1934 H1924 0.930 . S
C1934 C1932 1.419 . S
C1934 C1935 1.362 . S
C1935 H1925 0.930 . S
C1935 C1928 1.409 . S
C1935 C1934 1.362 . S
H1936 C1942 0.923 1_655 S
H1937 C1945 0.930 . S
H1938 C1946 0.930 . S
H1939 C1947 0.930 . S
H1940 C1950 0.930 . S
H1941 C1951 0.930 . S
C1942 H1936 0.923 1_455 S
C1942 C1943 1.355 . S
C1942 C1944 1.415 . S
C1943 C1942 1.355 . S
C1943 C1945 1.419 . S
C1944 C1942 1.415 . S
C1944 C1949 1.425 . S
C1944 C1951 1.409 1_455 S
C1945 H1937 0.930 . S
C1945 C1943 1.419 . S
C1945 C1946 1.362 . S
C1946 H1938 0.930 . S
C1946 C1945 1.362 . S
C1946 C1949 1.409 . S
C1947 H1939 0.930 . S
C1947 C1948 1.355 1_455 S
C1947 C1949 1.415 . S
C1948 C1947 1.355 1_655 S
C1948 C1950 1.419 . S
C1949 C1944 1.425 . S
C1949 C1946 1.409 . S
C1949 C1947 1.415 . S
C1950 H1940 0.930 . S
C1950 C1948 1.419 . S
C1950 C1951 1.362 . S
C1951 H1941 0.930 . S
C1951 C1944 1.409 1_655 S
C1951 C1950 1.362 . S
H1952 C1958 0.930 . S
H1953 C1961 0.930 . S
H1954 C1962 0.930 . S
H1955 C1963 0.930 . S
H1956 C1966 0.930 . S
H1957 C1967 0.930 . S
C1958 H1952 0.930 . S
C1958 C1959 1.355 . S
C1958 C1960 1.415 . S
C1959 C1958 1.355 . S
C1959 C1961 1.419 . S
C1960 C1958 1.415 . S
C1960 C1965 1.425 . S
C1960 C1967 1.409 . S
C1961 H1953 0.930 . S
C1961 C1959 1.419 . S
C1961 C1962 1.362 . S
C1962 H1954 0.930 . S
C1962 C1961 1.362 . S
C1962 C1965 1.409 . S
C1963 H1955 0.930 . S
C1963 C1964 1.355 . S
C1963 C1965 1.415 . S
C1964 C1963 1.355 . S
C1964 C1966 1.419 . S
C1965 C1960 1.425 . S
C1965 C1962 1.409 . S
C1965 C1963 1.415 . S
C1966 H1956 0.930 . S
C1966 C1964 1.419 . S
C1966 C1967 1.362 . S
C1967 H1957 0.930 . S
C1967 C1960 1.409 . S
C1967 C1966 1.362 . S
H1968 C1974 0.930 . S
H1969 C1977 0.930 . S
H1970 C1978 0.930 . S
H1971 C1979 0.930 . S
H1972 C1982 0.930 . S
H1973 C1983 0.930 . S
C1974 H1968 0.930 . S
C1974 C1975 1.355 1_655 S
C1974 C1976 1.415 . S
C1975 C1974 1.355 1_455 S
C1975 C1977 1.419 . S
C1976 C1974 1.415 . S
C1976 C1981 1.425 . S
C1976 C1983 1.409 . S
C1977 H1969 0.930 . S
C1977 C1975 1.419 . S
C1977 C1978 1.362 1_455 S
C1978 H1970 0.930 . S
C1978 C1977 1.362 1_655 S
C1978 C1981 1.409 . S
C1979 H1971 0.930 . S
C1979 C1980 1.355 . S
C1979 C1981 1.415 . S
C1980 C1979 1.355 . S
C1980 C1982 1.419 . S
C1981 C1976 1.425 . S
C1981 C1978 1.409 . S
C1981 C1979 1.415 . S
C1982 H1972 0.930 . S
C1982 C1980 1.419 . S
C1982 C1983 1.362 . S
C1983 H1973 0.930 . S
C1983 C1976 1.409 . S
C1983 C1982 1.362 . S
H1984 C1990 0.930 . S
H1985 C1993 0.930 . S
H1986 C1994 0.930 . S
H1987 C1995 0.930 . S
H1988 C1998 0.930 . S
H1989 C1999 0.930 . S
C1990 H1984 0.930 . S
C1990 C1991 1.355 . S
C1990 C1992 1.415 . S
C1991 C1990 1.355 . S
C1991 C1993 1.419 . S
C1992 C1990 1.415 . S
C1992 C1997 1.425 . S
C1992 C1999 1.409 . S
C1993 H1985 0.930 . S
C1993 C1991 1.419 . S
C1993 C1994 1.362 . S
C1994 H1986 0.930 . S
C1994 C1993 1.362 . S
C1994 C1997 1.409 . S
C1995 H1987 0.930 . S
C1995 C1996 1.355 . S
C1995 C1997 1.415 . S
C1996 C1995 1.355 . S
C1996 C1998 1.419 . S
C1997 C1992 1.425 . S
C1997 C1994 1.409 . S
C1997 C1995 1.415 . S
C1998 H1988 0.930 . S
C1998 C1996 1.419 . S
C1998 C1999 1.362 . S
C1999 H1989 0.930 . S
C1999 C1992 1.409 . S
C1999 C1998 1.362 . S
H2000 C2006 0.930 . S
H2001 C2009 0.904 1_455 S
H2002 C2010 0.930 . S
H2003 C2011 0.930 . S
H2004 C2014 0.930 . S
H2005 C2015 0.930 . S
C2006 H2000 0.930 . S
C2006 C2007 1.355 . S
C2006 C2008 1.415 . S
C2007 C2006 1.355 . S
C2007 C2009 1.419 . S
C2008 C2006 1.415 . S
C2008 C2013 1.425 . S
C2008 C2015 1.409 . S
C2009 H2001 0.904 1_655 S
C2009 C2007 1.419 . S
C2009 C2010 1.362 1_655 S
C2010 H2002 0.930 . S
C2010 C2009 1.362 1_455 S
C2010 C2013 1.409 1_455 S
C2011 H2003 0.930 . S
C2011 C2012 1.355 . S
C2011 C2013 1.415 1_455 S
C2012 C2011 1.355 . S
C2012 C2014 1.419 1_455 S
C2013 C2008 1.425 . S
C2013 C2010 1.409 1_655 S
C2013 C2011 1.415 1_655 S
C2014 H2004 0.930 . S
C2014 C2012 1.419 1_655 S
C2014 C2015 1.362 . S
C2015 H2005 0.930 . S
C2015 C2008 1.409 . S
C2015 C2014 1.362 . S
H2016 C2022 0.930 . S
H2017 C2025 0.930 . S
H2018 C2026 0.930 . S
H2019 C2027 0.930 . S
H2020 C2030 0.930 . S
H2021 C2031 0.930 . S
C2022 H2016 0.930 . S
C2022 C2023 1.355 . S
C2022 C2024 1.415 . S
C2023 C2022 1.355 . S
C2023 C2025 1.419 . S
C2024 C2022 1.415 . S
C2024 C2029 1.425 . S
C2024 C2031 1.409 . S
C2025 H2017 0.930 . S
C2025 C2023 1.419 . S
C2025 C2026 1.362 . S
C2026 H2018 0.930 . S
C2026 C2025 1.362 . S
C2026 C2029 1.409 . S
C2027 H2019 0.930 . S
C2027 C2028 1.355 . S
C2027 C2029 1.415 . S
C2028 C2027 1.355 . S
C2028 C2030 1.419 . S
C2029 C2024 1.425 . S
C2029 C2026 1.409 . S
C2029 C2027 1.415 . S
C2030 H2020 0.930 . S
C2030 C2028 1.419 . S
C2030 C2031 1.362 . S
C2031 H2021 0.930 . S
C2031 C2024 1.409 . S
C2031 C2030 1.362 . S
H2032 C2038 0.930 . S
H2033 C2041 0.930 . S
H2034 C2042 0.930 . S
H2035 C2043 0.930 . S
H2036 C2046 0.930 . S
H2037 C2047 0.930 . S
C2038 H2032 0.930 . S
C2038 C2039 1.355 . S
C2038 C2040 1.415 . S
C2039 C2038 1.355 . S
C2039 C2041 1.419 . S
C2040 C2038 1.415 . S
C2040 C2045 1.425 . S
C2040 C2047 1.409 . S
C2041 H2033 0.930 . S
C2041 C2039 1.419 . S
C2041 C2042 1.362 1_455 S
C2042 H2034 0.930 . S
C2042 C2041 1.362 1_655 S
C2042 C2045 1.409 1_655 S
C2043 H2035 0.930 . S
C2043 C2044 1.355 . S
C2043 C2045 1.415 1_655 S
C2044 C2043 1.355 . S
C2044 C2046 1.419 1_655 S
C2045 C2040 1.425 . S
C2045 C2042 1.409 1_455 S
C2045 C2043 1.415 1_455 S
C2046 H2036 0.930 . S
C2046 C2044 1.419 1_455 S
C2046 C2047 1.362 . S
C2047 H2037 0.930 . S
C2047 C2040 1.409 . S
C2047 C2046 1.362 . S
H2048 C2054 0.930 . S
H2049 C2057 0.930 . S
H2050 C2058 0.930 . S
H2051 C2059 0.930 . S
H2052 C2062 0.930 . S
H2053 C2063 0.930 . S
C2054 H2048 0.930 . S
C2054 C2055 1.355 . S
C2054 C2056 1.415 . S
C2055 C2054 1.355 . S
C2055 C2057 1.419 . S
C2056 C2054 1.415 . S
C2056 C2061 1.425 . S
C2056 C2063 1.409 . S
C2057 H2049 0.930 . S
C2057 C2055 1.419 . S
C2057 C2058 1.362 . S
C2058 H2050 0.930 . S
C2058 C2057 1.362 . S
C2058 C2061 1.409 . S
C2059 H2051 0.930 . S
C2059 C2060 1.355 . S
C2059 C2061 1.415 . S
C2060 C2059 1.355 . S
C2060 C2062 1.419 . S
C2061 C2056 1.425 . S
C2061 C2058 1.409 . S
C2061 C2059 1.415 . S
C2062 H2052 0.930 . S
C2062 C2060 1.419 . S
C2062 C2063 1.362 . S
C2063 H2053 0.930 . S
C2063 C2056 1.409 . S
C2063 C2062 1.362 . S
H2064 C2070 0.922 1_655 S
H2065 C2073 0.937 . S
H2066 C2074 0.930 . S
H2067 C2075 0.930 . S
H2068 C2078 0.930 . S
H2069 C2079 0.930 . S
C2070 H2064 0.922 1_455 S
C2070 C2071 1.350 1_455 S
C2070 C2072 1.428 . S
C2071 C2070 1.350 1_655 S
C2071 C2073 1.419 1_655 S
C2072 C2070 1.428 . S
C2072 C2077 1.425 . S
C2072 C2079 1.409 . S
C2073 H2065 0.937 . S
C2073 C2071 1.419 1_455 S
C2073 C2074 1.362 . S
C2074 H2066 0.930 . S
C2074 C2073 1.362 . S
C2074 C2077 1.409 . S
C2075 H2067 0.930 . S
C2075 C2076 1.355 . S
C2075 C2077 1.415 . S
C2076 C2075 1.355 . S
C2076 C2078 1.419 . S
C2077 C2072 1.425 . S
C2077 C2074 1.409 . S
C2077 C2075 1.415 . S
C2078 H2068 0.930 . S
C2078 C2076 1.419 . S
C2078 C2079 1.362 . S
C2079 H2069 0.930 . S
C2079 C2072 1.409 . S
C2079 C2078 1.362 . S
H2080 C2086 0.930 . S
H2081 C2089 0.930 . S
H2082 C2090 0.930 . S
H2083 C2091 0.930 . S
H2084 C2094 0.930 . S
H2085 C2095 0.930 . S
C2086 H2080 0.930 . S
C2086 C2087 1.355 . S
C2086 C2088 1.415 . S
C2087 C2086 1.355 . S
C2087 C2089 1.419 . S
C2088 C2086 1.415 . S
C2088 C2093 1.425 . S
C2088 C2095 1.409 . S
C2089 H2081 0.930 . S
C2089 C2087 1.419 . S
C2089 C2090 1.362 . S
C2090 H2082 0.930 . S
C2090 C2089 1.362 . S
C2090 C2093 1.409 . S
C2091 H2083 0.930 . S
C2091 C2092 1.355 . S
C2091 C2093 1.415 . S
C2092 C2091 1.355 . S
C2092 C2094 1.419 . S
C2093 C2088 1.425 . S
C2093 C2090 1.409 . S
C2093 C2091 1.415 . S
C2094 H2084 0.930 . S
C2094 C2092 1.419 . S
C2094 C2095 1.362 . S
C2095 H2085 0.930 . S
C2095 C2088 1.409 . S
C2095 C2094 1.362 . S
H2096 C2102 0.930 . S
H2097 C2105 0.930 . S
H2098 C2106 0.930 . S
H2099 C2107 0.930 . S
H2100 C2110 0.930 . S
H2101 C2111 0.930 . S
C2102 H2096 0.930 . S
C2102 C2103 1.355 . S
C2102 C2104 1.415 . S
C2103 C2102 1.355 . S
C2103 C2105 1.419 . S
C2104 C2102 1.415 . S
C2104 C2109 1.425 . S
C2104 C2111 1.409 . S
C2105 H2097 0.930 . S
C2105 C2103 1.419 . S
C2105 C2106 1.362 . S
C2106 H2098 0.930 . S
C2106 C2105 1.362 . S
C2106 C2109 1.409 . S
C2107 H2099 0.930 . S
C2107 C2108 1.355 . S
C2107 C2109 1.415 . S
C2108 C2107 1.355 . S
C2108 C2110 1.419 . S
C2109 C2104 1.425 . S
C2109 C2106 1.409 . S
C2109 C2107 1.415 . S
C2110 H2100 0.930 . S
C2110 C2108 1.419 . S
C2110 C2111 1.362 . S
C2111 H2101 0.930 . S
C2111 C2104 1.409 . S
C2111 C2110 1.362 . S
H2112 C2118 0.930 . S
H2113 C2121 0.930 . S
H2114 C2122 0.930 . S
H2115 C2123 0.930 . S
H2116 C2126 0.930 . S
H2117 C2127 0.930 . S
C2118 H2112 0.930 . S
C2118 C2119 1.355 . S
C2118 C2120 1.415 . S
C2119 C2118 1.355 . S
C2119 C2121 1.419 . S
C2120 C2118 1.415 . S
C2120 C2125 1.425 . S
C2120 C2127 1.409 . S
C2121 H2113 0.930 . S
C2121 C2119 1.419 . S
C2121 C2122 1.362 . S
C2122 H2114 0.930 . S
C2122 C2121 1.362 . S
C2122 C2125 1.409 . S
C2123 H2115 0.930 . S
C2123 C2124 1.355 . S
C2123 C2125 1.415 . S
C2124 C2123 1.355 . S
C2124 C2126 1.419 . S
C2125 C2120 1.425 . S
C2125 C2122 1.409 . S
C2125 C2123 1.415 . S
C2126 H2116 0.930 . S
C2126 C2124 1.419 . S
C2126 C2127 1.362 . S
C2127 H2117 0.930 . S
C2127 C2120 1.409 . S
C2127 C2126 1.362 . S
H2128 C2134 0.930 . S
H2129 C2137 0.930 . S
H2130 C2138 0.930 . S
H2131 C2139 0.930 . S
H2132 C2142 0.930 . S
H2133 C2143 0.930 . S
C2134 H2128 0.930 . S
C2134 C2135 1.355 . S
C2134 C2136 1.415 . S
C2135 C2134 1.355 . S
C2135 C2137 1.419 . S
C2136 C2134 1.415 . S
C2136 C2141 1.425 . S
C2136 C2143 1.409 . S
C2137 H2129 0.930 . S
C2137 C2135 1.419 . S
C2137 C2138 1.362 . S
C2138 H2130 0.930 . S
C2138 C2137 1.362 . S
C2138 C2141 1.409 . S
C2139 H2131 0.930 . S
C2139 C2140 1.355 . S
C2139 C2141 1.415 . S
C2140 C2139 1.355 . S
C2140 C2142 1.419 . S
C2141 C2136 1.425 . S
C2141 C2138 1.409 . S
C2141 C2139 1.415 . S
C2142 H2132 0.930 . S
C2142 C2140 1.419 . S
C2142 C2143 1.362 . S
C2143 H2133 0.930 . S
C2143 C2136 1.409 . S
C2143 C2142 1.362 . S
H2144 C2150 0.930 . S
H2145 C2153 0.930 . S
H2146 C2154 0.930 . S
H2147 C2155 0.930 . S
H2148 C2158 0.930 . S
H2149 C2159 0.930 . S
C2150 H2144 0.930 . S
C2150 C2151 1.355 . S
C2150 C2152 1.415 . S
C2151 C2150 1.355 . S
C2151 C2153 1.419 . S
C2152 C2150 1.415 . S
C2152 C2157 1.425 . S
C2152 C2159 1.409 . S
C2153 H2145 0.930 . S
C2153 C2151 1.419 . S
C2153 C2154 1.362 . S
C2154 H2146 0.930 . S
C2154 C2153 1.362 . S
C2154 C2157 1.409 . S
C2155 H2147 0.930 . S
C2155 C2156 1.355 . S
C2155 C2157 1.415 . S
C2156 C2155 1.355 . S
C2156 C2158 1.419 . S
C2157 C2152 1.425 . S
C2157 C2154 1.409 . S
C2157 C2155 1.415 . S
C2158 H2148 0.930 . S
C2158 C2156 1.419 . S
C2158 C2159 1.362 . S
C2159 H2149 0.930 . S
C2159 C2152 1.409 . S
C2159 C2158 1.362 . S
H2160 C2166 0.930 . S
H2161 C2169 0.930 . S
H2162 C2170 0.930 . S
H2163 C2171 0.930 . S
H2164 C2174 0.930 . S
H2165 C2175 0.930 . S
C2166 H2160 0.930 . S
C2166 C2167 1.355 . S
C2166 C2168 1.415 . S
C2167 C2166 1.355 . S
C2167 C2169 1.419 . S
C2168 C2166 1.415 . S
C2168 C2173 1.425 . S
C2168 C2175 1.409 . S
C2169 H2161 0.930 . S
C2169 C2167 1.419 . S
C2169 C2170 1.362 . S
C2170 H2162 0.930 . S
C2170 C2169 1.362 . S
C2170 C2173 1.409 . S
C2171 H2163 0.930 . S
C2171 C2172 1.355 . S
C2171 C2173 1.415 . S
C2172 C2171 1.355 . S
C2172 C2174 1.419 . S
C2173 C2168 1.425 . S
C2173 C2170 1.409 . S
C2173 C2171 1.415 . S
C2174 H2164 0.930 . S
C2174 C2172 1.419 . S
C2174 C2175 1.362 . S
C2175 H2165 0.930 . S
C2175 C2168 1.409 . S
C2175 C2174 1.362 . S
H2176 C2182 0.930 . S
H2177 C2185 0.930 . S
H2178 C2186 0.930 . S
H2179 C2187 0.930 . S
H2180 C2190 0.930 . S
H2181 C2191 0.930 . S
C2182 H2176 0.930 . S
C2182 C2183 1.355 . S
C2182 C2184 1.415 . S
C2183 C2182 1.355 . S
C2183 C2185 1.419 . S
C2184 C2182 1.415 . S
C2184 C2189 1.425 . S
C2184 C2191 1.409 . S
C2185 H2177 0.930 . S
C2185 C2183 1.419 . S
C2185 C2186 1.362 . S
C2186 H2178 0.930 . S
C2186 C2185 1.362 . S
C2186 C2189 1.409 . S
C2187 H2179 0.930 . S
C2187 C2188 1.355 . S
C2187 C2189 1.415 . S
C2188 C2187 1.355 . S
C2188 C2190 1.419 . S
C2189 C2184 1.425 . S
C2189 C2186 1.409 . S
C2189 C2187 1.415 . S
C2190 H2180 0.930 . S
C2190 C2188 1.419 . S
C2190 C2191 1.362 . S
C2191 H2181 0.930 . S
C2191 C2184 1.409 . S
C2191 C2190 1.362 . S
H2192 C2198 0.930 . S
H2193 C2201 0.930 . S
H2194 C2202 0.930 . S
H2195 C2203 0.930 . S
H2196 C2206 0.930 . S
H2197 C2207 0.930 . S
C2198 H2192 0.930 . S
C2198 C2199 1.355 . S
C2198 C2200 1.415 . S
C2199 C2198 1.355 . S
C2199 C2201 1.419 . S
C2200 C2198 1.415 . S
C2200 C2205 1.425 . S
C2200 C2207 1.409 . S
C2201 H2193 0.930 . S
C2201 C2199 1.419 . S
C2201 C2202 1.362 . S
C2202 H2194 0.930 . S
C2202 C2201 1.362 . S
C2202 C2205 1.409 . S
C2203 H2195 0.930 . S
C2203 C2204 1.355 . S
C2203 C2205 1.415 . S
C2204 C2203 1.355 . S
C2204 C2206 1.419 . S
C2205 C2200 1.425 . S
C2205 C2202 1.409 . S
C2205 C2203 1.415 . S
C2206 H2196 0.930 . S
C2206 C2204 1.419 . S
C2206 C2207 1.362 . S
C2207 H2197 0.930 . S
C2207 C2200 1.409 . S
C2207 C2206 1.362 . S
H2208 C2214 0.930 . S
H2209 C2217 0.930 . S
H2210 C2218 0.930 . S
H2211 C2219 0.930 . S
H2212 C2222 0.930 . S
H2213 C2223 0.930 . S
C2214 H2208 0.930 . S
C2214 C2215 1.355 . S
C2214 C2216 1.415 . S
C2215 C2214 1.355 . S
C2215 C2217 1.419 . S
C2216 C2214 1.415 . S
C2216 C2221 1.425 . S
C2216 C2223 1.409 . S
C2217 H2209 0.930 . S
C2217 C2215 1.419 . S
C2217 C2218 1.362 . S
C2218 H2210 0.930 . S
C2218 C2217 1.362 . S
C2218 C2221 1.409 . S
C2219 H2211 0.930 . S
C2219 C2220 1.355 . S
C2219 C2221 1.415 . S
C2220 C2219 1.355 . S
C2220 C2222 1.419 . S
C2221 C2216 1.425 . S
C2221 C2218 1.409 . S
C2221 C2219 1.415 . S
C2222 H2212 0.930 . S
C2222 C2220 1.419 . S
C2222 C2223 1.362 . S
C2223 H2213 0.930 . S
C2223 C2216 1.409 . S
C2223 C2222 1.362 . S
H2224 C2230 0.930 . S
H2225 C2233 0.930 . S
H2226 C2234 0.930 . S
H2227 C2235 0.930 . S
H2228 C2238 0.930 . S
H2229 C2239 0.930 . S
C2230 H2224 0.930 . S
C2230 C2231 1.355 . S
C2230 C2232 1.415 . S
C2231 C2230 1.355 . S
C2231 C2233 1.419 . S
C2232 C2230 1.415 . S
C2232 C2237 1.425 . S
C2232 C2239 1.409 . S
C2233 H2225 0.930 . S
C2233 C2231 1.419 . S
C2233 C2234 1.362 . S
C2234 H2226 0.930 . S
C2234 C2233 1.362 . S
C2234 C2237 1.409 . S
C2235 H2227 0.930 . S
C2235 C2236 1.355 . S
C2235 C2237 1.415 . S
C2236 C2235 1.355 . S
C2236 C2238 1.419 . S
C2237 C2232 1.425 . S
C2237 C2234 1.409 . S
C2237 C2235 1.415 . S
C2238 H2228 0.930 . S
C2238 C2236 1.419 . S
C2238 C2239 1.362 . S
C2239 H2229 0.930 . S
C2239 C2232 1.409 . S
C2239 C2238 1.362 . S
H2240 C2246 0.930 . S
H2241 C2249 0.930 . S
H2242 C2250 0.930 . S
H2243 C2251 0.930 . S
H2244 C2254 0.930 . S
H2245 C2255 0.930 . S
C2246 H2240 0.930 . S
C2246 C2247 1.355 . S
C2246 C2248 1.415 . S
C2247 C2246 1.355 . S
C2247 C2249 1.419 . S
C2248 C2246 1.415 . S
C2248 C2253 1.425 . S
C2248 C2255 1.409 . S
C2249 H2241 0.930 . S
C2249 C2247 1.419 . S
C2249 C2250 1.362 . S
C2250 H2242 0.930 . S
C2250 C2249 1.362 . S
C2250 C2253 1.409 . S
C2251 H2243 0.930 . S
C2251 C2252 1.355 . S
C2251 C2253 1.415 . S
C2252 C2251 1.355 . S
C2252 C2254 1.419 . S
C2253 C2248 1.425 . S
C2253 C2250 1.409 . S
C2253 C2251 1.415 . S
C2254 H2244 0.930 . S
C2254 C2252 1.419 . S
C2254 C2255 1.362 . S
C2255 H2245 0.930 . S
C2255 C2248 1.409 . S
C2255 C2254 1.362 . S
H2256 C2262 0.930 . S
H2257 C2265 0.930 . S
H2258 C2266 0.930 . S
H2259 C2267 0.930 . S
H2260 C2270 0.930 . S
H2261 C2271 0.930 . S
C2262 H2256 0.930 . S
C2262 C2263 1.355 . S
C2262 C2264 1.415 . S
C2263 C2262 1.355 . S
C2263 C2265 1.419 . S
C2264 C2262 1.415 . S
C2264 C2269 1.425 . S
C2264 C2271 1.409 . S
C2265 H2257 0.930 . S
C2265 C2263 1.419 . S
C2265 C2266 1.362 . S
C2266 H2258 0.930 . S
C2266 C2265 1.362 . S
C2266 C2269 1.409 . S
C2267 H2259 0.930 . S
C2267 C2268 1.355 . S
C2267 C2269 1.415 . S
C2268 C2267 1.355 . S
C2268 C2270 1.419 . S
C2269 C2264 1.425 . S
C2269 C2266 1.409 . S
C2269 C2267 1.415 . S
C2270 H2260 0.930 . S
C2270 C2268 1.419 . S
C2270 C2271 1.362 . S
C2271 H2261 0.930 . S
C2271 C2264 1.409 . S
C2271 C2270 1.362 . S
H2272 C2278 0.930 . S
H2273 C2281 0.930 . S
H2274 C2282 0.930 . S
H2275 C2283 0.930 . S
H2276 C2286 0.930 . S
H2277 C2287 0.930 . S
C2278 H2272 0.930 . S
C2278 C2279 1.355 . S
C2278 C2280 1.415 . S
C2279 C2278 1.355 . S
C2279 C2281 1.419 . S
C2280 C2278 1.415 . S
C2280 C2285 1.425 . S
C2280 C2287 1.409 . S
C2281 H2273 0.930 . S
C2281 C2279 1.419 . S
C2281 C2282 1.362 . S
C2282 H2274 0.930 . S
C2282 C2281 1.362 . S
C2282 C2285 1.409 . S
C2283 H2275 0.930 . S
C2283 C2284 1.355 . S
C2283 C2285 1.415 . S
C2284 C2283 1.355 . S
C2284 C2286 1.419 . S
C2285 C2280 1.425 . S
C2285 C2282 1.409 . S
C2285 C2283 1.415 . S
C2286 H2276 0.930 . S
C2286 C2284 1.419 . S
C2286 C2287 1.362 . S
C2287 H2277 0.930 . S
C2287 C2280 1.409 . S
C2287 C2286 1.362 . S
H2288 C2294 0.930 . S
H2289 C2297 0.930 . S
H2290 C2298 0.930 . S
H2291 C2299 0.930 . S
H2292 C2302 0.930 . S
H2293 C2303 0.930 . S
C2294 H2288 0.930 . S
C2294 C2295 1.355 . S
C2294 C2296 1.415 . S
C2295 C2294 1.355 . S
C2295 C2297 1.419 . S
C2296 C2294 1.415 . S
C2296 C2301 1.425 . S
C2296 C2303 1.409 . S
C2297 H2289 0.930 . S
C2297 C2295 1.419 . S
C2297 C2298 1.362 . S
C2298 H2290 0.930 . S
C2298 C2297 1.362 . S
C2298 C2301 1.409 . S
C2299 H2291 0.930 . S
C2299 C2300 1.355 . S
C2299 C2301 1.415 . S
C2300 C2299 1.355 . S
C2300 C2302 1.419 . S
C2301 C2296 1.425 . S
C2301 C2298 1.409 . S
C2301 C2299 1.415 . S
C2302 H2292 0.930 . S
C2302 C2300 1.419 . S
C2302 C2303 1.362 . S
C2303 H2293 0.930 . S
C2303 C2296 1.409 . S
C2303 C2302 1.362 . S
H2304 C2310 0.930 . S
H2305 C2313 0.930 . S
H2306 C2314 0.930 . S
H2307 C2315 0.930 . S
H2308 C2318 0.930 . S
H2309 C2319 0.930 . S
C2310 H2304 0.930 . S
C2310 C2311 1.355 . S
C2310 C2312 1.415 . S
C2311 C2310 1.355 . S
C2311 C2313 1.419 . S
C2312 C2310 1.415 . S
C2312 C2317 1.425 . S
C2312 C2319 1.409 . S
C2313 H2305 0.930 . S
C2313 C2311 1.419 . S
C2313 C2314 1.362 . S
C2314 H2306 0.930 . S
C2314 C2313 1.362 . S
C2314 C2317 1.409 . S
C2315 H2307 0.930 . S
C2315 C2316 1.355 . S
C2315 C2317 1.415 . S
C2316 C2315 1.355 . S
C2316 C2318 1.419 . S
C2317 C2312 1.425 . S
C2317 C2314 1.409 . S
C2317 C2315 1.415 . S
C2318 H2308 0.930 . S
C2318 C2316 1.419 . S
C2318 C2319 1.362 . S
C2319 H2309 0.930 . S
C2319 C2312 1.409 . S
C2319 C2318 1.362 . S
H2320 C2326 0.930 . S
H2321 C2329 0.930 . S
H2322 C2330 0.930 . S
H2323 C2331 0.930 . S
H2324 C2334 0.930 . S
H2325 C2335 0.930 . S
C2326 H2320 0.930 . S
C2326 C2327 1.355 . S
C2326 C2328 1.415 . S
C2327 C2326 1.355 . S
C2327 C2329 1.419 . S
C2328 C2326 1.415 . S
C2328 C2333 1.425 . S
C2328 C2335 1.409 . S
C2329 H2321 0.930 . S
C2329 C2327 1.419 . S
C2329 C2330 1.362 . S
C2330 H2322 0.930 . S
C2330 C2329 1.362 . S
C2330 C2333 1.409 . S
C2331 H2323 0.930 . S
C2331 C2332 1.355 . S
C2331 C2333 1.415 . S
C2332 C2331 1.355 . S
C2332 C2334 1.419 . S
C2333 C2328 1.425 . S
C2333 C2330 1.409 . S
C2333 C2331 1.415 . S
C2334 H2324 0.930 . S
C2334 C2332 1.419 . S
C2334 C2335 1.362 . S
C2335 H2325 0.930 . S
C2335 C2328 1.409 . S
C2335 C2334 1.362 . S
C1063 N14 0.542 . S
C1068 N344 0.577 . S
C1079 N377 0.557 . S
C1084 N47 0.673 . S
C1095 N278 0.740 . S
C1100 N80 0.769 . S
C1111 N113 0.579 . S
C1116 N311 0.542 . S
C1127 N146 0.537 . S
C1132 N476 0.620 . S
C1143 N179 0.767 . S
C1148 N509 0.681 . S
C1159 N410 0.755 . S
C1164 N212 0.651 . S
C1175 N443 0.610 . S
C1180 N245 0.536 . S
C1191 N872 0.588 . S
C1196 N542 0.710 . S
C1207 N905 0.771 . S
C1212 N575 0.736 . S
C1223 N608 0.740 . S
C1228 N806 0.769 . S
C1239 N839 0.751 . S
C1244 N641 0.644 . S
C1255 N674 0.536 . S
C1260 N1004 0.610 . S
C1271 N1037 0.760 . S
C1276 N707 0.757 . S
C1287 N740 0.757 . S
C1292 N938 0.655 . S
C1303 N773 0.716 . S
C1308 N971 0.773 . S
C1319 C8 1.897 . S
C1324 C833 1.900 . S
C1335 C41 1.898 . S
C1340 C800 1.901 . S
C1351 C74 1.850 . S
C1356 C899 1.843 . S
C1367 C107 1.900 . S
C1372 C866 1.899 . S
C1383 C140 1.899 . S
C1388 C965 1.895 . S
C1399 C173 1.900 . S
C1404 C932 1.897 . S
C1415 C1031 1.837 . S
C1420 C206 1.840 . S
C1431 C239 1.845 . S
C1436 C998 1.839 . S
C1447 C569 1.895 . S
C1452 C272 1.888 . S
C1463 C305 1.896 . S
C1468 C536 1.900 . S
C1479 C338 1.866 . S
C1484 C635 1.856 . S
C1495 C602 1.899 . S
C1500 C371 1.895 . S
C1511 C701 1.896 . S
C1516 C404 1.889 . S
C1527 C668 1.868 . S
C1532 C437 1.858 . S
C1543 C470 1.839 . S
C1548 C767 1.844 . S
C1559 C734 1.839 . S
C1564 C503 1.837 . S
C1575 N71 1.075 . S
C1580 N5 1.057 . S
C1591 N38 1.081 . S
C1596 N104 1.012 . S
C1607 N203 1.086 . S
C1612 N137 1.025 . S
C1623 N170 1.036 . S
C1628 N236 1.020 . S
C1639 N269 1.079 . S
C1644 N335 1.011 . S
C1655 N302 1.085 . S
C1660 N368 1.018 . S
C1671 N467 1.008 . S
C1676 N401 1.075 . S
C1687 N500 1.044 . S
C1692 N434 1.015 . S
C1703 N599 1.013 . S
C1708 N533 1.082 . S
C1719 N566 1.015 . S
C1724 N632 1.083 . S
C1735 N665 1.013 . S
C1740 N731 1.082 . S
C1751 N698 1.023 . S
C1756 N764 1.033 . S
C1767 N863 1.085 . S
C1772 N797 1.020 . S
C1783 N830 1.086 . S
C1788 N896 1.029 . S
C1799 N929 1.007 . S
C1804 N995 1.064 . S
C1815 N1028 1.067 . S
C1820 N962 1.007 . S
C1831 C743 1.944 . S
C1836 C28 1.928 . S
C1847 C512 1.932 . S
C1852 C61 1.916 . S
C1863 C94 1.921 . S
C1868 C941 1.924 . S
C1879 C182 1.947 . S
C1884 C127 1.940 . S
C1895 C160 1.943 . S
C1900 C611 1.940 . S
C1911 C193 1.930 . S
C1916 C380 1.945 . S
C1927 C809 1.945 . S
C1932 C226 1.932 . S
C1943 C259 1.930 . S
C1948 C50 1.927 . S
C1959 C292 1.928 . S
C1964 C1007 1.944 . S
C1975 C248 1.926 . S
C1980 C325 1.916 . S
C1991 C358 1.943 . S
C1996 C677 1.943 . S
C2007 C391 1.933 . S
C2012 C446 1.946 . S
C2023 C875 1.941 . S
C2028 C424 1.924 . S
C2039 C457 1.920 . S
C2044 C116 1.938 . S
C2055 C545 1.945 . S
C2060 C490 1.943 . S
C2071 C314 1.935 . S
C2076 C523 1.918 . S
C2087 C215 1.925 . S
C2092 C556 1.925 . S
C2103 C589 1.934 . S
C2108 C1040 1.929 . S
C2119 C622 1.938 . S
C2124 C413 1.947 . S
C2135 C655 1.920 . S
C2140 C710 1.924 . S
C2151 C688 1.924 . S
C2156 C83 1.925 . S
C2167 C721 1.936 . S
C2172 C908 1.947 . S
C2183 C281 1.943 . S
C2188 C754 1.927 . S
C2199 C578 1.941 . S
C2204 C787 1.924 . S
C2215 C479 1.944 . S
C2220 C820 1.928 . S
C2231 C853 1.939 . S
C2236 C776 1.947 . S
C2247 C149 1.925 . S
C2252 C886 1.927 . S
C2263 C974 1.926 . S
C2268 C919 1.927 . S
C2279 C952 1.942 . S
C2284 C347 1.946 . S
C2295 C985 1.920 . S
C2300 C644 1.937 . S
C2311 C17 1.938 . S
C2316 C1018 1.942 . S
C2327 C1051 1.922 . S
C2332 C842 1.939 . S
