# Generated by pormake.
# Topology sve, (7)-cn, num edge types: 1
# Building blocks:
#     Node 0, Type 0, BuildingBlock: HICVOG_clean_sbu_0, # of connection points: 7
#     Node 1, Type 0, BuildingBlock: HICVOG_clean_sbu_0, # of connection points: 7
#     Node 2, Type 0, BuildingBlock: HICVOG_clean_sbu_0, # of connection points: 7
#     Node 3, Type 0, BuildingBlock: HICVOG_clean_sbu_0, # of connection points: 7
#     Edge 4, Type (0, 0), BuildingBlock: EZIPEK_clean_linker_0, # of connection points: 2
#     Edge 5, Type (0, 0), BuildingBlock: EZIPEK_clean_linker_0, # of connection points: 2
#     Edge 6, Type (0, 0), BuildingBlock: EZIPEK_clean_linker_0, # of connection points: 2
#     Edge 7, Type (0, 0), BuildingBlock: EZIPEK_clean_linker_0, # of connection points: 2
#     Edge 8, Type (0, 0), BuildingBlock: EZIPEK_clean_linker_0, # of connection points: 2
#     Edge 9, Type (0, 0), BuildingBlock: EZIPEK_clean_linker_0, # of connection points: 2
#     Edge 10, Type (0, 0), BuildingBlock: EZIPEK_clean_linker_0, # of connection points: 2
#     Edge 11, Type (0, 0), BuildingBlock: EZIPEK_clean_linker_0, # of connection points: 2
#     Edge 12, Type (0, 0), BuildingBlock: EZIPEK_clean_linker_0, # of connection points: 2
#     Edge 13, Type (0, 0), BuildingBlock: EZIPEK_clean_linker_0, # of connection points: 2
#     Edge 14, Type (0, 0), BuildingBlock: EZIPEK_clean_linker_0, # of connection points: 2
#     Edge 15, Type (0, 0), BuildingBlock: EZIPEK_clean_linker_0, # of connection points: 2
#     Edge 16, Type (0, 0), BuildingBlock: EZIPEK_clean_linker_0, # of connection points: 2
#     Edge 17, Type (0, 0), BuildingBlock: EZIPEK_clean_linker_0, # of connection points: 2
# Relax obj value: 0.284
# Max RMSD: 0.298
# Mean RMSD: 0.262
data_MOF--net-sve--node1-HICVOG_clean_sbu_0--edge1-EZIPEK_clean_linker_0
_symmetry_space_group_name_H-M    P1
_symmetry_Int_Tables_number       1
_symmetry_cell_setting            triclinic
loop_
_symmetry_equiv_pos_as_xyz
'x, y, z'
_cell_length_a     23.993211
_cell_length_b     20.560397
_cell_length_c     16.313787
_cell_angle_alpha  95.707824
_cell_angle_beta   84.388564
_cell_angle_gamma 89.609268
loop_
_atom_site_label
_atom_site_type_symbol
_atom_site_fract_x
_atom_site_fract_y
_atom_site_fract_z
_atom_type_partial_charge
Zn0 Zn 0.16426 0.2905 0.16312 0.0
C1 C 0.06445 0.41223 0.08189 0.0
N2 N 0.02357 0.37613 0.1157 0.0
C3 C 0.05016 0.32055 0.12639 0.0
N4 N 0.10573 0.32289 0.10137 0.0
N5 N 0.11431 0.3793 0.06954 0.0
C6 C 0.23992 0.49543 0.93081 0.0
O7 O 0.27092 0.44574 0.89489 0.0
O8 O 0.14784 0.20298 0.20114 0.0
Zn9 Zn 0.18077 0.39037 0.99066 0.0
N10 N 0.17125 0.35334 0.25824 0.0
C11 C 0.19154 0.4627 0.30754 0.0
C12 C 0.18412 0.41541 0.24228 0.0
C13 C 0.16609 0.33633 0.33721 0.0
N14 N 0.18668 0.44583 0.38626 0.0
C15 C 0.17415 0.38381 0.40299 0.0
O16 O 0.2561 0.35564 0.01779 0.0
C17 C 0.27514 0.30969 0.05434 0.0
O18 O 0.24346 0.27835 0.10327 0.0
H19 H 0.18896 0.42791 0.17916 0.0
H20 H 0.15675 0.28639 0.34855 0.0
C21 C 0.1715 0.3613 0.81141 0.0
C22 C 0.16666 0.31752 0.74057 0.0
C23 C 0.16069 0.22936 0.82398 0.0
C24 C 0.166 0.27269 0.89395 0.0
N25 N 0.1708 0.33773 0.88678 0.0
N26 N 0.16125 0.25266 0.74897 0.0
H27 H 0.17618 0.41311 0.80645 0.0
C28 C 0.13937 0.15949 0.14334 0.0
O29 O 0.12577 0.1797 0.07392 0.0
O30 O 0.19446 0.48478 0.97397 0.0
H31 H 0.16675 0.25468 0.95385 0.0
H32 H 0.20168 0.5123 0.29565 0.0
H33 H 0.15665 0.17752 0.82914 0.0
Zn34 Zn 0.73964 0.20298 0.09149 0.0
C35 C 0.63259 0.08119 0.98161 0.0
N36 N 0.66551 0.03301 1.00021 0.0
C37 C 0.71002 0.06457 0.02711 0.0
N38 N 0.70414 0.13065 0.02726 0.0
N39 N 0.65546 0.14053 0.99679 0.0
C40 C 0.51313 0.23679 1.00539 0.0
O41 O 0.53388 0.23126 0.07589 0.0
O42 O 0.82386 0.19505 0.10725 0.0
Zn43 Zn 0.63333 0.2156 0.93797 0.0
N44 N 0.69139 0.21983 0.19501 0.0
C45 C 0.60072 0.26192 0.24784 0.0
C46 C 0.64151 0.24666 0.18193 0.0
C47 C 0.70224 0.20748 0.27263 0.0
N48 N 0.61132 0.2499 0.325 0.0
C49 C 0.66087 0.22303 0.33949 0.0
O50 O 0.66524 0.30539 0.97052 0.0
C51 C 0.70864 0.32678 1.00276 0.0
O52 O 0.73788 0.29082 0.04208 0.0
H53 H 0.63364 0.25611 0.12015 0.0
H54 H 0.74212 0.18627 0.28239 0.0
C55 C 0.65304 0.20158 0.75209 0.0
C56 C 0.69029 0.18886 0.67946 0.0
C57 C 0.76267 0.16367 0.76039 0.0
C58 C 0.72656 0.17791 0.83193 0.0
N59 N 0.67228 0.19549 0.82708 0.0
N60 N 0.74389 0.16989 0.686 0.0
H61 H 0.61035 0.21778 0.74902 0.0
C62 C 0.85582 0.16782 0.15231 0.0
O63 O 0.83531 0.1259 0.20257 0.0
O64 O 0.54625 0.22945 0.93848 0.0
H65 H 0.74224 0.17651 0.89143 0.0
H66 H 0.56096 0.28337 0.23784 0.0
H67 H 0.80575 0.1493 0.76402 0.0
Zn68 Zn 0.88163 0.71848 0.13117 0.0
C69 C 0.82952 0.56264 0.99337 0.0
N70 N 0.87929 0.53522 1.00122 0.0
C71 C 0.9081 0.58459 0.03578 0.0
N72 N 0.87669 0.64051 0.0511 0.0
N73 N 0.82851 0.62749 0.02011 0.0
C74 C 0.68847 0.66967 0.97199 0.0
O75 O 0.69902 0.65113 0.04372 0.0
O76 O 0.96067 0.73298 0.15546 0.0
Zn77 Zn 0.80395 0.693 0.95181 0.0
N78 N 0.83446 0.70473 0.23131 0.0
C79 C 0.74128 0.69133 0.29146 0.0
C80 C 0.77887 0.69947 0.22269 0.0
C81 C 0.85403 0.70383 0.30679 0.0
N82 N 0.76069 0.68987 0.36666 0.0
C83 C 0.81615 0.69592 0.37623 0.0
O84 O 0.79862 0.7887 1.00094 0.0
C85 C 0.8192 0.82774 0.05511 0.0
O86 O 0.85239 0.80709 0.10328 0.0
H87 H 0.76403 0.70166 0.16258 0.0
H88 H 0.8983 0.70967 0.31279 0.0
C89 C 0.84045 0.68764 0.77682 0.0
C90 C 0.87956 0.69709 0.70933 0.0
C91 C 0.94941 0.71862 0.80098 0.0
C92 C 0.9102 0.71086 0.86806 0.0
N93 N 0.85681 0.69468 0.85475 0.0
N94 N 0.93315 0.71213 0.72324 0.0
H95 H 0.79719 0.6773 0.76773 0.0
C96 C 0.98701 0.77288 0.11204 0.0
O97 O 0.96277 0.79859 0.0539 0.0
O98 O 0.72855 0.67574 0.91698 0.0
H99 H 0.92201 0.71822 0.93052 0.0
H100 H 0.69697 0.6867 0.28526 0.0
H101 H 0.99217 0.73101 0.81076 0.0
Zn102 Zn 0.40076 0.86698 0.88742 0.0
C103 C 0.32433 1.00248 0.04696 0.0
N104 N 0.36441 0.04243 0.01899 0.0
C105 C 0.40305 1.00022 0.9771 0.0
N106 N 0.38568 0.93767 0.97761 0.0
N107 N 0.33778 0.93931 0.02491 0.0
C108 C 0.20494 0.87195 0.10686 0.0
O109 O 0.21949 0.86873 0.02683 0.0
O110 O 0.4819 0.84212 0.86341 0.0
Zn111 Zn 0.31786 0.86975 0.09265 0.0
N112 N 0.3666 0.89111 0.79258 0.0
C113 C 0.27846 0.91424 0.74557 0.0
C114 C 0.31046 0.90117 0.80882 0.0
C115 C 0.39206 0.89003 0.71413 0.0
N116 N 0.30341 0.91261 0.66721 0.0
C117 C 0.35925 0.90016 0.64947 0.0
O118 O 0.31141 0.78499 0.02662 0.0
C119 C 0.32939 0.75479 0.95788 0.0
O120 O 0.36264 0.78058 0.90537 0.0
H121 H 0.29062 0.89713 0.87043 0.0
H122 H 0.43626 0.87796 0.70166 0.0
C123 C 0.36934 0.87646 0.24733 0.0
C124 C 0.41109 0.85956 0.29645 0.0
C125 C 0.46262 0.80497 0.178 0.0
C126 C 0.41996 0.81927 0.13019 0.0
N127 N 0.37502 0.85614 0.16499 0.0
N128 N 0.45691 0.82464 0.26028 0.0
H129 H 0.33171 0.90263 0.27479 0.0
C130 C 0.507 0.8422 0.92824 0.0
O131 O 0.4853 0.87556 0.99657 0.0
O132 O 0.24244 0.88139 0.15618 0.0
H133 H 0.422 0.80027 0.06588 0.0
H134 H 0.23379 0.92307 0.75805 0.0
H135 H 0.49902 0.77648 0.15052 0.0
C136 C 0.04241 0.49691 0.98852 0.0
C137 C 0.05212 0.48115 0.06828 0.0
C138 C 0.98093 0.56204 0.13087 0.0
C139 C 0.96734 0.57301 0.05088 0.0
N140 N 0.99832 0.57051 0.90611 0.0
N141 N 0.04755 0.51621 0.21342 0.0
C142 C 1.00374 0.54808 0.98081 0.0
C143 C 0.02792 0.52126 0.13861 0.0
N144 N 0.06544 0.45868 0.92063 0.0
N145 N 0.94594 0.58482 0.19855 0.0
H146 H 0.08118 0.48507 0.2193 0.0
H147 H 0.03417 0.54678 0.26662 0.0
H148 H 0.91074 0.61326 0.19333 0.0
H149 H 0.95 0.57248 0.25811 0.0
H150 H 0.05516 0.46251 0.86071 0.0
H151 H 0.09279 0.42044 0.92619 0.0
H152 H 0.02605 0.55806 0.85357 0.0
H153 H 0.96867 0.60637 0.89973 0.0
C154 C 0.55212 0.04714 0.89905 0.0
C155 C 0.57219 0.06954 0.97583 0.0
C156 C 0.48639 0.03313 0.04997 0.0
C157 C 0.46323 1.01788 0.97368 0.0
N158 N 0.47171 1.01437 0.82527 0.0
N159 N 0.55511 0.0932 0.12417 0.0
C160 C 0.49562 1.02548 0.89782 0.0
C161 C 0.53801 0.06588 0.05105 0.0
N162 N 0.58737 0.04565 0.82787 0.0
N163 N 0.46066 1.0127 0.12129 0.0
H164 H 0.59338 0.11632 0.12849 0.0
H165 H 0.52908 0.09854 0.17947 0.0
H166 H 0.4246 0.98479 0.12277 0.0
H167 H 0.4786 1.01631 0.17714 0.0
H168 H 0.57751 1.02382 0.77087 0.0
H169 H 0.62797 0.06364 0.82694 0.0
H170 H 0.491 1.02483 0.76822 0.0
H171 H 0.43056 0.9988 0.82334 0.0
C172 C 0.1194 0.36609 0.53816 0.0
C173 C 0.1718 0.36721 0.48976 0.0
C174 C 0.22082 0.34602 0.61001 0.0
C175 C 0.16832 0.33973 0.65653 0.0
N176 N 0.06752 0.33834 0.66513 0.0
N177 N 0.27203 0.35157 0.47496 0.0
C178 C 0.11751 0.34837 0.62065 0.0
C179 C 0.22248 0.35563 0.52456 0.0
N180 N 0.07167 0.38369 0.5058 0.0
N181 N 0.26907 0.34344 0.64793 0.0
H182 H 0.27496 0.35908 0.41238 0.0
H183 H 0.30974 0.33612 0.49372 0.0
H184 H 0.26961 0.33439 0.70963 0.0
H185 H 0.30829 0.35484 0.62047 0.0
H186 H 0.03289 0.3909 0.54022 0.0
H187 H 0.0714 0.39544 0.44507 0.0
H188 H 0.02928 0.33614 0.63996 0.0
H189 H 0.06444 0.32864 0.72698 0.0
C190 C 0.65227 0.1538 0.4584 0.0
C191 C 0.66971 0.2128 0.42603 0.0
C192 C 0.68808 0.2602 0.56474 0.0
C193 C 0.67508 0.19948 0.59584 0.0
N194 N 0.64929 0.08665 0.57323 0.0
N195 N 0.70945 0.3199 0.44459 0.0
C196 C 0.65815 0.14578 0.54293 0.0
C197 C 0.68898 0.26547 0.47827 0.0
N198 N 0.6291 0.10605 0.40856 0.0
N199 N 0.69891 0.313 0.61841 0.0
H200 H 0.71009 0.32571 0.3817 0.0
H201 H 0.72965 0.35725 0.47723 0.0
H202 H 0.69908 0.31059 0.68196 0.0
H203 H 0.70331 0.36035 0.60163 0.0
H204 H 0.60974 0.06503 0.43011 0.0
H205 H 0.62636 0.10914 0.34562 0.0
H206 H 0.64344 0.04345 0.53632 0.0
H207 H 0.65046 0.08007 0.63566 0.0
C208 C 0.85106 0.63668 0.48896 0.0
C209 C 0.83488 0.69624 0.46014 0.0
C210 C 0.84361 0.75487 0.59666 0.0
C211 C 0.86269 0.69605 0.62422 0.0
N212 N 0.89121 0.58282 0.59609 0.0
N213 N 0.82246 0.8133 0.4809 0.0
C214 C 0.86832 0.63739 0.57015 0.0
C215 C 0.83305 0.75575 0.51247 0.0
N216 N 0.8485 0.57933 0.43929 0.0
N217 N 0.83449 0.80954 0.65162 0.0
H218 H 0.81345 0.81566 0.41997 0.0
H219 H 0.82653 0.85918 0.51272 0.0
H220 H 0.84337 0.81141 0.71314 0.0
H221 H 0.81463 0.85184 0.63832 0.0
H222 H 0.85359 0.53337 0.45933 0.0
H223 H 0.83788 0.57733 0.37858 0.0
H224 H 0.90229 0.54052 0.55728 0.0
H225 H 0.90247 0.58108 0.65603 0.0
C226 C 0.3792 0.82531 0.52033 0.0
C227 C 0.3817 0.88912 0.56152 0.0
C228 C 0.41079 0.93262 0.42953 0.0
C229 C 0.40214 0.87019 0.38778 0.0
N230 N 0.37223 0.75852 0.39094 0.0
N231 N 0.39699 1.00442 0.5578 0.0
C232 C 0.38525 0.81671 0.43254 0.0
C233 C 0.39706 0.94309 0.51683 0.0
N234 N 0.37101 0.77287 0.56533 0.0
N235 N 0.43302 0.98126 0.38576 0.0
H236 H 0.38977 1.01306 0.62212 0.0
H237 H 0.40146 0.04695 0.52828 0.0
H238 H 0.44268 0.97518 0.32167 0.0
H239 H 0.44554 1.02599 0.41307 0.0
H240 H 0.3751 0.72449 0.53953 0.0
H241 H 0.36462 0.77727 0.62979 0.0
H242 H 0.35323 0.72025 0.41968 0.0
H243 H 0.37618 0.7499 0.32654 0.0
C244 C 0.17246 0.05618 0.0628 0.0
C245 C 0.16861 0.09488 0.13921 0.0
C246 C 0.25818 0.04854 0.16829 0.0
C247 C 0.26822 1.02626 0.08287 0.0
N248 N 0.23625 1.0157 0.9461 0.0
N249 N 0.19382 0.10479 0.27854 0.0
C250 C 0.22524 0.03019 0.02958 0.0
C251 C 0.20722 0.08354 0.19702 0.0
N252 N 0.12609 0.04698 0.02122 0.0
N253 N 0.29792 0.03787 0.22019 0.0
H254 H 0.15402 0.12387 0.30005 0.0
H255 H 0.21962 0.0997 0.32518 0.0
H256 H 0.33467 1.01119 0.2 0.0
H257 H 0.29486 0.05451 0.28276 0.0
H258 H 0.12578 1.01549 0.96707 0.0
H259 H 0.08688 0.06549 0.04699 0.0
H260 H 0.20716 1.02305 0.90434 0.0
H261 H 0.2764 1.00413 0.91816 0.0
C262 C 0.98791 0.25541 0.21729 0.0
C263 C 0.01648 0.26077 0.13828 0.0
C264 C 0.95036 0.18355 0.0767 0.0
C265 C 0.91536 0.18959 0.15235 0.0
N266 N 0.90048 0.23258 0.29633 0.0
N267 N 0.02447 0.2307 0.99088 0.0
C268 C 0.93464 0.22451 0.22384 0.0
C269 C 0.99835 0.22372 0.06765 0.0
N270 N 1.01141 0.28167 0.28574 0.0
N271 N 0.93742 0.13941 0.01338 0.0
H272 H 0.06024 0.25851 0.98192 0.0
H273 H 1.00905 0.21191 0.93604 0.0
H274 H 0.90269 0.10924 0.01879 0.0
H275 H 0.96382 0.12818 0.95916 0.0
H276 H 0.99558 0.2753 0.3461 0.0
H277 H 0.05012 0.30465 0.28116 0.0
H278 H 0.9094 0.26369 0.34755 0.0
H279 H 0.86119 0.21155 0.30397 0.0
C280 C 0.76783 0.92913 0.12865 0.0
C281 C 0.80423 0.89938 0.06087 0.0
C282 C 0.79831 0.99931 0.98974 0.0
C283 C 0.75706 1.02563 0.05267 0.0
N284 N 0.7137 1.02594 0.1908 0.0
N285 N 0.86604 0.91218 0.93849 0.0
C286 C 0.74627 0.99395 0.12564 0.0
C287 C 0.8235 0.93674 0.99522 0.0
N288 N 0.7513 0.89394 0.19335 0.0
N289 N 0.81052 0.03288 0.92228 0.0
H290 H 0.8852 0.86686 0.94149 0.0
H291 H 0.88526 0.93813 0.89226 0.0
H292 H 0.79476 0.08004 0.92008 0.0
H293 H 0.83496 1.01435 0.86876 0.0
H294 H 0.7209 0.90971 0.24116 0.0
H295 H 0.76649 0.84691 0.19771 0.0
H296 H 0.70599 1.00885 0.24867 0.0
H297 H 0.69777 0.07298 0.18799 0.0
C298 C 0.0899 0.75209 0.10545 0.0
C299 C 0.04312 0.79437 0.12986 0.0
C300 C 0.1047 0.88527 0.16445 0.0
C301 C 0.15102 0.8439 0.13491 0.0
N302 N 0.18966 0.73484 0.10741 0.0
N303 N 1.00409 0.89554 0.20032 0.0
C304 C 0.14414 0.77604 0.11545 0.0
C305 C 0.04995 0.85934 0.16544 0.0
N306 N 0.08271 0.69064 0.06817 0.0
N307 N 0.11348 0.94932 0.18953 0.0
H308 H 0.96355 0.87726 0.20242 0.0
H309 H 1.00617 0.94172 0.2322 0.0
H310 H 0.15364 0.96665 0.19626 0.0
H311 H 0.08193 0.98485 0.20273 0.0
H312 H 0.11558 0.66021 0.04048 0.0
H313 H 0.04335 0.67181 0.05947 0.0
H314 H 0.1872 0.68412 0.09864 0.0
H315 H 0.22927 0.75147 0.11942 0.0
C316 C 0.76932 0.48267 0.91888 0.0
C317 C 0.77993 0.51886 0.99407 0.0
C318 C 0.72571 0.43906 0.07113 0.0
C319 C 0.72533 0.39655 0.99727 0.0
N320 N 0.74566 0.37789 0.84895 0.0
N321 N 0.76928 0.53057 0.14353 0.0
C322 C 0.74567 0.41894 0.92019 0.0
C323 C 0.7572 0.49761 0.07068 0.0
N324 N 0.78314 0.5092 0.84628 0.0
N325 N 0.69564 0.42344 0.14181 0.0
H326 H 0.79117 0.57407 0.14627 0.0
H327 H 0.76056 0.51289 0.20097 0.0
H328 H 0.67182 0.38125 0.14365 0.0
H329 H 0.68968 0.45517 0.19592 0.0
H330 H 0.77296 0.48843 0.78896 0.0
H331 H 0.80045 0.55561 0.84508 0.0
H332 H 0.76528 0.38825 0.79208 0.0
H333 H 0.72857 0.33136 0.84736 0.0
C334 C 0.551 0.72894 0.90726 0.0
C335 C 0.55448 0.79708 0.9328 0.0
C336 C 0.6376 0.77623 1.00174 0.0
C337 C 0.63839 0.71008 0.96709 0.0
N338 N 0.60067 0.62484 0.87756 0.0
N339 N 0.60816 0.8868 0.98833 0.0
C340 C 0.59667 0.6869 0.9166 0.0
C341 C 0.59982 0.82102 0.97552 0.0
N342 N 0.50316 0.70332 0.87918 0.0
N343 N 0.67244 0.79654 0.06028 0.0
H344 H 0.58263 0.92127 0.96672 0.0
H345 H 0.64382 0.90653 0.01203 0.0
H346 H 0.70133 0.76592 0.08154 0.0
H347 H 0.66858 0.84238 0.094 0.0
H348 H 0.49673 0.65324 0.86872 0.0
H349 H 0.46746 0.73097 0.8741 0.0
H350 H 0.57503 0.60791 0.83227 0.0
H351 H 0.63201 0.59163 0.88676 0.0
C352 C 0.23785 0.61157 0.89586 0.0
C353 C 0.26338 0.56178 0.9343 0.0
C354 C 0.33829 0.63596 0.97232 0.0
C355 C 0.31031 0.68724 0.94028 0.0
N356 N 0.23107 0.7273 0.87897 0.0
N357 N 0.33182 0.52888 0.02196 0.0
C358 C 0.25946 0.67598 0.90374 0.0
C359 C 0.31221 0.57441 0.9756 0.0
N360 N 0.19396 0.59679 0.85015 0.0
N361 N 0.38997 0.6462 0.99942 0.0
H362 H 0.31312 0.48373 0.02797 0.0
H363 H 0.36342 0.5379 0.06081 0.0
H364 H 0.40974 0.69118 0.9993 0.0
H365 H 0.41531 0.60903 0.01523 0.0
H366 H 0.17714 0.62902 0.81345 0.0
H367 H 0.17667 0.55033 0.84421 0.0
H368 H 0.19053 0.72417 0.86146 0.0
H369 H 0.24702 0.77444 0.88021 0.0
C370 C 0.4345 0.31655 0.05971 0.0
C371 C 0.45291 0.25926 1.00749 0.0
C372 C 0.35473 0.23885 0.97889 0.0
C373 C 0.33627 0.29194 0.03827 0.0
N374 N 0.35764 0.37828 0.14058 0.0
N375 N 0.43104 0.16681 0.91448 0.0
C376 C 0.37598 0.33009 0.07984 0.0
C377 C 0.41311 0.22102 0.96559 0.0
N378 N 0.47329 0.3599 0.08691 0.0
N379 N 0.31631 0.20625 0.93423 0.0
H380 H 0.47325 0.15532 0.89896 0.0
H381 H 0.40462 0.13222 0.88888 0.0
H382 H 0.27346 0.21674 0.94422 0.0
H383 H 0.32647 0.1712 0.88445 0.0
H384 H 0.46304 0.40572 0.11806 0.0
H385 H 0.51624 0.3531 0.07068 0.0
H386 H 0.38375 0.4029 0.18014 0.0
H387 H 0.31536 0.39049 0.15587 0.0
loop_
_geom_bond_atom_site_label_1
_geom_bond_atom_site_label_2
_geom_bond_distance
_geom_bond_site_symmetry_2
_ccdc_geom_bond_type
Zn0 N4 2.020 . S
Zn0 O8 2.019 . S
Zn0 N10 2.119 . S
Zn0 O18 1.975 . S
C1 N2 1.334 . S
C1 N5 1.336 . S
N2 C1 1.334 . S
N2 C3 1.334 . S
C3 N2 1.334 . S
C3 N4 1.336 . S
N4 Zn0 2.020 . S
N4 C3 1.336 . S
N4 N5 1.354 . S
N5 C1 1.336 . S
N5 N4 1.354 . S
N5 Zn9 2.020 1_554 S
C6 O7 1.244 . S
C6 O30 1.257 1_554 S
O7 C6 1.244 . S
O8 Zn0 2.019 . S
O8 C28 1.257 . S
Zn9 N5 2.020 1_556 S
Zn9 O16 1.975 1_556 S
Zn9 N25 2.119 . S
Zn9 O30 2.019 . S
N10 Zn0 2.119 . S
N10 C12 1.334 . S
N10 C13 1.328 . S
C11 C12 1.391 . S
C11 N14 1.329 . S
C11 H32 0.930 . S
C12 N10 1.334 . S
C12 C11 1.391 . S
C12 H19 0.930 . S
C13 N10 1.328 . S
C13 C15 1.392 . S
C13 H20 0.930 . S
N14 C11 1.329 . S
N14 C15 1.331 . S
C15 C13 1.392 . S
C15 N14 1.331 . S
O16 Zn9 1.975 1_554 S
O16 C17 1.252 . S
C17 O16 1.252 . S
C17 O18 1.252 . S
O18 Zn0 1.975 . S
O18 C17 1.252 . S
H19 C12 0.930 . S
H20 C13 0.930 . S
C21 C22 1.392 . S
C21 N25 1.328 . S
C21 H27 0.930 . S
C22 C21 1.392 . S
C22 N26 1.331 . S
C23 C24 1.391 . S
C23 N26 1.329 . S
C23 H33 0.930 . S
C24 C23 1.391 . S
C24 N25 1.334 . S
C24 H31 0.930 . S
N25 Zn9 2.119 . S
N25 C21 1.328 . S
N25 C24 1.334 . S
N26 C22 1.331 . S
N26 C23 1.329 . S
H27 C21 0.930 . S
C28 O8 1.257 . S
C28 O29 1.244 . S
O29 C28 1.244 . S
O30 C6 1.257 1_556 S
O30 Zn9 2.019 . S
H31 C24 0.930 . S
H32 C11 0.930 . S
H33 C23 0.930 . S
Zn34 N38 2.020 . S
Zn34 O42 2.019 . S
Zn34 N44 2.119 . S
Zn34 O52 1.975 . S
C35 N36 1.334 1_556 S
C35 N39 1.336 . S
N36 C35 1.334 1_554 S
N36 C37 1.334 . S
C37 N36 1.334 . S
C37 N38 1.336 . S
N38 Zn34 2.020 . S
N38 C37 1.336 . S
N38 N39 1.354 1_554 S
N39 C35 1.336 . S
N39 N38 1.354 1_556 S
N39 Zn43 2.020 . S
C40 O41 1.244 1_556 S
C40 O64 1.257 . S
O41 C40 1.244 1_554 S
O42 Zn34 2.019 . S
O42 C62 1.257 . S
Zn43 N39 2.020 . S
Zn43 O50 1.975 1_556 S
Zn43 N59 2.119 . S
Zn43 O64 2.019 . S
N44 Zn34 2.119 . S
N44 C46 1.334 . S
N44 C47 1.328 . S
C45 C46 1.391 . S
C45 N48 1.329 . S
C45 H66 0.930 . S
C46 N44 1.334 . S
C46 C45 1.391 . S
C46 H53 0.930 . S
C47 N44 1.328 . S
C47 C49 1.392 . S
C47 H54 0.930 . S
N48 C45 1.329 . S
N48 C49 1.331 . S
C49 C47 1.392 . S
C49 N48 1.331 . S
O50 Zn43 1.975 1_554 S
O50 C51 1.252 . S
C51 O50 1.252 . S
C51 O52 1.252 . S
O52 Zn34 1.975 . S
O52 C51 1.252 . S
H53 C46 0.930 . S
H54 C47 0.930 . S
C55 C56 1.392 . S
C55 N59 1.328 . S
C55 H61 0.930 . S
C56 C55 1.392 . S
C56 N60 1.331 . S
C57 C58 1.391 . S
C57 N60 1.329 . S
C57 H67 0.930 . S
C58 C57 1.391 . S
C58 N59 1.334 . S
C58 H65 0.930 . S
N59 Zn43 2.119 . S
N59 C55 1.328 . S
N59 C58 1.334 . S
N60 C56 1.331 . S
N60 C57 1.329 . S
H61 C55 0.930 . S
C62 O42 1.257 . S
C62 O63 1.244 1_554 S
O63 C62 1.244 1_556 S
O64 C40 1.257 . S
O64 Zn43 2.019 . S
H65 C58 0.930 . S
H66 C45 0.930 . S
H67 C57 0.930 . S
Zn68 N72 2.020 . S
Zn68 O76 2.019 . S
Zn68 N78 2.119 . S
Zn68 O86 1.975 . S
C69 N70 1.334 1_556 S
C69 N73 1.336 . S
N70 C69 1.334 1_554 S
N70 C71 1.334 . S
C71 N70 1.334 . S
C71 N72 1.336 . S
N72 Zn68 2.020 . S
N72 C71 1.336 . S
N72 N73 1.354 1_554 S
N73 C69 1.336 . S
N73 N72 1.354 1_556 S
N73 Zn77 2.020 . S
C74 O75 1.244 1_556 S
C74 O98 1.257 . S
O75 C74 1.244 1_554 S
O76 Zn68 2.019 . S
O76 C96 1.257 . S
Zn77 N73 2.020 . S
Zn77 O84 1.975 1_556 S
Zn77 N93 2.119 . S
Zn77 O98 2.019 . S
N78 Zn68 2.119 . S
N78 C80 1.334 . S
N78 C81 1.328 . S
C79 C80 1.391 . S
C79 N82 1.329 . S
C79 H100 0.930 . S
C80 N78 1.334 . S
C80 C79 1.391 . S
C80 H87 0.930 . S
C81 N78 1.328 . S
C81 C83 1.392 . S
C81 H88 0.930 . S
N82 C79 1.329 . S
N82 C83 1.331 . S
C83 C81 1.392 . S
C83 N82 1.331 . S
O84 Zn77 1.975 1_554 S
O84 C85 1.252 . S
C85 O84 1.252 . S
C85 O86 1.252 . S
O86 Zn68 1.975 . S
O86 C85 1.252 . S
H87 C80 0.930 . S
H88 C81 0.930 . S
C89 C90 1.392 . S
C89 N93 1.328 . S
C89 H95 0.930 . S
C90 C89 1.392 . S
C90 N94 1.331 . S
C91 C92 1.391 . S
C91 N94 1.329 . S
C91 H101 0.930 . S
C92 C91 1.391 . S
C92 N93 1.334 . S
C92 H99 0.930 . S
N93 Zn77 2.119 . S
N93 C89 1.328 . S
N93 C92 1.334 . S
N94 C90 1.331 . S
N94 C91 1.329 . S
H95 C89 0.930 . S
C96 O76 1.257 . S
C96 O97 1.244 1_554 S
O97 C96 1.244 1_556 S
O98 C74 1.257 . S
O98 Zn77 2.019 . S
H99 C92 0.930 . S
H100 C79 0.930 . S
H101 C91 0.930 . S
Zn102 N106 2.020 . S
Zn102 O110 2.019 . S
Zn102 N112 2.119 . S
Zn102 O120 1.975 . S
C103 N104 1.334 . S
C103 N107 1.336 . S
N104 C103 1.334 . S
N104 C105 1.334 1_554 S
C105 N104 1.334 1_556 S
C105 N106 1.336 . S
N106 Zn102 2.020 . S
N106 C105 1.336 . S
N106 N107 1.354 1_556 S
N107 C103 1.336 . S
N107 N106 1.354 1_554 S
N107 Zn111 2.020 . S
C108 O109 1.244 1_554 S
C108 O132 1.257 . S
O109 C108 1.244 1_556 S
O110 Zn102 2.019 . S
O110 C130 1.257 . S
Zn111 N107 2.020 . S
Zn111 O118 1.975 . S
Zn111 N127 2.119 . S
Zn111 O132 2.019 . S
N112 Zn102 2.119 . S
N112 C114 1.334 . S
N112 C115 1.328 . S
C113 C114 1.391 . S
C113 N116 1.329 . S
C113 H134 0.930 . S
C114 N112 1.334 . S
C114 C113 1.391 . S
C114 H121 0.930 . S
C115 N112 1.328 . S
C115 C117 1.392 . S
C115 H122 0.930 . S
N116 C113 1.329 . S
N116 C117 1.331 . S
C117 C115 1.392 . S
C117 N116 1.331 . S
O118 Zn111 1.975 . S
O118 C119 1.252 1_554 S
C119 O118 1.252 1_556 S
C119 O120 1.252 . S
O120 Zn102 1.975 . S
O120 C119 1.252 . S
H121 C114 0.930 . S
H122 C115 0.930 . S
C123 C124 1.392 . S
C123 N127 1.328 . S
C123 H129 0.930 . S
C124 C123 1.392 . S
C124 N128 1.331 . S
C125 C126 1.391 . S
C125 N128 1.329 . S
C125 H135 0.930 . S
C126 C125 1.391 . S
C126 N127 1.334 . S
C126 H133 0.930 . S
N127 Zn111 2.119 . S
N127 C123 1.328 . S
N127 C126 1.334 . S
N128 C124 1.331 . S
N128 C125 1.329 . S
H129 C123 0.930 . S
C130 O110 1.257 . S
C130 O131 1.244 1_556 S
O131 C130 1.244 1_554 S
O132 C108 1.257 . S
O132 Zn111 2.019 . S
H133 C126 0.930 . S
H134 C113 0.930 . S
H135 C125 0.930 . S
C136 C137 1.363 1_556 S
C136 C142 1.379 1_455 S
C136 N144 1.356 . S
C137 C136 1.363 1_554 S
C137 C143 1.363 . S
C138 C139 1.363 . S
C138 C143 1.379 1_655 S
C138 N145 1.356 . S
C139 C138 1.363 . S
C139 C142 1.363 1_554 S
N140 C142 1.356 . S
N140 H152 0.984 . S
N140 H153 0.985 . S
N141 C143 1.356 . S
N141 H146 0.984 . S
N141 H147 0.985 . S
C142 C136 1.379 1_655 S
C142 C139 1.363 1_556 S
C142 N140 1.356 . S
C143 C137 1.363 . S
C143 C138 1.379 1_455 S
C143 N141 1.356 . S
N144 C136 1.356 . S
N144 H150 0.984 . S
N144 H151 0.984 . S
N145 C138 1.356 . S
N145 H148 0.984 . S
N145 H149 0.985 . S
H146 N141 0.984 . S
H147 N141 0.985 . S
H148 N145 0.984 . S
H149 N145 0.985 . S
H150 N144 0.984 . S
H151 N144 0.984 . S
H152 N140 0.984 . S
H153 N140 0.985 . S
C154 C155 1.363 . S
C154 C160 1.379 . S
C154 N162 1.356 . S
C155 C154 1.363 . S
C155 C161 1.363 1_546 S
C156 C157 1.363 1_554 S
C156 C161 1.379 . S
C156 N163 1.356 . S
C157 C156 1.363 1_556 S
C157 C160 1.363 1_565 S
N158 C160 1.356 . S
N158 H170 0.984 . S
N158 H171 0.985 1_545 S
N159 C161 1.356 . S
N159 H164 0.984 1_565 S
N159 H165 0.985 . S
C160 C154 1.379 . S
C160 C157 1.363 1_545 S
C160 N158 1.356 . S
C161 C155 1.363 1_564 S
C161 C156 1.379 . S
C161 N159 1.356 . S
N162 C154 1.356 . S
N162 H168 0.984 . S
N162 H169 0.984 . S
N163 C156 1.356 . S
N163 H166 0.984 . S
N163 H167 0.985 . S
H164 N159 0.984 1_545 S
H165 N159 0.985 . S
H166 N163 0.984 . S
H167 N163 0.985 . S
H168 N162 0.984 . S
H169 N162 0.984 . S
H170 N158 0.984 . S
H171 N158 0.985 1_565 S
C172 C173 1.363 . S
C172 C178 1.379 . S
C172 N180 1.356 . S
C173 C172 1.363 . S
C173 C179 1.363 . S
C174 C175 1.363 . S
C174 C179 1.379 . S
C174 N181 1.356 . S
C175 C174 1.363 . S
C175 C178 1.363 . S
N176 C178 1.356 . S
N176 H188 0.984 . S
N176 H189 0.985 . S
N177 C179 1.356 . S
N177 H182 0.984 . S
N177 H183 0.985 . S
C178 C172 1.379 . S
C178 C175 1.363 . S
C178 N176 1.356 . S
C179 C173 1.363 . S
C179 C174 1.379 . S
C179 N177 1.356 . S
N180 C172 1.356 . S
N180 H186 0.984 . S
N180 H187 0.984 . S
N181 C174 1.356 . S
N181 H184 0.984 . S
N181 H185 0.985 . S
H182 N177 0.984 . S
H183 N177 0.985 . S
H184 N181 0.984 . S
H185 N181 0.985 . S
H186 N180 0.984 . S
H187 N180 0.984 . S
H188 N176 0.984 . S
H189 N176 0.985 . S
C190 C191 1.363 . S
C190 C196 1.379 . S
C190 N198 1.356 . S
C191 C190 1.363 . S
C191 C197 1.363 . S
C192 C193 1.363 . S
C192 C197 1.379 . S
C192 N199 1.356 . S
C193 C192 1.363 . S
C193 C196 1.363 . S
N194 C196 1.356 . S
N194 H206 0.984 . S
N194 H207 0.985 . S
N195 C197 1.356 . S
N195 H200 0.984 . S
N195 H201 0.985 . S
C196 C190 1.379 . S
C196 C193 1.363 . S
C196 N194 1.356 . S
C197 C191 1.363 . S
C197 C192 1.379 . S
C197 N195 1.356 . S
N198 C190 1.356 . S
N198 H204 0.984 . S
N198 H205 0.984 . S
N199 C192 1.356 . S
N199 H202 0.984 . S
N199 H203 0.985 . S
H200 N195 0.984 . S
H201 N195 0.985 . S
H202 N199 0.984 . S
H203 N199 0.985 . S
H204 N198 0.984 . S
H205 N198 0.984 . S
H206 N194 0.984 . S
H207 N194 0.985 . S
C208 C209 1.363 . S
C208 C214 1.379 . S
C208 N216 1.356 . S
C209 C208 1.363 . S
C209 C215 1.363 . S
C210 C211 1.363 . S
C210 C215 1.379 . S
C210 N217 1.356 . S
C211 C210 1.363 . S
C211 C214 1.363 . S
N212 C214 1.356 . S
N212 H224 0.984 . S
N212 H225 0.985 . S
N213 C215 1.356 . S
N213 H218 0.984 . S
N213 H219 0.985 . S
C214 C208 1.379 . S
C214 C211 1.363 . S
C214 N212 1.356 . S
C215 C209 1.363 . S
C215 C210 1.379 . S
C215 N213 1.356 . S
N216 C208 1.356 . S
N216 H222 0.984 . S
N216 H223 0.984 . S
N217 C210 1.356 . S
N217 H220 0.984 . S
N217 H221 0.985 . S
H218 N213 0.984 . S
H219 N213 0.985 . S
H220 N217 0.984 . S
H221 N217 0.985 . S
H222 N216 0.984 . S
H223 N216 0.984 . S
H224 N212 0.984 . S
H225 N212 0.985 . S
C226 C227 1.363 . S
C226 C232 1.379 . S
C226 N234 1.356 . S
C227 C226 1.363 . S
C227 C233 1.363 . S
C228 C229 1.363 . S
C228 C233 1.379 . S
C228 N235 1.356 . S
C229 C228 1.363 . S
C229 C232 1.363 . S
N230 C232 1.356 . S
N230 H242 0.984 . S
N230 H243 0.985 . S
N231 C233 1.356 . S
N231 H236 0.984 . S
N231 H237 0.985 . S
C232 C226 1.379 . S
C232 C229 1.363 . S
C232 N230 1.356 . S
C233 C227 1.363 . S
C233 C228 1.379 . S
C233 N231 1.356 . S
N234 C226 1.356 . S
N234 H240 0.984 . S
N234 H241 0.984 . S
N235 C228 1.356 . S
N235 H238 0.984 . S
N235 H239 0.985 . S
H236 N231 0.984 . S
H237 N231 0.985 . S
H238 N235 0.984 . S
H239 N235 0.985 . S
H240 N234 0.984 . S
H241 N234 0.984 . S
H242 N230 0.984 . S
H243 N230 0.985 . S
C244 C245 1.363 . S
C244 C250 1.379 1_545 S
C244 N252 1.356 1_554 S
C245 C244 1.363 . S
C245 C251 1.363 . S
C246 C247 1.363 1_545 S
C246 C251 1.379 . S
C246 N253 1.356 . S
C247 C246 1.363 1_565 S
C247 C250 1.363 . S
N248 C250 1.356 1_556 S
N248 H260 0.984 . S
N248 H261 0.985 . S
N249 C251 1.356 . S
N249 H254 0.984 . S
N249 H255 0.985 . S
C250 C244 1.379 1_565 S
C250 C247 1.363 . S
C250 N248 1.356 1_554 S
C251 C245 1.363 . S
C251 C246 1.379 . S
C251 N249 1.356 . S
N252 C244 1.356 1_556 S
N252 H258 0.984 . S
N252 H259 0.984 1_556 S
N253 C246 1.356 . S
N253 H256 0.984 1_545 S
N253 H257 0.985 . S
H254 N249 0.984 . S
H255 N249 0.985 . S
H256 N253 0.984 1_565 S
H257 N253 0.985 . S
H258 N252 0.984 . S
H259 N252 0.984 1_554 S
H260 N248 0.984 . S
H261 N248 0.985 . S
C262 C263 1.363 1_655 S
C262 C268 1.379 . S
C262 N270 1.356 1_655 S
C263 C262 1.363 1_455 S
C263 C269 1.363 1_455 S
C264 C265 1.363 . S
C264 C269 1.379 . S
C264 N271 1.356 1_554 S
C265 C264 1.363 . S
C265 C268 1.363 . S
N266 C268 1.356 . S
N266 H278 0.984 . S
N266 H279 0.985 . S
N267 C269 1.356 1_456 S
N267 H272 0.984 1_556 S
N267 H273 0.985 . S
C268 C262 1.379 . S
C268 C265 1.363 . S
C268 N266 1.356 . S
C269 C263 1.363 1_655 S
C269 C264 1.379 . S
C269 N267 1.356 1_654 S
N270 C262 1.356 1_455 S
N270 H276 0.984 1_455 S
N270 H277 0.984 . S
N271 C264 1.356 1_556 S
N271 H274 0.984 . S
N271 H275 0.985 . S
H272 N267 0.984 1_554 S
H273 N267 0.985 . S
H274 N271 0.984 . S
H275 N271 0.985 . S
H276 N270 0.984 1_655 S
H277 N270 0.984 . S
H278 N266 0.984 . S
H279 N266 0.985 . S
C280 C281 1.363 . S
C280 C286 1.379 . S
C280 N288 1.356 . S
C281 C280 1.363 . S
C281 C287 1.363 1_554 S
C282 C283 1.363 1_556 S
C282 C287 1.379 . S
C282 N289 1.356 1_565 S
C283 C282 1.363 1_554 S
C283 C286 1.363 . S
N284 C286 1.356 . S
N284 H296 0.984 . S
N284 H297 0.985 1_565 S
N285 C287 1.356 . S
N285 H290 0.984 . S
N285 H291 0.985 . S
C286 C280 1.379 . S
C286 C283 1.363 . S
C286 N284 1.356 . S
C287 C281 1.363 1_556 S
C287 C282 1.379 . S
C287 N285 1.356 . S
N288 C280 1.356 . S
N288 H294 0.984 . S
N288 H295 0.984 . S
N289 C282 1.356 1_545 S
N289 H292 0.984 . S
N289 H293 0.985 . S
H290 N285 0.984 . S
H291 N285 0.985 . S
H292 N289 0.984 . S
H293 N289 0.985 . S
H294 N288 0.984 . S
H295 N288 0.984 . S
H296 N284 0.984 . S
H297 N284 0.985 1_545 S
C298 C299 1.356 1_556 S
C298 C304 1.378 1_556 S
C298 N306 1.363 . S
C299 C298 1.356 1_554 S
C299 C305 1.363 . S
C300 C301 1.363 . S
C300 C305 1.379 . S
C300 N307 1.356 . S
C301 C300 1.363 . S
C301 C304 1.363 . S
N302 C304 1.356 1_556 S
N302 H314 0.984 . S
N302 H315 0.985 . S
N303 C305 1.356 1_655 S
N303 H308 0.984 . S
N303 H309 0.985 . S
C304 C298 1.378 1_554 S
C304 C301 1.363 . S
C304 N302 1.356 1_554 S
C305 C299 1.363 . S
C305 C300 1.379 . S
C305 N303 1.356 1_455 S
N306 C298 1.363 . S
N306 H312 0.984 . S
N306 H313 0.984 . S
N307 C300 1.356 . S
N307 H310 0.984 . S
N307 H311 0.985 . S
H308 N303 0.984 . S
H309 N303 0.985 . S
H310 N307 0.984 . S
H311 N307 0.985 . S
H312 N306 0.984 . S
H313 N306 0.984 . S
H314 N302 0.984 . S
H315 N302 0.985 . S
C316 C317 1.363 . S
C316 C322 1.379 . S
C316 N324 1.356 . S
C317 C316 1.363 . S
C317 C323 1.363 1_556 S
C318 C319 1.363 . S
C318 C323 1.379 . S
C318 N325 1.356 . S
C319 C318 1.363 . S
C319 C322 1.363 1_554 S
N320 C322 1.356 . S
N320 H332 0.984 . S
N320 H333 0.985 . S
N321 C323 1.356 . S
N321 H326 0.984 . S
N321 H327 0.985 . S
C322 C316 1.379 . S
C322 C319 1.363 1_556 S
C322 N320 1.356 . S
C323 C317 1.363 1_554 S
C323 C318 1.379 . S
C323 N321 1.356 . S
N324 C316 1.356 . S
N324 H330 0.984 . S
N324 H331 0.984 . S
N325 C318 1.356 . S
N325 H328 0.984 . S
N325 H329 0.985 . S
H326 N321 0.984 . S
H327 N321 0.985 . S
H328 N325 0.984 . S
H329 N325 0.985 . S
H330 N324 0.984 . S
H331 N324 0.984 . S
H332 N320 0.984 . S
H333 N320 0.985 . S
C334 C335 1.363 . S
C334 C340 1.379 . S
C334 N342 1.356 . S
C335 C334 1.363 . S
C335 C341 1.363 . S
C336 C337 1.363 . S
C336 C341 1.379 . S
C336 N343 1.356 . S
C337 C336 1.363 . S
C337 C340 1.363 . S
N338 C340 1.356 1_554 S
N338 H350 0.984 . S
N338 H351 0.985 . S
N339 C341 1.356 . S
N339 H344 0.984 . S
N339 H345 0.985 . S
C340 C334 1.379 . S
C340 C337 1.363 . S
C340 N338 1.356 1_556 S
C341 C335 1.363 . S
C341 C336 1.379 . S
C341 N339 1.356 . S
N342 C334 1.356 . S
N342 H348 0.984 . S
N342 H349 0.984 . S
N343 C336 1.356 . S
N343 H346 0.984 . S
N343 H347 0.985 . S
H344 N339 0.984 . S
H345 N339 0.985 . S
H346 N343 0.984 . S
H347 N343 0.985 . S
H348 N342 0.984 . S
H349 N342 0.984 . S
H350 N338 0.984 . S
H351 N338 0.985 . S
C352 C353 1.363 1_556 S
C352 C358 1.379 . S
C352 N360 1.356 . S
C353 C352 1.363 1_554 S
C353 C359 1.363 . S
C354 C355 1.363 1_554 S
C354 C359 1.379 . S
C354 N361 1.356 . S
C355 C354 1.363 1_556 S
C355 C358 1.363 . S
N356 C358 1.356 . S
N356 H368 0.984 . S
N356 H369 0.985 . S
N357 C359 1.356 . S
N357 H362 0.984 . S
N357 H363 0.985 . S
C358 C352 1.379 . S
C358 C355 1.363 . S
C358 N356 1.356 . S
C359 C353 1.363 . S
C359 C354 1.379 . S
C359 N357 1.356 . S
N360 C352 1.356 . S
N360 H366 0.984 . S
N360 H367 0.984 . S
N361 C354 1.356 . S
N361 H364 0.984 . S
N361 H365 0.985 . S
H362 N357 0.984 . S
H363 N357 0.985 . S
H364 N361 0.984 . S
H365 N361 0.985 . S
H366 N360 0.984 . S
H367 N360 0.984 . S
H368 N356 0.984 . S
H369 N356 0.985 . S
C370 C371 1.363 . S
C370 C376 1.379 . S
C370 N378 1.356 . S
C371 C370 1.363 . S
C371 C377 1.363 1_554 S
C372 C373 1.362 1_556 S
C372 C377 1.379 . S
C372 N379 1.357 . S
C373 C372 1.362 1_554 S
C373 C376 1.363 . S
N374 C376 1.356 . S
N374 H386 0.984 . S
N374 H387 0.985 . S
N375 C377 1.356 . S
N375 H380 0.984 . S
N375 H381 0.985 . S
C376 C370 1.379 . S
C376 C373 1.363 . S
C376 N374 1.356 . S
C377 C371 1.363 1_556 S
C377 C372 1.379 . S
C377 N375 1.356 . S
N378 C370 1.356 . S
N378 H384 0.984 . S
N378 H385 0.984 . S
N379 C372 1.357 . S
N379 H382 0.984 1_556 S
N379 H383 0.985 . S
H380 N375 0.984 . S
H381 N375 0.985 . S
H382 N379 0.984 1_554 S
H383 N379 0.985 . S
H384 N378 0.984 . S
H385 N378 0.984 . S
H386 N374 0.984 . S
H387 N374 0.985 . S
C137 C1 1.772 . S
C139 C71 1.813 . S
C155 C35 1.934 . S
C157 C105 1.922 . S
C173 C15 1.731 . S
C175 C22 1.725 . S
C191 C49 1.727 . S
C193 C56 1.732 . S
C209 C83 1.783 . S
C211 C90 1.792 . S
C227 C117 2.067 . S
C229 C124 2.072 . S
C245 C28 1.341 . S
C247 C103 1.405 . S
C263 C3 1.670 . S
C265 C62 1.817 . S
C281 C85 1.921 . S
C283 C37 1.806 1_565 S
C299 C96 0.926 1_455 S
C301 C108 0.905 . S
C317 C69 1.790 . S
C319 C51 1.962 . S
C335 C130 0.917 . S
C337 C74 0.901 . S
C353 C6 1.068 . S
C355 C119 1.057 . S
C371 C40 1.645 1_554 S
C373 C17 1.646 . S
