# Generated by pormake.
# Topology ukh, (4)-cn, num edge types: 1
# Building blocks:
#     Node 0, Type 0, BuildingBlock: UXUYUI_clean_sbu_0, # of connection points: 4
#     Node 1, Type 0, BuildingBlock: UXUYUI_clean_sbu_0, # of connection points: 4
#     Node 2, Type 0, BuildingBlock: UXUYUI_clean_sbu_0, # of connection points: 4
#     Node 3, Type 0, BuildingBlock: UXUYUI_clean_sbu_0, # of connection points: 4
#     Node 4, Type 0, BuildingBlock: UXUYUI_clean_sbu_0, # of connection points: 4
#     Node 5, Type 0, BuildingBlock: UXUYUI_clean_sbu_0, # of connection points: 4
#     Node 6, Type 0, BuildingBlock: UXUYUI_clean_sbu_0, # of connection points: 4
#     Node 7, Type 0, BuildingBlock: UXUYUI_clean_sbu_0, # of connection points: 4
#     Node 8, Type 0, BuildingBlock: UXUYUI_clean_sbu_0, # of connection points: 4
#     Node 9, Type 0, BuildingBlock: UXUYUI_clean_sbu_0, # of connection points: 4
#     Node 10, Type 0, BuildingBlock: UXUYUI_clean_sbu_0, # of connection points: 4
#     Node 11, Type 0, BuildingBlock: UXUYUI_clean_sbu_0, # of connection points: 4
#     Edge 12, Type (0, 0), BuildingBlock: ZUJKAS_clean_linker_0, # of connection points: 2
#     Edge 13, Type (0, 0), BuildingBlock: ZUJKAS_clean_linker_0, # of connection points: 2
#     Edge 14, Type (0, 0), BuildingBlock: ZUJKAS_clean_linker_0, # of connection points: 2
#     Edge 15, Type (0, 0), BuildingBlock: ZUJKAS_clean_linker_0, # of connection points: 2
#     Edge 16, Type (0, 0), BuildingBlock: ZUJKAS_clean_linker_0, # of connection points: 2
#     Edge 17, Type (0, 0), BuildingBlock: ZUJKAS_clean_linker_0, # of connection points: 2
#     Edge 18, Type (0, 0), BuildingBlock: ZUJKAS_clean_linker_0, # of connection points: 2
#     Edge 19, Type (0, 0), BuildingBlock: ZUJKAS_clean_linker_0, # of connection points: 2
#     Edge 20, Type (0, 0), BuildingBlock: ZUJKAS_clean_linker_0, # of connection points: 2
#     Edge 21, Type (0, 0), BuildingBlock: ZUJKAS_clean_linker_0, # of connection points: 2
#     Edge 22, Type (0, 0), BuildingBlock: ZUJKAS_clean_linker_0, # of connection points: 2
#     Edge 23, Type (0, 0), BuildingBlock: ZUJKAS_clean_linker_0, # of connection points: 2
#     Edge 24, Type (0, 0), BuildingBlock: ZUJKAS_clean_linker_0, # of connection points: 2
#     Edge 25, Type (0, 0), BuildingBlock: ZUJKAS_clean_linker_0, # of connection points: 2
#     Edge 26, Type (0, 0), BuildingBlock: ZUJKAS_clean_linker_0, # of connection points: 2
#     Edge 27, Type (0, 0), BuildingBlock: ZUJKAS_clean_linker_0, # of connection points: 2
#     Edge 28, Type (0, 0), BuildingBlock: ZUJKAS_clean_linker_0, # of connection points: 2
#     Edge 29, Type (0, 0), BuildingBlock: ZUJKAS_clean_linker_0, # of connection points: 2
#     Edge 30, Type (0, 0), BuildingBlock: ZUJKAS_clean_linker_0, # of connection points: 2
#     Edge 31, Type (0, 0), BuildingBlock: ZUJKAS_clean_linker_0, # of connection points: 2
#     Edge 32, Type (0, 0), BuildingBlock: ZUJKAS_clean_linker_0, # of connection points: 2
#     Edge 33, Type (0, 0), BuildingBlock: ZUJKAS_clean_linker_0, # of connection points: 2
#     Edge 34, Type (0, 0), BuildingBlock: ZUJKAS_clean_linker_0, # of connection points: 2
#     Edge 35, Type (0, 0), BuildingBlock: ZUJKAS_clean_linker_0, # of connection points: 2
# Relax obj value: 0.278
# Max RMSD: 0.251
# Mean RMSD: 0.251
data_MOF--net-ukh--node1-UXUYUI_clean_sbu_0--edge1-ZUJKAS_clean_linker_0
_symmetry_space_group_name_H-M    P1
_symmetry_Int_Tables_number       1
_symmetry_cell_setting            triclinic
loop_
_symmetry_equiv_pos_as_xyz
'x, y, z'
_cell_length_a     55.083723
_cell_length_b     55.083892
_cell_length_c     106.85932
_cell_angle_alpha  89.991313
_cell_angle_beta   90.020256
_cell_angle_gamma 120.00318
loop_
_atom_site_label
_atom_site_type_symbol
_atom_site_fract_x
_atom_site_fract_y
_atom_site_fract_z
_atom_type_partial_charge
Li0 Li 0.35775 0.25392 0.04133 0.0
Li1 Li 0.33304 0.21762 0.05704 0.0
Li2 Li 0.34048 0.20466 0.03547 0.0
Li3 Li 0.30638 0.2198 0.03971 0.0
C4 C 0.39681 0.23599 0.04798 0.0
N5 N 0.45318 0.25254 0.04719 0.0
C6 C 0.41308 0.2452 0.05886 0.0
C7 C 0.40914 0.23465 0.03677 0.0
C8 C 0.44156 0.25365 0.05825 0.0
C9 C 0.43768 0.24325 0.03654 0.0
C10 C 0.32529 0.25926 0.06397 0.0
C11 C 0.30043 0.25507 0.08316 0.0
N12 N 0.32283 0.27915 0.0874 0.0
C13 C 0.34797 0.28407 0.06848 0.0
C14 C 0.30122 0.24474 0.07132 0.0
C15 C 0.34635 0.29375 0.08036 0.0
C16 C 0.37755 0.30612 0.03035 0.0
N17 N 0.38492 0.29207 0.03855 0.0
C18 C 0.42712 0.33422 0.04374 0.0
C19 C 0.40925 0.3054 0.04515 0.0
C20 C 0.41976 0.34939 0.0355 0.0
C21 C 0.39482 0.33489 0.0286 0.0
H22 H 0.35778 0.29504 0.02542 0.0
H23 H 0.41431 0.29396 0.05185 0.0
C24 C 0.31249 0.18337 0.07853 0.0
N25 N 0.33234 0.20898 0.07431 0.0
C26 C 0.31175 0.17639 0.09114 0.0
C27 C 0.35206 0.22219 0.09479 0.0
C28 C 0.35195 0.22831 0.08213 0.0
C29 C 0.3318 0.1959 0.09944 0.0
H30 H 0.29739 0.16824 0.07209 0.0
H31 H 0.36747 0.24853 0.07853 0.0
C32 C 0.34532 0.23932 0.0144 0.0
N33 N 0.36548 0.25209 0.99018 0.0
C34 C 0.32673 0.2319 0.00433 0.0
C35 C 0.37418 0.25371 0.01215 0.0
C36 C 0.33732 0.23839 0.99215 0.0
C37 C 0.38396 0.25986 -0.00016 0.0
C38 C 0.27917 0.16579 0.04465 0.0
C39 C 0.27173 0.14638 0.03492 0.0
C40 C 0.25839 0.16457 0.05257 0.0
C41 C 0.24354 0.12628 0.03317 0.0
C42 C 0.23043 0.1442 0.0505 0.0
N43 N 0.22365 0.12565 0.04092 0.0
C44 C 0.35744 0.1648 0.03258 0.0
C45 C 0.33763 0.17223 0.0143 0.0
C46 C 0.35867 0.14265 0.02686 0.0
N47 N 0.34665 0.17874 0.02631 0.0
C48 C 0.33846 0.15027 0.00822 0.0
C49 C 0.3484 0.13468 0.01462 0.0
H50 H 0.36402 0.17016 0.04221 0.0
H51 H 0.32847 0.18309 0.00963 0.0
C52 C 0.26053 0.22959 0.04016 0.0
N53 N 0.27155 0.21546 0.03426 0.0
C54 C 0.23544 0.22727 0.03596 0.0
C55 C 0.23354 0.19584 0.0197 0.0
C56 C 0.25862 0.19875 0.02423 0.0
C57 C 0.22168 0.21035 0.02554 0.0
H58 H 0.27136 0.2429 0.04806 0.0
H59 H 0.26796 0.18789 0.01968 0.0
O60 O 0.3688 0.22737 0.04847 0.0
O61 O 0.32664 0.24924 0.05242 0.0
O62 O 0.33522 0.23318 0.02639 0.0
O63 O 0.30661 0.18594 0.04638 0.0
H64 H 0.40389 0.24599 0.06767 0.0
H65 H 0.39682 0.22674 0.02834 0.0
H66 H 0.45442 0.26103 0.06658 0.0
H67 H 0.44747 0.24239 0.0279 0.0
H68 H 0.28202 0.24393 0.08898 0.0
H69 H 0.3667 0.29566 0.06291 0.0
H70 H 0.28344 0.22559 0.06796 0.0
H71 H 0.36382 0.31284 0.08399 0.0
H72 H 0.44622 0.34461 0.0492 0.0
H73 H 0.38811 0.34583 0.02232 0.0
H74 H 0.29601 0.15575 0.09431 0.0
H75 H 0.3677 0.23795 0.1009 0.0
H76 H 0.30435 0.22113 0.00587 0.0
H77 H 0.38893 0.26048 0.0198 0.0
H78 H 0.32315 0.23258 0.98428 0.0
H79 H 0.40625 0.27094 0.99798 0.0
H80 H 0.2875 0.14688 0.02874 0.0
H81 H 0.26376 0.17935 0.06016 0.0
H82 H 0.23748 0.11122 0.02564 0.0
H83 H 0.21413 0.14316 0.0565 0.0
H84 H 0.36614 0.13095 0.03218 0.0
H85 H 0.33049 0.14491 0.99876 0.0
H86 H 0.22692 0.23858 0.04083 0.0
H87 H 0.22392 0.18289 0.01154 0.0
Li88 Li 0.10414 0.35853 0.3756 0.0
Li89 Li 0.11482 0.33774 0.39361 0.0
Li90 Li 0.13991 0.34724 0.37407 0.0
Li91 Li 0.09056 0.30963 0.37515 0.0
C92 C 0.16639 0.39456 0.38697 0.0
N93 N 0.22267 0.4338 0.38932 0.0
C94 C 0.18133 0.39461 0.39756 0.0
C95 C 0.17999 0.41481 0.37769 0.0
C96 C 0.20979 0.41453 0.39854 0.0
C97 C 0.20847 0.43437 0.37901 0.0
C98 C 0.05687 0.30884 0.39447 0.0
C99 C 0.0383 0.26722 0.40723 0.0
N100 N 0.01531 0.2695 0.40972 0.0
C101 C 0.03306 0.31077 0.39714 0.0
C102 C 0.05954 0.28688 0.39953 0.0
C103 C 0.01228 0.29067 0.40488 0.0
C104 C 0.06519 0.37186 0.36583 0.0
N105 N 0.09108 0.3832 0.37106 0.0
C106 C 0.09599 0.42876 0.37092 0.0
C107 C 0.10664 0.41105 0.37358 0.0
C108 C 0.06919 0.4176 0.36558 0.0
C109 C 0.05388 0.38884 0.36287 0.0
H110 H 0.05315 0.34953 0.36415 0.0
H111 H 0.12704 0.41939 0.37788 0.0
C112 C 0.13425 0.32718 0.41594 0.0
N113 N 0.11794 0.33702 0.41122 0.0
C114 C 0.13831 0.32723 0.42882 0.0
C115 C 0.10831 0.34717 0.43175 0.0
C116 C 0.10491 0.34681 0.41878 0.0
C117 C 0.12544 0.33752 0.43691 0.0
H118 H 0.14456 0.31981 0.40967 0.0
H119 H 0.09216 0.35463 0.41471 0.0
C120 C 0.10444 0.34897 0.35143 0.0
N121 N 0.09307 0.37239 0.33097 0.0
C122 C 0.08003 0.33314 0.34443 0.0
C123 C 0.12333 0.37652 0.34785 0.0
C124 C 0.07459 0.3454 0.33416 0.0
C125 C 0.11714 0.38804 0.33753 0.0
C126 C 0.13095 0.2936 0.37962 0.0
C127 C 0.13323 0.29128 0.36669 0.0
C128 C 0.13677 0.27724 0.38772 0.0
C129 C 0.14141 0.27271 0.3621 0.0
C130 C 0.14482 0.25886 0.38276 0.0
N131 N 0.14698 0.25701 0.37017 0.0
C132 C 0.19425 0.35615 0.37587 0.0
C133 C 0.18084 0.3592 0.35511 0.0
C134 C 0.21911 0.35818 0.37163 0.0
N135 N 0.17561 0.35635 0.3676 0.0
C136 C 0.20534 0.36092 0.35043 0.0
C137 C 0.22453 0.35967 0.35872 0.0
H138 H 0.18916 0.35307 0.38572 0.0
H139 H 0.16531 0.35852 0.34872 0.0
C140 C 0.03727 0.27393 0.36604 0.0
N141 N 0.06082 0.27386 0.3698 0.0
C142 C 0.01406 0.24937 0.36174 0.0
C143 C 0.03935 0.22475 0.36557 0.0
C144 C 0.06202 0.24978 0.36989 0.0
C145 C 0.01505 0.22441 0.36133 0.0
H146 H 0.03664 0.29324 0.3663 0.0
H147 H 0.08036 0.24973 0.37336 0.0
O148 O 0.13856 0.375 0.38577 0.0
O149 O 0.07726 0.32834 0.38685 0.0
O150 O 0.10991 0.33752 0.36166 0.0
O151 O 0.12374 0.3122 0.3844 0.0
H152 H 0.17118 0.37934 0.4049 0.0
H153 H 0.16872 0.41547 0.36955 0.0
H154 H 0.22163 0.41465 0.40664 0.0
H155 H 0.21927 0.45003 0.37185 0.0
H156 H 0.04009 0.25012 0.41121 0.0
H157 H 0.03068 0.32761 0.39325 0.0
H158 H 0.07775 0.28496 0.39755 0.0
H159 H 0.99374 0.2919 0.40703 0.0
H160 H 0.10842 0.45087 0.37311 0.0
H161 H 0.03298 0.3794 0.35893 0.0
H162 H 0.15139 0.31927 0.4324 0.0
H163 H 0.09821 0.3555 0.43764 0.0
H164 H 0.06545 0.31163 0.34688 0.0
H165 H 0.14248 0.38891 0.35303 0.0
H166 H 0.05568 0.33343 0.32872 0.0
H167 H 0.13147 0.40943 0.33474 0.0
H168 H 0.12869 0.30356 0.36023 0.0
H169 H 0.13505 0.27867 0.39775 0.0
H170 H 0.1433 0.27075 0.35212 0.0
H171 H 0.14938 0.24608 0.38894 0.0
H172 H 0.23341 0.35748 0.37839 0.0
H173 H 0.20833 0.36152 0.3404 0.0
H174 H 0.99577 0.25006 0.35852 0.0
H175 H 0.04072 0.20581 0.36565 0.0
Li176 Li 0.78284 0.1211 0.72449 0.0
Li177 Li 0.74815 0.11044 0.70822 0.0
Li178 Li 0.78358 0.09635 0.70651 0.0
Li179 Li 0.79855 0.14543 0.70426 0.0
C180 C 0.7424 0.07134 0.72992 0.0
N181 N 0.72207 0.04744 0.75305 0.0
C182 C 0.71982 0.07247 0.73525 0.0
C183 C 0.75449 0.05787 0.73629 0.0
C184 C 0.70987 0.0603 0.74697 0.0
C185 C 0.74395 0.04597 0.748 0.0
C186 C 0.76549 0.16694 0.71301 0.0
C187 C 0.75255 0.18897 0.69688 0.0
N188 N 0.75269 0.20722 0.70549 0.0
C189 C 0.76557 0.18594 0.7217 0.0
C190 C 0.75898 0.16846 0.70049 0.0
C191 C 0.759 0.20614 0.71771 0.0
C192 C 0.81126 0.12652 0.74729 0.0
N193 N 0.78889 0.12666 0.74201 0.0
C194 C 0.77607 0.13755 0.7617 0.0
C195 C 0.77137 0.13202 0.7489 0.0
C196 C 0.79923 0.13785 0.76739 0.0
C197 C 0.81681 0.13202 0.76002 0.0
H198 H 0.82508 0.12258 0.74158 0.0
H199 H 0.75395 0.13238 0.7444 0.0
C200 C 0.69547 0.07295 0.69924 0.0
N201 N 0.70982 0.09814 0.70509 0.0
C202 C 0.66665 0.06051 0.69737 0.0
C203 C 0.66773 0.10006 0.70772 0.0
C204 C 0.69661 0.11178 0.70937 0.0
C205 C 0.65235 0.07396 0.70173 0.0
H206 H 0.70633 0.06205 0.69644 0.0
H207 H 0.70822 0.13131 0.7144 0.0
C208 C 0.83775 0.12347 0.71331 0.0
N209 N 0.88144 0.11279 0.71063 0.0
C210 C 0.86013 0.14001 0.70532 0.0
C211 C 0.8377 0.10163 0.71999 0.0
C212 C 0.882 0.13424 0.70409 0.0
C213 C 0.85995 0.09652 0.71849 0.0
C214 C 0.77793 0.10571 0.68242 0.0
C215 C 0.80552 0.11831 0.67807 0.0
C216 C 0.75658 0.08361 0.67567 0.0
C217 C 0.81132 0.10856 0.66704 0.0
C218 C 0.76323 0.0744 0.66469 0.0
N219 N 0.79024 0.08697 0.66064 0.0
C220 C 0.76485 0.03974 0.70231 0.0
C221 C 0.80993 0.06907 0.6937 0.0
C222 C 0.76456 0.01595 0.69763 0.0
N223 N 0.78731 0.06565 0.70031 0.0
C224 C 0.81064 0.04582 0.68895 0.0
C225 C 0.78767 0.01885 0.69084 0.0
H226 H 0.74692 0.03754 0.70741 0.0
H227 H 0.82729 0.0898 0.69191 0.0
C228 C 0.84454 0.19881 0.70487 0.0
N229 N 0.82407 0.18049 0.69709 0.0
C230 C 0.86626 0.22401 0.70025 0.0
C231 C 0.8446 0.21162 0.67979 0.0
C232 C 0.82312 0.1867 0.68485 0.0
C233 C 0.86687 0.2303 0.68747 0.0
H234 H 0.84457 0.19324 0.71458 0.0
H235 H 0.80627 0.1719 0.67894 0.0
O236 O 0.75289 0.08372 0.7186 0.0
O237 O 0.77211 0.14724 0.7168 0.0
O238 O 0.81627 0.12896 0.71471 0.0
O239 O 0.77193 0.11476 0.6933 0.0
H240 H 0.7103 0.08292 0.73045 0.0
H241 H 0.7719 0.05673 0.73225 0.0
H242 H 0.69253 0.06116 0.75125 0.0
H243 H 0.75319 0.03559 0.75307 0.0
H244 H 0.74744 0.19038 0.68723 0.0
H245 H 0.77064 0.18506 0.73141 0.0
H246 H 0.75878 0.15395 0.69363 0.0
H247 H 0.75895 0.22097 0.72433 0.0
H248 H 0.76219 0.14227 0.76701 0.0
H249 H 0.83472 0.13175 0.76405 0.0
H250 H 0.65552 0.04004 0.693 0.0
H251 H 0.6575 0.1111 0.71125 0.0
H252 H 0.8606 0.15704 0.70009 0.0
H253 H 0.82049 0.08851 0.72615 0.0
H254 H 0.8994 0.14681 0.69791 0.0
H255 H 0.86007 0.07956 0.72354 0.0
H256 H 0.8224 0.13508 0.68327 0.0
H257 H 0.73511 0.07363 0.67884 0.0
H258 H 0.83262 0.11804 0.66362 0.0
H259 H 0.74692 0.05728 0.6594 0.0
H260 H 0.74649 0.99549 0.69936 0.0
H261 H 0.82868 0.04898 0.68359 0.0
H262 H 0.88318 0.23764 0.70646 0.0
H263 H 0.84424 0.21586 0.66991 0.0
Li264 Li 0.66316 0.78048 0.06004 0.0
Li265 Li 0.63846 0.74485 0.04394 0.0
Li266 Li 0.68875 0.77689 0.04233 0.0
Li267 Li 0.65649 0.79401 0.03884 0.0
C268 C 0.68695 0.74651 0.06333 0.0
N269 N 0.72483 0.7428 0.07903 0.0
C270 C 0.68398 0.72038 0.06613 0.0
C271 C 0.70919 0.77076 0.0685 0.0
C272 C 0.70334 0.71894 0.07409 0.0
C273 C 0.72812 0.76845 0.07642 0.0
C274 C 0.60098 0.7635 0.05409 0.0
C275 C 0.55675 0.75951 0.04839 0.0
N276 N 0.54627 0.74834 0.05982 0.0
C277 C 0.58989 0.75234 0.06585 0.0
C278 C 0.5844 0.76744 0.04534 0.0
C279 C 0.56214 0.74465 0.06854 0.0
C280 C 0.67449 0.81587 0.08075 0.0
N281 N 0.66393 0.78871 0.07728 0.0
C282 C 0.65406 0.77359 0.09854 0.0
C283 C 0.6539 0.76765 0.08583 0.0
C284 C 0.66485 0.80148 0.10244 0.0
C285 C 0.67526 0.8228 0.09336 0.0
H286 H 0.68214 0.83212 0.0737 0.0
H287 H 0.64565 0.74622 0.08276 0.0
C288 C 0.61561 0.69329 0.03176 0.0
N289 N 0.61057 0.70691 0.04111 0.0
C290 C 0.59754 0.66471 0.02981 0.0
C291 C 0.56938 0.66465 0.04717 0.0
C292 C 0.58799 0.69327 0.04876 0.0
C293 C 0.57426 0.64994 0.03768 0.0
H294 H 0.63418 0.70447 0.02604 0.0
H295 H 0.58483 0.70432 0.05633 0.0
C296 C 0.71158 0.83479 0.0433 0.0
N297 N 0.75215 0.88187 0.03106 0.0
C298 C 0.71638 0.83367 0.03052 0.0
C299 C 0.72747 0.85984 0.04985 0.0
C300 C 0.73696 0.8577 0.0245 0.0
C301 C 0.74788 0.88342 0.04349 0.0
C302 C 0.64603 0.75923 0.01786 0.0
C303 C 0.66015 0.76235 0.00659 0.0
C304 C 0.61727 0.74959 0.01775 0.0
C305 C 0.64524 0.75599 0.99535 0.0
C306 C 0.60309 0.74342 0.00632 0.0
N307 N 0.61726 0.74674 0.99544 0.0
C308 C 0.72033 0.76086 0.02784 0.0
C309 C 0.74789 0.7981 0.0418 0.0
C310 C 0.74424 0.76145 0.02315 0.0
N311 N 0.72259 0.77907 0.03695 0.0
C312 C 0.77238 0.79943 0.03738 0.0
C313 C 0.77075 0.78097 0.0279 0.0
H314 H 0.69989 0.74598 0.02417 0.0
H315 H 0.74907 0.81233 0.04906 0.0
C316 C 0.64291 0.83628 0.03753 0.0
N317 N 0.65065 0.82093 0.03035 0.0
C318 C 0.6418 0.85901 0.0324 0.0
C319 C 0.65581 0.84912 0.01248 0.0
C320 C 0.65671 0.82665 0.018 0.0
C321 C 0.64892 0.86606 0.01977 0.0
H322 H 0.63866 0.83148 0.04738 0.0
H323 H 0.66343 0.8146 0.01254 0.0
O324 O 0.66814 0.74815 0.05552 0.0
O325 O 0.62828 0.77162 0.05138 0.0
O326 O 0.69141 0.81162 0.04943 0.0
O327 O 0.66045 0.76553 0.02891 0.0
H328 H 0.66687 0.70142 0.06219 0.0
H329 H 0.71187 0.79117 0.06644 0.0
H330 H 0.7013 0.69885 0.07635 0.0
H331 H 0.74543 0.78704 0.08048 0.0
H332 H 0.54366 0.76235 0.04168 0.0
H333 H 0.60247 0.74937 0.07277 0.0
H334 H 0.59281 0.77673 0.03631 0.0
H335 H 0.55322 0.73577 0.07756 0.0
H336 H 0.64608 0.75659 0.10526 0.0
H337 H 0.68346 0.84452 0.09597 0.0
H338 H 0.6024 0.6541 0.02254 0.0
H339 H 0.55162 0.65407 0.05342 0.0
H340 H 0.70441 0.8145 0.02528 0.0
H341 H 0.72407 0.86106 0.05975 0.0
H342 H 0.74086 0.85712 0.01461 0.0
H343 H 0.76032 0.90295 0.04845 0.0
H344 H 0.68244 0.76979 0.00653 0.0
H345 H 0.60598 0.74663 0.02638 0.0
H346 H 0.65592 0.75841 0.98654 0.0
H347 H 0.58081 0.73592 0.0061 0.0
H348 H 0.742 0.7471 0.01572 0.0
H349 H 0.79234 0.81458 0.04141 0.0
H350 H 0.6368 0.87172 0.03841 0.0
H351 H 0.66125 0.85368 0.00268 0.0
Li352 Li 0.89451 0.63663 0.37547 0.0
Li353 Li 0.88498 0.66015 0.39184 0.0
Li354 Li 0.85972 0.65029 0.37108 0.0
Li355 Li 0.91071 0.68584 0.37369 0.0
C356 C 0.84425 0.59508 0.38454 0.0
N357 N 0.81613 0.53723 0.38575 0.0
C358 C 0.85265 0.58152 0.3931 0.0
C359 C 0.8215 0.57923 0.37662 0.0
C360 C 0.83818 0.55225 0.39356 0.0
C361 C 0.80756 0.55 0.37737 0.0
C362 C 0.93439 0.66866 0.39742 0.0
C363 C 0.95708 0.69398 0.41626 0.0
N364 N 0.95801 0.67121 0.42055 0.0
C365 C 0.93555 0.64549 0.40201 0.0
C366 C 0.94527 0.69313 0.40458 0.0
C367 C 0.94761 0.64722 0.41372 0.0
C368 C 0.93492 0.62199 0.37095 0.0
N369 N 0.90659 0.61046 0.37122 0.0
C370 C 0.9004 0.56596 0.36506 0.0
C371 C 0.88929 0.58316 0.36801 0.0
C372 C 0.92956 0.57729 0.36501 0.0
C373 C 0.94692 0.60575 0.36783 0.0
H374 H 0.94826 0.64393 0.37318 0.0
H375 H 0.86694 0.5747 0.36757 0.0
C376 C 0.87287 0.68221 0.41319 0.0
N377 N 0.87896 0.66236 0.40931 0.0
C378 C 0.86709 0.68394 0.42577 0.0
C379 C 0.87413 0.64487 0.43018 0.0
C380 C 0.87958 0.64378 0.4175 0.0
C381 C 0.86757 0.66502 0.43444 0.0
H382 H 0.87208 0.69648 0.40649 0.0
H383 H 0.88407 0.62794 0.41421 0.0
C384 C 0.89805 0.64467 0.35115 0.0
N385 N 0.91159 0.61818 0.3328 0.0
C386 C 0.92567 0.65655 0.34692 0.0
C387 C 0.87726 0.61944 0.34601 0.0
C388 C 0.9321 0.6428 0.33764 0.0
C389 C 0.88455 0.60635 0.33675 0.0
C390 C 0.8839 0.71242 0.37907 0.0
C391 C 0.87056 0.71816 0.36933 0.0
C392 C 0.90437 0.73446 0.38618 0.0
C393 C 0.8781 0.74595 0.36682 0.0
C394 C 0.91136 0.76196 0.38336 0.0
N395 N 0.89819 0.76709 0.37382 0.0
C396 C 0.80441 0.6388 0.37081 0.0
C397 C 0.82465 0.64467 0.35066 0.0
C398 C 0.78037 0.6372 0.36567 0.0
N399 N 0.82603 0.64296 0.3633 0.0
C400 C 0.80098 0.64312 0.34511 0.0
C401 C 0.77872 0.64006 0.35267 0.0
H402 H 0.80638 0.63791 0.38085 0.0
H403 H 0.84239 0.64837 0.34495 0.0
C404 C 0.96535 0.73294 0.37298 0.0
N405 N 0.93987 0.72037 0.3673 0.0
C406 C 0.98727 0.75788 0.36821 0.0
C407 C 0.95636 0.75637 0.35178 0.0
C408 C 0.93505 0.73139 0.35685 0.0
C409 C 0.98296 0.76993 0.35745 0.0
H410 H 0.9688 0.72338 0.3811 0.0
H411 H 0.91465 0.72068 0.35244 0.0
O412 O 0.8578 0.6237 0.38407 0.0
O413 O 0.92246 0.66733 0.38602 0.0
O414 O 0.89151 0.65738 0.36048 0.0
O415 O 0.87726 0.68541 0.3815 0.0
H416 H 0.87041 0.59341 0.39918 0.0
H417 H 0.81471 0.58936 0.36993 0.0
H418 H 0.84456 0.54147 0.40008 0.0
H419 H 0.78995 0.53747 0.37129 0.0
H420 H 0.96545 0.71273 0.42193 0.0
H421 H 0.92689 0.62623 0.39671 0.0
H422 H 0.94432 0.71116 0.40124 0.0
H423 H 0.94854 0.62942 0.41742 0.0
H424 H 0.88642 0.54416 0.36272 0.0
H425 H 0.96953 0.61519 0.36789 0.0
H426 H 0.86231 0.69992 0.42868 0.0
H427 H 0.87434 0.62963 0.43652 0.0
H428 H 0.942 0.67603 0.35087 0.0
H429 H 0.85583 0.60986 0.34929 0.0
H430 H 0.95342 0.65164 0.33432 0.0
H431 H 0.86873 0.5867 0.33274 0.0
H432 H 0.85472 0.70139 0.36371 0.0
H433 H 0.91498 0.73038 0.39371 0.0
H434 H 0.86803 0.75072 0.35929 0.0
H435 H 0.92729 0.77923 0.38873 0.0
H436 H 0.76397 0.6353 0.37187 0.0
H437 H 0.80048 0.64518 0.33505 0.0
H438 H 0.00756 0.76726 0.37274 0.0
H439 H 0.95201 0.76498 0.34353 0.0
Li440 Li 0.25651 0.89108 0.70961 0.0
Li441 Li 0.22063 0.88099 0.72557 0.0
Li442 Li 0.20812 0.85953 0.70411 0.0
Li443 Li 0.22274 0.90902 0.70702 0.0
C444 C 0.24541 0.84171 0.72022 0.0
N445 N 0.27666 0.81653 0.72583 0.0
C446 C 0.25361 0.84122 0.73256 0.0
C447 C 0.25271 0.829 0.71078 0.0
C448 C 0.2695 0.82848 0.73519 0.0
C449 C 0.26863 0.8165 0.71379 0.0
C450 C 0.26205 0.93833 0.72922 0.0
C451 C 0.25779 0.97175 0.74226 0.0
N452 N 0.28307 0.97927 0.74753 0.0
C453 C 0.28815 0.94666 0.73465 0.0
C454 C 0.24687 0.9512 0.73296 0.0
C455 C 0.29835 0.96728 0.74393 0.0
C456 C 0.30689 0.91188 0.69608 0.0
N457 N 0.29455 0.90111 0.70729 0.0
C458 C 0.33825 0.91018 0.71597 0.0
C459 C 0.30953 0.89989 0.71713 0.0
C460 C 0.3518 0.92225 0.70462 0.0
C461 C 0.33563 0.92257 0.69451 0.0
H462 H 0.2946 0.91316 0.68848 0.0
H463 H 0.29941 0.89194 0.72604 0.0
C464 C 0.18466 0.85384 0.74569 0.0
N465 N 0.21136 0.87378 0.74284 0.0
C466 C 0.1766 0.84668 0.75814 0.0
C467 C 0.22374 0.88058 0.7645 0.0
C468 C 0.23089 0.887 0.75192 0.0
C469 C 0.19628 0.86009 0.76776 0.0
H470 H 0.16969 0.84327 0.73825 0.0
H471 H 0.25217 0.90215 0.74944 0.0
C472 C 0.23242 0.88335 0.68223 0.0
N473 N 0.22353 0.86471 0.65775 0.0
C474 C 0.21916 0.89241 0.67382 0.0
C475 C 0.24156 0.86518 0.67813 0.0
C476 C 0.21475 0.88265 0.6615 0.0
C477 C 0.23677 0.85589 0.66574 0.0
C478 C 0.16817 0.88076 0.71699 0.0
C479 C 0.14438 0.86959 0.70935 0.0
C480 C 0.16961 0.89643 0.72753 0.0
C481 C 0.12272 0.87489 0.71223 0.0
C482 C 0.1475 0.90124 0.7301 0.0
N483 N 0.12473 0.8905 0.72245 0.0
C484 C 0.17753 0.80124 0.69906 0.0
C485 C 0.16598 0.82945 0.68646 0.0
C486 C 0.15532 0.77685 0.69397 0.0
N487 N 0.18207 0.82681 0.69538 0.0
C488 C 0.14375 0.80571 0.68107 0.0
C489 C 0.13775 0.77895 0.68503 0.0
H490 H 0.19034 0.79976 0.70635 0.0
H491 H 0.16948 0.84998 0.68401 0.0
C492 C 0.24058 0.96581 0.7023 0.0
N493 N 0.21874 0.93928 0.70093 0.0
C494 C 0.23892 0.98853 0.69753 0.0
C495 C 0.19252 0.95616 0.68977 0.0
C496 C 0.19506 0.93409 0.69474 0.0
C497 C 0.21468 0.98386 0.69111 0.0
H498 H 0.25946 0.96933 0.707 0.0
H499 H 0.17843 0.91275 0.69335 0.0
O500 O 0.22989 0.85413 0.71746 0.0
O501 O 0.25179 0.91816 0.7201 0.0
O502 O 0.2367 0.89249 0.69436 0.0
O503 O 0.18957 0.87573 0.7143 0.0
H504 H 0.24795 0.85074 0.74 0.0
H505 H 0.24609 0.82873 0.70123 0.0
H506 H 0.27616 0.82812 0.74468 0.0
H507 H 0.27455 0.80671 0.70656 0.0
H508 H 0.24622 0.98183 0.74525 0.0
H509 H 0.30035 0.93719 0.73179 0.0
H510 H 0.22708 0.9457 0.72861 0.0
H511 H 0.31843 0.97376 0.74827 0.0
H512 H 0.34982 0.90924 0.72398 0.0
H513 H 0.34524 0.93206 0.68565 0.0
H514 H 0.15535 0.83039 0.76018 0.0
H515 H 0.23957 0.89161 0.77158 0.0
H516 H 0.21216 0.90667 0.6768 0.0
H517 H 0.2523 0.85839 0.68446 0.0
H518 H 0.20433 0.88933 0.65492 0.0
H519 H 0.24362 0.8417 0.66246 0.0
H520 H 0.14272 0.85713 0.70124 0.0
H521 H 0.18741 0.90453 0.73375 0.0
H522 H 0.1043 0.86657 0.70634 0.0
H523 H 0.1484 0.91341 0.73822 0.0
H524 H 0.15135 0.75661 0.69728 0.0
H525 H 0.13036 0.80833 0.67443 0.0
H526 H 0.25645 0.00951 0.69887 0.0
H527 H 0.17371 0.9515 0.68465 0.0
Li528 Li 0.77678 0.69228 0.6248 0.0
Li529 Li 0.79192 0.6575 0.62791 0.0
Li530 Li 0.77663 0.66427 0.6066 0.0
Li531 Li 0.74322 0.64064 0.62352 0.0
C532 C 0.83198 0.71582 0.61366 0.0
N533 N 0.87895 0.76556 0.60686 0.0
C534 C 0.85644 0.72665 0.62084 0.0
C535 C 0.83158 0.73011 0.60292 0.0
C536 C 0.87992 0.75189 0.61728 0.0
C537 C 0.85549 0.75526 0.59966 0.0
C538 C 0.77158 0.66243 0.6503 0.0
C539 C 0.77334 0.63667 0.66819 0.0
N540 N 0.78568 0.6608 0.67498 0.0
C541 C 0.78408 0.68694 0.65747 0.0
C542 C 0.76595 0.63704 0.65572 0.0
C543 C 0.79112 0.68569 0.66992 0.0
C544 C 0.75652 0.72703 0.63262 0.0
N545 N 0.7807 0.72689 0.63032 0.0
C546 C 0.80792 0.7747 0.63676 0.0
C547 C 0.80614 0.75002 0.63234 0.0
C548 C 0.78327 0.7755 0.63928 0.0
C549 C 0.7573 0.75119 0.63712 0.0
H550 H 0.73658 0.70819 0.63108 0.0
H551 H 0.82508 0.74932 0.63069 0.0
C552 C 0.82366 0.63078 0.6321 0.0
N553 N 0.81879 0.65131 0.63624 0.0
C554 C 0.8454 0.62787 0.63726 0.0
C555 C 0.85585 0.66654 0.65115 0.0
C556 C 0.83435 0.66904 0.64558 0.0
C557 C 0.86186 0.64605 0.64686 0.0
H558 H 0.81125 0.61727 0.62451 0.0
H559 H 0.83079 0.68583 0.64838 0.0
C560 C 0.73731 0.68337 0.60396 0.0
N561 N 0.71907 0.70847 0.58689 0.0
C562 C 0.71053 0.66817 0.59874 0.0
C563 C 0.75464 0.71145 0.60065 0.0
C564 C 0.70175 0.68119 0.59007 0.0
C565 C 0.74509 0.72373 0.59197 0.0
C566 C 0.75091 0.60092 0.61355 0.0
C567 C 0.73922 0.59065 0.60178 0.0
C568 C 0.7446 0.58236 0.62355 0.0
C569 C 0.72096 0.5619 0.60026 0.0
C570 C 0.72623 0.55377 0.62165 0.0
N571 N 0.71487 0.54422 0.61015 0.0
C572 C 0.80998 0.6706 0.58581 0.0
C573 C 0.76365 0.65911 0.58051 0.0
C574 C 0.81683 0.67127 0.5732 0.0
N575 N 0.78387 0.66488 0.58919 0.0
C576 C 0.76959 0.65955 0.56778 0.0
C577 C 0.79652 0.66577 0.56398 0.0
H578 H 0.82548 0.67457 0.59294 0.0
H579 H 0.74286 0.6539 0.58344 0.0
C580 C 0.69594 0.60895 0.63888 0.0
N581 N 0.70563 0.61287 0.62693 0.0
C582 C 0.66767 0.59046 0.64139 0.0
C583 C 0.66006 0.58001 0.61928 0.0
C584 C 0.68841 0.59883 0.61719 0.0
C585 C 0.64929 0.57593 0.6315 0.0
H586 H 0.70999 0.62073 0.64642 0.0
H587 H 0.69654 0.60285 0.60776 0.0
O588 O 0.80885 0.69106 0.61701 0.0
O589 O 0.76467 0.66329 0.63808 0.0
O590 O 0.74616 0.67089 0.61248 0.0
O591 O 0.76855 0.62901 0.61526 0.0
H592 H 0.85725 0.7158 0.62911 0.0
H593 H 0.81315 0.72175 0.59706 0.0
H594 H 0.89891 0.76059 0.62279 0.0
H595 H 0.85543 0.76654 0.59138 0.0
H596 H 0.76925 0.61719 0.67249 0.0
H597 H 0.78846 0.70675 0.65345 0.0
H598 H 0.7561 0.61787 0.65033 0.0
H599 H 0.80094 0.70451 0.67556 0.0
H600 H 0.8284 0.79297 0.63815 0.0
H601 H 0.73775 0.7506 0.63914 0.0
H602 H 0.84962 0.61197 0.63366 0.0
H603 H 0.86855 0.68139 0.65833 0.0
H604 H 0.69671 0.64651 0.60129 0.0
H605 H 0.77511 0.72374 0.60483 0.0
H606 H 0.68114 0.66962 0.58589 0.0
H607 H 0.75832 0.74544 0.58931 0.0
H608 H 0.74399 0.60474 0.59394 0.0
H609 H 0.75374 0.58997 0.63268 0.0
H610 H 0.71159 0.55366 0.59122 0.0
H611 H 0.72102 0.53917 0.62932 0.0
H612 H 0.83769 0.6756 0.57071 0.0
H613 H 0.75332 0.6553 0.561 0.0
H614 H 0.66021 0.5878 0.65095 0.0
H615 H 0.64651 0.56961 0.61137 0.0
Li616 Li 0.13611 0.79091 0.96037 0.0
Li617 Li 0.08747 0.77668 0.9589 0.0
Li618 Li 0.10357 0.7411 0.95798 0.0
Li619 Li 0.11232 0.77536 0.94068 0.0
C620 C 0.11697 0.77004 0.98375 0.0
N621 N 0.13916 0.77861 0.00761 0.0
C622 C 0.12277 0.7942 0.99041 0.0
C623 C 0.12241 0.7502 0.98924 0.0
C624 C 0.13402 0.79817 0.00245 0.0
C625 C 0.13362 0.75492 0.00132 0.0
C626 C 0.1119 0.8286 0.9522 0.0
C627 C 0.08373 0.84946 0.94699 0.0
N628 N 0.0961 0.86826 0.95644 0.0
C629 C 0.12434 0.84814 0.96186 0.0
C630 C 0.09146 0.82928 0.94469 0.0
C631 C 0.11608 0.86804 0.96384 0.0
C632 C 0.1853 0.84178 0.95951 0.0
N633 N 0.17214 0.81841 0.96675 0.0
C634 C 0.20999 0.83797 0.98144 0.0
C635 C 0.18447 0.81568 0.97729 0.0
C636 C 0.2233 0.86277 0.97439 0.0
C637 C 0.21103 0.86427 0.96314 0.0
H638 H 0.17548 0.84314 0.95098 0.0
H639 H 0.17454 0.79643 0.98256 0.0
C640 C 0.03135 0.76446 0.95966 0.0
N641 N 0.05705 0.7809 0.96485 0.0
C642 C 0.00811 0.76565 0.96405 0.0
C643 C 0.03817 0.80085 0.97899 0.0
C644 C 0.06081 0.79888 0.97434 0.0
C645 C 0.01133 0.7839 0.97391 0.0
H646 H 0.02878 0.75007 0.95224 0.0
H647 H 0.08129 0.81153 0.97841 0.0
C648 C 0.16569 0.77257 0.94883 0.0
N649 N 0.22248 0.79187 0.9505 0.0
C650 C 0.18413 0.79216 0.94019 0.0
C651 C 0.17604 0.76264 0.95827 0.0
C652 C 0.2128 0.8017 0.94121 0.0
C653 C 0.20485 0.77269 0.95896 0.0
C654 C 0.06255 0.73211 0.93627 0.0
C655 C 0.06031 0.70666 0.9327 0.0
C656 C 0.05178 0.74487 0.92848 0.0
C657 C 0.0475 0.69449 0.92132 0.0
C658 C 0.03917 0.73206 0.91717 0.0
N659 N 0.03732 0.70735 0.91385 0.0
C660 C 0.06999 0.68939 0.96916 0.0
C661 C 0.10755 0.69173 0.95735 0.0
C662 C 0.05992 0.66117 0.97182 0.0
N663 N 0.09325 0.7039 0.962 0.0
C664 C 0.09821 0.66349 0.95977 0.0
C665 C 0.07391 0.64776 0.96699 0.0
H666 H 0.05897 0.6997 0.97259 0.0
H667 H 0.12586 0.7038 0.95158 0.0
C668 C 0.12214 0.80592 0.91838 0.0
N669 N 0.11711 0.78094 0.92311 0.0
C670 C 0.12722 0.81152 0.90563 0.0
C671 C 0.12179 0.7655 0.90282 0.0
C672 C 0.11702 0.76088 0.91566 0.0
C673 C 0.12721 0.79122 0.89768 0.0
H674 H 0.12268 0.82172 0.92454 0.0
H675 H 0.11363 0.74145 0.91974 0.0
O676 O 0.10554 0.7655 0.97203 0.0
O677 O 0.11943 0.80872 0.95019 0.0
O678 O 0.13769 0.7636 0.94821 0.0
O679 O 0.07543 0.7446 0.94727 0.0
H680 H 0.11917 0.80999 0.98624 0.0
H681 H 0.11813 0.73141 0.98423 0.0
H682 H 0.13879 0.81687 0.00767 0.0
H683 H 0.13798 0.73977 0.00567 0.0
H684 H 0.06785 0.85013 0.94129 0.0
H685 H 0.13991 0.84774 0.96788 0.0
H686 H 0.08147 0.81421 0.93723 0.0
H687 H 0.12544 0.8832 0.97131 0.0
H688 H 0.21908 0.83602 0.9901 0.0
H689 H 0.22062 0.88312 0.95749 0.0
H690 H 0.98783 0.75238 0.95979 0.0
H691 H 0.04155 0.81495 0.98671 0.0
H692 H 0.17639 0.80011 0.93287 0.0
H693 H 0.16201 0.74764 0.96508 0.0
H694 H 0.22737 0.81699 0.93464 0.0
H695 H 0.21321 0.76535 0.96626 0.0
H696 H 0.06853 0.69649 0.9386 0.0
H697 H 0.05341 0.76461 0.93109 0.0
H698 H 0.04571 0.67485 0.91841 0.0
H699 H 0.03092 0.74179 0.91102 0.0
H700 H 0.04087 0.64976 0.97724 0.0
H701 H 0.10973 0.65402 0.95595 0.0
H702 H 0.13115 0.83155 0.90203 0.0
H703 H 0.122 0.74947 0.89703 0.0
Li704 Li 0.30632 0.08766 0.2909 0.0
Li705 Li 0.3403 0.13634 0.29238 0.0
Li706 Li 0.33187 0.11423 0.27243 0.0
Li707 Li 0.35707 0.10396 0.28938 0.0
C708 C 0.28425 0.12226 0.28835 0.0
N709 N 0.24288 0.12856 0.29995 0.0
C710 C 0.28315 0.12309 0.3014 0.0
C711 C 0.26422 0.12453 0.2812 0.0
C712 C 0.26212 0.12633 0.30709 0.0
C713 C 0.24349 0.12771 0.28724 0.0
C714 C 0.34647 0.11308 0.31554 0.0
C715 C 0.38587 0.13276 0.3297 0.0
N716 N 0.36804 0.12709 0.33949 0.0
C717 C 0.32852 0.10719 0.32576 0.0
C718 C 0.37537 0.12576 0.31753 0.0
C719 C 0.33985 0.11456 0.33778 0.0
C720 C 0.27409 0.04317 0.30697 0.0
N721 N 0.27227 0.0574 0.29697 0.0
C722 C 0.22255 0.02753 0.29619 0.0
C723 C 0.24723 0.0501 0.29153 0.0
C724 C 0.22375 0.01249 0.30657 0.0
C725 C 0.24997 0.02059 0.31197 0.0
H726 H 0.29435 0.04933 0.31103 0.0
H727 H 0.2464 0.06177 0.28356 0.0
C728 C 0.33987 0.18637 0.29204 0.0
N729 N 0.34777 0.17147 0.29946 0.0
C730 C 0.34199 0.21125 0.29631 0.0
C731 C 0.36123 0.20568 0.31571 0.0
C732 C 0.35885 0.18091 0.31102 0.0
C733 C 0.35227 0.22092 0.30839 0.0
H734 H 0.33122 0.17851 0.28287 0.0
H735 H 0.36537 0.16913 0.31675 0.0
C736 C 0.30686 0.05464 0.27146 0.0
N737 N 0.26802 0.00878 0.25798 0.0
C738 C 0.30888 0.03038 0.27091 0.0
C739 C 0.28508 0.05561 0.26519 0.0
C740 C 0.28903 0.00741 0.26403 0.0
C741 C 0.26565 0.0322 0.25842 0.0
C742 C 0.38676 0.16749 0.27985 0.0
C743 C 0.383 0.18404 0.27102 0.0
C744 C 0.40848 0.18011 0.28858 0.0
C745 C 0.40081 0.21308 0.2712 0.0
C746 C 0.42583 0.20921 0.28846 0.0
N747 N 0.42165 0.22496 0.27986 0.0
C748 C 0.31567 0.13091 0.25071 0.0
C749 C 0.34441 0.11086 0.24709 0.0
C750 C 0.31482 0.13559 0.23793 0.0
N751 N 0.33032 0.1188 0.25499 0.0
C752 C 0.34424 0.11526 0.23422 0.0
C753 C 0.32936 0.12786 0.22951 0.0
H754 H 0.30503 0.13735 0.25726 0.0
H755 H 0.35593 0.10133 0.25082 0.0
C756 C 0.37636 0.0712 0.30063 0.0
N757 N 0.3837 0.09284 0.29256 0.0
C758 C 0.39438 0.06068 0.30267 0.0
C759 C 0.42726 0.09516 0.28814 0.0
C760 C 0.40863 0.10512 0.28643 0.0
C761 C 0.42004 0.07243 0.29624 0.0
H762 H 0.35621 0.06178 0.30526 0.0
H763 H 0.41376 0.12225 0.28004 0.0
O764 O 0.30455 0.11894 0.28253 0.0
O765 O 0.33563 0.10556 0.30373 0.0
O766 O 0.32599 0.07719 0.27824 0.0
O767 O 0.3691 0.13911 0.28 0.0
H768 H 0.2984 0.12139 0.30709 0.0
H769 H 0.2646 0.12371 0.27109 0.0
H770 H 0.2611 0.12708 0.31718 0.0
H771 H 0.22786 0.12948 0.28181 0.0
H772 H 0.4082 0.14271 0.33137 0.0
H773 H 0.30606 0.09698 0.32442 0.0
H774 H 0.38958 0.13034 0.30978 0.0
H775 H 0.3262 0.11023 0.34577 0.0
H776 H 0.20274 0.02211 0.29181 0.0
H777 H 0.25188 0.00931 0.31986 0.0
H778 H 0.33449 0.22212 0.29042 0.0
H779 H 0.36953 0.21257 0.32503 0.0
H780 H 0.32559 0.02932 0.27575 0.0
H781 H 0.28305 0.07413 0.26562 0.0
H782 H 0.29033 0.98847 0.2635 0.0
H783 H 0.24866 0.03262 0.25355 0.0
H784 H 0.36629 0.17462 0.2642 0.0
H785 H 0.41185 0.16759 0.2954 0.0
H786 H 0.398 0.22618 0.26449 0.0
H787 H 0.44262 0.21928 0.29521 0.0
H788 H 0.30347 0.14575 0.23472 0.0
H789 H 0.35553 0.10879 0.22803 0.0
H790 H 0.38785 0.04291 0.30885 0.0
H791 H 0.44695 0.10493 0.2831 0.0
Li792 Li 0.21887 0.307 0.62568 0.0
Li793 Li 0.20705 0.34241 0.6292 0.0
Li794 Li 0.21595 0.33277 0.60815 0.0
Li795 Li 0.25407 0.35504 0.62344 0.0
C796 C 0.16163 0.28925 0.62582 0.0
N797 N 0.11357 0.25345 0.6389 0.0
C798 C 0.16325 0.28357 0.63845 0.0
C799 C 0.13558 0.27675 0.61985 0.0
C800 C 0.13871 0.26541 0.6449 0.0
C801 C 0.11151 0.25869 0.62662 0.0
C802 C 0.24464 0.35434 0.64868 0.0
C803 C 0.26068 0.40026 0.65743 0.0
N804 N 0.26653 0.39166 0.66838 0.0
C805 C 0.25082 0.34597 0.66001 0.0
C806 C 0.24961 0.38172 0.64736 0.0
C807 C 0.26186 0.36514 0.66987 0.0
C808 C 0.23461 0.27345 0.63866 0.0
N809 N 0.21431 0.27204 0.63097 0.0
C810 C 0.19064 0.22198 0.63113 0.0
C811 C 0.19261 0.24704 0.62711 0.0
C812 C 0.21136 0.22279 0.63909 0.0
C813 C 0.23357 0.24897 0.64285 0.0
H814 H 0.2517 0.29368 0.64149 0.0
H815 H 0.17698 0.24656 0.62083 0.0
C816 C 0.16856 0.36082 0.63132 0.0
N817 N 0.18301 0.35149 0.63818 0.0
C818 C 0.14688 0.36329 0.63677 0.0
C819 C 0.15631 0.34772 0.6564 0.0
C820 C 0.17773 0.34545 0.65056 0.0
C821 C 0.14001 0.35593 0.6494 0.0
H822 H 0.17296 0.36495 0.62143 0.0
H823 H 0.18915 0.33755 0.65575 0.0
C824 C 0.24624 0.30161 0.60646 0.0
N825 N 0.24583 0.25499 0.59667 0.0
C826 C 0.26966 0.29832 0.60782 0.0
C827 C 0.22261 0.2812 0.60011 0.0
C828 C 0.26904 0.27459 0.60281 0.0
C829 C 0.22282 0.25779 0.59523 0.0
C830 C 0.24502 0.39082 0.60777 0.0
C831 C 0.26494 0.38978 0.60003 0.0
C832 C 0.23973 0.41302 0.60661 0.0
C833 C 0.27927 0.41104 0.59125 0.0
C834 C 0.25451 0.43389 0.59771 0.0
N835 N 0.27381 0.43247 0.59028 0.0
C836 C 0.18064 0.33109 0.58906 0.0
C837 C 0.2223 0.33323 0.58173 0.0
C838 C 0.17196 0.33136 0.57682 0.0
N839 N 0.20538 0.33203 0.59125 0.0
C840 C 0.21443 0.33351 0.56933 0.0
C841 C 0.18898 0.33264 0.56675 0.0
H842 H 0.16773 0.33027 0.59686 0.0
H843 H 0.24201 0.33422 0.58377 0.0
C844 C 0.30794 0.3675 0.62896 0.0
N845 N 0.29278 0.38007 0.62618 0.0
C846 C 0.33672 0.38356 0.63098 0.0
C847 C 0.33362 0.42539 0.6278 0.0
C848 C 0.30482 0.40846 0.62579 0.0
C849 C 0.34998 0.4129 0.63027 0.0
H850 H 0.29754 0.34492 0.62965 0.0
H851 H 0.29215 0.41797 0.6239 0.0
O852 O 0.18524 0.30734 0.61931 0.0
O853 O 0.234 0.33571 0.63896 0.0
O854 O 0.24605 0.32425 0.61163 0.0
O855 O 0.23042 0.37017 0.61638 0.0
H856 H 0.18319 0.29312 0.64325 0.0
H857 H 0.13397 0.28102 0.61009 0.0
H858 H 0.13966 0.26087 0.65467 0.0
H859 H 0.0912 0.24888 0.62212 0.0
H860 H 0.26463 0.42149 0.65654 0.0
H861 H 0.24713 0.32486 0.66117 0.0
H862 H 0.24497 0.38865 0.63869 0.0
H863 H 0.26674 0.35893 0.6787 0.0
H864 H 0.17337 0.20222 0.62791 0.0
H865 H 0.24981 0.25053 0.64907 0.0
H866 H 0.13462 0.3693 0.63097 0.0
H867 H 0.15187 0.34207 0.66618 0.0
H868 H 0.28813 0.31387 0.61269 0.0
H869 H 0.20411 0.28315 0.59915 0.0
H870 H 0.28701 0.27175 0.6038 0.0
H871 H 0.20462 0.24176 0.59035 0.0
H872 H 0.2694 0.37283 0.60079 0.0
H873 H 0.22431 0.41407 0.61252 0.0
H874 H 0.29475 0.41051 0.5852 0.0
H875 H 0.25063 0.45119 0.59671 0.0
H876 H 0.15205 0.33035 0.57525 0.0
H877 H 0.22836 0.3349 0.56187 0.0
H878 H 0.34845 0.37312 0.63315 0.0
H879 H 0.34305 0.44795 0.62718 0.0
Li880 Li 0.85637 0.20746 0.961 0.0
Li881 Li 0.9051 0.21759 0.95888 0.0
Li882 Li 0.89263 0.25358 0.95772 0.0
Li883 Li 0.87865 0.21921 0.94074 0.0
C884 C 0.89593 0.24833 0.98186 0.0
N885 N 0.91194 0.28816 0.00055 0.0
C886 C 0.92183 0.25853 0.98781 0.0
C887 C 0.87795 0.258 0.9856 0.0
C888 C 0.9296 0.27875 0.99719 0.0
C889 C 0.88647 0.27825 0.99501 0.0
C890 C 0.86323 0.16102 0.95644 0.0
C891 C 0.84842 0.11187 0.95468 0.0
N892 N 0.84748 0.10974 0.96737 0.0
C893 C 0.8622 0.15833 0.96948 0.0
C894 C 0.8563 0.1376 0.94898 0.0
C895 C 0.85413 0.13223 0.97482 0.0
C896 C 0.8019 0.16206 0.96125 0.0
N897 N 0.82139 0.18263 0.96866 0.0
C898 C 0.7933 0.16172 0.9868 0.0
C899 C 0.8174 0.18317 0.98118 0.0
C900 C 0.7733 0.13958 0.97944 0.0
C901 C 0.77748 0.14034 0.96645 0.0
H902 H 0.80604 0.16175 0.95138 0.0
H903 H 0.83354 0.1994 0.98689 0.0
C904 C 0.95949 0.23523 0.96653 0.0
N905 N 0.93497 0.21142 0.96395 0.0
C906 C 0.98275 0.23384 0.97071 0.0
C907 C 0.95557 0.18339 0.96907 0.0
C908 C 0.93285 0.18578 0.96485 0.0
C909 C 0.98085 0.20762 0.97219 0.0
H910 H 0.96082 0.2554 0.96548 0.0
H911 H 0.9137 0.1671 0.96231 0.0
C912 C 0.82875 0.22642 0.948 0.0
N913 N 0.77211 0.2086 0.947 0.0
C914 C 0.81251 0.21014 0.93795 0.0
C915 C 0.81623 0.234 0.95743 0.0
C916 C 0.7839 0.20125 0.93764 0.0
C917 C 0.78756 0.22467 0.95679 0.0
C918 C 0.93631 0.24654 0.93824 0.0
C919 C 0.95999 0.27139 0.93448 0.0
C920 C 0.93229 0.22081 0.93394 0.0
C921 C 0.97929 0.27011 0.92642 0.0
C922 C 0.95207 0.22042 0.92589 0.0
N923 N 0.97495 0.24486 0.92233 0.0
C924 C 0.93537 0.30692 0.96399 0.0
C925 C 0.89148 0.30439 0.96108 0.0
C926 C 0.94814 0.33542 0.96673 0.0
N927 N 0.90758 0.2921 0.96127 0.0
C928 C 0.9034 0.33293 0.96375 0.0
C929 C 0.93213 0.34883 0.9666 0.0
H930 H 0.94762 0.2965 0.96399 0.0
H931 H 0.86943 0.29205 0.95885 0.0
C932 C 0.85595 0.18583 0.91942 0.0
N933 N 0.87317 0.21256 0.92332 0.0
C934 C 0.85041 0.17995 0.90671 0.0
C935 C 0.88081 0.22921 0.90224 0.0
C936 C 0.88567 0.23415 0.91507 0.0
C937 C 0.86277 0.20182 0.89793 0.0
H938 H 0.84613 0.16916 0.92622 0.0
H939 H 0.89918 0.25523 0.91849 0.0
O940 O 0.88821 0.229 0.97243 0.0
O941 O 0.87028 0.18616 0.95095 0.0
O942 O 0.85675 0.23498 0.94856 0.0
O943 O 0.91737 0.24759 0.94619 0.0
H944 H 0.9358 0.25092 0.98525 0.0
H945 H 0.85775 0.25017 0.98121 0.0
H946 H 0.94967 0.28694 0.00181 0.0
H947 H 0.87286 0.28611 0.99789 0.0
H948 H 0.84302 0.09359 0.94901 0.0
H949 H 0.86761 0.17615 0.97545 0.0
H950 H 0.85704 0.13926 0.93888 0.0
H951 H 0.85319 0.12987 0.98489 0.0
H952 H 0.79085 0.16186 0.99686 0.0
H953 H 0.76294 0.12341 0.96047 0.0
H954 H 0.0018 0.25306 0.97304 0.0
H955 H 0.95344 0.1628 0.96981 0.0
H956 H 0.82178 0.20425 0.93051 0.0
H957 H 0.82843 0.24683 0.9652 0.0
H958 H 0.77108 0.18849 0.92996 0.0
H959 H 0.77759 0.23023 0.96408 0.0
H960 H 0.96342 0.29146 0.93777 0.0
H961 H 0.91416 0.20134 0.93678 0.0
H962 H 0.99771 0.28918 0.92343 0.0
H963 H 0.94922 0.20067 0.92249 0.0
H964 H 0.97041 0.34695 0.96867 0.0
H965 H 0.89028 0.34241 0.96364 0.0
H966 H 0.83664 0.1585 0.90378 0.0
H967 H 0.89054 0.2467 0.8958 0.0
Li968 Li 0.69004 0.91171 0.29317 0.0
Li969 Li 0.65501 0.86227 0.29669 0.0
Li970 Li 0.66371 0.88421 0.27549 0.0
Li971 Li 0.63881 0.89532 0.29122 0.0
C972 C 0.71627 0.88378 0.28841 0.0
N973 N 0.77065 0.89647 0.29329 0.0
C974 C 0.72185 0.87048 0.29822 0.0
C975 C 0.73833 0.90334 0.28101 0.0
C976 C 0.74949 0.87721 0.30054 0.0
C977 C 0.76569 0.90955 0.28365 0.0
C978 C 0.65086 0.89169 0.31829 0.0
C979 C 0.61277 0.87471 0.33311 0.0
N980 N 0.63159 0.88415 0.34267 0.0
C981 C 0.66982 0.90153 0.32827 0.0
C982 C 0.62209 0.87843 0.32073 0.0
C983 C 0.65967 0.89739 0.34052 0.0
C984 C 0.73578 0.96722 0.29334 0.0
N985 N 0.72492 0.94173 0.29893 0.0
C986 C 0.76302 0.95951 0.31343 0.0
C987 C 0.738 0.93749 0.30876 0.0
C988 C 0.7747 0.98621 0.30792 0.0
C989 C 0.76082 0.98982 0.29766 0.0
H990 H 0.72485 0.9701 0.2856 0.0
H991 H 0.72884 0.91704 0.31308 0.0
C992 C 0.64212 0.80686 0.29758 0.0
N993 N 0.64766 0.82891 0.30512 0.0
C994 C 0.64021 0.78258 0.3026 0.0
C995 C 0.64851 0.80368 0.32313 0.0
C996 C 0.65038 0.82761 0.31771 0.0
C997 C 0.64413 0.78104 0.31551 0.0
H998 H 0.64037 0.80866 0.28758 0.0
H999 H 0.65513 0.84544 0.32351 0.0
C1000 C 0.6731 0.93405 0.26902 0.0
N1001 N 0.67781 0.95721 0.24559 0.0
C1002 C 0.65112 0.93694 0.26416 0.0
C1003 C 0.6976 0.94322 0.26202 0.0
C1004 C 0.65389 0.94865 0.25228 0.0
C1005 C 0.69953 0.95477 0.25017 0.0
C1006 C 0.59934 0.8389 0.2844 0.0
C1007 C 0.58249 0.8315 0.2737 0.0
C1008 C 0.58754 0.8258 0.29578 0.0
C1009 C 0.55399 0.81171 0.27464 0.0
C1010 C 0.55897 0.80609 0.29635 0.0
N1011 N 0.5429 0.79954 0.28586 0.0
C1012 C 0.68532 0.87305 0.25355 0.0
C1013 C 0.64453 0.87654 0.25054 0.0
C1014 C 0.6861 0.86768 0.24083 0.0
N1015 N 0.66475 0.87736 0.25812 0.0
C1016 C 0.6444 0.87108 0.23779 0.0
C1017 C 0.66534 0.86649 0.23279 0.0
H1018 H 0.70097 0.87352 0.2598 0.0
H1019 H 0.62854 0.88022 0.25442 0.0
C1020 C 0.6184 0.92687 0.3027 0.0
N1021 N 0.6119 0.90664 0.29395 0.0
C1022 C 0.60108 0.9383 0.30447 0.0
C1023 C 0.57067 0.90789 0.28815 0.0
C1024 C 0.5885 0.8969 0.28676 0.0
C1025 C 0.57708 0.92911 0.297 0.0
H1026 H 0.6375 0.93466 0.30808 0.0
H1027 H 0.58423 0.88141 0.27962 0.0
O1028 O 0.68939 0.87774 0.28609 0.0
O1029 O 0.66053 0.89568 0.30622 0.0
O1030 O 0.67058 0.92214 0.28054 0.0
O1031 O 0.62737 0.8581 0.28358 0.0
H1032 H 0.70508 0.85528 0.30404 0.0
H1033 H 0.73442 0.91384 0.27339 0.0
H1034 H 0.75411 0.86718 0.30814 0.0
H1035 H 0.78297 0.92479 0.27805 0.0
H1036 H 0.59056 0.86444 0.33511 0.0
H1037 H 0.69214 0.91216 0.32659 0.0
H1038 H 0.60708 0.87141 0.31318 0.0
H1039 H 0.67413 0.90475 0.34832 0.0
H1040 H 0.77271 0.95579 0.32147 0.0
H1041 H 0.7692 0.00989 0.29301 0.0
H1042 H 0.63722 0.76585 0.29633 0.0
H1043 H 0.65137 0.80329 0.33314 0.0
H1044 H 0.63207 0.93006 0.26945 0.0
H1045 H 0.71481 0.94117 0.26564 0.0
H1046 H 0.63698 0.95088 0.24838 0.0
H1047 H 0.71828 0.96175 0.24462 0.0
H1048 H 0.59126 0.84103 0.26476 0.0
H1049 H 0.60028 0.83052 0.30408 0.0
H1050 H 0.5407 0.80598 0.26645 0.0
H1051 H 0.54959 0.7959 0.30512 0.0
H1052 H 0.70242 0.86394 0.23737 0.0
H1053 H 0.62821 0.87066 0.23188 0.0
H1054 H 0.60703 0.95496 0.31125 0.0
H1055 H 0.55233 0.90021 0.28222 0.0
H1056 H 0.5537 0.61122 0.05648 0.0
H1057 H 0.52649 0.56024 0.05454 0.0
H1058 H 0.52724 0.56776 0.01435 0.0
H1059 H 0.55449 0.61892 0.0162 0.0
H1060 H 0.47432 0.52598 0.04339 0.0
H1061 H 0.55852 0.51493 0.02004 0.0
H1062 H 0.56514 0.54691 0.02767 0.0
H1063 H 0.54915 0.53819 0.01245 0.0
C1064 C 0.54778 0.60207 0.04722 0.0
C1065 C 0.5563 0.6191 0.03648 0.0
C1066 C 0.53238 0.57294 0.04614 0.0
C1067 C 0.52527 0.56026 0.0343 0.0
C1068 C 0.53307 0.57715 0.02356 0.0
H1069 H 0.43426 0.38242 0.01454 0.0
H1070 H 0.45941 0.4338 0.01363 0.0
C1071 C 0.54857 0.60634 0.02463 0.0
C1072 C 0.50971 0.52933 0.03331 0.0
H1073 H 0.51502 0.47349 0.02298 0.0
C1074 C 0.48317 0.51449 0.03891 0.0
C1075 C 0.52134 0.51447 0.02742 0.0
C1076 C 0.55019 0.52935 0.02163 0.0
C1077 C 0.46798 0.48511 0.03884 0.0
C1078 C 0.47985 0.47026 0.03318 0.0
C1079 C 0.50608 0.48504 0.02733 0.0
C1080 C 0.46567 0.43935 0.03364 0.0
C1081 C 0.4393 0.47017 0.04479 0.0
C1082 C 0.46152 0.42563 0.04516 0.0
C1083 C 0.44721 0.39641 0.04572 0.0
C1084 C 0.43686 0.38038 0.03474 0.0
C1085 C 0.44173 0.39423 0.02316 0.0
C1086 C 0.45615 0.42351 0.02262 0.0
H1087 H 0.43041 0.48424 0.04591 0.0
H1088 H 0.42456 0.45169 0.03914 0.0
H1089 H 0.44094 0.46264 0.05422 0.0
H1090 H 0.46908 0.43757 0.05375 0.0
H1091 H 0.44356 0.38639 0.05478 0.0
H1092 H 0.06767 0.45464 0.38194 0.0
H1093 H 0.04378 0.48161 0.37935 0.0
H1094 H 0.01854 0.44822 0.34207 0.0
H1095 H 0.04185 0.42054 0.34477 0.0
H1096 H 0.05075 0.52159 0.36335 0.0
H1097 H 0.94432 0.42938 0.35722 0.0
H1098 H 0.97388 0.42612 0.36214 0.0
H1099 H 0.96932 0.43145 0.34589 0.0
C1100 C 0.05722 0.45324 0.37316 0.0
C1101 C 0.05647 0.43543 0.36357 0.0
C1102 C 0.04351 0.46857 0.3717 0.0
C1103 C 0.02892 0.46653 0.36061 0.0
C1104 C 0.029 0.44952 0.35084 0.0
H1105 H 0.97078 0.58677 0.3483 0.0
H1106 H 0.99425 0.55927 0.34556 0.0
C1107 C 0.04242 0.43386 0.35236 0.0
C1108 C 0.0136 0.48218 0.35944 0.0
H1109 H 0.94853 0.47402 0.35506 0.0
C1110 C 0.02841 0.51122 0.3615 0.0
C1111 C 0.98438 0.46852 0.35716 0.0
C1112 C 0.96696 0.43713 0.3556 0.0
C1113 C 0.01477 0.52696 0.3616 0.0
C1114 C 0.98563 0.51339 0.35912 0.0
C1115 C 0.9709 0.48441 0.35684 0.0
C1116 C 0.96971 0.52853 0.3597 0.0
C1117 C 0.03157 0.55769 0.36491 0.0
C1118 C 0.94708 0.51947 0.36803 0.0
C1119 C 0.93325 0.53475 0.36937 0.0
C1120 C 0.94202 0.55947 0.3625 0.0
C1121 C 0.96394 0.56795 0.35382 0.0
C1122 C 0.97744 0.55239 0.35232 0.0
H1123 H 0.0514 0.56289 0.3698 0.0
H1124 H 0.03715 0.57034 0.35621 0.0
H1125 H 0.01934 0.56401 0.371 0.0
H1126 H 0.94066 0.50105 0.37378 0.0
H1127 H 0.91647 0.52788 0.37616 0.0
H1128 H 0.38313 0.92173 0.68472 0.0
H1129 H 0.43438 0.94632 0.68299 0.0
H1130 H 0.44162 0.97867 0.72038 0.0
H1131 H 0.39069 0.95472 0.72213 0.0
H1132 H 0.4724 0.0054 0.68568 0.0
H1133 H 0.49199 0.94286 0.72075 0.0
H1134 H 0.458 0.93084 0.71375 0.0
H1135 H 0.4699 0.95592 0.7263 0.0
C1136 C 0.39564 0.93411 0.69256 0.0
C1137 C 0.3828 0.93605 0.70361 0.0
C1138 C 0.42487 0.94803 0.69157 0.0
C1139 C 0.44169 0.96392 0.70163 0.0
C1140 C 0.42897 0.96599 0.71262 0.0
H1141 H 0.61531 0.07058 0.71958 0.0
H1142 H 0.56412 0.04452 0.71854 0.0
C1143 C 0.39984 0.95218 0.71361 0.0
C1144 C 0.47258 0.97918 0.70059 0.0
H1145 H 0.53156 0.98588 0.71429 0.0
C1146 C 0.4854 0.00099 0.69182 0.0
C1147 C 0.48937 0.97329 0.70863 0.0
C1148 C 0.47666 0.94929 0.71782 0.0
C1149 C 0.5147 0.01781 0.69122 0.0
C1150 C 0.53144 0.01234 0.69949 0.0
C1151 C 0.5186 0.99012 0.70804 0.0
C1152 C 0.56236 0.02969 0.69963 0.0
C1153 C 0.52749 0.04187 0.68207 0.0
C1154 C 0.57825 0.03009 0.6893 0.0
C1155 C 0.60752 0.0451 0.68984 0.0
C1156 C 0.62137 0.05988 0.70074 0.0
C1157 C 0.60531 0.05979 0.71098 0.0
C1158 C 0.57608 0.04474 0.71044 0.0
H1159 H 0.51173 0.04694 0.67832 0.0
H1160 H 0.54468 0.06093 0.68655 0.0
H1161 H 0.53652 0.03618 0.67408 0.0
H1162 H 0.56803 0.01828 0.68093 0.0
H1163 H 0.61933 0.04492 0.68177 0.0
H1164 H 0.61573 0.58718 0.64631 0.0
H1165 H 0.56477 0.55911 0.64871 0.0
H1166 H 0.56293 0.49662 0.6238 0.0
H1167 H 0.61392 0.52432 0.62152 0.0
H1168 H 0.52638 0.54377 0.62841 0.0
H1169 H 0.51448 0.45066 0.65391 0.0
H1170 H 0.54711 0.4836 0.65345 0.0
H1171 H 0.5366 0.46008 0.64033 0.0
C1172 C 0.60453 0.56717 0.64156 0.0
C1173 C 0.6188 0.5579 0.63375 0.0
C1174 C 0.57544 0.55127 0.64289 0.0
C1175 C 0.5602 0.5257 0.63654 0.0
C1176 C 0.57441 0.5161 0.62894 0.0
H1177 H 0.39012 0.40328 0.6205 0.0
H1178 H 0.44089 0.43167 0.62302 0.0
C1179 C 0.60347 0.53205 0.62755 0.0
C1180 C 0.52924 0.51003 0.6371 0.0
H1181 H 0.47314 0.44652 0.64469 0.0
C1182 C 0.51466 0.52263 0.6321 0.0
C1183 C 0.51416 0.48249 0.64191 0.0
C1184 C 0.52883 0.46844 0.64781 0.0
C1185 C 0.4853 0.50794 0.63131 0.0
C1186 C 0.47021 0.48015 0.63589 0.0
C1187 C 0.4848 0.46783 0.64118 0.0
C1188 C 0.43937 0.46298 0.63468 0.0
C1189 C 0.4708 0.52188 0.62512 0.0
C1190 C 0.42168 0.47107 0.64052 0.0
C1191 C 0.39261 0.45489 0.63907 0.0
C1192 C 0.38077 0.4302 0.63188 0.0
C1193 C 0.39858 0.42202 0.6262 0.0
C1194 C 0.42759 0.43825 0.6276 0.0
H1195 H 0.48562 0.54056 0.61958 0.0
H1196 H 0.45377 0.50702 0.61883 0.0
H1197 H 0.46132 0.52888 0.63242 0.0
H1198 H 0.43036 0.4898 0.64623 0.0
H1199 H 0.37938 0.46148 0.64371 0.0
H1200 H 0.97151 0.37958 0.98436 0.0
H1201 H 0.99613 0.43049 0.98725 0.0
H1202 H 0.94827 0.43802 0.95709 0.0
H1203 H 0.92373 0.38727 0.95408 0.0
H1204 H 0.02898 0.47035 0.96965 0.0
H1205 H 0.94117 0.48536 0.98474 0.0
H1206 H 0.93898 0.45154 0.98491 0.0
H1207 H 0.93382 0.46545 0.97055 0.0
C1208 C 0.96617 0.39208 0.97837 0.0
C1209 C 0.94566 0.3794 0.96899 0.0
C1210 C 0.98015 0.42112 0.98008 0.0
C1211 C 0.97375 0.43794 0.97249 0.0
C1212 C 0.95305 0.42534 0.96323 0.0
H1213 H 0.06993 0.60901 0.94992 0.0
H1214 H 0.04775 0.55833 0.95267 0.0
C1215 C 0.93905 0.39633 0.96152 0.0
C1216 C 0.98992 0.46884 0.97367 0.0
H1217 H 0.98273 0.52637 0.97767 0.0
C1218 C 0.01895 0.48261 0.97155 0.0
C1219 C 0.97684 0.48474 0.97633 0.0
C1220 C 0.94603 0.47102 0.97939 0.0
C1221 C 0.03507 0.51197 0.97148 0.0
C1222 C 0.02168 0.52787 0.9734 0.0
C1223 C 0.99289 0.5141 0.97607 0.0
C1224 C 0.03686 0.55874 0.97209 0.0
C1225 C 0.06624 0.52569 0.96929 0.0
C1226 C 0.03784 0.57573 0.98208 0.0
C1227 C 0.05054 0.60475 0.98054 0.0
C1228 C 0.0623 0.61725 0.96896 0.0
C1229 C 0.06157 0.60014 0.95903 0.0
C1230 C 0.04888 0.57115 0.96058 0.0
H1231 H 0.07429 0.51137 0.9717 0.0
H1232 H 0.0707 0.53123 0.95924 0.0
H1233 H 0.07784 0.5452 0.97488 0.0
H1234 H 0.02858 0.5665 0.99102 0.0
H1235 H 0.051 0.61739 0.9884 0.0
H1236 H 0.44697 0.06141 0.27761 0.0
H1237 H 0.47454 0.03796 0.27939 0.0
H1238 H 0.46201 0.03169 0.31937 0.0
H1239 H 0.43422 0.05506 0.31764 0.0
H1240 H 0.52296 0.05218 0.29265 0.0
H1241 H 0.43445 0.95064 0.30922 0.0
H1242 H 0.42928 0.97797 0.30273 0.0
H1243 H 0.44132 0.98051 0.31857 0.0
C1244 C 0.45036 0.05534 0.2868 0.0
C1245 C 0.43834 0.05996 0.29748 0.0
C1246 C 0.46599 0.04183 0.28779 0.0
C1247 C 0.46988 0.03266 0.29948 0.0
C1248 C 0.45867 0.038 0.31022 0.0
H1249 H 0.55933 0.9436 0.31819 0.0
H1250 H 0.53372 0.96935 0.31949 0.0
C1251 C 0.44288 0.0514 0.30923 0.0
C1252 C 0.48556 0.01738 0.3003 0.0
H1253 H 0.47892 0.95411 0.30795 0.0
C1254 C 0.51336 0.03076 0.29602 0.0
C1255 C 0.47295 0.98944 0.30472 0.0
C1256 C 0.44279 0.97364 0.30898 0.0
C1257 C 0.52886 0.01689 0.29596 0.0
C1258 C 0.51609 0.98885 0.30018 0.0
C1259 C 0.48854 0.97564 0.30473 0.0
C1260 C 0.53072 0.97259 0.29944 0.0
C1261 C 0.55878 0.03227 0.29139 0.0
C1262 C 0.53691 0.9655 0.28775 0.0
C1263 C 0.5514 0.9508 0.28697 0.0
C1264 C 0.55997 0.94295 0.2979 0.0
C1265 C 0.55321 0.94961 0.30962 0.0
C1266 C 0.53854 0.96419 0.31038 0.0
H1267 H 0.56743 0.05532 0.29117 0.0
H1268 H 0.57235 0.02759 0.29742 0.0
H1269 H 0.5596 0.02522 0.28174 0.0
H1270 H 0.53072 0.97157 0.27921 0.0
H1271 H 0.55656 0.94624 0.27782 0.0
H1272 H 0.37391 0.149 0.21341 0.0
H1273 H 0.37436 0.16034 0.19122 0.0
H1274 H 0.28567 0.1309 0.19277 0.0
H1275 H 0.28506 0.11961 0.21495 0.0
H1276 H 0.34511 0.12657 0.17113 0.0
H1277 H 0.31738 0.20952 0.17841 0.0
H1278 H 0.32834 0.19544 0.19104 0.0
H1279 H 0.29293 0.17644 0.1853 0.0
C1280 C 0.35446 0.14474 0.20899 0.0
C1281 C 0.32947 0.13359 0.21594 0.0
C1282 C 0.35478 0.15134 0.19635 0.0
C1283 C 0.33017 0.14696 0.19043 0.0
C1284 C 0.30505 0.13513 0.19725 0.0
H1285 H 0.28671 0.16926 0.11509 0.0
H1286 H 0.28671 0.15691 0.13712 0.0
C1287 C 0.30472 0.12864 0.2099 0.0
C1288 C 0.33072 0.15457 0.1771 0.0
H1289 H 0.31717 0.1952 0.15741 0.0
C1290 C 0.33915 0.14168 0.16812 0.0
C1291 C 0.32299 0.17435 0.17323 0.0
C1292 C 0.31515 0.18996 0.1825 0.0
C1293 C 0.3395 0.14763 0.15533 0.0
C1294 C 0.33149 0.16716 0.15147 0.0
C1295 C 0.32317 0.18013 0.16043 0.0
C1296 C 0.33164 0.17448 0.13815 0.0
C1297 C 0.34791 0.13259 0.14601 0.0
C1298 C 0.35695 0.1887 0.13153 0.0
C1299 C 0.35703 0.19578 0.11897 0.0
C1300 C 0.33176 0.18873 0.11282 0.0
C1301 C 0.30646 0.17464 0.11953 0.0
C1302 C 0.30643 0.16771 0.13211 0.0
H1303 H 0.34764 0.114 0.15021 0.0
H1304 H 0.33372 0.1257 0.13777 0.0
H1305 H 0.3695 0.14713 0.14266 0.0
H1306 H 0.37666 0.19443 0.1361 0.0
H1307 H 0.37682 0.20644 0.11403 0.0
H1308 H 0.08711 0.32392 0.4558 0.0
H1309 H 0.09544 0.32499 0.47838 0.0
H1310 H 0.18281 0.35371 0.47147 0.0
H1311 H 0.17488 0.35345 0.44898 0.0
H1312 H 0.1159 0.29489 0.49144 0.0
H1313 H 0.18551 0.40938 0.49764 0.0
H1314 H 0.16408 0.39441 0.48387 0.0
H1315 H 0.1968 0.39485 0.48545 0.0
C1316 C 0.10817 0.33085 0.45911 0.0
C1317 C 0.13034 0.33859 0.45061 0.0
C1318 C 0.11285 0.3313 0.47199 0.0
C1319 C 0.1398 0.33977 0.47658 0.0
C1320 C 0.16195 0.34757 0.46813 0.0
H1321 H 0.19354 0.30484 0.54647 0.0
H1322 H 0.17996 0.30654 0.52484 0.0
C1323 C 0.1573 0.34708 0.45527 0.0
C1324 C 0.14467 0.3393 0.49018 0.0
H1325 H 0.18438 0.38019 0.51444 0.0
C1326 C 0.13066 0.31357 0.49651 0.0
C1327 C 0.16368 0.36377 0.49679 0.0
C1328 C 0.17819 0.39223 0.49063 0.0
C1329 C 0.13591 0.31146 0.5092 0.0
C1330 C 0.15598 0.33568 0.51564 0.0
C1331 C 0.16924 0.3616 0.50943 0.0
C1332 C 0.16393 0.33448 0.52876 0.0
C1333 C 0.1199 0.28336 0.5156 0.0
C1334 C 0.16004 0.35018 0.53806 0.0
C1335 C 0.16806 0.34949 0.55041 0.0
C1336 C 0.1803 0.33324 0.55365 0.0
C1337 C 0.18435 0.31771 0.54427 0.0
C1338 C 0.1763 0.31839 0.53193 0.0
H1339 H 0.10024 0.26906 0.51052 0.0
H1340 H 0.13308 0.27336 0.51586 0.0
H1341 H 0.11457 0.28572 0.52538 0.0
H1342 H 0.15077 0.36293 0.53577 0.0
H1343 H 0.16505 0.36203 0.55737 0.0
H1344 H 0.7624 0.11996 0.78705 0.0
H1345 H 0.7731 0.13173 0.80922 0.0
H1346 H 0.86079 0.1834 0.80028 0.0
H1347 H 0.8503 0.17177 0.77813 0.0
H1348 H 0.8511 0.14757 0.82023 0.0
H1349 H 0.79378 0.20579 0.82645 0.0
H1350 H 0.77284 0.17117 0.82012 0.0
H1351 H 0.80179 0.19743 0.81123 0.0
C1352 C 0.78392 0.13406 0.7898 0.0
C1353 C 0.80551 0.14495 0.78084 0.0
C1354 C 0.78998 0.1408 0.80246 0.0
C1355 C 0.81768 0.15875 0.80636 0.0
C1356 C 0.83927 0.16954 0.79745 0.0
H1357 H 0.89932 0.22314 0.87822 0.0
H1358 H 0.88869 0.21317 0.85592 0.0
C1359 C 0.83325 0.16276 0.78481 0.0
C1360 C 0.82436 0.16569 0.81976 0.0
H1361 H 0.81129 0.19575 0.84488 0.0
C1362 C 0.84253 0.15824 0.82561 0.0
C1363 C 0.81312 0.1796 0.82674 0.0
C1364 C 0.7945 0.18922 0.82081 0.0
C1365 C 0.84937 0.16388 0.83833 0.0
C1366 C 0.83804 0.17766 0.84531 0.0
C1367 C 0.8199 0.18516 0.83947 0.0
C1368 C 0.84448 0.18419 0.85874 0.0
C1369 C 0.86818 0.1545 0.84427 0.0
C1370 C 0.82301 0.17171 0.86765 0.0
C1371 C 0.82896 0.1775 0.88036 0.0
C1372 C 0.85649 0.19603 0.8844 0.0
C1373 C 0.87789 0.20888 0.87541 0.0
C1374 C 0.87192 0.20301 0.86269 0.0
H1375 H 0.86991 0.13874 0.83843 0.0
H1376 H 0.88952 0.17289 0.84542 0.0
H1377 H 0.86031 0.14538 0.85367 0.0
H1378 H 0.80167 0.1573 0.86477 0.0
H1379 H 0.81194 0.16763 0.88704 0.0
H1380 H 0.62271 0.77461 0.11949 0.0
H1381 H 0.62284 0.78637 0.14159 0.0
H1382 H 0.70758 0.8551 0.13784 0.0
H1383 H 0.70745 0.84367 0.11571 0.0
H1384 H 0.65625 0.7879 0.16065 0.0
H1385 H 0.66902 0.89346 0.15372 0.0
H1386 H 0.66018 0.86872 0.14108 0.0
H1387 H 0.69591 0.8893 0.14629 0.0
C1388 C 0.64138 0.79219 0.1234 0.0
C1389 C 0.66502 0.80833 0.11587 0.0
C1390 C 0.6414 0.79894 0.136 0.0
C1391 C 0.66503 0.82193 0.1413 0.0
C1392 C 0.68884 0.83776 0.13386 0.0
H1393 H 0.70991 0.88794 0.21671 0.0
H1394 H 0.70972 0.87666 0.19449 0.0
C1395 C 0.68877 0.83116 0.12123 0.0
C1396 C 0.66497 0.82886 0.1547 0.0
H1397 H 0.67394 0.88131 0.17457 0.0
C1398 C 0.65996 0.80827 0.16369 0.0
C1399 C 0.66977 0.85545 0.15864 0.0
C1400 C 0.67375 0.87792 0.14943 0.0
C1401 C 0.66007 0.8137 0.17652 0.0
C1402 C 0.66518 0.84035 0.18044 0.0
C1403 C 0.67017 0.86095 0.17149 0.0
C1404 C 0.66519 0.84714 0.19381 0.0
C1405 C 0.65514 0.79111 0.18584 0.0
C1406 C 0.64015 0.83444 0.20067 0.0
C1407 C 0.64017 0.84087 0.21332 0.0
C1408 C 0.66528 0.86005 0.21932 0.0
C1409 C 0.69032 0.87285 0.21237 0.0
C1410 C 0.69023 0.86655 0.19969 0.0
H1411 H 0.65667 0.77364 0.18145 0.0
H1412 H 0.67052 0.79991 0.19362 0.0
H1413 H 0.63386 0.78242 0.18991 0.0
H1414 H 0.62059 0.81959 0.19623 0.0
H1415 H 0.62061 0.83052 0.21845 0.0
H1416 H 0.84496 0.70279 0.55191 0.0
H1417 H 0.85659 0.70279 0.52984 0.0
H1418 H 0.77514 0.63049 0.52338 0.0
H1419 H 0.76369 0.62967 0.54555 0.0
H1420 H 0.81802 0.62535 0.51285 0.0
H1421 H 0.8275 0.7274 0.50017 0.0
H1422 H 0.84906 0.72943 0.51319 0.0
H1423 H 0.81152 0.70939 0.51458 0.0
C1424 C 0.82956 0.68678 0.54582 0.0
C1425 C 0.80336 0.66626 0.55049 0.0
C1426 C 0.83613 0.68703 0.53317 0.0
C1427 C 0.81656 0.66693 0.52494 0.0
C1428 C 0.79045 0.64633 0.52957 0.0
H1429 H 0.82506 0.67157 0.44383 0.0
H1430 H 0.81262 0.67166 0.4658 0.0
C1431 C 0.78387 0.64603 0.54222 0.0
C1432 C 0.82361 0.66686 0.51157 0.0
H1433 H 0.84325 0.70669 0.48504 0.0
C1434 C 0.82343 0.64308 0.50675 0.0
C1435 C 0.83032 0.68988 0.50361 0.0
C1436 C 0.82938 0.71537 0.5081 0.0
C1437 C 0.83023 0.64186 0.4942 0.0
C1438 C 0.83793 0.66529 0.48635 0.0
C1439 C 0.83765 0.68889 0.49112 0.0
C1440 C 0.84585 0.66556 0.47308 0.0
C1441 C 0.82863 0.61532 0.48941 0.0
C1442 C 0.86893 0.66254 0.46991 0.0
C1443 C 0.87608 0.66247 0.45737 0.0
C1444 C 0.86046 0.66575 0.44778 0.0
C1445 C 0.83767 0.66929 0.45101 0.0
C1446 C 0.83047 0.66922 0.46354 0.0
H1447 H 0.81533 0.59708 0.49552 0.0
H1448 H 0.82007 0.61048 0.47975 0.0
H1449 H 0.85 0.61806 0.48926 0.0
H1450 H 0.8815 0.66037 0.47714 0.0
H1451 H 0.89401 0.66014 0.45517 0.0
H1452 H 0.10028 0.75696 0.87776 0.0
H1453 H 0.11094 0.76748 0.85548 0.0
H1454 H 0.17943 0.84947 0.86493 0.0
H1455 H 0.16873 0.83922 0.88716 0.0
H1456 H 0.14704 0.8516 0.84627 0.0
H1457 H 0.17543 0.77016 0.83596 0.0
H1458 H 0.14119 0.7566 0.84267 0.0
H1459 H 0.1717 0.77961 0.85172 0.0
C1460 C 0.11775 0.77712 0.87507 0.0
C1461 C 0.13367 0.79727 0.88419 0.0
C1462 C 0.12386 0.78308 0.86235 0.0
C1463 C 0.14623 0.80911 0.85856 0.0
C1464 C 0.16209 0.82925 0.86766 0.0
H1465 H 0.22751 0.85461 0.78633 0.0
H1466 H 0.2148 0.8427 0.80828 0.0
C1467 C 0.15589 0.8234 0.88034 0.0
C1468 C 0.15283 0.81579 0.84512 0.0
H1469 H 0.172 0.79511 0.81859 0.0
C1470 C 0.15252 0.83927 0.84021 0.0
C1471 C 0.1603 0.79986 0.83729 0.0
C1472 C 0.16247 0.77531 0.84218 0.0
C1473 C 0.15938 0.84723 0.82766 0.0
C1474 C 0.16613 0.83088 0.81974 0.0
C1475 C 0.16656 0.80746 0.82466 0.0
C1476 C 0.17361 0.83817 0.80641 0.0
C1477 C 0.16006 0.8735 0.8231 0.0
C1478 C 0.15457 0.83933 0.79805 0.0
C1479 C 0.16192 0.84653 0.78552 0.0
C1480 C 0.18838 0.85242 0.78108 0.0
C1481 C 0.2072 0.85076 0.78947 0.0
C1482 C 0.19987 0.8437 0.802 0.0
H1483 H 0.1618 0.88745 0.83098 0.0
H1484 H 0.1779 0.88544 0.81661 0.0
H1485 H 0.14034 0.86765 0.818 0.0
H1486 H 0.13398 0.83461 0.80121 0.0
H1487 H 0.14699 0.84778 0.77935 0.0
H1488 H 0.27269 0.89622 0.96228 0.0
H1489 H 0.30968 0.94289 0.9688 0.0
H1490 H 0.26532 0.9338 0.00337 0.0
H1491 H 0.22929 0.8869 0.99712 0.0
H1492 H 0.30178 0.98405 0.971 0.0
H1493 H 0.34235 0.97483 0.0166 0.0
H1494 H 0.32218 0.94465 0.00674 0.0
H1495 H 0.3049 0.95641 0.01749 0.0
C1496 C 0.27148 0.90393 0.97145 0.0
C1497 C 0.24826 0.88807 0.97922 0.0
C1498 C 0.29256 0.93055 0.97518 0.0
C1499 C 0.29056 0.94189 0.98665 0.0
C1500 C 0.268 0.92534 0.99467 0.0
H1501 H 0.30334 0.09433 0.00209 0.0
H1502 H 0.29634 0.04998 0.99409 0.0
C1503 C 0.24723 0.89855 0.99105 0.0
C1504 C 0.30889 0.97224 0.98933 0.0
H1505 H 0.34005 0.01816 0.01345 0.0
C1506 C 0.31085 0.99149 0.98019 0.0
C1507 C 0.32143 0.98235 0.00118 0.0
C1508 C 0.32286 0.96339 0.01097 0.0
C1509 C 0.32258 0.02004 0.98295 0.0
C1510 C 0.33175 0.02946 0.99528 0.0
C1511 C 0.33234 0.01081 0.00407 0.0
C1512 C 0.33733 0.05735 0.99959 0.0
C1513 C 0.32405 0.03962 0.97272 0.0
C1514 C 0.36246 0.07602 0.00567 0.0
C1515 C 0.36647 0.10152 0.01036 0.0
C1516 C 0.34538 0.10865 0.00905 0.0
C1517 C 0.32031 0.08986 0.00294 0.0
C1518 C 0.31629 0.06446 0.99834 0.0
H1519 H 0.32685 0.03233 0.96342 0.0
H1520 H 0.30406 0.03992 0.97246 0.0
H1521 H 0.34153 0.06133 0.97429 0.0
H1522 H 0.37884 0.07079 0.00685 0.0
H1523 H 0.38599 0.1156 0.01503 0.0
H1524 H 0.24351 0.32592 0.36785 0.0
H1525 H 0.27837 0.31654 0.35876 0.0
H1526 H 0.29325 0.37559 0.32916 0.0
H1527 H 0.25853 0.38573 0.33841 0.0
H1528 H 0.27944 0.32263 0.32084 0.0
H1529 H 0.36368 0.35852 0.35617 0.0
H1530 H 0.32967 0.3377 0.36305 0.0
H1531 H 0.33873 0.37074 0.35586 0.0
C1532 C 0.25482 0.33775 0.35967 0.0
C1533 C 0.24825 0.35672 0.35391 0.0
C1534 C 0.27483 0.33233 0.35447 0.0
C1535 C 0.28877 0.34573 0.34341 0.0
C1536 C 0.28291 0.36526 0.33778 0.0
H1537 H 0.36677 0.27097 0.29698 0.0
H1538 H 0.3579 0.30775 0.30469 0.0
C1539 C 0.26292 0.37084 0.34303 0.0
C1540 C 0.30636 0.33624 0.337 0.0
H1541 H 0.35825 0.32089 0.34248 0.0
C1542 C 0.2972 0.3229 0.32538 0.0
C1543 C 0.32946 0.33663 0.34298 0.0
C1544 C 0.34114 0.35194 0.35515 0.0
C1545 C 0.309 0.3079 0.32005 0.0
C1546 C 0.33096 0.30679 0.32643 0.0
C1547 C 0.34136 0.32171 0.33764 0.0
C1548 C 0.34073 0.28739 0.32242 0.0
C1549 C 0.29647 0.29169 0.30812 0.0
C1550 C 0.33531 0.26456 0.33009 0.0
C1551 C 0.34046 0.24367 0.32575 0.0
C1552 C 0.35113 0.24524 0.31365 0.0
C1553 C 0.35811 0.269 0.30627 0.0
C1554 C 0.35307 0.29 0.31065 0.0
H1555 H 0.27658 0.291 0.30557 0.0
H1556 H 0.31152 0.30181 0.30032 0.0
H1557 H 0.29228 0.26984 0.30904 0.0
H1558 H 0.32575 0.26216 0.3392 0.0
H1559 H 0.33462 0.22554 0.33163 0.0
H1560 H 0.89693 0.2839 0.6966 0.0
H1561 H 0.94352 0.32047 0.68977 0.0
H1562 H 0.94125 0.26672 0.65987 0.0
H1563 H 0.8948 0.23062 0.66647 0.0
H1564 H 0.98742 0.31479 0.69088 0.0
H1565 H 0.97803 0.33975 0.64195 0.0
H1566 H 0.94779 0.32159 0.652 0.0
H1567 H 0.9613 0.30247 0.64357 0.0
C1568 C 0.90614 0.28028 0.68836 0.0
C1569 C 0.89226 0.25442 0.68207 0.0
C1570 C 0.93269 0.30119 0.68446 0.0
C1571 C 0.94582 0.29656 0.6742 0.0
C1572 C 0.93131 0.27125 0.66755 0.0
H1573 H 0.10151 0.31434 0.66423 0.0
H1574 H 0.05679 0.30779 0.67142 0.0
C1575 C 0.90472 0.2505 0.67137 0.0
C1576 C 0.97602 0.31575 0.67164 0.0
H1577 H 0.02275 0.34237 0.64754 0.0
C1578 C 0.99513 0.32153 0.68145 0.0
C1579 C 0.98632 0.32522 0.65942 0.0
C1580 C 0.96719 0.32218 0.6487 0.0
C1581 C 0.02396 0.33402 0.67916 0.0
C1582 C 0.03383 0.34022 0.6667 0.0
C1583 C 0.01511 0.33704 0.65707 0.0
C1584 C 0.06238 0.34626 0.66329 0.0
C1585 C 0.04343 0.33939 0.69006 0.0
C1586 C 0.08031 0.3699 0.65613 0.0
C1587 C 0.10608 0.37371 0.65195 0.0
C1588 C 0.1142 0.35383 0.65481 0.0
C1589 C 0.0963 0.33044 0.66213 0.0
C1590 C 0.07066 0.32666 0.66627 0.0
H1591 H 0.03519 0.34388 0.69871 0.0
H1592 H 0.045 0.32037 0.69183 0.0
H1593 H 0.06476 0.35725 0.68818 0.0
H1594 H 0.07418 0.38513 0.65362 0.0
H1595 H 0.11946 0.39197 0.64634 0.0
H1596 H 0.61453 0.88829 0.02351 0.0
H1597 H 0.62212 0.93384 0.01624 0.0
H1598 H 0.69764 0.94885 0.99741 0.0
H1599 H 0.69038 0.90383 0.00463 0.0
H1600 H 0.66657 0.98525 0.02168 0.0
H1601 H 0.65989 0.97004 0.97055 0.0
H1602 H 0.64682 0.94102 0.98138 0.0
H1603 H 0.6834 0.95989 0.97716 0.0
C1604 C 0.6326 0.90123 0.01772 0.0
C1605 C 0.65172 0.89233 0.01456 0.0
C1606 C 0.63682 0.92715 0.01353 0.0
C1607 C 0.66012 0.94446 0.00606 0.0
C1608 C 0.67903 0.93546 0.00282 0.0
H1609 H 0.77639 0.11204 -4e-05 0.0
H1610 H 0.7415 0.06574 0.00729 0.0
C1611 C 0.67484 0.90966 0.00697 0.0
C1612 C 0.66647 0.97302 0.0025 0.0
H1613 H 0.68956 0.01807 0.97777 0.0
C1614 C 0.67093 0.99234 0.01204 0.0
C1615 C 0.67146 0.98218 0.98993 0.0
C1616 C 0.66481 0.96207 0.97917 0.0
C1617 C 0.68272 0.02103 0.00942 0.0
C1618 C 0.69077 0.03057 0.997 0.0
C1619 C 0.68385 0.0109 0.98734 0.0
C1620 C 0.70956 0.06061 0.99399 0.0
C1621 C 0.68724 0.04086 0.02006 0.0
C1622 C 0.70332 0.07331 0.98407 0.0
C1623 C 0.72346 0.09983 0.97977 0.0
C1624 C 0.7502 0.11406 0.98531 0.0
C1625 C 0.75583 0.10191 0.99565 0.0
C1626 C 0.7358 0.07539 -0.00011 0.0
H1627 H 0.67076 0.03044 0.02732 0.0
H1628 H 0.70774 0.04725 0.02455 0.0
H1629 H 0.6872 0.05995 0.01676 0.0
H1630 H 0.68328 0.06221 0.97933 0.0
H1631 H 0.7185 0.10877 0.97182 0.0
H1632 H 0.61286 0.72494 0.30972 0.0
H1633 H 0.62156 0.68741 0.3165 0.0
H1634 H 0.69024 0.74651 0.33945 0.0
H1635 H 0.68191 0.78385 0.33273 0.0
H1636 H 0.66896 0.68586 0.31205 0.0
H1637 H 0.65185 0.68078 0.36299 0.0
H1638 H 0.63888 0.69757 0.35258 0.0
H1639 H 0.67444 0.7164 0.35828 0.0
C1640 C 0.62956 0.7298 0.31635 0.0
C1641 C 0.64662 0.75739 0.32073 0.0
C1642 C 0.63439 0.70832 0.32026 0.0
C1643 C 0.6562 0.71404 0.32866 0.0
C1644 C 0.67272 0.74138 0.33328 0.0
H1645 H 0.78234 0.67701 0.33481 0.0
H1646 H 0.74584 0.68649 0.32794 0.0
C1647 C 0.66793 0.76278 0.3294 0.0
C1648 C 0.6642 0.69267 0.33156 0.0
H1649 H 0.68654 0.66851 0.35577 0.0
C1650 C 0.6721 0.68141 0.32162 0.0
C1651 C 0.66769 0.68625 0.34401 0.0
C1652 C 0.65744 0.69566 0.35505 0.0
C1653 C 0.68588 0.66622 0.32383 0.0
C1654 C 0.6924 0.66276 0.33627 0.0
C1655 C 0.68203 0.6716 0.34621 0.0
C1656 C 0.71303 0.65376 0.33914 0.0
C1657 C 0.69428 0.655 0.31279 0.0
C1658 C 0.70685 0.63226 0.34779 0.0
C1659 C 0.72785 0.62681 0.35179 0.0
C1660 C 0.75543 0.64291 0.34726 0.0
C1661 C 0.76124 0.66378 0.33829 0.0
C1662 C 0.74032 0.66921 0.33432 0.0
H1663 H 0.67916 0.64957 0.30496 0.0
H1664 H 0.71512 0.6714 0.30936 0.0
H1665 H 0.69555 0.63612 0.31534 0.0
H1666 H 0.68598 0.62025 0.3517 0.0
H1667 H 0.72267 0.61046 0.35865 0.0
H1668 H 0.11549 0.76601 0.66143 0.0
H1669 H 0.06735 0.73083 0.65585 0.0
H1670 H 0.05196 0.70065 0.69386 0.0
H1671 H 0.09987 0.7359 0.69958 0.0
H1672 H 0.02802 0.66352 0.66278 0.0
H1673 H 0.00427 0.74253 0.68328 0.0
H1674 H 0.03845 0.75257 0.67702 0.0
H1675 H 0.02746 0.73388 0.69154 0.0
C1676 C 0.10206 0.75142 0.66852 0.0
C1677 C 0.11135 0.75391 0.68097 0.0
C1678 C 0.07469 0.73123 0.6653 0.0
C1679 C 0.05627 0.71329 0.67447 0.0
C1680 C 0.06606 0.71424 0.68666 0.0
H1681 H 0.87666 0.64577 0.67118 0.0
H1682 H 0.92233 0.65499 0.67892 0.0
C1683 C 0.09345 0.73436 0.68989 0.0
C1684 C 0.02594 0.69733 0.67182 0.0
H1685 H 0.96727 0.70292 0.67404 0.0
C1686 C 0.01454 0.67185 0.66532 0.0
C1687 C 0.00861 0.70835 0.67523 0.0
C1688 C 0.02013 0.73587 0.68212 0.0
C1689 C 0.98601 0.65716 0.66199 0.0
C1690 C 0.96885 0.66874 0.66501 0.0
C1691 C 0.98032 0.69392 0.67179 0.0
C1692 C 0.93957 0.65664 0.66052 0.0
C1693 C 0.97457 0.62945 0.65532 0.0
C1694 C 0.93373 0.65352 0.64764 0.0
C1695 C 0.90753 0.6479 0.64323 0.0
C1696 C 0.88697 0.64585 0.65162 0.0
C1697 C 0.89225 0.64738 0.66453 0.0
C1698 C 0.91828 0.6526 0.66895 0.0
H1699 H 0.98682 0.61904 0.65768 0.0
H1700 H 0.95223 0.61507 0.65771 0.0
H1701 H 0.9762 0.63312 0.64507 0.0
H1702 H 0.94997 0.65729 0.64093 0.0
H1703 H 0.90408 0.64717 0.63322 0.0
H1704 H 0.0364 0.24014 0.96623 0.0
H1705 H 0.07616 0.23815 0.97534 0.0
H1706 H 0.01954 0.16863 0.99853 0.0
H1707 H 0.97969 0.17081 0.98965 0.0
H1708 H 0.06588 0.21292 0.01147 0.0
H1709 H 0.09914 0.17799 0.96934 0.0
H1710 H 0.09485 0.20794 0.96697 0.0
H1711 H 0.06489 0.1746 0.97073 0.0
C1712 C 0.03242 0.22443 0.97327 0.0
C1713 C 0.00491 0.2056 0.97721 0.0
C1714 C 0.05512 0.22316 0.97837 0.0
C1715 C 0.05071 0.20304 0.98749 0.0
C1716 C 0.02331 0.18418 0.99144 0.0
H1717 H 0.17503 0.1639 0.01641 0.0
H1718 H 0.13284 0.16133 0.00753 0.0
C1719 C 0.00059 0.18534 0.9863 0.0
C1720 C 0.0748 0.20241 0.99329 0.0
H1721 H 0.13007 0.19279 0.98678 0.0
C1722 C 0.07985 0.20838 0.0061 0.0
C1723 C 0.09277 0.19622 0.98626 0.0
C1724 C 0.0876 0.18857 0.97258 0.0
C1725 C 0.10286 0.20895 0.01204 0.0
C1726 C 0.12136 0.20366 0.00492 0.0
C1727 C 0.11593 0.19704 0.99217 0.0
C1728 C 0.14666 0.20518 0.01052 0.0
C1729 C 0.10713 0.21506 0.02588 0.0
C1730 C 0.16844 0.23075 0.01504 0.0
C1731 C 0.19265 0.23236 0.02003 0.0
C1732 C 0.19556 0.20841 0.02056 0.0
C1733 C 0.17361 0.1828 0.01602 0.0
C1734 C 0.14944 0.18125 0.011 0.0
H1735 H 0.08771 0.21195 0.0305 0.0
H1736 H 0.11397 0.20145 0.03053 0.0
H1737 H 0.12374 0.2372 0.02728 0.0
H1738 H 0.1669 0.24957 0.01453 0.0
H1739 H 0.20934 0.25252 0.02321 0.0
H1740 H 0.7869 0.04062 0.31064 0.0
H1741 H 0.82936 0.07998 0.31938 0.0
H1742 H 0.86347 0.02574 0.32604 0.0
H1743 H 0.82137 0.98628 0.31701 0.0
H1744 H 0.8653 0.0607 0.34713 0.0
H1745 H 0.90932 0.12051 0.30308 0.0
H1746 H 0.87303 0.10919 0.30599 0.0
H1747 H 0.88352 0.08359 0.30323 0.0
C1748 C 0.8036 0.03709 0.31375 0.0
C1749 C 0.80074 0.01026 0.31306 0.0
C1750 C 0.82779 0.05961 0.31879 0.0
C1751 C 0.84957 0.05575 0.32323 0.0
C1752 C 0.84684 0.02908 0.32263 0.0
H1753 H 0.01657 0.18679 0.34516 0.0
H1754 H 0.97676 0.1446 0.33631 0.0
C1755 C 0.82271 0.00655 0.31753 0.0
C1756 C 0.87489 0.07948 0.32882 0.0
H1757 H 0.93114 0.14357 0.32204 0.0
C1758 C 0.8798 0.07877 0.34166 0.0
C1759 C 0.8938 0.10285 0.32159 0.0
C1760 C 0.8899 0.10415 0.30768 0.0
C1761 C 0.90289 0.10124 0.34755 0.0
C1762 C 0.92134 0.12496 0.34039 0.0
C1763 C 0.9168 0.12537 0.32749 0.0
C1764 C 0.94533 0.14978 0.34614 0.0
C1765 C 0.90746 0.09945 0.36136 0.0
C1766 C 0.94073 0.1666 0.35456 0.0
C1767 C 0.96337 0.19069 0.35961 0.0
C1768 C 0.99102 0.19832 0.35634 0.0
C1769 C 0.99553 0.18125 0.34798 0.0
C1770 C 0.97285 0.15727 0.34287 0.0
H1771 H 0.89511 0.07762 0.36491 0.0
H1772 H 0.93 0.1075 0.36338 0.0
H1773 H 0.90086 0.11261 0.36657 0.0
H1774 H 0.91959 0.1613 0.35708 0.0
H1775 H 0.95926 0.20333 0.36609 0.0
H1776 H 0.74912 0.79703 0.63367 0.0
H1777 H 0.7506 0.83868 0.64256 0.0
H1778 H 0.82215 0.85453 0.66494 0.0
H1779 H 0.82036 0.81242 0.65647 0.0
H1780 H 0.7512 0.84941 0.67131 0.0
H1781 H 0.84205 0.92943 0.64382 0.0
H1782 H 0.81993 0.89406 0.6382 0.0
H1783 H 0.84446 0.90073 0.65058 0.0
C1784 C 0.76504 0.80918 0.64057 0.0
C1785 C 0.78462 0.80131 0.64435 0.0
C1786 C 0.76594 0.83306 0.64556 0.0
C1787 C 0.78659 0.84965 0.65431 0.0
C1788 C 0.80625 0.84207 0.65808 0.0
H1789 H 0.82998 0.00654 0.69139 0.0
H1790 H 0.82946 0.96502 0.68284 0.0
C1791 C 0.80527 0.81808 0.65317 0.0
C1792 C 0.78715 0.87455 0.65975 0.0
H1793 H 0.82281 0.94603 0.65898 0.0
C1794 C 0.76678 0.87057 0.66863 0.0
C1795 C 0.8077 0.90198 0.65627 0.0
C1796 C 0.82979 0.90706 0.64665 0.0
C1797 C 0.76655 0.89348 0.67425 0.0
C1798 C 0.78679 0.92102 0.6706 0.0
C1799 C 0.80728 0.92492 0.66174 0.0
C1800 C 0.78699 0.94608 0.67579 0.0
C1801 C 0.74504 0.88792 0.68426 0.0
C1802 C 0.76346 0.9494 0.6745 0.0
C1803 C 0.76365 0.97297 0.67944 0.0
C1804 C 0.78755 0.99388 0.68559 0.0
C1805 C 0.81131 0.99081 0.68665 0.0
C1806 C 0.81102 0.9671 0.6818 0.0
H1807 H 0.73697 0.86689 0.68855 0.0
H1808 H 0.75392 0.90397 0.69177 0.0
H1809 H 0.727 0.88858 0.68001 0.0
H1810 H 0.74499 0.93386 0.66959 0.0
H1811 H 0.74523 0.97504 0.67828 0.0
H1812 H 0.77844 0.7371 0.02161 0.0
H1813 H 0.82021 0.73924 0.01252 0.0
H1814 H 0.86302 0.82954 0.01371 0.0
H1815 H 0.82122 0.82766 0.02265 0.0
H1816 H 0.84709 0.76638 0.98977 0.0
H1817 H 0.91827 0.80972 0.03079 0.0
H1818 H 0.88068 0.79388 0.0321 0.0
H1819 H 0.90125 0.82886 0.0261 0.0
C1820 C 0.7967 0.75743 0.01991 0.0
C1821 C 0.79649 0.78222 0.02286 0.0
C1822 C 0.82057 0.7586 0.01477 0.0
C1823 C 0.84475 0.78453 0.01258 0.0
C1824 C 0.84473 0.80932 0.01556 0.0
H1825 H 0.00779 0.82984 0.981 0.0
H1826 H 0.96726 0.83058 0.99 0.0
C1827 C 0.82083 0.80819 0.02068 0.0
C1828 C 0.86961 0.78556 0.00675 0.0
H1829 H 0.93819 0.8053 0.01192 0.0
C1830 C 0.86701 0.77484 0.99461 0.0
C1831 C 0.89555 0.79675 0.01308 0.0
C1832 C 0.8992 0.80778 0.02628 0.0
C1833 C 0.88978 0.77518 0.98857 0.0
C1834 C 0.91565 0.78602 0.99496 0.0
C1835 C 0.91833 0.79701 0.00706 0.0
C1836 C 0.94001 0.78558 0.98935 0.0
C1837 C 0.88606 0.76433 0.97533 0.0
C1838 C 0.93817 0.76001 0.98615 0.0
C1839 C 0.96124 0.75952 0.98103 0.0
C1840 C 0.98669 0.78459 0.97912 0.0
C1841 C 0.98854 0.81017 0.98244 0.0
C1842 C 0.9654 0.81064 0.98754 0.0
H1843 H 0.86803 0.76427 0.97063 0.0
H1844 H 0.90523 0.77715 0.96968 0.0
H1845 H 0.88193 0.74244 0.9755 0.0
H1846 H 0.91899 0.74039 0.98776 0.0
H1847 H 0.95931 0.73944 0.97881 0.0
H1848 H 0.02282 0.81627 0.36992 0.0
H1849 H 0.06255 0.85822 0.36098 0.0
H1850 H 0.03571 0.82484 0.32385 0.0
H1851 H 0.99618 0.7826 0.33269 0.0
H1852 H 0.10516 0.85908 0.34534 0.0
H1853 H 0.04763 0.90525 0.32179 0.0
H1854 H 0.03203 0.87903 0.33392 0.0
H1855 H 0.03535 0.86901 0.3183 0.0
C1856 C 0.02538 0.8178 0.35985 0.0
C1857 C 0.0063 0.79605 0.35202 0.0
C1858 C 0.048 0.84184 0.35476 0.0
C1859 C 0.05184 0.84473 0.34176 0.0
C1860 C 0.03277 0.82324 0.3339 0.0
H1861 H 0.18001 0.97054 0.2936 0.0
H1862 H 0.13823 0.92987 0.30217 0.0
C1863 C 0.01017 0.79913 0.33897 0.0
C1864 C 0.07657 0.86965 0.33647 0.0
H1865 H 0.09637 0.92679 0.31778 0.0
C1866 C 0.10329 0.87398 0.33936 0.0
C1867 C 0.07396 0.88886 0.32862 0.0
C1868 C 0.04573 0.88555 0.32552 0.0
C1869 C 0.12756 0.89688 0.33445 0.0
C1870 C 0.12501 0.91629 0.32668 0.0
C1871 C 0.09825 0.91189 0.32375 0.0
C1872 C 0.1499 0.94134 0.32152 0.0
C1873 C 0.15567 0.89971 0.33739 0.0
C1874 C 0.16999 0.96153 0.32957 0.0
C1875 C 0.19384 0.98473 0.32471 0.0
C1876 C 0.19791 0.98833 0.3117 0.0
C1877 C 0.17737 0.96845 0.30366 0.0
C1878 C 0.15356 0.94516 0.30854 0.0
H1879 H 0.15354 0.87947 0.34048 0.0
H1880 H 0.16977 0.90735 0.32913 0.0
H1881 H 0.16573 0.91507 0.34509 0.0
H1882 H 0.16721 0.95934 0.33962 0.0
H1883 H 0.20902 -4e-05 0.33114 0.0
H1884 H 0.25596 0.03005 0.67913 0.0
H1885 H 0.25302 0.0693 0.67018 0.0
H1886 H 0.16606 0.03023 0.68095 0.0
H1887 H 0.16909 0.99139 0.6904 0.0
H1888 H 0.21882 0.0688 0.65115 0.0
H1889 H 0.19828 0.10899 0.69521 0.0
H1890 H 0.21042 0.08403 0.69508 0.0
H1891 H 0.17413 0.07262 0.69216 0.0
C1892 C 0.23632 0.02999 0.67979 0.0
C1893 C 0.21282 0.00766 0.68559 0.0
C1894 C 0.23462 0.05233 0.67457 0.0
C1895 C 0.20944 0.05287 0.67506 0.0
C1896 C 0.18584 0.03049 0.68068 0.0
H1897 H 0.16542 0.17519 0.6477 0.0
H1898 H 0.16361 0.1326 0.65572 0.0
C1899 C 0.18753 0.00815 0.68595 0.0
C1900 C 0.20789 0.07666 0.66946 0.0
H1901 H 0.19581 0.13024 0.67636 0.0
C1902 C 0.21381 0.08225 0.65666 0.0
C1903 C 0.20129 0.09413 0.67667 0.0
C1904 C 0.19591 0.08987 0.69056 0.0
C1905 C 0.21323 0.10482 0.65086 0.0
C1906 C 0.20688 0.12239 0.6581 0.0
C1907 C 0.20058 0.11661 0.67085 0.0
C1908 C 0.2077 0.14755 0.65273 0.0
C1909 C 0.21922 0.10957 0.63703 0.0
C1910 C 0.2331 0.17 0.64845 0.0
C1911 C 0.2342 0.19427 0.64387 0.0
C1912 C 0.2099 0.19656 0.64352 0.0
C1913 C 0.18441 0.17391 0.64772 0.0
C1914 C 0.18337 0.14967 0.65236 0.0
H1915 H 0.21672 0.09051 0.63228 0.0
H1916 H 0.20513 0.11593 0.63248 0.0
H1917 H 0.24116 0.12668 0.63565 0.0
H1918 H 0.25219 0.1689 0.64882 0.0
H1919 H 0.25409 0.21127 0.6406 0.0
loop_
_geom_bond_atom_site_label_1
_geom_bond_atom_site_label_2
_geom_bond_distance
_geom_bond_site_symmetry_2
_ccdc_geom_bond_type
Li0 N17 1.990 . S
Li0 O60 1.956 . S
Li0 O61 1.970 . S
Li0 O62 1.961 . S
Li1 N25 1.990 . S
Li1 O60 1.970 . S
Li1 O61 1.956 . S
Li1 O63 1.961 . S
Li2 N47 1.990 . S
Li2 O60 1.961 . S
Li2 O62 1.956 . S
Li2 O63 1.970 . S
Li3 N53 1.990 . S
Li3 O61 1.961 . S
Li3 O62 1.970 . S
Li3 O63 1.956 . S
C4 C6 1.348 . S
C4 C7 1.356 . S
C4 O60 1.325 . S
N5 C8 1.314 . S
N5 C9 1.279 . S
C6 C4 1.348 . S
C6 C8 1.353 . S
C6 H64 0.929 . S
C7 C4 1.356 . S
C7 C9 1.358 . S
C7 H65 0.930 . S
C8 N5 1.314 . S
C8 C6 1.353 . S
C8 H66 0.930 . S
C9 N5 1.279 . S
C9 C7 1.358 . S
C9 H67 0.930 . S
C10 C13 1.348 . S
C10 C14 1.356 . S
C10 O61 1.325 . S
C11 N12 1.279 . S
C11 C14 1.358 . S
C11 H68 0.930 . S
N12 C11 1.279 . S
N12 C15 1.314 . S
C13 C10 1.348 . S
C13 C15 1.353 . S
C13 H69 0.929 . S
C14 C10 1.356 . S
C14 C11 1.358 . S
C14 H70 0.930 . S
C15 N12 1.314 . S
C15 C13 1.353 . S
C15 H71 0.930 . S
C16 N17 1.314 . S
C16 C21 1.353 . S
C16 H22 0.930 . S
N17 Li0 1.990 . S
N17 C16 1.314 . S
N17 C19 1.279 . S
C18 C19 1.358 . S
C18 C20 1.356 . S
C18 H72 0.930 . S
C19 N17 1.279 . S
C19 C18 1.358 . S
C19 H23 0.930 . S
C20 C18 1.356 . S
C20 C21 1.348 . S
C21 C16 1.353 . S
C21 C20 1.348 . S
C21 H73 0.929 . S
H22 C16 0.930 . S
H23 C19 0.930 . S
C24 N25 1.314 . S
C24 C26 1.353 . S
C24 H30 0.930 . S
N25 Li1 1.990 . S
N25 C24 1.314 . S
N25 C28 1.279 . S
C26 C24 1.353 . S
C26 C29 1.348 . S
C26 H74 0.929 . S
C27 C28 1.358 . S
C27 C29 1.356 . S
C27 H75 0.930 . S
C28 N25 1.279 . S
C28 C27 1.358 . S
C28 H31 0.930 . S
C29 C26 1.348 . S
C29 C27 1.356 . S
H30 C24 0.930 . S
H31 C28 0.930 . S
C32 C34 1.348 . S
C32 C35 1.356 . S
C32 O62 1.325 . S
N33 C36 1.314 . S
N33 C37 1.279 . S
C34 C32 1.348 . S
C34 C36 1.353 1_554 S
C34 H76 0.929 . S
C35 C32 1.356 . S
C35 C37 1.358 1_554 S
C35 H77 0.930 . S
C36 N33 1.314 . S
C36 C34 1.353 1_556 S
C36 H78 0.930 . S
C37 N33 1.279 . S
C37 C35 1.358 1_556 S
C37 H79 0.930 . S
C38 C39 1.348 . S
C38 C40 1.356 . S
C38 O63 1.325 . S
C39 C38 1.348 . S
C39 C41 1.353 . S
C39 H80 0.929 . S
C40 C38 1.356 . S
C40 C42 1.358 . S
C40 H81 0.930 . S
C41 C39 1.353 . S
C41 N43 1.314 . S
C41 H82 0.930 . S
C42 C40 1.358 . S
C42 N43 1.279 . S
C42 H83 0.930 . S
N43 C41 1.314 . S
N43 C42 1.279 . S
C44 C46 1.353 . S
C44 N47 1.314 . S
C44 H50 0.930 . S
C45 N47 1.279 . S
C45 C48 1.358 . S
C45 H51 0.930 . S
C46 C44 1.353 . S
C46 C49 1.348 . S
C46 H84 0.929 . S
N47 Li2 1.990 . S
N47 C44 1.314 . S
N47 C45 1.279 . S
C48 C45 1.358 . S
C48 C49 1.356 . S
C48 H85 0.930 1_554 S
C49 C46 1.348 . S
C49 C48 1.356 . S
H50 C44 0.930 . S
H51 C45 0.930 . S
C52 N53 1.314 . S
C52 C54 1.353 . S
C52 H58 0.930 . S
N53 Li3 1.990 . S
N53 C52 1.314 . S
N53 C56 1.279 . S
C54 C52 1.353 . S
C54 C57 1.348 . S
C54 H86 0.929 . S
C55 C56 1.358 . S
C55 C57 1.356 . S
C55 H87 0.930 . S
C56 N53 1.279 . S
C56 C55 1.358 . S
C56 H59 0.930 . S
C57 C54 1.348 . S
C57 C55 1.356 . S
H58 C52 0.930 . S
H59 C56 0.930 . S
O60 Li0 1.956 . S
O60 Li1 1.970 . S
O60 Li2 1.961 . S
O60 C4 1.325 . S
O61 Li0 1.970 . S
O61 Li1 1.956 . S
O61 Li3 1.961 . S
O61 C10 1.325 . S
O62 Li0 1.961 . S
O62 Li2 1.956 . S
O62 Li3 1.970 . S
O62 C32 1.325 . S
O63 Li1 1.961 . S
O63 Li2 1.970 . S
O63 Li3 1.956 . S
O63 C38 1.325 . S
H64 C6 0.929 . S
H65 C7 0.930 . S
H66 C8 0.930 . S
H67 C9 0.930 . S
H68 C11 0.930 . S
H69 C13 0.929 . S
H70 C14 0.930 . S
H71 C15 0.930 . S
H72 C18 0.930 . S
H73 C21 0.929 . S
H74 C26 0.929 . S
H75 C27 0.930 . S
H76 C34 0.929 . S
H77 C35 0.930 . S
H78 C36 0.930 . S
H79 C37 0.930 . S
H80 C39 0.929 . S
H81 C40 0.930 . S
H82 C41 0.930 . S
H83 C42 0.930 . S
H84 C46 0.929 . S
H85 C48 0.930 1_556 S
H86 C54 0.929 . S
H87 C55 0.930 . S
Li88 N105 1.990 . S
Li88 O148 1.956 . S
Li88 O149 1.970 . S
Li88 O150 1.961 . S
Li89 N113 1.990 . S
Li89 O148 1.970 . S
Li89 O149 1.956 . S
Li89 O151 1.961 . S
Li90 N135 1.990 . S
Li90 O148 1.961 . S
Li90 O150 1.956 . S
Li90 O151 1.970 . S
Li91 N141 1.990 . S
Li91 O149 1.961 . S
Li91 O150 1.970 . S
Li91 O151 1.956 . S
C92 C94 1.348 . S
C92 C95 1.356 . S
C92 O148 1.325 . S
N93 C96 1.314 . S
N93 C97 1.279 . S
C94 C92 1.348 . S
C94 C96 1.353 . S
C94 H152 0.929 . S
C95 C92 1.356 . S
C95 C97 1.358 . S
C95 H153 0.930 . S
C96 N93 1.314 . S
C96 C94 1.353 . S
C96 H154 0.930 . S
C97 N93 1.279 . S
C97 C95 1.358 . S
C97 H155 0.930 . S
C98 C101 1.348 . S
C98 C102 1.356 . S
C98 O149 1.325 . S
C99 N100 1.279 . S
C99 C102 1.358 . S
C99 H156 0.930 . S
N100 C99 1.279 . S
N100 C103 1.314 . S
C101 C98 1.348 . S
C101 C103 1.353 . S
C101 H157 0.929 . S
C102 C98 1.356 . S
C102 C99 1.358 . S
C102 H158 0.930 . S
C103 N100 1.314 . S
C103 C101 1.353 . S
C103 H159 0.930 . S
C104 N105 1.314 . S
C104 C109 1.353 . S
C104 H110 0.930 . S
N105 Li88 1.990 . S
N105 C104 1.314 . S
N105 C107 1.279 . S
C106 C107 1.358 . S
C106 C108 1.356 . S
C106 H160 0.930 . S
C107 N105 1.279 . S
C107 C106 1.358 . S
C107 H111 0.930 . S
C108 C106 1.356 . S
C108 C109 1.348 . S
C109 C104 1.353 . S
C109 C108 1.348 . S
C109 H161 0.929 . S
H110 C104 0.930 . S
H111 C107 0.930 . S
C112 N113 1.314 . S
C112 C114 1.353 . S
C112 H118 0.930 . S
N113 Li89 1.990 . S
N113 C112 1.314 . S
N113 C116 1.279 . S
C114 C112 1.353 . S
C114 C117 1.348 . S
C114 H162 0.929 . S
C115 C116 1.358 . S
C115 C117 1.356 . S
C115 H163 0.930 . S
C116 N113 1.279 . S
C116 C115 1.358 . S
C116 H119 0.930 . S
C117 C114 1.348 . S
C117 C115 1.356 . S
H118 C112 0.930 . S
H119 C116 0.930 . S
C120 C122 1.348 . S
C120 C123 1.356 . S
C120 O150 1.325 . S
N121 C124 1.314 . S
N121 C125 1.279 . S
C122 C120 1.348 . S
C122 C124 1.353 . S
C122 H164 0.929 . S
C123 C120 1.356 . S
C123 C125 1.358 . S
C123 H165 0.930 . S
C124 N121 1.314 . S
C124 C122 1.353 . S
C124 H166 0.930 . S
C125 N121 1.279 . S
C125 C123 1.358 . S
C125 H167 0.930 . S
C126 C127 1.348 . S
C126 C128 1.356 . S
C126 O151 1.325 . S
C127 C126 1.348 . S
C127 C129 1.353 . S
C127 H168 0.929 . S
C128 C126 1.356 . S
C128 C130 1.358 . S
C128 H169 0.930 . S
C129 C127 1.353 . S
C129 N131 1.314 . S
C129 H170 0.930 . S
C130 C128 1.358 . S
C130 N131 1.279 . S
C130 H171 0.930 . S
N131 C129 1.314 . S
N131 C130 1.279 . S
C132 C134 1.353 . S
C132 N135 1.314 . S
C132 H138 0.930 . S
C133 N135 1.279 . S
C133 C136 1.358 . S
C133 H139 0.930 . S
C134 C132 1.353 . S
C134 C137 1.348 . S
C134 H172 0.929 . S
N135 Li90 1.990 . S
N135 C132 1.314 . S
N135 C133 1.279 . S
C136 C133 1.358 . S
C136 C137 1.356 . S
C136 H173 0.930 . S
C137 C134 1.348 . S
C137 C136 1.356 . S
H138 C132 0.930 . S
H139 C133 0.930 . S
C140 N141 1.314 . S
C140 C142 1.353 1_455 S
C140 H146 0.930 . S
N141 Li91 1.990 . S
N141 C140 1.314 . S
N141 C144 1.279 . S
C142 C140 1.353 1_655 S
C142 C145 1.348 . S
C142 H174 0.929 . S
C143 C144 1.358 . S
C143 C145 1.356 1_455 S
C143 H175 0.930 . S
C144 N141 1.279 . S
C144 C143 1.358 . S
C144 H147 0.930 . S
C145 C142 1.348 . S
C145 C143 1.356 1_655 S
H146 C140 0.930 . S
H147 C144 0.930 . S
O148 Li88 1.956 . S
O148 Li89 1.970 . S
O148 Li90 1.961 . S
O148 C92 1.325 . S
O149 Li88 1.970 . S
O149 Li89 1.956 . S
O149 Li91 1.961 . S
O149 C98 1.325 . S
O150 Li88 1.961 . S
O150 Li90 1.956 . S
O150 Li91 1.970 . S
O150 C120 1.325 . S
O151 Li89 1.961 . S
O151 Li90 1.970 . S
O151 Li91 1.956 . S
O151 C126 1.325 . S
H152 C94 0.929 . S
H153 C95 0.930 . S
H154 C96 0.930 . S
H155 C97 0.930 . S
H156 C99 0.930 . S
H157 C101 0.929 . S
H158 C102 0.930 . S
H159 C103 0.930 . S
H160 C106 0.930 . S
H161 C109 0.929 . S
H162 C114 0.929 . S
H163 C115 0.930 . S
H164 C122 0.929 . S
H165 C123 0.930 . S
H166 C124 0.930 . S
H167 C125 0.930 . S
H168 C127 0.929 . S
H169 C128 0.930 . S
H170 C129 0.930 . S
H171 C130 0.930 . S
H172 C134 0.929 . S
H173 C136 0.930 . S
H174 C142 0.929 . S
H175 C143 0.930 . S
Li176 N193 1.990 . S
Li176 O236 1.956 . S
Li176 O237 1.970 . S
Li176 O238 1.961 . S
Li177 N201 1.990 . S
Li177 O236 1.970 . S
Li177 O237 1.956 . S
Li177 O239 1.961 . S
Li178 N223 1.990 . S
Li178 O236 1.961 . S
Li178 O238 1.956 . S
Li178 O239 1.970 . S
Li179 N229 1.990 . S
Li179 O237 1.961 . S
Li179 O238 1.970 . S
Li179 O239 1.956 . S
C180 C182 1.348 . S
C180 C183 1.356 . S
C180 O236 1.325 . S
N181 C184 1.314 . S
N181 C185 1.279 . S
C182 C180 1.348 . S
C182 C184 1.353 . S
C182 H240 0.929 . S
C183 C180 1.356 . S
C183 C185 1.358 . S
C183 H241 0.930 . S
C184 N181 1.314 . S
C184 C182 1.353 . S
C184 H242 0.930 . S
C185 N181 1.279 . S
C185 C183 1.358 . S
C185 H243 0.930 . S
C186 C189 1.348 . S
C186 C190 1.356 . S
C186 O237 1.325 . S
C187 N188 1.279 . S
C187 C190 1.358 . S
C187 H244 0.930 . S
N188 C187 1.279 . S
N188 C191 1.314 . S
C189 C186 1.348 . S
C189 C191 1.353 . S
C189 H245 0.929 . S
C190 C186 1.356 . S
C190 C187 1.358 . S
C190 H246 0.930 . S
C191 N188 1.314 . S
C191 C189 1.353 . S
C191 H247 0.930 . S
C192 N193 1.314 . S
C192 C197 1.353 . S
C192 H198 0.930 . S
N193 Li176 1.990 . S
N193 C192 1.314 . S
N193 C195 1.279 . S
C194 C195 1.358 . S
C194 C196 1.356 . S
C194 H248 0.930 . S
C195 N193 1.279 . S
C195 C194 1.358 . S
C195 H199 0.930 . S
C196 C194 1.356 . S
C196 C197 1.348 . S
C197 C192 1.353 . S
C197 C196 1.348 . S
C197 H249 0.929 . S
H198 C192 0.930 . S
H199 C195 0.930 . S
C200 N201 1.314 . S
C200 C202 1.353 . S
C200 H206 0.930 . S
N201 Li177 1.990 . S
N201 C200 1.314 . S
N201 C204 1.279 . S
C202 C200 1.353 . S
C202 C205 1.348 . S
C202 H250 0.929 . S
C203 C204 1.358 . S
C203 C205 1.356 . S
C203 H251 0.930 . S
C204 N201 1.279 . S
C204 C203 1.358 . S
C204 H207 0.930 . S
C205 C202 1.348 . S
C205 C203 1.356 . S
H206 C200 0.930 . S
H207 C204 0.930 . S
C208 C210 1.348 . S
C208 C211 1.356 . S
C208 O238 1.325 . S
N209 C212 1.314 . S
N209 C213 1.279 . S
C210 C208 1.348 . S
C210 C212 1.353 . S
C210 H252 0.929 . S
C211 C208 1.356 . S
C211 C213 1.358 . S
C211 H253 0.930 . S
C212 N209 1.314 . S
C212 C210 1.353 . S
C212 H254 0.930 . S
C213 N209 1.279 . S
C213 C211 1.358 . S
C213 H255 0.930 . S
C214 C215 1.348 . S
C214 C216 1.356 . S
C214 O239 1.325 . S
C215 C214 1.348 . S
C215 C217 1.353 . S
C215 H256 0.929 . S
C216 C214 1.356 . S
C216 C218 1.358 . S
C216 H257 0.930 . S
C217 C215 1.353 . S
C217 N219 1.314 . S
C217 H258 0.930 . S
C218 C216 1.358 . S
C218 N219 1.279 . S
C218 H259 0.930 . S
N219 C217 1.314 . S
N219 C218 1.279 . S
C220 C222 1.353 1_545 S
C220 N223 1.314 . S
C220 H226 0.930 . S
C221 N223 1.279 . S
C221 C224 1.358 . S
C221 H227 0.930 . S
C222 C220 1.353 1_565 S
C222 C225 1.348 . S
C222 H260 0.929 . S
N223 Li178 1.990 . S
N223 C220 1.314 . S
N223 C221 1.279 . S
C224 C221 1.358 . S
C224 C225 1.356 1_545 S
C224 H261 0.930 . S
C225 C222 1.348 . S
C225 C224 1.356 1_565 S
H226 C220 0.930 . S
H227 C221 0.930 . S
C228 N229 1.314 . S
C228 C230 1.353 . S
C228 H234 0.930 . S
N229 Li179 1.990 . S
N229 C228 1.314 . S
N229 C232 1.279 . S
C230 C228 1.353 . S
C230 C233 1.348 . S
C230 H262 0.929 . S
C231 C232 1.358 . S
C231 C233 1.356 . S
C231 H263 0.930 . S
C232 N229 1.279 . S
C232 C231 1.358 . S
C232 H235 0.930 . S
C233 C230 1.348 . S
C233 C231 1.356 . S
H234 C228 0.930 . S
H235 C232 0.930 . S
O236 Li176 1.956 . S
O236 Li177 1.970 . S
O236 Li178 1.961 . S
O236 C180 1.325 . S
O237 Li176 1.970 . S
O237 Li177 1.956 . S
O237 Li179 1.961 . S
O237 C186 1.325 . S
O238 Li176 1.961 . S
O238 Li178 1.956 . S
O238 Li179 1.970 . S
O238 C208 1.325 . S
O239 Li177 1.961 . S
O239 Li178 1.970 . S
O239 Li179 1.956 . S
O239 C214 1.325 . S
H240 C182 0.929 . S
H241 C183 0.930 . S
H242 C184 0.930 . S
H243 C185 0.930 . S
H244 C187 0.930 . S
H245 C189 0.929 . S
H246 C190 0.930 . S
H247 C191 0.930 . S
H248 C194 0.930 . S
H249 C197 0.929 . S
H250 C202 0.929 . S
H251 C203 0.930 . S
H252 C210 0.929 . S
H253 C211 0.930 . S
H254 C212 0.930 . S
H255 C213 0.930 . S
H256 C215 0.929 . S
H257 C216 0.930 . S
H258 C217 0.930 . S
H259 C218 0.930 . S
H260 C222 0.929 . S
H261 C224 0.930 . S
H262 C230 0.929 . S
H263 C231 0.930 . S
Li264 N281 1.990 . S
Li264 O324 1.956 . S
Li264 O325 1.970 . S
Li264 O326 1.961 . S
Li265 N289 1.990 . S
Li265 O324 1.970 . S
Li265 O325 1.956 . S
Li265 O327 1.961 . S
Li266 N311 1.990 . S
Li266 O324 1.961 . S
Li266 O326 1.956 . S
Li266 O327 1.970 . S
Li267 N317 1.990 . S
Li267 O325 1.961 . S
Li267 O326 1.970 . S
Li267 O327 1.956 . S
C268 C270 1.348 . S
C268 C271 1.356 . S
C268 O324 1.325 . S
N269 C272 1.314 . S
N269 C273 1.279 . S
C270 C268 1.348 . S
C270 C272 1.353 . S
C270 H328 0.929 . S
C271 C268 1.356 . S
C271 C273 1.358 . S
C271 H329 0.930 . S
C272 N269 1.314 . S
C272 C270 1.353 . S
C272 H330 0.930 . S
C273 N269 1.279 . S
C273 C271 1.358 . S
C273 H331 0.930 . S
C274 C277 1.348 . S
C274 C278 1.356 . S
C274 O325 1.325 . S
C275 N276 1.279 . S
C275 C278 1.358 . S
C275 H332 0.930 . S
N276 C275 1.279 . S
N276 C279 1.314 . S
C277 C274 1.348 . S
C277 C279 1.353 . S
C277 H333 0.929 . S
C278 C274 1.356 . S
C278 C275 1.358 . S
C278 H334 0.930 . S
C279 N276 1.314 . S
C279 C277 1.353 . S
C279 H335 0.930 . S
C280 N281 1.314 . S
C280 C285 1.353 . S
C280 H286 0.930 . S
N281 Li264 1.990 . S
N281 C280 1.314 . S
N281 C283 1.279 . S
C282 C283 1.358 . S
C282 C284 1.356 . S
C282 H336 0.930 . S
C283 N281 1.279 . S
C283 C282 1.358 . S
C283 H287 0.930 . S
C284 C282 1.356 . S
C284 C285 1.348 . S
C285 C280 1.353 . S
C285 C284 1.348 . S
C285 H337 0.929 . S
H286 C280 0.930 . S
H287 C283 0.930 . S
C288 N289 1.314 . S
C288 C290 1.353 . S
C288 H294 0.930 . S
N289 Li265 1.990 . S
N289 C288 1.314 . S
N289 C292 1.279 . S
C290 C288 1.353 . S
C290 C293 1.348 . S
C290 H338 0.929 . S
C291 C292 1.358 . S
C291 C293 1.356 . S
C291 H339 0.930 . S
C292 N289 1.279 . S
C292 C291 1.358 . S
C292 H295 0.930 . S
C293 C290 1.348 . S
C293 C291 1.356 . S
H294 C288 0.930 . S
H295 C292 0.930 . S
C296 C298 1.348 . S
C296 C299 1.356 . S
C296 O326 1.325 . S
N297 C300 1.314 . S
N297 C301 1.279 . S
C298 C296 1.348 . S
C298 C300 1.353 . S
C298 H340 0.929 . S
C299 C296 1.356 . S
C299 C301 1.358 . S
C299 H341 0.930 . S
C300 N297 1.314 . S
C300 C298 1.353 . S
C300 H342 0.930 . S
C301 N297 1.279 . S
C301 C299 1.358 . S
C301 H343 0.930 . S
C302 C303 1.348 . S
C302 C304 1.356 . S
C302 O327 1.325 . S
C303 C302 1.348 . S
C303 C305 1.353 1_554 S
C303 H344 0.929 . S
C304 C302 1.356 . S
C304 C306 1.358 1_554 S
C304 H345 0.930 . S
C305 C303 1.353 1_556 S
C305 N307 1.314 . S
C305 H346 0.930 . S
C306 C304 1.358 1_556 S
C306 N307 1.279 . S
C306 H347 0.930 . S
N307 C305 1.314 . S
N307 C306 1.279 . S
C308 C310 1.353 . S
C308 N311 1.314 . S
C308 H314 0.930 . S
C309 N311 1.279 . S
C309 C312 1.358 . S
C309 H315 0.930 . S
C310 C308 1.353 . S
C310 C313 1.348 . S
C310 H348 0.929 . S
N311 Li266 1.990 . S
N311 C308 1.314 . S
N311 C309 1.279 . S
C312 C309 1.358 . S
C312 C313 1.356 . S
C312 H349 0.930 . S
C313 C310 1.348 . S
C313 C312 1.356 . S
H314 C308 0.930 . S
H315 C309 0.930 . S
C316 N317 1.314 . S
C316 C318 1.353 . S
C316 H322 0.930 . S
N317 Li267 1.990 . S
N317 C316 1.314 . S
N317 C320 1.279 . S
C318 C316 1.353 . S
C318 C321 1.348 . S
C318 H350 0.929 . S
C319 C320 1.358 . S
C319 C321 1.356 . S
C319 H351 0.930 1_554 S
C320 N317 1.279 . S
C320 C319 1.358 . S
C320 H323 0.930 . S
C321 C318 1.348 . S
C321 C319 1.356 . S
H322 C316 0.930 . S
H323 C320 0.930 . S
O324 Li264 1.956 . S
O324 Li265 1.970 . S
O324 Li266 1.961 . S
O324 C268 1.325 . S
O325 Li264 1.970 . S
O325 Li265 1.956 . S
O325 Li267 1.961 . S
O325 C274 1.325 . S
O326 Li264 1.961 . S
O326 Li266 1.956 . S
O326 Li267 1.970 . S
O326 C296 1.325 . S
O327 Li265 1.961 . S
O327 Li266 1.970 . S
O327 Li267 1.956 . S
O327 C302 1.325 . S
H328 C270 0.929 . S
H329 C271 0.930 . S
H330 C272 0.930 . S
H331 C273 0.930 . S
H332 C275 0.930 . S
H333 C277 0.929 . S
H334 C278 0.930 . S
H335 C279 0.930 . S
H336 C282 0.930 . S
H337 C285 0.929 . S
H338 C290 0.929 . S
H339 C291 0.930 . S
H340 C298 0.929 . S
H341 C299 0.930 . S
H342 C300 0.930 . S
H343 C301 0.930 . S
H344 C303 0.929 . S
H345 C304 0.930 . S
H346 C305 0.930 . S
H347 C306 0.930 . S
H348 C310 0.929 . S
H349 C312 0.930 . S
H350 C318 0.929 . S
H351 C319 0.930 1_556 S
Li352 N369 1.990 . S
Li352 O412 1.956 . S
Li352 O413 1.970 . S
Li352 O414 1.961 . S
Li353 N377 1.990 . S
Li353 O412 1.970 . S
Li353 O413 1.956 . S
Li353 O415 1.961 . S
Li354 N399 1.990 . S
Li354 O412 1.961 . S
Li354 O414 1.956 . S
Li354 O415 1.970 . S
Li355 N405 1.990 . S
Li355 O413 1.961 . S
Li355 O414 1.970 . S
Li355 O415 1.956 . S
C356 C358 1.348 . S
C356 C359 1.356 . S
C356 O412 1.325 . S
N357 C360 1.314 . S
N357 C361 1.279 . S
C358 C356 1.348 . S
C358 C360 1.353 . S
C358 H416 0.929 . S
C359 C356 1.356 . S
C359 C361 1.358 . S
C359 H417 0.930 . S
C360 N357 1.314 . S
C360 C358 1.353 . S
C360 H418 0.930 . S
C361 N357 1.279 . S
C361 C359 1.358 . S
C361 H419 0.930 . S
C362 C365 1.348 . S
C362 C366 1.356 . S
C362 O413 1.325 . S
C363 N364 1.279 . S
C363 C366 1.358 . S
C363 H420 0.930 . S
N364 C363 1.279 . S
N364 C367 1.314 . S
C365 C362 1.348 . S
C365 C367 1.353 . S
C365 H421 0.929 . S
C366 C362 1.356 . S
C366 C363 1.358 . S
C366 H422 0.930 . S
C367 N364 1.314 . S
C367 C365 1.353 . S
C367 H423 0.930 . S
C368 N369 1.314 . S
C368 C373 1.353 . S
C368 H374 0.930 . S
N369 Li352 1.990 . S
N369 C368 1.314 . S
N369 C371 1.279 . S
C370 C371 1.358 . S
C370 C372 1.356 . S
C370 H424 0.930 . S
C371 N369 1.279 . S
C371 C370 1.358 . S
C371 H375 0.930 . S
C372 C370 1.356 . S
C372 C373 1.348 . S
C373 C368 1.353 . S
C373 C372 1.348 . S
C373 H425 0.929 . S
H374 C368 0.930 . S
H375 C371 0.930 . S
C376 N377 1.314 . S
C376 C378 1.353 . S
C376 H382 0.930 . S
N377 Li353 1.990 . S
N377 C376 1.314 . S
N377 C380 1.279 . S
C378 C376 1.353 . S
C378 C381 1.348 . S
C378 H426 0.929 . S
C379 C380 1.358 . S
C379 C381 1.356 . S
C379 H427 0.930 . S
C380 N377 1.279 . S
C380 C379 1.358 . S
C380 H383 0.930 . S
C381 C378 1.348 . S
C381 C379 1.356 . S
H382 C376 0.930 . S
H383 C380 0.930 . S
C384 C386 1.348 . S
C384 C387 1.356 . S
C384 O414 1.325 . S
N385 C388 1.314 . S
N385 C389 1.279 . S
C386 C384 1.348 . S
C386 C388 1.353 . S
C386 H428 0.929 . S
C387 C384 1.356 . S
C387 C389 1.358 . S
C387 H429 0.930 . S
C388 N385 1.314 . S
C388 C386 1.353 . S
C388 H430 0.930 . S
C389 N385 1.279 . S
C389 C387 1.358 . S
C389 H431 0.930 . S
C390 C391 1.348 . S
C390 C392 1.356 . S
C390 O415 1.325 . S
C391 C390 1.348 . S
C391 C393 1.353 . S
C391 H432 0.929 . S
C392 C390 1.356 . S
C392 C394 1.358 . S
C392 H433 0.930 . S
C393 C391 1.353 . S
C393 N395 1.314 . S
C393 H434 0.930 . S
C394 C392 1.358 . S
C394 N395 1.279 . S
C394 H435 0.930 . S
N395 C393 1.314 . S
N395 C394 1.279 . S
C396 C398 1.353 . S
C396 N399 1.314 . S
C396 H402 0.930 . S
C397 N399 1.279 . S
C397 C400 1.358 . S
C397 H403 0.930 . S
C398 C396 1.353 . S
C398 C401 1.348 . S
C398 H436 0.929 . S
N399 Li354 1.990 . S
N399 C396 1.314 . S
N399 C397 1.279 . S
C400 C397 1.358 . S
C400 C401 1.356 . S
C400 H437 0.930 . S
C401 C398 1.348 . S
C401 C400 1.356 . S
H402 C396 0.930 . S
H403 C397 0.930 . S
C404 N405 1.314 . S
C404 C406 1.353 1_655 S
C404 H410 0.930 . S
N405 Li355 1.990 . S
N405 C404 1.314 . S
N405 C408 1.279 . S
C406 C404 1.353 1_455 S
C406 C409 1.348 . S
C406 H438 0.929 . S
C407 C408 1.358 . S
C407 C409 1.356 1_655 S
C407 H439 0.930 . S
C408 N405 1.279 . S
C408 C407 1.358 . S
C408 H411 0.930 . S
C409 C406 1.348 . S
C409 C407 1.356 1_455 S
H410 C404 0.930 . S
H411 C408 0.930 . S
O412 Li352 1.956 . S
O412 Li353 1.970 . S
O412 Li354 1.961 . S
O412 C356 1.325 . S
O413 Li352 1.970 . S
O413 Li353 1.956 . S
O413 Li355 1.961 . S
O413 C362 1.325 . S
O414 Li352 1.961 . S
O414 Li354 1.956 . S
O414 Li355 1.970 . S
O414 C384 1.325 . S
O415 Li353 1.961 . S
O415 Li354 1.970 . S
O415 Li355 1.956 . S
O415 C390 1.325 . S
H416 C358 0.929 . S
H417 C359 0.930 . S
H418 C360 0.930 . S
H419 C361 0.930 . S
H420 C363 0.930 . S
H421 C365 0.929 . S
H422 C366 0.930 . S
H423 C367 0.930 . S
H424 C370 0.930 . S
H425 C373 0.929 . S
H426 C378 0.929 . S
H427 C379 0.930 . S
H428 C386 0.929 . S
H429 C387 0.930 . S
H430 C388 0.930 . S
H431 C389 0.930 . S
H432 C391 0.929 . S
H433 C392 0.930 . S
H434 C393 0.930 . S
H435 C394 0.930 . S
H436 C398 0.929 . S
H437 C400 0.930 . S
H438 C406 0.929 . S
H439 C407 0.930 . S
Li440 N457 1.990 . S
Li440 O500 1.956 . S
Li440 O501 1.970 . S
Li440 O502 1.961 . S
Li441 N465 1.990 . S
Li441 O500 1.970 . S
Li441 O501 1.956 . S
Li441 O503 1.961 . S
Li442 N487 1.990 . S
Li442 O500 1.961 . S
Li442 O502 1.956 . S
Li442 O503 1.970 . S
Li443 N493 1.990 . S
Li443 O501 1.961 . S
Li443 O502 1.970 . S
Li443 O503 1.956 . S
C444 C446 1.348 . S
C444 C447 1.356 . S
C444 O500 1.325 . S
N445 C448 1.314 . S
N445 C449 1.279 . S
C446 C444 1.348 . S
C446 C448 1.353 . S
C446 H504 0.929 . S
C447 C444 1.356 . S
C447 C449 1.358 . S
C447 H505 0.930 . S
C448 N445 1.314 . S
C448 C446 1.353 . S
C448 H506 0.930 . S
C449 N445 1.279 . S
C449 C447 1.358 . S
C449 H507 0.930 . S
C450 C453 1.348 . S
C450 C454 1.356 . S
C450 O501 1.325 . S
C451 N452 1.279 . S
C451 C454 1.358 . S
C451 H508 0.930 . S
N452 C451 1.279 . S
N452 C455 1.314 . S
C453 C450 1.348 . S
C453 C455 1.353 . S
C453 H509 0.929 . S
C454 C450 1.356 . S
C454 C451 1.358 . S
C454 H510 0.930 . S
C455 N452 1.314 . S
C455 C453 1.353 . S
C455 H511 0.930 . S
C456 N457 1.314 . S
C456 C461 1.353 . S
C456 H462 0.930 . S
N457 Li440 1.990 . S
N457 C456 1.314 . S
N457 C459 1.279 . S
C458 C459 1.358 . S
C458 C460 1.356 . S
C458 H512 0.930 . S
C459 N457 1.279 . S
C459 C458 1.358 . S
C459 H463 0.930 . S
C460 C458 1.356 . S
C460 C461 1.348 . S
C461 C456 1.353 . S
C461 C460 1.348 . S
C461 H513 0.929 . S
H462 C456 0.930 . S
H463 C459 0.930 . S
C464 N465 1.314 . S
C464 C466 1.353 . S
C464 H470 0.930 . S
N465 Li441 1.990 . S
N465 C464 1.314 . S
N465 C468 1.279 . S
C466 C464 1.353 . S
C466 C469 1.348 . S
C466 H514 0.929 . S
C467 C468 1.358 . S
C467 C469 1.356 . S
C467 H515 0.930 . S
C468 N465 1.279 . S
C468 C467 1.358 . S
C468 H471 0.930 . S
C469 C466 1.348 . S
C469 C467 1.356 . S
H470 C464 0.930 . S
H471 C468 0.930 . S
C472 C474 1.348 . S
C472 C475 1.356 . S
C472 O502 1.325 . S
N473 C476 1.314 . S
N473 C477 1.279 . S
C474 C472 1.348 . S
C474 C476 1.353 . S
C474 H516 0.929 . S
C475 C472 1.356 . S
C475 C477 1.358 . S
C475 H517 0.930 . S
C476 N473 1.314 . S
C476 C474 1.353 . S
C476 H518 0.930 . S
C477 N473 1.279 . S
C477 C475 1.358 . S
C477 H519 0.930 . S
C478 C479 1.348 . S
C478 C480 1.356 . S
C478 O503 1.325 . S
C479 C478 1.348 . S
C479 C481 1.353 . S
C479 H520 0.929 . S
C480 C478 1.356 . S
C480 C482 1.358 . S
C480 H521 0.930 . S
C481 C479 1.353 . S
C481 N483 1.314 . S
C481 H522 0.930 . S
C482 C480 1.358 . S
C482 N483 1.279 . S
C482 H523 0.930 . S
N483 C481 1.314 . S
N483 C482 1.279 . S
C484 C486 1.353 . S
C484 N487 1.314 . S
C484 H490 0.930 . S
C485 N487 1.279 . S
C485 C488 1.358 . S
C485 H491 0.930 . S
C486 C484 1.353 . S
C486 C489 1.348 . S
C486 H524 0.929 . S
N487 Li442 1.990 . S
N487 C484 1.314 . S
N487 C485 1.279 . S
C488 C485 1.358 . S
C488 C489 1.356 . S
C488 H525 0.930 . S
C489 C486 1.348 . S
C489 C488 1.356 . S
H490 C484 0.930 . S
H491 C485 0.930 . S
C492 N493 1.314 . S
C492 C494 1.353 1_565 S
C492 H498 0.930 . S
N493 Li443 1.990 . S
N493 C492 1.314 . S
N493 C496 1.279 . S
C494 C492 1.353 1_545 S
C494 C497 1.348 . S
C494 H526 0.929 . S
C495 C496 1.358 . S
C495 C497 1.356 1_565 S
C495 H527 0.930 . S
C496 N493 1.279 . S
C496 C495 1.358 . S
C496 H499 0.930 . S
C497 C494 1.348 . S
C497 C495 1.356 1_545 S
H498 C492 0.930 . S
H499 C496 0.930 . S
O500 Li440 1.956 . S
O500 Li441 1.970 . S
O500 Li442 1.961 . S
O500 C444 1.325 . S
O501 Li440 1.970 . S
O501 Li441 1.956 . S
O501 Li443 1.961 . S
O501 C450 1.325 . S
O502 Li440 1.961 . S
O502 Li442 1.956 . S
O502 Li443 1.970 . S
O502 C472 1.325 . S
O503 Li441 1.961 . S
O503 Li442 1.970 . S
O503 Li443 1.956 . S
O503 C478 1.325 . S
H504 C446 0.929 . S
H505 C447 0.930 . S
H506 C448 0.930 . S
H507 C449 0.930 . S
H508 C451 0.930 . S
H509 C453 0.929 . S
H510 C454 0.930 . S
H511 C455 0.930 . S
H512 C458 0.930 . S
H513 C461 0.929 . S
H514 C466 0.929 . S
H515 C467 0.930 . S
H516 C474 0.929 . S
H517 C475 0.930 . S
H518 C476 0.930 . S
H519 C477 0.930 . S
H520 C479 0.929 . S
H521 C480 0.930 . S
H522 C481 0.930 . S
H523 C482 0.930 . S
H524 C486 0.929 . S
H525 C488 0.930 . S
H526 C494 0.929 . S
H527 C495 0.930 . S
Li528 N545 1.990 . S
Li528 O588 1.956 . S
Li528 O589 1.970 . S
Li528 O590 1.961 . S
Li529 N553 1.990 . S
Li529 O588 1.970 . S
Li529 O589 1.956 . S
Li529 O591 1.961 . S
Li530 N575 1.990 . S
Li530 O588 1.961 . S
Li530 O590 1.956 . S
Li530 O591 1.970 . S
Li531 N581 1.990 . S
Li531 O589 1.961 . S
Li531 O590 1.970 . S
Li531 O591 1.956 . S
C532 C534 1.348 . S
C532 C535 1.356 . S
C532 O588 1.325 . S
N533 C536 1.314 . S
N533 C537 1.279 . S
C534 C532 1.348 . S
C534 C536 1.353 . S
C534 H592 0.929 . S
C535 C532 1.356 . S
C535 C537 1.358 . S
C535 H593 0.930 . S
C536 N533 1.314 . S
C536 C534 1.353 . S
C536 H594 0.930 . S
C537 N533 1.279 . S
C537 C535 1.358 . S
C537 H595 0.930 . S
C538 C541 1.348 . S
C538 C542 1.356 . S
C538 O589 1.325 . S
C539 N540 1.279 . S
C539 C542 1.358 . S
C539 H596 0.930 . S
N540 C539 1.279 . S
N540 C543 1.314 . S
C541 C538 1.348 . S
C541 C543 1.353 . S
C541 H597 0.929 . S
C542 C538 1.356 . S
C542 C539 1.358 . S
C542 H598 0.930 . S
C543 N540 1.314 . S
C543 C541 1.353 . S
C543 H599 0.930 . S
C544 N545 1.314 . S
C544 C549 1.353 . S
C544 H550 0.930 . S
N545 Li528 1.990 . S
N545 C544 1.314 . S
N545 C547 1.279 . S
C546 C547 1.358 . S
C546 C548 1.356 . S
C546 H600 0.930 . S
C547 N545 1.279 . S
C547 C546 1.358 . S
C547 H551 0.930 . S
C548 C546 1.356 . S
C548 C549 1.348 . S
C549 C544 1.353 . S
C549 C548 1.348 . S
C549 H601 0.929 . S
H550 C544 0.930 . S
H551 C547 0.930 . S
C552 N553 1.314 . S
C552 C554 1.353 . S
C552 H558 0.930 . S
N553 Li529 1.990 . S
N553 C552 1.314 . S
N553 C556 1.279 . S
C554 C552 1.353 . S
C554 C557 1.348 . S
C554 H602 0.929 . S
C555 C556 1.358 . S
C555 C557 1.356 . S
C555 H603 0.930 . S
C556 N553 1.279 . S
C556 C555 1.358 . S
C556 H559 0.930 . S
C557 C554 1.348 . S
C557 C555 1.356 . S
H558 C552 0.930 . S
H559 C556 0.930 . S
C560 C562 1.348 . S
C560 C563 1.356 . S
C560 O590 1.325 . S
N561 C564 1.314 . S
N561 C565 1.279 . S
C562 C560 1.348 . S
C562 C564 1.353 . S
C562 H604 0.929 . S
C563 C560 1.356 . S
C563 C565 1.358 . S
C563 H605 0.930 . S
C564 N561 1.314 . S
C564 C562 1.353 . S
C564 H606 0.930 . S
C565 N561 1.279 . S
C565 C563 1.358 . S
C565 H607 0.930 . S
C566 C567 1.348 . S
C566 C568 1.356 . S
C566 O591 1.325 . S
C567 C566 1.348 . S
C567 C569 1.353 . S
C567 H608 0.929 . S
C568 C566 1.356 . S
C568 C570 1.358 . S
C568 H609 0.930 . S
C569 C567 1.353 . S
C569 N571 1.314 . S
C569 H610 0.930 . S
C570 C568 1.358 . S
C570 N571 1.279 . S
C570 H611 0.930 . S
N571 C569 1.314 . S
N571 C570 1.279 . S
C572 C574 1.353 . S
C572 N575 1.314 . S
C572 H578 0.930 . S
C573 N575 1.279 . S
C573 C576 1.358 . S
C573 H579 0.930 . S
C574 C572 1.353 . S
C574 C577 1.348 . S
C574 H612 0.929 . S
N575 Li530 1.990 . S
N575 C572 1.314 . S
N575 C573 1.279 . S
C576 C573 1.358 . S
C576 C577 1.356 . S
C576 H613 0.930 . S
C577 C574 1.348 . S
C577 C576 1.356 . S
H578 C572 0.930 . S
H579 C573 0.930 . S
C580 N581 1.314 . S
C580 C582 1.353 . S
C580 H586 0.930 . S
N581 Li531 1.990 . S
N581 C580 1.314 . S
N581 C584 1.279 . S
C582 C580 1.353 . S
C582 C585 1.348 . S
C582 H614 0.929 . S
C583 C584 1.358 . S
C583 C585 1.356 . S
C583 H615 0.930 . S
C584 N581 1.279 . S
C584 C583 1.358 . S
C584 H587 0.930 . S
C585 C582 1.348 . S
C585 C583 1.356 . S
H586 C580 0.930 . S
H587 C584 0.930 . S
O588 Li528 1.956 . S
O588 Li529 1.970 . S
O588 Li530 1.961 . S
O588 C532 1.325 . S
O589 Li528 1.970 . S
O589 Li529 1.956 . S
O589 Li531 1.961 . S
O589 C538 1.325 . S
O590 Li528 1.961 . S
O590 Li530 1.956 . S
O590 Li531 1.970 . S
O590 C560 1.325 . S
O591 Li529 1.961 . S
O591 Li530 1.970 . S
O591 Li531 1.956 . S
O591 C566 1.325 . S
H592 C534 0.929 . S
H593 C535 0.930 . S
H594 C536 0.930 . S
H595 C537 0.930 . S
H596 C539 0.930 . S
H597 C541 0.929 . S
H598 C542 0.930 . S
H599 C543 0.930 . S
H600 C546 0.930 . S
H601 C549 0.929 . S
H602 C554 0.929 . S
H603 C555 0.930 . S
H604 C562 0.929 . S
H605 C563 0.930 . S
H606 C564 0.930 . S
H607 C565 0.930 . S
H608 C567 0.929 . S
H609 C568 0.930 . S
H610 C569 0.930 . S
H611 C570 0.930 . S
H612 C574 0.929 . S
H613 C576 0.930 . S
H614 C582 0.929 . S
H615 C583 0.930 . S
Li616 N633 1.990 . S
Li616 O676 1.956 . S
Li616 O677 1.970 . S
Li616 O678 1.961 . S
Li617 N641 1.990 . S
Li617 O676 1.970 . S
Li617 O677 1.956 . S
Li617 O679 1.961 . S
Li618 N663 1.990 . S
Li618 O676 1.961 . S
Li618 O678 1.956 . S
Li618 O679 1.970 . S
Li619 N669 1.990 . S
Li619 O677 1.961 . S
Li619 O678 1.970 . S
Li619 O679 1.956 . S
C620 C622 1.348 . S
C620 C623 1.356 . S
C620 O676 1.325 . S
N621 C624 1.314 . S
N621 C625 1.279 . S
C622 C620 1.348 . S
C622 C624 1.353 1_556 S
C622 H680 0.929 . S
C623 C620 1.356 . S
C623 C625 1.358 1_556 S
C623 H681 0.930 . S
C624 N621 1.314 . S
C624 C622 1.353 1_554 S
C624 H682 0.930 . S
C625 N621 1.279 . S
C625 C623 1.358 1_554 S
C625 H683 0.930 . S
C626 C629 1.348 . S
C626 C630 1.356 . S
C626 O677 1.325 . S
C627 N628 1.279 . S
C627 C630 1.358 . S
C627 H684 0.930 . S
N628 C627 1.279 . S
N628 C631 1.314 . S
C629 C626 1.348 . S
C629 C631 1.353 . S
C629 H685 0.929 . S
C630 C626 1.356 . S
C630 C627 1.358 . S
C630 H686 0.930 . S
C631 N628 1.314 . S
C631 C629 1.353 . S
C631 H687 0.930 . S
C632 N633 1.314 . S
C632 C637 1.353 . S
C632 H638 0.930 . S
N633 Li616 1.990 . S
N633 C632 1.314 . S
N633 C635 1.279 . S
C634 C635 1.358 . S
C634 C636 1.356 . S
C634 H688 0.930 1_556 S
C635 N633 1.279 . S
C635 C634 1.358 . S
C635 H639 0.930 . S
C636 C634 1.356 . S
C636 C637 1.348 . S
C637 C632 1.353 . S
C637 C636 1.348 . S
C637 H689 0.929 . S
H638 C632 0.930 . S
H639 C635 0.930 . S
C640 N641 1.314 . S
C640 C642 1.353 1_455 S
C640 H646 0.930 . S
N641 Li617 1.990 . S
N641 C640 1.314 . S
N641 C644 1.279 . S
C642 C640 1.353 1_655 S
C642 C645 1.348 . S
C642 H690 0.929 . S
C643 C644 1.358 . S
C643 C645 1.356 1_455 S
C643 H691 0.930 . S
C644 N641 1.279 . S
C644 C643 1.358 . S
C644 H647 0.930 . S
C645 C642 1.348 . S
C645 C643 1.356 1_655 S
H646 C640 0.930 . S
H647 C644 0.930 . S
C648 C650 1.348 . S
C648 C651 1.356 . S
C648 O678 1.325 . S
N649 C652 1.314 . S
N649 C653 1.279 . S
C650 C648 1.348 . S
C650 C652 1.353 . S
C650 H692 0.929 . S
C651 C648 1.356 . S
C651 C653 1.358 . S
C651 H693 0.930 . S
C652 N649 1.314 . S
C652 C650 1.353 . S
C652 H694 0.930 . S
C653 N649 1.279 . S
C653 C651 1.358 . S
C653 H695 0.930 . S
C654 C655 1.348 . S
C654 C656 1.356 . S
C654 O679 1.325 . S
C655 C654 1.348 . S
C655 C657 1.353 . S
C655 H696 0.929 . S
C656 C654 1.356 . S
C656 C658 1.358 . S
C656 H697 0.930 . S
C657 C655 1.353 . S
C657 N659 1.314 . S
C657 H698 0.930 . S
C658 C656 1.358 . S
C658 N659 1.279 . S
C658 H699 0.930 . S
N659 C657 1.314 . S
N659 C658 1.279 . S
C660 C662 1.353 . S
C660 N663 1.314 . S
C660 H666 0.930 . S
C661 N663 1.279 . S
C661 C664 1.358 . S
C661 H667 0.930 . S
C662 C660 1.353 . S
C662 C665 1.348 . S
C662 H700 0.929 . S
N663 Li618 1.990 . S
N663 C660 1.314 . S
N663 C661 1.279 . S
C664 C661 1.358 . S
C664 C665 1.356 . S
C664 H701 0.930 . S
C665 C662 1.348 . S
C665 C664 1.356 . S
H666 C660 0.930 . S
H667 C661 0.930 . S
C668 N669 1.314 . S
C668 C670 1.353 . S
C668 H674 0.930 . S
N669 Li619 1.990 . S
N669 C668 1.314 . S
N669 C672 1.279 . S
C670 C668 1.353 . S
C670 C673 1.348 . S
C670 H702 0.929 . S
C671 C672 1.358 . S
C671 C673 1.356 . S
C671 H703 0.930 . S
C672 N669 1.279 . S
C672 C671 1.358 . S
C672 H675 0.930 . S
C673 C670 1.348 . S
C673 C671 1.356 . S
H674 C668 0.930 . S
H675 C672 0.930 . S
O676 Li616 1.956 . S
O676 Li617 1.970 . S
O676 Li618 1.961 . S
O676 C620 1.325 . S
O677 Li616 1.970 . S
O677 Li617 1.956 . S
O677 Li619 1.961 . S
O677 C626 1.325 . S
O678 Li616 1.961 . S
O678 Li618 1.956 . S
O678 Li619 1.970 . S
O678 C648 1.325 . S
O679 Li617 1.961 . S
O679 Li618 1.970 . S
O679 Li619 1.956 . S
O679 C654 1.325 . S
H680 C622 0.929 . S
H681 C623 0.930 . S
H682 C624 0.930 . S
H683 C625 0.930 . S
H684 C627 0.930 . S
H685 C629 0.929 . S
H686 C630 0.930 . S
H687 C631 0.930 . S
H688 C634 0.930 1_554 S
H689 C637 0.929 . S
H690 C642 0.929 . S
H691 C643 0.930 . S
H692 C650 0.929 . S
H693 C651 0.930 . S
H694 C652 0.930 . S
H695 C653 0.930 . S
H696 C655 0.929 . S
H697 C656 0.930 . S
H698 C657 0.930 . S
H699 C658 0.930 . S
H700 C662 0.929 . S
H701 C664 0.930 . S
H702 C670 0.929 . S
H703 C671 0.930 . S
Li704 N721 1.990 . S
Li704 O764 1.956 . S
Li704 O765 1.970 . S
Li704 O766 1.961 . S
Li705 N729 1.990 . S
Li705 O764 1.970 . S
Li705 O765 1.956 . S
Li705 O767 1.961 . S
Li706 N751 1.990 . S
Li706 O764 1.961 . S
Li706 O766 1.956 . S
Li706 O767 1.970 . S
Li707 N757 1.990 . S
Li707 O765 1.961 . S
Li707 O766 1.970 . S
Li707 O767 1.956 . S
C708 C710 1.348 . S
C708 C711 1.356 . S
C708 O764 1.325 . S
N709 C712 1.314 . S
N709 C713 1.279 . S
C710 C708 1.348 . S
C710 C712 1.353 . S
C710 H768 0.929 . S
C711 C708 1.356 . S
C711 C713 1.358 . S
C711 H769 0.930 . S
C712 N709 1.314 . S
C712 C710 1.353 . S
C712 H770 0.930 . S
C713 N709 1.279 . S
C713 C711 1.358 . S
C713 H771 0.930 . S
C714 C717 1.348 . S
C714 C718 1.356 . S
C714 O765 1.325 . S
C715 N716 1.279 . S
C715 C718 1.358 . S
C715 H772 0.930 . S
N716 C715 1.279 . S
N716 C719 1.314 . S
C717 C714 1.348 . S
C717 C719 1.353 . S
C717 H773 0.929 . S
C718 C714 1.356 . S
C718 C715 1.358 . S
C718 H774 0.930 . S
C719 N716 1.314 . S
C719 C717 1.353 . S
C719 H775 0.930 . S
C720 N721 1.314 . S
C720 C725 1.353 1_545 S
C720 H726 0.930 . S
N721 Li704 1.990 . S
N721 C720 1.314 . S
N721 C723 1.279 . S
C722 C723 1.358 . S
C722 C724 1.356 1_545 S
C722 H776 0.930 . S
C723 N721 1.279 . S
C723 C722 1.358 . S
C723 H727 0.930 . S
C724 C722 1.356 1_565 S
C724 C725 1.348 . S
C725 C720 1.353 1_565 S
C725 C724 1.348 . S
C725 H777 0.929 . S
H726 C720 0.930 . S
H727 C723 0.930 . S
C728 N729 1.314 . S
C728 C730 1.353 . S
C728 H734 0.930 . S
N729 Li705 1.990 . S
N729 C728 1.314 . S
N729 C732 1.279 . S
C730 C728 1.353 . S
C730 C733 1.348 . S
C730 H778 0.929 . S
C731 C732 1.358 . S
C731 C733 1.356 . S
C731 H779 0.930 . S
C732 N729 1.279 . S
C732 C731 1.358 . S
C732 H735 0.930 . S
C733 C730 1.348 . S
C733 C731 1.356 . S
H734 C728 0.930 . S
H735 C732 0.930 . S
C736 C738 1.348 . S
C736 C739 1.356 . S
C736 O766 1.325 . S
N737 C740 1.314 . S
N737 C741 1.279 . S
C738 C736 1.348 . S
C738 C740 1.353 . S
C738 H780 0.929 . S
C739 C736 1.356 . S
C739 C741 1.358 . S
C739 H781 0.930 . S
C740 N737 1.314 . S
C740 C738 1.353 . S
C740 H782 0.930 . S
C741 N737 1.279 . S
C741 C739 1.358 . S
C741 H783 0.930 . S
C742 C743 1.348 . S
C742 C744 1.356 . S
C742 O767 1.325 . S
C743 C742 1.348 . S
C743 C745 1.353 . S
C743 H784 0.929 . S
C744 C742 1.356 . S
C744 C746 1.358 . S
C744 H785 0.930 . S
C745 C743 1.353 . S
C745 N747 1.314 . S
C745 H786 0.930 . S
C746 C744 1.358 . S
C746 N747 1.279 . S
C746 H787 0.930 . S
N747 C745 1.314 . S
N747 C746 1.279 . S
C748 C750 1.353 . S
C748 N751 1.314 . S
C748 H754 0.930 . S
C749 N751 1.279 . S
C749 C752 1.358 . S
C749 H755 0.930 . S
C750 C748 1.353 . S
C750 C753 1.348 . S
C750 H788 0.929 . S
N751 Li706 1.990 . S
N751 C748 1.314 . S
N751 C749 1.279 . S
C752 C749 1.358 . S
C752 C753 1.356 . S
C752 H789 0.930 . S
C753 C750 1.348 . S
C753 C752 1.356 . S
H754 C748 0.930 . S
H755 C749 0.930 . S
C756 N757 1.314 . S
C756 C758 1.353 . S
C756 H762 0.930 . S
N757 Li707 1.990 . S
N757 C756 1.314 . S
N757 C760 1.279 . S
C758 C756 1.353 . S
C758 C761 1.348 . S
C758 H790 0.929 . S
C759 C760 1.358 . S
C759 C761 1.356 . S
C759 H791 0.930 . S
C760 N757 1.279 . S
C760 C759 1.358 . S
C760 H763 0.930 . S
C761 C758 1.348 . S
C761 C759 1.356 . S
H762 C756 0.930 . S
H763 C760 0.930 . S
O764 Li704 1.956 . S
O764 Li705 1.970 . S
O764 Li706 1.961 . S
O764 C708 1.325 . S
O765 Li704 1.970 . S
O765 Li705 1.956 . S
O765 Li707 1.961 . S
O765 C714 1.325 . S
O766 Li704 1.961 . S
O766 Li706 1.956 . S
O766 Li707 1.970 . S
O766 C736 1.325 . S
O767 Li705 1.961 . S
O767 Li706 1.970 . S
O767 Li707 1.956 . S
O767 C742 1.325 . S
H768 C710 0.929 . S
H769 C711 0.930 . S
H770 C712 0.930 . S
H771 C713 0.930 . S
H772 C715 0.930 . S
H773 C717 0.929 . S
H774 C718 0.930 . S
H775 C719 0.930 . S
H776 C722 0.930 . S
H777 C725 0.929 . S
H778 C730 0.929 . S
H779 C731 0.930 . S
H780 C738 0.929 . S
H781 C739 0.930 . S
H782 C740 0.930 . S
H783 C741 0.930 . S
H784 C743 0.929 . S
H785 C744 0.930 . S
H786 C745 0.930 . S
H787 C746 0.930 . S
H788 C750 0.929 . S
H789 C752 0.930 . S
H790 C758 0.929 . S
H791 C759 0.930 . S
Li792 N809 1.990 . S
Li792 O852 1.956 . S
Li792 O853 1.970 . S
Li792 O854 1.961 . S
Li793 N817 1.990 . S
Li793 O852 1.970 . S
Li793 O853 1.956 . S
Li793 O855 1.961 . S
Li794 N839 1.990 . S
Li794 O852 1.961 . S
Li794 O854 1.956 . S
Li794 O855 1.970 . S
Li795 N845 1.990 . S
Li795 O853 1.961 . S
Li795 O854 1.970 . S
Li795 O855 1.956 . S
C796 C798 1.348 . S
C796 C799 1.356 . S
C796 O852 1.325 . S
N797 C800 1.314 . S
N797 C801 1.279 . S
C798 C796 1.348 . S
C798 C800 1.353 . S
C798 H856 0.929 . S
C799 C796 1.356 . S
C799 C801 1.358 . S
C799 H857 0.930 . S
C800 N797 1.314 . S
C800 C798 1.353 . S
C800 H858 0.930 . S
C801 N797 1.279 . S
C801 C799 1.358 . S
C801 H859 0.930 . S
C802 C805 1.348 . S
C802 C806 1.356 . S
C802 O853 1.325 . S
C803 N804 1.279 . S
C803 C806 1.358 . S
C803 H860 0.930 . S
N804 C803 1.279 . S
N804 C807 1.314 . S
C805 C802 1.348 . S
C805 C807 1.353 . S
C805 H861 0.929 . S
C806 C802 1.356 . S
C806 C803 1.358 . S
C806 H862 0.930 . S
C807 N804 1.314 . S
C807 C805 1.353 . S
C807 H863 0.930 . S
C808 N809 1.314 . S
C808 C813 1.353 . S
C808 H814 0.930 . S
N809 Li792 1.990 . S
N809 C808 1.314 . S
N809 C811 1.279 . S
C810 C811 1.358 . S
C810 C812 1.356 . S
C810 H864 0.930 . S
C811 N809 1.279 . S
C811 C810 1.358 . S
C811 H815 0.930 . S
C812 C810 1.356 . S
C812 C813 1.348 . S
C813 C808 1.353 . S
C813 C812 1.348 . S
C813 H865 0.929 . S
H814 C808 0.930 . S
H815 C811 0.930 . S
C816 N817 1.314 . S
C816 C818 1.353 . S
C816 H822 0.930 . S
N817 Li793 1.990 . S
N817 C816 1.314 . S
N817 C820 1.279 . S
C818 C816 1.353 . S
C818 C821 1.348 . S
C818 H866 0.929 . S
C819 C820 1.358 . S
C819 C821 1.356 . S
C819 H867 0.930 . S
C820 N817 1.279 . S
C820 C819 1.358 . S
C820 H823 0.930 . S
C821 C818 1.348 . S
C821 C819 1.356 . S
H822 C816 0.930 . S
H823 C820 0.930 . S
C824 C826 1.348 . S
C824 C827 1.356 . S
C824 O854 1.325 . S
N825 C828 1.314 . S
N825 C829 1.279 . S
C826 C824 1.348 . S
C826 C828 1.353 . S
C826 H868 0.929 . S
C827 C824 1.356 . S
C827 C829 1.358 . S
C827 H869 0.930 . S
C828 N825 1.314 . S
C828 C826 1.353 . S
C828 H870 0.930 . S
C829 N825 1.279 . S
C829 C827 1.358 . S
C829 H871 0.930 . S
C830 C831 1.348 . S
C830 C832 1.356 . S
C830 O855 1.325 . S
C831 C830 1.348 . S
C831 C833 1.353 . S
C831 H872 0.929 . S
C832 C830 1.356 . S
C832 C834 1.358 . S
C832 H873 0.930 . S
C833 C831 1.353 . S
C833 N835 1.314 . S
C833 H874 0.930 . S
C834 C832 1.358 . S
C834 N835 1.279 . S
C834 H875 0.930 . S
N835 C833 1.314 . S
N835 C834 1.279 . S
C836 C838 1.353 . S
C836 N839 1.314 . S
C836 H842 0.930 . S
C837 N839 1.279 . S
C837 C840 1.358 . S
C837 H843 0.930 . S
C838 C836 1.353 . S
C838 C841 1.348 . S
C838 H876 0.929 . S
N839 Li794 1.990 . S
N839 C836 1.314 . S
N839 C837 1.279 . S
C840 C837 1.358 . S
C840 C841 1.356 . S
C840 H877 0.930 . S
C841 C838 1.348 . S
C841 C840 1.356 . S
H842 C836 0.930 . S
H843 C837 0.930 . S
C844 N845 1.314 . S
C844 C846 1.353 . S
C844 H850 0.930 . S
N845 Li795 1.990 . S
N845 C844 1.314 . S
N845 C848 1.279 . S
C846 C844 1.353 . S
C846 C849 1.348 . S
C846 H878 0.929 . S
C847 C848 1.358 . S
C847 C849 1.356 . S
C847 H879 0.930 . S
C848 N845 1.279 . S
C848 C847 1.358 . S
C848 H851 0.930 . S
C849 C846 1.348 . S
C849 C847 1.356 . S
H850 C844 0.930 . S
H851 C848 0.930 . S
O852 Li792 1.956 . S
O852 Li793 1.970 . S
O852 Li794 1.961 . S
O852 C796 1.325 . S
O853 Li792 1.970 . S
O853 Li793 1.956 . S
O853 Li795 1.961 . S
O853 C802 1.325 . S
O854 Li792 1.961 . S
O854 Li794 1.956 . S
O854 Li795 1.970 . S
O854 C824 1.325 . S
O855 Li793 1.961 . S
O855 Li794 1.970 . S
O855 Li795 1.956 . S
O855 C830 1.325 . S
H856 C798 0.929 . S
H857 C799 0.930 . S
H858 C800 0.930 . S
H859 C801 0.930 . S
H860 C803 0.930 . S
H861 C805 0.929 . S
H862 C806 0.930 . S
H863 C807 0.930 . S
H864 C810 0.930 . S
H865 C813 0.929 . S
H866 C818 0.929 . S
H867 C819 0.930 . S
H868 C826 0.929 . S
H869 C827 0.930 . S
H870 C828 0.930 . S
H871 C829 0.930 . S
H872 C831 0.929 . S
H873 C832 0.930 . S
H874 C833 0.930 . S
H875 C834 0.930 . S
H876 C838 0.929 . S
H877 C840 0.930 . S
H878 C846 0.929 . S
H879 C847 0.930 . S
Li880 N897 1.990 . S
Li880 O940 1.956 . S
Li880 O941 1.970 . S
Li880 O942 1.961 . S
Li881 N905 1.990 . S
Li881 O940 1.970 . S
Li881 O941 1.956 . S
Li881 O943 1.961 . S
Li882 N927 1.990 . S
Li882 O940 1.961 . S
Li882 O942 1.956 . S
Li882 O943 1.970 . S
Li883 N933 1.990 . S
Li883 O941 1.961 . S
Li883 O942 1.970 . S
Li883 O943 1.956 . S
C884 C886 1.348 . S
C884 C887 1.356 . S
C884 O940 1.325 . S
N885 C888 1.314 . S
N885 C889 1.279 . S
C886 C884 1.348 . S
C886 C888 1.353 1_556 S
C886 H944 0.929 . S
C887 C884 1.356 . S
C887 C889 1.358 1_556 S
C887 H945 0.930 . S
C888 N885 1.314 . S
C888 C886 1.353 1_554 S
C888 H946 0.930 . S
C889 N885 1.279 . S
C889 C887 1.358 1_554 S
C889 H947 0.930 . S
C890 C893 1.348 . S
C890 C894 1.356 . S
C890 O941 1.325 . S
C891 N892 1.279 . S
C891 C894 1.358 . S
C891 H948 0.930 . S
N892 C891 1.279 . S
N892 C895 1.314 . S
C893 C890 1.348 . S
C893 C895 1.353 . S
C893 H949 0.929 . S
C894 C890 1.356 . S
C894 C891 1.358 . S
C894 H950 0.930 . S
C895 N892 1.314 . S
C895 C893 1.353 . S
C895 H951 0.930 . S
C896 N897 1.314 . S
C896 C901 1.353 . S
C896 H902 0.930 . S
N897 Li880 1.990 . S
N897 C896 1.314 . S
N897 C899 1.279 . S
C898 C899 1.358 . S
C898 C900 1.356 . S
C898 H952 0.930 1_556 S
C899 N897 1.279 . S
C899 C898 1.358 . S
C899 H903 0.930 . S
C900 C898 1.356 . S
C900 C901 1.348 . S
C901 C896 1.353 . S
C901 C900 1.348 . S
C901 H953 0.929 . S
H902 C896 0.930 . S
H903 C899 0.930 . S
C904 N905 1.314 . S
C904 C906 1.353 1_655 S
C904 H910 0.930 . S
N905 Li881 1.990 . S
N905 C904 1.314 . S
N905 C908 1.279 . S
C906 C904 1.353 1_455 S
C906 C909 1.348 . S
C906 H954 0.929 . S
C907 C908 1.358 . S
C907 C909 1.356 1_655 S
C907 H955 0.930 . S
C908 N905 1.279 . S
C908 C907 1.358 . S
C908 H911 0.930 . S
C909 C906 1.348 . S
C909 C907 1.356 1_455 S
H910 C904 0.930 . S
H911 C908 0.930 . S
C912 C914 1.348 . S
C912 C915 1.356 . S
C912 O942 1.325 . S
N913 C916 1.314 . S
N913 C917 1.279 . S
C914 C912 1.348 . S
C914 C916 1.353 . S
C914 H956 0.929 . S
C915 C912 1.356 . S
C915 C917 1.358 . S
C915 H957 0.930 . S
C916 N913 1.314 . S
C916 C914 1.353 . S
C916 H958 0.930 . S
C917 N913 1.279 . S
C917 C915 1.358 . S
C917 H959 0.930 . S
C918 C919 1.348 . S
C918 C920 1.356 . S
C918 O943 1.325 . S
C919 C918 1.348 . S
C919 C921 1.353 . S
C919 H960 0.929 . S
C920 C918 1.356 . S
C920 C922 1.358 . S
C920 H961 0.930 . S
C921 C919 1.353 . S
C921 N923 1.314 . S
C921 H962 0.930 . S
C922 C920 1.358 . S
C922 N923 1.279 . S
C922 H963 0.930 . S
N923 C921 1.314 . S
N923 C922 1.279 . S
C924 C926 1.353 . S
C924 N927 1.314 . S
C924 H930 0.930 . S
C925 N927 1.279 . S
C925 C928 1.358 . S
C925 H931 0.930 . S
C926 C924 1.353 . S
C926 C929 1.348 . S
C926 H964 0.929 . S
N927 Li882 1.990 . S
N927 C924 1.314 . S
N927 C925 1.279 . S
C928 C925 1.358 . S
C928 C929 1.356 . S
C928 H965 0.930 . S
C929 C926 1.348 . S
C929 C928 1.356 . S
H930 C924 0.930 . S
H931 C925 0.930 . S
C932 N933 1.314 . S
C932 C934 1.353 . S
C932 H938 0.930 . S
N933 Li883 1.990 . S
N933 C932 1.314 . S
N933 C936 1.279 . S
C934 C932 1.353 . S
C934 C937 1.348 . S
C934 H966 0.929 . S
C935 C936 1.358 . S
C935 C937 1.356 . S
C935 H967 0.930 . S
C936 N933 1.279 . S
C936 C935 1.358 . S
C936 H939 0.930 . S
C937 C934 1.348 . S
C937 C935 1.356 . S
H938 C932 0.930 . S
H939 C936 0.930 . S
O940 Li880 1.956 . S
O940 Li881 1.970 . S
O940 Li882 1.961 . S
O940 C884 1.325 . S
O941 Li880 1.970 . S
O941 Li881 1.956 . S
O941 Li883 1.961 . S
O941 C890 1.325 . S
O942 Li880 1.961 . S
O942 Li882 1.956 . S
O942 Li883 1.970 . S
O942 C912 1.325 . S
O943 Li881 1.961 . S
O943 Li882 1.970 . S
O943 Li883 1.956 . S
O943 C918 1.325 . S
H944 C886 0.929 . S
H945 C887 0.930 . S
H946 C888 0.930 . S
H947 C889 0.930 . S
H948 C891 0.930 . S
H949 C893 0.929 . S
H950 C894 0.930 . S
H951 C895 0.930 . S
H952 C898 0.930 1_554 S
H953 C901 0.929 . S
H954 C906 0.929 . S
H955 C907 0.930 . S
H956 C914 0.929 . S
H957 C915 0.930 . S
H958 C916 0.930 . S
H959 C917 0.930 . S
H960 C919 0.929 . S
H961 C920 0.930 . S
H962 C921 0.930 . S
H963 C922 0.930 . S
H964 C926 0.929 . S
H965 C928 0.930 . S
H966 C934 0.929 . S
H967 C935 0.930 . S
Li968 N985 1.990 . S
Li968 O1028 1.956 . S
Li968 O1029 1.970 . S
Li968 O1030 1.961 . S
Li969 N993 1.990 . S
Li969 O1028 1.970 . S
Li969 O1029 1.956 . S
Li969 O1031 1.961 . S
Li970 N1015 1.990 . S
Li970 O1028 1.961 . S
Li970 O1030 1.956 . S
Li970 O1031 1.970 . S
Li971 N1021 1.990 . S
Li971 O1029 1.961 . S
Li971 O1030 1.970 . S
Li971 O1031 1.956 . S
C972 C974 1.348 . S
C972 C975 1.356 . S
C972 O1028 1.325 . S
N973 C976 1.314 . S
N973 C977 1.279 . S
C974 C972 1.348 . S
C974 C976 1.353 . S
C974 H1032 0.929 . S
C975 C972 1.356 . S
C975 C977 1.358 . S
C975 H1033 0.930 . S
C976 N973 1.314 . S
C976 C974 1.353 . S
C976 H1034 0.930 . S
C977 N973 1.279 . S
C977 C975 1.358 . S
C977 H1035 0.930 . S
C978 C981 1.348 . S
C978 C982 1.356 . S
C978 O1029 1.325 . S
C979 N980 1.279 . S
C979 C982 1.358 . S
C979 H1036 0.930 . S
N980 C979 1.279 . S
N980 C983 1.314 . S
C981 C978 1.348 . S
C981 C983 1.353 . S
C981 H1037 0.929 . S
C982 C978 1.356 . S
C982 C979 1.358 . S
C982 H1038 0.930 . S
C983 N980 1.314 . S
C983 C981 1.353 . S
C983 H1039 0.930 . S
C984 N985 1.314 . S
C984 C989 1.353 1_565 S
C984 H990 0.930 . S
N985 Li968 1.990 . S
N985 C984 1.314 . S
N985 C987 1.279 . S
C986 C987 1.358 . S
C986 C988 1.356 1_565 S
C986 H1040 0.930 . S
C987 N985 1.279 . S
C987 C986 1.358 . S
C987 H991 0.930 . S
C988 C986 1.356 1_545 S
C988 C989 1.348 . S
C989 C984 1.353 1_545 S
C989 C988 1.348 . S
C989 H1041 0.929 . S
H990 C984 0.930 . S
H991 C987 0.930 . S
C992 N993 1.314 . S
C992 C994 1.353 . S
C992 H998 0.930 . S
N993 Li969 1.990 . S
N993 C992 1.314 . S
N993 C996 1.279 . S
C994 C992 1.353 . S
C994 C997 1.348 . S
C994 H1042 0.929 . S
C995 C996 1.358 . S
C995 C997 1.356 . S
C995 H1043 0.930 . S
C996 N993 1.279 . S
C996 C995 1.358 . S
C996 H999 0.930 . S
C997 C994 1.348 . S
C997 C995 1.356 . S
H998 C992 0.930 . S
H999 C996 0.930 . S
C1000 C1002 1.348 . S
C1000 C1003 1.356 . S
C1000 O1030 1.325 . S
N1001 C1004 1.314 . S
N1001 C1005 1.279 . S
C1002 C1000 1.348 . S
C1002 C1004 1.353 . S
C1002 H1044 0.929 . S
C1003 C1000 1.356 . S
C1003 C1005 1.358 . S
C1003 H1045 0.930 . S
C1004 N1001 1.314 . S
C1004 C1002 1.353 . S
C1004 H1046 0.930 . S
C1005 N1001 1.279 . S
C1005 C1003 1.358 . S
C1005 H1047 0.930 . S
C1006 C1007 1.348 . S
C1006 C1008 1.356 . S
C1006 O1031 1.325 . S
C1007 C1006 1.348 . S
C1007 C1009 1.353 . S
C1007 H1048 0.929 . S
C1008 C1006 1.356 . S
C1008 C1010 1.358 . S
C1008 H1049 0.930 . S
C1009 C1007 1.353 . S
C1009 N1011 1.314 . S
C1009 H1050 0.930 . S
C1010 C1008 1.358 . S
C1010 N1011 1.279 . S
C1010 H1051 0.930 . S
N1011 C1009 1.314 . S
N1011 C1010 1.279 . S
C1012 C1014 1.353 . S
C1012 N1015 1.314 . S
C1012 H1018 0.930 . S
C1013 N1015 1.279 . S
C1013 C1016 1.358 . S
C1013 H1019 0.930 . S
C1014 C1012 1.353 . S
C1014 C1017 1.348 . S
C1014 H1052 0.929 . S
N1015 Li970 1.990 . S
N1015 C1012 1.314 . S
N1015 C1013 1.279 . S
C1016 C1013 1.358 . S
C1016 C1017 1.356 . S
C1016 H1053 0.930 . S
C1017 C1014 1.348 . S
C1017 C1016 1.356 . S
H1018 C1012 0.930 . S
H1019 C1013 0.930 . S
C1020 N1021 1.314 . S
C1020 C1022 1.353 . S
C1020 H1026 0.930 . S
N1021 Li971 1.990 . S
N1021 C1020 1.314 . S
N1021 C1024 1.279 . S
C1022 C1020 1.353 . S
C1022 C1025 1.348 . S
C1022 H1054 0.929 . S
C1023 C1024 1.358 . S
C1023 C1025 1.356 . S
C1023 H1055 0.930 . S
C1024 N1021 1.279 . S
C1024 C1023 1.358 . S
C1024 H1027 0.930 . S
C1025 C1022 1.348 . S
C1025 C1023 1.356 . S
H1026 C1020 0.930 . S
H1027 C1024 0.930 . S
O1028 Li968 1.956 . S
O1028 Li969 1.970 . S
O1028 Li970 1.961 . S
O1028 C972 1.325 . S
O1029 Li968 1.970 . S
O1029 Li969 1.956 . S
O1029 Li971 1.961 . S
O1029 C978 1.325 . S
O1030 Li968 1.961 . S
O1030 Li970 1.956 . S
O1030 Li971 1.970 . S
O1030 C1000 1.325 . S
O1031 Li969 1.961 . S
O1031 Li970 1.970 . S
O1031 Li971 1.956 . S
O1031 C1006 1.325 . S
H1032 C974 0.929 . S
H1033 C975 0.930 . S
H1034 C976 0.930 . S
H1035 C977 0.930 . S
H1036 C979 0.930 . S
H1037 C981 0.929 . S
H1038 C982 0.930 . S
H1039 C983 0.930 . S
H1040 C986 0.930 . S
H1041 C989 0.929 . S
H1042 C994 0.929 . S
H1043 C995 0.930 . S
H1044 C1002 0.929 . S
H1045 C1003 0.930 . S
H1046 C1004 0.930 . S
H1047 C1005 0.930 . S
H1048 C1007 0.929 . S
H1049 C1008 0.930 . S
H1050 C1009 0.930 . S
H1051 C1010 0.930 . S
H1052 C1014 0.929 . S
H1053 C1016 0.930 . S
H1054 C1022 0.929 . S
H1055 C1023 0.930 . S
H1056 C1064 0.929 . S
H1057 C1066 0.930 . S
H1058 C1068 0.930 . S
H1059 C1071 0.929 . S
H1060 C1074 0.930 . S
H1061 C1076 0.960 . S
H1062 C1076 0.960 . S
H1063 C1076 0.960 . S
C1064 H1056 0.929 . S
C1064 C1065 1.377 . S
C1064 C1066 1.384 . S
C1065 C1064 1.377 . S
C1065 C1071 1.390 . S
C1066 H1057 0.930 . S
C1066 C1064 1.384 . S
C1066 C1067 1.372 . S
C1067 C1066 1.372 . S
C1067 C1068 1.400 . S
C1067 C1072 1.490 . S
C1068 H1058 0.930 . S
C1068 C1067 1.400 . S
C1068 C1071 1.386 . S
H1069 C1085 0.930 . S
H1070 C1086 0.931 . S
C1071 H1059 0.929 . S
C1071 C1065 1.390 . S
C1071 C1068 1.386 . S
C1072 C1067 1.490 . S
C1072 C1074 1.395 . S
C1072 C1075 1.403 . S
H1073 C1079 0.930 . S
C1074 H1060 0.930 . S
C1074 C1072 1.395 . S
C1074 C1077 1.403 . S
C1075 C1072 1.403 . S
C1075 C1076 1.524 . S
C1075 C1079 1.400 . S
C1076 H1061 0.960 . S
C1076 H1062 0.960 . S
C1076 H1063 0.960 . S
C1076 C1075 1.524 . S
C1077 C1074 1.403 . S
C1077 C1078 1.392 . S
C1077 C1081 1.495 . S
C1078 C1077 1.392 . S
C1078 C1079 1.385 . S
C1078 C1080 1.478 . S
C1079 H1073 0.930 . S
C1079 C1075 1.400 . S
C1079 C1078 1.385 . S
C1080 C1078 1.478 . S
C1080 C1082 1.381 . S
C1080 C1086 1.383 . S
C1081 C1077 1.495 . S
C1081 H1087 0.959 . S
C1081 H1088 0.961 . S
C1081 H1089 0.960 . S
C1082 C1080 1.381 . S
C1082 C1083 1.394 . S
C1082 H1090 0.930 . S
C1083 C1082 1.394 . S
C1083 C1084 1.383 . S
C1083 H1091 0.929 . S
C1084 C1083 1.383 . S
C1084 C1085 1.377 . S
C1085 H1069 0.930 . S
C1085 C1084 1.377 . S
C1085 C1086 1.379 . S
C1086 H1070 0.931 . S
C1086 C1080 1.383 . S
C1086 C1085 1.379 . S
H1087 C1081 0.959 . S
H1088 C1081 0.961 . S
H1089 C1081 0.960 . S
H1090 C1082 0.930 . S
H1091 C1083 0.929 . S
H1092 C1100 0.929 . S
H1093 C1102 0.930 . S
H1094 C1104 0.930 . S
H1095 C1107 0.929 . S
H1096 C1110 0.930 . S
H1097 C1112 0.960 . S
H1098 C1112 0.960 . S
H1099 C1112 0.960 . S
C1100 H1092 0.929 . S
C1100 C1101 1.377 . S
C1100 C1102 1.384 . S
C1101 C1100 1.377 . S
C1101 C1107 1.390 . S
C1102 H1093 0.930 . S
C1102 C1100 1.384 . S
C1102 C1103 1.372 . S
C1103 C1102 1.372 . S
C1103 C1104 1.400 . S
C1103 C1108 1.490 . S
C1104 H1094 0.930 . S
C1104 C1103 1.400 . S
C1104 C1107 1.386 . S
H1105 C1121 0.930 . S
H1106 C1122 0.931 . S
C1107 H1095 0.929 . S
C1107 C1101 1.390 . S
C1107 C1104 1.386 . S
C1108 C1103 1.490 . S
C1108 C1110 1.395 . S
C1108 C1111 1.403 1_455 S
H1109 C1115 0.930 . S
C1110 H1096 0.930 . S
C1110 C1108 1.395 . S
C1110 C1113 1.403 . S
C1111 C1108 1.403 1_655 S
C1111 C1112 1.524 . S
C1111 C1115 1.400 . S
C1112 H1097 0.960 . S
C1112 H1098 0.960 . S
C1112 H1099 0.960 . S
C1112 C1111 1.524 . S
C1113 C1110 1.403 . S
C1113 C1114 1.392 1_455 S
C1113 C1117 1.495 . S
C1114 C1113 1.392 1_655 S
C1114 C1115 1.385 . S
C1114 C1116 1.478 . S
C1115 H1109 0.930 . S
C1115 C1111 1.400 . S
C1115 C1114 1.385 . S
C1116 C1114 1.478 . S
C1116 C1118 1.381 . S
C1116 C1122 1.383 . S
C1117 C1113 1.495 . S
C1117 H1123 0.959 . S
C1117 H1124 0.961 . S
C1117 H1125 0.960 . S
C1118 C1116 1.381 . S
C1118 C1119 1.394 . S
C1118 H1126 0.930 . S
C1119 C1118 1.394 . S
C1119 C1120 1.383 . S
C1119 H1127 0.929 . S
C1120 C1119 1.383 . S
C1120 C1121 1.377 . S
C1121 H1105 0.930 . S
C1121 C1120 1.377 . S
C1121 C1122 1.379 . S
C1122 H1106 0.931 . S
C1122 C1116 1.383 . S
C1122 C1121 1.379 . S
H1123 C1117 0.959 . S
H1124 C1117 0.961 . S
H1125 C1117 0.960 . S
H1126 C1118 0.930 . S
H1127 C1119 0.929 . S
H1128 C1136 0.929 . S
H1129 C1138 0.930 . S
H1130 C1140 0.930 . S
H1131 C1143 0.929 . S
H1132 C1146 0.930 . S
H1133 C1148 0.960 . S
H1134 C1148 0.960 . S
H1135 C1148 0.960 . S
C1136 H1128 0.929 . S
C1136 C1137 1.377 . S
C1136 C1138 1.384 . S
C1137 C1136 1.377 . S
C1137 C1143 1.390 . S
C1138 H1129 0.930 . S
C1138 C1136 1.384 . S
C1138 C1139 1.372 . S
C1139 C1138 1.372 . S
C1139 C1140 1.400 . S
C1139 C1144 1.490 . S
C1140 H1130 0.930 . S
C1140 C1139 1.400 . S
C1140 C1143 1.386 . S
H1141 C1157 0.930 . S
H1142 C1158 0.931 . S
C1143 H1131 0.929 . S
C1143 C1137 1.390 . S
C1143 C1140 1.386 . S
C1144 C1139 1.490 . S
C1144 C1146 1.395 1_565 S
C1144 C1147 1.403 . S
H1145 C1151 0.922 1_565 S
C1146 H1132 0.930 . S
C1146 C1144 1.395 1_545 S
C1146 C1149 1.403 . S
C1147 C1144 1.403 . S
C1147 C1148 1.524 . S
C1147 C1151 1.395 1_565 S
C1148 H1133 0.960 . S
C1148 H1134 0.960 . S
C1148 H1135 0.960 . S
C1148 C1147 1.524 . S
C1149 C1146 1.403 . S
C1149 C1150 1.392 . S
C1149 C1153 1.495 . S
C1150 C1149 1.392 . S
C1150 C1151 1.396 . S
C1150 C1152 1.478 . S
C1151 H1145 0.922 1_545 S
C1151 C1147 1.395 1_545 S
C1151 C1150 1.396 . S
C1152 C1150 1.478 . S
C1152 C1154 1.381 . S
C1152 C1158 1.383 . S
C1153 C1149 1.495 . S
C1153 H1159 0.959 . S
C1153 H1160 0.961 . S
C1153 H1161 0.960 . S
C1154 C1152 1.381 . S
C1154 C1155 1.394 . S
C1154 H1162 0.930 . S
C1155 C1154 1.394 . S
C1155 C1156 1.383 . S
C1155 H1163 0.929 . S
C1156 C1155 1.383 . S
C1156 C1157 1.377 . S
C1157 H1141 0.930 . S
C1157 C1156 1.377 . S
C1157 C1158 1.379 . S
C1158 H1142 0.931 . S
C1158 C1152 1.383 . S
C1158 C1157 1.379 . S
H1159 C1153 0.959 . S
H1160 C1153 0.961 . S
H1161 C1153 0.960 . S
H1162 C1154 0.930 . S
H1163 C1155 0.929 . S
H1164 C1172 0.929 . S
H1165 C1174 0.930 . S
H1166 C1176 0.930 . S
H1167 C1179 0.929 . S
H1168 C1182 0.930 . S
H1169 C1184 0.960 . S
H1170 C1184 0.960 . S
H1171 C1184 0.960 . S
C1172 H1164 0.929 . S
C1172 C1173 1.377 . S
C1172 C1174 1.384 . S
C1173 C1172 1.377 . S
C1173 C1179 1.390 . S
C1174 H1165 0.930 . S
C1174 C1172 1.384 . S
C1174 C1175 1.372 . S
C1175 C1174 1.372 . S
C1175 C1176 1.400 . S
C1175 C1180 1.490 . S
C1176 H1166 0.930 . S
C1176 C1175 1.400 . S
C1176 C1179 1.386 . S
H1177 C1193 0.930 . S
H1178 C1194 0.931 . S
C1179 H1167 0.929 . S
C1179 C1173 1.390 . S
C1179 C1176 1.386 . S
C1180 C1175 1.490 . S
C1180 C1182 1.395 . S
C1180 C1183 1.403 . S
H1181 C1187 0.930 . S
C1182 H1168 0.930 . S
C1182 C1180 1.395 . S
C1182 C1185 1.403 . S
C1183 C1180 1.403 . S
C1183 C1184 1.524 . S
C1183 C1187 1.400 . S
C1184 H1169 0.960 . S
C1184 H1170 0.960 . S
C1184 H1171 0.960 . S
C1184 C1183 1.524 . S
C1185 C1182 1.403 . S
C1185 C1186 1.392 . S
C1185 C1189 1.495 . S
C1186 C1185 1.392 . S
C1186 C1187 1.385 . S
C1186 C1188 1.478 . S
C1187 H1181 0.930 . S
C1187 C1183 1.400 . S
C1187 C1186 1.385 . S
C1188 C1186 1.478 . S
C1188 C1190 1.381 . S
C1188 C1194 1.383 . S
C1189 C1185 1.495 . S
C1189 H1195 0.959 . S
C1189 H1196 0.961 . S
C1189 H1197 0.960 . S
C1190 C1188 1.381 . S
C1190 C1191 1.394 . S
C1190 H1198 0.930 . S
C1191 C1190 1.394 . S
C1191 C1192 1.383 . S
C1191 H1199 0.929 . S
C1192 C1191 1.383 . S
C1192 C1193 1.377 . S
C1193 H1177 0.930 . S
C1193 C1192 1.377 . S
C1193 C1194 1.379 . S
C1194 H1178 0.931 . S
C1194 C1188 1.383 . S
C1194 C1193 1.379 . S
H1195 C1189 0.959 . S
H1196 C1189 0.961 . S
H1197 C1189 0.960 . S
H1198 C1190 0.930 . S
H1199 C1191 0.929 . S
H1200 C1208 0.929 . S
H1201 C1210 0.930 . S
H1202 C1212 0.930 . S
H1203 C1215 0.929 . S
H1204 C1218 0.930 . S
H1205 C1220 0.960 . S
H1206 C1220 0.960 . S
H1207 C1220 0.960 . S
C1208 H1200 0.929 . S
C1208 C1209 1.377 . S
C1208 C1210 1.384 . S
C1209 C1208 1.377 . S
C1209 C1215 1.390 . S
C1210 H1201 0.930 . S
C1210 C1208 1.384 . S
C1210 C1211 1.372 . S
C1211 C1210 1.372 . S
C1211 C1212 1.400 . S
C1211 C1216 1.490 . S
C1212 H1202 0.930 . S
C1212 C1211 1.400 . S
C1212 C1215 1.386 . S
H1213 C1229 0.930 . S
H1214 C1230 0.931 . S
C1215 H1203 0.929 . S
C1215 C1209 1.390 . S
C1215 C1212 1.386 . S
C1216 C1211 1.490 . S
C1216 C1218 1.395 1_655 S
C1216 C1219 1.403 . S
H1217 C1223 0.930 . S
C1218 H1204 0.930 . S
C1218 C1216 1.395 1_455 S
C1218 C1221 1.403 . S
C1219 C1216 1.403 . S
C1219 C1220 1.524 . S
C1219 C1223 1.400 . S
C1220 H1205 0.960 . S
C1220 H1206 0.960 . S
C1220 H1207 0.960 . S
C1220 C1219 1.524 . S
C1221 C1218 1.403 . S
C1221 C1222 1.392 . S
C1221 C1225 1.495 . S
C1222 C1221 1.392 . S
C1222 C1223 1.385 1_455 S
C1222 C1224 1.478 . S
C1223 H1217 0.930 . S
C1223 C1219 1.400 . S
C1223 C1222 1.385 1_655 S
C1224 C1222 1.478 . S
C1224 C1226 1.381 . S
C1224 C1230 1.383 . S
C1225 C1221 1.495 . S
C1225 H1231 0.959 . S
C1225 H1232 0.961 . S
C1225 H1233 0.960 . S
C1226 C1224 1.381 . S
C1226 C1227 1.394 . S
C1226 H1234 0.930 . S
C1227 C1226 1.394 . S
C1227 C1228 1.383 . S
C1227 H1235 0.929 . S
C1228 C1227 1.383 . S
C1228 C1229 1.377 . S
C1229 H1213 0.930 . S
C1229 C1228 1.377 . S
C1229 C1230 1.379 . S
C1230 H1214 0.931 . S
C1230 C1224 1.383 . S
C1230 C1229 1.379 . S
H1231 C1225 0.959 . S
H1232 C1225 0.961 . S
H1233 C1225 0.960 . S
H1234 C1226 0.930 . S
H1235 C1227 0.929 . S
H1236 C1244 0.929 . S
H1237 C1246 0.930 . S
H1238 C1248 0.930 . S
H1239 C1251 0.929 . S
H1240 C1254 0.930 . S
H1241 C1256 0.960 . S
H1242 C1256 0.960 . S
H1243 C1256 0.960 . S
C1244 H1236 0.929 . S
C1244 C1245 1.377 . S
C1244 C1246 1.384 . S
C1245 C1244 1.377 . S
C1245 C1251 1.390 . S
C1246 H1237 0.930 . S
C1246 C1244 1.384 . S
C1246 C1247 1.372 . S
C1247 C1246 1.372 . S
C1247 C1248 1.400 . S
C1247 C1252 1.490 . S
C1248 H1238 0.930 . S
C1248 C1247 1.400 . S
C1248 C1251 1.386 . S
H1249 C1265 0.930 . S
H1250 C1266 0.931 . S
C1251 H1239 0.929 . S
C1251 C1245 1.390 . S
C1251 C1248 1.386 . S
C1252 C1247 1.490 . S
C1252 C1254 1.395 . S
C1252 C1255 1.403 1_545 S
H1253 C1259 0.930 . S
C1254 H1240 0.930 . S
C1254 C1252 1.395 . S
C1254 C1257 1.403 . S
C1255 C1252 1.403 1_565 S
C1255 C1256 1.524 . S
C1255 C1259 1.400 . S
C1256 H1241 0.960 . S
C1256 H1242 0.960 . S
C1256 H1243 0.960 . S
C1256 C1255 1.524 . S
C1257 C1254 1.403 . S
C1257 C1258 1.392 1_545 S
C1257 C1261 1.495 . S
C1258 C1257 1.392 1_565 S
C1258 C1259 1.385 . S
C1258 C1260 1.478 . S
C1259 H1253 0.930 . S
C1259 C1255 1.400 . S
C1259 C1258 1.385 . S
C1260 C1258 1.478 . S
C1260 C1262 1.381 . S
C1260 C1266 1.383 . S
C1261 C1257 1.495 . S
C1261 H1267 0.959 . S
C1261 H1268 0.961 . S
C1261 H1269 0.960 . S
C1262 C1260 1.381 . S
C1262 C1263 1.394 . S
C1262 H1270 0.930 . S
C1263 C1262 1.394 . S
C1263 C1264 1.383 . S
C1263 H1271 0.929 . S
C1264 C1263 1.383 . S
C1264 C1265 1.377 . S
C1265 H1249 0.930 . S
C1265 C1264 1.377 . S
C1265 C1266 1.379 . S
C1266 H1250 0.931 . S
C1266 C1260 1.383 . S
C1266 C1265 1.379 . S
H1267 C1261 0.959 . S
H1268 C1261 0.961 . S
H1269 C1261 0.960 . S
H1270 C1262 0.930 . S
H1271 C1263 0.929 . S
H1272 C1280 0.929 . S
H1273 C1282 0.930 . S
H1274 C1284 0.930 . S
H1275 C1287 0.929 . S
H1276 C1290 0.930 . S
H1277 C1292 0.960 . S
H1278 C1292 0.960 . S
H1279 C1292 0.960 . S
C1280 H1272 0.929 . S
C1280 C1281 1.377 . S
C1280 C1282 1.384 . S
C1281 C1280 1.377 . S
C1281 C1287 1.390 . S
C1282 H1273 0.930 . S
C1282 C1280 1.384 . S
C1282 C1283 1.372 . S
C1283 C1282 1.372 . S
C1283 C1284 1.400 . S
C1283 C1288 1.490 . S
C1284 H1274 0.930 . S
C1284 C1283 1.400 . S
C1284 C1287 1.386 . S
H1285 C1301 0.930 . S
H1286 C1302 0.931 . S
C1287 H1275 0.929 . S
C1287 C1281 1.390 . S
C1287 C1284 1.386 . S
C1288 C1283 1.490 . S
C1288 C1290 1.395 . S
C1288 C1291 1.403 . S
H1289 C1295 0.930 . S
C1290 H1276 0.930 . S
C1290 C1288 1.395 . S
C1290 C1293 1.403 . S
C1291 C1288 1.403 . S
C1291 C1292 1.524 . S
C1291 C1295 1.400 . S
C1292 H1277 0.960 . S
C1292 H1278 0.960 . S
C1292 H1279 0.960 . S
C1292 C1291 1.524 . S
C1293 C1290 1.403 . S
C1293 C1294 1.392 . S
C1293 C1297 1.495 . S
C1294 C1293 1.392 . S
C1294 C1295 1.385 . S
C1294 C1296 1.478 . S
C1295 H1289 0.930 . S
C1295 C1291 1.400 . S
C1295 C1294 1.385 . S
C1296 C1294 1.478 . S
C1296 C1298 1.381 . S
C1296 C1302 1.383 . S
C1297 C1293 1.495 . S
C1297 H1303 0.959 . S
C1297 H1304 0.961 . S
C1297 H1305 0.960 . S
C1298 C1296 1.381 . S
C1298 C1299 1.394 . S
C1298 H1306 0.930 . S
C1299 C1298 1.394 . S
C1299 C1300 1.383 . S
C1299 H1307 0.929 . S
C1300 C1299 1.383 . S
C1300 C1301 1.377 . S
C1301 H1285 0.930 . S
C1301 C1300 1.377 . S
C1301 C1302 1.379 . S
C1302 H1286 0.931 . S
C1302 C1296 1.383 . S
C1302 C1301 1.379 . S
H1303 C1297 0.959 . S
H1304 C1297 0.961 . S
H1305 C1297 0.960 . S
H1306 C1298 0.930 . S
H1307 C1299 0.929 . S
H1308 C1316 0.929 . S
H1309 C1318 0.930 . S
H1310 C1320 0.930 . S
H1311 C1323 0.929 . S
H1312 C1326 0.930 . S
H1313 C1328 0.960 . S
H1314 C1328 0.960 . S
H1315 C1328 0.960 . S
C1316 H1308 0.929 . S
C1316 C1317 1.377 . S
C1316 C1318 1.384 . S
C1317 C1316 1.377 . S
C1317 C1323 1.390 . S
C1318 H1309 0.930 . S
C1318 C1316 1.384 . S
C1318 C1319 1.372 . S
C1319 C1318 1.372 . S
C1319 C1320 1.400 . S
C1319 C1324 1.490 . S
C1320 H1310 0.930 . S
C1320 C1319 1.400 . S
C1320 C1323 1.386 . S
H1321 C1337 0.930 . S
H1322 C1338 0.931 . S
C1323 H1311 0.929 . S
C1323 C1317 1.390 . S
C1323 C1320 1.386 . S
C1324 C1319 1.490 . S
C1324 C1326 1.395 . S
C1324 C1327 1.403 . S
H1325 C1331 0.930 . S
C1326 H1312 0.930 . S
C1326 C1324 1.395 . S
C1326 C1329 1.403 . S
C1327 C1324 1.403 . S
C1327 C1328 1.524 . S
C1327 C1331 1.400 . S
C1328 H1313 0.960 . S
C1328 H1314 0.960 . S
C1328 H1315 0.960 . S
C1328 C1327 1.524 . S
C1329 C1326 1.403 . S
C1329 C1330 1.392 . S
C1329 C1333 1.495 . S
C1330 C1329 1.392 . S
C1330 C1331 1.385 . S
C1330 C1332 1.478 . S
C1331 H1325 0.930 . S
C1331 C1327 1.400 . S
C1331 C1330 1.385 . S
C1332 C1330 1.478 . S
C1332 C1334 1.381 . S
C1332 C1338 1.383 . S
C1333 C1329 1.495 . S
C1333 H1339 0.959 . S
C1333 H1340 0.961 . S
C1333 H1341 0.960 . S
C1334 C1332 1.381 . S
C1334 C1335 1.394 . S
C1334 H1342 0.930 . S
C1335 C1334 1.394 . S
C1335 C1336 1.383 . S
C1335 H1343 0.929 . S
C1336 C1335 1.383 . S
C1336 C1337 1.377 . S
C1337 H1321 0.930 . S
C1337 C1336 1.377 . S
C1337 C1338 1.379 . S
C1338 H1322 0.931 . S
C1338 C1332 1.383 . S
C1338 C1337 1.379 . S
H1339 C1333 0.959 . S
H1340 C1333 0.961 . S
H1341 C1333 0.960 . S
H1342 C1334 0.930 . S
H1343 C1335 0.929 . S
H1344 C1352 0.929 . S
H1345 C1354 0.930 . S
H1346 C1356 0.930 . S
H1347 C1359 0.929 . S
H1348 C1362 0.930 . S
H1349 C1364 0.960 . S
H1350 C1364 0.960 . S
H1351 C1364 0.960 . S
C1352 H1344 0.929 . S
C1352 C1353 1.377 . S
C1352 C1354 1.384 . S
C1353 C1352 1.377 . S
C1353 C1359 1.390 . S
C1354 H1345 0.930 . S
C1354 C1352 1.384 . S
C1354 C1355 1.372 . S
C1355 C1354 1.372 . S
C1355 C1356 1.400 . S
C1355 C1360 1.490 . S
C1356 H1346 0.930 . S
C1356 C1355 1.400 . S
C1356 C1359 1.386 . S
H1357 C1373 0.930 . S
H1358 C1374 0.931 . S
C1359 H1347 0.929 . S
C1359 C1353 1.390 . S
C1359 C1356 1.386 . S
C1360 C1355 1.490 . S
C1360 C1362 1.395 . S
C1360 C1363 1.403 . S
H1361 C1367 0.930 . S
C1362 H1348 0.930 . S
C1362 C1360 1.395 . S
C1362 C1365 1.403 . S
C1363 C1360 1.403 . S
C1363 C1364 1.524 . S
C1363 C1367 1.400 . S
C1364 H1349 0.960 . S
C1364 H1350 0.960 . S
C1364 H1351 0.960 . S
C1364 C1363 1.524 . S
C1365 C1362 1.403 . S
C1365 C1366 1.392 . S
C1365 C1369 1.495 . S
C1366 C1365 1.392 . S
C1366 C1367 1.385 . S
C1366 C1368 1.478 . S
C1367 H1361 0.930 . S
C1367 C1363 1.400 . S
C1367 C1366 1.385 . S
C1368 C1366 1.478 . S
C1368 C1370 1.381 . S
C1368 C1374 1.383 . S
C1369 C1365 1.495 . S
C1369 H1375 0.959 . S
C1369 H1376 0.961 . S
C1369 H1377 0.960 . S
C1370 C1368 1.381 . S
C1370 C1371 1.394 . S
C1370 H1378 0.930 . S
C1371 C1370 1.394 . S
C1371 C1372 1.383 . S
C1371 H1379 0.929 . S
C1372 C1371 1.383 . S
C1372 C1373 1.377 . S
C1373 H1357 0.930 . S
C1373 C1372 1.377 . S
C1373 C1374 1.379 . S
C1374 H1358 0.931 . S
C1374 C1368 1.383 . S
C1374 C1373 1.379 . S
H1375 C1369 0.959 . S
H1376 C1369 0.961 . S
H1377 C1369 0.960 . S
H1378 C1370 0.930 . S
H1379 C1371 0.929 . S
H1380 C1388 0.929 . S
H1381 C1390 0.930 . S
H1382 C1392 0.930 . S
H1383 C1395 0.929 . S
H1384 C1398 0.930 . S
H1385 C1400 0.960 . S
H1386 C1400 0.960 . S
H1387 C1400 0.960 . S
C1388 H1380 0.929 . S
C1388 C1389 1.377 . S
C1388 C1390 1.384 . S
C1389 C1388 1.377 . S
C1389 C1395 1.390 . S
C1390 H1381 0.930 . S
C1390 C1388 1.384 . S
C1390 C1391 1.372 . S
C1391 C1390 1.372 . S
C1391 C1392 1.400 . S
C1391 C1396 1.490 . S
C1392 H1382 0.930 . S
C1392 C1391 1.400 . S
C1392 C1395 1.386 . S
H1393 C1409 0.930 . S
H1394 C1410 0.931 . S
C1395 H1383 0.929 . S
C1395 C1389 1.390 . S
C1395 C1392 1.386 . S
C1396 C1391 1.490 . S
C1396 C1398 1.395 . S
C1396 C1399 1.403 . S
H1397 C1403 0.930 . S
C1398 H1384 0.930 . S
C1398 C1396 1.395 . S
C1398 C1401 1.403 . S
C1399 C1396 1.403 . S
C1399 C1400 1.524 . S
C1399 C1403 1.400 . S
C1400 H1385 0.960 . S
C1400 H1386 0.960 . S
C1400 H1387 0.960 . S
C1400 C1399 1.524 . S
C1401 C1398 1.403 . S
C1401 C1402 1.392 . S
C1401 C1405 1.495 . S
C1402 C1401 1.392 . S
C1402 C1403 1.385 . S
C1402 C1404 1.478 . S
C1403 H1397 0.930 . S
C1403 C1399 1.400 . S
C1403 C1402 1.385 . S
C1404 C1402 1.478 . S
C1404 C1406 1.381 . S
C1404 C1410 1.383 . S
C1405 C1401 1.495 . S
C1405 H1411 0.959 . S
C1405 H1412 0.961 . S
C1405 H1413 0.960 . S
C1406 C1404 1.381 . S
C1406 C1407 1.394 . S
C1406 H1414 0.930 . S
C1407 C1406 1.394 . S
C1407 C1408 1.383 . S
C1407 H1415 0.929 . S
C1408 C1407 1.383 . S
C1408 C1409 1.377 . S
C1409 H1393 0.930 . S
C1409 C1408 1.377 . S
C1409 C1410 1.379 . S
C1410 H1394 0.931 . S
C1410 C1404 1.383 . S
C1410 C1409 1.379 . S
H1411 C1405 0.959 . S
H1412 C1405 0.961 . S
H1413 C1405 0.960 . S
H1414 C1406 0.930 . S
H1415 C1407 0.929 . S
H1416 C1424 0.929 . S
H1417 C1426 0.930 . S
H1418 C1428 0.930 . S
H1419 C1431 0.929 . S
H1420 C1434 0.930 . S
H1421 C1436 0.960 . S
H1422 C1436 0.960 . S
H1423 C1436 0.960 . S
C1424 H1416 0.929 . S
C1424 C1425 1.377 . S
C1424 C1426 1.384 . S
C1425 C1424 1.377 . S
C1425 C1431 1.390 . S
C1426 H1417 0.930 . S
C1426 C1424 1.384 . S
C1426 C1427 1.372 . S
C1427 C1426 1.372 . S
C1427 C1428 1.400 . S
C1427 C1432 1.490 . S
C1428 H1418 0.930 . S
C1428 C1427 1.400 . S
C1428 C1431 1.386 . S
H1429 C1445 0.930 . S
H1430 C1446 0.931 . S
C1431 H1419 0.929 . S
C1431 C1425 1.390 . S
C1431 C1428 1.386 . S
C1432 C1427 1.490 . S
C1432 C1434 1.395 . S
C1432 C1435 1.403 . S
H1433 C1439 0.930 . S
C1434 H1420 0.930 . S
C1434 C1432 1.395 . S
C1434 C1437 1.403 . S
C1435 C1432 1.403 . S
C1435 C1436 1.524 . S
C1435 C1439 1.400 . S
C1436 H1421 0.960 . S
C1436 H1422 0.960 . S
C1436 H1423 0.960 . S
C1436 C1435 1.524 . S
C1437 C1434 1.403 . S
C1437 C1438 1.392 . S
C1437 C1441 1.495 . S
C1438 C1437 1.392 . S
C1438 C1439 1.385 . S
C1438 C1440 1.478 . S
C1439 H1433 0.930 . S
C1439 C1435 1.400 . S
C1439 C1438 1.385 . S
C1440 C1438 1.478 . S
C1440 C1442 1.381 . S
C1440 C1446 1.383 . S
C1441 C1437 1.495 . S
C1441 H1447 0.959 . S
C1441 H1448 0.961 . S
C1441 H1449 0.960 . S
C1442 C1440 1.381 . S
C1442 C1443 1.394 . S
C1442 H1450 0.930 . S
C1443 C1442 1.394 . S
C1443 C1444 1.383 . S
C1443 H1451 0.929 . S
C1444 C1443 1.383 . S
C1444 C1445 1.377 . S
C1445 H1429 0.930 . S
C1445 C1444 1.377 . S
C1445 C1446 1.379 . S
C1446 H1430 0.931 . S
C1446 C1440 1.383 . S
C1446 C1445 1.379 . S
H1447 C1441 0.959 . S
H1448 C1441 0.961 . S
H1449 C1441 0.960 . S
H1450 C1442 0.930 . S
H1451 C1443 0.929 . S
H1452 C1460 0.929 . S
H1453 C1462 0.930 . S
H1454 C1464 0.930 . S
H1455 C1467 0.929 . S
H1456 C1470 0.930 . S
H1457 C1472 0.960 . S
H1458 C1472 0.960 . S
H1459 C1472 0.960 . S
C1460 H1452 0.929 . S
C1460 C1461 1.377 . S
C1460 C1462 1.384 . S
C1461 C1460 1.377 . S
C1461 C1467 1.390 . S
C1462 H1453 0.930 . S
C1462 C1460 1.384 . S
C1462 C1463 1.372 . S
C1463 C1462 1.372 . S
C1463 C1464 1.400 . S
C1463 C1468 1.490 . S
C1464 H1454 0.930 . S
C1464 C1463 1.400 . S
C1464 C1467 1.386 . S
H1465 C1481 0.930 . S
H1466 C1482 0.931 . S
C1467 H1455 0.929 . S
C1467 C1461 1.390 . S
C1467 C1464 1.386 . S
C1468 C1463 1.490 . S
C1468 C1470 1.395 . S
C1468 C1471 1.403 . S
H1469 C1475 0.930 . S
C1470 H1456 0.930 . S
C1470 C1468 1.395 . S
C1470 C1473 1.403 . S
C1471 C1468 1.403 . S
C1471 C1472 1.524 . S
C1471 C1475 1.400 . S
C1472 H1457 0.960 . S
C1472 H1458 0.960 . S
C1472 H1459 0.960 . S
C1472 C1471 1.524 . S
C1473 C1470 1.403 . S
C1473 C1474 1.392 . S
C1473 C1477 1.495 . S
C1474 C1473 1.392 . S
C1474 C1475 1.385 . S
C1474 C1476 1.478 . S
C1475 H1469 0.930 . S
C1475 C1471 1.400 . S
C1475 C1474 1.385 . S
C1476 C1474 1.478 . S
C1476 C1478 1.381 . S
C1476 C1482 1.383 . S
C1477 C1473 1.495 . S
C1477 H1483 0.959 . S
C1477 H1484 0.961 . S
C1477 H1485 0.960 . S
C1478 C1476 1.381 . S
C1478 C1479 1.394 . S
C1478 H1486 0.930 . S
C1479 C1478 1.394 . S
C1479 C1480 1.383 . S
C1479 H1487 0.929 . S
C1480 C1479 1.383 . S
C1480 C1481 1.377 . S
C1481 H1465 0.930 . S
C1481 C1480 1.377 . S
C1481 C1482 1.379 . S
C1482 H1466 0.931 . S
C1482 C1476 1.383 . S
C1482 C1481 1.379 . S
H1483 C1477 0.959 . S
H1484 C1477 0.961 . S
H1485 C1477 0.960 . S
H1486 C1478 0.930 . S
H1487 C1479 0.929 . S
H1488 C1496 0.929 . S
H1489 C1498 0.930 . S
H1490 C1500 0.930 . S
H1491 C1503 0.929 . S
H1492 C1506 0.930 . S
H1493 C1508 0.960 . S
H1494 C1508 0.960 . S
H1495 C1508 0.960 . S
C1496 H1488 0.929 . S
C1496 C1497 1.377 . S
C1496 C1498 1.384 . S
C1497 C1496 1.377 . S
C1497 C1503 1.390 1_556 S
C1498 H1489 0.930 . S
C1498 C1496 1.384 . S
C1498 C1499 1.372 . S
C1499 C1498 1.372 . S
C1499 C1500 1.400 1_556 S
C1499 C1504 1.490 . S
C1500 H1490 0.930 . S
C1500 C1499 1.400 1_554 S
C1500 C1503 1.386 . S
H1501 C1517 0.930 . S
H1502 C1518 0.931 . S
C1503 H1491 0.929 . S
C1503 C1497 1.390 1_554 S
C1503 C1500 1.386 . S
C1504 C1499 1.490 . S
C1504 C1506 1.395 . S
C1504 C1507 1.403 1_556 S
H1505 C1511 0.930 . S
C1506 H1492 0.930 . S
C1506 C1504 1.395 . S
C1506 C1509 1.403 1_565 S
C1507 C1504 1.403 1_554 S
C1507 C1508 1.524 . S
C1507 C1511 1.400 1_565 S
C1508 H1493 0.960 . S
C1508 H1494 0.960 . S
C1508 H1495 0.960 . S
C1508 C1507 1.524 . S
C1509 C1506 1.403 1_545 S
C1509 C1510 1.461 . S
C1509 C1513 1.495 . S
C1510 C1509 1.461 . S
C1510 C1511 1.324 1_556 S
C1510 C1512 1.465 1_556 S
C1511 H1505 0.930 . S
C1511 C1507 1.400 1_545 S
C1511 C1510 1.324 1_554 S
C1512 C1510 1.465 1_554 S
C1512 C1514 1.344 1_554 S
C1512 C1518 1.441 . S
C1513 C1509 1.495 . S
C1513 H1519 0.959 . S
C1513 H1520 0.961 . S
C1513 H1521 0.960 . S
C1514 C1512 1.344 1_556 S
C1514 C1515 1.394 . S
C1514 H1522 0.930 . S
C1515 C1514 1.394 . S
C1515 C1516 1.383 1_556 S
C1515 H1523 0.929 . S
C1516 C1515 1.383 1_554 S
C1516 C1517 1.377 . S
C1517 H1501 0.930 . S
C1517 C1516 1.377 . S
C1517 C1518 1.379 . S
C1518 H1502 0.931 . S
C1518 C1512 1.441 . S
C1518 C1517 1.379 . S
H1519 C1513 0.959 . S
H1520 C1513 0.961 . S
H1521 C1513 0.960 . S
H1522 C1514 0.930 . S
H1523 C1515 0.929 . S
H1524 C1532 0.929 . S
H1525 C1534 0.930 . S
H1526 C1536 0.930 . S
H1527 C1539 0.929 . S
H1528 C1542 0.930 . S
H1529 C1544 0.960 . S
H1530 C1544 0.960 . S
H1531 C1544 0.960 . S
C1532 H1524 0.929 . S
C1532 C1533 1.377 . S
C1532 C1534 1.384 . S
C1533 C1532 1.377 . S
C1533 C1539 1.390 . S
C1534 H1525 0.930 . S
C1534 C1532 1.384 . S
C1534 C1535 1.372 . S
C1535 C1534 1.372 . S
C1535 C1536 1.400 . S
C1535 C1540 1.490 . S
C1536 H1526 0.930 . S
C1536 C1535 1.400 . S
C1536 C1539 1.386 . S
H1537 C1553 0.930 . S
H1538 C1554 0.931 . S
C1539 H1527 0.929 . S
C1539 C1533 1.390 . S
C1539 C1536 1.386 . S
C1540 C1535 1.490 . S
C1540 C1542 1.395 . S
C1540 C1543 1.403 . S
H1541 C1547 0.930 . S
C1542 H1528 0.930 . S
C1542 C1540 1.395 . S
C1542 C1545 1.403 . S
C1543 C1540 1.403 . S
C1543 C1544 1.524 . S
C1543 C1547 1.400 . S
C1544 H1529 0.960 . S
C1544 H1530 0.960 . S
C1544 H1531 0.960 . S
C1544 C1543 1.524 . S
C1545 C1542 1.403 . S
C1545 C1546 1.392 . S
C1545 C1549 1.495 . S
C1546 C1545 1.392 . S
C1546 C1547 1.385 . S
C1546 C1548 1.478 . S
C1547 H1541 0.930 . S
C1547 C1543 1.400 . S
C1547 C1546 1.385 . S
C1548 C1546 1.478 . S
C1548 C1550 1.381 . S
C1548 C1554 1.383 . S
C1549 C1545 1.495 . S
C1549 H1555 0.959 . S
C1549 H1556 0.961 . S
C1549 H1557 0.960 . S
C1550 C1548 1.381 . S
C1550 C1551 1.394 . S
C1550 H1558 0.930 . S
C1551 C1550 1.394 . S
C1551 C1552 1.383 . S
C1551 H1559 0.929 . S
C1552 C1551 1.383 . S
C1552 C1553 1.377 . S
C1553 H1537 0.930 . S
C1553 C1552 1.377 . S
C1553 C1554 1.379 . S
C1554 H1538 0.931 . S
C1554 C1548 1.383 . S
C1554 C1553 1.379 . S
H1555 C1549 0.959 . S
H1556 C1549 0.961 . S
H1557 C1549 0.960 . S
H1558 C1550 0.930 . S
H1559 C1551 0.929 . S
H1560 C1568 0.929 . S
H1561 C1570 0.930 . S
H1562 C1572 0.930 . S
H1563 C1575 0.929 . S
H1564 C1578 0.930 . S
H1565 C1580 0.960 . S
H1566 C1580 0.960 . S
H1567 C1580 0.960 . S
C1568 H1560 0.929 . S
C1568 C1569 1.377 . S
C1568 C1570 1.384 . S
C1569 C1568 1.377 . S
C1569 C1575 1.390 . S
C1570 H1561 0.930 . S
C1570 C1568 1.384 . S
C1570 C1571 1.372 . S
C1571 C1570 1.372 . S
C1571 C1572 1.400 . S
C1571 C1576 1.490 . S
C1572 H1562 0.930 . S
C1572 C1571 1.400 . S
C1572 C1575 1.386 . S
H1573 C1589 0.930 . S
H1574 C1590 0.931 . S
C1575 H1563 0.929 . S
C1575 C1569 1.390 . S
C1575 C1572 1.386 . S
C1576 C1571 1.490 . S
C1576 C1578 1.395 . S
C1576 C1579 1.403 . S
H1577 C1583 0.930 . S
C1578 H1564 0.930 . S
C1578 C1576 1.395 . S
C1578 C1581 1.403 1_655 S
C1579 C1576 1.403 . S
C1579 C1580 1.524 . S
C1579 C1583 1.400 1_655 S
C1580 H1565 0.960 . S
C1580 H1566 0.960 . S
C1580 H1567 0.960 . S
C1580 C1579 1.524 . S
C1581 C1578 1.403 1_455 S
C1581 C1582 1.392 . S
C1581 C1585 1.495 . S
C1582 C1581 1.392 . S
C1582 C1583 1.385 . S
C1582 C1584 1.478 . S
C1583 H1577 0.930 . S
C1583 C1579 1.400 1_455 S
C1583 C1582 1.385 . S
C1584 C1582 1.478 . S
C1584 C1586 1.381 . S
C1584 C1590 1.383 . S
C1585 C1581 1.495 . S
C1585 H1591 0.959 . S
C1585 H1592 0.961 . S
C1585 H1593 0.960 . S
C1586 C1584 1.381 . S
C1586 C1587 1.394 . S
C1586 H1594 0.930 . S
C1587 C1586 1.394 . S
C1587 C1588 1.383 . S
C1587 H1595 0.929 . S
C1588 C1587 1.383 . S
C1588 C1589 1.377 . S
C1589 H1573 0.930 . S
C1589 C1588 1.377 . S
C1589 C1590 1.379 . S
C1590 H1574 0.931 . S
C1590 C1584 1.383 . S
C1590 C1589 1.379 . S
H1591 C1585 0.959 . S
H1592 C1585 0.961 . S
H1593 C1585 0.960 . S
H1594 C1586 0.930 . S
H1595 C1587 0.929 . S
H1596 C1604 0.929 1_556 S
H1597 C1606 0.956 . S
H1598 C1608 0.930 . S
H1599 C1611 0.929 . S
H1600 C1614 0.930 . S
H1601 C1616 0.960 . S
H1602 C1616 0.960 . S
H1603 C1616 0.960 . S
C1604 H1596 0.929 1_554 S
C1604 C1605 1.377 . S
C1604 C1606 1.378 1_554 S
C1605 C1604 1.377 . S
C1605 C1611 1.390 . S
C1606 H1597 0.956 . S
C1606 C1604 1.378 1_556 S
C1606 C1607 1.357 1_556 S
C1607 C1606 1.357 1_554 S
C1607 C1608 1.400 . S
C1607 C1612 1.490 . S
C1608 H1598 0.930 . S
C1608 C1607 1.400 . S
C1608 C1611 1.386 . S
H1609 C1625 0.952 . S
H1610 C1626 0.931 . S
C1611 H1599 0.929 . S
C1611 C1605 1.390 . S
C1611 C1608 1.386 . S
C1612 C1607 1.490 . S
C1612 C1614 1.395 . S
C1612 C1615 1.403 1_554 S
H1613 C1619 0.930 . S
C1614 H1600 0.930 . S
C1614 C1612 1.395 . S
C1614 C1617 1.403 1_565 S
C1615 C1612 1.403 1_556 S
C1615 C1616 1.524 . S
C1615 C1619 1.400 1_565 S
C1616 H1601 0.960 . S
C1616 H1602 0.960 . S
C1616 H1603 0.960 . S
C1616 C1615 1.524 . S
C1617 C1614 1.403 1_545 S
C1617 C1618 1.369 1_554 S
C1617 C1621 1.495 . S
C1618 C1617 1.369 1_556 S
C1618 C1619 1.405 . S
C1618 C1620 1.483 . S
C1619 H1613 0.930 . S
C1619 C1615 1.400 1_545 S
C1619 C1618 1.405 . S
C1620 C1618 1.483 . S
C1620 C1622 1.381 . S
C1620 C1626 1.383 1_556 S
C1621 C1617 1.495 . S
C1621 H1627 0.959 . S
C1621 H1628 0.961 . S
C1621 H1629 0.960 . S
C1622 C1620 1.381 . S
C1622 C1623 1.394 . S
C1622 H1630 0.930 . S
C1623 C1622 1.394 . S
C1623 C1624 1.383 . S
C1623 H1631 0.929 . S
C1624 C1623 1.383 . S
C1624 C1625 1.348 1_556 S
C1625 H1609 0.952 . S
C1625 C1624 1.348 1_554 S
C1625 C1626 1.390 . S
C1626 H1610 0.931 . S
C1626 C1620 1.383 1_554 S
C1626 C1625 1.390 . S
H1627 C1621 0.959 . S
H1628 C1621 0.961 . S
H1629 C1621 0.960 . S
H1630 C1622 0.930 . S
H1631 C1623 0.929 . S
H1632 C1640 0.929 . S
H1633 C1642 0.930 . S
H1634 C1644 0.930 . S
H1635 C1647 0.929 . S
H1636 C1650 0.930 . S
H1637 C1652 0.960 . S
H1638 C1652 0.960 . S
H1639 C1652 0.960 . S
C1640 H1632 0.929 . S
C1640 C1641 1.377 . S
C1640 C1642 1.384 . S
C1641 C1640 1.377 . S
C1641 C1647 1.390 . S
C1642 H1633 0.930 . S
C1642 C1640 1.384 . S
C1642 C1643 1.372 . S
C1643 C1642 1.372 . S
C1643 C1644 1.400 . S
C1643 C1648 1.490 . S
C1644 H1634 0.930 . S
C1644 C1643 1.400 . S
C1644 C1647 1.386 . S
H1645 C1661 0.930 . S
H1646 C1662 0.931 . S
C1647 H1635 0.929 . S
C1647 C1641 1.390 . S
C1647 C1644 1.386 . S
C1648 C1643 1.490 . S
C1648 C1650 1.395 . S
C1648 C1651 1.403 . S
H1649 C1655 0.930 . S
C1650 H1636 0.930 . S
C1650 C1648 1.395 . S
C1650 C1653 1.403 . S
C1651 C1648 1.403 . S
C1651 C1652 1.524 . S
C1651 C1655 1.400 . S
C1652 H1637 0.960 . S
C1652 H1638 0.960 . S
C1652 H1639 0.960 . S
C1652 C1651 1.524 . S
C1653 C1650 1.403 . S
C1653 C1654 1.392 . S
C1653 C1657 1.495 . S
C1654 C1653 1.392 . S
C1654 C1655 1.385 . S
C1654 C1656 1.478 . S
C1655 H1649 0.930 . S
C1655 C1651 1.400 . S
C1655 C1654 1.385 . S
C1656 C1654 1.478 . S
C1656 C1658 1.381 . S
C1656 C1662 1.383 . S
C1657 C1653 1.495 . S
C1657 H1663 0.959 . S
C1657 H1664 0.961 . S
C1657 H1665 0.960 . S
C1658 C1656 1.381 . S
C1658 C1659 1.394 . S
C1658 H1666 0.930 . S
C1659 C1658 1.394 . S
C1659 C1660 1.383 . S
C1659 H1667 0.929 . S
C1660 C1659 1.383 . S
C1660 C1661 1.377 . S
C1661 H1645 0.930 . S
C1661 C1660 1.377 . S
C1661 C1662 1.379 . S
C1662 H1646 0.931 . S
C1662 C1656 1.383 . S
C1662 C1661 1.379 . S
H1663 C1657 0.959 . S
H1664 C1657 0.961 . S
H1665 C1657 0.960 . S
H1666 C1658 0.930 . S
H1667 C1659 0.929 . S
H1668 C1676 0.929 . S
H1669 C1678 0.930 . S
H1670 C1680 0.930 . S
H1671 C1683 0.929 . S
H1672 C1686 0.930 . S
H1673 C1688 0.960 . S
H1674 C1688 0.960 . S
H1675 C1688 0.960 . S
C1676 H1668 0.929 . S
C1676 C1677 1.377 . S
C1676 C1678 1.384 . S
C1677 C1676 1.377 . S
C1677 C1683 1.390 . S
C1678 H1669 0.930 . S
C1678 C1676 1.384 . S
C1678 C1679 1.372 . S
C1679 C1678 1.372 . S
C1679 C1680 1.400 . S
C1679 C1684 1.490 . S
C1680 H1670 0.930 . S
C1680 C1679 1.400 . S
C1680 C1683 1.386 . S
H1681 C1697 0.930 . S
H1682 C1698 0.931 . S
C1683 H1671 0.929 . S
C1683 C1677 1.390 . S
C1683 C1680 1.386 . S
C1684 C1679 1.490 . S
C1684 C1686 1.395 . S
C1684 C1687 1.403 . S
H1685 C1691 0.930 . S
C1686 H1672 0.930 . S
C1686 C1684 1.395 . S
C1686 C1689 1.403 1_455 S
C1687 C1684 1.403 . S
C1687 C1688 1.524 . S
C1687 C1691 1.400 1_455 S
C1688 H1673 0.960 . S
C1688 H1674 0.960 . S
C1688 H1675 0.960 . S
C1688 C1687 1.524 . S
C1689 C1686 1.403 1_655 S
C1689 C1690 1.392 . S
C1689 C1693 1.495 . S
C1690 C1689 1.392 . S
C1690 C1691 1.385 . S
C1690 C1692 1.478 . S
C1691 H1685 0.930 . S
C1691 C1687 1.400 1_655 S
C1691 C1690 1.385 . S
C1692 C1690 1.478 . S
C1692 C1694 1.381 . S
C1692 C1698 1.383 . S
C1693 C1689 1.495 . S
C1693 H1699 0.959 . S
C1693 H1700 0.961 . S
C1693 H1701 0.960 . S
C1694 C1692 1.381 . S
C1694 C1695 1.394 . S
C1694 H1702 0.930 . S
C1695 C1694 1.394 . S
C1695 C1696 1.383 . S
C1695 H1703 0.929 . S
C1696 C1695 1.383 . S
C1696 C1697 1.377 . S
C1697 H1681 0.930 . S
C1697 C1696 1.377 . S
C1697 C1698 1.379 . S
C1698 H1682 0.931 . S
C1698 C1692 1.383 . S
C1698 C1697 1.379 . S
H1699 C1693 0.959 . S
H1700 C1693 0.961 . S
H1701 C1693 0.960 . S
H1702 C1694 0.930 . S
H1703 C1695 0.929 . S
H1704 C1712 0.929 . S
H1705 C1714 0.930 . S
H1706 C1716 0.930 . S
H1707 C1719 0.929 . S
H1708 C1722 0.930 . S
H1709 C1724 0.960 . S
H1710 C1724 0.960 . S
H1711 C1724 0.960 . S
C1712 H1704 0.929 . S
C1712 C1713 1.377 . S
C1712 C1714 1.384 . S
C1713 C1712 1.377 . S
C1713 C1719 1.390 . S
C1714 H1705 0.930 . S
C1714 C1712 1.384 . S
C1714 C1715 1.372 . S
C1715 C1714 1.372 . S
C1715 C1716 1.400 . S
C1715 C1720 1.490 . S
C1716 H1706 0.930 . S
C1716 C1715 1.400 . S
C1716 C1719 1.386 . S
H1717 C1733 0.930 . S
H1718 C1734 0.931 . S
C1719 H1707 0.929 . S
C1719 C1713 1.390 . S
C1719 C1716 1.386 . S
C1720 C1715 1.490 . S
C1720 C1722 1.395 1_556 S
C1720 C1723 1.403 . S
H1721 C1727 0.930 . S
C1722 H1708 0.930 . S
C1722 C1720 1.395 1_554 S
C1722 C1725 1.403 . S
C1723 C1720 1.403 . S
C1723 C1724 1.524 . S
C1723 C1727 1.400 . S
C1724 H1709 0.960 . S
C1724 H1710 0.960 . S
C1724 H1711 0.960 . S
C1724 C1723 1.524 . S
C1725 C1722 1.403 . S
C1725 C1726 1.392 . S
C1725 C1729 1.495 . S
C1726 C1725 1.392 . S
C1726 C1727 1.385 1_554 S
C1726 C1728 1.478 . S
C1727 H1721 0.930 . S
C1727 C1723 1.400 . S
C1727 C1726 1.385 1_556 S
C1728 C1726 1.478 . S
C1728 C1730 1.381 . S
C1728 C1734 1.383 . S
C1729 C1725 1.495 . S
C1729 H1735 0.959 . S
C1729 H1736 0.961 . S
C1729 H1737 0.960 . S
C1730 C1728 1.381 . S
C1730 C1731 1.394 . S
C1730 H1738 0.930 . S
C1731 C1730 1.394 . S
C1731 C1732 1.383 . S
C1731 H1739 0.929 . S
C1732 C1731 1.383 . S
C1732 C1733 1.377 . S
C1733 H1717 0.930 . S
C1733 C1732 1.377 . S
C1733 C1734 1.379 . S
C1734 H1718 0.931 . S
C1734 C1728 1.383 . S
C1734 C1733 1.379 . S
H1735 C1729 0.959 . S
H1736 C1729 0.961 . S
H1737 C1729 0.960 . S
H1738 C1730 0.930 . S
H1739 C1731 0.929 . S
H1740 C1748 0.929 . S
H1741 C1750 0.930 . S
H1742 C1752 0.930 . S
H1743 C1755 0.929 . S
H1744 C1758 0.930 . S
H1745 C1760 0.960 . S
H1746 C1760 0.960 . S
H1747 C1760 0.960 . S
C1748 H1740 0.929 . S
C1748 C1749 1.377 . S
C1748 C1750 1.384 . S
C1749 C1748 1.377 . S
C1749 C1755 1.390 . S
C1750 H1741 0.930 . S
C1750 C1748 1.384 . S
C1750 C1751 1.372 . S
C1751 C1750 1.372 . S
C1751 C1752 1.400 . S
C1751 C1756 1.490 . S
C1752 H1742 0.930 . S
C1752 C1751 1.400 . S
C1752 C1755 1.386 . S
H1753 C1769 0.930 . S
H1754 C1770 0.931 . S
C1755 H1743 0.929 . S
C1755 C1749 1.390 . S
C1755 C1752 1.386 . S
C1756 C1751 1.490 . S
C1756 C1758 1.395 . S
C1756 C1759 1.403 . S
H1757 C1763 0.930 . S
C1758 H1744 0.930 . S
C1758 C1756 1.395 . S
C1758 C1761 1.403 . S
C1759 C1756 1.403 . S
C1759 C1760 1.524 . S
C1759 C1763 1.400 . S
C1760 H1745 0.960 . S
C1760 H1746 0.960 . S
C1760 H1747 0.960 . S
C1760 C1759 1.524 . S
C1761 C1758 1.403 . S
C1761 C1762 1.392 . S
C1761 C1765 1.495 . S
C1762 C1761 1.392 . S
C1762 C1763 1.385 . S
C1762 C1764 1.478 . S
C1763 H1757 0.930 . S
C1763 C1759 1.400 . S
C1763 C1762 1.385 . S
C1764 C1762 1.478 . S
C1764 C1766 1.381 . S
C1764 C1770 1.383 . S
C1765 C1761 1.495 . S
C1765 H1771 0.959 . S
C1765 H1772 0.961 . S
C1765 H1773 0.960 . S
C1766 C1764 1.381 . S
C1766 C1767 1.394 . S
C1766 H1774 0.930 . S
C1767 C1766 1.394 . S
C1767 C1768 1.383 . S
C1767 H1775 0.929 . S
C1768 C1767 1.383 . S
C1768 C1769 1.377 . S
C1769 H1753 0.930 . S
C1769 C1768 1.377 . S
C1769 C1770 1.379 . S
C1770 H1754 0.931 . S
C1770 C1764 1.383 . S
C1770 C1769 1.379 . S
H1771 C1765 0.959 . S
H1772 C1765 0.961 . S
H1773 C1765 0.960 . S
H1774 C1766 0.930 . S
H1775 C1767 0.929 . S
H1776 C1784 0.929 . S
H1777 C1786 0.930 . S
H1778 C1788 0.930 . S
H1779 C1791 0.929 . S
H1780 C1794 0.930 . S
H1781 C1796 0.960 . S
H1782 C1796 0.960 . S
H1783 C1796 0.960 . S
C1784 H1776 0.929 . S
C1784 C1785 1.377 . S
C1784 C1786 1.384 . S
C1785 C1784 1.377 . S
C1785 C1791 1.390 . S
C1786 H1777 0.930 . S
C1786 C1784 1.384 . S
C1786 C1787 1.372 . S
C1787 C1786 1.372 . S
C1787 C1788 1.400 . S
C1787 C1792 1.490 . S
C1788 H1778 0.930 . S
C1788 C1787 1.400 . S
C1788 C1791 1.386 . S
H1789 C1805 0.930 . S
H1790 C1806 0.931 . S
C1791 H1779 0.929 . S
C1791 C1785 1.390 . S
C1791 C1788 1.386 . S
C1792 C1787 1.490 . S
C1792 C1794 1.395 . S
C1792 C1795 1.403 . S
H1793 C1799 0.930 . S
C1794 H1780 0.930 . S
C1794 C1792 1.395 . S
C1794 C1797 1.403 . S
C1795 C1792 1.403 . S
C1795 C1796 1.524 . S
C1795 C1799 1.400 . S
C1796 H1781 0.960 . S
C1796 H1782 0.960 . S
C1796 H1783 0.960 . S
C1796 C1795 1.524 . S
C1797 C1794 1.403 . S
C1797 C1798 1.392 . S
C1797 C1801 1.495 . S
C1798 C1797 1.392 . S
C1798 C1799 1.385 . S
C1798 C1800 1.478 . S
C1799 H1793 0.930 . S
C1799 C1795 1.400 . S
C1799 C1798 1.385 . S
C1800 C1798 1.478 . S
C1800 C1802 1.381 . S
C1800 C1806 1.383 . S
C1801 C1797 1.495 . S
C1801 H1807 0.959 . S
C1801 H1808 0.961 . S
C1801 H1809 0.960 . S
C1802 C1800 1.381 . S
C1802 C1803 1.394 . S
C1802 H1810 0.930 . S
C1803 C1802 1.394 . S
C1803 C1804 1.383 . S
C1803 H1811 0.929 . S
C1804 C1803 1.383 . S
C1804 C1805 1.377 . S
C1805 H1789 0.930 . S
C1805 C1804 1.377 . S
C1805 C1806 1.379 . S
C1806 H1790 0.931 . S
C1806 C1800 1.383 . S
C1806 C1805 1.379 . S
H1807 C1801 0.959 . S
H1808 C1801 0.961 . S
H1809 C1801 0.960 . S
H1810 C1802 0.930 . S
H1811 C1803 0.929 . S
H1812 C1820 0.929 . S
H1813 C1822 0.930 . S
H1814 C1824 0.930 . S
H1815 C1827 0.929 . S
H1816 C1830 0.930 . S
H1817 C1832 0.960 . S
H1818 C1832 0.960 . S
H1819 C1832 0.960 . S
C1820 H1812 0.929 . S
C1820 C1821 1.377 . S
C1820 C1822 1.384 . S
C1821 C1820 1.377 . S
C1821 C1827 1.390 . S
C1822 H1813 0.930 . S
C1822 C1820 1.384 . S
C1822 C1823 1.372 . S
C1823 C1822 1.372 . S
C1823 C1824 1.400 . S
C1823 C1828 1.490 . S
C1824 H1814 0.930 . S
C1824 C1823 1.400 . S
C1824 C1827 1.386 . S
H1825 C1841 0.930 . S
H1826 C1842 0.931 . S
C1827 H1815 0.929 . S
C1827 C1821 1.390 . S
C1827 C1824 1.386 . S
C1828 C1823 1.490 . S
C1828 C1830 1.395 1_554 S
C1828 C1831 1.403 . S
H1829 C1835 0.930 . S
C1830 H1816 0.930 . S
C1830 C1828 1.395 1_556 S
C1830 C1833 1.403 . S
C1831 C1828 1.403 . S
C1831 C1832 1.524 . S
C1831 C1835 1.400 . S
C1832 H1817 0.960 . S
C1832 H1818 0.960 . S
C1832 H1819 0.960 . S
C1832 C1831 1.524 . S
C1833 C1830 1.403 . S
C1833 C1834 1.392 . S
C1833 C1837 1.495 . S
C1834 C1833 1.392 . S
C1834 C1835 1.385 1_556 S
C1834 C1836 1.478 . S
C1835 H1829 0.930 . S
C1835 C1831 1.400 . S
C1835 C1834 1.385 1_554 S
C1836 C1834 1.478 . S
C1836 C1838 1.381 . S
C1836 C1842 1.383 . S
C1837 C1833 1.495 . S
C1837 H1843 0.959 . S
C1837 H1844 0.961 . S
C1837 H1845 0.960 . S
C1838 C1836 1.381 . S
C1838 C1839 1.394 . S
C1838 H1846 0.930 . S
C1839 C1838 1.394 . S
C1839 C1840 1.383 . S
C1839 H1847 0.929 . S
C1840 C1839 1.383 . S
C1840 C1841 1.377 . S
C1841 H1825 0.930 . S
C1841 C1840 1.377 . S
C1841 C1842 1.379 . S
C1842 H1826 0.931 . S
C1842 C1836 1.383 . S
C1842 C1841 1.379 . S
H1843 C1837 0.959 . S
H1844 C1837 0.961 . S
H1845 C1837 0.960 . S
H1846 C1838 0.930 . S
H1847 C1839 0.929 . S
H1848 C1856 0.929 . S
H1849 C1858 0.930 . S
H1850 C1860 0.930 . S
H1851 C1863 0.929 . S
H1852 C1866 0.930 . S
H1853 C1868 0.960 . S
H1854 C1868 0.960 . S
H1855 C1868 0.960 . S
C1856 H1848 0.929 . S
C1856 C1857 1.377 . S
C1856 C1858 1.384 . S
C1857 C1856 1.377 . S
C1857 C1863 1.390 . S
C1858 H1849 0.930 . S
C1858 C1856 1.384 . S
C1858 C1859 1.372 . S
C1859 C1858 1.372 . S
C1859 C1860 1.400 . S
C1859 C1864 1.490 . S
C1860 H1850 0.930 . S
C1860 C1859 1.400 . S
C1860 C1863 1.386 . S
H1861 C1877 0.930 . S
H1862 C1878 0.931 . S
C1863 H1851 0.929 . S
C1863 C1857 1.390 . S
C1863 C1860 1.386 . S
C1864 C1859 1.490 . S
C1864 C1866 1.395 . S
C1864 C1867 1.403 . S
H1865 C1871 0.930 . S
C1866 H1852 0.930 . S
C1866 C1864 1.395 . S
C1866 C1869 1.403 . S
C1867 C1864 1.403 . S
C1867 C1868 1.524 . S
C1867 C1871 1.400 . S
C1868 H1853 0.960 . S
C1868 H1854 0.960 . S
C1868 H1855 0.960 . S
C1868 C1867 1.524 . S
C1869 C1866 1.403 . S
C1869 C1870 1.392 . S
C1869 C1873 1.495 . S
C1870 C1869 1.392 . S
C1870 C1871 1.385 . S
C1870 C1872 1.478 . S
C1871 H1865 0.930 . S
C1871 C1867 1.400 . S
C1871 C1870 1.385 . S
C1872 C1870 1.478 . S
C1872 C1874 1.381 . S
C1872 C1878 1.383 . S
C1873 C1869 1.495 . S
C1873 H1879 0.959 . S
C1873 H1880 0.961 . S
C1873 H1881 0.960 . S
C1874 C1872 1.381 . S
C1874 C1875 1.394 . S
C1874 H1882 0.930 . S
C1875 C1874 1.394 . S
C1875 C1876 1.383 . S
C1875 H1883 0.929 . S
C1876 C1875 1.383 . S
C1876 C1877 1.377 . S
C1877 H1861 0.930 . S
C1877 C1876 1.377 . S
C1877 C1878 1.379 . S
C1878 H1862 0.931 . S
C1878 C1872 1.383 . S
C1878 C1877 1.379 . S
H1879 C1873 0.959 . S
H1880 C1873 0.961 . S
H1881 C1873 0.960 . S
H1882 C1874 0.930 . S
H1883 C1875 0.929 . S
H1884 C1892 0.929 . S
H1885 C1894 0.930 . S
H1886 C1896 0.930 . S
H1887 C1899 0.929 . S
H1888 C1902 0.930 . S
H1889 C1904 0.960 . S
H1890 C1904 0.960 . S
H1891 C1904 0.960 . S
C1892 H1884 0.929 . S
C1892 C1893 1.377 . S
C1892 C1894 1.384 . S
C1893 C1892 1.377 . S
C1893 C1899 1.390 . S
C1894 H1885 0.930 . S
C1894 C1892 1.384 . S
C1894 C1895 1.372 . S
C1895 C1894 1.372 . S
C1895 C1896 1.400 . S
C1895 C1900 1.490 . S
C1896 H1886 0.930 . S
C1896 C1895 1.400 . S
C1896 C1899 1.386 . S
H1897 C1913 0.930 . S
H1898 C1914 0.931 . S
C1899 H1887 0.929 . S
C1899 C1893 1.390 . S
C1899 C1896 1.386 . S
C1900 C1895 1.490 . S
C1900 C1902 1.395 . S
C1900 C1903 1.403 . S
H1901 C1907 0.930 . S
C1902 H1888 0.930 . S
C1902 C1900 1.395 . S
C1902 C1905 1.403 . S
C1903 C1900 1.403 . S
C1903 C1904 1.524 . S
C1903 C1907 1.400 . S
C1904 H1889 0.960 . S
C1904 H1890 0.960 . S
C1904 H1891 0.960 . S
C1904 C1903 1.524 . S
C1905 C1902 1.403 . S
C1905 C1906 1.392 . S
C1905 C1909 1.495 . S
C1906 C1905 1.392 . S
C1906 C1907 1.385 . S
C1906 C1908 1.478 . S
C1907 H1901 0.930 . S
C1907 C1903 1.400 . S
C1907 C1906 1.385 . S
C1908 C1906 1.478 . S
C1908 C1910 1.381 . S
C1908 C1914 1.383 . S
C1909 C1905 1.495 . S
C1909 H1915 0.959 . S
C1909 H1916 0.961 . S
C1909 H1917 0.960 . S
C1910 C1908 1.381 . S
C1910 C1911 1.394 . S
C1910 H1918 0.930 . S
C1911 C1910 1.394 . S
C1911 C1912 1.383 . S
C1911 H1919 0.929 . S
C1912 C1911 1.383 . S
C1912 C1913 1.377 . S
C1913 H1897 0.930 . S
C1913 C1912 1.377 . S
C1913 C1914 1.379 . S
C1914 H1898 0.931 . S
C1914 C1908 1.383 . S
C1914 C1913 1.379 . S
H1915 C1909 0.959 . S
H1916 C1909 0.961 . S
H1917 C1909 0.960 . S
H1918 C1910 0.930 . S
H1919 C1911 0.929 . S
C1065 C293 1.685 . S
C1084 C20 1.658 . S
C1101 C108 1.687 . S
C1120 C372 1.662 . S
C1137 C460 1.696 . S
C1156 C205 1.713 . S
C1173 C585 1.690 . S
C1192 C849 1.699 . S
C1209 C929 1.692 . S
C1228 C665 1.707 . S
C1245 C761 1.684 . S
C1264 C1025 1.658 . S
C1281 C753 1.603 . S
C1300 C29 1.598 . S
C1317 C117 1.603 . S
C1336 C841 1.598 . S
C1353 C196 1.603 . S
C1372 C937 1.599 . S
C1389 C284 1.603 . S
C1408 C1017 1.598 . S
C1425 C577 1.603 . S
C1444 C381 1.601 . S
C1461 C673 1.603 . S
C1480 C469 1.599 . S
C1497 C636 0.863 . S
C1516 C49 0.874 . S
C1533 C137 0.848 . S
C1552 C733 0.806 . S
C1569 C233 0.865 . S
C1588 C821 0.899 . S
C1605 C321 0.863 . S
C1624 C900 0.904 . S
C1641 C997 0.865 . S
C1660 C401 0.902 . S
C1677 C489 0.855 . S
C1696 C557 0.881 . S
C1713 C909 1.012 . S
C1732 C57 1.024 . S
C1749 C988 1.011 . S
C1768 C145 1.023 . S
C1785 C548 1.012 . S
C1804 C225 1.019 . S
C1821 C313 1.012 . S
C1840 C645 1.024 . S
C1857 C409 1.010 . S
C1876 C724 1.007 . S
C1893 C497 1.011 . S
C1912 C812 1.024 . S
