# Generated by pormake.
# Topology wiu, (6)-cn, num edge types: 1
# Building blocks:
#     Node 0, Type 0, BuildingBlock: CUWYAW_clean_sbu_0, # of connection points: 6
#     Node 1, Type 0, BuildingBlock: CUWYAW_clean_sbu_0, # of connection points: 6
#     Node 2, Type 0, BuildingBlock: CUWYAW_clean_sbu_0, # of connection points: 6
#     Node 3, Type 0, BuildingBlock: CUWYAW_clean_sbu_0, # of connection points: 6
#     Node 4, Type 0, BuildingBlock: CUWYAW_clean_sbu_0, # of connection points: 6
#     Node 5, Type 0, BuildingBlock: CUWYAW_clean_sbu_0, # of connection points: 6
#     Node 6, Type 0, BuildingBlock: CUWYAW_clean_sbu_0, # of connection points: 6
#     Node 7, Type 0, BuildingBlock: CUWYAW_clean_sbu_0, # of connection points: 6
#     Node 8, Type 0, BuildingBlock: CUWYAW_clean_sbu_0, # of connection points: 6
#     Node 9, Type 0, BuildingBlock: CUWYAW_clean_sbu_0, # of connection points: 6
#     Node 10, Type 0, BuildingBlock: CUWYAW_clean_sbu_0, # of connection points: 6
#     Node 11, Type 0, BuildingBlock: CUWYAW_clean_sbu_0, # of connection points: 6
#     Node 12, Type 0, BuildingBlock: CUWYAW_clean_sbu_0, # of connection points: 6
#     Node 13, Type 0, BuildingBlock: CUWYAW_clean_sbu_0, # of connection points: 6
#     Node 14, Type 0, BuildingBlock: CUWYAW_clean_sbu_0, # of connection points: 6
#     Node 15, Type 0, BuildingBlock: CUWYAW_clean_sbu_0, # of connection points: 6
#     Edge 16, Type (0, 0), BuildingBlock: EZIPEK_clean_linker_0, # of connection points: 2
#     Edge 17, Type (0, 0), BuildingBlock: EZIPEK_clean_linker_0, # of connection points: 2
#     Edge 18, Type (0, 0), BuildingBlock: EZIPEK_clean_linker_0, # of connection points: 2
#     Edge 19, Type (0, 0), BuildingBlock: EZIPEK_clean_linker_0, # of connection points: 2
#     Edge 20, Type (0, 0), BuildingBlock: EZIPEK_clean_linker_0, # of connection points: 2
#     Edge 21, Type (0, 0), BuildingBlock: EZIPEK_clean_linker_0, # of connection points: 2
#     Edge 22, Type (0, 0), BuildingBlock: EZIPEK_clean_linker_0, # of connection points: 2
#     Edge 23, Type (0, 0), BuildingBlock: EZIPEK_clean_linker_0, # of connection points: 2
#     Edge 24, Type (0, 0), BuildingBlock: EZIPEK_clean_linker_0, # of connection points: 2
#     Edge 25, Type (0, 0), BuildingBlock: EZIPEK_clean_linker_0, # of connection points: 2
#     Edge 26, Type (0, 0), BuildingBlock: EZIPEK_clean_linker_0, # of connection points: 2
#     Edge 27, Type (0, 0), BuildingBlock: EZIPEK_clean_linker_0, # of connection points: 2
#     Edge 28, Type (0, 0), BuildingBlock: EZIPEK_clean_linker_0, # of connection points: 2
#     Edge 29, Type (0, 0), BuildingBlock: EZIPEK_clean_linker_0, # of connection points: 2
#     Edge 30, Type (0, 0), BuildingBlock: EZIPEK_clean_linker_0, # of connection points: 2
#     Edge 31, Type (0, 0), BuildingBlock: EZIPEK_clean_linker_0, # of connection points: 2
#     Edge 32, Type (0, 0), BuildingBlock: EZIPEK_clean_linker_0, # of connection points: 2
#     Edge 33, Type (0, 0), BuildingBlock: EZIPEK_clean_linker_0, # of connection points: 2
#     Edge 34, Type (0, 0), BuildingBlock: EZIPEK_clean_linker_0, # of connection points: 2
#     Edge 35, Type (0, 0), BuildingBlock: EZIPEK_clean_linker_0, # of connection points: 2
#     Edge 36, Type (0, 0), BuildingBlock: EZIPEK_clean_linker_0, # of connection points: 2
#     Edge 37, Type (0, 0), BuildingBlock: EZIPEK_clean_linker_0, # of connection points: 2
#     Edge 38, Type (0, 0), BuildingBlock: EZIPEK_clean_linker_0, # of connection points: 2
#     Edge 39, Type (0, 0), BuildingBlock: EZIPEK_clean_linker_0, # of connection points: 2
#     Edge 40, Type (0, 0), BuildingBlock: EZIPEK_clean_linker_0, # of connection points: 2
#     Edge 41, Type (0, 0), BuildingBlock: EZIPEK_clean_linker_0, # of connection points: 2
#     Edge 42, Type (0, 0), BuildingBlock: EZIPEK_clean_linker_0, # of connection points: 2
#     Edge 43, Type (0, 0), BuildingBlock: EZIPEK_clean_linker_0, # of connection points: 2
#     Edge 44, Type (0, 0), BuildingBlock: EZIPEK_clean_linker_0, # of connection points: 2
#     Edge 45, Type (0, 0), BuildingBlock: EZIPEK_clean_linker_0, # of connection points: 2
#     Edge 46, Type (0, 0), BuildingBlock: EZIPEK_clean_linker_0, # of connection points: 2
#     Edge 47, Type (0, 0), BuildingBlock: EZIPEK_clean_linker_0, # of connection points: 2
#     Edge 48, Type (0, 0), BuildingBlock: EZIPEK_clean_linker_0, # of connection points: 2
#     Edge 49, Type (0, 0), BuildingBlock: EZIPEK_clean_linker_0, # of connection points: 2
#     Edge 50, Type (0, 0), BuildingBlock: EZIPEK_clean_linker_0, # of connection points: 2
#     Edge 51, Type (0, 0), BuildingBlock: EZIPEK_clean_linker_0, # of connection points: 2
#     Edge 52, Type (0, 0), BuildingBlock: EZIPEK_clean_linker_0, # of connection points: 2
#     Edge 53, Type (0, 0), BuildingBlock: EZIPEK_clean_linker_0, # of connection points: 2
#     Edge 54, Type (0, 0), BuildingBlock: EZIPEK_clean_linker_0, # of connection points: 2
#     Edge 55, Type (0, 0), BuildingBlock: EZIPEK_clean_linker_0, # of connection points: 2
#     Edge 56, Type (0, 0), BuildingBlock: EZIPEK_clean_linker_0, # of connection points: 2
#     Edge 57, Type (0, 0), BuildingBlock: EZIPEK_clean_linker_0, # of connection points: 2
#     Edge 58, Type (0, 0), BuildingBlock: EZIPEK_clean_linker_0, # of connection points: 2
#     Edge 59, Type (0, 0), BuildingBlock: EZIPEK_clean_linker_0, # of connection points: 2
#     Edge 60, Type (0, 0), BuildingBlock: EZIPEK_clean_linker_0, # of connection points: 2
#     Edge 61, Type (0, 0), BuildingBlock: EZIPEK_clean_linker_0, # of connection points: 2
#     Edge 62, Type (0, 0), BuildingBlock: EZIPEK_clean_linker_0, # of connection points: 2
#     Edge 63, Type (0, 0), BuildingBlock: EZIPEK_clean_linker_0, # of connection points: 2
# Relax obj value: 0.696
# Max RMSD: 0.328
# Mean RMSD: 0.328
data_MOF--net-wiu--node1-CUWYAW_clean_sbu_0--edge1-EZIPEK_clean_linker_0
_symmetry_space_group_name_H-M    P1
_symmetry_Int_Tables_number       1
_symmetry_cell_setting            triclinic
loop_
_symmetry_equiv_pos_as_xyz
'x, y, z'
_cell_length_a     28.993486
_cell_length_b     29.113832
_cell_length_c     38.746712
_cell_angle_alpha  90.441401
_cell_angle_beta   89.770407
_cell_angle_gamma 89.674885
loop_
_atom_site_label
_atom_site_type_symbol
_atom_site_fract_x
_atom_site_fract_y
_atom_site_fract_z
_atom_type_partial_charge
C0 C 0.49605 0.11141 0.27486 0.0
Eu1 Eu 0.42911 0.14521 0.3122 0.0
C2 C 0.54131 0.13093 0.26685 0.0
C3 C 0.56336 0.11941 0.23582 0.0
C4 C 0.6047 0.14059 0.22698 0.0
C5 C 0.62441 0.17359 0.24901 0.0
C6 C 0.60273 0.1849 0.28027 0.0
C7 C 0.56124 0.16364 0.28911 0.0
C8 C 0.34773 0.1052 0.3316 0.0
C9 C 0.35025 0.19611 0.26826 0.0
C10 C 0.32579 0.27504 0.37539 0.0
Eu11 Eu 0.37874 0.20889 0.35102 0.0
C12 C 0.30588 0.31659 0.35971 0.0
C13 C 0.3223 0.33213 0.32766 0.0
C14 C 0.30827 0.3748 0.31493 0.0
C15 C 0.27754 0.40248 0.33402 0.0
C16 C 0.25986 0.3862 0.36545 0.0
C17 C 0.274 0.34355 0.37824 0.0
C18 C 0.46999 0.23618 0.34222 0.0
C19 C 0.42396 0.12694 0.39421 0.0
O20 O 0.48929 0.10058 0.30707 0.0
O21 O 0.46095 0.13323 0.26175 0.0
O22 O 0.38616 0.08311 0.32681 0.0
O23 O 0.35381 0.14661 0.32386 0.0
O24 O 0.38167 0.16307 0.26728 0.0
O25 O 0.3456 0.22133 0.29694 0.0
O26 O 0.31 0.23546 0.36514 0.0
O27 O 0.37047 0.27476 0.37723 0.0
O28 O 0.44885 0.23274 0.37152 0.0
O29 O 0.44326 0.22048 0.31909 0.0
O30 O 0.38708 0.15404 0.39305 0.0
O31 O 0.45239 0.12716 0.36735 0.0
H32 H 0.54829 0.09462 0.21825 0.0
H33 H 0.62119 0.13158 1.20269 0.0
H34 H 0.61765 0.21018 0.2975 0.0
H35 H 0.54434 0.173 0.31308 0.0
H36 H 0.34741 0.31211 0.31315 0.0
H37 H 0.32257 0.38695 0.29081 0.0
H38 H 0.23644 0.40731 0.38067 0.0
H39 H 0.26135 0.3324 0.40314 0.0
C40 C 0.74173 0.76007 0.538 0.0
Eu41 Eu 0.70847 0.69085 0.57163 0.0
C42 C 0.71912 0.80237 0.52642 0.0
C43 C 0.73504 0.82433 0.4968 0.0
C44 C 0.71261 0.86363 0.48508 0.0
C45 C 0.67387 0.88134 0.50275 0.0
C46 C 0.65803 0.85975 0.53262 0.0
C47 C 0.68065 0.82038 0.54441 0.0
C48 C 0.75001 0.61181 0.59363 0.0
C49 C 0.66168 0.61116 0.52514 0.0
C50 C 0.57947 0.58169 0.62832 0.0
Eu51 Eu 0.64296 0.63892 0.60754 0.0
C52 C 0.53223 0.57136 0.61657 0.0
C53 C 0.49727 0.60508 0.61708 0.0
C54 C 0.4533 0.59488 0.60467 0.0
C55 C 0.44379 0.55116 0.59112 0.0
C56 C 0.47853 0.5175 0.5905 0.0
C57 C 0.52241 0.52751 0.6032 0.0
C58 C 0.61169 0.7287 0.59722 0.0
C59 C 0.72408 0.68175 0.65448 0.0
O60 O 0.74483 0.75581 0.57138 0.0
O61 O 0.72865 0.72217 0.52276 0.0
O62 O 0.77155 0.64996 0.58785 0.0
O63 O 0.7089 0.61662 0.58399 0.0
O64 O 0.69495 0.64223 0.52586 0.0
O65 O 0.6337 0.60753 0.55238 0.0
O66 O 0.58668 0.62149 0.6428 0.0
O67 O 0.61221 0.57066 0.60682 0.0
O68 O 0.61017 0.70662 0.62591 0.0
O69 O 0.63186 0.70279 0.57528 0.0
O70 O 0.69522 0.64676 0.65181 0.0
O71 O 0.72747 0.70995 0.62786 0.0
H72 H 0.76452 0.81092 0.48262 0.0
H73 H 0.72522 0.88009 0.46193 0.0
H74 H 0.62823 0.87303 0.54649 0.0
H75 H 0.66812 0.80389 0.5675 0.0
H76 H 0.50378 0.63929 0.62703 0.0
H77 H 0.42645 0.62089 0.60597 0.0
H78 H 0.47143 0.48332 0.58069 0.0
H79 H 0.54879 0.501 0.60249 0.0
C80 C 0.10729 0.99946 0.77706 0.0
Eu81 Eu 0.17131 0.96323 0.81494 0.0
C82 C 0.07422 0.9762 0.7547 0.0
C83 C 1.03784 1.00069 0.73999 0.0
C84 C 1.00336 0.97725 0.72224 0.0
C85 C 1.00431 0.92897 0.71967 0.0
C86 C 1.04129 0.90463 0.73401 0.0
C87 C 0.07655 0.92823 0.75078 0.0
C88 C 0.25372 1.00049 0.83327 0.0
C89 C 0.24757 0.91154 0.76795 0.0
C90 C 0.27231 0.82949 0.87305 0.0
Eu91 Eu 0.22059 0.89785 0.85123 0.0
C92 C 0.27674 0.78096 0.86195 0.0
C93 C 0.29886 0.7489 0.88319 0.0
C94 C 0.30449 0.70321 0.87218 0.0
C95 C 0.28807 0.68893 0.83975 0.0
C96 C 0.2653 0.72086 0.81875 0.0
C97 C 0.25957 0.76646 0.82979 0.0
C98 C 0.12883 0.87051 0.84281 0.0
C99 C 0.18405 0.98517 0.89648 0.0
O100 O 0.10193 0.99097 0.80986 0.0
O101 O 0.15033 0.99664 0.76727 0.0
O102 O 0.21524 1.02352 0.8324 0.0
O103 O 0.24654 0.95948 0.82479 0.0
O104 O 0.21517 0.94354 0.76806 0.0
O105 O 0.25336 0.88639 0.7963 0.0
O106 O 0.23348 0.84151 0.88737 0.0
O107 O 0.28586 0.85987 0.85091 0.0
O108 O 0.15096 0.87244 0.87154 0.0
O109 O 0.15532 0.88733 0.81985 0.0
O110 O 0.21763 0.95394 0.8941 0.0
O111 O 0.15519 0.98894 0.87016 0.0
H112 H 1.03556 1.03768 0.74289 0.0
H113 H 0.97522 0.99676 0.71118 0.0
H114 H 1.04248 0.86747 0.7329 0.0
H115 H 0.10455 0.90885 0.76216 0.0
H116 H 0.31222 0.75932 0.9081 0.0
H117 H 0.32218 0.67907 0.88874 0.0
H118 H 0.25275 0.71063 0.79358 0.0
H119 H 0.24216 0.79056 0.81304 0.0
C120 C 0.86656 0.37265 1.04224 0.0
Eu121 Eu 0.89706 0.43835 1.08032 0.0
C122 C 0.87538 0.32324 1.0458 0.0
C123 C 0.90519 0.30172 1.02227 0.0
C124 C 0.9165 0.25571 1.02582 0.0
C125 C 0.89649 0.22897 1.05228 0.0
C126 C 0.86968 0.25186 1.07758 0.0
C127 C 0.85909 0.29847 1.07431 0.0
C128 C 0.85825 0.51884 1.10004 0.0
C129 C 0.94258 0.51971 1.03191 0.0
C130 C 1.02942 0.53374 1.14381 0.0
Eu131 Eu 0.96435 0.48906 1.11138 0.0
C132 C 0.07879 0.53875 1.13447 0.0
C133 C 0.10136 0.50441 1.11491 0.0
C134 C 0.14502 0.51209 1.1007 0.0
C135 C 0.16783 0.55378 1.10663 0.0
C136 C 0.14652 0.58718 1.12792 0.0
C137 C 0.10215 0.57989 1.14144 0.0
C138 C 0.9989 0.40525 1.08702 0.0
C139 C 0.88278 0.44229 1.16068 0.0
O140 O 0.84098 0.39255 1.066 0.0
O141 O 0.90311 0.39648 1.03417 0.0
O142 O 0.83681 0.47982 1.10041 0.0
O143 O 0.89883 0.51395 1.08876 0.0
O144 O 0.9143 0.48406 1.03313 0.0
O145 O 0.96662 0.52976 1.06007 0.0
O146 O 1.01584 0.49273 1.15249 0.0
O147 O 1.00046 0.55321 1.12277 0.0
O148 O 1.01506 0.4452 1.07953 0.0
O149 O 0.96208 0.41225 1.10406 0.0
O150 O 0.91265 0.47689 1.15747 0.0
O151 O 0.87678 0.41497 1.13385 0.0
H152 H 0.91963 0.32049 1.00076 0.0
H153 H 0.93853 0.24101 1.006 0.0
H154 H 0.85489 0.2335 1.09903 0.0
H155 H 0.83762 0.31479 1.09384 0.0
H156 H 0.08479 0.47203 1.10965 0.0
H157 H 0.16064 0.48583 1.08442 0.0
H158 H 0.1635 0.6196 1.1329 0.0
H159 H 0.08551 0.60693 1.15637 0.0
C160 C 0.73985 0.81944 1.01774 0.0
Eu161 Eu 0.70489 0.89278 1.04702 0.0
C162 C 0.75585 0.77694 1.03367 0.0
C163 C 0.77737 0.74271 1.01375 0.0
C164 C 0.79194 0.70204 1.02928 0.0
C165 C 0.78509 0.69539 1.06482 0.0
C166 C 0.76405 0.72996 1.0848 0.0
C167 C 0.74954 0.77056 1.06929 0.0
C168 C 0.61928 0.87563 1.07482 0.0
C169 C 0.66861 0.97332 0.99244 0.0
C170 C 0.63988 1.04476 1.10403 0.0
Eu171 Eu 0.67313 0.97299 1.07223 0.0
C172 C 0.66355 0.08068 1.12424 0.0
C173 C 0.66392 0.12605 1.11234 0.0
C174 C 0.68838 0.16008 1.13001 0.0
C175 C 0.71269 0.14985 1.16054 0.0
C176 C 0.71425 0.10326 1.17092 0.0
C177 C 0.68968 0.06949 1.15331 0.0
C178 C 0.76547 0.97846 1.05144 0.0
C179 C 0.73423 0.91623 1.12784 0.0
O180 O 0.69573 0.82726 1.02032 0.0
O181 O 0.76392 0.85573 1.02512 0.0
O182 O 0.65774 0.8559 1.08269 0.0
O183 O 0.62926 0.91057 1.056 0.0
O184 O 0.6965 0.9374 0.9971 0.0
O185 O 0.64566 0.98827 1.01941 0.0
O186 O 0.63789 1.00338 1.117 0.0
O187 O 0.65046 1.04421 1.07137 0.0
O188 O 0.73473 1.01006 1.04675 0.0
O189 O 0.74589 0.94773 1.06781 0.0
O190 O 0.7016 0.9478 1.12443 0.0
O191 O 0.74298 0.88967 1.10034 0.0
H192 H 0.78261 0.74731 0.98629 0.0
H193 H 0.8082 0.67554 1.01356 0.0
H194 H 0.75891 0.72555 1.11225 0.0
H195 H 0.73316 0.79688 1.08505 0.0
H196 H 0.64504 0.13529 1.0893 0.0
H197 H 0.68658 0.19465 1.12018 0.0
H198 H 0.73244 0.09249 1.19377 0.0
H199 H 0.69099 1.0346 1.16275 0.0
C200 C 0.51684 0.52462 0.76717 0.0
Eu201 Eu 0.44888 0.47427 0.79096 0.0
C202 C 0.56313 0.53685 0.78046 0.0
C203 C 0.60249 0.52759 0.76017 0.0
C204 C 0.64667 0.53779 0.77253 0.0
C205 C 0.65219 0.55756 0.80538 0.0
C206 C 0.61302 0.56647 0.82585 0.0
C207 C 0.56889 0.55604 0.8136 0.0
C208 C 0.48404 0.38666 0.80391 0.0
C209 C 0.36709 0.42906 0.74618 0.0
C210 C 0.35882 0.35412 0.86289 0.0
Eu211 Eu 0.38857 0.42346 0.82807 0.0
C212 C 0.38258 0.32678 0.88937 0.0
C213 C 0.36928 0.33169 0.92395 0.0
C214 C 0.39724 0.31443 0.94995 0.0
C215 C 0.43882 0.29168 0.94194 0.0
C216 C 0.4505 0.2836 0.90737 0.0
C217 C 0.4225 0.3009 0.88118 0.0
C218 C 0.34415 0.50264 0.80779 0.0
C219 C 0.43387 0.50146 0.87486 0.0
O220 O 0.51101 0.48174 0.75923 0.0
O221 O 0.48086 0.54152 0.78301 0.0
O222 O 0.4733 0.40236 0.77391 0.0
O223 O 0.46609 0.41462 0.82541 0.0
O224 O 0.39519 0.46485 0.74744 0.0
O225 O 0.3664 0.40163 0.77322 0.0
O226 O 0.37546 0.35033 0.83153 0.0
O227 O 0.34918 0.39677 0.8715 0.0
O228 O 0.32462 0.46309 0.81119 0.0
O229 O 0.38559 0.49887 0.81676 0.0
O230 O 0.40894 0.46372 0.87613 0.0
O231 O 0.45429 0.51188 0.84492 0.0
H232 H 0.59901 0.51256 0.73464 0.0
H233 H 0.67645 0.53118 0.75623 0.0
H234 H 0.61661 0.5821 0.85116 0.0
H235 H 0.53937 0.56321 0.83001 0.0
H236 H 0.33863 0.35114 0.93098 0.0
H237 H 0.38735 0.32074 0.97645 0.0
H238 H 0.48205 0.26565 0.90063 0.0
H239 H 0.43359 0.29608 0.85467 0.0
C240 C 0.83065 0.29373 0.51628 0.0
Eu241 Eu 0.87439 0.22534 0.54536 0.0
C242 C 0.82341 0.34113 0.52886 0.0
C243 C 0.8371 0.35309 0.56247 0.0
C244 C 0.83021 0.39757 0.57512 0.0
C245 C 0.80807 0.43054 0.55479 0.0
C246 C 0.79412 0.41878 0.52116 0.0
C247 C 0.80206 0.37431 0.50815 0.0
C248 C 0.95907 0.25529 0.57007 0.0
C249 C 0.91603 0.14611 0.49175 0.0
C250 C 0.96555 0.09286 0.60637 0.0
Eu251 Eu 0.92042 0.15412 0.57203 0.0
C252 C 0.94675 1.04855 0.61837 0.0
C253 C 0.95104 1.00911 0.59751 0.0
C254 C 0.93073 0.96786 0.60726 0.0
C255 C 0.90681 0.96413 0.63892 0.0
C256 C 0.89977 1.00493 0.65844 0.0
C257 C 0.91985 1.04626 0.64849 0.0
C258 C 0.83414 0.1245 0.55349 0.0
C259 C 0.84823 0.20518 0.62497 0.0
O260 O 0.87307 0.28234 0.50877 0.0
O261 O 0.81041 0.2622 0.53439 0.0
O262 O 0.91924 0.27086 0.57975 0.0
O263 O 0.95226 0.21936 0.55196 0.0
O264 O 0.88295 0.17742 0.49686 0.0
O265 O 0.94346 0.13716 0.5177 0.0
O266 O 0.94913 0.13014 0.62088 0.0
O267 O 0.96919 0.09701 0.57307 0.0
O268 O 0.87157 0.10135 0.54882 0.0
O269 O 0.84393 0.16238 0.56698 0.0
O270 O 0.88741 0.18163 0.62288 0.0
O271 O 0.83325 0.22478 0.59642 0.0
H272 H 0.85265 0.32783 0.57916 0.0
H273 H 0.84077 0.40593 0.60121 0.0
H274 H 0.77667 0.44383 0.50523 0.0
H275 H 0.79096 0.36564 0.48226 0.0
H276 H 0.97027 1.00999 0.5735 0.0
H277 H 0.93597 0.9384 0.59055 0.0
H278 H 0.88083 1.005 0.68254 0.0
H279 H 0.91448 0.07637 0.66464 0.0
C280 C 0.06122 0.59345 0.25671 0.0
Eu281 Eu 0.12707 0.63475 0.2907 0.0
C282 C 1.01267 0.5851 0.26625 0.0
C283 C 0.99013 0.6145 0.28989 0.0
C284 C 0.94681 0.60331 0.30307 0.0
C285 C 0.92501 0.56268 0.29267 0.0
C286 C 0.94648 0.53412 0.2679 0.0
C287 C 0.99021 0.54519 0.25489 0.0
C288 C 0.10018 0.72033 0.31626 0.0
C289 C 0.21098 0.67789 0.24181 0.0
C290 C 0.25605 0.72143 0.36327 0.0
Eu291 Eu 0.20195 0.67675 0.3222 0.0
C292 C 0.28382 0.70406 0.39215 0.0
C293 C 0.31354 0.66592 0.38781 0.0
C294 C 0.33418 0.64525 0.41634 0.0
C295 C 0.32709 0.66376 0.44937 0.0
C296 C 0.29855 0.70263 0.45348 0.0
C297 C 0.27693 0.72246 0.4252 0.0
C298 C 0.22528 0.58949 0.30065 0.0
C299 C 0.14574 0.60268 0.37078 0.0
O300 O 0.07283 0.6361 0.25163 0.0
O301 O 0.0915 0.57185 0.2754 0.0
O302 O 0.07951 0.68181 0.32173 0.0
O303 O 0.13794 0.71105 0.30047 0.0
O304 O 0.17887 0.64537 0.24467 0.0
O305 O 0.22014 0.7031 0.26919 0.0
O306 O 0.21126 0.72027 0.36776 0.0
O307 O 0.26864 0.7075 0.33251 0.0
O308 O 0.25306 0.62417 0.30025 0.0
O309 O 0.1878 0.60251 0.31355 0.0
O310 O 0.1763 0.63639 0.36991 0.0
O311 O 0.12134 0.59451 0.34236 0.0
H312 H 1.00653 0.6455 0.29903 0.0
H313 H 0.93079 0.62575 0.32213 0.0
H314 H 0.93005 0.50262 0.25955 0.0
H315 H 1.00708 0.52192 0.23683 0.0
H316 H 0.31993 0.6512 0.36249 0.0
H317 H 0.35575 0.6151 0.41262 0.0
H318 H 0.29252 0.71753 0.47868 0.0
H319 H 0.25406 0.75161 0.42924 0.0
C320 C 0.97797 0.58834 0.79403 0.0
Eu321 Eu 0.92243 0.64408 0.82668 0.0
C322 C 1.02649 0.57669 0.7995 0.0
C323 C 1.05109 0.5541 0.77341 0.0
C324 C 0.09908 0.5542 0.77395 0.0
C325 C 0.12297 0.57883 0.79972 0.0
C326 C 0.09821 0.59466 0.82869 0.0
C327 C 1.04999 0.59387 0.82844 0.0
C328 C 0.83286 0.62308 0.8469 0.0
C329 C 0.85259 0.69959 0.77533 0.0
C330 C 0.84175 0.79162 0.88643 0.0
Eu331 Eu 0.8803 0.7201 0.8564 0.0
C332 C 0.82846 0.83585 0.87102 0.0
C333 C 0.8125 0.87239 0.89167 0.0
C334 C 0.80019 0.91427 0.87656 0.0
C335 C 0.80349 0.91993 0.84064 0.0
C336 C 0.81931 0.88333 0.81998 0.0
C337 C 0.83181 0.84165 0.83508 0.0
C338 C 0.96651 0.74348 0.82997 0.0
C339 C 0.92285 0.6392 0.90717 0.0
O340 O 0.94935 0.57494 0.81791 0.0
O341 O 0.97051 0.63077 0.78452 0.0
O342 O 0.86772 0.59523 0.84741 0.0
O343 O 0.84701 0.6596 0.83355 0.0
O344 O 0.88832 0.67105 0.77687 0.0
O345 O 0.84089 0.72242 0.804 0.0
O346 O 0.88581 0.783 0.88752 0.0
O347 O 0.81888 0.75628 0.87542 0.0
O348 O 0.92744 0.76295 0.82308 0.0
O349 O 0.95696 0.70807 0.84799 0.0
O350 O 0.88929 0.67038 0.90358 0.0
O351 O 0.94956 0.63134 0.88034 0.0
H352 H 1.03342 0.53954 0.75132 0.0
H353 H 0.1172 0.53921 0.75209 0.0
H354 H 0.11563 0.61011 0.85044 0.0
H355 H 1.03114 0.60948 0.84966 0.0
H356 H 0.80972 0.86859 0.9194 0.0
H357 H 0.7882 0.9423 0.89285 0.0
H358 H 0.8223 0.88718 0.79228 0.0
H359 H 0.84421 0.81392 0.8187 0.0
C360 C 0.27779 0.25037 1.03828 0.0
Eu361 Eu 0.21761 0.19421 1.06405 0.0
C362 C 0.32656 0.25803 1.0471 0.0
C363 C 0.35383 0.22184 1.05938 0.0
C364 C 0.40135 0.22666 1.06284 0.0
C365 C 0.42306 0.26752 1.05276 0.0
C366 C 0.39442 0.30608 1.046 0.0
C367 C 0.34666 0.30106 1.04264 0.0
C368 C 0.24683 0.10847 1.08566 0.0
C369 C 0.17024 0.12257 1.01274 0.0
C370 C 0.07339 0.102 1.10577 0.0
Eu371 Eu 0.1472 0.14893 1.09496 0.0
C372 C 1.02933 0.079 1.11145 0.0
C373 C 0.98852 0.10511 1.11133 0.0
C374 C 0.94663 0.08446 1.10308 0.0
C375 C 0.94513 1.03763 1.09451 0.0
C376 C 0.98542 1.01088 1.09711 0.0
C377 C 1.02725 1.03142 1.10594 0.0
C378 C 0.12516 0.24145 1.09019 0.0
C379 C 0.22466 0.18785 1.14645 0.0
O380 O 0.26834 0.2104 1.0245 0.0
O381 O 0.24766 0.26284 1.0617 0.0
O382 O 0.27052 0.1455 1.08861 0.0
O383 O 0.20936 0.11847 1.07187 0.0
O384 O 0.19363 0.16149 1.01292 0.0
O385 O 0.15266 0.10883 1.04263 0.0
O386 O 0.10931 0.09796 1.12603 0.0
O387 O 0.07694 0.13272 1.08164 0.0
O388 O 0.12652 0.21798 1.11837 0.0
O389 O 0.14264 0.21653 1.06617 0.0
O390 O 0.19561 0.15301 1.14259 0.0
O391 O 0.22838 0.21635 1.12033 0.0
H392 H 0.33882 0.18903 1.06479 0.0
H393 H 0.42121 0.19684 1.07027 0.0
H394 H 0.40875 0.3392 1.03964 0.0
H395 H 0.32595 0.33009 1.03451 0.0
H396 H 0.98958 0.14202 1.11492 0.0
H397 H 0.91589 0.10549 1.10138 0.0
H398 H 0.98494 0.97468 1.09043 0.0
H399 H 0.05858 1.01094 1.10504 0.0
C400 C 0.62237 0.51857 0.28676 0.0
Eu401 Eu 0.66852 0.4631 0.32502 0.0
C402 C 0.64218 0.56169 0.27331 0.0
C403 C 0.63918 0.60228 0.29305 0.0
C404 C 0.66234 0.64181 0.28289 0.0
C405 C 0.68814 0.64271 0.25192 0.0
C406 C 0.69343 0.60081 0.23348 0.0
C407 C 0.67037 0.56122 0.24379 0.0
C408 C 0.75158 0.49994 0.34574 0.0
C409 C 0.74782 0.41521 0.27675 0.0
C410 C 0.7624 0.33181 0.38777 0.0
Eu411 Eu 0.71674 0.39699 0.35633 0.0
C412 C 0.76977 0.2838 0.37615 0.0
C413 C 0.78642 0.25 0.39864 0.0
C414 C 0.79579 0.20536 0.3863 0.0
C415 C 0.78841 0.19415 0.35137 0.0
C416 C 0.77099 0.22773 0.32916 0.0
C417 C 0.76192 0.27209 0.34138 0.0
C418 C 0.63405 0.36108 0.33063 0.0
C419 C 0.67048 0.47983 0.40477 0.0
O420 O 0.63962 0.48015 0.27457 0.0
O421 O 0.61699 0.51734 0.32012 0.0
O422 O 0.71285 0.5213 0.34463 0.0
O423 O 0.74519 0.46017 0.33406 0.0
O424 O 0.70699 0.43578 0.27639 0.0
O425 O 0.76152 0.39803 0.30659 0.0
O426 O 0.78161 0.36247 0.36827 0.0
O427 O 0.72034 0.34363 0.3961 0.0
O428 O 0.67508 0.34666 0.32286 0.0
O429 O 0.63886 0.39834 0.3475 0.0
O430 O 0.70557 0.45012 0.40185 0.0
O431 O 0.64234 0.48258 0.3784 0.0
H432 H 0.61908 0.60353 0.31668 0.0
H433 H 0.65815 0.67217 0.29883 0.0
H434 H 0.71362 0.59851 0.20999 0.0
H435 H 0.67489 0.53012 0.22859 0.0
H436 H 0.79293 0.25831 0.42548 0.0
H437 H 0.80943 0.17981 0.40376 0.0
H438 H 0.76543 0.21986 0.30212 0.0
H439 H 0.74974 0.29761 0.32338 0.0
C440 C 0.35473 0.8593 0.53243 0.0
Eu441 Eu 0.38956 0.92755 0.56551 0.0
C442 C 0.35658 0.8109 0.54257 0.0
C443 C 0.31823 0.78286 0.53813 0.0
C444 C 0.32151 0.73607 0.54511 0.0
C445 C 0.36406 0.71607 0.55512 0.0
C446 C 0.40015 0.74577 0.56427 0.0
C447 C 0.39638 0.79275 0.55807 0.0
C448 C 0.3534 1.01209 0.5812 0.0
C449 C 0.44224 1.00417 0.51694 0.0
C450 C 0.5164 1.03112 0.63124 0.0
Eu451 Eu 0.45621 0.98005 0.59921 0.0
C452 C 0.5626 1.04428 0.61883 0.0
C453 C 0.59458 0.06536 0.64083 0.0
C454 C 0.63853 0.07691 0.62842 0.0
C455 C 0.65083 0.06745 0.59392 0.0
C456 C 0.61883 1.04639 0.57203 0.0
C457 C 0.57515 1.03483 0.58439 0.0
C458 C 0.49132 0.89479 0.57848 0.0
C459 C 0.37311 0.93244 0.646 0.0
O460 O 0.32974 0.88596 0.55246 0.0
O461 O 0.39444 0.87741 0.52391 0.0
O462 O 0.32972 0.97452 0.58012 0.0
O463 O 0.39409 1.0034 0.57187 0.0
O464 O 0.41399 0.96832 0.51737 0.0
O465 O 0.46346 1.01561 0.54608 0.0
O466 O 0.48198 1.04783 0.6137 0.0
O467 O 0.511 0.98756 0.63751 0.0
O468 O 0.51019 0.93408 0.57248 0.0
O469 O 0.45287 0.90294 0.59336 0.0
O470 O 0.40221 0.96775 0.64365 0.0
O471 O 0.36966 0.90468 0.61924 0.0
H472 H 0.28635 0.79673 0.52793 0.0
H473 H 0.2916 0.71537 0.53945 0.0
H474 H 0.4324 0.73273 0.57412 0.0
H475 H 0.42538 0.81456 0.56403 0.0
H476 H 0.58564 0.07272 0.66749 0.0
H477 H 0.66299 0.09306 0.64568 0.0
H478 H 0.62769 1.03889 0.54538 0.0
H479 H 0.55115 1.0184 0.567 0.0
C480 C 0.25708 0.33118 0.50886 0.0
Eu481 Eu 0.21461 0.39796 0.54198 0.0
C482 C 0.26882 0.28399 0.51972 0.0
C483 C 0.25283 0.2674 0.55155 0.0
C484 C 0.26421 0.22303 0.56233 0.0
C485 C 0.29284 0.19476 0.5419 0.0
C486 C 0.30934 0.21151 0.51019 0.0
C487 C 0.29721 0.25574 0.49911 0.0
C488 C 0.13024 0.37054 0.5683 0.0
C489 C 0.16858 0.47999 0.49362 0.0
C490 C 0.12653 0.53116 0.61116 0.0
Eu491 Eu 0.17166 0.4713 0.57365 0.0
C492 C 0.14299 0.56474 0.63674 0.0
C493 C 0.18746 0.58365 0.63401 0.0
C494 C 0.20808 0.60446 0.66268 0.0
C495 C 0.18314 0.60894 0.69351 0.0
C496 C 0.13599 0.59762 0.6938 0.0
C497 C 0.11641 0.57426 0.66604 0.0
C498 C 0.25983 0.49481 0.55314 0.0
C499 C 0.24409 0.41265 0.62243 0.0
O500 O 0.21329 0.34042 0.5053 0.0
O501 O 0.27837 0.36388 0.52535 0.0
O502 O 0.16979 0.35266 0.57574 0.0
O503 O 0.1376 0.40734 0.55146 0.0
O504 O 0.20336 0.44991 0.49625 0.0
O505 O 0.14214 0.48576 0.52089 0.0
O506 O 0.13058 0.48787 0.61968 0.0
O507 O 0.13956 0.53853 0.57953 0.0
O508 O 0.22435 0.52146 0.552 0.0
O509 O 0.24705 0.45774 0.566 0.0
O510 O 0.20858 0.4418 0.62213 0.0
O511 O 0.25422 0.39059 0.59329 0.0
H512 H 0.23173 0.28885 0.56822 0.0
H513 H 0.25112 0.21088 0.58682 0.0
H514 H 0.3315 0.19027 0.49403 0.0
H515 H 0.31025 0.26797 0.47462 0.0
H516 H 0.20724 0.57987 0.61044 0.0
H517 H 0.24388 0.61476 0.66132 0.0
H518 H 0.11521 0.60367 0.71659 0.0
H519 H 0.08144 0.56162 0.6682 0.0
C520 C 1.01866 1.02856 0.27229 0.0
Eu521 Eu 0.94957 0.97733 0.29368 0.0
C522 C 0.06848 1.03233 0.2798 0.0
C523 C 0.09525 0.06441 0.26193 0.0
C524 C 0.14127 0.07199 0.27118 0.0
C525 C 0.1614 1.04762 0.29851 0.0
C526 C 0.13494 1.01458 0.31583 0.0
C527 C 0.08874 1.00721 0.3067 0.0
C528 C 0.97673 0.88593 0.30376 0.0
C529 C 0.86923 0.93607 0.24541 0.0
C530 C 0.82418 0.88719 0.36537 0.0
Eu531 Eu 0.88128 0.9321 0.32707 0.0
C532 C 0.78307 0.90831 0.38192 0.0
C533 C 0.73894 0.89132 0.37519 0.0
C534 C 0.69981 0.91388 0.3884 0.0
C535 C 0.70368 0.95428 0.4089 0.0
C536 C 0.74832 0.97234 0.41357 0.0
C537 C 0.78716 0.94942 0.40081 0.0
C538 C 0.84575 1.01433 0.30416 0.0
C539 C 0.92793 1.01051 0.37461 0.0
O540 O 1.00449 0.99213 0.25598 0.0
O541 O 0.99132 1.03919 0.29767 0.0
O542 O 0.97639 0.90757 0.27493 0.0
O543 O 0.95738 0.91214 0.32603 0.0
O544 O 0.89679 0.97216 0.24904 0.0
O545 O 0.86781 0.90701 0.27158 0.0
O546 O 0.8642 0.90098 0.3766 0.0
O547 O 0.82303 0.88502 0.33179 0.0
O548 O 0.8235 0.97633 0.30566 0.0
O549 O 0.88559 1.00711 0.3155 0.0
O550 O 0.89564 0.97891 0.37324 0.0
O551 O 0.95628 1.01387 0.3476 0.0
H552 H 0.08023 0.08441 0.24131 0.0
H553 H 0.16107 0.09736 0.2573 0.0
H554 H 0.14979 0.99523 0.33685 0.0
H555 H 0.06854 0.98266 0.32111 0.0
H556 H 0.73468 0.86047 0.35975 0.0
H557 H 0.66682 0.89816 0.38337 0.0
H558 H 0.75417 1.00338 0.42828 0.0
H559 H 0.82055 0.96413 0.40602 0.0
C560 C 0.31073 0.77981 1.02129 0.0
Eu561 Eu 0.36923 0.7162 1.04101 0.0
C562 C 0.30468 0.8279 1.03239 0.0
C563 C 0.32566 0.84363 1.06288 0.0
C564 C 0.31962 0.88905 1.07391 0.0
C565 C 0.29162 0.91908 1.05503 0.0
C566 C 0.27037 0.90335 1.02465 0.0
C567 C 0.27703 0.858 1.01331 0.0
C568 C 0.45841 0.74996 1.05147 0.0
C569 C 0.41344 0.63466 0.99374 0.0
C570 C 0.49038 0.61661 1.11224 0.0
Eu571 Eu 0.42383 0.65185 1.07633 0.0
C572 C 0.52343 0.63879 1.13516 0.0
C573 C 0.55724 0.61265 1.15154 0.0
C574 C 0.59228 0.63453 1.16973 0.0
C575 C 0.59445 0.68282 1.17116 0.0
C576 C 0.55948 0.70885 1.15574 0.0
C577 C 0.52379 0.68689 1.13822 0.0
C578 C 0.34407 0.61025 1.0548 0.0
C579 C 0.34402 0.69721 1.12394 0.0
O580 O 0.34852 0.76985 1.00459 0.0
O581 O 0.30195 0.74963 1.04482 0.0
O582 O 0.43552 0.75151 1.02311 0.0
O583 O 0.43355 0.72878 1.0733 0.0
O584 O 0.37767 0.66324 0.99668 0.0
O585 O 0.44219 0.63141 1.02019 0.0
O586 O 0.49466 0.62799 1.07985 0.0
O587 O 0.44752 0.61701 1.12271 0.0
O588 O 0.38333 0.58929 1.05841 0.0
O589 O 0.34902 0.65096 1.065 0.0
O590 O 0.38122 0.67076 1.12408 0.0
O591 O 0.33395 0.72031 1.09534 0.0
H592 H 0.34665 0.82067 1.07819 0.0
H593 H 0.33634 0.90069 1.09733 0.0
H594 H 0.24885 0.92627 1.00971 0.0
H595 H 0.26042 0.84638 0.98984 0.0
H596 H 0.5573 0.57551 1.14944 0.0
H597 H 0.6187 0.61371 1.18176 0.0
H598 H 0.56044 0.74601 1.15629 0.0
H599 H 0.49755 0.70747 1.12576 0.0
C600 C 0.57404 0.09483 0.76286 0.0
Eu601 Eu 0.63972 0.13822 0.79561 0.0
C602 C 0.52605 0.08587 0.77332 0.0
C603 C 0.49586 0.06259 0.75117 0.0
C604 C 0.45103 1.05219 0.7622 0.0
C605 C 0.43595 0.06508 0.79545 0.0
C606 C 0.46592 0.0891 0.81731 0.0
C607 C 0.51069 0.0992 0.80639 0.0
C608 C 0.61041 0.22391 0.81972 0.0
C609 C 0.71993 0.18325 0.745 0.0
C610 C 0.76036 0.23147 0.86845 0.0
Eu611 Eu 0.71139 0.18388 0.82562 0.0
C612 C 0.78578 0.21361 0.8981 0.0
C613 C 0.79489 0.16616 0.90018 0.0
C614 C 0.81652 0.14791 0.92914 0.0
C615 C 0.82983 0.17714 0.95606 0.0
C616 C 0.82116 0.22459 0.95389 0.0
C617 C 0.79909 0.24276 0.92505 0.0
C618 C 0.74349 0.10105 0.80276 0.0
C619 C 0.66022 0.10491 0.87411 0.0
O620 O 0.5844 0.13763 0.75729 0.0
O621 O 0.60528 0.07441 0.78137 0.0
O622 O 0.59149 0.18509 0.82716 0.0
O623 O 0.64727 0.21517 0.80301 0.0
O624 O 0.6889 0.14992 0.74849 0.0
O625 O 0.72877 0.20937 0.77208 0.0
O626 O 0.71541 0.22879 0.87087 0.0
O627 O 0.77589 0.21752 0.83847 0.0
O628 O 0.76595 0.13908 0.80069 0.0
O629 O 0.70455 0.10856 0.81651 0.0
O630 O 0.6902 0.13917 0.87281 0.0
O631 O 0.63507 0.09688 0.84628 0.0
H632 H 0.50715 1.05188 0.72565 0.0
H633 H 0.42833 1.03346 0.74504 0.0
H634 H 0.45492 0.09916 0.84305 0.0
H635 H 0.53361 0.1167 0.82403 0.0
H636 H 0.78489 0.14324 0.87945 0.0
H637 H 0.82273 0.11124 0.93061 0.0
H638 H 0.83111 0.24745 0.97474 0.0
H639 H 0.79205 0.2793 0.92393 0.0
C640 C 0.55437 0.25702 0.35474 0.0
C641 C 0.51248 0.26723 0.33712 0.0
C642 C 0.5489 0.34061 0.31752 0.0
C643 C 0.59184 0.3288 0.33323 0.0
N644 N 0.63573 0.27132 0.36396 0.0
N645 N 0.47139 0.31854 0.29942 0.0
C646 C 0.5945 0.28569 0.35085 0.0
C647 C 0.51041 0.30888 0.3177 0.0
N648 N 0.55575 0.21996 0.37621 0.0
N649 N 0.5445 0.38295 0.30284 0.0
H650 H 0.44157 0.29891 0.30087 0.0
H651 H 0.46906 0.34464 0.28132 0.0
H652 H 0.57181 0.40597 0.30101 0.0
H653 H 0.51337 0.39672 0.29444 0.0
H654 H 0.58214 0.21401 0.39379 0.0
H655 H 0.5291 0.1962 0.37806 0.0
H656 H 0.64231 0.23765 0.37147 0.0
H657 H 0.66443 0.29221 0.36588 0.0
C658 C 0.553 0.77685 0.56087 0.0
C659 C 0.58181 0.77184 0.59057 0.0
C660 C 0.54596 0.84381 0.61407 0.0
C661 C 0.52074 0.85115 0.5831 0.0
N662 N 0.50797 0.82788 0.52422 0.0
N663 N 0.61228 0.80845 0.64159 0.0
C664 C 0.52683 0.81867 0.55566 0.0
C665 C 0.5799 0.80757 0.61606 0.0
N666 N 0.5481 0.74085 0.53842 0.0
N667 N 0.53716 0.87113 0.64216 0.0
H668 H 0.63882 0.78427 0.64326 0.0
H669 H 0.61603 0.8359 0.65872 0.0
H670 H 0.51302 0.89775 0.64189 0.0
H671 H 0.55048 0.86458 0.66658 0.0
H672 H 0.52396 0.74062 0.51858 0.0
H673 H 0.56445 0.70928 0.54162 0.0
H674 H 0.5151 0.80844 0.50213 0.0
H675 H 0.48812 0.85719 0.51967 0.0
C676 C 1.04652 0.84952 0.82262 0.0
C677 C 0.08947 0.83565 0.83671 0.0
C678 C 1.05423 0.75798 0.84596 0.0
C679 C 1.01222 0.77161 0.82928 0.0
N680 N 0.9808 0.82623 0.78874 0.0
N681 N 0.13615 0.7724 0.85621 0.0
C682 C 1.01221 0.8161 0.81372 0.0
C683 C 0.09372 0.78858 0.84686 0.0
N684 N 1.03693 0.8951 0.81929 0.0
N685 N 0.05724 0.71566 0.86064 0.0
H686 H 0.16578 0.79235 0.85496 0.0
H687 H 0.14314 0.73835 0.86223 0.0
H688 H 1.03312 0.69004 0.85652 0.0
H689 H 0.08333 0.70612 0.87756 0.0
H690 H 1.00447 0.90741 0.81226 0.0
H691 H 0.06002 0.92035 0.82709 0.0
H692 H 0.98016 0.85755 0.77604 0.0
H693 H 0.96042 0.80129 0.77697 0.0
C694 C 0.09847 0.3191 1.06356 0.0
C695 C 0.09011 0.281 1.08554 0.0
C696 C 1.0224 0.32378 1.10939 0.0
C697 C 1.02834 0.36074 1.08563 0.0
N698 N 0.06557 0.38355 1.03248 0.0
N699 N 1.03086 0.24195 1.11791 0.0
C700 C 0.06455 0.35541 1.0605 0.0
C701 C 1.04812 0.28183 1.10496 0.0
N702 N 0.13921 0.32153 1.04597 0.0
N703 N 0.99423 0.32846 1.13754 0.0
H704 H 1.0456 0.20997 1.1126 0.0
H705 H 0.99838 0.24006 1.12947 0.0
H706 H 0.97739 0.35869 1.14448 0.0
H707 H 0.99241 0.30362 1.15674 0.0
H708 H 0.14956 0.35077 1.03273 0.0
H709 H 0.16416 0.2957 1.04689 0.0
H710 H 0.08855 0.37885 1.01199 0.0
H711 H 1.03986 0.40772 1.02745 0.0
C712 C 0.57702 0.79783 1.08077 0.0
C713 C 0.57464 0.84608 1.07323 0.0
C714 C 0.49211 0.83243 1.05736 0.0
C715 C 0.4979 0.78361 1.05964 0.0
N716 N 0.55236 0.72148 1.06376 0.0
N717 N 0.5264 0.9088 1.05454 0.0
C718 C 0.54234 0.76694 1.06836 0.0
C719 C 0.53112 0.86313 1.06142 0.0
N720 N 0.61092 0.78113 1.10165 0.0
N721 N 0.44885 0.84983 1.05237 0.0
H722 H 0.551 0.93302 1.06156 0.0
H723 H 0.49849 0.92257 1.04124 0.0
H724 H 0.42018 0.82893 1.04906 0.0
H725 H 0.44065 0.88462 1.05419 0.0
H726 H 0.61525 0.74638 1.10681 0.0
H727 H 0.62929 0.80206 1.11858 0.0
H728 H 0.58549 0.70794 1.06651 0.0
H729 H 0.52864 0.69851 1.05338 0.0
C730 C 0.56363 0.29111 0.84668 0.0
C731 C 0.58159 0.26824 0.8167 0.0
C732 C 0.54655 0.32982 0.78132 0.0
C733 C 0.52142 0.34873 0.81011 0.0
N734 N 0.5191 0.35424 0.87255 0.0
N735 N 0.58091 0.26249 0.75454 0.0
C736 C 0.53356 0.33118 0.84358 0.0
C737 C 0.57036 0.28669 0.78389 0.0
N738 N 0.57515 0.27389 0.87829 0.0
N739 N 0.55255 0.35523 0.75216 0.0
H740 H 0.59746 0.23068 0.75459 0.0
H741 H 0.56875 0.27193 0.7303 0.0
H742 H 0.54471 0.39009 0.75101 0.0
H743 H 0.57322 0.34441 0.73155 0.0
H744 H 0.56236 0.28568 0.90182 0.0
H745 H 0.59787 0.2463 0.88124 0.0
H746 H 0.52944 0.34658 0.89746 0.0
H747 H 0.49864 0.3835 0.87235 0.0
C748 C 0.08769 0.29249 0.56303 0.0
C749 C 0.08583 0.34153 0.56714 0.0
C750 C 1.00049 0.33434 0.56604 0.0
C751 C 1.0028 0.2852 0.56868 0.0
N752 N 1.0524 0.21935 0.57652 0.0
N753 N 1.03721 0.40738 0.57872 0.0
C754 C 1.04755 0.26495 0.56935 0.0
C755 C 1.04124 0.36184 0.57059 0.0
N756 N 0.1266 0.2718 0.5503 0.0
N757 N 0.96034 0.35521 0.55643 0.0
H758 H 0.06561 0.42855 0.58262 0.0
H759 H 1.00568 0.42283 0.58491 0.0
H760 H 0.93179 0.33695 0.54797 0.0
H761 H 0.95778 0.39032 0.5517 0.0
H762 H 0.12847 0.23679 0.54456 0.0
H763 H 0.1541 0.29019 0.54026 0.0
H764 H 0.08448 0.20396 0.58057 0.0
H765 H 1.02453 0.19812 0.58202 0.0
C766 C 0.07918 0.80071 0.28994 0.0
C767 C 0.0723 0.76601 0.31541 0.0
C768 C 1.00186 0.81019 0.33425 0.0
C769 C 1.01132 0.8464 0.31075 0.0
N770 N 0.07156 0.88156 0.27683 0.0
N771 N 1.03259 0.74742 0.36846 0.0
C772 C 1.05372 0.84325 0.29184 0.0
C773 C 1.03524 0.77376 0.33952 0.0
N774 N 0.10788 0.79308 0.26246 0.0
N775 N 0.96035 0.80936 0.35095 0.0
H776 H 0.05735 0.72271 0.37458 0.0
H777 H 1.00909 0.75391 0.38834 0.0
H778 H 0.93534 0.83486 0.34796 0.0
H779 H 0.94934 0.7814 0.36539 0.0
H780 H 0.11029 0.81587 0.24191 0.0
H781 H 0.12472 0.76216 0.25759 0.0
H782 H 0.10413 0.88199 0.26533 0.0
H783 H 0.05717 0.91413 0.2803 0.0
C784 C 0.7098 0.17138 0.24344 0.0
C785 C 0.66781 0.19542 0.23809 0.0
C786 C 0.70032 0.22705 1.18565 0.0
C787 C 0.72887 0.18774 1.18444 0.0
N788 N 0.787 0.15576 0.2208 0.0
N789 N 0.62918 0.25818 0.20996 0.0
C790 C 0.74378 0.17329 0.2171 0.0
C791 C 0.66567 0.22867 0.21161 0.0
N792 N 0.71446 0.14273 0.27072 0.0
N793 N 0.70587 0.26064 1.16186 0.0
H794 H 0.60417 0.25942 0.22944 0.0
H795 H 0.6238 0.28027 1.18931 0.0
H796 H 0.73181 0.25794 1.14312 0.0
H797 H 0.68719 0.29132 1.16241 0.0
H798 H 0.74159 0.11932 0.27236 0.0
H799 H 0.68978 0.14143 0.29038 0.0
H800 H 0.80003 0.14537 0.24455 0.0
H801 H 0.80987 0.15477 1.19989 0.0
C802 C 0.61988 0.91504 0.46053 0.0
C803 C 0.65065 0.92204 0.48839 0.0
C804 C 0.6749 0.99305 0.46192 0.0
C805 C 0.66341 0.9725 0.43005 0.0
N806 N 0.59456 0.94334 0.40442 0.0
N807 N 0.69678 0.97552 0.52074 0.0
C808 C 0.62414 0.9443 0.43154 0.0
C809 C 0.67337 0.96476 0.49144 0.0
N810 N 0.59082 0.87848 0.46065 0.0
N811 N 0.68887 1.03752 0.46311 0.0
H812 H 0.69513 0.95463 0.54251 0.0
H813 H 0.71811 1.0041 0.52268 0.0
H814 H 0.69026 1.05704 0.4406 0.0
H815 H 0.69592 1.05479 0.48616 0.0
H816 H 0.57046 0.8693 0.43964 0.0
H817 H 0.58803 0.8573 0.48218 0.0
H818 H 0.56423 0.92433 0.4043 0.0
H819 H 0.60023 0.96422 0.383 0.0
C820 C 0.97121 0.88462 0.66935 0.0
C821 C 0.9653 0.9055 0.70249 0.0
C822 C 0.88404 0.91748 0.68909 0.0
C823 C 0.89794 0.91742 0.65428 0.0
N824 N 0.9302 0.85845 0.61807 0.0
N825 N 0.9117 0.9273 0.74786 0.0
C826 C 0.93274 0.88501 0.64697 0.0
C827 C 0.91959 0.91557 0.71422 0.0
N828 N 1.01304 0.86896 0.65808 0.0
N829 N 0.83887 0.9247 0.69708 0.0
H830 H 0.93791 0.92613 0.76622 0.0
H831 H 0.87989 0.93888 0.7571 0.0
H832 H 0.8145 0.92865 0.6775 0.0
H833 H 0.82602 0.92419 0.72222 0.0
H834 H 1.01865 0.85795 0.63273 0.0
H835 H 1.04226 0.86853 0.67354 0.0
H836 H 0.95429 0.83278 0.61226 0.0
H837 H 0.90178 0.86099 0.60166 0.0
C838 C 0.84945 0.16035 1.04998 0.0
C839 C 0.89463 0.17763 1.04865 0.0
C840 C 0.9006 0.15427 0.98892 0.0
C841 C 0.85182 0.15912 0.98743 0.0
N842 N 0.77873 0.15328 1.01722 0.0
N843 N 0.96823 0.15499 1.02657 0.0
C844 C 0.82555 0.15675 1.01834 0.0
C845 C 0.92198 0.15927 1.02176 0.0
N846 N 0.82977 0.15026 1.08089 0.0
N847 N 0.9258 0.14885 0.95938 0.0
H848 H 0.98288 0.16344 1.05036 0.0
H849 H 0.99068 0.1412 1.00812 0.0
H850 H 0.9102 0.14484 0.93534 0.0
H851 H 0.9617 0.14867 0.9588 0.0
H852 H 0.79726 0.13545 1.08316 0.0
H853 H 0.84831 0.15395 1.1038 0.0
H854 H 0.75792 0.15542 1.03918 0.0
H855 H 0.76117 0.14905 0.99394 0.0
C856 C 0.48617 0.31635 0.99224 0.0
C857 C 0.47039 0.28001 0.97055 0.0
C858 C 0.48157 0.22805 1.01829 0.0
C859 C 0.47234 0.26583 1.04022 0.0
N860 N 0.50444 0.33952 1.05154 0.0
N861 N 0.46504 0.19774 0.96138 0.0
C862 C 0.49026 0.30755 1.02821 0.0
C863 C 0.47343 0.2342 0.98262 0.0
N864 N 0.49263 0.35903 0.97892 0.0
N865 N 0.4949 0.18717 1.03182 0.0
H866 H 0.45917 0.20151 0.93504 0.0
H867 H 0.46268 0.16419 0.97042 0.0
H868 H 0.5003 0.18394 1.05834 0.0
H869 H 0.5037 0.15879 1.01654 0.0
H870 H 0.50073 0.38776 0.99381 0.0
H871 H 0.48954 0.36509 0.9525 0.0
H872 H 0.5183 0.37112 1.04475 0.0
H873 H 0.5039 0.33227 1.07792 0.0
C874 C 0.33478 0.63875 0.54223 0.0
C875 C 0.3739 0.66656 0.54677 0.0
C876 C 0.3963 0.65517 0.48732 0.0
C877 C 0.34957 0.64439 0.48034 0.0
N878 N 0.27974 0.60894 0.50021 0.0
N879 N 0.45431 0.66197 0.53211 0.0
C880 C 0.32094 0.62891 0.5077 0.0
C881 C 0.40939 0.66028 0.52224 0.0
N882 N 0.308 0.62961 0.57023 0.0
N883 N 0.42655 0.66438 0.46129 0.0
H884 H 0.46328 0.66598 0.55799 0.0
H885 H 0.48165 0.65515 0.51525 0.0
H886 H 0.41817 0.66018 0.43536 0.0
H887 H 0.45942 0.67744 0.46568 0.0
H888 H 0.27708 0.61172 0.56921 0.0
H889 H 0.31852 0.6398 0.5949 0.0
H890 H 0.25614 0.59853 0.5188 0.0
H891 H 0.27022 0.60182 0.47475 0.0
C892 C 0.22213 0.57696 0.74374 0.0
C893 C 0.20603 0.61694 0.72714 0.0
C894 C 0.17288 0.64289 0.78151 0.0
C895 C 0.16997 0.59603 0.79111 0.0
N896 N 0.2033 0.52079 0.78754 0.0
N897 N 0.18128 0.69487 0.73292 0.0
C898 C 0.20061 0.56437 0.77518 0.0
C899 C 0.18813 0.65302 0.74758 0.0
N900 N 0.25422 0.54978 0.72781 0.0
N901 N 0.159 0.67655 0.80384 0.0
H902 H 0.19269 0.70129 0.7078 0.0
H903 H 0.16381 0.72194 0.745 0.0
H904 H 0.15059 0.66934 0.82933 0.0
H905 H 0.16108 0.71142 0.79835 0.0
H906 H 0.26858 0.5207 0.73912 0.0
H907 H 0.2694 0.55959 0.70458 0.0
H908 H 0.22149 0.4944 0.77531 0.0
H909 H 0.18593 0.51161 0.81012 0.0
C910 C 0.66951 0.72364 0.24265 0.0
C911 C 0.7013 0.68804 0.23593 0.0
C912 C 0.67982 0.68982 1.17602 0.0
C913 C 0.63521 0.70429 1.18752 0.0
N914 N 0.59101 0.7467 0.23094 0.0
N915 N 0.75955 0.67468 1.19321 0.0
C916 C 0.63125 0.72682 0.22018 0.0
C917 C 0.71514 0.68579 1.20115 0.0
N918 N 0.67435 0.75058 0.27117 0.0
N919 N 0.68639 0.67562 1.14277 0.0
H920 H 0.78363 0.66933 0.21281 0.0
H921 H 0.77223 0.67337 1.16802 0.0
H922 H 0.66059 0.67918 1.12423 0.0
H923 H 0.71648 0.6594 1.13421 0.0
H924 H 0.65266 0.77844 0.27654 0.0
H925 H 0.70232 0.74585 0.28773 0.0
H926 H 0.58633 0.75917 0.25602 0.0
H927 H 0.56208 0.74927 0.21527 0.0
C928 C 0.28587 0.48736 0.34191 0.0
C929 C 0.26706 0.45026 0.32289 0.0
C930 C 0.22599 0.50503 0.28575 0.0
C931 C 0.24178 0.54179 0.30689 0.0
N932 N 0.274 0.56503 0.36171 0.0
N933 N 0.21511 0.42262 0.27916 0.0
C934 C 0.26854 0.5323 0.33666 0.0
C935 C 0.23626 0.45874 0.2952 0.0
N936 N 0.32064 0.4798 0.36494 0.0
N937 N 0.20053 0.51435 0.25701 0.0
H938 H 0.22197 0.38847 0.28536 0.0
H939 H 0.18854 0.42627 0.26139 0.0
H940 H 0.18925 0.54735 0.2509 0.0
H941 H 0.19244 0.4899 0.23829 0.0
H942 H 0.3386 0.50638 0.37693 0.0
H943 H 0.33459 0.4473 0.36947 0.0
H944 H 0.28864 0.55814 0.38565 0.0
H945 H 0.25875 0.59739 0.36042 0.0
C946 C 0.38486 0.53389 0.54522 0.0
C947 C 0.39617 0.53926 0.58067 0.0
C948 C 0.31643 0.52328 0.59703 0.0
C949 C 0.30589 0.51346 0.5619 0.0
N950 N 0.32995 0.5063 0.5026 0.0
N951 N 0.37522 0.53227 0.64071 0.0
C952 C 0.3401 0.518 0.53594 0.0
C953 C 0.36253 0.53254 0.60668 0.0
N954 N 0.41653 0.54526 0.52054 0.0
N955 N 0.28228 0.52365 0.62135 0.0
H956 H 0.40883 0.53822 0.64903 0.0
H957 H 0.35363 0.52203 0.66071 0.0
H958 H 0.24841 0.51517 0.61581 0.0
H959 H 0.28661 0.53568 0.64645 0.0
H960 H 0.40916 0.54675 0.49431 0.0
H961 H 0.44954 0.55686 0.52655 0.0
H962 H 0.35441 0.50412 0.48293 0.0
H963 H 0.29699 0.49645 0.49487 0.0
C964 C 0.27129 0.60394 0.84207 0.0
C965 C 0.29623 0.64083 0.82741 0.0
C966 C 0.33931 0.58551 0.79143 0.0
C967 C 0.32 0.54842 0.81011 0.0
N968 N 0.26223 0.52322 0.85167 0.0
N969 N 0.35731 0.6666 0.78996 0.0
C970 C 0.28422 0.55779 0.83465 0.0
C971 C 0.33078 0.63161 0.80225 0.0
N972 N 0.23498 0.6117 0.86382 0.0
N973 N 0.36469 0.57661 0.76238 0.0
H974 H 0.35231 0.70089 0.79706 0.0
H975 H 0.38673 0.66129 0.77491 0.0
H976 H 0.36922 0.54347 0.75276 0.0
H977 H 0.37609 0.60197 0.74562 0.0
H978 H 0.22222 0.64424 0.87023 0.0
H979 H 0.22222 0.64424 0.87023 0.0
H980 H 0.23665 0.52954 0.87017 0.0
H981 H 0.26845 0.48851 0.8475 0.0
C982 C 0.21393 0.59957 1.06369 0.0
C983 C 0.21223 0.56374 1.08835 0.0
C984 C 0.29304 0.54496 1.07479 0.0
C985 C 0.29775 0.58761 1.05772 0.0
N986 N 0.26088 0.65254 1.031 0.0
N987 N 0.25195 0.50352 1.1191 0.0
C988 C 0.25745 0.61381 1.05047 0.0
C989 C 0.25214 0.53631 1.09408 0.0
N990 N 0.17385 0.61876 1.05195 0.0
N991 N 0.32663 0.51217 1.07181 0.0
H992 H 0.22335 0.49714 1.1347 0.0
H993 H 0.28161 0.48594 1.12664 0.0
H994 H 0.35412 0.51522 1.05459 0.0
H995 H 0.3234 0.47938 1.08211 0.0
H996 H 0.17243 0.64192 1.03164 0.0
H997 H 0.14134 0.60817 1.06019 0.0
H998 H 0.23456 0.67681 1.02882 0.0
H999 H 0.29088 0.66086 1.01756 0.0
C1000 C 0.85326 0.60326 1.11198 0.0
C1001 C 0.83411 0.56348 1.09616 0.0
C1002 C 0.77421 0.61122 1.07007 0.0
C1003 C 0.79834 0.65099 1.08035 0.0
N1004 N 0.86286 0.68582 1.10937 0.0
N1005 N 0.78238 0.53229 1.05267 0.0
C1006 C 0.83804 0.64743 1.10137 0.0
C1007 C 0.7957 0.56783 1.07358 0.0
N1008 N 0.88663 0.59892 1.13658 0.0
N1009 N 0.73106 0.61504 1.05631 0.0
H1010 H 0.79982 0.50108 1.05075 0.0
H1011 H 0.75735 0.53592 1.03363 0.0
H1012 H 0.71431 0.64664 1.05355 0.0
H1013 H 0.71028 0.58668 1.05127 0.0
H1014 H 0.89815 0.62631 1.15162 0.0
H1015 H 0.90041 0.56734 1.14387 0.0
H1016 H 0.8952 0.68474 1.12095 0.0
H1017 H 0.85274 0.71879 1.10219 0.0
C1018 C 0.7265 0.54445 0.83833 0.0
C1019 C 0.69843 0.57305 0.81735 0.0
C1020 C 0.75061 0.63693 0.82781 0.0
C1021 C 0.78348 0.60706 0.84313 0.0
N1022 N 0.7986 0.5337 0.86941 0.0
N1023 N 0.68763 0.64496 0.78785 0.0
C1024 C 0.77022 0.561 0.85029 0.0
C1025 C 0.71187 0.61867 0.81063 0.0
N1026 N 0.71073 0.50202 0.84736 0.0
N1027 N 0.75397 0.68312 0.83247 0.0
H1028 H 0.65815 0.63345 0.77518 0.0
H1029 H 0.6994 0.6767 0.77927 0.0
H1030 H 0.777 0.6966 0.85016 0.0
H1031 H 0.72941 0.7066 0.82381 0.0
H1032 H 0.72694 0.48061 0.86497 0.0
H1033 H 0.67971 0.48875 0.83817 0.0
H1034 H 0.79483 0.49834 0.87167 0.0
H1035 H 0.82573 0.5469 0.88392 0.0
C1036 C 0.75873 0.48166 0.59234 0.0
C1037 C 0.79712 0.47652 0.56976 0.0
C1038 C 0.81613 0.55778 0.57835 0.0
C1039 C 0.77231 0.56511 0.59389 0.0
N1040 N 0.70663 0.53312 0.62321 0.0
N1041 N 0.86335 0.509 0.54135 0.0
C1042 C 0.74549 0.5265 0.60371 0.0
C1043 C 0.82627 0.51437 0.56291 0.0
N1044 N 0.7346 0.44371 0.60238 0.0
N1045 N 0.84902 0.59106 0.58019 0.0
H1046 H 0.87307 0.47732 0.53078 0.0
H1047 H 0.88259 0.53648 0.53218 0.0
H1048 H 0.84498 0.62036 0.59552 0.0
H1049 H 0.88264 0.58649 0.57119 0.0
H1050 H 0.70919 0.44391 0.62138 0.0
H1051 H 0.74125 0.4108 0.59274 0.0
H1052 H 0.68197 0.50814 0.6279 0.0
H1053 H 0.69863 0.56457 0.63469 0.0
C1054 C 0.83796 0.49728 0.34749 0.0
C1055 C 0.79714 0.523 0.34119 0.0
C1056 C 0.84033 0.57513 0.30396 0.0
C1057 C 0.88101 0.54903 0.30956 0.0
N1058 N 0.92148 0.49284 0.34369 0.0
N1059 N 0.76597 0.59779 0.32686 0.0
C1060 C 0.88075 0.51227 0.33348 0.0
C1061 C 0.80017 0.56559 0.32367 0.0
N1062 N 0.8356 0.45848 0.36699 0.0
N1063 N 0.83945 0.60803 0.279 0.0
H1064 H 0.73939 0.59514 0.34487 0.0
H1065 H 0.76795 0.63029 0.31591 0.0
H1066 H 0.868 0.61562 0.26364 0.0
H1067 H 0.8092 0.62446 0.27131 0.0
H1068 H 0.86219 0.43442 0.36868 0.0
H1069 H 0.80616 0.45005 0.38111 0.0
H1070 H 0.92408 0.46902 0.36348 0.0
H1071 H 0.95348 0.50326 0.3343 0.0
C1072 C 0.8245 1.0008 0.82593 0.0
C1073 C 0.79185 0.96492 0.82487 0.0
C1074 C 0.73723 1.01614 0.79601 0.0
C1075 C 0.76561 1.05438 0.80393 0.0
N1076 N 0.83823 0.08211 0.82802 0.0
N1077 N 0.71621 0.93787 0.80965 0.0
C1078 C 0.81024 1.04656 0.81862 0.0
C1079 C 0.74807 0.97227 0.80978 0.0
N1080 N 0.86949 0.99105 0.83359 0.0
N1081 N 0.70024 1.02176 0.7747 0.0
H1082 H 0.72327 0.90499 0.81884 0.0
H1083 H 0.68189 0.94285 0.80268 0.0
H1084 H 0.69265 1.05311 0.76311 0.0
H1085 H 0.68041 0.99459 0.76553 0.0
H1086 H 0.89605 1.0147 0.83079 0.0
H1087 H 0.88104 0.95802 0.83945 0.0
H1088 H 0.86628 0.07793 0.84446 0.0
H1089 H 0.83369 0.11603 0.82091 0.0
C1090 C 0.83976 1.02202 1.0375 0.0
C1091 C 0.81623 0.98705 1.05553 0.0
C1092 C 0.87973 0.98135 1.09651 0.0
C1093 C 0.90232 1.01781 1.07986 0.0
N1094 N 0.91489 1.05456 1.02522 0.0
N1095 N 0.83348 0.91549 1.08412 0.0
C1096 C 0.88575 1.03291 1.04738 0.0
C1097 C 0.84175 0.961 1.07989 0.0
N1098 N 0.8192 1.04362 1.01053 0.0
N1099 N 0.8944 0.96559 1.1277 0.0
H1100 H 0.81309 0.8976 1.06665 0.0
H1101 H 0.85295 0.89478 1.10047 0.0
H1102 H 0.92139 0.9806 1.14137 0.0
H1103 H 0.87712 0.93981 1.14097 0.0
H1104 H 0.8352 0.06883 0.99606 0.0
H1105 H 0.78568 1.03671 1.00285 0.0
H1106 H 0.90682 0.06026 0.99945 0.0
H1107 H 0.9492 0.06126 1.03143 0.0
C1108 C 0.78063 0.06769 0.32456 0.0
C1109 C 0.82414 0.06108 0.30794 0.0
C1110 C 0.8428 0.14241 0.31842 0.0
C1111 C 0.80092 0.14803 0.33711 0.0
N1112 N 0.72852 0.11556 0.35661 0.0
N1113 N 0.88878 0.09539 0.27915 0.0
C1114 C 0.7697 0.11084 0.33987 0.0
C1115 C 0.85278 0.09961 0.30187 0.0
N1116 N 0.74864 1.03347 0.32545 0.0
N1117 N 0.87404 0.17743 0.31777 0.0
H1118 H 0.89568 0.06493 0.26568 0.0
H1119 H 0.90866 0.12283 0.27082 0.0
H1120 H 0.86796 0.20931 0.32946 0.0
H1121 H 0.90742 0.17396 0.30809 0.0
H1122 H 0.7177 1.03659 0.33917 0.0
H1123 H 0.75048 1.00424 0.3099 0.0
H1124 H 0.71706 0.14595 0.36843 0.0
H1125 H 0.71706 0.14595 0.36843 0.0
C1126 C 0.74852 0.13014 0.54794 0.0
C1127 C 0.78747 0.10405 0.55866 0.0
C1128 C 0.7356 1.05009 0.5879 0.0
C1129 C 0.6975 0.0791 0.58059 0.0
N1130 N 0.66749 0.14887 0.55611 0.0
N1131 N 0.81711 1.03673 0.58887 0.0
C1132 C 0.70384 0.11951 0.56097 0.0
C1133 C 0.78079 0.06317 0.57821 0.0
N1134 N 0.75418 0.16448 0.52444 0.0
N1135 N 0.73011 1.00958 0.60478 0.0
H1136 H 0.85154 1.04408 0.58438 0.0
H1137 H 0.81273 1.00707 0.60345 0.0
H1138 H 0.69827 0.99651 0.61266 0.0
H1139 H 0.69827 0.99651 0.61266 0.0
H1140 H 0.72694 0.18161 0.51266 0.0
H1141 H 0.78622 0.17307 0.51411 0.0
H1142 H 0.67082 0.1816 0.54579 0.0
H1143 H 0.63415 0.14199 0.56479 0.0
C1144 C 0.33306 0.14107 0.58336 0.0
C1145 C 0.30528 0.14746 0.55359 0.0
C1146 C 0.30841 0.06457 0.54187 0.0
C1147 C 0.33253 0.05763 0.57335 0.0
N1148 N 0.3612 0.08845 0.6269 0.0
N1149 N 0.25746 0.11399 0.50934 0.0
C1150 C 0.34258 0.0957 0.59505 0.0
C1151 C 0.29012 0.10877 0.53437 0.0
N1152 N 0.35252 0.17816 0.59936 0.0
N1153 N 0.30539 1.02999 0.51792 0.0
H1154 H 0.24263 0.14568 0.50342 0.0
H1155 H 0.2418 0.08632 0.49695 0.0
H1156 H 0.31932 0.99733 0.5214 0.0
H1157 H 0.29303 1.03512 0.49302 0.0
H1158 H 0.37704 0.17534 0.61881 0.0
H1159 H 0.34749 0.21181 0.5911 0.0
H1160 H 0.36517 0.11437 0.64531 0.0
H1161 H 0.36879 1.05569 0.6361 0.0
C1162 C 0.21972 0.07984 0.34074 0.0
C1163 C 0.21013 1.05727 0.30891 0.0
C1164 C 0.29174 0.06349 0.29236 0.0
C1165 C 0.30196 0.08344 0.32514 0.0
N1166 N 0.27733 0.10153 0.38306 0.0
N1167 N 0.23877 1.01798 0.25819 0.0
C1168 C 0.26639 0.08866 0.35013 0.0
C1169 C 0.24677 1.04605 0.28594 0.0
N1170 N 0.18422 0.095 0.36124 0.0
N1171 N 0.32391 0.06348 0.26647 0.0
H1172 H 0.20639 1.00428 0.2528 0.0
H1173 H 0.26502 1.00469 0.24254 0.0
H1174 H 0.3574 0.07541 0.26951 0.0
H1175 H 0.31617 1.0551 0.24096 0.0
H1176 H 0.18888 0.11613 0.38273 0.0
H1177 H 0.14963 0.08979 0.35518 0.0
H1178 H 0.25369 0.10175 0.40337 0.0
H1179 H 0.31118 0.10747 0.39079 0.0
C1180 C 0.30305 1.04936 1.06054 0.0
C1181 C 0.2658 0.06062 1.08336 0.0
C1182 C 0.25208 0.97807 1.0926 0.0
C1183 C 0.28512 0.96746 1.06667 0.0
N1184 N 0.34171 0.99158 1.02512 0.0
N1185 N 0.20507 1.03577 1.12151 0.0
C1186 C 0.31095 1.00269 1.05079 0.0
C1187 C 0.24077 1.02486 1.09975 0.0
N1188 N 0.33078 0.08293 1.04768 0.0
N1189 N 0.23162 0.94329 1.1105 0.0
H1190 H 0.19851 0.06915 1.12998 0.0
H1191 H 0.18094 1.01225 1.13035 0.0
H1192 H 0.23733 0.90864 1.10487 0.0
H1193 H 0.21131 0.94834 1.13241 0.0
H1194 H 0.36229 0.07646 1.03557 0.0
H1195 H 0.32378 0.11764 1.05013 0.0
H1196 H 0.35666 1.01549 1.00874 0.0
H1197 H 0.35055 0.95779 1.01867 0.0
C1198 C 0.38431 1.01527 0.83152 0.0
C1199 C 0.38925 1.05179 0.80781 0.0
C1200 C 0.30553 1.05459 0.79994 0.0
C1201 C 0.29982 1.0211 0.82625 0.0
N1202 N 0.33432 0.97206 0.86928 0.0
N1203 N 0.35455 0.11316 0.7755 0.0
C1204 C 0.33943 1.00253 0.8429 0.0
C1205 C 0.3498 0.07379 0.79413 0.0
N1206 N 0.42232 0.99082 0.84157 0.0
N1207 N 0.27013 0.06516 0.77813 0.0
H1208 H 0.38653 0.12805 0.77053 0.0
H1209 H 0.32655 0.13329 0.76798 0.0
H1210 H 0.23823 1.04903 0.77858 0.0
H1211 H 0.27428 0.08584 0.75652 0.0
H1212 H 0.4206 0.96024 0.85526 0.0
H1213 H 0.45577 0.99886 0.83379 0.0
H1214 H 0.36126 0.96198 0.88527 0.0
H1215 H 0.30257 0.95895 0.87684 0.0
C1216 C 0.26906 0.1865 0.24192 0.0
C1217 C 0.31617 0.19998 0.23837 0.0
C1218 C 0.30388 0.20581 1.17525 0.0
C1219 C 0.25588 0.1938 1.17851 0.0
N1220 N 0.19176 0.18412 0.21749 0.0
N1221 N 0.37443 0.23294 1.20243 0.0
C1222 C 0.23833 0.18723 0.21263 0.0
C1223 C 0.33216 0.21268 0.20525 0.0
N1224 N 0.25364 0.17166 0.27323 0.0
N1225 N 0.32405 0.20844 1.14348 0.0
H1226 H 0.39593 0.2384 0.2236 0.0
H1227 H 0.38617 0.24859 1.17999 0.0
H1228 H 0.30625 0.20617 1.12053 0.0
H1229 H 0.35962 0.20951 1.13971 0.0
H1230 H 0.22195 0.15573 0.27682 0.0
H1231 H 0.27379 0.17262 0.2954 0.0
H1232 H 0.17613 0.18423 0.24173 0.0
H1233 H 0.16818 0.18646 1.19734 0.0
C1234 C 0.66864 0.49701 0.47059 0.0
C1235 C 0.66477 0.51318 0.43601 0.0
C1236 C 0.65009 0.59198 0.46091 0.0
C1237 C 0.65939 0.57664 0.49485 0.0
N1238 N 0.68072 0.51377 0.53155 0.0
N1239 N 0.65498 0.57989 0.39922 0.0
C1240 C 0.66928 0.52887 0.49946 0.0
C1241 C 0.65595 0.56161 0.43155 0.0
N1242 N 0.66928 0.45071 0.4762 0.0
N1243 N 0.63346 0.63562 0.45666 0.0
H1244 H 0.65477 0.56064 0.37671 0.0
H1245 H 0.65697 0.61499 0.39451 0.0
H1246 H 0.62879 0.65858 0.47721 0.0
H1247 H 0.62001 0.64766 0.43353 0.0
H1248 H 0.66704 0.43604 0.50055 0.0
H1249 H 0.66731 0.42653 0.45629 0.0
H1250 H 0.69412 0.48121 0.53632 0.0
H1251 H 0.67948 0.5349 0.55329 0.0
C1252 C 0.32944 0.9215 0.74166 0.0
C1253 C 0.28177 0.91013 0.73751 0.0
C1254 C 0.29339 0.91504 0.67403 0.0
C1255 C 0.34175 0.92455 0.67785 0.0
N1256 N 0.40655 0.92624 0.71649 0.0
N1257 N 0.22205 0.88592 0.69897 0.0
C1258 C 0.35984 0.92488 0.71207 0.0
C1259 C 0.26508 0.90395 0.70343 0.0
N1260 N 0.3458 0.93081 0.77391 0.0
N1261 N 0.27315 0.91892 0.64244 0.0
H1262 H 0.20072 0.87721 0.71964 0.0
H1263 H 0.20943 0.87509 0.67515 0.0
H1264 H 0.29117 0.92621 0.62007 0.0
H1265 H 0.23759 0.91893 0.63878 0.0
H1266 H 0.37805 0.94511 0.77846 0.0
H1267 H 0.3261 0.92692 0.79617 0.0
H1268 H 0.42259 0.92151 0.74019 0.0
H1269 H 0.42978 0.92754 0.69592 0.0
C1270 C 0.93726 0.56074 0.93695 0.0
C1271 C 0.92869 0.60934 0.93978 0.0
C1272 C 0.92861 0.59943 1.00376 0.0
C1273 C 0.94113 0.5519 1.00061 0.0
N1274 N 0.96736 0.49105 0.96311 0.0
N1275 N 0.92586 0.67531 0.97767 0.0
C1276 C 0.94836 0.53389 0.96686 0.0
C1277 C 0.92695 0.62865 0.97375 0.0
N1278 N 0.93218 0.5389 0.90591 0.0
N1279 N 0.91635 0.61675 1.03533 0.0
H1280 H 0.92603 0.69776 0.95686 0.0
H1281 H 0.92953 0.69183 1.00143 0.0
H1282 H 0.91784 0.59755 1.05782 0.0
H1283 H 0.90118 0.64898 1.03878 0.0
H1284 H 0.93229 0.50328 0.90313 0.0
H1285 H 0.92274 0.55552 0.88347 0.0
H1286 H 0.97874 0.47785 0.93948 0.0
H1287 H 0.97633 0.47061 0.98408 0.0
C1288 C 0.82435 0.88631 1.20027 0.0
C1289 C 0.83597 0.93059 0.2142 0.0
C1290 C 0.78664 0.96425 1.16807 0.0
C1291 C 0.76921 0.92033 1.15784 0.0
N1292 N 0.76925 0.83904 1.16851 0.0
N1293 N 0.81628 1.01175 0.21404 0.0
C1294 C 0.78758 0.88125 1.17521 0.0
C1295 C 0.81375 0.96941 1.19883 0.0
N1296 N 0.85001 0.84894 0.20945 0.0
N1297 N 0.78028 1.00145 1.14732 0.0
H1298 H 0.83347 1.01818 0.2369 0.0
H1299 H 0.79665 1.03971 0.20588 0.0
H1300 H 0.76338 1.00001 1.12374 0.0
H1301 H 0.79696 1.03264 1.15147 0.0
H1302 H 0.84636 0.81673 1.19793 0.0
H1303 H 0.87857 0.85122 0.2256 0.0
H1304 H 0.77742 0.80989 1.18272 0.0
H1305 H 0.74262 0.83409 1.15088 0.0
C1306 C 0.46274 0.5953 0.94533 0.0
C1307 C 0.41906 0.60224 0.96211 0.0
C1308 C 0.38555 0.54802 0.91905 0.0
C1309 C 0.42984 0.53676 0.90481 0.0
N1310 N 0.5119 0.54697 0.90843 0.0
N1311 N 0.34044 0.57572 0.96745 0.0
C1312 C 0.46876 0.5599 0.91905 0.0
C1313 C 0.38108 0.57602 0.94955 0.0
N1314 N 0.49832 0.62391 0.95339 0.0
N1315 N 0.34657 0.53413 0.90246 0.0
H1316 H 0.33397 0.59603 0.98896 0.0
H1317 H 0.31435 0.55202 0.96275 0.0
H1318 H 0.34696 0.51491 0.87982 0.0
H1319 H 0.31376 0.54619 0.90901 0.0
H1320 H 0.52949 0.62416 0.93996 0.0
H1321 H 0.49505 0.65064 0.97132 0.0
H1322 H 0.54202 0.5586 0.92006 0.0
H1323 H 0.51752 0.52139 0.88987 0.0
C1324 C 0.75782 0.23215 0.69753 0.0
C1325 C 0.75004 0.18808 0.71242 0.0
C1326 C 0.80368 0.15507 0.6682 0.0
C1327 C 0.81561 0.1997 0.65599 0.0
N1328 N 0.80691 0.2815 0.66261 0.0
N1329 N 0.77317 0.10813 0.71405 0.0
C1330 C 0.79323 0.23839 0.67164 0.0
C1331 C 0.77494 0.1498 0.6982 0.0
N1332 N 0.72991 0.26804 0.70714 0.0
N1333 N 0.81763 0.11692 0.65014 0.0
H1334 H 0.75162 0.10116 0.73471 0.0
H1335 H 0.79588 0.08123 0.70836 0.0
H1336 H 0.83801 0.11804 0.62806 0.0
H1337 H 0.80515 0.08412 0.65505 0.0
H1338 H 0.73019 0.29984 0.69505 0.0
H1339 H 0.70308 0.2646 0.72494 0.0
H1340 H 0.79592 0.31121 0.67539 0.0
H1341 H 0.8326 0.28737 0.64426 0.0
C1342 C 0.15447 0.55952 0.46509 0.0
C1343 C 0.16103 0.51071 0.46159 0.0
C1344 C 0.15528 0.52125 0.39775 0.0
C1345 C 0.14619 0.56954 0.40167 0.0
N1346 N 0.12675 0.63128 0.44053 0.0
N1347 N 0.15765 0.44508 0.42361 0.0
C1348 C 0.14287 0.58745 0.43579 0.0
C1349 C 0.15872 0.49173 0.42757 0.0
N1350 N 0.16153 0.58038 0.49625 0.0
N1351 N 0.16248 0.50329 0.36553 0.0
H1352 H 0.15949 0.42255 0.44435 0.0
H1353 H 0.15044 0.42873 0.40027 0.0
H1354 H 0.15888 0.52221 0.34309 0.0
H1355 H 0.17524 0.47027 0.36109 0.0
H1356 H 0.1639 0.61584 0.49944 0.0
H1357 H 0.16943 0.56262 0.51848 0.0
H1358 H 0.11805 0.64498 0.46461 0.0
H1359 H 0.11724 0.65238 0.42008 0.0
C1360 C 0.77828 0.6481 0.70114 0.0
C1361 C 0.75604 0.68713 0.68622 0.0
C1362 C 0.8007 0.73576 0.7279 0.0
C1363 C 0.81906 0.6962 0.74464 0.0
N1364 N 0.81209 0.61399 0.75176 0.0
N1365 N 0.74048 0.76839 0.69163 0.0
C1366 C 0.80396 0.65233 0.73256 0.0
C1367 C 0.76587 0.73108 0.70134 0.0
N1368 N 0.77765 0.60667 0.68448 0.0
N1369 N 0.81746 0.77803 0.73653 0.0
H1370 H 0.71371 0.76628 0.67384 0.0
H1371 H 0.74259 0.8003 0.70384 0.0
H1372 H 0.84271 0.78264 0.75532 0.0
H1373 H 0.80948 0.80779 0.72299 0.0
H1374 H 0.7977 0.5787 0.69205 0.0
H1375 H 0.76179 0.60157 0.66091 0.0
H1376 H 0.79672 0.58244 0.74645 0.0
H1377 H 0.82956 0.61442 0.77509 0.0
C1378 C 0.21996 1.04483 0.93872 0.0
C1379 C 0.18069 1.01953 0.92714 0.0
C1380 C 0.13333 0.0664 0.96877 0.0
C1381 C 0.17338 0.08846 0.98222 0.0
N1382 N 0.25658 0.08822 0.98453 0.0
N1383 N 0.10064 1.00181 0.93692 0.0
C1384 C 0.21706 0.07471 0.9684 0.0
C1385 C 0.13752 1.02934 0.94377 0.0
N1386 N 0.26011 1.04263 0.92037 0.0
N1387 N 0.09085 0.08175 0.97915 0.0
H1388 H 0.10254 0.97381 0.92001 0.0
H1389 H 0.06962 1.00373 0.9505 0.0
H1390 H 0.08646 0.10847 0.99698 0.0
H1391 H 0.06016 0.07098 0.96789 0.0
H1392 H 0.28791 0.06439 0.92481 0.0
H1393 H 0.26394 1.02264 0.89837 0.0
H1394 H 0.28896 0.0747 0.97837 0.0
H1395 H 0.25685 0.1091 1.00642 0.0
C1396 C 0.82259 0.47323 0.20515 0.0
C1397 C 0.851 0.43642 1.19251 0.0
C1398 C 0.80829 0.38442 0.23266 0.0
C1399 C 0.78259 0.42197 0.24699 0.0
N1400 N 0.77435 0.50456 0.25089 0.0
N1401 N 0.87519 0.3578 1.19953 0.0
C1402 C 0.79233 0.46692 0.23428 0.0
C1403 C 0.84483 0.39225 0.20781 0.0
N1404 N 0.82233 0.51422 1.18834 0.0
N1405 N 0.79665 0.34076 0.24179 0.0
H1406 H 0.90269 0.36238 1.1825 0.0
H1407 H 0.876 0.32626 0.21199 0.0
H1408 H 0.77036 0.33379 0.25942 0.0
H1409 H 0.81001 0.31148 0.22971 0.0
H1410 H 0.79782 0.53992 1.19281 0.0
H1411 H 0.84392 0.52119 1.16773 0.0
H1412 H 0.7843 0.53806 0.24551 0.0
H1413 H 0.75274 0.50272 0.27228 0.0
C1414 C 0.45182 1.01974 0.45193 0.0
C1415 C 0.44239 1.03677 0.48577 0.0
C1416 C 0.43013 0.11433 0.45981 0.0
C1417 C 0.43316 0.09599 0.42567 0.0
N1418 N 0.44342 1.02805 0.39001 0.0
N1419 N 0.41706 0.10145 0.52079 0.0
C1420 C 0.44347 1.0479 0.42203 0.0
C1421 C 0.43035 0.08444 0.48934 0.0
N1422 N 0.47068 0.97683 0.44827 0.0
N1423 N 0.42927 0.16094 0.46434 0.0
H1424 H 0.41746 0.08233 0.54328 0.0
H1425 H 0.402 0.13373 0.52418 0.0
H1426 H 0.43073 0.18389 0.44385 0.0
H1427 H 0.43232 0.17698 0.48834 0.0
H1428 H 0.48364 0.96402 0.425 0.0
H1429 H 0.47773 0.9557 0.46925 0.0
H1430 H 0.44417 0.99266 0.38591 0.0
H1431 H 0.43928 1.04648 0.36743 0.0
C1432 C 0.2871 0.41278 0.71775 0.0
C1433 C 0.33595 0.41979 0.71448 0.0
C1434 C 0.32575 0.41738 0.65046 0.0
C1435 C 0.27678 0.41115 0.65383 0.0
N1436 N 0.21402 0.39116 0.69124 0.0
N1437 N 0.40205 0.41578 0.677 0.0
C1438 C 0.25854 0.40576 0.6877 0.0
C1439 C 0.35515 0.41839 0.68055 0.0
N1440 N 0.26711 0.4137 0.74966 0.0
N1441 N 0.34464 0.42419 0.61855 0.0
H1442 H 0.4244 0.41532 0.69801 0.0
H1443 H 0.41886 0.40913 0.6537 0.0
H1444 H 0.3259 0.42409 0.5958 0.0
H1445 H 0.37866 0.43403 0.6145 0.0
H1446 H 0.2317 0.41621 0.75377 0.0
H1447 H 0.28572 0.41352 0.77238 0.0
H1448 H 0.19951 0.38096 0.71454 0.0
H1449 H 0.19267 0.38447 0.67022 0.0
C1450 C 0.87887 0.0935 0.4456 0.0
C1451 C 0.91882 0.11525 0.45932 0.0
C1452 C 0.96606 0.06583 0.41932 0.0
C1453 C 0.92572 1.04743 0.40349 0.0
N1454 N 0.84308 1.057 0.39675 0.0
N1455 N 1.00049 0.12779 0.45298 0.0
C1456 C 0.88211 0.06511 0.41529 0.0
C1457 C 0.9624 0.10295 0.44428 0.0
N1458 N 0.83745 0.09746 0.46228 0.0
N1459 N 1.00803 1.04662 0.41187 0.0
H1460 H 0.99904 0.1558 0.4699 0.0
H1461 H 1.03228 0.12382 0.44066 0.0
H1462 H 1.01212 1.01898 0.39486 0.0
H1463 H 1.03806 1.05503 0.4251 0.0
H1464 H 0.809 0.07727 0.45614 0.0
H1465 H 0.83237 0.11717 0.48434 0.0
H1466 H 0.81168 0.07324 0.40202 0.0
H1467 H 0.84279 1.03838 0.3739 0.0
C1468 C 0.25044 0.72647 1.19447 0.0
C1469 C 0.24194 0.6826 0.20958 0.0
C1470 C 0.29565 0.64871 1.16594 0.0
C1471 C 0.30854 0.69301 1.15349 0.0
N1472 N 0.30099 0.77498 1.15995 0.0
N1473 N 0.26592 0.60323 0.21283 0.0
C1474 C 0.2864 0.73212 1.16879 0.0
C1475 C 0.26705 0.6442 1.19602 0.0
N1476 N 0.22305 0.7628 0.20386 0.0
N1477 N 0.30885 0.61007 1.14823 0.0
H1478 H 0.24595 0.59781 0.23458 0.0
H1479 H 0.28832 0.57603 0.2073 0.0
H1480 H 0.32821 0.61055 1.12567 0.0
H1481 H 0.29638 0.5775 1.15386 0.0
H1482 H 0.22381 0.79448 1.1916 0.0
H1483 H 0.19633 0.75987 0.22178 0.0
H1484 H 0.2901 0.80486 1.17255 0.0
H1485 H 0.32727 0.78043 1.14202 0.0
C1486 C 0.70684 1.01429 0.94002 0.0
C1487 C 0.66628 1.00147 0.95874 0.0
C1488 C 0.62193 0.05769 0.92283 0.0
C1489 C 0.66213 0.06963 0.90369 0.0
N1490 N 0.74134 1.05086 0.89028 0.0
N1491 N 0.58325 1.00324 0.9605 0.0
C1492 C 0.70398 1.04548 0.91134 0.0
C1493 C 0.62334 1.02116 0.94794 0.0
N1494 N 0.74908 0.99853 0.95022 0.0
N1495 N 0.58236 0.08247 0.91799 0.0
H1496 H 0.58265 0.97522 0.9771 0.0
H1497 H 0.55072 1.01247 0.95152 0.0
H1498 H 0.57997 0.10895 0.90008 0.0
H1499 H 0.55329 0.07957 0.93366 0.0
H1500 H 0.78012 1.01187 0.94129 0.0
H1501 H 0.75422 0.97471 0.96959 0.0
H1502 H 0.77029 1.02958 0.8906 0.0
H1503 H 0.74217 0.07441 0.87044 0.0
loop_
_geom_bond_atom_site_label_1
_geom_bond_atom_site_label_2
_geom_bond_distance
_geom_bond_site_symmetry_2
_ccdc_geom_bond_type
C0 Eu1 2.835 . S
C0 C2 1.500 . S
C0 O20 1.257 . S
C0 O21 1.260 . S
Eu1 C0 2.835 . S
Eu1 O20 2.473 . S
Eu1 O21 2.480 . S
Eu1 O22 2.430 . S
Eu1 O23 2.670 . S
Eu1 O24 2.394 . S
Eu1 O29 2.355 . S
Eu1 O31 2.374 . S
C2 C0 1.500 . S
C2 C3 1.377 1_545 S
C2 C7 1.377 . S
C3 C2 1.377 1_565 S
C3 C4 1.395 . S
C3 H32 0.931 . S
C4 C3 1.395 . S
C4 C5 1.383 . S
C4 H33 0.931 . S
C5 C4 1.383 . S
C5 C6 1.394 1_565 S
C6 C5 1.394 1_545 S
C6 C7 1.378 . S
C6 H34 0.946 . S
C7 C2 1.377 . S
C7 C6 1.378 . S
C7 H35 0.931 . S
C8 O22 1.259 . S
C8 O23 1.270 . S
C9 O24 1.251 . S
C9 O25 1.251 . S
C10 Eu11 2.835 . S
C10 C12 1.500 . S
C10 O26 1.257 . S
C10 O27 1.260 . S
Eu11 C10 2.835 . S
Eu11 O23 2.355 . S
Eu11 O25 2.374 . S
Eu11 O26 2.473 . S
Eu11 O27 2.480 . S
Eu11 O28 2.430 . S
Eu11 O29 2.670 . S
Eu11 O30 2.394 . S
C12 C10 1.500 . S
C12 C13 1.377 . S
C12 C17 1.377 . S
C13 C12 1.377 . S
C13 C14 1.395 . S
C13 H36 0.931 . S
C14 C13 1.395 . S
C14 C15 1.383 . S
C14 H37 0.931 . S
C15 C14 1.383 . S
C15 C16 1.394 . S
C16 C15 1.394 . S
C16 C17 1.378 . S
C16 H38 0.931 . S
C17 C12 1.377 . S
C17 C16 1.378 . S
C17 H39 0.931 . S
C18 O28 1.259 . S
C18 O29 1.270 . S
C19 O30 1.251 . S
C19 O31 1.251 . S
O20 C0 1.257 . S
O20 Eu1 2.473 . S
O21 C0 1.260 . S
O21 Eu1 2.480 . S
O22 Eu1 2.430 . S
O22 C8 1.259 . S
O23 Eu1 2.670 . S
O23 C8 1.270 . S
O23 Eu11 2.355 . S
O24 Eu1 2.394 . S
O24 C9 1.251 . S
O25 C9 1.251 . S
O25 Eu11 2.374 . S
O26 C10 1.257 . S
O26 Eu11 2.473 . S
O27 C10 1.260 . S
O27 Eu11 2.480 . S
O28 Eu11 2.430 . S
O28 C18 1.259 . S
O29 Eu1 2.355 . S
O29 Eu11 2.670 . S
O29 C18 1.270 . S
O30 Eu11 2.394 . S
O30 C19 1.251 . S
O31 Eu1 2.374 . S
O31 C19 1.251 . S
H32 C3 0.931 . S
H33 C4 0.931 . S
H34 C6 0.946 . S
H35 C7 0.931 . S
H36 C13 0.931 . S
H37 C14 0.931 . S
H38 C16 0.931 . S
H39 C17 0.931 . S
C40 Eu41 2.835 . S
C40 C42 1.500 . S
C40 O60 1.257 . S
C40 O61 1.260 . S
Eu41 C40 2.835 . S
Eu41 O60 2.473 . S
Eu41 O61 2.480 . S
Eu41 O62 2.430 . S
Eu41 O63 2.670 . S
Eu41 O64 2.394 . S
Eu41 O69 2.355 . S
Eu41 O71 2.374 . S
C42 C40 1.500 . S
C42 C43 1.377 . S
C42 C47 1.377 . S
C43 C42 1.377 . S
C43 C44 1.395 . S
C43 H72 0.931 . S
C44 C43 1.395 . S
C44 C45 1.383 . S
C44 H73 0.931 . S
C45 C44 1.383 . S
C45 C46 1.394 . S
C46 C45 1.394 . S
C46 C47 1.378 . S
C46 H74 0.931 . S
C47 C42 1.377 . S
C47 C46 1.378 . S
C47 H75 0.931 . S
C48 O62 1.259 . S
C48 O63 1.270 . S
C49 O64 1.251 . S
C49 O65 1.251 . S
C50 Eu51 2.835 . S
C50 C52 1.500 . S
C50 O66 1.257 . S
C50 O67 1.260 . S
Eu51 C50 2.835 . S
Eu51 O63 2.355 . S
Eu51 O65 2.374 . S
Eu51 O66 2.473 . S
Eu51 O67 2.480 . S
Eu51 O68 2.430 . S
Eu51 O69 2.670 . S
Eu51 O70 2.394 . S
C52 C50 1.500 . S
C52 C53 1.377 . S
C52 C57 1.377 . S
C53 C52 1.377 . S
C53 C54 1.395 . S
C53 H76 0.931 . S
C54 C53 1.395 . S
C54 C55 1.383 . S
C54 H77 0.931 . S
C55 C54 1.383 . S
C55 C56 1.394 . S
C56 C55 1.394 . S
C56 C57 1.378 . S
C56 H78 0.931 . S
C57 C52 1.377 . S
C57 C56 1.378 . S
C57 H79 0.931 . S
C58 O68 1.259 . S
C58 O69 1.270 . S
C59 O70 1.251 . S
C59 O71 1.251 . S
O60 C40 1.257 . S
O60 Eu41 2.473 . S
O61 C40 1.260 . S
O61 Eu41 2.480 . S
O62 Eu41 2.430 . S
O62 C48 1.259 . S
O63 Eu41 2.670 . S
O63 C48 1.270 . S
O63 Eu51 2.355 . S
O64 Eu41 2.394 . S
O64 C49 1.251 . S
O65 C49 1.251 . S
O65 Eu51 2.374 . S
O66 C50 1.257 . S
O66 Eu51 2.473 . S
O67 C50 1.260 . S
O67 Eu51 2.480 . S
O68 Eu51 2.430 . S
O68 C58 1.259 . S
O69 Eu41 2.355 . S
O69 Eu51 2.670 . S
O69 C58 1.270 . S
O70 Eu51 2.394 . S
O70 C59 1.251 . S
O71 Eu41 2.374 . S
O71 C59 1.251 . S
H72 C43 0.931 . S
H73 C44 0.931 . S
H74 C46 0.931 . S
H75 C47 0.931 . S
H76 C53 0.931 . S
H77 C54 0.931 . S
H78 C56 0.931 . S
H79 C57 0.931 . S
C80 Eu81 2.835 . S
C80 C82 1.500 . S
C80 O100 1.257 . S
C80 O101 1.260 . S
Eu81 C80 2.835 . S
Eu81 O100 2.473 . S
Eu81 O101 2.480 . S
Eu81 O102 2.430 . S
Eu81 O103 2.670 . S
Eu81 O104 2.394 . S
Eu81 O109 2.355 . S
Eu81 O111 2.374 . S
C82 C80 1.500 . S
C82 C83 1.377 1_565 S
C82 C87 1.377 . S
C83 C82 1.377 1_545 S
C83 C84 1.395 . S
C83 H112 0.931 . S
C84 C83 1.395 . S
C84 C85 1.383 . S
C84 H113 0.931 . S
C85 C84 1.383 . S
C85 C86 1.394 1_545 S
C86 C85 1.394 1_565 S
C86 C87 1.378 . S
C86 H114 0.931 . S
C87 C82 1.377 . S
C87 C86 1.378 . S
C87 H115 0.931 . S
C88 O102 1.259 . S
C88 O103 1.270 . S
C89 O104 1.251 . S
C89 O105 1.251 . S
C90 Eu91 2.835 . S
C90 C92 1.500 . S
C90 O106 1.257 . S
C90 O107 1.260 . S
Eu91 C90 2.835 . S
Eu91 O103 2.355 . S
Eu91 O105 2.374 . S
Eu91 O106 2.473 . S
Eu91 O107 2.480 . S
Eu91 O108 2.430 . S
Eu91 O109 2.670 . S
Eu91 O110 2.394 . S
C92 C90 1.500 . S
C92 C93 1.377 . S
C92 C97 1.377 . S
C93 C92 1.377 . S
C93 C94 1.395 . S
C93 H116 0.931 . S
C94 C93 1.395 . S
C94 C95 1.383 . S
C94 H117 0.931 . S
C95 C94 1.383 . S
C95 C96 1.394 . S
C96 C95 1.394 . S
C96 C97 1.378 . S
C96 H118 0.931 . S
C97 C92 1.377 . S
C97 C96 1.378 . S
C97 H119 0.931 . S
C98 O108 1.259 . S
C98 O109 1.270 . S
C99 O110 1.251 . S
C99 O111 1.251 . S
O100 C80 1.257 . S
O100 Eu81 2.473 . S
O101 C80 1.260 . S
O101 Eu81 2.480 . S
O102 Eu81 2.430 . S
O102 C88 1.259 . S
O103 Eu81 2.670 . S
O103 C88 1.270 . S
O103 Eu91 2.355 . S
O104 Eu81 2.394 . S
O104 C89 1.251 . S
O105 C89 1.251 . S
O105 Eu91 2.374 . S
O106 C90 1.257 . S
O106 Eu91 2.473 . S
O107 C90 1.260 . S
O107 Eu91 2.480 . S
O108 Eu91 2.430 . S
O108 C98 1.259 . S
O109 Eu81 2.355 . S
O109 Eu91 2.670 . S
O109 C98 1.270 . S
O110 Eu91 2.394 . S
O110 C99 1.251 . S
O111 Eu81 2.374 . S
O111 C99 1.251 . S
H112 C83 0.931 . S
H113 C84 0.931 . S
H114 C86 0.931 . S
H115 C87 0.931 . S
H116 C93 0.931 . S
H117 C94 0.931 . S
H118 C96 0.931 . S
H119 C97 0.931 . S
C120 Eu121 2.835 . S
C120 C122 1.500 . S
C120 O140 1.257 . S
C120 O141 1.260 . S
Eu121 C120 2.835 . S
Eu121 O140 2.473 . S
Eu121 O141 2.480 . S
Eu121 O142 2.430 . S
Eu121 O143 2.670 . S
Eu121 O144 2.394 . S
Eu121 O149 2.355 . S
Eu121 O151 2.374 . S
C122 C120 1.500 . S
C122 C123 1.377 . S
C122 C127 1.377 . S
C123 C122 1.377 . S
C123 C124 1.395 . S
C123 H152 0.931 . S
C124 C123 1.395 . S
C124 C125 1.383 . S
C124 H153 0.931 . S
C125 C124 1.383 . S
C125 C126 1.394 . S
C126 C125 1.394 . S
C126 C127 1.378 . S
C126 H154 0.931 . S
C127 C122 1.377 . S
C127 C126 1.378 . S
C127 H155 0.931 . S
C128 O142 1.259 . S
C128 O143 1.270 . S
C129 O144 1.251 . S
C129 O145 1.251 . S
C130 Eu131 2.835 1_455 S
C130 C132 1.500 . S
C130 O146 1.257 1_455 S
C130 O147 1.260 . S
Eu131 C130 2.835 1_655 S
Eu131 O143 2.355 . S
Eu131 O145 2.374 . S
Eu131 O146 2.473 . S
Eu131 O147 2.480 1_655 S
Eu131 O148 2.430 . S
Eu131 O149 2.670 . S
Eu131 O150 2.394 . S
C132 C130 1.500 . S
C132 C133 1.377 . S
C132 C137 1.377 . S
C133 C132 1.377 . S
C133 C134 1.395 . S
C133 H156 0.931 . S
C134 C133 1.395 . S
C134 C135 1.383 . S
C134 H157 0.931 . S
C135 C134 1.383 . S
C135 C136 1.394 . S
C136 C135 1.394 . S
C136 C137 1.378 . S
C136 H158 0.931 . S
C137 C132 1.377 . S
C137 C136 1.378 . S
C137 H159 0.931 1_455 S
C138 O148 1.259 . S
C138 O149 1.270 . S
C139 O150 1.251 . S
C139 O151 1.251 . S
O140 C120 1.257 . S
O140 Eu121 2.473 . S
O141 C120 1.260 . S
O141 Eu121 2.480 . S
O142 Eu121 2.430 . S
O142 C128 1.259 . S
O143 Eu121 2.670 . S
O143 C128 1.270 . S
O143 Eu131 2.355 . S
O144 Eu121 2.394 . S
O144 C129 1.251 . S
O145 C129 1.251 . S
O145 Eu131 2.374 . S
O146 C130 1.257 1_655 S
O146 Eu131 2.473 . S
O147 C130 1.260 . S
O147 Eu131 2.480 1_455 S
O148 Eu131 2.430 . S
O148 C138 1.259 . S
O149 Eu121 2.355 . S
O149 Eu131 2.670 . S
O149 C138 1.270 . S
O150 Eu131 2.394 . S
O150 C139 1.251 . S
O151 Eu121 2.374 . S
O151 C139 1.251 . S
H152 C123 0.931 . S
H153 C124 0.931 . S
H154 C126 0.931 . S
H155 C127 0.931 . S
H156 C133 0.931 . S
H157 C134 0.931 . S
H158 C136 0.931 . S
H159 C137 0.931 1_655 S
C160 Eu161 2.835 . S
C160 C162 1.500 . S
C160 O180 1.257 . S
C160 O181 1.260 . S
Eu161 C160 2.835 . S
Eu161 O180 2.473 . S
Eu161 O181 2.480 . S
Eu161 O182 2.430 . S
Eu161 O183 2.670 . S
Eu161 O184 2.394 . S
Eu161 O189 2.355 . S
Eu161 O191 2.374 . S
C162 C160 1.500 . S
C162 C163 1.377 . S
C162 C167 1.377 . S
C163 C162 1.377 . S
C163 C164 1.395 . S
C163 H192 0.931 . S
C164 C163 1.395 . S
C164 C165 1.383 . S
C164 H193 0.931 . S
C165 C164 1.383 . S
C165 C166 1.394 . S
C166 C165 1.394 . S
C166 C167 1.378 . S
C166 H194 0.931 . S
C167 C162 1.377 . S
C167 C166 1.378 . S
C167 H195 0.931 . S
C168 O182 1.259 . S
C168 O183 1.270 . S
C169 O184 1.251 . S
C169 O185 1.251 . S
C170 Eu171 2.835 . S
C170 C172 1.500 . S
C170 O186 1.257 . S
C170 O187 1.260 . S
Eu171 C170 2.835 . S
Eu171 O183 2.355 . S
Eu171 O185 2.374 . S
Eu171 O186 2.473 . S
Eu171 O187 2.480 . S
Eu171 O188 2.430 . S
Eu171 O189 2.670 . S
Eu171 O190 2.394 . S
C172 C170 1.500 . S
C172 C173 1.377 1_565 S
C172 C177 1.377 . S
C173 C172 1.377 1_545 S
C173 C174 1.395 . S
C173 H196 0.931 . S
C174 C173 1.395 . S
C174 C175 1.383 . S
C174 H197 0.931 . S
C175 C174 1.383 . S
C175 C176 1.394 1_545 S
C176 C175 1.394 1_565 S
C176 C177 1.378 . S
C176 H198 0.946 . S
C177 C172 1.377 . S
C177 C176 1.378 . S
C177 H199 0.931 . S
C178 O188 1.259 . S
C178 O189 1.270 . S
C179 O190 1.251 . S
C179 O191 1.251 . S
O180 C160 1.257 . S
O180 Eu161 2.473 . S
O181 C160 1.260 . S
O181 Eu161 2.480 . S
O182 Eu161 2.430 . S
O182 C168 1.259 . S
O183 Eu161 2.670 . S
O183 C168 1.270 . S
O183 Eu171 2.355 . S
O184 Eu161 2.394 . S
O184 C169 1.251 . S
O185 C169 1.251 . S
O185 Eu171 2.374 . S
O186 C170 1.257 . S
O186 Eu171 2.473 . S
O187 C170 1.260 . S
O187 Eu171 2.480 . S
O188 Eu171 2.430 . S
O188 C178 1.259 . S
O189 Eu161 2.355 . S
O189 Eu171 2.670 . S
O189 C178 1.270 . S
O190 Eu171 2.394 . S
O190 C179 1.251 . S
O191 Eu161 2.374 . S
O191 C179 1.251 . S
H192 C163 0.931 . S
H193 C164 0.931 . S
H194 C166 0.931 . S
H195 C167 0.931 . S
H196 C173 0.931 . S
H197 C174 0.931 . S
H198 C176 0.946 . S
H199 C177 0.931 . S
C200 Eu201 2.835 . S
C200 C202 1.500 . S
C200 O220 1.257 . S
C200 O221 1.260 . S
Eu201 C200 2.835 . S
Eu201 O220 2.473 . S
Eu201 O221 2.480 . S
Eu201 O222 2.430 . S
Eu201 O223 2.670 . S
Eu201 O224 2.394 . S
Eu201 O229 2.355 . S
Eu201 O231 2.374 . S
C202 C200 1.500 . S
C202 C203 1.377 . S
C202 C207 1.377 . S
C203 C202 1.377 . S
C203 C204 1.395 . S
C203 H232 0.931 . S
C204 C203 1.395 . S
C204 C205 1.383 . S
C204 H233 0.931 . S
C205 C204 1.383 . S
C205 C206 1.394 . S
C206 C205 1.394 . S
C206 C207 1.378 . S
C206 H234 0.931 . S
C207 C202 1.377 . S
C207 C206 1.378 . S
C207 H235 0.931 . S
C208 O222 1.259 . S
C208 O223 1.270 . S
C209 O224 1.251 . S
C209 O225 1.251 . S
C210 Eu211 2.835 . S
C210 C212 1.500 . S
C210 O226 1.257 . S
C210 O227 1.260 . S
Eu211 C210 2.835 . S
Eu211 O223 2.355 . S
Eu211 O225 2.374 . S
Eu211 O226 2.473 . S
Eu211 O227 2.480 . S
Eu211 O228 2.430 . S
Eu211 O229 2.670 . S
Eu211 O230 2.394 . S
C212 C210 1.500 . S
C212 C213 1.377 . S
C212 C217 1.377 . S
C213 C212 1.377 . S
C213 C214 1.395 . S
C213 H236 0.931 . S
C214 C213 1.395 . S
C214 C215 1.383 . S
C214 H237 0.931 . S
C215 C214 1.383 . S
C215 C216 1.394 . S
C216 C215 1.394 . S
C216 C217 1.378 . S
C216 H238 0.931 . S
C217 C212 1.377 . S
C217 C216 1.378 . S
C217 H239 0.931 . S
C218 O228 1.259 . S
C218 O229 1.270 . S
C219 O230 1.251 . S
C219 O231 1.251 . S
O220 C200 1.257 . S
O220 Eu201 2.473 . S
O221 C200 1.260 . S
O221 Eu201 2.480 . S
O222 Eu201 2.430 . S
O222 C208 1.259 . S
O223 Eu201 2.670 . S
O223 C208 1.270 . S
O223 Eu211 2.355 . S
O224 Eu201 2.394 . S
O224 C209 1.251 . S
O225 C209 1.251 . S
O225 Eu211 2.374 . S
O226 C210 1.257 . S
O226 Eu211 2.473 . S
O227 C210 1.260 . S
O227 Eu211 2.480 . S
O228 Eu211 2.430 . S
O228 C218 1.259 . S
O229 Eu201 2.355 . S
O229 Eu211 2.670 . S
O229 C218 1.270 . S
O230 Eu211 2.394 . S
O230 C219 1.251 . S
O231 Eu201 2.374 . S
O231 C219 1.251 . S
H232 C203 0.931 . S
H233 C204 0.931 . S
H234 C206 0.931 . S
H235 C207 0.931 . S
H236 C213 0.931 . S
H237 C214 0.931 . S
H238 C216 0.931 . S
H239 C217 0.931 . S
C240 Eu241 2.835 . S
C240 C242 1.500 . S
C240 O260 1.257 . S
C240 O261 1.260 . S
Eu241 C240 2.835 . S
Eu241 O260 2.473 . S
Eu241 O261 2.480 . S
Eu241 O262 2.430 . S
Eu241 O263 2.670 . S
Eu241 O264 2.394 . S
Eu241 O269 2.355 . S
Eu241 O271 2.374 . S
C242 C240 1.500 . S
C242 C243 1.377 . S
C242 C247 1.377 . S
C243 C242 1.377 . S
C243 C244 1.395 . S
C243 H272 0.931 . S
C244 C243 1.395 . S
C244 C245 1.383 . S
C244 H273 0.931 . S
C245 C244 1.383 . S
C245 C246 1.394 . S
C246 C245 1.394 . S
C246 C247 1.378 . S
C246 H274 0.931 . S
C247 C242 1.377 . S
C247 C246 1.378 . S
C247 H275 0.931 . S
C248 O262 1.259 . S
C248 O263 1.270 . S
C249 O264 1.251 . S
C249 O265 1.251 . S
C250 Eu251 2.835 . S
C250 C252 1.500 . S
C250 O266 1.257 . S
C250 O267 1.260 . S
Eu251 C250 2.835 . S
Eu251 O263 2.355 . S
Eu251 O265 2.374 . S
Eu251 O266 2.473 . S
Eu251 O267 2.480 . S
Eu251 O268 2.430 . S
Eu251 O269 2.670 . S
Eu251 O270 2.394 . S
C252 C250 1.500 . S
C252 C253 1.377 1_545 S
C252 C257 1.377 . S
C253 C252 1.377 1_565 S
C253 C254 1.395 . S
C253 H276 0.931 . S
C254 C253 1.395 . S
C254 C255 1.383 . S
C254 H277 0.931 . S
C255 C254 1.383 . S
C255 C256 1.394 1_565 S
C256 C255 1.394 1_545 S
C256 C257 1.378 . S
C256 H278 0.931 . S
C257 C252 1.377 . S
C257 C256 1.378 . S
C257 H279 0.931 . S
C258 O268 1.259 . S
C258 O269 1.270 . S
C259 O270 1.251 . S
C259 O271 1.251 . S
O260 C240 1.257 . S
O260 Eu241 2.473 . S
O261 C240 1.260 . S
O261 Eu241 2.480 . S
O262 Eu241 2.430 . S
O262 C248 1.259 . S
O263 Eu241 2.670 . S
O263 C248 1.270 . S
O263 Eu251 2.355 . S
O264 Eu241 2.394 . S
O264 C249 1.251 . S
O265 C249 1.251 . S
O265 Eu251 2.374 . S
O266 C250 1.257 . S
O266 Eu251 2.473 . S
O267 C250 1.260 . S
O267 Eu251 2.480 . S
O268 Eu251 2.430 . S
O268 C258 1.259 . S
O269 Eu241 2.355 . S
O269 Eu251 2.670 . S
O269 C258 1.270 . S
O270 Eu251 2.394 . S
O270 C259 1.251 . S
O271 Eu241 2.374 . S
O271 C259 1.251 . S
H272 C243 0.931 . S
H273 C244 0.931 . S
H274 C246 0.931 . S
H275 C247 0.931 . S
H276 C253 0.931 . S
H277 C254 0.931 . S
H278 C256 0.931 . S
H279 C257 0.931 . S
C280 Eu281 2.835 1_655 S
C280 C282 1.500 . S
C280 O300 1.257 1_655 S
C280 O301 1.260 . S
Eu281 C280 2.835 1_455 S
Eu281 O300 2.473 . S
Eu281 O301 2.480 1_455 S
Eu281 O302 2.430 . S
Eu281 O303 2.670 . S
Eu281 O304 2.394 . S
Eu281 O309 2.355 . S
Eu281 O311 2.374 . S
C282 C280 1.500 . S
C282 C283 1.377 . S
C282 C287 1.377 . S
C283 C282 1.377 . S
C283 C284 1.395 . S
C283 H312 0.931 . S
C284 C283 1.395 . S
C284 C285 1.383 . S
C284 H313 0.931 . S
C285 C284 1.383 . S
C285 C286 1.394 . S
C286 C285 1.394 . S
C286 C287 1.378 . S
C286 H314 0.931 . S
C287 C282 1.377 . S
C287 C286 1.378 . S
C287 H315 0.931 1_655 S
C288 O302 1.259 . S
C288 O303 1.270 . S
C289 O304 1.251 . S
C289 O305 1.251 . S
C290 Eu291 2.835 . S
C290 C292 1.500 . S
C290 O306 1.257 . S
C290 O307 1.260 . S
Eu291 C290 2.835 . S
Eu291 O303 2.355 . S
Eu291 O305 2.374 . S
Eu291 O306 2.473 . S
Eu291 O307 2.480 . S
Eu291 O308 2.430 . S
Eu291 O309 2.670 . S
Eu291 O310 2.394 . S
C292 C290 1.500 . S
C292 C293 1.377 . S
C292 C297 1.377 . S
C293 C292 1.377 . S
C293 C294 1.395 . S
C293 H316 0.931 . S
C294 C293 1.395 . S
C294 C295 1.383 . S
C294 H317 0.931 . S
C295 C294 1.383 . S
C295 C296 1.394 . S
C296 C295 1.394 . S
C296 C297 1.378 . S
C296 H318 0.931 . S
C297 C292 1.377 . S
C297 C296 1.378 . S
C297 H319 0.931 . S
C298 O308 1.259 . S
C298 O309 1.270 . S
C299 O310 1.251 . S
C299 O311 1.251 . S
O300 C280 1.257 1_455 S
O300 Eu281 2.473 . S
O301 C280 1.260 . S
O301 Eu281 2.480 1_655 S
O302 Eu281 2.430 . S
O302 C288 1.259 . S
O303 Eu281 2.670 . S
O303 C288 1.270 . S
O303 Eu291 2.355 . S
O304 Eu281 2.394 . S
O304 C289 1.251 . S
O305 C289 1.251 . S
O305 Eu291 2.374 . S
O306 C290 1.257 . S
O306 Eu291 2.473 . S
O307 C290 1.260 . S
O307 Eu291 2.480 . S
O308 Eu291 2.430 . S
O308 C298 1.259 . S
O309 Eu281 2.355 . S
O309 Eu291 2.670 . S
O309 C298 1.270 . S
O310 Eu291 2.394 . S
O310 C299 1.251 . S
O311 Eu281 2.374 . S
O311 C299 1.251 . S
H312 C283 0.931 . S
H313 C284 0.931 . S
H314 C286 0.931 . S
H315 C287 0.931 1_455 S
H316 C293 0.931 . S
H317 C294 0.931 . S
H318 C296 0.931 . S
H319 C297 0.931 . S
C320 Eu321 2.835 . S
C320 C322 1.500 . S
C320 O340 1.257 . S
C320 O341 1.260 . S
Eu321 C320 2.835 . S
Eu321 O340 2.473 . S
Eu321 O341 2.480 . S
Eu321 O342 2.430 . S
Eu321 O343 2.670 . S
Eu321 O344 2.394 . S
Eu321 O349 2.355 . S
Eu321 O351 2.374 . S
C322 C320 1.500 . S
C322 C323 1.377 . S
C322 C327 1.377 . S
C323 C322 1.377 . S
C323 C324 1.395 . S
C323 H352 0.931 . S
C324 C323 1.395 . S
C324 C325 1.383 . S
C324 H353 0.931 . S
C325 C324 1.383 . S
C325 C326 1.394 . S
C326 C325 1.394 . S
C326 C327 1.378 . S
C326 H354 0.931 . S
C327 C322 1.377 . S
C327 C326 1.378 . S
C327 H355 0.931 . S
C328 O342 1.259 . S
C328 O343 1.270 . S
C329 O344 1.251 . S
C329 O345 1.251 . S
C330 Eu331 2.835 . S
C330 C332 1.500 . S
C330 O346 1.257 . S
C330 O347 1.260 . S
Eu331 C330 2.835 . S
Eu331 O343 2.355 . S
Eu331 O345 2.374 . S
Eu331 O346 2.473 . S
Eu331 O347 2.480 . S
Eu331 O348 2.430 . S
Eu331 O349 2.670 . S
Eu331 O350 2.394 . S
C332 C330 1.500 . S
C332 C333 1.377 . S
C332 C337 1.377 . S
C333 C332 1.377 . S
C333 C334 1.395 . S
C333 H356 0.931 . S
C334 C333 1.395 . S
C334 C335 1.383 . S
C334 H357 0.931 . S
C335 C334 1.383 . S
C335 C336 1.394 . S
C336 C335 1.394 . S
C336 C337 1.378 . S
C336 H358 0.931 . S
C337 C332 1.377 . S
C337 C336 1.378 . S
C337 H359 0.931 . S
C338 O348 1.259 . S
C338 O349 1.270 . S
C339 O350 1.251 . S
C339 O351 1.251 . S
O340 C320 1.257 . S
O340 Eu321 2.473 . S
O341 C320 1.260 . S
O341 Eu321 2.480 . S
O342 Eu321 2.430 . S
O342 C328 1.259 . S
O343 Eu321 2.670 . S
O343 C328 1.270 . S
O343 Eu331 2.355 . S
O344 Eu321 2.394 . S
O344 C329 1.251 . S
O345 C329 1.251 . S
O345 Eu331 2.374 . S
O346 C330 1.257 . S
O346 Eu331 2.473 . S
O347 C330 1.260 . S
O347 Eu331 2.480 . S
O348 Eu331 2.430 . S
O348 C338 1.259 . S
O349 Eu321 2.355 . S
O349 Eu331 2.670 . S
O349 C338 1.270 . S
O350 Eu331 2.394 . S
O350 C339 1.251 . S
O351 Eu321 2.374 . S
O351 C339 1.251 . S
H352 C323 0.931 . S
H353 C324 0.931 . S
H354 C326 0.931 . S
H355 C327 0.931 . S
H356 C333 0.931 . S
H357 C334 0.931 . S
H358 C336 0.931 . S
H359 C337 0.931 . S
C360 Eu361 2.835 . S
C360 C362 1.500 . S
C360 O380 1.257 . S
C360 O381 1.260 . S
Eu361 C360 2.835 . S
Eu361 O380 2.473 . S
Eu361 O381 2.480 . S
Eu361 O382 2.430 . S
Eu361 O383 2.670 . S
Eu361 O384 2.394 . S
Eu361 O389 2.355 . S
Eu361 O391 2.374 . S
C362 C360 1.500 . S
C362 C363 1.377 . S
C362 C367 1.377 . S
C363 C362 1.377 . S
C363 C364 1.395 . S
C363 H392 0.931 . S
C364 C363 1.395 . S
C364 C365 1.383 . S
C364 H393 0.931 . S
C365 C364 1.383 . S
C365 C366 1.394 . S
C366 C365 1.394 . S
C366 C367 1.378 . S
C366 H394 0.931 . S
C367 C362 1.377 . S
C367 C366 1.378 . S
C367 H395 0.931 . S
C368 O382 1.259 1_565 S
C368 O383 1.270 1_565 S
C369 O384 1.251 . S
C369 O385 1.251 . S
C370 Eu371 2.835 1_665 S
C370 C372 1.500 . S
C370 O386 1.257 1_655 S
C370 O387 1.260 1_565 S
Eu371 C370 2.835 1_445 S
Eu371 O383 2.355 . S
Eu371 O385 2.374 . S
Eu371 O386 2.473 1_545 S
Eu371 O387 2.480 1_455 S
Eu371 O388 2.430 . S
Eu371 O389 2.670 . S
Eu371 O390 2.394 . S
C372 C370 1.500 . S
C372 C373 1.377 . S
C372 C377 1.377 . S
C373 C372 1.377 . S
C373 C374 1.395 . S
C373 H396 0.931 1_565 S
C374 C373 1.395 . S
C374 C375 1.383 . S
C374 H397 0.931 . S
C375 C374 1.383 . S
C375 C376 1.394 . S
C376 C375 1.394 . S
C376 C377 1.378 . S
C376 H398 0.931 . S
C377 C372 1.377 . S
C377 C376 1.378 . S
C377 H399 0.931 1_655 S
C378 O388 1.259 . S
C378 O389 1.270 . S
C379 O390 1.251 . S
C379 O391 1.251 . S
O380 C360 1.257 . S
O380 Eu361 2.473 . S
O381 C360 1.260 . S
O381 Eu361 2.480 . S
O382 Eu361 2.430 . S
O382 C368 1.259 1_545 S
O383 Eu361 2.670 . S
O383 C368 1.270 1_545 S
O383 Eu371 2.355 . S
O384 Eu361 2.394 . S
O384 C369 1.251 . S
O385 C369 1.251 . S
O385 Eu371 2.374 . S
O386 C370 1.257 1_455 S
O386 Eu371 2.473 1_565 S
O387 C370 1.260 1_545 S
O387 Eu371 2.480 1_655 S
O388 Eu371 2.430 . S
O388 C378 1.259 . S
O389 Eu361 2.355 . S
O389 Eu371 2.670 . S
O389 C378 1.270 . S
O390 Eu371 2.394 . S
O390 C379 1.251 . S
O391 Eu361 2.374 . S
O391 C379 1.251 . S
H392 C363 0.931 . S
H393 C364 0.931 . S
H394 C366 0.931 . S
H395 C367 0.931 . S
H396 C373 0.931 1_545 S
H397 C374 0.931 . S
H398 C376 0.931 . S
H399 C377 0.931 1_455 S
C400 Eu401 2.835 . S
C400 C402 1.500 . S
C400 O420 1.257 . S
C400 O421 1.260 . S
Eu401 C400 2.835 . S
Eu401 O420 2.473 . S
Eu401 O421 2.480 . S
Eu401 O422 2.430 . S
Eu401 O423 2.670 . S
Eu401 O424 2.394 . S
Eu401 O429 2.355 . S
Eu401 O431 2.374 . S
C402 C400 1.500 . S
C402 C403 1.377 . S
C402 C407 1.377 . S
C403 C402 1.377 . S
C403 C404 1.395 . S
C403 H432 0.931 . S
C404 C403 1.395 . S
C404 C405 1.383 . S
C404 H433 0.931 . S
C405 C404 1.383 . S
C405 C406 1.394 . S
C406 C405 1.394 . S
C406 C407 1.378 . S
C406 H434 0.946 . S
C407 C402 1.377 . S
C407 C406 1.378 . S
C407 H435 0.931 . S
C408 O422 1.259 . S
C408 O423 1.270 . S
C409 O424 1.251 . S
C409 O425 1.251 . S
C410 Eu411 2.835 . S
C410 C412 1.500 . S
C410 O426 1.257 . S
C410 O427 1.260 . S
Eu411 C410 2.835 . S
Eu411 O423 2.355 . S
Eu411 O425 2.374 . S
Eu411 O426 2.473 . S
Eu411 O427 2.480 . S
Eu411 O428 2.430 . S
Eu411 O429 2.670 . S
Eu411 O430 2.394 . S
C412 C410 1.500 . S
C412 C413 1.377 . S
C412 C417 1.377 . S
C413 C412 1.377 . S
C413 C414 1.395 . S
C413 H436 0.931 . S
C414 C413 1.395 . S
C414 C415 1.383 . S
C414 H437 0.931 . S
C415 C414 1.383 . S
C415 C416 1.394 . S
C416 C415 1.394 . S
C416 C417 1.378 . S
C416 H438 0.931 . S
C417 C412 1.377 . S
C417 C416 1.378 . S
C417 H439 0.931 . S
C418 O428 1.259 . S
C418 O429 1.270 . S
C419 O430 1.251 . S
C419 O431 1.251 . S
O420 C400 1.257 . S
O420 Eu401 2.473 . S
O421 C400 1.260 . S
O421 Eu401 2.480 . S
O422 Eu401 2.430 . S
O422 C408 1.259 . S
O423 Eu401 2.670 . S
O423 C408 1.270 . S
O423 Eu411 2.355 . S
O424 Eu401 2.394 . S
O424 C409 1.251 . S
O425 C409 1.251 . S
O425 Eu411 2.374 . S
O426 C410 1.257 . S
O426 Eu411 2.473 . S
O427 C410 1.260 . S
O427 Eu411 2.480 . S
O428 Eu411 2.430 . S
O428 C418 1.259 . S
O429 Eu401 2.355 . S
O429 Eu411 2.670 . S
O429 C418 1.270 . S
O430 Eu411 2.394 . S
O430 C419 1.251 . S
O431 Eu401 2.374 . S
O431 C419 1.251 . S
H432 C403 0.931 . S
H433 C404 0.931 . S
H434 C406 0.946 . S
H435 C407 0.931 . S
H436 C413 0.931 . S
H437 C414 0.931 . S
H438 C416 0.931 . S
H439 C417 0.931 . S
C440 Eu441 2.835 . S
C440 C442 1.500 . S
C440 O460 1.257 . S
C440 O461 1.260 . S
Eu441 C440 2.835 . S
Eu441 O460 2.473 . S
Eu441 O461 2.480 . S
Eu441 O462 2.430 . S
Eu441 O463 2.670 . S
Eu441 O464 2.394 . S
Eu441 O469 2.355 . S
Eu441 O471 2.374 . S
C442 C440 1.500 . S
C442 C443 1.377 . S
C442 C447 1.377 . S
C443 C442 1.377 . S
C443 C444 1.395 . S
C443 H472 0.931 . S
C444 C443 1.395 . S
C444 C445 1.383 . S
C444 H473 0.931 . S
C445 C444 1.383 . S
C445 C446 1.394 . S
C446 C445 1.394 . S
C446 C447 1.378 . S
C446 H474 0.931 . S
C447 C442 1.377 . S
C447 C446 1.378 . S
C447 H475 0.931 . S
C448 O462 1.259 1_545 S
C448 O463 1.270 1_545 S
C449 O464 1.251 . S
C449 O465 1.251 . S
C450 Eu451 2.835 1_545 S
C450 C452 1.500 . S
C450 O466 1.257 . S
C450 O467 1.260 1_545 S
Eu451 C450 2.835 1_565 S
Eu451 O463 2.355 . S
Eu451 O465 2.374 . S
Eu451 O466 2.473 1_565 S
Eu451 O467 2.480 . S
Eu451 O468 2.430 . S
Eu451 O469 2.670 . S
Eu451 O470 2.394 . S
C452 C450 1.500 . S
C452 C453 1.377 . S
C452 C457 1.377 . S
C453 C452 1.377 . S
C453 C454 1.395 . S
C453 H476 0.931 1_545 S
C454 C453 1.395 . S
C454 C455 1.383 . S
C454 H477 0.931 . S
C455 C454 1.383 . S
C455 C456 1.394 . S
C456 C455 1.394 . S
C456 C457 1.378 . S
C456 H478 0.931 . S
C457 C452 1.377 . S
C457 C456 1.378 . S
C457 H479 0.931 . S
C458 O468 1.259 . S
C458 O469 1.270 . S
C459 O470 1.251 . S
C459 O471 1.251 . S
O460 C440 1.257 . S
O460 Eu441 2.473 . S
O461 C440 1.260 . S
O461 Eu441 2.480 . S
O462 Eu441 2.430 . S
O462 C448 1.259 1_565 S
O463 Eu441 2.670 . S
O463 C448 1.270 1_565 S
O463 Eu451 2.355 . S
O464 Eu441 2.394 . S
O464 C449 1.251 . S
O465 C449 1.251 . S
O465 Eu451 2.374 . S
O466 C450 1.257 . S
O466 Eu451 2.473 1_545 S
O467 C450 1.260 1_565 S
O467 Eu451 2.480 . S
O468 Eu451 2.430 . S
O468 C458 1.259 . S
O469 Eu441 2.355 . S
O469 Eu451 2.670 . S
O469 C458 1.270 . S
O470 Eu451 2.394 . S
O470 C459 1.251 . S
O471 Eu441 2.374 . S
O471 C459 1.251 . S
H472 C443 0.931 . S
H473 C444 0.931 . S
H474 C446 0.931 . S
H475 C447 0.931 . S
H476 C453 0.931 1_565 S
H477 C454 0.931 . S
H478 C456 0.931 . S
H479 C457 0.931 . S
C480 Eu481 2.835 . S
C480 C482 1.500 . S
C480 O500 1.257 . S
C480 O501 1.260 . S
Eu481 C480 2.835 . S
Eu481 O500 2.473 . S
Eu481 O501 2.480 . S
Eu481 O502 2.430 . S
Eu481 O503 2.670 . S
Eu481 O504 2.394 . S
Eu481 O509 2.355 . S
Eu481 O511 2.374 . S
C482 C480 1.500 . S
C482 C483 1.377 . S
C482 C487 1.377 . S
C483 C482 1.377 . S
C483 C484 1.395 . S
C483 H512 0.931 . S
C484 C483 1.395 . S
C484 C485 1.383 . S
C484 H513 0.931 . S
C485 C484 1.383 . S
C485 C486 1.394 . S
C486 C485 1.394 . S
C486 C487 1.378 . S
C486 H514 0.931 . S
C487 C482 1.377 . S
C487 C486 1.378 . S
C487 H515 0.931 . S
C488 O502 1.259 . S
C488 O503 1.270 . S
C489 O504 1.251 . S
C489 O505 1.251 . S
C490 Eu491 2.835 . S
C490 C492 1.500 . S
C490 O506 1.257 . S
C490 O507 1.260 . S
Eu491 C490 2.835 . S
Eu491 O503 2.355 . S
Eu491 O505 2.374 . S
Eu491 O506 2.473 . S
Eu491 O507 2.480 . S
Eu491 O508 2.430 . S
Eu491 O509 2.670 . S
Eu491 O510 2.394 . S
C492 C490 1.500 . S
C492 C493 1.377 . S
C492 C497 1.377 . S
C493 C492 1.377 . S
C493 C494 1.395 . S
C493 H516 0.931 . S
C494 C493 1.395 . S
C494 C495 1.383 . S
C494 H517 0.931 . S
C495 C494 1.383 . S
C495 C496 1.394 . S
C496 C495 1.394 . S
C496 C497 1.378 . S
C496 H518 0.931 . S
C497 C492 1.377 . S
C497 C496 1.378 . S
C497 H519 0.931 . S
C498 O508 1.259 . S
C498 O509 1.270 . S
C499 O510 1.251 . S
C499 O511 1.251 . S
O500 C480 1.257 . S
O500 Eu481 2.473 . S
O501 C480 1.260 . S
O501 Eu481 2.480 . S
O502 Eu481 2.430 . S
O502 C488 1.259 . S
O503 Eu481 2.670 . S
O503 C488 1.270 . S
O503 Eu491 2.355 . S
O504 Eu481 2.394 . S
O504 C489 1.251 . S
O505 C489 1.251 . S
O505 Eu491 2.374 . S
O506 C490 1.257 . S
O506 Eu491 2.473 . S
O507 C490 1.260 . S
O507 Eu491 2.480 . S
O508 Eu491 2.430 . S
O508 C498 1.259 . S
O509 Eu481 2.355 . S
O509 Eu491 2.670 . S
O509 C498 1.270 . S
O510 Eu491 2.394 . S
O510 C499 1.251 . S
O511 Eu481 2.374 . S
O511 C499 1.251 . S
H512 C483 0.931 . S
H513 C484 0.931 . S
H514 C486 0.931 . S
H515 C487 0.931 . S
H516 C493 0.931 . S
H517 C494 0.931 . S
H518 C496 0.931 . S
H519 C497 0.931 . S
C520 Eu521 2.835 1_445 S
C520 C522 1.500 . S
C520 O540 1.257 1_455 S
C520 O541 1.260 1_545 S
Eu521 C520 2.835 1_665 S
Eu521 O540 2.473 1_565 S
Eu521 O541 2.480 1_655 S
Eu521 O542 2.430 . S
Eu521 O543 2.670 . S
Eu521 O544 2.394 . S
Eu521 O549 2.355 . S
Eu521 O551 2.374 . S
C522 C520 1.500 . S
C522 C523 1.377 . S
C522 C527 1.377 . S
C523 C522 1.377 . S
C523 C524 1.395 . S
C523 H552 0.931 1_545 S
C524 C523 1.395 . S
C524 C525 1.383 . S
C524 H553 0.931 . S
C525 C524 1.383 . S
C525 C526 1.394 . S
C526 C525 1.394 . S
C526 C527 1.378 . S
C526 H554 0.931 . S
C527 C522 1.377 . S
C527 C526 1.378 . S
C527 H555 0.931 1_455 S
C528 O542 1.259 . S
C528 O543 1.270 . S
C529 O544 1.251 . S
C529 O545 1.251 . S
C530 Eu531 2.835 . S
C530 C532 1.500 . S
C530 O546 1.257 . S
C530 O547 1.260 . S
Eu531 C530 2.835 . S
Eu531 O543 2.355 . S
Eu531 O545 2.374 . S
Eu531 O546 2.473 . S
Eu531 O547 2.480 . S
Eu531 O548 2.430 . S
Eu531 O549 2.670 . S
Eu531 O550 2.394 . S
C532 C530 1.500 . S
C532 C533 1.377 . S
C532 C537 1.377 . S
C533 C532 1.377 . S
C533 C534 1.395 . S
C533 H556 0.931 . S
C534 C533 1.395 . S
C534 C535 1.383 . S
C534 H557 0.931 . S
C535 C534 1.383 . S
C535 C536 1.394 . S
C536 C535 1.394 . S
C536 C537 1.378 . S
C536 H558 0.931 . S
C537 C532 1.377 . S
C537 C536 1.378 . S
C537 H559 0.931 . S
C538 O548 1.259 1_545 S
C538 O549 1.270 1_545 S
C539 O550 1.251 . S
C539 O551 1.251 . S
O540 C520 1.257 1_655 S
O540 Eu521 2.473 1_545 S
O541 C520 1.260 1_565 S
O541 Eu521 2.480 1_455 S
O542 Eu521 2.430 . S
O542 C528 1.259 . S
O543 Eu521 2.670 . S
O543 C528 1.270 . S
O543 Eu531 2.355 . S
O544 Eu521 2.394 . S
O544 C529 1.251 . S
O545 C529 1.251 . S
O545 Eu531 2.374 . S
O546 C530 1.257 . S
O546 Eu531 2.473 . S
O547 C530 1.260 . S
O547 Eu531 2.480 . S
O548 Eu531 2.430 . S
O548 C538 1.259 1_565 S
O549 Eu521 2.355 . S
O549 Eu531 2.670 . S
O549 C538 1.270 1_565 S
O550 Eu531 2.394 . S
O550 C539 1.251 . S
O551 Eu521 2.374 . S
O551 C539 1.251 . S
H552 C523 0.931 1_565 S
H553 C524 0.931 . S
H554 C526 0.931 . S
H555 C527 0.931 1_655 S
H556 C533 0.931 . S
H557 C534 0.931 . S
H558 C536 0.931 . S
H559 C537 0.931 . S
C560 Eu561 2.835 . S
C560 C562 1.500 . S
C560 O580 1.257 . S
C560 O581 1.260 . S
Eu561 C560 2.835 . S
Eu561 O580 2.473 . S
Eu561 O581 2.480 . S
Eu561 O582 2.430 . S
Eu561 O583 2.670 . S
Eu561 O584 2.394 . S
Eu561 O589 2.355 . S
Eu561 O591 2.374 . S
C562 C560 1.500 . S
C562 C563 1.377 . S
C562 C567 1.377 . S
C563 C562 1.377 . S
C563 C564 1.395 . S
C563 H592 0.931 . S
C564 C563 1.395 . S
C564 C565 1.383 . S
C564 H593 0.931 . S
C565 C564 1.383 . S
C565 C566 1.394 . S
C566 C565 1.394 . S
C566 C567 1.378 . S
C566 H594 0.931 . S
C567 C562 1.377 . S
C567 C566 1.378 . S
C567 H595 0.931 . S
C568 O582 1.259 . S
C568 O583 1.270 . S
C569 O584 1.251 . S
C569 O585 1.251 . S
C570 Eu571 2.835 . S
C570 C572 1.500 . S
C570 O586 1.257 . S
C570 O587 1.260 . S
Eu571 C570 2.835 . S
Eu571 O583 2.355 . S
Eu571 O585 2.374 . S
Eu571 O586 2.473 . S
Eu571 O587 2.480 . S
Eu571 O588 2.430 . S
Eu571 O589 2.670 . S
Eu571 O590 2.394 . S
C572 C570 1.500 . S
C572 C573 1.377 . S
C572 C577 1.377 . S
C573 C572 1.377 . S
C573 C574 1.395 . S
C573 H596 0.931 . S
C574 C573 1.395 . S
C574 C575 1.383 . S
C574 H597 0.931 . S
C575 C574 1.383 . S
C575 C576 1.394 . S
C576 C575 1.394 . S
C576 C577 1.378 . S
C576 H598 0.946 . S
C577 C572 1.377 . S
C577 C576 1.378 . S
C577 H599 0.931 . S
C578 O588 1.259 . S
C578 O589 1.270 . S
C579 O590 1.251 . S
C579 O591 1.251 . S
O580 C560 1.257 . S
O580 Eu561 2.473 . S
O581 C560 1.260 . S
O581 Eu561 2.480 . S
O582 Eu561 2.430 . S
O582 C568 1.259 . S
O583 Eu561 2.670 . S
O583 C568 1.270 . S
O583 Eu571 2.355 . S
O584 Eu561 2.394 . S
O584 C569 1.251 . S
O585 C569 1.251 . S
O585 Eu571 2.374 . S
O586 C570 1.257 . S
O586 Eu571 2.473 . S
O587 C570 1.260 . S
O587 Eu571 2.480 . S
O588 Eu571 2.430 . S
O588 C578 1.259 . S
O589 Eu561 2.355 . S
O589 Eu571 2.670 . S
O589 C578 1.270 . S
O590 Eu571 2.394 . S
O590 C579 1.251 . S
O591 Eu561 2.374 . S
O591 C579 1.251 . S
H592 C563 0.931 . S
H593 C564 0.931 . S
H594 C566 0.931 . S
H595 C567 0.931 . S
H596 C573 0.931 . S
H597 C574 0.931 . S
H598 C576 0.946 . S
H599 C577 0.931 . S
C600 Eu601 2.835 1_565 S
C600 C602 1.500 . S
C600 O620 1.257 . S
C600 O621 1.260 1_565 S
Eu601 C600 2.835 1_545 S
Eu601 O620 2.473 1_545 S
Eu601 O621 2.480 . S
Eu601 O622 2.430 . S
Eu601 O623 2.670 . S
Eu601 O624 2.394 . S
Eu601 O629 2.355 . S
Eu601 O631 2.374 . S
C602 C600 1.500 . S
C602 C603 1.377 . S
C602 C607 1.377 . S
C603 C602 1.377 . S
C603 C604 1.395 . S
C603 H632 0.931 1_565 S
C604 C603 1.395 . S
C604 C605 1.383 . S
C604 H633 0.931 . S
C605 C604 1.383 . S
C605 C606 1.394 . S
C606 C605 1.394 . S
C606 C607 1.378 . S
C606 H634 0.931 . S
C607 C602 1.377 . S
C607 C606 1.378 . S
C607 H635 0.931 . S
C608 O622 1.259 . S
C608 O623 1.270 . S
C609 O624 1.251 . S
C609 O625 1.251 . S
C610 Eu611 2.835 . S
C610 C612 1.500 . S
C610 O626 1.257 . S
C610 O627 1.260 . S
Eu611 C610 2.835 . S
Eu611 O623 2.355 . S
Eu611 O625 2.374 . S
Eu611 O626 2.473 . S
Eu611 O627 2.480 . S
Eu611 O628 2.430 . S
Eu611 O629 2.670 . S
Eu611 O630 2.394 . S
C612 C610 1.500 . S
C612 C613 1.377 . S
C612 C617 1.377 . S
C613 C612 1.377 . S
C613 C614 1.395 . S
C613 H636 0.931 . S
C614 C613 1.395 . S
C614 C615 1.383 . S
C614 H637 0.931 . S
C615 C614 1.383 . S
C615 C616 1.394 . S
C616 C615 1.394 . S
C616 C617 1.378 . S
C616 H638 0.931 . S
C617 C612 1.377 . S
C617 C616 1.378 . S
C617 H639 0.931 . S
C618 O628 1.259 1_565 S
C618 O629 1.270 1_565 S
C619 O630 1.251 . S
C619 O631 1.251 . S
O620 C600 1.257 . S
O620 Eu601 2.473 1_565 S
O621 C600 1.260 1_545 S
O621 Eu601 2.480 . S
O622 Eu601 2.430 . S
O622 C608 1.259 . S
O623 Eu601 2.670 . S
O623 C608 1.270 . S
O623 Eu611 2.355 . S
O624 Eu601 2.394 . S
O624 C609 1.251 . S
O625 C609 1.251 . S
O625 Eu611 2.374 . S
O626 C610 1.257 . S
O626 Eu611 2.473 . S
O627 C610 1.260 . S
O627 Eu611 2.480 . S
O628 Eu611 2.430 . S
O628 C618 1.259 1_545 S
O629 Eu601 2.355 . S
O629 Eu611 2.670 . S
O629 C618 1.270 1_545 S
O630 Eu611 2.394 . S
O630 C619 1.251 . S
O631 Eu601 2.374 . S
O631 C619 1.251 . S
H632 C603 0.931 1_545 S
H633 C604 0.931 . S
H634 C606 0.931 . S
H635 C607 0.931 . S
H636 C613 0.931 . S
H637 C614 0.931 . S
H638 C616 0.931 . S
H639 C617 0.931 . S
C640 C641 1.363 . S
C640 C646 1.379 . S
C640 N648 1.356 . S
C641 C640 1.363 . S
C641 C647 1.363 . S
C642 C643 1.363 . S
C642 C647 1.379 . S
C642 N649 1.356 . S
C643 C642 1.363 . S
C643 C646 1.363 . S
N644 C646 1.356 . S
N644 H656 0.984 . S
N644 H657 0.985 . S
N645 C647 1.356 . S
N645 H650 0.984 . S
N645 H651 0.985 . S
C646 C640 1.379 . S
C646 C643 1.363 . S
C646 N644 1.356 . S
C647 C641 1.363 . S
C647 C642 1.379 . S
C647 N645 1.356 . S
N648 C640 1.356 . S
N648 H654 0.984 . S
N648 H655 0.984 . S
N649 C642 1.356 . S
N649 H652 0.984 . S
N649 H653 0.985 . S
H650 N645 0.984 . S
H651 N645 0.985 . S
H652 N649 0.984 . S
H653 N649 0.985 . S
H654 N648 0.984 . S
H655 N648 0.984 . S
H656 N644 0.984 . S
H657 N644 0.985 . S
C658 C659 1.363 . S
C658 C664 1.379 . S
C658 N666 1.356 . S
C659 C658 1.363 . S
C659 C665 1.363 . S
C660 C661 1.363 . S
C660 C665 1.379 . S
C660 N667 1.356 . S
C661 C660 1.363 . S
C661 C664 1.363 . S
N662 C664 1.356 . S
N662 H674 0.984 . S
N662 H675 0.985 . S
N663 C665 1.356 . S
N663 H668 0.984 . S
N663 H669 0.985 . S
C664 C658 1.379 . S
C664 C661 1.363 . S
C664 N662 1.356 . S
C665 C659 1.363 . S
C665 C660 1.379 . S
C665 N663 1.356 . S
N666 C658 1.356 . S
N666 H672 0.984 . S
N666 H673 0.984 . S
N667 C660 1.356 . S
N667 H670 0.984 . S
N667 H671 0.985 . S
H668 N663 0.984 . S
H669 N663 0.985 . S
H670 N667 0.984 . S
H671 N667 0.985 . S
H672 N666 0.984 . S
H673 N666 0.984 . S
H674 N662 0.984 . S
H675 N662 0.985 . S
C676 C677 1.363 . S
C676 C682 1.379 1_455 S
C676 N684 1.356 . S
C677 C676 1.363 . S
C677 C683 1.363 . S
C678 C679 1.363 . S
C678 C683 1.379 1_655 S
C678 N685 1.356 . S
C679 C678 1.363 . S
C679 C682 1.363 . S
N680 C682 1.356 . S
N680 H692 0.984 . S
N680 H693 0.985 . S
N681 C683 1.356 . S
N681 H686 0.984 . S
N681 H687 0.985 . S
C682 C676 1.379 1_655 S
C682 C679 1.363 . S
C682 N680 1.356 . S
C683 C677 1.363 . S
C683 C678 1.379 1_455 S
C683 N681 1.356 . S
N684 C676 1.356 . S
N684 H690 0.984 . S
N684 H691 0.984 . S
N685 C678 1.356 . S
N685 H688 0.984 . S
N685 H689 0.985 . S
H686 N681 0.984 . S
H687 N681 0.985 . S
H688 N685 0.984 . S
H689 N685 0.985 . S
H690 N684 0.984 . S
H691 N684 0.984 . S
H692 N680 0.984 . S
H693 N680 0.985 . S
C694 C695 1.363 . S
C694 C700 1.379 . S
C694 N702 1.356 . S
C695 C694 1.363 . S
C695 C701 1.363 1_455 S
C696 C697 1.363 . S
C696 C701 1.379 . S
C696 N703 1.356 . S
C697 C696 1.363 . S
C697 C700 1.363 1_655 S
N698 C700 1.356 . S
N698 H710 0.984 . S
N698 H711 0.985 1_455 S
N699 C701 1.356 . S
N699 H704 0.984 1_655 S
N699 H705 0.985 . S
C700 C694 1.379 . S
C700 C697 1.363 1_455 S
C700 N698 1.356 . S
C701 C695 1.363 1_655 S
C701 C696 1.379 . S
C701 N699 1.356 . S
N702 C694 1.356 . S
N702 H708 0.984 . S
N702 H709 0.984 . S
N703 C696 1.356 . S
N703 H706 0.984 . S
N703 H707 0.985 . S
H704 N699 0.984 1_455 S
H705 N699 0.985 . S
H706 N703 0.984 . S
H707 N703 0.985 . S
H708 N702 0.984 . S
H709 N702 0.984 . S
H710 N698 0.984 . S
H711 N698 0.985 1_655 S
C712 C713 1.363 . S
C712 C718 1.379 . S
C712 N720 1.356 . S
C713 C712 1.363 . S
C713 C719 1.363 . S
C714 C715 1.363 . S
C714 C719 1.379 . S
C714 N721 1.356 . S
C715 C714 1.363 . S
C715 C718 1.363 . S
N716 C718 1.356 . S
N716 H728 0.984 . S
N716 H729 0.985 . S
N717 C719 1.356 . S
N717 H722 0.984 . S
N717 H723 0.985 . S
C718 C712 1.379 . S
C718 C715 1.363 . S
C718 N716 1.356 . S
C719 C713 1.363 . S
C719 C714 1.379 . S
C719 N717 1.356 . S
N720 C712 1.356 . S
N720 H726 0.984 . S
N720 H727 0.984 . S
N721 C714 1.356 . S
N721 H724 0.984 . S
N721 H725 0.985 . S
H722 N717 0.984 . S
H723 N717 0.985 . S
H724 N721 0.984 . S
H725 N721 0.985 . S
H726 N720 0.984 . S
H727 N720 0.984 . S
H728 N716 0.984 . S
H729 N716 0.985 . S
C730 C731 1.363 . S
C730 C736 1.379 . S
C730 N738 1.356 . S
C731 C730 1.363 . S
C731 C737 1.363 . S
C732 C733 1.363 . S
C732 C737 1.379 . S
C732 N739 1.356 . S
C733 C732 1.363 . S
C733 C736 1.363 . S
N734 C736 1.356 . S
N734 H746 0.984 . S
N734 H747 0.985 . S
N735 C737 1.356 . S
N735 H740 0.984 . S
N735 H741 0.985 . S
C736 C730 1.379 . S
C736 C733 1.363 . S
C736 N734 1.356 . S
C737 C731 1.363 . S
C737 C732 1.379 . S
C737 N735 1.356 . S
N738 C730 1.356 . S
N738 H744 0.984 . S
N738 H745 0.984 . S
N739 C732 1.356 . S
N739 H742 0.984 . S
N739 H743 0.985 . S
H740 N735 0.984 . S
H741 N735 0.985 . S
H742 N739 0.984 . S
H743 N739 0.985 . S
H744 N738 0.984 . S
H745 N738 0.984 . S
H746 N734 0.984 . S
H747 N734 0.985 . S
C748 C749 1.363 . S
C748 C754 1.379 1_455 S
C748 N756 1.356 . S
C749 C748 1.363 . S
C749 C755 1.363 . S
C750 C751 1.363 . S
C750 C755 1.379 1_655 S
C750 N757 1.356 . S
C751 C750 1.363 . S
C751 C754 1.363 . S
N752 C754 1.356 . S
N752 H764 0.984 . S
N752 H765 0.985 . S
N753 C755 1.356 . S
N753 H758 0.984 . S
N753 H759 0.985 . S
C754 C748 1.379 1_655 S
C754 C751 1.363 . S
C754 N752 1.356 . S
C755 C749 1.363 . S
C755 C750 1.379 1_455 S
C755 N753 1.356 . S
N756 C748 1.356 . S
N756 H762 0.984 . S
N756 H763 0.984 . S
N757 C750 1.356 . S
N757 H760 0.984 . S
N757 H761 0.985 . S
H758 N753 0.984 . S
H759 N753 0.985 . S
H760 N757 0.984 . S
H761 N757 0.985 . S
H762 N756 0.984 . S
H763 N756 0.984 . S
H764 N752 0.984 . S
H765 N752 0.985 . S
C766 C767 1.363 . S
C766 C772 1.379 . S
C766 N774 1.356 . S
C767 C766 1.363 . S
C767 C773 1.363 1_455 S
C768 C769 1.363 . S
C768 C773 1.379 . S
C768 N775 1.356 . S
C769 C768 1.363 . S
C769 C772 1.363 1_655 S
N770 C772 1.356 . S
N770 H782 0.984 . S
N770 H783 0.985 1_455 S
N771 C773 1.356 . S
N771 H776 0.984 1_655 S
N771 H777 0.985 . S
C772 C766 1.379 . S
C772 C769 1.363 1_455 S
C772 N770 1.356 . S
C773 C767 1.363 1_655 S
C773 C768 1.379 . S
C773 N771 1.356 . S
N774 C766 1.356 . S
N774 H780 0.984 . S
N774 H781 0.984 . S
N775 C768 1.356 . S
N775 H778 0.984 . S
N775 H779 0.985 . S
H776 N771 0.984 1_455 S
H777 N771 0.985 . S
H778 N775 0.984 . S
H779 N775 0.985 . S
H780 N774 0.984 . S
H781 N774 0.984 . S
H782 N770 0.984 . S
H783 N770 0.985 1_655 S
C784 C785 1.363 1_544 S
C784 C790 1.379 . S
C784 N792 1.356 . S
C785 C784 1.363 1_566 S
C785 C791 1.363 . S
C786 C787 1.363 1_566 S
C786 C791 1.379 . S
C786 N793 1.356 . S
C787 C786 1.363 1_544 S
C787 C790 1.363 . S
N788 C790 1.356 . S
N788 H800 0.984 . S
N788 H801 0.985 . S
N789 C791 1.356 . S
N789 H794 0.984 . S
N789 H795 0.985 . S
C790 C784 1.379 . S
C790 C787 1.363 . S
C790 N788 1.356 . S
C791 C785 1.363 . S
C791 C786 1.379 . S
C791 N789 1.356 . S
N792 C784 1.356 . S
N792 H798 0.984 . S
N792 H799 0.984 1_545 S
N793 C786 1.356 . S
N793 H796 0.984 1_565 S
N793 H797 0.985 . S
H794 N789 0.984 . S
H795 N789 0.985 . S
H796 N793 0.984 1_545 S
H797 N793 0.985 . S
H798 N792 0.984 . S
H799 N792 0.984 1_565 S
H800 N788 0.984 . S
H801 N788 0.985 . S
C802 C803 1.363 . S
C802 C808 1.379 . S
C802 N810 1.356 . S
C803 C802 1.363 . S
C803 C809 1.363 . S
C804 C805 1.363 . S
C804 C809 1.379 . S
C804 N811 1.356 . S
C805 C804 1.363 . S
C805 C808 1.363 . S
N806 C808 1.356 . S
N806 H818 0.984 . S
N806 H819 0.985 . S
N807 C809 1.356 . S
N807 H812 0.984 . S
N807 H813 0.985 . S
C808 C802 1.379 . S
C808 C805 1.363 . S
C808 N806 1.356 . S
C809 C803 1.363 . S
C809 C804 1.379 . S
C809 N807 1.356 . S
N810 C802 1.356 . S
N810 H816 0.984 . S
N810 H817 0.984 . S
N811 C804 1.356 . S
N811 H814 0.984 . S
N811 H815 0.985 . S
H812 N807 0.984 . S
H813 N807 0.985 . S
H814 N811 0.984 . S
H815 N811 0.985 . S
H816 N810 0.984 . S
H817 N810 0.984 . S
H818 N806 0.984 . S
H819 N806 0.985 . S
C820 C821 1.363 . S
C820 C826 1.379 1_455 S
C820 N828 1.356 . S
C821 C820 1.363 . S
C821 C827 1.363 1_545 S
C822 C823 1.363 . S
C822 C827 1.379 1_655 S
C822 N829 1.356 . S
C823 C822 1.363 . S
C823 C826 1.363 1_565 S
N824 C826 1.356 . S
N824 H836 0.984 . S
N824 H837 0.985 1_545 S
N825 C827 1.356 . S
N825 H830 0.984 1_565 S
N825 H831 0.985 . S
C826 C820 1.379 1_655 S
C826 C823 1.363 1_545 S
C826 N824 1.356 . S
C827 C821 1.363 1_565 S
C827 C822 1.379 1_455 S
C827 N825 1.356 . S
N828 C820 1.356 . S
N828 H834 0.984 . S
N828 H835 0.984 . S
N829 C822 1.356 . S
N829 H832 0.984 . S
N829 H833 0.985 . S
H830 N825 0.984 1_545 S
H831 N825 0.985 . S
H832 N829 0.984 . S
H833 N829 0.985 . S
H834 N828 0.984 . S
H835 N828 0.984 . S
H836 N824 0.984 . S
H837 N824 0.985 1_565 S
C838 C839 1.363 . S
C838 C844 1.379 . S
C838 N846 1.356 . S
C839 C838 1.363 . S
C839 C845 1.363 . S
C840 C841 1.363 . S
C840 C845 1.379 . S
C840 N847 1.356 . S
C841 C840 1.363 . S
C841 C844 1.363 . S
N842 C844 1.356 . S
N842 H854 0.984 . S
N842 H855 0.985 . S
N843 C845 1.356 . S
N843 H848 0.984 . S
N843 H849 0.985 . S
C844 C838 1.379 . S
C844 C841 1.363 . S
C844 N842 1.356 . S
C845 C839 1.363 . S
C845 C840 1.379 . S
C845 N843 1.356 . S
N846 C838 1.356 . S
N846 H852 0.984 . S
N846 H853 0.984 . S
N847 C840 1.356 . S
N847 H850 0.984 . S
N847 H851 0.985 . S
H848 N843 0.984 . S
H849 N843 0.985 . S
H850 N847 0.984 . S
H851 N847 0.985 . S
H852 N846 0.984 . S
H853 N846 0.984 . S
H854 N842 0.984 . S
H855 N842 0.985 . S
C856 C857 1.363 . S
C856 C862 1.379 . S
C856 N864 1.356 . S
C857 C856 1.363 . S
C857 C863 1.363 . S
C858 C859 1.363 . S
C858 C863 1.379 . S
C858 N865 1.356 . S
C859 C858 1.363 . S
C859 C862 1.363 . S
N860 C862 1.356 . S
N860 H872 0.984 . S
N860 H873 0.985 . S
N861 C863 1.356 . S
N861 H866 0.984 . S
N861 H867 0.985 . S
C862 C856 1.379 . S
C862 C859 1.363 . S
C862 N860 1.356 . S
C863 C857 1.363 . S
C863 C858 1.379 . S
C863 N861 1.356 . S
N864 C856 1.356 . S
N864 H870 0.984 . S
N864 H871 0.984 . S
N865 C858 1.356 . S
N865 H868 0.984 . S
N865 H869 0.985 . S
H866 N861 0.984 . S
H867 N861 0.985 . S
H868 N865 0.984 . S
H869 N865 0.985 . S
H870 N864 0.984 . S
H871 N864 0.984 . S
H872 N860 0.984 . S
H873 N860 0.985 . S
C874 C875 1.363 . S
C874 C880 1.379 . S
C874 N882 1.356 . S
C875 C874 1.363 . S
C875 C881 1.363 . S
C876 C877 1.363 . S
C876 C881 1.379 . S
C876 N883 1.356 . S
C877 C876 1.363 . S
C877 C880 1.363 . S
N878 C880 1.356 . S
N878 H890 0.984 . S
N878 H891 0.985 . S
N879 C881 1.356 . S
N879 H884 0.984 . S
N879 H885 0.985 . S
C880 C874 1.379 . S
C880 C877 1.363 . S
C880 N878 1.356 . S
C881 C875 1.363 . S
C881 C876 1.379 . S
C881 N879 1.356 . S
N882 C874 1.356 . S
N882 H888 0.984 . S
N882 H889 0.984 . S
N883 C876 1.356 . S
N883 H886 0.984 . S
N883 H887 0.985 . S
H884 N879 0.984 . S
H885 N879 0.985 . S
H886 N883 0.984 . S
H887 N883 0.985 . S
H888 N882 0.984 . S
H889 N882 0.984 . S
H890 N878 0.984 . S
H891 N878 0.985 . S
C892 C893 1.363 . S
C892 C898 1.379 1_455 S
C892 N900 1.356 . S
C893 C892 1.363 . S
C893 C899 1.363 . S
C894 C895 1.363 . S
C894 C899 1.379 1_655 S
C894 N901 1.356 . S
C895 C894 1.363 . S
C895 C898 1.363 . S
N896 C898 1.356 . S
N896 H908 0.984 . S
N896 H909 0.985 . S
N897 C899 1.356 . S
N897 H902 0.984 . S
N897 H903 0.985 . S
C898 C892 1.379 1_655 S
C898 C895 1.363 . S
C898 N896 1.356 . S
C899 C893 1.363 . S
C899 C894 1.379 1_455 S
C899 N897 1.356 . S
N900 C892 1.356 . S
N900 H906 0.984 . S
N900 H907 0.984 . S
N901 C894 1.356 . S
N901 H904 0.984 . S
N901 H905 0.985 . S
H902 N897 0.984 . S
H903 N897 0.985 . S
H904 N901 0.984 . S
H905 N901 0.985 . S
H906 N900 0.984 . S
H907 N900 0.984 . S
H908 N896 0.984 . S
H909 N896 0.985 . S
C910 C911 1.363 1_554 S
C910 C916 1.379 . S
C910 N918 1.356 . S
C911 C910 1.363 1_556 S
C911 C917 1.363 . S
C912 C913 1.363 1_556 S
C912 C917 1.379 . S
C912 N919 1.356 . S
C913 C912 1.363 1_554 S
C913 C916 1.363 . S
N914 C916 1.356 . S
N914 H926 0.984 . S
N914 H927 0.985 . S
N915 C917 1.356 . S
N915 H920 0.984 . S
N915 H921 0.985 . S
C916 C910 1.379 . S
C916 C913 1.363 . S
C916 N914 1.356 . S
C917 C911 1.363 . S
C917 C912 1.379 . S
C917 N915 1.356 . S
N918 C910 1.356 . S
N918 H924 0.984 . S
N918 H925 0.984 . S
N919 C912 1.356 . S
N919 H922 0.984 . S
N919 H923 0.985 . S
H920 N915 0.984 . S
H921 N915 0.985 . S
H922 N919 0.984 . S
H923 N919 0.985 . S
H924 N918 0.984 . S
H925 N918 0.984 . S
H926 N914 0.984 . S
H927 N914 0.985 . S
C928 C929 1.363 . S
C928 C934 1.379 . S
C928 N936 1.356 . S
C929 C928 1.363 . S
C929 C935 1.363 . S
C930 C931 1.363 . S
C930 C935 1.379 . S
C930 N937 1.356 . S
C931 C930 1.363 . S
C931 C934 1.363 . S
N932 C934 1.356 . S
N932 H944 0.984 . S
N932 H945 0.985 . S
N933 C935 1.356 . S
N933 H938 0.984 . S
N933 H939 0.985 . S
C934 C928 1.379 . S
C934 C931 1.363 . S
C934 N932 1.356 . S
C935 C929 1.363 . S
C935 C930 1.379 . S
C935 N933 1.356 . S
N936 C928 1.356 . S
N936 H942 0.984 . S
N936 H943 0.984 . S
N937 C930 1.356 . S
N937 H940 0.984 . S
N937 H941 0.985 . S
H938 N933 0.984 . S
H939 N933 0.985 . S
H940 N937 0.984 . S
H941 N937 0.985 . S
H942 N936 0.984 . S
H943 N936 0.984 . S
H944 N932 0.984 . S
H945 N932 0.985 . S
C946 C947 1.363 . S
C946 C952 1.379 . S
C946 N954 1.356 . S
C947 C946 1.363 . S
C947 C953 1.363 . S
C948 C949 1.363 . S
C948 C953 1.379 . S
C948 N955 1.356 . S
C949 C948 1.363 . S
C949 C952 1.363 . S
N950 C952 1.356 . S
N950 H962 0.984 . S
N950 H963 0.985 . S
N951 C953 1.356 . S
N951 H956 0.984 . S
N951 H957 0.985 . S
C952 C946 1.379 . S
C952 C949 1.363 . S
C952 N950 1.356 . S
C953 C947 1.363 . S
C953 C948 1.379 . S
C953 N951 1.356 . S
N954 C946 1.356 . S
N954 H960 0.984 . S
N954 H961 0.984 . S
N955 C948 1.356 . S
N955 H958 0.984 . S
N955 H959 0.985 . S
H956 N951 0.984 . S
H957 N951 0.985 . S
H958 N955 0.984 . S
H959 N955 0.985 . S
H960 N954 0.984 . S
H961 N954 0.984 . S
H962 N950 0.984 . S
H963 N950 0.985 . S
C964 C965 1.363 . S
C964 C970 1.379 . S
C964 N972 1.356 . S
C965 C964 1.363 . S
C965 C971 1.363 . S
C966 C967 1.363 . S
C966 C971 1.379 . S
C966 N973 1.356 . S
C967 C966 1.363 . S
C967 C970 1.363 . S
N968 C970 1.356 . S
N968 H980 0.984 . S
N968 H981 0.985 . S
N969 C971 1.356 . S
N969 H974 0.984 . S
N969 H975 0.985 . S
C970 C964 1.379 . S
C970 C967 1.363 . S
C970 N968 1.356 . S
C971 C965 1.363 . S
C971 C966 1.379 . S
C971 N969 1.356 . S
N972 C964 1.356 . S
N972 H978 0.984 . S
N972 H979 0.984 . S
N973 C966 1.356 . S
N973 H976 0.984 . S
N973 H977 0.985 . S
H974 N969 0.984 . S
H975 N969 0.985 . S
H976 N973 0.984 . S
H977 N973 0.985 . S
H978 N972 0.984 . S
H979 N972 0.984 . S
H980 N968 0.984 . S
H981 N968 0.985 . S
C982 C983 1.363 . S
C982 C988 1.379 . S
C982 N990 1.356 . S
C983 C982 1.363 . S
C983 C989 1.363 . S
C984 C985 1.363 . S
C984 C989 1.379 . S
C984 N991 1.356 . S
C985 C984 1.363 . S
C985 C988 1.363 . S
N986 C988 1.356 . S
N986 H998 0.984 . S
N986 H999 0.985 . S
N987 C989 1.356 . S
N987 H992 0.984 . S
N987 H993 0.985 . S
C988 C982 1.379 . S
C988 C985 1.363 . S
C988 N986 1.356 . S
C989 C983 1.363 . S
C989 C984 1.379 . S
C989 N987 1.356 . S
N990 C982 1.356 . S
N990 H996 0.984 . S
N990 H997 0.984 . S
N991 C984 1.356 . S
N991 H994 0.984 . S
N991 H995 0.985 . S
H992 N987 0.984 . S
H993 N987 0.985 . S
H994 N991 0.984 . S
H995 N991 0.985 . S
H996 N990 0.984 . S
H997 N990 0.984 . S
H998 N986 0.984 . S
H999 N986 0.985 . S
C1000 C1001 1.363 . S
C1000 C1006 1.379 . S
C1000 N1008 1.356 . S
C1001 C1000 1.363 . S
C1001 C1007 1.363 . S
C1002 C1003 1.363 . S
C1002 C1007 1.379 . S
C1002 N1009 1.356 . S
C1003 C1002 1.363 . S
C1003 C1006 1.363 . S
N1004 C1006 1.356 . S
N1004 H1016 0.984 . S
N1004 H1017 0.985 . S
N1005 C1007 1.356 . S
N1005 H1010 0.984 . S
N1005 H1011 0.985 . S
C1006 C1000 1.379 . S
C1006 C1003 1.363 . S
C1006 N1004 1.356 . S
C1007 C1001 1.363 . S
C1007 C1002 1.379 . S
C1007 N1005 1.356 . S
N1008 C1000 1.356 . S
N1008 H1014 0.984 . S
N1008 H1015 0.984 . S
N1009 C1002 1.356 . S
N1009 H1012 0.984 . S
N1009 H1013 0.985 . S
H1010 N1005 0.984 . S
H1011 N1005 0.985 . S
H1012 N1009 0.984 . S
H1013 N1009 0.985 . S
H1014 N1008 0.984 . S
H1015 N1008 0.984 . S
H1016 N1004 0.984 . S
H1017 N1004 0.985 . S
C1018 C1019 1.363 . S
C1018 C1024 1.379 . S
C1018 N1026 1.356 . S
C1019 C1018 1.363 . S
C1019 C1025 1.363 . S
C1020 C1021 1.363 . S
C1020 C1025 1.379 . S
C1020 N1027 1.356 . S
C1021 C1020 1.363 . S
C1021 C1024 1.363 . S
N1022 C1024 1.356 . S
N1022 H1034 0.984 . S
N1022 H1035 0.985 . S
N1023 C1025 1.356 . S
N1023 H1028 0.984 . S
N1023 H1029 0.985 . S
C1024 C1018 1.379 . S
C1024 C1021 1.363 . S
C1024 N1022 1.356 . S
C1025 C1019 1.363 . S
C1025 C1020 1.379 . S
C1025 N1023 1.356 . S
N1026 C1018 1.356 . S
N1026 H1032 0.984 . S
N1026 H1033 0.984 . S
N1027 C1020 1.356 . S
N1027 H1030 0.984 . S
N1027 H1031 0.985 . S
H1028 N1023 0.984 . S
H1029 N1023 0.985 . S
H1030 N1027 0.984 . S
H1031 N1027 0.985 . S
H1032 N1026 0.984 . S
H1033 N1026 0.984 . S
H1034 N1022 0.984 . S
H1035 N1022 0.985 . S
C1036 C1037 1.363 . S
C1036 C1042 1.379 . S
C1036 N1044 1.356 . S
C1037 C1036 1.363 . S
C1037 C1043 1.363 . S
C1038 C1039 1.363 . S
C1038 C1043 1.379 . S
C1038 N1045 1.356 . S
C1039 C1038 1.363 . S
C1039 C1042 1.363 . S
N1040 C1042 1.356 . S
N1040 H1052 0.984 . S
N1040 H1053 0.985 . S
N1041 C1043 1.356 . S
N1041 H1046 0.984 . S
N1041 H1047 0.985 . S
C1042 C1036 1.379 . S
C1042 C1039 1.363 . S
C1042 N1040 1.356 . S
C1043 C1037 1.363 . S
C1043 C1038 1.379 . S
C1043 N1041 1.356 . S
N1044 C1036 1.356 . S
N1044 H1050 0.984 . S
N1044 H1051 0.984 . S
N1045 C1038 1.356 . S
N1045 H1048 0.984 . S
N1045 H1049 0.985 . S
H1046 N1041 0.984 . S
H1047 N1041 0.985 . S
H1048 N1045 0.984 . S
H1049 N1045 0.985 . S
H1050 N1044 0.984 . S
H1051 N1044 0.984 . S
H1052 N1040 0.984 . S
H1053 N1040 0.985 . S
C1054 C1055 1.363 . S
C1054 C1060 1.379 . S
C1054 N1062 1.356 . S
C1055 C1054 1.363 . S
C1055 C1061 1.363 . S
C1056 C1057 1.363 . S
C1056 C1061 1.379 . S
C1056 N1063 1.356 . S
C1057 C1056 1.363 . S
C1057 C1060 1.363 . S
N1058 C1060 1.356 . S
N1058 H1070 0.984 . S
N1058 H1071 0.985 . S
N1059 C1061 1.356 . S
N1059 H1064 0.984 . S
N1059 H1065 0.985 . S
C1060 C1054 1.379 . S
C1060 C1057 1.363 . S
C1060 N1058 1.356 . S
C1061 C1055 1.363 . S
C1061 C1056 1.379 . S
C1061 N1059 1.356 . S
N1062 C1054 1.356 . S
N1062 H1068 0.984 . S
N1062 H1069 0.984 . S
N1063 C1056 1.356 . S
N1063 H1066 0.984 . S
N1063 H1067 0.985 . S
H1064 N1059 0.984 . S
H1065 N1059 0.985 . S
H1066 N1063 0.984 . S
H1067 N1063 0.985 . S
H1068 N1062 0.984 . S
H1069 N1062 0.984 . S
H1070 N1058 0.984 . S
H1071 N1058 0.985 . S
C1072 C1073 1.363 . S
C1072 C1078 1.379 . S
C1072 N1080 1.356 . S
C1073 C1072 1.363 . S
C1073 C1079 1.363 . S
C1074 C1075 1.363 . S
C1074 C1079 1.379 . S
C1074 N1081 1.356 . S
C1075 C1074 1.363 . S
C1075 C1078 1.363 . S
N1076 C1078 1.356 . S
N1076 H1088 0.984 . S
N1076 H1089 0.985 . S
N1077 C1079 1.356 . S
N1077 H1082 0.984 . S
N1077 H1083 0.985 . S
C1078 C1072 1.379 . S
C1078 C1075 1.363 . S
C1078 N1076 1.356 . S
C1079 C1073 1.363 . S
C1079 C1074 1.379 . S
C1079 N1077 1.356 . S
N1080 C1072 1.356 . S
N1080 H1086 0.984 . S
N1080 H1087 0.984 . S
N1081 C1074 1.356 . S
N1081 H1084 0.984 . S
N1081 H1085 0.985 . S
H1082 N1077 0.984 . S
H1083 N1077 0.985 . S
H1084 N1081 0.984 . S
H1085 N1081 0.985 . S
H1086 N1080 0.984 . S
H1087 N1080 0.984 . S
H1088 N1076 0.984 . S
H1089 N1076 0.985 . S
C1090 C1091 1.363 . S
C1090 C1096 1.379 . S
C1090 N1098 1.356 . S
C1091 C1090 1.363 . S
C1091 C1097 1.363 . S
C1092 C1093 1.363 . S
C1092 C1097 1.379 . S
C1092 N1099 1.356 . S
C1093 C1092 1.363 . S
C1093 C1096 1.363 . S
N1094 C1096 1.356 . S
N1094 H1106 0.984 . S
N1094 H1107 0.985 . S
N1095 C1097 1.356 . S
N1095 H1100 0.984 . S
N1095 H1101 0.985 . S
C1096 C1090 1.379 . S
C1096 C1093 1.363 . S
C1096 N1094 1.356 . S
C1097 C1091 1.363 . S
C1097 C1092 1.379 . S
C1097 N1095 1.356 . S
N1098 C1090 1.356 . S
N1098 H1104 0.984 . S
N1098 H1105 0.984 . S
N1099 C1092 1.356 . S
N1099 H1102 0.984 . S
N1099 H1103 0.985 . S
H1100 N1095 0.984 . S
H1101 N1095 0.985 . S
H1102 N1099 0.984 . S
H1103 N1099 0.985 . S
H1104 N1098 0.984 . S
H1105 N1098 0.984 . S
H1106 N1094 0.984 . S
H1107 N1094 0.985 . S
C1108 C1109 1.363 . S
C1108 C1114 1.379 . S
C1108 N1116 1.356 . S
C1109 C1108 1.363 . S
C1109 C1115 1.363 . S
C1110 C1111 1.363 . S
C1110 C1115 1.379 . S
C1110 N1117 1.356 . S
C1111 C1110 1.363 . S
C1111 C1114 1.363 . S
N1112 C1114 1.356 . S
N1112 H1124 0.984 . S
N1112 H1125 0.985 . S
N1113 C1115 1.356 . S
N1113 H1118 0.984 . S
N1113 H1119 0.985 . S
C1114 C1108 1.379 . S
C1114 C1111 1.363 . S
C1114 N1112 1.356 . S
C1115 C1109 1.363 . S
C1115 C1110 1.379 . S
C1115 N1113 1.356 . S
N1116 C1108 1.356 . S
N1116 H1122 0.984 . S
N1116 H1123 0.984 . S
N1117 C1110 1.356 . S
N1117 H1120 0.984 . S
N1117 H1121 0.985 . S
H1118 N1113 0.984 . S
H1119 N1113 0.985 . S
H1120 N1117 0.984 . S
H1121 N1117 0.985 . S
H1122 N1116 0.984 . S
H1123 N1116 0.984 . S
H1124 N1112 0.984 . S
H1125 N1112 0.985 . S
C1126 C1127 1.363 . S
C1126 C1132 1.379 . S
C1126 N1134 1.356 . S
C1127 C1126 1.363 . S
C1127 C1133 1.363 . S
C1128 C1129 1.363 . S
C1128 C1133 1.379 . S
C1128 N1135 1.356 . S
C1129 C1128 1.363 . S
C1129 C1132 1.363 . S
N1130 C1132 1.356 . S
N1130 H1142 0.984 . S
N1130 H1143 0.985 . S
N1131 C1133 1.356 . S
N1131 H1136 0.984 . S
N1131 H1137 0.985 . S
C1132 C1126 1.379 . S
C1132 C1129 1.363 . S
C1132 N1130 1.356 . S
C1133 C1127 1.363 . S
C1133 C1128 1.379 . S
C1133 N1131 1.356 . S
N1134 C1126 1.356 . S
N1134 H1140 0.984 . S
N1134 H1141 0.984 . S
N1135 C1128 1.356 . S
N1135 H1138 0.984 . S
N1135 H1139 0.985 1_545 S
H1136 N1131 0.984 . S
H1137 N1131 0.985 . S
H1138 N1135 0.984 . S
H1139 N1135 0.985 1_565 S
H1140 N1134 0.984 . S
H1141 N1134 0.984 . S
H1142 N1130 0.984 . S
H1143 N1130 0.985 . S
C1144 C1145 1.363 . S
C1144 C1150 1.379 . S
C1144 N1152 1.356 . S
C1145 C1144 1.363 . S
C1145 C1151 1.363 . S
C1146 C1147 1.363 . S
C1146 C1151 1.379 . S
C1146 N1153 1.356 . S
C1147 C1146 1.363 . S
C1147 C1150 1.363 . S
N1148 C1150 1.356 . S
N1148 H1160 0.984 . S
N1148 H1161 0.985 . S
N1149 C1151 1.356 . S
N1149 H1154 0.984 . S
N1149 H1155 0.985 . S
C1150 C1144 1.379 . S
C1150 C1147 1.363 . S
C1150 N1148 1.356 . S
C1151 C1145 1.363 . S
C1151 C1146 1.379 . S
C1151 N1149 1.356 . S
N1152 C1144 1.356 . S
N1152 H1158 0.984 . S
N1152 H1159 0.984 . S
N1153 C1146 1.356 . S
N1153 H1156 0.984 . S
N1153 H1157 0.985 . S
H1154 N1149 0.984 . S
H1155 N1149 0.985 . S
H1156 N1153 0.984 . S
H1157 N1153 0.985 . S
H1158 N1152 0.984 . S
H1159 N1152 0.984 . S
H1160 N1148 0.984 . S
H1161 N1148 0.985 . S
C1162 C1163 1.363 . S
C1162 C1168 1.379 . S
C1162 N1170 1.356 . S
C1163 C1162 1.363 . S
C1163 C1169 1.363 . S
C1164 C1165 1.363 . S
C1164 C1169 1.379 . S
C1164 N1171 1.356 . S
C1165 C1164 1.363 . S
C1165 C1168 1.363 . S
N1166 C1168 1.356 . S
N1166 H1178 0.984 . S
N1166 H1179 0.985 . S
N1167 C1169 1.356 . S
N1167 H1172 0.984 . S
N1167 H1173 0.985 . S
C1168 C1162 1.379 . S
C1168 C1165 1.363 . S
C1168 N1166 1.356 . S
C1169 C1163 1.363 . S
C1169 C1164 1.379 . S
C1169 N1167 1.356 . S
N1170 C1162 1.356 . S
N1170 H1176 0.984 . S
N1170 H1177 0.984 . S
N1171 C1164 1.356 . S
N1171 H1174 0.984 . S
N1171 H1175 0.985 . S
H1172 N1167 0.984 . S
H1173 N1167 0.985 . S
H1174 N1171 0.984 . S
H1175 N1171 0.985 . S
H1176 N1170 0.984 . S
H1177 N1170 0.984 . S
H1178 N1166 0.984 . S
H1179 N1166 0.985 . S
C1180 C1181 1.363 . S
C1180 C1186 1.379 . S
C1180 N1188 1.356 . S
C1181 C1180 1.363 . S
C1181 C1187 1.363 . S
C1182 C1183 1.363 . S
C1182 C1187 1.379 . S
C1182 N1189 1.356 . S
C1183 C1182 1.363 . S
C1183 C1186 1.363 . S
N1184 C1186 1.356 . S
N1184 H1196 0.984 . S
N1184 H1197 0.985 . S
N1185 C1187 1.356 . S
N1185 H1190 0.984 . S
N1185 H1191 0.985 . S
C1186 C1180 1.379 . S
C1186 C1183 1.363 . S
C1186 N1184 1.356 . S
C1187 C1181 1.363 . S
C1187 C1182 1.379 . S
C1187 N1185 1.356 . S
N1188 C1180 1.356 . S
N1188 H1194 0.984 1_565 S
N1188 H1195 0.984 1_565 S
N1189 C1182 1.356 . S
N1189 H1192 0.984 . S
N1189 H1193 0.985 . S
H1190 N1185 0.984 . S
H1191 N1185 0.985 . S
H1192 N1189 0.984 . S
H1193 N1189 0.985 . S
H1194 N1188 0.984 1_545 S
H1195 N1188 0.984 1_545 S
H1196 N1184 0.984 . S
H1197 N1184 0.985 . S
C1198 C1199 1.363 . S
C1198 C1204 1.379 . S
C1198 N1206 1.356 . S
C1199 C1198 1.363 . S
C1199 C1205 1.363 . S
C1200 C1201 1.363 . S
C1200 C1205 1.379 . S
C1200 N1207 1.356 . S
C1201 C1200 1.363 . S
C1201 C1204 1.363 . S
N1202 C1204 1.356 . S
N1202 H1214 0.984 . S
N1202 H1215 0.985 . S
N1203 C1205 1.356 . S
N1203 H1208 0.984 . S
N1203 H1209 0.985 . S
C1204 C1198 1.379 . S
C1204 C1201 1.363 . S
C1204 N1202 1.356 . S
C1205 C1199 1.363 . S
C1205 C1200 1.379 . S
C1205 N1203 1.356 . S
N1206 C1198 1.356 . S
N1206 H1212 0.984 . S
N1206 H1213 0.984 . S
N1207 C1200 1.356 . S
N1207 H1210 0.984 . S
N1207 H1211 0.985 . S
H1208 N1203 0.984 . S
H1209 N1203 0.985 . S
H1210 N1207 0.984 . S
H1211 N1207 0.985 . S
H1212 N1206 0.984 . S
H1213 N1206 0.984 . S
H1214 N1202 0.984 . S
H1215 N1202 0.985 . S
C1216 C1217 1.363 . S
C1216 C1222 1.379 . S
C1216 N1224 1.356 1_556 S
C1217 C1216 1.363 . S
C1217 C1223 1.363 . S
C1218 C1219 1.363 . S
C1218 C1223 1.379 . S
C1218 N1225 1.356 . S
C1219 C1218 1.363 . S
C1219 C1222 1.363 . S
N1220 C1222 1.356 . S
N1220 H1232 0.984 . S
N1220 H1233 0.985 . S
N1221 C1223 1.356 . S
N1221 H1226 0.984 1_556 S
N1221 H1227 0.985 . S
C1222 C1216 1.379 . S
C1222 C1219 1.363 . S
C1222 N1220 1.356 . S
C1223 C1217 1.363 . S
C1223 C1218 1.379 . S
C1223 N1221 1.356 . S
N1224 C1216 1.356 1_554 S
N1224 H1230 0.984 . S
N1224 H1231 0.984 . S
N1225 C1218 1.356 . S
N1225 H1228 0.984 . S
N1225 H1229 0.985 . S
H1226 N1221 0.984 1_554 S
H1227 N1221 0.985 . S
H1228 N1225 0.984 . S
H1229 N1225 0.985 . S
H1230 N1224 0.984 . S
H1231 N1224 0.984 . S
H1232 N1220 0.984 . S
H1233 N1220 0.985 . S
C1234 C1235 1.363 . S
C1234 C1240 1.379 . S
C1234 N1242 1.356 . S
C1235 C1234 1.363 . S
C1235 C1241 1.363 . S
C1236 C1237 1.363 . S
C1236 C1241 1.379 . S
C1236 N1243 1.356 . S
C1237 C1236 1.363 . S
C1237 C1240 1.363 . S
N1238 C1240 1.356 . S
N1238 H1250 0.984 . S
N1238 H1251 0.985 . S
N1239 C1241 1.356 . S
N1239 H1244 0.984 . S
N1239 H1245 0.985 . S
C1240 C1234 1.379 . S
C1240 C1237 1.363 . S
C1240 N1238 1.356 . S
C1241 C1235 1.363 . S
C1241 C1236 1.379 . S
C1241 N1239 1.356 . S
N1242 C1234 1.356 . S
N1242 H1248 0.984 . S
N1242 H1249 0.984 . S
N1243 C1236 1.356 . S
N1243 H1246 0.984 . S
N1243 H1247 0.985 . S
H1244 N1239 0.984 . S
H1245 N1239 0.985 . S
H1246 N1243 0.984 . S
H1247 N1243 0.985 . S
H1248 N1242 0.984 . S
H1249 N1242 0.984 . S
H1250 N1238 0.984 . S
H1251 N1238 0.985 . S
C1252 C1253 1.363 . S
C1252 C1258 1.379 . S
C1252 N1260 1.356 . S
C1253 C1252 1.363 . S
C1253 C1259 1.363 . S
C1254 C1255 1.363 . S
C1254 C1259 1.379 . S
C1254 N1261 1.356 . S
C1255 C1254 1.363 . S
C1255 C1258 1.363 . S
N1256 C1258 1.356 . S
N1256 H1268 0.984 . S
N1256 H1269 0.985 . S
N1257 C1259 1.356 . S
N1257 H1262 0.984 . S
N1257 H1263 0.985 . S
C1258 C1252 1.379 . S
C1258 C1255 1.363 . S
C1258 N1256 1.356 . S
C1259 C1253 1.363 . S
C1259 C1254 1.379 . S
C1259 N1257 1.356 . S
N1260 C1252 1.356 . S
N1260 H1266 0.984 . S
N1260 H1267 0.984 . S
N1261 C1254 1.356 . S
N1261 H1264 0.984 . S
N1261 H1265 0.985 . S
H1262 N1257 0.984 . S
H1263 N1257 0.985 . S
H1264 N1261 0.984 . S
H1265 N1261 0.985 . S
H1266 N1260 0.984 . S
H1267 N1260 0.984 . S
H1268 N1256 0.984 . S
H1269 N1256 0.985 . S
C1270 C1271 1.363 . S
C1270 C1276 1.379 . S
C1270 N1278 1.356 . S
C1271 C1270 1.363 . S
C1271 C1277 1.363 . S
C1272 C1273 1.363 . S
C1272 C1277 1.379 . S
C1272 N1279 1.356 . S
C1273 C1272 1.363 . S
C1273 C1276 1.363 . S
N1274 C1276 1.356 . S
N1274 H1286 0.984 . S
N1274 H1287 0.985 . S
N1275 C1277 1.356 . S
N1275 H1280 0.984 . S
N1275 H1281 0.985 . S
C1276 C1270 1.379 . S
C1276 C1273 1.363 . S
C1276 N1274 1.356 . S
C1277 C1271 1.363 . S
C1277 C1272 1.379 . S
C1277 N1275 1.356 . S
N1278 C1270 1.356 . S
N1278 H1284 0.984 . S
N1278 H1285 0.984 . S
N1279 C1272 1.356 . S
N1279 H1282 0.984 . S
N1279 H1283 0.985 . S
H1280 N1275 0.984 . S
H1281 N1275 0.985 . S
H1282 N1279 0.984 . S
H1283 N1279 0.985 . S
H1284 N1278 0.984 . S
H1285 N1278 0.984 . S
H1286 N1274 0.984 . S
H1287 N1274 0.985 . S
C1288 C1289 1.363 . S
C1288 C1294 1.379 . S
C1288 N1296 1.356 . S
C1289 C1288 1.363 . S
C1289 C1295 1.363 . S
C1290 C1291 1.363 . S
C1290 C1295 1.379 . S
C1290 N1297 1.362 . S
C1291 C1290 1.363 . S
C1291 C1294 1.363 . S
N1292 C1294 1.356 . S
N1292 H1304 0.984 . S
N1292 H1305 0.985 1_554 S
N1293 C1295 1.356 . S
N1293 H1298 0.984 . S
N1293 H1299 0.985 . S
C1294 C1288 1.379 . S
C1294 C1291 1.363 . S
C1294 N1292 1.356 . S
C1295 C1289 1.363 . S
C1295 C1290 1.379 . S
C1295 N1293 1.356 . S
N1296 C1288 1.356 . S
N1296 H1302 0.984 . S
N1296 H1303 0.984 . S
N1297 C1290 1.362 . S
N1297 H1300 0.978 1_554 S
N1297 H1301 0.986 . S
H1298 N1293 0.984 . S
H1299 N1293 0.985 . S
H1300 N1297 0.978 1_556 S
H1301 N1297 0.986 . S
H1302 N1296 0.984 . S
H1303 N1296 0.984 . S
H1304 N1292 0.984 . S
H1305 N1292 0.985 1_556 S
C1306 C1307 1.363 . S
C1306 C1312 1.379 . S
C1306 N1314 1.356 . S
C1307 C1306 1.363 . S
C1307 C1313 1.363 . S
C1308 C1309 1.363 . S
C1308 C1313 1.379 . S
C1308 N1315 1.356 . S
C1309 C1308 1.363 . S
C1309 C1312 1.363 . S
N1310 C1312 1.356 . S
N1310 H1322 0.984 . S
N1310 H1323 0.985 . S
N1311 C1313 1.356 . S
N1311 H1316 0.984 . S
N1311 H1317 0.985 . S
C1312 C1306 1.379 . S
C1312 C1309 1.363 . S
C1312 N1310 1.356 . S
C1313 C1307 1.363 . S
C1313 C1308 1.379 . S
C1313 N1311 1.356 . S
N1314 C1306 1.356 . S
N1314 H1320 0.984 . S
N1314 H1321 0.984 . S
N1315 C1308 1.356 . S
N1315 H1318 0.984 . S
N1315 H1319 0.985 . S
H1316 N1311 0.984 . S
H1317 N1311 0.985 . S
H1318 N1315 0.984 . S
H1319 N1315 0.985 . S
H1320 N1314 0.984 . S
H1321 N1314 0.984 . S
H1322 N1310 0.984 . S
H1323 N1310 0.985 . S
C1324 C1325 1.363 . S
C1324 C1330 1.379 . S
C1324 N1332 1.356 . S
C1325 C1324 1.363 . S
C1325 C1331 1.363 . S
C1326 C1327 1.363 . S
C1326 C1331 1.379 . S
C1326 N1333 1.356 . S
C1327 C1326 1.363 . S
C1327 C1330 1.363 . S
N1328 C1330 1.356 . S
N1328 H1340 0.984 . S
N1328 H1341 0.985 . S
N1329 C1331 1.356 . S
N1329 H1334 0.984 . S
N1329 H1335 0.985 . S
C1330 C1324 1.379 . S
C1330 C1327 1.363 . S
C1330 N1328 1.356 . S
C1331 C1325 1.363 . S
C1331 C1326 1.379 . S
C1331 N1329 1.356 . S
N1332 C1324 1.356 . S
N1332 H1338 0.984 . S
N1332 H1339 0.984 . S
N1333 C1326 1.356 . S
N1333 H1336 0.984 . S
N1333 H1337 0.985 . S
H1334 N1329 0.984 . S
H1335 N1329 0.985 . S
H1336 N1333 0.984 . S
H1337 N1333 0.985 . S
H1338 N1332 0.984 . S
H1339 N1332 0.984 . S
H1340 N1328 0.984 . S
H1341 N1328 0.985 . S
C1342 C1343 1.363 . S
C1342 C1348 1.379 . S
C1342 N1350 1.356 . S
C1343 C1342 1.363 . S
C1343 C1349 1.363 . S
C1344 C1345 1.363 . S
C1344 C1349 1.379 . S
C1344 N1351 1.356 . S
C1345 C1344 1.363 . S
C1345 C1348 1.363 . S
N1346 C1348 1.356 . S
N1346 H1358 0.984 . S
N1346 H1359 0.985 . S
N1347 C1349 1.356 . S
N1347 H1352 0.984 . S
N1347 H1353 0.985 . S
C1348 C1342 1.379 . S
C1348 C1345 1.363 . S
C1348 N1346 1.356 . S
C1349 C1343 1.363 . S
C1349 C1344 1.379 . S
C1349 N1347 1.356 . S
N1350 C1342 1.356 . S
N1350 H1356 0.984 . S
N1350 H1357 0.984 . S
N1351 C1344 1.356 . S
N1351 H1354 0.984 . S
N1351 H1355 0.985 . S
H1352 N1347 0.984 . S
H1353 N1347 0.985 . S
H1354 N1351 0.984 . S
H1355 N1351 0.985 . S
H1356 N1350 0.984 . S
H1357 N1350 0.984 . S
H1358 N1346 0.984 . S
H1359 N1346 0.985 . S
C1360 C1361 1.363 . S
C1360 C1366 1.379 . S
C1360 N1368 1.356 . S
C1361 C1360 1.363 . S
C1361 C1367 1.363 . S
C1362 C1363 1.363 . S
C1362 C1367 1.379 . S
C1362 N1369 1.356 . S
C1363 C1362 1.363 . S
C1363 C1366 1.363 . S
N1364 C1366 1.356 . S
N1364 H1376 0.984 . S
N1364 H1377 0.985 . S
N1365 C1367 1.356 . S
N1365 H1370 0.984 . S
N1365 H1371 0.985 . S
C1366 C1360 1.379 . S
C1366 C1363 1.363 . S
C1366 N1364 1.356 . S
C1367 C1361 1.363 . S
C1367 C1362 1.379 . S
C1367 N1365 1.356 . S
N1368 C1360 1.356 . S
N1368 H1374 0.984 . S
N1368 H1375 0.984 . S
N1369 C1362 1.356 . S
N1369 H1372 0.984 . S
N1369 H1373 0.985 . S
H1370 N1365 0.984 . S
H1371 N1365 0.985 . S
H1372 N1369 0.984 . S
H1373 N1369 0.985 . S
H1374 N1368 0.984 . S
H1375 N1368 0.984 . S
H1376 N1364 0.984 . S
H1377 N1364 0.985 . S
C1378 C1379 1.363 . S
C1378 C1384 1.379 . S
C1378 N1386 1.356 . S
C1379 C1378 1.363 . S
C1379 C1385 1.363 . S
C1380 C1381 1.363 . S
C1380 C1385 1.379 . S
C1380 N1387 1.356 . S
C1381 C1380 1.363 . S
C1381 C1384 1.363 . S
N1382 C1384 1.356 . S
N1382 H1394 0.984 . S
N1382 H1395 0.985 . S
N1383 C1385 1.356 . S
N1383 H1388 0.984 . S
N1383 H1389 0.985 . S
C1384 C1378 1.379 . S
C1384 C1381 1.363 . S
C1384 N1382 1.356 . S
C1385 C1379 1.363 . S
C1385 C1380 1.379 . S
C1385 N1383 1.356 . S
N1386 C1378 1.356 . S
N1386 H1392 0.984 . S
N1386 H1393 0.984 . S
N1387 C1380 1.356 . S
N1387 H1390 0.984 1_565 S
N1387 H1391 0.985 . S
H1388 N1383 0.984 . S
H1389 N1383 0.985 . S
H1390 N1387 0.984 1_545 S
H1391 N1387 0.985 . S
H1392 N1386 0.984 . S
H1393 N1386 0.984 . S
H1394 N1382 0.984 . S
H1395 N1382 0.985 . S
C1396 C1397 1.363 . S
C1396 C1402 1.384 . S
C1396 N1404 1.356 . S
C1397 C1396 1.363 . S
C1397 C1403 1.363 . S
C1398 C1399 1.363 . S
C1398 C1403 1.379 . S
C1398 N1405 1.356 . S
C1399 C1398 1.363 . S
C1399 C1402 1.364 . S
N1400 C1402 1.349 1_554 S
N1400 H1412 0.984 . S
N1400 H1413 0.985 . S
N1401 C1403 1.356 . S
N1401 H1406 0.984 . S
N1401 H1407 0.985 . S
C1402 C1396 1.384 . S
C1402 C1399 1.364 . S
C1402 N1400 1.349 1_556 S
C1403 C1397 1.363 . S
C1403 C1398 1.379 . S
C1403 N1401 1.356 . S
N1404 C1396 1.356 . S
N1404 H1410 0.984 . S
N1404 H1411 0.984 . S
N1405 C1398 1.356 . S
N1405 H1408 0.984 . S
N1405 H1409 0.985 . S
H1406 N1401 0.984 . S
H1407 N1401 0.985 . S
H1408 N1405 0.984 . S
H1409 N1405 0.985 . S
H1410 N1404 0.984 . S
H1411 N1404 0.984 . S
H1412 N1400 0.984 . S
H1413 N1400 0.985 . S
C1414 C1415 1.363 . S
C1414 C1420 1.379 . S
C1414 N1422 1.356 1_545 S
C1415 C1414 1.363 . S
C1415 C1421 1.363 . S
C1416 C1417 1.363 . S
C1416 C1421 1.379 . S
C1416 N1423 1.356 . S
C1417 C1416 1.363 . S
C1417 C1420 1.363 . S
N1418 C1420 1.356 . S
N1418 H1430 0.984 . S
N1418 H1431 0.985 . S
N1419 C1421 1.356 . S
N1419 H1424 0.984 . S
N1419 H1425 0.985 . S
C1420 C1414 1.379 . S
C1420 C1417 1.363 . S
C1420 N1418 1.356 . S
C1421 C1415 1.363 . S
C1421 C1416 1.379 . S
C1421 N1419 1.356 . S
N1422 C1414 1.356 1_565 S
N1422 H1428 0.984 . S
N1422 H1429 0.984 . S
N1423 C1416 1.356 . S
N1423 H1426 0.984 . S
N1423 H1427 0.985 . S
H1424 N1419 0.984 . S
H1425 N1419 0.985 . S
H1426 N1423 0.984 . S
H1427 N1423 0.985 . S
H1428 N1422 0.984 . S
H1429 N1422 0.984 . S
H1430 N1418 0.984 . S
H1431 N1418 0.985 . S
C1432 C1433 1.363 . S
C1432 C1438 1.379 . S
C1432 N1440 1.356 . S
C1433 C1432 1.363 . S
C1433 C1439 1.363 . S
C1434 C1435 1.363 . S
C1434 C1439 1.379 . S
C1434 N1441 1.356 . S
C1435 C1434 1.363 . S
C1435 C1438 1.363 . S
N1436 C1438 1.356 . S
N1436 H1448 0.984 . S
N1436 H1449 0.985 . S
N1437 C1439 1.356 . S
N1437 H1442 0.984 . S
N1437 H1443 0.985 . S
C1438 C1432 1.379 . S
C1438 C1435 1.363 . S
C1438 N1436 1.356 . S
C1439 C1433 1.363 . S
C1439 C1434 1.379 . S
C1439 N1437 1.356 . S
N1440 C1432 1.356 . S
N1440 H1446 0.984 . S
N1440 H1447 0.984 . S
N1441 C1434 1.356 . S
N1441 H1444 0.984 . S
N1441 H1445 0.985 . S
H1442 N1437 0.984 . S
H1443 N1437 0.985 . S
H1444 N1441 0.984 . S
H1445 N1441 0.985 . S
H1446 N1440 0.984 . S
H1447 N1440 0.984 . S
H1448 N1436 0.984 . S
H1449 N1436 0.985 . S
C1450 C1451 1.363 . S
C1450 C1456 1.379 . S
C1450 N1458 1.356 . S
C1451 C1450 1.363 . S
C1451 C1457 1.363 . S
C1452 C1453 1.363 . S
C1452 C1457 1.379 . S
C1452 N1459 1.356 . S
C1453 C1452 1.363 . S
C1453 C1456 1.363 . S
N1454 C1456 1.356 . S
N1454 H1466 0.984 . S
N1454 H1467 0.985 . S
N1455 C1457 1.356 . S
N1455 H1460 0.984 . S
N1455 H1461 0.985 . S
C1456 C1450 1.379 . S
C1456 C1453 1.363 . S
C1456 N1454 1.356 . S
C1457 C1451 1.363 . S
C1457 C1452 1.379 . S
C1457 N1455 1.356 . S
N1458 C1450 1.356 . S
N1458 H1464 0.984 . S
N1458 H1465 0.984 . S
N1459 C1452 1.356 . S
N1459 H1462 0.984 1_545 S
N1459 H1463 0.985 1_545 S
H1460 N1455 0.984 . S
H1461 N1455 0.985 . S
H1462 N1459 0.984 1_565 S
H1463 N1459 0.985 1_565 S
H1464 N1458 0.984 . S
H1465 N1458 0.984 . S
H1466 N1454 0.984 . S
H1467 N1454 0.985 . S
C1468 C1469 1.363 . S
C1468 C1474 1.379 . S
C1468 N1476 1.356 . S
C1469 C1468 1.363 . S
C1469 C1475 1.363 . S
C1470 C1471 1.363 . S
C1470 C1475 1.379 . S
C1470 N1477 1.356 . S
C1471 C1470 1.363 . S
C1471 C1474 1.363 . S
N1472 C1474 1.356 1_556 S
N1472 H1484 0.983 1_556 S
N1472 H1485 0.985 . S
N1473 C1475 1.356 . S
N1473 H1478 0.984 . S
N1473 H1479 0.985 . S
C1474 C1468 1.379 . S
C1474 C1471 1.363 . S
C1474 N1472 1.356 1_554 S
C1475 C1469 1.363 . S
C1475 C1470 1.379 . S
C1475 N1473 1.356 . S
N1476 C1468 1.356 . S
N1476 H1482 0.984 . S
N1476 H1483 0.984 . S
N1477 C1470 1.356 . S
N1477 H1480 0.984 1_554 S
N1477 H1481 0.985 . S
H1478 N1473 0.984 . S
H1479 N1473 0.985 . S
H1480 N1477 0.984 1_556 S
H1481 N1477 0.985 . S
H1482 N1476 0.984 . S
H1483 N1476 0.984 . S
H1484 N1472 0.983 1_554 S
H1485 N1472 0.985 . S
C1486 C1487 1.363 . S
C1486 C1492 1.379 . S
C1486 N1494 1.356 . S
C1487 C1486 1.363 . S
C1487 C1493 1.363 . S
C1488 C1489 1.363 . S
C1488 C1493 1.379 . S
C1488 N1495 1.356 . S
C1489 C1488 1.363 . S
C1489 C1492 1.363 . S
N1490 C1492 1.356 . S
N1490 H1502 0.984 . S
N1490 H1503 0.985 . S
N1491 C1493 1.356 . S
N1491 H1496 0.984 . S
N1491 H1497 0.985 . S
C1492 C1486 1.379 . S
C1492 C1489 1.363 . S
C1492 N1490 1.356 . S
C1493 C1487 1.363 . S
C1493 C1488 1.379 . S
C1493 N1491 1.356 . S
N1494 C1486 1.356 . S
N1494 H1500 0.984 . S
N1494 H1501 0.984 . S
N1495 C1488 1.356 . S
N1495 H1498 0.984 . S
N1495 H1499 0.985 . S
H1496 N1491 0.984 . S
H1497 N1491 0.985 . S
H1498 N1495 0.984 . S
H1499 N1495 0.985 . S
H1500 N1494 0.984 . S
H1501 N1494 0.984 . S
H1502 N1490 0.984 . S
H1503 N1490 0.985 . S
C641 C18 3.105 . S
C643 C418 3.105 . S
C659 C58 3.105 . S
C661 C458 3.105 . S
C677 C98 3.105 . S
C679 C338 3.105 . S
C695 C378 3.105 . S
C697 C138 3.105 . S
C713 C168 3.105 . S
C715 C568 3.105 . S
C731 C608 3.105 . S
C733 C208 3.105 . S
C749 C488 3.105 . S
C751 C248 3.105 . S
C767 C288 3.105 . S
C769 C528 3.105 . S
C785 C5 1.307 1_556 S
C787 C175 1.307 1_554 S
C803 C45 1.307 . S
C805 C535 1.307 . S
C821 C85 1.307 . S
C823 C255 1.307 . S
C839 C125 1.307 . S
C841 C615 1.307 . S
C857 C215 1.307 . S
C859 C365 1.307 . S
C875 C445 1.307 . S
C877 C295 1.307 . S
C893 C495 1.307 . S
C895 C325 1.307 . S
C911 C405 1.307 1_556 S
C913 C575 1.307 1_554 S
C929 C15 1.619 . S
C931 C298 1.925 . S
C947 C55 1.619 . S
C949 C498 1.925 . S
C965 C95 1.619 . S
C967 C218 1.925 . S
C983 C135 1.619 . S
C985 C578 1.925 . S
C1001 C128 1.925 . S
C1003 C165 1.619 . S
C1019 C205 1.619 . S
C1021 C328 1.925 . S
C1037 C245 1.619 . S
C1039 C48 1.925 . S
C1055 C408 1.925 . S
C1057 C285 1.619 . S
C1073 C335 1.619 . S
C1075 C618 1.925 . S
C1091 C178 1.925 . S
C1093 C375 1.619 . S
C1109 C538 1.925 . S
C1111 C415 1.619 . S
C1127 C258 1.925 . S
C1129 C455 1.619 . S
C1145 C485 1.619 . S
C1147 C448 1.925 . S
C1163 C525 1.619 . S
C1165 C8 1.925 . S
C1181 C368 1.925 . S
C1183 C565 1.619 . S
C1199 C605 1.619 . S
C1201 C88 1.925 . S
C1217 C9 3.962 1_556 S
C1219 C379 3.995 . S
C1235 C419 3.996 . S
C1237 C49 3.962 . S
C1253 C89 3.962 . S
C1255 C459 3.995 . S
C1271 C339 3.995 . S
C1273 C129 3.962 . S
C1289 C529 3.995 . S
C1291 C179 3.962 1_554 S
C1307 C569 3.996 . S
C1309 C219 3.962 . S
C1325 C609 3.995 . S
C1327 C259 3.962 . S
C1343 C489 3.995 . S
C1345 C299 3.962 . S
C1361 C59 3.996 . S
C1363 C329 3.962 . S
C1379 C99 3.996 . S
C1381 C369 3.962 1_565 S
C1397 C139 3.996 . S
C1399 C409 3.962 1_556 S
C1415 C449 3.962 1_545 S
C1417 C19 3.996 . S
C1433 C209 3.996 . S
C1435 C499 3.962 . S
C1451 C249 3.996 . S
C1453 C539 3.962 1_545 S
C1469 C289 3.996 . S
C1471 C579 3.962 1_554 S
C1487 C169 3.996 . S
C1489 C619 3.962 1_565 S
