# Generated by pormake.
# Topology wiv, (6)-cn, num edge types: 1
# Building blocks:
#     Node 0, Type 0, BuildingBlock: VOLQOD_clean_sbu_1, # of connection points: 6
#     Node 1, Type 0, BuildingBlock: VOLQOD_clean_sbu_1, # of connection points: 6
#     Node 2, Type 0, BuildingBlock: VOLQOD_clean_sbu_1, # of connection points: 6
#     Node 3, Type 0, BuildingBlock: VOLQOD_clean_sbu_1, # of connection points: 6
#     Node 4, Type 0, BuildingBlock: VOLQOD_clean_sbu_1, # of connection points: 6
#     Node 5, Type 0, BuildingBlock: VOLQOD_clean_sbu_1, # of connection points: 6
#     Node 6, Type 0, BuildingBlock: VOLQOD_clean_sbu_1, # of connection points: 6
#     Node 7, Type 0, BuildingBlock: VOLQOD_clean_sbu_1, # of connection points: 6
#     Node 8, Type 0, BuildingBlock: VOLQOD_clean_sbu_1, # of connection points: 6
#     Node 9, Type 0, BuildingBlock: VOLQOD_clean_sbu_1, # of connection points: 6
#     Node 10, Type 0, BuildingBlock: VOLQOD_clean_sbu_1, # of connection points: 6
#     Node 11, Type 0, BuildingBlock: VOLQOD_clean_sbu_1, # of connection points: 6
#     Node 12, Type 0, BuildingBlock: VOLQOD_clean_sbu_1, # of connection points: 6
#     Node 13, Type 0, BuildingBlock: VOLQOD_clean_sbu_1, # of connection points: 6
#     Node 14, Type 0, BuildingBlock: VOLQOD_clean_sbu_1, # of connection points: 6
#     Node 15, Type 0, BuildingBlock: VOLQOD_clean_sbu_1, # of connection points: 6
#     Edge 16, Type (0, 0), BuildingBlock: OJICUG_clean_linker_0, # of connection points: 2
#     Edge 17, Type (0, 0), BuildingBlock: OJICUG_clean_linker_0, # of connection points: 2
#     Edge 18, Type (0, 0), BuildingBlock: OJICUG_clean_linker_0, # of connection points: 2
#     Edge 19, Type (0, 0), BuildingBlock: OJICUG_clean_linker_0, # of connection points: 2
#     Edge 20, Type (0, 0), BuildingBlock: OJICUG_clean_linker_0, # of connection points: 2
#     Edge 21, Type (0, 0), BuildingBlock: OJICUG_clean_linker_0, # of connection points: 2
#     Edge 22, Type (0, 0), BuildingBlock: OJICUG_clean_linker_0, # of connection points: 2
#     Edge 23, Type (0, 0), BuildingBlock: OJICUG_clean_linker_0, # of connection points: 2
#     Edge 24, Type (0, 0), BuildingBlock: OJICUG_clean_linker_0, # of connection points: 2
#     Edge 25, Type (0, 0), BuildingBlock: OJICUG_clean_linker_0, # of connection points: 2
#     Edge 26, Type (0, 0), BuildingBlock: OJICUG_clean_linker_0, # of connection points: 2
#     Edge 27, Type (0, 0), BuildingBlock: OJICUG_clean_linker_0, # of connection points: 2
#     Edge 28, Type (0, 0), BuildingBlock: OJICUG_clean_linker_0, # of connection points: 2
#     Edge 29, Type (0, 0), BuildingBlock: OJICUG_clean_linker_0, # of connection points: 2
#     Edge 30, Type (0, 0), BuildingBlock: OJICUG_clean_linker_0, # of connection points: 2
#     Edge 31, Type (0, 0), BuildingBlock: OJICUG_clean_linker_0, # of connection points: 2
#     Edge 32, Type (0, 0), BuildingBlock: OJICUG_clean_linker_0, # of connection points: 2
#     Edge 33, Type (0, 0), BuildingBlock: OJICUG_clean_linker_0, # of connection points: 2
#     Edge 34, Type (0, 0), BuildingBlock: OJICUG_clean_linker_0, # of connection points: 2
#     Edge 35, Type (0, 0), BuildingBlock: OJICUG_clean_linker_0, # of connection points: 2
#     Edge 36, Type (0, 0), BuildingBlock: OJICUG_clean_linker_0, # of connection points: 2
#     Edge 37, Type (0, 0), BuildingBlock: OJICUG_clean_linker_0, # of connection points: 2
#     Edge 38, Type (0, 0), BuildingBlock: OJICUG_clean_linker_0, # of connection points: 2
#     Edge 39, Type (0, 0), BuildingBlock: OJICUG_clean_linker_0, # of connection points: 2
#     Edge 40, Type (0, 0), BuildingBlock: OJICUG_clean_linker_0, # of connection points: 2
#     Edge 41, Type (0, 0), BuildingBlock: OJICUG_clean_linker_0, # of connection points: 2
#     Edge 42, Type (0, 0), BuildingBlock: OJICUG_clean_linker_0, # of connection points: 2
#     Edge 43, Type (0, 0), BuildingBlock: OJICUG_clean_linker_0, # of connection points: 2
#     Edge 44, Type (0, 0), BuildingBlock: OJICUG_clean_linker_0, # of connection points: 2
#     Edge 45, Type (0, 0), BuildingBlock: OJICUG_clean_linker_0, # of connection points: 2
#     Edge 46, Type (0, 0), BuildingBlock: OJICUG_clean_linker_0, # of connection points: 2
#     Edge 47, Type (0, 0), BuildingBlock: OJICUG_clean_linker_0, # of connection points: 2
#     Edge 48, Type (0, 0), BuildingBlock: OJICUG_clean_linker_0, # of connection points: 2
#     Edge 49, Type (0, 0), BuildingBlock: OJICUG_clean_linker_0, # of connection points: 2
#     Edge 50, Type (0, 0), BuildingBlock: OJICUG_clean_linker_0, # of connection points: 2
#     Edge 51, Type (0, 0), BuildingBlock: OJICUG_clean_linker_0, # of connection points: 2
#     Edge 52, Type (0, 0), BuildingBlock: OJICUG_clean_linker_0, # of connection points: 2
#     Edge 53, Type (0, 0), BuildingBlock: OJICUG_clean_linker_0, # of connection points: 2
#     Edge 54, Type (0, 0), BuildingBlock: OJICUG_clean_linker_0, # of connection points: 2
#     Edge 55, Type (0, 0), BuildingBlock: OJICUG_clean_linker_0, # of connection points: 2
#     Edge 56, Type (0, 0), BuildingBlock: OJICUG_clean_linker_0, # of connection points: 2
#     Edge 57, Type (0, 0), BuildingBlock: OJICUG_clean_linker_0, # of connection points: 2
#     Edge 58, Type (0, 0), BuildingBlock: OJICUG_clean_linker_0, # of connection points: 2
#     Edge 59, Type (0, 0), BuildingBlock: OJICUG_clean_linker_0, # of connection points: 2
#     Edge 60, Type (0, 0), BuildingBlock: OJICUG_clean_linker_0, # of connection points: 2
#     Edge 61, Type (0, 0), BuildingBlock: OJICUG_clean_linker_0, # of connection points: 2
#     Edge 62, Type (0, 0), BuildingBlock: OJICUG_clean_linker_0, # of connection points: 2
#     Edge 63, Type (0, 0), BuildingBlock: OJICUG_clean_linker_0, # of connection points: 2
# Relax obj value: 0.190
# Max RMSD: 0.161
# Mean RMSD: 0.159
data_MOF--net-wiv--node1-VOLQOD_clean_sbu_1--edge1-OJICUG_clean_linker_0
_symmetry_space_group_name_H-M    P1
_symmetry_Int_Tables_number       1
_symmetry_cell_setting            triclinic
loop_
_symmetry_equiv_pos_as_xyz
'x, y, z'
_cell_length_a     48.534271
_cell_length_b     49.447109
_cell_length_c     12.499994
_cell_angle_alpha  90.075361
_cell_angle_beta   89.891443
_cell_angle_gamma 89.961456
loop_
_atom_site_label
_atom_site_type_symbol
_atom_site_fract_x
_atom_site_fract_y
_atom_site_fract_z
_atom_type_partial_charge
O0 O 0.3636 0.12762 0.90561 0.0
Zn1 Zn 0.37434 0.13318 0.05886 0.0
O2 O 0.34931 0.11224 0.14473 0.0
Zn3 Zn 0.31874 0.13496 0.18987 0.0
Zn4 Zn 0.33352 0.08262 0.06461 0.0
Zn5 Zn 0.36899 0.09718 0.2603 0.0
O6 O 0.31215 0.13007 0.35035 0.0
O7 O 0.3518 0.10957 0.39237 0.0
O8 O 0.36861 0.1727 0.08503 0.0
O9 O 0.32766 0.1743 0.16443 0.0
O10 O 0.2871 0.12628 0.08994 0.0
O11 O 0.29262 0.08213 0.08091 0.0
O12 O 0.34852 0.04612 0.10775 0.0
O13 O 0.41434 0.12522 0.09524 0.0
O14 O 0.36871 0.05697 0.26073 0.0
O15 O 0.40841 0.10732 0.25665 0.0
C16 C 0.34812 0.11041 0.85917 0.0
C17 C 0.32929 0.12084 0.41876 0.0
C18 C 0.2794 0.1033 0.05475 0.0
C19 C 0.34853 0.18607 0.12377 0.0
C20 C 0.36109 0.03935 0.19309 0.0
C21 C 0.42405 0.11644 0.18356 0.0
O22 O 0.33731 0.09075 0.90961 0.0
O23 O 0.09167 0.61187 0.05925 0.0
Zn24 Zn 0.08989 0.60302 0.89965 0.0
O25 O 0.1131 0.62933 0.8275 0.0
Zn26 Zn 0.09162 0.65798 0.76214 0.0
Zn27 Zn 0.13575 0.64389 0.93596 0.0
Zn28 Zn 0.13853 0.61271 0.73402 0.0
O29 O 0.10255 0.66162 0.6044 0.0
O30 O 0.13113 0.62637 0.59063 0.0
O31 O 0.05088 0.6073 0.84652 0.0
O32 O 0.05257 0.64538 0.75229 0.0
O33 O 0.09165 0.69191 0.85994 0.0
O34 O 0.11804 0.67646 -0.0079 0.0
O35 O 0.17463 0.65181 0.8934 0.0
O36 O 0.10246 0.56453 0.8615 0.0
O37 O 0.17805 0.62 0.76941 0.0
O38 O 0.13294 0.57331 0.73315 0.0
C39 C 0.11424 0.61632 0.10829 0.0
C40 C 0.11752 0.64556 0.54881 0.0
C41 C 0.10161 0.69397 0.95452 0.0
C42 C 0.03936 0.62504 0.78759 0.0
C43 C 0.18904 0.63764 0.82968 0.0
C44 C 0.11898 0.55659 0.788 0.0
O45 O 0.13653 0.61823 0.05582 0.0
O46 O 0.63394 0.8562 0.90741 0.0
Zn47 Zn 0.62326 0.8501 0.06031 0.0
O48 O 0.64809 0.87152 0.14597 0.0
Zn49 Zn 0.67822 0.8482 0.19154 0.0
Zn50 Zn 0.66436 0.90119 0.06629 0.0
Zn51 Zn 0.62827 0.88738 0.26058 0.0
O52 O 0.68464 0.85363 0.35157 0.0
O53 O 0.64537 0.8751 0.39282 0.0
O54 O 0.62891 0.81024 0.0847 0.0
O55 O 0.66924 0.8086 0.16757 0.0
O56 O 0.71004 0.85611 0.09119 0.0
O57 O 0.70539 0.90032 0.07766 0.0
O58 O 0.65109 0.93847 0.11235 0.0
O59 O 0.58326 0.85788 0.09704 0.0
O60 O 0.62904 0.92789 0.26166 0.0
O61 O 0.5888 0.8771 0.25646 0.0
C62 C 0.64888 0.87383 0.86073 0.0
C63 C 0.66766 0.86353 0.41954 0.0
C64 C 0.71817 0.87869 0.05365 0.0
C65 C 0.64867 0.79678 0.12506 0.0
C66 C 0.63802 0.94552 0.19655 0.0
C67 C 0.57335 0.86718 0.18439 0.0
O68 O 0.65949 0.89361 0.91121 0.0
O69 O 0.90928 0.36779 0.0665 0.0
Zn70 Zn 0.90864 0.3767 0.90609 0.0
O71 O 0.88466 0.35032 0.83744 0.0
Zn72 Zn 0.90591 0.32103 0.77439 0.0
Zn73 Zn 0.86202 0.33835 0.95172 0.0
Zn74 Zn 0.85985 0.36597 0.73916 0.0
O75 O 0.89661 0.31709 0.61502 0.0
O76 O 0.86937 0.35313 0.5963 0.0
O77 O 0.94699 0.3724 0.84764 0.0
O78 O 0.94552 0.33237 0.76673 0.0
O79 O 0.9034 0.28755 0.87237 0.0
O80 O 0.87722 0.30399 0.00446 0.0
O81 O 0.8222 0.33462 0.91845 0.0
O82 O 0.89528 0.41488 0.86854 0.0
O83 O 0.82005 0.35742 0.76663 0.0
O84 O 0.86447 0.40545 0.74206 0.0
C85 C 0.88702 0.36442 0.11892 0.0
C86 C 0.88306 0.33365 0.55679 0.0
C87 C 0.89268 0.28564 0.96589 0.0
C88 C 0.95862 0.35348 0.79489 0.0
C89 C 0.80837 0.34449 0.84185 0.0
C90 C 0.87825 0.42244 0.79634 0.0
O91 O 0.86432 0.3645 0.06944 0.0
O92 O 0.36688 0.36078 0.29752 0.0
Zn93 Zn 0.37683 0.35446 0.14408 0.0
O94 O 0.35213 0.37608 0.05897 0.0
Zn95 Zn 0.32155 0.35371 0.01181 0.0
Zn96 Zn 0.33649 0.40586 0.1398 0.0
Zn97 Zn 0.37233 0.39115 0.94408 0.0
O98 O 0.31513 0.35928 0.85203 0.0
O99 O 0.35504 0.3795 0.81179 0.0
O100 O 0.36991 0.31502 0.12017 0.0
O101 O 0.32988 0.31422 0.03468 0.0
O102 O 0.28976 0.36165 0.11173 0.0
O103 O 0.29531 0.40556 0.13471 0.0
O104 O 0.35012 0.44252 0.09181 0.0
O105 O 0.41698 0.36071 0.10506 0.0
O106 O 0.37244 0.43135 0.94348 0.0
O107 O 0.41144 0.37993 0.94598 0.0
C108 C 0.35259 0.37888 0.34462 0.0
C109 C 0.33246 0.36864 0.78449 0.0
C110 C 0.28199 0.38393 0.15335 0.0
C111 C 0.35004 0.30205 0.07845 0.0
C112 C 0.36354 0.44915 0.00809 0.0
C113 C 0.42684 0.36956 0.01704 0.0
O114 O 0.34234 0.39883 0.2943 0.0
O115 O 0.40383 0.61781 0.62933 0.0
Zn116 Zn 0.40564 0.60838 0.7881 0.0
O117 O 0.38293 0.63479 0.86227 0.0
Zn118 Zn 0.40517 0.66294 0.92748 0.0
Zn119 Zn 0.3597 0.64985 0.75626 0.0
Zn120 Zn 0.35809 0.61808 0.95724 0.0
O121 O 0.39416 0.66735 0.08463 0.0
O122 O 0.36502 0.63262 0.09986 0.0
O123 O 0.44472 0.61168 0.84082 0.0
O124 O 0.44392 0.64935 0.938 0.0
O125 O 0.40587 0.69666 0.82962 0.0
O126 O 0.37705 0.68284 0.70227 0.0
O127 O 0.32056 0.65658 0.79997 0.0
O128 O 0.39292 0.56995 0.82503 0.0
O129 O 0.31849 0.62385 0.92029 0.0
O130 O 0.36452 0.57884 0.96032 0.0
C131 C 0.38134 0.62296 0.58075 0.0
C132 C 0.37878 0.65185 0.14075 0.0
C133 C 0.39466 0.69954 0.73761 0.0
C134 C 0.45665 0.62883 0.90127 0.0
C135 C 0.30676 0.64132 0.8615 0.0
C136 C 0.37758 0.56207 0.90229 0.0
O137 O 0.35907 0.62505 0.63324 0.0
O138 O 0.63026 0.62077 0.29964 0.0
Zn139 Zn 0.62035 0.62751 0.14649 0.0
O140 O 0.64488 0.60544 0.06099 0.0
Zn141 Zn 0.67543 0.62815 0.01424 0.0
Zn142 Zn 0.66057 0.57547 0.14088 0.0
Zn143 Zn 0.62473 0.58975 0.94693 0.0
O144 O 0.68164 0.62247 0.85396 0.0
O145 O 0.64195 0.6017 0.81458 0.0
O146 O 0.62735 0.66722 0.12386 0.0
O147 O 0.66731 0.66795 0.03764 0.0
O148 O 0.70723 0.62003 0.11419 0.0
O149 O 0.7017 0.57606 0.13463 0.0
O150 O 0.64786 0.53829 0.09179 0.0
O151 O 0.58019 0.62152 0.10737 0.0
O152 O 0.62524 0.54923 0.94452 0.0
O153 O 0.58554 0.60106 0.95025 0.0
C154 C 0.64442 0.60257 0.34644 0.0
C155 C 0.66438 0.61283 0.7868 0.0
C156 C 0.71498 0.59763 0.15451 0.0
C157 C 0.64723 0.68023 0.08204 0.0
C158 C 0.63468 0.53143 0.00785 0.0
C159 C 0.57025 0.61218 0.02031 0.0
O160 O 0.65463 0.58256 0.29582 0.0
O161 O 0.59227 0.36199 0.62961 0.0
Zn162 Zn 0.59245 0.37213 0.78718 0.0
O163 O 0.61392 0.34498 0.86074 0.0
Zn164 Zn 0.59001 0.317 0.91694 0.0
Zn165 Zn 0.63757 0.32503 0.76991 0.0
Zn166 Zn 0.63733 0.36063 0.96335 0.0
O167 O 0.59878 0.31081 0.07276 0.0
O168 O 0.62285 0.34874 0.10092 0.0
O169 O 0.55322 0.37075 0.84214 0.0
O170 O 0.55169 0.331 0.92446 0.0
O171 O 0.59089 0.28441 0.81565 0.0
O172 O 0.63585 0.28567 0.79989 0.0
O173 O 0.67666 0.33637 0.7757 0.0
O174 O 0.60681 0.41021 0.82184 0.0
O175 O 0.6775 0.35073 0.94368 0.0
O176 O 0.63434 0.40082 0.95877 0.0
C177 C 0.605 0.34296 0.58081 0.0
C178 C 0.60895 0.32873 0.1348 0.0
C179 C 0.61311 0.2742 0.7791 0.0
C180 C 0.54018 0.35286 0.89536 0.0
C181 C 0.68993 0.3437 0.85815 0.0
C182 C 0.6224 0.4179 0.89852 0.0
O183 O 0.62298 0.3284 0.6264 0.0
O184 O 0.8641 0.62278 0.39677 0.0
Zn185 Zn 0.8747 0.62864 0.5498 0.0
O186 O 0.84994 0.60736 0.63575 0.0
Zn187 Zn 0.81916 0.62959 0.68217 0.0
Zn188 Zn 0.83445 0.57753 0.55572 0.0
Zn189 Zn 0.87007 0.59294 0.75129 0.0
O190 O 0.81233 0.62401 0.84211 0.0
O191 O 0.85269 0.60486 0.88348 0.0
O192 O 0.86827 0.66794 0.57648 0.0
O193 O 0.82787 0.66897 0.6602 0.0
O194 O 0.78769 0.62148 0.58098 0.0
O195 O 0.79334 0.57741 0.56536 0.0
O196 O 0.84878 0.54115 0.60366 0.0
O197 O 0.91496 0.62177 0.5862 0.0
O198 O 0.87039 0.55281 0.75278 0.0
O199 O 0.90917 0.60409 0.74795 0.0
C200 C 0.84953 0.60487 0.35007 0.0
C201 C 0.82981 0.61529 0.91025 0.0
C202 C 0.78008 0.59881 0.54247 0.0
C203 C 0.84838 0.68099 0.61815 0.0
C204 C 0.86202 0.53483 0.68808 0.0
C205 C 0.92472 0.61354 0.67521 0.0
O206 O 0.83944 0.58483 0.40048 0.0
O207 O 0.58999 0.11479 0.55927 0.0
Zn208 Zn 0.59051 0.10515 0.40122 0.0
O209 O 0.61273 0.13214 0.3297 0.0
Zn210 Zn 0.58971 0.16057 0.272 0.0
Zn211 Zn 0.6362 0.15149 0.42242 0.0
Zn212 Zn 0.63678 0.11648 0.22888 0.0
O213 O 0.59869 0.16585 0.11569 0.0
O214 O 0.62246 0.1276 0.09022 0.0
O215 O 0.55133 0.10752 0.34551 0.0
O216 O 0.55108 0.14762 0.26558 0.0
O217 O 0.59108 0.19347 0.37168 0.0
O218 O 0.63584 0.19085 0.39211 0.0
O219 O 0.675 0.13919 0.42009 0.0
O220 O 0.60496 0.06701 0.36704 0.0
O221 O 0.67675 0.12699 0.24964 0.0
O222 O 0.63442 0.0763 0.23576 0.0
C223 C 0.60249 0.13378 0.60895 0.0
C224 C 0.60863 0.14749 0.05491 0.0
C225 C 0.61333 0.20308 0.41002 0.0
C226 C 0.53887 0.12605 0.29362 0.0
C227 C 0.68874 0.13292 0.33719 0.0
C228 C 0.62175 0.05927 0.29405 0.0
O229 O 0.62063 0.1484 0.56456 0.0
O230 O 0.13335 0.35507 0.39607 0.0
Zn231 Zn 0.12286 0.34922 0.54956 0.0
O232 O 0.1475 0.37078 0.63511 0.0
Zn233 Zn 0.17843 0.34862 0.68042 0.0
Zn234 Zn 0.16283 0.40062 0.55497 0.0
Zn235 Zn 0.12751 0.38561 0.75074 0.0
O236 O 0.18505 0.35402 0.84045 0.0
O237 O 0.14496 0.37373 0.88259 0.0
O238 O 0.12951 0.30991 0.57595 0.0
O239 O 0.17011 0.30908 0.65743 0.0
O240 O 0.20991 0.35735 0.57954 0.0
O241 O 0.20382 0.40141 0.56762 0.0
O242 O 0.14783 0.43703 0.60011 0.0
O243 O 0.08261 0.35585 0.58738 0.0
O244 O 0.12699 0.42588 0.75157 0.0
O245 O 0.08849 0.37429 0.74795 0.0
C246 C 0.14821 0.3728 0.34955 0.0
C247 C 0.1677 0.36299 0.9089 0.0
C248 C 0.21732 0.38026 0.54289 0.0
C249 C 0.14956 0.29693 0.61634 0.0
C250 C 0.13486 0.44364 0.68501 0.0
C251 C 0.07293 0.36441 0.67627 0.0
O252 O 0.15852 0.39271 0.40012 0.0
O253 O 0.40534 0.8712 0.5601 0.0
Zn254 Zn 0.40726 0.88001 0.40076 0.0
O255 O 0.38411 0.8537 0.32842 0.0
Zn256 Zn 0.40563 0.82516 0.26219 0.0
Zn257 Zn 0.36148 0.83898 0.43676 0.0
Zn258 Zn 0.35863 0.87028 0.23569 0.0
O259 O 0.3948 0.82163 0.10456 0.0
O260 O 0.36597 0.85669 0.09198 0.0
O261 O 0.4464 0.87571 0.34834 0.0
O262 O 0.44468 0.8377 0.2533 0.0
O263 O 0.40562 0.79117 0.35876 0.0
O264 O 0.37937 0.80647 0.49211 0.0
O265 O 0.32263 0.83093 0.39448 0.0
O266 O 0.39461 0.91844 0.36337 0.0
O267 O 0.31916 0.86296 0.2718 0.0
O268 O 0.36409 0.90966 0.23547 0.0
C269 C 0.38277 0.86667 0.60928 0.0
C270 C 0.37968 0.8376 0.04958 0.0
C271 C 0.3958 0.78903 0.45362 0.0
C272 C 0.45795 0.85792 0.28937 0.0
C273 C 0.3082 0.84521 0.33162 0.0
C274 C 0.37801 0.92637 0.29045 0.0
O275 O 0.36052 0.86458 0.55703 0.0
O276 O 0.86562 0.85513 0.80393 0.0
Zn277 Zn 0.87597 0.84916 0.65053 0.0
O278 O 0.85125 0.8707 0.56538 0.0
Zn279 Zn 0.82042 0.84864 0.51886 0.0
Zn280 Zn 0.83576 0.90047 0.6461 0.0
Zn281 Zn 0.87137 0.88535 0.44991 0.0
O282 O 0.81373 0.85424 0.35916 0.0
O283 O 0.85412 0.87338 0.31785 0.0
O284 O 0.86918 0.80986 0.62441 0.0
O285 O 0.82887 0.80924 0.54062 0.0
O286 O 0.78892 0.85667 0.62025 0.0
O287 O 0.79465 0.90065 0.63789 0.0
O288 O 0.84991 0.93691 0.59848 0.0
O289 O 0.91624 0.85571 0.61286 0.0
O290 O 0.87149 0.92551 0.44866 0.0
O291 O 0.9105 0.87423 0.45265 0.0
C292 C 0.85114 0.8731 0.85101 0.0
C293 C 0.83129 0.86293 0.29108 0.0
C294 C 0.78137 0.87922 0.66006 0.0
C295 C 0.8492 0.79701 0.58283 0.0
C296 C 0.86304 0.94339 0.51388 0.0
C297 C 0.92602 0.86432 0.52431 0.0
O298 O 0.84098 0.89313 0.80087 0.0
O299 O 0.90802 0.11107 0.13646 0.0
Zn300 Zn 0.90754 0.10209 0.29679 0.0
O301 O 0.88342 0.12825 0.36644 0.0
Zn302 Zn 0.90454 0.15747 0.43002 0.0
Zn303 Zn 0.86089 0.14045 0.2527 0.0
Zn304 Zn 0.8585 0.11229 0.46386 0.0
O305 O 0.8948 0.16135 0.589 0.0
O306 O 0.86745 0.12537 0.60686 0.0
O307 O 0.94585 0.10643 0.35478 0.0
O308 O 0.94413 0.1461 0.4384 0.0
O309 O 0.90234 0.19097 0.33215 0.0
O310 O 0.87632 0.17471 0.19973 0.0
O311 O 0.82108 0.14429 0.28596 0.0
O312 O 0.89456 0.06381 0.33399 0.0
O313 O 0.81865 0.12027 0.43479 0.0
O314 O 0.86375 0.07285 0.46141 0.0
C315 C 0.88565 0.1143 0.0849 0.0
C316 C 0.88102 0.14485 0.64678 0.0
C317 C 0.8918 0.19295 0.23849 0.0
C318 C 0.95735 0.12513 0.40889 0.0
C319 C 0.80708 0.13368 0.36071 0.0
C320 C 0.87772 0.05604 0.40666 0.0
O321 O 0.86305 0.11421 0.13529 0.0
O322 O 0.13174 0.12255 0.80627 0.0
Zn323 Zn 0.12157 0.12865 0.65298 0.0
O324 O 0.14616 0.1067 0.56774 0.0
Zn325 Zn 0.17695 0.12873 0.52006 0.0
Zn326 Zn 0.16144 0.07684 0.64846 0.0
Zn327 Zn 0.12597 0.09182 0.45289 0.0
O328 O 0.18354 0.12287 0.3604 0.0
O329 O 0.14321 0.1035 0.32036 0.0
O330 O 0.12864 0.16795 0.62699 0.0
O331 O 0.16873 0.16829 0.5412 0.0
O332 O 0.20849 0.12087 0.62058 0.0
O333 O 0.20266 0.07703 0.64447 0.0
O334 O 0.14763 0.04023 0.59974 0.0
O335 O 0.08126 0.12244 0.61555 0.0
O336 O 0.12555 0.05158 0.45155 0.0
O337 O 0.08699 0.1032 0.45633 0.0
C338 C 0.1456 0.10417 0.85326 0.0
C339 C 0.166 0.11396 0.29291 0.0
C340 C 0.21603 0.09865 0.66298 0.0
C341 C 0.14857 0.18069 0.58433 0.0
C342 C 0.13422 0.0337 0.51596 0.0
C343 C 0.0715 0.11355 0.52748 0.0
O344 O 0.15533 0.08391 0.80294 0.0
O345 O 0.09294 0.86516 0.1362 0.0
Zn346 Zn 0.09107 0.87429 0.29568 0.0
O347 O 0.11432 0.84804 0.36806 0.0
Zn348 Zn 0.09279 0.81936 0.43327 0.0
Zn349 Zn 0.1375 0.83348 0.26033 0.0
Zn350 Zn 0.13916 0.86487 0.46258 0.0
O351 O 0.10373 0.8153 0.5907 0.0
O352 O 0.13221 0.85054 0.60546 0.0
O353 O 0.05204 0.87 0.34921 0.0
O354 O 0.05379 0.83206 0.44425 0.0
O355 O 0.09261 0.78569 0.33444 0.0
O356 O 0.12035 0.8005 0.20499 0.0
O357 O 0.17668 0.8268 0.30258 0.0
O358 O 0.10335 0.91291 0.33381 0.0
O359 O 0.17878 0.85904 0.42525 0.0
O360 O 0.13269 0.90409 0.46561 0.0
C361 C 0.1155 0.86049 0.08697 0.0
C362 C 0.11872 0.83118 0.64669 0.0
C363 C 0.10332 0.78332 0.24107 0.0
C364 C 0.04055 0.85235 0.40877 0.0
C365 C 0.19049 0.84179 0.36512 0.0
C366 C 0.11913 0.92083 0.40955 0.0
O367 O 0.13781 0.85875 0.13907 0.0
C368 C 0.35939 0.96315 0.17486 0.0
C369 C 0.37461 0.95542 0.26572 0.0
H370 H 0.34337 -0.00453 0.08039 0.0
C371 C 0.38609 0.97557 0.3309 0.0
H372 H 0.3504 0.94818 0.12213 0.0
C373 C 0.38195 0.00288 0.30664 0.0
C374 C 0.36641 0.01052 0.21638 0.0
H375 H 0.39795 0.97029 0.40115 0.0
H376 H 0.39081 0.01799 0.35909 0.0
C377 C 0.3554 -0.00967 0.15039 0.0
C378 C 0.97142 0.63355 0.64219 0.0
C379 C 0.95447 0.61546 0.69817 0.0
H380 H 0.01155 0.65107 0.62763 0.0
C381 C 0.96582 0.60009 0.78194 0.0
H382 H 0.96322 0.64572 0.57767 0.0
C383 C 0.9934 0.60304 0.81038 0.0
C384 C 0.01022 0.62164 0.75648 0.0
H385 H 0.9533 0.58585 0.82636 0.0
H386 H 0.00141 0.59102 0.87572 0.0
C387 C -0.00099 0.63675 0.67155 0.0
C388 C 0.64614 -0.00529 0.15893 0.0
C389 C 0.63364 0.97459 0.22138 0.0
H390 H 0.65246 0.0369 0.13334 0.0
C391 C 0.61733 0.98253 0.30949 0.0
H392 H 0.65891 0.98939 0.09091 0.0
C393 C 0.61354 0.00994 0.33412 0.0
C394 C 0.6261 0.03004 0.27157 0.0
H395 H 0.60738 0.96756 0.35955 0.0
H396 H 0.60074 0.01534 0.40195 0.0
C397 C 0.64249 0.02203 0.18383 0.0
C398 C -0.00105 0.34026 0.68048 0.0
C399 C 0.98771 0.3565 0.76229 0.0
H400 H 0.03474 0.33035 0.58724 0.0
C401 C 0.00437 0.37607 0.81126 0.0
H402 H 0.9865 0.32518 0.64038 0.0
C403 C 0.03185 0.37892 0.78111 0.0
C404 C 0.04324 0.36249 0.70039 0.0
H405 H 0.99631 0.38897 0.8741 0.0
H406 H 0.04426 0.39395 0.82176 0.0
C407 C 0.02646 0.34336 0.64924 0.0
C408 C 0.38339 0.48558 0.89132 0.0
C409 C 0.36812 0.478 -0.01746 0.0
H410 H 0.39843 0.51809 0.7939 0.0
C411 C 0.35652 0.49823 0.04703 0.0
H412 H 0.39264 0.47045 0.83984 0.0
C413 C 0.35974 0.52537 0.02037 0.0
C414 C 0.37473 0.53305 0.92864 0.0
H415 H 0.34465 0.49314 0.11766 0.0
H416 H 0.35033 0.54036 0.07214 0.0
C417 C 0.38671 0.51286 0.86473 0.0
C418 C 0.52449 0.6346 0.04939 0.0
C419 C 0.54068 0.61538 -0.00445 0.0
H420 H 0.4853 0.65423 0.06074 0.0
C421 C 0.52888 0.60032 0.91179 0.0
H422 H 0.53305 0.64662 0.11376 0.0
C423 C 0.50161 0.60463 0.8814 0.0
C424 C 0.48557 0.62428 0.9334 0.0
H425 H 0.5408 0.58527 0.86881 0.0
H426 H 0.49323 0.59276 0.81625 0.0
C427 C 0.49723 0.63912 0.01821 0.0
C428 C 0.644 0.48225 0.04151 0.0
C429 C 0.63117 0.5024 -0.01973 0.0
H430 H 0.6516 0.44013 0.06319 0.0
C431 C 0.61568 0.49456 0.89006 0.0
H432 H 0.65619 0.48749 0.11099 0.0
C433 C 0.61302 0.46723 0.8622 0.0
C434 C 0.62588 0.4471 0.92362 0.0
H435 H 0.60556 0.50956 0.84074 0.0
H436 H 0.6008 0.4619 0.79289 0.0
C437 C 0.64144 0.45501 0.01347 0.0
C438 C 0.47246 0.34707 0.04417 0.0
C439 C 0.45642 0.36666 -0.00758 0.0
H440 H 0.51144 0.32708 0.0528 0.0
C441 C 0.46837 0.38228 0.9105 0.0
H442 H 0.46377 0.33465 0.1071 0.0
C443 C 0.49567 0.37805 0.87954 0.0
C444 C 0.51145 0.35786 0.92887 0.0
H445 H 0.45652 0.39764 0.86936 0.0
H446 H 0.50421 0.39025 0.81567 0.0
C447 C 0.49966 0.34258 0.01218 0.0
C448 C 0.88707 0.4718 0.83076 0.0
C449 C 0.8746 0.45135 0.76999 0.0
H450 H 0.89294 0.51432 0.85237 0.0
C451 C 0.85854 0.45863 0.6807 0.0
H452 H 0.89962 0.46687 0.89961 0.0
C453 C 0.85486 0.48565 0.65314 0.0
C454 C 0.86701 0.50613 0.71443 0.0
H455 H 0.84872 0.44342 0.63132 0.0
H456 H 0.8422 0.49044 0.58441 0.0
C457 C 0.88324 0.49896 0.80341 0.0
C458 C 0.49861 0.13831 0.17912 0.0
C459 C 0.50982 0.12249 0.26198 0.0
H460 H 0.46276 0.14847 0.08783 0.0
C461 C 0.493 0.10358 0.31401 0.0
H462 H 0.51118 0.15285 0.13654 0.0
C463 C 0.46525 0.10124 0.28644 0.0
C464 C 0.45389 0.11747 0.20521 0.0
H465 H 0.50107 0.09105 0.3777 0.0
H466 H 0.45261 0.08687 0.32967 0.0
C467 C 0.47095 0.13568 0.15047 0.0
C468 C 0.13735 0.51988 0.67075 0.0
C469 C 0.12213 0.52755 0.76199 0.0
H470 H 0.15309 0.48765 0.57458 0.0
C471 C 0.11031 0.50734 0.82596 0.0
H472 H 0.14661 0.53488 0.61888 0.0
C473 C 0.11412 0.48004 0.80016 0.0
C474 C 0.12967 0.47247 0.70956 0.0
H475 H 0.09841 0.51257 0.89642 0.0
H476 H 0.10502 0.46489 0.85177 0.0
C477 C 0.14102 0.49272 0.64477 0.0
C478 C 0.53197 0.88159 0.28866 0.0
C479 C 0.54347 0.86587 0.20592 0.0
H480 H 0.496 0.89149 0.37967 0.0
C481 C 0.52646 0.84806 0.14883 0.0
H482 H 0.54454 0.89563 0.33388 0.0
C483 C 0.49865 0.84549 0.17603 0.0
C484 C 0.48727 0.86093 0.25995 0.0
H485 H 0.53474 0.83564 0.08497 0.0
H486 H 0.48608 0.83136 0.1313 0.0
C487 C 0.50415 0.87925 0.31499 0.0
C488 C 0.88368 0.97958 0.39832 0.0
C489 C 0.86771 0.97215 0.4879 0.0
H490 H 0.89944 0.01193 0.30186 0.0
C491 C 0.85546 -0.00754 0.55013 0.0
H492 H 0.89344 0.96436 0.34865 0.0
C493 C 0.85875 0.01954 0.52284 0.0
C494 C 0.87451 0.02706 0.43289 0.0
H495 H 0.84301 0.98747 0.61937 0.0
H496 H 0.84886 0.0346 0.57291 0.0
C497 C 0.88712 0.00681 0.37124 0.0
C498 C 0.03042 0.09923 0.42305 0.0
C499 C 0.04183 0.11566 0.50351 0.0
H500 H 0.99493 0.08936 0.33017 0.0
C501 C 0.02512 0.13495 0.55439 0.0
H502 H 0.04276 0.08407 0.38261 0.0
C503 C 0.99765 0.13822 0.52314 0.0
C504 C 0.98639 0.12199 0.44152 0.0
H505 H 0.03342 0.14796 0.61619 0.0
H506 H 0.98525 0.15342 0.56305 0.0
C507 C 0.00299 0.10226 0.39282 0.0
C508 C 0.11025 0.97014 0.37282 0.0
C509 C 0.12206 0.94986 0.43634 0.0
H510 H 0.10479 0.01262 0.34821 0.0
C511 C 0.13715 0.95743 0.52783 0.0
H512 H 0.09847 0.96499 0.30217 0.0
C513 C 0.14069 0.98456 0.55451 0.0
C514 C 0.12932 0.00489 0.49031 0.0
H515 H 0.14643 0.94238 0.57936 0.0
H516 H 0.15264 0.98955 0.62492 0.0
C517 C 0.1139 -0.00259 0.39944 0.0
C518 C 0.99466 0.87463 0.38761 0.0
C519 C 0.01142 0.85583 0.44056 0.0
H520 H 0.95464 0.89211 0.37318 0.0
C521 C 0.0002 0.84063 0.52532 0.0
H522 H 0.00269 0.88673 0.32243 0.0
C523 C 0.97265 0.84394 0.55546 0.0
C524 C 0.95575 0.86226 0.50049 0.0
H525 H 0.0127 0.82616 0.56852 0.0
H526 H 0.96443 0.83169 0.61983 0.0
C527 C 0.96711 0.8777 0.41686 0.0
C528 C 0.32411 0.23034 0.10668 0.0
C529 C 0.34888 0.2158 0.11507 0.0
H530 H 0.30511 0.26907 0.08553 0.0
C531 C 0.37404 0.22976 0.10947 0.0
H532 H 0.30444 0.22003 0.10964 0.0
C533 C 0.37441 0.25782 0.09705 0.0
C534 C 0.34966 0.27233 0.08731 0.0
H535 H 0.39343 0.21902 0.1155 0.0
H536 H 0.39409 0.26813 0.0942 0.0
C537 C 0.3245 0.25833 0.09168 0.0
C538 C 0.26304 0.61622 0.84557 0.0
C539 C 0.27665 0.64112 0.85421 0.0
H540 H 0.22452 0.59585 0.82755 0.0
C541 C 0.2614 0.66524 0.85229 0.0
H542 H 0.27451 0.59741 0.84574 0.0
C543 C 0.23264 0.66431 0.84479 0.0
C544 C 0.21915 0.63932 0.8347 0.0
H545 H 0.27165 0.68463 0.85849 0.0
H546 H 0.221 0.68301 0.84562 0.0
C547 C 0.23457 0.61535 0.83417 0.0
C548 C 0.67308 0.75225 0.10974 0.0
C549 C 0.64831 0.76691 0.11667 0.0
H550 H 0.69213 0.7134 0.09036 0.0
C551 C 0.62319 0.75287 0.11047 0.0
H552 H 0.69275 0.76255 0.11321 0.0
C553 C 0.62284 0.72471 0.09911 0.0
C554 C 0.6476 0.71009 0.09071 0.0
H555 H 0.60378 0.76363 0.11539 0.0
H556 H 0.60317 0.7144 0.09585 0.0
C557 C 0.67272 0.72416 0.09555 0.0
C558 C 0.76266 0.34564 0.75102 0.0
C559 C 0.77812 0.34288 0.84509 0.0
H560 H 0.72249 0.34782 0.68155 0.0
C561 C 0.76439 0.3402 0.94363 0.0
H562 H 0.77276 0.34778 0.67411 0.0
C563 C 0.73568 0.34084 0.94823 0.0
C564 C 0.72023 0.34358 0.85413 0.0
H565 H 0.77584 0.3383 0.01756 0.0
H566 H 0.72559 0.33896 0.02524 0.0
C567 C 0.73395 0.34569 0.75538 0.0
C568 C 0.87364 0.72478 0.60586 0.0
C569 C 0.84857 0.71071 0.61191 0.0
H570 H 0.89346 0.76329 0.5927 0.0
C571 C 0.82369 0.72516 0.60672 0.0
H572 H 0.8931 0.71407 0.60955 0.0
C573 C 0.8239 0.75321 0.59433 0.0
C574 C 0.84899 0.7673 0.58948 0.0
H575 H 0.80408 0.71474 0.61015 0.0
H576 H 0.80444 0.76391 0.59054 0.0
C577 C 0.87385 0.75287 0.59607 0.0
C578 C 0.76353 0.13843 0.2571 0.0
C579 C 0.77682 0.13485 0.35592 0.0
H580 H 0.72512 0.14001 0.17334 0.0
C581 C 0.76095 0.13071 0.44836 0.0
H582 H 0.77529 0.14138 0.18432 0.0
C583 C 0.73227 0.13021 0.44214 0.0
C584 C 0.719 0.13327 0.34302 0.0
H585 H 0.7707 0.12783 0.52542 0.0
H586 H 0.72049 0.12704 0.51475 0.0
C587 C 0.73486 0.13736 0.25054 0.0
C588 C 0.17423 0.25266 0.60453 0.0
C589 C 0.14939 0.26717 0.61057 0.0
H590 H 0.19341 0.21383 0.58861 0.0
C591 C 0.1243 0.25307 0.60637 0.0
H592 H 0.19386 0.26308 0.6066 0.0
C593 C 0.12404 0.22494 0.5976 0.0
C594 C 0.14887 0.21045 0.59018 0.0
H595 H 0.10485 0.26379 0.6108 0.0
H596 H 0.10441 0.21454 0.59566 0.0
C597 C 0.17397 0.22455 0.59313 0.0
C598 C 0.26276 0.86762 0.33863 0.0
C599 C 0.27809 0.8436 0.33734 0.0
H600 H 0.22287 0.88565 0.35192 0.0
C601 C 0.26453 0.81862 0.34612 0.0
H602 H 0.27287 0.88711 0.33304 0.0
C603 C 0.23577 0.81777 0.354 0.0
C604 C 0.22059 0.84192 0.35763 0.0
H605 H 0.27611 0.79989 0.34554 0.0
H606 H 0.22546 0.79839 0.3591 0.0
C607 C 0.23428 0.8668 0.35042 0.0
C608 C 0.24287 0.12448 0.80055 0.0
C609 C 0.23446 0.09949 0.75775 0.0
H610 H 0.26254 0.14541 0.92912 0.0
C611 C 0.24004 0.07581 0.81625 0.0
H612 H 0.23864 0.1432 0.75879 0.0
C613 C 0.25351 0.07712 0.91505 0.0
C614 C 0.26162 0.10215 0.9583 0.0
H615 H 0.23355 0.05623 0.78672 0.0
H616 H 0.25777 0.05846 0.95717 0.0
C617 C 0.25611 0.12581 0.89966 0.0
C618 C 0.09503 0.74345 -0.01388 0.0
C619 C 0.09507 0.71697 0.02516 0.0
H620 H 0.09764 0.78545 0.02581 0.0
C621 C 0.09329 0.71259 0.13651 0.0
H622 H 0.09648 0.74732 0.90101 0.0
C623 C 0.09364 0.73432 0.20812 0.0
C624 C 0.09632 0.76069 0.16924 0.0
H625 H 0.09312 0.69222 0.16843 0.0
H626 H 0.0939 0.73038 0.29334 0.0
C627 C 0.09589 0.76515 0.05774 0.0
C628 C 0.74373 0.90337 0.90876 0.0
C629 C 0.73622 0.87882 0.95752 0.0
H630 H 0.76302 0.92286 0.77546 0.0
C631 C 0.74246 0.85449 0.90424 0.0
H632 H 0.73893 0.92253 0.94661 0.0
C633 C 0.75567 0.8547 0.80473 0.0
C634 C 0.76329 0.87924 0.75613 0.0
H635 H 0.73659 0.83519 0.93816 0.0
H636 H 0.76044 0.83552 0.76709 0.0
C637 C 0.75713 0.90358 0.80954 0.0
C638 C 0.89844 0.26515 0.14616 0.0
C639 C 0.89765 0.26188 0.03411 0.0
H640 H 0.89785 0.24572 0.2996 0.0
C641 C 0.89856 0.23582 -0.00944 0.0
H642 H 0.898 0.28517 0.18163 0.0
C643 C 0.89801 0.21336 0.05818 0.0
C644 C 0.89714 0.21664 0.17023 0.0
H645 H 0.89797 0.2328 0.90474 0.0
H646 H 0.89727 0.19335 0.02269 0.0
C647 C 0.89849 0.24268 0.21378 0.0
C648 C 0.25692 0.40715 0.30366 0.0
C649 C 0.26328 0.38325 0.24754 0.0
H650 H 0.23824 0.42498 0.44221 0.0
C651 C 0.25533 0.35834 0.29225 0.0
H652 H 0.26303 0.42669 0.27258 0.0
C653 C 0.24177 0.35733 0.39093 0.0
C654 C 0.23546 0.38122 0.44717 0.0
H655 H 0.26019 0.33947 0.25239 0.0
H656 H 0.23572 0.33777 0.42192 0.0
C657 C 0.24313 0.40615 0.40201 0.0
C658 C 0.40433 0.74853 0.7059 0.0
C659 C 0.40176 0.72219 0.66637 0.0
H660 H 0.40451 0.79067 0.6673 0.0
C661 C 0.40212 0.71782 0.55479 0.0
H662 H 0.40408 0.75238 0.79124 0.0
C663 C 0.40277 0.7396 0.48373 0.0
C664 C 0.40255 0.76603 0.52349 0.0
H665 H 0.40042 0.69754 0.52246 0.0
H666 H 0.40124 0.73579 0.39856 0.0
C667 C 0.40446 0.77033 0.63486 0.0
C668 C 0.74076 0.57356 0.3001 0.0
C669 C 0.73371 0.59786 0.2484 0.0
H670 H 0.76008 0.55474 0.43465 0.0
C671 C 0.74102 0.62246 0.2973 0.0
H672 H 0.73515 0.55422 0.2657 0.0
C673 C 0.75473 0.62277 0.39565 0.0
C674 C 0.76176 0.59847 0.44737 0.0
H675 H 0.73557 0.64161 0.26101 0.0
H676 H 0.76029 0.64213 0.42997 0.0
C677 C 0.75464 0.57386 0.39809 0.0
C678 C 0.58758 0.23122 0.54636 0.0
C679 C 0.6126 0.22294 0.49936 0.0
H680 H 0.56794 0.25337 0.67333 0.0
C681 C 0.63741 0.2308 0.54821 0.0
H682 H 0.56807 0.2252 0.51189 0.0
C683 C 0.63732 0.2462 0.64167 0.0
C684 C 0.61243 0.25457 0.68897 0.0
H685 H 0.6571 0.22464 0.5153 0.0
H686 H 0.65697 0.2519 0.67593 0.0
C687 C 0.5875 0.24692 0.64012 0.0
C688 C 0.31426 0.10142 0.58913 0.0
C689 C 0.32489 0.12361 0.53321 0.0
H690 H 0.31366 0.07951 0.73631 0.0
C691 C 0.34107 0.1427 0.58705 0.0
H692 H 0.30241 0.08607 0.5478 0.0
C693 C 0.34844 0.13855 0.6934 0.0
C694 C 0.33967 0.1152 0.74753 0.0
H695 H 0.35011 0.15953 0.54401 0.0
H696 H 0.36187 0.15312 0.73164 0.0
C697 C 0.32145 0.09731 0.69591 0.0
C698 C 0.14078 0.6396 0.37598 0.0
C699 C 0.1164 0.6453 0.4318 0.0
H700 H 0.15912 0.62515 0.23212 0.0
C701 C 0.09097 0.6425 0.37959 0.0
H702 H 0.16058 0.64112 0.41548 0.0
C703 C 0.08998 0.63264 0.2745 0.0
C704 C 0.11443 0.62559 0.22062 0.0
H705 H 0.07186 0.64608 0.42233 0.0
H706 H 0.07013 0.63017 0.23623 0.0
C707 C 0.13983 0.62989 0.27172 0.0
C708 C 0.68186 0.88375 0.58934 0.0
C709 C 0.672 0.86113 0.53399 0.0
H710 H 0.68186 0.90585 0.73628 0.0
C711 C 0.65647 0.84161 0.58829 0.0
H712 H 0.69316 0.89943 0.54755 0.0
C713 C 0.64907 0.84565 0.69482 0.0
C714 C 0.65715 0.86932 0.74858 0.0
H715 H 0.64799 0.82443 0.54563 0.0
H716 H 0.63621 0.83068 0.73359 0.0
C717 C 0.67465 0.88776 0.69625 0.0
C718 C 0.91164 0.34873 0.28568 0.0
C719 C 0.88707 0.35393 0.22978 0.0
H720 H 0.92968 0.33673 0.43536 0.0
C721 C 0.86179 0.34716 0.2781 0.0
H722 H 0.93145 0.35319 0.2498 0.0
C723 C 0.8609 0.33709 0.3817 0.0
C724 C 0.88521 0.33351 0.43998 0.0
H725 H 0.84241 0.35031 0.23709 0.0
H726 H 0.84101 0.33383 0.41914 0.0
C727 C 0.9107 0.33861 0.39049 0.0
C728 C 0.3512 0.35055 0.50973 0.0
C729 C 0.34416 0.37461 0.45662 0.0
H730 H 0.35097 0.32899 0.65796 0.0
C731 C 0.32718 0.39357 0.50894 0.0
H732 H 0.36362 0.3352 0.47088 0.0
C733 C 0.31941 0.38958 0.61518 0.0
C734 C 0.32822 0.36648 0.66997 0.0
H735 H 0.32075 0.412 0.46938 0.0
H736 H 0.30856 0.40558 0.65709 0.0
C737 C 0.34325 0.34654 0.61563 0.0
C738 C 0.35533 0.64719 0.3137 0.0
C739 C 0.37984 0.65206 0.2577 0.0
H740 H 0.33664 0.63338 0.4577 0.0
C741 C 0.4052 0.64862 0.30986 0.0
H742 H 0.33557 0.64921 0.27421 0.0
C743 C 0.40595 0.63879 0.41488 0.0
C744 C 0.38132 0.63244 0.4688 0.0
H745 H 0.42439 0.65157 0.26699 0.0
H746 H 0.42573 0.63572 0.45296 0.0
C747 C 0.35603 0.63753 0.41799 0.0
C748 C 0.67732 0.59178 0.617 0.0
C749 C 0.66854 0.61491 0.67209 0.0
H750 H 0.67606 0.56937 0.47094 0.0
C751 C 0.65355 0.63485 0.61803 0.0
H752 H 0.68813 0.57578 0.6587 0.0
C753 C 0.64568 0.63085 0.51207 0.0
C754 C 0.65274 0.6068 0.4586 0.0
H755 H 0.64583 0.65242 0.66057 0.0
H756 H 0.63331 0.64623 0.47345 0.0
C757 C 0.66963 0.5878 0.51072 0.0
C758 C 0.59097 0.35799 0.39983 0.0
C759 C 0.59985 0.33738 0.46777 0.0
H760 H 0.58687 0.37086 0.23782 0.0
C761 C 0.60679 0.31181 0.42508 0.0
H762 H 0.58525 0.37768 0.43096 0.0
C763 C 0.60752 0.30783 0.31482 0.0
C764 C 0.60149 0.32945 0.2473 0.0
H765 H 0.61311 0.29535 0.47667 0.0
H766 H 0.61475 0.28872 0.28279 0.0
C767 C 0.59196 0.35407 0.2899 0.0
C768 C 0.84046 0.63735 0.07918 0.0
C769 C 0.82532 0.61755 0.02479 0.0
H770 H 0.86081 0.64851 0.22385 0.0
C771 C 0.81613 0.59461 0.07986 0.0
H772 H 0.84843 0.65479 0.03676 0.0
C773 C 0.82373 0.59058 0.18624 0.0
C774 C 0.84092 0.60933 0.2384 0.0
H775 H 0.80516 0.57872 0.03802 0.0
H776 H 0.81707 0.57225 0.22595 0.0
C777 C 0.84823 0.6333 0.18516 0.0
C778 C 0.60284 0.16472 0.76502 0.0
C779 C 0.59737 0.13885 0.72229 0.0
H780 H 0.61046 0.18798 0.90701 0.0
C781 C 0.5909 0.11745 0.79049 0.0
H782 H 0.60739 0.18168 0.7131 0.0
C783 C 0.5929 0.1211 0.90032 0.0
C784 C 0.60099 0.14624 0.94262 0.0
H785 H 0.58645 0.09747 0.75923 0.0
H786 H 0.58957 0.10385 0.95223 0.0
C787 C 0.60449 0.16844 0.87526 0.0
C788 C 0.17434 0.38688 0.18607 0.0
C789 C 0.15677 0.36835 0.23764 0.0
H790 H 0.19308 0.39877 0.03808 0.0
C791 C 0.14891 0.34469 0.18337 0.0
H792 H 0.18141 0.40497 0.22654 0.0
C793 C 0.15654 0.34078 0.07699 0.0
C794 C 0.17207 0.36042 0.02331 0.0
H795 H 0.13601 0.32965 0.22157 0.0
H796 H 0.14817 0.32362 0.03386 0.0
C797 C 0.18178 0.383 0.07931 0.0
C798 C 0.35633 0.84359 0.87739 0.0
C799 C 0.38073 0.83788 0.9326 0.0
H800 H 0.33793 0.85801 0.73401 0.0
C801 C 0.40614 0.84061 0.87986 0.0
H802 H 0.33654 0.8421 0.91733 0.0
C803 C 0.40709 0.85044 0.77483 0.0
C804 C 0.38261 0.8575 0.72156 0.0
H805 H 0.42526 0.83701 0.92213 0.0
H806 H 0.42691 0.85286 0.73611 0.0
C807 C 0.35723 0.85326 0.77318 0.0
C808 C 0.8424 0.84085 0.12251 0.0
C809 C 0.82696 0.86055 0.1766 0.0
H810 H 0.86298 0.82975 -0.02208 0.0
C811 C 0.81754 0.88333 0.12128 0.0
H812 H 0.85055 0.82354 0.16519 0.0
C813 C 0.82516 0.88732 0.01482 0.0
C814 C 0.8426 0.86868 0.96287 0.0
H815 H 0.80634 0.89914 0.1629 0.0
H816 H 0.81829 0.90554 -0.02514 0.0
C817 C 0.85019 0.84486 0.01644 0.0
C818 C 0.85995 0.1304 0.92542 0.0
C819 C 0.88543 0.12459 0.97383 0.0
H820 H 0.83883 0.14298 0.78437 0.0
C821 C 0.90984 0.13064 0.91798 0.0
H822 H 0.84066 0.12655 0.96641 0.0
C823 C 0.90863 0.14072 0.81317 0.0
C824 C 0.88301 0.14487 0.76361 0.0
H825 H 0.92977 0.12695 0.95399 0.0
H826 H 0.92758 0.14331 0.76841 0.0
C827 C 0.85879 0.14042 0.82182 0.0
C828 C 0.171 0.08919 0.0167 0.0
C829 C 0.15417 0.10834 0.96512 0.0
H830 H 0.18956 0.07691 0.1642 0.0
C831 C 0.14738 0.13242 0.01885 0.0
H832 H 0.17725 0.07074 -0.02337 0.0
C833 C 0.15539 0.13628 0.12471 0.0
C834 C 0.17025 0.11616 0.17835 0.0
H835 H 0.13508 0.14791 -0.01942 0.0
H836 H 0.14784 0.15386 0.16758 0.0
C837 C 0.17885 0.09304 0.12286 0.0
C838 C 0.09214 0.83432 0.81605 0.0
C839 C 0.11757 0.83117 0.76373 0.0
H840 H 0.07134 0.84703 0.95933 0.0
C841 C 0.14197 0.83648 0.81954 0.0
H842 H 0.07302 0.83104 0.77333 0.0
C843 C 0.14106 0.84624 0.92379 0.0
C844 C 0.11568 0.85099 -0.02513 0.0
H845 H 0.16178 0.8347 0.77995 0.0
H846 H 0.16038 0.85072 0.96331 0.0
C847 C 0.09118 0.84423 0.9211 0.0
loop_
_geom_bond_atom_site_label_1
_geom_bond_atom_site_label_2
_geom_bond_distance
_geom_bond_site_symmetry_2
_ccdc_geom_bond_type
O0 Zn1 1.953 1_556 S
O0 C16 1.225 . S
Zn1 O0 1.953 1_554 S
Zn1 O2 1.949 . S
Zn1 O8 1.919 . S
Zn1 O13 1.924 . S
O2 Zn1 1.949 . S
O2 Zn3 1.923 . S
O2 Zn4 1.950 . S
O2 Zn5 1.945 . S
Zn3 O2 1.923 . S
Zn3 O6 1.933 . S
Zn3 O9 1.941 . S
Zn3 O10 1.965 . S
Zn4 O2 1.950 . S
Zn4 O11 1.938 . S
Zn4 O12 1.906 . S
Zn4 O22 1.953 1_554 S
Zn5 O2 1.945 . S
Zn5 O7 1.932 . S
Zn5 O14 1.977 . S
Zn5 O15 1.910 . S
O6 Zn3 1.933 . S
O6 C17 1.226 . S
O7 Zn5 1.932 . S
O7 C17 1.307 . S
O8 Zn1 1.919 . S
O8 C19 1.253 . S
O9 Zn3 1.941 . S
O9 C19 1.283 . S
O10 Zn3 1.965 . S
O10 C18 1.303 . S
O11 Zn4 1.938 . S
O11 C18 1.247 . S
O12 Zn4 1.906 . S
O12 C20 1.304 . S
O13 Zn1 1.924 . S
O13 C21 1.311 . S
O14 Zn5 1.977 . S
O14 C20 1.272 . S
O15 Zn5 1.910 . S
O15 C21 1.231 . S
C16 O0 1.225 . S
C16 O22 1.298 . S
C17 O6 1.226 . S
C17 O7 1.307 . S
C18 O10 1.303 . S
C18 O11 1.247 . S
C19 O8 1.253 . S
C19 O9 1.283 . S
C20 O12 1.304 . S
C20 O14 1.272 . S
C21 O13 1.311 . S
C21 O15 1.231 . S
O22 Zn4 1.953 1_556 S
O22 C16 1.298 . S
O23 Zn24 1.953 1_554 S
O23 C39 1.225 . S
Zn24 O23 1.953 1_556 S
Zn24 O25 1.949 . S
Zn24 O31 1.919 . S
Zn24 O36 1.924 . S
O25 Zn24 1.949 . S
O25 Zn26 1.923 . S
O25 Zn27 1.950 . S
O25 Zn28 1.945 . S
Zn26 O25 1.923 . S
Zn26 O29 1.933 . S
Zn26 O32 1.941 . S
Zn26 O33 1.965 . S
Zn27 O25 1.950 . S
Zn27 O34 1.938 1_556 S
Zn27 O35 1.906 . S
Zn27 O45 1.953 1_556 S
Zn28 O25 1.945 . S
Zn28 O30 1.932 . S
Zn28 O37 1.977 . S
Zn28 O38 1.910 . S
O29 Zn26 1.933 . S
O29 C40 1.226 . S
O30 Zn28 1.932 . S
O30 C40 1.307 . S
O31 Zn24 1.919 . S
O31 C42 1.253 . S
O32 Zn26 1.941 . S
O32 C42 1.283 . S
O33 Zn26 1.965 . S
O33 C41 1.303 . S
O34 Zn27 1.938 1_554 S
O34 C41 1.247 1_554 S
O35 Zn27 1.906 . S
O35 C43 1.304 . S
O36 Zn24 1.924 . S
O36 C44 1.311 . S
O37 Zn28 1.977 . S
O37 C43 1.272 . S
O38 Zn28 1.910 . S
O38 C44 1.231 . S
C39 O23 1.225 . S
C39 O45 1.298 . S
C40 O29 1.226 . S
C40 O30 1.307 . S
C41 O33 1.303 . S
C41 O34 1.247 1_556 S
C42 O31 1.253 . S
C42 O32 1.283 . S
C43 O35 1.304 . S
C43 O37 1.272 . S
C44 O36 1.311 . S
C44 O38 1.231 . S
O45 Zn27 1.953 1_554 S
O45 C39 1.298 . S
O46 Zn47 1.953 1_556 S
O46 C62 1.225 . S
Zn47 O46 1.953 1_554 S
Zn47 O48 1.949 . S
Zn47 O54 1.919 . S
Zn47 O59 1.924 . S
O48 Zn47 1.949 . S
O48 Zn49 1.923 . S
O48 Zn50 1.950 . S
O48 Zn51 1.945 . S
Zn49 O48 1.923 . S
Zn49 O52 1.933 . S
Zn49 O55 1.941 . S
Zn49 O56 1.965 . S
Zn50 O48 1.950 . S
Zn50 O57 1.938 . S
Zn50 O58 1.906 . S
Zn50 O68 1.953 1_554 S
Zn51 O48 1.945 . S
Zn51 O53 1.932 . S
Zn51 O60 1.977 . S
Zn51 O61 1.910 . S
O52 Zn49 1.933 . S
O52 C63 1.226 . S
O53 Zn51 1.932 . S
O53 C63 1.307 . S
O54 Zn47 1.919 . S
O54 C65 1.253 . S
O55 Zn49 1.941 . S
O55 C65 1.283 . S
O56 Zn49 1.965 . S
O56 C64 1.303 . S
O57 Zn50 1.938 . S
O57 C64 1.247 . S
O58 Zn50 1.906 . S
O58 C66 1.304 . S
O59 Zn47 1.924 . S
O59 C67 1.311 . S
O60 Zn51 1.977 . S
O60 C66 1.272 . S
O61 Zn51 1.910 . S
O61 C67 1.231 . S
C62 O46 1.225 . S
C62 O68 1.298 . S
C63 O52 1.226 . S
C63 O53 1.307 . S
C64 O56 1.303 . S
C64 O57 1.247 . S
C65 O54 1.253 . S
C65 O55 1.283 . S
C66 O58 1.304 . S
C66 O60 1.272 . S
C67 O59 1.311 . S
C67 O61 1.231 . S
O68 Zn50 1.953 1_556 S
O68 C62 1.298 . S
O69 Zn70 1.953 1_554 S
O69 C85 1.225 . S
Zn70 O69 1.953 1_556 S
Zn70 O71 1.949 . S
Zn70 O77 1.919 . S
Zn70 O82 1.924 . S
O71 Zn70 1.949 . S
O71 Zn72 1.923 . S
O71 Zn73 1.950 . S
O71 Zn74 1.945 . S
Zn72 O71 1.923 . S
Zn72 O75 1.933 . S
Zn72 O78 1.941 . S
Zn72 O79 1.965 . S
Zn73 O71 1.950 . S
Zn73 O80 1.938 1_556 S
Zn73 O81 1.906 . S
Zn73 O91 1.953 1_556 S
Zn74 O71 1.945 . S
Zn74 O76 1.932 . S
Zn74 O83 1.977 . S
Zn74 O84 1.910 . S
O75 Zn72 1.933 . S
O75 C86 1.226 . S
O76 Zn74 1.932 . S
O76 C86 1.307 . S
O77 Zn70 1.919 . S
O77 C88 1.253 . S
O78 Zn72 1.941 . S
O78 C88 1.283 . S
O79 Zn72 1.965 . S
O79 C87 1.303 . S
O80 Zn73 1.938 1_554 S
O80 C87 1.247 1_554 S
O81 Zn73 1.906 . S
O81 C89 1.304 . S
O82 Zn70 1.924 . S
O82 C90 1.311 . S
O83 Zn74 1.977 . S
O83 C89 1.272 . S
O84 Zn74 1.910 . S
O84 C90 1.231 . S
C85 O69 1.225 . S
C85 O91 1.298 . S
C86 O75 1.226 . S
C86 O76 1.307 . S
C87 O79 1.303 . S
C87 O80 1.247 1_556 S
C88 O77 1.253 . S
C88 O78 1.283 . S
C89 O81 1.304 . S
C89 O83 1.272 . S
C90 O82 1.311 . S
C90 O84 1.231 . S
O91 Zn73 1.953 1_554 S
O91 C85 1.298 . S
O92 Zn93 1.953 . S
O92 C108 1.225 . S
Zn93 O92 1.953 . S
Zn93 O94 1.949 . S
Zn93 O100 1.919 . S
Zn93 O105 1.924 . S
O94 Zn93 1.949 . S
O94 Zn95 1.923 . S
O94 Zn96 1.950 . S
O94 Zn97 1.945 1_554 S
Zn95 O94 1.923 . S
Zn95 O98 1.933 1_554 S
Zn95 O101 1.941 . S
Zn95 O102 1.965 . S
Zn96 O94 1.950 . S
Zn96 O103 1.938 . S
Zn96 O104 1.906 . S
Zn96 O114 1.953 . S
Zn97 O94 1.945 1_556 S
Zn97 O99 1.932 . S
Zn97 O106 1.977 1_556 S
Zn97 O107 1.910 1_556 S
O98 Zn95 1.933 1_556 S
O98 C109 1.226 . S
O99 Zn97 1.932 . S
O99 C109 1.307 . S
O100 Zn93 1.919 . S
O100 C111 1.253 . S
O101 Zn95 1.941 . S
O101 C111 1.283 . S
O102 Zn95 1.965 . S
O102 C110 1.303 . S
O103 Zn96 1.938 . S
O103 C110 1.247 . S
O104 Zn96 1.906 . S
O104 C112 1.304 . S
O105 Zn93 1.924 . S
O105 C113 1.311 . S
O106 Zn97 1.977 1_554 S
O106 C112 1.272 . S
O107 Zn97 1.910 1_554 S
O107 C113 1.231 . S
C108 O92 1.225 . S
C108 O114 1.298 . S
C109 O98 1.226 . S
C109 O99 1.307 . S
C110 O102 1.303 . S
C110 O103 1.247 . S
C111 O100 1.253 . S
C111 O101 1.283 . S
C112 O104 1.304 . S
C112 O106 1.272 . S
C113 O105 1.311 . S
C113 O107 1.231 . S
O114 Zn96 1.953 . S
O114 C108 1.298 . S
O115 Zn116 1.953 . S
O115 C131 1.225 . S
Zn116 O115 1.953 . S
Zn116 O117 1.949 . S
Zn116 O123 1.919 . S
Zn116 O128 1.924 . S
O117 Zn116 1.949 . S
O117 Zn118 1.923 . S
O117 Zn119 1.950 . S
O117 Zn120 1.945 . S
Zn118 O117 1.923 . S
Zn118 O121 1.933 1_556 S
Zn118 O124 1.941 . S
Zn118 O125 1.965 . S
Zn119 O117 1.950 . S
Zn119 O126 1.938 . S
Zn119 O127 1.906 . S
Zn119 O137 1.953 . S
Zn120 O117 1.945 . S
Zn120 O122 1.932 1_556 S
Zn120 O129 1.977 . S
Zn120 O130 1.910 . S
O121 Zn118 1.933 1_554 S
O121 C132 1.226 . S
O122 Zn120 1.932 1_554 S
O122 C132 1.307 . S
O123 Zn116 1.919 . S
O123 C134 1.253 . S
O124 Zn118 1.941 . S
O124 C134 1.283 . S
O125 Zn118 1.965 . S
O125 C133 1.303 . S
O126 Zn119 1.938 . S
O126 C133 1.247 . S
O127 Zn119 1.906 . S
O127 C135 1.304 . S
O128 Zn116 1.924 . S
O128 C136 1.311 . S
O129 Zn120 1.977 . S
O129 C135 1.272 . S
O130 Zn120 1.910 . S
O130 C136 1.231 . S
C131 O115 1.225 . S
C131 O137 1.298 . S
C132 O121 1.226 . S
C132 O122 1.307 . S
C133 O125 1.303 . S
C133 O126 1.247 . S
C134 O123 1.253 . S
C134 O124 1.283 . S
C135 O127 1.304 . S
C135 O129 1.272 . S
C136 O128 1.311 . S
C136 O130 1.231 . S
O137 Zn119 1.953 . S
O137 C131 1.298 . S
O138 Zn139 1.953 . S
O138 C154 1.225 . S
Zn139 O138 1.953 . S
Zn139 O140 1.949 . S
Zn139 O146 1.919 . S
Zn139 O151 1.924 . S
O140 Zn139 1.949 . S
O140 Zn141 1.923 . S
O140 Zn142 1.950 . S
O140 Zn143 1.945 1_554 S
Zn141 O140 1.923 . S
Zn141 O144 1.933 1_554 S
Zn141 O147 1.941 . S
Zn141 O148 1.965 . S
Zn142 O140 1.950 . S
Zn142 O149 1.938 . S
Zn142 O150 1.906 . S
Zn142 O160 1.953 . S
Zn143 O140 1.945 1_556 S
Zn143 O145 1.932 . S
Zn143 O152 1.977 1_556 S
Zn143 O153 1.910 1_556 S
O144 Zn141 1.933 1_556 S
O144 C155 1.226 . S
O145 Zn143 1.932 . S
O145 C155 1.307 . S
O146 Zn139 1.919 . S
O146 C157 1.253 . S
O147 Zn141 1.941 . S
O147 C157 1.283 . S
O148 Zn141 1.965 . S
O148 C156 1.303 . S
O149 Zn142 1.938 . S
O149 C156 1.247 . S
O150 Zn142 1.906 . S
O150 C158 1.304 . S
O151 Zn139 1.924 . S
O151 C159 1.311 . S
O152 Zn143 1.977 1_554 S
O152 C158 1.272 . S
O153 Zn143 1.910 1_554 S
O153 C159 1.231 . S
C154 O138 1.225 . S
C154 O160 1.298 . S
C155 O144 1.226 . S
C155 O145 1.307 . S
C156 O148 1.303 . S
C156 O149 1.247 . S
C157 O146 1.253 . S
C157 O147 1.283 . S
C158 O150 1.304 . S
C158 O152 1.272 . S
C159 O151 1.311 . S
C159 O153 1.231 . S
O160 Zn142 1.953 . S
O160 C154 1.298 . S
O161 Zn162 1.953 . S
O161 C177 1.225 . S
Zn162 O161 1.953 . S
Zn162 O163 1.949 . S
Zn162 O169 1.919 . S
Zn162 O174 1.924 . S
O163 Zn162 1.949 . S
O163 Zn164 1.923 . S
O163 Zn165 1.950 . S
O163 Zn166 1.945 . S
Zn164 O163 1.923 . S
Zn164 O167 1.933 1_556 S
Zn164 O170 1.941 . S
Zn164 O171 1.965 . S
Zn165 O163 1.950 . S
Zn165 O172 1.938 . S
Zn165 O173 1.906 . S
Zn165 O183 1.953 . S
Zn166 O163 1.945 . S
Zn166 O168 1.932 1_556 S
Zn166 O175 1.977 . S
Zn166 O176 1.910 . S
O167 Zn164 1.933 1_554 S
O167 C178 1.226 . S
O168 Zn166 1.932 1_554 S
O168 C178 1.307 . S
O169 Zn162 1.919 . S
O169 C180 1.253 . S
O170 Zn164 1.941 . S
O170 C180 1.283 . S
O171 Zn164 1.965 . S
O171 C179 1.303 . S
O172 Zn165 1.938 . S
O172 C179 1.247 . S
O173 Zn165 1.906 . S
O173 C181 1.304 . S
O174 Zn162 1.924 . S
O174 C182 1.311 . S
O175 Zn166 1.977 . S
O175 C181 1.272 . S
O176 Zn166 1.910 . S
O176 C182 1.231 . S
C177 O161 1.225 . S
C177 O183 1.298 . S
C178 O167 1.226 . S
C178 O168 1.307 . S
C179 O171 1.303 . S
C179 O172 1.247 . S
C180 O169 1.253 . S
C180 O170 1.283 . S
C181 O173 1.304 . S
C181 O175 1.272 . S
C182 O174 1.311 . S
C182 O176 1.231 . S
O183 Zn165 1.953 . S
O183 C177 1.298 . S
O184 Zn185 1.953 . S
O184 C200 1.225 . S
Zn185 O184 1.953 . S
Zn185 O186 1.949 . S
Zn185 O192 1.919 . S
Zn185 O197 1.924 . S
O186 Zn185 1.949 . S
O186 Zn187 1.923 . S
O186 Zn188 1.950 . S
O186 Zn189 1.945 . S
Zn187 O186 1.923 . S
Zn187 O190 1.933 . S
Zn187 O193 1.941 . S
Zn187 O194 1.965 . S
Zn188 O186 1.950 . S
Zn188 O195 1.938 . S
Zn188 O196 1.906 . S
Zn188 O206 1.953 . S
Zn189 O186 1.945 . S
Zn189 O191 1.932 . S
Zn189 O198 1.977 . S
Zn189 O199 1.910 . S
O190 Zn187 1.933 . S
O190 C201 1.226 . S
O191 Zn189 1.932 . S
O191 C201 1.307 . S
O192 Zn185 1.919 . S
O192 C203 1.253 . S
O193 Zn187 1.941 . S
O193 C203 1.283 . S
O194 Zn187 1.965 . S
O194 C202 1.303 . S
O195 Zn188 1.938 . S
O195 C202 1.247 . S
O196 Zn188 1.906 . S
O196 C204 1.304 . S
O197 Zn185 1.924 . S
O197 C205 1.311 . S
O198 Zn189 1.977 . S
O198 C204 1.272 . S
O199 Zn189 1.910 . S
O199 C205 1.231 . S
C200 O184 1.225 . S
C200 O206 1.298 . S
C201 O190 1.226 . S
C201 O191 1.307 . S
C202 O194 1.303 . S
C202 O195 1.247 . S
C203 O192 1.253 . S
C203 O193 1.283 . S
C204 O196 1.304 . S
C204 O198 1.272 . S
C205 O197 1.311 . S
C205 O199 1.231 . S
O206 Zn188 1.953 . S
O206 C200 1.298 . S
O207 Zn208 1.953 . S
O207 C223 1.225 . S
Zn208 O207 1.953 . S
Zn208 O209 1.949 . S
Zn208 O215 1.919 . S
Zn208 O220 1.924 . S
O209 Zn208 1.949 . S
O209 Zn210 1.923 . S
O209 Zn211 1.950 . S
O209 Zn212 1.945 . S
Zn210 O209 1.923 . S
Zn210 O213 1.933 . S
Zn210 O216 1.941 . S
Zn210 O217 1.965 . S
Zn211 O209 1.950 . S
Zn211 O218 1.938 . S
Zn211 O219 1.906 . S
Zn211 O229 1.953 . S
Zn212 O209 1.945 . S
Zn212 O214 1.932 . S
Zn212 O221 1.977 . S
Zn212 O222 1.910 . S
O213 Zn210 1.933 . S
O213 C224 1.226 . S
O214 Zn212 1.932 . S
O214 C224 1.307 . S
O215 Zn208 1.919 . S
O215 C226 1.253 . S
O216 Zn210 1.941 . S
O216 C226 1.283 . S
O217 Zn210 1.965 . S
O217 C225 1.303 . S
O218 Zn211 1.938 . S
O218 C225 1.247 . S
O219 Zn211 1.906 . S
O219 C227 1.304 . S
O220 Zn208 1.924 . S
O220 C228 1.311 . S
O221 Zn212 1.977 . S
O221 C227 1.272 . S
O222 Zn212 1.910 . S
O222 C228 1.231 . S
C223 O207 1.225 . S
C223 O229 1.298 . S
C224 O213 1.226 . S
C224 O214 1.307 . S
C225 O217 1.303 . S
C225 O218 1.247 . S
C226 O215 1.253 . S
C226 O216 1.283 . S
C227 O219 1.304 . S
C227 O221 1.272 . S
C228 O220 1.311 . S
C228 O222 1.231 . S
O229 Zn211 1.953 . S
O229 C223 1.298 . S
O230 Zn231 1.953 . S
O230 C246 1.225 . S
Zn231 O230 1.953 . S
Zn231 O232 1.949 . S
Zn231 O238 1.919 . S
Zn231 O243 1.924 . S
O232 Zn231 1.949 . S
O232 Zn233 1.923 . S
O232 Zn234 1.950 . S
O232 Zn235 1.945 . S
Zn233 O232 1.923 . S
Zn233 O236 1.933 . S
Zn233 O239 1.941 . S
Zn233 O240 1.965 . S
Zn234 O232 1.950 . S
Zn234 O241 1.938 . S
Zn234 O242 1.906 . S
Zn234 O252 1.953 . S
Zn235 O232 1.945 . S
Zn235 O237 1.932 . S
Zn235 O244 1.977 . S
Zn235 O245 1.910 . S
O236 Zn233 1.933 . S
O236 C247 1.226 . S
O237 Zn235 1.932 . S
O237 C247 1.307 . S
O238 Zn231 1.919 . S
O238 C249 1.253 . S
O239 Zn233 1.941 . S
O239 C249 1.283 . S
O240 Zn233 1.965 . S
O240 C248 1.303 . S
O241 Zn234 1.938 . S
O241 C248 1.247 . S
O242 Zn234 1.906 . S
O242 C250 1.304 . S
O243 Zn231 1.924 . S
O243 C251 1.311 . S
O244 Zn235 1.977 . S
O244 C250 1.272 . S
O245 Zn235 1.910 . S
O245 C251 1.231 . S
C246 O230 1.225 . S
C246 O252 1.298 . S
C247 O236 1.226 . S
C247 O237 1.307 . S
C248 O240 1.303 . S
C248 O241 1.247 . S
C249 O238 1.253 . S
C249 O239 1.283 . S
C250 O242 1.304 . S
C250 O244 1.272 . S
C251 O243 1.311 . S
C251 O245 1.231 . S
O252 Zn234 1.953 . S
O252 C246 1.298 . S
O253 Zn254 1.953 . S
O253 C269 1.225 . S
Zn254 O253 1.953 . S
Zn254 O255 1.949 . S
Zn254 O261 1.919 . S
Zn254 O266 1.924 . S
O255 Zn254 1.949 . S
O255 Zn256 1.923 . S
O255 Zn257 1.950 . S
O255 Zn258 1.945 . S
Zn256 O255 1.923 . S
Zn256 O259 1.933 . S
Zn256 O262 1.941 . S
Zn256 O263 1.965 . S
Zn257 O255 1.950 . S
Zn257 O264 1.938 . S
Zn257 O265 1.906 . S
Zn257 O275 1.953 . S
Zn258 O255 1.945 . S
Zn258 O260 1.932 . S
Zn258 O267 1.977 . S
Zn258 O268 1.910 . S
O259 Zn256 1.933 . S
O259 C270 1.226 . S
O260 Zn258 1.932 . S
O260 C270 1.307 . S
O261 Zn254 1.919 . S
O261 C272 1.253 . S
O262 Zn256 1.941 . S
O262 C272 1.283 . S
O263 Zn256 1.965 . S
O263 C271 1.303 . S
O264 Zn257 1.938 . S
O264 C271 1.247 . S
O265 Zn257 1.906 . S
O265 C273 1.304 . S
O266 Zn254 1.924 . S
O266 C274 1.311 . S
O267 Zn258 1.977 . S
O267 C273 1.272 . S
O268 Zn258 1.910 . S
O268 C274 1.231 . S
C269 O253 1.225 . S
C269 O275 1.298 . S
C270 O259 1.226 . S
C270 O260 1.307 . S
C271 O263 1.303 . S
C271 O264 1.247 . S
C272 O261 1.253 . S
C272 O262 1.283 . S
C273 O265 1.304 . S
C273 O267 1.272 . S
C274 O266 1.311 . S
C274 O268 1.231 . S
O275 Zn257 1.953 . S
O275 C269 1.298 . S
O276 Zn277 1.953 . S
O276 C292 1.225 . S
Zn277 O276 1.953 . S
Zn277 O278 1.949 . S
Zn277 O284 1.919 . S
Zn277 O289 1.924 . S
O278 Zn277 1.949 . S
O278 Zn279 1.923 . S
O278 Zn280 1.950 . S
O278 Zn281 1.945 . S
Zn279 O278 1.923 . S
Zn279 O282 1.933 . S
Zn279 O285 1.941 . S
Zn279 O286 1.965 . S
Zn280 O278 1.950 . S
Zn280 O287 1.938 . S
Zn280 O288 1.906 . S
Zn280 O298 1.953 . S
Zn281 O278 1.945 . S
Zn281 O283 1.932 . S
Zn281 O290 1.977 . S
Zn281 O291 1.910 . S
O282 Zn279 1.933 . S
O282 C293 1.226 . S
O283 Zn281 1.932 . S
O283 C293 1.307 . S
O284 Zn277 1.919 . S
O284 C295 1.253 . S
O285 Zn279 1.941 . S
O285 C295 1.283 . S
O286 Zn279 1.965 . S
O286 C294 1.303 . S
O287 Zn280 1.938 . S
O287 C294 1.247 . S
O288 Zn280 1.906 . S
O288 C296 1.304 . S
O289 Zn277 1.924 . S
O289 C297 1.311 . S
O290 Zn281 1.977 . S
O290 C296 1.272 . S
O291 Zn281 1.910 . S
O291 C297 1.231 . S
C292 O276 1.225 . S
C292 O298 1.298 . S
C293 O282 1.226 . S
C293 O283 1.307 . S
C294 O286 1.303 . S
C294 O287 1.247 . S
C295 O284 1.253 . S
C295 O285 1.283 . S
C296 O288 1.304 . S
C296 O290 1.272 . S
C297 O289 1.311 . S
C297 O291 1.231 . S
O298 Zn280 1.953 . S
O298 C292 1.298 . S
O299 Zn300 1.953 . S
O299 C315 1.225 . S
Zn300 O299 1.953 . S
Zn300 O301 1.949 . S
Zn300 O307 1.919 . S
Zn300 O312 1.924 . S
O301 Zn300 1.949 . S
O301 Zn302 1.923 . S
O301 Zn303 1.950 . S
O301 Zn304 1.945 . S
Zn302 O301 1.923 . S
Zn302 O305 1.933 . S
Zn302 O308 1.941 . S
Zn302 O309 1.965 . S
Zn303 O301 1.950 . S
Zn303 O310 1.938 . S
Zn303 O311 1.906 . S
Zn303 O321 1.953 . S
Zn304 O301 1.945 . S
Zn304 O306 1.932 . S
Zn304 O313 1.977 . S
Zn304 O314 1.910 . S
O305 Zn302 1.933 . S
O305 C316 1.226 . S
O306 Zn304 1.932 . S
O306 C316 1.307 . S
O307 Zn300 1.919 . S
O307 C318 1.253 . S
O308 Zn302 1.941 . S
O308 C318 1.283 . S
O309 Zn302 1.965 . S
O309 C317 1.303 . S
O310 Zn303 1.938 . S
O310 C317 1.247 . S
O311 Zn303 1.906 . S
O311 C319 1.304 . S
O312 Zn300 1.924 . S
O312 C320 1.311 . S
O313 Zn304 1.977 . S
O313 C319 1.272 . S
O314 Zn304 1.910 . S
O314 C320 1.231 . S
C315 O299 1.225 . S
C315 O321 1.298 . S
C316 O305 1.226 . S
C316 O306 1.307 . S
C317 O309 1.303 . S
C317 O310 1.247 . S
C318 O307 1.253 . S
C318 O308 1.283 . S
C319 O311 1.304 . S
C319 O313 1.272 . S
C320 O312 1.311 . S
C320 O314 1.231 . S
O321 Zn303 1.953 . S
O321 C315 1.298 . S
O322 Zn323 1.953 . S
O322 C338 1.225 . S
Zn323 O322 1.953 . S
Zn323 O324 1.949 . S
Zn323 O330 1.919 . S
Zn323 O335 1.924 . S
O324 Zn323 1.949 . S
O324 Zn325 1.923 . S
O324 Zn326 1.950 . S
O324 Zn327 1.945 . S
Zn325 O324 1.923 . S
Zn325 O328 1.933 . S
Zn325 O331 1.941 . S
Zn325 O332 1.965 . S
Zn326 O324 1.950 . S
Zn326 O333 1.938 . S
Zn326 O334 1.906 . S
Zn326 O344 1.953 . S
Zn327 O324 1.945 . S
Zn327 O329 1.932 . S
Zn327 O336 1.977 . S
Zn327 O337 1.910 . S
O328 Zn325 1.933 . S
O328 C339 1.226 . S
O329 Zn327 1.932 . S
O329 C339 1.307 . S
O330 Zn323 1.919 . S
O330 C341 1.253 . S
O331 Zn325 1.941 . S
O331 C341 1.283 . S
O332 Zn325 1.965 . S
O332 C340 1.303 . S
O333 Zn326 1.938 . S
O333 C340 1.247 . S
O334 Zn326 1.906 . S
O334 C342 1.304 . S
O335 Zn323 1.924 . S
O335 C343 1.311 . S
O336 Zn327 1.977 . S
O336 C342 1.272 . S
O337 Zn327 1.910 . S
O337 C343 1.231 . S
C338 O322 1.225 . S
C338 O344 1.298 . S
C339 O328 1.226 . S
C339 O329 1.307 . S
C340 O332 1.303 . S
C340 O333 1.247 . S
C341 O330 1.253 . S
C341 O331 1.283 . S
C342 O334 1.304 . S
C342 O336 1.272 . S
C343 O335 1.311 . S
C343 O337 1.231 . S
O344 Zn326 1.953 . S
O344 C338 1.298 . S
O345 Zn346 1.953 . S
O345 C361 1.225 . S
Zn346 O345 1.953 . S
Zn346 O347 1.949 . S
Zn346 O353 1.919 . S
Zn346 O358 1.924 . S
O347 Zn346 1.949 . S
O347 Zn348 1.923 . S
O347 Zn349 1.950 . S
O347 Zn350 1.945 . S
Zn348 O347 1.923 . S
Zn348 O351 1.933 . S
Zn348 O354 1.941 . S
Zn348 O355 1.965 . S
Zn349 O347 1.950 . S
Zn349 O356 1.938 . S
Zn349 O357 1.906 . S
Zn349 O367 1.953 . S
Zn350 O347 1.945 . S
Zn350 O352 1.932 . S
Zn350 O359 1.977 . S
Zn350 O360 1.910 . S
O351 Zn348 1.933 . S
O351 C362 1.226 . S
O352 Zn350 1.932 . S
O352 C362 1.307 . S
O353 Zn346 1.919 . S
O353 C364 1.253 . S
O354 Zn348 1.941 . S
O354 C364 1.283 . S
O355 Zn348 1.965 . S
O355 C363 1.303 . S
O356 Zn349 1.938 . S
O356 C363 1.247 . S
O357 Zn349 1.906 . S
O357 C365 1.304 . S
O358 Zn346 1.924 . S
O358 C366 1.311 . S
O359 Zn350 1.977 . S
O359 C365 1.272 . S
O360 Zn350 1.910 . S
O360 C366 1.231 . S
C361 O345 1.225 . S
C361 O367 1.298 . S
C362 O351 1.226 . S
C362 O352 1.307 . S
C363 O355 1.303 . S
C363 O356 1.247 . S
C364 O353 1.253 . S
C364 O354 1.283 . S
C365 O357 1.304 . S
C365 O359 1.272 . S
C366 O358 1.311 . S
C366 O360 1.231 . S
O367 Zn349 1.953 . S
O367 C361 1.298 . S
C368 C369 1.387 . S
C368 H372 0.950 . S
C368 C377 1.390 1_565 S
C369 C368 1.387 . S
C369 C371 1.387 . S
H370 C377 0.950 . S
C371 C369 1.387 . S
C371 C373 1.390 1_565 S
C371 H375 0.950 . S
H372 C368 0.950 . S
C373 C371 1.390 1_545 S
C373 C374 1.387 . S
C373 H376 0.950 . S
C374 C373 1.387 . S
C374 C377 1.387 . S
H375 C371 0.950 . S
H376 C373 0.950 . S
C377 C368 1.390 1_545 S
C377 H370 0.950 . S
C377 C374 1.387 . S
C378 C379 1.387 . S
C378 H382 0.950 . S
C378 C387 1.390 1_655 S
C379 C378 1.387 . S
C379 C381 1.387 . S
H380 C387 0.950 . S
C381 C379 1.387 . S
C381 C383 1.390 1_655 S
C381 H385 0.950 . S
H382 C378 0.950 . S
C383 C381 1.390 1_455 S
C383 C384 1.387 . S
C383 H386 0.950 . S
C384 C383 1.387 . S
C384 C387 1.387 . S
H385 C381 0.950 . S
H386 C383 0.950 . S
C387 C378 1.390 1_455 S
C387 H380 0.950 . S
C387 C384 1.387 . S
C388 C389 1.392 . S
C388 H392 0.950 . S
C388 C397 1.385 1_565 S
C389 C388 1.392 . S
C389 C391 1.387 . S
H390 C397 0.950 . S
C391 C389 1.387 . S
C391 C393 1.390 1_565 S
C391 H395 0.950 . S
H392 C388 0.950 . S
C393 C391 1.390 1_545 S
C393 C394 1.387 . S
C393 H396 0.950 . S
C394 C393 1.387 . S
C394 C397 1.387 . S
H395 C391 0.950 . S
H396 C393 0.950 . S
C397 C388 1.385 1_545 S
C397 H390 0.950 . S
C397 C394 1.387 . S
C398 C399 1.387 . S
C398 H402 0.950 . S
C398 C407 1.390 1_655 S
C399 C398 1.387 . S
C399 C401 1.387 . S
H400 C407 0.950 . S
C401 C399 1.387 . S
C401 C403 1.390 1_655 S
C401 H405 0.950 . S
H402 C398 0.950 . S
C403 C401 1.390 1_455 S
C403 C404 1.387 . S
C403 H406 0.950 . S
C404 C403 1.387 . S
C404 C407 1.387 . S
H405 C401 0.950 . S
H406 C403 0.950 . S
C407 C398 1.390 1_455 S
C407 H400 0.950 . S
C407 C404 1.387 . S
C408 C409 1.387 1_556 S
C408 H412 0.950 . S
C408 C417 1.390 . S
C409 C408 1.387 1_554 S
C409 C411 1.387 . S
H410 C417 0.950 . S
C411 C409 1.387 . S
C411 C413 1.390 . S
C411 H415 0.950 . S
H412 C408 0.950 . S
C413 C411 1.390 . S
C413 C414 1.387 1_554 S
C413 H416 0.950 . S
C414 C413 1.387 1_556 S
C414 C417 1.387 . S
H415 C411 0.950 . S
H416 C413 0.950 . S
C417 C408 1.390 . S
C417 H410 0.950 . S
C417 C414 1.387 . S
C418 C419 1.387 . S
C418 H422 0.950 . S
C418 C427 1.390 1_554 S
C419 C418 1.387 . S
C419 C421 1.387 . S
H420 C427 0.950 . S
C421 C419 1.387 . S
C421 C423 1.390 . S
C421 H425 0.950 . S
H422 C418 0.950 . S
C423 C421 1.390 . S
C423 C424 1.387 1_554 S
C423 H426 0.950 . S
C424 C423 1.387 1_556 S
C424 C427 1.387 . S
H425 C421 0.950 . S
H426 C423 0.950 . S
C427 C418 1.390 1_556 S
C427 H420 0.950 . S
C427 C424 1.387 . S
C428 C429 1.387 . S
C428 H432 0.950 . S
C428 C437 1.390 . S
C429 C428 1.387 . S
C429 C431 1.387 1_554 S
H430 C437 0.950 . S
C431 C429 1.387 1_556 S
C431 C433 1.390 . S
C431 H435 0.950 . S
H432 C428 0.950 . S
C433 C431 1.390 . S
C433 C434 1.387 . S
C433 H436 0.950 . S
C434 C433 1.387 . S
C434 C437 1.387 1_556 S
H435 C431 0.950 . S
H436 C433 0.950 . S
C437 C428 1.390 . S
C437 H430 0.950 . S
C437 C434 1.387 1_554 S
C438 C439 1.387 . S
C438 H442 0.950 . S
C438 C447 1.393 . S
C439 C438 1.387 . S
C439 C441 1.387 . S
H440 C447 0.948 1_556 S
C441 C439 1.387 . S
C441 C443 1.390 . S
C441 H445 0.950 . S
H442 C438 0.950 . S
C443 C441 1.390 . S
C443 C444 1.387 1_554 S
C443 H446 0.950 1_554 S
C444 C443 1.387 1_556 S
C444 C447 1.386 1_556 S
H445 C441 0.950 . S
H446 C443 0.950 1_556 S
C447 C438 1.393 . S
C447 H440 0.948 1_554 S
C447 C444 1.386 1_554 S
C448 C449 1.387 . S
C448 H452 0.950 . S
C448 C457 1.390 . S
C449 C448 1.387 . S
C449 C451 1.387 . S
H450 C457 0.950 . S
C451 C449 1.387 . S
C451 C453 1.390 . S
C451 H455 0.950 . S
H452 C448 0.950 . S
C453 C451 1.390 . S
C453 C454 1.387 . S
C453 H456 0.950 . S
C454 C453 1.387 . S
C454 C457 1.387 . S
H455 C451 0.950 . S
H456 C453 0.950 . S
C457 C448 1.390 . S
C457 H450 0.950 . S
C457 C454 1.387 . S
C458 C459 1.387 . S
C458 H462 0.950 . S
C458 C467 1.390 . S
C459 C458 1.387 . S
C459 C461 1.387 . S
H460 C467 0.950 . S
C461 C459 1.387 . S
C461 C463 1.390 . S
C461 H465 0.950 . S
H462 C458 0.950 . S
C463 C461 1.390 . S
C463 C464 1.387 . S
C463 H466 0.950 . S
C464 C463 1.387 . S
C464 C467 1.387 . S
H465 C461 0.950 . S
H466 C463 0.950 . S
C467 C458 1.390 . S
C467 H460 0.950 . S
C467 C464 1.387 . S
C468 C469 1.387 . S
C468 H472 0.950 . S
C468 C477 1.390 . S
C469 C468 1.387 . S
C469 C471 1.387 . S
H470 C477 0.950 . S
C471 C469 1.387 . S
C471 C473 1.390 . S
C471 H475 0.950 . S
H472 C468 0.950 . S
C473 C471 1.390 . S
C473 C474 1.387 . S
C473 H476 0.950 . S
C474 C473 1.387 . S
C474 C477 1.387 . S
H475 C471 0.950 . S
H476 C473 0.950 . S
C477 C468 1.390 . S
C477 H470 0.950 . S
C477 C474 1.387 . S
C478 C479 1.387 . S
C478 H482 0.950 . S
C478 C487 1.390 . S
C479 C478 1.387 . S
C479 C481 1.387 . S
H480 C487 0.950 . S
C481 C479 1.387 . S
C481 C483 1.390 . S
C481 H485 0.950 . S
H482 C478 0.950 . S
C483 C481 1.390 . S
C483 C484 1.387 . S
C483 H486 0.950 . S
C484 C483 1.387 . S
C484 C487 1.387 . S
H485 C481 0.950 . S
H486 C483 0.950 . S
C487 C478 1.390 . S
C487 H480 0.950 . S
C487 C484 1.387 . S
C488 C489 1.387 . S
C488 H492 0.950 . S
C488 C497 1.390 1_565 S
C489 C488 1.387 . S
C489 C491 1.387 . S
H490 C497 0.950 . S
C491 C489 1.387 . S
C491 C493 1.390 1_565 S
C491 H495 0.950 . S
H492 C488 0.950 . S
C493 C491 1.390 1_545 S
C493 C494 1.387 . S
C493 H496 0.950 . S
C494 C493 1.387 . S
C494 C497 1.387 . S
H495 C491 0.950 . S
H496 C493 0.950 . S
C497 C488 1.390 1_545 S
C497 H490 0.950 . S
C497 C494 1.387 . S
C498 C499 1.387 . S
C498 H502 0.950 . S
C498 C507 1.390 1_455 S
C499 C498 1.387 . S
C499 C501 1.387 . S
H500 C507 0.950 . S
C501 C499 1.387 . S
C501 C503 1.390 1_455 S
C501 H505 0.950 . S
H502 C498 0.950 . S
C503 C501 1.390 1_655 S
C503 C504 1.387 . S
C503 H506 0.950 . S
C504 C503 1.387 . S
C504 C507 1.387 . S
H505 C501 0.950 . S
H506 C503 0.950 . S
C507 C498 1.390 1_655 S
C507 H500 0.950 . S
C507 C504 1.387 . S
C508 C509 1.387 . S
C508 H512 0.950 . S
C508 C517 1.390 1_565 S
C509 C508 1.387 . S
C509 C511 1.387 . S
H510 C517 0.950 . S
C511 C509 1.387 . S
C511 C513 1.390 . S
C511 H515 0.950 . S
H512 C508 0.950 . S
C513 C511 1.390 . S
C513 C514 1.387 1_565 S
C513 H516 0.950 . S
C514 C513 1.387 1_545 S
C514 C517 1.387 . S
H515 C511 0.950 . S
H516 C513 0.950 . S
C517 C508 1.390 1_545 S
C517 H510 0.950 . S
C517 C514 1.387 . S
C518 C519 1.387 . S
C518 H522 0.950 . S
C518 C527 1.390 1_455 S
C519 C518 1.387 . S
C519 C521 1.387 . S
H520 C527 0.950 . S
C521 C519 1.387 . S
C521 C523 1.390 1_455 S
C521 H525 0.950 . S
H522 C518 0.950 . S
C523 C521 1.390 1_655 S
C523 C524 1.387 . S
C523 H526 0.950 . S
C524 C523 1.387 . S
C524 C527 1.387 . S
H525 C521 0.950 . S
H526 C523 0.950 . S
C527 C518 1.390 1_655 S
C527 H520 0.950 . S
C527 C524 1.387 . S
C528 C529 1.387 . S
C528 H532 0.950 . S
C528 C537 1.390 . S
C529 C528 1.387 . S
C529 C531 1.387 . S
H530 C537 0.950 . S
C531 C529 1.387 . S
C531 C533 1.390 . S
C531 H535 0.950 . S
H532 C528 0.950 . S
C533 C531 1.390 . S
C533 C534 1.387 . S
C533 H536 0.950 . S
C534 C533 1.387 . S
C534 C537 1.387 . S
H535 C531 0.950 . S
H536 C533 0.950 . S
C537 C528 1.390 . S
C537 H530 0.950 . S
C537 C534 1.387 . S
C538 C539 1.387 . S
C538 H542 0.950 . S
C538 C547 1.390 . S
C539 C538 1.387 . S
C539 C541 1.387 . S
H540 C547 0.950 . S
C541 C539 1.387 . S
C541 C543 1.390 . S
C541 H545 0.950 . S
H542 C538 0.950 . S
C543 C541 1.390 . S
C543 C544 1.387 . S
C543 H546 0.950 . S
C544 C543 1.387 . S
C544 C547 1.387 . S
H545 C541 0.950 . S
H546 C543 0.950 . S
C547 C538 1.390 . S
C547 H540 0.950 . S
C547 C544 1.387 . S
C548 C549 1.387 . S
C548 H552 0.950 . S
C548 C557 1.390 . S
C549 C548 1.387 . S
C549 C551 1.387 . S
H550 C557 0.950 . S
C551 C549 1.387 . S
C551 C553 1.390 . S
C551 H555 0.950 . S
H552 C548 0.950 . S
C553 C551 1.390 . S
C553 C554 1.387 . S
C553 H556 0.950 . S
C554 C553 1.387 . S
C554 C557 1.387 . S
H555 C551 0.950 . S
H556 C553 0.950 . S
C557 C548 1.390 . S
C557 H550 0.950 . S
C557 C554 1.387 . S
C558 C559 1.387 . S
C558 H562 0.950 . S
C558 C567 1.390 . S
C559 C558 1.387 . S
C559 C561 1.387 . S
H560 C567 0.950 . S
C561 C559 1.387 . S
C561 C563 1.390 . S
C561 H565 0.950 . S
H562 C558 0.950 . S
C563 C561 1.390 . S
C563 C564 1.387 . S
C563 H566 0.950 . S
C564 C563 1.387 . S
C564 C567 1.387 . S
H565 C561 0.950 . S
H566 C563 0.950 . S
C567 C558 1.390 . S
C567 H560 0.950 . S
C567 C564 1.387 . S
C568 C569 1.387 . S
C568 H572 0.950 . S
C568 C577 1.390 . S
C569 C568 1.387 . S
C569 C571 1.387 . S
H570 C577 0.950 . S
C571 C569 1.387 . S
C571 C573 1.390 . S
C571 H575 0.950 . S
H572 C568 0.950 . S
C573 C571 1.390 . S
C573 C574 1.387 . S
C573 H576 0.950 . S
C574 C573 1.387 . S
C574 C577 1.387 . S
H575 C571 0.950 . S
H576 C573 0.950 . S
C577 C568 1.390 . S
C577 H570 0.950 . S
C577 C574 1.387 . S
C578 C579 1.387 . S
C578 H582 0.950 . S
C578 C587 1.390 . S
C579 C578 1.387 . S
C579 C581 1.387 . S
H580 C587 0.950 . S
C581 C579 1.387 . S
C581 C583 1.390 . S
C581 H585 0.950 . S
H582 C578 0.950 . S
C583 C581 1.390 . S
C583 C584 1.387 . S
C583 H586 0.950 . S
C584 C583 1.387 . S
C584 C587 1.387 . S
H585 C581 0.950 . S
H586 C583 0.950 . S
C587 C578 1.390 . S
C587 H580 0.950 . S
C587 C584 1.387 . S
C588 C589 1.387 . S
C588 H592 0.950 . S
C588 C597 1.390 . S
C589 C588 1.387 . S
C589 C591 1.387 . S
H590 C597 0.950 . S
C591 C589 1.387 . S
C591 C593 1.390 . S
C591 H595 0.950 . S
H592 C588 0.950 . S
C593 C591 1.390 . S
C593 C594 1.387 . S
C593 H596 0.950 . S
C594 C593 1.387 . S
C594 C597 1.387 . S
H595 C591 0.950 . S
H596 C593 0.950 . S
C597 C588 1.390 . S
C597 H590 0.950 . S
C597 C594 1.387 . S
C598 C599 1.387 . S
C598 H602 0.950 . S
C598 C607 1.390 . S
C599 C598 1.387 . S
C599 C601 1.387 . S
H600 C607 0.950 . S
C601 C599 1.387 . S
C601 C603 1.390 . S
C601 H605 0.950 . S
H602 C598 0.950 . S
C603 C601 1.390 . S
C603 C604 1.387 . S
C603 H606 0.950 . S
C604 C603 1.387 . S
C604 C607 1.387 . S
H605 C601 0.950 . S
H606 C603 0.950 . S
C607 C598 1.390 . S
C607 H600 0.950 . S
C607 C604 1.387 . S
C608 C609 1.387 . S
C608 H612 0.950 . S
C608 C617 1.390 . S
C609 C608 1.387 . S
C609 C611 1.387 . S
H610 C617 0.950 . S
C611 C609 1.387 . S
C611 C613 1.390 . S
C611 H615 0.950 . S
H612 C608 0.950 . S
C613 C611 1.390 . S
C613 C614 1.387 . S
C613 H616 0.950 . S
C614 C613 1.387 . S
C614 C617 1.387 . S
H615 C611 0.950 . S
H616 C613 0.950 . S
C617 C608 1.390 . S
C617 H610 0.950 . S
C617 C614 1.387 . S
C618 C619 1.387 . S
C618 H622 0.950 . S
C618 C627 1.390 . S
C619 C618 1.387 . S
C619 C621 1.387 . S
H620 C627 0.950 . S
C621 C619 1.387 . S
C621 C623 1.390 . S
C621 H625 0.950 . S
H622 C618 0.950 . S
C623 C621 1.390 . S
C623 C624 1.387 . S
C623 H626 0.950 . S
C624 C623 1.387 . S
C624 C627 1.387 . S
H625 C621 0.950 . S
H626 C623 0.950 . S
C627 C618 1.390 . S
C627 H620 0.950 . S
C627 C624 1.387 . S
C628 C629 1.387 . S
C628 H632 0.950 . S
C628 C637 1.390 . S
C629 C628 1.387 . S
C629 C631 1.387 . S
H630 C637 0.950 . S
C631 C629 1.387 . S
C631 C633 1.390 . S
C631 H635 0.950 . S
H632 C628 0.950 . S
C633 C631 1.390 . S
C633 C634 1.387 . S
C633 H636 0.950 . S
C634 C633 1.387 . S
C634 C637 1.387 . S
H635 C631 0.950 . S
H636 C633 0.950 . S
C637 C628 1.390 . S
C637 H630 0.950 . S
C637 C634 1.387 . S
C638 C639 1.387 . S
C638 H642 0.950 . S
C638 C647 1.390 . S
C639 C638 1.387 . S
C639 C641 1.387 . S
H640 C647 0.950 . S
C641 C639 1.387 . S
C641 C643 1.390 . S
C641 H645 0.950 . S
H642 C638 0.950 . S
C643 C641 1.390 . S
C643 C644 1.387 . S
C643 H646 0.950 . S
C644 C643 1.387 . S
C644 C647 1.387 . S
H645 C641 0.950 . S
H646 C643 0.950 . S
C647 C638 1.390 . S
C647 H640 0.950 . S
C647 C644 1.387 . S
C648 C649 1.387 . S
C648 H652 0.950 . S
C648 C657 1.390 . S
C649 C648 1.387 . S
C649 C651 1.387 . S
H650 C657 0.950 . S
C651 C649 1.387 . S
C651 C653 1.390 . S
C651 H655 0.950 . S
H652 C648 0.950 . S
C653 C651 1.390 . S
C653 C654 1.387 . S
C653 H656 0.950 . S
C654 C653 1.387 . S
C654 C657 1.387 . S
H655 C651 0.950 . S
H656 C653 0.950 . S
C657 C648 1.390 . S
C657 H650 0.950 . S
C657 C654 1.387 . S
C658 C659 1.387 . S
C658 H662 0.950 . S
C658 C667 1.390 . S
C659 C658 1.387 . S
C659 C661 1.387 . S
H660 C667 0.950 . S
C661 C659 1.387 . S
C661 C663 1.390 . S
C661 H665 0.950 . S
H662 C658 0.950 . S
C663 C661 1.390 . S
C663 C664 1.387 . S
C663 H666 0.950 . S
C664 C663 1.387 . S
C664 C667 1.387 . S
H665 C661 0.950 . S
H666 C663 0.950 . S
C667 C658 1.390 . S
C667 H660 0.950 . S
C667 C664 1.387 . S
C668 C669 1.387 . S
C668 H672 0.950 . S
C668 C677 1.390 . S
C669 C668 1.387 . S
C669 C671 1.387 . S
H670 C677 0.950 . S
C671 C669 1.387 . S
C671 C673 1.390 . S
C671 H675 0.950 . S
H672 C668 0.950 . S
C673 C671 1.390 . S
C673 C674 1.387 . S
C673 H676 0.950 . S
C674 C673 1.387 . S
C674 C677 1.387 . S
H675 C671 0.950 . S
H676 C673 0.950 . S
C677 C668 1.390 . S
C677 H670 0.950 . S
C677 C674 1.387 . S
C678 C679 1.387 . S
C678 H682 0.950 . S
C678 C687 1.390 . S
C679 C678 1.387 . S
C679 C681 1.387 . S
H680 C687 0.950 . S
C681 C679 1.387 . S
C681 C683 1.390 . S
C681 H685 0.950 . S
H682 C678 0.950 . S
C683 C681 1.390 . S
C683 C684 1.387 . S
C683 H686 0.950 . S
C684 C683 1.387 . S
C684 C687 1.387 . S
H685 C681 0.950 . S
H686 C683 0.950 . S
C687 C678 1.390 . S
C687 H680 0.950 . S
C687 C684 1.387 . S
C688 C689 1.387 . S
C688 H692 0.950 . S
C688 C697 1.390 . S
C689 C688 1.387 . S
C689 C691 1.387 . S
H690 C697 0.950 . S
C691 C689 1.387 . S
C691 C693 1.390 . S
C691 H695 0.950 . S
H692 C688 0.950 . S
C693 C691 1.390 . S
C693 C694 1.387 . S
C693 H696 0.950 . S
C694 C693 1.387 . S
C694 C697 1.387 . S
H695 C691 0.950 . S
H696 C693 0.950 . S
C697 C688 1.390 . S
C697 H690 0.950 . S
C697 C694 1.387 . S
C698 C699 1.387 . S
C698 H702 0.950 . S
C698 C707 1.390 . S
C699 C698 1.387 . S
C699 C701 1.387 . S
H700 C707 0.950 . S
C701 C699 1.387 . S
C701 C703 1.390 . S
C701 H705 0.950 . S
H702 C698 0.950 . S
C703 C701 1.390 . S
C703 C704 1.387 . S
C703 H706 0.950 . S
C704 C703 1.387 . S
C704 C707 1.387 . S
H705 C701 0.950 . S
H706 C703 0.950 . S
C707 C698 1.390 . S
C707 H700 0.950 . S
C707 C704 1.387 . S
C708 C709 1.387 . S
C708 H712 0.950 . S
C708 C717 1.390 . S
C709 C708 1.387 . S
C709 C711 1.387 . S
H710 C717 0.950 . S
C711 C709 1.387 . S
C711 C713 1.390 . S
C711 H715 0.950 . S
H712 C708 0.950 . S
C713 C711 1.390 . S
C713 C714 1.387 . S
C713 H716 0.950 . S
C714 C713 1.387 . S
C714 C717 1.387 . S
H715 C711 0.950 . S
H716 C713 0.950 . S
C717 C708 1.390 . S
C717 H710 0.950 . S
C717 C714 1.387 . S
C718 C719 1.387 . S
C718 H722 0.950 . S
C718 C727 1.390 . S
C719 C718 1.387 . S
C719 C721 1.387 . S
H720 C727 0.950 . S
C721 C719 1.387 . S
C721 C723 1.390 . S
C721 H725 0.950 . S
H722 C718 0.950 . S
C723 C721 1.390 . S
C723 C724 1.387 . S
C723 H726 0.950 . S
C724 C723 1.387 . S
C724 C727 1.387 . S
H725 C721 0.950 . S
H726 C723 0.950 . S
C727 C718 1.390 . S
C727 H720 0.950 . S
C727 C724 1.387 . S
C728 C729 1.387 . S
C728 H732 0.950 . S
C728 C737 1.390 . S
C729 C728 1.387 . S
C729 C731 1.387 . S
H730 C737 0.950 . S
C731 C729 1.387 . S
C731 C733 1.390 . S
C731 H735 0.950 . S
H732 C728 0.950 . S
C733 C731 1.390 . S
C733 C734 1.387 . S
C733 H736 0.950 . S
C734 C733 1.387 . S
C734 C737 1.387 . S
H735 C731 0.950 . S
H736 C733 0.950 . S
C737 C728 1.390 . S
C737 H730 0.950 . S
C737 C734 1.387 . S
C738 C739 1.387 . S
C738 H742 0.950 . S
C738 C747 1.390 . S
C739 C738 1.387 . S
C739 C741 1.387 . S
H740 C747 0.950 . S
C741 C739 1.387 . S
C741 C743 1.390 . S
C741 H745 0.950 . S
H742 C738 0.950 . S
C743 C741 1.390 . S
C743 C744 1.387 . S
C743 H746 0.950 . S
C744 C743 1.387 . S
C744 C747 1.387 . S
H745 C741 0.950 . S
H746 C743 0.950 . S
C747 C738 1.390 . S
C747 H740 0.950 . S
C747 C744 1.387 . S
C748 C749 1.387 . S
C748 H752 0.950 . S
C748 C757 1.390 . S
C749 C748 1.387 . S
C749 C751 1.387 . S
H750 C757 0.950 . S
C751 C749 1.387 . S
C751 C753 1.390 . S
C751 H755 0.950 . S
H752 C748 0.950 . S
C753 C751 1.390 . S
C753 C754 1.387 . S
C753 H756 0.950 . S
C754 C753 1.387 . S
C754 C757 1.387 . S
H755 C751 0.950 . S
H756 C753 0.950 . S
C757 C748 1.390 . S
C757 H750 0.950 . S
C757 C754 1.387 . S
C758 C759 1.387 . S
C758 H762 0.950 . S
C758 C767 1.390 . S
C759 C758 1.387 . S
C759 C761 1.387 . S
H760 C767 0.950 . S
C761 C759 1.387 . S
C761 C763 1.390 . S
C761 H765 0.950 . S
H762 C758 0.950 . S
C763 C761 1.390 . S
C763 C764 1.387 . S
C763 H766 0.950 . S
C764 C763 1.387 . S
C764 C767 1.387 . S
H765 C761 0.950 . S
H766 C763 0.950 . S
C767 C758 1.390 . S
C767 H760 0.950 . S
C767 C764 1.387 . S
C768 C769 1.387 . S
C768 H772 0.950 . S
C768 C777 1.390 . S
C769 C768 1.387 . S
C769 C771 1.387 . S
H770 C777 0.950 . S
C771 C769 1.387 . S
C771 C773 1.390 . S
C771 H775 0.950 . S
H772 C768 0.950 . S
C773 C771 1.390 . S
C773 C774 1.387 . S
C773 H776 0.950 . S
C774 C773 1.387 . S
C774 C777 1.387 . S
H775 C771 0.950 . S
H776 C773 0.950 . S
C777 C768 1.390 . S
C777 H770 0.950 . S
C777 C774 1.387 . S
C778 C779 1.387 . S
C778 H782 0.950 . S
C778 C787 1.390 . S
C779 C778 1.387 . S
C779 C781 1.387 . S
H780 C787 0.950 . S
C781 C779 1.387 . S
C781 C783 1.390 . S
C781 H785 0.950 . S
H782 C778 0.950 . S
C783 C781 1.390 . S
C783 C784 1.387 . S
C783 H786 0.950 1_556 S
C784 C783 1.387 . S
C784 C787 1.387 . S
H785 C781 0.950 . S
H786 C783 0.950 1_554 S
C787 C778 1.390 . S
C787 H780 0.950 . S
C787 C784 1.387 . S
C788 C789 1.387 . S
C788 H792 0.950 . S
C788 C797 1.390 . S
C789 C788 1.387 . S
C789 C791 1.387 . S
H790 C797 0.950 . S
C791 C789 1.387 . S
C791 C793 1.390 . S
C791 H795 0.950 . S
H792 C788 0.950 . S
C793 C791 1.390 . S
C793 C794 1.387 . S
C793 H796 0.950 . S
C794 C793 1.387 . S
C794 C797 1.387 . S
H795 C791 0.950 . S
H796 C793 0.950 . S
C797 C788 1.390 . S
C797 H790 0.950 . S
C797 C794 1.387 . S
C798 C799 1.387 . S
C798 H802 0.950 . S
C798 C807 1.390 . S
C799 C798 1.387 . S
C799 C801 1.387 . S
H800 C807 0.950 . S
C801 C799 1.387 . S
C801 C803 1.390 . S
C801 H805 0.950 . S
H802 C798 0.950 . S
C803 C801 1.390 . S
C803 C804 1.387 . S
C803 H806 0.950 . S
C804 C803 1.387 . S
C804 C807 1.387 . S
H805 C801 0.950 . S
H806 C803 0.950 . S
C807 C798 1.390 . S
C807 H800 0.950 . S
C807 C804 1.387 . S
C808 C809 1.387 . S
C808 H812 0.950 . S
C808 C817 1.390 . S
C809 C808 1.387 . S
C809 C811 1.387 . S
H810 C817 0.950 . S
C811 C809 1.387 . S
C811 C813 1.390 . S
C811 H815 0.950 . S
H812 C808 0.950 . S
C813 C811 1.390 . S
C813 C814 1.387 . S
C813 H816 0.950 . S
C814 C813 1.387 . S
C814 C817 1.387 . S
H815 C811 0.950 . S
H816 C813 0.950 . S
C817 C808 1.390 . S
C817 H810 0.950 . S
C817 C814 1.387 . S
C818 C819 1.387 . S
C818 H822 0.950 1_556 S
C818 C827 1.390 . S
C819 C818 1.387 . S
C819 C821 1.387 . S
H820 C827 0.950 . S
C821 C819 1.387 . S
C821 C823 1.390 . S
C821 H825 0.950 . S
H822 C818 0.950 1_554 S
C823 C821 1.390 . S
C823 C824 1.387 . S
C823 H826 0.950 . S
C824 C823 1.387 . S
C824 C827 1.387 . S
H825 C821 0.950 . S
H826 C823 0.950 . S
C827 C818 1.390 . S
C827 H820 0.950 . S
C827 C824 1.387 . S
C828 C829 1.387 . S
C828 H832 0.950 . S
C828 C837 1.390 . S
C829 C828 1.387 . S
C829 C831 1.387 . S
H830 C837 0.950 . S
C831 C829 1.387 . S
C831 C833 1.390 . S
C831 H835 0.950 . S
H832 C828 0.950 . S
C833 C831 1.390 . S
C833 C834 1.387 . S
C833 H836 0.950 . S
C834 C833 1.387 . S
C834 C837 1.387 . S
H835 C831 0.950 . S
H836 C833 0.950 . S
C837 C828 1.390 . S
C837 H830 0.950 . S
C837 C834 1.387 . S
C838 C839 1.387 . S
C838 H842 0.950 . S
C838 C847 1.390 . S
C839 C838 1.387 . S
C839 C841 1.387 . S
H840 C847 0.950 . S
C841 C839 1.387 . S
C841 C843 1.390 . S
C841 H845 0.950 . S
H842 C838 0.950 . S
C843 C841 1.390 . S
C843 C844 1.387 . S
C843 H846 0.950 1_556 S
C844 C843 1.387 . S
C844 C847 1.387 . S
H845 C841 0.950 . S
H846 C843 0.950 1_554 S
C847 C838 1.390 . S
C847 H840 0.950 . S
C847 C844 1.387 . S
C369 C274 1.493 . S
C374 C20 1.557 . S
C379 C205 1.488 . S
C384 C42 1.587 . S
C389 C66 1.557 . S
C394 C228 1.490 . S
C399 C88 1.587 . S
C404 C251 1.488 . S
C409 C112 1.556 . S
C414 C136 1.491 . S
C419 C159 1.487 . S
C424 C134 1.587 . S
C429 C158 1.557 . S
C434 C182 1.493 . S
C439 C113 1.487 . S
C444 C180 1.587 . S
C449 C90 1.490 . S
C454 C204 1.556 . S
C459 C226 1.587 . S
C464 C21 1.488 . S
C469 C44 1.490 . S
C474 C250 1.556 . S
C479 C67 1.484 . S
C484 C272 1.588 . S
C489 C296 1.556 . S
C494 C320 1.491 . S
C499 C343 1.484 . S
C504 C318 1.588 . S
C509 C366 1.492 . S
C514 C342 1.556 . S
C519 C364 1.588 . S
C524 C297 1.484 . S
C529 C19 1.324 . S
C534 C111 1.324 . S
C539 C135 1.389 . S
C544 C43 1.389 . S
C549 C65 1.324 . S
C554 C157 1.324 . S
C559 C89 1.389 . S
C564 C181 1.389 . S
C569 C203 1.328 . S
C574 C295 1.328 . S
C579 C319 1.392 . S
C584 C227 1.392 . S
C589 C249 1.324 . S
C594 C341 1.324 . S
C599 C273 1.389 . S
C604 C365 1.389 . S
C609 C340 1.675 . S
C614 C18 1.675 1_556 S
C619 C41 1.688 1_554 S
C624 C363 1.688 . S
C629 C64 1.674 1_556 S
C634 C294 1.674 . S
C639 C87 1.688 1_554 S
C644 C317 1.688 . S
C649 C110 1.674 . S
C654 C248 1.674 . S
C659 C133 1.689 . S
C664 C271 1.689 . S
C669 C156 1.674 . S
C674 C202 1.674 . S
C679 C225 1.689 . S
C684 C179 1.689 . S
C689 C17 1.166 . S
C694 C16 1.160 . S
C699 C40 1.153 . S
C704 C39 1.147 . S
C709 C63 1.166 . S
C714 C62 1.159 . S
C719 C85 1.144 . S
C724 C86 1.150 . S
C729 C108 1.156 . S
C734 C109 1.162 . S
C739 C132 1.153 . S
C744 C131 1.147 . S
C749 C155 1.166 . S
C754 C154 1.160 . S
C759 C177 1.146 . S
C764 C178 1.152 . S
C769 C201 1.162 1_554 S
C774 C200 1.156 . S
C779 C223 1.145 . S
C784 C224 1.151 1_556 S
C789 C246 1.160 . S
C794 C247 1.166 1_554 S
C799 C270 1.154 1_556 S
C804 C269 1.147 . S
C809 C293 1.162 . S
C814 C292 1.156 1_554 S
C819 C315 1.146 1_556 S
C824 C316 1.152 . S
C829 C338 1.160 1_554 S
C834 C339 1.166 . S
C839 C362 1.150 . S
C844 C361 1.144 1_556 S
