# Generated by pormake.
# Topology wkj, (6)-cn, num edge types: 1
# Building blocks:
#     Node 0, Type 0, BuildingBlock: KUMJIN_clean_sbu_1, # of connection points: 6
#     Node 1, Type 0, BuildingBlock: KUMJIN_clean_sbu_1, # of connection points: 6
#     Node 2, Type 0, BuildingBlock: KUMJIN_clean_sbu_1, # of connection points: 6
#     Node 3, Type 0, BuildingBlock: KUMJIN_clean_sbu_1, # of connection points: 6
#     Node 4, Type 0, BuildingBlock: KUMJIN_clean_sbu_1, # of connection points: 6
#     Node 5, Type 0, BuildingBlock: KUMJIN_clean_sbu_1, # of connection points: 6
#     Node 6, Type 0, BuildingBlock: KUMJIN_clean_sbu_1, # of connection points: 6
#     Node 7, Type 0, BuildingBlock: KUMJIN_clean_sbu_1, # of connection points: 6
#     Node 8, Type 0, BuildingBlock: KUMJIN_clean_sbu_1, # of connection points: 6
#     Node 9, Type 0, BuildingBlock: KUMJIN_clean_sbu_1, # of connection points: 6
#     Node 10, Type 0, BuildingBlock: KUMJIN_clean_sbu_1, # of connection points: 6
#     Node 11, Type 0, BuildingBlock: KUMJIN_clean_sbu_1, # of connection points: 6
#     Edge 12, Type (0, 0), BuildingBlock: CIFDUS_clean_linker_0, # of connection points: 2
#     Edge 13, Type (0, 0), BuildingBlock: CIFDUS_clean_linker_0, # of connection points: 2
#     Edge 14, Type (0, 0), BuildingBlock: CIFDUS_clean_linker_0, # of connection points: 2
#     Edge 15, Type (0, 0), BuildingBlock: CIFDUS_clean_linker_0, # of connection points: 2
#     Edge 16, Type (0, 0), BuildingBlock: CIFDUS_clean_linker_0, # of connection points: 2
#     Edge 17, Type (0, 0), BuildingBlock: CIFDUS_clean_linker_0, # of connection points: 2
#     Edge 18, Type (0, 0), BuildingBlock: CIFDUS_clean_linker_0, # of connection points: 2
#     Edge 19, Type (0, 0), BuildingBlock: CIFDUS_clean_linker_0, # of connection points: 2
#     Edge 20, Type (0, 0), BuildingBlock: CIFDUS_clean_linker_0, # of connection points: 2
#     Edge 21, Type (0, 0), BuildingBlock: CIFDUS_clean_linker_0, # of connection points: 2
#     Edge 22, Type (0, 0), BuildingBlock: CIFDUS_clean_linker_0, # of connection points: 2
#     Edge 23, Type (0, 0), BuildingBlock: CIFDUS_clean_linker_0, # of connection points: 2
#     Edge 24, Type (0, 0), BuildingBlock: CIFDUS_clean_linker_0, # of connection points: 2
#     Edge 25, Type (0, 0), BuildingBlock: CIFDUS_clean_linker_0, # of connection points: 2
#     Edge 26, Type (0, 0), BuildingBlock: CIFDUS_clean_linker_0, # of connection points: 2
#     Edge 27, Type (0, 0), BuildingBlock: CIFDUS_clean_linker_0, # of connection points: 2
#     Edge 28, Type (0, 0), BuildingBlock: CIFDUS_clean_linker_0, # of connection points: 2
#     Edge 29, Type (0, 0), BuildingBlock: CIFDUS_clean_linker_0, # of connection points: 2
#     Edge 30, Type (0, 0), BuildingBlock: CIFDUS_clean_linker_0, # of connection points: 2
#     Edge 31, Type (0, 0), BuildingBlock: CIFDUS_clean_linker_0, # of connection points: 2
#     Edge 32, Type (0, 0), BuildingBlock: CIFDUS_clean_linker_0, # of connection points: 2
#     Edge 33, Type (0, 0), BuildingBlock: CIFDUS_clean_linker_0, # of connection points: 2
#     Edge 34, Type (0, 0), BuildingBlock: CIFDUS_clean_linker_0, # of connection points: 2
#     Edge 35, Type (0, 0), BuildingBlock: CIFDUS_clean_linker_0, # of connection points: 2
#     Edge 36, Type (0, 0), BuildingBlock: CIFDUS_clean_linker_0, # of connection points: 2
#     Edge 37, Type (0, 0), BuildingBlock: CIFDUS_clean_linker_0, # of connection points: 2
#     Edge 38, Type (0, 0), BuildingBlock: CIFDUS_clean_linker_0, # of connection points: 2
#     Edge 39, Type (0, 0), BuildingBlock: CIFDUS_clean_linker_0, # of connection points: 2
#     Edge 40, Type (0, 0), BuildingBlock: CIFDUS_clean_linker_0, # of connection points: 2
#     Edge 41, Type (0, 0), BuildingBlock: CIFDUS_clean_linker_0, # of connection points: 2
#     Edge 42, Type (0, 0), BuildingBlock: CIFDUS_clean_linker_0, # of connection points: 2
#     Edge 43, Type (0, 0), BuildingBlock: CIFDUS_clean_linker_0, # of connection points: 2
#     Edge 44, Type (0, 0), BuildingBlock: CIFDUS_clean_linker_0, # of connection points: 2
#     Edge 45, Type (0, 0), BuildingBlock: CIFDUS_clean_linker_0, # of connection points: 2
#     Edge 46, Type (0, 0), BuildingBlock: CIFDUS_clean_linker_0, # of connection points: 2
#     Edge 47, Type (0, 0), BuildingBlock: CIFDUS_clean_linker_0, # of connection points: 2
# Relax obj value: 0.753
# Max RMSD: 0.201
# Mean RMSD: 0.201
data_MOF--net-wkj--node1-KUMJIN_clean_sbu_1--edge1-CIFDUS_clean_linker_0
_symmetry_space_group_name_H-M    P1
_symmetry_Int_Tables_number       1
_symmetry_cell_setting            triclinic
loop_
_symmetry_equiv_pos_as_xyz
'x, y, z'
_cell_length_a     45.88427
_cell_length_b     45.617483
_cell_length_c     25.70342
_cell_angle_alpha  89.862173
_cell_angle_beta   90.03227
_cell_angle_gamma 120.21128
loop_
_atom_site_label
_atom_site_type_symbol
_atom_site_fract_x
_atom_site_fract_y
_atom_site_fract_z
_atom_type_partial_charge
Eu0 Eu 0.54357 0.12487 0.32789 0.0
C1 C 0.38638 0.01947 0.31723 0.0
N2 N 0.40889 0.05295 0.30934 0.0
C3 C 0.3788 0.05308 0.2331 0.0
C4 C 0.35948 0.0013 0.28233 0.0
C5 C 0.40489 0.07018 0.26899 0.0
C6 C 0.35616 0.01844 0.23954 0.0
C7 C 0.36626 0.96924 0.3713 0.0
C8 C 0.38986 0.00361 0.3611 0.0
C9 C 0.33955 0.95105 0.33644 0.0
C10 C 0.33631 0.96692 0.2919 0.0
Eu11 Eu 0.45233 0.07938 0.37178 0.0
N12 N 0.41516 0.02225 0.39525 0.0
C13 C 0.36975 0.95441 0.41689 0.0
C14 C 0.41733 0.00851 0.4413 0.0
C15 C 0.39539 0.97419 0.45205 0.0
H16 H 0.42212 0.09698 0.26385 0.0
H17 H 0.39803 0.96318 0.48781 0.0
H18 H 0.55638 0.0703 0.25664 0.0
H19 H 0.63357 0.23249 0.44413 0.0
H20 H 0.43586 0.02403 0.47003 0.0
H21 H 0.35237 0.92797 0.42585 0.0
H22 H 0.58003 0.19631 0.39757 0.0
H23 H 0.37608 0.06666 0.20062 0.0
H24 H 0.32079 0.92489 0.34413 0.0
H25 H 0.31539 0.95256 0.26566 0.0
H26 H 0.60031 0.05529 0.24365 0.0
H27 H 0.33585 0.00533 0.21183 0.0
H28 H 0.6789 0.21814 0.44236 0.0
N29 N 0.58493 0.10951 0.31127 0.0
C30 C 0.61471 0.12723 0.33684 0.0
C31 C 0.60469 0.07558 0.27 0.0
C32 C 0.64059 0.11941 0.33062 0.0
C33 C 0.57977 0.08424 0.27753 0.0
C34 C 0.63516 0.09308 0.29694 0.0
N35 N 0.5946 0.16137 0.37142 0.0
C36 C 0.59966 0.18983 0.3968 0.0
C37 C 0.65068 0.17392 0.39369 0.0
C38 C 0.61963 0.15391 0.36812 0.0
C39 C 0.65542 0.20213 0.42213 0.0
C40 C 0.62991 0.21034 0.42316 0.0
H41 H 0.65439 0.08626 0.29109 0.0
H42 H 0.69127 0.13268 0.35346 0.0
H43 H 0.70016 0.18055 0.40861 0.0
O44 O 0.52835 0.14195 0.2593 0.0
O45 O 0.54515 0.12724 0.42213 0.0
O46 O 0.48887 0.09568 0.44706 0.0
O47 O 0.5817 0.16208 0.27531 0.0
O48 O 0.52249 0.15869 0.35612 0.0
O49 O 0.47185 0.1264 0.31968 0.0
O50 O 0.40538 0.06913 0.40842 0.0
O51 O 0.45503 0.05461 0.29157 0.0
O52 O 0.51056 0.08072 0.26468 0.0
O53 O 0.44808 0.11989 0.41051 0.0
O54 O 0.4817 0.05871 0.40975 0.0
O55 O 0.51953 0.06945 0.34558 0.0
C56 C 0.52198 0.11373 0.4606 0.0
C57 C 0.56569 0.19899 0.23437 0.0
C58 C 0.54681 0.23378 0.18953 0.0
C59 C 0.57719 0.26306 0.20246 0.0
C60 C 0.59566 0.2286 0.24839 0.0
C61 C 0.60125 0.26044 0.23251 0.0
C62 C 0.54154 0.20195 0.20522 0.0
C63 C 0.49559 0.15672 0.33442 0.0
C64 C 0.55937 0.16465 0.24712 0.0
C65 C 0.67117 0.13843 0.35748 0.0
C66 C 0.67621 0.16566 0.38894 0.0
C67 C 0.47769 0.05761 0.2559 0.0
C68 C 0.41433 0.09941 0.48665 0.0
C69 C 0.38986 0.06804 0.56744 0.0
C70 C 0.41104 0.09754 0.59591 0.0
C71 C 0.43498 0.12869 0.51581 0.0
C72 C 0.39121 0.06955 0.51284 0.0
C73 C 0.43316 0.12771 0.57012 0.0
C74 C 0.50772 0.05773 0.39194 0.0
C75 C 0.41835 0.09897 0.42955 0.0
H76 H 0.5822 0.28778 0.18947 0.0
H77 H 0.61485 0.2272 0.27097 0.0
H78 H 0.6245 0.28312 0.24298 0.0
H79 H 0.51889 0.17909 0.19297 0.0
H80 H 0.41104 0.0972 0.63804 0.0
H81 H 0.45294 0.15213 0.49674 0.0
H82 H 0.37451 0.04713 0.4906 0.0
H83 H 0.44946 0.15026 0.59235 0.0
Eu84 Eu 0.40603 0.54259 0.68635 0.0
C85 C 0.33277 0.38258 0.66398 0.0
N86 N 0.32566 0.40806 0.65907 0.0
C87 C 0.29661 0.3842 0.57889 0.0
C88 C 0.32285 0.35742 0.62533 0.0
C89 C 0.30702 0.40867 0.61803 0.0
C90 C 0.30482 0.35865 0.58228 0.0
C91 C 0.35738 0.35535 0.71426 0.0
C92 C 0.3501 0.38176 0.7078 0.0
C93 C 0.34832 0.33079 0.67521 0.0
C94 C 0.33112 0.33183 0.63086 0.0
Eu95 Eu 0.34617 0.44942 0.72587 0.0
N96 N 0.3586 0.40588 0.74503 0.0
C97 C 0.37289 0.35395 0.76032 0.0
C98 C 0.37219 0.40354 0.791 0.0
C99 C 0.37996 0.37793 0.79913 0.0
H100 H 0.30068 0.42834 0.61465 0.0
H101 H 0.39101 0.37648 0.83557 0.0
H102 H 0.47097 0.53946 0.63006 0.0
H103 H 0.40745 0.6422 0.80553 0.0
H104 H 0.37618 0.42089 0.82215 0.0
H105 H 0.37861 0.33391 0.76688 0.0
H106 H 0.38173 0.58806 0.75691 0.0
H107 H 0.28234 0.38512 0.54601 0.0
H108 H 0.35405 0.31057 0.67931 0.0
H109 H 0.32397 0.31247 0.60134 0.0
H110 H 0.5328 0.5733 0.6268 0.0
H111 H 0.29681 0.33982 0.55175 0.0
H112 H 0.46954 0.67892 0.80828 0.0
N113 N 0.46571 0.57432 0.67853 0.0
C114 C 0.48189 0.60448 0.70402 0.0
C115 C 0.51881 0.58244 0.64852 0.0
C116 C 0.51737 0.62469 0.70316 0.0
C117 C 0.4836 0.56328 0.6505 0.0
C118 C 0.53581 0.61327 0.67496 0.0
N119 N 0.42884 0.5938 0.73414 0.0
C120 C 0.40887 0.60394 0.75833 0.0
C121 C 0.47862 0.64546 0.76003 0.0
C122 C 0.46285 0.61445 0.73286 0.0
C123 C 0.45839 0.65525 0.78699 0.0
C124 C 0.42333 0.63455 0.78566 0.0
H125 H 0.5631 0.62797 0.67343 0.0
H126 H 0.5605 0.67115 0.73081 0.0
H127 H 0.52654 0.68958 0.78003 0.0
O128 O 0.37471 0.54188 0.62143 0.0
O129 O 0.40244 0.54308 0.77897 0.0
O130 O 0.36936 0.48623 0.80313 0.0
O131 O 0.42371 0.58643 0.63511 0.0
O132 O 0.35087 0.52766 0.70933 0.0
O133 O 0.32932 0.47717 0.67117 0.0
O134 O 0.30294 0.40319 0.75531 0.0
O135 O 0.37522 0.45112 0.64728 0.0
O136 O 0.41018 0.50651 0.62023 0.0
O137 O 0.30447 0.45068 0.76623 0.0
O138 O 0.39355 0.47053 0.76787 0.0
O139 O 0.42619 0.50794 0.7059 0.0
C140 C 0.38907 0.51969 0.81694 0.0
C141 C 0.37876 0.5956 0.61274 0.0
C142 C 0.33432 0.60579 0.58192 0.0
C143 C 0.34778 0.6355 0.61163 0.0
C144 C 0.39237 0.62585 0.64166 0.0
C145 C 0.37654 0.64524 0.64184 0.0
C146 C 0.34958 0.58568 0.58356 0.0
C147 C 0.32447 0.50149 0.68784 0.0
C148 C 0.39457 0.57421 0.61208 0.0
C149 C 0.53328 0.65533 0.73093 0.0
C150 C 0.51394 0.66576 0.75911 0.0
C151 C 0.39711 0.47282 0.61188 0.0
C152 C 0.28434 0.41147 0.83632 0.0
C153 C 0.29878 0.39282 0.91665 0.0
C154 C 0.27645 0.39949 0.94436 0.0
C155 C 0.26243 0.41853 0.86451 0.0
C156 C 0.30193 0.39823 0.86284 0.0
C157 C 0.25836 0.4123 0.91825 0.0
C158 C 0.42279 0.49394 0.75177 0.0
C159 C 0.29011 0.41889 0.77996 0.0
H160 H 0.33682 0.65169 0.60987 0.0
H161 H 0.41543 0.63486 0.66357 0.0
H162 H 0.38724 0.66847 0.66416 0.0
H163 H 0.33989 0.56316 0.55953 0.0
H164 H 0.27345 0.39534 0.986 0.0
H165 H 0.24863 0.42888 0.84507 0.0
H166 H 0.31808 0.39169 0.84166 0.0
H167 H 0.24138 0.41775 0.93981 0.0
Eu168 Eu 0.85032 0.42036 1.00354 0.0
C169 C 0.95937 0.36216 1.02932 0.0
N170 N 0.92837 0.34995 1.00825 0.0
C171 C 0.94202 0.32288 0.94035 0.0
C172 C 0.98363 0.3563 1.00533 0.0
C173 C 0.91882 0.32923 0.96577 0.0
C174 C 0.97479 0.337 0.9597 0.0
C175 C -0.00272 0.38934 1.1016 0.0
C176 C 0.96603 0.37858 1.07667 0.0
C177 C 0.02222 0.38528 1.07657 0.0
C178 C 0.0154 0.36878 1.0285 0.0
Eu179 Eu 0.89058 0.36308 1.04989 0.0
N180 N 0.94145 0.38248 1.09952 0.0
C181 C 0.00233 0.40317 0.15144 0.0
C182 C 0.94569 0.39386 0.14986 0.0
C183 C 0.97612 0.40467 0.17611 0.0
H184 H 0.89346 0.31837 0.95075 0.0
H185 H 0.97926 0.41405 0.21555 0.0
H186 H 0.89321 0.50452 1.03001 0.0
H187 H 0.74971 0.32107 1.1267 0.0
H188 H 0.92586 0.3943 0.1713 0.0
H189 H 0.02594 0.41178 0.17179 0.0
H190 H 0.7997 0.34424 1.07195 0.0
H191 H 0.93464 0.3072 0.90585 0.0
H192 H 0.04653 0.39397 1.09474 0.0
H193 H 0.03446 0.36483 1.01039 0.0
H194 H 0.88254 0.54585 1.07594 0.0
H195 H -0.00727 0.33199 0.94007 0.0
H196 H 0.72905 0.35815 0.15944 0.0
N197 N 0.84659 0.46187 1.05335 0.0
C198 C 0.81773 0.45037 1.0816 0.0
C199 C 0.86428 0.5191 1.07778 0.0
C200 C 0.81075 0.47324 1.10795 0.0
C201 C 0.87029 0.4956 1.05229 0.0
C202 C 0.83421 0.50796 1.10503 0.0
N203 N 0.80666 0.39416 1.06785 0.0
C204 C 0.79079 0.36091 1.08339 0.0
C205 C 0.76868 0.40314 1.12193 0.0
C206 C 0.79689 0.41548 1.08849 0.0
C207 C 0.75081 0.36856 0.13393 0.0
C208 C 0.76242 0.34757 1.1156 0.0
H209 H 0.82973 0.5263 1.12473 0.0
H210 H 0.77523 0.47805 0.15758 0.0
H211 H 0.73837 0.41668 0.16978 0.0
O212 O 0.81019 0.40735 0.94719 0.0
O213 O 0.86088 0.426 1.09766 0.0
O214 O 0.88354 0.39212 1.12289 0.0
O215 O 0.84572 0.45987 0.96133 0.0
O216 O 0.81751 0.36207 0.98697 0.0
O217 O 0.84885 0.33475 0.98986 0.0
O218 O 0.87897 0.31248 1.07396 0.0
O219 O 0.9083 0.38314 0.96191 0.0
O220 O 0.88733 0.41837 0.93413 0.0
O221 O 0.8438 0.32942 1.09153 0.0
O222 O 0.88867 0.40736 1.03386 0.0
O223 O 0.90589 0.45768 1.00654 0.0
C224 C 0.87221 0.41356 0.13563 0.0
C225 C 0.78778 0.44386 0.95179 0.0
C226 C 0.72688 0.42167 0.94486 0.0
C227 C 0.73083 0.45071 0.96997 0.0
C228 C 0.79135 0.47301 0.97624 0.0
C229 C 0.76293 0.47607 0.98603 0.0
C230 C 0.75562 0.41859 0.93661 0.0
C231 C 0.82012 0.33437 0.98162 0.0
C232 C 0.81658 0.4384 0.94192 0.0
C233 C 0.78129 0.46081 0.13788 0.0
C234 C 0.76026 0.42584 0.14474 0.0
C235 C 0.90673 0.40377 0.92486 0.0
C236 C 0.85326 0.29867 0.15654 0.0
C237 C 0.88507 0.30759 0.23743 0.0
C238 C 0.85434 0.28694 0.26353 0.0
C239 C 0.82307 0.27859 0.18346 0.0
C240 C 0.88405 0.3126 0.18357 0.0
C241 C 0.82369 0.27254 0.23664 0.0
C242 C 0.91395 0.4378 1.02904 0.0
C243 C 0.85273 0.30697 1.10118 0.0
H244 H 0.7094 0.45425 0.97543 0.0
H245 H 0.81592 0.49338 0.98776 0.0
H246 H 0.76592 0.49859 1.00497 0.0
H247 H 0.75349 0.39704 0.91572 0.0
H248 H 0.85387 0.28161 0.30467 0.0
H249 H 0.79908 0.26782 0.16343 0.0
H250 H 0.90718 0.32791 0.16254 0.0
H251 H 0.80029 0.25685 0.25727 0.0
Eu252 Eu 0.43777 0.87356 0.32058 0.0
C253 C 0.55038 0.83682 0.31478 0.0
N254 N 0.53667 0.83954 0.35989 0.0
C255 C 0.53125 0.78715 0.39008 0.0
C256 C 0.55263 0.80772 0.30377 0.0
C257 C 0.52932 0.81639 0.39894 0.0
C258 C 0.54178 0.7822 0.34155 0.0
C259 C 0.58592 0.86541 0.24057 0.0
C260 C 0.56678 0.86525 0.28363 0.0
C261 C 0.58478 0.83521 0.22579 0.0
C262 C 0.5681 0.80631 0.25744 0.0
Eu263 Eu 0.53164 0.88875 0.36953 0.0
N264 N 0.56853 0.89423 0.30049 0.0
C265 C 0.60784 0.89647 0.21662 0.0
C266 C 0.59342 0.92487 0.28225 0.0
C267 C 0.61248 0.92648 0.23873 0.0
H268 H 0.52063 0.81995 0.43624 0.0
H269 H 0.6309 0.9508 0.22263 0.0
H270 H 0.39472 0.8905 0.41003 0.0
H271 H 0.38589 0.75342 0.21313 0.0
H272 H 0.59745 0.94806 0.30016 0.0
H273 H 0.62304 0.89775 0.18349 0.0
H274 H 0.41912 0.81567 0.22405 0.0
H275 H 0.52419 0.76826 0.42041 0.0
H276 H 0.59866 0.83462 0.1921 0.0
H277 H 0.5693 0.78385 0.2476 0.0
H278 H 0.34956 0.85972 0.47503 0.0
H279 H 0.5432 0.75951 0.33474 0.0
H280 H 0.34979 0.71721 0.28499 0.0
N281 N 0.39356 0.84601 0.38235 0.0
C282 C 0.37614 0.8116 0.38144 0.0
C283 C 0.3571 0.84586 0.44952 0.0
C284 C 0.35005 0.79291 0.41758 0.0
C285 C 0.3826 0.86317 0.41276 0.0
C286 C 0.3414 0.81058 0.45297 0.0
N287 N 0.40361 0.8144 0.30254 0.0
C288 C 0.40339 0.8 0.25567 0.0
C289 C 0.36156 0.7597 0.33543 0.0
C290 C 0.38157 0.79526 0.34047 0.0
C291 C 0.36446 0.74446 0.29007 0.0
C292 C 0.3847 0.76481 0.24936 0.0
H293 H 0.32143 0.79716 0.48119 0.0
H294 H 0.31231 0.74253 0.44308 0.0
H295 H 0.32268 0.71336 0.37135 0.0
O296 O 0.40588 0.86556 0.25257 0.0
O297 O 0.44421 0.87381 0.41447 0.0
O298 O 0.49589 0.88096 0.44487 0.0
O299 O 0.41003 0.90073 0.31115 0.0
O300 O 0.46227 0.84038 0.29821 0.0
O301 O 0.48538 0.83637 0.37394 0.0
O302 O 0.56784 0.93643 0.40744 0.0
O303 O 0.53362 0.91887 0.28766 0.0
O304 O 0.4804 0.90765 0.25652 0.0
O305 O 0.56694 0.89068 0.42826 0.0
O306 O 0.49508 0.90165 0.35116 0.0
O307 O 0.46704 0.92674 0.3529 0.0
C308 C 0.46463 0.87652 0.45469 0.0
C309 C 0.3553 0.86365 0.27837 0.0
C310 C 0.30044 0.81476 0.2571 0.0
C311 C 0.28489 0.82489 0.29395 0.0
C312 C 0.33942 0.87341 0.3157 0.0
C313 C 0.30448 0.85408 0.32346 0.0
C314 C 0.33543 0.8343 0.2492 0.0
C315 C 0.46808 0.82161 0.33184 0.0
C316 C 0.39252 0.88232 0.27215 0.0
C317 C 0.332 0.75733 0.41508 0.0
C318 C 0.33788 0.74073 0.37418 0.0
C319 C 0.51445 0.92366 0.25086 0.0
C320 C 0.5744 0.92832 0.49615 0.0
C321 C 0.5866 0.96829 0.56673 0.0
C322 C 0.56605 0.94106 0.60004 0.0
C323 C 0.55388 0.90142 0.53004 0.0
C324 C 0.59077 0.9617 0.51478 0.0
C325 C 0.54984 0.90787 0.58169 0.0
C326 C 0.49524 0.92895 0.36336 0.0
C327 C 0.57748 0.9219 0.44092 0.0
H328 H 0.25786 0.81032 0.29983 0.0
H329 H 0.35409 0.89563 0.33947 0.0
H330 H 0.29257 0.86172 0.35251 0.0
H331 H 0.34715 0.82646 0.21993 0.0
H332 H 0.56276 0.94542 0.64048 0.0
H333 H 0.54065 0.87539 0.51664 0.0
H334 H 0.60609 0.98253 0.48856 0.0
H335 H 0.53402 0.88709 0.60754 0.0
Eu336 Eu 0.56508 0.45389 0.68519 0.0
C337 C 0.65504 0.60919 0.66243 0.0
N338 N 0.65625 0.5799 0.6597 0.0
C339 C 0.68665 0.59861 0.57893 0.0
C340 C 0.66908 0.6339 0.62265 0.0
C341 C 0.67226 0.57468 0.6189 0.0
C342 C 0.68497 0.62825 0.58067 0.0
C343 C 0.63679 0.64388 0.70787 0.0
C344 C 0.63877 0.61405 0.70442 0.0
C345 C 0.65035 0.66818 0.66796 0.0
C346 C 0.66648 0.66323 0.62554 0.0
Eu347 Eu 0.6304 0.54124 0.73048 0.0
N348 N 0.62593 0.59022 0.7428 0.0
C349 C 0.62172 0.64873 0.75181 0.0
C350 C 0.61287 0.59573 0.78688 0.0
C351 C 0.61008 0.62473 0.79175 0.0
H352 H 0.67364 0.55196 0.61586 0.0
H353 H 0.59915 0.62866 0.82639 0.0
H354 H 0.48394 0.41702 0.72616 0.0
H355 H 0.66152 0.43758 0.78884 0.0
H356 H 0.60484 0.57773 0.81859 0.0
H357 H 0.61962 0.67124 0.75578 0.0
H358 H 0.63854 0.47103 0.75189 0.0
H359 H 0.69892 0.59405 0.54656 0.0
H360 H 0.64882 0.6911 0.66982 0.0
H361 H 0.67693 0.6823 0.59515 0.0
H362 H 0.44171 0.36237 0.76554 0.0
H363 H 0.69597 0.64658 0.54936 0.0
H364 H 0.62402 0.37594 0.80415 0.0
N365 N 0.52392 0.40638 0.73203 0.0
C366 C 0.53391 0.38445 0.74857 0.0
C367 C 0.46748 0.36821 0.76077 0.0
C368 C 0.51052 0.35279 0.77032 0.0
C369 C 0.49148 0.3992 0.73898 0.0
C370 C 0.47684 0.34455 0.77531 0.0
N371 N 0.59027 0.42857 0.73589 0.0
C372 C 0.62274 0.44403 0.75333 0.0
C373 C 0.57981 0.37575 0.77443 0.0
C374 C 0.5683 0.39583 0.75014 0.0
C375 C 0.61422 0.39044 0.78522 0.0
C376 C 0.6355 0.42509 0.77649 0.0
H377 H 0.45814 0.32053 0.79205 0.0
H378 H 0.50413 0.30657 0.80499 0.0
H379 H 0.56487 0.32675 0.80887 0.0
O380 O 0.55857 0.41616 0.62724 0.0
O381 O 0.56135 0.45165 0.77724 0.0
O382 O 0.60301 0.50371 0.80736 0.0
O383 O 0.51771 0.42532 0.64184 0.0
O384 O 0.61726 0.46787 0.64923 0.0
O385 O 0.65692 0.51659 0.69026 0.0
O386 O 0.6692 0.58652 0.76973 0.0
O387 O 0.60326 0.54478 0.65068 0.0
O388 O 0.56515 0.49169 0.62047 0.0
O389 O 0.6698 0.53982 0.77719 0.0
O390 O 0.58267 0.52411 0.76852 0.0
O391 O 0.54274 0.48575 0.71217 0.0
C392 C 0.57797 0.47116 0.81799 0.0
C393 C 0.50318 0.36807 0.62671 0.0
C394 C 0.49437 0.31047 0.63033 0.0
C395 C 0.46012 0.29781 0.64146 0.0
C396 C 0.46852 0.35469 0.63568 0.0
C397 C 0.44736 0.31989 0.64424 0.0
C398 C 0.51571 0.34573 0.62412 0.0
C399 C 0.6492 0.49087 0.65908 0.0
C400 C 0.52655 0.40515 0.62058 0.0
C401 C 0.5218 0.33131 0.78916 0.0
C402 C 0.55642 0.34277 0.79119 0.0
C403 C 0.58058 0.52535 0.6139 0.0
C404 C 0.68056 0.5734 0.85363 0.0
C405 C 0.66744 0.59567 0.9316 0.0
C406 C 0.676 0.57574 0.96265 0.0
C407 C 0.68893 0.55374 0.88561 0.0
C408 C 0.67036 0.59477 0.87722 0.0
C409 C 0.68676 0.55504 0.93973 0.0
C410 C 0.55205 0.50644 0.75217 0.0
C411 C 0.68062 0.57017 0.79606 0.0
H412 H 0.44302 0.27076 0.64539 0.0
H413 H 0.45788 0.37115 0.63707 0.0
H414 H 0.42081 0.30992 0.65184 0.0
H415 H 0.54199 0.35577 0.61408 0.0
H416 H 0.6739 0.57581 1.00462 0.0
H417 H 0.6968 0.53707 0.86874 0.0
H418 H 0.66477 0.61094 0.85352 0.0
H419 H 0.69307 0.53961 0.96402 0.0
Eu420 Eu 0.12897 0.57328 0.99698 0.0
C421 C 0.02275 0.62373 0.99801 0.0
N422 N 0.05594 0.63624 0.98725 0.0
C423 C 0.05169 0.66487 0.91185 0.0
C424 C 0.00236 0.63044 0.96473 0.0
C425 C 0.07096 0.65765 0.94609 0.0
C426 C 0.01716 0.65088 0.92084 0.0
C427 C 0.97543 0.5927 1.05655 0.0
C428 C 0.00948 0.605 1.04329 0.0
C429 C 0.95476 0.59846 1.02267 0.0
C430 C 0.96816 0.6172 0.97685 0.0
Eu431 Eu 0.08597 0.62083 1.04516 0.0
N432 N 0.03027 0.60035 1.07563 0.0
C433 C 0.96343 0.57575 1.10407 0.0
C434 C 0.0191 0.58536 1.12316 0.0
C435 C 0.98545 0.57235 0.1377 0.0
H436 H 0.09761 0.66842 0.93897 0.0
H437 H 0.97659 0.55996 0.175 0.0
H438 H 0.07529 0.50619 0.92552 0.0
H439 H 0.23349 0.58852 1.1184 0.0
H440 H 0.03618 0.58349 0.1501 0.0
H441 H 0.9375 0.56599 1.11584 0.0
H442 H 0.20074 0.60763 1.06619 0.0
H443 H 0.06346 0.68121 0.87857 0.0
H444 H 0.92858 0.58925 1.03201 0.0
H445 H 0.95203 0.62191 0.95161 0.0
H446 H 0.05702 0.44541 0.91764 0.0
H447 H 0.00231 0.65658 0.89428 0.0
H448 H 0.2143 0.52729 1.12494 0.0
N449 N 0.11098 0.51536 0.98521 0.0
C450 C 0.12631 0.50236 1.01485 0.0
C451 C 0.07646 0.46113 0.94527 0.0
C452 C 0.11655 0.46775 1.01188 0.0
C453 C 0.08686 0.49559 0.94983 0.0
C454 C 0.09102 0.44704 0.97694 0.0
N455 N 0.1629 0.55764 1.04549 0.0
C456 C 0.19222 0.58087 1.06907 0.0
C457 C 0.17101 0.51211 1.07498 0.0
C458 C 0.15305 0.52418 1.0461 0.0
C459 C 0.1998 0.53553 1.10229 0.0
C460 C 0.21075 0.57013 1.09862 0.0
H461 H 0.08294 0.42037 0.97327 0.0
H462 H 0.1258 0.42861 1.04139 0.0
H463 H 0.17362 0.46752 1.09655 0.0
O464 O 0.15349 0.60644 0.92993 0.0
O465 O 0.1319 0.57457 1.091 0.0
O466 O 0.10216 0.60012 1.12099 0.0
O467 O 0.16021 0.56324 0.94457 0.0
O468 O 0.16413 0.62896 1.02148 0.0
O469 O 0.13094 0.64741 0.98887 0.0
O470 O 0.07977 0.66146 1.07685 0.0
O471 O 0.05957 0.59327 0.96519 0.0
O472 O 0.08508 0.56419 0.93425 0.0
O473 O 0.12791 0.6642 1.08487 0.0
O474 O 0.06543 0.57046 1.08251 0.0
O475 O 0.07404 0.54397 1.01552 0.0
C476 C 0.11988 0.58425 0.13158 0.0
C477 C 0.20698 0.61297 0.90966 0.0
C478 C 0.25276 0.65922 0.86103 0.0
C479 C 0.27625 0.65348 0.88711 0.0
C480 C 0.23085 0.60799 0.93663 0.0
C481 C 0.26529 0.62828 0.92544 0.0
C482 C 0.21823 0.63878 0.87242 0.0
C483 C 0.16158 0.65393 1.00065 0.0
C484 C 0.17029 0.59118 0.9182 0.0
C485 C 0.13319 0.45521 1.04268 0.0
C486 C 0.16039 0.47735 1.07415 0.0
C487 C 0.0618 0.57395 0.9278 0.0
C488 C 0.1089 0.68347 0.15558 0.0
C489 C 0.07775 0.6736 0.23691 0.0
C490 C 0.10781 0.69654 0.2622 0.0
C491 C 0.13884 0.70606 0.1814 0.0
C492 C 0.07857 0.66734 0.18376 0.0
C493 C 0.13824 0.71253 0.23451 0.0
C494 C 0.06406 0.54351 1.06328 0.0
C495 C 0.10908 0.67659 1.09952 0.0
H496 H 0.30287 0.66856 0.87809 0.0
H497 H 0.223 0.58827 0.96579 0.0
H498 H 0.28348 0.62412 0.94604 0.0
H499 H 0.19985 0.64234 0.85098 0.0
H500 H 0.10777 0.70187 0.30324 0.0
H501 H 0.16258 0.71874 0.16051 0.0
H502 H 0.05516 0.65034 0.1642 0.0
H503 H 0.1614 0.73005 0.25422 0.0
Eu504 Eu 0.86336 0.45045 0.57822 0.0
C505 C 0.96319 0.61062 0.59858 0.0
N506 N 0.9312 0.587 0.61222 0.0
C507 C 0.93801 0.61398 0.69481 0.0
C508 C 0.98438 0.63634 0.63355 0.0
C509 C 0.91784 0.58912 0.65858 0.0
C510 C 0.97157 0.6374 0.68254 0.0
C511 C 0.00622 0.63557 0.53171 0.0
C512 C 0.97403 0.61008 0.54843 0.0
C513 C 0.02801 0.66038 0.56709 0.0
C514 C 0.01717 0.6607 0.61797 0.0
Eu515 Eu 0.90005 0.54427 0.55031 0.0
N516 N 0.95219 0.58609 0.51494 0.0
C517 C 0.01508 0.63604 0.47946 0.0
C518 C 0.95996 0.58756 0.46339 0.0
C519 C -0.00828 0.61209 0.44508 0.0
H520 H 0.89196 0.57085 0.66814 0.0
H521 H -0.0019 0.61267 0.40446 0.0
H522 H 0.92568 0.44384 0.6372 0.0
H523 H 0.76349 0.36028 0.45025 0.0
H524 H 0.94155 0.56975 0.43631 0.0
H525 H 0.03946 0.65536 0.46496 0.0
H526 H 0.79384 0.41161 0.50506 0.0
H527 H 0.92769 0.61507 0.73212 0.0
H528 H 0.05294 0.67998 0.55502 0.0
H529 H 0.03397 0.68048 0.64445 0.0
H530 H 0.9478 0.40466 0.64008 0.0
H531 H -0.01293 0.65673 0.71058 0.0
H532 H 0.78518 0.32059 0.44223 0.0
N533 N 0.88677 0.41439 0.58319 0.0
C534 C 0.87169 0.38563 0.55412 0.0
C535 C 0.92645 0.39912 0.61561 0.0
C536 C 0.88383 0.36271 0.55409 0.0
C537 C 0.91371 0.42126 0.61397 0.0
C538 C 0.91142 0.36972 0.5856 0.0
N539 N 0.83293 0.40167 0.52549 0.0
C540 C 0.80352 0.39445 0.50127 0.0
C541 C 0.82759 0.34958 0.49355 0.0
C542 C 0.84419 0.3793 0.52383 0.0
C543 C 0.79863 0.34312 0.46598 0.0
C544 C 0.78631 0.36546 0.4704 0.0
H545 H 0.92109 0.35248 0.58742 0.0
H546 H 0.87714 0.31577 0.52216 0.0
H547 H 0.8277 0.30415 0.46933 0.0
O548 O 0.84145 0.45187 0.65341 0.0
O549 O 0.85973 0.45488 0.48598 0.0
O550 O 0.88502 0.5126 0.46829 0.0
O551 O 0.82519 0.40384 0.61424 0.0
O552 O 0.82661 0.47047 0.56198 0.0
O553 O 0.85729 0.51684 0.60909 0.0
O554 O 0.89948 0.59083 0.53336 0.0
O555 O 0.92888 0.53932 0.62471 0.0
O556 O 0.90561 0.48243 0.64484 0.0
O557 O 0.85505 0.54272 0.51793 0.0
O558 O 0.92446 0.52253 0.5037 0.0
O559 O 0.91829 0.48024 0.5576 0.0
C560 C 0.87001 0.47994 0.45073 0.0
C561 C 0.81537 0.40089 0.70363 0.0
C562 C 0.77398 0.36552 0.76898 0.0
C563 C 0.80031 0.36614 0.79837 0.0
C564 C 0.84129 0.40137 0.733 0.0
C565 C 0.8336 0.38356 0.78004 0.0
C566 C 0.78194 0.38194 0.7205 0.0
C567 C 0.82722 0.49387 0.59262 0.0
C568 C 0.82151 0.41892 0.65433 0.0
C569 C 0.86802 0.33354 0.52288 0.0
C570 C 0.83995 0.32699 0.49267 0.0
C571 C 0.92777 0.51538 0.65657 0.0
C572 C 0.87 0.58578 0.45549 0.0
C573 C 0.90148 0.61167 0.37599 0.0
C574 C 0.8715 0.59516 0.34723 0.0
C575 C 0.83997 0.57002 0.42654 0.0
C576 C 0.90041 0.6079 0.43005 0.0
C577 C 0.84074 0.57508 0.37271 0.0
C578 C 0.92902 0.49729 0.51401 0.0
C579 C 0.87048 0.57531 0.50975 0.0
H580 H 0.79567 0.35463 0.8366 0.0
H581 H 0.86721 0.41545 0.71969 0.0
H582 H 0.85359 0.38411 0.80318 0.0
H583 H 0.7622 0.3811 0.69623 0.0
H584 H 0.87199 0.59748 0.30524 0.0
H585 H 0.81619 0.55284 0.44522 0.0
H586 H 0.92385 0.62049 0.4516 0.0
H587 H 0.81761 0.56235 0.35045 0.0
Eu588 Eu 0.42071 0.87008 0.90685 0.0
C589 C 0.34363 0.95341 0.91514 0.0
N590 N 0.3393 0.92268 0.92882 0.0
C591 C 0.31321 0.924 1.00893 0.0
C592 C 0.33367 0.97114 0.94882 0.0
C593 C 0.32306 0.90716 0.97396 0.0
C594 C 0.31889 0.9563 0.99659 0.0
C595 C 0.35925 -0.00292 0.84943 0.0
C596 C 0.35633 0.96622 0.86612 0.0
C597 C 0.3502 0.01527 0.88337 0.0
C598 C 0.33766 0.00246 0.93306 0.0
Eu599 Eu 0.3578 0.89651 0.86833 0.0
N600 N 0.36367 0.94741 0.83355 0.0
C601 C 0.37005 0.00816 0.7985 0.0
C602 C 0.37243 0.95722 0.783 0.0
C603 C 0.37631 0.98792 0.76498 0.0
H604 H 0.31853 0.88216 0.98361 0.0
H605 H 0.38384 -0.00419 0.72513 0.0
H606 H 0.48775 0.9409 0.95535 0.0
H607 H 0.41703 0.76481 0.80148 0.0
H608 H 0.37618 0.94115 0.75624 0.0
H609 H 0.37272 0.03177 0.78426 0.0
H610 H 0.39351 0.79624 0.84649 0.0
H611 H 0.30112 0.912 1.04525 0.0
H612 H 0.35196 0.03884 0.87107 0.0
H613 H 0.33021 0.01649 0.95842 0.0
H614 H 0.54957 0.96809 0.95665 0.0
H615 H 0.31095 0.96916 1.02356 0.0
H616 H 0.47888 0.78998 0.79433 0.0
N617 N 0.48051 0.89859 0.91027 0.0
C618 C 0.49558 0.8833 0.88586 0.0
C619 C 0.53465 0.94418 0.93677 0.0
C620 C 0.53094 0.89788 0.88616 0.0
C621 C 0.49947 0.9286 0.93582 0.0
C622 C 0.55047 0.92873 0.91196 0.0
N623 N 0.44153 0.83908 0.86257 0.0
C624 C 0.42052 0.80748 0.84301 0.0
C625 C 0.49003 0.83565 0.83609 0.0
C626 C 0.47547 0.85275 0.86088 0.0
C627 C 0.46868 0.80392 0.81374 0.0
C628 C 0.43375 0.78962 0.8177 0.0
H629 H 0.57772 0.94089 0.91276 0.0
H630 H 0.57282 0.89235 0.85993 0.0
H631 H 0.53695 0.83772 0.81634 0.0
O632 O 0.393 0.84722 0.9788 0.0
O633 O 0.41467 0.86292 0.81528 0.0
O634 O 0.38124 0.88518 0.78881 0.0
O635 O 0.43695 0.84326 0.95901 0.0
O636 O 0.3659 0.82787 0.88793 0.0
O637 O 0.34107 0.85323 0.92713 0.0
O638 O 0.30947 0.89038 0.84449 0.0
O639 O 0.38779 0.92707 0.94616 0.0
O640 O 0.4274 0.91214 0.96852 0.0
O641 O 0.31849 0.84873 0.83425 0.0
O642 O 0.4042 0.92476 0.82348 0.0
O643 O 0.44099 0.9248 0.88275 0.0
C644 C 0.40123 0.87183 0.77617 0.0
C645 C 0.39066 0.79531 0.99884 0.0
C646 C 0.34369 0.74793 1.04392 0.0
C647 C 0.35123 0.72522 1.01912 0.0
C648 C 0.39785 0.77223 0.97391 0.0
C649 C 0.37812 0.7374 0.98396 0.0
C650 C 0.36368 0.78289 1.03383 0.0
C651 C 0.33961 0.82482 0.91371 0.0
C652 C 0.41035 0.83223 0.98862 0.0
C653 C 0.54568 0.8814 0.86044 0.0
C654 C 0.52526 0.85036 0.83545 0.0
C655 C 0.41218 0.93005 0.97906 0.0
C656 C 0.28619 0.85624 0.77005 0.0
C657 C 0.28776 0.88126 0.68531 0.0
C658 C 0.26787 0.84857 0.66454 0.0
C659 C 0.26618 0.82377 0.74899 0.0
C660 C 0.2962 0.88467 0.7382 0.0
C661 C 0.25686 0.82 0.6965 0.0
C662 C 0.43466 0.93446 0.83801 0.0
C663 C 0.29856 0.86058 0.824 0.0
H664 H 0.33638 0.69825 1.02693 0.0
H665 H 0.41861 0.78095 0.94674 0.0
H666 H 0.38382 0.71982 0.96464 0.0
H667 H 0.3585 0.80067 1.05393 0.0
H668 H 0.26098 0.84513 0.62378 0.0
H669 H 0.25829 0.80148 0.77295 0.0
H670 H 0.31174 0.90967 0.75418 0.0
H671 H 0.24159 0.79488 0.68029 0.0
Eu672 Eu 0.53066 0.41628 0.26677 0.0
C673 C 0.37115 0.33196 0.27721 0.0
N674 N 0.39876 0.32963 0.28941 0.0
C675 C 0.37312 0.30198 0.36993 0.0
C676 C 0.34369 0.3201 0.31191 0.0
C677 C 0.39949 0.31353 0.33393 0.0
C678 C 0.34528 0.30565 0.35919 0.0
C679 C 0.33997 0.34419 0.21289 0.0
C680 C 0.36952 0.34431 0.22851 0.0
C681 C 0.31316 0.33376 0.24816 0.0
C682 C 0.31508 0.3219 0.29764 0.0
Eu683 Eu 0.44252 0.35092 0.22676 0.0
N684 N 0.39571 0.35393 0.195 0.0
C685 C 0.33776 0.35339 0.16168 0.0
C686 C 0.39327 0.36194 0.14453 0.0
C687 C 0.36443 0.36205 1.12727 0.0
H688 H 0.42089 0.31053 0.34244 0.0
H689 H 0.36281 0.3689 1.08753 0.0
H690 H 0.52726 0.48407 0.31314 0.0
H691 H 0.63297 0.41288 0.16426 0.0
H692 H 0.41337 0.36768 1.1172 0.0
H693 H 0.3154 0.35338 0.14809 0.0
H694 H 0.57746 0.3892 0.20684 0.0
H695 H 0.37421 0.29011 0.40582 0.0
H696 H 0.29046 0.33393 0.23705 0.0
H697 H 0.29384 0.31315 0.32396 0.0
H698 H 0.56337 0.54612 0.31676 0.0
H699 H 0.32474 0.29636 0.38694 0.0
H700 H 0.67113 0.47504 0.1601 0.0
N701 N 0.56314 0.47649 0.27159 0.0
C702 C 0.59415 0.49164 0.24908 0.0
C703 C 0.57237 0.53097 0.29815 0.0
C704 C 0.61568 0.52716 0.2508 0.0
C705 C 0.55196 0.49565 0.29576 0.0
C706 C 0.60445 0.54679 0.27595 0.0
N707 N 0.58345 0.43744 0.22479 0.0
C708 C 0.59371 0.41637 0.20479 0.0
C709 C 0.63662 0.48616 0.20112 0.0
C710 C 0.60447 0.47151 0.22452 0.0
C711 C 0.64666 0.46477 0.1785 0.0
C712 C 0.6252 0.42969 0.18076 0.0
H713 H 0.6201 0.57416 0.27776 0.0
H714 H 0.66418 0.56925 0.22728 0.0
H715 H 0.6826 0.53327 0.18389 0.0
O716 O 0.52214 0.38541 0.33649 0.0
O717 O 0.53373 0.41314 0.17572 0.0
O718 O 0.4787 0.37736 0.14816 0.0
O719 O 0.57074 0.43101 0.32398 0.0
O720 O 0.52006 0.3625 0.24326 0.0
O721 O 0.46959 0.33322 0.28143 0.0
O722 O 0.40029 0.30279 0.20048 0.0
O723 O 0.44083 0.37923 0.30719 0.0
O724 O 0.49426 0.42396 0.32416 0.0
O725 O 0.45085 0.31304 0.18738 0.0
O726 O 0.45847 0.39722 0.18306 0.0
O727 O 0.49394 0.43361 0.2441 0.0
C728 C 0.51203 0.3993 0.1362 0.0
C729 C 0.57084 0.38305 0.36054 0.0
C730 C 0.56924 0.3337 0.40094 0.0
C731 C 0.60121 0.34368 0.38046 0.0
C732 C 0.60275 0.39252 0.33965 0.0
C733 C 0.61773 0.37287 0.34958 0.0
C734 C 0.55443 0.35371 0.39116 0.0
C735 C 0.49739 0.33434 0.26666 0.0
C736 C 0.55386 0.40279 0.35029 0.0
C737 C 0.64747 0.542 0.22676 0.0
C738 C 0.6579 0.52153 0.2019 0.0
C739 C 0.46157 0.40604 0.33772 0.0
C740 C 0.41186 0.28762 1.11856 0.0
C741 C 0.38514 0.2952 1.04154 0.0
C742 C 0.40727 0.29042 1.00979 0.0
C743 C 0.43326 0.282 1.08626 0.0
C744 C 0.3865 0.29209 1.09558 0.0
C745 C 0.43057 0.2829 1.03212 0.0
C746 C 0.47805 0.42761 0.1994 0.0
C747 C 0.41918 0.29412 0.17485 0.0
H748 H 0.61326 0.32891 0.38825 0.0
H749 H 0.61613 0.41499 0.31564 0.0
H750 H 0.6423 0.38038 0.33346 0.0
H751 H 0.53011 0.34664 0.4081 0.0
H752 H 0.40675 0.29288 0.96792 0.0
H753 H 0.45285 0.27822 1.10285 0.0
H754 H 0.36932 0.29582 1.11973 0.0
H755 H 0.44755 0.27917 1.00747 0.0
Eu756 Eu 0.10337 0.54093 0.58213 0.0
C757 C 0.04197 0.39058 0.63175 0.0
N758 N 0.07042 0.42201 0.63076 0.0
C759 C 0.08308 0.41373 0.71863 0.0
C760 C 0.03325 0.36982 0.67657 0.0
C761 C 0.09063 0.43371 0.67389 0.0
C762 C 0.05444 0.38162 0.71992 0.0
C763 C -0.01006 0.3484 0.59022 0.0
C764 C 0.02014 0.38009 0.58914 0.0
C765 C 0.98176 0.32758 0.63438 0.0
C766 C 0.00331 0.33826 0.67739 0.0
Eu767 Eu 0.08101 0.45194 0.54968 0.0
N768 N 0.02843 0.40071 0.54656 0.0
C769 C 0.96873 0.33845 0.54682 0.0
C770 C 0.0078 0.39095 0.50415 0.0
C771 C 0.97761 0.35989 0.50378 0.0
H772 H 0.11203 0.45876 0.67549 0.0
H773 H 0.96138 0.3522 0.4701 0.0
H774 H 0.06254 0.5799 0.53463 0.0
H775 H 0.21475 0.55121 0.48251 0.0
H776 H 0.01543 0.40648 0.46977 0.0
H777 H 0.94536 0.31431 0.5462 0.0
H778 H 0.15854 0.52046 0.52055 0.0
H779 H 0.0992 0.42338 0.75249 0.0
H780 H 0.95866 0.30321 0.63578 0.0
H781 H -0.00362 0.32205 0.71144 0.0
H782 H 0.07791 0.63506 0.49422 0.0
H783 H 0.04853 0.36642 0.75499 0.0
H784 H 0.24211 0.61301 0.46673 0.0
N785 N 0.1127 0.58882 0.53312 0.0
C786 C 0.14515 0.60976 0.51796 0.0
C787 C 0.09704 0.62829 0.50077 0.0
C788 C 0.155 0.64151 0.49499 0.0
C789 C 0.08841 0.59702 0.5233 0.0
C790 C 0.13061 0.65099 0.48772 0.0
N791 N 0.15506 0.56452 0.53443 0.0
C792 C 0.17091 0.54759 0.51829 0.0
C793 C 0.19923 0.61598 0.49514 0.0
C794 C 0.16722 0.59725 0.51886 0.0
C795 C 0.21768 0.59975 0.48561 0.0
C796 C 0.20265 0.56501 0.49498 0.0
H797 H 0.13716 0.67515 0.47015 0.0
H798 H 0.19645 0.68657 0.46028 0.0
H799 H 0.23512 0.66403 0.45985 0.0
O800 O 0.13254 0.57965 0.64024 0.0
O801 O 0.10473 0.54037 0.49081 0.0
O802 O 0.09493 0.48698 0.46855 0.0
O803 O 0.08252 0.56911 0.62086 0.0
O804 O 0.14224 0.52952 0.62236 0.0
O805 O 0.13248 0.47858 0.58916 0.0
O806 O 0.07341 0.40428 0.51864 0.0
O807 O 0.04608 0.45077 0.62212 0.0
O808 O 0.0623 0.50537 0.64472 0.0
O809 O 0.12206 0.44906 0.50982 0.0
O810 O 0.05129 0.46624 0.50118 0.0
O811 O 0.05067 0.50914 0.54776 0.0
C812 C 0.10315 0.51921 0.45361 0.0
C813 C 0.12294 0.62637 0.64194 0.0
C814 C 0.16871 0.68466 0.65593 0.0
C815 C 0.14738 0.69673 0.64004 0.0
C816 C 0.10156 0.63893 0.62824 0.0
C817 C 0.11402 0.6739 0.62606 0.0
C818 C 0.15637 0.64946 0.65564 0.0
C819 C 0.15124 0.50626 0.61623 0.0
C820 C 0.1104 0.5894 0.64497 0.0
C821 C 0.18823 0.66181 0.47711 0.0
C822 C 0.21032 0.64903 0.47709 0.0
C823 C 0.04291 0.4722 0.65455 0.0
C824 C 0.10249 0.40766 0.44203 0.0
C825 C 0.07118 0.38552 0.36016 0.0
C826 C 0.09551 0.37691 0.34497 0.0
C827 C 0.12634 0.39922 0.42543 0.0
C828 C 0.07602 0.40234 0.4083 0.0
C829 C 0.12312 0.38444 0.37678 0.0
C830 C 0.04014 0.48688 0.50949 0.0
C831 C 0.10271 0.41737 0.49685 0.0
H832 H 0.15608 0.72364 0.64062 0.0
H833 H 0.07527 0.62182 0.61907 0.0
H834 H 0.09748 0.68335 0.61509 0.0
H835 H 0.17222 0.63975 0.66956 0.0
H836 H 0.09297 0.36327 0.30936 0.0
H837 H 0.14684 0.40306 0.45078 0.0
H838 H 0.0588 0.4105 0.42072 0.0
H839 H 0.14137 0.37743 0.36454 0.0
Eu840 Eu 0.55899 0.10398 0.89472 0.0
C841 C 0.68433 0.06737 0.90481 0.0
N842 N 0.67675 0.09005 0.92542 0.0
C843 C 0.71077 0.09654 1.00023 0.0
C844 C 0.70563 0.05834 0.93126 0.0
C845 C 0.68958 0.10471 0.97247 0.0
C846 C 0.71879 0.07319 0.9796 0.0
C847 C 0.67921 0.03061 0.8333 0.0
C848 C 0.67122 0.05366 0.85669 0.0
C849 C 0.70007 0.02118 0.85969 0.0
C850 C 0.71323 0.035 0.90859 0.0
Eu851 Eu 0.63923 0.1014 0.87844 0.0
N852 N 0.65117 0.06336 0.8323 0.0
C853 C 0.66629 0.01798 0.78388 0.0
C854 C 0.63914 0.05158 0.78355 0.0
C855 C 0.64633 0.0287 0.75876 0.0
H856 H 0.68336 0.12261 0.98893 0.0
H857 H 0.63635 0.01924 0.72039 0.0
H858 H 0.49473 0.03924 0.82994 0.0
H859 H 0.5869 0.23582 0.91093 0.0
H860 H 0.62371 0.05965 0.76367 0.0
H861 H 0.67182 0.00023 0.76462 0.0
H862 H 0.58618 0.18404 0.9397 0.0
H863 H 0.72082 0.1082 1.03756 0.0
H864 H 0.70637 0.00342 0.84243 0.0
H865 H 0.72946 0.02767 0.92837 0.0
H866 H 0.45148 0.03078 0.76518 0.0
H867 H 0.73522 0.06691 1.00116 0.0
H868 H 0.55243 0.23361 0.83552 0.0
N869 N 0.51622 0.09292 0.83263 0.0
C870 C 0.51389 0.12006 0.81615 0.0
C871 C 0.46911 0.05597 0.77883 0.0
C872 C 0.48966 0.11617 0.77876 0.0
C873 C 0.49384 0.061 0.81526 0.0
C874 C 0.46725 0.08367 0.76003 0.0
N875 N 0.55758 0.15444 0.87518 0.0
C876 C 0.5737 0.1835 0.90396 0.0
C877 C 0.53328 0.18019 0.82153 0.0
C878 C 0.53566 0.15175 0.83719 0.0
C879 C 0.55345 0.2112 0.84649 0.0
C880 C 0.57313 0.21263 0.8888 0.0
H881 H 0.44814 0.07963 0.73157 0.0
H882 H 0.46993 0.14217 0.73278 0.0
H883 H 0.50807 0.19823 0.77032 0.0
O884 O 0.54126 0.11847 0.96365 0.0
O885 O 0.56761 0.11107 0.80571 0.0
O886 O 0.61511 0.10626 0.7939 0.0
O887 O 0.50787 0.0715 0.92424 0.0
O888 O 0.61148 0.15317 0.90986 0.0
O889 O 0.63889 0.13061 0.94858 0.0
O890 O 0.69302 0.13495 0.86521 0.0
O891 O 0.61415 0.07398 0.9613 0.0
O892 O 0.56021 0.06503 0.95487 0.0
O893 O 0.65752 0.15074 0.84087 0.0
O894 O 0.59741 0.04996 0.86761 0.0
O895 O 0.5552 0.06059 0.84566 0.0
C896 C 0.58991 0.11075 0.77351 0.0
C897 C 0.48448 0.10517 0.95016 0.0
C898 C 0.46844 0.14846 0.96043 0.0
C899 C 0.43865 0.12832 0.93278 0.0
C900 C 0.45441 0.08518 0.92228 0.0
C901 C 0.43189 0.0969 0.9134 0.0
C902 C 0.49108 0.13671 0.96919 0.0
C903 C 0.63693 0.15762 0.9396 0.0
C904 C 0.51 0.09449 0.9564 0.0
C905 C 0.48821 0.14466 0.76175 0.0
C906 C 0.51001 0.1766 0.78299 0.0
C907 C 0.58208 0.05857 0.97967 0.0
C908 C 0.7046 0.16574 0.78743 0.0
C909 C 0.70496 0.14583 0.69952 0.0
C910 C 0.72937 0.17892 0.6849 0.0
C911 C 0.7286 0.19883 0.77265 0.0
C912 C 0.69401 0.13971 0.7513 0.0
C913 C 0.74129 0.20526 0.72159 0.0
C914 C 0.57104 0.04336 0.84115 0.0
C915 C 0.68887 0.15732 0.83926 0.0
H916 H 0.42077 0.13685 0.92631 0.0
H917 H 0.44848 0.06075 0.90668 0.0
H918 H 0.40916 0.08161 0.89131 0.0
H919 H 0.5139 0.15228 0.99131 0.0
H920 H 0.73837 0.18456 0.64516 0.0
H921 H 0.73728 0.2195 0.8002 0.0
H922 H 0.67607 0.11447 0.76353 0.0
H923 H 0.75981 0.23084 0.71011 0.0
Eu924 Eu 0.44887 0.56835 0.24685 0.0
C925 C 0.60077 0.67146 0.29508 0.0
N926 N 0.57155 0.67224 0.29711 0.0
C927 C 0.58805 0.70149 0.37873 0.0
C928 C 0.62429 0.68467 0.33615 0.0
C929 C 0.56546 0.68808 0.33715 0.0
C930 C 0.61737 0.69938 0.37859 0.0
C931 C 0.63819 0.6582 0.24716 0.0
C932 C 0.60744 0.65807 0.25123 0.0
C933 C 0.66111 0.67018 0.28878 0.0
C934 C 0.65416 0.68335 0.33318 0.0
Eu935 Eu 0.53358 0.64666 0.22713 0.0
N936 N 0.58479 0.6467 0.21148 0.0
C937 C 0.6455 0.64725 0.20075 0.0
C938 C 0.59282 0.6379 0.16506 0.0
C939 C 0.62301 0.63771 0.1592 0.0
H940 H 0.54305 0.69015 0.33751 0.0
H941 H 0.62873 0.62987 1.12276 0.0
H942 H 0.46207 0.50537 0.27992 0.0
H943 H 0.34883 0.56507 1.12692 0.0
H944 H 0.57581 0.63049 0.13232 0.0
H945 H 0.66883 0.64696 0.19612 0.0
H946 H 0.39703 0.58995 0.18781 0.0
H947 H 0.58285 0.7135 0.41084 0.0
H948 H 0.68465 0.6701 0.28652 0.0
H949 H 0.67239 0.69312 0.36456 0.0
H950 H 0.43873 0.44451 0.26031 0.0
H951 H 0.63481 0.7098 0.4109 0.0
H952 H 0.32658 0.50661 1.09437 0.0
N953 N 0.42982 0.51107 0.22687 0.0
C954 C 0.40407 0.49569 0.19232 0.0
C955 C 0.42925 0.45886 0.24035 0.0
C956 C 0.39046 0.46128 0.1793 0.0
C957 C 0.44237 0.49322 0.25126 0.0
C958 C 0.40343 0.44295 0.20396 0.0
N959 N 0.40303 0.54664 0.18754 0.0
C960 C 0.38779 0.56461 0.17322 0.0
C961 C 0.36236 0.49857 0.13799 0.0
C962 C 0.39006 0.51394 0.17224 0.0
C963 C 0.34788 0.5175 1.12075 0.0
C964 C 0.3604 0.55053 0.13896 0.0
H965 H 0.39334 0.41641 0.19607 0.0
H966 H 0.35319 0.41986 0.13246 0.0
H967 H 0.32869 0.45253 1.09613 0.0
O968 O 0.42568 0.58446 0.30652 0.0
O969 O 0.45021 0.57301 0.1571 0.0
O970 O 0.50165 0.62182 0.14327 0.0
O971 O 0.40837 0.5311 0.29574 0.0
O972 O 0.4537 0.62127 0.2303 0.0
O973 O 0.49738 0.6514 0.28164 0.0
O974 O 0.57516 0.69506 0.19954 0.0
O975 O 0.53543 0.61827 0.30802 0.0
O976 O 0.48456 0.56816 0.31463 0.0
O977 O 0.52443 0.6855 0.19312 0.0
O978 O 0.52279 0.60473 0.17808 0.0
O979 O 0.49525 0.56276 0.23617 0.0
C980 C 0.47177 0.5954 1.12366 0.0
C981 C 0.36645 0.54622 0.30619 0.0
C982 C 0.32329 0.56181 0.31902 0.0
C983 C 0.30084 0.53439 0.28808 0.0
C984 C 0.34321 0.51824 0.27636 0.0
C985 C 0.31095 0.51288 0.26651 0.0
C986 C 0.35628 0.56798 0.32701 0.0
C987 C 0.46973 0.64758 0.26153 0.0
C988 C 0.40138 0.5533 0.31465 0.0
C989 C 0.3637 0.44611 0.1436 0.0
C990 C 0.34971 0.46473 1.1229 0.0
C991 C 0.51551 0.58887 0.33424 0.0
C992 C 0.55977 0.70921 1.11978 0.0
C993 C 0.57598 0.69468 1.03689 0.0
C994 C 0.55948 0.70917 1.0103 0.0
C995 C 0.54354 0.72356 1.09246 0.0
C996 C 0.57677 0.69592 1.0915 0.0
C997 C 0.54381 0.7239 1.03798 0.0
C998 C 0.51763 0.5772 0.19898 0.0
C999 C 0.55538 0.70385 0.17684 0.0
H1000 H 0.27517 0.52886 0.28248 0.0
H1001 H 0.34983 0.50043 0.26044 0.0
H1002 H 0.29343 0.49142 0.24326 0.0
H1003 H 0.37352 0.58871 0.35185 0.0
H1004 H 0.55859 0.70903 0.96819 0.0
H1005 H 0.53002 0.73371 1.11318 0.0
H1006 H 0.58944 0.68506 1.11214 0.0
H1007 H 0.53107 0.73485 1.0171 0.0
H1008 H 0.54468 0.22617 0.32281 0.0
H1009 H 0.43715 0.15792 0.32172 0.0
H1010 H 0.42809 0.20516 0.30248 0.0
H1011 H 0.45006 0.26649 0.28458 0.0
H1012 H 0.55732 0.33375 0.27292 0.0
H1013 H 0.5668 0.28742 0.29864 0.0
C1014 C 0.51923 0.22148 0.31814 0.0
C1015 C 0.49168 0.18771 0.32396 0.0
C1016 C 0.51401 0.24905 0.30424 0.0
C1017 C 0.45904 0.18302 0.31759 0.0
C1018 C 0.45374 0.21028 0.30635 0.0
C1019 C 0.47561 0.2711 0.28707 0.0
C1020 C 0.50295 0.30447 0.27764 0.0
C1021 C 0.48094 0.24347 0.29913 0.0
C1022 C 0.53565 0.30898 0.28035 0.0
C1023 C 0.54111 0.28214 0.29483 0.0
H1024 H 0.30382 0.55148 0.69108 0.0
H1025 H 0.26601 0.44532 0.6605 0.0
H1026 H 0.21144 0.43769 0.63749 0.0
H1027 H 0.17314 0.4599 0.62324 0.0
H1028 H 0.20763 0.56512 0.65403 0.0
H1029 H 0.26315 0.5738 0.67965 0.0
C1030 C 0.28363 0.52658 0.67988 0.0
C1031 C 0.29023 0.4991 0.67738 0.0
C1032 C 0.25092 0.52191 0.66664 0.0
C1033 C 0.26293 0.46731 0.66232 0.0
C1034 C 0.23115 0.46272 0.6492 0.0
C1035 C 0.19252 0.48485 0.63591 0.0
C1036 C 0.1852 0.51167 0.6366 0.0
C1037 C 0.22471 0.48971 0.6507 0.0
C1038 C 0.21155 0.54363 0.65332 0.0
C1039 C 0.2437 0.54866 0.66793 0.0
H1040 H 0.75111 0.31545 0.97609 0.0
H1041 H 0.8165 0.27338 0.96149 0.0
H1042 H 0.76764 0.21696 0.94983 0.0
H1043 H 0.70558 0.17782 0.94567 0.0
H1044 H 0.63984 0.21939 0.95637 0.0
H1045 H 0.68829 0.2756 0.97086 0.0
C1046 C 0.75492 0.29413 0.96979 0.0
C1047 C 0.78853 0.29983 0.96951 0.0
C1048 C 0.72603 0.26075 0.96303 0.0
C1049 C 0.79176 0.2709 0.96178 0.0
C1050 C 0.76346 0.23812 0.95523 0.0
C1051 C 0.70156 0.19909 0.95016 0.0
C1052 C 0.66792 0.19317 0.94882 0.0
C1053 C 0.73033 0.23247 0.95603 0.0
C1054 C 0.66451 0.222 0.95579 0.0
C1055 C 0.69273 0.2548 0.96377 0.0
H1056 H 0.4572 0.67641 0.34675 0.0
H1057 H 0.46834 0.68726 0.18048 0.0
H1058 H 0.46818 0.741 0.18521 0.0
H1059 H 0.46885 0.78819 0.23842 0.0
H1060 H 0.4498 0.77176 0.40314 0.0
H1061 H 0.4477 0.71748 0.39673 0.0
C1062 C 0.45896 0.69011 0.31128 0.0
C1063 C 0.46332 0.67742 0.26332 0.0
C1064 C 0.45726 0.72055 0.314 0.0
C1065 C 0.46524 0.69597 0.2181 0.0
C1066 C 0.46517 0.72701 0.22084 0.0
C1067 C 0.46354 0.77249 0.27276 0.0
C1068 C 0.46024 0.7852 0.32174 0.0
C1069 C 0.46176 0.74011 0.26877 0.0
C1070 C 0.45302 0.76357 0.36513 0.0
C1071 C 0.45188 0.73222 0.36156 0.0
H1072 H 0.71808 0.53236 0.675 0.0
H1073 H 0.64773 0.43889 0.59932 0.0
H1074 H 0.69472 0.43109 0.57192 0.0
H1075 H 0.75727 0.45057 0.57004 0.0
H1076 H 0.82583 0.54418 0.64766 0.0
H1077 H 0.77891 0.55161 0.67287 0.0
C1078 C 0.71267 0.51021 0.65225 0.0
C1079 C 0.67851 0.48643 0.63939 0.0
C1080 C 0.74012 0.50569 0.63673 0.0
C1081 C 0.67315 0.45799 0.60996 0.0
C1082 C 0.70033 0.45343 0.59427 0.0
C1083 C 0.76207 0.47266 0.59239 0.0
C1084 C 0.79606 0.49674 0.60656 0.0
C1085 C 0.73418 0.47704 0.60745 0.0
C1086 C 0.80073 0.52498 0.63577 0.0
C1087 C 0.77358 0.52938 0.65042 0.0
H1088 H 0.27376 0.80786 0.93998 0.0
H1089 H 0.33554 0.76236 0.92009 0.0
H1090 H 0.28894 0.70781 0.9501 0.0
H1091 H 0.22888 0.67111 0.98002 0.0
H1092 H 0.1652 0.71529 0.98771 0.0
H1093 H 0.21303 0.77066 0.96397 0.0
C1094 C 0.27712 0.786 0.94174 0.0
C1095 C 0.30919 0.7902 0.92852 0.0
C1096 C 0.2491 0.7536 0.95631 0.0
C1097 C 0.31193 0.76078 0.93039 0.0
C1098 C 0.28488 0.72913 0.94725 0.0
C1099 C 0.22527 0.69272 0.97634 0.0
C1100 C 0.19263 0.68818 0.98611 0.0
C1101 C 0.25311 0.72494 0.96027 0.0
C1102 C 0.18938 0.71721 0.98065 0.0
C1103 C 0.217 0.74923 0.9669 0.0
H1104 H 0.43614 0.15646 1.04163 0.0
H1105 H 0.51809 0.2119 0.9351 0.0
H1106 H 0.54883 0.25528 1.00071 0.0
H1107 H 0.55957 0.26309 1.09464 0.0
H1108 H 0.47879 0.20462 0.20222 0.0
H1109 H 0.43959 0.1781 0.13036 0.0
C1110 C 0.45976 0.17915 1.03197 0.0
C1111 C 0.47578 0.18063 0.98483 0.0
C1112 C 0.47772 0.20311 1.07082 0.0
C1113 C 0.50609 0.21008 0.97202 0.0
C1114 C 0.52369 0.2347 1.00971 0.0
C1115 C 0.53295 0.24612 1.1023 0.0
C1116 C 0.52223 0.23455 0.15319 0.0
C1117 C 0.51108 0.22954 1.0606 0.0
C1118 C 0.48763 0.21318 0.16301 0.0
C1119 C 0.46531 0.1976 1.12183 0.0
H1120 H 0.27288 0.53234 0.38722 0.0
H1121 H 0.34779 0.63009 0.32838 0.0
H1122 H 0.34647 0.65673 0.41006 0.0
H1123 H 0.3404 0.64769 0.50417 0.0
H1124 H 0.27472 0.54753 0.56503 0.0
H1125 H 0.25555 0.52614 0.47772 0.0
C1126 C 0.28752 0.55971 0.39144 0.0
C1127 C 0.31095 0.57924 0.35287 0.0
C1128 C 0.28901 0.5741 0.44001 0.0
C1129 C 0.32987 0.61465 0.35819 0.0
C1130 C 0.32941 0.62974 0.40513 0.0
C1131 C 0.32025 0.62173 0.4984 0.0
C1132 C 0.30959 0.59889 0.54037 0.0
C1133 C 0.31147 0.60919 0.44765 0.0
C1134 C 0.28344 0.56537 0.533 0.0
C1135 C 0.27306 0.55302 0.48287 0.0
H1136 H 0.6876 0.35164 0.95025 0.0
H1137 H 0.69337 0.43696 0.87109 0.0
H1138 H 0.69999 0.41554 0.78813 0.0
H1139 H 0.73254 0.39159 0.75368 0.0
H1140 H 0.73816 0.31255 0.83816 0.0
H1141 H 0.69899 0.31197 0.90262 0.0
C1142 C 0.68781 0.36411 0.91412 0.0
C1143 C 0.6955 0.39814 0.91636 0.0
C1144 C 0.69583 0.35339 0.86776 0.0
C1145 C 0.69131 0.41224 0.87037 0.0
C1146 C 0.69602 0.40042 0.82281 0.0
C1147 C 0.72406 0.37276 0.78439 0.0
C1148 C 0.74015 0.3537 0.79276 0.0
C1149 C 0.70308 0.37385 0.82282 0.0
C1150 C 0.72776 0.32901 0.83239 0.0
C1151 C 0.70505 0.3284 0.8692 0.0
H1152 H 0.29297 0.76153 1.0482 0.0
H1153 H 0.33657 0.71069 0.13082 0.0
H1154 H 0.3121 0.71609 0.21205 0.0
H1155 H 0.29951 0.75531 0.2595 0.0
H1156 H 0.26094 0.81052 0.17614 0.0
H1157 H 0.2609 0.78252 1.09533 0.0
C1158 C 0.29544 0.74993 1.08347 0.0
C1159 C 0.31723 0.73669 1.08412 0.0
C1160 C 0.28303 0.75496 0.13023 0.0
C1161 C 0.32032 0.72154 0.12976 0.0
C1162 C 0.30679 0.72514 0.17634 0.0
C1163 C 0.289 0.75938 0.22419 0.0
C1164 C 0.2812 0.78546 0.22283 0.0
C1165 C 0.29113 0.74479 0.17749 0.0
C1166 C 0.26741 0.79072 0.17752 0.0
C1167 C 0.26799 0.77517 0.13118 0.0
H1168 H 0.59403 0.32253 0.48946 0.0
H1169 H 0.50502 0.28095 0.39389 0.0
H1170 H 0.46982 0.25143 0.46827 0.0
H1171 H 0.46443 0.26013 0.56008 0.0
H1172 H 0.55281 0.31036 0.6563 0.0
H1173 H 0.58794 0.31179 0.5841 0.0
C1174 C 0.56715 0.30543 0.4846 0.0
C1175 C 0.5519 0.30454 0.43679 0.0
C1176 C 0.54679 0.29076 0.52865 0.0
C1177 C 0.51717 0.28211 0.43046 0.0
C1178 C 0.49696 0.2656 0.47334 0.0
C1179 C 0.49108 0.26943 0.56622 0.0
C1180 C 0.50667 0.28792 0.61143 0.0
C1181 C 0.51125 0.27295 0.52312 0.0
C1182 C 0.54063 0.29768 0.6204 0.0
C1183 C 0.56087 0.29922 0.57865 0.0
H1184 H 0.24168 0.71166 0.85366 0.0
H1185 H 0.28349 0.65957 0.77053 0.0
H1186 H 0.27081 0.67712 0.68777 0.0
H1187 H 0.22904 0.68739 0.64451 0.0
H1188 H 0.17975 0.73077 0.7316 0.0
H1189 H 0.21547 0.73869 0.80621 0.0
C1190 C 0.2499 0.70603 0.81745 0.0
C1191 C 0.26251 0.68366 0.81775 0.0
C1192 C 0.24032 0.71416 0.7704 0.0
C1193 C 0.2733 0.67646 0.77094 0.0
C1194 C 0.26559 0.68611 0.7236 0.0
C1195 C 0.22745 0.70019 0.67901 0.0
C1196 C 0.20071 0.70677 0.68373 0.0
C1197 C 0.24615 0.702 0.72325 0.0
C1198 C 0.1995 0.72452 0.7275 0.0
C1199 C 0.21961 0.72856 0.77065 0.0
H1200 H 0.40595 0.92421 1.09406 0.0
H1201 H 0.45136 0.00131 0.97585 0.0
H1202 H 0.47604 0.04492 1.04376 0.0
H1203 H 0.48663 0.06414 0.14008 0.0
H1204 H 0.4363 0.98722 0.2574 0.0
H1205 H 0.41353 0.94362 0.18968 0.0
C1206 C 0.42107 0.95047 1.08219 0.0
C1207 C 0.42595 0.95763 1.02636 0.0
C1208 C 0.43536 0.97691 1.12329 0.0
C1209 C 0.44606 -0.00692 1.01602 0.0
C1210 C 0.46069 0.01877 1.05603 0.0
C1211 C 0.47092 0.03792 0.15179 0.0
C1212 C 0.46478 0.03074 0.20756 0.0
C1213 C 0.45598 0.01156 1.11047 0.0
C1214 C 0.44296 -0.00455 0.21742 0.0
C1215 C 0.42942 0.96974 0.17752 0.0
H1216 H 0.43153 0.38077 0.44383 0.0
H1217 H 0.46086 0.46658 0.3437 0.0
H1218 H 0.44457 0.49369 0.41101 0.0
H1219 H 0.42484 0.49693 0.5039 0.0
H1220 H 0.39525 0.41067 0.60408 0.0
H1221 H 0.40937 0.38284 0.53567 0.0
C1222 C 0.43453 0.40544 0.43571 0.0
C1223 C 0.44795 0.42051 0.38456 0.0
C1224 C 0.42563 0.42232 0.47743 0.0
C1225 C 0.45078 0.45294 0.37961 0.0
C1226 C 0.44156 0.46907 0.41959 0.0
C1227 C 0.42128 0.47201 0.51181 0.0
C1228 C 0.40811 0.45713 0.56312 0.0
C1229 C 0.42948 0.45477 0.46979 0.0
C1230 C 0.40448 0.4242 0.5677 0.0
C1231 C 0.41294 0.40772 0.52731 0.0
H1232 H 0.03081 0.43336 0.75446 0.0
H1233 H -0.01352 0.48023 0.664 0.0
H1234 H 0.94201 0.46308 0.73013 0.0
H1235 H 0.91622 0.43997 0.82096 0.0
H1236 H 0.96041 0.39197 0.90977 0.0
H1237 H 0.00257 0.40614 0.84225 0.0
C1238 C 0.01191 0.44058 0.74847 0.0
C1239 C 0.01421 0.45928 0.7007 0.0
C1240 C -0.01425 0.43159 0.78962 0.0
C1241 C -0.01226 0.46699 0.69814 0.0
C1242 C 0.96182 0.45742 0.73744 0.0
C1243 C 0.93465 0.43206 0.82646 0.0
C1244 C 0.93264 0.41373 0.87464 0.0
C1245 C 0.96047 0.44043 0.78475 0.0
C1246 C 0.95868 0.40514 0.87598 0.0
C1247 C 0.98394 0.41373 0.83611 0.0
H1248 H 0.48811 0.93824 0.15476 0.0
H1249 H 0.58308 0.97378 0.23245 0.0
H1250 H 0.61175 0.01471 0.16233 0.0
H1251 H 0.61209 0.04384 1.07483 0.0
H1252 H 0.51625 0.00806 0.99925 0.0
H1253 H 0.48863 0.9661 1.06804 0.0
C1254 C 0.51522 0.9545 0.15716 0.0
C1255 C 0.53227 0.95026 0.20224 0.0
C1256 C 0.5326 0.97958 1.11471 0.0
C1257 C 0.56775 0.97368 0.20056 0.0
C1258 C 0.58471 -0.00183 0.15926 0.0
C1259 C 0.58505 0.02717 1.07258 0.0
C1260 C 0.56739 0.03133 1.02805 0.0
C1261 C 0.56784 0.0019 1.11526 0.0
C1262 C 0.53199 0.0078 1.03041 0.0
C1263 C 0.51552 0.98304 1.07109 0.0
H1264 H 0.53974 0.49723 0.51725 0.0
H1265 H 0.60021 0.59397 0.59111 0.0
H1266 H 0.58887 0.62175 0.51853 0.0
H1267 H 0.56053 0.62074 0.42955 0.0
H1268 H 0.50033 0.5235 0.35736 0.0
H1269 H 0.51347 0.49648 0.42892 0.0
C1270 C 0.55088 0.52452 0.51847 0.0
C1271 C 0.57189 0.54229 0.56365 0.0
C1272 C 0.54387 0.5414 0.47434 0.0
C1273 C 0.58474 0.57803 0.55972 0.0
C1274 C 0.57783 0.59448 0.51687 0.0
C1275 C 0.54978 0.5935 0.42862 0.0
C1276 C 0.52796 0.57503 0.3842 0.0
C1277 C 0.55727 0.57686 0.473 0.0
C1278 C 0.51586 0.53957 0.38855 0.0
C1279 C 0.52364 0.52361 0.43071 0.0
H1280 H 0.06507 0.57304 0.81063 0.0
H1281 H -0.00841 0.54362 0.9332 0.0
H1282 H 0.94649 0.52298 0.86819 0.0
H1283 H 0.92454 0.51255 0.77336 0.0
H1284 H -0.00165 0.54732 0.6506 0.0
H1285 H 0.04333 0.56548 0.71559 0.0
C1286 C 0.03931 0.56194 0.82416 0.0
C1287 C 0.03376 0.56015 0.88063 0.0
C1288 C 0.01192 0.55054 0.78446 0.0
C1289 C -0.0012 0.54588 0.89263 0.0
C1290 C 0.97214 0.5338 0.85424 0.0
C1291 C 0.95032 0.52393 0.75979 0.0
C1292 C 0.95591 0.52687 0.70331 0.0
C1293 C 0.97775 0.53581 0.7994 0.0
C1294 C -0.00896 0.54322 0.6912 0.0
C1295 C 0.01762 0.55396 0.72957 0.0
H1296 H 0.57085 0.0675 0.38282 0.0
H1297 H 0.49019 0.03318 0.49262 0.0
H1298 H 0.50086 0.9891 0.52216 0.0
H1299 H 0.49601 0.94516 0.46276 0.0
H1300 H 0.55644 0.97554 0.32342 0.0
H1301 H 0.59231 0.03113 0.35885 0.0
C1302 C 0.55651 0.05094 0.4142 0.0
C1303 C 0.52672 0.04947 0.42949 0.0
C1304 C 0.55904 0.02232 0.4239 0.0
C1305 C 0.51101 0.03184 0.47552 0.0
C1306 C 0.51735 0.00663 0.49264 0.0
C1307 C 0.51796 0.96379 0.44148 0.0
C1308 C 0.52264 0.95716 0.3901 0.0
C1309 C 0.53491 -0.00267 0.4582 0.0
C1310 C 0.55142 0.98054 0.36238 0.0
C1311 C 0.57223 0.01242 0.38312 0.0
H1312 H 0.42803 0.4627 0.83575 0.0
H1313 H 0.46495 0.56215 0.7763 0.0
H1314 H 0.51644 0.58283 0.82675 0.0
H1315 H 0.54856 0.55721 0.79206 0.0
H1316 H 0.50742 0.44998 0.80615 0.0
H1317 H 0.46729 0.44683 0.87026 0.0
C1318 C 0.44775 0.48899 0.83355 0.0
C1319 C 0.44695 0.50973 0.79394 0.0
C1320 C 0.4791 0.49828 0.85458 0.0
C1321 C 0.46893 0.54464 0.79801 0.0
C1322 C 0.49728 0.55621 0.8293 0.0
C1323 C 0.53143 0.53348 0.811 0.0
C1324 C 0.52841 0.50358 0.79129 0.0
C1325 C 0.5057 0.53158 0.84183 0.0
C1326 C 0.50767 0.47285 0.81686 0.0
C1327 C 0.48568 0.47155 0.85503 0.0
H1328 H 0.94212 0.4628 1.11973 0.0
H1329 H 0.9622 0.43723 0.96812 0.0
H1330 H 0.01662 0.44848 0.99411 0.0
H1331 H 0.06324 0.48309 1.0486 0.0
H1332 H 0.04997 0.53718 0.17134 0.0
H1333 H -0.0093 0.49427 0.17875 0.0
C1334 C 0.95838 0.45905 1.09326 0.0
C1335 C 0.94757 0.44693 1.04323 0.0
C1336 C -0.00847 0.47007 1.10651 0.0
C1337 C 0.9688 0.44356 1.00787 0.0
C1338 C 0.00047 0.45066 1.02265 0.0
C1339 C 0.04718 0.48499 1.07704 0.0
C1340 C 0.05737 0.51589 1.10027 0.0
C1341 C 0.01271 0.46575 1.07067 0.0
C1342 C 0.04032 0.51522 0.1463 0.0
C1343 C 0.00606 0.4914 0.14943 0.0
H1344 H -0.0073 0.43707 0.45327 0.0
H1345 H 0.054 0.54529 0.45798 0.0
H1346 H 0.01812 0.5503 0.39392 0.0
H1347 H 0.96263 0.53176 0.42954 0.0
H1348 H 0.90431 0.43014 0.48479 0.0
H1349 H 0.93395 0.41233 0.42596 0.0
C1350 C -0.00179 0.4617 0.43943 0.0
C1351 C 0.02319 0.49072 0.46456 0.0
C1352 C 0.97328 0.46435 0.41253 0.0
C1353 C 0.03263 0.52259 0.44344 0.0
C1354 C 0.01228 0.52505 0.40567 0.0
C1355 C 0.95671 0.50559 0.42877 0.0
C1356 C 0.93637 0.48334 0.46808 0.0
C1357 C 0.97912 0.49791 0.40447 0.0
C1358 C 0.92432 0.44871 0.46138 0.0
C1359 C 0.94072 0.4388 0.42612 0.0
H1360 H 0.4805 0.91598 0.81444 0.0
H1361 H 0.43763 0.97393 0.75639 0.0
H1362 H 0.48776 0.00873 0.70503 0.0
H1363 H 0.54197 0.04152 0.74983 0.0
H1364 H 0.58162 0.98906 0.83735 0.0
H1365 H 0.54086 0.93581 0.79667 0.0
C1366 C 0.48253 0.93627 0.79034 0.0
C1367 C 0.4589 0.94676 0.79551 0.0
C1368 C 0.51254 0.95762 0.76437 0.0
C1369 C 0.45806 0.96868 0.75786 0.0
C1370 C 0.48638 0.9878 0.72719 0.0
C1371 C 0.54209 0.01835 0.7586 0.0
C1372 C 0.56071 0.01757 0.80104 0.0
C1373 C 0.51559 0.9875 0.74151 0.0
C1374 C 0.56448 0.98915 0.80843 0.0
C1375 C 0.54132 0.95882 0.78489 0.0
H1376 H 0.48458 0.54165 1.11687 0.0
H1377 H 0.57517 0.57474 0.20573 0.0
H1378 H 0.58414 0.5321 0.16345 0.0
H1379 H 0.54193 0.47275 0.17775 0.0
H1380 H 0.44119 0.43361 1.1213 0.0
H1381 H 0.45832 0.4862 1.07444 0.0
C1382 C 0.50651 0.53949 1.12604 0.0
C1383 C 0.52732 0.55797 0.16738 0.0
C1384 C 0.50813 0.51153 1.10915 0.0
C1385 C 0.55743 0.55825 0.17672 0.0
C1386 C 0.56257 0.53423 0.15218 0.0
C1387 C 0.5242 0.47585 0.15415 0.0
C1388 C 0.48993 0.45273 0.15862 0.0
C1389 C 0.53404 0.50672 0.13061 0.0
C1390 C 0.46731 0.45364 1.1228 0.0
C1391 C 0.47742 0.48329 1.0948 0.0
H1392 H 0.29302 0.94205 0.70731 0.0
H1393 H 0.31677 0.88994 0.58961 0.0
H1394 H 0.34941 0.94302 0.54201 0.0
H1395 H 0.37609 0.00493 0.53868 0.0
H1396 H 0.3529 0.05738 0.65662 0.0
H1397 H 0.31672 0.00359 0.70094 0.0
C1398 C 0.30523 0.9423 0.67105 0.0
C1399 C 0.30259 0.9121 0.65216 0.0
C1400 C 0.32491 0.9731 0.64479 0.0
C1401 C 0.31807 0.91272 0.60474 0.0
C1402 C 0.33721 0.9432 0.5779 0.0
C1403 C 0.36262 0.00464 0.57345 0.0
C1404 C 0.36724 0.03529 0.59411 0.0
C1405 C 0.34148 0.97363 0.59825 0.0
C1406 C 0.35022 0.03433 0.64013 0.0
C1407 C 0.32924 0.00354 0.66522 0.0
H1408 H 0.40549 0.35216 0.98528 0.0
H1409 H 0.31712 0.26749 1.05238 0.0
H1410 H 0.28245 0.29127 1.02275 0.0
H1411 H 0.27738 0.33612 0.97627 0.0
H1412 H 0.36675 0.42214 0.91388 0.0
H1413 H 0.40107 0.39824 0.94343 0.0
C1414 C 0.37852 0.3387 0.99253 0.0
C1415 C 0.3636 0.30778 1.01972 0.0
C1416 C 0.35908 0.353 0.9767 0.0
C1417 C 0.32891 0.29108 1.03068 0.0
C1418 C 0.30919 0.30477 1.01407 0.0
C1419 C 0.30443 0.34975 0.97001 0.0
C1420 C 0.31955 0.38056 0.94244 0.0
C1421 C 0.32401 0.33579 0.98714 0.0
C1422 C 0.3546 0.39808 0.93432 0.0
C1423 C 0.37419 0.38442 0.95112 0.0
H1424 H 0.9479 0.32218 0.20299 0.0
H1425 H 0.89699 0.3328 0.33687 0.0
H1426 H 0.94952 0.35856 0.38527 0.0
H1427 H 0.00847 0.37328 0.39239 0.0
H1428 H 0.06179 0.37261 0.254 0.0
H1429 H 0.00932 0.34666 0.20568 0.0
C1430 C 0.94812 0.33035 0.24261 0.0
C1431 C 0.91788 0.32449 0.26633 0.0
C1432 C 0.97879 0.34616 0.27018 0.0
C1433 C 0.91927 0.33551 0.31787 0.0
C1434 C 0.9495 0.35052 0.34572 0.0
C1435 C 0.0094 0.36874 0.3514 0.0
C1436 C 0.03976 0.37445 0.32814 0.0
C1437 C 0.9793 0.35538 0.32262 0.0
C1438 C 0.03911 0.36736 0.27455 0.0
C1439 C 0.00896 0.35277 0.24632 0.0
H1440 H 0.63914 0.10034 0.69526 0.0
H1441 H 0.73305 0.1265 0.62068 0.0
H1442 H 0.70386 0.0743 0.56844 0.0
H1443 H 0.65196 0.0186 0.55174 0.0
H1444 H 0.55863 -0.00332 0.62607 0.0
H1445 H 0.58727 0.05142 0.66947 0.0
C1446 C 0.65316 0.0957 0.66612 0.0
C1447 C 0.6881 0.11753 0.66171 0.0
C1448 C 0.63628 0.06639 0.63654 0.0
C1449 C 0.70604 0.11016 0.62479 0.0
C1450 C 0.68937 0.08029 0.5952 0.0
C1451 C 0.63785 0.02617 0.57669 0.0
C1452 C 0.60342 0.00337 0.58674 0.0
C1453 C 0.65455 0.05778 0.60183 0.0
C1454 C 0.58531 0.01342 0.61891 0.0
C1455 C 0.60159 0.04469 0.64356 0.0
H1456 H 0.63437 0.69438 1.05779 0.0
H1457 H 0.54916 0.65208 0.95335 0.0
H1458 H 0.56986 0.61806 0.91156 0.0
H1459 H 0.61155 0.59906 0.9061 0.0
H1460 H 0.69555 0.63995 1.01235 0.0
H1461 H 0.67566 0.67527 1.05259 0.0
C1462 C 0.62028 0.67776 1.02585 0.0
C1463 C 0.59026 0.67607 1.00871 0.0
C1464 C 0.63211 0.65788 1.00238 0.0
C1465 C 0.57264 0.65452 0.96685 0.0
C1466 C 0.58436 0.63481 0.9431 0.0
C1467 C 0.62572 0.61608 0.93753 0.0
C1468 C 0.65519 0.61714 0.95581 0.0
C1469 C 0.61402 0.63621 0.96062 0.0
C1470 C 0.67278 0.63861 0.99764 0.0
C1471 C 0.66149 0.65891 1.02048 0.0
H1472 H 0.05089 0.70295 0.29715 0.0
H1473 H 0.03107 0.60641 0.23739 0.0
H1474 H 0.97356 0.57918 0.27149 0.0
H1475 H 0.92855 0.58308 0.31693 0.0
H1476 H 0.94892 0.67857 0.38146 0.0
H1477 H 0.00654 0.70624 0.34662 0.0
C1478 C 0.03407 0.67589 0.29236 0.0
C1479 C 0.04493 0.65672 0.26435 0.0
C1480 C 0.00103 0.66046 0.31197 0.0
C1481 C 0.02295 0.62169 0.25811 0.0
C1482 C -0.00989 0.60616 0.27745 0.0
C1483 C 0.94553 0.61009 0.3223 0.0
C1484 C 0.9346 0.62917 0.35015 0.0
C1485 C 0.97871 0.62541 0.3036 0.0
C1486 C 0.9569 0.66378 0.35897 0.0
C1487 C -0.01021 0.67944 0.33951 0.0
H1488 H 0.58712 0.14217 0.51855 0.0
H1489 H 0.47993 0.08176 0.54511 0.0
H1490 H 0.49023 0.07472 0.63606 0.0
H1491 H 0.52887 0.08442 0.71272 0.0
H1492 H 0.63567 0.14888 0.69138 0.0
H1493 H 0.62631 0.15459 0.59856 0.0
C1494 C 0.56564 0.12748 0.54371 0.0
C1495 C 0.532 0.11262 0.52083 0.0
C1496 C 0.57183 0.12349 0.59925 0.0
C1497 C 0.50594 0.09395 0.55781 0.0
C1498 C 0.51192 0.08968 0.61137 0.0
C1499 C 0.55058 0.09957 0.68834 0.0
C1500 C 0.58376 0.11416 0.71222 0.0
C1501 C 0.54468 0.10406 0.63332 0.0
C1502 C 0.61008 0.13489 0.67683 0.0
C1503 C 0.6045 0.13876 0.62249 0.0
H1504 H 0.44227 0.58303 0.86568 0.0
H1505 H 0.36577 0.48183 0.90968 0.0
H1506 H 0.3833 0.49512 1.00074 0.0
H1507 H 0.42055 0.5349 1.07227 0.0
H1508 H 0.49868 0.63558 1.03052 0.0
H1509 H 0.48112 0.62297 0.93868 0.0
C1510 C 0.42889 0.56352 0.89469 0.0
C1511 C 0.40129 0.53066 0.87686 0.0
C1512 C 0.43996 0.57143 0.94974 0.0
C1513 C 0.38623 0.50709 0.91847 0.0
C1514 C 0.39663 0.51487 0.97202 0.0
C1515 C 0.43401 0.5547 1.04387 0.0
C1516 C 0.46161 0.58712 1.06253 0.0
C1517 C 0.42348 0.54692 0.98896 0.0
C1518 C 0.4778 0.61069 1.02118 0.0
C1519 C 0.46736 0.60324 0.96723 0.0
H1520 H 0.87359 0.47172 0.19025 0.0
H1521 H 0.86927 0.37712 0.22481 0.0
H1522 H 0.86663 0.38684 0.31779 0.0
H1523 H 0.86489 0.42161 0.39446 0.0
H1524 H 0.87562 0.5192 0.36187 0.0
H1525 H 0.87609 0.50878 0.26821 0.0
C1526 C 0.8721 0.45289 0.21755 0.0
C1527 C 0.87148 0.42287 0.1964 0.0
C1528 C 0.87149 0.45925 0.27404 0.0
C1529 C 0.86987 0.40027 0.23614 0.0
C1530 C 0.86824 0.40592 0.29089 0.0
C1531 C 0.86736 0.44102 0.36753 0.0
C1532 C 0.86971 0.47165 0.38925 0.0
C1533 C 0.86891 0.43524 0.31125 0.0
C1534 C 0.87332 0.49536 0.34998 0.0
C1535 C 0.87368 0.48927 0.2949 0.0
H1536 H 0.47288 0.85347 0.56032 0.0
H1537 H 0.42668 0.90521 0.48837 0.0
H1538 H 0.40254 0.90739 0.5718 0.0
H1539 H 0.39319 0.89563 0.67053 0.0
H1540 H 0.4414 0.84575 0.74274 0.0
H1541 H 0.46461 0.84288 0.65905 0.0
C1542 C 0.45762 0.86539 0.56194 0.0
C1543 C 0.45173 0.87818 0.5133 0.0
C1544 C 0.44333 0.86718 0.61298 0.0
C1545 C 0.4315 0.89346 0.52122 0.0
C1546 C 0.41762 0.89522 0.57067 0.0
C1547 C 0.40843 0.88368 0.66883 0.0
C1548 C 0.41395 0.87037 0.71732 0.0
C1549 C 0.42284 0.88204 0.61775 0.0
C1550 C 0.43504 0.85601 0.70952 0.0
C1551 C 0.44895 0.85439 0.66008 0.0
H1552 H 0.60054 0.4923 0.92943 0.0
H1553 H 0.52011 0.41035 0.84415 0.0
H1554 H 0.49252 0.38296 0.92488 0.0
H1555 H 0.48846 0.37929 1.02497 0.0
H1556 H 0.57258 0.45727 1.11033 0.0
H1557 H 0.59871 0.48632 1.02949 0.0
C1558 C 0.57695 0.46846 0.92743 0.0
C1559 C 0.56328 0.4552 0.87585 0.0
C1560 C 0.56056 0.45078 0.97702 0.0
C1561 C 0.53253 0.42327 0.87953 0.0
C1562 C 0.51609 0.4068 0.92742 0.0
C1563 C 0.51255 0.4026 1.02696 0.0
C1564 C 0.527 0.41497 1.07843 0.0
C1565 C 0.52938 0.41986 0.9774 0.0
C1566 C 0.55901 0.44563 1.07484 0.0
C1567 C 0.57469 0.46295 1.02699 0.0
H1568 H 0.1098 0.49534 0.34626 0.0
H1569 H 0.10699 0.57873 0.41999 0.0
H1570 H 0.10964 0.60385 0.33614 0.0
H1571 H 0.11283 0.60502 0.23723 0.0
H1572 H 0.1241 0.52722 0.16168 0.0
H1573 H 0.11861 0.49957 0.24596 0.0
C1574 C 0.10969 0.519 0.34492 0.0
C1575 C 0.10678 0.53332 0.39414 0.0
C1576 C 0.1131 0.53557 0.29348 0.0
C1577 C 0.10791 0.56495 0.38653 0.0
C1578 C 0.10976 0.58016 0.3369 0.0
C1579 C 0.1145 0.58217 0.23832 0.0
C1580 C 0.11918 0.56932 0.18924 0.0
C1581 C 0.11234 0.56611 0.2893 0.0
C1582 C 0.12097 0.53918 0.19588 0.0
C1583 C 0.11757 0.52276 0.24546 0.0
loop_
_geom_bond_atom_site_label_1
_geom_bond_atom_site_label_2
_geom_bond_distance
_geom_bond_site_symmetry_2
_ccdc_geom_bond_type
Eu0 N29 2.600 . S
Eu0 N35 2.562 . S
Eu0 O44 2.462 . S
Eu0 O45 2.373 . S
Eu0 O47 2.432 . S
Eu0 O48 2.291 . S
Eu0 O52 2.335 . S
Eu0 O55 2.372 . S
Eu0 C64 2.787 . S
C1 N2 1.365 . S
C1 C4 1.405 . S
C1 C8 1.448 . S
N2 C1 1.365 . S
N2 C5 1.319 . S
N2 Eu11 2.600 . S
C3 C5 1.397 . S
C3 C6 1.367 . S
C3 H23 0.931 . S
C4 C1 1.405 . S
C4 C6 1.403 . S
C4 C10 1.439 . S
C5 N2 1.319 . S
C5 C3 1.397 . S
C5 H16 0.930 . S
C6 C3 1.367 . S
C6 C4 1.403 . S
C6 H27 0.929 . S
C7 C8 1.430 . S
C7 C9 1.387 . S
C7 C13 1.404 1_545 S
C8 C1 1.448 . S
C8 C7 1.430 . S
C8 N12 1.351 . S
C9 C7 1.387 . S
C9 C10 1.374 . S
C9 H24 0.947 . S
C10 C4 1.439 . S
C10 C9 1.374 . S
C10 H25 0.931 . S
Eu11 N2 2.600 . S
Eu11 N12 2.562 . S
Eu11 O46 2.335 . S
Eu11 O49 2.372 . S
Eu11 O50 2.462 . S
Eu11 O51 2.373 . S
Eu11 O53 2.432 . S
Eu11 O54 2.291 . S
Eu11 C75 2.787 . S
N12 C8 1.351 . S
N12 Eu11 2.562 . S
N12 C14 1.325 . S
C13 C7 1.404 1_565 S
C13 C15 1.366 . S
C13 H21 0.930 . S
C14 N12 1.325 . S
C14 C15 1.416 1_545 S
C14 H20 0.929 . S
C15 C13 1.366 . S
C15 C14 1.416 1_565 S
C15 H17 0.930 . S
H16 C5 0.930 . S
H17 C15 0.930 . S
H18 C33 0.930 . S
H19 C40 0.930 . S
H20 C14 0.929 . S
H21 C13 0.930 . S
H22 C36 0.929 . S
H23 C3 0.931 . S
H24 C9 0.947 . S
H25 C10 0.931 . S
H26 C31 0.931 . S
H27 C6 0.929 . S
H28 C39 0.930 . S
N29 Eu0 2.600 . S
N29 C30 1.365 . S
N29 C33 1.319 . S
C30 N29 1.365 . S
C30 C32 1.405 . S
C30 C38 1.448 . S
C31 H26 0.931 . S
C31 C33 1.397 . S
C31 C34 1.367 . S
C32 C30 1.405 . S
C32 C34 1.403 . S
C32 C65 1.439 . S
C33 H18 0.930 . S
C33 N29 1.319 . S
C33 C31 1.397 . S
C34 C31 1.367 . S
C34 C32 1.403 . S
C34 H41 0.929 . S
N35 Eu0 2.562 . S
N35 C36 1.325 . S
N35 C38 1.351 . S
C36 H22 0.929 . S
C36 N35 1.325 . S
C36 C40 1.416 . S
C37 C38 1.430 . S
C37 C39 1.404 . S
C37 C66 1.387 . S
C38 C30 1.448 . S
C38 N35 1.351 . S
C38 C37 1.430 . S
C39 H28 0.930 . S
C39 C37 1.404 . S
C39 C40 1.366 . S
C40 H19 0.930 . S
C40 C36 1.416 . S
C40 C39 1.366 . S
H41 C34 0.929 . S
H42 C65 0.931 . S
H43 C66 0.931 . S
O44 Eu0 2.462 . S
O44 C64 1.252 . S
O45 Eu0 2.373 . S
O45 C56 1.249 . S
O46 Eu11 2.335 . S
O46 C56 1.264 . S
O47 Eu0 2.432 . S
O47 C64 1.268 . S
O48 Eu0 2.291 . S
O48 C63 1.255 . S
O49 Eu11 2.372 . S
O49 C63 1.257 . S
O50 Eu11 2.462 . S
O50 C75 1.252 . S
O51 Eu11 2.373 . S
O51 C67 1.249 . S
O52 Eu0 2.335 . S
O52 C67 1.264 . S
O53 Eu11 2.432 . S
O53 C75 1.268 . S
O54 Eu11 2.291 . S
O54 C74 1.255 . S
O55 Eu0 2.372 . S
O55 C74 1.257 . S
C56 O45 1.249 . S
C56 O46 1.264 . S
C57 C60 1.382 . S
C57 C62 1.390 . S
C57 C64 1.506 . S
C58 C59 1.398 . S
C58 C62 1.392 . S
C59 C58 1.398 . S
C59 C61 1.372 . S
C59 H76 0.931 1_554 S
C60 C57 1.382 . S
C60 C61 1.390 . S
C60 H77 0.931 . S
C61 C59 1.372 . S
C61 C60 1.390 . S
C61 H78 0.929 . S
C62 C57 1.390 . S
C62 C58 1.392 . S
C62 H79 0.930 . S
C63 O48 1.255 . S
C63 O49 1.257 . S
C64 Eu0 2.787 . S
C64 O44 1.252 . S
C64 O47 1.268 . S
C64 C57 1.506 . S
C65 C32 1.439 . S
C65 H42 0.931 . S
C65 C66 1.374 . S
C66 C37 1.387 . S
C66 H43 0.931 . S
C66 C65 1.374 . S
C67 O51 1.249 . S
C67 O52 1.264 . S
C68 C71 1.382 . S
C68 C72 1.390 . S
C68 C75 1.506 . S
C69 C70 1.398 . S
C69 C72 1.392 . S
C70 C69 1.398 . S
C70 C73 1.372 . S
C70 H80 0.931 . S
C71 C68 1.382 . S
C71 C73 1.390 . S
C71 H81 0.931 . S
C72 C68 1.390 . S
C72 C69 1.392 . S
C72 H82 0.930 . S
C73 C70 1.372 . S
C73 C71 1.390 . S
C73 H83 0.929 . S
C74 O54 1.255 . S
C74 O55 1.257 . S
C75 Eu11 2.787 . S
C75 O50 1.252 . S
C75 O53 1.268 . S
C75 C68 1.506 . S
H76 C59 0.931 1_556 S
H77 C60 0.931 . S
H78 C61 0.929 . S
H79 C62 0.930 . S
H80 C70 0.931 . S
H81 C71 0.931 . S
H82 C72 0.930 . S
H83 C73 0.929 . S
Eu84 N113 2.600 . S
Eu84 N119 2.562 . S
Eu84 O128 2.462 . S
Eu84 O129 2.373 . S
Eu84 O131 2.432 . S
Eu84 O132 2.291 . S
Eu84 O136 2.335 . S
Eu84 O139 2.372 . S
Eu84 C148 2.787 . S
C85 N86 1.365 . S
C85 C88 1.405 . S
C85 C92 1.448 . S
N86 C85 1.365 . S
N86 C89 1.319 . S
N86 Eu95 2.600 . S
C87 C89 1.397 . S
C87 C90 1.367 . S
C87 H107 0.931 . S
C88 C85 1.405 . S
C88 C90 1.403 . S
C88 C94 1.439 . S
C89 N86 1.319 . S
C89 C87 1.397 . S
C89 H100 0.930 . S
C90 C87 1.367 . S
C90 C88 1.403 . S
C90 H111 0.929 . S
C91 C92 1.430 . S
C91 C93 1.387 . S
C91 C97 1.404 . S
C92 C85 1.448 . S
C92 C91 1.430 . S
C92 N96 1.351 . S
C93 C91 1.387 . S
C93 C94 1.374 . S
C93 H108 0.931 . S
C94 C88 1.439 . S
C94 C93 1.374 . S
C94 H109 0.931 . S
Eu95 N86 2.600 . S
Eu95 N96 2.562 . S
Eu95 O130 2.335 . S
Eu95 O133 2.372 . S
Eu95 O134 2.462 . S
Eu95 O135 2.373 . S
Eu95 O137 2.432 . S
Eu95 O138 2.291 . S
Eu95 C159 2.787 . S
N96 C92 1.351 . S
N96 Eu95 2.562 . S
N96 C98 1.325 . S
C97 C91 1.404 . S
C97 C99 1.366 . S
C97 H105 0.930 . S
C98 N96 1.325 . S
C98 C99 1.416 . S
C98 H104 0.929 . S
C99 C97 1.366 . S
C99 C98 1.416 . S
C99 H101 0.930 . S
H100 C89 0.930 . S
H101 C99 0.930 . S
H102 C117 0.930 . S
H103 C124 0.930 . S
H104 C98 0.929 . S
H105 C97 0.930 . S
H106 C120 0.929 . S
H107 C87 0.931 . S
H108 C93 0.931 . S
H109 C94 0.931 . S
H110 C115 0.931 . S
H111 C90 0.929 . S
H112 C123 0.930 . S
N113 Eu84 2.600 . S
N113 C114 1.365 . S
N113 C117 1.319 . S
C114 N113 1.365 . S
C114 C116 1.405 . S
C114 C122 1.448 . S
C115 H110 0.931 . S
C115 C117 1.397 . S
C115 C118 1.367 . S
C116 C114 1.405 . S
C116 C118 1.403 . S
C116 C149 1.439 . S
C117 H102 0.930 . S
C117 N113 1.319 . S
C117 C115 1.397 . S
C118 C115 1.367 . S
C118 C116 1.403 . S
C118 H125 0.929 . S
N119 Eu84 2.562 . S
N119 C120 1.325 . S
N119 C122 1.351 . S
C120 H106 0.929 . S
C120 N119 1.325 . S
C120 C124 1.416 . S
C121 C122 1.430 . S
C121 C123 1.404 . S
C121 C150 1.387 . S
C122 C114 1.448 . S
C122 N119 1.351 . S
C122 C121 1.430 . S
C123 H112 0.930 . S
C123 C121 1.404 . S
C123 C124 1.366 . S
C124 H103 0.930 . S
C124 C120 1.416 . S
C124 C123 1.366 . S
H125 C118 0.929 . S
H126 C149 0.931 . S
H127 C150 0.931 . S
O128 Eu84 2.462 . S
O128 C148 1.252 . S
O129 Eu84 2.373 . S
O129 C140 1.249 . S
O130 Eu95 2.335 . S
O130 C140 1.264 . S
O131 Eu84 2.432 . S
O131 C148 1.268 . S
O132 Eu84 2.291 . S
O132 C147 1.255 . S
O133 Eu95 2.372 . S
O133 C147 1.257 . S
O134 Eu95 2.462 . S
O134 C159 1.252 . S
O135 Eu95 2.373 . S
O135 C151 1.249 . S
O136 Eu84 2.335 . S
O136 C151 1.264 . S
O137 Eu95 2.432 . S
O137 C159 1.268 . S
O138 Eu95 2.291 . S
O138 C158 1.255 . S
O139 Eu84 2.372 . S
O139 C158 1.257 . S
C140 O129 1.249 . S
C140 O130 1.264 . S
C141 C144 1.382 . S
C141 C146 1.390 . S
C141 C148 1.506 . S
C142 C143 1.398 . S
C142 C146 1.392 . S
C143 C142 1.398 . S
C143 C145 1.372 . S
C143 H160 0.931 . S
C144 C141 1.382 . S
C144 C145 1.390 . S
C144 H161 0.931 . S
C145 C143 1.372 . S
C145 C144 1.390 . S
C145 H162 0.929 . S
C146 C141 1.390 . S
C146 C142 1.392 . S
C146 H163 0.930 . S
C147 O132 1.255 . S
C147 O133 1.257 . S
C148 Eu84 2.787 . S
C148 O128 1.252 . S
C148 O131 1.268 . S
C148 C141 1.506 . S
C149 C116 1.439 . S
C149 H126 0.931 . S
C149 C150 1.374 . S
C150 C121 1.387 . S
C150 H127 0.931 . S
C150 C149 1.374 . S
C151 O135 1.249 . S
C151 O136 1.264 . S
C152 C155 1.382 . S
C152 C156 1.390 . S
C152 C159 1.506 . S
C153 C154 1.398 . S
C153 C156 1.392 . S
C154 C153 1.398 . S
C154 C157 1.372 . S
C154 H164 0.931 . S
C155 C152 1.382 . S
C155 C157 1.390 . S
C155 H165 0.931 . S
C156 C152 1.390 . S
C156 C153 1.392 . S
C156 H166 0.930 . S
C157 C154 1.372 . S
C157 C155 1.390 . S
C157 H167 0.929 . S
C158 O138 1.255 . S
C158 O139 1.257 . S
C159 Eu95 2.787 . S
C159 O134 1.252 . S
C159 O137 1.268 . S
C159 C152 1.506 . S
H160 C143 0.931 . S
H161 C144 0.931 . S
H162 C145 0.929 . S
H163 C146 0.930 . S
H164 C154 0.931 . S
H165 C155 0.931 . S
H166 C156 0.930 . S
H167 C157 0.929 . S
Eu168 N197 2.600 . S
Eu168 N203 2.562 . S
Eu168 O212 2.462 . S
Eu168 O213 2.373 . S
Eu168 O215 2.432 . S
Eu168 O216 2.291 . S
Eu168 O220 2.335 . S
Eu168 O223 2.372 . S
Eu168 C232 2.787 . S
C169 N170 1.365 . S
C169 C172 1.405 . S
C169 C176 1.448 . S
N170 C169 1.365 . S
N170 C173 1.319 . S
N170 Eu179 2.600 . S
C171 C173 1.397 . S
C171 C174 1.367 . S
C171 H191 0.931 . S
C172 C169 1.405 . S
C172 C174 1.403 . S
C172 C178 1.439 . S
C173 N170 1.319 . S
C173 C171 1.397 . S
C173 H184 0.930 . S
C174 C171 1.367 . S
C174 C172 1.403 . S
C174 H195 0.929 . S
C175 C176 1.430 . S
C175 C177 1.387 . S
C175 C181 1.404 1_655 S
C176 C169 1.448 . S
C176 C175 1.430 . S
C176 N180 1.351 . S
C177 C175 1.387 . S
C177 C178 1.374 . S
C177 H192 0.964 . S
C178 C172 1.439 . S
C178 C177 1.374 . S
C178 H193 0.931 . S
Eu179 N170 2.600 . S
Eu179 N180 2.562 . S
Eu179 O214 2.335 . S
Eu179 O217 2.372 . S
Eu179 O218 2.462 1_556 S
Eu179 O219 2.373 . S
Eu179 O221 2.432 1_556 S
Eu179 O222 2.291 . S
Eu179 C243 2.787 1_556 S
N180 C176 1.351 . S
N180 Eu179 2.562 . S
N180 C182 1.325 . S
C181 C175 1.404 1_455 S
C181 C183 1.366 . S
C181 H189 0.930 . S
C182 N180 1.325 . S
C182 C183 1.416 1_655 S
C182 H188 0.929 . S
C183 C181 1.366 . S
C183 C182 1.416 1_455 S
C183 H185 0.930 . S
H184 C173 0.930 . S
H185 C183 0.930 . S
H186 C201 0.930 . S
H187 C208 0.930 . S
H188 C182 0.929 . S
H189 C181 0.930 . S
H190 C204 0.929 . S
H191 C171 0.931 . S
H192 C177 0.964 . S
H193 C178 0.931 . S
H194 C199 0.931 . S
H195 C174 0.929 . S
H196 C207 0.930 . S
N197 Eu168 2.600 . S
N197 C198 1.365 . S
N197 C201 1.319 . S
C198 N197 1.365 . S
C198 C200 1.405 . S
C198 C206 1.448 . S
C199 H194 0.931 . S
C199 C201 1.397 . S
C199 C202 1.367 . S
C200 C198 1.405 . S
C200 C202 1.403 . S
C200 C233 1.439 . S
C201 H186 0.930 . S
C201 N197 1.319 . S
C201 C199 1.397 . S
C202 C199 1.367 . S
C202 C200 1.403 . S
C202 H209 0.929 . S
N203 Eu168 2.562 . S
N203 C204 1.325 . S
N203 C206 1.351 . S
C204 H190 0.929 . S
C204 N203 1.325 . S
C204 C208 1.416 . S
C205 C206 1.430 . S
C205 C207 1.404 . S
C205 C234 1.387 . S
C206 C198 1.448 . S
C206 N203 1.351 . S
C206 C205 1.430 . S
C207 H196 0.930 . S
C207 C205 1.404 . S
C207 C208 1.366 . S
C208 H187 0.930 . S
C208 C204 1.416 . S
C208 C207 1.366 . S
H209 C202 0.929 . S
H210 C233 0.931 . S
H211 C234 0.931 . S
O212 Eu168 2.462 . S
O212 C232 1.252 . S
O213 Eu168 2.373 . S
O213 C224 1.249 . S
O214 Eu179 2.335 . S
O214 C224 1.264 . S
O215 Eu168 2.432 . S
O215 C232 1.268 . S
O216 Eu168 2.291 . S
O216 C231 1.255 . S
O217 Eu179 2.372 . S
O217 C231 1.257 . S
O218 Eu179 2.462 1_554 S
O218 C243 1.252 . S
O219 Eu179 2.373 . S
O219 C235 1.249 . S
O220 Eu168 2.335 . S
O220 C235 1.264 . S
O221 Eu179 2.432 1_554 S
O221 C243 1.268 . S
O222 Eu179 2.291 . S
O222 C242 1.255 . S
O223 Eu168 2.372 . S
O223 C242 1.257 . S
C224 O213 1.249 . S
C224 O214 1.264 . S
C225 C228 1.382 . S
C225 C230 1.390 . S
C225 C232 1.506 . S
C226 C227 1.398 . S
C226 C230 1.392 . S
C227 C226 1.398 . S
C227 C229 1.372 . S
C227 H244 0.931 . S
C228 C225 1.382 . S
C228 C229 1.390 . S
C228 H245 0.931 . S
C229 C227 1.372 . S
C229 C228 1.390 . S
C229 H246 0.929 . S
C230 C225 1.390 . S
C230 C226 1.392 . S
C230 H247 0.930 . S
C231 O216 1.255 . S
C231 O217 1.257 . S
C232 Eu168 2.787 . S
C232 O212 1.252 . S
C232 O215 1.268 . S
C232 C225 1.506 . S
C233 C200 1.439 . S
C233 H210 0.931 . S
C233 C234 1.374 . S
C234 C205 1.387 . S
C234 H211 0.931 . S
C234 C233 1.374 . S
C235 O219 1.249 . S
C235 O220 1.264 . S
C236 C239 1.382 . S
C236 C240 1.390 . S
C236 C243 1.506 . S
C237 C238 1.398 . S
C237 C240 1.392 . S
C238 C237 1.398 . S
C238 C241 1.372 . S
C238 H248 0.931 . S
C239 C236 1.382 . S
C239 C241 1.390 . S
C239 H249 0.931 . S
C240 C236 1.390 . S
C240 C237 1.392 . S
C240 H250 0.930 . S
C241 C238 1.372 . S
C241 C239 1.390 . S
C241 H251 0.929 . S
C242 O222 1.255 . S
C242 O223 1.257 . S
C243 Eu179 2.787 1_554 S
C243 O218 1.252 . S
C243 O221 1.268 . S
C243 C236 1.506 . S
H244 C227 0.931 . S
H245 C228 0.931 . S
H246 C229 0.929 . S
H247 C230 0.930 . S
H248 C238 0.931 . S
H249 C239 0.931 . S
H250 C240 0.930 . S
H251 C241 0.929 . S
Eu252 N281 2.600 . S
Eu252 N287 2.562 . S
Eu252 O296 2.462 . S
Eu252 O297 2.373 . S
Eu252 O299 2.432 . S
Eu252 O300 2.291 . S
Eu252 O304 2.335 . S
Eu252 O307 2.372 . S
Eu252 C316 2.787 . S
C253 N254 1.365 . S
C253 C256 1.405 . S
C253 C260 1.448 . S
N254 C253 1.365 . S
N254 C257 1.319 . S
N254 Eu263 2.600 . S
C255 C257 1.397 . S
C255 C258 1.367 . S
C255 H275 0.931 . S
C256 C253 1.405 . S
C256 C258 1.403 . S
C256 C262 1.439 . S
C257 N254 1.319 . S
C257 C255 1.397 . S
C257 H268 0.930 . S
C258 C255 1.367 . S
C258 C256 1.403 . S
C258 H279 0.929 . S
C259 C260 1.430 . S
C259 C261 1.387 . S
C259 C265 1.404 1_565 S
C260 C253 1.448 . S
C260 C259 1.430 . S
C260 N264 1.351 . S
C261 C259 1.387 . S
C261 C262 1.374 . S
C261 H276 0.947 . S
C262 C256 1.439 . S
C262 C261 1.374 . S
C262 H277 0.931 . S
Eu263 N254 2.600 . S
Eu263 N264 2.562 . S
Eu263 O298 2.335 . S
Eu263 O301 2.372 . S
Eu263 O302 2.462 . S
Eu263 O303 2.373 . S
Eu263 O305 2.432 . S
Eu263 O306 2.291 . S
Eu263 C327 2.787 . S
N264 C260 1.351 . S
N264 Eu263 2.562 . S
N264 C266 1.325 . S
C265 C259 1.404 1_545 S
C265 C267 1.366 . S
C265 H273 0.930 . S
C266 N264 1.325 . S
C266 C267 1.416 1_565 S
C266 H272 0.929 . S
C267 C265 1.366 . S
C267 C266 1.416 1_545 S
C267 H269 0.930 . S
H268 C257 0.930 . S
H269 C267 0.930 . S
H270 C285 0.930 . S
H271 C292 0.930 . S
H272 C266 0.929 . S
H273 C265 0.930 . S
H274 C288 0.929 . S
H275 C255 0.931 . S
H276 C261 0.947 . S
H277 C262 0.931 . S
H278 C283 0.931 . S
H279 C258 0.929 . S
H280 C291 0.930 . S
N281 Eu252 2.600 . S
N281 C282 1.365 . S
N281 C285 1.319 . S
C282 N281 1.365 . S
C282 C284 1.405 . S
C282 C290 1.448 . S
C283 H278 0.931 . S
C283 C285 1.397 . S
C283 C286 1.367 . S
C284 C282 1.405 . S
C284 C286 1.403 . S
C284 C317 1.439 . S
C285 H270 0.930 . S
C285 N281 1.319 . S
C285 C283 1.397 . S
C286 C283 1.367 . S
C286 C284 1.403 . S
C286 H293 0.929 . S
N287 Eu252 2.562 . S
N287 C288 1.325 . S
N287 C290 1.351 . S
C288 H274 0.929 . S
C288 N287 1.325 . S
C288 C292 1.416 . S
C289 C290 1.430 . S
C289 C291 1.404 . S
C289 C318 1.387 . S
C290 C282 1.448 . S
C290 N287 1.351 . S
C290 C289 1.430 . S
C291 H280 0.930 . S
C291 C289 1.404 . S
C291 C292 1.366 . S
C292 H271 0.930 . S
C292 C288 1.416 . S
C292 C291 1.366 . S
H293 C286 0.929 . S
H294 C317 0.931 . S
H295 C318 0.931 . S
O296 Eu252 2.462 . S
O296 C316 1.252 . S
O297 Eu252 2.373 . S
O297 C308 1.249 . S
O298 Eu263 2.335 . S
O298 C308 1.264 . S
O299 Eu252 2.432 . S
O299 C316 1.268 . S
O300 Eu252 2.291 . S
O300 C315 1.255 . S
O301 Eu263 2.372 . S
O301 C315 1.257 . S
O302 Eu263 2.462 . S
O302 C327 1.252 . S
O303 Eu263 2.373 . S
O303 C319 1.249 . S
O304 Eu252 2.335 . S
O304 C319 1.264 . S
O305 Eu263 2.432 . S
O305 C327 1.268 . S
O306 Eu263 2.291 . S
O306 C326 1.255 . S
O307 Eu252 2.372 . S
O307 C326 1.257 . S
C308 O297 1.249 . S
C308 O298 1.264 . S
C309 C312 1.382 . S
C309 C314 1.390 . S
C309 C316 1.506 . S
C310 C311 1.398 . S
C310 C314 1.392 . S
C311 C310 1.398 . S
C311 C313 1.372 . S
C311 H328 0.931 1_554 S
C312 C309 1.382 . S
C312 C313 1.390 . S
C312 H329 0.931 . S
C313 C311 1.372 . S
C313 C312 1.390 . S
C313 H330 0.929 . S
C314 C309 1.390 . S
C314 C310 1.392 . S
C314 H331 0.930 . S
C315 O300 1.255 . S
C315 O301 1.257 . S
C316 Eu252 2.787 . S
C316 O296 1.252 . S
C316 O299 1.268 . S
C316 C309 1.506 . S
C317 C284 1.439 . S
C317 H294 0.931 . S
C317 C318 1.374 . S
C318 C289 1.387 . S
C318 H295 0.931 . S
C318 C317 1.374 . S
C319 O303 1.249 . S
C319 O304 1.264 . S
C320 C323 1.382 . S
C320 C324 1.390 . S
C320 C327 1.506 . S
C321 C322 1.398 . S
C321 C324 1.392 . S
C322 C321 1.398 . S
C322 C325 1.372 . S
C322 H332 0.931 . S
C323 C320 1.382 . S
C323 C325 1.390 . S
C323 H333 0.931 . S
C324 C320 1.390 . S
C324 C321 1.392 . S
C324 H334 0.930 . S
C325 C322 1.372 . S
C325 C323 1.390 . S
C325 H335 0.929 . S
C326 O306 1.255 . S
C326 O307 1.257 . S
C327 Eu263 2.787 . S
C327 O302 1.252 . S
C327 O305 1.268 . S
C327 C320 1.506 . S
H328 C311 0.931 1_556 S
H329 C312 0.931 . S
H330 C313 0.929 . S
H331 C314 0.930 . S
H332 C322 0.931 . S
H333 C323 0.931 . S
H334 C324 0.930 . S
H335 C325 0.929 . S
Eu336 N365 2.600 . S
Eu336 N371 2.562 . S
Eu336 O380 2.462 . S
Eu336 O381 2.373 . S
Eu336 O383 2.432 . S
Eu336 O384 2.291 . S
Eu336 O388 2.335 . S
Eu336 O391 2.372 . S
Eu336 C400 2.787 . S
C337 N338 1.365 . S
C337 C340 1.405 . S
C337 C344 1.448 . S
N338 C337 1.365 . S
N338 C341 1.319 . S
N338 Eu347 2.600 . S
C339 C341 1.397 . S
C339 C342 1.367 . S
C339 H359 0.931 . S
C340 C337 1.405 . S
C340 C342 1.403 . S
C340 C346 1.439 . S
C341 N338 1.319 . S
C341 C339 1.397 . S
C341 H352 0.930 . S
C342 C339 1.367 . S
C342 C340 1.403 . S
C342 H363 0.929 . S
C343 C344 1.430 . S
C343 C345 1.387 . S
C343 C349 1.404 . S
C344 C337 1.448 . S
C344 C343 1.430 . S
C344 N348 1.351 . S
C345 C343 1.387 . S
C345 C346 1.374 . S
C345 H360 0.931 . S
C346 C340 1.439 . S
C346 C345 1.374 . S
C346 H361 0.931 . S
Eu347 N338 2.600 . S
Eu347 N348 2.562 . S
Eu347 O382 2.335 . S
Eu347 O385 2.372 . S
Eu347 O386 2.462 . S
Eu347 O387 2.373 . S
Eu347 O389 2.432 . S
Eu347 O390 2.291 . S
Eu347 C411 2.787 . S
N348 C344 1.351 . S
N348 Eu347 2.562 . S
N348 C350 1.325 . S
C349 C343 1.404 . S
C349 C351 1.366 . S
C349 H357 0.930 . S
C350 N348 1.325 . S
C350 C351 1.416 . S
C350 H356 0.929 . S
C351 C349 1.366 . S
C351 C350 1.416 . S
C351 H353 0.930 . S
H352 C341 0.930 . S
H353 C351 0.930 . S
H354 C369 0.930 . S
H355 C376 0.930 . S
H356 C350 0.929 . S
H357 C349 0.930 . S
H358 C372 0.929 . S
H359 C339 0.931 . S
H360 C345 0.931 . S
H361 C346 0.931 . S
H362 C367 0.931 . S
H363 C342 0.929 . S
H364 C375 0.930 . S
N365 Eu336 2.600 . S
N365 C366 1.365 . S
N365 C369 1.319 . S
C366 N365 1.365 . S
C366 C368 1.405 . S
C366 C374 1.448 . S
C367 H362 0.931 . S
C367 C369 1.397 . S
C367 C370 1.367 . S
C368 C366 1.405 . S
C368 C370 1.403 . S
C368 C401 1.439 . S
C369 H354 0.930 . S
C369 N365 1.319 . S
C369 C367 1.397 . S
C370 C367 1.367 . S
C370 C368 1.403 . S
C370 H377 0.929 . S
N371 Eu336 2.562 . S
N371 C372 1.325 . S
N371 C374 1.351 . S
C372 H358 0.929 . S
C372 N371 1.325 . S
C372 C376 1.416 . S
C373 C374 1.430 . S
C373 C375 1.404 . S
C373 C402 1.387 . S
C374 C366 1.448 . S
C374 N371 1.351 . S
C374 C373 1.430 . S
C375 H364 0.930 . S
C375 C373 1.404 . S
C375 C376 1.366 . S
C376 H355 0.930 . S
C376 C372 1.416 . S
C376 C375 1.366 . S
H377 C370 0.929 . S
H378 C401 0.931 . S
H379 C402 0.931 . S
O380 Eu336 2.462 . S
O380 C400 1.252 . S
O381 Eu336 2.373 . S
O381 C392 1.249 . S
O382 Eu347 2.335 . S
O382 C392 1.264 . S
O383 Eu336 2.432 . S
O383 C400 1.268 . S
O384 Eu336 2.291 . S
O384 C399 1.255 . S
O385 Eu347 2.372 . S
O385 C399 1.257 . S
O386 Eu347 2.462 . S
O386 C411 1.252 . S
O387 Eu347 2.373 . S
O387 C403 1.249 . S
O388 Eu336 2.335 . S
O388 C403 1.264 . S
O389 Eu347 2.432 . S
O389 C411 1.268 . S
O390 Eu347 2.291 . S
O390 C410 1.255 . S
O391 Eu336 2.372 . S
O391 C410 1.257 . S
C392 O381 1.249 . S
C392 O382 1.264 . S
C393 C396 1.382 . S
C393 C398 1.390 . S
C393 C400 1.506 . S
C394 C395 1.398 . S
C394 C398 1.392 . S
C395 C394 1.398 . S
C395 C397 1.372 . S
C395 H412 0.931 . S
C396 C393 1.382 . S
C396 C397 1.390 . S
C396 H413 0.931 . S
C397 C395 1.372 . S
C397 C396 1.390 . S
C397 H414 0.929 . S
C398 C393 1.390 . S
C398 C394 1.392 . S
C398 H415 0.930 . S
C399 O384 1.255 . S
C399 O385 1.257 . S
C400 Eu336 2.787 . S
C400 O380 1.252 . S
C400 O383 1.268 . S
C400 C393 1.506 . S
C401 C368 1.439 . S
C401 H378 0.931 . S
C401 C402 1.374 . S
C402 C373 1.387 . S
C402 H379 0.931 . S
C402 C401 1.374 . S
C403 O387 1.249 . S
C403 O388 1.264 . S
C404 C407 1.382 . S
C404 C408 1.390 . S
C404 C411 1.506 . S
C405 C406 1.398 . S
C405 C408 1.392 . S
C406 C405 1.398 . S
C406 C409 1.372 . S
C406 H416 0.931 . S
C407 C404 1.382 . S
C407 C409 1.390 . S
C407 H417 0.931 . S
C408 C404 1.390 . S
C408 C405 1.392 . S
C408 H418 0.930 . S
C409 C406 1.372 . S
C409 C407 1.390 . S
C409 H419 0.929 . S
C410 O390 1.255 . S
C410 O391 1.257 . S
C411 Eu347 2.787 . S
C411 O386 1.252 . S
C411 O389 1.268 . S
C411 C404 1.506 . S
H412 C395 0.931 . S
H413 C396 0.931 . S
H414 C397 0.929 . S
H415 C398 0.930 . S
H416 C406 0.931 . S
H417 C407 0.931 . S
H418 C408 0.930 . S
H419 C409 0.929 . S
Eu420 N449 2.600 . S
Eu420 N455 2.562 . S
Eu420 O464 2.462 . S
Eu420 O465 2.373 . S
Eu420 O467 2.432 . S
Eu420 O468 2.291 . S
Eu420 O472 2.335 . S
Eu420 O475 2.372 . S
Eu420 C484 2.787 . S
C421 N422 1.365 . S
C421 C424 1.405 . S
C421 C428 1.448 . S
N422 C421 1.365 . S
N422 C425 1.319 . S
N422 Eu431 2.600 . S
C423 C425 1.397 . S
C423 C426 1.367 . S
C423 H443 0.931 . S
C424 C421 1.405 . S
C424 C426 1.403 . S
C424 C430 1.439 . S
C425 N422 1.319 . S
C425 C423 1.397 . S
C425 H436 0.930 . S
C426 C423 1.367 . S
C426 C424 1.403 . S
C426 H447 0.929 . S
C427 C428 1.430 . S
C427 C429 1.387 . S
C427 C433 1.404 1_455 S
C428 C421 1.448 . S
C428 C427 1.430 . S
C428 N432 1.351 . S
C429 C427 1.387 . S
C429 C430 1.374 . S
C429 H444 0.964 . S
C430 C424 1.439 . S
C430 C429 1.374 . S
C430 H445 0.931 . S
Eu431 N422 2.600 . S
Eu431 N432 2.562 . S
Eu431 O466 2.335 . S
Eu431 O469 2.372 . S
Eu431 O470 2.462 1_556 S
Eu431 O471 2.373 . S
Eu431 O473 2.432 1_556 S
Eu431 O474 2.291 . S
Eu431 C495 2.787 1_556 S
N432 C428 1.351 . S
N432 Eu431 2.562 . S
N432 C434 1.325 . S
C433 C427 1.404 1_655 S
C433 C435 1.366 . S
C433 H441 0.930 . S
C434 N432 1.325 . S
C434 C435 1.416 1_455 S
C434 H440 0.929 . S
C435 C433 1.366 . S
C435 C434 1.416 1_655 S
C435 H437 0.930 . S
H436 C425 0.930 . S
H437 C435 0.930 . S
H438 C453 0.930 . S
H439 C460 0.930 . S
H440 C434 0.929 . S
H441 C433 0.930 . S
H442 C456 0.929 . S
H443 C423 0.931 . S
H444 C429 0.964 . S
H445 C430 0.931 . S
H446 C451 0.931 . S
H447 C426 0.929 . S
H448 C459 0.930 . S
N449 Eu420 2.600 . S
N449 C450 1.365 . S
N449 C453 1.319 . S
C450 N449 1.365 . S
C450 C452 1.405 . S
C450 C458 1.448 . S
C451 H446 0.931 . S
C451 C453 1.397 . S
C451 C454 1.367 . S
C452 C450 1.405 . S
C452 C454 1.403 . S
C452 C485 1.439 . S
C453 H438 0.930 . S
C453 N449 1.319 . S
C453 C451 1.397 . S
C454 C451 1.367 . S
C454 C452 1.403 . S
C454 H461 0.929 . S
N455 Eu420 2.562 . S
N455 C456 1.325 . S
N455 C458 1.351 . S
C456 H442 0.929 . S
C456 N455 1.325 . S
C456 C460 1.416 . S
C457 C458 1.430 . S
C457 C459 1.404 . S
C457 C486 1.387 . S
C458 C450 1.448 . S
C458 N455 1.351 . S
C458 C457 1.430 . S
C459 H448 0.930 . S
C459 C457 1.404 . S
C459 C460 1.366 . S
C460 H439 0.930 . S
C460 C456 1.416 . S
C460 C459 1.366 . S
H461 C454 0.929 . S
H462 C485 0.931 . S
H463 C486 0.931 . S
O464 Eu420 2.462 . S
O464 C484 1.252 . S
O465 Eu420 2.373 . S
O465 C476 1.249 . S
O466 Eu431 2.335 . S
O466 C476 1.264 . S
O467 Eu420 2.432 . S
O467 C484 1.268 . S
O468 Eu420 2.291 . S
O468 C483 1.255 . S
O469 Eu431 2.372 . S
O469 C483 1.257 . S
O470 Eu431 2.462 1_554 S
O470 C495 1.252 . S
O471 Eu431 2.373 . S
O471 C487 1.249 . S
O472 Eu420 2.335 . S
O472 C487 1.264 . S
O473 Eu431 2.432 1_554 S
O473 C495 1.268 . S
O474 Eu431 2.291 . S
O474 C494 1.255 . S
O475 Eu420 2.372 . S
O475 C494 1.257 . S
C476 O465 1.249 . S
C476 O466 1.264 . S
C477 C480 1.382 . S
C477 C482 1.390 . S
C477 C484 1.506 . S
C478 C479 1.398 . S
C478 C482 1.392 . S
C479 C478 1.398 . S
C479 C481 1.372 . S
C479 H496 0.931 . S
C480 C477 1.382 . S
C480 C481 1.390 . S
C480 H497 0.931 . S
C481 C479 1.372 . S
C481 C480 1.390 . S
C481 H498 0.929 . S
C482 C477 1.390 . S
C482 C478 1.392 . S
C482 H499 0.930 . S
C483 O468 1.255 . S
C483 O469 1.257 . S
C484 Eu420 2.787 . S
C484 O464 1.252 . S
C484 O467 1.268 . S
C484 C477 1.506 . S
C485 C452 1.439 . S
C485 H462 0.931 . S
C485 C486 1.374 . S
C486 C457 1.387 . S
C486 H463 0.931 . S
C486 C485 1.374 . S
C487 O471 1.249 . S
C487 O472 1.264 . S
C488 C491 1.382 . S
C488 C492 1.390 . S
C488 C495 1.506 . S
C489 C490 1.398 . S
C489 C492 1.392 . S
C490 C489 1.398 . S
C490 C493 1.372 . S
C490 H500 0.931 . S
C491 C488 1.382 . S
C491 C493 1.390 . S
C491 H501 0.931 . S
C492 C488 1.390 . S
C492 C489 1.392 . S
C492 H502 0.930 . S
C493 C490 1.372 . S
C493 C491 1.390 . S
C493 H503 0.929 . S
C494 O474 1.255 . S
C494 O475 1.257 . S
C495 Eu431 2.787 1_554 S
C495 O470 1.252 . S
C495 O473 1.268 . S
C495 C488 1.506 . S
H496 C479 0.931 . S
H497 C480 0.931 . S
H498 C481 0.929 . S
H499 C482 0.930 . S
H500 C490 0.931 . S
H501 C491 0.931 . S
H502 C492 0.930 . S
H503 C493 0.929 . S
Eu504 N533 2.600 . S
Eu504 N539 2.562 . S
Eu504 O548 2.462 . S
Eu504 O549 2.373 . S
Eu504 O551 2.432 . S
Eu504 O552 2.291 . S
Eu504 O556 2.335 . S
Eu504 O559 2.372 . S
Eu504 C568 2.787 . S
C505 N506 1.365 . S
C505 C508 1.405 . S
C505 C512 1.448 . S
N506 C505 1.365 . S
N506 C509 1.319 . S
N506 Eu515 2.600 . S
C507 C509 1.397 . S
C507 C510 1.367 . S
C507 H527 0.931 . S
C508 C505 1.405 . S
C508 C510 1.403 . S
C508 C514 1.439 . S
C509 N506 1.319 . S
C509 C507 1.397 . S
C509 H520 0.930 . S
C510 C507 1.367 . S
C510 C508 1.403 . S
C510 H531 0.929 . S
C511 C512 1.430 . S
C511 C513 1.387 . S
C511 C517 1.404 1_655 S
C512 C505 1.448 . S
C512 C511 1.430 . S
C512 N516 1.351 . S
C513 C511 1.387 . S
C513 C514 1.374 . S
C513 H528 0.947 . S
C514 C508 1.439 . S
C514 C513 1.374 . S
C514 H529 0.931 . S
Eu515 N506 2.600 . S
Eu515 N516 2.562 . S
Eu515 O550 2.335 . S
Eu515 O553 2.372 . S
Eu515 O554 2.462 . S
Eu515 O555 2.373 . S
Eu515 O557 2.432 . S
Eu515 O558 2.291 . S
Eu515 C579 2.787 . S
N516 C512 1.351 . S
N516 Eu515 2.562 . S
N516 C518 1.325 . S
C517 C511 1.404 1_455 S
C517 C519 1.366 . S
C517 H525 0.930 . S
C518 N516 1.325 . S
C518 C519 1.416 1_655 S
C518 H524 0.929 . S
C519 C517 1.366 . S
C519 C518 1.416 1_455 S
C519 H521 0.930 . S
H520 C509 0.930 . S
H521 C519 0.930 . S
H522 C537 0.930 . S
H523 C544 0.930 . S
H524 C518 0.929 . S
H525 C517 0.930 . S
H526 C540 0.929 . S
H527 C507 0.931 . S
H528 C513 0.947 . S
H529 C514 0.931 . S
H530 C535 0.931 . S
H531 C510 0.929 . S
H532 C543 0.930 . S
N533 Eu504 2.600 . S
N533 C534 1.365 . S
N533 C537 1.319 . S
C534 N533 1.365 . S
C534 C536 1.405 . S
C534 C542 1.448 . S
C535 H530 0.931 . S
C535 C537 1.397 . S
C535 C538 1.367 . S
C536 C534 1.405 . S
C536 C538 1.403 . S
C536 C569 1.439 . S
C537 H522 0.930 . S
C537 N533 1.319 . S
C537 C535 1.397 . S
C538 C535 1.367 . S
C538 C536 1.403 . S
C538 H545 0.929 . S
N539 Eu504 2.562 . S
N539 C540 1.325 . S
N539 C542 1.351 . S
C540 H526 0.929 . S
C540 N539 1.325 . S
C540 C544 1.416 . S
C541 C542 1.430 . S
C541 C543 1.404 . S
C541 C570 1.387 . S
C542 C534 1.448 . S
C542 N539 1.351 . S
C542 C541 1.430 . S
C543 H532 0.930 . S
C543 C541 1.404 . S
C543 C544 1.366 . S
C544 H523 0.930 . S
C544 C540 1.416 . S
C544 C543 1.366 . S
H545 C538 0.929 . S
H546 C569 0.931 . S
H547 C570 0.931 . S
O548 Eu504 2.462 . S
O548 C568 1.252 . S
O549 Eu504 2.373 . S
O549 C560 1.249 . S
O550 Eu515 2.335 . S
O550 C560 1.264 . S
O551 Eu504 2.432 . S
O551 C568 1.268 . S
O552 Eu504 2.291 . S
O552 C567 1.255 . S
O553 Eu515 2.372 . S
O553 C567 1.257 . S
O554 Eu515 2.462 . S
O554 C579 1.252 . S
O555 Eu515 2.373 . S
O555 C571 1.249 . S
O556 Eu504 2.335 . S
O556 C571 1.264 . S
O557 Eu515 2.432 . S
O557 C579 1.268 . S
O558 Eu515 2.291 . S
O558 C578 1.255 . S
O559 Eu504 2.372 . S
O559 C578 1.257 . S
C560 O549 1.249 . S
C560 O550 1.264 . S
C561 C564 1.382 . S
C561 C566 1.390 . S
C561 C568 1.506 . S
C562 C563 1.398 . S
C562 C566 1.392 . S
C563 C562 1.398 . S
C563 C565 1.372 . S
C563 H580 0.931 . S
C564 C561 1.382 . S
C564 C565 1.390 . S
C564 H581 0.931 . S
C565 C563 1.372 . S
C565 C564 1.390 . S
C565 H582 0.929 . S
C566 C561 1.390 . S
C566 C562 1.392 . S
C566 H583 0.930 . S
C567 O552 1.255 . S
C567 O553 1.257 . S
C568 Eu504 2.787 . S
C568 O548 1.252 . S
C568 O551 1.268 . S
C568 C561 1.506 . S
C569 C536 1.439 . S
C569 H546 0.931 . S
C569 C570 1.374 . S
C570 C541 1.387 . S
C570 H547 0.931 . S
C570 C569 1.374 . S
C571 O555 1.249 . S
C571 O556 1.264 . S
C572 C575 1.382 . S
C572 C576 1.390 . S
C572 C579 1.506 . S
C573 C574 1.398 . S
C573 C576 1.392 . S
C574 C573 1.398 . S
C574 C577 1.372 . S
C574 H584 0.931 . S
C575 C572 1.382 . S
C575 C577 1.390 . S
C575 H585 0.931 . S
C576 C572 1.390 . S
C576 C573 1.392 . S
C576 H586 0.930 . S
C577 C574 1.372 . S
C577 C575 1.390 . S
C577 H587 0.929 . S
C578 O558 1.255 . S
C578 O559 1.257 . S
C579 Eu515 2.787 . S
C579 O554 1.252 . S
C579 O557 1.268 . S
C579 C572 1.506 . S
H580 C563 0.931 . S
H581 C564 0.931 . S
H582 C565 0.929 . S
H583 C566 0.930 . S
H584 C574 0.931 . S
H585 C575 0.931 . S
H586 C576 0.930 . S
H587 C577 0.929 . S
Eu588 N617 2.600 . S
Eu588 N623 2.562 . S
Eu588 O632 2.462 . S
Eu588 O633 2.373 . S
Eu588 O635 2.432 . S
Eu588 O636 2.291 . S
Eu588 O640 2.335 . S
Eu588 O643 2.372 . S
Eu588 C652 2.787 . S
C589 N590 1.365 . S
C589 C592 1.405 . S
C589 C596 1.448 . S
N590 C589 1.365 . S
N590 C593 1.319 . S
N590 Eu599 2.600 . S
C591 C593 1.397 . S
C591 C594 1.367 . S
C591 H611 0.931 . S
C592 C589 1.405 . S
C592 C594 1.403 . S
C592 C598 1.439 . S
C593 N590 1.319 . S
C593 C591 1.397 . S
C593 H604 0.930 . S
C594 C591 1.367 . S
C594 C592 1.403 . S
C594 H615 0.929 . S
C595 C596 1.430 . S
C595 C597 1.387 . S
C595 C601 1.404 1_565 S
C596 C589 1.448 . S
C596 C595 1.430 . S
C596 N600 1.351 . S
C597 C595 1.387 . S
C597 C598 1.374 . S
C597 H612 0.964 . S
C598 C592 1.439 . S
C598 C597 1.374 . S
C598 H613 0.931 . S
Eu599 N590 2.600 . S
Eu599 N600 2.562 . S
Eu599 O634 2.335 . S
Eu599 O637 2.372 . S
Eu599 O638 2.462 . S
Eu599 O639 2.373 . S
Eu599 O641 2.432 . S
Eu599 O642 2.291 . S
Eu599 C663 2.787 . S
N600 C596 1.351 . S
N600 Eu599 2.562 . S
N600 C602 1.325 . S
C601 C595 1.404 1_545 S
C601 C603 1.366 . S
C601 H609 0.930 . S
C602 N600 1.325 . S
C602 C603 1.416 1_565 S
C602 H608 0.929 . S
C603 C601 1.366 . S
C603 C602 1.416 1_545 S
C603 H605 0.930 . S
H604 C593 0.930 . S
H605 C603 0.930 . S
H606 C621 0.930 . S
H607 C628 0.930 . S
H608 C602 0.929 . S
H609 C601 0.930 . S
H610 C624 0.929 . S
H611 C591 0.931 . S
H612 C597 0.964 . S
H613 C598 0.931 . S
H614 C619 0.931 . S
H615 C594 0.929 . S
H616 C627 0.930 . S
N617 Eu588 2.600 . S
N617 C618 1.365 . S
N617 C621 1.319 . S
C618 N617 1.365 . S
C618 C620 1.405 . S
C618 C626 1.448 . S
C619 H614 0.931 . S
C619 C621 1.397 . S
C619 C622 1.367 . S
C620 C618 1.405 . S
C620 C622 1.403 . S
C620 C653 1.439 . S
C621 H606 0.930 . S
C621 N617 1.319 . S
C621 C619 1.397 . S
C622 C619 1.367 . S
C622 C620 1.403 . S
C622 H629 0.929 . S
N623 Eu588 2.562 . S
N623 C624 1.325 . S
N623 C626 1.351 . S
C624 H610 0.929 . S
C624 N623 1.325 . S
C624 C628 1.416 . S
C625 C626 1.430 . S
C625 C627 1.404 . S
C625 C654 1.387 . S
C626 C618 1.448 . S
C626 N623 1.351 . S
C626 C625 1.430 . S
C627 H616 0.930 . S
C627 C625 1.404 . S
C627 C628 1.366 . S
C628 H607 0.930 . S
C628 C624 1.416 . S
C628 C627 1.366 . S
H629 C622 0.929 . S
H630 C653 0.931 . S
H631 C654 0.931 . S
O632 Eu588 2.462 . S
O632 C652 1.252 . S
O633 Eu588 2.373 . S
O633 C644 1.249 . S
O634 Eu599 2.335 . S
O634 C644 1.264 . S
O635 Eu588 2.432 . S
O635 C652 1.268 . S
O636 Eu588 2.291 . S
O636 C651 1.255 . S
O637 Eu599 2.372 . S
O637 C651 1.257 . S
O638 Eu599 2.462 . S
O638 C663 1.252 . S
O639 Eu599 2.373 . S
O639 C655 1.249 . S
O640 Eu588 2.335 . S
O640 C655 1.264 . S
O641 Eu599 2.432 . S
O641 C663 1.268 . S
O642 Eu599 2.291 . S
O642 C662 1.255 . S
O643 Eu588 2.372 . S
O643 C662 1.257 . S
C644 O633 1.249 . S
C644 O634 1.264 . S
C645 C648 1.382 . S
C645 C650 1.390 . S
C645 C652 1.506 . S
C646 C647 1.398 . S
C646 C650 1.392 . S
C647 C646 1.398 . S
C647 C649 1.372 . S
C647 H664 0.931 1_556 S
C648 C645 1.382 . S
C648 C649 1.390 . S
C648 H665 0.931 . S
C649 C647 1.372 . S
C649 C648 1.390 . S
C649 H666 0.929 . S
C650 C645 1.390 . S
C650 C646 1.392 . S
C650 H667 0.930 . S
C651 O636 1.255 . S
C651 O637 1.257 . S
C652 Eu588 2.787 . S
C652 O632 1.252 . S
C652 O635 1.268 . S
C652 C645 1.506 . S
C653 C620 1.439 . S
C653 H630 0.931 . S
C653 C654 1.374 . S
C654 C625 1.387 . S
C654 H631 0.931 . S
C654 C653 1.374 . S
C655 O639 1.249 . S
C655 O640 1.264 . S
C656 C659 1.382 . S
C656 C660 1.390 . S
C656 C663 1.506 . S
C657 C658 1.398 . S
C657 C660 1.392 . S
C658 C657 1.398 . S
C658 C661 1.372 . S
C658 H668 0.931 . S
C659 C656 1.382 . S
C659 C661 1.390 . S
C659 H669 0.931 . S
C660 C656 1.390 . S
C660 C657 1.392 . S
C660 H670 0.930 . S
C661 C658 1.372 . S
C661 C659 1.390 . S
C661 H671 0.929 . S
C662 O642 1.255 . S
C662 O643 1.257 . S
C663 Eu599 2.787 . S
C663 O638 1.252 . S
C663 O641 1.268 . S
C663 C656 1.506 . S
H664 C647 0.931 1_554 S
H665 C648 0.931 . S
H666 C649 0.929 . S
H667 C650 0.930 . S
H668 C658 0.931 . S
H669 C659 0.931 . S
H670 C660 0.930 . S
H671 C661 0.929 . S
Eu672 N701 2.600 . S
Eu672 N707 2.562 . S
Eu672 O716 2.462 . S
Eu672 O717 2.373 . S
Eu672 O719 2.432 . S
Eu672 O720 2.291 . S
Eu672 O724 2.335 . S
Eu672 O727 2.372 . S
Eu672 C736 2.787 . S
C673 N674 1.365 . S
C673 C676 1.405 . S
C673 C680 1.448 . S
N674 C673 1.365 . S
N674 C677 1.319 . S
N674 Eu683 2.600 . S
C675 C677 1.397 . S
C675 C678 1.367 . S
C675 H695 0.931 . S
C676 C673 1.405 . S
C676 C678 1.403 . S
C676 C682 1.439 . S
C677 N674 1.319 . S
C677 C675 1.397 . S
C677 H688 0.930 . S
C678 C675 1.367 . S
C678 C676 1.403 . S
C678 H699 0.929 . S
C679 C680 1.430 . S
C679 C681 1.387 . S
C679 C685 1.404 . S
C680 C673 1.448 . S
C680 C679 1.430 . S
C680 N684 1.351 . S
C681 C679 1.387 . S
C681 C682 1.374 . S
C681 H696 0.931 . S
C682 C676 1.439 . S
C682 C681 1.374 . S
C682 H697 0.931 . S
Eu683 N674 2.600 . S
Eu683 N684 2.562 . S
Eu683 O718 2.335 . S
Eu683 O721 2.372 . S
Eu683 O722 2.462 1_554 S
Eu683 O723 2.373 . S
Eu683 O725 2.432 1_554 S
Eu683 O726 2.291 . S
Eu683 C747 2.787 1_554 S
N684 C680 1.351 . S
N684 Eu683 2.562 . S
N684 C686 1.325 . S
C685 C679 1.404 . S
C685 C687 1.366 . S
C685 H693 0.930 . S
C686 N684 1.325 . S
C686 C687 1.416 . S
C686 H692 0.929 . S
C687 C685 1.366 . S
C687 C686 1.416 . S
C687 H689 0.930 . S
H688 C677 0.930 . S
H689 C687 0.930 . S
H690 C705 0.930 . S
H691 C712 0.930 . S
H692 C686 0.929 . S
H693 C685 0.930 . S
H694 C708 0.929 . S
H695 C675 0.931 . S
H696 C681 0.931 . S
H697 C682 0.931 . S
H698 C703 0.931 . S
H699 C678 0.929 . S
H700 C711 0.930 . S
N701 Eu672 2.600 . S
N701 C702 1.365 . S
N701 C705 1.319 . S
C702 N701 1.365 . S
C702 C704 1.405 . S
C702 C710 1.448 . S
C703 H698 0.931 . S
C703 C705 1.397 . S
C703 C706 1.367 . S
C704 C702 1.405 . S
C704 C706 1.403 . S
C704 C737 1.439 . S
C705 H690 0.930 . S
C705 N701 1.319 . S
C705 C703 1.397 . S
C706 C703 1.367 . S
C706 C704 1.403 . S
C706 H713 0.929 . S
N707 Eu672 2.562 . S
N707 C708 1.325 . S
N707 C710 1.351 . S
C708 H694 0.929 . S
C708 N707 1.325 . S
C708 C712 1.416 . S
C709 C710 1.430 . S
C709 C711 1.404 . S
C709 C738 1.387 . S
C710 C702 1.448 . S
C710 N707 1.351 . S
C710 C709 1.430 . S
C711 H700 0.930 . S
C711 C709 1.404 . S
C711 C712 1.366 . S
C712 H691 0.930 . S
C712 C708 1.416 . S
C712 C711 1.366 . S
H713 C706 0.929 . S
H714 C737 0.931 . S
H715 C738 0.931 . S
O716 Eu672 2.462 . S
O716 C736 1.252 . S
O717 Eu672 2.373 . S
O717 C728 1.249 . S
O718 Eu683 2.335 . S
O718 C728 1.264 . S
O719 Eu672 2.432 . S
O719 C736 1.268 . S
O720 Eu672 2.291 . S
O720 C735 1.255 . S
O721 Eu683 2.372 . S
O721 C735 1.257 . S
O722 Eu683 2.462 1_556 S
O722 C747 1.252 . S
O723 Eu683 2.373 . S
O723 C739 1.249 . S
O724 Eu672 2.335 . S
O724 C739 1.264 . S
O725 Eu683 2.432 1_556 S
O725 C747 1.268 . S
O726 Eu683 2.291 . S
O726 C746 1.255 . S
O727 Eu672 2.372 . S
O727 C746 1.257 . S
C728 O717 1.249 . S
C728 O718 1.264 . S
C729 C732 1.382 . S
C729 C734 1.390 . S
C729 C736 1.506 . S
C730 C731 1.398 . S
C730 C734 1.392 . S
C731 C730 1.398 . S
C731 C733 1.372 . S
C731 H748 0.931 . S
C732 C729 1.382 . S
C732 C733 1.390 . S
C732 H749 0.931 . S
C733 C731 1.372 . S
C733 C732 1.390 . S
C733 H750 0.929 . S
C734 C729 1.390 . S
C734 C730 1.392 . S
C734 H751 0.930 . S
C735 O720 1.255 . S
C735 O721 1.257 . S
C736 Eu672 2.787 . S
C736 O716 1.252 . S
C736 O719 1.268 . S
C736 C729 1.506 . S
C737 C704 1.439 . S
C737 H714 0.931 . S
C737 C738 1.374 . S
C738 C709 1.387 . S
C738 H715 0.931 . S
C738 C737 1.374 . S
C739 O723 1.249 . S
C739 O724 1.264 . S
C740 C743 1.382 . S
C740 C744 1.390 . S
C740 C747 1.506 . S
C741 C742 1.398 . S
C741 C744 1.392 . S
C742 C741 1.398 . S
C742 C745 1.372 . S
C742 H752 0.931 . S
C743 C740 1.382 . S
C743 C745 1.390 . S
C743 H753 0.931 . S
C744 C740 1.390 . S
C744 C741 1.392 . S
C744 H754 0.930 . S
C745 C742 1.372 . S
C745 C743 1.390 . S
C745 H755 0.929 . S
C746 O726 1.255 . S
C746 O727 1.257 . S
C747 Eu683 2.787 1_556 S
C747 O722 1.252 . S
C747 O725 1.268 . S
C747 C740 1.506 . S
H748 C731 0.931 . S
H749 C732 0.931 . S
H750 C733 0.929 . S
H751 C734 0.930 . S
H752 C742 0.931 . S
H753 C743 0.931 . S
H754 C744 0.930 . S
H755 C745 0.929 . S
Eu756 N785 2.600 . S
Eu756 N791 2.562 . S
Eu756 O800 2.462 . S
Eu756 O801 2.373 . S
Eu756 O803 2.432 . S
Eu756 O804 2.291 . S
Eu756 O808 2.335 . S
Eu756 O811 2.372 . S
Eu756 C820 2.787 . S
C757 N758 1.365 . S
C757 C760 1.405 . S
C757 C764 1.448 . S
N758 C757 1.365 . S
N758 C761 1.319 . S
N758 Eu767 2.600 . S
C759 C761 1.397 . S
C759 C762 1.367 . S
C759 H779 0.931 . S
C760 C757 1.405 . S
C760 C762 1.403 . S
C760 C766 1.439 . S
C761 N758 1.319 . S
C761 C759 1.397 . S
C761 H772 0.930 . S
C762 C759 1.367 . S
C762 C760 1.403 . S
C762 H783 0.929 . S
C763 C764 1.430 . S
C763 C765 1.387 . S
C763 C769 1.404 1_455 S
C764 C757 1.448 . S
C764 C763 1.430 . S
C764 N768 1.351 . S
C765 C763 1.387 . S
C765 C766 1.374 . S
C765 H780 0.947 . S
C766 C760 1.439 . S
C766 C765 1.374 . S
C766 H781 0.931 . S
Eu767 N758 2.600 . S
Eu767 N768 2.562 . S
Eu767 O802 2.335 . S
Eu767 O805 2.372 . S
Eu767 O806 2.462 . S
Eu767 O807 2.373 . S
Eu767 O809 2.432 . S
Eu767 O810 2.291 . S
Eu767 C831 2.787 . S
N768 C764 1.351 . S
N768 Eu767 2.562 . S
N768 C770 1.325 . S
C769 C763 1.404 1_655 S
C769 C771 1.366 . S
C769 H777 0.930 . S
C770 N768 1.325 . S
C770 C771 1.416 1_455 S
C770 H776 0.929 . S
C771 C769 1.366 . S
C771 C770 1.416 1_655 S
C771 H773 0.930 . S
H772 C761 0.930 . S
H773 C771 0.930 . S
H774 C789 0.930 . S
H775 C796 0.930 . S
H776 C770 0.929 . S
H777 C769 0.930 . S
H778 C792 0.929 . S
H779 C759 0.931 . S
H780 C765 0.947 . S
H781 C766 0.931 . S
H782 C787 0.931 . S
H783 C762 0.929 . S
H784 C795 0.930 . S
N785 Eu756 2.600 . S
N785 C786 1.365 . S
N785 C789 1.319 . S
C786 N785 1.365 . S
C786 C788 1.405 . S
C786 C794 1.448 . S
C787 H782 0.931 . S
C787 C789 1.397 . S
C787 C790 1.367 . S
C788 C786 1.405 . S
C788 C790 1.403 . S
C788 C821 1.439 . S
C789 H774 0.930 . S
C789 N785 1.319 . S
C789 C787 1.397 . S
C790 C787 1.367 . S
C790 C788 1.403 . S
C790 H797 0.929 . S
N791 Eu756 2.562 . S
N791 C792 1.325 . S
N791 C794 1.351 . S
C792 H778 0.929 . S
C792 N791 1.325 . S
C792 C796 1.416 . S
C793 C794 1.430 . S
C793 C795 1.404 . S
C793 C822 1.387 . S
C794 C786 1.448 . S
C794 N791 1.351 . S
C794 C793 1.430 . S
C795 H784 0.930 . S
C795 C793 1.404 . S
C795 C796 1.366 . S
C796 H775 0.930 . S
C796 C792 1.416 . S
C796 C795 1.366 . S
H797 C790 0.929 . S
H798 C821 0.931 . S
H799 C822 0.931 . S
O800 Eu756 2.462 . S
O800 C820 1.252 . S
O801 Eu756 2.373 . S
O801 C812 1.249 . S
O802 Eu767 2.335 . S
O802 C812 1.264 . S
O803 Eu756 2.432 . S
O803 C820 1.268 . S
O804 Eu756 2.291 . S
O804 C819 1.255 . S
O805 Eu767 2.372 . S
O805 C819 1.257 . S
O806 Eu767 2.462 . S
O806 C831 1.252 . S
O807 Eu767 2.373 . S
O807 C823 1.249 . S
O808 Eu756 2.335 . S
O808 C823 1.264 . S
O809 Eu767 2.432 . S
O809 C831 1.268 . S
O810 Eu767 2.291 . S
O810 C830 1.255 . S
O811 Eu756 2.372 . S
O811 C830 1.257 . S
C812 O801 1.249 . S
C812 O802 1.264 . S
C813 C816 1.382 . S
C813 C818 1.390 . S
C813 C820 1.506 . S
C814 C815 1.398 . S
C814 C818 1.392 . S
C815 C814 1.398 . S
C815 C817 1.372 . S
C815 H832 0.931 . S
C816 C813 1.382 . S
C816 C817 1.390 . S
C816 H833 0.931 . S
C817 C815 1.372 . S
C817 C816 1.390 . S
C817 H834 0.929 . S
C818 C813 1.390 . S
C818 C814 1.392 . S
C818 H835 0.930 . S
C819 O804 1.255 . S
C819 O805 1.257 . S
C820 Eu756 2.787 . S
C820 O800 1.252 . S
C820 O803 1.268 . S
C820 C813 1.506 . S
C821 C788 1.439 . S
C821 H798 0.931 . S
C821 C822 1.374 . S
C822 C793 1.387 . S
C822 H799 0.931 . S
C822 C821 1.374 . S
C823 O807 1.249 . S
C823 O808 1.264 . S
C824 C827 1.382 . S
C824 C828 1.390 . S
C824 C831 1.506 . S
C825 C826 1.398 . S
C825 C828 1.392 . S
C826 C825 1.398 . S
C826 C829 1.372 . S
C826 H836 0.931 . S
C827 C824 1.382 . S
C827 C829 1.390 . S
C827 H837 0.931 . S
C828 C824 1.390 . S
C828 C825 1.392 . S
C828 H838 0.930 . S
C829 C826 1.372 . S
C829 C827 1.390 . S
C829 H839 0.929 . S
C830 O810 1.255 . S
C830 O811 1.257 . S
C831 Eu767 2.787 . S
C831 O806 1.252 . S
C831 O809 1.268 . S
C831 C824 1.506 . S
H832 C815 0.931 . S
H833 C816 0.931 . S
H834 C817 0.929 . S
H835 C818 0.930 . S
H836 C826 0.931 . S
H837 C827 0.931 . S
H838 C828 0.930 . S
H839 C829 0.929 . S
Eu840 N869 2.600 . S
Eu840 N875 2.562 . S
Eu840 O884 2.462 . S
Eu840 O885 2.373 . S
Eu840 O887 2.432 . S
Eu840 O888 2.291 . S
Eu840 O892 2.335 . S
Eu840 O895 2.372 . S
Eu840 C904 2.787 . S
C841 N842 1.365 . S
C841 C844 1.405 . S
C841 C848 1.448 . S
N842 C841 1.365 . S
N842 C845 1.319 . S
N842 Eu851 2.600 . S
C843 C845 1.397 . S
C843 C846 1.367 . S
C843 H863 0.931 . S
C844 C841 1.405 . S
C844 C846 1.403 . S
C844 C850 1.439 . S
C845 N842 1.319 . S
C845 C843 1.397 . S
C845 H856 0.930 . S
C846 C843 1.367 . S
C846 C844 1.403 . S
C846 H867 0.929 . S
C847 C848 1.430 . S
C847 C849 1.387 . S
C847 C853 1.404 1_545 S
C848 C841 1.448 . S
C848 C847 1.430 . S
C848 N852 1.351 . S
C849 C847 1.387 . S
C849 C850 1.374 . S
C849 H864 0.964 . S
C850 C844 1.439 . S
C850 C849 1.374 . S
C850 H865 0.931 . S
Eu851 N842 2.600 . S
Eu851 N852 2.562 . S
Eu851 O886 2.335 . S
Eu851 O889 2.372 . S
Eu851 O890 2.462 . S
Eu851 O891 2.373 . S
Eu851 O893 2.432 . S
Eu851 O894 2.291 . S
Eu851 C915 2.787 . S
N852 C848 1.351 . S
N852 Eu851 2.562 . S
N852 C854 1.325 . S
C853 C847 1.404 1_565 S
C853 C855 1.366 . S
C853 H861 0.930 . S
C854 N852 1.325 . S
C854 C855 1.416 1_545 S
C854 H860 0.929 . S
C855 C853 1.366 . S
C855 C854 1.416 1_565 S
C855 H857 0.930 . S
H856 C845 0.930 . S
H857 C855 0.930 . S
H858 C873 0.930 . S
H859 C880 0.930 . S
H860 C854 0.929 . S
H861 C853 0.930 . S
H862 C876 0.929 . S
H863 C843 0.931 . S
H864 C849 0.964 . S
H865 C850 0.931 . S
H866 C871 0.931 . S
H867 C846 0.929 . S
H868 C879 0.930 . S
N869 Eu840 2.600 . S
N869 C870 1.365 . S
N869 C873 1.319 . S
C870 N869 1.365 . S
C870 C872 1.405 . S
C870 C878 1.448 . S
C871 H866 0.931 . S
C871 C873 1.397 . S
C871 C874 1.367 . S
C872 C870 1.405 . S
C872 C874 1.403 . S
C872 C905 1.439 . S
C873 H858 0.930 . S
C873 N869 1.319 . S
C873 C871 1.397 . S
C874 C871 1.367 . S
C874 C872 1.403 . S
C874 H881 0.929 . S
N875 Eu840 2.562 . S
N875 C876 1.325 . S
N875 C878 1.351 . S
C876 H862 0.929 . S
C876 N875 1.325 . S
C876 C880 1.416 . S
C877 C878 1.430 . S
C877 C879 1.404 . S
C877 C906 1.387 . S
C878 C870 1.448 . S
C878 N875 1.351 . S
C878 C877 1.430 . S
C879 H868 0.930 . S
C879 C877 1.404 . S
C879 C880 1.366 . S
C880 H859 0.930 . S
C880 C876 1.416 . S
C880 C879 1.366 . S
H881 C874 0.929 . S
H882 C905 0.931 . S
H883 C906 0.931 . S
O884 Eu840 2.462 . S
O884 C904 1.252 . S
O885 Eu840 2.373 . S
O885 C896 1.249 . S
O886 Eu851 2.335 . S
O886 C896 1.264 . S
O887 Eu840 2.432 . S
O887 C904 1.268 . S
O888 Eu840 2.291 . S
O888 C903 1.255 . S
O889 Eu851 2.372 . S
O889 C903 1.257 . S
O890 Eu851 2.462 . S
O890 C915 1.252 . S
O891 Eu851 2.373 . S
O891 C907 1.249 . S
O892 Eu840 2.335 . S
O892 C907 1.264 . S
O893 Eu851 2.432 . S
O893 C915 1.268 . S
O894 Eu851 2.291 . S
O894 C914 1.255 . S
O895 Eu840 2.372 . S
O895 C914 1.257 . S
C896 O885 1.249 . S
C896 O886 1.264 . S
C897 C900 1.382 . S
C897 C902 1.390 . S
C897 C904 1.506 . S
C898 C899 1.398 . S
C898 C902 1.392 . S
C899 C898 1.398 . S
C899 C901 1.372 . S
C899 H916 0.931 1_556 S
C900 C897 1.382 . S
C900 C901 1.390 . S
C900 H917 0.931 . S
C901 C899 1.372 . S
C901 C900 1.390 . S
C901 H918 0.929 . S
C902 C897 1.390 . S
C902 C898 1.392 . S
C902 H919 0.930 . S
C903 O888 1.255 . S
C903 O889 1.257 . S
C904 Eu840 2.787 . S
C904 O884 1.252 . S
C904 O887 1.268 . S
C904 C897 1.506 . S
C905 C872 1.439 . S
C905 H882 0.931 . S
C905 C906 1.374 . S
C906 C877 1.387 . S
C906 H883 0.931 . S
C906 C905 1.374 . S
C907 O891 1.249 . S
C907 O892 1.264 . S
C908 C911 1.382 . S
C908 C912 1.390 . S
C908 C915 1.506 . S
C909 C910 1.398 . S
C909 C912 1.392 . S
C910 C909 1.398 . S
C910 C913 1.372 . S
C910 H920 0.931 . S
C911 C908 1.382 . S
C911 C913 1.390 . S
C911 H921 0.931 . S
C912 C908 1.390 . S
C912 C909 1.392 . S
C912 H922 0.930 . S
C913 C910 1.372 . S
C913 C911 1.390 . S
C913 H923 0.929 . S
C914 O894 1.255 . S
C914 O895 1.257 . S
C915 Eu851 2.787 . S
C915 O890 1.252 . S
C915 O893 1.268 . S
C915 C908 1.506 . S
H916 C899 0.931 1_554 S
H917 C900 0.931 . S
H918 C901 0.929 . S
H919 C902 0.930 . S
H920 C910 0.931 . S
H921 C911 0.931 . S
H922 C912 0.930 . S
H923 C913 0.929 . S
Eu924 N953 2.600 . S
Eu924 N959 2.562 . S
Eu924 O968 2.462 . S
Eu924 O969 2.373 . S
Eu924 O971 2.432 . S
Eu924 O972 2.291 . S
Eu924 O976 2.335 . S
Eu924 O979 2.372 . S
Eu924 C988 2.787 . S
C925 N926 1.365 . S
C925 C928 1.405 . S
C925 C932 1.448 . S
N926 C925 1.365 . S
N926 C929 1.319 . S
N926 Eu935 2.600 . S
C927 C929 1.397 . S
C927 C930 1.367 . S
C927 H947 0.931 . S
C928 C925 1.405 . S
C928 C930 1.403 . S
C928 C934 1.439 . S
C929 N926 1.319 . S
C929 C927 1.397 . S
C929 H940 0.930 . S
C930 C927 1.367 . S
C930 C928 1.403 . S
C930 H951 0.929 . S
C931 C932 1.430 . S
C931 C933 1.387 . S
C931 C937 1.404 . S
C932 C925 1.448 . S
C932 C931 1.430 . S
C932 N936 1.351 . S
C933 C931 1.387 . S
C933 C934 1.374 . S
C933 H948 0.931 . S
C934 C928 1.439 . S
C934 C933 1.374 . S
C934 H949 0.931 . S
Eu935 N926 2.600 . S
Eu935 N936 2.562 . S
Eu935 O970 2.335 . S
Eu935 O973 2.372 . S
Eu935 O974 2.462 1_554 S
Eu935 O975 2.373 . S
Eu935 O977 2.432 1_554 S
Eu935 O978 2.291 . S
Eu935 C999 2.787 1_554 S
N936 C932 1.351 . S
N936 Eu935 2.562 . S
N936 C938 1.325 . S
C937 C931 1.404 . S
C937 C939 1.366 . S
C937 H945 0.930 . S
C938 N936 1.325 . S
C938 C939 1.416 . S
C938 H944 0.929 . S
C939 C937 1.366 . S
C939 C938 1.416 . S
C939 H941 0.930 . S
H940 C929 0.930 . S
H941 C939 0.930 . S
H942 C957 0.930 . S
H943 C964 0.930 . S
H944 C938 0.929 . S
H945 C937 0.930 . S
H946 C960 0.929 . S
H947 C927 0.931 . S
H948 C933 0.931 . S
H949 C934 0.931 . S
H950 C955 0.931 . S
H951 C930 0.929 . S
H952 C963 0.930 . S
N953 Eu924 2.600 . S
N953 C954 1.365 . S
N953 C957 1.319 . S
C954 N953 1.365 . S
C954 C956 1.405 . S
C954 C962 1.448 . S
C955 H950 0.931 . S
C955 C957 1.397 . S
C955 C958 1.367 . S
C956 C954 1.405 . S
C956 C958 1.403 . S
C956 C989 1.439 . S
C957 H942 0.930 . S
C957 N953 1.319 . S
C957 C955 1.397 . S
C958 C955 1.367 . S
C958 C956 1.403 . S
C958 H965 0.929 . S
N959 Eu924 2.562 . S
N959 C960 1.325 . S
N959 C962 1.351 . S
C960 H946 0.929 . S
C960 N959 1.325 . S
C960 C964 1.416 . S
C961 C962 1.430 . S
C961 C963 1.404 . S
C961 C990 1.387 . S
C962 C954 1.448 . S
C962 N959 1.351 . S
C962 C961 1.430 . S
C963 H952 0.930 . S
C963 C961 1.404 . S
C963 C964 1.366 . S
C964 H943 0.930 . S
C964 C960 1.416 . S
C964 C963 1.366 . S
H965 C958 0.929 . S
H966 C989 0.931 . S
H967 C990 0.931 . S
O968 Eu924 2.462 . S
O968 C988 1.252 . S
O969 Eu924 2.373 . S
O969 C980 1.249 . S
O970 Eu935 2.335 . S
O970 C980 1.264 . S
O971 Eu924 2.432 . S
O971 C988 1.268 . S
O972 Eu924 2.291 . S
O972 C987 1.255 . S
O973 Eu935 2.372 . S
O973 C987 1.257 . S
O974 Eu935 2.462 1_556 S
O974 C999 1.252 . S
O975 Eu935 2.373 . S
O975 C991 1.249 . S
O976 Eu924 2.335 . S
O976 C991 1.264 . S
O977 Eu935 2.432 1_556 S
O977 C999 1.268 . S
O978 Eu935 2.291 . S
O978 C998 1.255 . S
O979 Eu924 2.372 . S
O979 C998 1.257 . S
C980 O969 1.249 . S
C980 O970 1.264 . S
C981 C984 1.382 . S
C981 C986 1.390 . S
C981 C988 1.506 . S
C982 C983 1.398 . S
C982 C986 1.392 . S
C983 C982 1.398 . S
C983 C985 1.372 . S
C983 H1000 0.931 . S
C984 C981 1.382 . S
C984 C985 1.390 . S
C984 H1001 0.931 . S
C985 C983 1.372 . S
C985 C984 1.390 . S
C985 H1002 0.929 . S
C986 C981 1.390 . S
C986 C982 1.392 . S
C986 H1003 0.930 . S
C987 O972 1.255 . S
C987 O973 1.257 . S
C988 Eu924 2.787 . S
C988 O968 1.252 . S
C988 O971 1.268 . S
C988 C981 1.506 . S
C989 C956 1.439 . S
C989 H966 0.931 . S
C989 C990 1.374 . S
C990 C961 1.387 . S
C990 H967 0.931 . S
C990 C989 1.374 . S
C991 O975 1.249 . S
C991 O976 1.264 . S
C992 C995 1.382 . S
C992 C996 1.390 . S
C992 C999 1.506 . S
C993 C994 1.398 . S
C993 C996 1.392 . S
C994 C993 1.398 . S
C994 C997 1.372 . S
C994 H1004 0.931 . S
C995 C992 1.382 . S
C995 C997 1.390 . S
C995 H1005 0.931 . S
C996 C992 1.390 . S
C996 C993 1.392 . S
C996 H1006 0.930 . S
C997 C994 1.372 . S
C997 C995 1.390 . S
C997 H1007 0.929 . S
C998 O978 1.255 . S
C998 O979 1.257 . S
C999 Eu935 2.787 1_556 S
C999 O974 1.252 . S
C999 O977 1.268 . S
C999 C992 1.506 . S
H1000 C983 0.931 . S
H1001 C984 0.931 . S
H1002 C985 0.929 . S
H1003 C986 0.930 . S
H1004 C994 0.931 . S
H1005 C995 0.931 . S
H1006 C996 0.930 . S
H1007 C997 0.929 . S
H1008 C1014 0.930 . S
H1009 C1017 0.930 . S
H1010 C1018 0.930 . S
H1011 C1019 0.930 . S
H1012 C1022 0.930 . S
H1013 C1023 0.930 . S
C1014 H1008 0.930 . S
C1014 C1015 1.355 . S
C1014 C1016 1.415 . S
C1015 C1014 1.355 . S
C1015 C1017 1.419 . S
C1016 C1014 1.415 . S
C1016 C1021 1.425 . S
C1016 C1023 1.409 . S
C1017 H1009 0.930 . S
C1017 C1015 1.419 . S
C1017 C1018 1.362 . S
C1018 H1010 0.930 . S
C1018 C1017 1.362 . S
C1018 C1021 1.409 . S
C1019 H1011 0.930 . S
C1019 C1020 1.355 . S
C1019 C1021 1.415 . S
C1020 C1019 1.355 . S
C1020 C1022 1.419 . S
C1021 C1016 1.425 . S
C1021 C1018 1.409 . S
C1021 C1019 1.415 . S
C1022 H1012 0.930 . S
C1022 C1020 1.419 . S
C1022 C1023 1.362 . S
C1023 H1013 0.930 . S
C1023 C1016 1.409 . S
C1023 C1022 1.362 . S
H1024 C1030 0.930 . S
H1025 C1033 0.930 . S
H1026 C1034 0.930 . S
H1027 C1035 0.930 . S
H1028 C1038 0.930 . S
H1029 C1039 0.930 . S
C1030 H1024 0.930 . S
C1030 C1031 1.355 . S
C1030 C1032 1.415 . S
C1031 C1030 1.355 . S
C1031 C1033 1.419 . S
C1032 C1030 1.415 . S
C1032 C1037 1.425 . S
C1032 C1039 1.409 . S
C1033 H1025 0.930 . S
C1033 C1031 1.419 . S
C1033 C1034 1.362 . S
C1034 H1026 0.930 . S
C1034 C1033 1.362 . S
C1034 C1037 1.409 . S
C1035 H1027 0.930 . S
C1035 C1036 1.355 . S
C1035 C1037 1.415 . S
C1036 C1035 1.355 . S
C1036 C1038 1.419 . S
C1037 C1032 1.425 . S
C1037 C1034 1.409 . S
C1037 C1035 1.415 . S
C1038 H1028 0.930 . S
C1038 C1036 1.419 . S
C1038 C1039 1.362 . S
C1039 H1029 0.930 . S
C1039 C1032 1.409 . S
C1039 C1038 1.362 . S
H1040 C1046 0.930 . S
H1041 C1049 0.930 . S
H1042 C1050 0.930 . S
H1043 C1051 0.930 . S
H1044 C1054 0.930 . S
H1045 C1055 0.930 . S
C1046 H1040 0.930 . S
C1046 C1047 1.355 . S
C1046 C1048 1.415 . S
C1047 C1046 1.355 . S
C1047 C1049 1.419 . S
C1048 C1046 1.415 . S
C1048 C1053 1.425 . S
C1048 C1055 1.409 . S
C1049 H1041 0.930 . S
C1049 C1047 1.419 . S
C1049 C1050 1.362 . S
C1050 H1042 0.930 . S
C1050 C1049 1.362 . S
C1050 C1053 1.409 . S
C1051 H1043 0.930 . S
C1051 C1052 1.355 . S
C1051 C1053 1.415 . S
C1052 C1051 1.355 . S
C1052 C1054 1.419 . S
C1053 C1048 1.425 . S
C1053 C1050 1.409 . S
C1053 C1051 1.415 . S
C1054 H1044 0.930 . S
C1054 C1052 1.419 . S
C1054 C1055 1.362 . S
C1055 H1045 0.930 . S
C1055 C1048 1.409 . S
C1055 C1054 1.362 . S
H1056 C1062 0.930 . S
H1057 C1065 0.930 . S
H1058 C1066 0.930 . S
H1059 C1067 0.930 . S
H1060 C1070 0.930 . S
H1061 C1071 0.930 . S
C1062 H1056 0.930 . S
C1062 C1063 1.355 . S
C1062 C1064 1.415 . S
C1063 C1062 1.355 . S
C1063 C1065 1.419 . S
C1064 C1062 1.415 . S
C1064 C1069 1.425 . S
C1064 C1071 1.409 . S
C1065 H1057 0.930 . S
C1065 C1063 1.419 . S
C1065 C1066 1.362 . S
C1066 H1058 0.930 . S
C1066 C1065 1.362 . S
C1066 C1069 1.409 . S
C1067 H1059 0.930 . S
C1067 C1068 1.355 . S
C1067 C1069 1.415 . S
C1068 C1067 1.355 . S
C1068 C1070 1.419 . S
C1069 C1064 1.425 . S
C1069 C1066 1.409 . S
C1069 C1067 1.415 . S
C1070 H1060 0.930 . S
C1070 C1068 1.419 . S
C1070 C1071 1.362 . S
C1071 H1061 0.930 . S
C1071 C1064 1.409 . S
C1071 C1070 1.362 . S
H1072 C1078 0.930 . S
H1073 C1081 0.930 . S
H1074 C1082 0.930 . S
H1075 C1083 0.930 . S
H1076 C1086 0.930 . S
H1077 C1087 0.930 . S
C1078 H1072 0.930 . S
C1078 C1079 1.355 . S
C1078 C1080 1.415 . S
C1079 C1078 1.355 . S
C1079 C1081 1.419 . S
C1080 C1078 1.415 . S
C1080 C1085 1.425 . S
C1080 C1087 1.409 . S
C1081 H1073 0.930 . S
C1081 C1079 1.419 . S
C1081 C1082 1.362 . S
C1082 H1074 0.930 . S
C1082 C1081 1.362 . S
C1082 C1085 1.409 . S
C1083 H1075 0.930 . S
C1083 C1084 1.355 . S
C1083 C1085 1.415 . S
C1084 C1083 1.355 . S
C1084 C1086 1.419 . S
C1085 C1080 1.425 . S
C1085 C1082 1.409 . S
C1085 C1083 1.415 . S
C1086 H1076 0.930 . S
C1086 C1084 1.419 . S
C1086 C1087 1.362 . S
C1087 H1077 0.930 . S
C1087 C1080 1.409 . S
C1087 C1086 1.362 . S
H1088 C1094 0.930 . S
H1089 C1097 0.930 . S
H1090 C1098 0.930 . S
H1091 C1099 0.930 . S
H1092 C1102 0.930 . S
H1093 C1103 0.930 . S
C1094 H1088 0.930 . S
C1094 C1095 1.355 . S
C1094 C1096 1.415 . S
C1095 C1094 1.355 . S
C1095 C1097 1.419 . S
C1096 C1094 1.415 . S
C1096 C1101 1.425 . S
C1096 C1103 1.409 . S
C1097 H1089 0.930 . S
C1097 C1095 1.419 . S
C1097 C1098 1.362 . S
C1098 H1090 0.930 . S
C1098 C1097 1.362 . S
C1098 C1101 1.409 . S
C1099 H1091 0.930 . S
C1099 C1100 1.355 . S
C1099 C1101 1.415 . S
C1100 C1099 1.355 . S
C1100 C1102 1.419 . S
C1101 C1096 1.425 . S
C1101 C1098 1.409 . S
C1101 C1099 1.415 . S
C1102 H1092 0.930 . S
C1102 C1100 1.419 . S
C1102 C1103 1.362 . S
C1103 H1093 0.930 . S
C1103 C1096 1.409 . S
C1103 C1102 1.362 . S
H1104 C1110 0.930 . S
H1105 C1113 0.930 . S
H1106 C1114 0.930 1_554 S
H1107 C1115 0.930 . S
H1108 C1118 0.930 . S
H1109 C1119 0.930 1_556 S
C1110 H1104 0.930 . S
C1110 C1111 1.355 . S
C1110 C1112 1.415 . S
C1111 C1110 1.355 . S
C1111 C1113 1.419 . S
C1112 C1110 1.415 . S
C1112 C1117 1.425 1_556 S
C1112 C1119 1.409 1_556 S
C1113 H1105 0.930 . S
C1113 C1111 1.419 . S
C1113 C1114 1.362 . S
C1114 H1106 0.930 1_556 S
C1114 C1113 1.362 . S
C1114 C1117 1.409 1_556 S
C1115 H1107 0.930 . S
C1115 C1116 1.355 . S
C1115 C1117 1.415 . S
C1116 C1115 1.355 . S
C1116 C1118 1.419 . S
C1117 C1112 1.425 1_554 S
C1117 C1114 1.409 1_554 S
C1117 C1115 1.415 . S
C1118 H1108 0.930 . S
C1118 C1116 1.419 . S
C1118 C1119 1.362 . S
C1119 H1109 0.930 1_554 S
C1119 C1112 1.409 1_554 S
C1119 C1118 1.362 . S
H1120 C1126 0.930 . S
H1121 C1129 0.930 . S
H1122 C1130 0.930 . S
H1123 C1131 0.930 . S
H1124 C1134 0.930 . S
H1125 C1135 0.930 . S
C1126 H1120 0.930 . S
C1126 C1127 1.355 . S
C1126 C1128 1.415 . S
C1127 C1126 1.355 . S
C1127 C1129 1.419 . S
C1128 C1126 1.415 . S
C1128 C1133 1.425 . S
C1128 C1135 1.409 . S
C1129 H1121 0.930 . S
C1129 C1127 1.419 . S
C1129 C1130 1.362 . S
C1130 H1122 0.930 . S
C1130 C1129 1.362 . S
C1130 C1133 1.409 . S
C1131 H1123 0.930 . S
C1131 C1132 1.355 . S
C1131 C1133 1.415 . S
C1132 C1131 1.355 . S
C1132 C1134 1.419 . S
C1133 C1128 1.425 . S
C1133 C1130 1.409 . S
C1133 C1131 1.415 . S
C1134 H1124 0.930 . S
C1134 C1132 1.419 . S
C1134 C1135 1.362 . S
C1135 H1125 0.930 . S
C1135 C1128 1.409 . S
C1135 C1134 1.362 . S
H1136 C1142 0.930 . S
H1137 C1145 0.930 . S
H1138 C1146 0.930 . S
H1139 C1147 0.930 . S
H1140 C1150 0.930 . S
H1141 C1151 0.930 . S
C1142 H1136 0.930 . S
C1142 C1143 1.355 . S
C1142 C1144 1.415 . S
C1143 C1142 1.355 . S
C1143 C1145 1.419 . S
C1144 C1142 1.415 . S
C1144 C1149 1.425 . S
C1144 C1151 1.409 . S
C1145 H1137 0.930 . S
C1145 C1143 1.419 . S
C1145 C1146 1.362 . S
C1146 H1138 0.930 . S
C1146 C1145 1.362 . S
C1146 C1149 1.409 . S
C1147 H1139 0.930 . S
C1147 C1148 1.355 . S
C1147 C1149 1.415 . S
C1148 C1147 1.355 . S
C1148 C1150 1.419 . S
C1149 C1144 1.425 . S
C1149 C1146 1.409 . S
C1149 C1147 1.415 . S
C1150 H1140 0.930 . S
C1150 C1148 1.419 . S
C1150 C1151 1.362 . S
C1151 H1141 0.930 . S
C1151 C1144 1.409 . S
C1151 C1150 1.362 . S
H1152 C1158 0.930 . S
H1153 C1161 0.930 . S
H1154 C1162 0.930 . S
H1155 C1163 0.930 . S
H1156 C1166 0.930 . S
H1157 C1167 0.930 . S
C1158 H1152 0.930 . S
C1158 C1159 1.355 . S
C1158 C1160 1.416 1_556 S
C1159 C1158 1.355 . S
C1159 C1161 1.419 . S
C1160 C1158 1.416 1_554 S
C1160 C1165 1.425 1_554 S
C1160 C1167 1.408 . S
C1161 H1153 0.930 . S
C1161 C1159 1.419 . S
C1161 C1162 1.362 . S
C1162 H1154 0.930 . S
C1162 C1161 1.362 . S
C1162 C1165 1.408 . S
C1163 H1155 0.930 . S
C1163 C1164 1.355 . S
C1163 C1165 1.415 1_554 S
C1164 C1163 1.355 . S
C1164 C1166 1.419 . S
C1165 C1160 1.425 1_556 S
C1165 C1162 1.408 . S
C1165 C1163 1.415 1_556 S
C1166 H1156 0.930 . S
C1166 C1164 1.419 . S
C1166 C1167 1.362 . S
C1167 H1157 0.930 . S
C1167 C1160 1.408 . S
C1167 C1166 1.362 . S
H1168 C1174 0.930 . S
H1169 C1177 0.930 . S
H1170 C1178 0.930 . S
H1171 C1179 0.930 . S
H1172 C1182 0.930 . S
H1173 C1183 0.930 . S
C1174 H1168 0.930 . S
C1174 C1175 1.355 . S
C1174 C1176 1.415 . S
C1175 C1174 1.355 . S
C1175 C1177 1.419 . S
C1176 C1174 1.415 . S
C1176 C1181 1.425 . S
C1176 C1183 1.409 . S
C1177 H1169 0.930 . S
C1177 C1175 1.419 . S
C1177 C1178 1.362 . S
C1178 H1170 0.930 . S
C1178 C1177 1.362 . S
C1178 C1181 1.409 . S
C1179 H1171 0.930 . S
C1179 C1180 1.355 . S
C1179 C1181 1.415 . S
C1180 C1179 1.355 . S
C1180 C1182 1.419 . S
C1181 C1176 1.425 . S
C1181 C1178 1.409 . S
C1181 C1179 1.415 . S
C1182 H1172 0.930 . S
C1182 C1180 1.419 . S
C1182 C1183 1.362 . S
C1183 H1173 0.930 . S
C1183 C1176 1.409 . S
C1183 C1182 1.362 . S
H1184 C1190 0.930 . S
H1185 C1193 0.930 . S
H1186 C1194 0.930 . S
H1187 C1195 0.930 . S
H1188 C1198 0.930 . S
H1189 C1199 0.930 . S
C1190 H1184 0.930 . S
C1190 C1191 1.355 . S
C1190 C1192 1.415 . S
C1191 C1190 1.355 . S
C1191 C1193 1.419 . S
C1192 C1190 1.415 . S
C1192 C1197 1.425 . S
C1192 C1199 1.409 . S
C1193 H1185 0.930 . S
C1193 C1191 1.419 . S
C1193 C1194 1.362 . S
C1194 H1186 0.930 . S
C1194 C1193 1.362 . S
C1194 C1197 1.409 . S
C1195 H1187 0.930 . S
C1195 C1196 1.355 . S
C1195 C1197 1.415 . S
C1196 C1195 1.355 . S
C1196 C1198 1.419 . S
C1197 C1192 1.425 . S
C1197 C1194 1.409 . S
C1197 C1195 1.415 . S
C1198 H1188 0.930 . S
C1198 C1196 1.419 . S
C1198 C1199 1.362 . S
C1199 H1189 0.930 . S
C1199 C1192 1.409 . S
C1199 C1198 1.362 . S
H1200 C1206 0.930 . S
H1201 C1209 0.934 . S
H1202 C1210 0.930 . S
H1203 C1211 0.930 . S
H1204 C1214 0.934 . S
H1205 C1215 0.930 . S
C1206 H1200 0.930 . S
C1206 C1207 1.355 . S
C1206 C1208 1.415 1_556 S
C1207 C1206 1.355 . S
C1207 C1209 1.398 1_565 S
C1208 C1206 1.415 1_554 S
C1208 C1213 1.425 1_564 S
C1208 C1215 1.409 . S
C1209 H1201 0.934 . S
C1209 C1207 1.398 1_545 S
C1209 C1210 1.380 . S
C1210 H1202 0.930 . S
C1210 C1209 1.380 . S
C1210 C1213 1.409 . S
C1211 H1203 0.930 . S
C1211 C1212 1.355 . S
C1211 C1213 1.415 1_554 S
C1212 C1211 1.355 . S
C1212 C1214 1.397 1_545 S
C1213 C1208 1.425 1_546 S
C1213 C1210 1.409 . S
C1213 C1211 1.415 1_556 S
C1214 H1204 0.934 . S
C1214 C1212 1.397 1_565 S
C1214 C1215 1.381 . S
C1215 H1205 0.930 . S
C1215 C1208 1.409 . S
C1215 C1214 1.381 . S
H1216 C1222 0.930 . S
H1217 C1225 0.930 . S
H1218 C1226 0.930 . S
H1219 C1227 0.930 . S
H1220 C1230 0.930 . S
H1221 C1231 0.930 . S
C1222 H1216 0.930 . S
C1222 C1223 1.355 . S
C1222 C1224 1.415 . S
C1223 C1222 1.355 . S
C1223 C1225 1.419 . S
C1224 C1222 1.415 . S
C1224 C1229 1.425 . S
C1224 C1231 1.409 . S
C1225 H1217 0.930 . S
C1225 C1223 1.419 . S
C1225 C1226 1.362 . S
C1226 H1218 0.930 . S
C1226 C1225 1.362 . S
C1226 C1229 1.409 . S
C1227 H1219 0.930 . S
C1227 C1228 1.355 . S
C1227 C1229 1.415 . S
C1228 C1227 1.355 . S
C1228 C1230 1.419 . S
C1229 C1224 1.425 . S
C1229 C1226 1.409 . S
C1229 C1227 1.415 . S
C1230 H1220 0.930 . S
C1230 C1228 1.419 . S
C1230 C1231 1.362 . S
C1231 H1221 0.930 . S
C1231 C1224 1.409 . S
C1231 C1230 1.362 . S
H1232 C1238 0.930 . S
H1233 C1241 0.936 . S
H1234 C1242 0.930 . S
H1235 C1243 0.930 . S
H1236 C1246 0.935 . S
H1237 C1247 0.930 . S
C1238 H1232 0.930 . S
C1238 C1239 1.355 . S
C1238 C1240 1.415 . S
C1239 C1238 1.355 . S
C1239 C1241 1.393 1_455 S
C1240 C1238 1.415 . S
C1240 C1245 1.425 1_455 S
C1240 C1247 1.409 . S
C1241 H1233 0.936 . S
C1241 C1239 1.393 1_655 S
C1241 C1242 1.384 . S
C1242 H1234 0.930 . S
C1242 C1241 1.384 . S
C1242 C1245 1.409 . S
C1243 H1235 0.930 . S
C1243 C1244 1.355 . S
C1243 C1245 1.415 . S
C1244 C1243 1.355 . S
C1244 C1246 1.394 1_655 S
C1245 C1240 1.425 1_655 S
C1245 C1242 1.409 . S
C1245 C1243 1.415 . S
C1246 H1236 0.935 . S
C1246 C1244 1.394 1_455 S
C1246 C1247 1.382 . S
C1247 H1237 0.930 . S
C1247 C1240 1.409 . S
C1247 C1246 1.382 . S
H1248 C1254 0.930 . S
H1249 C1257 0.930 . S
H1250 C1258 0.930 . S
H1251 C1259 0.930 . S
H1252 C1262 0.930 . S
H1253 C1263 0.930 . S
C1254 H1248 0.930 . S
C1254 C1255 1.355 . S
C1254 C1256 1.395 1_554 S
C1255 C1254 1.355 . S
C1255 C1257 1.419 . S
C1256 C1254 1.395 1_556 S
C1256 C1261 1.424 1_566 S
C1256 C1263 1.430 . S
C1257 H1249 0.930 . S
C1257 C1255 1.419 . S
C1257 C1258 1.362 1_565 S
C1258 H1250 0.930 . S
C1258 C1257 1.362 1_545 S
C1258 C1261 1.429 . S
C1259 H1251 0.930 . S
C1259 C1260 1.355 . S
C1259 C1261 1.396 1_556 S
C1260 C1259 1.355 . S
C1260 C1262 1.419 . S
C1261 C1256 1.424 1_544 S
C1261 C1258 1.429 . S
C1261 C1259 1.396 1_554 S
C1262 H1252 0.930 . S
C1262 C1260 1.419 . S
C1262 C1263 1.362 1_545 S
C1263 H1253 0.930 . S
C1263 C1256 1.430 . S
C1263 C1262 1.362 1_565 S
H1264 C1270 0.930 . S
H1265 C1273 0.930 . S
H1266 C1274 0.930 . S
H1267 C1275 0.930 . S
H1268 C1278 0.930 . S
H1269 C1279 0.930 . S
C1270 H1264 0.930 . S
C1270 C1271 1.355 . S
C1270 C1272 1.415 . S
C1271 C1270 1.355 . S
C1271 C1273 1.419 . S
C1272 C1270 1.415 . S
C1272 C1277 1.425 . S
C1272 C1279 1.409 . S
C1273 H1265 0.930 . S
C1273 C1271 1.419 . S
C1273 C1274 1.362 . S
C1274 H1266 0.930 . S
C1274 C1273 1.362 . S
C1274 C1277 1.409 . S
C1275 H1267 0.930 . S
C1275 C1276 1.355 . S
C1275 C1277 1.415 . S
C1276 C1275 1.355 . S
C1276 C1278 1.419 . S
C1277 C1272 1.425 . S
C1277 C1274 1.409 . S
C1277 C1275 1.415 . S
C1278 H1268 0.930 . S
C1278 C1276 1.419 . S
C1278 C1279 1.362 . S
C1279 H1269 0.930 . S
C1279 C1272 1.409 . S
C1279 C1278 1.362 . S
H1280 C1286 0.930 . S
H1281 C1289 0.930 . S
H1282 C1290 0.930 . S
H1283 C1291 0.930 . S
H1284 C1294 0.930 . S
H1285 C1295 0.930 . S
C1286 H1280 0.930 . S
C1286 C1287 1.355 . S
C1286 C1288 1.415 . S
C1287 C1286 1.355 . S
C1287 C1289 1.419 1_455 S
C1288 C1286 1.415 . S
C1288 C1293 1.425 1_455 S
C1288 C1295 1.409 . S
C1289 H1281 0.930 . S
C1289 C1287 1.419 1_655 S
C1289 C1290 1.362 . S
C1290 H1282 0.930 . S
C1290 C1289 1.362 . S
C1290 C1293 1.409 . S
C1291 H1283 0.930 . S
C1291 C1292 1.355 . S
C1291 C1293 1.415 . S
C1292 C1291 1.355 . S
C1292 C1294 1.419 1_655 S
C1293 C1288 1.425 1_655 S
C1293 C1290 1.409 . S
C1293 C1291 1.415 . S
C1294 H1284 0.930 . S
C1294 C1292 1.419 1_455 S
C1294 C1295 1.362 . S
C1295 H1285 0.930 . S
C1295 C1288 1.409 . S
C1295 C1294 1.362 . S
H1296 C1302 0.930 . S
H1297 C1305 0.930 . S
H1298 C1306 0.930 . S
H1299 C1307 0.930 . S
H1300 C1310 0.930 . S
H1301 C1311 0.930 . S
C1302 H1296 0.930 . S
C1302 C1303 1.355 . S
C1302 C1304 1.415 . S
C1303 C1302 1.355 . S
C1303 C1305 1.419 . S
C1304 C1302 1.415 . S
C1304 C1309 1.425 1_545 S
C1304 C1311 1.409 . S
C1305 H1297 0.930 . S
C1305 C1303 1.419 . S
C1305 C1306 1.362 1_545 S
C1306 H1298 0.930 . S
C1306 C1305 1.362 1_565 S
C1306 C1309 1.409 . S
C1307 H1299 0.930 . S
C1307 C1308 1.355 . S
C1307 C1309 1.415 . S
C1308 C1307 1.355 . S
C1308 C1310 1.419 . S
C1309 C1304 1.425 1_565 S
C1309 C1306 1.409 . S
C1309 C1307 1.415 . S
C1310 H1300 0.930 . S
C1310 C1308 1.419 . S
C1310 C1311 1.362 1_565 S
C1311 H1301 0.930 . S
C1311 C1304 1.409 . S
C1311 C1310 1.362 1_545 S
H1312 C1318 0.930 . S
H1313 C1321 0.930 . S
H1314 C1322 0.930 . S
H1315 C1323 0.930 . S
H1316 C1326 0.930 . S
H1317 C1327 0.930 . S
C1318 H1312 0.930 . S
C1318 C1319 1.355 . S
C1318 C1320 1.415 . S
C1319 C1318 1.355 . S
C1319 C1321 1.419 . S
C1320 C1318 1.415 . S
C1320 C1325 1.425 . S
C1320 C1327 1.409 . S
C1321 H1313 0.930 . S
C1321 C1319 1.419 . S
C1321 C1322 1.362 . S
C1322 H1314 0.930 . S
C1322 C1321 1.362 . S
C1322 C1325 1.409 . S
C1323 H1315 0.930 . S
C1323 C1324 1.355 . S
C1323 C1325 1.415 . S
C1324 C1323 1.355 . S
C1324 C1326 1.419 . S
C1325 C1320 1.425 . S
C1325 C1322 1.409 . S
C1325 C1323 1.415 . S
C1326 H1316 0.930 . S
C1326 C1324 1.419 . S
C1326 C1327 1.362 . S
C1327 H1317 0.930 . S
C1327 C1320 1.409 . S
C1327 C1326 1.362 . S
H1328 C1334 0.930 . S
H1329 C1337 0.930 . S
H1330 C1338 0.930 . S
H1331 C1339 0.930 . S
H1332 C1342 0.930 . S
H1333 C1343 0.930 . S
C1334 H1328 0.930 . S
C1334 C1335 1.355 . S
C1334 C1336 1.415 . S
C1335 C1334 1.355 . S
C1335 C1337 1.419 . S
C1336 C1334 1.415 . S
C1336 C1341 1.425 1_655 S
C1336 C1343 1.409 . S
C1337 H1329 0.930 . S
C1337 C1335 1.419 . S
C1337 C1338 1.362 1_655 S
C1338 H1330 0.930 . S
C1338 C1337 1.362 1_455 S
C1338 C1341 1.409 . S
C1339 H1331 0.930 . S
C1339 C1340 1.355 . S
C1339 C1341 1.415 . S
C1340 C1339 1.355 . S
C1340 C1342 1.419 . S
C1341 C1336 1.425 1_455 S
C1341 C1338 1.409 . S
C1341 C1339 1.415 . S
C1342 H1332 0.930 . S
C1342 C1340 1.419 . S
C1342 C1343 1.362 1_455 S
C1343 H1333 0.930 . S
C1343 C1336 1.409 . S
C1343 C1342 1.362 1_655 S
H1344 C1350 0.930 . S
H1345 C1353 0.930 . S
H1346 C1354 0.930 . S
H1347 C1355 0.930 . S
H1348 C1358 0.930 . S
H1349 C1359 0.930 . S
C1350 H1344 0.930 . S
C1350 C1351 1.355 . S
C1350 C1352 1.415 1_455 S
C1351 C1350 1.355 . S
C1351 C1353 1.419 . S
C1352 C1350 1.415 1_655 S
C1352 C1357 1.425 1_655 S
C1352 C1359 1.409 . S
C1353 H1345 0.930 . S
C1353 C1351 1.419 . S
C1353 C1354 1.362 . S
C1354 H1346 0.930 . S
C1354 C1353 1.362 . S
C1354 C1357 1.409 . S
C1355 H1347 0.930 . S
C1355 C1356 1.355 . S
C1355 C1357 1.415 1_655 S
C1356 C1355 1.355 . S
C1356 C1358 1.419 . S
C1357 C1352 1.425 1_455 S
C1357 C1354 1.409 . S
C1357 C1355 1.415 1_455 S
C1358 H1348 0.930 . S
C1358 C1356 1.419 . S
C1358 C1359 1.362 . S
C1359 H1349 0.930 . S
C1359 C1352 1.409 . S
C1359 C1358 1.362 . S
H1360 C1366 0.930 . S
H1361 C1369 0.930 . S
H1362 C1370 0.930 . S
H1363 C1371 0.930 . S
H1364 C1374 0.930 . S
H1365 C1375 0.930 . S
C1366 H1360 0.930 . S
C1366 C1367 1.355 . S
C1366 C1368 1.415 . S
C1367 C1366 1.355 . S
C1367 C1369 1.419 . S
C1368 C1366 1.415 . S
C1368 C1373 1.425 1_565 S
C1368 C1375 1.409 . S
C1369 H1361 0.930 . S
C1369 C1367 1.419 . S
C1369 C1370 1.362 1_565 S
C1370 H1362 0.930 . S
C1370 C1369 1.362 1_545 S
C1370 C1373 1.409 . S
C1371 H1363 0.930 . S
C1371 C1372 1.355 . S
C1371 C1373 1.415 . S
C1372 C1371 1.355 . S
C1372 C1374 1.419 . S
C1373 C1368 1.425 1_545 S
C1373 C1370 1.409 . S
C1373 C1371 1.415 . S
C1374 H1364 0.930 . S
C1374 C1372 1.419 . S
C1374 C1375 1.362 1_545 S
C1375 H1365 0.930 . S
C1375 C1368 1.409 . S
C1375 C1374 1.362 1_565 S
H1376 C1382 0.930 . S
H1377 C1385 0.930 . S
H1378 C1386 0.930 . S
H1379 C1387 0.930 . S
H1380 C1390 0.930 . S
H1381 C1391 0.930 . S
C1382 H1376 0.930 . S
C1382 C1383 1.355 . S
C1382 C1384 1.415 . S
C1383 C1382 1.355 . S
C1383 C1385 1.419 . S
C1384 C1382 1.415 . S
C1384 C1389 1.425 . S
C1384 C1391 1.409 . S
C1385 H1377 0.930 . S
C1385 C1383 1.419 . S
C1385 C1386 1.362 . S
C1386 H1378 0.930 . S
C1386 C1385 1.362 . S
C1386 C1389 1.409 . S
C1387 H1379 0.930 . S
C1387 C1388 1.355 . S
C1387 C1389 1.415 . S
C1388 C1387 1.355 . S
C1388 C1390 1.419 . S
C1389 C1384 1.425 . S
C1389 C1386 1.409 . S
C1389 C1387 1.415 . S
C1390 H1380 0.930 . S
C1390 C1388 1.419 . S
C1390 C1391 1.362 . S
C1391 H1381 0.930 . S
C1391 C1384 1.409 . S
C1391 C1390 1.362 . S
H1392 C1398 0.930 . S
H1393 C1401 0.930 . S
H1394 C1402 0.930 . S
H1395 C1403 0.930 . S
H1396 C1406 0.930 . S
H1397 C1407 0.930 . S
C1398 H1392 0.930 . S
C1398 C1399 1.355 . S
C1398 C1400 1.415 1_565 S
C1399 C1398 1.355 . S
C1399 C1401 1.419 . S
C1400 C1398 1.415 1_545 S
C1400 C1405 1.425 1_545 S
C1400 C1407 1.409 . S
C1401 H1393 0.930 . S
C1401 C1399 1.419 . S
C1401 C1402 1.362 . S
C1402 H1394 0.930 . S
C1402 C1401 1.362 . S
C1402 C1405 1.409 . S
C1403 H1395 0.930 . S
C1403 C1404 1.355 . S
C1403 C1405 1.415 1_545 S
C1404 C1403 1.355 . S
C1404 C1406 1.419 . S
C1405 C1400 1.425 1_565 S
C1405 C1402 1.409 . S
C1405 C1403 1.415 1_565 S
C1406 H1396 0.930 . S
C1406 C1404 1.419 . S
C1406 C1407 1.362 . S
C1407 H1397 0.930 . S
C1407 C1400 1.409 . S
C1407 C1406 1.362 . S
H1408 C1414 0.930 . S
H1409 C1417 0.930 . S
H1410 C1418 0.930 . S
H1411 C1419 0.930 . S
H1412 C1422 0.930 . S
H1413 C1423 0.930 . S
C1414 H1408 0.930 . S
C1414 C1415 1.355 . S
C1414 C1416 1.415 . S
C1415 C1414 1.355 . S
C1415 C1417 1.419 . S
C1416 C1414 1.415 . S
C1416 C1421 1.425 . S
C1416 C1423 1.409 . S
C1417 H1409 0.930 . S
C1417 C1415 1.419 . S
C1417 C1418 1.362 . S
C1418 H1410 0.930 . S
C1418 C1417 1.362 . S
C1418 C1421 1.409 . S
C1419 H1411 0.930 . S
C1419 C1420 1.355 . S
C1419 C1421 1.415 . S
C1420 C1419 1.355 . S
C1420 C1422 1.419 . S
C1421 C1416 1.425 . S
C1421 C1418 1.409 . S
C1421 C1419 1.415 . S
C1422 H1412 0.930 . S
C1422 C1420 1.419 . S
C1422 C1423 1.362 . S
C1423 H1413 0.930 . S
C1423 C1416 1.409 . S
C1423 C1422 1.362 . S
H1424 C1430 0.930 . S
H1425 C1433 0.930 . S
H1426 C1434 0.930 . S
H1427 C1435 0.930 . S
H1428 C1438 0.930 . S
H1429 C1439 0.930 . S
C1430 H1424 0.930 . S
C1430 C1431 1.355 . S
C1430 C1432 1.415 1_655 S
C1431 C1430 1.355 . S
C1431 C1433 1.419 . S
C1432 C1430 1.415 1_455 S
C1432 C1437 1.425 1_455 S
C1432 C1439 1.409 . S
C1433 H1425 0.930 . S
C1433 C1431 1.419 . S
C1433 C1434 1.362 . S
C1434 H1426 0.930 . S
C1434 C1433 1.362 . S
C1434 C1437 1.409 . S
C1435 H1427 0.930 . S
C1435 C1436 1.355 . S
C1435 C1437 1.415 1_455 S
C1436 C1435 1.355 . S
C1436 C1438 1.419 . S
C1437 C1432 1.425 1_655 S
C1437 C1434 1.409 . S
C1437 C1435 1.415 1_655 S
C1438 H1428 0.930 . S
C1438 C1436 1.419 . S
C1438 C1439 1.362 . S
C1439 H1429 0.930 . S
C1439 C1432 1.409 . S
C1439 C1438 1.362 . S
H1440 C1446 0.930 . S
H1441 C1449 0.930 . S
H1442 C1450 0.930 . S
H1443 C1451 0.930 . S
H1444 C1454 0.930 . S
H1445 C1455 0.930 . S
C1446 H1440 0.930 . S
C1446 C1447 1.355 . S
C1446 C1448 1.415 1_545 S
C1447 C1446 1.355 . S
C1447 C1449 1.419 . S
C1448 C1446 1.415 1_565 S
C1448 C1453 1.425 1_565 S
C1448 C1455 1.409 . S
C1449 H1441 0.930 . S
C1449 C1447 1.419 . S
C1449 C1450 1.362 . S
C1450 H1442 0.930 . S
C1450 C1449 1.362 . S
C1450 C1453 1.409 . S
C1451 H1443 0.930 . S
C1451 C1452 1.355 . S
C1451 C1453 1.415 1_565 S
C1452 C1451 1.355 . S
C1452 C1454 1.419 . S
C1453 C1448 1.425 1_545 S
C1453 C1450 1.409 . S
C1453 C1451 1.415 1_545 S
C1454 H1444 0.930 . S
C1454 C1452 1.419 . S
C1454 C1455 1.362 . S
C1455 H1445 0.930 . S
C1455 C1448 1.409 . S
C1455 C1454 1.362 . S
H1456 C1462 0.930 . S
H1457 C1465 0.930 . S
H1458 C1466 0.930 . S
H1459 C1467 0.930 . S
H1460 C1470 0.930 . S
H1461 C1471 0.930 . S
C1462 H1456 0.930 . S
C1462 C1463 1.355 . S
C1462 C1464 1.415 . S
C1463 C1462 1.355 . S
C1463 C1465 1.419 . S
C1464 C1462 1.415 . S
C1464 C1469 1.425 . S
C1464 C1471 1.409 . S
C1465 H1457 0.930 . S
C1465 C1463 1.419 . S
C1465 C1466 1.362 . S
C1466 H1458 0.930 . S
C1466 C1465 1.362 . S
C1466 C1469 1.409 . S
C1467 H1459 0.930 . S
C1467 C1468 1.355 . S
C1467 C1469 1.415 . S
C1468 C1467 1.355 . S
C1468 C1470 1.419 . S
C1469 C1464 1.425 . S
C1469 C1466 1.409 . S
C1469 C1467 1.415 . S
C1470 H1460 0.930 . S
C1470 C1468 1.419 . S
C1470 C1471 1.362 . S
C1471 H1461 0.930 . S
C1471 C1464 1.409 . S
C1471 C1470 1.362 . S
H1472 C1478 0.930 . S
H1473 C1481 0.930 . S
H1474 C1482 0.930 1_655 S
H1475 C1483 0.930 . S
H1476 C1486 0.930 . S
H1477 C1487 0.931 1_455 S
C1478 H1472 0.930 . S
C1478 C1479 1.355 . S
C1478 C1480 1.415 . S
C1479 C1478 1.355 . S
C1479 C1481 1.419 . S
C1480 C1478 1.415 . S
C1480 C1485 1.425 1_455 S
C1480 C1487 1.409 1_455 S
C1481 H1473 0.930 . S
C1481 C1479 1.419 . S
C1481 C1482 1.362 . S
C1482 H1474 0.930 1_455 S
C1482 C1481 1.362 . S
C1482 C1485 1.409 1_455 S
C1483 H1475 0.930 . S
C1483 C1484 1.355 . S
C1483 C1485 1.415 . S
C1484 C1483 1.355 . S
C1484 C1486 1.419 . S
C1485 C1480 1.425 1_655 S
C1485 C1482 1.409 1_655 S
C1485 C1483 1.415 . S
C1486 H1476 0.930 . S
C1486 C1484 1.419 . S
C1486 C1487 1.362 . S
C1487 H1477 0.931 1_655 S
C1487 C1480 1.409 1_655 S
C1487 C1486 1.362 . S
H1488 C1494 0.930 . S
H1489 C1497 0.930 . S
H1490 C1498 0.930 . S
H1491 C1499 0.930 . S
H1492 C1502 0.930 . S
H1493 C1503 0.930 . S
C1494 H1488 0.930 . S
C1494 C1495 1.355 . S
C1494 C1496 1.415 . S
C1495 C1494 1.355 . S
C1495 C1497 1.419 . S
C1496 C1494 1.415 . S
C1496 C1501 1.425 . S
C1496 C1503 1.409 . S
C1497 H1489 0.930 . S
C1497 C1495 1.419 . S
C1497 C1498 1.362 . S
C1498 H1490 0.930 . S
C1498 C1497 1.362 . S
C1498 C1501 1.409 . S
C1499 H1491 0.930 . S
C1499 C1500 1.355 . S
C1499 C1501 1.415 . S
C1500 C1499 1.355 . S
C1500 C1502 1.419 . S
C1501 C1496 1.425 . S
C1501 C1498 1.409 . S
C1501 C1499 1.415 . S
C1502 H1492 0.930 . S
C1502 C1500 1.419 . S
C1502 C1503 1.362 . S
C1503 H1493 0.930 . S
C1503 C1496 1.409 . S
C1503 C1502 1.362 . S
H1504 C1510 0.930 . S
H1505 C1513 0.930 . S
H1506 C1514 0.930 . S
H1507 C1515 0.930 . S
H1508 C1518 0.930 . S
H1509 C1519 0.930 . S
C1510 H1504 0.930 . S
C1510 C1511 1.355 . S
C1510 C1512 1.415 . S
C1511 C1510 1.355 . S
C1511 C1513 1.419 . S
C1512 C1510 1.415 . S
C1512 C1517 1.425 . S
C1512 C1519 1.409 . S
C1513 H1505 0.930 . S
C1513 C1511 1.419 . S
C1513 C1514 1.362 . S
C1514 H1506 0.930 . S
C1514 C1513 1.362 . S
C1514 C1517 1.409 . S
C1515 H1507 0.930 . S
C1515 C1516 1.355 . S
C1515 C1517 1.415 . S
C1516 C1515 1.355 . S
C1516 C1518 1.419 . S
C1517 C1512 1.425 . S
C1517 C1514 1.409 . S
C1517 C1515 1.415 . S
C1518 H1508 0.930 . S
C1518 C1516 1.419 . S
C1518 C1519 1.362 . S
C1519 H1509 0.930 . S
C1519 C1512 1.409 . S
C1519 C1518 1.362 . S
H1520 C1526 0.930 . S
H1521 C1529 0.930 . S
H1522 C1530 0.930 . S
H1523 C1531 0.930 . S
H1524 C1534 0.930 . S
H1525 C1535 0.930 . S
C1526 H1520 0.930 . S
C1526 C1527 1.355 . S
C1526 C1528 1.415 . S
C1527 C1526 1.355 . S
C1527 C1529 1.419 . S
C1528 C1526 1.415 . S
C1528 C1533 1.425 . S
C1528 C1535 1.409 . S
C1529 H1521 0.930 . S
C1529 C1527 1.419 . S
C1529 C1530 1.362 . S
C1530 H1522 0.930 . S
C1530 C1529 1.362 . S
C1530 C1533 1.409 . S
C1531 H1523 0.930 . S
C1531 C1532 1.355 . S
C1531 C1533 1.415 . S
C1532 C1531 1.355 . S
C1532 C1534 1.419 . S
C1533 C1528 1.425 . S
C1533 C1530 1.409 . S
C1533 C1531 1.415 . S
C1534 H1524 0.930 . S
C1534 C1532 1.419 . S
C1534 C1535 1.362 . S
C1535 H1525 0.930 . S
C1535 C1528 1.409 . S
C1535 C1534 1.362 . S
H1536 C1542 0.930 . S
H1537 C1545 0.930 . S
H1538 C1546 0.930 . S
H1539 C1547 0.930 . S
H1540 C1550 0.930 . S
H1541 C1551 0.930 . S
C1542 H1536 0.930 . S
C1542 C1543 1.355 . S
C1542 C1544 1.415 . S
C1543 C1542 1.355 . S
C1543 C1545 1.419 . S
C1544 C1542 1.415 . S
C1544 C1549 1.425 . S
C1544 C1551 1.409 . S
C1545 H1537 0.930 . S
C1545 C1543 1.419 . S
C1545 C1546 1.362 . S
C1546 H1538 0.930 . S
C1546 C1545 1.362 . S
C1546 C1549 1.409 . S
C1547 H1539 0.930 . S
C1547 C1548 1.355 . S
C1547 C1549 1.415 . S
C1548 C1547 1.355 . S
C1548 C1550 1.419 . S
C1549 C1544 1.425 . S
C1549 C1546 1.409 . S
C1549 C1547 1.415 . S
C1550 H1540 0.930 . S
C1550 C1548 1.419 . S
C1550 C1551 1.362 . S
C1551 H1541 0.930 . S
C1551 C1544 1.409 . S
C1551 C1550 1.362 . S
H1552 C1558 0.930 . S
H1553 C1561 0.930 . S
H1554 C1562 0.930 . S
H1555 C1563 0.930 . S
H1556 C1566 0.930 . S
H1557 C1567 0.930 . S
C1558 H1552 0.930 . S
C1558 C1559 1.355 . S
C1558 C1560 1.415 . S
C1559 C1558 1.355 . S
C1559 C1561 1.419 . S
C1560 C1558 1.415 . S
C1560 C1565 1.425 . S
C1560 C1567 1.409 . S
C1561 H1553 0.930 . S
C1561 C1559 1.419 . S
C1561 C1562 1.362 . S
C1562 H1554 0.930 . S
C1562 C1561 1.362 . S
C1562 C1565 1.409 . S
C1563 H1555 0.930 . S
C1563 C1564 1.355 . S
C1563 C1565 1.415 . S
C1564 C1563 1.355 . S
C1564 C1566 1.419 . S
C1565 C1560 1.425 . S
C1565 C1562 1.409 . S
C1565 C1563 1.415 . S
C1566 H1556 0.930 . S
C1566 C1564 1.419 . S
C1566 C1567 1.362 . S
C1567 H1557 0.930 . S
C1567 C1560 1.409 . S
C1567 C1566 1.362 . S
H1568 C1574 0.930 . S
H1569 C1577 0.930 . S
H1570 C1578 0.930 . S
H1571 C1579 0.930 . S
H1572 C1582 0.930 . S
H1573 C1583 0.930 . S
C1574 H1568 0.930 . S
C1574 C1575 1.355 . S
C1574 C1576 1.415 . S
C1575 C1574 1.355 . S
C1575 C1577 1.419 . S
C1576 C1574 1.415 . S
C1576 C1581 1.425 . S
C1576 C1583 1.409 . S
C1577 H1569 0.930 . S
C1577 C1575 1.419 . S
C1577 C1578 1.362 . S
C1578 H1570 0.930 . S
C1578 C1577 1.362 . S
C1578 C1581 1.409 . S
C1579 H1571 0.930 . S
C1579 C1580 1.355 . S
C1579 C1581 1.415 . S
C1580 C1579 1.355 . S
C1580 C1582 1.419 . S
C1581 C1576 1.425 . S
C1581 C1578 1.409 . S
C1581 C1579 1.415 . S
C1582 H1572 0.930 . S
C1582 C1580 1.419 . S
C1582 C1583 1.362 . S
C1583 H1573 0.930 . S
C1583 C1576 1.409 . S
C1583 C1582 1.362 . S
C1015 C63 1.153 . S
C1020 C735 1.151 . S
C1031 C147 1.153 . S
C1036 C819 1.151 . S
C1047 C231 1.177 . S
C1052 C903 1.178 . S
C1063 C987 1.175 . S
C1068 C315 1.169 . S
C1079 C399 1.151 . S
C1084 C567 1.155 . S
C1095 C651 1.174 . S
C1100 C483 1.168 . S
C1111 C898 1.595 . S
C1116 C58 1.497 . S
C1127 C982 1.603 . S
C1132 C142 1.511 . S
C1143 C226 1.534 . S
C1148 C562 1.482 . S
C1159 C646 1.482 . S
C1164 C310 1.575 . S
C1175 C730 1.526 . S
C1180 C394 1.606 . S
C1191 C478 1.488 . S
C1196 C814 1.586 . S
C1207 C655 4.513 . S
C1212 C67 4.512 . S
C1223 C739 4.508 . S
C1228 C151 4.518 . S
C1239 C823 4.515 . S
C1244 C235 4.510 . S
C1255 C319 4.518 . S
C1260 C907 4.508 . S
C1271 C403 4.517 . S
C1276 C991 4.508 . S
C1287 C487 4.514 . S
C1292 C571 4.512 . S
C1303 C74 0.810 . S
C1308 C326 0.876 . S
C1319 C158 0.829 . S
C1324 C410 0.837 . S
C1335 C242 0.793 . S
C1340 C494 0.888 . S
C1351 C830 0.880 . S
C1356 C578 0.788 . S
C1367 C662 0.838 . S
C1372 C914 0.850 . S
C1383 C998 0.855 . S
C1388 C746 0.833 . S
C1399 C657 0.479 . S
C1404 C69 0.622 . S
C1415 C741 0.478 . S
C1420 C153 0.625 . S
C1431 C237 0.511 . S
C1436 C825 0.595 . S
C1447 C909 0.520 . S
C1452 C321 0.586 . S
C1463 C993 0.611 . S
C1468 C405 0.493 . S
C1479 C489 0.629 . S
C1484 C573 0.472 . S
C1495 C56 3.636 . S
C1500 C896 3.648 . S
C1511 C140 3.628 . S
C1516 C980 3.653 1_556 S
C1527 C224 3.628 1_554 S
C1532 C560 3.654 . S
C1543 C308 3.650 . S
C1548 C644 3.626 . S
C1559 C392 3.651 . S
C1564 C728 3.625 1_556 S
C1575 C812 3.652 . S
C1580 C476 3.625 1_554 S
