# Generated by pormake.
# Topology umm, (4)-cn, num edge types: 1
# Building blocks:
#     Node 0, Type 0, BuildingBlock: ICAMEG_clean_sbu_1, # of connection points: 4
#     Node 1, Type 0, BuildingBlock: ICAMEG_clean_sbu_1, # of connection points: 4
#     Node 2, Type 0, BuildingBlock: ICAMEG_clean_sbu_1, # of connection points: 4
#     Node 3, Type 0, BuildingBlock: ICAMEG_clean_sbu_1, # of connection points: 4
#     Node 4, Type 0, BuildingBlock: ICAMEG_clean_sbu_1, # of connection points: 4
#     Node 5, Type 0, BuildingBlock: ICAMEG_clean_sbu_1, # of connection points: 4
#     Node 6, Type 0, BuildingBlock: ICAMEG_clean_sbu_1, # of connection points: 4
#     Node 7, Type 0, BuildingBlock: ICAMEG_clean_sbu_1, # of connection points: 4
#     Node 8, Type 0, BuildingBlock: ICAMEG_clean_sbu_1, # of connection points: 4
#     Node 9, Type 0, BuildingBlock: ICAMEG_clean_sbu_1, # of connection points: 4
#     Node 10, Type 0, BuildingBlock: ICAMEG_clean_sbu_1, # of connection points: 4
#     Node 11, Type 0, BuildingBlock: ICAMEG_clean_sbu_1, # of connection points: 4
#     Edge 12, Type (0, 0), BuildingBlock: MIFKUJ_clean_linker_0, # of connection points: 2
#     Edge 13, Type (0, 0), BuildingBlock: MIFKUJ_clean_linker_0, # of connection points: 2
#     Edge 14, Type (0, 0), BuildingBlock: MIFKUJ_clean_linker_0, # of connection points: 2
#     Edge 15, Type (0, 0), BuildingBlock: MIFKUJ_clean_linker_0, # of connection points: 2
#     Edge 16, Type (0, 0), BuildingBlock: MIFKUJ_clean_linker_0, # of connection points: 2
#     Edge 17, Type (0, 0), BuildingBlock: MIFKUJ_clean_linker_0, # of connection points: 2
#     Edge 18, Type (0, 0), BuildingBlock: MIFKUJ_clean_linker_0, # of connection points: 2
#     Edge 19, Type (0, 0), BuildingBlock: MIFKUJ_clean_linker_0, # of connection points: 2
#     Edge 20, Type (0, 0), BuildingBlock: MIFKUJ_clean_linker_0, # of connection points: 2
#     Edge 21, Type (0, 0), BuildingBlock: MIFKUJ_clean_linker_0, # of connection points: 2
#     Edge 22, Type (0, 0), BuildingBlock: MIFKUJ_clean_linker_0, # of connection points: 2
#     Edge 23, Type (0, 0), BuildingBlock: MIFKUJ_clean_linker_0, # of connection points: 2
#     Edge 24, Type (0, 0), BuildingBlock: MIFKUJ_clean_linker_0, # of connection points: 2
#     Edge 25, Type (0, 0), BuildingBlock: MIFKUJ_clean_linker_0, # of connection points: 2
#     Edge 26, Type (0, 0), BuildingBlock: MIFKUJ_clean_linker_0, # of connection points: 2
#     Edge 27, Type (0, 0), BuildingBlock: MIFKUJ_clean_linker_0, # of connection points: 2
#     Edge 28, Type (0, 0), BuildingBlock: MIFKUJ_clean_linker_0, # of connection points: 2
#     Edge 29, Type (0, 0), BuildingBlock: MIFKUJ_clean_linker_0, # of connection points: 2
#     Edge 30, Type (0, 0), BuildingBlock: MIFKUJ_clean_linker_0, # of connection points: 2
#     Edge 31, Type (0, 0), BuildingBlock: MIFKUJ_clean_linker_0, # of connection points: 2
#     Edge 32, Type (0, 0), BuildingBlock: MIFKUJ_clean_linker_0, # of connection points: 2
#     Edge 33, Type (0, 0), BuildingBlock: MIFKUJ_clean_linker_0, # of connection points: 2
#     Edge 34, Type (0, 0), BuildingBlock: MIFKUJ_clean_linker_0, # of connection points: 2
#     Edge 35, Type (0, 0), BuildingBlock: MIFKUJ_clean_linker_0, # of connection points: 2
# Relax obj value: 0.067
# Max RMSD: 0.165
# Mean RMSD: 0.165
data_MOF--net-umm--node1-ICAMEG_clean_sbu_1--edge1-MIFKUJ_clean_linker_0
_symmetry_space_group_name_H-M    P1
_symmetry_Int_Tables_number       1
_symmetry_cell_setting            triclinic
loop_
_symmetry_equiv_pos_as_xyz
'x, y, z'
_cell_length_a     77.674136
_cell_length_b     77.59041
_cell_length_c     38.558591
_cell_angle_alpha  90.002325
_cell_angle_beta   89.975149
_cell_angle_gamma 120.01362
loop_
_atom_site_label
_atom_site_type_symbol
_atom_site_fract_x
_atom_site_fract_y
_atom_site_fract_z
_atom_type_partial_charge
Co0 Co 0.38046 0.51034 0.05847 0.0
Co1 Co 0.41463 0.55928 0.07831 0.0
O2 O 0.38857 0.53544 0.08234 0.0
C3 C 0.35292 0.52322 0.03463 0.0
O4 O 0.36884 0.5407 0.03012 0.0
C5 C 0.41001 0.54968 0.15259 0.0
O6 O 0.40347 0.53114 0.14339 0.0
O7 O 0.42824 0.5436 0.08456 0.0
O8 O 0.40626 0.5119 0.07028 0.0
H9 H 0.4847 0.60011 0.03454 0.0
H10 H 0.35402 0.51258 0.11163 0.0
O11 O 0.35461 0.5087 0.04596 0.0
H12 H 0.36977 0.46223 0.15486 0.0
H13 H 0.3312 0.43993 0.02421 0.0
H14 H 0.40017 0.49515 0.01162 0.0
H15 H 0.38305 0.47893 0.09875 0.0
H16 H 0.34234 0.47183 0.05442 0.0
O17 O 0.41511 0.56316 0.1296 0.0
H18 H 0.45156 0.57009 0.03917 0.0
H19 H 0.4334 0.5995 0.1108 0.0
H20 H 0.38972 0.46346 0.98118 0.0
H21 H 0.34028 0.49612 0.16774 0.0
H22 H 0.35501 0.43558 0.98739 0.0
H23 H 0.34821 0.4708 0.18975 0.0
O24 O 0.39206 0.52419 0.01378 0.0
H25 H 0.36432 0.57986 0.10651 0.0
H26 H 0.41851 0.58997 0.0274 0.0
H27 H 0.40097 0.60869 0.01778 0.0
H28 H 0.37365 0.60367 0.0575 0.0
H29 H 0.38216 0.56134 0.11503 0.0
H30 H 0.4664 0.62979 0.10717 0.0
H31 H 0.49229 0.63024 0.06871 0.0
O32 O 0.41476 0.55573 0.02725 0.0
C33 C 0.42353 0.52549 0.0798 0.0
C34 C 0.47352 0.60012 0.05129 0.0
C35 C 0.46326 0.61678 0.09209 0.0
N36 N 0.44051 0.58312 0.07497 0.0
C37 C 0.45471 0.58319 0.05393 0.0
C38 C 0.44461 0.59957 0.09408 0.0
C39 C 0.47778 0.61702 0.0705 0.0
C40 C 0.35736 0.50142 0.12087 0.0
N41 N 0.36923 0.49664 0.10186 0.0
C42 C 0.34961 0.49222 0.15273 0.0
C43 C 0.35409 0.47803 0.16508 0.0
C44 C 0.3662 0.47322 0.14553 0.0
C45 C 0.3737 0.48275 0.11381 0.0
C46 C 0.34638 0.45195 0.02136 0.0
C47 C 0.38508 0.48303 0.01462 0.0
C48 C 0.35275 0.47006 0.03834 0.0
N49 N 0.37192 0.48526 0.03499 0.0
C50 C 0.37923 0.46515 -0.00276 0.0
C51 C 0.35974 0.44952 0.00071 0.0
C52 C 0.4056 0.54171 0.00542 0.0
C53 C 0.37624 0.58222 0.08909 0.0
C54 C 0.40664 0.58771 0.0448 0.0
C55 C 0.39678 0.59837 0.03925 0.0
C56 C 0.38146 0.59556 0.06156 0.0
N57 N 0.40143 0.57466 0.07188 0.0
C58 C 0.38645 0.57185 0.09388 0.0
Co59 Co 0.86892 0.3744 0.39281 0.0
Co60 Co 0.85481 0.40935 0.41042 0.0
O61 O 0.85244 0.38327 0.41653 0.0
C62 C 0.82793 0.34608 0.37274 0.0
O63 O 0.82595 0.36175 0.36803 0.0
C64 C 0.86124 0.40734 0.48479 0.0
O65 O 0.8724 0.39972 0.47623 0.0
O66 O 0.88408 0.42287 0.41568 0.0
O67 O 0.89345 0.40054 0.40223 0.0
H68 H 0.88445 0.47852 0.36183 0.0
H69 H 0.84135 0.34956 0.44859 0.0
O70 O 0.84451 0.34819 0.38274 0.0
H71 H 0.9082 0.36622 0.48874 0.0
H72 H 0.88934 0.32417 0.3616 0.0
H73 H 0.90287 0.39279 0.34381 0.0
H74 H 0.90369 0.37802 0.43193 0.0
H75 H 0.86919 0.33614 0.39148 0.0
O76 O 0.85227 0.41146 0.46147 0.0
H77 H 0.88107 0.44539 0.36924 0.0
H78 H 0.83378 0.42912 0.44068 0.0
H79 H 0.9235 0.38151 0.31367 0.0
H80 H 0.84516 0.33728 0.50547 0.0
H81 H 0.91677 0.34697 0.32249 0.0
H82 H 0.87879 0.34567 0.52592 0.0
O83 O 0.8656 0.38452 0.34728 0.0
H84 H 0.78414 0.36042 0.44272 0.0
H85 H 0.82757 0.412 0.35893 0.0
H86 H 0.79123 0.39443 0.35057 0.0
H87 H 0.76925 0.36843 0.39267 0.0
H88 H 0.82059 0.37824 0.44991 0.0
H89 H 0.83674 0.46214 0.43431 0.0
H90 H 0.86216 0.48707 0.39451 0.0
O91 O 0.85778 0.40811 0.35957 0.0
C92 C 0.89733 0.41799 0.41104 0.0
C93 C 0.87323 0.46775 0.3791 0.0
C94 C 0.84648 0.45857 0.41982 0.0
N95 N 0.85706 0.43525 0.40497 0.0
C96 C 0.8712 0.44894 0.38328 0.0
C97 C 0.84488 0.4399 0.42334 0.0
C98 C 0.86074 0.47254 0.39748 0.0
C99 C 0.85601 0.3531 0.45718 0.0
N100 N 0.87227 0.36442 0.43691 0.0
C101 C 0.85808 0.34618 0.48947 0.0
C102 C 0.87696 0.35092 0.50095 0.0
C103 C 0.89347 0.36246 0.48011 0.0
C104 C 0.89083 0.36914 0.448 0.0
C105 C 0.89244 0.33927 0.3576 0.0
C106 C 0.89995 0.37778 0.34795 0.0
C107 C 0.88106 0.34611 0.37439 0.0
N108 N 0.88496 0.36518 0.36958 0.0
C109 C 0.91163 0.37146 0.33074 0.0
C110 C 0.90783 0.35207 0.33567 0.0
C111 C 0.86178 0.39806 0.33829 0.0
C112 C 0.79356 0.37177 0.42428 0.0
C113 C 0.8181 0.4007 0.37735 0.0
C114 C 0.79753 0.39082 0.37251 0.0
C115 C 0.78521 0.37625 0.39616 0.0
N116 N 0.82617 0.39621 0.405 0.0
C117 C 0.81419 0.38196 0.42832 0.0
Co118 Co 0.49973 0.87569 0.72196 0.0
Co119 Co 0.45218 0.86028 0.7515 0.0
O120 O 0.47686 0.85952 0.75149 0.0
C121 C 0.48686 0.83436 0.70371 0.0
O122 O 0.469 0.83212 0.70193 0.0
C123 C 0.46623 0.87053 0.82355 0.0
O124 O 0.48349 0.88406 0.81108 0.0
O125 O 0.46695 0.88988 0.75275 0.0
O126 O 0.49772 0.89992 0.73223 0.0
H127 H 0.40572 0.88435 0.71475 0.0
H128 H 0.50254 0.85074 0.77746 0.0
O129 O 0.50168 0.85134 0.71121 0.0
H130 H 0.55399 0.91962 0.80525 0.0
H131 H 0.56767 0.89731 0.67322 0.0
H132 H 0.5101 0.90782 0.67049 0.0
H133 H 0.53298 0.9124 0.75324 0.0
H134 H 0.53845 0.87732 0.71044 0.0
O135 O 0.45203 0.85941 0.80328 0.0
H136 H 0.43672 0.88289 0.71319 0.0
H137 H 0.4149 0.83929 0.79296 0.0
H138 H 0.53908 0.92829 0.63314 0.0
H139 H 0.52332 0.85726 0.82957 0.0
H140 H 0.56813 0.92307 0.63435 0.0
H141 H 0.54924 0.89192 0.84379 0.0
O142 O 0.48261 0.8703 0.68035 0.0
H143 H 0.43761 0.79195 0.78702 0.0
H144 H 0.41886 0.83001 0.70843 0.0
H145 H 0.40144 0.79339 0.70414 0.0
H146 H 0.41083 0.77412 0.74359 0.0
H147 H 0.4547 0.8286 0.79031 0.0
H148 H 0.38379 0.84049 0.79578 0.0
H149 H 0.37901 0.86306 0.75633 0.0
O150 O 0.45197 0.86129 0.69988 0.0
C151 C 0.48437 0.90345 0.74386 0.0
C152 C 0.40759 0.87437 0.73195 0.0
C153 C 0.39528 0.84977 0.77744 0.0
N154 N 0.42752 0.86086 0.75266 0.0
C155 C 0.42507 0.87342 0.73106 0.0
C156 C 0.41294 0.84919 0.77577 0.0
C157 C 0.39261 0.86245 0.75531 0.0
C158 C 0.51389 0.86584 0.78334 0.0
N159 N 0.51661 0.88116 0.76227 0.0
C160 C 0.52557 0.86945 0.81294 0.0
C161 C 0.54009 0.8889 0.82092 0.0
C162 C 0.54275 0.90446 0.79932 0.0
C163 C 0.53079 0.90028 0.76996 0.0
C164 C 0.55512 0.89974 0.6725 0.0
C165 C 0.52274 0.90556 0.67132 0.0
C166 C 0.53852 0.88844 0.69345 0.0
N167 N 0.52267 0.89152 0.6928 0.0
C168 C 0.53908 0.91715 0.65004 0.0
C169 C 0.55537 0.9142 0.65071 0.0
C170 C 0.46446 0.86528 0.67543 0.0
C171 C 0.43333 0.80018 0.76978 0.0
C172 C 0.42299 0.82172 0.72575 0.0
C173 C 0.41307 0.80099 0.72322 0.0
C174 C 0.41833 0.79019 0.74537 0.0
N175 N 0.43771 0.83142 0.74973 0.0
C176 C 0.4429 0.82092 0.77163 0.0
Co177 Co 0.62179 0.49196 0.0649 0.0
Co178 Co 0.58906 0.4437 0.09114 0.0
O179 O 0.61476 0.46824 0.0926 0.0
C180 C 0.6496 0.4789 0.04345 0.0
O181 O 0.63396 0.46101 0.04208 0.0
C182 C 0.59324 0.45709 0.16338 0.0
O183 O 0.60071 0.47526 0.15136 0.0
O184 O 0.57452 0.45871 0.09257 0.0
O185 O 0.59604 0.49033 0.07702 0.0
H186 H 0.51933 0.39872 0.04903 0.0
H187 H 0.64979 0.493 0.11825 0.0
O188 O 0.64765 0.49368 0.05218 0.0
H189 H 0.63395 0.54465 0.15321 0.0
H190 H 0.6687 0.56077 0.01975 0.0
H191 H 0.60012 0.504 0.0163 0.0
H192 H 0.61946 0.52495 0.10005 0.0
H193 H 0.65923 0.53062 0.05457 0.0
O194 O 0.58837 0.44256 0.14277 0.0
H195 H 0.5519 0.4296 0.05073 0.0
H196 H 0.57145 0.40539 0.13001 0.0
H197 H 0.60887 0.53392 0.98142 0.0
H198 H 0.66475 0.51247 0.17146 0.0
H199 H 0.64339 0.56257 0.98298 0.0
H200 H 0.65679 0.53845 0.1893 0.0
O201 O 0.60942 0.47584 0.02237 0.0
H202 H 0.64112 0.42738 0.12916 0.0
H203 H 0.58646 0.41095 0.04685 0.0
H204 H 0.60516 0.39302 0.04328 0.0
H205 H 0.63272 0.40122 0.08462 0.0
H206 H 0.62211 0.44503 0.13166 0.0
H207 H 0.53901 0.37429 0.1294 0.0
H208 H 0.51272 0.37079 0.08858 0.0
O209 O 0.5889 0.44443 0.03981 0.0
C210 C 0.57885 0.47661 0.08661 0.0
C211 C 0.53069 0.40004 0.06684 0.0
C212 C 0.54173 0.38634 0.11198 0.0
N213 N 0.56362 0.41921 0.0902 0.0
C214 C 0.54919 0.41746 0.06784 0.0
C215 C 0.56005 0.40398 0.11225 0.0
C216 C 0.52698 0.38438 0.08906 0.0
C217 C 0.64641 0.50442 0.12568 0.0
N218 N 0.63384 0.5079 0.106 0.0
C219 C 0.65486 0.51533 0.1559 0.0
C220 C 0.65036 0.5299 0.16593 0.0
C221 C 0.63754 0.53337 0.1457 0.0
C222 C 0.62934 0.52214 0.11567 0.0
C223 C 0.65361 0.54839 0.01889 0.0
C224 C 0.61514 0.51646 0.0173 0.0
C225 C 0.64818 0.53127 0.03848 0.0
N226 N 0.62912 0.51565 0.03765 0.0
C227 C 0.62002 0.53334 -0.0026 0.0
C228 C 0.6394 0.5494 -0.00172 0.0
C229 C 0.59686 0.45761 0.01628 0.0
C230 C 0.6291 0.42363 0.11107 0.0
C231 C 0.59842 0.41458 0.06495 0.0
C232 C 0.60894 0.40437 0.06282 0.0
C233 C 0.6244 0.40897 0.08604 0.0
N234 N 0.60312 0.42893 0.08958 0.0
C235 C 0.61824 0.43351 0.11247 0.0
Co236 Co 0.12545 0.62066 0.3762 0.0
Co237 Co 0.14278 0.58936 0.40188 0.0
O238 O 0.1427 0.61442 0.40378 0.0
C239 C 0.16595 0.64924 0.35387 0.0
O240 O 0.16866 0.63387 0.35306 0.0
C241 C 0.13163 0.59097 0.47421 0.0
O242 O 0.11875 0.59569 0.46212 0.0
O243 O 0.11321 0.57373 0.40268 0.0
O244 O 0.10191 0.59449 0.38858 0.0
H245 H 0.12112 0.52033 0.35884 0.0
H246 H 0.15217 0.6494 0.42901 0.0
O247 O 0.14912 0.64691 0.36292 0.0
H248 H 0.08426 0.63125 0.46526 0.0
H249 H 0.10172 0.66612 0.33146 0.0
H250 H 0.09172 0.59817 0.32792 0.0
H251 H 0.08979 0.61701 0.41208 0.0
H252 H 0.12299 0.65742 0.36614 0.0
O253 O 0.14315 0.58861 0.45372 0.0
H254 H 0.12134 0.55222 0.36066 0.0
H255 H 0.16445 0.57297 0.4411 0.0
H256 H 0.07002 0.60618 0.29305 0.0
H257 H 0.14733 0.66414 0.48222 0.0
H258 H 0.07496 0.64037 0.29469 0.0
H259 H 0.11317 0.65503 0.5007 0.0
O260 O 0.12932 0.60841 0.33367 0.0
H261 H 0.21003 0.64336 0.44107 0.0
H262 H 0.17397 0.58841 0.3581 0.0
H263 H 0.21055 0.60848 0.35506 0.0
H264 H 0.22882 0.63619 0.39675 0.0
H265 H 0.17344 0.62301 0.44299 0.0
H266 H 0.16459 0.54124 0.44033 0.0
H267 H 0.14286 0.51469 0.39889 0.0
O268 O 0.14211 0.58937 0.35033 0.0
C269 C 0.09913 0.57739 0.39726 0.0
C270 C 0.13071 0.53182 0.37693 0.0
C271 C 0.15508 0.54354 0.4227 0.0
N272 N 0.14303 0.5645 0.40073 0.0
C273 C 0.13094 0.54992 0.378 0.0
C274 C 0.15492 0.56146 0.42305 0.0
C275 C 0.14289 0.52865 0.39943 0.0
C276 C 0.13727 0.64551 0.43673 0.0
N277 N 0.12129 0.63246 0.41737 0.0
C278 C 0.13462 0.65384 0.46695 0.0
C279 C 0.11544 0.6487 0.47732 0.0
C280 C 0.09922 0.63535 0.45746 0.0
C281 C 0.10244 0.62731 0.42741 0.0
C282 C 0.0994 0.65116 0.33058 0.0
C283 C 0.09388 0.61305 0.32894 0.0
C284 C 0.11142 0.64617 0.35009 0.0
N285 N 0.1085 0.62728 0.34922 0.0
C286 C 0.08158 0.61751 0.30906 0.0
C287 C 0.08438 0.6367 0.30996 0.0
C288 C 0.13586 0.5966 0.32713 0.0
C289 C 0.20224 0.6313 0.42281 0.0
C290 C 0.18182 0.60045 0.37631 0.0
C291 C 0.20253 0.61174 0.3745 0.0
C292 C 0.21277 0.62728 0.39791 0.0
N293 N 0.1716 0.60449 0.40078 0.0
C294 C 0.18154 0.61967 0.42388 0.0
Co295 Co 0.50698 0.13102 0.71195 0.0
Co296 Co 0.55558 0.14937 0.73849 0.0
O297 O 0.53024 0.1488 0.73945 0.0
C298 C 0.51778 0.17126 0.6898 0.0
O299 O 0.53586 0.17414 0.687 0.0
C300 C 0.54283 0.14096 0.81128 0.0
O301 O 0.52511 0.12797 0.79966 0.0
O302 O 0.54204 0.11982 0.74175 0.0
O303 O 0.51041 0.10785 0.72415 0.0
H304 H 0.60363 0.12774 0.69964 0.0
H305 H 0.50405 0.15706 0.76519 0.0
O306 O 0.50361 0.1543 0.69927 0.0
H307 H 0.4557 0.08844 0.80077 0.0
H308 H 0.4375 0.10533 0.66716 0.0
H309 H 0.4968 0.09769 0.66323 0.0
H310 H 0.47554 0.09475 0.74745 0.0
H311 H 0.46719 0.1272 0.70203 0.0
O312 O 0.55689 0.15121 0.79014 0.0
H313 H 0.57166 0.1273 0.70027 0.0
H314 H 0.59376 0.1728 0.77671 0.0
H315 H 0.46742 0.07543 0.6281 0.0
H316 H 0.48438 0.15145 0.81853 0.0
H317 H 0.43748 0.07918 0.62996 0.0
H318 H 0.46005 0.11693 0.83668 0.0
O319 O 0.52328 0.13554 0.66943 0.0
H320 H 0.56711 0.21711 0.77052 0.0
H321 H 0.58725 0.17979 0.69283 0.0
H322 H 0.60284 0.2162 0.68632 0.0
H323 H 0.59272 0.23509 0.72528 0.0
H324 H 0.5519 0.18069 0.7761 0.0
H325 H 0.62593 0.17363 0.77711 0.0
H326 H 0.63104 0.15103 0.73827 0.0
O327 O 0.55476 0.14731 0.68713 0.0
C328 C 0.52464 0.10546 0.73493 0.0
C329 C 0.60161 0.13771 0.71659 0.0
C330 C 0.61412 0.16345 0.76011 0.0
N331 N 0.58092 0.15013 0.73828 0.0
C332 C 0.58356 0.13757 0.71699 0.0
C333 C 0.59586 0.16289 0.75981 0.0
C334 C 0.61698 0.15077 0.7383 0.0
C335 C 0.49335 0.142 0.77275 0.0
N336 N 0.49087 0.12625 0.75315 0.0
C337 C 0.48231 0.13892 0.80305 0.0
C338 C 0.46868 0.11954 0.81324 0.0
C339 C 0.46624 0.10355 0.79312 0.0
C340 C 0.47755 0.10721 0.763 0.0
C341 C 0.45044 0.10353 0.66619 0.0
C342 C 0.48378 0.09933 0.66433 0.0
C343 C 0.46729 0.11588 0.68582 0.0
N344 N 0.48363 0.1136 0.68485 0.0
C345 C 0.46721 0.08672 0.64431 0.0
C346 C 0.45043 0.08885 0.64533 0.0
C347 C 0.54159 0.14157 0.66348 0.0
C348 C 0.5717 0.20905 0.75349 0.0
C349 C 0.58284 0.18792 0.70998 0.0
C350 C 0.59172 0.20853 0.70617 0.0
C351 C 0.58604 0.21913 0.72805 0.0
N352 N 0.56877 0.17815 0.73497 0.0
C353 C 0.5632 0.18844 0.75662 0.0
Co354 Co 0.49623 0.62555 0.60302 0.0
Co355 Co 0.44699 0.59367 0.58158 0.0
O356 O 0.47107 0.61973 0.58165 0.0
C357 C 0.48471 0.65203 0.63718 0.0
O358 O 0.46722 0.63605 0.64115 0.0
C359 C 0.45576 0.60375 0.50814 0.0
O360 O 0.47436 0.60997 0.51627 0.0
O361 O 0.4621 0.58057 0.56702 0.0
O362 O 0.49379 0.60038 0.58389 0.0
H363 H 0.40628 0.52061 0.60798 0.0
H364 H 0.49467 0.65611 0.55899 0.0
O365 O 0.49877 0.65071 0.62267 0.0
H366 H 0.54319 0.64195 0.50234 0.0
H367 H 0.56729 0.67094 0.63871 0.0
H368 H 0.51089 0.60209 0.6407 0.0
H369 H 0.52653 0.62481 0.55653 0.0
H370 H 0.53533 0.66266 0.61142 0.0
O371 O 0.44248 0.59724 0.5317 0.0
H372 H 0.43637 0.55381 0.60876 0.0
H373 H 0.4063 0.57787 0.55233 0.0
H374 H 0.54263 0.60967 0.66804 0.0
H375 H 0.51116 0.67376 0.50507 0.0
H376 H 0.5711 0.64431 0.66715 0.0
H377 H 0.53556 0.66665 0.4763 0.0
O378 O 0.48262 0.61116 0.64626 0.0
H379 H 0.4274 0.6463 0.57693 0.0
H380 H 0.41731 0.58589 0.63727 0.0
H381 H 0.39947 0.60282 0.6576 0.0
H382 H 0.40449 0.63328 0.62738 0.0
H383 H 0.44505 0.62894 0.55758 0.0
H384 H 0.37587 0.54487 0.55075 0.0
H385 H 0.37572 0.51598 0.57883 0.0
O386 O 0.45113 0.58933 0.63096 0.0
C387 C 0.47997 0.58434 0.57041 0.0
C388 C 0.40611 0.5331 0.59581 0.0
C389 C 0.38906 0.54672 0.56364 0.0
N390 N 0.423 0.5678 0.58098 0.0
C391 C 0.42309 0.55196 0.59627 0.0
C392 C 0.40633 0.56536 0.56459 0.0
C393 C 0.38899 0.53051 0.57941 0.0
C394 C 0.50542 0.65309 0.54683 0.0
N395 N 0.50971 0.63953 0.56099 0.0
C396 C 0.51465 0.66306 0.51621 0.0
C397 C 0.52832 0.65905 0.50006 0.0
C398 C 0.53259 0.64518 0.51465 0.0
C399 C 0.52308 0.63549 0.54528 0.0
C400 C 0.555 0.65578 0.63921 0.0
C401 C 0.52326 0.61717 0.64001 0.0
C402 C 0.53687 0.65101 0.62386 0.0
N403 N 0.52134 0.63188 0.62423 0.0
C404 C 0.54117 0.62139 0.65562 0.0
C405 C 0.55714 0.64083 0.65515 0.0
C406 C 0.4652 0.59689 0.65306 0.0
C407 C 0.42504 0.633 0.59022 0.0
C408 C 0.41955 0.59911 0.62394 0.0
C409 C 0.40939 0.60863 0.63556 0.0
C410 C 0.41221 0.62571 0.61857 0.0
N411 N 0.43211 0.60637 0.59612 0.0
C412 C 0.43491 0.62307 0.57928 0.0
Co413 Co 0.86983 0.49166 0.94293 0.0
Co414 Co 0.85533 0.44444 0.91213 0.0
O415 O 0.8546 0.4692 0.91168 0.0
C416 C 0.82813 0.47895 0.95628 0.0
O417 O 0.82542 0.46085 0.9564 0.0
C418 C 0.86721 0.45962 0.84115 0.0
O419 O 0.87905 0.47718 0.85472 0.0
O420 O 0.88481 0.45931 0.91361 0.0
O421 O 0.89424 0.48962 0.93573 0.0
H422 H 0.87857 0.39817 0.95396 0.0
H423 H 0.84715 0.49579 0.8848 0.0
O424 O 0.84544 0.49377 0.95102 0.0
H425 H 0.91714 0.54667 0.86379 0.0
H426 H 0.89026 0.55915 0.99279 0.0
H427 H 0.89939 0.50073 -0.00119 0.0
H428 H 0.90781 0.52497 0.91531 0.0
H429 H 0.87173 0.5306 0.95345 0.0
O430 O 0.85642 0.4448 0.86055 0.0
H431 H 0.87682 0.42904 0.95371 0.0
H432 H 0.83591 0.40724 0.86987 0.0
H433 H 0.91834 0.529 0.03845 0.0
H434 H 0.85581 0.51727 0.83307 0.0
H435 H 0.91382 0.55848 0.03557 0.0
H436 H 0.89103 0.54289 0.82226 0.0
O437 O 0.86279 0.47385 0.98403 0.0
H438 H 0.78857 0.42988 0.86783 0.0
H439 H 0.82353 0.41033 0.95192 0.0
H440 H 0.78687 0.39252 0.95146 0.0
H441 H 0.76915 0.40228 0.90919 0.0
H442 H 0.82522 0.4474 0.86942 0.0
H443 H 0.83728 0.37615 0.86909 0.0
H444 H 0.85868 0.37144 0.91144 0.0
O445 O 0.85433 0.44354 0.96356 0.0
C446 C 0.89806 0.47651 0.92396 0.0
C447 C 0.86912 0.4 0.93547 0.0
C448 C 0.84597 0.38766 0.8878 0.0
N449 N 0.85613 0.41985 0.912 0.0
C450 C 0.86803 0.41743 0.93526 0.0
C451 C 0.84527 0.4053 0.88833 0.0
C452 C 0.85798 0.38503 0.91158 0.0
C453 C 0.86248 0.50703 0.88044 0.0
N454 N 0.87694 0.5092 0.90314 0.0
C455 C 0.86731 0.5191 0.85103 0.0
C456 C 0.88708 0.53345 0.84496 0.0
C457 C 0.90174 0.53557 0.86824 0.0
C458 C 0.89637 0.52322 0.89733 0.0
C459 C 0.8924 0.54641 0.99422 0.0
C460 C 0.89747 0.51357 -0.00277 0.0
C461 C 0.88193 0.5302 0.97206 0.0
N462 N 0.88465 0.51412 0.97361 0.0
C463 C 0.90818 0.5295 0.01982 0.0
C464 C 0.90562 0.54603 0.01822 0.0
C465 C 0.85736 0.45553 0.98838 0.0
C466 C 0.79612 0.42546 0.88632 0.0
C467 C 0.81593 0.41468 0.9335 0.0
C468 C 0.79517 0.40452 0.93331 0.0
C469 C 0.78523 0.40999 0.90957 0.0
N470 N 0.8265 0.42985 0.91064 0.0
C471 C 0.81687 0.43526 0.88724 0.0
Co472 Co 0.37781 0.86967 0.27529 0.0
Co473 Co 0.40917 0.85242 0.24953 0.0
O474 O 0.38448 0.85311 0.24657 0.0
C475 C 0.34774 0.82861 0.29132 0.0
O476 O 0.36278 0.82545 0.2938 0.0
C477 C 0.40877 0.86501 0.17766 0.0
O478 O 0.40456 0.87816 0.19036 0.0
O479 O 0.42519 0.88198 0.25097 0.0
O480 O 0.40471 0.89329 0.267 0.0
H481 H 0.4768 0.87186 0.29658 0.0
H482 H 0.3512 0.8459 0.21766 0.0
O483 O 0.35084 0.84597 0.28409 0.0
H484 H 0.37187 0.91571 0.19042 0.0
H485 H 0.33211 0.89325 0.31937 0.0
H486 H 0.39894 0.90093 0.32843 0.0
H487 H 0.38352 0.90725 0.24382 0.0
H488 H 0.3414 0.87295 0.28313 0.0
O489 O 0.41088 0.85316 0.19773 0.0
H490 H 0.44528 0.87224 0.29353 0.0
H491 H 0.42593 0.83129 0.20964 0.0
H492 H 0.39034 0.92165 0.36496 0.0
H493 H 0.33904 0.85365 0.16413 0.0
H494 H 0.35671 0.91786 0.36055 0.0
H495 H 0.34942 0.88878 0.15017 0.0
O496 O 0.38792 0.86333 0.31811 0.0
H497 H 0.35534 0.78647 0.20482 0.0
H498 H 0.40857 0.8199 0.29169 0.0
H499 H 0.38801 0.78328 0.29199 0.0
H500 H 0.36116 0.76633 0.24834 0.0
H501 H 0.37617 0.82306 0.20559 0.0
H502 H 0.45735 0.83063 0.21155 0.0
H503 H 0.48301 0.85096 0.25535 0.0
O504 O 0.40798 0.85183 0.30105 0.0
C505 C 0.42178 0.89604 0.25831 0.0
C506 C 0.46571 0.86288 0.27746 0.0
C507 C 0.4548 0.83976 0.2297 0.0
N508 N 0.43372 0.85166 0.25164 0.0
C509 C 0.4478 0.86298 0.27568 0.0
C510 C 0.43706 0.84022 0.2287 0.0
C511 C 0.46919 0.85117 0.25429 0.0
C512 C 0.35566 0.8612 0.2119 0.0
N513 N 0.368 0.8761 0.23388 0.0
C514 C 0.34878 0.86551 0.18149 0.0
C515 C 0.35463 0.88522 0.17366 0.0
C516 C 0.36724 0.90034 0.19621 0.0
C517 C 0.37383 0.89548 0.22636 0.0
C518 C 0.34683 0.89506 0.32148 0.0
C519 C 0.38432 0.8993 0.3262 0.0
C520 C 0.35215 0.88358 0.30108 0.0
N521 N 0.37074 0.88588 0.30349 0.0
C522 C 0.37952 0.91102 0.34703 0.0
C523 C 0.36064 0.90887 0.34457 0.0
C524 C 0.39962 0.85665 0.32453 0.0
C525 C 0.36703 0.79368 0.22391 0.0
C526 C 0.39693 0.81263 0.27259 0.0
C527 C 0.38535 0.79189 0.27287 0.0
C528 C 0.37029 0.78239 0.24836 0.0
N529 N 0.39363 0.82359 0.24852 0.0
C530 C 0.37893 0.81439 0.22437 0.0
Co531 Co 0.49933 0.3784 0.61381 0.0
Co532 Co 0.54811 0.41258 0.59276 0.0
O533 O 0.52417 0.38652 0.58887 0.0
C534 C 0.51293 0.35119 0.63691 0.0
O535 O 0.53044 0.36721 0.64018 0.0
C536 C 0.53755 0.40879 0.51898 0.0
O537 O 0.51882 0.39984 0.5284 0.0
O538 O 0.53241 0.4262 0.58883 0.0
O539 O 0.50048 0.40408 0.60136 0.0
H540 H 0.58945 0.4823 0.63805 0.0
H541 H 0.50111 0.35148 0.56109 0.0
O542 O 0.49811 0.3527 0.62675 0.0
H543 H 0.44973 0.36605 0.51937 0.0
H544 H 0.42962 0.32894 0.65116 0.0
H545 H 0.48443 0.39835 0.6607 0.0
H546 H 0.46723 0.38021 0.57452 0.0
H547 H 0.46115 0.34006 0.61978 0.0
O548 O 0.5513 0.41413 0.54141 0.0
H549 H 0.55941 0.44916 0.63346 0.0
H550 H 0.58788 0.43169 0.55869 0.0
H551 H 0.4531 0.38792 0.69231 0.0
H552 H 0.48383 0.33683 0.50599 0.0
H553 H 0.42543 0.35299 0.68763 0.0
H554 H 0.45799 0.34416 0.48473 0.0
O555 O 0.51363 0.39042 0.65808 0.0
H556 H 0.56802 0.36248 0.55879 0.0
H557 H 0.57938 0.41567 0.64142 0.0
H558 H 0.59793 0.39775 0.64828 0.0
H559 H 0.59228 0.37093 0.60676 0.0
H560 H 0.54965 0.38067 0.5531 0.0
H561 H 0.61818 0.4647 0.56224 0.0
H562 H 0.61912 0.49024 0.60226 0.0
O563 O 0.54534 0.41203 0.64379 0.0
C564 C 0.51428 0.42148 0.59273 0.0
C565 C 0.58926 0.47127 0.62064 0.0
C566 C 0.60538 0.46139 0.57806 0.0
N567 N 0.57199 0.43844 0.59616 0.0
C568 C 0.57233 0.45246 0.61803 0.0
C569 C 0.58818 0.44274 0.57614 0.0
C570 C 0.60589 0.47572 0.60052 0.0
C571 C 0.48974 0.35457 0.55219 0.0
N572 N 0.48513 0.36662 0.57106 0.0
C573 C 0.48007 0.34631 0.52089 0.0
C574 C 0.46559 0.35045 0.50896 0.0
C575 C 0.46096 0.36274 0.52837 0.0
C576 C 0.47095 0.37076 0.55953 0.0
C577 C 0.44156 0.34421 0.65335 0.0
C578 C 0.4724 0.38316 0.65837 0.0
C579 C 0.45945 0.35058 0.6357 0.0
N580 N 0.47453 0.36986 0.63822 0.0
C581 C 0.45472 0.37732 0.6764 0.0
C582 C 0.43921 0.35771 0.6738 0.0
C583 C 0.53145 0.4034 0.66593 0.0
C584 C 0.57066 0.37418 0.57696 0.0
C585 C 0.57686 0.40404 0.62323 0.0
C586 C 0.58742 0.39395 0.62722 0.0
C587 C 0.58425 0.37891 0.60391 0.0
N588 N 0.56354 0.39929 0.59674 0.0
C589 C 0.56038 0.38459 0.57376 0.0
Co590 Co 0.12972 0.50315 0.93173 0.0
Co591 Co 0.13995 0.54852 0.89782 0.0
O592 O 0.14313 0.52513 0.8989 0.0
C593 C 0.1721 0.51829 0.9429 0.0
O594 O 0.17373 0.53596 0.94274 0.0
C595 C 0.1288 0.53279 0.82683 0.0
O596 O 0.11627 0.51548 0.84053 0.0
O597 O 0.11061 0.53149 0.89834 0.0
O598 O 0.10419 0.50339 0.92632 0.0
H599 H 0.11021 0.59036 0.93333 0.0
H600 H 0.15168 0.4993 0.87216 0.0
O601 O 0.15517 0.50282 0.93823 0.0
H602 H 0.0824 0.44502 0.85812 0.0
H603 H 0.11463 0.43802 0.98582 0.0
H604 H 0.10175 0.4941 0.99037 0.0
H605 H 0.09201 0.46787 0.90807 0.0
H606 H 0.13039 0.46554 0.9436 0.0
O607 O 0.1398 0.54762 0.84606 0.0
H608 H 0.11495 0.56124 0.93576 0.0
H609 H 0.15752 0.58529 0.85455 0.0
H610 H 0.08561 0.46686 0.03298 0.0
H611 H 0.14276 0.4767 0.82193 0.0
H612 H 0.09204 0.43857 0.03088 0.0
H613 H 0.10788 0.44935 0.81466 0.0
O614 O 0.13704 0.52176 0.97142 0.0
H615 H 0.20911 0.56897 0.85761 0.0
H616 H 0.16907 0.58403 0.93822 0.0
H617 H 0.20564 0.60461 0.9395 0.0
H618 H 0.22591 0.59712 0.89899 0.0
H619 H 0.1725 0.54865 0.85742 0.0
H620 H 0.15306 0.61458 0.85097 0.0
H621 H 0.12929 0.61726 0.89063 0.0
O622 O 0.1399 0.54992 0.94949 0.0
C623 C 0.09869 0.51469 0.91199 0.0
C624 C 0.12065 0.58939 0.91599 0.0
C625 C 0.1447 0.60298 0.86975 0.0
N626 N 0.13671 0.57171 0.89567 0.0
C627 C 0.12348 0.57299 0.91738 0.0
C628 C 0.14715 0.58636 0.87189 0.0
C629 C 0.13136 0.60447 0.89201 0.0
C630 C 0.13652 0.48732 0.8693 0.0
N631 N 0.12241 0.48482 0.89309 0.0
C632 C 0.13153 0.47462 0.84075 0.0
C633 C 0.11195 0.4593 0.83666 0.0
C634 C 0.09765 0.45686 0.86103 0.0
C635 C 0.10317 0.46987 0.88922 0.0
C636 C 0.11166 0.45023 0.98693 0.0
C637 C 0.10446 0.48174 0.98908 0.0
C638 C 0.12054 0.46585 0.9631 0.0
N639 N 0.11679 0.48127 0.96427 0.0
C640 C 0.09535 0.46641 0.01337 0.0
C641 C 0.09898 0.45055 0.0122 0.0
C642 C 0.13948 0.53917 0.97481 0.0
C643 C 0.20044 0.57242 0.87533 0.0
C644 C 0.17779 0.58066 0.92054 0.0
C645 C 0.19849 0.59239 0.92134 0.0
C646 C 0.20986 0.58819 0.89859 0.0
N647 N 0.16866 0.5652 0.89766 0.0
C648 C 0.1797 0.56102 0.87522 0.0
Co649 Co 0.62341 0.12639 0.26053 0.0
Co650 Co 0.58816 0.13974 0.24134 0.0
O651 O 0.61477 0.14324 0.23763 0.0
C652 C 0.65017 0.16644 0.28704 0.0
O653 O 0.634 0.16741 0.29249 0.0
C654 C 0.59405 0.13786 0.16648 0.0
O655 O 0.60159 0.12648 0.17391 0.0
O656 O 0.5757 0.11081 0.23166 0.0
O657 O 0.59795 0.10189 0.24805 0.0
H658 H 0.51699 0.1061 0.28082 0.0
H659 H 0.64968 0.15612 0.20851 0.0
O660 O 0.64892 0.15081 0.27379 0.0
H661 H 0.63548 0.09106 0.16218 0.0
H662 H 0.6738 0.10643 0.29272 0.0
H663 H 0.60431 0.09082 0.30604 0.0
H664 H 0.62166 0.09329 0.21852 0.0
H665 H 0.66204 0.12703 0.26384 0.0
O666 O 0.58828 0.14496 0.19065 0.0
H667 H 0.55077 0.11083 0.27664 0.0
H668 H 0.56875 0.16133 0.21202 0.0
H669 H 0.61539 0.06973 0.33513 0.0
H670 H 0.66395 0.1546 0.15219 0.0
H671 H 0.65037 0.0775 0.32855 0.0
H672 H 0.6568 0.12188 0.12863 0.0
O673 O 0.61157 0.12776 0.30557 0.0
H674 H 0.637 0.21223 0.22184 0.0
H675 H 0.58224 0.16372 0.29559 0.0
H676 H 0.59864 0.19945 0.30994 0.0
H677 H 0.62623 0.22398 0.27291 0.0
H678 H 0.62033 0.17632 0.20867 0.0
H679 H 0.53511 0.15706 0.21526 0.0
H680 H 0.50898 0.12933 0.24998 0.0
O681 O 0.58724 0.13422 0.29179 0.0
C682 C 0.58083 0.09776 0.23691 0.0
C683 C 0.52827 0.11829 0.26573 0.0
C684 C 0.53843 0.14688 0.2289 0.0
N685 N 0.56177 0.13647 0.24443 0.0
C686 C 0.54744 0.12109 0.26337 0.0
C687 C 0.55744 0.14921 0.22713 0.0
C688 C 0.52378 0.13132 0.24839 0.0
C689 C 0.64667 0.14185 0.19858 0.0
N690 N 0.63493 0.12483 0.21684 0.0
C691 C 0.65472 0.14107 0.16661 0.0
C692 C 0.65068 0.12271 0.15338 0.0
C693 C 0.6387 0.10541 0.17218 0.0
C694 C 0.63089 0.10676 0.20404 0.0
C695 C 0.65851 0.10287 0.29573 0.0
C696 C 0.61952 0.09421 0.30288 0.0
C697 C 0.65178 0.1145 0.2795 0.0
N698 N 0.63247 0.11002 0.28304 0.0
C699 C 0.62572 0.08226 0.31949 0.0
C700 C 0.64536 0.08664 0.31582 0.0
C701 C 0.597 0.13019 0.31366 0.0
C702 C 0.62495 0.20169 0.23809 0.0
C703 C 0.59423 0.1743 0.27934 0.0
C704 C 0.60344 0.19451 0.28757 0.0
C705 C 0.61892 0.20827 0.26678 0.0
N706 N 0.60026 0.16796 0.25119 0.0
C707 C 0.61539 0.18136 0.23065 0.0
H708 H 0.39825 0.52474 0.20862 0.0
H709 H 0.4029 0.53405 0.26994 0.0
H710 H 0.43156 0.59612 0.24149 0.0
H711 H 0.42666 0.58697 0.18031 0.0
H712 H 0.43611 0.55474 0.30535 0.0
H713 H 0.42295 0.62219 0.30244 0.0
H714 H 0.40251 0.63306 0.27056 0.0
H715 H 0.35927 0.57219 0.24861 0.0
H716 H 0.3793 0.56093 0.28077 0.0
H717 H 0.47982 0.61387 0.45126 0.0
H718 H 0.4695 0.6055 0.3909 0.0
H719 H 0.40809 0.58014 0.42128 0.0
H720 H 0.41823 0.58854 0.4818 0.0
H721 H 0.4163 0.60045 0.35885 0.0
H722 H 0.42555 0.55012 0.41266 0.0
H723 H 0.44386 0.53751 0.44656 0.0
H724 H 0.48989 0.55957 0.36939 0.0
H725 H 0.47203 0.57265 0.33533 0.0
C726 C 0.40542 0.54037 0.21543 0.0
C727 C 0.4121 0.55513 0.18964 0.0
C728 C 0.40808 0.54565 0.25046 0.0
C729 C 0.41741 0.56576 0.26026 0.0
C730 C 0.424 0.5805 0.23453 0.0
C731 C 0.42127 0.57524 0.19955 0.0
C732 C 0.42106 0.57142 0.29731 0.0
C733 C 0.4317 0.56467 0.31704 0.0
C734 C 0.41505 0.58414 0.31271 0.0
C735 C 0.40273 0.59074 0.29378 0.0
C736 C 0.40903 0.61112 0.29096 0.0
C737 C 0.39752 0.61735 0.27281 0.0
C738 C 0.37963 0.60333 0.25749 0.0
C739 C 0.37317 0.58304 0.26039 0.0
C740 C 0.38461 0.57673 0.27854 0.0
C741 C 0.46413 0.6068 0.44509 0.0
C742 C 0.44981 0.60159 0.47135 0.0
C743 C 0.45828 0.60202 0.41061 0.0
C744 C 0.43804 0.59192 0.40185 0.0
C745 C 0.42378 0.58788 0.42763 0.0
C746 C 0.42961 0.59264 0.46218 0.0
C747 C 0.43174 0.58416 0.36635 0.0
C748 C 0.42062 0.59048 0.34704 0.0
C749 C 0.43692 0.5707 0.35151 0.0
C750 C 0.44753 0.56252 0.37159 0.0
C751 C 0.43964 0.5524 0.40303 0.0
C752 C 0.44993 0.54516 0.42227 0.0
C753 C 0.46805 0.54777 0.41017 0.0
C754 C 0.47587 0.55758 0.37875 0.0
C755 C 0.46567 0.5649 0.35945 0.0
H756 H 0.476 0.54217 0.42511 0.0
H757 H 0.37076 0.60818 0.24341 0.0
H758 H 0.84498 0.42903 0.50912 0.0
H759 H 0.84654 0.44109 0.56806 0.0
H760 H 0.87741 0.41069 0.60135 0.0
H761 H 0.87636 0.39893 0.54214 0.0
H762 H 0.83218 0.42343 0.62727 0.0
H763 H 0.91094 0.43759 0.66323 0.0
H764 H 0.94266 0.44685 0.63399 0.0
H765 H 0.92843 0.4755 0.55277 0.0
H766 H 0.89677 0.46668 0.58176 0.0
H767 H 0.84556 0.42486 0.80606 0.0
H768 H 0.84483 0.4194 0.74389 0.0
H769 H 0.88639 0.48183 0.728 0.0
H770 H 0.88748 0.48748 0.79075 0.0
H771 H 0.89635 0.45869 0.6905 0.0
H772 H 0.83855 0.46381 0.70747 0.0
H773 H 0.8072 0.45705 0.73533 0.0
H774 H 0.78032 0.39537 0.70733 0.0
H775 H 0.81161 0.40169 0.67975 0.0
C776 C 0.85202 0.42481 0.52899 0.0
C777 C 0.86067 0.41313 0.52097 0.0
C778 C 0.85289 0.43173 0.56266 0.0
C779 C 0.86238 0.42707 0.58889 0.0
C780 C 0.87041 0.41483 0.58125 0.0
C781 C 0.86969 0.40801 0.5475 0.0
C782 C 0.86378 0.43496 0.62431 0.0
C783 C 0.84621 0.4312 0.64105 0.0
C784 C 0.88219 0.44561 0.64187 0.0
C785 C 0.90139 0.45132 0.62456 0.0
C786 C 0.91463 0.44596 0.63923 0.0
C787 C 0.93259 0.45111 0.62268 0.0
C788 C 0.93753 0.46171 0.5915 0.0
C789 C 0.92455 0.46724 0.57687 0.0
C790 C 0.90659 0.46215 0.59334 0.0
C791 C 0.85452 0.4375 0.78945 0.0
C792 C 0.86655 0.45664 0.80332 0.0
C793 C 0.85401 0.43434 0.75387 0.0
C794 C 0.86535 0.45026 0.73138 0.0
C795 C 0.87749 0.46939 0.74503 0.0
C796 C 0.87805 0.47258 0.78079 0.0
C797 C 0.86467 0.44658 0.6937 0.0
C798 C 0.88236 0.45111 0.67655 0.0
C799 C 0.84643 0.43708 0.67545 0.0
C800 C 0.82749 0.43321 0.69171 0.0
C801 C 0.826 0.44877 0.70744 0.0
C802 C 0.80823 0.44503 0.72316 0.0
C803 C 0.79179 0.42579 0.72314 0.0
C804 C 0.79307 0.41026 0.70732 0.0
C805 C 0.81081 0.41393 0.6916 0.0
H806 H 0.77805 0.42291 0.73534 0.0
H807 H 0.95143 0.46565 0.5787 0.0
H808 H 0.44053 0.83787 0.86045 0.0
H809 H 0.43135 0.83655 0.92141 0.0
H810 H 0.47304 0.89946 0.9314 0.0
H811 H 0.4831 0.90053 0.8709 0.0
H812 H 0.47314 0.88262 0.9882 0.0
H813 H 0.42179 0.87998 0.917 0.0
H814 H 0.39715 0.8675 0.86966 0.0
H815 H 0.36533 0.81056 0.91977 0.0
H816 H 0.39001 0.82257 0.9671 0.0
H817 H 0.42111 0.89575 0.13194 0.0
H818 H 0.43067 0.89627 0.07114 0.0
H819 H 0.41436 0.83449 0.07828 0.0
H820 H 0.40535 0.83397 0.13939 0.0
H821 H 0.40099 0.85172 0.01356 0.0
H822 H 0.45635 0.85686 0.08366 0.0
H823 H 0.481 0.87242 0.13057 0.0
H824 H 0.50464 0.92937 0.08094 0.0
H825 H 0.47987 0.91416 0.03403 0.0
C826 C 0.44792 0.85134 0.87587 0.0
C827 C 0.46238 0.86934 0.86106 0.0
C828 C 0.44257 0.85061 0.91059 0.0
C829 C 0.45106 0.86804 0.93073 0.0
C830 C 0.46618 0.88585 0.91634 0.0
C831 C 0.47192 0.88646 0.8818 0.0
C832 C 0.44361 0.8678 0.96629 0.0
C833 C 0.45737 0.87602 0.99354 0.0
C834 C 0.42301 0.85927 0.97345 0.0
C835 C 0.40786 0.85213 0.94546 0.0
C836 C 0.40959 0.86476 0.91785 0.0
C837 C 0.39563 0.85777 0.891 0.0
C838 C 0.37971 0.83824 0.89167 0.0
C839 C 0.37769 0.82568 0.91926 0.0
C840 C 0.39166 0.83257 0.94612 0.0
C841 C 0.41935 0.88222 0.12042 0.0
C842 C 0.41259 0.86484 0.1403 0.0
C843 C 0.42482 0.88256 0.08581 0.0
C844 C 0.42321 0.86543 0.07053 0.0
C845 C 0.41565 0.84781 0.08982 0.0
C846 C 0.4106 0.84758 0.12463 0.0
C847 C 0.4305 0.8662 0.03497 0.0
C848 C 0.41672 0.85823 0.00788 0.0
C849 C 0.45104 0.87538 0.02779 0.0
C850 C 0.46614 0.88442 0.0556 0.0
C851 C 0.46669 0.87273 0.08294 0.0
C852 C 0.4807 0.88147 0.10949 0.0
C853 C 0.49434 0.90188 0.10879 0.0
C854 C 0.49405 0.91357 0.08148 0.0
C855 C 0.48003 0.9049 0.05491 0.0
H856 H 0.50518 0.90863 0.12937 0.0
H857 H 0.36893 0.83285 0.87084 0.0
H858 H 0.60752 0.48368 0.21701 0.0
H859 H 0.59842 0.47679 0.27849 0.0
H860 H 0.55926 0.4148 0.25457 0.0
H861 H 0.56841 0.4214 0.19346 0.0
H862 H 0.5424 0.43414 0.29663 0.0
H863 H 0.59998 0.42515 0.28886 0.0
H864 H 0.63498 0.43634 0.27466 0.0
H865 H 0.65421 0.48545 0.34513 0.0
H866 H 0.61928 0.47469 0.35937 0.0
H867 H 0.51773 0.38818 0.4613 0.0
H868 H 0.52753 0.39771 0.40083 0.0
H869 H 0.5786 0.45247 0.4351 0.0
H870 H 0.56957 0.44227 0.4953 0.0
H871 H 0.58997 0.43902 0.38719 0.0
H872 H 0.53427 0.4492 0.39783 0.0
H873 H 0.49983 0.44068 0.41134 0.0
H874 H 0.47762 0.39344 0.33647 0.0
H875 H 0.51188 0.40155 0.32264 0.0
C876 C 0.59706 0.46858 0.22494 0.0
C877 C 0.5887 0.45307 0.20054 0.0
C878 C 0.59189 0.46469 0.25993 0.0
C879 C 0.57816 0.44532 0.27076 0.0
C880 C 0.56984 0.42985 0.2465 0.0
C881 C 0.57519 0.43364 0.2117 0.0
C882 C 0.57235 0.44104 0.30745 0.0
C883 C 0.55268 0.43504 0.31655 0.0
C884 C 0.58605 0.44291 0.33323 0.0
C885 C 0.60703 0.44924 0.32489 0.0
C886 C 0.61167 0.43843 0.3011 0.0
C887 C 0.63149 0.44468 0.29309 0.0
C888 C 0.64681 0.46163 0.3089 0.0
C889 C 0.64233 0.47234 0.33285 0.0
C890 C 0.62253 0.46617 0.34092 0.0
C891 C 0.53104 0.40221 0.45571 0.0
C892 C 0.54299 0.41446 0.48266 0.0
C893 C 0.53654 0.40776 0.42125 0.0
C894 C 0.55365 0.426 0.41333 0.0
C895 C 0.5654 0.43831 0.44047 0.0
C896 C 0.56024 0.43249 0.47483 0.0
C897 C 0.55979 0.43194 0.37687 0.0
C898 C 0.57959 0.43826 0.36762 0.0
C899 C 0.54627 0.4308 0.35107 0.0
C900 C 0.52565 0.42589 0.35941 0.0
C901 C 0.52204 0.43691 0.38441 0.0
C902 C 0.50256 0.43217 0.3921 0.0
C903 C 0.48657 0.4165 0.37488 0.0
C904 C 0.49002 0.40557 0.34983 0.0
C905 C 0.50946 0.41025 0.34199 0.0
H906 H 0.47151 0.41285 0.3809 0.0
H907 H 0.66215 0.46644 0.30267 0.0
H908 H 0.09971 0.57489 0.51742 0.0
H909 H 0.09833 0.56335 0.57681 0.0
H910 H 0.16146 0.58479 0.57369 0.0
H911 H 0.16256 0.59519 0.51346 0.0
H912 H 0.14491 0.55094 0.60174 0.0
H913 H 0.13916 0.60885 0.62007 0.0
H914 H 0.12542 0.63118 0.61227 0.0
H915 H 0.06867 0.58549 0.64967 0.0
H916 H 0.08201 0.56279 0.65727 0.0
H917 H 0.15958 0.55997 0.78785 0.0
H918 H 0.15892 0.56757 0.72636 0.0
H919 H 0.09753 0.52116 0.71993 0.0
H920 H 0.09823 0.51301 0.78128 0.0
H921 H 0.1117 0.56585 0.69752 0.0
H922 H 0.12047 0.50871 0.68043 0.0
H923 H 0.13715 0.48925 0.69088 0.0
H924 H 0.19226 0.53794 0.65395 0.0
H925 H 0.17595 0.55782 0.64381 0.0
C926 C 0.11332 0.57736 0.52964 0.0
C927 C 0.13128 0.58604 0.5111 0.0
C928 C 0.11254 0.5708 0.56362 0.0
C929 C 0.12986 0.57345 0.58004 0.0
C930 C 0.14789 0.58252 0.56162 0.0
C931 C 0.14856 0.58857 0.52733 0.0
C932 C 0.1291 0.56619 0.61596 0.0
C933 C 0.13781 0.55442 0.62266 0.0
C934 C 0.11959 0.57042 0.64334 0.0
C935 C 0.11154 0.58406 0.63891 0.0
C936 C 0.12371 0.60352 0.6264 0.0
C937 C 0.116 0.61625 0.62205 0.0
C938 C 0.09617 0.60974 0.63038 0.0
C939 C 0.08402 0.5905 0.64318 0.0
C940 C 0.09166 0.5777 0.64755 0.0
C941 C 0.14604 0.55119 0.77317 0.0
C942 C 0.12895 0.5359 0.78917 0.0
C943 C 0.1457 0.55555 0.73818 0.0
C944 C 0.12818 0.54492 0.71891 0.0
C945 C 0.11117 0.52944 0.73458 0.0
C946 C 0.11163 0.52476 0.76944 0.0
C947 C 0.1275 0.5508 0.68285 0.0
C948 C 0.11862 0.56235 0.67631 0.0
C949 C 0.13725 0.54679 0.65584 0.0
C950 C 0.14704 0.53482 0.66173 0.0
C951 C 0.13619 0.51535 0.67488 0.0
C952 C 0.14556 0.50422 0.68067 0.0
C953 C 0.16577 0.51238 0.67318 0.0
C954 C 0.17662 0.53165 0.65979 0.0
C955 C 0.16731 0.54285 0.65399 0.0
H956 H 0.173 0.50374 0.67767 0.0
H957 H 0.09023 0.61962 0.62699 0.0
H958 H 0.57208 0.15393 0.14286 0.0
H959 H 0.56336 0.15616 0.08299 0.0
H960 H 0.5996 0.13186 0.04773 0.0
H961 H 0.60794 0.129 0.10786 0.0
H962 H 0.58253 0.17477 0.0267 0.0
H963 H 0.57712 0.10175 0.97772 0.0
H964 H 0.57123 0.06964 0.001 0.0
H965 H 0.53838 0.07467 0.08618 0.0
H966 H 0.5436 0.10651 0.06291 0.0
H967 H 0.57771 0.16649 0.84348 0.0
H968 H 0.58553 0.16774 0.90495 0.0
H969 H 0.52548 0.12103 0.92568 0.0
H970 H 0.51752 0.11948 0.86396 0.0
H971 H 0.55216 0.11336 0.9552 0.0
H972 H 0.54058 0.16816 0.95055 0.0
H973 H 0.54429 0.19962 0.92826 0.0
H974 H 0.60654 0.22983 0.9529 0.0
H975 H 0.60326 0.19847 0.97489 0.0
C976 C 0.57834 0.14919 0.12238 0.0
C977 C 0.59051 0.14105 0.13008 0.0
C978 C 0.57338 0.15054 0.08815 0.0
C979 C 0.58056 0.14388 0.06096 0.0
C980 C 0.59356 0.1367 0.06841 0.0
C981 C 0.59835 0.13512 0.10274 0.0
C982 C 0.57369 0.14365 0.02506 0.0
C983 C 0.57593 0.16136 0.01103 0.0
C984 C 0.56466 0.12604 0.00491 0.0
C985 C 0.56095 0.10662 0.01874 0.0
C986 C 0.56852 0.09593 0.00128 0.0
C987 C 0.56528 0.07776 0.01446 0.0
C988 C 0.55445 0.07012 0.04505 0.0
C989 C 0.54675 0.08058 0.06246 0.0
C990 C 0.54983 0.09869 0.04928 0.0
C991 C 0.56608 0.15659 0.86111 0.0
C992 C 0.547 0.14281 0.84884 0.0
C993 C 0.57057 0.1574 0.89627 0.0
C994 C 0.55606 0.14456 0.91985 0.0
C995 C 0.53688 0.13106 0.90783 0.0
C996 C 0.53236 0.13024 0.8726 0.0
C997 C 0.56127 0.14452 0.95671 0.0
C998 C 0.55874 0.12677 0.9709 0.0
C999 C 0.56968 0.16199 0.97717 0.0
C1000 C 0.5717 0.18091 0.96411 0.0
C1001 C 0.5551 0.18147 0.95097 0.0
C1002 C 0.55711 0.1993 0.93843 0.0
C1003 C 0.57565 0.21671 0.93909 0.0
C1004 C 0.59219 0.21633 0.95238 0.0
C1005 C 0.59026 0.19854 0.96492 0.0
H1006 H 0.57718 0.23049 0.92936 0.0
H1007 H 0.55203 0.05608 0.05517 0.0
H1008 H 0.31697 0.48856 0.03417 0.0
H1009 H 0.28438 0.48461 0.0204 0.0
H1010 H 0.31172 0.54791 0.0037 0.0
H1011 H 0.34418 0.55203 0.01761 0.0
H1012 H 0.27805 0.53332 0.04298 0.0
H1013 H 0.29904 0.51641 0.936 0.0
H1014 H 0.31001 0.49727 0.90037 0.0
H1015 H 0.25628 0.44314 0.92525 0.0
H1016 H 0.24511 0.46194 0.96143 0.0
H1017 H 0.21055 0.54821 0.94755 0.0
H1018 H 0.23942 0.54569 0.96457 0.0
H1019 H 0.2026 0.48193 0.97335 0.0
H1020 H 0.17351 0.48427 0.95578 0.0
H1021 H 0.23832 0.49261 0.94294 0.0
H1022 H 0.21567 0.50954 0.04521 0.0
H1023 H 0.20432 0.52837 0.08074 0.0
H1024 H 0.26057 0.58168 0.06619 0.0
H1025 H 0.27217 0.56324 0.03008 0.0
C1026 C 0.31601 0.50163 0.02761 0.0
C1027 C 0.33315 0.52059 0.02679 0.0
C1028 C 0.29741 0.49933 0.01966 0.0
C1029 C 0.2957 0.51596 0.0108 0.0
C1030 C 0.31274 0.5349 0.01048 0.0
C1031 C 0.33129 0.5372 0.01828 0.0
C1032 C 0.27624 0.51383 0.00162 0.0
C1033 C 0.26941 0.52453 0.02098 0.0
C1034 C 0.26469 0.50182 0.97363 0.0
C1035 C 0.27135 0.49054 0.95173 0.0
C1036 C 0.28964 0.5004 0.9341 0.0
C1037 C 0.29588 0.48963 0.91376 0.0
C1038 C 0.28388 0.469 0.91063 0.0
C1039 C 0.26558 0.45911 0.92775 0.0
C1040 C 0.25928 0.46982 0.94816 0.0
C1041 C 0.20856 0.53362 0.95293 0.0
C1042 C 0.18971 0.51645 0.95068 0.0
C1043 C 0.22507 0.53221 0.96275 0.0
C1044 C 0.22306 0.51366 0.97088 0.0
C1045 C 0.20442 0.49639 0.96739 0.0
C1046 C 0.18784 0.49777 0.95739 0.0
C1047 C 0.24044 0.51256 0.98372 0.0
C1048 C 0.24682 0.50121 0.96519 0.0
C1049 C 0.25156 0.5239 0.01264 0.0
C1050 C 0.24474 0.53502 0.03472 0.0
C1051 C 0.22558 0.5253 0.04939 0.0
C1052 C 0.2191 0.53591 0.06966 0.0
C1053 C 0.2317 0.55621 0.07567 0.0
C1054 C 0.25083 0.56595 0.0615 0.0
C1055 C 0.25737 0.55543 0.04116 0.0
H1056 H 0.22666 0.5644 0.09136 0.0
H1057 H 0.28874 0.46068 0.89488 0.0
H1058 H 0.82847 0.31188 0.35812 0.0
H1059 H 0.79979 0.27898 0.34537 0.0
H1060 H 0.76032 0.30229 0.36138 0.0
H1061 H 0.78881 0.33522 0.37333 0.0
H1062 H 0.74948 0.26373 0.39559 0.0
H1063 H 0.76925 0.29848 0.28448 0.0
H1064 H 0.79351 0.3165 0.23799 0.0
H1065 H 0.80209 0.26646 0.22305 0.0
H1066 H 0.77809 0.24826 0.26989 0.0
H1067 H 0.65752 0.20069 0.31934 0.0
H1068 H 0.68963 0.22867 0.33607 0.0
H1069 H 0.71923 0.19884 0.29387 0.0
H1070 H 0.68701 0.17064 0.27675 0.0
H1071 H 0.73778 0.23779 0.27506 0.0
H1072 H 0.71653 0.20119 0.37908 0.0
H1073 H 0.69392 0.18203 0.42684 0.0
H1074 H 0.68988 0.23314 0.45713 0.0
H1075 H 0.71229 0.25258 0.40921 0.0
C1076 C 0.81366 0.30993 0.35906 0.0
C1077 C 0.81083 0.32608 0.36651 0.0
C1078 C 0.79735 0.29119 0.35177 0.0
C1079 C 0.77804 0.28833 0.35246 0.0
C1080 C 0.77515 0.30428 0.36082 0.0
C1081 C 0.79143 0.32306 0.36743 0.0
C1082 C 0.76074 0.26888 0.34336 0.0
C1083 C 0.7468 0.25806 0.36924 0.0
C1084 C 0.75779 0.26124 0.30926 0.0
C1085 C 0.77208 0.27212 0.28096 0.0
C1086 C 0.77646 0.2914 0.27152 0.0
C1087 C 0.79013 0.30163 0.24506 0.0
C1088 C 0.79939 0.29266 0.22766 0.0
C1089 C 0.79494 0.27341 0.23661 0.0
C1090 C 0.7813 0.26313 0.26309 0.0
C1091 C 0.67082 0.20001 0.31361 0.0
C1092 C 0.66971 0.18341 0.29682 0.0
C1093 C 0.68917 0.21599 0.32335 0.0
C1094 C 0.70677 0.2157 0.3166 0.0
C1095 C 0.70579 0.19929 0.29941 0.0
C1096 C 0.68738 0.18321 0.28974 0.0
C1097 C 0.72613 0.23281 0.32713 0.0
C1098 C 0.7405 0.24323 0.30155 0.0
C1099 C 0.72966 0.23991 0.36168 0.0
C1100 C 0.71601 0.22831 0.3904 0.0
C1101 C 0.71069 0.20831 0.39573 0.0
C1102 C 0.69794 0.19741 0.42287 0.0
C1103 C 0.69048 0.20637 0.44501 0.0
C1104 C 0.6957 0.22624 0.43998 0.0
C1105 C 0.70845 0.23721 0.41285 0.0
H1106 H 0.68072 0.19791 0.46613 0.0
H1107 H 0.80996 0.3006 0.20717 0.0
H1108 H 0.45772 0.79576 0.69603 0.0
H1109 H 0.46148 0.76668 0.688 0.0
H1110 H 0.52528 0.80396 0.69101 0.0
H1111 H 0.52168 0.83342 0.69901 0.0
H1112 H 0.5113 0.77525 0.6371 0.0
H1113 H 0.50352 0.77771 0.75989 0.0
H1114 H 0.48758 0.78091 0.81291 0.0
H1115 H 0.43323 0.72796 0.78592 0.0
H1116 H 0.44874 0.72461 0.73244 0.0
H1117 H 0.51962 0.68768 0.64075 0.0
H1118 H 0.52383 0.7202 0.65607 0.0
H1119 H 0.46048 0.69319 0.67126 0.0
H1120 H 0.45625 0.6607 0.65702 0.0
H1121 H 0.47916 0.71916 0.7205 0.0
H1122 H 0.48447 0.71867 0.59572 0.0
H1123 H 0.49862 0.71542 0.5405 0.0
H1124 H 0.55576 0.76423 0.56905 0.0
H1125 H 0.54199 0.76758 0.62471 0.0
C1126 C 0.4726 0.79787 0.69489 0.0
C1127 C 0.48942 0.81691 0.69823 0.0
C1128 C 0.4747 0.78119 0.69044 0.0
C1129 C 0.49365 0.78316 0.68929 0.0
C1130 C 0.51053 0.80217 0.69195 0.0
C1131 C 0.50845 0.81893 0.69661 0.0
C1132 C 0.49554 0.76519 0.68551 0.0
C1133 C 0.50467 0.76312 0.65566 0.0
C1134 C 0.48652 0.74928 0.70944 0.0
C1135 C 0.47728 0.75097 0.74204 0.0
C1136 C 0.48814 0.7668 0.76516 0.0
C1137 C 0.47918 0.76864 0.79531 0.0
C1138 C 0.4594 0.75466 0.80275 0.0
C1139 C 0.44855 0.73878 0.78012 0.0
C1140 C 0.45743 0.73688 0.74991 0.0
C1141 C 0.50662 0.68868 0.64755 0.0
C1142 C 0.4876 0.67163 0.6476 0.0
C1143 C 0.50904 0.70728 0.65619 0.0
C1144 C 0.49244 0.70919 0.66442 0.0
C1145 C 0.47352 0.6921 0.66509 0.0
C1146 C 0.47111 0.67352 0.65684 0.0
C1147 C 0.49451 0.72895 0.6716 0.0
C1148 C 0.48612 0.73138 0.70217 0.0
C1149 C 0.50402 0.7451 0.64811 0.0
C1150 C 0.51226 0.74322 0.61453 0.0
C1151 C 0.50008 0.72862 0.59032 0.0
C1152 C 0.50803 0.72677 0.55894 0.0
C1153 C 0.52809 0.73957 0.55132 0.0
C1154 C 0.54023 0.7543 0.57503 0.0
C1155 C 0.53236 0.75618 0.60649 0.0
H1156 H 0.53422 0.73811 0.52701 0.0
H1157 H 0.45248 0.75613 0.82608 0.0
H1158 H 0.68526 0.51388 0.04051 0.0
H1159 H 0.71799 0.51798 0.02734 0.0
H1160 H 0.69129 0.45443 0.01492 0.0
H1161 H 0.65875 0.45016 0.02836 0.0
H1162 H 0.72445 0.46977 0.05453 0.0
H1163 H 0.70421 0.4853 0.94515 0.0
H1164 H 0.69373 0.50414 0.90763 0.0
H1165 H 0.7476 0.55833 0.93158 0.0
H1166 H 0.75828 0.53983 0.96962 0.0
H1167 H 0.78915 0.45052 0.96107 0.0
H1168 H 0.76127 0.4549 0.97719 0.0
H1169 H 0.80058 0.51836 0.98461 0.0
H1170 H 0.82876 0.51414 0.96798 0.0
H1171 H 0.76466 0.50845 0.95321 0.0
H1172 H 0.78673 0.49243 0.05713 0.0
H1173 H 0.79752 0.4736 0.09395 0.0
H1174 H 0.74061 0.42085 0.08113 0.0
H1175 H 0.72957 0.43928 0.04377 0.0
C1176 C 0.68639 0.5008 0.03496 0.0
C1177 C 0.66942 0.4817 0.03537 0.0
C1178 C 0.70507 0.50318 0.02735 0.0
C1179 C 0.70701 0.48651 0.01998 0.0
C1180 C 0.6901 0.46748 0.0206 0.0
C1181 C 0.67149 0.46508 0.02814 0.0
C1182 C 0.72658 0.48861 0.01179 0.0
C1183 C 0.7332 0.47815 0.03229 0.0
C1184 C 0.73831 0.50014 0.98351 0.0
C1185 C 0.73192 0.51123 0.96054 0.0
C1186 C 0.71374 0.50126 0.94264 0.0
C1187 C 0.70778 0.51187 0.92124 0.0
C1188 C 0.71996 0.53243 0.91731 0.0
C1189 C 0.73816 0.54241 0.9347 0.0
C1190 C 0.74418 0.53187 0.95617 0.0
C1191 C 0.79192 0.46544 0.96599 0.0
C1192 C 0.81119 0.48197 0.96369 0.0
C1193 C 0.77596 0.46791 0.97525 0.0
C1194 C 0.77896 0.48691 0.98273 0.0
C1195 C 0.79802 0.50357 0.97913 0.0
C1196 C 0.81407 0.50112 0.96971 0.0
C1197 C 0.76211 0.48902 0.99524 0.0
C1198 C 0.75607 0.50033 0.97576 0.0
C1199 C 0.7509 0.47833 0.02457 0.0
C1200 C 0.75736 0.46723 0.04747 0.0
C1201 C 0.77655 0.47678 0.06199 0.0
C1202 C 0.78271 0.46618 0.08298 0.0
C1203 C 0.76977 0.44603 0.08984 0.0
C1204 C 0.75062 0.43646 0.0758 0.0
C1205 C 0.74439 0.44698 0.05475 0.0
H1206 H 0.77457 0.43785 0.10607 0.0
H1207 H 0.71532 0.54062 0.90073 0.0
H1208 H 0.16558 0.68434 0.34746 0.0
H1209 H 0.19357 0.71705 0.33142 0.0
H1210 H 0.23169 0.69157 0.32392 0.0
H1211 H 0.20402 0.65908 0.33919 0.0
H1212 H 0.22843 0.7403 0.36286 0.0
H1213 H 0.26401 0.71057 0.26503 0.0
H1214 H 0.25391 0.68549 0.2185 0.0
H1215 H 0.20072 0.68828 0.20188 0.0
H1216 H 0.21023 0.71294 0.24881 0.0
H1217 H 0.33643 0.78956 0.29928 0.0
H1218 H 0.30291 0.76155 0.30662 0.0
H1219 H 0.27915 0.80123 0.30094 0.0
H1220 H 0.31292 0.82962 0.29375 0.0
H1221 H 0.27151 0.74833 0.26197 0.0
H1222 H 0.23639 0.77956 0.35482 0.0
H1223 H 0.24634 0.80581 0.39916 0.0
H1224 H 0.29824 0.80176 0.42274 0.0
H1225 H 0.28845 0.77533 0.3789 0.0
C1226 C 0.17993 0.68574 0.34219 0.0
C1227 C 0.18256 0.6691 0.34438 0.0
C1228 C 0.19587 0.70441 0.33303 0.0
C1229 C 0.21461 0.70667 0.32581 0.0
C1230 C 0.21725 0.6901 0.32844 0.0
C1231 C 0.2014 0.67151 0.33742 0.0
C1232 C 0.23185 0.72638 0.31701 0.0
C1233 C 0.23762 0.74223 0.34036 0.0
C1234 C 0.24393 0.72889 0.28783 0.0
C1235 C 0.23777 0.71348 0.26052 0.0
C1236 C 0.2501 0.70572 0.25153 0.0
C1237 C 0.24442 0.69151 0.22521 0.0
C1238 C 0.22658 0.68515 0.20741 0.0
C1239 C 0.21436 0.69296 0.216 0.0
C1240 C 0.21982 0.70696 0.2426 0.0
C1241 C 0.32414 0.79242 0.29972 0.0
C1242 C 0.32733 0.81182 0.29602 0.0
C1243 C 0.30497 0.77636 0.30379 0.0
C1244 C 0.2886 0.77934 0.30444 0.0
C1245 C 0.29165 0.79867 0.30079 0.0
C1246 C 0.3109 0.81483 0.29658 0.0
C1247 C 0.26843 0.76193 0.30845 0.0
C1248 C 0.26211 0.74654 0.2841 0.0
C1249 C 0.25585 0.75998 0.33654 0.0
C1250 C 0.26181 0.77567 0.36327 0.0
C1251 C 0.2499 0.78426 0.36954 0.0
C1252 C 0.25551 0.79916 0.39458 0.0
C1253 C 0.27296 0.80551 0.41365 0.0
C1254 C 0.28478 0.7969 0.40784 0.0
C1255 C 0.27922 0.78198 0.38286 0.0
H1256 H 0.27728 0.81705 0.433 0.0
H1257 H 0.22226 0.67424 0.18688 0.0
H1258 H 0.54544 0.20948 0.67421 0.0
H1259 H 0.54041 0.23783 0.66708 0.0
H1260 H 0.47754 0.19998 0.68494 0.0
H1261 H 0.48239 0.17122 0.69196 0.0
H1262 H 0.48709 0.22766 0.62933 0.0
H1263 H 0.50381 0.22757 0.749 0.0
H1264 H 0.52377 0.22529 0.7966 0.0
H1265 H 0.57545 0.27787 0.7593 0.0
H1266 H 0.55587 0.28028 0.71112 0.0
H1267 H 0.47851 0.31525 0.64363 0.0
H1268 H 0.47549 0.28279 0.65539 0.0
H1269 H 0.53944 0.31026 0.65676 0.0
H1270 H 0.54256 0.34263 0.64608 0.0
H1271 H 0.52451 0.28521 0.70809 0.0
H1272 H 0.51015 0.28343 0.58573 0.0
H1273 H 0.49197 0.28536 0.53481 0.0
H1274 H 0.43765 0.23668 0.57431 0.0
H1275 H 0.45547 0.23465 0.62573 0.0
C1276 C 0.53048 0.20707 0.67641 0.0
C1277 C 0.51431 0.1881 0.68382 0.0
C1278 C 0.52766 0.22332 0.67241 0.0
C1279 C 0.50865 0.22101 0.67591 0.0
C1280 C 0.49233 0.20203 0.68225 0.0
C1281 C 0.49514 0.18567 0.68636 0.0
C1282 C 0.50622 0.23873 0.67396 0.0
C1283 C 0.49491 0.24012 0.64693 0.0
C1284 C 0.51672 0.25504 0.69665 0.0
C1285 C 0.52838 0.25405 0.72633 0.0
C1286 C 0.51945 0.23861 0.75087 0.0
C1287 C 0.5307 0.23729 0.77795 0.0
C1288 C 0.55087 0.25141 0.78094 0.0
C1289 C 0.55982 0.26694 0.75695 0.0
C1290 C 0.54864 0.26831 0.72978 0.0
C1291 C 0.49191 0.31433 0.6465 0.0
C1292 C 0.51077 0.33149 0.64397 0.0
C1293 C 0.49016 0.29578 0.6531 0.0
C1294 C 0.50724 0.29405 0.65668 0.0
C1295 C 0.52605 0.31122 0.65427 0.0
C1296 C 0.5278 0.32973 0.64807 0.0
C1297 C 0.50581 0.27447 0.66276 0.0
C1298 C 0.51638 0.27268 0.69074 0.0
C1299 C 0.49479 0.2579 0.64071 0.0
C1300 C 0.48409 0.25905 0.60975 0.0
C1301 C 0.4943 0.27324 0.58368 0.0
C1302 C 0.48406 0.27434 0.55472 0.0
C1303 C 0.46365 0.26119 0.55138 0.0
C1304 C 0.45345 0.24688 0.57696 0.0
C1305 C 0.4636 0.24575 0.60601 0.0
H1306 H 0.45576 0.26206 0.52894 0.0
H1307 H 0.55957 0.25033 0.80187 0.0
H1308 H 0.4195 0.48829 0.07851 0.0
H1309 H 0.44588 0.47995 0.08316 0.0
H1310 H 0.48934 0.54209 0.09576 0.0
H1311 H 0.46319 0.55066 0.0912 0.0
H1312 H 0.50011 0.52326 0.04647 0.0
H1313 H 0.47596 0.51243 0.16405 0.0
H1314 H 0.4503 0.49793 0.20963 0.0
H1315 H 0.43641 0.43914 0.17902 0.0
H1316 H 0.46179 0.45329 0.13289 0.0
H1317 H 0.58273 0.51361 0.09044 0.0
H1318 H 0.55618 0.5217 0.09328 0.0
H1319 H 0.51236 0.45913 0.09248 0.0
H1320 H 0.53882 0.45087 0.09088 0.0
H1321 H 0.50149 0.47806 0.13609 0.0
H1322 H 0.52471 0.48795 0.01849 0.0
H1323 H 0.55008 0.50171 0.97233 0.0
H1324 H 0.56473 0.561 0.00077 0.0
H1325 H 0.53971 0.54764 0.04757 0.0
C1326 C 0.43464 0.50019 0.08254 0.0
C1327 C 0.4392 0.52015 0.08454 0.0
C1328 C 0.44967 0.49538 0.08525 0.0
C1329 C 0.4695 0.51041 0.08993 0.0
C1330 C 0.4741 0.53029 0.09214 0.0
C1331 C 0.4591 0.53513 0.08967 0.0
C1332 C 0.48559 0.5055 0.09157 0.0
C1333 C 0.50059 0.51359 0.06632 0.0
C1334 C 0.48581 0.49244 0.11691 0.0
C1335 C 0.47064 0.48392 0.14479 0.0
C1336 C 0.46732 0.49641 0.16685 0.0
C1337 C 0.45285 0.48825 0.19282 0.0
C1338 C 0.4417 0.46763 0.19716 0.0
C1339 C 0.44504 0.45512 0.1756 0.0
C1340 C 0.45948 0.4632 0.14956 0.0
C1341 C 0.56746 0.50155 0.09111 0.0
C1342 C 0.5629 0.48159 0.0902 0.0
C1343 C 0.55229 0.50621 0.0926 0.0
C1344 C 0.53228 0.49102 0.09243 0.0
C1345 C 0.5277 0.47109 0.09256 0.0
C1346 C 0.54286 0.4664 0.09155 0.0
C1347 C 0.51613 0.4959 0.09106 0.0
C1348 C 0.50106 0.48775 0.11625 0.0
C1349 C 0.51571 0.50875 0.06542 0.0
C1350 C 0.53046 0.5168 0.03676 0.0
C1351 C 0.53342 0.50393 0.01504 0.0
C1352 C 0.54773 0.51166 0.98876 0.0
C1353 C 0.55903 0.53221 0.98368 0.0
C1354 C 0.55598 0.54508 0.00478 0.0
C1355 C 0.54173 0.53745 0.03118 0.0
H1356 H 0.57012 0.53816 0.96335 0.0
H1357 H 0.4305 0.46134 0.21728 0.0
H1358 H 0.91189 0.45787 0.41916 0.0
H1359 H 0.94658 0.48418 0.42123 0.0
H1360 H 0.96527 0.4405 0.41465 0.0
H1361 H 0.93045 0.41384 0.41213 0.0
H1362 H 0.98705 0.47412 0.46518 0.0
H1363 H 0.96676 0.46022 0.34498 0.0
H1364 H 0.94404 0.45479 0.29625 0.0
H1365 H 0.9527 0.51352 0.31011 0.0
H1366 H 0.97522 0.51917 0.35935 0.0
H1367 H 0.08658 0.5383 0.41148 0.0
H1368 H 0.05248 0.51105 0.41758 0.0
H1369 H 0.03074 0.55174 0.39995 0.0
H1370 H 0.0648 0.5791 0.39306 0.0
H1371 H 0.01033 0.51895 0.3628 0.0
H1372 H 0.03099 0.53412 0.48075 0.0
H1373 H 0.05302 0.54041 0.53093 0.0
H1374 H 0.04313 0.4809 0.524 0.0
H1375 H 0.02132 0.47436 0.47332 0.0
C1376 C 0.9233 0.45374 0.41851 0.0
C1377 C 0.91836 0.43371 0.41517 0.0
C1378 C 0.94312 0.46883 0.41976 0.0
C1379 C 0.95837 0.46422 0.41794 0.0
C1380 C 0.95361 0.44427 0.41616 0.0
C1381 C 0.93373 0.4291 0.41453 0.0
C1382 C 0.97921 0.48042 0.41513 0.0
C1383 C 0.99231 0.48379 0.44266 0.0
C1384 C 0.98573 0.49326 0.3861 0.0
C1385 C 0.97252 0.49005 0.35605 0.0
C1386 C 0.9637 0.47192 0.33781 0.0
C1387 C 0.95088 0.46881 0.31007 0.0
C1388 C 0.94689 0.48379 0.30014 0.0
C1389 C 0.95578 0.50193 0.31786 0.0
C1390 C 0.96859 0.5051 0.34566 0.0
C1391 C 0.07458 0.54153 0.40902 0.0
C1392 C 0.07846 0.56094 0.40184 0.0
C1393 C 0.05508 0.52591 0.41268 0.0
C1394 C 0.0391 0.52942 0.40961 0.0
C1395 C 0.04289 0.54874 0.40245 0.0
C1396 C 0.06238 0.56436 0.39861 0.0
C1397 C 0.01838 0.51281 0.4129 0.0
C1398 C 0.00521 0.50933 0.38539 0.0
C1399 C 0.0118 0.50004 0.44215 0.0
C1400 C 0.02466 0.50381 0.47299 0.0
C1401 C 0.03362 0.52241 0.48975 0.0
C1402 C 0.04606 0.52603 0.5183 0.0
C1403 C 0.04951 0.51108 0.53059 0.0
C1404 C 0.04047 0.49247 0.51442 0.0
C1405 C 0.02805 0.4888 0.48578 0.0
H1406 H 0.05916 0.51391 0.55269 0.0
H1407 H 0.93695 0.48134 0.27868 0.0
H1408 H 0.48876 0.07072 0.73493 0.0
H1409 H 0.48286 0.03677 0.73991 0.0
H1410 H 0.54595 0.05951 0.74857 0.0
H1411 H 0.55206 0.09352 0.74392 0.0
H1412 H 0.52668 0.02832 0.69996 0.0
H1413 H 0.51943 0.04301 0.81848 0.0
H1414 H 0.50579 0.05407 0.86569 0.0
H1415 H 0.4469 0.0067 0.84217 0.0
H1416 H 0.46016 0.99554 0.79443 0.0
H1417 H 0.52112 0.93709 0.74167 0.0
H1418 H 0.52874 0.97165 0.74408 0.0
H1419 H 0.46621 0.95192 0.75353 0.0
H1420 H 0.45852 0.91737 0.75251 0.0
H1421 H 0.48621 0.98228 0.79427 0.0
H1422 H 0.49198 0.96815 0.67504 0.0
H1423 H 0.50435 0.95671 0.6264 0.0
H1424 H 0.56416 0.00255 0.64858 0.0
H1425 H 0.55217 0.01408 0.69772 0.0
C1426 C 0.50139 0.06855 0.7381 0.0
C1427 C 0.52088 0.08488 0.73915 0.0
C1428 C 0.49798 0.04913 0.741 0.0
C1429 C 0.51398 0.04568 0.74475 0.0
C1430 C 0.53342 0.0619 0.74571 0.0
C1431 C 0.53685 0.08132 0.74321 0.0
C1432 C 0.51042 0.02511 0.74703 0.0
C1433 C 0.51808 0.01831 0.72083 0.0
C1434 C 0.49876 0.01197 0.77378 0.0
C1435 C 0.49077 0.01856 0.80267 0.0
C1436 C 0.50355 0.03505 0.82318 0.0
C1437 C 0.4959 0.04132 0.85008 0.0
C1438 C 0.47549 0.03112 0.85687 0.0
C1439 C 0.4627 0.0146 0.83685 0.0
C1440 C 0.47029 0.00829 0.80989 0.0
C1441 C 0.50899 0.94009 0.74447 0.0
C1442 C 0.4892 0.92443 0.7467 0.0
C1443 C 0.51336 0.95987 0.74569 0.0
C1444 C 0.49802 0.96441 0.74834 0.0
C1445 C 0.47831 0.94881 0.75143 0.0
C1446 C 0.47394 0.92903 0.75074 0.0
C1447 C 0.50241 0.98536 0.74708 0.0
C1448 C 0.49488 0.99226 0.77343 0.0
C1449 C 0.51398 0.99853 0.72018 0.0
C1450 C 0.52119 0.99185 0.69027 0.0
C1451 C 0.50778 0.97572 0.66967 0.0
C1452 C 0.51473 0.96922 0.64201 0.0
C1453 C 0.53504 0.97886 0.63446 0.0
C1454 C 0.54844 0.99507 0.65449 0.0
C1455 C 0.54158 0.00161 0.68224 0.0
H1456 H 0.54039 0.97379 0.61306 0.0
H1457 H 0.46959 0.036 0.8777 0.0
H1458 H 0.45456 0.54824 0.54122 0.0
H1459 H 0.45974 0.51992 0.53495 0.0
H1460 H 0.52009 0.55568 0.57079 0.0
H1461 H 0.51514 0.58428 0.57741 0.0
H1462 H 0.51321 0.52626 0.51498 0.0
H1463 H 0.48904 0.53211 0.62912 0.0
H1464 H 0.46524 0.5365 0.66511 0.0
H1465 H 0.41693 0.48287 0.62279 0.0
H1466 H 0.44045 0.47838 0.58607 0.0
H1467 H 0.53989 0.46142 0.58972 0.0
H1468 H 0.53232 0.48766 0.57819 0.0
H1469 H 0.46997 0.44407 0.56943 0.0
H1470 H 0.4774 0.41748 0.58214 0.0
H1471 H 0.47466 0.47536 0.60465 0.0
H1472 H 0.49873 0.4659 0.4977 0.0
H1473 H 0.52157 0.46163 0.45896 0.0
H1474 H 0.56817 0.5209 0.4824 0.0
H1475 H 0.54582 0.52536 0.52216 0.0
C1476 C 0.4691 0.5503 0.54717 0.0
C1477 C 0.48434 0.56848 0.56053 0.0
C1478 C 0.47202 0.53407 0.54339 0.0
C1479 C 0.49019 0.53571 0.55279 0.0
C1480 C 0.50596 0.5542 0.56341 0.0
C1481 C 0.50305 0.57048 0.56736 0.0
C1482 C 0.49183 0.51763 0.55623 0.0
C1483 C 0.50493 0.51515 0.53464 0.0
C1484 C 0.48046 0.50291 0.5812 0.0
C1485 C 0.46647 0.50499 0.60469 0.0
C1486 C 0.47333 0.52128 0.62745 0.0
C1487 C 0.4599 0.5238 0.64794 0.0
C1488 C 0.43958 0.50999 0.64619 0.0
C1489 C 0.43267 0.49356 0.6241 0.0
C1490 C 0.44605 0.49101 0.60347 0.0
C1491 C 0.52453 0.4573 0.58532 0.0
C1492 C 0.50926 0.43728 0.58653 0.0
C1493 C 0.52024 0.47238 0.57855 0.0
C1494 C 0.50064 0.46781 0.5721 0.0
C1495 C 0.48524 0.4479 0.57405 0.0
C1496 C 0.4895 0.43274 0.58128 0.0
C1497 C 0.49646 0.48404 0.56384 0.0
C1498 C 0.48282 0.48623 0.58458 0.0
C1499 C 0.50719 0.49834 0.53772 0.0
C1500 C 0.52059 0.49592 0.51315 0.0
C1501 C 0.51388 0.478 0.49479 0.0
C1502 C 0.52674 0.47553 0.47263 0.0
C1503 C 0.54628 0.49098 0.46817 0.0
C1504 C 0.55301 0.50894 0.48587 0.0
C1505 C 0.54026 0.51144 0.50825 0.0
H1506 H 0.55621 0.48903 0.45099 0.0
H1507 H 0.42919 0.51201 0.66196 0.0
H1508 H 0.07873 0.52446 0.86532 0.0
H1509 H 0.04425 0.51686 0.86866 0.0
H1510 H 0.03641 0.4842 0.96357 0.0
H1511 H 0.07067 0.49096 0.95938 0.0
H1512 H 0.00408 0.46615 0.92859 0.0
H1513 H 0.0459 0.53307 0.96366 0.0
H1514 H 0.07408 0.56737 0.95922 0.0
H1515 H 0.04875 0.57673 0.86714 0.0
H1516 H 0.02054 0.54235 0.87074 0.0
H1517 H 0.92958 0.5048 0.96109 0.0
H1518 H 0.96367 0.51087 0.96147 0.0
H1519 H 0.94804 0.46588 0.88277 0.0
H1520 H 0.91385 0.45917 0.88331 0.0
H1521 H 0.99241 0.52325 0.9176 0.0
H1522 H 0.97229 0.44084 0.89407 0.0
H1523 H 0.94439 0.40719 0.90665 0.0
H1524 H 0.9269 0.43018 0.99261 0.0
H1525 H 0.95493 0.46381 0.98115 0.0
C1526 C 0.06957 0.51549 0.8867 0.0
C1527 C 0.0774 0.50846 0.91229 0.0
C1528 C 0.04991 0.51124 0.8887 0.0
C1529 C 0.0379 0.50042 0.91688 0.0
C1530 C 0.04543 0.49267 0.94169 0.0
C1531 C 0.065 0.49655 0.93929 0.0
C1532 C 0.01774 0.49783 0.92098 0.0
C1533 C 0.00153 0.47863 0.92622 0.0
C1534 C 0.01447 0.51422 0.91919 0.0
C1535 C 0.03117 0.53508 0.91734 0.0
C1536 C 0.04638 0.54241 0.94238 0.0
C1537 C 0.06237 0.56187 0.94 0.0
C1538 C 0.06324 0.57421 0.91286 0.0
C1539 C 0.04807 0.56714 0.88813 0.0
C1540 C 0.03206 0.54768 0.89035 0.0
C1541 C 0.93344 0.49624 0.94383 0.0
C1542 C 0.91899 0.48133 0.9225 0.0
C1543 C 0.95293 0.49975 0.94402 0.0
C1544 C 0.95832 0.48856 0.92265 0.0
C1545 C 0.94411 0.47432 0.90018 0.0
C1546 C 0.92458 0.47056 0.90041 0.0
C1547 C 0.9787 0.4915 0.9241 0.0
C1548 C 0.99496 0.51078 0.92007 0.0
C1549 C 0.98208 0.4753 0.92853 0.0
C1550 C 0.96563 0.4549 0.93649 0.0
C1551 C 0.9626 0.43868 0.91585 0.0
C1552 C 0.94674 0.4196 0.92279 0.0
C1553 C 0.93384 0.41654 0.95038 0.0
C1554 C 0.93687 0.43253 0.97126 0.0
C1555 C 0.95276 0.45161 0.96456 0.0
H1556 H 0.92151 0.40178 0.95561 0.0
H1557 H 0.07565 0.58926 0.91103 0.0
H1558 H 0.46149 0.90856 0.25821 0.0
H1559 H 0.48917 0.94266 0.2527 0.0
H1560 H 0.44779 0.96428 0.24644 0.0
H1561 H 0.41997 0.93025 0.25244 0.0
H1562 H 0.47797 0.97887 0.19363 0.0
H1563 H 0.47106 0.97175 0.31764 0.0
H1564 H 0.46919 0.95659 0.37472 0.0
H1565 H 0.52725 0.96397 0.35923 0.0
H1566 H 0.52936 0.97896 0.3018 0.0
H1567 H 0.5417 0.08231 0.21926 0.0
H1568 H 0.51576 0.04745 0.21892 0.0
H1569 H 0.55919 0.03013 0.24348 0.0
H1570 H 0.58527 0.06506 0.24458 0.0
H1571 H 0.52857 0.01252 0.28569 0.0
H1572 H 0.53659 0.02018 0.16338 0.0
H1573 H 0.5392 0.03491 0.10575 0.0
H1574 H 0.48021 0.0259 0.11629 0.0
H1575 H 0.47732 0.01124 0.17428 0.0
C1576 C 0.45825 0.92056 0.25572 0.0
C1577 C 0.43851 0.91669 0.25568 0.0
C1578 C 0.47408 0.94001 0.2527 0.0
C1579 C 0.47045 0.9559 0.24924 0.0
C1580 C 0.45082 0.95214 0.24908 0.0
C1581 C 0.43497 0.93272 0.25263 0.0
C1582 C 0.48718 0.97643 0.24515 0.0
C1583 C 0.48893 0.98638 0.21386 0.0
C1584 C 0.50176 0.98582 0.27118 0.0
C1585 C 0.50028 0.9763 0.30526 0.0
C1586 C 0.48332 0.96992 0.3262 0.0
C1587 C 0.48226 0.96143 0.35868 0.0
C1588 C 0.49811 0.95936 0.3706 0.0
C1589 C 0.515 0.96563 0.34997 0.0
C1590 C 0.51614 0.97413 0.31747 0.0
C1591 C 0.54585 0.07112 0.22408 0.0
C1592 C 0.5656 0.07655 0.23215 0.0
C1593 C 0.53097 0.05114 0.22372 0.0
C1594 C 0.53554 0.03616 0.23101 0.0
C1595 C 0.55533 0.04146 0.23785 0.0
C1596 C 0.57024 0.06146 0.23835 0.0
C1597 C 0.51943 0.01514 0.2341 0.0
C1598 C 0.51774 0.00504 0.26526 0.0
C1599 C 0.50501 0.00555 0.20781 0.0
C1600 C 0.50681 0.01477 0.17331 0.0
C1601 C 0.52425 0.02153 0.15358 0.0
C1602 C 0.52576 0.02983 0.12078 0.0
C1603 C 0.50989 0.03138 0.10733 0.0
C1604 C 0.49249 0.02469 0.12673 0.0
C1605 C 0.4909 0.01635 0.15955 0.0
H1606 H 0.51103 0.0377 0.08184 0.0
H1607 H 0.49733 0.95294 0.39587 0.0
H1608 H 0.43431 0.56133 0.67452 0.0
H1609 H 0.42495 0.54964 0.73393 0.0
H1610 H 0.4759 0.60314 0.77202 0.0
H1611 H 0.48572 0.61478 0.71241 0.0
H1612 H 0.4695 0.57107 0.80949 0.0
H1613 H 0.43071 0.59947 0.76856 0.0
H1614 H 0.4087 0.60332 0.72711 0.0
H1615 H 0.36347 0.54252 0.74395 0.0
H1616 H 0.38537 0.5382 0.78508 0.0
H1617 H 0.4366 0.57549 0.97811 0.0
H1618 H 0.44665 0.58237 0.91754 0.0
H1619 H 0.39764 0.52511 0.8882 0.0
H1620 H 0.38738 0.51792 0.94901 0.0
H1621 H 0.40238 0.55703 0.84595 0.0
H1622 H 0.44145 0.52982 0.89036 0.0
H1623 H 0.46409 0.52704 0.93186 0.0
H1624 H 0.50927 0.58713 0.90933 0.0
H1625 H 0.48678 0.59038 0.86808 0.0
C1626 C 0.44364 0.57057 0.69549 0.0
C1627 C 0.4606 0.58913 0.68882 0.0
C1628 C 0.43826 0.56385 0.72942 0.0
C1629 C 0.44951 0.57572 0.75734 0.0
C1630 C 0.46698 0.59381 0.75078 0.0
C1631 C 0.47253 0.60045 0.71674 0.0
C1632 C 0.44237 0.56984 0.79332 0.0
C1633 C 0.45491 0.56817 0.81756 0.0
C1634 C 0.42318 0.56575 0.80361 0.0
C1635 C 0.40975 0.56846 0.77966 0.0
C1636 C 0.41611 0.58689 0.7633 0.0
C1637 C 0.40366 0.58916 0.73985 0.0
C1638 C 0.38472 0.57316 0.73283 0.0
C1639 C 0.37816 0.55489 0.74938 0.0
C1640 C 0.39058 0.55253 0.77277 0.0
C1641 C 0.42787 0.56431 0.95889 0.0
C1642 C 0.4112 0.54609 0.96848 0.0
C1643 C 0.43371 0.56828 0.92428 0.0
C1644 C 0.423 0.55415 0.89859 0.0
C1645 C 0.40611 0.53614 0.90781 0.0
C1646 C 0.40032 0.53206 0.94253 0.0
C1647 C 0.42954 0.55834 0.86209 0.0
C1648 C 0.4169 0.55976 0.83778 0.0
C1649 C 0.4487 0.56238 0.85185 0.0
C1650 C 0.46236 0.56039 0.87633 0.0
C1651 C 0.45616 0.54249 0.89444 0.0
C1652 C 0.46897 0.54083 0.91789 0.0
C1653 C 0.48809 0.55691 0.92329 0.0
C1654 C 0.49445 0.57469 0.90515 0.0
C1655 C 0.48168 0.57644 0.8817 0.0
H1656 H 0.49798 0.5556 0.94146 0.0
H1657 H 0.37511 0.57493 0.71462 0.0
H1658 H 0.86948 0.43303 0.30933 0.0
H1659 H 0.86655 0.43969 0.24867 0.0
H1660 H 0.84947 0.3791 0.22257 0.0
H1661 H 0.85316 0.37251 0.2836 0.0
H1662 H 0.87348 0.40392 0.17457 0.0
H1663 H 0.81458 0.39347 0.23048 0.0
H1664 H 0.79492 0.39783 0.27625 0.0
H1665 H 0.82075 0.45959 0.24946 0.0
H1666 H 0.84088 0.45571 0.20395 0.0
H1667 H 0.84295 0.41688 0.00828 0.0
H1668 H 0.84047 0.40418 0.06691 0.0
H1669 H 0.86333 0.46338 0.10802 0.0
H1670 H 0.86554 0.47629 0.04939 0.0
H1671 H 0.83249 0.43481 0.14699 0.0
H1672 H 0.89378 0.44438 0.09426 0.0
H1673 H 0.91255 0.43861 0.04853 0.0
H1674 H 0.87961 0.37579 0.06888 0.0
H1675 H 0.86046 0.38117 0.1144 0.0
C1676 C 0.8652 0.42113 0.29071 0.0
C1677 C 0.86134 0.40219 0.30118 0.0
C1678 C 0.86344 0.42493 0.25606 0.0
C1679 C 0.85725 0.40973 0.2313 0.0
C1680 C 0.8541 0.39097 0.24138 0.0
C1681 C 0.85622 0.38724 0.27615 0.0
C1682 C 0.85391 0.4136 0.19508 0.0
C1683 C 0.86423 0.41032 0.16845 0.0
C1684 C 0.84186 0.42202 0.18718 0.0
C1685 C 0.82935 0.42432 0.2139 0.0
C1686 C 0.81615 0.40801 0.23443 0.0
C1687 C 0.80492 0.4104 0.26036 0.0
C1688 C 0.8066 0.42898 0.26579 0.0
C1689 C 0.81947 0.4452 0.24522 0.0
C1690 C 0.83078 0.44291 0.21933 0.0
C1691 C 0.8473 0.42724 0.02973 0.0
C1692 C 0.85461 0.44767 0.02408 0.0
C1693 C 0.84589 0.41992 0.06323 0.0
C1694 C 0.852 0.4329 0.09164 0.0
C1695 C 0.85859 0.45315 0.08631 0.0
C1696 C 0.8599 0.4605 0.0528 0.0
C1697 C 0.85247 0.42561 0.12679 0.0
C1698 C 0.84154 0.42819 0.15316 0.0
C1699 C 0.86372 0.41629 0.13436 0.0
C1700 C 0.87557 0.41316 0.10751 0.0
C1701 C 0.89048 0.42933 0.08885 0.0
C1702 C 0.90118 0.42613 0.06297 0.0
C1703 C 0.89724 0.40684 0.05575 0.0
C1704 C 0.88263 0.39072 0.07447 0.0
C1705 C 0.87186 0.39384 0.10033 0.0
H1706 H 0.90552 0.40435 0.03572 0.0
H1707 H 0.79792 0.43081 0.2859 0.0
H1708 H 0.43129 0.86559 0.65304 0.0
H1709 H 0.41953 0.86284 0.59362 0.0
H1710 H 0.4692 0.85755 0.55695 0.0
H1711 H 0.48156 0.86118 0.61634 0.0
H1712 H 0.46398 0.88071 0.51574 0.0
H1713 H 0.42084 0.81665 0.56459 0.0
H1714 H 0.39765 0.79282 0.6076 0.0
H1715 H 0.35598 0.81259 0.58684 0.0
H1716 H 0.37908 0.83678 0.54409 0.0
H1717 H 0.4255 0.84529 0.34897 0.0
H1718 H 0.43481 0.84457 0.40907 0.0
H1719 H 0.39334 0.86262 0.4433 0.0
H1720 H 0.38381 0.86342 0.38311 0.0
H1721 H 0.39404 0.83214 0.48494 0.0
H1722 H 0.43897 0.89659 0.43506 0.0
H1723 H 0.46192 0.9179 0.38932 0.0
H1724 H 0.50077 0.89476 0.41078 0.0
H1725 H 0.47774 0.87288 0.45607 0.0
C1726 C 0.43972 0.86384 0.63236 0.0
C1727 C 0.45733 0.86354 0.6394 0.0
C1728 C 0.43291 0.86215 0.59838 0.0
C1729 C 0.44326 0.8596 0.57085 0.0
C1730 C 0.46094 0.85947 0.57778 0.0
C1731 C 0.46797 0.86151 0.61173 0.0
C1732 C 0.43577 0.85732 0.53479 0.0
C1733 C 0.44876 0.86988 0.50901 0.0
C1734 C 0.41582 0.84337 0.52597 0.0
C1735 C 0.40178 0.82866 0.55135 0.0
C1736 C 0.40679 0.81601 0.56935 0.0
C1737 C 0.39365 0.80243 0.59367 0.0
C1738 C 0.37537 0.80123 0.6 0.0
C1739 C 0.37016 0.81356 0.58194 0.0
C1740 C 0.38326 0.8272 0.55764 0.0
C1741 C 0.41816 0.84893 0.36919 0.0
C1742 C 0.40403 0.85462 0.36113 0.0
C1743 C 0.42352 0.84848 0.40353 0.0
C1744 C 0.41488 0.85372 0.43044 0.0
C1745 C 0.40015 0.85854 0.42277 0.0
C1746 C 0.39482 0.85908 0.38836 0.0
C1747 C 0.42225 0.85549 0.46631 0.0
C1748 C 0.40925 0.84289 0.49191 0.0
C1749 C 0.44225 0.86917 0.47489 0.0
C1750 C 0.45654 0.88296 0.44874 0.0
C1751 C 0.45236 0.89597 0.42991 0.0
C1752 C 0.46537 0.90814 0.40404 0.0
C1753 C 0.48279 0.90766 0.39709 0.0
C1754 C 0.48726 0.89509 0.41615 0.0
C1755 C 0.47422 0.88279 0.44191 0.0
H1756 H 0.49283 0.91705 0.37698 0.0
H1757 H 0.36523 0.79071 0.61885 0.0
H1758 H 0.56431 0.43581 0.69142 0.0
H1759 H 0.57427 0.44376 0.75161 0.0
H1760 H 0.5211 0.39055 0.78424 0.0
H1761 H 0.51059 0.38269 0.72355 0.0
H1762 H 0.52923 0.42148 0.82606 0.0
H1763 H 0.56507 0.39149 0.78063 0.0
H1764 H 0.58595 0.38656 0.73817 0.0
H1765 H 0.63393 0.44581 0.75736 0.0
H1766 H 0.61321 0.45125 0.79949 0.0
H1767 H 0.56673 0.4218 0.99382 0.0
H1768 H 0.55538 0.41189 0.93448 0.0
H1769 H 0.60176 0.46872 0.89721 0.0
H1770 H 0.61325 0.47902 0.9568 0.0
H1771 H 0.59636 0.43403 0.85894 0.0
H1772 H 0.55893 0.46374 0.90305 0.0
H1773 H 0.53754 0.46767 0.9458 0.0
H1774 H 0.49196 0.40692 0.92994 0.0
H1775 H 0.51324 0.40252 0.88748 0.0
C1776 C 0.55463 0.42579 0.71129 0.0
C1777 C 0.53673 0.40849 0.70269 0.0
C1778 C 0.5604 0.43034 0.74571 0.0
C1779 C 0.54864 0.41751 0.77225 0.0
C1780 C 0.53043 0.40056 0.76401 0.0
C1781 C 0.52448 0.39608 0.7294 0.0
C1782 C 0.55572 0.4218 0.80846 0.0
C1783 C 0.54376 0.42391 0.83339 0.0
C1784 C 0.57481 0.42519 0.81779 0.0
C1785 C 0.58752 0.42183 0.79306 0.0
C1786 C 0.58004 0.40351 0.77567 0.0
C1787 C 0.59185 0.40063 0.75165 0.0
C1788 C 0.61124 0.41587 0.74502 0.0
C1789 C 0.6189 0.43402 0.7625 0.0
C1790 C 0.60713 0.43701 0.78648 0.0
C1791 C 0.57464 0.43223 0.9731 0.0
C1792 C 0.59084 0.45129 0.98009 0.0
C1793 C 0.56809 0.4265 0.93923 0.0
C1794 C 0.57767 0.43965 0.91174 0.0
C1795 C 0.59421 0.45843 0.9183 0.0
C1796 C 0.60069 0.46429 0.9523 0.0
C1797 C 0.56996 0.43393 0.87622 0.0
C1798 C 0.5818 0.4315 0.85153 0.0
C1799 C 0.55069 0.43003 0.86721 0.0
C1800 C 0.53776 0.43274 0.89235 0.0
C1801 C 0.54442 0.45117 0.90888 0.0
C1802 C 0.5323 0.4535 0.93303 0.0
C1803 C 0.51343 0.43755 0.94065 0.0
C1804 C 0.5066 0.41926 0.92404 0.0
C1805 C 0.51868 0.41684 0.89992 0.0
H1806 H 0.50407 0.43938 0.95937 0.0
H1807 H 0.62035 0.41362 0.72638 0.0
H1808 H 0.15532 0.53126 0.03141 0.0
H1809 H 0.15608 0.54247 0.09092 0.0
H1810 H 0.12729 0.57496 0.05754 0.0
H1811 H 0.12757 0.56472 -0.00223 0.0
H1812 H 0.15254 0.59543 0.10397 0.0
H1813 H 0.1014 0.52755 0.09623 0.0
H1814 H 0.08702 0.49202 0.08178 0.0
H1815 H 0.12609 0.48715 0.15483 0.0
H1816 H 0.14093 0.52277 0.16935 0.0
H1817 H 0.11819 0.60294 0.27099 0.0
H1818 H 0.11862 0.59319 0.21093 0.0
H1819 H 0.15496 0.568 0.24049 0.0
H1820 H 0.15419 0.57716 0.30075 0.0
H1821 H 0.12525 0.54389 0.19616 0.0
H1822 H 0.17464 0.61469 0.20365 0.0
H1823 H 0.1836 0.64905 0.21876 0.0
H1824 H 0.14153 0.6471 0.14434 0.0
H1825 H 0.13194 0.61253 0.12946 0.0
C1826 C 0.14933 0.54094 0.03681 0.0
C1827 C 0.14123 0.547 0.01015 0.0
C1828 C 0.14966 0.54725 0.0708 0.0
C1829 C 0.14126 0.55914 0.07887 0.0
C1830 C 0.13379 0.56574 0.052 0.0
C1831 C 0.13392 0.55985 0.01786 0.0
C1832 C 0.13969 0.56417 0.11539 0.0
C1833 C 0.14641 0.58411 0.12402 0.0
C1834 C 0.13161 0.54942 0.14163 0.0
C1835 C 0.1224 0.52787 0.13364 0.0
C1836 C 0.10699 0.51892 0.1091 0.0
C1837 C 0.09876 0.49877 0.10088 0.0
C1838 C 0.10568 0.48735 0.11729 0.0
C1839 C 0.12077 0.49603 0.1421 0.0
C1840 C 0.12909 0.5162 0.15036 0.0
C1841 C 0.12633 0.59538 0.26474 0.0
C1842 C 0.13633 0.59102 0.29064 0.0
C1843 C 0.12655 0.58981 0.2304 0.0
C1844 C 0.13707 0.58013 0.22123 0.0
C1845 C 0.1468 0.5755 0.24706 0.0
C1846 C 0.14642 0.58085 0.28146 0.0
C1847 C 0.13827 0.57512 0.18463 0.0
C1848 C 0.13145 0.55516 0.17603 0.0
C1849 C 0.14568 0.58976 0.15826 0.0
C1850 C 0.15247 0.61098 0.16564 0.0
C1851 C 0.16731 0.6216 0.19051 0.0
C1852 C 0.17247 0.6411 0.19908 0.0
C1853 C 0.16311 0.65024 0.18255 0.0
C1854 C 0.14874 0.63998 0.15716 0.0
C1855 C 0.14343 0.62043 0.14866 0.0
H1856 H 0.16689 0.66524 0.18946 0.0
H1857 H 0.09932 0.47176 0.11083 0.0
H1858 H 0.51896 0.13187 0.60446 0.0
H1859 H 0.52922 0.12981 0.54544 0.0
H1860 H 0.58855 0.14856 0.58178 0.0
H1861 H 0.57865 0.15113 0.64063 0.0
H1862 H 0.58957 0.16635 0.52195 0.0
H1863 H 0.55571 0.09969 0.56658 0.0
H1864 H 0.52786 0.07025 0.59413 0.0
H1865 H 0.48937 0.06558 0.5103 0.0
H1866 H 0.51694 0.09519 0.48249 0.0
H1867 H 0.61986 0.13492 0.37089 0.0
H1868 H 0.61109 0.13607 0.43167 0.0
H1869 H 0.55296 0.12433 0.39998 0.0
H1870 H 0.56154 0.12332 0.33953 0.0
H1871 H 0.5524 0.10243 0.45833 0.0
H1872 H 0.58734 0.1692 0.41321 0.0
H1873 H 0.61556 0.19865 0.38659 0.0
H1874 H 0.65249 0.20373 0.47325 0.0
H1875 H 0.62481 0.17369 0.49955 0.0
C1876 C 0.53424 0.13571 0.5999 0.0
C1877 C 0.54793 0.14153 0.62736 0.0
C1878 C 0.54004 0.13444 0.56618 0.0
C1879 C 0.55955 0.13871 0.55941 0.0
C1880 C 0.5734 0.14513 0.58651 0.0
C1881 C 0.56767 0.14653 0.62017 0.0
C1882 C 0.56543 0.13606 0.52421 0.0
C1883 C 0.58165 0.1523 0.5082 0.0
C1884 C 0.55487 0.11777 0.50623 0.0
C1885 C 0.53835 0.09976 0.5226 0.0
C1886 C 0.54128 0.09246 0.55412 0.0
C1887 C 0.52554 0.07574 0.56978 0.0
C1888 C 0.50685 0.06608 0.55402 0.0
C1889 C 0.50386 0.07309 0.5225 0.0
C1890 C 0.51954 0.08983 0.50676 0.0
C1891 C 0.60514 0.13235 0.37697 0.0
C1892 C 0.59143 0.12917 0.35047 0.0
C1893 C 0.60019 0.13307 0.41159 0.0
C1894 C 0.58145 0.13042 0.42009 0.0
C1895 C 0.56749 0.12641 0.39384 0.0
C1896 C 0.57248 0.12595 0.35932 0.0
C1897 C 0.57652 0.13273 0.45611 0.0
C1898 C 0.56043 0.11642 0.47222 0.0
C1899 C 0.5873 0.15094 0.47422 0.0
C1900 C 0.60405 0.16892 0.45808 0.0
C1901 C 0.60159 0.17633 0.42628 0.0
C1902 C 0.61752 0.19314 0.41121 0.0
C1903 C 0.6359 0.20294 0.42802 0.0
C1904 C 0.63836 0.19596 0.45998 0.0
C1905 C 0.62257 0.179 0.47493 0.0
H1906 H 0.6482 0.216 0.41641 0.0
H1907 H 0.49468 0.05315 0.5662 0.0
loop_
_geom_bond_atom_site_label_1
_geom_bond_atom_site_label_2
_geom_bond_distance
_geom_bond_site_symmetry_2
_ccdc_geom_bond_type
Co0 O2 2.143 . S
Co0 O8 2.074 . S
Co0 O11 2.093 . S
Co0 O24 2.097 1_554 S
Co0 N41 2.151 . S
Co0 N49 2.214 1_554 S
Co1 O2 2.160 . S
Co1 O7 2.058 . S
Co1 O17 2.057 . S
Co1 O32 2.037 . S
Co1 N36 2.145 . S
Co1 N57 2.257 . S
O2 Co0 2.143 . S
O2 Co1 2.160 . S
C3 O4 1.278 . S
C3 O11 1.224 . S
O4 C3 1.278 . S
C5 O6 1.245 . S
C5 O17 1.232 . S
O6 C5 1.245 . S
O7 Co1 2.058 . S
O7 C33 1.269 . S
O8 Co0 2.074 . S
O8 C33 1.257 . S
H9 C34 0.930 . S
H10 C40 0.930 . S
O11 Co0 2.093 . S
O11 C3 1.224 . S
H12 C44 0.929 . S
H13 C46 0.930 . S
H14 C47 0.930 . S
H15 C45 0.929 . S
H16 C48 0.928 . S
O17 Co1 2.057 . S
O17 C5 1.232 . S
H18 C37 0.929 . S
H19 C38 0.929 . S
H20 C50 0.931 . S
H21 C42 0.929 . S
H22 C51 0.930 . S
H23 C43 0.931 . S
O24 Co0 2.097 1_556 S
O24 C52 1.214 . S
H25 C53 0.929 . S
H26 C54 0.929 . S
H27 C55 0.930 . S
H28 C56 0.929 . S
H29 C58 0.930 . S
H30 C35 0.930 . S
H31 C39 0.930 . S
O32 Co1 2.037 . S
O32 C52 1.234 1_554 S
C33 O7 1.269 . S
C33 O8 1.257 . S
C34 H9 0.930 . S
C34 C37 1.388 . S
C34 C39 1.418 . S
C35 H30 0.930 . S
C35 C38 1.404 . S
C35 C39 1.353 . S
N36 Co1 2.145 . S
N36 C37 1.397 . S
N36 C38 1.334 . S
C37 H18 0.929 . S
C37 C34 1.388 . S
C37 N36 1.397 . S
C38 H19 0.929 . S
C38 C35 1.404 . S
C38 N36 1.334 . S
C39 H31 0.930 . S
C39 C34 1.418 . S
C39 C35 1.353 . S
C40 H10 0.930 . S
C40 N41 1.330 . S
C40 C42 1.446 . S
N41 Co0 2.151 . S
N41 C40 1.330 . S
N41 C45 1.418 . S
C42 H21 0.929 . S
C42 C40 1.446 . S
C42 C43 1.332 . S
C43 H23 0.931 . S
C43 C42 1.332 . S
C43 C44 1.267 . S
C44 H12 0.929 . S
C44 C43 1.267 . S
C44 C45 1.251 . S
C45 H15 0.929 . S
C45 N41 1.418 . S
C45 C44 1.251 . S
C46 H13 0.930 . S
C46 C48 1.406 . S
C46 C51 1.261 . S
C47 H14 0.930 . S
C47 N49 1.325 . S
C47 C50 1.357 . S
C48 H16 0.928 . S
C48 C46 1.406 . S
C48 N49 1.261 . S
N49 Co0 2.214 1_556 S
N49 C47 1.325 . S
N49 C48 1.261 . S
C50 H20 0.931 . S
C50 C47 1.357 . S
C50 C51 1.312 . S
C51 H22 0.930 . S
C51 C46 1.261 . S
C51 C50 1.312 . S
C52 O24 1.214 . S
C52 O32 1.234 1_556 S
C53 H25 0.929 . S
C53 C56 1.391 . S
C53 C58 1.391 . S
C54 H26 0.929 . S
C54 C55 1.390 . S
C54 N57 1.391 . S
C55 H27 0.930 . S
C55 C54 1.390 . S
C55 C56 1.392 . S
C56 H28 0.929 . S
C56 C53 1.391 . S
C56 C55 1.392 . S
N57 Co1 2.257 . S
N57 C54 1.391 . S
N57 C58 1.388 . S
C58 H29 0.930 . S
C58 C53 1.391 . S
C58 N57 1.388 . S
Co59 O61 2.143 . S
Co59 O67 2.074 . S
Co59 O70 2.093 . S
Co59 O83 2.097 . S
Co59 N100 2.151 . S
Co59 N108 2.214 . S
Co60 O61 2.160 . S
Co60 O66 2.058 . S
Co60 O76 2.057 . S
Co60 O91 2.037 . S
Co60 N95 2.145 . S
Co60 N116 2.257 . S
O61 Co59 2.143 . S
O61 Co60 2.160 . S
C62 O63 1.278 . S
C62 O70 1.224 . S
O63 C62 1.278 . S
C64 O65 1.245 . S
C64 O76 1.232 . S
O65 C64 1.245 . S
O66 Co60 2.058 . S
O66 C92 1.269 . S
O67 Co59 2.074 . S
O67 C92 1.257 . S
H68 C93 0.930 . S
H69 C99 0.930 . S
O70 Co59 2.093 . S
O70 C62 1.224 . S
H71 C103 0.929 . S
H72 C105 0.930 . S
H73 C106 0.930 . S
H74 C104 0.929 . S
H75 C107 0.928 . S
O76 Co60 2.057 . S
O76 C64 1.232 . S
H77 C96 0.929 . S
H78 C97 0.929 . S
H79 C109 0.931 . S
H80 C101 0.929 . S
H81 C110 0.930 . S
H82 C102 0.931 . S
O83 Co59 2.097 . S
O83 C111 1.214 . S
H84 C112 0.929 . S
H85 C113 0.929 . S
H86 C114 0.930 . S
H87 C115 0.929 . S
H88 C117 0.930 . S
H89 C94 0.930 . S
H90 C98 0.930 . S
O91 Co60 2.037 . S
O91 C111 1.234 . S
C92 O66 1.269 . S
C92 O67 1.257 . S
C93 H68 0.930 . S
C93 C96 1.388 . S
C93 C98 1.418 . S
C94 H89 0.930 . S
C94 C97 1.404 . S
C94 C98 1.353 . S
N95 Co60 2.145 . S
N95 C96 1.397 . S
N95 C97 1.334 . S
C96 H77 0.929 . S
C96 C93 1.388 . S
C96 N95 1.397 . S
C97 H78 0.929 . S
C97 C94 1.404 . S
C97 N95 1.334 . S
C98 H90 0.930 . S
C98 C93 1.418 . S
C98 C94 1.353 . S
C99 H69 0.930 . S
C99 N100 1.330 . S
C99 C101 1.446 . S
N100 Co59 2.151 . S
N100 C99 1.330 . S
N100 C104 1.418 . S
C101 H80 0.929 . S
C101 C99 1.446 . S
C101 C102 1.332 . S
C102 H82 0.931 . S
C102 C101 1.332 . S
C102 C103 1.267 . S
C103 H71 0.929 . S
C103 C102 1.267 . S
C103 C104 1.251 . S
C104 H74 0.929 . S
C104 N100 1.418 . S
C104 C103 1.251 . S
C105 H72 0.930 . S
C105 C107 1.406 . S
C105 C110 1.261 . S
C106 H73 0.930 . S
C106 N108 1.325 . S
C106 C109 1.357 . S
C107 H75 0.928 . S
C107 C105 1.406 . S
C107 N108 1.261 . S
N108 Co59 2.214 . S
N108 C106 1.325 . S
N108 C107 1.261 . S
C109 H79 0.931 . S
C109 C106 1.357 . S
C109 C110 1.312 . S
C110 H81 0.930 . S
C110 C105 1.261 . S
C110 C109 1.312 . S
C111 O83 1.214 . S
C111 O91 1.234 . S
C112 H84 0.929 . S
C112 C115 1.391 . S
C112 C117 1.391 . S
C113 H85 0.929 . S
C113 C114 1.390 . S
C113 N116 1.391 . S
C114 H86 0.930 . S
C114 C113 1.390 . S
C114 C115 1.392 . S
C115 H87 0.929 . S
C115 C112 1.391 . S
C115 C114 1.392 . S
N116 Co60 2.257 . S
N116 C113 1.391 . S
N116 C117 1.388 . S
C117 H88 0.930 . S
C117 C112 1.391 . S
C117 N116 1.388 . S
Co118 O120 2.143 . S
Co118 O126 2.074 . S
Co118 O129 2.093 . S
Co118 O142 2.097 . S
Co118 N159 2.151 . S
Co118 N167 2.214 . S
Co119 O120 2.160 . S
Co119 O125 2.058 . S
Co119 O135 2.057 . S
Co119 O150 2.037 . S
Co119 N154 2.145 . S
Co119 N175 2.257 . S
O120 Co118 2.143 . S
O120 Co119 2.160 . S
C121 O122 1.278 . S
C121 O129 1.224 . S
O122 C121 1.278 . S
C123 O124 1.245 . S
C123 O135 1.232 . S
O124 C123 1.245 . S
O125 Co119 2.058 . S
O125 C151 1.269 . S
O126 Co118 2.074 . S
O126 C151 1.257 . S
H127 C152 0.930 . S
H128 C158 0.930 . S
O129 Co118 2.093 . S
O129 C121 1.224 . S
H130 C162 0.929 . S
H131 C164 0.930 . S
H132 C165 0.930 . S
H133 C163 0.929 . S
H134 C166 0.928 . S
O135 Co119 2.057 . S
O135 C123 1.232 . S
H136 C155 0.929 . S
H137 C156 0.929 . S
H138 C168 0.931 . S
H139 C160 0.929 . S
H140 C169 0.930 . S
H141 C161 0.931 . S
O142 Co118 2.097 . S
O142 C170 1.214 . S
H143 C171 0.929 . S
H144 C172 0.929 . S
H145 C173 0.930 . S
H146 C174 0.929 . S
H147 C176 0.930 . S
H148 C153 0.930 . S
H149 C157 0.930 . S
O150 Co119 2.037 . S
O150 C170 1.234 . S
C151 O125 1.269 . S
C151 O126 1.257 . S
C152 H127 0.930 . S
C152 C155 1.388 . S
C152 C157 1.418 . S
C153 H148 0.930 . S
C153 C156 1.404 . S
C153 C157 1.353 . S
N154 Co119 2.145 . S
N154 C155 1.397 . S
N154 C156 1.334 . S
C155 H136 0.929 . S
C155 C152 1.388 . S
C155 N154 1.397 . S
C156 H137 0.929 . S
C156 C153 1.404 . S
C156 N154 1.334 . S
C157 H149 0.930 . S
C157 C152 1.418 . S
C157 C153 1.353 . S
C158 H128 0.930 . S
C158 N159 1.330 . S
C158 C160 1.446 . S
N159 Co118 2.151 . S
N159 C158 1.330 . S
N159 C163 1.418 . S
C160 H139 0.929 . S
C160 C158 1.446 . S
C160 C161 1.332 . S
C161 H141 0.931 . S
C161 C160 1.332 . S
C161 C162 1.267 . S
C162 H130 0.929 . S
C162 C161 1.267 . S
C162 C163 1.251 . S
C163 H133 0.929 . S
C163 N159 1.418 . S
C163 C162 1.251 . S
C164 H131 0.930 . S
C164 C166 1.406 . S
C164 C169 1.261 . S
C165 H132 0.930 . S
C165 N167 1.325 . S
C165 C168 1.357 . S
C166 H134 0.928 . S
C166 C164 1.406 . S
C166 N167 1.261 . S
N167 Co118 2.214 . S
N167 C165 1.325 . S
N167 C166 1.261 . S
C168 H138 0.931 . S
C168 C165 1.357 . S
C168 C169 1.312 . S
C169 H140 0.930 . S
C169 C164 1.261 . S
C169 C168 1.312 . S
C170 O142 1.214 . S
C170 O150 1.234 . S
C171 H143 0.929 . S
C171 C174 1.391 . S
C171 C176 1.391 . S
C172 H144 0.929 . S
C172 C173 1.390 . S
C172 N175 1.391 . S
C173 H145 0.930 . S
C173 C172 1.390 . S
C173 C174 1.392 . S
C174 H146 0.929 . S
C174 C171 1.391 . S
C174 C173 1.392 . S
N175 Co119 2.257 . S
N175 C172 1.391 . S
N175 C176 1.388 . S
C176 H147 0.930 . S
C176 C171 1.391 . S
C176 N175 1.388 . S
Co177 O179 2.143 . S
Co177 O185 2.074 . S
Co177 O188 2.093 . S
Co177 O201 2.097 1_554 S
Co177 N218 2.151 . S
Co177 N226 2.214 1_554 S
Co178 O179 2.160 . S
Co178 O184 2.058 . S
Co178 O194 2.057 . S
Co178 O209 2.037 . S
Co178 N213 2.145 . S
Co178 N234 2.257 . S
O179 Co177 2.143 . S
O179 Co178 2.160 . S
C180 O181 1.278 . S
C180 O188 1.224 . S
O181 C180 1.278 . S
C182 O183 1.245 . S
C182 O194 1.232 . S
O183 C182 1.245 . S
O184 Co178 2.058 . S
O184 C210 1.269 . S
O185 Co177 2.074 . S
O185 C210 1.257 . S
H186 C211 0.930 . S
H187 C217 0.930 . S
O188 Co177 2.093 . S
O188 C180 1.224 . S
H189 C221 0.929 . S
H190 C223 0.930 . S
H191 C224 0.930 . S
H192 C222 0.929 . S
H193 C225 0.928 . S
O194 Co178 2.057 . S
O194 C182 1.232 . S
H195 C214 0.929 . S
H196 C215 0.929 . S
H197 C227 0.931 . S
H198 C219 0.929 . S
H199 C228 0.930 . S
H200 C220 0.931 . S
O201 Co177 2.097 1_556 S
O201 C229 1.214 . S
H202 C230 0.929 . S
H203 C231 0.929 . S
H204 C232 0.930 . S
H205 C233 0.929 . S
H206 C235 0.930 . S
H207 C212 0.930 . S
H208 C216 0.930 . S
O209 Co178 2.037 . S
O209 C229 1.234 1_554 S
C210 O184 1.269 . S
C210 O185 1.257 . S
C211 H186 0.930 . S
C211 C214 1.388 . S
C211 C216 1.418 . S
C212 H207 0.930 . S
C212 C215 1.404 . S
C212 C216 1.353 . S
N213 Co178 2.145 . S
N213 C214 1.397 . S
N213 C215 1.334 . S
C214 H195 0.929 . S
C214 C211 1.388 . S
C214 N213 1.397 . S
C215 H196 0.929 . S
C215 C212 1.404 . S
C215 N213 1.334 . S
C216 H208 0.930 . S
C216 C211 1.418 . S
C216 C212 1.353 . S
C217 H187 0.930 . S
C217 N218 1.330 . S
C217 C219 1.446 . S
N218 Co177 2.151 . S
N218 C217 1.330 . S
N218 C222 1.418 . S
C219 H198 0.929 . S
C219 C217 1.446 . S
C219 C220 1.332 . S
C220 H200 0.931 . S
C220 C219 1.332 . S
C220 C221 1.267 . S
C221 H189 0.929 . S
C221 C220 1.267 . S
C221 C222 1.251 . S
C222 H192 0.929 . S
C222 N218 1.418 . S
C222 C221 1.251 . S
C223 H190 0.930 . S
C223 C225 1.406 . S
C223 C228 1.261 . S
C224 H191 0.930 . S
C224 N226 1.325 . S
C224 C227 1.357 . S
C225 H193 0.928 . S
C225 C223 1.406 . S
C225 N226 1.261 . S
N226 Co177 2.214 1_556 S
N226 C224 1.325 . S
N226 C225 1.261 . S
C227 H197 0.931 . S
C227 C224 1.357 . S
C227 C228 1.312 . S
C228 H199 0.930 . S
C228 C223 1.261 . S
C228 C227 1.312 . S
C229 O201 1.214 . S
C229 O209 1.234 1_556 S
C230 H202 0.929 . S
C230 C233 1.391 . S
C230 C235 1.391 . S
C231 H203 0.929 . S
C231 C232 1.390 . S
C231 N234 1.391 . S
C232 H204 0.930 . S
C232 C231 1.390 . S
C232 C233 1.392 . S
C233 H205 0.929 . S
C233 C230 1.391 . S
C233 C232 1.392 . S
N234 Co178 2.257 . S
N234 C231 1.391 . S
N234 C235 1.388 . S
C235 H206 0.930 . S
C235 C230 1.391 . S
C235 N234 1.388 . S
Co236 O238 2.143 . S
Co236 O244 2.074 . S
Co236 O247 2.093 . S
Co236 O260 2.097 . S
Co236 N277 2.151 . S
Co236 N285 2.214 . S
Co237 O238 2.160 . S
Co237 O243 2.058 . S
Co237 O253 2.057 . S
Co237 O268 2.037 . S
Co237 N272 2.145 . S
Co237 N293 2.257 . S
O238 Co236 2.143 . S
O238 Co237 2.160 . S
C239 O240 1.278 . S
C239 O247 1.224 . S
O240 C239 1.278 . S
C241 O242 1.245 . S
C241 O253 1.232 . S
O242 C241 1.245 . S
O243 Co237 2.058 . S
O243 C269 1.269 . S
O244 Co236 2.074 . S
O244 C269 1.257 . S
H245 C270 0.930 . S
H246 C276 0.930 . S
O247 Co236 2.093 . S
O247 C239 1.224 . S
H248 C280 0.929 . S
H249 C282 0.930 . S
H250 C283 0.930 . S
H251 C281 0.929 . S
H252 C284 0.928 . S
O253 Co237 2.057 . S
O253 C241 1.232 . S
H254 C273 0.929 . S
H255 C274 0.929 . S
H256 C286 0.931 . S
H257 C278 0.929 . S
H258 C287 0.930 . S
H259 C279 0.931 . S
O260 Co236 2.097 . S
O260 C288 1.214 . S
H261 C289 0.929 . S
H262 C290 0.929 . S
H263 C291 0.930 . S
H264 C292 0.929 . S
H265 C294 0.930 . S
H266 C271 0.930 . S
H267 C275 0.930 . S
O268 Co237 2.037 . S
O268 C288 1.234 . S
C269 O243 1.269 . S
C269 O244 1.257 . S
C270 H245 0.930 . S
C270 C273 1.388 . S
C270 C275 1.418 . S
C271 H266 0.930 . S
C271 C274 1.404 . S
C271 C275 1.353 . S
N272 Co237 2.145 . S
N272 C273 1.397 . S
N272 C274 1.334 . S
C273 H254 0.929 . S
C273 C270 1.388 . S
C273 N272 1.397 . S
C274 H255 0.929 . S
C274 C271 1.404 . S
C274 N272 1.334 . S
C275 H267 0.930 . S
C275 C270 1.418 . S
C275 C271 1.353 . S
C276 H246 0.930 . S
C276 N277 1.330 . S
C276 C278 1.446 . S
N277 Co236 2.151 . S
N277 C276 1.330 . S
N277 C281 1.418 . S
C278 H257 0.929 . S
C278 C276 1.446 . S
C278 C279 1.332 . S
C279 H259 0.931 . S
C279 C278 1.332 . S
C279 C280 1.267 . S
C280 H248 0.929 . S
C280 C279 1.267 . S
C280 C281 1.251 . S
C281 H251 0.929 . S
C281 N277 1.418 . S
C281 C280 1.251 . S
C282 H249 0.930 . S
C282 C284 1.406 . S
C282 C287 1.261 . S
C283 H250 0.930 . S
C283 N285 1.325 . S
C283 C286 1.357 . S
C284 H252 0.928 . S
C284 C282 1.406 . S
C284 N285 1.261 . S
N285 Co236 2.214 . S
N285 C283 1.325 . S
N285 C284 1.261 . S
C286 H256 0.931 . S
C286 C283 1.357 . S
C286 C287 1.312 . S
C287 H258 0.930 . S
C287 C282 1.261 . S
C287 C286 1.312 . S
C288 O260 1.214 . S
C288 O268 1.234 . S
C289 H261 0.929 . S
C289 C292 1.391 . S
C289 C294 1.391 . S
C290 H262 0.929 . S
C290 C291 1.390 . S
C290 N293 1.391 . S
C291 H263 0.930 . S
C291 C290 1.390 . S
C291 C292 1.392 . S
C292 H264 0.929 . S
C292 C289 1.391 . S
C292 C291 1.392 . S
N293 Co237 2.257 . S
N293 C290 1.391 . S
N293 C294 1.388 . S
C294 H265 0.930 . S
C294 C289 1.391 . S
C294 N293 1.388 . S
Co295 O297 2.143 . S
Co295 O303 2.074 . S
Co295 O306 2.093 . S
Co295 O319 2.097 . S
Co295 N336 2.151 . S
Co295 N344 2.214 . S
Co296 O297 2.160 . S
Co296 O302 2.058 . S
Co296 O312 2.057 . S
Co296 O327 2.037 . S
Co296 N331 2.145 . S
Co296 N352 2.257 . S
O297 Co295 2.143 . S
O297 Co296 2.160 . S
C298 O299 1.278 . S
C298 O306 1.224 . S
O299 C298 1.278 . S
C300 O301 1.245 . S
C300 O312 1.232 . S
O301 C300 1.245 . S
O302 Co296 2.058 . S
O302 C328 1.269 . S
O303 Co295 2.074 . S
O303 C328 1.257 . S
H304 C329 0.930 . S
H305 C335 0.930 . S
O306 Co295 2.093 . S
O306 C298 1.224 . S
H307 C339 0.929 . S
H308 C341 0.930 . S
H309 C342 0.930 . S
H310 C340 0.929 . S
H311 C343 0.928 . S
O312 Co296 2.057 . S
O312 C300 1.232 . S
H313 C332 0.929 . S
H314 C333 0.929 . S
H315 C345 0.931 . S
H316 C337 0.929 . S
H317 C346 0.930 . S
H318 C338 0.931 . S
O319 Co295 2.097 . S
O319 C347 1.214 . S
H320 C348 0.929 . S
H321 C349 0.929 . S
H322 C350 0.930 . S
H323 C351 0.929 . S
H324 C353 0.930 . S
H325 C330 0.930 . S
H326 C334 0.930 . S
O327 Co296 2.037 . S
O327 C347 1.234 . S
C328 O302 1.269 . S
C328 O303 1.257 . S
C329 H304 0.930 . S
C329 C332 1.388 . S
C329 C334 1.418 . S
C330 H325 0.930 . S
C330 C333 1.404 . S
C330 C334 1.353 . S
N331 Co296 2.145 . S
N331 C332 1.397 . S
N331 C333 1.334 . S
C332 H313 0.929 . S
C332 C329 1.388 . S
C332 N331 1.397 . S
C333 H314 0.929 . S
C333 C330 1.404 . S
C333 N331 1.334 . S
C334 H326 0.930 . S
C334 C329 1.418 . S
C334 C330 1.353 . S
C335 H305 0.930 . S
C335 N336 1.330 . S
C335 C337 1.446 . S
N336 Co295 2.151 . S
N336 C335 1.330 . S
N336 C340 1.418 . S
C337 H316 0.929 . S
C337 C335 1.446 . S
C337 C338 1.332 . S
C338 H318 0.931 . S
C338 C337 1.332 . S
C338 C339 1.267 . S
C339 H307 0.929 . S
C339 C338 1.267 . S
C339 C340 1.251 . S
C340 H310 0.929 . S
C340 N336 1.418 . S
C340 C339 1.251 . S
C341 H308 0.930 . S
C341 C343 1.406 . S
C341 C346 1.261 . S
C342 H309 0.930 . S
C342 N344 1.325 . S
C342 C345 1.357 . S
C343 H311 0.928 . S
C343 C341 1.406 . S
C343 N344 1.261 . S
N344 Co295 2.214 . S
N344 C342 1.325 . S
N344 C343 1.261 . S
C345 H315 0.931 . S
C345 C342 1.357 . S
C345 C346 1.312 . S
C346 H317 0.930 . S
C346 C341 1.261 . S
C346 C345 1.312 . S
C347 O319 1.214 . S
C347 O327 1.234 . S
C348 H320 0.929 . S
C348 C351 1.391 . S
C348 C353 1.391 . S
C349 H321 0.929 . S
C349 C350 1.390 . S
C349 N352 1.391 . S
C350 H322 0.930 . S
C350 C349 1.390 . S
C350 C351 1.392 . S
C351 H323 0.929 . S
C351 C348 1.391 . S
C351 C350 1.392 . S
N352 Co296 2.257 . S
N352 C349 1.391 . S
N352 C353 1.388 . S
C353 H324 0.930 . S
C353 C348 1.391 . S
C353 N352 1.388 . S
Co354 O356 2.143 . S
Co354 O362 2.074 . S
Co354 O365 2.093 . S
Co354 O378 2.097 . S
Co354 N395 2.151 . S
Co354 N403 2.214 . S
Co355 O356 2.160 . S
Co355 O361 2.058 . S
Co355 O371 2.057 . S
Co355 O386 2.037 . S
Co355 N390 2.145 . S
Co355 N411 2.257 . S
O356 Co354 2.143 . S
O356 Co355 2.160 . S
C357 O358 1.278 . S
C357 O365 1.224 . S
O358 C357 1.278 . S
C359 O360 1.245 . S
C359 O371 1.232 . S
O360 C359 1.245 . S
O361 Co355 2.058 . S
O361 C387 1.269 . S
O362 Co354 2.074 . S
O362 C387 1.257 . S
H363 C388 0.930 . S
H364 C394 0.930 . S
O365 Co354 2.093 . S
O365 C357 1.224 . S
H366 C398 0.929 . S
H367 C400 0.930 . S
H368 C401 0.930 . S
H369 C399 0.929 . S
H370 C402 0.928 . S
O371 Co355 2.057 . S
O371 C359 1.232 . S
H372 C391 0.929 . S
H373 C392 0.929 . S
H374 C404 0.931 . S
H375 C396 0.929 . S
H376 C405 0.930 . S
H377 C397 0.931 . S
O378 Co354 2.097 . S
O378 C406 1.214 . S
H379 C407 0.929 . S
H380 C408 0.929 . S
H381 C409 0.930 . S
H382 C410 0.929 . S
H383 C412 0.930 . S
H384 C389 0.930 . S
H385 C393 0.930 . S
O386 Co355 2.037 . S
O386 C406 1.234 . S
C387 O361 1.269 . S
C387 O362 1.257 . S
C388 H363 0.930 . S
C388 C391 1.388 . S
C388 C393 1.418 . S
C389 H384 0.930 . S
C389 C392 1.404 . S
C389 C393 1.353 . S
N390 Co355 2.145 . S
N390 C391 1.397 . S
N390 C392 1.334 . S
C391 H372 0.929 . S
C391 C388 1.388 . S
C391 N390 1.397 . S
C392 H373 0.929 . S
C392 C389 1.404 . S
C392 N390 1.334 . S
C393 H385 0.930 . S
C393 C388 1.418 . S
C393 C389 1.353 . S
C394 H364 0.930 . S
C394 N395 1.330 . S
C394 C396 1.446 . S
N395 Co354 2.151 . S
N395 C394 1.330 . S
N395 C399 1.418 . S
C396 H375 0.929 . S
C396 C394 1.446 . S
C396 C397 1.332 . S
C397 H377 0.931 . S
C397 C396 1.332 . S
C397 C398 1.267 . S
C398 H366 0.929 . S
C398 C397 1.267 . S
C398 C399 1.251 . S
C399 H369 0.929 . S
C399 N395 1.418 . S
C399 C398 1.251 . S
C400 H367 0.930 . S
C400 C402 1.406 . S
C400 C405 1.261 . S
C401 H368 0.930 . S
C401 N403 1.325 . S
C401 C404 1.357 . S
C402 H370 0.928 . S
C402 C400 1.406 . S
C402 N403 1.261 . S
N403 Co354 2.214 . S
N403 C401 1.325 . S
N403 C402 1.261 . S
C404 H374 0.931 . S
C404 C401 1.357 . S
C404 C405 1.312 . S
C405 H376 0.930 . S
C405 C400 1.261 . S
C405 C404 1.312 . S
C406 O378 1.214 . S
C406 O386 1.234 . S
C407 H379 0.929 . S
C407 C410 1.391 . S
C407 C412 1.391 . S
C408 H380 0.929 . S
C408 C409 1.390 . S
C408 N411 1.391 . S
C409 H381 0.930 . S
C409 C408 1.390 . S
C409 C410 1.392 . S
C410 H382 0.929 . S
C410 C407 1.391 . S
C410 C409 1.392 . S
N411 Co355 2.257 . S
N411 C408 1.391 . S
N411 C412 1.388 . S
C412 H383 0.930 . S
C412 C407 1.391 . S
C412 N411 1.388 . S
Co413 O415 2.143 . S
Co413 O421 2.074 . S
Co413 O424 2.093 . S
Co413 O437 2.097 1_556 S
Co413 N454 2.151 . S
Co413 N462 2.214 1_556 S
Co414 O415 2.160 . S
Co414 O420 2.058 . S
Co414 O430 2.057 . S
Co414 O445 2.037 . S
Co414 N449 2.145 . S
Co414 N470 2.257 . S
O415 Co413 2.143 . S
O415 Co414 2.160 . S
C416 O417 1.278 . S
C416 O424 1.224 . S
O417 C416 1.278 . S
C418 O419 1.245 . S
C418 O430 1.232 . S
O419 C418 1.245 . S
O420 Co414 2.058 . S
O420 C446 1.269 . S
O421 Co413 2.074 . S
O421 C446 1.257 . S
H422 C447 0.930 . S
H423 C453 0.930 . S
O424 Co413 2.093 . S
O424 C416 1.224 . S
H425 C457 0.929 . S
H426 C459 0.930 . S
H427 C460 0.930 . S
H428 C458 0.929 . S
H429 C461 0.928 . S
O430 Co414 2.057 . S
O430 C418 1.232 . S
H431 C450 0.929 . S
H432 C451 0.929 . S
H433 C463 0.931 . S
H434 C455 0.929 . S
H435 C464 0.930 . S
H436 C456 0.931 . S
O437 Co413 2.097 1_554 S
O437 C465 1.214 . S
H438 C466 0.929 . S
H439 C467 0.929 . S
H440 C468 0.930 . S
H441 C469 0.929 . S
H442 C471 0.930 . S
H443 C448 0.930 . S
H444 C452 0.930 . S
O445 Co414 2.037 . S
O445 C465 1.234 1_556 S
C446 O420 1.269 . S
C446 O421 1.257 . S
C447 H422 0.930 . S
C447 C450 1.388 . S
C447 C452 1.418 . S
C448 H443 0.930 . S
C448 C451 1.404 . S
C448 C452 1.353 . S
N449 Co414 2.145 . S
N449 C450 1.397 . S
N449 C451 1.334 . S
C450 H431 0.929 . S
C450 C447 1.388 . S
C450 N449 1.397 . S
C451 H432 0.929 . S
C451 C448 1.404 . S
C451 N449 1.334 . S
C452 H444 0.930 . S
C452 C447 1.418 . S
C452 C448 1.353 . S
C453 H423 0.930 . S
C453 N454 1.330 . S
C453 C455 1.446 . S
N454 Co413 2.151 . S
N454 C453 1.330 . S
N454 C458 1.418 . S
C455 H434 0.929 . S
C455 C453 1.446 . S
C455 C456 1.332 . S
C456 H436 0.931 . S
C456 C455 1.332 . S
C456 C457 1.267 . S
C457 H425 0.929 . S
C457 C456 1.267 . S
C457 C458 1.251 . S
C458 H428 0.929 . S
C458 N454 1.418 . S
C458 C457 1.251 . S
C459 H426 0.930 . S
C459 C461 1.406 . S
C459 C464 1.261 . S
C460 H427 0.930 . S
C460 N462 1.325 . S
C460 C463 1.357 . S
C461 H429 0.928 . S
C461 C459 1.406 . S
C461 N462 1.261 . S
N462 Co413 2.214 1_554 S
N462 C460 1.325 . S
N462 C461 1.261 . S
C463 H433 0.931 . S
C463 C460 1.357 . S
C463 C464 1.312 . S
C464 H435 0.930 . S
C464 C459 1.261 . S
C464 C463 1.312 . S
C465 O437 1.214 . S
C465 O445 1.234 1_554 S
C466 H438 0.929 . S
C466 C469 1.391 . S
C466 C471 1.391 . S
C467 H439 0.929 . S
C467 C468 1.390 . S
C467 N470 1.391 . S
C468 H440 0.930 . S
C468 C467 1.390 . S
C468 C469 1.392 . S
C469 H441 0.929 . S
C469 C466 1.391 . S
C469 C468 1.392 . S
N470 Co414 2.257 . S
N470 C467 1.391 . S
N470 C471 1.388 . S
C471 H442 0.930 . S
C471 C466 1.391 . S
C471 N470 1.388 . S
Co472 O474 2.143 . S
Co472 O480 2.074 . S
Co472 O483 2.093 . S
Co472 O496 2.097 . S
Co472 N513 2.151 . S
Co472 N521 2.214 . S
Co473 O474 2.160 . S
Co473 O479 2.058 . S
Co473 O489 2.057 . S
Co473 O504 2.037 . S
Co473 N508 2.145 . S
Co473 N529 2.257 . S
O474 Co472 2.143 . S
O474 Co473 2.160 . S
C475 O476 1.278 . S
C475 O483 1.224 . S
O476 C475 1.278 . S
C477 O478 1.245 . S
C477 O489 1.232 . S
O478 C477 1.245 . S
O479 Co473 2.058 . S
O479 C505 1.269 . S
O480 Co472 2.074 . S
O480 C505 1.257 . S
H481 C506 0.930 . S
H482 C512 0.930 . S
O483 Co472 2.093 . S
O483 C475 1.224 . S
H484 C516 0.929 . S
H485 C518 0.930 . S
H486 C519 0.930 . S
H487 C517 0.929 . S
H488 C520 0.928 . S
O489 Co473 2.057 . S
O489 C477 1.232 . S
H490 C509 0.929 . S
H491 C510 0.929 . S
H492 C522 0.931 . S
H493 C514 0.929 . S
H494 C523 0.930 . S
H495 C515 0.931 . S
O496 Co472 2.097 . S
O496 C524 1.214 . S
H497 C525 0.929 . S
H498 C526 0.929 . S
H499 C527 0.930 . S
H500 C528 0.929 . S
H501 C530 0.930 . S
H502 C507 0.930 . S
H503 C511 0.930 . S
O504 Co473 2.037 . S
O504 C524 1.234 . S
C505 O479 1.269 . S
C505 O480 1.257 . S
C506 H481 0.930 . S
C506 C509 1.388 . S
C506 C511 1.418 . S
C507 H502 0.930 . S
C507 C510 1.404 . S
C507 C511 1.353 . S
N508 Co473 2.145 . S
N508 C509 1.397 . S
N508 C510 1.334 . S
C509 H490 0.929 . S
C509 C506 1.388 . S
C509 N508 1.397 . S
C510 H491 0.929 . S
C510 C507 1.404 . S
C510 N508 1.334 . S
C511 H503 0.930 . S
C511 C506 1.418 . S
C511 C507 1.353 . S
C512 H482 0.930 . S
C512 N513 1.330 . S
C512 C514 1.446 . S
N513 Co472 2.151 . S
N513 C512 1.330 . S
N513 C517 1.418 . S
C514 H493 0.929 . S
C514 C512 1.446 . S
C514 C515 1.332 . S
C515 H495 0.931 . S
C515 C514 1.332 . S
C515 C516 1.267 . S
C516 H484 0.929 . S
C516 C515 1.267 . S
C516 C517 1.251 . S
C517 H487 0.929 . S
C517 N513 1.418 . S
C517 C516 1.251 . S
C518 H485 0.930 . S
C518 C520 1.406 . S
C518 C523 1.261 . S
C519 H486 0.930 . S
C519 N521 1.325 . S
C519 C522 1.357 . S
C520 H488 0.928 . S
C520 C518 1.406 . S
C520 N521 1.261 . S
N521 Co472 2.214 . S
N521 C519 1.325 . S
N521 C520 1.261 . S
C522 H492 0.931 . S
C522 C519 1.357 . S
C522 C523 1.312 . S
C523 H494 0.930 . S
C523 C518 1.261 . S
C523 C522 1.312 . S
C524 O496 1.214 . S
C524 O504 1.234 . S
C525 H497 0.929 . S
C525 C528 1.391 . S
C525 C530 1.391 . S
C526 H498 0.929 . S
C526 C527 1.390 . S
C526 N529 1.391 . S
C527 H499 0.930 . S
C527 C526 1.390 . S
C527 C528 1.392 . S
C528 H500 0.929 . S
C528 C525 1.391 . S
C528 C527 1.392 . S
N529 Co473 2.257 . S
N529 C526 1.391 . S
N529 C530 1.388 . S
C530 H501 0.930 . S
C530 C525 1.391 . S
C530 N529 1.388 . S
Co531 O533 2.143 . S
Co531 O539 2.074 . S
Co531 O542 2.093 . S
Co531 O555 2.097 . S
Co531 N572 2.151 . S
Co531 N580 2.214 . S
Co532 O533 2.160 . S
Co532 O538 2.058 . S
Co532 O548 2.057 . S
Co532 O563 2.037 . S
Co532 N567 2.145 . S
Co532 N588 2.257 . S
O533 Co531 2.143 . S
O533 Co532 2.160 . S
C534 O535 1.278 . S
C534 O542 1.224 . S
O535 C534 1.278 . S
C536 O537 1.245 . S
C536 O548 1.232 . S
O537 C536 1.245 . S
O538 Co532 2.058 . S
O538 C564 1.269 . S
O539 Co531 2.074 . S
O539 C564 1.257 . S
H540 C565 0.930 . S
H541 C571 0.930 . S
O542 Co531 2.093 . S
O542 C534 1.224 . S
H543 C575 0.929 . S
H544 C577 0.930 . S
H545 C578 0.930 . S
H546 C576 0.929 . S
H547 C579 0.928 . S
O548 Co532 2.057 . S
O548 C536 1.232 . S
H549 C568 0.929 . S
H550 C569 0.929 . S
H551 C581 0.931 . S
H552 C573 0.929 . S
H553 C582 0.930 . S
H554 C574 0.931 . S
O555 Co531 2.097 . S
O555 C583 1.214 . S
H556 C584 0.929 . S
H557 C585 0.929 . S
H558 C586 0.930 . S
H559 C587 0.929 . S
H560 C589 0.930 . S
H561 C566 0.930 . S
H562 C570 0.930 . S
O563 Co532 2.037 . S
O563 C583 1.234 . S
C564 O538 1.269 . S
C564 O539 1.257 . S
C565 H540 0.930 . S
C565 C568 1.388 . S
C565 C570 1.418 . S
C566 H561 0.930 . S
C566 C569 1.404 . S
C566 C570 1.353 . S
N567 Co532 2.145 . S
N567 C568 1.397 . S
N567 C569 1.334 . S
C568 H549 0.929 . S
C568 C565 1.388 . S
C568 N567 1.397 . S
C569 H550 0.929 . S
C569 C566 1.404 . S
C569 N567 1.334 . S
C570 H562 0.930 . S
C570 C565 1.418 . S
C570 C566 1.353 . S
C571 H541 0.930 . S
C571 N572 1.330 . S
C571 C573 1.446 . S
N572 Co531 2.151 . S
N572 C571 1.330 . S
N572 C576 1.418 . S
C573 H552 0.929 . S
C573 C571 1.446 . S
C573 C574 1.332 . S
C574 H554 0.931 . S
C574 C573 1.332 . S
C574 C575 1.267 . S
C575 H543 0.929 . S
C575 C574 1.267 . S
C575 C576 1.251 . S
C576 H546 0.929 . S
C576 N572 1.418 . S
C576 C575 1.251 . S
C577 H544 0.930 . S
C577 C579 1.406 . S
C577 C582 1.261 . S
C578 H545 0.930 . S
C578 N580 1.325 . S
C578 C581 1.357 . S
C579 H547 0.928 . S
C579 C577 1.406 . S
C579 N580 1.261 . S
N580 Co531 2.214 . S
N580 C578 1.325 . S
N580 C579 1.261 . S
C581 H551 0.931 . S
C581 C578 1.357 . S
C581 C582 1.312 . S
C582 H553 0.930 . S
C582 C577 1.261 . S
C582 C581 1.312 . S
C583 O555 1.214 . S
C583 O563 1.234 . S
C584 H556 0.929 . S
C584 C587 1.391 . S
C584 C589 1.391 . S
C585 H557 0.929 . S
C585 C586 1.390 . S
C585 N588 1.391 . S
C586 H558 0.930 . S
C586 C585 1.390 . S
C586 C587 1.392 . S
C587 H559 0.929 . S
C587 C584 1.391 . S
C587 C586 1.392 . S
N588 Co532 2.257 . S
N588 C585 1.391 . S
N588 C589 1.388 . S
C589 H560 0.930 . S
C589 C584 1.391 . S
C589 N588 1.388 . S
Co590 O592 2.143 . S
Co590 O598 2.074 . S
Co590 O601 2.093 . S
Co590 O614 2.097 1_556 S
Co590 N631 2.151 . S
Co590 N639 2.214 1_556 S
Co591 O592 2.160 . S
Co591 O597 2.058 . S
Co591 O607 2.057 . S
Co591 O622 2.037 . S
Co591 N626 2.145 . S
Co591 N647 2.257 . S
O592 Co590 2.143 . S
O592 Co591 2.160 . S
C593 O594 1.278 . S
C593 O601 1.224 . S
O594 C593 1.278 . S
C595 O596 1.245 . S
C595 O607 1.232 . S
O596 C595 1.245 . S
O597 Co591 2.058 . S
O597 C623 1.269 . S
O598 Co590 2.074 . S
O598 C623 1.257 . S
H599 C624 0.930 . S
H600 C630 0.930 . S
O601 Co590 2.093 . S
O601 C593 1.224 . S
H602 C634 0.929 . S
H603 C636 0.930 . S
H604 C637 0.930 . S
H605 C635 0.929 . S
H606 C638 0.928 . S
O607 Co591 2.057 . S
O607 C595 1.232 . S
H608 C627 0.929 . S
H609 C628 0.929 . S
H610 C640 0.931 . S
H611 C632 0.929 . S
H612 C641 0.930 . S
H613 C633 0.931 . S
O614 Co590 2.097 1_554 S
O614 C642 1.214 . S
H615 C643 0.929 . S
H616 C644 0.929 . S
H617 C645 0.930 . S
H618 C646 0.929 . S
H619 C648 0.930 . S
H620 C625 0.930 . S
H621 C629 0.930 . S
O622 Co591 2.037 . S
O622 C642 1.234 1_556 S
C623 O597 1.269 . S
C623 O598 1.257 . S
C624 H599 0.930 . S
C624 C627 1.388 . S
C624 C629 1.418 . S
C625 H620 0.930 . S
C625 C628 1.404 . S
C625 C629 1.353 . S
N626 Co591 2.145 . S
N626 C627 1.397 . S
N626 C628 1.334 . S
C627 H608 0.929 . S
C627 C624 1.388 . S
C627 N626 1.397 . S
C628 H609 0.929 . S
C628 C625 1.404 . S
C628 N626 1.334 . S
C629 H621 0.930 . S
C629 C624 1.418 . S
C629 C625 1.353 . S
C630 H600 0.930 . S
C630 N631 1.330 . S
C630 C632 1.446 . S
N631 Co590 2.151 . S
N631 C630 1.330 . S
N631 C635 1.418 . S
C632 H611 0.929 . S
C632 C630 1.446 . S
C632 C633 1.332 . S
C633 H613 0.931 . S
C633 C632 1.332 . S
C633 C634 1.267 . S
C634 H602 0.929 . S
C634 C633 1.267 . S
C634 C635 1.251 . S
C635 H605 0.929 . S
C635 N631 1.418 . S
C635 C634 1.251 . S
C636 H603 0.930 . S
C636 C638 1.406 . S
C636 C641 1.261 . S
C637 H604 0.930 . S
C637 N639 1.325 . S
C637 C640 1.357 . S
C638 H606 0.928 . S
C638 C636 1.406 . S
C638 N639 1.261 . S
N639 Co590 2.214 1_554 S
N639 C637 1.325 . S
N639 C638 1.261 . S
C640 H610 0.931 . S
C640 C637 1.357 . S
C640 C641 1.312 . S
C641 H612 0.930 . S
C641 C636 1.261 . S
C641 C640 1.312 . S
C642 O614 1.214 . S
C642 O622 1.234 1_554 S
C643 H615 0.929 . S
C643 C646 1.391 . S
C643 C648 1.391 . S
C644 H616 0.929 . S
C644 C645 1.390 . S
C644 N647 1.391 . S
C645 H617 0.930 . S
C645 C644 1.390 . S
C645 C646 1.392 . S
C646 H618 0.929 . S
C646 C643 1.391 . S
C646 C645 1.392 . S
N647 Co591 2.257 . S
N647 C644 1.391 . S
N647 C648 1.388 . S
C648 H619 0.930 . S
C648 C643 1.391 . S
C648 N647 1.388 . S
Co649 O651 2.143 . S
Co649 O657 2.074 . S
Co649 O660 2.093 . S
Co649 O673 2.097 . S
Co649 N690 2.151 . S
Co649 N698 2.214 . S
Co650 O651 2.160 . S
Co650 O656 2.058 . S
Co650 O666 2.057 . S
Co650 O681 2.037 . S
Co650 N685 2.145 . S
Co650 N706 2.257 . S
O651 Co649 2.143 . S
O651 Co650 2.160 . S
C652 O653 1.278 . S
C652 O660 1.224 . S
O653 C652 1.278 . S
C654 O655 1.245 . S
C654 O666 1.232 . S
O655 C654 1.245 . S
O656 Co650 2.058 . S
O656 C682 1.269 . S
O657 Co649 2.074 . S
O657 C682 1.257 . S
H658 C683 0.930 . S
H659 C689 0.930 . S
O660 Co649 2.093 . S
O660 C652 1.224 . S
H661 C693 0.929 . S
H662 C695 0.930 . S
H663 C696 0.930 . S
H664 C694 0.929 . S
H665 C697 0.928 . S
O666 Co650 2.057 . S
O666 C654 1.232 . S
H667 C686 0.929 . S
H668 C687 0.929 . S
H669 C699 0.931 . S
H670 C691 0.929 . S
H671 C700 0.930 . S
H672 C692 0.931 . S
O673 Co649 2.097 . S
O673 C701 1.214 . S
H674 C702 0.929 . S
H675 C703 0.929 . S
H676 C704 0.930 . S
H677 C705 0.929 . S
H678 C707 0.930 . S
H679 C684 0.930 . S
H680 C688 0.930 . S
O681 Co650 2.037 . S
O681 C701 1.234 . S
C682 O656 1.269 . S
C682 O657 1.257 . S
C683 H658 0.930 . S
C683 C686 1.388 . S
C683 C688 1.418 . S
C684 H679 0.930 . S
C684 C687 1.404 . S
C684 C688 1.353 . S
N685 Co650 2.145 . S
N685 C686 1.397 . S
N685 C687 1.334 . S
C686 H667 0.929 . S
C686 C683 1.388 . S
C686 N685 1.397 . S
C687 H668 0.929 . S
C687 C684 1.404 . S
C687 N685 1.334 . S
C688 H680 0.930 . S
C688 C683 1.418 . S
C688 C684 1.353 . S
C689 H659 0.930 . S
C689 N690 1.330 . S
C689 C691 1.446 . S
N690 Co649 2.151 . S
N690 C689 1.330 . S
N690 C694 1.418 . S
C691 H670 0.929 . S
C691 C689 1.446 . S
C691 C692 1.332 . S
C692 H672 0.931 . S
C692 C691 1.332 . S
C692 C693 1.267 . S
C693 H661 0.929 . S
C693 C692 1.267 . S
C693 C694 1.251 . S
C694 H664 0.929 . S
C694 N690 1.418 . S
C694 C693 1.251 . S
C695 H662 0.930 . S
C695 C697 1.406 . S
C695 C700 1.261 . S
C696 H663 0.930 . S
C696 N698 1.325 . S
C696 C699 1.357 . S
C697 H665 0.928 . S
C697 C695 1.406 . S
C697 N698 1.261 . S
N698 Co649 2.214 . S
N698 C696 1.325 . S
N698 C697 1.261 . S
C699 H669 0.931 . S
C699 C696 1.357 . S
C699 C700 1.312 . S
C700 H671 0.930 . S
C700 C695 1.261 . S
C700 C699 1.312 . S
C701 O673 1.214 . S
C701 O681 1.234 . S
C702 H674 0.929 . S
C702 C705 1.391 . S
C702 C707 1.391 . S
C703 H675 0.929 . S
C703 C704 1.390 . S
C703 N706 1.391 . S
C704 H676 0.930 . S
C704 C703 1.390 . S
C704 C705 1.392 . S
C705 H677 0.929 . S
C705 C702 1.391 . S
C705 C704 1.392 . S
N706 Co650 2.257 . S
N706 C703 1.391 . S
N706 C707 1.388 . S
C707 H678 0.930 . S
C707 C702 1.391 . S
C707 N706 1.388 . S
H708 C726 0.951 . S
H709 C728 0.951 . S
H710 C730 0.950 . S
H711 C731 0.950 . S
H712 C733 0.950 . S
H713 C736 0.950 . S
H714 C737 0.950 . S
H715 C739 0.950 . S
H716 C740 0.950 . S
H717 C741 0.951 . S
H718 C743 0.951 . S
H719 C745 0.950 . S
H720 C746 0.950 . S
H721 C748 0.950 . S
H722 C751 0.950 . S
H723 C752 0.950 . S
H724 C754 0.950 . S
H725 C755 0.950 . S
C726 H708 0.951 . S
C726 C727 1.366 . S
C726 C728 1.388 . S
C727 C726 1.366 . S
C727 C731 1.385 . S
C728 H709 0.951 . S
C728 C726 1.388 . S
C728 C729 1.366 . S
C729 C728 1.366 . S
C729 C730 1.414 . S
C729 C732 1.499 . S
C730 H710 0.950 . S
C730 C729 1.414 . S
C730 C731 1.374 . S
C731 H711 0.950 . S
C731 C727 1.385 . S
C731 C730 1.374 . S
C732 C729 1.499 . S
C732 C733 1.373 . S
C732 C734 1.389 . S
C733 H712 0.950 . S
C733 C732 1.373 . S
C733 C749 1.377 . S
C734 C732 1.389 . S
C734 C735 1.524 . S
C734 C748 1.377 . S
C735 C734 1.524 . S
C735 C736 1.397 . S
C735 C740 1.363 . S
C736 H713 0.950 . S
C736 C735 1.397 . S
C736 C737 1.334 . S
C737 H714 0.950 . S
C737 C736 1.334 . S
C737 C738 1.287 . S
C738 C737 1.287 . S
C738 C739 1.524 . S
C738 H757 0.913 . S
C739 H715 0.950 . S
C739 C738 1.524 . S
C739 C740 1.415 . S
C740 H716 0.950 . S
C740 C735 1.363 . S
C740 C739 1.415 . S
C741 H717 0.951 . S
C741 C742 1.366 . S
C741 C743 1.388 . S
C742 C741 1.366 . S
C742 C746 1.385 . S
C743 H718 0.951 . S
C743 C741 1.388 . S
C743 C744 1.366 . S
C744 C743 1.366 . S
C744 C745 1.414 . S
C744 C747 1.499 . S
C745 H719 0.950 . S
C745 C744 1.414 . S
C745 C746 1.374 . S
C746 H720 0.950 . S
C746 C742 1.385 . S
C746 C745 1.374 . S
C747 C744 1.499 . S
C747 C748 1.373 . S
C747 C749 1.389 . S
C748 H721 0.950 . S
C748 C734 1.377 . S
C748 C747 1.373 . S
C749 C733 1.377 . S
C749 C747 1.389 . S
C749 C750 1.524 . S
C750 C749 1.524 . S
C750 C751 1.397 . S
C750 C755 1.363 . S
C751 H722 0.950 . S
C751 C750 1.397 . S
C751 C752 1.334 . S
C752 H723 0.950 . S
C752 C751 1.334 . S
C752 C753 1.287 . S
C753 C752 1.287 . S
C753 C754 1.524 . S
C753 H756 0.999 . S
C754 H724 0.950 . S
C754 C753 1.524 . S
C754 C755 1.415 . S
C755 H725 0.950 . S
C755 C750 1.363 . S
C755 C754 1.415 . S
H756 C753 0.999 . S
H757 C738 0.913 . S
H758 C776 0.951 . S
H759 C778 0.951 . S
H760 C780 0.950 . S
H761 C781 0.950 . S
H762 C783 0.950 . S
H763 C786 0.950 . S
H764 C787 0.950 . S
H765 C789 0.950 . S
H766 C790 0.950 . S
H767 C791 0.951 . S
H768 C793 0.951 . S
H769 C795 0.950 . S
H770 C796 0.950 . S
H771 C798 0.950 . S
H772 C801 0.950 . S
H773 C802 0.950 . S
H774 C804 0.950 . S
H775 C805 0.950 . S
C776 H758 0.951 . S
C776 C777 1.366 . S
C776 C778 1.388 . S
C777 C776 1.366 . S
C777 C781 1.385 . S
C778 H759 0.951 . S
C778 C776 1.388 . S
C778 C779 1.366 . S
C779 C778 1.366 . S
C779 C780 1.414 . S
C779 C782 1.499 . S
C780 H760 0.950 . S
C780 C779 1.414 . S
C780 C781 1.374 . S
C781 H761 0.950 . S
C781 C777 1.385 . S
C781 C780 1.374 . S
C782 C779 1.499 . S
C782 C783 1.373 . S
C782 C784 1.389 . S
C783 H762 0.950 . S
C783 C782 1.373 . S
C783 C799 1.377 . S
C784 C782 1.389 . S
C784 C785 1.524 . S
C784 C798 1.377 . S
C785 C784 1.524 . S
C785 C786 1.397 . S
C785 C790 1.363 . S
C786 H763 0.950 . S
C786 C785 1.397 . S
C786 C787 1.334 . S
C787 H764 0.950 . S
C787 C786 1.334 . S
C787 C788 1.287 . S
C788 C787 1.287 . S
C788 C789 1.524 . S
C788 H807 0.913 . S
C789 H765 0.950 . S
C789 C788 1.524 . S
C789 C790 1.415 . S
C790 H766 0.950 . S
C790 C785 1.363 . S
C790 C789 1.415 . S
C791 H767 0.951 . S
C791 C792 1.366 . S
C791 C793 1.388 . S
C792 C791 1.366 . S
C792 C796 1.385 . S
C793 H768 0.951 . S
C793 C791 1.388 . S
C793 C794 1.366 . S
C794 C793 1.366 . S
C794 C795 1.414 . S
C794 C797 1.499 . S
C795 H769 0.950 . S
C795 C794 1.414 . S
C795 C796 1.374 . S
C796 H770 0.950 . S
C796 C792 1.385 . S
C796 C795 1.374 . S
C797 C794 1.499 . S
C797 C798 1.373 . S
C797 C799 1.389 . S
C798 H771 0.950 . S
C798 C784 1.377 . S
C798 C797 1.373 . S
C799 C783 1.377 . S
C799 C797 1.389 . S
C799 C800 1.524 . S
C800 C799 1.524 . S
C800 C801 1.397 . S
C800 C805 1.363 . S
C801 H772 0.950 . S
C801 C800 1.397 . S
C801 C802 1.334 . S
C802 H773 0.950 . S
C802 C801 1.334 . S
C802 C803 1.287 . S
C803 C802 1.287 . S
C803 C804 1.524 . S
C803 H806 0.999 . S
C804 H774 0.950 . S
C804 C803 1.524 . S
C804 C805 1.415 . S
C805 H775 0.950 . S
C805 C800 1.363 . S
C805 C804 1.415 . S
H806 C803 0.999 . S
H807 C788 0.913 . S
H808 C826 0.951 . S
H809 C828 0.951 . S
H810 C830 0.950 . S
H811 C831 0.950 . S
H812 C833 0.950 . S
H813 C836 0.950 . S
H814 C837 0.950 . S
H815 C839 0.950 . S
H816 C840 0.950 . S
H817 C841 0.951 . S
H818 C843 0.951 . S
H819 C845 0.950 . S
H820 C846 0.950 . S
H821 C848 0.950 . S
H822 C851 0.950 . S
H823 C852 0.950 . S
H824 C854 0.950 . S
H825 C855 0.950 . S
C826 H808 0.951 . S
C826 C827 1.366 . S
C826 C828 1.388 . S
C827 C826 1.366 . S
C827 C831 1.385 . S
C828 H809 0.951 . S
C828 C826 1.388 . S
C828 C829 1.366 . S
C829 C828 1.366 . S
C829 C830 1.414 . S
C829 C832 1.499 . S
C830 H810 0.950 . S
C830 C829 1.414 . S
C830 C831 1.374 . S
C831 H811 0.950 . S
C831 C827 1.385 . S
C831 C830 1.374 . S
C832 C829 1.499 . S
C832 C833 1.373 . S
C832 C834 1.389 . S
C833 H812 0.950 . S
C833 C832 1.373 . S
C833 C849 1.377 1_556 S
C834 C832 1.389 . S
C834 C835 1.524 . S
C834 C848 1.377 1_556 S
C835 C834 1.524 . S
C835 C836 1.397 . S
C835 C840 1.363 . S
C836 H813 0.950 . S
C836 C835 1.397 . S
C836 C837 1.334 . S
C837 H814 0.950 . S
C837 C836 1.334 . S
C837 C838 1.287 . S
C838 C837 1.287 . S
C838 C839 1.524 . S
C838 H857 0.913 . S
C839 H815 0.950 . S
C839 C838 1.524 . S
C839 C840 1.415 . S
C840 H816 0.950 . S
C840 C835 1.363 . S
C840 C839 1.415 . S
C841 H817 0.951 . S
C841 C842 1.366 . S
C841 C843 1.388 . S
C842 C841 1.366 . S
C842 C846 1.385 . S
C843 H818 0.951 . S
C843 C841 1.388 . S
C843 C844 1.366 . S
C844 C843 1.366 . S
C844 C845 1.414 . S
C844 C847 1.499 . S
C845 H819 0.950 . S
C845 C844 1.414 . S
C845 C846 1.374 . S
C846 H820 0.950 . S
C846 C842 1.385 . S
C846 C845 1.374 . S
C847 C844 1.499 . S
C847 C848 1.373 . S
C847 C849 1.389 . S
C848 H821 0.950 . S
C848 C834 1.377 1_554 S
C848 C847 1.373 . S
C849 C833 1.377 1_554 S
C849 C847 1.389 . S
C849 C850 1.524 . S
C850 C849 1.524 . S
C850 C851 1.397 . S
C850 C855 1.363 . S
C851 H822 0.950 . S
C851 C850 1.397 . S
C851 C852 1.334 . S
C852 H823 0.950 . S
C852 C851 1.334 . S
C852 C853 1.287 . S
C853 C852 1.287 . S
C853 C854 1.524 . S
C853 H856 0.999 . S
C854 H824 0.950 . S
C854 C853 1.524 . S
C854 C855 1.415 . S
C855 H825 0.950 . S
C855 C850 1.363 . S
C855 C854 1.415 . S
H856 C853 0.999 . S
H857 C838 0.913 . S
H858 C876 0.951 . S
H859 C878 0.951 . S
H860 C880 0.950 . S
H861 C881 0.950 . S
H862 C883 0.950 . S
H863 C886 0.950 . S
H864 C887 0.950 . S
H865 C889 0.950 . S
H866 C890 0.950 . S
H867 C891 0.951 . S
H868 C893 0.951 . S
H869 C895 0.950 . S
H870 C896 0.950 . S
H871 C898 0.950 . S
H872 C901 0.950 . S
H873 C902 0.950 . S
H874 C904 0.950 . S
H875 C905 0.950 . S
C876 H858 0.951 . S
C876 C877 1.366 . S
C876 C878 1.388 . S
C877 C876 1.366 . S
C877 C881 1.385 . S
C878 H859 0.951 . S
C878 C876 1.388 . S
C878 C879 1.366 . S
C879 C878 1.366 . S
C879 C880 1.414 . S
C879 C882 1.499 . S
C880 H860 0.950 . S
C880 C879 1.414 . S
C880 C881 1.374 . S
C881 H861 0.950 . S
C881 C877 1.385 . S
C881 C880 1.374 . S
C882 C879 1.499 . S
C882 C883 1.373 . S
C882 C884 1.389 . S
C883 H862 0.950 . S
C883 C882 1.373 . S
C883 C899 1.377 . S
C884 C882 1.389 . S
C884 C885 1.524 . S
C884 C898 1.377 . S
C885 C884 1.524 . S
C885 C886 1.397 . S
C885 C890 1.363 . S
C886 H863 0.950 . S
C886 C885 1.397 . S
C886 C887 1.334 . S
C887 H864 0.950 . S
C887 C886 1.334 . S
C887 C888 1.287 . S
C888 C887 1.287 . S
C888 C889 1.524 . S
C888 H907 0.913 . S
C889 H865 0.950 . S
C889 C888 1.524 . S
C889 C890 1.415 . S
C890 H866 0.950 . S
C890 C885 1.363 . S
C890 C889 1.415 . S
C891 H867 0.951 . S
C891 C892 1.366 . S
C891 C893 1.388 . S
C892 C891 1.366 . S
C892 C896 1.385 . S
C893 H868 0.951 . S
C893 C891 1.388 . S
C893 C894 1.366 . S
C894 C893 1.366 . S
C894 C895 1.414 . S
C894 C897 1.499 . S
C895 H869 0.950 . S
C895 C894 1.414 . S
C895 C896 1.374 . S
C896 H870 0.950 . S
C896 C892 1.385 . S
C896 C895 1.374 . S
C897 C894 1.499 . S
C897 C898 1.373 . S
C897 C899 1.389 . S
C898 H871 0.950 . S
C898 C884 1.377 . S
C898 C897 1.373 . S
C899 C883 1.377 . S
C899 C897 1.389 . S
C899 C900 1.524 . S
C900 C899 1.524 . S
C900 C901 1.397 . S
C900 C905 1.363 . S
C901 H872 0.950 . S
C901 C900 1.397 . S
C901 C902 1.334 . S
C902 H873 0.950 . S
C902 C901 1.334 . S
C902 C903 1.287 . S
C903 C902 1.287 . S
C903 C904 1.524 . S
C903 H906 0.999 . S
C904 H874 0.950 . S
C904 C903 1.524 . S
C904 C905 1.415 . S
C905 H875 0.950 . S
C905 C900 1.363 . S
C905 C904 1.415 . S
H906 C903 0.999 . S
H907 C888 0.913 . S
H908 C926 0.951 . S
H909 C928 0.951 . S
H910 C930 0.950 . S
H911 C931 0.950 . S
H912 C933 0.950 . S
H913 C936 0.950 . S
H914 C937 0.950 . S
H915 C939 0.950 . S
H916 C940 0.950 . S
H917 C941 0.951 . S
H918 C943 0.951 . S
H919 C945 0.950 . S
H920 C946 0.950 . S
H921 C948 0.950 . S
H922 C951 0.950 . S
H923 C952 0.950 . S
H924 C954 0.950 . S
H925 C955 0.950 . S
C926 H908 0.951 . S
C926 C927 1.366 . S
C926 C928 1.388 . S
C927 C926 1.366 . S
C927 C931 1.385 . S
C928 H909 0.951 . S
C928 C926 1.388 . S
C928 C929 1.366 . S
C929 C928 1.366 . S
C929 C930 1.414 . S
C929 C932 1.499 . S
C930 H910 0.950 . S
C930 C929 1.414 . S
C930 C931 1.374 . S
C931 H911 0.950 . S
C931 C927 1.385 . S
C931 C930 1.374 . S
C932 C929 1.499 . S
C932 C933 1.373 . S
C932 C934 1.389 . S
C933 H912 0.950 . S
C933 C932 1.373 . S
C933 C949 1.377 . S
C934 C932 1.389 . S
C934 C935 1.524 . S
C934 C948 1.377 . S
C935 C934 1.524 . S
C935 C936 1.397 . S
C935 C940 1.363 . S
C936 H913 0.950 . S
C936 C935 1.397 . S
C936 C937 1.334 . S
C937 H914 0.950 . S
C937 C936 1.334 . S
C937 C938 1.287 . S
C938 C937 1.287 . S
C938 C939 1.524 . S
C938 H957 0.913 . S
C939 H915 0.950 . S
C939 C938 1.524 . S
C939 C940 1.415 . S
C940 H916 0.950 . S
C940 C935 1.363 . S
C940 C939 1.415 . S
C941 H917 0.951 . S
C941 C942 1.366 . S
C941 C943 1.388 . S
C942 C941 1.366 . S
C942 C946 1.385 . S
C943 H918 0.951 . S
C943 C941 1.388 . S
C943 C944 1.366 . S
C944 C943 1.366 . S
C944 C945 1.414 . S
C944 C947 1.499 . S
C945 H919 0.950 . S
C945 C944 1.414 . S
C945 C946 1.374 . S
C946 H920 0.950 . S
C946 C942 1.385 . S
C946 C945 1.374 . S
C947 C944 1.499 . S
C947 C948 1.373 . S
C947 C949 1.389 . S
C948 H921 0.950 . S
C948 C934 1.377 . S
C948 C947 1.373 . S
C949 C933 1.377 . S
C949 C947 1.389 . S
C949 C950 1.524 . S
C950 C949 1.524 . S
C950 C951 1.397 . S
C950 C955 1.363 . S
C951 H922 0.950 . S
C951 C950 1.397 . S
C951 C952 1.334 . S
C952 H923 0.950 . S
C952 C951 1.334 . S
C952 C953 1.287 . S
C953 C952 1.287 . S
C953 C954 1.524 . S
C953 H956 0.999 . S
C954 H924 0.950 . S
C954 C953 1.524 . S
C954 C955 1.415 . S
C955 H925 0.950 . S
C955 C950 1.363 . S
C955 C954 1.415 . S
H956 C953 0.999 . S
H957 C938 0.913 . S
H958 C976 0.951 . S
H959 C978 0.951 . S
H960 C980 0.950 . S
H961 C981 0.950 . S
H962 C983 0.950 . S
H963 C986 0.950 . S
H964 C987 0.950 . S
H965 C989 0.950 . S
H966 C990 0.950 . S
H967 C991 0.951 . S
H968 C993 0.951 . S
H969 C995 0.950 . S
H970 C996 0.950 . S
H971 C998 0.950 . S
H972 C1001 0.950 . S
H973 C1002 0.950 . S
H974 C1004 0.950 . S
H975 C1005 0.950 . S
C976 H958 0.951 . S
C976 C977 1.366 . S
C976 C978 1.388 . S
C977 C976 1.366 . S
C977 C981 1.385 . S
C978 H959 0.951 . S
C978 C976 1.388 . S
C978 C979 1.366 . S
C979 C978 1.366 . S
C979 C980 1.414 . S
C979 C982 1.499 . S
C980 H960 0.950 . S
C980 C979 1.414 . S
C980 C981 1.374 . S
C981 H961 0.950 . S
C981 C977 1.385 . S
C981 C980 1.374 . S
C982 C979 1.499 . S
C982 C983 1.373 . S
C982 C984 1.389 . S
C983 H962 0.950 . S
C983 C982 1.373 . S
C983 C999 1.377 1_554 S
C984 C982 1.389 . S
C984 C985 1.524 . S
C984 C998 1.377 1_554 S
C985 C984 1.524 . S
C985 C986 1.397 . S
C985 C990 1.363 . S
C986 H963 0.950 . S
C986 C985 1.397 . S
C986 C987 1.334 . S
C987 H964 0.950 . S
C987 C986 1.334 . S
C987 C988 1.287 . S
C988 C987 1.287 . S
C988 C989 1.524 . S
C988 H1007 0.913 . S
C989 H965 0.950 . S
C989 C988 1.524 . S
C989 C990 1.415 . S
C990 H966 0.950 . S
C990 C985 1.363 . S
C990 C989 1.415 . S
C991 H967 0.951 . S
C991 C992 1.366 . S
C991 C993 1.388 . S
C992 C991 1.366 . S
C992 C996 1.385 . S
C993 H968 0.951 . S
C993 C991 1.388 . S
C993 C994 1.366 . S
C994 C993 1.366 . S
C994 C995 1.414 . S
C994 C997 1.499 . S
C995 H969 0.950 . S
C995 C994 1.414 . S
C995 C996 1.374 . S
C996 H970 0.950 . S
C996 C992 1.385 . S
C996 C995 1.374 . S
C997 C994 1.499 . S
C997 C998 1.373 . S
C997 C999 1.389 . S
C998 H971 0.950 . S
C998 C984 1.377 1_556 S
C998 C997 1.373 . S
C999 C983 1.377 1_556 S
C999 C997 1.389 . S
C999 C1000 1.524 . S
C1000 C999 1.524 . S
C1000 C1001 1.397 . S
C1000 C1005 1.363 . S
C1001 H972 0.950 . S
C1001 C1000 1.397 . S
C1001 C1002 1.334 . S
C1002 H973 0.950 . S
C1002 C1001 1.334 . S
C1002 C1003 1.287 . S
C1003 C1002 1.287 . S
C1003 C1004 1.524 . S
C1003 H1006 0.999 . S
C1004 H974 0.950 . S
C1004 C1003 1.524 . S
C1004 C1005 1.415 . S
C1005 H975 0.950 . S
C1005 C1000 1.363 . S
C1005 C1004 1.415 . S
H1006 C1003 0.999 . S
H1007 C988 0.913 . S
H1008 C1026 0.951 . S
H1009 C1028 0.951 . S
H1010 C1030 0.950 1_556 S
H1011 C1031 0.950 . S
H1012 C1033 0.950 . S
H1013 C1036 0.950 . S
H1014 C1037 0.950 . S
H1015 C1039 0.950 . S
H1016 C1040 0.950 . S
H1017 C1041 0.951 . S
H1018 C1043 0.951 . S
H1019 C1045 0.950 1_554 S
H1020 C1046 0.950 . S
H1021 C1048 0.950 . S
H1022 C1051 0.950 . S
H1023 C1052 0.950 . S
H1024 C1054 0.950 . S
H1025 C1055 0.950 . S
C1026 H1008 0.951 . S
C1026 C1027 1.366 . S
C1026 C1028 1.388 . S
C1027 C1026 1.366 . S
C1027 C1031 1.385 . S
C1028 H1009 0.951 . S
C1028 C1026 1.388 . S
C1028 C1029 1.366 . S
C1029 C1028 1.366 . S
C1029 C1030 1.414 . S
C1029 C1032 1.499 . S
C1030 H1010 0.950 1_554 S
C1030 C1029 1.414 . S
C1030 C1031 1.374 . S
C1031 H1011 0.950 . S
C1031 C1027 1.385 . S
C1031 C1030 1.374 . S
C1032 C1029 1.499 . S
C1032 C1033 1.373 . S
C1032 C1034 1.393 . S
C1033 H1012 0.950 . S
C1033 C1032 1.373 . S
C1033 C1049 1.373 1_554 S
C1034 C1032 1.393 . S
C1034 C1035 1.523 1_554 S
C1034 C1048 1.373 1_554 S
C1035 C1034 1.523 1_556 S
C1035 C1036 1.397 . S
C1035 C1040 1.363 1_556 S
C1036 H1013 0.950 . S
C1036 C1035 1.397 . S
C1036 C1037 1.334 . S
C1037 H1014 0.950 . S
C1037 C1036 1.334 . S
C1037 C1038 1.287 . S
C1038 C1037 1.287 . S
C1038 C1039 1.524 1_556 S
C1038 H1057 0.913 . S
C1039 H1015 0.950 . S
C1039 C1038 1.524 1_554 S
C1039 C1040 1.415 . S
C1040 H1016 0.950 . S
C1040 C1035 1.363 1_554 S
C1040 C1039 1.415 . S
C1041 H1017 0.951 . S
C1041 C1042 1.366 . S
C1041 C1043 1.388 . S
C1042 C1041 1.366 . S
C1042 C1046 1.385 . S
C1043 H1018 0.951 . S
C1043 C1041 1.388 . S
C1043 C1044 1.366 . S
C1044 C1043 1.366 . S
C1044 C1045 1.414 . S
C1044 C1047 1.499 . S
C1045 H1019 0.950 1_556 S
C1045 C1044 1.414 . S
C1045 C1046 1.374 . S
C1046 H1020 0.950 . S
C1046 C1042 1.385 . S
C1046 C1045 1.374 . S
C1047 C1044 1.499 . S
C1047 C1048 1.373 . S
C1047 C1049 1.393 . S
C1048 H1021 0.950 . S
C1048 C1034 1.373 1_556 S
C1048 C1047 1.373 . S
C1049 C1033 1.373 1_556 S
C1049 C1047 1.393 . S
C1049 C1050 1.523 1_556 S
C1050 C1049 1.523 1_554 S
C1050 C1051 1.397 . S
C1050 C1055 1.363 1_554 S
C1051 H1022 0.950 . S
C1051 C1050 1.397 . S
C1051 C1052 1.334 . S
C1052 H1023 0.950 . S
C1052 C1051 1.334 . S
C1052 C1053 1.287 . S
C1053 C1052 1.287 . S
C1053 C1054 1.524 1_554 S
C1053 H1056 0.999 . S
C1054 H1024 0.950 . S
C1054 C1053 1.524 1_556 S
C1054 C1055 1.415 . S
C1055 H1025 0.950 . S
C1055 C1050 1.363 1_556 S
C1055 C1054 1.415 . S
H1056 C1053 0.999 . S
H1057 C1038 0.913 . S
H1058 C1076 0.951 . S
H1059 C1078 0.951 . S
H1060 C1080 0.950 . S
H1061 C1081 0.950 . S
H1062 C1083 0.950 . S
H1063 C1086 0.950 . S
H1064 C1087 0.950 . S
H1065 C1089 0.950 . S
H1066 C1090 0.950 . S
H1067 C1091 0.951 . S
H1068 C1093 0.951 . S
H1069 C1095 0.950 . S
H1070 C1096 0.950 . S
H1071 C1098 0.950 . S
H1072 C1101 0.950 . S
H1073 C1102 0.950 . S
H1074 C1104 0.950 . S
H1075 C1105 0.950 . S
C1076 H1058 0.951 . S
C1076 C1077 1.366 . S
C1076 C1078 1.388 . S
C1077 C1076 1.366 . S
C1077 C1081 1.385 . S
C1078 H1059 0.951 . S
C1078 C1076 1.388 . S
C1078 C1079 1.366 . S
C1079 C1078 1.366 . S
C1079 C1080 1.414 . S
C1079 C1082 1.499 . S
C1080 H1060 0.950 . S
C1080 C1079 1.414 . S
C1080 C1081 1.374 . S
C1081 H1061 0.950 . S
C1081 C1077 1.385 . S
C1081 C1080 1.374 . S
C1082 C1079 1.499 . S
C1082 C1083 1.373 . S
C1082 C1084 1.389 . S
C1083 H1062 0.950 . S
C1083 C1082 1.373 . S
C1083 C1099 1.377 . S
C1084 C1082 1.389 . S
C1084 C1085 1.524 . S
C1084 C1098 1.377 . S
C1085 C1084 1.524 . S
C1085 C1086 1.397 . S
C1085 C1090 1.363 . S
C1086 H1063 0.950 . S
C1086 C1085 1.397 . S
C1086 C1087 1.334 . S
C1087 H1064 0.950 . S
C1087 C1086 1.334 . S
C1087 C1088 1.287 . S
C1088 C1087 1.287 . S
C1088 C1089 1.524 . S
C1088 H1107 0.913 . S
C1089 H1065 0.950 . S
C1089 C1088 1.524 . S
C1089 C1090 1.415 . S
C1090 H1066 0.950 . S
C1090 C1085 1.363 . S
C1090 C1089 1.415 . S
C1091 H1067 0.951 . S
C1091 C1092 1.366 . S
C1091 C1093 1.388 . S
C1092 C1091 1.366 . S
C1092 C1096 1.385 . S
C1093 H1068 0.951 . S
C1093 C1091 1.388 . S
C1093 C1094 1.366 . S
C1094 C1093 1.366 . S
C1094 C1095 1.414 . S
C1094 C1097 1.499 . S
C1095 H1069 0.950 . S
C1095 C1094 1.414 . S
C1095 C1096 1.374 . S
C1096 H1070 0.950 . S
C1096 C1092 1.385 . S
C1096 C1095 1.374 . S
C1097 C1094 1.499 . S
C1097 C1098 1.373 . S
C1097 C1099 1.389 . S
C1098 H1071 0.950 . S
C1098 C1084 1.377 . S
C1098 C1097 1.373 . S
C1099 C1083 1.377 . S
C1099 C1097 1.389 . S
C1099 C1100 1.524 . S
C1100 C1099 1.524 . S
C1100 C1101 1.397 . S
C1100 C1105 1.363 . S
C1101 H1072 0.950 . S
C1101 C1100 1.397 . S
C1101 C1102 1.334 . S
C1102 H1073 0.950 . S
C1102 C1101 1.334 . S
C1102 C1103 1.287 . S
C1103 C1102 1.287 . S
C1103 C1104 1.524 . S
C1103 H1106 0.999 . S
C1104 H1074 0.950 . S
C1104 C1103 1.524 . S
C1104 C1105 1.415 . S
C1105 H1075 0.950 . S
C1105 C1100 1.363 . S
C1105 C1104 1.415 . S
H1106 C1103 0.999 . S
H1107 C1088 0.913 . S
H1108 C1126 0.951 . S
H1109 C1128 0.951 . S
H1110 C1130 0.950 . S
H1111 C1131 0.950 . S
H1112 C1133 0.950 . S
H1113 C1136 0.950 . S
H1114 C1137 0.950 . S
H1115 C1139 0.950 . S
H1116 C1140 0.950 . S
H1117 C1141 0.951 . S
H1118 C1143 0.951 . S
H1119 C1145 0.950 . S
H1120 C1146 0.950 . S
H1121 C1148 0.950 . S
H1122 C1151 0.950 . S
H1123 C1152 0.950 . S
H1124 C1154 0.950 . S
H1125 C1155 0.950 . S
C1126 H1108 0.951 . S
C1126 C1127 1.366 . S
C1126 C1128 1.388 . S
C1127 C1126 1.366 . S
C1127 C1131 1.385 . S
C1128 H1109 0.951 . S
C1128 C1126 1.388 . S
C1128 C1129 1.366 . S
C1129 C1128 1.366 . S
C1129 C1130 1.414 . S
C1129 C1132 1.499 . S
C1130 H1110 0.950 . S
C1130 C1129 1.414 . S
C1130 C1131 1.374 . S
C1131 H1111 0.950 . S
C1131 C1127 1.385 . S
C1131 C1130 1.374 . S
C1132 C1129 1.499 . S
C1132 C1133 1.373 . S
C1132 C1134 1.389 . S
C1133 H1112 0.950 . S
C1133 C1132 1.373 . S
C1133 C1149 1.377 . S
C1134 C1132 1.389 . S
C1134 C1135 1.524 . S
C1134 C1148 1.377 . S
C1135 C1134 1.524 . S
C1135 C1136 1.397 . S
C1135 C1140 1.363 . S
C1136 H1113 0.950 . S
C1136 C1135 1.397 . S
C1136 C1137 1.334 . S
C1137 H1114 0.950 . S
C1137 C1136 1.334 . S
C1137 C1138 1.287 . S
C1138 C1137 1.287 . S
C1138 C1139 1.524 . S
C1138 H1157 0.913 . S
C1139 H1115 0.950 . S
C1139 C1138 1.524 . S
C1139 C1140 1.415 . S
C1140 H1116 0.950 . S
C1140 C1135 1.363 . S
C1140 C1139 1.415 . S
C1141 H1117 0.951 . S
C1141 C1142 1.366 . S
C1141 C1143 1.388 . S
C1142 C1141 1.366 . S
C1142 C1146 1.385 . S
C1143 H1118 0.951 . S
C1143 C1141 1.388 . S
C1143 C1144 1.366 . S
C1144 C1143 1.366 . S
C1144 C1145 1.414 . S
C1144 C1147 1.499 . S
C1145 H1119 0.950 . S
C1145 C1144 1.414 . S
C1145 C1146 1.374 . S
C1146 H1120 0.950 . S
C1146 C1142 1.385 . S
C1146 C1145 1.374 . S
C1147 C1144 1.499 . S
C1147 C1148 1.373 . S
C1147 C1149 1.389 . S
C1148 H1121 0.950 . S
C1148 C1134 1.377 . S
C1148 C1147 1.373 . S
C1149 C1133 1.377 . S
C1149 C1147 1.389 . S
C1149 C1150 1.524 . S
C1150 C1149 1.524 . S
C1150 C1151 1.397 . S
C1150 C1155 1.363 . S
C1151 H1122 0.950 . S
C1151 C1150 1.397 . S
C1151 C1152 1.334 . S
C1152 H1123 0.950 . S
C1152 C1151 1.334 . S
C1152 C1153 1.287 . S
C1153 C1152 1.287 . S
C1153 C1154 1.524 . S
C1153 H1156 0.999 . S
C1154 H1124 0.950 . S
C1154 C1153 1.524 . S
C1154 C1155 1.415 . S
C1155 H1125 0.950 . S
C1155 C1150 1.363 . S
C1155 C1154 1.415 . S
H1156 C1153 0.999 . S
H1157 C1138 0.913 . S
H1158 C1176 0.951 . S
H1159 C1178 0.951 . S
H1160 C1180 0.950 1_556 S
H1161 C1181 0.961 . S
H1162 C1183 0.950 . S
H1163 C1186 0.950 . S
H1164 C1187 0.950 . S
H1165 C1189 0.950 . S
H1166 C1190 0.950 . S
H1167 C1191 0.951 . S
H1168 C1193 0.951 . S
H1169 C1195 0.950 1_554 S
H1170 C1196 0.961 . S
H1171 C1198 0.950 . S
H1172 C1201 0.950 . S
H1173 C1202 0.950 . S
H1174 C1204 0.950 . S
H1175 C1205 0.950 . S
C1176 H1158 0.951 . S
C1176 C1177 1.366 . S
C1176 C1178 1.388 . S
C1177 C1176 1.366 . S
C1177 C1181 1.385 . S
C1178 H1159 0.951 . S
C1178 C1176 1.388 . S
C1178 C1179 1.366 . S
C1179 C1178 1.366 . S
C1179 C1180 1.414 . S
C1179 C1182 1.499 . S
C1180 H1160 0.950 1_554 S
C1180 C1179 1.414 . S
C1180 C1181 1.374 . S
C1181 H1161 0.961 . S
C1181 C1177 1.385 . S
C1181 C1180 1.374 . S
C1182 C1179 1.499 . S
C1182 C1183 1.373 . S
C1182 C1184 1.389 . S
C1183 H1162 0.950 . S
C1183 C1182 1.373 . S
C1183 C1199 1.377 1_554 S
C1184 C1182 1.389 . S
C1184 C1185 1.524 . S
C1184 C1198 1.377 1_554 S
C1185 C1184 1.524 . S
C1185 C1186 1.397 1_554 S
C1185 C1190 1.363 . S
C1186 H1163 0.950 . S
C1186 C1185 1.397 1_556 S
C1186 C1187 1.334 . S
C1187 H1164 0.950 . S
C1187 C1186 1.334 . S
C1187 C1188 1.287 1_556 S
C1188 C1187 1.287 1_554 S
C1188 C1189 1.524 . S
C1188 H1207 0.913 . S
C1189 H1165 0.950 . S
C1189 C1188 1.524 . S
C1189 C1190 1.415 . S
C1190 H1166 0.950 . S
C1190 C1185 1.363 . S
C1190 C1189 1.415 . S
C1191 H1167 0.951 . S
C1191 C1192 1.366 . S
C1191 C1193 1.388 . S
C1192 C1191 1.366 . S
C1192 C1196 1.385 . S
C1193 H1168 0.951 . S
C1193 C1191 1.388 . S
C1193 C1194 1.366 . S
C1194 C1193 1.366 . S
C1194 C1195 1.414 . S
C1194 C1197 1.499 . S
C1195 H1169 0.950 1_556 S
C1195 C1194 1.414 . S
C1195 C1196 1.374 . S
C1196 H1170 0.961 . S
C1196 C1192 1.385 . S
C1196 C1195 1.374 . S
C1197 C1194 1.499 . S
C1197 C1198 1.373 . S
C1197 C1199 1.389 . S
C1198 H1171 0.950 . S
C1198 C1184 1.377 1_556 S
C1198 C1197 1.373 . S
C1199 C1183 1.377 1_556 S
C1199 C1197 1.389 . S
C1199 C1200 1.524 . S
C1200 C1199 1.524 . S
C1200 C1201 1.397 1_556 S
C1200 C1205 1.363 . S
C1201 H1172 0.950 . S
C1201 C1200 1.397 1_554 S
C1201 C1202 1.334 . S
C1202 H1173 0.950 . S
C1202 C1201 1.334 . S
C1202 C1203 1.287 1_554 S
C1203 C1202 1.287 1_556 S
C1203 C1204 1.524 . S
C1203 H1206 0.999 . S
C1204 H1174 0.950 . S
C1204 C1203 1.524 . S
C1204 C1205 1.415 . S
C1205 H1175 0.950 . S
C1205 C1200 1.363 . S
C1205 C1204 1.415 . S
H1206 C1203 0.999 . S
H1207 C1188 0.913 . S
H1208 C1226 0.951 . S
H1209 C1228 0.951 . S
H1210 C1230 0.950 . S
H1211 C1231 0.950 . S
H1212 C1233 0.950 . S
H1213 C1236 0.950 . S
H1214 C1237 0.950 . S
H1215 C1239 0.950 . S
H1216 C1240 0.950 . S
H1217 C1241 0.951 . S
H1218 C1243 0.951 . S
H1219 C1245 0.950 . S
H1220 C1246 0.950 . S
H1221 C1248 0.950 . S
H1222 C1251 0.950 . S
H1223 C1252 0.950 . S
H1224 C1254 0.950 . S
H1225 C1255 0.950 . S
C1226 H1208 0.951 . S
C1226 C1227 1.366 . S
C1226 C1228 1.388 . S
C1227 C1226 1.366 . S
C1227 C1231 1.385 . S
C1228 H1209 0.951 . S
C1228 C1226 1.388 . S
C1228 C1229 1.366 . S
C1229 C1228 1.366 . S
C1229 C1230 1.414 . S
C1229 C1232 1.499 . S
C1230 H1210 0.950 . S
C1230 C1229 1.414 . S
C1230 C1231 1.374 . S
C1231 H1211 0.950 . S
C1231 C1227 1.385 . S
C1231 C1230 1.374 . S
C1232 C1229 1.499 . S
C1232 C1233 1.373 . S
C1232 C1234 1.389 . S
C1233 H1212 0.950 . S
C1233 C1232 1.373 . S
C1233 C1249 1.377 . S
C1234 C1232 1.389 . S
C1234 C1235 1.524 . S
C1234 C1248 1.377 . S
C1235 C1234 1.524 . S
C1235 C1236 1.397 . S
C1235 C1240 1.363 . S
C1236 H1213 0.950 . S
C1236 C1235 1.397 . S
C1236 C1237 1.334 . S
C1237 H1214 0.950 . S
C1237 C1236 1.334 . S
C1237 C1238 1.287 . S
C1238 C1237 1.287 . S
C1238 C1239 1.524 . S
C1238 H1257 0.913 . S
C1239 H1215 0.950 . S
C1239 C1238 1.524 . S
C1239 C1240 1.415 . S
C1240 H1216 0.950 . S
C1240 C1235 1.363 . S
C1240 C1239 1.415 . S
C1241 H1217 0.951 . S
C1241 C1242 1.366 . S
C1241 C1243 1.388 . S
C1242 C1241 1.366 . S
C1242 C1246 1.385 . S
C1243 H1218 0.951 . S
C1243 C1241 1.388 . S
C1243 C1244 1.366 . S
C1244 C1243 1.366 . S
C1244 C1245 1.414 . S
C1244 C1247 1.499 . S
C1245 H1219 0.950 . S
C1245 C1244 1.414 . S
C1245 C1246 1.374 . S
C1246 H1220 0.950 . S
C1246 C1242 1.385 . S
C1246 C1245 1.374 . S
C1247 C1244 1.499 . S
C1247 C1248 1.373 . S
C1247 C1249 1.389 . S
C1248 H1221 0.950 . S
C1248 C1234 1.377 . S
C1248 C1247 1.373 . S
C1249 C1233 1.377 . S
C1249 C1247 1.389 . S
C1249 C1250 1.524 . S
C1250 C1249 1.524 . S
C1250 C1251 1.397 . S
C1250 C1255 1.363 . S
C1251 H1222 0.950 . S
C1251 C1250 1.397 . S
C1251 C1252 1.334 . S
C1252 H1223 0.950 . S
C1252 C1251 1.334 . S
C1252 C1253 1.287 . S
C1253 C1252 1.287 . S
C1253 C1254 1.524 . S
C1253 H1256 0.999 . S
C1254 H1224 0.950 . S
C1254 C1253 1.524 . S
C1254 C1255 1.415 . S
C1255 H1225 0.950 . S
C1255 C1250 1.363 . S
C1255 C1254 1.415 . S
H1256 C1253 0.999 . S
H1257 C1238 0.913 . S
H1258 C1276 0.951 . S
H1259 C1278 0.951 . S
H1260 C1280 0.950 . S
H1261 C1281 0.950 . S
H1262 C1283 0.950 . S
H1263 C1286 0.950 . S
H1264 C1287 0.950 . S
H1265 C1289 0.950 . S
H1266 C1290 0.950 . S
H1267 C1291 0.951 . S
H1268 C1293 0.951 . S
H1269 C1295 0.950 . S
H1270 C1296 0.950 . S
H1271 C1298 0.950 . S
H1272 C1301 0.950 . S
H1273 C1302 0.950 . S
H1274 C1304 0.950 . S
H1275 C1305 0.950 . S
C1276 H1258 0.951 . S
C1276 C1277 1.366 . S
C1276 C1278 1.388 . S
C1277 C1276 1.366 . S
C1277 C1281 1.385 . S
C1278 H1259 0.951 . S
C1278 C1276 1.388 . S
C1278 C1279 1.366 . S
C1279 C1278 1.366 . S
C1279 C1280 1.414 . S
C1279 C1282 1.499 . S
C1280 H1260 0.950 . S
C1280 C1279 1.414 . S
C1280 C1281 1.374 . S
C1281 H1261 0.950 . S
C1281 C1277 1.385 . S
C1281 C1280 1.374 . S
C1282 C1279 1.499 . S
C1282 C1283 1.373 . S
C1282 C1284 1.389 . S
C1283 H1262 0.950 . S
C1283 C1282 1.373 . S
C1283 C1299 1.377 . S
C1284 C1282 1.389 . S
C1284 C1285 1.524 . S
C1284 C1298 1.377 . S
C1285 C1284 1.524 . S
C1285 C1286 1.397 . S
C1285 C1290 1.363 . S
C1286 H1263 0.950 . S
C1286 C1285 1.397 . S
C1286 C1287 1.334 . S
C1287 H1264 0.950 . S
C1287 C1286 1.334 . S
C1287 C1288 1.287 . S
C1288 C1287 1.287 . S
C1288 C1289 1.524 . S
C1288 H1307 0.913 . S
C1289 H1265 0.950 . S
C1289 C1288 1.524 . S
C1289 C1290 1.415 . S
C1290 H1266 0.950 . S
C1290 C1285 1.363 . S
C1290 C1289 1.415 . S
C1291 H1267 0.951 . S
C1291 C1292 1.366 . S
C1291 C1293 1.388 . S
C1292 C1291 1.366 . S
C1292 C1296 1.385 . S
C1293 H1268 0.951 . S
C1293 C1291 1.388 . S
C1293 C1294 1.366 . S
C1294 C1293 1.366 . S
C1294 C1295 1.414 . S
C1294 C1297 1.499 . S
C1295 H1269 0.950 . S
C1295 C1294 1.414 . S
C1295 C1296 1.374 . S
C1296 H1270 0.950 . S
C1296 C1292 1.385 . S
C1296 C1295 1.374 . S
C1297 C1294 1.499 . S
C1297 C1298 1.373 . S
C1297 C1299 1.389 . S
C1298 H1271 0.950 . S
C1298 C1284 1.377 . S
C1298 C1297 1.373 . S
C1299 C1283 1.377 . S
C1299 C1297 1.389 . S
C1299 C1300 1.524 . S
C1300 C1299 1.524 . S
C1300 C1301 1.397 . S
C1300 C1305 1.363 . S
C1301 H1272 0.950 . S
C1301 C1300 1.397 . S
C1301 C1302 1.334 . S
C1302 H1273 0.950 . S
C1302 C1301 1.334 . S
C1302 C1303 1.287 . S
C1303 C1302 1.287 . S
C1303 C1304 1.524 . S
C1303 H1306 0.999 . S
C1304 H1274 0.950 . S
C1304 C1303 1.524 . S
C1304 C1305 1.415 . S
C1305 H1275 0.950 . S
C1305 C1300 1.363 . S
C1305 C1304 1.415 . S
H1306 C1303 0.999 . S
H1307 C1288 0.913 . S
H1308 C1326 0.951 . S
H1309 C1328 0.951 . S
H1310 C1330 0.950 . S
H1311 C1331 0.950 . S
H1312 C1333 0.950 . S
H1313 C1336 0.950 . S
H1314 C1337 0.950 . S
H1315 C1339 0.950 . S
H1316 C1340 0.950 . S
H1317 C1341 0.951 . S
H1318 C1343 0.951 . S
H1319 C1345 0.950 . S
H1320 C1346 0.950 . S
H1321 C1348 0.950 . S
H1322 C1351 0.950 . S
H1323 C1352 0.950 . S
H1324 C1354 0.950 . S
H1325 C1355 0.950 1_554 S
C1326 H1308 0.951 . S
C1326 C1327 1.366 . S
C1326 C1328 1.388 . S
C1327 C1326 1.366 . S
C1327 C1331 1.385 . S
C1328 H1309 0.951 . S
C1328 C1326 1.388 . S
C1328 C1329 1.366 . S
C1329 C1328 1.366 . S
C1329 C1330 1.414 . S
C1329 C1332 1.499 . S
C1330 H1310 0.950 . S
C1330 C1329 1.414 . S
C1330 C1331 1.374 . S
C1331 H1311 0.950 . S
C1331 C1327 1.385 . S
C1331 C1330 1.374 . S
C1332 C1329 1.499 . S
C1332 C1333 1.373 . S
C1332 C1334 1.389 . S
C1333 H1312 0.950 . S
C1333 C1332 1.373 . S
C1333 C1349 1.377 . S
C1334 C1332 1.389 . S
C1334 C1335 1.524 . S
C1334 C1348 1.377 . S
C1335 C1334 1.524 . S
C1335 C1336 1.397 . S
C1335 C1340 1.363 . S
C1336 H1313 0.950 . S
C1336 C1335 1.397 . S
C1336 C1337 1.334 . S
C1337 H1314 0.950 . S
C1337 C1336 1.334 . S
C1337 C1338 1.287 . S
C1338 C1337 1.287 . S
C1338 C1339 1.524 . S
C1338 H1357 0.913 . S
C1339 H1315 0.950 . S
C1339 C1338 1.524 . S
C1339 C1340 1.415 . S
C1340 H1316 0.950 . S
C1340 C1335 1.363 . S
C1340 C1339 1.415 . S
C1341 H1317 0.951 . S
C1341 C1342 1.366 . S
C1341 C1343 1.388 . S
C1342 C1341 1.366 . S
C1342 C1346 1.385 . S
C1343 H1318 0.951 . S
C1343 C1341 1.388 . S
C1343 C1344 1.366 . S
C1344 C1343 1.366 . S
C1344 C1345 1.414 . S
C1344 C1347 1.499 . S
C1345 H1319 0.950 . S
C1345 C1344 1.414 . S
C1345 C1346 1.374 . S
C1346 H1320 0.950 . S
C1346 C1342 1.385 . S
C1346 C1345 1.374 . S
C1347 C1344 1.499 . S
C1347 C1348 1.373 . S
C1347 C1349 1.389 . S
C1348 H1321 0.950 . S
C1348 C1334 1.377 . S
C1348 C1347 1.373 . S
C1349 C1333 1.377 . S
C1349 C1347 1.389 . S
C1349 C1350 1.524 . S
C1350 C1349 1.524 . S
C1350 C1351 1.397 1_554 S
C1350 C1355 1.363 1_554 S
C1351 H1322 0.950 . S
C1351 C1350 1.397 1_556 S
C1351 C1352 1.334 . S
C1352 H1323 0.950 . S
C1352 C1351 1.334 . S
C1352 C1353 1.287 . S
C1353 C1352 1.287 . S
C1353 C1354 1.524 . S
C1353 H1356 0.999 . S
C1354 H1324 0.950 . S
C1354 C1353 1.524 . S
C1354 C1355 1.415 . S
C1355 H1325 0.950 1_556 S
C1355 C1350 1.363 1_556 S
C1355 C1354 1.415 . S
H1356 C1353 0.999 . S
H1357 C1338 0.913 . S
H1358 C1376 0.951 . S
H1359 C1378 0.951 . S
H1360 C1380 0.950 . S
H1361 C1381 0.950 . S
H1362 C1383 0.950 . S
H1363 C1386 0.950 . S
H1364 C1387 0.950 . S
H1365 C1389 0.950 . S
H1366 C1390 0.950 . S
H1367 C1391 0.951 . S
H1368 C1393 0.951 . S
H1369 C1395 0.950 . S
H1370 C1396 0.950 . S
H1371 C1398 0.950 . S
H1372 C1401 0.950 . S
H1373 C1402 0.950 . S
H1374 C1404 0.950 . S
H1375 C1405 0.950 . S
C1376 H1358 0.951 . S
C1376 C1377 1.366 . S
C1376 C1378 1.388 . S
C1377 C1376 1.366 . S
C1377 C1381 1.385 . S
C1378 H1359 0.951 . S
C1378 C1376 1.388 . S
C1378 C1379 1.366 . S
C1379 C1378 1.366 . S
C1379 C1380 1.414 . S
C1379 C1382 1.499 . S
C1380 H1360 0.950 . S
C1380 C1379 1.414 . S
C1380 C1381 1.374 . S
C1381 H1361 0.950 . S
C1381 C1377 1.385 . S
C1381 C1380 1.374 . S
C1382 C1379 1.499 . S
C1382 C1383 1.373 . S
C1382 C1384 1.389 . S
C1383 H1362 0.950 . S
C1383 C1382 1.373 . S
C1383 C1399 1.377 1_655 S
C1384 C1382 1.389 . S
C1384 C1385 1.524 . S
C1384 C1398 1.377 1_655 S
C1385 C1384 1.524 . S
C1385 C1386 1.397 . S
C1385 C1390 1.363 . S
C1386 H1363 0.950 . S
C1386 C1385 1.397 . S
C1386 C1387 1.334 . S
C1387 H1364 0.950 . S
C1387 C1386 1.334 . S
C1387 C1388 1.287 . S
C1388 C1387 1.287 . S
C1388 C1389 1.524 . S
C1388 H1407 0.913 . S
C1389 H1365 0.950 . S
C1389 C1388 1.524 . S
C1389 C1390 1.415 . S
C1390 H1366 0.950 . S
C1390 C1385 1.363 . S
C1390 C1389 1.415 . S
C1391 H1367 0.951 . S
C1391 C1392 1.366 . S
C1391 C1393 1.388 . S
C1392 C1391 1.366 . S
C1392 C1396 1.385 . S
C1393 H1368 0.951 . S
C1393 C1391 1.388 . S
C1393 C1394 1.366 . S
C1394 C1393 1.366 . S
C1394 C1395 1.414 . S
C1394 C1397 1.499 . S
C1395 H1369 0.950 . S
C1395 C1394 1.414 . S
C1395 C1396 1.374 . S
C1396 H1370 0.950 . S
C1396 C1392 1.385 . S
C1396 C1395 1.374 . S
C1397 C1394 1.499 . S
C1397 C1398 1.373 . S
C1397 C1399 1.389 . S
C1398 H1371 0.950 . S
C1398 C1384 1.377 1_455 S
C1398 C1397 1.373 . S
C1399 C1383 1.377 1_455 S
C1399 C1397 1.389 . S
C1399 C1400 1.524 . S
C1400 C1399 1.524 . S
C1400 C1401 1.397 . S
C1400 C1405 1.363 . S
C1401 H1372 0.950 . S
C1401 C1400 1.397 . S
C1401 C1402 1.334 . S
C1402 H1373 0.950 . S
C1402 C1401 1.334 . S
C1402 C1403 1.287 . S
C1403 C1402 1.287 . S
C1403 C1404 1.524 . S
C1403 H1406 0.999 . S
C1404 H1374 0.950 . S
C1404 C1403 1.524 . S
C1404 C1405 1.415 . S
C1405 H1375 0.950 . S
C1405 C1400 1.363 . S
C1405 C1404 1.415 . S
H1406 C1403 0.999 . S
H1407 C1388 0.913 . S
H1408 C1426 0.951 . S
H1409 C1428 0.951 . S
H1410 C1430 0.950 . S
H1411 C1431 0.950 . S
H1412 C1433 0.950 . S
H1413 C1436 0.950 . S
H1414 C1437 0.950 . S
H1415 C1439 0.950 . S
H1416 C1440 0.950 . S
H1417 C1441 0.951 . S
H1418 C1443 0.951 . S
H1419 C1445 0.950 . S
H1420 C1446 0.950 . S
H1421 C1448 0.950 . S
H1422 C1451 0.950 . S
H1423 C1452 0.950 . S
H1424 C1454 0.950 . S
H1425 C1455 0.950 . S
C1426 H1408 0.951 . S
C1426 C1427 1.366 . S
C1426 C1428 1.388 . S
C1427 C1426 1.366 . S
C1427 C1431 1.385 . S
C1428 H1409 0.951 . S
C1428 C1426 1.388 . S
C1428 C1429 1.366 . S
C1429 C1428 1.366 . S
C1429 C1430 1.414 . S
C1429 C1432 1.499 . S
C1430 H1410 0.950 . S
C1430 C1429 1.414 . S
C1430 C1431 1.374 . S
C1431 H1411 0.950 . S
C1431 C1427 1.385 . S
C1431 C1430 1.374 . S
C1432 C1429 1.499 . S
C1432 C1433 1.373 . S
C1432 C1434 1.389 . S
C1433 H1412 0.950 . S
C1433 C1432 1.373 . S
C1433 C1449 1.377 1_545 S
C1434 C1432 1.389 . S
C1434 C1435 1.524 . S
C1434 C1448 1.377 1_545 S
C1435 C1434 1.524 . S
C1435 C1436 1.397 . S
C1435 C1440 1.363 1_545 S
C1436 H1413 0.950 . S
C1436 C1435 1.397 . S
C1436 C1437 1.334 . S
C1437 H1414 0.950 . S
C1437 C1436 1.334 . S
C1437 C1438 1.287 . S
C1438 C1437 1.287 . S
C1438 C1439 1.524 1_545 S
C1438 H1457 0.913 . S
C1439 H1415 0.950 . S
C1439 C1438 1.524 1_565 S
C1439 C1440 1.415 . S
C1440 H1416 0.950 . S
C1440 C1435 1.363 1_565 S
C1440 C1439 1.415 . S
C1441 H1417 0.951 . S
C1441 C1442 1.366 . S
C1441 C1443 1.388 . S
C1442 C1441 1.366 . S
C1442 C1446 1.385 . S
C1443 H1418 0.951 . S
C1443 C1441 1.388 . S
C1443 C1444 1.366 . S
C1444 C1443 1.366 . S
C1444 C1445 1.414 . S
C1444 C1447 1.499 . S
C1445 H1419 0.950 . S
C1445 C1444 1.414 . S
C1445 C1446 1.374 . S
C1446 H1420 0.950 . S
C1446 C1442 1.385 . S
C1446 C1445 1.374 . S
C1447 C1444 1.499 . S
C1447 C1448 1.373 . S
C1447 C1449 1.389 . S
C1448 H1421 0.950 . S
C1448 C1434 1.377 1_565 S
C1448 C1447 1.373 . S
C1449 C1433 1.377 1_565 S
C1449 C1447 1.389 . S
C1449 C1450 1.524 . S
C1450 C1449 1.524 . S
C1450 C1451 1.397 . S
C1450 C1455 1.363 1_565 S
C1451 H1422 0.950 . S
C1451 C1450 1.397 . S
C1451 C1452 1.334 . S
C1452 H1423 0.950 . S
C1452 C1451 1.334 . S
C1452 C1453 1.287 . S
C1453 C1452 1.287 . S
C1453 C1454 1.524 1_565 S
C1453 H1456 0.999 . S
C1454 H1424 0.950 . S
C1454 C1453 1.524 1_545 S
C1454 C1455 1.415 . S
C1455 H1425 0.950 . S
C1455 C1450 1.363 1_545 S
C1455 C1454 1.415 . S
H1456 C1453 0.999 . S
H1457 C1438 0.913 . S
H1458 C1476 0.951 . S
H1459 C1478 0.951 . S
H1460 C1480 0.950 . S
H1461 C1481 0.950 . S
H1462 C1483 0.950 . S
H1463 C1486 0.950 . S
H1464 C1487 0.950 . S
H1465 C1489 0.950 . S
H1466 C1490 0.950 . S
H1467 C1491 0.951 . S
H1468 C1493 0.951 . S
H1469 C1495 0.950 . S
H1470 C1496 0.950 . S
H1471 C1498 0.950 . S
H1472 C1501 0.950 . S
H1473 C1502 0.950 . S
H1474 C1504 0.950 . S
H1475 C1505 0.950 . S
C1476 H1458 0.951 . S
C1476 C1477 1.366 . S
C1476 C1478 1.388 . S
C1477 C1476 1.366 . S
C1477 C1481 1.385 . S
C1478 H1459 0.951 . S
C1478 C1476 1.388 . S
C1478 C1479 1.366 . S
C1479 C1478 1.366 . S
C1479 C1480 1.414 . S
C1479 C1482 1.499 . S
C1480 H1460 0.950 . S
C1480 C1479 1.414 . S
C1480 C1481 1.374 . S
C1481 H1461 0.950 . S
C1481 C1477 1.385 . S
C1481 C1480 1.374 . S
C1482 C1479 1.499 . S
C1482 C1483 1.373 . S
C1482 C1484 1.389 . S
C1483 H1462 0.950 . S
C1483 C1482 1.373 . S
C1483 C1499 1.377 . S
C1484 C1482 1.389 . S
C1484 C1485 1.524 . S
C1484 C1498 1.377 . S
C1485 C1484 1.524 . S
C1485 C1486 1.397 . S
C1485 C1490 1.363 . S
C1486 H1463 0.950 . S
C1486 C1485 1.397 . S
C1486 C1487 1.334 . S
C1487 H1464 0.950 . S
C1487 C1486 1.334 . S
C1487 C1488 1.287 . S
C1488 C1487 1.287 . S
C1488 C1489 1.524 . S
C1488 H1507 0.913 . S
C1489 H1465 0.950 . S
C1489 C1488 1.524 . S
C1489 C1490 1.415 . S
C1490 H1466 0.950 . S
C1490 C1485 1.363 . S
C1490 C1489 1.415 . S
C1491 H1467 0.951 . S
C1491 C1492 1.366 . S
C1491 C1493 1.388 . S
C1492 C1491 1.366 . S
C1492 C1496 1.385 . S
C1493 H1468 0.951 . S
C1493 C1491 1.388 . S
C1493 C1494 1.366 . S
C1494 C1493 1.366 . S
C1494 C1495 1.414 . S
C1494 C1497 1.499 . S
C1495 H1469 0.950 . S
C1495 C1494 1.414 . S
C1495 C1496 1.374 . S
C1496 H1470 0.950 . S
C1496 C1492 1.385 . S
C1496 C1495 1.374 . S
C1497 C1494 1.499 . S
C1497 C1498 1.373 . S
C1497 C1499 1.389 . S
C1498 H1471 0.950 . S
C1498 C1484 1.377 . S
C1498 C1497 1.373 . S
C1499 C1483 1.377 . S
C1499 C1497 1.389 . S
C1499 C1500 1.524 . S
C1500 C1499 1.524 . S
C1500 C1501 1.397 . S
C1500 C1505 1.363 . S
C1501 H1472 0.950 . S
C1501 C1500 1.397 . S
C1501 C1502 1.334 . S
C1502 H1473 0.950 . S
C1502 C1501 1.334 . S
C1502 C1503 1.287 . S
C1503 C1502 1.287 . S
C1503 C1504 1.524 . S
C1503 H1506 0.999 . S
C1504 H1474 0.950 . S
C1504 C1503 1.524 . S
C1504 C1505 1.415 . S
C1505 H1475 0.950 . S
C1505 C1500 1.363 . S
C1505 C1504 1.415 . S
H1506 C1503 0.999 . S
H1507 C1488 0.913 . S
H1508 C1526 0.951 . S
H1509 C1528 0.951 . S
H1510 C1530 0.950 . S
H1511 C1531 0.950 . S
H1512 C1533 0.950 . S
H1513 C1536 0.950 . S
H1514 C1537 0.950 . S
H1515 C1539 0.950 . S
H1516 C1540 0.950 . S
H1517 C1541 0.951 . S
H1518 C1543 0.951 . S
H1519 C1545 0.950 . S
H1520 C1546 0.950 . S
H1521 C1548 0.950 . S
H1522 C1551 0.950 . S
H1523 C1552 0.950 . S
H1524 C1554 0.950 . S
H1525 C1555 0.950 . S
C1526 H1508 0.951 . S
C1526 C1527 1.366 . S
C1526 C1528 1.388 . S
C1527 C1526 1.366 . S
C1527 C1531 1.385 . S
C1528 H1509 0.951 . S
C1528 C1526 1.388 . S
C1528 C1529 1.366 . S
C1529 C1528 1.366 . S
C1529 C1530 1.414 . S
C1529 C1532 1.499 . S
C1530 H1510 0.950 . S
C1530 C1529 1.414 . S
C1530 C1531 1.374 . S
C1531 H1511 0.950 . S
C1531 C1527 1.385 . S
C1531 C1530 1.374 . S
C1532 C1529 1.499 . S
C1532 C1533 1.373 . S
C1532 C1534 1.389 . S
C1533 H1512 0.950 . S
C1533 C1532 1.373 . S
C1533 C1549 1.377 1_455 S
C1534 C1532 1.389 . S
C1534 C1535 1.524 . S
C1534 C1548 1.377 1_455 S
C1535 C1534 1.524 . S
C1535 C1536 1.397 . S
C1535 C1540 1.363 . S
C1536 H1513 0.950 . S
C1536 C1535 1.397 . S
C1536 C1537 1.334 . S
C1537 H1514 0.950 . S
C1537 C1536 1.334 . S
C1537 C1538 1.287 . S
C1538 C1537 1.287 . S
C1538 C1539 1.524 . S
C1538 H1557 0.913 . S
C1539 H1515 0.950 . S
C1539 C1538 1.524 . S
C1539 C1540 1.415 . S
C1540 H1516 0.950 . S
C1540 C1535 1.363 . S
C1540 C1539 1.415 . S
C1541 H1517 0.951 . S
C1541 C1542 1.366 . S
C1541 C1543 1.388 . S
C1542 C1541 1.366 . S
C1542 C1546 1.385 . S
C1543 H1518 0.951 . S
C1543 C1541 1.388 . S
C1543 C1544 1.366 . S
C1544 C1543 1.366 . S
C1544 C1545 1.414 . S
C1544 C1547 1.499 . S
C1545 H1519 0.950 . S
C1545 C1544 1.414 . S
C1545 C1546 1.374 . S
C1546 H1520 0.950 . S
C1546 C1542 1.385 . S
C1546 C1545 1.374 . S
C1547 C1544 1.499 . S
C1547 C1548 1.373 . S
C1547 C1549 1.389 . S
C1548 H1521 0.950 . S
C1548 C1534 1.377 1_655 S
C1548 C1547 1.373 . S
C1549 C1533 1.377 1_655 S
C1549 C1547 1.389 . S
C1549 C1550 1.524 . S
C1550 C1549 1.524 . S
C1550 C1551 1.397 . S
C1550 C1555 1.363 1_556 S
C1551 H1522 0.950 . S
C1551 C1550 1.397 . S
C1551 C1552 1.334 . S
C1552 H1523 0.950 . S
C1552 C1551 1.334 . S
C1552 C1553 1.287 1_556 S
C1553 C1552 1.287 1_554 S
C1553 C1554 1.524 . S
C1553 H1556 0.999 . S
C1554 H1524 0.950 . S
C1554 C1553 1.524 . S
C1554 C1555 1.415 . S
C1555 H1525 0.950 . S
C1555 C1550 1.363 1_554 S
C1555 C1554 1.415 . S
H1556 C1553 0.999 . S
H1557 C1538 0.913 . S
H1558 C1576 0.951 . S
H1559 C1578 0.951 . S
H1560 C1580 0.950 . S
H1561 C1581 0.950 . S
H1562 C1583 0.950 . S
H1563 C1586 0.950 . S
H1564 C1587 0.950 . S
H1565 C1589 0.950 . S
H1566 C1590 0.950 . S
H1567 C1591 0.951 . S
H1568 C1593 0.951 . S
H1569 C1595 0.950 . S
H1570 C1596 0.950 . S
H1571 C1598 0.950 . S
H1572 C1601 0.950 . S
H1573 C1602 0.950 . S
H1574 C1604 0.950 . S
H1575 C1605 0.950 . S
C1576 H1558 0.951 . S
C1576 C1577 1.366 . S
C1576 C1578 1.388 . S
C1577 C1576 1.366 . S
C1577 C1581 1.385 . S
C1578 H1559 0.951 . S
C1578 C1576 1.388 . S
C1578 C1579 1.366 . S
C1579 C1578 1.366 . S
C1579 C1580 1.414 . S
C1579 C1582 1.499 . S
C1580 H1560 0.950 . S
C1580 C1579 1.414 . S
C1580 C1581 1.374 . S
C1581 H1561 0.950 . S
C1581 C1577 1.385 . S
C1581 C1580 1.374 . S
C1582 C1579 1.499 . S
C1582 C1583 1.373 . S
C1582 C1584 1.389 . S
C1583 H1562 0.950 . S
C1583 C1582 1.373 . S
C1583 C1599 1.377 1_565 S
C1584 C1582 1.389 . S
C1584 C1585 1.524 . S
C1584 C1598 1.377 1_565 S
C1585 C1584 1.524 . S
C1585 C1586 1.397 . S
C1585 C1590 1.363 . S
C1586 H1563 0.950 . S
C1586 C1585 1.397 . S
C1586 C1587 1.334 . S
C1587 H1564 0.950 . S
C1587 C1586 1.334 . S
C1587 C1588 1.287 . S
C1588 C1587 1.287 . S
C1588 C1589 1.524 . S
C1588 H1607 0.913 . S
C1589 H1565 0.950 . S
C1589 C1588 1.524 . S
C1589 C1590 1.415 . S
C1590 H1566 0.950 . S
C1590 C1585 1.363 . S
C1590 C1589 1.415 . S
C1591 H1567 0.951 . S
C1591 C1592 1.366 . S
C1591 C1593 1.388 . S
C1592 C1591 1.366 . S
C1592 C1596 1.385 . S
C1593 H1568 0.951 . S
C1593 C1591 1.388 . S
C1593 C1594 1.366 . S
C1594 C1593 1.366 . S
C1594 C1595 1.414 . S
C1594 C1597 1.499 . S
C1595 H1569 0.950 . S
C1595 C1594 1.414 . S
C1595 C1596 1.374 . S
C1596 H1570 0.950 . S
C1596 C1592 1.385 . S
C1596 C1595 1.374 . S
C1597 C1594 1.499 . S
C1597 C1598 1.373 . S
C1597 C1599 1.389 . S
C1598 H1571 0.950 . S
C1598 C1584 1.377 1_545 S
C1598 C1597 1.373 . S
C1599 C1583 1.377 1_545 S
C1599 C1597 1.389 . S
C1599 C1600 1.524 . S
C1600 C1599 1.524 . S
C1600 C1601 1.397 . S
C1600 C1605 1.363 . S
C1601 H1572 0.950 . S
C1601 C1600 1.397 . S
C1601 C1602 1.334 . S
C1602 H1573 0.950 . S
C1602 C1601 1.334 . S
C1602 C1603 1.287 . S
C1603 C1602 1.287 . S
C1603 C1604 1.524 . S
C1603 H1606 0.999 . S
C1604 H1574 0.950 . S
C1604 C1603 1.524 . S
C1604 C1605 1.415 . S
C1605 H1575 0.950 . S
C1605 C1600 1.363 . S
C1605 C1604 1.415 . S
H1606 C1603 0.999 . S
H1607 C1588 0.913 . S
H1608 C1626 0.951 . S
H1609 C1628 0.951 . S
H1610 C1630 0.950 . S
H1611 C1631 0.950 . S
H1612 C1633 0.950 . S
H1613 C1636 0.950 . S
H1614 C1637 0.950 . S
H1615 C1639 0.950 . S
H1616 C1640 0.950 . S
H1617 C1641 0.951 . S
H1618 C1643 0.951 . S
H1619 C1645 0.950 . S
H1620 C1646 0.950 . S
H1621 C1648 0.950 . S
H1622 C1651 0.950 . S
H1623 C1652 0.950 . S
H1624 C1654 0.950 . S
H1625 C1655 0.950 . S
C1626 H1608 0.951 . S
C1626 C1627 1.366 . S
C1626 C1628 1.388 . S
C1627 C1626 1.366 . S
C1627 C1631 1.385 . S
C1628 H1609 0.951 . S
C1628 C1626 1.388 . S
C1628 C1629 1.366 . S
C1629 C1628 1.366 . S
C1629 C1630 1.414 . S
C1629 C1632 1.499 . S
C1630 H1610 0.950 . S
C1630 C1629 1.414 . S
C1630 C1631 1.374 . S
C1631 H1611 0.950 . S
C1631 C1627 1.385 . S
C1631 C1630 1.374 . S
C1632 C1629 1.499 . S
C1632 C1633 1.373 . S
C1632 C1634 1.389 . S
C1633 H1612 0.950 . S
C1633 C1632 1.373 . S
C1633 C1649 1.377 . S
C1634 C1632 1.389 . S
C1634 C1635 1.524 . S
C1634 C1648 1.377 . S
C1635 C1634 1.524 . S
C1635 C1636 1.397 . S
C1635 C1640 1.363 . S
C1636 H1613 0.950 . S
C1636 C1635 1.397 . S
C1636 C1637 1.334 . S
C1637 H1614 0.950 . S
C1637 C1636 1.334 . S
C1637 C1638 1.287 . S
C1638 C1637 1.287 . S
C1638 C1639 1.524 . S
C1638 H1657 0.913 . S
C1639 H1615 0.950 . S
C1639 C1638 1.524 . S
C1639 C1640 1.415 . S
C1640 H1616 0.950 . S
C1640 C1635 1.363 . S
C1640 C1639 1.415 . S
C1641 H1617 0.951 . S
C1641 C1642 1.366 . S
C1641 C1643 1.388 . S
C1642 C1641 1.366 . S
C1642 C1646 1.385 . S
C1643 H1618 0.951 . S
C1643 C1641 1.388 . S
C1643 C1644 1.366 . S
C1644 C1643 1.366 . S
C1644 C1645 1.414 . S
C1644 C1647 1.499 . S
C1645 H1619 0.950 . S
C1645 C1644 1.414 . S
C1645 C1646 1.374 . S
C1646 H1620 0.950 . S
C1646 C1642 1.385 . S
C1646 C1645 1.374 . S
C1647 C1644 1.499 . S
C1647 C1648 1.373 . S
C1647 C1649 1.389 . S
C1648 H1621 0.950 . S
C1648 C1634 1.377 . S
C1648 C1647 1.373 . S
C1649 C1633 1.377 . S
C1649 C1647 1.389 . S
C1649 C1650 1.524 . S
C1650 C1649 1.524 . S
C1650 C1651 1.397 . S
C1650 C1655 1.363 . S
C1651 H1622 0.950 . S
C1651 C1650 1.397 . S
C1651 C1652 1.334 . S
C1652 H1623 0.950 . S
C1652 C1651 1.334 . S
C1652 C1653 1.287 . S
C1653 C1652 1.287 . S
C1653 C1654 1.524 . S
C1653 H1656 0.999 . S
C1654 H1624 0.950 . S
C1654 C1653 1.524 . S
C1654 C1655 1.415 . S
C1655 H1625 0.950 . S
C1655 C1650 1.363 . S
C1655 C1654 1.415 . S
H1656 C1653 0.999 . S
H1657 C1638 0.913 . S
H1658 C1676 0.951 . S
H1659 C1678 0.951 . S
H1660 C1680 0.950 . S
H1661 C1681 0.950 . S
H1662 C1683 0.950 . S
H1663 C1686 0.950 . S
H1664 C1687 0.950 . S
H1665 C1689 0.950 . S
H1666 C1690 0.950 . S
H1667 C1691 0.951 . S
H1668 C1693 0.951 . S
H1669 C1695 0.950 . S
H1670 C1696 0.950 . S
H1671 C1698 0.950 . S
H1672 C1701 0.950 . S
H1673 C1702 0.950 . S
H1674 C1704 0.950 . S
H1675 C1705 0.950 . S
C1676 H1658 0.951 . S
C1676 C1677 1.366 . S
C1676 C1678 1.388 . S
C1677 C1676 1.366 . S
C1677 C1681 1.385 . S
C1678 H1659 0.951 . S
C1678 C1676 1.388 . S
C1678 C1679 1.366 . S
C1679 C1678 1.366 . S
C1679 C1680 1.414 . S
C1679 C1682 1.499 . S
C1680 H1660 0.950 . S
C1680 C1679 1.414 . S
C1680 C1681 1.374 . S
C1681 H1661 0.950 . S
C1681 C1677 1.385 . S
C1681 C1680 1.374 . S
C1682 C1679 1.499 . S
C1682 C1683 1.373 . S
C1682 C1684 1.389 . S
C1683 H1662 0.950 . S
C1683 C1682 1.373 . S
C1683 C1699 1.377 . S
C1684 C1682 1.389 . S
C1684 C1685 1.524 . S
C1684 C1698 1.377 . S
C1685 C1684 1.524 . S
C1685 C1686 1.397 . S
C1685 C1690 1.363 . S
C1686 H1663 0.950 . S
C1686 C1685 1.397 . S
C1686 C1687 1.334 . S
C1687 H1664 0.950 . S
C1687 C1686 1.334 . S
C1687 C1688 1.287 . S
C1688 C1687 1.287 . S
C1688 C1689 1.524 . S
C1688 H1707 0.913 . S
C1689 H1665 0.950 . S
C1689 C1688 1.524 . S
C1689 C1690 1.415 . S
C1690 H1666 0.950 . S
C1690 C1685 1.363 . S
C1690 C1689 1.415 . S
C1691 H1667 0.951 . S
C1691 C1692 1.366 . S
C1691 C1693 1.388 . S
C1692 C1691 1.366 . S
C1692 C1696 1.385 . S
C1693 H1668 0.951 . S
C1693 C1691 1.388 . S
C1693 C1694 1.366 . S
C1694 C1693 1.366 . S
C1694 C1695 1.414 . S
C1694 C1697 1.499 . S
C1695 H1669 0.950 . S
C1695 C1694 1.414 . S
C1695 C1696 1.374 . S
C1696 H1670 0.950 . S
C1696 C1692 1.385 . S
C1696 C1695 1.374 . S
C1697 C1694 1.499 . S
C1697 C1698 1.373 . S
C1697 C1699 1.389 . S
C1698 H1671 0.950 . S
C1698 C1684 1.377 . S
C1698 C1697 1.373 . S
C1699 C1683 1.377 . S
C1699 C1697 1.389 . S
C1699 C1700 1.524 . S
C1700 C1699 1.524 . S
C1700 C1701 1.397 . S
C1700 C1705 1.363 . S
C1701 H1672 0.950 . S
C1701 C1700 1.397 . S
C1701 C1702 1.334 . S
C1702 H1673 0.950 . S
C1702 C1701 1.334 . S
C1702 C1703 1.287 . S
C1703 C1702 1.287 . S
C1703 C1704 1.524 . S
C1703 H1706 0.999 . S
C1704 H1674 0.950 . S
C1704 C1703 1.524 . S
C1704 C1705 1.415 . S
C1705 H1675 0.950 . S
C1705 C1700 1.363 . S
C1705 C1704 1.415 . S
H1706 C1703 0.999 . S
H1707 C1688 0.913 . S
H1708 C1726 0.951 . S
H1709 C1728 0.951 . S
H1710 C1730 0.950 . S
H1711 C1731 0.950 . S
H1712 C1733 0.950 . S
H1713 C1736 0.950 . S
H1714 C1737 0.950 . S
H1715 C1739 0.950 . S
H1716 C1740 0.950 . S
H1717 C1741 0.951 . S
H1718 C1743 0.951 . S
H1719 C1745 0.950 . S
H1720 C1746 0.950 . S
H1721 C1748 0.950 . S
H1722 C1751 0.950 . S
H1723 C1752 0.950 . S
H1724 C1754 0.950 . S
H1725 C1755 0.950 . S
C1726 H1708 0.951 . S
C1726 C1727 1.366 . S
C1726 C1728 1.388 . S
C1727 C1726 1.366 . S
C1727 C1731 1.385 . S
C1728 H1709 0.951 . S
C1728 C1726 1.388 . S
C1728 C1729 1.366 . S
C1729 C1728 1.366 . S
C1729 C1730 1.414 . S
C1729 C1732 1.499 . S
C1730 H1710 0.950 . S
C1730 C1729 1.414 . S
C1730 C1731 1.374 . S
C1731 H1711 0.950 . S
C1731 C1727 1.385 . S
C1731 C1730 1.374 . S
C1732 C1729 1.499 . S
C1732 C1733 1.373 . S
C1732 C1734 1.389 . S
C1733 H1712 0.950 . S
C1733 C1732 1.373 . S
C1733 C1749 1.377 . S
C1734 C1732 1.389 . S
C1734 C1735 1.524 . S
C1734 C1748 1.377 . S
C1735 C1734 1.524 . S
C1735 C1736 1.397 . S
C1735 C1740 1.363 . S
C1736 H1713 0.950 . S
C1736 C1735 1.397 . S
C1736 C1737 1.334 . S
C1737 H1714 0.950 . S
C1737 C1736 1.334 . S
C1737 C1738 1.287 . S
C1738 C1737 1.287 . S
C1738 C1739 1.524 . S
C1738 H1757 0.913 . S
C1739 H1715 0.950 . S
C1739 C1738 1.524 . S
C1739 C1740 1.415 . S
C1740 H1716 0.950 . S
C1740 C1735 1.363 . S
C1740 C1739 1.415 . S
C1741 H1717 0.951 . S
C1741 C1742 1.366 . S
C1741 C1743 1.388 . S
C1742 C1741 1.366 . S
C1742 C1746 1.385 . S
C1743 H1718 0.951 . S
C1743 C1741 1.388 . S
C1743 C1744 1.366 . S
C1744 C1743 1.366 . S
C1744 C1745 1.414 . S
C1744 C1747 1.499 . S
C1745 H1719 0.950 . S
C1745 C1744 1.414 . S
C1745 C1746 1.374 . S
C1746 H1720 0.950 . S
C1746 C1742 1.385 . S
C1746 C1745 1.374 . S
C1747 C1744 1.499 . S
C1747 C1748 1.373 . S
C1747 C1749 1.389 . S
C1748 H1721 0.950 . S
C1748 C1734 1.377 . S
C1748 C1747 1.373 . S
C1749 C1733 1.377 . S
C1749 C1747 1.389 . S
C1749 C1750 1.524 . S
C1750 C1749 1.524 . S
C1750 C1751 1.397 . S
C1750 C1755 1.363 . S
C1751 H1722 0.950 . S
C1751 C1750 1.397 . S
C1751 C1752 1.334 . S
C1752 H1723 0.950 . S
C1752 C1751 1.334 . S
C1752 C1753 1.287 . S
C1753 C1752 1.287 . S
C1753 C1754 1.524 . S
C1753 H1756 0.999 . S
C1754 H1724 0.950 . S
C1754 C1753 1.524 . S
C1754 C1755 1.415 . S
C1755 H1725 0.950 . S
C1755 C1750 1.363 . S
C1755 C1754 1.415 . S
H1756 C1753 0.999 . S
H1757 C1738 0.913 . S
H1758 C1776 0.951 . S
H1759 C1778 0.951 . S
H1760 C1780 0.950 . S
H1761 C1781 0.950 . S
H1762 C1783 0.950 . S
H1763 C1786 0.950 . S
H1764 C1787 0.950 . S
H1765 C1789 0.950 . S
H1766 C1790 0.950 . S
H1767 C1791 0.951 . S
H1768 C1793 0.951 . S
H1769 C1795 0.950 . S
H1770 C1796 0.950 . S
H1771 C1798 0.950 . S
H1772 C1801 0.950 . S
H1773 C1802 0.950 . S
H1774 C1804 0.950 . S
H1775 C1805 0.950 . S
C1776 H1758 0.951 . S
C1776 C1777 1.366 . S
C1776 C1778 1.388 . S
C1777 C1776 1.366 . S
C1777 C1781 1.385 . S
C1778 H1759 0.951 . S
C1778 C1776 1.388 . S
C1778 C1779 1.366 . S
C1779 C1778 1.366 . S
C1779 C1780 1.414 . S
C1779 C1782 1.499 . S
C1780 H1760 0.950 . S
C1780 C1779 1.414 . S
C1780 C1781 1.374 . S
C1781 H1761 0.950 . S
C1781 C1777 1.385 . S
C1781 C1780 1.374 . S
C1782 C1779 1.499 . S
C1782 C1783 1.373 . S
C1782 C1784 1.389 . S
C1783 H1762 0.950 . S
C1783 C1782 1.373 . S
C1783 C1799 1.377 . S
C1784 C1782 1.389 . S
C1784 C1785 1.524 . S
C1784 C1798 1.377 . S
C1785 C1784 1.524 . S
C1785 C1786 1.397 . S
C1785 C1790 1.363 . S
C1786 H1763 0.950 . S
C1786 C1785 1.397 . S
C1786 C1787 1.334 . S
C1787 H1764 0.950 . S
C1787 C1786 1.334 . S
C1787 C1788 1.287 . S
C1788 C1787 1.287 . S
C1788 C1789 1.524 . S
C1788 H1807 0.913 . S
C1789 H1765 0.950 . S
C1789 C1788 1.524 . S
C1789 C1790 1.415 . S
C1790 H1766 0.950 . S
C1790 C1785 1.363 . S
C1790 C1789 1.415 . S
C1791 H1767 0.951 . S
C1791 C1792 1.366 . S
C1791 C1793 1.388 . S
C1792 C1791 1.366 . S
C1792 C1796 1.385 . S
C1793 H1768 0.951 . S
C1793 C1791 1.388 . S
C1793 C1794 1.366 . S
C1794 C1793 1.366 . S
C1794 C1795 1.414 . S
C1794 C1797 1.499 . S
C1795 H1769 0.950 . S
C1795 C1794 1.414 . S
C1795 C1796 1.374 . S
C1796 H1770 0.950 . S
C1796 C1792 1.385 . S
C1796 C1795 1.374 . S
C1797 C1794 1.499 . S
C1797 C1798 1.373 . S
C1797 C1799 1.389 . S
C1798 H1771 0.950 . S
C1798 C1784 1.377 . S
C1798 C1797 1.373 . S
C1799 C1783 1.377 . S
C1799 C1797 1.389 . S
C1799 C1800 1.524 . S
C1800 C1799 1.524 . S
C1800 C1801 1.397 . S
C1800 C1805 1.363 . S
C1801 H1772 0.950 . S
C1801 C1800 1.397 . S
C1801 C1802 1.334 . S
C1802 H1773 0.950 . S
C1802 C1801 1.334 . S
C1802 C1803 1.287 . S
C1803 C1802 1.287 . S
C1803 C1804 1.524 . S
C1803 H1806 0.999 . S
C1804 H1774 0.950 . S
C1804 C1803 1.524 . S
C1804 C1805 1.415 . S
C1805 H1775 0.950 . S
C1805 C1800 1.363 . S
C1805 C1804 1.415 . S
H1806 C1803 0.999 . S
H1807 C1788 0.913 . S
H1808 C1826 0.951 . S
H1809 C1828 0.951 . S
H1810 C1830 0.950 . S
H1811 C1831 0.950 . S
H1812 C1833 0.950 . S
H1813 C1836 0.950 . S
H1814 C1837 0.950 . S
H1815 C1839 0.950 . S
H1816 C1840 0.950 . S
H1817 C1841 0.951 . S
H1818 C1843 0.951 . S
H1819 C1845 0.950 . S
H1820 C1846 0.950 . S
H1821 C1848 0.950 . S
H1822 C1851 0.950 . S
H1823 C1852 0.950 . S
H1824 C1854 0.950 . S
H1825 C1855 0.950 . S
C1826 H1808 0.951 . S
C1826 C1827 1.366 . S
C1826 C1828 1.388 . S
C1827 C1826 1.366 . S
C1827 C1831 1.385 . S
C1828 H1809 0.951 . S
C1828 C1826 1.388 . S
C1828 C1829 1.366 . S
C1829 C1828 1.366 . S
C1829 C1830 1.414 . S
C1829 C1832 1.499 . S
C1830 H1810 0.950 . S
C1830 C1829 1.414 . S
C1830 C1831 1.374 . S
C1831 H1811 0.950 . S
C1831 C1827 1.385 . S
C1831 C1830 1.374 . S
C1832 C1829 1.499 . S
C1832 C1833 1.373 . S
C1832 C1834 1.389 . S
C1833 H1812 0.950 . S
C1833 C1832 1.373 . S
C1833 C1849 1.377 . S
C1834 C1832 1.389 . S
C1834 C1835 1.524 . S
C1834 C1848 1.377 . S
C1835 C1834 1.524 . S
C1835 C1836 1.397 . S
C1835 C1840 1.363 . S
C1836 H1813 0.950 . S
C1836 C1835 1.397 . S
C1836 C1837 1.334 . S
C1837 H1814 0.950 . S
C1837 C1836 1.334 . S
C1837 C1838 1.287 . S
C1838 C1837 1.287 . S
C1838 C1839 1.524 . S
C1838 H1857 0.913 . S
C1839 H1815 0.950 . S
C1839 C1838 1.524 . S
C1839 C1840 1.415 . S
C1840 H1816 0.950 . S
C1840 C1835 1.363 . S
C1840 C1839 1.415 . S
C1841 H1817 0.951 . S
C1841 C1842 1.366 . S
C1841 C1843 1.388 . S
C1842 C1841 1.366 . S
C1842 C1846 1.385 . S
C1843 H1818 0.951 . S
C1843 C1841 1.388 . S
C1843 C1844 1.366 . S
C1844 C1843 1.366 . S
C1844 C1845 1.414 . S
C1844 C1847 1.499 . S
C1845 H1819 0.950 . S
C1845 C1844 1.414 . S
C1845 C1846 1.374 . S
C1846 H1820 0.950 . S
C1846 C1842 1.385 . S
C1846 C1845 1.374 . S
C1847 C1844 1.499 . S
C1847 C1848 1.373 . S
C1847 C1849 1.389 . S
C1848 H1821 0.950 . S
C1848 C1834 1.377 . S
C1848 C1847 1.373 . S
C1849 C1833 1.377 . S
C1849 C1847 1.389 . S
C1849 C1850 1.524 . S
C1850 C1849 1.524 . S
C1850 C1851 1.397 . S
C1850 C1855 1.363 . S
C1851 H1822 0.950 . S
C1851 C1850 1.397 . S
C1851 C1852 1.334 . S
C1852 H1823 0.950 . S
C1852 C1851 1.334 . S
C1852 C1853 1.287 . S
C1853 C1852 1.287 . S
C1853 C1854 1.524 . S
C1853 H1856 0.999 . S
C1854 H1824 0.950 . S
C1854 C1853 1.524 . S
C1854 C1855 1.415 . S
C1855 H1825 0.950 . S
C1855 C1850 1.363 . S
C1855 C1854 1.415 . S
H1856 C1853 0.999 . S
H1857 C1838 0.913 . S
H1858 C1876 0.951 . S
H1859 C1878 0.951 . S
H1860 C1880 0.950 . S
H1861 C1881 0.950 . S
H1862 C1883 0.950 . S
H1863 C1886 0.950 . S
H1864 C1887 0.950 . S
H1865 C1889 0.950 . S
H1866 C1890 0.950 . S
H1867 C1891 0.951 . S
H1868 C1893 0.951 . S
H1869 C1895 0.950 . S
H1870 C1896 0.950 . S
H1871 C1898 0.950 . S
H1872 C1901 0.950 . S
H1873 C1902 0.950 . S
H1874 C1904 0.950 . S
H1875 C1905 0.950 . S
C1876 H1858 0.951 . S
C1876 C1877 1.366 . S
C1876 C1878 1.388 . S
C1877 C1876 1.366 . S
C1877 C1881 1.385 . S
C1878 H1859 0.951 . S
C1878 C1876 1.388 . S
C1878 C1879 1.366 . S
C1879 C1878 1.366 . S
C1879 C1880 1.414 . S
C1879 C1882 1.499 . S
C1880 H1860 0.950 . S
C1880 C1879 1.414 . S
C1880 C1881 1.374 . S
C1881 H1861 0.950 . S
C1881 C1877 1.385 . S
C1881 C1880 1.374 . S
C1882 C1879 1.499 . S
C1882 C1883 1.373 . S
C1882 C1884 1.389 . S
C1883 H1862 0.950 . S
C1883 C1882 1.373 . S
C1883 C1899 1.377 . S
C1884 C1882 1.389 . S
C1884 C1885 1.524 . S
C1884 C1898 1.377 . S
C1885 C1884 1.524 . S
C1885 C1886 1.397 . S
C1885 C1890 1.363 . S
C1886 H1863 0.950 . S
C1886 C1885 1.397 . S
C1886 C1887 1.334 . S
C1887 H1864 0.950 . S
C1887 C1886 1.334 . S
C1887 C1888 1.287 . S
C1888 C1887 1.287 . S
C1888 C1889 1.524 . S
C1888 H1907 0.913 . S
C1889 H1865 0.950 . S
C1889 C1888 1.524 . S
C1889 C1890 1.415 . S
C1890 H1866 0.950 . S
C1890 C1885 1.363 . S
C1890 C1889 1.415 . S
C1891 H1867 0.951 . S
C1891 C1892 1.366 . S
C1891 C1893 1.388 . S
C1892 C1891 1.366 . S
C1892 C1896 1.385 . S
C1893 H1868 0.951 . S
C1893 C1891 1.388 . S
C1893 C1894 1.366 . S
C1894 C1893 1.366 . S
C1894 C1895 1.414 . S
C1894 C1897 1.499 . S
C1895 H1869 0.950 . S
C1895 C1894 1.414 . S
C1895 C1896 1.374 . S
C1896 H1870 0.950 . S
C1896 C1892 1.385 . S
C1896 C1895 1.374 . S
C1897 C1894 1.499 . S
C1897 C1898 1.373 . S
C1897 C1899 1.389 . S
C1898 H1871 0.950 . S
C1898 C1884 1.377 . S
C1898 C1897 1.373 . S
C1899 C1883 1.377 . S
C1899 C1897 1.389 . S
C1899 C1900 1.524 . S
C1900 C1899 1.524 . S
C1900 C1901 1.397 . S
C1900 C1905 1.363 . S
C1901 H1872 0.950 . S
C1901 C1900 1.397 . S
C1901 C1902 1.334 . S
C1902 H1873 0.950 . S
C1902 C1901 1.334 . S
C1902 C1903 1.287 . S
C1903 C1902 1.287 . S
C1903 C1904 1.524 . S
C1903 H1906 0.999 . S
C1904 H1874 0.950 . S
C1904 C1903 1.524 . S
C1904 C1905 1.415 . S
C1905 H1875 0.950 . S
C1905 C1900 1.363 . S
C1905 C1904 1.415 . S
H1906 C1903 0.999 . S
H1907 C1888 0.913 . S
C727 C5 1.621 . S
C742 C359 1.621 . S
C777 C64 1.621 . S
C792 C418 1.621 . S
C827 C123 1.621 . S
C842 C477 1.621 . S
C877 C182 1.621 . S
C892 C536 1.621 . S
C927 C241 1.621 . S
C942 C595 1.621 . S
C977 C654 1.621 . S
C992 C300 1.621 . S
C1027 C3 1.322 . S
C1042 C593 1.323 . S
C1077 C62 1.322 . S
C1092 C652 1.321 . S
C1127 C121 1.321 . S
C1142 C357 1.321 . S
C1177 C180 1.322 . S
C1192 C416 1.322 . S
C1227 C239 1.322 . S
C1242 C475 1.321 . S
C1277 C298 1.322 . S
C1292 C534 1.321 . S
C1327 C33 1.296 . S
C1342 C210 1.296 . S
C1377 C92 1.293 . S
C1392 C269 1.293 . S
C1427 C328 1.296 . S
C1442 C151 1.296 . S
C1477 C387 1.296 . S
C1492 C564 1.296 . S
C1527 C623 1.298 . S
C1542 C446 1.298 . S
C1577 C505 1.294 . S
C1592 C682 1.294 . S
C1627 C406 0.718 . S
C1642 C52 0.718 . S
C1677 C111 0.718 . S
C1692 C465 0.718 . S
C1727 C170 0.718 . S
C1742 C524 0.718 . S
C1777 C583 0.718 . S
C1792 C229 0.718 . S
C1827 C642 0.719 . S
C1842 C288 0.719 . S
C1877 C347 0.718 . S
C1892 C701 0.718 . S
