# Generated by pormake.
# Topology ilc, (8)-cn, num edge types: 1
# Building blocks:
#     Node 0, Type 0, BuildingBlock: HISSIN_clean_sbu_1, # of connection points: 8
#     Node 1, Type 0, BuildingBlock: HISSIN_clean_sbu_1, # of connection points: 8
#     Node 2, Type 0, BuildingBlock: HISSIN_clean_sbu_1, # of connection points: 8
#     Edge 3, Type (0, 0), BuildingBlock: XIVTED_clean_linker_0, # of connection points: 2
#     Edge 4, Type (0, 0), BuildingBlock: XIVTED_clean_linker_0, # of connection points: 2
#     Edge 5, Type (0, 0), BuildingBlock: XIVTED_clean_linker_0, # of connection points: 2
#     Edge 6, Type (0, 0), BuildingBlock: XIVTED_clean_linker_0, # of connection points: 2
#     Edge 7, Type (0, 0), BuildingBlock: XIVTED_clean_linker_0, # of connection points: 2
#     Edge 8, Type (0, 0), BuildingBlock: XIVTED_clean_linker_0, # of connection points: 2
#     Edge 9, Type (0, 0), BuildingBlock: XIVTED_clean_linker_0, # of connection points: 2
#     Edge 10, Type (0, 0), BuildingBlock: XIVTED_clean_linker_0, # of connection points: 2
#     Edge 11, Type (0, 0), BuildingBlock: XIVTED_clean_linker_0, # of connection points: 2
#     Edge 12, Type (0, 0), BuildingBlock: XIVTED_clean_linker_0, # of connection points: 2
#     Edge 13, Type (0, 0), BuildingBlock: XIVTED_clean_linker_0, # of connection points: 2
#     Edge 14, Type (0, 0), BuildingBlock: XIVTED_clean_linker_0, # of connection points: 2
# Relax obj value: 0.165
# Max RMSD: 0.203
# Mean RMSD: 0.203
data_MOF--net-ilc--node1-HISSIN_clean_sbu_1--edge1-XIVTED_clean_linker_0
_symmetry_space_group_name_H-M    P1
_symmetry_Int_Tables_number       1
_symmetry_cell_setting            triclinic
loop_
_symmetry_equiv_pos_as_xyz
'x, y, z'
_cell_length_a     22.601318
_cell_length_b     31.112746
_cell_length_c     19.520623
_cell_angle_alpha  101.14119
_cell_angle_beta   74.984676
_cell_angle_gamma 142.90034
loop_
_atom_site_label
_atom_site_type_symbol
_atom_site_fract_x
_atom_site_fract_y
_atom_site_fract_z
_atom_type_partial_charge
Eu0 Eu 0.95167 0.95123 0.95595 0.0
C1 C 0.17533 0.08499 0.89482 0.0
O2 O 0.88851 0.85717 0.89052 0.0
C3 C 0.16835 0.03263 0.17032 0.0
C4 C 0.16336 1.0013 0.29852 0.0
C5 C 0.22557 0.08642 0.22047 0.0
C6 C 0.22414 0.07106 0.28427 0.0
C7 C 0.10936 0.96275 0.18531 0.0
C8 C 0.10545 0.94681 0.25046 0.0
Eu9 Eu 0.11971 0.0888 0.05893 0.0
O10 O 0.8806 0.91124 0.06945 0.0
O11 O 0.17246 0.17977 0.12548 0.0
O12 O 0.17801 0.12224 0.943 0.0
O13 O 0.96262 1.0198 0.11125 0.0
C14 C 0.13559 0.19742 0.12474 0.0
O15 O 0.07346 0.16453 0.08132 0.0
O16 O 0.08767 1.00431 0.07921 0.0
C17 C 0.17218 0.05001 0.10211 0.0
C18 C 0.91726 0.83383 0.89256 0.0
O19 O 0.97612 0.86257 0.9371 0.0
O20 O 0.23168 0.11677 0.09169 0.0
O21 O 0.10755 1.01698 0.90685 0.0
C22 C 0.92013 1.00588 0.91591 0.0
O23 O 0.97794 0.03586 0.96197 0.0
C24 C 0.96515 0.05286 0.85704 0.0
C25 C 0.05744 0.14781 0.74927 0.0
C26 C 0.04557 0.07843 0.8063 0.0
C27 C 0.0929 0.12669 0.75227 0.0
C28 C 0.92868 0.07299 0.8517 0.0
C29 C 0.97515 0.12068 0.7975 0.0
C30 C 0.88828 0.95013 0.11915 0.0
O31 O 0.8704 0.94152 0.89895 0.0
H32 H 0.15961 0.98856 0.34869 0.0
H33 H 0.27144 0.14029 0.21021 0.0
H34 H 0.06601 0.92106 0.14717 0.0
H35 H 0.08918 0.18165 0.70554 0.0
H36 H 0.06991 0.05986 0.80844 0.0
H37 H 0.86459 0.05158 0.8891 0.0
Eu38 Eu 0.64889 0.31956 0.25406 0.0
C39 C 0.88892 0.46028 0.26351 0.0
O40 O 0.61898 0.24588 0.16849 0.0
C41 C 0.79884 0.3153 0.5073 0.0
C42 C 0.69575 0.21449 0.61197 0.0
C43 C 0.71531 0.288 0.55416 0.0
C44 C 0.66387 0.23793 0.60737 0.0
C45 C 0.83267 0.29357 0.5146 0.0
C46 C 0.78042 0.24261 0.56711 0.0
Eu47 Eu 0.8516 0.44445 0.41858 0.0
O48 O 0.57586 0.26859 0.36381 0.0
O49 O 0.86975 0.51039 0.50827 0.0
O50 O 0.9464 0.4997 0.31151 0.0
O51 O 0.69716 0.37842 0.40972 0.0
C52 C 0.841 0.53383 0.50653 0.0
O53 O 0.80575 0.52037 0.45098 0.0
O54 O 0.79535 0.34617 0.40916 0.0
C55 C 0.85123 0.36716 0.45156 0.0
C56 C 0.57422 0.18515 0.18617 0.0
O57 O 0.54478 0.16761 0.25378 0.0
O58 O 0.91388 0.4337 0.47087 0.0
O59 O 0.79545 0.40078 0.28969 0.0
C60 C 0.60188 0.36928 0.23407 0.0
O61 O 0.69119 0.40224 0.21084 0.0
C62 C 0.55579 0.35793 0.18035 0.0
C63 C 0.48261 0.34056 0.06862 0.0
C64 C 0.51648 0.30394 0.13162 0.0
C65 C 0.48307 0.29644 0.07389 0.0
C66 C 0.55681 0.40285 0.17395 0.0
C67 C 0.518 0.39319 0.11838 0.0
C68 C 0.6178 0.30876 0.41911 0.0
O69 O 0.54296 0.31323 0.2749 0.0
H70 H 0.6603 0.17904 0.65538 0.0
H71 H 0.69264 0.30755 0.55053 0.0
H72 H 0.89944 0.31659 0.48035 0.0
H73 H 0.46161 0.33801 0.02258 0.0
H74 H 0.51643 0.26991 0.1372 0.0
H75 H 0.58835 0.4452 0.21126 0.0
Eu76 Eu 0.20451 0.59794 0.58426 0.0
C77 C 0.43939 0.74046 0.58727 0.0
O78 O 0.18002 0.52647 0.49862 0.0
C79 C 0.54876 0.73145 0.83852 0.0
C80 C 0.62355 0.76595 0.95989 0.0
C81 C 0.59203 0.79203 0.87679 0.0
C82 C 0.62377 0.80738 0.94042 0.0
C83 C 0.54689 0.68958 0.85957 0.0
C84 C 0.58641 0.70754 0.91987 0.0
Eu85 Eu 0.42511 0.7384 0.75321 0.0
O86 O 0.12329 0.55239 0.69718 0.0
O87 O 0.44643 0.81111 0.83437 0.0
O88 O 0.4877 0.7821 0.64042 0.0
O89 O 0.27625 0.6484 0.71862 0.0
C90 C 0.5053 0.87647 0.81716 0.0
O91 O 0.55254 0.89969 0.75143 0.0
O92 O 0.40178 0.66836 0.80433 0.0
C93 C 0.49524 0.70831 0.7824 0.0
C94 C 0.21512 0.50741 0.49898 0.0
O95 O 0.26241 0.52973 0.55021 0.0
O96 O 0.54461 0.75848 0.73635 0.0
O97 O 0.36121 0.6709 0.59794 0.0
C98 C 0.18363 0.66172 0.54961 0.0
O99 O 0.26616 0.69562 0.5657 0.0
C100 C 0.19386 0.69135 0.49008 0.0
C101 C 0.22106 0.75837 0.38612 0.0
C102 C 0.2756 0.7297 0.43347 0.0
C103 C 0.28867 0.76267 0.38042 0.0
C104 C 0.12243 0.68318 0.49116 0.0
C105 C 0.1351 0.71545 0.43768 0.0
C106 C 0.18172 0.5917 0.74495 0.0
O107 O 0.11073 0.59203 0.55561 0.0
H108 H 0.64353 0.77449 0.01003 0.0
H109 H 0.59346 0.82388 0.85937 0.0
H110 H 0.51312 0.64262 0.82997 0.0
H111 H 0.233 0.78682 0.34808 0.0
H112 H 0.32757 0.73287 0.43041 0.0
H113 H 0.05804 0.65219 0.53317 0.0
H114 H 0.26012 0.25747 0.68406 0.0
H115 H 0.23337 0.16493 0.33331 0.0
H116 H 0.09931 0.04468 0.68264 0.0
H117 H 0.32962 0.09549 0.36684 0.0
H118 H 0.25581 0.21097 0.45366 0.0
H119 H 0.34734 0.27807 0.56323 0.0
C120 C 0.24501 0.21574 0.65918 0.0
C121 C 0.1693 0.14814 0.69244 0.0
C122 C 0.27575 0.18813 0.43355 0.0
C123 C 0.27066 0.17245 0.55602 0.0
C124 C 0.26334 0.16209 0.36469 0.0
C125 C 0.27597 0.12389 0.34113 0.0
C126 C 0.29842 0.17407 0.4788 0.0
C127 C 0.31514 0.12209 0.38417 0.0
C128 C 0.29493 0.22779 0.59052 0.0
C129 C 0.15554 0.09708 0.65882 0.0
N130 N 0.31995 0.14332 0.45228 0.0
N131 N 0.20463 0.10993 0.59182 0.0
H132 H 0.49278 0.10923 0.67848 0.0
H133 H 0.57218 0.26555 0.02469 0.0
H134 H 0.67087 0.32711 0.67436 0.0
H135 H 0.35327 0.22622 0.98264 0.0
H136 H 0.57384 0.22148 0.90775 0.0
H137 H 0.41228 0.09511 0.80031 0.0
C138 C 0.51273 0.15329 0.70219 0.0
C139 C 0.59066 0.22015 0.66695 0.0
C140 C 0.52314 0.22046 0.92561 0.0
C141 C 0.49727 0.20316 0.80354 0.0
C142 C 0.52155 0.24536 0.99255 0.0
C143 C 0.46409 0.25154 0.01335 0.0
C144 C 0.46864 0.2031 0.87932 0.0
C145 C 0.40161 0.22516 0.96804 0.0
C146 C 0.46697 0.14498 0.77131 0.0
C147 C 0.61187 0.27484 0.69934 0.0
N148 N 0.40875 0.20487 0.90194 0.0
N149 N 0.5663 0.26541 0.76651 0.0
H150 H 0.73058 0.88178 0.05185 0.0
H151 H 0.27023 0.75976 0.24663 0.0
H152 H 0.53786 0.84032 0.9541 0.0
H153 H 0.48255 0.8409 0.36332 0.0
H154 H 0.39243 0.81588 0.14076 0.0
H155 H 0.67404 0.89996 0.16437 0.0
C156 C 0.6782 0.87775 0.05322 0.0
C157 C 0.63235 0.85279 0.99438 0.0
C158 C 0.41394 0.82285 0.18932 0.0
C159 C 0.57108 0.87616 0.12174 0.0
C160 C 0.34362 0.79088 0.25074 0.0
C161 C 0.36612 0.7967 0.31525 0.0
C162 C 0.50693 0.85795 0.19021 0.0
C163 C 0.46147 0.83456 0.31491 0.0
C164 C 0.64681 0.88877 0.11744 0.0
C165 C 0.57226 0.85536 0.99791 0.0
N166 N 0.52808 0.86278 0.25287 0.0
N167 N 0.54126 0.8645 0.06105 0.0
H168 H 0.08561 0.76822 0.51998 0.0
H169 H 0.96403 0.86679 0.36825 0.0
H170 H 1.0276 0.64748 0.33254 0.0
H171 H 0.11876 0.86821 0.18316 0.0
H172 H 0.92166 0.77972 0.42595 0.0
H173 H 1.02902 0.79755 0.47461 0.0
C174 C 0.05599 0.74484 0.4711 0.0
C175 C 0.0612 0.70547 0.42993 0.0
C176 C 0.96246 0.79758 0.37202 0.0
C177 C 1.00058 0.74106 0.37608 0.0
C178 C 0.98545 0.84641 0.33862 0.0
C179 C 0.04613 0.87541 0.2711 0.0
C180 C 0.99955 0.77702 0.33732 0.0
C181 C 0.07203 0.84733 0.23514 0.0
C182 C 1.02441 0.76201 0.44474 0.0
C183 C 1.02427 0.67788 0.36589 0.0
N184 N 0.05 0.80049 0.2692 0.0
N185 N 0.99907 0.69833 0.33966 0.0
H186 H 0.11311 0.44482 0.3882 0.0
H187 H 0.25292 0.27106 0.22727 0.0
H188 H 0.29288 0.46895 0.47958 0.0
H189 H 0.06404 0.24023 0.1402 0.0
H190 H 0.27506 0.34842 0.31668 0.0
H191 H 0.09885 0.37315 0.2945 0.0
C192 C 0.1497 0.43519 0.38857 0.0
C193 C 0.20436 0.46312 0.44194 0.0
C194 C 0.22893 0.32486 0.27791 0.0
C195 C 0.18857 0.38112 0.33456 0.0
C196 C 0.2164 0.28072 0.22671 0.0
C197 C 0.15598 0.2486 0.17628 0.0
C198 C 0.18057 0.33698 0.27895 0.0
C199 C 0.11101 0.26351 0.17809 0.0
C200 C 0.14157 0.39423 0.335 0.0
C201 C 0.24986 0.44855 0.43969 0.0
N202 N 0.12386 0.30626 0.22863 0.0
N203 N 0.241 0.40872 0.38702 0.0
H204 H 0.5934 0.88038 0.54565 0.0
H205 H 0.71124 0.80698 0.1521 0.0
H206 H 0.39548 0.66899 0.46219 0.0
H207 H 0.88892 1.01631 0.23359 0.0
H208 H 0.58722 0.75427 0.26141 0.0
H209 H 0.6926 0.93035 0.42706 0.0
C210 C 0.56995 0.84443 0.50214 0.0
C211 C 0.48711 0.77047 0.5141 0.0
C212 C 0.65315 0.81172 0.255 0.0
C213 C 0.60153 0.82727 0.3782 0.0
C214 C 0.72425 0.84181 0.19286 0.0
C215 C 0.81112 0.91618 0.18388 0.0
C216 C 0.66962 0.85638 0.30861 0.0
C217 C 0.82353 0.95872 0.23815 0.0
C218 C 0.62684 0.87298 0.43437 0.0
C219 C 0.45946 0.7264 0.45553 0.0
N220 N 0.754 0.92824 0.29814 0.0
N221 N 0.51755 0.75548 0.39026 0.0
H222 H 0.68245 0.11064 0.57743 0.0
H223 H 0.06934 0.25165 0.79186 0.0
H224 H 0.96036 0.33324 0.60329 0.0
H225 H 0.79311 1.02893 0.76456 0.0
H226 H 1.02566 0.28243 0.72921 0.0
H227 H 0.72285 0.07933 0.64376 0.0
C228 C 0.75358 0.15286 0.59521 0.0
C229 C 0.81856 0.22456 0.5847 0.0
C230 C 0.97366 0.22676 0.73786 0.0
C231 C 0.86364 0.18939 0.6628 0.0
C232 C 0.99783 0.20925 0.77465 0.0
C233 C 0.93444 0.13776 0.78339 0.0
C234 C 0.88583 0.17232 0.70914 0.0
C235 C 0.84338 0.08465 0.75937 0.0
C236 C 0.77585 0.13505 0.63405 0.0
C237 C 0.90898 0.27738 0.60957 0.0
N238 N 0.82232 0.10304 0.72235 0.0
N239 N 0.92841 0.25872 0.64826 0.0
H240 H 0.90213 0.56652 0.63241 0.0
H241 H 0.81519 0.77459 0.78307 0.0
H242 H 0.7925 0.5925 0.51723 0.0
H243 H 0.96462 0.77456 0.88299 0.0
H244 H 0.79097 0.69791 0.69098 0.0
H245 H 0.91256 0.63415 0.72961 0.0
C246 C 0.88019 0.58638 0.62752 0.0
C247 C 0.84685 0.57405 0.56634 0.0
C248 C 0.82868 0.71445 0.73324 0.0
C249 C 0.8577 0.65104 0.67785 0.0
C250 C 0.84222 0.75804 0.78601 0.0
C251 C 0.89284 0.78162 0.84055 0.0
C252 C 0.86554 0.69393 0.73517 0.0
C253 C 0.92579 0.75813 0.84175 0.0
C254 C 0.88606 0.62496 0.68311 0.0
C255 C 0.81868 0.60067 0.56332 0.0
N256 N 0.91193 0.71589 0.78974 0.0
N257 N 0.82488 0.63795 0.61816 0.0
H258 H 0.62467 0.37514 0.53708 0.0
H259 H 0.19446 1.02442 0.78628 0.0
H260 H 0.48281 0.17266 0.46581 0.0
H261 H 0.30712 0.21896 0.84317 0.0
H262 H 0.30592 0.0791 0.67148 0.0
H263 H 0.51876 0.32102 0.65332 0.0
C264 C 0.57196 0.31938 0.54617 0.0
C265 C 0.56177 0.27805 0.49155 0.0
C266 C 0.30638 0.10984 0.70915 0.0
C267 C 0.43973 0.2156 0.62464 0.0
C268 C 0.24272 0.07868 0.77475 0.0
C269 C 0.24212 0.11741 0.82483 0.0
C270 C 0.37063 0.1805 0.69363 0.0
C271 C 0.30578 0.18734 0.80657 0.0
C272 C 0.51091 0.28837 0.61246 0.0
C273 C 0.49222 0.20613 0.50638 0.0
N274 N 0.36792 0.21676 0.74272 0.0
N275 N 0.4335 0.17703 0.57154 0.0
H276 H 0.36898 0.35512 0.08963 0.0
H277 H 0.72438 0.75013 0.97932 0.0
H278 H 0.67729 0.53966 0.11376 0.0
H279 H 0.43115 0.56088 0.92643 0.0
H280 H 0.70597 0.67581 0.03574 0.0
H281 H 0.38526 0.43181 0.04219 0.0
C282 C 0.43966 0.41213 0.08626 0.0
C283 C 0.52197 0.44108 0.10557 0.0
C284 C 0.64585 0.65043 0.01144 0.0
C285 C 0.54201 0.52925 0.04954 0.0
C286 C 0.65656 0.69287 0.97867 0.0
C287 C 0.57972 0.66193 0.94719 0.0
C288 C 0.55691 0.57614 0.01382 0.0
C289 C 0.49309 0.58726 0.94887 0.0
C290 C 0.44922 0.45581 0.05846 0.0
C291 C 0.61183 0.51524 0.10001 0.0
N292 N 0.48385 0.54703 0.98199 0.0
N293 N 0.61977 0.55674 0.07181 0.0
H294 H 0.61017 1.01051 0.79719 0.0
H295 H 0.48314 0.05626 0.20636 0.0
H296 H 0.42712 0.84889 0.95962 0.0
H297 H 0.63533 0.20731 0.04124 0.0
H298 H 0.46683 0.98175 0.11705 0.0
H299 H 0.62602 0.0854 0.88589 0.0
C300 C 0.57337 0.99071 0.8515 0.0
C301 C 0.51694 0.92303 0.87079 0.0
C302 C 0.50358 0.03106 0.10018 0.0
C303 C 0.535 1.0089 0.97289 0.0
C304 C 0.51296 0.07378 0.15126 0.0
C305 C 0.56092 0.13842 0.13147 0.0
C306 C 0.54266 0.05294 0.02843 0.0
C307 C 0.59792 0.15804 0.05908 0.0
C308 C 0.58233 0.03355 0.90214 0.0
C309 C 0.47114 0.90049 0.94211 0.0
N310 N 0.58829 0.11563 0.01029 0.0
N311 N 0.48127 0.94327 0.99043 0.0
H312 H 0.28003 0.67134 0.8577 0.0
H313 H 0.79187 0.38118 0.15069 0.0
H314 H 0.99048 0.47021 0.80731 0.0
H315 H 0.07689 0.58667 0.20247 0.0
H316 H 0.86286 0.41334 0.02472 0.0
H317 H 0.20827 0.64124 0.98408 0.0
C318 C 0.20167 0.62064 0.87314 0.0
C319 C 0.14151 0.57318 0.82176 0.0
C320 C 0.90986 0.45168 0.06356 0.0
C321 C 0.05809 0.53844 0.96648 0.0
C322 C 0.86894 0.4334 0.13562 0.0
C323 C 0.92805 0.48131 0.18727 0.0
C324 C 1.01115 0.51837 0.0428 0.0
C325 C 1.02836 0.54803 0.16446 0.0
C326 C 0.16044 0.60358 0.94539 0.0
C327 C 0.03985 0.50844 0.84503 0.0
N328 N 0.0668 0.56448 0.09399 0.0
N329 N 1.00145 0.49302 0.91552 0.0
loop_
_geom_bond_atom_site_label_1
_geom_bond_atom_site_label_2
_geom_bond_distance
_geom_bond_site_symmetry_2
_ccdc_geom_bond_type
Eu0 O2 2.323 . S
Eu0 O10 2.328 1_556 S
Eu0 O21 2.316 1_655 S
Eu0 C22 2.837 . S
Eu0 O23 2.488 . S
Eu0 O31 2.461 . S
C1 O12 1.251 . S
C1 O21 1.237 1_545 S
O2 Eu0 2.323 . S
O2 C18 1.279 . S
C3 C5 1.383 . S
C3 C7 1.388 1_545 S
C3 C17 1.491 . S
C4 C6 1.403 . S
C4 C8 1.385 . S
C4 H32 0.931 . S
C5 C3 1.383 . S
C5 C6 1.393 1_545 S
C5 H33 0.930 . S
C6 C4 1.403 . S
C6 C5 1.393 1_565 S
C7 C3 1.388 1_565 S
C7 C8 1.394 . S
C7 H34 0.930 . S
C8 C4 1.385 . S
C8 C7 1.394 . S
Eu9 O11 2.323 . S
Eu9 O12 2.328 1_554 S
Eu9 O13 2.316 1_455 S
Eu9 O16 2.488 . S
Eu9 C17 2.837 . S
Eu9 O20 2.461 . S
O10 Eu0 2.328 1_554 S
O10 C30 1.251 . S
O11 Eu9 2.323 . S
O11 C14 1.279 . S
O12 C1 1.251 . S
O12 Eu9 2.328 1_556 S
O13 Eu9 2.316 1_655 S
O13 C30 1.237 1_545 S
C14 O11 1.279 . S
C14 O15 1.244 . S
O15 C14 1.244 . S
O16 Eu9 2.488 . S
O16 C17 1.271 . S
C17 C3 1.491 . S
C17 Eu9 2.837 . S
C17 O16 1.271 . S
C17 O20 1.261 . S
C18 O2 1.279 . S
C18 O19 1.244 . S
O19 C18 1.244 . S
O20 Eu9 2.461 . S
O20 C17 1.261 . S
O21 Eu0 2.316 1_455 S
O21 C1 1.237 1_565 S
C22 Eu0 2.837 . S
C22 O23 1.271 . S
C22 C24 1.491 . S
C22 O31 1.261 . S
O23 Eu0 2.488 . S
O23 C22 1.271 . S
C24 C22 1.491 . S
C24 C26 1.383 . S
C24 C28 1.388 1_565 S
C25 C27 1.403 . S
C25 C29 1.385 . S
C25 H35 0.931 . S
C26 C24 1.383 . S
C26 C27 1.393 1_565 S
C26 H36 0.930 . S
C27 C25 1.403 . S
C27 C26 1.393 1_545 S
C28 C24 1.388 1_545 S
C28 C29 1.394 . S
C28 H37 0.930 . S
C29 C25 1.385 . S
C29 C28 1.394 . S
C30 O10 1.251 . S
C30 O13 1.237 1_565 S
O31 Eu0 2.461 . S
O31 C22 1.261 . S
H32 C4 0.931 . S
H33 C5 0.930 . S
H34 C7 0.930 . S
H35 C25 0.931 . S
H36 C26 0.930 . S
H37 C28 0.930 . S
Eu38 O40 2.323 . S
Eu38 O48 2.328 . S
Eu38 O59 2.316 . S
Eu38 C60 2.837 . S
Eu38 O61 2.488 . S
Eu38 O69 2.461 . S
C39 O50 1.251 . S
C39 O59 1.237 . S
O40 Eu38 2.323 . S
O40 C56 1.279 . S
C41 C43 1.383 . S
C41 C45 1.388 . S
C41 C55 1.491 . S
C42 C44 1.403 . S
C42 C46 1.385 . S
C42 H70 0.931 . S
C43 C41 1.383 . S
C43 C44 1.393 . S
C43 H71 0.930 . S
C44 C42 1.403 . S
C44 C43 1.393 . S
C45 C41 1.388 . S
C45 C46 1.394 . S
C45 H72 0.930 . S
C46 C42 1.385 . S
C46 C45 1.394 . S
Eu47 O49 2.323 . S
Eu47 O50 2.328 . S
Eu47 O51 2.316 . S
Eu47 O54 2.488 . S
Eu47 C55 2.837 . S
Eu47 O58 2.461 . S
O48 Eu38 2.328 . S
O48 C68 1.251 . S
O49 Eu47 2.323 . S
O49 C52 1.279 . S
O50 C39 1.251 . S
O50 Eu47 2.328 . S
O51 Eu47 2.316 . S
O51 C68 1.237 . S
C52 O49 1.279 . S
C52 O53 1.244 . S
O53 C52 1.244 . S
O54 Eu47 2.488 . S
O54 C55 1.271 . S
C55 C41 1.491 . S
C55 Eu47 2.837 . S
C55 O54 1.271 . S
C55 O58 1.261 . S
C56 O40 1.279 . S
C56 O57 1.244 . S
O57 C56 1.244 . S
O58 Eu47 2.461 . S
O58 C55 1.261 . S
O59 Eu38 2.316 . S
O59 C39 1.237 . S
C60 Eu38 2.837 . S
C60 O61 1.271 . S
C60 C62 1.491 . S
C60 O69 1.261 . S
O61 Eu38 2.488 . S
O61 C60 1.271 . S
C62 C60 1.491 . S
C62 C64 1.383 . S
C62 C66 1.388 . S
C63 C65 1.403 . S
C63 C67 1.385 . S
C63 H73 0.931 . S
C64 C62 1.383 . S
C64 C65 1.393 . S
C64 H74 0.930 . S
C65 C63 1.403 . S
C65 C64 1.393 . S
C66 C62 1.388 . S
C66 C67 1.394 . S
C66 H75 0.930 . S
C67 C63 1.385 . S
C67 C66 1.394 . S
C68 O48 1.251 . S
C68 O51 1.237 . S
O69 Eu38 2.461 . S
O69 C60 1.261 . S
H70 C42 0.931 . S
H71 C43 0.930 . S
H72 C45 0.930 . S
H73 C63 0.931 . S
H74 C64 0.930 . S
H75 C66 0.930 . S
Eu76 O78 2.323 . S
Eu76 O86 2.328 . S
Eu76 O97 2.316 . S
Eu76 C98 2.837 . S
Eu76 O99 2.488 . S
Eu76 O107 2.461 . S
C77 O88 1.251 . S
C77 O97 1.237 . S
O78 Eu76 2.323 . S
O78 C94 1.279 . S
C79 C81 1.383 . S
C79 C83 1.388 . S
C79 C93 1.491 . S
C80 C82 1.403 . S
C80 C84 1.385 . S
C80 H108 0.931 . S
C81 C79 1.383 . S
C81 C82 1.393 . S
C81 H109 0.930 . S
C82 C80 1.403 . S
C82 C81 1.393 . S
C83 C79 1.388 . S
C83 C84 1.394 . S
C83 H110 0.930 . S
C84 C80 1.385 . S
C84 C83 1.394 . S
Eu85 O87 2.323 . S
Eu85 O88 2.328 . S
Eu85 O89 2.316 . S
Eu85 O92 2.488 . S
Eu85 C93 2.837 . S
Eu85 O96 2.461 . S
O86 Eu76 2.328 . S
O86 C106 1.251 . S
O87 Eu85 2.323 . S
O87 C90 1.279 . S
O88 C77 1.251 . S
O88 Eu85 2.328 . S
O89 Eu85 2.316 . S
O89 C106 1.237 . S
C90 O87 1.279 . S
C90 O91 1.244 . S
O91 C90 1.244 . S
O92 Eu85 2.488 . S
O92 C93 1.271 . S
C93 C79 1.491 . S
C93 Eu85 2.837 . S
C93 O92 1.271 . S
C93 O96 1.261 . S
C94 O78 1.279 . S
C94 O95 1.244 . S
O95 C94 1.244 . S
O96 Eu85 2.461 . S
O96 C93 1.261 . S
O97 Eu76 2.316 . S
O97 C77 1.237 . S
C98 Eu76 2.837 . S
C98 O99 1.271 . S
C98 C100 1.491 . S
C98 O107 1.261 . S
O99 Eu76 2.488 . S
O99 C98 1.271 . S
C100 C98 1.491 . S
C100 C102 1.383 . S
C100 C104 1.388 . S
C101 C103 1.403 . S
C101 C105 1.385 . S
C101 H111 0.931 . S
C102 C100 1.383 . S
C102 C103 1.393 . S
C102 H112 0.930 . S
C103 C101 1.403 . S
C103 C102 1.393 . S
C104 C100 1.388 . S
C104 C105 1.394 . S
C104 H113 0.930 . S
C105 C101 1.385 . S
C105 C104 1.394 . S
C106 O86 1.251 . S
C106 O89 1.237 . S
O107 Eu76 2.461 . S
O107 C98 1.261 . S
H108 C80 0.931 . S
H109 C81 0.930 . S
H110 C83 0.930 . S
H111 C101 0.931 . S
H112 C102 0.930 . S
H113 C104 0.930 . S
H114 C120 0.931 1_455 S
H115 C124 0.930 1_655 S
H116 C129 0.929 . S
H117 C127 0.929 . S
H118 C122 0.929 . S
H119 C128 0.929 . S
C120 H114 0.931 1_655 S
C120 C121 1.375 . S
C120 C128 1.370 1_655 S
C121 C120 1.375 . S
C121 C129 1.433 1_545 S
C122 H118 0.929 . S
C122 C124 1.378 1_655 S
C122 C126 1.350 1_655 S
C123 C126 1.463 1_645 S
C123 C128 1.350 1_655 S
C123 N131 1.427 1_545 S
C124 H115 0.930 1_455 S
C124 C122 1.378 1_455 S
C124 C125 1.367 . S
C125 C124 1.367 . S
C125 C127 1.433 1_565 S
C126 C122 1.350 1_455 S
C126 C123 1.463 1_465 S
C126 N130 1.427 1_565 S
C127 H117 0.929 . S
C127 C125 1.433 1_545 S
C127 N130 1.384 . S
C128 H119 0.929 . S
C128 C120 1.370 1_455 S
C128 C123 1.350 1_455 S
C129 H116 0.929 . S
C129 C121 1.433 1_565 S
C129 N131 1.384 . S
N130 C126 1.427 1_545 S
N130 C127 1.384 . S
N131 C123 1.427 1_565 S
N131 C129 1.384 . S
H132 C138 0.930 . S
H133 C142 0.930 1_554 S
H134 C147 0.929 . S
H135 C145 0.929 . S
H136 C140 0.929 . S
H137 C146 0.929 . S
C138 H132 0.930 . S
C138 C139 1.367 . S
C138 C146 1.378 . S
C139 C138 1.367 . S
C139 C147 1.433 . S
C140 H136 0.929 . S
C140 C142 1.378 . S
C140 C144 1.350 . S
C141 C144 1.463 . S
C141 C146 1.350 . S
C141 N149 1.427 . S
C142 H133 0.930 1_556 S
C142 C140 1.378 . S
C142 C143 1.367 . S
C143 C142 1.367 . S
C143 C145 1.433 . S
C144 C140 1.350 . S
C144 C141 1.463 . S
C144 N148 1.427 . S
C145 H135 0.929 . S
C145 C143 1.433 . S
C145 N148 1.384 . S
C146 H137 0.929 . S
C146 C138 1.378 . S
C146 C141 1.350 . S
C147 H134 0.929 . S
C147 C139 1.433 . S
C147 N149 1.384 . S
N148 C144 1.427 . S
N148 C145 1.384 . S
N149 C141 1.427 . S
N149 C147 1.384 . S
H150 C156 0.930 . S
H151 C160 0.930 . S
H152 C165 0.929 1_556 S
H153 C163 0.929 . S
H154 C158 0.929 . S
H155 C164 0.929 . S
C156 H150 0.930 . S
C156 C157 1.367 . S
C156 C164 1.378 . S
C157 C156 1.367 . S
C157 C165 1.433 . S
C158 H154 0.929 . S
C158 C160 1.378 . S
C158 C162 1.350 . S
C159 C162 1.463 . S
C159 C164 1.350 . S
C159 N167 1.427 . S
C160 H151 0.930 . S
C160 C158 1.378 . S
C160 C161 1.367 . S
C161 C160 1.367 . S
C161 C163 1.433 . S
C162 C158 1.350 . S
C162 C159 1.463 . S
C162 N166 1.427 . S
C163 H153 0.929 . S
C163 C161 1.433 . S
C163 N166 1.384 . S
C164 H155 0.929 . S
C164 C156 1.378 . S
C164 C159 1.350 . S
C165 H152 0.929 1_554 S
C165 C157 1.433 . S
C165 N167 1.384 . S
N166 C162 1.427 . S
N166 C163 1.384 . S
N167 C159 1.427 . S
N167 C165 1.384 . S
H168 C174 0.930 . S
H169 C178 0.930 1_655 S
H170 C183 0.929 . S
H171 C181 0.929 . S
H172 C176 0.929 . S
H173 C182 0.929 . S
C174 H168 0.930 . S
C174 C175 1.367 . S
C174 C182 1.378 . S
C175 C174 1.367 . S
C175 C183 1.433 . S
C176 H172 0.929 . S
C176 C178 1.378 . S
C176 C180 1.350 . S
C177 C180 1.463 . S
C177 C182 1.350 . S
C177 N185 1.427 . S
C178 H169 0.930 1_455 S
C178 C176 1.378 . S
C178 C179 1.367 . S
C179 C178 1.367 . S
C179 C181 1.433 . S
C180 C176 1.350 . S
C180 C177 1.463 . S
C180 N184 1.427 . S
C181 H171 0.929 . S
C181 C179 1.433 . S
C181 N184 1.384 . S
C182 H173 0.929 . S
C182 C174 1.378 . S
C182 C177 1.350 . S
C183 H170 0.929 . S
C183 C175 1.433 . S
C183 N185 1.384 . S
N184 C180 1.427 . S
N184 C181 1.384 . S
N185 C177 1.427 . S
N185 C183 1.384 . S
H186 C192 0.930 . S
H187 C196 0.930 1_655 S
H188 C201 0.929 . S
H189 C199 0.929 . S
H190 C194 0.929 . S
H191 C200 0.929 . S
C192 H186 0.930 . S
C192 C193 1.367 . S
C192 C200 1.378 . S
C193 C192 1.367 . S
C193 C201 1.433 . S
C194 H190 0.929 . S
C194 C196 1.378 . S
C194 C198 1.350 . S
C195 C198 1.463 . S
C195 C200 1.350 . S
C195 N203 1.427 . S
C196 H187 0.930 1_455 S
C196 C194 1.378 . S
C196 C197 1.367 . S
C197 C196 1.367 . S
C197 C199 1.433 . S
C198 C194 1.350 . S
C198 C195 1.463 . S
C198 N202 1.427 . S
C199 H189 0.929 . S
C199 C197 1.433 . S
C199 N202 1.384 . S
C200 H191 0.929 . S
C200 C192 1.378 . S
C200 C195 1.350 . S
C201 H188 0.929 . S
C201 C193 1.433 . S
C201 N203 1.384 . S
N202 C198 1.427 . S
N202 C199 1.384 . S
N203 C195 1.427 . S
N203 C201 1.384 . S
H204 C210 0.930 . S
H205 C214 0.930 . S
H206 C219 0.929 . S
H207 C217 0.929 . S
H208 C212 0.929 . S
H209 C218 0.929 . S
C210 H204 0.930 . S
C210 C211 1.367 . S
C210 C218 1.378 . S
C211 C210 1.367 . S
C211 C219 1.433 . S
C212 H208 0.929 . S
C212 C214 1.378 . S
C212 C216 1.350 . S
C213 C216 1.463 . S
C213 C218 1.350 . S
C213 N221 1.427 . S
C214 H205 0.930 . S
C214 C212 1.378 . S
C214 C215 1.367 . S
C215 C214 1.367 . S
C215 C217 1.433 . S
C216 C212 1.350 . S
C216 C213 1.463 . S
C216 N220 1.427 . S
C217 H207 0.929 . S
C217 C215 1.433 . S
C217 N220 1.384 . S
C218 H209 0.929 . S
C218 C210 1.378 . S
C218 C213 1.350 . S
C219 H206 0.929 . S
C219 C211 1.433 . S
C219 N221 1.384 . S
N220 C216 1.427 . S
N220 C217 1.384 . S
N221 C213 1.427 . S
N221 C219 1.384 . S
H222 C228 0.930 . S
H223 C232 0.930 . S
H224 C237 0.929 . S
H225 C235 0.929 . S
H226 C230 0.929 . S
H227 C236 0.929 . S
C228 H222 0.930 . S
C228 C229 1.367 . S
C228 C236 1.378 . S
C229 C228 1.367 . S
C229 C237 1.433 . S
C230 H226 0.929 . S
C230 C232 1.378 . S
C230 C234 1.350 . S
C231 C234 1.463 . S
C231 C236 1.350 . S
C231 N239 1.427 . S
C232 H223 0.930 . S
C232 C230 1.378 . S
C232 C233 1.367 . S
C233 C232 1.367 . S
C233 C235 1.433 . S
C234 C230 1.350 . S
C234 C231 1.463 . S
C234 N238 1.427 . S
C235 H225 0.929 . S
C235 C233 1.433 . S
C235 N238 1.384 . S
C236 H227 0.929 . S
C236 C228 1.378 . S
C236 C231 1.350 . S
C237 H224 0.929 . S
C237 C229 1.433 . S
C237 N239 1.384 . S
N238 C234 1.427 . S
N238 C235 1.384 . S
N239 C231 1.427 . S
N239 C237 1.384 . S
H240 C246 0.930 . S
H241 C250 0.930 . S
H242 C255 0.929 . S
H243 C253 0.929 . S
H244 C248 0.929 . S
H245 C254 0.929 . S
C246 H240 0.930 . S
C246 C247 1.367 . S
C246 C254 1.378 . S
C247 C246 1.367 . S
C247 C255 1.433 . S
C248 H244 0.929 . S
C248 C250 1.378 . S
C248 C252 1.350 . S
C249 C252 1.463 . S
C249 C254 1.350 . S
C249 N257 1.427 . S
C250 H241 0.930 . S
C250 C248 1.378 . S
C250 C251 1.367 . S
C251 C250 1.367 . S
C251 C253 1.433 . S
C252 C248 1.350 . S
C252 C249 1.463 . S
C252 N256 1.427 . S
C253 H243 0.929 . S
C253 C251 1.433 . S
C253 N256 1.384 . S
C254 H245 0.929 . S
C254 C246 1.378 . S
C254 C249 1.350 . S
C255 H242 0.929 . S
C255 C247 1.433 . S
C255 N257 1.384 . S
N256 C252 1.427 . S
N256 C253 1.384 . S
N257 C249 1.427 . S
N257 C255 1.384 . S
H258 C264 0.930 . S
H259 C268 0.930 . S
H260 C273 0.929 . S
H261 C271 0.929 . S
H262 C266 0.929 . S
H263 C272 0.929 . S
C264 H258 0.930 . S
C264 C265 1.367 . S
C264 C272 1.378 . S
C265 C264 1.367 . S
C265 C273 1.433 . S
C266 H262 0.929 . S
C266 C268 1.378 . S
C266 C270 1.350 . S
C267 C270 1.463 . S
C267 C272 1.350 . S
C267 N275 1.427 . S
C268 H259 0.930 . S
C268 C266 1.378 . S
C268 C269 1.367 . S
C269 C268 1.367 . S
C269 C271 1.433 . S
C270 C266 1.350 . S
C270 C267 1.463 . S
C270 N274 1.427 . S
C271 H261 0.929 . S
C271 C269 1.433 . S
C271 N274 1.384 . S
C272 H263 0.929 . S
C272 C264 1.378 . S
C272 C267 1.350 . S
C273 H260 0.929 . S
C273 C265 1.433 . S
C273 N275 1.384 . S
N274 C270 1.427 . S
N274 C271 1.384 . S
N275 C267 1.427 . S
N275 C273 1.384 . S
H276 C282 0.930 . S
H277 C286 0.930 . S
H278 C291 0.929 . S
H279 C289 0.929 . S
H280 C284 0.929 . S
H281 C290 0.929 . S
C282 H276 0.930 . S
C282 C283 1.367 . S
C282 C290 1.378 . S
C283 C282 1.367 . S
C283 C291 1.433 . S
C284 H280 0.929 . S
C284 C286 1.378 . S
C284 C288 1.350 . S
C285 C288 1.463 1_554 S
C285 C290 1.350 . S
C285 N293 1.427 1_554 S
C286 H277 0.930 . S
C286 C284 1.378 . S
C286 C287 1.367 . S
C287 C286 1.367 . S
C287 C289 1.433 . S
C288 C284 1.350 . S
C288 C285 1.463 1_556 S
C288 N292 1.427 1_556 S
C289 H279 0.929 . S
C289 C287 1.433 . S
C289 N292 1.384 1_556 S
C290 H281 0.929 . S
C290 C282 1.378 . S
C290 C285 1.350 . S
C291 H278 0.929 . S
C291 C283 1.433 . S
C291 N293 1.384 1_554 S
N292 C288 1.427 1_554 S
N292 C289 1.384 1_554 S
N293 C285 1.427 1_556 S
N293 C291 1.384 1_556 S
H294 C300 0.930 . S
H295 C304 0.930 . S
H296 C309 0.929 . S
H297 C307 0.929 . S
H298 C302 0.929 . S
H299 C308 0.929 . S
C300 H294 0.930 . S
C300 C301 1.367 . S
C300 C308 1.378 . S
C301 C300 1.367 . S
C301 C309 1.433 . S
C302 H298 0.929 . S
C302 C304 1.378 . S
C302 C306 1.350 . S
C303 C306 1.463 1_566 S
C303 C308 1.350 . S
C303 N311 1.427 . S
C304 H295 0.930 . S
C304 C302 1.378 . S
C304 C305 1.367 . S
C305 C304 1.367 . S
C305 C307 1.433 . S
C306 C302 1.350 . S
C306 C303 1.463 1_544 S
C306 N310 1.427 . S
C307 H297 0.929 . S
C307 C305 1.433 . S
C307 N310 1.384 . S
C308 H299 0.929 . S
C308 C300 1.378 . S
C308 C303 1.350 . S
C309 H296 0.929 . S
C309 C301 1.433 . S
C309 N311 1.384 . S
N310 C306 1.427 . S
N310 C307 1.384 . S
N311 C303 1.427 . S
N311 C309 1.384 . S
H312 C318 0.930 . S
H313 C322 0.930 . S
H314 C327 0.929 . S
H315 C325 0.929 . S
H316 C320 0.929 . S
H317 C326 0.929 . S
C318 H312 0.930 . S
C318 C319 1.367 . S
C318 C326 1.378 . S
C319 C318 1.367 . S
C319 C327 1.433 . S
C320 H316 0.929 . S
C320 C322 1.378 . S
C320 C324 1.350 . S
C321 C324 1.463 1_456 S
C321 C326 1.350 . S
C321 N329 1.427 1_455 S
C322 H313 0.930 . S
C322 C320 1.378 . S
C322 C323 1.367 . S
C323 C322 1.367 . S
C323 C325 1.433 . S
C324 C320 1.350 . S
C324 C321 1.463 1_654 S
C324 N328 1.427 1_655 S
C325 H315 0.929 . S
C325 C323 1.433 . S
C325 N328 1.384 1_655 S
C326 H317 0.929 . S
C326 C318 1.378 . S
C326 C321 1.350 . S
C327 H314 0.929 . S
C327 C319 1.433 . S
C327 N329 1.384 1_455 S
N328 C324 1.427 1_455 S
N328 C325 1.384 1_455 S
N329 C321 1.427 1_655 S
N329 C327 1.384 1_655 S
C121 C27 0.746 . S
C125 C6 0.746 . S
C139 C44 0.741 . S
C143 C65 0.741 1_556 S
C157 C82 0.763 1_554 S
C161 C103 0.763 . S
C175 C105 2.422 . S
C179 C8 2.422 . S
C193 C94 1.322 . S
C197 C14 1.320 . S
C211 C77 1.587 . S
C215 C30 1.586 . S
C229 C46 2.428 . S
C233 C29 2.428 . S
C247 C52 1.310 . S
C251 C18 1.313 . S
C265 C68 1.590 . S
C269 C1 1.591 . S
C283 C67 2.423 . S
C287 C84 2.423 . S
C301 C90 1.315 . S
C305 C56 1.315 . S
C319 C106 1.586 . S
C323 C39 1.586 . S
