# Generated by pormake.
# Topology unv, (4)-cn, num edge types: 1
# Building blocks:
#     Node 0, Type 0, BuildingBlock: QUQFOY_clean_sbu_1, # of connection points: 4
#     Node 1, Type 0, BuildingBlock: QUQFOY_clean_sbu_1, # of connection points: 4
#     Node 2, Type 0, BuildingBlock: QUQFOY_clean_sbu_1, # of connection points: 4
#     Node 3, Type 0, BuildingBlock: QUQFOY_clean_sbu_1, # of connection points: 4
#     Node 4, Type 0, BuildingBlock: QUQFOY_clean_sbu_1, # of connection points: 4
#     Node 5, Type 0, BuildingBlock: QUQFOY_clean_sbu_1, # of connection points: 4
#     Node 6, Type 0, BuildingBlock: QUQFOY_clean_sbu_1, # of connection points: 4
#     Node 7, Type 0, BuildingBlock: QUQFOY_clean_sbu_1, # of connection points: 4
#     Node 8, Type 0, BuildingBlock: QUQFOY_clean_sbu_1, # of connection points: 4
#     Node 9, Type 0, BuildingBlock: QUQFOY_clean_sbu_1, # of connection points: 4
#     Node 10, Type 0, BuildingBlock: QUQFOY_clean_sbu_1, # of connection points: 4
#     Node 11, Type 0, BuildingBlock: QUQFOY_clean_sbu_1, # of connection points: 4
#     Node 12, Type 0, BuildingBlock: QUQFOY_clean_sbu_1, # of connection points: 4
#     Node 13, Type 0, BuildingBlock: QUQFOY_clean_sbu_1, # of connection points: 4
#     Node 14, Type 0, BuildingBlock: QUQFOY_clean_sbu_1, # of connection points: 4
#     Node 15, Type 0, BuildingBlock: QUQFOY_clean_sbu_1, # of connection points: 4
#     Node 16, Type 0, BuildingBlock: QUQFOY_clean_sbu_1, # of connection points: 4
#     Node 17, Type 0, BuildingBlock: QUQFOY_clean_sbu_1, # of connection points: 4
#     Node 18, Type 0, BuildingBlock: QUQFOY_clean_sbu_1, # of connection points: 4
#     Node 19, Type 0, BuildingBlock: QUQFOY_clean_sbu_1, # of connection points: 4
#     Node 20, Type 0, BuildingBlock: QUQFOY_clean_sbu_1, # of connection points: 4
#     Node 21, Type 0, BuildingBlock: QUQFOY_clean_sbu_1, # of connection points: 4
#     Node 22, Type 0, BuildingBlock: QUQFOY_clean_sbu_1, # of connection points: 4
#     Node 23, Type 0, BuildingBlock: QUQFOY_clean_sbu_1, # of connection points: 4
#     Edge 24, Type (0, 0), BuildingBlock: UVAHIK_clean_linker_0, # of connection points: 2
#     Edge 25, Type (0, 0), BuildingBlock: UVAHIK_clean_linker_0, # of connection points: 2
#     Edge 26, Type (0, 0), BuildingBlock: UVAHIK_clean_linker_0, # of connection points: 2
#     Edge 27, Type (0, 0), BuildingBlock: UVAHIK_clean_linker_0, # of connection points: 2
#     Edge 28, Type (0, 0), BuildingBlock: UVAHIK_clean_linker_0, # of connection points: 2
#     Edge 29, Type (0, 0), BuildingBlock: UVAHIK_clean_linker_0, # of connection points: 2
#     Edge 30, Type (0, 0), BuildingBlock: UVAHIK_clean_linker_0, # of connection points: 2
#     Edge 31, Type (0, 0), BuildingBlock: UVAHIK_clean_linker_0, # of connection points: 2
#     Edge 32, Type (0, 0), BuildingBlock: UVAHIK_clean_linker_0, # of connection points: 2
#     Edge 33, Type (0, 0), BuildingBlock: UVAHIK_clean_linker_0, # of connection points: 2
#     Edge 34, Type (0, 0), BuildingBlock: UVAHIK_clean_linker_0, # of connection points: 2
#     Edge 35, Type (0, 0), BuildingBlock: UVAHIK_clean_linker_0, # of connection points: 2
#     Edge 36, Type (0, 0), BuildingBlock: UVAHIK_clean_linker_0, # of connection points: 2
#     Edge 37, Type (0, 0), BuildingBlock: UVAHIK_clean_linker_0, # of connection points: 2
#     Edge 38, Type (0, 0), BuildingBlock: UVAHIK_clean_linker_0, # of connection points: 2
#     Edge 39, Type (0, 0), BuildingBlock: UVAHIK_clean_linker_0, # of connection points: 2
#     Edge 40, Type (0, 0), BuildingBlock: UVAHIK_clean_linker_0, # of connection points: 2
#     Edge 41, Type (0, 0), BuildingBlock: UVAHIK_clean_linker_0, # of connection points: 2
#     Edge 42, Type (0, 0), BuildingBlock: UVAHIK_clean_linker_0, # of connection points: 2
#     Edge 43, Type (0, 0), BuildingBlock: UVAHIK_clean_linker_0, # of connection points: 2
#     Edge 44, Type (0, 0), BuildingBlock: UVAHIK_clean_linker_0, # of connection points: 2
#     Edge 45, Type (0, 0), BuildingBlock: UVAHIK_clean_linker_0, # of connection points: 2
#     Edge 46, Type (0, 0), BuildingBlock: UVAHIK_clean_linker_0, # of connection points: 2
#     Edge 47, Type (0, 0), BuildingBlock: UVAHIK_clean_linker_0, # of connection points: 2
#     Edge 48, Type (0, 0), BuildingBlock: UVAHIK_clean_linker_0, # of connection points: 2
#     Edge 49, Type (0, 0), BuildingBlock: UVAHIK_clean_linker_0, # of connection points: 2
#     Edge 50, Type (0, 0), BuildingBlock: UVAHIK_clean_linker_0, # of connection points: 2
#     Edge 51, Type (0, 0), BuildingBlock: UVAHIK_clean_linker_0, # of connection points: 2
#     Edge 52, Type (0, 0), BuildingBlock: UVAHIK_clean_linker_0, # of connection points: 2
#     Edge 53, Type (0, 0), BuildingBlock: UVAHIK_clean_linker_0, # of connection points: 2
#     Edge 54, Type (0, 0), BuildingBlock: UVAHIK_clean_linker_0, # of connection points: 2
#     Edge 55, Type (0, 0), BuildingBlock: UVAHIK_clean_linker_0, # of connection points: 2
#     Edge 56, Type (0, 0), BuildingBlock: UVAHIK_clean_linker_0, # of connection points: 2
#     Edge 57, Type (0, 0), BuildingBlock: UVAHIK_clean_linker_0, # of connection points: 2
#     Edge 58, Type (0, 0), BuildingBlock: UVAHIK_clean_linker_0, # of connection points: 2
#     Edge 59, Type (0, 0), BuildingBlock: UVAHIK_clean_linker_0, # of connection points: 2
#     Edge 60, Type (0, 0), BuildingBlock: UVAHIK_clean_linker_0, # of connection points: 2
#     Edge 61, Type (0, 0), BuildingBlock: UVAHIK_clean_linker_0, # of connection points: 2
#     Edge 62, Type (0, 0), BuildingBlock: UVAHIK_clean_linker_0, # of connection points: 2
#     Edge 63, Type (0, 0), BuildingBlock: UVAHIK_clean_linker_0, # of connection points: 2
#     Edge 64, Type (0, 0), BuildingBlock: UVAHIK_clean_linker_0, # of connection points: 2
#     Edge 65, Type (0, 0), BuildingBlock: UVAHIK_clean_linker_0, # of connection points: 2
#     Edge 66, Type (0, 0), BuildingBlock: UVAHIK_clean_linker_0, # of connection points: 2
#     Edge 67, Type (0, 0), BuildingBlock: UVAHIK_clean_linker_0, # of connection points: 2
#     Edge 68, Type (0, 0), BuildingBlock: UVAHIK_clean_linker_0, # of connection points: 2
#     Edge 69, Type (0, 0), BuildingBlock: UVAHIK_clean_linker_0, # of connection points: 2
#     Edge 70, Type (0, 0), BuildingBlock: UVAHIK_clean_linker_0, # of connection points: 2
#     Edge 71, Type (0, 0), BuildingBlock: UVAHIK_clean_linker_0, # of connection points: 2
# Relax obj value: 0.143
# Max RMSD: 0.146
# Mean RMSD: 0.119
data_MOF--net-unv--node1-QUQFOY_clean_sbu_1--edge1-UVAHIK_clean_linker_0
_symmetry_space_group_name_H-M    P1
_symmetry_Int_Tables_number       1
_symmetry_cell_setting            triclinic
loop_
_symmetry_equiv_pos_as_xyz
'x, y, z'
_cell_length_a     65.825738
_cell_length_b     65.893368
_cell_length_c     65.951225
_cell_angle_alpha  89.975275
_cell_angle_beta   89.949154
_cell_angle_gamma 89.950153
loop_
_atom_site_label
_atom_site_type_symbol
_atom_site_fract_x
_atom_site_fract_y
_atom_site_fract_z
_atom_type_partial_charge
O0 O 0.01611 0.10881 0.41698 0.0
Cd1 Cd 0.9925 0.10953 0.39648 0.0
Cd2 Cd 0.01579 0.08138 0.3764 0.0
O3 O 0.03692 0.09173 0.39708 0.0
O4 O 0.97866 0.13617 0.39926 0.0
O5 O 0.99572 0.12699 0.37175 0.0
C6 C 0.98539 0.14061 0.38141 0.0
C7 C 0.02776 0.06906 0.34528 0.0
C8 C 0.0336 0.10146 0.41339 0.0
C9 C 0.97507 0.06847 0.39455 0.0
O10 O 0.99209 0.06374 0.38677 0.0
O11 O 0.97108 0.08685 0.39877 0.0
O12 O 0.032 0.06023 0.36213 0.0
O13 O 0.01742 0.0857 0.34603 0.0
O14 O 0.95457 0.39088 0.40767 0.0
Cd15 Cd 0.97826 0.38598 0.38769 0.0
Cd16 Cd 0.96212 0.42323 0.37048 0.0
O17 O 0.94187 0.41875 0.39392 0.0
O18 O 0.98777 0.35798 0.39373 0.0
O19 O 0.97414 0.36662 0.36433 0.0
C20 C 0.98197 0.35279 0.37582 0.0
C21 C 0.95018 0.44098 0.34205 0.0
C22 C 0.94147 0.40506 0.4075 0.0
C23 C 0.00609 0.42195 0.38546 0.0
O24 O 0.99136 0.43149 0.3775 0.0
O25 O 0.00416 0.4035 0.3907 0.0
O26 O 0.95227 0.44956 0.35942 0.0
O27 O 0.9541 0.42182 0.34085 0.0
O28 O 0.00977 0.89744 0.10227 0.0
Cd29 Cd 0.98745 0.89599 0.12412 0.0
Cd30 Cd 0.00881 0.92732 0.14149 0.0
O31 O 0.02948 0.91802 0.11977 0.0
O32 O 0.97653 0.86793 0.12418 0.0
O33 O 0.99396 0.88101 0.1498 0.0
C34 C 0.98477 0.86563 0.1418 0.0
C35 C 0.022 0.94213 0.17096 0.0
C36 C 0.02649 0.90682 0.10437 0.0
C37 C 0.96588 0.9351 0.1254 0.0
O38 O 0.98256 0.94184 0.13235 0.0
O39 O 0.96378 0.91631 0.1217 0.0
O40 O 0.02372 0.95065 0.15352 0.0
O41 O 0.01338 0.92456 0.17174 0.0
O42 O 0.98579 0.62632 0.11189 0.0
Cd43 Cd 0.00812 0.62712 0.13359 0.0
Cd44 Cd 0.98706 0.59192 0.14877 0.0
O45 O 0.96908 0.60005 0.12433 0.0
O46 O 0.01957 0.65495 0.13229 0.0
O47 O 0.0025 0.64334 0.15882 0.0
C48 C 0.01174 0.6582 0.14993 0.0
C49 C 0.9705 0.57341 0.17436 0.0
C50 C 0.97102 0.61397 0.11111 0.0
C51 C 0.03181 0.5887 0.13601 0.0
O52 O 0.01593 0.58089 0.14366 0.0
O53 O 0.0321 0.60713 0.13041 0.0
O54 O 0.97359 0.56603 0.1566 0.0
O55 O 0.97631 0.59182 0.17764 0.0
O56 O 0.41469 0.02464 0.10829 0.0
Cd57 Cd 0.39287 0.00223 0.10921 0.0
Cd58 Cd 0.37683 0.02462 0.077 0.0
O59 O 0.39904 0.04463 0.08646 0.0
O60 O 0.3952 0.98948 0.13642 0.0
O61 O 0.36806 0.0067 0.12652 0.0
C62 C 0.37746 0.99671 0.14056 0.0
C63 C 0.34724 0.03773 0.06219 0.0
C64 C 0.41377 0.0412 0.09845 0.0
C65 C 0.39236 0.9816 0.0693 0.0
O66 O 0.38593 0.99846 0.06252 0.0
O67 O 0.39539 0.97918 0.08817 0.0
O68 O 0.36474 0.03969 0.05375 0.0
O69 O 0.34653 0.02913 0.07977 0.0
O70 O 0.58516 0.49583 0.10394 0.0
Cd71 Cd 0.608 0.51687 0.10718 0.0
Cd72 Cd 0.62601 0.49418 0.0777 0.0
O73 O 0.6038 0.47389 0.08681 0.0
O74 O 0.60704 0.52723 0.13542 0.0
O75 O 0.63242 0.50863 0.12336 0.0
C76 C 0.62401 0.51787 0.13851 0.0
C77 C 0.65604 0.48124 0.06355 0.0
C78 C 0.58744 0.4784 0.09605 0.0
C79 C 0.61125 0.53737 0.06817 0.0
O80 O 0.61726 0.52003 0.06224 0.0
O81 O 0.6078 0.54056 0.08684 0.0
O82 O 0.63875 0.47929 0.05472 0.0
O83 O 0.65625 0.48957 0.08126 0.0
O84 O 0.40825 0.97029 0.3833 0.0
Cd85 Cd 0.38469 0.99086 0.38346 0.0
Cd86 Cd 0.3704 0.96486 0.41378 0.0
O87 O 0.39408 0.94717 0.40296 0.0
O88 O 0.38667 0.0055 0.35718 0.0
O89 O 0.36085 0.98552 0.36513 0.0
C90 C 0.36982 0.99701 0.35199 0.0
C91 C 0.34135 0.94949 0.42742 0.0
C92 C 0.40863 0.95288 0.3916 0.0
C93 C 0.38241 0.00834 0.42465 0.0
O94 O 0.37758 0.99049 0.4301 0.0
O95 O 0.3851 0.01252 0.40605 0.0
O96 O 0.3589 0.9475 0.43574 0.0
O97 O 0.34037 0.9592 0.41044 0.0
O98 O 0.58932 0.50412 0.38014 0.0
Cd99 Cd 0.61266 0.48343 0.37831 0.0
Cd100 Cd 0.63052 0.50839 0.40462 0.0
O101 O 0.60671 0.52744 0.39662 0.0
O102 O 0.61189 0.47102 0.35086 0.0
O103 O 0.63659 0.49135 0.36132 0.0
C104 C 0.62838 0.48088 0.3469 0.0
C105 C 0.66322 0.52044 0.41142 0.0
C106 C 0.59056 0.52185 0.38762 0.0
C107 C 0.61803 0.46632 0.41894 0.0
O108 O 0.62381 0.4842 0.42321 0.0
O109 O 0.61366 0.4616 0.40078 0.0
O110 O 0.64798 0.52509 0.42277 0.0
O111 O 0.65966 0.51015 0.39515 0.0
O112 O 0.10859 0.41417 0.02783 0.0
Cd113 Cd 0.10924 0.39341 0.00444 0.0
Cd114 Cd 0.07603 0.37704 0.02578 0.0
O115 O 0.08472 0.39927 0.04606 0.0
O116 O 0.13655 0.39606 0.99181 0.0
O117 O 0.12635 0.36826 0.00767 0.0
C118 C 0.1405 0.37797 0.99814 0.0
C119 C 0.06065 0.34751 0.0384 0.0
C120 C 0.0976 0.41345 0.04367 0.0
C121 C 0.06941 0.39385 0.98315 0.0
O122 O 0.0623 0.38644 0.99944 0.0
O123 O 0.08832 0.39734 0.98139 0.0
O124 O 0.05221 0.36502 0.04008 0.0
O125 O 0.07852 0.34672 0.03034 0.0
O126 O 0.10826 0.57838 0.49511 0.0
Cd127 Cd 0.10867 0.60168 0.51587 0.0
Cd128 Cd 0.07991 0.6176 0.49027 0.0
O129 O 0.0906 0.59461 0.47176 0.0
O130 O 0.13614 0.60198 0.5284 0.0
O131 O 0.1247 0.62644 0.50832 0.0
C132 C 0.13945 0.61872 0.51875 0.0
C133 C 0.06548 0.6467 0.47557 0.0
C134 C 0.10079 0.57918 0.47737 0.0
C135 C 0.06773 0.60368 0.53305 0.0
O136 O 0.06307 0.60923 0.51521 0.0
O137 O 0.08622 0.60088 0.53783 0.0
O138 O 0.05739 0.62906 0.47365 0.0
O139 O 0.08275 0.64778 0.48477 0.0
O140 O 0.89654 0.89023 0.50218 0.0
Cd141 Cd 0.89442 0.86647 0.52232 0.0
Cd142 Cd 0.92613 0.8513 0.49837 0.0
O143 O 0.9176 0.8757 0.48053 0.0
O144 O 0.86642 0.86765 0.53364 0.0
O145 O 0.87733 0.84262 0.51401 0.0
C146 C 0.8626 0.85112 0.52386 0.0
C147 C 0.94157 0.82324 0.48273 0.0
C148 C 0.90622 0.8905 0.48551 0.0
C149 C 0.93384 0.86266 0.54297 0.0
O150 O 0.94018 0.85736 0.52557 0.0
O151 O 0.91511 0.86631 0.54588 0.0
O152 O 0.95023 0.84069 0.48343 0.0
O153 O 0.92337 0.82183 0.4899 0.0
O154 O 0.38632 0.59464 0.5143 0.0
Cd155 Cd 0.3833 0.61612 0.49179 0.0
Cd156 Cd 0.41755 0.63315 0.51251 0.0
O157 O 0.4098 0.61023 0.53243 0.0
O158 O 0.35541 0.61196 0.48091 0.0
O159 O 0.36458 0.63965 0.49749 0.0
C160 C 0.35047 0.6292 0.48875 0.0
C161 C 0.43411 0.66178 0.52575 0.0
C162 C 0.39754 0.59554 0.52993 0.0
C163 C 0.42221 0.61814 0.46873 0.0
O164 O 0.42984 0.62489 0.48506 0.0
O165 O 0.40332 0.61431 0.46755 0.0
O166 O 0.44226 0.64406 0.52619 0.0
O167 O 0.41597 0.66331 0.51851 0.0
O168 O 0.50024 0.61535 0.8934 0.0
Cd169 Cd 0.48087 0.61806 0.86913 0.0
Cd170 Cd 0.50586 0.58723 0.85337 0.0
O171 O 0.52299 0.59595 0.87826 0.0
O172 O 0.46897 0.64567 0.87138 0.0
O173 O 0.48974 0.63655 0.84655 0.0
C174 C 0.47936 0.65061 0.85553 0.0
C175 C 0.52262 0.57272 0.82554 0.0
C176 C 0.51735 0.60643 0.89346 0.0
C177 C 0.46088 0.57866 0.86275 0.0
O178 O 0.47857 0.57259 0.85799 0.0
O179 O 0.45764 0.59714 0.86716 0.0
O180 O 0.52241 0.56409 0.84302 0.0
O181 O 0.51427 0.59039 0.82397 0.0
O182 O 0.50687 0.8943 0.90141 0.0
Cd183 Cd 0.52713 0.89164 0.87776 0.0
Cd184 Cd 0.50354 0.92223 0.86153 0.0
O185 O 0.48506 0.91418 0.88558 0.0
O186 O 0.53818 0.86365 0.87939 0.0
O187 O 0.51864 0.8743 0.85419 0.0
C188 C 0.52832 0.85964 0.86296 0.0
C189 C 0.48852 0.93596 0.83238 0.0
C190 C 0.48994 0.90355 0.90093 0.0
C191 C 0.54787 0.9308 0.87312 0.0
O192 O 0.53041 0.93697 0.86772 0.0
O193 O 0.55083 0.91216 0.87708 0.0
O194 O 0.4883 0.94536 0.84945 0.0
O195 O 0.49628 0.91796 0.832 0.0
O196 O 0.5096 0.38559 0.59544 0.0
Cd197 Cd 0.48825 0.38216 0.61785 0.0
Cd198 Cd 0.50931 0.41532 0.63551 0.0
O199 O 0.52876 0.40754 0.61194 0.0
O200 O 0.47804 0.3539 0.6156 0.0
O201 O 0.49576 0.36502 0.6419 0.0
C202 C 0.48685 0.35017 0.63268 0.0
C203 C 0.52383 0.43211 0.66335 0.0
C204 C 0.52564 0.3962 0.59664 0.0
C205 C 0.46484 0.42013 0.62191 0.0
O206 O 0.48119 0.42759 0.62888 0.0
O207 O 0.4638 0.4016 0.6168 0.0
O208 O 0.52336 0.44014 0.64561 0.0
O209 O 0.51677 0.41395 0.66533 0.0
O210 O 0.49957 0.10625 0.58663 0.0
Cd211 Cd 0.52274 0.11081 0.60689 0.0
Cd212 Cd 0.50476 0.07747 0.62776 0.0
O213 O 0.48376 0.0831 0.605 0.0
O214 O 0.53127 0.13962 0.60482 0.0
O215 O 0.51653 0.12661 0.63213 0.0
C216 C 0.52394 0.14222 0.6228 0.0
C217 C 0.49199 0.05942 0.6558 0.0
C218 C 0.48462 0.09441 0.58938 0.0
C219 C 0.5484 0.07437 0.61074 0.0
O220 O 0.53337 0.06689 0.62024 0.0
O221 O 0.54773 0.0923 0.60375 0.0
O222 O 0.49359 0.05138 0.63815 0.0
O223 O 0.49702 0.07825 0.65763 0.0
O224 O 0.88427 0.49797 0.61091 0.0
Cd225 Cd 0.86361 0.47789 0.62434 0.0
Cd226 Cd 0.84838 0.49441 0.57294 0.0
O227 O 0.87536 0.50904 0.57991 0.0
O228 O 0.87195 0.4725 0.6527 0.0
O229 O 0.84389 0.48929 0.64444 0.0
C230 C 0.85594 0.48238 0.65832 0.0
C231 C 0.82866 0.50285 0.5451 0.0
C232 C 0.88754 0.50868 0.59503 0.0
C233 C 0.84756 0.45571 0.59345 0.0
O234 O 0.83941 0.47314 0.59324 0.0
O235 O 0.85746 0.45123 0.60923 0.0
O236 O 0.84274 0.48921 0.5437 0.0
O237 O 0.82613 0.51188 0.56235 0.0
O238 O 0.11054 0.97398 0.61238 0.0
Cd239 Cd 0.13392 0.99463 0.61352 0.0
Cd240 Cd 0.14793 0.97 0.58045 0.0
O241 O 0.12397 0.95228 0.59065 0.0
O242 O 0.1297 0.00855 0.63992 0.0
O243 O 0.15659 0.98947 0.63349 0.0
C244 C 0.14632 1.00034 0.64619 0.0
C245 C 0.17566 0.95407 0.56474 0.0
C246 C 0.10982 0.95725 0.60285 0.0
C247 C 0.13682 0.0147 0.5733 0.0
O248 O 0.14161 0.9973 0.56649 0.0
O249 O 0.13379 0.01744 0.59212 0.0
O250 O 0.15784 0.95394 0.55678 0.0
O251 O 0.17768 0.96238 0.58235 0.0
O252 O 0.90329 0.5164 0.90056 0.0
Cd253 Cd 0.88009 0.53699 0.89773 0.0
Cd254 Cd 0.86352 0.51524 0.93036 0.0
O255 O 0.88836 0.49707 0.92347 0.0
O256 O 0.88171 0.54751 0.86963 0.0
O257 O 0.85607 0.52883 0.88088 0.0
C258 C 0.86489 0.53814 0.86602 0.0
C259 C 0.83552 0.49929 0.94554 0.0
C260 C 0.90318 0.50061 0.91158 0.0
C261 C 0.87497 0.56018 0.93551 0.0
O262 O 0.86823 0.54364 0.94275 0.0
O263 O 0.88061 0.56136 0.91715 0.0
O264 O 0.85254 0.50137 0.95485 0.0
O265 O 0.8345 0.50553 0.92701 0.0
O266 O 0.10409 0.01414 0.89426 0.0
Cd267 Cd 0.12699 0.99294 0.89284 0.0
Cd268 Cd 0.14468 0.01864 0.92066 0.0
O269 O 0.122 0.03766 0.90992 0.0
O270 O 0.12362 0.97878 0.86651 0.0
O271 O 0.15021 0.99807 0.87368 0.0
C272 C 0.14043 0.98704 0.86074 0.0
C273 C 0.17467 0.03327 0.933 0.0
C274 C 0.10588 0.03215 0.90087 0.0
C275 C 0.13074 0.97623 0.93382 0.0
O276 O 0.13657 0.99404 0.93835 0.0
O277 O 0.12714 0.97151 0.91551 0.0
O278 O 0.15744 0.03615 0.94172 0.0
O279 O 0.17486 0.02287 0.91641 0.0
O280 O 0.61967 0.89329 0.50708 0.0
Cd281 Cd 0.62158 0.8696 0.48679 0.0
Cd282 Cd 0.5885 0.85518 0.50938 0.0
O283 O 0.5968 0.8795 0.52735 0.0
O284 O 0.64978 0.87031 0.47594 0.0
O285 O 0.63816 0.84539 0.49528 0.0
C286 C 0.65317 0.85365 0.48568 0.0
C287 C 0.57305 0.82694 0.52455 0.0
C288 C 0.60901 0.89385 0.52314 0.0
C289 C 0.5825 0.86641 0.46475 0.0
O290 O 0.57524 0.86136 0.48187 0.0
O291 O 0.60141 0.86975 0.46269 0.0
O292 O 0.56456 0.84451 0.52457 0.0
O293 O 0.59102 0.82545 0.51684 0.0
O294 O 0.62021 0.11022 0.97627 0.0
Cd295 Cd 0.62028 0.13445 0.996 0.0
Cd296 Cd 0.5872 0.14616 0.97142 0.0
O297 O 0.59848 0.12257 0.95398 0.0
O298 O 0.64743 0.13347 0.00916 0.0
O299 O 0.63782 0.15851 0.98896 0.0
C300 C 0.6518 0.15015 0.9999 0.0
C301 C 0.57058 0.17328 0.95539 0.0
C302 C 0.61096 0.10887 0.95943 0.0
C303 C 0.58002 0.13557 0.01607 0.0
O304 O 0.57312 0.1392 0.99845 0.0
O305 O 0.59903 0.13413 0.01904 0.0
O306 O 0.5633 0.15518 0.95514 0.0
O307 O 0.58807 0.17594 0.96384 0.0
O308 O 0.38407 0.40243 0.96505 0.0
Cd309 Cd 0.38424 0.37914 0.98607 0.0
Cd310 Cd 0.41365 0.36519 0.9602 0.0
O311 O 0.40031 0.38593 0.94091 0.0
O312 O 0.35829 0.38204 0.00123 0.0
O313 O 0.36513 0.35574 0.9815 0.0
C314 C 0.35245 0.36523 0.9931 0.0
C315 C 0.4283 0.33543 0.94734 0.0
C316 C 0.39028 0.40132 0.94683 0.0
C317 C 0.4258 0.3799 0.00204 0.0
O318 O 0.43076 0.37654 0.98373 0.0
O319 O 0.40726 0.37937 0.00734 0.0
O320 O 0.4354 0.35307 0.94296 0.0
O321 O 0.41193 0.3346 0.95812 0.0
O322 O 0.89114 0.10664 0.01369 0.0
Cd323 Cd 0.89339 0.13067 0.99368 0.0
Cd324 Cd 0.92026 0.14354 0.02117 0.0
O325 O 0.9066 0.12184 0.03909 0.0
O326 O 0.86747 0.13125 0.97826 0.0
O327 O 0.8766 0.15538 0.99979 0.0
C328 C 0.86311 0.14787 0.98767 0.0
C329 C 0.93185 0.17409 0.03494 0.0
C330 C 0.89657 0.10688 0.03218 0.0
C331 C 0.93576 0.12995 0.9801 0.0
O332 O 0.93938 0.13327 0.99872 0.0
O333 O 0.91759 0.13023 0.97361 0.0
O334 O 0.93985 0.15695 0.03984 0.0
O335 O 0.91626 0.17387 0.02307 0.0
C336 C 0.11823 0.046 0.56231 0.0
C337 C 0.13322 0.03127 0.55866 0.0
C338 C 0.1121 0.05912 0.54677 0.0
C339 C 0.11031 0.05875 0.49105 0.0
H340 H 0.08638 0.11213 0.49768 0.0
C341 C 0.06934 0.09538 0.42467 0.0
C342 C 0.04954 0.10194 0.42921 0.0
C343 C 0.08336 0.09196 0.44017 0.0
C344 C 0.09307 0.09725 0.49561 0.0
H345 H 0.15502 0.02003 0.53674 0.0
H346 H 0.14501 0.04341 0.50997 0.0
H347 H 0.10475 0.09652 0.52595 0.0
H348 H 0.02947 0.11173 0.45342 0.0
H349 H 0.05382 0.10537 0.48052 0.0
H350 H 0.09824 0.05906 0.46108 0.0
C351 C 0.13734 0.04436 0.52447 0.0
C352 C 0.10355 0.08829 0.5118 0.0
C353 C 0.14318 0.03103 0.53984 0.0
C354 C 0.04458 0.10658 0.44943 0.0
C355 C 0.05859 0.10303 0.46497 0.0
C356 C 0.09998 0.0677 0.47494 0.0
C357 C 0.12107 0.0579 0.52741 0.0
C358 C 0.112 0.06876 0.5098 0.0
C359 C 0.07784 0.09487 0.46056 0.0
C360 C 0.09094 0.08689 0.47709 0.0
H361 H 0.11029 0.04647 0.5767 0.0
H362 H 0.09947 0.06927 0.54958 0.0
H363 H 0.11611 0.04351 0.48902 0.0
H364 H 0.07376 0.09196 0.40922 0.0
H365 H 0.09824 0.08612 0.43625 0.0
C366 C 0.91762 0.42538 0.42886 0.0
C367 C 0.92649 0.40657 0.42416 0.0
C368 C 0.90519 0.42748 0.44589 0.0
C369 C 0.89478 0.40246 0.49523 0.0
H370 H 0.85482 0.44552 0.49904 0.0
C371 C 0.83922 0.44565 0.55788 0.0
C372 C 0.85286 0.44558 0.57421 0.0
C373 C 0.84496 0.43755 0.53911 0.0
C374 C 0.86561 0.43313 0.49825 0.0
H375 H 0.92831 0.37492 0.43288 0.0
H376 H 0.90581 0.3783 0.46208 0.0
H377 H 0.86934 0.43703 0.46632 0.0
H378 H 0.88299 0.43658 0.58396 0.0
H379 H 0.89328 0.42322 0.55132 0.0
H380 H 0.89053 0.39806 0.52702 0.0
C381 C 0.90906 0.39167 0.4531 0.0
C382 C 0.87425 0.42849 0.47945 0.0
C383 C 0.92186 0.38966 0.43627 0.0
C384 C 0.87208 0.43672 0.57167 0.0
C385 C 0.87793 0.42891 0.5529 0.0
C386 C 0.88584 0.40682 0.51394 0.0
C387 C 0.90096 0.41073 0.45846 0.0
C388 C 0.88948 0.41357 0.47779 0.0
C389 C 0.86456 0.42941 0.53626 0.0
C390 C 0.87167 0.4227 0.51586 0.0
H391 H 0.921 0.43874 0.41991 0.0
H392 H 0.89965 0.44249 0.4496 0.0
H393 H 0.90651 0.39095 0.49473 0.0
H394 H 0.82424 0.45226 0.55955 0.0
H395 H 0.8341 0.43791 0.52679 0.0
C396 C 0.0369 0.89925 0.06855 0.0
C397 C 0.04191 0.90632 0.08803 0.0
C398 C 0.0504 0.90186 0.05236 0.0
C399 C 0.09053 0.93715 0.03738 0.0
H400 H 0.09673 0.9017 0.99087 0.0
C401 C 0.13589 0.96436 0.9693 0.0
C402 C 0.12643 0.9618 0.95041 0.0
C403 C 0.12935 0.95336 0.98615 0.0
C404 C 0.09511 0.91176 0.00375 0.0
H405 H 0.06572 0.92002 0.10615 0.0
H406 H 0.08935 0.92421 0.07807 0.0
H407 H 0.07819 0.88975 0.0208 0.0
H408 H 0.10366 0.94472 0.93397 0.0
H409 H 0.09173 0.92591 0.96359 0.0
H410 H 0.1066 0.95942 0.02035 0.0
C411 C 0.07478 0.91717 0.07515 0.0
C412 C 0.08452 0.90492 0.02087 0.0
C413 C 0.06126 0.9147 0.09127 0.0
C414 C 0.11123 0.94699 0.94837 0.0
C415 C 0.10445 0.93616 0.96535 0.0
C416 C 0.10101 0.94397 0.02035 0.0
C417 C 0.06921 0.91149 0.05538 0.0
C418 C 0.08195 0.91764 0.03781 0.0
C419 C 0.11293 0.93981 0.98459 0.0
C420 C 0.1033 0.93148 0.00323 0.0
H421 H 0.02212 0.89268 0.06555 0.0
H422 H 0.0456 0.89741 0.03731 0.0
H423 H 0.08843 0.94756 0.04992 0.0
H424 H 0.14788 0.97545 0.97125 0.0
H425 H 0.13662 0.95612 0.00061 0.0
C426 C 0.95536 0.63244 0.08169 0.0
C427 C 0.95648 0.61509 0.09407 0.0
C428 C 0.94245 0.63284 0.06484 0.0
C429 C 0.90029 0.60378 0.04009 0.0
H430 H 0.92179 0.6277 0.99089 0.0
C431 C 0.86495 0.58141 0.96503 0.0
C432 C 0.87895 0.57694 0.94965 0.0
C433 C 0.87068 0.59333 0.98156 0.0
C434 C 0.91556 0.62082 0.00444 0.0
H435 H 0.94479 0.58467 0.0986 0.0
H436 H 0.92312 0.58496 0.06899 0.0
H437 H 0.93922 0.63318 0.02282 0.0
H438 H 0.9094 0.58239 0.93859 0.0
H439 H 0.91995 0.602 0.96785 0.0
H440 H 0.87789 0.58973 0.02171 0.0
C441 C 0.93156 0.5986 0.07251 0.0
C442 C 0.92541 0.62427 0.02291 0.0
C443 C 0.94417 0.59834 0.08948 0.0
C444 C 0.89828 0.5858 0.95023 0.0
C445 C 0.90427 0.59715 0.96709 0.0
C446 C 0.89075 0.59994 0.02162 0.0
C447 C 0.93061 0.61578 0.05984 0.0
C448 C 0.91832 0.61515 0.04087 0.0
C449 C 0.89084 0.60027 0.98348 0.0
C450 C 0.89863 0.60781 0.00338 0.0
H451 H 0.96455 0.64567 0.08495 0.0
H452 H 0.94192 0.64645 0.05566 0.0
H453 H 0.89395 0.59705 0.05367 0.0
H454 H 0.84987 0.57483 0.96476 0.0
H455 H 0.8596 0.59606 0.99338 0.0
C456 C 0.44871 0.05092 0.11019 0.0
C457 C 0.43097 0.05569 0.0993 0.0
C458 C 0.46608 0.06301 0.10836 0.0
C459 C 0.48535 0.11213 0.08777 0.0
H460 H 0.53307 0.08034 0.07423 0.0
C461 C 0.54503 0.13762 0.03045 0.0
C462 C 0.56542 0.13173 0.03271 0.0
C463 C 0.53044 0.13166 0.04457 0.0
C464 C 0.52009 0.08955 0.07845 0.0
H465 H 0.41717 0.07771 0.07906 0.0
H466 H 0.44738 0.09855 0.0757 0.0
H467 H 0.50348 0.06363 0.08863 0.0
H468 H 0.58673 0.11594 0.05221 0.0
H469 H 0.56104 0.10533 0.07693 0.0
H470 H 0.50168 0.13788 0.07652 0.0
C471 C 0.44791 0.08559 0.08579 0.0
C472 C 0.50308 0.07995 0.08672 0.0
C473 C 0.43058 0.07352 0.0876 0.0
C474 C 0.57112 0.12068 0.05004 0.0
C475 C 0.55642 0.11453 0.06413 0.0
C476 C 0.50236 0.12172 0.07946 0.0
C477 C 0.46605 0.08014 0.09565 0.0
C478 C 0.48524 0.091 0.09077 0.0
C479 C 0.53584 0.11955 0.06126 0.0
C480 C 0.51963 0.1104 0.074 0.0
H481 H 0.4495 0.03738 0.11947 0.0
H482 H 0.47972 0.05857 0.11639 0.0
H483 H 0.47198 0.12113 0.0911 0.0
H484 H 0.54017 0.14627 0.01735 0.0
H485 H 0.51471 0.13561 0.04175 0.0
C486 C 0.55021 0.47153 0.09513 0.0
C487 C 0.57019 0.46411 0.09545 0.0
C488 C 0.534 0.45856 0.09084 0.0
C489 C 0.52506 0.40975 0.06446 0.0
H490 H 0.46902 0.42327 0.07647 0.0
C491 C 0.46165 0.38921 0.00979 0.0
C492 C 0.44188 0.38529 0.01678 0.0
C493 C 0.47683 0.39526 0.02315 0.0
C494 C 0.48456 0.41895 0.07323 0.0
H495 H 0.58879 0.43706 0.09351 0.0
H496 H 0.56045 0.41414 0.08728 0.0
H497 H 0.49617 0.43961 0.09535 0.0
H498 H 0.42267 0.38418 0.04349 0.0
H499 H 0.44949 0.39433 0.06709 0.0
H500 H 0.5135 0.38872 0.04278 0.0
C501 C 0.55726 0.43013 0.08929 0.0
C502 C 0.50021 0.42859 0.08386 0.0
C503 C 0.57353 0.44322 0.09305 0.0
C504 C 0.43775 0.38717 0.03762 0.0
C505 C 0.45309 0.39306 0.05111 0.0
C506 C 0.50946 0.39985 0.05418 0.0
C507 C 0.53736 0.43776 0.08722 0.0
C508 C 0.5207 0.42476 0.07901 0.0
C509 C 0.47282 0.39732 0.044 0.0
C510 C 0.48903 0.40498 0.05774 0.0
H511 H 0.54719 0.4876 0.09685 0.0
H512 H 0.51906 0.4652 0.08916 0.0
H513 H 0.54053 0.40634 0.06006 0.0
H514 H 0.46538 0.38808 0.99383 0.0
H515 H 0.49161 0.39891 0.01694 0.0
C516 C 0.57279 0.88329 0.43194 0.0
C517 C 0.56817 0.86983 0.44782 0.0
C518 C 0.55765 0.88929 0.41826 0.0
C519 C 0.50427 0.87866 0.40195 0.0
H520 H 0.50004 0.93727 0.39933 0.0
C521 C 0.42835 0.92133 0.39977 0.0
C522 C 0.42704 0.94004 0.3896 0.0
C523 C 0.44669 0.91065 0.40036 0.0
C524 C 0.50113 0.92086 0.39944 0.0
H525 H 0.54463 0.85077 0.46075 0.0
H526 H 0.51843 0.86119 0.43716 0.0
H527 H 0.53123 0.92177 0.41151 0.0
H528 H 0.44368 0.96147 0.37089 0.0
H529 H 0.47563 0.94276 0.37191 0.0
H530 H 0.47369 0.87786 0.39088 0.0
C531 C 0.53361 0.86717 0.4351 0.0
C532 C 0.51908 0.91196 0.40641 0.0
C533 C 0.54863 0.86132 0.44879 0.0
C534 C 0.44417 0.9472 0.37902 0.0
C535 C 0.46253 0.93652 0.37965 0.0
C536 C 0.48628 0.88757 0.39503 0.0
C537 C 0.53771 0.88176 0.42011 0.0
C538 C 0.52059 0.89078 0.40848 0.0
C539 C 0.46414 0.91841 0.3908 0.0
C540 C 0.48426 0.9088 0.39439 0.0
H541 H 0.58773 0.89007 0.4308 0.0
H542 H 0.56133 0.90041 0.40673 0.0
H543 H 0.50508 0.86227 0.40302 0.0
H544 H 0.41546 0.91533 0.40803 0.0
H545 H 0.44744 0.89685 0.40925 0.0
C546 C 0.45601 0.62101 0.45187 0.0
C547 C 0.43616 0.61316 0.45181 0.0
C548 C 0.47054 0.61383 0.43826 0.0
C549 C 0.48282 0.56721 0.41116 0.0
H550 H 0.5285 0.59907 0.39202 0.0
C551 C 0.55411 0.52855 0.37879 0.0
C552 C 0.57243 0.53525 0.38747 0.0
C553 C 0.53627 0.53986 0.38105 0.0
C554 C 0.51583 0.58997 0.39723 0.0
H555 H 0.41561 0.5926 0.43643 0.0
H556 H 0.44113 0.58002 0.41247 0.0
H557 H 0.49841 0.6162 0.40536 0.0
H558 H 0.58657 0.55971 0.40433 0.0
H559 H 0.55547 0.57933 0.4084 0.0
H560 H 0.50049 0.54099 0.40379 0.0
C561 C 0.44544 0.59161 0.42328 0.0
C562 C 0.49859 0.59977 0.40484 0.0
C563 C 0.43079 0.59891 0.43689 0.0
C564 C 0.57273 0.55407 0.39748 0.0
C565 C 0.55489 0.56539 0.39972 0.0
C566 C 0.50004 0.55742 0.40351 0.0
C567 C 0.46565 0.59856 0.42423 0.0
C568 C 0.48215 0.58849 0.41252 0.0
C569 C 0.53635 0.55815 0.39199 0.0
C570 C 0.51699 0.56867 0.39704 0.0
H571 H 0.46061 0.63212 0.46306 0.0
H572 H 0.48595 0.61941 0.43961 0.0
H573 H 0.47059 0.55802 0.41718 0.0
H574 H 0.55333 0.5142 0.37084 0.0
H575 H 0.5223 0.53401 0.37467 0.0
C576 C 0.11402 0.44471 0.05805 0.0
C577 C 0.09823 0.43036 0.05843 0.0
C578 C 0.11316 0.46201 0.07034 0.0
C579 C 0.10034 0.50352 0.08563 0.0
H580 H 0.06791 0.50379 0.13462 0.0
C581 C 0.0565 0.57412 0.1115 0.0
C582 C 0.04892 0.57511 0.13133 0.0
C583 C 0.06859 0.55773 0.10547 0.0
C584 C 0.07747 0.50422 0.12128 0.0
H585 H 0.06946 0.42264 0.07248 0.0
H586 H 0.06747 0.45289 0.09309 0.0
H587 H 0.07834 0.47189 0.12014 0.0
H588 H 0.04954 0.56116 0.161 0.0
H589 H 0.07205 0.53351 0.15111 0.0
H590 H 0.10014 0.5359 0.08723 0.0
C591 C 0.08092 0.4507 0.08389 0.0
C592 C 0.08311 0.48572 0.11266 0.0
C593 C 0.08196 0.4333 0.0719 0.0
C594 C 0.05516 0.56059 0.14556 0.0
C595 C 0.06781 0.54458 0.13974 0.0
C596 C 0.09513 0.52208 0.09455 0.0
C597 C 0.09632 0.46551 0.08306 0.0
C598 C 0.09381 0.48507 0.09422 0.0
C599 C 0.07376 0.54224 0.11934 0.0
C600 C 0.08285 0.52274 0.11203 0.0
H601 H 0.12685 0.44279 0.04793 0.0
H602 H 0.12551 0.47281 0.06956 0.0
H603 H 0.10859 0.50377 0.07143 0.0
H604 H 0.05166 0.58505 0.1002 0.0
H605 H 0.07256 0.55659 0.0896 0.0
C606 C 0.03922 0.42579 0.40404 0.0
C607 C 0.02499 0.43323 0.38999 0.0
C608 C 0.05524 0.4381 0.41063 0.0
C609 C 0.08151 0.48751 0.40101 0.0
H610 H 0.08255 0.4909 0.45966 0.0
C611 C 0.09288 0.56149 0.44472 0.0
C612 C 0.10189 0.56113 0.46403 0.0
C613 C 0.09068 0.54361 0.43358 0.0
C614 C 0.08293 0.48991 0.44328 0.0
H615 H 0.0174 0.45875 0.3706 0.0
H616 H 0.04497 0.48012 0.38216 0.0
H617 H 0.06567 0.46249 0.44346 0.0
H618 H 0.11714 0.54193 0.48604 0.0
H619 H 0.11328 0.51074 0.46653 0.0
H620 H 0.09778 0.51566 0.40094 0.0
C621 C 0.04395 0.46483 0.3881 0.0
C622 C 0.07324 0.47356 0.43395 0.0
C623 C 0.02796 0.45261 0.3816 0.0
C624 C 0.10996 0.54274 0.47129 0.0
C625 C 0.10769 0.52483 0.46016 0.0
C626 C 0.09117 0.50391 0.41035 0.0
C627 C 0.0574 0.458 0.40317 0.0
C628 C 0.07168 0.4726 0.41272 0.0
C629 C 0.09741 0.52497 0.4415 0.0
C630 C 0.09127 0.50569 0.43158 0.0
H631 H 0.03741 0.41087 0.41071 0.0
H632 H 0.06549 0.43232 0.4221 0.0
H633 H 0.08092 0.48699 0.38461 0.0
H634 H 0.0866 0.5754 0.4386 0.0
H635 H 0.08252 0.54424 0.41933 0.0
C636 C 0.8946 0.92615 0.47884 0.0
C637 C 0.90553 0.90889 0.47259 0.0
C638 C 0.89599 0.94432 0.46798 0.0
C639 C 0.91383 0.96687 0.41944 0.0
H640 H 0.92681 0.01339 0.453 0.0
C641 C 0.96398 0.03233 0.39247 0.0
C642 C 0.96058 0.0521 0.39972 0.0
C643 C 0.95196 0.01622 0.39907 0.0
C644 C 0.92275 0.00073 0.44335 0.0
H645 H 0.9256 0.89693 0.44937 0.0
H646 H 0.92815 0.92859 0.43058 0.0
H647 H 0.91512 0.98216 0.46882 0.0
H648 H 0.94117 0.07063 0.41881 0.0
H649 H 0.9201 0.04233 0.43043 0.0
H650 H 0.92227 0.98526 0.39403 0.0
C651 C 0.91838 0.92807 0.44378 0.0
C652 C 0.91606 0.98278 0.45244 0.0
C653 C 0.91702 0.90993 0.45465 0.0
C654 C 0.94422 0.05556 0.41299 0.0
C655 C 0.93222 0.03935 0.41972 0.0
C656 C 0.92051 0.98483 0.41035 0.0
C657 C 0.90827 0.94561 0.4506 0.0
C658 C 0.91213 0.96546 0.44064 0.0
C659 C 0.93626 0.01944 0.41315 0.0
C660 C 0.92567 0.00175 0.42227 0.0
H661 H 0.88548 0.92586 0.49252 0.0
H662 H 0.88781 0.95749 0.47346 0.0
H663 H 0.91057 0.95389 0.40991 0.0
H664 H 0.97637 0.02913 0.38213 0.0
H665 H 0.95567 0.00106 0.39389 0.0
C666 C 0.38177 0.56421 0.54482 0.0
C667 C 0.39764 0.57847 0.5445 0.0
C668 C 0.383 0.54699 0.5572 0.0
C669 C 0.39589 0.50558 0.57263 0.0
H670 H 0.43011 0.50567 0.62032 0.0
C671 C 0.43964 0.43482 0.59804 0.0
C672 C 0.44794 0.43406 0.61758 0.0
C673 C 0.42758 0.45129 0.5922 0.0
C674 C 0.42005 0.50515 0.60737 0.0
H675 H 0.42703 0.58607 0.5572 0.0
H676 H 0.42966 0.55589 0.5779 0.0
H677 H 0.4196 0.53746 0.60568 0.0
H678 H 0.44864 0.44849 0.647 0.0
H679 H 0.42619 0.47631 0.6375 0.0
H680 H 0.39566 0.47323 0.57483 0.0
C681 C 0.41587 0.55813 0.56926 0.0
C682 C 0.41436 0.52358 0.59865 0.0
C683 C 0.41445 0.57547 0.55722 0.0
C684 C 0.44248 0.44891 0.63178 0.0
C685 C 0.42984 0.465 0.62617 0.0
C686 C 0.40115 0.4871 0.58168 0.0
C687 C 0.4003 0.54347 0.56925 0.0
C688 C 0.403 0.52406 0.58061 0.0
C689 C 0.42315 0.46707 0.60598 0.0
C690 C 0.41406 0.48657 0.59869 0.0
H691 H 0.36852 0.5662 0.53529 0.0
H692 H 0.37052 0.5363 0.55704 0.0
H693 H 0.3871 0.5052 0.55877 0.0
H694 H 0.44387 0.42361 0.58678 0.0
H695 H 0.42303 0.45222 0.57647 0.0
C696 C 0.59319 0.56905 0.05691 0.0
C697 C 0.60665 0.55301 0.05274 0.0
C698 C 0.58621 0.58157 0.04121 0.0
C699 C 0.59427 0.59485 0.98677 0.0
H700 H 0.53546 0.59738 0.98514 0.0
C701 C 0.54874 0.5966 0.91262 0.0
C702 C 0.53022 0.6072 0.91187 0.0
C703 C 0.55987 0.59561 0.93062 0.0
C704 C 0.55191 0.59726 0.98547 0.0
H705 H 0.6246 0.53856 0.0292 0.0
H706 H 0.61247 0.5602 0.00202 0.0
H707 H 0.55236 0.58629 0.01598 0.0
H708 H 0.50943 0.626 0.92924 0.0
H709 H 0.52893 0.62431 0.96062 0.0
H710 H 0.59372 0.60497 0.95591 0.0
C711 C 0.60726 0.56323 0.0173 0.0
C712 C 0.56162 0.59092 0.00321 0.0
C713 C 0.61409 0.55068 0.03289 0.0
C714 C 0.52356 0.61756 0.92931 0.0
C715 C 0.53469 0.61654 0.94733 0.0
C716 C 0.58456 0.60118 0.96902 0.0
C717 C 0.59274 0.57839 0.02113 0.0
C718 C 0.58288 0.58898 0.00384 0.0
C719 C 0.55276 0.60521 0.9483 0.0
C720 C 0.56324 0.60182 0.96797 0.0
H721 H 0.58722 0.57125 0.07206 0.0
H722 H 0.57517 0.59327 0.04466 0.0
H723 H 0.6107 0.59384 0.98689 0.0
H724 H 0.55436 0.58849 0.89948 0.0
H725 H 0.5736 0.58654 0.93089 0.0
C726 C 0.4107 0.94941 0.0601 0.0
C727 C 0.39761 0.96538 0.05469 0.0
C728 C 0.41794 0.93597 0.04532 0.0
C729 C 0.41091 0.9196 0.99168 0.0
H730 H 0.46969 0.916 0.99139 0.0
C731 C 0.45798 0.91387 0.91883 0.0
C732 C 0.47646 0.90318 0.91893 0.0
C733 C 0.44639 0.91556 0.93649 0.0
C734 C 0.45324 0.91639 0.99139 0.0
H735 H 0.3807 0.97888 0.02987 0.0
H736 H 0.39331 0.95564 0.00426 0.0
H737 H 0.45234 0.92917 0.02117 0.0
H738 H 0.49667 0.88488 0.93745 0.0
H739 H 0.47637 0.88781 0.96828 0.0
H740 H 0.41192 0.90767 0.9615 0.0
C741 C 0.398 0.95337 0.01984 0.0
C742 C 0.44328 0.92394 0.00851 0.0
C743 C 0.3909 0.96684 0.03452 0.0
C744 C 0.48258 0.89336 0.93687 0.0
C745 C 0.47099 0.89509 0.95456 0.0
C746 C 0.42087 0.91205 0.97455 0.0
C747 C 0.41205 0.93814 0.02493 0.0
C748 C 0.42206 0.92631 0.00857 0.0
C749 C 0.45301 0.9066 0.95468 0.0
C750 C 0.4422 0.91103 0.97396 0.0
H751 H 0.41609 0.94786 0.07554 0.0
H752 H 0.42862 0.92426 0.04972 0.0
H753 H 0.39451 0.92092 0.99141 0.0
H754 H 0.45277 0.92157 0.90528 0.0
H755 H 0.43275 0.92474 0.93609 0.0
C756 C 0.53437 0.38876 0.56039 0.0
C757 C 0.53999 0.39675 0.57935 0.0
C758 C 0.54665 0.39181 0.54336 0.0
C759 C 0.58411 0.42865 0.5249 0.0
H760 H 0.58884 0.39198 0.47914 0.0
C761 C 0.62552 0.4546 0.45399 0.0
C762 C 0.61488 0.45186 0.43575 0.0
C763 C 0.62004 0.44383 0.47133 0.0
C764 C 0.58762 0.40236 0.49181 0.0
H765 H 0.56367 0.41279 0.5956 0.0
H766 H 0.5853 0.41769 0.56603 0.0
H767 H 0.57262 0.38032 0.51049 0.0
H768 H 0.59115 0.43461 0.42093 0.0
H769 H 0.58115 0.41604 0.45149 0.0
H770 H 0.59848 0.45085 0.50629 0.0
C771 C 0.57111 0.40958 0.56418 0.0
C772 C 0.57833 0.39571 0.50975 0.0
C773 C 0.55876 0.40669 0.58116 0.0
C774 C 0.59961 0.437 0.4348 0.0
C775 C 0.59393 0.42635 0.4523 0.0
C776 C 0.59337 0.43525 0.50709 0.0
C777 C 0.56489 0.40279 0.54494 0.0
C778 C 0.5763 0.40887 0.52644 0.0
C779 C 0.60357 0.43028 0.47094 0.0
C780 C 0.59511 0.42228 0.49026 0.0
H781 H 0.52001 0.38098 0.55847 0.0
H782 H 0.5413 0.38649 0.52877 0.0
H783 H 0.58237 0.43939 0.5372 0.0
H784 H 0.63758 0.46573 0.45508 0.0
H785 H 0.62813 0.4468 0.48531 0.0
C786 C 0.45097 0.0815 0.57749 0.0
C787 C 0.4689 0.09232 0.57349 0.0
C788 C 0.43748 0.07689 0.56184 0.0
C789 C 0.42497 0.08659 0.50755 0.0
H790 H 0.40894 0.03003 0.5092 0.0
C791 C 0.4003 0.03943 0.43737 0.0
C792 C 0.38634 0.02363 0.44054 0.0
C793 C 0.40678 0.05141 0.45367 0.0
C794 C 0.41286 0.04597 0.50861 0.0
H795 H 0.48612 0.1079 0.55014 0.0
H796 H 0.46283 0.0994 0.52272 0.0
H797 H 0.42664 0.0446 0.5378 0.0
H798 H 0.36668 0.00926 0.46268 0.0
H799 H 0.37747 0.03044 0.49087 0.0
H800 H 0.41163 0.08757 0.47787 0.0
C801 C 0.45903 0.09471 0.538 0.0
C802 C 0.42305 0.05437 0.52508 0.0
C803 C 0.47245 0.0995 0.55372 0.0
C804 C 0.37774 0.02111 0.45986 0.0
C805 C 0.38399 0.03318 0.47603 0.0
C806 C 0.41473 0.07814 0.49096 0.0
C807 C 0.44173 0.08278 0.54179 0.0
C808 C 0.42938 0.07471 0.52474 0.0
C809 C 0.39923 0.04787 0.47333 0.0
C810 C 0.4087 0.05767 0.49128 0.0
H811 H 0.44763 0.07601 0.59262 0.0
H812 H 0.42404 0.0681 0.56536 0.0
H813 H 0.42953 0.10236 0.50688 0.0
H814 H 0.40718 0.0417 0.42261 0.0
H815 H 0.41858 0.06256 0.45109 0.0
C816 C 0.03128 0.60564 0.54291 0.0
C817 C 0.05103 0.59882 0.54729 0.0
C818 C 0.01465 0.59839 0.55378 0.0
C819 C 0.99899 0.55301 0.58184 0.0
H820 H 0.94914 0.58385 0.58797 0.0
C821 C 0.92281 0.51662 0.60711 0.0
C822 C 0.90647 0.52082 0.59401 0.0
C823 C 0.94099 0.52748 0.60556 0.0
C824 C 0.96298 0.57507 0.58641 0.0
H825 H 0.06896 0.58005 0.56749 0.0
H826 H 0.03974 0.56746 0.58681 0.0
H827 H 0.98066 0.60139 0.57953 0.0
H828 H 0.89628 0.54013 0.56937 0.0
H829 H 0.92792 0.55923 0.56687 0.0
H830 H 0.98111 0.52665 0.58846 0.0
C831 C 0.03717 0.57822 0.57467 0.0
C832 C 0.98104 0.58508 0.58155 0.0
C833 C 0.05392 0.58556 0.56374 0.0
C834 C 0.90857 0.53645 0.57965 0.0
C835 C 0.92663 0.5475 0.57832 0.0
C836 C 0.98095 0.54302 0.58694 0.0
C837 C 0.01727 0.58412 0.56941 0.0
C838 C 0.99913 0.5741 0.57848 0.0
C839 C 0.94309 0.543 0.59112 0.0
C840 C 0.96265 0.55388 0.58861 0.0
H841 H 0.02851 0.61596 0.53042 0.0
H842 H 0.99963 0.60313 0.54908 0.0
H843 H 0.01254 0.544 0.5794 0.0
H844 H 0.92173 0.50464 0.61832 0.0
H845 H 0.95343 0.52375 0.61565 0.0
C846 C 0.94532 0.88057 0.57459 0.0
C847 C 0.9491 0.86658 0.55895 0.0
C848 C 0.96131 0.88752 0.58678 0.0
C849 C 0.01641 0.87944 0.59865 0.0
H850 H 0.01804 0.93824 0.59928 0.0
C851 C 0.09036 0.92558 0.59453 0.0
C852 C 0.09165 0.94412 0.60497 0.0
C853 C 0.07241 0.91426 0.59487 0.0
C854 C 0.01773 0.92181 0.59966 0.0
H855 H 0.97209 0.84747 0.5451 0.0
H856 H 0.99973 0.85956 0.56606 0.0
H857 H 0.9867 0.92104 0.59023 0.0
H858 H 0.07533 0.96478 0.62482 0.0
H859 H 0.04403 0.94503 0.62532 0.0
H860 H 0.04785 0.88035 0.60702 0.0
C861 C 0.98459 0.86524 0.56908 0.0
C862 C 0.99969 0.91191 0.59453 0.0
C863 C 0.96872 0.85841 0.55691 0.0
C864 C 0.07485 0.95063 0.61648 0.0
C865 C 0.05687 0.93936 0.61674 0.0
C866 C 0.03449 0.88935 0.60368 0.0
C867 C 0.98127 0.88047 0.58363 0.0
C868 C 0.99899 0.89062 0.59328 0.0
C869 C 0.05532 0.92126 0.60561 0.0
C870 C 0.03551 0.91065 0.6036 0.0
H871 H 0.93035 0.88711 0.57655 0.0
H872 H 0.9582 0.89904 0.59807 0.0
H873 H 0.01629 0.86301 0.5982 0.0
H874 H 0.10301 0.92007 0.58556 0.0
H875 H 0.07164 0.90048 0.58595 0.0
C876 C 0.03473 0.39344 0.96802 0.0
C877 C 0.05501 0.4 0.96705 0.0
C878 C 0.0201 0.40169 0.95517 0.0
C879 C 0.00978 0.44927 0.92893 0.0
H880 H 0.96088 0.42076 0.91276 0.0
C881 C 0.9388 0.49215 0.90097 0.0
C882 C 0.9209 0.48675 0.91134 0.0
C883 C 0.95613 0.47995 0.90223 0.0
C884 C 0.97449 0.42891 0.9171 0.0
H885 H 0.07615 0.41929 0.95078 0.0
H886 H 0.05048 0.43369 0.92813 0.0
H887 H 0.99055 0.40149 0.92389 0.0
H888 H 0.90694 0.46379 0.93037 0.0
H889 H 0.93715 0.44256 0.93258 0.0
H890 H 0.99349 0.47669 0.9228 0.0
C891 C 0.0459 0.42233 0.93909 0.0
C892 C 0.99147 0.4179 0.92347 0.0
C893 C 0.06062 0.41399 0.95197 0.0
C894 C 0.92048 0.46845 0.92227 0.0
C895 C 0.93775 0.45618 0.9234 0.0
C896 C 0.99284 0.46027 0.92244 0.0
C897 C 0.02536 0.41671 0.94099 0.0
C898 C 0.00905 0.42798 0.93019 0.0
C899 C 0.95588 0.462 0.91372 0.0
C900 C 0.97479 0.45022 0.91715 0.0
H901 H 0.02991 0.38255 0.97936 0.0
H902 H 0.00443 0.39713 0.95726 0.0
H903 H 0.02296 0.45755 0.9342 0.0
H904 H 0.93963 0.50612 0.89234 0.0
H905 H 0.96984 0.48472 0.8945 0.0
C906 C 0.09098 0.06714 0.90166 0.0
C907 C 0.08829 0.04607 0.90009 0.0
C908 C 0.07421 0.08 0.90382 0.0
C909 C 0.03984 0.10096 0.92528 0.0
H910 H 0.98511 0.08523 0.91046 0.0
C911 C 0.97241 0.12205 0.97478 0.0
C912 C 0.95295 0.12482 0.96649 0.0
C913 C 0.98862 0.11605 0.96263 0.0
C914 C 1.00027 0.09017 0.91444 0.0
H915 H 0.06592 0.02201 0.8986 0.0
H916 H 0.03689 0.04407 0.9035 0.0
H917 H 0.0139 0.06865 0.89434 0.0
H918 H 0.93542 0.12401 0.93869 0.0
H919 H 0.96406 0.11392 0.91719 0.0
H920 H 0.02627 0.12283 0.94492 0.0
C921 C 0.05175 0.05098 0.90237 0.0
C922 C 0.01686 0.08039 0.90542 0.0
C923 C 0.06848 0.03821 0.8997 0.0
C924 C 0.95022 0.12193 0.94555 0.0
C925 C 0.96661 0.11606 0.93326 0.0
C926 C 0.02331 0.11099 0.93394 0.0
C927 C 0.05438 0.07202 0.90505 0.0
C928 C 0.03688 0.08503 0.91139 0.0
C929 C 0.986 0.11288 0.94172 0.0
C930 C 0.00331 0.10508 0.92938 0.0
H931 H 0.10609 0.07364 0.90172 0.0
H932 H 0.0769 0.09614 0.90518 0.0
H933 H 0.05488 0.10504 0.93046 0.0
H934 H 0.97511 0.124 0.99086 0.0
H935 H 0.00311 0.11327 0.96988 0.0
C936 C 0.57247 0.04671 0.61979 0.0
C937 C 0.56528 0.06071 0.60547 0.0
C938 C 0.58456 0.03037 0.61372 0.0
C939 C 0.59202 0.98923 0.59606 0.0
H940 H 0.62029 0.98638 0.54462 0.0
C941 C 0.59366 0.91597 0.54982 0.0
C942 C 0.60961 0.91208 0.53623 0.0
C943 C 0.59296 0.93413 0.56068 0.0
C944 C 0.61281 0.98681 0.55924 0.0
H945 H 0.56592 0.06945 0.57387 0.0
H946 H 0.58589 0.04044 0.56295 0.0
H947 H 0.6132 0.01925 0.55963 0.0
H948 H 0.63792 0.92376 0.52412 0.0
H949 H 0.63715 0.95516 0.54371 0.0
H950 H 0.59225 0.95686 0.59606 0.0
C951 C 0.58304 0.04223 0.579 0.0
C952 C 0.60841 0.00578 0.56773 0.0
C953 C 0.5715 0.05894 0.58522 0.0
C954 C 0.62533 0.9264 0.53438 0.0
C955 C 0.6248 0.94448 0.54551 0.0
C956 C 0.59683 0.97033 0.58783 0.0
C957 C 0.589 0.02721 0.59305 0.0
C958 C 0.59723 0.00729 0.58588 0.0
C959 C 0.6084 0.94877 0.55853 0.0
C960 C 0.60651 0.96882 0.56889 0.0
H961 H 0.56793 0.04788 0.63554 0.0
H962 H 0.58948 0.01967 0.62515 0.0
H963 H 0.58325 0.98948 0.60993 0.0
H964 H 0.58122 0.90535 0.55149 0.0
H965 H 0.57982 0.93695 0.57014 0.0
C966 C 0.62507 0.0739 0.95397 0.0
C967 C 0.6135 0.09039 0.94685 0.0
C968 C 0.62533 0.05552 0.94338 0.0
C969 C 0.61138 0.03106 0.89452 0.0
H970 H 0.59761 0.98506 0.92852 0.0
C971 C 0.5619 0.96548 0.86784 0.0
C972 C 0.56397 0.94608 0.87644 0.0
C973 C 0.5746 0.98131 0.87374 0.0
C974 C 0.60198 0.99754 0.91876 0.0
H975 H 0.59412 0.10083 0.92237 0.0
H976 H 0.5945 0.0688 0.90402 0.0
H977 H 0.60775 0.01688 0.94412 0.0
H978 H 0.58202 0.92766 0.89688 0.0
H979 H 0.60438 0.95548 0.90726 0.0
H980 H 0.60475 0.01191 0.86916 0.0
C981 C 0.60347 0.07008 0.91772 0.0
C982 C 0.60776 0.01585 0.92773 0.0
C983 C 0.60313 0.08843 0.92833 0.0
C984 C 0.58002 0.94247 0.89002 0.0
C985 C 0.59272 0.95842 0.89606 0.0
C986 C 0.60567 0.01272 0.88554 0.0
C987 C 0.61414 0.05326 0.9254 0.0
C988 C 0.6118 0.03302 0.91573 0.0
C989 C 0.58969 0.97818 0.88848 0.0
C990 C 0.60013 0.99598 0.89758 0.0
H991 H 0.63335 0.07491 0.96811 0.0
H992 H 0.63389 0.0429 0.94956 0.0
H993 H 0.61478 0.04393 0.88487 0.0
H994 H 0.54978 0.96871 0.8572 0.0
H995 H 0.57166 0.99631 0.86771 0.0
C996 C 0.43086 0.56396 0.88084 0.0
C997 C 0.44467 0.56334 0.86463 0.0
C998 C 0.41888 0.54696 0.88533 0.0
C999 C 0.42275 0.49175 0.87895 0.0
H1000 H 0.37097 0.49093 0.90696 0.0
C1001 C 0.394 0.41767 0.91274 0.0
C1002 C 0.38809 0.41904 0.93317 0.0
C1003 C 0.39552 0.43512 0.9008 0.0
C1004 C 0.38542 0.49093 0.89911 0.0
H1005 H 0.45526 0.54561 0.83908 0.0
H1006 H 0.43377 0.51643 0.84626 0.0
H1007 H 0.38325 0.52263 0.89193 0.0
H1008 H 0.37756 0.43964 0.9566 0.0
H1009 H 0.38067 0.47009 0.93594 0.0
H1010 H 0.42544 0.46045 0.88662 0.0
C1011 C 0.43271 0.52957 0.85608 0.0
C1012 C 0.39246 0.50908 0.89053 0.0
C1013 C 0.44492 0.54633 0.85185 0.0
C1014 C 0.38226 0.43805 0.94094 0.0
C1015 C 0.38393 0.45554 0.92903 0.0
C1016 C 0.41573 0.47371 0.88743 0.0
C1017 C 0.42036 0.52924 0.87348 0.0
C1018 C 0.41139 0.50976 0.88061 0.0
C1019 C 0.39134 0.45436 0.90907 0.0
C1020 C 0.39716 0.4731 0.89792 0.0
H1021 H 0.43046 0.5769 0.89096 0.0
H1022 H 0.4096 0.54725 0.89889 0.0
H1023 H 0.43762 0.49171 0.87192 0.0
H1024 H 0.39832 0.40323 0.90618 0.0
H1025 H 0.40082 0.43364 0.88532 0.0
C1026 C 0.90144 0.08794 0.06475 0.0
C1027 C 0.89329 0.08875 0.04507 0.0
C1028 C 0.90142 0.06978 0.07566 0.0
C1029 C 0.90294 0.01525 0.06571 0.0
H1030 H 0.9035 0.01213 0.12441 0.0
C1031 C 0.93425 0.94472 0.10637 0.0
C1032 C 0.94958 0.94971 0.12033 0.0
C1033 C 0.92087 0.95967 0.09931 0.0
C1034 C 0.90324 0.01272 0.108 0.0
H1035 H 0.87724 0.07148 0.02211 0.0
H1036 H 0.87702 0.03983 0.04131 0.0
H1037 H 0.89105 0.04286 0.10781 0.0
H1038 H 0.9619 0.97385 0.13898 0.0
H1039 H 0.9387 0.99975 0.12674 0.0
H1040 H 0.91595 0.98551 0.06588 0.0
C1041 C 0.88379 0.05316 0.04811 0.0
C1042 C 0.89616 0.03032 0.0985 0.0
C1043 C 0.88384 0.07134 0.03715 0.0
C1044 C 0.95037 0.96954 0.1281 0.0
C1045 C 0.93692 0.98438 0.12121 0.0
C1046 C 0.90995 0.99764 0.07521 0.0
C1047 C 0.8932 0.05201 0.06721 0.0
C1048 C 0.89666 0.03208 0.07725 0.0
C1049 C 0.92243 0.97978 0.10628 0.0
C1050 C 0.91091 0.99649 0.09646 0.0
H1051 H 0.90877 0.10107 0.07136 0.0
H1052 H 0.90899 0.06945 0.09024 0.0
H1053 H 0.90376 0.01612 0.04933 0.0
H1054 H 0.93323 0.92955 0.10014 0.0
H1055 H 0.90973 0.95565 0.08791 0.0
C1056 C 0.99463 0.16842 0.35708 0.0
C1057 C 0.98247 0.16126 0.37309 0.0
C1058 C 0.99378 0.18884 0.35125 0.0
C1059 C 1.00038 0.23448 0.3565 0.0
H1060 H 0.95061 0.26606 0.35601 0.0
C1061 C 0.99647 0.31806 0.37986 0.0
C1062 C 0.98368 0.33141 0.36923 0.0
C1063 C 0.99696 0.29746 0.37506 0.0
C1064 C 0.96463 0.25745 0.35574 0.0
H1065 H 0.95901 0.16955 0.39466 0.0
H1066 H 0.95742 0.205 0.38442 0.0
H1067 H 0.94887 0.229 0.3565 0.0
H1068 H 0.96176 0.33374 0.34483 0.0
H1069 H 0.96235 0.29741 0.33664 0.0
H1070 H 0.01613 0.26292 0.35658 0.0
C1071 C 0.96762 0.19492 0.37636 0.0
C1072 C 0.96363 0.23625 0.35619 0.0
C1073 C 0.96864 0.17462 0.38233 0.0
C1074 C 0.97179 0.3238 0.35326 0.0
C1075 C 0.97206 0.30304 0.34863 0.0
C1076 C 0.00137 0.25567 0.35622 0.0
C1077 C 0.98055 0.20239 0.36112 0.0
C1078 C 0.98149 0.22456 0.35714 0.0
C1079 C 0.9845 0.28964 0.35966 0.0
C1080 C 0.98351 0.26737 0.35643 0.0
H1081 H 0.00544 0.15848 0.34967 0.0
H1082 H 0.00382 0.19415 0.33936 0.0
H1083 H 0.0144 0.22593 0.35736 0.0
H1084 H 0.00587 0.32347 0.39221 0.0
H1085 H 0.00652 0.28749 0.384 0.0
C1086 C 0.99823 0.68437 0.1741 0.0
C1087 C 0.01185 0.6789 0.15861 0.0
C1088 C 0.99595 0.70476 0.1797 0.0
C1089 C 0.98257 0.74867 0.17339 0.0
H1090 H 0.02662 0.78767 0.17172 0.0
C1091 C 0.97316 0.82961 0.14356 0.0
C1092 C 0.98495 0.84542 0.15161 0.0
C1093 C 0.97535 0.8098 0.15074 0.0
C1094 C 0.01412 0.77703 0.17265 0.0
H1095 H 0.03478 0.69025 0.13788 0.0
H1096 H 0.03084 0.72559 0.14758 0.0
H1097 H 0.03428 0.75152 0.17377 0.0
H1098 H 0.00751 0.85307 0.1743 0.0
H1099 H 0.01138 0.81832 0.18685 0.0
H1100 H 0.96242 0.77414 0.17161 0.0
C1101 C 0.02192 0.71426 0.15549 0.0
C1102 C 0.01853 0.75629 0.17362 0.0
C1103 C 0.02408 0.69398 0.14981 0.0
C1104 C 0.99823 0.84119 0.16776 0.0
C1105 C 1.00053 0.82129 0.17487 0.0
C1106 C 0.97817 0.7694 0.17238 0.0
C1107 C 0.0074 0.71999 0.17004 0.0
C1108 C 0.00282 0.74185 0.17325 0.0
C1109 C 0.98945 0.8053 0.1661 0.0
C1110 C 0.9939 0.78378 0.17125 0.0
H1111 H 0.9886 0.67308 0.18117 0.0
H1112 H 0.98477 0.70868 0.1911 0.0
H1113 H 0.97009 0.73797 0.17298 0.0
H1114 H 0.96275 0.83237 0.13115 0.0
H1115 H 0.96674 0.79785 0.14347 0.0
C1116 C 0.37827 0.98148 0.17522 0.0
C1117 C 0.36894 0.99459 0.16124 0.0
C1118 C 0.37197 0.98105 0.19543 0.0
C1119 C 0.34958 0.01412 0.2337 0.0
H1120 H 0.35111 0.96515 0.2663 0.0
C1121 C 0.34746 0.98576 0.32327 0.0
C1122 C 0.36213 0.99917 0.33101 0.0
C1123 C 0.34263 0.98591 0.30259 0.0
C1124 C 0.35023 0.97895 0.25743 0.0
H1125 H 0.34508 0.01695 0.15729 0.0
H1126 H 0.33409 0.01627 0.19278 0.0
H1127 H 0.35254 0.96264 0.22944 0.0
H1128 H 0.38227 0.02407 0.3234 0.0
H1129 H 0.37388 0.02435 0.28753 0.0
H1130 H 0.34787 0.03046 0.26172 0.0
C1131 C 0.34636 0.00638 0.18805 0.0
C1132 C 0.35126 0.97752 0.2363 0.0
C1133 C 0.35257 0.00669 0.16772 0.0
C1134 C 0.37096 0.01349 0.31791 0.0
C1135 C 0.36603 0.01374 0.29733 0.0
C1136 C 0.34862 0.01556 0.25484 0.0
C1137 C 0.35624 0.99381 0.2022 0.0
C1138 C 0.35158 0.99511 0.22423 0.0
C1139 C 0.35223 0.99961 0.28931 0.0
C1140 C 0.34957 0.99802 0.26696 0.0
H1141 H 0.39089 0.97193 0.17071 0.0
H1142 H 0.38008 0.97138 0.20595 0.0
H1143 H 0.34989 0.02797 0.22486 0.0
H1144 H 0.34039 0.97455 0.33299 0.0
H1145 H 0.33179 0.97496 0.29689 0.0
C1146 C 0.62374 0.52763 0.17512 0.0
C1147 C 0.63248 0.51639 0.15925 0.0
C1148 C 0.6296 0.52427 0.19518 0.0
C1149 C 0.64921 0.48365 0.22742 0.0
H1150 H 0.64932 0.52608 0.26813 0.0
C1151 C 0.65144 0.49588 0.32054 0.0
C1152 C 0.63634 0.48178 0.32591 0.0
C1153 C 0.65645 0.49908 0.30015 0.0
C1154 C 0.64972 0.51403 0.25698 0.0
H1155 H 0.65501 0.4935 0.15191 0.0
H1156 H 0.6653 0.48764 0.18707 0.0
H1157 H 0.64873 0.53515 0.23231 0.0
H1158 H 0.61562 0.45906 0.31418 0.0
H1159 H 0.62427 0.46465 0.27879 0.0
H1160 H 0.64973 0.46252 0.2521 0.0
C1161 C 0.65376 0.49894 0.18394 0.0
C1162 C 0.64916 0.51924 0.23643 0.0
C1163 C 0.64796 0.5024 0.1638 0.0
C1164 C 0.62729 0.47008 0.31058 0.0
C1165 C 0.63235 0.47321 0.29025 0.0
C1166 C 0.64973 0.47843 0.24797 0.0
C1167 C 0.64431 0.50953 0.19989 0.0
C1168 C 0.64829 0.50412 0.22143 0.0
C1169 C 0.64656 0.48815 0.28473 0.0
C1170 C 0.6494 0.49355 0.263 0.0
H1171 H 0.6118 0.53855 0.17214 0.0
H1172 H 0.62184 0.53254 0.20708 0.0
H1173 H 0.64843 0.47161 0.21628 0.0
H1174 H 0.65874 0.50511 0.332 0.0
H1175 H 0.66766 0.51052 0.29642 0.0
C1176 C 0.31878 0.36735 0.01044 0.0
C1177 C 0.33126 0.35821 0.99576 0.0
C1178 C 0.29802 0.36311 0.01116 0.0
C1179 C 0.25673 0.34914 0.97727 0.0
H1180 H 0.22527 0.34863 0.02702 0.0
C1181 C 0.16755 0.3525 0.00692 0.0
C1182 C 0.16109 0.36931 0.99547 0.0
C1183 C 0.18782 0.34603 0.00608 0.0
C1184 C 0.2338 0.34839 0.01297 0.0
H1185 H 0.33194 0.33663 0.97095 0.0
H1186 H 0.2955 0.32928 0.97216 0.0
H1187 H 0.26221 0.34566 0.02856 0.0
H1188 H 0.17054 0.39184 0.97342 0.0
H1189 H 0.20568 0.38055 0.97189 0.0
H1190 H 0.22837 0.35253 0.96172 0.0
C1191 C 0.30184 0.33981 0.98305 0.0
C1192 C 0.25497 0.34687 0.01386 0.0
C1193 C 0.32271 0.34392 0.98245 0.0
C1194 C 0.17504 0.37888 0.98247 0.0
C1195 C 0.19517 0.37231 0.98149 0.0
C1196 C 0.23557 0.35076 0.97638 0.0
C1197 C 0.2892 0.34972 0.99713 0.0
C1198 C 0.26671 0.34782 0.99606 0.0
C1199 C 0.20192 0.35609 0.99359 0.0
C1200 C 0.22392 0.351 0.99426 0.0
H1201 H 0.32491 0.37839 0.02095 0.0
H1202 H 0.28871 0.37118 0.02206 0.0
H1203 H 0.26532 0.35005 0.96328 0.0
H1204 H 0.15716 0.34483 0.01709 0.0
H1205 H 0.19255 0.3334 0.01548 0.0
C1206 C 0.16521 0.64255 0.50383 0.0
C1207 C 0.16016 0.62754 0.51812 0.0
C1208 C 0.18547 0.64844 0.50107 0.0
C1209 C 0.22966 0.64387 0.48778 0.0
H1210 H 0.26871 0.64676 0.53167 0.0
C1211 C 0.31434 0.62503 0.47787 0.0
C1212 C 0.3289 0.63566 0.48925 0.0
C1213 C 0.29364 0.62893 0.48042 0.0
C1214 C 0.258 0.64634 0.51922 0.0
H1215 H 0.17226 0.60785 0.54156 0.0
H1216 H 0.20743 0.6181 0.53678 0.0
H1217 H 0.23247 0.64538 0.53937 0.0
H1218 H 0.33315 0.6594 0.51159 0.0
H1219 H 0.29686 0.66621 0.51609 0.0
H1220 H 0.25521 0.64434 0.46765 0.0
C1221 C 0.19581 0.6254 0.52772 0.0
C1222 C 0.23723 0.64534 0.52365 0.0
C1223 C 0.17562 0.61943 0.53038 0.0
C1224 C 0.32231 0.65096 0.50258 0.0
C1225 C 0.30153 0.65476 0.50526 0.0
C1226 C 0.25042 0.64478 0.48336 0.0
C1227 C 0.20107 0.63957 0.51266 0.0
C1228 C 0.22284 0.64359 0.508 0.0
C1229 C 0.28694 0.64348 0.49451 0.0
C1230 C 0.26487 0.64552 0.49903 0.0
H1231 H 0.15366 0.64911 0.49415 0.0
H1232 H 0.18899 0.65958 0.48951 0.0
H1233 H 0.21902 0.64239 0.47535 0.0
H1234 H 0.3189 0.61315 0.46745 0.0
H1235 H 0.28284 0.61981 0.47204 0.0
C1236 C 0.67899 0.83047 0.50155 0.0
C1237 C 0.67411 0.84551 0.48723 0.0
C1238 C 0.69929 0.82512 0.50509 0.0
C1239 C 0.74278 0.83049 0.52017 0.0
H1240 H 0.78363 0.8304 0.47778 0.0
C1241 C 0.82602 0.85256 0.53402 0.0
C1242 C 0.84149 0.84342 0.52251 0.0
C1243 C 0.80566 0.84764 0.53067 0.0
C1244 C 0.77245 0.83001 0.48982 0.0
H1245 H 0.68662 0.86587 0.46459 0.0
H1246 H 0.72182 0.85663 0.47075 0.0
H1247 H 0.74775 0.83049 0.46871 0.0
H1248 H 0.84777 0.8211 0.49917 0.0
H1249 H 0.81213 0.81241 0.49338 0.0
H1250 H 0.76749 0.8304 0.54128 0.0
C1251 C 0.71006 0.84885 0.47922 0.0
C1252 C 0.75185 0.8303 0.48461 0.0
C1253 C 0.68984 0.85425 0.47576 0.0
C1254 C 0.83621 0.82844 0.50828 0.0
C1255 C 0.81578 0.82357 0.50486 0.0
C1256 C 0.76338 0.83024 0.52538 0.0
C1257 C 0.7151 0.8346 0.49428 0.0
C1258 C 0.73678 0.83111 0.49972 0.0
C1259 C 0.80024 0.83348 0.51568 0.0
C1260 C 0.77847 0.83056 0.51027 0.0
H1261 H 0.66723 0.82343 0.51063 0.0
H1262 H 0.70265 0.81391 0.51663 0.0
H1263 H 0.73161 0.83124 0.53221 0.0
H1264 H 0.82954 0.86414 0.54512 0.0
H1265 H 0.79412 0.85574 0.53914 0.0
C1266 C 0.51259 0.8331 0.84053 0.0
C1267 C 0.52645 0.83838 0.85587 0.0
C1268 C 0.50822 0.81266 0.83655 0.0
C1269 C 0.50624 0.76505 0.86433 0.0
H1270 H 0.49895 0.73889 0.81216 0.0
C1271 C 0.46966 0.68699 0.85978 0.0
C1272 C 0.48111 0.67221 0.8495 0.0
C1273 C 0.47393 0.70758 0.85725 0.0
C1274 C 0.50094 0.74606 0.8268 0.0
H1275 H 0.54776 0.82635 0.87791 0.0
H1276 H 0.54016 0.79091 0.87096 0.0
H1277 H 0.51087 0.77425 0.81366 0.0
H1278 H 0.50497 0.66752 0.82729 0.0
H1279 H 0.51242 0.70366 0.82287 0.0
H1280 H 0.49638 0.73717 0.87756 0.0
C1281 C 0.53244 0.80251 0.86223 0.0
C1282 C 0.50767 0.76625 0.82766 0.0
C1283 C 0.53684 0.82284 0.86615 0.0
C1284 C 0.4959 0.67854 0.83546 0.0
C1285 C 0.50015 0.69923 0.83289 0.0
C1286 C 0.49932 0.7451 0.86347 0.0
C1287 C 0.51758 0.79721 0.84792 0.0
C1288 C 0.51054 0.77586 0.84647 0.0
C1289 C 0.48972 0.71388 0.84438 0.0
C1290 C 0.49658 0.73535 0.84473 0.0
H1291 H 0.50435 0.84471 0.83232 0.0
H1292 H 0.49668 0.809 0.82544 0.0
H1293 H 0.50803 0.77212 0.87904 0.0
H1294 H 0.45801 0.68267 0.87055 0.0
H1295 H 0.46538 0.71856 0.86602 0.0
C1296 C 0.47643 0.31377 0.63126 0.0
C1297 C 0.48818 0.32908 0.64029 0.0
C1298 C 0.4798 0.29339 0.636 0.0
C1299 C 0.48564 0.251 0.653 0.0
H1300 H 0.54233 0.23554 0.64857 0.0
C1301 C 0.51002 0.16693 0.64825 0.0
C1302 C 0.52278 0.16283 0.63164 0.0
C1303 C 0.50683 0.18694 0.65469 0.0
C1304 C 0.52644 0.23962 0.65 0.0
H1305 H 0.51194 0.33511 0.66223 0.0
H1306 H 0.5179 0.29938 0.67046 0.0
H1307 H 0.53318 0.27138 0.65045 0.0
H1308 H 0.54308 0.17635 0.60952 0.0
H1309 H 0.53761 0.21107 0.62075 0.0
H1310 H 0.47885 0.21928 0.65146 0.0
C1311 C 0.50615 0.3032 0.65962 0.0
C1312 C 0.52121 0.26014 0.65129 0.0
C1313 C 0.50264 0.32365 0.655 0.0
C1314 C 0.53311 0.17899 0.62233 0.0
C1315 C 0.53008 0.19891 0.62886 0.0
C1316 C 0.49089 0.23047 0.65182 0.0
C1317 C 0.49509 0.28783 0.64979 0.0
C1318 C 0.50071 0.26609 0.65215 0.0
C1319 C 0.51653 0.20318 0.64479 0.0
C1320 C 0.51131 0.22459 0.64964 0.0
H1321 H 0.46513 0.31745 0.61991 0.0
H1322 H 0.47115 0.28195 0.62799 0.0
H1323 H 0.46973 0.25511 0.65387 0.0
H1324 H 0.50184 0.1548 0.65574 0.0
H1325 H 0.49644 0.18975 0.66712 0.0
C1326 C 0.84344 0.5212 0.83956 0.0
C1327 C 0.85738 0.53641 0.84497 0.0
C1328 C 0.8396 0.51697 0.81911 0.0
C1329 C 0.86677 0.52005 0.77095 0.0
H1330 H 0.81594 0.50293 0.7467 0.0
C1331 C 0.83629 0.49936 0.68627 0.0
C1332 C 0.85234 0.4867 0.68005 0.0
C1333 C 0.83443 0.50518 0.70661 0.0
C1334 C 0.8302 0.50777 0.75328 0.0
H1335 H 0.87673 0.56036 0.83332 0.0
H1336 H 0.86978 0.55324 0.7978 0.0
H1337 H 0.81628 0.51567 0.78168 0.0
H1338 H 0.87832 0.4693 0.69049 0.0
H1339 H 0.875 0.47935 0.72581 0.0
H1340 H 0.88076 0.51223 0.7428 0.0
C1341 C 0.86222 0.54421 0.80928 0.0
C1342 C 0.83041 0.51495 0.77329 0.0
C1343 C 0.86612 0.54835 0.82964 0.0
C1344 C 0.8659 0.47923 0.69471 0.0
C1345 C 0.86406 0.48506 0.71495 0.0
C1346 C 0.86658 0.5128 0.75112 0.0
C1347 C 0.84959 0.52794 0.80377 0.0
C1348 C 0.84874 0.52116 0.78232 0.0
C1349 C 0.84863 0.49849 0.72104 0.0
C1350 C 0.84835 0.50643 0.74209 0.0
H1351 H 0.83646 0.51174 0.85105 0.0
H1352 H 0.82981 0.50432 0.81534 0.0
H1353 H 0.88119 0.5244 0.77753 0.0
H1354 H 0.82557 0.50533 0.67533 0.0
H1355 H 0.82241 0.51558 0.71087 0.0
C1356 C 0.14127 0.01507 0.68065 0.0
C1357 C 0.15207 0.00188 0.66784 0.0
C1358 C 0.14383 0.01417 0.70161 0.0
C1359 C 0.17514 0.99461 0.74374 0.0
H1360 H 0.12301 0.99135 0.77103 0.0
C1361 C 0.13639 0.9726 0.826 0.0
C1362 C 0.14703 0.98537 0.83933 0.0
C1363 C 0.14007 0.97335 0.80519 0.0
C1364 C 0.13771 0.99207 0.76365 0.0
H1365 H 0.17513 0.97838 0.6669 0.0
H1366 H 0.17955 0.97675 0.70376 0.0
H1367 H 0.12417 0.99668 0.73462 0.0
H1368 H 0.17092 0.00793 0.84139 0.0
H1369 H 0.1773 0.00927 0.80482 0.0
H1370 H 0.18858 0.98992 0.77308 0.0
C1371 C 0.16913 0.98781 0.69747 0.0
C1372 C 0.13838 0.9954 0.74281 0.0
C1373 C 0.16657 0.98872 0.67638 0.0
C1374 C 0.16243 0.99793 0.8315 0.0
C1375 C 0.16613 0.99867 0.81058 0.0
C1376 C 0.17447 0.99145 0.76478 0.0
C1377 C 0.15721 1.00002 0.71031 0.0
C1378 C 0.15706 0.99676 0.73259 0.0
C1379 C 0.15446 0.98689 0.79717 0.0
C1380 C 0.1557 0.99003 0.7749 0.0
H1381 H 0.13016 0.02557 0.67455 0.0
H1382 H 0.13475 0.02408 0.7111 0.0
H1383 H 0.18975 0.99561 0.73624 0.0
H1384 H 0.12459 0.96257 0.83154 0.0
H1385 H 0.13112 0.96379 0.79526 0.0
C1386 C 0.82832 0.14836 0.97255 0.0
C1387 C 0.84249 0.15675 0.98607 0.0
C1388 C 0.80795 0.15428 0.97317 0.0
C1389 C 0.77061 0.17341 0.0096 0.0
H1390 H 0.73523 0.17244 0.96263 0.0
C1391 C 0.68704 0.14966 0.01388 0.0
C1392 C 0.67277 0.15828 0.0006 0.0
C1393 C 0.7075 0.1551 0.0128 0.0
C1394 C 0.74487 0.17315 0.97592 0.0
H1395 H 0.84663 0.1789 0.01002 0.0
H1396 H 0.811 0.18939 0.011 0.0
H1397 H 0.77196 0.17263 0.95793 0.0
H1398 H 0.66862 0.18016 0.97639 0.0
H1399 H 0.70449 0.18975 0.97451 0.0
H1400 H 0.74352 0.17354 0.02759 0.0
C1401 C 0.81563 0.178 9e-05 0.0
C1402 C 0.76595 0.17303 0.97321 0.0
C1403 C 0.83607 0.17209 0.99943 0.0
C1404 C 0.67925 0.17323 0.98683 0.0
C1405 C 0.69981 0.17862 0.98566 0.0
C1406 C 0.74954 0.17354 0.0123 0.0
C1407 C 0.80123 0.16875 0.98734 0.0
C1408 C 0.77907 0.1725 0.99003 0.0
C1409 C 0.71424 0.16928 0.99835 0.0
C1410 C 0.73641 0.17275 0.9955 0.0
H1411 H 0.83275 0.13654 0.96202 0.0
H1412 H 0.7973 0.14666 0.96326 0.0
H1413 H 0.78021 0.17288 0.02291 0.0
H1414 H 0.68256 0.13812 0.0247 0.0
H1415 H 0.71818 0.14741 0.02264 0.0
C1416 C 0.04053 0.97052 0.18772 0.0
C1417 C 0.02822 0.95319 0.18942 0.0
C1418 C 0.0441 0.98289 0.20452 0.0
C1419 C 0.03617 0.01389 0.23724 0.0
H1420 H 0.04051 0.9933 0.29209 0.0
C1421 C 0.02218 0.06367 0.3081 0.0
C1422 C 0.03291 0.05905 0.3259 0.0
C1423 C 0.02449 0.05159 0.2908 0.0
C1424 C 0.03963 0.99936 0.27685 0.0
H1425 H 0.01069 0.93474 0.21023 0.0
H1426 H 0.01655 0.95654 0.23955 0.0
H1427 H 0.04007 0.96964 0.26381 0.0
H1428 H 0.05557 0.03915 0.33913 0.0
H1429 H 0.06009 0.01856 0.30884 0.0
H1430 H 0.03603 0.04362 0.25027 0.0
C1431 C 0.02373 0.96045 0.2253 0.0
C1432 C 0.03908 0.98574 0.26063 0.0
C1433 C 0.02032 0.94794 0.20849 0.0
C1434 C 0.04693 0.04296 0.32568 0.0
C1435 C 0.04939 0.03104 0.30836 0.0
C1436 C 0.03684 0.02752 0.25345 0.0
C1437 C 0.03527 0.97835 0.22339 0.0
C1438 C 0.03713 0.99281 0.24063 0.0
C1439 C 0.03772 0.03477 0.29092 0.0
C1440 C 0.03836 0.02043 0.27349 0.0
H1441 H 0.047 0.97486 0.17325 0.0
H1442 H 0.05348 0.99625 0.20259 0.0
H1443 H 0.03437 0.01991 0.22207 0.0
H1444 H 0.01118 0.0759 0.30787 0.0
H1445 H 0.01514 0.05485 0.27769 0.0
C1446 C 0.94297 0.47446 0.32593 0.0
C1447 C 0.94513 0.45333 0.324 0.0
C1448 C 0.94097 0.48674 0.30881 0.0
C1449 C 0.95395 0.48662 0.25452 0.0
H1450 H 0.92519 0.53805 0.25494 0.0
C1451 C 0.95641 0.5403 0.18614 0.0
C1452 C 0.96187 0.56046 0.19054 0.0
C1453 C 0.95058 0.52707 0.20159 0.0
C1454 C 0.9333 0.52374 0.25465 0.0
H1455 H 0.94565 0.42836 0.30263 0.0
H1456 H 0.94161 0.44978 0.27264 0.0
H1457 H 0.92084 0.51435 0.28313 0.0
H1458 H 0.96449 0.58281 0.21451 0.0
H1459 H 0.95421 0.55958 0.24162 0.0
H1460 H 0.96649 0.49606 0.22614 0.0
C1461 C 0.94198 0.45692 0.28742 0.0
C1462 C 0.93085 0.51016 0.27078 0.0
C1463 C 0.94414 0.44461 0.3046 0.0
C1464 C 0.96039 0.56737 0.21064 0.0
C1465 C 0.95444 0.5541 0.22614 0.0
C1466 C 0.95623 0.50009 0.23834 0.0
C1467 C 0.94091 0.47819 0.28929 0.0
C1468 C 0.94146 0.49159 0.2711 0.0
C1469 C 0.94998 0.53368 0.22181 0.0
C1470 C 0.94619 0.51892 0.23837 0.0
H1471 H 0.94366 0.48171 0.34065 0.0
H1472 H 0.94046 0.50302 0.31091 0.0
H1473 H 0.96268 0.47269 0.25438 0.0
H1474 H 0.95722 0.5345 0.1708 0.0
H1475 H 0.94693 0.51151 0.19776 0.0
C1476 C 0.19261 0.05396 0.95908 0.0
C1477 C 0.19356 0.03986 0.94313 0.0
C1478 C 0.2096 0.05767 0.97119 0.0
C1479 C 0.26534 0.04852 0.97562 0.0
H1480 H 0.25388 0.05186 0.03323 0.0
C1481 C 0.30978 0.03493 0.05605 0.0
C1482 C 0.32866 0.0434 0.05094 0.0
C1483 C 0.293 0.03757 0.04328 0.0
C1484 C 0.25737 0.05086 0.01721 0.0
H1485 H 0.21331 0.01931 0.92672 0.0
H1486 H 0.24291 0.0254 0.94809 0.0
H1487 H 0.22595 0.0505 0.00919 0.0
H1488 H 0.34447 0.06244 0.02923 0.0
H1489 H 0.31514 0.06762 0.00739 0.0
H1490 H 0.29674 0.04778 0.98372 0.0
C1491 C 0.22914 0.03389 0.9511 0.0
C1492 C 0.24133 0.05038 0.00335 0.0
C1493 C 0.21216 0.03035 0.93883 0.0
C1494 C 0.33014 0.05555 0.03348 0.0
C1495 C 0.31336 0.05837 0.02085 0.0
C1496 C 0.28138 0.04886 0.98949 0.0
C1497 C 0.2279 0.04717 0.96779 0.0
C1498 C 0.24509 0.04903 0.98237 0.0
C1499 C 0.29473 0.04891 0.02524 0.0
C1500 C 0.27761 0.04985 0.01049 0.0
H1501 H 0.17852 0.06167 0.96266 0.0
H1502 H 0.20822 0.06839 0.98355 0.0
H1503 H 0.26883 0.0477 0.95959 0.0
H1504 H 0.30821 0.02538 0.06933 0.0
H1505 H 0.27897 0.0299 0.04709 0.0
C1506 C 0.67385 0.46942 0.03231 0.0
C1507 C 0.67495 0.47609 0.05254 0.0
C1508 C 0.69138 0.46769 0.02054 0.0
C1509 C 0.74696 0.46408 0.02137 0.0
H1510 H 0.74398 0.49475 0.97125 0.0
C1511 C 0.81843 0.48885 0.97766 0.0
C1512 C 0.81755 0.49147 0.95652 0.0
C1513 C 0.8011 0.48362 0.98865 0.0
C1514 C 0.74505 0.48571 0.98491 0.0
H1515 H 0.69549 0.48494 0.07664 0.0
H1516 H 0.7263 0.4816 0.05603 0.0
H1517 H 0.71384 0.49111 0.99223 0.0
H1518 H 0.79797 0.48966 0.9302 0.0
H1519 H 0.76774 0.47977 0.94931 0.0
H1520 H 0.77812 0.45849 0.01403 0.0
C1521 C 0.71176 0.47784 0.04934 0.0
C1522 C 0.72775 0.48372 0.99701 0.0
C1523 C 0.69414 0.47978 0.06111 0.0
C1524 C 0.7991 0.48788 0.94649 0.0
C1525 C 0.78174 0.48237 0.95749 0.0
C1526 C 0.76423 0.46579 0.00911 0.0
C1527 C 0.71045 0.47237 0.02877 0.0
C1528 C 0.7286 0.47314 0.01548 0.0
C1529 C 0.78242 0.4806 0.97879 0.0
C1530 C 0.7636 0.47694 0.99087 0.0
H1531 H 0.65934 0.46635 0.02522 0.0
H1532 H 0.68998 0.4632 0.0048 0.0
H1533 H 0.74795 0.45567 0.03545 0.0
H1534 H 0.83239 0.49159 0.9859 0.0
H1535 H 0.80225 0.48278 0.005 0.0
C1536 C 0.30411 0.95231 0.4347 0.0
C1537 C 0.32291 0.943 0.4385 0.0
C1538 C 0.2877 0.94924 0.44786 0.0
C1539 C 0.25261 0.93627 0.47473 0.0
H1540 H 0.26678 0.93415 0.53175 0.0
C1541 C 0.19027 0.93447 0.53578 0.0
C1542 C 0.19331 0.94682 0.55287 0.0
C1543 C 0.20627 0.93029 0.52248 0.0
C1544 C 0.26251 0.93483 0.51592 0.0
H1545 H 0.33884 0.92192 0.4581 0.0
H1546 H 0.31007 0.91586 0.48051 0.0
H1547 H 0.2935 0.93401 0.50635 0.0
H1548 H 0.2157 0.96378 0.56991 0.0
H1549 H 0.24354 0.95699 0.54648 0.0
H1550 H 0.22169 0.93838 0.48433 0.0
C1551 C 0.30812 0.92616 0.46786 0.0
C1552 C 0.27787 0.93443 0.50126 0.0
C1553 C 0.32457 0.92946 0.45488 0.0
C1554 C 0.21293 0.95409 0.55694 0.0
C1555 C 0.22891 0.95014 0.54348 0.0
C1556 C 0.23726 0.93689 0.48939 0.0
C1557 C 0.28967 0.93656 0.46497 0.0
C1558 C 0.27316 0.93536 0.48045 0.0
C1559 C 0.22566 0.93861 0.52578 0.0
C1560 C 0.242 0.9364 0.51021 0.0
H1561 H 0.30241 0.96296 0.42229 0.0
H1562 H 0.27384 0.95768 0.44518 0.0
H1563 H 0.24833 0.93675 0.45889 0.0
H1564 H 0.17534 0.9285 0.53233 0.0
H1565 H 0.20328 0.9209 0.50935 0.0
C1566 C 0.79997 0.52227 0.5294 0.0
C1567 C 0.81535 0.50758 0.52762 0.0
C1568 C 0.78666 0.526 0.51332 0.0
C1569 C 0.76532 0.5014 0.46798 0.0
H1570 H 0.74378 0.55521 0.45761 0.0
C1571 C 0.68735 0.5369 0.43551 0.0
C1572 C 0.68416 0.52441 0.41855 0.0
C1573 C 0.70624 0.53741 0.44512 0.0
C1574 C 0.74967 0.5401 0.4603 0.0
H1575 H 0.82912 0.4856 0.50732 0.0
H1576 H 0.80599 0.49227 0.47917 0.0
H1577 H 0.77154 0.55088 0.48176 0.0
H1578 H 0.69871 0.50371 0.3975 0.0
H1579 H 0.73183 0.50466 0.41427 0.0
H1580 H 0.74311 0.49055 0.44697 0.0
C1581 C 0.80408 0.50074 0.49311 0.0
C1582 C 0.76553 0.5376 0.47418 0.0
C1583 C 0.8174 0.497 0.50921 0.0
C1584 C 0.70068 0.5135 0.41054 0.0
C1585 C 0.71959 0.5139 0.42026 0.0
C1586 C 0.7495 0.50391 0.45407 0.0
C1587 C 0.78841 0.51515 0.49504 0.0
C1588 C 0.77322 0.51815 0.47856 0.0
C1589 C 0.72238 0.52536 0.43804 0.0
C1590 C 0.74116 0.52323 0.45042 0.0
H1591 H 0.79793 0.53066 0.54337 0.0
H1592 H 0.7746 0.53697 0.51549 0.0
H1593 H 0.77068 0.48619 0.47114 0.0
H1594 H 0.67494 0.54552 0.44204 0.0
H1595 H 0.70778 0.54629 0.45884 0.0
C1596 C 0.05469 0.31 0.03595 0.0
C1597 C 0.04917 0.329 0.04386 0.0
C1598 C 0.04189 0.29322 0.03847 0.0
C1599 C 0.98771 0.28147 0.04804 0.0
H1600 H 0.00767 0.22632 0.0524 0.0
C1601 C 0.95729 0.19299 0.0557 0.0
C1602 C 0.94187 0.19324 0.04097 0.0
C1603 C 0.96931 0.21012 0.05903 0.0
C1604 C 0.00176 0.24163 0.05149 0.0
H1605 H 0.02663 0.34505 0.06173 0.0
H1606 H 0.00471 0.31575 0.06665 0.0
H1607 H 0.03155 0.25444 0.05358 0.0
H1608 H 0.92632 0.21197 0.01887 0.0
H1609 H 0.9475 0.2418 0.02439 0.0
H1610 H 0.95789 0.26868 0.04623 0.0
C1611 C 0.01854 0.31386 0.05796 0.0
C1612 C 0.01553 0.25777 0.05188 0.0
C1613 C 0.03121 0.33063 0.05528 0.0
C1614 C 0.93801 0.21134 0.03041 0.0
C1615 C 0.95017 0.22846 0.03361 0.0
C1616 C 0.97393 0.26534 0.04776 0.0
C1617 C 0.0234 0.29508 0.04909 0.0
C1618 C 0.00872 0.27789 0.04995 0.0
C1619 C 0.96633 0.22788 0.04758 0.0
C1620 C 0.98079 0.24519 0.04927 0.0
H1621 H 0.06837 0.3083 0.02697 0.0
H1622 H 0.04607 0.27904 0.03128 0.0
H1623 H 0.98188 0.29673 0.04623 0.0
H1624 H 0.96054 0.17931 0.06422 0.0
H1625 H 0.98127 0.20928 0.07027 0.0
C1626 C 0.06195 0.68461 0.47252 0.0
C1627 C 0.05399 0.66505 0.4695 0.0
C1628 C 0.04968 0.70177 0.46965 0.0
C1629 C 0.99688 0.71664 0.47429 0.0
H1630 H 0.01228 0.76562 0.44564 0.0
C1631 C 0.94376 0.78621 0.47373 0.0
C1632 C 0.9531 0.80524 0.47575 0.0
C1633 C 0.9554 0.76893 0.4694 0.0
C1634 C 0.0078 0.75216 0.45391 0.0
H1635 H 0.02722 0.64826 0.46009 0.0
H1636 H 0.00592 0.6781 0.45543 0.0
H1637 H 0.03477 0.73613 0.44495 0.0
H1638 H 0.98191 0.82116 0.47425 0.0
H1639 H 0.00214 0.79124 0.46754 0.0
H1640 H 0.97052 0.73269 0.48419 0.0
C1641 C 0.02158 0.68015 0.46004 0.0
C1642 C 0.02068 0.73525 0.45341 0.0
C1643 C 0.03385 0.66308 0.46263 0.0
C1644 C 0.97418 0.80674 0.47269 0.0
C1645 C 0.98583 0.7895 0.46868 0.0
C1646 C 0.98418 0.73361 0.47509 0.0
C1647 C 0.02921 0.69962 0.46397 0.0
C1648 C 0.01537 0.71738 0.46367 0.0
C1649 C 0.97669 0.77027 0.46731 0.0
C1650 C 0.9895 0.75169 0.46505 0.0
H1651 H 0.07738 0.68663 0.47782 0.0
H1652 H 0.0559 0.71664 0.47285 0.0
H1653 H 0.99254 0.70311 0.48256 0.0
H1654 H 0.92753 0.78458 0.4759 0.0
H1655 H 0.94772 0.75448 0.46802 0.0
C1656 C 0.54427 0.8114 0.54368 0.0
C1657 C 0.56137 0.80896 0.53116 0.0
C1658 C 0.53103 0.79521 0.54715 0.0
C1659 C 0.52452 0.7393 0.53966 0.0
H1660 H 0.46737 0.75361 0.53966 0.0
C1661 C 0.46334 0.67731 0.5441 0.0
C1662 C 0.44618 0.67972 0.53169 0.0
C1663 C 0.47669 0.69345 0.54732 0.0
C1664 C 0.48324 0.74929 0.53954 0.0
H1665 H 0.5785 0.78746 0.51312 0.0
H1666 H 0.55512 0.75934 0.5186 0.0
H1667 H 0.4928 0.78023 0.53887 0.0
H1668 H 0.42911 0.7011 0.51348 0.0
H1669 H 0.4527 0.72915 0.51849 0.0
H1670 H 0.51496 0.70837 0.539 0.0
C1671 C 0.55208 0.7736 0.52618 0.0
C1672 C 0.49791 0.76462 0.53943 0.0
C1673 C 0.56553 0.78974 0.52299 0.0
C1674 C 0.44213 0.69885 0.52326 0.0
C1675 C 0.45569 0.71495 0.5262 0.0
C1676 C 0.50985 0.72397 0.5395 0.0
C1677 C 0.53435 0.77627 0.53789 0.0
C1678 C 0.51878 0.75986 0.53933 0.0
C1679 C 0.47342 0.71233 0.53789 0.0
C1680 C 0.48898 0.72874 0.53929 0.0
H1681 H 0.54078 0.82602 0.55032 0.0
H1682 H 0.5179 0.79774 0.55673 0.0
H1683 H 0.54039 0.73498 0.53986 0.0
H1684 H 0.46675 0.66275 0.55095 0.0
H1685 H 0.48981 0.69095 0.55689 0.0
C1686 C 0.5218 0.56506 0.78841 0.0
C1687 C 0.53004 0.56139 0.80768 0.0
C1688 C 0.52552 0.55156 0.77244 0.0
C1689 C 0.54014 0.49769 0.76446 0.0
H1690 H 0.53839 0.5135 0.70793 0.0
C1691 C 0.52275 0.44057 0.70035 0.0
C1692 C 0.53051 0.44433 0.68089 0.0
C1693 C 0.52618 0.45438 0.7161 0.0
C1694 C 0.53929 0.50873 0.72362 0.0
H1695 H 0.54992 0.54173 0.825 0.0
H1696 H 0.55724 0.51879 0.797 0.0
H1697 H 0.5393 0.53948 0.73397 0.0
H1698 H 0.5492 0.46463 0.66297 0.0
H1699 H 0.55602 0.48814 0.69057 0.0
H1700 H 0.54066 0.46695 0.7541 0.0
C1701 C 0.54723 0.53155 0.7943 0.0
C1702 C 0.53948 0.52372 0.73861 0.0
C1703 C 0.54323 0.54483 0.81032 0.0
C1704 C 0.54285 0.46144 0.6778 0.0
C1705 C 0.54658 0.47504 0.69359 0.0
C1706 C 0.54022 0.48271 0.74945 0.0
C1707 C 0.53781 0.53427 0.77535 0.0
C1708 C 0.53955 0.51842 0.75927 0.0
C1709 C 0.53774 0.47209 0.7128 0.0
C1710 C 0.53944 0.488 0.72882 0.0
H1711 H 0.51143 0.5776 0.78599 0.0
H1712 H 0.51782 0.55414 0.75817 0.0
H1713 H 0.5399 0.49291 0.78016 0.0
H1714 H 0.51304 0.42759 0.70312 0.0
H1715 H 0.51892 0.45162 0.73058 0.0
C1716 C 0.48294 0.93695 0.7947 0.0
C1717 C 0.48207 0.94657 0.81367 0.0
C1718 C 0.4797 0.94807 0.77689 0.0
C1719 C 0.46237 0.99874 0.75741 0.0
H1720 H 0.49985 0.98651 0.71373 0.0
C1721 C 0.48469 0.05494 0.69301 0.0
C1722 C 0.48594 0.04678 0.67336 0.0
C1723 C 0.48094 0.04225 0.70966 0.0
C1724 C 0.48912 0.98998 0.72571 0.0
H1725 H 0.47615 0.97518 0.82888 0.0
H1726 H 0.47115 0.99453 0.79809 0.0
H1727 H 0.49872 0.96456 0.74333 0.0
H1728 H 0.48342 0.01907 0.65571 0.0
H1729 H 0.4771 0.99712 0.68467 0.0
H1730 H 0.45354 0.02478 0.73992 0.0
C1731 C 0.47391 0.97839 0.79677 0.0
C1732 C 0.48835 0.97731 0.74266 0.0
C1733 C 0.47692 0.96726 0.81451 0.0
C1734 C 0.48266 0.02587 0.67064 0.0
C1735 C 0.47911 0.01324 0.68723 0.0
C1736 C 0.46335 0.01158 0.74053 0.0
C1737 C 0.47573 0.96908 0.77768 0.0
C1738 C 0.4751 0.9816 0.75885 0.0
C1739 C 0.47857 0.02121 0.70693 0.0
C1740 C 0.47683 0.00737 0.72458 0.0
H1741 H 0.48676 0.921 0.79356 0.0
H1742 H 0.48078 0.94027 0.76248 0.0
H1743 H 0.45172 0.00237 0.7694 0.0
H1744 H 0.48714 0.07098 0.69559 0.0
H1745 H 0.48068 0.04878 0.72473 0.0
C1746 C 0.43718 0.29883 0.95278 0.0
C1747 C 0.44004 0.31701 0.94204 0.0
C1748 C 0.4508 0.28268 0.95041 0.0
C1749 C 0.50404 0.2733 0.93461 0.0
H1750 H 0.48857 0.21699 0.9413 0.0
C1751 C 0.54076 0.18677 0.93624 0.0
C1752 C 0.55807 0.19047 0.94812 0.0
C1753 C 0.52694 0.20231 0.93209 0.0
C1754 C 0.4932 0.2326 0.93907 0.0
H1755 H 0.45853 0.332 0.91931 0.0
H1756 H 0.48179 0.30365 0.91462 0.0
H1757 H 0.46239 0.24295 0.93943 0.0
H1758 H 0.57493 0.21361 0.96425 0.0
H1759 H 0.55062 0.24069 0.95743 0.0
H1760 H 0.53484 0.26291 0.93391 0.0
C1761 C 0.46948 0.30204 0.9254 0.0
C1762 C 0.47814 0.24755 0.9383 0.0
C1763 C 0.45601 0.31824 0.92794 0.0
C1764 C 0.5618 0.21031 0.95493 0.0
C1765 C 0.54783 0.22585 0.95097 0.0
C1766 C 0.5191 0.25833 0.93523 0.0
C1767 C 0.46746 0.28428 0.93707 0.0
C1768 C 0.48335 0.26814 0.93633 0.0
C1769 C 0.52994 0.22192 0.93994 0.0
C1770 C 0.51391 0.23779 0.93774 0.0
H1771 H 0.4251 0.29748 0.96387 0.0
H1772 H 0.44881 0.26934 0.95979 0.0
H1773 H 0.50871 0.289 0.93335 0.0
H1774 H 0.53755 0.17166 0.93062 0.0
H1775 H 0.51364 0.19882 0.9231 0.0
loop_
_geom_bond_atom_site_label_1
_geom_bond_atom_site_label_2
_geom_bond_distance
_geom_bond_site_symmetry_2
_ccdc_geom_bond_type
O0 Cd1 2.223 1_455 S
O0 C8 1.315 . S
Cd1 O0 2.223 1_655 S
Cd1 O4 2.297 . S
Cd1 O5 2.439 . S
Cd1 O11 2.240 . S
Cd2 O3 2.240 . S
Cd2 O10 2.204 1_455 S
Cd2 O12 2.297 . S
Cd2 O13 2.439 1_455 S
O3 Cd2 2.240 . S
O3 C8 1.279 . S
O4 Cd1 2.297 . S
O4 C6 1.247 . S
O5 Cd1 2.439 . S
O5 C6 1.208 . S
C6 O4 1.247 . S
C6 O5 1.208 . S
C7 O12 1.233 1_655 S
C7 O13 1.211 . S
C8 O0 1.315 . S
C8 O3 1.279 . S
C9 O10 1.345 . S
C9 O11 1.279 . S
O10 Cd2 2.204 1_655 S
O10 C9 1.345 . S
O11 Cd1 2.240 . S
O11 C9 1.279 . S
O12 Cd2 2.297 . S
O12 C7 1.233 1_455 S
O13 Cd2 2.439 1_655 S
O13 C7 1.211 . S
O14 Cd15 2.223 1_655 S
O14 C22 1.315 . S
Cd15 O14 2.223 1_455 S
Cd15 O18 2.297 . S
Cd15 O19 2.439 . S
Cd15 O25 2.240 . S
Cd16 O17 2.240 . S
Cd16 O24 2.238 . S
Cd16 O26 2.297 . S
Cd16 O27 2.424 1_655 S
O17 Cd16 2.240 . S
O17 C22 1.279 . S
O18 Cd15 2.297 . S
O18 C20 1.247 . S
O19 Cd15 2.439 . S
O19 C20 1.208 . S
C20 O18 1.247 . S
C20 O19 1.208 . S
C21 O26 1.263 . S
C21 O27 1.206 1_655 S
C22 O14 1.315 . S
C22 O17 1.279 . S
C23 O24 1.291 1_455 S
C23 O25 1.279 . S
O24 Cd16 2.238 . S
O24 C23 1.291 1_655 S
O25 Cd15 2.240 . S
O25 C23 1.279 . S
O26 Cd16 2.297 . S
O26 C21 1.263 . S
O27 Cd16 2.424 1_455 S
O27 C21 1.206 1_455 S
O28 Cd29 2.223 1_455 S
O28 C36 1.315 . S
Cd29 O28 2.223 1_655 S
Cd29 O32 2.297 . S
Cd29 O33 2.439 . S
Cd29 O39 2.240 . S
Cd30 O31 2.240 . S
Cd30 O38 2.213 1_455 S
Cd30 O40 2.297 . S
Cd30 O41 2.441 . S
O31 Cd30 2.240 . S
O31 C36 1.279 . S
O32 Cd29 2.297 . S
O32 C34 1.247 . S
O33 Cd29 2.439 . S
O33 C34 1.208 . S
C34 O32 1.247 . S
C34 O33 1.208 . S
C35 O40 1.247 . S
C35 O41 1.209 . S
C36 O28 1.315 . S
C36 O31 1.279 . S
C37 O38 1.331 . S
C37 O39 1.279 . S
O38 Cd30 2.213 1_655 S
O38 C37 1.331 . S
O39 Cd29 2.240 . S
O39 C37 1.279 . S
O40 Cd30 2.297 . S
O40 C35 1.247 . S
O41 Cd30 2.441 . S
O41 C35 1.209 . S
O42 Cd43 2.223 1_655 S
O42 C50 1.315 . S
Cd43 O42 2.223 1_455 S
Cd43 O46 2.297 . S
Cd43 O47 2.439 . S
Cd43 O53 2.240 . S
Cd44 O45 2.240 . S
Cd44 O52 2.243 . S
Cd44 O54 2.297 . S
Cd44 O55 2.468 . S
O45 Cd44 2.240 . S
O45 C50 1.279 . S
O46 Cd43 2.297 . S
O46 C48 1.247 . S
O47 Cd43 2.439 . S
O47 C48 1.208 . S
C48 O46 1.247 . S
C48 O47 1.208 . S
C49 O54 1.247 . S
C49 O55 1.215 . S
C50 O42 1.315 . S
C50 O45 1.279 . S
C51 O52 1.284 1_455 S
C51 O53 1.279 . S
O52 Cd44 2.243 . S
O52 C51 1.284 1_655 S
O53 Cd43 2.240 . S
O53 C51 1.279 . S
O54 Cd44 2.297 . S
O54 C49 1.247 . S
O55 Cd44 2.468 . S
O55 C49 1.215 . S
O56 Cd57 2.223 1_545 S
O56 C64 1.315 . S
Cd57 O56 2.223 1_565 S
Cd57 O60 2.297 . S
Cd57 O61 2.439 . S
Cd57 O67 2.240 . S
Cd58 O59 2.240 . S
Cd58 O66 2.204 1_545 S
Cd58 O68 2.297 . S
Cd58 O69 2.439 1_545 S
O59 Cd58 2.240 . S
O59 C64 1.279 . S
O60 Cd57 2.297 . S
O60 C62 1.247 . S
O61 Cd57 2.439 . S
O61 C62 1.208 . S
C62 O60 1.247 . S
C62 O61 1.208 . S
C63 O68 1.233 1_565 S
C63 O69 1.211 . S
C64 O56 1.315 . S
C64 O59 1.279 . S
C65 O66 1.345 . S
C65 O67 1.279 . S
O66 Cd58 2.204 1_565 S
O66 C65 1.345 . S
O67 Cd57 2.240 . S
O67 C65 1.279 . S
O68 Cd58 2.297 . S
O68 C63 1.233 1_545 S
O69 Cd58 2.439 1_565 S
O69 C63 1.211 . S
O70 Cd71 2.223 . S
O70 C78 1.315 . S
Cd71 O70 2.223 . S
Cd71 O74 2.297 . S
Cd71 O75 2.439 . S
Cd71 O81 2.240 . S
Cd72 O73 2.240 . S
Cd72 O80 2.223 . S
Cd72 O82 2.297 . S
Cd72 O83 2.439 . S
O73 Cd72 2.240 . S
O73 C78 1.279 . S
O74 Cd71 2.297 . S
O74 C76 1.247 . S
O75 Cd71 2.439 . S
O75 C76 1.208 . S
C76 O74 1.247 . S
C76 O75 1.208 . S
C77 O82 1.247 . S
C77 O83 1.208 . S
C78 O70 1.315 . S
C78 O73 1.279 . S
C79 O80 1.315 . S
C79 O81 1.279 . S
O80 Cd72 2.223 . S
O80 C79 1.315 . S
O81 Cd71 2.240 . S
O81 C79 1.279 . S
O82 Cd72 2.297 . S
O82 C77 1.247 . S
O83 Cd72 2.439 . S
O83 C77 1.208 . S
O84 Cd85 2.223 1_565 S
O84 C92 1.315 . S
Cd85 O84 2.223 1_545 S
Cd85 O88 2.297 . S
Cd85 O89 2.439 . S
Cd85 O95 2.240 . S
Cd86 O87 2.240 . S
Cd86 O94 2.238 . S
Cd86 O96 2.297 . S
Cd86 O97 2.424 1_565 S
O87 Cd86 2.240 . S
O87 C92 1.279 . S
O88 Cd85 2.297 . S
O88 C90 1.247 . S
O89 Cd85 2.439 . S
O89 C90 1.208 . S
C90 O88 1.247 . S
C90 O89 1.208 . S
C91 O96 1.263 . S
C91 O97 1.206 1_565 S
C92 O84 1.315 . S
C92 O87 1.279 . S
C93 O94 1.291 1_545 S
C93 O95 1.279 . S
O94 Cd86 2.238 . S
O94 C93 1.291 1_565 S
O95 Cd85 2.240 . S
O95 C93 1.279 . S
O96 Cd86 2.297 . S
O96 C91 1.263 . S
O97 Cd86 2.424 1_545 S
O97 C91 1.206 1_545 S
O98 Cd99 2.223 . S
O98 C106 1.315 . S
Cd99 O98 2.223 . S
Cd99 O102 2.297 . S
Cd99 O103 2.439 . S
Cd99 O109 2.240 . S
Cd100 O101 2.240 . S
Cd100 O108 2.223 . S
Cd100 O110 2.297 . S
Cd100 O111 2.439 . S
O101 Cd100 2.240 . S
O101 C106 1.279 . S
O102 Cd99 2.297 . S
O102 C104 1.247 . S
O103 Cd99 2.439 . S
O103 C104 1.208 . S
C104 O102 1.247 . S
C104 O103 1.208 . S
C105 O110 1.247 . S
C105 O111 1.208 . S
C106 O98 1.315 . S
C106 O101 1.279 . S
C107 O108 1.315 . S
C107 O109 1.279 . S
O108 Cd100 2.223 . S
O108 C107 1.315 . S
O109 Cd99 2.240 . S
O109 C107 1.279 . S
O110 Cd100 2.297 . S
O110 C105 1.247 . S
O111 Cd100 2.439 . S
O111 C105 1.208 . S
O112 Cd113 2.223 1_554 S
O112 C120 1.315 . S
Cd113 O112 2.223 1_556 S
Cd113 O116 2.297 . S
Cd113 O117 2.439 . S
Cd113 O123 2.240 . S
Cd114 O115 2.240 . S
Cd114 O122 2.204 1_554 S
Cd114 O124 2.297 . S
Cd114 O125 2.439 1_554 S
O115 Cd114 2.240 . S
O115 C120 1.279 . S
O116 Cd113 2.297 . S
O116 C118 1.247 . S
O117 Cd113 2.439 . S
O117 C118 1.208 . S
C118 O116 1.247 . S
C118 O117 1.208 . S
C119 O124 1.233 1_556 S
C119 O125 1.211 . S
C120 O112 1.315 . S
C120 O115 1.279 . S
C121 O122 1.345 . S
C121 O123 1.279 . S
O122 Cd114 2.204 1_556 S
O122 C121 1.345 . S
O123 Cd113 2.240 . S
O123 C121 1.279 . S
O124 Cd114 2.297 . S
O124 C119 1.233 1_554 S
O125 Cd114 2.439 1_556 S
O125 C119 1.211 . S
O126 Cd127 2.223 . S
O126 C134 1.315 . S
Cd127 O126 2.223 . S
Cd127 O130 2.297 . S
Cd127 O131 2.439 . S
Cd127 O137 2.240 . S
Cd128 O129 2.240 . S
Cd128 O136 2.223 . S
Cd128 O138 2.297 . S
Cd128 O139 2.439 . S
O129 Cd128 2.240 . S
O129 C134 1.279 . S
O130 Cd127 2.297 . S
O130 C132 1.247 . S
O131 Cd127 2.439 . S
O131 C132 1.208 . S
C132 O130 1.247 . S
C132 O131 1.208 . S
C133 O138 1.247 . S
C133 O139 1.208 . S
C134 O126 1.315 . S
C134 O129 1.279 . S
C135 O136 1.315 . S
C135 O137 1.279 . S
O136 Cd128 2.223 . S
O136 C135 1.315 . S
O137 Cd127 2.240 . S
O137 C135 1.279 . S
O138 Cd128 2.297 . S
O138 C133 1.247 . S
O139 Cd128 2.439 . S
O139 C133 1.208 . S
O140 Cd141 2.223 . S
O140 C148 1.315 . S
Cd141 O140 2.223 . S
Cd141 O144 2.297 . S
Cd141 O145 2.439 . S
Cd141 O151 2.240 . S
Cd142 O143 2.240 . S
Cd142 O150 2.223 . S
Cd142 O152 2.297 . S
Cd142 O153 2.439 . S
O143 Cd142 2.240 . S
O143 C148 1.279 . S
O144 Cd141 2.297 . S
O144 C146 1.247 . S
O145 Cd141 2.439 . S
O145 C146 1.208 . S
C146 O144 1.247 . S
C146 O145 1.208 . S
C147 O152 1.247 . S
C147 O153 1.208 . S
C148 O140 1.315 . S
C148 O143 1.279 . S
C149 O150 1.315 . S
C149 O151 1.279 . S
O150 Cd142 2.223 . S
O150 C149 1.315 . S
O151 Cd141 2.240 . S
O151 C149 1.279 . S
O152 Cd142 2.297 . S
O152 C147 1.247 . S
O153 Cd142 2.439 . S
O153 C147 1.208 . S
O154 Cd155 2.223 . S
O154 C162 1.315 . S
Cd155 O154 2.223 . S
Cd155 O158 2.297 . S
Cd155 O159 2.439 . S
Cd155 O165 2.240 . S
Cd156 O157 2.240 . S
Cd156 O164 2.223 . S
Cd156 O166 2.297 . S
Cd156 O167 2.439 . S
O157 Cd156 2.240 . S
O157 C162 1.279 . S
O158 Cd155 2.297 . S
O158 C160 1.247 . S
O159 Cd155 2.439 . S
O159 C160 1.208 . S
C160 O158 1.247 . S
C160 O159 1.208 . S
C161 O166 1.247 . S
C161 O167 1.208 . S
C162 O154 1.315 . S
C162 O157 1.279 . S
C163 O164 1.315 . S
C163 O165 1.279 . S
O164 Cd156 2.223 . S
O164 C163 1.315 . S
O165 Cd155 2.240 . S
O165 C163 1.279 . S
O166 Cd156 2.297 . S
O166 C161 1.247 . S
O167 Cd156 2.439 . S
O167 C161 1.208 . S
O168 Cd169 2.223 . S
O168 C176 1.315 . S
Cd169 O168 2.223 . S
Cd169 O172 2.297 . S
Cd169 O173 2.439 . S
Cd169 O179 2.240 . S
Cd170 O171 2.240 . S
Cd170 O178 2.223 . S
Cd170 O180 2.297 . S
Cd170 O181 2.439 . S
O171 Cd170 2.240 . S
O171 C176 1.279 . S
O172 Cd169 2.297 . S
O172 C174 1.247 . S
O173 Cd169 2.439 . S
O173 C174 1.208 . S
C174 O172 1.247 . S
C174 O173 1.208 . S
C175 O180 1.247 . S
C175 O181 1.208 . S
C176 O168 1.315 . S
C176 O171 1.279 . S
C177 O178 1.315 . S
C177 O179 1.279 . S
O178 Cd170 2.223 . S
O178 C177 1.315 . S
O179 Cd169 2.240 . S
O179 C177 1.279 . S
O180 Cd170 2.297 . S
O180 C175 1.247 . S
O181 Cd170 2.439 . S
O181 C175 1.208 . S
O182 Cd183 2.223 . S
O182 C190 1.315 . S
Cd183 O182 2.223 . S
Cd183 O186 2.297 . S
Cd183 O187 2.439 . S
Cd183 O193 2.240 . S
Cd184 O185 2.240 . S
Cd184 O192 2.223 . S
Cd184 O194 2.297 . S
Cd184 O195 2.439 . S
O185 Cd184 2.240 . S
O185 C190 1.279 . S
O186 Cd183 2.297 . S
O186 C188 1.247 . S
O187 Cd183 2.439 . S
O187 C188 1.208 . S
C188 O186 1.247 . S
C188 O187 1.208 . S
C189 O194 1.247 . S
C189 O195 1.208 . S
C190 O182 1.315 . S
C190 O185 1.279 . S
C191 O192 1.315 . S
C191 O193 1.279 . S
O192 Cd184 2.223 . S
O192 C191 1.315 . S
O193 Cd183 2.240 . S
O193 C191 1.279 . S
O194 Cd184 2.297 . S
O194 C189 1.247 . S
O195 Cd184 2.439 . S
O195 C189 1.208 . S
O196 Cd197 2.223 . S
O196 C204 1.315 . S
Cd197 O196 2.223 . S
Cd197 O200 2.297 . S
Cd197 O201 2.439 . S
Cd197 O207 2.240 . S
Cd198 O199 2.240 . S
Cd198 O206 2.223 . S
Cd198 O208 2.297 . S
Cd198 O209 2.439 . S
O199 Cd198 2.240 . S
O199 C204 1.279 . S
O200 Cd197 2.297 . S
O200 C202 1.247 . S
O201 Cd197 2.439 . S
O201 C202 1.208 . S
C202 O200 1.247 . S
C202 O201 1.208 . S
C203 O208 1.247 . S
C203 O209 1.208 . S
C204 O196 1.315 . S
C204 O199 1.279 . S
C205 O206 1.315 . S
C205 O207 1.279 . S
O206 Cd198 2.223 . S
O206 C205 1.315 . S
O207 Cd197 2.240 . S
O207 C205 1.279 . S
O208 Cd198 2.297 . S
O208 C203 1.247 . S
O209 Cd198 2.439 . S
O209 C203 1.208 . S
O210 Cd211 2.223 . S
O210 C218 1.315 . S
Cd211 O210 2.223 . S
Cd211 O214 2.297 . S
Cd211 O215 2.439 . S
Cd211 O221 2.240 . S
Cd212 O213 2.240 . S
Cd212 O220 2.223 . S
Cd212 O222 2.297 . S
Cd212 O223 2.439 . S
O213 Cd212 2.240 . S
O213 C218 1.279 . S
O214 Cd211 2.297 . S
O214 C216 1.247 . S
O215 Cd211 2.439 . S
O215 C216 1.208 . S
C216 O214 1.247 . S
C216 O215 1.208 . S
C217 O222 1.247 . S
C217 O223 1.208 . S
C218 O210 1.315 . S
C218 O213 1.279 . S
C219 O220 1.315 . S
C219 O221 1.279 . S
O220 Cd212 2.223 . S
O220 C219 1.315 . S
O221 Cd211 2.240 . S
O221 C219 1.279 . S
O222 Cd212 2.297 . S
O222 C217 1.247 . S
O223 Cd212 2.439 . S
O223 C217 1.208 . S
O224 Cd225 2.223 . S
O224 C232 1.315 . S
Cd225 O224 2.223 . S
Cd225 O228 2.297 . S
Cd225 O229 2.439 . S
Cd225 O235 2.240 . S
Cd226 O227 2.240 . S
Cd226 O234 2.223 . S
Cd226 O236 2.297 . S
Cd226 O237 2.439 . S
O227 Cd226 2.240 . S
O227 C232 1.279 . S
O228 Cd225 2.297 . S
O228 C230 1.247 . S
O229 Cd225 2.439 . S
O229 C230 1.208 . S
C230 O228 1.247 . S
C230 O229 1.208 . S
C231 O236 1.247 . S
C231 O237 1.208 . S
C232 O224 1.315 . S
C232 O227 1.279 . S
C233 O234 1.315 . S
C233 O235 1.279 . S
O234 Cd226 2.223 . S
O234 C233 1.315 . S
O235 Cd225 2.240 . S
O235 C233 1.279 . S
O236 Cd226 2.297 . S
O236 C231 1.247 . S
O237 Cd226 2.439 . S
O237 C231 1.208 . S
O238 Cd239 2.223 1_565 S
O238 C246 1.315 . S
Cd239 O238 2.223 1_545 S
Cd239 O242 2.297 . S
Cd239 O243 2.439 . S
Cd239 O249 2.240 . S
Cd240 O241 2.240 . S
Cd240 O248 2.243 . S
Cd240 O250 2.297 . S
Cd240 O251 2.468 . S
O241 Cd240 2.240 . S
O241 C246 1.279 . S
O242 Cd239 2.297 . S
O242 C244 1.247 . S
O243 Cd239 2.439 . S
O243 C244 1.208 . S
C244 O242 1.247 . S
C244 O243 1.208 . S
C245 O250 1.247 . S
C245 O251 1.215 . S
C246 O238 1.315 . S
C246 O241 1.279 . S
C247 O248 1.284 1_545 S
C247 O249 1.279 . S
O248 Cd240 2.243 . S
O248 C247 1.284 1_565 S
O249 Cd239 2.240 . S
O249 C247 1.279 . S
O250 Cd240 2.297 . S
O250 C245 1.247 . S
O251 Cd240 2.468 . S
O251 C245 1.215 . S
O252 Cd253 2.223 . S
O252 C260 1.315 . S
Cd253 O252 2.223 . S
Cd253 O256 2.297 . S
Cd253 O257 2.439 . S
Cd253 O263 2.240 . S
Cd254 O255 2.240 . S
Cd254 O262 2.223 . S
Cd254 O264 2.297 . S
Cd254 O265 2.439 . S
O255 Cd254 2.240 . S
O255 C260 1.279 . S
O256 Cd253 2.297 . S
O256 C258 1.247 . S
O257 Cd253 2.439 . S
O257 C258 1.208 . S
C258 O256 1.247 . S
C258 O257 1.208 . S
C259 O264 1.247 . S
C259 O265 1.208 . S
C260 O252 1.315 . S
C260 O255 1.279 . S
C261 O262 1.315 . S
C261 O263 1.279 . S
O262 Cd254 2.223 . S
O262 C261 1.315 . S
O263 Cd253 2.240 . S
O263 C261 1.279 . S
O264 Cd254 2.297 . S
O264 C259 1.247 . S
O265 Cd254 2.439 . S
O265 C259 1.208 . S
O266 Cd267 2.223 1_545 S
O266 C274 1.315 . S
Cd267 O266 2.223 1_565 S
Cd267 O270 2.297 . S
Cd267 O271 2.439 . S
Cd267 O277 2.240 . S
Cd268 O269 2.240 . S
Cd268 O276 2.213 1_545 S
Cd268 O278 2.297 . S
Cd268 O279 2.441 . S
O269 Cd268 2.240 . S
O269 C274 1.279 . S
O270 Cd267 2.297 . S
O270 C272 1.247 . S
O271 Cd267 2.439 . S
O271 C272 1.208 . S
C272 O270 1.247 . S
C272 O271 1.208 . S
C273 O278 1.247 . S
C273 O279 1.209 . S
C274 O266 1.315 . S
C274 O269 1.279 . S
C275 O276 1.331 . S
C275 O277 1.279 . S
O276 Cd268 2.213 1_565 S
O276 C275 1.331 . S
O277 Cd267 2.240 . S
O277 C275 1.279 . S
O278 Cd268 2.297 . S
O278 C273 1.247 . S
O279 Cd268 2.441 . S
O279 C273 1.209 . S
O280 Cd281 2.223 . S
O280 C288 1.315 . S
Cd281 O280 2.223 . S
Cd281 O284 2.297 . S
Cd281 O285 2.439 . S
Cd281 O291 2.240 . S
Cd282 O283 2.240 . S
Cd282 O290 2.223 . S
Cd282 O292 2.297 . S
Cd282 O293 2.439 . S
O283 Cd282 2.240 . S
O283 C288 1.279 . S
O284 Cd281 2.297 . S
O284 C286 1.247 . S
O285 Cd281 2.439 . S
O285 C286 1.208 . S
C286 O284 1.247 . S
C286 O285 1.208 . S
C287 O292 1.247 . S
C287 O293 1.208 . S
C288 O280 1.315 . S
C288 O283 1.279 . S
C289 O290 1.315 . S
C289 O291 1.279 . S
O290 Cd282 2.223 . S
O290 C289 1.315 . S
O291 Cd281 2.240 . S
O291 C289 1.279 . S
O292 Cd282 2.297 . S
O292 C287 1.247 . S
O293 Cd282 2.439 . S
O293 C287 1.208 . S
O294 Cd295 2.223 1_556 S
O294 C302 1.315 . S
Cd295 O294 2.223 1_554 S
Cd295 O298 2.297 . S
Cd295 O299 2.439 . S
Cd295 O305 2.240 . S
Cd296 O297 2.240 . S
Cd296 O304 2.243 . S
Cd296 O306 2.297 . S
Cd296 O307 2.468 . S
O297 Cd296 2.240 . S
O297 C302 1.279 . S
O298 Cd295 2.297 . S
O298 C300 1.247 . S
O299 Cd295 2.439 . S
O299 C300 1.208 . S
C300 O298 1.247 . S
C300 O299 1.208 . S
C301 O306 1.247 . S
C301 O307 1.215 . S
C302 O294 1.315 . S
C302 O297 1.279 . S
C303 O304 1.284 1_554 S
C303 O305 1.279 . S
O304 Cd296 2.243 . S
O304 C303 1.284 1_556 S
O305 Cd295 2.240 . S
O305 C303 1.279 . S
O306 Cd296 2.297 . S
O306 C301 1.247 . S
O307 Cd296 2.468 . S
O307 C301 1.215 . S
O308 Cd309 2.223 1_556 S
O308 C316 1.315 . S
Cd309 O308 2.223 1_554 S
Cd309 O312 2.297 . S
Cd309 O313 2.439 . S
Cd309 O319 2.240 . S
Cd310 O311 2.240 . S
Cd310 O318 2.238 . S
Cd310 O320 2.297 . S
Cd310 O321 2.424 1_556 S
O311 Cd310 2.240 . S
O311 C316 1.279 . S
O312 Cd309 2.297 . S
O312 C314 1.247 . S
O313 Cd309 2.439 . S
O313 C314 1.208 . S
C314 O312 1.247 . S
C314 O313 1.208 . S
C315 O320 1.263 . S
C315 O321 1.206 1_556 S
C316 O308 1.315 . S
C316 O311 1.279 . S
C317 O318 1.291 1_554 S
C317 O319 1.279 . S
O318 Cd310 2.238 . S
O318 C317 1.291 1_556 S
O319 Cd309 2.240 . S
O319 C317 1.279 . S
O320 Cd310 2.297 . S
O320 C315 1.263 . S
O321 Cd310 2.424 1_554 S
O321 C315 1.206 1_554 S
O322 Cd323 2.223 1_554 S
O322 C330 1.315 . S
Cd323 O322 2.223 1_556 S
Cd323 O326 2.297 . S
Cd323 O327 2.439 . S
Cd323 O333 2.240 . S
Cd324 O325 2.240 . S
Cd324 O332 2.213 1_554 S
Cd324 O334 2.297 . S
Cd324 O335 2.441 . S
O325 Cd324 2.240 . S
O325 C330 1.279 . S
O326 Cd323 2.297 . S
O326 C328 1.247 . S
O327 Cd323 2.439 . S
O327 C328 1.208 . S
C328 O326 1.247 . S
C328 O327 1.208 . S
C329 O334 1.247 . S
C329 O335 1.209 . S
C330 O322 1.315 . S
C330 O325 1.279 . S
C331 O332 1.331 . S
C331 O333 1.279 . S
O332 Cd324 2.213 1_556 S
O332 C331 1.331 . S
O333 Cd323 2.240 . S
O333 C331 1.279 . S
O334 Cd324 2.297 . S
O334 C329 1.247 . S
O335 Cd324 2.441 . S
O335 C329 1.209 . S
C336 C337 1.349 . S
C336 C338 1.327 . S
C336 H361 0.950 . S
C337 C336 1.349 . S
C337 C353 1.349 . S
C338 C336 1.327 . S
C338 C357 1.429 . S
C338 H362 0.950 . S
C339 C356 1.574 . S
C339 C358 1.368 . S
C339 H363 0.949 . S
H340 C344 0.949 . S
C341 C342 1.349 . S
C341 C343 1.327 . S
C341 H364 0.950 . S
C342 C341 1.349 . S
C342 C354 1.349 . S
C343 C341 1.327 . S
C343 C359 1.429 . S
C343 H365 0.950 . S
C344 H340 0.949 . S
C344 C352 1.574 . S
C344 C360 1.368 . S
H345 C353 0.950 . S
H346 C351 0.950 . S
H347 C352 0.949 . S
H348 C354 0.950 . S
H349 C355 0.950 . S
H350 C356 0.949 . S
C351 H346 0.950 . S
C351 C353 1.327 . S
C351 C357 1.429 . S
C352 C344 1.574 . S
C352 H347 0.949 . S
C352 C358 1.368 . S
C353 C337 1.349 . S
C353 H345 0.950 . S
C353 C351 1.327 . S
C354 C342 1.349 . S
C354 H348 0.950 . S
C354 C355 1.327 . S
C355 H349 0.950 . S
C355 C354 1.327 . S
C355 C359 1.429 . S
C356 C339 1.574 . S
C356 H350 0.949 . S
C356 C360 1.368 . S
C357 C338 1.429 . S
C357 C351 1.429 . S
C357 C358 1.523 . S
C358 C339 1.368 . S
C358 C352 1.368 . S
C358 C357 1.523 . S
C359 C343 1.429 . S
C359 C355 1.429 . S
C359 C360 1.523 . S
C360 C344 1.368 . S
C360 C356 1.368 . S
C360 C359 1.523 . S
H361 C336 0.950 . S
H362 C338 0.950 . S
H363 C339 0.949 . S
H364 C341 0.950 . S
H365 C343 0.950 . S
C366 C367 1.349 . S
C366 C368 1.327 . S
C366 H391 0.950 . S
C367 C366 1.349 . S
C367 C383 1.349 . S
C368 C366 1.327 . S
C368 C387 1.429 . S
C368 H392 0.950 . S
C369 C386 1.574 . S
C369 C388 1.368 . S
C369 H393 0.949 . S
H370 C374 0.949 . S
C371 C372 1.349 . S
C371 C373 1.327 . S
C371 H394 0.950 . S
C372 C371 1.349 . S
C372 C384 1.349 . S
C373 C371 1.327 . S
C373 C389 1.429 . S
C373 H395 0.950 . S
C374 H370 0.949 . S
C374 C382 1.574 . S
C374 C390 1.368 . S
H375 C383 0.950 . S
H376 C381 0.950 . S
H377 C382 0.949 . S
H378 C384 0.950 . S
H379 C385 0.950 . S
H380 C386 0.949 . S
C381 H376 0.950 . S
C381 C383 1.327 . S
C381 C387 1.429 . S
C382 C374 1.574 . S
C382 H377 0.949 . S
C382 C388 1.368 . S
C383 C367 1.349 . S
C383 H375 0.950 . S
C383 C381 1.327 . S
C384 C372 1.349 . S
C384 H378 0.950 . S
C384 C385 1.327 . S
C385 H379 0.950 . S
C385 C384 1.327 . S
C385 C389 1.429 . S
C386 C369 1.574 . S
C386 H380 0.949 . S
C386 C390 1.368 . S
C387 C368 1.429 . S
C387 C381 1.429 . S
C387 C388 1.523 . S
C388 C369 1.368 . S
C388 C382 1.368 . S
C388 C387 1.523 . S
C389 C373 1.429 . S
C389 C385 1.429 . S
C389 C390 1.523 . S
C390 C374 1.368 . S
C390 C386 1.368 . S
C390 C389 1.523 . S
H391 C366 0.950 . S
H392 C368 0.950 . S
H393 C369 0.949 . S
H394 C371 0.950 . S
H395 C373 0.950 . S
C396 C397 1.349 . S
C396 C398 1.327 . S
C396 H421 0.950 . S
C397 C396 1.349 . S
C397 C413 1.349 . S
C398 C396 1.327 . S
C398 C417 1.429 . S
C398 H422 0.950 . S
C399 C416 1.574 . S
C399 C418 1.368 . S
C399 H423 0.949 . S
H400 C404 0.949 1_556 S
C401 C402 1.349 . S
C401 C403 1.327 . S
C401 H424 0.950 . S
C402 C401 1.349 . S
C402 C414 1.349 . S
C403 C401 1.327 . S
C403 C419 1.429 . S
C403 H425 0.950 1_556 S
C404 H400 0.949 1_554 S
C404 C412 1.574 . S
C404 C420 1.368 . S
H405 C413 0.950 . S
H406 C411 0.950 . S
H407 C412 0.949 . S
H408 C414 0.950 . S
H409 C415 0.950 . S
H410 C416 0.949 . S
C411 H406 0.950 . S
C411 C413 1.327 . S
C411 C417 1.429 . S
C412 C404 1.574 . S
C412 H407 0.949 . S
C412 C418 1.368 . S
C413 C397 1.349 . S
C413 H405 0.950 . S
C413 C411 1.327 . S
C414 C402 1.349 . S
C414 H408 0.950 . S
C414 C415 1.327 . S
C415 H409 0.950 . S
C415 C414 1.327 . S
C415 C419 1.429 . S
C416 C399 1.574 . S
C416 H410 0.949 . S
C416 C420 1.368 . S
C417 C398 1.429 . S
C417 C411 1.429 . S
C417 C418 1.523 . S
C418 C399 1.368 . S
C418 C412 1.368 . S
C418 C417 1.523 . S
C419 C403 1.429 . S
C419 C415 1.429 . S
C419 C420 1.523 1_556 S
C420 C404 1.368 . S
C420 C416 1.368 . S
C420 C419 1.523 1_554 S
H421 C396 0.950 . S
H422 C398 0.950 . S
H423 C399 0.949 . S
H424 C401 0.950 . S
H425 C403 0.950 1_554 S
C426 C427 1.349 . S
C426 C428 1.327 . S
C426 H451 0.950 . S
C427 C426 1.349 . S
C427 C443 1.349 . S
C428 C426 1.327 . S
C428 C447 1.429 . S
C428 H452 0.950 . S
C429 C446 1.574 . S
C429 C448 1.368 . S
C429 H453 0.949 . S
H430 C434 0.949 1_556 S
C431 C432 1.349 . S
C431 C433 1.327 . S
C431 H454 0.950 . S
C432 C431 1.349 . S
C432 C444 1.349 . S
C433 C431 1.327 . S
C433 C449 1.429 . S
C433 H455 0.950 . S
C434 H430 0.949 1_554 S
C434 C442 1.574 . S
C434 C450 1.368 . S
H435 C443 0.950 . S
H436 C441 0.950 . S
H437 C442 0.949 . S
H438 C444 0.950 . S
H439 C445 0.950 . S
H440 C446 0.949 . S
C441 H436 0.950 . S
C441 C443 1.327 . S
C441 C447 1.429 . S
C442 C434 1.574 . S
C442 H437 0.949 . S
C442 C448 1.368 . S
C443 C427 1.349 . S
C443 H435 0.950 . S
C443 C441 1.327 . S
C444 C432 1.349 . S
C444 H438 0.950 . S
C444 C445 1.327 . S
C445 H439 0.950 . S
C445 C444 1.327 . S
C445 C449 1.429 . S
C446 C429 1.574 . S
C446 H440 0.949 . S
C446 C450 1.368 . S
C447 C428 1.429 . S
C447 C441 1.429 . S
C447 C448 1.523 . S
C448 C429 1.368 . S
C448 C442 1.368 . S
C448 C447 1.523 . S
C449 C433 1.429 . S
C449 C445 1.429 . S
C449 C450 1.523 1_556 S
C450 C434 1.368 . S
C450 C446 1.368 . S
C450 C449 1.523 1_554 S
H451 C426 0.950 . S
H452 C428 0.950 . S
H453 C429 0.949 . S
H454 C431 0.950 . S
H455 C433 0.950 . S
C456 C457 1.349 . S
C456 C458 1.327 . S
C456 H481 0.950 . S
C457 C456 1.349 . S
C457 C473 1.349 . S
C458 C456 1.327 . S
C458 C477 1.429 . S
C458 H482 0.950 . S
C459 C476 1.574 . S
C459 C478 1.368 . S
C459 H483 0.949 . S
H460 C464 0.949 . S
C461 C462 1.349 . S
C461 C463 1.327 . S
C461 H484 0.950 1_554 S
C462 C461 1.349 . S
C462 C474 1.349 . S
C463 C461 1.327 . S
C463 C479 1.429 . S
C463 H485 0.950 . S
C464 H460 0.949 . S
C464 C472 1.574 . S
C464 C480 1.368 . S
H465 C473 0.950 . S
H466 C471 0.950 . S
H467 C472 0.949 . S
H468 C474 0.950 . S
H469 C475 0.950 . S
H470 C476 0.949 . S
C471 H466 0.950 . S
C471 C473 1.327 . S
C471 C477 1.429 . S
C472 C464 1.574 . S
C472 H467 0.949 . S
C472 C478 1.368 . S
C473 C457 1.349 . S
C473 H465 0.950 . S
C473 C471 1.327 . S
C474 C462 1.349 . S
C474 H468 0.950 . S
C474 C475 1.327 . S
C475 H469 0.950 . S
C475 C474 1.327 . S
C475 C479 1.429 . S
C476 C459 1.574 . S
C476 H470 0.949 . S
C476 C480 1.368 . S
C477 C458 1.429 . S
C477 C471 1.429 . S
C477 C478 1.523 . S
C478 C459 1.368 . S
C478 C472 1.368 . S
C478 C477 1.523 . S
C479 C463 1.429 . S
C479 C475 1.429 . S
C479 C480 1.523 . S
C480 C464 1.368 . S
C480 C476 1.368 . S
C480 C479 1.523 . S
H481 C456 0.950 . S
H482 C458 0.950 . S
H483 C459 0.949 . S
H484 C461 0.950 1_556 S
H485 C463 0.950 . S
C486 C487 1.349 . S
C486 C488 1.327 . S
C486 H511 0.950 . S
C487 C486 1.349 . S
C487 C503 1.349 . S
C488 C486 1.327 . S
C488 C507 1.429 . S
C488 H512 0.950 . S
C489 C506 1.574 . S
C489 C508 1.368 . S
C489 H513 0.949 . S
H490 C494 0.949 . S
C491 C492 1.349 . S
C491 C493 1.327 . S
C491 H514 0.950 1_554 S
C492 C491 1.349 . S
C492 C504 1.349 . S
C493 C491 1.327 . S
C493 C509 1.429 . S
C493 H515 0.950 . S
C494 H490 0.949 . S
C494 C502 1.574 . S
C494 C510 1.368 . S
H495 C503 0.950 . S
H496 C501 0.950 . S
H497 C502 0.949 . S
H498 C504 0.950 . S
H499 C505 0.950 . S
H500 C506 0.949 . S
C501 H496 0.950 . S
C501 C503 1.327 . S
C501 C507 1.429 . S
C502 C494 1.574 . S
C502 H497 0.949 . S
C502 C508 1.368 . S
C503 C487 1.349 . S
C503 H495 0.950 . S
C503 C501 1.327 . S
C504 C492 1.349 . S
C504 H498 0.950 . S
C504 C505 1.327 . S
C505 H499 0.950 . S
C505 C504 1.327 . S
C505 C509 1.429 . S
C506 C489 1.574 . S
C506 H500 0.949 . S
C506 C510 1.368 . S
C507 C488 1.429 . S
C507 C501 1.429 . S
C507 C508 1.523 . S
C508 C489 1.368 . S
C508 C502 1.368 . S
C508 C507 1.523 . S
C509 C493 1.429 . S
C509 C505 1.429 . S
C509 C510 1.523 . S
C510 C494 1.368 . S
C510 C506 1.368 . S
C510 C509 1.523 . S
H511 C486 0.950 . S
H512 C488 0.950 . S
H513 C489 0.949 . S
H514 C491 0.950 1_556 S
H515 C493 0.950 . S
C516 C517 1.349 . S
C516 C518 1.327 . S
C516 H541 0.950 . S
C517 C516 1.349 . S
C517 C533 1.349 . S
C518 C516 1.327 . S
C518 C537 1.429 . S
C518 H542 0.950 . S
C519 C536 1.574 . S
C519 C538 1.368 . S
C519 H543 0.949 . S
H520 C524 0.949 . S
C521 C522 1.349 . S
C521 C523 1.327 . S
C521 H544 0.950 . S
C522 C521 1.349 . S
C522 C534 1.349 . S
C523 C521 1.327 . S
C523 C539 1.429 . S
C523 H545 0.950 . S
C524 H520 0.949 . S
C524 C532 1.574 . S
C524 C540 1.368 . S
H525 C533 0.950 . S
H526 C531 0.950 . S
H527 C532 0.949 . S
H528 C534 0.950 . S
H529 C535 0.950 . S
H530 C536 0.949 . S
C531 H526 0.950 . S
C531 C533 1.327 . S
C531 C537 1.429 . S
C532 C524 1.574 . S
C532 H527 0.949 . S
C532 C538 1.368 . S
C533 C517 1.349 . S
C533 H525 0.950 . S
C533 C531 1.327 . S
C534 C522 1.349 . S
C534 H528 0.950 . S
C534 C535 1.327 . S
C535 H529 0.950 . S
C535 C534 1.327 . S
C535 C539 1.429 . S
C536 C519 1.574 . S
C536 H530 0.949 . S
C536 C540 1.368 . S
C537 C518 1.429 . S
C537 C531 1.429 . S
C537 C538 1.523 . S
C538 C519 1.368 . S
C538 C532 1.368 . S
C538 C537 1.523 . S
C539 C523 1.429 . S
C539 C535 1.429 . S
C539 C540 1.523 . S
C540 C524 1.368 . S
C540 C536 1.368 . S
C540 C539 1.523 . S
H541 C516 0.950 . S
H542 C518 0.950 . S
H543 C519 0.949 . S
H544 C521 0.950 . S
H545 C523 0.950 . S
C546 C547 1.349 . S
C546 C548 1.327 . S
C546 H571 0.950 . S
C547 C546 1.349 . S
C547 C563 1.349 . S
C548 C546 1.327 . S
C548 C567 1.429 . S
C548 H572 0.950 . S
C549 C566 1.574 . S
C549 C568 1.368 . S
C549 H573 0.949 . S
H550 C554 0.949 . S
C551 C552 1.349 . S
C551 C553 1.327 . S
C551 H574 0.950 . S
C552 C551 1.349 . S
C552 C564 1.349 . S
C553 C551 1.327 . S
C553 C569 1.429 . S
C553 H575 0.950 . S
C554 H550 0.949 . S
C554 C562 1.574 . S
C554 C570 1.368 . S
H555 C563 0.950 . S
H556 C561 0.950 . S
H557 C562 0.949 . S
H558 C564 0.950 . S
H559 C565 0.950 . S
H560 C566 0.949 . S
C561 H556 0.950 . S
C561 C563 1.327 . S
C561 C567 1.429 . S
C562 C554 1.574 . S
C562 H557 0.949 . S
C562 C568 1.368 . S
C563 C547 1.349 . S
C563 H555 0.950 . S
C563 C561 1.327 . S
C564 C552 1.349 . S
C564 H558 0.950 . S
C564 C565 1.327 . S
C565 H559 0.950 . S
C565 C564 1.327 . S
C565 C569 1.429 . S
C566 C549 1.574 . S
C566 H560 0.949 . S
C566 C570 1.368 . S
C567 C548 1.429 . S
C567 C561 1.429 . S
C567 C568 1.523 . S
C568 C549 1.368 . S
C568 C562 1.368 . S
C568 C567 1.523 . S
C569 C553 1.429 . S
C569 C565 1.429 . S
C569 C570 1.523 . S
C570 C554 1.368 . S
C570 C566 1.368 . S
C570 C569 1.523 . S
H571 C546 0.950 . S
H572 C548 0.950 . S
H573 C549 0.949 . S
H574 C551 0.950 . S
H575 C553 0.950 . S
C576 C577 1.349 . S
C576 C578 1.327 . S
C576 H601 0.950 . S
C577 C576 1.349 . S
C577 C593 1.349 . S
C578 C576 1.327 . S
C578 C597 1.429 . S
C578 H602 0.950 . S
C579 C596 1.574 . S
C579 C598 1.368 . S
C579 H603 0.949 . S
H580 C584 0.949 . S
C581 C582 1.349 . S
C581 C583 1.327 . S
C581 H604 0.950 . S
C582 C581 1.349 . S
C582 C594 1.349 . S
C583 C581 1.327 . S
C583 C599 1.429 . S
C583 H605 0.950 . S
C584 H580 0.949 . S
C584 C592 1.574 . S
C584 C600 1.368 . S
H585 C593 0.950 . S
H586 C591 0.950 . S
H587 C592 0.949 . S
H588 C594 0.950 . S
H589 C595 0.950 . S
H590 C596 0.949 . S
C591 H586 0.950 . S
C591 C593 1.327 . S
C591 C597 1.429 . S
C592 C584 1.574 . S
C592 H587 0.949 . S
C592 C598 1.368 . S
C593 C577 1.349 . S
C593 H585 0.950 . S
C593 C591 1.327 . S
C594 C582 1.349 . S
C594 H588 0.950 . S
C594 C595 1.327 . S
C595 H589 0.950 . S
C595 C594 1.327 . S
C595 C599 1.429 . S
C596 C579 1.574 . S
C596 H590 0.949 . S
C596 C600 1.368 . S
C597 C578 1.429 . S
C597 C591 1.429 . S
C597 C598 1.523 . S
C598 C579 1.368 . S
C598 C592 1.368 . S
C598 C597 1.523 . S
C599 C583 1.429 . S
C599 C595 1.429 . S
C599 C600 1.523 . S
C600 C584 1.368 . S
C600 C596 1.368 . S
C600 C599 1.523 . S
H601 C576 0.950 . S
H602 C578 0.950 . S
H603 C579 0.949 . S
H604 C581 0.950 . S
H605 C583 0.950 . S
C606 C607 1.349 . S
C606 C608 1.327 . S
C606 H631 0.950 . S
C607 C606 1.349 . S
C607 C623 1.349 . S
C608 C606 1.327 . S
C608 C627 1.429 . S
C608 H632 0.950 . S
C609 C626 1.574 . S
C609 C628 1.368 . S
C609 H633 0.949 . S
H610 C614 0.949 . S
C611 C612 1.349 . S
C611 C613 1.327 . S
C611 H634 0.950 . S
C612 C611 1.349 . S
C612 C624 1.349 . S
C613 C611 1.327 . S
C613 C629 1.429 . S
C613 H635 0.950 . S
C614 H610 0.949 . S
C614 C622 1.574 . S
C614 C630 1.368 . S
H615 C623 0.950 . S
H616 C621 0.950 . S
H617 C622 0.949 . S
H618 C624 0.950 . S
H619 C625 0.950 . S
H620 C626 0.949 . S
C621 H616 0.950 . S
C621 C623 1.327 . S
C621 C627 1.429 . S
C622 C614 1.574 . S
C622 H617 0.949 . S
C622 C628 1.368 . S
C623 C607 1.349 . S
C623 H615 0.950 . S
C623 C621 1.327 . S
C624 C612 1.349 . S
C624 H618 0.950 . S
C624 C625 1.327 . S
C625 H619 0.950 . S
C625 C624 1.327 . S
C625 C629 1.429 . S
C626 C609 1.574 . S
C626 H620 0.949 . S
C626 C630 1.368 . S
C627 C608 1.429 . S
C627 C621 1.429 . S
C627 C628 1.523 . S
C628 C609 1.368 . S
C628 C622 1.368 . S
C628 C627 1.523 . S
C629 C613 1.429 . S
C629 C625 1.429 . S
C629 C630 1.523 . S
C630 C614 1.368 . S
C630 C626 1.368 . S
C630 C629 1.523 . S
H631 C606 0.950 . S
H632 C608 0.950 . S
H633 C609 0.949 . S
H634 C611 0.950 . S
H635 C613 0.950 . S
C636 C637 1.349 . S
C636 C638 1.327 . S
C636 H661 0.950 . S
C637 C636 1.349 . S
C637 C653 1.349 . S
C638 C636 1.327 . S
C638 C657 1.429 . S
C638 H662 0.950 . S
C639 C656 1.574 . S
C639 C658 1.368 . S
C639 H663 0.949 . S
H640 C644 0.978 . S
C641 C642 1.349 . S
C641 C643 1.327 . S
C641 H664 0.950 . S
C642 C641 1.349 . S
C642 C654 1.349 . S
C643 C641 1.327 . S
C643 C659 1.429 . S
C643 H665 0.950 . S
C644 H640 0.978 . S
C644 C652 1.574 . S
C644 C660 1.368 . S
H645 C653 0.950 . S
H646 C651 0.950 . S
H647 C652 0.949 . S
H648 C654 0.950 . S
H649 C655 0.950 . S
H650 C656 0.949 . S
C651 H646 0.950 . S
C651 C653 1.327 . S
C651 C657 1.429 . S
C652 C644 1.574 . S
C652 H647 0.949 . S
C652 C658 1.368 . S
C653 C637 1.349 . S
C653 H645 0.950 . S
C653 C651 1.327 . S
C654 C642 1.349 . S
C654 H648 0.950 . S
C654 C655 1.327 . S
C655 H649 0.950 . S
C655 C654 1.327 . S
C655 C659 1.429 . S
C656 C639 1.574 . S
C656 H650 0.949 . S
C656 C660 1.368 . S
C657 C638 1.429 . S
C657 C651 1.429 . S
C657 C658 1.523 . S
C658 C639 1.368 . S
C658 C652 1.368 . S
C658 C657 1.523 . S
C659 C643 1.429 . S
C659 C655 1.429 . S
C659 C660 1.523 1_545 S
C660 C644 1.368 . S
C660 C656 1.368 . S
C660 C659 1.523 1_565 S
H661 C636 0.950 . S
H662 C638 0.950 . S
H663 C639 0.949 . S
H664 C641 0.950 . S
H665 C643 0.950 . S
C666 C667 1.349 . S
C666 C668 1.327 . S
C666 H691 0.950 . S
C667 C666 1.349 . S
C667 C683 1.349 . S
C668 C666 1.327 . S
C668 C687 1.429 . S
C668 H692 0.950 . S
C669 C686 1.574 . S
C669 C688 1.368 . S
C669 H693 0.949 . S
H670 C674 0.949 . S
C671 C672 1.349 . S
C671 C673 1.327 . S
C671 H694 0.950 . S
C672 C671 1.349 . S
C672 C684 1.349 . S
C673 C671 1.327 . S
C673 C689 1.429 . S
C673 H695 0.950 . S
C674 H670 0.949 . S
C674 C682 1.574 . S
C674 C690 1.368 . S
H675 C683 0.950 . S
H676 C681 0.950 . S
H677 C682 0.949 . S
H678 C684 0.950 . S
H679 C685 0.950 . S
H680 C686 0.949 . S
C681 H676 0.950 . S
C681 C683 1.327 . S
C681 C687 1.429 . S
C682 C674 1.574 . S
C682 H677 0.949 . S
C682 C688 1.368 . S
C683 C667 1.349 . S
C683 H675 0.950 . S
C683 C681 1.327 . S
C684 C672 1.349 . S
C684 H678 0.950 . S
C684 C685 1.327 . S
C685 H679 0.950 . S
C685 C684 1.327 . S
C685 C689 1.429 . S
C686 C669 1.574 . S
C686 H680 0.949 . S
C686 C690 1.368 . S
C687 C668 1.429 . S
C687 C681 1.429 . S
C687 C688 1.523 . S
C688 C669 1.368 . S
C688 C682 1.368 . S
C688 C687 1.523 . S
C689 C673 1.429 . S
C689 C685 1.429 . S
C689 C690 1.523 . S
C690 C674 1.368 . S
C690 C686 1.368 . S
C690 C689 1.523 . S
H691 C666 0.950 . S
H692 C668 0.950 . S
H693 C669 0.949 . S
H694 C671 0.950 . S
H695 C673 0.950 . S
C696 C697 1.349 . S
C696 C698 1.327 . S
C696 H721 0.950 . S
C697 C696 1.349 . S
C697 C713 1.349 . S
C698 C696 1.327 . S
C698 C717 1.429 . S
C698 H722 0.950 . S
C699 C716 1.574 . S
C699 C718 1.368 . S
C699 H723 0.949 . S
H700 C704 0.949 . S
C701 C702 1.349 . S
C701 C703 1.327 . S
C701 H724 0.950 . S
C702 C701 1.349 . S
C702 C714 1.349 . S
C703 C701 1.327 . S
C703 C719 1.429 . S
C703 H725 0.950 . S
C704 H700 0.949 . S
C704 C712 1.574 . S
C704 C720 1.368 . S
H705 C713 0.950 . S
H706 C711 0.950 . S
H707 C712 0.949 1_554 S
H708 C714 0.950 . S
H709 C715 0.950 . S
H710 C716 0.949 . S
C711 H706 0.950 . S
C711 C713 1.327 . S
C711 C717 1.429 . S
C712 C704 1.574 . S
C712 H707 0.949 1_556 S
C712 C718 1.368 . S
C713 C697 1.349 . S
C713 H705 0.950 . S
C713 C711 1.327 . S
C714 C702 1.349 . S
C714 H708 0.950 . S
C714 C715 1.327 . S
C715 H709 0.950 . S
C715 C714 1.327 . S
C715 C719 1.429 . S
C716 C699 1.574 . S
C716 H710 0.949 . S
C716 C720 1.368 . S
C717 C698 1.429 . S
C717 C711 1.429 . S
C717 C718 1.523 1_554 S
C718 C699 1.368 . S
C718 C712 1.368 . S
C718 C717 1.523 1_556 S
C719 C703 1.429 . S
C719 C715 1.429 . S
C719 C720 1.523 . S
C720 C704 1.368 . S
C720 C716 1.368 . S
C720 C719 1.523 . S
H721 C696 0.950 . S
H722 C698 0.950 . S
H723 C699 0.949 . S
H724 C701 0.950 . S
H725 C703 0.950 . S
C726 C727 1.349 . S
C726 C728 1.327 . S
C726 H751 0.950 . S
C727 C726 1.349 . S
C727 C743 1.349 . S
C728 C726 1.327 . S
C728 C747 1.429 . S
C728 H752 0.950 . S
C729 C746 1.574 . S
C729 C748 1.368 . S
C729 H753 0.949 . S
H730 C734 0.949 . S
C731 C732 1.349 . S
C731 C733 1.327 . S
C731 H754 0.950 . S
C732 C731 1.349 . S
C732 C744 1.349 . S
C733 C731 1.327 . S
C733 C749 1.429 . S
C733 H755 0.950 . S
C734 H730 0.949 . S
C734 C742 1.574 . S
C734 C750 1.368 . S
H735 C743 0.950 . S
H736 C741 0.950 1_556 S
H737 C742 0.949 1_554 S
H738 C744 0.950 . S
H739 C745 0.950 . S
H740 C746 0.949 . S
C741 H736 0.950 1_554 S
C741 C743 1.327 . S
C741 C747 1.429 . S
C742 C734 1.574 . S
C742 H737 0.949 1_556 S
C742 C748 1.368 . S
C743 C727 1.349 . S
C743 H735 0.950 . S
C743 C741 1.327 . S
C744 C732 1.349 . S
C744 H738 0.950 . S
C744 C745 1.327 . S
C745 H739 0.950 . S
C745 C744 1.327 . S
C745 C749 1.429 . S
C746 C729 1.574 . S
C746 H740 0.949 . S
C746 C750 1.368 . S
C747 C728 1.429 . S
C747 C741 1.429 . S
C747 C748 1.523 1_554 S
C748 C729 1.368 . S
C748 C742 1.368 . S
C748 C747 1.523 1_556 S
C749 C733 1.429 . S
C749 C745 1.429 . S
C749 C750 1.523 . S
C750 C734 1.368 . S
C750 C746 1.368 . S
C750 C749 1.523 . S
H751 C726 0.950 . S
H752 C728 0.950 . S
H753 C729 0.949 . S
H754 C731 0.950 . S
H755 C733 0.950 . S
C756 C757 1.349 . S
C756 C758 1.327 . S
C756 H781 0.950 . S
C757 C756 1.349 . S
C757 C773 1.349 . S
C758 C756 1.327 . S
C758 C777 1.429 . S
C758 H782 0.950 . S
C759 C776 1.574 . S
C759 C778 1.368 . S
C759 H783 0.949 . S
H760 C764 0.949 . S
C761 C762 1.349 . S
C761 C763 1.327 . S
C761 H784 0.950 . S
C762 C761 1.349 . S
C762 C774 1.349 . S
C763 C761 1.327 . S
C763 C779 1.429 . S
C763 H785 0.950 . S
C764 H760 0.949 . S
C764 C772 1.574 . S
C764 C780 1.368 . S
H765 C773 0.950 . S
H766 C771 0.950 . S
H767 C772 0.949 . S
H768 C774 0.950 . S
H769 C775 0.950 . S
H770 C776 0.949 . S
C771 H766 0.950 . S
C771 C773 1.327 . S
C771 C777 1.429 . S
C772 C764 1.574 . S
C772 H767 0.949 . S
C772 C778 1.368 . S
C773 C757 1.349 . S
C773 H765 0.950 . S
C773 C771 1.327 . S
C774 C762 1.349 . S
C774 H768 0.950 . S
C774 C775 1.327 . S
C775 H769 0.950 . S
C775 C774 1.327 . S
C775 C779 1.429 . S
C776 C759 1.574 . S
C776 H770 0.949 . S
C776 C780 1.368 . S
C777 C758 1.429 . S
C777 C771 1.429 . S
C777 C778 1.523 . S
C778 C759 1.368 . S
C778 C772 1.368 . S
C778 C777 1.523 . S
C779 C763 1.429 . S
C779 C775 1.429 . S
C779 C780 1.523 . S
C780 C764 1.368 . S
C780 C776 1.368 . S
C780 C779 1.523 . S
H781 C756 0.950 . S
H782 C758 0.950 . S
H783 C759 0.949 . S
H784 C761 0.950 . S
H785 C763 0.950 . S
C786 C787 1.349 . S
C786 C788 1.327 . S
C786 H811 0.950 . S
C787 C786 1.349 . S
C787 C803 1.349 . S
C788 C786 1.327 . S
C788 C807 1.429 . S
C788 H812 0.950 . S
C789 C806 1.574 . S
C789 C808 1.368 . S
C789 H813 0.949 . S
H790 C794 0.949 . S
C791 C792 1.349 . S
C791 C793 1.327 . S
C791 H814 0.950 . S
C792 C791 1.349 . S
C792 C804 1.349 . S
C793 C791 1.327 . S
C793 C809 1.429 . S
C793 H815 0.950 . S
C794 H790 0.949 . S
C794 C802 1.574 . S
C794 C810 1.368 . S
H795 C803 0.950 . S
H796 C801 0.950 . S
H797 C802 0.949 . S
H798 C804 0.950 1_565 S
H799 C805 0.950 . S
H800 C806 0.949 . S
C801 H796 0.950 . S
C801 C803 1.327 . S
C801 C807 1.429 . S
C802 C794 1.574 . S
C802 H797 0.949 . S
C802 C808 1.368 . S
C803 C787 1.349 . S
C803 H795 0.950 . S
C803 C801 1.327 . S
C804 C792 1.349 . S
C804 H798 0.950 1_545 S
C804 C805 1.327 . S
C805 H799 0.950 . S
C805 C804 1.327 . S
C805 C809 1.429 . S
C806 C789 1.574 . S
C806 H800 0.949 . S
C806 C810 1.368 . S
C807 C788 1.429 . S
C807 C801 1.429 . S
C807 C808 1.523 . S
C808 C789 1.368 . S
C808 C802 1.368 . S
C808 C807 1.523 . S
C809 C793 1.429 . S
C809 C805 1.429 . S
C809 C810 1.523 . S
C810 C794 1.368 . S
C810 C806 1.368 . S
C810 C809 1.523 . S
H811 C786 0.950 . S
H812 C788 0.950 . S
H813 C789 0.949 . S
H814 C791 0.950 . S
H815 C793 0.950 . S
C816 C817 1.349 . S
C816 C818 1.327 . S
C816 H841 0.950 . S
C817 C816 1.349 . S
C817 C833 1.349 . S
C818 C816 1.327 . S
C818 C837 1.429 . S
C818 H842 0.950 . S
C819 C836 1.574 . S
C819 C838 1.368 . S
C819 H843 0.949 1_655 S
H820 C824 0.949 . S
C821 C822 1.349 . S
C821 C823 1.327 . S
C821 H844 0.950 . S
C822 C821 1.349 . S
C822 C834 1.349 . S
C823 C821 1.327 . S
C823 C839 1.429 . S
C823 H845 0.950 . S
C824 H820 0.949 . S
C824 C832 1.574 . S
C824 C840 1.368 . S
H825 C833 0.950 . S
H826 C831 0.950 . S
H827 C832 0.949 . S
H828 C834 0.950 . S
H829 C835 0.950 . S
H830 C836 0.949 . S
C831 H826 0.950 . S
C831 C833 1.327 . S
C831 C837 1.429 . S
C832 C824 1.574 . S
C832 H827 0.949 . S
C832 C838 1.368 . S
C833 C817 1.349 . S
C833 H825 0.950 . S
C833 C831 1.327 . S
C834 C822 1.349 . S
C834 H828 0.950 . S
C834 C835 1.327 . S
C835 H829 0.950 . S
C835 C834 1.327 . S
C835 C839 1.429 . S
C836 C819 1.574 . S
C836 H830 0.949 . S
C836 C840 1.368 . S
C837 C818 1.429 . S
C837 C831 1.429 . S
C837 C838 1.523 1_455 S
C838 C819 1.368 . S
C838 C832 1.368 . S
C838 C837 1.523 1_655 S
C839 C823 1.429 . S
C839 C835 1.429 . S
C839 C840 1.523 . S
C840 C824 1.368 . S
C840 C836 1.368 . S
C840 C839 1.523 . S
H841 C816 0.950 . S
H842 C818 0.950 . S
H843 C819 0.949 1_455 S
H844 C821 0.950 . S
H845 C823 0.950 . S
C846 C847 1.349 . S
C846 C848 1.327 . S
C846 H871 0.950 . S
C847 C846 1.349 . S
C847 C863 1.349 . S
C848 C846 1.327 . S
C848 C867 1.429 . S
C848 H872 0.950 . S
C849 C866 1.574 . S
C849 C868 1.368 . S
C849 H873 0.949 . S
H850 C854 0.949 . S
C851 C852 1.349 . S
C851 C853 1.327 . S
C851 H874 0.950 . S
C852 C851 1.349 . S
C852 C864 1.349 . S
C853 C851 1.327 . S
C853 C869 1.429 . S
C853 H875 0.950 . S
C854 H850 0.949 . S
C854 C862 1.574 . S
C854 C870 1.368 . S
H855 C863 0.950 . S
H856 C861 0.950 . S
H857 C862 0.949 1_655 S
H858 C864 0.950 . S
H859 C865 0.950 . S
H860 C866 0.949 . S
C861 H856 0.950 . S
C861 C863 1.327 . S
C861 C867 1.429 . S
C862 C854 1.574 . S
C862 H857 0.949 1_455 S
C862 C868 1.368 . S
C863 C847 1.349 . S
C863 H855 0.950 . S
C863 C861 1.327 . S
C864 C852 1.349 . S
C864 H858 0.950 . S
C864 C865 1.327 . S
C865 H859 0.950 . S
C865 C864 1.327 . S
C865 C869 1.429 . S
C866 C849 1.574 . S
C866 H860 0.949 . S
C866 C870 1.368 . S
C867 C848 1.429 . S
C867 C861 1.429 . S
C867 C868 1.523 1_655 S
C868 C849 1.368 . S
C868 C862 1.368 . S
C868 C867 1.523 1_455 S
C869 C853 1.429 . S
C869 C865 1.429 . S
C869 C870 1.523 . S
C870 C854 1.368 . S
C870 C866 1.368 . S
C870 C869 1.523 . S
H871 C846 0.950 . S
H872 C848 0.950 . S
H873 C849 0.949 . S
H874 C851 0.950 . S
H875 C853 0.950 . S
C876 C877 1.349 . S
C876 C878 1.327 . S
C876 H901 0.950 . S
C877 C876 1.349 . S
C877 C893 1.349 . S
C878 C876 1.327 . S
C878 C897 1.429 . S
C878 H902 0.938 1_455 S
C879 C896 1.574 . S
C879 C898 1.368 . S
C879 H903 0.949 1_655 S
H880 C884 0.949 . S
C881 C882 1.349 . S
C881 C883 1.327 . S
C881 H904 0.950 . S
C882 C881 1.349 . S
C882 C894 1.349 . S
C883 C881 1.327 . S
C883 C899 1.429 . S
C883 H905 0.950 . S
C884 H880 0.949 . S
C884 C892 1.574 . S
C884 C900 1.368 . S
H885 C893 0.950 . S
H886 C891 0.950 . S
H887 C892 0.949 . S
H888 C894 0.950 . S
H889 C895 0.950 . S
H890 C896 0.949 . S
C891 H886 0.950 . S
C891 C893 1.327 . S
C891 C897 1.429 . S
C892 C884 1.574 . S
C892 H887 0.949 . S
C892 C898 1.368 . S
C893 C877 1.349 . S
C893 H885 0.950 . S
C893 C891 1.327 . S
C894 C882 1.349 . S
C894 H888 0.950 . S
C894 C895 1.327 . S
C895 H889 0.950 . S
C895 C894 1.327 . S
C895 C899 1.429 . S
C896 C879 1.574 . S
C896 H890 0.949 . S
C896 C900 1.368 . S
C897 C878 1.429 . S
C897 C891 1.429 . S
C897 C898 1.523 1_455 S
C898 C879 1.368 . S
C898 C892 1.368 . S
C898 C897 1.523 1_655 S
C899 C883 1.429 . S
C899 C895 1.429 . S
C899 C900 1.523 . S
C900 C884 1.368 . S
C900 C896 1.368 . S
C900 C899 1.523 . S
H901 C876 0.950 . S
H902 C878 0.938 1_655 S
H903 C879 0.949 1_455 S
H904 C881 0.950 . S
H905 C883 0.950 . S
C906 C907 1.349 . S
C906 C908 1.327 . S
C906 H931 0.950 . S
C907 C906 1.349 . S
C907 C923 1.349 . S
C908 C906 1.327 . S
C908 C927 1.429 . S
C908 H932 0.950 . S
C909 C926 1.574 . S
C909 C928 1.368 . S
C909 H933 0.949 . S
H910 C914 0.949 . S
C911 C912 1.349 . S
C911 C913 1.327 . S
C911 H934 0.968 . S
C912 C911 1.349 . S
C912 C924 1.349 . S
C913 C911 1.327 . S
C913 C929 1.429 . S
C913 H935 0.950 . S
C914 H910 0.949 . S
C914 C922 1.574 . S
C914 C930 1.368 . S
H915 C923 0.950 . S
H916 C921 0.950 . S
H917 C922 0.949 . S
H918 C924 0.950 . S
H919 C925 0.950 . S
H920 C926 0.949 . S
C921 H916 0.950 . S
C921 C923 1.327 . S
C921 C927 1.429 . S
C922 C914 1.574 . S
C922 H917 0.949 . S
C922 C928 1.368 . S
C923 C907 1.349 . S
C923 H915 0.950 . S
C923 C921 1.327 . S
C924 C912 1.349 . S
C924 H918 0.950 . S
C924 C925 1.327 . S
C925 H919 0.950 . S
C925 C924 1.327 . S
C925 C929 1.429 . S
C926 C909 1.574 . S
C926 H920 0.949 . S
C926 C930 1.368 . S
C927 C908 1.429 . S
C927 C921 1.429 . S
C927 C928 1.523 . S
C928 C909 1.368 . S
C928 C922 1.368 . S
C928 C927 1.523 . S
C929 C913 1.429 . S
C929 C925 1.429 . S
C929 C930 1.523 1_655 S
C930 C914 1.368 . S
C930 C926 1.368 . S
C930 C929 1.523 1_455 S
H931 C906 0.950 . S
H932 C908 0.950 . S
H933 C909 0.949 . S
H934 C911 0.968 . S
H935 C913 0.950 . S
C936 C937 1.349 . S
C936 C938 1.327 . S
C936 H961 0.950 . S
C937 C936 1.349 . S
C937 C953 1.349 . S
C938 C936 1.327 . S
C938 C957 1.429 . S
C938 H962 0.950 . S
C939 C956 1.574 . S
C939 C958 1.368 . S
C939 H963 0.949 . S
H940 C944 0.949 . S
C941 C942 1.349 . S
C941 C943 1.327 . S
C941 H964 0.950 . S
C942 C941 1.349 . S
C942 C954 1.349 . S
C943 C941 1.327 . S
C943 C959 1.429 . S
C943 H965 0.950 . S
C944 H940 0.949 . S
C944 C952 1.574 . S
C944 C960 1.368 . S
H945 C953 0.950 . S
H946 C951 0.950 . S
H947 C952 0.957 . S
H948 C954 0.950 . S
H949 C955 0.950 . S
H950 C956 0.949 . S
C951 H946 0.950 . S
C951 C953 1.327 . S
C951 C957 1.429 . S
C952 C944 1.574 . S
C952 H947 0.957 . S
C952 C958 1.368 . S
C953 C937 1.349 . S
C953 H945 0.950 . S
C953 C951 1.327 . S
C954 C942 1.349 . S
C954 H948 0.950 . S
C954 C955 1.327 . S
C955 H949 0.950 . S
C955 C954 1.327 . S
C955 C959 1.429 . S
C956 C939 1.574 . S
C956 H950 0.949 . S
C956 C960 1.368 . S
C957 C938 1.429 . S
C957 C951 1.429 . S
C957 C958 1.523 1_545 S
C958 C939 1.368 . S
C958 C952 1.368 . S
C958 C957 1.523 1_565 S
C959 C943 1.429 . S
C959 C955 1.429 . S
C959 C960 1.523 . S
C960 C944 1.368 . S
C960 C956 1.368 . S
C960 C959 1.523 . S
H961 C936 0.950 . S
H962 C938 0.950 . S
H963 C939 0.949 . S
H964 C941 0.950 . S
H965 C943 0.950 . S
C966 C967 1.349 . S
C966 C968 1.327 . S
C966 H991 0.950 . S
C967 C966 1.349 . S
C967 C983 1.349 . S
C968 C966 1.327 . S
C968 C987 1.429 . S
C968 H992 0.950 . S
C969 C986 1.574 . S
C969 C988 1.368 . S
C969 H993 0.949 . S
H970 C974 0.949 1_565 S
C971 C972 1.349 . S
C971 C973 1.327 . S
C971 H994 0.950 . S
C972 C971 1.349 . S
C972 C984 1.349 . S
C973 C971 1.327 . S
C973 C989 1.429 . S
C973 H995 0.950 . S
C974 H970 0.949 1_545 S
C974 C982 1.574 . S
C974 C990 1.368 . S
H975 C983 0.950 . S
H976 C981 0.950 . S
H977 C982 0.949 . S
H978 C984 0.950 . S
H979 C985 0.950 . S
H980 C986 0.949 . S
C981 H976 0.950 . S
C981 C983 1.327 . S
C981 C987 1.429 . S
C982 C974 1.574 . S
C982 H977 0.949 . S
C982 C988 1.368 . S
C983 C967 1.349 . S
C983 H975 0.950 . S
C983 C981 1.327 . S
C984 C972 1.349 . S
C984 H978 0.950 . S
C984 C985 1.327 . S
C985 H979 0.950 . S
C985 C984 1.327 . S
C985 C989 1.429 . S
C986 C969 1.574 . S
C986 H980 0.949 . S
C986 C990 1.368 . S
C987 C968 1.429 . S
C987 C981 1.429 . S
C987 C988 1.523 . S
C988 C969 1.368 . S
C988 C982 1.368 . S
C988 C987 1.523 . S
C989 C973 1.429 . S
C989 C985 1.429 . S
C989 C990 1.523 1_565 S
C990 C974 1.368 . S
C990 C986 1.368 . S
C990 C989 1.523 1_545 S
H991 C966 0.950 . S
H992 C968 0.950 . S
H993 C969 0.949 . S
H994 C971 0.950 . S
H995 C973 0.950 . S
C996 C997 1.349 . S
C996 C998 1.327 . S
C996 H1021 0.950 . S
C997 C996 1.349 . S
C997 C1013 1.349 . S
C998 C996 1.327 . S
C998 C1017 1.429 . S
C998 H1022 0.950 . S
C999 C1016 1.574 . S
C999 C1018 1.368 . S
C999 H1023 0.949 . S
H1000 C1004 0.949 . S
C1001 C1002 1.349 . S
C1001 C1003 1.327 . S
C1001 H1024 0.950 . S
C1002 C1001 1.349 . S
C1002 C1014 1.349 . S
C1003 C1001 1.327 . S
C1003 C1019 1.429 . S
C1003 H1025 0.950 . S
C1004 H1000 0.949 . S
C1004 C1012 1.574 . S
C1004 C1020 1.368 . S
H1005 C1013 0.950 . S
H1006 C1011 0.950 . S
H1007 C1012 0.949 . S
H1008 C1014 0.950 . S
H1009 C1015 0.950 . S
H1010 C1016 0.949 . S
C1011 H1006 0.950 . S
C1011 C1013 1.327 . S
C1011 C1017 1.429 . S
C1012 C1004 1.574 . S
C1012 H1007 0.949 . S
C1012 C1018 1.368 . S
C1013 C997 1.349 . S
C1013 H1005 0.950 . S
C1013 C1011 1.327 . S
C1014 C1002 1.349 . S
C1014 H1008 0.950 . S
C1014 C1015 1.327 . S
C1015 H1009 0.950 . S
C1015 C1014 1.327 . S
C1015 C1019 1.429 . S
C1016 C999 1.574 . S
C1016 H1010 0.949 . S
C1016 C1020 1.368 . S
C1017 C998 1.429 . S
C1017 C1011 1.429 . S
C1017 C1018 1.523 . S
C1018 C999 1.368 . S
C1018 C1012 1.368 . S
C1018 C1017 1.523 . S
C1019 C1003 1.429 . S
C1019 C1015 1.429 . S
C1019 C1020 1.523 . S
C1020 C1004 1.368 . S
C1020 C1016 1.368 . S
C1020 C1019 1.523 . S
H1021 C996 0.950 . S
H1022 C998 0.950 . S
H1023 C999 0.949 . S
H1024 C1001 0.950 . S
H1025 C1003 0.950 . S
C1026 C1027 1.349 . S
C1026 C1028 1.327 . S
C1026 H1051 0.950 . S
C1027 C1026 1.349 . S
C1027 C1043 1.349 . S
C1028 C1026 1.327 . S
C1028 C1047 1.429 . S
C1028 H1052 0.950 . S
C1029 C1046 1.574 . S
C1029 C1048 1.368 . S
C1029 H1053 0.949 . S
H1030 C1034 0.949 . S
C1031 C1032 1.349 . S
C1031 C1033 1.327 . S
C1031 H1054 0.950 . S
C1032 C1031 1.349 . S
C1032 C1044 1.349 . S
C1033 C1031 1.327 . S
C1033 C1049 1.429 . S
C1033 H1055 0.950 . S
C1034 H1030 0.949 . S
C1034 C1042 1.574 . S
C1034 C1050 1.368 . S
H1035 C1043 0.950 . S
H1036 C1041 0.950 . S
H1037 C1042 0.949 . S
H1038 C1044 0.950 . S
H1039 C1045 0.950 . S
H1040 C1046 0.949 1_565 S
C1041 H1036 0.950 . S
C1041 C1043 1.327 . S
C1041 C1047 1.429 . S
C1042 C1034 1.574 . S
C1042 H1037 0.949 . S
C1042 C1048 1.368 . S
C1043 C1027 1.349 . S
C1043 H1035 0.950 . S
C1043 C1041 1.327 . S
C1044 C1032 1.349 . S
C1044 H1038 0.950 . S
C1044 C1045 1.327 . S
C1045 H1039 0.950 . S
C1045 C1044 1.327 . S
C1045 C1049 1.429 . S
C1046 C1029 1.574 . S
C1046 H1040 0.949 1_545 S
C1046 C1050 1.368 . S
C1047 C1028 1.429 . S
C1047 C1041 1.429 . S
C1047 C1048 1.523 . S
C1048 C1029 1.368 . S
C1048 C1042 1.368 . S
C1048 C1047 1.523 . S
C1049 C1033 1.429 . S
C1049 C1045 1.429 . S
C1049 C1050 1.523 1_565 S
C1050 C1034 1.368 . S
C1050 C1046 1.368 . S
C1050 C1049 1.523 1_545 S
H1051 C1026 0.950 . S
H1052 C1028 0.950 . S
H1053 C1029 0.949 . S
H1054 C1031 0.950 . S
H1055 C1033 0.950 . S
C1056 C1057 1.369 . S
C1056 C1058 1.327 . S
C1056 H1081 0.950 . S
C1057 C1056 1.369 . S
C1057 C1073 1.328 1_655 S
C1058 C1056 1.327 . S
C1058 C1077 1.426 1_655 S
C1058 H1082 0.950 . S
C1059 C1076 1.574 . S
C1059 C1078 1.390 . S
C1059 H1083 0.949 . S
H1060 C1064 0.949 . S
C1061 C1062 1.349 . S
C1061 C1063 1.327 . S
C1061 H1084 0.950 . S
C1062 C1061 1.349 . S
C1062 C1074 1.349 1_455 S
C1063 C1061 1.327 . S
C1063 C1079 1.429 . S
C1063 H1085 0.950 . S
C1064 H1060 0.949 . S
C1064 C1072 1.574 . S
C1064 C1080 1.368 1_655 S
H1065 C1073 0.950 . S
H1066 C1071 0.950 . S
H1067 C1072 0.949 . S
H1068 C1074 0.950 . S
H1069 C1075 0.950 . S
H1070 C1076 0.949 . S
C1071 H1066 0.950 . S
C1071 C1073 1.327 . S
C1071 C1077 1.431 . S
C1072 C1064 1.574 . S
C1072 H1067 0.949 . S
C1072 C1078 1.348 1_655 S
C1073 C1057 1.328 1_455 S
C1073 H1065 0.950 . S
C1073 C1071 1.327 . S
C1074 C1062 1.349 1_655 S
C1074 H1068 0.950 . S
C1074 C1075 1.327 . S
C1075 H1069 0.950 . S
C1075 C1074 1.327 . S
C1075 C1079 1.429 1_655 S
C1076 C1059 1.574 . S
C1076 H1070 0.949 . S
C1076 C1080 1.368 . S
C1077 C1058 1.426 1_455 S
C1077 C1071 1.431 . S
C1077 C1078 1.523 . S
C1078 C1059 1.390 . S
C1078 C1072 1.348 1_455 S
C1078 C1077 1.523 . S
C1079 C1063 1.429 . S
C1079 C1075 1.429 1_455 S
C1079 C1080 1.523 . S
C1080 C1064 1.368 1_455 S
C1080 C1076 1.368 . S
C1080 C1079 1.523 . S
H1081 C1056 0.950 . S
H1082 C1058 0.950 . S
H1083 C1059 0.949 . S
H1084 C1061 0.950 . S
H1085 C1063 0.950 . S
C1086 C1087 1.349 . S
C1086 C1088 1.327 . S
C1086 H1111 0.950 . S
C1087 C1086 1.349 . S
C1087 C1103 1.349 1_455 S
C1088 C1086 1.327 . S
C1088 C1107 1.429 . S
C1088 H1112 0.950 . S
C1089 C1106 1.574 . S
C1089 C1108 1.368 1_655 S
C1089 H1113 0.949 . S
H1090 C1094 0.949 . S
C1091 C1092 1.349 . S
C1091 C1093 1.327 . S
C1091 H1114 0.950 . S
C1092 C1091 1.349 . S
C1092 C1104 1.349 1_655 S
C1093 C1091 1.327 . S
C1093 C1109 1.444 . S
C1093 H1115 0.950 . S
C1094 H1090 0.949 . S
C1094 C1102 1.574 . S
C1094 C1110 1.372 . S
H1095 C1103 0.950 . S
H1096 C1101 0.950 . S
H1097 C1102 0.949 . S
H1098 C1104 0.950 . S
H1099 C1105 0.950 . S
H1100 C1106 0.949 . S
C1101 H1096 0.950 . S
C1101 C1103 1.327 . S
C1101 C1107 1.429 1_655 S
C1102 C1094 1.574 . S
C1102 H1097 0.949 . S
C1102 C1108 1.368 . S
C1103 C1087 1.349 1_655 S
C1103 H1095 0.950 . S
C1103 C1101 1.327 . S
C1104 C1092 1.349 1_455 S
C1104 H1098 0.950 . S
C1104 C1105 1.327 . S
C1105 H1099 0.950 . S
C1105 C1104 1.327 . S
C1105 C1109 1.415 1_455 S
C1106 C1089 1.574 . S
C1106 H1100 0.949 . S
C1106 C1110 1.365 1_655 S
C1107 C1088 1.429 . S
C1107 C1101 1.429 1_455 S
C1107 C1108 1.523 . S
C1108 C1089 1.368 1_455 S
C1108 C1102 1.368 . S
C1108 C1107 1.523 . S
C1109 C1093 1.444 . S
C1109 C1105 1.415 1_655 S
C1109 C1110 1.522 1_655 S
C1110 C1094 1.372 . S
C1110 C1106 1.365 1_455 S
C1110 C1109 1.522 1_455 S
H1111 C1086 0.950 . S
H1112 C1088 0.950 . S
H1113 C1089 0.949 . S
H1114 C1091 0.950 . S
H1115 C1093 0.950 . S
C1116 C1117 1.378 . S
C1116 C1118 1.327 . S
C1116 H1141 0.950 . S
C1117 C1116 1.378 . S
C1117 C1133 1.319 1_565 S
C1118 C1116 1.327 . S
C1118 C1137 1.424 1_565 S
C1118 H1142 0.950 . S
C1119 C1136 1.574 . S
C1119 C1138 1.399 . S
C1119 H1143 0.949 . S
H1120 C1124 0.949 . S
C1121 C1122 1.349 . S
C1121 C1123 1.327 . S
C1121 H1144 0.950 . S
C1122 C1121 1.349 . S
C1122 C1134 1.349 1_545 S
C1123 C1121 1.327 . S
C1123 C1139 1.429 . S
C1123 H1145 0.950 . S
C1124 H1120 0.949 . S
C1124 C1132 1.574 . S
C1124 C1140 1.368 1_565 S
H1125 C1133 0.950 . S
H1126 C1131 0.950 . S
H1127 C1132 0.949 . S
H1128 C1134 0.950 . S
H1129 C1135 0.950 . S
H1130 C1136 0.949 . S
C1131 H1126 0.950 . S
C1131 C1133 1.327 . S
C1131 C1137 1.433 . S
C1132 C1124 1.574 . S
C1132 H1127 0.949 . S
C1132 C1138 1.339 1_565 S
C1133 C1117 1.319 1_545 S
C1133 H1125 0.950 . S
C1133 C1131 1.327 . S
C1134 C1122 1.349 1_565 S
C1134 H1128 0.950 . S
C1134 C1135 1.327 . S
C1135 H1129 0.950 . S
C1135 C1134 1.327 . S
C1135 C1139 1.429 1_565 S
C1136 C1119 1.574 . S
C1136 H1130 0.949 . S
C1136 C1140 1.368 . S
C1137 C1118 1.424 1_545 S
C1137 C1131 1.433 . S
C1137 C1138 1.523 . S
C1138 C1119 1.399 . S
C1138 C1132 1.339 1_545 S
C1138 C1137 1.523 . S
C1139 C1123 1.429 . S
C1139 C1135 1.429 1_545 S
C1139 C1140 1.523 . S
C1140 C1124 1.368 1_545 S
C1140 C1136 1.368 . S
C1140 C1139 1.523 . S
H1141 C1116 0.950 . S
H1142 C1118 0.950 . S
H1143 C1119 0.949 . S
H1144 C1121 0.950 . S
H1145 C1123 0.950 . S
C1146 C1147 1.349 . S
C1146 C1148 1.327 . S
C1146 H1171 0.950 . S
C1147 C1146 1.349 . S
C1147 C1163 1.349 . S
C1148 C1146 1.327 . S
C1148 C1167 1.429 . S
C1148 H1172 0.950 . S
C1149 C1166 1.574 . S
C1149 C1168 1.368 . S
C1149 H1173 0.949 . S
H1150 C1154 0.949 . S
C1151 C1152 1.349 . S
C1151 C1153 1.327 . S
C1151 H1174 0.950 . S
C1152 C1151 1.349 . S
C1152 C1164 1.349 . S
C1153 C1151 1.327 . S
C1153 C1169 1.429 . S
C1153 H1175 0.950 . S
C1154 H1150 0.949 . S
C1154 C1162 1.574 . S
C1154 C1170 1.368 . S
H1155 C1163 0.950 . S
H1156 C1161 0.950 . S
H1157 C1162 0.949 . S
H1158 C1164 0.950 . S
H1159 C1165 0.950 . S
H1160 C1166 0.949 . S
C1161 H1156 0.950 . S
C1161 C1163 1.327 . S
C1161 C1167 1.429 . S
C1162 C1154 1.574 . S
C1162 H1157 0.949 . S
C1162 C1168 1.368 . S
C1163 C1147 1.349 . S
C1163 H1155 0.950 . S
C1163 C1161 1.327 . S
C1164 C1152 1.349 . S
C1164 H1158 0.950 . S
C1164 C1165 1.327 . S
C1165 H1159 0.950 . S
C1165 C1164 1.327 . S
C1165 C1169 1.429 . S
C1166 C1149 1.574 . S
C1166 H1160 0.949 . S
C1166 C1170 1.368 . S
C1167 C1148 1.429 . S
C1167 C1161 1.429 . S
C1167 C1168 1.523 . S
C1168 C1149 1.368 . S
C1168 C1162 1.368 . S
C1168 C1167 1.523 . S
C1169 C1153 1.429 . S
C1169 C1165 1.429 . S
C1169 C1170 1.523 . S
C1170 C1154 1.368 . S
C1170 C1166 1.368 . S
C1170 C1169 1.523 . S
H1171 C1146 0.950 . S
H1172 C1148 0.950 . S
H1173 C1149 0.949 . S
H1174 C1151 0.950 . S
H1175 C1153 0.950 . S
C1176 C1177 1.349 . S
C1176 C1178 1.327 . S
C1176 H1201 0.950 . S
C1177 C1176 1.349 . S
C1177 C1193 1.349 1_554 S
C1178 C1176 1.327 . S
C1178 C1197 1.429 . S
C1178 H1202 0.950 . S
C1179 C1196 1.574 . S
C1179 C1198 1.368 1_556 S
C1179 H1203 0.949 . S
H1180 C1184 0.949 . S
C1181 C1182 1.388 . S
C1181 C1183 1.327 . S
C1181 H1204 0.950 . S
C1182 C1181 1.388 . S
C1182 C1194 1.310 1_556 S
C1183 C1181 1.327 . S
C1183 C1199 1.424 . S
C1183 H1205 0.950 . S
C1184 H1180 0.949 . S
C1184 C1192 1.574 . S
C1184 C1200 1.389 . S
H1185 C1193 0.950 . S
H1186 C1191 0.950 . S
H1187 C1192 0.949 . S
H1188 C1194 0.950 . S
H1189 C1195 0.950 . S
H1190 C1196 0.949 . S
C1191 H1186 0.950 . S
C1191 C1193 1.327 . S
C1191 C1197 1.429 1_556 S
C1192 C1184 1.574 . S
C1192 H1187 0.949 . S
C1192 C1198 1.368 . S
C1193 C1177 1.349 1_556 S
C1193 H1185 0.950 . S
C1193 C1191 1.327 . S
C1194 C1182 1.310 1_554 S
C1194 H1188 0.950 . S
C1194 C1195 1.327 . S
C1195 H1189 0.950 . S
C1195 C1194 1.327 . S
C1195 C1199 1.433 1_554 S
C1196 C1179 1.574 . S
C1196 H1190 0.949 . S
C1196 C1200 1.349 1_556 S
C1197 C1178 1.429 . S
C1197 C1191 1.429 1_554 S
C1197 C1198 1.523 . S
C1198 C1179 1.368 1_554 S
C1198 C1192 1.368 . S
C1198 C1197 1.523 . S
C1199 C1183 1.424 . S
C1199 C1195 1.433 1_556 S
C1199 C1200 1.523 1_556 S
C1200 C1184 1.389 . S
C1200 C1196 1.349 1_554 S
C1200 C1199 1.523 1_554 S
H1201 C1176 0.950 . S
H1202 C1178 0.950 . S
H1203 C1179 0.949 . S
H1204 C1181 0.950 . S
H1205 C1183 0.950 . S
C1206 C1207 1.349 . S
C1206 C1208 1.327 . S
C1206 H1231 0.950 . S
C1207 C1206 1.349 . S
C1207 C1223 1.349 . S
C1208 C1206 1.327 . S
C1208 C1227 1.429 . S
C1208 H1232 0.950 . S
C1209 C1226 1.574 . S
C1209 C1228 1.368 . S
C1209 H1233 0.949 . S
H1210 C1214 0.949 . S
C1211 C1212 1.349 . S
C1211 C1213 1.327 . S
C1211 H1234 0.950 . S
C1212 C1211 1.349 . S
C1212 C1224 1.349 . S
C1213 C1211 1.327 . S
C1213 C1229 1.429 . S
C1213 H1235 0.950 . S
C1214 H1210 0.949 . S
C1214 C1222 1.574 . S
C1214 C1230 1.368 . S
H1215 C1223 0.950 . S
H1216 C1221 0.950 . S
H1217 C1222 0.949 . S
H1218 C1224 0.950 . S
H1219 C1225 0.950 . S
H1220 C1226 0.949 . S
C1221 H1216 0.950 . S
C1221 C1223 1.327 . S
C1221 C1227 1.429 . S
C1222 C1214 1.574 . S
C1222 H1217 0.949 . S
C1222 C1228 1.368 . S
C1223 C1207 1.349 . S
C1223 H1215 0.950 . S
C1223 C1221 1.327 . S
C1224 C1212 1.349 . S
C1224 H1218 0.950 . S
C1224 C1225 1.327 . S
C1225 H1219 0.950 . S
C1225 C1224 1.327 . S
C1225 C1229 1.429 . S
C1226 C1209 1.574 . S
C1226 H1220 0.949 . S
C1226 C1230 1.368 . S
C1227 C1208 1.429 . S
C1227 C1221 1.429 . S
C1227 C1228 1.523 . S
C1228 C1209 1.368 . S
C1228 C1222 1.368 . S
C1228 C1227 1.523 . S
C1229 C1213 1.429 . S
C1229 C1225 1.429 . S
C1229 C1230 1.523 . S
C1230 C1214 1.368 . S
C1230 C1226 1.368 . S
C1230 C1229 1.523 . S
H1231 C1206 0.950 . S
H1232 C1208 0.950 . S
H1233 C1209 0.949 . S
H1234 C1211 0.950 . S
H1235 C1213 0.950 . S
C1236 C1237 1.349 . S
C1236 C1238 1.327 . S
C1236 H1261 0.950 . S
C1237 C1236 1.349 . S
C1237 C1253 1.349 . S
C1238 C1236 1.327 . S
C1238 C1257 1.429 . S
C1238 H1262 0.950 . S
C1239 C1256 1.574 . S
C1239 C1258 1.368 . S
C1239 H1263 0.949 . S
H1240 C1244 0.949 . S
C1241 C1242 1.349 . S
C1241 C1243 1.327 . S
C1241 H1264 0.950 . S
C1242 C1241 1.349 . S
C1242 C1254 1.349 . S
C1243 C1241 1.327 . S
C1243 C1259 1.429 . S
C1243 H1265 0.950 . S
C1244 H1240 0.949 . S
C1244 C1252 1.574 . S
C1244 C1260 1.368 . S
H1245 C1253 0.950 . S
H1246 C1251 0.950 . S
H1247 C1252 0.949 . S
H1248 C1254 0.950 . S
H1249 C1255 0.950 . S
H1250 C1256 0.949 . S
C1251 H1246 0.950 . S
C1251 C1253 1.327 . S
C1251 C1257 1.429 . S
C1252 C1244 1.574 . S
C1252 H1247 0.949 . S
C1252 C1258 1.368 . S
C1253 C1237 1.349 . S
C1253 H1245 0.950 . S
C1253 C1251 1.327 . S
C1254 C1242 1.349 . S
C1254 H1248 0.950 . S
C1254 C1255 1.327 . S
C1255 H1249 0.950 . S
C1255 C1254 1.327 . S
C1255 C1259 1.429 . S
C1256 C1239 1.574 . S
C1256 H1250 0.949 . S
C1256 C1260 1.368 . S
C1257 C1238 1.429 . S
C1257 C1251 1.429 . S
C1257 C1258 1.523 . S
C1258 C1239 1.368 . S
C1258 C1252 1.368 . S
C1258 C1257 1.523 . S
C1259 C1243 1.429 . S
C1259 C1255 1.429 . S
C1259 C1260 1.523 . S
C1260 C1244 1.368 . S
C1260 C1256 1.368 . S
C1260 C1259 1.523 . S
H1261 C1236 0.950 . S
H1262 C1238 0.950 . S
H1263 C1239 0.949 . S
H1264 C1241 0.950 . S
H1265 C1243 0.950 . S
C1266 C1267 1.349 . S
C1266 C1268 1.327 . S
C1266 H1291 0.950 . S
C1267 C1266 1.349 . S
C1267 C1283 1.349 . S
C1268 C1266 1.327 . S
C1268 C1287 1.429 . S
C1268 H1292 0.950 . S
C1269 C1286 1.574 . S
C1269 C1288 1.368 . S
C1269 H1293 0.949 . S
H1270 C1274 0.949 . S
C1271 C1272 1.349 . S
C1271 C1273 1.327 . S
C1271 H1294 0.950 . S
C1272 C1271 1.349 . S
C1272 C1284 1.349 . S
C1273 C1271 1.327 . S
C1273 C1289 1.429 . S
C1273 H1295 0.950 . S
C1274 H1270 0.949 . S
C1274 C1282 1.574 . S
C1274 C1290 1.368 . S
H1275 C1283 0.950 . S
H1276 C1281 0.950 . S
H1277 C1282 0.949 . S
H1278 C1284 0.950 . S
H1279 C1285 0.950 . S
H1280 C1286 0.949 . S
C1281 H1276 0.950 . S
C1281 C1283 1.327 . S
C1281 C1287 1.429 . S
C1282 C1274 1.574 . S
C1282 H1277 0.949 . S
C1282 C1288 1.368 . S
C1283 C1267 1.349 . S
C1283 H1275 0.950 . S
C1283 C1281 1.327 . S
C1284 C1272 1.349 . S
C1284 H1278 0.950 . S
C1284 C1285 1.327 . S
C1285 H1279 0.950 . S
C1285 C1284 1.327 . S
C1285 C1289 1.429 . S
C1286 C1269 1.574 . S
C1286 H1280 0.949 . S
C1286 C1290 1.368 . S
C1287 C1268 1.429 . S
C1287 C1281 1.429 . S
C1287 C1288 1.523 . S
C1288 C1269 1.368 . S
C1288 C1282 1.368 . S
C1288 C1287 1.523 . S
C1289 C1273 1.429 . S
C1289 C1285 1.429 . S
C1289 C1290 1.523 . S
C1290 C1274 1.368 . S
C1290 C1286 1.368 . S
C1290 C1289 1.523 . S
H1291 C1266 0.950 . S
H1292 C1268 0.950 . S
H1293 C1269 0.949 . S
H1294 C1271 0.950 . S
H1295 C1273 0.950 . S
C1296 C1297 1.349 . S
C1296 C1298 1.327 . S
C1296 H1321 0.950 . S
C1297 C1296 1.349 . S
C1297 C1313 1.349 . S
C1298 C1296 1.327 . S
C1298 C1317 1.429 . S
C1298 H1322 0.950 . S
C1299 C1316 1.574 . S
C1299 C1318 1.368 . S
C1299 H1323 0.949 . S
H1300 C1304 0.949 . S
C1301 C1302 1.349 . S
C1301 C1303 1.327 . S
C1301 H1324 0.950 . S
C1302 C1301 1.349 . S
C1302 C1314 1.349 . S
C1303 C1301 1.327 . S
C1303 C1319 1.429 . S
C1303 H1325 0.950 . S
C1304 H1300 0.949 . S
C1304 C1312 1.574 . S
C1304 C1320 1.368 . S
H1305 C1313 0.950 . S
H1306 C1311 0.950 . S
H1307 C1312 0.949 . S
H1308 C1314 0.950 . S
H1309 C1315 0.950 . S
H1310 C1316 0.949 . S
C1311 H1306 0.950 . S
C1311 C1313 1.327 . S
C1311 C1317 1.429 . S
C1312 C1304 1.574 . S
C1312 H1307 0.949 . S
C1312 C1318 1.368 . S
C1313 C1297 1.349 . S
C1313 H1305 0.950 . S
C1313 C1311 1.327 . S
C1314 C1302 1.349 . S
C1314 H1308 0.950 . S
C1314 C1315 1.327 . S
C1315 H1309 0.950 . S
C1315 C1314 1.327 . S
C1315 C1319 1.429 . S
C1316 C1299 1.574 . S
C1316 H1310 0.949 . S
C1316 C1320 1.368 . S
C1317 C1298 1.429 . S
C1317 C1311 1.429 . S
C1317 C1318 1.523 . S
C1318 C1299 1.368 . S
C1318 C1312 1.368 . S
C1318 C1317 1.523 . S
C1319 C1303 1.429 . S
C1319 C1315 1.429 . S
C1319 C1320 1.523 . S
C1320 C1304 1.368 . S
C1320 C1316 1.368 . S
C1320 C1319 1.523 . S
H1321 C1296 0.950 . S
H1322 C1298 0.950 . S
H1323 C1299 0.949 . S
H1324 C1301 0.950 . S
H1325 C1303 0.950 . S
C1326 C1327 1.349 . S
C1326 C1328 1.327 . S
C1326 H1351 0.950 . S
C1327 C1326 1.349 . S
C1327 C1343 1.349 . S
C1328 C1326 1.327 . S
C1328 C1347 1.429 . S
C1328 H1352 0.950 . S
C1329 C1346 1.574 . S
C1329 C1348 1.368 . S
C1329 H1353 0.949 . S
H1330 C1334 0.949 . S
C1331 C1332 1.349 . S
C1331 C1333 1.327 . S
C1331 H1354 0.950 . S
C1332 C1331 1.349 . S
C1332 C1344 1.349 . S
C1333 C1331 1.327 . S
C1333 C1349 1.429 . S
C1333 H1355 0.950 . S
C1334 H1330 0.949 . S
C1334 C1342 1.574 . S
C1334 C1350 1.368 . S
H1335 C1343 0.950 . S
H1336 C1341 0.950 . S
H1337 C1342 0.949 . S
H1338 C1344 0.950 . S
H1339 C1345 0.950 . S
H1340 C1346 0.949 . S
C1341 H1336 0.950 . S
C1341 C1343 1.327 . S
C1341 C1347 1.429 . S
C1342 C1334 1.574 . S
C1342 H1337 0.949 . S
C1342 C1348 1.368 . S
C1343 C1327 1.349 . S
C1343 H1335 0.950 . S
C1343 C1341 1.327 . S
C1344 C1332 1.349 . S
C1344 H1338 0.950 . S
C1344 C1345 1.327 . S
C1345 H1339 0.950 . S
C1345 C1344 1.327 . S
C1345 C1349 1.429 . S
C1346 C1329 1.574 . S
C1346 H1340 0.949 . S
C1346 C1350 1.368 . S
C1347 C1328 1.429 . S
C1347 C1341 1.429 . S
C1347 C1348 1.523 . S
C1348 C1329 1.368 . S
C1348 C1342 1.368 . S
C1348 C1347 1.523 . S
C1349 C1333 1.429 . S
C1349 C1345 1.429 . S
C1349 C1350 1.523 . S
C1350 C1334 1.368 . S
C1350 C1346 1.368 . S
C1350 C1349 1.523 . S
H1351 C1326 0.950 . S
H1352 C1328 0.950 . S
H1353 C1329 0.949 . S
H1354 C1331 0.950 . S
H1355 C1333 0.950 . S
C1356 C1357 1.349 . S
C1356 C1358 1.327 . S
C1356 H1381 0.950 . S
C1357 C1356 1.349 . S
C1357 C1373 1.349 1_545 S
C1358 C1356 1.327 . S
C1358 C1377 1.429 . S
C1358 H1382 0.950 . S
C1359 C1376 1.574 . S
C1359 C1378 1.368 1_565 S
C1359 H1383 0.949 . S
H1360 C1364 0.949 . S
C1361 C1362 1.349 . S
C1361 C1363 1.327 . S
C1361 H1384 0.950 . S
C1362 C1361 1.349 . S
C1362 C1374 1.349 1_565 S
C1363 C1361 1.327 . S
C1363 C1379 1.449 . S
C1363 H1385 0.950 . S
C1364 H1360 0.949 . S
C1364 C1372 1.574 . S
C1364 C1380 1.373 . S
H1365 C1373 0.950 . S
H1366 C1371 0.950 . S
H1367 C1372 0.949 . S
H1368 C1374 0.950 . S
H1369 C1375 0.950 . S
H1370 C1376 0.949 . S
C1371 H1366 0.950 . S
C1371 C1373 1.327 . S
C1371 C1377 1.429 1_565 S
C1372 C1364 1.574 . S
C1372 H1367 0.949 . S
C1372 C1378 1.368 . S
C1373 C1357 1.349 1_565 S
C1373 H1365 0.950 . S
C1373 C1371 1.327 . S
C1374 C1362 1.349 1_545 S
C1374 H1368 0.950 . S
C1374 C1375 1.327 . S
C1375 H1369 0.950 . S
C1375 C1374 1.327 . S
C1375 C1379 1.409 1_545 S
C1376 C1359 1.574 . S
C1376 H1370 0.949 . S
C1376 C1380 1.364 1_565 S
C1377 C1358 1.429 . S
C1377 C1371 1.429 1_545 S
C1377 C1378 1.523 . S
C1378 C1359 1.368 1_545 S
C1378 C1372 1.368 . S
C1378 C1377 1.523 . S
C1379 C1363 1.449 . S
C1379 C1375 1.409 1_565 S
C1379 C1380 1.522 1_565 S
C1380 C1364 1.373 . S
C1380 C1376 1.364 1_545 S
C1380 C1379 1.522 1_545 S
H1381 C1356 0.950 . S
H1382 C1358 0.950 . S
H1383 C1359 0.949 . S
H1384 C1361 0.950 . S
H1385 C1363 0.950 . S
C1386 C1387 1.349 . S
C1386 C1388 1.327 . S
C1386 H1411 0.950 . S
C1387 C1386 1.349 . S
C1387 C1403 1.349 1_556 S
C1388 C1386 1.327 . S
C1388 C1407 1.441 . S
C1388 H1412 0.950 . S
C1389 C1406 1.574 . S
C1389 C1408 1.385 . S
C1389 H1413 0.949 . S
H1390 C1394 0.949 . S
C1391 C1392 1.349 . S
C1391 C1393 1.327 . S
C1391 H1414 0.950 . S
C1392 C1391 1.349 . S
C1392 C1404 1.349 1_554 S
C1393 C1391 1.327 . S
C1393 C1409 1.429 . S
C1393 H1415 0.950 . S
C1394 H1390 0.949 . S
C1394 C1402 1.574 . S
C1394 C1410 1.368 1_556 S
H1395 C1403 0.950 . S
H1396 C1401 0.950 . S
H1397 C1402 0.949 . S
H1398 C1404 0.950 . S
H1399 C1405 0.950 . S
H1400 C1406 0.949 . S
C1401 H1396 0.950 . S
C1401 C1403 1.327 . S
C1401 C1407 1.416 1_554 S
C1402 C1394 1.574 . S
C1402 H1397 0.949 . S
C1402 C1408 1.352 1_556 S
C1403 C1387 1.349 1_554 S
C1403 H1395 0.950 . S
C1403 C1401 1.327 . S
C1404 C1392 1.349 1_556 S
C1404 H1398 0.950 . S
C1404 C1405 1.327 . S
C1405 H1399 0.950 . S
C1405 C1404 1.327 . S
C1405 C1409 1.429 1_556 S
C1406 C1389 1.574 . S
C1406 H1400 0.949 . S
C1406 C1410 1.368 . S
C1407 C1388 1.441 . S
C1407 C1401 1.416 1_556 S
C1407 C1408 1.522 1_556 S
C1408 C1389 1.385 . S
C1408 C1402 1.352 1_554 S
C1408 C1407 1.522 1_554 S
C1409 C1393 1.429 . S
C1409 C1405 1.429 1_554 S
C1409 C1410 1.523 . S
C1410 C1394 1.368 1_554 S
C1410 C1406 1.368 . S
C1410 C1409 1.523 . S
H1411 C1386 0.950 . S
H1412 C1388 0.950 . S
H1413 C1389 0.949 . S
H1414 C1391 0.950 . S
H1415 C1393 0.950 . S
C1416 C1417 1.349 1_455 S
C1416 C1418 1.327 . S
C1416 H1441 0.950 . S
C1417 C1416 1.349 1_655 S
C1417 C1433 1.349 . S
C1418 C1416 1.327 . S
C1418 C1437 1.429 1_455 S
C1418 H1442 0.950 . S
C1419 C1436 1.574 . S
C1419 C1438 1.368 1_545 S
C1419 H1443 0.949 . S
H1420 C1424 0.949 . S
C1421 C1422 1.349 . S
C1421 C1423 1.327 . S
C1421 H1444 0.950 . S
C1422 C1421 1.349 . S
C1422 C1434 1.349 1_655 S
C1423 C1421 1.327 . S
C1423 C1439 1.429 . S
C1423 H1445 0.950 . S
C1424 H1420 0.949 . S
C1424 C1432 1.574 . S
C1424 C1440 1.368 1_465 S
H1425 C1433 0.950 . S
H1426 C1431 0.950 . S
H1427 C1432 0.949 . S
H1428 C1434 0.950 . S
H1429 C1435 0.950 . S
H1430 C1436 0.949 . S
C1431 H1426 0.950 . S
C1431 C1433 1.327 . S
C1431 C1437 1.429 . S
C1432 C1424 1.574 . S
C1432 H1427 0.949 . S
C1432 C1438 1.368 1_455 S
C1433 C1417 1.349 . S
C1433 H1425 0.950 . S
C1433 C1431 1.327 . S
C1434 C1422 1.349 1_455 S
C1434 H1428 0.950 . S
C1434 C1435 1.327 . S
C1435 H1429 0.950 . S
C1435 C1434 1.327 . S
C1435 C1439 1.429 1_455 S
C1436 C1419 1.574 . S
C1436 H1430 0.949 . S
C1436 C1440 1.368 . S
C1437 C1418 1.429 1_655 S
C1437 C1431 1.429 . S
C1437 C1438 1.523 . S
C1438 C1419 1.368 1_565 S
C1438 C1432 1.368 1_655 S
C1438 C1437 1.523 . S
C1439 C1423 1.429 . S
C1439 C1435 1.429 1_655 S
C1439 C1440 1.523 . S
C1440 C1424 1.368 1_645 S
C1440 C1436 1.368 . S
C1440 C1439 1.523 . S
H1441 C1416 0.950 . S
H1442 C1418 0.950 . S
H1443 C1419 0.949 . S
H1444 C1421 0.950 . S
H1445 C1423 0.950 . S
C1446 C1447 1.349 . S
C1446 C1448 1.327 . S
C1446 H1471 0.950 . S
C1447 C1446 1.349 . S
C1447 C1463 1.349 1_455 S
C1448 C1446 1.327 . S
C1448 C1467 1.429 . S
C1448 H1472 0.950 . S
C1449 C1466 1.574 . S
C1449 C1468 1.368 1_655 S
C1449 H1473 0.949 . S
H1450 C1454 0.949 . S
C1451 C1452 1.343 1_655 S
C1451 C1453 1.327 . S
C1451 H1474 0.950 . S
C1452 C1451 1.343 1_455 S
C1452 C1464 1.355 . S
C1453 C1451 1.327 . S
C1453 C1469 1.403 1_655 S
C1453 H1475 0.950 . S
C1454 H1450 0.949 . S
C1454 C1462 1.574 . S
C1454 C1470 1.368 . S
H1455 C1463 0.950 . S
H1456 C1461 0.950 . S
H1457 C1462 0.949 . S
H1458 C1464 0.950 . S
H1459 C1465 0.950 . S
H1460 C1466 0.949 . S
C1461 H1456 0.950 . S
C1461 C1463 1.327 . S
C1461 C1467 1.429 1_655 S
C1462 C1454 1.574 . S
C1462 H1457 0.949 . S
C1462 C1468 1.368 . S
C1463 C1447 1.349 1_655 S
C1463 H1455 0.950 . S
C1463 C1461 1.327 . S
C1464 C1452 1.355 . S
C1464 H1458 0.950 . S
C1464 C1465 1.327 . S
C1465 H1459 0.950 . S
C1465 C1464 1.327 . S
C1465 C1469 1.454 . S
C1466 C1449 1.574 . S
C1466 H1460 0.949 . S
C1466 C1470 1.368 1_655 S
C1467 C1448 1.429 . S
C1467 C1461 1.429 1_455 S
C1467 C1468 1.523 . S
C1468 C1449 1.368 1_455 S
C1468 C1462 1.368 . S
C1468 C1467 1.523 . S
C1469 C1453 1.403 1_455 S
C1469 C1465 1.454 . S
C1469 C1470 1.524 . S
C1470 C1454 1.368 . S
C1470 C1466 1.368 1_455 S
C1470 C1469 1.524 . S
H1471 C1446 0.950 . S
H1472 C1448 0.950 . S
H1473 C1449 0.949 . S
H1474 C1451 0.950 . S
H1475 C1453 0.950 . S
C1476 C1477 1.349 1_545 S
C1476 C1478 1.327 . S
C1476 H1501 0.950 . S
C1477 C1476 1.349 1_565 S
C1477 C1493 1.349 . S
C1478 C1476 1.327 . S
C1478 C1497 1.429 1_545 S
C1478 H1502 0.950 . S
C1479 C1496 1.574 . S
C1479 C1498 1.368 . S
C1479 H1503 0.949 . S
H1480 C1484 0.949 . S
C1481 C1482 1.349 . S
C1481 C1483 1.327 . S
C1481 H1504 0.950 . S
C1482 C1481 1.349 . S
C1482 C1494 1.349 1_565 S
C1483 C1481 1.327 . S
C1483 C1499 1.429 . S
C1483 H1505 0.950 . S
C1484 H1480 0.949 . S
C1484 C1492 1.561 1_554 S
C1484 C1500 1.368 1_545 S
H1485 C1493 0.950 . S
H1486 C1491 0.950 . S
H1487 C1492 0.948 1_554 S
H1488 C1494 0.950 . S
H1489 C1495 0.950 . S
H1490 C1496 0.949 . S
C1491 H1486 0.950 . S
C1491 C1493 1.327 . S
C1491 C1497 1.429 . S
C1492 C1484 1.561 1_556 S
C1492 H1487 0.948 1_556 S
C1492 C1498 1.383 1_545 S
C1493 C1477 1.349 . S
C1493 H1485 0.950 . S
C1493 C1491 1.327 . S
C1494 C1482 1.349 1_545 S
C1494 H1488 0.950 . S
C1494 C1495 1.327 . S
C1495 H1489 0.950 . S
C1495 C1494 1.327 . S
C1495 C1499 1.429 1_545 S
C1496 C1479 1.574 . S
C1496 H1490 0.949 . S
C1496 C1500 1.368 1_556 S
C1497 C1478 1.429 1_565 S
C1497 C1491 1.429 . S
C1497 C1498 1.523 . S
C1498 C1479 1.368 . S
C1498 C1492 1.383 1_565 S
C1498 C1497 1.523 . S
C1499 C1483 1.429 . S
C1499 C1495 1.429 1_565 S
C1499 C1500 1.523 . S
C1500 C1484 1.368 1_565 S
C1500 C1496 1.368 1_554 S
C1500 C1499 1.523 . S
H1501 C1476 0.950 . S
H1502 C1478 0.950 . S
H1503 C1479 0.949 . S
H1504 C1481 0.950 . S
H1505 C1483 0.950 . S
C1506 C1507 1.349 . S
C1506 C1508 1.327 . S
C1506 H1531 0.950 . S
C1507 C1506 1.349 . S
C1507 C1523 1.349 . S
C1508 C1506 1.327 . S
C1508 C1527 1.429 . S
C1508 H1532 0.950 . S
C1509 C1526 1.540 1_554 S
C1509 C1528 1.368 . S
C1509 H1533 0.949 . S
H1510 C1514 0.949 . S
C1511 C1512 1.349 . S
C1511 C1513 1.327 . S
C1511 H1534 0.950 . S
C1512 C1511 1.349 . S
C1512 C1524 1.349 . S
C1513 C1511 1.327 . S
C1513 C1529 1.429 . S
C1513 H1535 0.950 . S
C1514 H1510 0.949 . S
C1514 C1522 1.574 . S
C1514 C1530 1.368 . S
H1515 C1523 0.950 . S
H1516 C1521 0.950 . S
H1517 C1522 0.949 . S
H1518 C1524 0.950 . S
H1519 C1525 0.950 . S
H1520 C1526 0.949 . S
C1521 H1516 0.950 . S
C1521 C1523 1.327 . S
C1521 C1527 1.429 . S
C1522 C1514 1.574 . S
C1522 H1517 0.949 . S
C1522 C1528 1.368 1_556 S
C1523 C1507 1.349 . S
C1523 H1515 0.950 . S
C1523 C1521 1.327 . S
C1524 C1512 1.349 . S
C1524 H1518 0.950 . S
C1524 C1525 1.327 . S
C1525 H1519 0.950 . S
C1525 C1524 1.327 . S
C1525 C1529 1.429 . S
C1526 C1509 1.540 1_556 S
C1526 H1520 0.949 . S
C1526 C1530 1.405 . S
C1527 C1508 1.429 . S
C1527 C1521 1.429 . S
C1527 C1528 1.523 . S
C1528 C1509 1.368 . S
C1528 C1522 1.368 1_554 S
C1528 C1527 1.523 . S
C1529 C1513 1.429 . S
C1529 C1525 1.429 . S
C1529 C1530 1.523 . S
C1530 C1514 1.368 . S
C1530 C1526 1.405 . S
C1530 C1529 1.523 . S
H1531 C1506 0.950 . S
H1532 C1508 0.950 . S
H1533 C1509 0.949 . S
H1534 C1511 0.950 . S
H1535 C1513 0.950 . S
C1536 C1537 1.349 . S
C1536 C1538 1.327 . S
C1536 H1561 0.950 . S
C1537 C1536 1.349 . S
C1537 C1553 1.349 1_545 S
C1538 C1536 1.327 . S
C1538 C1557 1.429 . S
C1538 H1562 0.950 . S
C1539 C1556 1.574 . S
C1539 C1558 1.368 1_565 S
C1539 H1563 0.949 . S
H1540 C1544 0.949 . S
C1541 C1542 1.341 1_565 S
C1541 C1543 1.327 . S
C1541 H1564 0.950 . S
C1542 C1541 1.341 1_545 S
C1542 C1554 1.357 . S
C1543 C1541 1.327 . S
C1543 C1559 1.392 1_565 S
C1543 H1565 0.950 . S
C1544 H1540 0.949 . S
C1544 C1552 1.574 . S
C1544 C1560 1.368 . S
H1545 C1553 0.950 . S
H1546 C1551 0.950 . S
H1547 C1552 0.949 . S
H1548 C1554 0.950 . S
H1549 C1555 0.950 . S
H1550 C1556 0.949 . S
C1551 H1546 0.950 . S
C1551 C1553 1.327 . S
C1551 C1557 1.429 1_565 S
C1552 C1544 1.574 . S
C1552 H1547 0.949 . S
C1552 C1558 1.368 . S
C1553 C1537 1.349 1_565 S
C1553 H1545 0.950 . S
C1553 C1551 1.327 . S
C1554 C1542 1.357 . S
C1554 H1548 0.950 . S
C1554 C1555 1.327 . S
C1555 H1549 0.950 . S
C1555 C1554 1.327 . S
C1555 C1559 1.465 . S
C1556 C1539 1.574 . S
C1556 H1550 0.949 . S
C1556 C1560 1.368 1_565 S
C1557 C1538 1.429 . S
C1557 C1551 1.429 1_545 S
C1557 C1558 1.523 . S
C1558 C1539 1.368 1_545 S
C1558 C1552 1.368 . S
C1558 C1557 1.523 . S
C1559 C1543 1.392 1_545 S
C1559 C1555 1.465 . S
C1559 C1560 1.524 . S
C1560 C1544 1.368 . S
C1560 C1556 1.368 1_545 S
C1560 C1559 1.524 . S
H1561 C1536 0.950 . S
H1562 C1538 0.950 . S
H1563 C1539 0.949 . S
H1564 C1541 0.950 . S
H1565 C1543 0.950 . S
C1566 C1567 1.349 . S
C1566 C1568 1.327 . S
C1566 H1591 0.950 . S
C1567 C1566 1.349 . S
C1567 C1583 1.349 . S
C1568 C1566 1.327 . S
C1568 C1587 1.429 . S
C1568 H1592 0.950 . S
C1569 C1586 1.574 . S
C1569 C1588 1.368 . S
C1569 H1593 0.949 . S
H1570 C1574 0.949 . S
C1571 C1572 1.349 . S
C1571 C1573 1.327 . S
C1571 H1594 0.950 . S
C1572 C1571 1.349 . S
C1572 C1584 1.349 . S
C1573 C1571 1.327 . S
C1573 C1589 1.429 . S
C1573 H1595 0.950 . S
C1574 H1570 0.949 . S
C1574 C1582 1.574 . S
C1574 C1590 1.368 . S
H1575 C1583 0.950 . S
H1576 C1581 0.950 . S
H1577 C1582 0.949 . S
H1578 C1584 0.950 . S
H1579 C1585 0.950 . S
H1580 C1586 0.949 . S
C1581 H1576 0.950 . S
C1581 C1583 1.327 . S
C1581 C1587 1.429 . S
C1582 C1574 1.574 . S
C1582 H1577 0.949 . S
C1582 C1588 1.368 . S
C1583 C1567 1.349 . S
C1583 H1575 0.950 . S
C1583 C1581 1.327 . S
C1584 C1572 1.349 . S
C1584 H1578 0.950 . S
C1584 C1585 1.327 . S
C1585 H1579 0.950 . S
C1585 C1584 1.327 . S
C1585 C1589 1.429 . S
C1586 C1569 1.574 . S
C1586 H1580 0.949 . S
C1586 C1590 1.368 . S
C1587 C1568 1.429 . S
C1587 C1581 1.429 . S
C1587 C1588 1.523 . S
C1588 C1569 1.368 . S
C1588 C1582 1.368 . S
C1588 C1587 1.523 . S
C1589 C1573 1.429 . S
C1589 C1585 1.429 . S
C1589 C1590 1.523 . S
C1590 C1574 1.368 . S
C1590 C1586 1.368 . S
C1590 C1589 1.523 . S
H1591 C1566 0.950 . S
H1592 C1568 0.950 . S
H1593 C1569 0.949 . S
H1594 C1571 0.950 . S
H1595 C1573 0.950 . S
C1596 C1597 1.349 . S
C1596 C1598 1.327 . S
C1596 H1621 0.950 . S
C1597 C1596 1.349 . S
C1597 C1613 1.349 1_556 S
C1598 C1596 1.327 . S
C1598 C1617 1.429 . S
C1598 H1622 0.950 . S
C1599 C1616 1.574 . S
C1599 C1618 1.368 1_654 S
C1599 H1623 0.949 . S
H1600 C1604 0.948 . S
C1601 C1602 1.349 1_554 S
C1601 C1603 1.327 . S
C1601 H1624 0.950 . S
C1602 C1601 1.349 1_556 S
C1602 C1614 1.349 . S
C1603 C1601 1.327 . S
C1603 C1619 1.429 1_554 S
C1603 H1625 0.950 . S
C1604 H1600 0.948 . S
C1604 C1612 1.549 1_655 S
C1604 C1620 1.396 . S
H1605 C1613 0.950 . S
H1606 C1611 0.950 . S
H1607 C1612 0.949 . S
H1608 C1614 0.950 . S
H1609 C1615 0.950 . S
H1610 C1616 0.949 . S
C1611 H1606 0.950 . S
C1611 C1613 1.327 . S
C1611 C1617 1.429 1_554 S
C1612 C1604 1.549 1_455 S
C1612 H1607 0.949 . S
C1612 C1618 1.368 . S
C1613 C1597 1.349 1_554 S
C1613 H1605 0.950 . S
C1613 C1611 1.327 . S
C1614 C1602 1.349 . S
C1614 H1608 0.950 . S
C1614 C1615 1.327 . S
C1615 H1609 0.950 . S
C1615 C1614 1.327 . S
C1615 C1619 1.429 . S
C1616 C1599 1.574 . S
C1616 H1610 0.949 . S
C1616 C1620 1.368 1_554 S
C1617 C1598 1.429 . S
C1617 C1611 1.429 1_556 S
C1617 C1618 1.523 . S
C1618 C1599 1.368 1_456 S
C1618 C1612 1.368 . S
C1618 C1617 1.523 . S
C1619 C1603 1.429 1_556 S
C1619 C1615 1.429 . S
C1619 C1620 1.523 . S
C1620 C1604 1.396 . S
C1620 C1616 1.368 1_556 S
C1620 C1619 1.523 . S
H1621 C1596 0.950 . S
H1622 C1598 0.950 . S
H1623 C1599 0.949 . S
H1624 C1601 0.950 . S
H1625 C1603 0.950 . S
C1626 C1627 1.349 . S
C1626 C1628 1.327 . S
C1626 H1651 0.950 . S
C1627 C1626 1.349 . S
C1627 C1643 1.349 . S
C1628 C1626 1.327 . S
C1628 C1647 1.429 . S
C1628 H1652 0.950 . S
C1629 C1646 1.574 . S
C1629 C1648 1.368 1_655 S
C1629 H1653 0.949 . S
H1630 C1634 0.949 . S
C1631 C1632 1.349 . S
C1631 C1633 1.327 . S
C1631 H1654 0.950 . S
C1632 C1631 1.349 . S
C1632 C1644 1.349 . S
C1633 C1631 1.327 . S
C1633 C1649 1.429 . S
C1633 H1655 0.950 . S
C1634 H1630 0.949 . S
C1634 C1642 1.539 1_655 S
C1634 C1650 1.406 . S
H1635 C1643 0.950 . S
H1636 C1641 0.950 . S
H1637 C1642 0.949 . S
H1638 C1644 0.950 . S
H1639 C1645 0.950 . S
H1640 C1646 0.949 . S
C1641 H1636 0.950 . S
C1641 C1643 1.327 . S
C1641 C1647 1.429 . S
C1642 C1634 1.539 1_455 S
C1642 H1637 0.949 . S
C1642 C1648 1.368 . S
C1643 C1627 1.349 . S
C1643 H1635 0.950 . S
C1643 C1641 1.327 . S
C1644 C1632 1.349 . S
C1644 H1638 0.950 . S
C1644 C1645 1.327 . S
C1645 H1639 0.950 . S
C1645 C1644 1.327 . S
C1645 C1649 1.429 . S
C1646 C1629 1.574 . S
C1646 H1640 0.949 . S
C1646 C1650 1.368 . S
C1647 C1628 1.429 . S
C1647 C1641 1.429 . S
C1647 C1648 1.523 . S
C1648 C1629 1.368 1_455 S
C1648 C1642 1.368 . S
C1648 C1647 1.523 . S
C1649 C1633 1.429 . S
C1649 C1645 1.429 . S
C1649 C1650 1.523 . S
C1650 C1634 1.406 . S
C1650 C1646 1.368 . S
C1650 C1649 1.523 . S
H1651 C1626 0.950 . S
H1652 C1628 0.950 . S
H1653 C1629 0.949 . S
H1654 C1631 0.950 . S
H1655 C1633 0.950 . S
C1656 C1657 1.349 . S
C1656 C1658 1.327 . S
C1656 H1681 0.950 . S
C1657 C1656 1.349 . S
C1657 C1673 1.349 . S
C1658 C1656 1.327 . S
C1658 C1677 1.429 . S
C1658 H1682 0.950 . S
C1659 C1676 1.574 . S
C1659 C1678 1.368 . S
C1659 H1683 0.949 . S
H1660 C1664 0.949 . S
C1661 C1662 1.349 . S
C1661 C1663 1.327 . S
C1661 H1684 0.950 . S
C1662 C1661 1.349 . S
C1662 C1674 1.349 . S
C1663 C1661 1.327 . S
C1663 C1679 1.429 . S
C1663 H1685 0.950 . S
C1664 H1660 0.949 . S
C1664 C1672 1.574 . S
C1664 C1680 1.368 . S
H1665 C1673 0.950 . S
H1666 C1671 0.950 . S
H1667 C1672 0.949 . S
H1668 C1674 0.950 . S
H1669 C1675 0.950 . S
H1670 C1676 0.949 . S
C1671 H1666 0.950 . S
C1671 C1673 1.327 . S
C1671 C1677 1.429 . S
C1672 C1664 1.574 . S
C1672 H1667 0.949 . S
C1672 C1678 1.368 . S
C1673 C1657 1.349 . S
C1673 H1665 0.950 . S
C1673 C1671 1.327 . S
C1674 C1662 1.349 . S
C1674 H1668 0.950 . S
C1674 C1675 1.327 . S
C1675 H1669 0.950 . S
C1675 C1674 1.327 . S
C1675 C1679 1.429 . S
C1676 C1659 1.574 . S
C1676 H1670 0.949 . S
C1676 C1680 1.368 . S
C1677 C1658 1.429 . S
C1677 C1671 1.429 . S
C1677 C1678 1.523 . S
C1678 C1659 1.368 . S
C1678 C1672 1.368 . S
C1678 C1677 1.523 . S
C1679 C1663 1.429 . S
C1679 C1675 1.429 . S
C1679 C1680 1.523 . S
C1680 C1664 1.368 . S
C1680 C1676 1.368 . S
C1680 C1679 1.523 . S
H1681 C1656 0.950 . S
H1682 C1658 0.950 . S
H1683 C1659 0.949 . S
H1684 C1661 0.950 . S
H1685 C1663 0.950 . S
C1686 C1687 1.349 . S
C1686 C1688 1.327 . S
C1686 H1711 0.950 . S
C1687 C1686 1.349 . S
C1687 C1703 1.349 . S
C1688 C1686 1.327 . S
C1688 C1707 1.429 . S
C1688 H1712 0.950 . S
C1689 C1706 1.574 . S
C1689 C1708 1.368 . S
C1689 H1713 0.949 . S
H1690 C1694 0.949 . S
C1691 C1692 1.349 . S
C1691 C1693 1.327 . S
C1691 H1714 0.950 . S
C1692 C1691 1.349 . S
C1692 C1704 1.349 . S
C1693 C1691 1.327 . S
C1693 C1709 1.429 . S
C1693 H1715 0.950 . S
C1694 H1690 0.949 . S
C1694 C1702 1.574 . S
C1694 C1710 1.368 . S
H1695 C1703 0.950 . S
H1696 C1701 0.950 . S
H1697 C1702 0.949 . S
H1698 C1704 0.950 . S
H1699 C1705 0.950 . S
H1700 C1706 0.949 . S
C1701 H1696 0.950 . S
C1701 C1703 1.327 . S
C1701 C1707 1.429 . S
C1702 C1694 1.574 . S
C1702 H1697 0.949 . S
C1702 C1708 1.368 . S
C1703 C1687 1.349 . S
C1703 H1695 0.950 . S
C1703 C1701 1.327 . S
C1704 C1692 1.349 . S
C1704 H1698 0.950 . S
C1704 C1705 1.327 . S
C1705 H1699 0.950 . S
C1705 C1704 1.327 . S
C1705 C1709 1.429 . S
C1706 C1689 1.574 . S
C1706 H1700 0.949 . S
C1706 C1710 1.368 . S
C1707 C1688 1.429 . S
C1707 C1701 1.429 . S
C1707 C1708 1.523 . S
C1708 C1689 1.368 . S
C1708 C1702 1.368 . S
C1708 C1707 1.523 . S
C1709 C1693 1.429 . S
C1709 C1705 1.429 . S
C1709 C1710 1.523 . S
C1710 C1694 1.368 . S
C1710 C1706 1.368 . S
C1710 C1709 1.523 . S
H1711 C1686 0.950 . S
H1712 C1688 0.950 . S
H1713 C1689 0.949 . S
H1714 C1691 0.950 . S
H1715 C1693 0.950 . S
C1716 C1717 1.349 . S
C1716 C1718 1.327 . S
C1716 H1741 0.950 . S
C1717 C1716 1.349 . S
C1717 C1733 1.349 . S
C1718 C1716 1.327 . S
C1718 C1737 1.429 . S
C1718 H1742 0.950 . S
C1719 C1736 1.574 . S
C1719 C1738 1.368 1_545 S
C1719 H1743 0.949 . S
H1720 C1724 0.949 . S
C1721 C1722 1.349 . S
C1721 C1723 1.327 . S
C1721 H1744 0.950 . S
C1722 C1721 1.349 . S
C1722 C1734 1.349 . S
C1723 C1721 1.327 . S
C1723 C1739 1.429 . S
C1723 H1745 0.950 . S
C1724 H1720 0.949 . S
C1724 C1732 1.574 . S
C1724 C1740 1.368 1_565 S
H1725 C1733 0.950 . S
H1726 C1731 0.950 . S
H1727 C1732 0.949 . S
H1728 C1734 0.950 . S
H1729 C1735 0.950 . S
H1730 C1736 0.949 . S
C1731 H1726 0.950 . S
C1731 C1733 1.327 . S
C1731 C1737 1.429 . S
C1732 C1724 1.574 . S
C1732 H1727 0.949 . S
C1732 C1738 1.368 . S
C1733 C1717 1.349 . S
C1733 H1725 0.950 . S
C1733 C1731 1.327 . S
C1734 C1722 1.349 . S
C1734 H1728 0.950 . S
C1734 C1735 1.327 . S
C1735 H1729 0.950 . S
C1735 C1734 1.327 . S
C1735 C1739 1.429 . S
C1736 C1719 1.574 . S
C1736 H1730 0.949 . S
C1736 C1740 1.368 . S
C1737 C1718 1.429 . S
C1737 C1731 1.429 . S
C1737 C1738 1.523 . S
C1738 C1719 1.368 1_565 S
C1738 C1732 1.368 . S
C1738 C1737 1.523 . S
C1739 C1723 1.429 . S
C1739 C1735 1.429 . S
C1739 C1740 1.523 . S
C1740 C1724 1.368 1_545 S
C1740 C1736 1.368 . S
C1740 C1739 1.523 . S
H1741 C1716 0.950 . S
H1742 C1718 0.950 . S
H1743 C1719 0.949 . S
H1744 C1721 0.950 . S
H1745 C1723 0.950 . S
C1746 C1747 1.349 . S
C1746 C1748 1.327 . S
C1746 H1771 0.950 . S
C1747 C1746 1.349 . S
C1747 C1763 1.349 1_554 S
C1748 C1746 1.327 . S
C1748 C1767 1.429 . S
C1748 H1772 0.950 . S
C1749 C1766 1.574 . S
C1749 C1768 1.368 1_556 S
C1749 H1773 0.949 . S
H1750 C1754 0.949 . S
C1751 C1752 1.342 1_556 S
C1751 C1753 1.327 . S
C1751 H1774 0.950 . S
C1752 C1751 1.342 1_554 S
C1752 C1764 1.356 . S
C1753 C1751 1.327 . S
C1753 C1769 1.398 1_556 S
C1753 H1775 0.950 . S
C1754 H1750 0.949 . S
C1754 C1762 1.574 . S
C1754 C1770 1.368 . S
H1755 C1763 0.950 . S
H1756 C1761 0.950 . S
H1757 C1762 0.949 . S
H1758 C1764 0.950 . S
H1759 C1765 0.950 . S
H1760 C1766 0.949 . S
C1761 H1756 0.950 . S
C1761 C1763 1.327 . S
C1761 C1767 1.429 1_556 S
C1762 C1754 1.574 . S
C1762 H1757 0.949 . S
C1762 C1768 1.368 . S
C1763 C1747 1.349 1_556 S
C1763 H1755 0.950 . S
C1763 C1761 1.327 . S
C1764 C1752 1.356 . S
C1764 H1758 0.950 . S
C1764 C1765 1.327 . S
C1765 H1759 0.950 . S
C1765 C1764 1.327 . S
C1765 C1769 1.459 . S
C1766 C1749 1.574 . S
C1766 H1760 0.949 . S
C1766 C1770 1.368 1_556 S
C1767 C1748 1.429 . S
C1767 C1761 1.429 1_554 S
C1767 C1768 1.523 . S
C1768 C1749 1.368 1_554 S
C1768 C1762 1.368 . S
C1768 C1767 1.523 . S
C1769 C1753 1.398 1_554 S
C1769 C1765 1.459 . S
C1769 C1770 1.524 . S
C1770 C1754 1.368 . S
C1770 C1766 1.368 1_554 S
C1770 C1769 1.524 . S
H1771 C1746 0.950 . S
H1772 C1748 0.950 . S
H1773 C1749 0.949 . S
H1774 C1751 0.950 . S
H1775 C1753 0.950 . S
C337 C247 0.557 . S
C342 C8 0.532 . S
C367 C22 0.561 . S
C372 C233 0.623 . S
C397 C36 0.832 . S
C402 C275 0.827 . S
C427 C50 0.846 . S
C432 C261 0.820 . S
C457 C64 0.536 . S
C462 C303 0.558 . S
C487 C78 0.899 . S
C492 C317 0.893 . S
C517 C289 0.626 . S
C522 C92 0.556 . S
C547 C163 0.848 . S
C552 C106 0.873 . S
C577 C120 0.536 . S
C582 C51 0.558 . S
C607 C23 0.889 . S
C612 C134 0.902 . S
C637 C148 1.199 . S
C642 C9 1.179 . S
C667 C162 0.873 . S
C672 C205 0.848 . S
C697 C79 1.107 . S
C702 C176 1.170 . S
C727 C65 1.175 . S
C732 C190 1.201 . S
C757 C204 0.873 . S
C762 C107 0.848 . S
C787 C218 0.899 . S
C792 C93 0.893 . S
C817 C135 1.107 . S
C822 C232 1.170 . S
C847 C149 0.824 . S
C852 C246 0.842 . S
C877 C121 1.175 . S
C882 C260 1.201 . S
C907 C274 0.832 . S
C912 C331 0.827 . S
C937 C219 1.107 . S
C942 C288 1.170 . S
C967 C302 0.846 . S
C972 C191 0.820 . S
C997 C177 0.626 . S
C1002 C316 0.556 . S
C1027 C330 0.832 . S
C1032 C37 0.827 . S
C1057 C6 1.679 . S
C1062 C20 1.654 . S
C1087 C48 1.491 . S
C1092 C34 1.505 . S
C1117 C62 1.679 . S
C1122 C90 1.654 . S
C1147 C76 2.084 . S
C1152 C104 2.059 . S
C1177 C314 1.656 . S
C1182 C118 1.679 . S
C1207 C132 2.084 . S
C1212 C160 2.059 . S
C1237 C286 1.948 . S
C1242 C146 1.971 . S
C1267 C188 1.971 . S
C1272 C174 1.948 . S
C1297 C202 2.059 . S
C1302 C216 2.084 . S
C1327 C258 1.971 . S
C1332 C230 1.948 . S
C1357 C244 1.491 . S
C1362 C272 1.505 . S
C1387 C328 1.506 . S
C1392 C300 1.489 . S
C1417 C35 1.117 1_655 S
C1422 C7 1.125 . S
C1447 C21 1.491 1_455 S
C1452 C49 1.497 1_455 S
C1477 C273 1.117 1_565 S
C1482 C63 1.125 . S
C1507 C77 1.421 . S
C1512 C259 1.425 . S
C1537 C91 1.491 1_545 S
C1542 C245 1.497 1_545 S
C1567 C231 1.811 . S
C1572 C105 1.808 . S
C1597 C119 1.125 . S
C1602 C329 1.117 1_556 S
C1627 C133 1.421 . S
C1632 C147 1.425 . S
C1657 C287 1.811 . S
C1662 C161 1.808 . S
C1687 C175 1.811 . S
C1692 C203 1.808 . S
C1717 C189 1.425 . S
C1722 C217 1.421 . S
C1747 C315 1.491 1_554 S
C1752 C301 1.497 1_554 S
