# Generated by pormake.
# Topology smm, (6)-cn, num edge types: 1
# Building blocks:
#     Node 0, Type 0, BuildingBlock: NUHQIS_clean_sbu_0, # of connection points: 6
#     Node 1, Type 0, BuildingBlock: NUHQIS_clean_sbu_0, # of connection points: 6
#     Node 2, Type 0, BuildingBlock: NUHQIS_clean_sbu_0, # of connection points: 6
#     Node 3, Type 0, BuildingBlock: NUHQIS_clean_sbu_0, # of connection points: 6
#     Node 4, Type 0, BuildingBlock: NUHQIS_clean_sbu_0, # of connection points: 6
#     Node 5, Type 0, BuildingBlock: NUHQIS_clean_sbu_0, # of connection points: 6
#     Node 6, Type 0, BuildingBlock: NUHQIS_clean_sbu_0, # of connection points: 6
#     Node 7, Type 0, BuildingBlock: NUHQIS_clean_sbu_0, # of connection points: 6
#     Node 8, Type 0, BuildingBlock: NUHQIS_clean_sbu_0, # of connection points: 6
#     Edge 9, Type (0, 0), BuildingBlock: OJICUG_clean_linker_0, # of connection points: 2
#     Edge 10, Type (0, 0), BuildingBlock: OJICUG_clean_linker_0, # of connection points: 2
#     Edge 11, Type (0, 0), BuildingBlock: OJICUG_clean_linker_0, # of connection points: 2
#     Edge 12, Type (0, 0), BuildingBlock: OJICUG_clean_linker_0, # of connection points: 2
#     Edge 13, Type (0, 0), BuildingBlock: OJICUG_clean_linker_0, # of connection points: 2
#     Edge 14, Type (0, 0), BuildingBlock: OJICUG_clean_linker_0, # of connection points: 2
#     Edge 15, Type (0, 0), BuildingBlock: OJICUG_clean_linker_0, # of connection points: 2
#     Edge 16, Type (0, 0), BuildingBlock: OJICUG_clean_linker_0, # of connection points: 2
#     Edge 17, Type (0, 0), BuildingBlock: OJICUG_clean_linker_0, # of connection points: 2
#     Edge 18, Type (0, 0), BuildingBlock: OJICUG_clean_linker_0, # of connection points: 2
#     Edge 19, Type (0, 0), BuildingBlock: OJICUG_clean_linker_0, # of connection points: 2
#     Edge 20, Type (0, 0), BuildingBlock: OJICUG_clean_linker_0, # of connection points: 2
#     Edge 21, Type (0, 0), BuildingBlock: OJICUG_clean_linker_0, # of connection points: 2
#     Edge 22, Type (0, 0), BuildingBlock: OJICUG_clean_linker_0, # of connection points: 2
#     Edge 23, Type (0, 0), BuildingBlock: OJICUG_clean_linker_0, # of connection points: 2
#     Edge 24, Type (0, 0), BuildingBlock: OJICUG_clean_linker_0, # of connection points: 2
#     Edge 25, Type (0, 0), BuildingBlock: OJICUG_clean_linker_0, # of connection points: 2
#     Edge 26, Type (0, 0), BuildingBlock: OJICUG_clean_linker_0, # of connection points: 2
#     Edge 27, Type (0, 0), BuildingBlock: OJICUG_clean_linker_0, # of connection points: 2
#     Edge 28, Type (0, 0), BuildingBlock: OJICUG_clean_linker_0, # of connection points: 2
#     Edge 29, Type (0, 0), BuildingBlock: OJICUG_clean_linker_0, # of connection points: 2
#     Edge 30, Type (0, 0), BuildingBlock: OJICUG_clean_linker_0, # of connection points: 2
#     Edge 31, Type (0, 0), BuildingBlock: OJICUG_clean_linker_0, # of connection points: 2
#     Edge 32, Type (0, 0), BuildingBlock: OJICUG_clean_linker_0, # of connection points: 2
#     Edge 33, Type (0, 0), BuildingBlock: OJICUG_clean_linker_0, # of connection points: 2
#     Edge 34, Type (0, 0), BuildingBlock: OJICUG_clean_linker_0, # of connection points: 2
#     Edge 35, Type (0, 0), BuildingBlock: OJICUG_clean_linker_0, # of connection points: 2
# Relax obj value: 0.025
# Max RMSD: 0.097
# Mean RMSD: 0.097
data_MOF--net-smm--node1-NUHQIS_clean_sbu_0--edge1-OJICUG_clean_linker_0
_symmetry_space_group_name_H-M    P1
_symmetry_Int_Tables_number       1
_symmetry_cell_setting            triclinic
loop_
_symmetry_equiv_pos_as_xyz
'x, y, z'
_cell_length_a     56.473159
_cell_length_b     56.463238
_cell_length_c     11.132869
_cell_angle_alpha  90.205054
_cell_angle_beta   89.693031
_cell_angle_gamma 120.12603
loop_
_atom_site_label
_atom_site_type_symbol
_atom_site_fract_x
_atom_site_fract_y
_atom_site_fract_z
_atom_type_partial_charge
Tb0 Tb 1.03946 0.22064 0.94686 0.0
Eu1 Eu 0.09343 0.21094 0.94873 0.0
C2 C 0.06501 0.21308 0.70394 0.0
C3 C 1.03123 0.16113 0.93192 0.0
C4 C 0.9888 0.24414 0.02266 0.0
C5 C 0.99009 0.28689 0.07217 0.0
C6 C 1.00202 0.27291 0.01825 0.0
C7 C 0.96391 0.22982 0.08552 0.0
C8 C 0.95203 0.24378 0.13967 0.0
C9 C 0.96465 0.27247 0.13154 0.0
C10 C 0.9991 0.2286 0.95357 0.0
O11 O 1.04458 0.21104 0.13007 0.0
O12 O 0.0907 0.22717 0.12907 0.0
O13 O 0.10908 0.2551 0.90118 0.0
O14 O 0.0749 0.26076 -0.01518 0.0
C15 C 0.06769 0.21926 0.18689 0.0
O16 O 0.11826 0.19839 0.04949 0.0
O17 O 0.13011 0.21346 0.86784 0.0
O18 O 0.07762 0.20211 0.75977 0.0
O19 O 0.05263 0.22432 0.76085 0.0
O20 O 1.02369 0.17823 0.89128 0.0
O21 O 0.0556 0.16982 -0.02167 0.0
C22 C 0.09941 0.27089 0.93621 0.0
O23 O 1.02074 0.24246 0.88654 0.0
O24 O 0.99956 0.20845 0.00807 0.0
C25 C 0.14413 0.18292 0.94175 0.0
C26 C 0.16186 0.14423 0.92293 0.0
C27 C 0.18074 0.17215 0.94245 0.0
C28 C 0.17195 0.19123 0.95164 0.0
C29 C 0.12513 0.15524 0.92018 0.0
C30 C 0.13393 0.13605 0.91072 0.0
C31 C 0.13551 0.2033 0.96184 0.0
H32 H 1.00028 0.30894 0.06284 0.0
H33 H 1.02117 0.28462 -0.02992 0.0
H34 H 0.95322 0.20766 0.09008 0.0
H35 H 0.93267 0.23201 0.18623 0.0
H36 H 0.2023 0.17921 0.95434 0.0
H37 H 0.18689 0.21249 -0.03071 0.0
H38 H 0.10353 0.14843 0.91248 0.0
H39 H 0.11883 0.11481 0.8942 0.0
Tb40 Tb 0.87564 0.8457 0.9517 0.0
Eu41 Eu 0.88476 0.90926 0.95599 0.0
C42 C 0.88295 0.87876 0.71008 0.0
C43 C 0.93492 0.8976 0.93833 0.0
C44 C 0.85311 0.77155 0.0236 0.0
C45 C 0.85389 0.73425 0.12928 0.0
C46 C 0.86769 0.76027 0.07693 0.0
C47 C 0.82431 0.75658 0.0271 0.0
C48 C 0.81048 0.73047 0.07916 0.0
C49 C 0.82509 0.71871 0.1288 0.0
C50 C 0.86833 0.79758 0.95594 0.0
O51 O 0.88481 0.86033 0.13552 0.0
O52 O 0.86865 0.89027 0.13624 0.0
O53 O 0.84066 0.88036 0.90934 0.0
O54 O 0.8353 0.84045 -0.01014 0.0
C55 C 0.87653 0.87518 0.19313 0.0
O56 O 0.89714 0.94672 0.05759 0.0
O57 O 0.88218 0.94331 0.87609 0.0
O58 O 0.89377 0.90238 0.76659 0.0
O59 O 0.87189 0.85511 0.76629 0.0
O60 O 0.91812 0.87281 0.89728 0.0
O61 O 0.92592 0.91304 -0.01491 0.0
C62 C 0.82503 0.85475 0.9431 0.0
O63 O 0.85423 0.80508 0.89009 0.0
O64 O 0.88825 0.81834 0.01125 0.0
C65 C 0.91313 0.98796 0.94954 0.0
C66 C 0.95256 0.04423 0.92776 0.0
C67 C 0.92495 0.0357 0.95262 0.0
C68 C 0.9055 1.0079 0.96327 0.0
C69 C 0.9405 0.99614 0.92308 0.0
C70 C 0.96006 1.02405 0.9122 0.0
C71 C 0.89241 0.95903 -0.02995 0.0
H72 H 0.86585 0.72612 0.16844 0.0
H73 H 0.88987 0.77133 0.07529 0.0
H74 H 0.81243 0.76464 -0.0135 0.0
H75 H 0.78833 0.71906 0.07596 0.0
H76 H 0.91843 0.05054 -0.03271 0.0
H77 H 0.8845 1.00198 -0.01527 0.0
H78 H 0.94678 0.981 0.91242 0.0
H79 H 0.98104 1.0298 0.89168 0.0
Tb80 Tb 0.25233 0.05829 0.94551 0.0
Eu81 Eu 0.18838 1.00466 0.94931 0.0
C82 C 0.2195 0.03291 0.70366 0.0
C83 C 0.20133 0.06681 0.93397 0.0
C84 C 0.32647 0.10889 0.0214 0.0
C85 C 0.36296 0.14604 0.1356 0.0
C86 C 0.33726 0.13416 0.08083 0.0
C87 C 0.3416 0.09527 0.02124 0.0
C88 C 0.36739 0.10721 0.07572 0.0
C89 C 0.37868 0.13305 0.13145 0.0
C90 C 0.30084 0.09853 0.95149 0.0
O91 O 0.23769 0.05308 0.12946 0.0
O92 O 0.20708 1.00703 0.12914 0.0
O93 O 0.21639 0.9885 0.90052 0.0
O94 O 0.25647 1.02257 -0.01734 0.0
C95 C 0.22256 1.02997 0.18654 0.0
O96 O 0.15145 0.97869 0.05271 0.0
O97 O 0.15303 0.96974 0.86467 0.0
O98 O 0.19586 1.02062 0.76035 0.0
O99 O 0.24313 0.04515 0.75978 0.0
O100 O 0.2258 0.07412 0.89059 0.0
O101 O 0.18577 0.04264 -0.01716 0.0
C102 C 0.24188 0.99806 0.93449 0.0
O103 O 0.2931 0.07672 0.88593 0.0
O104 O 0.28012 0.09831 0.00471 0.0
C105 C 0.10902 0.95718 0.94709 0.0
C106 C 0.05243 0.93967 0.93177 0.0
C107 C 0.06844 0.95667 0.02646 0.0
C108 C 0.09634 0.9653 0.03409 0.0
C109 C 0.0932 0.94062 0.85128 0.0
C110 C 0.06528 0.93205 0.84341 0.0
C111 C 0.13782 0.96371 0.96096 0.0
H112 H 0.37073 0.16571 0.1794 0.0
H113 H 0.3261 0.14515 0.08213 0.0
H114 H 0.33394 0.07578 -0.02409 0.0
H115 H 0.37896 0.0967 0.06956 0.0
H116 H 0.05924 0.96264 0.09719 0.0
H117 H 0.10778 0.9778 0.10996 0.0
H118 H 0.10232 0.93385 0.78342 0.0
H119 H 0.05374 0.9193 0.76832 0.0
Tb120 Tb 0.70487 0.55377 0.27438 0.0
Eu121 Eu 0.75866 0.54394 0.27503 0.0
C122 C 0.73008 0.54623 0.03111 0.0
C123 C 0.69656 0.49426 0.26149 0.0
C124 C 0.65462 0.57762 0.35227 0.0
C125 C 0.61755 0.57727 0.46667 0.0
C126 C 0.62927 0.56326 0.41151 0.0
C127 C 0.66848 0.60643 0.35276 0.0
C128 C 0.6567 0.62047 0.40759 0.0
C129 C 0.63078 0.60605 0.46306 0.0
C130 C 0.6648 0.56216 0.2818 0.0
O131 O 0.7099 0.54412 0.45748 0.0
O132 O 0.75598 0.5599 0.45628 0.0
O133 O 0.77427 0.58795 0.22487 0.0
O134 O 0.74063 0.59349 0.31456 0.0
C135 C 0.733 0.55218 0.51414 0.0
O136 O 0.78555 0.53444 0.37764 0.0
O137 O 0.79321 0.54316 0.18783 0.0
O138 O 0.74238 0.53495 0.08689 0.0
O139 O 0.71796 0.55769 0.08822 0.0
O140 O 0.68905 0.51127 0.2195 0.0
O141 O 0.72089 0.50307 0.30856 0.0
C142 C 0.76481 0.60373 0.26258 0.0
O143 O 0.6866 0.57614 0.21579 0.0
O144 O 0.66492 0.54166 0.33463 0.0
C145 C 0.8069 0.51303 0.27338 0.0
C146 C 0.82511 0.47449 0.26203 0.0
C147 C 0.80879 0.47429 0.35849 0.0
C148 C 0.79982 0.4933 0.36417 0.0
C149 C 0.8228 0.51299 0.17594 0.0
C150 C 0.83172 0.49391 0.17007 0.0
C151 C 0.80004 0.53513 0.28474 0.0
H152 H 0.59782 0.56546 0.51027 0.0
H153 H 0.6181 0.54107 0.41234 0.0
H154 H 0.68804 0.61817 0.30763 0.0
H155 H 0.6674 0.6426 0.40186 0.0
H156 H 0.80361 0.45996 0.43191 0.0
H157 H 0.78787 0.49289 0.4414 0.0
H158 H 0.82879 0.52808 0.10517 0.0
H159 H 0.84393 0.49447 0.09362 0.0
Tb160 Tb 0.54354 0.1786 0.27994 0.0
Eu161 Eu 0.5527 0.2421 0.28327 0.0
C162 C 0.55134 0.21177 0.038 0.0
C163 C 0.60294 0.23044 0.26651 0.0
C164 C 0.51995 0.10431 0.3527 0.0
C165 C 0.52001 0.06699 0.46148 0.0
C166 C 0.53417 0.09293 0.40851 0.0
C167 C 0.49114 0.08954 0.35438 0.0
C168 C 0.47695 0.0635 0.40701 0.0
C169 C 0.49122 0.05163 0.45909 0.0
C170 C 0.53556 0.13024 0.2846 0.0
O171 O 0.55311 0.19339 0.46333 0.0
O172 O 0.53686 0.22325 0.46415 0.0
O173 O 0.50886 0.21309 0.23338 0.0
O174 O 0.50352 0.17388 0.32047 0.0
C175 C 0.54489 0.20826 0.52103 0.0
O176 O 0.56484 0.27956 0.38446 0.0
O177 O 0.5497 0.27589 0.20314 0.0
O178 O 0.56223 0.23538 0.0946 0.0
O179 O 0.54004 0.18811 0.09423 0.0
O180 O 0.58614 0.2055 0.22681 0.0
O181 O 0.59399 0.24608 0.31145 0.0
C182 C 0.49319 0.18773 0.26993 0.0
O183 O 0.52177 0.13801 0.21818 0.0
O184 O 0.55564 0.15088 0.33983 0.0
C185 C 0.58019 0.32069 0.27631 0.0
C186 C 0.61895 0.37714 0.25517 0.0
C187 C 0.59118 0.36818 0.2784 0.0
C188 C 0.57206 0.34028 0.28876 0.0
C189 C 0.60772 0.3293 0.25118 0.0
C190 C 0.62694 0.3573 0.2406 0.0
C191 C 0.55982 0.29167 0.29699 0.0
H192 H 0.53171 0.05877 0.50253 0.0
H193 H 0.55635 0.10383 0.40837 0.0
H194 H 0.47952 0.09768 0.3119 0.0
H195 H 0.45482 0.05224 0.4023 0.0
H196 H 0.58429 0.38276 0.29219 0.0
H197 H 0.55093 0.33401 0.30913 0.0
H198 H 0.61438 0.31443 0.24147 0.0
H199 H 0.64806 0.3634 0.22126 0.0
Tb200 Tb 0.91952 0.39223 0.2815 0.0
Eu201 Eu 0.856 0.33792 0.28422 0.0
C202 C 0.88679 0.36682 0.03943 0.0
C203 C 0.86791 0.39983 0.27101 0.0
C204 C 0.99359 0.44279 0.35691 0.0
C205 C 1.03044 0.47978 0.47028 0.0
C206 C 1.00472 0.46814 0.41586 0.0
C207 C 1.00839 0.42883 0.35693 0.0
C208 C 1.03421 0.44053 0.41098 0.0
C209 C 0.04585 0.46645 0.46619 0.0
C210 C 0.96791 0.43265 0.28765 0.0
O211 O 0.90477 0.38687 0.46523 0.0
O212 O 0.87458 0.34071 0.46492 0.0
O213 O 0.88467 0.32267 0.23379 0.0
O214 O 0.92396 0.35678 0.32045 0.0
C215 C 0.88982 0.36372 0.52231 0.0
O216 O 0.81918 0.31127 0.38687 0.0
O217 O 0.82109 0.30277 0.19852 0.0
O218 O 0.86318 0.35432 0.09618 0.0
O219 O 0.91041 0.37914 0.09558 0.0
O220 O 0.89265 0.40781 0.2289 0.0
O221 O 0.85252 0.37538 0.31775 0.0
C222 C 0.91004 0.33247 0.26988 0.0
O223 O 0.96019 0.41107 0.22047 0.0
O224 O 0.94721 0.43215 0.34228 0.0
C225 C 0.77692 0.28967 0.28013 0.0
C226 C 0.72037 0.27216 0.26316 0.0
C227 C 0.7364 0.2897 0.35648 0.0
C228 C 0.76429 0.29834 0.36489 0.0
C229 C 0.76109 0.27255 0.18572 0.0
C230 C 0.73319 0.26398 0.17702 0.0
C231 C 0.80576 0.29639 0.29454 0.0
H232 H 1.03848 0.49952 0.51372 0.0
H233 H 0.9938 0.47937 0.4171 0.0
H234 H 1.00045 0.40925 0.31208 0.0
H235 H 1.04552 0.42975 0.40489 0.0
H236 H 0.72723 0.29612 0.42554 0.0
H237 H 0.77576 0.31133 0.43956 0.0
H238 H 0.77021 0.26538 0.11957 0.0
H239 H 0.72164 0.25081 0.10298 0.0
Tb240 Tb 0.36986 0.88643 0.60282 0.0
Eu241 Eu 0.4239 0.87684 0.6046 0.0
C242 C 0.39544 0.87906 0.36056 0.0
C243 C 0.36206 0.82703 0.59258 0.0
C244 C 0.31695 0.90812 0.66465 0.0
C245 C 0.28136 0.92026 0.67172 0.0
C246 C 0.29326 0.90644 0.61714 0.0
C247 C 0.32872 0.92391 0.76824 0.0
C248 C 0.31676 0.93784 0.82335 0.0
C249 C 0.29283 0.93611 0.7758 0.0
C250 C 0.32889 0.89349 0.60201 0.0
O251 O 0.37506 0.87763 0.78721 0.0
O252 O 0.42108 0.89274 0.78575 0.0
O253 O 0.43937 0.92087 0.55561 0.0
O254 O 0.40539 0.92642 0.64233 0.0
C255 C 0.39815 0.88533 0.84359 0.0
O256 O 0.45086 0.86738 0.70697 0.0
O257 O 0.45858 0.8763 0.5173 0.0
O258 O 0.4075 0.86756 0.41653 0.0
O259 O 0.38361 0.89079 0.41767 0.0
O260 O 0.35452 0.8439 0.54908 0.0
O261 O 0.38634 0.83603 0.64017 0.0
C262 C 0.42978 0.93664 0.59227 0.0
O263 O 0.35131 0.90837 0.54123 0.0
O264 O 0.32967 0.87391 0.66005 0.0
C265 C 0.47233 0.84618 0.60205 0.0
C266 C 0.49061 0.80769 0.59065 0.0
C267 C 0.47261 0.80619 0.68223 0.0
C268 C 0.46358 0.82517 0.68788 0.0
C269 C 0.48986 0.84741 0.50926 0.0
C270 C 0.49882 0.82836 0.5033 0.0
C271 C 0.4654 0.86821 0.61404 0.0
H272 H 0.26337 0.91889 0.6307 0.0
H273 H 0.28401 0.89453 0.53671 0.0
H274 H 0.34709 0.92548 0.80609 0.0
H275 H 0.32609 0.94974 0.90359 0.0
H276 H 0.46612 0.79086 0.75211 0.0
H277 H 0.45027 0.82371 0.76135 0.0
H278 H 0.49709 0.86348 0.44236 0.0
H279 H 0.51232 0.82995 0.43045 0.0
Tb280 Tb 0.21081 0.51076 0.60888 0.0
Eu281 Eu 0.22023 0.5744 0.61342 0.0
C282 C 0.21842 0.54408 0.36786 0.0
C283 C 0.27025 0.56266 0.59591 0.0
C284 C 0.18902 0.43609 0.66816 0.0
C285 C 0.17713 0.38838 0.67503 0.0
C286 C 0.19097 0.41413 0.62083 0.0
C287 C 0.17294 0.43198 0.77114 0.0
C288 C 0.15899 0.40606 0.82587 0.0
C289 C 0.161 0.38392 0.77854 0.0
C290 C 0.20371 0.46269 0.60608 0.0
O291 O 0.21995 0.52501 0.79327 0.0
O292 O 0.20437 0.55546 0.79404 0.0
O293 O 0.17628 0.54541 0.565 0.0
O294 O 0.17076 0.50592 0.65015 0.0
C295 C 0.2121 0.54022 0.85085 0.0
O296 O 0.23251 0.61189 0.71461 0.0
O297 O 0.21707 0.60815 0.5338 0.0
O298 O 0.2297 0.5677 0.4245 0.0
O299 O 0.20675 0.52043 0.42421 0.0
O300 O 0.25329 0.53795 0.5544 0.0
O301 O 0.26141 0.57822 0.64283 0.0
C302 C 0.16052 0.52003 0.60124 0.0
O303 O 0.18889 0.47021 0.54595 0.0
O304 O 0.22327 0.48311 0.66445 0.0
C305 C 0.24732 0.65303 0.60701 0.0
C306 C 0.28548 0.70966 0.58618 0.0
C307 C 0.25762 0.70032 0.60896 0.0
C308 C 0.2388 0.67233 0.61916 0.0
C309 C 0.27495 0.66203 0.58229 0.0
C310 C 0.29387 0.69011 0.57185 0.0
C311 C 0.22724 0.62392 0.62764 0.0
H312 H 0.17873 0.37179 0.63417 0.0
H313 H 0.20311 0.41684 0.54087 0.0
H314 H 0.17115 0.44874 0.80885 0.0
H315 H 0.14687 0.40343 0.90567 0.0
H316 H 0.25043 0.71466 0.62254 0.0
H317 H 0.21758 0.66577 0.63921 0.0
H318 H 0.28191 0.64739 0.57281 0.0
H319 H 0.31507 0.69651 0.55286 0.0
Tb320 Tb 0.58576 0.72612 0.61306 0.0
Eu321 Eu 0.52225 0.67145 0.61699 0.0
C322 C 0.55253 0.70031 0.37181 0.0
C323 C 0.53366 0.7332 0.60176 0.0
C324 C 0.66028 0.77913 0.67403 0.0
C325 C 0.70781 0.81541 0.68483 0.0
C326 C 0.68218 0.80358 0.63009 0.0
C327 C 0.66433 0.76654 0.77419 0.0
C328 C 0.69013 0.77843 0.82946 0.0
C329 C 0.71221 0.80311 0.78552 0.0
C330 C 0.63383 0.76729 0.61136 0.0
O331 O 0.57146 0.72087 0.79758 0.0
O332 O 0.54115 0.67469 0.79728 0.0
O333 O 0.55133 0.65673 0.56652 0.0
O334 O 0.59071 0.69096 0.65209 0.0
C335 C 0.55633 0.69773 0.85461 0.0
O336 O 0.48483 0.64597 0.71862 0.0
O337 O 0.48847 0.63451 0.53664 0.0
O338 O 0.52892 0.68767 0.42867 0.0
O339 O 0.57617 0.71257 0.42784 0.0
O340 O 0.55857 0.7414 0.56128 0.0
O341 O 0.51814 0.70864 0.64715 0.0
C342 C 0.57672 0.66657 0.60225 0.0
O343 O 0.62635 0.74498 0.55009 0.0
O344 O 0.61334 0.76633 0.66994 0.0
C345 C 0.4437 0.6201 0.61082 0.0
C346 C 0.38731 0.60239 0.58989 0.0
C347 C 0.39613 0.58364 0.61522 0.0
C348 C 0.424 0.59242 0.62546 0.0
C349 C 0.43522 0.63896 0.58387 0.0
C350 C 0.40725 0.63018 0.5734 0.0
C351 C 0.4727 0.6288 0.63083 0.0
H352 H 0.72436 0.83402 0.64654 0.0
H353 H 0.67951 0.81349 0.55232 0.0
H354 H 0.64762 0.74758 0.80924 0.0
H355 H 0.69272 0.76844 0.90704 0.0
H356 H 0.38148 0.56221 0.63059 0.0
H357 H 0.43016 0.57761 0.6473 0.0
H358 H 0.45018 0.66047 0.57251 0.0
H359 H 0.40126 0.64515 0.55251 0.0
C360 C 0.10415 0.31755 0.91484 0.0
C361 C 0.11604 0.3008 0.91216 0.0
H362 H 0.10882 0.35678 0.87377 0.0
C363 C 0.14351 0.31242 0.8757 0.0
H364 H 0.083 0.30926 0.94202 0.0
C365 C 0.15834 0.33966 0.83761 0.0
C366 C 0.14608 0.35605 0.83378 0.0
H367 H 0.15347 0.30028 0.87367 0.0
H368 H 0.17935 0.34773 0.80877 0.0
C369 C 0.119 0.34486 0.8759 0.0
C370 C 0.7786 0.81256 0.9181 0.0
C371 C 0.79513 0.84128 0.91969 0.0
H372 H 0.73959 0.77793 0.8734 0.0
C373 C 0.78332 0.85713 0.88772 0.0
H374 H 0.78704 0.79971 0.94176 0.0
C375 C 0.75612 0.84467 0.84964 0.0
C376 C 0.73998 0.81598 0.84124 0.0
H377 H 0.79529 0.87928 0.88915 0.0
H378 H 0.74791 0.85762 0.82427 0.0
C379 C 0.75133 0.80005 0.87909 0.0
C380 C 0.2836 0.99298 0.91325 0.0
C381 C 0.25496 0.98129 0.91008 0.0
H382 H 0.31809 0.98809 0.87243 0.0
C383 C 0.23895 0.9539 0.8729 0.0
H384 H 0.29659 1.01405 0.94103 0.0
C385 C 0.25125 0.93899 0.8346 0.0
C386 C 0.27993 0.95107 0.8313 0.0
H387 H 0.21684 0.94409 0.87045 0.0
H388 H 0.2382 0.91806 0.80516 0.0
C389 C 0.29595 0.97805 0.87414 0.0
C390 C 0.44595 0.14594 0.26891 0.0
C391 C 0.46327 0.17405 0.24638 0.0
H392 H 0.40565 0.11098 0.25209 0.0
C393 C 0.45209 0.18871 0.19226 0.0
H394 H 0.45383 0.13398 0.31031 0.0
C395 C 0.4246 0.17551 0.15809 0.0
C396 C 0.4074 0.14725 0.1772 0.0
H397 H 0.46474 0.21034 0.17302 0.0
H398 H 0.41712 0.18737 0.11256 0.0
C399 C 0.41835 0.13269 0.2346 0.0
C400 C 0.9089 0.2899 0.19545 0.0
C401 C 0.92369 0.31619 0.24642 0.0
H402 H 0.9101 0.25579 0.11849 0.0
C403 C 0.95193 0.32741 0.26595 0.0
H404 H 0.88715 0.28058 0.17872 0.0
C405 C 0.96516 0.31303 0.23164 0.0
C406 C 0.95046 0.28705 0.17735 0.0
H407 H 0.96401 0.34762 0.30484 0.0
H408 H 0.98698 0.32239 0.24662 0.0
C409 C 0.92208 0.27555 0.16144 0.0
C410 C 0.78532 0.67883 0.23407 0.0
C411 C 0.8105 0.68979 0.17258 0.0
H412 H 0.75128 0.64328 0.31199 0.0
C413 C 0.82115 0.67246 0.14798 0.0
H414 H 0.77664 0.6916 0.25589 0.0
C415 C 0.80676 0.64486 0.181 0.0
C416 C 0.78124 0.63369 0.23941 0.0
H417 H 0.84023 0.67997 0.09923 0.0
H418 H 0.8154 0.63211 0.15761 0.0
C419 C 0.77087 0.65113 0.26714 0.0
C420 C 0.11958 0.52151 0.52508 0.0
C421 C 0.13058 0.50664 0.57875 0.0
H422 H 0.08473 0.5206 0.44641 0.0
C423 C 0.11302 0.4786 0.60186 0.0
H424 H 0.13241 0.54311 0.50546 0.0
C425 C 0.08537 0.46562 0.56844 0.0
C426 C 0.07462 0.48038 0.51131 0.0
H427 H 0.12074 0.46648 0.64307 0.0
H428 H 0.07248 0.44395 0.58634 0.0
C429 C 0.09205 0.50858 0.49174 0.0
C430 C 0.61832 0.6609 0.60102 0.0
C431 C 0.59026 0.65019 0.57845 0.0
H432 H 0.65308 0.65533 0.58415 0.0
C433 C 0.5755 0.62425 0.52417 0.0
H434 H 0.63036 0.68081 0.64264 0.0
C435 C 0.58854 0.60979 0.48985 0.0
C436 C 0.61675 0.62077 0.509 0.0
H437 H 0.55389 0.61531 0.5049 0.0
H438 H 0.57659 0.59038 0.44418 0.0
C439 C 0.63141 0.64638 0.56659 0.0
C440 C 0.48688 1.00527 0.48067 0.0
C441 C 0.47628 1.02272 0.50309 0.0
H442 H 0.48084 0.96484 0.4918 0.0
C443 C 0.45085 1.01188 0.56238 0.0
H444 H 0.50615 1.01266 0.43364 0.0
C445 C 0.43611 0.98417 0.59531 0.0
C446 C 0.44643 0.96662 0.56959 0.0
H447 H 0.44219 1.02476 0.58251 0.0
H448 H 0.41634 0.97641 0.63841 0.0
C449 C 0.4722 0.97767 0.51354 0.0
C450 C 0.16538 0.07952 -0.02156 0.0
C451 C 0.19081 0.08622 0.92696 0.0
H452 H 0.13648 0.09245 0.01871 0.0
C453 C 0.20614 0.11176 0.87007 0.0
H454 H 0.15296 0.06005 0.02309 0.0
C455 C 0.19651 0.13027 0.86646 0.0
C456 C 0.17131 0.1238 0.91999 0.0
H457 H 0.22571 0.11758 0.82864 0.0
H458 H 0.20886 0.1497 0.82153 0.0
C459 C 0.15578 0.09806 -0.02489 0.0
C460 C 0.99954 0.08417 -0.02752 0.0
C461 C 0.97338 0.07406 0.92224 0.0
H462 H 1.03818 0.11933 0.01513 0.0
C463 C 0.96689 0.09286 0.87116 0.0
H464 H 1.0052 0.0704 0.01389 0.0
C465 C 0.98573 0.121 0.87293 0.0
C466 C 1.01165 0.13114 0.92546 0.0
H467 H 0.94715 0.08585 0.8298 0.0
H468 H 0.97983 0.1348 0.83382 0.0
C469 C 1.01842 0.11232 -0.02603 0.0
C470 C 0.98341 0.93582 -0.03448 0.0
C471 C 0.96498 0.90861 0.93179 0.0
H472 H 1.02521 0.96709 -0.01051 0.0
C473 C 0.9756 0.89198 0.89406 0.0
H474 H 0.97604 0.94934 -0.00583 0.0
C475 C 1.0039 0.90214 0.89233 0.0
C476 C 1.02233 0.92924 0.92788 0.0
H477 H 0.96205 0.87091 0.86769 0.0
H478 H 1.01126 0.88849 0.86596 0.0
C479 C 1.01168 0.946 0.9634 0.0
C480 C 0.81949 0.42795 0.30006 0.0
C481 C 0.83579 0.45506 0.25965 0.0
H482 H 0.81667 0.38941 0.33516 0.0
C483 C 0.86264 0.46365 0.22028 0.0
H484 H 0.7986 0.42045 0.3293 0.0
C485 C 0.87301 0.44572 0.22279 0.0
C486 C 0.85682 0.41876 0.26499 0.0
H487 H 0.87594 0.48446 0.19003 0.0
H488 H 0.89386 0.45316 0.19306 0.0
C489 C 0.82986 0.41007 0.30286 0.0
C490 C 0.68404 0.44563 0.30503 0.0
C491 C 0.67714 0.46425 0.25524 0.0
H492 H 0.67119 0.40382 0.34516 0.0
C493 C 0.65136 0.45387 0.20109 0.0
H494 H 0.70369 0.45282 0.34753 0.0
C495 C 0.63278 0.42566 0.19869 0.0
C496 C 0.63944 0.40705 0.25068 0.0
H497 H 0.64538 0.46752 0.16103 0.0
H498 H 0.61314 0.41843 0.15599 0.0
C499 C 0.66543 0.41742 0.30287 0.0
C500 C 0.65146 0.26872 0.29198 0.0
C501 C 0.63298 0.24135 0.26062 0.0
H502 H 0.69328 0.30002 0.31483 0.0
C503 C 0.64354 0.22446 0.22607 0.0
H504 H 0.64414 0.28243 0.31815 0.0
C505 C 0.67182 0.23454 0.2252 0.0
C506 C 0.6903 0.2618 0.2584 0.0
H507 H 0.62996 0.20327 0.20163 0.0
H508 H 0.67912 0.2207 0.20139 0.0
C509 C 0.67972 0.27881 0.29066 0.0
C510 C 0.53919 0.77951 0.55967 0.0
C511 C 0.5225 0.75207 0.59499 0.0
H512 H 0.54248 0.81856 0.5323 0.0
C513 C 0.49502 0.74289 0.62552 0.0
H514 H 0.56047 0.78735 0.53587 0.0
C515 C 0.4846 0.76075 0.62223 0.0
C516 C 0.50139 0.78832 0.5888 0.0
H517 H 0.48145 0.72185 0.65225 0.0
H518 H 0.4633 0.75285 0.64553 0.0
C519 C 0.5288 0.79741 0.55686 0.0
C520 C 0.29873 0.75805 0.52985 0.0
C521 C 0.30566 0.73966 0.58202 0.0
H522 H 0.31088 0.79981 0.49201 0.0
C523 C 0.33165 0.75032 0.63462 0.0
H524 H 0.27908 0.7506 0.48691 0.0
C525 C 0.34999 0.77857 0.63683 0.0
C526 C 0.34284 0.79697 0.58667 0.0
H527 H 0.33761 0.73689 0.67711 0.0
H528 H 0.36966 0.78597 0.67955 0.0
C529 C 0.31705 0.78632 0.53229 0.0
C530 C 0.3388 0.56738 0.53448 0.0
C531 C 0.35743 0.59295 0.58494 0.0
H532 H 0.29694 0.53781 0.49804 0.0
C533 C 0.3471 0.60886 0.63516 0.0
H534 H 0.34599 0.55473 0.49324 0.0
C535 C 0.31891 0.59923 0.63714 0.0
C536 C 0.30026 0.57338 0.58914 0.0
H537 H 0.36073 0.62849 0.67613 0.0
H538 H 0.31174 0.61191 0.67821 0.0
C539 C 0.31061 0.55771 0.53671 0.0
C540 C 0.08657 0.21343 0.50658 0.0
C541 C 0.06541 0.21387 0.57156 0.0
H542 H 0.10422 0.21541 0.33346 0.0
C543 C 1.04521 0.21636 0.50919 0.0
H544 H 0.10254 0.21177 0.55248 0.0
C545 C 0.04602 0.21818 0.38415 0.0
C546 C 0.06735 0.2181 0.31918 0.0
H547 H 1.02864 0.21674 0.55698 0.0
H548 H 1.03005 0.2199 0.33845 0.0
C549 C 0.08768 0.2158 0.38146 0.0
C550 C 0.87961 0.85566 0.51435 0.0
C551 C 0.88208 0.87836 0.57771 0.0
H552 H 0.876 0.83694 0.3429 0.0
C553 C 0.88241 0.89992 0.51377 0.0
H554 H 0.8793 0.83874 0.5613 0.0
C555 C 0.87996 0.89862 0.38871 0.0
C556 C 0.87768 0.87599 0.32543 0.0
H557 H 0.88405 0.91755 0.56045 0.0
H558 H 0.88027 0.91553 0.34151 0.0
C559 C 0.87769 0.85461 0.38936 0.0
C560 C 0.19794 1.01141 0.50742 0.0
C561 C 0.21987 0.03238 0.57131 0.0
H562 H 0.18187 0.99386 0.33508 0.0
C563 C 0.24279 0.05228 0.50783 0.0
H564 H 0.18013 0.99566 0.55421 0.0
C565 C 0.24368 0.0514 0.38274 0.0
C566 C 0.2219 1.03029 0.31885 0.0
H567 H 0.25999 0.06869 0.55477 0.0
H568 H 0.26152 0.06715 0.33613 0.0
C569 C 0.19907 1.01022 0.38225 0.0
C570 C 0.71154 0.55174 0.71108 0.0
C571 C 0.73265 0.55115 0.64641 0.0
H572 H 0.69426 0.55073 0.8837 0.0
C573 C 0.75272 0.54846 0.70897 0.0
H574 H 0.69579 0.55377 0.66511 0.0
C575 C 0.75153 0.54617 0.83409 0.0
C576 C 0.73057 0.54707 0.89877 0.0
H577 H 0.76908 0.5477 0.66118 0.0
H578 H 0.76728 0.54417 0.88023 0.0
C579 C 0.71066 0.54999 0.83613 0.0
C580 C 0.54848 0.23176 0.71667 0.0
C581 C 0.54611 0.2091 0.65333 0.0
H582 H 0.55264 0.25067 0.88849 0.0
C583 C 0.54607 0.18768 0.71719 0.0
H584 H 0.54884 0.24869 0.66953 0.0
C585 C 0.54799 0.18871 0.84218 0.0
C586 C 0.55054 0.21142 0.90562 0.0
H587 H 0.5443 0.16998 0.67066 0.0
H588 H 0.54762 0.17174 0.88909 0.0
C589 C 0.55095 0.23303 0.84174 0.0
C590 C 0.91083 0.38534 0.71838 0.0
C591 C 0.88916 0.36408 0.65462 0.0
H592 H 0.92709 0.40278 0.89029 0.0
C593 C 0.86642 0.34391 0.71815 0.0
H594 H 0.92861 0.40117 0.67166 0.0
C595 C 0.8653 0.34515 0.84332 0.0
C596 C 0.88713 0.36626 0.90707 0.0
H597 H 0.8493 0.32743 0.67109 0.0
H598 H 0.84757 0.32931 0.89022 0.0
C599 C 0.90995 0.38627 0.84346 0.0
C600 C 0.37618 0.88331 0.16608 0.0
C601 C 0.39588 0.87993 0.2282 0.0
H602 H 0.36144 0.8876 -0.00444 0.0
C603 C 0.41657 0.87866 0.163 0.0
H604 H 0.35998 0.88435 0.21405 0.0
C605 C 0.41771 0.88107 0.0379 0.0
C606 C 0.39787 0.88425 -0.02412 0.0
H607 H 0.43215 0.8763 0.20871 0.0
H608 H 0.43386 0.88001 -0.01031 0.0
C609 C 0.37701 0.88519 0.04107 0.0
C610 C 0.21277 0.51954 0.04758 0.0
C611 C 0.21332 0.54114 -0.01686 0.0
H612 H 0.21388 0.50357 0.21997 0.0
C613 C 0.21617 0.56407 0.04592 0.0
H614 H 0.21063 0.50164 0.0015 0.0
C615 C 0.21859 0.56542 0.171 0.0
C616 C 0.21766 0.54364 0.23546 0.0
H617 H 0.21693 0.58114 -0.00168 0.0
H618 H 0.22066 0.58327 0.2173 0.0
C619 C 0.21465 0.52067 0.17259 0.0
C620 C 0.53124 0.6789 0.17491 0.0
C621 C 0.55296 0.69994 0.23939 0.0
H622 H 0.51556 0.66135 0.00213 0.0
C623 C 0.57586 0.72005 0.17647 0.0
H624 H 0.51345 0.663 0.22123 0.0
C625 C 0.57697 0.71925 0.05141 0.0
C626 C 0.55543 0.69804 -0.01307 0.0
H627 H 0.59291 0.73653 0.22386 0.0
H628 H 0.59482 0.73514 0.0053 0.0
C629 C 0.53259 0.6778 0.04975 0.0
loop_
_geom_bond_atom_site_label_1
_geom_bond_atom_site_label_2
_geom_bond_distance
_geom_bond_site_symmetry_2
_ccdc_geom_bond_type
Tb0 C10 2.825 1_556 S
Tb0 O11 2.347 1_656 S
Tb0 O14 2.366 1_655 S
Tb0 O19 2.418 . S
Tb0 O20 2.384 . S
Tb0 O23 2.479 . S
Tb0 O24 2.471 1_556 S
Eu1 O12 2.418 . S
Eu1 O13 2.384 . S
Eu1 O16 2.479 . S
Eu1 O17 2.471 1_554 S
Eu1 O18 2.347 1_554 S
Eu1 O21 2.366 . S
Eu1 C31 2.825 1_554 S
C2 O18 1.259 . S
C2 O19 1.265 1_455 S
C3 O20 1.255 1_554 S
C3 O21 1.265 1_655 S
C4 C6 1.380 1_554 S
C4 C7 1.374 . S
C4 C10 1.507 . S
C5 C6 1.384 . S
C5 C9 1.387 1_556 S
C5 H32 0.930 . S
C6 C4 1.380 1_556 S
C6 C5 1.384 . S
C6 H33 0.931 . S
C7 C4 1.374 . S
C7 C8 1.390 . S
C7 H34 0.930 . S
C8 C7 1.390 . S
C8 C9 1.391 . S
C8 H35 0.930 . S
C9 C5 1.387 1_554 S
C9 C8 1.391 . S
C10 Tb0 2.825 1_554 S
C10 C4 1.507 . S
C10 O23 1.238 1_554 S
C10 O24 1.247 . S
O11 Tb0 2.347 1_454 S
O11 C15 1.259 . S
O12 Eu1 2.418 . S
O12 C15 1.265 . S
O13 Eu1 2.384 . S
O13 C22 1.255 1_554 S
O14 Tb0 2.366 1_455 S
O14 C22 1.265 . S
C15 O11 1.259 . S
C15 O12 1.265 . S
O16 Eu1 2.479 . S
O16 C31 1.238 1_554 S
O17 Eu1 2.471 1_556 S
O17 C31 1.247 . S
O18 Eu1 2.347 1_556 S
O18 C2 1.259 . S
O19 Tb0 2.418 . S
O19 C2 1.265 1_655 S
O20 Tb0 2.384 . S
O20 C3 1.255 1_556 S
O21 Eu1 2.366 . S
O21 C3 1.265 1_455 S
C22 O13 1.255 1_556 S
C22 O14 1.265 . S
O23 Tb0 2.479 . S
O23 C10 1.238 1_556 S
O24 Tb0 2.471 1_554 S
O24 C10 1.247 . S
C25 C28 1.380 1_556 S
C25 C29 1.374 . S
C25 C31 1.507 . S
C26 C27 1.387 1_556 S
C26 C30 1.391 . S
C27 C26 1.387 1_554 S
C27 C28 1.384 . S
C27 H36 0.930 . S
C28 C25 1.380 1_554 S
C28 C27 1.384 . S
C28 H37 0.931 . S
C29 C25 1.374 . S
C29 C30 1.390 . S
C29 H38 0.930 . S
C30 C26 1.391 . S
C30 C29 1.390 . S
C30 H39 0.930 . S
C31 Eu1 2.825 1_556 S
C31 O16 1.238 1_556 S
C31 O17 1.247 . S
C31 C25 1.507 . S
H32 C5 0.930 . S
H33 C6 0.931 . S
H34 C7 0.930 . S
H35 C8 0.930 . S
H36 C27 0.930 . S
H37 C28 0.931 . S
H38 C29 0.930 . S
H39 C30 0.930 . S
Tb40 C50 2.825 1_556 S
Tb40 O51 2.347 1_556 S
Tb40 O54 2.366 . S
Tb40 O59 2.418 . S
Tb40 O60 2.384 . S
Tb40 O63 2.479 . S
Tb40 O64 2.471 1_556 S
Eu41 O52 2.418 . S
Eu41 O53 2.384 . S
Eu41 O56 2.479 . S
Eu41 O57 2.471 1_554 S
Eu41 O58 2.347 1_554 S
Eu41 O61 2.366 . S
Eu41 C71 2.825 1_554 S
C42 O58 1.259 . S
C42 O59 1.265 . S
C43 O60 1.255 1_554 S
C43 O61 1.265 . S
C44 C46 1.380 1_554 S
C44 C47 1.374 . S
C44 C50 1.507 . S
C45 C46 1.384 . S
C45 C49 1.387 1_556 S
C45 H72 0.930 . S
C46 C44 1.380 1_556 S
C46 C45 1.384 . S
C46 H73 0.931 . S
C47 C44 1.374 . S
C47 C48 1.390 . S
C47 H74 0.930 . S
C48 C47 1.390 . S
C48 C49 1.391 . S
C48 H75 0.930 . S
C49 C45 1.387 1_554 S
C49 C48 1.391 . S
C50 Tb40 2.825 1_554 S
C50 C44 1.507 . S
C50 O63 1.238 1_554 S
C50 O64 1.247 . S
O51 Tb40 2.347 1_554 S
O51 C55 1.259 . S
O52 Eu41 2.418 . S
O52 C55 1.265 . S
O53 Eu41 2.384 . S
O53 C62 1.255 1_554 S
O54 Tb40 2.366 . S
O54 C62 1.265 . S
C55 O51 1.259 . S
C55 O52 1.265 . S
O56 Eu41 2.479 . S
O56 C71 1.238 1_554 S
O57 Eu41 2.471 1_556 S
O57 C71 1.247 . S
O58 Eu41 2.347 1_556 S
O58 C42 1.259 . S
O59 Tb40 2.418 . S
O59 C42 1.265 . S
O60 Tb40 2.384 . S
O60 C43 1.255 1_556 S
O61 Eu41 2.366 . S
O61 C43 1.265 . S
C62 O53 1.255 1_556 S
C62 O54 1.265 . S
O63 Tb40 2.479 . S
O63 C50 1.238 1_556 S
O64 Tb40 2.471 1_554 S
O64 C50 1.247 . S
C65 C68 1.380 1_556 S
C65 C69 1.374 . S
C65 C71 1.507 . S
C66 C67 1.388 1_556 S
C66 C70 1.391 1_545 S
C67 C66 1.388 1_554 S
C67 C68 1.367 1_545 S
C67 H76 0.948 . S
C68 C65 1.380 1_554 S
C68 C67 1.367 1_565 S
C68 H77 0.931 . S
C69 C65 1.374 . S
C69 C70 1.390 . S
C69 H78 0.930 . S
C70 C66 1.391 1_565 S
C70 C69 1.390 . S
C70 H79 0.930 . S
C71 Eu41 2.825 1_556 S
C71 O56 1.238 1_556 S
C71 O57 1.247 . S
C71 C65 1.507 . S
H72 C45 0.930 . S
H73 C46 0.931 . S
H74 C47 0.930 . S
H75 C48 0.930 . S
H76 C67 0.948 . S
H77 C68 0.931 . S
H78 C69 0.930 . S
H79 C70 0.930 . S
Tb80 C90 2.825 1_556 S
Tb80 O91 2.347 1_556 S
Tb80 O94 2.366 . S
Tb80 O99 2.418 . S
Tb80 O100 2.384 . S
Tb80 O103 2.479 . S
Tb80 O104 2.471 1_556 S
Eu81 O92 2.418 . S
Eu81 O93 2.384 . S
Eu81 O96 2.479 . S
Eu81 O97 2.471 1_554 S
Eu81 O98 2.347 1_564 S
Eu81 O101 2.366 1_565 S
Eu81 C111 2.825 1_554 S
C82 O98 1.259 . S
C82 O99 1.265 . S
C83 O100 1.255 1_554 S
C83 O101 1.265 . S
C84 C86 1.380 1_554 S
C84 C87 1.374 . S
C84 C90 1.507 . S
C85 C86 1.384 . S
C85 C89 1.387 1_556 S
C85 H112 0.930 . S
C86 C84 1.380 1_556 S
C86 C85 1.384 . S
C86 H113 0.931 . S
C87 C84 1.374 . S
C87 C88 1.390 . S
C87 H114 0.930 . S
C88 C87 1.390 . S
C88 C89 1.391 . S
C88 H115 0.930 . S
C89 C85 1.387 1_554 S
C89 C88 1.391 . S
C90 Tb80 2.825 1_554 S
C90 C84 1.507 . S
C90 O103 1.238 1_554 S
C90 O104 1.247 . S
O91 Tb80 2.347 1_554 S
O91 C95 1.259 . S
O92 Eu81 2.418 . S
O92 C95 1.265 1_565 S
O93 Eu81 2.384 . S
O93 C102 1.255 1_554 S
O94 Tb80 2.366 . S
O94 C102 1.265 1_545 S
C95 O91 1.259 . S
C95 O92 1.265 1_545 S
O96 Eu81 2.479 . S
O96 C111 1.238 1_554 S
O97 Eu81 2.471 1_556 S
O97 C111 1.247 . S
O98 Eu81 2.347 1_546 S
O98 C82 1.259 . S
O99 Tb80 2.418 . S
O99 C82 1.265 . S
O100 Tb80 2.384 . S
O100 C83 1.255 1_556 S
O101 Eu81 2.366 1_545 S
O101 C83 1.265 . S
C102 O93 1.255 1_556 S
C102 O94 1.265 1_565 S
O103 Tb80 2.479 . S
O103 C90 1.238 1_556 S
O104 Tb80 2.471 1_554 S
O104 C90 1.247 . S
C105 C108 1.380 1_556 S
C105 C109 1.374 . S
C105 C111 1.507 . S
C106 C107 1.387 1_556 S
C106 C110 1.391 . S
C107 C106 1.387 1_554 S
C107 C108 1.384 . S
C107 H116 0.930 . S
C108 C105 1.380 1_554 S
C108 C107 1.384 . S
C108 H117 0.931 . S
C109 C105 1.374 . S
C109 C110 1.390 . S
C109 H118 0.930 . S
C110 C106 1.391 . S
C110 C109 1.390 . S
C110 H119 0.930 . S
C111 Eu81 2.825 1_556 S
C111 O96 1.238 1_556 S
C111 O97 1.247 . S
C111 C105 1.507 . S
H112 C85 0.930 . S
H113 C86 0.931 . S
H114 C87 0.930 . S
H115 C88 0.930 . S
H116 C107 0.930 . S
H117 C108 0.931 . S
H118 C109 0.930 . S
H119 C110 0.930 . S
Tb120 C130 2.825 . S
Tb120 O131 2.347 . S
Tb120 O134 2.366 . S
Tb120 O139 2.418 . S
Tb120 O140 2.384 . S
Tb120 O143 2.479 . S
Tb120 O144 2.471 . S
Eu121 O132 2.418 . S
Eu121 O133 2.384 . S
Eu121 O136 2.479 . S
Eu121 O137 2.471 . S
Eu121 O138 2.347 . S
Eu121 O141 2.366 . S
Eu121 C151 2.825 . S
C122 O138 1.259 . S
C122 O139 1.265 . S
C123 O140 1.255 . S
C123 O141 1.265 . S
C124 C126 1.380 . S
C124 C127 1.374 . S
C124 C130 1.507 . S
C125 C126 1.384 . S
C125 C129 1.387 . S
C125 H152 0.930 . S
C126 C124 1.380 . S
C126 C125 1.384 . S
C126 H153 0.931 . S
C127 C124 1.374 . S
C127 C128 1.390 . S
C127 H154 0.930 . S
C128 C127 1.390 . S
C128 C129 1.391 . S
C128 H155 0.930 . S
C129 C125 1.387 . S
C129 C128 1.391 . S
C130 Tb120 2.825 . S
C130 C124 1.507 . S
C130 O143 1.238 . S
C130 O144 1.247 . S
O131 Tb120 2.347 . S
O131 C135 1.259 . S
O132 Eu121 2.418 . S
O132 C135 1.265 . S
O133 Eu121 2.384 . S
O133 C142 1.255 . S
O134 Tb120 2.366 . S
O134 C142 1.265 . S
C135 O131 1.259 . S
C135 O132 1.265 . S
O136 Eu121 2.479 . S
O136 C151 1.238 . S
O137 Eu121 2.471 . S
O137 C151 1.247 . S
O138 Eu121 2.347 . S
O138 C122 1.259 . S
O139 Tb120 2.418 . S
O139 C122 1.265 . S
O140 Tb120 2.384 . S
O140 C123 1.255 . S
O141 Eu121 2.366 . S
O141 C123 1.265 . S
C142 O133 1.255 . S
C142 O134 1.265 . S
O143 Tb120 2.479 . S
O143 C130 1.238 . S
O144 Tb120 2.471 . S
O144 C130 1.247 . S
C145 C148 1.380 . S
C145 C149 1.374 . S
C145 C151 1.507 . S
C146 C147 1.387 . S
C146 C150 1.391 . S
C147 C146 1.387 . S
C147 C148 1.384 . S
C147 H156 0.930 . S
C148 C145 1.380 . S
C148 C147 1.384 . S
C148 H157 0.931 . S
C149 C145 1.374 . S
C149 C150 1.390 . S
C149 H158 0.930 . S
C150 C146 1.391 . S
C150 C149 1.390 . S
C150 H159 0.930 . S
C151 Eu121 2.825 . S
C151 O136 1.238 . S
C151 O137 1.247 . S
C151 C145 1.507 . S
H152 C125 0.930 . S
H153 C126 0.931 . S
H154 C127 0.930 . S
H155 C128 0.930 . S
H156 C147 0.930 . S
H157 C148 0.931 . S
H158 C149 0.930 . S
H159 C150 0.930 . S
Tb160 C170 2.825 . S
Tb160 O171 2.347 . S
Tb160 O174 2.366 . S
Tb160 O179 2.418 . S
Tb160 O180 2.384 . S
Tb160 O183 2.479 . S
Tb160 O184 2.471 . S
Eu161 O172 2.418 . S
Eu161 O173 2.384 . S
Eu161 O176 2.479 . S
Eu161 O177 2.471 . S
Eu161 O178 2.347 . S
Eu161 O181 2.366 . S
Eu161 C191 2.825 . S
C162 O178 1.259 . S
C162 O179 1.265 . S
C163 O180 1.255 . S
C163 O181 1.265 . S
C164 C166 1.380 . S
C164 C167 1.374 . S
C164 C170 1.507 . S
C165 C166 1.384 . S
C165 C169 1.387 . S
C165 H192 0.930 . S
C166 C164 1.380 . S
C166 C165 1.384 . S
C166 H193 0.931 . S
C167 C164 1.374 . S
C167 C168 1.390 . S
C167 H194 0.930 . S
C168 C167 1.390 . S
C168 C169 1.391 . S
C168 H195 0.930 . S
C169 C165 1.387 . S
C169 C168 1.391 . S
C170 Tb160 2.825 . S
C170 C164 1.507 . S
C170 O183 1.238 . S
C170 O184 1.247 . S
O171 Tb160 2.347 . S
O171 C175 1.259 . S
O172 Eu161 2.418 . S
O172 C175 1.265 . S
O173 Eu161 2.384 . S
O173 C182 1.255 . S
O174 Tb160 2.366 . S
O174 C182 1.265 . S
C175 O171 1.259 . S
C175 O172 1.265 . S
O176 Eu161 2.479 . S
O176 C191 1.238 . S
O177 Eu161 2.471 . S
O177 C191 1.247 . S
O178 Eu161 2.347 . S
O178 C162 1.259 . S
O179 Tb160 2.418 . S
O179 C162 1.265 . S
O180 Tb160 2.384 . S
O180 C163 1.255 . S
O181 Eu161 2.366 . S
O181 C163 1.265 . S
C182 O173 1.255 . S
C182 O174 1.265 . S
O183 Tb160 2.479 . S
O183 C170 1.238 . S
O184 Tb160 2.471 . S
O184 C170 1.247 . S
C185 C188 1.380 . S
C185 C189 1.374 . S
C185 C191 1.507 . S
C186 C187 1.387 . S
C186 C190 1.391 . S
C187 C186 1.387 . S
C187 C188 1.384 . S
C187 H196 0.930 . S
C188 C185 1.380 . S
C188 C187 1.384 . S
C188 H197 0.931 . S
C189 C185 1.374 . S
C189 C190 1.390 . S
C189 H198 0.930 . S
C190 C186 1.391 . S
C190 C189 1.390 . S
C190 H199 0.930 . S
C191 Eu161 2.825 . S
C191 O176 1.238 . S
C191 O177 1.247 . S
C191 C185 1.507 . S
H192 C165 0.930 . S
H193 C166 0.931 . S
H194 C167 0.930 . S
H195 C168 0.930 . S
H196 C187 0.930 . S
H197 C188 0.931 . S
H198 C189 0.930 . S
H199 C190 0.930 . S
Tb200 C210 2.825 . S
Tb200 O211 2.347 . S
Tb200 O214 2.366 . S
Tb200 O219 2.418 . S
Tb200 O220 2.384 . S
Tb200 O223 2.479 . S
Tb200 O224 2.471 . S
Eu201 O212 2.418 . S
Eu201 O213 2.384 . S
Eu201 O216 2.479 . S
Eu201 O217 2.471 . S
Eu201 O218 2.347 . S
Eu201 O221 2.366 . S
Eu201 C231 2.825 . S
C202 O218 1.259 . S
C202 O219 1.265 . S
C203 O220 1.255 . S
C203 O221 1.265 . S
C204 C206 1.380 . S
C204 C207 1.374 . S
C204 C210 1.507 . S
C205 C206 1.384 1_455 S
C205 C209 1.387 . S
C205 H232 0.930 . S
C206 C204 1.380 . S
C206 C205 1.384 1_655 S
C206 H233 0.931 . S
C207 C204 1.374 . S
C207 C208 1.390 . S
C207 H234 0.930 . S
C208 C207 1.390 . S
C208 C209 1.391 1_655 S
C208 H235 0.930 . S
C209 C205 1.387 . S
C209 C208 1.391 1_455 S
C210 Tb200 2.825 . S
C210 C204 1.507 . S
C210 O223 1.238 . S
C210 O224 1.247 . S
O211 Tb200 2.347 . S
O211 C215 1.259 . S
O212 Eu201 2.418 . S
O212 C215 1.265 . S
O213 Eu201 2.384 . S
O213 C222 1.255 . S
O214 Tb200 2.366 . S
O214 C222 1.265 . S
C215 O211 1.259 . S
C215 O212 1.265 . S
O216 Eu201 2.479 . S
O216 C231 1.238 . S
O217 Eu201 2.471 . S
O217 C231 1.247 . S
O218 Eu201 2.347 . S
O218 C202 1.259 . S
O219 Tb200 2.418 . S
O219 C202 1.265 . S
O220 Tb200 2.384 . S
O220 C203 1.255 . S
O221 Eu201 2.366 . S
O221 C203 1.265 . S
C222 O213 1.255 . S
C222 O214 1.265 . S
O223 Tb200 2.479 . S
O223 C210 1.238 . S
O224 Tb200 2.471 . S
O224 C210 1.247 . S
C225 C228 1.380 . S
C225 C229 1.374 . S
C225 C231 1.507 . S
C226 C227 1.387 . S
C226 C230 1.391 . S
C227 C226 1.387 . S
C227 C228 1.384 . S
C227 H236 0.930 . S
C228 C225 1.380 . S
C228 C227 1.384 . S
C228 H237 0.931 . S
C229 C225 1.374 . S
C229 C230 1.390 . S
C229 H238 0.930 . S
C230 C226 1.391 . S
C230 C229 1.390 . S
C230 H239 0.930 . S
C231 Eu201 2.825 . S
C231 O216 1.238 . S
C231 O217 1.247 . S
C231 C225 1.507 . S
H232 C205 0.930 . S
H233 C206 0.931 . S
H234 C207 0.930 . S
H235 C208 0.930 . S
H236 C227 0.930 . S
H237 C228 0.931 . S
H238 C229 0.930 . S
H239 C230 0.930 . S
Tb240 C250 2.825 . S
Tb240 O251 2.347 . S
Tb240 O254 2.366 . S
Tb240 O259 2.418 . S
Tb240 O260 2.384 . S
Tb240 O263 2.479 . S
Tb240 O264 2.471 . S
Eu241 O252 2.418 . S
Eu241 O253 2.384 . S
Eu241 O256 2.479 . S
Eu241 O257 2.471 . S
Eu241 O258 2.347 . S
Eu241 O261 2.366 . S
Eu241 C271 2.825 . S
C242 O258 1.259 . S
C242 O259 1.265 . S
C243 O260 1.255 . S
C243 O261 1.265 . S
C244 C246 1.380 . S
C244 C247 1.374 . S
C244 C250 1.507 . S
C245 C246 1.384 . S
C245 C249 1.387 . S
C245 H272 0.930 . S
C246 C244 1.380 . S
C246 C245 1.384 . S
C246 H273 0.931 . S
C247 C244 1.374 . S
C247 C248 1.390 . S
C247 H274 0.930 . S
C248 C247 1.390 . S
C248 C249 1.391 . S
C248 H275 0.930 . S
C249 C245 1.387 . S
C249 C248 1.391 . S
C250 Tb240 2.825 . S
C250 C244 1.507 . S
C250 O263 1.238 . S
C250 O264 1.247 . S
O251 Tb240 2.347 . S
O251 C255 1.259 . S
O252 Eu241 2.418 . S
O252 C255 1.265 . S
O253 Eu241 2.384 . S
O253 C262 1.255 . S
O254 Tb240 2.366 . S
O254 C262 1.265 . S
C255 O251 1.259 . S
C255 O252 1.265 . S
O256 Eu241 2.479 . S
O256 C271 1.238 . S
O257 Eu241 2.471 . S
O257 C271 1.247 . S
O258 Eu241 2.347 . S
O258 C242 1.259 . S
O259 Tb240 2.418 . S
O259 C242 1.265 . S
O260 Tb240 2.384 . S
O260 C243 1.255 . S
O261 Eu241 2.366 . S
O261 C243 1.265 . S
C262 O253 1.255 . S
C262 O254 1.265 . S
O263 Tb240 2.479 . S
O263 C250 1.238 . S
O264 Tb240 2.471 . S
O264 C250 1.247 . S
C265 C268 1.380 . S
C265 C269 1.374 . S
C265 C271 1.507 . S
C266 C267 1.387 . S
C266 C270 1.391 . S
C267 C266 1.387 . S
C267 C268 1.384 . S
C267 H276 0.930 . S
C268 C265 1.380 . S
C268 C267 1.384 . S
C268 H277 0.931 . S
C269 C265 1.374 . S
C269 C270 1.390 . S
C269 H278 0.930 . S
C270 C266 1.391 . S
C270 C269 1.390 . S
C270 H279 0.930 . S
C271 Eu241 2.825 . S
C271 O256 1.238 . S
C271 O257 1.247 . S
C271 C265 1.507 . S
H272 C245 0.930 . S
H273 C246 0.931 . S
H274 C247 0.930 . S
H275 C248 0.930 . S
H276 C267 0.930 . S
H277 C268 0.931 . S
H278 C269 0.930 . S
H279 C270 0.930 . S
Tb280 C290 2.825 . S
Tb280 O291 2.347 . S
Tb280 O294 2.366 . S
Tb280 O299 2.418 . S
Tb280 O300 2.384 . S
Tb280 O303 2.479 . S
Tb280 O304 2.471 . S
Eu281 O292 2.418 . S
Eu281 O293 2.384 . S
Eu281 O296 2.479 . S
Eu281 O297 2.471 . S
Eu281 O298 2.347 . S
Eu281 O301 2.366 . S
Eu281 C311 2.825 . S
C282 O298 1.259 . S
C282 O299 1.265 . S
C283 O300 1.255 . S
C283 O301 1.265 . S
C284 C286 1.380 . S
C284 C287 1.374 . S
C284 C290 1.507 . S
C285 C286 1.384 . S
C285 C289 1.387 . S
C285 H312 0.930 . S
C286 C284 1.380 . S
C286 C285 1.384 . S
C286 H313 0.931 . S
C287 C284 1.374 . S
C287 C288 1.390 . S
C287 H314 0.930 . S
C288 C287 1.390 . S
C288 C289 1.391 . S
C288 H315 0.930 . S
C289 C285 1.387 . S
C289 C288 1.391 . S
C290 Tb280 2.825 . S
C290 C284 1.507 . S
C290 O303 1.238 . S
C290 O304 1.247 . S
O291 Tb280 2.347 . S
O291 C295 1.259 . S
O292 Eu281 2.418 . S
O292 C295 1.265 . S
O293 Eu281 2.384 . S
O293 C302 1.255 . S
O294 Tb280 2.366 . S
O294 C302 1.265 . S
C295 O291 1.259 . S
C295 O292 1.265 . S
O296 Eu281 2.479 . S
O296 C311 1.238 . S
O297 Eu281 2.471 . S
O297 C311 1.247 . S
O298 Eu281 2.347 . S
O298 C282 1.259 . S
O299 Tb280 2.418 . S
O299 C282 1.265 . S
O300 Tb280 2.384 . S
O300 C283 1.255 . S
O301 Eu281 2.366 . S
O301 C283 1.265 . S
C302 O293 1.255 . S
C302 O294 1.265 . S
O303 Tb280 2.479 . S
O303 C290 1.238 . S
O304 Tb280 2.471 . S
O304 C290 1.247 . S
C305 C308 1.380 . S
C305 C309 1.374 . S
C305 C311 1.507 . S
C306 C307 1.387 . S
C306 C310 1.391 . S
C307 C306 1.387 . S
C307 C308 1.384 . S
C307 H316 0.930 . S
C308 C305 1.380 . S
C308 C307 1.384 . S
C308 H317 0.931 . S
C309 C305 1.374 . S
C309 C310 1.390 . S
C309 H318 0.930 . S
C310 C306 1.391 . S
C310 C309 1.390 . S
C310 H319 0.930 . S
C311 Eu281 2.825 . S
C311 O296 1.238 . S
C311 O297 1.247 . S
C311 C305 1.507 . S
H312 C285 0.930 . S
H313 C286 0.931 . S
H314 C287 0.930 . S
H315 C288 0.930 . S
H316 C307 0.930 . S
H317 C308 0.931 . S
H318 C309 0.930 . S
H319 C310 0.930 . S
Tb320 C330 2.825 . S
Tb320 O331 2.347 . S
Tb320 O334 2.366 . S
Tb320 O339 2.418 . S
Tb320 O340 2.384 . S
Tb320 O343 2.479 . S
Tb320 O344 2.471 . S
Eu321 O332 2.418 . S
Eu321 O333 2.384 . S
Eu321 O336 2.479 . S
Eu321 O337 2.471 . S
Eu321 O338 2.347 . S
Eu321 O341 2.366 . S
Eu321 C351 2.825 . S
C322 O338 1.259 . S
C322 O339 1.265 . S
C323 O340 1.255 . S
C323 O341 1.265 . S
C324 C326 1.380 . S
C324 C327 1.374 . S
C324 C330 1.507 . S
C325 C326 1.384 . S
C325 C329 1.387 . S
C325 H352 0.930 . S
C326 C324 1.380 . S
C326 C325 1.384 . S
C326 H353 0.931 . S
C327 C324 1.374 . S
C327 C328 1.390 . S
C327 H354 0.930 . S
C328 C327 1.390 . S
C328 C329 1.391 . S
C328 H355 0.930 . S
C329 C325 1.387 . S
C329 C328 1.391 . S
C330 Tb320 2.825 . S
C330 C324 1.507 . S
C330 O343 1.238 . S
C330 O344 1.247 . S
O331 Tb320 2.347 . S
O331 C335 1.259 . S
O332 Eu321 2.418 . S
O332 C335 1.265 . S
O333 Eu321 2.384 . S
O333 C342 1.255 . S
O334 Tb320 2.366 . S
O334 C342 1.265 . S
C335 O331 1.259 . S
C335 O332 1.265 . S
O336 Eu321 2.479 . S
O336 C351 1.238 . S
O337 Eu321 2.471 . S
O337 C351 1.247 . S
O338 Eu321 2.347 . S
O338 C322 1.259 . S
O339 Tb320 2.418 . S
O339 C322 1.265 . S
O340 Tb320 2.384 . S
O340 C323 1.255 . S
O341 Eu321 2.366 . S
O341 C323 1.265 . S
C342 O333 1.255 . S
C342 O334 1.265 . S
O343 Tb320 2.479 . S
O343 C330 1.238 . S
O344 Tb320 2.471 . S
O344 C330 1.247 . S
C345 C348 1.380 . S
C345 C349 1.374 . S
C345 C351 1.507 . S
C346 C347 1.387 . S
C346 C350 1.391 . S
C347 C346 1.387 . S
C347 C348 1.384 . S
C347 H356 0.930 . S
C348 C345 1.380 . S
C348 C347 1.384 . S
C348 H357 0.931 . S
C349 C345 1.374 . S
C349 C350 1.390 . S
C349 H358 0.930 . S
C350 C346 1.391 . S
C350 C349 1.390 . S
C350 H359 0.930 . S
C351 Eu321 2.825 . S
C351 O336 1.238 . S
C351 O337 1.247 . S
C351 C345 1.507 . S
H352 C325 0.930 . S
H353 C326 0.931 . S
H354 C327 0.930 . S
H355 C328 0.930 . S
H356 C347 0.930 . S
H357 C348 0.931 . S
H358 C349 0.930 . S
H359 C350 0.930 . S
C360 C361 1.387 . S
C360 H364 0.950 . S
C360 C369 1.390 . S
C361 C360 1.387 . S
C361 C363 1.387 . S
H362 C369 0.950 . S
C363 C361 1.387 . S
C363 C365 1.390 . S
C363 H367 0.950 . S
H364 C360 0.950 . S
C365 C363 1.390 . S
C365 C366 1.387 . S
C365 H368 0.950 . S
C366 C365 1.387 . S
C366 C369 1.387 . S
H367 C363 0.950 . S
H368 C365 0.950 . S
C369 C360 1.390 . S
C369 H362 0.950 . S
C369 C366 1.387 . S
C370 C371 1.387 . S
C370 H374 0.950 1_556 S
C370 C379 1.390 . S
C371 C370 1.387 . S
C371 C373 1.387 . S
H372 C379 0.950 . S
C373 C371 1.387 . S
C373 C375 1.390 . S
C373 H377 0.950 . S
H374 C370 0.950 1_554 S
C375 C373 1.390 . S
C375 C376 1.387 . S
C375 H378 0.950 . S
C376 C375 1.387 . S
C376 C379 1.387 . S
H377 C373 0.950 . S
H378 C375 0.950 . S
C379 C370 1.390 . S
C379 H372 0.950 . S
C379 C376 1.387 . S
C380 C381 1.387 . S
C380 H384 0.950 1_556 S
C380 C389 1.390 . S
C381 C380 1.387 . S
C381 C383 1.387 . S
H382 C389 0.950 . S
C383 C381 1.387 . S
C383 C385 1.390 . S
C383 H387 0.950 . S
H384 C380 0.950 1_554 S
C385 C383 1.390 . S
C385 C386 1.387 . S
C385 H388 0.950 . S
C386 C385 1.387 . S
C386 C389 1.387 . S
H387 C383 0.950 . S
H388 C385 0.950 . S
C389 C380 1.390 . S
C389 H382 0.950 . S
C389 C386 1.387 . S
C390 C391 1.387 . S
C390 H394 0.950 . S
C390 C399 1.390 . S
C391 C390 1.387 . S
C391 C393 1.387 . S
H392 C399 0.950 . S
C393 C391 1.387 . S
C393 C395 1.390 . S
C393 H397 0.950 . S
H394 C390 0.950 . S
C395 C393 1.390 . S
C395 C396 1.387 . S
C395 H398 0.950 1_554 S
C396 C395 1.387 . S
C396 C399 1.387 . S
H397 C393 0.950 . S
H398 C395 0.950 1_556 S
C399 C390 1.390 . S
C399 H392 0.950 . S
C399 C396 1.387 . S
C400 C401 1.387 . S
C400 H404 0.950 . S
C400 C409 1.390 . S
C401 C400 1.387 . S
C401 C403 1.387 . S
H402 C409 0.950 . S
C403 C401 1.387 . S
C403 C405 1.390 . S
C403 H407 0.950 . S
H404 C400 0.950 . S
C405 C403 1.390 . S
C405 C406 1.387 . S
C405 H408 0.950 . S
C406 C405 1.387 . S
C406 C409 1.387 . S
H407 C403 0.950 . S
H408 C405 0.950 . S
C409 C400 1.390 . S
C409 H402 0.950 . S
C409 C406 1.387 . S
C410 C411 1.387 . S
C410 H414 0.950 . S
C410 C419 1.390 . S
C411 C410 1.387 . S
C411 C413 1.387 . S
H412 C419 0.950 . S
C413 C411 1.387 . S
C413 C415 1.390 . S
C413 H417 0.950 1_554 S
H414 C410 0.950 . S
C415 C413 1.390 . S
C415 C416 1.387 . S
C415 H418 0.950 . S
C416 C415 1.387 . S
C416 C419 1.387 . S
H417 C413 0.950 1_556 S
H418 C415 0.950 . S
C419 C410 1.390 . S
C419 H412 0.950 . S
C419 C416 1.387 . S
C420 C421 1.387 . S
C420 H424 0.950 . S
C420 C429 1.390 . S
C421 C420 1.387 . S
C421 C423 1.387 . S
H422 C429 0.950 . S
C423 C421 1.387 . S
C423 C425 1.390 . S
C423 H427 0.950 . S
H424 C420 0.950 . S
C425 C423 1.390 . S
C425 C426 1.387 . S
C425 H428 0.950 . S
C426 C425 1.387 . S
C426 C429 1.387 . S
H427 C423 0.950 . S
H428 C425 0.950 . S
C429 C420 1.390 . S
C429 H422 0.950 . S
C429 C426 1.387 . S
C430 C431 1.387 . S
C430 H434 0.950 . S
C430 C439 1.390 . S
C431 C430 1.387 . S
C431 C433 1.387 . S
H432 C439 0.950 . S
C433 C431 1.387 . S
C433 C435 1.390 . S
C433 H437 0.950 . S
H434 C430 0.950 . S
C435 C433 1.390 . S
C435 C436 1.387 . S
C435 H438 0.950 . S
C436 C435 1.387 . S
C436 C439 1.387 . S
H437 C433 0.950 . S
H438 C435 0.950 . S
C439 C430 1.390 . S
C439 H432 0.950 . S
C439 C436 1.387 . S
C440 C441 1.387 . S
C440 H444 0.950 . S
C440 C449 1.390 . S
C441 C440 1.387 . S
C441 C443 1.387 . S
H442 C449 0.950 . S
C443 C441 1.387 . S
C443 C445 1.390 . S
C443 H447 0.950 . S
H444 C440 0.950 . S
C445 C443 1.390 . S
C445 C446 1.387 . S
C445 H448 0.950 . S
C446 C445 1.387 . S
C446 C449 1.387 . S
H447 C443 0.950 . S
H448 C445 0.950 . S
C449 C440 1.390 . S
C449 H442 0.950 . S
C449 C446 1.387 . S
C450 C451 1.386 1_556 S
C450 H454 0.950 . S
C450 C459 1.390 . S
C451 C450 1.386 1_554 S
C451 C453 1.386 1_554 S
H452 C459 0.950 . S
C453 C451 1.386 1_556 S
C453 C455 1.390 . S
C453 H457 0.950 . S
H454 C450 0.950 . S
C455 C453 1.390 . S
C455 C456 1.387 . S
C455 H458 0.950 . S
C456 C455 1.387 . S
C456 C459 1.387 . S
H457 C453 0.950 . S
H458 C455 0.950 . S
C459 C450 1.390 . S
C459 H452 0.950 . S
C459 C456 1.387 . S
C460 C461 1.387 . S
C460 H464 0.950 . S
C460 C469 1.390 . S
C461 C460 1.387 . S
C461 C463 1.387 . S
H462 C469 0.950 1_455 S
C463 C461 1.387 . S
C463 C465 1.390 . S
C463 H467 0.950 . S
H464 C460 0.950 . S
C465 C463 1.390 . S
C465 C466 1.387 1_556 S
C465 H468 0.950 . S
C466 C465 1.387 1_554 S
C466 C469 1.387 1_554 S
H467 C463 0.950 . S
H468 C465 0.950 . S
C469 C460 1.390 . S
C469 H462 0.950 1_655 S
C469 C466 1.387 1_556 S
C470 C471 1.387 . S
C470 H474 0.950 . S
C470 C479 1.390 . S
C471 C470 1.387 . S
C471 C473 1.387 1_554 S
H472 C479 0.950 . S
C473 C471 1.387 1_556 S
C473 C475 1.390 . S
C473 H477 0.950 . S
H474 C470 0.950 . S
C475 C473 1.390 . S
C475 C476 1.387 . S
C475 H478 0.950 . S
C476 C475 1.387 . S
C476 C479 1.387 1_556 S
H477 C473 0.950 . S
H478 C475 0.950 . S
C479 C470 1.390 . S
C479 H472 0.950 . S
C479 C476 1.387 1_554 S
C480 C481 1.387 . S
C480 H484 0.950 . S
C480 C489 1.390 . S
C481 C480 1.387 . S
C481 C483 1.387 . S
H482 C489 0.950 . S
C483 C481 1.387 . S
C483 C485 1.390 . S
C483 H487 0.950 . S
H484 C480 0.950 . S
C485 C483 1.390 . S
C485 C486 1.387 . S
C485 H488 0.950 . S
C486 C485 1.387 . S
C486 C489 1.387 . S
H487 C483 0.950 . S
H488 C485 0.950 . S
C489 C480 1.390 . S
C489 H482 0.950 . S
C489 C486 1.387 . S
C490 C491 1.387 . S
C490 H494 0.950 . S
C490 C499 1.390 . S
C491 C490 1.387 . S
C491 C493 1.387 . S
H492 C499 0.950 . S
C493 C491 1.387 . S
C493 C495 1.390 . S
C493 H497 0.950 . S
H494 C490 0.950 . S
C495 C493 1.390 . S
C495 C496 1.387 . S
C495 H498 0.950 . S
C496 C495 1.387 . S
C496 C499 1.387 . S
H497 C493 0.950 . S
H498 C495 0.950 . S
C499 C490 1.390 . S
C499 H492 0.950 . S
C499 C496 1.387 . S
C500 C501 1.387 . S
C500 H504 0.950 . S
C500 C509 1.390 . S
C501 C500 1.387 . S
C501 C503 1.387 . S
H502 C509 0.950 . S
C503 C501 1.387 . S
C503 C505 1.390 . S
C503 H507 0.950 . S
H504 C500 0.950 . S
C505 C503 1.390 . S
C505 C506 1.387 . S
C505 H508 0.950 . S
C506 C505 1.387 . S
C506 C509 1.387 . S
H507 C503 0.950 . S
H508 C505 0.950 . S
C509 C500 1.390 . S
C509 H502 0.950 . S
C509 C506 1.387 . S
C510 C511 1.387 . S
C510 H514 0.950 . S
C510 C519 1.390 . S
C511 C510 1.387 . S
C511 C513 1.387 . S
H512 C519 0.950 . S
C513 C511 1.387 . S
C513 C515 1.390 . S
C513 H517 0.950 . S
H514 C510 0.950 . S
C515 C513 1.390 . S
C515 C516 1.387 . S
C515 H518 0.950 . S
C516 C515 1.387 . S
C516 C519 1.387 . S
H517 C513 0.950 . S
H518 C515 0.950 . S
C519 C510 1.390 . S
C519 H512 0.950 . S
C519 C516 1.387 . S
C520 C521 1.387 . S
C520 H524 0.950 . S
C520 C529 1.390 . S
C521 C520 1.387 . S
C521 C523 1.387 . S
H522 C529 0.950 . S
C523 C521 1.387 . S
C523 C525 1.390 . S
C523 H527 0.950 . S
H524 C520 0.950 . S
C525 C523 1.390 . S
C525 C526 1.387 . S
C525 H528 0.950 . S
C526 C525 1.387 . S
C526 C529 1.387 . S
H527 C523 0.950 . S
H528 C525 0.950 . S
C529 C520 1.390 . S
C529 H522 0.950 . S
C529 C526 1.387 . S
C530 C531 1.387 . S
C530 H534 0.950 . S
C530 C539 1.390 . S
C531 C530 1.387 . S
C531 C533 1.387 . S
H532 C539 0.950 . S
C533 C531 1.387 . S
C533 C535 1.390 . S
C533 H537 0.950 . S
H534 C530 0.950 . S
C535 C533 1.390 . S
C535 C536 1.387 . S
C535 H538 0.950 . S
C536 C535 1.387 . S
C536 C539 1.387 . S
H537 C533 0.950 . S
H538 C535 0.950 . S
C539 C530 1.390 . S
C539 H532 0.950 . S
C539 C536 1.387 . S
C540 C541 1.387 . S
C540 H544 0.950 . S
C540 C549 1.390 . S
C541 C540 1.387 . S
C541 C543 1.387 1_455 S
H542 C549 0.950 . S
C543 C541 1.387 1_655 S
C543 C545 1.390 . S
C543 H547 0.950 . S
H544 C540 0.950 . S
C545 C543 1.390 . S
C545 C546 1.387 1_655 S
C545 H548 0.950 . S
C546 C545 1.387 1_455 S
C546 C549 1.387 . S
H547 C543 0.950 . S
H548 C545 0.950 . S
C549 C540 1.390 . S
C549 H542 0.950 . S
C549 C546 1.387 . S
C550 C551 1.387 . S
C550 H554 0.950 . S
C550 C559 1.390 . S
C551 C550 1.387 . S
C551 C553 1.387 . S
H552 C559 0.950 . S
C553 C551 1.387 . S
C553 C555 1.390 . S
C553 H557 0.950 . S
H554 C550 0.950 . S
C555 C553 1.390 . S
C555 C556 1.387 . S
C555 H558 0.950 . S
C556 C555 1.387 . S
C556 C559 1.387 . S
H557 C553 0.950 . S
H558 C555 0.950 . S
C559 C550 1.390 . S
C559 H552 0.950 . S
C559 C556 1.387 . S
C560 C561 1.387 1_565 S
C560 H564 0.950 . S
C560 C569 1.390 . S
C561 C560 1.387 1_545 S
C561 C563 1.387 . S
H562 C569 0.950 . S
C563 C561 1.387 . S
C563 C565 1.390 . S
C563 H567 0.950 . S
H564 C560 0.950 . S
C565 C563 1.390 . S
C565 C566 1.387 . S
C565 H568 0.950 . S
C566 C565 1.387 . S
C566 C569 1.387 1_545 S
H567 C563 0.950 . S
H568 C565 0.950 . S
C569 C560 1.390 . S
C569 H562 0.950 . S
C569 C566 1.387 1_565 S
C570 C571 1.387 . S
C570 H574 0.950 . S
C570 C579 1.390 . S
C571 C570 1.387 . S
C571 C573 1.387 . S
H572 C579 0.950 . S
C573 C571 1.387 . S
C573 C575 1.390 . S
C573 H577 0.950 . S
H574 C570 0.950 . S
C575 C573 1.390 . S
C575 C576 1.387 . S
C575 H578 0.950 . S
C576 C575 1.387 . S
C576 C579 1.387 . S
H577 C573 0.950 . S
H578 C575 0.950 . S
C579 C570 1.390 . S
C579 H572 0.950 . S
C579 C576 1.387 . S
C580 C581 1.387 . S
C580 H584 0.950 . S
C580 C589 1.390 . S
C581 C580 1.387 . S
C581 C583 1.387 . S
H582 C589 0.950 . S
C583 C581 1.387 . S
C583 C585 1.390 . S
C583 H587 0.950 . S
H584 C580 0.950 . S
C585 C583 1.390 . S
C585 C586 1.387 . S
C585 H588 0.950 . S
C586 C585 1.387 . S
C586 C589 1.387 . S
H587 C583 0.950 . S
H588 C585 0.950 . S
C589 C580 1.390 . S
C589 H582 0.950 . S
C589 C586 1.387 . S
C590 C591 1.387 . S
C590 H594 0.950 . S
C590 C599 1.390 . S
C591 C590 1.387 . S
C591 C593 1.387 . S
H592 C599 0.950 . S
C593 C591 1.387 . S
C593 C595 1.390 . S
C593 H597 0.950 . S
H594 C590 0.950 . S
C595 C593 1.390 . S
C595 C596 1.387 . S
C595 H598 0.950 . S
C596 C595 1.387 . S
C596 C599 1.387 . S
H597 C593 0.950 . S
H598 C595 0.950 . S
C599 C590 1.390 . S
C599 H592 0.950 . S
C599 C596 1.387 . S
C600 C601 1.387 . S
C600 H604 0.950 . S
C600 C609 1.390 . S
C601 C600 1.387 . S
C601 C603 1.387 . S
H602 C609 0.950 . S
C603 C601 1.387 . S
C603 C605 1.390 . S
C603 H607 0.950 . S
H604 C600 0.950 . S
C605 C603 1.390 . S
C605 C606 1.387 . S
C605 H608 0.950 . S
C606 C605 1.387 . S
C606 C609 1.387 . S
H607 C603 0.950 . S
H608 C605 0.950 . S
C609 C600 1.390 . S
C609 H602 0.950 . S
C609 C606 1.387 . S
C610 C611 1.387 . S
C610 H614 0.950 . S
C610 C619 1.390 . S
C611 C610 1.387 . S
C611 C613 1.387 . S
H612 C619 0.950 . S
C613 C611 1.387 . S
C613 C615 1.390 . S
C613 H617 0.950 . S
H614 C610 0.950 . S
C615 C613 1.390 . S
C615 C616 1.387 . S
C615 H618 0.950 . S
C616 C615 1.387 . S
C616 C619 1.387 . S
H617 C613 0.950 . S
H618 C615 0.950 . S
C619 C610 1.390 . S
C619 H612 0.950 . S
C619 C616 1.387 . S
C620 C621 1.387 . S
C620 H624 0.950 . S
C620 C629 1.390 . S
C621 C620 1.387 . S
C621 C623 1.387 . S
H622 C629 0.950 . S
C623 C621 1.387 . S
C623 C625 1.390 . S
C623 H627 0.950 . S
H624 C620 0.950 . S
C625 C623 1.390 . S
C625 C626 1.387 . S
C625 H628 0.950 . S
C626 C625 1.387 . S
C626 C629 1.387 . S
H627 C623 0.950 . S
H628 C625 0.950 . S
C629 C620 1.390 . S
C629 H622 0.950 . S
C629 C626 1.387 . S
C361 C22 1.775 . S
C366 C289 1.775 . S
C371 C62 1.776 . S
C376 C329 1.775 . S
C381 C102 1.775 . S
C386 C249 1.774 . S
C391 C182 1.777 . S
C396 C89 1.775 . S
C401 C222 1.777 . S
C406 C9 1.776 . S
C411 C49 1.775 . S
C416 C142 1.777 . S
C421 C302 1.777 . S
C426 C209 1.777 . S
C431 C342 1.777 . S
C436 C129 1.775 . S
C441 C169 1.777 1_565 S
C446 C262 1.776 . S
C451 C83 1.717 . S
C456 C26 1.681 . S
C461 C66 1.681 . S
C466 C3 1.716 . S
C471 C43 1.717 . S
C476 C106 1.681 1_655 S
C481 C146 1.681 . S
C486 C203 1.716 . S
C491 C123 1.716 . S
C496 C186 1.681 . S
C501 C163 1.716 . S
C506 C226 1.681 . S
C511 C323 1.717 . S
C516 C266 1.683 . S
C521 C306 1.683 . S
C526 C243 1.717 . S
C531 C346 1.683 . S
C536 C283 1.717 . S
C541 C2 1.208 . S
C546 C15 1.208 . S
C551 C42 1.209 . S
C556 C55 1.209 . S
C561 C82 1.207 . S
C566 C95 1.207 . S
C571 C135 1.208 . S
C576 C122 1.208 1_556 S
C581 C175 1.207 . S
C586 C162 1.207 1_556 S
C591 C215 1.209 . S
C596 C202 1.209 1_556 S
C601 C242 1.209 . S
C606 C255 1.209 1_554 S
C611 C295 1.209 1_554 S
C616 C282 1.209 . S
C621 C322 1.207 . S
C626 C335 1.207 1_554 S
