# Generated by pormake.
# Topology wmc, (6)-cn, num edge types: 1
# Building blocks:
#     Node 0, Type 0, BuildingBlock: VOLQOD_clean_sbu_1, # of connection points: 6
#     Node 1, Type 0, BuildingBlock: VOLQOD_clean_sbu_1, # of connection points: 6
#     Node 2, Type 0, BuildingBlock: VOLQOD_clean_sbu_1, # of connection points: 6
#     Node 3, Type 0, BuildingBlock: VOLQOD_clean_sbu_1, # of connection points: 6
#     Node 4, Type 0, BuildingBlock: VOLQOD_clean_sbu_1, # of connection points: 6
#     Node 5, Type 0, BuildingBlock: VOLQOD_clean_sbu_1, # of connection points: 6
#     Node 6, Type 0, BuildingBlock: VOLQOD_clean_sbu_1, # of connection points: 6
#     Node 7, Type 0, BuildingBlock: VOLQOD_clean_sbu_1, # of connection points: 6
#     Node 8, Type 0, BuildingBlock: VOLQOD_clean_sbu_1, # of connection points: 6
#     Node 9, Type 0, BuildingBlock: VOLQOD_clean_sbu_1, # of connection points: 6
#     Node 10, Type 0, BuildingBlock: VOLQOD_clean_sbu_1, # of connection points: 6
#     Node 11, Type 0, BuildingBlock: VOLQOD_clean_sbu_1, # of connection points: 6
#     Node 12, Type 0, BuildingBlock: VOLQOD_clean_sbu_1, # of connection points: 6
#     Node 13, Type 0, BuildingBlock: VOLQOD_clean_sbu_1, # of connection points: 6
#     Node 14, Type 0, BuildingBlock: VOLQOD_clean_sbu_1, # of connection points: 6
#     Node 15, Type 0, BuildingBlock: VOLQOD_clean_sbu_1, # of connection points: 6
#     Node 16, Type 0, BuildingBlock: VOLQOD_clean_sbu_1, # of connection points: 6
#     Node 17, Type 0, BuildingBlock: VOLQOD_clean_sbu_1, # of connection points: 6
#     Edge 18, Type (0, 0), BuildingBlock: OJICUG_clean_linker_0, # of connection points: 2
#     Edge 19, Type (0, 0), BuildingBlock: OJICUG_clean_linker_0, # of connection points: 2
#     Edge 20, Type (0, 0), BuildingBlock: OJICUG_clean_linker_0, # of connection points: 2
#     Edge 21, Type (0, 0), BuildingBlock: OJICUG_clean_linker_0, # of connection points: 2
#     Edge 22, Type (0, 0), BuildingBlock: OJICUG_clean_linker_0, # of connection points: 2
#     Edge 23, Type (0, 0), BuildingBlock: OJICUG_clean_linker_0, # of connection points: 2
#     Edge 24, Type (0, 0), BuildingBlock: OJICUG_clean_linker_0, # of connection points: 2
#     Edge 25, Type (0, 0), BuildingBlock: OJICUG_clean_linker_0, # of connection points: 2
#     Edge 26, Type (0, 0), BuildingBlock: OJICUG_clean_linker_0, # of connection points: 2
#     Edge 27, Type (0, 0), BuildingBlock: OJICUG_clean_linker_0, # of connection points: 2
#     Edge 28, Type (0, 0), BuildingBlock: OJICUG_clean_linker_0, # of connection points: 2
#     Edge 29, Type (0, 0), BuildingBlock: OJICUG_clean_linker_0, # of connection points: 2
#     Edge 30, Type (0, 0), BuildingBlock: OJICUG_clean_linker_0, # of connection points: 2
#     Edge 31, Type (0, 0), BuildingBlock: OJICUG_clean_linker_0, # of connection points: 2
#     Edge 32, Type (0, 0), BuildingBlock: OJICUG_clean_linker_0, # of connection points: 2
#     Edge 33, Type (0, 0), BuildingBlock: OJICUG_clean_linker_0, # of connection points: 2
#     Edge 34, Type (0, 0), BuildingBlock: OJICUG_clean_linker_0, # of connection points: 2
#     Edge 35, Type (0, 0), BuildingBlock: OJICUG_clean_linker_0, # of connection points: 2
#     Edge 36, Type (0, 0), BuildingBlock: OJICUG_clean_linker_0, # of connection points: 2
#     Edge 37, Type (0, 0), BuildingBlock: OJICUG_clean_linker_0, # of connection points: 2
#     Edge 38, Type (0, 0), BuildingBlock: OJICUG_clean_linker_0, # of connection points: 2
#     Edge 39, Type (0, 0), BuildingBlock: OJICUG_clean_linker_0, # of connection points: 2
#     Edge 40, Type (0, 0), BuildingBlock: OJICUG_clean_linker_0, # of connection points: 2
#     Edge 41, Type (0, 0), BuildingBlock: OJICUG_clean_linker_0, # of connection points: 2
#     Edge 42, Type (0, 0), BuildingBlock: OJICUG_clean_linker_0, # of connection points: 2
#     Edge 43, Type (0, 0), BuildingBlock: OJICUG_clean_linker_0, # of connection points: 2
#     Edge 44, Type (0, 0), BuildingBlock: OJICUG_clean_linker_0, # of connection points: 2
#     Edge 45, Type (0, 0), BuildingBlock: OJICUG_clean_linker_0, # of connection points: 2
#     Edge 46, Type (0, 0), BuildingBlock: OJICUG_clean_linker_0, # of connection points: 2
#     Edge 47, Type (0, 0), BuildingBlock: OJICUG_clean_linker_0, # of connection points: 2
#     Edge 48, Type (0, 0), BuildingBlock: OJICUG_clean_linker_0, # of connection points: 2
#     Edge 49, Type (0, 0), BuildingBlock: OJICUG_clean_linker_0, # of connection points: 2
#     Edge 50, Type (0, 0), BuildingBlock: OJICUG_clean_linker_0, # of connection points: 2
#     Edge 51, Type (0, 0), BuildingBlock: OJICUG_clean_linker_0, # of connection points: 2
#     Edge 52, Type (0, 0), BuildingBlock: OJICUG_clean_linker_0, # of connection points: 2
#     Edge 53, Type (0, 0), BuildingBlock: OJICUG_clean_linker_0, # of connection points: 2
#     Edge 54, Type (0, 0), BuildingBlock: OJICUG_clean_linker_0, # of connection points: 2
#     Edge 55, Type (0, 0), BuildingBlock: OJICUG_clean_linker_0, # of connection points: 2
#     Edge 56, Type (0, 0), BuildingBlock: OJICUG_clean_linker_0, # of connection points: 2
#     Edge 57, Type (0, 0), BuildingBlock: OJICUG_clean_linker_0, # of connection points: 2
#     Edge 58, Type (0, 0), BuildingBlock: OJICUG_clean_linker_0, # of connection points: 2
#     Edge 59, Type (0, 0), BuildingBlock: OJICUG_clean_linker_0, # of connection points: 2
#     Edge 60, Type (0, 0), BuildingBlock: OJICUG_clean_linker_0, # of connection points: 2
#     Edge 61, Type (0, 0), BuildingBlock: OJICUG_clean_linker_0, # of connection points: 2
#     Edge 62, Type (0, 0), BuildingBlock: OJICUG_clean_linker_0, # of connection points: 2
#     Edge 63, Type (0, 0), BuildingBlock: OJICUG_clean_linker_0, # of connection points: 2
#     Edge 64, Type (0, 0), BuildingBlock: OJICUG_clean_linker_0, # of connection points: 2
#     Edge 65, Type (0, 0), BuildingBlock: OJICUG_clean_linker_0, # of connection points: 2
#     Edge 66, Type (0, 0), BuildingBlock: OJICUG_clean_linker_0, # of connection points: 2
#     Edge 67, Type (0, 0), BuildingBlock: OJICUG_clean_linker_0, # of connection points: 2
#     Edge 68, Type (0, 0), BuildingBlock: OJICUG_clean_linker_0, # of connection points: 2
#     Edge 69, Type (0, 0), BuildingBlock: OJICUG_clean_linker_0, # of connection points: 2
#     Edge 70, Type (0, 0), BuildingBlock: OJICUG_clean_linker_0, # of connection points: 2
#     Edge 71, Type (0, 0), BuildingBlock: OJICUG_clean_linker_0, # of connection points: 2
# Relax obj value: 0.291
# Max RMSD: 0.168
# Mean RMSD: 0.168
data_MOF--net-wmc--node1-VOLQOD_clean_sbu_1--edge1-OJICUG_clean_linker_0
_symmetry_space_group_name_H-M    P1
_symmetry_Int_Tables_number       1
_symmetry_cell_setting            triclinic
loop_
_symmetry_equiv_pos_as_xyz
'x, y, z'
_cell_length_a     36.785595
_cell_length_b     36.780739
_cell_length_c     25.523035
_cell_angle_alpha  90.021568
_cell_angle_beta   89.987779
_cell_angle_gamma 120.02399
loop_
_atom_site_label
_atom_site_type_symbol
_atom_site_fract_x
_atom_site_fract_y
_atom_site_fract_z
_atom_type_partial_charge
O0 O 0.67163 0.19616 0.91961 0.0
Zn1 Zn 0.63339 0.13451 0.92019 0.0
O2 O 0.58523 0.11948 -0.03833 0.0
Zn3 Zn 0.54406 0.11944 0.91716 0.0
Zn4 Zn 0.60577 0.16285 0.01201 0.0
Zn5 Zn 0.56679 0.06636 -0.00502 0.0
O6 O 0.48895 0.06848 0.93271 0.0
O7 O 0.51043 0.02323 0.95428 0.0
O8 O 0.61862 0.11381 0.84705 0.0
O9 O 0.55711 0.11167 0.84253 0.0
O10 O 0.54194 0.17332 0.9264 0.0
O11 O 0.58177 0.19903 -0.00246 0.0
O12 O 0.587 0.13908 0.0831 0.0
O13 O 0.66759 0.11608 -0.04153 0.0
O14 O 0.54992 0.07001 0.0692 0.0
O15 O 0.62273 0.06415 0.00996 0.0
C16 C 0.68811 0.2143 -0.03731 0.0
C17 C 0.4815 0.03091 0.93815 0.0
C18 C 0.55827 0.20093 -0.03749 0.0
C19 C 0.58653 0.10802 0.82129 0.0
C20 C 0.56307 0.10181 0.09927 0.0
C21 C 0.66059 0.09015 -0.00479 0.0
O22 O 0.66852 0.20019 0.00586 0.0
O23 O 0.85184 0.48536 0.91948 0.0
Zn24 Zn 0.91348 0.50874 0.92013 0.0
O25 O 0.92845 0.47559 -0.03839 0.0
Zn26 Zn 0.92845 0.43442 0.91707 0.0
Zn27 Zn 0.88507 0.4528 0.01192 0.0
Zn28 Zn 0.98154 0.51024 -0.00502 0.0
O29 O 0.97937 0.43025 0.93262 0.0
O30 O 1.02466 0.497 0.95428 0.0
O31 O 0.93422 0.51469 0.84702 0.0
O32 O 0.93624 0.45524 0.84244 0.0
O33 O 0.87457 0.37841 0.92632 0.0
O34 O 0.84889 0.39261 -0.00256 0.0
O35 O 0.90879 0.4578 0.08303 0.0
O36 O 0.93193 0.56139 -0.04153 0.0
O37 O 0.97786 0.48968 0.06917 0.0
O38 O 0.98378 0.56841 0.01006 0.0
C39 C 0.83369 0.48372 -0.03746 0.0
C40 C 1.01695 0.46038 0.93811 0.0
C41 C 0.84697 0.36716 -0.03756 0.0
C42 C 0.93995 0.48835 0.82124 0.0
C43 C 0.94605 0.47107 0.09922 0.0
C44 C 0.95781 0.58029 -0.00472 0.0
O45 O 0.84778 0.47824 0.00572 0.0
O46 O 0.56271 0.37625 0.91942 0.0
Zn47 Zn 0.53934 0.41451 0.91998 0.0
O48 O 0.57249 0.46272 -0.03857 0.0
Zn49 Zn 0.61364 0.50389 0.91688 0.0
Zn50 Zn 0.59532 0.44222 0.01176 0.0
Zn51 Zn 0.53783 0.48116 -0.00522 0.0
O52 O 0.61778 0.559 0.93238 0.0
O53 O 0.55105 0.53749 0.95406 0.0
O54 O 0.5334 0.42924 0.84684 0.0
O55 O 0.5928 0.49078 0.84226 0.0
O56 O 0.66966 0.50608 0.92612 0.0
O57 O 0.65551 0.46627 -0.00273 0.0
O58 O 0.59033 0.461 0.08285 0.0
O59 O 0.48669 0.38034 -0.0417 0.0
O60 O 0.55837 0.49808 0.06899 0.0
O61 O 0.47966 0.42521 0.00981 0.0
C62 C 0.5644 0.35982 -0.03749 0.0
C63 C 0.58765 0.56644 0.93786 0.0
C64 C 0.68094 0.48978 -0.03775 0.0
C65 C 0.55971 0.46133 0.82106 0.0
C66 C 0.57701 0.48494 0.09904 0.0
C67 C 0.46778 0.38734 -0.00493 0.0
O68 O 0.56991 0.37946 0.00565 0.0
O69 O 0.85172 0.37632 0.41961 0.0
Zn70 Zn 0.91337 0.41456 0.42015 0.0
O71 O 0.92844 0.46275 0.46162 0.0
Zn72 Zn 0.92848 0.50392 0.4171 0.0
Zn73 Zn 0.88509 0.44224 0.51197 0.0
Zn74 Zn 0.98156 0.48118 0.49492 0.0
O75 O 0.97946 0.55903 0.43263 0.0
O76 O 1.02469 0.53753 0.45421 0.0
O77 O 0.93403 0.42929 0.34699 0.0
O78 O 0.93622 0.49084 0.34247 0.0
O79 O 0.87463 0.50607 0.42635 0.0
O80 O 0.84893 0.46626 0.4975 0.0
O81 O 0.90889 0.46104 0.58305 0.0
O82 O 0.93181 0.38036 0.45842 0.0
O83 O 0.97795 0.49808 0.56915 0.0
O84 O 0.98376 0.42522 0.50989 0.0
C85 C 0.8336 0.35987 0.4627 0.0
C86 C 1.01703 0.56647 0.43807 0.0
C87 C 0.84703 0.48975 0.46247 0.0
C88 C 0.93983 0.46139 0.32124 0.0
C89 C 0.94617 0.48496 0.59922 0.0
C90 C 0.95775 0.38736 0.49514 0.0
O91 O 0.84774 0.37948 0.50586 0.0
O92 O 0.6717 0.48527 0.41941 0.0
Zn93 Zn 0.63343 0.50863 0.41998 0.0
O94 O 0.58524 0.47548 0.46143 0.0
Zn95 Zn 0.54407 0.43432 0.41687 0.0
Zn96 Zn 0.60577 0.45267 0.51176 0.0
Zn97 Zn 0.5668 0.51013 0.4948 0.0
O98 O 0.48897 0.43017 0.43237 0.0
O99 O 0.51047 0.49691 0.45408 0.0
O100 O 0.61869 0.51456 0.34685 0.0
O101 O 0.55717 0.45514 0.34225 0.0
O102 O 0.54188 0.37829 0.42614 0.0
O103 O 0.58172 0.39248 0.49728 0.0
O104 O 0.58701 0.45766 0.58286 0.0
O105 O 0.66761 0.56129 0.45831 0.0
O106 O 0.54989 0.48958 0.569 0.0
O107 O 0.62275 0.56831 0.50986 0.0
C108 C 0.68814 0.4836 0.4625 0.0
C109 C 0.48153 0.4603 0.43788 0.0
C110 C 0.5582 0.36703 0.46227 0.0
C111 C 0.58661 0.48824 0.32106 0.0
C112 C 0.56305 0.47096 0.59904 0.0
C113 C 0.66061 0.5802 0.4951 0.0
O114 O 0.66852 0.4781 0.50564 0.0
O115 O 0.56261 0.1961 0.41956 0.0
Zn116 Zn 0.53921 0.13446 0.42019 0.0
O117 O 0.57235 0.11948 0.46168 0.0
Zn118 Zn 0.61351 0.11948 0.41716 0.0
Zn119 Zn 0.59513 0.16286 0.512 0.0
Zn120 Zn 0.53768 0.06637 0.49501 0.0
O121 O 0.61767 0.06855 0.43272 0.0
O122 O 0.55092 0.02326 0.4543 0.0
O123 O 0.53328 0.11373 0.34707 0.0
O124 O 0.59271 0.11169 0.34252 0.0
O125 O 0.66951 0.17337 0.42644 0.0
O126 O 0.65532 0.19906 0.49755 0.0
O127 O 0.59013 0.13912 0.58311 0.0
O128 O 0.48656 0.11601 0.45848 0.0
O129 O 0.55822 0.07005 0.56921 0.0
O130 O 0.47952 0.06415 0.51005 0.0
C131 C 0.56423 0.21424 0.46262 0.0
C132 C 0.58755 0.03096 0.43817 0.0
C133 C 0.68076 0.20098 0.46255 0.0
C134 C 0.55962 0.10799 0.3213 0.0
C135 C 0.57684 0.10185 0.59927 0.0
C136 C 0.46765 0.09013 0.49527 0.0
O137 O 0.56969 0.20015 0.50581 0.0
O138 O 0.33834 0.52954 0.2529 0.0
Zn139 Zn 0.30008 0.46789 0.25346 0.0
O140 O 0.25194 0.45287 0.29496 0.0
Zn141 Zn 0.21076 0.45285 0.25047 0.0
Zn142 Zn 0.2725 0.49623 0.34531 0.0
Zn143 Zn 0.23349 0.39975 0.32824 0.0
O144 O 0.15565 0.4019 0.26602 0.0
O145 O 0.17713 0.35664 0.28752 0.0
O146 O 0.2853 0.4472 0.18032 0.0
O147 O 0.22379 0.44508 0.17582 0.0
O148 O 0.20867 0.50674 0.25975 0.0
O149 O 0.24853 0.53243 0.33087 0.0
O150 O 0.25372 0.47245 0.4164 0.0
O151 O 0.33428 0.44943 0.29171 0.0
O152 O 0.2166 0.40338 0.40246 0.0
O153 O 0.28942 0.39751 0.34322 0.0
C154 C 0.35483 0.54767 0.29598 0.0
C155 C 0.1482 0.36432 0.27141 0.0
C156 C 0.22503 0.53435 0.29586 0.0
C157 C 0.2532 0.44143 0.15457 0.0
C158 C 0.22977 0.43517 0.43254 0.0
C159 C 0.32728 0.42351 0.32846 0.0
O160 O 0.33526 0.53355 0.33915 0.0
O161 O 0.51856 0.81879 0.25277 0.0
Zn162 Zn 0.5802 0.84215 0.25341 0.0
O163 O 0.59516 0.80898 0.29489 0.0
Zn164 Zn 0.59515 0.76781 0.25035 0.0
Zn165 Zn 0.55177 0.7862 0.34519 0.0
Zn166 Zn 0.64825 0.84362 0.32829 0.0
O167 O 0.64608 0.76365 0.26591 0.0
O168 O 0.69137 0.83038 0.2876 0.0
O169 O 0.60093 0.84808 0.18029 0.0
O170 O 0.60294 0.78863 0.17572 0.0
O171 O 0.54128 0.7118 0.25961 0.0
O172 O 0.51558 0.726 0.3307 0.0
O173 O 0.57548 0.79117 0.41631 0.0
O174 O 0.59867 0.8948 0.29173 0.0
O175 O 0.64454 0.82305 0.40248 0.0
O176 O 0.65048 0.90179 0.34337 0.0
C177 C 0.50042 0.81715 0.29583 0.0
C178 C 0.68366 0.79376 0.27142 0.0
C179 C 0.51367 0.70055 0.29571 0.0
C180 C 0.60665 0.82173 0.15451 0.0
C181 C 0.61272 0.80444 0.43251 0.0
C182 C 0.62453 0.91368 0.32857 0.0
O183 O 0.5145 0.81166 0.339 0.0
O184 O 0.22948 0.70968 0.25286 0.0
Zn185 Zn 0.20607 0.74791 0.25344 0.0
O186 O 0.23921 0.79612 0.29488 0.0
Zn187 Zn 0.28034 0.8373 0.2503 0.0
Zn188 Zn 0.26208 0.77565 0.3452 0.0
Zn189 Zn 0.20454 0.81454 0.32823 0.0
O190 O 0.28447 0.8924 0.26582 0.0
O191 O 0.21774 0.87088 0.28752 0.0
O192 O 0.20009 0.76261 0.18031 0.0
O193 O 0.25947 0.82417 0.17569 0.0
O194 O 0.33637 0.83951 0.25951 0.0
O195 O 0.32227 0.79974 0.33069 0.0
O196 O 0.25708 0.79442 0.4163 0.0
O197 O 0.15344 0.71371 0.29179 0.0
O198 O 0.22507 0.83146 0.40244 0.0
O199 O 0.14637 0.75858 0.34326 0.0
C200 C 0.23119 0.69326 0.29594 0.0
C201 C 0.25435 0.89983 0.27132 0.0
C202 C 0.34767 0.82324 0.29564 0.0
C203 C 0.22638 0.79471 0.15451 0.0
C204 C 0.24373 0.81834 0.43249 0.0
C205 C 0.13451 0.72071 0.32853 0.0
O206 O 0.2367 0.7129 0.33909 0.0
O207 O 0.51834 0.70961 0.75291 0.0
Zn208 Zn 0.57998 0.74786 0.75343 0.0
O209 O 0.59505 0.79604 0.79491 0.0
Zn210 Zn 0.59507 0.83721 0.75041 0.0
Zn211 Zn 0.55172 0.77551 0.84528 0.0
Zn212 Zn 0.64818 0.81448 0.82818 0.0
O213 O 0.64604 0.89233 0.76594 0.0
O214 O 0.69128 0.87082 0.78743 0.0
O215 O 0.60064 0.76261 0.68027 0.0
O216 O 0.6028 0.82414 0.67577 0.0
O217 O 0.5412 0.83934 0.7597 0.0
O218 O 0.51554 0.79951 0.83084 0.0
O219 O 0.57553 0.79432 0.91635 0.0
O220 O 0.59844 0.71366 0.79168 0.0
O221 O 0.64459 0.8314 0.90241 0.0
O222 O 0.6504 0.75854 0.84315 0.0
C223 C 0.50023 0.69315 0.796 0.0
C224 C 0.68361 0.89977 0.77132 0.0
C225 C 0.51361 0.823 0.79583 0.0
C226 C 0.60643 0.79471 0.65453 0.0
C227 C 0.61282 0.81826 0.93249 0.0
C228 C 0.62439 0.72067 0.8284 0.0
O229 O 0.51437 0.71275 0.83916 0.0
O230 O 0.33828 0.81852 0.75285 0.0
Zn231 Zn 0.30004 0.84191 0.75345 0.0
O232 O 0.25185 0.80877 0.79488 0.0
Zn233 Zn 0.21068 0.76763 0.7503 0.0
Zn234 Zn 0.27234 0.78592 0.8452 0.0
Zn235 Zn 0.23343 0.84344 0.82825 0.0
O236 O 0.15558 0.76349 0.7658 0.0
O237 O 0.17709 0.83023 0.78753 0.0
O238 O 0.28533 0.84789 0.68032 0.0
O239 O 0.22379 0.78849 0.67568 0.0
O240 O 0.20847 0.71159 0.75953 0.0
O241 O 0.24826 0.72573 0.8307 0.0
O242 O 0.25359 0.79093 0.9163 0.0
O243 O 0.33424 0.89455 0.79181 0.0
O244 O 0.21651 0.8229 0.90245 0.0
O245 O 0.28938 0.90161 0.84331 0.0
C246 C 0.35471 0.81682 0.79593 0.0
C247 C 0.14815 0.79362 0.77132 0.0
C248 C 0.22475 0.7003 0.79566 0.0
C249 C 0.25325 0.82159 0.65452 0.0
C250 C 0.22965 0.80425 0.93249 0.0
C251 C 0.32724 0.91348 0.82858 0.0
O252 O 0.33509 0.81131 0.83908 0.0
O253 O 0.22917 0.52939 0.75285 0.0
Zn254 Zn 0.20579 0.46774 0.75346 0.0
O255 O 0.23894 0.45277 0.79495 0.0
Zn256 Zn 0.28011 0.45278 0.75044 0.0
Zn257 Zn 0.26173 0.49616 0.84528 0.0
Zn258 Zn 0.20429 0.39967 0.8283 0.0
O259 O 0.28427 0.40185 0.76599 0.0
O260 O 0.21753 0.35655 0.7876 0.0
O261 O 0.19988 0.44703 0.68033 0.0
O262 O 0.25932 0.445 0.6758 0.0
O263 O 0.33611 0.50666 0.75973 0.0
O264 O 0.32191 0.53237 0.83081 0.0
O265 O 0.25674 0.47243 0.91638 0.0
O266 O 0.15314 0.44928 0.79175 0.0
O267 O 0.22484 0.40336 0.9025 0.0
O268 O 0.14613 0.39745 0.84336 0.0
C269 C 0.2308 0.54752 0.79592 0.0
C270 C 0.25415 0.36426 0.77146 0.0
C271 C 0.34736 0.53428 0.79583 0.0
C272 C 0.22623 0.4413 0.65457 0.0
C273 C 0.24345 0.43517 0.93256 0.0
C274 C 0.13425 0.42341 0.82857 0.0
O275 O 0.23626 0.53344 0.83909 0.0
O276 O 1.00496 0.86283 0.58626 0.0
Zn277 Zn 0.96671 0.80118 0.58683 0.0
O278 O 0.91856 0.78615 0.62831 0.0
Zn279 Zn 0.87739 0.78613 0.5838 0.0
Zn280 Zn 0.9391 0.82952 0.67866 0.0
Zn281 Zn 0.90011 0.73304 0.66161 0.0
O282 O 0.82228 0.73517 0.59934 0.0
O283 O 0.84377 0.68991 0.62088 0.0
O284 O 0.95195 0.78049 0.51368 0.0
O285 O 0.89044 0.77837 0.50916 0.0
O286 O 0.87526 0.83999 0.59306 0.0
O287 O 0.91511 0.8657 0.66419 0.0
O288 O 0.92032 0.80574 0.74974 0.0
O289 O 1.00091 0.78274 0.62511 0.0
O290 O 0.88322 0.73667 0.73582 0.0
O291 O 0.95605 0.73082 0.67661 0.0
C292 C 1.02144 0.88096 0.62934 0.0
C293 C 0.81483 0.69759 0.60475 0.0
C294 C 0.8916 0.86761 0.62918 0.0
C295 C 0.91986 0.77472 0.48792 0.0
C296 C 0.89637 0.76846 0.7659 0.0
C297 C 0.99391 0.75682 0.66185 0.0
O298 O 1.00186 0.86685 0.67251 0.0
O299 O 0.18512 0.15197 0.58617 0.0
Zn300 Zn 0.24676 0.17537 0.58678 0.0
O301 O 0.26177 0.14224 0.62825 0.0
Zn302 Zn 0.26177 0.10108 0.5837 0.0
Zn303 Zn 0.2184 0.11943 0.67858 0.0
Zn304 Zn 0.31487 0.17691 0.66161 0.0
O305 O 0.31271 0.09693 0.59923 0.0
O306 O 0.35799 0.16368 0.62091 0.0
O307 O 0.26748 0.18132 0.51366 0.0
O308 O 0.26954 0.1219 0.50907 0.0
O309 O 0.20791 0.04506 0.59297 0.0
O310 O 0.18223 0.05924 0.6641 0.0
O311 O 0.24214 0.12444 0.74968 0.0
O312 O 0.26522 0.22802 0.62511 0.0
O313 O 0.3112 0.15636 0.7358 0.0
O314 O 0.31708 0.23507 0.67668 0.0
C315 C 0.16699 0.15032 0.62924 0.0
C316 C 0.35029 0.12705 0.60473 0.0
C317 C 0.18031 0.0338 0.62909 0.0
C318 C 0.27322 0.15499 0.48787 0.0
C319 C 0.2794 0.13774 0.76585 0.0
C320 C 0.2911 0.24693 0.66191 0.0
O321 O 0.18108 0.14485 0.67241 0.0
O322 O 0.89602 0.04292 0.58614 0.0
Zn323 Zn 0.87266 0.08118 0.58668 0.0
O324 O 0.9058 0.12938 0.62814 0.0
Zn325 Zn 0.94696 0.17056 0.58361 0.0
Zn326 Zn 0.92861 0.10886 0.67849 0.0
Zn327 Zn 0.87112 0.14781 0.66147 0.0
O328 O 0.9511 0.22567 0.59912 0.0
O329 O 0.88436 0.20415 0.62075 0.0
O330 O 0.86674 0.09591 0.51353 0.0
O331 O 0.92614 0.15746 0.50898 0.0
O332 O 1.00297 0.17273 0.59289 0.0
O333 O 0.98879 0.1329 0.66402 0.0
O334 O 0.92361 0.12766 0.74957 0.0
O335 O 0.81999 0.04699 0.62496 0.0
O336 O 0.89165 0.16473 0.73569 0.0
O337 O 0.81295 0.09186 0.67648 0.0
C338 C 0.89769 0.02648 0.62923 0.0
C339 C 0.92097 0.2331 0.60458 0.0
C340 C 1.01423 0.15641 0.62901 0.0
C341 C 0.89306 0.12801 0.48777 0.0
C342 C 0.91029 0.1516 0.76575 0.0
C343 C 0.80107 0.05399 0.66172 0.0
O344 O 0.90318 0.04611 0.67238 0.0
O345 O 0.18508 0.04297 0.0862 0.0
Zn346 Zn 0.24673 0.08123 0.08678 0.0
O347 O 0.26177 0.12941 0.12824 0.0
Zn348 Zn 0.26181 0.17058 0.08371 0.0
Zn349 Zn 0.21841 0.10889 0.17858 0.0
Zn350 Zn 0.31488 0.14786 0.16156 0.0
O351 O 0.31277 0.2257 0.09925 0.0
O352 O 0.35801 0.2042 0.12084 0.0
O353 O 0.26741 0.09597 0.01363 0.0
O354 O 0.26957 0.1575 0.00909 0.0
O355 O 0.20795 0.17273 0.09295 0.0
O356 O 0.18225 0.13291 0.16409 0.0
O357 O 0.24218 0.12768 0.24967 0.0
O358 O 0.26517 0.04704 0.12508 0.0
O359 O 0.31125 0.16476 0.23578 0.0
O360 O 0.3171 0.09192 0.17657 0.0
C361 C 0.16695 0.02652 0.12928 0.0
C362 C 0.35034 0.23314 0.10469 0.0
C363 C 0.18035 0.15641 0.12906 0.0
C364 C 0.2732 0.12806 -0.01213 0.0
C365 C 0.27945 0.15162 0.26584 0.0
C366 C 0.29109 0.05405 0.16182 0.0
O367 O 0.18106 0.04613 0.17244 0.0
O368 O 1.00505 0.15201 0.08607 0.0
Zn369 Zn 0.96677 0.17536 0.08667 0.0
O370 O 0.9186 0.14219 0.12813 0.0
Zn371 Zn 0.87742 0.10102 0.08358 0.0
Zn372 Zn 0.93914 0.11939 0.17844 0.0
Zn373 Zn 0.90015 0.17684 0.16151 0.0
O374 O 0.82232 0.09686 0.0991 0.0
O375 O 0.8438 0.1636 0.12082 0.0
O376 O 0.95201 0.18129 0.01354 0.0
O377 O 0.8905 0.12186 0.00896 0.0
O378 O 0.87525 0.045 0.09283 0.0
O379 O 0.91511 0.0592 0.16395 0.0
O380 O 0.92039 0.12437 0.24955 0.0
O381 O 1.00095 0.22802 0.12499 0.0
O382 O 0.88326 0.15629 0.23571 0.0
O383 O 0.9561 0.23502 0.17656 0.0
C384 C 1.0215 0.15033 0.12915 0.0
C385 C 0.81487 0.12698 0.10462 0.0
C386 C 0.89158 0.03375 0.12894 0.0
C387 C 0.91992 0.15496 -0.01224 0.0
C388 C 0.89643 0.13767 0.26575 0.0
C389 C 0.99396 0.24692 0.16179 0.0
O390 O 1.00189 0.14483 0.1723 0.0
O391 O 0.89594 0.86279 0.08618 0.0
Zn392 Zn 0.87253 0.80114 0.08681 0.0
O393 O 0.90568 0.78616 0.12829 0.0
Zn394 Zn 0.94683 0.78614 0.08375 0.0
Zn395 Zn 0.92849 0.82955 0.17861 0.0
Zn396 Zn 0.87102 0.73306 0.16164 0.0
O397 O 0.95099 0.73521 0.09931 0.0
O398 O 0.88425 0.68993 0.12095 0.0
O399 O 0.86658 0.7804 0.01369 0.0
O400 O 0.926 0.77835 0.00913 0.0
O401 O 1.00284 0.84003 0.093 0.0
O402 O 0.98868 0.86573 0.16413 0.0
O403 O 0.92349 0.80582 0.24972 0.0
O404 O 0.8199 0.7827 0.12514 0.0
O405 O 0.89157 0.73675 0.23584 0.0
O406 O 0.81286 0.73084 0.1767 0.0
C407 C 0.8976 0.88095 0.12924 0.0
C408 C 0.92087 0.69763 0.1048 0.0
C409 C 1.01411 0.86764 0.12912 0.0
C410 C 0.89291 0.77465 -0.01208 0.0
C411 C 0.91019 0.76856 0.2659 0.0
C412 C 0.80099 0.75682 0.16193 0.0
O413 O 0.90307 0.86686 0.17242 0.0
C414 C 0.5471 0.25447 0.91616 0.0
C415 C 0.55338 0.23823 -0.03721 0.0
H416 H 0.54628 0.3063 0.87928 0.0
C417 C 0.56027 0.26082 0.00968 0.0
H418 H 0.54193 0.23774 0.87948 0.0
C419 C 0.56297 0.29989 0.00965 0.0
C420 C 0.55904 0.31735 -0.03735 0.0
H421 H 0.56485 0.24882 0.04636 0.0
H422 H 0.56923 0.31682 0.04633 0.0
C423 C 0.55007 0.29388 0.91604 0.0
C424 C 0.75398 0.26591 0.91612 0.0
C425 C 0.73058 0.25144 -0.03723 0.0
H426 H 0.81006 0.3139 0.87946 0.0
C427 C 0.7481 0.27288 0.00974 0.0
H428 H 0.74151 0.24965 0.87937 0.0
C429 C 0.78717 0.30927 0.0097 0.0
C430 C 0.80969 0.32494 -0.03722 0.0
H431 H 0.73122 0.26223 0.04645 0.0
H432 H 0.79922 0.3259 0.04637 0.0
C433 C 0.79339 0.30236 0.91616 0.0
C434 C 0.73884 0.48797 0.00953 0.0
C435 C 0.72314 0.49473 -0.03742 0.0
H436 H 0.78588 0.47912 0.0463 0.0
C437 C 0.74567 0.5009 0.91596 0.0
H438 H 0.72226 0.48348 0.0462 0.0
C439 C 0.7821 0.49794 0.91592 0.0
C440 C 0.79659 0.48909 -0.03741 0.0
H441 H 0.73411 0.50597 0.87924 0.0
H442 H 0.79832 0.50163 0.87917 0.0
C443 C 0.77521 0.48528 0.00957 0.0
C444 C 0.74811 0.48509 0.50962 0.0
C445 C 0.73062 0.48897 0.46262 0.0
H446 H 0.7992 0.48325 0.54633 0.0
C447 C 0.75406 0.49791 0.41601 0.0
H448 H 0.7312 0.47886 0.54631 0.0
C449 C 0.79347 0.50089 0.41611 0.0
C450 C 0.80974 0.49465 0.46275 0.0
H451 H 0.74161 0.50167 0.37924 0.0
H452 H 0.81017 0.50604 0.37943 0.0
C453 C 0.78718 0.4878 0.50965 0.0
C454 C 0.55001 0.26583 0.41598 0.0
C455 C 0.55887 0.25135 0.46266 0.0
H456 H 0.54198 0.31382 0.37928 0.0
C457 C 0.56268 0.27275 0.50964 0.0
H458 H 0.5463 0.24959 0.37923 0.0
C459 C 0.56 0.30913 0.50958 0.0
C460 C 0.55324 0.32481 0.46262 0.0
H461 H 0.56885 0.2621 0.54637 0.0
H462 H 0.5645 0.32573 0.54624 0.0
C463 C 0.54705 0.30227 0.416 0.0
C464 C 0.74554 0.25453 0.41626 0.0
C465 C 0.72297 0.23828 0.46288 0.0
H466 H 0.79825 0.30638 0.37944 0.0
C467 C 0.73863 0.26085 0.50978 0.0
H468 H 0.73401 0.23781 0.37958 0.0
C469 C 0.77502 0.29992 0.50979 0.0
C470 C 0.79646 0.3174 0.46281 0.0
H471 H 0.72201 0.24884 0.54645 0.0
H472 H 0.78567 0.31684 0.54648 0.0
C473 C 0.782 0.29394 0.41619 0.0
C474 C 0.21683 0.62732 0.24946 0.0
C475 C 0.22584 0.65079 0.29606 0.0
H476 H 0.20864 0.57117 0.21287 0.0
C477 C 0.22981 0.63334 0.34304 0.0
H478 H 0.21301 0.63974 0.2127 0.0
C479 C 0.2271 0.59426 0.34306 0.0
C480 C 0.22016 0.57166 0.29617 0.0
H481 H 0.23611 0.65027 0.37972 0.0
H482 H 0.23171 0.58227 0.37972 0.0
C483 C 0.21384 0.5879 0.24955 0.0
C484 C 0.4601 0.63575 0.24944 0.0
C485 C 0.47639 0.65833 0.29605 0.0
H486 H 0.40823 0.58301 0.21266 0.0
C487 C 0.45388 0.64267 0.34298 0.0
H488 H 0.47678 0.64729 0.21274 0.0
C489 C 0.41482 0.60626 0.34302 0.0
C490 C 0.3973 0.58481 0.29605 0.0
H491 H 0.46592 0.65929 0.37964 0.0
H492 H 0.39794 0.59561 0.37973 0.0
C493 C 0.4207 0.59928 0.2494 0.0
C494 C 0.44199 0.81879 0.3429 0.0
C495 C 0.46333 0.82254 0.2959 0.0
H496 H 0.38908 0.81704 0.37958 0.0
C497 C 0.4488 0.83135 0.24923 0.0
H498 H 0.45269 0.81266 0.37963 0.0
C499 C 0.41237 0.83432 0.24929 0.0
C500 C 0.38989 0.8282 0.29594 0.0
H501 H 0.46498 0.835 0.21246 0.0
H502 H 0.40078 0.83935 0.21258 0.0
C503 C 0.40563 0.82149 0.34289 0.0
C504 C 0.45374 0.82098 0.84303 0.0
C505 C 0.47631 0.82788 0.79614 0.0
H506 H 0.39775 0.81199 0.87972 0.0
C507 C 0.46004 0.83415 0.74952 0.0
H508 H 0.46576 0.8164 0.87971 0.0
C509 C 0.42063 0.83116 0.74943 0.0
C510 C 0.39718 0.82218 0.79605 0.0
H511 H 0.47676 0.83934 0.71283 0.0
H512 H 0.40819 0.83495 0.71268 0.0
C513 C 0.41467 0.81826 0.84303 0.0
C514 C 0.22919 0.60599 0.84297 0.0
C515 C 0.22541 0.58462 0.79598 0.0
H516 H 0.23097 0.65893 0.87962 0.0
C517 C 0.21659 0.59913 0.7493 0.0
H518 H 0.23533 0.5953 0.8797 0.0
C519 C 0.21363 0.63557 0.74935 0.0
C520 C 0.21978 0.65808 0.79598 0.0
H521 H 0.21292 0.58293 0.71254 0.0
H522 H 0.20859 0.64715 0.71263 0.0
C523 C 0.2265 0.64236 0.84294 0.0
C524 C 0.41215 0.58782 0.74955 0.0
C525 C 0.38957 0.57158 0.79616 0.0
H526 H 0.46488 0.63966 0.71273 0.0
C527 C 0.40523 0.59415 0.84306 0.0
H528 H 0.40062 0.5711 0.71287 0.0
C529 C 0.44163 0.63321 0.84308 0.0
C530 C 0.46308 0.65068 0.7961 0.0
H531 H 0.3886 0.58214 0.87973 0.0
H532 H 0.45227 0.65013 0.87977 0.0
C533 C 0.44862 0.62723 0.74948 0.0
C534 C 0.89628 0.96655 0.67635 0.0
C535 C 0.89234 0.98401 0.62936 0.0
H536 H 0.89819 0.91549 0.71304 0.0
C537 C 0.88337 0.96055 0.58275 0.0
H538 H 0.90255 0.98348 0.71303 0.0
C539 C 0.88041 0.92114 0.58285 0.0
C540 C 0.88671 0.9049 0.62948 0.0
H541 H 0.87957 0.97297 0.54599 0.0
H542 H 0.87523 0.90441 0.54617 0.0
C543 C 0.8936 0.92748 0.67637 0.0
C544 C 0.12053 0.9759 0.67636 0.0
C545 C 0.14304 0.99158 0.62943 0.0
H546 H 0.06458 0.92886 0.71311 0.0
C547 C 0.12672 0.96901 0.58281 0.0
H548 H 0.13259 0.99251 0.71303 0.0
C549 C 0.08731 0.93256 0.58277 0.0
C550 C 0.06392 0.91808 0.62942 0.0
H551 H 0.14339 0.98056 0.54611 0.0
H552 H 0.07483 0.91631 0.54601 0.0
C553 C 0.08146 0.93951 0.6764 0.0
C554 C 0.07898 0.16756 0.58272 0.0
C555 C 0.05643 0.16134 0.62934 0.0
H556 H 0.13164 0.16833 0.54591 0.0
C557 C 0.07211 0.15452 0.67627 0.0
H558 H 0.06743 0.17268 0.54602 0.0
C559 C 0.10847 0.15182 0.6763 0.0
C560 C 0.12988 0.15569 0.62932 0.0
H561 H 0.05551 0.14999 0.71294 0.0
H562 H 0.11912 0.14561 0.71301 0.0
C563 C 0.11541 0.16459 0.58267 0.0
C564 C 0.12679 0.16756 0.08272 0.0
C565 C 0.14307 0.16132 0.12935 0.0
H566 H 0.07494 0.16836 0.04586 0.0
C567 C 0.12053 0.15449 0.17626 0.0
H568 H 0.14349 0.17269 0.04603 0.0
C569 C 0.08147 0.15181 0.17625 0.0
C570 C 0.06397 0.15569 0.12925 0.0
H571 H 0.13255 0.14994 0.21294 0.0
H572 H 0.06457 0.14559 0.21294 0.0
C573 C 0.0874 0.1646 0.08263 0.0
C574 C 0.89611 0.93948 0.17627 0.0
C575 C 0.89225 0.91806 0.1293 0.0
H576 H 0.89796 0.99247 0.21289 0.0
C577 C 0.88336 0.93254 0.08263 0.0
H578 H 0.9023 0.92883 0.21299 0.0
C579 C 0.88041 0.96898 0.08267 0.0
C580 C 0.88664 0.99154 0.12928 0.0
H581 H 0.87963 0.91629 0.04588 0.0
H582 H 0.87531 0.98052 0.04595 0.0
C583 C 0.89343 0.97587 0.17623 0.0
C584 C 0.1084 0.96655 0.17636 0.0
C585 C 0.12982 0.98404 0.12938 0.0
H586 H 0.0554 0.91545 0.21303 0.0
C587 C 0.11533 0.96061 0.08275 0.0
H588 H 0.11906 0.98345 0.21306 0.0
C589 C 0.07887 0.9212 0.08281 0.0
C590 C 0.05632 0.90493 0.12944 0.0
H591 H 0.13157 0.97307 0.04599 0.0
H592 H 0.06732 0.9045 0.04612 0.0
C593 C 0.072 0.92747 0.17635 0.0
C594 C 0.53742 0.12087 0.23474 0.0
C595 C 0.55355 0.10019 0.26475 0.0
H596 H 0.52834 0.13779 0.15753 0.0
C597 C 0.56734 0.07525 0.23972 0.0
H598 H 0.52679 0.14041 0.25327 0.0
C599 C 0.56686 0.07266 0.18513 0.0
C600 C 0.55372 0.09594 0.15523 0.0
H601 H 0.57972 0.05891 0.26228 0.0
H602 H 0.57947 0.05492 0.1663 0.0
C603 C 0.53821 0.11935 0.18022 0.0
C604 C 0.97268 0.50184 0.2397 0.0
C605 C 0.94762 0.46311 0.26469 0.0
H606 H 0.99311 0.53431 0.16633 0.0
C607 C 0.92683 0.42631 0.23464 0.0
H608 H 0.98911 0.53055 0.2623 0.0
C609 C 0.92835 0.42863 0.18012 0.0
C610 C 0.95188 0.46755 0.15518 0.0
H611 H 0.90719 0.39614 0.25314 0.0
H612 H 0.90982 0.40032 0.1574 0.0
C613 C 0.97527 0.50395 0.18512 0.0
C614 C 0.62171 0.51051 0.2345 0.0
C615 C 0.58489 0.49435 0.26452 0.0
H616 H 0.64774 0.51966 0.15728 0.0
C617 C 0.54616 0.48058 0.23951 0.0
H618 H 0.65188 0.52113 0.25302 0.0
C619 C 0.54407 0.48111 0.18492 0.0
C620 C 0.5805 0.49428 0.15501 0.0
H621 H 0.51743 0.46818 0.26207 0.0
H622 H 0.51371 0.46851 0.1661 0.0
C623 C 0.61941 0.50977 0.17998 0.0
C624 C 0.92715 0.51062 0.73469 0.0
C625 C 0.94777 0.49444 0.7647 0.0
H626 H 0.91027 0.51977 0.65748 0.0
C627 C 0.97268 0.48062 0.73966 0.0
H628 H 0.90763 0.52128 0.75322 0.0
C629 C 0.97528 0.48112 0.68508 0.0
C630 C 0.95205 0.49431 0.65518 0.0
H631 H 0.98898 0.4682 0.76222 0.0
H632 H 0.993 0.46848 0.66625 0.0
C633 C 0.92868 0.50985 0.68017 0.0
C634 C 0.53825 0.42854 0.67996 0.0
C635 C 0.5537 0.46745 0.65501 0.0
H636 H 0.52691 0.39605 0.75297 0.0
C637 C 0.56681 0.50388 0.68494 0.0
H638 H 0.5284 0.40022 0.65724 0.0
C639 C 0.56733 0.50177 0.73953 0.0
C640 C 0.5536 0.46304 0.76452 0.0
H641 H 0.57938 0.53423 0.66614 0.0
H642 H 0.57969 0.5305 0.76211 0.0
C643 C 0.53749 0.42623 0.73448 0.0
C644 C 0.6216 0.121 0.7347 0.0
C645 C 0.5848 0.10024 0.76475 0.0
H646 H 0.64759 0.13801 0.65747 0.0
C647 C 0.54607 0.07522 0.73974 0.0
H648 H 0.65177 0.14061 0.75321 0.0
C649 C 0.54395 0.07264 0.68515 0.0
C650 C 0.58036 0.09601 0.65523 0.0
H651 H 0.51736 0.0588 0.76232 0.0
H652 H 0.51359 0.05483 0.66635 0.0
C653 C 0.61927 0.11949 0.68018 0.0
C654 C 0.23351 0.406 0.5184 0.0
C655 C 0.22039 0.42929 0.4885 0.0
H656 H 0.24633 0.39222 0.59556 0.0
C657 C 0.20489 0.4527 0.51348 0.0
H658 H 0.24612 0.38825 0.49958 0.0
C659 C 0.20407 0.4542 0.568 0.0
C660 C 0.22018 0.43351 0.59802 0.0
H661 H 0.19503 0.47116 0.49078 0.0
H662 H 0.19344 0.47375 0.58652 0.0
C663 C 0.23397 0.40857 0.57299 0.0
C664 C 0.64189 0.83731 0.51843 0.0
C665 C 0.61853 0.8009 0.48847 0.0
H666 H 0.65568 0.86389 0.59562 0.0
C667 C 0.59502 0.76198 0.5134 0.0
H668 H 0.65972 0.86767 0.49964 0.0
C669 C 0.59347 0.75964 0.56792 0.0
C670 C 0.61423 0.79644 0.59798 0.0
H671 H 0.57651 0.73367 0.49066 0.0
H672 H 0.57384 0.72947 0.5864 0.0
C673 C 0.63927 0.83518 0.57301 0.0
C674 C 0.28838 0.84386 0.56798 0.0
C675 C 0.25156 0.82771 0.59798 0.0
H676 H 0.31444 0.85301 0.49077 0.0
C677 C 0.21284 0.81397 0.57294 0.0
H678 H 0.31855 0.85445 0.58651 0.0
C679 C 0.21077 0.81452 0.51836 0.0
C680 C 0.24721 0.82767 0.48846 0.0
H681 H 0.1841 0.80159 0.5955 0.0
H682 H 0.18042 0.80194 0.49952 0.0
C683 C 0.2861 0.84313 0.51346 0.0
C684 C 0.64195 0.81445 0.01835 0.0
C685 C 0.61871 0.82763 -0.01155 0.0
H686 H 0.65567 0.80155 0.0955 0.0
C687 C 0.59536 0.84319 0.01344 0.0
H688 H 0.65966 0.8018 -0.00048 0.0
C689 C 0.59384 0.84398 0.06796 0.0
C690 C 0.61446 0.8278 0.09797 0.0
H691 H 0.57694 0.8531 -0.00926 0.0
H692 H 0.57433 0.85465 0.08649 0.0
C693 C 0.63936 0.81397 0.07294 0.0
C694 C 0.20488 0.76186 0.01343 0.0
C695 C 0.22031 0.80077 -0.01154 0.0
H696 H 0.19357 0.72941 0.08647 0.0
C697 C 0.23343 0.8372 0.01838 0.0
H698 H 0.19503 0.73353 -0.00927 0.0
C699 C 0.23396 0.83511 0.07296 0.0
C700 C 0.22025 0.7964 0.09798 0.0
H701 H 0.24598 0.86755 -0.00044 0.0
H702 H 0.24631 0.86385 0.09553 0.0
C703 C 0.20414 0.75957 0.06795 0.0
C704 C 0.28591 0.45281 0.01345 0.0
C705 C 0.24698 0.42934 -0.01148 0.0
H706 H 0.31843 0.47394 0.08646 0.0
C707 C 0.21058 0.40601 0.01846 0.0
H708 H 0.31422 0.4713 -0.00928 0.0
C709 C 0.21271 0.40861 0.07304 0.0
C710 C 0.25146 0.43362 0.09803 0.0
H711 H 0.18021 0.38821 -0.00034 0.0
H712 H 0.184 0.39223 0.09564 0.0
C713 C 0.28825 0.45435 0.06797 0.0
C714 C 0.87152 0.78601 0.84683 0.0
C715 C 0.887 0.76259 0.82186 0.0
H716 H 0.86011 0.80709 0.91988 0.0
C717 C 0.90012 0.73929 0.85176 0.0
H718 H 0.86166 0.80447 0.82414 0.0
C719 C 0.9006 0.74188 0.90635 0.0
C720 C 0.88683 0.76684 0.93137 0.0
H721 H 0.91271 0.72154 0.83293 0.0
H722 H 0.91296 0.72553 0.92891 0.0
C723 C 0.87072 0.78753 0.90136 0.0
C724 C 0.26175 0.0953 0.84675 0.0
C725 C 0.28525 0.13422 0.82181 0.0
H726 H 0.24062 0.0628 0.91977 0.0
C727 C 0.30862 0.17063 0.85175 0.0
H728 H 0.24324 0.06698 0.82403 0.0
C729 C 0.30603 0.16851 0.90633 0.0
C730 C 0.281 0.12978 0.93133 0.0
H731 H 0.32644 0.20099 0.83295 0.0
H732 H 0.32245 0.19723 0.92893 0.0
C733 C 0.26024 0.09298 0.90127 0.0
C734 C 0.9527 0.17647 0.84667 0.0
C735 C 0.91378 0.16096 0.82171 0.0
H736 H 0.98519 0.18787 0.91969 0.0
C737 C 0.87735 0.14777 0.85164 0.0
H738 H 0.98102 0.18638 0.82396 0.0
C739 C 0.87946 0.14726 0.90622 0.0
C740 C 0.9182 0.16105 0.93123 0.0
H741 H 0.84699 0.13516 0.83283 0.0
H742 H 0.85073 0.13485 0.9288 0.0
C743 C 0.95501 0.17723 0.90119 0.0
C744 C 0.2619 0.17644 0.3468 0.0
C745 C 0.28532 0.16096 0.32181 0.0
H746 H 0.2408 0.18782 0.41985 0.0
C747 C 0.3086 0.14782 0.35171 0.0
H748 H 0.24345 0.18631 0.32411 0.0
C749 C 0.30599 0.14732 0.4063 0.0
C750 C 0.28103 0.16108 0.43133 0.0
H751 H 0.32635 0.13524 0.33288 0.0
H752 H 0.32233 0.13494 0.42885 0.0
C753 C 0.26036 0.17721 0.40132 0.0
C754 C 0.87164 0.09524 0.34665 0.0
C755 C 0.88709 0.13416 0.32172 0.0
H756 H 0.8603 0.06275 0.41967 0.0
C757 C 0.90019 0.17057 0.35166 0.0
H758 H 0.8618 0.06692 0.32393 0.0
C759 C 0.9007 0.16846 0.40624 0.0
C760 C 0.88698 0.12973 0.43123 0.0
H761 H 0.91275 0.20093 0.33286 0.0
H762 H 0.91304 0.19718 0.42883 0.0
C763 C 0.87088 0.09292 0.40117 0.0
C764 C 0.95262 0.78622 0.34682 0.0
C765 C 0.91371 0.76272 0.32186 0.0
H766 H 0.98511 0.80734 0.41985 0.0
C767 C 0.8773 0.73934 0.35178 0.0
H768 H 0.98093 0.80474 0.32411 0.0
C769 C 0.87942 0.74192 0.40637 0.0
C770 C 0.91814 0.76695 0.43138 0.0
H771 H 0.84695 0.72151 0.33297 0.0
H772 H 0.8507 0.72549 0.42895 0.0
C773 C 0.95494 0.78772 0.40134 0.0
C774 C 0.39966 0.936 0.8625 0.0
C775 C 0.365 0.94284 0.86062 0.0
H776 H 0.46244 0.9569 0.88949 0.0
C777 C 0.36756 0.97626 0.89005 0.0
H778 H 0.3988 0.90999 0.84146 0.0
C779 C 0.40471 1.00349 0.91761 0.0
C780 C 0.4398 0.99731 0.91785 0.0
H781 H 0.34157 0.98224 0.89033 0.0
H782 H 0.40639 0.0302 0.93781 0.0
C783 C 0.43621 0.9625 0.89092 0.0
C784 C 0.04432 0.41096 0.91763 0.0
C785 C 0.05052 0.45225 0.91783 0.0
H786 H 0.06552 0.36902 0.89039 0.0
C787 C 0.08532 0.48345 0.89085 0.0
H788 H 1.01762 0.38595 0.93786 0.0
C789 C 0.11178 0.47336 0.86244 0.0
C790 C 0.10492 0.43185 0.86061 0.0
H791 H 0.09092 0.51529 0.88939 0.0
H792 H 0.13777 0.49849 0.84137 0.0
C793 C 0.07151 0.401 0.89008 0.0
C794 C 0.57452 0.64821 0.86231 0.0
C795 C 0.61602 0.68291 0.8604 0.0
H796 H 0.53266 0.58541 0.8893 0.0
C797 C 0.64692 0.68038 0.88976 0.0
H798 H 0.54935 0.64905 0.84132 0.0
C799 C 0.63702 0.64324 0.91728 0.0
C800 C 0.59574 0.60812 0.91756 0.0
H801 H 0.67889 0.7064 0.89001 0.0
H802 H 0.66207 0.64159 0.93743 0.0
C803 C 0.56449 0.61167 0.8907 0.0
C804 C 0.08543 0.61173 0.39085 0.0
C805 C 0.05063 0.60816 0.41776 0.0
H806 H 0.13794 0.64912 0.34142 0.0
C807 C 0.04447 0.64327 0.41752 0.0
H808 H 0.091 0.58548 0.38943 0.0
C809 C 0.07171 0.68042 0.38997 0.0
C810 C 0.10513 0.68295 0.36056 0.0
H811 H 1.01777 0.64161 0.4377 0.0
H812 H 0.06576 0.70642 0.39024 0.0
C813 C 0.11194 0.64827 0.36244 0.0
C814 C 0.43628 0.48344 0.39074 0.0
C815 C 0.43984 0.4522 0.4176 0.0
H816 H 0.39888 0.49856 0.34138 0.0
C817 C 0.40473 0.41091 0.41733 0.0
H818 H 0.46253 0.51528 0.38934 0.0
C819 C 0.36758 0.401 0.38981 0.0
C820 C 0.36504 0.43189 0.36045 0.0
H821 H 0.4064 0.38586 0.43747 0.0
H822 H 0.34157 0.36902 0.39006 0.0
C823 C 0.39973 0.4734 0.36236 0.0
C824 C 0.57458 0.93616 0.36242 0.0
C825 C 0.61608 0.943 0.36062 0.0
H826 H 0.53266 0.95701 0.38935 0.0
C827 C 0.64691 0.9764 0.39015 0.0
H828 H 0.54946 0.91017 0.3413 0.0
C829 C 0.63695 1.00359 0.41771 0.0
C830 C 0.59567 0.99739 0.41787 0.0
H831 H 0.67888 0.98238 0.39049 0.0
H832 H 0.66195 0.03027 0.43798 0.0
C833 C 0.56449 0.96261 0.39084 0.0
C834 C 0.10294 0.29596 0.22408 0.0
C835 C 0.10651 0.33073 0.25108 0.0
H836 H 0.06554 0.24348 0.17457 0.0
C837 C 0.07141 0.3369 0.25089 0.0
H838 H 0.12918 0.29038 0.22263 0.0
C839 C 0.03426 0.30967 0.22332 0.0
C840 C 0.03172 0.27628 0.19383 0.0
H841 H 0.07307 0.36358 0.27113 0.0
H842 H 1.00826 0.31563 0.22363 0.0
C843 C 0.0664 0.26947 0.19565 0.0
C844 C 0.75207 0.81685 0.22425 0.0
C845 C 0.71724 0.78563 0.25116 0.0
H846 H 0.80456 0.83191 0.17483 0.0
C847 C 0.71101 0.74433 0.25092 0.0
H848 H 0.75769 0.84869 0.22283 0.0
C849 C 0.73822 0.73439 0.22339 0.0
C850 C 0.77167 0.76525 0.19398 0.0
H851 H 0.68429 0.71931 0.2711 0.0
H852 H 0.73221 0.7024 0.22366 0.0
C853 C 0.77854 0.80677 0.19586 0.0
C854 C 0.23119 0.94505 0.22412 0.0
C855 C 0.26243 0.94151 0.25103 0.0
H856 H 0.21606 0.98242 0.17472 0.0
C857 C 0.30371 0.97664 0.25077 0.0
H858 H 0.19936 0.91879 0.22272 0.0
C859 C 0.31361 1.01378 0.22323 0.0
C860 C 0.28271 1.01629 0.19384 0.0
H861 H 0.32875 0.97499 0.27094 0.0
H862 H 0.34558 0.0398 0.2235 0.0
C863 C 0.24122 0.98159 0.19573 0.0
C864 C 0.7383 1.01371 0.72321 0.0
C865 C 0.77168 1.01623 0.69374 0.0
H866 H 0.68439 0.97492 0.771 0.0
C867 C 0.77847 0.98153 0.69557 0.0
H868 H 0.73236 0.03973 0.72352 0.0
C869 C 0.75197 0.94499 0.72399 0.0
C870 C 0.7172 0.94145 0.75098 0.0
H871 H 0.80444 0.98236 0.6745 0.0
H872 H 0.75752 0.91873 0.72254 0.0
C873 C 0.71106 0.97657 0.75077 0.0
C874 C 0.06636 0.80672 0.69576 0.0
C875 C 0.03167 0.76521 0.69387 0.0
H876 H 0.12916 0.8486 0.72274 0.0
C877 C 0.0342 0.73433 0.72325 0.0
H878 H 0.06552 0.83188 0.67475 0.0
C879 C 0.07135 0.74424 0.75078 0.0
C880 C 0.10647 0.78553 0.75104 0.0
H881 H 1.00819 0.70235 0.72352 0.0
H882 H 0.07301 0.7192 0.77095 0.0
C883 C 0.1029 0.81676 0.72415 0.0
C884 C 0.31352 0.3097 0.72342 0.0
C885 C 0.28267 0.27626 0.69396 0.0
H886 H 0.32858 0.36361 0.77118 0.0
C887 C 0.24116 0.2694 0.6958 0.0
H888 H 0.3455 0.31569 0.72372 0.0
C889 C 0.23108 0.29587 0.72421 0.0
C890 C 0.26228 0.33068 0.75117 0.0
H891 H 0.21603 0.24339 0.67474 0.0
H892 H 0.19924 0.29026 0.72276 0.0
C893 C 0.30357 0.3369 0.75097 0.0
C894 C 0.7009 0.64294 0.55665 0.0
C895 C 0.69837 0.60955 0.52715 0.0
H896 H 0.7397 0.69683 0.60449 0.0
C897 C 0.73305 0.60275 0.52897 0.0
H898 H 0.67489 0.64888 0.55697 0.0
C899 C 0.76959 0.62923 0.55741 0.0
C900 C 0.77315 0.664 0.58442 0.0
H901 H 0.73221 0.57677 0.50787 0.0
H902 H 0.79584 0.62367 0.55594 0.0
C903 C 0.73804 0.67015 0.58423 0.0
C904 C 0.41869 0.15014 0.55754 0.0
C905 C 0.38387 0.11893 0.58447 0.0
H906 H 0.47118 0.1652 0.50812 0.0
C907 C 0.37766 0.07764 0.58425 0.0
H908 H 0.4243 0.18198 0.5561 0.0
C909 C 0.40487 0.06769 0.55673 0.0
C910 C 0.43831 0.09855 0.5273 0.0
H911 H 0.35095 0.05262 0.60445 0.0
H912 H 0.39888 0.03571 0.55702 0.0
C913 C 0.44517 0.14007 0.52915 0.0
C914 C 0.98026 0.34706 0.5565 0.0
C915 C 0.94936 0.34959 0.52714 0.0
H916 H 0.9954 0.30825 0.60417 0.0
C917 C 0.90786 0.31489 0.52903 0.0
H918 H 1.01223 0.37307 0.55676 0.0
C919 C 0.89783 0.27835 0.55741 0.0
C920 C 0.92907 0.27479 0.58429 0.0
H921 H 0.8827 0.31574 0.50804 0.0
H922 H 0.866 0.25209 0.55601 0.0
C923 C 0.97036 0.30991 0.58402 0.0
C924 C 0.41871 0.27837 0.05739 0.0
C925 C 0.38394 0.27482 0.08436 0.0
H926 H 0.47118 0.31573 0.0079 0.0
C927 C 0.37779 0.30994 0.08414 0.0
H928 H 0.42427 0.25211 0.05596 0.0
C929 C 0.40502 0.34707 0.05657 0.0
C930 C 0.43841 0.34959 0.02711 0.0
H931 H 0.35112 0.30829 0.10437 0.0
H932 H 0.39908 0.37309 0.05686 0.0
C933 C 0.4452 0.3149 0.02896 0.0
C934 C 0.73808 0.07757 0.08406 0.0
C935 C 0.77317 0.11887 0.08435 0.0
H936 H 0.67492 0.03567 0.05678 0.0
C937 C 0.76958 0.15011 0.05751 0.0
H938 H 0.73976 0.05253 0.10418 0.0
C939 C 0.73303 0.14007 0.02914 0.0
C940 C 0.69836 0.09855 0.02722 0.0
H941 H 0.79582 0.18196 0.05614 0.0
H942 H 0.73216 0.16523 0.00818 0.0
C943 C 0.70092 0.06765 0.05655 0.0
C944 C 0.98023 0.64306 0.05678 0.0
C945 C 0.94938 0.60962 0.02733 0.0
H946 H 0.9953 0.69698 0.10453 0.0
C947 C 0.90787 0.60275 0.02918 0.0
H948 H 1.01221 0.64905 0.05707 0.0
C949 C 0.89779 0.62923 0.05758 0.0
C950 C 0.92899 0.66405 0.08453 0.0
H951 H 0.88274 0.57674 0.00813 0.0
H952 H 0.86595 0.62361 0.05613 0.0
C953 C 0.97028 0.67026 0.08432 0.0
loop_
_geom_bond_atom_site_label_1
_geom_bond_atom_site_label_2
_geom_bond_distance
_geom_bond_site_symmetry_2
_ccdc_geom_bond_type
O0 Zn1 1.953 . S
O0 C16 1.225 1_556 S
Zn1 O0 1.953 . S
Zn1 O2 1.949 1_556 S
Zn1 O8 1.919 . S
Zn1 O13 1.924 . S
O2 Zn1 1.949 1_554 S
O2 Zn3 1.923 1_554 S
O2 Zn4 1.950 . S
O2 Zn5 1.945 . S
Zn3 O2 1.923 1_556 S
Zn3 O6 1.933 . S
Zn3 O9 1.941 . S
Zn3 O10 1.965 . S
Zn4 O2 1.950 . S
Zn4 O11 1.938 . S
Zn4 O12 1.906 . S
Zn4 O22 1.953 . S
Zn5 O2 1.945 . S
Zn5 O7 1.932 . S
Zn5 O14 1.977 . S
Zn5 O15 1.910 . S
O6 Zn3 1.933 . S
O6 C17 1.226 . S
O7 Zn5 1.932 . S
O7 C17 1.307 1_554 S
O8 Zn1 1.919 . S
O8 C19 1.253 . S
O9 Zn3 1.941 . S
O9 C19 1.283 . S
O10 Zn3 1.965 . S
O10 C18 1.303 1_556 S
O11 Zn4 1.938 . S
O11 C18 1.247 . S
O12 Zn4 1.906 . S
O12 C20 1.304 . S
O13 Zn1 1.924 . S
O13 C21 1.311 1_556 S
O14 Zn5 1.977 . S
O14 C20 1.272 . S
O15 Zn5 1.910 . S
O15 C21 1.231 . S
C16 O0 1.225 1_554 S
C16 O22 1.298 . S
C17 O6 1.226 . S
C17 O7 1.307 1_556 S
C18 O10 1.303 1_554 S
C18 O11 1.247 . S
C19 O8 1.253 . S
C19 O9 1.283 . S
C20 O12 1.304 . S
C20 O14 1.272 . S
C21 O13 1.311 1_554 S
C21 O15 1.231 . S
O22 Zn4 1.953 . S
O22 C16 1.298 . S
O23 Zn24 1.953 . S
O23 C39 1.225 1_556 S
Zn24 O23 1.953 . S
Zn24 O25 1.949 1_556 S
Zn24 O31 1.919 . S
Zn24 O36 1.924 . S
O25 Zn24 1.949 1_554 S
O25 Zn26 1.923 1_554 S
O25 Zn27 1.950 . S
O25 Zn28 1.945 . S
Zn26 O25 1.923 1_556 S
Zn26 O29 1.933 . S
Zn26 O32 1.941 . S
Zn26 O33 1.965 . S
Zn27 O25 1.950 . S
Zn27 O34 1.938 . S
Zn27 O35 1.906 . S
Zn27 O45 1.953 . S
Zn28 O25 1.945 . S
Zn28 O30 1.932 . S
Zn28 O37 1.977 . S
Zn28 O38 1.910 . S
O29 Zn26 1.933 . S
O29 C40 1.226 . S
O30 Zn28 1.932 . S
O30 C40 1.307 1_554 S
O31 Zn24 1.919 . S
O31 C42 1.253 . S
O32 Zn26 1.941 . S
O32 C42 1.283 . S
O33 Zn26 1.965 . S
O33 C41 1.303 1_556 S
O34 Zn27 1.938 . S
O34 C41 1.247 . S
O35 Zn27 1.906 . S
O35 C43 1.304 . S
O36 Zn24 1.924 . S
O36 C44 1.311 1_556 S
O37 Zn28 1.977 . S
O37 C43 1.272 . S
O38 Zn28 1.910 . S
O38 C44 1.231 . S
C39 O23 1.225 1_554 S
C39 O45 1.298 . S
C40 O29 1.226 . S
C40 O30 1.307 1_556 S
C41 O33 1.303 1_554 S
C41 O34 1.247 . S
C42 O31 1.253 . S
C42 O32 1.283 . S
C43 O35 1.304 . S
C43 O37 1.272 . S
C44 O36 1.311 1_554 S
C44 O38 1.231 . S
O45 Zn27 1.953 . S
O45 C39 1.298 . S
O46 Zn47 1.953 . S
O46 C62 1.225 1_556 S
Zn47 O46 1.953 . S
Zn47 O48 1.949 1_556 S
Zn47 O54 1.919 . S
Zn47 O59 1.924 . S
O48 Zn47 1.949 1_554 S
O48 Zn49 1.923 1_554 S
O48 Zn50 1.950 . S
O48 Zn51 1.945 . S
Zn49 O48 1.923 1_556 S
Zn49 O52 1.933 . S
Zn49 O55 1.941 . S
Zn49 O56 1.965 . S
Zn50 O48 1.950 . S
Zn50 O57 1.938 . S
Zn50 O58 1.906 . S
Zn50 O68 1.953 . S
Zn51 O48 1.945 . S
Zn51 O53 1.932 . S
Zn51 O60 1.977 . S
Zn51 O61 1.910 . S
O52 Zn49 1.933 . S
O52 C63 1.226 . S
O53 Zn51 1.932 . S
O53 C63 1.307 1_554 S
O54 Zn47 1.919 . S
O54 C65 1.253 . S
O55 Zn49 1.941 . S
O55 C65 1.283 . S
O56 Zn49 1.965 . S
O56 C64 1.303 1_556 S
O57 Zn50 1.938 . S
O57 C64 1.247 . S
O58 Zn50 1.906 . S
O58 C66 1.304 . S
O59 Zn47 1.924 . S
O59 C67 1.311 1_556 S
O60 Zn51 1.977 . S
O60 C66 1.272 . S
O61 Zn51 1.910 . S
O61 C67 1.231 . S
C62 O46 1.225 1_554 S
C62 O68 1.298 . S
C63 O52 1.226 . S
C63 O53 1.307 1_556 S
C64 O56 1.303 1_554 S
C64 O57 1.247 . S
C65 O54 1.253 . S
C65 O55 1.283 . S
C66 O58 1.304 . S
C66 O60 1.272 . S
C67 O59 1.311 1_554 S
C67 O61 1.231 . S
O68 Zn50 1.953 . S
O68 C62 1.298 . S
O69 Zn70 1.953 . S
O69 C85 1.225 . S
Zn70 O69 1.953 . S
Zn70 O71 1.949 . S
Zn70 O77 1.919 . S
Zn70 O82 1.924 . S
O71 Zn70 1.949 . S
O71 Zn72 1.923 . S
O71 Zn73 1.950 . S
O71 Zn74 1.945 . S
Zn72 O71 1.923 . S
Zn72 O75 1.933 . S
Zn72 O78 1.941 . S
Zn72 O79 1.965 . S
Zn73 O71 1.950 . S
Zn73 O80 1.938 . S
Zn73 O81 1.906 . S
Zn73 O91 1.953 . S
Zn74 O71 1.945 . S
Zn74 O76 1.932 . S
Zn74 O83 1.977 . S
Zn74 O84 1.910 . S
O75 Zn72 1.933 . S
O75 C86 1.226 . S
O76 Zn74 1.932 . S
O76 C86 1.307 . S
O77 Zn70 1.919 . S
O77 C88 1.253 . S
O78 Zn72 1.941 . S
O78 C88 1.283 . S
O79 Zn72 1.965 . S
O79 C87 1.303 . S
O80 Zn73 1.938 . S
O80 C87 1.247 . S
O81 Zn73 1.906 . S
O81 C89 1.304 . S
O82 Zn70 1.924 . S
O82 C90 1.311 . S
O83 Zn74 1.977 . S
O83 C89 1.272 . S
O84 Zn74 1.910 . S
O84 C90 1.231 . S
C85 O69 1.225 . S
C85 O91 1.298 . S
C86 O75 1.226 . S
C86 O76 1.307 . S
C87 O79 1.303 . S
C87 O80 1.247 . S
C88 O77 1.253 . S
C88 O78 1.283 . S
C89 O81 1.304 . S
C89 O83 1.272 . S
C90 O82 1.311 . S
C90 O84 1.231 . S
O91 Zn73 1.953 . S
O91 C85 1.298 . S
O92 Zn93 1.953 . S
O92 C108 1.225 . S
Zn93 O92 1.953 . S
Zn93 O94 1.949 . S
Zn93 O100 1.919 . S
Zn93 O105 1.924 . S
O94 Zn93 1.949 . S
O94 Zn95 1.923 . S
O94 Zn96 1.950 . S
O94 Zn97 1.945 . S
Zn95 O94 1.923 . S
Zn95 O98 1.933 . S
Zn95 O101 1.941 . S
Zn95 O102 1.965 . S
Zn96 O94 1.950 . S
Zn96 O103 1.938 . S
Zn96 O104 1.906 . S
Zn96 O114 1.953 . S
Zn97 O94 1.945 . S
Zn97 O99 1.932 . S
Zn97 O106 1.977 . S
Zn97 O107 1.910 . S
O98 Zn95 1.933 . S
O98 C109 1.226 . S
O99 Zn97 1.932 . S
O99 C109 1.307 . S
O100 Zn93 1.919 . S
O100 C111 1.253 . S
O101 Zn95 1.941 . S
O101 C111 1.283 . S
O102 Zn95 1.965 . S
O102 C110 1.303 . S
O103 Zn96 1.938 . S
O103 C110 1.247 . S
O104 Zn96 1.906 . S
O104 C112 1.304 . S
O105 Zn93 1.924 . S
O105 C113 1.311 . S
O106 Zn97 1.977 . S
O106 C112 1.272 . S
O107 Zn97 1.910 . S
O107 C113 1.231 . S
C108 O92 1.225 . S
C108 O114 1.298 . S
C109 O98 1.226 . S
C109 O99 1.307 . S
C110 O102 1.303 . S
C110 O103 1.247 . S
C111 O100 1.253 . S
C111 O101 1.283 . S
C112 O104 1.304 . S
C112 O106 1.272 . S
C113 O105 1.311 . S
C113 O107 1.231 . S
O114 Zn96 1.953 . S
O114 C108 1.298 . S
O115 Zn116 1.953 . S
O115 C131 1.225 . S
Zn116 O115 1.953 . S
Zn116 O117 1.949 . S
Zn116 O123 1.919 . S
Zn116 O128 1.924 . S
O117 Zn116 1.949 . S
O117 Zn118 1.923 . S
O117 Zn119 1.950 . S
O117 Zn120 1.945 . S
Zn118 O117 1.923 . S
Zn118 O121 1.933 . S
Zn118 O124 1.941 . S
Zn118 O125 1.965 . S
Zn119 O117 1.950 . S
Zn119 O126 1.938 . S
Zn119 O127 1.906 . S
Zn119 O137 1.953 . S
Zn120 O117 1.945 . S
Zn120 O122 1.932 . S
Zn120 O129 1.977 . S
Zn120 O130 1.910 . S
O121 Zn118 1.933 . S
O121 C132 1.226 . S
O122 Zn120 1.932 . S
O122 C132 1.307 . S
O123 Zn116 1.919 . S
O123 C134 1.253 . S
O124 Zn118 1.941 . S
O124 C134 1.283 . S
O125 Zn118 1.965 . S
O125 C133 1.303 . S
O126 Zn119 1.938 . S
O126 C133 1.247 . S
O127 Zn119 1.906 . S
O127 C135 1.304 . S
O128 Zn116 1.924 . S
O128 C136 1.311 . S
O129 Zn120 1.977 . S
O129 C135 1.272 . S
O130 Zn120 1.910 . S
O130 C136 1.231 . S
C131 O115 1.225 . S
C131 O137 1.298 . S
C132 O121 1.226 . S
C132 O122 1.307 . S
C133 O125 1.303 . S
C133 O126 1.247 . S
C134 O123 1.253 . S
C134 O124 1.283 . S
C135 O127 1.304 . S
C135 O129 1.272 . S
C136 O128 1.311 . S
C136 O130 1.231 . S
O137 Zn119 1.953 . S
O137 C131 1.298 . S
O138 Zn139 1.953 . S
O138 C154 1.225 . S
Zn139 O138 1.953 . S
Zn139 O140 1.949 . S
Zn139 O146 1.919 . S
Zn139 O151 1.924 . S
O140 Zn139 1.949 . S
O140 Zn141 1.923 . S
O140 Zn142 1.950 . S
O140 Zn143 1.945 . S
Zn141 O140 1.923 . S
Zn141 O144 1.933 . S
Zn141 O147 1.941 . S
Zn141 O148 1.965 . S
Zn142 O140 1.950 . S
Zn142 O149 1.938 . S
Zn142 O150 1.906 . S
Zn142 O160 1.953 . S
Zn143 O140 1.945 . S
Zn143 O145 1.932 . S
Zn143 O152 1.977 . S
Zn143 O153 1.910 . S
O144 Zn141 1.933 . S
O144 C155 1.226 . S
O145 Zn143 1.932 . S
O145 C155 1.307 . S
O146 Zn139 1.919 . S
O146 C157 1.253 . S
O147 Zn141 1.941 . S
O147 C157 1.283 . S
O148 Zn141 1.965 . S
O148 C156 1.303 . S
O149 Zn142 1.938 . S
O149 C156 1.247 . S
O150 Zn142 1.906 . S
O150 C158 1.304 . S
O151 Zn139 1.924 . S
O151 C159 1.311 . S
O152 Zn143 1.977 . S
O152 C158 1.272 . S
O153 Zn143 1.910 . S
O153 C159 1.231 . S
C154 O138 1.225 . S
C154 O160 1.298 . S
C155 O144 1.226 . S
C155 O145 1.307 . S
C156 O148 1.303 . S
C156 O149 1.247 . S
C157 O146 1.253 . S
C157 O147 1.283 . S
C158 O150 1.304 . S
C158 O152 1.272 . S
C159 O151 1.311 . S
C159 O153 1.231 . S
O160 Zn142 1.953 . S
O160 C154 1.298 . S
O161 Zn162 1.953 . S
O161 C177 1.225 . S
Zn162 O161 1.953 . S
Zn162 O163 1.949 . S
Zn162 O169 1.919 . S
Zn162 O174 1.924 . S
O163 Zn162 1.949 . S
O163 Zn164 1.923 . S
O163 Zn165 1.950 . S
O163 Zn166 1.945 . S
Zn164 O163 1.923 . S
Zn164 O167 1.933 . S
Zn164 O170 1.941 . S
Zn164 O171 1.965 . S
Zn165 O163 1.950 . S
Zn165 O172 1.938 . S
Zn165 O173 1.906 . S
Zn165 O183 1.953 . S
Zn166 O163 1.945 . S
Zn166 O168 1.932 . S
Zn166 O175 1.977 . S
Zn166 O176 1.910 . S
O167 Zn164 1.933 . S
O167 C178 1.226 . S
O168 Zn166 1.932 . S
O168 C178 1.307 . S
O169 Zn162 1.919 . S
O169 C180 1.253 . S
O170 Zn164 1.941 . S
O170 C180 1.283 . S
O171 Zn164 1.965 . S
O171 C179 1.303 . S
O172 Zn165 1.938 . S
O172 C179 1.247 . S
O173 Zn165 1.906 . S
O173 C181 1.304 . S
O174 Zn162 1.924 . S
O174 C182 1.311 . S
O175 Zn166 1.977 . S
O175 C181 1.272 . S
O176 Zn166 1.910 . S
O176 C182 1.231 . S
C177 O161 1.225 . S
C177 O183 1.298 . S
C178 O167 1.226 . S
C178 O168 1.307 . S
C179 O171 1.303 . S
C179 O172 1.247 . S
C180 O169 1.253 . S
C180 O170 1.283 . S
C181 O173 1.304 . S
C181 O175 1.272 . S
C182 O174 1.311 . S
C182 O176 1.231 . S
O183 Zn165 1.953 . S
O183 C177 1.298 . S
O184 Zn185 1.953 . S
O184 C200 1.225 . S
Zn185 O184 1.953 . S
Zn185 O186 1.949 . S
Zn185 O192 1.919 . S
Zn185 O197 1.924 . S
O186 Zn185 1.949 . S
O186 Zn187 1.923 . S
O186 Zn188 1.950 . S
O186 Zn189 1.945 . S
Zn187 O186 1.923 . S
Zn187 O190 1.933 . S
Zn187 O193 1.941 . S
Zn187 O194 1.965 . S
Zn188 O186 1.950 . S
Zn188 O195 1.938 . S
Zn188 O196 1.906 . S
Zn188 O206 1.953 . S
Zn189 O186 1.945 . S
Zn189 O191 1.932 . S
Zn189 O198 1.977 . S
Zn189 O199 1.910 . S
O190 Zn187 1.933 . S
O190 C201 1.226 . S
O191 Zn189 1.932 . S
O191 C201 1.307 . S
O192 Zn185 1.919 . S
O192 C203 1.253 . S
O193 Zn187 1.941 . S
O193 C203 1.283 . S
O194 Zn187 1.965 . S
O194 C202 1.303 . S
O195 Zn188 1.938 . S
O195 C202 1.247 . S
O196 Zn188 1.906 . S
O196 C204 1.304 . S
O197 Zn185 1.924 . S
O197 C205 1.311 . S
O198 Zn189 1.977 . S
O198 C204 1.272 . S
O199 Zn189 1.910 . S
O199 C205 1.231 . S
C200 O184 1.225 . S
C200 O206 1.298 . S
C201 O190 1.226 . S
C201 O191 1.307 . S
C202 O194 1.303 . S
C202 O195 1.247 . S
C203 O192 1.253 . S
C203 O193 1.283 . S
C204 O196 1.304 . S
C204 O198 1.272 . S
C205 O197 1.311 . S
C205 O199 1.231 . S
O206 Zn188 1.953 . S
O206 C200 1.298 . S
O207 Zn208 1.953 . S
O207 C223 1.225 . S
Zn208 O207 1.953 . S
Zn208 O209 1.949 . S
Zn208 O215 1.919 . S
Zn208 O220 1.924 . S
O209 Zn208 1.949 . S
O209 Zn210 1.923 . S
O209 Zn211 1.950 . S
O209 Zn212 1.945 . S
Zn210 O209 1.923 . S
Zn210 O213 1.933 . S
Zn210 O216 1.941 . S
Zn210 O217 1.965 . S
Zn211 O209 1.950 . S
Zn211 O218 1.938 . S
Zn211 O219 1.906 . S
Zn211 O229 1.953 . S
Zn212 O209 1.945 . S
Zn212 O214 1.932 . S
Zn212 O221 1.977 . S
Zn212 O222 1.910 . S
O213 Zn210 1.933 . S
O213 C224 1.226 . S
O214 Zn212 1.932 . S
O214 C224 1.307 . S
O215 Zn208 1.919 . S
O215 C226 1.253 . S
O216 Zn210 1.941 . S
O216 C226 1.283 . S
O217 Zn210 1.965 . S
O217 C225 1.303 . S
O218 Zn211 1.938 . S
O218 C225 1.247 . S
O219 Zn211 1.906 . S
O219 C227 1.304 . S
O220 Zn208 1.924 . S
O220 C228 1.311 . S
O221 Zn212 1.977 . S
O221 C227 1.272 . S
O222 Zn212 1.910 . S
O222 C228 1.231 . S
C223 O207 1.225 . S
C223 O229 1.298 . S
C224 O213 1.226 . S
C224 O214 1.307 . S
C225 O217 1.303 . S
C225 O218 1.247 . S
C226 O215 1.253 . S
C226 O216 1.283 . S
C227 O219 1.304 . S
C227 O221 1.272 . S
C228 O220 1.311 . S
C228 O222 1.231 . S
O229 Zn211 1.953 . S
O229 C223 1.298 . S
O230 Zn231 1.953 . S
O230 C246 1.225 . S
Zn231 O230 1.953 . S
Zn231 O232 1.949 . S
Zn231 O238 1.919 . S
Zn231 O243 1.924 . S
O232 Zn231 1.949 . S
O232 Zn233 1.923 . S
O232 Zn234 1.950 . S
O232 Zn235 1.945 . S
Zn233 O232 1.923 . S
Zn233 O236 1.933 . S
Zn233 O239 1.941 . S
Zn233 O240 1.965 . S
Zn234 O232 1.950 . S
Zn234 O241 1.938 . S
Zn234 O242 1.906 . S
Zn234 O252 1.953 . S
Zn235 O232 1.945 . S
Zn235 O237 1.932 . S
Zn235 O244 1.977 . S
Zn235 O245 1.910 . S
O236 Zn233 1.933 . S
O236 C247 1.226 . S
O237 Zn235 1.932 . S
O237 C247 1.307 . S
O238 Zn231 1.919 . S
O238 C249 1.253 . S
O239 Zn233 1.941 . S
O239 C249 1.283 . S
O240 Zn233 1.965 . S
O240 C248 1.303 . S
O241 Zn234 1.938 . S
O241 C248 1.247 . S
O242 Zn234 1.906 . S
O242 C250 1.304 . S
O243 Zn231 1.924 . S
O243 C251 1.311 . S
O244 Zn235 1.977 . S
O244 C250 1.272 . S
O245 Zn235 1.910 . S
O245 C251 1.231 . S
C246 O230 1.225 . S
C246 O252 1.298 . S
C247 O236 1.226 . S
C247 O237 1.307 . S
C248 O240 1.303 . S
C248 O241 1.247 . S
C249 O238 1.253 . S
C249 O239 1.283 . S
C250 O242 1.304 . S
C250 O244 1.272 . S
C251 O243 1.311 . S
C251 O245 1.231 . S
O252 Zn234 1.953 . S
O252 C246 1.298 . S
O253 Zn254 1.953 . S
O253 C269 1.225 . S
Zn254 O253 1.953 . S
Zn254 O255 1.949 . S
Zn254 O261 1.919 . S
Zn254 O266 1.924 . S
O255 Zn254 1.949 . S
O255 Zn256 1.923 . S
O255 Zn257 1.950 . S
O255 Zn258 1.945 . S
Zn256 O255 1.923 . S
Zn256 O259 1.933 . S
Zn256 O262 1.941 . S
Zn256 O263 1.965 . S
Zn257 O255 1.950 . S
Zn257 O264 1.938 . S
Zn257 O265 1.906 . S
Zn257 O275 1.953 . S
Zn258 O255 1.945 . S
Zn258 O260 1.932 . S
Zn258 O267 1.977 . S
Zn258 O268 1.910 . S
O259 Zn256 1.933 . S
O259 C270 1.226 . S
O260 Zn258 1.932 . S
O260 C270 1.307 . S
O261 Zn254 1.919 . S
O261 C272 1.253 . S
O262 Zn256 1.941 . S
O262 C272 1.283 . S
O263 Zn256 1.965 . S
O263 C271 1.303 . S
O264 Zn257 1.938 . S
O264 C271 1.247 . S
O265 Zn257 1.906 . S
O265 C273 1.304 . S
O266 Zn254 1.924 . S
O266 C274 1.311 . S
O267 Zn258 1.977 . S
O267 C273 1.272 . S
O268 Zn258 1.910 . S
O268 C274 1.231 . S
C269 O253 1.225 . S
C269 O275 1.298 . S
C270 O259 1.226 . S
C270 O260 1.307 . S
C271 O263 1.303 . S
C271 O264 1.247 . S
C272 O261 1.253 . S
C272 O262 1.283 . S
C273 O265 1.304 . S
C273 O267 1.272 . S
C274 O266 1.311 . S
C274 O268 1.231 . S
O275 Zn257 1.953 . S
O275 C269 1.298 . S
O276 Zn277 1.953 1_455 S
O276 C292 1.225 . S
Zn277 O276 1.953 1_655 S
Zn277 O278 1.949 . S
Zn277 O284 1.919 . S
Zn277 O289 1.924 1_655 S
O278 Zn277 1.949 . S
O278 Zn279 1.923 . S
O278 Zn280 1.950 . S
O278 Zn281 1.945 . S
Zn279 O278 1.923 . S
Zn279 O282 1.933 . S
Zn279 O285 1.941 . S
Zn279 O286 1.965 . S
Zn280 O278 1.950 . S
Zn280 O287 1.938 . S
Zn280 O288 1.906 . S
Zn280 O298 1.953 . S
Zn281 O278 1.945 . S
Zn281 O283 1.932 . S
Zn281 O290 1.977 . S
Zn281 O291 1.910 . S
O282 Zn279 1.933 . S
O282 C293 1.226 . S
O283 Zn281 1.932 . S
O283 C293 1.307 . S
O284 Zn277 1.919 . S
O284 C295 1.253 . S
O285 Zn279 1.941 . S
O285 C295 1.283 . S
O286 Zn279 1.965 . S
O286 C294 1.303 . S
O287 Zn280 1.938 . S
O287 C294 1.247 . S
O288 Zn280 1.906 . S
O288 C296 1.304 . S
O289 Zn277 1.924 1_455 S
O289 C297 1.311 1_455 S
O290 Zn281 1.977 . S
O290 C296 1.272 . S
O291 Zn281 1.910 . S
O291 C297 1.231 . S
C292 O276 1.225 . S
C292 O298 1.298 1_455 S
C293 O282 1.226 . S
C293 O283 1.307 . S
C294 O286 1.303 . S
C294 O287 1.247 . S
C295 O284 1.253 . S
C295 O285 1.283 . S
C296 O288 1.304 . S
C296 O290 1.272 . S
C297 O289 1.311 1_655 S
C297 O291 1.231 . S
O298 Zn280 1.953 . S
O298 C292 1.298 1_655 S
O299 Zn300 1.953 . S
O299 C315 1.225 . S
Zn300 O299 1.953 . S
Zn300 O301 1.949 . S
Zn300 O307 1.919 . S
Zn300 O312 1.924 . S
O301 Zn300 1.949 . S
O301 Zn302 1.923 . S
O301 Zn303 1.950 . S
O301 Zn304 1.945 . S
Zn302 O301 1.923 . S
Zn302 O305 1.933 . S
Zn302 O308 1.941 . S
Zn302 O309 1.965 . S
Zn303 O301 1.950 . S
Zn303 O310 1.938 . S
Zn303 O311 1.906 . S
Zn303 O321 1.953 . S
Zn304 O301 1.945 . S
Zn304 O306 1.932 . S
Zn304 O313 1.977 . S
Zn304 O314 1.910 . S
O305 Zn302 1.933 . S
O305 C316 1.226 . S
O306 Zn304 1.932 . S
O306 C316 1.307 . S
O307 Zn300 1.919 . S
O307 C318 1.253 . S
O308 Zn302 1.941 . S
O308 C318 1.283 . S
O309 Zn302 1.965 . S
O309 C317 1.303 . S
O310 Zn303 1.938 . S
O310 C317 1.247 . S
O311 Zn303 1.906 . S
O311 C319 1.304 . S
O312 Zn300 1.924 . S
O312 C320 1.311 . S
O313 Zn304 1.977 . S
O313 C319 1.272 . S
O314 Zn304 1.910 . S
O314 C320 1.231 . S
C315 O299 1.225 . S
C315 O321 1.298 . S
C316 O305 1.226 . S
C316 O306 1.307 . S
C317 O309 1.303 . S
C317 O310 1.247 . S
C318 O307 1.253 . S
C318 O308 1.283 . S
C319 O311 1.304 . S
C319 O313 1.272 . S
C320 O312 1.311 . S
C320 O314 1.231 . S
O321 Zn303 1.953 . S
O321 C315 1.298 . S
O322 Zn323 1.953 1_565 S
O322 C338 1.225 . S
Zn323 O322 1.953 1_545 S
Zn323 O324 1.949 . S
Zn323 O330 1.919 . S
Zn323 O335 1.924 1_545 S
O324 Zn323 1.949 . S
O324 Zn325 1.923 . S
O324 Zn326 1.950 . S
O324 Zn327 1.945 . S
Zn325 O324 1.923 . S
Zn325 O328 1.933 . S
Zn325 O331 1.941 . S
Zn325 O332 1.965 . S
Zn326 O324 1.950 . S
Zn326 O333 1.938 . S
Zn326 O334 1.906 . S
Zn326 O344 1.953 . S
Zn327 O324 1.945 . S
Zn327 O329 1.932 . S
Zn327 O336 1.977 . S
Zn327 O337 1.910 . S
O328 Zn325 1.933 . S
O328 C339 1.226 . S
O329 Zn327 1.932 . S
O329 C339 1.307 . S
O330 Zn323 1.919 . S
O330 C341 1.253 . S
O331 Zn325 1.941 . S
O331 C341 1.283 . S
O332 Zn325 1.965 . S
O332 C340 1.303 . S
O333 Zn326 1.938 . S
O333 C340 1.247 . S
O334 Zn326 1.906 . S
O334 C342 1.304 . S
O335 Zn323 1.924 1_565 S
O335 C343 1.311 1_565 S
O336 Zn327 1.977 . S
O336 C342 1.272 . S
O337 Zn327 1.910 . S
O337 C343 1.231 . S
C338 O322 1.225 . S
C338 O344 1.298 1_565 S
C339 O328 1.226 . S
C339 O329 1.307 . S
C340 O332 1.303 . S
C340 O333 1.247 . S
C341 O330 1.253 . S
C341 O331 1.283 . S
C342 O334 1.304 . S
C342 O336 1.272 . S
C343 O335 1.311 1_545 S
C343 O337 1.231 . S
O344 Zn326 1.953 . S
O344 C338 1.298 1_545 S
O345 Zn346 1.953 1_565 S
O345 C361 1.225 . S
Zn346 O345 1.953 1_545 S
Zn346 O347 1.949 . S
Zn346 O353 1.919 . S
Zn346 O358 1.924 1_545 S
O347 Zn346 1.949 . S
O347 Zn348 1.923 . S
O347 Zn349 1.950 . S
O347 Zn350 1.945 . S
Zn348 O347 1.923 . S
Zn348 O351 1.933 . S
Zn348 O354 1.941 . S
Zn348 O355 1.965 . S
Zn349 O347 1.950 . S
Zn349 O356 1.938 . S
Zn349 O357 1.906 . S
Zn349 O367 1.953 . S
Zn350 O347 1.945 . S
Zn350 O352 1.932 . S
Zn350 O359 1.977 . S
Zn350 O360 1.910 . S
O351 Zn348 1.933 . S
O351 C362 1.226 . S
O352 Zn350 1.932 . S
O352 C362 1.307 . S
O353 Zn346 1.919 . S
O353 C364 1.253 . S
O354 Zn348 1.941 . S
O354 C364 1.283 . S
O355 Zn348 1.965 . S
O355 C363 1.303 . S
O356 Zn349 1.938 . S
O356 C363 1.247 . S
O357 Zn349 1.906 . S
O357 C365 1.304 . S
O358 Zn346 1.924 1_565 S
O358 C366 1.311 1_565 S
O359 Zn350 1.977 . S
O359 C365 1.272 . S
O360 Zn350 1.910 . S
O360 C366 1.231 . S
C361 O345 1.225 . S
C361 O367 1.298 1_565 S
C362 O351 1.226 . S
C362 O352 1.307 . S
C363 O355 1.303 . S
C363 O356 1.247 . S
C364 O353 1.253 . S
C364 O354 1.283 . S
C365 O357 1.304 . S
C365 O359 1.272 . S
C366 O358 1.311 1_545 S
C366 O360 1.231 . S
O367 Zn349 1.953 . S
O367 C361 1.298 1_545 S
O368 Zn369 1.953 1_455 S
O368 C384 1.225 . S
Zn369 O368 1.953 1_655 S
Zn369 O370 1.949 . S
Zn369 O376 1.919 . S
Zn369 O381 1.924 1_655 S
O370 Zn369 1.949 . S
O370 Zn371 1.923 . S
O370 Zn372 1.950 . S
O370 Zn373 1.945 . S
Zn371 O370 1.923 . S
Zn371 O374 1.933 . S
Zn371 O377 1.941 . S
Zn371 O378 1.965 . S
Zn372 O370 1.950 . S
Zn372 O379 1.938 . S
Zn372 O380 1.906 . S
Zn372 O390 1.953 . S
Zn373 O370 1.945 . S
Zn373 O375 1.932 . S
Zn373 O382 1.977 . S
Zn373 O383 1.910 . S
O374 Zn371 1.933 . S
O374 C385 1.226 . S
O375 Zn373 1.932 . S
O375 C385 1.307 . S
O376 Zn369 1.919 . S
O376 C387 1.253 . S
O377 Zn371 1.941 . S
O377 C387 1.283 . S
O378 Zn371 1.965 . S
O378 C386 1.303 . S
O379 Zn372 1.938 . S
O379 C386 1.247 . S
O380 Zn372 1.906 . S
O380 C388 1.304 . S
O381 Zn369 1.924 1_455 S
O381 C389 1.311 1_455 S
O382 Zn373 1.977 . S
O382 C388 1.272 . S
O383 Zn373 1.910 . S
O383 C389 1.231 . S
C384 O368 1.225 . S
C384 O390 1.298 1_455 S
C385 O374 1.226 . S
C385 O375 1.307 . S
C386 O378 1.303 . S
C386 O379 1.247 . S
C387 O376 1.253 . S
C387 O377 1.283 . S
C388 O380 1.304 . S
C388 O382 1.272 . S
C389 O381 1.311 1_655 S
C389 O383 1.231 . S
O390 Zn372 1.953 . S
O390 C384 1.298 1_655 S
O391 Zn392 1.953 . S
O391 C407 1.225 . S
Zn392 O391 1.953 . S
Zn392 O393 1.949 . S
Zn392 O399 1.919 . S
Zn392 O404 1.924 . S
O393 Zn392 1.949 . S
O393 Zn394 1.923 . S
O393 Zn395 1.950 . S
O393 Zn396 1.945 . S
Zn394 O393 1.923 . S
Zn394 O397 1.933 . S
Zn394 O400 1.941 . S
Zn394 O401 1.965 . S
Zn395 O393 1.950 . S
Zn395 O402 1.938 . S
Zn395 O403 1.906 . S
Zn395 O413 1.953 . S
Zn396 O393 1.945 . S
Zn396 O398 1.932 . S
Zn396 O405 1.977 . S
Zn396 O406 1.910 . S
O397 Zn394 1.933 . S
O397 C408 1.226 . S
O398 Zn396 1.932 . S
O398 C408 1.307 . S
O399 Zn392 1.919 . S
O399 C410 1.253 . S
O400 Zn394 1.941 . S
O400 C410 1.283 . S
O401 Zn394 1.965 . S
O401 C409 1.303 . S
O402 Zn395 1.938 . S
O402 C409 1.247 . S
O403 Zn395 1.906 . S
O403 C411 1.304 . S
O404 Zn392 1.924 . S
O404 C412 1.311 . S
O405 Zn396 1.977 . S
O405 C411 1.272 . S
O406 Zn396 1.910 . S
O406 C412 1.231 . S
C407 O391 1.225 . S
C407 O413 1.298 . S
C408 O397 1.226 . S
C408 O398 1.307 . S
C409 O401 1.303 . S
C409 O402 1.247 . S
C410 O399 1.253 . S
C410 O400 1.283 . S
C411 O403 1.304 . S
C411 O405 1.272 . S
C412 O404 1.311 . S
C412 O406 1.231 . S
O413 Zn395 1.953 . S
O413 C407 1.298 . S
C414 C415 1.387 . S
C414 H418 0.950 . S
C414 C423 1.390 . S
C415 C414 1.387 . S
C415 C417 1.387 1_556 S
H416 C423 0.950 . S
C417 C415 1.387 1_554 S
C417 C419 1.390 . S
C417 H421 0.950 . S
H418 C414 0.950 . S
C419 C417 1.390 . S
C419 C420 1.387 . S
C419 H422 0.950 . S
C420 C419 1.387 . S
C420 C423 1.387 1_554 S
H421 C417 0.950 . S
H422 C419 0.950 . S
C423 C414 1.390 . S
C423 H416 0.950 . S
C423 C420 1.387 1_556 S
C424 C425 1.387 1_556 S
C424 H428 0.950 . S
C424 C433 1.390 . S
C425 C424 1.387 1_554 S
C425 C427 1.387 . S
H426 C433 0.950 . S
C427 C425 1.387 . S
C427 C429 1.390 . S
C427 H431 0.950 . S
H428 C424 0.950 . S
C429 C427 1.390 . S
C429 C430 1.387 1_554 S
C429 H432 0.950 . S
C430 C429 1.387 1_556 S
C430 C433 1.387 . S
H431 C427 0.950 . S
H432 C429 0.950 . S
C433 C424 1.390 . S
C433 H426 0.950 . S
C433 C430 1.387 . S
C434 C435 1.387 1_554 S
C434 H438 0.950 . S
C434 C443 1.390 . S
C435 C434 1.387 1_556 S
C435 C437 1.387 . S
H436 C443 0.950 . S
C437 C435 1.387 . S
C437 C439 1.390 1_556 S
C437 H441 0.950 . S
H438 C434 0.950 . S
C439 C437 1.390 1_554 S
C439 C440 1.387 . S
C439 H442 0.950 . S
C440 C439 1.387 . S
C440 C443 1.387 . S
H441 C437 0.950 . S
H442 C439 0.950 . S
C443 C434 1.390 . S
C443 H436 0.950 . S
C443 C440 1.387 . S
C444 C445 1.387 . S
C444 H448 0.950 . S
C444 C453 1.390 . S
C445 C444 1.387 . S
C445 C447 1.387 . S
H446 C453 0.950 . S
C447 C445 1.387 . S
C447 C449 1.390 . S
C447 H451 0.950 . S
H448 C444 0.950 . S
C449 C447 1.390 . S
C449 C450 1.387 . S
C449 H452 0.950 . S
C450 C449 1.387 . S
C450 C453 1.387 . S
H451 C447 0.950 . S
H452 C449 0.950 . S
C453 C444 1.390 . S
C453 H446 0.950 . S
C453 C450 1.387 . S
C454 C455 1.387 . S
C454 H458 0.950 . S
C454 C463 1.390 . S
C455 C454 1.387 . S
C455 C457 1.387 . S
H456 C463 0.950 . S
C457 C455 1.387 . S
C457 C459 1.390 . S
C457 H461 0.950 . S
H458 C454 0.950 . S
C459 C457 1.390 . S
C459 C460 1.387 . S
C459 H462 0.950 . S
C460 C459 1.387 . S
C460 C463 1.387 . S
H461 C457 0.950 . S
H462 C459 0.950 . S
C463 C454 1.390 . S
C463 H456 0.950 . S
C463 C460 1.387 . S
C464 C465 1.387 . S
C464 H468 0.950 . S
C464 C473 1.390 . S
C465 C464 1.387 . S
C465 C467 1.387 . S
H466 C473 0.950 . S
C467 C465 1.387 . S
C467 C469 1.390 . S
C467 H471 0.950 . S
H468 C464 0.950 . S
C469 C467 1.390 . S
C469 C470 1.387 . S
C469 H472 0.950 . S
C470 C469 1.387 . S
C470 C473 1.387 . S
H471 C467 0.950 . S
H472 C469 0.950 . S
C473 C464 1.390 . S
C473 H466 0.950 . S
C473 C470 1.387 . S
C474 C475 1.387 . S
C474 H478 0.950 . S
C474 C483 1.390 . S
C475 C474 1.387 . S
C475 C477 1.387 . S
H476 C483 0.950 . S
C477 C475 1.387 . S
C477 C479 1.390 . S
C477 H481 0.950 . S
H478 C474 0.950 . S
C479 C477 1.390 . S
C479 C480 1.387 . S
C479 H482 0.950 . S
C480 C479 1.387 . S
C480 C483 1.387 . S
H481 C477 0.950 . S
H482 C479 0.950 . S
C483 C474 1.390 . S
C483 H476 0.950 . S
C483 C480 1.387 . S
C484 C485 1.387 . S
C484 H488 0.950 . S
C484 C493 1.390 . S
C485 C484 1.387 . S
C485 C487 1.387 . S
H486 C493 0.950 . S
C487 C485 1.387 . S
C487 C489 1.390 . S
C487 H491 0.950 . S
H488 C484 0.950 . S
C489 C487 1.390 . S
C489 C490 1.387 . S
C489 H492 0.950 . S
C490 C489 1.387 . S
C490 C493 1.387 . S
H491 C487 0.950 . S
H492 C489 0.950 . S
C493 C484 1.390 . S
C493 H486 0.950 . S
C493 C490 1.387 . S
C494 C495 1.387 . S
C494 H498 0.950 . S
C494 C503 1.390 . S
C495 C494 1.387 . S
C495 C497 1.387 . S
H496 C503 0.950 . S
C497 C495 1.387 . S
C497 C499 1.390 . S
C497 H501 0.950 . S
H498 C494 0.950 . S
C499 C497 1.390 . S
C499 C500 1.387 . S
C499 H502 0.950 . S
C500 C499 1.387 . S
C500 C503 1.387 . S
H501 C497 0.950 . S
H502 C499 0.950 . S
C503 C494 1.390 . S
C503 H496 0.950 . S
C503 C500 1.387 . S
C504 C505 1.387 . S
C504 H508 0.950 . S
C504 C513 1.390 . S
C505 C504 1.387 . S
C505 C507 1.387 . S
H506 C513 0.950 . S
C507 C505 1.387 . S
C507 C509 1.390 . S
C507 H511 0.950 . S
H508 C504 0.950 . S
C509 C507 1.390 . S
C509 C510 1.387 . S
C509 H512 0.950 . S
C510 C509 1.387 . S
C510 C513 1.387 . S
H511 C507 0.950 . S
H512 C509 0.950 . S
C513 C504 1.390 . S
C513 H506 0.950 . S
C513 C510 1.387 . S
C514 C515 1.387 . S
C514 H518 0.950 . S
C514 C523 1.390 . S
C515 C514 1.387 . S
C515 C517 1.387 . S
H516 C523 0.950 . S
C517 C515 1.387 . S
C517 C519 1.390 . S
C517 H521 0.950 . S
H518 C514 0.950 . S
C519 C517 1.390 . S
C519 C520 1.387 . S
C519 H522 0.950 . S
C520 C519 1.387 . S
C520 C523 1.387 . S
H521 C517 0.950 . S
H522 C519 0.950 . S
C523 C514 1.390 . S
C523 H516 0.950 . S
C523 C520 1.387 . S
C524 C525 1.387 . S
C524 H528 0.950 . S
C524 C533 1.390 . S
C525 C524 1.387 . S
C525 C527 1.387 . S
H526 C533 0.950 . S
C527 C525 1.387 . S
C527 C529 1.390 . S
C527 H531 0.950 . S
H528 C524 0.950 . S
C529 C527 1.390 . S
C529 C530 1.387 . S
C529 H532 0.950 . S
C530 C529 1.387 . S
C530 C533 1.387 . S
H531 C527 0.950 . S
H532 C529 0.950 . S
C533 C524 1.390 . S
C533 H526 0.950 . S
C533 C530 1.387 . S
C534 C535 1.387 . S
C534 H538 0.950 . S
C534 C543 1.390 . S
C535 C534 1.387 . S
C535 C537 1.387 . S
H536 C543 0.950 . S
C537 C535 1.387 . S
C537 C539 1.390 . S
C537 H541 0.950 . S
H538 C534 0.950 . S
C539 C537 1.390 . S
C539 C540 1.387 . S
C539 H542 0.950 . S
C540 C539 1.387 . S
C540 C543 1.387 . S
H541 C537 0.950 . S
H542 C539 0.950 . S
C543 C534 1.390 . S
C543 H536 0.950 . S
C543 C540 1.387 . S
C544 C545 1.387 . S
C544 H548 0.950 1_565 S
C544 C553 1.390 . S
C545 C544 1.387 . S
C545 C547 1.387 . S
H546 C553 0.950 . S
C547 C545 1.387 . S
C547 C549 1.390 . S
C547 H551 0.950 . S
H548 C544 0.950 1_545 S
C549 C547 1.390 . S
C549 C550 1.387 . S
C549 H552 0.950 . S
C550 C549 1.387 . S
C550 C553 1.387 . S
H551 C547 0.950 . S
H552 C549 0.950 . S
C553 C544 1.390 . S
C553 H546 0.950 . S
C553 C550 1.387 . S
C554 C555 1.387 . S
C554 H558 0.950 . S
C554 C563 1.390 . S
C555 C554 1.387 . S
C555 C557 1.387 . S
H556 C563 0.950 . S
C557 C555 1.387 . S
C557 C559 1.390 . S
C557 H561 0.950 1_455 S
H558 C554 0.950 . S
C559 C557 1.390 . S
C559 C560 1.387 . S
C559 H562 0.950 . S
C560 C559 1.387 . S
C560 C563 1.387 . S
H561 C557 0.950 1_655 S
H562 C559 0.950 . S
C563 C554 1.390 . S
C563 H556 0.950 . S
C563 C560 1.387 . S
C564 C565 1.387 . S
C564 H568 0.950 . S
C564 C573 1.390 . S
C565 C564 1.387 . S
C565 C567 1.387 . S
H566 C573 0.950 . S
C567 C565 1.387 . S
C567 C569 1.390 . S
C567 H571 0.950 . S
H568 C564 0.950 . S
C569 C567 1.390 . S
C569 C570 1.387 . S
C569 H572 0.950 . S
C570 C569 1.387 . S
C570 C573 1.387 . S
H571 C567 0.950 . S
H572 C569 0.950 . S
C573 C564 1.390 . S
C573 H566 0.950 . S
C573 C570 1.387 . S
C574 C575 1.387 . S
C574 H578 0.950 . S
C574 C583 1.390 . S
C575 C574 1.387 . S
C575 C577 1.387 . S
H576 C583 0.950 . S
C577 C575 1.387 . S
C577 C579 1.390 . S
C577 H581 0.950 . S
H578 C574 0.950 . S
C579 C577 1.390 . S
C579 C580 1.387 . S
C579 H582 0.950 . S
C580 C579 1.387 . S
C580 C583 1.387 . S
H581 C577 0.950 . S
H582 C579 0.950 . S
C583 C574 1.390 . S
C583 H576 0.950 . S
C583 C580 1.387 . S
C584 C585 1.387 . S
C584 H588 0.950 . S
C584 C593 1.390 . S
C585 C584 1.387 . S
C585 C587 1.387 . S
H586 C593 0.950 1_655 S
C587 C585 1.387 . S
C587 C589 1.390 . S
C587 H591 0.950 . S
H588 C584 0.950 . S
C589 C587 1.390 . S
C589 C590 1.387 . S
C589 H592 0.950 . S
C590 C589 1.387 . S
C590 C593 1.387 . S
H591 C587 0.950 . S
H592 C589 0.950 . S
C593 C584 1.390 . S
C593 H586 0.950 1_455 S
C593 C590 1.387 . S
C594 C595 1.387 . S
C594 H598 0.950 . S
C594 C603 1.390 . S
C595 C594 1.387 . S
C595 C597 1.387 . S
H596 C603 0.950 . S
C597 C595 1.387 . S
C597 C599 1.390 . S
C597 H601 0.950 . S
H598 C594 0.950 . S
C599 C597 1.390 . S
C599 C600 1.387 . S
C599 H602 0.950 . S
C600 C599 1.387 . S
C600 C603 1.387 . S
H601 C597 0.950 . S
H602 C599 0.950 . S
C603 C594 1.390 . S
C603 H596 0.950 . S
C603 C600 1.387 . S
C604 C605 1.387 . S
C604 H608 0.950 . S
C604 C613 1.390 . S
C605 C604 1.387 . S
C605 C607 1.387 . S
H606 C613 0.950 . S
C607 C605 1.387 . S
C607 C609 1.390 . S
C607 H611 0.950 . S
H608 C604 0.950 . S
C609 C607 1.390 . S
C609 C610 1.387 . S
C609 H612 0.950 . S
C610 C609 1.387 . S
C610 C613 1.387 . S
H611 C607 0.950 . S
H612 C609 0.950 . S
C613 C604 1.390 . S
C613 H606 0.950 . S
C613 C610 1.387 . S
C614 C615 1.387 . S
C614 H618 0.950 . S
C614 C623 1.390 . S
C615 C614 1.387 . S
C615 C617 1.387 . S
H616 C623 0.950 . S
C617 C615 1.387 . S
C617 C619 1.390 . S
C617 H621 0.950 . S
H618 C614 0.950 . S
C619 C617 1.390 . S
C619 C620 1.387 . S
C619 H622 0.950 . S
C620 C619 1.387 . S
C620 C623 1.387 . S
H621 C617 0.950 . S
H622 C619 0.950 . S
C623 C614 1.390 . S
C623 H616 0.950 . S
C623 C620 1.387 . S
C624 C625 1.387 . S
C624 H628 0.950 . S
C624 C633 1.390 . S
C625 C624 1.387 . S
C625 C627 1.387 . S
H626 C633 0.950 . S
C627 C625 1.387 . S
C627 C629 1.390 . S
C627 H631 0.950 . S
H628 C624 0.950 . S
C629 C627 1.390 . S
C629 C630 1.387 . S
C629 H632 0.950 . S
C630 C629 1.387 . S
C630 C633 1.387 . S
H631 C627 0.950 . S
H632 C629 0.950 . S
C633 C624 1.390 . S
C633 H626 0.950 . S
C633 C630 1.387 . S
C634 C635 1.387 . S
C634 H638 0.950 . S
C634 C643 1.390 . S
C635 C634 1.387 . S
C635 C637 1.387 . S
H636 C643 0.950 . S
C637 C635 1.387 . S
C637 C639 1.390 . S
C637 H641 0.950 . S
H638 C634 0.950 . S
C639 C637 1.390 . S
C639 C640 1.387 . S
C639 H642 0.950 . S
C640 C639 1.387 . S
C640 C643 1.387 . S
H641 C637 0.950 . S
H642 C639 0.950 . S
C643 C634 1.390 . S
C643 H636 0.950 . S
C643 C640 1.387 . S
C644 C645 1.387 . S
C644 H648 0.950 . S
C644 C653 1.390 . S
C645 C644 1.387 . S
C645 C647 1.387 . S
H646 C653 0.950 . S
C647 C645 1.387 . S
C647 C649 1.390 . S
C647 H651 0.950 . S
H648 C644 0.950 . S
C649 C647 1.390 . S
C649 C650 1.387 . S
C649 H652 0.950 . S
C650 C649 1.387 . S
C650 C653 1.387 . S
H651 C647 0.950 . S
H652 C649 0.950 . S
C653 C644 1.390 . S
C653 H646 0.950 . S
C653 C650 1.387 . S
C654 C655 1.387 . S
C654 H658 0.950 . S
C654 C663 1.390 . S
C655 C654 1.387 . S
C655 C657 1.387 . S
H656 C663 0.950 . S
C657 C655 1.387 . S
C657 C659 1.390 . S
C657 H661 0.950 . S
H658 C654 0.950 . S
C659 C657 1.390 . S
C659 C660 1.387 . S
C659 H662 0.950 . S
C660 C659 1.387 . S
C660 C663 1.387 . S
H661 C657 0.950 . S
H662 C659 0.950 . S
C663 C654 1.390 . S
C663 H656 0.950 . S
C663 C660 1.387 . S
C664 C665 1.387 . S
C664 H668 0.950 . S
C664 C673 1.390 . S
C665 C664 1.387 . S
C665 C667 1.387 . S
H666 C673 0.950 . S
C667 C665 1.387 . S
C667 C669 1.390 . S
C667 H671 0.950 . S
H668 C664 0.950 . S
C669 C667 1.390 . S
C669 C670 1.387 . S
C669 H672 0.950 . S
C670 C669 1.387 . S
C670 C673 1.387 . S
H671 C667 0.950 . S
H672 C669 0.950 . S
C673 C664 1.390 . S
C673 H666 0.950 . S
C673 C670 1.387 . S
C674 C675 1.387 . S
C674 H678 0.950 . S
C674 C683 1.390 . S
C675 C674 1.387 . S
C675 C677 1.387 . S
H676 C683 0.950 . S
C677 C675 1.387 . S
C677 C679 1.390 . S
C677 H681 0.950 . S
H678 C674 0.950 . S
C679 C677 1.390 . S
C679 C680 1.387 . S
C679 H682 0.950 . S
C680 C679 1.387 . S
C680 C683 1.387 . S
H681 C677 0.950 . S
H682 C679 0.950 . S
C683 C674 1.390 . S
C683 H676 0.950 . S
C683 C680 1.387 . S
C684 C685 1.387 . S
C684 H688 0.950 . S
C684 C693 1.390 . S
C685 C684 1.387 . S
C685 C687 1.387 . S
H686 C693 0.950 . S
C687 C685 1.387 . S
C687 C689 1.390 . S
C687 H691 0.950 . S
H688 C684 0.950 . S
C689 C687 1.390 . S
C689 C690 1.387 . S
C689 H692 0.950 . S
C690 C689 1.387 . S
C690 C693 1.387 . S
H691 C687 0.950 . S
H692 C689 0.950 . S
C693 C684 1.390 . S
C693 H686 0.950 . S
C693 C690 1.387 . S
C694 C695 1.387 . S
C694 H698 0.950 . S
C694 C703 1.390 . S
C695 C694 1.387 . S
C695 C697 1.387 . S
H696 C703 0.950 . S
C697 C695 1.387 . S
C697 C699 1.390 . S
C697 H701 0.950 . S
H698 C694 0.950 . S
C699 C697 1.390 . S
C699 C700 1.387 . S
C699 H702 0.950 . S
C700 C699 1.387 . S
C700 C703 1.387 . S
H701 C697 0.950 . S
H702 C699 0.950 . S
C703 C694 1.390 . S
C703 H696 0.950 . S
C703 C700 1.387 . S
C704 C705 1.387 . S
C704 H708 0.950 . S
C704 C713 1.390 . S
C705 C704 1.387 . S
C705 C707 1.387 . S
H706 C713 0.950 . S
C707 C705 1.387 . S
C707 C709 1.390 . S
C707 H711 0.950 . S
H708 C704 0.950 . S
C709 C707 1.390 . S
C709 C710 1.387 . S
C709 H712 0.950 . S
C710 C709 1.387 . S
C710 C713 1.387 . S
H711 C707 0.950 . S
H712 C709 0.950 . S
C713 C704 1.390 . S
C713 H706 0.950 . S
C713 C710 1.387 . S
C714 C715 1.387 . S
C714 H718 0.950 . S
C714 C723 1.390 . S
C715 C714 1.387 . S
C715 C717 1.387 . S
H716 C723 0.950 . S
C717 C715 1.387 . S
C717 C719 1.390 . S
C717 H721 0.950 . S
H718 C714 0.950 . S
C719 C717 1.390 . S
C719 C720 1.387 . S
C719 H722 0.950 . S
C720 C719 1.387 . S
C720 C723 1.387 . S
H721 C717 0.950 . S
H722 C719 0.950 . S
C723 C714 1.390 . S
C723 H716 0.950 . S
C723 C720 1.387 . S
C724 C725 1.387 . S
C724 H728 0.950 . S
C724 C733 1.390 . S
C725 C724 1.387 . S
C725 C727 1.387 . S
H726 C733 0.950 . S
C727 C725 1.387 . S
C727 C729 1.390 . S
C727 H731 0.950 . S
H728 C724 0.950 . S
C729 C727 1.390 . S
C729 C730 1.387 . S
C729 H732 0.950 . S
C730 C729 1.387 . S
C730 C733 1.387 . S
H731 C727 0.950 . S
H732 C729 0.950 . S
C733 C724 1.390 . S
C733 H726 0.950 . S
C733 C730 1.387 . S
C734 C735 1.387 . S
C734 H738 0.950 . S
C734 C743 1.390 . S
C735 C734 1.387 . S
C735 C737 1.387 . S
H736 C743 0.950 . S
C737 C735 1.387 . S
C737 C739 1.390 . S
C737 H741 0.950 . S
H738 C734 0.950 . S
C739 C737 1.390 . S
C739 C740 1.387 . S
C739 H742 0.950 . S
C740 C739 1.387 . S
C740 C743 1.387 . S
H741 C737 0.950 . S
H742 C739 0.950 . S
C743 C734 1.390 . S
C743 H736 0.950 . S
C743 C740 1.387 . S
C744 C745 1.387 . S
C744 H748 0.950 . S
C744 C753 1.390 . S
C745 C744 1.387 . S
C745 C747 1.387 . S
H746 C753 0.950 . S
C747 C745 1.387 . S
C747 C749 1.390 . S
C747 H751 0.950 . S
H748 C744 0.950 . S
C749 C747 1.390 . S
C749 C750 1.387 . S
C749 H752 0.950 . S
C750 C749 1.387 . S
C750 C753 1.387 . S
H751 C747 0.950 . S
H752 C749 0.950 . S
C753 C744 1.390 . S
C753 H746 0.950 . S
C753 C750 1.387 . S
C754 C755 1.387 . S
C754 H758 0.950 . S
C754 C763 1.390 . S
C755 C754 1.387 . S
C755 C757 1.387 . S
H756 C763 0.950 . S
C757 C755 1.387 . S
C757 C759 1.390 . S
C757 H761 0.950 . S
H758 C754 0.950 . S
C759 C757 1.390 . S
C759 C760 1.387 . S
C759 H762 0.950 . S
C760 C759 1.387 . S
C760 C763 1.387 . S
H761 C757 0.950 . S
H762 C759 0.950 . S
C763 C754 1.390 . S
C763 H756 0.950 . S
C763 C760 1.387 . S
C764 C765 1.387 . S
C764 H768 0.950 . S
C764 C773 1.390 . S
C765 C764 1.387 . S
C765 C767 1.387 . S
H766 C773 0.950 . S
C767 C765 1.387 . S
C767 C769 1.390 . S
C767 H771 0.950 . S
H768 C764 0.950 . S
C769 C767 1.390 . S
C769 C770 1.387 . S
C769 H772 0.950 . S
C770 C769 1.387 . S
C770 C773 1.387 . S
H771 C767 0.950 . S
H772 C769 0.950 . S
C773 C764 1.390 . S
C773 H766 0.950 . S
C773 C770 1.387 . S
C774 C775 1.387 . S
C774 H778 0.950 . S
C774 C783 1.390 . S
C775 C774 1.387 . S
C775 C777 1.387 . S
H776 C783 0.950 1_545 S
C777 C775 1.387 . S
C777 C779 1.390 . S
C777 H781 0.950 . S
H778 C774 0.950 . S
C779 C777 1.390 . S
C779 C780 1.387 . S
C779 H782 0.950 1_556 S
C780 C779 1.387 . S
C780 C783 1.387 . S
H781 C777 0.950 . S
H782 C779 0.950 1_554 S
C783 C774 1.390 . S
C783 H776 0.950 1_565 S
C783 C780 1.387 . S
C784 C785 1.387 . S
C784 H788 0.950 1_455 S
C784 C793 1.390 . S
C785 C784 1.387 . S
C785 C787 1.387 . S
H786 C793 0.950 . S
C787 C785 1.387 . S
C787 C789 1.390 . S
C787 H791 0.950 . S
H788 C784 0.950 1_655 S
C789 C787 1.390 . S
C789 C790 1.387 . S
C789 H792 0.950 . S
C790 C789 1.387 . S
C790 C793 1.387 . S
H791 C787 0.950 . S
H792 C789 0.950 . S
C793 C784 1.390 . S
C793 H786 0.950 . S
C793 C790 1.387 . S
C794 C795 1.387 . S
C794 H798 0.950 . S
C794 C803 1.390 . S
C795 C794 1.387 . S
C795 C797 1.387 . S
H796 C803 0.950 . S
C797 C795 1.387 . S
C797 C799 1.390 . S
C797 H801 0.950 . S
H798 C794 0.950 . S
C799 C797 1.390 . S
C799 C800 1.387 . S
C799 H802 0.950 . S
C800 C799 1.387 . S
C800 C803 1.387 . S
H801 C797 0.950 . S
H802 C799 0.950 . S
C803 C794 1.390 . S
C803 H796 0.950 . S
C803 C800 1.387 . S
C804 C805 1.387 . S
C804 H808 0.950 . S
C804 C813 1.390 . S
C805 C804 1.387 . S
C805 C807 1.387 1_455 S
H806 C813 0.950 . S
C807 C805 1.387 1_655 S
C807 C809 1.390 1_655 S
C807 H811 0.950 . S
H808 C804 0.950 . S
C809 C807 1.390 1_455 S
C809 C810 1.387 . S
C809 H812 0.950 . S
C810 C809 1.387 . S
C810 C813 1.387 . S
H811 C807 0.950 . S
H812 C809 0.950 . S
C813 C804 1.390 . S
C813 H806 0.950 . S
C813 C810 1.387 . S
C814 C815 1.387 . S
C814 H818 0.950 . S
C814 C823 1.390 . S
C815 C814 1.387 . S
C815 C817 1.387 . S
H816 C823 0.950 . S
C817 C815 1.387 . S
C817 C819 1.390 . S
C817 H821 0.950 . S
H818 C814 0.950 . S
C819 C817 1.390 . S
C819 C820 1.387 . S
C819 H822 0.950 . S
C820 C819 1.387 . S
C820 C823 1.387 . S
H821 C817 0.950 . S
H822 C819 0.950 . S
C823 C814 1.390 . S
C823 H816 0.950 . S
C823 C820 1.387 . S
C824 C825 1.387 . S
C824 H828 0.950 . S
C824 C833 1.390 . S
C825 C824 1.387 . S
C825 C827 1.387 . S
H826 C833 0.950 1_545 S
C827 C825 1.387 . S
C827 C829 1.390 . S
C827 H831 0.950 . S
H828 C824 0.950 . S
C829 C827 1.390 . S
C829 C830 1.387 . S
C829 H832 0.950 . S
C830 C829 1.387 . S
C830 C833 1.387 . S
H831 C827 0.950 . S
H832 C829 0.950 . S
C833 C824 1.390 . S
C833 H826 0.950 1_565 S
C833 C830 1.387 . S
C834 C835 1.387 . S
C834 H838 0.950 . S
C834 C843 1.390 . S
C835 C834 1.387 . S
C835 C837 1.387 . S
H836 C843 0.950 . S
C837 C835 1.387 . S
C837 C839 1.390 . S
C837 H841 0.950 . S
H838 C834 0.950 . S
C839 C837 1.390 . S
C839 C840 1.387 . S
C839 H842 0.950 . S
C840 C839 1.387 . S
C840 C843 1.387 . S
H841 C837 0.950 . S
H842 C839 0.950 . S
C843 C834 1.390 . S
C843 H836 0.950 . S
C843 C840 1.387 . S
C844 C845 1.387 . S
C844 H848 0.950 . S
C844 C853 1.390 . S
C845 C844 1.387 . S
C845 C847 1.387 . S
H846 C853 0.950 . S
C847 C845 1.387 . S
C847 C849 1.390 . S
C847 H851 0.950 . S
H848 C844 0.950 . S
C849 C847 1.390 . S
C849 C850 1.387 . S
C849 H852 0.950 . S
C850 C849 1.387 . S
C850 C853 1.387 . S
H851 C847 0.950 . S
H852 C849 0.950 . S
C853 C844 1.390 . S
C853 H846 0.950 . S
C853 C850 1.387 . S
C854 C855 1.387 . S
C854 H858 0.950 . S
C854 C863 1.390 . S
C855 C854 1.387 . S
C855 C857 1.387 . S
H856 C863 0.950 . S
C857 C855 1.387 . S
C857 C859 1.390 . S
C857 H861 0.950 . S
H858 C854 0.950 . S
C859 C857 1.390 . S
C859 C860 1.387 . S
C859 H862 0.950 . S
C860 C859 1.387 . S
C860 C863 1.387 . S
H861 C857 0.950 . S
H862 C859 0.950 . S
C863 C854 1.390 . S
C863 H856 0.950 . S
C863 C860 1.387 . S
C864 C865 1.387 . S
C864 H868 0.950 . S
C864 C873 1.390 . S
C865 C864 1.387 . S
C865 C867 1.387 . S
H866 C873 0.950 . S
C867 C865 1.387 . S
C867 C869 1.390 . S
C867 H871 0.950 . S
H868 C864 0.950 . S
C869 C867 1.390 . S
C869 C870 1.387 . S
C869 H872 0.950 . S
C870 C869 1.387 . S
C870 C873 1.387 . S
H871 C867 0.950 . S
H872 C869 0.950 . S
C873 C864 1.390 . S
C873 H866 0.950 . S
C873 C870 1.387 . S
C874 C875 1.387 . S
C874 H878 0.950 . S
C874 C883 1.390 . S
C875 C874 1.387 . S
C875 C877 1.387 . S
H876 C883 0.950 . S
C877 C875 1.387 . S
C877 C879 1.390 . S
C877 H881 0.950 . S
H878 C874 0.950 . S
C879 C877 1.390 . S
C879 C880 1.387 . S
C879 H882 0.950 . S
C880 C879 1.387 . S
C880 C883 1.387 . S
H881 C877 0.950 . S
H882 C879 0.950 . S
C883 C874 1.390 . S
C883 H876 0.950 . S
C883 C880 1.387 . S
C884 C885 1.387 . S
C884 H888 0.950 . S
C884 C893 1.390 . S
C885 C884 1.387 . S
C885 C887 1.387 . S
H886 C893 0.950 . S
C887 C885 1.387 . S
C887 C889 1.390 . S
C887 H891 0.950 . S
H888 C884 0.950 . S
C889 C887 1.390 . S
C889 C890 1.387 . S
C889 H892 0.950 . S
C890 C889 1.387 . S
C890 C893 1.387 . S
H891 C887 0.950 . S
H892 C889 0.950 . S
C893 C884 1.390 . S
C893 H886 0.950 . S
C893 C890 1.387 . S
C894 C895 1.387 . S
C894 H898 0.950 . S
C894 C903 1.390 . S
C895 C894 1.387 . S
C895 C897 1.387 . S
H896 C903 0.950 . S
C897 C895 1.387 . S
C897 C899 1.390 . S
C897 H901 0.950 . S
H898 C894 0.950 . S
C899 C897 1.390 . S
C899 C900 1.387 . S
C899 H902 0.950 . S
C900 C899 1.387 . S
C900 C903 1.387 . S
H901 C897 0.950 . S
H902 C899 0.950 . S
C903 C894 1.390 . S
C903 H896 0.950 . S
C903 C900 1.387 . S
C904 C905 1.387 . S
C904 H908 0.950 . S
C904 C913 1.390 . S
C905 C904 1.387 . S
C905 C907 1.387 . S
H906 C913 0.950 . S
C907 C905 1.387 . S
C907 C909 1.390 . S
C907 H911 0.950 . S
H908 C904 0.950 . S
C909 C907 1.390 . S
C909 C910 1.387 . S
C909 H912 0.950 . S
C910 C909 1.387 . S
C910 C913 1.387 . S
H911 C907 0.950 . S
H912 C909 0.950 . S
C913 C904 1.390 . S
C913 H906 0.950 . S
C913 C910 1.387 . S
C914 C915 1.387 . S
C914 H918 0.950 . S
C914 C923 1.390 . S
C915 C914 1.387 . S
C915 C917 1.387 . S
H916 C923 0.950 . S
C917 C915 1.387 . S
C917 C919 1.390 . S
C917 H921 0.950 . S
H918 C914 0.950 . S
C919 C917 1.390 . S
C919 C920 1.387 . S
C919 H922 0.950 . S
C920 C919 1.387 . S
C920 C923 1.387 . S
H921 C917 0.950 . S
H922 C919 0.950 . S
C923 C914 1.390 . S
C923 H916 0.950 . S
C923 C920 1.387 . S
C924 C925 1.387 . S
C924 H928 0.950 . S
C924 C933 1.390 . S
C925 C924 1.387 . S
C925 C927 1.387 . S
H926 C933 0.950 1_556 S
C927 C925 1.387 . S
C927 C929 1.390 . S
C927 H931 0.950 . S
H928 C924 0.950 . S
C929 C927 1.390 . S
C929 C930 1.387 . S
C929 H932 0.950 . S
C930 C929 1.387 . S
C930 C933 1.387 . S
H931 C927 0.950 . S
H932 C929 0.950 . S
C933 C924 1.390 . S
C933 H926 0.950 1_554 S
C933 C930 1.387 . S
C934 C935 1.387 . S
C934 H938 0.950 . S
C934 C943 1.390 . S
C935 C934 1.387 . S
C935 C937 1.387 . S
H936 C943 0.950 . S
C937 C935 1.387 . S
C937 C939 1.390 . S
C937 H941 0.950 . S
H938 C934 0.950 . S
C939 C937 1.390 . S
C939 C940 1.387 . S
C939 H942 0.950 . S
C940 C939 1.387 . S
C940 C943 1.387 . S
H941 C937 0.950 . S
H942 C939 0.950 . S
C943 C934 1.390 . S
C943 H936 0.950 . S
C943 C940 1.387 . S
C944 C945 1.387 . S
C944 H948 0.950 . S
C944 C953 1.390 . S
C945 C944 1.387 . S
C945 C947 1.387 . S
H946 C953 0.950 . S
C947 C945 1.387 . S
C947 C949 1.390 . S
C947 H951 0.950 1_554 S
H948 C944 0.950 . S
C949 C947 1.390 . S
C949 C950 1.387 . S
C949 H952 0.950 . S
C950 C949 1.387 . S
C950 C953 1.387 . S
H951 C947 0.950 1_556 S
H952 C949 0.950 . S
C953 C944 1.390 . S
C953 H946 0.950 . S
C953 C950 1.387 . S
C415 C18 1.022 1_556 S
C420 C62 1.046 . S
C425 C16 1.046 . S
C430 C41 1.022 1_556 S
C435 C64 1.021 1_556 S
C440 C39 1.045 . S
C445 C108 1.048 . S
C450 C87 1.025 . S
C455 C131 1.047 . S
C460 C110 1.025 . S
C465 C133 1.023 . S
C470 C85 1.046 . S
C475 C200 1.046 . S
C480 C156 1.023 . S
C485 C179 1.023 . S
C490 C154 1.046 . S
C495 C177 1.048 . S
C500 C202 1.025 . S
C505 C225 1.025 . S
C510 C246 1.048 . S
C515 C269 1.046 . S
C520 C248 1.023 . S
C525 C271 1.024 . S
C530 C223 1.047 . S
C535 C338 1.047 . S
C540 C294 1.025 . S
C545 C317 1.023 1_565 S
C550 C292 1.046 . S
C555 C340 1.025 1_455 S
C560 C315 1.048 . S
C565 C363 1.021 . S
C570 C384 1.045 . S
C575 C407 1.046 . S
C580 C386 1.022 1_565 S
C585 C361 1.047 . S
C590 C409 1.023 1_455 S
C595 C134 1.151 . S
C600 C20 1.167 . S
C605 C88 1.149 . S
C610 C43 1.166 . S
C615 C111 1.151 . S
C620 C66 1.165 . S
C625 C42 1.148 . S
C630 C89 1.168 . S
C635 C112 1.168 . S
C640 C65 1.147 . S
C645 C19 1.148 . S
C650 C135 1.167 . S
C655 C158 1.167 . S
C660 C272 1.148 . S
C665 C181 1.167 . S
C670 C226 1.147 . S
C675 C249 1.150 . S
C680 C204 1.167 . S
C685 C227 1.165 1_554 S
C690 C180 1.151 . S
C695 C250 1.168 1_554 S
C700 C203 1.147 . S
C705 C273 1.167 1_554 S
C710 C157 1.147 . S
C715 C296 1.166 . S
C720 C410 1.151 1_556 S
C725 C319 1.166 . S
C730 C364 1.151 1_556 S
C735 C342 1.167 . S
C740 C387 1.149 1_556 S
C745 C365 1.168 . S
C750 C318 1.147 . S
C755 C388 1.165 . S
C760 C341 1.149 . S
C765 C411 1.167 . S
C770 C295 1.148 . S
C775 C251 2.109 . S
C780 C17 2.068 1_565 S
C785 C40 2.071 1_455 S
C790 C274 2.111 . S
C795 C228 2.109 . S
C800 C63 2.069 . S
C805 C86 2.070 1_455 S
C810 C205 2.111 . S
C815 C109 2.070 . S
C820 C159 2.111 . S
C825 C182 2.111 . S
C830 C132 2.070 1_565 S
C835 C155 2.068 . S
C840 C389 2.109 1_455 S
C845 C178 2.068 . S
C850 C412 2.109 . S
C855 C201 2.068 . S
C860 C366 2.109 1_565 S
C865 C343 2.109 1_565 S
C870 C224 2.068 . S
C875 C297 2.111 1_455 S
C880 C247 2.070 . S
C885 C320 2.110 . S
C890 C270 2.069 . S
C895 C113 2.110 . S
C900 C293 2.070 . S
C905 C316 2.068 . S
C910 C136 2.109 . S
C915 C90 2.110 . S
C920 C339 2.070 . S
C925 C362 2.070 . S
C930 C67 2.110 . S
C935 C385 2.068 . S
C940 C21 2.109 . S
C945 C44 2.110 . S
C950 C408 2.069 . S
