# Generated by pormake.
# Topology ums, (4)-cn, num edge types: 1
# Building blocks:
#     Node 0, Type 0, BuildingBlock: NAHDIM_clean_sbu_0, # of connection points: 4
#     Node 1, Type 0, BuildingBlock: NAHDIM_clean_sbu_0, # of connection points: 4
#     Node 2, Type 0, BuildingBlock: NAHDIM_clean_sbu_0, # of connection points: 4
#     Node 3, Type 0, BuildingBlock: NAHDIM_clean_sbu_0, # of connection points: 4
#     Node 4, Type 0, BuildingBlock: NAHDIM_clean_sbu_0, # of connection points: 4
#     Node 5, Type 0, BuildingBlock: NAHDIM_clean_sbu_0, # of connection points: 4
#     Node 6, Type 0, BuildingBlock: NAHDIM_clean_sbu_0, # of connection points: 4
#     Node 7, Type 0, BuildingBlock: NAHDIM_clean_sbu_0, # of connection points: 4
#     Node 8, Type 0, BuildingBlock: NAHDIM_clean_sbu_0, # of connection points: 4
#     Node 9, Type 0, BuildingBlock: NAHDIM_clean_sbu_0, # of connection points: 4
#     Node 10, Type 0, BuildingBlock: NAHDIM_clean_sbu_0, # of connection points: 4
#     Node 11, Type 0, BuildingBlock: NAHDIM_clean_sbu_0, # of connection points: 4
#     Node 12, Type 0, BuildingBlock: NAHDIM_clean_sbu_0, # of connection points: 4
#     Node 13, Type 0, BuildingBlock: NAHDIM_clean_sbu_0, # of connection points: 4
#     Node 14, Type 0, BuildingBlock: NAHDIM_clean_sbu_0, # of connection points: 4
#     Node 15, Type 0, BuildingBlock: NAHDIM_clean_sbu_0, # of connection points: 4
#     Node 16, Type 0, BuildingBlock: NAHDIM_clean_sbu_0, # of connection points: 4
#     Node 17, Type 0, BuildingBlock: NAHDIM_clean_sbu_0, # of connection points: 4
#     Node 18, Type 0, BuildingBlock: NAHDIM_clean_sbu_0, # of connection points: 4
#     Node 19, Type 0, BuildingBlock: NAHDIM_clean_sbu_0, # of connection points: 4
#     Node 20, Type 0, BuildingBlock: NAHDIM_clean_sbu_0, # of connection points: 4
#     Node 21, Type 0, BuildingBlock: NAHDIM_clean_sbu_0, # of connection points: 4
#     Node 22, Type 0, BuildingBlock: NAHDIM_clean_sbu_0, # of connection points: 4
#     Node 23, Type 0, BuildingBlock: NAHDIM_clean_sbu_0, # of connection points: 4
#     Node 24, Type 0, BuildingBlock: NAHDIM_clean_sbu_0, # of connection points: 4
#     Node 25, Type 0, BuildingBlock: NAHDIM_clean_sbu_0, # of connection points: 4
#     Node 26, Type 0, BuildingBlock: NAHDIM_clean_sbu_0, # of connection points: 4
#     Node 27, Type 0, BuildingBlock: NAHDIM_clean_sbu_0, # of connection points: 4
#     Node 28, Type 0, BuildingBlock: NAHDIM_clean_sbu_0, # of connection points: 4
#     Node 29, Type 0, BuildingBlock: NAHDIM_clean_sbu_0, # of connection points: 4
#     Node 30, Type 0, BuildingBlock: NAHDIM_clean_sbu_0, # of connection points: 4
#     Node 31, Type 0, BuildingBlock: NAHDIM_clean_sbu_0, # of connection points: 4
#     Node 32, Type 0, BuildingBlock: NAHDIM_clean_sbu_0, # of connection points: 4
#     Node 33, Type 0, BuildingBlock: NAHDIM_clean_sbu_0, # of connection points: 4
#     Node 34, Type 0, BuildingBlock: NAHDIM_clean_sbu_0, # of connection points: 4
#     Node 35, Type 0, BuildingBlock: NAHDIM_clean_sbu_0, # of connection points: 4
#     Edge 36, Type (0, 0), BuildingBlock: TEMPAE_clean_linker_10, # of connection points: 2
#     Edge 37, Type (0, 0), BuildingBlock: TEMPAE_clean_linker_10, # of connection points: 2
#     Edge 38, Type (0, 0), BuildingBlock: TEMPAE_clean_linker_10, # of connection points: 2
#     Edge 39, Type (0, 0), BuildingBlock: TEMPAE_clean_linker_10, # of connection points: 2
#     Edge 40, Type (0, 0), BuildingBlock: TEMPAE_clean_linker_10, # of connection points: 2
#     Edge 41, Type (0, 0), BuildingBlock: TEMPAE_clean_linker_10, # of connection points: 2
#     Edge 42, Type (0, 0), BuildingBlock: TEMPAE_clean_linker_10, # of connection points: 2
#     Edge 43, Type (0, 0), BuildingBlock: TEMPAE_clean_linker_10, # of connection points: 2
#     Edge 44, Type (0, 0), BuildingBlock: TEMPAE_clean_linker_10, # of connection points: 2
#     Edge 45, Type (0, 0), BuildingBlock: TEMPAE_clean_linker_10, # of connection points: 2
#     Edge 46, Type (0, 0), BuildingBlock: TEMPAE_clean_linker_10, # of connection points: 2
#     Edge 47, Type (0, 0), BuildingBlock: TEMPAE_clean_linker_10, # of connection points: 2
#     Edge 48, Type (0, 0), BuildingBlock: TEMPAE_clean_linker_10, # of connection points: 2
#     Edge 49, Type (0, 0), BuildingBlock: TEMPAE_clean_linker_10, # of connection points: 2
#     Edge 50, Type (0, 0), BuildingBlock: TEMPAE_clean_linker_10, # of connection points: 2
#     Edge 51, Type (0, 0), BuildingBlock: TEMPAE_clean_linker_10, # of connection points: 2
#     Edge 52, Type (0, 0), BuildingBlock: TEMPAE_clean_linker_10, # of connection points: 2
#     Edge 53, Type (0, 0), BuildingBlock: TEMPAE_clean_linker_10, # of connection points: 2
#     Edge 54, Type (0, 0), BuildingBlock: TEMPAE_clean_linker_10, # of connection points: 2
#     Edge 55, Type (0, 0), BuildingBlock: TEMPAE_clean_linker_10, # of connection points: 2
#     Edge 56, Type (0, 0), BuildingBlock: TEMPAE_clean_linker_10, # of connection points: 2
#     Edge 57, Type (0, 0), BuildingBlock: TEMPAE_clean_linker_10, # of connection points: 2
#     Edge 58, Type (0, 0), BuildingBlock: TEMPAE_clean_linker_10, # of connection points: 2
#     Edge 59, Type (0, 0), BuildingBlock: TEMPAE_clean_linker_10, # of connection points: 2
#     Edge 60, Type (0, 0), BuildingBlock: TEMPAE_clean_linker_10, # of connection points: 2
#     Edge 61, Type (0, 0), BuildingBlock: TEMPAE_clean_linker_10, # of connection points: 2
#     Edge 62, Type (0, 0), BuildingBlock: TEMPAE_clean_linker_10, # of connection points: 2
#     Edge 63, Type (0, 0), BuildingBlock: TEMPAE_clean_linker_10, # of connection points: 2
#     Edge 64, Type (0, 0), BuildingBlock: TEMPAE_clean_linker_10, # of connection points: 2
#     Edge 65, Type (0, 0), BuildingBlock: TEMPAE_clean_linker_10, # of connection points: 2
#     Edge 66, Type (0, 0), BuildingBlock: TEMPAE_clean_linker_10, # of connection points: 2
#     Edge 67, Type (0, 0), BuildingBlock: TEMPAE_clean_linker_10, # of connection points: 2
#     Edge 68, Type (0, 0), BuildingBlock: TEMPAE_clean_linker_10, # of connection points: 2
#     Edge 69, Type (0, 0), BuildingBlock: TEMPAE_clean_linker_10, # of connection points: 2
#     Edge 70, Type (0, 0), BuildingBlock: TEMPAE_clean_linker_10, # of connection points: 2
#     Edge 71, Type (0, 0), BuildingBlock: TEMPAE_clean_linker_10, # of connection points: 2
#     Edge 72, Type (0, 0), BuildingBlock: TEMPAE_clean_linker_10, # of connection points: 2
#     Edge 73, Type (0, 0), BuildingBlock: TEMPAE_clean_linker_10, # of connection points: 2
#     Edge 74, Type (0, 0), BuildingBlock: TEMPAE_clean_linker_10, # of connection points: 2
#     Edge 75, Type (0, 0), BuildingBlock: TEMPAE_clean_linker_10, # of connection points: 2
#     Edge 76, Type (0, 0), BuildingBlock: TEMPAE_clean_linker_10, # of connection points: 2
#     Edge 77, Type (0, 0), BuildingBlock: TEMPAE_clean_linker_10, # of connection points: 2
#     Edge 78, Type (0, 0), BuildingBlock: TEMPAE_clean_linker_10, # of connection points: 2
#     Edge 79, Type (0, 0), BuildingBlock: TEMPAE_clean_linker_10, # of connection points: 2
#     Edge 80, Type (0, 0), BuildingBlock: TEMPAE_clean_linker_10, # of connection points: 2
#     Edge 81, Type (0, 0), BuildingBlock: TEMPAE_clean_linker_10, # of connection points: 2
#     Edge 82, Type (0, 0), BuildingBlock: TEMPAE_clean_linker_10, # of connection points: 2
#     Edge 83, Type (0, 0), BuildingBlock: TEMPAE_clean_linker_10, # of connection points: 2
#     Edge 84, Type (0, 0), BuildingBlock: TEMPAE_clean_linker_10, # of connection points: 2
#     Edge 85, Type (0, 0), BuildingBlock: TEMPAE_clean_linker_10, # of connection points: 2
#     Edge 86, Type (0, 0), BuildingBlock: TEMPAE_clean_linker_10, # of connection points: 2
#     Edge 87, Type (0, 0), BuildingBlock: TEMPAE_clean_linker_10, # of connection points: 2
#     Edge 88, Type (0, 0), BuildingBlock: TEMPAE_clean_linker_10, # of connection points: 2
#     Edge 89, Type (0, 0), BuildingBlock: TEMPAE_clean_linker_10, # of connection points: 2
#     Edge 90, Type (0, 0), BuildingBlock: TEMPAE_clean_linker_10, # of connection points: 2
#     Edge 91, Type (0, 0), BuildingBlock: TEMPAE_clean_linker_10, # of connection points: 2
#     Edge 92, Type (0, 0), BuildingBlock: TEMPAE_clean_linker_10, # of connection points: 2
#     Edge 93, Type (0, 0), BuildingBlock: TEMPAE_clean_linker_10, # of connection points: 2
#     Edge 94, Type (0, 0), BuildingBlock: TEMPAE_clean_linker_10, # of connection points: 2
#     Edge 95, Type (0, 0), BuildingBlock: TEMPAE_clean_linker_10, # of connection points: 2
#     Edge 96, Type (0, 0), BuildingBlock: TEMPAE_clean_linker_10, # of connection points: 2
#     Edge 97, Type (0, 0), BuildingBlock: TEMPAE_clean_linker_10, # of connection points: 2
#     Edge 98, Type (0, 0), BuildingBlock: TEMPAE_clean_linker_10, # of connection points: 2
#     Edge 99, Type (0, 0), BuildingBlock: TEMPAE_clean_linker_10, # of connection points: 2
#     Edge 100, Type (0, 0), BuildingBlock: TEMPAE_clean_linker_10, # of connection points: 2
#     Edge 101, Type (0, 0), BuildingBlock: TEMPAE_clean_linker_10, # of connection points: 2
#     Edge 102, Type (0, 0), BuildingBlock: TEMPAE_clean_linker_10, # of connection points: 2
#     Edge 103, Type (0, 0), BuildingBlock: TEMPAE_clean_linker_10, # of connection points: 2
#     Edge 104, Type (0, 0), BuildingBlock: TEMPAE_clean_linker_10, # of connection points: 2
#     Edge 105, Type (0, 0), BuildingBlock: TEMPAE_clean_linker_10, # of connection points: 2
#     Edge 106, Type (0, 0), BuildingBlock: TEMPAE_clean_linker_10, # of connection points: 2
#     Edge 107, Type (0, 0), BuildingBlock: TEMPAE_clean_linker_10, # of connection points: 2
# Relax obj value: 0.131
# Max RMSD: 0.119
# Mean RMSD: 0.114
data_MOF--net-ums--node1-NAHDIM_clean_sbu_0--edge1-TEMPAE_clean_linker_10
_symmetry_space_group_name_H-M    P1
_symmetry_Int_Tables_number       1
_symmetry_cell_setting            triclinic
loop_
_symmetry_equiv_pos_as_xyz
'x, y, z'
_cell_length_a     102.03545
_cell_length_b     102.02149
_cell_length_c     23.951585
_cell_angle_alpha  90.01483
_cell_angle_beta   89.992672
_cell_angle_gamma 119.99319
loop_
_atom_site_label
_atom_site_type_symbol
_atom_site_fract_x
_atom_site_fract_y
_atom_site_fract_z
_atom_type_partial_charge
C0 C 0.1828 0.23434 0.15386 0.0
O1 O 0.18715 0.24818 0.17059 0.0
O2 O 0.17362 0.26036 0.09131 0.0
Zn3 Zn 0.15942 0.23807 0.10511 0.0
O4 O 0.14581 0.23551 0.16973 0.0
C5 C 0.15288 0.23347 0.98849 0.0
O6 O 0.16768 0.24189 0.98534 0.0
O7 O 0.17107 0.2275 0.12338 0.0
C8 C 0.1361 0.23979 0.16608 0.0
O9 O 0.13485 0.24566 0.11892 0.0
C10 C 0.17637 0.27046 0.12782 0.0
O11 O 0.17022 0.26636 0.17756 0.0
O12 O 0.14671 0.22961 0.03629 0.0
C13 C 0.75563 0.94277 0.17191 0.0
O14 O 0.74186 0.93378 0.19051 0.0
O15 O 0.72642 0.90988 0.1067 0.0
Zn16 Zn 0.74865 0.91626 0.11026 0.0
O17 O 0.75191 0.90347 0.16587 0.0
C18 C 0.74669 0.89951 0.01546 0.0
O19 O 0.7355 0.88951 0.04629 0.0
O20 O 0.76108 0.93789 0.135 0.0
C21 C 0.76335 0.90164 0.16445 0.0
O22 O 0.77356 0.90836 0.1252 0.0
C23 C 0.71649 0.89789 0.13082 0.0
O24 O 0.72087 0.88993 0.16041 0.0
O25 O 0.75484 0.91284 0.03434 0.0
C26 C 0.04934 0.81882 0.15247 0.0
O27 O 0.06032 0.81752 0.17549 0.0
O28 O 0.08152 0.82402 0.07602 0.0
Zn29 Zn 0.07422 0.83884 0.08893 0.0
O30 O 0.08594 0.85236 0.15293 0.0
C31 C 0.07534 0.84464 0.97199 0.0
O32 O 0.06867 0.8298 0.96998 0.0
O33 O 0.05236 0.82763 0.11093 0.0
C34 C 0.09738 0.86551 0.14749 0.0
O35 O 0.10201 0.87108 0.09723 0.0
C36 C 0.09561 0.82919 0.06912 0.0
O37 O 0.10481 0.8439 0.07067 0.0
O38 O 0.07808 0.85111 0.0193 0.0
C39 C 0.23744 0.1824 0.30421 0.0
O40 O 0.24637 0.17989 0.27196 0.0
O41 O 0.26993 0.18378 0.38561 0.0
Zn42 Zn 0.24766 0.16846 0.3809 0.0
O43 O 0.24469 0.15248 0.32542 0.0
C44 C 0.25008 0.15567 0.48111 0.0
O45 O 0.26299 0.1593 0.45666 0.0
O46 O 0.23599 0.17842 0.35517 0.0
C47 C 0.23322 0.13924 0.32576 0.0
O48 O 0.22276 0.13564 0.36409 0.0
C49 C 0.27902 0.18577 0.34593 0.0
O50 O 0.27365 0.17833 0.29897 0.0
O51 O 0.24083 0.15861 0.45628 0.0
C52 C 0.8175 0.04737 0.33496 0.0
O53 O 0.82275 0.05907 0.30129 0.0
O54 O 0.81401 0.07812 0.41622 0.0
Zn55 Zn 0.82961 0.07148 0.41177 0.0
O56 O 0.84625 0.08412 0.35663 0.0
C57 C 0.84364 0.08868 0.50439 0.0
O58 O 0.84204 0.09791 0.4705 0.0
O59 O 0.81939 0.04964 0.38732 0.0
C60 C 0.84799 0.09612 0.33374 0.0
O61 O 0.83884 0.10121 0.34685 0.0
C62 C 0.80629 0.07915 0.37658 0.0
O63 O 0.80794 0.07541 0.32568 0.0
O64 O 0.83902 0.07518 0.4883 0.0
C65 C 0.94526 0.76306 0.324 0.0
O66 O 0.93439 0.75112 0.29885 0.0
O67 O 0.91633 0.73268 0.40415 0.0
Zn68 Zn 0.92114 0.75439 0.39744 0.0
O69 O 0.90721 0.75565 0.34127 0.0
C70 C 0.90503 0.75094 0.49482 0.0
O71 O 0.89626 0.7384 0.46736 0.0
O72 O 0.94245 0.76719 0.37042 0.0
C73 C 0.90235 0.76492 0.34371 0.0
O74 O 0.9066 0.77463 0.38518 0.0
C75 C 0.90658 0.72232 0.3729 0.0
O76 O 0.90011 0.72594 0.33311 0.0
O77 O 0.91742 0.76073 0.47261 0.0
C78 C 0.80976 0.75582 0.83911 0.0
O79 O 0.81009 0.74462 0.81333 0.0
O80 O 0.81616 0.729 0.91531 0.0
Zn81 Zn 0.82963 0.75156 0.90648 0.0
O82 O 0.84435 0.75568 0.84414 0.0
C83 C 0.8346 0.75514 0.02474 0.0
O84 O 0.82019 0.74479 0.02596 0.0
O85 O 0.81725 0.76093 0.88402 0.0
C86 C 0.85792 0.75863 0.85061 0.0
O87 O 0.8631 0.75904 0.90117 0.0
C88 C 0.82205 0.72058 0.91551 0.0
O89 O 0.83677 0.72681 0.90977 0.0
O90 O 0.84095 0.76024 0.97788 0.0
C91 C 0.23404 0.04777 0.83834 0.0
O92 O 0.24727 0.05835 0.81981 0.0
O93 O 0.25893 0.08146 0.90684 0.0
Zn94 Zn 0.23672 0.0734 0.89262 0.0
O95 O 0.2344 0.08454 0.82754 0.0
C96 C 0.23163 0.07444 0.00921 0.0
O97 O 0.24016 0.06817 0.01173 0.0
O98 O 0.22687 0.05139 0.8726 0.0
C99 C 0.23243 0.09584 0.83282 0.0
O100 O 0.23161 0.10056 0.88305 0.0
C101 C 0.26801 0.09565 0.90815 0.0
O102 O 0.26273 0.10488 0.89968 0.0
O103 O 0.22787 0.07701 0.96167 0.0
C104 C 0.94361 0.18365 0.84395 0.0
O105 O 0.93204 0.1826 0.81599 0.0
O106 O 0.91095 0.17957 0.91865 0.0
Zn107 Zn 0.91948 0.16544 0.915 0.0
O108 O 0.90819 0.14915 0.85776 0.0
C109 C 0.91325 0.14244 0.99855 0.0
O110 O 0.9126 0.13422 0.95528 0.0
O111 O 0.94123 0.17709 0.89104 0.0
C112 C 0.89431 0.13911 0.86214 0.0
O113 O 0.88669 0.13906 0.90646 0.0
C114 C 0.90162 0.1795 0.88326 0.0
O115 O 0.89751 0.17019 0.84057 0.0
O116 O 0.91686 0.15617 0.99126 0.0
C117 C 0.76183 0.81071 0.65818 0.0
O118 O 0.74943 0.8096 0.67921 0.0
O119 O 0.73716 0.81945 0.58176 0.0
Zn120 Zn 0.75956 0.83284 0.59629 0.0
O121 O 0.76281 0.84718 0.65907 0.0
C122 C 0.76525 0.83846 0.47941 0.0
O123 O 0.75639 0.8237 0.4771 0.0
O124 O 0.76859 0.82013 0.61904 0.0
C125 C 0.75984 0.85782 0.65412 0.0
O126 O 0.75474 0.8597 0.60616 0.0
C127 C 0.72707 0.81838 0.61561 0.0
O128 O 0.73121 0.82591 0.66286 0.0
O129 O 0.76893 0.84486 0.52685 0.0
C130 C 0.1872 0.94275 0.67562 0.0
O131 O 0.18595 0.9313 0.70502 0.0
O132 O 0.18521 0.91052 0.59506 0.0
Zn133 Zn 0.17104 0.9188 0.59992 0.0
O134 O 0.15491 0.90629 0.65552 0.0
C135 C 0.15817 0.90451 0.49822 0.0
O136 O 0.16148 0.8948 0.52093 0.0
O137 O 0.18175 0.94031 0.62653 0.0
C138 C 0.14204 0.9054 0.65544 0.0
O139 O 0.13906 0.91283 0.61745 0.0
C140 C 0.19951 0.91799 0.59017 0.0
O141 O 0.20655 0.93285 0.58993 0.0
O142 O 0.16133 0.91653 0.52475 0.0
C143 C 0.04877 0.24198 0.68225 0.0
O144 O 0.05882 0.25445 0.70726 0.0
O145 O 0.08088 0.27185 0.61279 0.0
Zn146 Zn 0.07462 0.24971 0.61688 0.0
O147 O 0.08731 0.24678 0.67407 0.0
C148 C 0.09217 0.25209 0.52454 0.0
O149 O 0.10168 0.2634 0.55619 0.0
O150 O 0.05278 0.23736 0.63979 0.0
C151 C 0.08913 0.23534 0.67385 0.0
O152 O 0.08248 0.22497 0.63502 0.0
C153 C 0.08867 0.28119 0.65094 0.0
O154 O 0.09234 0.27624 0.69554 0.0
O155 O 0.07872 0.24366 0.54184 0.0
C156 C 0.85873 0.57388 0.52054 0.0
O157 O 0.86034 0.58591 0.54674 0.0
O158 O 0.8554 0.60294 0.451 0.0
Zn159 Zn 0.83982 0.58075 0.45759 0.0
O160 O 0.82479 0.57786 0.51735 0.0
C161 C 0.82359 0.58274 0.36872 0.0
O162 O 0.8252 0.59369 0.40202 0.0
O163 O 0.8501 0.56905 0.47815 0.0
C164 C 0.811 0.56744 0.51641 0.0
O165 O 0.80612 0.55764 0.47515 0.0
C166 C 0.85509 0.61288 0.48213 0.0
O167 O 0.84485 0.60855 0.52173 0.0
O168 O 0.82904 0.57449 0.3838 0.0
C169 C 0.42583 0.27729 0.51557 0.0
O170 O 0.41329 0.26635 0.53735 0.0
O171 O 0.39945 0.24623 0.42938 0.0
Zn172 Zn 0.421 0.25272 0.44892 0.0
O173 O 0.42076 0.23963 0.51164 0.0
C174 C 0.42793 0.25175 0.33372 0.0
O175 O 0.41962 0.25816 0.32732 0.0
O176 O 0.43173 0.27432 0.47427 0.0
C177 C 0.43223 0.24332 0.54237 0.0
O178 O 0.44476 0.25617 0.53301 0.0
C179 C 0.39026 0.23213 0.42449 0.0
O180 O 0.39527 0.22264 0.4321 0.0
O181 O 0.43076 0.24913 0.38276 0.0
C182 C 0.72051 0.14502 0.5097 0.0
O183 O 0.73098 0.14361 0.53646 0.0
O184 O 0.75099 0.14474 0.43649 0.0
Zn185 Zn 0.74553 0.16123 0.43955 0.0
O186 O 0.75877 0.17695 0.49573 0.0
C187 C 0.76259 0.17621 0.34526 0.0
O188 O 0.77274 0.17581 0.37777 0.0
O189 O 0.72397 0.15236 0.46409 0.0
C190 C 0.76287 0.19091 0.49216 0.0
O191 O 0.75822 0.19569 0.4498 0.0
C192 C 0.7637 0.14708 0.45455 0.0
O193 O 0.77306 0.16017 0.47758 0.0
O194 O 0.74911 0.17061 0.36309 0.0
C195 C 0.91403 0.52144 0.65948 0.0
O196 O 0.9256 0.52258 0.6312 0.0
O197 O 0.94366 0.51782 0.72602 0.0
Zn198 Zn 0.92123 0.50278 0.72341 0.0
O199 O 0.91693 0.48698 0.66517 0.0
C200 C 0.92256 0.48636 0.81408 0.0
O201 O 0.93292 0.48671 0.78055 0.0
O202 O 0.90981 0.51338 0.70339 0.0
C203 C 0.90529 0.47385 0.66643 0.0
O204 O 0.89543 0.47035 0.707 0.0
C205 C 0.95319 0.51537 0.70074 0.0
O206 O 0.94828 0.50308 0.67031 0.0
O207 O 0.91518 0.49271 0.79852 0.0
C208 C 0.47782 0.38286 0.67461 0.0
O209 O 0.47731 0.39366 0.64664 0.0
O210 O 0.48687 0.41856 0.74297 0.0
Zn211 Zn 0.49949 0.40844 0.73486 0.0
O212 O 0.51429 0.41829 0.67235 0.0
C213 C 0.50494 0.41034 0.85282 0.0
O214 O 0.49041 0.40575 0.85479 0.0
O215 O 0.4865 0.38636 0.71678 0.0
C216 C 0.52475 0.43202 0.67601 0.0
O217 O 0.52594 0.4396 0.7219 0.0
C218 C 0.48514 0.42581 0.70318 0.0
O219 O 0.49134 0.42641 0.65449 0.0
O220 O 0.51117 0.41167 0.80564 0.0
C221 C 0.6142 0.09562 0.66151 0.0
O222 O 0.60352 0.08366 0.63576 0.0
O223 O 0.58242 0.06656 0.7336 0.0
Zn224 Zn 0.58891 0.08873 0.72724 0.0
O225 O 0.57635 0.09133 0.66845 0.0
C226 C 0.57134 0.08625 0.81885 0.0
O227 O 0.56207 0.07486 0.78702 0.0
O228 O 0.61077 0.10046 0.70484 0.0
C229 C 0.572 0.10102 0.67045 0.0
O230 O 0.57609 0.11044 0.71281 0.0
C231 C 0.57307 0.05678 0.69962 0.0
O232 O 0.56813 0.06129 0.65732 0.0
O233 O 0.58474 0.09502 0.80165 0.0
C234 C 0.47599 0.09062 0.17485 0.0
O235 O 0.4761 0.0793 0.14902 0.0
O236 O 0.48556 0.06549 0.24601 0.0
Zn237 Zn 0.49812 0.08822 0.23661 0.0
O238 O 0.51301 0.09334 0.17412 0.0
C239 C 0.50364 0.09204 0.35469 0.0
O240 O 0.4893 0.0815 0.35686 0.0
O241 O 0.48463 0.09657 0.21671 0.0
C242 C 0.52471 0.09207 0.17927 0.0
O243 O 0.52729 0.08745 0.22709 0.0
C244 C 0.48615 0.0562 0.21212 0.0
O245 O 0.49501 0.0614 0.16824 0.0
O246 O 0.50968 0.09717 0.30742 0.0
C247 C 0.88538 0.37775 0.198 0.0
O248 O 0.87723 0.38444 0.19746 0.0
O249 O 0.93026 0.41552 0.25222 0.0
Zn250 Zn 0.908 0.40675 0.23767 0.0
O251 O 0.90529 0.41791 0.17395 0.0
C252 C 0.90234 0.40742 0.35416 0.0
O253 O 0.91113 0.40146 0.35745 0.0
O254 O 0.89888 0.38497 0.21604 0.0
C255 C 0.91055 0.43211 0.17656 0.0
O256 O 0.91749 0.43939 0.22229 0.0
C257 C 0.93998 0.4213 0.21333 0.0
O258 O 0.93536 0.42114 0.162 0.0
O259 O 0.89865 0.40987 0.30628 0.0
C260 C 0.61323 0.51792 0.15609 0.0
O261 O 0.60232 0.51873 0.13004 0.0
O262 O 0.58245 0.51661 0.23223 0.0
Zn263 Zn 0.58849 0.50062 0.22514 0.0
O264 O 0.57569 0.48545 0.16679 0.0
C265 C 0.57085 0.48463 0.31542 0.0
O266 O 0.5613 0.48602 0.28257 0.0
O267 O 0.61018 0.51041 0.20124 0.0
C268 C 0.57213 0.4716 0.16807 0.0
O269 O 0.57718 0.46673 0.2089 0.0
C270 C 0.57091 0.51541 0.20724 0.0
O271 O 0.5631 0.50382 0.174 0.0
O272 O 0.58448 0.49014 0.29948 0.0
C273 C 0.41665 0.13724 0.02162 0.0
O274 O 0.40483 0.13583 0.04882 0.0
O275 O 0.38867 0.14411 0.95259 0.0
Zn276 Zn 0.41118 0.15785 0.96161 0.0
O277 O 0.41515 0.17248 0.02413 0.0
C278 C 0.41402 0.17901 0.88285 0.0
O279 O 0.40474 0.1795 0.91974 0.0
O280 O 0.42155 0.14607 0.97978 0.0
C281 C 0.42752 0.18497 0.02763 0.0
O282 O 0.43815 0.18822 0.99029 0.0
C283 C 0.37935 0.14264 0.99067 0.0
O284 O 0.38453 0.14968 0.03846 0.0
O285 O 0.41893 0.1699 0.89091 0.0
C286 C 0.84537 0.27638 0.01019 0.0
O287 O 0.84168 0.2642 0.03998 0.0
O288 O 0.84583 0.24523 0.92313 0.0
Zn289 Zn 0.83155 0.25351 0.93006 0.0
O290 O 0.81539 0.2414 0.98629 0.0
C291 C 0.82812 0.25247 0.81049 0.0
O292 O 0.84248 0.25631 0.81143 0.0
O293 O 0.84257 0.27495 0.95811 0.0
C294 C 0.80547 0.22752 0.98085 0.0
O295 O 0.80528 0.22031 0.93513 0.0
C296 C 0.84638 0.23641 0.95938 0.0
O297 O 0.83785 0.23296 0.00413 0.0
O298 O 0.82138 0.25139 0.8563 0.0
C299 C 0.71977 0.57128 0.00569 0.0
O300 O 0.73013 0.58322 0.03246 0.0
O301 O 0.75515 0.59859 0.9391 0.0
Zn302 Zn 0.74601 0.57596 0.94816 0.0
O303 O 0.75621 0.57185 0.01181 0.0
C304 C 0.74877 0.57251 0.8306 0.0
O305 O 0.74378 0.58213 0.8276 0.0
O306 O 0.72379 0.56599 0.96533 0.0
C307 C 0.77011 0.57572 0.00882 0.0
O308 O 0.77766 0.58219 0.96295 0.0
C309 C 0.76209 0.60782 0.97862 0.0
O310 O 0.76302 0.60253 0.02758 0.0
O311 O 0.75 0.56774 0.87818 0.0
C312 C 0.51665 0.90694 0.84213 0.0
O313 O 0.51774 0.91888 0.86745 0.0
O314 O 0.51528 0.93634 0.7673 0.0
Zn315 Zn 0.49935 0.91422 0.77169 0.0
O316 O 0.48342 0.91145 0.82736 0.0
C317 C 0.48572 0.91672 0.67525 0.0
O318 O 0.48727 0.92814 0.70562 0.0
O319 O 0.509 0.90235 0.79732 0.0
C320 C 0.46931 0.90228 0.82231 0.0
O321 O 0.46427 0.89351 0.77811 0.0
C322 C 0.51432 0.94634 0.79581 0.0
O323 O 0.50303 0.94213 0.83095 0.0
O324 O 0.49008 0.90802 0.69541 0.0
C325 C 0.09919 0.61696 0.83538 0.0
O326 O 0.08744 0.6056 0.85952 0.0
O327 O 0.07406 0.5831 0.76027 0.0
Zn328 Zn 0.09654 0.59235 0.77369 0.0
O329 O 0.10001 0.58155 0.83693 0.0
C330 C 0.10112 0.59099 0.65664 0.0
O331 O 0.0918 0.59635 0.65426 0.0
O332 O 0.10548 0.61425 0.79468 0.0
C333 C 0.09649 0.56776 0.8324 0.0
O334 O 0.09088 0.56068 0.78497 0.0
C335 C 0.06409 0.57449 0.79529 0.0
O336 O 0.06839 0.57171 0.84339 0.0
O337 O 0.10559 0.58924 0.7041 0.0
C338 C 0.38726 0.47531 0.83282 0.0
O339 O 0.39807 0.47415 0.85802 0.0
O340 O 0.4217 0.48369 0.76604 0.0
Zn341 Zn 0.41287 0.49736 0.77573 0.0
O342 O 0.42297 0.51122 0.84095 0.0
C343 C 0.41615 0.50388 0.6584 0.0
O344 O 0.41204 0.48947 0.65531 0.0
O345 O 0.39075 0.48478 0.79321 0.0
C346 C 0.43404 0.52463 0.83586 0.0
O347 O 0.43925 0.52996 0.78582 0.0
C348 C 0.43596 0.4893 0.7641 0.0
O349 O 0.44474 0.50403 0.76866 0.0
O350 O 0.41667 0.50965 0.70592 0.0
C351 C 0.56857 0.85295 0.99812 0.0
O352 O 0.58039 0.85405 0.97193 0.0
O353 O 0.59597 0.84664 0.07298 0.0
Zn354 Zn 0.57359 0.83252 0.06084 0.0
O355 O 0.5706 0.81823 0.99819 0.0
C356 C 0.56861 0.8272 0.1781 0.0
O357 O 0.57694 0.84203 0.17958 0.0
O358 O 0.56337 0.84426 0.04022 0.0
C359 C 0.57461 0.80833 0.00288 0.0
O360 O 0.58043 0.80719 0.05032 0.0
C361 C 0.60583 0.84857 0.03649 0.0
O362 O 0.60139 0.84162 0.98818 0.0
O363 O 0.56507 0.82058 0.13103 0.0
C364 C 0.14142 0.72318 0.98221 0.0
O365 O 0.14089 0.73341 0.95046 0.0
O366 O 0.14532 0.75777 0.04785 0.0
Zn367 Zn 0.15972 0.74966 0.04391 0.0
O368 O 0.17453 0.7599 0.98164 0.0
C369 C 0.17854 0.76882 0.12737 0.0
O370 O 0.17857 0.77839 0.09054 0.0
O371 O 0.14872 0.72734 0.02787 0.0
C372 C 0.18567 0.75778 0.97437 0.0
O373 O 0.18771 0.74902 0.00928 0.0
C374 C 0.14335 0.76463 0.00729 0.0
O375 O 0.15033 0.7659 0.95979 0.0
O376 O 0.17101 0.75474 0.11666 0.0
C377 C 0.27984 0.41797 0.97369 0.0
O378 O 0.26935 0.40647 0.94535 0.0
O379 O 0.24491 0.39031 0.04244 0.0
Zn380 Zn 0.25371 0.4128 0.03168 0.0
O381 O 0.24383 0.41658 0.96603 0.0
C382 C 0.23624 0.4198 0.10439 0.0
O383 O 0.22658 0.4132 0.06339 0.0
O384 O 0.27593 0.42282 0.01571 0.0
C385 C 0.2454 0.42958 0.95729 0.0
O386 O 0.25405 0.44081 0.99084 0.0
C387 C 0.23134 0.38123 0.02777 0.0
O388 O 0.22346 0.38668 0.00409 0.0
O389 O 0.24933 0.42123 0.10081 0.0
C390 C 0.14737 0.42598 0.48144 0.0
O391 O 0.14606 0.41406 0.45525 0.0
O392 O 0.15441 0.39909 0.55944 0.0
Zn393 Zn 0.16823 0.42106 0.54154 0.0
O394 O 0.1805 0.42177 0.4754 0.0
C395 C 0.17775 0.42955 0.65556 0.0
O396 O 0.16312 0.42266 0.66509 0.0
O397 O 0.15645 0.43135 0.52243 0.0
C398 C 0.19018 0.43404 0.45231 0.0
O399 O 0.19224 0.44697 0.47182 0.0
C400 C 0.14116 0.39334 0.5797 0.0
O401 O 0.13546 0.4021 0.59059 0.0
O402 O 0.18242 0.43082 0.60564 0.0
C403 C 0.56909 0.72501 0.47025 0.0
O404 O 0.57517 0.73646 0.43529 0.0
O405 O 0.60678 0.75511 0.54752 0.0
Zn406 Zn 0.58466 0.74917 0.54704 0.0
O407 O 0.5815 0.76266 0.4944 0.0
C408 C 0.58783 0.76584 0.6432 0.0
O409 O 0.59906 0.77565 0.61198 0.0
O410 O 0.57168 0.72755 0.52222 0.0
C411 C 0.57025 0.76477 0.49631 0.0
O412 O 0.55989 0.75793 0.53502 0.0
C413 C 0.61645 0.76619 0.51854 0.0
O414 O 0.6118 0.77326 0.48521 0.0
O415 O 0.57925 0.75261 0.62417 0.0
C416 C 0.28829 0.85781 0.5416 0.0
O417 O 0.28281 0.86602 0.56214 0.0
O418 O 0.25098 0.84841 0.56941 0.0
Zn419 Zn 0.25771 0.83312 0.55832 0.0
O420 O 0.24601 0.81973 0.4939 0.0
C421 C 0.24643 0.80673 0.63034 0.0
O422 O 0.24334 0.79924 0.58304 0.0
O423 O 0.27983 0.84353 0.53854 0.0
C424 C 0.23177 0.81413 0.49022 0.0
O425 O 0.2246 0.8168 0.53022 0.0
C426 C 0.24971 0.8557 0.5288 0.0
O427 O 0.25307 0.85335 0.47818 0.0
O428 O 0.2531 0.8211 0.62932 0.0
C429 C 0.08986 0.47661 0.34737 0.0
O430 O 0.0779 0.47481 0.37466 0.0
O431 O 0.06066 0.48087 0.28157 0.0
Zn432 Zn 0.08306 0.49598 0.28534 0.0
O433 O 0.08705 0.51156 0.34429 0.0
C434 C 0.08213 0.51252 0.19351 0.0
O435 O 0.07141 0.51201 0.22537 0.0
O436 O 0.09444 0.48534 0.30524 0.0
C437 C 0.09848 0.52483 0.34303 0.0
O438 O 0.10828 0.52862 0.30207 0.0
C439 C 0.05097 0.48375 0.30306 0.0
O440 O 0.05569 0.49655 0.33002 0.0
O441 O 0.08948 0.50628 0.21059 0.0
C442 C 0.5075 0.61847 0.32366 0.0
O443 O 0.49278 0.61042 0.33079 0.0
O444 O 0.52006 0.58402 0.2768 0.0
Zn445 Zn 0.50417 0.59015 0.28379 0.0
O446 O 0.48959 0.57786 0.34469 0.0
C447 C 0.48967 0.57233 0.19102 0.0
O448 O 0.49333 0.56368 0.21992 0.0
O449 O 0.51447 0.61223 0.30279 0.0
C450 C 0.4754 0.57274 0.34239 0.0
O451 O 0.46964 0.57586 0.29877 0.0
C452 C 0.52171 0.57588 0.31313 0.0
O453 O 0.51343 0.57204 0.35865 0.0
O454 O 0.49306 0.58525 0.21042 0.0
C455 C 0.38878 0.90599 0.34337 0.0
O456 O 0.40149 0.91388 0.37105 0.0
O457 O 0.42035 0.93472 0.25352 0.0
Zn458 Zn 0.41042 0.91199 0.26132 0.0
O459 O 0.42173 0.90672 0.31698 0.0
C460 C 0.41 0.9088 0.14186 0.0
O461 O 0.40709 0.91997 0.14337 0.0
O462 O 0.38937 0.90364 0.29151 0.0
C463 C 0.43504 0.90894 0.3106 0.0
O464 O 0.4423 0.91488 0.26374 0.0
C465 C 0.43022 0.94389 0.28769 0.0
O466 O 0.43404 0.93855 0.33073 0.0
O467 O 0.41106 0.90306 0.18749 0.0
C468 C 0.21867 0.19128 0.31378 0.0
C469 C 0.22926 0.18976 0.28121 0.0
C470 C 0.2109 0.19827 0.29221 0.0
C471 C 0.21387 0.20395 0.23694 0.0
C472 C 0.22451 0.20242 0.20384 0.0
C473 C 0.23204 0.1953 0.22632 0.0
C474 C 0.19957 0.19965 0.32863 0.0
C475 C 0.22804 0.20842 0.14483 0.0
C476 C 0.18485 0.21101 0.16461 0.0
C477 C 0.191 0.22661 0.1729 0.0
C478 C 0.19219 0.20348 0.18512 0.0
C479 C 0.20607 0.21178 0.21411 0.0
C480 C 0.21246 0.22756 0.2217 0.0
C481 C 0.20481 0.23478 0.2012 0.0
C482 C 0.18501 0.18661 0.17647 0.0
C483 C 0.22732 0.23682 0.25188 0.0
H484 H 0.21642 0.18698 0.35615 0.0
H485 H 0.24022 0.19418 0.20087 0.0
H486 H 0.20313 0.21175 0.33475 0.0
H487 H 0.18835 0.19422 0.30784 0.0
H488 H 0.1983 0.19433 0.37024 0.0
H489 H 0.2365 0.20618 0.12442 0.0
H490 H 0.21757 0.20318 0.11933 0.0
H491 H 0.23248 0.22081 0.1449 0.0
H492 H 0.17415 0.20462 0.14293 0.0
H493 H 0.20967 0.24685 0.20756 0.0
H494 H 0.18264 0.18081 0.21749 0.0
H495 H 0.19293 0.18401 0.15383 0.0
H496 H 0.17427 0.18184 0.15251 0.0
H497 H 0.22633 0.23268 0.29537 0.0
H498 H 0.23093 0.24905 0.25311 0.0
H499 H 0.23631 0.23548 0.23115 0.0
C500 C 0.80574 0.01923 0.34432 0.0
C501 C 0.80886 0.03189 0.31182 0.0
C502 C 0.79737 0.00454 0.32234 0.0
C503 C 0.79181 0.0025 0.26696 0.0
C504 C 0.7949 0.01525 0.23409 0.0
C505 C 0.80348 0.02978 0.25677 0.0
C506 C 0.79447 0.9912 0.35829 0.0
C507 C 0.78897 0.01353 0.17516 0.0
C508 C 0.78064 0.96604 0.18866 0.0
C509 C 0.76489 0.9581 0.19566 0.0
C510 C 0.78959 0.9804 0.21259 0.0
C511 C 0.78257 0.98705 0.24339 0.0
C512 C 0.76666 0.97913 0.25025 0.0
C513 C 0.75802 0.9647 0.22666 0.0
C514 C 0.80654 0.98843 0.20499 0.0
C515 C 0.75875 0.98598 0.28199 0.0
H516 H 0.80992 0.02081 0.38681 0.0
H517 H 0.80576 0.03951 0.2315 0.0
H518 H 0.78212 0.98371 0.36445 0.0
H519 H 0.79875 0.9844 0.33709 0.0
H520 H 0.79996 0.99473 0.39988 0.0
H521 H 0.79233 0.0246 0.15526 0.0
H522 H 0.79326 0.00747 0.14915 0.0
H523 H 0.77643 0.00661 0.17522 0.0
H524 H 0.78603 0.96095 0.16514 0.0
H525 H 0.74584 0.95863 0.23205 0.0
H526 H 0.81223 0.99133 0.24631 0.0
H527 H 0.81041 0.99921 0.18215 0.0
H528 H 0.81028 0.98148 0.18156 0.0
H529 H 0.76313 0.98867 0.32533 0.0
H530 H 0.74629 0.97833 0.2836 0.0
H531 H 0.76113 0.99677 0.26205 0.0
C532 C 0.97164 0.78521 0.32125 0.0
C533 C 0.96046 0.77147 0.29837 0.0
C534 C 0.98606 0.79323 0.297 0.0
C535 C 0.98939 0.7873 0.24906 0.0
C536 C 0.97815 0.77346 0.22575 0.0
C537 C 0.9638 0.76574 0.25058 0.0
C538 C 0.99776 0.80801 0.32277 0.0
C539 C 0.98133 0.76673 0.1749 0.0
C540 C 0.02261 0.81355 0.15732 0.0
C541 C 0.03389 0.81059 0.17614 0.0
C542 C 0.00807 0.80611 0.18089 0.0
C543 C 0.00474 0.79538 0.22394 0.0
C544 C 0.01604 0.79226 0.24276 0.0
C545 C 0.03049 0.79993 0.21875 0.0
C546 C 0.99631 0.80977 0.15997 0.0
C547 C 0.01285 0.78079 0.28828 0.0
H548 H 0.96911 0.78973 0.35804 0.0
H549 H 0.95524 0.75512 0.23269 0.0
H550 H 0.00768 0.80714 0.33663 0.0
H551 H 0.00187 0.8172 0.29126 0.0
H552 H 0.99326 0.81126 0.35918 0.0
H553 H 0.9713 0.75595 0.16158 0.0
H554 H 0.98496 0.77484 0.13961 0.0
H555 H 0.99074 0.76456 0.18382 0.0
H556 H 0.02518 0.82181 0.12454 0.0
H557 H 0.03913 0.79755 0.23344 0.0
H558 H 0.99224 0.81393 0.19495 0.0
H559 H 0.98638 0.79938 0.14351 0.0
H560 H 0.00075 0.81847 0.1265 0.0
H561 H 0.00932 0.78415 0.32698 0.0
H562 H 0.02286 0.77961 0.29791 0.0
H563 H 0.00337 0.76957 0.27562 0.0
C564 C 0.79322 0.75708 0.76493 0.0
C565 C 0.80173 0.76306 0.81383 0.0
C566 C 0.78623 0.76427 0.73856 0.0
C567 C 0.78786 0.77777 0.76154 0.0
C568 C 0.79624 0.78375 0.81134 0.0
C569 C 0.80305 0.77629 0.83699 0.0
C570 C 0.77728 0.75751 0.68573 0.0
C571 C 0.79823 0.79816 0.837 0.0
C572 C 0.78274 0.80476 0.66716 0.0
C573 C 0.76823 0.80177 0.68226 0.0
C574 C 0.78923 0.79692 0.69232 0.0
C575 C 0.78094 0.78578 0.73318 0.0
C576 C 0.76616 0.78248 0.74768 0.0
C577 C 0.76 0.79055 0.72216 0.0
C578 C 0.80505 0.80077 0.67594 0.0
C579 C 0.75694 0.77056 0.7907 0.0
H580 H 0.79211 0.74684 0.74683 0.0
H581 H 0.80963 0.78099 0.87472 0.0
H582 H 0.76557 0.75539 0.69086 0.0
H583 H 0.78247 0.7656 0.65068 0.0
H584 H 0.77673 0.7467 0.67417 0.0
H585 H 0.8049 0.80119 0.87628 0.0
H586 H 0.80405 0.80765 0.80702 0.0
H587 H 0.78702 0.79695 0.8461 0.0
H588 H 0.78917 0.81343 0.63643 0.0
H589 H 0.74874 0.78812 0.73387 0.0
H590 H 0.80504 0.79047 0.66099 0.0
H591 H 0.8126 0.80499 0.71291 0.0
H592 H 0.80985 0.80951 0.64266 0.0
H593 H 0.75585 0.75956 0.77863 0.0
H594 H 0.74542 0.769 0.79585 0.0
H595 H 0.76279 0.77378 0.83167 0.0
C596 C 0.21231 0.0213 0.82933 0.0
C597 C 0.2274 0.03207 0.81746 0.0
C598 C 0.20572 0.0066 0.80737 0.0
C599 C 0.21447 0.00257 0.77313 0.0
C600 C 0.22979 0.0133 0.76194 0.0
C601 C 0.23605 0.02794 0.78408 0.0
C602 C 0.18933 0.99545 0.81998 0.0
C603 C 0.23951 0.00938 0.72602 0.0
C604 C 0.20127 0.9609 0.75281 0.0
C605 C 0.1944 0.95811 0.70007 0.0
C606 C 0.20788 0.97533 0.77708 0.0
C607 C 0.20754 0.98723 0.74803 0.0
C608 C 0.20065 0.98451 0.69476 0.0
C609 C 0.1942 0.96999 0.67133 0.0
C610 C 0.21523 0.97785 0.83381 0.0
C611 C 0.20002 0.99692 0.66264 0.0
H612 H 0.20555 0.02442 0.85502 0.0
H613 H 0.24774 0.03618 0.77494 0.0
H614 H 0.18273 0.99189 0.78057 0.0
H615 H 0.1883 0.98514 0.83966 0.0
H616 H 0.18417 0.00027 0.84822 0.0
H617 H 0.25135 0.01887 0.72282 0.0
H618 H 0.23965 -0.00064 0.74338 0.0
H619 H 0.23467 0.00633 0.68336 0.0
H620 H 0.2015 0.95179 0.77525 0.0
H621 H 0.18888 0.96792 0.63063 0.0
H622 H 0.20964 0.9818 0.86372 0.0
H623 H 0.22729 0.98683 0.83119 0.0
H624 H 0.21462 0.96742 0.85075 0.0
H625 H 0.19405 0.00149 0.6876 0.0
H626 H 0.19416 0.99292 0.62188 0.0
H627 H 0.21166 0.0064 0.65491 0.0
C628 C 0.02325 0.21857 0.68588 0.0
C629 C 0.03319 0.23332 0.70448 0.0
C630 C 0.00862 0.21014 0.70822 0.0
C631 C 0.00379 0.21671 0.74963 0.0
C632 C 0.01372 0.23165 0.76809 0.0
C633 C 0.02832 0.23975 0.7455 0.0
C634 C 0.99836 0.19418 0.68784 0.0
C635 C 0.00891 0.2391 0.81171 0.0
C636 C 0.96169 0.20073 0.77154 0.0
C637 C 0.95904 0.19209 0.82016 0.0
C638 C 0.97619 0.20875 0.74803 0.0
C639 C 0.98831 0.20802 0.7735 0.0
C640 C 0.98571 0.19924 0.82237 0.0
C641 C 0.9711 0.19143 0.8453 0.0
C642 C 0.97856 0.21811 0.69618 0.0
C643 C 0.99837 0.19812 0.85044 0.0
H644 H 0.02697 0.21351 0.65437 0.0
H645 H 0.03591 0.25117 0.75992 0.0
H646 H 0.99492 0.18617 0.72342 0.0
H647 H 0.98789 0.19318 0.66979 0.0
H648 H 0.00387 0.19069 0.65573 0.0
H649 H 0.01793 0.25087 0.82107 0.0
H650 H 0.9987 0.23934 0.7973 0.0
H651 H 0.00584 0.23244 0.85095 0.0
H652 H 0.95243 0.20133 0.75191 0.0
H653 H 0.96912 0.18472 0.88271 0.0
H654 H 0.9832 0.21425 0.66212 0.0
H655 H 0.98696 0.23014 0.70466 0.0
H656 H 0.96792 0.21742 0.68133 0.0
H657 H 0.0036 0.1938 0.82043 0.0
H658 H 0.9944 0.19053 0.88741 0.0
H659 H 0.00734 0.20951 0.86402 0.0
C660 C 0.87754 0.57252 0.58341 0.0
C661 C 0.86678 0.56609 0.54059 0.0
C662 C 0.88526 0.56531 0.60317 0.0
C663 C 0.88207 0.55128 0.57981 0.0
C664 C 0.87118 0.54469 0.53672 0.0
C665 C 0.8637 0.5522 0.51744 0.0
C666 C 0.89688 0.57274 0.64891 0.0
C667 C 0.86743 0.52968 0.51107 0.0
C668 C 0.91157 0.53924 0.59445 0.0
C669 C 0.90589 0.52915 0.63959 0.0
C670 C 0.90393 0.54652 0.5746 0.0
C671 C 0.89022 0.54357 0.60025 0.0
C672 C 0.8844 0.53338 0.64575 0.0
C673 C 0.89234 0.52633 0.66503 0.0
C674 C 0.91054 0.55742 0.52626 0.0
C675 C 0.86977 0.5299 0.67394 0.0
H676 H 0.88001 0.58326 0.60142 0.0
H677 H 0.85536 0.54714 0.48447 0.0
H678 H 0.89369 0.56512 0.68563 0.0
H679 H 0.90806 0.57478 0.63425 0.0
H680 H 0.89807 0.5837 0.66249 0.0
H681 H 0.85856 0.526 0.47836 0.0
H682 H 0.87773 0.53048 0.49217 0.0
H683 H 0.86345 0.52084 0.54388 0.0
H684 H 0.92205 0.54151 0.57464 0.0
H685 H 0.88785 0.51851 0.6998 0.0
H686 H 0.91267 0.56878 0.53899 0.0
H687 H 0.90237 0.55359 0.49114 0.0
H688 H 0.92132 0.5585 0.51104 0.0
H689 H 0.87073 0.54044 0.69119 0.0
H690 H 0.86669 0.52157 0.70837 0.0
H691 H 0.86043 0.52534 0.64298 0.0
C692 C 0.42599 0.29604 0.5831 0.0
C693 C 0.43309 0.29269 0.53972 0.0
C694 C 0.43277 0.31053 0.6069 0.0
C695 C 0.44702 0.32191 0.58699 0.0
C696 C 0.45426 0.3186 0.54328 0.0
C697 C 0.44718 0.30403 0.52006 0.0
C698 C 0.42469 0.31368 0.65325 0.0
C699 C 0.46949 0.33046 0.52111 0.0
C700 C 0.4592 0.36323 0.60965 0.0
C701 C 0.46926 0.36703 0.65466 0.0
C702 C 0.45168 0.34851 0.58786 0.0
C703 C 0.45433 0.33734 0.6115 0.0
C704 C 0.46423 0.341 0.65763 0.0
C705 C 0.47155 0.35581 0.6788 0.0
C706 C 0.4411 0.34498 0.5389 0.0
C707 C 0.46734 0.32937 0.68384 0.0
H708 H 0.41508 0.28734 0.5985 0.0
H709 H 0.45276 0.30151 0.48667 0.0
H710 H 0.43186 0.31746 0.69126 0.0
H711 H 0.42266 0.32299 0.64083 0.0
H712 H 0.41366 0.30359 0.66394 0.0
H713 H 0.47367 0.32602 0.48731 0.0
H714 H 0.46877 0.34024 0.50463 0.0
H715 H 0.47794 0.33474 0.55539 0.0
H716 H 0.45732 0.37182 0.59091 0.0
H717 H 0.47931 0.35866 0.71356 0.0
H718 H 0.42976 0.33531 0.54914 0.0
H719 H 0.44541 0.34158 0.50238 0.0
H720 H 0.43982 0.35479 0.52675 0.0
H721 H 0.45658 0.31936 0.69729 0.0
H722 H 0.47498 0.33392 0.72053 0.0
H723 H 0.4726 0.32538 0.65261 0.0
C724 C 0.70084 0.12855 0.57901 0.0
C725 C 0.70501 0.13821 0.53262 0.0
C726 C 0.68616 0.12187 0.60104 0.0
C727 C 0.67543 0.12501 0.57636 0.0
C728 C 0.67961 0.13489 0.52996 0.0
C729 C 0.69434 0.14133 0.50846 0.0
C730 C 0.68207 0.11128 0.65029 0.0
C731 C 0.66848 0.13858 0.50282 0.0
C732 C 0.63383 0.09655 0.5969 0.0
C733 C 0.62989 0.10323 0.64003 0.0
C734 C 0.64862 0.10353 0.57584 0.0
C735 C 0.65971 0.1176 0.59813 0.0
C736 C 0.6558 0.12446 0.64147 0.0
C737 C 0.64093 0.11715 0.66211 0.0
C738 C 0.65239 0.0958 0.52993 0.0
C739 C 0.66733 0.13952 0.66595 0.0
H740 H 0.70901 0.12607 0.59787 0.0
H741 H 0.69751 0.14884 0.47278 0.0
H742 H 0.67796 0.11538 0.68535 0.0
H743 H 0.67273 0.09988 0.63866 0.0
H744 H 0.69181 0.11021 0.66518 0.0
H745 H 0.67366 0.14686 0.46821 0.0
H746 H 0.65874 0.1281 0.48602 0.0
H747 H 0.66396 0.14328 0.53427 0.0
H748 H 0.62537 0.08576 0.57972 0.0
H749 H 0.63795 0.1224 0.6953 0.0
H750 H 0.66152 0.09366 0.54396 0.0
H751 H 0.65668 0.10326 0.49276 0.0
H752 H 0.64246 0.08486 0.51725 0.0
H753 H 0.67686 0.13866 0.68425 0.0
H754 H 0.66241 0.14344 0.69887 0.0
H755 H 0.6721 0.14821 0.63257 0.0
C756 C 0.45636 0.0895 0.10954 0.0
C757 C 0.46654 0.09676 0.15355 0.0
C758 C 0.44775 0.09549 0.08727 0.0
C759 C 0.44942 0.1091 0.10935 0.0
C760 C 0.45954 0.1164 0.15416 0.0
C761 C 0.46795 0.11012 0.17587 0.0
C762 C 0.43697 0.08732 0.03978 0.0
C763 C 0.46164 0.13098 0.17866 0.0
C764 C 0.4387 0.13288 0.01912 0.0
C765 C 0.42467 0.12945 0.04188 0.0
C766 C 0.44682 0.12623 0.04039 0.0
C767 C 0.4407 0.11583 0.08516 0.0
C768 C 0.42641 0.11206 0.10749 0.0
C769 C 0.41858 0.11895 0.08569 0.0
C770 C 0.46207 0.13055 0.01564 0.0
C771 C 0.41947 0.10091 0.15492 0.0
H772 H 0.45517 0.07914 0.09217 0.0
H773 H 0.4758 0.1158 0.20981 0.0
H774 H 0.42535 0.08463 0.05129 0.0
H775 H 0.44033 0.09474 0.00244 0.0
H776 H 0.43671 0.07664 0.02836 0.0
H777 H 0.46984 0.13514 0.21383 0.0
H778 H 0.46574 0.13985 0.14593 0.0
H779 H 0.45065 0.12932 0.1939 0.0
H780 H 0.44349 0.141 0.98535 0.0
H781 H 0.40772 0.11619 0.10336 0.0
H782 H 0.46214 0.12029 0.00069 0.0
H783 H 0.47095 0.13585 0.04817 0.0
H784 H 0.46509 0.13858 0.98023 0.0
H785 H 0.41861 0.08997 0.14343 0.0
H786 H 0.40802 0.09881 0.16623 0.0
H787 H 0.42684 0.10523 0.19231 0.0
C788 C 0.85191 0.29215 0.0964 0.0
C789 C 0.85177 0.29128 0.03791 0.0
C790 C 0.85733 0.30607 0.12371 0.0
C791 C 0.86289 0.31946 0.09178 0.0
C792 C 0.86299 0.31872 0.03275 0.0
C793 C 0.85734 0.3046 0.00646 0.0
C794 C 0.85693 0.30641 0.18673 0.0
C795 C 0.86901 0.33281 0.9974 0.0
C796 C 0.86419 0.35394 0.15763 0.0
C797 C 0.87943 0.36252 0.17328 0.0
C798 C 0.85861 0.33983 0.13147 0.0
C799 C 0.86857 0.33427 0.12025 0.0
C800 C 0.88394 0.34281 0.13635 0.0
C801 C 0.88917 0.3568 0.16295 0.0
C802 C 0.8421 0.33093 0.11553 0.0
C803 C 0.89491 0.33727 0.12477 0.0
H804 H 0.84755 0.2819 0.12103 0.0
H805 H 0.85729 0.30401 0.96127 0.0
H806 H 0.86851 0.31374 0.20336 0.0
H807 H 0.84994 0.31134 0.20058 0.0
H808 H 0.85223 0.29496 0.2054 0.0
H809 H 0.86858 0.33033 0.95206 0.0
H810 H 0.86233 0.3385 0.00519 0.0
H811 H 0.8809 0.34092 0.00908 0.0
H812 H 0.85659 0.35828 0.1656 0.0
H813 H 0.90099 0.36339 0.17468 0.0
H814 H 0.8367 0.31958 0.13534 0.0
H815 H 0.84099 0.32916 0.06968 0.0
H816 H 0.83578 0.33671 0.12824 0.0
H817 H 0.89094 0.32614 0.14509 0.0
H818 H 0.90651 0.34528 0.13997 0.0
H819 H 0.89544 0.33561 0.07921 0.0
C820 C 0.64011 0.52362 0.15719 0.0
C821 C 0.62874 0.52563 0.13286 0.0
C822 C 0.65484 0.53088 0.13528 0.0
C823 C 0.65827 0.54044 0.0882 0.0
C824 C 0.64685 0.5425 0.06342 0.0
C825 C 0.6322 0.53503 0.08595 0.0
C826 C 0.66674 0.52836 0.16263 0.0
C827 C 0.65012 0.55269 0.0134 0.0
C828 C 0.69938 0.57032 0.06617 0.0
C829 C 0.70385 0.56365 0.02469 0.0
C830 C 0.68452 0.56296 0.08673 0.0
C831 C 0.67391 0.54853 0.06554 0.0
C832 C 0.67829 0.54181 0.0232 0.0
C833 C 0.6932 0.54948 0.0031 0.0
C834 C 0.68023 0.57055 0.13153 0.0
C835 C 0.66727 0.52641 -0.00023 0.0
H836 H 0.63751 0.51633 0.19331 0.0
H837 H 0.62349 0.53666 0.06693 0.0
H838 H 0.6716 0.5239 0.13161 0.0
H839 H 0.67614 0.53928 0.17813 0.0
H840 H 0.66215 0.52032 0.19819 0.0
H841 H 0.63993 0.55295 0.99871 0.0
H842 H 0.65902 0.56439 0.024 0.0
H843 H 0.65451 0.54882 0.97851 0.0
H844 H 0.70752 0.5813 0.08292 0.0
H845 H 0.69659 0.54424 0.97114 0.0
H846 H 0.67662 0.56347 0.16978 0.0
H847 H 0.67049 0.57169 0.11745 0.0
H848 H 0.68972 0.58195 0.14251 0.0
H849 H 0.66321 0.51784 0.03362 0.0
H850 H 0.67239 0.52285 0.9664 0.0
H851 H 0.65722 0.52647 0.98242 0.0
C852 C 0.53403 0.90522 0.91129 0.0
C853 C 0.52418 0.89901 0.86572 0.0
C854 C 0.54132 0.8979 0.93413 0.0
C855 C 0.5386 0.884 0.91107 0.0
C856 C 0.52858 0.8776 0.86532 0.0
C857 C 0.52153 0.88523 0.84302 0.0
C858 C 0.55203 0.90511 0.98267 0.0
C859 C 0.52534 0.86273 0.8399 0.0
C860 C 0.56766 0.87172 0.93372 0.0
C861 C 0.56108 0.8612 0.97722 0.0
C862 C 0.56051 0.87931 0.91211 0.0
C863 C 0.5464 0.87623 0.93431 0.0
C864 C 0.53974 0.86571 0.97846 0.0
C865 C 0.5472 0.85835 -0.00044 0.0
C866 C 0.56802 0.89056 0.86532 0.0
C867 C 0.52466 0.86211 0.00297 0.0
H868 H 0.53616 0.91589 0.92899 0.0
H869 H 0.51388 0.88034 0.80794 0.0
H870 H 0.5482 0.89727 0.01883 0.0
H871 H 0.56349 0.90733 0.97114 0.0
H872 H 0.55286 0.91594 0.9959 0.0
H873 H 0.51705 0.85915 0.80512 0.0
H874 H 0.53597 0.86366 0.82378 0.0
H875 H 0.52084 0.85374 0.87224 0.0
H876 H 0.57842 0.87402 0.91636 0.0
H877 H 0.54203 0.85021 0.03308 0.0
H878 H 0.56975 0.90178 0.87789 0.0
H879 H 0.56059 0.88688 0.82799 0.0
H880 H 0.57913 0.89186 0.85344 0.0
H881 H 0.52528 0.87258 0.01928 0.0
H882 H 0.52106 0.8537 0.03737 0.0
H883 H 0.51585 0.85757 0.96998 0.0
C884 C 0.09698 0.63553 0.89686 0.0
C885 C 0.10512 0.63255 0.85653 0.0
C886 C 0.10251 0.65016 0.91828 0.0
C887 C 0.11658 0.66206 0.89925 0.0
C888 C 0.12486 0.65914 0.85853 0.0
C889 C 0.119 0.64442 0.83744 0.0
C890 C 0.09329 0.65287 0.96126 0.0
C891 C 0.13996 0.67156 0.83749 0.0
C892 C 0.1252 0.7026 0.91539 0.0
C893 C 0.13449 0.70732 0.96287 0.0
C894 C 0.11916 0.68784 0.89461 0.0
C895 C 0.12259 0.6776 0.92171 0.0
C896 C 0.13183 0.68224 0.97001 0.0
C897 C 0.13762 0.69704 0.99019 0.0
C898 C 0.10921 0.68325 0.84335 0.0
C899 C 0.13578 0.67163 -0.00016 0.0
H900 H 0.08622 0.62643 0.9117 0.0
H901 H 0.12537 0.64218 0.80643 0.0
H902 H 0.09991 0.65732 0.00031 0.0
H903 H 0.09065 0.66155 0.94583 0.0
H904 H 0.0825 0.64241 0.9713 0.0
H905 H 0.14504 0.66739 0.80609 0.0
H906 H 0.13862 0.68071 0.81831 0.0
H907 H 0.14796 0.67662 0.8729 0.0
H908 H 0.12269 0.71047 0.89416 0.0
H909 H 0.14484 0.70063 0.02677 0.0
H910 H 0.09807 0.67317 0.85266 0.0
H911 H 0.11446 0.68006 0.80933 0.0
H912 H 0.10732 0.69245 0.82804 0.0
H913 H 0.12531 0.66129 0.01323 0.0
H914 H 0.14299 0.67694 0.03713 0.0
H915 H 0.14186 0.66799 0.97095 0.0
C916 C 0.30662 0.4392 0.9801 0.0
C917 C 0.29577 0.42569 0.95471 0.0
C918 C 0.32157 0.44705 0.96046 0.0
C919 C 0.32578 0.44121 0.91456 0.0
C920 C 0.31497 0.42744 0.88943 0.0
C921 C 0.30008 0.41987 0.90973 0.0
C922 C 0.3328 0.46172 0.98824 0.0
C923 C 0.31909 0.42081 0.84067 0.0
C924 C 0.3601 0.46869 0.82999 0.0
C925 C 0.37141 0.46621 0.85211 0.0
C926 C 0.34517 0.46055 0.84972 0.0
C927 C 0.34146 0.44963 0.89233 0.0
C928 C 0.35276 0.44691 0.9142 0.0
C929 C 0.36761 0.45526 0.89392 0.0
C930 C 0.3334 0.46378 0.82549 0.0
C931 C 0.3492 0.43528 0.95941 0.0
H932 H 0.30337 0.44379 0.01482 0.0
H933 H 0.29178 0.40942 0.88998 0.0
H934 H 0.34269 0.461 0.00339 0.0
H935 H 0.33706 0.4711 0.95751 0.0
H936 H 0.32778 0.46459 0.02408 0.0
H937 H 0.30946 0.40979 0.82689 0.0
H938 H 0.32282 0.42879 0.8049 0.0
H939 H 0.3287 0.41916 0.85206 0.0
H940 H 0.36294 0.47714 0.79773 0.0
H941 H 0.37627 0.45324 0.91112 0.0
H942 H 0.3287 0.46776 0.85891 0.0
H943 H 0.32387 0.45325 0.80799 0.0
H944 H 0.33808 0.47248 0.79205 0.0
H945 H 0.34509 0.43838 0.9973 0.0
H946 H 0.35919 0.43426 0.97094 0.0
H947 H 0.34 0.42405 0.94544 0.0
C948 C 0.11179 0.4721 0.34138 0.0
C949 C 0.09807 0.46888 0.36639 0.0
C950 C 0.11984 0.46511 0.36 0.0
C951 C 0.11396 0.45457 0.40444 0.0
C952 C 0.10006 0.45116 0.42953 0.0
C953 C 0.09229 0.45839 0.4103 0.0
C954 C 0.13467 0.46906 0.33237 0.0
C955 C 0.0934 0.43991 0.47679 0.0
C956 C 0.12795 0.42658 0.41962 0.0
C957 C 0.13864 0.43317 0.4626 0.0
C958 C 0.11977 0.43338 0.40051 0.0
C959 C 0.1224 0.44713 0.42479 0.0
C960 C 0.13312 0.45382 0.46833 0.0
C961 C 0.14109 0.44673 0.48683 0.0
C962 C 0.10835 0.42588 0.3542 0.0
C963 C 0.13625 0.46851 0.49508 0.0
H964 H 0.11634 0.48022 0.30751 0.0
H965 H 0.08167 0.4558 0.42976 0.0
H966 H 0.1439 0.47373 0.36377 0.0
H967 H 0.13408 0.45871 0.31481 0.0
H968 H 0.13767 0.47747 0.29828 0.0
H969 H 0.08238 0.43838 0.49132 0.0
H970 H 0.09171 0.42876 0.4633 0.0
H971 H 0.10136 0.44373 0.5126 0.0
H972 H 0.12596 0.41608 0.40076 0.0
H973 H 0.14935 0.4519 0.51999 0.0
H974 H 0.11151 0.4336 0.31781 0.0
H975 H 0.09702 0.42351 0.36837 0.0
H976 H 0.1075 0.41509 0.34029 0.0
H977 H 0.14023 0.47756 0.46304 0.0
H978 H 0.14491 0.4722 0.52858 0.0
H979 H 0.12568 0.46727 0.51321 0.0
C980 C 0.50855 0.64156 0.36483 0.0
C981 C 0.51609 0.63436 0.34314 0.0
C982 C 0.51665 0.6564 0.38555 0.0
C983 C 0.53267 0.66417 0.38481 0.0
C984 C 0.54034 0.65701 0.36255 0.0
C985 C 0.53197 0.64222 0.34182 0.0
C986 C 0.5081 0.66375 0.40855 0.0
C987 C 0.55742 0.66492 0.36122 0.0
C988 C 0.55499 0.70703 0.3928 0.0
C989 C 0.55942 0.70944 0.44905 0.0
C990 C 0.54602 0.69236 0.37161 0.0
C991 C 0.54147 0.67979 0.40742 0.0
C992 C 0.54578 0.68213 0.46436 0.0
C993 C 0.55466 0.69694 0.48457 0.0
C994 C 0.54155 0.6903 0.31074 0.0
C995 C 0.54122 0.66897 0.50368 0.0
H996 H 0.49629 0.63557 0.36593 0.0
H997 H 0.53791 0.63675 0.32526 0.0
H998 H 0.51104 0.66669 0.45314 0.0
H999 H 0.51142 0.67445 0.38592 0.0
H1000 H 0.49564 0.65628 0.40511 0.0
H1001 H 0.56165 0.65778 0.34238 0.0
H1002 H 0.56199 0.67557 0.33694 0.0
H1003 H 0.56198 0.66802 0.40424 0.0
H1004 H 0.55854 0.71663 0.36514 0.0
H1005 H 0.55804 0.69872 0.52807 0.0
H1006 H 0.52906 0.68342 0.30671 0.0
H1007 H 0.54639 0.68407 0.28916 0.0
H1008 H 0.5455 0.70127 0.28902 0.0
H1009 H 0.52873 0.66167 0.50414 0.0
H1010 H 0.54518 0.67272 0.54706 0.0
H1011 H 0.546 0.66192 0.48893 0.0
C1012 C 0.36048 0.89307 0.34364 0.0
C1013 C 0.37416 0.89937 0.37317 0.0
C1014 C 0.34658 0.88654 0.37193 0.0
C1015 C 0.3464 0.88615 0.43105 0.0
C1016 C 0.36016 0.8925 0.46105 0.0
C1017 C 0.37389 0.89912 0.43174 0.0
C1018 C 0.3321 0.88004 0.33862 0.0
C1019 C 0.3604 0.89213 0.52408 0.0
C1020 C 0.31132 0.88082 0.50611 0.0
C1021 C 0.3036 0.86521 0.51676 0.0
C1022 C 0.32529 0.8878 0.47837 0.0
C1023 C 0.33178 0.87899 0.46157 0.0
C1024 C 0.32424 0.8633 0.47352 0.0
C1025 C 0.31019 0.85658 0.5007 0.0
C1026 C 0.33296 0.90454 0.46598 0.0
C1027 C 0.33094 0.8536 0.45697 0.0
H1028 H 0.36064 0.89328 0.29839 0.0
H1029 H 0.38441 0.90389 0.45487 0.0
H1030 H 0.32498 0.86777 0.34745 0.0
H1031 H 0.32551 0.88552 0.35122 0.0
H1032 H 0.33421 0.88158 0.29295 0.0
H1033 H 0.37208 0.89757 0.54109 0.0
H1034 H 0.35464 0.89801 0.54148 0.0
H1035 H 0.35409 0.88024 0.53892 0.0
H1036 H 0.30626 0.88754 0.51813 0.0
H1037 H 0.30431 0.84452 0.50901 0.0
H1038 H 0.33429 0.90641 0.4202 0.0
H1039 H 0.34447 0.91043 0.48447 0.0
H1040 H 0.3265 0.90981 0.48248 0.0
H1041 H 0.33211 0.85366 0.41091 0.0
H1042 H 0.3239 0.84169 0.4711 0.0
H1043 H 0.34245 0.8583 0.47499 0.0
C1044 C 0.10537 0.24479 0.75894 0.0
C1045 C 0.09857 0.23374 0.71725 0.0
C1046 C 0.11422 0.24346 0.80081 0.0
C1047 C 0.11635 0.23077 0.80105 0.0
C1048 C 0.10962 0.21962 0.75894 0.0
C1049 C 0.10078 0.22123 0.71748 0.0
C1050 C 0.12122 0.25561 0.84504 0.0
C1051 C 0.11168 0.20596 0.75789 0.0
C1052 C 0.15017 0.23674 0.8864 0.0
C1053 C 0.14341 0.23062 0.93811 0.0
C1054 C 0.1414 0.23613 0.8403 0.0
C1055 C 0.1255 0.22924 0.84612 0.0
C1056 C 0.11854 0.22223 0.89716 0.0
C1057 C 0.12758 0.223 0.94256 0.0
C1058 C 0.14922 0.24365 0.78641 0.0
C1059 C 0.10162 0.2147 0.90489 0.0
H1060 H 0.10375 0.25451 0.75909 0.0
H1061 H 0.09558 0.21265 0.68536 0.0
H1062 H 0.11706 0.25059 0.88691 0.0
H1063 H 0.1337 0.26063 0.84508 0.0
H1064 H 0.11858 0.26483 0.83857 0.0
H1065 H 0.1059 0.19844 0.72173 0.0
H1066 H 0.1239 0.20962 0.75603 0.0
H1067 H 0.10715 0.19934 0.79689 0.0
H1068 H 0.16238 0.24256 0.88244 0.0
H1069 H 0.12225 0.21814 0.98223 0.0
H1070 H 0.1484 0.25398 0.77978 0.0
H1071 H 0.14361 0.23601 0.75045 0.0
H1072 H 0.16137 0.24694 0.78658 0.0
H1073 H 0.09814 0.22341 0.90437 0.0
H1074 H 0.09784 0.20839 0.94493 0.0
H1075 H 0.09565 0.20675 0.87006 0.0
C1076 C 0.7626 0.90495 0.92929 0.0
C1077 C 0.74966 0.89511 0.96007 0.0
C1078 C 0.76557 0.90056 0.87736 0.0
C1079 C 0.75532 0.88605 0.85581 0.0
C1080 C 0.74213 0.8762 0.8863 0.0
C1081 C 0.73949 0.88083 0.93806 0.0
C1082 C 0.77977 0.91132 0.84601 0.0
C1083 C 0.73087 0.86065 0.86459 0.0
C1084 C 0.75367 0.87578 0.7028 0.0
C1085 C 0.76043 0.86673 0.70377 0.0
C1086 C 0.75257 0.8828 0.75158 0.0
C1087 C 0.75847 0.88079 0.80229 0.0
C1088 C 0.76606 0.87237 0.80281 0.0
C1089 C 0.76691 0.8654 0.75358 0.0
C1090 C 0.74437 0.89168 0.74945 0.0
C1091 C 0.77262 0.87007 0.85597 0.0
H1092 H 0.77051 0.91601 0.94608 0.0
H1093 H 0.72942 0.87319 0.96138 0.0
H1094 H 0.78713 0.90625 0.84142 0.0
H1095 H 0.77688 0.91327 0.80334 0.0
H1096 H 0.7863 0.92241 0.86747 0.0
H1097 H 0.72093 0.85457 0.89259 0.0
H1098 H 0.7268 0.86156 0.82261 0.0
H1099 H 0.73643 0.85373 0.86011 0.0
H1100 H 0.74868 0.8769 0.66443 0.0
H1101 H 0.77229 0.85855 0.75454 0.0
H1102 H 0.75115 0.90281 0.77023 0.0
H1103 H 0.73351 0.88543 0.77242 0.0
H1104 H 0.74191 0.89357 0.70596 0.0
H1105 H 0.7798 0.88106 0.87719 0.0
H1106 H 0.77952 0.8646 0.8482 0.0
H1107 H 0.76331 0.86283 0.88503 0.0
C1108 C 0.09079 0.86958 0.92446 0.0
C1109 C 0.08195 0.85376 0.92092 0.0
C1110 C 0.09917 0.87821 0.87851 0.0
C1111 C 0.09866 0.87084 0.82781 0.0
C1112 C 0.08898 0.85501 0.82285 0.0
C1113 C 0.08073 0.84664 0.86953 0.0
C1114 C 0.10932 0.89508 0.88537 0.0
C1115 C 0.08806 0.84677 0.76932 0.0
C1116 C 0.11633 0.89496 0.69857 0.0
C1117 C 0.13071 0.89631 0.69855 0.0
C1118 C 0.10566 0.88656 0.74005 0.0
C1119 C 0.10951 0.87942 0.78242 0.0
C1120 C 0.12396 0.88065 0.78232 0.0
C1121 C 0.13437 0.88906 0.74039 0.0
C1122 C 0.09034 0.88543 0.73884 0.0
C1123 C 0.12851 0.87321 0.82688 0.0
H1124 H 0.09172 0.8752 0.9639 0.0
H1125 H 0.07385 0.83444 0.8663 0.0
H1126 H 0.12133 0.8979 0.88489 0.0
H1127 H 0.10775 0.90122 0.85016 0.0
H1128 H 0.10715 0.89928 0.92513 0.0
H1129 H 0.07865 0.83484 0.77 0.0
H1130 H 0.08648 0.8526 0.73307 0.0
H1131 H 0.09883 0.84678 0.76279 0.0
H1132 H 0.11341 0.90051 0.66632 0.0
H1133 H 0.14544 0.89003 0.74072 0.0
H1134 H 0.08868 0.89045 0.77742 0.0
H1135 H 0.08128 0.87338 0.73781 0.0
H1136 H 0.08896 0.89131 0.70219 0.0
H1137 H 0.12801 0.87768 0.86857 0.0
H1138 H 0.14012 0.87512 0.8204 0.0
H1139 H 0.12048 0.86083 0.8274 0.0
C1140 C 0.23108 0.0981 0.72947 0.0
C1141 C 0.23245 0.10434 0.78279 0.0
C1142 C 0.23249 0.10651 0.68133 0.0
C1143 C 0.2355 0.12159 0.68663 0.0
C1144 C 0.23629 0.12775 0.74031 0.0
C1145 C 0.23467 0.11901 0.78784 0.0
C1146 C 0.23139 0.09947 0.62479 0.0
C1147 C 0.23958 0.14382 0.7476 0.0
C1148 C 0.2577 0.14724 0.56653 0.0
C1149 C 0.24633 0.14781 0.53557 0.0
C1150 C 0.25435 0.13914 0.61668 0.0
C1151 C 0.23924 0.13127 0.63614 0.0
C1152 C 0.22775 0.13208 0.60585 0.0
C1153 C 0.23145 0.14042 0.55593 0.0
C1154 C 0.26697 0.1387 0.64811 0.0
C1155 C 0.2115 0.12375 0.62523 0.0
H1156 H 0.22921 0.08671 0.72527 0.0
H1157 H 0.23573 0.1239 0.82892 0.0
H1158 H 0.22339 0.10091 0.59762 0.0
H1159 H 0.24262 0.10529 0.60409 0.0
H1160 H 0.22759 0.08722 0.62776 0.0
H1161 H 0.23835 0.14641 0.7917 0.0
H1162 H 0.25132 0.15178 0.73382 0.0
H1163 H 0.23189 0.14593 0.72118 0.0
H1164 H 0.26925 0.15304 0.55131 0.0
H1165 H 0.22262 0.14081 0.53211 0.0
H1166 H 0.26492 0.12695 0.64889 0.0
H1167 H 0.26723 0.14226 0.69207 0.0
H1168 H 0.27823 0.14614 0.62903 0.0
H1169 H 0.20713 0.11138 0.62397 0.0
H1170 H 0.20409 0.12631 0.59893 0.0
H1171 H 0.21071 0.12675 0.66914 0.0
C1172 C 0.85305 0.08487 0.59663 0.0
C1173 C 0.85055 0.09414 0.56003 0.0
C1174 C 0.85979 0.09029 0.64913 0.0
C1175 C 0.86408 0.10527 0.66511 0.0
C1176 C 0.86141 0.11457 0.62853 0.0
C1177 C 0.85471 0.1089 0.57655 0.0
C1178 C 0.86249 0.08008 0.68717 0.0
C1179 C 0.8658 0.13062 0.644 0.0
C1180 C 0.87077 0.11961 0.81416 0.0
C1181 C 0.88659 0.12864 0.81512 0.0
C1182 C 0.86326 0.1111 0.76664 0.0
C1183 C 0.87179 0.11161 0.71921 0.0
C1184 C 0.88778 0.11993 0.72133 0.0
C1185 C 0.89499 0.12837 0.76921 0.0
C1186 C 0.84618 0.10234 0.76598 0.0
C1187 C 0.89729 0.1207 0.67174 0.0
H1188 H 0.84983 0.07344 0.58415 0.0
H1189 H 0.85278 0.11614 0.54871 0.0
H1190 H 0.87479 0.08507 0.69484 0.0
H1191 H 0.85705 0.07909 0.72826 0.0
H1192 H 0.85803 0.06856 0.6694 0.0
H1193 H 0.86261 0.13624 0.61131 0.0
H1194 H 0.86024 0.13071 0.68371 0.0
H1195 H 0.8782 0.13742 0.65072 0.0
H1196 H 0.8642 0.11967 0.84961 0.0
H1197 H 0.90723 0.13517 0.76987 0.0
H1198 H 0.84197 0.09079 0.74906 0.0
H1199 H 0.84195 0.10812 0.73821 0.0
H1200 H 0.8413 0.1014 0.80826 0.0
H1201 H 0.89344 0.10921 0.65496 0.0
H1202 H 0.9095 0.12606 0.68243 0.0
H1203 H 0.89598 0.1274 0.63798 0.0
C1204 C 0.86287 0.76284 0.74843 0.0
C1205 C 0.86728 0.76039 0.80102 0.0
C1206 C 0.87068 0.76305 0.70004 0.0
C1207 C 0.8831 0.76057 0.70431 0.0
C1208 C 0.88806 0.75878 0.75751 0.0
C1209 C 0.88012 0.7588 0.80539 0.0
C1210 C 0.86516 0.76519 0.64411 0.0
C1211 C 0.9012 0.75601 0.76363 0.0
C1212 C 0.8883 0.74134 0.57813 0.0
C1213 C 0.90026 0.75349 0.55009 0.0
C1214 C 0.88299 0.74346 0.62928 0.0
C1215 C 0.8897 0.75813 0.65279 0.0
C1216 C 0.90201 0.77042 0.6254 0.0
C1217 C 0.90721 0.76793 0.57434 0.0
C1218 C 0.86993 0.73002 0.65747 0.0
C1219 C 0.90934 0.78623 0.64912 0.0
H1220 H 0.85306 0.76428 0.74487 0.0
H1221 H 0.8836 0.75693 0.84596 0.0
H1222 H 0.87473 0.7739 0.61926 0.0
H1223 H 0.86019 0.75444 0.6202 0.0
H1224 H 0.85644 0.76861 0.64841 0.0
H1225 H 0.90471 0.75657 0.80788 0.0
H1226 H 0.89796 0.74464 0.74696 0.0
H1227 H 0.91105 0.7644 0.73905 0.0
H1228 H 0.88298 0.73011 0.5599 0.0
H1229 H 0.91646 0.77736 0.55277 0.0
H1230 H 0.85998 0.73166 0.65912 0.0
H1231 H 0.87296 0.72901 0.70112 0.0
H1232 H 0.8666 0.71922 0.63535 0.0
H1233 H 0.90108 0.79028 0.64917 0.0
H1234 H 0.91945 0.79434 0.62481 0.0
H1235 H 0.91277 0.78625 0.69309 0.0
C1236 C 0.85941 0.76968 0.07406 0.0
C1237 C 0.84385 0.7592 0.07621 0.0
C1238 C 0.86874 0.77205 0.12037 0.0
C1239 C 0.86236 0.76371 0.16993 0.0
C1240 C 0.84654 0.75382 0.17349 0.0
C1241 C 0.83746 0.75169 0.12655 0.0
C1242 C 0.88556 0.78278 0.11507 0.0
C1243 C 0.83932 0.74477 0.22573 0.0
C1244 C 0.88759 0.75418 0.25608 0.0
C1245 C 0.89199 0.76466 0.2999 0.0
C1246 C 0.87789 0.75373 0.21387 0.0
C1247 C 0.87242 0.76403 0.2154 0.0
C1248 C 0.87672 0.77461 0.25959 0.0
C1249 C 0.88648 0.7748 0.30141 0.0
C1250 C 0.87356 0.74227 0.16741 0.0
C1251 C 0.87108 0.78574 0.26248 0.0
H1252 H 0.86443 0.77564 0.03548 0.0
H1253 H 0.82544 0.74364 0.1287 0.0
H1254 H 0.88984 0.79053 0.15146 0.0
H1255 H 0.89156 0.77623 0.11457 0.0
H1256 H 0.88849 0.78965 0.0763 0.0
H1257 H 0.82677 0.739 0.22414 0.0
H1258 H 0.8427 0.73606 0.23107 0.0
H1259 H 0.8433 0.75219 0.26308 0.0
H1260 H 0.89177 0.74628 0.25456 0.0
H1261 H 0.88981 0.78293 0.33518 0.0
H1262 H 0.87727 0.74816 0.12663 0.0
H1263 H 0.86107 0.73494 0.16568 0.0
H1264 H 0.87867 0.73495 0.17273 0.0
H1265 H 0.87476 0.79304 0.2248 0.0
H1266 H 0.87529 0.79308 0.30008 0.0
H1267 H 0.85853 0.77959 0.26296 0.0
C1268 C 0.23464 0.07986 0.11169 0.0
C1269 C 0.22859 0.08071 0.06013 0.0
C1270 C 0.23395 0.08782 0.15833 0.0
C1271 C 0.22704 0.09682 0.15318 0.0
C1272 C 0.22004 0.09693 0.1023 0.0
C1273 C 0.2209 0.08886 0.05636 0.0
C1274 C 0.24145 0.08735 0.21203 0.0
C1275 C 0.21249 0.10633 0.09526 0.0
C1276 C 0.21914 0.11344 0.28235 0.0
C1277 C 0.23165 0.12816 0.28258 0.0
C1278 C 0.2175 0.103 0.24081 0.0
C1279 C 0.22864 0.10744 0.1986 0.0
C1280 C 0.24134 0.12224 0.19893 0.0
C1281 C 0.2427 0.1324 0.24089 0.0
C1282 C 0.20384 0.08729 0.24178 0.0
C1283 C 0.25347 0.1274 0.1546 0.0
H1284 H 0.24052 0.07351 0.11511 0.0
H1285 H 0.21608 0.0895 0.0168 0.0
H1286 H 0.25185 0.09844 0.21879 0.0
H1287 H 0.23386 0.08533 0.24812 0.0
H1288 H 0.24464 0.07841 0.21143 0.0
H1289 H 0.20614 0.10386 0.05535 0.0
H1290 H 0.20459 0.10429 0.13029 0.0
H1291 H 0.2212 0.11852 0.09596 0.0
H1292 H 0.21057 0.11007 0.31449 0.0
H1293 H 0.25241 0.14374 0.24073 0.0
H1294 H 0.20748 0.07871 0.24289 0.0
H1295 H 0.19713 0.0853 0.20307 0.0
H1296 H 0.19641 0.08549 0.27828 0.0
H1297 H 0.25843 0.11989 0.15415 0.0
H1298 H 0.26272 0.13923 0.16127 0.0
H1299 H 0.24844 0.12665 0.11282 0.0
C1300 C 0.85742 0.11226 0.24874 0.0
C1301 C 0.85943 0.10358 0.28948 0.0
C1302 C 0.86755 0.11853 0.20401 0.0
C1303 C 0.88021 0.11638 0.20076 0.0
C1304 C 0.88261 0.10808 0.24289 0.0
C1305 C 0.87205 0.10159 0.28643 0.0
C1306 C 0.86444 0.12708 0.15936 0.0
C1307 C 0.89619 0.10591 0.24158 0.0
C1308 C 0.89579 0.11979 0.05465 0.0
C1309 C 0.90683 0.13516 0.05275 0.0
C1310 C 0.88746 0.11332 0.1035 0.0
C1311 C 0.89052 0.12238 0.15188 0.0
C1312 C 0.90244 0.1376 0.15137 0.0
C1313 C 0.91034 0.14388 0.10152 0.0
C1314 C 0.87468 0.09711 0.10207 0.0
C1315 C 0.90633 0.14748 0.2026 0.0
H1316 H 0.84762 0.11374 0.25077 0.0
H1317 H 0.87369 0.09497 0.31817 0.0
H1318 H 0.87416 0.13877 0.15573 0.0
H1319 H 0.86308 0.12149 0.11831 0.0
H1320 H 0.85408 0.12771 0.16808 0.0
H1321 H 0.89701 0.10014 0.27965 0.0
H1322 H 0.89555 0.09906 0.20462 0.0
H1323 H 0.90673 0.11702 0.23756 0.0
H1324 H 0.89298 0.11302 0.01696 0.0
H1325 H 0.91896 0.15575 0.10027 0.0
H1326 H 0.86371 0.09685 0.10595 0.0
H1327 H 0.87552 0.09067 0.13782 0.0
H1328 H 0.87455 0.09126 0.06276 0.0
H1329 H 0.89727 0.15024 0.21053 0.0
H1330 H 0.91722 0.15825 0.19778 0.0
H1331 H 0.90705 0.14143 0.23989 0.0
C1332 C 0.75419 0.88527 0.24919 0.0
C1333 C 0.76511 0.89216 0.20718 0.0
C1334 C 0.75572 0.87646 0.29069 0.0
C1335 C 0.76848 0.87445 0.29019 0.0
C1336 C 0.77949 0.88123 0.24765 0.0
C1337 C 0.77768 0.89004 0.20658 0.0
C1338 C 0.74371 0.86941 0.33541 0.0
C1339 C 0.79321 0.87928 0.24582 0.0
C1340 C 0.77639 0.8636 0.43197 0.0
C1341 C 0.76856 0.84775 0.42829 0.0
C1342 C 0.7773 0.87253 0.38602 0.0
C1343 C 0.77025 0.86544 0.3352 0.0
C1344 C 0.76331 0.84952 0.33 0.0
C1345 C 0.76254 0.84085 0.37668 0.0
C1346 C 0.78489 0.88948 0.39313 0.0
C1347 C 0.75578 0.84156 0.27631 0.0
H1348 H 0.74443 0.88681 0.24996 0.0
H1349 H 0.78616 0.89531 0.17418 0.0
H1350 H 0.73881 0.85695 0.3356 0.0
H1351 H 0.74885 0.87366 0.37708 0.0
H1352 H 0.7344 0.87193 0.3294 0.0
H1353 H 0.80052 0.88496 0.20908 0.0
H1354 H 0.80002 0.88402 0.28429 0.0
H1355 H 0.78963 0.86707 0.24449 0.0
H1356 H 0.7812 0.86905 0.47154 0.0
H1357 H 0.75659 0.82862 0.3733 0.0
H1358 H 0.77617 0.89296 0.39331 0.0
H1359 H 0.79264 0.89536 0.35774 0.0
H1360 H 0.79141 0.89337 0.4327 0.0
H1361 H 0.7453 0.84211 0.27003 0.0
H1362 H 0.75274 0.82947 0.27663 0.0
H1363 H 0.76329 0.84723 0.24011 0.0
C1364 C 0.10001 0.86884 0.25081 0.0
C1365 C 0.10613 0.87378 0.1974 0.0
C1366 C 0.10865 0.87551 0.2988 0.0
C1367 C 0.12384 0.88731 0.29323 0.0
C1368 C 0.12988 0.89281 0.23954 0.0
C1369 C 0.12092 0.88602 0.19215 0.0
C1370 C 0.10174 0.86943 0.3554 0.0
C1371 C 0.14605 0.90534 0.23201 0.0
C1372 C 0.14332 0.90906 0.4251 0.0
C1373 C 0.15034 0.90105 0.44375 0.0
C1374 C 0.13494 0.905 0.37524 0.0
C1375 C 0.13372 0.89276 0.34332 0.0
C1376 C 0.14125 0.88501 0.361 0.0
C1377 C 0.14941 0.8892 0.4111 0.0
C1378 C 0.12699 0.91346 0.35776 0.0
C1379 C 0.14034 0.87198 0.3278 0.0
H1380 H 0.08853 0.8595 0.25517 0.0
H1381 H 0.12571 0.8899 0.15098 0.0
H1382 H 0.10735 0.86364 0.37479 0.0
H1383 H 0.10356 0.87884 0.38353 0.0
H1384 H 0.08941 0.86126 0.35277 0.0
H1385 H 0.14853 0.90939 0.18815 0.0
H1386 H 0.14854 0.91505 0.25957 0.0
H1387 H 0.15383 0.90118 0.24414 0.0
H1388 H 0.144 0.91822 0.45023 0.0
H1389 H 0.15493 0.88306 0.425 0.0
H1390 H 0.11456 0.90576 0.35965 0.0
H1391 H 0.12986 0.91737 0.31393 0.0
H1392 H 0.12999 0.9234 0.38487 0.0
H1393 H 0.12848 0.86248 0.32706 0.0
H1394 H 0.14762 0.86777 0.34549 0.0
H1395 H 0.1438 0.87548 0.28392 0.0
C1396 C 0.1118 0.25953 0.45047 0.0
C1397 C 0.09723 0.24933 0.47011 0.0
C1398 C 0.117 0.25713 0.39949 0.0
C1399 C 0.10743 0.24418 0.36733 0.0
C1400 C 0.09267 0.23387 0.38661 0.0
C1401 C 0.08772 0.23659 0.43782 0.0
C1402 C 0.13281 0.26842 0.38025 0.0
C1403 C 0.08219 0.21992 0.35344 0.0
C1404 C 0.11867 0.24663 0.21506 0.0
C1405 C 0.12738 0.2395 0.21595 0.0
C1406 C 0.11155 0.24769 0.26362 0.0
C1407 C 0.11314 0.24141 0.31411 0.0
C1408 C 0.12134 0.23359 0.31465 0.0
C1409 C 0.1284 0.23276 0.2656 0.0
C1410 C 0.10291 0.25613 0.26145 0.0
C1411 C 0.1232 0.22665 0.36761 0.0
H1412 H 0.11922 0.26943 0.475 0.0
H1413 H 0.07645 0.22866 0.45275 0.0
H1414 H 0.13964 0.26277 0.37597 0.0
H1415 H 0.13238 0.27293 0.33856 0.0
H1416 H 0.1387 0.27808 0.40962 0.0
H1417 H 0.07095 0.21319 0.37365 0.0
H1418 H 0.08054 0.22318 0.31094 0.0
H1419 H 0.08732 0.21263 0.34846 0.0
H1420 H 0.11778 0.25182 0.17683 0.0
H1421 H 0.13501 0.22712 0.26655 0.0
H1422 H 0.10898 0.2667 0.28628 0.0
H1423 H 0.09153 0.24923 0.28026 0.0
H1424 H 0.10158 0.25916 0.21809 0.0
H1425 H 0.13019 0.23574 0.39783 0.0
H1426 H 0.12874 0.21981 0.35994 0.0
H1427 H 0.11204 0.21933 0.38744 0.0
C1428 C 0.81147 0.59078 0.29658 0.0
C1429 C 0.81581 0.58042 0.31444 0.0
C1430 C 0.80418 0.58898 0.24529 0.0
C1431 C 0.80105 0.57645 0.21104 0.0
C1432 C 0.80538 0.56591 0.22871 0.0
C1433 C 0.81276 0.56804 0.28025 0.0
C1434 C 0.79981 0.60052 0.22779 0.0
C1435 C 0.80213 0.55237 0.19331 0.0
C1436 C 0.76973 0.56686 0.10637 0.0
C1437 C 0.77798 0.57436 0.05844 0.0
C1438 C 0.7771 0.56677 0.15563 0.0
C1439 C 0.7931 0.57444 0.15706 0.0
C1440 C 0.80148 0.58145 0.10814 0.0
C1441 C 0.7938 0.58128 0.05929 0.0
C1442 C 0.76778 0.55907 0.20686 0.0
C1443 C 0.81856 0.58979 0.10813 0.0
H1444 H 0.81383 0.60041 0.32261 0.0
H1445 H 0.81607 0.55998 0.29386 0.0
H1446 H 0.80515 0.60562 0.18716 0.0
H1447 H 0.78738 0.59492 0.22195 0.0
H1448 H 0.80326 0.60974 0.25893 0.0
H1449 H 0.8063 0.54527 0.21288 0.0
H1450 H 0.78977 0.54528 0.18627 0.0
H1451 H 0.80753 0.55615 0.15175 0.0
H1452 H 0.75748 0.56136 0.1059 0.0
H1453 H 0.80026 0.58706 0.02238 0.0
H1454 H 0.76951 0.56771 0.23861 0.0
H1455 H 0.77146 0.55151 0.22575 0.0
H1456 H 0.75549 0.5523 0.19734 0.0
H1457 H 0.82288 0.60002 0.1348 0.0
H1458 H 0.82334 0.59336 0.06552 0.0
H1459 H 0.8228 0.58258 0.12606 0.0
C1460 C 0.44242 0.21046 0.07256 0.0
C1461 C 0.42953 0.19598 0.0717 0.0
C1462 C 0.44411 0.22114 0.11315 0.0
C1463 C 0.43266 0.21718 0.15376 0.0
C1464 C 0.41972 0.20253 0.15342 0.0
C1465 C 0.41831 0.19213 0.11239 0.0
C1466 C 0.45804 0.23666 0.11229 0.0
C1467 C 0.40729 0.19786 0.19623 0.0
C1468 C 0.43912 0.23697 0.29305 0.0
C1469 C 0.4316 0.24519 0.28519 0.0
C1470 C 0.44039 0.2285 0.24946 0.0
C1471 C 0.434 0.22826 0.19679 0.0
C1472 C 0.42735 0.23737 0.18748 0.0
C1473 C 0.42624 0.24574 0.23185 0.0
C1474 C 0.44765 0.219 0.26089 0.0
C1475 C 0.42052 0.23751 0.13171 0.0
H1476 H 0.45113 0.21353 0.04116 0.0
H1477 H 0.40833 0.18096 0.1121 0.0
H1478 H 0.45472 0.2454 0.10631 0.0
H1479 H 0.46402 0.23902 0.15292 0.0
H1480 H 0.46603 0.23786 0.07853 0.0
H1481 H 0.39804 0.18599 0.19047 0.0
H1482 H 0.41198 0.19905 0.2389 0.0
H1483 H 0.40239 0.20541 0.19353 0.0
H1484 H 0.44344 0.23659 0.33401 0.0
H1485 H 0.42052 0.25215 0.22527 0.0
H1486 H 0.45577 0.2205 0.22729 0.0
H1487 H 0.43881 0.20686 0.26156 0.0
H1488 H 0.4537 0.22187 0.30154 0.0
H1489 H 0.42849 0.23915 0.09734 0.0
H1490 H 0.41748 0.24654 0.12922 0.0
H1491 H 0.41012 0.22643 0.12482 0.0
C1492 C 0.78784 0.20344 0.03051 0.0
C1493 C 0.79574 0.2193 0.02899 0.0
C1494 C 0.78043 0.19565 0.07936 0.0
C1495 C 0.78092 0.20395 0.12748 0.0
C1496 C 0.78801 0.21991 0.12493 0.0
C1497 C 0.79537 0.22739 0.07575 0.0
C1498 C 0.77294 0.17861 0.08051 0.0
C1499 C 0.78869 0.22916 0.17523 0.0
C1500 C 0.75655 0.1843 0.25443 0.0
C1501 C 0.76693 0.18296 0.28893 0.0
C1502 C 0.76081 0.19089 0.20118 0.0
C1503 C 0.77578 0.19621 0.18223 0.0
C1504 C 0.78622 0.1947 0.21663 0.0
C1505 C 0.78168 0.18812 0.2695 0.0
C1506 C 0.74941 0.19236 0.16557 0.0
C1507 C 0.8023 0.20022 0.1979 0.0
H1508 H 0.78802 0.19711 0.99446 0.0
H1509 H 0.8013 0.23966 0.07468 0.0
H1510 H 0.7798 0.17525 0.10637 0.0
H1511 H 0.76157 0.17356 0.09988 0.0
H1512 H 0.77179 0.17376 0.03806 0.0
H1513 H 0.79303 0.24124 0.16452 0.0
H1514 H 0.77732 0.22452 0.19436 0.0
H1515 H 0.79626 0.2286 0.2072 0.0
H1516 H 0.74512 0.18031 0.26916 0.0
H1517 H 0.78977 0.18708 0.29573 0.0
H1518 H 0.74836 0.18698 0.12428 0.0
H1519 H 0.75334 0.20449 0.15791 0.0
H1520 H 0.73806 0.18708 0.1854 0.0
H1521 H 0.80232 0.19481 0.15773 0.0
H1522 H 0.80886 0.19776 0.22899 0.0
H1523 H 0.80819 0.21262 0.19076 0.0
C1524 C 0.90789 0.47709 0.9034 0.0
C1525 C 0.91978 0.4788 0.86901 0.0
C1526 C 0.90522 0.46981 0.95538 0.0
C1527 C 0.91471 0.46419 0.97328 0.0
C1528 C 0.92678 0.466 0.93891 0.0
C1529 C 0.92914 0.47323 0.88719 0.0
C1530 C 0.8922 0.468 0.99091 0.0
C1531 C 0.93719 0.46021 0.95664 0.0
C1532 C 0.91849 0.45631 0.12536 0.0
C1533 C 0.91017 0.44045 0.12665 0.0
C1534 C 0.91952 0.46427 0.07624 0.0
C1535 C 0.91199 0.45616 0.02747 0.0
C1536 C 0.90296 0.4402 0.02932 0.0
C1537 C 0.90219 0.43253 0.07886 0.0
C1538 C 0.92928 0.4813 0.07581 0.0
C1539 C 0.89467 0.43116 0.97826 0.0
H1540 H 0.90061 0.48136 0.88958 0.0
H1541 H 0.93838 0.47455 0.86101 0.0
H1542 H 0.88412 0.45581 0.99811 0.0
H1543 H 0.89641 0.47329 0.0324 0.0
H1544 H 0.88601 0.4732 0.97134 0.0
H1545 H 0.94623 0.46279 0.92547 0.0
H1546 H 0.94259 0.46535 0.99716 0.0
H1547 H 0.93059 0.44778 0.9628 0.0
H1548 H 0.92465 0.46252 0.16216 0.0
H1549 H 0.89562 0.42028 0.07965 0.0
H1550 H 0.92297 0.48653 0.0577 0.0
H1551 H 0.93935 0.48464 0.0491 0.0
H1552 H 0.9332 0.486 0.11831 0.0
H1553 H 0.88793 0.43581 0.9593 0.0
H1554 H 0.88698 0.41901 0.98801 0.0
H1555 H 0.90297 0.43201 0.94649 0.0
C1556 C 0.55771 0.4457 0.12572 0.0
C1557 C 0.56215 0.46112 0.12431 0.0
C1558 C 0.54815 0.43572 0.0844 0.0
C1559 C 0.54297 0.44134 0.04078 0.0
C1560 C 0.5474 0.45688 0.03924 0.0
C1561 C 0.55693 0.46657 0.08099 0.0
C1562 C 0.54362 0.4192 0.0873 0.0
C1563 C 0.54212 0.46331 0.99333 0.0
C1564 C 0.5301 0.42209 0.90032 0.0
C1565 C 0.51439 0.41607 0.90365 0.0
C1566 C 0.53951 0.42962 0.9459 0.0
C1567 C 0.53303 0.43114 0.996 0.0
C1568 C 0.51712 0.42426 0.00082 0.0
C1569 C 0.50797 0.41679 0.95453 0.0
C1570 C 0.55643 0.43673 0.93925 0.0
C1571 C 0.5098 0.42556 0.05372 0.0
H1572 H 0.56168 0.4414 0.15913 0.0
H1573 H 0.56028 0.47846 0.07957 0.0
H1574 H 0.53111 0.4121 0.08906 0.0
H1575 H 0.54741 0.41592 0.04906 0.0
H1576 H 0.5485 0.4166 0.12426 0.0
H1577 H 0.54654 0.47564 0.99844 0.0
H1578 H 0.54587 0.46138 0.95218 0.0
H1579 H 0.52958 0.45744 0.99268 0.0
H1580 H 0.53516 0.42148 0.86131 0.0
H1581 H 0.49584 0.41208 0.95761 0.0
H1582 H 0.56135 0.43382 0.97519 0.0
H1583 H 0.56168 0.44924 0.93847 0.0
H1584 H 0.55954 0.43309 0.90015 0.0
H1585 H 0.5144 0.42265 0.09063 0.0
H1586 H 0.49731 0.4181 0.05309 0.0
H1587 H 0.51241 0.43743 0.05903 0.0
C1588 C 0.57499 0.1016 0.90538 0.0
C1589 C 0.56615 0.08849 0.87379 0.0
C1590 C 0.56987 0.10374 0.9572 0.0
C1591 C 0.55564 0.09246 0.97782 0.0
C1592 C 0.54679 0.07914 0.94639 0.0
C1593 C 0.55212 0.07736 0.89473 0.0
C1594 C 0.57955 0.11813 0.98953 0.0
C1595 C 0.53159 0.0668 0.96711 0.0
C1596 C 0.54456 0.08877 0.13048 0.0
C1597 C 0.53425 0.09407 0.12992 0.0
C1598 C 0.55226 0.0889 0.08174 0.0
C1599 C 0.54966 0.09457 0.03154 0.0
C1600 C 0.53996 0.10076 0.03159 0.0
C1601 C 0.53231 0.10037 0.08073 0.0
C1602 C 0.56248 0.08216 0.08324 0.0
C1603 C 0.53701 0.10705 0.97902 0.0
H1604 H 0.58584 0.11025 0.88938 0.0
H1605 H 0.54525 0.06715 0.87077 0.0
H1606 H 0.57338 0.12444 0.99491 0.0
H1607 H 0.58189 0.1154 0.03188 0.0
H1608 H 0.59049 0.12562 0.96839 0.0
H1609 H 0.52632 0.05694 0.93832 0.0
H1610 H 0.53285 0.0628 0.00876 0.0
H1611 H 0.52376 0.07131 0.97197 0.0
H1612 H 0.54614 0.08393 0.16838 0.0
H1613 H 0.52449 0.10463 0.08015 0.0
H1614 H 0.57348 0.08986 0.06303 0.0
H1615 H 0.55717 0.07138 0.05943 0.0
H1616 H 0.56463 0.0798 0.12654 0.0
H1617 H 0.54783 0.11506 0.95833 0.0
H1618 H 0.53057 0.11297 0.98743 0.0
H1619 H 0.53042 0.09769 0.94922 0.0
C1620 C 0.52878 0.10657 0.40194 0.0
C1621 C 0.51321 0.09619 0.40537 0.0
C1622 C 0.53839 0.10895 0.44737 0.0
C1623 C 0.53228 0.10075 0.49737 0.0
C1624 C 0.51646 0.09097 0.50228 0.0
C1625 C 0.5071 0.08882 0.45619 0.0
C1626 C 0.55519 0.11955 0.44064 0.0
C1627 C 0.50952 0.08207 0.55504 0.0
C1628 C 0.55749 0.09084 0.58194 0.0
C1629 C 0.56203 0.10125 0.62604 0.0
C1630 C 0.54783 0.0906 0.53995 0.0
C1631 C 0.54256 0.10106 0.54194 0.0
C1632 C 0.54713 0.11167 0.58612 0.0
C1633 C 0.55682 0.11164 0.62775 0.0
C1634 C 0.54322 0.0791 0.49349 0.0
C1635 C 0.54173 0.12299 0.58945 0.0
H1636 H 0.53358 0.11243 0.36298 0.0
H1637 H 0.49508 0.08086 0.45937 0.0
H1638 H 0.55977 0.12734 0.47684 0.0
H1639 H 0.56108 0.11289 0.43923 0.0
H1640 H 0.55791 0.12638 0.40181 0.0
H1641 H 0.49697 0.07634 0.55449 0.0
H1642 H 0.51288 0.07333 0.56002 0.0
H1643 H 0.51376 0.08958 0.5921 0.0
H1644 H 0.56144 0.08276 0.58024 0.0
H1645 H 0.56026 0.11972 0.6617 0.0
H1646 H 0.54671 0.08495 0.45257 0.0
H1647 H 0.53073 0.0718 0.4927 0.0
H1648 H 0.54833 0.07176 0.49809 0.0
H1649 H 0.54508 0.13004 0.55115 0.0
H1650 H 0.5464 0.13055 0.62631 0.0
H1651 H 0.5292 0.11698 0.59175 0.0
C1652 C 0.90526 0.41327 0.45632 0.0
C1653 C 0.8991 0.41374 0.40451 0.0
C1654 C 0.90457 0.42149 0.50211 0.0
C1655 C 0.89753 0.43035 0.49587 0.0
C1656 C 0.89035 0.42999 0.44491 0.0
C1657 C 0.89121 0.42168 0.39982 0.0
C1658 C 0.91227 0.42149 0.55595 0.0
C1659 C 0.88264 0.43921 0.43674 0.0
C1660 C 0.89049 0.44797 0.62407 0.0
C1661 C 0.9031 0.46264 0.62289 0.0
C1662 C 0.88847 0.43727 0.58303 0.0
C1663 C 0.89932 0.44137 0.53994 0.0
C1664 C 0.91204 0.45615 0.53853 0.0
C1665 C 0.91378 0.46659 0.57997 0.0
C1666 C 0.87477 0.42161 0.58577 0.0
C1667 C 0.92387 0.46097 0.49319 0.0
H1668 H 0.91128 0.40707 0.46049 0.0
H1669 H 0.88628 0.422 0.3601 0.0
H1670 H 0.92266 0.43265 0.56148 0.0
H1671 H 0.90479 0.41975 0.59217 0.0
H1672 H 0.9155 0.41258 0.55645 0.0
H1673 H 0.87598 0.43622 0.39743 0.0
H1674 H 0.87499 0.43756 0.47228 0.0
H1675 H 0.89129 0.45141 0.43529 0.0
H1676 H 0.88219 0.44483 0.65713 0.0
H1677 H 0.92356 0.47788 0.57869 0.0
H1678 H 0.87839 0.41303 0.58888 0.0
H1679 H 0.86804 0.4192 0.54689 0.0
H1680 H 0.86737 0.42022 0.62194 0.0
H1681 H 0.92893 0.45355 0.49354 0.0
H1682 H 0.93309 0.47289 0.49813 0.0
H1683 H 0.91855 0.45975 0.45169 0.0
C1684 C 0.53352 0.43139 0.5792 0.0
C1685 C 0.53428 0.43973 0.62686 0.0
C1686 C 0.54112 0.43866 0.53 0.0
C1687 C 0.54957 0.45466 0.52835 0.0
C1688 C 0.55104 0.46312 0.57715 0.0
C1689 C 0.54341 0.45554 0.62596 0.0
C1690 C 0.5394 0.42924 0.47894 0.0
C1691 C 0.55993 0.4802 0.57694 0.0
C1692 C 0.57514 0.47406 0.40372 0.0
C1693 C 0.56567 0.47703 0.37009 0.0
C1694 C 0.57011 0.46679 0.45558 0.0
C1695 C 0.55533 0.46252 0.47412 0.0
C1696 C 0.54578 0.46559 0.44045 0.0
C1697 C 0.55105 0.47275 0.38885 0.0
C1698 C 0.58053 0.46359 0.49035 0.0
C1699 C 0.52996 0.46127 0.45887 0.0
H1700 H 0.52662 0.41915 0.57976 0.0
H1701 H 0.5441 0.46207 0.66269 0.0
H1702 H 0.53233 0.43083 0.44749 0.0
H1703 H 0.55058 0.43294 0.45953 0.0
H1704 H 0.53398 0.41698 0.48884 0.0
H1705 H 0.56137 0.48501 0.6196 0.0
H1706 H 0.57126 0.48433 0.55819 0.0
H1707 H 0.55395 0.48458 0.55093 0.0
H1708 H 0.58645 0.47732 0.38941 0.0
H1709 H 0.54367 0.47506 0.36327 0.0
H1710 H 0.5753 0.45123 0.49749 0.0
H1711 H 0.58229 0.46903 0.5319 0.0
H1712 H 0.59174 0.46775 0.4702 0.0
H1713 H 0.52313 0.44885 0.46495 0.0
H1714 H 0.52408 0.4647 0.42814 0.0
H1715 H 0.53037 0.46667 0.49955 0.0
C1716 C 0.41829 0.21916 0.59572 0.0
C1717 C 0.43116 0.23351 0.58964 0.0
C1718 C 0.41658 0.21007 0.64208 0.0
C1719 C 0.42797 0.2155 0.68357 0.0
C1720 C 0.44122 0.22976 0.67685 0.0
C1721 C 0.44268 0.2386 0.6298 0.0
C1722 C 0.40232 0.19487 0.64761 0.0
C1723 C 0.45358 0.23593 0.72038 0.0
C1724 C 0.41427 0.19996 0.82861 0.0
C1725 C 0.41839 0.18879 0.83283 0.0
C1726 C 0.4177 0.20899 0.78082 0.0
C1727 C 0.42539 0.20675 0.73593 0.0
C1728 C 0.42988 0.19572 0.74027 0.0
C1729 C 0.42636 0.18687 0.78885 0.0
C1730 C 0.41281 0.22072 0.77791 0.0
C1731 C 0.43805 0.19301 0.69308 0.0
H1732 H 0.40939 0.21509 0.5646 0.0
H1733 H 0.45268 0.24966 0.62531 0.0
H1734 H 0.40519 0.18589 0.65549 0.0
H1735 H 0.39564 0.19505 0.68386 0.0
H1736 H 0.3951 0.19182 0.60972 0.0
H1737 H 0.46368 0.24662 0.70679 0.0
H1738 H 0.44924 0.23813 0.75965 0.0
H1739 H 0.4571 0.2275 0.73004 0.0
H1740 H 0.40821 0.20159 0.86259 0.0
H1741 H 0.4296 0.17827 0.7919 0.0
H1742 H 0.40447 0.21784 0.74372 0.0
H1743 H 0.42265 0.232 0.76829 0.0
H1744 H 0.40759 0.22154 0.81751 0.0
H1745 H 0.4306 0.18885 0.65584 0.0
H1746 H 0.4415 0.18459 0.70422 0.0
H1747 H 0.44828 0.20376 0.68109 0.0
C1748 C 0.77744 0.19618 0.581 0.0
C1749 C 0.77286 0.20158 0.53551 0.0
C1750 C 0.78681 0.20601 0.62277 0.0
C1751 C 0.79177 0.22165 0.619 0.0
C1752 C 0.7873 0.22723 0.57305 0.0
C1753 C 0.77786 0.21711 0.53179 0.0
C1754 C 0.79131 0.19961 0.67119 0.0
C1755 C 0.79242 0.24385 0.56768 0.0
C1756 C 0.80362 0.24156 0.75864 0.0
C1757 C 0.81925 0.24699 0.7582 0.0
C1758 C 0.79462 0.23406 0.71215 0.0
C1759 C 0.80143 0.23198 0.66406 0.0
C1760 C 0.81733 0.23834 0.66194 0.0
C1761 C 0.82607 0.24578 0.7091 0.0
C1762 C 0.7777 0.22751 0.71593 0.0
C1763 C 0.82502 0.23644 0.61121 0.0
H1764 H 0.77366 0.18421 0.58423 0.0
H1765 H 0.7744 0.22137 0.4967 0.0
H1766 H 0.80382 0.20516 0.6737 0.0
H1767 H 0.7873 0.20196 0.71096 0.0
H1768 H 0.7866 0.18719 0.66758 0.0
H1769 H 0.78819 0.24642 0.52883 0.0
H1770 H 0.78835 0.24758 0.60399 0.0
H1771 H 0.80496 0.25061 0.56792 0.0
H1772 H 0.79826 0.24256 0.79623 0.0
H1773 H 0.83816 0.25004 0.70821 0.0
H1774 H 0.77205 0.21499 0.71811 0.0
H1775 H 0.77339 0.23041 0.67815 0.0
H1776 H 0.77439 0.23163 0.75333 0.0
H1777 H 0.82215 0.22445 0.60781 0.0
H1778 H 0.83753 0.24366 0.61336 0.0
H1779 H 0.82094 0.23927 0.57261 0.0
C1780 C 0.75554 0.57588 0.72917 0.0
C1781 C 0.75492 0.56897 0.78047 0.0
C1782 C 0.76325 0.57432 0.68342 0.0
C1783 C 0.77047 0.56562 0.68919 0.0
C1784 C 0.76912 0.55789 0.7398 0.0
C1785 C 0.76135 0.55965 0.78485 0.0
C1786 C 0.76438 0.58267 0.62999 0.0
C1787 C 0.77659 0.54844 0.74745 0.0
C1788 C 0.78522 0.55548 0.55998 0.0
C1789 C 0.80055 0.56673 0.56071 0.0
C1790 C 0.77523 0.55494 0.60151 0.0
C1791 C 0.78073 0.5659 0.6446 0.0
C1792 C 0.79619 0.57725 0.64556 0.0
C1793 C 0.8059 0.57752 0.60367 0.0
C1794 C 0.75881 0.54268 0.59927 0.0
C1795 C 0.8025 0.58915 0.69086 0.0
H1796 H 0.75052 0.58303 0.72529 0.0
H1797 H 0.76083 0.55416 0.8242 0.0
H1798 H 0.77619 0.59201 0.62426 0.0
H1799 H 0.76152 0.57501 0.59354 0.0
H1800 H 0.75679 0.58756 0.63011 0.0
H1801 H 0.77312 0.54187 0.787 0.0
H1802 H 0.77381 0.54045 0.71208 0.0
H1803 H 0.78907 0.55592 0.74795 0.0
H1804 H 0.78099 0.54711 0.5269 0.0
H1805 H 0.81772 0.58626 0.60457 0.0
H1806 H 0.75149 0.54783 0.59665 0.0
H1807 H 0.75569 0.53586 0.63813 0.0
H1808 H 0.75632 0.53499 0.56302 0.0
H1809 H 0.79644 0.59565 0.69098 0.0
H1810 H 0.81479 0.59721 0.68548 0.0
H1811 H 0.8007 0.58367 0.73233 0.0
C1812 C 0.43457 0.89958 0.40708 0.0
C1813 C 0.44284 0.90686 0.3589 0.0
C1814 C 0.4419 0.8995 0.45638 0.0
C1815 C 0.45789 0.90693 0.45757 0.0
C1816 C 0.46626 0.9134 0.40809 0.0
C1817 C 0.45861 0.91326 0.35917 0.0
C1818 C 0.43256 0.89238 0.50815 0.0
C1819 C 0.48332 0.92136 0.40775 0.0
C1820 C 0.47539 0.92471 0.59647 0.0
C1821 C 0.47905 0.91424 0.61875 0.0
C1822 C 0.46882 0.92258 0.54354 0.0
C1823 C 0.46579 0.90963 0.51202 0.0
C1824 C 0.46965 0.8991 0.53377 0.0
C1825 C 0.47627 0.90154 0.58701 0.0
C1826 C 0.46488 0.9341 0.52177 0.0
C1827 C 0.46655 0.88516 0.50127 0.0
H1828 H 0.42235 0.89443 0.407 0.0
H1829 H 0.46506 0.91884 0.32201 0.0
H1830 H 0.43623 0.88505 0.52909 0.0
H1831 H 0.43426 0.90139 0.53816 0.0
H1832 H 0.42028 0.8855 0.49868 0.0
H1833 H 0.48799 0.92387 0.36469 0.0
H1834 H 0.48791 0.93219 0.43093 0.0
H1835 H 0.48738 0.91441 0.42915 0.0
H1836 H 0.47757 0.9346 0.62055 0.0
H1837 H 0.4791 0.89342 0.60395 0.0
H1838 H 0.45248 0.92866 0.51548 0.0
H1839 H 0.47034 0.93847 0.48065 0.0
H1840 H 0.46849 0.94383 0.55066 0.0
H1841 H 0.45417 0.87778 0.49531 0.0
H1842 H 0.47099 0.87853 0.52268 0.0
H1843 H 0.47172 0.88838 0.45915 0.0
C1844 C 0.09752 0.58461 0.55492 0.0
C1845 C 0.10415 0.58454 0.60614 0.0
C1846 C 0.09814 0.57635 0.50912 0.0
C1847 C 0.10556 0.56785 0.51475 0.0
C1848 C 0.11314 0.56855 0.56513 0.0
C1849 C 0.11235 0.5769 0.61023 0.0
C1850 C 0.09002 0.57598 0.45591 0.0
C1851 C 0.12125 0.5597 0.57264 0.0
C1852 C 0.08995 0.53166 0.43049 0.0
C1853 C 0.10049 0.53591 0.38696 0.0
C1854 C 0.09153 0.54196 0.47224 0.0
C1855 C 0.10395 0.55692 0.47049 0.0
C1856 C 0.11467 0.56132 0.42679 0.0
C1857 C 0.11282 0.55074 0.38547 0.0
C1858 C 0.07985 0.53683 0.51824 0.0
C1859 C 0.12805 0.57718 0.42363 0.0
H1860 H 0.09125 0.59057 0.55121 0.0
H1861 H 0.1176 0.57686 0.64952 0.0
H1862 H 0.0974 0.57795 0.41917 0.0
H1863 H 0.07985 0.56462 0.45087 0.0
H1864 H 0.08636 0.58457 0.45588 0.0
H1865 H 0.12804 0.56284 0.61167 0.0
H1866 H 0.11284 0.54742 0.57421 0.0
H1867 H 0.12885 0.56155 0.53673 0.0
H1868 H 0.08039 0.52023 0.43201 0.0
H1869 H 0.12101 0.55412 0.35194 0.0
H1870 H 0.07443 0.54393 0.51844 0.0
H1871 H 0.08539 0.53826 0.55942 0.0
H1872 H 0.07088 0.52479 0.5136 0.0
H1873 H 0.12406 0.58547 0.42094 0.0
H1874 H 0.1354 0.57878 0.38706 0.0
H1875 H 0.13495 0.5798 0.46218 0.0
C1876 C 0.42368 0.5078 0.55773 0.0
C1877 C 0.42207 0.51371 0.60851 0.0
C1878 C 0.43107 0.51733 0.51221 0.0
C1879 C 0.43693 0.53311 0.51759 0.0
C1880 C 0.43462 0.53903 0.56768 0.0
C1881 C 0.42723 0.52926 0.6126 0.0
C1882 C 0.43329 0.51058 0.45941 0.0
C1883 C 0.44061 0.55579 0.57485 0.0
C1884 C 0.47169 0.55875 0.43188 0.0
C1885 C 0.4655 0.56292 0.38772 0.0
C1886 C 0.46249 0.54911 0.4744 0.0
C1887 C 0.44671 0.54353 0.47295 0.0
C1888 C 0.44037 0.54779 0.42886 0.0
C1889 C 0.44985 0.55743 0.38664 0.0
C1890 C 0.46968 0.5448 0.52068 0.0
C1891 C 0.42359 0.54209 0.42615 0.0
H1892 H 0.41966 0.4958 0.55409 0.0
H1893 H 0.42595 0.53392 0.65156 0.0
H1894 H 0.42974 0.51458 0.42245 0.0
H1895 H 0.44548 0.51436 0.45417 0.0
H1896 H 0.42684 0.49801 0.45997 0.0
H1897 H 0.43653 0.55839 0.61401 0.0
H1898 H 0.45317 0.56184 0.57578 0.0
H1899 H 0.43721 0.56031 0.53901 0.0
H1900 H 0.48376 0.56292 0.43306 0.0
H1901 H 0.44497 0.5606 0.3527 0.0
H1902 H 0.46478 0.53234 0.5215 0.0
H1903 H 0.46724 0.54818 0.56168 0.0
H1904 H 0.48215 0.55019 0.51581 0.0
H1905 H 0.41727 0.52955 0.42354 0.0
H1906 H 0.42048 0.5467 0.38968 0.0
H1907 H 0.41983 0.54525 0.46481 0.0
C1908 C 0.55767 0.80233 0.22734 0.0
C1909 C 0.56551 0.81819 0.22985 0.0
C1910 C 0.55678 0.79365 0.27405 0.0
C1911 C 0.56388 0.80101 0.32446 0.0
C1912 C 0.57089 0.81696 0.3284 0.0
C1913 C 0.57161 0.82537 0.28099 0.0
C1914 C 0.54913 0.77665 0.26827 0.0
C1915 C 0.57849 0.8252 0.38158 0.0
C1916 C 0.55628 0.7768 0.4543 0.0
C1917 C 0.56872 0.77447 0.45392 0.0
C1918 C 0.55462 0.78563 0.41294 0.0
C1919 C 0.56564 0.79222 0.37032 0.0
C1920 C 0.57832 0.79008 0.37025 0.0
C1921 C 0.57971 0.78126 0.41202 0.0
C1922 C 0.54099 0.78773 0.41435 0.0
C1923 C 0.59034 0.79692 0.32548 0.0
H1924 H 0.55279 0.79667 0.18814 0.0
H1925 H 0.57759 0.83762 0.28344 0.0
H1926 H 0.5578 0.77312 0.26901 0.0
H1927 H 0.54134 0.771 0.30381 0.0
H1928 H 0.54263 0.77258 0.22873 0.0
H1929 H 0.58157 0.8373 0.38026 0.0
H1930 H 0.57103 0.81975 0.41808 0.0
H1931 H 0.58897 0.82465 0.38819 0.0
H1932 H 0.54776 0.77162 0.48662 0.0
H1933 H 0.58938 0.77957 0.41141 0.0
H1934 H 0.53403 0.78269 0.3764 0.0
H1935 H 0.54465 0.79997 0.41414 0.0
H1936 H 0.5338 0.78242 0.45168 0.0
H1937 H 0.58521 0.79246 0.28396 0.0
H1938 H 0.59965 0.79444 0.33216 0.0
H1939 H 0.59523 0.80938 0.32438 0.0
C1940 C 0.20819 0.80075 0.43279 0.0
C1941 C 0.22359 0.80557 0.43973 0.0
C1942 C 0.2006 0.79369 0.38323 0.0
C1943 C 0.20861 0.79136 0.33968 0.0
C1944 C 0.22401 0.7957 0.34722 0.0
C1945 C 0.23132 0.80277 0.39713 0.0
C1946 C 0.18416 0.78921 0.37671 0.0
C1947 C 0.2329 0.79336 0.30179 0.0
C1948 C 0.18608 0.76437 0.22211 0.0
C1949 C 0.1866 0.77445 0.18113 0.0
C1950 C 0.19329 0.76969 0.27389 0.0
C1951 C 0.20118 0.78544 0.2848 0.0
C1952 C 0.20188 0.79566 0.24335 0.0
C1953 C 0.1946 0.79004 0.19207 0.0
C1954 C 0.19235 0.75848 0.31711 0.0
C1955 C 0.21021 0.81254 0.25336 0.0
H1956 H 0.20212 0.80282 0.46554 0.0
H1957 H 0.24321 0.80638 0.40225 0.0
H1958 H 0.18302 0.79611 0.34332 0.0
H1959 H 0.17739 0.77718 0.36385 0.0
H1960 H 0.17929 0.79082 0.41584 0.0
H1961 H 0.24443 0.79629 0.31581 0.0
H1962 H 0.22686 0.78141 0.28756 0.0
H1963 H 0.23399 0.8005 0.2652 0.0
H1964 H 0.17993 0.7523 0.21396 0.0
H1965 H 0.19509 0.79792 0.16066 0.0
H1966 H 0.18662 0.75935 0.35514 0.0
H1967 H 0.20389 0.76114 0.32962 0.0
H1968 H 0.18606 0.74663 0.30167 0.0
H1969 H 0.20518 0.81523 0.28956 0.0
H1970 H 0.20984 0.81897 0.21653 0.0
H1971 H 0.22223 0.81653 0.26371 0.0
C1972 C 0.21755 0.42426 0.15542 0.0
C1973 C 0.23146 0.42459 0.15499 0.0
C1974 C 0.21208 0.42741 0.2042 0.0
C1975 C 0.22068 0.43092 0.25388 0.0
C1976 C 0.23503 0.43193 0.25324 0.0
C1977 C 0.24028 0.42878 0.20365 0.0
C1978 C 0.19675 0.42632 0.20311 0.0
C1979 C 0.24452 0.43565 0.30547 0.0
C1980 C 0.20822 0.44676 0.37307 0.0
C1981 C 0.19878 0.43358 0.40336 0.0
C1982 C 0.21583 0.44619 0.32506 0.0
C1983 C 0.21396 0.43213 0.30724 0.0
C1984 C 0.2048 0.41888 0.3386 0.0
C1985 C 0.19731 0.41976 0.38616 0.0
C1986 C 0.22551 0.46054 0.29255 0.0
C1987 C 0.20257 0.40366 0.32105 0.0
H1988 H 0.21074 0.42121 0.11781 0.0
H1989 H 0.25107 0.4291 0.20354 0.0
H1990 H 0.18868 0.41662 0.22914 0.0
H1991 H 0.1975 0.43669 0.22112 0.0
H1992 H 0.19208 0.42472 0.16017 0.0
H1993 H 0.25603 0.43751 0.29678 0.0
H1994 H 0.24561 0.44593 0.32575 0.0
H1995 H 0.23887 0.42621 0.33576 0.0
H1996 H 0.20944 0.45748 0.3862 0.0
H1997 H 0.19013 0.40953 0.40956 0.0
H1998 H 0.2204 0.45971 0.25087 0.0
H1999 H 0.23694 0.46208 0.28559 0.0
H2000 H 0.2267 0.47071 0.31417 0.0
H2001 H 0.19673 0.40039 0.28007 0.0
H2002 H 0.19577 0.39461 0.35174 0.0
H2003 H 0.21368 0.40431 0.31584 0.0
C2004 C 0.22793 0.41973 0.87564 0.0
C2005 C 0.23657 0.43162 0.91265 0.0
C2006 C 0.2189 0.42113 0.83478 0.0
C2007 C 0.21844 0.43474 0.8309 0.0
C2008 C 0.22725 0.44687 0.86763 0.0
C2009 C 0.23627 0.44518 0.90808 0.0
C2010 C 0.20971 0.40796 0.79608 0.0
C2011 C 0.227 0.46152 0.86469 0.0
C2012 C 0.20407 0.4396 0.6913 0.0
C2013 C 0.18857 0.43342 0.70226 0.0
C2014 C 0.21415 0.44096 0.7337 0.0
C2015 C 0.20858 0.43606 0.78832 0.0
C2016 C 0.19317 0.43081 0.8005 0.0
C2017 C 0.18333 0.42955 0.75726 0.0
C2018 C 0.23053 0.44671 0.71916 0.0
C2019 C 0.18685 0.42559 0.85842 0.0
H2020 H 0.22813 0.40923 0.8788 0.0
H2021 H 0.24288 0.4544 0.93667 0.0
H2022 H 0.19749 0.40404 0.80106 0.0
H2023 H 0.21274 0.41157 0.75202 0.0
H2024 H 0.21152 0.39825 0.80411 0.0
H2025 H 0.23481 0.47001 0.89536 0.0
H2026 H 0.23019 0.46643 0.82218 0.0
H2027 H 0.21537 0.45933 0.87282 0.0
H2028 H 0.20826 0.44277 0.64902 0.0
H2029 H 0.17139 0.42487 0.76619 0.0
H2030 H 0.23287 0.43719 0.72078 0.0
H2031 H 0.2381 0.4553 0.74992 0.0
H2032 H 0.23343 0.45178 0.67675 0.0
H2033 H 0.18671 0.41489 0.86813 0.0
H2034 H 0.17514 0.42359 0.86255 0.0
H2035 H 0.19413 0.43407 0.89003 0.0
C2036 C 0.56786 0.80062 0.9033 0.0
C2037 C 0.57433 0.79949 0.95344 0.0
C2038 C 0.56891 0.79364 0.85441 0.0
C2039 C 0.57666 0.78539 0.85565 0.0
C2040 C 0.58261 0.78361 0.90666 0.0
C2041 C 0.58135 0.79067 0.95505 0.0
C2042 C 0.56233 0.79572 0.80087 0.0
C2043 C 0.59095 0.77488 0.90956 0.0
C2044 C 0.5723 0.76069 0.73018 0.0
C2045 C 0.58514 0.7704 0.69874 0.0
C2046 C 0.56947 0.76528 0.78194 0.0
C2047 C 0.57977 0.77989 0.80261 0.0
C2048 C 0.59289 0.7896 0.77155 0.0
C2049 C 0.5954 0.78475 0.72001 0.0
C2050 C 0.55536 0.75464 0.81398 0.0
C2051 C 0.60417 0.80525 0.7923 0.0
H2052 H 0.5623 0.80731 0.90179 0.0
H2053 H 0.58633 0.7897 0.99366 0.0
H2054 H 0.57163 0.80279 0.77148 0.0
H2055 H 0.55511 0.78463 0.78035 0.0
H2056 H 0.55548 0.80127 0.80795 0.0
H2057 H 0.59354 0.77326 0.95321 0.0
H2058 H 0.5842 0.76363 0.88961 0.0
H2059 H 0.60175 0.78107 0.88618 0.0
H2060 H 0.56432 0.74958 0.714 0.0
H2061 H 0.6054 0.7923 0.69616 0.0
H2062 H 0.54793 0.75965 0.8179 0.0
H2063 H 0.55835 0.75298 0.85691 0.0
H2064 H 0.54886 0.74341 0.79343 0.0
H2065 H 0.59862 0.81219 0.79616 0.0
H2066 H 0.61407 0.8112 0.76402 0.0
H2067 H 0.60831 0.80455 0.83441 0.0
C2068 C 0.20872 0.76322 0.91913 0.0
C2069 C 0.19586 0.7647 0.92597 0.0
C2070 C 0.21828 0.76957 0.87275 0.0
C2071 C 0.21483 0.77749 0.83226 0.0
C2072 C 0.20187 0.77902 0.83901 0.0
C2073 C 0.19258 0.77265 0.88582 0.0
C2074 C 0.23206 0.76781 0.86703 0.0
C2075 C 0.19776 0.78733 0.79658 0.0
C2076 C 0.24389 0.80661 0.73417 0.0
C2077 C 0.24012 0.79862 0.68355 0.0
C2078 C 0.23633 0.7996 0.78378 0.0
C2079 C 0.22467 0.78427 0.7826 0.0
C2080 C 0.22142 0.7759 0.73234 0.0
C2081 C 0.22924 0.78317 0.6834 0.0
C2082 C 0.24025 0.80884 0.83673 0.0
C2083 C 0.20905 0.75953 0.72944 0.0
H2084 H 0.21134 0.75711 0.95002 0.0
H2085 H 0.18265 0.77382 0.89066 0.0
H2086 H 0.23141 0.76181 0.82761 0.0
H2087 H 0.24242 0.77911 0.86479 0.0
H2088 H 0.23323 0.76143 0.90241 0.0
H2089 H 0.18724 0.78741 0.80783 0.0
H2090 H 0.2071 0.79921 0.79277 0.0
H2091 H 0.19618 0.78197 0.75494 0.0
H2092 H 0.25239 0.81852 0.73475 0.0
H2093 H 0.22629 0.7769 0.64451 0.0
H2094 H 0.24178 0.80264 0.87187 0.0
H2095 H 0.23081 0.81078 0.84802 0.0
H2096 H 0.25072 0.82001 0.83221 0.0
H2097 H 0.21032 0.75293 0.76368 0.0
H2098 H 0.20902 0.7542 0.68894 0.0
H2099 H 0.19789 0.75877 0.7349 0.0
C2100 C 0.10396 0.56723 0.93131 0.0
C2101 C 0.09694 0.5594 0.88211 0.0
C2102 C 0.10298 0.55943 0.98071 0.0
C2103 C 0.09467 0.54342 0.981 0.0
C2104 C 0.08819 0.53544 0.93085 0.0
C2105 C 0.08946 0.54354 0.88187 0.0
C2106 C 0.11018 0.56833 0.03324 0.0
C2107 C 0.07919 0.51836 0.92959 0.0
C2108 C 0.09798 0.5226 0.10708 0.0
C2109 C 0.08538 0.52018 0.13867 0.0
C2110 C 0.10115 0.53008 0.05536 0.0
C2111 C 0.09142 0.53513 0.0348 0.0
C2112 C 0.0786 0.53255 0.06624 0.0
C2113 C 0.07578 0.52516 0.11783 0.0
C2114 C 0.11497 0.53274 0.02304 0.0
C2115 C 0.0679 0.53767 0.04556 0.0
H2116 H 0.1099 0.5795 0.93167 0.0
H2117 H 0.08403 0.53741 0.84398 0.0
H2118 H 0.10122 0.56692 0.06294 0.0
H2119 H 0.11699 0.56402 0.05409 0.0
H2120 H 0.11759 0.58061 0.02475 0.0
H2121 H 0.07624 0.51386 0.88638 0.0
H2122 H 0.08563 0.51354 0.94977 0.0
H2123 H 0.06856 0.51435 0.95358 0.0
H2124 H 0.10546 0.5188 0.123 0.0
H2125 H 0.06597 0.52327 0.14181 0.0
H2126 H 0.12273 0.54506 0.01744 0.0
H2127 H 0.11164 0.52769 0.98077 0.0
H2128 H 0.12123 0.52784 0.04427 0.0
H2129 H 0.07405 0.55015 0.04057 0.0
H2130 H 0.05823 0.53444 0.07444 0.0
H2131 H 0.06336 0.53267 0.00397 0.0
C2132 C 0.43461 0.52913 0.93852 0.0
C2133 C 0.44163 0.53363 0.88619 0.0
C2134 C 0.44216 0.53675 0.98733 0.0
C2135 C 0.45716 0.54903 0.98376 0.0
C2136 C 0.46411 0.55399 0.93088 0.0
C2137 C 0.45621 0.54628 0.88262 0.0
C2138 C 0.43429 0.53124 0.04291 0.0
C2139 C 0.48015 0.56695 0.92547 0.0
C2140 C 0.47428 0.57379 0.11213 0.0
C2141 C 0.48179 0.56693 0.13696 0.0
C2142 C 0.4663 0.5682 0.06182 0.0
C2143 C 0.46604 0.55563 0.03563 0.0
C2144 C 0.47391 0.54892 0.05993 0.0
C2145 C 0.48159 0.55459 0.11044 0.0
C2146 C 0.45789 0.57552 0.03735 0.0
C2147 C 0.47406 0.53561 0.03293 0.0
H2148 H 0.42328 0.51946 0.94151 0.0
H2149 H 0.4617 0.54982 0.84229 0.0
H2150 H 0.4399 0.52618 0.06728 0.0
H2151 H 0.43517 0.54085 0.06761 0.0
H2152 H 0.42214 0.52261 0.0381 0.0
H2153 H 0.4834 0.57032 0.88129 0.0
H2154 H 0.48161 0.57694 0.94916 0.0
H2155 H 0.48805 0.56361 0.94364 0.0
H2156 H 0.47438 0.58332 0.13259 0.0
H2157 H 0.48749 0.54932 0.12916 0.0
H2158 H 0.44559 0.56719 0.03607 0.0
H2159 H 0.4616 0.57911 0.99373 0.0
H2160 H 0.45965 0.58553 0.06179 0.0
H2161 H 0.46239 0.52579 0.03107 0.0
H2162 H 0.48129 0.53214 0.05594 0.0
H2163 H 0.47826 0.53845 0.98938 0.0
C2164 C 0.46442 0.9113 0.91252 0.0
C2165 C 0.45876 0.90177 0.86585 0.0
C2166 C 0.45473 0.91112 0.95424 0.0
C2167 C 0.43894 0.90117 0.9493 0.0
C2168 C 0.43311 0.89152 0.90232 0.0
C2169 C 0.4431 0.89193 0.86105 0.0
C2170 C 0.46141 0.9216 0.00376 0.0
C2171 C 0.41634 0.88078 0.89576 0.0
C2172 C 0.41902 0.89374 0.0886 0.0
C2173 C 0.41468 0.9048 0.08899 0.0
C2174 C 0.42603 0.89169 0.04169 0.0
C2175 C 0.42875 0.90092 0.9941 0.0
C2176 C 0.42337 0.9113 0.99268 0.0
C2177 C 0.41638 0.91311 0.04019 0.0
C2178 C 0.43149 0.88041 0.04469 0.0
C2179 C 0.42596 0.92126 0.94252 0.0
H2180 H 0.4765 0.91895 0.9166 0.0
H2181 H 0.43864 0.88455 0.82507 0.0
H2182 H 0.45654 0.92916 0.00676 0.0
H2183 H 0.45851 0.9149 0.0429 0.0
H2184 H 0.47392 0.92871 0.00107 0.0
H2185 H 0.4136 0.87412 0.85651 0.0
H2186 H 0.41205 0.87283 0.93158 0.0
H2187 H 0.41019 0.88719 0.89595 0.0
H2188 H 0.41761 0.88715 0.12591 0.0
H2189 H 0.41294 0.92159 0.03993 0.0
H2190 H 0.44401 0.88656 0.04802 0.0
H2191 H 0.42841 0.87347 0.00615 0.0
H2192 H 0.42673 0.87275 0.08124 0.0
H2193 H 0.43814 0.92993 0.93986 0.0
H2194 H 0.41931 0.92716 0.94488 0.0
H2195 H 0.42293 0.91453 0.90347 0.0
C2196 C 0.23255 0.35881 0.06406 0.0
C2197 C 0.22418 0.36484 0.03986 0.0
C2198 C 0.22565 0.34338 0.07786 0.0
C2199 C 0.21001 0.33381 0.06744 0.0
C2200 C 0.20156 0.33979 0.04228 0.0
C2201 C 0.20876 0.35521 0.02867 0.0
C2202 C 0.23502 0.33737 0.1043 0.0
C2203 C 0.18485 0.32995 0.03065 0.0
C2204 C 0.19266 0.29112 0.06087 0.0
C2205 C 0.18579 0.2867 0.11354 0.0
C2206 C 0.20093 0.30645 0.04579 0.0
C2207 C 0.2023 0.31762 0.08419 0.0
C2208 C 0.19568 0.31326 0.13782 0.0
C2209 C 0.18754 0.29785 0.1519 0.0
C2210 C 0.20791 0.31069 0.98832 0.0
C2211 C 0.19686 0.32484 0.17985 0.0
H2212 H 0.24448 0.36616 0.0727 0.0
H2213 H 0.2022 0.35976 0.00999 0.0
H2214 H 0.23067 0.33303 0.14675 0.0
H2215 H 0.23408 0.32775 0.07953 0.0
H2216 H 0.24716 0.34616 0.10763 0.0
H2217 H 0.17999 0.33628 0.00973 0.0
H2218 H 0.18284 0.32026 0.00378 0.0
H2219 H 0.17867 0.32521 0.07035 0.0
H2220 H 0.19142 0.28258 0.03104 0.0
H2221 H 0.18228 0.29455 0.19269 0.0
H2222 H 0.22015 0.3191 0.99157 0.0
H2223 H 0.20255 0.31605 0.96423 0.0
H2224 H 0.20654 0.30073 0.96457 0.0
H2225 H 0.2089 0.33342 0.18706 0.0
H2226 H 0.19161 0.31964 0.22055 0.0
H2227 H 0.19118 0.33088 0.1633 0.0
C2228 C 0.69529 0.9008 0.09171 0.0
C2229 C 0.70018 0.89214 0.12126 0.0
C2230 C 0.67992 0.89494 0.07897 0.0
C2231 C 0.66924 0.88004 0.09574 0.0
C2232 C 0.67406 0.8714 0.12679 0.0
C2233 C 0.68945 0.87759 0.1394 0.0
C2234 C 0.67517 0.90453 0.04636 0.0
C2235 C 0.66302 0.85543 0.14516 0.0
C2236 C 0.62706 0.866 0.09949 0.0
C2237 C 0.62216 0.85764 0.04977 0.0
C2238 C 0.64244 0.87381 0.11415 0.0
C2239 C 0.65313 0.8731 0.07851 0.0
C2240 C 0.64831 0.865 0.02762 0.0
C2241 C 0.63289 0.85743 0.01374 0.0
C2242 C 0.6472 0.88248 0.16845 0.0
C2243 C 0.65936 0.86389 0.98867 0.0
H2244 H 0.70351 0.91208 0.0778 0.0
H2245 H 0.69311 0.87081 0.16226 0.0
H2246 H 0.67079 0.89934 0.00489 0.0
H2247 H 0.66586 0.90504 0.06832 0.0
H2248 H 0.68467 0.91626 0.04002 0.0
H2249 H 0.6685 0.85045 0.17082 0.0
H2250 H 0.65371 0.85522 0.1698 0.0
H2251 H 0.65784 0.84815 0.10798 0.0
H2252 H 0.61884 0.86629 0.1274 0.0
H2253 H 0.62921 0.851 0.97525 0.0
H2254 H 0.65647 0.89423 0.16102 0.0
H2255 H 0.65162 0.87709 0.19726 0.0
H2256 H 0.63768 0.88288 0.18935 0.0
H2257 H 0.66865 0.87537 0.97754 0.0
H2258 H 0.65388 0.8577 0.9496 0.0
H2259 H 0.66457 0.85795 0.00992 0.0
C2260 C 0.13145 0.77911 0.96972 0.0
C2261 C 0.13442 0.77231 0.01514 0.0
C2262 C 0.1241 0.78751 0.97732 0.0
C2263 C 0.11974 0.78924 0.0317 0.0
C2264 C 0.12228 0.78201 0.07747 0.0
C2265 C 0.12954 0.77358 0.0686 0.0
C2266 C 0.12145 0.79492 0.92742 0.0
C2267 C 0.11787 0.78366 0.13612 0.0
C2268 C 0.11733 0.82453 0.06047 0.0
C2269 C 0.10166 0.81888 0.05959 0.0
C2270 C 0.12332 0.81497 0.05168 0.0
C2271 C 0.11342 0.7994 0.04124 0.0
C2272 C 0.0976 0.79361 0.04005 0.0
C2273 C 0.09189 0.80341 0.04951 0.0
C2274 C 0.14027 0.82155 0.05376 0.0
C2275 C 0.08671 0.77708 0.02858 0.0
H2276 H 0.1351 0.77811 0.92823 0.0
H2277 H 0.13178 0.76837 0.10395 0.0
H2278 H 0.10941 0.79195 0.92558 0.0
H2279 H 0.12834 0.80741 0.93149 0.0
H2280 H 0.12445 0.79154 0.88748 0.0
H2281 H 0.1198 0.7766 0.16661 0.0
H2282 H 0.12456 0.79567 0.14937 0.0
H2283 H 0.10576 0.78045 0.13758 0.0
H2284 H 0.12495 0.83645 0.06843 0.0
H2285 H 0.07977 0.79897 0.04859 0.0
H2286 H 0.14437 0.81971 0.01325 0.0
H2287 H 0.14321 0.81571 0.0863 0.0
H2288 H 0.1464 0.83388 0.06294 0.0
H2289 H 0.08927 0.77388 0.98742 0.0
H2290 H 0.07473 0.77439 0.02868 0.0
H2291 H 0.08809 0.76998 0.06051 0.0
C2292 C 0.30562 0.19719 0.3112 0.0
C2293 C 0.29556 0.1949 0.35496 0.0
C2294 C 0.32128 0.20441 0.32056 0.0
C2295 C 0.32699 0.20938 0.37504 0.0
C2296 C 0.31695 0.20765 0.41891 0.0
C2297 C 0.30136 0.20047 0.40831 0.0
C2298 C 0.33166 0.20618 0.27262 0.0
C2299 C 0.32261 0.21277 0.47761 0.0
C2300 C 0.36373 0.21086 0.41384 0.0
C2301 C 0.37414 0.22642 0.41122 0.0
C2302 C 0.34837 0.2052 0.40218 0.0
C2303 C 0.34329 0.21534 0.38705 0.0
C2304 C 0.35374 0.23105 0.38386 0.0
C2305 C 0.36905 0.23642 0.39623 0.0
C2306 C 0.33754 0.18837 0.40642 0.0
C2307 C 0.34874 0.24216 0.36743 0.0
H2308 H 0.30125 0.193 0.26978 0.0
H2309 H 0.29367 0.19877 0.44238 0.0
H2310 H 0.34105 0.21806 0.26985 0.0
H2311 H 0.33679 0.19897 0.27993 0.0
H2312 H 0.32561 0.20293 0.23198 0.0
H2313 H 0.31349 0.2116 0.50607 0.0
H2314 H 0.3274 0.20593 0.49452 0.0
H2315 H 0.33182 0.22476 0.4776 0.0
H2316 H 0.36756 0.20306 0.42555 0.0
H2317 H 0.37704 0.24845 0.39392 0.0
H2318 H 0.33186 0.18392 0.36568 0.0
H2319 H 0.32859 0.1861 0.4375 0.0
H2320 H 0.34331 0.18203 0.41889 0.0
H2321 H 0.34328 0.23918 0.32573 0.0
H2322 H 0.35832 0.25399 0.3661 0.0
H2323 H 0.34018 0.24155 0.3975 0.0
C2324 C 0.78386 0.14015 0.44829 0.0
C2325 C 0.76848 0.13576 0.44532 0.0
C2326 C 0.7888 0.12986 0.43663 0.0
C2327 C 0.77807 0.11473 0.42266 0.0
C2328 C 0.76248 0.11012 0.42078 0.0
C2329 C 0.75788 0.12075 0.43164 0.0
C2330 C 0.80554 0.13527 0.43838 0.0
C2331 C 0.75071 0.094 0.40712 0.0
C2332 C 0.79398 0.09361 0.34338 0.0
C2333 C 0.79721 0.08652 0.38702 0.0
C2334 C 0.78719 0.1024 0.35409 0.0
C2335 C 0.78332 0.10387 0.40961 0.0
C2336 C 0.78575 0.096 0.45333 0.0
C2337 C 0.7928 0.08753 0.44158 0.0
C2338 C 0.78496 0.11078 0.30647 0.0
C2339 C 0.78151 0.09706 0.51289 0.0
H2340 H 0.79212 0.15177 0.45846 0.0
H2341 H 0.74597 0.11729 0.42957 0.0
H2342 H 0.80785 0.12862 0.46948 0.0
H2343 H 0.80934 0.13346 0.39714 0.0
H2344 H 0.81242 0.14745 0.44934 0.0
H2345 H 0.73902 0.09211 0.40931 0.0
H2346 H 0.75267 0.09107 0.36451 0.0
H2347 H 0.75168 0.08612 0.43652 0.0
H2348 H 0.79742 0.09291 0.30117 0.0
H2349 H 0.79516 0.08194 0.4754 0.0
H2350 H 0.79251 0.12314 0.31229 0.0
H2351 H 0.77316 0.10859 0.30601 0.0
H2352 H 0.78748 0.10754 0.26528 0.0
H2353 H 0.78903 0.10866 0.52903 0.0
H2354 H 0.78252 0.08891 0.54077 0.0
H2355 H 0.76974 0.09491 0.51497 0.0
C2356 C 0.9083 0.70223 0.42704 0.0
C2357 C 0.90123 0.70623 0.38555 0.0
C2358 C 0.90238 0.68708 0.44315 0.0
C2359 C 0.889 0.67571 0.41753 0.0
C2360 C 0.88211 0.67962 0.3743 0.0
C2361 C 0.88836 0.69482 0.35864 0.0
C2362 C 0.91014 0.6833 0.48885 0.0
C2363 C 0.86778 0.66782 0.34616 0.0
C2364 C 0.8762 0.6339 0.42848 0.0
C2365 C 0.86495 0.62916 0.4697 0.0
C2366 C 0.88459 0.64917 0.41258 0.0
C2367 C 0.88155 0.65987 0.43815 0.0
C2368 C 0.87061 0.65524 0.48117 0.0
C2369 C 0.8625 0.63995 0.49662 0.0
C2370 C 0.89632 0.65374 0.36708 0.0
C2371 C 0.86701 0.66632 0.50929 0.0
H2372 H 0.91831 0.71098 0.4478 0.0
H2373 H 0.88283 0.6978 0.32651 0.0
H2374 H 0.90279 0.67933 0.52638 0.0
H2375 H 0.91202 0.67396 0.47543 0.0
H2376 H 0.92119 0.69319 0.50078 0.0
H2377 H 0.86427 0.67261 0.31142 0.0
H2378 H 0.86934 0.65855 0.32941 0.0
H2379 H 0.85846 0.66273 0.37716 0.0
H2380 H 0.87823 0.62564 0.40774 0.0
H2381 H 0.85386 0.63639 0.52856 0.0
H2382 H 0.90719 0.66358 0.38068 0.0
H2383 H 0.89254 0.65728 0.32947 0.0
H2384 H 0.89834 0.64437 0.35522 0.0
H2385 H 0.87748 0.67607 0.52607 0.0
H2386 H 0.85877 0.66106 0.54398 0.0
H2387 H 0.8622 0.67084 0.47825 0.0
C2388 C 0.79709 0.69741 0.93562 0.0
C2389 C 0.81254 0.704 0.92293 0.0
C2390 C 0.7881 0.68174 0.94407 0.0
C2391 C 0.79471 0.67245 0.93939 0.0
C2392 C 0.81023 0.679 0.92583 0.0
C2393 C 0.81896 0.6947 0.91793 0.0
C2394 C 0.77159 0.67515 0.95869 0.0
C2395 C 0.81767 0.66945 0.92017 0.0
C2396 C 0.777 0.63447 0.01314 0.0
C2397 C 0.76968 0.62436 0.96902 0.0
C2398 C 0.78489 0.65016 0.00429 0.0
C2399 C 0.78552 0.6559 0.94994 0.0
C2400 C 0.7779 0.64578 0.90541 0.0
C2401 C 0.77004 0.63013 0.91549 0.0
C2402 C 0.79282 0.66059 0.05289 0.0
C2403 C 0.77835 0.65149 0.84687 0.0
H2404 H 0.79204 0.70452 0.93961 0.0
H2405 H 0.83087 0.69967 0.9079 0.0
H2406 H 0.76443 0.66629 0.92801 0.0
H2407 H 0.76931 0.66964 0.00027 0.0
H2408 H 0.76811 0.68386 0.95954 0.0
H2409 H 0.82976 0.67625 0.90795 0.0
H2410 H 0.81694 0.66372 0.96036 0.0
H2411 H 0.81164 0.66049 0.88841 0.0
H2412 H 0.77673 0.63012 0.05467 0.0
H2413 H 0.76441 0.62241 0.88115 0.0
H2414 H 0.78906 0.66904 0.05701 0.0
H2415 H 0.80521 0.66694 0.04532 0.0
H2416 H 0.79066 0.65437 0.09299 0.0
H2417 H 0.77432 0.65977 0.84676 0.0
H2418 H 0.77129 0.64219 0.81737 0.0
H2419 H 0.79018 0.65746 0.83137 0.0
C2420 C 0.35258 0.13237 0.0219 0.0
C2421 C 0.36287 0.13411 0.9797 0.0
C2422 C 0.337 0.1253 0.01103 0.0
C2423 C 0.33159 0.11991 0.95659 0.0
C2424 C 0.34185 0.12126 0.91419 0.0
C2425 C 0.35737 0.12831 0.92628 0.0
C2426 C 0.32638 0.12398 0.05742 0.0
C2427 C 0.3365 0.11567 0.8556 0.0
C2428 C 0.28966 0.09212 0.93678 0.0
C2429 C 0.28429 0.10174 0.91974 0.0
C2430 C 0.30504 0.09786 0.94888 0.0
C2431 C 0.31529 0.11356 0.94337 0.0
C2432 C 0.30996 0.1233 0.92566 0.0
C2433 C 0.29452 0.11729 0.91427 0.0
C2434 C 0.31031 0.08715 0.968 0.0
C2435 C 0.32057 0.14011 0.91889 0.0
H2436 H 0.35672 0.13675 0.06335 0.0
H2437 H 0.36523 0.1296 0.89341 0.0
H2438 H 0.321 0.13081 0.04704 0.0
H2439 H 0.31718 0.11206 0.06189 0.0
H2440 H 0.33228 0.12793 0.09817 0.0
H2441 H 0.34582 0.11686 0.82818 0.0
H2442 H 0.32749 0.1036 0.85639 0.0
H2443 H 0.33152 0.12216 0.83694 0.0
H2444 H 0.28181 0.0801 0.94124 0.0
H2445 H 0.29048 0.12479 0.90091 0.0
H2446 H 0.31548 0.09049 0.01009 0.0
H2447 H 0.31916 0.0878 0.93935 0.0
H2448 H 0.30092 0.07522 0.96975 0.0
H2449 H 0.32607 0.14513 0.95939 0.0
H2450 H 0.31467 0.14609 0.9038 0.0
H2451 H 0.32969 0.14216 0.88886 0.0
C2452 C 0.90087 0.20095 0.93104 0.0
C2453 C 0.89471 0.1891 0.89207 0.0
C2454 C 0.89396 0.20963 0.94167 0.0
C2455 C 0.88044 0.20622 0.9133 0.0
C2456 C 0.8743 0.19441 0.87333 0.0
C2457 C 0.88157 0.18607 0.8629 0.0
C2458 C 0.90097 0.2223 0.98391 0.0
C2459 C 0.8598 0.1903 0.84272 0.0
C2460 C 0.85335 0.21674 0.98127 0.0
C2461 C 0.85574 0.22928 0.94946 0.0
C2462 C 0.86144 0.20923 0.97028 0.0
C2463 C 0.87234 0.21454 0.92697 0.0
C2464 C 0.8751 0.22745 0.89569 0.0
C2465 C 0.86668 0.2346 0.90703 0.0
C2466 C 0.85804 0.19539 0.00413 0.0
C2467 C 0.88681 0.23357 0.84978 0.0
H2468 H 0.91108 0.20341 0.95347 0.0
H2469 H 0.87671 0.17689 0.83288 0.0
H2470 H 0.90275 0.233 0.96508 0.0
H2471 H 0.89319 0.21969 0.01984 0.0
H2472 H 0.91199 0.22411 -0.00022 0.0
H2473 H 0.85671 0.18105 0.81196 0.0
H2474 H 0.8504 0.18665 0.87309 0.0
H2475 H 0.8609 0.20033 0.82044 0.0
H2476 H 0.84488 0.21251 0.01397 0.0
H2477 H 0.86863 0.24434 0.88247 0.0
H2478 H 0.86852 0.19698 0.02437 0.0
H2479 H 0.85387 0.18541 0.97621 0.0
H2480 H 0.84941 0.19288 0.03696 0.0
H2481 H 0.89791 0.23581 0.86612 0.0
H2482 H 0.88818 0.24419 0.83146 0.0
H2483 H 0.88351 0.22503 0.81605 0.0
C2484 C 0.69995 0.81028 0.63336 0.0
C2485 C 0.71084 0.80926 0.60092 0.0
C2486 C 0.6846 0.80235 0.6185 0.0
C2487 C 0.68002 0.79306 0.57033 0.0
C2488 C 0.6909 0.79167 0.53818 0.0
C2489 C 0.70621 0.79986 0.55369 0.0
C2490 C 0.67334 0.80423 0.6536 0.0
C2491 C 0.6864 0.78174 0.48692 0.0
C2492 C 0.638 0.76456 0.56136 0.0
C2493 C 0.63285 0.77222 0.52722 0.0
C2494 C 0.65344 0.77093 0.57403 0.0
C2495 C 0.66391 0.78537 0.55252 0.0
C2496 C 0.65884 0.79293 0.51656 0.0
C2497 C 0.64339 0.78622 0.50411 0.0
C2498 C 0.65847 0.76245 0.6119 0.0
C2499 C 0.66966 0.80838 0.49304 0.0
H2500 H 0.70343 0.81753 0.66985 0.0
H2501 H 0.71456 0.79896 0.52857 0.0
H2502 H 0.66792 0.80927 0.62799 0.0
H2503 H 0.66424 0.79303 0.66825 0.0
H2504 H 0.67869 0.81158 0.69055 0.0
H2505 H 0.69609 0.78118 0.46838 0.0
H2506 H 0.67736 0.77009 0.49749 0.0
H2507 H 0.68173 0.78614 0.45492 0.0
H2508 H 0.62994 0.75369 0.57911 0.0
H2509 H 0.63952 0.79223 0.47766 0.0
H2510 H 0.66266 0.76866 0.65189 0.0
H2511 H 0.66797 0.76173 0.59259 0.0
H2512 H 0.64916 0.75081 0.62116 0.0
H2513 H 0.67462 0.8167 0.5276 0.0
H2514 H 0.66403 0.81239 0.46341 0.0
H2515 H 0.67914 0.8082 0.47113 0.0
C2516 C 0.22379 0.91745 0.58392 0.0
C2517 C 0.20793 0.90979 0.58227 0.0
C2518 C 0.23175 0.90965 0.57579 0.0
C2519 C 0.22362 0.89388 0.56529 0.0
C2520 C 0.20763 0.88612 0.56342 0.0
C2521 C 0.19999 0.89415 0.57216 0.0
C2522 C 0.24881 0.91825 0.57853 0.0
C2523 C 0.19855 0.86932 0.55199 0.0
C2524 C 0.24185 0.87384 0.49349 0.0
C2525 C 0.2441 0.86638 0.53846 0.0
C2526 C 0.2357 0.88329 0.50187 0.0
C2527 C 0.23172 0.88533 0.5565 0.0
C2528 C 0.23443 0.87824 0.60226 0.0
C2529 C 0.24057 0.86884 0.59269 0.0
C2530 C 0.23296 0.89067 0.45203 0.0
C2531 C 0.23037 0.88017 0.66115 0.0
H2532 H 0.23 0.92953 0.59182 0.0
H2533 H 0.18773 0.88814 0.57047 0.0
H2534 H 0.25273 0.91341 0.61165 0.0
H2535 H 0.25359 0.91708 0.53846 0.0
H2536 H 0.25344 0.93048 0.58727 0.0
H2537 H 0.18617 0.86502 0.55138 0.0
H2538 H 0.2019 0.86675 0.51115 0.0
H2539 H 0.20097 0.86304 0.58439 0.0
H2540 H 0.24461 0.87206 0.4515 0.0
H2541 H 0.24236 0.86319 0.62775 0.0
H2542 H 0.2381 0.90302 0.45903 0.0
H2543 H 0.22062 0.886 0.44636 0.0
H2544 H 0.23767 0.88883 0.4129 0.0
H2545 H 0.23542 0.89236 0.67131 0.0
H2546 H 0.23426 0.87484 0.69252 0.0
H2547 H 0.21791 0.87498 0.66485 0.0
C2548 C 0.11791 0.37027 0.61493 0.0
C2549 C 0.1324 0.37688 0.59114 0.0
C2550 C 0.10965 0.35467 0.62625 0.0
C2551 C 0.11605 0.34551 0.61339 0.0
C2552 C 0.13063 0.35211 0.58919 0.0
C2553 C 0.13862 0.36769 0.5784 0.0
C2554 C 0.09412 0.348 0.65213 0.0
C2555 C 0.13784 0.34271 0.57479 0.0
C2556 C 0.10321 0.30789 0.68521 0.0
C2557 C 0.09445 0.29758 0.64339 0.0
C2558 C 0.10982 0.32355 0.67684 0.0
C2559 C 0.10764 0.32901 0.62539 0.0
C2560 C 0.09836 0.31866 0.58381 0.0
C2561 C 0.09186 0.30307 0.59333 0.0
C2562 C 0.1196 0.33424 0.72226 0.0
C2563 C 0.09578 0.32407 0.5284 0.0
H2564 H 0.11302 0.37728 0.62491 0.0
H2565 H 0.1498 0.37267 0.55996 0.0
H2566 H 0.08561 0.33901 0.62469 0.0
H2567 H 0.0939 0.34263 0.69266 0.0
H2568 H 0.09071 0.35664 0.65926 0.0
H2569 H 0.14923 0.34957 0.55577 0.0
H2570 H 0.13895 0.33718 0.61296 0.0
H2571 H 0.13054 0.3336 0.54515 0.0
H2572 H 0.1052 0.30376 0.72415 0.0
H2573 H 0.08507 0.29519 0.56084 0.0
H2574 H 0.11599 0.34261 0.73163 0.0
H2575 H 0.13152 0.34065 0.70782 0.0
H2576 H 0.11918 0.3282 0.76141 0.0
H2577 H 0.09186 0.33232 0.53498 0.0
H2578 H 0.08732 0.31461 0.50229 0.0
H2579 H 0.1066 0.32999 0.50498 0.0
C2580 C 0.03701 0.55582 0.81576 0.0
C2581 C 0.04782 0.56709 0.78097 0.0
C2582 C 0.02162 0.54814 0.80146 0.0
C2583 C 0.01691 0.55191 0.75137 0.0
C2584 C 0.02771 0.56352 0.71668 0.0
C2585 C 0.04306 0.57094 0.73177 0.0
C2586 C 0.01045 0.53574 0.83936 0.0
C2587 C 0.02307 0.56794 0.66322 0.0
C2588 C 0.97994 0.52126 0.68985 0.0
C2589 C 0.96962 0.52544 0.7098 0.0
C2590 C 0.99543 0.52998 0.70201 0.0
C2591 C 0.00074 0.54328 0.73451 0.0
C2592 C 0.99047 0.54785 0.75311 0.0
C2593 C 0.97501 0.53884 0.74072 0.0
C2594 C 0.00602 0.5247 0.68161 0.0
C2595 C 0.99575 0.56205 0.78736 0.0
H2596 H 0.04059 0.55276 0.85379 0.0
H2597 H 0.05134 0.57969 0.70477 0.0
H2598 H 0.00143 0.53817 0.85225 0.0
H2599 H 0.00489 0.52481 0.81655 0.0
H2600 H 0.0159 0.53443 0.87746 0.0
H2601 H 0.03275 0.57771 0.64233 0.0
H2602 H 0.01817 0.55822 0.6339 0.0
H2603 H 0.01418 0.5709 0.67186 0.0
H2604 H 0.97589 0.51093 0.66591 0.0
H2605 H 0.96712 0.54219 0.75603 0.0
H2606 H 0.01106 0.52202 0.71784 0.0
H2607 H 0.01548 0.53382 0.65758 0.0
H2608 H 0.00021 0.51448 0.65475 0.0
H2609 H 0.00016 0.56078 0.82812 0.0
H2610 H 0.98653 0.5646 0.79528 0.0
H2611 H 0.00517 0.57186 0.76578 0.0
C2612 C 0.43335 0.46395 0.74516 0.0
C2613 C 0.44262 0.47945 0.75622 0.0
C2614 C 0.4396 0.45457 0.73675 0.0
C2615 C 0.45548 0.46083 0.73981 0.0
C2616 C 0.46488 0.47643 0.75146 0.0
C2617 C 0.45834 0.48555 0.75935 0.0
C2618 C 0.42923 0.438 0.7241 0.0
C2619 C 0.48186 0.4835 0.75535 0.0
C2620 C 0.47195 0.43522 0.76585 0.0
C2621 C 0.47684 0.43409 0.71222 0.0
C2622 C 0.46477 0.4437 0.77533 0.0
C2623 C 0.46234 0.45115 0.73005 0.0
C2624 C 0.46694 0.44978 0.67564 0.0
C2625 C 0.47417 0.44131 0.66741 0.0
C2626 C 0.46007 0.44496 0.83398 0.0
C2627 C 0.46446 0.45749 0.62625 0.0
H2628 H 0.42119 0.45914 0.74257 0.0
H2629 H 0.46559 0.4975 0.76805 0.0
H2630 H 0.43213 0.4352 0.68282 0.0
H2631 H 0.43081 0.43095 0.75564 0.0
H2632 H 0.41712 0.43487 0.7237 0.0
H2633 H 0.48755 0.49574 0.7658 0.0
H2634 H 0.48482 0.47763 0.7877 0.0
H2635 H 0.48643 0.48217 0.71506 0.0
H2636 H 0.47398 0.4297 0.80073 0.0
H2637 H 0.47785 0.44045 0.6258 0.0
H2638 H 0.44783 0.44123 0.8351 0.0
H2639 H 0.4663 0.45695 0.84769 0.0
H2640 H 0.46231 0.43807 0.86429 0.0
H2641 H 0.45232 0.45405 0.62287 0.0
H2642 H 0.46813 0.45478 0.58631 0.0
H2643 H 0.47086 0.46994 0.63227 0.0
C2644 C 0.52211 0.97355 0.80926 0.0
C2645 C 0.52486 0.96261 0.78535 0.0
C2646 C 0.53113 0.9889 0.7958 0.0
C2647 C 0.54329 0.99345 0.75788 0.0
C2648 C 0.54652 0.98255 0.73529 0.0
C2649 C 0.53721 0.96723 0.74911 0.0
C2650 C 0.5273 0.0002 0.8206 0.0
C2651 C 0.5595 0.98702 0.69525 0.0
C2652 C 0.55435 0.02973 0.67917 0.0
C2653 C 0.56654 0.04043 0.71109 0.0
C2654 C 0.54698 0.01432 0.69299 0.0
C2655 C 0.55201 0.00949 0.73957 0.0
C2656 C 0.56472 0.02013 0.7705 0.0
C2657 C 0.57181 0.03551 0.75602 0.0
C2658 C 0.53342 0.00329 0.65909 0.0
C2659 C 0.5705 0.01536 0.82003 0.0
H2660 H 0.51261 0.97008 0.83734 0.0
H2661 H 0.53947 0.95885 0.73072 0.0
H2662 H 0.53736 0.00946 0.84161 0.0
H2663 H 0.52397 0.0054 0.78685 0.0
H2664 H 0.51791 0.99492 0.85132 0.0
H2665 H 0.56127 0.97739 0.68504 0.0
H2666 H 0.55727 0.9913 0.65591 0.0
H2667 H 0.57012 0.99632 0.71319 0.0
H2668 H 0.55022 0.03342 0.64433 0.0
H2669 H 0.58128 0.04371 0.7807 0.0
H2670 H 0.52315 0.99832 0.6857 0.0
H2671 H 0.53493 0.99383 0.64421 0.0
H2672 H 0.53146 0.00874 0.62237 0.0
H2673 H 0.56195 0.0113 0.85396 0.0
H2674 H 0.58129 0.02478 0.83651 0.0
H2675 H 0.57226 0.00583 0.80845 0.0
C2676 C 0.48015 0.02974 0.19184 0.0
C2677 C 0.47728 0.03972 0.22276 0.0
C2678 C 0.4722 0.01413 0.20248 0.0
C2679 C 0.46097 0.00833 0.24463 0.0
C2680 C 0.45784 0.0183 0.27542 0.0
C2681 C 0.46611 0.03389 0.26435 0.0
C2682 C 0.47596 0.00387 0.16915 0.0
C2683 C 0.44583 0.0125 0.32025 0.0
C2684 C 0.43209 0.96635 0.23793 0.0
C2685 C 0.43774 0.96041 0.27796 0.0
C2686 C 0.43937 0.98197 0.22742 0.0
C2687 C 0.45272 0.99184 0.2571 0.0
C2688 C 0.45842 0.98593 0.29778 0.0
C2689 C 0.45081 0.97029 0.30797 0.0
C2690 C 0.43285 0.98789 0.18421 0.0
C2691 C 0.47272 0.99609 0.32985 0.0
H2692 H 0.48881 0.03415 0.15978 0.0
H2693 H 0.46378 0.04153 0.28826 0.0
H2694 H 0.4798 0.99789 0.19761 0.0
H2695 H 0.46571 0.99512 0.14734 0.0
H2696 H 0.48495 0.01017 0.13764 0.0
H2697 H 0.44444 0.02168 0.33917 0.0
H2698 H 0.43481 0.00385 0.30256 0.0
H2699 H 0.44879 0.00693 0.35376 0.0
H2700 H 0.42195 0.95879 0.21477 0.0
H2701 H 0.45528 0.96579 0.33881 0.0
H2702 H 0.44106 0.99337 0.14969 0.0
H2703 H 0.43078 0.99663 0.20302 0.0
H2704 H 0.42205 0.97879 0.1664 0.0
H2705 H 0.48234 0.00198 0.30043 0.0
H2706 H 0.47556 0.98972 0.36057 0.0
H2707 H 0.47152 0.00492 0.3524 0.0
C2708 C 0.02426 0.47833 0.3056 0.0
C2709 C 0.0346 0.47346 0.29363 0.0
C2710 C 0.00883 0.46917 0.29341 0.0
C2711 C 0.00358 0.45473 0.2693 0.0
C2712 C 0.01389 0.44956 0.25857 0.0
C2713 C 0.02931 0.45904 0.27055 0.0
C2714 C 0.9982 0.47513 0.30503 0.0
C2715 C 0.00866 0.43413 0.23361 0.0
C2716 C 0.9613 0.42746 0.27933 0.0
C2717 C 0.95633 0.42903 0.22644 0.0
C2718 C 0.97672 0.4354 0.29333 0.0
C2719 C 0.98738 0.44528 0.25372 0.0
C2720 C 0.98246 0.44669 0.19993 0.0
C2721 C 0.967 0.43847 0.18682 0.0
C2722 C 0.98157 0.43346 0.35085 0.0
C2723 C 0.99348 0.45724 0.15676 0.0
H2724 H 0.02825 0.48947 0.32327 0.0
H2725 H 0.03724 0.45518 0.26146 0.0
H2726 H 0.99298 0.47591 0.26544 0.0
H2727 H 0.98888 0.46722 0.3328 0.0
H2728 H 0.00403 0.48649 0.32494 0.0
H2729 H 0.01796 0.43148 0.23064 0.0
H2730 H -0.0006 0.42528 0.25917 0.0
H2731 H 0.00405 0.43354 0.19116 0.0
H2732 H 0.95312 0.4201 0.31005 0.0
H2733 H 0.96324 0.43977 0.14593 0.0
H2734 H 0.98641 0.44431 0.37405 0.0
H2735 H 0.99056 0.43041 0.34764 0.0
H2736 H 0.97201 0.42461 0.37547 0.0
H2737 H -0.001 0.46906 0.17232 0.0
H2738 H 0.9879 0.45666 0.11629 0.0
H2739 H 0.00254 0.45444 0.14942 0.0
C2740 C 0.55121 0.52302 0.2006 0.0
C2741 C 0.56544 0.52606 0.21981 0.0
C2742 C 0.54525 0.53226 0.21592 0.0
C2743 C 0.55379 0.54492 0.25087 0.0
C2744 C 0.56838 0.54837 0.26887 0.0
C2745 C 0.57401 0.53884 0.25333 0.0
C2746 C 0.52961 0.52818 0.19607 0.0
C2747 C 0.57787 0.5619 0.30559 0.0
C2748 C 0.54058 0.57368 0.25306 0.0
C2749 C 0.53138 0.56924 0.3008 0.0
C2750 C 0.54851 0.5663 0.23755 0.0
C2751 C 0.54708 0.55411 0.27031 0.0
C2752 C 0.5383 0.54998 0.31974 0.0
C2753 C 0.53061 0.55765 0.33454 0.0
C2754 C 0.55793 0.57115 0.18495 0.0
C2755 C 0.53645 0.53699 0.35564 0.0
H2756 H 0.5445 0.51317 0.17472 0.0
H2757 H 0.58505 0.54131 0.2681 0.0
H2758 H 0.52197 0.5256 0.23248 0.0
H2759 H 0.52999 0.53789 0.17378 0.0
H2760 H 0.52464 0.51822 0.16772 0.0
H2761 H 0.58938 0.5636 0.31282 0.0
H2762 H 0.57897 0.5723 0.28643 0.0
H2763 H 0.57223 0.56039 0.34659 0.0
H2764 H 0.54132 0.58271 0.22696 0.0
H2765 H 0.52355 0.55415 0.37153 0.0
H2766 H 0.5526 0.56209 0.15304 0.0
H2767 H 0.56939 0.5729 0.19336 0.0
H2768 H 0.55909 0.58174 0.16726 0.0
H2769 H 0.53037 0.52626 0.33176 0.0
H2770 H 0.53003 0.53583 0.39454 0.0
H2771 H 0.54768 0.53856 0.36708 0.0
loop_
_geom_bond_atom_site_label_1
_geom_bond_atom_site_label_2
_geom_bond_distance
_geom_bond_site_symmetry_2
_ccdc_geom_bond_type
C0 O1 1.160 . S
C0 O7 1.185 . S
O1 C0 1.160 . S
O2 Zn3 1.899 . S
O2 C10 1.284 . S
Zn3 O2 1.899 . S
Zn3 O4 2.032 . S
Zn3 O7 2.086 . S
Zn3 O12 1.977 . S
O4 Zn3 2.032 . S
O4 C8 1.278 . S
C5 O6 1.203 . S
C5 O12 1.267 . S
O6 C5 1.203 . S
O7 C0 1.185 . S
O7 Zn3 2.086 . S
C8 O4 1.278 . S
C8 O9 1.211 . S
O9 C8 1.211 . S
C10 O2 1.284 . S
C10 O11 1.273 . S
O11 C10 1.273 . S
O12 Zn3 1.977 . S
O12 C5 1.267 . S
C13 O14 1.160 . S
C13 O20 1.185 . S
O14 C13 1.160 . S
O15 Zn16 1.899 . S
O15 C23 1.284 . S
Zn16 O15 1.899 . S
Zn16 O17 2.032 . S
Zn16 O20 2.086 . S
Zn16 O25 1.977 . S
O17 Zn16 2.032 . S
O17 C21 1.278 . S
C18 O19 1.203 . S
C18 O25 1.267 . S
O19 C18 1.203 . S
O20 C13 1.185 . S
O20 Zn16 2.086 . S
C21 O17 1.278 . S
C21 O22 1.211 . S
O22 C21 1.211 . S
C23 O15 1.284 . S
C23 O24 1.273 . S
O24 C23 1.273 . S
O25 Zn16 1.977 . S
O25 C18 1.267 . S
C26 O27 1.160 . S
C26 O33 1.185 . S
O27 C26 1.160 . S
O28 Zn29 1.899 . S
O28 C36 1.284 . S
Zn29 O28 1.899 . S
Zn29 O30 2.032 . S
Zn29 O33 2.086 . S
Zn29 O38 1.977 . S
O30 Zn29 2.032 . S
O30 C34 1.278 . S
C31 O32 1.203 . S
C31 O38 1.267 . S
O32 C31 1.203 . S
O33 C26 1.185 . S
O33 Zn29 2.086 . S
C34 O30 1.278 . S
C34 O35 1.211 . S
O35 C34 1.211 . S
C36 O28 1.284 . S
C36 O37 1.273 . S
O37 C36 1.273 . S
O38 Zn29 1.977 . S
O38 C31 1.267 . S
C39 O40 1.160 . S
C39 O46 1.185 . S
O40 C39 1.160 . S
O41 Zn42 1.899 . S
O41 C49 1.284 . S
Zn42 O41 1.899 . S
Zn42 O43 2.032 . S
Zn42 O46 2.086 . S
Zn42 O51 1.977 . S
O43 Zn42 2.032 . S
O43 C47 1.278 . S
C44 O45 1.203 . S
C44 O51 1.267 . S
O45 C44 1.203 . S
O46 C39 1.185 . S
O46 Zn42 2.086 . S
C47 O43 1.278 . S
C47 O48 1.211 . S
O48 C47 1.211 . S
C49 O41 1.284 . S
C49 O50 1.273 . S
O50 C49 1.273 . S
O51 Zn42 1.977 . S
O51 C44 1.267 . S
C52 O53 1.160 . S
C52 O59 1.185 . S
O53 C52 1.160 . S
O54 Zn55 1.899 . S
O54 C62 1.284 . S
Zn55 O54 1.899 . S
Zn55 O56 2.032 . S
Zn55 O59 2.086 . S
Zn55 O64 1.977 . S
O56 Zn55 2.032 . S
O56 C60 1.278 . S
C57 O58 1.203 . S
C57 O64 1.267 . S
O58 C57 1.203 . S
O59 C52 1.185 . S
O59 Zn55 2.086 . S
C60 O56 1.278 . S
C60 O61 1.211 . S
O61 C60 1.211 . S
C62 O54 1.284 . S
C62 O63 1.273 . S
O63 C62 1.273 . S
O64 Zn55 1.977 . S
O64 C57 1.267 . S
C65 O66 1.160 . S
C65 O72 1.185 . S
O66 C65 1.160 . S
O67 Zn68 1.899 . S
O67 C75 1.284 . S
Zn68 O67 1.899 . S
Zn68 O69 2.032 . S
Zn68 O72 2.086 . S
Zn68 O77 1.977 . S
O69 Zn68 2.032 . S
O69 C73 1.278 . S
C70 O71 1.203 . S
C70 O77 1.267 . S
O71 C70 1.203 . S
O72 C65 1.185 . S
O72 Zn68 2.086 . S
C73 O69 1.278 . S
C73 O74 1.211 . S
O74 C73 1.211 . S
C75 O67 1.284 . S
C75 O76 1.273 . S
O76 C75 1.273 . S
O77 Zn68 1.977 . S
O77 C70 1.267 . S
C78 O79 1.160 . S
C78 O85 1.185 . S
O79 C78 1.160 . S
O80 Zn81 1.899 . S
O80 C88 1.284 . S
Zn81 O80 1.899 . S
Zn81 O82 2.032 . S
Zn81 O85 2.086 . S
Zn81 O90 1.977 . S
O82 Zn81 2.032 . S
O82 C86 1.278 . S
C83 O84 1.203 . S
C83 O90 1.267 . S
O84 C83 1.203 . S
O85 C78 1.185 . S
O85 Zn81 2.086 . S
C86 O82 1.278 . S
C86 O87 1.211 . S
O87 C86 1.211 . S
C88 O80 1.284 . S
C88 O89 1.273 . S
O89 C88 1.273 . S
O90 Zn81 1.977 . S
O90 C83 1.267 . S
C91 O92 1.160 . S
C91 O98 1.185 . S
O92 C91 1.160 . S
O93 Zn94 1.899 . S
O93 C101 1.284 . S
Zn94 O93 1.899 . S
Zn94 O95 2.032 . S
Zn94 O98 2.086 . S
Zn94 O103 1.977 . S
O95 Zn94 2.032 . S
O95 C99 1.278 . S
C96 O97 1.203 . S
C96 O103 1.267 . S
O97 C96 1.203 . S
O98 C91 1.185 . S
O98 Zn94 2.086 . S
C99 O95 1.278 . S
C99 O100 1.211 . S
O100 C99 1.211 . S
C101 O93 1.284 . S
C101 O102 1.273 . S
O102 C101 1.273 . S
O103 Zn94 1.977 . S
O103 C96 1.267 . S
C104 O105 1.160 . S
C104 O111 1.185 . S
O105 C104 1.160 . S
O106 Zn107 1.899 . S
O106 C114 1.284 . S
Zn107 O106 1.899 . S
Zn107 O108 2.032 . S
Zn107 O111 2.086 . S
Zn107 O116 1.977 . S
O108 Zn107 2.032 . S
O108 C112 1.278 . S
C109 O110 1.203 . S
C109 O116 1.267 . S
O110 C109 1.203 . S
O111 C104 1.185 . S
O111 Zn107 2.086 . S
C112 O108 1.278 . S
C112 O113 1.211 . S
O113 C112 1.211 . S
C114 O106 1.284 . S
C114 O115 1.273 . S
O115 C114 1.273 . S
O116 Zn107 1.977 . S
O116 C109 1.267 . S
C117 O118 1.160 . S
C117 O124 1.185 . S
O118 C117 1.160 . S
O119 Zn120 1.899 . S
O119 C127 1.284 . S
Zn120 O119 1.899 . S
Zn120 O121 2.032 . S
Zn120 O124 2.086 . S
Zn120 O129 1.977 . S
O121 Zn120 2.032 . S
O121 C125 1.278 . S
C122 O123 1.203 . S
C122 O129 1.267 . S
O123 C122 1.203 . S
O124 C117 1.185 . S
O124 Zn120 2.086 . S
C125 O121 1.278 . S
C125 O126 1.211 . S
O126 C125 1.211 . S
C127 O119 1.284 . S
C127 O128 1.273 . S
O128 C127 1.273 . S
O129 Zn120 1.977 . S
O129 C122 1.267 . S
C130 O131 1.160 . S
C130 O137 1.185 . S
O131 C130 1.160 . S
O132 Zn133 1.899 . S
O132 C140 1.284 . S
Zn133 O132 1.899 . S
Zn133 O134 2.032 . S
Zn133 O137 2.086 . S
Zn133 O142 1.977 . S
O134 Zn133 2.032 . S
O134 C138 1.278 . S
C135 O136 1.203 . S
C135 O142 1.267 . S
O136 C135 1.203 . S
O137 C130 1.185 . S
O137 Zn133 2.086 . S
C138 O134 1.278 . S
C138 O139 1.211 . S
O139 C138 1.211 . S
C140 O132 1.284 . S
C140 O141 1.273 . S
O141 C140 1.273 . S
O142 Zn133 1.977 . S
O142 C135 1.267 . S
C143 O144 1.160 . S
C143 O150 1.185 . S
O144 C143 1.160 . S
O145 Zn146 1.899 . S
O145 C153 1.284 . S
Zn146 O145 1.899 . S
Zn146 O147 2.032 . S
Zn146 O150 2.086 . S
Zn146 O155 1.977 . S
O147 Zn146 2.032 . S
O147 C151 1.278 . S
C148 O149 1.203 . S
C148 O155 1.267 . S
O149 C148 1.203 . S
O150 C143 1.185 . S
O150 Zn146 2.086 . S
C151 O147 1.278 . S
C151 O152 1.211 . S
O152 C151 1.211 . S
C153 O145 1.284 . S
C153 O154 1.273 . S
O154 C153 1.273 . S
O155 Zn146 1.977 . S
O155 C148 1.267 . S
C156 O157 1.160 . S
C156 O163 1.185 . S
O157 C156 1.160 . S
O158 Zn159 1.899 . S
O158 C166 1.284 . S
Zn159 O158 1.899 . S
Zn159 O160 2.032 . S
Zn159 O163 2.086 . S
Zn159 O168 1.977 . S
O160 Zn159 2.032 . S
O160 C164 1.278 . S
C161 O162 1.203 . S
C161 O168 1.267 . S
O162 C161 1.203 . S
O163 C156 1.185 . S
O163 Zn159 2.086 . S
C164 O160 1.278 . S
C164 O165 1.211 . S
O165 C164 1.211 . S
C166 O158 1.284 . S
C166 O167 1.273 . S
O167 C166 1.273 . S
O168 Zn159 1.977 . S
O168 C161 1.267 . S
C169 O170 1.160 . S
C169 O176 1.185 . S
O170 C169 1.160 . S
O171 Zn172 1.899 . S
O171 C179 1.284 . S
Zn172 O171 1.899 . S
Zn172 O173 2.032 . S
Zn172 O176 2.086 . S
Zn172 O181 1.977 . S
O173 Zn172 2.032 . S
O173 C177 1.278 . S
C174 O175 1.203 . S
C174 O181 1.267 . S
O175 C174 1.203 . S
O176 C169 1.185 . S
O176 Zn172 2.086 . S
C177 O173 1.278 . S
C177 O178 1.211 . S
O178 C177 1.211 . S
C179 O171 1.284 . S
C179 O180 1.273 . S
O180 C179 1.273 . S
O181 Zn172 1.977 . S
O181 C174 1.267 . S
C182 O183 1.160 . S
C182 O189 1.185 . S
O183 C182 1.160 . S
O184 Zn185 1.899 . S
O184 C192 1.284 . S
Zn185 O184 1.899 . S
Zn185 O186 2.032 . S
Zn185 O189 2.086 . S
Zn185 O194 1.977 . S
O186 Zn185 2.032 . S
O186 C190 1.278 . S
C187 O188 1.203 . S
C187 O194 1.267 . S
O188 C187 1.203 . S
O189 C182 1.185 . S
O189 Zn185 2.086 . S
C190 O186 1.278 . S
C190 O191 1.211 . S
O191 C190 1.211 . S
C192 O184 1.284 . S
C192 O193 1.273 . S
O193 C192 1.273 . S
O194 Zn185 1.977 . S
O194 C187 1.267 . S
C195 O196 1.160 . S
C195 O202 1.185 . S
O196 C195 1.160 . S
O197 Zn198 1.899 . S
O197 C205 1.284 . S
Zn198 O197 1.899 . S
Zn198 O199 2.032 . S
Zn198 O202 2.086 . S
Zn198 O207 1.977 . S
O199 Zn198 2.032 . S
O199 C203 1.278 . S
C200 O201 1.203 . S
C200 O207 1.267 . S
O201 C200 1.203 . S
O202 C195 1.185 . S
O202 Zn198 2.086 . S
C203 O199 1.278 . S
C203 O204 1.211 . S
O204 C203 1.211 . S
C205 O197 1.284 . S
C205 O206 1.273 . S
O206 C205 1.273 . S
O207 Zn198 1.977 . S
O207 C200 1.267 . S
C208 O209 1.160 . S
C208 O215 1.185 . S
O209 C208 1.160 . S
O210 Zn211 1.899 . S
O210 C218 1.284 . S
Zn211 O210 1.899 . S
Zn211 O212 2.032 . S
Zn211 O215 2.086 . S
Zn211 O220 1.977 . S
O212 Zn211 2.032 . S
O212 C216 1.278 . S
C213 O214 1.203 . S
C213 O220 1.267 . S
O214 C213 1.203 . S
O215 C208 1.185 . S
O215 Zn211 2.086 . S
C216 O212 1.278 . S
C216 O217 1.211 . S
O217 C216 1.211 . S
C218 O210 1.284 . S
C218 O219 1.273 . S
O219 C218 1.273 . S
O220 Zn211 1.977 . S
O220 C213 1.267 . S
C221 O222 1.160 . S
C221 O228 1.185 . S
O222 C221 1.160 . S
O223 Zn224 1.899 . S
O223 C231 1.284 . S
Zn224 O223 1.899 . S
Zn224 O225 2.032 . S
Zn224 O228 2.086 . S
Zn224 O233 1.977 . S
O225 Zn224 2.032 . S
O225 C229 1.278 . S
C226 O227 1.203 . S
C226 O233 1.267 . S
O227 C226 1.203 . S
O228 C221 1.185 . S
O228 Zn224 2.086 . S
C229 O225 1.278 . S
C229 O230 1.211 . S
O230 C229 1.211 . S
C231 O223 1.284 . S
C231 O232 1.273 . S
O232 C231 1.273 . S
O233 Zn224 1.977 . S
O233 C226 1.267 . S
C234 O235 1.160 . S
C234 O241 1.185 . S
O235 C234 1.160 . S
O236 Zn237 1.899 . S
O236 C244 1.284 . S
Zn237 O236 1.899 . S
Zn237 O238 2.032 . S
Zn237 O241 2.086 . S
Zn237 O246 1.977 . S
O238 Zn237 2.032 . S
O238 C242 1.278 . S
C239 O240 1.203 . S
C239 O246 1.267 . S
O240 C239 1.203 . S
O241 C234 1.185 . S
O241 Zn237 2.086 . S
C242 O238 1.278 . S
C242 O243 1.211 . S
O243 C242 1.211 . S
C244 O236 1.284 . S
C244 O245 1.273 . S
O245 C244 1.273 . S
O246 Zn237 1.977 . S
O246 C239 1.267 . S
C247 O248 1.160 . S
C247 O254 1.185 . S
O248 C247 1.160 . S
O249 Zn250 1.899 . S
O249 C257 1.284 . S
Zn250 O249 1.899 . S
Zn250 O251 2.032 . S
Zn250 O254 2.086 . S
Zn250 O259 1.977 . S
O251 Zn250 2.032 . S
O251 C255 1.278 . S
C252 O253 1.203 . S
C252 O259 1.267 . S
O253 C252 1.203 . S
O254 C247 1.185 . S
O254 Zn250 2.086 . S
C255 O251 1.278 . S
C255 O256 1.211 . S
O256 C255 1.211 . S
C257 O249 1.284 . S
C257 O258 1.273 . S
O258 C257 1.273 . S
O259 Zn250 1.977 . S
O259 C252 1.267 . S
C260 O261 1.160 . S
C260 O267 1.185 . S
O261 C260 1.160 . S
O262 Zn263 1.899 . S
O262 C270 1.284 . S
Zn263 O262 1.899 . S
Zn263 O264 2.032 . S
Zn263 O267 2.086 . S
Zn263 O272 1.977 . S
O264 Zn263 2.032 . S
O264 C268 1.278 . S
C265 O266 1.203 . S
C265 O272 1.267 . S
O266 C265 1.203 . S
O267 C260 1.185 . S
O267 Zn263 2.086 . S
C268 O264 1.278 . S
C268 O269 1.211 . S
O269 C268 1.211 . S
C270 O262 1.284 . S
C270 O271 1.273 . S
O271 C270 1.273 . S
O272 Zn263 1.977 . S
O272 C265 1.267 . S
C273 O274 1.160 . S
C273 O280 1.185 1_554 S
O274 C273 1.160 . S
O275 Zn276 1.899 . S
O275 C283 1.284 . S
Zn276 O275 1.899 . S
Zn276 O277 2.032 1_556 S
Zn276 O280 2.086 . S
Zn276 O285 1.977 . S
O277 Zn276 2.032 1_554 S
O277 C281 1.278 . S
C278 O279 1.203 . S
C278 O285 1.267 . S
O279 C278 1.203 . S
O280 C273 1.185 1_556 S
O280 Zn276 2.086 . S
C281 O277 1.278 . S
C281 O282 1.211 . S
O282 C281 1.211 . S
C283 O275 1.284 . S
C283 O284 1.273 1_556 S
O284 C283 1.273 1_554 S
O285 Zn276 1.977 . S
O285 C278 1.267 . S
C286 O287 1.160 . S
C286 O293 1.185 1_554 S
O287 C286 1.160 . S
O288 Zn289 1.899 . S
O288 C296 1.284 . S
Zn289 O288 1.899 . S
Zn289 O290 2.032 1_556 S
Zn289 O293 2.086 . S
Zn289 O298 1.977 . S
O290 Zn289 2.032 1_554 S
O290 C294 1.278 . S
C291 O292 1.203 . S
C291 O298 1.267 . S
O292 C291 1.203 . S
O293 C286 1.185 1_556 S
O293 Zn289 2.086 . S
C294 O290 1.278 . S
C294 O295 1.211 . S
O295 C294 1.211 . S
C296 O288 1.284 . S
C296 O297 1.273 1_556 S
O297 C296 1.273 1_554 S
O298 Zn289 1.977 . S
O298 C291 1.267 . S
C299 O300 1.160 . S
C299 O306 1.185 1_554 S
O300 C299 1.160 . S
O301 Zn302 1.899 . S
O301 C309 1.284 . S
Zn302 O301 1.899 . S
Zn302 O303 2.032 1_556 S
Zn302 O306 2.086 . S
Zn302 O311 1.977 . S
O303 Zn302 2.032 1_554 S
O303 C307 1.278 . S
C304 O305 1.203 . S
C304 O311 1.267 . S
O305 C304 1.203 . S
O306 C299 1.185 1_556 S
O306 Zn302 2.086 . S
C307 O303 1.278 . S
C307 O308 1.211 . S
O308 C307 1.211 . S
C309 O301 1.284 . S
C309 O310 1.273 1_556 S
O310 C309 1.273 1_554 S
O311 Zn302 1.977 . S
O311 C304 1.267 . S
C312 O313 1.160 . S
C312 O319 1.185 . S
O313 C312 1.160 . S
O314 Zn315 1.899 . S
O314 C322 1.284 . S
Zn315 O314 1.899 . S
Zn315 O316 2.032 . S
Zn315 O319 2.086 . S
Zn315 O324 1.977 . S
O316 Zn315 2.032 . S
O316 C320 1.278 . S
C317 O318 1.203 . S
C317 O324 1.267 . S
O318 C317 1.203 . S
O319 C312 1.185 . S
O319 Zn315 2.086 . S
C320 O316 1.278 . S
C320 O321 1.211 . S
O321 C320 1.211 . S
C322 O314 1.284 . S
C322 O323 1.273 . S
O323 C322 1.273 . S
O324 Zn315 1.977 . S
O324 C317 1.267 . S
C325 O326 1.160 . S
C325 O332 1.185 . S
O326 C325 1.160 . S
O327 Zn328 1.899 . S
O327 C335 1.284 . S
Zn328 O327 1.899 . S
Zn328 O329 2.032 . S
Zn328 O332 2.086 . S
Zn328 O337 1.977 . S
O329 Zn328 2.032 . S
O329 C333 1.278 . S
C330 O331 1.203 . S
C330 O337 1.267 . S
O331 C330 1.203 . S
O332 C325 1.185 . S
O332 Zn328 2.086 . S
C333 O329 1.278 . S
C333 O334 1.211 . S
O334 C333 1.211 . S
C335 O327 1.284 . S
C335 O336 1.273 . S
O336 C335 1.273 . S
O337 Zn328 1.977 . S
O337 C330 1.267 . S
C338 O339 1.160 . S
C338 O345 1.185 . S
O339 C338 1.160 . S
O340 Zn341 1.899 . S
O340 C348 1.284 . S
Zn341 O340 1.899 . S
Zn341 O342 2.032 . S
Zn341 O345 2.086 . S
Zn341 O350 1.977 . S
O342 Zn341 2.032 . S
O342 C346 1.278 . S
C343 O344 1.203 . S
C343 O350 1.267 . S
O344 C343 1.203 . S
O345 C338 1.185 . S
O345 Zn341 2.086 . S
C346 O342 1.278 . S
C346 O347 1.211 . S
O347 C346 1.211 . S
C348 O340 1.284 . S
C348 O349 1.273 . S
O349 C348 1.273 . S
O350 Zn341 1.977 . S
O350 C343 1.267 . S
C351 O352 1.160 . S
C351 O358 1.185 1_556 S
O352 C351 1.160 . S
O353 Zn354 1.899 . S
O353 C361 1.284 . S
Zn354 O353 1.899 . S
Zn354 O355 2.032 1_554 S
Zn354 O358 2.086 . S
Zn354 O363 1.977 . S
O355 Zn354 2.032 1_556 S
O355 C359 1.278 . S
C356 O357 1.203 . S
C356 O363 1.267 . S
O357 C356 1.203 . S
O358 C351 1.185 1_554 S
O358 Zn354 2.086 . S
C359 O355 1.278 . S
C359 O360 1.211 . S
O360 C359 1.211 . S
C361 O353 1.284 . S
C361 O362 1.273 1_554 S
O362 C361 1.273 1_556 S
O363 Zn354 1.977 . S
O363 C356 1.267 . S
C364 O365 1.160 . S
C364 O371 1.185 1_556 S
O365 C364 1.160 . S
O366 Zn367 1.899 . S
O366 C374 1.284 . S
Zn367 O366 1.899 . S
Zn367 O368 2.032 1_554 S
Zn367 O371 2.086 . S
Zn367 O376 1.977 . S
O368 Zn367 2.032 1_556 S
O368 C372 1.278 . S
C369 O370 1.203 . S
C369 O376 1.267 . S
O370 C369 1.203 . S
O371 C364 1.185 1_554 S
O371 Zn367 2.086 . S
C372 O368 1.278 . S
C372 O373 1.211 . S
O373 C372 1.211 . S
C374 O366 1.284 . S
C374 O375 1.273 1_554 S
O375 C374 1.273 1_556 S
O376 Zn367 1.977 . S
O376 C369 1.267 . S
C377 O378 1.160 . S
C377 O384 1.185 1_556 S
O378 C377 1.160 . S
O379 Zn380 1.899 . S
O379 C387 1.284 . S
Zn380 O379 1.899 . S
Zn380 O381 2.032 1_554 S
Zn380 O384 2.086 . S
Zn380 O389 1.977 . S
O381 Zn380 2.032 1_556 S
O381 C385 1.278 . S
C382 O383 1.203 . S
C382 O389 1.267 . S
O383 C382 1.203 . S
O384 C377 1.185 1_554 S
O384 Zn380 2.086 . S
C385 O381 1.278 . S
C385 O386 1.211 . S
O386 C385 1.211 . S
C387 O379 1.284 . S
C387 O388 1.273 1_554 S
O388 C387 1.273 1_556 S
O389 Zn380 1.977 . S
O389 C382 1.267 . S
C390 O391 1.160 . S
C390 O397 1.185 . S
O391 C390 1.160 . S
O392 Zn393 1.899 . S
O392 C400 1.284 . S
Zn393 O392 1.899 . S
Zn393 O394 2.032 . S
Zn393 O397 2.086 . S
Zn393 O402 1.977 . S
O394 Zn393 2.032 . S
O394 C398 1.278 . S
C395 O396 1.203 . S
C395 O402 1.267 . S
O396 C395 1.203 . S
O397 C390 1.185 . S
O397 Zn393 2.086 . S
C398 O394 1.278 . S
C398 O399 1.211 . S
O399 C398 1.211 . S
C400 O392 1.284 . S
C400 O401 1.273 . S
O401 C400 1.273 . S
O402 Zn393 1.977 . S
O402 C395 1.267 . S
C403 O404 1.160 . S
C403 O410 1.185 . S
O404 C403 1.160 . S
O405 Zn406 1.899 . S
O405 C413 1.284 . S
Zn406 O405 1.899 . S
Zn406 O407 2.032 . S
Zn406 O410 2.086 . S
Zn406 O415 1.977 . S
O407 Zn406 2.032 . S
O407 C411 1.278 . S
C408 O409 1.203 . S
C408 O415 1.267 . S
O409 C408 1.203 . S
O410 C403 1.185 . S
O410 Zn406 2.086 . S
C411 O407 1.278 . S
C411 O412 1.211 . S
O412 C411 1.211 . S
C413 O405 1.284 . S
C413 O414 1.273 . S
O414 C413 1.273 . S
O415 Zn406 1.977 . S
O415 C408 1.267 . S
C416 O417 1.160 . S
C416 O423 1.185 . S
O417 C416 1.160 . S
O418 Zn419 1.899 . S
O418 C426 1.284 . S
Zn419 O418 1.899 . S
Zn419 O420 2.032 . S
Zn419 O423 2.086 . S
Zn419 O428 1.977 . S
O420 Zn419 2.032 . S
O420 C424 1.278 . S
C421 O422 1.203 . S
C421 O428 1.267 . S
O422 C421 1.203 . S
O423 C416 1.185 . S
O423 Zn419 2.086 . S
C424 O420 1.278 . S
C424 O425 1.211 . S
O425 C424 1.211 . S
C426 O418 1.284 . S
C426 O427 1.273 . S
O427 C426 1.273 . S
O428 Zn419 1.977 . S
O428 C421 1.267 . S
C429 O430 1.160 . S
C429 O436 1.185 . S
O430 C429 1.160 . S
O431 Zn432 1.899 . S
O431 C439 1.284 . S
Zn432 O431 1.899 . S
Zn432 O433 2.032 . S
Zn432 O436 2.086 . S
Zn432 O441 1.977 . S
O433 Zn432 2.032 . S
O433 C437 1.278 . S
C434 O435 1.203 . S
C434 O441 1.267 . S
O435 C434 1.203 . S
O436 C429 1.185 . S
O436 Zn432 2.086 . S
C437 O433 1.278 . S
C437 O438 1.211 . S
O438 C437 1.211 . S
C439 O431 1.284 . S
C439 O440 1.273 . S
O440 C439 1.273 . S
O441 Zn432 1.977 . S
O441 C434 1.267 . S
C442 O443 1.160 . S
C442 O449 1.185 . S
O443 C442 1.160 . S
O444 Zn445 1.899 . S
O444 C452 1.284 . S
Zn445 O444 1.899 . S
Zn445 O446 2.032 . S
Zn445 O449 2.086 . S
Zn445 O454 1.977 . S
O446 Zn445 2.032 . S
O446 C450 1.278 . S
C447 O448 1.203 . S
C447 O454 1.267 . S
O448 C447 1.203 . S
O449 C442 1.185 . S
O449 Zn445 2.086 . S
C450 O446 1.278 . S
C450 O451 1.211 . S
O451 C450 1.211 . S
C452 O444 1.284 . S
C452 O453 1.273 . S
O453 C452 1.273 . S
O454 Zn445 1.977 . S
O454 C447 1.267 . S
C455 O456 1.160 . S
C455 O462 1.185 . S
O456 C455 1.160 . S
O457 Zn458 1.899 . S
O457 C465 1.284 . S
Zn458 O457 1.899 . S
Zn458 O459 2.032 . S
Zn458 O462 2.086 . S
Zn458 O467 1.977 . S
O459 Zn458 2.032 . S
O459 C463 1.278 . S
C460 O461 1.203 . S
C460 O467 1.267 . S
O461 C460 1.203 . S
O462 C455 1.185 . S
O462 Zn458 2.086 . S
C463 O459 1.278 . S
C463 O464 1.211 . S
O464 C463 1.211 . S
C465 O457 1.284 . S
C465 O466 1.273 . S
O466 C465 1.273 . S
O467 Zn458 1.977 . S
O467 C460 1.267 . S
C468 C469 1.391 . S
C468 C470 1.394 . S
C468 H484 0.931 . S
C469 C468 1.391 . S
C469 C473 1.376 . S
C470 C468 1.394 . S
C470 C471 1.369 . S
C470 C474 1.531 . S
C471 C470 1.369 . S
C471 C472 1.410 . S
C471 C479 1.503 . S
C472 C471 1.410 . S
C472 C473 1.392 . S
C472 C475 1.511 . S
C473 C469 1.376 . S
C473 C472 1.392 . S
C473 H485 0.929 . S
C474 C470 1.531 . S
C474 H486 0.960 . S
C474 H487 0.962 . S
C474 H488 0.960 . S
C475 C472 1.511 . S
C475 H489 0.961 . S
C475 H490 0.961 . S
C475 H491 0.961 . S
C476 C477 1.370 . S
C476 C478 1.363 . S
C476 H492 0.931 . S
C477 C476 1.370 . S
C477 C481 1.408 . S
C478 C476 1.363 . S
C478 C479 1.370 . S
C478 C482 1.524 . S
C479 C471 1.503 . S
C479 C478 1.370 . S
C479 C480 1.403 . S
C480 C479 1.403 . S
C480 C481 1.404 . S
C480 C483 1.539 . S
C481 C477 1.408 . S
C481 C480 1.404 . S
C481 H493 0.930 . S
C482 C478 1.524 . S
C482 H494 0.956 . S
C482 H495 0.961 . S
C482 H496 0.961 . S
C483 C480 1.539 . S
C483 H497 0.958 . S
C483 H498 0.961 . S
C483 H499 0.960 . S
H484 C468 0.931 . S
H485 C473 0.929 . S
H486 C474 0.960 . S
H487 C474 0.962 . S
H488 C474 0.960 . S
H489 C475 0.961 . S
H490 C475 0.961 . S
H491 C475 0.961 . S
H492 C476 0.931 . S
H493 C481 0.930 . S
H494 C482 0.956 . S
H495 C482 0.961 . S
H496 C482 0.961 . S
H497 C483 0.958 . S
H498 C483 0.961 . S
H499 C483 0.960 . S
C500 C501 1.391 . S
C500 C502 1.394 . S
C500 H516 0.931 . S
C501 C500 1.391 . S
C501 C505 1.376 . S
C502 C500 1.394 . S
C502 C503 1.369 . S
C502 C506 1.531 1_545 S
C503 C502 1.369 . S
C503 C504 1.410 . S
C503 C511 1.503 1_545 S
C504 C503 1.410 . S
C504 C505 1.392 . S
C504 C507 1.511 . S
C505 C501 1.376 . S
C505 C504 1.392 . S
C505 H517 0.929 . S
C506 C502 1.531 1_565 S
C506 H518 0.960 . S
C506 H519 0.962 . S
C506 H520 0.971 . S
C507 C504 1.511 . S
C507 H521 0.961 . S
C507 H522 0.961 . S
C507 H523 0.961 . S
C508 C509 1.370 . S
C508 C510 1.363 . S
C508 H524 0.931 . S
C509 C508 1.370 . S
C509 C513 1.408 . S
C510 C508 1.363 . S
C510 C511 1.370 . S
C510 C514 1.524 1_565 S
C511 C503 1.503 1_565 S
C511 C510 1.370 . S
C511 C512 1.403 . S
C512 C511 1.403 . S
C512 C513 1.404 . S
C512 C515 1.539 . S
C513 C509 1.408 . S
C513 C512 1.404 . S
C513 H525 0.930 . S
C514 C510 1.524 1_545 S
C514 H526 0.956 . S
C514 H527 0.961 . S
C514 H528 0.961 1_545 S
C515 C512 1.539 . S
C515 H529 0.958 . S
C515 H530 0.961 . S
C515 H531 0.960 . S
H516 C500 0.931 . S
H517 C505 0.929 . S
H518 C506 0.960 . S
H519 C506 0.962 . S
H520 C506 0.971 . S
H521 C507 0.961 . S
H522 C507 0.961 . S
H523 C507 0.961 . S
H524 C508 0.931 . S
H525 C513 0.930 . S
H526 C514 0.956 . S
H527 C514 0.961 . S
H528 C514 0.961 1_565 S
H529 C515 0.958 . S
H530 C515 0.961 . S
H531 C515 0.960 . S
C532 C533 1.391 . S
C532 C534 1.394 . S
C532 H548 0.931 . S
C533 C532 1.391 . S
C533 C537 1.376 . S
C534 C532 1.394 . S
C534 C535 1.369 . S
C534 C538 1.531 . S
C535 C534 1.369 . S
C535 C536 1.410 . S
C535 C543 1.503 1_655 S
C536 C535 1.410 . S
C536 C537 1.392 . S
C536 C539 1.511 . S
C537 C533 1.376 . S
C537 C536 1.392 . S
C537 H549 0.929 . S
C538 C534 1.531 . S
C538 H550 0.960 1_655 S
C538 H551 0.962 . S
C538 H552 0.960 . S
C539 C536 1.511 . S
C539 H553 0.961 . S
C539 H554 0.961 . S
C539 H555 0.961 . S
C540 C541 1.370 . S
C540 C542 1.363 . S
C540 H556 0.931 . S
C541 C540 1.370 . S
C541 C545 1.408 . S
C542 C540 1.363 . S
C542 C543 1.370 . S
C542 C546 1.524 1_455 S
C543 C535 1.503 1_455 S
C543 C542 1.370 . S
C543 C544 1.403 . S
C544 C543 1.403 . S
C544 C545 1.404 . S
C544 C547 1.539 . S
C545 C541 1.408 . S
C545 C544 1.404 . S
C545 H557 0.930 . S
C546 C542 1.524 1_655 S
C546 H558 0.956 . S
C546 H559 0.961 . S
C546 H560 0.961 . S
C547 C544 1.539 . S
C547 H561 0.958 . S
C547 H562 0.961 . S
C547 H563 0.960 . S
H548 C532 0.931 . S
H549 C537 0.929 . S
H550 C538 0.960 1_455 S
H551 C538 0.962 . S
H552 C538 0.960 . S
H553 C539 0.961 . S
H554 C539 0.961 . S
H555 C539 0.961 . S
H556 C540 0.931 . S
H557 C545 0.930 . S
H558 C546 0.956 . S
H559 C546 0.961 . S
H560 C546 0.961 . S
H561 C547 0.958 . S
H562 C547 0.961 . S
H563 C547 0.960 . S
C564 C565 1.391 . S
C564 C566 1.394 . S
C564 H580 0.931 . S
C565 C564 1.391 . S
C565 C569 1.376 . S
C566 C564 1.394 . S
C566 C567 1.369 . S
C566 C570 1.531 . S
C567 C566 1.369 . S
C567 C568 1.410 . S
C567 C575 1.503 . S
C568 C567 1.410 . S
C568 C569 1.392 . S
C568 C571 1.511 . S
C569 C565 1.376 . S
C569 C568 1.392 . S
C569 H581 0.929 . S
C570 C566 1.531 . S
C570 H582 0.960 . S
C570 H583 0.962 . S
C570 H584 0.960 . S
C571 C568 1.511 . S
C571 H585 0.961 . S
C571 H586 0.961 . S
C571 H587 0.961 . S
C572 C573 1.370 . S
C572 C574 1.363 . S
C572 H588 0.931 . S
C573 C572 1.370 . S
C573 C577 1.408 . S
C574 C572 1.363 . S
C574 C575 1.370 . S
C574 C578 1.524 . S
C575 C567 1.503 . S
C575 C574 1.370 . S
C575 C576 1.403 . S
C576 C575 1.403 . S
C576 C577 1.404 . S
C576 C579 1.539 . S
C577 C573 1.408 . S
C577 C576 1.404 . S
C577 H589 0.930 . S
C578 C574 1.524 . S
C578 H590 0.956 . S
C578 H591 0.961 . S
C578 H592 0.961 . S
C579 C576 1.539 . S
C579 H593 0.958 . S
C579 H594 0.961 . S
C579 H595 0.960 . S
H580 C564 0.931 . S
H581 C569 0.929 . S
H582 C570 0.960 . S
H583 C570 0.962 . S
H584 C570 0.960 . S
H585 C571 0.961 . S
H586 C571 0.961 . S
H587 C571 0.961 . S
H588 C572 0.931 . S
H589 C577 0.930 . S
H590 C578 0.956 . S
H591 C578 0.961 . S
H592 C578 0.961 . S
H593 C579 0.958 . S
H594 C579 0.961 . S
H595 C579 0.960 . S
C596 C597 1.391 . S
C596 C598 1.394 . S
C596 H612 0.931 . S
C597 C596 1.391 . S
C597 C601 1.376 . S
C598 C596 1.394 . S
C598 C599 1.369 . S
C598 C602 1.531 . S
C599 C598 1.369 . S
C599 C600 1.410 . S
C599 C607 1.503 1_545 S
C600 C599 1.410 . S
C600 C601 1.392 . S
C600 C603 1.511 . S
C601 C597 1.376 . S
C601 C600 1.392 . S
C601 H613 0.929 . S
C602 C598 1.531 . S
C602 H614 0.957 1_545 S
C602 H615 0.922 1_545 S
C602 H616 0.960 . S
C603 C600 1.511 . S
C603 H617 0.961 . S
C603 H618 0.961 . S
C603 H619 0.961 . S
C604 C605 1.370 . S
C604 C606 1.363 . S
C604 H620 0.931 . S
C605 C604 1.370 . S
C605 C609 1.408 . S
C606 C604 1.363 . S
C606 C607 1.370 . S
C606 C610 1.524 . S
C607 C599 1.503 1_565 S
C607 C606 1.370 . S
C607 C608 1.403 . S
C608 C607 1.403 . S
C608 C609 1.404 . S
C608 C611 1.539 1_565 S
C609 C605 1.408 . S
C609 C608 1.404 . S
C609 H621 0.930 . S
C610 C606 1.524 . S
C610 H622 0.956 . S
C610 H623 0.961 . S
C610 H624 0.961 . S
C611 C608 1.539 1_545 S
C611 H625 0.958 . S
C611 H626 0.961 . S
C611 H627 0.960 . S
H612 C596 0.931 . S
H613 C601 0.929 . S
H614 C602 0.957 1_565 S
H615 C602 0.922 1_565 S
H616 C602 0.960 . S
H617 C603 0.961 . S
H618 C603 0.961 . S
H619 C603 0.961 . S
H620 C604 0.931 . S
H621 C609 0.930 . S
H622 C610 0.956 . S
H623 C610 0.961 . S
H624 C610 0.961 . S
H625 C611 0.958 . S
H626 C611 0.961 . S
H627 C611 0.960 . S
C628 C629 1.391 . S
C628 C630 1.394 . S
C628 H644 0.931 . S
C629 C628 1.391 . S
C629 C633 1.376 . S
C630 C628 1.394 . S
C630 C631 1.369 . S
C630 C634 1.531 . S
C631 C630 1.369 . S
C631 C632 1.410 . S
C631 C639 1.503 1_455 S
C632 C631 1.410 . S
C632 C633 1.392 . S
C632 C635 1.511 . S
C633 C629 1.376 . S
C633 C632 1.392 . S
C633 H645 0.929 . S
C634 C630 1.531 . S
C634 H646 0.960 1_455 S
C634 H647 0.962 1_455 S
C634 H648 0.960 . S
C635 C632 1.511 . S
C635 H649 0.961 . S
C635 H650 0.961 . S
C635 H651 0.961 . S
C636 C637 1.370 . S
C636 C638 1.363 . S
C636 H652 0.931 . S
C637 C636 1.370 . S
C637 C641 1.408 . S
C638 C636 1.363 . S
C638 C639 1.370 . S
C638 C642 1.524 . S
C639 C631 1.503 1_655 S
C639 C638 1.370 . S
C639 C640 1.403 . S
C640 C639 1.403 . S
C640 C641 1.404 . S
C640 C643 1.539 1_655 S
C641 C637 1.408 . S
C641 C640 1.404 . S
C641 H653 0.930 . S
C642 C638 1.524 . S
C642 H654 0.956 . S
C642 H655 0.961 . S
C642 H656 0.961 . S
C643 C640 1.539 1_455 S
C643 H657 0.958 . S
C643 H658 0.961 . S
C643 H659 0.960 . S
H644 C628 0.931 . S
H645 C633 0.929 . S
H646 C634 0.960 1_655 S
H647 C634 0.962 1_655 S
H648 C634 0.960 . S
H649 C635 0.961 . S
H650 C635 0.961 . S
H651 C635 0.961 . S
H652 C636 0.931 . S
H653 C641 0.930 . S
H654 C642 0.956 . S
H655 C642 0.961 . S
H656 C642 0.961 . S
H657 C643 0.958 . S
H658 C643 0.961 . S
H659 C643 0.960 . S
C660 C661 1.391 . S
C660 C662 1.394 . S
C660 H676 0.931 . S
C661 C660 1.391 . S
C661 C665 1.376 . S
C662 C660 1.394 . S
C662 C663 1.369 . S
C662 C666 1.531 . S
C663 C662 1.369 . S
C663 C664 1.410 . S
C663 C671 1.503 . S
C664 C663 1.410 . S
C664 C665 1.392 . S
C664 C667 1.511 . S
C665 C661 1.376 . S
C665 C664 1.392 . S
C665 H677 0.929 . S
C666 C662 1.531 . S
C666 H678 0.960 . S
C666 H679 0.962 . S
C666 H680 0.960 . S
C667 C664 1.511 . S
C667 H681 0.961 . S
C667 H682 0.961 . S
C667 H683 0.961 . S
C668 C669 1.370 . S
C668 C670 1.363 . S
C668 H684 0.931 . S
C669 C668 1.370 . S
C669 C673 1.408 . S
C670 C668 1.363 . S
C670 C671 1.370 . S
C670 C674 1.524 . S
C671 C663 1.503 . S
C671 C670 1.370 . S
C671 C672 1.403 . S
C672 C671 1.403 . S
C672 C673 1.404 . S
C672 C675 1.539 . S
C673 C669 1.408 . S
C673 C672 1.404 . S
C673 H685 0.930 . S
C674 C670 1.524 . S
C674 H686 0.956 . S
C674 H687 0.961 . S
C674 H688 0.961 . S
C675 C672 1.539 . S
C675 H689 0.958 . S
C675 H690 0.961 . S
C675 H691 0.960 . S
H676 C660 0.931 . S
H677 C665 0.929 . S
H678 C666 0.960 . S
H679 C666 0.962 . S
H680 C666 0.960 . S
H681 C667 0.961 . S
H682 C667 0.961 . S
H683 C667 0.961 . S
H684 C668 0.931 . S
H685 C673 0.930 . S
H686 C674 0.956 . S
H687 C674 0.961 . S
H688 C674 0.961 . S
H689 C675 0.958 . S
H690 C675 0.961 . S
H691 C675 0.960 . S
C692 C693 1.391 . S
C692 C694 1.394 . S
C692 H708 0.931 . S
C693 C692 1.391 . S
C693 C697 1.376 . S
C694 C692 1.394 . S
C694 C695 1.369 . S
C694 C698 1.531 . S
C695 C694 1.369 . S
C695 C696 1.410 . S
C695 C703 1.503 . S
C696 C695 1.410 . S
C696 C697 1.392 . S
C696 C699 1.511 . S
C697 C693 1.376 . S
C697 C696 1.392 . S
C697 H709 0.929 . S
C698 C694 1.531 . S
C698 H710 0.960 . S
C698 H711 0.962 . S
C698 H712 0.960 . S
C699 C696 1.511 . S
C699 H713 0.961 . S
C699 H714 0.961 . S
C699 H715 0.961 . S
C700 C701 1.370 . S
C700 C702 1.363 . S
C700 H716 0.931 . S
C701 C700 1.370 . S
C701 C705 1.408 . S
C702 C700 1.363 . S
C702 C703 1.370 . S
C702 C706 1.524 . S
C703 C695 1.503 . S
C703 C702 1.370 . S
C703 C704 1.403 . S
C704 C703 1.403 . S
C704 C705 1.404 . S
C704 C707 1.539 . S
C705 C701 1.408 . S
C705 C704 1.404 . S
C705 H717 0.930 . S
C706 C702 1.524 . S
C706 H718 0.956 . S
C706 H719 0.961 . S
C706 H720 0.961 . S
C707 C704 1.539 . S
C707 H721 0.958 . S
C707 H722 0.961 . S
C707 H723 0.960 . S
H708 C692 0.931 . S
H709 C697 0.929 . S
H710 C698 0.960 . S
H711 C698 0.962 . S
H712 C698 0.960 . S
H713 C699 0.961 . S
H714 C699 0.961 . S
H715 C699 0.961 . S
H716 C700 0.931 . S
H717 C705 0.930 . S
H718 C706 0.956 . S
H719 C706 0.961 . S
H720 C706 0.961 . S
H721 C707 0.958 . S
H722 C707 0.961 . S
H723 C707 0.960 . S
C724 C725 1.391 . S
C724 C726 1.394 . S
C724 H740 0.931 . S
C725 C724 1.391 . S
C725 C729 1.376 . S
C726 C724 1.394 . S
C726 C727 1.369 . S
C726 C730 1.531 . S
C727 C726 1.369 . S
C727 C728 1.410 . S
C727 C735 1.503 . S
C728 C727 1.410 . S
C728 C729 1.392 . S
C728 C731 1.511 . S
C729 C725 1.376 . S
C729 C728 1.392 . S
C729 H741 0.929 . S
C730 C726 1.531 . S
C730 H742 0.960 . S
C730 H743 0.962 . S
C730 H744 0.960 . S
C731 C728 1.511 . S
C731 H745 0.961 . S
C731 H746 0.961 . S
C731 H747 0.961 . S
C732 C733 1.370 . S
C732 C734 1.363 . S
C732 H748 0.931 . S
C733 C732 1.370 . S
C733 C737 1.408 . S
C734 C732 1.363 . S
C734 C735 1.370 . S
C734 C738 1.524 . S
C735 C727 1.503 . S
C735 C734 1.370 . S
C735 C736 1.403 . S
C736 C735 1.403 . S
C736 C737 1.404 . S
C736 C739 1.539 . S
C737 C733 1.408 . S
C737 C736 1.404 . S
C737 H749 0.930 . S
C738 C734 1.524 . S
C738 H750 0.956 . S
C738 H751 0.961 . S
C738 H752 0.961 . S
C739 C736 1.539 . S
C739 H753 0.958 . S
C739 H754 0.961 . S
C739 H755 0.960 . S
H740 C724 0.931 . S
H741 C729 0.929 . S
H742 C730 0.960 . S
H743 C730 0.962 . S
H744 C730 0.960 . S
H745 C731 0.961 . S
H746 C731 0.961 . S
H747 C731 0.961 . S
H748 C732 0.931 . S
H749 C737 0.930 . S
H750 C738 0.956 . S
H751 C738 0.961 . S
H752 C738 0.961 . S
H753 C739 0.958 . S
H754 C739 0.961 . S
H755 C739 0.960 . S
C756 C757 1.391 . S
C756 C758 1.394 . S
C756 H772 0.931 . S
C757 C756 1.391 . S
C757 C761 1.376 . S
C758 C756 1.394 . S
C758 C759 1.369 . S
C758 C762 1.531 . S
C759 C758 1.369 . S
C759 C760 1.410 . S
C759 C767 1.503 . S
C760 C759 1.410 . S
C760 C761 1.392 . S
C760 C763 1.511 . S
C761 C757 1.376 . S
C761 C760 1.392 . S
C761 H773 0.929 . S
C762 C758 1.531 . S
C762 H774 0.960 . S
C762 H775 0.962 1_554 S
C762 H776 0.960 1_554 S
C763 C760 1.511 . S
C763 H777 0.961 . S
C763 H778 0.961 . S
C763 H779 0.961 . S
C764 C765 1.370 . S
C764 C766 1.363 . S
C764 H780 0.931 . S
C765 C764 1.370 . S
C765 C769 1.408 . S
C766 C764 1.363 . S
C766 C767 1.370 . S
C766 C770 1.524 . S
C767 C759 1.503 . S
C767 C766 1.370 . S
C767 C768 1.403 . S
C768 C767 1.403 . S
C768 C769 1.404 . S
C768 C771 1.539 . S
C769 C765 1.408 . S
C769 C768 1.404 . S
C769 H781 0.930 . S
C770 C766 1.524 . S
C770 H782 0.956 . S
C770 H783 0.961 . S
C770 H784 0.961 . S
C771 C768 1.539 . S
C771 H785 0.958 . S
C771 H786 0.961 . S
C771 H787 0.960 . S
H772 C756 0.931 . S
H773 C761 0.929 . S
H774 C762 0.960 . S
H775 C762 0.962 1_556 S
H776 C762 0.960 1_556 S
H777 C763 0.961 . S
H778 C763 0.961 . S
H779 C763 0.961 . S
H780 C764 0.931 . S
H781 C769 0.930 . S
H782 C770 0.956 . S
H783 C770 0.961 . S
H784 C770 0.961 . S
H785 C771 0.958 . S
H786 C771 0.961 . S
H787 C771 0.960 . S
C788 C789 1.391 . S
C788 C790 1.394 . S
C788 H804 0.931 . S
C789 C788 1.391 . S
C789 C793 1.376 . S
C790 C788 1.394 . S
C790 C791 1.369 . S
C790 C794 1.531 . S
C791 C790 1.369 . S
C791 C792 1.410 . S
C791 C799 1.503 . S
C792 C791 1.410 . S
C792 C793 1.392 . S
C792 C795 1.511 . S
C793 C789 1.376 . S
C793 C792 1.392 . S
C793 H805 0.917 1_554 S
C794 C790 1.531 . S
C794 H806 0.960 . S
C794 H807 0.962 . S
C794 H808 0.960 . S
C795 C792 1.511 . S
C795 H809 0.961 1_554 S
C795 H810 0.961 . S
C795 H811 0.961 . S
C796 C797 1.370 . S
C796 C798 1.363 . S
C796 H812 0.931 . S
C797 C796 1.370 . S
C797 C801 1.408 . S
C798 C796 1.363 . S
C798 C799 1.370 . S
C798 C802 1.524 . S
C799 C791 1.503 . S
C799 C798 1.370 . S
C799 C800 1.403 . S
C800 C799 1.403 . S
C800 C801 1.404 . S
C800 C803 1.539 . S
C801 C797 1.408 . S
C801 C800 1.404 . S
C801 H813 0.930 . S
C802 C798 1.524 . S
C802 H814 0.956 . S
C802 H815 0.961 . S
C802 H816 0.961 . S
C803 C800 1.539 . S
C803 H817 0.958 . S
C803 H818 0.961 . S
C803 H819 0.960 . S
H804 C788 0.931 . S
H805 C793 0.917 1_556 S
H806 C794 0.960 . S
H807 C794 0.962 . S
H808 C794 0.960 . S
H809 C795 0.961 1_556 S
H810 C795 0.961 . S
H811 C795 0.961 . S
H812 C796 0.931 . S
H813 C801 0.930 . S
H814 C802 0.956 . S
H815 C802 0.961 . S
H816 C802 0.961 . S
H817 C803 0.958 . S
H818 C803 0.961 . S
H819 C803 0.960 . S
C820 C821 1.391 . S
C820 C822 1.394 . S
C820 H836 0.931 . S
C821 C820 1.391 . S
C821 C825 1.376 . S
C822 C820 1.394 . S
C822 C823 1.369 . S
C822 C826 1.531 . S
C823 C822 1.369 . S
C823 C824 1.410 . S
C823 C831 1.503 . S
C824 C823 1.410 . S
C824 C825 1.392 . S
C824 C827 1.511 . S
C825 C821 1.376 . S
C825 C824 1.392 . S
C825 H837 0.929 . S
C826 C822 1.531 . S
C826 H838 0.960 . S
C826 H839 0.962 . S
C826 H840 0.960 . S
C827 C824 1.511 . S
C827 H841 0.961 1_554 S
C827 H842 0.961 1_554 S
C827 H843 0.961 . S
C828 C829 1.370 . S
C828 C830 1.363 . S
C828 H844 0.931 . S
C829 C828 1.370 . S
C829 C833 1.408 . S
C830 C828 1.363 . S
C830 C831 1.370 . S
C830 C834 1.524 . S
C831 C823 1.503 . S
C831 C830 1.370 . S
C831 C832 1.403 . S
C832 C831 1.403 . S
C832 C833 1.404 . S
C832 C835 1.539 . S
C833 C829 1.408 . S
C833 C832 1.404 . S
C833 H845 0.930 . S
C834 C830 1.524 . S
C834 H846 0.956 . S
C834 H847 0.961 . S
C834 H848 0.961 . S
C835 C832 1.539 . S
C835 H849 0.958 . S
C835 H850 0.961 . S
C835 H851 0.960 . S
H836 C820 0.931 . S
H837 C825 0.929 . S
H838 C826 0.960 . S
H839 C826 0.962 . S
H840 C826 0.960 . S
H841 C827 0.961 1_556 S
H842 C827 0.961 1_556 S
H843 C827 0.961 . S
H844 C828 0.931 . S
H845 C833 0.930 . S
H846 C834 0.956 . S
H847 C834 0.961 . S
H848 C834 0.961 . S
H849 C835 0.958 . S
H850 C835 0.961 . S
H851 C835 0.960 . S
C852 C853 1.391 . S
C852 C854 1.394 . S
C852 H868 0.931 . S
C853 C852 1.391 . S
C853 C857 1.376 . S
C854 C852 1.394 . S
C854 C855 1.369 . S
C854 C858 1.531 . S
C855 C854 1.369 . S
C855 C856 1.410 . S
C855 C863 1.503 . S
C856 C855 1.410 . S
C856 C857 1.392 . S
C856 C859 1.511 . S
C857 C853 1.376 . S
C857 C856 1.392 . S
C857 H869 0.929 . S
C858 C854 1.531 . S
C858 H870 0.960 . S
C858 H871 0.962 . S
C858 H872 0.960 . S
C859 C856 1.511 . S
C859 H873 0.961 . S
C859 H874 0.961 . S
C859 H875 0.961 . S
C860 C861 1.370 . S
C860 C862 1.363 . S
C860 H876 0.931 . S
C861 C860 1.370 . S
C861 C865 1.408 . S
C862 C860 1.363 . S
C862 C863 1.370 . S
C862 C866 1.524 . S
C863 C855 1.503 . S
C863 C862 1.370 . S
C863 C864 1.403 . S
C864 C863 1.403 . S
C864 C865 1.404 . S
C864 C867 1.539 1_556 S
C865 C861 1.408 . S
C865 C864 1.404 . S
C865 H877 0.930 1_556 S
C866 C862 1.524 . S
C866 H878 0.956 . S
C866 H879 0.961 . S
C866 H880 0.961 . S
C867 C864 1.539 1_554 S
C867 H881 0.958 . S
C867 H882 0.961 . S
C867 H883 0.960 1_554 S
H868 C852 0.931 . S
H869 C857 0.929 . S
H870 C858 0.960 . S
H871 C858 0.962 . S
H872 C858 0.960 . S
H873 C859 0.961 . S
H874 C859 0.961 . S
H875 C859 0.961 . S
H876 C860 0.931 . S
H877 C865 0.930 1_554 S
H878 C866 0.956 . S
H879 C866 0.961 . S
H880 C866 0.961 . S
H881 C867 0.958 . S
H882 C867 0.961 . S
H883 C867 0.960 1_556 S
C884 C885 1.391 . S
C884 C886 1.394 . S
C884 H900 0.931 . S
C885 C884 1.391 . S
C885 C889 1.376 . S
C886 C884 1.394 . S
C886 C887 1.369 . S
C886 C890 1.531 . S
C887 C886 1.369 . S
C887 C888 1.410 . S
C887 C895 1.503 . S
C888 C887 1.410 . S
C888 C889 1.392 . S
C888 C891 1.511 . S
C889 C885 1.376 . S
C889 C888 1.392 . S
C889 H901 0.929 . S
C890 C886 1.531 . S
C890 H902 0.960 . S
C890 H903 0.962 . S
C890 H904 0.960 . S
C891 C888 1.511 . S
C891 H905 0.961 . S
C891 H906 0.961 . S
C891 H907 0.961 . S
C892 C893 1.370 . S
C892 C894 1.363 . S
C892 H908 0.931 . S
C893 C892 1.370 . S
C893 C897 1.408 1_556 S
C894 C892 1.363 . S
C894 C895 1.370 . S
C894 C898 1.524 . S
C895 C887 1.503 . S
C895 C894 1.370 . S
C895 C896 1.403 . S
C896 C895 1.403 . S
C896 C897 1.404 1_556 S
C896 C899 1.539 1_556 S
C897 C893 1.408 1_554 S
C897 C896 1.404 1_554 S
C897 H909 0.930 . S
C898 C894 1.524 . S
C898 H910 0.956 . S
C898 H911 0.961 . S
C898 H912 0.961 . S
C899 C896 1.539 1_554 S
C899 H913 0.958 . S
C899 H914 0.961 . S
C899 H915 0.960 . S
H900 C884 0.931 . S
H901 C889 0.929 . S
H902 C890 0.960 . S
H903 C890 0.962 . S
H904 C890 0.960 . S
H905 C891 0.961 . S
H906 C891 0.961 . S
H907 C891 0.961 . S
H908 C892 0.931 . S
H909 C897 0.930 . S
H910 C898 0.956 . S
H911 C898 0.961 . S
H912 C898 0.961 . S
H913 C899 0.958 . S
H914 C899 0.961 . S
H915 C899 0.960 . S
C916 C917 1.391 . S
C916 C918 1.394 . S
C916 H932 0.931 1_556 S
C917 C916 1.391 . S
C917 C921 1.376 . S
C918 C916 1.394 . S
C918 C919 1.369 . S
C918 C922 1.531 1_556 S
C919 C918 1.369 . S
C919 C920 1.410 . S
C919 C927 1.503 . S
C920 C919 1.410 . S
C920 C921 1.392 . S
C920 C923 1.511 . S
C921 C917 1.376 . S
C921 C920 1.392 . S
C921 H933 0.929 . S
C922 C918 1.531 1_554 S
C922 H934 0.960 . S
C922 H935 0.962 . S
C922 H936 0.960 . S
C923 C920 1.511 . S
C923 H937 0.961 . S
C923 H938 0.961 . S
C923 H939 0.961 . S
C924 C925 1.370 . S
C924 C926 1.363 . S
C924 H940 0.931 . S
C925 C924 1.370 . S
C925 C929 1.408 . S
C926 C924 1.363 . S
C926 C927 1.370 . S
C926 C930 1.524 . S
C927 C919 1.503 . S
C927 C926 1.370 . S
C927 C928 1.403 . S
C928 C927 1.403 . S
C928 C929 1.404 . S
C928 C931 1.539 . S
C929 C925 1.408 . S
C929 C928 1.404 . S
C929 H941 0.930 . S
C930 C926 1.524 . S
C930 H942 0.956 . S
C930 H943 0.961 . S
C930 H944 0.961 . S
C931 C928 1.539 . S
C931 H945 0.958 . S
C931 H946 0.961 . S
C931 H947 0.960 . S
H932 C916 0.931 1_554 S
H933 C921 0.929 . S
H934 C922 0.960 . S
H935 C922 0.962 . S
H936 C922 0.960 . S
H937 C923 0.961 . S
H938 C923 0.961 . S
H939 C923 0.961 . S
H940 C924 0.931 . S
H941 C929 0.930 . S
H942 C930 0.956 . S
H943 C930 0.961 . S
H944 C930 0.961 . S
H945 C931 0.958 . S
H946 C931 0.961 . S
H947 C931 0.960 . S
C948 C949 1.391 . S
C948 C950 1.394 . S
C948 H964 0.931 . S
C949 C948 1.391 . S
C949 C953 1.376 . S
C950 C948 1.394 . S
C950 C951 1.369 . S
C950 C954 1.531 . S
C951 C950 1.369 . S
C951 C952 1.410 . S
C951 C959 1.503 . S
C952 C951 1.410 . S
C952 C953 1.392 . S
C952 C955 1.511 . S
C953 C949 1.376 . S
C953 C952 1.392 . S
C953 H965 0.929 . S
C954 C950 1.531 . S
C954 H966 0.960 . S
C954 H967 0.962 . S
C954 H968 0.960 . S
C955 C952 1.511 . S
C955 H969 0.961 . S
C955 H970 0.961 . S
C955 H971 0.961 . S
C956 C957 1.370 . S
C956 C958 1.363 . S
C956 H972 0.931 . S
C957 C956 1.370 . S
C957 C961 1.408 . S
C958 C956 1.363 . S
C958 C959 1.370 . S
C958 C962 1.524 . S
C959 C951 1.503 . S
C959 C958 1.370 . S
C959 C960 1.403 . S
C960 C959 1.403 . S
C960 C961 1.404 . S
C960 C963 1.539 . S
C961 C957 1.408 . S
C961 C960 1.404 . S
C961 H973 0.930 . S
C962 C958 1.524 . S
C962 H974 0.956 . S
C962 H975 0.961 . S
C962 H976 0.961 . S
C963 C960 1.539 . S
C963 H977 0.958 . S
C963 H978 0.961 . S
C963 H979 0.960 . S
H964 C948 0.931 . S
H965 C953 0.929 . S
H966 C954 0.960 . S
H967 C954 0.962 . S
H968 C954 0.960 . S
H969 C955 0.961 . S
H970 C955 0.961 . S
H971 C955 0.961 . S
H972 C956 0.931 . S
H973 C961 0.930 . S
H974 C962 0.956 . S
H975 C962 0.961 . S
H976 C962 0.961 . S
H977 C963 0.958 . S
H978 C963 0.961 . S
H979 C963 0.960 . S
C980 C981 1.391 . S
C980 C982 1.394 . S
C980 H996 0.931 . S
C981 C980 1.391 . S
C981 C985 1.376 . S
C982 C980 1.394 . S
C982 C983 1.369 . S
C982 C986 1.531 . S
C983 C982 1.369 . S
C983 C984 1.410 . S
C983 C991 1.503 . S
C984 C983 1.410 . S
C984 C985 1.392 . S
C984 C987 1.511 . S
C985 C981 1.376 . S
C985 C984 1.392 . S
C985 H997 0.929 . S
C986 C982 1.531 . S
C986 H998 0.960 . S
C986 H999 0.962 . S
C986 H1000 0.960 . S
C987 C984 1.511 . S
C987 H1001 0.961 . S
C987 H1002 0.961 . S
C987 H1003 0.961 . S
C988 C989 1.370 . S
C988 C990 1.363 . S
C988 H1004 0.931 . S
C989 C988 1.370 . S
C989 C993 1.408 . S
C990 C988 1.363 . S
C990 C991 1.370 . S
C990 C994 1.524 . S
C991 C983 1.503 . S
C991 C990 1.370 . S
C991 C992 1.403 . S
C992 C991 1.403 . S
C992 C993 1.404 . S
C992 C995 1.539 . S
C993 C989 1.408 . S
C993 C992 1.404 . S
C993 H1005 0.930 . S
C994 C990 1.524 . S
C994 H1006 0.956 . S
C994 H1007 0.961 . S
C994 H1008 0.961 . S
C995 C992 1.539 . S
C995 H1009 0.958 . S
C995 H1010 0.961 . S
C995 H1011 0.960 . S
H996 C980 0.931 . S
H997 C985 0.929 . S
H998 C986 0.960 . S
H999 C986 0.962 . S
H1000 C986 0.960 . S
H1001 C987 0.961 . S
H1002 C987 0.961 . S
H1003 C987 0.961 . S
H1004 C988 0.931 . S
H1005 C993 0.930 . S
H1006 C994 0.956 . S
H1007 C994 0.961 . S
H1008 C994 0.961 . S
H1009 C995 0.958 . S
H1010 C995 0.961 . S
H1011 C995 0.960 . S
C1012 C1013 1.391 . S
C1012 C1014 1.394 . S
C1012 H1028 0.931 . S
C1013 C1012 1.391 . S
C1013 C1017 1.376 . S
C1014 C1012 1.394 . S
C1014 C1015 1.369 . S
C1014 C1018 1.531 . S
C1015 C1014 1.369 . S
C1015 C1016 1.410 . S
C1015 C1023 1.503 . S
C1016 C1015 1.410 . S
C1016 C1017 1.392 . S
C1016 C1019 1.511 . S
C1017 C1013 1.376 . S
C1017 C1016 1.392 . S
C1017 H1029 0.929 . S
C1018 C1014 1.531 . S
C1018 H1030 0.960 . S
C1018 H1031 0.962 . S
C1018 H1032 0.960 . S
C1019 C1016 1.511 . S
C1019 H1033 0.961 . S
C1019 H1034 0.961 . S
C1019 H1035 0.961 . S
C1020 C1021 1.370 . S
C1020 C1022 1.363 . S
C1020 H1036 0.931 . S
C1021 C1020 1.370 . S
C1021 C1025 1.408 . S
C1022 C1020 1.363 . S
C1022 C1023 1.370 . S
C1022 C1026 1.524 . S
C1023 C1015 1.503 . S
C1023 C1022 1.370 . S
C1023 C1024 1.403 . S
C1024 C1023 1.403 . S
C1024 C1025 1.404 . S
C1024 C1027 1.539 . S
C1025 C1021 1.408 . S
C1025 C1024 1.404 . S
C1025 H1037 0.930 . S
C1026 C1022 1.524 . S
C1026 H1038 0.956 . S
C1026 H1039 0.961 . S
C1026 H1040 0.961 . S
C1027 C1024 1.539 . S
C1027 H1041 0.958 . S
C1027 H1042 0.961 . S
C1027 H1043 0.960 . S
H1028 C1012 0.931 . S
H1029 C1017 0.929 . S
H1030 C1018 0.960 . S
H1031 C1018 0.962 . S
H1032 C1018 0.960 . S
H1033 C1019 0.961 . S
H1034 C1019 0.961 . S
H1035 C1019 0.961 . S
H1036 C1020 0.931 . S
H1037 C1025 0.930 . S
H1038 C1026 0.956 . S
H1039 C1026 0.961 . S
H1040 C1026 0.961 . S
H1041 C1027 0.958 . S
H1042 C1027 0.961 . S
H1043 C1027 0.960 . S
C1044 C1045 1.391 . S
C1044 C1046 1.394 . S
C1044 H1060 0.931 . S
C1045 C1044 1.391 . S
C1045 C1049 1.376 . S
C1046 C1044 1.394 . S
C1046 C1047 1.369 . S
C1046 C1050 1.531 . S
C1047 C1046 1.369 . S
C1047 C1048 1.410 . S
C1047 C1055 1.503 . S
C1048 C1047 1.410 . S
C1048 C1049 1.392 . S
C1048 C1051 1.511 . S
C1049 C1045 1.376 . S
C1049 C1048 1.392 . S
C1049 H1061 0.929 . S
C1050 C1046 1.531 . S
C1050 H1062 0.960 . S
C1050 H1063 0.962 . S
C1050 H1064 0.960 . S
C1051 C1048 1.511 . S
C1051 H1065 0.961 . S
C1051 H1066 0.961 . S
C1051 H1067 0.961 . S
C1052 C1053 1.370 1_556 S
C1052 C1054 1.363 . S
C1052 H1068 0.931 . S
C1053 C1052 1.370 1_554 S
C1053 C1057 1.408 1_554 S
C1054 C1052 1.363 . S
C1054 C1055 1.370 . S
C1054 C1058 1.524 . S
C1055 C1047 1.503 . S
C1055 C1054 1.370 . S
C1055 C1056 1.403 . S
C1056 C1055 1.403 . S
C1056 C1057 1.404 . S
C1056 C1059 1.539 . S
C1057 C1053 1.408 1_556 S
C1057 C1056 1.404 . S
C1057 H1069 0.930 1_556 S
C1058 C1054 1.524 . S
C1058 H1070 0.956 . S
C1058 H1071 0.961 . S
C1058 H1072 0.961 . S
C1059 C1056 1.539 . S
C1059 H1073 0.958 . S
C1059 H1074 0.961 . S
C1059 H1075 0.960 . S
H1060 C1044 0.931 . S
H1061 C1049 0.929 . S
H1062 C1050 0.960 . S
H1063 C1050 0.962 . S
H1064 C1050 0.960 . S
H1065 C1051 0.961 . S
H1066 C1051 0.961 . S
H1067 C1051 0.961 . S
H1068 C1052 0.931 . S
H1069 C1057 0.930 1_554 S
H1070 C1058 0.956 . S
H1071 C1058 0.961 . S
H1072 C1058 0.961 . S
H1073 C1059 0.958 . S
H1074 C1059 0.961 . S
H1075 C1059 0.960 . S
C1076 C1077 1.391 1_556 S
C1076 C1078 1.394 . S
C1076 H1092 0.931 . S
C1077 C1076 1.391 1_554 S
C1077 C1081 1.376 . S
C1078 C1076 1.394 . S
C1078 C1079 1.369 . S
C1078 C1082 1.531 . S
C1079 C1078 1.369 . S
C1079 C1080 1.410 . S
C1079 C1087 1.503 . S
C1080 C1079 1.410 . S
C1080 C1081 1.392 1_556 S
C1080 C1083 1.511 . S
C1081 C1077 1.376 . S
C1081 C1080 1.392 1_554 S
C1081 H1093 0.929 . S
C1082 C1078 1.531 . S
C1082 H1094 0.960 . S
C1082 H1095 0.962 . S
C1082 H1096 0.960 . S
C1083 C1080 1.511 . S
C1083 H1097 0.961 1_556 S
C1083 H1098 0.961 . S
C1083 H1099 0.961 . S
C1084 C1085 1.370 . S
C1084 C1086 1.363 . S
C1084 H1100 0.931 . S
C1085 C1084 1.370 . S
C1085 C1089 1.408 . S
C1086 C1084 1.363 . S
C1086 C1087 1.370 . S
C1086 C1090 1.524 . S
C1087 C1079 1.503 . S
C1087 C1086 1.370 . S
C1087 C1088 1.403 . S
C1088 C1087 1.403 . S
C1088 C1089 1.404 . S
C1088 C1091 1.539 . S
C1089 C1085 1.408 . S
C1089 C1088 1.404 . S
C1089 H1101 0.930 . S
C1090 C1086 1.524 . S
C1090 H1102 0.956 . S
C1090 H1103 0.961 . S
C1090 H1104 0.961 . S
C1091 C1088 1.539 . S
C1091 H1105 0.958 . S
C1091 H1106 0.961 . S
C1091 H1107 0.960 . S
H1092 C1076 0.931 . S
H1093 C1081 0.929 . S
H1094 C1082 0.960 . S
H1095 C1082 0.962 . S
H1096 C1082 0.960 . S
H1097 C1083 0.961 1_554 S
H1098 C1083 0.961 . S
H1099 C1083 0.961 . S
H1100 C1084 0.931 . S
H1101 C1089 0.930 . S
H1102 C1090 0.956 . S
H1103 C1090 0.961 . S
H1104 C1090 0.961 . S
H1105 C1091 0.958 . S
H1106 C1091 0.961 . S
H1107 C1091 0.960 . S
C1108 C1109 1.391 . S
C1108 C1110 1.394 1_554 S
C1108 H1124 0.931 . S
C1109 C1108 1.391 . S
C1109 C1113 1.376 1_554 S
C1110 C1108 1.394 1_556 S
C1110 C1111 1.369 . S
C1110 C1114 1.531 . S
C1111 C1110 1.369 . S
C1111 C1112 1.410 . S
C1111 C1119 1.503 . S
C1112 C1111 1.410 . S
C1112 C1113 1.392 . S
C1112 C1115 1.511 . S
C1113 C1109 1.376 1_556 S
C1113 C1112 1.392 . S
C1113 H1125 0.929 . S
C1114 C1110 1.531 . S
C1114 H1126 0.960 . S
C1114 H1127 0.962 . S
C1114 H1128 0.960 . S
C1115 C1112 1.511 . S
C1115 H1129 0.961 . S
C1115 H1130 0.961 . S
C1115 H1131 0.961 . S
C1116 C1117 1.370 . S
C1116 C1118 1.363 . S
C1116 H1132 0.931 . S
C1117 C1116 1.370 . S
C1117 C1121 1.408 . S
C1118 C1116 1.363 . S
C1118 C1119 1.370 . S
C1118 C1122 1.524 . S
C1119 C1111 1.503 . S
C1119 C1118 1.370 . S
C1119 C1120 1.403 . S
C1120 C1119 1.403 . S
C1120 C1121 1.404 . S
C1120 C1123 1.539 . S
C1121 C1117 1.408 . S
C1121 C1120 1.404 . S
C1121 H1133 0.930 . S
C1122 C1118 1.524 . S
C1122 H1134 0.956 . S
C1122 H1135 0.961 . S
C1122 H1136 0.961 . S
C1123 C1120 1.539 . S
C1123 H1137 0.958 . S
C1123 H1138 0.961 . S
C1123 H1139 0.960 . S
H1124 C1108 0.931 . S
H1125 C1113 0.929 . S
H1126 C1114 0.960 . S
H1127 C1114 0.962 . S
H1128 C1114 0.960 . S
H1129 C1115 0.961 . S
H1130 C1115 0.961 . S
H1131 C1115 0.961 . S
H1132 C1116 0.931 . S
H1133 C1121 0.930 . S
H1134 C1122 0.956 . S
H1135 C1122 0.961 . S
H1136 C1122 0.961 . S
H1137 C1123 0.958 . S
H1138 C1123 0.961 . S
H1139 C1123 0.960 . S
C1140 C1141 1.391 . S
C1140 C1142 1.394 . S
C1140 H1156 0.931 . S
C1141 C1140 1.391 . S
C1141 C1145 1.376 . S
C1142 C1140 1.394 . S
C1142 C1143 1.369 . S
C1142 C1146 1.531 . S
C1143 C1142 1.369 . S
C1143 C1144 1.410 . S
C1143 C1151 1.503 . S
C1144 C1143 1.410 . S
C1144 C1145 1.392 . S
C1144 C1147 1.511 . S
C1145 C1141 1.376 . S
C1145 C1144 1.392 . S
C1145 H1157 0.929 . S
C1146 C1142 1.531 . S
C1146 H1158 0.960 . S
C1146 H1159 0.962 . S
C1146 H1160 0.960 . S
C1147 C1144 1.511 . S
C1147 H1161 0.961 . S
C1147 H1162 0.961 . S
C1147 H1163 0.961 . S
C1148 C1149 1.370 . S
C1148 C1150 1.363 . S
C1148 H1164 0.931 . S
C1149 C1148 1.370 . S
C1149 C1153 1.408 . S
C1150 C1148 1.363 . S
C1150 C1151 1.370 . S
C1150 C1154 1.524 . S
C1151 C1143 1.503 . S
C1151 C1150 1.370 . S
C1151 C1152 1.403 . S
C1152 C1151 1.403 . S
C1152 C1153 1.404 . S
C1152 C1155 1.539 . S
C1153 C1149 1.408 . S
C1153 C1152 1.404 . S
C1153 H1165 0.930 . S
C1154 C1150 1.524 . S
C1154 H1166 0.956 . S
C1154 H1167 0.961 . S
C1154 H1168 0.961 . S
C1155 C1152 1.539 . S
C1155 H1169 0.958 . S
C1155 H1170 0.961 . S
C1155 H1171 0.960 . S
H1156 C1140 0.931 . S
H1157 C1145 0.929 . S
H1158 C1146 0.960 . S
H1159 C1146 0.962 . S
H1160 C1146 0.960 . S
H1161 C1147 0.961 . S
H1162 C1147 0.961 . S
H1163 C1147 0.961 . S
H1164 C1148 0.931 . S
H1165 C1153 0.930 . S
H1166 C1154 0.956 . S
H1167 C1154 0.961 . S
H1168 C1154 0.961 . S
H1169 C1155 0.958 . S
H1170 C1155 0.961 . S
H1171 C1155 0.960 . S
C1172 C1173 1.391 . S
C1172 C1174 1.394 . S
C1172 H1188 0.931 . S
C1173 C1172 1.391 . S
C1173 C1177 1.376 . S
C1174 C1172 1.394 . S
C1174 C1175 1.369 . S
C1174 C1178 1.531 . S
C1175 C1174 1.369 . S
C1175 C1176 1.410 . S
C1175 C1183 1.503 . S
C1176 C1175 1.410 . S
C1176 C1177 1.392 . S
C1176 C1179 1.511 . S
C1177 C1173 1.376 . S
C1177 C1176 1.392 . S
C1177 H1189 0.929 . S
C1178 C1174 1.531 . S
C1178 H1190 0.960 . S
C1178 H1191 0.962 . S
C1178 H1192 0.960 . S
C1179 C1176 1.511 . S
C1179 H1193 0.961 . S
C1179 H1194 0.961 . S
C1179 H1195 0.961 . S
C1180 C1181 1.370 . S
C1180 C1182 1.363 . S
C1180 H1196 0.931 . S
C1181 C1180 1.370 . S
C1181 C1185 1.408 . S
C1182 C1180 1.363 . S
C1182 C1183 1.370 . S
C1182 C1186 1.524 . S
C1183 C1175 1.503 . S
C1183 C1182 1.370 . S
C1183 C1184 1.403 . S
C1184 C1183 1.403 . S
C1184 C1185 1.404 . S
C1184 C1187 1.539 . S
C1185 C1181 1.408 . S
C1185 C1184 1.404 . S
C1185 H1197 0.930 . S
C1186 C1182 1.524 . S
C1186 H1198 0.956 . S
C1186 H1199 0.961 . S
C1186 H1200 0.961 . S
C1187 C1184 1.539 . S
C1187 H1201 0.958 . S
C1187 H1202 0.961 . S
C1187 H1203 0.960 . S
H1188 C1172 0.931 . S
H1189 C1177 0.929 . S
H1190 C1178 0.960 . S
H1191 C1178 0.962 . S
H1192 C1178 0.960 . S
H1193 C1179 0.961 . S
H1194 C1179 0.961 . S
H1195 C1179 0.961 . S
H1196 C1180 0.931 . S
H1197 C1185 0.930 . S
H1198 C1186 0.956 . S
H1199 C1186 0.961 . S
H1200 C1186 0.961 . S
H1201 C1187 0.958 . S
H1202 C1187 0.961 . S
H1203 C1187 0.960 . S
C1204 C1205 1.391 . S
C1204 C1206 1.394 . S
C1204 H1220 0.931 . S
C1205 C1204 1.391 . S
C1205 C1209 1.376 . S
C1206 C1204 1.394 . S
C1206 C1207 1.369 . S
C1206 C1210 1.531 . S
C1207 C1206 1.369 . S
C1207 C1208 1.410 . S
C1207 C1215 1.503 . S
C1208 C1207 1.410 . S
C1208 C1209 1.392 . S
C1208 C1211 1.511 . S
C1209 C1205 1.376 . S
C1209 C1208 1.392 . S
C1209 H1221 0.929 . S
C1210 C1206 1.531 . S
C1210 H1222 0.960 . S
C1210 H1223 0.962 . S
C1210 H1224 0.960 . S
C1211 C1208 1.511 . S
C1211 H1225 0.961 . S
C1211 H1226 0.961 . S
C1211 H1227 0.961 . S
C1212 C1213 1.370 . S
C1212 C1214 1.363 . S
C1212 H1228 0.931 . S
C1213 C1212 1.370 . S
C1213 C1217 1.408 . S
C1214 C1212 1.363 . S
C1214 C1215 1.370 . S
C1214 C1218 1.524 . S
C1215 C1207 1.503 . S
C1215 C1214 1.370 . S
C1215 C1216 1.403 . S
C1216 C1215 1.403 . S
C1216 C1217 1.404 . S
C1216 C1219 1.539 . S
C1217 C1213 1.408 . S
C1217 C1216 1.404 . S
C1217 H1229 0.930 . S
C1218 C1214 1.524 . S
C1218 H1230 0.956 . S
C1218 H1231 0.961 . S
C1218 H1232 0.961 . S
C1219 C1216 1.539 . S
C1219 H1233 0.958 . S
C1219 H1234 0.961 . S
C1219 H1235 0.960 . S
H1220 C1204 0.931 . S
H1221 C1209 0.929 . S
H1222 C1210 0.960 . S
H1223 C1210 0.962 . S
H1224 C1210 0.960 . S
H1225 C1211 0.961 . S
H1226 C1211 0.961 . S
H1227 C1211 0.961 . S
H1228 C1212 0.931 . S
H1229 C1217 0.930 . S
H1230 C1218 0.956 . S
H1231 C1218 0.961 . S
H1232 C1218 0.961 . S
H1233 C1219 0.958 . S
H1234 C1219 0.961 . S
H1235 C1219 0.960 . S
C1236 C1237 1.391 1_554 S
C1236 C1238 1.394 . S
C1236 H1252 0.931 . S
C1237 C1236 1.391 1_556 S
C1237 C1241 1.376 1_556 S
C1238 C1236 1.394 . S
C1238 C1239 1.369 . S
C1238 C1242 1.531 . S
C1239 C1238 1.369 . S
C1239 C1240 1.410 . S
C1239 C1247 1.503 . S
C1240 C1239 1.410 . S
C1240 C1241 1.392 . S
C1240 C1243 1.511 . S
C1241 C1237 1.376 1_554 S
C1241 C1240 1.392 . S
C1241 H1253 0.929 1_554 S
C1242 C1238 1.531 . S
C1242 H1254 0.960 . S
C1242 H1255 0.962 . S
C1242 H1256 0.960 . S
C1243 C1240 1.511 . S
C1243 H1257 0.961 . S
C1243 H1258 0.961 . S
C1243 H1259 0.961 . S
C1244 C1245 1.370 . S
C1244 C1246 1.363 . S
C1244 H1260 0.931 . S
C1245 C1244 1.370 . S
C1245 C1249 1.408 . S
C1246 C1244 1.363 . S
C1246 C1247 1.370 . S
C1246 C1250 1.524 . S
C1247 C1239 1.503 . S
C1247 C1246 1.370 . S
C1247 C1248 1.403 . S
C1248 C1247 1.403 . S
C1248 C1249 1.404 . S
C1248 C1251 1.539 . S
C1249 C1245 1.408 . S
C1249 C1248 1.404 . S
C1249 H1261 0.930 . S
C1250 C1246 1.524 . S
C1250 H1262 0.956 . S
C1250 H1263 0.961 . S
C1250 H1264 0.961 . S
C1251 C1248 1.539 . S
C1251 H1265 0.958 . S
C1251 H1266 0.961 . S
C1251 H1267 0.960 . S
H1252 C1236 0.931 . S
H1253 C1241 0.929 1_556 S
H1254 C1242 0.960 . S
H1255 C1242 0.962 . S
H1256 C1242 0.960 . S
H1257 C1243 0.961 . S
H1258 C1243 0.961 . S
H1259 C1243 0.961 . S
H1260 C1244 0.931 . S
H1261 C1249 0.930 . S
H1262 C1250 0.956 . S
H1263 C1250 0.961 . S
H1264 C1250 0.961 . S
H1265 C1251 0.958 . S
H1266 C1251 0.961 . S
H1267 C1251 0.960 . S
C1268 C1269 1.391 . S
C1268 C1270 1.394 1_556 S
C1268 H1284 0.931 . S
C1269 C1268 1.391 . S
C1269 C1273 1.376 1_556 S
C1270 C1268 1.394 1_554 S
C1270 C1271 1.369 . S
C1270 C1274 1.531 . S
C1271 C1270 1.369 . S
C1271 C1272 1.410 . S
C1271 C1279 1.503 . S
C1272 C1271 1.410 . S
C1272 C1273 1.392 . S
C1272 C1275 1.511 . S
C1273 C1269 1.376 1_554 S
C1273 C1272 1.392 . S
C1273 H1285 0.929 . S
C1274 C1270 1.531 . S
C1274 H1286 0.960 . S
C1274 H1287 0.962 . S
C1274 H1288 0.960 . S
C1275 C1272 1.511 . S
C1275 H1289 0.961 . S
C1275 H1290 0.961 . S
C1275 H1291 0.961 . S
C1276 C1277 1.370 . S
C1276 C1278 1.363 . S
C1276 H1292 0.931 . S
C1277 C1276 1.370 . S
C1277 C1281 1.408 . S
C1278 C1276 1.363 . S
C1278 C1279 1.370 . S
C1278 C1282 1.524 . S
C1279 C1271 1.503 . S
C1279 C1278 1.370 . S
C1279 C1280 1.403 . S
C1280 C1279 1.403 . S
C1280 C1281 1.404 . S
C1280 C1283 1.539 . S
C1281 C1277 1.408 . S
C1281 C1280 1.404 . S
C1281 H1293 0.930 . S
C1282 C1278 1.524 . S
C1282 H1294 0.956 . S
C1282 H1295 0.961 . S
C1282 H1296 0.961 . S
C1283 C1280 1.539 . S
C1283 H1297 0.958 . S
C1283 H1298 0.961 . S
C1283 H1299 0.960 . S
H1284 C1268 0.931 . S
H1285 C1273 0.929 . S
H1286 C1274 0.960 . S
H1287 C1274 0.962 . S
H1288 C1274 0.960 . S
H1289 C1275 0.961 . S
H1290 C1275 0.961 . S
H1291 C1275 0.961 . S
H1292 C1276 0.931 . S
H1293 C1281 0.930 . S
H1294 C1282 0.956 . S
H1295 C1282 0.961 . S
H1296 C1282 0.961 . S
H1297 C1283 0.958 . S
H1298 C1283 0.961 . S
H1299 C1283 0.960 . S
C1300 C1301 1.391 . S
C1300 C1302 1.394 . S
C1300 H1316 0.931 . S
C1301 C1300 1.391 . S
C1301 C1305 1.376 . S
C1302 C1300 1.394 . S
C1302 C1303 1.369 . S
C1302 C1306 1.531 . S
C1303 C1302 1.369 . S
C1303 C1304 1.410 . S
C1303 C1311 1.503 . S
C1304 C1303 1.410 . S
C1304 C1305 1.392 . S
C1304 C1307 1.511 . S
C1305 C1301 1.376 . S
C1305 C1304 1.392 . S
C1305 H1317 0.929 . S
C1306 C1302 1.531 . S
C1306 H1318 0.960 . S
C1306 H1319 0.962 . S
C1306 H1320 0.960 . S
C1307 C1304 1.511 . S
C1307 H1321 0.961 . S
C1307 H1322 0.961 . S
C1307 H1323 0.961 . S
C1308 C1309 1.370 . S
C1308 C1310 1.363 1_556 S
C1308 H1324 0.931 . S
C1309 C1308 1.370 . S
C1309 C1313 1.408 1_556 S
C1310 C1308 1.363 1_554 S
C1310 C1311 1.370 . S
C1310 C1314 1.524 . S
C1311 C1303 1.503 . S
C1311 C1310 1.370 . S
C1311 C1312 1.403 . S
C1312 C1311 1.403 . S
C1312 C1313 1.404 . S
C1312 C1315 1.539 . S
C1313 C1309 1.408 1_554 S
C1313 C1312 1.404 . S
C1313 H1325 0.930 . S
C1314 C1310 1.524 . S
C1314 H1326 0.956 . S
C1314 H1327 0.961 . S
C1314 H1328 0.961 1_554 S
C1315 C1312 1.539 . S
C1315 H1329 0.958 . S
C1315 H1330 0.961 . S
C1315 H1331 0.960 . S
H1316 C1300 0.931 . S
H1317 C1305 0.929 . S
H1318 C1306 0.960 . S
H1319 C1306 0.962 . S
H1320 C1306 0.960 . S
H1321 C1307 0.961 . S
H1322 C1307 0.961 . S
H1323 C1307 0.961 . S
H1324 C1308 0.931 . S
H1325 C1313 0.930 . S
H1326 C1314 0.956 . S
H1327 C1314 0.961 . S
H1328 C1314 0.961 1_556 S
H1329 C1315 0.958 . S
H1330 C1315 0.961 . S
H1331 C1315 0.960 . S
C1332 C1333 1.391 . S
C1332 C1334 1.394 . S
C1332 H1348 0.931 . S
C1333 C1332 1.391 . S
C1333 C1337 1.376 . S
C1334 C1332 1.394 . S
C1334 C1335 1.369 . S
C1334 C1338 1.531 . S
C1335 C1334 1.369 . S
C1335 C1336 1.410 . S
C1335 C1343 1.503 . S
C1336 C1335 1.410 . S
C1336 C1337 1.392 . S
C1336 C1339 1.511 . S
C1337 C1333 1.376 . S
C1337 C1336 1.392 . S
C1337 H1349 0.929 . S
C1338 C1334 1.531 . S
C1338 H1350 0.960 . S
C1338 H1351 0.962 . S
C1338 H1352 0.960 . S
C1339 C1336 1.511 . S
C1339 H1353 0.961 . S
C1339 H1354 0.961 . S
C1339 H1355 0.961 . S
C1340 C1341 1.370 . S
C1340 C1342 1.363 . S
C1340 H1356 0.931 . S
C1341 C1340 1.370 . S
C1341 C1345 1.408 . S
C1342 C1340 1.363 . S
C1342 C1343 1.370 . S
C1342 C1346 1.524 . S
C1343 C1335 1.503 . S
C1343 C1342 1.370 . S
C1343 C1344 1.403 . S
C1344 C1343 1.403 . S
C1344 C1345 1.404 . S
C1344 C1347 1.539 . S
C1345 C1341 1.408 . S
C1345 C1344 1.404 . S
C1345 H1357 0.930 . S
C1346 C1342 1.524 . S
C1346 H1358 0.956 . S
C1346 H1359 0.961 . S
C1346 H1360 0.961 . S
C1347 C1344 1.539 . S
C1347 H1361 0.958 . S
C1347 H1362 0.961 . S
C1347 H1363 0.960 . S
H1348 C1332 0.931 . S
H1349 C1337 0.929 . S
H1350 C1338 0.960 . S
H1351 C1338 0.962 . S
H1352 C1338 0.960 . S
H1353 C1339 0.961 . S
H1354 C1339 0.961 . S
H1355 C1339 0.961 . S
H1356 C1340 0.931 . S
H1357 C1345 0.930 . S
H1358 C1346 0.956 . S
H1359 C1346 0.961 . S
H1360 C1346 0.961 . S
H1361 C1347 0.958 . S
H1362 C1347 0.961 . S
H1363 C1347 0.960 . S
C1364 C1365 1.391 . S
C1364 C1366 1.394 . S
C1364 H1380 0.931 . S
C1365 C1364 1.391 . S
C1365 C1369 1.376 . S
C1366 C1364 1.394 . S
C1366 C1367 1.369 . S
C1366 C1370 1.531 . S
C1367 C1366 1.369 . S
C1367 C1368 1.410 . S
C1367 C1375 1.503 . S
C1368 C1367 1.410 . S
C1368 C1369 1.392 . S
C1368 C1371 1.511 . S
C1369 C1365 1.376 . S
C1369 C1368 1.392 . S
C1369 H1381 0.929 . S
C1370 C1366 1.531 . S
C1370 H1382 0.960 . S
C1370 H1383 0.962 . S
C1370 H1384 0.960 . S
C1371 C1368 1.511 . S
C1371 H1385 0.961 . S
C1371 H1386 0.961 . S
C1371 H1387 0.961 . S
C1372 C1373 1.370 . S
C1372 C1374 1.363 . S
C1372 H1388 0.931 . S
C1373 C1372 1.370 . S
C1373 C1377 1.408 . S
C1374 C1372 1.363 . S
C1374 C1375 1.370 . S
C1374 C1378 1.524 . S
C1375 C1367 1.503 . S
C1375 C1374 1.370 . S
C1375 C1376 1.403 . S
C1376 C1375 1.403 . S
C1376 C1377 1.404 . S
C1376 C1379 1.539 . S
C1377 C1373 1.408 . S
C1377 C1376 1.404 . S
C1377 H1389 0.930 . S
C1378 C1374 1.524 . S
C1378 H1390 0.956 . S
C1378 H1391 0.961 . S
C1378 H1392 0.961 . S
C1379 C1376 1.539 . S
C1379 H1393 0.958 . S
C1379 H1394 0.961 . S
C1379 H1395 0.960 . S
H1380 C1364 0.931 . S
H1381 C1369 0.929 . S
H1382 C1370 0.960 . S
H1383 C1370 0.962 . S
H1384 C1370 0.960 . S
H1385 C1371 0.961 . S
H1386 C1371 0.961 . S
H1387 C1371 0.961 . S
H1388 C1372 0.931 . S
H1389 C1377 0.930 . S
H1390 C1378 0.956 . S
H1391 C1378 0.961 . S
H1392 C1378 0.961 . S
H1393 C1379 0.958 . S
H1394 C1379 0.961 . S
H1395 C1379 0.960 . S
C1396 C1397 1.391 . S
C1396 C1398 1.394 . S
C1396 H1412 0.931 . S
C1397 C1396 1.391 . S
C1397 C1401 1.376 . S
C1398 C1396 1.394 . S
C1398 C1399 1.369 . S
C1398 C1402 1.531 . S
C1399 C1398 1.369 . S
C1399 C1400 1.410 . S
C1399 C1407 1.503 . S
C1400 C1399 1.410 . S
C1400 C1401 1.392 . S
C1400 C1403 1.511 . S
C1401 C1397 1.376 . S
C1401 C1400 1.392 . S
C1401 H1413 0.929 . S
C1402 C1398 1.531 . S
C1402 H1414 0.960 . S
C1402 H1415 0.962 . S
C1402 H1416 0.960 . S
C1403 C1400 1.511 . S
C1403 H1417 0.961 . S
C1403 H1418 0.961 . S
C1403 H1419 0.961 . S
C1404 C1405 1.370 . S
C1404 C1406 1.363 . S
C1404 H1420 0.931 . S
C1405 C1404 1.370 . S
C1405 C1409 1.408 . S
C1406 C1404 1.363 . S
C1406 C1407 1.370 . S
C1406 C1410 1.524 . S
C1407 C1399 1.503 . S
C1407 C1406 1.370 . S
C1407 C1408 1.403 . S
C1408 C1407 1.403 . S
C1408 C1409 1.404 . S
C1408 C1411 1.539 . S
C1409 C1405 1.408 . S
C1409 C1408 1.404 . S
C1409 H1421 0.930 . S
C1410 C1406 1.524 . S
C1410 H1422 0.956 . S
C1410 H1423 0.961 . S
C1410 H1424 0.961 . S
C1411 C1408 1.539 . S
C1411 H1425 0.958 . S
C1411 H1426 0.961 . S
C1411 H1427 0.960 . S
H1412 C1396 0.931 . S
H1413 C1401 0.929 . S
H1414 C1402 0.960 . S
H1415 C1402 0.962 . S
H1416 C1402 0.960 . S
H1417 C1403 0.961 . S
H1418 C1403 0.961 . S
H1419 C1403 0.961 . S
H1420 C1404 0.931 . S
H1421 C1409 0.930 . S
H1422 C1410 0.956 . S
H1423 C1410 0.961 . S
H1424 C1410 0.961 . S
H1425 C1411 0.958 . S
H1426 C1411 0.961 . S
H1427 C1411 0.960 . S
C1428 C1429 1.391 . S
C1428 C1430 1.394 . S
C1428 H1444 0.931 . S
C1429 C1428 1.391 . S
C1429 C1433 1.376 . S
C1430 C1428 1.394 . S
C1430 C1431 1.369 . S
C1430 C1434 1.531 . S
C1431 C1430 1.369 . S
C1431 C1432 1.410 . S
C1431 C1439 1.503 . S
C1432 C1431 1.410 . S
C1432 C1433 1.392 . S
C1432 C1435 1.511 . S
C1433 C1429 1.376 . S
C1433 C1432 1.392 . S
C1433 H1445 0.929 . S
C1434 C1430 1.531 . S
C1434 H1446 0.960 . S
C1434 H1447 0.962 . S
C1434 H1448 0.960 . S
C1435 C1432 1.511 . S
C1435 H1449 0.961 . S
C1435 H1450 0.961 . S
C1435 H1451 0.961 . S
C1436 C1437 1.370 . S
C1436 C1438 1.363 . S
C1436 H1452 0.931 . S
C1437 C1436 1.370 . S
C1437 C1441 1.408 . S
C1438 C1436 1.363 . S
C1438 C1439 1.370 . S
C1438 C1442 1.524 . S
C1439 C1431 1.503 . S
C1439 C1438 1.370 . S
C1439 C1440 1.403 . S
C1440 C1439 1.403 . S
C1440 C1441 1.404 . S
C1440 C1443 1.539 . S
C1441 C1437 1.408 . S
C1441 C1440 1.404 . S
C1441 H1453 0.930 . S
C1442 C1438 1.524 . S
C1442 H1454 0.956 . S
C1442 H1455 0.961 . S
C1442 H1456 0.961 . S
C1443 C1440 1.539 . S
C1443 H1457 0.958 . S
C1443 H1458 0.961 . S
C1443 H1459 0.960 . S
H1444 C1428 0.931 . S
H1445 C1433 0.929 . S
H1446 C1434 0.960 . S
H1447 C1434 0.962 . S
H1448 C1434 0.960 . S
H1449 C1435 0.961 . S
H1450 C1435 0.961 . S
H1451 C1435 0.961 . S
H1452 C1436 0.931 . S
H1453 C1441 0.930 . S
H1454 C1442 0.956 . S
H1455 C1442 0.961 . S
H1456 C1442 0.961 . S
H1457 C1443 0.958 . S
H1458 C1443 0.961 . S
H1459 C1443 0.960 . S
C1460 C1461 1.391 . S
C1460 C1462 1.394 . S
C1460 H1476 0.931 . S
C1461 C1460 1.391 . S
C1461 C1465 1.376 . S
C1462 C1460 1.394 . S
C1462 C1463 1.369 . S
C1462 C1466 1.531 . S
C1463 C1462 1.369 . S
C1463 C1464 1.410 . S
C1463 C1471 1.503 . S
C1464 C1463 1.410 . S
C1464 C1465 1.392 . S
C1464 C1467 1.511 . S
C1465 C1461 1.376 . S
C1465 C1464 1.392 . S
C1465 H1477 0.929 . S
C1466 C1462 1.531 . S
C1466 H1478 0.960 . S
C1466 H1479 0.962 . S
C1466 H1480 0.960 . S
C1467 C1464 1.511 . S
C1467 H1481 0.961 . S
C1467 H1482 0.961 . S
C1467 H1483 0.961 . S
C1468 C1469 1.370 . S
C1468 C1470 1.363 . S
C1468 H1484 0.931 . S
C1469 C1468 1.370 . S
C1469 C1473 1.408 . S
C1470 C1468 1.363 . S
C1470 C1471 1.370 . S
C1470 C1474 1.524 . S
C1471 C1463 1.503 . S
C1471 C1470 1.370 . S
C1471 C1472 1.403 . S
C1472 C1471 1.403 . S
C1472 C1473 1.404 . S
C1472 C1475 1.539 . S
C1473 C1469 1.408 . S
C1473 C1472 1.404 . S
C1473 H1485 0.930 . S
C1474 C1470 1.524 . S
C1474 H1486 0.956 . S
C1474 H1487 0.961 . S
C1474 H1488 0.961 . S
C1475 C1472 1.539 . S
C1475 H1489 0.958 . S
C1475 H1490 0.961 . S
C1475 H1491 0.960 . S
H1476 C1460 0.931 . S
H1477 C1465 0.929 . S
H1478 C1466 0.960 . S
H1479 C1466 0.962 . S
H1480 C1466 0.960 . S
H1481 C1467 0.961 . S
H1482 C1467 0.961 . S
H1483 C1467 0.961 . S
H1484 C1468 0.931 . S
H1485 C1473 0.930 . S
H1486 C1474 0.956 . S
H1487 C1474 0.961 . S
H1488 C1474 0.961 . S
H1489 C1475 0.958 . S
H1490 C1475 0.961 . S
H1491 C1475 0.960 . S
C1492 C1493 1.391 . S
C1492 C1494 1.394 . S
C1492 H1508 0.931 . S
C1493 C1492 1.391 . S
C1493 C1497 1.376 . S
C1494 C1492 1.394 . S
C1494 C1495 1.369 . S
C1494 C1498 1.531 . S
C1495 C1494 1.369 . S
C1495 C1496 1.410 . S
C1495 C1503 1.503 . S
C1496 C1495 1.410 . S
C1496 C1497 1.392 . S
C1496 C1499 1.511 . S
C1497 C1493 1.376 . S
C1497 C1496 1.392 . S
C1497 H1509 0.929 . S
C1498 C1494 1.531 . S
C1498 H1510 0.960 . S
C1498 H1511 0.962 . S
C1498 H1512 0.960 . S
C1499 C1496 1.511 . S
C1499 H1513 0.961 . S
C1499 H1514 0.961 . S
C1499 H1515 0.961 . S
C1500 C1501 1.370 . S
C1500 C1502 1.363 . S
C1500 H1516 0.931 . S
C1501 C1500 1.370 . S
C1501 C1505 1.408 . S
C1502 C1500 1.363 . S
C1502 C1503 1.370 . S
C1502 C1506 1.524 . S
C1503 C1495 1.503 . S
C1503 C1502 1.370 . S
C1503 C1504 1.403 . S
C1504 C1503 1.403 . S
C1504 C1505 1.404 . S
C1504 C1507 1.539 . S
C1505 C1501 1.408 . S
C1505 C1504 1.404 . S
C1505 H1517 0.930 . S
C1506 C1502 1.524 . S
C1506 H1518 0.956 . S
C1506 H1519 0.961 . S
C1506 H1520 0.961 . S
C1507 C1504 1.539 . S
C1507 H1521 0.958 . S
C1507 H1522 0.961 . S
C1507 H1523 0.960 . S
H1508 C1492 0.931 . S
H1509 C1497 0.929 . S
H1510 C1498 0.960 . S
H1511 C1498 0.962 . S
H1512 C1498 0.960 . S
H1513 C1499 0.961 . S
H1514 C1499 0.961 . S
H1515 C1499 0.961 . S
H1516 C1500 0.931 . S
H1517 C1505 0.930 . S
H1518 C1506 0.956 . S
H1519 C1506 0.961 . S
H1520 C1506 0.961 . S
H1521 C1507 0.958 . S
H1522 C1507 0.961 . S
H1523 C1507 0.960 . S
C1524 C1525 1.391 . S
C1524 C1526 1.394 . S
C1524 H1540 0.931 . S
C1525 C1524 1.391 . S
C1525 C1529 1.376 . S
C1526 C1524 1.394 . S
C1526 C1527 1.369 . S
C1526 C1530 1.531 . S
C1527 C1526 1.369 . S
C1527 C1528 1.410 . S
C1527 C1535 1.503 . S
C1528 C1527 1.410 . S
C1528 C1529 1.392 . S
C1528 C1531 1.511 . S
C1529 C1525 1.376 . S
C1529 C1528 1.392 . S
C1529 H1541 0.929 . S
C1530 C1526 1.531 . S
C1530 H1542 0.960 . S
C1530 H1543 0.962 . S
C1530 H1544 0.960 . S
C1531 C1528 1.511 . S
C1531 H1545 0.961 . S
C1531 H1546 0.961 . S
C1531 H1547 0.961 . S
C1532 C1533 1.370 . S
C1532 C1534 1.363 . S
C1532 H1548 0.931 . S
C1533 C1532 1.370 . S
C1533 C1537 1.408 . S
C1534 C1532 1.363 . S
C1534 C1535 1.370 1_554 S
C1534 C1538 1.524 . S
C1535 C1527 1.503 . S
C1535 C1534 1.370 1_556 S
C1535 C1536 1.403 . S
C1536 C1535 1.403 . S
C1536 C1537 1.404 1_556 S
C1536 C1539 1.539 . S
C1537 C1533 1.408 . S
C1537 C1536 1.404 1_554 S
C1537 H1549 0.930 . S
C1538 C1534 1.524 . S
C1538 H1550 0.956 . S
C1538 H1551 0.961 1_554 S
C1538 H1552 0.961 . S
C1539 C1536 1.539 . S
C1539 H1553 0.958 . S
C1539 H1554 0.961 . S
C1539 H1555 0.960 . S
H1540 C1524 0.931 . S
H1541 C1529 0.929 . S
H1542 C1530 0.960 . S
H1543 C1530 0.962 . S
H1544 C1530 0.960 . S
H1545 C1531 0.961 . S
H1546 C1531 0.961 . S
H1547 C1531 0.961 . S
H1548 C1532 0.931 . S
H1549 C1537 0.930 . S
H1550 C1538 0.956 . S
H1551 C1538 0.961 1_556 S
H1552 C1538 0.961 . S
H1553 C1539 0.958 . S
H1554 C1539 0.961 . S
H1555 C1539 0.960 . S
C1556 C1557 1.391 . S
C1556 C1558 1.394 . S
C1556 H1572 0.931 . S
C1557 C1556 1.391 . S
C1557 C1561 1.376 . S
C1558 C1556 1.394 . S
C1558 C1559 1.369 1_554 S
C1558 C1562 1.531 . S
C1559 C1558 1.369 1_556 S
C1559 C1560 1.410 . S
C1559 C1567 1.503 . S
C1560 C1559 1.410 . S
C1560 C1561 1.392 1_556 S
C1560 C1563 1.511 . S
C1561 C1557 1.376 . S
C1561 C1560 1.392 1_554 S
C1561 H1573 0.929 . S
C1562 C1558 1.531 . S
C1562 H1574 0.960 1_554 S
C1562 H1575 0.962 1_554 S
C1562 H1576 0.960 . S
C1563 C1560 1.511 . S
C1563 H1577 0.961 . S
C1563 H1578 0.961 . S
C1563 H1579 0.961 . S
C1564 C1565 1.370 . S
C1564 C1566 1.363 . S
C1564 H1580 0.931 . S
C1565 C1564 1.370 . S
C1565 C1569 1.408 . S
C1566 C1564 1.363 . S
C1566 C1567 1.370 . S
C1566 C1570 1.524 . S
C1567 C1559 1.503 . S
C1567 C1566 1.370 . S
C1567 C1568 1.403 . S
C1568 C1567 1.403 . S
C1568 C1569 1.404 . S
C1568 C1571 1.539 . S
C1569 C1565 1.408 . S
C1569 C1568 1.404 . S
C1569 H1581 0.930 . S
C1570 C1566 1.524 . S
C1570 H1582 0.956 . S
C1570 H1583 0.961 . S
C1570 H1584 0.961 . S
C1571 C1568 1.539 . S
C1571 H1585 0.958 . S
C1571 H1586 0.961 . S
C1571 H1587 0.960 . S
H1572 C1556 0.931 . S
H1573 C1561 0.929 . S
H1574 C1562 0.960 1_556 S
H1575 C1562 0.962 1_556 S
H1576 C1562 0.960 . S
H1577 C1563 0.961 . S
H1578 C1563 0.961 . S
H1579 C1563 0.961 . S
H1580 C1564 0.931 . S
H1581 C1569 0.930 . S
H1582 C1570 0.956 . S
H1583 C1570 0.961 . S
H1584 C1570 0.961 . S
H1585 C1571 0.958 . S
H1586 C1571 0.961 . S
H1587 C1571 0.960 . S
C1588 C1589 1.391 . S
C1588 C1590 1.394 . S
C1588 H1604 0.931 . S
C1589 C1588 1.391 . S
C1589 C1593 1.376 . S
C1590 C1588 1.394 . S
C1590 C1591 1.369 . S
C1590 C1594 1.531 . S
C1591 C1590 1.369 . S
C1591 C1592 1.410 . S
C1591 C1599 1.503 . S
C1592 C1591 1.410 . S
C1592 C1593 1.392 . S
C1592 C1595 1.511 . S
C1593 C1589 1.376 . S
C1593 C1592 1.392 . S
C1593 H1605 0.929 . S
C1594 C1590 1.531 . S
C1594 H1606 0.960 . S
C1594 H1607 0.962 . S
C1594 H1608 0.960 . S
C1595 C1592 1.511 . S
C1595 H1609 0.961 . S
C1595 H1610 0.961 . S
C1595 H1611 0.961 . S
C1596 C1597 1.370 . S
C1596 C1598 1.363 1_554 S
C1596 H1612 0.931 . S
C1597 C1596 1.370 . S
C1597 C1601 1.408 . S
C1598 C1596 1.363 1_556 S
C1598 C1599 1.370 . S
C1598 C1602 1.524 . S
C1599 C1591 1.503 . S
C1599 C1598 1.370 . S
C1599 C1600 1.403 . S
C1600 C1599 1.403 . S
C1600 C1601 1.404 1_556 S
C1600 C1603 1.539 . S
C1601 C1597 1.408 . S
C1601 C1600 1.404 1_554 S
C1601 H1613 0.930 . S
C1602 C1598 1.524 . S
C1602 H1614 0.956 . S
C1602 H1615 0.961 . S
C1602 H1616 0.961 1_556 S
C1603 C1600 1.539 . S
C1603 H1617 0.958 . S
C1603 H1618 0.961 . S
C1603 H1619 0.960 . S
H1604 C1588 0.931 . S
H1605 C1593 0.929 . S
H1606 C1594 0.960 . S
H1607 C1594 0.962 . S
H1608 C1594 0.960 . S
H1609 C1595 0.961 . S
H1610 C1595 0.961 . S
H1611 C1595 0.961 . S
H1612 C1596 0.931 . S
H1613 C1601 0.930 . S
H1614 C1602 0.956 . S
H1615 C1602 0.961 . S
H1616 C1602 0.961 1_554 S
H1617 C1603 0.958 . S
H1618 C1603 0.961 . S
H1619 C1603 0.960 . S
C1620 C1621 1.391 . S
C1620 C1622 1.394 . S
C1620 H1636 0.931 . S
C1621 C1620 1.391 . S
C1621 C1625 1.376 . S
C1622 C1620 1.394 . S
C1622 C1623 1.369 . S
C1622 C1626 1.531 . S
C1623 C1622 1.369 . S
C1623 C1624 1.410 . S
C1623 C1631 1.503 . S
C1624 C1623 1.410 . S
C1624 C1625 1.392 . S
C1624 C1627 1.511 . S
C1625 C1621 1.376 . S
C1625 C1624 1.392 . S
C1625 H1637 0.929 . S
C1626 C1622 1.531 . S
C1626 H1638 0.960 . S
C1626 H1639 0.962 . S
C1626 H1640 0.960 . S
C1627 C1624 1.511 . S
C1627 H1641 0.961 . S
C1627 H1642 0.961 . S
C1627 H1643 0.961 . S
C1628 C1629 1.370 . S
C1628 C1630 1.363 . S
C1628 H1644 0.931 . S
C1629 C1628 1.370 . S
C1629 C1633 1.408 . S
C1630 C1628 1.363 . S
C1630 C1631 1.370 . S
C1630 C1634 1.524 . S
C1631 C1623 1.503 . S
C1631 C1630 1.370 . S
C1631 C1632 1.403 . S
C1632 C1631 1.403 . S
C1632 C1633 1.404 . S
C1632 C1635 1.539 . S
C1633 C1629 1.408 . S
C1633 C1632 1.404 . S
C1633 H1645 0.930 . S
C1634 C1630 1.524 . S
C1634 H1646 0.956 . S
C1634 H1647 0.961 . S
C1634 H1648 0.961 . S
C1635 C1632 1.539 . S
C1635 H1649 0.958 . S
C1635 H1650 0.961 . S
C1635 H1651 0.960 . S
H1636 C1620 0.931 . S
H1637 C1625 0.929 . S
H1638 C1626 0.960 . S
H1639 C1626 0.962 . S
H1640 C1626 0.960 . S
H1641 C1627 0.961 . S
H1642 C1627 0.961 . S
H1643 C1627 0.961 . S
H1644 C1628 0.931 . S
H1645 C1633 0.930 . S
H1646 C1634 0.956 . S
H1647 C1634 0.961 . S
H1648 C1634 0.961 . S
H1649 C1635 0.958 . S
H1650 C1635 0.961 . S
H1651 C1635 0.960 . S
C1652 C1653 1.391 . S
C1652 C1654 1.394 . S
C1652 H1668 0.931 . S
C1653 C1652 1.391 . S
C1653 C1657 1.376 . S
C1654 C1652 1.394 . S
C1654 C1655 1.369 . S
C1654 C1658 1.531 . S
C1655 C1654 1.369 . S
C1655 C1656 1.410 . S
C1655 C1663 1.503 . S
C1656 C1655 1.410 . S
C1656 C1657 1.392 . S
C1656 C1659 1.511 . S
C1657 C1653 1.376 . S
C1657 C1656 1.392 . S
C1657 H1669 0.929 . S
C1658 C1654 1.531 . S
C1658 H1670 0.960 . S
C1658 H1671 0.962 . S
C1658 H1672 0.960 . S
C1659 C1656 1.511 . S
C1659 H1673 0.961 . S
C1659 H1674 0.961 . S
C1659 H1675 0.961 . S
C1660 C1661 1.370 . S
C1660 C1662 1.363 . S
C1660 H1676 0.931 . S
C1661 C1660 1.370 . S
C1661 C1665 1.408 . S
C1662 C1660 1.363 . S
C1662 C1663 1.370 . S
C1662 C1666 1.524 . S
C1663 C1655 1.503 . S
C1663 C1662 1.370 . S
C1663 C1664 1.403 . S
C1664 C1663 1.403 . S
C1664 C1665 1.404 . S
C1664 C1667 1.539 . S
C1665 C1661 1.408 . S
C1665 C1664 1.404 . S
C1665 H1677 0.930 . S
C1666 C1662 1.524 . S
C1666 H1678 0.956 . S
C1666 H1679 0.961 . S
C1666 H1680 0.961 . S
C1667 C1664 1.539 . S
C1667 H1681 0.958 . S
C1667 H1682 0.961 . S
C1667 H1683 0.960 . S
H1668 C1652 0.931 . S
H1669 C1657 0.929 . S
H1670 C1658 0.960 . S
H1671 C1658 0.962 . S
H1672 C1658 0.960 . S
H1673 C1659 0.961 . S
H1674 C1659 0.961 . S
H1675 C1659 0.961 . S
H1676 C1660 0.931 . S
H1677 C1665 0.930 . S
H1678 C1666 0.956 . S
H1679 C1666 0.961 . S
H1680 C1666 0.961 . S
H1681 C1667 0.958 . S
H1682 C1667 0.961 . S
H1683 C1667 0.960 . S
C1684 C1685 1.391 . S
C1684 C1686 1.394 . S
C1684 H1700 0.931 . S
C1685 C1684 1.391 . S
C1685 C1689 1.376 . S
C1686 C1684 1.394 . S
C1686 C1687 1.369 . S
C1686 C1690 1.531 . S
C1687 C1686 1.369 . S
C1687 C1688 1.410 . S
C1687 C1695 1.503 . S
C1688 C1687 1.410 . S
C1688 C1689 1.392 . S
C1688 C1691 1.511 . S
C1689 C1685 1.376 . S
C1689 C1688 1.392 . S
C1689 H1701 0.929 . S
C1690 C1686 1.531 . S
C1690 H1702 0.960 . S
C1690 H1703 0.962 . S
C1690 H1704 0.960 . S
C1691 C1688 1.511 . S
C1691 H1705 0.961 . S
C1691 H1706 0.961 . S
C1691 H1707 0.961 . S
C1692 C1693 1.370 . S
C1692 C1694 1.363 . S
C1692 H1708 0.931 . S
C1693 C1692 1.370 . S
C1693 C1697 1.408 . S
C1694 C1692 1.363 . S
C1694 C1695 1.370 . S
C1694 C1698 1.524 . S
C1695 C1687 1.503 . S
C1695 C1694 1.370 . S
C1695 C1696 1.403 . S
C1696 C1695 1.403 . S
C1696 C1697 1.404 . S
C1696 C1699 1.539 . S
C1697 C1693 1.408 . S
C1697 C1696 1.404 . S
C1697 H1709 0.930 . S
C1698 C1694 1.524 . S
C1698 H1710 0.956 . S
C1698 H1711 0.961 . S
C1698 H1712 0.961 . S
C1699 C1696 1.539 . S
C1699 H1713 0.958 . S
C1699 H1714 0.961 . S
C1699 H1715 0.960 . S
H1700 C1684 0.931 . S
H1701 C1689 0.929 . S
H1702 C1690 0.960 . S
H1703 C1690 0.962 . S
H1704 C1690 0.960 . S
H1705 C1691 0.961 . S
H1706 C1691 0.961 . S
H1707 C1691 0.961 . S
H1708 C1692 0.931 . S
H1709 C1697 0.930 . S
H1710 C1698 0.956 . S
H1711 C1698 0.961 . S
H1712 C1698 0.961 . S
H1713 C1699 0.958 . S
H1714 C1699 0.961 . S
H1715 C1699 0.960 . S
C1716 C1717 1.391 . S
C1716 C1718 1.394 . S
C1716 H1732 0.931 . S
C1717 C1716 1.391 . S
C1717 C1721 1.376 . S
C1718 C1716 1.394 . S
C1718 C1719 1.369 . S
C1718 C1722 1.531 . S
C1719 C1718 1.369 . S
C1719 C1720 1.410 . S
C1719 C1727 1.503 . S
C1720 C1719 1.410 . S
C1720 C1721 1.392 . S
C1720 C1723 1.511 . S
C1721 C1717 1.376 . S
C1721 C1720 1.392 . S
C1721 H1733 0.929 . S
C1722 C1718 1.531 . S
C1722 H1734 0.960 . S
C1722 H1735 0.962 . S
C1722 H1736 0.960 . S
C1723 C1720 1.511 . S
C1723 H1737 0.961 . S
C1723 H1738 0.961 . S
C1723 H1739 0.961 . S
C1724 C1725 1.370 . S
C1724 C1726 1.363 . S
C1724 H1740 0.931 . S
C1725 C1724 1.370 . S
C1725 C1729 1.408 . S
C1726 C1724 1.363 . S
C1726 C1727 1.370 . S
C1726 C1730 1.524 . S
C1727 C1719 1.503 . S
C1727 C1726 1.370 . S
C1727 C1728 1.403 . S
C1728 C1727 1.403 . S
C1728 C1729 1.404 . S
C1728 C1731 1.539 . S
C1729 C1725 1.408 . S
C1729 C1728 1.404 . S
C1729 H1741 0.930 . S
C1730 C1726 1.524 . S
C1730 H1742 0.956 . S
C1730 H1743 0.961 . S
C1730 H1744 0.961 . S
C1731 C1728 1.539 . S
C1731 H1745 0.958 . S
C1731 H1746 0.961 . S
C1731 H1747 0.960 . S
H1732 C1716 0.931 . S
H1733 C1721 0.929 . S
H1734 C1722 0.960 . S
H1735 C1722 0.962 . S
H1736 C1722 0.960 . S
H1737 C1723 0.961 . S
H1738 C1723 0.961 . S
H1739 C1723 0.961 . S
H1740 C1724 0.931 . S
H1741 C1729 0.930 . S
H1742 C1730 0.956 . S
H1743 C1730 0.961 . S
H1744 C1730 0.961 . S
H1745 C1731 0.958 . S
H1746 C1731 0.961 . S
H1747 C1731 0.960 . S
C1748 C1749 1.391 . S
C1748 C1750 1.394 . S
C1748 H1764 0.931 . S
C1749 C1748 1.391 . S
C1749 C1753 1.376 . S
C1750 C1748 1.394 . S
C1750 C1751 1.369 . S
C1750 C1754 1.531 . S
C1751 C1750 1.369 . S
C1751 C1752 1.410 . S
C1751 C1759 1.503 . S
C1752 C1751 1.410 . S
C1752 C1753 1.392 . S
C1752 C1755 1.511 . S
C1753 C1749 1.376 . S
C1753 C1752 1.392 . S
C1753 H1765 0.929 . S
C1754 C1750 1.531 . S
C1754 H1766 0.960 . S
C1754 H1767 0.962 . S
C1754 H1768 0.960 . S
C1755 C1752 1.511 . S
C1755 H1769 0.961 . S
C1755 H1770 0.961 . S
C1755 H1771 0.961 . S
C1756 C1757 1.370 . S
C1756 C1758 1.363 . S
C1756 H1772 0.931 . S
C1757 C1756 1.370 . S
C1757 C1761 1.408 . S
C1758 C1756 1.363 . S
C1758 C1759 1.370 . S
C1758 C1762 1.524 . S
C1759 C1751 1.503 . S
C1759 C1758 1.370 . S
C1759 C1760 1.403 . S
C1760 C1759 1.403 . S
C1760 C1761 1.404 . S
C1760 C1763 1.539 . S
C1761 C1757 1.408 . S
C1761 C1760 1.404 . S
C1761 H1773 0.930 . S
C1762 C1758 1.524 . S
C1762 H1774 0.956 . S
C1762 H1775 0.961 . S
C1762 H1776 0.961 . S
C1763 C1760 1.539 . S
C1763 H1777 0.958 . S
C1763 H1778 0.961 . S
C1763 H1779 0.960 . S
H1764 C1748 0.931 . S
H1765 C1753 0.929 . S
H1766 C1754 0.960 . S
H1767 C1754 0.962 . S
H1768 C1754 0.960 . S
H1769 C1755 0.961 . S
H1770 C1755 0.961 . S
H1771 C1755 0.961 . S
H1772 C1756 0.931 . S
H1773 C1761 0.930 . S
H1774 C1762 0.956 . S
H1775 C1762 0.961 . S
H1776 C1762 0.961 . S
H1777 C1763 0.958 . S
H1778 C1763 0.961 . S
H1779 C1763 0.960 . S
C1780 C1781 1.391 . S
C1780 C1782 1.394 . S
C1780 H1796 0.931 . S
C1781 C1780 1.391 . S
C1781 C1785 1.376 . S
C1782 C1780 1.394 . S
C1782 C1783 1.369 . S
C1782 C1786 1.531 . S
C1783 C1782 1.369 . S
C1783 C1784 1.410 . S
C1783 C1791 1.503 . S
C1784 C1783 1.410 . S
C1784 C1785 1.392 . S
C1784 C1787 1.511 . S
C1785 C1781 1.376 . S
C1785 C1784 1.392 . S
C1785 H1797 0.929 . S
C1786 C1782 1.531 . S
C1786 H1798 0.960 . S
C1786 H1799 0.962 . S
C1786 H1800 0.960 . S
C1787 C1784 1.511 . S
C1787 H1801 0.961 . S
C1787 H1802 0.961 . S
C1787 H1803 0.961 . S
C1788 C1789 1.370 . S
C1788 C1790 1.363 . S
C1788 H1804 0.931 . S
C1789 C1788 1.370 . S
C1789 C1793 1.408 . S
C1790 C1788 1.363 . S
C1790 C1791 1.370 . S
C1790 C1794 1.524 . S
C1791 C1783 1.503 . S
C1791 C1790 1.370 . S
C1791 C1792 1.403 . S
C1792 C1791 1.403 . S
C1792 C1793 1.404 . S
C1792 C1795 1.539 . S
C1793 C1789 1.408 . S
C1793 C1792 1.404 . S
C1793 H1805 0.930 . S
C1794 C1790 1.524 . S
C1794 H1806 0.956 . S
C1794 H1807 0.961 . S
C1794 H1808 0.961 . S
C1795 C1792 1.539 . S
C1795 H1809 0.958 . S
C1795 H1810 0.961 . S
C1795 H1811 0.960 . S
H1796 C1780 0.931 . S
H1797 C1785 0.929 . S
H1798 C1786 0.960 . S
H1799 C1786 0.962 . S
H1800 C1786 0.960 . S
H1801 C1787 0.961 . S
H1802 C1787 0.961 . S
H1803 C1787 0.961 . S
H1804 C1788 0.931 . S
H1805 C1793 0.930 . S
H1806 C1794 0.956 . S
H1807 C1794 0.961 . S
H1808 C1794 0.961 . S
H1809 C1795 0.958 . S
H1810 C1795 0.961 . S
H1811 C1795 0.960 . S
C1812 C1813 1.391 . S
C1812 C1814 1.394 . S
C1812 H1828 0.931 . S
C1813 C1812 1.391 . S
C1813 C1817 1.376 . S
C1814 C1812 1.394 . S
C1814 C1815 1.369 . S
C1814 C1818 1.531 . S
C1815 C1814 1.369 . S
C1815 C1816 1.410 . S
C1815 C1823 1.503 . S
C1816 C1815 1.410 . S
C1816 C1817 1.392 . S
C1816 C1819 1.511 . S
C1817 C1813 1.376 . S
C1817 C1816 1.392 . S
C1817 H1829 0.929 . S
C1818 C1814 1.531 . S
C1818 H1830 0.960 . S
C1818 H1831 0.962 . S
C1818 H1832 0.960 . S
C1819 C1816 1.511 . S
C1819 H1833 0.961 . S
C1819 H1834 0.961 . S
C1819 H1835 0.961 . S
C1820 C1821 1.370 . S
C1820 C1822 1.363 . S
C1820 H1836 0.931 . S
C1821 C1820 1.370 . S
C1821 C1825 1.408 . S
C1822 C1820 1.363 . S
C1822 C1823 1.370 . S
C1822 C1826 1.524 . S
C1823 C1815 1.503 . S
C1823 C1822 1.370 . S
C1823 C1824 1.403 . S
C1824 C1823 1.403 . S
C1824 C1825 1.404 . S
C1824 C1827 1.539 . S
C1825 C1821 1.408 . S
C1825 C1824 1.404 . S
C1825 H1837 0.930 . S
C1826 C1822 1.524 . S
C1826 H1838 0.956 . S
C1826 H1839 0.961 . S
C1826 H1840 0.961 . S
C1827 C1824 1.539 . S
C1827 H1841 0.958 . S
C1827 H1842 0.961 . S
C1827 H1843 0.960 . S
H1828 C1812 0.931 . S
H1829 C1817 0.929 . S
H1830 C1818 0.960 . S
H1831 C1818 0.962 . S
H1832 C1818 0.960 . S
H1833 C1819 0.961 . S
H1834 C1819 0.961 . S
H1835 C1819 0.961 . S
H1836 C1820 0.931 . S
H1837 C1825 0.930 . S
H1838 C1826 0.956 . S
H1839 C1826 0.961 . S
H1840 C1826 0.961 . S
H1841 C1827 0.958 . S
H1842 C1827 0.961 . S
H1843 C1827 0.960 . S
C1844 C1845 1.391 . S
C1844 C1846 1.394 . S
C1844 H1860 0.931 . S
C1845 C1844 1.391 . S
C1845 C1849 1.376 . S
C1846 C1844 1.394 . S
C1846 C1847 1.369 . S
C1846 C1850 1.531 . S
C1847 C1846 1.369 . S
C1847 C1848 1.410 . S
C1847 C1855 1.503 . S
C1848 C1847 1.410 . S
C1848 C1849 1.392 . S
C1848 C1851 1.511 . S
C1849 C1845 1.376 . S
C1849 C1848 1.392 . S
C1849 H1861 0.929 . S
C1850 C1846 1.531 . S
C1850 H1862 0.960 . S
C1850 H1863 0.962 . S
C1850 H1864 0.960 . S
C1851 C1848 1.511 . S
C1851 H1865 0.961 . S
C1851 H1866 0.961 . S
C1851 H1867 0.961 . S
C1852 C1853 1.370 . S
C1852 C1854 1.363 . S
C1852 H1868 0.931 . S
C1853 C1852 1.370 . S
C1853 C1857 1.408 . S
C1854 C1852 1.363 . S
C1854 C1855 1.370 . S
C1854 C1858 1.524 . S
C1855 C1847 1.503 . S
C1855 C1854 1.370 . S
C1855 C1856 1.403 . S
C1856 C1855 1.403 . S
C1856 C1857 1.404 . S
C1856 C1859 1.539 . S
C1857 C1853 1.408 . S
C1857 C1856 1.404 . S
C1857 H1869 0.930 . S
C1858 C1854 1.524 . S
C1858 H1870 0.956 . S
C1858 H1871 0.961 . S
C1858 H1872 0.961 . S
C1859 C1856 1.539 . S
C1859 H1873 0.958 . S
C1859 H1874 0.961 . S
C1859 H1875 0.960 . S
H1860 C1844 0.931 . S
H1861 C1849 0.929 . S
H1862 C1850 0.960 . S
H1863 C1850 0.962 . S
H1864 C1850 0.960 . S
H1865 C1851 0.961 . S
H1866 C1851 0.961 . S
H1867 C1851 0.961 . S
H1868 C1852 0.931 . S
H1869 C1857 0.930 . S
H1870 C1858 0.956 . S
H1871 C1858 0.961 . S
H1872 C1858 0.961 . S
H1873 C1859 0.958 . S
H1874 C1859 0.961 . S
H1875 C1859 0.960 . S
C1876 C1877 1.391 . S
C1876 C1878 1.394 . S
C1876 H1892 0.931 . S
C1877 C1876 1.391 . S
C1877 C1881 1.376 . S
C1878 C1876 1.394 . S
C1878 C1879 1.369 . S
C1878 C1882 1.531 . S
C1879 C1878 1.369 . S
C1879 C1880 1.410 . S
C1879 C1887 1.503 . S
C1880 C1879 1.410 . S
C1880 C1881 1.392 . S
C1880 C1883 1.511 . S
C1881 C1877 1.376 . S
C1881 C1880 1.392 . S
C1881 H1893 0.929 . S
C1882 C1878 1.531 . S
C1882 H1894 0.960 . S
C1882 H1895 0.962 . S
C1882 H1896 0.960 . S
C1883 C1880 1.511 . S
C1883 H1897 0.961 . S
C1883 H1898 0.961 . S
C1883 H1899 0.961 . S
C1884 C1885 1.370 . S
C1884 C1886 1.363 . S
C1884 H1900 0.931 . S
C1885 C1884 1.370 . S
C1885 C1889 1.408 . S
C1886 C1884 1.363 . S
C1886 C1887 1.370 . S
C1886 C1890 1.524 . S
C1887 C1879 1.503 . S
C1887 C1886 1.370 . S
C1887 C1888 1.403 . S
C1888 C1887 1.403 . S
C1888 C1889 1.404 . S
C1888 C1891 1.539 . S
C1889 C1885 1.408 . S
C1889 C1888 1.404 . S
C1889 H1901 0.930 . S
C1890 C1886 1.524 . S
C1890 H1902 0.956 . S
C1890 H1903 0.961 . S
C1890 H1904 0.961 . S
C1891 C1888 1.539 . S
C1891 H1905 0.958 . S
C1891 H1906 0.961 . S
C1891 H1907 0.960 . S
H1892 C1876 0.931 . S
H1893 C1881 0.929 . S
H1894 C1882 0.960 . S
H1895 C1882 0.962 . S
H1896 C1882 0.960 . S
H1897 C1883 0.961 . S
H1898 C1883 0.961 . S
H1899 C1883 0.961 . S
H1900 C1884 0.931 . S
H1901 C1889 0.930 . S
H1902 C1890 0.956 . S
H1903 C1890 0.961 . S
H1904 C1890 0.961 . S
H1905 C1891 0.958 . S
H1906 C1891 0.961 . S
H1907 C1891 0.960 . S
C1908 C1909 1.391 . S
C1908 C1910 1.394 . S
C1908 H1924 0.931 . S
C1909 C1908 1.391 . S
C1909 C1913 1.376 . S
C1910 C1908 1.394 . S
C1910 C1911 1.369 . S
C1910 C1914 1.531 . S
C1911 C1910 1.369 . S
C1911 C1912 1.410 . S
C1911 C1919 1.503 . S
C1912 C1911 1.410 . S
C1912 C1913 1.392 . S
C1912 C1915 1.511 . S
C1913 C1909 1.376 . S
C1913 C1912 1.392 . S
C1913 H1925 0.929 . S
C1914 C1910 1.531 . S
C1914 H1926 0.960 . S
C1914 H1927 0.962 . S
C1914 H1928 0.960 . S
C1915 C1912 1.511 . S
C1915 H1929 0.961 . S
C1915 H1930 0.961 . S
C1915 H1931 0.961 . S
C1916 C1917 1.370 . S
C1916 C1918 1.363 . S
C1916 H1932 0.931 . S
C1917 C1916 1.370 . S
C1917 C1921 1.408 . S
C1918 C1916 1.363 . S
C1918 C1919 1.370 . S
C1918 C1922 1.524 . S
C1919 C1911 1.503 . S
C1919 C1918 1.370 . S
C1919 C1920 1.403 . S
C1920 C1919 1.403 . S
C1920 C1921 1.404 . S
C1920 C1923 1.539 . S
C1921 C1917 1.408 . S
C1921 C1920 1.404 . S
C1921 H1933 0.930 . S
C1922 C1918 1.524 . S
C1922 H1934 0.956 . S
C1922 H1935 0.961 . S
C1922 H1936 0.961 . S
C1923 C1920 1.539 . S
C1923 H1937 0.958 . S
C1923 H1938 0.961 . S
C1923 H1939 0.960 . S
H1924 C1908 0.931 . S
H1925 C1913 0.929 . S
H1926 C1914 0.960 . S
H1927 C1914 0.962 . S
H1928 C1914 0.960 . S
H1929 C1915 0.961 . S
H1930 C1915 0.961 . S
H1931 C1915 0.961 . S
H1932 C1916 0.931 . S
H1933 C1921 0.930 . S
H1934 C1922 0.956 . S
H1935 C1922 0.961 . S
H1936 C1922 0.961 . S
H1937 C1923 0.958 . S
H1938 C1923 0.961 . S
H1939 C1923 0.960 . S
C1940 C1941 1.391 . S
C1940 C1942 1.394 . S
C1940 H1956 0.931 . S
C1941 C1940 1.391 . S
C1941 C1945 1.376 . S
C1942 C1940 1.394 . S
C1942 C1943 1.369 . S
C1942 C1946 1.531 . S
C1943 C1942 1.369 . S
C1943 C1944 1.410 . S
C1943 C1951 1.503 . S
C1944 C1943 1.410 . S
C1944 C1945 1.392 . S
C1944 C1947 1.511 . S
C1945 C1941 1.376 . S
C1945 C1944 1.392 . S
C1945 H1957 0.929 . S
C1946 C1942 1.531 . S
C1946 H1958 0.960 . S
C1946 H1959 0.962 . S
C1946 H1960 0.960 . S
C1947 C1944 1.511 . S
C1947 H1961 0.961 . S
C1947 H1962 0.961 . S
C1947 H1963 0.961 . S
C1948 C1949 1.370 . S
C1948 C1950 1.363 . S
C1948 H1964 0.931 . S
C1949 C1948 1.370 . S
C1949 C1953 1.408 . S
C1950 C1948 1.363 . S
C1950 C1951 1.370 . S
C1950 C1954 1.524 . S
C1951 C1943 1.503 . S
C1951 C1950 1.370 . S
C1951 C1952 1.403 . S
C1952 C1951 1.403 . S
C1952 C1953 1.404 . S
C1952 C1955 1.539 . S
C1953 C1949 1.408 . S
C1953 C1952 1.404 . S
C1953 H1965 0.930 . S
C1954 C1950 1.524 . S
C1954 H1966 0.956 . S
C1954 H1967 0.961 . S
C1954 H1968 0.961 . S
C1955 C1952 1.539 . S
C1955 H1969 0.958 . S
C1955 H1970 0.961 . S
C1955 H1971 0.960 . S
H1956 C1940 0.931 . S
H1957 C1945 0.929 . S
H1958 C1946 0.960 . S
H1959 C1946 0.962 . S
H1960 C1946 0.960 . S
H1961 C1947 0.961 . S
H1962 C1947 0.961 . S
H1963 C1947 0.961 . S
H1964 C1948 0.931 . S
H1965 C1953 0.930 . S
H1966 C1954 0.956 . S
H1967 C1954 0.961 . S
H1968 C1954 0.961 . S
H1969 C1955 0.958 . S
H1970 C1955 0.961 . S
H1971 C1955 0.960 . S
C1972 C1973 1.391 . S
C1972 C1974 1.394 . S
C1972 H1988 0.931 . S
C1973 C1972 1.391 . S
C1973 C1977 1.376 . S
C1974 C1972 1.394 . S
C1974 C1975 1.369 . S
C1974 C1978 1.531 . S
C1975 C1974 1.369 . S
C1975 C1976 1.410 . S
C1975 C1983 1.503 . S
C1976 C1975 1.410 . S
C1976 C1977 1.392 . S
C1976 C1979 1.511 . S
C1977 C1973 1.376 . S
C1977 C1976 1.392 . S
C1977 H1989 0.929 . S
C1978 C1974 1.531 . S
C1978 H1990 0.960 . S
C1978 H1991 0.962 . S
C1978 H1992 0.960 . S
C1979 C1976 1.511 . S
C1979 H1993 0.961 . S
C1979 H1994 0.961 . S
C1979 H1995 0.961 . S
C1980 C1981 1.370 . S
C1980 C1982 1.363 . S
C1980 H1996 0.931 . S
C1981 C1980 1.370 . S
C1981 C1985 1.408 . S
C1982 C1980 1.363 . S
C1982 C1983 1.370 . S
C1982 C1986 1.524 . S
C1983 C1975 1.503 . S
C1983 C1982 1.370 . S
C1983 C1984 1.403 . S
C1984 C1983 1.403 . S
C1984 C1985 1.404 . S
C1984 C1987 1.539 . S
C1985 C1981 1.408 . S
C1985 C1984 1.404 . S
C1985 H1997 0.930 . S
C1986 C1982 1.524 . S
C1986 H1998 0.956 . S
C1986 H1999 0.961 . S
C1986 H2000 0.961 . S
C1987 C1984 1.539 . S
C1987 H2001 0.958 . S
C1987 H2002 0.961 . S
C1987 H2003 0.960 . S
H1988 C1972 0.931 . S
H1989 C1977 0.929 . S
H1990 C1978 0.960 . S
H1991 C1978 0.962 . S
H1992 C1978 0.960 . S
H1993 C1979 0.961 . S
H1994 C1979 0.961 . S
H1995 C1979 0.961 . S
H1996 C1980 0.931 . S
H1997 C1985 0.930 . S
H1998 C1986 0.956 . S
H1999 C1986 0.961 . S
H2000 C1986 0.961 . S
H2001 C1987 0.958 . S
H2002 C1987 0.961 . S
H2003 C1987 0.960 . S
C2004 C2005 1.391 . S
C2004 C2006 1.394 . S
C2004 H2020 0.931 . S
C2005 C2004 1.391 . S
C2005 C2009 1.376 . S
C2006 C2004 1.394 . S
C2006 C2007 1.369 . S
C2006 C2010 1.531 . S
C2007 C2006 1.369 . S
C2007 C2008 1.410 . S
C2007 C2015 1.503 . S
C2008 C2007 1.410 . S
C2008 C2009 1.392 . S
C2008 C2011 1.511 . S
C2009 C2005 1.376 . S
C2009 C2008 1.392 . S
C2009 H2021 0.929 . S
C2010 C2006 1.531 . S
C2010 H2022 0.960 . S
C2010 H2023 0.962 . S
C2010 H2024 0.960 . S
C2011 C2008 1.511 . S
C2011 H2025 0.961 . S
C2011 H2026 0.961 . S
C2011 H2027 0.961 . S
C2012 C2013 1.370 . S
C2012 C2014 1.363 . S
C2012 H2028 0.931 . S
C2013 C2012 1.370 . S
C2013 C2017 1.408 . S
C2014 C2012 1.363 . S
C2014 C2015 1.370 . S
C2014 C2018 1.524 . S
C2015 C2007 1.503 . S
C2015 C2014 1.370 . S
C2015 C2016 1.403 . S
C2016 C2015 1.403 . S
C2016 C2017 1.404 . S
C2016 C2019 1.539 . S
C2017 C2013 1.408 . S
C2017 C2016 1.404 . S
C2017 H2029 0.930 . S
C2018 C2014 1.524 . S
C2018 H2030 0.956 . S
C2018 H2031 0.961 . S
C2018 H2032 0.961 . S
C2019 C2016 1.539 . S
C2019 H2033 0.958 . S
C2019 H2034 0.961 . S
C2019 H2035 0.960 . S
H2020 C2004 0.931 . S
H2021 C2009 0.929 . S
H2022 C2010 0.960 . S
H2023 C2010 0.962 . S
H2024 C2010 0.960 . S
H2025 C2011 0.961 . S
H2026 C2011 0.961 . S
H2027 C2011 0.961 . S
H2028 C2012 0.931 . S
H2029 C2017 0.930 . S
H2030 C2018 0.956 . S
H2031 C2018 0.961 . S
H2032 C2018 0.961 . S
H2033 C2019 0.958 . S
H2034 C2019 0.961 . S
H2035 C2019 0.960 . S
C2036 C2037 1.391 . S
C2036 C2038 1.394 . S
C2036 H2052 0.931 . S
C2037 C2036 1.391 . S
C2037 C2041 1.376 . S
C2038 C2036 1.394 . S
C2038 C2039 1.369 . S
C2038 C2042 1.531 . S
C2039 C2038 1.369 . S
C2039 C2040 1.410 . S
C2039 C2047 1.503 . S
C2040 C2039 1.410 . S
C2040 C2041 1.392 . S
C2040 C2043 1.511 . S
C2041 C2037 1.376 . S
C2041 C2040 1.392 . S
C2041 H2053 0.929 . S
C2042 C2038 1.531 . S
C2042 H2054 0.960 . S
C2042 H2055 0.962 . S
C2042 H2056 0.960 . S
C2043 C2040 1.511 . S
C2043 H2057 0.961 . S
C2043 H2058 0.961 . S
C2043 H2059 0.961 . S
C2044 C2045 1.370 . S
C2044 C2046 1.363 . S
C2044 H2060 0.931 . S
C2045 C2044 1.370 . S
C2045 C2049 1.408 . S
C2046 C2044 1.363 . S
C2046 C2047 1.370 . S
C2046 C2050 1.524 . S
C2047 C2039 1.503 . S
C2047 C2046 1.370 . S
C2047 C2048 1.403 . S
C2048 C2047 1.403 . S
C2048 C2049 1.404 . S
C2048 C2051 1.539 . S
C2049 C2045 1.408 . S
C2049 C2048 1.404 . S
C2049 H2061 0.930 . S
C2050 C2046 1.524 . S
C2050 H2062 0.956 . S
C2050 H2063 0.961 . S
C2050 H2064 0.961 . S
C2051 C2048 1.539 . S
C2051 H2065 0.958 . S
C2051 H2066 0.961 . S
C2051 H2067 0.960 . S
H2052 C2036 0.931 . S
H2053 C2041 0.929 . S
H2054 C2042 0.960 . S
H2055 C2042 0.962 . S
H2056 C2042 0.960 . S
H2057 C2043 0.961 . S
H2058 C2043 0.961 . S
H2059 C2043 0.961 . S
H2060 C2044 0.931 . S
H2061 C2049 0.930 . S
H2062 C2050 0.956 . S
H2063 C2050 0.961 . S
H2064 C2050 0.961 . S
H2065 C2051 0.958 . S
H2066 C2051 0.961 . S
H2067 C2051 0.960 . S
C2068 C2069 1.391 . S
C2068 C2070 1.394 . S
C2068 H2084 0.931 . S
C2069 C2068 1.391 . S
C2069 C2073 1.376 . S
C2070 C2068 1.394 . S
C2070 C2071 1.369 . S
C2070 C2074 1.531 . S
C2071 C2070 1.369 . S
C2071 C2072 1.410 . S
C2071 C2079 1.503 . S
C2072 C2071 1.410 . S
C2072 C2073 1.392 . S
C2072 C2075 1.511 . S
C2073 C2069 1.376 . S
C2073 C2072 1.392 . S
C2073 H2085 0.929 . S
C2074 C2070 1.531 . S
C2074 H2086 0.960 . S
C2074 H2087 0.962 . S
C2074 H2088 0.960 . S
C2075 C2072 1.511 . S
C2075 H2089 0.961 . S
C2075 H2090 0.961 . S
C2075 H2091 0.961 . S
C2076 C2077 1.370 . S
C2076 C2078 1.363 . S
C2076 H2092 0.931 . S
C2077 C2076 1.370 . S
C2077 C2081 1.408 . S
C2078 C2076 1.363 . S
C2078 C2079 1.370 . S
C2078 C2082 1.524 . S
C2079 C2071 1.503 . S
C2079 C2078 1.370 . S
C2079 C2080 1.403 . S
C2080 C2079 1.403 . S
C2080 C2081 1.404 . S
C2080 C2083 1.539 . S
C2081 C2077 1.408 . S
C2081 C2080 1.404 . S
C2081 H2093 0.930 . S
C2082 C2078 1.524 . S
C2082 H2094 0.956 . S
C2082 H2095 0.961 . S
C2082 H2096 0.961 . S
C2083 C2080 1.539 . S
C2083 H2097 0.958 . S
C2083 H2098 0.961 . S
C2083 H2099 0.960 . S
H2084 C2068 0.931 . S
H2085 C2073 0.929 . S
H2086 C2074 0.960 . S
H2087 C2074 0.962 . S
H2088 C2074 0.960 . S
H2089 C2075 0.961 . S
H2090 C2075 0.961 . S
H2091 C2075 0.961 . S
H2092 C2076 0.931 . S
H2093 C2081 0.930 . S
H2094 C2082 0.956 . S
H2095 C2082 0.961 . S
H2096 C2082 0.961 . S
H2097 C2083 0.958 . S
H2098 C2083 0.961 . S
H2099 C2083 0.960 . S
C2100 C2101 1.391 . S
C2100 C2102 1.394 1_556 S
C2100 H2116 0.931 . S
C2101 C2100 1.391 . S
C2101 C2105 1.376 . S
C2102 C2100 1.394 1_554 S
C2102 C2103 1.369 . S
C2102 C2106 1.531 . S
C2103 C2102 1.369 . S
C2103 C2104 1.410 1_554 S
C2103 C2111 1.503 . S
C2104 C2103 1.410 1_556 S
C2104 C2105 1.392 . S
C2104 C2107 1.511 . S
C2105 C2101 1.376 . S
C2105 C2104 1.392 . S
C2105 H2117 0.929 . S
C2106 C2102 1.531 . S
C2106 H2118 0.960 . S
C2106 H2119 0.962 . S
C2106 H2120 0.960 . S
C2107 C2104 1.511 . S
C2107 H2121 0.961 . S
C2107 H2122 0.961 1_556 S
C2107 H2123 0.961 1_556 S
C2108 C2109 1.370 . S
C2108 C2110 1.363 . S
C2108 H2124 0.931 . S
C2109 C2108 1.370 . S
C2109 C2113 1.408 . S
C2110 C2108 1.363 . S
C2110 C2111 1.370 . S
C2110 C2114 1.524 . S
C2111 C2103 1.503 . S
C2111 C2110 1.370 . S
C2111 C2112 1.403 . S
C2112 C2111 1.403 . S
C2112 C2113 1.404 . S
C2112 C2115 1.539 . S
C2113 C2109 1.408 . S
C2113 C2112 1.404 . S
C2113 H2125 0.930 . S
C2114 C2110 1.524 . S
C2114 H2126 0.956 . S
C2114 H2127 0.961 . S
C2114 H2128 0.961 . S
C2115 C2112 1.539 . S
C2115 H2129 0.958 . S
C2115 H2130 0.961 . S
C2115 H2131 0.960 . S
H2116 C2100 0.931 . S
H2117 C2105 0.929 . S
H2118 C2106 0.960 . S
H2119 C2106 0.962 . S
H2120 C2106 0.960 . S
H2121 C2107 0.961 . S
H2122 C2107 0.961 1_554 S
H2123 C2107 0.961 1_554 S
H2124 C2108 0.931 . S
H2125 C2113 0.930 . S
H2126 C2114 0.956 . S
H2127 C2114 0.961 . S
H2128 C2114 0.961 . S
H2129 C2115 0.958 . S
H2130 C2115 0.961 . S
H2131 C2115 0.960 . S
C2132 C2133 1.391 . S
C2132 C2134 1.394 1_556 S
C2132 H2148 0.931 . S
C2133 C2132 1.391 . S
C2133 C2137 1.376 . S
C2134 C2132 1.394 1_554 S
C2134 C2135 1.369 . S
C2134 C2138 1.531 . S
C2135 C2134 1.369 . S
C2135 C2136 1.410 1_554 S
C2135 C2143 1.503 . S
C2136 C2135 1.410 1_556 S
C2136 C2137 1.392 . S
C2136 C2139 1.511 . S
C2137 C2133 1.376 . S
C2137 C2136 1.392 . S
C2137 H2149 0.929 . S
C2138 C2134 1.531 . S
C2138 H2150 0.960 . S
C2138 H2151 0.962 . S
C2138 H2152 0.960 . S
C2139 C2136 1.511 . S
C2139 H2153 0.961 . S
C2139 H2154 0.961 1_556 S
C2139 H2155 0.961 . S
C2140 C2141 1.370 . S
C2140 C2142 1.363 . S
C2140 H2156 0.931 . S
C2141 C2140 1.370 . S
C2141 C2145 1.408 . S
C2142 C2140 1.363 . S
C2142 C2143 1.370 . S
C2142 C2146 1.524 . S
C2143 C2135 1.503 . S
C2143 C2142 1.370 . S
C2143 C2144 1.403 . S
C2144 C2143 1.403 . S
C2144 C2145 1.404 . S
C2144 C2147 1.539 . S
C2145 C2141 1.408 . S
C2145 C2144 1.404 . S
C2145 H2157 0.930 . S
C2146 C2142 1.524 . S
C2146 H2158 0.956 . S
C2146 H2159 0.961 . S
C2146 H2160 0.961 . S
C2147 C2144 1.539 . S
C2147 H2161 0.958 . S
C2147 H2162 0.961 . S
C2147 H2163 0.960 . S
H2148 C2132 0.931 . S
H2149 C2137 0.929 . S
H2150 C2138 0.960 . S
H2151 C2138 0.962 . S
H2152 C2138 0.960 . S
H2153 C2139 0.961 . S
H2154 C2139 0.961 1_554 S
H2155 C2139 0.961 . S
H2156 C2140 0.931 . S
H2157 C2145 0.930 . S
H2158 C2146 0.956 . S
H2159 C2146 0.961 . S
H2160 C2146 0.961 . S
H2161 C2147 0.958 . S
H2162 C2147 0.961 . S
H2163 C2147 0.960 . S
C2164 C2165 1.391 . S
C2164 C2166 1.394 1_556 S
C2164 H2180 0.931 . S
C2165 C2164 1.391 . S
C2165 C2169 1.376 . S
C2166 C2164 1.394 1_554 S
C2166 C2167 1.369 . S
C2166 C2170 1.531 . S
C2167 C2166 1.369 . S
C2167 C2168 1.410 1_554 S
C2167 C2175 1.503 . S
C2168 C2167 1.410 1_556 S
C2168 C2169 1.392 . S
C2168 C2171 1.511 . S
C2169 C2165 1.376 . S
C2169 C2168 1.392 . S
C2169 H2181 0.929 . S
C2170 C2166 1.531 . S
C2170 H2182 0.960 . S
C2170 H2183 0.962 . S
C2170 H2184 0.960 . S
C2171 C2168 1.511 . S
C2171 H2185 0.961 . S
C2171 H2186 0.961 1_556 S
C2171 H2187 0.961 . S
C2172 C2173 1.370 . S
C2172 C2174 1.363 . S
C2172 H2188 0.931 . S
C2173 C2172 1.370 . S
C2173 C2177 1.408 . S
C2174 C2172 1.363 . S
C2174 C2175 1.370 . S
C2174 C2178 1.524 . S
C2175 C2167 1.503 . S
C2175 C2174 1.370 . S
C2175 C2176 1.403 . S
C2176 C2175 1.403 . S
C2176 C2177 1.404 . S
C2176 C2179 1.539 . S
C2177 C2173 1.408 . S
C2177 C2176 1.404 . S
C2177 H2189 0.930 . S
C2178 C2174 1.524 . S
C2178 H2190 0.956 . S
C2178 H2191 0.961 . S
C2178 H2192 0.961 . S
C2179 C2176 1.539 . S
C2179 H2193 0.958 . S
C2179 H2194 0.961 . S
C2179 H2195 0.960 . S
H2180 C2164 0.931 . S
H2181 C2169 0.929 . S
H2182 C2170 0.960 . S
H2183 C2170 0.962 . S
H2184 C2170 0.960 . S
H2185 C2171 0.961 . S
H2186 C2171 0.961 1_554 S
H2187 C2171 0.961 . S
H2188 C2172 0.931 . S
H2189 C2177 0.930 . S
H2190 C2178 0.956 . S
H2191 C2178 0.961 . S
H2192 C2178 0.961 . S
H2193 C2179 0.958 . S
H2194 C2179 0.961 . S
H2195 C2179 0.960 . S
C2196 C2197 1.391 . S
C2196 C2198 1.394 . S
C2196 H2212 0.931 . S
C2197 C2196 1.391 . S
C2197 C2201 1.376 . S
C2198 C2196 1.394 . S
C2198 C2199 1.369 . S
C2198 C2202 1.531 . S
C2199 C2198 1.369 . S
C2199 C2200 1.410 . S
C2199 C2207 1.503 . S
C2200 C2199 1.410 . S
C2200 C2201 1.392 . S
C2200 C2203 1.511 . S
C2201 C2197 1.376 . S
C2201 C2200 1.392 . S
C2201 H2213 0.929 1_554 S
C2202 C2198 1.531 . S
C2202 H2214 0.960 . S
C2202 H2215 0.962 . S
C2202 H2216 0.960 . S
C2203 C2200 1.511 . S
C2203 H2217 0.961 1_554 S
C2203 H2218 0.961 . S
C2203 H2219 0.961 . S
C2204 C2205 1.370 . S
C2204 C2206 1.363 . S
C2204 H2220 0.931 . S
C2205 C2204 1.370 . S
C2205 C2209 1.408 . S
C2206 C2204 1.363 . S
C2206 C2207 1.370 . S
C2206 C2210 1.524 . S
C2207 C2199 1.503 . S
C2207 C2206 1.370 . S
C2207 C2208 1.403 . S
C2208 C2207 1.403 . S
C2208 C2209 1.404 . S
C2208 C2211 1.539 . S
C2209 C2205 1.408 . S
C2209 C2208 1.404 . S
C2209 H2221 0.930 . S
C2210 C2206 1.524 . S
C2210 H2222 0.956 . S
C2210 H2223 0.961 1_554 S
C2210 H2224 0.961 1_554 S
C2211 C2208 1.539 . S
C2211 H2225 0.958 . S
C2211 H2226 0.961 . S
C2211 H2227 0.960 . S
H2212 C2196 0.931 . S
H2213 C2201 0.929 1_556 S
H2214 C2202 0.960 . S
H2215 C2202 0.962 . S
H2216 C2202 0.960 . S
H2217 C2203 0.961 1_556 S
H2218 C2203 0.961 . S
H2219 C2203 0.961 . S
H2220 C2204 0.931 . S
H2221 C2209 0.930 . S
H2222 C2210 0.956 . S
H2223 C2210 0.961 1_556 S
H2224 C2210 0.961 1_556 S
H2225 C2211 0.958 . S
H2226 C2211 0.961 . S
H2227 C2211 0.960 . S
C2228 C2229 1.391 . S
C2228 C2230 1.394 . S
C2228 H2244 0.931 . S
C2229 C2228 1.391 . S
C2229 C2233 1.376 . S
C2230 C2228 1.394 . S
C2230 C2231 1.369 . S
C2230 C2234 1.531 . S
C2231 C2230 1.369 . S
C2231 C2232 1.410 . S
C2231 C2239 1.503 . S
C2232 C2231 1.410 . S
C2232 C2233 1.392 . S
C2232 C2235 1.511 . S
C2233 C2229 1.376 . S
C2233 C2232 1.392 . S
C2233 H2245 0.929 . S
C2234 C2230 1.531 . S
C2234 H2246 0.960 . S
C2234 H2247 0.962 . S
C2234 H2248 0.960 . S
C2235 C2232 1.511 . S
C2235 H2249 0.961 . S
C2235 H2250 0.961 . S
C2235 H2251 0.961 . S
C2236 C2237 1.370 . S
C2236 C2238 1.363 . S
C2236 H2252 0.931 . S
C2237 C2236 1.370 . S
C2237 C2241 1.408 1_554 S
C2238 C2236 1.363 . S
C2238 C2239 1.370 . S
C2238 C2242 1.524 . S
C2239 C2231 1.503 . S
C2239 C2238 1.370 . S
C2239 C2240 1.403 1_554 S
C2240 C2239 1.403 1_556 S
C2240 C2241 1.404 . S
C2240 C2243 1.539 . S
C2241 C2237 1.408 1_556 S
C2241 C2240 1.404 . S
C2241 H2253 0.930 . S
C2242 C2238 1.524 . S
C2242 H2254 0.956 . S
C2242 H2255 0.961 . S
C2242 H2256 0.961 . S
C2243 C2240 1.539 . S
C2243 H2257 0.958 . S
C2243 H2258 0.961 . S
C2243 H2259 0.960 . S
H2244 C2228 0.931 . S
H2245 C2233 0.929 . S
H2246 C2234 0.960 . S
H2247 C2234 0.962 . S
H2248 C2234 0.960 . S
H2249 C2235 0.961 . S
H2250 C2235 0.961 . S
H2251 C2235 0.961 . S
H2252 C2236 0.931 . S
H2253 C2241 0.930 . S
H2254 C2242 0.956 . S
H2255 C2242 0.961 . S
H2256 C2242 0.961 . S
H2257 C2243 0.958 . S
H2258 C2243 0.961 . S
H2259 C2243 0.960 . S
C2260 C2261 1.391 1_556 S
C2260 C2262 1.394 1_556 S
C2260 H2276 0.931 . S
C2261 C2260 1.391 1_554 S
C2261 C2265 1.376 . S
C2262 C2260 1.394 1_554 S
C2262 C2263 1.369 . S
C2262 C2266 1.531 1_554 S
C2263 C2262 1.369 . S
C2263 C2264 1.410 . S
C2263 C2271 1.503 . S
C2264 C2263 1.410 . S
C2264 C2265 1.392 . S
C2264 C2267 1.511 . S
C2265 C2261 1.376 . S
C2265 C2264 1.392 . S
C2265 H2277 0.929 . S
C2266 C2262 1.531 1_556 S
C2266 H2278 0.960 . S
C2266 H2279 0.962 . S
C2266 H2280 0.960 . S
C2267 C2264 1.511 . S
C2267 H2281 0.961 . S
C2267 H2282 0.961 . S
C2267 H2283 0.961 . S
C2268 C2269 1.370 . S
C2268 C2270 1.363 . S
C2268 H2284 0.931 . S
C2269 C2268 1.370 . S
C2269 C2273 1.408 . S
C2270 C2268 1.363 . S
C2270 C2271 1.370 . S
C2270 C2274 1.524 . S
C2271 C2263 1.503 . S
C2271 C2270 1.370 . S
C2271 C2272 1.403 . S
C2272 C2271 1.403 . S
C2272 C2273 1.404 . S
C2272 C2275 1.539 . S
C2273 C2269 1.408 . S
C2273 C2272 1.404 . S
C2273 H2285 0.930 . S
C2274 C2270 1.524 . S
C2274 H2286 0.956 . S
C2274 H2287 0.961 . S
C2274 H2288 0.961 . S
C2275 C2272 1.539 . S
C2275 H2289 0.958 . S
C2275 H2290 0.961 . S
C2275 H2291 0.960 . S
H2276 C2260 0.931 . S
H2277 C2265 0.929 . S
H2278 C2266 0.960 . S
H2279 C2266 0.962 . S
H2280 C2266 0.960 . S
H2281 C2267 0.961 . S
H2282 C2267 0.961 . S
H2283 C2267 0.961 . S
H2284 C2268 0.931 . S
H2285 C2273 0.930 . S
H2286 C2274 0.956 . S
H2287 C2274 0.961 . S
H2288 C2274 0.961 . S
H2289 C2275 0.958 . S
H2290 C2275 0.961 . S
H2291 C2275 0.960 . S
C2292 C2293 1.391 . S
C2292 C2294 1.394 . S
C2292 H2308 0.931 . S
C2293 C2292 1.391 . S
C2293 C2297 1.376 . S
C2294 C2292 1.394 . S
C2294 C2295 1.369 . S
C2294 C2298 1.531 . S
C2295 C2294 1.369 . S
C2295 C2296 1.410 . S
C2295 C2303 1.503 . S
C2296 C2295 1.410 . S
C2296 C2297 1.392 . S
C2296 C2299 1.511 . S
C2297 C2293 1.376 . S
C2297 C2296 1.392 . S
C2297 H2309 0.929 . S
C2298 C2294 1.531 . S
C2298 H2310 0.960 . S
C2298 H2311 0.962 . S
C2298 H2312 0.960 . S
C2299 C2296 1.511 . S
C2299 H2313 0.961 . S
C2299 H2314 0.961 . S
C2299 H2315 0.961 . S
C2300 C2301 1.370 . S
C2300 C2302 1.363 . S
C2300 H2316 0.931 . S
C2301 C2300 1.370 . S
C2301 C2305 1.408 . S
C2302 C2300 1.363 . S
C2302 C2303 1.370 . S
C2302 C2306 1.524 . S
C2303 C2295 1.503 . S
C2303 C2302 1.370 . S
C2303 C2304 1.403 . S
C2304 C2303 1.403 . S
C2304 C2305 1.404 . S
C2304 C2307 1.539 . S
C2305 C2301 1.408 . S
C2305 C2304 1.404 . S
C2305 H2317 0.930 . S
C2306 C2302 1.524 . S
C2306 H2318 0.956 . S
C2306 H2319 0.961 . S
C2306 H2320 0.961 . S
C2307 C2304 1.539 . S
C2307 H2321 0.958 . S
C2307 H2322 0.961 . S
C2307 H2323 0.960 . S
H2308 C2292 0.931 . S
H2309 C2297 0.929 . S
H2310 C2298 0.960 . S
H2311 C2298 0.962 . S
H2312 C2298 0.960 . S
H2313 C2299 0.961 . S
H2314 C2299 0.961 . S
H2315 C2299 0.961 . S
H2316 C2300 0.931 . S
H2317 C2305 0.930 . S
H2318 C2306 0.956 . S
H2319 C2306 0.961 . S
H2320 C2306 0.961 . S
H2321 C2307 0.958 . S
H2322 C2307 0.961 . S
H2323 C2307 0.960 . S
C2324 C2325 1.391 . S
C2324 C2326 1.394 . S
C2324 H2340 0.931 . S
C2325 C2324 1.391 . S
C2325 C2329 1.376 . S
C2326 C2324 1.394 . S
C2326 C2327 1.369 . S
C2326 C2330 1.531 . S
C2327 C2326 1.369 . S
C2327 C2328 1.410 . S
C2327 C2335 1.503 . S
C2328 C2327 1.410 . S
C2328 C2329 1.392 . S
C2328 C2331 1.511 . S
C2329 C2325 1.376 . S
C2329 C2328 1.392 . S
C2329 H2341 0.929 . S
C2330 C2326 1.531 . S
C2330 H2342 0.960 . S
C2330 H2343 0.962 . S
C2330 H2344 0.960 . S
C2331 C2328 1.511 . S
C2331 H2345 0.961 . S
C2331 H2346 0.961 . S
C2331 H2347 0.961 . S
C2332 C2333 1.370 . S
C2332 C2334 1.363 . S
C2332 H2348 0.931 . S
C2333 C2332 1.370 . S
C2333 C2337 1.408 . S
C2334 C2332 1.363 . S
C2334 C2335 1.370 . S
C2334 C2338 1.524 . S
C2335 C2327 1.503 . S
C2335 C2334 1.370 . S
C2335 C2336 1.403 . S
C2336 C2335 1.403 . S
C2336 C2337 1.404 . S
C2336 C2339 1.539 . S
C2337 C2333 1.408 . S
C2337 C2336 1.404 . S
C2337 H2349 0.930 . S
C2338 C2334 1.524 . S
C2338 H2350 0.956 . S
C2338 H2351 0.961 . S
C2338 H2352 0.961 . S
C2339 C2336 1.539 . S
C2339 H2353 0.958 . S
C2339 H2354 0.961 . S
C2339 H2355 0.960 . S
H2340 C2324 0.931 . S
H2341 C2329 0.929 . S
H2342 C2330 0.960 . S
H2343 C2330 0.962 . S
H2344 C2330 0.960 . S
H2345 C2331 0.961 . S
H2346 C2331 0.961 . S
H2347 C2331 0.961 . S
H2348 C2332 0.931 . S
H2349 C2337 0.930 . S
H2350 C2338 0.956 . S
H2351 C2338 0.961 . S
H2352 C2338 0.961 . S
H2353 C2339 0.958 . S
H2354 C2339 0.961 . S
H2355 C2339 0.960 . S
C2356 C2357 1.391 . S
C2356 C2358 1.394 . S
C2356 H2372 0.931 . S
C2357 C2356 1.391 . S
C2357 C2361 1.376 . S
C2358 C2356 1.394 . S
C2358 C2359 1.369 . S
C2358 C2362 1.531 . S
C2359 C2358 1.369 . S
C2359 C2360 1.410 . S
C2359 C2367 1.503 . S
C2360 C2359 1.410 . S
C2360 C2361 1.392 . S
C2360 C2363 1.511 . S
C2361 C2357 1.376 . S
C2361 C2360 1.392 . S
C2361 H2373 0.929 . S
C2362 C2358 1.531 . S
C2362 H2374 0.960 . S
C2362 H2375 0.962 . S
C2362 H2376 0.960 . S
C2363 C2360 1.511 . S
C2363 H2377 0.961 . S
C2363 H2378 0.961 . S
C2363 H2379 0.961 . S
C2364 C2365 1.370 . S
C2364 C2366 1.363 . S
C2364 H2380 0.931 . S
C2365 C2364 1.370 . S
C2365 C2369 1.408 . S
C2366 C2364 1.363 . S
C2366 C2367 1.370 . S
C2366 C2370 1.524 . S
C2367 C2359 1.503 . S
C2367 C2366 1.370 . S
C2367 C2368 1.403 . S
C2368 C2367 1.403 . S
C2368 C2369 1.404 . S
C2368 C2371 1.539 . S
C2369 C2365 1.408 . S
C2369 C2368 1.404 . S
C2369 H2381 0.930 . S
C2370 C2366 1.524 . S
C2370 H2382 0.956 . S
C2370 H2383 0.961 . S
C2370 H2384 0.961 . S
C2371 C2368 1.539 . S
C2371 H2385 0.958 . S
C2371 H2386 0.961 . S
C2371 H2387 0.960 . S
H2372 C2356 0.931 . S
H2373 C2361 0.929 . S
H2374 C2362 0.960 . S
H2375 C2362 0.962 . S
H2376 C2362 0.960 . S
H2377 C2363 0.961 . S
H2378 C2363 0.961 . S
H2379 C2363 0.961 . S
H2380 C2364 0.931 . S
H2381 C2369 0.930 . S
H2382 C2370 0.956 . S
H2383 C2370 0.961 . S
H2384 C2370 0.961 . S
H2385 C2371 0.958 . S
H2386 C2371 0.961 . S
H2387 C2371 0.960 . S
C2388 C2389 1.391 . S
C2388 C2390 1.394 . S
C2388 H2404 0.931 . S
C2389 C2388 1.391 . S
C2389 C2393 1.376 . S
C2390 C2388 1.394 . S
C2390 C2391 1.369 . S
C2390 C2394 1.531 . S
C2391 C2390 1.369 . S
C2391 C2392 1.410 . S
C2391 C2399 1.503 . S
C2392 C2391 1.410 . S
C2392 C2393 1.392 . S
C2392 C2395 1.511 . S
C2393 C2389 1.376 . S
C2393 C2392 1.392 . S
C2393 H2405 0.929 . S
C2394 C2390 1.531 . S
C2394 H2406 0.960 . S
C2394 H2407 0.962 . S
C2394 H2408 0.960 . S
C2395 C2392 1.511 . S
C2395 H2409 0.961 . S
C2395 H2410 0.961 . S
C2395 H2411 0.961 . S
C2396 C2397 1.370 1_554 S
C2396 C2398 1.363 1_554 S
C2396 H2412 0.931 . S
C2397 C2396 1.370 1_556 S
C2397 C2401 1.408 . S
C2398 C2396 1.363 1_556 S
C2398 C2399 1.370 . S
C2398 C2402 1.524 1_556 S
C2399 C2391 1.503 . S
C2399 C2398 1.370 . S
C2399 C2400 1.403 . S
C2400 C2399 1.403 . S
C2400 C2401 1.404 . S
C2400 C2403 1.539 . S
C2401 C2397 1.408 . S
C2401 C2400 1.404 . S
C2401 H2413 0.930 . S
C2402 C2398 1.524 1_554 S
C2402 H2414 0.956 . S
C2402 H2415 0.961 . S
C2402 H2416 0.961 . S
C2403 C2400 1.539 . S
C2403 H2417 0.958 . S
C2403 H2418 0.961 . S
C2403 H2419 0.960 . S
H2404 C2388 0.931 . S
H2405 C2393 0.929 . S
H2406 C2394 0.960 . S
H2407 C2394 0.962 . S
H2408 C2394 0.960 . S
H2409 C2395 0.961 . S
H2410 C2395 0.961 . S
H2411 C2395 0.961 . S
H2412 C2396 0.931 . S
H2413 C2401 0.930 . S
H2414 C2402 0.956 . S
H2415 C2402 0.961 . S
H2416 C2402 0.961 . S
H2417 C2403 0.958 . S
H2418 C2403 0.961 . S
H2419 C2403 0.960 . S
C2420 C2421 1.391 1_554 S
C2420 C2422 1.394 1_554 S
C2420 H2436 0.931 . S
C2421 C2420 1.391 1_556 S
C2421 C2425 1.376 . S
C2422 C2420 1.394 1_556 S
C2422 C2423 1.369 . S
C2422 C2426 1.531 1_556 S
C2423 C2422 1.369 . S
C2423 C2424 1.410 . S
C2423 C2431 1.503 . S
C2424 C2423 1.410 . S
C2424 C2425 1.392 . S
C2424 C2427 1.511 . S
C2425 C2421 1.376 . S
C2425 C2424 1.392 . S
C2425 H2437 0.929 . S
C2426 C2422 1.531 1_554 S
C2426 H2438 0.960 . S
C2426 H2439 0.962 . S
C2426 H2440 0.960 . S
C2427 C2424 1.511 . S
C2427 H2441 0.961 . S
C2427 H2442 0.961 . S
C2427 H2443 0.961 . S
C2428 C2429 1.370 . S
C2428 C2430 1.363 . S
C2428 H2444 0.931 . S
C2429 C2428 1.370 . S
C2429 C2433 1.408 . S
C2430 C2428 1.363 . S
C2430 C2431 1.370 . S
C2430 C2434 1.524 . S
C2431 C2423 1.503 . S
C2431 C2430 1.370 . S
C2431 C2432 1.403 . S
C2432 C2431 1.403 . S
C2432 C2433 1.404 . S
C2432 C2435 1.539 . S
C2433 C2429 1.408 . S
C2433 C2432 1.404 . S
C2433 H2445 0.930 . S
C2434 C2430 1.524 . S
C2434 H2446 0.956 . S
C2434 H2447 0.961 . S
C2434 H2448 0.961 . S
C2435 C2432 1.539 . S
C2435 H2449 0.958 . S
C2435 H2450 0.961 . S
C2435 H2451 0.960 . S
H2436 C2420 0.931 . S
H2437 C2425 0.929 . S
H2438 C2426 0.960 . S
H2439 C2426 0.962 . S
H2440 C2426 0.960 . S
H2441 C2427 0.961 . S
H2442 C2427 0.961 . S
H2443 C2427 0.961 . S
H2444 C2428 0.931 . S
H2445 C2433 0.930 . S
H2446 C2434 0.956 . S
H2447 C2434 0.961 . S
H2448 C2434 0.961 . S
H2449 C2435 0.958 . S
H2450 C2435 0.961 . S
H2451 C2435 0.960 . S
C2452 C2453 1.391 . S
C2452 C2454 1.394 . S
C2452 H2468 0.931 . S
C2453 C2452 1.391 . S
C2453 C2457 1.376 . S
C2454 C2452 1.394 . S
C2454 C2455 1.369 . S
C2454 C2458 1.531 1_556 S
C2455 C2454 1.369 . S
C2455 C2456 1.410 . S
C2455 C2463 1.503 . S
C2456 C2455 1.410 . S
C2456 C2457 1.392 . S
C2456 C2459 1.511 . S
C2457 C2453 1.376 . S
C2457 C2456 1.392 . S
C2457 H2469 0.929 . S
C2458 C2454 1.531 1_554 S
C2458 H2470 0.960 . S
C2458 H2471 0.962 . S
C2458 H2472 0.960 . S
C2459 C2456 1.511 . S
C2459 H2473 0.961 . S
C2459 H2474 0.961 . S
C2459 H2475 0.961 . S
C2460 C2461 1.370 . S
C2460 C2462 1.363 . S
C2460 H2476 0.931 . S
C2461 C2460 1.370 . S
C2461 C2465 1.408 . S
C2462 C2460 1.363 . S
C2462 C2463 1.370 . S
C2462 C2466 1.524 . S
C2463 C2455 1.503 . S
C2463 C2462 1.370 . S
C2463 C2464 1.403 . S
C2464 C2463 1.403 . S
C2464 C2465 1.404 . S
C2464 C2467 1.539 . S
C2465 C2461 1.408 . S
C2465 C2464 1.404 . S
C2465 H2477 0.930 . S
C2466 C2462 1.524 . S
C2466 H2478 0.956 . S
C2466 H2479 0.961 . S
C2466 H2480 0.961 . S
C2467 C2464 1.539 . S
C2467 H2481 0.958 . S
C2467 H2482 0.961 . S
C2467 H2483 0.960 . S
H2468 C2452 0.931 . S
H2469 C2457 0.929 . S
H2470 C2458 0.960 . S
H2471 C2458 0.962 . S
H2472 C2458 0.960 . S
H2473 C2459 0.961 . S
H2474 C2459 0.961 . S
H2475 C2459 0.961 . S
H2476 C2460 0.931 . S
H2477 C2465 0.930 . S
H2478 C2466 0.956 . S
H2479 C2466 0.961 . S
H2480 C2466 0.961 . S
H2481 C2467 0.958 . S
H2482 C2467 0.961 . S
H2483 C2467 0.960 . S
C2484 C2485 1.391 . S
C2484 C2486 1.394 . S
C2484 H2500 0.931 . S
C2485 C2484 1.391 . S
C2485 C2489 1.376 . S
C2486 C2484 1.394 . S
C2486 C2487 1.369 . S
C2486 C2490 1.531 . S
C2487 C2486 1.369 . S
C2487 C2488 1.410 . S
C2487 C2495 1.503 . S
C2488 C2487 1.410 . S
C2488 C2489 1.392 . S
C2488 C2491 1.511 . S
C2489 C2485 1.376 . S
C2489 C2488 1.392 . S
C2489 H2501 0.929 . S
C2490 C2486 1.531 . S
C2490 H2502 0.960 . S
C2490 H2503 0.962 . S
C2490 H2504 0.960 . S
C2491 C2488 1.511 . S
C2491 H2505 0.961 . S
C2491 H2506 0.961 . S
C2491 H2507 0.961 . S
C2492 C2493 1.370 . S
C2492 C2494 1.363 . S
C2492 H2508 0.931 . S
C2493 C2492 1.370 . S
C2493 C2497 1.408 . S
C2494 C2492 1.363 . S
C2494 C2495 1.370 . S
C2494 C2498 1.524 . S
C2495 C2487 1.503 . S
C2495 C2494 1.370 . S
C2495 C2496 1.403 . S
C2496 C2495 1.403 . S
C2496 C2497 1.404 . S
C2496 C2499 1.539 . S
C2497 C2493 1.408 . S
C2497 C2496 1.404 . S
C2497 H2509 0.930 . S
C2498 C2494 1.524 . S
C2498 H2510 0.956 . S
C2498 H2511 0.961 . S
C2498 H2512 0.961 . S
C2499 C2496 1.539 . S
C2499 H2513 0.958 . S
C2499 H2514 0.961 . S
C2499 H2515 0.960 . S
H2500 C2484 0.931 . S
H2501 C2489 0.929 . S
H2502 C2490 0.960 . S
H2503 C2490 0.962 . S
H2504 C2490 0.960 . S
H2505 C2491 0.961 . S
H2506 C2491 0.961 . S
H2507 C2491 0.961 . S
H2508 C2492 0.931 . S
H2509 C2497 0.930 . S
H2510 C2498 0.956 . S
H2511 C2498 0.961 . S
H2512 C2498 0.961 . S
H2513 C2499 0.958 . S
H2514 C2499 0.961 . S
H2515 C2499 0.960 . S
C2516 C2517 1.391 . S
C2516 C2518 1.394 . S
C2516 H2532 0.931 . S
C2517 C2516 1.391 . S
C2517 C2521 1.376 . S
C2518 C2516 1.394 . S
C2518 C2519 1.369 . S
C2518 C2522 1.531 . S
C2519 C2518 1.369 . S
C2519 C2520 1.410 . S
C2519 C2527 1.503 . S
C2520 C2519 1.410 . S
C2520 C2521 1.392 . S
C2520 C2523 1.511 . S
C2521 C2517 1.376 . S
C2521 C2520 1.392 . S
C2521 H2533 0.929 . S
C2522 C2518 1.531 . S
C2522 H2534 0.960 . S
C2522 H2535 0.962 . S
C2522 H2536 0.960 . S
C2523 C2520 1.511 . S
C2523 H2537 0.961 . S
C2523 H2538 0.961 . S
C2523 H2539 0.961 . S
C2524 C2525 1.370 . S
C2524 C2526 1.363 . S
C2524 H2540 0.931 . S
C2525 C2524 1.370 . S
C2525 C2529 1.408 . S
C2526 C2524 1.363 . S
C2526 C2527 1.370 . S
C2526 C2530 1.524 . S
C2527 C2519 1.503 . S
C2527 C2526 1.370 . S
C2527 C2528 1.403 . S
C2528 C2527 1.403 . S
C2528 C2529 1.404 . S
C2528 C2531 1.539 . S
C2529 C2525 1.408 . S
C2529 C2528 1.404 . S
C2529 H2541 0.930 . S
C2530 C2526 1.524 . S
C2530 H2542 0.956 . S
C2530 H2543 0.961 . S
C2530 H2544 0.961 . S
C2531 C2528 1.539 . S
C2531 H2545 0.958 . S
C2531 H2546 0.961 . S
C2531 H2547 0.960 . S
H2532 C2516 0.931 . S
H2533 C2521 0.929 . S
H2534 C2522 0.960 . S
H2535 C2522 0.962 . S
H2536 C2522 0.960 . S
H2537 C2523 0.961 . S
H2538 C2523 0.961 . S
H2539 C2523 0.961 . S
H2540 C2524 0.931 . S
H2541 C2529 0.930 . S
H2542 C2530 0.956 . S
H2543 C2530 0.961 . S
H2544 C2530 0.961 . S
H2545 C2531 0.958 . S
H2546 C2531 0.961 . S
H2547 C2531 0.960 . S
C2548 C2549 1.391 . S
C2548 C2550 1.394 . S
C2548 H2564 0.931 . S
C2549 C2548 1.391 . S
C2549 C2553 1.376 . S
C2550 C2548 1.394 . S
C2550 C2551 1.369 . S
C2550 C2554 1.531 . S
C2551 C2550 1.369 . S
C2551 C2552 1.410 . S
C2551 C2559 1.503 . S
C2552 C2551 1.410 . S
C2552 C2553 1.392 . S
C2552 C2555 1.511 . S
C2553 C2549 1.376 . S
C2553 C2552 1.392 . S
C2553 H2565 0.929 . S
C2554 C2550 1.531 . S
C2554 H2566 0.960 . S
C2554 H2567 0.962 . S
C2554 H2568 0.960 . S
C2555 C2552 1.511 . S
C2555 H2569 0.961 . S
C2555 H2570 0.961 . S
C2555 H2571 0.961 . S
C2556 C2557 1.370 . S
C2556 C2558 1.363 . S
C2556 H2572 0.931 . S
C2557 C2556 1.370 . S
C2557 C2561 1.408 . S
C2558 C2556 1.363 . S
C2558 C2559 1.370 . S
C2558 C2562 1.524 . S
C2559 C2551 1.503 . S
C2559 C2558 1.370 . S
C2559 C2560 1.403 . S
C2560 C2559 1.403 . S
C2560 C2561 1.404 . S
C2560 C2563 1.539 . S
C2561 C2557 1.408 . S
C2561 C2560 1.404 . S
C2561 H2573 0.930 . S
C2562 C2558 1.524 . S
C2562 H2574 0.956 . S
C2562 H2575 0.961 . S
C2562 H2576 0.961 . S
C2563 C2560 1.539 . S
C2563 H2577 0.958 . S
C2563 H2578 0.961 . S
C2563 H2579 0.960 . S
H2564 C2548 0.931 . S
H2565 C2553 0.929 . S
H2566 C2554 0.960 . S
H2567 C2554 0.962 . S
H2568 C2554 0.960 . S
H2569 C2555 0.961 . S
H2570 C2555 0.961 . S
H2571 C2555 0.961 . S
H2572 C2556 0.931 . S
H2573 C2561 0.930 . S
H2574 C2562 0.956 . S
H2575 C2562 0.961 . S
H2576 C2562 0.961 . S
H2577 C2563 0.958 . S
H2578 C2563 0.961 . S
H2579 C2563 0.960 . S
C2580 C2581 1.391 . S
C2580 C2582 1.394 . S
C2580 H2596 0.931 . S
C2581 C2580 1.391 . S
C2581 C2585 1.376 . S
C2582 C2580 1.394 . S
C2582 C2583 1.369 . S
C2582 C2586 1.531 . S
C2583 C2582 1.369 . S
C2583 C2584 1.410 . S
C2583 C2591 1.503 1_455 S
C2584 C2583 1.410 . S
C2584 C2585 1.392 . S
C2584 C2587 1.511 . S
C2585 C2581 1.376 . S
C2585 C2584 1.392 . S
C2585 H2597 0.929 . S
C2586 C2582 1.531 . S
C2586 H2598 0.960 1_455 S
C2586 H2599 0.990 1_455 S
C2586 H2600 0.960 . S
C2587 C2584 1.511 . S
C2587 H2601 0.961 . S
C2587 H2602 0.961 . S
C2587 H2603 0.961 . S
C2588 C2589 1.370 . S
C2588 C2590 1.363 . S
C2588 H2604 0.931 . S
C2589 C2588 1.370 . S
C2589 C2593 1.408 . S
C2590 C2588 1.363 . S
C2590 C2591 1.370 . S
C2590 C2594 1.524 . S
C2591 C2583 1.503 1_655 S
C2591 C2590 1.370 . S
C2591 C2592 1.403 . S
C2592 C2591 1.403 . S
C2592 C2593 1.404 . S
C2592 C2595 1.539 . S
C2593 C2589 1.408 . S
C2593 C2592 1.404 . S
C2593 H2605 0.930 . S
C2594 C2590 1.524 . S
C2594 H2606 0.951 1_655 S
C2594 H2607 0.961 1_655 S
C2594 H2608 0.961 . S
C2595 C2592 1.539 . S
C2595 H2609 0.958 . S
C2595 H2610 0.961 . S
C2595 H2611 0.960 . S
H2596 C2580 0.931 . S
H2597 C2585 0.929 . S
H2598 C2586 0.960 1_655 S
H2599 C2586 0.990 1_655 S
H2600 C2586 0.960 . S
H2601 C2587 0.961 . S
H2602 C2587 0.961 . S
H2603 C2587 0.961 . S
H2604 C2588 0.931 . S
H2605 C2593 0.930 . S
H2606 C2594 0.951 1_455 S
H2607 C2594 0.961 1_455 S
H2608 C2594 0.961 . S
H2609 C2595 0.958 . S
H2610 C2595 0.961 . S
H2611 C2595 0.960 . S
C2612 C2613 1.391 . S
C2612 C2614 1.394 . S
C2612 H2628 0.931 . S
C2613 C2612 1.391 . S
C2613 C2617 1.376 . S
C2614 C2612 1.394 . S
C2614 C2615 1.369 . S
C2614 C2618 1.531 . S
C2615 C2614 1.369 . S
C2615 C2616 1.410 . S
C2615 C2623 1.503 . S
C2616 C2615 1.410 . S
C2616 C2617 1.392 . S
C2616 C2619 1.511 . S
C2617 C2613 1.376 . S
C2617 C2616 1.392 . S
C2617 H2629 0.929 . S
C2618 C2614 1.531 . S
C2618 H2630 0.960 . S
C2618 H2631 0.962 . S
C2618 H2632 0.960 . S
C2619 C2616 1.511 . S
C2619 H2633 0.961 . S
C2619 H2634 0.961 . S
C2619 H2635 0.961 . S
C2620 C2621 1.370 . S
C2620 C2622 1.363 . S
C2620 H2636 0.931 . S
C2621 C2620 1.370 . S
C2621 C2625 1.408 . S
C2622 C2620 1.363 . S
C2622 C2623 1.370 . S
C2622 C2626 1.524 . S
C2623 C2615 1.503 . S
C2623 C2622 1.370 . S
C2623 C2624 1.403 . S
C2624 C2623 1.403 . S
C2624 C2625 1.404 . S
C2624 C2627 1.539 . S
C2625 C2621 1.408 . S
C2625 C2624 1.404 . S
C2625 H2637 0.930 . S
C2626 C2622 1.524 . S
C2626 H2638 0.956 . S
C2626 H2639 0.961 . S
C2626 H2640 0.961 . S
C2627 C2624 1.539 . S
C2627 H2641 0.958 . S
C2627 H2642 0.961 . S
C2627 H2643 0.960 . S
H2628 C2612 0.931 . S
H2629 C2617 0.929 . S
H2630 C2618 0.960 . S
H2631 C2618 0.962 . S
H2632 C2618 0.960 . S
H2633 C2619 0.961 . S
H2634 C2619 0.961 . S
H2635 C2619 0.961 . S
H2636 C2620 0.931 . S
H2637 C2625 0.930 . S
H2638 C2626 0.956 . S
H2639 C2626 0.961 . S
H2640 C2626 0.961 . S
H2641 C2627 0.958 . S
H2642 C2627 0.961 . S
H2643 C2627 0.960 . S
C2644 C2645 1.391 . S
C2644 C2646 1.394 . S
C2644 H2660 0.931 . S
C2645 C2644 1.391 . S
C2645 C2649 1.376 . S
C2646 C2644 1.394 . S
C2646 C2647 1.369 . S
C2646 C2650 1.531 . S
C2647 C2646 1.369 . S
C2647 C2648 1.410 . S
C2647 C2655 1.503 1_565 S
C2648 C2647 1.410 . S
C2648 C2649 1.392 . S
C2648 C2651 1.511 . S
C2649 C2645 1.376 . S
C2649 C2648 1.392 . S
C2649 H2661 0.929 . S
C2650 C2646 1.531 . S
C2650 H2662 0.960 1_565 S
C2650 H2663 0.962 . S
C2650 H2664 0.960 . S
C2651 C2648 1.511 . S
C2651 H2665 0.961 . S
C2651 H2666 0.951 1_565 S
C2651 H2667 0.961 . S
C2652 C2653 1.370 . S
C2652 C2654 1.363 . S
C2652 H2668 0.931 . S
C2653 C2652 1.370 . S
C2653 C2657 1.408 . S
C2654 C2652 1.363 . S
C2654 C2655 1.370 . S
C2654 C2658 1.528 1_545 S
C2655 C2647 1.503 1_545 S
C2655 C2654 1.370 . S
C2655 C2656 1.403 . S
C2656 C2655 1.403 . S
C2656 C2657 1.404 . S
C2656 C2659 1.539 . S
C2657 C2653 1.408 . S
C2657 C2656 1.404 . S
C2657 H2669 0.930 . S
C2658 C2654 1.528 1_565 S
C2658 H2670 0.956 . S
C2658 H2671 0.954 . S
C2658 H2672 0.963 1_565 S
C2659 C2656 1.539 . S
C2659 H2673 0.958 . S
C2659 H2674 0.961 . S
C2659 H2675 0.960 . S
H2660 C2644 0.931 . S
H2661 C2649 0.929 . S
H2662 C2650 0.960 1_545 S
H2663 C2650 0.962 . S
H2664 C2650 0.960 . S
H2665 C2651 0.961 . S
H2666 C2651 0.951 1_545 S
H2667 C2651 0.961 . S
H2668 C2652 0.931 . S
H2669 C2657 0.930 . S
H2670 C2658 0.956 . S
H2671 C2658 0.954 . S
H2672 C2658 0.963 1_545 S
H2673 C2659 0.958 . S
H2674 C2659 0.961 . S
H2675 C2659 0.960 . S
C2676 C2677 1.391 . S
C2676 C2678 1.394 . S
C2676 H2692 0.931 . S
C2677 C2676 1.391 . S
C2677 C2681 1.376 . S
C2678 C2676 1.394 . S
C2678 C2679 1.369 . S
C2678 C2682 1.531 . S
C2679 C2678 1.369 . S
C2679 C2680 1.410 . S
C2679 C2687 1.503 1_545 S
C2680 C2679 1.410 . S
C2680 C2681 1.392 . S
C2680 C2683 1.511 . S
C2681 C2677 1.376 . S
C2681 C2680 1.392 . S
C2681 H2693 0.929 . S
C2682 C2678 1.531 . S
C2682 H2694 0.960 1_545 S
C2682 H2695 0.962 1_545 S
C2682 H2696 0.960 . S
C2683 C2680 1.511 . S
C2683 H2697 0.961 . S
C2683 H2698 0.961 . S
C2683 H2699 0.961 . S
C2684 C2685 1.370 . S
C2684 C2686 1.363 . S
C2684 H2700 0.931 . S
C2685 C2684 1.370 . S
C2685 C2689 1.408 . S
C2686 C2684 1.363 . S
C2686 C2687 1.370 . S
C2686 C2690 1.524 . S
C2687 C2679 1.503 1_565 S
C2687 C2686 1.370 . S
C2687 C2688 1.403 . S
C2688 C2687 1.403 . S
C2688 C2689 1.404 . S
C2688 C2691 1.539 . S
C2689 C2685 1.408 . S
C2689 C2688 1.404 . S
C2689 H2701 0.930 . S
C2690 C2686 1.524 . S
C2690 H2702 0.956 . S
C2690 H2703 0.968 . S
C2690 H2704 0.961 . S
C2691 C2688 1.539 . S
C2691 H2705 0.958 . S
C2691 H2706 0.961 . S
C2691 H2707 0.960 1_565 S
H2692 C2676 0.931 . S
H2693 C2681 0.929 . S
H2694 C2682 0.960 1_565 S
H2695 C2682 0.962 1_565 S
H2696 C2682 0.960 . S
H2697 C2683 0.961 . S
H2698 C2683 0.961 . S
H2699 C2683 0.961 . S
H2700 C2684 0.931 . S
H2701 C2689 0.930 . S
H2702 C2690 0.956 . S
H2703 C2690 0.968 . S
H2704 C2690 0.961 . S
H2705 C2691 0.958 . S
H2706 C2691 0.961 . S
H2707 C2691 0.960 1_545 S
C2708 C2709 1.391 . S
C2708 C2710 1.394 . S
C2708 H2724 0.931 . S
C2709 C2708 1.391 . S
C2709 C2713 1.376 . S
C2710 C2708 1.394 . S
C2710 C2711 1.369 . S
C2710 C2714 1.531 . S
C2711 C2710 1.369 . S
C2711 C2712 1.410 . S
C2711 C2719 1.503 1_455 S
C2712 C2711 1.410 . S
C2712 C2713 1.392 . S
C2712 C2715 1.511 . S
C2713 C2709 1.376 . S
C2713 C2712 1.392 . S
C2713 H2725 0.929 . S
C2714 C2710 1.531 . S
C2714 H2726 0.960 . S
C2714 H2727 0.962 . S
C2714 H2728 0.960 . S
C2715 C2712 1.511 . S
C2715 H2729 0.961 . S
C2715 H2730 0.961 1_455 S
C2715 H2731 0.961 . S
C2716 C2717 1.370 . S
C2716 C2718 1.363 . S
C2716 H2732 0.931 . S
C2717 C2716 1.370 . S
C2717 C2721 1.408 . S
C2718 C2716 1.363 . S
C2718 C2719 1.370 . S
C2718 C2722 1.524 . S
C2719 C2711 1.503 1_655 S
C2719 C2718 1.370 . S
C2719 C2720 1.403 . S
C2720 C2719 1.403 . S
C2720 C2721 1.404 . S
C2720 C2723 1.539 . S
C2721 C2717 1.408 . S
C2721 C2720 1.404 . S
C2721 H2733 0.930 . S
C2722 C2718 1.524 . S
C2722 H2734 0.956 . S
C2722 H2735 0.961 . S
C2722 H2736 0.961 . S
C2723 C2720 1.539 . S
C2723 H2737 0.963 1_655 S
C2723 H2738 0.961 . S
C2723 H2739 0.960 1_655 S
H2724 C2708 0.931 . S
H2725 C2713 0.929 . S
H2726 C2714 0.960 . S
H2727 C2714 0.962 . S
H2728 C2714 0.960 . S
H2729 C2715 0.961 . S
H2730 C2715 0.961 1_655 S
H2731 C2715 0.961 . S
H2732 C2716 0.931 . S
H2733 C2721 0.930 . S
H2734 C2722 0.956 . S
H2735 C2722 0.961 . S
H2736 C2722 0.961 . S
H2737 C2723 0.963 1_455 S
H2738 C2723 0.961 . S
H2739 C2723 0.960 1_455 S
C2740 C2741 1.391 . S
C2740 C2742 1.394 . S
C2740 H2756 0.931 . S
C2741 C2740 1.391 . S
C2741 C2745 1.376 . S
C2742 C2740 1.394 . S
C2742 C2743 1.369 . S
C2742 C2746 1.531 . S
C2743 C2742 1.369 . S
C2743 C2744 1.410 . S
C2743 C2751 1.503 . S
C2744 C2743 1.410 . S
C2744 C2745 1.392 . S
C2744 C2747 1.511 . S
C2745 C2741 1.376 . S
C2745 C2744 1.392 . S
C2745 H2757 0.929 . S
C2746 C2742 1.531 . S
C2746 H2758 0.960 . S
C2746 H2759 0.962 . S
C2746 H2760 0.960 . S
C2747 C2744 1.511 . S
C2747 H2761 0.961 . S
C2747 H2762 0.961 . S
C2747 H2763 0.961 . S
C2748 C2749 1.370 . S
C2748 C2750 1.363 . S
C2748 H2764 0.931 . S
C2749 C2748 1.370 . S
C2749 C2753 1.408 . S
C2750 C2748 1.363 . S
C2750 C2751 1.370 . S
C2750 C2754 1.524 . S
C2751 C2743 1.503 . S
C2751 C2750 1.370 . S
C2751 C2752 1.403 . S
C2752 C2751 1.403 . S
C2752 C2753 1.404 . S
C2752 C2755 1.539 . S
C2753 C2749 1.408 . S
C2753 C2752 1.404 . S
C2753 H2765 0.930 . S
C2754 C2750 1.524 . S
C2754 H2766 0.956 . S
C2754 H2767 0.961 . S
C2754 H2768 0.961 . S
C2755 C2752 1.539 . S
C2755 H2769 0.958 . S
C2755 H2770 0.961 . S
C2755 H2771 0.960 . S
H2756 C2740 0.931 . S
H2757 C2745 0.929 . S
H2758 C2746 0.960 . S
H2759 C2746 0.962 . S
H2760 C2746 0.960 . S
H2761 C2747 0.961 . S
H2762 C2747 0.961 . S
H2763 C2747 0.961 . S
H2764 C2748 0.931 . S
H2765 C2753 0.930 . S
H2766 C2754 0.956 . S
H2767 C2754 0.961 . S
H2768 C2754 0.961 . S
H2769 C2755 0.958 . S
H2770 C2755 0.961 . S
H2771 C2755 0.960 . S
C469 C39 1.202 . S
C477 C0 1.229 . S
C501 C52 1.219 . S
C509 C13 1.222 . S
C533 C65 1.237 . S
C541 C26 1.225 . S
C565 C78 1.201 . S
C573 C117 1.225 . S
C597 C91 1.227 . S
C605 C130 1.241 . S
C629 C143 1.232 . S
C637 C104 1.241 . S
C661 C156 1.210 . S
C669 C195 1.220 . S
C693 C169 1.216 . S
C701 C208 1.222 . S
C725 C182 1.231 . S
C733 C221 1.225 . S
C757 C234 1.175 . S
C765 C273 1.195 . S
C789 C286 1.179 . S
C797 C247 1.197 . S
C821 C260 1.232 . S
C829 C299 1.218 . S
C853 C312 1.208 . S
C861 C351 1.217 . S
C885 C325 1.191 . S
C893 C364 1.211 . S
C917 C377 1.178 . S
C925 C338 1.192 . S
C949 C429 1.228 . S
C957 C390 1.225 . S
C981 C442 1.181 . S
C989 C403 1.206 . S
C1013 C455 1.239 . S
C1021 C416 1.223 . S
C1045 C151 1.297 . S
C1053 C5 1.256 . S
C1077 C18 1.275 . S
C1085 C125 1.299 . S
C1109 C31 1.198 . S
C1117 C138 1.303 . S
C1141 C99 1.285 . S
C1149 C44 1.265 . S
C1173 C57 1.293 . S
C1181 C112 1.310 . S
C1205 C86 1.287 . S
C1213 C70 1.266 . S
C1237 C83 1.228 . S
C1245 C73 1.285 . S
C1269 C96 1.240 . S
C1277 C47 1.304 . S
C1301 C60 1.265 . S
C1309 C109 1.242 . S
C1333 C21 1.283 . S
C1341 C122 1.247 . S
C1365 C34 1.291 . S
C1373 C135 1.239 . S
C1397 C148 1.291 . S
C1405 C8 1.307 . S
C1429 C161 1.167 . S
C1437 C307 1.235 . S
C1461 C281 1.243 . S
C1469 C174 1.174 . S
C1493 C294 1.271 . S
C1501 C187 1.186 . S
C1525 C200 1.218 . S
C1533 C255 1.296 . S
C1557 C268 1.258 . S
C1565 C213 1.224 . S
C1589 C226 1.267 . S
C1597 C242 1.292 . S
C1621 C239 1.263 . S
C1629 C229 1.270 . S
C1653 C252 1.182 . S
C1661 C203 1.287 . S
C1685 C216 1.303 . S
C1693 C265 1.219 . S
C1717 C177 1.294 . S
C1725 C278 1.276 . S
C1749 C190 1.325 . S
C1757 C291 1.252 . S
C1781 C304 1.229 . S
C1789 C164 1.335 . S
C1813 C463 1.266 . S
C1821 C317 1.246 . S
C1845 C330 1.271 . S
C1853 C437 1.278 . S
C1877 C343 1.271 . S
C1885 C450 1.277 . S
C1909 C356 1.292 . S
C1917 C411 1.334 . S
C1941 C424 1.346 . S
C1949 C369 1.266 . S
C1973 C382 1.221 . S
C1981 C398 1.329 . S
C2005 C385 1.241 . S
C2013 C395 1.176 . S
C2037 C359 1.265 . S
C2045 C408 1.175 . S
C2069 C372 1.272 . S
C2077 C421 1.190 . S
C2101 C333 1.296 . S
C2109 C434 1.214 . S
C2133 C346 1.287 . S
C2141 C447 1.214 . S
C2165 C320 1.265 . S
C2173 C460 1.223 . S
C2197 C387 1.392 . S
C2205 C10 1.396 . S
C2229 C23 1.406 . S
C2237 C361 1.401 . S
C2261 C374 1.420 . S
C2269 C36 1.414 . S
C2293 C49 1.417 . S
C2301 C179 1.412 . S
C2325 C192 1.382 . S
C2333 C62 1.402 . S
C2357 C75 1.392 . S
C2365 C166 1.394 . S
C2389 C88 1.399 . S
C2397 C309 1.408 . S
C2421 C283 1.379 . S
C2429 C101 1.395 . S
C2453 C114 1.422 . S
C2461 C296 1.415 . S
C2485 C127 1.387 . S
C2493 C413 1.395 . S
C2517 C140 1.376 . S
C2525 C426 1.394 . S
C2549 C400 1.383 . S
C2557 C153 1.399 . S
C2581 C335 1.405 . S
C2589 C205 1.402 . S
C2613 C348 1.382 . S
C2621 C218 1.383 . S
C2645 C322 1.384 . S
C2653 C231 1.398 . S
C2677 C244 1.373 . S
C2685 C465 1.382 . S
C2709 C439 1.404 . S
C2717 C257 1.394 . S
C2741 C270 1.383 . S
C2749 C452 1.385 . S
