# Generated by pormake.
# Topology wjr, (5)-cn, num edge types: 1
# Building blocks:
#     Node 0, Type 0, BuildingBlock: BEQFEK_clean_sbu_0, # of connection points: 5
#     Node 1, Type 0, BuildingBlock: BEQFEK_clean_sbu_0, # of connection points: 5
#     Node 2, Type 0, BuildingBlock: BEQFEK_clean_sbu_0, # of connection points: 5
#     Node 3, Type 0, BuildingBlock: BEQFEK_clean_sbu_0, # of connection points: 5
#     Node 4, Type 0, BuildingBlock: BEQFEK_clean_sbu_0, # of connection points: 5
#     Node 5, Type 0, BuildingBlock: BEQFEK_clean_sbu_0, # of connection points: 5
#     Node 6, Type 0, BuildingBlock: BEQFEK_clean_sbu_0, # of connection points: 5
#     Node 7, Type 0, BuildingBlock: BEQFEK_clean_sbu_0, # of connection points: 5
#     Node 8, Type 0, BuildingBlock: BEQFEK_clean_sbu_0, # of connection points: 5
#     Node 9, Type 0, BuildingBlock: BEQFEK_clean_sbu_0, # of connection points: 5
#     Node 10, Type 0, BuildingBlock: BEQFEK_clean_sbu_0, # of connection points: 5
#     Node 11, Type 0, BuildingBlock: BEQFEK_clean_sbu_0, # of connection points: 5
#     Node 12, Type 0, BuildingBlock: BEQFEK_clean_sbu_0, # of connection points: 5
#     Node 13, Type 0, BuildingBlock: BEQFEK_clean_sbu_0, # of connection points: 5
#     Node 14, Type 0, BuildingBlock: BEQFEK_clean_sbu_0, # of connection points: 5
#     Node 15, Type 0, BuildingBlock: BEQFEK_clean_sbu_0, # of connection points: 5
#     Node 16, Type 0, BuildingBlock: BEQFEK_clean_sbu_0, # of connection points: 5
#     Node 17, Type 0, BuildingBlock: BEQFEK_clean_sbu_0, # of connection points: 5
#     Node 18, Type 0, BuildingBlock: BEQFEK_clean_sbu_0, # of connection points: 5
#     Node 19, Type 0, BuildingBlock: BEQFEK_clean_sbu_0, # of connection points: 5
#     Node 20, Type 0, BuildingBlock: BEQFEK_clean_sbu_0, # of connection points: 5
#     Node 21, Type 0, BuildingBlock: BEQFEK_clean_sbu_0, # of connection points: 5
#     Node 22, Type 0, BuildingBlock: BEQFEK_clean_sbu_0, # of connection points: 5
#     Node 23, Type 0, BuildingBlock: BEQFEK_clean_sbu_0, # of connection points: 5
#     Edge 24, Type (0, 0), BuildingBlock: TEMPAE_clean_linker_10, # of connection points: 2
#     Edge 25, Type (0, 0), BuildingBlock: TEMPAE_clean_linker_10, # of connection points: 2
#     Edge 26, Type (0, 0), BuildingBlock: TEMPAE_clean_linker_10, # of connection points: 2
#     Edge 27, Type (0, 0), BuildingBlock: TEMPAE_clean_linker_10, # of connection points: 2
#     Edge 28, Type (0, 0), BuildingBlock: TEMPAE_clean_linker_10, # of connection points: 2
#     Edge 29, Type (0, 0), BuildingBlock: TEMPAE_clean_linker_10, # of connection points: 2
#     Edge 30, Type (0, 0), BuildingBlock: TEMPAE_clean_linker_10, # of connection points: 2
#     Edge 31, Type (0, 0), BuildingBlock: TEMPAE_clean_linker_10, # of connection points: 2
#     Edge 32, Type (0, 0), BuildingBlock: TEMPAE_clean_linker_10, # of connection points: 2
#     Edge 33, Type (0, 0), BuildingBlock: TEMPAE_clean_linker_10, # of connection points: 2
#     Edge 34, Type (0, 0), BuildingBlock: TEMPAE_clean_linker_10, # of connection points: 2
#     Edge 35, Type (0, 0), BuildingBlock: TEMPAE_clean_linker_10, # of connection points: 2
#     Edge 36, Type (0, 0), BuildingBlock: TEMPAE_clean_linker_10, # of connection points: 2
#     Edge 37, Type (0, 0), BuildingBlock: TEMPAE_clean_linker_10, # of connection points: 2
#     Edge 38, Type (0, 0), BuildingBlock: TEMPAE_clean_linker_10, # of connection points: 2
#     Edge 39, Type (0, 0), BuildingBlock: TEMPAE_clean_linker_10, # of connection points: 2
#     Edge 40, Type (0, 0), BuildingBlock: TEMPAE_clean_linker_10, # of connection points: 2
#     Edge 41, Type (0, 0), BuildingBlock: TEMPAE_clean_linker_10, # of connection points: 2
#     Edge 42, Type (0, 0), BuildingBlock: TEMPAE_clean_linker_10, # of connection points: 2
#     Edge 43, Type (0, 0), BuildingBlock: TEMPAE_clean_linker_10, # of connection points: 2
#     Edge 44, Type (0, 0), BuildingBlock: TEMPAE_clean_linker_10, # of connection points: 2
#     Edge 45, Type (0, 0), BuildingBlock: TEMPAE_clean_linker_10, # of connection points: 2
#     Edge 46, Type (0, 0), BuildingBlock: TEMPAE_clean_linker_10, # of connection points: 2
#     Edge 47, Type (0, 0), BuildingBlock: TEMPAE_clean_linker_10, # of connection points: 2
#     Edge 48, Type (0, 0), BuildingBlock: TEMPAE_clean_linker_10, # of connection points: 2
#     Edge 49, Type (0, 0), BuildingBlock: TEMPAE_clean_linker_10, # of connection points: 2
#     Edge 50, Type (0, 0), BuildingBlock: TEMPAE_clean_linker_10, # of connection points: 2
#     Edge 51, Type (0, 0), BuildingBlock: TEMPAE_clean_linker_10, # of connection points: 2
#     Edge 52, Type (0, 0), BuildingBlock: TEMPAE_clean_linker_10, # of connection points: 2
#     Edge 53, Type (0, 0), BuildingBlock: TEMPAE_clean_linker_10, # of connection points: 2
#     Edge 54, Type (0, 0), BuildingBlock: TEMPAE_clean_linker_10, # of connection points: 2
#     Edge 55, Type (0, 0), BuildingBlock: TEMPAE_clean_linker_10, # of connection points: 2
#     Edge 56, Type (0, 0), BuildingBlock: TEMPAE_clean_linker_10, # of connection points: 2
#     Edge 57, Type (0, 0), BuildingBlock: TEMPAE_clean_linker_10, # of connection points: 2
#     Edge 58, Type (0, 0), BuildingBlock: TEMPAE_clean_linker_10, # of connection points: 2
#     Edge 59, Type (0, 0), BuildingBlock: TEMPAE_clean_linker_10, # of connection points: 2
#     Edge 60, Type (0, 0), BuildingBlock: TEMPAE_clean_linker_10, # of connection points: 2
#     Edge 61, Type (0, 0), BuildingBlock: TEMPAE_clean_linker_10, # of connection points: 2
#     Edge 62, Type (0, 0), BuildingBlock: TEMPAE_clean_linker_10, # of connection points: 2
#     Edge 63, Type (0, 0), BuildingBlock: TEMPAE_clean_linker_10, # of connection points: 2
#     Edge 64, Type (0, 0), BuildingBlock: TEMPAE_clean_linker_10, # of connection points: 2
#     Edge 65, Type (0, 0), BuildingBlock: TEMPAE_clean_linker_10, # of connection points: 2
#     Edge 66, Type (0, 0), BuildingBlock: TEMPAE_clean_linker_10, # of connection points: 2
#     Edge 67, Type (0, 0), BuildingBlock: TEMPAE_clean_linker_10, # of connection points: 2
#     Edge 68, Type (0, 0), BuildingBlock: TEMPAE_clean_linker_10, # of connection points: 2
#     Edge 69, Type (0, 0), BuildingBlock: TEMPAE_clean_linker_10, # of connection points: 2
#     Edge 70, Type (0, 0), BuildingBlock: TEMPAE_clean_linker_10, # of connection points: 2
#     Edge 71, Type (0, 0), BuildingBlock: TEMPAE_clean_linker_10, # of connection points: 2
#     Edge 72, Type (0, 0), BuildingBlock: TEMPAE_clean_linker_10, # of connection points: 2
#     Edge 73, Type (0, 0), BuildingBlock: TEMPAE_clean_linker_10, # of connection points: 2
#     Edge 74, Type (0, 0), BuildingBlock: TEMPAE_clean_linker_10, # of connection points: 2
#     Edge 75, Type (0, 0), BuildingBlock: TEMPAE_clean_linker_10, # of connection points: 2
#     Edge 76, Type (0, 0), BuildingBlock: TEMPAE_clean_linker_10, # of connection points: 2
#     Edge 77, Type (0, 0), BuildingBlock: TEMPAE_clean_linker_10, # of connection points: 2
#     Edge 78, Type (0, 0), BuildingBlock: TEMPAE_clean_linker_10, # of connection points: 2
#     Edge 79, Type (0, 0), BuildingBlock: TEMPAE_clean_linker_10, # of connection points: 2
#     Edge 80, Type (0, 0), BuildingBlock: TEMPAE_clean_linker_10, # of connection points: 2
#     Edge 81, Type (0, 0), BuildingBlock: TEMPAE_clean_linker_10, # of connection points: 2
#     Edge 82, Type (0, 0), BuildingBlock: TEMPAE_clean_linker_10, # of connection points: 2
#     Edge 83, Type (0, 0), BuildingBlock: TEMPAE_clean_linker_10, # of connection points: 2
# Relax obj value: 0.369
# Max RMSD: 0.180
# Mean RMSD: 0.180
data_MOF--net-wjr--node1-BEQFEK_clean_sbu_0--edge1-TEMPAE_clean_linker_10
_symmetry_space_group_name_H-M    P1
_symmetry_Int_Tables_number       1
_symmetry_cell_setting            triclinic
loop_
_symmetry_equiv_pos_as_xyz
'x, y, z'
_cell_length_a     70.875899
_cell_length_b     70.879621
_cell_length_c     49.339908
_cell_angle_alpha  89.990749
_cell_angle_beta   90.001793
_cell_angle_gamma 119.99217
loop_
_atom_site_label
_atom_site_type_symbol
_atom_site_fract_x
_atom_site_fract_y
_atom_site_fract_z
_atom_type_partial_charge
Co0 Co 0.46925 0.07935 0.14691 0.0
Co1 Co 0.45713 0.10987 0.17919 0.0
C2 C 0.49831 0.10952 0.19092 0.0
O3 O 0.49343 0.09518 0.17259 0.0
O4 O 0.48588 0.11731 0.196 0.0
C5 C 0.49609 0.06538 0.12017 0.0
O6 O 0.51215 0.08251 0.13194 0.0
C7 C 0.45845 0.14868 0.20346 0.0
C8 C 0.42332 0.13795 0.2049 0.0
C9 C 0.44374 0.15521 0.21121 0.0
N10 N 0.44716 0.12851 0.1929 0.0
N11 N 0.4262 0.12224 0.19382 0.0
C12 C 0.48258 0.16041 0.20779 0.0
H13 H 0.48666 0.15072 0.22176 0.0
H14 H 0.49089 0.16171 0.18823 0.0
H15 H 0.48873 0.1768 0.21668 0.0
C16 C 0.46386 0.10203 0.10068 0.0
N17 N 0.46353 0.09859 0.12744 0.0
N18 N 0.45932 0.11226 0.14046 0.0
C19 C 0.45733 0.12534 0.12211 0.0
C20 C 0.46032 0.11936 0.09625 0.0
C21 C 0.46623 0.08796 0.07985 0.0
H22 H 0.45714 0.07069 0.08639 0.0
H23 H 0.48369 0.09287 0.0779 0.0
H24 H 0.45991 0.08929 0.05979 0.0
O25 O 0.44375 0.05857 0.16746 0.0
O26 O 0.43474 0.07953 0.19097 0.0
H27 H 0.437 0.13725 0.13716 0.0
H28 H 0.45631 0.1545 0.11168 0.0
C29 C 0.45382 0.14385 0.12937 0.0
H30 H 0.46528 0.15367 0.14571 0.0
H31 H 0.41384 0.10714 0.187 0.0
O32 O 0.47673 0.06173 0.12286 0.0
C33 C 0.43161 0.06073 0.18461 0.0
Co34 Co 0.38934 0.47259 0.14614 0.0
Co35 Co 0.34615 0.45797 0.17846 0.0
C36 C 0.38609 0.50163 0.18784 0.0
O37 O 0.39627 0.4974 0.16983 0.0
O38 O 0.36627 0.48796 0.19359 0.0
C39 C 0.43032 0.49935 0.11978 0.0
O40 O 0.42919 0.51537 0.13157 0.0
C41 C 0.30776 0.45843 0.20053 0.0
C42 C 0.2844 0.42319 0.20459 0.0
C43 C 0.28664 0.44357 0.20846 0.0
N44 N 0.31751 0.4473 0.19237 0.0
N45 N 0.3035 0.42626 0.19501 0.0
C46 C 0.31811 0.48267 0.19897 0.0
H47 H 0.32959 0.48899 0.18161 0.0
H48 H 0.30562 0.48765 0.19682 0.0
H49 H 0.3275 0.48993 0.21784 0.0
C50 C 0.36028 0.46315 0.09978 0.0
N51 N 0.36379 0.46445 0.1266 0.0
N52 N 0.34532 0.45795 0.13954 0.0
C53 C 0.32924 0.45199 0.12102 0.0
C54 C 0.33822 0.4549 0.0952 0.0
C55 C 0.37805 0.47057 0.07907 0.0
H56 H 0.39195 0.48653 0.08522 0.0
H57 H 0.3725 0.47233 0.05869 0.0
H58 H 0.38385 0.45866 0.07808 0.0
O59 O 0.38645 0.44849 0.16883 0.0
O60 O 0.35608 0.43775 0.19223 0.0
H61 H 0.30018 0.4274 0.13988 0.0
H62 H 0.29539 0.43861 0.10956 0.0
C63 C 0.30567 0.44252 0.12796 0.0
H64 H 0.30356 0.45422 0.1407 0.0
H65 H 0.30691 0.41398 0.18996 0.0
O66 O 0.41449 0.48001 0.12209 0.0
C67 C 0.37273 0.43612 0.18644 0.0
Co68 Co 0.91504 0.3898 0.14916 0.0
Co69 Co 0.88612 0.34733 0.18256 0.0
C70 C 0.88468 0.38853 0.19234 0.0
O71 O 0.89879 0.39812 0.17384 0.0
O72 O 0.87773 0.36854 0.198 0.0
C73 C 0.93009 0.4307 0.12233 0.0
O74 O 0.91393 0.43075 0.13531 0.0
C75 C 0.84653 0.30807 0.20258 0.0
C76 C 0.86101 0.28894 0.21832 0.0
C77 C 0.84143 0.28869 0.21561 0.0
N78 N 0.86813 0.31917 0.19787 0.0
N79 N 0.87662 0.30756 0.20722 0.0
C80 C 0.83147 0.31651 0.19605 0.0
H81 H 0.84068 0.33435 0.19272 0.0
H82 H 0.82247 0.30871 0.17715 0.0
H83 H 0.81943 0.31247 0.2126 0.0
C84 C 0.89411 0.36029 0.10367 0.0
N85 N 0.89642 0.36418 0.1304 0.0
N86 N 0.88454 0.34589 0.14373 0.0
C87 C 0.8745 0.32952 0.12554 0.0
C88 C 0.88043 0.33817 0.09955 0.0
C89 C 0.90477 0.37769 0.08255 0.0
H90 H 0.9224 0.38309 0.08164 0.0
H91 H 0.90307 0.39191 0.08819 0.0
H92 H 0.8974 0.37189 0.06225 0.0
O93 O 0.93644 0.38626 0.17061 0.0
O94 O 0.9164 0.35662 0.19505 0.0
H95 H 0.8697 0.30174 0.14829 0.0
H96 H 0.85736 0.29531 0.11493 0.0
C97 C 0.861 0.30598 0.13292 0.0
H98 H 0.84548 0.30309 0.14202 0.0
H99 H 0.89316 0.31249 0.20635 0.0
O100 O 0.93265 0.41426 0.12427 0.0
C101 C 0.9349 0.37257 0.18837 0.0
Co102 Co 0.52374 0.91386 0.14794 0.0
Co103 Co 0.53849 0.88573 0.18117 0.0
C104 C 0.49531 0.88329 0.19131 0.0
O105 O 0.49922 0.89704 0.1725 0.0
O106 O 0.50898 0.87718 0.19722 0.0
C107 C 0.49735 0.92845 0.12142 0.0
O108 O 0.48131 0.91195 0.13412 0.0
C109 C 0.53906 0.84657 0.2013 0.0
C110 C 0.57287 0.8616 0.21643 0.0
C111 C 0.5537 0.84185 0.21412 0.0
N112 N 0.54922 0.86812 0.19633 0.0
N113 N 0.56945 0.87694 0.20531 0.0
C114 C 0.51554 0.8312 0.19524 0.0
H115 H 0.50668 0.84018 0.19195 0.0
H116 H 0.51425 0.82205 0.17645 0.0
H117 H 0.50788 0.8193 0.21201 0.0
C118 C 0.53267 0.89328 0.10234 0.0
N119 N 0.53118 0.89559 0.12908 0.0
N120 N 0.53792 0.88395 0.14234 0.0
C121 C 0.54438 0.87407 0.12408 0.0
C122 C 0.54138 0.87984 0.09814 0.0
C123 C 0.52567 0.90375 0.08128 0.0
H124 H 0.53771 0.92143 0.08037 0.0
H125 H 0.50968 0.90184 0.08701 0.0
H126 H 0.52418 0.89643 0.06097 0.0
O127 O 0.54852 0.9355 0.16941 0.0
O128 O 0.55942 0.91612 0.19305 0.0
H129 H 0.56796 0.86991 0.14636 0.0
H130 H 0.56164 0.85716 0.11325 0.0
C131 C 0.55481 0.8609 0.13135 0.0
H132 H 0.54247 0.84542 0.14086 0.0
H133 H 0.58086 0.89352 0.20418 0.0
O134 O 0.5165 0.93135 0.12324 0.0
C135 C 0.56128 0.93438 0.1866 0.0
Co136 Co 0.61083 0.52791 0.14675 0.0
Co137 Co 0.65381 0.54113 0.17891 0.0
C138 C 0.61296 0.49852 0.18904 0.0
O139 O 0.60313 0.5033 0.17114 0.0
O140 O 0.63304 0.51145 0.19438 0.0
C141 C 0.56942 0.5019 0.12118 0.0
O142 O 0.57004 0.48578 0.13347 0.0
C143 C 0.69178 0.53961 0.20072 0.0
C144 C 0.71587 0.5747 0.20416 0.0
C145 C 0.71311 0.55414 0.20821 0.0
N146 N 0.6824 0.55112 0.19261 0.0
N147 N 0.69685 0.57207 0.19489 0.0
C148 C 0.68086 0.51531 0.19951 0.0
H149 H 0.66911 0.50907 0.18242 0.0
H150 H 0.693 0.50989 0.19714 0.0
H151 H 0.6717 0.50841 0.21861 0.0
C152 C 0.63936 0.53571 0.10029 0.0
N153 N 0.63601 0.53479 0.12712 0.0
N154 N 0.65442 0.54079 0.13997 0.0
C155 C 0.67032 0.54604 0.12135 0.0
C156 C 0.66127 0.54319 0.09558 0.0
C157 C 0.62154 0.52868 0.0797 0.0
H158 H 0.61644 0.54112 0.07842 0.0
H159 H 0.60726 0.51309 0.08617 0.0
H160 H 0.62676 0.52634 0.05938 0.0
O161 O 0.61493 0.55276 0.16871 0.0
O162 O 0.64483 0.56217 0.19253 0.0
H163 H 0.69983 0.57009 0.1399 0.0
H164 H 0.70396 0.55831 0.10968 0.0
C165 C 0.69381 0.55483 0.12813 0.0
H166 H 0.69549 0.54291 0.14097 0.0
H167 H 0.6938 0.58458 0.18976 0.0
O168 O 0.58572 0.52102 0.12287 0.0
C169 C 0.62879 0.56477 0.18639 0.0
Co170 Co 0.08299 0.6073 0.14703 0.0
Co171 Co 0.11403 0.6498 0.17891 0.0
C172 C 0.11384 0.60852 0.19043 0.0
O173 O 0.09908 0.59902 0.17255 0.0
O174 O 0.12196 0.6288 0.19531 0.0
C175 C 0.06854 0.56628 0.12058 0.0
O176 O 0.0853 0.56688 0.13281 0.0
C177 C 0.15308 0.68765 0.20198 0.0
C178 C 0.1427 0.71232 0.20169 0.0
C179 C 0.15998 0.70925 0.20828 0.0
N180 N 0.13266 0.67848 0.19217 0.0
N181 N 0.12656 0.69329 0.19217 0.0
C182 C 0.16607 0.6763 0.20307 0.0
H183 H 0.16067 0.66377 0.18691 0.0
H184 H 0.18373 0.68807 0.2007 0.0
H185 H 0.16337 0.66801 0.22295 0.0
C186 C 0.10472 0.63536 0.10043 0.0
N187 N 0.10194 0.63217 0.12727 0.0
N188 N 0.11589 0.64999 0.14012 0.0
C189 C 0.1286 0.66509 0.12156 0.0
C190 C 0.12199 0.65623 0.09574 0.0
C191 C 0.08989 0.61913 0.07989 0.0
H192 H 0.07287 0.61092 0.08737 0.0
H193 H 0.09468 0.60658 0.07685 0.0
H194 H 0.09053 0.62696 0.06018 0.0
O195 O 0.06235 0.61213 0.16771 0.0
O196 O 0.08381 0.64164 0.19165 0.0
H197 H 0.14097 0.69755 0.13608 0.0
H198 H 0.15797 0.69494 0.11073 0.0
C199 C 0.14733 0.68705 0.12852 0.0
H200 H 0.15713 0.68542 0.14487 0.0
H201 H 0.11142 0.69045 0.18535 0.0
O202 O 0.06528 0.58225 0.12306 0.0
C203 C 0.06483 0.62627 0.1853 0.0
Co204 Co 0.92001 0.53183 0.35291 0.0
Co205 Co 0.88942 0.54347 0.32019 0.0
C206 C 0.88643 0.49949 0.31534 0.0
O207 O 0.90147 0.50488 0.33285 0.0
O208 O 0.87998 0.51271 0.30832 0.0
C209 C 0.93751 0.511 0.38849 0.0
O210 O 0.91806 0.49354 0.38871 0.0
C211 C 0.84918 0.54076 0.29866 0.0
C212 C 0.86017 0.57567 0.29279 0.0
C213 C 0.84224 0.55499 0.29027 0.0
N214 N 0.87027 0.55256 0.30587 0.0
N215 N 0.87674 0.57338 0.3021 0.0
C216 C 0.8358 0.51655 0.30151 0.0
H217 H 0.84165 0.51103 0.31901 0.0
H218 H 0.81831 0.51128 0.3042 0.0
H219 H 0.83766 0.50882 0.28291 0.0
C220 C 0.90192 0.5438 0.39893 0.0
N221 N 0.90329 0.54103 0.37224 0.0
N222 N 0.89029 0.54607 0.359 0.0
C223 C 0.88017 0.55231 0.37717 0.0
C224 C 0.88742 0.55129 0.40304 0.0
C225 C 0.91323 0.53781 0.42001 0.0
H226 H 0.93111 0.5485 0.41789 0.0
H227 H 0.90929 0.52078 0.41665 0.0
H228 H 0.90822 0.53903 0.4409 0.0
O229 O 0.9393 0.55414 0.3271 0.0
O230 O 0.91865 0.56351 0.3037 0.0
H231 H 0.87286 0.57445 0.35679 0.0
H232 H 0.85805 0.56387 0.388 0.0
C233 C 0.86449 0.55979 0.36981 0.0
H234 H 0.85078 0.54684 0.35807 0.0
H235 H 0.89244 0.58607 0.30629 0.0
O236 O 0.9405 0.52797 0.37607 0.0
C237 C 0.93719 0.56549 0.30873 0.0
Co238 Co 0.38633 0.92277 0.35081 0.0
Co239 Co 0.34442 0.88788 0.32119 0.0
C240 C 0.38694 0.88992 0.31218 0.0
O241 O 0.39594 0.90598 0.32848 0.0
O242 O 0.36656 0.88057 0.30719 0.0
C243 C 0.42358 0.94033 0.38782 0.0
O244 O 0.41882 0.92021 0.39273 0.0
C245 C 0.30769 0.84664 0.30018 0.0
C246 C 0.28128 0.85463 0.30131 0.0
C247 C 0.28565 0.83819 0.29482 0.0
N248 N 0.31585 0.86714 0.30938 0.0
N249 N 0.29999 0.87179 0.30989 0.0
C250 C 0.32046 0.83508 0.29863 0.0
H251 H 0.33298 0.84101 0.31485 0.0
H252 H 0.30965 0.8172 0.30062 0.0
H253 H 0.32892 0.83865 0.27878 0.0
C254 C 0.35906 0.90291 0.39902 0.0
N255 N 0.36209 0.90439 0.37208 0.0
N256 N 0.34473 0.88874 0.36009 0.0
C257 C 0.33033 0.87618 0.37937 0.0
C258 C 0.33905 0.88472 0.4047 0.0
C259 C 0.37438 0.91946 0.4189 0.0
H260 H 0.38299 0.93581 0.40938 0.0
H261 H 0.38654 0.91496 0.42557 0.0
H262 H 0.36547 0.92013 0.43705 0.0
O263 O 0.37957 0.94047 0.3272 0.0
O264 O 0.35045 0.91647 0.30458 0.0
H265 H 0.29736 0.85982 0.36562 0.0
H266 H 0.3027 0.84563 0.39225 0.0
C267 C 0.30942 0.85564 0.37369 0.0
H268 H 0.31216 0.84598 0.35814 0.0
H269 H 0.30192 0.88667 0.31639 0.0
O270 O 0.41155 0.94394 0.3721 0.0
C271 C 0.36506 0.93612 0.30939 0.0
Co272 Co 0.47095 0.38833 0.35163 0.0
Co273 Co 0.46012 0.34638 0.31867 0.0
C274 C 0.50246 0.38727 0.311 0.0
O275 O 0.49651 0.39655 0.32835 0.0
O276 O 0.49017 0.36723 0.30494 0.0
C277 C 0.49721 0.42803 0.38071 0.0
O278 O 0.51352 0.42649 0.37057 0.0
C279 C 0.4608 0.30845 0.29444 0.0
C280 C 0.42546 0.28517 0.2911 0.0
C281 C 0.44573 0.28755 0.28587 0.0
N282 N 0.44982 0.31786 0.30441 0.0
N283 N 0.42874 0.30383 0.30236 0.0
C284 C 0.48505 0.32005 0.29144 0.0
H285 H 0.49029 0.33469 0.27862 0.0
H286 H 0.49275 0.32569 0.31162 0.0
H287 H 0.49078 0.30966 0.28191 0.0
C288 C 0.46238 0.3591 0.39748 0.0
N289 N 0.4634 0.36276 0.37073 0.0
N290 N 0.4597 0.34512 0.35753 0.0
C291 C 0.45668 0.32963 0.37582 0.0
C292 C 0.45848 0.33809 0.40179 0.0
C293 C 0.46424 0.37529 0.41837 0.0
H294 H 0.45569 0.38387 0.41124 0.0
H295 H 0.48169 0.38756 0.42137 0.0
H296 H 0.45707 0.36734 0.43804 0.0
O297 O 0.44697 0.38488 0.32878 0.0
O298 O 0.43957 0.35589 0.3041 0.0
H299 H 0.43721 0.29774 0.35935 0.0
H300 H 0.4551 0.29922 0.38645 0.0
C301 C 0.45358 0.30778 0.36849 0.0
H302 H 0.46587 0.30977 0.35315 0.0
H303 H 0.41656 0.30709 0.30852 0.0
O304 O 0.47781 0.413 0.37616 0.0
C305 C 0.43614 0.37143 0.31014 0.0
Co306 Co 0.08128 0.4681 0.35395 0.0
Co307 Co 0.11139 0.45556 0.32173 0.0
C308 C 0.11457 0.49951 0.31537 0.0
O309 O 0.09976 0.49458 0.33309 0.0
O310 O 0.12087 0.48608 0.30881 0.0
C311 C 0.0639 0.48952 0.38892 0.0
O312 O 0.08345 0.50682 0.3897 0.0
C313 C 0.15122 0.45749 0.30006 0.0
C314 C 0.13994 0.42242 0.29531 0.0
C315 C 0.15791 0.44298 0.29204 0.0
N316 N 0.13023 0.44597 0.30776 0.0
N317 N 0.12358 0.42504 0.30467 0.0
C318 C 0.16474 0.48175 0.30201 0.0
H319 H 0.15925 0.48771 0.31941 0.0
H320 H 0.18226 0.48699 0.30433 0.0
H321 H 0.1626 0.48908 0.28322 0.0
C322 C 0.09959 0.45686 0.40047 0.0
N323 N 0.09802 0.45914 0.3737 0.0
N324 N 0.11075 0.45364 0.36064 0.0
C325 C 0.12085 0.44753 0.37902 0.0
C326 C 0.11391 0.44918 0.40486 0.0
C327 C 0.08863 0.46345 0.42133 0.0
H328 H 0.09256 0.48039 0.41727 0.0
H329 H 0.09396 0.4628 0.44224 0.0
H330 H 0.07071 0.45275 0.4197 0.0
O331 O 0.06176 0.44538 0.32869 0.0
O332 O 0.08211 0.43549 0.30559 0.0
H333 H 0.14249 0.43545 0.39016 0.0
H334 H 0.14985 0.45202 0.35981 0.0
C335 C 0.13609 0.43946 0.37188 0.0
H336 H 0.12736 0.42462 0.35924 0.0
H337 H 0.1079 0.41251 0.30931 0.0
O338 O 0.06088 0.47253 0.37656 0.0
C339 C 0.06367 0.43372 0.3106 0.0
Co340 Co 0.61036 0.07707 0.35256 0.0
Co341 Co 0.65172 0.11005 0.3202 0.0
C342 C 0.60961 0.10963 0.31373 0.0
O343 O 0.60075 0.09415 0.33087 0.0
O344 O 0.6297 0.11798 0.30743 0.0
C345 C 0.57373 0.06096 0.39039 0.0
O346 O 0.5778 0.08113 0.39269 0.0
C347 C 0.68841 0.14905 0.29438 0.0
C348 C 0.71379 0.13961 0.2956 0.0
C349 C 0.70991 0.15603 0.28735 0.0
N350 N 0.68011 0.12943 0.30638 0.0
N351 N 0.69538 0.12394 0.307 0.0
C352 C 0.67535 0.1598 0.28808 0.0
H353 H 0.67066 0.16449 0.3073 0.0
H354 H 0.68441 0.17434 0.27501 0.0
H355 H 0.66017 0.14803 0.2775 0.0
C356 C 0.63951 0.09754 0.39891 0.0
N357 N 0.63569 0.09525 0.37214 0.0
N358 N 0.65294 0.1101 0.35909 0.0
C359 C 0.66815 0.1229 0.37748 0.0
C360 C 0.66001 0.1154 0.40335 0.0
C361 C 0.62414 0.08225 0.4198 0.0
H362 H 0.61522 0.06545 0.41162 0.0
H363 H 0.6122 0.08737 0.42532 0.0
H364 H 0.63299 0.0823 0.43839 0.0
O365 O 0.615 0.05817 0.32835 0.0
O366 O 0.6438 0.08083 0.30423 0.0
H367 H 0.70074 0.13773 0.36264 0.0
H368 H 0.69664 0.15343 0.38838 0.0
C369 C 0.68926 0.14278 0.37045 0.0
H370 H 0.68659 0.15205 0.35426 0.0
H371 H 0.69315 0.10937 0.31514 0.0
O372 O 0.58597 0.05688 0.37571 0.0
C373 C 0.62865 0.06156 0.3097 0.0
Co374 Co 0.52781 0.60822 0.35192 0.0
Co375 Co 0.53889 0.65076 0.31998 0.0
C376 C 0.49664 0.60997 0.31135 0.0
O377 O 0.50247 0.60041 0.32842 0.0
O378 O 0.50893 0.63012 0.30584 0.0
C379 C 0.50145 0.56759 0.37914 0.0
O380 O 0.48522 0.5687 0.36794 0.0
C381 C 0.53876 0.68854 0.29432 0.0
C382 C 0.57379 0.71314 0.29663 0.0
C383 C 0.55386 0.71 0.28786 0.0
N384 N 0.54936 0.67955 0.30654 0.0
N385 N 0.57026 0.69435 0.30781 0.0
C386 C 0.51506 0.67614 0.28726 0.0
H387 H 0.5116 0.66135 0.27567 0.0
H388 H 0.50529 0.67075 0.30618 0.0
H389 H 0.51004 0.6859 0.27482 0.0
C390 C 0.5362 0.6368 0.39846 0.0
N391 N 0.53525 0.63351 0.37161 0.0
N392 N 0.53893 0.65132 0.35886 0.0
C393 C 0.54177 0.66651 0.37752 0.0
C394 C 0.53998 0.6577 0.40328 0.0
C395 C 0.5345 0.62037 0.4189 0.0
H396 H 0.54304 0.61192 0.41131 0.0
H397 H 0.51708 0.60804 0.42195 0.0
H398 H 0.54177 0.6281 0.43862 0.0
O399 O 0.5519 0.61203 0.32906 0.0
O400 O 0.55964 0.64154 0.30527 0.0
H401 H 0.56165 0.69926 0.36397 0.0
H402 H 0.54128 0.6958 0.38856 0.0
C403 C 0.54465 0.68836 0.37077 0.0
H404 H 0.53359 0.68679 0.35393 0.0
H405 H 0.58216 0.69157 0.31624 0.0
O406 O 0.5208 0.58318 0.37589 0.0
C407 C 0.56293 0.62584 0.31084 0.0
Co408 Co 0.53054 0.91913 0.85046 0.0
Co409 Co 0.5404 0.88628 0.8205 0.0
C410 C 0.49923 0.88691 0.80979 0.0
O411 O 0.50496 0.90217 0.82707 0.0
O412 O 0.51127 0.87865 0.80481 0.0
C413 C 0.51024 0.93696 0.88727 0.0
O414 O 0.49494 0.91718 0.89377 0.0
C415 C 0.53771 0.8462 0.79828 0.0
C416 C 0.57218 0.85468 0.80157 0.0
C417 C 0.5518 0.83826 0.79354 0.0
N418 N 0.54932 0.8664 0.80862 0.0
N419 N 0.5699 0.87137 0.81039 0.0
C420 C 0.51348 0.83436 0.79501 0.0
H421 H 0.50596 0.83919 0.81132 0.0
H422 H 0.50666 0.81645 0.79554 0.0
H423 H 0.50937 0.83889 0.77526 0.0
C424 C 0.53749 0.89883 0.8987 0.0
N425 N 0.53664 0.90091 0.87174 0.0
N426 N 0.53966 0.88613 0.8595 0.0
C427 C 0.54178 0.87361 0.8786 0.0
C428 C 0.54033 0.88121 0.90406 0.0
C429 C 0.53712 0.91435 0.91899 0.0
H430 H 0.54423 0.93088 0.91012 0.0
H431 H 0.52005 0.90868 0.92507 0.0
H432 H 0.54648 0.91516 0.93743 0.0
O433 O 0.55533 0.93785 0.82779 0.0
O434 O 0.56294 0.91547 0.80541 0.0
H435 H 0.56053 0.85937 0.8653 0.0
H436 H 0.54055 0.84369 0.89087 0.0
C437 C 0.54379 0.854 0.8726 0.0
H438 H 0.53216 0.84421 0.8564 0.0
H439 H 0.58237 0.88612 0.81796 0.0
O440 O 0.52545 0.93981 0.87125 0.0
C441 C 0.56671 0.93467 0.81055 0.0
Co442 Co 0.60973 0.52855 0.85092 0.0
Co443 Co 0.65126 0.5372 0.81895 0.0
C444 C 0.60866 0.4964 0.80997 0.0
O445 O 0.59976 0.50262 0.82757 0.0
O446 O 0.62891 0.50799 0.80439 0.0
C447 C 0.57257 0.50875 0.88886 0.0
O448 O 0.57604 0.49238 0.89257 0.0
C449 C 0.68775 0.53375 0.79501 0.0
C450 C 0.71256 0.56867 0.79164 0.0
C451 C 0.70884 0.54792 0.78624 0.0
N452 N 0.67947 0.54571 0.80516 0.0
N453 N 0.69442 0.56652 0.80316 0.0
C454 C 0.67489 0.50953 0.79186 0.0
H455 H 0.66755 0.50195 0.81163 0.0
H456 H 0.68495 0.50278 0.78405 0.0
H457 H 0.66134 0.50533 0.77746 0.0
C458 C 0.63816 0.53511 0.89767 0.0
N459 N 0.63457 0.53426 0.87087 0.0
N460 N 0.65195 0.53699 0.85782 0.0
C461 C 0.66703 0.53903 0.87619 0.0
C462 C 0.65864 0.53769 0.90207 0.0
C463 C 0.62279 0.53484 0.91871 0.0
H464 H 0.61387 0.5428 0.91079 0.0
H465 H 0.61088 0.51773 0.92408 0.0
H466 H 0.63165 0.54346 0.93738 0.0
O467 O 0.61556 0.55334 0.82832 0.0
O468 O 0.6446 0.55984 0.80453 0.0
H469 H 0.6991 0.55716 0.85977 0.0
H470 H 0.69664 0.53906 0.88711 0.0
C471 C 0.68843 0.54097 0.86903 0.0
H472 H 0.68585 0.52837 0.85385 0.0
H473 H 0.6921 0.57929 0.80939 0.0
O474 O 0.58515 0.52446 0.87358 0.0
C475 C 0.62972 0.56424 0.81044 0.0
Co476 Co 0.07947 0.6127 0.85315 0.0
Co477 Co 0.11064 0.65443 0.82018 0.0
C478 C 0.10894 0.61149 0.81067 0.0
O479 O 0.09462 0.60252 0.82916 0.0
O480 O 0.11699 0.63167 0.80494 0.0
C481 C 0.06227 0.57402 0.88749 0.0
O482 O 0.08116 0.57495 0.88473 0.0
C483 C 0.15137 0.6908 0.79806 0.0
C484 C 0.14212 0.7162 0.79415 0.0
C485 C 0.15927 0.71233 0.79052 0.0
N486 N 0.13052 0.6824 0.80588 0.0
N487 N 0.12506 0.69762 0.80326 0.0
C488 C 0.16372 0.67882 0.79968 0.0
H489 H 0.15724 0.66674 0.8164 0.0
H490 H 0.18136 0.69028 0.80283 0.0
H491 H 0.16158 0.66992 0.78039 0.0
C492 C 0.10191 0.6414 0.89916 0.0
N493 N 0.09912 0.63764 0.8724 0.0
N494 N 0.11215 0.65561 0.85909 0.0
C495 C 0.12363 0.67161 0.8773 0.0
C496 C 0.1173 0.66312 0.90329 0.0
C497 C 0.0906 0.62408 0.92021 0.0
H498 H 0.09292 0.61013 0.91541 0.0
H499 H 0.09704 0.6298 0.94087 0.0
H500 H 0.07288 0.6183 0.91977 0.0
O501 O 0.05989 0.6185 0.83129 0.0
O502 O 0.08118 0.64782 0.80709 0.0
H503 H 0.14651 0.70508 0.88817 0.0
H504 H 0.15248 0.69543 0.85716 0.0
C505 C 0.1393 0.69477 0.86995 0.0
H506 H 0.13067 0.70138 0.85799 0.0
H507 H 0.10977 0.69541 0.8082 0.0
O508 O 0.05938 0.58871 0.87694 0.0
C509 C 0.06227 0.63263 0.81376 0.0
Co510 Co 0.47356 0.08339 0.85392 0.0
Co511 Co 0.46162 0.11334 0.82044 0.0
C512 C 0.50442 0.11419 0.81269 0.0
O513 O 0.49944 0.09989 0.83113 0.0
O514 O 0.49152 0.12122 0.80637 0.0
C515 C 0.49505 0.06646 0.88909 0.0
O516 O 0.51318 0.08513 0.88595 0.0
C517 C 0.46403 0.15308 0.79766 0.0
C518 C 0.42898 0.14213 0.79342 0.0
C519 C 0.44961 0.15992 0.78976 0.0
N520 N 0.45238 0.1322 0.80572 0.0
N521 N 0.43147 0.12573 0.8029 0.0
C522 C 0.48831 0.16642 0.7993 0.0
H523 H 0.49438 0.16067 0.81634 0.0
H524 H 0.49369 0.18394 0.80197 0.0
H525 H 0.4954 0.16441 0.78021 0.0
C526 C 0.46467 0.10425 0.89952 0.0
N527 N 0.46643 0.10189 0.87282 0.0
N528 N 0.46088 0.11437 0.85931 0.0
C529 C 0.4551 0.125 0.87731 0.0
C530 C 0.4571 0.1187 0.90338 0.0
C531 C 0.47105 0.09344 0.92083 0.0
H532 H 0.45944 0.07564 0.92059 0.0
H533 H 0.4875 0.09614 0.91618 0.0
H534 H 0.4715 0.09997 0.94137 0.0
O535 O 0.44939 0.06321 0.83072 0.0
O536 O 0.4402 0.08365 0.80658 0.0
H537 H 0.43144 0.13048 0.85763 0.0
H538 H 0.44292 0.14669 0.88772 0.0
C539 C 0.44657 0.13977 0.86964 0.0
H540 H 0.45873 0.15319 0.85679 0.0
H541 H 0.41887 0.11019 0.80793 0.0
O542 O 0.47759 0.0637 0.8783 0.0
C543 C 0.43754 0.06505 0.81282 0.0
Co544 Co 0.3886 0.46809 0.8506 0.0
Co545 Co 0.34718 0.4597 0.81843 0.0
C546 C 0.38978 0.50091 0.81073 0.0
O547 O 0.39863 0.49449 0.82816 0.0
O548 O 0.36961 0.48926 0.80478 0.0
C549 C 0.42554 0.48749 0.88875 0.0
O550 O 0.42226 0.50401 0.89214 0.0
C551 C 0.31065 0.46323 0.79439 0.0
C552 C 0.28559 0.42834 0.79197 0.0
C553 C 0.28936 0.44906 0.78621 0.0
N554 N 0.31895 0.4513 0.80462 0.0
N555 N 0.30387 0.43051 0.80312 0.0
C556 C 0.32357 0.4874 0.79076 0.0
H557 H 0.33825 0.49158 0.77848 0.0
H558 H 0.32919 0.4953 0.81085 0.0
H559 H 0.3141 0.49386 0.78042 0.0
C560 C 0.35985 0.46071 0.89718 0.0
N561 N 0.36355 0.46181 0.87039 0.0
N562 N 0.34622 0.45921 0.85733 0.0
C563 C 0.33106 0.45698 0.8757 0.0
C564 C 0.33936 0.45807 0.90157 0.0
C565 C 0.37527 0.46111 0.91825 0.0
H566 H 0.38414 0.45307 0.91043 0.0
H567 H 0.38721 0.47825 0.9234 0.0
H568 H 0.36646 0.45263 0.937 0.0
O569 O 0.38318 0.44389 0.8271 0.0
O570 O 0.35416 0.43745 0.80329 0.0
H571 H 0.29901 0.43916 0.85917 0.0
H572 H 0.30155 0.45708 0.88675 0.0
C573 C 0.30975 0.45527 0.8686 0.0
H574 H 0.31244 0.46801 0.85357 0.0
H575 H 0.30614 0.41776 0.80956 0.0
O576 O 0.41294 0.47179 0.87347 0.0
C577 C 0.36919 0.43321 0.80895 0.0
Co578 Co 0.91918 0.38816 0.85224 0.0
Co579 Co 0.887 0.34534 0.822 0.0
C580 C 0.88713 0.38704 0.81134 0.0
O581 O 0.90207 0.39664 0.82899 0.0
O582 O 0.87937 0.36684 0.8061 0.0
C583 C 0.93633 0.42644 0.88837 0.0
O584 O 0.91635 0.4221 0.89339 0.0
C585 C 0.84701 0.30799 0.79955 0.0
C586 C 0.85558 0.28205 0.80245 0.0
C587 C 0.83912 0.286 0.79457 0.0
N588 N 0.86722 0.31655 0.80988 0.0
N589 N 0.87224 0.30097 0.81142 0.0
C590 C 0.8351 0.32033 0.79655 0.0
H591 H 0.83996 0.33261 0.81294 0.0
H592 H 0.81721 0.30921 0.79715 0.0
H593 H 0.83954 0.32904 0.77684 0.0
C594 C 0.89884 0.3608 0.90027 0.0
N595 N 0.90109 0.3637 0.87333 0.0
N596 N 0.88657 0.34581 0.86101 0.0
C597 C 0.87406 0.33109 0.88005 0.0
C598 C 0.88139 0.34021 0.90556 0.0
C599 C 0.91401 0.37696 0.9206 0.0
H600 H 0.93068 0.38628 0.91209 0.0
H601 H 0.90824 0.38844 0.92584 0.0
H602 H 0.91456 0.36869 0.93945 0.0
O603 O 0.93813 0.38257 0.82937 0.0
O604 O 0.91636 0.3522 0.80728 0.0
H605 H 0.86036 0.29821 0.86656 0.0
H606 H 0.84438 0.30207 0.89213 0.0
C607 C 0.8547 0.30933 0.87392 0.0
H608 H 0.84483 0.31104 0.85771 0.0
H609 H 0.887 0.30324 0.81892 0.0
O610 O 0.93961 0.41383 0.87334 0.0
C611 C 0.93537 0.36805 0.81229 0.0
Co612 Co 0.07754 0.46627 0.64781 0.0
Co613 Co 0.11008 0.45772 0.68079 0.0
C614 C 0.10827 0.49874 0.68863 0.0
O615 O 0.09339 0.4925 0.67071 0.0
O616 O 0.11666 0.48702 0.69484 0.0
C617 C 0.06161 0.4866 0.60924 0.0
O618 O 0.08164 0.50302 0.60744 0.0
C619 C 0.1503 0.4619 0.7049 0.0
C620 C 0.14045 0.42713 0.70961 0.0
C621 C 0.1575 0.44805 0.71413 0.0
N622 N 0.12992 0.44961 0.69531 0.0
N623 N 0.1242 0.42889 0.69815 0.0
C624 C 0.16164 0.48619 0.70699 0.0
H625 H 0.16249 0.49324 0.68664 0.0
H626 H 0.17821 0.49315 0.71569 0.0
H627 H 0.15191 0.49081 0.72016 0.0
C628 C 0.09951 0.45905 0.60181 0.0
N629 N 0.09675 0.46028 0.62853 0.0
N630 N 0.11132 0.45764 0.64192 0.0
C631 C 0.12435 0.45528 0.62382 0.0
C632 C 0.11736 0.45633 0.59778 0.0
C633 C 0.0844 0.45901 0.58054 0.0
H634 H 0.06748 0.4509 0.58835 0.0
H635 H 0.08941 0.47605 0.57503 0.0
H636 H 0.08481 0.45035 0.56201 0.0
O637 O 0.05831 0.44167 0.67062 0.0
O638 O 0.0806 0.43503 0.69481 0.0
H639 H 0.13802 0.43722 0.64123 0.0
H640 H 0.1537 0.45463 0.61339 0.0
C641 C 0.14368 0.45323 0.63137 0.0
H642 H 0.15385 0.46611 0.64617 0.0
H643 H 0.10907 0.41591 0.69243 0.0
O644 O 0.05761 0.47038 0.62407 0.0
C645 C 0.06139 0.43072 0.68864 0.0
Co646 Co 0.61192 0.07986 0.6467 0.0
Co647 Co 0.65424 0.11 0.67929 0.0
C648 C 0.61265 0.11146 0.68727 0.0
O649 O 0.60304 0.09697 0.66911 0.0
O650 O 0.63256 0.11828 0.69339 0.0
C651 C 0.5735 0.06294 0.61117 0.0
O652 O 0.57555 0.08241 0.61106 0.0
C653 C 0.69161 0.15033 0.70041 0.0
C654 C 0.71547 0.13941 0.70732 0.0
C655 C 0.71271 0.15738 0.70923 0.0
N656 N 0.68241 0.12918 0.6936 0.0
N657 N 0.69672 0.12275 0.69794 0.0
C658 C 0.68076 0.16363 0.69671 0.0
H659 H 0.66889 0.15699 0.67977 0.0
H660 H 0.69297 0.18093 0.69266 0.0
H661 H 0.67176 0.16277 0.7155 0.0
C662 C 0.64148 0.09967 0.60042 0.0
N663 N 0.63747 0.09778 0.62716 0.0
N664 N 0.65558 0.11049 0.64041 0.0
C665 C 0.67187 0.12091 0.62223 0.0
C666 C 0.66346 0.1142 0.5963 0.0
C667 C 0.62419 0.08839 0.57933 0.0
H668 H 0.61718 0.07051 0.58119 0.0
H669 H 0.611 0.09213 0.58289 0.0
H670 H 0.63039 0.09364 0.55847 0.0
O671 O 0.61599 0.05996 0.67034 0.0
O672 O 0.64611 0.08044 0.69364 0.0
H673 H 0.701 0.12724 0.64272 0.0
H674 H 0.70574 0.14214 0.61144 0.0
C675 C 0.69517 0.13598 0.62962 0.0
H676 H 0.69642 0.14993 0.6413 0.0
H677 H 0.69375 0.10701 0.69416 0.0
O678 O 0.58742 0.05981 0.62351 0.0
C679 C 0.62991 0.06185 0.68793 0.0
Co680 Co 0.53119 0.61107 0.64706 0.0
Co681 Co 0.54377 0.65356 0.67939 0.0
C682 C 0.50065 0.61207 0.68774 0.0
O683 O 0.50531 0.6024 0.66945 0.0
O684 O 0.5139 0.63194 0.69386 0.0
C685 C 0.50946 0.57234 0.61223 0.0
O686 O 0.49202 0.57436 0.61223 0.0
C687 C 0.54075 0.69096 0.70005 0.0
C688 C 0.57548 0.71484 0.70724 0.0
C689 C 0.55474 0.71207 0.70888 0.0
N690 N 0.55275 0.68176 0.6935 0.0
N691 N 0.57347 0.69608 0.69799 0.0
C692 C 0.51663 0.68009 0.6961 0.0
H693 H 0.51152 0.6682 0.6792 0.0
H694 H 0.51154 0.69228 0.69185 0.0
H695 H 0.50838 0.6711 0.71485 0.0
C696 C 0.54063 0.64032 0.60057 0.0
N697 N 0.53881 0.6365 0.62735 0.0
N698 N 0.54444 0.65472 0.64048 0.0
C699 C 0.55024 0.67091 0.62216 0.0
C700 C 0.5482 0.6623 0.59627 0.0
C701 C 0.53412 0.62283 0.57965 0.0
H702 H 0.54511 0.61592 0.58093 0.0
H703 H 0.51733 0.60961 0.58392 0.0
H704 H 0.53443 0.62878 0.55881 0.0
O705 O 0.55513 0.61516 0.6707 0.0
O706 O 0.56521 0.64548 0.69373 0.0
H707 H 0.57311 0.69997 0.6427 0.0
H708 H 0.56337 0.7048 0.61112 0.0
C709 C 0.55868 0.69427 0.62937 0.0
H710 H 0.54599 0.69575 0.64076 0.0
H711 H 0.58627 0.69311 0.69442 0.0
O712 O 0.52664 0.58641 0.62418 0.0
C713 C 0.56734 0.6291 0.68814 0.0
Co714 Co 0.92128 0.53119 0.64868 0.0
Co715 Co 0.88794 0.53984 0.67959 0.0
C716 C 0.88859 0.49827 0.68752 0.0
O717 O 0.90405 0.50458 0.67041 0.0
O718 O 0.88031 0.51017 0.6933 0.0
C719 C 0.93883 0.51199 0.61026 0.0
O720 O 0.91884 0.49668 0.60461 0.0
C721 C 0.84778 0.53617 0.70309 0.0
C722 C 0.85692 0.57091 0.70438 0.0
C723 C 0.84031 0.55016 0.71071 0.0
N724 N 0.86789 0.54821 0.69263 0.0
N725 N 0.8732 0.56892 0.69342 0.0
C726 C 0.83705 0.51211 0.70763 0.0
H727 H 0.84739 0.50872 0.72135 0.0
H728 H 0.83585 0.50386 0.68806 0.0
H729 H 0.82069 0.50537 0.71688 0.0
C730 C 0.90178 0.54025 0.60136 0.0
N731 N 0.90337 0.53826 0.62819 0.0
N732 N 0.8883 0.54064 0.6407 0.0
C733 C 0.87601 0.54341 0.62187 0.0
C734 C 0.88411 0.54308 0.59628 0.0
C735 C 0.91788 0.54103 0.58106 0.0
H736 H 0.93428 0.5482 0.59031 0.0
H737 H 0.91275 0.52428 0.57409 0.0
H738 H 0.91877 0.55092 0.56314 0.0
O739 O 0.93966 0.55483 0.67304 0.0
O740 O 0.91692 0.5619 0.69554 0.0
H741 H 0.86135 0.56138 0.63659 0.0
H742 H 0.8461 0.54232 0.60993 0.0
C743 C 0.85621 0.54497 0.62825 0.0
H744 H 0.84632 0.53273 0.64386 0.0
H745 H 0.88807 0.58173 0.68669 0.0
O746 O 0.9421 0.52708 0.62673 0.0
C747 C 0.93617 0.56564 0.69083 0.0
Co748 Co 0.38875 0.91888 0.64777 0.0
Co749 Co 0.34692 0.88826 0.681 0.0
C750 C 0.38846 0.88644 0.6866 0.0
O751 O 0.39781 0.90118 0.66867 0.0
O752 O 0.3687 0.87966 0.6935 0.0
C753 C 0.42654 0.93646 0.61107 0.0
O754 O 0.42457 0.91703 0.61013 0.0
C755 C 0.3098 0.84776 0.70233 0.0
C756 C 0.28565 0.85838 0.70883 0.0
C757 C 0.28859 0.84054 0.7108 0.0
N758 N 0.3189 0.86892 0.69557 0.0
N759 N 0.30443 0.87519 0.69973 0.0
C760 C 0.32078 0.83458 0.69882 0.0
H761 H 0.33236 0.84097 0.68157 0.0
H762 H 0.30865 0.81715 0.69537 0.0
H763 H 0.33013 0.83593 0.71746 0.0
C764 C 0.35846 0.90001 0.60207 0.0
N765 N 0.36286 0.90151 0.6287 0.0
N766 N 0.34499 0.88845 0.64219 0.0
C767 C 0.32849 0.87809 0.62425 0.0
C768 C 0.33649 0.88529 0.59829 0.0
C769 C 0.37541 0.91173 0.58073 0.0
H770 H 0.38276 0.92956 0.58357 0.0
H771 H 0.38845 0.90758 0.58305 0.0
H772 H 0.36881 0.90723 0.55991 0.0
O773 O 0.38526 0.93833 0.6728 0.0
O774 O 0.35554 0.91758 0.69664 0.0
H775 H 0.29915 0.87077 0.64492 0.0
H776 H 0.29479 0.85579 0.6138 0.0
C777 C 0.30542 0.86238 0.63189 0.0
H778 H 0.30481 0.84877 0.64369 0.0
H779 H 0.30728 0.89088 0.69588 0.0
O780 O 0.41282 0.93932 0.62432 0.0
C781 C 0.37175 0.93621 0.6911 0.0
Co782 Co 0.46761 0.38624 0.64481 0.0
Co783 Co 0.4552 0.34396 0.67757 0.0
C784 C 0.49823 0.38577 0.68567 0.0
O785 O 0.49358 0.39533 0.66719 0.0
O786 O 0.48499 0.36592 0.69191 0.0
C787 C 0.48906 0.42506 0.61026 0.0
O788 O 0.50687 0.42371 0.6115 0.0
C789 C 0.45902 0.30721 0.69898 0.0
C790 C 0.42438 0.28251 0.70507 0.0
C791 C 0.44533 0.28594 0.70745 0.0
N792 N 0.44666 0.3159 0.6919 0.0
N793 N 0.42599 0.3011 0.69577 0.0
C794 C 0.48324 0.31869 0.6959 0.0
H795 H 0.48839 0.3303 0.67869 0.0
H796 H 0.48896 0.30686 0.69263 0.0
H797 H 0.49089 0.32807 0.71465 0.0
C798 C 0.45865 0.35688 0.59863 0.0
N799 N 0.46027 0.36076 0.62539 0.0
N800 N 0.45456 0.34259 0.63866 0.0
C801 C 0.44883 0.32634 0.62045 0.0
C802 C 0.45104 0.33487 0.59448 0.0
C803 C 0.46538 0.37432 0.57758 0.0
H804 H 0.48181 0.38794 0.58258 0.0
H805 H 0.46602 0.36845 0.55698 0.0
H806 H 0.45386 0.38063 0.57778 0.0
O807 O 0.4436 0.38206 0.66846 0.0
O808 O 0.43356 0.35185 0.69173 0.0
H809 H 0.43573 0.29239 0.60968 0.0
H810 H 0.45271 0.30147 0.63968 0.0
C811 C 0.44022 0.30298 0.62785 0.0
H812 H 0.42561 0.29736 0.64083 0.0
H813 H 0.41297 0.30361 0.69168 0.0
O814 O 0.47173 0.41053 0.62147 0.0
C815 C 0.43139 0.36818 0.68596 0.0
C816 C 0.48518 0.03286 0.09087 0.0
C817 C 0.49942 0.04771 0.11009 0.0
C818 C 0.48521 0.01342 0.08552 0.0
C819 C 0.49916 0.00847 0.10061 0.0
C820 C 0.51463 0.02417 0.1186 0.0
C821 C 0.5148 0.0438 0.12276 0.0
C822 C 0.46929 0.99759 0.06514 0.0
C823 C 0.52959 0.01944 0.13544 0.0
C824 C 0.47975 0.95103 0.12436 0.0
C825 C 0.49451 0.94642 0.11131 0.0
C826 C 0.48029 0.9708 0.11987 0.0
C827 C 0.49545 0.98593 0.10111 0.0
C828 C 0.50885 0.98034 0.08583 0.0
C829 C 0.50856 0.96078 0.09154 0.0
C830 C 0.46595 0.97624 0.13697 0.0
C831 C 0.52442 0.99552 0.06469 0.0
H832 H 0.47343 0.03603 0.08082 0.0
H833 H 0.52578 0.05525 0.13769 0.0
H834 H 0.47681 0.98974 0.05329 0.0
H835 H 0.45495 0.98455 0.0759 0.0
H836 H 0.46347 0.00574 0.05093 0.0
H837 H 0.54157 0.03388 0.14717 0.0
H838 H 0.51978 0.00605 0.1499 0.0
H839 H 0.53863 0.01395 0.12234 0.0
H840 H 0.46893 0.93999 0.13974 0.0
H841 H 0.51984 0.95709 0.08124 0.0
H842 H 0.45648 0.98124 0.12393 0.0
H843 H 0.47627 0.99017 0.15049 0.0
H844 H 0.45438 0.9623 0.14972 0.0
H845 H 0.51694 0.0035 0.053 0.0
H846 H 0.52951 0.9868 0.05038 0.0
H847 H 0.53922 0.00851 0.07476 0.0
C848 C 0.54803 0.51308 0.09175 0.0
C849 C 0.54853 0.49903 0.11138 0.0
C850 C 0.52863 0.51313 0.08613 0.0
C851 C 0.50969 0.49949 0.10135 0.0
C852 C 0.50987 0.48439 0.12002 0.0
C853 C 0.52923 0.48409 0.12443 0.0
C854 C 0.52879 0.52867 0.0651 0.0
C855 C 0.49015 0.46982 0.13709 0.0
C856 C 0.47058 0.51816 0.12285 0.0
C857 C 0.45141 0.50272 0.11001 0.0
C858 C 0.49015 0.51818 0.11886 0.0
C859 C 0.49064 0.50287 0.10085 0.0
C860 C 0.47185 0.4888 0.08565 0.0
C861 C 0.45225 0.48856 0.09085 0.0
C862 C 0.50971 0.53323 0.13585 0.0
C863 C 0.47204 0.47304 0.06526 0.0
H864 H 0.56294 0.52449 0.08144 0.0
H865 H 0.52961 0.47328 0.13971 0.0
H866 H 0.51341 0.521 0.05327 0.0
H867 H 0.53021 0.54327 0.07528 0.0
H868 H 0.54273 0.53413 0.05091 0.0
H869 H 0.49272 0.45835 0.14978 0.0
H870 H 0.48633 0.47996 0.15065 0.0
H871 H 0.47573 0.46023 0.12402 0.0
H872 H 0.46993 0.52908 0.13775 0.0
H873 H 0.43744 0.47677 0.08068 0.0
H874 H 0.52426 0.54247 0.12286 0.0
H875 H 0.51339 0.52347 0.15026 0.0
H876 H 0.50702 0.54503 0.14765 0.0
H877 H 0.48742 0.48076 0.05344 0.0
H878 H 0.45807 0.46706 0.05101 0.0
H879 H 0.47095 0.45878 0.07599 0.0
C880 C 0.03634 0.54538 0.09059 0.0
C881 C 0.05071 0.54552 0.11021 0.0
C882 C 0.01663 0.52627 0.08504 0.0
C883 C 0.01092 0.50727 0.10034 0.0
C884 C 0.02616 0.50697 0.11869 0.0
C885 C 0.04607 0.52607 0.12304 0.0
C886 C 0.00133 0.52689 0.06427 0.0
C887 C 0.02063 0.48714 0.13572 0.0
C888 C 0.95322 0.47088 0.12415 0.0
C889 C 0.94814 0.45118 0.11162 0.0
C890 C 0.97321 0.48975 0.11932 0.0
C891 C 0.98809 0.489 0.10076 0.0
C892 C 0.98199 0.46974 0.08585 0.0
C893 C 0.9622 0.45085 0.09188 0.0
C894 C 0.97917 0.50987 0.13596 0.0
C895 C 0.9969 0.46863 0.0649 0.0
H896 H 0.04008 0.56043 0.08041 0.0
H897 H 0.05716 0.52618 0.13827 0.0
H898 H 0.99292 0.51139 0.05273 0.0
H899 H 0.98868 0.52909 0.07465 0.0
H900 H 0.01006 0.54058 0.0498 0.0
H901 H 0.03477 0.48916 0.14775 0.0
H902 H 0.00722 0.48403 0.14991 0.0
H903 H 0.01485 0.47253 0.12271 0.0
H904 H 0.94238 0.47115 0.13947 0.0
H905 H 0.95812 0.43564 0.08193 0.0
H906 H 0.98464 0.52425 0.12262 0.0
H907 H 0.99291 0.51321 0.14969 0.0
H908 H 0.96533 0.50809 0.14846 0.0
H909 H 0.00541 0.48401 0.05312 0.0
H910 H 0.98782 0.45484 0.05066 0.0
H911 H 0.00948 0.46624 0.07514 0.0
C912 C 0.02506 0.47876 0.38344 0.0
C913 C 0.0447 0.49089 0.39754 0.0
C914 C 0.00744 0.48203 0.38794 0.0
C915 C 0.00919 0.49725 0.40778 0.0
C916 C 0.0283 0.50816 0.42377 0.0
C917 C 0.04611 0.50524 0.41801 0.0
C918 C 0.98762 0.47042 0.36989 0.0
C919 C 0.03037 0.52367 0.44604 0.0
C920 C 0.97717 0.52411 0.38684 0.0
C921 C 0.95669 0.50995 0.39811 0.0
C922 C 0.99493 0.52107 0.39144 0.0
C923 C 0.99236 0.50387 0.40847 0.0
C924 C 0.97235 0.49093 0.42215 0.0
C925 C 0.95454 0.49383 0.41636 0.0
C926 C 0.01584 0.53503 0.37604 0.0
C927 C 0.96939 0.47324 0.44161 0.0
H928 H 0.02391 0.46766 0.36755 0.0
H929 H 0.0612 0.51441 0.42919 0.0
H930 H 0.97266 0.46158 0.3823 0.0
H931 H 0.98592 0.48252 0.35742 0.0
H932 H 0.9886 0.45857 0.35605 0.0
H933 H 0.04299 0.52584 0.46105 0.0
H934 H 0.03518 0.53983 0.43718 0.0
H935 H 0.01463 0.51781 0.45674 0.0
H936 H 0.979 0.53669 0.37282 0.0
H937 H 0.93882 0.48311 0.4255 0.0
H938 H 0.01852 0.52481 0.36124 0.0
H939 H 0.02993 0.54218 0.39007 0.0
H940 H 0.01557 0.5485 0.36483 0.0
H941 H 0.9667 0.45867 0.43006 0.0
H942 H 0.95514 0.46835 0.45512 0.0
H943 H 0.98417 0.47865 0.45425 0.0
C944 C 0.4558 0.95706 0.41912 0.0
C945 C 0.44444 0.9589 0.39697 0.0
C946 C 0.47676 0.97409 0.4257 0.0
C947 C 0.48676 0.99285 0.409 0.0
C948 C 0.47485 0.99516 0.38747 0.0
C949 C 0.45373 0.97831 0.38204 0.0
C950 C 0.48853 0.97148 0.44961 0.0
C951 C 0.48496 0.01469 0.36878 0.0
C952 C 0.53937 0.04603 0.4178 0.0
C953 C 0.55312 0.04257 0.40065 0.0
C954 C 0.51815 0.02907 0.42343 0.0
C955 C 0.51046 0.00856 0.41085 0.0
C956 C 0.52492 0.00454 0.39543 0.0
C957 C 0.54616 0.02151 0.39086 0.0
C958 C 0.50353 0.03357 0.44121 0.0
C959 C 0.5174 0.98296 0.38143 0.0
H960 H 0.44849 0.9422 0.431 0.0
H961 H 0.445 0.97986 0.36492 0.0
H962 H 0.49912 0.96509 0.44255 0.0
H963 H 0.49902 0.98733 0.4598 0.0
H964 H 0.47688 0.9598 0.46466 0.0
H965 H 0.47316 0.01432 0.35365 0.0
H966 H 0.49142 0.02997 0.38061 0.0
H967 H 0.49885 0.0152 0.35772 0.0
H968 H 0.54483 0.06216 0.42594 0.0
H969 H 0.55677 0.01857 0.37791 0.0
H970 H 0.493 0.01922 0.45402 0.0
H971 H 0.49275 0.03697 0.42833 0.0
H972 H 0.5131 0.04791 0.45451 0.0
H973 H 0.50909 0.96933 0.39599 0.0
H974 H 0.53108 0.98195 0.37195 0.0
H975 H 0.50547 0.98065 0.36535 0.0
C976 C 0.51655 0.46829 0.37839 0.0
C977 C 0.50079 0.44908 0.39083 0.0
C978 C 0.51671 0.48792 0.38243 0.0
C979 C 0.50122 0.48841 0.40015 0.0
C980 C 0.48684 0.46955 0.41503 0.0
C981 C 0.48644 0.44989 0.4097 0.0
C982 C 0.53207 0.50754 0.36573 0.0
C983 C 0.47092 0.46973 0.43518 0.0
C984 C 0.51193 0.54595 0.40906 0.0
C985 C 0.49813 0.54662 0.38921 0.0
C986 C 0.51165 0.52642 0.41489 0.0
C987 C 0.49801 0.50755 0.39956 0.0
C988 C 0.48315 0.50792 0.38064 0.0
C989 C 0.48312 0.5274 0.37609 0.0
C990 C 0.52686 0.52637 0.43624 0.0
C991 C 0.46861 0.4883 0.36344 0.0
H992 H 0.52757 0.46762 0.36367 0.0
H993 H 0.47438 0.43502 0.41952 0.0
H994 H 0.52255 0.51147 0.35124 0.0
H995 H 0.5413 0.52196 0.37892 0.0
H996 H 0.54387 0.50477 0.35406 0.0
H997 H 0.46486 0.45577 0.44944 0.0
H998 H 0.47853 0.48512 0.44699 0.0
H999 H 0.45672 0.46859 0.42423 0.0
H1000 H 0.52341 0.56083 0.41938 0.0
H1001 H 0.47254 0.52796 0.36062 0.0
H1002 H 0.54158 0.52779 0.42638 0.0
H1003 H 0.51898 0.51091 0.44793 0.0
H1004 H 0.53217 0.54023 0.45053 0.0
H1005 H 0.47878 0.48433 0.35014 0.0
H1006 H 0.4574 0.49105 0.35046 0.0
H1007 H 0.45873 0.4739 0.37642 0.0
C1008 C 0.51413 0.04959 0.9132 0.0
C1009 C 0.49539 0.04738 0.90064 0.0
C1010 C 0.516 0.03118 0.91887 0.0
C1011 C 0.49906 0.01033 0.91095 0.0
C1012 C 0.47927 0.00789 0.90092 0.0
C1013 C 0.47758 0.02645 0.89622 0.0
C1014 C 0.53686 0.03422 0.93106 0.0
C1015 C 0.46079 0.98597 0.89214 0.0
C1016 C 0.51585 0.97347 0.87672 0.0
C1017 C 0.50844 0.95607 0.89497 0.0
C1018 C 0.5133 0.99138 0.88214 0.0
C1019 C 0.50372 0.99231 0.90693 0.0
C1020 C 0.49716 0.97528 0.92613 0.0
C1021 C 0.49916 0.95702 0.91962 0.0
C1022 C 0.52005 0.00887 0.86072 0.0
C1023 C 0.48761 0.97599 0.95317 0.0
H1024 H 0.52774 0.0657 0.91734 0.0
H1025 H 0.46284 0.02453 0.88699 0.0
H1026 H 0.53343 0.02091 0.94558 0.0
H1027 H 0.54738 0.0337 0.91477 0.0
H1028 H 0.54604 0.05011 0.94168 0.0
H1029 H 0.44568 0.98648 0.88774 0.0
H1030 H 0.46562 0.98064 0.87353 0.0
H1031 H 0.45716 0.97354 0.90799 0.0
H1032 H 0.52292 0.97269 0.85755 0.0
H1033 H 0.49362 0.94362 0.93385 0.0
H1034 H 0.53243 0.02487 0.86902 0.0
H1035 H 0.50578 0.0103 0.85443 0.0
H1036 H 0.52697 0.00545 0.84241 0.0
H1037 H 0.49502 0.9929 0.96099 0.0
H1038 H 0.48992 0.9658 0.96843 0.0
H1039 H 0.46985 0.96951 0.95088 0.0
C1040 C 0.45885 0.5037 0.91831 0.0
C1041 C 0.4456 0.48838 0.89884 0.0
C1042 C 0.47947 0.50656 0.92463 0.0
C1043 C 0.48715 0.49439 0.91035 0.0
C1044 C 0.47315 0.47783 0.89218 0.0
C1045 C 0.45245 0.47482 0.88699 0.0
C1046 C 0.49349 0.52351 0.94527 0.0
C1047 C 0.48071 0.46463 0.87619 0.0
C1048 C 0.54497 0.52043 0.88569 0.0
C1049 C 0.55232 0.50764 0.89855 0.0
C1050 C 0.52422 0.51728 0.89086 0.0
C1051 C 0.51068 0.50141 0.91005 0.0
C1052 C 0.51882 0.48999 0.92511 0.0
C1053 C 0.53946 0.49292 0.91879 0.0
C1054 C 0.51615 0.52961 0.87394 0.0
C1055 C 0.50531 0.47379 0.94674 0.0
H1056 H 0.45344 0.51391 0.92798 0.0
H1057 H 0.44222 0.46275 0.87213 0.0
H1058 H 0.50327 0.51814 0.95714 0.0
H1059 H 0.50497 0.53886 0.93475 0.0
H1060 H 0.48349 0.52708 0.95945 0.0
H1061 H 0.46737 0.45153 0.8641 0.0
H1062 H 0.49395 0.4755 0.86213 0.0
H1063 H 0.48741 0.45707 0.88995 0.0
H1064 H 0.55487 0.53198 0.87016 0.0
H1065 H 0.54526 0.48331 0.92917 0.0
H1066 H 0.50974 0.53778 0.88714 0.0
H1067 H 0.50258 0.51805 0.86074 0.0
H1068 H 0.52912 0.54214 0.86086 0.0
H1069 H 0.49515 0.47913 0.95781 0.0
H1070 H 0.51574 0.47138 0.96152 0.0
H1071 H 0.49423 0.45782 0.93721 0.0
C1072 C 0.95454 0.45922 0.9187 0.0
C1073 C 0.9552 0.44752 0.89618 0.0
C1074 C 0.9722 0.48003 0.92457 0.0
C1075 C 0.99031 0.48953 0.90677 0.0
C1076 C 0.9912 0.47744 0.88446 0.0
C1077 C 0.97382 0.45648 0.87976 0.0
C1078 C 0.97104 0.49203 0.94919 0.0
C1079 C 0.00992 0.48705 0.86452 0.0
C1080 C 0.02227 0.54915 0.89013 0.0
C1081 C 0.04325 0.55421 0.89825 0.0
C1082 C 0.00429 0.52852 0.89498 0.0
C1083 C 0.0073 0.51282 0.90902 0.0
C1084 C 0.02795 0.51871 0.9201 0.0
C1085 C 0.04587 0.53927 0.9141 0.0
C1086 C 0.98263 0.52288 0.88248 0.0
C1087 C 0.03145 0.50276 0.9365 0.0
H1088 H 0.94025 0.45219 0.9316 0.0
H1089 H 0.97437 0.44752 0.86226 0.0
H1090 H 0.98737 0.50218 0.95842 0.0
H1091 H 0.96478 0.50296 0.94319 0.0
H1092 H 0.95984 0.48055 0.96474 0.0
H1093 H 0.00807 0.47537 0.84831 0.0
H1094 H 0.01106 0.50173 0.85484 0.0
H1095 H 0.02553 0.49223 0.87517 0.0
H1096 H 0.02007 0.5607 0.87808 0.0
H1097 H 0.062 0.54331 0.92094 0.0
H1098 H 0.96936 0.51491 0.89759 0.0
H1099 H 0.97894 0.51118 0.86561 0.0
H1100 H 0.98253 0.53745 0.87436 0.0
H1101 H 0.01746 0.4932 0.95027 0.0
H1102 H 0.04663 0.51114 0.94871 0.0
H1103 H 0.03277 0.49112 0.92268 0.0
C1104 C 0.95644 0.49783 0.57828 0.0
C1105 C 0.9577 0.51024 0.60103 0.0
C1106 C 0.97385 0.4945 0.57152 0.0
C1107 C 0.99236 0.50304 0.58864 0.0
C1108 C 0.99405 0.51646 0.61083 0.0
C1109 C 0.97686 0.52017 0.61644 0.0
C1110 C 0.97187 0.48103 0.54689 0.0
C1111 C 0.01328 0.52561 0.63 0.0
C1112 C 0.02187 0.47318 0.6064 0.0
C1113 C 0.04311 0.48818 0.59799 0.0
C1114 C 0.00455 0.47677 0.60117 0.0
C1115 C 0.00844 0.49554 0.5865 0.0
C1116 C 0.02922 0.50922 0.57499 0.0
C1117 C 0.0465 0.5056 0.58126 0.0
C1118 C 0.98265 0.46173 0.61389 0.0
C1119 C 0.0336 0.52861 0.55783 0.0
H1120 H 0.94178 0.49044 0.56603 0.0
H1121 H 0.97798 0.52985 0.63403 0.0
H1122 H 0.98801 0.48625 0.53761 0.0
H1123 H 0.96458 0.46369 0.55287 0.0
H1124 H 0.96107 0.48211 0.53139 0.0
H1125 H 0.01231 0.53623 0.64583 0.0
H1126 H 0.01407 0.51206 0.64021 0.0
H1127 H 0.0287 0.53523 0.61865 0.0
H1128 H 0.01898 0.4594 0.61889 0.0
H1129 H 0.06277 0.51695 0.57408 0.0
H1130 H 0.96948 0.45654 0.59868 0.0
H1131 H 0.9794 0.4705 0.63023 0.0
H1132 H 0.98186 0.44694 0.62278 0.0
H1133 H 0.01948 0.5247 0.54452 0.0
H1134 H 0.04836 0.53412 0.54508 0.0
H1135 H 0.03623 0.54232 0.57115 0.0
C1136 C 0.54002 0.04575 0.58201 0.0
C1137 C 0.5532 0.04382 0.6017 0.0
C1138 C 0.51938 0.02797 0.57582 0.0
C1139 C 0.51154 0.00833 0.59063 0.0
C1140 C 0.52534 0.00602 0.60943 0.0
C1141 C 0.54614 0.02367 0.61433 0.0
C1142 C 0.50561 0.03066 0.55455 0.0
C1143 C 0.51755 0.98558 0.62617 0.0
C1144 C 0.45323 0.976 0.61353 0.0
C1145 C 0.44658 0.95577 0.60132 0.0
C1146 C 0.47393 0.99383 0.60866 0.0
C1147 C 0.48806 0.99159 0.59035 0.0
C1148 C 0.48058 0.97191 0.57577 0.0
C1149 C 0.46002 0.95398 0.58188 0.0
C1150 C 0.48131 0.01437 0.62505 0.0
C1151 C 0.49471 0.96936 0.55492 0.0
H1152 H 0.54562 0.06123 0.57187 0.0
H1153 H 0.55629 0.02207 0.62954 0.0
H1154 H 0.49548 0.01521 0.54339 0.0
H1155 H 0.49451 0.03536 0.56442 0.0
H1156 H 0.51586 0.04362 0.5398 0.0
H1157 H 0.53064 0.98614 0.63913 0.0
H1158 H 0.50393 0.98332 0.63946 0.0
H1159 H 0.51129 0.97109 0.61285 0.0
H1160 H 0.44287 0.97755 0.62847 0.0
H1161 H 0.45474 0.93847 0.57199 0.0
H1162 H 0.48775 0.02875 0.61154 0.0
H1163 H 0.4947 0.01678 0.63888 0.0
H1164 H 0.46794 0.0138 0.63744 0.0
H1165 H 0.50424 0.98461 0.54314 0.0
H1166 H 0.48484 0.9558 0.54068 0.0
H1167 H 0.50642 0.96571 0.56524 0.0
C1168 C 0.50617 0.4595 0.58295 0.0
C1169 C 0.48996 0.44525 0.60088 0.0
C1170 C 0.50887 0.48017 0.57744 0.0
C1171 C 0.49568 0.4869 0.59117 0.0
C1172 C 0.47843 0.472 0.60792 0.0
C1173 C 0.47555 0.45123 0.61215 0.0
C1174 C 0.52662 0.4952 0.55824 0.0
C1175 C 0.46426 0.4786 0.62346 0.0
C1176 C 0.52036 0.54436 0.61719 0.0
C1177 C 0.50816 0.55189 0.60331 0.0
C1178 C 0.51723 0.52358 0.61233 0.0
C1179 C 0.50212 0.51028 0.5923 0.0
C1180 C 0.49113 0.51852 0.57654 0.0
C1181 C 0.49388 0.53912 0.5827 0.0
C1182 C 0.52888 0.51528 0.63019 0.0
C1183 C 0.47573 0.50527 0.55408 0.0
H1184 H 0.51709 0.45475 0.57382 0.0
H1185 H 0.46292 0.44024 0.62598 0.0
H1186 H 0.52119 0.50468 0.54582 0.0
H1187 H 0.54111 0.50697 0.56999 0.0
H1188 H 0.53163 0.48607 0.54452 0.0
H1189 H 0.45084 0.4647 0.63449 0.0
H1190 H 0.47435 0.49141 0.63844 0.0
H1191 H 0.45704 0.48556 0.60957 0.0
H1192 H 0.53139 0.55419 0.6332 0.0
H1193 H 0.48466 0.54508 0.5717 0.0
H1194 H 0.53795 0.5095 0.61765 0.0
H1195 H 0.51678 0.50123 0.64233 0.0
H1196 H 0.54053 0.52795 0.64434 0.0
H1197 H 0.48172 0.49559 0.54318 0.0
H1198 H 0.47353 0.51583 0.53928 0.0
H1199 H 0.45956 0.49376 0.56278 0.0
C1200 C 0.46397 0.26508 0.28518 0.0
C1201 C 0.44935 0.27063 0.2736 0.0
C1202 C 0.46568 0.24743 0.27516 0.0
C1203 C 0.45234 0.23507 0.2532 0.0
C1204 C 0.43799 0.24104 0.24103 0.0
C1205 C 0.43657 0.25865 0.25152 0.0
C1206 C 0.48105 0.24146 0.28877 0.0
C1207 C 0.42354 0.22834 0.21753 0.0
C1208 C 0.46333 0.19596 0.21267 0.0
C1209 C 0.44782 0.17586 0.22361 0.0
C1210 C 0.46564 0.21553 0.22281 0.0
C1211 C 0.452 0.21487 0.24421 0.0
C1212 C 0.4367 0.1946 0.25572 0.0
C1213 C 0.4347 0.17534 0.24514 0.0
C1214 C 0.48201 0.23681 0.20989 0.0
C1215 C 0.42188 0.19318 0.2786 0.0
H1216 H 0.47342 0.27395 0.30275 0.0
H1217 H 0.42519 0.26291 0.24267 0.0
H1218 H 0.47153 0.22555 0.29922 0.0
H1219 H 0.49147 0.23958 0.27347 0.0
H1220 H 0.49169 0.25384 0.3039 0.0
H1221 H 0.41447 0.23604 0.20915 0.0
H1222 H 0.4334 0.22688 0.20108 0.0
H1223 H 0.41159 0.21159 0.22424 0.0
H1224 H 0.47303 0.19633 0.19549 0.0
H1225 H 0.42263 0.15976 0.25348 0.0
H1226 H 0.49232 0.24868 0.22564 0.0
H1227 H 0.47333 0.24395 0.19905 0.0
H1228 H 0.49273 0.23473 0.19523 0.0
H1229 H 0.43157 0.20406 0.29547 0.0
H1230 H 0.41201 0.17634 0.28656 0.0
H1231 H 0.41063 0.19875 0.2714 0.0
C1232 C 0.24802 0.43459 0.21034 0.0
C1233 C 0.26953 0.44763 0.21913 0.0
C1234 C 0.23105 0.43661 0.22188 0.0
C1235 C 0.23567 0.4517 0.24318 0.0
C1236 C 0.25749 0.46532 0.25168 0.0
C1237 C 0.27423 0.46319 0.23942 0.0
C1238 C 0.20805 0.42201 0.21193 0.0
C1239 C 0.26301 0.48135 0.27459 0.0
C1240 C 0.19018 0.46303 0.26155 0.0
C1241 C 0.17931 0.44742 0.28179 0.0
C1242 C 0.20912 0.46525 0.24938 0.0
C1243 C 0.21739 0.4517 0.25795 0.0
C1244 C 0.20697 0.43665 0.2793 0.0
C1245 C 0.18791 0.43453 0.29073 0.0
C1246 C 0.21958 0.48125 0.22642 0.0
C1247 C 0.21545 0.42215 0.28936 0.0
H1248 H 0.24443 0.42259 0.19459 0.0
H1249 H 0.29082 0.47298 0.24659 0.0
H1250 H 0.19826 0.41029 0.2281 0.0
H1251 H 0.20021 0.43179 0.20716 0.0
H1252 H 0.20749 0.41265 0.19359 0.0
H1253 H 0.28088 0.49216 0.27701 0.0
H1254 H 0.25544 0.49157 0.27119 0.0
H1255 H 0.2563 0.47234 0.29384 0.0
H1256 H 0.18329 0.47273 0.25429 0.0
H1257 H 0.17949 0.42249 0.30645 0.0
H1258 H 0.21725 0.47222 0.2072 0.0
H1259 H 0.23738 0.49148 0.22977 0.0
H1260 H 0.21253 0.49206 0.22401 0.0
H1261 H 0.21349 0.41035 0.2733 0.0
H1262 H 0.20674 0.41289 0.30779 0.0
H1263 H 0.23309 0.43198 0.29402 0.0
C1264 C 0.80086 0.26434 0.21154 0.0
C1265 C 0.82024 0.27126 0.22603 0.0
C1266 C 0.78114 0.24663 0.22061 0.0
C1267 C 0.78093 0.23552 0.24457 0.0
C1268 C 0.80036 0.2428 0.25959 0.0
C1269 C 0.81977 0.26051 0.25008 0.0
C1270 C 0.76075 0.23927 0.20403 0.0
C1271 C 0.80085 0.2314 0.28525 0.0
C1272 C 0.72913 0.19664 0.28233 0.0
C1273 C 0.7262 0.17642 0.27409 0.0
C1274 C 0.7463 0.21612 0.27187 0.0
C1275 C 0.76092 0.21527 0.253 0.0
C1276 C 0.75755 0.19485 0.244 0.0
C1277 C 0.74029 0.17569 0.25477 0.0
C1278 C 0.74942 0.23759 0.28199 0.0
C1279 C 0.77276 0.19322 0.22392 0.0
H1280 H 0.80119 0.27213 0.19254 0.0
H1281 H 0.83471 0.26583 0.26138 0.0
H1282 H 0.7557 0.22312 0.19493 0.0
H1283 H 0.74718 0.23736 0.21715 0.0
H1284 H 0.76315 0.25088 0.18746 0.0
H1285 H 0.81699 0.23992 0.29541 0.0
H1286 H 0.78832 0.23026 0.29969 0.0
H1287 H 0.79693 0.21453 0.28045 0.0
H1288 H 0.71864 0.19726 0.29785 0.0
H1289 H 0.73805 0.16004 0.24846 0.0
H1290 H 0.75181 0.2486 0.26472 0.0
H1291 H 0.76429 0.24573 0.29472 0.0
H1292 H 0.73535 0.23551 0.29423 0.0
H1293 H 0.77472 0.20324 0.20573 0.0
H1294 H 0.76685 0.17617 0.21737 0.0
H1295 H 0.7891 0.19968 0.2332 0.0
C1296 C 0.53801 0.80133 0.21057 0.0
C1297 C 0.55035 0.82087 0.22479 0.0
C1298 C 0.53625 0.78179 0.21998 0.0
C1299 C 0.54723 0.78191 0.24402 0.0
C1300 C 0.55935 0.80153 0.25869 0.0
C1301 C 0.56083 0.82076 0.24883 0.0
C1302 C 0.52329 0.76119 0.20372 0.0
C1303 C 0.57129 0.80237 0.28444 0.0
C1304 C 0.53351 0.73024 0.28269 0.0
C1305 C 0.55053 0.72682 0.27468 0.0
C1306 C 0.53163 0.7476 0.27199 0.0
C1307 C 0.5473 0.76194 0.2531 0.0
C1308 C 0.56422 0.75821 0.24451 0.0
C1309 C 0.56568 0.74076 0.25553 0.0
C1310 C 0.51345 0.75114 0.28175 0.0
C1311 C 0.58126 0.77312 0.22443 0.0
H1312 H 0.5304 0.80138 0.19158 0.0
H1313 H 0.57038 0.83584 0.2599 0.0
H1314 H 0.53439 0.75587 0.19529 0.0
H1315 H 0.51141 0.74787 0.21695 0.0
H1316 H 0.51433 0.76344 0.18671 0.0
H1317 H 0.57902 0.81867 0.29418 0.0
H1318 H 0.5599 0.79011 0.29913 0.0
H1319 H 0.58416 0.79827 0.2799 0.0
H1320 H 0.52216 0.71989 0.29812 0.0
H1321 H 0.57892 0.73817 0.24944 0.0
H1322 H 0.50479 0.75319 0.26426 0.0
H1323 H 0.52035 0.76633 0.2939 0.0
H1324 H 0.50146 0.73742 0.29444 0.0
H1325 H 0.57338 0.77495 0.20598 0.0
H1326 H 0.59237 0.76704 0.21836 0.0
H1327 H 0.59116 0.78956 0.23346 0.0
C1328 C 0.72535 0.53431 0.23911 0.0
C1329 C 0.73004 0.54967 0.21854 0.0
C1330 C 0.74205 0.53201 0.25121 0.0
C1331 C 0.76381 0.54525 0.24227 0.0
C1332 C 0.76838 0.56002 0.22059 0.0
C1333 C 0.75147 0.56223 0.20923 0.0
C1334 C 0.73658 0.5163 0.27449 0.0
C1335 C 0.7913 0.5742 0.21015 0.0
C1336 C 0.8121 0.56324 0.2891 0.0
C1337 C 0.82062 0.55021 0.28044 0.0
C1338 C 0.79286 0.56085 0.27791 0.0
C1339 C 0.78216 0.54537 0.25706 0.0
C1340 C 0.7903 0.53163 0.24886 0.0
C1341 C 0.80944 0.53414 0.26078 0.0
C1342 C 0.78454 0.57559 0.28758 0.0
C1343 C 0.77951 0.51515 0.22647 0.0
H1344 H 0.70883 0.52487 0.24666 0.0
H1345 H 0.75505 0.57405 0.19324 0.0
H1346 H 0.74413 0.50603 0.27145 0.0
H1347 H 0.74332 0.52558 0.29355 0.0
H1348 H 0.71872 0.50553 0.27702 0.0
H1349 H 0.79177 0.58321 0.1915 0.0
H1350 H 0.80135 0.58621 0.22591 0.0
H1351 H 0.79892 0.56416 0.2057 0.0
H1352 H 0.82075 0.57562 0.30438 0.0
H1353 H 0.81623 0.52431 0.25375 0.0
H1354 H 0.76694 0.56589 0.29253 0.0
H1355 H 0.7864 0.58712 0.2712 0.0
H1356 H 0.79345 0.58516 0.30575 0.0
H1357 H 0.76171 0.50519 0.23004 0.0
H1358 H 0.78634 0.50411 0.22457 0.0
H1359 H 0.78184 0.52377 0.20691 0.0
C1360 C 0.27462 0.80667 0.26315 0.0
C1361 C 0.26939 0.81659 0.28415 0.0
C1362 C 0.25841 0.78751 0.25081 0.0
C1363 C 0.23654 0.77823 0.25963 0.0
C1364 C 0.2314 0.78771 0.28159 0.0
C1365 C 0.24787 0.80682 0.29348 0.0
C1366 C 0.2645 0.77787 0.22744 0.0
C1367 C 0.20829 0.7783 0.29169 0.0
C1368 C 0.18948 0.74791 0.21109 0.0
C1369 C 0.18104 0.72628 0.21947 0.0
C1370 C 0.20817 0.76484 0.22316 0.0
C1371 C 0.21861 0.76004 0.24432 0.0
C1372 C 0.21062 0.73814 0.25226 0.0
C1373 C 0.19183 0.72148 0.23979 0.0
C1374 C 0.21618 0.78797 0.21404 0.0
C1375 C 0.2213 0.73242 0.27477 0.0
H1376 H 0.29113 0.81443 0.25543 0.0
H1377 H 0.24381 0.81444 0.30977 0.0
H1378 H 0.25721 0.76003 0.23009 0.0
H1379 H 0.25791 0.78053 0.20832 0.0
H1380 H 0.28243 0.78532 0.22529 0.0
H1381 H 0.20734 0.7865 0.3104 0.0
H1382 H 0.19819 0.78006 0.27581 0.0
H1383 H 0.20106 0.76064 0.29592 0.0
H1384 H 0.18119 0.75165 0.19534 0.0
H1385 H 0.18508 0.70487 0.24684 0.0
H1386 H 0.2338 0.79616 0.20911 0.0
H1387 H 0.21414 0.7973 0.23072 0.0
H1388 H 0.20723 0.78877 0.19599 0.0
H1389 H 0.23917 0.7406 0.27157 0.0
H1390 H 0.21476 0.71458 0.27632 0.0
H1391 H 0.21853 0.73831 0.29438 0.0
C1392 C 0.53371 0.80812 0.75957 0.0
C1393 C 0.54721 0.81709 0.78226 0.0
C1394 C 0.53162 0.78942 0.74686 0.0
C1395 C 0.5433 0.77959 0.75716 0.0
C1396 C 0.55615 0.78808 0.7808 0.0
C1397 C 0.55807 0.80683 0.79291 0.0
C1398 C 0.51788 0.78092 0.72161 0.0
C1399 C 0.56872 0.77798 0.79259 0.0
C1400 C 0.53228 0.7234 0.73626 0.0
C1401 C 0.5497 0.72878 0.71853 0.0
C1402 C 0.52926 0.73974 0.74809 0.0
C1403 C 0.54402 0.76187 0.74194 0.0
C1404 C 0.56101 0.76725 0.72306 0.0
C1405 C 0.56373 0.75064 0.71176 0.0
C1406 C 0.51106 0.7334 0.76826 0.0
C1407 C 0.57698 0.79063 0.71576 0.0
H1408 H 0.52565 0.8163 0.75096 0.0
H1409 H 0.56847 0.81374 0.81051 0.0
H1410 H 0.52862 0.78421 0.70377 0.0
H1411 H 0.50698 0.76302 0.7229 0.0
H1412 H 0.5078 0.78868 0.71813 0.0
H1413 H 0.57632 0.78533 0.81237 0.0
H1414 H 0.55785 0.7602 0.79544 0.0
H1415 H 0.58179 0.78023 0.77832 0.0
H1416 H 0.52168 0.70655 0.74198 0.0
H1417 H 0.57716 0.75479 0.69797 0.0
H1418 H 0.50195 0.742 0.76378 0.0
H1419 H 0.51802 0.73834 0.7889 0.0
H1420 H 0.49946 0.71557 0.7683 0.0
H1421 H 0.56817 0.79925 0.7098 0.0
H1422 H 0.58795 0.79192 0.69889 0.0
H1423 H 0.58713 0.79919 0.73368 0.0
C1424 C 0.79956 0.52905 0.71273 0.0
C1425 C 0.81947 0.54519 0.72339 0.0
C1426 C 0.77975 0.5261 0.72291 0.0
C1427 C 0.78 0.53975 0.74403 0.0
C1428 C 0.8001 0.55557 0.75541 0.0
C1429 C 0.81959 0.55818 0.74481 0.0
C1430 C 0.75865 0.50916 0.71018 0.0
C1431 C 0.80109 0.57043 0.778 0.0
C1432 C 0.73633 0.55526 0.75066 0.0
C1433 C 0.72476 0.54316 0.77334 0.0
C1434 C 0.75358 0.55332 0.73996 0.0
C1435 C 0.75961 0.53916 0.75258 0.0
C1436 C 0.74743 0.52627 0.77493 0.0
C1437 C 0.73011 0.52847 0.78512 0.0
C1438 C 0.76606 0.56727 0.71601 0.0
C1439 C 0.75345 0.5111 0.78897 0.0
H1440 H 0.7995 0.51939 0.69566 0.0
H1441 H 0.83502 0.57071 0.75296 0.0
H1442 H 0.74675 0.49913 0.72606 0.0
H1443 H 0.75139 0.51735 0.69853 0.0
H1444 H 0.76106 0.49823 0.69625 0.0
H1445 H 0.81786 0.58061 0.78607 0.0
H1446 H 0.79528 0.58139 0.77044 0.0
H1447 H 0.79021 0.56075 0.79489 0.0
H1448 H 0.73218 0.56667 0.74164 0.0
H1449 H 0.72148 0.51951 0.80309 0.0
H1450 H 0.76772 0.55717 0.70006 0.0
H1451 H 0.78273 0.57963 0.72248 0.0
H1452 H 0.75805 0.57587 0.70703 0.0
H1453 H 0.75582 0.50083 0.77395 0.0
H1454 H 0.74085 0.50033 0.80381 0.0
H1455 H 0.76911 0.5208 0.79989 0.0
C1456 C 0.2503 0.81027 0.71134 0.0
C1457 C 0.27184 0.81869 0.72002 0.0
C1458 C 0.23346 0.79088 0.72219 0.0
C1459 C 0.23823 0.77991 0.7427 0.0
C1460 C 0.26012 0.78787 0.75076 0.0
C1461 C 0.27674 0.80719 0.73919 0.0
C1462 C 0.2104 0.78277 0.7127 0.0
C1463 C 0.26581 0.77676 0.77275 0.0
C1464 C 0.19068 0.75001 0.79054 0.0
C1465 C 0.18114 0.72863 0.78085 0.0
C1466 C 0.21011 0.76658 0.77942 0.0
C1467 C 0.21998 0.76172 0.75763 0.0
C1468 C 0.2109 0.73994 0.74848 0.0
C1469 C 0.19156 0.72357 0.76034 0.0
C1470 C 0.21945 0.78951 0.79009 0.0
C1471 C 0.22081 0.73417 0.72512 0.0
H1472 H 0.24657 0.81914 0.69639 0.0
H1473 H 0.29336 0.81389 0.74621 0.0
H1474 H 0.20234 0.76518 0.70767 0.0
H1475 H 0.20088 0.78472 0.72921 0.0
H1476 H 0.20976 0.79178 0.69462 0.0
H1477 H 0.28365 0.78318 0.77408 0.0
H1478 H 0.26006 0.77935 0.79257 0.0
H1479 H 0.25751 0.75893 0.7692 0.0
H1480 H 0.18264 0.75386 0.80652 0.0
H1481 H 0.184 0.70707 0.75257 0.0
H1482 H 0.21763 0.79982 0.77456 0.0
H1483 H 0.23711 0.79675 0.79429 0.0
H1484 H 0.21119 0.79012 0.80894 0.0
H1485 H 0.21807 0.74075 0.70605 0.0
H1486 H 0.21359 0.71628 0.72286 0.0
H1487 H 0.23867 0.74167 0.72783 0.0
C1488 C 0.46939 0.19206 0.75902 0.0
C1489 C 0.45414 0.18137 0.77967 0.0
C1490 C 0.47139 0.2109 0.7468 0.0
C1491 C 0.45797 0.21921 0.75575 0.0
C1492 C 0.44343 0.20908 0.77765 0.0
C1493 C 0.44152 0.19013 0.78911 0.0
C1494 C 0.48688 0.2211 0.72331 0.0
C1495 C 0.42909 0.21762 0.78812 0.0
C1496 C 0.46732 0.27516 0.73656 0.0
C1497 C 0.45088 0.26965 0.71724 0.0
C1498 C 0.47061 0.25902 0.74848 0.0
C1499 C 0.45725 0.23699 0.74065 0.0
C1500 C 0.44141 0.23159 0.72009 0.0
C1501 C 0.43827 0.24796 0.70888 0.0
C1502 C 0.48746 0.26537 0.77055 0.0
C1503 C 0.42704 0.20835 0.71085 0.0
H1504 H 0.47891 0.18507 0.75144 0.0
H1505 H 0.4298 0.18187 0.80519 0.0
H1506 H 0.47741 0.218 0.7043 0.0
H1507 H 0.49678 0.23901 0.7259 0.0
H1508 H 0.498 0.2144 0.72101 0.0
H1509 H 0.42042 0.20927 0.80703 0.0
H1510 H 0.43892 0.23536 0.79215 0.0
H1511 H 0.41678 0.21519 0.77255 0.0
H1512 H 0.47684 0.29189 0.74338 0.0
H1513 H 0.42561 0.24375 0.69384 0.0
H1514 H 0.49761 0.25773 0.76706 0.0
H1515 H 0.47916 0.25935 0.79034 0.0
H1516 H 0.49829 0.28331 0.77191 0.0
H1517 H 0.43704 0.20077 0.70594 0.0
H1518 H 0.41719 0.20722 0.69277 0.0
H1519 H 0.41576 0.19869 0.72745 0.0
C1520 C 0.17873 0.44136 0.74892 0.0
C1521 C 0.17856 0.45324 0.72636 0.0
C1522 C 0.19829 0.4438 0.75904 0.0
C1523 C 0.21816 0.45829 0.74601 0.0
C1524 C 0.21817 0.47095 0.72378 0.0
C1525 C 0.19829 0.46821 0.71412 0.0
C1526 C 0.19755 0.43004 0.78284 0.0
C1527 C 0.23901 0.48649 0.70932 0.0
C1528 C 0.26913 0.46962 0.78472 0.0
C1529 C 0.27323 0.45378 0.77378 0.0
C1530 C 0.25186 0.47211 0.77496 0.0
C1531 C 0.23839 0.4583 0.75399 0.0
C1532 C 0.24303 0.44284 0.74226 0.0
C1533 C 0.26032 0.4407 0.75243 0.0
C1534 C 0.24737 0.48872 0.78801 0.0
C1535 C 0.22911 0.42781 0.71983 0.0
H1536 H 0.16343 0.42973 0.7583 0.0
H1537 H 0.19812 0.47698 0.69621 0.0
H1538 H 0.20226 0.41803 0.77609 0.0
H1539 H 0.20937 0.44037 0.79861 0.0
H1540 H 0.18108 0.42104 0.79213 0.0
H1541 H 0.23662 0.49703 0.69468 0.0
H1542 H 0.25175 0.497 0.72411 0.0
H1543 H 0.24517 0.4771 0.6981 0.0
H1544 H 0.27874 0.47936 0.80173 0.0
H1545 H 0.26347 0.4284 0.74403 0.0
H1546 H 0.23214 0.48023 0.80005 0.0
H1547 H 0.2449 0.4985 0.77231 0.0
H1548 H 0.26081 0.49992 0.80164 0.0
H1549 H 0.21253 0.41652 0.72769 0.0
H1550 H 0.23598 0.41798 0.71142 0.0
H1551 H 0.22739 0.43732 0.70312 0.0
C1552 C 0.75129 0.18693 0.71215 0.0
C1553 C 0.72945 0.17906 0.71904 0.0
C1554 C 0.76794 0.20617 0.72358 0.0
C1555 C 0.76262 0.21765 0.74273 0.0
C1556 C 0.7405 0.21024 0.74901 0.0
C1557 C 0.72412 0.19098 0.73704 0.0
C1558 C 0.7913 0.21362 0.71611 0.0
C1559 C 0.73421 0.22196 0.76947 0.0
C1560 C 0.80774 0.24825 0.79364 0.0
C1561 C 0.81795 0.26946 0.78322 0.0
C1562 C 0.78896 0.23149 0.78147 0.0
C1563 C 0.78039 0.236 0.75802 0.0
C1564 C 0.79018 0.25758 0.74795 0.0
C1565 C 0.8089 0.27411 0.76071 0.0
C1566 C 0.77892 0.20875 0.79302 0.0
C1567 C 0.78159 0.26297 0.7229 0.0
H1568 H 0.75541 0.17774 0.69816 0.0
H1569 H 0.70728 0.18471 0.74284 0.0
H1570 H 0.7999 0.23108 0.71034 0.0
H1571 H 0.79991 0.21191 0.7339 0.0
H1572 H 0.79254 0.20405 0.69907 0.0
H1573 H 0.71638 0.21571 0.76965 0.0
H1574 H 0.73924 0.21982 0.79001 0.0
H1575 H 0.74278 0.2397 0.76517 0.0
H1576 H 0.81471 0.24466 0.8111 0.0
H1577 H 0.81703 0.2904 0.75227 0.0
H1578 H 0.78112 0.19803 0.77854 0.0
H1579 H 0.76114 0.20182 0.79599 0.0
H1580 H 0.78633 0.20837 0.8127 0.0
H1581 H 0.78481 0.25561 0.7049 0.0
H1582 H 0.78935 0.28083 0.71959 0.0
H1583 H 0.7637 0.25598 0.72431 0.0
C1584 C 0.41792 0.02268 0.20017 0.0
C1585 C 0.4154 0.04109 0.19953 0.0
C1586 C 0.40511 0.005 0.21714 0.0
C1587 C 0.38884 0.00535 0.23342 0.0
C1588 C 0.38497 0.02308 0.23125 0.0
C1589 C 0.39859 0.04098 0.21469 0.0
C1590 C 0.41019 0.98671 0.21911 0.0
C1591 C 0.3672 0.02369 0.24738 0.0
C1592 C 0.35541 0.95068 0.26819 0.0
C1593 C 0.36717 0.95438 0.29238 0.0
C1594 C 0.3608 0.96776 0.24966 0.0
C1595 C 0.37857 0.9888 0.25531 0.0
C1596 C 0.38914 0.99295 0.28073 0.0
C1597 C 0.38315 0.97578 0.29901 0.0
C1598 C 0.3485 0.96294 0.22327 0.0
C1599 C 0.40822 0.01507 0.2877 0.0
H1600 H 0.43083 0.02255 0.18855 0.0
H1601 H 0.39634 0.05502 0.21403 0.0
H1602 H 0.41637 0.98649 0.23972 0.0
H1603 H 0.39524 0.97076 0.21589 0.0
H1604 H 0.42262 0.98839 0.2041 0.0
H1605 H 0.36237 0.03494 0.23813 0.0
H1606 H 0.3526 0.00722 0.24898 0.0
H1607 H 0.37314 0.02951 0.26821 0.0
H1608 H 0.3428 0.93429 0.26304 0.0
H1609 H 0.39204 0.97898 0.31791 0.0
H1610 H 0.3581 0.9609 0.20696 0.0
H1611 H 0.34595 0.97663 0.2174 0.0
H1612 H 0.33243 0.94775 0.22452 0.0
H1613 H 0.42221 0.01859 0.27433 0.0
H1614 H 0.41351 0.01604 0.3091 0.0
H1615 H 0.40402 0.02798 0.28423 0.0
C1616 C 0.36279 0.40644 0.22106 0.0
C1617 C 0.37763 0.42116 0.20211 0.0
C1618 C 0.36864 0.3943 0.23818 0.0
C1619 C 0.38992 0.39729 0.23666 0.0
C1620 C 0.40454 0.41129 0.21666 0.0
C1621 C 0.39816 0.42286 0.19953 0.0
C1622 C 0.3524 0.37909 0.25877 0.0
C1623 C 0.42749 0.41518 0.21446 0.0
C1624 C 0.41928 0.39412 0.29897 0.0
C1625 C 0.42106 0.3756 0.29361 0.0
C1626 C 0.40812 0.40063 0.28133 0.0
C1627 C 0.39809 0.38815 0.25784 0.0
C1628 C 0.39837 0.36855 0.25331 0.0
C1629 C 0.41 0.36257 0.27115 0.0
C1630 C 0.40839 0.42173 0.28692 0.0
C1631 C 0.3874 0.35452 0.22886 0.0
H1632 H 0.34682 0.40482 0.22304 0.0
H1633 H 0.40977 0.43408 0.18492 0.0
H1634 H 0.35239 0.36344 0.2594 0.0
H1635 H 0.35706 0.38652 0.27922 0.0
H1636 H 0.33562 0.3757 0.25432 0.0
H1637 H 0.43633 0.42541 0.19666 0.0
H1638 H 0.43675 0.42349 0.23305 0.0
H1639 H 0.42729 0.39948 0.21285 0.0
H1640 H 0.42754 0.40425 0.31637 0.0
H1641 H 0.41107 0.34812 0.26693 0.0
H1642 H 0.39165 0.4192 0.28605 0.0
H1643 H 0.41814 0.43387 0.2711 0.0
H1644 H 0.41551 0.42868 0.30704 0.0
H1645 H 0.371 0.35256 0.22584 0.0
H1646 H 0.38575 0.33814 0.23073 0.0
H1647 H 0.39715 0.36251 0.21047 0.0
C1648 C 0.04535 0.40668 0.27272 0.0
C1649 C 0.04432 0.41948 0.29375 0.0
C1650 C 0.02767 0.39531 0.25489 0.0
C1651 C 0.00875 0.39711 0.25793 0.0
C1652 C 0.00728 0.40916 0.27988 0.0
C1653 C 0.02494 0.42 0.29757 0.0
C1654 C 0.02963 0.38219 0.23212 0.0
C1655 C 0.9875 0.41169 0.28382 0.0
C1656 C 0.97455 0.39608 0.19856 0.0
C1657 C 0.95484 0.37672 0.20326 0.0
C1658 C 0.99273 0.40221 0.2152 0.0
C1659 C 0.99135 0.38852 0.23691 0.0
C1660 C 0.9721 0.36815 0.24047 0.0
C1661 C 0.95399 0.36254 0.22372 0.0
C1662 C 0.01287 0.42414 0.21073 0.0
C1663 C 0.97018 0.35288 0.26299 0.0
H1664 H 0.06015 0.40601 0.26972 0.0
H1665 H 0.02382 0.42968 0.31382 0.0
H1666 H 0.01448 0.36618 0.23026 0.0
H1667 H 0.03201 0.39096 0.21267 0.0
H1668 H 0.0436 0.37943 0.23513 0.0
H1669 H 0.98845 0.42066 0.30271 0.0
H1670 H 0.9859 0.42069 0.26638 0.0
H1671 H 0.9725 0.3955 0.28456 0.0
H1672 H 0.97552 0.4071 0.18268 0.0
H1673 H 0.93894 0.34743 0.22733 0.0
H1674 H 0.02763 0.42252 0.21036 0.0
H1675 H 0.01473 0.43517 0.22777 0.0
H1676 H 0.01211 0.4319 0.19151 0.0
H1677 H 0.98517 0.35168 0.26437 0.0
H1678 H 0.95596 0.33628 0.26006 0.0
H1679 H 0.96819 0.35931 0.28263 0.0
C1680 C 0.59313 0.95477 0.21807 0.0
C1681 C 0.57709 0.95449 0.20109 0.0
C1682 C 0.60619 0.97297 0.23444 0.0
C1683 C 0.60274 0.991 0.23427 0.0
C1684 C 0.58746 0.99127 0.21602 0.0
C1685 C 0.57501 0.97314 0.1995 0.0
C1686 C 0.62281 0.97236 0.25299 0.0
C1687 C 0.58303 0.01003 0.21535 0.0
C1688 C 0.60735 0.02203 0.29841 0.0
C1689 C 0.62498 0.0428 0.29255 0.0
C1690 C 0.60077 0.00471 0.28024 0.0
C1691 C 0.61235 0.008 0.25572 0.0
C1692 C 0.63128 0.02836 0.25065 0.0
C1693 C 0.63729 0.04564 0.26905 0.0
C1694 C 0.5804 0.98334 0.28646 0.0
C1695 C 0.64445 0.03228 0.22513 0.0
H1696 H 0.59507 0.94056 0.21916 0.0
H1697 H 0.56277 0.97317 0.18636 0.0
H1698 H 0.63812 0.98834 0.25314 0.0
H1699 H 0.6164 0.96893 0.274 0.0
H1700 H 0.6266 0.95953 0.2469 0.0
H1701 H 0.57192 0.00851 0.19854 0.0
H1702 H 0.57548 0.01067 0.23478 0.0
H1703 H 0.59846 0.02572 0.21309 0.0
H1704 H 0.59786 0.0195 0.31666 0.0
H1705 H 0.65107 0.06154 0.26445 0.0
H1706 H 0.58361 0.96961 0.28451 0.0
H1707 H 0.56748 0.98056 0.27164 0.0
H1708 H 0.5741 0.983 0.30718 0.0
H1709 H 0.64646 0.01807 0.22046 0.0
H1710 H 0.6608 0.04707 0.22676 0.0
H1711 H 0.63576 0.03451 0.20782 0.0
C1712 C 0.5917 0.63696 0.27459 0.0
C1713 C 0.57815 0.62194 0.29422 0.0
C1714 C 0.60407 0.63187 0.25681 0.0
C1715 C 0.60242 0.61112 0.25835 0.0
C1716 C 0.58957 0.59637 0.27893 0.0
C1717 C 0.57782 0.60204 0.29672 0.0
C1718 C 0.61811 0.64828 0.23565 0.0
C1719 C 0.58708 0.57396 0.28118 0.0
C1720 C 0.60555 0.58116 0.19675 0.0
C1721 C 0.62456 0.58024 0.20193 0.0
C1722 C 0.59895 0.59249 0.214 0.0
C1723 C 0.61183 0.60352 0.23685 0.0
C1724 C 0.63199 0.60428 0.24091 0.0
C1725 C 0.63806 0.59248 0.22351 0.0
C1726 C 0.57727 0.59111 0.20892 0.0
C1727 C 0.64648 0.61638 0.2646 0.0
H1728 H 0.59225 0.65246 0.27266 0.0
H1729 H 0.56751 0.5903 0.31184 0.0
H1730 H 0.63411 0.64908 0.234 0.0
H1731 H 0.61003 0.64324 0.2156 0.0
H1732 H 0.62088 0.66482 0.24028 0.0
H1733 H 0.57738 0.56487 0.29919 0.0
H1734 H 0.57886 0.56434 0.26277 0.0
H1735 H 0.60328 0.57521 0.28243 0.0
H1736 H 0.59509 0.57203 0.17997 0.0
H1737 H 0.65292 0.59212 0.22752 0.0
H1738 H 0.579 0.60753 0.2097 0.0
H1739 H 0.56559 0.58113 0.22504 0.0
H1740 H 0.5702 0.58363 0.18898 0.0
H1741 H 0.64749 0.6324 0.26734 0.0
H1742 H 0.6632 0.61902 0.26199 0.0
H1743 H 0.63949 0.60685 0.28343 0.0
C1744 C 0.97542 0.57824 0.29428 0.0
C1745 C 0.95648 0.57974 0.29178 0.0
C1746 C 0.99306 0.58939 0.27662 0.0
C1747 C 0.99204 0.60281 0.25611 0.0
C1748 C 0.97357 0.60553 0.25445 0.0
C1749 C 0.95587 0.59376 0.27214 0.0
C1750 C 0.01228 0.58575 0.27899 0.0
C1751 C 0.97214 0.62015 0.23333 0.0
C1752 C 0.04707 0.63667 0.22213 0.0
C1753 C 0.04531 0.62303 0.20049 0.0
C1754 C 0.02918 0.63132 0.23925 0.0
C1755 C 0.00926 0.61173 0.23484 0.0
C1756 C 0.00699 0.59878 0.2119 0.0
C1757 C 0.02494 0.60468 0.19493 0.0
C1758 C 0.03205 0.64589 0.26303 0.0
C1759 C 0.98615 0.57766 0.20647 0.0
H1760 H 0.9762 0.56755 0.30941 0.0
H1761 H 0.94141 0.59521 0.2702 0.0
H1762 H 0.01337 0.57742 0.2605 0.0
H1763 H 0.02766 0.60156 0.28054 0.0
H1764 H 0.01102 0.57567 0.29689 0.0
H1765 H 0.95879 0.62361 0.23777 0.0
H1766 H 0.98774 0.63581 0.23198 0.0
H1767 H 0.96903 0.61219 0.21319 0.0
H1768 H 0.06263 0.65102 0.22644 0.0
H1769 H 0.02322 0.59413 0.17808 0.0
H1770 H 0.03397 0.63846 0.28186 0.0
H1771 H 0.01748 0.64771 0.2656 0.0
H1772 H 0.04665 0.66231 0.26066 0.0
H1773 H 0.98376 0.56564 0.22246 0.0
H1774 H 0.98633 0.57056 0.18647 0.0
H1775 H 0.97194 0.5802 0.20718 0.0
C1776 C 0.58561 0.97438 0.80009 0.0
C1777 C 0.58285 0.9537 0.79453 0.0
C1778 C 0.59728 0.99196 0.78254 0.0
C1779 C 0.60695 0.98906 0.75901 0.0
C1780 C 0.60603 0.96886 0.75455 0.0
C1781 C 0.59378 0.95129 0.77225 0.0
C1782 C 0.59762 0.01311 0.78807 0.0
C1783 C 0.61682 0.96538 0.73023 0.0
C1784 C 0.60545 0.02305 0.70104 0.0
C1785 C 0.62576 0.04216 0.70341 0.0
C1786 C 0.59969 0.00512 0.71795 0.0
C1787 C 0.61476 0.00603 0.73746 0.0
C1788 C 0.63592 0.02457 0.73858 0.0
C1789 C 0.64111 0.04258 0.72175 0.0
C1790 C 0.57684 0.98584 0.71621 0.0
C1791 C 0.6527 0.02586 0.75846 0.0
H1792 H 0.57758 0.97662 0.81747 0.0
H1793 H 0.59201 0.93549 0.76794 0.0
H1794 H 0.6145 0.02705 0.78702 0.0
H1795 H 0.58795 0.01572 0.77235 0.0
H1796 H 0.59074 0.01324 0.80826 0.0
H1797 H 0.61885 0.95093 0.73282 0.0
H1798 H 0.60665 0.96277 0.71199 0.0
H1799 H 0.63302 0.97992 0.72645 0.0
H1800 H 0.59348 0.02242 0.68683 0.0
H1801 H 0.65695 0.05714 0.72348 0.0
H1802 H 0.56783 0.98476 0.73509 0.0
H1803 H 0.57727 0.97048 0.71433 0.0
H1804 H 0.5676 0.98705 0.69875 0.0
H1805 H 0.64898 0.02958 0.77895 0.0
H1806 H 0.6694 0.03881 0.75285 0.0
H1807 H 0.65235 0.01005 0.75969 0.0
C1808 C 0.64045 0.5915 0.7724 0.0
C1809 C 0.62703 0.58057 0.79463 0.0
C1810 C 0.6354 0.60404 0.75489 0.0
C1811 C 0.6163 0.60527 0.75948 0.0
C1812 C 0.60368 0.59563 0.78299 0.0
C1813 C 0.60933 0.58364 0.80036 0.0
C1814 C 0.64971 0.61478 0.73058 0.0
C1815 C 0.58308 0.59634 0.78865 0.0
C1816 C 0.59768 0.63998 0.72206 0.0
C1817 C 0.58269 0.62474 0.70368 0.0
C1818 C 0.61025 0.63455 0.739 0.0
C1819 C 0.6073 0.61326 0.73796 0.0
C1820 C 0.59308 0.59828 0.71842 0.0
C1821 C 0.58117 0.60428 0.70139 0.0
C1822 C 0.62582 0.65122 0.75891 0.0
C1823 C 0.58916 0.57529 0.71677 0.0
H1824 H 0.65434 0.58952 0.768 0.0
H1825 H 0.599 0.5756 0.8177 0.0
H1826 H 0.642 0.60478 0.71227 0.0
H1827 H 0.65169 0.63113 0.727 0.0
H1828 H 0.66607 0.61648 0.73305 0.0
H1829 H 0.57611 0.58955 0.80888 0.0
H1830 H 0.58627 0.6133 0.78758 0.0
H1831 H 0.57069 0.58676 0.773 0.0
H1832 H 0.59919 0.65592 0.72373 0.0
H1833 H 0.56978 0.59239 0.68717 0.0
H1834 H 0.64111 0.65055 0.76035 0.0
H1835 H 0.61828 0.64768 0.77933 0.0
H1836 H 0.62991 0.668 0.75315 0.0
H1837 H 0.60483 0.57547 0.71483 0.0
H1838 H 0.57861 0.5661 0.69936 0.0
H1839 H 0.58121 0.56639 0.7357 0.0
C1840 C 0.04434 0.64233 0.77645 0.0
C1841 C 0.04263 0.62952 0.79903 0.0
C1842 C 0.02629 0.63652 0.75948 0.0
C1843 C 0.0063 0.6173 0.76501 0.0
C1844 C 0.00401 0.60555 0.78914 0.0
C1845 C 0.02213 0.61191 0.80593 0.0
C1846 C 0.0291 0.64997 0.73452 0.0
C1847 C 0.98305 0.58494 0.79589 0.0
C1848 C 0.9533 0.59586 0.72545 0.0
C1849 C 0.95483 0.58119 0.70774 0.0
C1850 C 0.9706 0.60903 0.74308 0.0
C1851 C 0.98947 0.60693 0.74347 0.0
C1852 C 0.99134 0.59274 0.72491 0.0
C1853 C 0.97418 0.58031 0.70714 0.0
C1854 C 0.96829 0.62451 0.76192 0.0
C1855 C 0.01097 0.58964 0.72482 0.0
H1856 H 0.06 0.65621 0.77119 0.0
H1857 H 0.02045 0.60213 0.82363 0.0
H1858 H 0.03139 0.64189 0.71658 0.0
H1859 H 0.0144 0.65137 0.73088 0.0
H1860 H 0.04353 0.66658 0.73622 0.0
H1861 H 0.98314 0.57912 0.81678 0.0
H1862 H 0.96893 0.58752 0.79385 0.0
H1863 H 0.98061 0.57191 0.78142 0.0
H1864 H 0.93851 0.59681 0.72587 0.0
H1865 H 0.97563 0.56909 0.69354 0.0
H1866 H 0.98399 0.63996 0.76417 0.0
H1867 H 0.96332 0.61699 0.78228 0.0
H1868 H 0.95572 0.6283 0.75461 0.0
H1869 H 0.02612 0.60552 0.72211 0.0
H1870 H 0.01016 0.57846 0.70851 0.0
H1871 H 0.01219 0.58285 0.74459 0.0
C1872 C 0.42161 0.02555 0.80209 0.0
C1873 C 0.42198 0.04529 0.79748 0.0
C1874 C 0.40973 0.00747 0.78529 0.0
C1875 C 0.39753 0.00893 0.76351 0.0
C1876 C 0.3964 0.02818 0.76 0.0
C1877 C 0.40881 0.04624 0.77689 0.0
C1878 C 0.41159 0.98736 0.78969 0.0
C1879 C 0.38309 0.03015 0.73747 0.0
C1880 C 0.39604 0.97524 0.70336 0.0
C1881 C 0.3764 0.95567 0.70746 0.0
C1882 C 0.4025 0.99307 0.72067 0.0
C1883 C 0.38884 0.99156 0.74246 0.0
C1884 C 0.36829 0.97245 0.74565 0.0
C1885 C 0.36237 0.9546 0.72824 0.0
C1886 C 0.42466 0.01303 0.71661 0.0
C1887 C 0.35303 0.97045 0.76821 0.0
H1888 H 0.43153 0.02448 0.81808 0.0
H1889 H 0.40875 0.06131 0.77336 0.0
H1890 H 0.39521 0.97259 0.79021 0.0
H1891 H 0.42066 0.98547 0.77255 0.0
H1892 H 0.42022 0.98815 0.80882 0.0
H1893 H 0.38052 0.04423 0.74057 0.0
H1894 H 0.39165 0.03241 0.71788 0.0
H1895 H 0.36699 0.01507 0.73585 0.0
H1896 H 0.40698 0.97639 0.68726 0.0
H1897 H 0.34706 0.93965 0.73141 0.0
H1898 H 0.43535 0.01482 0.73402 0.0
H1899 H 0.42323 0.0279 0.71582 0.0
H1900 H 0.43271 0.01215 0.69771 0.0
H1901 H 0.35924 0.968 0.78775 0.0
H1902 H 0.33633 0.95648 0.76499 0.0
H1903 H 0.35215 0.9856 0.77001 0.0
C1904 C 0.39037 0.41481 0.79778 0.0
C1905 C 0.37222 0.41727 0.79268 0.0
C1906 C 0.39604 0.40294 0.78022 0.0
C1907 C 0.38301 0.39281 0.75716 0.0
C1908 C 0.36361 0.39359 0.7531 0.0
C1909 C 0.35854 0.40603 0.77078 0.0
C1910 C 0.417 0.40277 0.78528 0.0
C1911 C 0.3489 0.38237 0.72926 0.0
C1912 C 0.41722 0.39289 0.69848 0.0
C1913 C 0.41603 0.37262 0.7014 0.0
C1914 C 0.40544 0.39908 0.71546 0.0
C1915 C 0.39168 0.38448 0.73563 0.0
C1916 C 0.38901 0.36332 0.73731 0.0
C1917 C 0.40143 0.3577 0.72037 0.0
C1918 C 0.40905 0.42192 0.7131 0.0
C1919 C 0.37393 0.34703 0.75793 0.0
H1920 H 0.40095 0.42314 0.81481 0.0
H1921 H 0.34432 0.40758 0.76684 0.0
H1922 H 0.41407 0.38588 0.78469 0.0
H1923 H 0.42891 0.4121 0.76905 0.0
H1924 H 0.42444 0.4101 0.80513 0.0
H1925 H 0.33251 0.38052 0.73211 0.0
H1926 H 0.3562 0.39211 0.71065 0.0
H1927 H 0.34705 0.36604 0.72595 0.0
H1928 H 0.42828 0.40453 0.68377 0.0
H1929 H 0.40017 0.34189 0.72255 0.0
H1930 H 0.41747 0.43135 0.73155 0.0
H1931 H 0.39326 0.42153 0.71165 0.0
H1932 H 0.41908 0.43072 0.69516 0.0
H1933 H 0.38176 0.35128 0.77819 0.0
H1934 H 0.37011 0.33021 0.75291 0.0
H1935 H 0.35848 0.34739 0.75935 0.0
C1936 C 0.04437 0.40272 0.72585 0.0
C1937 C 0.04219 0.41437 0.70424 0.0
C1938 C 0.02668 0.39004 0.74318 0.0
C1939 C 0.0066 0.38947 0.73911 0.0
C1940 C 0.0039 0.39983 0.71613 0.0
C1941 C 0.02161 0.41191 0.69888 0.0
C1942 C 0.02991 0.37846 0.76683 0.0
C1943 C 0.98289 0.39986 0.71103 0.0
C1944 C 0.9533 0.35607 0.77733 0.0
C1945 C 0.95458 0.37144 0.79626 0.0
C1946 C 0.97092 0.36091 0.7599 0.0
C1947 C 0.98988 0.3818 0.76097 0.0
C1948 C 0.99163 0.39685 0.78103 0.0
C1949 C 0.97414 0.39138 0.79857 0.0
C1950 C 0.96876 0.3441 0.7395 0.0
C1951 C 0.01134 0.41945 0.78274 0.0
H1952 H 0.06008 0.40418 0.72993 0.0
H1953 H 0.01956 0.42051 0.682 0.0
H1954 H 0.03262 0.38815 0.78554 0.0
H1955 H 0.01522 0.36227 0.77007 0.0
H1956 H 0.04423 0.37627 0.76377 0.0
H1957 H 0.98282 0.40708 0.69106 0.0
H1958 H 0.96881 0.38305 0.71183 0.0
H1959 H 0.9805 0.40942 0.72711 0.0
H1960 H 0.93839 0.34052 0.7756 0.0
H1961 H 0.97549 0.40338 0.81323 0.0
H1962 H 0.98447 0.34444 0.7368 0.0
H1963 H 0.96401 0.3477 0.71958 0.0
H1964 H 0.95609 0.32743 0.74566 0.0
H1965 H 0.02645 0.41852 0.78435 0.0
H1966 H 0.01059 0.42881 0.80036 0.0
H1967 H 0.01257 0.42865 0.76399 0.0
C1968 C 0.5241 0.13081 0.22894 0.0
C1969 C 0.51787 0.11552 0.20787 0.0
C1970 C 0.5411 0.13442 0.2468 0.0
C1971 C 0.55183 0.12221 0.24375 0.0
C1972 C 0.5463 0.10757 0.22174 0.0
C1973 C 0.52958 0.10455 0.20405 0.0
C1974 C 0.5469 0.15057 0.26961 0.0
C1975 C 0.55715 0.09404 0.21776 0.0
C1976 C 0.60384 0.13209 0.27858 0.0
C1977 C 0.59543 0.11607 0.29888 0.0
C1978 C 0.58987 0.13561 0.26169 0.0
C1979 C 0.56701 0.12257 0.26494 0.0
C1980 C 0.55854 0.10744 0.28654 0.0
C1981 C 0.57283 0.10451 0.30333 0.0
C1982 C 0.59955 0.15234 0.23937 0.0
C1983 C 0.53429 0.09305 0.29069 0.0
H1984 H 0.51533 0.13952 0.23197 0.0
H1985 H 0.52509 0.09279 0.1878 0.0
H1986 H 0.54053 0.14169 0.28899 0.0
H1987 H 0.56484 0.16079 0.27167 0.0
H1988 H 0.53989 0.16136 0.26649 0.0
H1989 H 0.55186 0.08434 0.19876 0.0
H1990 H 0.57511 0.10466 0.21723 0.0
H1991 H 0.55317 0.08267 0.23508 0.0
H1992 H 0.62126 0.14131 0.27515 0.0
H1993 H 0.56608 0.09224 0.31911 0.0
H1994 H 0.59098 0.1618 0.23784 0.0
H1995 H 0.59755 0.14398 0.21969 0.0
H1996 H 0.6172 0.1638 0.24264 0.0
H1997 H 0.52617 0.10295 0.29108 0.0
H1998 H 0.53038 0.08353 0.30981 0.0
H1999 H 0.52729 0.08147 0.27351 0.0
C2000 C 0.46569 0.57373 0.29791 0.0
C2001 C 0.47613 0.59654 0.29601 0.0
C2002 C 0.44825 0.56033 0.28093 0.0
C2003 C 0.44062 0.56986 0.26181 0.0
C2004 C 0.44987 0.59281 0.26124 0.0
C2005 C 0.46774 0.60593 0.27813 0.0
C2006 C 0.43913 0.53597 0.28211 0.0
C2007 C 0.4417 0.60356 0.24184 0.0
C2008 C 0.42096 0.53549 0.19858 0.0
C2009 C 0.3987 0.52182 0.20411 0.0
C2010 C 0.43449 0.55225 0.21632 0.0
C2011 C 0.42554 0.55586 0.24005 0.0
C2012 C 0.40274 0.54354 0.2445 0.0
C2013 C 0.38957 0.52647 0.22659 0.0
C2014 C 0.45871 0.5648 0.21076 0.0
C2015 C 0.39246 0.54744 0.26903 0.0
H2016 H 0.47187 0.56621 0.31172 0.0
H2017 H 0.47546 0.62351 0.27679 0.0
H2018 H 0.42115 0.52736 0.28401 0.0
H2019 H 0.44307 0.53039 0.26301 0.0
H2020 H 0.44584 0.53107 0.29934 0.0
H2021 H 0.44693 0.62055 0.24802 0.0
H2022 H 0.44826 0.60401 0.22129 0.0
H2023 H 0.42365 0.59421 0.24047 0.0
H2024 H 0.42824 0.53236 0.18111 0.0
H2025 H 0.37236 0.51623 0.23089 0.0
H2026 H 0.46735 0.56056 0.22624 0.0
H2027 H 0.465 0.58256 0.21218 0.0
H2028 H 0.46283 0.56117 0.19041 0.0
H2029 H 0.39526 0.5398 0.28705 0.0
H2030 H 0.3746 0.54031 0.26642 0.0
H2031 H 0.3999 0.56513 0.2732 0.0
C2032 C 0.88828 0.46582 0.30599 0.0
C2033 C 0.87854 0.47851 0.30071 0.0
C2034 C 0.88462 0.44842 0.28911 0.0
C2035 C 0.87047 0.44316 0.26662 0.0
C2036 C 0.8589 0.45447 0.26272 0.0
C2037 C 0.86323 0.47219 0.27965 0.0
C2038 C 0.89749 0.437 0.294 0.0
C2039 C 0.84305 0.44882 0.23958 0.0
C2040 C 0.88996 0.42465 0.20635 0.0
C2041 C 0.87828 0.40188 0.20908 0.0
C2042 C 0.88671 0.43814 0.22414 0.0
C2043 C 0.87101 0.42872 0.24502 0.0
C2044 C 0.85803 0.40573 0.24679 0.0
C2045 C 0.86201 0.39254 0.229 0.0
C2046 C 0.90118 0.46255 0.22161 0.0
C2047 C 0.84063 0.39505 0.2682 0.0
H2048 H 0.89991 0.47028 0.32241 0.0
H2049 H 0.85534 0.48164 0.27561 0.0
H2050 H 0.88664 0.41908 0.29357 0.0
H2051 H 0.9097 0.44132 0.27761 0.0
H2052 H 0.9062 0.44158 0.31374 0.0
H2053 H 0.83209 0.45563 0.24269 0.0
H2054 H 0.85219 0.4556 0.22045 0.0
H2055 H 0.83301 0.4309 0.23708 0.0
H2056 H 0.90253 0.43215 0.19104 0.0
H2057 H 0.85274 0.37497 0.23113 0.0
H2058 H 0.91163 0.469 0.23989 0.0
H2059 H 0.89118 0.47055 0.22036 0.0
H2060 H 0.91189 0.46728 0.20348 0.0
H2061 H 0.84834 0.39557 0.28795 0.0
H2062 H 0.82898 0.37774 0.26324 0.0
H2063 H 0.83146 0.40386 0.27064 0.0
C2064 C 0.39229 0.86391 0.28263 0.0
C2065 C 0.40106 0.88351 0.29721 0.0
C2066 C 0.40572 0.859 0.26657 0.0
C2067 C 0.42827 0.87432 0.26448 0.0
C2068 C 0.43727 0.89372 0.27996 0.0
C2069 C 0.42363 0.89793 0.2963 0.0
C2070 C 0.39563 0.83784 0.25104 0.0
C2071 C 0.46113 0.91073 0.27804 0.0
C2072 C 0.47272 0.86613 0.23323 0.0
C2073 C 0.47548 0.87646 0.20808 0.0
C2074 C 0.4561 0.86355 0.25115 0.0
C2075 C 0.44219 0.87173 0.24383 0.0
C2076 C 0.44388 0.88059 0.21766 0.0
C2077 C 0.46032 0.88265 0.2001 0.0
C2078 C 0.4544 0.85341 0.27857 0.0
C2079 C 0.42953 0.88965 0.20893 0.0
H2080 H 0.37492 0.85256 0.28344 0.0
H2081 H 0.43063 0.91313 0.30744 0.0
H2082 H 0.39445 0.84106 0.22928 0.0
H2083 H 0.40594 0.83018 0.25252 0.0
H2084 H 0.37901 0.82613 0.25852 0.0
H2085 H 0.46577 0.92442 0.29243 0.0
H2086 H 0.47139 0.90332 0.28222 0.0
H2087 H 0.46494 0.91746 0.25717 0.0
H2088 H 0.48417 0.86107 0.23952 0.0
H2089 H 0.46198 0.89027 0.18054 0.0
H2090 H 0.4371 0.84244 0.28417 0.0
H2091 H 0.46168 0.86641 0.29415 0.0
H2092 H 0.46311 0.84403 0.27912 0.0
H2093 H 0.41215 0.87763 0.21265 0.0
H2094 H 0.43161 0.8942 0.18713 0.0
H2095 H 0.43359 0.90438 0.22108 0.0
C2096 C 0.60914 0.47203 0.22586 0.0
C2097 C 0.59979 0.4785 0.20541 0.0
C2098 C 0.59596 0.45467 0.24343 0.0
C2099 C 0.57298 0.44393 0.24078 0.0
C2100 C 0.56361 0.44966 0.21928 0.0
C2101 C 0.5771 0.46665 0.2018 0.0
C2102 C 0.60659 0.44857 0.26559 0.0
C2103 C 0.5392 0.43891 0.21578 0.0
C2104 C 0.53024 0.39227 0.27551 0.0
C2105 C 0.5231 0.40098 0.296 0.0
C2106 C 0.54793 0.40597 0.25871 0.0
C2107 C 0.55838 0.42887 0.26218 0.0
C2108 C 0.55219 0.43756 0.28401 0.0
C2109 C 0.53482 0.42354 0.30072 0.0
C2110 C 0.5545 0.39603 0.2362 0.0
C2111 C 0.56267 0.46186 0.28841 0.0
H2112 H 0.62665 0.48089 0.22868 0.0
H2113 H 0.56959 0.47132 0.18603 0.0
H2114 H 0.60499 0.45536 0.28516 0.0
H2115 H 0.59845 0.43061 0.26788 0.0
H2116 H 0.6242 0.45505 0.26157 0.0
H2117 H 0.53458 0.44437 0.19708 0.0
H2118 H 0.53178 0.42095 0.21497 0.0
H2119 H 0.53204 0.44279 0.23344 0.0
H2120 H 0.52154 0.37486 0.2719 0.0
H2121 H 0.5297 0.43053 0.31664 0.0
H2122 H 0.5725 0.40443 0.23424 0.0
H2123 H 0.54788 0.39796 0.21669 0.0
H2124 H 0.54819 0.37838 0.23961 0.0
H2125 H 0.55738 0.46589 0.30768 0.0
H2126 H 0.55828 0.46921 0.27143 0.0
H2127 H 0.58067 0.46955 0.28863 0.0
C2128 C 0.13745 0.60438 0.22551 0.0
C2129 C 0.11996 0.59498 0.2072 0.0
C2130 C 0.14165 0.59128 0.24319 0.0
C2131 C 0.12772 0.56837 0.24295 0.0
C2132 C 0.11065 0.55882 0.22371 0.0
C2133 C 0.10715 0.57219 0.20598 0.0
C2134 C 0.16041 0.60204 0.26284 0.0
C2135 C 0.09518 0.5345 0.22288 0.0
C2136 C 0.136 0.5251 0.27734 0.0
C2137 C 0.12223 0.52009 0.2999 0.0
C2138 C 0.13966 0.54224 0.25971 0.0
C2139 C 0.129 0.55433 0.26455 0.0
C2140 C 0.11653 0.55044 0.28843 0.0
C2141 C 0.11349 0.53356 0.30589 0.0
C2142 C 0.15369 0.54637 0.23496 0.0
C2143 C 0.10471 0.56278 0.29438 0.0
H2144 H 0.14759 0.62195 0.22643 0.0
H2145 H 0.09361 0.56468 0.19191 0.0
H2146 H 0.15409 0.60198 0.28342 0.0
H2147 H 0.16936 0.59292 0.26393 0.0
H2148 H 0.172 0.61919 0.2571 0.0
H2149 H 0.08341 0.52958 0.20583 0.0
H2150 H 0.10439 0.52572 0.22088 0.0
H2151 H 0.08587 0.52913 0.24213 0.0
H2152 H 0.14308 0.51501 0.27268 0.0
H2153 H 0.10308 0.53013 0.32346 0.0
H2154 H 0.16406 0.56411 0.23119 0.0
H2155 H 0.14312 0.53912 0.21694 0.0
H2156 H 0.16428 0.53905 0.23699 0.0
H2157 H 0.11593 0.58057 0.29251 0.0
H2158 H 0.09744 0.55929 0.315 0.0
H2159 H 0.09145 0.55817 0.27936 0.0
C2160 C 0.46823 0.89224 0.79639 0.0
C2161 C 0.47921 0.88046 0.79356 0.0
C2162 C 0.4513 0.8889 0.77883 0.0
C2163 C 0.44478 0.87306 0.7581 0.0
C2164 C 0.45467 0.85998 0.75628 0.0
C2165 C 0.47195 0.86398 0.77388 0.0
C2166 C 0.44141 0.9034 0.78143 0.0
C2167 C 0.44775 0.84249 0.73497 0.0
C2168 C 0.39316 0.86431 0.72326 0.0
C2169 C 0.40192 0.87929 0.70183 0.0
C2170 C 0.40677 0.86057 0.74057 0.0
C2171 C 0.42964 0.87239 0.73662 0.0
C2172 C 0.43835 0.88632 0.7139 0.0
C2173 C 0.42439 0.88941 0.69669 0.0
C2174 C 0.39679 0.84503 0.76403 0.0
C2175 C 0.46262 0.89942 0.70895 0.0
H2176 H 0.47351 0.90492 0.81161 0.0
H2177 H 0.48014 0.85461 0.77167 0.0
H2178 H 0.44544 0.91389 0.76319 0.0
H2179 H 0.42341 0.89344 0.78265 0.0
H2180 H 0.44741 0.91407 0.7996 0.0
H2181 H 0.45385 0.83112 0.73948 0.0
H2182 H 0.42974 0.83303 0.73323 0.0
H2183 H 0.45431 0.85015 0.71498 0.0
H2184 H 0.37581 0.85617 0.72725 0.0
H2185 H 0.43139 0.90084 0.68004 0.0
H2186 H 0.39928 0.85442 0.78298 0.0
H2187 H 0.40474 0.83507 0.76672 0.0
H2188 H 0.37901 0.83398 0.76119 0.0
H2189 H 0.47042 0.91173 0.72525 0.0
H2190 H 0.46663 0.90803 0.68914 0.0
H2191 H 0.46988 0.88874 0.70951 0.0
C2192 C 0.53133 0.42141 0.6965 0.0
C2193 C 0.51827 0.39905 0.70198 0.0
C2194 C 0.54802 0.43527 0.71417 0.0
C2195 C 0.55215 0.4266 0.7378 0.0
C2196 C 0.54027 0.40381 0.74238 0.0
C2197 C 0.52333 0.39029 0.72452 0.0
C2198 C 0.56013 0.45947 0.7085 0.0
C2199 C 0.54459 0.39385 0.76693 0.0
C2200 C 0.60324 0.46794 0.7753 0.0
C2201 C 0.59448 0.47638 0.79406 0.0
C2202 C 0.58959 0.4506 0.758 0.0
C2203 C 0.56673 0.44184 0.75914 0.0
C2204 C 0.55781 0.4496 0.77893 0.0
C2205 C 0.57174 0.46657 0.79624 0.0
C2206 C 0.59971 0.44237 0.7377 0.0
C2207 C 0.53356 0.44096 0.78073 0.0
H2208 H 0.52781 0.42841 0.67902 0.0
H2209 H 0.51353 0.37303 0.72884 0.0
H2210 H 0.55583 0.46797 0.72409 0.0
H2211 H 0.57797 0.46607 0.70967 0.0
H2212 H 0.55619 0.4634 0.68823 0.0
H2213 H 0.53704 0.3759 0.76498 0.0
H2214 H 0.56236 0.40103 0.77025 0.0
H2215 H 0.53775 0.39738 0.78519 0.0
H2216 H 0.62075 0.47521 0.77362 0.0
H2217 H 0.56471 0.47283 0.8107 0.0
H2218 H 0.59892 0.44834 0.71719 0.0
H2219 H 0.59059 0.4243 0.73699 0.0
H2220 H 0.61705 0.44802 0.74249 0.0
H2221 H 0.52787 0.44519 0.76195 0.0
H2222 H 0.52913 0.44775 0.79833 0.0
H2223 H 0.52466 0.42295 0.78244 0.0
C2224 C 0.12961 0.52618 0.72511 0.0
C2225 C 0.11422 0.51902 0.70406 0.0
C2226 C 0.13298 0.54362 0.74199 0.0
C2227 C 0.12045 0.55393 0.73798 0.0
C2228 C 0.10585 0.54759 0.71582 0.0
C2229 C 0.10303 0.53038 0.69909 0.0
C2230 C 0.14907 0.55021 0.76501 0.0
C2231 C 0.09202 0.55797 0.71083 0.0
C2232 C 0.10266 0.57467 0.79791 0.0
C2233 C 0.11445 0.59735 0.79409 0.0
C2234 C 0.1052 0.56051 0.78045 0.0
C2235 C 0.12021 0.56912 0.75875 0.0
C2236 C 0.13317 0.59202 0.75568 0.0
C2237 C 0.13001 0.60589 0.77325 0.0
C2238 C 0.09084 0.53622 0.78439 0.0
C2239 C 0.14973 0.60185 0.7332 0.0
H2240 H 0.13851 0.51772 0.72902 0.0
H2241 H 0.09124 0.52519 0.68277 0.0
H2242 H 0.1591 0.56822 0.76636 0.0
H2243 H 0.14014 0.54428 0.78444 0.0
H2244 H 0.16005 0.54334 0.7627 0.0
H2245 H 0.08284 0.5525 0.69146 0.0
H2246 H 0.08016 0.55371 0.72764 0.0
H2247 H 0.10229 0.57596 0.71042 0.0
H2248 H 0.09065 0.56778 0.81397 0.0
H2249 H 0.13933 0.62337 0.77021 0.0
H2250 H 0.10088 0.52826 0.7855 0.0
H2251 H 0.07974 0.52915 0.76676 0.0
H2252 H 0.0808 0.53215 0.80308 0.0
H2253 H 0.15969 0.59379 0.73198 0.0
H2254 H 0.16075 0.61964 0.73605 0.0
H2255 H 0.14122 0.59924 0.71351 0.0
C2256 C 0.53078 0.13578 0.77526 0.0
C2257 C 0.52444 0.12058 0.79645 0.0
C2258 C 0.54777 0.13919 0.75747 0.0
C2259 C 0.55828 0.12677 0.76061 0.0
C2260 C 0.5528 0.1124 0.78291 0.0
C2261 C 0.53618 0.10969 0.80065 0.0
C2262 C 0.55363 0.15521 0.73448 0.0
C2263 C 0.56333 0.0986 0.78696 0.0
C2264 C 0.57668 0.10738 0.70002 0.0
C2265 C 0.59941 0.11841 0.70335 0.0
C2266 C 0.56324 0.1109 0.71764 0.0
C2267 C 0.57268 0.12623 0.73891 0.0
C2268 C 0.59568 0.13869 0.74115 0.0
C2269 C 0.6088 0.13447 0.72353 0.0
C2270 C 0.53881 0.09701 0.71461 0.0
C2271 C 0.60641 0.15569 0.76299 0.0
H2272 H 0.52202 0.14449 0.77198 0.0
H2273 H 0.53164 0.09803 0.81705 0.0
H2274 H 0.57156 0.16486 0.73179 0.0
H2275 H 0.54655 0.14623 0.71533 0.0
H2276 H 0.5473 0.16653 0.73789 0.0
H2277 H 0.55833 0.08935 0.80631 0.0
H2278 H 0.55873 0.0868 0.77002 0.0
H2279 H 0.58132 0.10891 0.78681 0.0
H2280 H 0.56916 0.09503 0.68444 0.0
H2281 H 0.62633 0.14328 0.72611 0.0
H2282 H 0.5312 0.10737 0.714 0.0
H2283 H 0.53199 0.08604 0.73239 0.0
H2284 H 0.53408 0.08685 0.69597 0.0
H2285 H 0.59828 0.16554 0.765 0.0
H2286 H 0.624 0.16677 0.7588 0.0
H2287 H 0.60489 0.14757 0.78273 0.0
C2288 C 0.42671 0.53128 0.798 0.0
C2289 C 0.40398 0.52125 0.79537 0.0
C2290 C 0.44073 0.54846 0.781 0.0
C2291 C 0.4319 0.55622 0.76107 0.0
C2292 C 0.40902 0.54731 0.7596 0.0
C2293 C 0.3953 0.52976 0.77658 0.0
C2294 C 0.46499 0.55727 0.78317 0.0
C2295 C 0.39899 0.55554 0.73919 0.0
C2296 C 0.47542 0.6077 0.7264 0.0
C2297 C 0.48055 0.59887 0.704 0.0
C2298 C 0.45841 0.59423 0.74422 0.0
C2299 C 0.44657 0.57142 0.73977 0.0
C2300 C 0.45079 0.56268 0.71627 0.0
C2301 C 0.46752 0.5765 0.69862 0.0
C2302 C 0.45397 0.60426 0.76859 0.0
C2303 C 0.43873 0.53846 0.71074 0.0
H2304 H 0.43369 0.525 0.81251 0.0
H2305 H 0.37779 0.52235 0.77458 0.0
H2306 H 0.47089 0.55307 0.76456 0.0
H2307 H 0.47377 0.57528 0.78482 0.0
H2308 H 0.46933 0.55058 0.80094 0.0
H2309 H 0.38164 0.54992 0.74392 0.0
H2310 H 0.40813 0.57361 0.73842 0.0
H2311 H 0.39979 0.54951 0.71872 0.0
H2312 H 0.4852 0.62498 0.73063 0.0
H2313 H 0.47109 0.56944 0.68125 0.0
H2314 H 0.4609 0.60097 0.78694 0.0
H2315 H 0.43618 0.59697 0.7719 0.0
H2316 H 0.46137 0.62219 0.76641 0.0
H2317 H 0.44289 0.53001 0.72657 0.0
H2318 H 0.44285 0.53445 0.69062 0.0
H2319 H 0.42089 0.53187 0.71163 0.0
C2320 C 0.86523 0.46996 0.72218 0.0
C2321 C 0.88204 0.47784 0.70288 0.0
C2322 C 0.86129 0.45249 0.73937 0.0
C2323 C 0.87472 0.44299 0.73754 0.0
C2324 C 0.89081 0.45003 0.71704 0.0
C2325 C 0.89412 0.46718 0.69987 0.0
C2326 C 0.84354 0.44502 0.76043 0.0
C2327 C 0.90566 0.44055 0.71442 0.0
C2328 C 0.89075 0.423 0.79968 0.0
C2329 C 0.88062 0.40047 0.79493 0.0
C2330 C 0.88789 0.43681 0.78196 0.0
C2331 C 0.87426 0.42794 0.75901 0.0
C2332 C 0.86262 0.40506 0.7552 0.0
C2333 C 0.86606 0.39157 0.77311 0.0
C2334 C 0.90074 0.46111 0.78682 0.0
C2335 C 0.84747 0.39491 0.73142 0.0
H2336 H 0.85561 0.47786 0.72449 0.0
H2337 H 0.90704 0.47294 0.68493 0.0
H2338 H 0.83429 0.42698 0.76176 0.0
H2339 H 0.85094 0.45136 0.78059 0.0
H2340 H 0.83201 0.45093 0.75594 0.0
H2341 H 0.91623 0.44665 0.69619 0.0
H2342 H 0.91624 0.44486 0.73261 0.0
H2343 H 0.89598 0.42252 0.71335 0.0
H2344 H 0.90184 0.43011 0.81662 0.0
H2345 H 0.85796 0.37419 0.76937 0.0
H2346 H 0.88985 0.46814 0.78624 0.0
H2347 H 0.913 0.46902 0.77048 0.0
H2348 H 0.90938 0.46527 0.8066 0.0
H2349 H 0.83726 0.40257 0.72841 0.0
H2350 H 0.83665 0.37708 0.7341 0.0
H2351 H 0.85717 0.39767 0.7127 0.0
C2352 C 0.44294 0.13157 0.06125 0.0
C2353 C 0.4604 0.12895 0.06957 0.0
C2354 C 0.44069 0.1357 0.03388 0.0
C2355 C 0.45572 0.13622 0.01452 0.0
C2356 C 0.47443 0.13563 0.02343 0.0
C2357 C 0.47677 0.13258 0.05096 0.0
C2358 C 0.42135 0.13782 0.02561 0.0
C2359 C 0.49084 0.13583 0.00368 0.0
C2360 C 0.43819 0.10741 0.94756 0.0
C2361 C 0.45132 0.12431 0.92978 0.0
C2362 C 0.43785 0.11136 0.97528 0.0
C2363 C 0.45018 0.13296 0.98517 0.0
C2364 C 0.46072 0.15044 0.96658 0.0
C2365 C 0.4616 0.14588 0.93899 0.0
C2366 C 0.4264 0.0921 0.99419 0.0
C2367 C 0.47261 0.17379 0.97601 0.0
H2368 H 0.43036 0.12906 0.07569 0.0
H2369 H 0.49062 0.13122 0.05765 0.0
H2370 H 0.42468 0.14763 0.00684 0.0
H2371 H 0.40716 0.1214 0.02187 0.0
H2372 H 0.41678 0.14549 0.04204 0.0
H2373 H 0.50473 0.1358 0.01407 0.0
H2374 H 0.48279 0.12126 0.9904 0.0
H2375 H 0.49737 0.15041 0.99049 0.0
H2376 H 0.42985 0.09078 0.94015 0.0
H2377 H 0.47153 0.15903 0.92513 0.0
H2378 H 0.4152 0.09427 0.0078 0.0
H2379 H 0.43859 0.0909 0.0071 0.0
H2380 H 0.41687 0.07648 0.98309 0.0
H2381 H 0.46472 0.17605 0.99419 0.0
H2382 H 0.47324 0.18491 0.95972 0.0
H2383 H 0.48961 0.17856 0.9814 0.0
C2384 C 0.31547 0.45912 0.05943 0.0
C2385 C 0.32741 0.44947 0.06843 0.0
C2386 C 0.31007 0.45836 0.03185 0.0
C2387 C 0.31749 0.44838 0.01306 0.0
C2388 C 0.32762 0.43677 0.02267 0.0
C2389 C 0.3321 0.43717 0.05034 0.0
C2390 C 0.29811 0.46981 0.02263 0.0
C2391 C 0.33598 0.42598 0.00351 0.0
C2392 C 0.31024 0.44085 0.93707 0.0
C2393 C 0.33012 0.45833 0.92834 0.0
C2394 C 0.30442 0.43857 0.96466 0.0
C2395 C 0.31919 0.45377 0.98368 0.0
C2396 C 0.33823 0.47254 0.97435 0.0
C2397 C 0.34322 0.47474 0.94671 0.0
C2398 C 0.28338 0.41901 0.97357 0.0
C2399 C 0.3546 0.48918 0.99375 0.0
H2400 H 0.31165 0.46848 0.07351 0.0
H2401 H 0.34098 0.42937 0.05755 0.0
H2402 H 0.31005 0.48674 0.01658 0.0
H2403 H 0.28758 0.46149 0.00488 0.0
H2404 H 0.28791 0.47061 0.0392 0.0
H2405 H 0.34206 0.41634 0.0144 0.0
H2406 H 0.32297 0.41502 0.98933 0.0
H2407 H 0.34954 0.43861 0.99121 0.0
H2408 H 0.29998 0.42826 0.92276 0.0
H2409 H 0.35835 0.48851 0.93972 0.0
H2410 H 0.27653 0.42278 0.99164 0.0
H2411 H 0.28643 0.40557 0.979 0.0
H2412 H 0.27111 0.41312 0.95703 0.0
H2413 H 0.3465 0.49508 0.00781 0.0
H2414 H 0.36787 0.50344 0.98306 0.0
H2415 H 0.36203 0.48151 0.00617 0.0
C2416 C 0.89303 0.33145 0.05579 0.0
C2417 C 0.87564 0.327 0.07306 0.0
C2418 C 0.88967 0.32718 0.028 0.0
C2419 C 0.86825 0.31759 0.01743 0.0
C2420 C 0.85036 0.31024 0.03546 0.0
C2421 C 0.85428 0.31533 0.06322 0.0
C2422 C 0.90931 0.33534 0.00968 0.0
C2423 C 0.82723 0.29882 0.02519 0.0
C2424 C 0.86952 0.34455 0.95121 0.0
C2425 C 0.87249 0.33131 0.93269 0.0
C2426 C 0.86641 0.33934 0.97879 0.0
C2427 C 0.86548 0.31993 0.98795 0.0
C2428 C 0.86582 0.3052 0.96881 0.0
C2429 C 0.86967 0.31123 0.94129 0.0
C2430 C 0.86632 0.35572 0.99832 0.0
C2431 C 0.86376 0.28385 0.97748 0.0
H2432 H 0.90952 0.34011 0.06367 0.0
H2433 H 0.8408 0.31164 0.07671 0.0
H2434 H 0.90724 0.32243 0.99531 0.0
H2435 H 0.91104 0.34932 0.99756 0.0
H2436 H 0.92462 0.34076 0.02126 0.0
H2437 H 0.81557 0.28897 0.04142 0.0
H2438 H 0.82297 0.31109 0.01816 0.0
H2439 H 0.82526 0.28805 0.0078 0.0
H2440 H 0.87111 0.35981 0.94434 0.0
H2441 H 0.87176 0.30085 0.92691 0.0
H2442 H 0.8812 0.36266 0.01109 0.0
H2443 H 0.85206 0.34774 0.01204 0.0
H2444 H 0.86589 0.36933 0.98773 0.0
H2445 H 0.88009 0.28643 0.98279 0.0
H2446 H 0.85712 0.2717 0.96081 0.0
H2447 H 0.85309 0.27707 0.99552 0.0
C2448 C 0.56073 0.89265 0.05444 0.0
C2449 C 0.54781 0.87518 0.07161 0.0
C2450 C 0.56169 0.8894 0.02663 0.0
C2451 C 0.54986 0.86802 0.01594 0.0
C2452 C 0.53929 0.85006 0.03385 0.0
C2453 C 0.53813 0.85386 0.06164 0.0
C2454 C 0.5732 0.9091 0.00843 0.0
C2455 C 0.52752 0.82698 0.02342 0.0
C2456 C 0.52427 0.86965 0.9498 0.0
C2457 C 0.54036 0.8724 0.93123 0.0
C2458 C 0.52637 0.86648 0.97736 0.0
C2459 C 0.54476 0.86537 0.98646 0.0
C2460 C 0.55976 0.8656 0.96728 0.0
C2461 C 0.55755 0.86943 0.93977 0.0
C2462 C 0.50997 0.86648 0.99695 0.0
C2463 C 0.579 0.86344 0.97592 0.0
H2464 H 0.56851 0.9091 0.06242 0.0
H2465 H 0.52833 0.84033 0.07507 0.0
H2466 H 0.5839 0.907 0.99384 0.0
H2467 H 0.56095 0.91101 0.99654 0.0
H2468 H 0.58323 0.92433 0.02009 0.0
H2469 H 0.52556 0.81521 0.03958 0.0
H2470 H 0.51106 0.82286 0.01629 0.0
H2471 H 0.53635 0.82502 0.00606 0.0
H2472 H 0.51067 0.87138 0.94298 0.0
H2473 H 0.56993 0.87137 0.92533 0.0
H2474 H 0.51796 0.88141 0.00962 0.0
H2475 H 0.50372 0.85227 0.01074 0.0
H2476 H 0.4959 0.86603 0.9864 0.0
H2477 H 0.5927 0.8797 0.98157 0.0
H2478 H 0.58464 0.85701 0.95915 0.0
H2479 H 0.57499 0.85256 0.99376 0.0
C2480 C 0.68333 0.53782 0.05987 0.0
C2481 C 0.67193 0.54809 0.06872 0.0
C2482 C 0.68851 0.53815 0.03227 0.0
C2483 C 0.68137 0.54828 0.01333 0.0
C2484 C 0.67182 0.56048 0.02276 0.0
C2485 C 0.6676 0.56054 0.05044 0.0
C2486 C 0.69994 0.52612 0.02325 0.0
C2487 C 0.66376 0.57145 0.00343 0.0
C2488 C 0.68806 0.5549 0.93722 0.0
C2489 C 0.66795 0.53757 0.92884 0.0
C2490 C 0.69411 0.55735 0.96473 0.0
C2491 C 0.67933 0.54253 0.98406 0.0
C2492 C 0.66001 0.52388 0.97511 0.0
C2493 C 0.65481 0.52146 0.94752 0.0
C2494 C 0.71547 0.5767 0.97322 0.0
C2495 C 0.64359 0.50767 0.99484 0.0
H2496 H 0.68688 0.52835 0.07409 0.0
H2497 H 0.65917 0.56883 0.05753 0.0
H2498 H 0.68766 0.50917 0.01773 0.0
H2499 H 0.71031 0.53396 0.00522 0.0
H2500 H 0.71021 0.52538 0.03976 0.0
H2501 H 0.65799 0.5814 0.01417 0.0
H2502 H 0.67685 0.58215 0.98917 0.0
H2503 H 0.65006 0.55891 0.99123 0.0
H2504 H 0.69837 0.56726 0.92269 0.0
H2505 H 0.63951 0.50777 0.9408 0.0
H2506 H 0.72222 0.57295 0.99141 0.0
H2507 H 0.71291 0.59051 0.97824 0.0
H2508 H 0.72762 0.58204 0.95657 0.0
H2509 H 0.65154 0.50154 0.00883 0.0
H2510 H 0.62998 0.4935 0.98443 0.0
H2511 H 0.63665 0.51577 0.0073 0.0
C2512 C 0.14559 0.68426 0.93851 0.0
C2513 C 0.12388 0.67414 0.92988 0.0
C2514 C 0.15077 0.68904 0.96612 0.0
C2515 C 0.13372 0.68255 0.98526 0.0
C2516 C 0.11211 0.67462 0.97605 0.0
C2517 C 0.1076 0.67106 0.94833 0.0
C2518 C 0.17423 0.69931 0.97489 0.0
C2519 C 0.0933 0.6674 0.99557 0.0
C2520 C 0.13332 0.65331 0.04911 0.0
C2521 C 0.13078 0.66601 0.06887 0.0
C2522 C 0.13585 0.65931 0.02178 0.0
C2523 C 0.1372 0.67924 0.01422 0.0
C2524 C 0.13774 0.69358 0.03462 0.0
C2525 C 0.13398 0.68656 0.06177 0.0
C2526 C 0.13481 0.6432 0.00089 0.0
C2527 C 0.14076 0.71566 0.02782 0.0
H2528 H 0.15829 0.68701 0.92414 0.0
H2529 H 0.09088 0.66374 0.94136 0.0
H2530 H 0.17727 0.70913 0.99359 0.0
H2531 H 0.17831 0.68639 0.97911 0.0
H2532 H 0.18534 0.7099 0.95865 0.0
H2533 H 0.0776 0.66209 0.98499 0.0
H2534 H 0.09166 0.65361 0.00803 0.0
H2535 H 0.09635 0.68086 0.00955 0.0
H2536 H 0.1316 0.63775 0.05481 0.0
H2537 H 0.13231 0.69661 0.07705 0.0
H2538 H 0.14938 0.65091 0.98767 0.0
H2539 H 0.12029 0.63794 0.98778 0.0
H2540 H 0.13382 0.62848 0.01027 0.0
H2541 H 0.14963 0.72205 0.00841 0.0
H2542 H 0.14986 0.72751 0.04421 0.0
H2543 H 0.1246 0.71449 0.02613 0.0
C2544 C 0.8599 0.5452 0.43884 0.0
C2545 C 0.88145 0.55652 0.42956 0.0
C2546 C 0.85522 0.54549 0.46649 0.0
C2547 C 0.87261 0.55659 0.48506 0.0
C2548 C 0.89404 0.57002 0.47514 0.0
C2549 C 0.89809 0.57012 0.44737 0.0
C2550 C 0.83198 0.53228 0.47608 0.0
C2551 C 0.91315 0.58217 0.49407 0.0
C2552 C 0.87199 0.56088 0.56169 0.0
C2553 C 0.87566 0.5439 0.56914 0.0
C2554 C 0.86856 0.56402 0.53434 0.0
C2555 C 0.86966 0.55033 0.5142 0.0
C2556 C 0.87156 0.53213 0.52211 0.0
C2557 C 0.87402 0.52891 0.54953 0.0
C2558 C 0.86526 0.58283 0.52705 0.0
C2559 C 0.87313 0.51716 0.50151 0.0
H2560 H 0.84695 0.53488 0.42496 0.0
H2561 H 0.91469 0.5792 0.43992 0.0
H2562 H 0.82865 0.51591 0.48252 0.0
H2563 H 0.82898 0.54017 0.4937 0.0
H2564 H 0.82034 0.5301 0.45963 0.0
H2565 H 0.92846 0.59306 0.48301 0.0
H2566 H 0.90987 0.59211 0.50859 0.0
H2567 H 0.91567 0.57032 0.50599 0.0
H2568 H 0.87301 0.57239 0.5769 0.0
H2569 H 0.87617 0.51538 0.55549 0.0
H2570 H 0.85582 0.5797 0.508 0.0
H2571 H 0.88134 0.59773 0.52425 0.0
H2572 H 0.85666 0.58612 0.54358 0.0
H2573 H 0.85883 0.51024 0.48782 0.0
H2574 H 0.87405 0.50348 0.51116 0.0
H2575 H 0.88789 0.52653 0.48884 0.0
C2576 C 0.30966 0.87134 0.44012 0.0
C2577 C 0.33054 0.87612 0.43204 0.0
C2578 C 0.30349 0.86741 0.46758 0.0
C2579 C 0.31887 0.86909 0.48719 0.0
C2580 C 0.33932 0.87219 0.47863 0.0
C2581 C 0.34466 0.87519 0.45111 0.0
C2582 C 0.28109 0.86293 0.47558 0.0
C2583 C 0.35645 0.87437 0.49867 0.0
C2584 C 0.32712 0.89611 0.55491 0.0
C2585 C 0.32495 0.87942 0.57204 0.0
C2586 C 0.3229 0.89242 0.52713 0.0
C2587 C 0.31562 0.8713 0.51655 0.0
C2588 C 0.31022 0.85374 0.53453 0.0
C2589 C 0.31534 0.85806 0.5622 0.0
C2590 C 0.32889 0.91169 0.50883 0.0
C2591 C 0.30106 0.83077 0.52423 0.0
H2592 H 0.29861 0.87182 0.42531 0.0
H2593 H 0.36055 0.8782 0.44464 0.0
H2594 H 0.27527 0.85295 0.4943 0.0
H2595 H 0.28156 0.87859 0.47936 0.0
H2596 H 0.26917 0.85439 0.45905 0.0
H2597 H 0.3712 0.87602 0.48852 0.0
H2598 H 0.36146 0.88897 0.51153 0.0
H2599 H 0.34979 0.86001 0.51224 0.0
H2600 H 0.3342 0.91254 0.56281 0.0
H2601 H 0.31338 0.84508 0.5756 0.0
H2602 H 0.31549 0.90801 0.49442 0.0
H2603 H 0.34351 0.91522 0.49674 0.0
H2604 H 0.33252 0.92657 0.52041 0.0
H2605 H 0.28975 0.82755 0.50702 0.0
H2606 H 0.29229 0.81866 0.54052 0.0
H2607 H 0.31453 0.82841 0.51692 0.0
C2608 C 0.44004 0.30834 0.43638 0.0
C2609 C 0.45787 0.3283 0.4285 0.0
C2610 C 0.43709 0.30187 0.46375 0.0
C2611 C 0.45184 0.31617 0.4835 0.0
C2612 C 0.47093 0.33529 0.47506 0.0
C2613 C 0.47393 0.34078 0.44756 0.0
C2614 C 0.41736 0.28057 0.47158 0.0
C2615 C 0.48709 0.35125 0.49522 0.0
C2616 C 0.43331 0.32785 0.5495 0.0
C2617 C 0.44583 0.32373 0.5679 0.0
C2618 C 0.43348 0.32357 0.52185 0.0
C2619 C 0.44567 0.31393 0.51265 0.0
C2620 C 0.45556 0.30669 0.53181 0.0
C2621 C 0.45596 0.31212 0.55932 0.0
C2622 C 0.42273 0.33172 0.50232 0.0
C2623 C 0.46728 0.29486 0.52311 0.0
H2624 H 0.42773 0.29846 0.42156 0.0
H2625 H 0.48806 0.3559 0.44122 0.0
H2626 H 0.42017 0.27388 0.49051 0.0
H2627 H 0.40331 0.28312 0.47483 0.0
H2628 H 0.41287 0.26836 0.45512 0.0
H2629 H 0.50132 0.36508 0.48519 0.0
H2630 H 0.47899 0.35794 0.50813 0.0
H2631 H 0.49314 0.34295 0.50874 0.0
H2632 H 0.42503 0.33634 0.55641 0.0
H2633 H 0.4654 0.30861 0.57364 0.0
H2634 H 0.41166 0.31848 0.48847 0.0
H2635 H 0.43535 0.34502 0.4897 0.0
H2636 H 0.41318 0.33805 0.51289 0.0
H2637 H 0.45976 0.28491 0.50467 0.0
H2638 H 0.46717 0.2841 0.53955 0.0
H2639 H 0.48451 0.30686 0.51845 0.0
C2640 C 0.14154 0.45473 0.44036 0.0
C2641 C 0.11985 0.44412 0.43153 0.0
C2642 C 0.14648 0.45441 0.46792 0.0
C2643 C 0.12927 0.44405 0.48689 0.0
C2644 C 0.10756 0.43141 0.47746 0.0
C2645 C 0.10322 0.43124 0.44976 0.0
C2646 C 0.16994 0.4667 0.4769 0.0
C2647 C 0.08858 0.42017 0.49681 0.0
C2648 C 0.12958 0.43862 0.56325 0.0
C2649 C 0.12677 0.45605 0.57111 0.0
C2650 C 0.13309 0.43575 0.53584 0.0
C2651 C 0.1329 0.45018 0.51607 0.0
C2652 C 0.13213 0.4689 0.52447 0.0
C2653 C 0.12959 0.47182 0.55197 0.0
C2654 C 0.13532 0.4164 0.52801 0.0
C2655 C 0.13162 0.48469 0.50428 0.0
H2656 H 0.15449 0.4645 0.42619 0.0
H2657 H 0.08649 0.42265 0.44267 0.0
H2658 H 0.17445 0.48363 0.48231 0.0
H2659 H 0.1726 0.459 0.49499 0.0
H2660 H 0.18098 0.46751 0.4604 0.0
H2661 H 0.07288 0.41008 0.48608 0.0
H2662 H 0.09121 0.40955 0.51094 0.0
H2663 H 0.08723 0.43254 0.50913 0.0
H2664 H 0.12764 0.42651 0.57812 0.0
H2665 H 0.12799 0.4856 0.55829 0.0
H2666 H 0.145 0.41954 0.50917 0.0
H2667 H 0.11892 0.4021 0.52454 0.0
H2668 H 0.14317 0.41212 0.54452 0.0
H2669 H 0.14589 0.49106 0.49058 0.0
H2670 H 0.13162 0.49873 0.51429 0.0
H2671 H 0.11675 0.47616 0.49157 0.0
C2672 C 0.6561 0.12714 0.44921 0.0
C2673 C 0.66937 0.12476 0.43015 0.0
C2674 C 0.66163 0.1301 0.47668 0.0
C2675 C 0.6815 0.13172 0.48514 0.0
C2676 C 0.69632 0.13224 0.46543 0.0
C2677 C 0.68989 0.12835 0.43804 0.0
C2678 C 0.64511 0.1292 0.4968 0.0
C2679 C 0.71822 0.13529 0.47329 0.0
C2680 C 0.68543 0.14153 0.56054 0.0
C2681 C 0.67474 0.11998 0.56983 0.0
C2682 C 0.69071 0.14614 0.53293 0.0
C2683 C 0.68432 0.1287 0.51442 0.0
C2684 C 0.6758 0.10721 0.52441 0.0
C2685 C 0.67153 0.10322 0.55213 0.0
C2686 C 0.70128 0.16942 0.52333 0.0
C2687 C 0.66869 0.08803 0.50556 0.0
H2688 H 0.64051 0.12503 0.44286 0.0
H2689 H 0.70033 0.12682 0.42322 0.0
H2690 H 0.63923 0.1145 0.50973 0.0
H2691 H 0.65266 0.14362 0.5103 0.0
H2692 H 0.6308 0.12861 0.48673 0.0
H2693 H 0.73027 0.14345 0.45677 0.0
H2694 H 0.72452 0.14505 0.49212 0.0
H2695 H 0.71674 0.11915 0.47678 0.0
H2696 H 0.68824 0.15458 0.57436 0.0
H2697 H 0.66369 0.08661 0.55961 0.0
H2698 H 0.68852 0.17322 0.51704 0.0
H2699 H 0.71202 0.17214 0.50563 0.0
H2700 H 0.711 0.18093 0.53975 0.0
H2701 H 0.65466 0.08589 0.49318 0.0
H2702 H 0.66371 0.07262 0.51671 0.0
H2703 H 0.68204 0.09096 0.49144 0.0
C2704 C 0.56628 0.66956 0.55151 0.0
C2705 C 0.55337 0.67335 0.56965 0.0
C2706 C 0.56603 0.67355 0.52377 0.0
C2707 C 0.55331 0.6825 0.51424 0.0
C2708 C 0.54301 0.68949 0.53312 0.0
C2709 C 0.54276 0.6844 0.56073 0.0
C2710 C 0.57727 0.66575 0.50453 0.0
C2711 C 0.53069 0.7006 0.52399 0.0
C2712 C 0.55827 0.68754 0.43781 0.0
C2713 C 0.54075 0.66727 0.43021 0.0
C2714 C 0.56134 0.69414 0.46513 0.0
C2715 C 0.54702 0.67972 0.48511 0.0
C2716 C 0.52824 0.66017 0.477 0.0
C2717 C 0.52509 0.65452 0.44955 0.0
C2718 C 0.58075 0.71579 0.47261 0.0
C2719 C 0.51256 0.64405 0.49743 0.0
H2720 H 0.57489 0.66148 0.55869 0.0
H2721 H 0.53304 0.68767 0.57489 0.0
H2722 H 0.56489 0.65197 0.49226 0.0
H2723 H 0.58788 0.67894 0.49033 0.0
H2724 H 0.58737 0.66018 0.51533 0.0
H2725 H 0.52987 0.7109 0.54041 0.0
H2726 H 0.53838 0.71088 0.50585 0.0
H2727 H 0.51377 0.68815 0.51862 0.0
H2728 H 0.57027 0.69762 0.42278 0.0
H2729 H 0.51114 0.63918 0.44344 0.0
H2730 H 0.59516 0.71379 0.47564 0.0
H2731 H 0.57788 0.7224 0.49158 0.0
H2732 H 0.58472 0.72784 0.45607 0.0
H2733 H 0.5212 0.6379 0.51029 0.0
H2734 H 0.49852 0.62987 0.48764 0.0
H2735 H 0.50619 0.65205 0.51096 0.0
loop_
_geom_bond_atom_site_label_1
_geom_bond_atom_site_label_2
_geom_bond_distance
_geom_bond_site_symmetry_2
_ccdc_geom_bond_type
Co0 O3 1.970 . S
Co0 N17 1.989 . S
Co0 O25 1.967 . S
Co0 O32 1.920 . S
Co1 O4 1.966 . S
Co1 N10 2.022 . S
Co1 N18 1.993 . S
Co1 O26 1.941 . S
C2 O3 1.258 . S
C2 O4 1.263 . S
O3 Co0 1.970 . S
O3 C2 1.258 . S
O4 Co1 1.966 . S
O4 C2 1.263 . S
C5 O6 1.235 . S
C5 O32 1.289 . S
O6 C5 1.235 . S
C7 C9 1.400 . S
C7 N10 1.351 . S
C7 C12 1.501 . S
C8 C9 1.387 . S
C8 N11 1.341 . S
C9 C7 1.400 . S
C9 C8 1.387 . S
N10 Co1 2.022 . S
N10 C7 1.351 . S
N10 N11 1.365 . S
N11 C8 1.341 . S
N11 N10 1.365 . S
N11 H31 0.862 . S
C12 C7 1.501 . S
C12 H13 0.961 . S
C12 H14 0.961 . S
C12 H15 0.960 . S
H13 C12 0.961 . S
H14 C12 0.961 . S
H15 C12 0.960 . S
C16 N17 1.342 . S
C16 C20 1.401 . S
C16 C21 1.499 . S
N17 Co0 1.989 . S
N17 C16 1.342 . S
N17 N18 1.388 . S
N18 Co1 1.993 . S
N18 N17 1.388 . S
N18 C19 1.346 . S
C19 N18 1.346 . S
C19 C20 1.396 . S
C19 C29 1.510 . S
C20 C16 1.401 . S
C20 C19 1.396 . S
C21 C16 1.499 . S
C21 H22 0.959 . S
C21 H23 0.960 . S
C21 H24 0.961 . S
H22 C21 0.959 . S
H23 C21 0.960 . S
H24 C21 0.961 . S
O25 Co0 1.967 . S
O25 C33 1.258 . S
O26 Co1 1.941 . S
O26 C33 1.266 . S
H27 C29 0.959 . S
H28 C29 0.961 . S
C29 C19 1.510 . S
C29 H27 0.959 . S
C29 H28 0.961 . S
C29 H30 0.960 . S
H30 C29 0.960 . S
H31 N11 0.862 . S
O32 Co0 1.920 . S
O32 C5 1.289 . S
C33 O25 1.258 . S
C33 O26 1.266 . S
Co34 O37 1.970 . S
Co34 N51 1.989 . S
Co34 O59 1.967 . S
Co34 O66 1.920 . S
Co35 O38 1.966 . S
Co35 N44 2.022 . S
Co35 N52 1.993 . S
Co35 O60 1.941 . S
C36 O37 1.258 . S
C36 O38 1.263 . S
O37 Co34 1.970 . S
O37 C36 1.258 . S
O38 Co35 1.966 . S
O38 C36 1.263 . S
C39 O40 1.235 . S
C39 O66 1.289 . S
O40 C39 1.235 . S
C41 C43 1.400 . S
C41 N44 1.351 . S
C41 C46 1.501 . S
C42 C43 1.387 . S
C42 N45 1.341 . S
C43 C41 1.400 . S
C43 C42 1.387 . S
N44 Co35 2.022 . S
N44 C41 1.351 . S
N44 N45 1.365 . S
N45 C42 1.341 . S
N45 N44 1.365 . S
N45 H65 0.862 . S
C46 C41 1.501 . S
C46 H47 0.961 . S
C46 H48 0.961 . S
C46 H49 0.960 . S
H47 C46 0.961 . S
H48 C46 0.961 . S
H49 C46 0.960 . S
C50 N51 1.342 . S
C50 C54 1.401 . S
C50 C55 1.499 . S
N51 Co34 1.989 . S
N51 C50 1.342 . S
N51 N52 1.388 . S
N52 Co35 1.993 . S
N52 N51 1.388 . S
N52 C53 1.346 . S
C53 N52 1.346 . S
C53 C54 1.396 . S
C53 C63 1.510 . S
C54 C50 1.401 . S
C54 C53 1.396 . S
C55 C50 1.499 . S
C55 H56 0.959 . S
C55 H57 0.960 . S
C55 H58 0.961 . S
H56 C55 0.959 . S
H57 C55 0.960 . S
H58 C55 0.961 . S
O59 Co34 1.967 . S
O59 C67 1.258 . S
O60 Co35 1.941 . S
O60 C67 1.266 . S
H61 C63 0.959 . S
H62 C63 0.961 . S
C63 C53 1.510 . S
C63 H61 0.959 . S
C63 H62 0.961 . S
C63 H64 0.960 . S
H64 C63 0.960 . S
H65 N45 0.862 . S
O66 Co34 1.920 . S
O66 C39 1.289 . S
C67 O59 1.258 . S
C67 O60 1.266 . S
Co68 O71 1.970 . S
Co68 N85 1.989 . S
Co68 O93 1.967 . S
Co68 O100 1.920 . S
Co69 O72 1.966 . S
Co69 N78 2.022 . S
Co69 N86 1.993 . S
Co69 O94 1.941 . S
C70 O71 1.258 . S
C70 O72 1.263 . S
O71 Co68 1.970 . S
O71 C70 1.258 . S
O72 Co69 1.966 . S
O72 C70 1.263 . S
C73 O74 1.235 . S
C73 O100 1.289 . S
O74 C73 1.235 . S
C75 C77 1.400 . S
C75 N78 1.351 . S
C75 C80 1.501 . S
C76 C77 1.387 . S
C76 N79 1.341 . S
C77 C75 1.400 . S
C77 C76 1.387 . S
N78 Co69 2.022 . S
N78 C75 1.351 . S
N78 N79 1.365 . S
N79 C76 1.341 . S
N79 N78 1.365 . S
N79 H99 0.862 . S
C80 C75 1.501 . S
C80 H81 0.961 . S
C80 H82 0.961 . S
C80 H83 0.960 . S
H81 C80 0.961 . S
H82 C80 0.961 . S
H83 C80 0.960 . S
C84 N85 1.342 . S
C84 C88 1.401 . S
C84 C89 1.499 . S
N85 Co68 1.989 . S
N85 C84 1.342 . S
N85 N86 1.388 . S
N86 Co69 1.993 . S
N86 N85 1.388 . S
N86 C87 1.346 . S
C87 N86 1.346 . S
C87 C88 1.396 . S
C87 C97 1.510 . S
C88 C84 1.401 . S
C88 C87 1.396 . S
C89 C84 1.499 . S
C89 H90 0.959 . S
C89 H91 0.960 . S
C89 H92 0.961 . S
H90 C89 0.959 . S
H91 C89 0.960 . S
H92 C89 0.961 . S
O93 Co68 1.967 . S
O93 C101 1.258 . S
O94 Co69 1.941 . S
O94 C101 1.266 . S
H95 C97 0.959 . S
H96 C97 0.961 . S
C97 C87 1.510 . S
C97 H95 0.959 . S
C97 H96 0.961 . S
C97 H98 0.960 . S
H98 C97 0.960 . S
H99 N79 0.862 . S
O100 Co68 1.920 . S
O100 C73 1.289 . S
C101 O93 1.258 . S
C101 O94 1.266 . S
Co102 O105 1.970 . S
Co102 N119 1.989 . S
Co102 O127 1.967 . S
Co102 O134 1.920 . S
Co103 O106 1.966 . S
Co103 N112 2.022 . S
Co103 N120 1.993 . S
Co103 O128 1.941 . S
C104 O105 1.258 . S
C104 O106 1.263 . S
O105 Co102 1.970 . S
O105 C104 1.258 . S
O106 Co103 1.966 . S
O106 C104 1.263 . S
C107 O108 1.235 . S
C107 O134 1.289 . S
O108 C107 1.235 . S
C109 C111 1.400 . S
C109 N112 1.351 . S
C109 C114 1.501 . S
C110 C111 1.387 . S
C110 N113 1.341 . S
C111 C109 1.400 . S
C111 C110 1.387 . S
N112 Co103 2.022 . S
N112 C109 1.351 . S
N112 N113 1.365 . S
N113 C110 1.341 . S
N113 N112 1.365 . S
N113 H133 0.862 . S
C114 C109 1.501 . S
C114 H115 0.961 . S
C114 H116 0.961 . S
C114 H117 0.960 . S
H115 C114 0.961 . S
H116 C114 0.961 . S
H117 C114 0.960 . S
C118 N119 1.342 . S
C118 C122 1.401 . S
C118 C123 1.499 . S
N119 Co102 1.989 . S
N119 C118 1.342 . S
N119 N120 1.388 . S
N120 Co103 1.993 . S
N120 N119 1.388 . S
N120 C121 1.346 . S
C121 N120 1.346 . S
C121 C122 1.396 . S
C121 C131 1.510 . S
C122 C118 1.401 . S
C122 C121 1.396 . S
C123 C118 1.499 . S
C123 H124 0.959 . S
C123 H125 0.960 . S
C123 H126 0.961 . S
H124 C123 0.959 . S
H125 C123 0.960 . S
H126 C123 0.961 . S
O127 Co102 1.967 . S
O127 C135 1.258 . S
O128 Co103 1.941 . S
O128 C135 1.266 . S
H129 C131 0.959 . S
H130 C131 0.961 . S
C131 C121 1.510 . S
C131 H129 0.959 . S
C131 H130 0.961 . S
C131 H132 0.960 . S
H132 C131 0.960 . S
H133 N113 0.862 . S
O134 Co102 1.920 . S
O134 C107 1.289 . S
C135 O127 1.258 . S
C135 O128 1.266 . S
Co136 O139 1.970 . S
Co136 N153 1.989 . S
Co136 O161 1.967 . S
Co136 O168 1.920 . S
Co137 O140 1.966 . S
Co137 N146 2.022 . S
Co137 N154 1.993 . S
Co137 O162 1.941 . S
C138 O139 1.258 . S
C138 O140 1.263 . S
O139 Co136 1.970 . S
O139 C138 1.258 . S
O140 Co137 1.966 . S
O140 C138 1.263 . S
C141 O142 1.235 . S
C141 O168 1.289 . S
O142 C141 1.235 . S
C143 C145 1.400 . S
C143 N146 1.351 . S
C143 C148 1.501 . S
C144 C145 1.387 . S
C144 N147 1.341 . S
C145 C143 1.400 . S
C145 C144 1.387 . S
N146 Co137 2.022 . S
N146 C143 1.351 . S
N146 N147 1.365 . S
N147 C144 1.341 . S
N147 N146 1.365 . S
N147 H167 0.862 . S
C148 C143 1.501 . S
C148 H149 0.961 . S
C148 H150 0.961 . S
C148 H151 0.960 . S
H149 C148 0.961 . S
H150 C148 0.961 . S
H151 C148 0.960 . S
C152 N153 1.342 . S
C152 C156 1.401 . S
C152 C157 1.499 . S
N153 Co136 1.989 . S
N153 C152 1.342 . S
N153 N154 1.388 . S
N154 Co137 1.993 . S
N154 N153 1.388 . S
N154 C155 1.346 . S
C155 N154 1.346 . S
C155 C156 1.396 . S
C155 C165 1.510 . S
C156 C152 1.401 . S
C156 C155 1.396 . S
C157 C152 1.499 . S
C157 H158 0.959 . S
C157 H159 0.960 . S
C157 H160 0.961 . S
H158 C157 0.959 . S
H159 C157 0.960 . S
H160 C157 0.961 . S
O161 Co136 1.967 . S
O161 C169 1.258 . S
O162 Co137 1.941 . S
O162 C169 1.266 . S
H163 C165 0.959 . S
H164 C165 0.961 . S
C165 C155 1.510 . S
C165 H163 0.959 . S
C165 H164 0.961 . S
C165 H166 0.960 . S
H166 C165 0.960 . S
H167 N147 0.862 . S
O168 Co136 1.920 . S
O168 C141 1.289 . S
C169 O161 1.258 . S
C169 O162 1.266 . S
Co170 O173 1.970 . S
Co170 N187 1.989 . S
Co170 O195 1.967 . S
Co170 O202 1.920 . S
Co171 O174 1.966 . S
Co171 N180 2.022 . S
Co171 N188 1.993 . S
Co171 O196 1.941 . S
C172 O173 1.258 . S
C172 O174 1.263 . S
O173 Co170 1.970 . S
O173 C172 1.258 . S
O174 Co171 1.966 . S
O174 C172 1.263 . S
C175 O176 1.235 . S
C175 O202 1.289 . S
O176 C175 1.235 . S
C177 C179 1.400 . S
C177 N180 1.351 . S
C177 C182 1.501 . S
C178 C179 1.387 . S
C178 N181 1.341 . S
C179 C177 1.400 . S
C179 C178 1.387 . S
N180 Co171 2.022 . S
N180 C177 1.351 . S
N180 N181 1.365 . S
N181 C178 1.341 . S
N181 N180 1.365 . S
N181 H201 0.862 . S
C182 C177 1.501 . S
C182 H183 0.961 . S
C182 H184 0.961 . S
C182 H185 0.960 . S
H183 C182 0.961 . S
H184 C182 0.961 . S
H185 C182 0.960 . S
C186 N187 1.342 . S
C186 C190 1.401 . S
C186 C191 1.499 . S
N187 Co170 1.989 . S
N187 C186 1.342 . S
N187 N188 1.388 . S
N188 Co171 1.993 . S
N188 N187 1.388 . S
N188 C189 1.346 . S
C189 N188 1.346 . S
C189 C190 1.396 . S
C189 C199 1.510 . S
C190 C186 1.401 . S
C190 C189 1.396 . S
C191 C186 1.499 . S
C191 H192 0.959 . S
C191 H193 0.960 . S
C191 H194 0.961 . S
H192 C191 0.959 . S
H193 C191 0.960 . S
H194 C191 0.961 . S
O195 Co170 1.967 . S
O195 C203 1.258 . S
O196 Co171 1.941 . S
O196 C203 1.266 . S
H197 C199 0.959 . S
H198 C199 0.961 . S
C199 C189 1.510 . S
C199 H197 0.959 . S
C199 H198 0.961 . S
C199 H200 0.960 . S
H200 C199 0.960 . S
H201 N181 0.862 . S
O202 Co170 1.920 . S
O202 C175 1.289 . S
C203 O195 1.258 . S
C203 O196 1.266 . S
Co204 O207 1.970 . S
Co204 N221 1.989 . S
Co204 O229 1.967 . S
Co204 O236 1.920 . S
Co205 O208 1.966 . S
Co205 N214 2.022 . S
Co205 N222 1.993 . S
Co205 O230 1.941 . S
C206 O207 1.258 . S
C206 O208 1.263 . S
O207 Co204 1.970 . S
O207 C206 1.258 . S
O208 Co205 1.966 . S
O208 C206 1.263 . S
C209 O210 1.235 . S
C209 O236 1.289 . S
O210 C209 1.235 . S
C211 C213 1.400 . S
C211 N214 1.351 . S
C211 C216 1.501 . S
C212 C213 1.387 . S
C212 N215 1.341 . S
C213 C211 1.400 . S
C213 C212 1.387 . S
N214 Co205 2.022 . S
N214 C211 1.351 . S
N214 N215 1.365 . S
N215 C212 1.341 . S
N215 N214 1.365 . S
N215 H235 0.862 . S
C216 C211 1.501 . S
C216 H217 0.961 . S
C216 H218 0.961 . S
C216 H219 0.960 . S
H217 C216 0.961 . S
H218 C216 0.961 . S
H219 C216 0.960 . S
C220 N221 1.342 . S
C220 C224 1.401 . S
C220 C225 1.499 . S
N221 Co204 1.989 . S
N221 C220 1.342 . S
N221 N222 1.388 . S
N222 Co205 1.993 . S
N222 N221 1.388 . S
N222 C223 1.346 . S
C223 N222 1.346 . S
C223 C224 1.396 . S
C223 C233 1.510 . S
C224 C220 1.401 . S
C224 C223 1.396 . S
C225 C220 1.499 . S
C225 H226 0.959 . S
C225 H227 0.960 . S
C225 H228 0.961 . S
H226 C225 0.959 . S
H227 C225 0.960 . S
H228 C225 0.961 . S
O229 Co204 1.967 . S
O229 C237 1.258 . S
O230 Co205 1.941 . S
O230 C237 1.266 . S
H231 C233 0.959 . S
H232 C233 0.961 . S
C233 C223 1.510 . S
C233 H231 0.959 . S
C233 H232 0.961 . S
C233 H234 0.960 . S
H234 C233 0.960 . S
H235 N215 0.862 . S
O236 Co204 1.920 . S
O236 C209 1.289 . S
C237 O229 1.258 . S
C237 O230 1.266 . S
Co238 O241 1.970 . S
Co238 N255 1.989 . S
Co238 O263 1.967 . S
Co238 O270 1.920 . S
Co239 O242 1.966 . S
Co239 N248 2.022 . S
Co239 N256 1.993 . S
Co239 O264 1.941 . S
C240 O241 1.258 . S
C240 O242 1.263 . S
O241 Co238 1.970 . S
O241 C240 1.258 . S
O242 Co239 1.966 . S
O242 C240 1.263 . S
C243 O244 1.235 . S
C243 O270 1.289 . S
O244 C243 1.235 . S
C245 C247 1.400 . S
C245 N248 1.351 . S
C245 C250 1.501 . S
C246 C247 1.387 . S
C246 N249 1.341 . S
C247 C245 1.400 . S
C247 C246 1.387 . S
N248 Co239 2.022 . S
N248 C245 1.351 . S
N248 N249 1.365 . S
N249 C246 1.341 . S
N249 N248 1.365 . S
N249 H269 0.862 . S
C250 C245 1.501 . S
C250 H251 0.961 . S
C250 H252 0.961 . S
C250 H253 0.960 . S
H251 C250 0.961 . S
H252 C250 0.961 . S
H253 C250 0.960 . S
C254 N255 1.342 . S
C254 C258 1.401 . S
C254 C259 1.499 . S
N255 Co238 1.989 . S
N255 C254 1.342 . S
N255 N256 1.388 . S
N256 Co239 1.993 . S
N256 N255 1.388 . S
N256 C257 1.346 . S
C257 N256 1.346 . S
C257 C258 1.396 . S
C257 C267 1.510 . S
C258 C254 1.401 . S
C258 C257 1.396 . S
C259 C254 1.499 . S
C259 H260 0.959 . S
C259 H261 0.960 . S
C259 H262 0.961 . S
H260 C259 0.959 . S
H261 C259 0.960 . S
H262 C259 0.961 . S
O263 Co238 1.967 . S
O263 C271 1.258 . S
O264 Co239 1.941 . S
O264 C271 1.266 . S
H265 C267 0.959 . S
H266 C267 0.961 . S
C267 C257 1.510 . S
C267 H265 0.959 . S
C267 H266 0.961 . S
C267 H268 0.960 . S
H268 C267 0.960 . S
H269 N249 0.862 . S
O270 Co238 1.920 . S
O270 C243 1.289 . S
C271 O263 1.258 . S
C271 O264 1.266 . S
Co272 O275 1.970 . S
Co272 N289 1.989 . S
Co272 O297 1.967 . S
Co272 O304 1.920 . S
Co273 O276 1.966 . S
Co273 N282 2.022 . S
Co273 N290 1.993 . S
Co273 O298 1.941 . S
C274 O275 1.258 . S
C274 O276 1.263 . S
O275 Co272 1.970 . S
O275 C274 1.258 . S
O276 Co273 1.966 . S
O276 C274 1.263 . S
C277 O278 1.235 . S
C277 O304 1.289 . S
O278 C277 1.235 . S
C279 C281 1.400 . S
C279 N282 1.351 . S
C279 C284 1.501 . S
C280 C281 1.387 . S
C280 N283 1.341 . S
C281 C279 1.400 . S
C281 C280 1.387 . S
N282 Co273 2.022 . S
N282 C279 1.351 . S
N282 N283 1.365 . S
N283 C280 1.341 . S
N283 N282 1.365 . S
N283 H303 0.862 . S
C284 C279 1.501 . S
C284 H285 0.961 . S
C284 H286 0.961 . S
C284 H287 0.960 . S
H285 C284 0.961 . S
H286 C284 0.961 . S
H287 C284 0.960 . S
C288 N289 1.342 . S
C288 C292 1.401 . S
C288 C293 1.499 . S
N289 Co272 1.989 . S
N289 C288 1.342 . S
N289 N290 1.388 . S
N290 Co273 1.993 . S
N290 N289 1.388 . S
N290 C291 1.346 . S
C291 N290 1.346 . S
C291 C292 1.396 . S
C291 C301 1.510 . S
C292 C288 1.401 . S
C292 C291 1.396 . S
C293 C288 1.499 . S
C293 H294 0.959 . S
C293 H295 0.960 . S
C293 H296 0.961 . S
H294 C293 0.959 . S
H295 C293 0.960 . S
H296 C293 0.961 . S
O297 Co272 1.967 . S
O297 C305 1.258 . S
O298 Co273 1.941 . S
O298 C305 1.266 . S
H299 C301 0.959 . S
H300 C301 0.961 . S
C301 C291 1.510 . S
C301 H299 0.959 . S
C301 H300 0.961 . S
C301 H302 0.960 . S
H302 C301 0.960 . S
H303 N283 0.862 . S
O304 Co272 1.920 . S
O304 C277 1.289 . S
C305 O297 1.258 . S
C305 O298 1.266 . S
Co306 O309 1.970 . S
Co306 N323 1.989 . S
Co306 O331 1.967 . S
Co306 O338 1.920 . S
Co307 O310 1.966 . S
Co307 N316 2.022 . S
Co307 N324 1.993 . S
Co307 O332 1.941 . S
C308 O309 1.258 . S
C308 O310 1.263 . S
O309 Co306 1.970 . S
O309 C308 1.258 . S
O310 Co307 1.966 . S
O310 C308 1.263 . S
C311 O312 1.235 . S
C311 O338 1.289 . S
O312 C311 1.235 . S
C313 C315 1.400 . S
C313 N316 1.351 . S
C313 C318 1.501 . S
C314 C315 1.387 . S
C314 N317 1.341 . S
C315 C313 1.400 . S
C315 C314 1.387 . S
N316 Co307 2.022 . S
N316 C313 1.351 . S
N316 N317 1.365 . S
N317 C314 1.341 . S
N317 N316 1.365 . S
N317 H337 0.862 . S
C318 C313 1.501 . S
C318 H319 0.961 . S
C318 H320 0.961 . S
C318 H321 0.960 . S
H319 C318 0.961 . S
H320 C318 0.961 . S
H321 C318 0.960 . S
C322 N323 1.342 . S
C322 C326 1.401 . S
C322 C327 1.499 . S
N323 Co306 1.989 . S
N323 C322 1.342 . S
N323 N324 1.388 . S
N324 Co307 1.993 . S
N324 N323 1.388 . S
N324 C325 1.346 . S
C325 N324 1.346 . S
C325 C326 1.396 . S
C325 C335 1.510 . S
C326 C322 1.401 . S
C326 C325 1.396 . S
C327 C322 1.499 . S
C327 H328 0.959 . S
C327 H329 0.960 . S
C327 H330 0.961 . S
H328 C327 0.959 . S
H329 C327 0.960 . S
H330 C327 0.961 . S
O331 Co306 1.967 . S
O331 C339 1.258 . S
O332 Co307 1.941 . S
O332 C339 1.266 . S
H333 C335 0.959 . S
H334 C335 0.961 . S
C335 C325 1.510 . S
C335 H333 0.959 . S
C335 H334 0.961 . S
C335 H336 0.960 . S
H336 C335 0.960 . S
H337 N317 0.862 . S
O338 Co306 1.920 . S
O338 C311 1.289 . S
C339 O331 1.258 . S
C339 O332 1.266 . S
Co340 O343 1.970 . S
Co340 N357 1.989 . S
Co340 O365 1.967 . S
Co340 O372 1.920 . S
Co341 O344 1.966 . S
Co341 N350 2.022 . S
Co341 N358 1.993 . S
Co341 O366 1.941 . S
C342 O343 1.258 . S
C342 O344 1.263 . S
O343 Co340 1.970 . S
O343 C342 1.258 . S
O344 Co341 1.966 . S
O344 C342 1.263 . S
C345 O346 1.235 . S
C345 O372 1.289 . S
O346 C345 1.235 . S
C347 C349 1.400 . S
C347 N350 1.351 . S
C347 C352 1.501 . S
C348 C349 1.387 . S
C348 N351 1.341 . S
C349 C347 1.400 . S
C349 C348 1.387 . S
N350 Co341 2.022 . S
N350 C347 1.351 . S
N350 N351 1.365 . S
N351 C348 1.341 . S
N351 N350 1.365 . S
N351 H371 0.862 . S
C352 C347 1.501 . S
C352 H353 0.961 . S
C352 H354 0.961 . S
C352 H355 0.960 . S
H353 C352 0.961 . S
H354 C352 0.961 . S
H355 C352 0.960 . S
C356 N357 1.342 . S
C356 C360 1.401 . S
C356 C361 1.499 . S
N357 Co340 1.989 . S
N357 C356 1.342 . S
N357 N358 1.388 . S
N358 Co341 1.993 . S
N358 N357 1.388 . S
N358 C359 1.346 . S
C359 N358 1.346 . S
C359 C360 1.396 . S
C359 C369 1.510 . S
C360 C356 1.401 . S
C360 C359 1.396 . S
C361 C356 1.499 . S
C361 H362 0.959 . S
C361 H363 0.960 . S
C361 H364 0.961 . S
H362 C361 0.959 . S
H363 C361 0.960 . S
H364 C361 0.961 . S
O365 Co340 1.967 . S
O365 C373 1.258 . S
O366 Co341 1.941 . S
O366 C373 1.266 . S
H367 C369 0.959 . S
H368 C369 0.961 . S
C369 C359 1.510 . S
C369 H367 0.959 . S
C369 H368 0.961 . S
C369 H370 0.960 . S
H370 C369 0.960 . S
H371 N351 0.862 . S
O372 Co340 1.920 . S
O372 C345 1.289 . S
C373 O365 1.258 . S
C373 O366 1.266 . S
Co374 O377 1.970 . S
Co374 N391 1.989 . S
Co374 O399 1.967 . S
Co374 O406 1.920 . S
Co375 O378 1.966 . S
Co375 N384 2.022 . S
Co375 N392 1.993 . S
Co375 O400 1.941 . S
C376 O377 1.258 . S
C376 O378 1.263 . S
O377 Co374 1.970 . S
O377 C376 1.258 . S
O378 Co375 1.966 . S
O378 C376 1.263 . S
C379 O380 1.235 . S
C379 O406 1.289 . S
O380 C379 1.235 . S
C381 C383 1.400 . S
C381 N384 1.351 . S
C381 C386 1.501 . S
C382 C383 1.387 . S
C382 N385 1.341 . S
C383 C381 1.400 . S
C383 C382 1.387 . S
N384 Co375 2.022 . S
N384 C381 1.351 . S
N384 N385 1.365 . S
N385 C382 1.341 . S
N385 N384 1.365 . S
N385 H405 0.862 . S
C386 C381 1.501 . S
C386 H387 0.961 . S
C386 H388 0.961 . S
C386 H389 0.960 . S
H387 C386 0.961 . S
H388 C386 0.961 . S
H389 C386 0.960 . S
C390 N391 1.342 . S
C390 C394 1.401 . S
C390 C395 1.499 . S
N391 Co374 1.989 . S
N391 C390 1.342 . S
N391 N392 1.388 . S
N392 Co375 1.993 . S
N392 N391 1.388 . S
N392 C393 1.346 . S
C393 N392 1.346 . S
C393 C394 1.396 . S
C393 C403 1.510 . S
C394 C390 1.401 . S
C394 C393 1.396 . S
C395 C390 1.499 . S
C395 H396 0.959 . S
C395 H397 0.960 . S
C395 H398 0.961 . S
H396 C395 0.959 . S
H397 C395 0.960 . S
H398 C395 0.961 . S
O399 Co374 1.967 . S
O399 C407 1.258 . S
O400 Co375 1.941 . S
O400 C407 1.266 . S
H401 C403 0.959 . S
H402 C403 0.961 . S
C403 C393 1.510 . S
C403 H401 0.959 . S
C403 H402 0.961 . S
C403 H404 0.960 . S
H404 C403 0.960 . S
H405 N385 0.862 . S
O406 Co374 1.920 . S
O406 C379 1.289 . S
C407 O399 1.258 . S
C407 O400 1.266 . S
Co408 O411 1.970 . S
Co408 N425 1.989 . S
Co408 O433 1.967 . S
Co408 O440 1.920 . S
Co409 O412 1.966 . S
Co409 N418 2.022 . S
Co409 N426 1.993 . S
Co409 O434 1.941 . S
C410 O411 1.258 . S
C410 O412 1.263 . S
O411 Co408 1.970 . S
O411 C410 1.258 . S
O412 Co409 1.966 . S
O412 C410 1.263 . S
C413 O414 1.235 . S
C413 O440 1.289 . S
O414 C413 1.235 . S
C415 C417 1.400 . S
C415 N418 1.351 . S
C415 C420 1.501 . S
C416 C417 1.387 . S
C416 N419 1.341 . S
C417 C415 1.400 . S
C417 C416 1.387 . S
N418 Co409 2.022 . S
N418 C415 1.351 . S
N418 N419 1.365 . S
N419 C416 1.341 . S
N419 N418 1.365 . S
N419 H439 0.862 . S
C420 C415 1.501 . S
C420 H421 0.961 . S
C420 H422 0.961 . S
C420 H423 0.960 . S
H421 C420 0.961 . S
H422 C420 0.961 . S
H423 C420 0.960 . S
C424 N425 1.342 . S
C424 C428 1.401 . S
C424 C429 1.499 . S
N425 Co408 1.989 . S
N425 C424 1.342 . S
N425 N426 1.388 . S
N426 Co409 1.993 . S
N426 N425 1.388 . S
N426 C427 1.346 . S
C427 N426 1.346 . S
C427 C428 1.396 . S
C427 C437 1.510 . S
C428 C424 1.401 . S
C428 C427 1.396 . S
C429 C424 1.499 . S
C429 H430 0.959 . S
C429 H431 0.960 . S
C429 H432 0.961 . S
H430 C429 0.959 . S
H431 C429 0.960 . S
H432 C429 0.961 . S
O433 Co408 1.967 . S
O433 C441 1.258 . S
O434 Co409 1.941 . S
O434 C441 1.266 . S
H435 C437 0.959 . S
H436 C437 0.961 . S
C437 C427 1.510 . S
C437 H435 0.959 . S
C437 H436 0.961 . S
C437 H438 0.960 . S
H438 C437 0.960 . S
H439 N419 0.862 . S
O440 Co408 1.920 . S
O440 C413 1.289 . S
C441 O433 1.258 . S
C441 O434 1.266 . S
Co442 O445 1.970 . S
Co442 N459 1.989 . S
Co442 O467 1.967 . S
Co442 O474 1.920 . S
Co443 O446 1.966 . S
Co443 N452 2.022 . S
Co443 N460 1.993 . S
Co443 O468 1.941 . S
C444 O445 1.258 . S
C444 O446 1.263 . S
O445 Co442 1.970 . S
O445 C444 1.258 . S
O446 Co443 1.966 . S
O446 C444 1.263 . S
C447 O448 1.235 . S
C447 O474 1.289 . S
O448 C447 1.235 . S
C449 C451 1.400 . S
C449 N452 1.351 . S
C449 C454 1.501 . S
C450 C451 1.387 . S
C450 N453 1.341 . S
C451 C449 1.400 . S
C451 C450 1.387 . S
N452 Co443 2.022 . S
N452 C449 1.351 . S
N452 N453 1.365 . S
N453 C450 1.341 . S
N453 N452 1.365 . S
N453 H473 0.862 . S
C454 C449 1.501 . S
C454 H455 0.961 . S
C454 H456 0.961 . S
C454 H457 0.960 . S
H455 C454 0.961 . S
H456 C454 0.961 . S
H457 C454 0.960 . S
C458 N459 1.342 . S
C458 C462 1.401 . S
C458 C463 1.499 . S
N459 Co442 1.989 . S
N459 C458 1.342 . S
N459 N460 1.388 . S
N460 Co443 1.993 . S
N460 N459 1.388 . S
N460 C461 1.346 . S
C461 N460 1.346 . S
C461 C462 1.396 . S
C461 C471 1.510 . S
C462 C458 1.401 . S
C462 C461 1.396 . S
C463 C458 1.499 . S
C463 H464 0.959 . S
C463 H465 0.960 . S
C463 H466 0.961 . S
H464 C463 0.959 . S
H465 C463 0.960 . S
H466 C463 0.961 . S
O467 Co442 1.967 . S
O467 C475 1.258 . S
O468 Co443 1.941 . S
O468 C475 1.266 . S
H469 C471 0.959 . S
H470 C471 0.961 . S
C471 C461 1.510 . S
C471 H469 0.959 . S
C471 H470 0.961 . S
C471 H472 0.960 . S
H472 C471 0.960 . S
H473 N453 0.862 . S
O474 Co442 1.920 . S
O474 C447 1.289 . S
C475 O467 1.258 . S
C475 O468 1.266 . S
Co476 O479 1.970 . S
Co476 N493 1.989 . S
Co476 O501 1.967 . S
Co476 O508 1.920 . S
Co477 O480 1.966 . S
Co477 N486 2.022 . S
Co477 N494 1.993 . S
Co477 O502 1.941 . S
C478 O479 1.258 . S
C478 O480 1.263 . S
O479 Co476 1.970 . S
O479 C478 1.258 . S
O480 Co477 1.966 . S
O480 C478 1.263 . S
C481 O482 1.235 . S
C481 O508 1.289 . S
O482 C481 1.235 . S
C483 C485 1.400 . S
C483 N486 1.351 . S
C483 C488 1.501 . S
C484 C485 1.387 . S
C484 N487 1.341 . S
C485 C483 1.400 . S
C485 C484 1.387 . S
N486 Co477 2.022 . S
N486 C483 1.351 . S
N486 N487 1.365 . S
N487 C484 1.341 . S
N487 N486 1.365 . S
N487 H507 0.862 . S
C488 C483 1.501 . S
C488 H489 0.961 . S
C488 H490 0.961 . S
C488 H491 0.960 . S
H489 C488 0.961 . S
H490 C488 0.961 . S
H491 C488 0.960 . S
C492 N493 1.342 . S
C492 C496 1.401 . S
C492 C497 1.499 . S
N493 Co476 1.989 . S
N493 C492 1.342 . S
N493 N494 1.388 . S
N494 Co477 1.993 . S
N494 N493 1.388 . S
N494 C495 1.346 . S
C495 N494 1.346 . S
C495 C496 1.396 . S
C495 C505 1.510 . S
C496 C492 1.401 . S
C496 C495 1.396 . S
C497 C492 1.499 . S
C497 H498 0.959 . S
C497 H499 0.960 . S
C497 H500 0.961 . S
H498 C497 0.959 . S
H499 C497 0.960 . S
H500 C497 0.961 . S
O501 Co476 1.967 . S
O501 C509 1.258 . S
O502 Co477 1.941 . S
O502 C509 1.266 . S
H503 C505 0.959 . S
H504 C505 0.961 . S
C505 C495 1.510 . S
C505 H503 0.959 . S
C505 H504 0.961 . S
C505 H506 0.960 . S
H506 C505 0.960 . S
H507 N487 0.862 . S
O508 Co476 1.920 . S
O508 C481 1.289 . S
C509 O501 1.258 . S
C509 O502 1.266 . S
Co510 O513 1.970 . S
Co510 N527 1.989 . S
Co510 O535 1.967 . S
Co510 O542 1.920 . S
Co511 O514 1.966 . S
Co511 N520 2.022 . S
Co511 N528 1.993 . S
Co511 O536 1.941 . S
C512 O513 1.258 . S
C512 O514 1.263 . S
O513 Co510 1.970 . S
O513 C512 1.258 . S
O514 Co511 1.966 . S
O514 C512 1.263 . S
C515 O516 1.235 . S
C515 O542 1.289 . S
O516 C515 1.235 . S
C517 C519 1.400 . S
C517 N520 1.351 . S
C517 C522 1.501 . S
C518 C519 1.387 . S
C518 N521 1.341 . S
C519 C517 1.400 . S
C519 C518 1.387 . S
N520 Co511 2.022 . S
N520 C517 1.351 . S
N520 N521 1.365 . S
N521 C518 1.341 . S
N521 N520 1.365 . S
N521 H541 0.862 . S
C522 C517 1.501 . S
C522 H523 0.961 . S
C522 H524 0.961 . S
C522 H525 0.960 . S
H523 C522 0.961 . S
H524 C522 0.961 . S
H525 C522 0.960 . S
C526 N527 1.342 . S
C526 C530 1.401 . S
C526 C531 1.499 . S
N527 Co510 1.989 . S
N527 C526 1.342 . S
N527 N528 1.388 . S
N528 Co511 1.993 . S
N528 N527 1.388 . S
N528 C529 1.346 . S
C529 N528 1.346 . S
C529 C530 1.396 . S
C529 C539 1.510 . S
C530 C526 1.401 . S
C530 C529 1.396 . S
C531 C526 1.499 . S
C531 H532 0.959 . S
C531 H533 0.960 . S
C531 H534 0.961 . S
H532 C531 0.959 . S
H533 C531 0.960 . S
H534 C531 0.961 . S
O535 Co510 1.967 . S
O535 C543 1.258 . S
O536 Co511 1.941 . S
O536 C543 1.266 . S
H537 C539 0.959 . S
H538 C539 0.961 . S
C539 C529 1.510 . S
C539 H537 0.959 . S
C539 H538 0.961 . S
C539 H540 0.960 . S
H540 C539 0.960 . S
H541 N521 0.862 . S
O542 Co510 1.920 . S
O542 C515 1.289 . S
C543 O535 1.258 . S
C543 O536 1.266 . S
Co544 O547 1.970 . S
Co544 N561 1.989 . S
Co544 O569 1.967 . S
Co544 O576 1.920 . S
Co545 O548 1.966 . S
Co545 N554 2.022 . S
Co545 N562 1.993 . S
Co545 O570 1.941 . S
C546 O547 1.258 . S
C546 O548 1.263 . S
O547 Co544 1.970 . S
O547 C546 1.258 . S
O548 Co545 1.966 . S
O548 C546 1.263 . S
C549 O550 1.235 . S
C549 O576 1.289 . S
O550 C549 1.235 . S
C551 C553 1.400 . S
C551 N554 1.351 . S
C551 C556 1.501 . S
C552 C553 1.387 . S
C552 N555 1.341 . S
C553 C551 1.400 . S
C553 C552 1.387 . S
N554 Co545 2.022 . S
N554 C551 1.351 . S
N554 N555 1.365 . S
N555 C552 1.341 . S
N555 N554 1.365 . S
N555 H575 0.862 . S
C556 C551 1.501 . S
C556 H557 0.961 . S
C556 H558 0.961 . S
C556 H559 0.960 . S
H557 C556 0.961 . S
H558 C556 0.961 . S
H559 C556 0.960 . S
C560 N561 1.342 . S
C560 C564 1.401 . S
C560 C565 1.499 . S
N561 Co544 1.989 . S
N561 C560 1.342 . S
N561 N562 1.388 . S
N562 Co545 1.993 . S
N562 N561 1.388 . S
N562 C563 1.346 . S
C563 N562 1.346 . S
C563 C564 1.396 . S
C563 C573 1.510 . S
C564 C560 1.401 . S
C564 C563 1.396 . S
C565 C560 1.499 . S
C565 H566 0.959 . S
C565 H567 0.960 . S
C565 H568 0.961 . S
H566 C565 0.959 . S
H567 C565 0.960 . S
H568 C565 0.961 . S
O569 Co544 1.967 . S
O569 C577 1.258 . S
O570 Co545 1.941 . S
O570 C577 1.266 . S
H571 C573 0.959 . S
H572 C573 0.961 . S
C573 C563 1.510 . S
C573 H571 0.959 . S
C573 H572 0.961 . S
C573 H574 0.960 . S
H574 C573 0.960 . S
H575 N555 0.862 . S
O576 Co544 1.920 . S
O576 C549 1.289 . S
C577 O569 1.258 . S
C577 O570 1.266 . S
Co578 O581 1.970 . S
Co578 N595 1.989 . S
Co578 O603 1.967 . S
Co578 O610 1.920 . S
Co579 O582 1.966 . S
Co579 N588 2.022 . S
Co579 N596 1.993 . S
Co579 O604 1.941 . S
C580 O581 1.258 . S
C580 O582 1.263 . S
O581 Co578 1.970 . S
O581 C580 1.258 . S
O582 Co579 1.966 . S
O582 C580 1.263 . S
C583 O584 1.235 . S
C583 O610 1.289 . S
O584 C583 1.235 . S
C585 C587 1.400 . S
C585 N588 1.351 . S
C585 C590 1.501 . S
C586 C587 1.387 . S
C586 N589 1.341 . S
C587 C585 1.400 . S
C587 C586 1.387 . S
N588 Co579 2.022 . S
N588 C585 1.351 . S
N588 N589 1.365 . S
N589 C586 1.341 . S
N589 N588 1.365 . S
N589 H609 0.862 . S
C590 C585 1.501 . S
C590 H591 0.961 . S
C590 H592 0.961 . S
C590 H593 0.960 . S
H591 C590 0.961 . S
H592 C590 0.961 . S
H593 C590 0.960 . S
C594 N595 1.342 . S
C594 C598 1.401 . S
C594 C599 1.499 . S
N595 Co578 1.989 . S
N595 C594 1.342 . S
N595 N596 1.388 . S
N596 Co579 1.993 . S
N596 N595 1.388 . S
N596 C597 1.346 . S
C597 N596 1.346 . S
C597 C598 1.396 . S
C597 C607 1.510 . S
C598 C594 1.401 . S
C598 C597 1.396 . S
C599 C594 1.499 . S
C599 H600 0.959 . S
C599 H601 0.960 . S
C599 H602 0.961 . S
H600 C599 0.959 . S
H601 C599 0.960 . S
H602 C599 0.961 . S
O603 Co578 1.967 . S
O603 C611 1.258 . S
O604 Co579 1.941 . S
O604 C611 1.266 . S
H605 C607 0.959 . S
H606 C607 0.961 . S
C607 C597 1.510 . S
C607 H605 0.959 . S
C607 H606 0.961 . S
C607 H608 0.960 . S
H608 C607 0.960 . S
H609 N589 0.862 . S
O610 Co578 1.920 . S
O610 C583 1.289 . S
C611 O603 1.258 . S
C611 O604 1.266 . S
Co612 O615 1.970 . S
Co612 N629 1.989 . S
Co612 O637 1.967 . S
Co612 O644 1.920 . S
Co613 O616 1.966 . S
Co613 N622 2.022 . S
Co613 N630 1.993 . S
Co613 O638 1.941 . S
C614 O615 1.258 . S
C614 O616 1.263 . S
O615 Co612 1.970 . S
O615 C614 1.258 . S
O616 Co613 1.966 . S
O616 C614 1.263 . S
C617 O618 1.235 . S
C617 O644 1.289 . S
O618 C617 1.235 . S
C619 C621 1.400 . S
C619 N622 1.351 . S
C619 C624 1.501 . S
C620 C621 1.387 . S
C620 N623 1.341 . S
C621 C619 1.400 . S
C621 C620 1.387 . S
N622 Co613 2.022 . S
N622 C619 1.351 . S
N622 N623 1.365 . S
N623 C620 1.341 . S
N623 N622 1.365 . S
N623 H643 0.862 . S
C624 C619 1.501 . S
C624 H625 0.961 . S
C624 H626 0.961 . S
C624 H627 0.960 . S
H625 C624 0.961 . S
H626 C624 0.961 . S
H627 C624 0.960 . S
C628 N629 1.342 . S
C628 C632 1.401 . S
C628 C633 1.499 . S
N629 Co612 1.989 . S
N629 C628 1.342 . S
N629 N630 1.388 . S
N630 Co613 1.993 . S
N630 N629 1.388 . S
N630 C631 1.346 . S
C631 N630 1.346 . S
C631 C632 1.396 . S
C631 C641 1.510 . S
C632 C628 1.401 . S
C632 C631 1.396 . S
C633 C628 1.499 . S
C633 H634 0.959 . S
C633 H635 0.960 . S
C633 H636 0.961 . S
H634 C633 0.959 . S
H635 C633 0.960 . S
H636 C633 0.961 . S
O637 Co612 1.967 . S
O637 C645 1.258 . S
O638 Co613 1.941 . S
O638 C645 1.266 . S
H639 C641 0.959 . S
H640 C641 0.961 . S
C641 C631 1.510 . S
C641 H639 0.959 . S
C641 H640 0.961 . S
C641 H642 0.960 . S
H642 C641 0.960 . S
H643 N623 0.862 . S
O644 Co612 1.920 . S
O644 C617 1.289 . S
C645 O637 1.258 . S
C645 O638 1.266 . S
Co646 O649 1.970 . S
Co646 N663 1.989 . S
Co646 O671 1.967 . S
Co646 O678 1.920 . S
Co647 O650 1.966 . S
Co647 N656 2.022 . S
Co647 N664 1.993 . S
Co647 O672 1.941 . S
C648 O649 1.258 . S
C648 O650 1.263 . S
O649 Co646 1.970 . S
O649 C648 1.258 . S
O650 Co647 1.966 . S
O650 C648 1.263 . S
C651 O652 1.235 . S
C651 O678 1.289 . S
O652 C651 1.235 . S
C653 C655 1.400 . S
C653 N656 1.351 . S
C653 C658 1.501 . S
C654 C655 1.387 . S
C654 N657 1.341 . S
C655 C653 1.400 . S
C655 C654 1.387 . S
N656 Co647 2.022 . S
N656 C653 1.351 . S
N656 N657 1.365 . S
N657 C654 1.341 . S
N657 N656 1.365 . S
N657 H677 0.862 . S
C658 C653 1.501 . S
C658 H659 0.961 . S
C658 H660 0.961 . S
C658 H661 0.960 . S
H659 C658 0.961 . S
H660 C658 0.961 . S
H661 C658 0.960 . S
C662 N663 1.342 . S
C662 C666 1.401 . S
C662 C667 1.499 . S
N663 Co646 1.989 . S
N663 C662 1.342 . S
N663 N664 1.388 . S
N664 Co647 1.993 . S
N664 N663 1.388 . S
N664 C665 1.346 . S
C665 N664 1.346 . S
C665 C666 1.396 . S
C665 C675 1.510 . S
C666 C662 1.401 . S
C666 C665 1.396 . S
C667 C662 1.499 . S
C667 H668 0.959 . S
C667 H669 0.960 . S
C667 H670 0.961 . S
H668 C667 0.959 . S
H669 C667 0.960 . S
H670 C667 0.961 . S
O671 Co646 1.967 . S
O671 C679 1.258 . S
O672 Co647 1.941 . S
O672 C679 1.266 . S
H673 C675 0.959 . S
H674 C675 0.961 . S
C675 C665 1.510 . S
C675 H673 0.959 . S
C675 H674 0.961 . S
C675 H676 0.960 . S
H676 C675 0.960 . S
H677 N657 0.862 . S
O678 Co646 1.920 . S
O678 C651 1.289 . S
C679 O671 1.258 . S
C679 O672 1.266 . S
Co680 O683 1.970 . S
Co680 N697 1.989 . S
Co680 O705 1.967 . S
Co680 O712 1.920 . S
Co681 O684 1.966 . S
Co681 N690 2.022 . S
Co681 N698 1.993 . S
Co681 O706 1.941 . S
C682 O683 1.258 . S
C682 O684 1.263 . S
O683 Co680 1.970 . S
O683 C682 1.258 . S
O684 Co681 1.966 . S
O684 C682 1.263 . S
C685 O686 1.235 . S
C685 O712 1.289 . S
O686 C685 1.235 . S
C687 C689 1.400 . S
C687 N690 1.351 . S
C687 C692 1.501 . S
C688 C689 1.387 . S
C688 N691 1.341 . S
C689 C687 1.400 . S
C689 C688 1.387 . S
N690 Co681 2.022 . S
N690 C687 1.351 . S
N690 N691 1.365 . S
N691 C688 1.341 . S
N691 N690 1.365 . S
N691 H711 0.862 . S
C692 C687 1.501 . S
C692 H693 0.961 . S
C692 H694 0.961 . S
C692 H695 0.960 . S
H693 C692 0.961 . S
H694 C692 0.961 . S
H695 C692 0.960 . S
C696 N697 1.342 . S
C696 C700 1.401 . S
C696 C701 1.499 . S
N697 Co680 1.989 . S
N697 C696 1.342 . S
N697 N698 1.388 . S
N698 Co681 1.993 . S
N698 N697 1.388 . S
N698 C699 1.346 . S
C699 N698 1.346 . S
C699 C700 1.396 . S
C699 C709 1.510 . S
C700 C696 1.401 . S
C700 C699 1.396 . S
C701 C696 1.499 . S
C701 H702 0.959 . S
C701 H703 0.960 . S
C701 H704 0.961 . S
H702 C701 0.959 . S
H703 C701 0.960 . S
H704 C701 0.961 . S
O705 Co680 1.967 . S
O705 C713 1.258 . S
O706 Co681 1.941 . S
O706 C713 1.266 . S
H707 C709 0.959 . S
H708 C709 0.961 . S
C709 C699 1.510 . S
C709 H707 0.959 . S
C709 H708 0.961 . S
C709 H710 0.960 . S
H710 C709 0.960 . S
H711 N691 0.862 . S
O712 Co680 1.920 . S
O712 C685 1.289 . S
C713 O705 1.258 . S
C713 O706 1.266 . S
Co714 O717 1.970 . S
Co714 N731 1.989 . S
Co714 O739 1.967 . S
Co714 O746 1.920 . S
Co715 O718 1.966 . S
Co715 N724 2.022 . S
Co715 N732 1.993 . S
Co715 O740 1.941 . S
C716 O717 1.258 . S
C716 O718 1.263 . S
O717 Co714 1.970 . S
O717 C716 1.258 . S
O718 Co715 1.966 . S
O718 C716 1.263 . S
C719 O720 1.235 . S
C719 O746 1.289 . S
O720 C719 1.235 . S
C721 C723 1.400 . S
C721 N724 1.351 . S
C721 C726 1.501 . S
C722 C723 1.387 . S
C722 N725 1.341 . S
C723 C721 1.400 . S
C723 C722 1.387 . S
N724 Co715 2.022 . S
N724 C721 1.351 . S
N724 N725 1.365 . S
N725 C722 1.341 . S
N725 N724 1.365 . S
N725 H745 0.862 . S
C726 C721 1.501 . S
C726 H727 0.961 . S
C726 H728 0.961 . S
C726 H729 0.960 . S
H727 C726 0.961 . S
H728 C726 0.961 . S
H729 C726 0.960 . S
C730 N731 1.342 . S
C730 C734 1.401 . S
C730 C735 1.499 . S
N731 Co714 1.989 . S
N731 C730 1.342 . S
N731 N732 1.388 . S
N732 Co715 1.993 . S
N732 N731 1.388 . S
N732 C733 1.346 . S
C733 N732 1.346 . S
C733 C734 1.396 . S
C733 C743 1.510 . S
C734 C730 1.401 . S
C734 C733 1.396 . S
C735 C730 1.499 . S
C735 H736 0.959 . S
C735 H737 0.960 . S
C735 H738 0.961 . S
H736 C735 0.959 . S
H737 C735 0.960 . S
H738 C735 0.961 . S
O739 Co714 1.967 . S
O739 C747 1.258 . S
O740 Co715 1.941 . S
O740 C747 1.266 . S
H741 C743 0.959 . S
H742 C743 0.961 . S
C743 C733 1.510 . S
C743 H741 0.959 . S
C743 H742 0.961 . S
C743 H744 0.960 . S
H744 C743 0.960 . S
H745 N725 0.862 . S
O746 Co714 1.920 . S
O746 C719 1.289 . S
C747 O739 1.258 . S
C747 O740 1.266 . S
Co748 O751 1.970 . S
Co748 N765 1.989 . S
Co748 O773 1.967 . S
Co748 O780 1.920 . S
Co749 O752 1.966 . S
Co749 N758 2.022 . S
Co749 N766 1.993 . S
Co749 O774 1.941 . S
C750 O751 1.258 . S
C750 O752 1.263 . S
O751 Co748 1.970 . S
O751 C750 1.258 . S
O752 Co749 1.966 . S
O752 C750 1.263 . S
C753 O754 1.235 . S
C753 O780 1.289 . S
O754 C753 1.235 . S
C755 C757 1.400 . S
C755 N758 1.351 . S
C755 C760 1.501 . S
C756 C757 1.387 . S
C756 N759 1.341 . S
C757 C755 1.400 . S
C757 C756 1.387 . S
N758 Co749 2.022 . S
N758 C755 1.351 . S
N758 N759 1.365 . S
N759 C756 1.341 . S
N759 N758 1.365 . S
N759 H779 0.862 . S
C760 C755 1.501 . S
C760 H761 0.961 . S
C760 H762 0.961 . S
C760 H763 0.960 . S
H761 C760 0.961 . S
H762 C760 0.961 . S
H763 C760 0.960 . S
C764 N765 1.342 . S
C764 C768 1.401 . S
C764 C769 1.499 . S
N765 Co748 1.989 . S
N765 C764 1.342 . S
N765 N766 1.388 . S
N766 Co749 1.993 . S
N766 N765 1.388 . S
N766 C767 1.346 . S
C767 N766 1.346 . S
C767 C768 1.396 . S
C767 C777 1.510 . S
C768 C764 1.401 . S
C768 C767 1.396 . S
C769 C764 1.499 . S
C769 H770 0.959 . S
C769 H771 0.960 . S
C769 H772 0.961 . S
H770 C769 0.959 . S
H771 C769 0.960 . S
H772 C769 0.961 . S
O773 Co748 1.967 . S
O773 C781 1.258 . S
O774 Co749 1.941 . S
O774 C781 1.266 . S
H775 C777 0.959 . S
H776 C777 0.961 . S
C777 C767 1.510 . S
C777 H775 0.959 . S
C777 H776 0.961 . S
C777 H778 0.960 . S
H778 C777 0.960 . S
H779 N759 0.862 . S
O780 Co748 1.920 . S
O780 C753 1.289 . S
C781 O773 1.258 . S
C781 O774 1.266 . S
Co782 O785 1.970 . S
Co782 N799 1.989 . S
Co782 O807 1.967 . S
Co782 O814 1.920 . S
Co783 O786 1.966 . S
Co783 N792 2.022 . S
Co783 N800 1.993 . S
Co783 O808 1.941 . S
C784 O785 1.258 . S
C784 O786 1.263 . S
O785 Co782 1.970 . S
O785 C784 1.258 . S
O786 Co783 1.966 . S
O786 C784 1.263 . S
C787 O788 1.235 . S
C787 O814 1.289 . S
O788 C787 1.235 . S
C789 C791 1.400 . S
C789 N792 1.351 . S
C789 C794 1.501 . S
C790 C791 1.387 . S
C790 N793 1.341 . S
C791 C789 1.400 . S
C791 C790 1.387 . S
N792 Co783 2.022 . S
N792 C789 1.351 . S
N792 N793 1.365 . S
N793 C790 1.341 . S
N793 N792 1.365 . S
N793 H813 0.862 . S
C794 C789 1.501 . S
C794 H795 0.961 . S
C794 H796 0.961 . S
C794 H797 0.960 . S
H795 C794 0.961 . S
H796 C794 0.961 . S
H797 C794 0.960 . S
C798 N799 1.342 . S
C798 C802 1.401 . S
C798 C803 1.499 . S
N799 Co782 1.989 . S
N799 C798 1.342 . S
N799 N800 1.388 . S
N800 Co783 1.993 . S
N800 N799 1.388 . S
N800 C801 1.346 . S
C801 N800 1.346 . S
C801 C802 1.396 . S
C801 C811 1.510 . S
C802 C798 1.401 . S
C802 C801 1.396 . S
C803 C798 1.499 . S
C803 H804 0.959 . S
C803 H805 0.960 . S
C803 H806 0.961 . S
H804 C803 0.959 . S
H805 C803 0.960 . S
H806 C803 0.961 . S
O807 Co782 1.967 . S
O807 C815 1.258 . S
O808 Co783 1.941 . S
O808 C815 1.266 . S
H809 C811 0.959 . S
H810 C811 0.961 . S
C811 C801 1.510 . S
C811 H809 0.959 . S
C811 H810 0.961 . S
C811 H812 0.960 . S
H812 C811 0.960 . S
H813 N793 0.862 . S
O814 Co782 1.920 . S
O814 C787 1.289 . S
C815 O807 1.258 . S
C815 O808 1.266 . S
C816 C817 1.391 . S
C816 C818 1.394 . S
C816 H832 0.931 . S
C817 C816 1.391 . S
C817 C821 1.376 . S
C818 C816 1.394 . S
C818 C819 1.369 . S
C818 C822 1.531 1_545 S
C819 C818 1.369 . S
C819 C820 1.410 . S
C819 C827 1.503 1_545 S
C820 C819 1.410 . S
C820 C821 1.392 . S
C820 C823 1.511 . S
C821 C817 1.376 . S
C821 C820 1.392 . S
C821 H833 0.929 . S
C822 C818 1.531 1_565 S
C822 H834 0.960 . S
C822 H835 0.962 . S
C822 H836 0.960 . S
C823 C820 1.511 . S
C823 H837 0.961 . S
C823 H838 0.961 . S
C823 H839 0.961 . S
C824 C825 1.370 . S
C824 C826 1.363 . S
C824 H840 0.931 . S
C825 C824 1.370 . S
C825 C829 1.408 . S
C826 C824 1.363 . S
C826 C827 1.370 . S
C826 C830 1.524 . S
C827 C819 1.503 1_565 S
C827 C826 1.370 . S
C827 C828 1.403 . S
C828 C827 1.403 . S
C828 C829 1.404 . S
C828 C831 1.539 . S
C829 C825 1.408 . S
C829 C828 1.404 . S
C829 H841 0.930 . S
C830 C826 1.524 . S
C830 H842 0.956 . S
C830 H843 0.961 1_565 S
C830 H844 0.961 . S
C831 C828 1.539 . S
C831 H845 0.958 . S
C831 H846 0.961 . S
C831 H847 0.960 1_565 S
H832 C816 0.931 . S
H833 C821 0.929 . S
H834 C822 0.960 . S
H835 C822 0.962 . S
H836 C822 0.960 . S
H837 C823 0.961 . S
H838 C823 0.961 . S
H839 C823 0.961 . S
H840 C824 0.931 . S
H841 C829 0.930 . S
H842 C830 0.956 . S
H843 C830 0.961 1_545 S
H844 C830 0.961 . S
H845 C831 0.958 . S
H846 C831 0.961 . S
H847 C831 0.960 1_545 S
C848 C849 1.391 . S
C848 C850 1.394 . S
C848 H864 0.931 . S
C849 C848 1.391 . S
C849 C853 1.376 . S
C850 C848 1.394 . S
C850 C851 1.369 . S
C850 C854 1.531 . S
C851 C850 1.369 . S
C851 C852 1.410 . S
C851 C859 1.503 . S
C852 C851 1.410 . S
C852 C853 1.392 . S
C852 C855 1.511 . S
C853 C849 1.376 . S
C853 C852 1.392 . S
C853 H865 0.929 . S
C854 C850 1.531 . S
C854 H866 0.960 . S
C854 H867 0.962 . S
C854 H868 0.960 . S
C855 C852 1.511 . S
C855 H869 0.961 . S
C855 H870 0.961 . S
C855 H871 0.961 . S
C856 C857 1.370 . S
C856 C858 1.363 . S
C856 H872 0.931 . S
C857 C856 1.370 . S
C857 C861 1.408 . S
C858 C856 1.363 . S
C858 C859 1.370 . S
C858 C862 1.524 . S
C859 C851 1.503 . S
C859 C858 1.370 . S
C859 C860 1.403 . S
C860 C859 1.403 . S
C860 C861 1.404 . S
C860 C863 1.539 . S
C861 C857 1.408 . S
C861 C860 1.404 . S
C861 H873 0.930 . S
C862 C858 1.524 . S
C862 H874 0.956 . S
C862 H875 0.961 . S
C862 H876 0.961 . S
C863 C860 1.539 . S
C863 H877 0.958 . S
C863 H878 0.961 . S
C863 H879 0.960 . S
H864 C848 0.931 . S
H865 C853 0.929 . S
H866 C854 0.960 . S
H867 C854 0.962 . S
H868 C854 0.960 . S
H869 C855 0.961 . S
H870 C855 0.961 . S
H871 C855 0.961 . S
H872 C856 0.931 . S
H873 C861 0.930 . S
H874 C862 0.956 . S
H875 C862 0.961 . S
H876 C862 0.961 . S
H877 C863 0.958 . S
H878 C863 0.961 . S
H879 C863 0.960 . S
C880 C881 1.391 . S
C880 C882 1.394 . S
C880 H896 0.931 . S
C881 C880 1.391 . S
C881 C885 1.376 . S
C882 C880 1.394 . S
C882 C883 1.369 . S
C882 C886 1.531 1_455 S
C883 C882 1.369 . S
C883 C884 1.410 . S
C883 C891 1.503 1_455 S
C884 C883 1.410 . S
C884 C885 1.392 . S
C884 C887 1.511 . S
C885 C881 1.376 . S
C885 C884 1.392 . S
C885 H897 0.929 . S
C886 C882 1.531 1_655 S
C886 H898 0.960 . S
C886 H899 0.962 . S
C886 H900 0.960 . S
C887 C884 1.511 . S
C887 H901 0.961 . S
C887 H902 0.961 . S
C887 H903 0.961 . S
C888 C889 1.370 . S
C888 C890 1.363 . S
C888 H904 0.931 . S
C889 C888 1.370 . S
C889 C893 1.408 . S
C890 C888 1.363 . S
C890 C891 1.370 . S
C890 C894 1.524 . S
C891 C883 1.503 1_655 S
C891 C890 1.370 . S
C891 C892 1.403 . S
C892 C891 1.403 . S
C892 C893 1.404 . S
C892 C895 1.539 1_655 S
C893 C889 1.408 . S
C893 C892 1.404 . S
C893 H905 0.930 . S
C894 C890 1.524 . S
C894 H906 0.956 . S
C894 H907 0.961 . S
C894 H908 0.961 . S
C895 C892 1.539 1_455 S
C895 H909 0.958 . S
C895 H910 0.961 . S
C895 H911 0.960 . S
H896 C880 0.931 . S
H897 C885 0.929 . S
H898 C886 0.960 . S
H899 C886 0.962 . S
H900 C886 0.960 . S
H901 C887 0.961 . S
H902 C887 0.961 . S
H903 C887 0.961 . S
H904 C888 0.931 . S
H905 C893 0.930 . S
H906 C894 0.956 . S
H907 C894 0.961 . S
H908 C894 0.961 . S
H909 C895 0.958 . S
H910 C895 0.961 . S
H911 C895 0.960 . S
C912 C913 1.391 . S
C912 C914 1.394 . S
C912 H928 0.931 . S
C913 C912 1.391 . S
C913 C917 1.376 . S
C914 C912 1.394 . S
C914 C915 1.369 . S
C914 C918 1.531 1_455 S
C915 C914 1.369 . S
C915 C916 1.410 . S
C915 C923 1.503 1_455 S
C916 C915 1.410 . S
C916 C917 1.392 . S
C916 C919 1.511 . S
C917 C913 1.376 . S
C917 C916 1.392 . S
C917 H929 0.929 . S
C918 C914 1.531 1_655 S
C918 H930 0.960 . S
C918 H931 0.962 1_655 S
C918 H932 0.960 . S
C919 C916 1.511 . S
C919 H933 0.961 . S
C919 H934 0.961 . S
C919 H935 0.961 . S
C920 C921 1.370 . S
C920 C922 1.363 . S
C920 H936 0.931 . S
C921 C920 1.370 . S
C921 C925 1.408 . S
C922 C920 1.363 . S
C922 C923 1.370 . S
C922 C926 1.524 1_655 S
C923 C915 1.503 1_655 S
C923 C922 1.370 . S
C923 C924 1.403 . S
C924 C923 1.403 . S
C924 C925 1.404 . S
C924 C927 1.539 . S
C925 C921 1.408 . S
C925 C924 1.404 . S
C925 H937 0.930 . S
C926 C922 1.524 1_455 S
C926 H938 0.956 . S
C926 H939 0.961 . S
C926 H940 0.961 . S
C927 C924 1.539 . S
C927 H941 0.958 . S
C927 H942 0.961 . S
C927 H943 0.960 . S
H928 C912 0.931 . S
H929 C917 0.929 . S
H930 C918 0.960 . S
H931 C918 0.962 1_455 S
H932 C918 0.960 . S
H933 C919 0.961 . S
H934 C919 0.961 . S
H935 C919 0.961 . S
H936 C920 0.931 . S
H937 C925 0.930 . S
H938 C926 0.956 . S
H939 C926 0.961 . S
H940 C926 0.961 . S
H941 C927 0.958 . S
H942 C927 0.961 . S
H943 C927 0.960 . S
C944 C945 1.391 . S
C944 C946 1.394 . S
C944 H960 0.931 . S
C945 C944 1.391 . S
C945 C949 1.376 . S
C946 C944 1.394 . S
C946 C947 1.369 . S
C946 C950 1.531 . S
C947 C946 1.369 . S
C947 C948 1.410 . S
C947 C955 1.503 1_565 S
C948 C947 1.410 . S
C948 C949 1.392 . S
C948 C951 1.511 . S
C949 C945 1.376 . S
C949 C948 1.392 . S
C949 H961 0.929 . S
C950 C946 1.531 . S
C950 H962 0.960 . S
C950 H963 0.962 . S
C950 H964 0.960 . S
C951 C948 1.511 . S
C951 H965 0.990 . S
C951 H966 0.961 1_565 S
C951 H967 0.961 . S
C952 C953 1.370 . S
C952 C954 1.363 . S
C952 H968 0.931 . S
C953 C952 1.370 . S
C953 C957 1.408 . S
C954 C952 1.363 . S
C954 C955 1.370 . S
C954 C958 1.524 . S
C955 C947 1.503 1_545 S
C955 C954 1.370 . S
C955 C956 1.403 . S
C956 C955 1.403 . S
C956 C957 1.404 . S
C956 C959 1.539 1_545 S
C957 C953 1.408 . S
C957 C956 1.404 . S
C957 H969 0.930 . S
C958 C954 1.524 . S
C958 H970 0.956 . S
C958 H971 0.961 . S
C958 H972 0.961 . S
C959 C956 1.539 1_565 S
C959 H973 0.958 . S
C959 H974 0.961 . S
C959 H975 0.960 . S
H960 C944 0.931 . S
H961 C949 0.929 . S
H962 C950 0.960 . S
H963 C950 0.962 . S
H964 C950 0.960 . S
H965 C951 0.990 . S
H966 C951 0.961 1_545 S
H967 C951 0.961 . S
H968 C952 0.931 . S
H969 C957 0.930 . S
H970 C958 0.956 . S
H971 C958 0.961 . S
H972 C958 0.961 . S
H973 C959 0.958 . S
H974 C959 0.961 . S
H975 C959 0.960 . S
C976 C977 1.391 . S
C976 C978 1.394 . S
C976 H992 0.931 . S
C977 C976 1.391 . S
C977 C981 1.376 . S
C978 C976 1.394 . S
C978 C979 1.369 . S
C978 C982 1.531 . S
C979 C978 1.369 . S
C979 C980 1.410 . S
C979 C987 1.503 . S
C980 C979 1.410 . S
C980 C981 1.392 . S
C980 C983 1.511 . S
C981 C977 1.376 . S
C981 C980 1.392 . S
C981 H993 0.929 . S
C982 C978 1.531 . S
C982 H994 0.960 . S
C982 H995 0.962 . S
C982 H996 0.960 . S
C983 C980 1.511 . S
C983 H997 0.961 . S
C983 H998 0.961 . S
C983 H999 0.961 . S
C984 C985 1.370 . S
C984 C986 1.363 . S
C984 H1000 0.931 . S
C985 C984 1.370 . S
C985 C989 1.408 . S
C986 C984 1.363 . S
C986 C987 1.370 . S
C986 C990 1.524 . S
C987 C979 1.503 . S
C987 C986 1.370 . S
C987 C988 1.403 . S
C988 C987 1.403 . S
C988 C989 1.404 . S
C988 C991 1.539 . S
C989 C985 1.408 . S
C989 C988 1.404 . S
C989 H1001 0.930 . S
C990 C986 1.524 . S
C990 H1002 0.956 . S
C990 H1003 0.961 . S
C990 H1004 0.961 . S
C991 C988 1.539 . S
C991 H1005 0.958 . S
C991 H1006 0.961 . S
C991 H1007 0.960 . S
H992 C976 0.931 . S
H993 C981 0.929 . S
H994 C982 0.960 . S
H995 C982 0.962 . S
H996 C982 0.960 . S
H997 C983 0.961 . S
H998 C983 0.961 . S
H999 C983 0.961 . S
H1000 C984 0.931 . S
H1001 C989 0.930 . S
H1002 C990 0.956 . S
H1003 C990 0.961 . S
H1004 C990 0.961 . S
H1005 C991 0.958 . S
H1006 C991 0.961 . S
H1007 C991 0.960 . S
C1008 C1009 1.391 . S
C1008 C1010 1.394 . S
C1008 H1024 0.931 . S
C1009 C1008 1.391 . S
C1009 C1013 1.376 . S
C1010 C1008 1.394 . S
C1010 C1011 1.369 . S
C1010 C1014 1.531 . S
C1011 C1010 1.369 . S
C1011 C1012 1.410 . S
C1011 C1019 1.503 1_545 S
C1012 C1011 1.410 . S
C1012 C1013 1.392 . S
C1012 C1015 1.511 1_545 S
C1013 C1009 1.376 . S
C1013 C1012 1.392 . S
C1013 H1025 0.929 . S
C1014 C1010 1.531 . S
C1014 H1026 0.960 . S
C1014 H1027 0.962 . S
C1014 H1028 0.960 . S
C1015 C1012 1.511 1_565 S
C1015 H1029 0.961 . S
C1015 H1030 0.961 . S
C1015 H1031 0.961 . S
C1016 C1017 1.370 . S
C1016 C1018 1.363 . S
C1016 H1032 0.931 . S
C1017 C1016 1.370 . S
C1017 C1021 1.408 . S
C1018 C1016 1.363 . S
C1018 C1019 1.370 . S
C1018 C1022 1.524 . S
C1019 C1011 1.503 1_565 S
C1019 C1018 1.370 . S
C1019 C1020 1.403 . S
C1020 C1019 1.403 . S
C1020 C1021 1.404 . S
C1020 C1023 1.539 . S
C1021 C1017 1.408 . S
C1021 C1020 1.404 . S
C1021 H1033 0.930 . S
C1022 C1018 1.524 . S
C1022 H1034 0.956 1_565 S
C1022 H1035 0.961 . S
C1022 H1036 0.961 . S
C1023 C1020 1.539 . S
C1023 H1037 0.958 . S
C1023 H1038 0.961 . S
C1023 H1039 0.960 . S
H1024 C1008 0.931 . S
H1025 C1013 0.929 . S
H1026 C1014 0.960 . S
H1027 C1014 0.962 . S
H1028 C1014 0.960 . S
H1029 C1015 0.961 . S
H1030 C1015 0.961 . S
H1031 C1015 0.961 . S
H1032 C1016 0.931 . S
H1033 C1021 0.930 . S
H1034 C1022 0.956 1_545 S
H1035 C1022 0.961 . S
H1036 C1022 0.961 . S
H1037 C1023 0.958 . S
H1038 C1023 0.961 . S
H1039 C1023 0.960 . S
C1040 C1041 1.391 . S
C1040 C1042 1.394 . S
C1040 H1056 0.931 . S
C1041 C1040 1.391 . S
C1041 C1045 1.376 . S
C1042 C1040 1.394 . S
C1042 C1043 1.369 . S
C1042 C1046 1.531 . S
C1043 C1042 1.369 . S
C1043 C1044 1.410 . S
C1043 C1051 1.503 . S
C1044 C1043 1.410 . S
C1044 C1045 1.392 . S
C1044 C1047 1.511 . S
C1045 C1041 1.376 . S
C1045 C1044 1.392 . S
C1045 H1057 0.929 . S
C1046 C1042 1.531 . S
C1046 H1058 0.960 . S
C1046 H1059 0.962 . S
C1046 H1060 0.960 . S
C1047 C1044 1.511 . S
C1047 H1061 0.961 . S
C1047 H1062 0.961 . S
C1047 H1063 0.961 . S
C1048 C1049 1.370 . S
C1048 C1050 1.363 . S
C1048 H1064 0.931 . S
C1049 C1048 1.370 . S
C1049 C1053 1.408 . S
C1050 C1048 1.363 . S
C1050 C1051 1.370 . S
C1050 C1054 1.524 . S
C1051 C1043 1.503 . S
C1051 C1050 1.370 . S
C1051 C1052 1.403 . S
C1052 C1051 1.403 . S
C1052 C1053 1.404 . S
C1052 C1055 1.539 . S
C1053 C1049 1.408 . S
C1053 C1052 1.404 . S
C1053 H1065 0.930 . S
C1054 C1050 1.524 . S
C1054 H1066 0.956 . S
C1054 H1067 0.961 . S
C1054 H1068 0.961 . S
C1055 C1052 1.539 . S
C1055 H1069 0.958 . S
C1055 H1070 0.961 . S
C1055 H1071 0.960 . S
H1056 C1040 0.931 . S
H1057 C1045 0.929 . S
H1058 C1046 0.960 . S
H1059 C1046 0.962 . S
H1060 C1046 0.960 . S
H1061 C1047 0.961 . S
H1062 C1047 0.961 . S
H1063 C1047 0.961 . S
H1064 C1048 0.931 . S
H1065 C1053 0.930 . S
H1066 C1054 0.956 . S
H1067 C1054 0.961 . S
H1068 C1054 0.961 . S
H1069 C1055 0.958 . S
H1070 C1055 0.961 . S
H1071 C1055 0.960 . S
C1072 C1073 1.391 . S
C1072 C1074 1.394 . S
C1072 H1088 0.931 . S
C1073 C1072 1.391 . S
C1073 C1077 1.376 . S
C1074 C1072 1.394 . S
C1074 C1075 1.369 . S
C1074 C1078 1.531 . S
C1075 C1074 1.369 . S
C1075 C1076 1.410 . S
C1075 C1083 1.503 1_655 S
C1076 C1075 1.410 . S
C1076 C1077 1.392 . S
C1076 C1079 1.511 1_655 S
C1077 C1073 1.376 . S
C1077 C1076 1.392 . S
C1077 H1089 0.929 . S
C1078 C1074 1.531 . S
C1078 H1090 0.960 . S
C1078 H1091 0.962 . S
C1078 H1092 0.960 . S
C1079 C1076 1.511 1_455 S
C1079 H1093 0.961 . S
C1079 H1094 0.961 . S
C1079 H1095 0.961 . S
C1080 C1081 1.370 . S
C1080 C1082 1.363 . S
C1080 H1096 0.931 . S
C1081 C1080 1.370 . S
C1081 C1085 1.408 . S
C1082 C1080 1.363 . S
C1082 C1083 1.370 . S
C1082 C1086 1.524 1_455 S
C1083 C1075 1.503 1_455 S
C1083 C1082 1.370 . S
C1083 C1084 1.403 . S
C1084 C1083 1.403 . S
C1084 C1085 1.404 . S
C1084 C1087 1.539 . S
C1085 C1081 1.408 . S
C1085 C1084 1.404 . S
C1085 H1097 0.930 . S
C1086 C1082 1.524 1_655 S
C1086 H1098 0.956 . S
C1086 H1099 0.961 . S
C1086 H1100 0.961 . S
C1087 C1084 1.539 . S
C1087 H1101 0.958 . S
C1087 H1102 0.961 . S
C1087 H1103 0.960 . S
H1088 C1072 0.931 . S
H1089 C1077 0.929 . S
H1090 C1078 0.960 . S
H1091 C1078 0.962 . S
H1092 C1078 0.960 . S
H1093 C1079 0.961 . S
H1094 C1079 0.961 . S
H1095 C1079 0.961 . S
H1096 C1080 0.931 . S
H1097 C1085 0.930 . S
H1098 C1086 0.956 . S
H1099 C1086 0.961 . S
H1100 C1086 0.961 . S
H1101 C1087 0.958 . S
H1102 C1087 0.961 . S
H1103 C1087 0.960 . S
C1104 C1105 1.391 . S
C1104 C1106 1.394 . S
C1104 H1120 0.931 . S
C1105 C1104 1.391 . S
C1105 C1109 1.376 . S
C1106 C1104 1.394 . S
C1106 C1107 1.369 . S
C1106 C1110 1.531 . S
C1107 C1106 1.369 . S
C1107 C1108 1.410 . S
C1107 C1115 1.503 1_655 S
C1108 C1107 1.410 . S
C1108 C1109 1.392 . S
C1108 C1111 1.511 1_655 S
C1109 C1105 1.376 . S
C1109 C1108 1.392 . S
C1109 H1121 0.929 . S
C1110 C1106 1.531 . S
C1110 H1122 0.960 1_655 S
C1110 H1123 0.962 . S
C1110 H1124 0.960 . S
C1111 C1108 1.511 1_455 S
C1111 H1125 0.961 1_455 S
C1111 H1126 0.961 . S
C1111 H1127 0.961 . S
C1112 C1113 1.370 . S
C1112 C1114 1.363 . S
C1112 H1128 0.931 . S
C1113 C1112 1.370 . S
C1113 C1117 1.408 . S
C1114 C1112 1.363 . S
C1114 C1115 1.370 . S
C1114 C1118 1.524 1_455 S
C1115 C1107 1.503 1_455 S
C1115 C1114 1.370 . S
C1115 C1116 1.403 . S
C1116 C1115 1.403 . S
C1116 C1117 1.404 . S
C1116 C1119 1.539 . S
C1117 C1113 1.408 . S
C1117 C1116 1.404 . S
C1117 H1129 0.930 . S
C1118 C1114 1.524 1_655 S
C1118 H1130 0.956 . S
C1118 H1131 0.961 . S
C1118 H1132 0.961 . S
C1119 C1116 1.539 . S
C1119 H1133 0.958 . S
C1119 H1134 0.961 . S
C1119 H1135 0.960 . S
H1120 C1104 0.931 . S
H1121 C1109 0.929 . S
H1122 C1110 0.960 1_455 S
H1123 C1110 0.962 . S
H1124 C1110 0.960 . S
H1125 C1111 0.961 1_655 S
H1126 C1111 0.961 . S
H1127 C1111 0.961 . S
H1128 C1112 0.931 . S
H1129 C1117 0.930 . S
H1130 C1118 0.956 . S
H1131 C1118 0.961 . S
H1132 C1118 0.961 . S
H1133 C1119 0.958 . S
H1134 C1119 0.961 . S
H1135 C1119 0.960 . S
C1136 C1137 1.391 . S
C1136 C1138 1.394 . S
C1136 H1152 0.931 . S
C1137 C1136 1.391 . S
C1137 C1141 1.376 . S
C1138 C1136 1.394 . S
C1138 C1139 1.369 . S
C1138 C1142 1.531 . S
C1139 C1138 1.369 . S
C1139 C1140 1.410 . S
C1139 C1147 1.503 1_545 S
C1140 C1139 1.410 . S
C1140 C1141 1.392 . S
C1140 C1143 1.511 1_545 S
C1141 C1137 1.376 . S
C1141 C1140 1.392 . S
C1141 H1153 0.929 . S
C1142 C1138 1.531 . S
C1142 H1154 0.960 . S
C1142 H1155 0.962 . S
C1142 H1156 0.960 . S
C1143 C1140 1.511 1_565 S
C1143 H1157 0.961 . S
C1143 H1158 0.961 . S
C1143 H1159 0.961 . S
C1144 C1145 1.370 . S
C1144 C1146 1.363 . S
C1144 H1160 0.931 . S
C1145 C1144 1.370 . S
C1145 C1149 1.408 . S
C1146 C1144 1.363 . S
C1146 C1147 1.370 . S
C1146 C1150 1.524 1_565 S
C1147 C1139 1.503 1_565 S
C1147 C1146 1.370 . S
C1147 C1148 1.403 . S
C1148 C1147 1.403 . S
C1148 C1149 1.404 . S
C1148 C1151 1.539 . S
C1149 C1145 1.408 . S
C1149 C1148 1.404 . S
C1149 H1161 0.930 . S
C1150 C1146 1.524 1_545 S
C1150 H1162 0.956 . S
C1150 H1163 0.961 . S
C1150 H1164 0.961 . S
C1151 C1148 1.539 . S
C1151 H1165 0.958 . S
C1151 H1166 0.961 . S
C1151 H1167 0.960 . S
H1152 C1136 0.931 . S
H1153 C1141 0.929 . S
H1154 C1142 0.960 . S
H1155 C1142 0.962 . S
H1156 C1142 0.960 . S
H1157 C1143 0.961 . S
H1158 C1143 0.961 . S
H1159 C1143 0.961 . S
H1160 C1144 0.931 . S
H1161 C1149 0.930 . S
H1162 C1150 0.956 . S
H1163 C1150 0.961 . S
H1164 C1150 0.961 . S
H1165 C1151 0.958 . S
H1166 C1151 0.961 . S
H1167 C1151 0.960 . S
C1168 C1169 1.391 . S
C1168 C1170 1.394 . S
C1168 H1184 0.931 . S
C1169 C1168 1.391 . S
C1169 C1173 1.376 . S
C1170 C1168 1.394 . S
C1170 C1171 1.369 . S
C1170 C1174 1.531 . S
C1171 C1170 1.369 . S
C1171 C1172 1.410 . S
C1171 C1179 1.503 . S
C1172 C1171 1.410 . S
C1172 C1173 1.392 . S
C1172 C1175 1.511 . S
C1173 C1169 1.376 . S
C1173 C1172 1.392 . S
C1173 H1185 0.929 . S
C1174 C1170 1.531 . S
C1174 H1186 0.960 . S
C1174 H1187 0.962 . S
C1174 H1188 0.960 . S
C1175 C1172 1.511 . S
C1175 H1189 0.961 . S
C1175 H1190 0.961 . S
C1175 H1191 0.961 . S
C1176 C1177 1.370 . S
C1176 C1178 1.363 . S
C1176 H1192 0.931 . S
C1177 C1176 1.370 . S
C1177 C1181 1.408 . S
C1178 C1176 1.363 . S
C1178 C1179 1.370 . S
C1178 C1182 1.524 . S
C1179 C1171 1.503 . S
C1179 C1178 1.370 . S
C1179 C1180 1.403 . S
C1180 C1179 1.403 . S
C1180 C1181 1.404 . S
C1180 C1183 1.539 . S
C1181 C1177 1.408 . S
C1181 C1180 1.404 . S
C1181 H1193 0.930 . S
C1182 C1178 1.524 . S
C1182 H1194 0.956 . S
C1182 H1195 0.961 . S
C1182 H1196 0.961 . S
C1183 C1180 1.539 . S
C1183 H1197 0.958 . S
C1183 H1198 0.961 . S
C1183 H1199 0.960 . S
H1184 C1168 0.931 . S
H1185 C1173 0.929 . S
H1186 C1174 0.960 . S
H1187 C1174 0.962 . S
H1188 C1174 0.960 . S
H1189 C1175 0.961 . S
H1190 C1175 0.961 . S
H1191 C1175 0.961 . S
H1192 C1176 0.931 . S
H1193 C1181 0.930 . S
H1194 C1182 0.956 . S
H1195 C1182 0.961 . S
H1196 C1182 0.961 . S
H1197 C1183 0.958 . S
H1198 C1183 0.961 . S
H1199 C1183 0.960 . S
C1200 C1201 1.391 . S
C1200 C1202 1.394 . S
C1200 H1216 0.931 . S
C1201 C1200 1.391 . S
C1201 C1205 1.376 . S
C1202 C1200 1.394 . S
C1202 C1203 1.369 . S
C1202 C1206 1.531 . S
C1203 C1202 1.369 . S
C1203 C1204 1.410 . S
C1203 C1211 1.503 . S
C1204 C1203 1.410 . S
C1204 C1205 1.392 . S
C1204 C1207 1.511 . S
C1205 C1201 1.376 . S
C1205 C1204 1.392 . S
C1205 H1217 0.929 . S
C1206 C1202 1.531 . S
C1206 H1218 0.960 . S
C1206 H1219 0.962 . S
C1206 H1220 0.960 . S
C1207 C1204 1.511 . S
C1207 H1221 0.961 . S
C1207 H1222 0.961 . S
C1207 H1223 0.961 . S
C1208 C1209 1.370 . S
C1208 C1210 1.363 . S
C1208 H1224 0.931 . S
C1209 C1208 1.370 . S
C1209 C1213 1.408 . S
C1210 C1208 1.363 . S
C1210 C1211 1.370 . S
C1210 C1214 1.524 . S
C1211 C1203 1.503 . S
C1211 C1210 1.370 . S
C1211 C1212 1.403 . S
C1212 C1211 1.403 . S
C1212 C1213 1.404 . S
C1212 C1215 1.539 . S
C1213 C1209 1.408 . S
C1213 C1212 1.404 . S
C1213 H1225 0.930 . S
C1214 C1210 1.524 . S
C1214 H1226 0.956 . S
C1214 H1227 0.961 . S
C1214 H1228 0.961 . S
C1215 C1212 1.539 . S
C1215 H1229 0.958 . S
C1215 H1230 0.961 . S
C1215 H1231 0.960 . S
H1216 C1200 0.931 . S
H1217 C1205 0.929 . S
H1218 C1206 0.960 . S
H1219 C1206 0.962 . S
H1220 C1206 0.960 . S
H1221 C1207 0.961 . S
H1222 C1207 0.961 . S
H1223 C1207 0.961 . S
H1224 C1208 0.931 . S
H1225 C1213 0.930 . S
H1226 C1214 0.956 . S
H1227 C1214 0.961 . S
H1228 C1214 0.961 . S
H1229 C1215 0.958 . S
H1230 C1215 0.961 . S
H1231 C1215 0.960 . S
C1232 C1233 1.391 . S
C1232 C1234 1.394 . S
C1232 H1248 0.931 . S
C1233 C1232 1.391 . S
C1233 C1237 1.376 . S
C1234 C1232 1.394 . S
C1234 C1235 1.369 . S
C1234 C1238 1.531 . S
C1235 C1234 1.369 . S
C1235 C1236 1.410 . S
C1235 C1243 1.503 . S
C1236 C1235 1.410 . S
C1236 C1237 1.392 . S
C1236 C1239 1.511 . S
C1237 C1233 1.376 . S
C1237 C1236 1.392 . S
C1237 H1249 0.929 . S
C1238 C1234 1.531 . S
C1238 H1250 0.960 . S
C1238 H1251 0.962 . S
C1238 H1252 0.960 . S
C1239 C1236 1.511 . S
C1239 H1253 0.961 . S
C1239 H1254 0.961 . S
C1239 H1255 0.961 . S
C1240 C1241 1.370 . S
C1240 C1242 1.363 . S
C1240 H1256 0.931 . S
C1241 C1240 1.370 . S
C1241 C1245 1.408 . S
C1242 C1240 1.363 . S
C1242 C1243 1.370 . S
C1242 C1246 1.524 . S
C1243 C1235 1.503 . S
C1243 C1242 1.370 . S
C1243 C1244 1.403 . S
C1244 C1243 1.403 . S
C1244 C1245 1.404 . S
C1244 C1247 1.539 . S
C1245 C1241 1.408 . S
C1245 C1244 1.404 . S
C1245 H1257 0.930 . S
C1246 C1242 1.524 . S
C1246 H1258 0.956 . S
C1246 H1259 0.961 . S
C1246 H1260 0.961 . S
C1247 C1244 1.539 . S
C1247 H1261 0.958 . S
C1247 H1262 0.961 . S
C1247 H1263 0.960 . S
H1248 C1232 0.931 . S
H1249 C1237 0.929 . S
H1250 C1238 0.960 . S
H1251 C1238 0.962 . S
H1252 C1238 0.960 . S
H1253 C1239 0.961 . S
H1254 C1239 0.961 . S
H1255 C1239 0.961 . S
H1256 C1240 0.931 . S
H1257 C1245 0.930 . S
H1258 C1246 0.956 . S
H1259 C1246 0.961 . S
H1260 C1246 0.961 . S
H1261 C1247 0.958 . S
H1262 C1247 0.961 . S
H1263 C1247 0.960 . S
C1264 C1265 1.391 . S
C1264 C1266 1.394 . S
C1264 H1280 0.931 . S
C1265 C1264 1.391 . S
C1265 C1269 1.376 . S
C1266 C1264 1.394 . S
C1266 C1267 1.369 . S
C1266 C1270 1.531 . S
C1267 C1266 1.369 . S
C1267 C1268 1.410 . S
C1267 C1275 1.503 . S
C1268 C1267 1.410 . S
C1268 C1269 1.392 . S
C1268 C1271 1.511 . S
C1269 C1265 1.376 . S
C1269 C1268 1.392 . S
C1269 H1281 0.929 . S
C1270 C1266 1.531 . S
C1270 H1282 0.960 . S
C1270 H1283 0.962 . S
C1270 H1284 0.960 . S
C1271 C1268 1.511 . S
C1271 H1285 0.961 . S
C1271 H1286 0.961 . S
C1271 H1287 0.961 . S
C1272 C1273 1.370 . S
C1272 C1274 1.363 . S
C1272 H1288 0.931 . S
C1273 C1272 1.370 . S
C1273 C1277 1.408 . S
C1274 C1272 1.363 . S
C1274 C1275 1.370 . S
C1274 C1278 1.524 . S
C1275 C1267 1.503 . S
C1275 C1274 1.370 . S
C1275 C1276 1.403 . S
C1276 C1275 1.403 . S
C1276 C1277 1.404 . S
C1276 C1279 1.539 . S
C1277 C1273 1.408 . S
C1277 C1276 1.404 . S
C1277 H1289 0.930 . S
C1278 C1274 1.524 . S
C1278 H1290 0.956 . S
C1278 H1291 0.961 . S
C1278 H1292 0.961 . S
C1279 C1276 1.539 . S
C1279 H1293 0.958 . S
C1279 H1294 0.961 . S
C1279 H1295 0.960 . S
H1280 C1264 0.931 . S
H1281 C1269 0.929 . S
H1282 C1270 0.960 . S
H1283 C1270 0.962 . S
H1284 C1270 0.960 . S
H1285 C1271 0.961 . S
H1286 C1271 0.961 . S
H1287 C1271 0.961 . S
H1288 C1272 0.931 . S
H1289 C1277 0.930 . S
H1290 C1278 0.956 . S
H1291 C1278 0.961 . S
H1292 C1278 0.961 . S
H1293 C1279 0.958 . S
H1294 C1279 0.961 . S
H1295 C1279 0.960 . S
C1296 C1297 1.391 . S
C1296 C1298 1.394 . S
C1296 H1312 0.931 . S
C1297 C1296 1.391 . S
C1297 C1301 1.376 . S
C1298 C1296 1.394 . S
C1298 C1299 1.369 . S
C1298 C1302 1.531 . S
C1299 C1298 1.369 . S
C1299 C1300 1.410 . S
C1299 C1307 1.503 . S
C1300 C1299 1.410 . S
C1300 C1301 1.392 . S
C1300 C1303 1.511 . S
C1301 C1297 1.376 . S
C1301 C1300 1.392 . S
C1301 H1313 0.929 . S
C1302 C1298 1.531 . S
C1302 H1314 0.960 . S
C1302 H1315 0.962 . S
C1302 H1316 0.960 . S
C1303 C1300 1.511 . S
C1303 H1317 0.961 . S
C1303 H1318 0.961 . S
C1303 H1319 0.961 . S
C1304 C1305 1.370 . S
C1304 C1306 1.363 . S
C1304 H1320 0.931 . S
C1305 C1304 1.370 . S
C1305 C1309 1.408 . S
C1306 C1304 1.363 . S
C1306 C1307 1.370 . S
C1306 C1310 1.524 . S
C1307 C1299 1.503 . S
C1307 C1306 1.370 . S
C1307 C1308 1.403 . S
C1308 C1307 1.403 . S
C1308 C1309 1.404 . S
C1308 C1311 1.539 . S
C1309 C1305 1.408 . S
C1309 C1308 1.404 . S
C1309 H1321 0.930 . S
C1310 C1306 1.524 . S
C1310 H1322 0.956 . S
C1310 H1323 0.961 . S
C1310 H1324 0.961 . S
C1311 C1308 1.539 . S
C1311 H1325 0.958 . S
C1311 H1326 0.961 . S
C1311 H1327 0.960 . S
H1312 C1296 0.931 . S
H1313 C1301 0.929 . S
H1314 C1302 0.960 . S
H1315 C1302 0.962 . S
H1316 C1302 0.960 . S
H1317 C1303 0.961 . S
H1318 C1303 0.961 . S
H1319 C1303 0.961 . S
H1320 C1304 0.931 . S
H1321 C1309 0.930 . S
H1322 C1310 0.956 . S
H1323 C1310 0.961 . S
H1324 C1310 0.961 . S
H1325 C1311 0.958 . S
H1326 C1311 0.961 . S
H1327 C1311 0.960 . S
C1328 C1329 1.391 . S
C1328 C1330 1.394 . S
C1328 H1344 0.931 . S
C1329 C1328 1.391 . S
C1329 C1333 1.376 . S
C1330 C1328 1.394 . S
C1330 C1331 1.369 . S
C1330 C1334 1.531 . S
C1331 C1330 1.369 . S
C1331 C1332 1.410 . S
C1331 C1339 1.503 . S
C1332 C1331 1.410 . S
C1332 C1333 1.392 . S
C1332 C1335 1.511 . S
C1333 C1329 1.376 . S
C1333 C1332 1.392 . S
C1333 H1345 0.929 . S
C1334 C1330 1.531 . S
C1334 H1346 0.960 . S
C1334 H1347 0.962 . S
C1334 H1348 0.960 . S
C1335 C1332 1.511 . S
C1335 H1349 0.961 . S
C1335 H1350 0.961 . S
C1335 H1351 0.961 . S
C1336 C1337 1.370 . S
C1336 C1338 1.363 . S
C1336 H1352 0.931 . S
C1337 C1336 1.370 . S
C1337 C1341 1.408 . S
C1338 C1336 1.363 . S
C1338 C1339 1.370 . S
C1338 C1342 1.524 . S
C1339 C1331 1.503 . S
C1339 C1338 1.370 . S
C1339 C1340 1.403 . S
C1340 C1339 1.403 . S
C1340 C1341 1.404 . S
C1340 C1343 1.539 . S
C1341 C1337 1.408 . S
C1341 C1340 1.404 . S
C1341 H1353 0.930 . S
C1342 C1338 1.524 . S
C1342 H1354 0.956 . S
C1342 H1355 0.961 . S
C1342 H1356 0.961 . S
C1343 C1340 1.539 . S
C1343 H1357 0.958 . S
C1343 H1358 0.961 . S
C1343 H1359 0.960 . S
H1344 C1328 0.931 . S
H1345 C1333 0.929 . S
H1346 C1334 0.960 . S
H1347 C1334 0.962 . S
H1348 C1334 0.960 . S
H1349 C1335 0.961 . S
H1350 C1335 0.961 . S
H1351 C1335 0.961 . S
H1352 C1336 0.931 . S
H1353 C1341 0.930 . S
H1354 C1342 0.956 . S
H1355 C1342 0.961 . S
H1356 C1342 0.961 . S
H1357 C1343 0.958 . S
H1358 C1343 0.961 . S
H1359 C1343 0.960 . S
C1360 C1361 1.391 . S
C1360 C1362 1.394 . S
C1360 H1376 0.931 . S
C1361 C1360 1.391 . S
C1361 C1365 1.376 . S
C1362 C1360 1.394 . S
C1362 C1363 1.369 . S
C1362 C1366 1.531 . S
C1363 C1362 1.369 . S
C1363 C1364 1.410 . S
C1363 C1371 1.503 . S
C1364 C1363 1.410 . S
C1364 C1365 1.392 . S
C1364 C1367 1.511 . S
C1365 C1361 1.376 . S
C1365 C1364 1.392 . S
C1365 H1377 0.929 . S
C1366 C1362 1.531 . S
C1366 H1378 0.960 . S
C1366 H1379 0.962 . S
C1366 H1380 0.960 . S
C1367 C1364 1.511 . S
C1367 H1381 0.961 . S
C1367 H1382 0.961 . S
C1367 H1383 0.961 . S
C1368 C1369 1.370 . S
C1368 C1370 1.363 . S
C1368 H1384 0.931 . S
C1369 C1368 1.370 . S
C1369 C1373 1.408 . S
C1370 C1368 1.363 . S
C1370 C1371 1.370 . S
C1370 C1374 1.524 . S
C1371 C1363 1.503 . S
C1371 C1370 1.370 . S
C1371 C1372 1.403 . S
C1372 C1371 1.403 . S
C1372 C1373 1.404 . S
C1372 C1375 1.539 . S
C1373 C1369 1.408 . S
C1373 C1372 1.404 . S
C1373 H1385 0.930 . S
C1374 C1370 1.524 . S
C1374 H1386 0.956 . S
C1374 H1387 0.961 . S
C1374 H1388 0.961 . S
C1375 C1372 1.539 . S
C1375 H1389 0.958 . S
C1375 H1390 0.961 . S
C1375 H1391 0.960 . S
H1376 C1360 0.931 . S
H1377 C1365 0.929 . S
H1378 C1366 0.960 . S
H1379 C1366 0.962 . S
H1380 C1366 0.960 . S
H1381 C1367 0.961 . S
H1382 C1367 0.961 . S
H1383 C1367 0.961 . S
H1384 C1368 0.931 . S
H1385 C1373 0.930 . S
H1386 C1374 0.956 . S
H1387 C1374 0.961 . S
H1388 C1374 0.961 . S
H1389 C1375 0.958 . S
H1390 C1375 0.961 . S
H1391 C1375 0.960 . S
C1392 C1393 1.391 . S
C1392 C1394 1.394 . S
C1392 H1408 0.931 . S
C1393 C1392 1.391 . S
C1393 C1397 1.376 . S
C1394 C1392 1.394 . S
C1394 C1395 1.369 . S
C1394 C1398 1.531 . S
C1395 C1394 1.369 . S
C1395 C1396 1.410 . S
C1395 C1403 1.503 . S
C1396 C1395 1.410 . S
C1396 C1397 1.392 . S
C1396 C1399 1.511 . S
C1397 C1393 1.376 . S
C1397 C1396 1.392 . S
C1397 H1409 0.929 . S
C1398 C1394 1.531 . S
C1398 H1410 0.960 . S
C1398 H1411 0.962 . S
C1398 H1412 0.960 . S
C1399 C1396 1.511 . S
C1399 H1413 0.961 . S
C1399 H1414 0.961 . S
C1399 H1415 0.961 . S
C1400 C1401 1.370 . S
C1400 C1402 1.363 . S
C1400 H1416 0.931 . S
C1401 C1400 1.370 . S
C1401 C1405 1.408 . S
C1402 C1400 1.363 . S
C1402 C1403 1.370 . S
C1402 C1406 1.524 . S
C1403 C1395 1.503 . S
C1403 C1402 1.370 . S
C1403 C1404 1.403 . S
C1404 C1403 1.403 . S
C1404 C1405 1.404 . S
C1404 C1407 1.539 . S
C1405 C1401 1.408 . S
C1405 C1404 1.404 . S
C1405 H1417 0.930 . S
C1406 C1402 1.524 . S
C1406 H1418 0.956 . S
C1406 H1419 0.961 . S
C1406 H1420 0.961 . S
C1407 C1404 1.539 . S
C1407 H1421 0.958 . S
C1407 H1422 0.961 . S
C1407 H1423 0.960 . S
H1408 C1392 0.931 . S
H1409 C1397 0.929 . S
H1410 C1398 0.960 . S
H1411 C1398 0.962 . S
H1412 C1398 0.960 . S
H1413 C1399 0.961 . S
H1414 C1399 0.961 . S
H1415 C1399 0.961 . S
H1416 C1400 0.931 . S
H1417 C1405 0.930 . S
H1418 C1406 0.956 . S
H1419 C1406 0.961 . S
H1420 C1406 0.961 . S
H1421 C1407 0.958 . S
H1422 C1407 0.961 . S
H1423 C1407 0.960 . S
C1424 C1425 1.391 . S
C1424 C1426 1.394 . S
C1424 H1440 0.931 . S
C1425 C1424 1.391 . S
C1425 C1429 1.376 . S
C1426 C1424 1.394 . S
C1426 C1427 1.369 . S
C1426 C1430 1.531 . S
C1427 C1426 1.369 . S
C1427 C1428 1.410 . S
C1427 C1435 1.503 . S
C1428 C1427 1.410 . S
C1428 C1429 1.392 . S
C1428 C1431 1.511 . S
C1429 C1425 1.376 . S
C1429 C1428 1.392 . S
C1429 H1441 0.929 . S
C1430 C1426 1.531 . S
C1430 H1442 0.960 . S
C1430 H1443 0.962 . S
C1430 H1444 0.960 . S
C1431 C1428 1.511 . S
C1431 H1445 0.961 . S
C1431 H1446 0.961 . S
C1431 H1447 0.961 . S
C1432 C1433 1.370 . S
C1432 C1434 1.363 . S
C1432 H1448 0.931 . S
C1433 C1432 1.370 . S
C1433 C1437 1.408 . S
C1434 C1432 1.363 . S
C1434 C1435 1.370 . S
C1434 C1438 1.524 . S
C1435 C1427 1.503 . S
C1435 C1434 1.370 . S
C1435 C1436 1.403 . S
C1436 C1435 1.403 . S
C1436 C1437 1.404 . S
C1436 C1439 1.539 . S
C1437 C1433 1.408 . S
C1437 C1436 1.404 . S
C1437 H1449 0.930 . S
C1438 C1434 1.524 . S
C1438 H1450 0.956 . S
C1438 H1451 0.961 . S
C1438 H1452 0.961 . S
C1439 C1436 1.539 . S
C1439 H1453 0.958 . S
C1439 H1454 0.961 . S
C1439 H1455 0.960 . S
H1440 C1424 0.931 . S
H1441 C1429 0.929 . S
H1442 C1430 0.960 . S
H1443 C1430 0.962 . S
H1444 C1430 0.960 . S
H1445 C1431 0.961 . S
H1446 C1431 0.961 . S
H1447 C1431 0.961 . S
H1448 C1432 0.931 . S
H1449 C1437 0.930 . S
H1450 C1438 0.956 . S
H1451 C1438 0.961 . S
H1452 C1438 0.961 . S
H1453 C1439 0.958 . S
H1454 C1439 0.961 . S
H1455 C1439 0.960 . S
C1456 C1457 1.391 . S
C1456 C1458 1.394 . S
C1456 H1472 0.931 . S
C1457 C1456 1.391 . S
C1457 C1461 1.376 . S
C1458 C1456 1.394 . S
C1458 C1459 1.369 . S
C1458 C1462 1.531 . S
C1459 C1458 1.369 . S
C1459 C1460 1.410 . S
C1459 C1467 1.503 . S
C1460 C1459 1.410 . S
C1460 C1461 1.392 . S
C1460 C1463 1.511 . S
C1461 C1457 1.376 . S
C1461 C1460 1.392 . S
C1461 H1473 0.929 . S
C1462 C1458 1.531 . S
C1462 H1474 0.960 . S
C1462 H1475 0.962 . S
C1462 H1476 0.960 . S
C1463 C1460 1.511 . S
C1463 H1477 0.961 . S
C1463 H1478 0.961 . S
C1463 H1479 0.961 . S
C1464 C1465 1.370 . S
C1464 C1466 1.363 . S
C1464 H1480 0.931 . S
C1465 C1464 1.370 . S
C1465 C1469 1.408 . S
C1466 C1464 1.363 . S
C1466 C1467 1.370 . S
C1466 C1470 1.524 . S
C1467 C1459 1.503 . S
C1467 C1466 1.370 . S
C1467 C1468 1.403 . S
C1468 C1467 1.403 . S
C1468 C1469 1.404 . S
C1468 C1471 1.539 . S
C1469 C1465 1.408 . S
C1469 C1468 1.404 . S
C1469 H1481 0.930 . S
C1470 C1466 1.524 . S
C1470 H1482 0.956 . S
C1470 H1483 0.961 . S
C1470 H1484 0.961 . S
C1471 C1468 1.539 . S
C1471 H1485 0.958 . S
C1471 H1486 0.961 . S
C1471 H1487 0.960 . S
H1472 C1456 0.931 . S
H1473 C1461 0.929 . S
H1474 C1462 0.960 . S
H1475 C1462 0.962 . S
H1476 C1462 0.960 . S
H1477 C1463 0.961 . S
H1478 C1463 0.961 . S
H1479 C1463 0.961 . S
H1480 C1464 0.931 . S
H1481 C1469 0.930 . S
H1482 C1470 0.956 . S
H1483 C1470 0.961 . S
H1484 C1470 0.961 . S
H1485 C1471 0.958 . S
H1486 C1471 0.961 . S
H1487 C1471 0.960 . S
C1488 C1489 1.391 . S
C1488 C1490 1.394 . S
C1488 H1504 0.931 . S
C1489 C1488 1.391 . S
C1489 C1493 1.376 . S
C1490 C1488 1.394 . S
C1490 C1491 1.369 . S
C1490 C1494 1.531 . S
C1491 C1490 1.369 . S
C1491 C1492 1.410 . S
C1491 C1499 1.503 . S
C1492 C1491 1.410 . S
C1492 C1493 1.392 . S
C1492 C1495 1.511 . S
C1493 C1489 1.376 . S
C1493 C1492 1.392 . S
C1493 H1505 0.929 . S
C1494 C1490 1.531 . S
C1494 H1506 0.960 . S
C1494 H1507 0.962 . S
C1494 H1508 0.960 . S
C1495 C1492 1.511 . S
C1495 H1509 0.961 . S
C1495 H1510 0.961 . S
C1495 H1511 0.961 . S
C1496 C1497 1.370 . S
C1496 C1498 1.363 . S
C1496 H1512 0.931 . S
C1497 C1496 1.370 . S
C1497 C1501 1.408 . S
C1498 C1496 1.363 . S
C1498 C1499 1.370 . S
C1498 C1502 1.524 . S
C1499 C1491 1.503 . S
C1499 C1498 1.370 . S
C1499 C1500 1.403 . S
C1500 C1499 1.403 . S
C1500 C1501 1.404 . S
C1500 C1503 1.539 . S
C1501 C1497 1.408 . S
C1501 C1500 1.404 . S
C1501 H1513 0.930 . S
C1502 C1498 1.524 . S
C1502 H1514 0.956 . S
C1502 H1515 0.961 . S
C1502 H1516 0.961 . S
C1503 C1500 1.539 . S
C1503 H1517 0.958 . S
C1503 H1518 0.961 . S
C1503 H1519 0.960 . S
H1504 C1488 0.931 . S
H1505 C1493 0.929 . S
H1506 C1494 0.960 . S
H1507 C1494 0.962 . S
H1508 C1494 0.960 . S
H1509 C1495 0.961 . S
H1510 C1495 0.961 . S
H1511 C1495 0.961 . S
H1512 C1496 0.931 . S
H1513 C1501 0.930 . S
H1514 C1502 0.956 . S
H1515 C1502 0.961 . S
H1516 C1502 0.961 . S
H1517 C1503 0.958 . S
H1518 C1503 0.961 . S
H1519 C1503 0.960 . S
C1520 C1521 1.391 . S
C1520 C1522 1.394 . S
C1520 H1536 0.931 . S
C1521 C1520 1.391 . S
C1521 C1525 1.376 . S
C1522 C1520 1.394 . S
C1522 C1523 1.369 . S
C1522 C1526 1.531 . S
C1523 C1522 1.369 . S
C1523 C1524 1.410 . S
C1523 C1531 1.503 . S
C1524 C1523 1.410 . S
C1524 C1525 1.392 . S
C1524 C1527 1.511 . S
C1525 C1521 1.376 . S
C1525 C1524 1.392 . S
C1525 H1537 0.929 . S
C1526 C1522 1.531 . S
C1526 H1538 0.960 . S
C1526 H1539 0.962 . S
C1526 H1540 0.960 . S
C1527 C1524 1.511 . S
C1527 H1541 0.961 . S
C1527 H1542 0.961 . S
C1527 H1543 0.961 . S
C1528 C1529 1.370 . S
C1528 C1530 1.363 . S
C1528 H1544 0.931 . S
C1529 C1528 1.370 . S
C1529 C1533 1.408 . S
C1530 C1528 1.363 . S
C1530 C1531 1.370 . S
C1530 C1534 1.524 . S
C1531 C1523 1.503 . S
C1531 C1530 1.370 . S
C1531 C1532 1.403 . S
C1532 C1531 1.403 . S
C1532 C1533 1.404 . S
C1532 C1535 1.539 . S
C1533 C1529 1.408 . S
C1533 C1532 1.404 . S
C1533 H1545 0.930 . S
C1534 C1530 1.524 . S
C1534 H1546 0.956 . S
C1534 H1547 0.961 . S
C1534 H1548 0.961 . S
C1535 C1532 1.539 . S
C1535 H1549 0.958 . S
C1535 H1550 0.961 . S
C1535 H1551 0.960 . S
H1536 C1520 0.931 . S
H1537 C1525 0.929 . S
H1538 C1526 0.960 . S
H1539 C1526 0.962 . S
H1540 C1526 0.960 . S
H1541 C1527 0.961 . S
H1542 C1527 0.961 . S
H1543 C1527 0.961 . S
H1544 C1528 0.931 . S
H1545 C1533 0.930 . S
H1546 C1534 0.956 . S
H1547 C1534 0.961 . S
H1548 C1534 0.961 . S
H1549 C1535 0.958 . S
H1550 C1535 0.961 . S
H1551 C1535 0.960 . S
C1552 C1553 1.391 . S
C1552 C1554 1.394 . S
C1552 H1568 0.931 . S
C1553 C1552 1.391 . S
C1553 C1557 1.376 . S
C1554 C1552 1.394 . S
C1554 C1555 1.369 . S
C1554 C1558 1.531 . S
C1555 C1554 1.369 . S
C1555 C1556 1.410 . S
C1555 C1563 1.503 . S
C1556 C1555 1.410 . S
C1556 C1557 1.392 . S
C1556 C1559 1.511 . S
C1557 C1553 1.376 . S
C1557 C1556 1.392 . S
C1557 H1569 0.929 . S
C1558 C1554 1.531 . S
C1558 H1570 0.960 . S
C1558 H1571 0.962 . S
C1558 H1572 0.960 . S
C1559 C1556 1.511 . S
C1559 H1573 0.961 . S
C1559 H1574 0.961 . S
C1559 H1575 0.961 . S
C1560 C1561 1.370 . S
C1560 C1562 1.363 . S
C1560 H1576 0.931 . S
C1561 C1560 1.370 . S
C1561 C1565 1.408 . S
C1562 C1560 1.363 . S
C1562 C1563 1.370 . S
C1562 C1566 1.524 . S
C1563 C1555 1.503 . S
C1563 C1562 1.370 . S
C1563 C1564 1.403 . S
C1564 C1563 1.403 . S
C1564 C1565 1.404 . S
C1564 C1567 1.539 . S
C1565 C1561 1.408 . S
C1565 C1564 1.404 . S
C1565 H1577 0.930 . S
C1566 C1562 1.524 . S
C1566 H1578 0.956 . S
C1566 H1579 0.961 . S
C1566 H1580 0.961 . S
C1567 C1564 1.539 . S
C1567 H1581 0.958 . S
C1567 H1582 0.961 . S
C1567 H1583 0.960 . S
H1568 C1552 0.931 . S
H1569 C1557 0.929 . S
H1570 C1558 0.960 . S
H1571 C1558 0.962 . S
H1572 C1558 0.960 . S
H1573 C1559 0.961 . S
H1574 C1559 0.961 . S
H1575 C1559 0.961 . S
H1576 C1560 0.931 . S
H1577 C1565 0.930 . S
H1578 C1566 0.956 . S
H1579 C1566 0.961 . S
H1580 C1566 0.961 . S
H1581 C1567 0.958 . S
H1582 C1567 0.961 . S
H1583 C1567 0.960 . S
C1584 C1585 1.391 . S
C1584 C1586 1.394 . S
C1584 H1600 0.931 . S
C1585 C1584 1.391 . S
C1585 C1589 1.376 . S
C1586 C1584 1.394 . S
C1586 C1587 1.369 . S
C1586 C1590 1.531 . S
C1587 C1586 1.369 . S
C1587 C1588 1.410 . S
C1587 C1595 1.503 1_545 S
C1588 C1587 1.410 . S
C1588 C1589 1.392 . S
C1588 C1591 1.511 1_545 S
C1589 C1585 1.376 . S
C1589 C1588 1.392 . S
C1589 H1601 0.929 . S
C1590 C1586 1.531 . S
C1590 H1602 0.960 . S
C1590 H1603 0.962 . S
C1590 H1604 0.960 . S
C1591 C1588 1.511 1_565 S
C1591 H1605 0.961 . S
C1591 H1606 0.961 . S
C1591 H1607 0.961 1_565 S
C1592 C1593 1.370 . S
C1592 C1594 1.363 . S
C1592 H1608 0.931 . S
C1593 C1592 1.370 . S
C1593 C1597 1.408 . S
C1594 C1592 1.363 . S
C1594 C1595 1.370 . S
C1594 C1598 1.524 . S
C1595 C1587 1.503 1_565 S
C1595 C1594 1.370 . S
C1595 C1596 1.403 . S
C1596 C1595 1.403 . S
C1596 C1597 1.404 . S
C1596 C1599 1.539 1_565 S
C1597 C1593 1.408 . S
C1597 C1596 1.404 . S
C1597 H1609 0.930 . S
C1598 C1594 1.524 . S
C1598 H1610 0.956 . S
C1598 H1611 0.961 . S
C1598 H1612 0.961 . S
C1599 C1596 1.539 1_545 S
C1599 H1613 0.958 . S
C1599 H1614 0.961 1_545 S
C1599 H1615 0.960 . S
H1600 C1584 0.931 . S
H1601 C1589 0.929 . S
H1602 C1590 0.960 . S
H1603 C1590 0.962 . S
H1604 C1590 0.960 . S
H1605 C1591 0.961 . S
H1606 C1591 0.961 . S
H1607 C1591 0.961 1_545 S
H1608 C1592 0.931 . S
H1609 C1597 0.930 . S
H1610 C1598 0.956 . S
H1611 C1598 0.961 . S
H1612 C1598 0.961 . S
H1613 C1599 0.958 . S
H1614 C1599 0.961 1_565 S
H1615 C1599 0.960 . S
C1616 C1617 1.391 . S
C1616 C1618 1.394 . S
C1616 H1632 0.931 . S
C1617 C1616 1.391 . S
C1617 C1621 1.376 . S
C1618 C1616 1.394 . S
C1618 C1619 1.369 . S
C1618 C1622 1.531 . S
C1619 C1618 1.369 . S
C1619 C1620 1.410 . S
C1619 C1627 1.503 . S
C1620 C1619 1.410 . S
C1620 C1621 1.392 . S
C1620 C1623 1.511 . S
C1621 C1617 1.376 . S
C1621 C1620 1.392 . S
C1621 H1633 0.929 . S
C1622 C1618 1.531 . S
C1622 H1634 0.960 . S
C1622 H1635 0.962 . S
C1622 H1636 0.960 . S
C1623 C1620 1.511 . S
C1623 H1637 0.961 . S
C1623 H1638 0.961 . S
C1623 H1639 0.961 . S
C1624 C1625 1.370 . S
C1624 C1626 1.363 . S
C1624 H1640 0.931 . S
C1625 C1624 1.370 . S
C1625 C1629 1.408 . S
C1626 C1624 1.363 . S
C1626 C1627 1.370 . S
C1626 C1630 1.524 . S
C1627 C1619 1.503 . S
C1627 C1626 1.370 . S
C1627 C1628 1.403 . S
C1628 C1627 1.403 . S
C1628 C1629 1.404 . S
C1628 C1631 1.539 . S
C1629 C1625 1.408 . S
C1629 C1628 1.404 . S
C1629 H1641 0.930 . S
C1630 C1626 1.524 . S
C1630 H1642 0.956 . S
C1630 H1643 0.961 . S
C1630 H1644 0.961 . S
C1631 C1628 1.539 . S
C1631 H1645 0.958 . S
C1631 H1646 0.961 . S
C1631 H1647 0.960 . S
H1632 C1616 0.931 . S
H1633 C1621 0.929 . S
H1634 C1622 0.960 . S
H1635 C1622 0.962 . S
H1636 C1622 0.960 . S
H1637 C1623 0.961 . S
H1638 C1623 0.961 . S
H1639 C1623 0.961 . S
H1640 C1624 0.931 . S
H1641 C1629 0.930 . S
H1642 C1630 0.956 . S
H1643 C1630 0.961 . S
H1644 C1630 0.961 . S
H1645 C1631 0.958 . S
H1646 C1631 0.961 . S
H1647 C1631 0.960 . S
C1648 C1649 1.391 . S
C1648 C1650 1.394 . S
C1648 H1664 0.931 . S
C1649 C1648 1.391 . S
C1649 C1653 1.376 . S
C1650 C1648 1.394 . S
C1650 C1651 1.369 . S
C1650 C1654 1.531 . S
C1651 C1650 1.369 . S
C1651 C1652 1.410 . S
C1651 C1659 1.503 1_455 S
C1652 C1651 1.410 . S
C1652 C1653 1.392 . S
C1652 C1655 1.511 . S
C1653 C1649 1.376 . S
C1653 C1652 1.392 . S
C1653 H1665 0.929 . S
C1654 C1650 1.531 . S
C1654 H1666 0.960 1_455 S
C1654 H1667 0.962 . S
C1654 H1668 0.960 . S
C1655 C1652 1.511 . S
C1655 H1669 0.961 . S
C1655 H1670 0.961 1_455 S
C1655 H1671 0.961 1_455 S
C1656 C1657 1.370 . S
C1656 C1658 1.363 . S
C1656 H1672 0.931 . S
C1657 C1656 1.370 . S
C1657 C1661 1.408 . S
C1658 C1656 1.363 . S
C1658 C1659 1.370 . S
C1658 C1662 1.524 1_655 S
C1659 C1651 1.503 1_655 S
C1659 C1658 1.370 . S
C1659 C1660 1.403 . S
C1660 C1659 1.403 . S
C1660 C1661 1.404 . S
C1660 C1663 1.539 . S
C1661 C1657 1.408 . S
C1661 C1660 1.404 . S
C1661 H1673 0.930 . S
C1662 C1658 1.524 1_455 S
C1662 H1674 0.956 . S
C1662 H1675 0.961 . S
C1662 H1676 0.961 . S
C1663 C1660 1.539 . S
C1663 H1677 0.958 . S
C1663 H1678 0.961 . S
C1663 H1679 0.960 . S
H1664 C1648 0.931 . S
H1665 C1653 0.929 . S
H1666 C1654 0.960 1_655 S
H1667 C1654 0.962 . S
H1668 C1654 0.960 . S
H1669 C1655 0.961 . S
H1670 C1655 0.961 1_655 S
H1671 C1655 0.961 1_655 S
H1672 C1656 0.931 . S
H1673 C1661 0.930 . S
H1674 C1662 0.956 . S
H1675 C1662 0.961 . S
H1676 C1662 0.961 . S
H1677 C1663 0.958 . S
H1678 C1663 0.961 . S
H1679 C1663 0.960 . S
C1680 C1681 1.391 . S
C1680 C1682 1.394 . S
C1680 H1696 0.931 . S
C1681 C1680 1.391 . S
C1681 C1685 1.376 . S
C1682 C1680 1.394 . S
C1682 C1683 1.369 . S
C1682 C1686 1.531 . S
C1683 C1682 1.369 . S
C1683 C1684 1.410 . S
C1683 C1691 1.503 1_565 S
C1684 C1683 1.410 . S
C1684 C1685 1.392 . S
C1684 C1687 1.511 1_565 S
C1685 C1681 1.376 . S
C1685 C1684 1.392 . S
C1685 H1697 0.929 . S
C1686 C1682 1.531 . S
C1686 H1698 0.960 . S
C1686 H1699 0.962 . S
C1686 H1700 0.960 . S
C1687 C1684 1.511 1_545 S
C1687 H1701 0.961 . S
C1687 H1702 0.961 . S
C1687 H1703 0.961 . S
C1688 C1689 1.370 . S
C1688 C1690 1.363 . S
C1688 H1704 0.931 . S
C1689 C1688 1.370 . S
C1689 C1693 1.408 . S
C1690 C1688 1.363 . S
C1690 C1691 1.370 . S
C1690 C1694 1.524 1_545 S
C1691 C1683 1.503 1_545 S
C1691 C1690 1.370 . S
C1691 C1692 1.403 . S
C1692 C1691 1.403 . S
C1692 C1693 1.404 . S
C1692 C1695 1.539 . S
C1693 C1689 1.408 . S
C1693 C1692 1.404 . S
C1693 H1705 0.930 . S
C1694 C1690 1.524 1_565 S
C1694 H1706 0.956 . S
C1694 H1707 0.961 . S
C1694 H1708 0.961 1_565 S
C1695 C1692 1.539 . S
C1695 H1709 0.958 . S
C1695 H1710 0.961 . S
C1695 H1711 0.960 . S
H1696 C1680 0.931 . S
H1697 C1685 0.929 . S
H1698 C1686 0.960 . S
H1699 C1686 0.962 . S
H1700 C1686 0.960 . S
H1701 C1687 0.961 . S
H1702 C1687 0.961 . S
H1703 C1687 0.961 . S
H1704 C1688 0.931 . S
H1705 C1693 0.930 . S
H1706 C1694 0.956 . S
H1707 C1694 0.961 . S
H1708 C1694 0.961 1_545 S
H1709 C1695 0.958 . S
H1710 C1695 0.961 . S
H1711 C1695 0.960 . S
C1712 C1713 1.391 . S
C1712 C1714 1.394 . S
C1712 H1728 0.931 . S
C1713 C1712 1.391 . S
C1713 C1717 1.376 . S
C1714 C1712 1.394 . S
C1714 C1715 1.369 . S
C1714 C1718 1.531 . S
C1715 C1714 1.369 . S
C1715 C1716 1.410 . S
C1715 C1723 1.503 . S
C1716 C1715 1.410 . S
C1716 C1717 1.392 . S
C1716 C1719 1.511 . S
C1717 C1713 1.376 . S
C1717 C1716 1.392 . S
C1717 H1729 0.929 . S
C1718 C1714 1.531 . S
C1718 H1730 0.960 . S
C1718 H1731 0.962 . S
C1718 H1732 0.960 . S
C1719 C1716 1.511 . S
C1719 H1733 0.961 . S
C1719 H1734 0.961 . S
C1719 H1735 0.961 . S
C1720 C1721 1.370 . S
C1720 C1722 1.363 . S
C1720 H1736 0.931 . S
C1721 C1720 1.370 . S
C1721 C1725 1.408 . S
C1722 C1720 1.363 . S
C1722 C1723 1.370 . S
C1722 C1726 1.524 . S
C1723 C1715 1.503 . S
C1723 C1722 1.370 . S
C1723 C1724 1.403 . S
C1724 C1723 1.403 . S
C1724 C1725 1.404 . S
C1724 C1727 1.539 . S
C1725 C1721 1.408 . S
C1725 C1724 1.404 . S
C1725 H1737 0.930 . S
C1726 C1722 1.524 . S
C1726 H1738 0.956 . S
C1726 H1739 0.961 . S
C1726 H1740 0.961 . S
C1727 C1724 1.539 . S
C1727 H1741 0.958 . S
C1727 H1742 0.961 . S
C1727 H1743 0.960 . S
H1728 C1712 0.931 . S
H1729 C1717 0.929 . S
H1730 C1718 0.960 . S
H1731 C1718 0.962 . S
H1732 C1718 0.960 . S
H1733 C1719 0.961 . S
H1734 C1719 0.961 . S
H1735 C1719 0.961 . S
H1736 C1720 0.931 . S
H1737 C1725 0.930 . S
H1738 C1726 0.956 . S
H1739 C1726 0.961 . S
H1740 C1726 0.961 . S
H1741 C1727 0.958 . S
H1742 C1727 0.961 . S
H1743 C1727 0.960 . S
C1744 C1745 1.391 . S
C1744 C1746 1.394 . S
C1744 H1760 0.931 . S
C1745 C1744 1.391 . S
C1745 C1749 1.376 . S
C1746 C1744 1.394 . S
C1746 C1747 1.369 . S
C1746 C1750 1.531 . S
C1747 C1746 1.369 . S
C1747 C1748 1.410 . S
C1747 C1755 1.503 1_655 S
C1748 C1747 1.410 . S
C1748 C1749 1.392 . S
C1748 C1751 1.511 . S
C1749 C1745 1.376 . S
C1749 C1748 1.392 . S
C1749 H1761 0.929 . S
C1750 C1746 1.531 . S
C1750 H1762 0.960 . S
C1750 H1763 0.962 1_655 S
C1750 H1764 0.960 . S
C1751 C1748 1.511 . S
C1751 H1765 0.961 . S
C1751 H1766 0.961 . S
C1751 H1767 0.961 . S
C1752 C1753 1.370 . S
C1752 C1754 1.363 . S
C1752 H1768 0.931 . S
C1753 C1752 1.370 . S
C1753 C1757 1.408 . S
C1754 C1752 1.363 . S
C1754 C1755 1.370 . S
C1754 C1758 1.524 . S
C1755 C1747 1.503 1_455 S
C1755 C1754 1.370 . S
C1755 C1756 1.403 . S
C1756 C1755 1.403 . S
C1756 C1757 1.404 . S
C1756 C1759 1.539 1_455 S
C1757 C1753 1.408 . S
C1757 C1756 1.404 . S
C1757 H1769 0.930 . S
C1758 C1754 1.524 . S
C1758 H1770 0.956 . S
C1758 H1771 0.961 . S
C1758 H1772 0.961 . S
C1759 C1756 1.539 1_655 S
C1759 H1773 0.958 . S
C1759 H1774 0.961 . S
C1759 H1775 0.960 . S
H1760 C1744 0.931 . S
H1761 C1749 0.929 . S
H1762 C1750 0.960 . S
H1763 C1750 0.962 1_455 S
H1764 C1750 0.960 . S
H1765 C1751 0.961 . S
H1766 C1751 0.961 . S
H1767 C1751 0.961 . S
H1768 C1752 0.931 . S
H1769 C1757 0.930 . S
H1770 C1758 0.956 . S
H1771 C1758 0.961 . S
H1772 C1758 0.961 . S
H1773 C1759 0.958 . S
H1774 C1759 0.961 . S
H1775 C1759 0.960 . S
C1776 C1777 1.391 . S
C1776 C1778 1.394 . S
C1776 H1792 0.931 . S
C1777 C1776 1.391 . S
C1777 C1781 1.376 . S
C1778 C1776 1.394 . S
C1778 C1779 1.369 . S
C1778 C1782 1.531 1_565 S
C1779 C1778 1.369 . S
C1779 C1780 1.410 . S
C1779 C1787 1.503 1_565 S
C1780 C1779 1.410 . S
C1780 C1781 1.392 . S
C1780 C1783 1.511 . S
C1781 C1777 1.376 . S
C1781 C1780 1.392 . S
C1781 H1793 0.929 . S
C1782 C1778 1.531 1_545 S
C1782 H1794 0.960 . S
C1782 H1795 0.962 . S
C1782 H1796 0.960 . S
C1783 C1780 1.511 . S
C1783 H1797 0.961 . S
C1783 H1798 0.961 . S
C1783 H1799 0.961 . S
C1784 C1785 1.370 . S
C1784 C1786 1.363 . S
C1784 H1800 0.931 . S
C1785 C1784 1.370 . S
C1785 C1789 1.408 . S
C1786 C1784 1.363 . S
C1786 C1787 1.370 . S
C1786 C1790 1.524 1_545 S
C1787 C1779 1.503 1_545 S
C1787 C1786 1.370 . S
C1787 C1788 1.403 . S
C1788 C1787 1.403 . S
C1788 C1789 1.404 . S
C1788 C1791 1.539 . S
C1789 C1785 1.408 . S
C1789 C1788 1.404 . S
C1789 H1801 0.930 . S
C1790 C1786 1.524 1_565 S
C1790 H1802 0.956 . S
C1790 H1803 0.961 . S
C1790 H1804 0.961 . S
C1791 C1788 1.539 . S
C1791 H1805 0.958 . S
C1791 H1806 0.961 . S
C1791 H1807 0.960 . S
H1792 C1776 0.931 . S
H1793 C1781 0.929 . S
H1794 C1782 0.960 . S
H1795 C1782 0.962 . S
H1796 C1782 0.960 . S
H1797 C1783 0.961 . S
H1798 C1783 0.961 . S
H1799 C1783 0.961 . S
H1800 C1784 0.931 . S
H1801 C1789 0.930 . S
H1802 C1790 0.956 . S
H1803 C1790 0.961 . S
H1804 C1790 0.961 . S
H1805 C1791 0.958 . S
H1806 C1791 0.961 . S
H1807 C1791 0.960 . S
C1808 C1809 1.391 . S
C1808 C1810 1.394 . S
C1808 H1824 0.931 . S
C1809 C1808 1.391 . S
C1809 C1813 1.376 . S
C1810 C1808 1.394 . S
C1810 C1811 1.369 . S
C1810 C1814 1.531 . S
C1811 C1810 1.369 . S
C1811 C1812 1.410 . S
C1811 C1819 1.503 . S
C1812 C1811 1.410 . S
C1812 C1813 1.392 . S
C1812 C1815 1.511 . S
C1813 C1809 1.376 . S
C1813 C1812 1.392 . S
C1813 H1825 0.929 . S
C1814 C1810 1.531 . S
C1814 H1826 0.960 . S
C1814 H1827 0.962 . S
C1814 H1828 0.960 . S
C1815 C1812 1.511 . S
C1815 H1829 0.961 . S
C1815 H1830 0.961 . S
C1815 H1831 0.961 . S
C1816 C1817 1.370 . S
C1816 C1818 1.363 . S
C1816 H1832 0.931 . S
C1817 C1816 1.370 . S
C1817 C1821 1.408 . S
C1818 C1816 1.363 . S
C1818 C1819 1.370 . S
C1818 C1822 1.524 . S
C1819 C1811 1.503 . S
C1819 C1818 1.370 . S
C1819 C1820 1.403 . S
C1820 C1819 1.403 . S
C1820 C1821 1.404 . S
C1820 C1823 1.539 . S
C1821 C1817 1.408 . S
C1821 C1820 1.404 . S
C1821 H1833 0.930 . S
C1822 C1818 1.524 . S
C1822 H1834 0.956 . S
C1822 H1835 0.961 . S
C1822 H1836 0.961 . S
C1823 C1820 1.539 . S
C1823 H1837 0.958 . S
C1823 H1838 0.961 . S
C1823 H1839 0.960 . S
H1824 C1808 0.931 . S
H1825 C1813 0.929 . S
H1826 C1814 0.960 . S
H1827 C1814 0.962 . S
H1828 C1814 0.960 . S
H1829 C1815 0.961 . S
H1830 C1815 0.961 . S
H1831 C1815 0.961 . S
H1832 C1816 0.931 . S
H1833 C1821 0.930 . S
H1834 C1822 0.956 . S
H1835 C1822 0.961 . S
H1836 C1822 0.961 . S
H1837 C1823 0.958 . S
H1838 C1823 0.961 . S
H1839 C1823 0.960 . S
C1840 C1841 1.391 . S
C1840 C1842 1.394 . S
C1840 H1856 0.931 . S
C1841 C1840 1.391 . S
C1841 C1845 1.376 . S
C1842 C1840 1.394 . S
C1842 C1843 1.369 . S
C1842 C1846 1.531 . S
C1843 C1842 1.369 . S
C1843 C1844 1.410 . S
C1843 C1851 1.503 1_455 S
C1844 C1843 1.410 . S
C1844 C1845 1.392 . S
C1844 C1847 1.511 1_455 S
C1845 C1841 1.376 . S
C1845 C1844 1.392 . S
C1845 H1857 0.929 . S
C1846 C1842 1.531 . S
C1846 H1858 0.960 . S
C1846 H1859 0.962 . S
C1846 H1860 0.960 . S
C1847 C1844 1.511 1_655 S
C1847 H1861 0.961 . S
C1847 H1862 0.961 . S
C1847 H1863 0.961 . S
C1848 C1849 1.370 . S
C1848 C1850 1.363 . S
C1848 H1864 0.931 . S
C1849 C1848 1.370 . S
C1849 C1853 1.408 . S
C1850 C1848 1.363 . S
C1850 C1851 1.370 . S
C1850 C1854 1.524 . S
C1851 C1843 1.503 1_655 S
C1851 C1850 1.370 . S
C1851 C1852 1.403 . S
C1852 C1851 1.403 . S
C1852 C1853 1.404 . S
C1852 C1855 1.539 . S
C1853 C1849 1.408 . S
C1853 C1852 1.404 . S
C1853 H1865 0.930 . S
C1854 C1850 1.524 . S
C1854 H1866 0.956 1_655 S
C1854 H1867 0.961 . S
C1854 H1868 0.961 . S
C1855 C1852 1.539 . S
C1855 H1869 0.958 . S
C1855 H1870 0.961 . S
C1855 H1871 0.960 . S
H1856 C1840 0.931 . S
H1857 C1845 0.929 . S
H1858 C1846 0.960 . S
H1859 C1846 0.962 . S
H1860 C1846 0.960 . S
H1861 C1847 0.961 . S
H1862 C1847 0.961 . S
H1863 C1847 0.961 . S
H1864 C1848 0.931 . S
H1865 C1853 0.930 . S
H1866 C1854 0.956 1_455 S
H1867 C1854 0.961 . S
H1868 C1854 0.961 . S
H1869 C1855 0.958 . S
H1870 C1855 0.961 . S
H1871 C1855 0.960 . S
C1872 C1873 1.391 . S
C1872 C1874 1.394 . S
C1872 H1888 0.931 . S
C1873 C1872 1.391 . S
C1873 C1877 1.376 . S
C1874 C1872 1.394 . S
C1874 C1875 1.369 . S
C1874 C1878 1.531 1_545 S
C1875 C1874 1.369 . S
C1875 C1876 1.410 . S
C1875 C1883 1.503 1_545 S
C1876 C1875 1.410 . S
C1876 C1877 1.392 . S
C1876 C1879 1.511 . S
C1877 C1873 1.376 . S
C1877 C1876 1.392 . S
C1877 H1889 0.929 . S
C1878 C1874 1.531 1_565 S
C1878 H1890 0.960 . S
C1878 H1891 0.962 . S
C1878 H1892 0.960 . S
C1879 C1876 1.511 . S
C1879 H1893 0.961 . S
C1879 H1894 0.961 . S
C1879 H1895 0.961 . S
C1880 C1881 1.370 . S
C1880 C1882 1.363 . S
C1880 H1896 0.931 . S
C1881 C1880 1.370 . S
C1881 C1885 1.408 . S
C1882 C1880 1.363 . S
C1882 C1883 1.370 . S
C1882 C1886 1.524 1_565 S
C1883 C1875 1.503 1_565 S
C1883 C1882 1.370 . S
C1883 C1884 1.403 . S
C1884 C1883 1.403 . S
C1884 C1885 1.404 . S
C1884 C1887 1.539 . S
C1885 C1881 1.408 . S
C1885 C1884 1.404 . S
C1885 H1897 0.930 . S
C1886 C1882 1.524 1_545 S
C1886 H1898 0.956 . S
C1886 H1899 0.961 . S
C1886 H1900 0.961 . S
C1887 C1884 1.539 . S
C1887 H1901 0.958 . S
C1887 H1902 0.961 . S
C1887 H1903 0.960 . S
H1888 C1872 0.931 . S
H1889 C1877 0.929 . S
H1890 C1878 0.960 . S
H1891 C1878 0.962 . S
H1892 C1878 0.960 . S
H1893 C1879 0.961 . S
H1894 C1879 0.961 . S
H1895 C1879 0.961 . S
H1896 C1880 0.931 . S
H1897 C1885 0.930 . S
H1898 C1886 0.956 . S
H1899 C1886 0.961 . S
H1900 C1886 0.961 . S
H1901 C1887 0.958 . S
H1902 C1887 0.961 . S
H1903 C1887 0.960 . S
C1904 C1905 1.391 . S
C1904 C1906 1.394 . S
C1904 H1920 0.931 . S
C1905 C1904 1.391 . S
C1905 C1909 1.376 . S
C1906 C1904 1.394 . S
C1906 C1907 1.369 . S
C1906 C1910 1.531 . S
C1907 C1906 1.369 . S
C1907 C1908 1.410 . S
C1907 C1915 1.503 . S
C1908 C1907 1.410 . S
C1908 C1909 1.392 . S
C1908 C1911 1.511 . S
C1909 C1905 1.376 . S
C1909 C1908 1.392 . S
C1909 H1921 0.929 . S
C1910 C1906 1.531 . S
C1910 H1922 0.960 . S
C1910 H1923 0.962 . S
C1910 H1924 0.960 . S
C1911 C1908 1.511 . S
C1911 H1925 0.961 . S
C1911 H1926 0.961 . S
C1911 H1927 0.961 . S
C1912 C1913 1.370 . S
C1912 C1914 1.363 . S
C1912 H1928 0.931 . S
C1913 C1912 1.370 . S
C1913 C1917 1.408 . S
C1914 C1912 1.363 . S
C1914 C1915 1.370 . S
C1914 C1918 1.524 . S
C1915 C1907 1.503 . S
C1915 C1914 1.370 . S
C1915 C1916 1.403 . S
C1916 C1915 1.403 . S
C1916 C1917 1.404 . S
C1916 C1919 1.539 . S
C1917 C1913 1.408 . S
C1917 C1916 1.404 . S
C1917 H1929 0.930 . S
C1918 C1914 1.524 . S
C1918 H1930 0.956 . S
C1918 H1931 0.961 . S
C1918 H1932 0.961 . S
C1919 C1916 1.539 . S
C1919 H1933 0.958 . S
C1919 H1934 0.961 . S
C1919 H1935 0.960 . S
H1920 C1904 0.931 . S
H1921 C1909 0.929 . S
H1922 C1910 0.960 . S
H1923 C1910 0.962 . S
H1924 C1910 0.960 . S
H1925 C1911 0.961 . S
H1926 C1911 0.961 . S
H1927 C1911 0.961 . S
H1928 C1912 0.931 . S
H1929 C1917 0.930 . S
H1930 C1918 0.956 . S
H1931 C1918 0.961 . S
H1932 C1918 0.961 . S
H1933 C1919 0.958 . S
H1934 C1919 0.961 . S
H1935 C1919 0.960 . S
C1936 C1937 1.391 . S
C1936 C1938 1.394 . S
C1936 H1952 0.931 . S
C1937 C1936 1.391 . S
C1937 C1941 1.376 . S
C1938 C1936 1.394 . S
C1938 C1939 1.369 . S
C1938 C1942 1.531 . S
C1939 C1938 1.369 . S
C1939 C1940 1.410 . S
C1939 C1947 1.503 1_455 S
C1940 C1939 1.410 . S
C1940 C1941 1.392 . S
C1940 C1943 1.511 1_455 S
C1941 C1937 1.376 . S
C1941 C1940 1.392 . S
C1941 H1953 0.929 . S
C1942 C1938 1.531 . S
C1942 H1954 0.960 . S
C1942 H1955 0.962 . S
C1942 H1956 0.960 . S
C1943 C1940 1.511 1_655 S
C1943 H1957 0.961 . S
C1943 H1958 0.961 . S
C1943 H1959 0.961 . S
C1944 C1945 1.370 . S
C1944 C1946 1.363 . S
C1944 H1960 0.931 . S
C1945 C1944 1.370 . S
C1945 C1949 1.408 . S
C1946 C1944 1.363 . S
C1946 C1947 1.370 . S
C1946 C1950 1.524 . S
C1947 C1939 1.503 1_655 S
C1947 C1946 1.370 . S
C1947 C1948 1.403 . S
C1948 C1947 1.403 . S
C1948 C1949 1.404 . S
C1948 C1951 1.539 . S
C1949 C1945 1.408 . S
C1949 C1948 1.404 . S
C1949 H1961 0.930 . S
C1950 C1946 1.524 . S
C1950 H1962 0.956 1_655 S
C1950 H1963 0.961 . S
C1950 H1964 0.961 . S
C1951 C1948 1.539 . S
C1951 H1965 0.958 . S
C1951 H1966 0.961 . S
C1951 H1967 0.960 . S
H1952 C1936 0.931 . S
H1953 C1941 0.929 . S
H1954 C1942 0.960 . S
H1955 C1942 0.962 . S
H1956 C1942 0.960 . S
H1957 C1943 0.961 . S
H1958 C1943 0.961 . S
H1959 C1943 0.961 . S
H1960 C1944 0.931 . S
H1961 C1949 0.930 . S
H1962 C1950 0.956 1_455 S
H1963 C1950 0.961 . S
H1964 C1950 0.961 . S
H1965 C1951 0.958 . S
H1966 C1951 0.961 . S
H1967 C1951 0.960 . S
C1968 C1969 1.391 . S
C1968 C1970 1.394 . S
C1968 H1984 0.931 . S
C1969 C1968 1.391 . S
C1969 C1973 1.376 . S
C1970 C1968 1.394 . S
C1970 C1971 1.369 . S
C1970 C1974 1.531 . S
C1971 C1970 1.369 . S
C1971 C1972 1.410 . S
C1971 C1979 1.503 . S
C1972 C1971 1.410 . S
C1972 C1973 1.392 . S
C1972 C1975 1.511 . S
C1973 C1969 1.376 . S
C1973 C1972 1.392 . S
C1973 H1985 0.929 . S
C1974 C1970 1.531 . S
C1974 H1986 0.960 . S
C1974 H1987 0.962 . S
C1974 H1988 0.960 . S
C1975 C1972 1.511 . S
C1975 H1989 0.961 . S
C1975 H1990 0.961 . S
C1975 H1991 0.961 . S
C1976 C1977 1.370 . S
C1976 C1978 1.363 . S
C1976 H1992 0.931 . S
C1977 C1976 1.370 . S
C1977 C1981 1.408 . S
C1978 C1976 1.363 . S
C1978 C1979 1.370 . S
C1978 C1982 1.524 . S
C1979 C1971 1.503 . S
C1979 C1978 1.370 . S
C1979 C1980 1.403 . S
C1980 C1979 1.403 . S
C1980 C1981 1.404 . S
C1980 C1983 1.539 . S
C1981 C1977 1.408 . S
C1981 C1980 1.404 . S
C1981 H1993 0.930 . S
C1982 C1978 1.524 . S
C1982 H1994 0.956 . S
C1982 H1995 0.961 . S
C1982 H1996 0.961 . S
C1983 C1980 1.539 . S
C1983 H1997 0.958 . S
C1983 H1998 0.961 . S
C1983 H1999 0.960 . S
H1984 C1968 0.931 . S
H1985 C1973 0.929 . S
H1986 C1974 0.960 . S
H1987 C1974 0.962 . S
H1988 C1974 0.960 . S
H1989 C1975 0.961 . S
H1990 C1975 0.961 . S
H1991 C1975 0.961 . S
H1992 C1976 0.931 . S
H1993 C1981 0.930 . S
H1994 C1982 0.956 . S
H1995 C1982 0.961 . S
H1996 C1982 0.961 . S
H1997 C1983 0.958 . S
H1998 C1983 0.961 . S
H1999 C1983 0.960 . S
C2000 C2001 1.391 . S
C2000 C2002 1.394 . S
C2000 H2016 0.931 . S
C2001 C2000 1.391 . S
C2001 C2005 1.376 . S
C2002 C2000 1.394 . S
C2002 C2003 1.369 . S
C2002 C2006 1.531 . S
C2003 C2002 1.369 . S
C2003 C2004 1.410 . S
C2003 C2011 1.503 . S
C2004 C2003 1.410 . S
C2004 C2005 1.392 . S
C2004 C2007 1.511 . S
C2005 C2001 1.376 . S
C2005 C2004 1.392 . S
C2005 H2017 0.929 . S
C2006 C2002 1.531 . S
C2006 H2018 0.960 . S
C2006 H2019 0.962 . S
C2006 H2020 0.960 . S
C2007 C2004 1.511 . S
C2007 H2021 0.961 . S
C2007 H2022 0.961 . S
C2007 H2023 0.961 . S
C2008 C2009 1.370 . S
C2008 C2010 1.363 . S
C2008 H2024 0.931 . S
C2009 C2008 1.370 . S
C2009 C2013 1.408 . S
C2010 C2008 1.363 . S
C2010 C2011 1.370 . S
C2010 C2014 1.524 . S
C2011 C2003 1.503 . S
C2011 C2010 1.370 . S
C2011 C2012 1.403 . S
C2012 C2011 1.403 . S
C2012 C2013 1.404 . S
C2012 C2015 1.539 . S
C2013 C2009 1.408 . S
C2013 C2012 1.404 . S
C2013 H2025 0.930 . S
C2014 C2010 1.524 . S
C2014 H2026 0.956 . S
C2014 H2027 0.961 . S
C2014 H2028 0.961 . S
C2015 C2012 1.539 . S
C2015 H2029 0.958 . S
C2015 H2030 0.961 . S
C2015 H2031 0.960 . S
H2016 C2000 0.931 . S
H2017 C2005 0.929 . S
H2018 C2006 0.960 . S
H2019 C2006 0.962 . S
H2020 C2006 0.960 . S
H2021 C2007 0.961 . S
H2022 C2007 0.961 . S
H2023 C2007 0.961 . S
H2024 C2008 0.931 . S
H2025 C2013 0.930 . S
H2026 C2014 0.956 . S
H2027 C2014 0.961 . S
H2028 C2014 0.961 . S
H2029 C2015 0.958 . S
H2030 C2015 0.961 . S
H2031 C2015 0.960 . S
C2032 C2033 1.391 . S
C2032 C2034 1.394 . S
C2032 H2048 0.931 . S
C2033 C2032 1.391 . S
C2033 C2037 1.376 . S
C2034 C2032 1.394 . S
C2034 C2035 1.369 . S
C2034 C2038 1.531 . S
C2035 C2034 1.369 . S
C2035 C2036 1.410 . S
C2035 C2043 1.503 . S
C2036 C2035 1.410 . S
C2036 C2037 1.392 . S
C2036 C2039 1.511 . S
C2037 C2033 1.376 . S
C2037 C2036 1.392 . S
C2037 H2049 0.929 . S
C2038 C2034 1.531 . S
C2038 H2050 0.960 . S
C2038 H2051 0.962 . S
C2038 H2052 0.960 . S
C2039 C2036 1.511 . S
C2039 H2053 0.961 . S
C2039 H2054 0.961 . S
C2039 H2055 0.961 . S
C2040 C2041 1.370 . S
C2040 C2042 1.363 . S
C2040 H2056 0.931 . S
C2041 C2040 1.370 . S
C2041 C2045 1.408 . S
C2042 C2040 1.363 . S
C2042 C2043 1.370 . S
C2042 C2046 1.524 . S
C2043 C2035 1.503 . S
C2043 C2042 1.370 . S
C2043 C2044 1.403 . S
C2044 C2043 1.403 . S
C2044 C2045 1.404 . S
C2044 C2047 1.539 . S
C2045 C2041 1.408 . S
C2045 C2044 1.404 . S
C2045 H2057 0.930 . S
C2046 C2042 1.524 . S
C2046 H2058 0.956 . S
C2046 H2059 0.961 . S
C2046 H2060 0.961 . S
C2047 C2044 1.539 . S
C2047 H2061 0.958 . S
C2047 H2062 0.961 . S
C2047 H2063 0.960 . S
H2048 C2032 0.931 . S
H2049 C2037 0.929 . S
H2050 C2038 0.960 . S
H2051 C2038 0.962 . S
H2052 C2038 0.960 . S
H2053 C2039 0.961 . S
H2054 C2039 0.961 . S
H2055 C2039 0.961 . S
H2056 C2040 0.931 . S
H2057 C2045 0.930 . S
H2058 C2046 0.956 . S
H2059 C2046 0.961 . S
H2060 C2046 0.961 . S
H2061 C2047 0.958 . S
H2062 C2047 0.961 . S
H2063 C2047 0.960 . S
C2064 C2065 1.391 . S
C2064 C2066 1.394 . S
C2064 H2080 0.931 . S
C2065 C2064 1.391 . S
C2065 C2069 1.376 . S
C2066 C2064 1.394 . S
C2066 C2067 1.369 . S
C2066 C2070 1.531 . S
C2067 C2066 1.369 . S
C2067 C2068 1.410 . S
C2067 C2075 1.503 . S
C2068 C2067 1.410 . S
C2068 C2069 1.392 . S
C2068 C2071 1.511 . S
C2069 C2065 1.376 . S
C2069 C2068 1.392 . S
C2069 H2081 0.929 . S
C2070 C2066 1.531 . S
C2070 H2082 0.960 . S
C2070 H2083 0.962 . S
C2070 H2084 0.960 . S
C2071 C2068 1.511 . S
C2071 H2085 0.961 . S
C2071 H2086 0.961 . S
C2071 H2087 0.961 . S
C2072 C2073 1.370 . S
C2072 C2074 1.363 . S
C2072 H2088 0.931 . S
C2073 C2072 1.370 . S
C2073 C2077 1.408 . S
C2074 C2072 1.363 . S
C2074 C2075 1.370 . S
C2074 C2078 1.524 . S
C2075 C2067 1.503 . S
C2075 C2074 1.370 . S
C2075 C2076 1.403 . S
C2076 C2075 1.403 . S
C2076 C2077 1.404 . S
C2076 C2079 1.539 . S
C2077 C2073 1.408 . S
C2077 C2076 1.404 . S
C2077 H2089 0.930 . S
C2078 C2074 1.524 . S
C2078 H2090 0.956 . S
C2078 H2091 0.961 . S
C2078 H2092 0.961 . S
C2079 C2076 1.539 . S
C2079 H2093 0.958 . S
C2079 H2094 0.961 . S
C2079 H2095 0.960 . S
H2080 C2064 0.931 . S
H2081 C2069 0.929 . S
H2082 C2070 0.960 . S
H2083 C2070 0.962 . S
H2084 C2070 0.960 . S
H2085 C2071 0.961 . S
H2086 C2071 0.961 . S
H2087 C2071 0.961 . S
H2088 C2072 0.931 . S
H2089 C2077 0.930 . S
H2090 C2078 0.956 . S
H2091 C2078 0.961 . S
H2092 C2078 0.961 . S
H2093 C2079 0.958 . S
H2094 C2079 0.961 . S
H2095 C2079 0.960 . S
C2096 C2097 1.391 . S
C2096 C2098 1.394 . S
C2096 H2112 0.931 . S
C2097 C2096 1.391 . S
C2097 C2101 1.376 . S
C2098 C2096 1.394 . S
C2098 C2099 1.369 . S
C2098 C2102 1.531 . S
C2099 C2098 1.369 . S
C2099 C2100 1.410 . S
C2099 C2107 1.503 . S
C2100 C2099 1.410 . S
C2100 C2101 1.392 . S
C2100 C2103 1.511 . S
C2101 C2097 1.376 . S
C2101 C2100 1.392 . S
C2101 H2113 0.929 . S
C2102 C2098 1.531 . S
C2102 H2114 0.960 . S
C2102 H2115 0.962 . S
C2102 H2116 0.960 . S
C2103 C2100 1.511 . S
C2103 H2117 0.961 . S
C2103 H2118 0.961 . S
C2103 H2119 0.961 . S
C2104 C2105 1.370 . S
C2104 C2106 1.363 . S
C2104 H2120 0.931 . S
C2105 C2104 1.370 . S
C2105 C2109 1.408 . S
C2106 C2104 1.363 . S
C2106 C2107 1.370 . S
C2106 C2110 1.524 . S
C2107 C2099 1.503 . S
C2107 C2106 1.370 . S
C2107 C2108 1.403 . S
C2108 C2107 1.403 . S
C2108 C2109 1.404 . S
C2108 C2111 1.539 . S
C2109 C2105 1.408 . S
C2109 C2108 1.404 . S
C2109 H2121 0.930 . S
C2110 C2106 1.524 . S
C2110 H2122 0.956 . S
C2110 H2123 0.961 . S
C2110 H2124 0.961 . S
C2111 C2108 1.539 . S
C2111 H2125 0.958 . S
C2111 H2126 0.961 . S
C2111 H2127 0.960 . S
H2112 C2096 0.931 . S
H2113 C2101 0.929 . S
H2114 C2102 0.960 . S
H2115 C2102 0.962 . S
H2116 C2102 0.960 . S
H2117 C2103 0.961 . S
H2118 C2103 0.961 . S
H2119 C2103 0.961 . S
H2120 C2104 0.931 . S
H2121 C2109 0.930 . S
H2122 C2110 0.956 . S
H2123 C2110 0.961 . S
H2124 C2110 0.961 . S
H2125 C2111 0.958 . S
H2126 C2111 0.961 . S
H2127 C2111 0.960 . S
C2128 C2129 1.391 . S
C2128 C2130 1.394 . S
C2128 H2144 0.931 . S
C2129 C2128 1.391 . S
C2129 C2133 1.376 . S
C2130 C2128 1.394 . S
C2130 C2131 1.369 . S
C2130 C2134 1.531 . S
C2131 C2130 1.369 . S
C2131 C2132 1.410 . S
C2131 C2139 1.503 . S
C2132 C2131 1.410 . S
C2132 C2133 1.392 . S
C2132 C2135 1.511 . S
C2133 C2129 1.376 . S
C2133 C2132 1.392 . S
C2133 H2145 0.929 . S
C2134 C2130 1.531 . S
C2134 H2146 0.960 . S
C2134 H2147 0.962 . S
C2134 H2148 0.960 . S
C2135 C2132 1.511 . S
C2135 H2149 0.961 . S
C2135 H2150 0.961 . S
C2135 H2151 0.961 . S
C2136 C2137 1.370 . S
C2136 C2138 1.363 . S
C2136 H2152 0.931 . S
C2137 C2136 1.370 . S
C2137 C2141 1.408 . S
C2138 C2136 1.363 . S
C2138 C2139 1.370 . S
C2138 C2142 1.524 . S
C2139 C2131 1.503 . S
C2139 C2138 1.370 . S
C2139 C2140 1.403 . S
C2140 C2139 1.403 . S
C2140 C2141 1.404 . S
C2140 C2143 1.539 . S
C2141 C2137 1.408 . S
C2141 C2140 1.404 . S
C2141 H2153 0.930 . S
C2142 C2138 1.524 . S
C2142 H2154 0.956 . S
C2142 H2155 0.961 . S
C2142 H2156 0.961 . S
C2143 C2140 1.539 . S
C2143 H2157 0.958 . S
C2143 H2158 0.961 . S
C2143 H2159 0.960 . S
H2144 C2128 0.931 . S
H2145 C2133 0.929 . S
H2146 C2134 0.960 . S
H2147 C2134 0.962 . S
H2148 C2134 0.960 . S
H2149 C2135 0.961 . S
H2150 C2135 0.961 . S
H2151 C2135 0.961 . S
H2152 C2136 0.931 . S
H2153 C2141 0.930 . S
H2154 C2142 0.956 . S
H2155 C2142 0.961 . S
H2156 C2142 0.961 . S
H2157 C2143 0.958 . S
H2158 C2143 0.961 . S
H2159 C2143 0.960 . S
C2160 C2161 1.391 . S
C2160 C2162 1.394 . S
C2160 H2176 0.931 . S
C2161 C2160 1.391 . S
C2161 C2165 1.376 . S
C2162 C2160 1.394 . S
C2162 C2163 1.369 . S
C2162 C2166 1.531 . S
C2163 C2162 1.369 . S
C2163 C2164 1.410 . S
C2163 C2171 1.503 . S
C2164 C2163 1.410 . S
C2164 C2165 1.392 . S
C2164 C2167 1.511 . S
C2165 C2161 1.376 . S
C2165 C2164 1.392 . S
C2165 H2177 0.929 . S
C2166 C2162 1.531 . S
C2166 H2178 0.960 . S
C2166 H2179 0.962 . S
C2166 H2180 0.960 . S
C2167 C2164 1.511 . S
C2167 H2181 0.961 . S
C2167 H2182 0.961 . S
C2167 H2183 0.961 . S
C2168 C2169 1.370 . S
C2168 C2170 1.363 . S
C2168 H2184 0.931 . S
C2169 C2168 1.370 . S
C2169 C2173 1.408 . S
C2170 C2168 1.363 . S
C2170 C2171 1.370 . S
C2170 C2174 1.524 . S
C2171 C2163 1.503 . S
C2171 C2170 1.370 . S
C2171 C2172 1.403 . S
C2172 C2171 1.403 . S
C2172 C2173 1.404 . S
C2172 C2175 1.539 . S
C2173 C2169 1.408 . S
C2173 C2172 1.404 . S
C2173 H2185 0.930 . S
C2174 C2170 1.524 . S
C2174 H2186 0.956 . S
C2174 H2187 0.961 . S
C2174 H2188 0.961 . S
C2175 C2172 1.539 . S
C2175 H2189 0.958 . S
C2175 H2190 0.961 . S
C2175 H2191 0.960 . S
H2176 C2160 0.931 . S
H2177 C2165 0.929 . S
H2178 C2166 0.960 . S
H2179 C2166 0.962 . S
H2180 C2166 0.960 . S
H2181 C2167 0.961 . S
H2182 C2167 0.961 . S
H2183 C2167 0.961 . S
H2184 C2168 0.931 . S
H2185 C2173 0.930 . S
H2186 C2174 0.956 . S
H2187 C2174 0.961 . S
H2188 C2174 0.961 . S
H2189 C2175 0.958 . S
H2190 C2175 0.961 . S
H2191 C2175 0.960 . S
C2192 C2193 1.391 . S
C2192 C2194 1.394 . S
C2192 H2208 0.931 . S
C2193 C2192 1.391 . S
C2193 C2197 1.376 . S
C2194 C2192 1.394 . S
C2194 C2195 1.369 . S
C2194 C2198 1.531 . S
C2195 C2194 1.369 . S
C2195 C2196 1.410 . S
C2195 C2203 1.503 . S
C2196 C2195 1.410 . S
C2196 C2197 1.392 . S
C2196 C2199 1.511 . S
C2197 C2193 1.376 . S
C2197 C2196 1.392 . S
C2197 H2209 0.929 . S
C2198 C2194 1.531 . S
C2198 H2210 0.960 . S
C2198 H2211 0.962 . S
C2198 H2212 0.960 . S
C2199 C2196 1.511 . S
C2199 H2213 0.961 . S
C2199 H2214 0.961 . S
C2199 H2215 0.961 . S
C2200 C2201 1.370 . S
C2200 C2202 1.363 . S
C2200 H2216 0.931 . S
C2201 C2200 1.370 . S
C2201 C2205 1.408 . S
C2202 C2200 1.363 . S
C2202 C2203 1.370 . S
C2202 C2206 1.524 . S
C2203 C2195 1.503 . S
C2203 C2202 1.370 . S
C2203 C2204 1.403 . S
C2204 C2203 1.403 . S
C2204 C2205 1.404 . S
C2204 C2207 1.539 . S
C2205 C2201 1.408 . S
C2205 C2204 1.404 . S
C2205 H2217 0.930 . S
C2206 C2202 1.524 . S
C2206 H2218 0.956 . S
C2206 H2219 0.961 . S
C2206 H2220 0.961 . S
C2207 C2204 1.539 . S
C2207 H2221 0.958 . S
C2207 H2222 0.961 . S
C2207 H2223 0.960 . S
H2208 C2192 0.931 . S
H2209 C2197 0.929 . S
H2210 C2198 0.960 . S
H2211 C2198 0.962 . S
H2212 C2198 0.960 . S
H2213 C2199 0.961 . S
H2214 C2199 0.961 . S
H2215 C2199 0.961 . S
H2216 C2200 0.931 . S
H2217 C2205 0.930 . S
H2218 C2206 0.956 . S
H2219 C2206 0.961 . S
H2220 C2206 0.961 . S
H2221 C2207 0.958 . S
H2222 C2207 0.961 . S
H2223 C2207 0.960 . S
C2224 C2225 1.391 . S
C2224 C2226 1.394 . S
C2224 H2240 0.931 . S
C2225 C2224 1.391 . S
C2225 C2229 1.376 . S
C2226 C2224 1.394 . S
C2226 C2227 1.369 . S
C2226 C2230 1.531 . S
C2227 C2226 1.369 . S
C2227 C2228 1.410 . S
C2227 C2235 1.503 . S
C2228 C2227 1.410 . S
C2228 C2229 1.392 . S
C2228 C2231 1.511 . S
C2229 C2225 1.376 . S
C2229 C2228 1.392 . S
C2229 H2241 0.929 . S
C2230 C2226 1.531 . S
C2230 H2242 0.960 . S
C2230 H2243 0.962 . S
C2230 H2244 0.960 . S
C2231 C2228 1.511 . S
C2231 H2245 0.961 . S
C2231 H2246 0.961 . S
C2231 H2247 0.961 . S
C2232 C2233 1.370 . S
C2232 C2234 1.363 . S
C2232 H2248 0.931 . S
C2233 C2232 1.370 . S
C2233 C2237 1.408 . S
C2234 C2232 1.363 . S
C2234 C2235 1.370 . S
C2234 C2238 1.524 . S
C2235 C2227 1.503 . S
C2235 C2234 1.370 . S
C2235 C2236 1.403 . S
C2236 C2235 1.403 . S
C2236 C2237 1.404 . S
C2236 C2239 1.539 . S
C2237 C2233 1.408 . S
C2237 C2236 1.404 . S
C2237 H2249 0.930 . S
C2238 C2234 1.524 . S
C2238 H2250 0.956 . S
C2238 H2251 0.961 . S
C2238 H2252 0.961 . S
C2239 C2236 1.539 . S
C2239 H2253 0.958 . S
C2239 H2254 0.961 . S
C2239 H2255 0.960 . S
H2240 C2224 0.931 . S
H2241 C2229 0.929 . S
H2242 C2230 0.960 . S
H2243 C2230 0.962 . S
H2244 C2230 0.960 . S
H2245 C2231 0.961 . S
H2246 C2231 0.961 . S
H2247 C2231 0.961 . S
H2248 C2232 0.931 . S
H2249 C2237 0.930 . S
H2250 C2238 0.956 . S
H2251 C2238 0.961 . S
H2252 C2238 0.961 . S
H2253 C2239 0.958 . S
H2254 C2239 0.961 . S
H2255 C2239 0.960 . S
C2256 C2257 1.391 . S
C2256 C2258 1.394 . S
C2256 H2272 0.931 . S
C2257 C2256 1.391 . S
C2257 C2261 1.376 . S
C2258 C2256 1.394 . S
C2258 C2259 1.369 . S
C2258 C2262 1.531 . S
C2259 C2258 1.369 . S
C2259 C2260 1.410 . S
C2259 C2267 1.503 . S
C2260 C2259 1.410 . S
C2260 C2261 1.392 . S
C2260 C2263 1.511 . S
C2261 C2257 1.376 . S
C2261 C2260 1.392 . S
C2261 H2273 0.929 . S
C2262 C2258 1.531 . S
C2262 H2274 0.960 . S
C2262 H2275 0.962 . S
C2262 H2276 0.960 . S
C2263 C2260 1.511 . S
C2263 H2277 0.961 . S
C2263 H2278 0.961 . S
C2263 H2279 0.961 . S
C2264 C2265 1.370 . S
C2264 C2266 1.363 . S
C2264 H2280 0.931 . S
C2265 C2264 1.370 . S
C2265 C2269 1.408 . S
C2266 C2264 1.363 . S
C2266 C2267 1.370 . S
C2266 C2270 1.524 . S
C2267 C2259 1.503 . S
C2267 C2266 1.370 . S
C2267 C2268 1.403 . S
C2268 C2267 1.403 . S
C2268 C2269 1.404 . S
C2268 C2271 1.539 . S
C2269 C2265 1.408 . S
C2269 C2268 1.404 . S
C2269 H2281 0.930 . S
C2270 C2266 1.524 . S
C2270 H2282 0.956 . S
C2270 H2283 0.961 . S
C2270 H2284 0.961 . S
C2271 C2268 1.539 . S
C2271 H2285 0.958 . S
C2271 H2286 0.961 . S
C2271 H2287 0.960 . S
H2272 C2256 0.931 . S
H2273 C2261 0.929 . S
H2274 C2262 0.960 . S
H2275 C2262 0.962 . S
H2276 C2262 0.960 . S
H2277 C2263 0.961 . S
H2278 C2263 0.961 . S
H2279 C2263 0.961 . S
H2280 C2264 0.931 . S
H2281 C2269 0.930 . S
H2282 C2270 0.956 . S
H2283 C2270 0.961 . S
H2284 C2270 0.961 . S
H2285 C2271 0.958 . S
H2286 C2271 0.961 . S
H2287 C2271 0.960 . S
C2288 C2289 1.391 . S
C2288 C2290 1.394 . S
C2288 H2304 0.931 . S
C2289 C2288 1.391 . S
C2289 C2293 1.376 . S
C2290 C2288 1.394 . S
C2290 C2291 1.369 . S
C2290 C2294 1.531 . S
C2291 C2290 1.369 . S
C2291 C2292 1.410 . S
C2291 C2299 1.503 . S
C2292 C2291 1.410 . S
C2292 C2293 1.392 . S
C2292 C2295 1.511 . S
C2293 C2289 1.376 . S
C2293 C2292 1.392 . S
C2293 H2305 0.929 . S
C2294 C2290 1.531 . S
C2294 H2306 0.960 . S
C2294 H2307 0.962 . S
C2294 H2308 0.960 . S
C2295 C2292 1.511 . S
C2295 H2309 0.961 . S
C2295 H2310 0.961 . S
C2295 H2311 0.961 . S
C2296 C2297 1.370 . S
C2296 C2298 1.363 . S
C2296 H2312 0.931 . S
C2297 C2296 1.370 . S
C2297 C2301 1.408 . S
C2298 C2296 1.363 . S
C2298 C2299 1.370 . S
C2298 C2302 1.524 . S
C2299 C2291 1.503 . S
C2299 C2298 1.370 . S
C2299 C2300 1.403 . S
C2300 C2299 1.403 . S
C2300 C2301 1.404 . S
C2300 C2303 1.539 . S
C2301 C2297 1.408 . S
C2301 C2300 1.404 . S
C2301 H2313 0.930 . S
C2302 C2298 1.524 . S
C2302 H2314 0.956 . S
C2302 H2315 0.961 . S
C2302 H2316 0.961 . S
C2303 C2300 1.539 . S
C2303 H2317 0.958 . S
C2303 H2318 0.961 . S
C2303 H2319 0.960 . S
H2304 C2288 0.931 . S
H2305 C2293 0.929 . S
H2306 C2294 0.960 . S
H2307 C2294 0.962 . S
H2308 C2294 0.960 . S
H2309 C2295 0.961 . S
H2310 C2295 0.961 . S
H2311 C2295 0.961 . S
H2312 C2296 0.931 . S
H2313 C2301 0.930 . S
H2314 C2302 0.956 . S
H2315 C2302 0.961 . S
H2316 C2302 0.961 . S
H2317 C2303 0.958 . S
H2318 C2303 0.961 . S
H2319 C2303 0.960 . S
C2320 C2321 1.391 . S
C2320 C2322 1.394 . S
C2320 H2336 0.931 . S
C2321 C2320 1.391 . S
C2321 C2325 1.376 . S
C2322 C2320 1.394 . S
C2322 C2323 1.369 . S
C2322 C2326 1.531 . S
C2323 C2322 1.369 . S
C2323 C2324 1.410 . S
C2323 C2331 1.503 . S
C2324 C2323 1.410 . S
C2324 C2325 1.392 . S
C2324 C2327 1.511 . S
C2325 C2321 1.376 . S
C2325 C2324 1.392 . S
C2325 H2337 0.929 . S
C2326 C2322 1.531 . S
C2326 H2338 0.960 . S
C2326 H2339 0.962 . S
C2326 H2340 0.960 . S
C2327 C2324 1.511 . S
C2327 H2341 0.961 . S
C2327 H2342 0.961 . S
C2327 H2343 0.961 . S
C2328 C2329 1.370 . S
C2328 C2330 1.363 . S
C2328 H2344 0.931 . S
C2329 C2328 1.370 . S
C2329 C2333 1.408 . S
C2330 C2328 1.363 . S
C2330 C2331 1.370 . S
C2330 C2334 1.524 . S
C2331 C2323 1.503 . S
C2331 C2330 1.370 . S
C2331 C2332 1.403 . S
C2332 C2331 1.403 . S
C2332 C2333 1.404 . S
C2332 C2335 1.539 . S
C2333 C2329 1.408 . S
C2333 C2332 1.404 . S
C2333 H2345 0.930 . S
C2334 C2330 1.524 . S
C2334 H2346 0.956 . S
C2334 H2347 0.961 . S
C2334 H2348 0.961 . S
C2335 C2332 1.539 . S
C2335 H2349 0.958 . S
C2335 H2350 0.961 . S
C2335 H2351 0.960 . S
H2336 C2320 0.931 . S
H2337 C2325 0.929 . S
H2338 C2326 0.960 . S
H2339 C2326 0.962 . S
H2340 C2326 0.960 . S
H2341 C2327 0.961 . S
H2342 C2327 0.961 . S
H2343 C2327 0.961 . S
H2344 C2328 0.931 . S
H2345 C2333 0.930 . S
H2346 C2334 0.956 . S
H2347 C2334 0.961 . S
H2348 C2334 0.961 . S
H2349 C2335 0.958 . S
H2350 C2335 0.961 . S
H2351 C2335 0.960 . S
C2352 C2353 1.391 . S
C2352 C2354 1.394 . S
C2352 H2368 0.931 . S
C2353 C2352 1.391 . S
C2353 C2357 1.376 . S
C2354 C2352 1.394 . S
C2354 C2355 1.369 . S
C2354 C2358 1.531 . S
C2355 C2354 1.369 . S
C2355 C2356 1.410 . S
C2355 C2363 1.503 1_554 S
C2356 C2355 1.410 . S
C2356 C2357 1.392 . S
C2356 C2359 1.511 . S
C2357 C2353 1.376 . S
C2357 C2356 1.392 . S
C2357 H2369 0.929 . S
C2358 C2354 1.531 . S
C2358 H2370 0.960 1_554 S
C2358 H2371 0.962 . S
C2358 H2372 0.960 . S
C2359 C2356 1.511 . S
C2359 H2373 0.961 . S
C2359 H2374 0.961 1_554 S
C2359 H2375 0.961 . S
C2360 C2361 1.370 . S
C2360 C2362 1.363 . S
C2360 H2376 0.931 . S
C2361 C2360 1.370 . S
C2361 C2365 1.408 . S
C2362 C2360 1.363 . S
C2362 C2363 1.370 . S
C2362 C2366 1.524 . S
C2363 C2355 1.503 1_556 S
C2363 C2362 1.370 . S
C2363 C2364 1.403 . S
C2364 C2363 1.403 . S
C2364 C2365 1.404 . S
C2364 C2367 1.539 . S
C2365 C2361 1.408 . S
C2365 C2364 1.404 . S
C2365 H2377 0.930 . S
C2366 C2362 1.524 . S
C2366 H2378 0.956 . S
C2366 H2379 0.961 1_556 S
C2366 H2380 0.961 . S
C2367 C2364 1.539 . S
C2367 H2381 0.958 . S
C2367 H2382 0.961 . S
C2367 H2383 0.971 . S
H2368 C2352 0.931 . S
H2369 C2357 0.929 . S
H2370 C2358 0.960 1_556 S
H2371 C2358 0.962 . S
H2372 C2358 0.960 . S
H2373 C2359 0.961 . S
H2374 C2359 0.961 1_556 S
H2375 C2359 0.961 . S
H2376 C2360 0.931 . S
H2377 C2365 0.930 . S
H2378 C2366 0.956 . S
H2379 C2366 0.961 1_554 S
H2380 C2366 0.961 . S
H2381 C2367 0.958 . S
H2382 C2367 0.961 . S
H2383 C2367 0.971 . S
C2384 C2385 1.391 . S
C2384 C2386 1.394 . S
C2384 H2400 0.931 . S
C2385 C2384 1.391 . S
C2385 C2389 1.376 . S
C2386 C2384 1.394 . S
C2386 C2387 1.369 . S
C2386 C2390 1.531 . S
C2387 C2386 1.369 . S
C2387 C2388 1.410 . S
C2387 C2395 1.503 1_554 S
C2388 C2387 1.410 . S
C2388 C2389 1.392 . S
C2388 C2391 1.511 . S
C2389 C2385 1.376 . S
C2389 C2388 1.392 . S
C2389 H2401 0.929 . S
C2390 C2386 1.531 . S
C2390 H2402 0.960 1_554 S
C2390 H2403 0.962 . S
C2390 H2404 0.960 . S
C2391 C2388 1.511 . S
C2391 H2405 0.961 . S
C2391 H2406 0.961 1_554 S
C2391 H2407 0.961 . S
C2392 C2393 1.370 . S
C2392 C2394 1.363 . S
C2392 H2408 0.931 . S
C2393 C2392 1.370 . S
C2393 C2397 1.408 . S
C2394 C2392 1.363 . S
C2394 C2395 1.370 . S
C2394 C2398 1.524 . S
C2395 C2387 1.503 1_556 S
C2395 C2394 1.370 . S
C2395 C2396 1.403 . S
C2396 C2395 1.403 . S
C2396 C2397 1.404 . S
C2396 C2399 1.539 . S
C2397 C2393 1.408 . S
C2397 C2396 1.404 . S
C2397 H2409 0.930 . S
C2398 C2394 1.524 . S
C2398 H2410 0.956 . S
C2398 H2411 0.961 1_556 S
C2398 H2412 0.961 . S
C2399 C2396 1.539 . S
C2399 H2413 0.958 . S
C2399 H2414 0.961 . S
C2399 H2415 0.971 . S
H2400 C2384 0.931 . S
H2401 C2389 0.929 . S
H2402 C2390 0.960 1_556 S
H2403 C2390 0.962 . S
H2404 C2390 0.960 . S
H2405 C2391 0.961 . S
H2406 C2391 0.961 1_556 S
H2407 C2391 0.961 . S
H2408 C2392 0.931 . S
H2409 C2397 0.930 . S
H2410 C2398 0.956 . S
H2411 C2398 0.961 1_554 S
H2412 C2398 0.961 . S
H2413 C2399 0.958 . S
H2414 C2399 0.961 . S
H2415 C2399 0.971 . S
C2416 C2417 1.391 . S
C2416 C2418 1.394 . S
C2416 H2432 0.931 . S
C2417 C2416 1.391 . S
C2417 C2421 1.376 . S
C2418 C2416 1.394 . S
C2418 C2419 1.369 . S
C2418 C2422 1.531 . S
C2419 C2418 1.369 . S
C2419 C2420 1.410 . S
C2419 C2427 1.503 1_554 S
C2420 C2419 1.410 . S
C2420 C2421 1.392 . S
C2420 C2423 1.511 . S
C2421 C2417 1.376 . S
C2421 C2420 1.392 . S
C2421 H2433 0.929 . S
C2422 C2418 1.531 . S
C2422 H2434 0.960 1_554 S
C2422 H2435 0.962 . S
C2422 H2436 0.960 . S
C2423 C2420 1.511 . S
C2423 H2437 0.961 . S
C2423 H2438 0.961 1_554 S
C2423 H2439 0.961 . S
C2424 C2425 1.370 . S
C2424 C2426 1.363 . S
C2424 H2440 0.931 . S
C2425 C2424 1.370 . S
C2425 C2429 1.408 . S
C2426 C2424 1.363 . S
C2426 C2427 1.370 . S
C2426 C2430 1.524 . S
C2427 C2419 1.503 1_556 S
C2427 C2426 1.370 . S
C2427 C2428 1.403 . S
C2428 C2427 1.403 . S
C2428 C2429 1.404 . S
C2428 C2431 1.539 . S
C2429 C2425 1.408 . S
C2429 C2428 1.404 . S
C2429 H2441 0.930 . S
C2430 C2426 1.524 . S
C2430 H2442 0.956 . S
C2430 H2443 0.961 1_556 S
C2430 H2444 0.961 . S
C2431 C2428 1.539 . S
C2431 H2445 0.958 . S
C2431 H2446 0.961 . S
C2431 H2447 0.971 . S
H2432 C2416 0.931 . S
H2433 C2421 0.929 . S
H2434 C2422 0.960 1_556 S
H2435 C2422 0.962 . S
H2436 C2422 0.960 . S
H2437 C2423 0.961 . S
H2438 C2423 0.961 1_556 S
H2439 C2423 0.961 . S
H2440 C2424 0.931 . S
H2441 C2429 0.930 . S
H2442 C2430 0.956 . S
H2443 C2430 0.961 1_554 S
H2444 C2430 0.961 . S
H2445 C2431 0.958 . S
H2446 C2431 0.961 . S
H2447 C2431 0.971 . S
C2448 C2449 1.391 . S
C2448 C2450 1.394 . S
C2448 H2464 0.931 . S
C2449 C2448 1.391 . S
C2449 C2453 1.376 . S
C2450 C2448 1.394 . S
C2450 C2451 1.369 . S
C2450 C2454 1.531 . S
C2451 C2450 1.369 . S
C2451 C2452 1.410 . S
C2451 C2459 1.503 1_554 S
C2452 C2451 1.410 . S
C2452 C2453 1.392 . S
C2452 C2455 1.511 . S
C2453 C2449 1.376 . S
C2453 C2452 1.392 . S
C2453 H2465 0.929 . S
C2454 C2450 1.531 . S
C2454 H2466 0.960 1_554 S
C2454 H2467 0.962 . S
C2454 H2468 0.960 . S
C2455 C2452 1.511 . S
C2455 H2469 0.961 . S
C2455 H2470 0.961 1_554 S
C2455 H2471 0.961 . S
C2456 C2457 1.370 . S
C2456 C2458 1.363 . S
C2456 H2472 0.931 . S
C2457 C2456 1.370 . S
C2457 C2461 1.408 . S
C2458 C2456 1.363 . S
C2458 C2459 1.370 . S
C2458 C2462 1.524 . S
C2459 C2451 1.503 1_556 S
C2459 C2458 1.370 . S
C2459 C2460 1.403 . S
C2460 C2459 1.403 . S
C2460 C2461 1.404 . S
C2460 C2463 1.539 . S
C2461 C2457 1.408 . S
C2461 C2460 1.404 . S
C2461 H2473 0.930 . S
C2462 C2458 1.524 . S
C2462 H2474 0.956 . S
C2462 H2475 0.961 1_556 S
C2462 H2476 0.961 . S
C2463 C2460 1.539 . S
C2463 H2477 0.958 . S
C2463 H2478 0.961 . S
C2463 H2479 0.971 . S
H2464 C2448 0.931 . S
H2465 C2453 0.929 . S
H2466 C2454 0.960 1_556 S
H2467 C2454 0.962 . S
H2468 C2454 0.960 . S
H2469 C2455 0.961 . S
H2470 C2455 0.961 1_556 S
H2471 C2455 0.961 . S
H2472 C2456 0.931 . S
H2473 C2461 0.930 . S
H2474 C2462 0.956 . S
H2475 C2462 0.961 1_554 S
H2476 C2462 0.961 . S
H2477 C2463 0.958 . S
H2478 C2463 0.961 . S
H2479 C2463 0.971 . S
C2480 C2481 1.391 . S
C2480 C2482 1.394 . S
C2480 H2496 0.931 . S
C2481 C2480 1.391 . S
C2481 C2485 1.376 . S
C2482 C2480 1.394 . S
C2482 C2483 1.369 . S
C2482 C2486 1.531 . S
C2483 C2482 1.369 . S
C2483 C2484 1.410 . S
C2483 C2491 1.503 1_554 S
C2484 C2483 1.410 . S
C2484 C2485 1.392 . S
C2484 C2487 1.511 . S
C2485 C2481 1.376 . S
C2485 C2484 1.392 . S
C2485 H2497 0.929 . S
C2486 C2482 1.531 . S
C2486 H2498 0.960 1_554 S
C2486 H2499 0.962 . S
C2486 H2500 0.960 . S
C2487 C2484 1.511 . S
C2487 H2501 0.961 . S
C2487 H2502 0.961 1_554 S
C2487 H2503 0.961 . S
C2488 C2489 1.370 . S
C2488 C2490 1.363 . S
C2488 H2504 0.931 . S
C2489 C2488 1.370 . S
C2489 C2493 1.408 . S
C2490 C2488 1.363 . S
C2490 C2491 1.370 . S
C2490 C2494 1.524 . S
C2491 C2483 1.503 1_556 S
C2491 C2490 1.370 . S
C2491 C2492 1.403 . S
C2492 C2491 1.403 . S
C2492 C2493 1.404 . S
C2492 C2495 1.539 . S
C2493 C2489 1.408 . S
C2493 C2492 1.404 . S
C2493 H2505 0.930 . S
C2494 C2490 1.524 . S
C2494 H2506 0.956 . S
C2494 H2507 0.961 1_556 S
C2494 H2508 0.961 . S
C2495 C2492 1.539 . S
C2495 H2509 0.958 . S
C2495 H2510 0.961 . S
C2495 H2511 0.971 . S
H2496 C2480 0.931 . S
H2497 C2485 0.929 . S
H2498 C2486 0.960 1_556 S
H2499 C2486 0.962 . S
H2500 C2486 0.960 . S
H2501 C2487 0.961 . S
H2502 C2487 0.961 1_556 S
H2503 C2487 0.961 . S
H2504 C2488 0.931 . S
H2505 C2493 0.930 . S
H2506 C2494 0.956 . S
H2507 C2494 0.961 1_554 S
H2508 C2494 0.961 . S
H2509 C2495 0.958 . S
H2510 C2495 0.961 . S
H2511 C2495 0.971 . S
C2512 C2513 1.391 . S
C2512 C2514 1.394 . S
C2512 H2528 0.931 . S
C2513 C2512 1.391 . S
C2513 C2517 1.376 . S
C2514 C2512 1.394 . S
C2514 C2515 1.369 . S
C2514 C2518 1.531 . S
C2515 C2514 1.369 . S
C2515 C2516 1.410 . S
C2515 C2523 1.503 1_556 S
C2516 C2515 1.410 . S
C2516 C2517 1.392 . S
C2516 C2519 1.511 . S
C2517 C2513 1.376 . S
C2517 C2516 1.392 . S
C2517 H2529 0.929 . S
C2518 C2514 1.531 . S
C2518 H2530 0.960 1_556 S
C2518 H2531 0.962 . S
C2518 H2532 0.960 . S
C2519 C2516 1.511 . S
C2519 H2533 0.961 . S
C2519 H2534 0.961 1_556 S
C2519 H2535 0.961 . S
C2520 C2521 1.370 . S
C2520 C2522 1.363 . S
C2520 H2536 0.931 . S
C2521 C2520 1.370 . S
C2521 C2525 1.408 . S
C2522 C2520 1.363 . S
C2522 C2523 1.370 . S
C2522 C2526 1.524 . S
C2523 C2515 1.503 1_554 S
C2523 C2522 1.370 . S
C2523 C2524 1.403 . S
C2524 C2523 1.403 . S
C2524 C2525 1.404 . S
C2524 C2527 1.539 . S
C2525 C2521 1.408 . S
C2525 C2524 1.404 . S
C2525 H2537 0.930 . S
C2526 C2522 1.524 . S
C2526 H2538 0.956 . S
C2526 H2539 0.961 1_554 S
C2526 H2540 0.961 . S
C2527 C2524 1.539 . S
C2527 H2541 0.958 . S
C2527 H2542 0.961 . S
C2527 H2543 0.971 . S
H2528 C2512 0.931 . S
H2529 C2517 0.929 . S
H2530 C2518 0.960 1_554 S
H2531 C2518 0.962 . S
H2532 C2518 0.960 . S
H2533 C2519 0.961 . S
H2534 C2519 0.961 1_554 S
H2535 C2519 0.961 . S
H2536 C2520 0.931 . S
H2537 C2525 0.930 . S
H2538 C2526 0.956 . S
H2539 C2526 0.961 1_556 S
H2540 C2526 0.961 . S
H2541 C2527 0.958 . S
H2542 C2527 0.961 . S
H2543 C2527 0.971 . S
C2544 C2545 1.391 . S
C2544 C2546 1.394 . S
C2544 H2560 0.931 . S
C2545 C2544 1.391 . S
C2545 C2549 1.376 . S
C2546 C2544 1.394 . S
C2546 C2547 1.369 . S
C2546 C2550 1.531 . S
C2547 C2546 1.369 . S
C2547 C2548 1.410 . S
C2547 C2555 1.503 . S
C2548 C2547 1.410 . S
C2548 C2549 1.392 . S
C2548 C2551 1.511 . S
C2549 C2545 1.376 . S
C2549 C2548 1.392 . S
C2549 H2561 0.929 . S
C2550 C2546 1.531 . S
C2550 H2562 0.960 . S
C2550 H2563 0.962 . S
C2550 H2564 0.960 . S
C2551 C2548 1.511 . S
C2551 H2565 0.961 . S
C2551 H2566 0.961 . S
C2551 H2567 0.961 . S
C2552 C2553 1.370 . S
C2552 C2554 1.363 . S
C2552 H2568 0.931 . S
C2553 C2552 1.370 . S
C2553 C2557 1.408 . S
C2554 C2552 1.363 . S
C2554 C2555 1.370 . S
C2554 C2558 1.524 . S
C2555 C2547 1.503 . S
C2555 C2554 1.370 . S
C2555 C2556 1.403 . S
C2556 C2555 1.403 . S
C2556 C2557 1.404 . S
C2556 C2559 1.539 . S
C2557 C2553 1.408 . S
C2557 C2556 1.404 . S
C2557 H2569 0.930 . S
C2558 C2554 1.524 . S
C2558 H2570 0.956 . S
C2558 H2571 0.961 . S
C2558 H2572 0.961 . S
C2559 C2556 1.539 . S
C2559 H2573 0.958 . S
C2559 H2574 0.961 . S
C2559 H2575 0.960 . S
H2560 C2544 0.931 . S
H2561 C2549 0.929 . S
H2562 C2550 0.960 . S
H2563 C2550 0.962 . S
H2564 C2550 0.960 . S
H2565 C2551 0.961 . S
H2566 C2551 0.961 . S
H2567 C2551 0.961 . S
H2568 C2552 0.931 . S
H2569 C2557 0.930 . S
H2570 C2558 0.956 . S
H2571 C2558 0.961 . S
H2572 C2558 0.961 . S
H2573 C2559 0.958 . S
H2574 C2559 0.961 . S
H2575 C2559 0.960 . S
C2576 C2577 1.391 . S
C2576 C2578 1.394 . S
C2576 H2592 0.931 . S
C2577 C2576 1.391 . S
C2577 C2581 1.376 . S
C2578 C2576 1.394 . S
C2578 C2579 1.369 . S
C2578 C2582 1.531 . S
C2579 C2578 1.369 . S
C2579 C2580 1.410 . S
C2579 C2587 1.503 . S
C2580 C2579 1.410 . S
C2580 C2581 1.392 . S
C2580 C2583 1.511 . S
C2581 C2577 1.376 . S
C2581 C2580 1.392 . S
C2581 H2593 0.929 . S
C2582 C2578 1.531 . S
C2582 H2594 0.960 . S
C2582 H2595 0.962 . S
C2582 H2596 0.960 . S
C2583 C2580 1.511 . S
C2583 H2597 0.961 . S
C2583 H2598 0.961 . S
C2583 H2599 0.961 . S
C2584 C2585 1.370 . S
C2584 C2586 1.363 . S
C2584 H2600 0.931 . S
C2585 C2584 1.370 . S
C2585 C2589 1.408 . S
C2586 C2584 1.363 . S
C2586 C2587 1.370 . S
C2586 C2590 1.524 . S
C2587 C2579 1.503 . S
C2587 C2586 1.370 . S
C2587 C2588 1.403 . S
C2588 C2587 1.403 . S
C2588 C2589 1.404 . S
C2588 C2591 1.539 . S
C2589 C2585 1.408 . S
C2589 C2588 1.404 . S
C2589 H2601 0.930 . S
C2590 C2586 1.524 . S
C2590 H2602 0.956 . S
C2590 H2603 0.961 . S
C2590 H2604 0.961 . S
C2591 C2588 1.539 . S
C2591 H2605 0.958 . S
C2591 H2606 0.961 . S
C2591 H2607 0.960 . S
H2592 C2576 0.931 . S
H2593 C2581 0.929 . S
H2594 C2582 0.960 . S
H2595 C2582 0.962 . S
H2596 C2582 0.960 . S
H2597 C2583 0.961 . S
H2598 C2583 0.961 . S
H2599 C2583 0.961 . S
H2600 C2584 0.931 . S
H2601 C2589 0.930 . S
H2602 C2590 0.956 . S
H2603 C2590 0.961 . S
H2604 C2590 0.961 . S
H2605 C2591 0.958 . S
H2606 C2591 0.961 . S
H2607 C2591 0.960 . S
C2608 C2609 1.391 . S
C2608 C2610 1.394 . S
C2608 H2624 0.931 . S
C2609 C2608 1.391 . S
C2609 C2613 1.376 . S
C2610 C2608 1.394 . S
C2610 C2611 1.369 . S
C2610 C2614 1.531 . S
C2611 C2610 1.369 . S
C2611 C2612 1.410 . S
C2611 C2619 1.503 . S
C2612 C2611 1.410 . S
C2612 C2613 1.392 . S
C2612 C2615 1.511 . S
C2613 C2609 1.376 . S
C2613 C2612 1.392 . S
C2613 H2625 0.929 . S
C2614 C2610 1.531 . S
C2614 H2626 0.960 . S
C2614 H2627 0.962 . S
C2614 H2628 0.960 . S
C2615 C2612 1.511 . S
C2615 H2629 0.961 . S
C2615 H2630 0.961 . S
C2615 H2631 0.961 . S
C2616 C2617 1.370 . S
C2616 C2618 1.363 . S
C2616 H2632 0.931 . S
C2617 C2616 1.370 . S
C2617 C2621 1.408 . S
C2618 C2616 1.363 . S
C2618 C2619 1.370 . S
C2618 C2622 1.524 . S
C2619 C2611 1.503 . S
C2619 C2618 1.370 . S
C2619 C2620 1.403 . S
C2620 C2619 1.403 . S
C2620 C2621 1.404 . S
C2620 C2623 1.539 . S
C2621 C2617 1.408 . S
C2621 C2620 1.404 . S
C2621 H2633 0.930 . S
C2622 C2618 1.524 . S
C2622 H2634 0.956 . S
C2622 H2635 0.961 . S
C2622 H2636 0.961 . S
C2623 C2620 1.539 . S
C2623 H2637 0.958 . S
C2623 H2638 0.961 . S
C2623 H2639 0.960 . S
H2624 C2608 0.931 . S
H2625 C2613 0.929 . S
H2626 C2614 0.960 . S
H2627 C2614 0.962 . S
H2628 C2614 0.960 . S
H2629 C2615 0.961 . S
H2630 C2615 0.961 . S
H2631 C2615 0.961 . S
H2632 C2616 0.931 . S
H2633 C2621 0.930 . S
H2634 C2622 0.956 . S
H2635 C2622 0.961 . S
H2636 C2622 0.961 . S
H2637 C2623 0.958 . S
H2638 C2623 0.961 . S
H2639 C2623 0.960 . S
C2640 C2641 1.391 . S
C2640 C2642 1.394 . S
C2640 H2656 0.931 . S
C2641 C2640 1.391 . S
C2641 C2645 1.376 . S
C2642 C2640 1.394 . S
C2642 C2643 1.369 . S
C2642 C2646 1.531 . S
C2643 C2642 1.369 . S
C2643 C2644 1.410 . S
C2643 C2651 1.503 . S
C2644 C2643 1.410 . S
C2644 C2645 1.392 . S
C2644 C2647 1.511 . S
C2645 C2641 1.376 . S
C2645 C2644 1.392 . S
C2645 H2657 0.929 . S
C2646 C2642 1.531 . S
C2646 H2658 0.960 . S
C2646 H2659 0.962 . S
C2646 H2660 0.960 . S
C2647 C2644 1.511 . S
C2647 H2661 0.961 . S
C2647 H2662 0.961 . S
C2647 H2663 0.961 . S
C2648 C2649 1.370 . S
C2648 C2650 1.363 . S
C2648 H2664 0.931 . S
C2649 C2648 1.370 . S
C2649 C2653 1.408 . S
C2650 C2648 1.363 . S
C2650 C2651 1.370 . S
C2650 C2654 1.524 . S
C2651 C2643 1.503 . S
C2651 C2650 1.370 . S
C2651 C2652 1.403 . S
C2652 C2651 1.403 . S
C2652 C2653 1.404 . S
C2652 C2655 1.539 . S
C2653 C2649 1.408 . S
C2653 C2652 1.404 . S
C2653 H2665 0.930 . S
C2654 C2650 1.524 . S
C2654 H2666 0.956 . S
C2654 H2667 0.961 . S
C2654 H2668 0.961 . S
C2655 C2652 1.539 . S
C2655 H2669 0.958 . S
C2655 H2670 0.961 . S
C2655 H2671 0.960 . S
H2656 C2640 0.931 . S
H2657 C2645 0.929 . S
H2658 C2646 0.960 . S
H2659 C2646 0.962 . S
H2660 C2646 0.960 . S
H2661 C2647 0.961 . S
H2662 C2647 0.961 . S
H2663 C2647 0.961 . S
H2664 C2648 0.931 . S
H2665 C2653 0.930 . S
H2666 C2654 0.956 . S
H2667 C2654 0.961 . S
H2668 C2654 0.961 . S
H2669 C2655 0.958 . S
H2670 C2655 0.961 . S
H2671 C2655 0.960 . S
C2672 C2673 1.391 . S
C2672 C2674 1.394 . S
C2672 H2688 0.931 . S
C2673 C2672 1.391 . S
C2673 C2677 1.376 . S
C2674 C2672 1.394 . S
C2674 C2675 1.369 . S
C2674 C2678 1.531 . S
C2675 C2674 1.369 . S
C2675 C2676 1.410 . S
C2675 C2683 1.503 . S
C2676 C2675 1.410 . S
C2676 C2677 1.392 . S
C2676 C2679 1.511 . S
C2677 C2673 1.376 . S
C2677 C2676 1.392 . S
C2677 H2689 0.929 . S
C2678 C2674 1.531 . S
C2678 H2690 0.960 . S
C2678 H2691 0.962 . S
C2678 H2692 0.960 . S
C2679 C2676 1.511 . S
C2679 H2693 0.961 . S
C2679 H2694 0.961 . S
C2679 H2695 0.961 . S
C2680 C2681 1.370 . S
C2680 C2682 1.363 . S
C2680 H2696 0.931 . S
C2681 C2680 1.370 . S
C2681 C2685 1.408 . S
C2682 C2680 1.363 . S
C2682 C2683 1.370 . S
C2682 C2686 1.524 . S
C2683 C2675 1.503 . S
C2683 C2682 1.370 . S
C2683 C2684 1.403 . S
C2684 C2683 1.403 . S
C2684 C2685 1.404 . S
C2684 C2687 1.539 . S
C2685 C2681 1.408 . S
C2685 C2684 1.404 . S
C2685 H2697 0.930 . S
C2686 C2682 1.524 . S
C2686 H2698 0.956 . S
C2686 H2699 0.961 . S
C2686 H2700 0.961 . S
C2687 C2684 1.539 . S
C2687 H2701 0.958 . S
C2687 H2702 0.961 . S
C2687 H2703 0.960 . S
H2688 C2672 0.931 . S
H2689 C2677 0.929 . S
H2690 C2678 0.960 . S
H2691 C2678 0.962 . S
H2692 C2678 0.960 . S
H2693 C2679 0.961 . S
H2694 C2679 0.961 . S
H2695 C2679 0.961 . S
H2696 C2680 0.931 . S
H2697 C2685 0.930 . S
H2698 C2686 0.956 . S
H2699 C2686 0.961 . S
H2700 C2686 0.961 . S
H2701 C2687 0.958 . S
H2702 C2687 0.961 . S
H2703 C2687 0.960 . S
C2704 C2705 1.391 . S
C2704 C2706 1.394 . S
C2704 H2720 0.931 . S
C2705 C2704 1.391 . S
C2705 C2709 1.376 . S
C2706 C2704 1.394 . S
C2706 C2707 1.369 . S
C2706 C2710 1.531 . S
C2707 C2706 1.369 . S
C2707 C2708 1.410 . S
C2707 C2715 1.503 . S
C2708 C2707 1.410 . S
C2708 C2709 1.392 . S
C2708 C2711 1.511 . S
C2709 C2705 1.376 . S
C2709 C2708 1.392 . S
C2709 H2721 0.929 . S
C2710 C2706 1.531 . S
C2710 H2722 0.960 . S
C2710 H2723 0.962 . S
C2710 H2724 0.960 . S
C2711 C2708 1.511 . S
C2711 H2725 0.961 . S
C2711 H2726 0.961 . S
C2711 H2727 0.961 . S
C2712 C2713 1.370 . S
C2712 C2714 1.363 . S
C2712 H2728 0.931 . S
C2713 C2712 1.370 . S
C2713 C2717 1.408 . S
C2714 C2712 1.363 . S
C2714 C2715 1.370 . S
C2714 C2718 1.524 . S
C2715 C2707 1.503 . S
C2715 C2714 1.370 . S
C2715 C2716 1.403 . S
C2716 C2715 1.403 . S
C2716 C2717 1.404 . S
C2716 C2719 1.539 . S
C2717 C2713 1.408 . S
C2717 C2716 1.404 . S
C2717 H2729 0.930 . S
C2718 C2714 1.524 . S
C2718 H2730 0.956 . S
C2718 H2731 0.961 . S
C2718 H2732 0.961 . S
C2719 C2716 1.539 . S
C2719 H2733 0.958 . S
C2719 H2734 0.961 . S
C2719 H2735 0.960 . S
H2720 C2704 0.931 . S
H2721 C2709 0.929 . S
H2722 C2710 0.960 . S
H2723 C2710 0.962 . S
H2724 C2710 0.960 . S
H2725 C2711 0.961 . S
H2726 C2711 0.961 . S
H2727 C2711 0.961 . S
H2728 C2712 0.931 . S
H2729 C2717 0.930 . S
H2730 C2718 0.956 . S
H2731 C2718 0.961 . S
H2732 C2718 0.961 . S
H2733 C2719 0.958 . S
H2734 C2719 0.961 . S
H2735 C2719 0.960 . S
C817 C5 0.728 . S
C825 C107 0.711 . S
C849 C141 0.687 . S
C857 C39 0.708 . S
C881 C175 0.703 . S
C889 C73 0.712 . S
C913 C311 0.729 . S
C921 C209 0.693 . S
C945 C243 0.661 . S
C953 C345 0.697 . S
C977 C277 0.684 . S
C985 C379 0.679 . S
C1009 C515 0.733 . S
C1017 C413 0.705 . S
C1041 C549 0.736 . S
C1049 C447 0.695 . S
C1073 C583 0.736 . S
C1081 C481 0.695 . S
C1105 C719 0.730 . S
C1113 C617 0.688 . S
C1137 C651 0.733 . S
C1145 C753 0.691 . S
C1169 C787 0.737 . S
C1177 C685 0.698 . S
C1201 C281 1.739 . S
C1209 C9 1.726 . S
C1233 C43 1.703 . S
C1241 C315 1.744 . S
C1265 C77 1.733 . S
C1273 C349 1.727 . S
C1297 C111 1.734 . S
C1305 C383 1.726 . S
C1329 C145 1.769 . S
C1337 C213 1.738 . S
C1361 C247 1.766 . S
C1369 C179 1.733 . S
C1393 C417 1.703 . S
C1401 C689 1.735 . S
C1425 C723 1.730 . S
C1433 C451 1.753 . S
C1457 C757 1.769 . S
C1465 C485 1.741 . S
C1489 C519 1.710 . S
C1497 C791 1.729 . S
C1521 C621 1.723 . S
C1529 C553 1.726 . S
C1553 C655 1.768 . S
C1561 C587 1.747 . S
C1585 C33 1.102 . S
C1593 C271 1.091 . S
C1617 C67 1.075 . S
C1625 C305 1.078 . S
C1649 C339 1.077 . S
C1657 C101 1.079 . S
C1681 C135 1.105 . S
C1689 C373 1.091 . S
C1713 C407 1.057 . S
C1721 C169 1.071 . S
C1745 C237 1.074 . S
C1753 C203 1.079 . S
C1777 C441 1.100 . S
C1785 C679 1.092 . S
C1809 C475 1.055 . S
C1817 C713 1.068 . S
C1841 C509 1.043 . S
C1849 C747 1.067 . S
C1873 C543 1.103 . S
C1881 C781 1.093 . S
C1905 C577 1.099 . S
C1913 C815 1.092 . S
C1937 C645 1.043 . S
C1945 C611 1.067 . S
C1969 C2 1.239 . S
C1977 C342 1.249 . S
C2001 C376 1.231 . S
C2009 C36 1.272 . S
C2033 C206 1.277 . S
C2041 C70 1.270 . S
C2065 C240 1.291 . S
C2073 C104 1.259 . S
C2097 C138 1.266 . S
C2105 C274 1.245 . S
C2129 C172 1.276 . S
C2137 C308 1.246 . S
C2161 C410 1.250 . S
C2169 C750 1.245 . S
C2193 C784 1.227 . S
C2201 C444 1.251 . S
C2225 C614 1.291 . S
C2233 C478 1.264 . S
C2257 C512 1.264 . S
C2265 C648 1.274 . S
C2289 C546 1.266 . S
C2297 C682 1.246 . S
C2321 C716 1.222 . S
C2329 C580 1.259 . S
C2353 C20 1.424 . S
C2361 C530 1.433 . S
C2385 C54 1.412 . S
C2393 C564 1.430 . S
C2417 C88 1.458 . S
C2425 C598 1.448 . S
C2449 C122 1.457 . S
C2457 C428 1.447 . S
C2481 C156 1.412 . S
C2489 C462 1.430 . S
C2513 C496 1.455 . S
C2521 C190 1.447 . S
C2545 C224 1.412 . S
C2553 C734 1.431 . S
C2577 C258 1.432 . S
C2585 C768 1.436 . S
C2609 C292 1.451 . S
C2617 C802 1.445 . S
C2641 C326 1.418 . S
C2649 C632 1.431 . S
C2673 C360 1.445 . S
C2681 C666 1.445 . S
C2705 C700 1.412 . S
C2713 C394 1.430 . S
