# Generated by pormake.
# Topology uoa, (4)-cn, num edge types: 1
# Building blocks:
#     Node 0, Type 0, BuildingBlock: QUQFOY_clean_sbu_3, # of connection points: 4
#     Node 1, Type 0, BuildingBlock: QUQFOY_clean_sbu_3, # of connection points: 4
#     Node 2, Type 0, BuildingBlock: QUQFOY_clean_sbu_3, # of connection points: 4
#     Node 3, Type 0, BuildingBlock: QUQFOY_clean_sbu_3, # of connection points: 4
#     Node 4, Type 0, BuildingBlock: QUQFOY_clean_sbu_3, # of connection points: 4
#     Node 5, Type 0, BuildingBlock: QUQFOY_clean_sbu_3, # of connection points: 4
#     Node 6, Type 0, BuildingBlock: QUQFOY_clean_sbu_3, # of connection points: 4
#     Node 7, Type 0, BuildingBlock: QUQFOY_clean_sbu_3, # of connection points: 4
#     Node 8, Type 0, BuildingBlock: QUQFOY_clean_sbu_3, # of connection points: 4
#     Node 9, Type 0, BuildingBlock: QUQFOY_clean_sbu_3, # of connection points: 4
#     Node 10, Type 0, BuildingBlock: QUQFOY_clean_sbu_3, # of connection points: 4
#     Node 11, Type 0, BuildingBlock: QUQFOY_clean_sbu_3, # of connection points: 4
#     Node 12, Type 0, BuildingBlock: QUQFOY_clean_sbu_3, # of connection points: 4
#     Node 13, Type 0, BuildingBlock: QUQFOY_clean_sbu_3, # of connection points: 4
#     Node 14, Type 0, BuildingBlock: QUQFOY_clean_sbu_3, # of connection points: 4
#     Node 15, Type 0, BuildingBlock: QUQFOY_clean_sbu_3, # of connection points: 4
#     Node 16, Type 0, BuildingBlock: QUQFOY_clean_sbu_3, # of connection points: 4
#     Node 17, Type 0, BuildingBlock: QUQFOY_clean_sbu_3, # of connection points: 4
#     Node 18, Type 0, BuildingBlock: QUQFOY_clean_sbu_3, # of connection points: 4
#     Node 19, Type 0, BuildingBlock: QUQFOY_clean_sbu_3, # of connection points: 4
#     Node 20, Type 0, BuildingBlock: QUQFOY_clean_sbu_3, # of connection points: 4
#     Node 21, Type 0, BuildingBlock: QUQFOY_clean_sbu_3, # of connection points: 4
#     Node 22, Type 0, BuildingBlock: QUQFOY_clean_sbu_3, # of connection points: 4
#     Node 23, Type 0, BuildingBlock: QUQFOY_clean_sbu_3, # of connection points: 4
#     Node 24, Type 0, BuildingBlock: QUQFOY_clean_sbu_3, # of connection points: 4
#     Node 25, Type 0, BuildingBlock: QUQFOY_clean_sbu_3, # of connection points: 4
#     Node 26, Type 0, BuildingBlock: QUQFOY_clean_sbu_3, # of connection points: 4
#     Node 27, Type 0, BuildingBlock: QUQFOY_clean_sbu_3, # of connection points: 4
#     Node 28, Type 0, BuildingBlock: QUQFOY_clean_sbu_3, # of connection points: 4
#     Node 29, Type 0, BuildingBlock: QUQFOY_clean_sbu_3, # of connection points: 4
#     Node 30, Type 0, BuildingBlock: QUQFOY_clean_sbu_3, # of connection points: 4
#     Node 31, Type 0, BuildingBlock: QUQFOY_clean_sbu_3, # of connection points: 4
#     Edge 32, Type (0, 0), None
#     Edge 33, Type (0, 0), None
#     Edge 34, Type (0, 0), None
#     Edge 35, Type (0, 0), None
#     Edge 36, Type (0, 0), None
#     Edge 37, Type (0, 0), None
#     Edge 38, Type (0, 0), None
#     Edge 39, Type (0, 0), None
#     Edge 40, Type (0, 0), None
#     Edge 41, Type (0, 0), None
#     Edge 42, Type (0, 0), None
#     Edge 43, Type (0, 0), None
#     Edge 44, Type (0, 0), None
#     Edge 45, Type (0, 0), None
#     Edge 46, Type (0, 0), None
#     Edge 47, Type (0, 0), None
#     Edge 48, Type (0, 0), None
#     Edge 49, Type (0, 0), None
#     Edge 50, Type (0, 0), None
#     Edge 51, Type (0, 0), None
#     Edge 52, Type (0, 0), None
#     Edge 53, Type (0, 0), None
#     Edge 54, Type (0, 0), None
#     Edge 55, Type (0, 0), None
#     Edge 56, Type (0, 0), None
#     Edge 57, Type (0, 0), None
#     Edge 58, Type (0, 0), None
#     Edge 59, Type (0, 0), None
#     Edge 60, Type (0, 0), None
#     Edge 61, Type (0, 0), None
#     Edge 62, Type (0, 0), None
#     Edge 63, Type (0, 0), None
#     Edge 64, Type (0, 0), None
#     Edge 65, Type (0, 0), None
#     Edge 66, Type (0, 0), None
#     Edge 67, Type (0, 0), None
#     Edge 68, Type (0, 0), None
#     Edge 69, Type (0, 0), None
#     Edge 70, Type (0, 0), None
#     Edge 71, Type (0, 0), None
#     Edge 72, Type (0, 0), None
#     Edge 73, Type (0, 0), None
#     Edge 74, Type (0, 0), None
#     Edge 75, Type (0, 0), None
#     Edge 76, Type (0, 0), None
#     Edge 77, Type (0, 0), None
#     Edge 78, Type (0, 0), None
#     Edge 79, Type (0, 0), None
#     Edge 80, Type (0, 0), None
#     Edge 81, Type (0, 0), None
#     Edge 82, Type (0, 0), None
#     Edge 83, Type (0, 0), None
#     Edge 84, Type (0, 0), None
#     Edge 85, Type (0, 0), None
#     Edge 86, Type (0, 0), None
#     Edge 87, Type (0, 0), None
#     Edge 88, Type (0, 0), None
#     Edge 89, Type (0, 0), None
#     Edge 90, Type (0, 0), None
#     Edge 91, Type (0, 0), None
#     Edge 92, Type (0, 0), None
#     Edge 93, Type (0, 0), None
#     Edge 94, Type (0, 0), None
#     Edge 95, Type (0, 0), None
# Relax obj value: 0.137
# Max RMSD: 0.212
# Mean RMSD: 0.211
data_MOF--net-uoa--node1-QUQFOY_clean_sbu_3--edge1-none
_symmetry_space_group_name_H-M    P1
_symmetry_Int_Tables_number       1
_symmetry_cell_setting            triclinic
loop_
_symmetry_equiv_pos_as_xyz
'x, y, z'
_cell_length_a     37.039228
_cell_length_b     36.94871
_cell_length_c     13.010687
_cell_angle_alpha  90.007976
_cell_angle_beta   89.997218
_cell_angle_gamma 88.545487
loop_
_atom_site_label
_atom_site_type_symbol
_atom_site_fract_x
_atom_site_fract_y
_atom_site_fract_z
_atom_type_partial_charge
C0 C 0.04647 0.09053 0.82953 0.0
O1 O 0.03858 0.12168 0.86397 0.0
Cd2 Cd -0.00265 0.10041 -0.01001 0.0
O3 O 0.04741 0.06401 0.89116 0.0
Cd4 Cd 0.04728 0.06142 0.07921 0.0
C5 C -0.00292 0.00502 -0.01665 0.0
O6 O 0.01938 0.11632 0.15355 0.0
O7 O -0.00248 0.06541 0.20057 0.0
O8 O 0.10899 0.07888 0.07011 0.0
C9 C 0.0023 0.0986 0.22017 0.0
O10 O 0.98259 0.03552 0.95857 0.0
C11 C 0.11719 0.07045 0.16177 0.0
O12 O 0.02529 0.00345 0.03906 0.0
O13 O 0.09428 0.05218 0.21095 0.0
C14 C 0.12934 0.69312 0.04608 0.0
O15 O 0.14036 0.67018 0.11243 0.0
Cd16 Cd 0.15476 0.67778 0.29077 0.0
O17 O 0.12262 0.72593 0.07051 0.0
Cd18 Cd 0.12906 0.75967 0.23307 0.0
C19 C 0.22034 0.73546 0.22531 0.0
O20 O 0.11235 0.71833 0.37064 0.0
O21 O 0.13933 0.76785 0.41144 0.0
O22 O 0.06916 0.78445 0.22331 0.0
C23 C 0.1227 0.74006 0.43993 0.0
O24 O 0.21269 0.70543 0.26678 0.0
C25 C 0.07767 0.81735 0.23251 0.0
O26 O 0.19567 0.75902 0.20213 0.0
O27 O 0.11109 0.8246 0.22805 0.0
C28 C 0.43019 0.88762 0.32973 0.0
O29 O 0.43805 0.85642 0.36386 0.0
Cd30 Cd 0.47953 0.87736 0.48971 0.0
O31 O 0.42948 0.91409 0.39157 0.0
Cd32 Cd 0.43004 0.91661 0.57974 0.0
C33 C 0.48039 0.97274 0.48332 0.0
O34 O 0.45764 0.8615 0.65354 0.0
O35 O 0.48001 0.91217 0.70049 0.0
O36 O 0.36816 0.8996 0.57202 0.0
C37 C 0.47489 0.87905 0.72019 0.0
O38 O 0.49464 0.94216 0.45819 0.0
C39 C 0.36035 0.90796 0.66402 0.0
O40 O 0.45231 0.97446 0.53956 0.0
O41 O 0.3835 0.92617 0.71249 0.0
C42 C 0.35003 0.28506 0.54228 0.0
O43 O 0.33902 0.308 0.60866 0.0
Cd44 Cd 0.32464 0.30051 0.78702 0.0
O45 O 0.35676 0.25225 0.56671 0.0
Cd46 Cd 0.35026 0.21859 0.72942 0.0
C47 C 0.25901 0.24289 0.7217 0.0
O48 O 0.36701 0.25996 0.86698 0.0
O49 O 0.3398 0.21055 0.90766 0.0
O50 O 0.41008 0.19351 0.72046 0.0
C51 C 0.35654 0.23827 0.93621 0.0
O52 O 0.26667 0.27292 0.76318 0.0
C53 C 0.40139 0.16066 0.7298 0.0
O54 O 0.28366 0.21932 0.6985 0.0
O55 O 0.36793 0.15359 0.72491 0.0
C56 C 0.97517 0.86755 0.60138 0.0
O57 O 0.9468 0.85334 0.56807 0.0
Cd58 Cd 0.92901 0.89547 0.43734 0.0
O59 O -0.0056 0.88537 0.53981 0.0
Cd60 Cd -0.00444 0.89064 0.35186 0.0
C61 C 0.98489 0.97 0.44828 0.0
O62 O 0.93979 0.86994 0.27273 0.0
O63 O 0.96022 0.92116 0.2213 0.0
O64 O 0.02173 0.83271 0.30936 0.0
C65 C 0.94026 0.89436 0.20461 0.0
O66 O 0.95457 0.95622 0.46986 0.0
C67 C 0.05013 0.84387 0.26669 0.0
O68 O 0.00884 0.95174 0.39933 0.0
O69 O 0.0546 0.87791 0.26508 0.0
C70 C 0.35564 0.74744 0.88007 0.0
O71 O 0.35903 0.72203 0.81477 0.0
Cd72 Cd 0.3443 0.72358 0.63532 0.0
O73 O 0.34457 0.77891 0.85415 0.0
Cd74 Cd 0.32331 0.80781 0.69624 0.0
C75 C 0.25746 0.74467 0.70263 0.0
O76 O 0.36244 0.77959 0.56325 0.0
O77 O 0.31672 0.81313 0.5152 0.0
O78 O 0.35682 0.8572 0.76495 0.0
C79 C 0.3445 0.7945 0.49059 0.0
O80 O 0.27969 0.72227 0.66117 0.0
C81 C 0.3387 0.88183 0.71866 0.0
O82 O 0.26631 0.7769 0.72573 0.0
O83 O 0.30898 0.87246 0.67911 0.0
C84 C 0.50299 0.11011 0.10097 0.0
O85 O 0.53154 0.12406 0.06798 0.0
Cd86 Cd 0.54916 0.08181 0.93728 0.0
O87 O 0.4837 0.09242 0.03918 0.0
Cd88 Cd 0.48285 0.08703 0.85108 0.0
C89 C 0.49278 0.00768 0.94801 0.0
O90 O 0.53884 0.10734 0.77236 0.0
O91 O 0.51822 0.05619 0.72102 0.0
O92 O 0.45708 0.14508 0.80778 0.0
C93 C 0.53827 0.08292 0.70423 0.0
O94 O 0.52316 0.02126 -0.03012 0.0
C95 C 0.42871 0.13403 0.76468 0.0
O96 O 0.46904 0.02606 0.89863 0.0
O97 O 0.42405 0.10002 0.76327 0.0
C98 C 0.12357 0.23087 0.37655 0.0
O99 O 0.12009 0.25625 0.3112 0.0
Cd100 Cd 0.13491 0.25449 0.1318 0.0
O101 O 0.13464 0.19941 0.3506 0.0
Cd102 Cd 0.1556 0.17018 0.19275 0.0
C103 C 0.22172 0.23294 0.19941 0.0
O104 O 0.11673 0.19855 0.0595 0.0
O105 O 0.16241 0.16487 0.01176 0.0
O106 O 0.12146 0.12134 0.26189 0.0
C107 C 0.13472 0.18361 -0.01305 0.0
O108 O 0.1995 0.25539 0.15809 0.0
C109 C 0.13923 0.09642 0.21572 0.0
O110 O 0.21282 0.20072 0.22245 0.0
O111 O 0.16904 0.10534 0.17579 0.0
C112 C 0.93096 0.88649 0.09909 0.0
O113 O 0.93914 0.85533 0.06518 0.0
Cd114 Cd 0.98055 0.87632 0.93924 0.0
O115 O 0.93014 0.91296 0.03727 0.0
Cd116 Cd 0.93084 0.91553 0.84922 0.0
C117 C 0.98123 0.97166 0.94599 0.0
O118 O 0.95853 0.86049 0.77541 0.0
O119 O 0.98083 0.91124 0.7286 0.0
O120 O 0.86897 0.89851 0.85663 0.0
C121 C 0.97571 0.87812 0.70879 0.0
O122 O -0.00439 0.94114 -0.02901 0.0
C123 C 0.86108 0.90717 0.76491 0.0
O124 O 0.95311 0.9733 0.88994 0.0
O125 O 0.88428 0.92535 0.71654 0.0
C126 C 0.84753 0.28454 0.87885 0.0
O127 O 0.83652 0.30747 0.81244 0.0
Cd128 Cd 0.82219 0.2998 0.63404 0.0
O129 O 0.85427 0.25173 0.85445 0.0
Cd130 Cd 0.84794 0.21793 0.69194 0.0
C131 C 0.75665 0.24206 0.69945 0.0
O132 O 0.8646 0.25924 0.55419 0.0
O133 O 0.83773 0.20963 0.51353 0.0
O134 O 0.90785 0.19317 0.70202 0.0
C135 C 0.85426 0.23748 0.48495 0.0
O136 O 0.76429 0.2721 0.65798 0.0
C137 C 0.89935 0.16025 0.69336 0.0
O138 O 0.78132 0.21852 0.72272 0.0
O139 O 0.86592 0.15301 0.69775 0.0
C140 C 0.5474 0.09082 0.59857 0.0
O141 O 0.53926 0.12202 0.56494 0.0
Cd142 Cd 0.4976 0.10133 0.43921 0.0
O143 O 0.54801 0.06439 0.53656 0.0
Cd144 Cd 0.54688 0.06186 0.3484 0.0
C145 C 0.49635 0.00601 0.44577 0.0
O146 O 0.51949 0.11711 0.27513 0.0
O147 O 0.49669 0.0666 0.22839 0.0
O148 O 0.60892 0.07843 0.35427 0.0
C149 C 0.50215 0.09965 0.20848 0.0
O150 O 0.48221 0.03661 0.47111 0.0
C151 C 0.61639 0.06983 0.26222 0.0
O152 O 0.52433 0.00422 0.3892 0.0
O153 O 0.59295 0.0517 0.21464 0.0
C154 C 0.62804 0.69284 0.38291 0.0
O155 O 0.63904 0.66989 0.31652 0.0
Cd156 Cd 0.65337 0.6774 0.1381 0.0
O157 O 0.6213 0.72564 0.35849 0.0
Cd158 Cd 0.62774 0.75933 0.19583 0.0
C159 C 0.719 0.73502 0.2034 0.0
O160 O 0.61102 0.71799 0.05819 0.0
O161 O 0.63812 0.76746 0.01756 0.0
O162 O 0.56792 0.78441 0.2051 0.0
C163 C 0.62145 0.73969 -0.01103 0.0
O164 O 0.71135 0.70499 0.16192 0.0
C165 C 0.57661 0.81726 0.19616 0.0
O166 O 0.69435 0.75859 0.22664 0.0
O167 O 0.61007 0.82433 0.20096 0.0
C168 C 0.00241 0.10939 0.32738 0.0
O169 O 0.03057 0.12385 0.36115 0.0
Cd170 Cd 0.0482 0.08162 0.49176 0.0
O171 O 0.98313 0.09149 0.38864 0.0
Cd172 Cd 0.98157 0.08658 0.57658 0.0
C173 C -0.0078 0.00717 0.4806 0.0
O174 O 0.03732 0.10722 0.65614 0.0
O175 O 0.0166 0.05613 0.70787 0.0
O176 O 0.95543 0.14465 0.61765 0.0
C177 C 0.03675 0.08281 0.72426 0.0
O178 O 0.02254 0.02092 0.45916 0.0
C179 C 0.92692 0.13363 0.66006 0.0
O180 O 0.96822 0.02546 0.52938 0.0
O181 O 0.92242 0.0996 0.66228 0.0
C182 C 0.6212 0.23002 0.04443 0.0
O183 O 0.61779 0.25543 0.10972 0.0
Cd184 Cd 0.63246 0.25392 0.28919 0.0
O185 O 0.63226 0.19855 0.07036 0.0
Cd186 Cd 0.65347 0.16969 0.22833 0.0
C187 C 0.71932 0.23283 0.222 0.0
O188 O 0.61436 0.19792 0.36136 0.0
O189 O 0.66014 0.16445 0.40933 0.0
O190 O 0.61994 0.12024 0.16001 0.0
C191 C 0.63235 0.18306 0.43399 0.0
O192 O 0.69708 0.25522 0.26345 0.0
C193 C 0.63806 0.09567 0.20658 0.0
O194 O 0.71048 0.2006 0.19884 0.0
O195 O 0.66785 0.10508 0.24567 0.0
C196 C 0.47447 0.86837 0.82751 0.0
O197 O 0.4461 0.8542 0.86094 0.0
Cd198 Cd 0.42864 0.89655 -0.00851 0.0
O199 O 0.4938 0.88613 0.889 0.0
Cd200 Cd 0.49503 0.89121 0.07708 0.0
C201 C 0.48514 0.9706 -0.01949 0.0
O202 O 0.43906 0.87096 0.15618 0.0
O203 O 0.45994 0.92199 0.20779 0.0
O204 O 0.52079 0.83305 0.11916 0.0
C205 C 0.43972 0.89537 0.22431 0.0
O206 O 0.45473 0.95705 0.95878 0.0
C207 C 0.54926 0.84398 0.16203 0.0
O208 O 0.5089 0.95219 0.02974 0.0
O209 O 0.55394 0.87798 0.16393 0.0
C210 C 0.85448 0.74711 0.54863 0.0
O211 O 0.85796 0.72172 0.61395 0.0
Cd212 Cd 0.84319 0.72343 0.79336 0.0
O213 O 0.84343 0.77858 0.57461 0.0
Cd214 Cd 0.82252 0.80775 0.73249 0.0
C215 C 0.75639 0.74502 0.7258 0.0
O216 O 0.86138 0.77936 0.86572 0.0
O217 O 0.81567 0.813 0.91345 0.0
O218 O 0.8567 0.85662 0.6636 0.0
C219 C 0.84337 0.79427 0.93826 0.0
O220 O 0.7786 0.72256 0.76711 0.0
C221 C 0.83898 0.8815 0.71006 0.0
O222 O 0.76529 0.77724 0.70275 0.0
O223 O 0.80911 0.87258 0.74964 0.0
C224 C 0.54739 0.59049 0.32884 0.0
O225 O 0.53946 0.62169 0.3629 0.0
Cd226 Cd 0.49796 0.60078 0.48874 0.0
O227 O 0.5481 0.56403 0.39069 0.0
Cd228 Cd 0.54742 0.56148 0.57886 0.0
C229 C 0.49703 0.50542 0.4822 0.0
O230 O 0.51988 0.61663 0.6526 0.0
O231 O 0.49739 0.566 0.69942 0.0
O232 O 0.60935 0.57836 0.57175 0.0
C233 C 0.5026 0.5991 0.71922 0.0
O234 O 0.4828 0.53599 0.45705 0.0
C235 C 0.61705 0.5699 0.66375 0.0
O236 O 0.52509 0.50369 0.53849 0.0
O237 O 0.59381 0.55171 0.71189 0.0
C238 C 0.6275 0.19262 0.5421 0.0
O239 O 0.63852 0.16967 0.60844 0.0
Cd240 Cd 0.65293 0.17717 0.78678 0.0
O241 O 0.62079 0.22543 0.56652 0.0
Cd242 Cd 0.62733 0.25911 0.72922 0.0
C243 C 0.71857 0.23479 0.7215 0.0
O244 O 0.61057 0.21774 0.86674 0.0
O245 O 0.63775 0.26716 0.90749 0.0
O246 O 0.56755 0.28429 0.72024 0.0
C247 C 0.62103 0.23942 0.936 0.0
O248 O 0.71091 0.20475 0.76294 0.0
C249 C 0.5763 0.31712 0.72948 0.0
O250 O 0.69392 0.25836 0.69832 0.0
O251 O 0.60977 0.32414 0.72458 0.0
C252 C 0.93109 0.38734 0.83009 0.0
O253 O 0.93897 0.3562 0.86458 0.0
Cd254 Cd 0.98015 0.37754 -0.00938 0.0
O255 O 0.93012 0.41387 0.89171 0.0
Cd256 Cd 0.93015 0.41648 0.07976 0.0
C257 C 0.98028 0.47294 -0.016 0.0
O258 O 0.95812 0.36162 0.15413 0.0
O259 O 0.97988 0.41257 0.20123 0.0
O260 O 0.86848 0.39892 0.07043 0.0
C261 C 0.97517 0.37937 0.22076 0.0
O262 O -0.00519 0.44246 0.95925 0.0
C263 C 0.86023 0.40733 0.16209 0.0
O264 O 0.95207 0.47449 0.03968 0.0
O265 O 0.88309 0.42563 0.21137 0.0
C266 C 0.8481 0.78468 0.04638 0.0
O267 O 0.83708 0.80762 0.11276 0.0
Cd268 Cd 0.82264 0.8 0.29106 0.0
O269 O 0.85479 0.75186 0.07074 0.0
Cd270 Cd 0.84835 0.7181 0.23329 0.0
C271 C 0.75708 0.74229 0.2255 0.0
O272 O 0.86502 0.75945 0.37094 0.0
O273 O 0.83803 0.70992 0.41163 0.0
O274 O 0.90826 0.69335 0.22362 0.0
C275 C 0.85464 0.73772 0.44017 0.0
O276 O 0.76473 0.77232 0.26697 0.0
C277 C 0.89978 0.66045 0.23281 0.0
O278 O 0.78175 0.71872 0.20231 0.0
O279 O 0.86636 0.65318 0.22828 0.0
C280 C 0.47471 0.36796 0.1 0.0
O281 O 0.44623 0.35391 0.06687 0.0
Cd282 Cd 0.42862 0.39619 0.93627 0.0
O283 O 0.49398 0.38569 0.03828 0.0
Cd284 Cd 0.49491 0.39096 0.85019 0.0
C285 C 0.485 0.47032 0.94701 0.0
O286 O 0.43892 0.37067 0.77136 0.0
O287 O 0.45962 0.42178 0.71998 0.0
O288 O 0.52061 0.33285 0.80729 0.0
C289 C 0.43952 0.39509 0.70324 0.0
O290 O 0.45462 0.45674 -0.03114 0.0
C291 C 0.54901 0.34382 0.76419 0.0
O292 O 0.50875 0.45194 0.89765 0.0
O293 O 0.55372 0.37782 0.76259 0.0
C294 C 0.85403 0.24688 0.37648 0.0
O295 O 0.8575 0.2215 0.31113 0.0
Cd296 Cd 0.84263 0.22323 0.13176 0.0
O297 O 0.84292 0.27834 0.35059 0.0
Cd298 Cd 0.8219 0.30754 0.19281 0.0
C299 C 0.75582 0.24474 0.1994 0.0
O300 O 0.86078 0.2792 0.05952 0.0
O301 O 0.8151 0.31288 0.01181 0.0
O302 O 0.85599 0.35641 0.26204 0.0
C303 C 0.84278 0.29413 -0.01301 0.0
O304 O 0.77805 0.2223 0.15808 0.0
C305 C 0.83821 0.38132 0.21591 0.0
O306 O 0.7647 0.27697 0.22247 0.0
O307 O 0.80841 0.37238 0.17592 0.0
C308 C 0.0022 0.61039 0.60198 0.0
O309 O 0.03059 0.62457 0.56876 0.0
Cd310 Cd 0.04845 0.58246 0.43798 0.0
O311 O 0.98298 0.59256 0.54036 0.0
Cd312 Cd 0.9819 0.58724 0.3524 0.0
C313 C -0.00735 0.50789 0.4489 0.0
O314 O 0.03766 0.60798 0.27335 0.0
O315 O 0.01729 0.55673 0.22189 0.0
O316 O 0.9557 0.64513 0.30979 0.0
C317 C 0.03721 0.58356 0.2052 0.0
O318 O 0.02296 0.52169 0.47048 0.0
C319 C 0.92731 0.63394 0.26708 0.0
O320 O 0.96869 0.52612 0.39995 0.0
O321 O 0.92287 0.5999 0.26549 0.0
C322 C 0.62167 0.7303 0.88052 0.0
O323 O 0.61828 0.75571 0.81526 0.0
Cd324 Cd 0.63304 0.75419 0.63583 0.0
O325 O 0.63276 0.69884 0.8546 0.0
Cd326 Cd 0.65406 0.66996 0.69667 0.0
C327 C 0.71989 0.73312 0.70315 0.0
O328 O 0.61494 0.69817 0.56367 0.0
O329 O 0.66069 0.66466 0.51564 0.0
O330 O 0.62057 0.62053 0.7652 0.0
C331 C 0.63291 0.68329 0.49102 0.0
O332 O 0.69765 0.75551 0.66171 0.0
C333 C 0.6387 0.59593 0.71877 0.0
O334 O 0.71104 0.70089 0.72622 0.0
O335 O 0.66844 0.60533 0.67938 0.0
C336 C 0.43029 0.38722 0.59763 0.0
O337 O 0.43838 0.35602 0.56387 0.0
Cd338 Cd 0.47999 0.37679 0.43813 0.0
O339 O 0.42966 0.41367 0.53571 0.0
Cd340 Cd 0.43065 0.41618 0.34755 0.0
C341 C 0.48109 0.47214 0.44463 0.0
O342 O 0.45813 0.36097 0.2741 0.0
O343 O 0.48078 0.41155 0.22735 0.0
O344 O 0.36866 0.39946 0.35398 0.0
C345 C 0.47543 0.37848 0.20747 0.0
O346 O 0.49526 0.44155 0.46991 0.0
C347 C 0.36109 0.40797 0.26193 0.0
O348 O 0.45308 0.47389 0.38816 0.0
O349 O 0.38444 0.42611 0.21407 0.0
C350 C 0.34938 0.78495 0.38247 0.0
O351 O 0.33839 0.8079 0.3161 0.0
Cd352 Cd 0.32401 0.80036 0.13773 0.0
O353 O 0.3561 0.75214 0.35805 0.0
Cd354 Cd 0.34968 0.71843 0.19539 0.0
C355 C 0.25841 0.74272 0.20318 0.0
O356 O 0.36634 0.75977 0.05771 0.0
O357 O 0.33925 0.71028 0.01713 0.0
O358 O 0.40954 0.69346 0.20457 0.0
C359 C 0.35588 0.73806 -0.01148 0.0
O360 O 0.26606 0.77275 0.16171 0.0
C361 C 0.40091 0.66058 0.1956 0.0
O362 O 0.28307 0.71915 0.22634 0.0
O363 O 0.36746 0.65346 0.20042 0.0
C364 C 0.04644 0.59147 0.09965 0.0
O365 O 0.03819 0.62262 0.06585 0.0
Cd366 Cd -0.00323 0.60165 0.93991 0.0
O367 O 0.04727 0.56502 0.03775 0.0
Cd368 Cd 0.04647 0.56244 0.84969 0.0
C369 C -0.0039 0.50632 0.94663 0.0
O370 O 0.01877 0.61748 0.77604 0.0
O371 O -0.00357 0.56675 0.72925 0.0
O372 O 0.10836 0.57944 0.85667 0.0
C373 C 0.00158 0.59986 0.70941 0.0
O374 O 0.98172 0.53684 -0.0283 0.0
C375 C 0.11618 0.5707 0.76496 0.0
O376 O 0.0242 0.50469 0.8905 0.0
O377 O 0.09294 0.55251 0.71679 0.0
C378 C 0.12998 0.19321 0.87882 0.0
O379 O 0.141 0.17027 0.81241 0.0
Cd380 Cd 0.15537 0.17793 0.63404 0.0
O381 O 0.12327 0.22602 0.85447 0.0
Cd382 Cd 0.12965 0.25984 0.69201 0.0
C383 C 0.22093 0.23563 0.6996 0.0
O384 O 0.11299 0.21853 0.55424 0.0
O385 O 0.13986 0.26813 0.5136 0.0
O386 O 0.06975 0.28463 0.70207 0.0
C387 C 0.12335 0.24027 0.48502 0.0
O388 O 0.21329 0.2056 0.6581 0.0
C389 C 0.07827 0.31754 0.69348 0.0
O390 O 0.19627 0.25919 0.72284 0.0
O391 O 0.1117 0.32476 0.6979 0.0
C392 C 0.50312 0.60972 0.82661 0.0
O393 O 0.53153 0.62382 0.85994 0.0
Cd394 Cd 0.54904 0.58152 -0.00947 0.0
O395 O 0.48379 0.59198 0.88813 0.0
Cd396 Cd 0.48261 0.58681 0.0762 0.0
C397 C 0.49262 0.50742 -0.0205 0.0
O398 O 0.53856 0.60712 0.15525 0.0
O399 O 0.51776 0.55605 0.2068 0.0
O400 O 0.45676 0.64492 0.11855 0.0
C401 C 0.53793 0.5827 0.22337 0.0
O402 O 0.52302 0.52099 0.95779 0.0
C403 C 0.42831 0.63392 0.16138 0.0
O404 O 0.46884 0.52581 0.02873 0.0
O405 O 0.42368 0.59991 0.16315 0.0
C406 C 0.12283 0.73066 0.54837 0.0
O407 O 0.11936 0.75605 0.61369 0.0
Cd408 Cd 0.13417 0.75436 0.79306 0.0
O409 O 0.1339 0.6992 0.57431 0.0
Cd410 Cd 0.15483 0.67003 0.73215 0.0
C411 C 0.22096 0.73277 0.72532 0.0
O412 O 0.11601 0.69844 0.86546 0.0
O413 O 0.16174 0.6648 0.91307 0.0
O414 O 0.1206 0.62118 0.66339 0.0
C415 C 0.13406 0.68353 0.93794 0.0
O416 O 0.19876 0.75523 0.76667 0.0
C417 C 0.13831 0.5963 0.70988 0.0
O418 O 0.21206 0.70055 0.70229 0.0
O419 O 0.1682 0.60521 0.74932 0.0
C420 C 0.97515 0.36853 0.32793 0.0
O421 O 0.94703 0.354 0.36177 0.0
Cd422 Cd 0.92939 0.39623 0.49239 0.0
O423 O -0.00558 0.38645 0.38916 0.0
Cd424 Cd -0.00395 0.39129 0.5771 0.0
C425 C 0.98537 0.4707 0.48122 0.0
O426 O 0.94031 0.37064 0.65672 0.0
O427 O 0.96106 0.42171 0.70855 0.0
O428 O 0.02219 0.3332 0.61787 0.0
C429 C 0.94089 0.39504 0.72487 0.0
O430 O 0.95503 0.45694 0.45982 0.0
C431 C 0.05071 0.3442 0.66028 0.0
O432 O 0.00936 0.45243 0.52995 0.0
O433 O 0.05522 0.37822 0.66264 0.0
C434 C 0.35638 0.24766 0.04465 0.0
O435 O 0.35977 0.22224 0.1099 0.0
Cd436 Cd 0.34506 0.22374 0.28935 0.0
O437 O 0.3453 0.27912 0.0706 0.0
Cd438 Cd 0.32406 0.30799 0.22855 0.0
C439 C 0.25821 0.24484 0.22206 0.0
O440 O 0.36316 0.27974 0.36153 0.0
O441 O 0.3174 0.31326 0.40956 0.0
O442 O 0.35758 0.35742 0.16016 0.0
C443 C 0.34517 0.29461 0.43418 0.0
O444 O 0.28045 0.22244 0.26349 0.0
C445 C 0.33945 0.38201 0.20661 0.0
O446 O 0.26706 0.27707 0.19898 0.0
O447 O 0.30968 0.37261 0.24583 0.0
loop_
_geom_bond_atom_site_label_1
_geom_bond_atom_site_label_2
_geom_bond_distance
_geom_bond_site_symmetry_2
_ccdc_geom_bond_type
C0 O1 1.306 . S
C0 O3 1.160 1_655 S
O1 C0 1.306 . S
O1 Cd2 2.228 1_556 S
Cd2 O1 2.228 1_554 S
Cd2 O6 2.273 . S
Cd2 O10 2.277 . S
O3 C0 1.160 1_455 S
O3 Cd4 2.203 1_556 S
Cd4 O3 2.203 1_554 S
Cd4 O6 2.411 1_455 S
Cd4 O7 2.333 . S
Cd4 O8 2.352 . S
Cd4 O12 2.277 . S
Cd4 O13 2.356 . S
C5 O10 1.209 1_455 S
C5 O12 1.226 . S
O6 Cd2 2.273 . S
O6 Cd4 2.411 1_655 S
O6 C9 1.320 . S
O7 Cd4 2.333 . S
O7 C9 1.214 1_455 S
O8 Cd4 2.352 . S
O8 C11 1.258 . S
C9 O6 1.320 . S
C9 O7 1.214 1_655 S
O10 Cd2 2.277 . S
O10 C5 1.209 1_655 S
C11 O8 1.258 . S
C11 O13 1.282 . S
O12 Cd4 2.277 . S
O12 C5 1.226 . S
O13 Cd4 2.356 . S
O13 C11 1.282 . S
C14 O15 1.306 . S
C14 O17 1.160 . S
O15 C14 1.306 . S
O15 Cd16 2.228 . S
Cd16 O15 2.228 . S
Cd16 O20 2.273 . S
Cd16 O24 2.277 . S
O17 C14 1.160 . S
O17 Cd18 2.203 . S
Cd18 O17 2.203 . S
Cd18 O20 2.411 . S
Cd18 O21 2.333 . S
Cd18 O22 2.352 . S
Cd18 O26 2.277 . S
Cd18 O27 2.356 . S
C19 O24 1.209 . S
C19 O26 1.226 . S
O20 Cd16 2.273 . S
O20 Cd18 2.411 . S
O20 C23 1.320 . S
O21 Cd18 2.333 . S
O21 C23 1.214 . S
O22 Cd18 2.352 . S
O22 C25 1.258 . S
C23 O20 1.320 . S
C23 O21 1.214 . S
O24 Cd16 2.277 . S
O24 C19 1.209 . S
C25 O22 1.258 . S
C25 O27 1.282 . S
O26 Cd18 2.277 . S
O26 C19 1.226 . S
O27 Cd18 2.356 . S
O27 C25 1.282 . S
C28 O29 1.306 . S
C28 O31 1.160 . S
O29 C28 1.306 . S
O29 Cd30 2.228 . S
Cd30 O29 2.228 . S
Cd30 O34 2.273 . S
Cd30 O38 2.277 . S
O31 C28 1.160 . S
O31 Cd32 2.203 . S
Cd32 O31 2.203 . S
Cd32 O34 2.411 . S
Cd32 O35 2.333 . S
Cd32 O36 2.352 . S
Cd32 O40 2.277 . S
Cd32 O41 2.356 . S
C33 O38 1.209 . S
C33 O40 1.226 . S
O34 Cd30 2.273 . S
O34 Cd32 2.411 . S
O34 C37 1.320 . S
O35 Cd32 2.333 . S
O35 C37 1.214 . S
O36 Cd32 2.352 . S
O36 C39 1.258 . S
C37 O34 1.320 . S
C37 O35 1.214 . S
O38 Cd30 2.277 . S
O38 C33 1.209 . S
C39 O36 1.258 . S
C39 O41 1.282 . S
O40 Cd32 2.277 . S
O40 C33 1.226 . S
O41 Cd32 2.356 . S
O41 C39 1.282 . S
C42 O43 1.306 . S
C42 O45 1.160 . S
O43 C42 1.306 . S
O43 Cd44 2.228 . S
Cd44 O43 2.228 . S
Cd44 O48 2.273 . S
Cd44 O52 2.277 . S
O45 C42 1.160 . S
O45 Cd46 2.203 . S
Cd46 O45 2.203 . S
Cd46 O48 2.411 . S
Cd46 O49 2.333 1_556 S
Cd46 O50 2.352 . S
Cd46 O54 2.277 . S
Cd46 O55 2.356 . S
C47 O52 1.209 . S
C47 O54 1.226 . S
O48 Cd44 2.273 . S
O48 Cd46 2.411 . S
O48 C51 1.320 1_556 S
O49 Cd46 2.333 1_554 S
O49 C51 1.214 . S
O50 Cd46 2.352 . S
O50 C53 1.258 . S
C51 O48 1.320 1_554 S
C51 O49 1.214 . S
O52 Cd44 2.277 . S
O52 C47 1.209 . S
C53 O50 1.258 . S
C53 O55 1.282 . S
O54 Cd46 2.277 . S
O54 C47 1.226 . S
O55 Cd46 2.356 . S
O55 C53 1.282 . S
C56 O57 1.306 . S
C56 O59 1.160 1_655 S
O57 C56 1.306 . S
O57 Cd58 2.228 . S
Cd58 O57 2.228 . S
Cd58 O62 2.273 . S
Cd58 O66 2.277 . S
O59 C56 1.160 1_455 S
O59 Cd60 2.203 . S
Cd60 O59 2.203 . S
Cd60 O62 2.411 1_455 S
Cd60 O63 2.333 . S
Cd60 O64 2.352 . S
Cd60 O68 2.277 . S
Cd60 O69 2.356 . S
C61 O66 1.209 1_455 S
C61 O68 1.226 . S
O62 Cd58 2.273 . S
O62 Cd60 2.411 1_655 S
O62 C65 1.320 . S
O63 Cd60 2.333 . S
O63 C65 1.214 1_455 S
O64 Cd60 2.352 . S
O64 C67 1.258 . S
C65 O62 1.320 . S
C65 O63 1.214 1_655 S
O66 Cd58 2.277 . S
O66 C61 1.209 1_655 S
C67 O64 1.258 . S
C67 O69 1.282 . S
O68 Cd60 2.277 . S
O68 C61 1.226 . S
O69 Cd60 2.356 . S
O69 C67 1.282 . S
C70 O71 1.306 . S
C70 O73 1.160 . S
O71 C70 1.306 . S
O71 Cd72 2.228 . S
Cd72 O71 2.228 . S
Cd72 O76 2.273 . S
Cd72 O80 2.277 . S
O73 C70 1.160 . S
O73 Cd74 2.203 . S
Cd74 O73 2.203 . S
Cd74 O76 2.411 . S
Cd74 O77 2.333 . S
Cd74 O78 2.352 . S
Cd74 O82 2.277 . S
Cd74 O83 2.356 . S
C75 O80 1.209 . S
C75 O82 1.226 . S
O76 Cd72 2.273 . S
O76 Cd74 2.411 . S
O76 C79 1.320 . S
O77 Cd74 2.333 . S
O77 C79 1.214 . S
O78 Cd74 2.352 . S
O78 C81 1.258 . S
C79 O76 1.320 . S
C79 O77 1.214 . S
O80 Cd72 2.277 . S
O80 C75 1.209 . S
C81 O78 1.258 . S
C81 O83 1.282 . S
O82 Cd74 2.277 . S
O82 C75 1.226 . S
O83 Cd74 2.356 . S
O83 C81 1.282 . S
C84 O85 1.306 . S
C84 O87 1.160 . S
O85 C84 1.306 . S
O85 Cd86 2.228 1_554 S
Cd86 O85 2.228 1_556 S
Cd86 O90 2.273 . S
Cd86 O94 2.277 . S
O87 C84 1.160 . S
O87 Cd88 2.203 1_554 S
Cd88 O87 2.203 1_556 S
Cd88 O90 2.411 . S
Cd88 O91 2.333 . S
Cd88 O92 2.352 . S
Cd88 O96 2.277 . S
Cd88 O97 2.356 . S
C89 O94 1.209 . S
C89 O96 1.226 . S
O90 Cd86 2.273 . S
O90 Cd88 2.411 . S
O90 C93 1.320 . S
O91 Cd88 2.333 . S
O91 C93 1.214 . S
O92 Cd88 2.352 . S
O92 C95 1.258 . S
C93 O90 1.320 . S
C93 O91 1.214 . S
O94 Cd86 2.277 . S
O94 C89 1.209 . S
C95 O92 1.258 . S
C95 O97 1.282 . S
O96 Cd88 2.277 . S
O96 C89 1.226 . S
O97 Cd88 2.356 . S
O97 C95 1.282 . S
C98 O99 1.306 . S
C98 O101 1.160 . S
O99 C98 1.306 . S
O99 Cd100 2.228 . S
Cd100 O99 2.228 . S
Cd100 O104 2.273 . S
Cd100 O108 2.277 . S
O101 C98 1.160 . S
O101 Cd102 2.203 . S
Cd102 O101 2.203 . S
Cd102 O104 2.411 . S
Cd102 O105 2.333 1_554 S
Cd102 O106 2.352 . S
Cd102 O110 2.277 . S
Cd102 O111 2.356 . S
C103 O108 1.209 . S
C103 O110 1.226 . S
O104 Cd100 2.273 . S
O104 Cd102 2.411 . S
O104 C107 1.320 1_554 S
O105 Cd102 2.333 1_556 S
O105 C107 1.214 . S
O106 Cd102 2.352 . S
O106 C109 1.258 . S
C107 O104 1.320 1_556 S
C107 O105 1.214 . S
O108 Cd100 2.277 . S
O108 C103 1.209 . S
C109 O106 1.258 . S
C109 O111 1.282 . S
O110 Cd102 2.277 . S
O110 C103 1.226 . S
O111 Cd102 2.356 . S
O111 C109 1.282 . S
C112 O113 1.306 . S
C112 O115 1.160 1_455 S
O113 C112 1.306 . S
O113 Cd114 2.228 1_554 S
Cd114 O113 2.228 1_556 S
Cd114 O118 2.273 . S
Cd114 O122 2.277 . S
O115 C112 1.160 1_655 S
O115 Cd116 2.203 1_554 S
Cd116 O115 2.203 1_556 S
Cd116 O118 2.411 1_655 S
Cd116 O119 2.333 . S
Cd116 O120 2.352 . S
Cd116 O124 2.277 . S
Cd116 O125 2.356 . S
C117 O122 1.209 1_655 S
C117 O124 1.226 . S
O118 Cd114 2.273 . S
O118 Cd116 2.411 1_455 S
O118 C121 1.320 . S
O119 Cd116 2.333 . S
O119 C121 1.214 1_655 S
O120 Cd116 2.352 . S
O120 C123 1.258 . S
C121 O118 1.320 . S
C121 O119 1.214 1_455 S
O122 Cd114 2.277 . S
O122 C117 1.209 1_455 S
C123 O120 1.258 . S
C123 O125 1.282 . S
O124 Cd116 2.277 . S
O124 C117 1.226 . S
O125 Cd116 2.356 . S
O125 C123 1.282 . S
C126 O127 1.306 . S
C126 O129 1.160 . S
O127 C126 1.306 . S
O127 Cd128 2.228 . S
Cd128 O127 2.228 . S
Cd128 O132 2.273 . S
Cd128 O136 2.277 . S
O129 C126 1.160 . S
O129 Cd130 2.203 . S
Cd130 O129 2.203 . S
Cd130 O132 2.411 . S
Cd130 O133 2.333 . S
Cd130 O134 2.352 . S
Cd130 O138 2.277 . S
Cd130 O139 2.356 . S
C131 O136 1.209 . S
C131 O138 1.226 . S
O132 Cd128 2.273 . S
O132 Cd130 2.411 . S
O132 C135 1.320 . S
O133 Cd130 2.333 . S
O133 C135 1.214 . S
O134 Cd130 2.352 . S
O134 C137 1.258 . S
C135 O132 1.320 . S
C135 O133 1.214 . S
O136 Cd128 2.277 . S
O136 C131 1.209 . S
C137 O134 1.258 . S
C137 O139 1.282 . S
O138 Cd130 2.277 . S
O138 C131 1.226 . S
O139 Cd130 2.356 . S
O139 C137 1.282 . S
C140 O141 1.306 . S
C140 O143 1.160 . S
O141 C140 1.306 . S
O141 Cd142 2.228 . S
Cd142 O141 2.228 . S
Cd142 O146 2.273 . S
Cd142 O150 2.277 . S
O143 C140 1.160 . S
O143 Cd144 2.203 . S
Cd144 O143 2.203 . S
Cd144 O146 2.411 . S
Cd144 O147 2.333 . S
Cd144 O148 2.352 . S
Cd144 O152 2.277 . S
Cd144 O153 2.356 . S
C145 O150 1.209 . S
C145 O152 1.226 . S
O146 Cd142 2.273 . S
O146 Cd144 2.411 . S
O146 C149 1.320 . S
O147 Cd144 2.333 . S
O147 C149 1.214 . S
O148 Cd144 2.352 . S
O148 C151 1.258 . S
C149 O146 1.320 . S
C149 O147 1.214 . S
O150 Cd142 2.277 . S
O150 C145 1.209 . S
C151 O148 1.258 . S
C151 O153 1.282 . S
O152 Cd144 2.277 . S
O152 C145 1.226 . S
O153 Cd144 2.356 . S
O153 C151 1.282 . S
C154 O155 1.306 . S
C154 O157 1.160 . S
O155 C154 1.306 . S
O155 Cd156 2.228 . S
Cd156 O155 2.228 . S
Cd156 O160 2.273 . S
Cd156 O164 2.277 . S
O157 C154 1.160 . S
O157 Cd158 2.203 . S
Cd158 O157 2.203 . S
Cd158 O160 2.411 . S
Cd158 O161 2.333 1_554 S
Cd158 O162 2.352 . S
Cd158 O166 2.277 . S
Cd158 O167 2.356 . S
C159 O164 1.209 . S
C159 O166 1.226 . S
O160 Cd156 2.273 . S
O160 Cd158 2.411 . S
O160 C163 1.320 1_554 S
O161 Cd158 2.333 1_556 S
O161 C163 1.214 . S
O162 Cd158 2.352 . S
O162 C165 1.258 . S
C163 O160 1.320 1_556 S
C163 O161 1.214 . S
O164 Cd156 2.277 . S
O164 C159 1.209 . S
C165 O162 1.258 . S
C165 O167 1.282 . S
O166 Cd158 2.277 . S
O166 C159 1.226 . S
O167 Cd158 2.356 . S
O167 C165 1.282 . S
C168 O169 1.306 . S
C168 O171 1.160 1_455 S
O169 C168 1.306 . S
O169 Cd170 2.228 . S
Cd170 O169 2.228 . S
Cd170 O174 2.273 . S
Cd170 O178 2.277 . S
O171 C168 1.160 1_655 S
O171 Cd172 2.203 . S
Cd172 O171 2.203 . S
Cd172 O174 2.411 1_655 S
Cd172 O175 2.333 . S
Cd172 O176 2.352 . S
Cd172 O180 2.277 . S
Cd172 O181 2.356 . S
C173 O178 1.209 1_655 S
C173 O180 1.226 . S
O174 Cd170 2.273 . S
O174 Cd172 2.411 1_455 S
O174 C177 1.320 . S
O175 Cd172 2.333 . S
O175 C177 1.214 1_655 S
O176 Cd172 2.352 . S
O176 C179 1.258 . S
C177 O174 1.320 . S
C177 O175 1.214 1_455 S
O178 Cd170 2.277 . S
O178 C173 1.209 1_455 S
C179 O176 1.258 . S
C179 O181 1.282 . S
O180 Cd172 2.277 . S
O180 C173 1.226 . S
O181 Cd172 2.356 . S
O181 C179 1.282 . S
C182 O183 1.306 . S
C182 O185 1.160 . S
O183 C182 1.306 . S
O183 Cd184 2.228 . S
Cd184 O183 2.228 . S
Cd184 O188 2.273 . S
Cd184 O192 2.277 . S
O185 C182 1.160 . S
O185 Cd186 2.203 . S
Cd186 O185 2.203 . S
Cd186 O188 2.411 . S
Cd186 O189 2.333 . S
Cd186 O190 2.352 . S
Cd186 O194 2.277 . S
Cd186 O195 2.356 . S
C187 O192 1.209 . S
C187 O194 1.226 . S
O188 Cd184 2.273 . S
O188 Cd186 2.411 . S
O188 C191 1.320 . S
O189 Cd186 2.333 . S
O189 C191 1.214 . S
O190 Cd186 2.352 . S
O190 C193 1.258 . S
C191 O188 1.320 . S
C191 O189 1.214 . S
O192 Cd184 2.277 . S
O192 C187 1.209 . S
C193 O190 1.258 . S
C193 O195 1.282 . S
O194 Cd186 2.277 . S
O194 C187 1.226 . S
O195 Cd186 2.356 . S
O195 C193 1.282 . S
C196 O197 1.306 . S
C196 O199 1.160 . S
O197 C196 1.306 . S
O197 Cd198 2.228 1_556 S
Cd198 O197 2.228 1_554 S
Cd198 O202 2.273 . S
Cd198 O206 2.277 . S
O199 C196 1.160 . S
O199 Cd200 2.203 1_556 S
Cd200 O199 2.203 1_554 S
Cd200 O202 2.411 . S
Cd200 O203 2.333 . S
Cd200 O204 2.352 . S
Cd200 O208 2.277 . S
Cd200 O209 2.356 . S
C201 O206 1.209 . S
C201 O208 1.226 . S
O202 Cd198 2.273 . S
O202 Cd200 2.411 . S
O202 C205 1.320 . S
O203 Cd200 2.333 . S
O203 C205 1.214 . S
O204 Cd200 2.352 . S
O204 C207 1.258 . S
C205 O202 1.320 . S
C205 O203 1.214 . S
O206 Cd198 2.277 . S
O206 C201 1.209 . S
C207 O204 1.258 . S
C207 O209 1.282 . S
O208 Cd200 2.277 . S
O208 C201 1.226 . S
O209 Cd200 2.356 . S
O209 C207 1.282 . S
C210 O211 1.306 . S
C210 O213 1.160 . S
O211 C210 1.306 . S
O211 Cd212 2.228 . S
Cd212 O211 2.228 . S
Cd212 O216 2.273 . S
Cd212 O220 2.277 . S
O213 C210 1.160 . S
O213 Cd214 2.203 . S
Cd214 O213 2.203 . S
Cd214 O216 2.411 . S
Cd214 O217 2.333 1_556 S
Cd214 O218 2.352 . S
Cd214 O222 2.277 . S
Cd214 O223 2.356 . S
C215 O220 1.209 . S
C215 O222 1.226 . S
O216 Cd212 2.273 . S
O216 Cd214 2.411 . S
O216 C219 1.320 1_556 S
O217 Cd214 2.333 1_554 S
O217 C219 1.214 . S
O218 Cd214 2.352 . S
O218 C221 1.258 . S
C219 O216 1.320 1_554 S
C219 O217 1.214 . S
O220 Cd212 2.277 . S
O220 C215 1.209 . S
C221 O218 1.258 . S
C221 O223 1.282 . S
O222 Cd214 2.277 . S
O222 C215 1.226 . S
O223 Cd214 2.356 . S
O223 C221 1.282 . S
C224 O225 1.306 . S
C224 O227 1.160 . S
O225 C224 1.306 . S
O225 Cd226 2.228 . S
Cd226 O225 2.228 . S
Cd226 O230 2.273 . S
Cd226 O234 2.277 . S
O227 C224 1.160 . S
O227 Cd228 2.203 . S
Cd228 O227 2.203 . S
Cd228 O230 2.411 . S
Cd228 O231 2.333 . S
Cd228 O232 2.352 . S
Cd228 O236 2.277 . S
Cd228 O237 2.356 . S
C229 O234 1.209 . S
C229 O236 1.226 . S
O230 Cd226 2.273 . S
O230 Cd228 2.411 . S
O230 C233 1.320 . S
O231 Cd228 2.333 . S
O231 C233 1.214 . S
O232 Cd228 2.352 . S
O232 C235 1.258 . S
C233 O230 1.320 . S
C233 O231 1.214 . S
O234 Cd226 2.277 . S
O234 C229 1.209 . S
C235 O232 1.258 . S
C235 O237 1.282 . S
O236 Cd228 2.277 . S
O236 C229 1.226 . S
O237 Cd228 2.356 . S
O237 C235 1.282 . S
C238 O239 1.306 . S
C238 O241 1.160 . S
O239 C238 1.306 . S
O239 Cd240 2.228 . S
Cd240 O239 2.228 . S
Cd240 O244 2.273 . S
Cd240 O248 2.277 . S
O241 C238 1.160 . S
O241 Cd242 2.203 . S
Cd242 O241 2.203 . S
Cd242 O244 2.411 . S
Cd242 O245 2.333 1_556 S
Cd242 O246 2.352 . S
Cd242 O250 2.277 . S
Cd242 O251 2.356 . S
C243 O248 1.209 . S
C243 O250 1.226 . S
O244 Cd240 2.273 . S
O244 Cd242 2.411 . S
O244 C247 1.320 1_556 S
O245 Cd242 2.333 1_554 S
O245 C247 1.214 . S
O246 Cd242 2.352 . S
O246 C249 1.258 . S
C247 O244 1.320 1_554 S
C247 O245 1.214 . S
O248 Cd240 2.277 . S
O248 C243 1.209 . S
C249 O246 1.258 . S
C249 O251 1.282 . S
O250 Cd242 2.277 . S
O250 C243 1.226 . S
O251 Cd242 2.356 . S
O251 C249 1.282 . S
C252 O253 1.306 . S
C252 O255 1.160 1_455 S
O253 C252 1.306 . S
O253 Cd254 2.228 1_556 S
Cd254 O253 2.228 1_554 S
Cd254 O258 2.273 . S
Cd254 O262 2.277 . S
O255 C252 1.160 1_655 S
O255 Cd256 2.203 1_556 S
Cd256 O255 2.203 1_554 S
Cd256 O258 2.411 1_655 S
Cd256 O259 2.333 . S
Cd256 O260 2.352 . S
Cd256 O264 2.277 . S
Cd256 O265 2.356 . S
C257 O262 1.209 1_655 S
C257 O264 1.226 . S
O258 Cd254 2.273 . S
O258 Cd256 2.411 1_455 S
O258 C261 1.320 . S
O259 Cd256 2.333 . S
O259 C261 1.214 1_655 S
O260 Cd256 2.352 . S
O260 C263 1.258 . S
C261 O258 1.320 . S
C261 O259 1.214 1_455 S
O262 Cd254 2.277 . S
O262 C257 1.209 1_455 S
C263 O260 1.258 . S
C263 O265 1.282 . S
O264 Cd256 2.277 . S
O264 C257 1.226 . S
O265 Cd256 2.356 . S
O265 C263 1.282 . S
C266 O267 1.306 . S
C266 O269 1.160 . S
O267 C266 1.306 . S
O267 Cd268 2.228 . S
Cd268 O267 2.228 . S
Cd268 O272 2.273 . S
Cd268 O276 2.277 . S
O269 C266 1.160 . S
O269 Cd270 2.203 . S
Cd270 O269 2.203 . S
Cd270 O272 2.411 . S
Cd270 O273 2.333 . S
Cd270 O274 2.352 . S
Cd270 O278 2.277 . S
Cd270 O279 2.356 . S
C271 O276 1.209 . S
C271 O278 1.226 . S
O272 Cd268 2.273 . S
O272 Cd270 2.411 . S
O272 C275 1.320 . S
O273 Cd270 2.333 . S
O273 C275 1.214 . S
O274 Cd270 2.352 . S
O274 C277 1.258 . S
C275 O272 1.320 . S
C275 O273 1.214 . S
O276 Cd268 2.277 . S
O276 C271 1.209 . S
C277 O274 1.258 . S
C277 O279 1.282 . S
O278 Cd270 2.277 . S
O278 C271 1.226 . S
O279 Cd270 2.356 . S
O279 C277 1.282 . S
C280 O281 1.306 . S
C280 O283 1.160 . S
O281 C280 1.306 . S
O281 Cd282 2.228 1_554 S
Cd282 O281 2.228 1_556 S
Cd282 O286 2.273 . S
Cd282 O290 2.277 . S
O283 C280 1.160 . S
O283 Cd284 2.203 1_554 S
Cd284 O283 2.203 1_556 S
Cd284 O286 2.411 . S
Cd284 O287 2.333 . S
Cd284 O288 2.352 . S
Cd284 O292 2.277 . S
Cd284 O293 2.356 . S
C285 O290 1.209 . S
C285 O292 1.226 . S
O286 Cd282 2.273 . S
O286 Cd284 2.411 . S
O286 C289 1.320 . S
O287 Cd284 2.333 . S
O287 C289 1.214 . S
O288 Cd284 2.352 . S
O288 C291 1.258 . S
C289 O286 1.320 . S
C289 O287 1.214 . S
O290 Cd282 2.277 . S
O290 C285 1.209 . S
C291 O288 1.258 . S
C291 O293 1.282 . S
O292 Cd284 2.277 . S
O292 C285 1.226 . S
O293 Cd284 2.356 . S
O293 C291 1.282 . S
C294 O295 1.306 . S
C294 O297 1.160 . S
O295 C294 1.306 . S
O295 Cd296 2.228 . S
Cd296 O295 2.228 . S
Cd296 O300 2.273 . S
Cd296 O304 2.277 . S
O297 C294 1.160 . S
O297 Cd298 2.203 . S
Cd298 O297 2.203 . S
Cd298 O300 2.411 . S
Cd298 O301 2.333 1_554 S
Cd298 O302 2.352 . S
Cd298 O306 2.277 . S
Cd298 O307 2.356 . S
C299 O304 1.209 . S
C299 O306 1.226 . S
O300 Cd296 2.273 . S
O300 Cd298 2.411 . S
O300 C303 1.320 1_554 S
O301 Cd298 2.333 1_556 S
O301 C303 1.214 . S
O302 Cd298 2.352 . S
O302 C305 1.258 . S
C303 O300 1.320 1_556 S
C303 O301 1.214 . S
O304 Cd296 2.277 . S
O304 C299 1.209 . S
C305 O302 1.258 . S
C305 O307 1.282 . S
O306 Cd298 2.277 . S
O306 C299 1.226 . S
O307 Cd298 2.356 . S
O307 C305 1.282 . S
C308 O309 1.306 . S
C308 O311 1.160 1_455 S
O309 C308 1.306 . S
O309 Cd310 2.228 . S
Cd310 O309 2.228 . S
Cd310 O314 2.273 . S
Cd310 O318 2.277 . S
O311 C308 1.160 1_655 S
O311 Cd312 2.203 . S
Cd312 O311 2.203 . S
Cd312 O314 2.411 1_655 S
Cd312 O315 2.333 . S
Cd312 O316 2.352 . S
Cd312 O320 2.277 . S
Cd312 O321 2.356 . S
C313 O318 1.209 1_655 S
C313 O320 1.226 . S
O314 Cd310 2.273 . S
O314 Cd312 2.411 1_455 S
O314 C317 1.320 . S
O315 Cd312 2.333 . S
O315 C317 1.214 1_655 S
O316 Cd312 2.352 . S
O316 C319 1.258 . S
C317 O314 1.320 . S
C317 O315 1.214 1_455 S
O318 Cd310 2.277 . S
O318 C313 1.209 1_455 S
C319 O316 1.258 . S
C319 O321 1.282 . S
O320 Cd312 2.277 . S
O320 C313 1.226 . S
O321 Cd312 2.356 . S
O321 C319 1.282 . S
C322 O323 1.306 . S
C322 O325 1.160 . S
O323 C322 1.306 . S
O323 Cd324 2.228 . S
Cd324 O323 2.228 . S
Cd324 O328 2.273 . S
Cd324 O332 2.277 . S
O325 C322 1.160 . S
O325 Cd326 2.203 . S
Cd326 O325 2.203 . S
Cd326 O328 2.411 . S
Cd326 O329 2.333 . S
Cd326 O330 2.352 . S
Cd326 O334 2.277 . S
Cd326 O335 2.356 . S
C327 O332 1.209 . S
C327 O334 1.226 . S
O328 Cd324 2.273 . S
O328 Cd326 2.411 . S
O328 C331 1.320 . S
O329 Cd326 2.333 . S
O329 C331 1.214 . S
O330 Cd326 2.352 . S
O330 C333 1.258 . S
C331 O328 1.320 . S
C331 O329 1.214 . S
O332 Cd324 2.277 . S
O332 C327 1.209 . S
C333 O330 1.258 . S
C333 O335 1.282 . S
O334 Cd326 2.277 . S
O334 C327 1.226 . S
O335 Cd326 2.356 . S
O335 C333 1.282 . S
C336 O337 1.306 . S
C336 O339 1.160 . S
O337 C336 1.306 . S
O337 Cd338 2.228 . S
Cd338 O337 2.228 . S
Cd338 O342 2.273 . S
Cd338 O346 2.277 . S
O339 C336 1.160 . S
O339 Cd340 2.203 . S
Cd340 O339 2.203 . S
Cd340 O342 2.411 . S
Cd340 O343 2.333 . S
Cd340 O344 2.352 . S
Cd340 O348 2.277 . S
Cd340 O349 2.356 . S
C341 O346 1.209 . S
C341 O348 1.226 . S
O342 Cd338 2.273 . S
O342 Cd340 2.411 . S
O342 C345 1.320 . S
O343 Cd340 2.333 . S
O343 C345 1.214 . S
O344 Cd340 2.352 . S
O344 C347 1.258 . S
C345 O342 1.320 . S
C345 O343 1.214 . S
O346 Cd338 2.277 . S
O346 C341 1.209 . S
C347 O344 1.258 . S
C347 O349 1.282 . S
O348 Cd340 2.277 . S
O348 C341 1.226 . S
O349 Cd340 2.356 . S
O349 C347 1.282 . S
C350 O351 1.306 . S
C350 O353 1.160 . S
O351 C350 1.306 . S
O351 Cd352 2.228 . S
Cd352 O351 2.228 . S
Cd352 O356 2.273 . S
Cd352 O360 2.277 . S
O353 C350 1.160 . S
O353 Cd354 2.203 . S
Cd354 O353 2.203 . S
Cd354 O356 2.411 . S
Cd354 O357 2.333 1_554 S
Cd354 O358 2.352 . S
Cd354 O362 2.277 . S
Cd354 O363 2.356 . S
C355 O360 1.209 . S
C355 O362 1.226 . S
O356 Cd352 2.273 . S
O356 Cd354 2.411 . S
O356 C359 1.320 1_554 S
O357 Cd354 2.333 1_556 S
O357 C359 1.214 . S
O358 Cd354 2.352 . S
O358 C361 1.258 . S
C359 O356 1.320 1_556 S
C359 O357 1.214 . S
O360 Cd352 2.277 . S
O360 C355 1.209 . S
C361 O358 1.258 . S
C361 O363 1.282 . S
O362 Cd354 2.277 . S
O362 C355 1.226 . S
O363 Cd354 2.356 . S
O363 C361 1.282 . S
C364 O365 1.306 . S
C364 O367 1.160 1_655 S
O365 C364 1.306 . S
O365 Cd366 2.228 1_554 S
Cd366 O365 2.228 1_556 S
Cd366 O370 2.273 . S
Cd366 O374 2.277 . S
O367 C364 1.160 1_455 S
O367 Cd368 2.203 1_554 S
Cd368 O367 2.203 1_556 S
Cd368 O370 2.411 1_455 S
Cd368 O371 2.333 . S
Cd368 O372 2.352 . S
Cd368 O376 2.277 . S
Cd368 O377 2.356 . S
C369 O374 1.209 1_455 S
C369 O376 1.226 . S
O370 Cd366 2.273 . S
O370 Cd368 2.411 1_655 S
O370 C373 1.320 . S
O371 Cd368 2.333 . S
O371 C373 1.214 1_455 S
O372 Cd368 2.352 . S
O372 C375 1.258 . S
C373 O370 1.320 . S
C373 O371 1.214 1_655 S
O374 Cd366 2.277 . S
O374 C369 1.209 1_655 S
C375 O372 1.258 . S
C375 O377 1.282 . S
O376 Cd368 2.277 . S
O376 C369 1.226 . S
O377 Cd368 2.356 . S
O377 C375 1.282 . S
C378 O379 1.306 . S
C378 O381 1.160 . S
O379 C378 1.306 . S
O379 Cd380 2.228 . S
Cd380 O379 2.228 . S
Cd380 O384 2.273 . S
Cd380 O388 2.277 . S
O381 C378 1.160 . S
O381 Cd382 2.203 . S
Cd382 O381 2.203 . S
Cd382 O384 2.411 . S
Cd382 O385 2.333 . S
Cd382 O386 2.352 . S
Cd382 O390 2.277 . S
Cd382 O391 2.356 . S
C383 O388 1.209 . S
C383 O390 1.226 . S
O384 Cd380 2.273 . S
O384 Cd382 2.411 . S
O384 C387 1.320 . S
O385 Cd382 2.333 . S
O385 C387 1.214 . S
O386 Cd382 2.352 . S
O386 C389 1.258 . S
C387 O384 1.320 . S
C387 O385 1.214 . S
O388 Cd380 2.277 . S
O388 C383 1.209 . S
C389 O386 1.258 . S
C389 O391 1.282 . S
O390 Cd382 2.277 . S
O390 C383 1.226 . S
O391 Cd382 2.356 . S
O391 C389 1.282 . S
C392 O393 1.306 . S
C392 O395 1.160 . S
O393 C392 1.306 . S
O393 Cd394 2.228 1_556 S
Cd394 O393 2.228 1_554 S
Cd394 O398 2.273 . S
Cd394 O402 2.277 . S
O395 C392 1.160 . S
O395 Cd396 2.203 1_556 S
Cd396 O395 2.203 1_554 S
Cd396 O398 2.411 . S
Cd396 O399 2.333 . S
Cd396 O400 2.352 . S
Cd396 O404 2.277 . S
Cd396 O405 2.356 . S
C397 O402 1.209 . S
C397 O404 1.226 . S
O398 Cd394 2.273 . S
O398 Cd396 2.411 . S
O398 C401 1.320 . S
O399 Cd396 2.333 . S
O399 C401 1.214 . S
O400 Cd396 2.352 . S
O400 C403 1.258 . S
C401 O398 1.320 . S
C401 O399 1.214 . S
O402 Cd394 2.277 . S
O402 C397 1.209 . S
C403 O400 1.258 . S
C403 O405 1.282 . S
O404 Cd396 2.277 . S
O404 C397 1.226 . S
O405 Cd396 2.356 . S
O405 C403 1.282 . S
C406 O407 1.306 . S
C406 O409 1.160 . S
O407 C406 1.306 . S
O407 Cd408 2.228 . S
Cd408 O407 2.228 . S
Cd408 O412 2.273 . S
Cd408 O416 2.277 . S
O409 C406 1.160 . S
O409 Cd410 2.203 . S
Cd410 O409 2.203 . S
Cd410 O412 2.411 . S
Cd410 O413 2.333 1_556 S
Cd410 O414 2.352 . S
Cd410 O418 2.277 . S
Cd410 O419 2.356 . S
C411 O416 1.209 . S
C411 O418 1.226 . S
O412 Cd408 2.273 . S
O412 Cd410 2.411 . S
O412 C415 1.320 1_556 S
O413 Cd410 2.333 1_554 S
O413 C415 1.214 . S
O414 Cd410 2.352 . S
O414 C417 1.258 . S
C415 O412 1.320 1_554 S
C415 O413 1.214 . S
O416 Cd408 2.277 . S
O416 C411 1.209 . S
C417 O414 1.258 . S
C417 O419 1.282 . S
O418 Cd410 2.277 . S
O418 C411 1.226 . S
O419 Cd410 2.356 . S
O419 C417 1.282 . S
C420 O421 1.306 . S
C420 O423 1.160 1_655 S
O421 C420 1.306 . S
O421 Cd422 2.228 . S
Cd422 O421 2.228 . S
Cd422 O426 2.273 . S
Cd422 O430 2.277 . S
O423 C420 1.160 1_455 S
O423 Cd424 2.203 . S
Cd424 O423 2.203 . S
Cd424 O426 2.411 1_455 S
Cd424 O427 2.333 . S
Cd424 O428 2.352 . S
Cd424 O432 2.277 . S
Cd424 O433 2.356 . S
C425 O430 1.209 1_455 S
C425 O432 1.226 . S
O426 Cd422 2.273 . S
O426 Cd424 2.411 1_655 S
O426 C429 1.320 . S
O427 Cd424 2.333 . S
O427 C429 1.214 1_455 S
O428 Cd424 2.352 . S
O428 C431 1.258 . S
C429 O426 1.320 . S
C429 O427 1.214 1_655 S
O430 Cd422 2.277 . S
O430 C425 1.209 1_655 S
C431 O428 1.258 . S
C431 O433 1.282 . S
O432 Cd424 2.277 . S
O432 C425 1.226 . S
O433 Cd424 2.356 . S
O433 C431 1.282 . S
C434 O435 1.306 . S
C434 O437 1.160 . S
O435 C434 1.306 . S
O435 Cd436 2.228 . S
Cd436 O435 2.228 . S
Cd436 O440 2.273 . S
Cd436 O444 2.277 . S
O437 C434 1.160 . S
O437 Cd438 2.203 . S
Cd438 O437 2.203 . S
Cd438 O440 2.411 . S
Cd438 O441 2.333 . S
Cd438 O442 2.352 . S
Cd438 O446 2.277 . S
Cd438 O447 2.356 . S
C439 O444 1.209 . S
C439 O446 1.226 . S
O440 Cd436 2.273 . S
O440 Cd438 2.411 . S
O440 C443 1.320 . S
O441 Cd438 2.333 . S
O441 C443 1.214 . S
O442 Cd438 2.352 . S
O442 C445 1.258 . S
C443 O440 1.320 . S
C443 O441 1.214 . S
O444 Cd436 2.277 . S
O444 C439 1.209 . S
C445 O442 1.258 . S
C445 O447 1.282 . S
O446 Cd438 2.277 . S
O446 C439 1.226 . S
O447 Cd438 2.356 . S
O447 C445 1.282 . S
C177 C0 1.435 1_455 S
C415 C14 1.436 . S
C205 C28 1.435 . S
C443 C42 1.436 . S
C121 C56 1.435 1_455 S
C70 C359 1.436 . S
C84 C149 1.435 . S
C387 C98 1.436 . S
C65 C112 1.435 1_655 S
C303 C126 1.436 . S
C93 C140 1.435 . S
C331 C154 1.436 . S
C168 C9 1.435 1_455 S
C182 C247 1.436 . S
C37 C196 1.435 . S
C210 C275 1.436 . S
C401 C224 1.435 . S
C191 C238 1.436 . S
C429 C252 1.435 1_655 S
C266 C219 1.436 . S
C280 C345 1.435 . S
C294 C135 1.436 . S
C373 C308 1.435 1_655 S
C163 C322 1.436 . S
C289 C336 1.435 . S
C350 C79 1.436 . S
C364 C317 1.435 1_655 S
C378 C107 1.436 . S
C233 C392 1.435 . S
C23 C406 1.436 . S
C261 C420 1.435 1_455 S
C434 C51 1.436 . S
C5 C117 1.750 1_444 S
C19 C355 1.753 . S
C145 C33 1.749 1_545 S
C47 C383 1.753 . S
C61 C173 1.749 1_465 S
C411 C75 1.753 . S
C201 C89 1.748 1_564 S
C103 C439 1.753 . S
C131 C243 1.753 . S
C159 C271 1.753 . S
C187 C299 1.753 . S
C327 C215 1.753 . S
C229 C341 1.749 . S
C257 C369 1.750 1_654 S
C285 C397 1.749 1_556 S
C425 C313 1.749 1_455 S
C11 C109 1.477 . S
C25 C67 1.477 . S
C81 C39 1.477 . S
C95 C53 1.477 . S
C221 C123 1.477 . S
C179 C137 1.477 . S
C193 C151 1.477 . S
C207 C165 1.477 . S
C235 C333 1.477 . S
C291 C249 1.477 . S
C305 C263 1.477 . S
C319 C277 1.477 . S
C445 C347 1.477 . S
C361 C403 1.477 . S
C375 C417 1.477 . S
C431 C389 1.477 . S
