# Generated by pormake.
# Topology uoy, (4)-cn, num edge types: 1
# Building blocks:
#     Node 0, Type 0, BuildingBlock: ICAMEG_clean_sbu_1, # of connection points: 4
#     Node 1, Type 0, BuildingBlock: ICAMEG_clean_sbu_1, # of connection points: 4
#     Node 2, Type 0, BuildingBlock: ICAMEG_clean_sbu_1, # of connection points: 4
#     Node 3, Type 0, BuildingBlock: ICAMEG_clean_sbu_1, # of connection points: 4
#     Node 4, Type 0, BuildingBlock: ICAMEG_clean_sbu_1, # of connection points: 4
#     Node 5, Type 0, BuildingBlock: ICAMEG_clean_sbu_1, # of connection points: 4
#     Node 6, Type 0, BuildingBlock: ICAMEG_clean_sbu_1, # of connection points: 4
#     Node 7, Type 0, BuildingBlock: ICAMEG_clean_sbu_1, # of connection points: 4
#     Node 8, Type 0, BuildingBlock: ICAMEG_clean_sbu_1, # of connection points: 4
#     Node 9, Type 0, BuildingBlock: ICAMEG_clean_sbu_1, # of connection points: 4
#     Node 10, Type 0, BuildingBlock: ICAMEG_clean_sbu_1, # of connection points: 4
#     Node 11, Type 0, BuildingBlock: ICAMEG_clean_sbu_1, # of connection points: 4
#     Node 12, Type 0, BuildingBlock: ICAMEG_clean_sbu_1, # of connection points: 4
#     Node 13, Type 0, BuildingBlock: ICAMEG_clean_sbu_1, # of connection points: 4
#     Node 14, Type 0, BuildingBlock: ICAMEG_clean_sbu_1, # of connection points: 4
#     Node 15, Type 0, BuildingBlock: ICAMEG_clean_sbu_1, # of connection points: 4
#     Edge 16, Type (0, 0), BuildingBlock: KIFKEQ_clean_linker_1, # of connection points: 2
#     Edge 17, Type (0, 0), BuildingBlock: KIFKEQ_clean_linker_1, # of connection points: 2
#     Edge 18, Type (0, 0), BuildingBlock: KIFKEQ_clean_linker_1, # of connection points: 2
#     Edge 19, Type (0, 0), BuildingBlock: KIFKEQ_clean_linker_1, # of connection points: 2
#     Edge 20, Type (0, 0), BuildingBlock: KIFKEQ_clean_linker_1, # of connection points: 2
#     Edge 21, Type (0, 0), BuildingBlock: KIFKEQ_clean_linker_1, # of connection points: 2
#     Edge 22, Type (0, 0), BuildingBlock: KIFKEQ_clean_linker_1, # of connection points: 2
#     Edge 23, Type (0, 0), BuildingBlock: KIFKEQ_clean_linker_1, # of connection points: 2
#     Edge 24, Type (0, 0), BuildingBlock: KIFKEQ_clean_linker_1, # of connection points: 2
#     Edge 25, Type (0, 0), BuildingBlock: KIFKEQ_clean_linker_1, # of connection points: 2
#     Edge 26, Type (0, 0), BuildingBlock: KIFKEQ_clean_linker_1, # of connection points: 2
#     Edge 27, Type (0, 0), BuildingBlock: KIFKEQ_clean_linker_1, # of connection points: 2
#     Edge 28, Type (0, 0), BuildingBlock: KIFKEQ_clean_linker_1, # of connection points: 2
#     Edge 29, Type (0, 0), BuildingBlock: KIFKEQ_clean_linker_1, # of connection points: 2
#     Edge 30, Type (0, 0), BuildingBlock: KIFKEQ_clean_linker_1, # of connection points: 2
#     Edge 31, Type (0, 0), BuildingBlock: KIFKEQ_clean_linker_1, # of connection points: 2
#     Edge 32, Type (0, 0), BuildingBlock: KIFKEQ_clean_linker_1, # of connection points: 2
#     Edge 33, Type (0, 0), BuildingBlock: KIFKEQ_clean_linker_1, # of connection points: 2
#     Edge 34, Type (0, 0), BuildingBlock: KIFKEQ_clean_linker_1, # of connection points: 2
#     Edge 35, Type (0, 0), BuildingBlock: KIFKEQ_clean_linker_1, # of connection points: 2
#     Edge 36, Type (0, 0), BuildingBlock: KIFKEQ_clean_linker_1, # of connection points: 2
#     Edge 37, Type (0, 0), BuildingBlock: KIFKEQ_clean_linker_1, # of connection points: 2
#     Edge 38, Type (0, 0), BuildingBlock: KIFKEQ_clean_linker_1, # of connection points: 2
#     Edge 39, Type (0, 0), BuildingBlock: KIFKEQ_clean_linker_1, # of connection points: 2
#     Edge 40, Type (0, 0), BuildingBlock: KIFKEQ_clean_linker_1, # of connection points: 2
#     Edge 41, Type (0, 0), BuildingBlock: KIFKEQ_clean_linker_1, # of connection points: 2
#     Edge 42, Type (0, 0), BuildingBlock: KIFKEQ_clean_linker_1, # of connection points: 2
#     Edge 43, Type (0, 0), BuildingBlock: KIFKEQ_clean_linker_1, # of connection points: 2
#     Edge 44, Type (0, 0), BuildingBlock: KIFKEQ_clean_linker_1, # of connection points: 2
#     Edge 45, Type (0, 0), BuildingBlock: KIFKEQ_clean_linker_1, # of connection points: 2
#     Edge 46, Type (0, 0), BuildingBlock: KIFKEQ_clean_linker_1, # of connection points: 2
#     Edge 47, Type (0, 0), BuildingBlock: KIFKEQ_clean_linker_1, # of connection points: 2
# Relax obj value: 0.022
# Max RMSD: 0.075
# Mean RMSD: 0.075
data_MOF--net-uoy--node1-ICAMEG_clean_sbu_1--edge1-KIFKEQ_clean_linker_1
_symmetry_space_group_name_H-M    P1
_symmetry_Int_Tables_number       1
_symmetry_cell_setting            triclinic
loop_
_symmetry_equiv_pos_as_xyz
'x, y, z'
_cell_length_a     29.449289
_cell_length_b     29.515663
_cell_length_c     118.47535
_cell_angle_alpha  90.031405
_cell_angle_beta   90.035374
_cell_angle_gamma 89.944746
loop_
_atom_site_label
_atom_site_type_symbol
_atom_site_fract_x
_atom_site_fract_y
_atom_site_fract_z
_atom_type_partial_charge
Co0 Co 0.30254 0.16055 0.1913 0.0
Co1 Co 0.25612 0.05832 0.19926 0.0
O2 O 0.25338 0.11556 0.19076 0.0
C3 C 0.26952 0.16213 0.1669 0.0
O4 O 0.24086 0.12887 0.16861 0.0
C5 C 0.16635 0.05456 0.21062 0.0
O6 O 0.18822 0.05274 0.22028 0.0
O7 O 0.26667 0.0925 0.21362 0.0
O8 O 0.31287 0.1479 0.20768 0.0
H9 H 0.32035 0.95094 0.22805 0.0
H10 H 0.20938 0.18544 0.18348 0.0
O11 O 0.29497 0.17636 0.17485 0.0
H12 H 0.24437 0.29197 0.21429 0.0
H13 H 0.37928 0.30887 0.18238 0.0
H14 H 0.39424 0.16147 0.20161 0.0
H15 H 0.30005 0.2341 0.20856 0.0
H16 H 0.31655 0.25364 0.18195 0.0
O17 O 0.18833 0.06099 0.20147 0.0
H18 H 0.31631 0.02192 0.21714 0.0
H19 H 0.20078 0.97314 0.19943 0.0
H20 H 0.45763 0.21592 0.20235 0.0
H21 H 0.15305 0.24314 0.18881 0.0
H22 H 0.45037 0.29024 0.19268 0.0
H23 H 0.17029 0.297 0.20433 0.0
O24 O 0.34765 0.11315 0.18703 0.0
H25 H 0.17685 0.02527 0.16257 0.0
H26 H 0.30171 0.97993 0.18789 0.0
H27 H 0.2904 0.93896 0.17 0.0
H28 H 0.22743 0.96142 0.1572 0.0
H29 H 0.1899 0.06586 0.18047 0.0
H30 H 0.20356 0.90168 0.21017 0.0
H31 H 0.26369 0.89021 0.2246 0.0
O32 O 0.32325 0.05341 0.197 0.0
C33 C 0.29457 0.12474 0.21554 0.0
C34 C 0.29399 0.95554 0.22179 0.0
C35 C 0.22845 0.92788 0.21175 0.0
N36 N 0.25834 1.00176 0.20765 0.0
C37 C 0.29151 0.99567 0.21558 0.0
C38 C 0.22705 0.96844 0.2057 0.0
C39 C 0.26219 0.92147 0.21985 0.0
C40 C 0.2176 0.209 0.19011 0.0
N41 N 0.25849 0.20671 0.19554 0.0
C42 C 0.18534 0.24151 0.19316 0.0
C43 C 0.19498 0.27166 0.20188 0.0
C44 C 0.23652 0.26885 0.20747 0.0
C45 C 0.26793 0.2359 0.2042 0.0
C46 C 0.38282 0.27663 0.18664 0.0
C47 C 0.3907 0.19385 0.19744 0.0
C48 C 0.34746 0.24514 0.1864 0.0
N49 N 0.35158 0.20445 0.19182 0.0
C50 C 0.42676 0.2245 0.19786 0.0
C51 C 0.42269 0.26616 0.19243 0.0
C52 C 0.35336 0.07358 0.19113 0.0
C53 C 0.20441 0.01515 0.16807 0.0
C54 C 0.27465 0.99038 0.18232 0.0
C55 C 0.2682 0.96681 0.17222 0.0
C56 C 0.23283 0.97938 0.16506 0.0
N57 N 0.24667 0.0255 0.18522 0.0
C58 C 0.21189 0.03793 0.17824 0.0
Co59 Co 0.85348 0.79469 0.44162 0.0
Co60 Co 0.95845 0.75542 0.44947 0.0
O61 O 0.90084 0.74726 0.44116 0.0
C62 C 0.84789 0.7569 0.41763 0.0
O63 O 0.88238 0.72937 0.41911 0.0
C64 C 0.93697 0.656 0.45327 0.0
O65 O 0.89314 0.66213 0.45198 0.0
O66 O 0.92391 0.76329 0.46383 0.0
O67 O 0.86915 0.80978 0.45765 0.0
H68 H 0.06062 0.83239 0.47753 0.0
H69 H 0.82877 0.70023 0.43505 0.0
O70 O 0.83453 0.78284 0.42556 0.0
H71 H 0.73149 0.73668 0.46763 0.0
H72 H 0.69937 0.8623 0.43385 0.0
H73 H 0.85072 0.88876 0.4504 0.0
H74 H 0.78585 0.79285 0.46033 0.0
H75 H 0.75754 0.80219 0.43355 0.0
O76 O 0.96437 0.68906 0.45247 0.0
H77 H 0.98998 0.82107 0.46672 0.0
H78 H 0.04786 0.70716 0.45015 0.0
H79 H 0.7934 0.94966 0.45097 0.0
H80 H 0.77442 0.64342 0.44195 0.0
H81 H 0.71708 0.93661 0.44265 0.0
H82 H 0.7253 0.66139 0.45839 0.0
O83 O 0.89786 0.84034 0.43603 0.0
H84 H 0.99413 0.67805 0.41275 0.0
H85 H 0.03434 0.80466 0.43795 0.0
H86 H 0.07497 0.79555 0.41993 0.0
H87 H 0.05504 0.73173 0.40719 0.0
H88 H 0.95394 0.68892 0.4308 0.0
H89 H 0.11895 0.71704 0.46085 0.0
H90 H 0.12575 0.78014 0.47463 0.0
O91 O 0.95735 0.82217 0.44682 0.0
C92 C 0.89176 0.79144 0.46561 0.0
C93 C 0.0581 0.80481 0.47154 0.0
C94 C 0.09082 0.74004 0.46219 0.0
N95 N 0.01476 0.76357 0.45778 0.0
C96 C 0.01819 0.79825 0.46538 0.0
C97 C 0.05039 0.73453 0.45618 0.0
C98 C 0.09462 0.77546 0.46991 0.0
C99 C 0.80711 0.70875 0.44206 0.0
N100 N 0.81016 0.75021 0.44713 0.0
C101 C 0.77656 0.67623 0.446 0.0
C102 C 0.74909 0.68629 0.45524 0.0
C103 C 0.75257 0.7285 0.46043 0.0
C104 C 0.78352 0.76015 0.45626 0.0
C105 C 0.73247 0.86837 0.43752 0.0
C106 C 0.81751 0.88271 0.44682 0.0
C107 C 0.76561 0.83448 0.43735 0.0
N108 N 0.80743 0.84181 0.44203 0.0
C109 C 0.78523 0.91737 0.44714 0.0
C110 C 0.74243 0.91005 0.44247 0.0
C111 C 0.93666 0.84927 0.44023 0.0
C112 C 1.00311 0.70603 0.41822 0.0
C113 C 0.02503 0.77722 0.43241 0.0
C114 C 0.04838 0.77202 0.42224 0.0
C115 C 0.03724 0.73618 0.4151 0.0
N116 N 0.99149 0.7476 0.43541 0.0
C117 C 0.98051 0.7123 0.42847 0.0
Co118 Co 0.20583 0.35024 0.69194 0.0
Co119 Co 0.25311 0.44747 0.7023 0.0
O120 O 0.25596 0.39422 0.69236 0.0
C121 C 0.19117 0.3391 0.66732 0.0
O122 O 0.14972 0.35416 0.66896 0.0
C123 C 0.35314 0.42131 0.70177 0.0
O124 O 0.34497 0.38383 0.69617 0.0
O125 O 0.24454 0.40673 0.71553 0.0
O126 O 0.19179 0.36011 0.7084 0.0
H127 H 0.18706 0.53992 0.73393 0.0
H128 H 0.2961 0.32108 0.68357 0.0
O129 O 0.21935 0.3381 0.67552 0.0
H130 H 0.26023 0.21678 0.71481 0.0
H131 H 0.13021 0.20319 0.68117 0.0
H132 H 0.1113 0.35006 0.70047 0.0
H133 H 0.20622 0.27664 0.70931 0.0
H134 H 0.19349 0.25773 0.68204 0.0
O135 O 0.32067 0.44703 0.70484 0.0
H136 H 0.19156 0.47498 0.72088 0.0
H137 H 0.30876 0.53133 0.70544 0.0
H138 H 0.04717 0.29645 0.69983 0.0
H139 H 0.35084 0.26127 0.68871 0.0
H140 H 0.05641 0.2224 0.69013 0.0
H141 H 0.3331 0.20867 0.70445 0.0
O142 O 0.16295 0.40006 0.68781 0.0
H143 H 0.32279 0.49501 0.66535 0.0
H144 H 0.20859 0.5325 0.69429 0.0
H145 H 0.21691 0.58191 0.67768 0.0
H146 H 0.27456 0.56347 0.66309 0.0
H147 H 0.3129 0.4462 0.68199 0.0
H148 H 0.30574 0.59665 0.71839 0.0
H149 H 0.24443 0.60135 0.73273 0.0
O150 O 0.18588 0.45214 0.70025 0.0
C151 C 0.21336 0.37709 0.71675 0.0
C152 C 0.21387 0.53831 0.7277 0.0
C153 C 0.28051 0.57012 0.71899 0.0
N154 N 0.25022 0.49941 0.71236 0.0
C155 C 0.21655 0.50165 0.72027 0.0
C156 C 0.28212 0.53295 0.7117 0.0
C157 C 0.24609 0.57275 0.72703 0.0
C158 C 0.28801 0.29819 0.6904 0.0
N159 N 0.24804 0.3025 0.69614 0.0
C160 C 0.3192 0.26444 0.69328 0.0
C161 C 0.30925 0.23498 0.70212 0.0
C162 C 0.2684 0.23954 0.70795 0.0
C163 C 0.23803 0.27369 0.70483 0.0
C164 C 0.12577 0.23533 0.68543 0.0
C165 C 0.11561 0.31788 0.69625 0.0
C166 C 0.16147 0.26637 0.68595 0.0
N167 N 0.15613 0.30704 0.69133 0.0
C168 C 0.07917 0.28767 0.69591 0.0
C169 C 0.08438 0.24613 0.69046 0.0
C170 C 0.15717 0.43721 0.69312 0.0
C171 C 0.29779 0.5036 0.6717 0.0
C172 C 0.23376 0.52414 0.68799 0.0
C173 C 0.23833 0.55232 0.6786 0.0
C174 C 0.27067 0.54196 0.67042 0.0
N175 N 0.26083 0.4868 0.68927 0.0
C176 C 0.29224 0.47619 0.6812 0.0
Co177 Co 0.67171 0.70934 0.94335 0.0
Co178 Co 0.57004 0.75592 0.95093 0.0
O179 O 0.62758 0.75955 0.94253 0.0
C180 C 0.67002 0.72847 0.91851 0.0
O181 O 0.6255 0.73063 0.91879 0.0
C182 C 0.59445 0.85622 0.95153 0.0
O183 O 0.63432 0.84957 0.94688 0.0
O184 O 0.60472 0.74764 0.96525 0.0
O185 O 0.65412 0.69519 0.95931 0.0
H186 H 0.46466 0.68797 0.97965 0.0
H187 H 0.70376 0.7997 0.93605 0.0
O188 O 0.6924 0.72139 0.92752 0.0
H189 H 0.79392 0.76324 0.96994 0.0
H190 H 0.82244 0.63327 0.93647 0.0
H191 H 0.66827 0.61518 0.95203 0.0
H192 H 0.73722 0.70924 0.96266 0.0
H193 H 0.76782 0.69658 0.93591 0.0
O194 O 0.56827 0.82301 0.95364 0.0
H195 H 0.53521 0.69371 0.96856 0.0
H196 H 0.48414 0.8101 0.95169 0.0
H197 H 0.72195 0.55112 0.95285 0.0
H198 H 0.76049 0.85454 0.94298 0.0
H199 H 0.79967 0.55993 0.94503 0.0
H200 H 0.80596 0.83647 0.96007 0.0
O201 O 0.6247 0.66633 0.93768 0.0
H202 H 0.53805 0.82679 0.9131 0.0
H203 H 0.49014 0.71025 0.94038 0.0
H204 H 0.44857 0.71844 0.92245 0.0
H205 H 0.4723 0.77722 0.90868 0.0
H206 H 0.57905 0.81699 0.93104 0.0
H207 H 0.41323 0.80582 0.96268 0.0
H208 H 0.40305 0.7443 0.97675 0.0
O209 O 0.56736 0.68894 0.94868 0.0
C210 C 0.63389 0.71661 0.96719 0.0
C211 C 0.46865 0.71487 0.97353 0.0
C212 C 0.43981 0.78104 0.96401 0.0
N213 N 0.51378 0.75205 0.95944 0.0
C214 C 0.50851 0.71826 0.96721 0.0
C215 C 0.48013 0.78336 0.95784 0.0
C216 C 0.43411 0.74651 0.9719 0.0
C217 C 0.72357 0.79153 0.94346 0.0
N218 N 0.71708 0.75139 0.94895 0.0
C219 C 0.75557 0.82274 0.94736 0.0
C220 C 0.78104 0.8126 0.95695 0.0
C221 C 0.77427 0.77154 0.9625 0.0
C222 C 0.74196 0.74118 0.95836 0.0
C223 C 0.78869 0.62902 0.93991 0.0
C224 C 0.70208 0.61937 0.94865 0.0
C225 C 0.75755 0.66472 0.93959 0.0
N226 N 0.71492 0.65968 0.94397 0.0
C227 C 0.73231 0.58293 0.94912 0.0
C228 C 0.7759 0.58789 0.94472 0.0
C229 C 0.58566 0.66017 0.94207 0.0
C230 C 0.52716 0.80127 0.91907 0.0
C231 C 0.50079 0.73589 0.93444 0.0
C232 C 0.47704 0.7404 0.9243 0.0
C233 C 0.49035 0.77339 0.91658 0.0
N234 N 0.53668 0.76361 0.93689 0.0
C235 C 0.55009 0.79579 0.92931 0.0
Co236 Co 0.3033 0.34722 0.07033 0.0
Co237 Co 0.25863 0.44898 0.06185 0.0
O238 O 0.25443 0.39301 0.0709 0.0
C239 C 0.2691 0.34447 0.09463 0.0
O240 O 0.24119 0.37851 0.09303 0.0
C241 C 0.1576 0.42712 0.06265 0.0
O242 O 0.16431 0.38992 0.06848 0.0
O243 O 0.26509 0.41181 0.04788 0.0
O244 O 0.31584 0.36113 0.05404 0.0
H245 H 0.32731 0.54789 0.03188 0.0
H246 H 0.21096 0.31959 0.07804 0.0
O247 O 0.2942 0.33006 0.08664 0.0
H248 H 0.24572 0.22051 0.0457 0.0
H249 H 0.37746 0.19698 0.0787 0.0
H250 H 0.39641 0.34656 0.06081 0.0
H251 H 0.3011 0.27746 0.05211 0.0
H252 H 0.31525 0.25292 0.07905 0.0
O253 O 0.19097 0.4512 0.05938 0.0
H254 H 0.32098 0.47969 0.04378 0.0
H255 H 0.20505 0.53491 0.06011 0.0
H256 H 0.45934 0.29147 0.06019 0.0
H257 H 0.1549 0.26279 0.07201 0.0
H258 H 0.45008 0.21604 0.06918 0.0
H259 H 0.17204 0.21271 0.0557 0.0
O260 O 0.34781 0.39388 0.07514 0.0
H261 H 0.19099 0.49112 0.09955 0.0
H262 H 0.30632 0.53003 0.07108 0.0
H263 H 0.30046 0.57578 0.08838 0.0
H264 H 0.24226 0.55663 0.10276 0.0
H265 H 0.19856 0.44595 0.08225 0.0
H266 H 0.20989 0.60347 0.04831 0.0
H267 H 0.27149 0.6104 0.0341 0.0
O268 O 0.32637 0.4509 0.06388 0.0
C269 C 0.29466 0.38107 0.04608 0.0
C270 C 0.30039 0.54533 0.03806 0.0
C271 C 0.23445 0.5765 0.04727 0.0
N272 N 0.26289 0.50338 0.05269 0.0
C273 C 0.2967 0.50683 0.04485 0.0
C274 C 0.23181 0.5375 0.05391 0.0
C275 C 0.26904 0.58037 0.0393 0.0
C276 C 0.21902 0.29775 0.07104 0.0
N277 N 0.25956 0.30175 0.06554 0.0
C278 C 0.18697 0.2657 0.06761 0.0
C279 C 0.19657 0.23767 0.05845 0.0
C280 C 0.23788 0.24205 0.05284 0.0
C281 C 0.26908 0.27449 0.0565 0.0
C282 C 0.38188 0.22969 0.07473 0.0
C283 C 0.39199 0.31372 0.06468 0.0
C284 C 0.3468 0.26156 0.07492 0.0
N285 N 0.35203 0.30288 0.06987 0.0
C286 C 0.42781 0.2827 0.06433 0.0
C287 C 0.4226 0.24041 0.06939 0.0
C288 C 0.35498 0.43216 0.0705 0.0
C289 C 0.21636 0.49996 0.09332 0.0
C290 C 0.28111 0.52115 0.07729 0.0
C291 C 0.27784 0.54737 0.08708 0.0
C292 C 0.24518 0.53664 0.09513 0.0
N293 N 0.25259 0.48528 0.07552 0.0
C294 C 0.22065 0.47454 0.08343 0.0
Co295 Co 0.65651 0.7936 0.32226 0.0
Co296 Co 0.55012 0.7552 0.31427 0.0
O297 O 0.60824 0.74699 0.32243 0.0
C298 C 0.65799 0.75777 0.34646 0.0
O299 O 0.62344 0.73054 0.34481 0.0
C300 C 0.57422 0.65667 0.30978 0.0
O301 O 0.61706 0.66264 0.31242 0.0
O302 O 0.58321 0.76818 0.29991 0.0
O303 O 0.64359 0.80725 0.30607 0.0
H304 H 0.44394 0.83622 0.28788 0.0
H305 H 0.67811 0.69917 0.3296 0.0
O306 O 0.67272 0.78295 0.33854 0.0
H307 H 0.78196 0.7305 0.29799 0.0
H308 H 0.81053 0.85887 0.33121 0.0
H309 H 0.66276 0.88641 0.31284 0.0
H310 H 0.72754 0.78844 0.30438 0.0
H311 H 0.75116 0.80003 0.33131 0.0
O312 O 0.54639 0.68958 0.31009 0.0
H313 H 0.5154 0.82444 0.29833 0.0
H314 H 0.46262 0.70395 0.31287 0.0
H315 H 0.72136 0.946 0.31246 0.0
H316 H 0.73253 0.64065 0.32365 0.0
H317 H 0.79588 0.93241 0.32169 0.0
H318 H 0.78495 0.65599 0.3077 0.0
O319 O 0.61257 0.84122 0.32717 0.0
H320 H 0.51804 0.66716 0.34969 0.0
H321 H 0.4733 0.79894 0.32671 0.0
H322 H 0.43327 0.78374 0.34455 0.0
H323 H 0.45545 0.71726 0.35617 0.0
H324 H 0.55762 0.68413 0.33188 0.0
H325 H 0.39078 0.71425 0.3025 0.0
H326 H 0.381 0.78087 0.28992 0.0
O327 O 0.54929 0.82074 0.31805 0.0
C328 C 0.61775 0.79336 0.29817 0.0
C329 C 0.44775 0.8071 0.29335 0.0
C330 C 0.41794 0.73862 0.30154 0.0
N331 N 0.49319 0.76366 0.30625 0.0
C332 C 0.48812 0.80029 0.29931 0.0
C333 C 0.45878 0.73291 0.30737 0.0
C334 C 0.41247 0.77602 0.29449 0.0
C335 C 0.70116 0.70659 0.3228 0.0
N336 N 0.69977 0.74757 0.31746 0.0
C337 C 0.73177 0.67308 0.3194 0.0
C338 C 0.76108 0.68166 0.31043 0.0
C339 C 0.75938 0.72341 0.30497 0.0
C340 C 0.7283 0.75607 0.3086 0.0
C341 C 0.77822 0.86517 0.32714 0.0
C342 C 0.69519 0.88012 0.31682 0.0
C343 C 0.74441 0.83202 0.32719 0.0
N344 N 0.70359 0.83964 0.32202 0.0
C345 C 0.7282 0.91405 0.3166 0.0
C346 C 0.76998 0.90642 0.3218 0.0
C347 C 0.57223 0.84904 0.32378 0.0
C348 C 0.50801 0.69621 0.3447 0.0
C349 C 0.48356 0.77034 0.33176 0.0
C350 C 0.46055 0.7617 0.34184 0.0
C351 C 0.47296 0.72436 0.34834 0.0
N352 N 0.51794 0.74259 0.32824 0.0
C353 C 0.53022 0.7059 0.33457 0.0
Co354 Co 0.221 0.16746 0.5696 0.0
Co355 Co 0.24424 0.05781 0.56241 0.0
O356 O 0.25886 0.11299 0.57099 0.0
C357 C 0.22586 0.16249 0.59489 0.0
O358 O 0.21308 0.11988 0.59456 0.0
C359 C 0.34468 0.06593 0.55873 0.0
O360 O 0.33987 0.10926 0.55653 0.0
O361 O 0.24666 0.09233 0.54791 0.0
O362 O 0.20828 0.15419 0.5533 0.0
H363 H 0.16238 0.96764 0.5327 0.0
H364 H 0.31424 0.17522 0.57865 0.0
O365 O 0.23256 0.18424 0.58576 0.0
H366 H 0.31128 0.27402 0.5451 0.0
H367 H 0.18077 0.33152 0.57591 0.0
H368 H 0.13163 0.18672 0.55912 0.0
H369 H 0.24273 0.2324 0.55097 0.0
H370 H 0.22914 0.26353 0.57732 0.0
O371 O 0.31025 0.04195 0.56122 0.0
H372 H 0.18032 0.03597 0.5438 0.0
H373 H 0.27851 0.96253 0.56268 0.0
H374 H 0.08242 0.25401 0.5574 0.0
H375 H 0.38354 0.21664 0.57315 0.0
H376 H 0.10689 0.32706 0.56584 0.0
H377 H 0.38234 0.26638 0.55625 0.0
O378 O 0.1663 0.13188 0.57415 0.0
H379 H 0.29922 0.01206 0.6009 0.0
H380 H 0.17785 0.99314 0.5726 0.0
H381 H 0.17246 0.95286 0.59077 0.0
H382 H 0.23351 0.9621 0.60506 0.0
H383 H 0.30304 0.05209 0.58265 0.0
H384 H 0.26186 0.89349 0.55172 0.0
H385 H 0.20331 0.89572 0.53663 0.0
O386 O 0.17776 0.07035 0.56342 0.0
C387 C 0.22401 0.12814 0.54564 0.0
C388 C 0.18793 0.96622 0.53926 0.0
C389 C 0.24381 0.92462 0.54992 0.0
N390 N 0.2304 1.0033 0.5539 0.0
C391 C 0.1982 0.0048 0.54559 0.0
C392 C 0.2532 0.96389 0.55608 0.0
C393 C 0.21093 0.92589 0.54146 0.0
C394 C 0.31341 0.19706 0.57133 0.0
N395 N 0.27448 0.2014 0.56514 0.0
C396 C 0.35277 0.22031 0.56824 0.0
C397 C 0.35209 0.24816 0.55875 0.0
C398 C 0.31225 0.25243 0.55248 0.0
C399 C 0.27356 0.22862 0.55582 0.0
C400 C 0.16971 0.29987 0.5722 0.0
C401 C 0.14259 0.21841 0.56279 0.0
C402 C 0.19688 0.2612 0.57302 0.0
N403 N 0.18324 0.22116 0.56831 0.0
C404 C 0.11455 0.25639 0.5618 0.0
C405 C 0.12828 0.29736 0.56654 0.0
C406 C 0.15253 0.09537 0.56952 0.0
C407 C 0.27248 0.00765 0.59473 0.0
C408 C 0.20451 0.99745 0.57878 0.0
C409 C 0.2013 0.97447 0.58905 0.0
C410 C 0.23557 0.97967 0.59706 0.0
N411 N 0.24088 0.02477 0.57654 0.0
C412 C 0.27454 0.0301 0.58436 0.0
Co413 Co 0.83431 0.70832 0.81924 0.0
Co414 Co 0.94055 0.74288 0.81131 0.0
O415 O 0.8843 0.75252 0.82001 0.0
C416 C 0.84065 0.7236 0.84427 0.0
O417 O 0.8851 0.72058 0.84381 0.0
C418 C 0.92298 0.84396 0.80954 0.0
O419 O 0.87998 0.83877 0.8121 0.0
O420 O 0.90473 0.73892 0.79706 0.0
O421 O 0.84812 0.69442 0.80303 0.0
H422 H 0.03696 0.66579 0.78203 0.0
H423 H 0.81422 0.80066 0.82763 0.0
O424 O 0.81707 0.72057 0.83531 0.0
H425 H 0.71606 0.7807 0.79427 0.0
H426 H 0.67618 0.65048 0.82668 0.0
H427 H 0.82514 0.61583 0.80974 0.0
H428 H 0.7668 0.71923 0.80053 0.0
H429 H 0.73821 0.70644 0.82734 0.0
O430 O 0.9493 0.8098 0.80893 0.0
H431 H 0.96775 0.67855 0.79328 0.0
H432 H 0.03171 0.78726 0.81059 0.0
H433 H 0.76389 0.55906 0.80879 0.0
H434 H 0.76338 0.86283 0.82178 0.0
H435 H 0.68876 0.57622 0.81731 0.0
H436 H 0.71398 0.85313 0.80495 0.0
O437 O 0.87634 0.65908 0.82423 0.0
H438 H 0.98291 0.81017 0.84884 0.0
H439 H 0.0136 0.68669 0.82184 0.0
H440 H 0.05616 0.68975 0.83975 0.0
H441 H 0.04104 0.75192 0.85338 0.0
H442 H 0.94076 0.80552 0.83089 0.0
H443 H 0.10148 0.77589 0.79945 0.0
H444 H 0.10448 0.71467 0.78508 0.0
O445 O 0.93583 0.67571 0.81323 0.0
C446 C 0.87145 0.71231 0.79514 0.0
C447 C 0.03612 0.69249 0.78829 0.0
C448 C 0.0723 0.75431 0.79806 0.0
N449 N 0.99572 0.7334 0.80265 0.0
C450 C 0.99705 0.69981 0.79471 0.0
C451 C 0.03265 0.76065 0.80433 0.0
C452 C 0.07397 0.71995 0.79 0.0
C453 C 0.79258 0.79607 0.82035 0.0
N454 N 0.79373 0.75643 0.8144 0.0
C455 C 0.76397 0.83144 0.81705 0.0
C456 C 0.73632 0.826 0.8076 0.0
C457 C 0.73753 0.78541 0.80159 0.0
C458 C 0.76658 0.7508 0.80514 0.0
C459 C 0.70877 0.64259 0.82294 0.0
C460 C 0.79252 0.62363 0.81344 0.0
C461 C 0.74409 0.67409 0.82333 0.0
N462 N 0.78529 0.66447 0.81858 0.0
C463 C 0.75797 0.59131 0.81289 0.0
C464 C 0.71584 0.60095 0.81767 0.0
C465 C 0.91392 0.64859 0.81957 0.0
C466 C 0.98997 0.78304 0.84294 0.0
C467 C 0.00672 0.71381 0.82773 0.0
C468 C 0.03101 0.7154 0.83785 0.0
C469 C 0.02252 0.7503 0.84549 0.0
N470 N 0.97499 0.74618 0.82526 0.0
C471 C 0.96637 0.78038 0.83274 0.0
Co472 Co 0.78723 0.66719 0.69101 0.0
Co473 Co 0.76459 0.55752 0.6982 0.0
O474 O 0.74958 0.61265 0.68969 0.0
C475 C 0.78072 0.66241 0.66573 0.0
O476 O 0.79574 0.6205 0.6659 0.0
C477 C 0.6647 0.56608 0.70235 0.0
O478 O 0.67008 0.60924 0.70468 0.0
O479 O 0.7627 0.59208 0.71268 0.0
O480 O 0.80078 0.65398 0.70725 0.0
H481 H 0.84783 0.46732 0.72766 0.0
H482 H 0.69329 0.67432 0.68232 0.0
O483 O 0.77435 0.68381 0.67492 0.0
H484 H 0.69783 0.77387 0.71574 0.0
H485 H 0.8265 0.83119 0.6844 0.0
H486 H 0.87673 0.68703 0.70135 0.0
H487 H 0.76626 0.73245 0.70963 0.0
H488 H 0.77852 0.76298 0.68312 0.0
O489 O 0.69866 0.54188 0.69957 0.0
H490 H 0.82933 0.53566 0.71663 0.0
H491 H 0.73031 0.46233 0.69802 0.0
H492 H 0.92555 0.75455 0.70294 0.0
H493 H 0.62411 0.71552 0.68805 0.0
H494 H 0.90053 0.82729 0.69442 0.0
H495 H 0.62609 0.76562 0.7049 0.0
O496 O 0.84207 0.63175 0.68633 0.0
H497 H 0.70801 0.51174 0.65985 0.0
H498 H 0.83063 0.49281 0.68783 0.0
H499 H 0.83527 0.45247 0.66964 0.0
H500 H 0.7736 0.46172 0.65551 0.0
H501 H 0.70493 0.5518 0.67812 0.0
H502 H 0.74751 0.39327 0.70892 0.0
H503 H 0.80677 0.39545 0.72384 0.0
O504 O 0.83096 0.57005 0.69702 0.0
C505 C 0.7852 0.62796 0.71492 0.0
C506 C 0.82199 0.46592 0.72117 0.0
C507 C 0.76564 0.42438 0.71067 0.0
N508 N 0.77883 0.50302 0.70667 0.0
C509 C 0.8114 0.50451 0.71488 0.0
C510 C 0.75594 0.46364 0.70455 0.0
C511 C 0.79891 0.42562 0.71903 0.0
C512 C 0.69448 0.69631 0.68961 0.0
N513 N 0.73379 0.70096 0.69563 0.0
C514 C 0.65518 0.71945 0.69284 0.0
C515 C 0.65629 0.7475 0.7023 0.0
C516 C 0.69652 0.75211 0.70839 0.0
C517 C 0.73514 0.72841 0.70492 0.0
C518 C 0.83779 0.79969 0.68815 0.0
C519 C 0.86551 0.71858 0.69765 0.0
C520 C 0.81083 0.76089 0.68741 0.0
N521 N 0.82475 0.72103 0.69217 0.0
C522 C 0.89335 0.75669 0.69856 0.0
C523 C 0.8793 0.79748 0.69378 0.0
C524 C 0.85609 0.59531 0.69096 0.0
C525 C 0.73502 0.50732 0.66595 0.0
C526 C 0.80369 0.49712 0.68172 0.0
C527 C 0.80648 0.47411 0.67144 0.0
C528 C 0.77186 0.4793 0.66352 0.0
N529 N 0.76738 0.52445 0.68406 0.0
C530 C 0.73338 0.52979 0.67632 0.0
Co531 Co 0.35369 0.29555 0.94163 0.0
Co532 Co 0.4579 0.26597 0.95171 0.0
O533 O 0.40632 0.25466 0.94154 0.0
C534 C 0.33981 0.3146 0.9174 0.0
O535 O 0.34705 0.35725 0.91998 0.0
C536 C 0.44539 0.16524 0.95387 0.0
O537 O 0.40117 0.1702 0.95459 0.0
O538 O 0.41624 0.26278 0.96495 0.0
O539 O 0.361 0.30764 0.95827 0.0
H540 H 0.5358 0.33942 0.98475 0.0
H541 H 0.34311 0.20327 0.93224 0.0
O542 O 0.34396 0.28404 0.92498 0.0
H543 H 0.23262 0.21249 0.96341 0.0
H544 H 0.19454 0.34478 0.93171 0.0
H545 H 0.3362 0.3864 0.95134 0.0
H546 H 0.28098 0.27794 0.95872 0.0
H547 H 0.26003 0.29265 0.93181 0.0
O548 O 0.47093 0.19961 0.95272 0.0
H549 H 0.47263 0.32574 0.97153 0.0
H550 H 0.55185 0.22853 0.95387 0.0
H551 H 0.27146 0.43946 0.95149 0.0
H552 H 0.295 0.13714 0.93656 0.0
H553 H 0.19999 0.41876 0.94162 0.0
H554 H 0.23934 0.14149 0.95227 0.0
O555 O 0.39502 0.34724 0.93814 0.0
H556 H 0.51988 0.21452 0.91434 0.0
H557 H 0.5304 0.33027 0.94426 0.0
H558 H 0.57985 0.33605 0.92754 0.0
H559 H 0.57489 0.2778 0.91245 0.0
H560 H 0.47066 0.21032 0.93116 0.0
H561 H 0.61574 0.24087 0.96696 0.0
H562 H 0.60801 0.29681 0.98252 0.0
O563 O 0.44867 0.33296 0.95097 0.0
C564 C 0.38178 0.28841 0.96645 0.0
C565 C 0.5396 0.31499 0.978 0.0
C566 C 0.58444 0.25964 0.96803 0.0
N567 N 0.50849 0.2764 0.96192 0.0
C568 C 0.50395 0.30713 0.97048 0.0
C569 C 0.54806 0.25266 0.96066 0.0
C570 C 0.58009 0.29105 0.97675 0.0
C571 C 0.31867 0.20554 0.93901 0.0
N572 N 0.3147 0.2445 0.94517 0.0
C573 C 0.29165 0.16794 0.94145 0.0
C574 C 0.26048 0.17038 0.95028 0.0
C575 C 0.25671 0.21019 0.95654 0.0
C576 C 0.28431 0.2471 0.95386 0.0
C577 C 0.22547 0.35416 0.93605 0.0
C578 C 0.30518 0.3771 0.94705 0.0
C579 C 0.26267 0.32479 0.93614 0.0
N580 N 0.30188 0.33641 0.94161 0.0
C581 C 0.26865 0.4073 0.94715 0.0
C582 C 0.22856 0.39567 0.94161 0.0
C583 C 0.42981 0.35902 0.94381 0.0
C584 C 0.52242 0.24006 0.92087 0.0
C585 C 0.52785 0.3049 0.93771 0.0
C586 C 0.55604 0.30829 0.92827 0.0
C587 C 0.55325 0.27559 0.91981 0.0
N588 N 0.49776 0.26987 0.9387 0.0
C589 C 0.49473 0.23778 0.93042 0.0
Co590 Co 0.71238 0.83534 0.19489 0.0
Co591 Co 0.75309 0.94122 0.20201 0.0
O592 O 0.75974 0.88244 0.19426 0.0
C593 C 0.73003 0.83961 0.16998 0.0
O594 O 0.72915 0.88407 0.17037 0.0
C595 C 0.85297 0.91684 0.20491 0.0
O596 O 0.84703 0.87617 0.2007 0.0
O597 O 0.73993 0.90998 0.21663 0.0
O598 O 0.6978 0.85116 0.21085 0.0
H599 H 0.67478 0.05191 0.22772 0.0
H600 H 0.80429 0.80938 0.18708 0.0
O601 O 0.72514 0.81651 0.17896 0.0
H602 H 0.77622 0.71577 0.22081 0.0
H603 H 0.64654 0.68052 0.18762 0.0
H604 H 0.61847 0.83185 0.20385 0.0
H605 H 0.71807 0.76918 0.21396 0.0
H606 H 0.706 0.73923 0.1871 0.0
O607 O 0.8195 0.94382 0.20605 0.0
H608 H 0.68462 0.9793 0.21771 0.0
H609 H 0.80697 0.02705 0.20293 0.0
H610 H 0.5582 0.77401 0.20463 0.0
H611 H 0.8632 0.75585 0.19353 0.0
H612 H 0.57204 0.69771 0.19647 0.0
H613 H 0.8494 0.70871 0.21054 0.0
O614 O 0.66547 0.8792 0.18949 0.0
H615 H 0.83619 0.96533 0.16536 0.0
H616 H 0.71112 0.01867 0.18959 0.0
H617 H 0.72503 0.05632 0.17138 0.0
H618 H 0.78813 0.02983 0.15913 0.0
H619 H 0.82066 0.92829 0.18354 0.0
H620 H 0.79865 0.09998 0.21287 0.0
H621 H 0.73207 0.11287 0.22533 0.0
O622 O 0.68698 0.94279 0.19833 0.0
C623 C 0.71295 0.87703 0.21859 0.0
C624 C 0.70388 0.04675 0.22229 0.0
C625 C 0.77343 0.0737 0.21397 0.0
N626 N 0.74617 0.99897 0.20969 0.0
C627 C 0.70958 0.00573 0.21658 0.0
C628 C 0.77802 0.03225 0.20839 0.0
C629 C 0.73606 0.08092 0.22096 0.0
C630 C 0.79793 0.78879 0.19445 0.0
N631 N 0.75787 0.79267 0.20018 0.0
C632 C 0.83146 0.75863 0.19808 0.0
C633 C 0.82373 0.73224 0.20763 0.0
C634 C 0.78271 0.73624 0.21341 0.0
C635 C 0.74999 0.76679 0.20954 0.0
C636 C 0.64009 0.71364 0.1912 0.0
C637 C 0.62483 0.79868 0.20031 0.0
C638 C 0.67359 0.74708 0.1909 0.0
N639 N 0.66578 0.78893 0.19546 0.0
C640 C 0.59054 0.76609 0.20077 0.0
C641 C 0.59832 0.7233 0.19618 0.0
C642 C 0.65815 0.91981 0.19272 0.0
C643 C 0.80878 0.9774 0.17066 0.0
C644 C 0.73855 0.00681 0.18432 0.0
C645 C 0.74634 0.02836 0.17401 0.0
C646 C 0.78175 0.01351 0.16715 0.0
N647 N 0.76542 0.97161 0.18776 0.0
C648 C 0.80001 0.95671 0.18103 0.0
Co649 Co 0.16818 0.21015 0.44143 0.0
Co650 Co 0.0622 0.24806 0.44978 0.0
O651 O 0.11956 0.25645 0.44135 0.0
C652 C 0.16757 0.24557 0.41721 0.0
O653 O 0.13271 0.27227 0.41903 0.0
C654 C 0.08489 0.34744 0.45336 0.0
O655 O 0.12741 0.3418 0.45038 0.0
O656 O 0.09678 0.23679 0.46403 0.0
O657 O 0.15615 0.19656 0.45771 0.0
H658 H 0.9596 0.16787 0.47712 0.0
H659 H 0.18924 0.30436 0.4339 0.0
O660 O 0.18346 0.22075 0.42508 0.0
H661 H 0.29404 0.2741 0.46542 0.0
H662 H 0.32214 0.14551 0.43211 0.0
H663 H 0.1754 0.11742 0.45086 0.0
H664 H 0.23964 0.21589 0.45922 0.0
H665 H 0.26242 0.2041 0.43215 0.0
O666 O 0.05775 0.31401 0.45362 0.0
H667 H 0.02996 0.17972 0.46625 0.0
H668 H 0.974 0.29819 0.45134 0.0
H669 H 0.23437 0.05806 0.4511 0.0
H670 H 0.24361 0.36314 0.43967 0.0
H671 H 0.30838 0.07193 0.44167 0.0
H672 H 0.29651 0.34833 0.45558 0.0
O673 O 0.12425 0.1625 0.43665 0.0
H674 H 0.0257 0.33253 0.41405 0.0
H675 H 0.98485 0.20241 0.438 0.0
H676 H 0.94299 0.21555 0.4203 0.0
H677 H 0.96319 0.28119 0.4082 0.0
H678 H 0.06716 0.31759 0.43172 0.0
H679 H 0.90324 0.28781 0.46213 0.0
H680 H 0.89562 0.22216 0.4751 0.0
O681 O 0.06205 0.18208 0.44633 0.0
C682 C 0.13128 0.21141 0.4657 0.0
C683 C 0.96248 0.19656 0.47148 0.0
C684 C 0.93087 0.2639 0.46308 0.0
N685 N 0.0061 0.2395 0.45813 0.0
C686 C 1.00221 0.20341 0.46528 0.0
C687 C 0.97111 0.26967 0.45702 0.0
C688 C 0.92661 0.22705 0.47035 0.0
C689 C 0.21248 0.29719 0.44068 0.0
N690 N 0.21138 0.25637 0.4461 0.0
C691 C 0.24307 0.33084 0.44398 0.0
C692 C 0.27265 0.32256 0.45293 0.0
C693 C 0.27125 0.28095 0.45846 0.0
C694 C 0.24019 0.24814 0.45493 0.0
C695 C 0.29007 0.13909 0.43626 0.0
C696 C 0.20761 0.12383 0.44679 0.0
C697 C 0.25606 0.1721 0.43629 0.0
N698 N 0.21553 0.16432 0.44157 0.0
C699 C 0.24083 0.09003 0.44693 0.0
C700 C 0.28233 0.09782 0.44163 0.0
C701 C 0.08449 0.15418 0.44034 0.0
C702 C 0.01654 0.30383 0.41926 0.0
C703 C 0.9943 0.23063 0.43273 0.0
C704 C 0.97024 0.23811 0.42274 0.0
C705 C 0.98153 0.27498 0.41597 0.0
N706 N 0.02864 0.25904 0.43591 0.0
C707 C 0.03981 0.29528 0.42931 0.0
Co708 Co 0.80715 0.84914 0.56911 0.0
Co709 Co 0.75559 0.94661 0.5603 0.0
O710 O 0.7546 0.89089 0.5695 0.0
C711 C 0.77551 0.84624 0.59353 0.0
O712 O 0.75277 0.88424 0.5925 0.0
C713 C 0.65568 0.91903 0.56058 0.0
O714 O 0.66382 0.88119 0.56603 0.0
O715 O 0.76455 0.90919 0.54646 0.0
O716 O 0.8201 0.86465 0.55293 0.0
H717 H 0.81859 0.04771 0.53 0.0
H718 H 0.71751 0.81451 0.57652 0.0
O719 O 0.79749 0.83003 0.58521 0.0
H720 H 0.76017 0.71961 0.54396 0.0
H721 H 0.89173 0.70427 0.57729 0.0
H722 H 0.90102 0.85633 0.56024 0.0
H723 H 0.81114 0.78011 0.55065 0.0
H724 H 0.82541 0.75527 0.57747 0.0
O725 O 0.68808 0.94521 0.55777 0.0
H726 H 0.81595 0.97974 0.54206 0.0
H727 H 0.69785 0.02979 0.55847 0.0
H728 H 0.96803 0.80624 0.55979 0.0
H729 H 0.66573 0.75405 0.57019 0.0
H730 H 0.96365 0.72958 0.56836 0.0
H731 H 0.68692 0.70613 0.55378 0.0
O732 O 0.84753 0.89922 0.57428 0.0
H733 H 0.68378 0.9865 0.5976 0.0
H734 H 0.79937 0.02986 0.56957 0.0
H735 H 0.79017 0.07571 0.58678 0.0
H736 H 0.73184 0.0543 0.60093 0.0
H737 H 0.69466 0.9412 0.5804 0.0
H738 H 0.69901 0.09808 0.54651 0.0
H739 H 0.75982 0.10749 0.53218 0.0
O740 O 0.82283 0.95235 0.56233 0.0
C741 C 0.79719 0.88153 0.54483 0.0
C742 C 0.79197 0.04405 0.53623 0.0
C743 C 0.72484 0.0723 0.54548 0.0
N744 N 0.75694 1.00082 0.55101 0.0
C745 C 0.79034 0.00566 0.5431 0.0
C746 C 0.72429 0.03346 0.55221 0.0
C747 C 0.75897 0.07756 0.53745 0.0
C748 C 0.72715 0.79362 0.56944 0.0
N749 N 0.7674 0.8008 0.56401 0.0
C750 C 0.69761 0.75951 0.56586 0.0
C751 C 0.70949 0.73267 0.55664 0.0
C752 C 0.75056 0.74024 0.55113 0.0
C753 C 0.77923 0.77467 0.55494 0.0
C754 C 0.89405 0.73757 0.57351 0.0
C755 C 0.89875 0.82297 0.56394 0.0
C756 C 0.85663 0.76667 0.57361 0.0
N757 N 0.85922 0.80871 0.56881 0.0
C758 C 0.93685 0.79477 0.56368 0.0
C759 C 0.93438 0.75179 0.5685 0.0
C760 C 0.85207 0.93731 0.56933 0.0
C761 C 0.70914 0.99635 0.59147 0.0
C762 C 0.77404 0.02008 0.57569 0.0
C763 C 0.76891 0.04632 0.58542 0.0
C764 C 0.73617 0.03432 0.59335 0.0
N765 N 0.74723 0.98296 0.57386 0.0
C766 C 0.71524 0.97093 0.58164 0.0
Co767 Co 0.15984 0.30246 0.81993 0.0
Co768 Co 0.06141 0.24847 0.81326 0.0
O769 O 0.11966 0.24979 0.82129 0.0
C770 C 0.16185 0.28662 0.84499 0.0
O771 O 0.11733 0.28432 0.84519 0.0
C772 C 0.0604 0.15673 0.80307 0.0
O773 O 0.05791 0.17664 0.79318 0.0
O774 O 0.09437 0.25701 0.79864 0.0
O775 O 0.14005 0.31364 0.80397 0.0
H776 H 0.94865 0.3018 0.78431 0.0
H777 H 0.19736 0.21419 0.82728 0.0
O778 O 0.18261 0.29294 0.8357 0.0
H779 H 0.28418 0.25504 0.7932 0.0
H780 H 0.30519 0.38939 0.82573 0.0
H781 H 0.14919 0.39518 0.81065 0.0
H782 H 0.22447 0.30579 0.80049 0.0
H783 H 0.25524 0.32257 0.82691 0.0
O784 O 0.06627 0.18054 0.81195 0.0
H785 H 0.02091 0.30293 0.79482 0.0
H786 H 0.97827 0.19017 0.81438 0.0
H787 H 0.19813 0.46264 0.8092 0.0
H788 H 0.25716 0.16261 0.82034 0.0
H789 H 0.27676 0.46002 0.81678 0.0
H790 H 0.30099 0.18293 0.80317 0.0
O791 O 0.11017 0.34263 0.82553 0.0
H792 H 0.03791 0.17945 0.85157 0.0
H793 H 0.98148 0.29265 0.82436 0.0
H794 H 0.94342 0.2845 0.84276 0.0
H795 H 0.97151 0.22745 0.85651 0.0
H796 H 0.07535 0.18909 0.83311 0.0
H797 H 0.90562 0.18774 0.80405 0.0
H798 H 0.8904 0.24387 0.7889 0.0
O799 O 0.05402 0.31581 0.81469 0.0
C800 C 0.12125 0.28966 0.79633 0.0
C801 C 0.95488 0.27715 0.79089 0.0
C802 C 0.93073 0.21315 0.80197 0.0
N803 N 1.00388 0.24667 0.80521 0.0
C804 C 0.99575 0.27762 0.79688 0.0
C805 C 0.97195 0.21469 0.80779 0.0
C806 C 0.92221 0.24465 0.79347 0.0
C807 C 0.21648 0.22335 0.81984 0.0
N808 N 0.20756 0.26302 0.81434 0.0
C809 C 0.25022 0.19398 0.81594 0.0
C810 C 0.27477 0.20539 0.8063 0.0
C811 C 0.26535 0.24583 0.8007 0.0
C812 C 0.2314 0.27437 0.80485 0.0
C813 C 0.271 0.39095 0.82239 0.0
C814 C 0.18341 0.39369 0.81393 0.0
C815 C 0.24249 0.35326 0.82307 0.0
N816 N 0.19935 0.35488 0.81882 0.0
C817 C 0.21094 0.43203 0.8131 0.0
C818 C 0.25504 0.43056 0.81736 0.0
C819 C 0.07088 0.34639 0.82106 0.0
C820 C 0.02526 0.20432 0.84564 0.0
C821 C 0.99409 0.26789 0.8303 0.0
C822 C 0.97229 0.26334 0.84071 0.0
C823 C 0.98805 0.23131 0.84841 0.0
N824 N 0.03049 0.24117 0.82762 0.0
C825 C 0.04621 0.2098 0.83515 0.0
Co826 Co 0.71174 0.67039 0.07092 0.0
Co827 Co 0.75601 0.56651 0.06401 0.0
O828 O 0.76041 0.6247 0.07205 0.0
C829 C 0.72929 0.6686 0.0958 0.0
O830 O 0.72952 0.62413 0.09555 0.0
C831 C 0.85699 0.58915 0.06376 0.0
O832 O 0.85102 0.62735 0.06923 0.0
O833 O 0.74723 0.59942 0.04945 0.0
O834 O 0.69787 0.65264 0.05499 0.0
H835 H 0.68489 0.45839 0.03641 0.0
H836 H 0.80279 0.69972 0.07861 0.0
O837 O 0.72358 0.6911 0.08676 0.0
H838 H 0.77215 0.78866 0.04421 0.0
H839 H 0.6409 0.8238 0.07719 0.0
H840 H 0.61789 0.67028 0.06179 0.0
H841 H 0.71551 0.73447 0.0514 0.0
H842 H 0.70214 0.76691 0.07814 0.0
O843 O 0.82329 0.56439 0.06106 0.0
H844 H 0.69174 0.52988 0.04705 0.0
H845 H 0.81074 0.48103 0.0633 0.0
H846 H 0.55589 0.72624 0.06058 0.0
H847 H 0.86025 0.75392 0.07177 0.0
H848 H 0.56719 0.80365 0.06832 0.0
H849 H 0.84511 0.79876 0.05444 0.0
O850 O 0.66643 0.62546 0.07642 0.0
H851 H 0.82642 0.53898 0.10223 0.0
H852 H 0.71207 0.48659 0.07484 0.0
H853 H 0.72051 0.44647 0.09291 0.0
H854 H 0.77828 0.47241 0.10676 0.0
H855 H 0.81625 0.5785 0.08419 0.0
H856 H 0.80543 0.40925 0.05274 0.0
H857 H 0.74202 0.39746 0.03922 0.0
O858 O 0.6888 0.56457 0.06657 0.0
C859 C 0.71768 0.62987 0.0473 0.0
C860 C 0.7126 0.46307 0.0423 0.0
C861 C 0.78029 0.43552 0.05145 0.0
N862 N 0.7514 0.50958 0.05585 0.0
C863 C 0.71659 0.50344 0.04837 0.0
C864 C 0.7832 0.47633 0.05738 0.0
C865 C 0.74469 0.42892 0.04387 0.0
C866 C 0.7959 0.71926 0.07109 0.0
N867 N 0.75591 0.71382 0.06541 0.0
C868 C 0.82859 0.74983 0.06725 0.0
C869 C 0.82009 0.77495 0.05751 0.0
C870 C 0.77918 0.76927 0.05177 0.0
C871 C 0.74731 0.73836 0.05585 0.0
C872 C 0.63558 0.7902 0.07378 0.0
C873 C 0.62317 0.70394 0.06514 0.0
C874 C 0.67009 0.75778 0.07432 0.0
N875 N 0.6637 0.71533 0.06999 0.0
C876 C 0.58789 0.73546 0.06444 0.0
C877 C 0.59424 0.77888 0.06879 0.0
C878 C 0.65955 0.58575 0.07252 0.0
C879 C 0.80142 0.52706 0.09623 0.0
C880 C 0.73723 0.49823 0.08078 0.0
C881 C 0.74191 0.47527 0.09102 0.0
C882 C 0.77432 0.48981 0.09878 0.0
N883 N 0.76425 0.53451 0.07825 0.0
C884 C 0.79578 0.54915 0.0859 0.0
Co885 Co 0.34403 0.21283 0.31971 0.0
Co886 Co 0.45105 0.2482 0.31171 0.0
O887 O 0.39363 0.25788 0.32003 0.0
C888 C 0.34434 0.24727 0.34404 0.0
O889 O 0.37985 0.27324 0.34241 0.0
C890 C 0.42971 0.34715 0.30738 0.0
O891 O 0.38595 0.34085 0.30872 0.0
O892 O 0.41689 0.2386 0.29734 0.0
O893 O 0.3565 0.19942 0.30343 0.0
H894 H 0.55291 0.16693 0.28434 0.0
H895 H 0.32548 0.30746 0.3273 0.0
O896 O 0.32825 0.22327 0.33604 0.0
H897 H 0.22032 0.28066 0.29565 0.0
H898 H 0.18827 0.15157 0.32848 0.0
H899 H 0.33521 0.1206 0.31007 0.0
H900 H 0.27293 0.22077 0.30187 0.0
H901 H 0.24927 0.20872 0.32874 0.0
O902 O 0.45731 0.31421 0.30823 0.0
H903 H 0.48231 0.18008 0.29503 0.0
H904 H 0.54063 0.2958 0.31067 0.0
H905 H 0.27495 0.06268 0.30952 0.0
H906 H 0.2729 0.36794 0.32152 0.0
H907 H 0.20084 0.078 0.31877 0.0
H908 H 0.21986 0.35487 0.30555 0.0
O909 O 0.38674 0.16406 0.32455 0.0
H910 H 0.48854 0.33023 0.34771 0.0
H911 H 0.52583 0.19903 0.32369 0.0
H912 H 0.56695 0.21003 0.34159 0.0
H913 H 0.54851 0.27617 0.35373 0.0
H914 H 0.44776 0.31746 0.32982 0.0
H915 H 0.61169 0.28409 0.30008 0.0
H916 H 0.61824 0.21917 0.28683 0.0
O917 O 0.44931 0.18209 0.31487 0.0
C918 C 0.38206 0.21387 0.29553 0.0
C919 C 0.5505 0.1953 0.2901 0.0
C920 C 0.58347 0.26108 0.29892 0.0
N921 N 0.50732 0.23858 0.3035 0.0
C922 C 0.51062 0.20289 0.29619 0.0
C923 C 0.54306 0.26761 0.30487 0.0
C924 C 0.58713 0.22464 0.29149 0.0
C925 C 0.30212 0.30107 0.32049 0.0
N926 N 0.30212 0.26026 0.31504 0.0
C927 C 0.27258 0.33566 0.31718 0.0
C928 C 0.24291 0.32836 0.3082 0.0
C929 C 0.2432 0.28677 0.30264 0.0
C930 C 0.27324 0.25299 0.30618 0.0
C931 C 0.22039 0.14452 0.3244 0.0
C932 C 0.30296 0.12764 0.31405 0.0
C933 C 0.25511 0.17671 0.32454 0.0
N934 N 0.29569 0.16814 0.31935 0.0
C935 C 0.26901 0.09466 0.31374 0.0
C936 C 0.22746 0.10326 0.31895 0.0
C937 C 0.42634 0.1548 0.32088 0.0
C938 C 0.4969 0.30128 0.34249 0.0
C939 C 0.51717 0.22753 0.32897 0.0
C940 C 0.5408 0.23377 0.33908 0.0
C941 C 0.53049 0.27091 0.34588 0.0
N942 N 0.48419 0.25741 0.32571 0.0
C943 C 0.474 0.29395 0.33233 0.0
H944 H 0.20317 0.34254 0.11103 0.0
H945 H 0.33547 0.2888 0.10267 0.0
H946 H 0.2027 0.297 0.12835 0.0
H947 H 0.33511 0.24409 0.11998 0.0
H948 H 0.3364 0.21656 0.15864 0.0
H949 H 0.33578 0.26121 0.14131 0.0
H950 H 0.20232 0.21015 0.13331 0.0
H951 H 0.20307 0.16471 0.15064 0.0
C952 C 0.23227 0.3214 0.11293 0.0
C953 C 0.26939 0.31939 0.10549 0.0
C954 C 0.23181 0.29507 0.12279 0.0
C955 C 0.26883 0.26694 0.12549 0.0
C956 C 0.30621 0.2656 0.11815 0.0
C957 C 0.30633 0.29119 0.10822 0.0
C958 C 0.30701 0.21454 0.15316 0.0
C959 C 0.26984 0.1869 0.156 0.0
C960 C 0.30672 0.2401 0.14323 0.0
C961 C 0.26895 0.23929 0.13598 0.0
C962 C 0.23173 0.21168 0.13879 0.0
C963 C 0.23235 0.18539 0.14865 0.0
H964 H 0.79089 0.82241 0.40986 0.0
H965 H 0.84383 0.69008 0.40143 0.0
H966 H 0.74396 0.8213 0.39293 0.0
H967 H 0.79604 0.68892 0.38443 0.0
H968 H 0.66112 0.69065 0.36257 0.0
H969 H 0.70823 0.68897 0.3797 0.0
H970 H 0.75994 0.82186 0.37168 0.0
H971 H 0.71371 0.82345 0.35463 0.0
C972 C 0.79261 0.79306 0.40438 0.0
C973 C 0.82131 0.75638 0.40698 0.0
C974 C 0.76572 0.79251 0.39467 0.0
C975 C 0.76625 0.755 0.38738 0.0
C976 C 0.79473 0.71813 0.38996 0.0
C977 C 0.82235 0.71899 0.39962 0.0
C978 C 0.6823 0.71959 0.36453 0.0
C979 C 0.68353 0.75724 0.35726 0.0
C980 C 0.70954 0.71844 0.37426 0.0
C981 C 0.73779 0.75526 0.377 0.0
C982 C 0.73835 0.7931 0.36982 0.0
C983 C 0.71186 0.79394 0.36005 0.0
H984 H 0.21999 0.12908 0.61658 0.0
H985 H 0.23522 0.25372 0.59784 0.0
H986 H 0.21634 0.17287 0.63419 0.0
H987 H 0.23073 0.29685 0.61528 0.0
H988 H 0.15163 0.35181 0.64674 0.0
H989 H 0.16456 0.30865 0.62942 0.0
H990 H 0.26704 0.22911 0.64634 0.0
H991 H 0.25477 0.2729 0.66366 0.0
C992 C 0.22293 0.16562 0.6162 0.0
C993 C 0.22763 0.18776 0.60576 0.0
C994 C 0.22096 0.19065 0.62628 0.0
C995 C 0.2229 0.23829 0.62608 0.0
C996 C 0.22869 0.26023 0.61568 0.0
C997 C 0.23141 0.23534 0.60568 0.0
C998 C 0.17735 0.32555 0.64673 0.0
C999 C 0.20236 0.31602 0.65655 0.0
C1000 C 0.18475 0.30084 0.63682 0.0
C1001 C 0.2167 0.26542 0.63655 0.0
C1002 C 0.24203 0.25605 0.64633 0.0
C1003 C 0.23528 0.28143 0.6562 0.0
H1004 H 0.75038 0.7115 0.84826 0.0
H1005 H 0.87581 0.74592 0.8651 0.0
H1006 H 0.71009 0.7157 0.86601 0.0
H1007 H 0.83486 0.75217 0.88298 0.0
H1008 H 0.75849 0.70619 0.91457 0.0
H1009 H 0.79969 0.70808 0.89688 0.0
H1010 H 0.68087 0.7623 0.88019 0.0
H1011 H 0.63888 0.7584 0.89793 0.0
C1012 C 0.76937 0.72063 0.85574 0.0
C1013 C 0.8165 0.72826 0.85522 0.0
C1014 C 0.74603 0.72341 0.86597 0.0
C1015 C 0.76892 0.73445 0.87602 0.0
C1016 C 0.81605 0.74286 0.87547 0.0
C1017 C 0.8396 0.73953 0.86521 0.0
C1018 C 0.74107 0.71872 0.90715 0.0
C1019 C 0.69519 0.73195 0.90768 0.0
C1020 C 0.76496 0.72014 0.89697 0.0
C1021 C 0.74388 0.73534 0.88701 0.0
C1022 C 0.69817 0.74956 0.88761 0.0
C1023 C 0.67404 0.74759 0.8978 0.0
H1024 H 0.71747 0.8558 0.61156 0.0
H1025 H 0.83065 0.77607 0.59957 0.0
H1026 H 0.71411 0.80923 0.62859 0.0
H1027 H 0.82842 0.73076 0.61664 0.0
H1028 H 0.79247 0.63095 0.64403 0.0
H1029 H 0.7877 0.67437 0.62652 0.0
H1030 H 0.75279 0.79431 0.6456 0.0
H1031 H 0.75567 0.75078 0.6629 0.0
C1032 C 0.74189 0.82865 0.6126 0.0
C1033 C 0.77427 0.81973 0.60418 0.0
C1034 C 0.74007 0.80192 0.62238 0.0
C1035 C 0.77088 0.76588 0.62403 0.0
C1036 C 0.80345 0.7574 0.61561 0.0
C1037 C 0.80499 0.78378 0.60583 0.0
C1038 C 0.78329 0.66645 0.64446 0.0
C1039 C 0.77475 0.68728 0.65491 0.0
C1040 C 0.7809 0.69154 0.63442 0.0
C1041 C 0.77021 0.73815 0.63459 0.0
C1042 C 0.76056 0.75851 0.64505 0.0
C1043 C 0.7626 0.73344 0.65503 0.0
H1044 H 0.28579 0.24208 0.91189 0.0
H1045 H 0.34463 0.36398 0.89808 0.0
H1046 H 0.24295 0.23083 0.89434 0.0
H1047 H 0.30228 0.35262 0.88063 0.0
H1048 H 0.25346 0.29697 0.84721 0.0
H1049 H 0.29836 0.29843 0.8644 0.0
H1050 H 0.17795 0.27257 0.8841 0.0
H1051 H 0.13233 0.27118 0.86676 0.0
C1052 C 0.29025 0.26596 0.90504 0.0
C1053 C 0.31878 0.30383 0.90634 0.0
C1054 C 0.26535 0.25978 0.89505 0.0
C1055 C 0.26913 0.29089 0.88611 0.0
C1056 C 0.29886 0.32783 0.88731 0.0
C1057 C 0.32312 0.33438 0.89732 0.0
C1058 C 0.23629 0.29135 0.85517 0.0
C1059 C 0.18902 0.28439 0.85557 0.0
C1060 C 0.26219 0.2923 0.86504 0.0
C1061 C 0.24172 0.28592 0.87561 0.0
C1062 C 0.19473 0.27735 0.87605 0.0
C1063 C 0.16857 0.27681 0.86613 0.0
H1064 H 0.75729 0.63637 0.11643 0.0
H1065 H 0.71082 0.75782 0.09969 0.0
H1066 H 0.76268 0.67815 0.13418 0.0
H1067 H 0.71416 0.79892 0.11739 0.0
H1068 H 0.75485 0.87329 0.14921 0.0
H1069 H 0.75974 0.83201 0.13136 0.0
H1070 H 0.71703 0.70951 0.14828 0.0
H1071 H 0.71418 0.75006 0.16602 0.0
C1072 C 0.74804 0.6719 0.11655 0.0
C1073 C 0.73357 0.69362 0.10664 0.0
C1074 C 0.75087 0.69591 0.12674 0.0
C1075 C 0.73871 0.74212 0.12731 0.0
C1076 C 0.72466 0.76376 0.11732 0.0
C1077 C 0.72238 0.73995 0.10714 0.0
C1078 C 0.74682 0.83749 0.1491 0.0
C1079 C 0.73415 0.81511 0.15906 0.0
C1080 C 0.74935 0.81376 0.13885 0.0
C1081 C 0.73874 0.76719 0.1383 0.0
C1082 C 0.7264 0.74497 0.14833 0.0
C1083 C 0.72441 0.76848 0.15855 0.0
H1084 H 0.1681 0.31262 0.4011 0.0
H1085 H 0.22267 0.1801 0.4086 0.0
H1086 H 0.21234 0.31432 0.38353 0.0
H1087 H 0.2659 0.18161 0.39105 0.0
H1088 H 0.28782 0.18225 0.3522 0.0
H1089 H 0.24454 0.18292 0.36974 0.0
H1090 H 0.30056 0.3137 0.37813 0.0
H1091 H 0.34487 0.31283 0.36056 0.0
C1092 C 0.18913 0.28375 0.39896 0.0
C1093 C 0.19175 0.24618 0.40622 0.0
C1094 C 0.21471 0.28491 0.38896 0.0
C1095 C 0.24259 0.24812 0.38595 0.0
C1096 C 0.24457 0.21035 0.39313 0.0
C1097 C 0.21981 0.20955 0.40319 0.0
C1098 C 0.2912 0.21111 0.3578 0.0
C1099 C 0.31999 0.24743 0.355 0.0
C1100 C 0.26641 0.21141 0.36785 0.0
C1101 C 0.26908 0.2484 0.37527 0.0
C1102 C 0.29766 0.2849 0.3725 0.0
C1103 C 0.32326 0.28421 0.36251 0.0
H1104 H 0.34486 0.19699 0.22274 0.0
H1105 H 0.27472 0.07859 0.23518 0.0
H1106 H 0.36576 0.21755 0.24178 0.0
H1107 H 0.29798 0.09796 0.25437 0.0
H1108 H 0.30552 0.17006 0.28828 0.0
H1109 H 0.28499 0.14826 0.26926 0.0
H1110 H 0.41273 0.20098 0.25704 0.0
H1111 H 0.43223 0.22521 0.27611 0.0
C1112 C 0.33391 0.1751 0.22953 0.0
C1113 C 0.30748 0.1363 0.22736 0.0
C1114 C 0.34655 0.1867 0.24052 0.0
C1115 C 0.33386 0.15951 0.24973 0.0
C1116 C 0.30783 0.1203 0.24756 0.0
C1117 C 0.2946 0.10898 0.23653 0.0
C1118 C 0.3292 0.17752 0.28155 0.0
C1119 C 0.37036 0.20015 0.28378 0.0
C1120 C 0.31758 0.16435 0.27059 0.0
C1121 C 0.34703 0.17269 0.2615 0.0
C1122 C 0.38861 0.19468 0.26374 0.0
C1123 C 0.4 0.20846 0.27472 0.0
H1124 H 0.84349 0.86561 0.47225 0.0
H1125 H 0.91254 0.7479 0.4855 0.0
H1126 H 0.82135 0.88759 0.49116 0.0
H1127 H 0.88856 0.76886 0.50453 0.0
H1128 H 0.87638 0.8416 0.53819 0.0
H1129 H 0.89987 0.82046 0.51931 0.0
H1130 H 0.7724 0.87033 0.50609 0.0
H1131 H 0.74972 0.89344 0.52505 0.0
C1132 C 0.85376 0.84415 0.47921 0.0
C1133 C 0.87987 0.80489 0.47733 0.0
C1134 C 0.84063 0.85663 0.4901 0.0
C1135 C 0.8527 0.82996 0.49946 0.0
C1136 C 0.87907 0.79071 0.49759 0.0
C1137 C 0.89275 0.7785 0.48666 0.0
C1138 C 0.85329 0.84824 0.53126 0.0
C1139 C 0.81109 0.86938 0.53316 0.0
C1140 C 0.8667 0.83567 0.5204 0.0
C1141 C 0.83812 0.84337 0.51109 0.0
C1142 C 0.79578 0.86446 0.51299 0.0
C1143 C 0.78257 0.87758 0.52388 0.0
H1144 H 0.25514 0.39717 0.73687 0.0
H1145 H 0.14078 0.32455 0.72291 0.0
H1146 H 0.23238 0.37416 0.75576 0.0
H1147 H 0.117 0.30306 0.74181 0.0
H1148 H 0.10992 0.23799 0.77712 0.0
H1149 H 0.13288 0.25741 0.75786 0.0
H1150 H 0.17687 0.38913 0.76946 0.0
H1151 H 0.15567 0.36923 0.78855 0.0
C1152 C 0.225 0.37652 0.73782 0.0
C1153 C 0.19983 0.36291 0.72833 0.0
C1154 C 0.21168 0.36351 0.74869 0.0
C1155 C 0.17251 0.33693 0.75039 0.0
C1156 C 0.14761 0.323 0.74088 0.0
C1157 C 0.16115 0.33568 0.73 0.0
C1158 C 0.12428 0.27113 0.77551 0.0
C1159 C 0.1312 0.30184 0.78441 0.0
C1160 C 0.1374 0.28238 0.76446 0.0
C1161 C 0.15735 0.32475 0.76206 0.0
C1162 C 0.16288 0.35577 0.77096 0.0
C1163 C 0.15026 0.34441 0.78195 0.0
H1164 H 0.76464 0.61025 0.02783 0.0
H1165 H 0.64116 0.67254 0.03996 0.0
H1166 H 0.74454 0.63185 0.00856 0.0
H1167 H 0.62014 0.69229 0.02081 0.0
H1168 H 0.61598 0.76324 0.98679 0.0
H1169 H 0.63708 0.7419 1.00598 0.0
H1170 H 0.69539 0.61722 0.9934 0.0
H1171 H 0.67616 0.63946 0.97429 0.0
C1172 C 0.73296 0.62799 0.02637 0.0
C1173 C 0.7047 0.63981 0.03545 0.0
C1174 C 0.72126 0.6403 0.01531 0.0
C1175 C 0.68071 0.66417 0.01306 0.0
C1176 C 0.65211 0.67498 0.02217 0.0
C1177 C 0.66405 0.66323 0.03319 0.0
C1178 C 0.63321 0.73126 0.98814 0.0
C1179 C 0.64442 0.70321 0.97899 0.0
C1180 C 0.64519 0.71882 0.99917 0.0
C1181 C 0.66812 0.67772 1.00131 0.0
C1182 C 0.67868 0.64949 0.99212 0.0
C1183 C 0.66724 0.66216 0.98113 0.0
H1184 H 0.3722 0.34004 0.03877 0.0
H1185 H 0.24398 0.39235 0.02679 0.0
H1186 H 0.39213 0.31732 0.01974 0.0
H1187 H 0.26272 0.36731 0.00773 0.0
H1188 H 0.32801 0.35895 0.97304 0.0
H1189 H 0.30702 0.38131 0.992 0.0
H1190 H 0.37966 0.26573 1.00536 0.0
H1191 H 0.40284 0.24484 0.98629 0.0
C1192 C 0.348 0.34636 0.03206 0.0
C1193 C 0.30648 0.36817 0.03432 0.0
C1194 C 0.35928 0.33285 0.02111 0.0
C1195 C 0.32907 0.34 0.01208 0.0
C1196 C 0.28737 0.36178 0.01436 0.0
C1197 C 0.27641 0.37604 0.02533 0.0
C1198 C 0.33948 0.33813 0.98001 0.0
C1199 C 0.36728 0.30007 0.97811 0.0
C1200 C 0.32708 0.35086 0.99095 0.0
C1201 C 0.34146 0.32551 1.00035 0.0
C1202 C 0.36858 0.28681 0.99841 0.0
C1203 C 0.38165 0.27451 0.98745 0.0
H1204 H 0.69292 0.83997 0.29121 0.0
H1205 H 0.56867 0.78074 0.27859 0.0
H1206 H 0.71415 0.8616 0.27227 0.0
H1207 H 0.5889 0.80479 0.25955 0.0
H1208 H 0.66239 0.80523 0.22587 0.0
H1209 H 0.63849 0.78724 0.24482 0.0
H1210 H 0.70115 0.9103 0.25701 0.0
H1211 H 0.72748 0.92724 0.23793 0.0
C1212 C 0.66987 0.83164 0.28441 0.0
C1213 C 0.6293 0.80778 0.28648 0.0
C1214 C 0.6819 0.84473 0.27349 0.0
C1215 C 0.65345 0.83503 0.26428 0.0
C1216 C 0.61225 0.81213 0.26637 0.0
C1217 C 0.60044 0.79846 0.27732 0.0
C1218 C 0.67156 0.82849 0.23256 0.0
C1219 C 0.69763 0.86748 0.23032 0.0
C1220 C 0.65715 0.81836 0.24348 0.0
C1221 C 0.66764 0.84721 0.25254 0.0
C1222 C 0.69301 0.88675 0.25031 0.0
C1223 C 0.70801 0.89666 0.23934 0.0
H1224 H 0.20497 0.16166 0.47246 0.0
H1225 H 0.08602 0.22961 0.48555 0.0
H1226 H 0.22755 0.14123 0.49146 0.0
H1227 H 0.10783 0.20739 0.50464 0.0
H1228 H 0.1843 0.20565 0.53783 0.0
H1229 H 0.16192 0.22431 0.51875 0.0
H1230 H 0.21158 0.09445 0.50724 0.0
H1231 H 0.23585 0.07631 0.52645 0.0
C1232 C 0.18339 0.17218 0.47938 0.0
C1233 C 0.14382 0.19793 0.47742 0.0
C1234 C 0.19623 0.15993 0.49032 0.0
C1235 C 0.16973 0.17264 0.49966 0.0
C1236 C 0.12965 0.19767 0.4977 0.0
C1237 C 0.11694 0.21027 0.48672 0.0
C1238 C 0.19096 0.18103 0.53126 0.0
C1239 C 0.2123 0.13946 0.53374 0.0
C1240 C 0.17749 0.19163 0.52027 0.0
C1241 C 0.18445 0.16086 0.51139 0.0
C1242 C 0.20606 0.1193 0.51382 0.0
C1243 C 0.21995 0.10878 0.52486 0.0
H1244 H 0.82392 0.70594 0.72272 0.0
H1245 H 0.7735 0.57627 0.73408 0.0
H1246 H 0.84461 0.72548 0.74186 0.0
H1247 H 0.79633 0.59516 0.75334 0.0
H1248 H 0.79897 0.66206 0.78799 0.0
H1249 H 0.77813 0.64167 0.76889 0.0
H1250 H 0.89734 0.7104 0.75632 0.0
H1251 H 0.91721 0.7328 0.77552 0.0
C1252 C 0.81719 0.68143 0.7293 0.0
C1253 C 0.79653 0.63957 0.72681 0.0
C1254 C 0.8297 0.69253 0.74032 0.0
C1255 C 0.82252 0.66193 0.74921 0.0
C1256 C 0.80186 0.61995 0.74675 0.0
C1257 C 0.78884 0.60898 0.73569 0.0
C1258 C 0.82072 0.67327 0.78118 0.0
C1259 C 0.85958 0.69971 0.78334 0.0
C1260 C 0.80893 0.66099 0.77018 0.0
C1261 C 0.83591 0.67426 0.76099 0.0
C1262 C 0.87519 0.7002 0.76315 0.0
C1263 C 0.88677 0.71293 0.77418 0.0
H1264 H 0.10565 0.04469 0.22799 0.0
H1265 H 0.11901 0.02735 0.19193 0.0
H1266 H 0.03015 0.01019 0.22722 0.0
H1267 H 0.04394 0.99268 0.19122 0.0
H1268 H 0.93387 0.88418 0.19678 0.0
H1269 H 0.00888 0.91927 0.19839 0.0
H1270 H 0.95191 0.02581 0.21896 0.0
H1271 H 0.87699 0.99107 0.21731 0.0
C1272 C 0.09233 0.03405 0.21989 0.0
C1273 C 0.11842 0.03898 0.21003 0.0
C1274 C 0.04911 0.01423 0.21946 0.0
C1275 C 0.03133 0.99825 0.20918 0.0
C1276 C 0.05699 0.00405 0.19929 0.0
C1277 C 0.09984 0.02444 0.19969 0.0
C1278 C 0.93744 0.91474 0.20177 0.0
C1279 C 0.8994 0.9348 0.20691 0.0
C1280 C 0.98032 0.93507 0.2026 0.0
C1281 C 0.98623 0.97551 0.20873 0.0
C1282 C 0.94851 0.99462 0.21421 0.0
C1283 C 0.90557 0.9747 0.21324 0.0
H1284 H 0.12244 0.42981 0.4479 0.0
H1285 H 1.00255 0.36893 0.46241 0.0
H1286 H 0.08557 0.50395 0.44865 0.0
H1287 H 0.96614 0.44277 0.46329 0.0
H1288 H 0.89693 0.57286 0.44969 0.0
H1289 H 0.93365 0.49847 0.45056 0.0
H1290 H 0.0585 0.56173 0.46141 0.0
H1291 H 0.02231 0.63546 0.46041 0.0
C1292 C 0.08858 0.43231 0.45141 0.0
C1293 C 0.06544 0.39336 0.45502 0.0
C1294 C 0.06737 0.47481 0.45185 0.0
C1295 C 0.02263 0.4793 0.45594 0.0
C1296 C 1.00017 0.44049 0.45988 0.0
C1297 C 0.02128 0.39813 0.45943 0.0
C1298 C 0.93203 0.57073 0.45237 0.0
C1299 C 0.95672 0.61017 0.45486 0.0
C1300 C 0.95313 0.52813 0.45289 0.0
C1301 C 0.99928 0.52414 0.45594 0.0
C1302 C 0.02332 0.56354 0.45879 0.0
C1303 C 1.00236 0.6059 0.45826 0.0
H1304 H 0.3825 0.49032 0.71527 0.0
H1305 H 0.43025 0.39213 0.69097 0.0
H1306 H 0.45761 0.5244 0.71594 0.0
H1307 H 0.50523 0.42709 0.69136 0.0
H1308 H 0.64532 0.47578 0.70149 0.0
H1309 H 0.57162 0.43923 0.70221 0.0
H1310 H 0.50679 0.57024 0.70485 0.0
H1311 H 0.58113 0.60689 0.70451 0.0
C1312 C 0.40912 0.47584 0.71009 0.0
C1313 C 0.40027 0.43844 0.70305 0.0
C1314 C 0.45218 0.49572 0.7104 0.0
C1315 C 0.4876 0.47896 0.70362 0.0
C1316 C 0.47904 0.44072 0.6968 0.0
C1317 C 0.43596 0.4206 0.69656 0.0
C1318 C 0.61541 0.49693 0.70224 0.0
C1319 C 0.61924 0.5444 0.70292 0.0
C1320 C 0.57297 0.47586 0.70258 0.0
C1321 C 0.53298 0.50161 0.70353 0.0
C1322 C 0.5368 0.54916 0.70427 0.0
C1323 C 0.57944 0.57028 0.70402 0.0
H1324 H 0.53572 0.14603 0.95541 0.0
H1325 H 0.40448 0.08137 0.95306 0.0
H1326 H 0.57258 0.07262 0.95551 0.0
H1327 H 0.44177 0.00727 0.95286 0.0
H1328 H 0.51951 0.88117 0.96354 0.0
H1329 H 0.48371 0.9553 0.96448 0.0
H1330 H 0.58981 0.01036 0.94338 0.0
H1331 H 0.62631 0.93609 0.94265 0.0
C1332 C 0.5146 0.11612 0.95486 0.0
C1333 C 0.46698 0.11974 0.9542 0.0
C1334 C 0.53592 0.07387 0.95485 0.0
C1335 C 0.51033 0.03387 0.95413 0.0
C1336 C 0.4626 0.03735 0.95356 0.0
C1337 C 0.44116 0.07982 0.95363 0.0
C1338 C 0.53549 0.90914 0.95916 0.0
C1339 C 0.57584 0.90261 0.95299 0.0
C1340 C 0.51465 0.95165 0.95963 0.0
C1341 C 0.53348 0.98885 0.95392 0.0
C1342 C 0.57451 0.9826 0.94798 0.0
C1343 C 0.59552 0.94 0.94755 0.0
H1344 H 0.12562 0.48273 0.0461 0.0
H1345 H 0.08649 0.41798 0.07728 0.0
H1346 H 0.053 0.52347 0.04571 0.0
H1347 H 0.01454 0.46002 0.07705 0.0
H1348 H 0.93068 0.60044 0.07752 0.0
H1349 H 1.00279 0.5587 0.07677 0.0
H1350 H 0.95899 0.49155 0.04633 0.0
H1351 H 0.88629 0.53198 0.04725 0.0
C1352 C 0.10127 0.47681 0.05279 0.0
C1353 C 0.11152 0.44685 0.06167 0.0
C1354 C 0.05992 0.50023 0.05258 0.0
C1355 C 0.02861 0.49506 0.0614 0.0
C1356 C 0.0384 0.46465 0.07019 0.0
C1357 C 0.07927 0.44031 0.07025 0.0
C1358 C 0.93676 0.57736 0.07057 0.0
C1359 C 0.90301 0.56966 0.0624 0.0
C1360 C 0.97774 0.55322 0.07021 0.0
C1361 C 0.98608 0.52186 0.06153 0.0
C1362 C 0.95321 0.51556 0.0531 0.0
C1363 C 0.91181 0.53879 0.05362 0.0
H1364 H 0.49218 0.63567 0.30056 0.0
H1365 H 0.61315 0.57394 0.31435 0.0
H1366 H 0.45686 0.56163 0.29889 0.0
H1367 H 0.57733 0.49949 0.31286 0.0
H1368 H 0.51495 0.36875 0.30035 0.0
H1369 H 0.55058 0.44286 0.29983 0.0
H1370 H 0.4251 0.50419 0.31099 0.0
H1371 H 0.389 0.4296 0.31132 0.0
C1372 C 0.51137 0.60622 0.30321 0.0
C1373 C 0.55549 0.6108 0.30766 0.0
C1374 C 0.4909 0.56372 0.30232 0.0
C1375 C 0.51393 0.52455 0.30585 0.0
C1376 C 0.55868 0.52891 0.30996 0.0
C1377 C 0.57929 0.57157 0.31083 0.0
C1378 C 0.49475 0.39802 0.30264 0.0
C1379 C 0.44911 0.39316 0.30596 0.0
C1380 C 0.51537 0.44057 0.3024 0.0
C1381 C 0.491 0.47953 0.30549 0.0
C1382 C 0.44485 0.47493 0.30846 0.0
C1383 C 0.42409 0.43219 0.30867 0.0
H1384 H 0.62696 0.98766 0.54692 0.0
H1385 H 0.57794 0.89026 0.57121 0.0
H1386 H 0.55207 0.02216 0.54603 0.0
H1387 H 0.50303 0.92565 0.57058 0.0
H1388 H 0.36347 0.97546 0.55987 0.0
H1389 H 0.43698 0.93826 0.55956 0.0
H1390 H 0.50283 0.06863 0.55696 0.0
H1391 H 0.42873 0.10592 0.55692 0.0
C1392 C 0.60009 0.97343 0.55205 0.0
C1393 C 0.60855 0.93614 0.55915 0.0
C1394 C 0.55714 0.99357 0.55162 0.0
C1395 C 0.52138 0.97721 0.55833 0.0
C1396 C 0.52951 0.93902 0.5652 0.0
C1397 C 0.57253 0.91863 0.56557 0.0
C1398 C 0.39356 0.99634 0.55922 0.0
C1399 C 0.39007 0.04382 0.55842 0.0
C1400 C 0.4359 0.97489 0.5591 0.0
C1401 C 0.47612 1.00025 0.55827 0.0
C1402 C 0.47264 0.04781 0.55744 0.0
C1403 C 0.43013 0.06932 0.55748 0.0
H1404 H 0.03024 0.11331 0.82204 0.0
H1405 H 0.05575 0.09207 0.78652 0.0
H1406 H 0.9966 0.0379 0.82333 0.0
H1407 H 0.0225 0.01632 0.78789 0.0
H1408 H 1.00264 0.86603 0.79918 0.0
H1409 H 0.03805 0.94051 0.79766 0.0
H1410 H 0.92459 1.00026 0.81528 0.0
H1411 H 0.88869 0.9256 0.81672 0.0
C1412 C 0.02943 0.0923 0.81455 0.0
C1413 C 0.04587 0.10874 0.80417 0.0
C1414 C 0.00966 0.04928 0.81527 0.0
C1415 C 0.00653 0.02136 0.80569 0.0
C1416 C 0.02451 0.03705 0.79542 0.0
C1417 C 0.0436 0.0804 0.79465 0.0
C1418 C 0.98504 0.89506 0.80268 0.0
C1419 C 0.94277 0.88985 0.80808 0.0
C1420 C 0.00532 0.93774 0.80177 0.0
C1421 C 0.98424 0.97619 0.8064 0.0
C1422 C 0.94184 0.97113 0.81173 0.0
C1423 C 0.92112 0.92847 0.81247 0.0
H1424 H 0.6353 0.00842 0.19604 0.0
H1425 H 0.57975 0.88118 0.18435 0.0
H1426 H 0.562 0.04421 0.19372 0.0
H1427 H 0.50546 0.91762 0.18207 0.0
H1428 H 0.37554 0.98698 0.19727 0.0
H1429 H 0.44842 0.94914 0.1956 0.0
H1430 H 0.5046 0.06789 0.1796 0.0
H1431 H 0.43127 0.10623 0.18124 0.0
C1432 C 0.60768 0.98808 0.19279 0.0
C1433 C 0.6137 0.94174 0.19036 0.0
C1434 C 0.56552 0.00886 0.19141 0.0
C1435 C 0.52792 0.98387 0.18768 0.0
C1436 C 0.53386 0.93772 0.18501 0.0
C1437 C 0.57641 0.9169 0.18627 0.0
C1438 C 0.4031 0.00503 0.19324 0.0
C1439 C 0.39736 0.04986 0.18941 0.0
C1440 C 0.44491 0.98306 0.19222 0.0
C1441 C 0.48228 0.00543 0.18746 0.0
C1442 C 0.47644 0.04986 0.18338 0.0
C1443 C 0.4344 0.07178 0.1843 0.0
H1444 H 0.02211 0.87532 0.44628 0.0
H1445 H 0.90136 0.924 0.42934 0.0
H1446 H 0.0581 0.94811 0.44361 0.0
H1447 H 0.93774 0.99812 0.42695 0.0
H1448 H 0.99696 0.12954 0.44472 0.0
H1449 H 0.96153 0.05645 0.44201 0.0
H1450 H 0.08672 1.00349 0.42842 0.0
H1451 H 0.12262 0.07781 0.43085 0.0
C1452 C 1.00337 0.9012 0.44178 0.0
C1453 C 0.95874 0.89347 0.43795 0.0
C1454 C 0.02429 0.943 0.44022 0.0
C1455 C 1.00091 0.97858 0.43499 0.0
C1456 C 0.95655 0.97104 0.43098 0.0
C1457 C 0.93575 0.9287 0.43236 0.0
C1458 C 0.01695 0.10291 0.44088 0.0
C1459 C 0.06278 0.10986 0.43794 0.0
C1460 C 0.99637 0.06093 0.4393 0.0
C1461 C 0.02123 0.02446 0.43494 0.0
C1462 C 0.06678 0.03126 0.43178 0.0
C1463 C 0.0873 0.07373 0.43318 0.0
H1464 H 0.08509 0.42089 0.67868 0.0
H1465 H 0.13357 0.51528 0.7039 0.0
H1466 H 0.01487 0.46535 0.67694 0.0
H1467 H 0.06455 0.55909 0.70203 0.0
H1468 H 0.91072 0.57546 0.70836 0.0
H1469 H 0.98522 0.53986 0.70773 0.0
H1470 H 0.98329 0.54553 0.6713 0.0
H1471 H 0.90785 0.58192 0.672 0.0
C1472 C 0.08108 0.45112 0.68376 0.0
C1473 C 0.11496 0.46411 0.6915 0.0
C1474 C 0.04109 0.47676 0.68269 0.0
C1475 C 0.03425 0.51559 0.68938 0.0
C1476 C 0.06866 0.52913 0.69684 0.0
C1477 C 0.10835 0.50382 0.69789 0.0
C1478 C 0.92671 0.5701 0.70022 0.0
C1479 C 0.9041 0.58195 0.69023 0.0
C1480 C 0.96929 0.54964 0.69985 0.0
C1481 C 0.99008 0.53989 0.68947 0.0
C1482 C 0.96789 0.55255 0.67942 0.0
C1483 C 0.92522 0.57386 0.6798 0.0
H1484 H 0.48214 0.40446 0.95886 0.0
H1485 H 0.42344 0.41625 0.92552 0.0
H1486 H 0.51946 0.47736 0.95644 0.0
H1487 H 0.46168 0.48988 0.92315 0.0
H1488 H 0.61168 0.58512 0.92965 0.0
H1489 H 0.57153 0.51212 0.92839 0.0
H1490 H 0.46433 0.56482 0.94938 0.0
H1491 H 0.5032 0.63696 0.95067 0.0
C1492 C 0.47721 0.42256 0.951 0.0
C1493 C 0.44962 0.40467 0.94239 0.0
C1494 C 0.49882 0.4641 0.94962 0.0
C1495 C 0.49379 0.48846 0.93957 0.0
C1496 C 0.46629 0.47108 0.93092 0.0
C1497 C 0.4441 0.42942 0.93234 0.0
C1498 C 0.57922 0.58134 0.93384 0.0
C1499 C 0.56094 0.61695 0.94031 0.0
C1500 C 0.55626 0.53979 0.93305 0.0
C1501 C 0.51486 0.53351 0.93872 0.0
C1502 C 0.496 0.56929 0.94486 0.0
C1503 C 0.5186 0.61053 0.94561 0.0
H1504 H 0.57973 0.62334 0.08028 0.0
H1505 H 0.63775 0.49749 0.06834 0.0
H1506 H 0.50515 0.58673 0.08137 0.0
H1507 H 0.56414 0.46132 0.06968 0.0
H1508 H 0.43038 0.40039 0.08169 0.0
H1509 H 0.50359 0.43842 0.08401 0.0
H1510 H 0.45234 0.55467 0.06595 0.0
H1511 H 0.37982 0.51682 0.06341 0.0
C1512 C 0.57688 0.58783 0.07808 0.0
C1513 C 0.61493 0.56344 0.07426 0.0
C1514 C 0.53419 0.56695 0.07867 0.0
C1515 C 0.52897 0.52112 0.07566 0.0
C1516 C 0.56723 0.49646 0.07222 0.0
C1517 C 0.60952 0.5174 0.07143 0.0
C1518 C 0.43456 0.43419 0.07829 0.0
C1519 C 0.39899 0.45549 0.0724 0.0
C1520 C 0.47648 0.45592 0.07962 0.0
C1521 C 0.48348 0.49963 0.07523 0.0
C1522 C 0.44767 0.52133 0.06959 0.0
C1523 C 0.4061 0.49942 0.06811 0.0
H1524 H 0.51191 0.12696 0.31542 0.0
H1525 H 0.38936 0.08164 0.33207 0.0
H1526 H 0.5471 0.05434 0.31889 0.0
H1527 H 0.42515 0.0078 0.33541 0.0
H1528 H 0.48386 0.8725 0.32011 0.0
H1529 H 0.44881 0.94612 0.32197 0.0
H1530 H 0.57545 1.00158 0.33404 0.0
H1531 H 0.61114 0.92682 0.33231 0.0
C1532 C 0.49254 0.10182 0.31999 0.0
C1533 C 0.44762 0.11043 0.32349 0.0
C1534 C 0.51305 0.06012 0.32204 0.0
C1535 C 0.4891 0.02553 0.32751 0.0
C1536 C 0.44442 0.03402 0.33118 0.0
C1537 C 0.42393 0.0762 0.32925 0.0
C1538 C 0.50429 0.89986 0.32342 0.0
C1539 C 0.55053 0.89349 0.32607 0.0
C1540 C 0.48391 0.9422 0.32454 0.0
C1541 C 0.50928 0.97957 0.32818 0.0
C1542 C 0.55512 0.97323 0.33119 0.0
C1543 C 0.57552 0.93047 0.33021 0.0
H1544 H 0.92552 0.92043 0.58329 0.0
H1545 H 0.87369 0.0166 0.55891 0.0
H1546 H 0.99597 0.96475 0.58464 0.0
H1547 H 0.94315 0.05993 0.56032 0.0
H1548 H 0.09737 0.07138 0.55252 0.0
H1549 H 0.02287 0.03599 0.5538 0.0
H1550 H 0.02679 0.04832 0.59011 0.0
H1551 H 0.10198 0.08481 0.58876 0.0
C1552 C 0.92883 0.95105 0.57833 0.0
C1553 C 0.89399 0.96455 0.57092 0.0
C1554 C 0.96895 0.97654 0.57917 0.0
C1555 C 0.97491 0.01563 0.57254 0.0
C1556 C 0.93955 0.02979 0.56546 0.0
C1557 C 0.89967 0.00474 0.56467 0.0
C1558 C 0.08185 0.06745 0.56076 0.0
C1559 C 0.10485 0.0813 0.57053 0.0
C1560 C 0.03935 0.04711 0.5615 0.0
C1561 C 0.01916 0.0394 0.57206 0.0
C1562 C 0.04179 0.05383 0.58188 0.0
C1563 C 0.0843 0.07514 0.58111 0.0
H1564 H 0.91156 0.59228 0.83811 0.0
H1565 H 0.9594 0.60102 0.80372 0.0
H1566 H 0.94853 0.5175 0.83996 0.0
H1567 H 0.99489 0.5268 0.80551 0.0
H1568 H 0.9939 0.37093 0.80984 0.0
H1569 H 0.95323 0.44249 0.81074 0.0
H1570 H 0.04584 0.49065 0.83624 0.0
H1571 H 0.08793 0.41871 0.83526 0.0
C1572 C 0.92946 0.57805 0.83095 0.0
C1573 C 0.93263 0.60236 0.82078 0.0
C1574 C 0.95083 0.53567 0.83204 0.0
C1575 C 0.97456 0.5168 0.82288 0.0
C1576 C 0.97683 0.54077 0.81269 0.0
C1577 C 0.95651 0.58319 0.81168 0.0
C1578 C 0.00567 0.39637 0.81574 0.0
C1579 C 0.04462 0.38906 0.82241 0.0
C1580 C 0.98213 0.4373 0.81626 0.0
C1581 C 0.99636 0.47174 0.82358 0.0
C1582 C 0.03408 0.46423 0.83061 0.0
C1583 C 0.05825 0.42327 0.82998 0.0
loop_
_geom_bond_atom_site_label_1
_geom_bond_atom_site_label_2
_geom_bond_distance
_geom_bond_site_symmetry_2
_ccdc_geom_bond_type
Co0 O2 2.143 . S
Co0 O8 2.074 . S
Co0 O11 2.093 . S
Co0 O24 2.097 . S
Co0 N41 2.151 . S
Co0 N49 2.214 . S
Co1 O2 2.160 . S
Co1 O7 2.058 . S
Co1 O17 2.057 . S
Co1 O32 2.037 . S
Co1 N36 2.145 1_545 S
Co1 N57 2.257 . S
O2 Co0 2.143 . S
O2 Co1 2.160 . S
C3 O4 1.278 . S
C3 O11 1.224 . S
O4 C3 1.278 . S
C5 O6 1.245 . S
C5 O17 1.232 . S
O6 C5 1.245 . S
O7 Co1 2.058 . S
O7 C33 1.269 . S
O8 Co0 2.074 . S
O8 C33 1.257 . S
H9 C34 0.930 . S
H10 C40 0.930 . S
O11 Co0 2.093 . S
O11 C3 1.224 . S
H12 C44 0.929 . S
H13 C46 0.930 . S
H14 C47 0.930 . S
H15 C45 0.929 . S
H16 C48 0.928 . S
O17 Co1 2.057 . S
O17 C5 1.232 . S
H18 C37 0.929 1_545 S
H19 C38 0.929 . S
H20 C50 0.931 . S
H21 C42 0.929 . S
H22 C51 0.930 . S
H23 C43 0.931 . S
O24 Co0 2.097 . S
O24 C52 1.214 . S
H25 C53 0.929 . S
H26 C54 0.929 . S
H27 C55 0.930 . S
H28 C56 0.929 . S
H29 C58 0.930 . S
H30 C35 0.930 . S
H31 C39 0.930 . S
O32 Co1 2.037 . S
O32 C52 1.234 . S
C33 O7 1.269 . S
C33 O8 1.257 . S
C34 H9 0.930 . S
C34 C37 1.388 . S
C34 C39 1.418 . S
C35 H30 0.930 . S
C35 C38 1.404 . S
C35 C39 1.353 . S
N36 Co1 2.145 1_565 S
N36 C37 1.397 . S
N36 C38 1.334 . S
C37 H18 0.929 1_565 S
C37 C34 1.388 . S
C37 N36 1.397 . S
C38 H19 0.929 . S
C38 C35 1.404 . S
C38 N36 1.334 . S
C39 H31 0.930 . S
C39 C34 1.418 . S
C39 C35 1.353 . S
C40 H10 0.930 . S
C40 N41 1.330 . S
C40 C42 1.446 . S
N41 Co0 2.151 . S
N41 C40 1.330 . S
N41 C45 1.418 . S
C42 H21 0.929 . S
C42 C40 1.446 . S
C42 C43 1.332 . S
C43 H23 0.931 . S
C43 C42 1.332 . S
C43 C44 1.267 . S
C44 H12 0.929 . S
C44 C43 1.267 . S
C44 C45 1.251 . S
C45 H15 0.929 . S
C45 N41 1.418 . S
C45 C44 1.251 . S
C46 H13 0.930 . S
C46 C48 1.406 . S
C46 C51 1.261 . S
C47 H14 0.930 . S
C47 N49 1.325 . S
C47 C50 1.357 . S
C48 H16 0.928 . S
C48 C46 1.406 . S
C48 N49 1.261 . S
N49 Co0 2.214 . S
N49 C47 1.325 . S
N49 C48 1.261 . S
C50 H20 0.931 . S
C50 C47 1.357 . S
C50 C51 1.312 . S
C51 H22 0.930 . S
C51 C46 1.261 . S
C51 C50 1.312 . S
C52 O24 1.214 . S
C52 O32 1.234 . S
C53 H25 0.929 . S
C53 C56 1.391 1_545 S
C53 C58 1.391 . S
C54 H26 0.929 . S
C54 C55 1.390 . S
C54 N57 1.391 1_565 S
C55 H27 0.930 . S
C55 C54 1.390 . S
C55 C56 1.392 . S
C56 H28 0.929 . S
C56 C53 1.391 1_565 S
C56 C55 1.392 . S
N57 Co1 2.257 . S
N57 C54 1.391 1_545 S
N57 C58 1.388 . S
C58 H29 0.930 . S
C58 C53 1.391 . S
C58 N57 1.388 . S
Co59 O61 2.143 . S
Co59 O67 2.074 . S
Co59 O70 2.093 . S
Co59 O83 2.097 . S
Co59 N100 2.151 . S
Co59 N108 2.214 . S
Co60 O61 2.160 . S
Co60 O66 2.058 . S
Co60 O76 2.057 . S
Co60 O91 2.037 . S
Co60 N95 2.145 1_655 S
Co60 N116 2.257 . S
O61 Co59 2.143 . S
O61 Co60 2.160 . S
C62 O63 1.278 . S
C62 O70 1.224 . S
O63 C62 1.278 . S
C64 O65 1.245 . S
C64 O76 1.232 . S
O65 C64 1.245 . S
O66 Co60 2.058 . S
O66 C92 1.269 . S
O67 Co59 2.074 . S
O67 C92 1.257 . S
H68 C93 0.930 . S
H69 C99 0.930 . S
O70 Co59 2.093 . S
O70 C62 1.224 . S
H71 C103 0.929 . S
H72 C105 0.930 . S
H73 C106 0.930 . S
H74 C104 0.929 . S
H75 C107 0.928 . S
O76 Co60 2.057 . S
O76 C64 1.232 . S
H77 C96 0.929 1_655 S
H78 C97 0.929 . S
H79 C109 0.931 . S
H80 C101 0.929 . S
H81 C110 0.930 . S
H82 C102 0.931 . S
O83 Co59 2.097 . S
O83 C111 1.214 . S
H84 C112 0.929 . S
H85 C113 0.929 . S
H86 C114 0.930 . S
H87 C115 0.929 . S
H88 C117 0.930 . S
H89 C94 0.930 . S
H90 C98 0.930 . S
O91 Co60 2.037 . S
O91 C111 1.234 . S
C92 O66 1.269 . S
C92 O67 1.257 . S
C93 H68 0.930 . S
C93 C96 1.388 . S
C93 C98 1.418 . S
C94 H89 0.930 . S
C94 C97 1.404 . S
C94 C98 1.353 . S
N95 Co60 2.145 1_455 S
N95 C96 1.397 . S
N95 C97 1.334 . S
C96 H77 0.929 1_455 S
C96 C93 1.388 . S
C96 N95 1.397 . S
C97 H78 0.929 . S
C97 C94 1.404 . S
C97 N95 1.334 . S
C98 H90 0.930 . S
C98 C93 1.418 . S
C98 C94 1.353 . S
C99 H69 0.930 . S
C99 N100 1.330 . S
C99 C101 1.446 . S
N100 Co59 2.151 . S
N100 C99 1.330 . S
N100 C104 1.418 . S
C101 H80 0.929 . S
C101 C99 1.446 . S
C101 C102 1.332 . S
C102 H82 0.931 . S
C102 C101 1.332 . S
C102 C103 1.267 . S
C103 H71 0.929 . S
C103 C102 1.267 . S
C103 C104 1.251 . S
C104 H74 0.929 . S
C104 N100 1.418 . S
C104 C103 1.251 . S
C105 H72 0.930 . S
C105 C107 1.406 . S
C105 C110 1.261 . S
C106 H73 0.930 . S
C106 N108 1.325 . S
C106 C109 1.357 . S
C107 H75 0.928 . S
C107 C105 1.406 . S
C107 N108 1.261 . S
N108 Co59 2.214 . S
N108 C106 1.325 . S
N108 C107 1.261 . S
C109 H79 0.931 . S
C109 C106 1.357 . S
C109 C110 1.312 . S
C110 H81 0.930 . S
C110 C105 1.261 . S
C110 C109 1.312 . S
C111 O83 1.214 . S
C111 O91 1.234 . S
C112 H84 0.929 . S
C112 C115 1.391 1_655 S
C112 C117 1.391 . S
C113 H85 0.929 . S
C113 C114 1.390 . S
C113 N116 1.391 1_455 S
C114 H86 0.930 . S
C114 C113 1.390 . S
C114 C115 1.392 . S
C115 H87 0.929 . S
C115 C112 1.391 1_455 S
C115 C114 1.392 . S
N116 Co60 2.257 . S
N116 C113 1.391 1_655 S
N116 C117 1.388 . S
C117 H88 0.930 . S
C117 C112 1.391 . S
C117 N116 1.388 . S
Co118 O120 2.143 . S
Co118 O126 2.074 . S
Co118 O129 2.093 . S
Co118 O142 2.097 . S
Co118 N159 2.151 . S
Co118 N167 2.214 . S
Co119 O120 2.160 . S
Co119 O125 2.058 . S
Co119 O135 2.057 . S
Co119 O150 2.037 . S
Co119 N154 2.145 . S
Co119 N175 2.257 . S
O120 Co118 2.143 . S
O120 Co119 2.160 . S
C121 O122 1.278 . S
C121 O129 1.224 . S
O122 C121 1.278 . S
C123 O124 1.245 . S
C123 O135 1.232 . S
O124 C123 1.245 . S
O125 Co119 2.058 . S
O125 C151 1.269 . S
O126 Co118 2.074 . S
O126 C151 1.257 . S
H127 C152 0.930 . S
H128 C158 0.930 . S
O129 Co118 2.093 . S
O129 C121 1.224 . S
H130 C162 0.929 . S
H131 C164 0.930 . S
H132 C165 0.930 . S
H133 C163 0.929 . S
H134 C166 0.928 . S
O135 Co119 2.057 . S
O135 C123 1.232 . S
H136 C155 0.929 . S
H137 C156 0.929 . S
H138 C168 0.931 . S
H139 C160 0.929 . S
H140 C169 0.930 . S
H141 C161 0.931 . S
O142 Co118 2.097 . S
O142 C170 1.214 . S
H143 C171 0.929 . S
H144 C172 0.929 . S
H145 C173 0.930 . S
H146 C174 0.929 . S
H147 C176 0.930 . S
H148 C153 0.930 . S
H149 C157 0.930 . S
O150 Co119 2.037 . S
O150 C170 1.234 . S
C151 O125 1.269 . S
C151 O126 1.257 . S
C152 H127 0.930 . S
C152 C155 1.388 . S
C152 C157 1.418 . S
C153 H148 0.930 . S
C153 C156 1.404 . S
C153 C157 1.353 . S
N154 Co119 2.145 . S
N154 C155 1.397 . S
N154 C156 1.334 . S
C155 H136 0.929 . S
C155 C152 1.388 . S
C155 N154 1.397 . S
C156 H137 0.929 . S
C156 C153 1.404 . S
C156 N154 1.334 . S
C157 H149 0.930 . S
C157 C152 1.418 . S
C157 C153 1.353 . S
C158 H128 0.930 . S
C158 N159 1.330 . S
C158 C160 1.446 . S
N159 Co118 2.151 . S
N159 C158 1.330 . S
N159 C163 1.418 . S
C160 H139 0.929 . S
C160 C158 1.446 . S
C160 C161 1.332 . S
C161 H141 0.931 . S
C161 C160 1.332 . S
C161 C162 1.267 . S
C162 H130 0.929 . S
C162 C161 1.267 . S
C162 C163 1.251 . S
C163 H133 0.929 . S
C163 N159 1.418 . S
C163 C162 1.251 . S
C164 H131 0.930 . S
C164 C166 1.406 . S
C164 C169 1.261 . S
C165 H132 0.930 . S
C165 N167 1.325 . S
C165 C168 1.357 . S
C166 H134 0.928 . S
C166 C164 1.406 . S
C166 N167 1.261 . S
N167 Co118 2.214 . S
N167 C165 1.325 . S
N167 C166 1.261 . S
C168 H138 0.931 . S
C168 C165 1.357 . S
C168 C169 1.312 . S
C169 H140 0.930 . S
C169 C164 1.261 . S
C169 C168 1.312 . S
C170 O142 1.214 . S
C170 O150 1.234 . S
C171 H143 0.929 . S
C171 C174 1.391 . S
C171 C176 1.391 . S
C172 H144 0.929 . S
C172 C173 1.390 . S
C172 N175 1.391 . S
C173 H145 0.930 . S
C173 C172 1.390 . S
C173 C174 1.392 . S
C174 H146 0.929 . S
C174 C171 1.391 . S
C174 C173 1.392 . S
N175 Co119 2.257 . S
N175 C172 1.391 . S
N175 C176 1.388 . S
C176 H147 0.930 . S
C176 C171 1.391 . S
C176 N175 1.388 . S
Co177 O179 2.143 . S
Co177 O185 2.074 . S
Co177 O188 2.093 . S
Co177 O201 2.097 . S
Co177 N218 2.151 . S
Co177 N226 2.214 . S
Co178 O179 2.160 . S
Co178 O184 2.058 . S
Co178 O194 2.057 . S
Co178 O209 2.037 . S
Co178 N213 2.145 . S
Co178 N234 2.257 . S
O179 Co177 2.143 . S
O179 Co178 2.160 . S
C180 O181 1.278 . S
C180 O188 1.224 . S
O181 C180 1.278 . S
C182 O183 1.245 . S
C182 O194 1.232 . S
O183 C182 1.245 . S
O184 Co178 2.058 . S
O184 C210 1.269 . S
O185 Co177 2.074 . S
O185 C210 1.257 . S
H186 C211 0.930 . S
H187 C217 0.930 . S
O188 Co177 2.093 . S
O188 C180 1.224 . S
H189 C221 0.929 . S
H190 C223 0.930 . S
H191 C224 0.930 . S
H192 C222 0.929 . S
H193 C225 0.928 . S
O194 Co178 2.057 . S
O194 C182 1.232 . S
H195 C214 0.929 . S
H196 C215 0.929 . S
H197 C227 0.931 . S
H198 C219 0.929 . S
H199 C228 0.930 . S
H200 C220 0.931 . S
O201 Co177 2.097 . S
O201 C229 1.214 . S
H202 C230 0.929 . S
H203 C231 0.929 . S
H204 C232 0.930 . S
H205 C233 0.929 . S
H206 C235 0.930 . S
H207 C212 0.930 . S
H208 C216 0.930 . S
O209 Co178 2.037 . S
O209 C229 1.234 . S
C210 O184 1.269 . S
C210 O185 1.257 . S
C211 H186 0.930 . S
C211 C214 1.388 . S
C211 C216 1.418 . S
C212 H207 0.930 . S
C212 C215 1.404 . S
C212 C216 1.353 . S
N213 Co178 2.145 . S
N213 C214 1.397 . S
N213 C215 1.334 . S
C214 H195 0.929 . S
C214 C211 1.388 . S
C214 N213 1.397 . S
C215 H196 0.929 . S
C215 C212 1.404 . S
C215 N213 1.334 . S
C216 H208 0.930 . S
C216 C211 1.418 . S
C216 C212 1.353 . S
C217 H187 0.930 . S
C217 N218 1.330 . S
C217 C219 1.446 . S
N218 Co177 2.151 . S
N218 C217 1.330 . S
N218 C222 1.418 . S
C219 H198 0.929 . S
C219 C217 1.446 . S
C219 C220 1.332 . S
C220 H200 0.931 . S
C220 C219 1.332 . S
C220 C221 1.267 . S
C221 H189 0.929 . S
C221 C220 1.267 . S
C221 C222 1.251 . S
C222 H192 0.929 . S
C222 N218 1.418 . S
C222 C221 1.251 . S
C223 H190 0.930 . S
C223 C225 1.406 . S
C223 C228 1.261 . S
C224 H191 0.930 . S
C224 N226 1.325 . S
C224 C227 1.357 . S
C225 H193 0.928 . S
C225 C223 1.406 . S
C225 N226 1.261 . S
N226 Co177 2.214 . S
N226 C224 1.325 . S
N226 C225 1.261 . S
C227 H197 0.931 . S
C227 C224 1.357 . S
C227 C228 1.312 . S
C228 H199 0.930 . S
C228 C223 1.261 . S
C228 C227 1.312 . S
C229 O201 1.214 . S
C229 O209 1.234 . S
C230 H202 0.929 . S
C230 C233 1.391 . S
C230 C235 1.391 . S
C231 H203 0.929 . S
C231 C232 1.390 . S
C231 N234 1.391 . S
C232 H204 0.930 . S
C232 C231 1.390 . S
C232 C233 1.392 . S
C233 H205 0.929 . S
C233 C230 1.391 . S
C233 C232 1.392 . S
N234 Co178 2.257 . S
N234 C231 1.391 . S
N234 C235 1.388 . S
C235 H206 0.930 . S
C235 C230 1.391 . S
C235 N234 1.388 . S
Co236 O238 2.143 . S
Co236 O244 2.074 . S
Co236 O247 2.093 . S
Co236 O260 2.097 . S
Co236 N277 2.151 . S
Co236 N285 2.214 . S
Co237 O238 2.160 . S
Co237 O243 2.058 . S
Co237 O253 2.057 . S
Co237 O268 2.037 . S
Co237 N272 2.145 . S
Co237 N293 2.257 . S
O238 Co236 2.143 . S
O238 Co237 2.160 . S
C239 O240 1.278 . S
C239 O247 1.224 . S
O240 C239 1.278 . S
C241 O242 1.245 . S
C241 O253 1.232 . S
O242 C241 1.245 . S
O243 Co237 2.058 . S
O243 C269 1.269 . S
O244 Co236 2.074 . S
O244 C269 1.257 . S
H245 C270 0.930 . S
H246 C276 0.930 . S
O247 Co236 2.093 . S
O247 C239 1.224 . S
H248 C280 0.929 . S
H249 C282 0.930 . S
H250 C283 0.930 . S
H251 C281 0.929 . S
H252 C284 0.928 . S
O253 Co237 2.057 . S
O253 C241 1.232 . S
H254 C273 0.929 . S
H255 C274 0.929 . S
H256 C286 0.931 . S
H257 C278 0.929 . S
H258 C287 0.930 . S
H259 C279 0.931 . S
O260 Co236 2.097 . S
O260 C288 1.214 . S
H261 C289 0.929 . S
H262 C290 0.929 . S
H263 C291 0.930 . S
H264 C292 0.929 . S
H265 C294 0.930 . S
H266 C271 0.930 . S
H267 C275 0.930 . S
O268 Co237 2.037 . S
O268 C288 1.234 . S
C269 O243 1.269 . S
C269 O244 1.257 . S
C270 H245 0.930 . S
C270 C273 1.388 . S
C270 C275 1.418 . S
C271 H266 0.930 . S
C271 C274 1.404 . S
C271 C275 1.353 . S
N272 Co237 2.145 . S
N272 C273 1.397 . S
N272 C274 1.334 . S
C273 H254 0.929 . S
C273 C270 1.388 . S
C273 N272 1.397 . S
C274 H255 0.929 . S
C274 C271 1.404 . S
C274 N272 1.334 . S
C275 H267 0.930 . S
C275 C270 1.418 . S
C275 C271 1.353 . S
C276 H246 0.930 . S
C276 N277 1.330 . S
C276 C278 1.446 . S
N277 Co236 2.151 . S
N277 C276 1.330 . S
N277 C281 1.418 . S
C278 H257 0.929 . S
C278 C276 1.446 . S
C278 C279 1.332 . S
C279 H259 0.931 . S
C279 C278 1.332 . S
C279 C280 1.267 . S
C280 H248 0.929 . S
C280 C279 1.267 . S
C280 C281 1.251 . S
C281 H251 0.929 . S
C281 N277 1.418 . S
C281 C280 1.251 . S
C282 H249 0.930 . S
C282 C284 1.406 . S
C282 C287 1.261 . S
C283 H250 0.930 . S
C283 N285 1.325 . S
C283 C286 1.357 . S
C284 H252 0.928 . S
C284 C282 1.406 . S
C284 N285 1.261 . S
N285 Co236 2.214 . S
N285 C283 1.325 . S
N285 C284 1.261 . S
C286 H256 0.931 . S
C286 C283 1.357 . S
C286 C287 1.312 . S
C287 H258 0.930 . S
C287 C282 1.261 . S
C287 C286 1.312 . S
C288 O260 1.214 . S
C288 O268 1.234 . S
C289 H261 0.929 . S
C289 C292 1.391 . S
C289 C294 1.391 . S
C290 H262 0.929 . S
C290 C291 1.390 . S
C290 N293 1.391 . S
C291 H263 0.930 . S
C291 C290 1.390 . S
C291 C292 1.392 . S
C292 H264 0.929 . S
C292 C289 1.391 . S
C292 C291 1.392 . S
N293 Co237 2.257 . S
N293 C290 1.391 . S
N293 C294 1.388 . S
C294 H265 0.930 . S
C294 C289 1.391 . S
C294 N293 1.388 . S
Co295 O297 2.143 . S
Co295 O303 2.074 . S
Co295 O306 2.093 . S
Co295 O319 2.097 . S
Co295 N336 2.151 . S
Co295 N344 2.214 . S
Co296 O297 2.160 . S
Co296 O302 2.058 . S
Co296 O312 2.057 . S
Co296 O327 2.037 . S
Co296 N331 2.145 . S
Co296 N352 2.257 . S
O297 Co295 2.143 . S
O297 Co296 2.160 . S
C298 O299 1.278 . S
C298 O306 1.224 . S
O299 C298 1.278 . S
C300 O301 1.245 . S
C300 O312 1.232 . S
O301 C300 1.245 . S
O302 Co296 2.058 . S
O302 C328 1.269 . S
O303 Co295 2.074 . S
O303 C328 1.257 . S
H304 C329 0.930 . S
H305 C335 0.930 . S
O306 Co295 2.093 . S
O306 C298 1.224 . S
H307 C339 0.929 . S
H308 C341 0.930 . S
H309 C342 0.930 . S
H310 C340 0.929 . S
H311 C343 0.928 . S
O312 Co296 2.057 . S
O312 C300 1.232 . S
H313 C332 0.929 . S
H314 C333 0.929 . S
H315 C345 0.931 . S
H316 C337 0.929 . S
H317 C346 0.930 . S
H318 C338 0.931 . S
O319 Co295 2.097 . S
O319 C347 1.214 . S
H320 C348 0.929 . S
H321 C349 0.929 . S
H322 C350 0.930 . S
H323 C351 0.929 . S
H324 C353 0.930 . S
H325 C330 0.930 . S
H326 C334 0.930 . S
O327 Co296 2.037 . S
O327 C347 1.234 . S
C328 O302 1.269 . S
C328 O303 1.257 . S
C329 H304 0.930 . S
C329 C332 1.388 . S
C329 C334 1.418 . S
C330 H325 0.930 . S
C330 C333 1.404 . S
C330 C334 1.353 . S
N331 Co296 2.145 . S
N331 C332 1.397 . S
N331 C333 1.334 . S
C332 H313 0.929 . S
C332 C329 1.388 . S
C332 N331 1.397 . S
C333 H314 0.929 . S
C333 C330 1.404 . S
C333 N331 1.334 . S
C334 H326 0.930 . S
C334 C329 1.418 . S
C334 C330 1.353 . S
C335 H305 0.930 . S
C335 N336 1.330 . S
C335 C337 1.446 . S
N336 Co295 2.151 . S
N336 C335 1.330 . S
N336 C340 1.418 . S
C337 H316 0.929 . S
C337 C335 1.446 . S
C337 C338 1.332 . S
C338 H318 0.931 . S
C338 C337 1.332 . S
C338 C339 1.267 . S
C339 H307 0.929 . S
C339 C338 1.267 . S
C339 C340 1.251 . S
C340 H310 0.929 . S
C340 N336 1.418 . S
C340 C339 1.251 . S
C341 H308 0.930 . S
C341 C343 1.406 . S
C341 C346 1.261 . S
C342 H309 0.930 . S
C342 N344 1.325 . S
C342 C345 1.357 . S
C343 H311 0.928 . S
C343 C341 1.406 . S
C343 N344 1.261 . S
N344 Co295 2.214 . S
N344 C342 1.325 . S
N344 C343 1.261 . S
C345 H315 0.931 . S
C345 C342 1.357 . S
C345 C346 1.312 . S
C346 H317 0.930 . S
C346 C341 1.261 . S
C346 C345 1.312 . S
C347 O319 1.214 . S
C347 O327 1.234 . S
C348 H320 0.929 . S
C348 C351 1.391 . S
C348 C353 1.391 . S
C349 H321 0.929 . S
C349 C350 1.390 . S
C349 N352 1.391 . S
C350 H322 0.930 . S
C350 C349 1.390 . S
C350 C351 1.392 . S
C351 H323 0.929 . S
C351 C348 1.391 . S
C351 C350 1.392 . S
N352 Co296 2.257 . S
N352 C349 1.391 . S
N352 C353 1.388 . S
C353 H324 0.930 . S
C353 C348 1.391 . S
C353 N352 1.388 . S
Co354 O356 2.143 . S
Co354 O362 2.074 . S
Co354 O365 2.093 . S
Co354 O378 2.097 . S
Co354 N395 2.151 . S
Co354 N403 2.214 . S
Co355 O356 2.160 . S
Co355 O361 2.058 . S
Co355 O371 2.057 . S
Co355 O386 2.037 . S
Co355 N390 2.145 1_545 S
Co355 N411 2.257 . S
O356 Co354 2.143 . S
O356 Co355 2.160 . S
C357 O358 1.278 . S
C357 O365 1.224 . S
O358 C357 1.278 . S
C359 O360 1.245 . S
C359 O371 1.232 . S
O360 C359 1.245 . S
O361 Co355 2.058 . S
O361 C387 1.269 . S
O362 Co354 2.074 . S
O362 C387 1.257 . S
H363 C388 0.930 . S
H364 C394 0.930 . S
O365 Co354 2.093 . S
O365 C357 1.224 . S
H366 C398 0.929 . S
H367 C400 0.930 . S
H368 C401 0.930 . S
H369 C399 0.929 . S
H370 C402 0.928 . S
O371 Co355 2.057 . S
O371 C359 1.232 . S
H372 C391 0.929 1_545 S
H373 C392 0.929 . S
H374 C404 0.931 . S
H375 C396 0.929 . S
H376 C405 0.930 . S
H377 C397 0.931 . S
O378 Co354 2.097 . S
O378 C406 1.214 . S
H379 C407 0.929 . S
H380 C408 0.929 . S
H381 C409 0.930 . S
H382 C410 0.929 . S
H383 C412 0.930 . S
H384 C389 0.930 . S
H385 C393 0.930 . S
O386 Co355 2.037 . S
O386 C406 1.234 . S
C387 O361 1.269 . S
C387 O362 1.257 . S
C388 H363 0.930 . S
C388 C391 1.388 . S
C388 C393 1.418 . S
C389 H384 0.930 . S
C389 C392 1.404 . S
C389 C393 1.353 . S
N390 Co355 2.145 1_565 S
N390 C391 1.397 . S
N390 C392 1.334 . S
C391 H372 0.929 1_565 S
C391 C388 1.388 . S
C391 N390 1.397 . S
C392 H373 0.929 . S
C392 C389 1.404 . S
C392 N390 1.334 . S
C393 H385 0.930 . S
C393 C388 1.418 . S
C393 C389 1.353 . S
C394 H364 0.930 . S
C394 N395 1.330 . S
C394 C396 1.446 . S
N395 Co354 2.151 . S
N395 C394 1.330 . S
N395 C399 1.418 . S
C396 H375 0.929 . S
C396 C394 1.446 . S
C396 C397 1.332 . S
C397 H377 0.931 . S
C397 C396 1.332 . S
C397 C398 1.267 . S
C398 H366 0.929 . S
C398 C397 1.267 . S
C398 C399 1.251 . S
C399 H369 0.929 . S
C399 N395 1.418 . S
C399 C398 1.251 . S
C400 H367 0.930 . S
C400 C402 1.406 . S
C400 C405 1.261 . S
C401 H368 0.930 . S
C401 N403 1.325 . S
C401 C404 1.357 . S
C402 H370 0.928 . S
C402 C400 1.406 . S
C402 N403 1.261 . S
N403 Co354 2.214 . S
N403 C401 1.325 . S
N403 C402 1.261 . S
C404 H374 0.931 . S
C404 C401 1.357 . S
C404 C405 1.312 . S
C405 H376 0.930 . S
C405 C400 1.261 . S
C405 C404 1.312 . S
C406 O378 1.214 . S
C406 O386 1.234 . S
C407 H379 0.929 . S
C407 C410 1.391 1_545 S
C407 C412 1.391 . S
C408 H380 0.929 . S
C408 C409 1.390 . S
C408 N411 1.391 1_565 S
C409 H381 0.930 . S
C409 C408 1.390 . S
C409 C410 1.392 . S
C410 H382 0.929 . S
C410 C407 1.391 1_565 S
C410 C409 1.392 . S
N411 Co355 2.257 . S
N411 C408 1.391 1_545 S
N411 C412 1.388 . S
C412 H383 0.930 . S
C412 C407 1.391 . S
C412 N411 1.388 . S
Co413 O415 2.143 . S
Co413 O421 2.074 . S
Co413 O424 2.093 . S
Co413 O437 2.097 . S
Co413 N454 2.151 . S
Co413 N462 2.214 . S
Co414 O415 2.160 . S
Co414 O420 2.058 . S
Co414 O430 2.057 . S
Co414 O445 2.037 . S
Co414 N449 2.145 1_655 S
Co414 N470 2.257 . S
O415 Co413 2.143 . S
O415 Co414 2.160 . S
C416 O417 1.278 . S
C416 O424 1.224 . S
O417 C416 1.278 . S
C418 O419 1.245 . S
C418 O430 1.232 . S
O419 C418 1.245 . S
O420 Co414 2.058 . S
O420 C446 1.269 . S
O421 Co413 2.074 . S
O421 C446 1.257 . S
H422 C447 0.930 . S
H423 C453 0.930 . S
O424 Co413 2.093 . S
O424 C416 1.224 . S
H425 C457 0.929 . S
H426 C459 0.930 . S
H427 C460 0.930 . S
H428 C458 0.929 . S
H429 C461 0.928 . S
O430 Co414 2.057 . S
O430 C418 1.232 . S
H431 C450 0.929 1_655 S
H432 C451 0.929 . S
H433 C463 0.931 . S
H434 C455 0.929 . S
H435 C464 0.930 . S
H436 C456 0.931 . S
O437 Co413 2.097 . S
O437 C465 1.214 . S
H438 C466 0.929 . S
H439 C467 0.929 . S
H440 C468 0.930 . S
H441 C469 0.929 . S
H442 C471 0.930 . S
H443 C448 0.930 . S
H444 C452 0.930 . S
O445 Co414 2.037 . S
O445 C465 1.234 . S
C446 O420 1.269 . S
C446 O421 1.257 . S
C447 H422 0.930 . S
C447 C450 1.388 . S
C447 C452 1.418 . S
C448 H443 0.930 . S
C448 C451 1.404 . S
C448 C452 1.353 . S
N449 Co414 2.145 1_455 S
N449 C450 1.397 . S
N449 C451 1.334 . S
C450 H431 0.929 1_455 S
C450 C447 1.388 . S
C450 N449 1.397 . S
C451 H432 0.929 . S
C451 C448 1.404 . S
C451 N449 1.334 . S
C452 H444 0.930 . S
C452 C447 1.418 . S
C452 C448 1.353 . S
C453 H423 0.930 . S
C453 N454 1.330 . S
C453 C455 1.446 . S
N454 Co413 2.151 . S
N454 C453 1.330 . S
N454 C458 1.418 . S
C455 H434 0.929 . S
C455 C453 1.446 . S
C455 C456 1.332 . S
C456 H436 0.931 . S
C456 C455 1.332 . S
C456 C457 1.267 . S
C457 H425 0.929 . S
C457 C456 1.267 . S
C457 C458 1.251 . S
C458 H428 0.929 . S
C458 N454 1.418 . S
C458 C457 1.251 . S
C459 H426 0.930 . S
C459 C461 1.406 . S
C459 C464 1.261 . S
C460 H427 0.930 . S
C460 N462 1.325 . S
C460 C463 1.357 . S
C461 H429 0.928 . S
C461 C459 1.406 . S
C461 N462 1.261 . S
N462 Co413 2.214 . S
N462 C460 1.325 . S
N462 C461 1.261 . S
C463 H433 0.931 . S
C463 C460 1.357 . S
C463 C464 1.312 . S
C464 H435 0.930 . S
C464 C459 1.261 . S
C464 C463 1.312 . S
C465 O437 1.214 . S
C465 O445 1.234 . S
C466 H438 0.929 . S
C466 C469 1.391 1_655 S
C466 C471 1.391 . S
C467 H439 0.929 . S
C467 C468 1.390 . S
C467 N470 1.391 1_455 S
C468 H440 0.930 . S
C468 C467 1.390 . S
C468 C469 1.392 . S
C469 H441 0.929 . S
C469 C466 1.391 1_455 S
C469 C468 1.392 . S
N470 Co414 2.257 . S
N470 C467 1.391 1_655 S
N470 C471 1.388 . S
C471 H442 0.930 . S
C471 C466 1.391 . S
C471 N470 1.388 . S
Co472 O474 2.143 . S
Co472 O480 2.074 . S
Co472 O483 2.093 . S
Co472 O496 2.097 . S
Co472 N513 2.151 . S
Co472 N521 2.214 . S
Co473 O474 2.160 . S
Co473 O479 2.058 . S
Co473 O489 2.057 . S
Co473 O504 2.037 . S
Co473 N508 2.145 . S
Co473 N529 2.257 . S
O474 Co472 2.143 . S
O474 Co473 2.160 . S
C475 O476 1.278 . S
C475 O483 1.224 . S
O476 C475 1.278 . S
C477 O478 1.245 . S
C477 O489 1.232 . S
O478 C477 1.245 . S
O479 Co473 2.058 . S
O479 C505 1.269 . S
O480 Co472 2.074 . S
O480 C505 1.257 . S
H481 C506 0.930 . S
H482 C512 0.930 . S
O483 Co472 2.093 . S
O483 C475 1.224 . S
H484 C516 0.929 . S
H485 C518 0.930 . S
H486 C519 0.930 . S
H487 C517 0.929 . S
H488 C520 0.928 . S
O489 Co473 2.057 . S
O489 C477 1.232 . S
H490 C509 0.929 . S
H491 C510 0.929 . S
H492 C522 0.931 . S
H493 C514 0.929 . S
H494 C523 0.930 . S
H495 C515 0.931 . S
O496 Co472 2.097 . S
O496 C524 1.214 . S
H497 C525 0.929 . S
H498 C526 0.929 . S
H499 C527 0.930 . S
H500 C528 0.929 . S
H501 C530 0.930 . S
H502 C507 0.930 . S
H503 C511 0.930 . S
O504 Co473 2.037 . S
O504 C524 1.234 . S
C505 O479 1.269 . S
C505 O480 1.257 . S
C506 H481 0.930 . S
C506 C509 1.388 . S
C506 C511 1.418 . S
C507 H502 0.930 . S
C507 C510 1.404 . S
C507 C511 1.353 . S
N508 Co473 2.145 . S
N508 C509 1.397 . S
N508 C510 1.334 . S
C509 H490 0.929 . S
C509 C506 1.388 . S
C509 N508 1.397 . S
C510 H491 0.929 . S
C510 C507 1.404 . S
C510 N508 1.334 . S
C511 H503 0.930 . S
C511 C506 1.418 . S
C511 C507 1.353 . S
C512 H482 0.930 . S
C512 N513 1.330 . S
C512 C514 1.446 . S
N513 Co472 2.151 . S
N513 C512 1.330 . S
N513 C517 1.418 . S
C514 H493 0.929 . S
C514 C512 1.446 . S
C514 C515 1.332 . S
C515 H495 0.931 . S
C515 C514 1.332 . S
C515 C516 1.267 . S
C516 H484 0.929 . S
C516 C515 1.267 . S
C516 C517 1.251 . S
C517 H487 0.929 . S
C517 N513 1.418 . S
C517 C516 1.251 . S
C518 H485 0.930 . S
C518 C520 1.406 . S
C518 C523 1.261 . S
C519 H486 0.930 . S
C519 N521 1.325 . S
C519 C522 1.357 . S
C520 H488 0.928 . S
C520 C518 1.406 . S
C520 N521 1.261 . S
N521 Co472 2.214 . S
N521 C519 1.325 . S
N521 C520 1.261 . S
C522 H492 0.931 . S
C522 C519 1.357 . S
C522 C523 1.312 . S
C523 H494 0.930 . S
C523 C518 1.261 . S
C523 C522 1.312 . S
C524 O496 1.214 . S
C524 O504 1.234 . S
C525 H497 0.929 . S
C525 C528 1.391 . S
C525 C530 1.391 . S
C526 H498 0.929 . S
C526 C527 1.390 . S
C526 N529 1.391 . S
C527 H499 0.930 . S
C527 C526 1.390 . S
C527 C528 1.392 . S
C528 H500 0.929 . S
C528 C525 1.391 . S
C528 C527 1.392 . S
N529 Co473 2.257 . S
N529 C526 1.391 . S
N529 C530 1.388 . S
C530 H501 0.930 . S
C530 C525 1.391 . S
C530 N529 1.388 . S
Co531 O533 2.143 . S
Co531 O539 2.074 . S
Co531 O542 2.093 . S
Co531 O555 2.097 . S
Co531 N572 2.151 . S
Co531 N580 2.214 . S
Co532 O533 2.160 . S
Co532 O538 2.058 . S
Co532 O548 2.057 . S
Co532 O563 2.037 . S
Co532 N567 2.145 . S
Co532 N588 2.257 . S
O533 Co531 2.143 . S
O533 Co532 2.160 . S
C534 O535 1.278 . S
C534 O542 1.224 . S
O535 C534 1.278 . S
C536 O537 1.245 . S
C536 O548 1.232 . S
O537 C536 1.245 . S
O538 Co532 2.058 . S
O538 C564 1.269 . S
O539 Co531 2.074 . S
O539 C564 1.257 . S
H540 C565 0.930 . S
H541 C571 0.930 . S
O542 Co531 2.093 . S
O542 C534 1.224 . S
H543 C575 0.929 . S
H544 C577 0.930 . S
H545 C578 0.930 . S
H546 C576 0.929 . S
H547 C579 0.928 . S
O548 Co532 2.057 . S
O548 C536 1.232 . S
H549 C568 0.929 . S
H550 C569 0.929 . S
H551 C581 0.931 . S
H552 C573 0.929 . S
H553 C582 0.930 . S
H554 C574 0.931 . S
O555 Co531 2.097 . S
O555 C583 1.214 . S
H556 C584 0.929 . S
H557 C585 0.929 . S
H558 C586 0.930 . S
H559 C587 0.929 . S
H560 C589 0.930 . S
H561 C566 0.930 . S
H562 C570 0.930 . S
O563 Co532 2.037 . S
O563 C583 1.234 . S
C564 O538 1.269 . S
C564 O539 1.257 . S
C565 H540 0.930 . S
C565 C568 1.388 . S
C565 C570 1.418 . S
C566 H561 0.930 . S
C566 C569 1.404 . S
C566 C570 1.353 . S
N567 Co532 2.145 . S
N567 C568 1.397 . S
N567 C569 1.334 . S
C568 H549 0.929 . S
C568 C565 1.388 . S
C568 N567 1.397 . S
C569 H550 0.929 . S
C569 C566 1.404 . S
C569 N567 1.334 . S
C570 H562 0.930 . S
C570 C565 1.418 . S
C570 C566 1.353 . S
C571 H541 0.930 . S
C571 N572 1.330 . S
C571 C573 1.446 . S
N572 Co531 2.151 . S
N572 C571 1.330 . S
N572 C576 1.418 . S
C573 H552 0.929 . S
C573 C571 1.446 . S
C573 C574 1.332 . S
C574 H554 0.931 . S
C574 C573 1.332 . S
C574 C575 1.267 . S
C575 H543 0.929 . S
C575 C574 1.267 . S
C575 C576 1.251 . S
C576 H546 0.929 . S
C576 N572 1.418 . S
C576 C575 1.251 . S
C577 H544 0.930 . S
C577 C579 1.406 . S
C577 C582 1.261 . S
C578 H545 0.930 . S
C578 N580 1.325 . S
C578 C581 1.357 . S
C579 H547 0.928 . S
C579 C577 1.406 . S
C579 N580 1.261 . S
N580 Co531 2.214 . S
N580 C578 1.325 . S
N580 C579 1.261 . S
C581 H551 0.931 . S
C581 C578 1.357 . S
C581 C582 1.312 . S
C582 H553 0.930 . S
C582 C577 1.261 . S
C582 C581 1.312 . S
C583 O555 1.214 . S
C583 O563 1.234 . S
C584 H556 0.929 . S
C584 C587 1.391 . S
C584 C589 1.391 . S
C585 H557 0.929 . S
C585 C586 1.390 . S
C585 N588 1.391 . S
C586 H558 0.930 . S
C586 C585 1.390 . S
C586 C587 1.392 . S
C587 H559 0.929 . S
C587 C584 1.391 . S
C587 C586 1.392 . S
N588 Co532 2.257 . S
N588 C585 1.391 . S
N588 C589 1.388 . S
C589 H560 0.930 . S
C589 C584 1.391 . S
C589 N588 1.388 . S
Co590 O592 2.143 . S
Co590 O598 2.074 . S
Co590 O601 2.093 . S
Co590 O614 2.097 . S
Co590 N631 2.151 . S
Co590 N639 2.214 . S
Co591 O592 2.160 . S
Co591 O597 2.058 . S
Co591 O607 2.057 . S
Co591 O622 2.037 . S
Co591 N626 2.145 1_565 S
Co591 N647 2.257 . S
O592 Co590 2.143 . S
O592 Co591 2.160 . S
C593 O594 1.278 . S
C593 O601 1.224 . S
O594 C593 1.278 . S
C595 O596 1.245 . S
C595 O607 1.232 . S
O596 C595 1.245 . S
O597 Co591 2.058 . S
O597 C623 1.269 . S
O598 Co590 2.074 . S
O598 C623 1.257 . S
H599 C624 0.930 . S
H600 C630 0.930 . S
O601 Co590 2.093 . S
O601 C593 1.224 . S
H602 C634 0.929 . S
H603 C636 0.930 . S
H604 C637 0.930 . S
H605 C635 0.929 . S
H606 C638 0.928 . S
O607 Co591 2.057 . S
O607 C595 1.232 . S
H608 C627 0.929 1_565 S
H609 C628 0.929 . S
H610 C640 0.931 . S
H611 C632 0.929 . S
H612 C641 0.930 . S
H613 C633 0.931 . S
O614 Co590 2.097 . S
O614 C642 1.214 . S
H615 C643 0.929 . S
H616 C644 0.929 . S
H617 C645 0.930 . S
H618 C646 0.929 . S
H619 C648 0.930 . S
H620 C625 0.930 . S
H621 C629 0.930 . S
O622 Co591 2.037 . S
O622 C642 1.234 . S
C623 O597 1.269 . S
C623 O598 1.257 . S
C624 H599 0.930 . S
C624 C627 1.388 . S
C624 C629 1.418 . S
C625 H620 0.930 . S
C625 C628 1.404 . S
C625 C629 1.353 . S
N626 Co591 2.145 1_545 S
N626 C627 1.397 . S
N626 C628 1.334 . S
C627 H608 0.929 1_545 S
C627 C624 1.388 . S
C627 N626 1.397 . S
C628 H609 0.929 . S
C628 C625 1.404 . S
C628 N626 1.334 . S
C629 H621 0.930 . S
C629 C624 1.418 . S
C629 C625 1.353 . S
C630 H600 0.930 . S
C630 N631 1.330 . S
C630 C632 1.446 . S
N631 Co590 2.151 . S
N631 C630 1.330 . S
N631 C635 1.418 . S
C632 H611 0.929 . S
C632 C630 1.446 . S
C632 C633 1.332 . S
C633 H613 0.931 . S
C633 C632 1.332 . S
C633 C634 1.267 . S
C634 H602 0.929 . S
C634 C633 1.267 . S
C634 C635 1.251 . S
C635 H605 0.929 . S
C635 N631 1.418 . S
C635 C634 1.251 . S
C636 H603 0.930 . S
C636 C638 1.406 . S
C636 C641 1.261 . S
C637 H604 0.930 . S
C637 N639 1.325 . S
C637 C640 1.357 . S
C638 H606 0.928 . S
C638 C636 1.406 . S
C638 N639 1.261 . S
N639 Co590 2.214 . S
N639 C637 1.325 . S
N639 C638 1.261 . S
C640 H610 0.931 . S
C640 C637 1.357 . S
C640 C641 1.312 . S
C641 H612 0.930 . S
C641 C636 1.261 . S
C641 C640 1.312 . S
C642 O614 1.214 . S
C642 O622 1.234 . S
C643 H615 0.929 . S
C643 C646 1.391 1_565 S
C643 C648 1.391 . S
C644 H616 0.929 . S
C644 C645 1.390 . S
C644 N647 1.391 1_545 S
C645 H617 0.930 . S
C645 C644 1.390 . S
C645 C646 1.392 . S
C646 H618 0.929 . S
C646 C643 1.391 1_545 S
C646 C645 1.392 . S
N647 Co591 2.257 . S
N647 C644 1.391 1_565 S
N647 C648 1.388 . S
C648 H619 0.930 . S
C648 C643 1.391 . S
C648 N647 1.388 . S
Co649 O651 2.143 . S
Co649 O657 2.074 . S
Co649 O660 2.093 . S
Co649 O673 2.097 . S
Co649 N690 2.151 . S
Co649 N698 2.214 . S
Co650 O651 2.160 . S
Co650 O656 2.058 . S
Co650 O666 2.057 . S
Co650 O681 2.037 . S
Co650 N685 2.145 1_455 S
Co650 N706 2.257 . S
O651 Co649 2.143 . S
O651 Co650 2.160 . S
C652 O653 1.278 . S
C652 O660 1.224 . S
O653 C652 1.278 . S
C654 O655 1.245 . S
C654 O666 1.232 . S
O655 C654 1.245 . S
O656 Co650 2.058 . S
O656 C682 1.269 . S
O657 Co649 2.074 . S
O657 C682 1.257 . S
H658 C683 0.930 . S
H659 C689 0.930 . S
O660 Co649 2.093 . S
O660 C652 1.224 . S
H661 C693 0.929 . S
H662 C695 0.930 . S
H663 C696 0.930 . S
H664 C694 0.929 . S
H665 C697 0.928 . S
O666 Co650 2.057 . S
O666 C654 1.232 . S
H667 C686 0.929 1_455 S
H668 C687 0.929 . S
H669 C699 0.931 . S
H670 C691 0.929 . S
H671 C700 0.930 . S
H672 C692 0.931 . S
O673 Co649 2.097 . S
O673 C701 1.214 . S
H674 C702 0.929 . S
H675 C703 0.929 . S
H676 C704 0.930 . S
H677 C705 0.929 . S
H678 C707 0.930 . S
H679 C684 0.930 . S
H680 C688 0.930 . S
O681 Co650 2.037 . S
O681 C701 1.234 . S
C682 O656 1.269 . S
C682 O657 1.257 . S
C683 H658 0.930 . S
C683 C686 1.388 . S
C683 C688 1.418 . S
C684 H679 0.930 . S
C684 C687 1.404 . S
C684 C688 1.353 . S
N685 Co650 2.145 1_655 S
N685 C686 1.397 . S
N685 C687 1.334 . S
C686 H667 0.929 1_655 S
C686 C683 1.388 . S
C686 N685 1.397 . S
C687 H668 0.929 . S
C687 C684 1.404 . S
C687 N685 1.334 . S
C688 H680 0.930 . S
C688 C683 1.418 . S
C688 C684 1.353 . S
C689 H659 0.930 . S
C689 N690 1.330 . S
C689 C691 1.446 . S
N690 Co649 2.151 . S
N690 C689 1.330 . S
N690 C694 1.418 . S
C691 H670 0.929 . S
C691 C689 1.446 . S
C691 C692 1.332 . S
C692 H672 0.931 . S
C692 C691 1.332 . S
C692 C693 1.267 . S
C693 H661 0.929 . S
C693 C692 1.267 . S
C693 C694 1.251 . S
C694 H664 0.929 . S
C694 N690 1.418 . S
C694 C693 1.251 . S
C695 H662 0.930 . S
C695 C697 1.406 . S
C695 C700 1.261 . S
C696 H663 0.930 . S
C696 N698 1.325 . S
C696 C699 1.357 . S
C697 H665 0.928 . S
C697 C695 1.406 . S
C697 N698 1.261 . S
N698 Co649 2.214 . S
N698 C696 1.325 . S
N698 C697 1.261 . S
C699 H669 0.931 . S
C699 C696 1.357 . S
C699 C700 1.312 . S
C700 H671 0.930 . S
C700 C695 1.261 . S
C700 C699 1.312 . S
C701 O673 1.214 . S
C701 O681 1.234 . S
C702 H674 0.929 . S
C702 C705 1.391 1_455 S
C702 C707 1.391 . S
C703 H675 0.929 . S
C703 C704 1.390 . S
C703 N706 1.391 1_655 S
C704 H676 0.930 . S
C704 C703 1.390 . S
C704 C705 1.392 . S
C705 H677 0.929 . S
C705 C702 1.391 1_655 S
C705 C704 1.392 . S
N706 Co650 2.257 . S
N706 C703 1.391 1_455 S
N706 C707 1.388 . S
C707 H678 0.930 . S
C707 C702 1.391 . S
C707 N706 1.388 . S
Co708 O710 2.143 . S
Co708 O716 2.074 . S
Co708 O719 2.093 . S
Co708 O732 2.097 . S
Co708 N749 2.151 . S
Co708 N757 2.214 . S
Co709 O710 2.160 . S
Co709 O715 2.058 . S
Co709 O725 2.057 . S
Co709 O740 2.037 . S
Co709 N744 2.145 1_565 S
Co709 N765 2.257 . S
O710 Co708 2.143 . S
O710 Co709 2.160 . S
C711 O712 1.278 . S
C711 O719 1.224 . S
O712 C711 1.278 . S
C713 O714 1.245 . S
C713 O725 1.232 . S
O714 C713 1.245 . S
O715 Co709 2.058 . S
O715 C741 1.269 . S
O716 Co708 2.074 . S
O716 C741 1.257 . S
H717 C742 0.930 . S
H718 C748 0.930 . S
O719 Co708 2.093 . S
O719 C711 1.224 . S
H720 C752 0.929 . S
H721 C754 0.930 . S
H722 C755 0.930 . S
H723 C753 0.929 . S
H724 C756 0.928 . S
O725 Co709 2.057 . S
O725 C713 1.232 . S
H726 C745 0.929 1_565 S
H727 C746 0.929 . S
H728 C758 0.931 . S
H729 C750 0.929 . S
H730 C759 0.930 . S
H731 C751 0.931 . S
O732 Co708 2.097 . S
O732 C760 1.214 . S
H733 C761 0.929 . S
H734 C762 0.929 . S
H735 C763 0.930 . S
H736 C764 0.929 . S
H737 C766 0.930 . S
H738 C743 0.930 . S
H739 C747 0.930 . S
O740 Co709 2.037 . S
O740 C760 1.234 . S
C741 O715 1.269 . S
C741 O716 1.257 . S
C742 H717 0.930 . S
C742 C745 1.388 . S
C742 C747 1.418 . S
C743 H738 0.930 . S
C743 C746 1.404 . S
C743 C747 1.353 . S
N744 Co709 2.145 1_545 S
N744 C745 1.397 . S
N744 C746 1.334 . S
C745 H726 0.929 1_545 S
C745 C742 1.388 . S
C745 N744 1.397 . S
C746 H727 0.929 . S
C746 C743 1.404 . S
C746 N744 1.334 . S
C747 H739 0.930 . S
C747 C742 1.418 . S
C747 C743 1.353 . S
C748 H718 0.930 . S
C748 N749 1.330 . S
C748 C750 1.446 . S
N749 Co708 2.151 . S
N749 C748 1.330 . S
N749 C753 1.418 . S
C750 H729 0.929 . S
C750 C748 1.446 . S
C750 C751 1.332 . S
C751 H731 0.931 . S
C751 C750 1.332 . S
C751 C752 1.267 . S
C752 H720 0.929 . S
C752 C751 1.267 . S
C752 C753 1.251 . S
C753 H723 0.929 . S
C753 N749 1.418 . S
C753 C752 1.251 . S
C754 H721 0.930 . S
C754 C756 1.406 . S
C754 C759 1.261 . S
C755 H722 0.930 . S
C755 N757 1.325 . S
C755 C758 1.357 . S
C756 H724 0.928 . S
C756 C754 1.406 . S
C756 N757 1.261 . S
N757 Co708 2.214 . S
N757 C755 1.325 . S
N757 C756 1.261 . S
C758 H728 0.931 . S
C758 C755 1.357 . S
C758 C759 1.312 . S
C759 H730 0.930 . S
C759 C754 1.261 . S
C759 C758 1.312 . S
C760 O732 1.214 . S
C760 O740 1.234 . S
C761 H733 0.929 . S
C761 C764 1.391 1_565 S
C761 C766 1.391 . S
C762 H734 0.929 . S
C762 C763 1.390 . S
C762 N765 1.391 1_545 S
C763 H735 0.930 . S
C763 C762 1.390 . S
C763 C764 1.392 . S
C764 H736 0.929 . S
C764 C761 1.391 1_545 S
C764 C763 1.392 . S
N765 Co709 2.257 . S
N765 C762 1.391 1_565 S
N765 C766 1.388 . S
C766 H737 0.930 . S
C766 C761 1.391 . S
C766 N765 1.388 . S
Co767 O769 2.143 . S
Co767 O775 2.074 . S
Co767 O778 2.093 . S
Co767 O791 2.097 . S
Co767 N808 2.151 . S
Co767 N816 2.214 . S
Co768 O769 2.160 . S
Co768 O774 2.058 . S
Co768 O784 2.057 . S
Co768 O799 2.037 . S
Co768 N803 2.145 1_455 S
Co768 N824 2.257 . S
O769 Co767 2.143 . S
O769 Co768 2.160 . S
C770 O771 1.278 . S
C770 O778 1.224 . S
O771 C770 1.278 . S
C772 O773 1.245 . S
C772 O784 1.232 . S
O773 C772 1.245 . S
O774 Co768 2.058 . S
O774 C800 1.269 . S
O775 Co767 2.074 . S
O775 C800 1.257 . S
H776 C801 0.930 . S
H777 C807 0.930 . S
O778 Co767 2.093 . S
O778 C770 1.224 . S
H779 C811 0.929 . S
H780 C813 0.930 . S
H781 C814 0.930 . S
H782 C812 0.929 . S
H783 C815 0.928 . S
O784 Co768 2.057 . S
O784 C772 1.232 . S
H785 C804 0.929 1_455 S
H786 C805 0.929 . S
H787 C817 0.931 . S
H788 C809 0.929 . S
H789 C818 0.930 . S
H790 C810 0.931 . S
O791 Co767 2.097 . S
O791 C819 1.214 . S
H792 C820 0.929 . S
H793 C821 0.929 . S
H794 C822 0.930 . S
H795 C823 0.929 . S
H796 C825 0.930 . S
H797 C802 0.930 . S
H798 C806 0.930 . S
O799 Co768 2.037 . S
O799 C819 1.234 . S
C800 O774 1.269 . S
C800 O775 1.257 . S
C801 H776 0.930 . S
C801 C804 1.388 . S
C801 C806 1.418 . S
C802 H797 0.930 . S
C802 C805 1.404 . S
C802 C806 1.353 . S
N803 Co768 2.145 1_655 S
N803 C804 1.397 . S
N803 C805 1.334 . S
C804 H785 0.929 1_655 S
C804 C801 1.388 . S
C804 N803 1.397 . S
C805 H786 0.929 . S
C805 C802 1.404 . S
C805 N803 1.334 . S
C806 H798 0.930 . S
C806 C801 1.418 . S
C806 C802 1.353 . S
C807 H777 0.930 . S
C807 N808 1.330 . S
C807 C809 1.446 . S
N808 Co767 2.151 . S
N808 C807 1.330 . S
N808 C812 1.418 . S
C809 H788 0.929 . S
C809 C807 1.446 . S
C809 C810 1.332 . S
C810 H790 0.931 . S
C810 C809 1.332 . S
C810 C811 1.267 . S
C811 H779 0.929 . S
C811 C810 1.267 . S
C811 C812 1.251 . S
C812 H782 0.929 . S
C812 N808 1.418 . S
C812 C811 1.251 . S
C813 H780 0.930 . S
C813 C815 1.406 . S
C813 C818 1.261 . S
C814 H781 0.930 . S
C814 N816 1.325 . S
C814 C817 1.357 . S
C815 H783 0.928 . S
C815 C813 1.406 . S
C815 N816 1.261 . S
N816 Co767 2.214 . S
N816 C814 1.325 . S
N816 C815 1.261 . S
C817 H787 0.931 . S
C817 C814 1.357 . S
C817 C818 1.312 . S
C818 H789 0.930 . S
C818 C813 1.261 . S
C818 C817 1.312 . S
C819 O791 1.214 . S
C819 O799 1.234 . S
C820 H792 0.929 . S
C820 C823 1.391 1_455 S
C820 C825 1.391 . S
C821 H793 0.929 . S
C821 C822 1.390 . S
C821 N824 1.391 1_655 S
C822 H794 0.930 . S
C822 C821 1.390 . S
C822 C823 1.392 . S
C823 H795 0.929 . S
C823 C820 1.391 1_655 S
C823 C822 1.392 . S
N824 Co768 2.257 . S
N824 C821 1.391 1_455 S
N824 C825 1.388 . S
C825 H796 0.930 . S
C825 C820 1.391 . S
C825 N824 1.388 . S
Co826 O828 2.143 . S
Co826 O834 2.074 . S
Co826 O837 2.093 . S
Co826 O850 2.097 . S
Co826 N867 2.151 . S
Co826 N875 2.214 . S
Co827 O828 2.160 . S
Co827 O833 2.058 . S
Co827 O843 2.057 . S
Co827 O858 2.037 . S
Co827 N862 2.145 . S
Co827 N883 2.257 . S
O828 Co826 2.143 . S
O828 Co827 2.160 . S
C829 O830 1.278 . S
C829 O837 1.224 . S
O830 C829 1.278 . S
C831 O832 1.245 . S
C831 O843 1.232 . S
O832 C831 1.245 . S
O833 Co827 2.058 . S
O833 C859 1.269 . S
O834 Co826 2.074 . S
O834 C859 1.257 . S
H835 C860 0.930 . S
H836 C866 0.930 . S
O837 Co826 2.093 . S
O837 C829 1.224 . S
H838 C870 0.929 . S
H839 C872 0.930 . S
H840 C873 0.930 . S
H841 C871 0.929 . S
H842 C874 0.928 . S
O843 Co827 2.057 . S
O843 C831 1.232 . S
H844 C863 0.929 . S
H845 C864 0.929 . S
H846 C876 0.931 . S
H847 C868 0.929 . S
H848 C877 0.930 . S
H849 C869 0.931 . S
O850 Co826 2.097 . S
O850 C878 1.214 . S
H851 C879 0.929 . S
H852 C880 0.929 . S
H853 C881 0.930 . S
H854 C882 0.929 . S
H855 C884 0.930 . S
H856 C861 0.930 . S
H857 C865 0.930 . S
O858 Co827 2.037 . S
O858 C878 1.234 . S
C859 O833 1.269 . S
C859 O834 1.257 . S
C860 H835 0.930 . S
C860 C863 1.388 . S
C860 C865 1.418 . S
C861 H856 0.930 . S
C861 C864 1.404 . S
C861 C865 1.353 . S
N862 Co827 2.145 . S
N862 C863 1.397 . S
N862 C864 1.334 . S
C863 H844 0.929 . S
C863 C860 1.388 . S
C863 N862 1.397 . S
C864 H845 0.929 . S
C864 C861 1.404 . S
C864 N862 1.334 . S
C865 H857 0.930 . S
C865 C860 1.418 . S
C865 C861 1.353 . S
C866 H836 0.930 . S
C866 N867 1.330 . S
C866 C868 1.446 . S
N867 Co826 2.151 . S
N867 C866 1.330 . S
N867 C871 1.418 . S
C868 H847 0.929 . S
C868 C866 1.446 . S
C868 C869 1.332 . S
C869 H849 0.931 . S
C869 C868 1.332 . S
C869 C870 1.267 . S
C870 H838 0.929 . S
C870 C869 1.267 . S
C870 C871 1.251 . S
C871 H841 0.929 . S
C871 N867 1.418 . S
C871 C870 1.251 . S
C872 H839 0.930 . S
C872 C874 1.406 . S
C872 C877 1.261 . S
C873 H840 0.930 . S
C873 N875 1.325 . S
C873 C876 1.357 . S
C874 H842 0.928 . S
C874 C872 1.406 . S
C874 N875 1.261 . S
N875 Co826 2.214 . S
N875 C873 1.325 . S
N875 C874 1.261 . S
C876 H846 0.931 . S
C876 C873 1.357 . S
C876 C877 1.312 . S
C877 H848 0.930 . S
C877 C872 1.261 . S
C877 C876 1.312 . S
C878 O850 1.214 . S
C878 O858 1.234 . S
C879 H851 0.929 . S
C879 C882 1.391 . S
C879 C884 1.391 . S
C880 H852 0.929 . S
C880 C881 1.390 . S
C880 N883 1.391 . S
C881 H853 0.930 . S
C881 C880 1.390 . S
C881 C882 1.392 . S
C882 H854 0.929 . S
C882 C879 1.391 . S
C882 C881 1.392 . S
N883 Co827 2.257 . S
N883 C880 1.391 . S
N883 C884 1.388 . S
C884 H855 0.930 . S
C884 C879 1.391 . S
C884 N883 1.388 . S
Co885 O887 2.143 . S
Co885 O893 2.074 . S
Co885 O896 2.093 . S
Co885 O909 2.097 . S
Co885 N926 2.151 . S
Co885 N934 2.214 . S
Co886 O887 2.160 . S
Co886 O892 2.058 . S
Co886 O902 2.057 . S
Co886 O917 2.037 . S
Co886 N921 2.145 . S
Co886 N942 2.257 . S
O887 Co885 2.143 . S
O887 Co886 2.160 . S
C888 O889 1.278 . S
C888 O896 1.224 . S
O889 C888 1.278 . S
C890 O891 1.245 . S
C890 O902 1.232 . S
O891 C890 1.245 . S
O892 Co886 2.058 . S
O892 C918 1.269 . S
O893 Co885 2.074 . S
O893 C918 1.257 . S
H894 C919 0.930 . S
H895 C925 0.930 . S
O896 Co885 2.093 . S
O896 C888 1.224 . S
H897 C929 0.929 . S
H898 C931 0.930 . S
H899 C932 0.930 . S
H900 C930 0.929 . S
H901 C933 0.928 . S
O902 Co886 2.057 . S
O902 C890 1.232 . S
H903 C922 0.929 . S
H904 C923 0.929 . S
H905 C935 0.931 . S
H906 C927 0.929 . S
H907 C936 0.930 . S
H908 C928 0.931 . S
O909 Co885 2.097 . S
O909 C937 1.214 . S
H910 C938 0.929 . S
H911 C939 0.929 . S
H912 C940 0.930 . S
H913 C941 0.929 . S
H914 C943 0.930 . S
H915 C920 0.930 . S
H916 C924 0.930 . S
O917 Co886 2.037 . S
O917 C937 1.234 . S
C918 O892 1.269 . S
C918 O893 1.257 . S
C919 H894 0.930 . S
C919 C922 1.388 . S
C919 C924 1.418 . S
C920 H915 0.930 . S
C920 C923 1.404 . S
C920 C924 1.353 . S
N921 Co886 2.145 . S
N921 C922 1.397 . S
N921 C923 1.334 . S
C922 H903 0.929 . S
C922 C919 1.388 . S
C922 N921 1.397 . S
C923 H904 0.929 . S
C923 C920 1.404 . S
C923 N921 1.334 . S
C924 H916 0.930 . S
C924 C919 1.418 . S
C924 C920 1.353 . S
C925 H895 0.930 . S
C925 N926 1.330 . S
C925 C927 1.446 . S
N926 Co885 2.151 . S
N926 C925 1.330 . S
N926 C930 1.418 . S
C927 H906 0.929 . S
C927 C925 1.446 . S
C927 C928 1.332 . S
C928 H908 0.931 . S
C928 C927 1.332 . S
C928 C929 1.267 . S
C929 H897 0.929 . S
C929 C928 1.267 . S
C929 C930 1.251 . S
C930 H900 0.929 . S
C930 N926 1.418 . S
C930 C929 1.251 . S
C931 H898 0.930 . S
C931 C933 1.406 . S
C931 C936 1.261 . S
C932 H899 0.930 . S
C932 N934 1.325 . S
C932 C935 1.357 . S
C933 H901 0.928 . S
C933 C931 1.406 . S
C933 N934 1.261 . S
N934 Co885 2.214 . S
N934 C932 1.325 . S
N934 C933 1.261 . S
C935 H905 0.931 . S
C935 C932 1.357 . S
C935 C936 1.312 . S
C936 H907 0.930 . S
C936 C931 1.261 . S
C936 C935 1.312 . S
C937 O909 1.214 . S
C937 O917 1.234 . S
C938 H910 0.929 . S
C938 C941 1.391 . S
C938 C943 1.391 . S
C939 H911 0.929 . S
C939 C940 1.390 . S
C939 N942 1.391 . S
C940 H912 0.930 . S
C940 C939 1.390 . S
C940 C941 1.392 . S
C941 H913 0.929 . S
C941 C938 1.391 . S
C941 C940 1.392 . S
N942 Co886 2.257 . S
N942 C939 1.391 . S
N942 C943 1.388 . S
C943 H914 0.930 . S
C943 C938 1.391 . S
C943 N942 1.388 . S
H944 C952 0.950 . S
H945 C957 0.950 . S
H946 C954 0.950 . S
H947 C956 0.950 . S
H948 C958 0.950 . S
H949 C960 0.950 . S
H950 C962 0.950 . S
H951 C963 0.950 . S
C952 H944 0.950 . S
C952 C953 1.386 . S
C952 C954 1.391 . S
C953 C952 1.386 . S
C953 C957 1.393 . S
C954 H946 0.950 . S
C954 C952 1.391 . S
C954 C955 1.400 . S
C955 C954 1.400 . S
C955 C956 1.398 . S
C955 C961 1.491 . S
C956 H947 0.950 . S
C956 C955 1.398 . S
C956 C957 1.391 . S
C957 H945 0.950 . S
C957 C953 1.393 . S
C957 C956 1.391 . S
C958 H948 0.950 . S
C958 C959 1.386 . S
C958 C960 1.391 . S
C959 C958 1.386 . S
C959 C963 1.393 . S
C960 H949 0.950 . S
C960 C958 1.391 . S
C960 C961 1.400 . S
C961 C955 1.491 . S
C961 C960 1.400 . S
C961 C962 1.398 . S
C962 H950 0.950 . S
C962 C961 1.398 . S
C962 C963 1.391 . S
C963 H951 0.950 . S
C963 C959 1.393 . S
C963 C962 1.391 . S
H964 C972 0.950 . S
H965 C977 0.950 . S
H966 C974 0.950 . S
H967 C976 0.950 . S
H968 C978 0.950 . S
H969 C980 0.950 . S
H970 C982 0.950 . S
H971 C983 0.950 . S
C972 H964 0.950 . S
C972 C973 1.386 . S
C972 C974 1.391 . S
C973 C972 1.386 . S
C973 C977 1.393 . S
C974 H966 0.950 . S
C974 C972 1.391 . S
C974 C975 1.400 . S
C975 C974 1.400 . S
C975 C976 1.398 . S
C975 C981 1.491 . S
C976 H967 0.950 . S
C976 C975 1.398 . S
C976 C977 1.391 . S
C977 H965 0.950 . S
C977 C973 1.393 . S
C977 C976 1.391 . S
C978 H968 0.950 . S
C978 C979 1.386 . S
C978 C980 1.391 . S
C979 C978 1.386 . S
C979 C983 1.393 . S
C980 H969 0.950 . S
C980 C978 1.391 . S
C980 C981 1.400 . S
C981 C975 1.491 . S
C981 C980 1.400 . S
C981 C982 1.398 . S
C982 H970 0.950 . S
C982 C981 1.398 . S
C982 C983 1.391 . S
C983 H971 0.950 . S
C983 C979 1.393 . S
C983 C982 1.391 . S
H984 C992 0.950 . S
H985 C997 0.950 . S
H986 C994 0.950 . S
H987 C996 0.950 . S
H988 C998 0.950 . S
H989 C1000 0.950 . S
H990 C1002 0.950 . S
H991 C1003 0.950 . S
C992 H984 0.950 . S
C992 C993 1.386 . S
C992 C994 1.391 . S
C993 C992 1.386 . S
C993 C997 1.393 . S
C994 H986 0.950 . S
C994 C992 1.391 . S
C994 C995 1.400 . S
C995 C994 1.400 . S
C995 C996 1.398 . S
C995 C1001 1.491 . S
C996 H987 0.950 . S
C996 C995 1.398 . S
C996 C997 1.391 . S
C997 H985 0.950 . S
C997 C993 1.393 . S
C997 C996 1.391 . S
C998 H988 0.950 . S
C998 C999 1.386 . S
C998 C1000 1.391 . S
C999 C998 1.386 . S
C999 C1003 1.393 . S
C1000 H989 0.950 . S
C1000 C998 1.391 . S
C1000 C1001 1.400 . S
C1001 C995 1.491 . S
C1001 C1000 1.400 . S
C1001 C1002 1.398 . S
C1002 H990 0.950 . S
C1002 C1001 1.398 . S
C1002 C1003 1.391 . S
C1003 H991 0.950 . S
C1003 C999 1.393 . S
C1003 C1002 1.391 . S
H1004 C1012 0.950 . S
H1005 C1017 0.950 . S
H1006 C1014 0.950 . S
H1007 C1016 0.950 . S
H1008 C1018 0.950 . S
H1009 C1020 0.950 . S
H1010 C1022 0.950 . S
H1011 C1023 0.950 . S
C1012 H1004 0.950 . S
C1012 C1013 1.386 . S
C1012 C1014 1.391 . S
C1013 C1012 1.386 . S
C1013 C1017 1.393 . S
C1014 H1006 0.950 . S
C1014 C1012 1.391 . S
C1014 C1015 1.400 . S
C1015 C1014 1.400 . S
C1015 C1016 1.398 . S
C1015 C1021 1.491 . S
C1016 H1007 0.950 . S
C1016 C1015 1.398 . S
C1016 C1017 1.391 . S
C1017 H1005 0.950 . S
C1017 C1013 1.393 . S
C1017 C1016 1.391 . S
C1018 H1008 0.950 . S
C1018 C1019 1.386 . S
C1018 C1020 1.391 . S
C1019 C1018 1.386 . S
C1019 C1023 1.393 . S
C1020 H1009 0.950 . S
C1020 C1018 1.391 . S
C1020 C1021 1.400 . S
C1021 C1015 1.491 . S
C1021 C1020 1.400 . S
C1021 C1022 1.398 . S
C1022 H1010 0.950 . S
C1022 C1021 1.398 . S
C1022 C1023 1.391 . S
C1023 H1011 0.950 . S
C1023 C1019 1.393 . S
C1023 C1022 1.391 . S
H1024 C1032 0.950 . S
H1025 C1037 0.950 . S
H1026 C1034 0.950 . S
H1027 C1036 0.950 . S
H1028 C1038 0.950 . S
H1029 C1040 0.950 . S
H1030 C1042 0.950 . S
H1031 C1043 0.950 . S
C1032 H1024 0.950 . S
C1032 C1033 1.386 . S
C1032 C1034 1.391 . S
C1033 C1032 1.386 . S
C1033 C1037 1.393 . S
C1034 H1026 0.950 . S
C1034 C1032 1.391 . S
C1034 C1035 1.400 . S
C1035 C1034 1.400 . S
C1035 C1036 1.398 . S
C1035 C1041 1.491 . S
C1036 H1027 0.950 . S
C1036 C1035 1.398 . S
C1036 C1037 1.391 . S
C1037 H1025 0.950 . S
C1037 C1033 1.393 . S
C1037 C1036 1.391 . S
C1038 H1028 0.950 . S
C1038 C1039 1.386 . S
C1038 C1040 1.391 . S
C1039 C1038 1.386 . S
C1039 C1043 1.393 . S
C1040 H1029 0.950 . S
C1040 C1038 1.391 . S
C1040 C1041 1.400 . S
C1041 C1035 1.491 . S
C1041 C1040 1.400 . S
C1041 C1042 1.398 . S
C1042 H1030 0.950 . S
C1042 C1041 1.398 . S
C1042 C1043 1.391 . S
C1043 H1031 0.950 . S
C1043 C1039 1.393 . S
C1043 C1042 1.391 . S
H1044 C1052 0.950 . S
H1045 C1057 0.950 . S
H1046 C1054 0.950 . S
H1047 C1056 0.950 . S
H1048 C1058 0.950 . S
H1049 C1060 0.950 . S
H1050 C1062 0.950 . S
H1051 C1063 0.950 . S
C1052 H1044 0.950 . S
C1052 C1053 1.386 . S
C1052 C1054 1.391 . S
C1053 C1052 1.386 . S
C1053 C1057 1.393 . S
C1054 H1046 0.950 . S
C1054 C1052 1.391 . S
C1054 C1055 1.400 . S
C1055 C1054 1.400 . S
C1055 C1056 1.398 . S
C1055 C1061 1.491 . S
C1056 H1047 0.950 . S
C1056 C1055 1.398 . S
C1056 C1057 1.391 . S
C1057 H1045 0.950 . S
C1057 C1053 1.393 . S
C1057 C1056 1.391 . S
C1058 H1048 0.950 . S
C1058 C1059 1.386 . S
C1058 C1060 1.391 . S
C1059 C1058 1.386 . S
C1059 C1063 1.393 . S
C1060 H1049 0.950 . S
C1060 C1058 1.391 . S
C1060 C1061 1.400 . S
C1061 C1055 1.491 . S
C1061 C1060 1.400 . S
C1061 C1062 1.398 . S
C1062 H1050 0.950 . S
C1062 C1061 1.398 . S
C1062 C1063 1.391 . S
C1063 H1051 0.950 . S
C1063 C1059 1.393 . S
C1063 C1062 1.391 . S
H1064 C1072 0.950 . S
H1065 C1077 0.950 . S
H1066 C1074 0.950 . S
H1067 C1076 0.950 . S
H1068 C1078 0.950 . S
H1069 C1080 0.950 . S
H1070 C1082 0.950 . S
H1071 C1083 0.950 . S
C1072 H1064 0.950 . S
C1072 C1073 1.386 . S
C1072 C1074 1.391 . S
C1073 C1072 1.386 . S
C1073 C1077 1.393 . S
C1074 H1066 0.950 . S
C1074 C1072 1.391 . S
C1074 C1075 1.400 . S
C1075 C1074 1.400 . S
C1075 C1076 1.398 . S
C1075 C1081 1.491 . S
C1076 H1067 0.950 . S
C1076 C1075 1.398 . S
C1076 C1077 1.391 . S
C1077 H1065 0.950 . S
C1077 C1073 1.393 . S
C1077 C1076 1.391 . S
C1078 H1068 0.950 . S
C1078 C1079 1.386 . S
C1078 C1080 1.391 . S
C1079 C1078 1.386 . S
C1079 C1083 1.393 . S
C1080 H1069 0.950 . S
C1080 C1078 1.391 . S
C1080 C1081 1.400 . S
C1081 C1075 1.491 . S
C1081 C1080 1.400 . S
C1081 C1082 1.398 . S
C1082 H1070 0.950 . S
C1082 C1081 1.398 . S
C1082 C1083 1.391 . S
C1083 H1071 0.950 . S
C1083 C1079 1.393 . S
C1083 C1082 1.391 . S
H1084 C1092 0.950 . S
H1085 C1097 0.950 . S
H1086 C1094 0.950 . S
H1087 C1096 0.950 . S
H1088 C1098 0.950 . S
H1089 C1100 0.950 . S
H1090 C1102 0.950 . S
H1091 C1103 0.950 . S
C1092 H1084 0.950 . S
C1092 C1093 1.386 . S
C1092 C1094 1.391 . S
C1093 C1092 1.386 . S
C1093 C1097 1.393 . S
C1094 H1086 0.950 . S
C1094 C1092 1.391 . S
C1094 C1095 1.400 . S
C1095 C1094 1.400 . S
C1095 C1096 1.398 . S
C1095 C1101 1.491 . S
C1096 H1087 0.950 . S
C1096 C1095 1.398 . S
C1096 C1097 1.391 . S
C1097 H1085 0.950 . S
C1097 C1093 1.393 . S
C1097 C1096 1.391 . S
C1098 H1088 0.950 . S
C1098 C1099 1.386 . S
C1098 C1100 1.391 . S
C1099 C1098 1.386 . S
C1099 C1103 1.393 . S
C1100 H1089 0.950 . S
C1100 C1098 1.391 . S
C1100 C1101 1.400 . S
C1101 C1095 1.491 . S
C1101 C1100 1.400 . S
C1101 C1102 1.398 . S
C1102 H1090 0.950 . S
C1102 C1101 1.398 . S
C1102 C1103 1.391 . S
C1103 H1091 0.950 . S
C1103 C1099 1.393 . S
C1103 C1102 1.391 . S
H1104 C1112 0.950 . S
H1105 C1117 0.950 . S
H1106 C1114 0.950 . S
H1107 C1116 0.950 . S
H1108 C1118 0.950 . S
H1109 C1120 0.950 . S
H1110 C1122 0.950 . S
H1111 C1123 0.950 . S
C1112 H1104 0.950 . S
C1112 C1113 1.386 . S
C1112 C1114 1.391 . S
C1113 C1112 1.386 . S
C1113 C1117 1.393 . S
C1114 H1106 0.950 . S
C1114 C1112 1.391 . S
C1114 C1115 1.400 . S
C1115 C1114 1.400 . S
C1115 C1116 1.398 . S
C1115 C1121 1.491 . S
C1116 H1107 0.950 . S
C1116 C1115 1.398 . S
C1116 C1117 1.391 . S
C1117 H1105 0.950 . S
C1117 C1113 1.393 . S
C1117 C1116 1.391 . S
C1118 H1108 0.950 . S
C1118 C1119 1.386 . S
C1118 C1120 1.391 . S
C1119 C1118 1.386 . S
C1119 C1123 1.393 . S
C1120 H1109 0.950 . S
C1120 C1118 1.391 . S
C1120 C1121 1.400 . S
C1121 C1115 1.491 . S
C1121 C1120 1.400 . S
C1121 C1122 1.398 . S
C1122 H1110 0.950 . S
C1122 C1121 1.398 . S
C1122 C1123 1.391 . S
C1123 H1111 0.950 . S
C1123 C1119 1.393 . S
C1123 C1122 1.391 . S
H1124 C1132 0.950 . S
H1125 C1137 0.950 . S
H1126 C1134 0.950 . S
H1127 C1136 0.950 . S
H1128 C1138 0.950 . S
H1129 C1140 0.950 . S
H1130 C1142 0.950 . S
H1131 C1143 0.950 . S
C1132 H1124 0.950 . S
C1132 C1133 1.386 . S
C1132 C1134 1.391 . S
C1133 C1132 1.386 . S
C1133 C1137 1.393 . S
C1134 H1126 0.950 . S
C1134 C1132 1.391 . S
C1134 C1135 1.400 . S
C1135 C1134 1.400 . S
C1135 C1136 1.398 . S
C1135 C1141 1.491 . S
C1136 H1127 0.950 . S
C1136 C1135 1.398 . S
C1136 C1137 1.391 . S
C1137 H1125 0.950 . S
C1137 C1133 1.393 . S
C1137 C1136 1.391 . S
C1138 H1128 0.950 . S
C1138 C1139 1.386 . S
C1138 C1140 1.391 . S
C1139 C1138 1.386 . S
C1139 C1143 1.393 . S
C1140 H1129 0.950 . S
C1140 C1138 1.391 . S
C1140 C1141 1.400 . S
C1141 C1135 1.491 . S
C1141 C1140 1.400 . S
C1141 C1142 1.398 . S
C1142 H1130 0.950 . S
C1142 C1141 1.398 . S
C1142 C1143 1.391 . S
C1143 H1131 0.950 . S
C1143 C1139 1.393 . S
C1143 C1142 1.391 . S
H1144 C1152 0.950 . S
H1145 C1157 0.950 . S
H1146 C1154 0.950 . S
H1147 C1156 0.950 . S
H1148 C1158 0.950 . S
H1149 C1160 0.950 . S
H1150 C1162 0.950 . S
H1151 C1163 0.950 . S
C1152 H1144 0.950 . S
C1152 C1153 1.386 . S
C1152 C1154 1.391 . S
C1153 C1152 1.386 . S
C1153 C1157 1.393 . S
C1154 H1146 0.950 . S
C1154 C1152 1.391 . S
C1154 C1155 1.400 . S
C1155 C1154 1.400 . S
C1155 C1156 1.398 . S
C1155 C1161 1.491 . S
C1156 H1147 0.950 . S
C1156 C1155 1.398 . S
C1156 C1157 1.391 . S
C1157 H1145 0.950 . S
C1157 C1153 1.393 . S
C1157 C1156 1.391 . S
C1158 H1148 0.950 . S
C1158 C1159 1.386 . S
C1158 C1160 1.391 . S
C1159 C1158 1.386 . S
C1159 C1163 1.393 . S
C1160 H1149 0.950 . S
C1160 C1158 1.391 . S
C1160 C1161 1.400 . S
C1161 C1155 1.491 . S
C1161 C1160 1.400 . S
C1161 C1162 1.398 . S
C1162 H1150 0.950 . S
C1162 C1161 1.398 . S
C1162 C1163 1.391 . S
C1163 H1151 0.950 . S
C1163 C1159 1.393 . S
C1163 C1162 1.391 . S
H1164 C1172 0.950 . S
H1165 C1177 0.950 . S
H1166 C1174 0.950 . S
H1167 C1176 0.950 . S
H1168 C1178 0.950 . S
H1169 C1180 0.950 . S
H1170 C1182 0.950 . S
H1171 C1183 0.950 . S
C1172 H1164 0.950 . S
C1172 C1173 1.386 . S
C1172 C1174 1.391 . S
C1173 C1172 1.386 . S
C1173 C1177 1.393 . S
C1174 H1166 0.950 . S
C1174 C1172 1.391 . S
C1174 C1175 1.400 . S
C1175 C1174 1.400 . S
C1175 C1176 1.398 . S
C1175 C1181 1.491 1_554 S
C1176 H1167 0.950 . S
C1176 C1175 1.398 . S
C1176 C1177 1.391 . S
C1177 H1165 0.950 . S
C1177 C1173 1.393 . S
C1177 C1176 1.391 . S
C1178 H1168 0.950 . S
C1178 C1179 1.386 . S
C1178 C1180 1.391 . S
C1179 C1178 1.386 . S
C1179 C1183 1.393 . S
C1180 H1169 0.950 . S
C1180 C1178 1.391 . S
C1180 C1181 1.400 . S
C1181 C1175 1.491 1_556 S
C1181 C1180 1.400 . S
C1181 C1182 1.398 . S
C1182 H1170 0.950 . S
C1182 C1181 1.398 . S
C1182 C1183 1.391 . S
C1183 H1171 0.950 . S
C1183 C1179 1.393 . S
C1183 C1182 1.391 . S
H1184 C1192 0.950 . S
H1185 C1197 0.950 . S
H1186 C1194 0.950 . S
H1187 C1196 0.950 . S
H1188 C1198 0.950 . S
H1189 C1200 0.950 . S
H1190 C1202 0.950 . S
H1191 C1203 0.950 . S
C1192 H1184 0.950 . S
C1192 C1193 1.386 . S
C1192 C1194 1.391 . S
C1193 C1192 1.386 . S
C1193 C1197 1.393 . S
C1194 H1186 0.950 . S
C1194 C1192 1.391 . S
C1194 C1195 1.400 . S
C1195 C1194 1.400 . S
C1195 C1196 1.398 . S
C1195 C1201 1.491 1_554 S
C1196 H1187 0.950 . S
C1196 C1195 1.398 . S
C1196 C1197 1.391 . S
C1197 H1185 0.950 . S
C1197 C1193 1.393 . S
C1197 C1196 1.391 . S
C1198 H1188 0.950 . S
C1198 C1199 1.386 . S
C1198 C1200 1.391 . S
C1199 C1198 1.386 . S
C1199 C1203 1.393 . S
C1200 H1189 0.950 . S
C1200 C1198 1.391 . S
C1200 C1201 1.400 . S
C1201 C1195 1.491 1_556 S
C1201 C1200 1.400 . S
C1201 C1202 1.398 . S
C1202 H1190 0.950 . S
C1202 C1201 1.398 . S
C1202 C1203 1.391 . S
C1203 H1191 0.950 . S
C1203 C1199 1.393 . S
C1203 C1202 1.391 . S
H1204 C1212 0.950 . S
H1205 C1217 0.950 . S
H1206 C1214 0.950 . S
H1207 C1216 0.950 . S
H1208 C1218 0.950 . S
H1209 C1220 0.950 . S
H1210 C1222 0.950 . S
H1211 C1223 0.950 . S
C1212 H1204 0.950 . S
C1212 C1213 1.386 . S
C1212 C1214 1.391 . S
C1213 C1212 1.386 . S
C1213 C1217 1.393 . S
C1214 H1206 0.950 . S
C1214 C1212 1.391 . S
C1214 C1215 1.400 . S
C1215 C1214 1.400 . S
C1215 C1216 1.398 . S
C1215 C1221 1.491 . S
C1216 H1207 0.950 . S
C1216 C1215 1.398 . S
C1216 C1217 1.391 . S
C1217 H1205 0.950 . S
C1217 C1213 1.393 . S
C1217 C1216 1.391 . S
C1218 H1208 0.950 . S
C1218 C1219 1.386 . S
C1218 C1220 1.391 . S
C1219 C1218 1.386 . S
C1219 C1223 1.393 . S
C1220 H1209 0.950 . S
C1220 C1218 1.391 . S
C1220 C1221 1.400 . S
C1221 C1215 1.491 . S
C1221 C1220 1.400 . S
C1221 C1222 1.398 . S
C1222 H1210 0.950 . S
C1222 C1221 1.398 . S
C1222 C1223 1.391 . S
C1223 H1211 0.950 . S
C1223 C1219 1.393 . S
C1223 C1222 1.391 . S
H1224 C1232 0.950 . S
H1225 C1237 0.950 . S
H1226 C1234 0.950 . S
H1227 C1236 0.950 . S
H1228 C1238 0.950 . S
H1229 C1240 0.950 . S
H1230 C1242 0.950 . S
H1231 C1243 0.950 . S
C1232 H1224 0.950 . S
C1232 C1233 1.386 . S
C1232 C1234 1.391 . S
C1233 C1232 1.386 . S
C1233 C1237 1.393 . S
C1234 H1226 0.950 . S
C1234 C1232 1.391 . S
C1234 C1235 1.400 . S
C1235 C1234 1.400 . S
C1235 C1236 1.398 . S
C1235 C1241 1.491 . S
C1236 H1227 0.950 . S
C1236 C1235 1.398 . S
C1236 C1237 1.391 . S
C1237 H1225 0.950 . S
C1237 C1233 1.393 . S
C1237 C1236 1.391 . S
C1238 H1228 0.950 . S
C1238 C1239 1.386 . S
C1238 C1240 1.391 . S
C1239 C1238 1.386 . S
C1239 C1243 1.393 . S
C1240 H1229 0.950 . S
C1240 C1238 1.391 . S
C1240 C1241 1.400 . S
C1241 C1235 1.491 . S
C1241 C1240 1.400 . S
C1241 C1242 1.398 . S
C1242 H1230 0.950 . S
C1242 C1241 1.398 . S
C1242 C1243 1.391 . S
C1243 H1231 0.950 . S
C1243 C1239 1.393 . S
C1243 C1242 1.391 . S
H1244 C1252 0.950 . S
H1245 C1257 0.950 . S
H1246 C1254 0.950 . S
H1247 C1256 0.950 . S
H1248 C1258 0.950 . S
H1249 C1260 0.950 . S
H1250 C1262 0.950 . S
H1251 C1263 0.950 . S
C1252 H1244 0.950 . S
C1252 C1253 1.386 . S
C1252 C1254 1.391 . S
C1253 C1252 1.386 . S
C1253 C1257 1.393 . S
C1254 H1246 0.950 . S
C1254 C1252 1.391 . S
C1254 C1255 1.400 . S
C1255 C1254 1.400 . S
C1255 C1256 1.398 . S
C1255 C1261 1.491 . S
C1256 H1247 0.950 . S
C1256 C1255 1.398 . S
C1256 C1257 1.391 . S
C1257 H1245 0.950 . S
C1257 C1253 1.393 . S
C1257 C1256 1.391 . S
C1258 H1248 0.950 . S
C1258 C1259 1.386 . S
C1258 C1260 1.391 . S
C1259 C1258 1.386 . S
C1259 C1263 1.393 . S
C1260 H1249 0.950 . S
C1260 C1258 1.391 . S
C1260 C1261 1.400 . S
C1261 C1255 1.491 . S
C1261 C1260 1.400 . S
C1261 C1262 1.398 . S
C1262 H1250 0.950 . S
C1262 C1261 1.398 . S
C1262 C1263 1.391 . S
C1263 H1251 0.950 . S
C1263 C1259 1.393 . S
C1263 C1262 1.391 . S
H1264 C1272 0.950 . S
H1265 C1277 0.950 1_565 S
H1266 C1274 0.950 1_655 S
H1267 C1276 0.950 . S
H1268 C1278 0.950 . S
H1269 C1280 0.950 1_455 S
H1270 C1282 0.950 . S
H1271 C1283 0.950 1_545 S
C1272 H1264 0.950 . S
C1272 C1273 1.386 . S
C1272 C1274 1.391 . S
C1273 C1272 1.386 . S
C1273 C1277 1.393 . S
C1274 H1266 0.950 1_455 S
C1274 C1272 1.391 . S
C1274 C1275 1.400 . S
C1275 C1274 1.400 . S
C1275 C1276 1.398 1_545 S
C1275 C1281 1.491 1_445 S
C1276 H1267 0.950 . S
C1276 C1275 1.398 1_565 S
C1276 C1277 1.391 1_565 S
C1277 H1265 0.950 1_545 S
C1277 C1273 1.393 . S
C1277 C1276 1.391 1_545 S
C1278 H1268 0.950 . S
C1278 C1279 1.386 . S
C1278 C1280 1.391 . S
C1279 C1278 1.386 . S
C1279 C1283 1.393 . S
C1280 H1269 0.950 1_655 S
C1280 C1278 1.391 . S
C1280 C1281 1.400 . S
C1281 C1275 1.491 1_665 S
C1281 C1280 1.400 . S
C1281 C1282 1.398 1_565 S
C1282 H1270 0.950 . S
C1282 C1281 1.398 1_545 S
C1282 C1283 1.391 1_545 S
C1283 H1271 0.950 1_565 S
C1283 C1279 1.393 . S
C1283 C1282 1.391 1_565 S
H1284 C1292 0.950 . S
H1285 C1297 0.950 . S
H1286 C1294 0.950 . S
H1287 C1296 0.950 1_655 S
H1288 C1298 0.950 . S
H1289 C1300 0.950 . S
H1290 C1302 0.950 1_455 S
H1291 C1303 0.950 . S
C1292 H1284 0.950 . S
C1292 C1293 1.386 . S
C1292 C1294 1.391 . S
C1293 C1292 1.386 . S
C1293 C1297 1.393 . S
C1294 H1286 0.950 . S
C1294 C1292 1.391 . S
C1294 C1295 1.400 . S
C1295 C1294 1.400 . S
C1295 C1296 1.398 . S
C1295 C1301 1.491 1_455 S
C1296 H1287 0.950 1_455 S
C1296 C1295 1.398 . S
C1296 C1297 1.391 . S
C1297 H1285 0.950 . S
C1297 C1293 1.393 . S
C1297 C1296 1.391 . S
C1298 H1288 0.950 . S
C1298 C1299 1.386 . S
C1298 C1300 1.391 . S
C1299 C1298 1.386 . S
C1299 C1303 1.393 . S
C1300 H1289 0.950 . S
C1300 C1298 1.391 . S
C1300 C1301 1.400 . S
C1301 C1295 1.491 1_655 S
C1301 C1300 1.400 . S
C1301 C1302 1.398 . S
C1302 H1290 0.950 1_655 S
C1302 C1301 1.398 . S
C1302 C1303 1.391 . S
C1303 H1291 0.950 . S
C1303 C1299 1.393 . S
C1303 C1302 1.391 . S
H1304 C1312 0.950 . S
H1305 C1317 0.950 . S
H1306 C1314 0.950 . S
H1307 C1316 0.950 . S
H1308 C1318 0.950 . S
H1309 C1320 0.950 . S
H1310 C1322 0.950 . S
H1311 C1323 0.950 . S
C1312 H1304 0.950 . S
C1312 C1313 1.386 . S
C1312 C1314 1.391 . S
C1313 C1312 1.386 . S
C1313 C1317 1.393 . S
C1314 H1306 0.950 . S
C1314 C1312 1.391 . S
C1314 C1315 1.400 . S
C1315 C1314 1.400 . S
C1315 C1316 1.398 . S
C1315 C1321 1.491 . S
C1316 H1307 0.950 . S
C1316 C1315 1.398 . S
C1316 C1317 1.391 . S
C1317 H1305 0.950 . S
C1317 C1313 1.393 . S
C1317 C1316 1.391 . S
C1318 H1308 0.950 . S
C1318 C1319 1.386 . S
C1318 C1320 1.391 . S
C1319 C1318 1.386 . S
C1319 C1323 1.393 . S
C1320 H1309 0.950 . S
C1320 C1318 1.391 . S
C1320 C1321 1.400 . S
C1321 C1315 1.491 . S
C1321 C1320 1.400 . S
C1321 C1322 1.398 . S
C1322 H1310 0.950 . S
C1322 C1321 1.398 . S
C1322 C1323 1.391 . S
C1323 H1311 0.950 . S
C1323 C1319 1.393 . S
C1323 C1322 1.391 . S
H1324 C1332 0.950 . S
H1325 C1337 0.950 . S
H1326 C1334 0.950 . S
H1327 C1336 0.950 . S
H1328 C1338 0.950 . S
H1329 C1340 0.950 . S
H1330 C1342 0.950 . S
H1331 C1343 0.950 . S
C1332 H1324 0.950 . S
C1332 C1333 1.386 . S
C1332 C1334 1.391 . S
C1333 C1332 1.386 . S
C1333 C1337 1.393 . S
C1334 H1326 0.950 . S
C1334 C1332 1.391 . S
C1334 C1335 1.400 . S
C1335 C1334 1.400 . S
C1335 C1336 1.398 . S
C1335 C1341 1.491 1_545 S
C1336 H1327 0.950 . S
C1336 C1335 1.398 . S
C1336 C1337 1.391 . S
C1337 H1325 0.950 . S
C1337 C1333 1.393 . S
C1337 C1336 1.391 . S
C1338 H1328 0.950 . S
C1338 C1339 1.386 . S
C1338 C1340 1.391 . S
C1339 C1338 1.386 . S
C1339 C1343 1.393 . S
C1340 H1329 0.950 . S
C1340 C1338 1.391 . S
C1340 C1341 1.400 . S
C1341 C1335 1.491 1_565 S
C1341 C1340 1.400 . S
C1341 C1342 1.398 . S
C1342 H1330 0.950 . S
C1342 C1341 1.398 . S
C1342 C1343 1.391 . S
C1343 H1331 0.950 . S
C1343 C1339 1.393 . S
C1343 C1342 1.391 . S
H1344 C1352 0.950 . S
H1345 C1357 0.950 . S
H1346 C1354 0.950 . S
H1347 C1356 0.950 . S
H1348 C1358 0.950 . S
H1349 C1360 0.950 . S
H1350 C1362 0.950 . S
H1351 C1363 0.950 . S
C1352 H1344 0.950 . S
C1352 C1353 1.386 . S
C1352 C1354 1.391 . S
C1353 C1352 1.386 . S
C1353 C1357 1.393 . S
C1354 H1346 0.950 . S
C1354 C1352 1.391 . S
C1354 C1355 1.400 . S
C1355 C1354 1.400 . S
C1355 C1356 1.398 . S
C1355 C1361 1.491 1_455 S
C1356 H1347 0.950 . S
C1356 C1355 1.398 . S
C1356 C1357 1.391 . S
C1357 H1345 0.950 . S
C1357 C1353 1.393 . S
C1357 C1356 1.391 . S
C1358 H1348 0.950 . S
C1358 C1359 1.386 . S
C1358 C1360 1.391 . S
C1359 C1358 1.386 . S
C1359 C1363 1.393 . S
C1360 H1349 0.950 . S
C1360 C1358 1.391 . S
C1360 C1361 1.400 . S
C1361 C1355 1.491 1_655 S
C1361 C1360 1.400 . S
C1361 C1362 1.398 . S
C1362 H1350 0.950 . S
C1362 C1361 1.398 . S
C1362 C1363 1.391 . S
C1363 H1351 0.950 . S
C1363 C1359 1.393 . S
C1363 C1362 1.391 . S
H1364 C1372 0.950 . S
H1365 C1377 0.950 . S
H1366 C1374 0.950 . S
H1367 C1376 0.950 . S
H1368 C1378 0.950 . S
H1369 C1380 0.950 . S
H1370 C1382 0.950 . S
H1371 C1383 0.950 . S
C1372 H1364 0.950 . S
C1372 C1373 1.386 . S
C1372 C1374 1.391 . S
C1373 C1372 1.386 . S
C1373 C1377 1.393 . S
C1374 H1366 0.950 . S
C1374 C1372 1.391 . S
C1374 C1375 1.400 . S
C1375 C1374 1.400 . S
C1375 C1376 1.398 . S
C1375 C1381 1.491 . S
C1376 H1367 0.950 . S
C1376 C1375 1.398 . S
C1376 C1377 1.391 . S
C1377 H1365 0.950 . S
C1377 C1373 1.393 . S
C1377 C1376 1.391 . S
C1378 H1368 0.950 . S
C1378 C1379 1.386 . S
C1378 C1380 1.391 . S
C1379 C1378 1.386 . S
C1379 C1383 1.393 . S
C1380 H1369 0.950 . S
C1380 C1378 1.391 . S
C1380 C1381 1.400 . S
C1381 C1375 1.491 . S
C1381 C1380 1.400 . S
C1381 C1382 1.398 . S
C1382 H1370 0.950 . S
C1382 C1381 1.398 . S
C1382 C1383 1.391 . S
C1383 H1371 0.950 . S
C1383 C1379 1.393 . S
C1383 C1382 1.391 . S
H1384 C1392 0.950 1_545 S
H1385 C1397 0.950 . S
H1386 C1394 0.950 . S
H1387 C1396 0.950 . S
H1388 C1398 0.950 1_565 S
H1389 C1400 0.950 . S
H1390 C1402 0.950 . S
H1391 C1403 0.950 . S
C1392 H1384 0.950 1_565 S
C1392 C1393 1.386 . S
C1392 C1394 1.391 1_565 S
C1393 C1392 1.386 . S
C1393 C1397 1.393 . S
C1394 H1386 0.950 . S
C1394 C1392 1.391 1_545 S
C1394 C1395 1.400 1_545 S
C1395 C1394 1.400 1_565 S
C1395 C1396 1.398 . S
C1395 C1401 1.491 1_565 S
C1396 H1387 0.950 . S
C1396 C1395 1.398 . S
C1396 C1397 1.391 . S
C1397 H1385 0.950 . S
C1397 C1393 1.393 . S
C1397 C1396 1.391 . S
C1398 H1388 0.950 1_545 S
C1398 C1399 1.386 . S
C1398 C1400 1.391 1_545 S
C1399 C1398 1.386 . S
C1399 C1403 1.393 . S
C1400 H1389 0.950 . S
C1400 C1398 1.391 1_565 S
C1400 C1401 1.400 1_565 S
C1401 C1395 1.491 1_545 S
C1401 C1400 1.400 1_545 S
C1401 C1402 1.398 . S
C1402 H1390 0.950 . S
C1402 C1401 1.398 . S
C1402 C1403 1.391 . S
C1403 H1391 0.950 . S
C1403 C1399 1.393 . S
C1403 C1402 1.391 . S
H1404 C1412 0.950 1_655 S
H1405 C1417 0.950 . S
H1406 C1414 0.950 . S
H1407 C1416 0.950 1_565 S
H1408 C1418 0.950 1_455 S
H1409 C1420 0.950 . S
H1410 C1422 0.950 1_545 S
H1411 C1423 0.950 . S
C1412 H1404 0.950 1_455 S
C1412 C1413 1.386 . S
C1412 C1414 1.391 1_455 S
C1413 C1412 1.386 . S
C1413 C1417 1.393 . S
C1414 H1406 0.950 . S
C1414 C1412 1.391 1_655 S
C1414 C1415 1.400 1_655 S
C1415 C1414 1.400 1_455 S
C1415 C1416 1.398 . S
C1415 C1421 1.491 1_445 S
C1416 H1407 0.950 1_545 S
C1416 C1415 1.398 . S
C1416 C1417 1.391 . S
C1417 H1405 0.950 . S
C1417 C1413 1.393 . S
C1417 C1416 1.391 . S
C1418 H1408 0.950 1_655 S
C1418 C1419 1.386 . S
C1418 C1420 1.391 1_655 S
C1419 C1418 1.386 . S
C1419 C1423 1.393 . S
C1420 H1409 0.950 . S
C1420 C1418 1.391 1_455 S
C1420 C1421 1.400 1_455 S
C1421 C1415 1.491 1_665 S
C1421 C1420 1.400 1_655 S
C1421 C1422 1.398 . S
C1422 H1410 0.950 1_565 S
C1422 C1421 1.398 . S
C1422 C1423 1.391 . S
C1423 H1411 0.950 . S
C1423 C1419 1.393 . S
C1423 C1422 1.391 . S
H1424 C1432 0.950 . S
H1425 C1437 0.950 . S
H1426 C1434 0.950 . S
H1427 C1436 0.950 . S
H1428 C1438 0.950 . S
H1429 C1440 0.950 . S
H1430 C1442 0.950 . S
H1431 C1443 0.950 . S
C1432 H1424 0.950 . S
C1432 C1433 1.386 . S
C1432 C1434 1.391 1_565 S
C1433 C1432 1.386 . S
C1433 C1437 1.393 . S
C1434 H1426 0.950 . S
C1434 C1432 1.391 1_545 S
C1434 C1435 1.400 1_545 S
C1435 C1434 1.400 1_565 S
C1435 C1436 1.398 . S
C1435 C1441 1.491 1_565 S
C1436 H1427 0.950 . S
C1436 C1435 1.398 . S
C1436 C1437 1.391 . S
C1437 H1425 0.950 . S
C1437 C1433 1.393 . S
C1437 C1436 1.391 . S
C1438 H1428 0.950 . S
C1438 C1439 1.386 . S
C1438 C1440 1.391 1_545 S
C1439 C1438 1.386 . S
C1439 C1443 1.393 . S
C1440 H1429 0.950 . S
C1440 C1438 1.391 1_565 S
C1440 C1441 1.400 1_565 S
C1441 C1435 1.491 1_545 S
C1441 C1440 1.400 1_545 S
C1441 C1442 1.398 . S
C1442 H1430 0.950 . S
C1442 C1441 1.398 . S
C1442 C1443 1.391 . S
C1443 H1431 0.950 . S
C1443 C1439 1.393 . S
C1443 C1442 1.391 . S
H1444 C1452 0.948 1_455 S
H1445 C1457 0.950 . S
H1446 C1454 0.950 . S
H1447 C1456 0.950 1_545 S
H1448 C1458 0.948 1_655 S
H1449 C1460 0.950 . S
H1450 C1462 0.950 1_565 S
H1451 C1463 0.950 . S
C1452 H1444 0.948 1_655 S
C1452 C1453 1.386 . S
C1452 C1454 1.391 1_655 S
C1453 C1452 1.386 . S
C1453 C1457 1.393 . S
C1454 H1446 0.950 . S
C1454 C1452 1.391 1_455 S
C1454 C1455 1.400 1_455 S
C1455 C1454 1.400 1_655 S
C1455 C1456 1.398 . S
C1455 C1461 1.491 1_665 S
C1456 H1447 0.950 1_565 S
C1456 C1455 1.398 . S
C1456 C1457 1.391 . S
C1457 H1445 0.950 . S
C1457 C1453 1.393 . S
C1457 C1456 1.391 . S
C1458 H1448 0.948 1_455 S
C1458 C1459 1.386 . S
C1458 C1460 1.391 1_455 S
C1459 C1458 1.386 . S
C1459 C1463 1.393 . S
C1460 H1449 0.950 . S
C1460 C1458 1.391 1_655 S
C1460 C1461 1.400 1_655 S
C1461 C1455 1.491 1_445 S
C1461 C1460 1.400 1_455 S
C1461 C1462 1.398 . S
C1462 H1450 0.950 1_545 S
C1462 C1461 1.398 . S
C1462 C1463 1.391 . S
C1463 H1451 0.950 . S
C1463 C1459 1.393 . S
C1463 C1462 1.391 . S
H1464 C1472 0.950 . S
H1465 C1477 0.950 . S
H1466 C1474 0.950 . S
H1467 C1476 0.950 . S
H1468 C1478 0.950 . S
H1469 C1480 0.950 . S
H1470 C1482 0.950 . S
H1471 C1483 0.950 . S
C1472 H1464 0.950 . S
C1472 C1473 1.386 . S
C1472 C1474 1.391 . S
C1473 C1472 1.386 . S
C1473 C1477 1.393 . S
C1474 H1466 0.950 . S
C1474 C1472 1.391 . S
C1474 C1475 1.400 . S
C1475 C1474 1.400 . S
C1475 C1476 1.398 . S
C1475 C1481 1.491 1_455 S
C1476 H1467 0.950 . S
C1476 C1475 1.398 . S
C1476 C1477 1.391 . S
C1477 H1465 0.950 . S
C1477 C1473 1.393 . S
C1477 C1476 1.391 . S
C1478 H1468 0.950 . S
C1478 C1479 1.386 . S
C1478 C1480 1.391 . S
C1479 C1478 1.386 . S
C1479 C1483 1.393 . S
C1480 H1469 0.950 . S
C1480 C1478 1.391 . S
C1480 C1481 1.400 . S
C1481 C1475 1.491 1_655 S
C1481 C1480 1.400 . S
C1481 C1482 1.398 . S
C1482 H1470 0.950 . S
C1482 C1481 1.398 . S
C1482 C1483 1.391 . S
C1483 H1471 0.950 . S
C1483 C1479 1.393 . S
C1483 C1482 1.391 . S
H1484 C1492 0.950 . S
H1485 C1497 0.950 . S
H1486 C1494 0.950 . S
H1487 C1496 0.950 . S
H1488 C1498 0.950 . S
H1489 C1500 0.950 . S
H1490 C1502 0.950 . S
H1491 C1503 0.950 . S
C1492 H1484 0.950 . S
C1492 C1493 1.386 . S
C1492 C1494 1.391 . S
C1493 C1492 1.386 . S
C1493 C1497 1.393 . S
C1494 H1486 0.950 . S
C1494 C1492 1.391 . S
C1494 C1495 1.400 . S
C1495 C1494 1.400 . S
C1495 C1496 1.398 . S
C1495 C1501 1.491 . S
C1496 H1487 0.950 . S
C1496 C1495 1.398 . S
C1496 C1497 1.391 . S
C1497 H1485 0.950 . S
C1497 C1493 1.393 . S
C1497 C1496 1.391 . S
C1498 H1488 0.950 . S
C1498 C1499 1.386 . S
C1498 C1500 1.391 . S
C1499 C1498 1.386 . S
C1499 C1503 1.393 . S
C1500 H1489 0.950 . S
C1500 C1498 1.391 . S
C1500 C1501 1.400 . S
C1501 C1495 1.491 . S
C1501 C1500 1.400 . S
C1501 C1502 1.398 . S
C1502 H1490 0.950 . S
C1502 C1501 1.398 . S
C1502 C1503 1.391 . S
C1503 H1491 0.950 . S
C1503 C1499 1.393 . S
C1503 C1502 1.391 . S
H1504 C1512 0.950 . S
H1505 C1517 0.950 . S
H1506 C1514 0.950 . S
H1507 C1516 0.950 . S
H1508 C1518 0.950 . S
H1509 C1520 0.950 . S
H1510 C1522 0.950 . S
H1511 C1523 0.950 . S
C1512 H1504 0.950 . S
C1512 C1513 1.386 . S
C1512 C1514 1.391 . S
C1513 C1512 1.386 . S
C1513 C1517 1.393 . S
C1514 H1506 0.950 . S
C1514 C1512 1.391 . S
C1514 C1515 1.400 . S
C1515 C1514 1.400 . S
C1515 C1516 1.398 . S
C1515 C1521 1.491 . S
C1516 H1507 0.950 . S
C1516 C1515 1.398 . S
C1516 C1517 1.391 . S
C1517 H1505 0.950 . S
C1517 C1513 1.393 . S
C1517 C1516 1.391 . S
C1518 H1508 0.950 . S
C1518 C1519 1.386 . S
C1518 C1520 1.391 . S
C1519 C1518 1.386 . S
C1519 C1523 1.393 . S
C1520 H1509 0.950 . S
C1520 C1518 1.391 . S
C1520 C1521 1.400 . S
C1521 C1515 1.491 . S
C1521 C1520 1.400 . S
C1521 C1522 1.398 . S
C1522 H1510 0.950 . S
C1522 C1521 1.398 . S
C1522 C1523 1.391 . S
C1523 H1511 0.950 . S
C1523 C1519 1.393 . S
C1523 C1522 1.391 . S
H1524 C1532 0.950 . S
H1525 C1537 0.950 . S
H1526 C1534 0.950 . S
H1527 C1536 0.950 1_565 S
H1528 C1538 0.950 . S
H1529 C1540 0.950 . S
H1530 C1542 0.950 1_545 S
H1531 C1543 0.950 . S
C1532 H1524 0.950 . S
C1532 C1533 1.386 . S
C1532 C1534 1.391 . S
C1533 C1532 1.386 . S
C1533 C1537 1.393 . S
C1534 H1526 0.950 . S
C1534 C1532 1.391 . S
C1534 C1535 1.400 . S
C1535 C1534 1.400 . S
C1535 C1536 1.398 . S
C1535 C1541 1.491 1_545 S
C1536 H1527 0.950 1_545 S
C1536 C1535 1.398 . S
C1536 C1537 1.391 . S
C1537 H1525 0.950 . S
C1537 C1533 1.393 . S
C1537 C1536 1.391 . S
C1538 H1528 0.950 . S
C1538 C1539 1.386 . S
C1538 C1540 1.391 . S
C1539 C1538 1.386 . S
C1539 C1543 1.393 . S
C1540 H1529 0.950 . S
C1540 C1538 1.391 . S
C1540 C1541 1.400 . S
C1541 C1535 1.491 1_565 S
C1541 C1540 1.400 . S
C1541 C1542 1.398 . S
C1542 H1530 0.950 1_565 S
C1542 C1541 1.398 . S
C1542 C1543 1.391 . S
C1543 H1531 0.950 . S
C1543 C1539 1.393 . S
C1543 C1542 1.391 . S
H1544 C1552 0.950 . S
H1545 C1557 0.950 . S
H1546 C1554 0.949 1_545 S
H1547 C1556 0.950 . S
H1548 C1558 0.950 . S
H1549 C1560 0.949 1_565 S
H1550 C1562 0.950 . S
H1551 C1563 0.950 . S
C1552 H1544 0.950 . S
C1552 C1553 1.386 . S
C1552 C1554 1.391 . S
C1553 C1552 1.386 . S
C1553 C1557 1.393 . S
C1554 H1546 0.949 1_565 S
C1554 C1552 1.391 . S
C1554 C1555 1.400 . S
C1555 C1554 1.400 . S
C1555 C1556 1.398 . S
C1555 C1561 1.491 1_665 S
C1556 H1547 0.950 . S
C1556 C1555 1.398 . S
C1556 C1557 1.391 . S
C1557 H1545 0.950 . S
C1557 C1553 1.393 . S
C1557 C1556 1.391 . S
C1558 H1548 0.950 . S
C1558 C1559 1.386 . S
C1558 C1560 1.391 . S
C1559 C1558 1.386 . S
C1559 C1563 1.393 . S
C1560 H1549 0.949 1_545 S
C1560 C1558 1.391 . S
C1560 C1561 1.400 . S
C1561 C1555 1.491 1_445 S
C1561 C1560 1.400 . S
C1561 C1562 1.398 . S
C1562 H1550 0.950 . S
C1562 C1561 1.398 . S
C1562 C1563 1.391 . S
C1563 H1551 0.950 . S
C1563 C1559 1.393 . S
C1563 C1562 1.391 . S
H1564 C1572 0.950 . S
H1565 C1577 0.950 . S
H1566 C1574 0.950 1_455 S
H1567 C1576 0.950 . S
H1568 C1578 0.950 . S
H1569 C1580 0.950 1_655 S
H1570 C1582 0.950 . S
H1571 C1583 0.950 . S
C1572 H1564 0.950 . S
C1572 C1573 1.386 . S
C1572 C1574 1.391 . S
C1573 C1572 1.386 . S
C1573 C1577 1.393 . S
C1574 H1566 0.950 1_655 S
C1574 C1572 1.391 . S
C1574 C1575 1.400 . S
C1575 C1574 1.400 . S
C1575 C1576 1.398 . S
C1575 C1581 1.491 1_655 S
C1576 H1567 0.950 . S
C1576 C1575 1.398 . S
C1576 C1577 1.391 . S
C1577 H1565 0.950 . S
C1577 C1573 1.393 . S
C1577 C1576 1.391 . S
C1578 H1568 0.950 . S
C1578 C1579 1.386 . S
C1578 C1580 1.391 . S
C1579 C1578 1.386 . S
C1579 C1583 1.393 . S
C1580 H1569 0.950 1_455 S
C1580 C1578 1.391 . S
C1580 C1581 1.400 . S
C1581 C1575 1.491 1_455 S
C1581 C1580 1.400 . S
C1581 C1582 1.398 . S
C1582 H1570 0.950 . S
C1582 C1581 1.398 . S
C1582 C1583 1.391 . S
C1583 H1571 0.950 . S
C1583 C1579 1.393 . S
C1583 C1582 1.391 . S
C953 C239 1.543 . S
C959 C3 1.542 . S
C973 C62 1.545 . S
C979 C298 1.539 . S
C993 C357 1.545 . S
C999 C121 1.540 . S
C1013 C416 1.537 . S
C1019 C180 1.547 . S
C1033 C711 1.546 . S
C1039 C475 1.539 . S
C1053 C534 1.539 . S
C1059 C770 1.546 . S
C1073 C829 1.547 . S
C1079 C593 1.538 . S
C1093 C652 1.543 . S
C1099 C888 1.542 . S
C1113 C33 1.566 . S
C1119 C918 1.563 . S
C1133 C92 1.567 . S
C1139 C741 1.563 . S
C1153 C151 1.567 . S
C1159 C800 1.569 . S
C1173 C859 1.563 . S
C1179 C210 1.567 . S
C1193 C269 1.569 . S
C1199 C564 1.565 . S
C1213 C328 1.569 . S
C1219 C623 1.565 . S
C1233 C682 1.569 . S
C1239 C387 1.567 . S
C1253 C505 1.568 . S
C1259 C446 1.564 . S
C1273 C5 1.645 . S
C1279 C595 1.644 . S
C1293 C654 1.642 . S
C1299 C64 1.642 . S
C1313 C123 1.646 . S
C1319 C477 1.646 . S
C1333 C536 1.643 . S
C1339 C182 1.643 . S
C1353 C241 1.648 . S
C1359 C831 1.648 . S
C1373 C300 1.646 . S
C1379 C890 1.646 . S
C1393 C713 1.646 . S
C1399 C359 1.646 . S
C1413 C772 1.644 . S
C1419 C418 1.645 . S
C1433 C642 1.460 . S
C1439 C52 1.462 . S
C1453 C111 1.459 . S
C1459 C701 1.461 . S
C1473 C170 1.462 . S
C1479 C524 1.460 . S
C1493 C583 1.457 . S
C1499 C229 1.455 . S
C1513 C878 1.461 . S
C1519 C288 1.459 . S
C1533 C937 1.458 . S
C1539 C347 1.460 . S
C1553 C760 1.463 . S
C1559 C406 1.463 . S
C1573 C465 1.461 . S
C1579 C819 1.462 . S
