# Generated by pormake.
# Topology eta-c, (3)-cn, num edge types: 1
# Building blocks:
#     Node 0, Type 0, BuildingBlock: OLANEW_clean_sbu_2, # of connection points: 3
#     Node 1, Type 0, BuildingBlock: OLANEW_clean_sbu_2, # of connection points: 3
#     Node 2, Type 0, BuildingBlock: OLANEW_clean_sbu_2, # of connection points: 3
#     Node 3, Type 0, BuildingBlock: OLANEW_clean_sbu_2, # of connection points: 3
#     Node 4, Type 0, BuildingBlock: OLANEW_clean_sbu_2, # of connection points: 3
#     Node 5, Type 0, BuildingBlock: OLANEW_clean_sbu_2, # of connection points: 3
#     Edge 6, Type (0, 0), BuildingBlock: MIFKUJ_clean_linker_0, # of connection points: 2
#     Edge 7, Type (0, 0), BuildingBlock: MIFKUJ_clean_linker_0, # of connection points: 2
#     Edge 8, Type (0, 0), BuildingBlock: MIFKUJ_clean_linker_0, # of connection points: 2
#     Edge 9, Type (0, 0), BuildingBlock: MIFKUJ_clean_linker_0, # of connection points: 2
#     Edge 10, Type (0, 0), BuildingBlock: MIFKUJ_clean_linker_0, # of connection points: 2
#     Edge 11, Type (0, 0), BuildingBlock: MIFKUJ_clean_linker_0, # of connection points: 2
#     Edge 12, Type (0, 0), BuildingBlock: MIFKUJ_clean_linker_0, # of connection points: 2
#     Edge 13, Type (0, 0), BuildingBlock: MIFKUJ_clean_linker_0, # of connection points: 2
#     Edge 14, Type (0, 0), BuildingBlock: MIFKUJ_clean_linker_0, # of connection points: 2
# Relax obj value: 0.000
# Max RMSD: 0.067
# Mean RMSD: 0.059
data_MOF--net-eta-c--node1-OLANEW_clean_sbu_2--edge1-MIFKUJ_clean_linker_0
_symmetry_space_group_name_H-M    P1
_symmetry_Int_Tables_number       1
_symmetry_cell_setting            triclinic
loop_
_symmetry_equiv_pos_as_xyz
'x, y, z'
_cell_length_a     71.89246
_cell_length_b     63.102952
_cell_length_c     19.08679
_cell_angle_alpha  95.486697
_cell_angle_beta   95.228363
_cell_angle_gamma 119.57021
loop_
_atom_site_label
_atom_site_type_symbol
_atom_site_fract_x
_atom_site_fract_y
_atom_site_fract_z
_atom_type_partial_charge
O0 O 0.43215 0.81989 0.02512 0.0
Cd1 Cd 0.439 0.85577 0.10865 0.0
O2 O 0.39979 0.80087 0.05454 0.0
Cd3 Cd 0.36684 0.7707 0.05485 0.0
O4 O 0.33908 0.74025 0.08811 0.0
C5 C 0.34349 0.73205 0.1416 0.0
O6 O 0.36385 0.742 0.17102 0.0
C7 C 0.41381 0.80035 0.01933 0.0
C8 C 0.46943 0.90053 0.07313 0.0
O9 O 0.47532 0.88854 0.11116 0.0
O10 O 0.44913 0.89122 0.05145 0.0
O11 O 0.61562 0.4614 0.54303 0.0
Cd12 Cd 0.60692 0.47578 0.43698 0.0
O13 O 0.6472 0.47068 0.51221 0.0
Cd14 Cd 0.6433 0.4798 0.40668 0.0
O15 O 0.65748 0.47599 0.31335 0.0
C16 C 0.64696 0.45851 0.26101 0.0
O17 O 0.62612 0.44344 0.25896 0.0
C18 C 0.63393 0.46291 0.55613 0.0
C19 C 0.57161 0.48286 0.44047 0.0
O20 O 0.56903 0.46205 0.41308 0.0
O21 O 0.59088 0.50025 0.4669 0.0
O22 O 0.14702 0.51605 0.76557 0.0
Cd23 Cd 0.12709 0.51461 0.65267 0.0
O24 O 0.17344 0.55403 0.76692 0.0
Cd25 Cd 0.1637 0.5566 0.65777 0.0
O26 O 0.17663 0.56915 0.56084 0.0
C27 C 0.19644 0.57535 0.56384 0.0
O28 O 0.20634 0.57308 0.62153 0.0
C29 C 0.16455 0.53502 0.79693 0.0
C30 C 0.08484 0.50239 0.66803 0.0
O31 O 0.08963 0.48562 0.65251 0.0
O32 O 0.10002 0.52501 0.6757 0.0
O33 O 0.68063 0.20951 0.9498 0.0
Cd34 Cd 0.65796 0.17529 0.85263 0.0
O35 O 0.65689 0.22177 0.94435 0.0
Cd36 Cd 0.64721 0.24916 0.96835 0.0
O37 O 0.64525 0.28236 0.96351 0.0
C38 C 0.66249 0.30129 0.95425 0.0
O39 O 0.68004 0.29981 0.95215 0.0
C40 C 0.67497 0.22478 0.97203 0.0
C41 C 0.62756 0.13275 0.89872 0.0
O42 O 0.64687 0.13712 0.89598 0.0
O43 O 0.6227 0.14865 0.88034 0.0
O44 O 0.37498 0.58199 0.50159 0.0
Cd45 Cd 0.36517 0.54703 0.40888 0.0
O46 O 0.35045 0.55984 0.56554 0.0
Cd47 Cd 0.33367 0.52877 0.47844 0.0
O48 O 0.30926 0.51913 0.38582 0.0
C49 C 0.31085 0.53797 0.36187 0.0
O50 O 0.32696 0.5599 0.39171 0.0
C51 C 0.36639 0.58038 0.55771 0.0
C52 C 0.39745 0.53452 0.4134 0.0
O53 O 0.39778 0.55039 0.37557 0.0
O54 O 0.38179 0.52448 0.44884 0.0
O55 O 0.80208 0.38499 0.66142 0.0
Cd56 Cd 0.82257 0.40869 0.7784 0.0
O57 O 0.80844 0.41806 0.61507 0.0
Cd58 Cd 0.81526 0.43858 0.72154 0.0
O59 O 0.79894 0.44329 0.80742 0.0
C60 C 0.78367 0.42369 0.82319 0.0
O61 O 0.77968 0.40222 0.79066 0.0
C62 C 0.80123 0.39495 0.60725 0.0
C63 C 0.86656 0.42761 0.77302 0.0
O64 O 0.85481 0.40613 0.7891 0.0
O65 O 0.85763 0.44045 0.76104 0.0
H66 H 0.46184 0.93304 0.00897 0.0
H67 H 0.48855 0.97295 0.98162 0.0
H68 H 0.54018 0.96205 0.06858 0.0
H69 H 0.51355 0.92239 0.0979 0.0
H70 H 0.54976 0.00755 0.11243 0.0
H71 H 0.52449 0.95447 0.88616 0.0
H72 H 0.49734 0.92431 0.78539 0.0
H73 H 0.47602 0.97533 0.74497 0.0
H74 H 0.50287 0.00569 0.84615 0.0
H75 H 0.63412 0.09842 0.95587 0.0
H76 H 0.60691 0.05971 0.98859 0.0
H77 H 0.55696 0.07611 0.92383 0.0
H78 H 0.58408 0.11493 0.89111 0.0
H79 H 0.54638 0.0284 0.86922 0.0
H80 H 0.57302 0.08191 0.09562 0.0
H81 H 0.60092 0.11174 0.1953 0.0
H82 H 0.62069 0.05926 0.23353 0.0
H83 H 0.59309 0.02922 0.13337 0.0
C84 C 0.47888 0.9391 0.02213 0.0
C85 C 0.48558 0.92451 0.05538 0.0
C86 C 0.49414 0.96189 0.0062 0.0
C87 C 0.51639 0.97037 0.02216 0.0
C88 C 0.52311 0.95589 0.05573 0.0
C89 C 0.50786 0.93319 0.07225 0.0
C90 C 0.53267 0.99445 0.00453 0.0
C91 C 0.54917 0.01196 0.05901 0.0
C92 C 0.53167 0.00044 0.93517 0.0
C93 C 0.51554 0.98225 0.87418 0.0
C94 C 0.5139 0.95918 0.85612 0.0
C95 C 0.49858 0.94207 0.79887 0.0
C96 C 0.48492 0.94787 0.75892 0.0
C97 C 0.48659 0.97084 0.77603 0.0
C98 C 0.50187 0.98802 0.83328 0.0
C99 C 0.61736 0.09386 0.94889 0.0
C100 C 0.61125 0.10975 0.92091 0.0
C101 C 0.60186 0.07178 0.96784 0.0
C102 C 0.57996 0.06514 0.95896 0.0
C103 C 0.5738 0.08094 0.93111 0.0
C104 C 0.58932 0.10314 0.9127 0.0
C105 C 0.56343 0.04138 0.97703 0.0
C106 C 0.5469 0.02394 0.92261 0.0
C107 C 0.56452 0.03538 0.04624 0.0
C108 C 0.58113 0.05341 0.10651 0.0
C109 C 0.58344 0.07681 0.12486 0.0
C110 C 0.59918 0.09373 0.18154 0.0
C111 C 0.61261 0.08742 0.2206 0.0
C112 C 0.61029 0.06414 0.20316 0.0
C113 C 0.5946 0.04715 0.14648 0.0
H114 H 0.62478 0.10055 0.26448 0.0
H115 H 0.47308 0.9346 0.71461 0.0
H116 H 0.43327 0.5536 0.34747 0.0
H117 H 0.46182 0.54312 0.35323 0.0
H118 H 0.42917 0.49027 0.49089 0.0
H119 H 0.40072 0.50092 0.48634 0.0
H120 H 0.47146 0.5169 0.53957 0.0
H121 H 0.42695 0.47141 0.31474 0.0
H122 H 0.40728 0.46556 0.19515 0.0
H123 H 0.46692 0.51582 0.12806 0.0
H124 H 0.48692 0.52223 0.24758 0.0
H125 H 0.52936 0.45059 0.38127 0.0
H126 H 0.49875 0.45758 0.37885 0.0
H127 H 0.54101 0.5311 0.4957 0.0
H128 H 0.57168 0.52423 0.49886 0.0
H129 H 0.49204 0.49087 0.32026 0.0
H130 H 0.51233 0.5456 0.60488 0.0
H131 H 0.53015 0.54819 0.72474 0.0
H132 H 0.51532 0.47321 0.67274 0.0
H133 H 0.49716 0.47006 0.553 0.0
C134 C 0.43213 0.53971 0.3789 0.0
C135 C 0.41467 0.52804 0.4163 0.0
C136 C 0.44843 0.53368 0.38193 0.0
C137 C 0.44752 0.51572 0.42189 0.0
C138 C 0.4302 0.50417 0.4597 0.0
C139 C 0.41391 0.51024 0.45685 0.0
C140 C 0.46472 0.50912 0.42478 0.0
C141 C 0.47595 0.51121 0.49161 0.0
C142 C 0.47038 0.50132 0.36228 0.0
C143 C 0.4584 0.49746 0.29031 0.0
C144 C 0.43585 0.48136 0.27464 0.0
C145 C 0.42464 0.47792 0.20684 0.0
C146 C 0.43583 0.49036 0.1541 0.0
C147 C 0.45827 0.50622 0.16899 0.0
C148 C 0.46955 0.50974 0.23673 0.0
C149 C 0.53214 0.46822 0.40677 0.0
C150 C 0.55296 0.48684 0.44039 0.0
C151 C 0.51463 0.4722 0.40511 0.0
C152 C 0.51756 0.49479 0.43748 0.0
C153 C 0.53832 0.51341 0.47115 0.0
C154 C 0.55585 0.50947 0.47269 0.0
C155 C 0.49898 0.49903 0.43496 0.0
C156 C 0.48753 0.49655 0.3682 0.0
C157 C 0.49289 0.50608 0.49755 0.0
C158 C 0.50358 0.5077 0.56972 0.0
C159 C 0.51281 0.52964 0.61913 0.0
C160 C 0.52298 0.53121 0.68703 0.0
C161 C 0.52393 0.5109 0.70626 0.0
C162 C 0.51465 0.48896 0.65769 0.0
C163 C 0.50444 0.48728 0.58976 0.0
H164 H 0.53181 0.51216 0.75883 0.0
H165 H 0.42713 0.48767 0.10164 0.0
H166 H 0.06832 0.53312 0.68443 0.0
H167 H 0.03147 0.52203 0.70142 0.0
H168 H 0.01425 0.4458 0.69243 0.0
H169 H 0.05083 0.45665 0.67333 0.0
H170 H 0.9832 0.44817 0.61795 0.0
H171 H 0.02492 0.48483 0.85275 0.0
H172 H 0.05459 0.51735 0.94338 0.0
H173 H 0.03224 0.56747 0.90282 0.0
H174 H 0.00258 0.53532 0.81125 0.0
H175 H 0.88813 0.40213 0.77489 0.0
H176 H 0.92547 0.41671 0.75648 0.0
H177 H 0.93441 0.48853 0.73652 0.0
H178 H 0.89695 0.47405 0.75458 0.0
H179 H 0.96936 0.49019 0.82271 0.0
H180 H 0.92656 0.45221 0.59093 0.0
H181 H 0.89654 0.41893 0.50297 0.0
H182 H 0.92089 0.37042 0.5409 0.0
H183 H 0.95089 0.40332 0.62994 0.0
C184 C 0.05667 0.51399 0.68601 0.0
C185 C 0.06251 0.49577 0.67772 0.0
C186 C 0.03563 0.50769 0.69609 0.0
C187 C 0.02014 0.48312 0.69925 0.0
C188 C 0.02591 0.46488 0.69023 0.0
C189 C 0.04685 0.47113 0.67947 0.0
C190 C 0.99785 0.47626 0.71144 0.0
C191 C 0.98022 0.45719 0.66324 0.0
C192 C 0.99389 0.48842 0.76951 0.0
C193 C 0.01167 0.50775 0.82463 0.0
C194 C 0.02643 0.50284 0.86278 0.0
C195 C 0.04323 0.5212 0.91438 0.0
C196 C 0.04534 0.54448 0.9287 0.0
C197 C 0.03061 0.54944 0.89158 0.0
C198 C 0.01379 0.53115 0.83987 0.0
C199 C 0.89805 0.42107 0.76702 0.0
C200 C 0.88954 0.43691 0.76593 0.0
C201 C 0.91936 0.42934 0.75626 0.0
C202 C 0.9326 0.45362 0.74447 0.0
C203 C 0.92441 0.46971 0.74538 0.0
C204 C 0.903 0.46138 0.75553 0.0
C205 C 0.95487 0.46194 0.72985 0.0
C206 C 0.97244 0.48128 0.7774 0.0
C207 C 0.9588 0.44995 0.67148 0.0
C208 C 0.94086 0.43017 0.61761 0.0
C209 C 0.92542 0.43439 0.58095 0.0
C210 C 0.90842 0.4156 0.53082 0.0
C211 C 0.90678 0.39255 0.51648 0.0
C212 C 0.92217 0.38827 0.55212 0.0
C213 C 0.93918 0.40699 0.60238 0.0
H214 H 0.8936 0.37803 0.47766 0.0
H215 H 0.05835 0.55867 0.96868 0.0
H216 H 0.34794 0.71323 0.26047 0.0
H217 H 0.31948 0.68189 0.31424 0.0
H218 H 0.27119 0.67448 0.14645 0.0
H219 H 0.29972 0.70641 0.09269 0.0
H220 H 0.26007 0.67796 0.27821 0.0
H221 H 0.28327 0.62795 0.14855 0.0
H222 H 0.31141 0.61995 0.11046 0.0
H223 H 0.33461 0.6228 0.32857 0.0
H224 H 0.30638 0.63041 0.36784 0.0
H225 H 0.18105 0.58046 0.43302 0.0
H226 H 0.20233 0.60134 0.3421 0.0
H227 H 0.26082 0.61665 0.47496 0.0
H228 H 0.23977 0.59535 0.56443 0.0
H229 H 0.26252 0.60467 0.34031 0.0
H230 H 0.24332 0.65925 0.47141 0.0
H231 H 0.21779 0.67092 0.51466 0.0
H232 H 0.18944 0.66299 0.29883 0.0
H233 H 0.2147 0.65107 0.25438 0.0
C234 C 0.3313 0.70488 0.23458 0.0
C235 C 0.32611 0.7123 0.17219 0.0
C236 C 0.31504 0.68684 0.26524 0.0
C237 C 0.29324 0.67557 0.23372 0.0
C238 C 0.28794 0.68288 0.17138 0.0
C239 C 0.30425 0.70107 0.14072 0.0
C240 C 0.27609 0.65688 0.26798 0.0
C241 C 0.26029 0.66164 0.29049 0.0
C242 C 0.27661 0.63582 0.28491 0.0
C243 C 0.29271 0.62972 0.26107 0.0
C244 C 0.29428 0.62669 0.18831 0.0
C245 C 0.31026 0.62224 0.16652 0.0
C246 C 0.32481 0.62089 0.21707 0.0
C247 C 0.32331 0.62381 0.28946 0.0
C248 C 0.3072 0.62797 0.31146 0.0
C249 C 0.19842 0.58809 0.44244 0.0
C250 C 0.20874 0.58645 0.50625 0.0
C251 C 0.21056 0.60004 0.39054 0.0
C252 C 0.23321 0.61087 0.40218 0.0
C253 C 0.24338 0.60844 0.4647 0.0
C254 C 0.23129 0.59634 0.51608 0.0
C255 C 0.24672 0.62601 0.35196 0.0
C256 C 0.26193 0.62066 0.32667 0.0
C257 C 0.24574 0.64663 0.33287 0.0
C258 C 0.23066 0.65391 0.35963 0.0
C259 C 0.23152 0.65981 0.43323 0.0
C260 C 0.21713 0.66651 0.45795 0.0
C261 C 0.20194 0.66759 0.40954 0.0
C262 C 0.20117 0.66207 0.33628 0.0
C263 C 0.21551 0.65534 0.3113 0.0
H264 H 0.19081 0.67279 0.42877 0.0
H265 H 0.33722 0.61752 0.20015 0.0
H266 H 0.60876 0.44062 0.65721 0.0
H267 H 0.61631 0.41923 0.74671 0.0
H268 H 0.67842 0.44159 0.68203 0.0
H269 H 0.67143 0.46327 0.5948 0.0
H270 H 0.65548 0.39336 0.67452 0.0
H271 H 0.67451 0.46388 0.84353 0.0
H272 H 0.6712 0.49622 0.91441 0.0
H273 H 0.61815 0.44094 0.9995 0.0
H274 H 0.62097 0.4082 0.92838 0.0
H275 H 0.69397 0.34031 0.90473 0.0
H276 H 0.69142 0.37362 0.85872 0.0
H277 H 0.62774 0.34576 0.91583 0.0
H278 H 0.63016 0.3122 0.96274 0.0
H279 H 0.65197 0.39796 0.93346 0.0
H280 H 0.63147 0.32769 0.75243 0.0
H281 H 0.63729 0.29623 0.68774 0.0
H282 H 0.69518 0.35331 0.62809 0.0
H283 H 0.68982 0.38509 0.6932 0.0
C284 C 0.62427 0.44151 0.66351 0.0
C285 C 0.63938 0.45345 0.61825 0.0
C286 C 0.62858 0.42935 0.71481 0.0
C287 C 0.64802 0.42892 0.72133 0.0
C288 C 0.66347 0.44189 0.67866 0.0
C289 C 0.65933 0.45419 0.62827 0.0
C290 C 0.65133 0.41264 0.76572 0.0
C291 C 0.65499 0.39468 0.73136 0.0
C292 C 0.65022 0.41395 0.83958 0.0
C293 C 0.64783 0.43353 0.87996 0.0
C294 C 0.66194 0.45857 0.87655 0.0
C295 C 0.66021 0.47699 0.91704 0.0
C296 C 0.64444 0.47064 0.9613 0.0
C297 C 0.63033 0.44583 0.96503 0.0
C298 C 0.63199 0.42734 0.92464 0.0
C299 C 0.6796 0.34153 0.90915 0.0
C300 C 0.66213 0.32339 0.93644 0.0
C301 C 0.67822 0.36067 0.88301 0.0
C302 C 0.65934 0.362 0.88321 0.0
C303 C 0.64246 0.34501 0.91509 0.0
C304 C 0.6438 0.32575 0.94131 0.0
C305 C 0.6562 0.37904 0.84205 0.0
C306 C 0.65245 0.39689 0.8767 0.0
C307 C 0.6573 0.37783 0.76831 0.0
C308 C 0.66032 0.35874 0.72803 0.0
C309 C 0.64548 0.33351 0.72575 0.0
C310 C 0.6487 0.31563 0.68902 0.0
C311 C 0.66661 0.32277 0.65392 0.0
C312 C 0.68132 0.34781 0.65532 0.0
C313 C 0.67818 0.36576 0.69205 0.0
H314 H 0.66908 0.3089 0.62554 0.0
H315 H 0.64317 0.48494 0.99281 0.0
H316 H 0.27267 0.49635 0.29911 0.0
H317 H 0.24458 0.49385 0.21002 0.0
H318 H 0.28335 0.57204 0.20809 0.0
H319 H 0.31133 0.57467 0.29719 0.0
H320 H 0.2426 0.55962 0.21313 0.0
H321 H 0.27959 0.52944 0.07361 0.0
H322 H 0.29428 0.5026 0.03975 0.0
H323 H 0.23041 0.43882 0.00842 0.0
H324 H 0.21538 0.46527 0.04301 0.0
H325 H 0.2003 0.57338 0.88229 0.0
H326 H 0.22115 0.5716 0.98733 0.0
H327 H 0.17506 0.49396 0.97251 0.0
H328 H 0.15409 0.4955 0.86661 0.0
H329 H 0.21623 0.50315 0.98157 0.0
H330 H 0.17921 0.53412 0.11881 0.0
H331 H 0.16508 0.56177 0.14992 0.0
H332 H 0.22933 0.62465 0.17828 0.0
H333 H 0.24392 0.59732 0.14935 0.0
C334 C 0.27526 0.51297 0.27932 0.0
C335 C 0.29423 0.53575 0.30517 0.0
C336 C 0.2592 0.51152 0.22843 0.0
C337 C 0.26194 0.53277 0.20217 0.0
C338 C 0.28089 0.55546 0.22778 0.0
C339 C 0.29689 0.55691 0.27852 0.0
C340 C 0.24515 0.53157 0.14795 0.0
C341 C 0.23691 0.54733 0.16237 0.0
C342 C 0.23739 0.51524 0.08228 0.0
C343 C 0.2464 0.49929 0.06175 0.0
C344 C 0.26871 0.50966 0.06013 0.0
C345 C 0.27709 0.49453 0.04068 0.0
C346 C 0.2633 0.46901 0.02218 0.0
C347 C 0.24109 0.45858 0.02292 0.0
C348 C 0.23262 0.47363 0.04241 0.0
C349 C 0.19437 0.55597 0.90189 0.0
C350 C 0.17558 0.53454 0.86573 0.0
C351 C 0.20626 0.55503 0.96234 0.0
C352 C 0.19959 0.53268 0.98808 0.0
C353 C 0.18046 0.51141 0.9536 0.0
C354 C 0.16847 0.51235 0.89319 0.0
C355 C 0.21373 0.53119 0.04667 0.0
C356 C 0.2216 0.51505 0.0329 0.0
C357 C 0.22122 0.54724 0.11273 0.0
C358 C 0.21263 0.56371 0.13166 0.0
C359 C 0.19032 0.55385 0.13191 0.0
C360 C 0.18226 0.56945 0.14962 0.0
C361 C 0.19634 0.59496 0.16665 0.0
C362 C 0.21851 0.60489 0.16621 0.0
C363 C 0.2267 0.58935 0.14954 0.0
H364 H 0.19005 0.60701 0.17992 0.0
H365 H 0.26982 0.45732 0.00709 0.0
H366 H 0.77692 0.34469 0.57628 0.0
H367 H 0.75831 0.31929 0.46006 0.0
H368 H 0.78388 0.38469 0.36093 0.0
H369 H 0.802 0.41034 0.4777 0.0
H370 H 0.74326 0.35586 0.30831 0.0
H371 H 0.80393 0.34441 0.34572 0.0
H372 H 0.82954 0.33506 0.41093 0.0
H373 H 0.77766 0.26173 0.41558 0.0
H374 H 0.75168 0.27074 0.35124 0.0
H375 H 0.71901 0.25034 0.99278 0.0
H376 H 0.7436 0.28408 0.08933 0.0
H377 H 0.68871 0.28009 0.17553 0.0
H378 H 0.66418 0.24647 0.07928 0.0
H379 H 0.74818 0.2822 0.22406 0.0
H380 H 0.69692 0.32722 0.2581 0.0
H381 H 0.6759 0.34131 0.18713 0.0
H382 H 0.71727 0.35503 0.02799 0.0
H383 H 0.73778 0.33975 0.09624 0.0
C384 C 0.77874 0.35368 0.52973 0.0
C385 C 0.791 0.37953 0.53618 0.0
C386 C 0.76814 0.33912 0.4632 0.0
C387 C 0.76993 0.35004 0.40154 0.0
C388 C 0.78227 0.37585 0.40775 0.0
C389 C 0.79268 0.39048 0.47448 0.0
C390 C 0.75838 0.33451 0.33101 0.0
C391 C 0.74447 0.33985 0.2898 0.0
C392 C 0.76024 0.3139 0.30578 0.0
C393 C 0.77583 0.30832 0.34406 0.0
C394 C 0.79796 0.32634 0.36103 0.0
C395 C 0.81255 0.32109 0.39779 0.0
C396 C 0.80522 0.29783 0.41749 0.0
C397 C 0.7833 0.27974 0.40031 0.0
C398 C 0.76865 0.2849 0.3636 0.0
C399 C 0.71224 0.25694 0.03187 0.0
C400 C 0.6897 0.24611 0.02782 0.0
C401 C 0.72628 0.27624 0.08683 0.0
C402 C 0.71804 0.28496 0.13907 0.0
C403 C 0.6955 0.27428 0.13466 0.0
C404 C 0.68146 0.25505 0.0795 0.0
C405 C 0.73282 0.30333 0.20207 0.0
C406 C 0.74722 0.29841 0.24219 0.0
C407 C 0.73192 0.32471 0.22527 0.0
C408 C 0.71878 0.33231 0.18202 0.0
C409 C 0.70138 0.33306 0.20764 0.0
C410 C 0.68953 0.34118 0.16782 0.0
C411 C 0.69537 0.34931 0.10343 0.0
C412 C 0.71272 0.3487 0.07778 0.0
C413 C 0.72428 0.34 0.11652 0.0
H414 H 0.68645 0.35609 0.0735 0.0
H415 H 0.81654 0.29381 0.44598 0.0
H416 H 0.34905 0.58432 0.67661 0.0
H417 H 0.35829 0.62201 0.75596 0.0
H418 H 0.40878 0.66493 0.63739 0.0
H419 H 0.39977 0.62727 0.55783 0.0
H420 H 0.4218 0.68068 0.78017 0.0
H421 H 0.36177 0.66316 0.60758 0.0
H422 H 0.32541 0.63825 0.53534 0.0
H423 H 0.29647 0.62928 0.72555 0.0
H424 H 0.33271 0.65387 0.79906 0.0
H425 H 0.43152 0.79724 0.90139 0.0
H426 H 0.42463 0.75985 0.82485 0.0
H427 H 0.37937 0.71493 0.95567 0.0
H428 H 0.38702 0.75209 0.03433 0.0
H429 H 0.36389 0.70087 0.80433 0.0
H430 H 0.42569 0.71945 0.97567 0.0
H431 H 0.46261 0.74598 0.04292 0.0
H432 H 0.48873 0.7548 0.84718 0.0
H433 H 0.4519 0.72858 0.77867 0.0
C434 C 0.3623 0.60172 0.66779 0.0
C435 C 0.37358 0.60278 0.61053 0.0
C436 C 0.36747 0.62326 0.71299 0.0
C437 C 0.38397 0.64629 0.7018 0.0
C438 C 0.39591 0.64734 0.64671 0.0
C439 C 0.39072 0.62579 0.60129 0.0
C440 C 0.38834 0.66929 0.74642 0.0
C441 C 0.40921 0.68525 0.78477 0.0
C442 C 0.37183 0.67511 0.75285 0.0
C443 C 0.34999 0.66015 0.70891 0.0
C444 C 0.34767 0.65568 0.63408 0.0
C445 C 0.32708 0.64166 0.59288 0.0
C446 C 0.30864 0.63213 0.62584 0.0
C447 C 0.31077 0.63664 0.70009 0.0
C448 C 0.33133 0.65064 0.74156 0.0
C449 C 0.42008 0.77939 0.9138 0.0
C450 C 0.40923 0.77766 0.9726 0.0
C451 C 0.41617 0.75808 0.87004 0.0
C452 C 0.40137 0.73468 0.8844 0.0
C453 C 0.39059 0.73286 0.94313 0.0
C454 C 0.3947 0.75415 0.9874 0.0
C455 C 0.39725 0.71206 0.83848 0.0
C456 C 0.37644 0.69623 0.79972 0.0
C457 C 0.41387 0.70654 0.83093 0.0
C458 C 0.43602 0.72228 0.87202 0.0
C459 C 0.43928 0.72724 0.94693 0.0
C460 C 0.4602 0.74218 0.98528 0.0
C461 C 0.478 0.75213 0.94934 0.0
C462 C 0.47493 0.74711 0.87495 0.0
C463 C 0.45403 0.7322 0.83634 0.0
H464 H 0.49419 0.76369 0.97913 0.0
H465 H 0.29271 0.62131 0.59385 0.0
H466 H 0.75105 0.38543 0.87277 0.0
H467 H 0.7248 0.38697 0.94259 0.0
H468 H 0.75686 0.46594 0.95216 0.0
H469 H 0.78325 0.46464 0.88261 0.0
H470 H 0.72533 0.40746 0.06816 0.0
H471 H 0.72067 0.48537 0.942 0.0
H472 H 0.72647 0.50219 0.82949 0.0
H473 H 0.71202 0.43206 0.71848 0.0
H474 H 0.70564 0.41466 0.82985 0.0
H475 H 0.6905 0.47693 0.27267 0.0
H476 H 0.70973 0.46535 0.19242 0.0
H477 H 0.64962 0.41637 0.05161 0.0
H478 H 0.63002 0.42762 0.13217 0.0
H479 H 0.6881 0.45144 0.98764 0.0
H480 H 0.66467 0.38952 0.13603 0.0
H481 H 0.65951 0.37371 0.25005 0.0
H482 H 0.72841 0.40911 0.31195 0.0
H483 H 0.73403 0.42604 0.1996 0.0
C484 C 0.75257 0.40316 0.88992 0.0
C485 C 0.76906 0.42489 0.87124 0.0
C486 C 0.73747 0.40397 0.92962 0.0
C487 C 0.73832 0.42641 0.95023 0.0
C488 C 0.75545 0.44828 0.93483 0.0
C489 C 0.77063 0.44754 0.89552 0.0
C490 C 0.72125 0.42703 0.98717 0.0
C491 C 0.71708 0.41692 0.05025 0.0
C492 C 0.71001 0.4388 0.96273 0.0
C493 C 0.71285 0.44875 0.89459 0.0
C494 C 0.71857 0.47347 0.89351 0.0
C495 C 0.722 0.48313 0.82992 0.0
C496 C 0.7198 0.46826 0.76702 0.0
C497 C 0.71389 0.44361 0.76739 0.0
C498 C 0.71029 0.43381 0.83069 0.0
C499 C 0.68133 0.46387 0.2243 0.0
C500 C 0.65871 0.45318 0.20878 0.0
C501 C 0.69235 0.45718 0.1788 0.0
C502 C 0.68103 0.43992 0.11654 0.0
C503 C 0.65858 0.42976 0.09947 0.0
C504 C 0.64744 0.43617 0.14558 0.0
C505 C 0.69295 0.4328 0.06957 0.0
C506 C 0.6961 0.44163 0.00463 0.0
C507 C 0.70308 0.4197 0.092 0.0
C508 C 0.69977 0.40941 0.15963 0.0
C509 C 0.67874 0.39435 0.17445 0.0
C510 C 0.67573 0.3852 0.23888 0.0
C511 C 0.69363 0.39054 0.28843 0.0
C512 C 0.71457 0.40508 0.27366 0.0
C513 C 0.71767 0.41453 0.20967 0.0
H514 H 0.69126 0.38327 0.33804 0.0
H515 H 0.7225 0.47579 0.71786 0.0
loop_
_geom_bond_atom_site_label_1
_geom_bond_atom_site_label_2
_geom_bond_distance
_geom_bond_site_symmetry_2
_ccdc_geom_bond_type
O0 Cd1 2.300 1_556 S
O0 C7 1.275 . S
Cd1 O0 2.300 1_554 S
Cd1 O9 2.381 . S
Cd1 O10 2.378 . S
O2 Cd3 2.385 1_556 S
O2 C7 1.255 . S
Cd3 O2 2.385 1_554 S
Cd3 O4 2.317 . S
O4 Cd3 2.317 . S
O4 C5 1.232 . S
C5 O4 1.232 . S
C5 O6 1.218 . S
O6 C5 1.218 . S
C7 O0 1.275 . S
C7 O2 1.255 . S
C8 O9 1.258 . S
C8 O10 1.256 . S
O9 Cd1 2.381 . S
O9 C8 1.258 . S
O10 Cd1 2.378 . S
O10 C8 1.256 . S
O11 Cd12 2.300 . S
O11 C18 1.275 . S
Cd12 O11 2.300 . S
Cd12 O20 2.381 . S
Cd12 O21 2.378 . S
O13 Cd14 2.385 . S
O13 C18 1.255 . S
Cd14 O13 2.385 . S
Cd14 O15 2.317 . S
O15 Cd14 2.317 . S
O15 C16 1.232 . S
C16 O15 1.232 . S
C16 O17 1.218 . S
O17 C16 1.218 . S
C18 O11 1.275 . S
C18 O13 1.255 . S
C19 O20 1.258 . S
C19 O21 1.256 . S
O20 Cd12 2.381 . S
O20 C19 1.258 . S
O21 Cd12 2.378 . S
O21 C19 1.256 . S
O22 Cd23 2.300 . S
O22 C29 1.275 . S
Cd23 O22 2.300 . S
Cd23 O31 2.381 . S
Cd23 O32 2.378 . S
O24 Cd25 2.385 . S
O24 C29 1.255 . S
Cd25 O24 2.385 . S
Cd25 O26 2.317 . S
O26 Cd25 2.317 . S
O26 C27 1.232 . S
C27 O26 1.232 . S
C27 O28 1.218 . S
O28 C27 1.218 . S
C29 O22 1.275 . S
C29 O24 1.255 . S
C30 O31 1.258 . S
C30 O32 1.256 . S
O31 Cd23 2.381 . S
O31 C30 1.258 . S
O32 Cd23 2.378 . S
O32 C30 1.256 . S
O33 Cd34 2.300 . S
O33 C40 1.275 . S
Cd34 O33 2.300 . S
Cd34 O42 2.381 . S
Cd34 O43 2.378 . S
O35 Cd36 2.385 . S
O35 C40 1.255 . S
Cd36 O35 2.385 . S
Cd36 O37 2.317 1_554 S
O37 Cd36 2.317 1_556 S
O37 C38 1.232 . S
C38 O37 1.232 . S
C38 O39 1.218 . S
O39 C38 1.218 . S
C40 O33 1.275 . S
C40 O35 1.255 . S
C41 O42 1.258 . S
C41 O43 1.256 . S
O42 Cd34 2.381 . S
O42 C41 1.258 . S
O43 Cd34 2.378 . S
O43 C41 1.256 . S
O44 Cd45 2.300 . S
O44 C51 1.275 . S
Cd45 O44 2.300 . S
Cd45 O53 2.381 . S
Cd45 O54 2.378 . S
O46 Cd47 2.385 . S
O46 C51 1.255 . S
Cd47 O46 2.385 . S
Cd47 O48 2.317 . S
O48 Cd47 2.317 . S
O48 C49 1.232 . S
C49 O48 1.232 . S
C49 O50 1.218 . S
O50 C49 1.218 . S
C51 O44 1.275 . S
C51 O46 1.255 . S
C52 O53 1.258 . S
C52 O54 1.256 . S
O53 Cd45 2.381 . S
O53 C52 1.258 . S
O54 Cd45 2.378 . S
O54 C52 1.256 . S
O55 Cd56 2.300 . S
O55 C62 1.275 . S
Cd56 O55 2.300 . S
Cd56 O64 2.381 . S
Cd56 O65 2.378 . S
O57 Cd58 2.385 . S
O57 C62 1.255 . S
Cd58 O57 2.385 . S
Cd58 O59 2.317 . S
O59 Cd58 2.317 . S
O59 C60 1.232 . S
C60 O59 1.232 . S
C60 O61 1.218 . S
O61 C60 1.218 . S
C62 O55 1.275 . S
C62 O57 1.255 . S
C63 O64 1.258 . S
C63 O65 1.256 . S
O64 Cd56 2.381 . S
O64 C63 1.258 . S
O65 Cd56 2.378 . S
O65 C63 1.256 . S
H66 C84 0.951 . S
H67 C86 0.954 . S
H68 C88 0.950 . S
H69 C89 0.950 . S
H70 C91 0.950 . S
H71 C94 0.950 . S
H72 C95 0.950 . S
H73 C97 0.950 . S
H74 C98 0.950 . S
H75 C99 0.951 . S
H76 C101 0.951 . S
H77 C103 0.950 . S
H78 C104 0.950 . S
H79 C106 0.950 . S
H80 C109 0.950 . S
H81 C110 0.950 . S
H82 C112 0.950 . S
H83 C113 0.950 . S
C84 H66 0.951 . S
C84 C85 1.366 . S
C84 C86 1.388 . S
C85 C84 1.366 . S
C85 C89 1.385 . S
C86 H67 0.954 . S
C86 C84 1.388 . S
C86 C87 1.366 . S
C87 C86 1.366 . S
C87 C88 1.414 . S
C87 C90 1.499 . S
C88 H68 0.950 . S
C88 C87 1.414 . S
C88 C89 1.374 . S
C89 H69 0.950 . S
C89 C85 1.385 . S
C89 C88 1.374 . S
C90 C87 1.499 . S
C90 C91 1.373 . S
C90 C92 1.389 1_554 S
C91 H70 0.950 . S
C91 C90 1.373 . S
C91 C107 1.377 1_565 S
C92 C90 1.389 1_556 S
C92 C93 1.524 . S
C92 C106 1.377 1_565 S
C93 C92 1.524 . S
C93 C94 1.397 . S
C93 C98 1.363 . S
C94 H71 0.950 . S
C94 C93 1.397 . S
C94 C95 1.334 . S
C95 H72 0.950 . S
C95 C94 1.334 . S
C95 C96 1.287 . S
C96 C95 1.287 . S
C96 C97 1.524 . S
C96 H115 0.913 . S
C97 H73 0.950 . S
C97 C96 1.524 . S
C97 C98 1.415 . S
C98 H74 0.950 . S
C98 C93 1.363 . S
C98 C97 1.415 . S
C99 H75 0.951 . S
C99 C100 1.366 . S
C99 C101 1.388 . S
C100 C99 1.366 . S
C100 C104 1.385 1_554 S
C101 H76 0.951 . S
C101 C99 1.388 . S
C101 C102 1.366 . S
C102 C101 1.366 . S
C102 C103 1.414 1_554 S
C102 C105 1.499 . S
C103 H77 0.950 . S
C103 C102 1.414 1_556 S
C103 C104 1.374 . S
C104 H78 0.950 . S
C104 C100 1.385 1_556 S
C104 C103 1.374 . S
C105 C102 1.499 . S
C105 C106 1.373 1_554 S
C105 C107 1.389 . S
C106 H79 0.950 . S
C106 C92 1.377 1_545 S
C106 C105 1.373 1_556 S
C107 C91 1.377 1_545 S
C107 C105 1.389 . S
C107 C108 1.524 . S
C108 C107 1.524 . S
C108 C109 1.397 . S
C108 C113 1.363 . S
C109 H80 0.950 . S
C109 C108 1.397 . S
C109 C110 1.334 . S
C110 H81 0.950 . S
C110 C109 1.334 . S
C110 C111 1.287 . S
C111 C110 1.287 . S
C111 C112 1.524 . S
C111 H114 0.999 . S
C112 H82 0.950 . S
C112 C111 1.524 . S
C112 C113 1.415 . S
C113 H83 0.950 . S
C113 C108 1.363 . S
C113 C112 1.415 . S
H114 C111 0.999 . S
H115 C96 0.913 . S
H116 C134 0.951 . S
H117 C136 0.951 . S
H118 C138 0.950 . S
H119 C139 0.950 . S
H120 C141 0.950 . S
H121 C144 0.950 . S
H122 C145 0.950 . S
H123 C147 0.950 . S
H124 C148 0.950 . S
H125 C149 0.951 . S
H126 C151 0.951 . S
H127 C153 0.950 . S
H128 C154 0.950 . S
H129 C156 0.950 . S
H130 C159 0.950 . S
H131 C160 0.950 . S
H132 C162 0.950 . S
H133 C163 0.950 . S
C134 H116 0.951 . S
C134 C135 1.366 . S
C134 C136 1.388 . S
C135 C134 1.366 . S
C135 C139 1.385 . S
C136 H117 0.951 . S
C136 C134 1.388 . S
C136 C137 1.366 . S
C137 C136 1.366 . S
C137 C138 1.414 . S
C137 C140 1.499 . S
C138 H118 0.950 . S
C138 C137 1.414 . S
C138 C139 1.374 . S
C139 H119 0.950 . S
C139 C135 1.385 . S
C139 C138 1.374 . S
C140 C137 1.499 . S
C140 C141 1.373 . S
C140 C142 1.389 . S
C141 H120 0.950 . S
C141 C140 1.373 . S
C141 C157 1.377 . S
C142 C140 1.389 . S
C142 C143 1.524 . S
C142 C156 1.377 . S
C143 C142 1.524 . S
C143 C144 1.397 . S
C143 C148 1.363 . S
C144 H121 0.950 . S
C144 C143 1.397 . S
C144 C145 1.334 . S
C145 H122 0.950 . S
C145 C144 1.334 . S
C145 C146 1.287 . S
C146 C145 1.287 . S
C146 C147 1.524 . S
C146 H165 0.913 . S
C147 H123 0.950 . S
C147 C146 1.524 . S
C147 C148 1.415 . S
C148 H124 0.950 . S
C148 C143 1.363 . S
C148 C147 1.415 . S
C149 H125 0.951 . S
C149 C150 1.366 . S
C149 C151 1.388 . S
C150 C149 1.366 . S
C150 C154 1.385 . S
C151 H126 0.951 . S
C151 C149 1.388 . S
C151 C152 1.366 . S
C152 C151 1.366 . S
C152 C153 1.414 . S
C152 C155 1.499 . S
C153 H127 0.950 . S
C153 C152 1.414 . S
C153 C154 1.374 . S
C154 H128 0.950 . S
C154 C150 1.385 . S
C154 C153 1.374 . S
C155 C152 1.499 . S
C155 C156 1.373 . S
C155 C157 1.389 . S
C156 H129 0.950 . S
C156 C142 1.377 . S
C156 C155 1.373 . S
C157 C141 1.377 . S
C157 C155 1.389 . S
C157 C158 1.524 . S
C158 C157 1.524 . S
C158 C159 1.397 . S
C158 C163 1.363 . S
C159 H130 0.950 . S
C159 C158 1.397 . S
C159 C160 1.334 . S
C160 H131 0.950 . S
C160 C159 1.334 . S
C160 C161 1.287 . S
C161 C160 1.287 . S
C161 C162 1.524 . S
C161 H164 0.999 . S
C162 H132 0.950 . S
C162 C161 1.524 . S
C162 C163 1.415 . S
C163 H133 0.950 . S
C163 C158 1.363 . S
C163 C162 1.415 . S
H164 C161 0.999 . S
H165 C146 0.913 . S
H166 C184 0.951 . S
H167 C186 0.951 . S
H168 C188 0.950 . S
H169 C189 0.950 . S
H170 C191 0.950 . S
H171 C194 0.950 . S
H172 C195 0.950 . S
H173 C197 0.950 . S
H174 C198 0.950 . S
H175 C199 0.951 . S
H176 C201 0.951 . S
H177 C203 0.950 . S
H178 C204 0.950 . S
H179 C206 0.950 . S
H180 C209 0.950 . S
H181 C210 0.950 . S
H182 C212 0.950 . S
H183 C213 0.950 . S
C184 H166 0.951 . S
C184 C185 1.366 . S
C184 C186 1.388 . S
C185 C184 1.366 . S
C185 C189 1.385 . S
C186 H167 0.951 . S
C186 C184 1.388 . S
C186 C187 1.366 . S
C187 C186 1.366 . S
C187 C188 1.414 . S
C187 C190 1.499 . S
C188 H168 0.950 . S
C188 C187 1.414 . S
C188 C189 1.374 . S
C189 H169 0.950 . S
C189 C185 1.385 . S
C189 C188 1.374 . S
C190 C187 1.499 . S
C190 C191 1.373 . S
C190 C192 1.389 . S
C191 H170 0.950 . S
C191 C190 1.373 . S
C191 C207 1.377 1_455 S
C192 C190 1.389 . S
C192 C193 1.524 . S
C192 C206 1.377 1_455 S
C193 C192 1.524 . S
C193 C194 1.397 . S
C193 C198 1.363 . S
C194 H171 0.950 . S
C194 C193 1.397 . S
C194 C195 1.334 . S
C195 H172 0.950 . S
C195 C194 1.334 . S
C195 C196 1.287 . S
C196 C195 1.287 . S
C196 C197 1.524 . S
C196 H215 0.913 . S
C197 H173 0.950 . S
C197 C196 1.524 . S
C197 C198 1.415 . S
C198 H174 0.950 . S
C198 C193 1.363 . S
C198 C197 1.415 . S
C199 H175 0.951 . S
C199 C200 1.366 . S
C199 C201 1.388 . S
C200 C199 1.366 . S
C200 C204 1.385 . S
C201 H176 0.951 . S
C201 C199 1.388 . S
C201 C202 1.366 . S
C202 C201 1.366 . S
C202 C203 1.414 . S
C202 C205 1.499 . S
C203 H177 0.950 . S
C203 C202 1.414 . S
C203 C204 1.374 . S
C204 H178 0.950 . S
C204 C200 1.385 . S
C204 C203 1.374 . S
C205 C202 1.499 . S
C205 C206 1.373 . S
C205 C207 1.389 . S
C206 H179 0.950 . S
C206 C192 1.377 1_655 S
C206 C205 1.373 . S
C207 C191 1.377 1_655 S
C207 C205 1.389 . S
C207 C208 1.524 . S
C208 C207 1.524 . S
C208 C209 1.397 . S
C208 C213 1.363 . S
C209 H180 0.950 . S
C209 C208 1.397 . S
C209 C210 1.334 . S
C210 H181 0.950 . S
C210 C209 1.334 . S
C210 C211 1.287 . S
C211 C210 1.287 . S
C211 C212 1.524 . S
C211 H214 0.999 . S
C212 H182 0.950 . S
C212 C211 1.524 . S
C212 C213 1.415 . S
C213 H183 0.950 . S
C213 C208 1.363 . S
C213 C212 1.415 . S
H214 C211 0.999 . S
H215 C196 0.913 . S
H216 C234 0.951 . S
H217 C236 0.951 . S
H218 C238 0.950 . S
H219 C239 0.950 . S
H220 C241 0.950 . S
H221 C244 0.950 . S
H222 C245 0.950 . S
H223 C247 0.950 . S
H224 C248 0.950 . S
H225 C249 0.951 . S
H226 C251 0.951 . S
H227 C253 0.950 . S
H228 C254 0.950 . S
H229 C256 0.950 . S
H230 C259 0.950 . S
H231 C260 0.950 . S
H232 C262 0.950 . S
H233 C263 0.950 . S
C234 H216 0.951 . S
C234 C235 1.366 . S
C234 C236 1.388 . S
C235 C234 1.366 . S
C235 C239 1.385 . S
C236 H217 0.951 . S
C236 C234 1.388 . S
C236 C237 1.366 . S
C237 C236 1.366 . S
C237 C238 1.414 . S
C237 C240 1.499 . S
C238 H218 0.950 . S
C238 C237 1.414 . S
C238 C239 1.374 . S
C239 H219 0.950 . S
C239 C235 1.385 . S
C239 C238 1.374 . S
C240 C237 1.499 . S
C240 C241 1.373 . S
C240 C242 1.389 . S
C241 H220 0.950 . S
C241 C240 1.373 . S
C241 C257 1.377 . S
C242 C240 1.389 . S
C242 C243 1.524 . S
C242 C256 1.377 . S
C243 C242 1.524 . S
C243 C244 1.397 . S
C243 C248 1.363 . S
C244 H221 0.950 . S
C244 C243 1.397 . S
C244 C245 1.334 . S
C245 H222 0.950 . S
C245 C244 1.334 . S
C245 C246 1.287 . S
C246 C245 1.287 . S
C246 C247 1.524 . S
C246 H265 0.913 . S
C247 H223 0.950 . S
C247 C246 1.524 . S
C247 C248 1.415 . S
C248 H224 0.950 . S
C248 C243 1.363 . S
C248 C247 1.415 . S
C249 H225 0.951 . S
C249 C250 1.366 . S
C249 C251 1.388 . S
C250 C249 1.366 . S
C250 C254 1.385 . S
C251 H226 0.951 . S
C251 C249 1.388 . S
C251 C252 1.366 . S
C252 C251 1.366 . S
C252 C253 1.414 . S
C252 C255 1.499 . S
C253 H227 0.950 . S
C253 C252 1.414 . S
C253 C254 1.374 . S
C254 H228 0.950 . S
C254 C250 1.385 . S
C254 C253 1.374 . S
C255 C252 1.499 . S
C255 C256 1.373 . S
C255 C257 1.389 . S
C256 H229 0.950 . S
C256 C242 1.377 . S
C256 C255 1.373 . S
C257 C241 1.377 . S
C257 C255 1.389 . S
C257 C258 1.524 . S
C258 C257 1.524 . S
C258 C259 1.397 . S
C258 C263 1.363 . S
C259 H230 0.950 . S
C259 C258 1.397 . S
C259 C260 1.334 . S
C260 H231 0.950 . S
C260 C259 1.334 . S
C260 C261 1.287 . S
C261 C260 1.287 . S
C261 C262 1.524 . S
C261 H264 0.999 . S
C262 H232 0.950 . S
C262 C261 1.524 . S
C262 C263 1.415 . S
C263 H233 0.950 . S
C263 C258 1.363 . S
C263 C262 1.415 . S
H264 C261 0.999 . S
H265 C246 0.913 . S
H266 C284 0.951 . S
H267 C286 0.951 . S
H268 C288 0.950 . S
H269 C289 0.950 . S
H270 C291 0.950 . S
H271 C294 0.950 . S
H272 C295 0.950 . S
H273 C297 0.950 . S
H274 C298 0.950 . S
H275 C299 0.951 . S
H276 C301 0.951 . S
H277 C303 0.950 . S
H278 C304 0.950 . S
H279 C306 0.950 . S
H280 C309 0.950 . S
H281 C310 0.950 . S
H282 C312 0.950 . S
H283 C313 0.950 . S
C284 H266 0.951 . S
C284 C285 1.366 . S
C284 C286 1.388 . S
C285 C284 1.366 . S
C285 C289 1.385 . S
C286 H267 0.951 . S
C286 C284 1.388 . S
C286 C287 1.366 . S
C287 C286 1.366 . S
C287 C288 1.414 . S
C287 C290 1.499 . S
C288 H268 0.950 . S
C288 C287 1.414 . S
C288 C289 1.374 . S
C289 H269 0.950 . S
C289 C285 1.385 . S
C289 C288 1.374 . S
C290 C287 1.499 . S
C290 C291 1.373 . S
C290 C292 1.389 . S
C291 H270 0.950 . S
C291 C290 1.373 . S
C291 C307 1.377 . S
C292 C290 1.389 . S
C292 C293 1.524 . S
C292 C306 1.377 . S
C293 C292 1.524 . S
C293 C294 1.397 . S
C293 C298 1.363 . S
C294 H271 0.950 . S
C294 C293 1.397 . S
C294 C295 1.334 . S
C295 H272 0.950 . S
C295 C294 1.334 . S
C295 C296 1.287 . S
C296 C295 1.287 . S
C296 C297 1.524 . S
C296 H315 0.913 . S
C297 H273 0.950 . S
C297 C296 1.524 . S
C297 C298 1.415 . S
C298 H274 0.950 . S
C298 C293 1.363 . S
C298 C297 1.415 . S
C299 H275 0.951 . S
C299 C300 1.366 . S
C299 C301 1.388 . S
C300 C299 1.366 . S
C300 C304 1.385 . S
C301 H276 0.951 . S
C301 C299 1.388 . S
C301 C302 1.366 . S
C302 C301 1.366 . S
C302 C303 1.414 . S
C302 C305 1.499 . S
C303 H277 0.950 . S
C303 C302 1.414 . S
C303 C304 1.374 . S
C304 H278 0.950 . S
C304 C300 1.385 . S
C304 C303 1.374 . S
C305 C302 1.499 . S
C305 C306 1.373 . S
C305 C307 1.389 . S
C306 H279 0.950 . S
C306 C292 1.377 . S
C306 C305 1.373 . S
C307 C291 1.377 . S
C307 C305 1.389 . S
C307 C308 1.524 . S
C308 C307 1.524 . S
C308 C309 1.397 . S
C308 C313 1.363 . S
C309 H280 0.950 . S
C309 C308 1.397 . S
C309 C310 1.334 . S
C310 H281 0.950 . S
C310 C309 1.334 . S
C310 C311 1.287 . S
C311 C310 1.287 . S
C311 C312 1.524 . S
C311 H314 0.999 . S
C312 H282 0.950 . S
C312 C311 1.524 . S
C312 C313 1.415 . S
C313 H283 0.950 . S
C313 C308 1.363 . S
C313 C312 1.415 . S
H314 C311 0.999 . S
H315 C296 0.913 . S
H316 C334 0.951 . S
H317 C336 0.951 . S
H318 C338 0.950 . S
H319 C339 0.950 . S
H320 C341 0.950 . S
H321 C344 0.950 . S
H322 C345 0.950 . S
H323 C347 0.950 . S
H324 C348 0.950 . S
H325 C349 0.951 . S
H326 C351 0.951 . S
H327 C353 0.950 . S
H328 C354 0.950 . S
H329 C356 0.950 . S
H330 C359 0.950 . S
H331 C360 0.950 . S
H332 C362 0.950 . S
H333 C363 0.950 . S
C334 H316 0.951 . S
C334 C335 1.366 . S
C334 C336 1.388 . S
C335 C334 1.366 . S
C335 C339 1.385 . S
C336 H317 0.951 . S
C336 C334 1.388 . S
C336 C337 1.366 . S
C337 C336 1.366 . S
C337 C338 1.414 . S
C337 C340 1.499 . S
C338 H318 0.950 . S
C338 C337 1.414 . S
C338 C339 1.374 . S
C339 H319 0.950 . S
C339 C335 1.385 . S
C339 C338 1.374 . S
C340 C337 1.499 . S
C340 C341 1.373 . S
C340 C342 1.389 1_554 S
C341 H320 0.950 . S
C341 C340 1.373 . S
C341 C357 1.377 . S
C342 C340 1.389 1_556 S
C342 C343 1.524 . S
C342 C356 1.377 . S
C343 C342 1.524 . S
C343 C344 1.397 . S
C343 C348 1.363 . S
C344 H321 0.950 . S
C344 C343 1.397 . S
C344 C345 1.334 . S
C345 H322 0.950 . S
C345 C344 1.334 . S
C345 C346 1.287 . S
C346 C345 1.287 . S
C346 C347 1.524 . S
C346 H365 0.913 . S
C347 H323 0.950 . S
C347 C346 1.524 . S
C347 C348 1.415 . S
C348 H324 0.950 . S
C348 C343 1.363 . S
C348 C347 1.415 . S
C349 H325 0.951 . S
C349 C350 1.366 . S
C349 C351 1.388 . S
C350 C349 1.366 . S
C350 C354 1.385 . S
C351 H326 0.951 . S
C351 C349 1.388 . S
C351 C352 1.366 . S
C352 C351 1.366 . S
C352 C353 1.414 . S
C352 C355 1.499 . S
C353 H327 0.950 . S
C353 C352 1.414 . S
C353 C354 1.374 . S
C354 H328 0.950 . S
C354 C350 1.385 . S
C354 C353 1.374 . S
C355 C352 1.499 . S
C355 C356 1.373 . S
C355 C357 1.389 1_556 S
C356 H329 0.950 . S
C356 C342 1.377 . S
C356 C355 1.373 . S
C357 C341 1.377 . S
C357 C355 1.389 1_554 S
C357 C358 1.524 . S
C358 C357 1.524 . S
C358 C359 1.397 . S
C358 C363 1.363 . S
C359 H330 0.950 . S
C359 C358 1.397 . S
C359 C360 1.334 . S
C360 H331 0.950 . S
C360 C359 1.334 . S
C360 C361 1.287 . S
C361 C360 1.287 . S
C361 C362 1.524 . S
C361 H364 0.999 . S
C362 H332 0.950 . S
C362 C361 1.524 . S
C362 C363 1.415 . S
C363 H333 0.950 . S
C363 C358 1.363 . S
C363 C362 1.415 . S
H364 C361 0.999 . S
H365 C346 0.913 . S
H366 C384 0.951 . S
H367 C386 0.951 . S
H368 C388 0.950 . S
H369 C389 0.950 . S
H370 C391 0.950 . S
H371 C394 0.950 . S
H372 C395 0.950 . S
H373 C397 0.950 . S
H374 C398 0.950 . S
H375 C399 0.951 . S
H376 C401 0.951 . S
H377 C403 0.950 . S
H378 C404 0.950 . S
H379 C406 0.950 . S
H380 C409 0.950 . S
H381 C410 0.950 . S
H382 C412 0.950 . S
H383 C413 0.950 . S
C384 H366 0.951 . S
C384 C385 1.366 . S
C384 C386 1.388 . S
C385 C384 1.366 . S
C385 C389 1.385 . S
C386 H367 0.951 . S
C386 C384 1.388 . S
C386 C387 1.366 . S
C387 C386 1.366 . S
C387 C388 1.414 . S
C387 C390 1.499 . S
C388 H368 0.950 . S
C388 C387 1.414 . S
C388 C389 1.374 . S
C389 H369 0.950 . S
C389 C385 1.385 . S
C389 C388 1.374 . S
C390 C387 1.499 . S
C390 C391 1.373 . S
C390 C392 1.389 . S
C391 H370 0.950 . S
C391 C390 1.373 . S
C391 C407 1.377 . S
C392 C390 1.389 . S
C392 C393 1.524 . S
C392 C406 1.377 . S
C393 C392 1.524 . S
C393 C394 1.397 . S
C393 C398 1.363 . S
C394 H371 0.950 . S
C394 C393 1.397 . S
C394 C395 1.334 . S
C395 H372 0.950 . S
C395 C394 1.334 . S
C395 C396 1.287 . S
C396 C395 1.287 . S
C396 C397 1.524 . S
C396 H415 0.913 . S
C397 H373 0.950 . S
C397 C396 1.524 . S
C397 C398 1.415 . S
C398 H374 0.950 . S
C398 C393 1.363 . S
C398 C397 1.415 . S
C399 H375 0.951 . S
C399 C400 1.366 . S
C399 C401 1.388 . S
C400 C399 1.366 . S
C400 C404 1.385 . S
C401 H376 0.951 . S
C401 C399 1.388 . S
C401 C402 1.366 . S
C402 C401 1.366 . S
C402 C403 1.414 . S
C402 C405 1.499 . S
C403 H377 0.950 . S
C403 C402 1.414 . S
C403 C404 1.374 . S
C404 H378 0.950 . S
C404 C400 1.385 . S
C404 C403 1.374 . S
C405 C402 1.499 . S
C405 C406 1.373 . S
C405 C407 1.389 . S
C406 H379 0.950 . S
C406 C392 1.377 . S
C406 C405 1.373 . S
C407 C391 1.377 . S
C407 C405 1.389 . S
C407 C408 1.524 . S
C408 C407 1.524 . S
C408 C409 1.397 . S
C408 C413 1.363 . S
C409 H380 0.950 . S
C409 C408 1.397 . S
C409 C410 1.334 . S
C410 H381 0.950 . S
C410 C409 1.334 . S
C410 C411 1.287 . S
C411 C410 1.287 . S
C411 C412 1.524 . S
C411 H414 0.999 . S
C412 H382 0.950 . S
C412 C411 1.524 . S
C412 C413 1.415 . S
C413 H383 0.950 . S
C413 C408 1.363 . S
C413 C412 1.415 . S
H414 C411 0.999 . S
H415 C396 0.913 . S
H416 C434 0.951 . S
H417 C436 0.951 . S
H418 C438 0.950 . S
H419 C439 0.950 . S
H420 C441 0.950 . S
H421 C444 0.950 . S
H422 C445 0.950 . S
H423 C447 0.950 . S
H424 C448 0.950 . S
H425 C449 0.951 . S
H426 C451 0.951 . S
H427 C453 0.950 . S
H428 C454 0.950 . S
H429 C456 0.950 . S
H430 C459 0.950 . S
H431 C460 0.950 1_554 S
H432 C462 0.950 . S
H433 C463 0.950 . S
C434 H416 0.951 . S
C434 C435 1.366 . S
C434 C436 1.388 . S
C435 C434 1.366 . S
C435 C439 1.385 . S
C436 H417 0.951 . S
C436 C434 1.388 . S
C436 C437 1.366 . S
C437 C436 1.366 . S
C437 C438 1.414 . S
C437 C440 1.499 . S
C438 H418 0.950 . S
C438 C437 1.414 . S
C438 C439 1.374 . S
C439 H419 0.950 . S
C439 C435 1.385 . S
C439 C438 1.374 . S
C440 C437 1.499 . S
C440 C441 1.373 . S
C440 C442 1.389 . S
C441 H420 0.950 . S
C441 C440 1.373 . S
C441 C457 1.377 . S
C442 C440 1.389 . S
C442 C443 1.524 . S
C442 C456 1.377 . S
C443 C442 1.524 . S
C443 C444 1.397 . S
C443 C448 1.363 . S
C444 H421 0.950 . S
C444 C443 1.397 . S
C444 C445 1.334 . S
C445 H422 0.950 . S
C445 C444 1.334 . S
C445 C446 1.287 . S
C446 C445 1.287 . S
C446 C447 1.524 . S
C446 H465 0.913 . S
C447 H423 0.950 . S
C447 C446 1.524 . S
C447 C448 1.415 . S
C448 H424 0.950 . S
C448 C443 1.363 . S
C448 C447 1.415 . S
C449 H425 0.951 . S
C449 C450 1.366 . S
C449 C451 1.388 . S
C450 C449 1.366 . S
C450 C454 1.385 . S
C451 H426 0.951 . S
C451 C449 1.388 . S
C451 C452 1.366 . S
C452 C451 1.366 . S
C452 C453 1.414 . S
C452 C455 1.499 . S
C453 H427 0.950 . S
C453 C452 1.414 . S
C453 C454 1.374 . S
C454 H428 0.950 . S
C454 C450 1.385 . S
C454 C453 1.374 . S
C455 C452 1.499 . S
C455 C456 1.373 . S
C455 C457 1.389 . S
C456 H429 0.950 . S
C456 C442 1.377 . S
C456 C455 1.373 . S
C457 C441 1.377 . S
C457 C455 1.389 . S
C457 C458 1.524 . S
C458 C457 1.524 . S
C458 C459 1.397 . S
C458 C463 1.363 . S
C459 H430 0.950 . S
C459 C458 1.397 . S
C459 C460 1.334 . S
C460 H431 0.950 1_556 S
C460 C459 1.334 . S
C460 C461 1.287 . S
C461 C460 1.287 . S
C461 C462 1.524 . S
C461 H464 0.999 1_556 S
C462 H432 0.950 . S
C462 C461 1.524 . S
C462 C463 1.415 . S
C463 H433 0.950 . S
C463 C458 1.363 . S
C463 C462 1.415 . S
H464 C461 0.999 1_554 S
H465 C446 0.913 . S
H466 C484 0.951 . S
H467 C486 0.951 . S
H468 C488 0.950 . S
H469 C489 0.950 . S
H470 C491 0.950 . S
H471 C494 0.950 . S
H472 C495 0.950 . S
H473 C497 0.950 . S
H474 C498 0.950 . S
H475 C499 0.951 . S
H476 C501 0.951 . S
H477 C503 0.950 . S
H478 C504 0.950 . S
H479 C506 0.950 . S
H480 C509 0.950 . S
H481 C510 0.950 . S
H482 C512 0.950 . S
H483 C513 0.950 . S
C484 H466 0.951 . S
C484 C485 1.366 . S
C484 C486 1.388 . S
C485 C484 1.366 . S
C485 C489 1.385 . S
C486 H467 0.951 . S
C486 C484 1.388 . S
C486 C487 1.373 . S
C487 C486 1.373 . S
C487 C488 1.412 1_556 S
C487 C490 1.493 1_556 S
C488 H468 0.950 . S
C488 C487 1.412 1_554 S
C488 C489 1.374 1_554 S
C489 H469 0.950 . S
C489 C485 1.385 . S
C489 C488 1.374 1_556 S
C490 C487 1.493 1_554 S
C490 C491 1.373 . S
C490 C492 1.389 . S
C491 H470 0.950 . S
C491 C490 1.373 . S
C491 C507 1.377 . S
C492 C490 1.389 . S
C492 C493 1.524 1_554 S
C492 C506 1.377 . S
C493 C492 1.524 1_556 S
C493 C494 1.397 . S
C493 C498 1.363 . S
C494 H471 0.950 . S
C494 C493 1.397 . S
C494 C495 1.334 . S
C495 H472 0.950 . S
C495 C494 1.334 . S
C495 C496 1.287 . S
C496 C495 1.287 . S
C496 C497 1.524 . S
C496 H515 0.913 . S
C497 H473 0.950 . S
C497 C496 1.524 . S
C497 C498 1.415 . S
C498 H474 0.950 . S
C498 C493 1.363 . S
C498 C497 1.415 . S
C499 H475 0.951 . S
C499 C500 1.366 . S
C499 C501 1.388 . S
C500 C499 1.366 . S
C500 C504 1.385 . S
C501 H476 0.951 . S
C501 C499 1.388 . S
C501 C502 1.366 . S
C502 C501 1.366 . S
C502 C503 1.414 . S
C502 C505 1.499 . S
C503 H477 0.950 . S
C503 C502 1.414 . S
C503 C504 1.374 . S
C504 H478 0.950 . S
C504 C500 1.385 . S
C504 C503 1.374 . S
C505 C502 1.499 . S
C505 C506 1.373 . S
C505 C507 1.389 . S
C506 H479 0.950 . S
C506 C492 1.377 . S
C506 C505 1.373 . S
C507 C491 1.377 . S
C507 C505 1.389 . S
C507 C508 1.524 . S
C508 C507 1.524 . S
C508 C509 1.397 . S
C508 C513 1.363 . S
C509 H480 0.950 . S
C509 C508 1.397 . S
C509 C510 1.334 . S
C510 H481 0.950 . S
C510 C509 1.334 . S
C510 C511 1.287 . S
C511 C510 1.287 . S
C511 C512 1.524 . S
C511 H514 0.999 . S
C512 H482 0.950 . S
C512 C511 1.524 . S
C512 C513 1.415 . S
C513 H483 0.950 . S
C513 C508 1.363 . S
C513 C512 1.415 . S
H514 C511 0.999 . S
H515 C496 0.913 . S
C85 C8 1.502 . S
C100 C41 1.500 . S
C135 C52 1.599 . S
C150 C19 1.599 . S
C185 C30 1.488 . S
C200 C63 1.488 . S
C235 C5 1.289 . S
C250 C27 1.286 . S
C285 C18 1.516 . S
C300 C38 1.299 . S
C335 C49 1.397 . S
C350 C29 1.497 . S
C385 C62 1.463 . S
C400 C40 1.459 . S
C435 C51 1.506 . S
C450 C7 1.487 . S
C485 C60 1.322 . S
C500 C16 1.390 . S
