# Generated by pormake.
# Topology gis, (4)-cn, num edge types: 1
# Building blocks:
#     Node 0, Type 0, BuildingBlock: KUFVIS_clean_sbu_0, # of connection points: 4
#     Node 1, Type 0, BuildingBlock: KUFVIS_clean_sbu_0, # of connection points: 4
#     Node 2, Type 0, BuildingBlock: KUFVIS_clean_sbu_0, # of connection points: 4
#     Node 3, Type 0, BuildingBlock: KUFVIS_clean_sbu_0, # of connection points: 4
#     Node 4, Type 0, BuildingBlock: KUFVIS_clean_sbu_0, # of connection points: 4
#     Node 5, Type 0, BuildingBlock: KUFVIS_clean_sbu_0, # of connection points: 4
#     Node 6, Type 0, BuildingBlock: KUFVIS_clean_sbu_0, # of connection points: 4
#     Node 7, Type 0, BuildingBlock: KUFVIS_clean_sbu_0, # of connection points: 4
#     Node 8, Type 0, BuildingBlock: KUFVIS_clean_sbu_0, # of connection points: 4
#     Node 9, Type 0, BuildingBlock: KUFVIS_clean_sbu_0, # of connection points: 4
#     Node 10, Type 0, BuildingBlock: KUFVIS_clean_sbu_0, # of connection points: 4
#     Node 11, Type 0, BuildingBlock: KUFVIS_clean_sbu_0, # of connection points: 4
#     Node 12, Type 0, BuildingBlock: KUFVIS_clean_sbu_0, # of connection points: 4
#     Node 13, Type 0, BuildingBlock: KUFVIS_clean_sbu_0, # of connection points: 4
#     Node 14, Type 0, BuildingBlock: KUFVIS_clean_sbu_0, # of connection points: 4
#     Node 15, Type 0, BuildingBlock: KUFVIS_clean_sbu_0, # of connection points: 4
#     Edge 16, Type (0, 0), BuildingBlock: XIVTED_clean_linker_0, # of connection points: 2
#     Edge 17, Type (0, 0), BuildingBlock: XIVTED_clean_linker_0, # of connection points: 2
#     Edge 18, Type (0, 0), BuildingBlock: XIVTED_clean_linker_0, # of connection points: 2
#     Edge 19, Type (0, 0), BuildingBlock: XIVTED_clean_linker_0, # of connection points: 2
#     Edge 20, Type (0, 0), BuildingBlock: XIVTED_clean_linker_0, # of connection points: 2
#     Edge 21, Type (0, 0), BuildingBlock: XIVTED_clean_linker_0, # of connection points: 2
#     Edge 22, Type (0, 0), BuildingBlock: XIVTED_clean_linker_0, # of connection points: 2
#     Edge 23, Type (0, 0), BuildingBlock: XIVTED_clean_linker_0, # of connection points: 2
#     Edge 24, Type (0, 0), BuildingBlock: XIVTED_clean_linker_0, # of connection points: 2
#     Edge 25, Type (0, 0), BuildingBlock: XIVTED_clean_linker_0, # of connection points: 2
#     Edge 26, Type (0, 0), BuildingBlock: XIVTED_clean_linker_0, # of connection points: 2
#     Edge 27, Type (0, 0), BuildingBlock: XIVTED_clean_linker_0, # of connection points: 2
#     Edge 28, Type (0, 0), BuildingBlock: XIVTED_clean_linker_0, # of connection points: 2
#     Edge 29, Type (0, 0), BuildingBlock: XIVTED_clean_linker_0, # of connection points: 2
#     Edge 30, Type (0, 0), BuildingBlock: XIVTED_clean_linker_0, # of connection points: 2
#     Edge 31, Type (0, 0), BuildingBlock: XIVTED_clean_linker_0, # of connection points: 2
#     Edge 32, Type (0, 0), BuildingBlock: XIVTED_clean_linker_0, # of connection points: 2
#     Edge 33, Type (0, 0), BuildingBlock: XIVTED_clean_linker_0, # of connection points: 2
#     Edge 34, Type (0, 0), BuildingBlock: XIVTED_clean_linker_0, # of connection points: 2
#     Edge 35, Type (0, 0), BuildingBlock: XIVTED_clean_linker_0, # of connection points: 2
#     Edge 36, Type (0, 0), BuildingBlock: XIVTED_clean_linker_0, # of connection points: 2
#     Edge 37, Type (0, 0), BuildingBlock: XIVTED_clean_linker_0, # of connection points: 2
#     Edge 38, Type (0, 0), BuildingBlock: XIVTED_clean_linker_0, # of connection points: 2
#     Edge 39, Type (0, 0), BuildingBlock: XIVTED_clean_linker_0, # of connection points: 2
#     Edge 40, Type (0, 0), BuildingBlock: XIVTED_clean_linker_0, # of connection points: 2
#     Edge 41, Type (0, 0), BuildingBlock: XIVTED_clean_linker_0, # of connection points: 2
#     Edge 42, Type (0, 0), BuildingBlock: XIVTED_clean_linker_0, # of connection points: 2
#     Edge 43, Type (0, 0), BuildingBlock: XIVTED_clean_linker_0, # of connection points: 2
#     Edge 44, Type (0, 0), BuildingBlock: XIVTED_clean_linker_0, # of connection points: 2
#     Edge 45, Type (0, 0), BuildingBlock: XIVTED_clean_linker_0, # of connection points: 2
#     Edge 46, Type (0, 0), BuildingBlock: XIVTED_clean_linker_0, # of connection points: 2
#     Edge 47, Type (0, 0), BuildingBlock: XIVTED_clean_linker_0, # of connection points: 2
# Relax obj value: 0.089
# Max RMSD: 0.145
# Mean RMSD: 0.139
data_MOF--net-gis--node1-KUFVIS_clean_sbu_0--edge1-XIVTED_clean_linker_0
_symmetry_space_group_name_H-M    P1
_symmetry_Int_Tables_number       1
_symmetry_cell_setting            triclinic
loop_
_symmetry_equiv_pos_as_xyz
'x, y, z'
_cell_length_a     50.178696
_cell_length_b     54.036107
_cell_length_c     38.423193
_cell_angle_alpha  90.53429
_cell_angle_beta   90.392292
_cell_angle_gamma 90.038423
loop_
_atom_site_label
_atom_site_type_symbol
_atom_site_fract_x
_atom_site_fract_y
_atom_site_fract_z
_atom_type_partial_charge
Mn0 Mn 0.13231 0.60875 0.1086 0.0
Mn1 Mn 0.09941 0.63456 0.17586 0.0
C2 C 0.08757 0.61678 0.10274 0.0
C3 C 0.14824 0.57207 0.08395 0.0
C4 C 0.13668 0.66313 0.12855 0.0
O5 O 0.15764 0.60539 0.14949 0.0
O6 O 0.13174 0.61752 0.19413 0.0
C7 C 0.08218 0.58924 0.212 0.0
N8 N 0.07599 0.61098 0.19626 0.0
C9 C 0.02921 0.60503 0.20671 0.0
C10 C 0.03509 0.58265 0.22327 0.0
C11 C 0.06168 0.5747 0.22587 0.0
C12 C 0.05048 0.61879 0.19358 0.0
H13 H 0.10259 0.58304 0.21388 0.0
C14 C 0.15343 0.60855 0.18191 0.0
O15 O 0.15895 0.59326 0.07631 0.0
O16 O 0.1286 0.57241 0.10559 0.0
N17 N 0.06771 0.6517 0.16219 0.0
C18 C 0.06532 0.67309 0.14392 0.0
C19 C 0.03992 0.68324 0.1382 0.0
C20 C 0.01729 0.6714 0.1515 0.0
C21 C 0.02028 0.64958 0.1706 0.0
C22 C 0.04611 0.64046 0.17576 0.0
H23 H 0.08263 0.68228 0.13364 0.0
O24 O 0.10203 0.61283 0.07539 0.0
O25 O 0.09964 0.61509 0.1327 0.0
O26 O 0.14103 0.64601 0.10605 0.0
O27 O 0.12262 0.66016 0.15585 0.0
C28 C -0.00141 0.63625 0.1841 0.0
C29 C 0.00305 0.61396 0.20208 0.0
H30 H 0.01932 0.57131 0.23381 0.0
H31 H 0.06636 0.55739 0.23844 0.0
H32 H 0.03779 0.70008 0.12343 0.0
H33 H 0.99771 0.67913 0.14669 0.0
H34 H 0.97838 0.64277 0.18034 0.0
H35 H 0.98619 0.6037 0.21189 0.0
Mn36 Mn 0.65757 0.87922 0.39504 0.0
Mn37 Mn 0.64497 0.85158 0.4715 0.0
C38 C 0.6549 0.83673 0.39653 0.0
C39 C 0.68873 0.8969 0.35862 0.0
C40 C 0.6026 0.87697 0.42759 0.0
O41 O 0.66311 0.90657 0.43078 0.0
O42 O 0.65965 0.88536 0.48063 0.0
C43 C 0.70037 0.84641 0.49723 0.0
N44 N 0.67655 0.83592 0.48841 0.0
C45 C 0.69252 0.79535 0.50316 0.0
C46 C 0.71717 0.80574 0.51267 0.0
C47 C 0.72112 0.83138 0.50961 0.0
C48 C 0.67256 0.81128 0.49114 0.0
H49 H 0.70349 0.86609 0.49475 0.0
C50 C 0.66443 0.90524 0.46381 0.0
O51 O 0.66369 0.90281 0.35623 0.0
O52 O 0.6955 0.88097 0.3821 0.0
N53 N 0.63066 0.81885 0.4672 0.0
C54 C 0.606 0.81168 0.45594 0.0
C55 C 0.59903 0.78651 0.45659 0.0
C56 C 0.61734 0.76904 0.46918 0.0
C57 C 0.64239 0.77692 0.4813 0.0
C58 C 0.64814 0.80227 0.48026 0.0
H59 H 0.59183 0.82502 0.44627 0.0
O60 O 0.65316 0.84837 0.36725 0.0
O61 O 0.65942 0.85033 0.42419 0.0
O62 O 0.6171 0.88174 0.4013 0.0
O63 O 0.61136 0.86678 0.45533 0.0
C64 C 0.66206 0.76058 0.49375 0.0
C65 C 0.68712 0.76979 0.50462 0.0
H66 H 0.73326 0.79419 0.52208 0.0
H67 H 0.74013 0.83951 0.51672 0.0
H68 H 0.57963 0.78058 0.44728 0.0
H69 H 0.612 0.74961 0.46928 0.0
H70 H 0.65823 0.74087 0.4947 0.0
H71 H 0.70218 0.75701 0.51379 0.0
Mn72 Mn 0.35867 0.40146 0.61083 0.0
Mn73 Mn 0.39343 0.38174 0.68079 0.0
C74 C 0.40459 0.39782 0.60733 0.0
C75 C 0.33844 0.43433 0.58229 0.0
C76 C 0.36265 0.3472 0.63204 0.0
O77 O 0.33178 0.40431 0.65007 0.0
O78 O 0.35822 0.39445 0.69518 0.0
C79 C 0.40052 0.43067 0.71489 0.0
N80 N 0.41121 0.40939 0.70181 0.0
C81 C 0.45565 0.42329 0.71522 0.0
C82 C 0.44513 0.44524 0.72918 0.0
C83 C 0.41743 0.44894 0.729 0.0
C84 C 0.43779 0.40563 0.70185 0.0
H85 H 0.37926 0.43375 0.71439 0.0
C86 C 0.33607 0.40194 0.68255 0.0
O87 O 0.33094 0.41165 0.5763 0.0
O88 O 0.35756 0.43777 0.60465 0.0
N89 N 0.42824 0.369 0.67183 0.0
C90 C 0.43521 0.34694 0.65703 0.0
C91 C 0.46222 0.34027 0.65548 0.0
C92 C 0.48171 0.35634 0.66917 0.0
C93 C 0.47398 0.37869 0.68492 0.0
C94 C 0.44676 0.38401 0.68659 0.0
H95 H 0.42034 0.33461 0.64622 0.0
O96 O 0.39015 0.39904 0.57931 0.0
O97 O 0.39184 0.39964 0.63665 0.0
O98 O 0.35475 0.36355 0.61044 0.0
O99 O 0.3762 0.35233 0.65955 0.0
C100 C 0.49225 0.3964 0.69766 0.0
C101 C 0.48317 0.41858 0.71304 0.0
H102 H 0.45815 0.45948 0.73975 0.0
H103 H 0.40915 0.4659 0.73948 0.0
H104 H 0.46802 0.32299 0.64328 0.0
H105 H 0.50254 0.35158 0.66679 0.0
H106 H 0.51335 0.39358 0.69451 0.0
H107 H 0.49753 0.43207 0.72248 0.0
Mn108 Mn 0.84915 0.11073 0.9076 0.0
Mn109 Mn 0.8718 0.12694 0.829 0.0
C110 C 0.89458 0.11532 0.89991 0.0
C111 C 0.83524 0.07851 0.94284 0.0
C112 C 0.84456 0.16256 0.87928 0.0
O113 O 0.81722 0.1057 0.87507 0.0
O114 O 0.83727 0.10963 0.82314 0.0
C115 C 0.88175 0.07744 0.79825 0.0
N116 N 0.89084 0.10029 0.8078 0.0
C117 C 0.93519 0.09034 0.78906 0.0
C118 C 0.92629 0.06678 0.7787 0.0
C119 C 0.89943 0.06032 0.78328 0.0
C120 C 0.91654 0.10681 0.80319 0.0
H121 H 0.86121 0.07228 0.80224 0.0
C122 C 0.81718 0.10411 0.8419 0.0
O123 O 0.82761 0.10112 0.94902 0.0
O124 O 0.85055 0.07479 0.91634 0.0
N125 N 0.90524 0.14377 0.83103 0.0
C126 C 0.91094 0.16673 0.84409 0.0
C127 C 0.93712 0.17577 0.84236 0.0
C128 C 0.95713 0.16108 0.82739 0.0
C129 C 0.95063 0.13767 0.81371 0.0
C130 C 0.92411 0.12991 0.81529 0.0
H131 H 0.89571 0.178 0.85598 0.0
O132 O 0.88466 0.1152 0.93096 0.0
O133 O 0.87764 0.112 0.87451 0.0
O134 O 0.84385 0.14842 0.90574 0.0
O135 O 0.85289 0.15562 0.84935 0.0
C136 C 0.96969 0.12123 0.80022 0.0
C137 C 0.96204 0.09773 0.78745 0.0
H138 H 0.93998 0.05339 0.7677 0.0
H139 H 0.89244 0.04211 0.77562 0.0
H140 H 0.94194 0.19385 0.85302 0.0
H141 H 0.97746 0.16779 0.82705 0.0
H142 H 0.99044 0.12606 0.80139 0.0
H143 H 0.9771 0.0852 0.77758 0.0
Mn144 Mn 0.16449 0.38172 0.89661 0.0
Mn145 Mn 0.1496 0.35384 0.97239 0.0
C146 C 0.16229 0.33926 0.89818 0.0
C147 C 0.19588 0.3993 0.86046 0.0
C148 C 0.10779 0.37589 0.92465 0.0
O149 O 0.16866 0.40947 0.93182 0.0
O150 O 0.15976 0.38915 0.98109 0.0
C151 C 0.20412 0.35511 0.00225 0.0
N152 N 0.18209 0.342 0.99238 0.0
C153 C 0.20223 0.30373 0.01025 0.0
C154 C 0.22506 0.31684 0.02085 0.0
C155 C 0.22602 0.34263 0.01675 0.0
C156 C 0.18104 0.31717 0.99595 0.0
H157 H 0.20498 0.37492 -0.00098 0.0
C158 C 0.16617 0.40881 0.96469 0.0
O159 O 0.17082 0.40501 0.85759 0.0
O160 O 0.20261 0.38394 0.8847 0.0
N161 N 0.13938 0.31976 0.96925 0.0
C162 C 0.11585 0.30988 0.95785 0.0
C163 C 0.11173 0.28423 0.95994 0.0
C164 C 0.13158 0.26907 0.97437 0.0
C165 C 0.1553 0.27975 0.98688 0.0
C166 C 0.15825 0.30544 0.9842 0.0
H167 H 0.10048 0.32143 0.94684 0.0
O168 O 0.16119 0.3509 0.8689 0.0
O169 O 0.16612 0.35281 0.92614 0.0
O170 O 0.1238 0.3835 0.9013 0.0
O171 O 0.11537 0.3649 0.95237 0.0
C172 C 0.17628 0.26587 0.00147 0.0
C173 C 0.19975 0.27784 0.01305 0.0
H174 H 0.242 0.30728 0.03201 0.0
H175 H 0.24361 0.35286 0.02472 0.0
H176 H 0.09331 0.27615 0.9504 0.0
H177 H 0.12841 0.24927 0.97569 0.0
H178 H 0.17463 0.24596 0.00368 0.0
H179 H 0.21582 0.26696 0.024 0.0
Mn180 Mn 0.86042 0.89678 0.1224 0.0
Mn181 Mn 0.88742 0.87432 0.19591 0.0
C182 C 0.90568 0.88808 0.12444 0.0
C183 C 0.84612 0.93109 0.09128 0.0
C184 C 0.85412 0.84359 0.14499 0.0
O185 O 0.83167 0.90273 0.15872 0.0
O186 O 0.85479 0.89323 0.20714 0.0
C187 C 0.90297 0.92045 0.23288 0.0
N188 N 0.90953 0.89786 0.21957 0.0
C189 C 0.95184 0.89835 0.24929 0.0
C190 C 0.94566 0.92172 0.26323 0.0
C191 C 0.92125 0.93296 0.25462 0.0
C192 C 0.93337 0.88735 0.22653 0.0
H193 H 0.88379 0.92865 0.22734 0.0
C194 C 0.8342 0.90193 0.19173 0.0
O195 O 0.83645 0.90919 0.08487 0.0
O196 O 0.86405 0.93298 0.11562 0.0
N197 N 0.9193 0.85555 0.18956 0.0
C198 C 0.9226 0.83349 0.17269 0.0
C199 C 0.94626 0.82008 0.17766 0.0
C200 C 0.96582 0.82907 0.20087 0.0
C201 C 0.96194 0.85181 0.21797 0.0
C202 C 0.93845 0.86481 0.21087 0.0
H203 H 0.90712 0.82597 0.15605 0.0
O204 O 0.89338 0.89055 0.09486 0.0
O205 O 0.89141 0.89193 0.15205 0.0
O206 O 0.85169 0.85971 0.12116 0.0
O207 O 0.86559 0.84806 0.17411 0.0
C208 C 0.98012 0.86182 0.24242 0.0
C209 C 0.97525 0.88525 0.25773 0.0
H210 H 0.95941 0.93112 0.28074 0.0
H211 H 0.91628 0.95093 0.26541 0.0
H212 H 0.94908 0.80253 0.16442 0.0
H213 H 0.98367 0.8183 0.20547 0.0
H214 H -0.00172 0.852 0.2489 0.0
H215 H 0.98972 0.89306 0.27577 0.0
Mn216 Mn 0.3463 0.60734 0.39847 0.0
Mn217 Mn 0.37531 0.61973 0.32162 0.0
C218 C 0.39228 0.60696 0.39494 0.0
C219 C 0.32673 0.57765 0.43347 0.0
C220 C 0.35407 0.65968 0.37042 0.0
O221 O 0.31534 0.60523 0.36431 0.0
O222 O 0.33734 0.6109 0.31438 0.0
C223 C 0.37195 0.56893 0.29241 0.0
N224 N 0.38678 0.58919 0.30129 0.0
C225 C 0.42715 0.56911 0.28306 0.0
C226 C 0.4123 0.54814 0.27333 0.0
C227 C 0.38457 0.54806 0.27804 0.0
C228 C 0.41343 0.58948 0.29684 0.0
H229 H 0.35068 0.56863 0.29643 0.0
C230 C 0.3161 0.60629 0.33128 0.0
O231 O 0.32181 0.60105 0.43841 0.0
O232 O 0.34263 0.57176 0.40837 0.0
N233 N 0.41218 0.62838 0.3234 0.0
C234 C 0.42364 0.64988 0.33475 0.0
C235 C 0.45133 0.6528 0.33237 0.0
C236 C 0.46684 0.63364 0.31827 0.0
C237 C 0.45452 0.61209 0.3055 0.0
C238 C 0.42681 0.61041 0.308 0.0
H239 H 0.41184 0.66443 0.34627 0.0
O240 O 0.38061 0.60848 0.42483 0.0
O241 O 0.37665 0.60466 0.36782 0.0
O242 O 0.34618 0.64541 0.39475 0.0
O243 O 0.36453 0.65182 0.34207 0.0
C244 C 0.46874 0.59173 0.29201 0.0
C245 C 0.45509 0.57033 0.28056 0.0
H246 H 0.42201 0.53191 0.26259 0.0
H247 H 0.37298 0.53188 0.27087 0.0
H248 H 0.46079 0.66947 0.34225 0.0
H249 H 0.48823 0.63527 0.31858 0.0
H250 H 0.49023 0.59201 0.29126 0.0
H251 H 0.46632 0.55475 0.27049 0.0
Mn252 Mn 0.63874 0.10239 0.61422 0.0
Mn253 Mn 0.60593 0.13 0.68016 0.0
C254 C 0.5942 0.11104 0.60764 0.0
C255 C 0.65433 0.06542 0.59043 0.0
C256 C 0.64398 0.15697 0.63215 0.0
O257 O 0.6637 0.09915 0.65562 0.0
O258 O 0.63764 0.11257 0.69939 0.0
C259 C 0.58731 0.08579 0.7178 0.0
N260 N 0.58179 0.10735 0.70119 0.0
C261 C 0.53483 0.10279 0.7117 0.0
C262 C 0.54003 0.08061 0.72915 0.0
C263 C 0.56637 0.07205 0.73214 0.0
C264 C 0.55652 0.11574 0.6981 0.0
H265 H 0.60754 0.07913 0.72002 0.0
C266 C 0.65915 0.10279 0.68788 0.0
O267 O 0.66535 0.08642 0.58257 0.0
O268 O 0.63461 0.06605 0.61196 0.0
N269 N 0.57475 0.14753 0.66544 0.0
C270 C 0.57299 0.16852 0.64617 0.0
C271 C 0.54789 0.17911 0.63981 0.0
C272 C 0.52491 0.16815 0.65355 0.0
C273 C 0.52724 0.14674 0.67369 0.0
C274 C 0.5528 0.13712 0.67936 0.0
H275 H 0.59057 0.17706 0.63557 0.0
O276 O 0.60876 0.10644 0.58058 0.0
O277 O 0.60602 0.10961 0.6378 0.0
O278 O 0.64805 0.13934 0.61043 0.0
O279 O 0.62987 0.15481 0.65955 0.0
C280 C 0.50517 0.13427 0.68771 0.0
C281 C 0.50895 0.11229 0.70665 0.0
H282 H 0.52392 0.06989 0.74008 0.0
H283 H 0.57052 0.05488 0.7454 0.0
H284 H 0.54626 0.19564 0.62426 0.0
H285 H 0.50556 0.17623 0.64829 0.0
H286 H 0.48515 0.14121 0.68361 0.0
H287 H 0.49179 0.10267 0.71685 0.0
Mn288 Mn 0.86598 0.39706 0.88388 0.0
Mn289 Mn 0.89779 0.36998 0.81669 0.0
C290 C 0.9107 0.38873 0.88908 0.0
C291 C 0.8503 0.43372 0.90849 0.0
C292 C 0.86092 0.34248 0.86568 0.0
O293 O 0.84023 0.40023 0.84334 0.0
O294 O 0.86547 0.38715 0.79858 0.0
C295 C 0.91514 0.41456 0.77888 0.0
N296 N 0.92125 0.393 0.79516 0.0
C297 C 0.96799 0.39838 0.78382 0.0
C298 C 0.96218 0.42056 0.76669 0.0
C299 C 0.93565 0.4287 0.76427 0.0
C300 C 0.9467 0.385 0.79766 0.0
H301 H 0.89478 0.42093 0.77714 0.0
C302 C 0.84409 0.39667 0.81092 0.0
O303 O 0.83969 0.41255 0.91635 0.0
O304 O 0.86974 0.43344 0.88648 0.0
N305 N 0.92945 0.35271 0.83025 0.0
C306 C 0.93179 0.33155 0.84905 0.0
C307 C 0.95714 0.32126 0.85466 0.0
C308 C 0.97976 0.33271 0.84069 0.0
C309 C 0.97681 0.35428 0.82104 0.0
C310 C 0.95103 0.36355 0.81602 0.0
H311 H 0.91449 0.32266 0.85986 0.0
O312 O 0.89655 0.39312 0.91659 0.0
O313 O 0.89835 0.3902 0.85927 0.0
O314 O 0.85708 0.36004 0.88758 0.0
O315 O 0.87454 0.34483 0.83787 0.0
C316 C -0.0015 0.36723 0.80685 0.0
C317 C 0.99409 0.38929 0.78831 0.0
H318 H 0.97796 0.4316 0.75558 0.0
H319 H 0.93103 0.44587 0.75126 0.0
H320 H 0.95924 0.3046 0.86985 0.0
H321 H -0.0007 0.32488 0.84542 0.0
H322 H 0.01868 0.36059 0.81049 0.0
H323 H 0.01096 0.39926 0.77794 0.0
Mn324 Mn 0.34198 0.12296 0.60089 0.0
Mn325 Mn 0.35467 0.14654 0.52159 0.0
C326 C 0.34343 0.16512 0.59475 0.0
C327 C 0.31166 0.10624 0.63917 0.0
C328 C 0.39786 0.12774 0.57 0.0
O329 O 0.33795 0.09344 0.56896 0.0
O330 O 0.34489 0.11068 0.51692 0.0
C331 C 0.29947 0.14304 0.49437 0.0
N332 N 0.32145 0.15692 0.502 0.0
C333 C 0.29988 0.194 0.48214 0.0
C334 C 0.27707 0.18008 0.47383 0.0
C335 C 0.27686 0.1545 0.48004 0.0
C336 C 0.32179 0.18156 0.49639 0.0
H337 H 0.29916 0.1234 0.49928 0.0
C338 C 0.33949 0.09203 0.53604 0.0
O339 O 0.33694 0.10149 0.6422 0.0
O340 O 0.30415 0.12052 0.614 0.0
N341 N 0.36438 0.18078 0.52072 0.0
C342 C 0.38815 0.19146 0.52948 0.0
C343 C 0.39165 0.217 0.52489 0.0
C344 C 0.37091 0.23122 0.5107 0.0
C345 C 0.34696 0.21969 0.50076 0.0
C346 C 0.34466 0.19414 0.50583 0.0
H347 H 0.40417 0.18063 0.54036 0.0
O348 O 0.345 0.15514 0.62523 0.0
O349 O 0.33935 0.15005 0.5684 0.0
O350 O 0.38249 0.12162 0.59492 0.0
O351 O 0.38957 0.13691 0.54129 0.0
C352 C 0.3252 0.23257 0.4863 0.0
C353 C 0.30165 0.21974 0.47708 0.0
H354 H 0.25958 0.18885 0.46281 0.0
H355 H 0.25929 0.14365 0.47385 0.0
H356 H 0.41027 0.22573 0.53239 0.0
H357 H 0.3736 0.25096 0.50747 0.0
H358 H 0.32633 0.25236 0.48229 0.0
H359 H 0.28501 0.22986 0.46613 0.0
Mn360 Mn 0.63616 0.60105 0.3787 0.0
Mn361 Mn 0.60895 0.62257 0.30461 0.0
C362 C 0.59065 0.60877 0.37596 0.0
C363 C 0.65047 0.56717 0.41087 0.0
C364 C 0.64021 0.65468 0.35613 0.0
O365 O 0.66545 0.59523 0.34296 0.0
O366 O 0.64261 0.6051 0.29451 0.0
C367 C 0.5965 0.57537 0.2683 0.0
N368 N 0.58861 0.59788 0.2806 0.0
C369 C 0.54693 0.5951 0.24964 0.0
C370 C 0.55456 0.57187 0.23652 0.0
C371 C 0.57931 0.56181 0.24629 0.0
C372 C 0.56442 0.60723 0.2726 0.0
H373 H 0.61586 0.56799 0.27495 0.0
C374 C 0.6631 0.59632 0.30996 0.0
O375 O 0.65983 0.58922 0.41708 0.0
O376 O 0.63308 0.56487 0.38596 0.0
N377 N 0.57602 0.6399 0.30954 0.0
C378 C 0.57125 0.66195 0.3258 0.0
C379 C 0.54714 0.67433 0.31951 0.0
C380 C 0.52858 0.66429 0.29575 0.0
C381 C 0.53388 0.64148 0.27948 0.0
C382 C 0.55786 0.62965 0.28762 0.0
H383 H 0.58591 0.67022 0.34299 0.0
O384 O 0.60286 0.60686 0.40567 0.0
O385 O 0.60518 0.60504 0.34854 0.0
O386 O 0.644 0.63841 0.37951 0.0
O387 O 0.62883 0.64989 0.32702 0.0
C388 C 0.5165 0.63018 0.25511 0.0
C389 C 0.52294 0.60693 0.24036 0.0
H390 H 0.54162 0.56163 0.21888 0.0
H391 H 0.58536 0.54391 0.23626 0.0
H392 H 0.54315 0.69187 0.33225 0.0
H393 H 0.51026 0.67417 0.29035 0.0
H394 H 0.49791 0.63902 0.24795 0.0
H395 H 0.50918 0.59822 0.22218 0.0
Mn396 Mn 0.14952 0.89636 0.09568 0.0
Mn397 Mn 0.12302 0.88184 0.17308 0.0
C398 C 0.1037 0.89213 0.10011 0.0
C399 C 0.16508 0.92776 0.06018 0.0
C400 C 0.15065 0.84449 0.12556 0.0
O401 O 0.18035 0.90189 0.12991 0.0
O402 O 0.15836 0.89736 0.18025 0.0
C403 C 0.11553 0.93273 0.20036 0.0
N404 N 0.10525 0.91006 0.1921 0.0
C405 C 0.06127 0.92296 0.20867 0.0
C406 C 0.07143 0.9463 0.21791 0.0
C407 C 0.0987 0.9512 0.21371 0.0
C408 C 0.07909 0.90513 0.19607 0.0
H409 H 0.13636 0.93675 0.19648 0.0
C410 C 0.17911 0.90316 0.163 0.0
O411 O 0.17275 0.905 0.05537 0.0
O412 O 0.14879 0.93208 0.08546 0.0
N413 N 0.08855 0.86688 0.17053 0.0
C414 C 0.08172 0.8438 0.15899 0.0
C415 C 0.05501 0.83618 0.16061 0.0
C416 C 0.03568 0.85237 0.17405 0.0
C417 C 0.04333 0.87581 0.18646 0.0
C418 C 0.0703 0.88215 0.18501 0.0
H419 H 0.09647 0.83139 0.14831 0.0
O420 O 0.11503 0.8916 0.06992 0.0
O421 O 0.11946 0.89597 0.12666 0.0
O422 O 0.1542 0.85867 0.09951 0.0
O423 O 0.14053 0.85175 0.15444 0.0
C424 C 0.02509 0.89361 0.19861 0.0
C425 C 0.03399 0.91704 0.21007 0.0
H426 H 0.05842 0.96072 0.2277 0.0
H427 H 0.10667 0.96926 0.22038 0.0
H428 H 0.04925 0.81805 0.151 0.0
H429 H 0.01499 0.84679 0.17411 0.0
H430 H 0.00401 0.88991 0.19762 0.0
H431 H 0.0196 0.9306 0.21893 0.0
Mn432 Mn 0.83429 0.6204 0.10176 0.0
Mn433 Mn 0.84664 0.65015 0.02652 0.0
C434 C 0.83516 0.6629 0.10164 0.0
C435 C 0.80462 0.60118 0.13871 0.0
C436 C 0.89004 0.62796 0.07155 0.0
O437 O 0.82991 0.59333 0.06558 0.0
O438 O 0.83704 0.61488 0.01681 0.0
C439 C 0.79152 0.64846 -0.00134 0.0
N440 N 0.81347 0.66177 0.00825 0.0
C441 C 0.79219 0.70001 0.99255 0.0
C442 C 0.76942 0.68669 0.98226 0.0
C443 C 0.76907 0.6608 0.98542 0.0
C444 C 0.81394 0.68669 0.00556 0.0
H445 H 0.79113 0.62857 0.00116 0.0
C446 C 0.83152 0.59477 0.03265 0.0
O447 O 0.82992 0.59617 0.14005 0.0
O448 O 0.79662 0.61686 0.11551 0.0
N449 N 0.85618 0.68435 0.03069 0.0
C450 C 0.87974 0.69444 0.04162 0.0
C451 C 0.88328 0.7202 0.04038 0.0
C452 C 0.86281 0.73527 0.02731 0.0
C453 C 0.83906 0.7244 0.01523 0.0
C454 C 0.83672 0.69861 0.01696 0.0
H455 H 0.89558 0.68296 0.05161 0.0
O456 O 0.83745 0.65078 0.13044 0.0
O457 O 0.83105 0.64978 0.07337 0.0
O458 O 0.87476 0.61967 0.09522 0.0
O459 O 0.8816 0.63936 0.0446 0.0
C460 C 0.81751 0.73817 0.00193 0.0
C461 C 0.79406 0.72598 0.99068 0.0
H462 H 0.75205 0.69615 0.97208 0.0
H463 H 0.75153 0.6504 0.97768 0.0
H464 H 0.90173 0.72843 0.04958 0.0
H465 H 0.86553 0.75515 0.02668 0.0
H466 H 0.81869 0.75815 0.00045 0.0
H467 H 0.77755 0.73678 0.98072 0.0
Mn468 Mn 0.13772 0.10475 0.87386 0.0
Mn469 Mn 0.11092 0.12486 0.79855 0.0
C470 C 0.09219 0.11196 0.87021 0.0
C471 C 0.15287 0.07171 0.9069 0.0
C472 C 0.13968 0.15853 0.85043 0.0
O473 O 0.16768 0.09902 0.83935 0.0
O474 O 0.14609 0.10962 0.79043 0.0
C475 C 0.10326 0.07602 0.76434 0.0
N476 N 0.09335 0.09835 0.77462 0.0
C477 C 0.05259 0.09141 0.74286 0.0
C478 C 0.06232 0.06835 0.73176 0.0
C479 C 0.08766 0.06049 0.7429 0.0
C480 C 0.06865 0.10564 0.76524 0.0
H481 H 0.12298 0.07024 0.77221 0.0
C482 C 0.16634 0.10095 0.80644 0.0
O483 O 0.16143 0.09407 0.91275 0.0
O484 O 0.13546 0.06866 0.88214 0.0
N485 N 0.07662 0.14007 0.80067 0.0
C486 C 0.06981 0.16235 0.81489 0.0
C487 C 0.04508 0.17292 0.80642 0.0
C488 C 0.02805 0.16088 0.78252 0.0
C489 C 0.03549 0.13794 0.76824 0.0
C490 C 0.06 0.128 0.77845 0.0
H491 H 0.08333 0.17214 0.83212 0.0
O492 O 0.10417 0.1104 0.90012 0.0
O493 O 0.1069 0.10787 0.84298 0.0
O494 O 0.14472 0.14223 0.87342 0.0
O495 O 0.12802 0.15359 0.82151 0.0
C496 C 0.0196 0.12458 0.74415 0.0
C497 C 0.02785 0.10108 0.7321 0.0
H498 H 0.05057 0.05656 0.71462 0.0
H499 H 0.09532 0.04272 0.73447 0.0
H500 H 0.03944 0.1906 0.81759 0.0
H501 H 0.00925 0.16935 0.77543 0.0
H502 H 0.00067 0.13196 0.73536 0.0
H503 H 0.01513 0.09072 0.71434 0.0
Mn504 Mn 0.6475 0.3892 0.60164 0.0
Mn505 Mn 0.62696 0.36972 0.67973 0.0
C506 C 0.60251 0.38223 0.61046 0.0
C507 C 0.65925 0.4226 0.56706 0.0
C508 C 0.65464 0.33671 0.6264 0.0
O509 O 0.67975 0.39483 0.63328 0.0
O510 O 0.66106 0.38789 0.6854 0.0
C511 C 0.61633 0.4172 0.71601 0.0
N512 N 0.60782 0.39455 0.70478 0.0
C513 C 0.56804 0.39749 0.73909 0.0
C514 C 0.57626 0.42093 0.75096 0.0
C515 C 0.60036 0.43095 0.73902 0.0
C516 C 0.58423 0.38517 0.71504 0.0
H517 H 0.6353 0.42451 0.70782 0.0
C518 C 0.68045 0.39502 0.66647 0.0
O519 O 0.66779 0.40041 0.56003 0.0
O520 O 0.64426 0.42529 0.59413 0.0
N521 N 0.59409 0.35185 0.67861 0.0
C522 C 0.58854 0.32956 0.66336 0.0
C523 C 0.5647 0.31735 0.6715 0.0
C524 C 0.54731 0.32778 0.69609 0.0
C525 C 0.5535 0.35072 0.71149 0.0
C526 C 0.57702 0.36246 0.70133 0.0
H527 H 0.60237 0.321 0.64555 0.0
O528 O 0.61209 0.3835 0.57926 0.0
O529 O 0.61943 0.38617 0.6357 0.0
O530 O 0.65475 0.35179 0.60107 0.0
O531 O 0.64612 0.34231 0.6567 0.0
C532 C 0.53758 0.36217 0.73706 0.0
C533 C 0.54476 0.38563 0.7507 0.0
H534 H 0.56432 0.43132 0.76936 0.0
H535 H 0.60689 0.44898 0.74816 0.0
H536 H 0.56008 0.29964 0.65954 0.0
H537 H 0.52927 0.318 0.70297 0.0
H538 H 0.51946 0.35337 0.74585 0.0
H539 H 0.53205 0.39451 0.76976 0.0
Mn540 Mn 0.35191 0.88583 0.37671 0.0
Mn541 Mn 0.35571 0.86617 0.45966 0.0
C542 C 0.35079 0.84397 0.38728 0.0
C543 C 0.32487 0.90095 0.33248 0.0
C544 C 0.40387 0.88272 0.41817 0.0
O545 O 0.34634 0.9171 0.40506 0.0
O546 O 0.34484 0.90174 0.45913 0.0
C547 C 0.29834 0.86921 0.47645 0.0
N548 N 0.32118 0.85571 0.47414 0.0
C549 C 0.29897 0.81914 0.49437 0.0
C550 C 0.27525 0.83269 0.49722 0.0
C551 C 0.27493 0.85782 0.48814 0.0
C552 C 0.32168 0.8315 0.48261 0.0
H553 H 0.298 0.8885 0.46935 0.0
C554 C 0.34309 0.91971 0.43769 0.0
O555 O 0.3504 0.90509 0.33241 0.0
O556 O 0.31536 0.88822 0.35794 0.0
N557 N 0.36596 0.83231 0.46505 0.0
C558 C 0.39037 0.82179 0.46035 0.0
C559 C 0.39398 0.79661 0.46778 0.0
C560 C 0.37261 0.78262 0.4805 0.0
C561 C 0.34787 0.794 0.48597 0.0
C562 C 0.34549 0.81919 0.47824 0.0
H563 H 0.40689 0.83246 0.45069 0.0
O564 O 0.35567 0.85219 0.3564 0.0
O565 O 0.34522 0.8606 0.41099 0.0
O566 O 0.39185 0.8866 0.38922 0.0
O567 O 0.39196 0.87593 0.44586 0.0
C568 C 0.32535 0.78125 0.49822 0.0
C569 C 0.30091 0.7938 0.50234 0.0
H570 H 0.25713 0.82396 0.50614 0.0
H571 H 0.25666 0.86837 0.49011 0.0
H572 H 0.41317 0.78799 0.46364 0.0
H573 H 0.37542 0.76315 0.48591 0.0
H574 H 0.32655 0.76174 0.50423 0.0
H575 H 0.28367 0.78374 0.51148 0.0
H576 H 0.16681 0.81396 0.17719 0.0
H577 H 0.1409 0.68975 0.06787 0.0
H578 H 0.14889 0.81438 0.06726 0.0
H579 H 0.15657 0.69372 0.17825 0.0
H580 H 0.15115 0.73426 0.06378 0.0
H581 H 0.17086 0.76917 0.17475 0.0
C582 C 0.164 0.80458 0.15239 0.0
C583 C 0.1572 0.81788 0.12248 0.0
C584 C 0.1528 0.72523 0.08874 0.0
C585 C 0.16129 0.76624 0.11951 0.0
C586 C 0.14713 0.69985 0.09101 0.0
C587 C 0.14765 0.6882 0.1235 0.0
C588 C 0.15915 0.73878 0.11916 0.0
C589 C 0.1556 0.70208 0.15276 0.0
C590 C 0.1663 0.77894 0.15097 0.0
C591 C 0.15412 0.80478 0.09094 0.0
N592 N 0.16081 0.72658 0.14992 0.0
N593 N 0.15574 0.77958 0.09036 0.0
H594 H 0.43565 0.87581 0.47504 0.0
H595 H 0.57088 0.88976 0.4817 0.0
H596 H 0.43943 0.89491 0.36623 0.0
H597 H 0.56914 0.87783 0.37056 0.0
H598 H 0.52295 0.89561 0.48097 0.0
H599 H 0.48353 0.87738 0.47851 0.0
C600 C 0.44652 0.8808 0.45188 0.0
C601 C 0.43327 0.88534 0.42028 0.0
C602 C 0.53276 0.89123 0.45673 0.0
C603 C 0.48895 0.88809 0.42445 0.0
C604 C 0.56028 0.88818 0.45712 0.0
C605 C 0.5739 0.88284 0.42625 0.0
C606 C 0.51852 0.8882 0.42534 0.0
C607 C 0.55929 0.88172 0.39498 0.0
C608 C 0.47412 0.88201 0.45403 0.0
C609 C 0.44874 0.89138 0.39119 0.0
N610 N 0.53227 0.88406 0.39537 0.0
N611 N 0.47582 0.89244 0.39393 0.0
H612 H 0.33196 0.32618 0.57922 0.0
H613 H 0.38553 0.19066 0.61856 0.0
H614 H 0.38207 0.30729 0.66697 0.0
H615 H 0.30877 0.2003 0.56967 0.0
H616 H 0.38951 0.23546 0.62528 0.0
H617 H 0.32704 0.28171 0.56577 0.0
C618 C 0.34181 0.31281 0.59571 0.0
C619 C 0.35756 0.32062 0.62423 0.0
C620 C 0.37191 0.22787 0.61266 0.0
C621 C 0.35235 0.27009 0.60857 0.0
C622 C 0.36975 0.20238 0.6086 0.0
C623 C 0.3472 0.192 0.5926 0.0
C624 C 0.35113 0.24319 0.60119 0.0
C625 C 0.32686 0.20781 0.58108 0.0
C626 C 0.33897 0.28751 0.58799 0.0
C627 C 0.36981 0.30239 0.64466 0.0
N628 N 0.32931 0.23279 0.58549 0.0
N629 N 0.36712 0.27812 0.63625 0.0
H630 H 0.05579 0.08408 0.83397 0.0
H631 H 0.92999 0.14988 0.92312 0.0
H632 H 0.06273 0.14492 0.9067 0.0
H633 H 0.92508 0.07974 0.86944 0.0
H634 H 0.97846 0.14986 0.91486 0.0
H635 H 0.00726 0.08444 0.8419 0.0
C636 C 0.04695 0.09794 0.85085 0.0
C637 C 0.06304 0.11481 0.86923 0.0
C638 C 0.96683 0.13445 0.90485 0.0
C639 C 0.00791 0.1149 0.87932 0.0
C640 C 0.93924 0.13454 0.90946 0.0
C641 C 0.92366 0.11538 0.89539 0.0
C642 C 0.97886 0.11484 0.88647 0.0
C643 C 0.93647 0.09539 0.8792 0.0
C644 C 0.01936 0.0979 0.85583 0.0
C645 C 0.05084 0.13182 0.89179 0.0
N646 N 0.96334 0.09573 0.87482 0.0
N647 N 0.02401 0.13149 0.89615 0.0
H648 H 0.19644 0.30367 0.92308 0.0
H649 H 0.12449 0.19862 0.81264 0.0
H650 H 0.1223 0.31402 0.86796 0.0
H651 H 0.16811 0.17896 0.90575 0.0
H652 H 0.13064 0.24199 0.82714 0.0
H653 H 0.19242 0.25854 0.91313 0.0
C654 C 0.17907 0.29633 0.90965 0.0
C655 C 0.15914 0.31226 0.89737 0.0
C656 C 0.13891 0.2282 0.84442 0.0
C657 C 0.1552 0.26149 0.88434 0.0
C658 C 0.13556 0.20333 0.83608 0.0
C659 C 0.14563 0.18494 0.85814 0.0
C660 C 0.15274 0.23501 0.87482 0.0
C661 C 0.15988 0.19249 0.88809 0.0
C662 C 0.17691 0.27075 0.90375 0.0
C663 C 0.13772 0.30219 0.87853 0.0
N664 N 0.16308 0.21704 0.89559 0.0
N665 N 0.13633 0.27748 0.87254 0.0
H666 H 0.94044 0.91798 0.15942 0.0
H667 H 0.07029 0.85637 0.07545 0.0
H668 H 0.93683 0.8561 0.08809 0.0
H669 H 0.07091 0.92755 0.12669 0.0
H670 H 0.02158 0.85506 0.08073 0.0
H671 H 0.98865 0.92052 0.15041 0.0
C672 C 0.95001 0.90445 0.14271 0.0
C673 C 0.93492 0.88649 0.12498 0.0
C674 C 0.03231 0.87101 0.09077 0.0
C675 C 0.98988 0.8893 0.1143 0.0
C676 C 0.06004 0.87169 0.08787 0.0
C677 C 0.07447 0.89149 0.10234 0.0
C678 C 0.019 0.89049 0.10782 0.0
C679 C 0.06041 0.91141 0.11681 0.0
C680 C 0.97743 0.90609 0.13716 0.0
C681 C 0.948 0.86996 0.10259 0.0
N682 N 0.03343 0.9103 0.11959 0.0
N683 N 0.97478 0.87162 0.09806 0.0
H684 H 0.3782 0.69512 0.33165 0.0
H685 H 0.31091 0.81385 0.41125 0.0
H686 H 0.3263 0.68669 0.42006 0.0
H687 H 0.39105 0.81325 0.37179 0.0
H688 H 0.31115 0.76811 0.41083 0.0
H689 H 0.37752 0.73954 0.34043 0.0
C690 C 0.3666 0.70252 0.35299 0.0
C691 C 0.35247 0.68693 0.37536 0.0
C692 C 0.3288 0.77809 0.40295 0.0
C693 C 0.35141 0.7383 0.38519 0.0
C694 C 0.32875 0.80404 0.40344 0.0
C695 C 0.35136 0.81711 0.3927 0.0
C696 C 0.35125 0.76545 0.39031 0.0
C697 C 0.37348 0.80375 0.38101 0.0
C698 C 0.36634 0.72799 0.35803 0.0
C699 C 0.33763 0.69796 0.40233 0.0
N700 N 0.37284 0.77868 0.37998 0.0
N701 N 0.33732 0.72308 0.4064 0.0
H702 H 0.55574 0.08303 0.63713 0.0
H703 H 0.43784 0.14559 0.52909 0.0
H704 H 0.56783 0.14297 0.56585 0.0
H705 H 0.42428 0.10298 0.62195 0.0
H706 H 0.48569 0.14125 0.53815 0.0
H707 H 0.50744 0.0864 0.62773 0.0
C708 C 0.54805 0.09716 0.61994 0.0
C709 C 0.56535 0.11351 0.60336 0.0
C710 C 0.47222 0.13287 0.55654 0.0
C711 C 0.51072 0.11686 0.59143 0.0
C712 C 0.44486 0.13526 0.55135 0.0
C713 C 0.42692 0.12467 0.57483 0.0
C714 C 0.4818 0.11957 0.58518 0.0
C715 C 0.43733 0.11152 0.60322 0.0
C716 C 0.52064 0.09896 0.61437 0.0
C717 C 0.55485 0.13058 0.57983 0.0
N718 N 0.46411 0.10928 0.60755 0.0
N719 N 0.52811 0.13196 0.57471 0.0
H720 H 0.82117 0.19127 0.83048 0.0
H721 H 0.85629 0.31848 0.92828 0.0
H722 H 0.85184 0.19388 0.93557 0.0
H723 H 0.84129 0.30986 0.81819 0.0
H724 H 0.84479 0.27454 0.93624 0.0
H725 H 0.81751 0.23617 0.83109 0.0
C726 C 0.82674 0.20134 0.85394 0.0
C727 C 0.83716 0.18891 0.88284 0.0
C728 C 0.8436 0.28246 0.91049 0.0
C729 C 0.83361 0.24052 0.8835 0.0
C730 C 0.85 0.30749 0.90598 0.0
C731 C 0.84996 0.31765 0.87248 0.0
C732 C 0.83682 0.26778 0.88132 0.0
C733 C 0.84189 0.30265 0.84439 0.0
C734 C 0.82474 0.22701 0.85426 0.0
C735 C 0.84376 0.20283 0.91272 0.0
N736 N 0.8358 0.27852 0.84943 0.0
N737 N 0.84235 0.22803 0.91209 0.0
H738 H 0.66532 0.67558 0.41401 0.0
H739 H 0.6153 0.80984 0.36805 0.0
H740 H 0.62895 0.69435 0.3154 0.0
H741 H 0.69093 0.80258 0.42066 0.0
H742 H 0.61376 0.76494 0.35986 0.0
H743 H 0.67016 0.7202 0.42704 0.0
C744 C 0.65863 0.68892 0.395 0.0
C745 C 0.64656 0.68107 0.36362 0.0
C746 C 0.63054 0.77312 0.37362 0.0
C747 C 0.6515 0.73165 0.37876 0.0
C748 C 0.63134 0.79863 0.37843 0.0
C749 C 0.65278 0.80964 0.3961 0.0
C750 C 0.65151 0.75849 0.38621 0.0
C751 C 0.67356 0.79451 0.40813 0.0
C752 C 0.66139 0.71428 0.4025 0.0
C753 C 0.63826 0.69928 0.34 0.0
N754 N 0.67237 0.7695 0.4032 0.0
N755 N 0.64056 0.72359 0.34827 0.0
H756 H 0.87479 0.68911 0.13104 0.0
H757 H 0.85304 0.80578 0.19134 0.0
H758 H 0.7991 0.69754 0.07883 0.0
H759 H 0.83631 0.82196 0.08339 0.0
H760 H 0.84665 0.76202 0.17879 0.0
H761 H 0.87634 0.73385 0.14118 0.0
C762 C 0.8587 0.70054 0.12126 0.0
C763 C 0.8372 0.68995 0.10318 0.0
C764 C 0.84419 0.77523 0.15796 0.0
C765 C 0.83845 0.74076 0.11551 0.0
C766 C 0.84773 0.80025 0.16502 0.0
C767 C 0.84574 0.81766 0.1382 0.0
C768 C 0.83846 0.76738 0.12392 0.0
C769 C 0.83833 0.80917 0.10476 0.0
C770 C 0.85951 0.72591 0.12721 0.0
C771 C 0.81643 0.70533 0.09183 0.0
N772 N 0.83513 0.78446 0.09842 0.0
N773 N 0.81761 0.73021 0.09794 0.0
H774 H 0.68053 0.30768 0.67256 0.0
H775 H 0.64613 0.1822 0.57037 0.0
H776 H 0.64737 0.30672 0.56874 0.0
H777 H 0.66603 0.18827 0.67943 0.0
H778 H 0.65655 0.22649 0.56375 0.0
H779 H 0.68621 0.26301 0.66931 0.0
C780 C 0.67484 0.29803 0.64879 0.0
C781 C 0.66315 0.31081 0.62105 0.0
C782 C 0.65913 0.21795 0.58893 0.0
C783 C 0.66897 0.25943 0.6174 0.0
C784 C 0.65338 0.19271 0.59265 0.0
C785 C 0.65506 0.18175 0.62555 0.0
C786 C 0.66686 0.23202 0.61829 0.0
C787 C 0.66423 0.19612 0.65369 0.0
C788 C 0.67801 0.27249 0.64696 0.0
C789 C 0.65642 0.29748 0.59071 0.0
N790 N 0.6696 0.22049 0.64946 0.0
N791 N 0.65895 0.27235 0.58991 0.0
H792 H 0.082 0.40103 0.87225 0.0
H793 H 0.93722 0.3562 0.92957 0.0
H794 H 0.0672 0.35737 0.96381 0.0
H795 H 0.94918 0.4168 0.85937 0.0
H796 H 0.98553 0.3534 0.93826 0.0
H797 H 0.03381 0.40415 0.86271 0.0
C798 C 0.0687 0.39219 0.89042 0.0
C799 C 0.07876 0.37895 0.91894 0.0
C800 C 0.97765 0.36724 0.92078 0.0
C801 C 0.02373 0.38237 0.908 0.0
C802 C 0.95019 0.36872 0.91575 0.0
C803 C 0.9396 0.38605 0.89269 0.0
C804 C 0.99452 0.38352 0.90302 0.0
C805 C 0.9569 0.40251 0.87623 0.0
C806 C 0.04122 0.39403 0.88496 0.0
C807 C 0.06049 0.36784 0.94153 0.0
N808 N 0.98364 0.40073 0.88147 0.0
N809 N 0.03392 0.36972 0.93548 0.0
H810 H 0.55609 0.57941 0.33936 0.0
H811 H 0.42615 0.64092 0.42253 0.0
H812 H 0.55922 0.6397 0.41339 0.0
H813 H 0.42459 0.57094 0.36811 0.0
H814 H 0.4749 0.64104 0.41944 0.0
H815 H 0.50771 0.57691 0.34738 0.0
C816 C 0.5464 0.5926 0.35647 0.0
C817 C 0.56139 0.61014 0.37519 0.0
C818 C 0.46399 0.62558 0.40824 0.0
C819 C 0.50634 0.60719 0.38498 0.0
C820 C 0.43622 0.6256 0.40985 0.0
C821 C 0.42155 0.6066 0.39374 0.0
C822 C 0.47712 0.6062 0.39076 0.0
C823 C 0.43534 0.58656 0.37913 0.0
C824 C 0.51889 0.59096 0.36144 0.0
C825 C 0.54817 0.62616 0.39814 0.0
N826 N 0.46243 0.58703 0.37751 0.0
N827 N 0.52136 0.62442 0.40224 0.0
H828 H 0.57296 0.415 0.64806 0.0
H829 H 0.43407 0.36343 0.57304 0.0
H830 H 0.56646 0.35185 0.57932 0.0
H831 H 0.44096 0.43078 0.63312 0.0
H832 H 0.48279 0.36007 0.5723 0.0
H833 H 0.52476 0.42147 0.64261 0.0
C834 C 0.56117 0.402 0.63282 0.0
C835 C 0.57343 0.38253 0.61473 0.0
C836 C 0.47374 0.3757 0.5855 0.0
C837 C 0.51852 0.39 0.60778 0.0
C838 C 0.44599 0.37754 0.58597 0.0
C839 C 0.43377 0.39666 0.60477 0.0
C840 C 0.48927 0.39334 0.60359 0.0
C841 C 0.44984 0.41511 0.61984 0.0
C842 C 0.53377 0.40593 0.62917 0.0
C843 C 0.55754 0.3668 0.59414 0.0
N844 N 0.47684 0.41284 0.61934 0.0
N845 N 0.53089 0.37078 0.59136 0.0
H846 H 0.0604 0.64932 0.06284 0.0
H847 H 0.9171 0.60164 0.12146 0.0
H848 H 0.04977 0.58744 0.13119 0.0
H849 H 0.92961 0.64801 0.03198 0.0
H850 H 0.96541 0.59862 0.12914 0.0
H851 H 0.01198 0.6515 0.05451 0.0
C852 C 0.0477 0.63636 0.07629 0.0
C853 C 0.05865 0.61888 0.09884 0.0
C854 C 0.9575 0.60932 0.10773 0.0
C855 C 0.00369 0.62072 0.08893 0.0
C856 C 0.92993 0.6111 0.10335 0.0
C857 C 0.91919 0.62508 0.07599 0.0
C858 C 0.97442 0.62174 0.08478 0.0
C859 C 0.93688 0.63697 0.05339 0.0
C860 C 0.02019 0.63749 0.07146 0.0
C861 C 0.04174 0.60185 0.11478 0.0
N862 N 0.96359 0.63511 0.0584 0.0
N863 N 0.01497 0.60332 0.1098 0.0
H864 H 0.17732 0.564 0.0243 0.0
H865 H 0.15851 0.41687 0.03455 0.0
H866 H 0.13879 0.52603 0.1085 0.0
H867 H 0.1811 0.45447 0.94048 0.0
H868 H 0.15933 0.45645 0.06555 0.0
H869 H 0.18672 0.52368 0.99674 0.0
C870 C 0.17119 0.54721 0.03718 0.0
C871 C 0.15701 0.54833 0.06849 0.0
C872 C 0.16429 0.45602 0.03816 0.0
C873 C 0.16768 0.50239 0.03738 0.0
C874 C 0.16388 0.43338 0.02042 0.0
C875 C 0.16937 0.43229 0.98466 0.0
C876 C 0.17027 0.47782 0.02014 0.0
C877 C 0.17641 0.45439 0.96793 0.0
C878 C 0.17644 0.52425 0.02142 0.0
C879 C 0.14948 0.52604 0.08411 0.0
N880 N 0.17645 0.47626 0.98574 0.0
N881 N 0.1548 0.50405 0.06835 0.0
H882 H 0.74095 0.90455 0.37264 0.0
H883 H 0.78113 0.90712 0.17442 0.0
H884 H 0.68234 0.91084 0.29062 0.0
H885 H 0.83672 0.91548 0.26 0.0
H886 H 0.74429 0.91381 0.21512 0.0
H887 H 0.77586 0.91394 0.3312 0.0
C888 C 0.73546 0.90825 0.34586 0.0
C889 C 0.70889 0.90665 0.33482 0.0
C890 C 0.76459 0.91461 0.22479 0.0
C891 C 0.74877 0.91686 0.28689 0.0
C892 C 0.78561 0.91082 0.20159 0.0
C893 C 0.81198 0.91015 0.21401 0.0
C894 C 0.77013 0.9177 0.26049 0.0
C895 C 0.81667 0.91522 0.2494 0.0
C896 C 0.75538 0.91366 0.32216 0.0
C897 C 0.70271 0.91185 0.3 0.0
N898 N 0.79597 0.91843 0.2714 0.0
N899 N 0.72263 0.91624 0.27697 0.0
H900 H 0.3102 0.43371 0.52099 0.0
H901 H 0.31611 0.58101 0.50321 0.0
H902 H 0.34068 0.48307 0.60072 0.0
H903 H 0.31579 0.52997 0.41626 0.0
H904 H 0.31008 0.54593 0.54269 0.0
H905 H 0.29752 0.46976 0.48622 0.0
C906 C 0.31375 0.45211 0.53144 0.0
C907 C 0.32694 0.45547 0.56341 0.0
C908 C 0.31072 0.54254 0.51488 0.0
C909 C 0.31238 0.49657 0.52412 0.0
C910 C 0.31397 0.56252 0.49241 0.0
C911 C 0.31681 0.55822 0.45662 0.0
C912 C 0.31 0.51831 0.50122 0.0
C913 C 0.31406 0.53395 0.44383 0.0
C914 C 0.30657 0.47263 0.51162 0.0
C915 C 0.33098 0.47969 0.57587 0.0
N916 N 0.31107 0.51486 0.46614 0.0
N917 N 0.32395 0.49934 0.55606 0.0
H918 H 0.7066 0.07954 0.67501 0.0
H919 H 0.76557 0.10685 0.86518 0.0
H920 H 0.66037 0.1116 0.75848 0.0
H921 H 0.8125 0.08521 0.7762 0.0
H922 H 0.725 0.10081 0.83015 0.0
H923 H 0.74351 0.07369 0.7155 0.0
C924 C 0.70408 0.08519 0.70191 0.0
C925 C 0.68045 0.09652 0.71315 0.0
C926 C 0.7442 0.09709 0.8185 0.0
C927 C 0.72284 0.0899 0.75973 0.0
C928 C 0.76732 0.10041 0.83851 0.0
C929 C 0.79244 0.09691 0.8234 0.0
C930 C 0.74631 0.09007 0.78331 0.0
C931 C 0.79357 0.08855 0.78875 0.0
C932 C 0.72522 0.08182 0.72506 0.0
C933 C 0.67831 0.10308 0.74851 0.0
N934 N 0.77087 0.08563 0.76984 0.0
N935 N 0.69937 0.09994 0.77047 0.0
H936 H 0.82044 0.44098 0.96745 0.0
H937 H 0.83907 0.58815 0.96253 0.0
H938 H 0.86066 0.48015 0.8857 0.0
H939 H 0.81678 0.54865 0.05517 0.0
H940 H 0.83851 0.54915 0.93007 0.0
H941 H 0.81072 0.48082 0.99598 0.0
C942 C 0.82691 0.45795 0.95531 0.0
C943 C 0.84162 0.4573 0.92441 0.0
C944 C 0.83355 0.54906 0.95746 0.0
C945 C 0.83056 0.5027 0.95665 0.0
C946 C 0.8338 0.57135 0.97603 0.0
C947 C 0.82835 0.57171 0.01182 0.0
C948 C 0.82773 0.52691 0.97468 0.0
C949 C 0.82146 0.54928 0.02773 0.0
C950 C 0.82145 0.48063 0.97163 0.0
C951 C 0.84953 0.4798 0.90974 0.0
N952 N 0.82154 0.52776 0.00912 0.0
N953 N 0.844 0.50154 0.92605 0.0
H954 H 0.21956 0.09858 0.82453 0.0
H955 H 0.25996 0.09561 0.62596 0.0
H956 H 0.16485 0.08586 0.73903 0.0
H957 H 0.31873 0.096 0.70837 0.0
H958 H 0.22561 0.08636 0.66819 0.0
H959 H 0.25692 0.09222 0.78437 0.0
C960 C 0.21543 0.09401 0.79752 0.0
C961 C 0.18914 0.09333 0.78486 0.0
C962 C 0.24603 0.08812 0.6772 0.0
C963 C 0.23144 0.08607 0.7391 0.0
C964 C 0.26561 0.09344 0.65303 0.0
C965 C 0.29202 0.09686 0.6639 0.0
C966 C 0.25276 0.08685 0.71271 0.0
C967 C 0.29846 0.09357 0.69913 0.0
C968 C 0.2367 0.0904 0.77464 0.0
C969 C 0.18482 0.08718 0.74975 0.0
N970 N 0.2788 0.08923 0.72255 0.0
N971 N 0.20571 0.08408 0.72809 0.0
H972 H 0.64636 0.51835 0.39326 0.0
H973 H 0.65901 0.47138 0.58515 0.0
H974 H 0.67152 0.56705 0.47683 0.0
H975 H 0.67163 0.42224 0.4977 0.0
H976 H 0.66265 0.50678 0.54628 0.0
H977 H 0.65447 0.48279 0.43083 0.0
C978 C 0.65384 0.52153 0.41944 0.0
C979 C 0.65811 0.54565 0.43209 0.0
C980 C 0.66502 0.48828 0.53567 0.0
C981 C 0.66705 0.50513 0.47527 0.0
C982 C 0.66286 0.46808 0.55778 0.0
C983 C 0.66487 0.44389 0.54451 0.0
C984 C 0.66858 0.48424 0.49988 0.0
C985 C 0.66998 0.44062 0.50893 0.0
C986 C 0.65858 0.50124 0.44078 0.0
C987 C 0.66796 0.54874 0.46611 0.0
N988 N 0.67119 0.46059 0.48767 0.0
N989 N 0.67168 0.52871 0.48676 0.0
H990 H 0.33441 0.90486 0.26228 0.0
H991 H 0.17935 0.92642 0.22579 0.0
H992 H 0.27412 0.91608 0.34024 0.0
H993 H 0.23238 0.89795 0.14709 0.0
H994 H 0.21724 0.93353 0.26414 0.0
H995 H 0.30053 0.91226 0.2167 0.0
C996 C 0.31422 0.90946 0.26973 0.0
C997 C 0.30683 0.90963 0.30488 0.0
C998 C 0.22075 0.92594 0.23838 0.0
C999 C 0.2684 0.91812 0.25348 0.0
C1000 C 0.19907 0.92189 0.21641 0.0
C1001 C 0.20267 0.91112 0.18345 0.0
C1002 C 0.24633 0.91882 0.2277 0.0
C1003 C 0.22877 0.90608 0.17247 0.0
C1004 C 0.29494 0.91352 0.24383 0.0
C1005 C 0.2805 0.91549 0.31337 0.0
N1006 N 0.24967 0.90954 0.19486 0.0
N1007 N 0.26225 0.91936 0.2879 0.0
H1008 H 0.64616 0.01951 0.61619 0.0
H1009 H 0.67954 0.95063 0.43891 0.0
H1010 H 0.68106 0.05722 0.52915 0.0
H1011 H 0.66196 0.91259 0.53445 0.0
H1012 H 0.68304 0.98946 0.47172 0.0
H1013 H 0.65456 0.97998 0.58738 0.0
C1014 C 0.65586 0.01942 0.59108 0.0
C1015 C 0.66271 0.04164 0.57484 0.0
C1016 C 0.67876 0.97256 0.48554 0.0
C1017 C 0.67208 0.99638 0.54138 0.0
C1018 C 0.67669 0.95035 0.46682 0.0
C1019 C 0.67004 0.92828 0.48383 0.0
C1020 C 0.6739 0.97278 0.52147 0.0
C1021 C 0.66687 0.9291 0.5201 0.0
C1022 C 0.66072 0.99682 0.57466 0.0
C1023 C 0.67544 0.04047 0.54249 0.0
N1024 N 0.66848 0.95102 0.53759 0.0
N1025 N 0.67936 0.01817 0.52651 0.0
H1026 H 0.28237 0.40882 0.66982 0.0
H1027 H 0.24903 0.40387 0.8714 0.0
H1028 H 0.34121 0.40918 0.75244 0.0
H1029 H 0.1882 0.41359 0.79288 0.0
H1030 H 0.28302 0.4108 0.82773 0.0
H1031 H 0.24746 0.41501 0.71351 0.0
C1032 C 0.28798 0.41044 0.69702 0.0
C1033 C 0.3147 0.40795 0.70753 0.0
C1034 C 0.26227 0.41177 0.81995 0.0
C1035 C 0.27505 0.41512 0.75739 0.0
C1036 C 0.24287 0.40783 0.84495 0.0
C1037 C 0.21588 0.40792 0.83556 0.0
C1038 C 0.25466 0.41529 0.78509 0.0
C1039 C 0.20889 0.41334 0.80105 0.0
C1040 C 0.26807 0.41401 0.72191 0.0
C1041 C 0.32085 0.41042 0.74309 0.0
N1042 N 0.22823 0.41637 0.77679 0.0
N1043 N 0.3012 0.41363 0.76665 0.0
H1044 H 0.8255 0.07968 0.01295 0.0
H1045 H 0.82094 0.93206 0.02792 0.0
H1046 H 0.83037 0.03011 0.92459 0.0
H1047 H 0.85242 0.97976 0.109 0.0
H1048 H 0.81143 0.96868 0.99269 0.0
H1049 H 0.8222 0.04362 0.05133 0.0
C1050 C 0.82525 0.06124 0.00162 0.0
C1051 C 0.82847 0.05774 0.96571 0.0
C1052 C 0.82013 0.97108 0.01838 0.0
C1053 C 0.82459 0.01676 0.00906 0.0
C1054 C 0.82551 0.95025 0.03847 0.0
C1055 C 0.8378 0.95293 0.07117 0.0
C1056 C 0.82671 0.9947 0.03136 0.0
C1057 C 0.84326 0.9769 0.08369 0.0
C1058 C 0.82355 0.04075 0.02346 0.0
C1059 C 0.8282 0.03353 0.95224 0.0
N1060 N 0.83776 0.9969 0.0637 0.0
N1061 N 0.82643 0.01393 0.97394 0.0
H1062 H 0.1549 0.61518 0.25303 0.0
H1063 H 0.31168 0.59436 0.26244 0.0
H1064 H 0.20251 0.58941 0.1667 0.0
H1065 H 0.2642 0.6088 0.35371 0.0
H1066 H 0.27111 0.59044 0.22795 0.0
H1067 H 0.19365 0.61063 0.29138 0.0
C1068 C 0.17336 0.60831 0.24216 0.0
C1069 C 0.17549 0.60302 0.20641 0.0
C1070 C 0.26946 0.59429 0.25556 0.0
C1071 C 0.21989 0.59792 0.25016 0.0
C1072 C 0.29268 0.59665 0.27529 0.0
C1073 C 0.29135 0.60221 0.31098 0.0
C1074 C 0.24462 0.5978 0.27143 0.0
C1075 C 0.26613 0.6046 0.32624 0.0
C1076 C 0.19548 0.60573 0.26411 0.0
C1077 C 0.19991 0.59402 0.19394 0.0
N1078 N 0.24371 0.60267 0.30627 0.0
N1079 N 0.22117 0.59202 0.2157 0.0
H1080 H 0.34376 0.07883 0.46676 0.0
H1081 H 0.33225 0.93384 0.50501 0.0
H1082 H 0.32721 0.04844 0.56796 0.0
H1083 H 0.3432 0.96355 0.40209 0.0
H1084 H 0.328 0.97594 0.52784 0.0
H1085 H 0.34126 0.03703 0.44181 0.0
C1086 C 0.33942 0.06346 0.48371 0.0
C1087 C 0.33594 0.06725 0.51961 0.0
C1088 C 0.33117 0.97325 0.50021 0.0
C1089 C 0.33317 0.01931 0.49121 0.0
C1090 C 0.33361 0.94917 0.48714 0.0
C1091 C 0.33831 0.94504 0.45158 0.0
C1092 C 0.33358 0.99346 0.47766 0.0
C1093 C 0.33971 0.96575 0.42972 0.0
C1094 C 0.33801 0.03958 0.46944 0.0
C1095 C 0.33026 0.04653 0.5402 0.0
N1096 N 0.33756 0.98902 0.44314 0.0
N1097 N 0.32924 0.02353 0.52576 0.0
H1098 H 0.81455 0.58694 0.20581 0.0
H1099 H 0.65888 0.57843 0.24404 0.0
H1100 H 0.75175 0.59342 0.12924 0.0
H1101 H 0.71699 0.59457 0.32444 0.0
H1102 H 0.69473 0.57106 0.20314 0.0
H1103 H 0.78087 0.57779 0.25015 0.0
C1104 C 0.79375 0.58583 0.19822 0.0
C1105 C 0.78574 0.5912 0.16405 0.0
C1106 C 0.69973 0.57593 0.2298 0.0
C1107 C 0.74751 0.58071 0.21414 0.0
C1108 C 0.67926 0.58016 0.25322 0.0
C1109 C 0.68499 0.5877 0.28749 0.0
C1110 C 0.72622 0.57956 0.24048 0.0
C1111 C 0.71177 0.58907 0.2981 0.0
C1112 C 0.77461 0.58076 0.22349 0.0
C1113 C 0.75865 0.58968 0.15544 0.0
N1114 N 0.73152 0.58551 0.27442 0.0
N1115 N 0.74051 0.58473 0.18037 0.0
H1116 H 0.17634 0.92528 0.99054 0.0
H1117 H 0.17742 0.07267 0.97076 0.0
H1118 H 0.1702 0.97634 0.07705 0.0
H1119 H 0.14896 0.02262 0.89058 0.0
H1120 H 0.1881 0.03697 0.00729 0.0
H1121 H 0.17999 0.96066 0.951 0.0
C1122 C 0.17646 0.9439 0.00124 0.0
C1123 C 0.17269 0.94802 0.03692 0.0
C1124 C 0.17982 0.03387 0.98151 0.0
C1125 C 0.17687 0.98823 0.99226 0.0
C1126 C 0.17376 0.05418 0.96068 0.0
C1127 C 0.16193 0.05055 0.92787 0.0
C1128 C 0.17437 0.00983 0.96915 0.0
C1129 C 0.1577 0.02621 0.91598 0.0
C1130 C 0.17834 0.96401 0.97873 0.0
C1131 C 0.17278 0.97245 0.04958 0.0
N1132 N 0.1638 0.00675 0.93668 0.0
N1133 N 0.17465 0.99167 0.02725 0.0
H1134 H 0.68569 0.4128 0.73271 0.0
H1135 H 0.84187 0.38941 0.73994 0.0
H1136 H 0.73169 0.3937 0.64185 0.0
H1137 H 0.79581 0.41754 0.82627 0.0
H1138 H 0.8031 0.39487 0.70191 0.0
H1139 H 0.72686 0.41891 0.76552 0.0
C1140 C 0.70451 0.41015 0.71955 0.0
C1141 C 0.70528 0.40241 0.68462 0.0
C1142 C 0.80162 0.40012 0.72909 0.0
C1143 C 0.75263 0.40905 0.72224 0.0
C1144 C 0.82375 0.39698 0.75087 0.0
C1145 C 0.82203 0.40262 0.78657 0.0
C1146 C 0.77759 0.40884 0.74313 0.0
C1147 C 0.79806 0.41258 0.79909 0.0
C1148 C 0.72806 0.41367 0.7383 0.0
C1149 C 0.73023 0.39958 0.66878 0.0
N1150 N 0.77675 0.4151 0.7775 0.0
N1151 N 0.75296 0.40251 0.68789 0.0
loop_
_geom_bond_atom_site_label_1
_geom_bond_atom_site_label_2
_geom_bond_distance
_geom_bond_site_symmetry_2
_ccdc_geom_bond_type
Mn0 O5 2.095 . S
Mn0 O15 2.162 . S
Mn0 O16 2.297 . S
Mn0 O24 2.385 . S
Mn0 O25 2.209 . S
Mn0 O26 2.094 . S
Mn1 O6 2.121 . S
Mn1 N8 2.257 . S
Mn1 N17 2.282 . S
Mn1 O25 2.215 . S
Mn1 O27 2.117 . S
C2 O24 1.234 . S
C2 O25 1.283 . S
C3 O15 1.281 . S
C3 O16 1.236 . S
C4 O26 1.240 . S
C4 O27 1.264 . S
O5 Mn0 2.095 . S
O5 C14 1.250 . S
O6 Mn1 2.121 . S
O6 C14 1.258 . S
C7 N8 1.326 . S
C7 C11 1.460 . S
C7 H13 0.929 . S
N8 Mn1 2.257 . S
N8 C7 1.326 . S
N8 C12 1.362 . S
C9 C10 1.258 . S
C9 C12 1.431 . S
C9 C29 1.449 . S
C10 C9 1.258 . S
C10 C11 1.477 . S
C10 H30 0.931 . S
C11 C7 1.460 . S
C11 C10 1.477 . S
C11 H31 0.930 . S
C12 N8 1.362 . S
C12 C9 1.431 . S
C12 C22 1.476 . S
H13 C7 0.929 . S
C14 O5 1.250 . S
C14 O6 1.258 . S
O15 Mn0 2.162 . S
O15 C3 1.281 . S
O16 Mn0 2.297 . S
O16 C3 1.236 . S
N17 Mn1 2.282 . S
N17 C18 1.328 . S
N17 C22 1.318 . S
C18 N17 1.328 . S
C18 C19 1.457 . S
C18 H23 0.929 . S
C19 C18 1.457 . S
C19 C20 1.291 . S
C19 H32 0.931 . S
C20 C19 1.291 . S
C20 C21 1.373 . S
C20 H33 0.929 . S
C21 C20 1.373 . S
C21 C22 1.396 . S
C21 C28 1.403 . S
C22 C12 1.476 . S
C22 N17 1.318 . S
C22 C21 1.396 . S
H23 C18 0.929 . S
O24 Mn0 2.385 . S
O24 C2 1.234 . S
O25 Mn0 2.209 . S
O25 Mn1 2.215 . S
O25 C2 1.283 . S
O26 Mn0 2.094 . S
O26 C4 1.240 . S
O27 Mn1 2.117 . S
O27 C4 1.264 . S
C28 C21 1.403 . S
C28 C29 1.399 . S
C28 H34 0.929 . S
C29 C9 1.449 . S
C29 C28 1.399 . S
C29 H35 0.930 . S
H30 C10 0.931 . S
H31 C11 0.930 . S
H32 C19 0.931 . S
H33 C20 0.929 . S
H34 C28 0.929 . S
H35 C29 0.930 . S
Mn36 O41 2.095 . S
Mn36 O51 2.162 . S
Mn36 O52 2.297 . S
Mn36 O60 2.385 . S
Mn36 O61 2.209 . S
Mn36 O62 2.094 . S
Mn37 O42 2.121 . S
Mn37 N44 2.257 . S
Mn37 N53 2.282 . S
Mn37 O61 2.215 . S
Mn37 O63 2.117 . S
C38 O60 1.234 . S
C38 O61 1.283 . S
C39 O51 1.281 . S
C39 O52 1.236 . S
C40 O62 1.240 . S
C40 O63 1.264 . S
O41 Mn36 2.095 . S
O41 C50 1.250 . S
O42 Mn37 2.121 . S
O42 C50 1.258 . S
C43 N44 1.326 . S
C43 C47 1.460 . S
C43 H49 0.929 . S
N44 Mn37 2.257 . S
N44 C43 1.326 . S
N44 C48 1.362 . S
C45 C46 1.258 . S
C45 C48 1.431 . S
C45 C65 1.449 . S
C46 C45 1.258 . S
C46 C47 1.477 . S
C46 H66 0.931 . S
C47 C43 1.460 . S
C47 C46 1.477 . S
C47 H67 0.930 . S
C48 N44 1.362 . S
C48 C45 1.431 . S
C48 C58 1.476 . S
H49 C43 0.929 . S
C50 O41 1.250 . S
C50 O42 1.258 . S
O51 Mn36 2.162 . S
O51 C39 1.281 . S
O52 Mn36 2.297 . S
O52 C39 1.236 . S
N53 Mn37 2.282 . S
N53 C54 1.328 . S
N53 C58 1.318 . S
C54 N53 1.328 . S
C54 C55 1.457 . S
C54 H59 0.929 . S
C55 C54 1.457 . S
C55 C56 1.291 . S
C55 H68 0.931 . S
C56 C55 1.291 . S
C56 C57 1.373 . S
C56 H69 0.929 . S
C57 C56 1.373 . S
C57 C58 1.396 . S
C57 C64 1.403 . S
C58 C48 1.476 . S
C58 N53 1.318 . S
C58 C57 1.396 . S
H59 C54 0.929 . S
O60 Mn36 2.385 . S
O60 C38 1.234 . S
O61 Mn36 2.209 . S
O61 Mn37 2.215 . S
O61 C38 1.283 . S
O62 Mn36 2.094 . S
O62 C40 1.240 . S
O63 Mn37 2.117 . S
O63 C40 1.264 . S
C64 C57 1.403 . S
C64 C65 1.399 . S
C64 H70 0.929 . S
C65 C45 1.449 . S
C65 C64 1.399 . S
C65 H71 0.930 . S
H66 C46 0.931 . S
H67 C47 0.930 . S
H68 C55 0.931 . S
H69 C56 0.929 . S
H70 C64 0.929 . S
H71 C65 0.930 . S
Mn72 O77 2.095 . S
Mn72 O87 2.162 . S
Mn72 O88 2.297 . S
Mn72 O96 2.385 . S
Mn72 O97 2.209 . S
Mn72 O98 2.094 . S
Mn73 O78 2.121 . S
Mn73 N80 2.257 . S
Mn73 N89 2.282 . S
Mn73 O97 2.215 . S
Mn73 O99 2.117 . S
C74 O96 1.234 . S
C74 O97 1.283 . S
C75 O87 1.281 . S
C75 O88 1.236 . S
C76 O98 1.240 . S
C76 O99 1.264 . S
O77 Mn72 2.095 . S
O77 C86 1.250 . S
O78 Mn73 2.121 . S
O78 C86 1.258 . S
C79 N80 1.326 . S
C79 C83 1.460 . S
C79 H85 0.929 . S
N80 Mn73 2.257 . S
N80 C79 1.326 . S
N80 C84 1.362 . S
C81 C82 1.258 . S
C81 C84 1.431 . S
C81 C101 1.449 . S
C82 C81 1.258 . S
C82 C83 1.477 . S
C82 H102 0.931 . S
C83 C79 1.460 . S
C83 C82 1.477 . S
C83 H103 0.930 . S
C84 N80 1.362 . S
C84 C81 1.431 . S
C84 C94 1.476 . S
H85 C79 0.929 . S
C86 O77 1.250 . S
C86 O78 1.258 . S
O87 Mn72 2.162 . S
O87 C75 1.281 . S
O88 Mn72 2.297 . S
O88 C75 1.236 . S
N89 Mn73 2.282 . S
N89 C90 1.328 . S
N89 C94 1.318 . S
C90 N89 1.328 . S
C90 C91 1.457 . S
C90 H95 0.929 . S
C91 C90 1.457 . S
C91 C92 1.291 . S
C91 H104 0.931 . S
C92 C91 1.291 . S
C92 C93 1.373 . S
C92 H105 0.929 . S
C93 C92 1.373 . S
C93 C94 1.396 . S
C93 C100 1.403 . S
C94 C84 1.476 . S
C94 N89 1.318 . S
C94 C93 1.396 . S
H95 C90 0.929 . S
O96 Mn72 2.385 . S
O96 C74 1.234 . S
O97 Mn72 2.209 . S
O97 Mn73 2.215 . S
O97 C74 1.283 . S
O98 Mn72 2.094 . S
O98 C76 1.240 . S
O99 Mn73 2.117 . S
O99 C76 1.264 . S
C100 C93 1.403 . S
C100 C101 1.399 . S
C100 H106 0.929 . S
C101 C81 1.449 . S
C101 C100 1.399 . S
C101 H107 0.930 . S
H102 C82 0.931 . S
H103 C83 0.930 . S
H104 C91 0.931 . S
H105 C92 0.929 . S
H106 C100 0.929 . S
H107 C101 0.930 . S
Mn108 O113 2.095 . S
Mn108 O123 2.162 . S
Mn108 O124 2.297 . S
Mn108 O132 2.385 . S
Mn108 O133 2.209 . S
Mn108 O134 2.094 . S
Mn109 O114 2.121 . S
Mn109 N116 2.257 . S
Mn109 N125 2.282 . S
Mn109 O133 2.215 . S
Mn109 O135 2.117 . S
C110 O132 1.234 . S
C110 O133 1.283 . S
C111 O123 1.281 . S
C111 O124 1.236 . S
C112 O134 1.240 . S
C112 O135 1.264 . S
O113 Mn108 2.095 . S
O113 C122 1.250 . S
O114 Mn109 2.121 . S
O114 C122 1.258 . S
C115 N116 1.326 . S
C115 C119 1.460 . S
C115 H121 0.929 . S
N116 Mn109 2.257 . S
N116 C115 1.326 . S
N116 C120 1.362 . S
C117 C118 1.258 . S
C117 C120 1.431 . S
C117 C137 1.449 . S
C118 C117 1.258 . S
C118 C119 1.477 . S
C118 H138 0.931 . S
C119 C115 1.460 . S
C119 C118 1.477 . S
C119 H139 0.930 . S
C120 N116 1.362 . S
C120 C117 1.431 . S
C120 C130 1.476 . S
H121 C115 0.929 . S
C122 O113 1.250 . S
C122 O114 1.258 . S
O123 Mn108 2.162 . S
O123 C111 1.281 . S
O124 Mn108 2.297 . S
O124 C111 1.236 . S
N125 Mn109 2.282 . S
N125 C126 1.328 . S
N125 C130 1.318 . S
C126 N125 1.328 . S
C126 C127 1.457 . S
C126 H131 0.929 . S
C127 C126 1.457 . S
C127 C128 1.291 . S
C127 H140 0.931 . S
C128 C127 1.291 . S
C128 C129 1.373 . S
C128 H141 0.929 . S
C129 C128 1.373 . S
C129 C130 1.396 . S
C129 C136 1.403 . S
C130 C120 1.476 . S
C130 N125 1.318 . S
C130 C129 1.396 . S
H131 C126 0.929 . S
O132 Mn108 2.385 . S
O132 C110 1.234 . S
O133 Mn108 2.209 . S
O133 Mn109 2.215 . S
O133 C110 1.283 . S
O134 Mn108 2.094 . S
O134 C112 1.240 . S
O135 Mn109 2.117 . S
O135 C112 1.264 . S
C136 C129 1.403 . S
C136 C137 1.399 . S
C136 H142 0.929 . S
C137 C117 1.449 . S
C137 C136 1.399 . S
C137 H143 0.930 . S
H138 C118 0.931 . S
H139 C119 0.930 . S
H140 C127 0.931 . S
H141 C128 0.929 . S
H142 C136 0.929 . S
H143 C137 0.930 . S
Mn144 O149 2.095 . S
Mn144 O159 2.162 . S
Mn144 O160 2.297 . S
Mn144 O168 2.385 . S
Mn144 O169 2.209 . S
Mn144 O170 2.094 . S
Mn145 O150 2.121 . S
Mn145 N152 2.257 . S
Mn145 N161 2.282 . S
Mn145 O169 2.215 . S
Mn145 O171 2.117 . S
C146 O168 1.234 . S
C146 O169 1.283 . S
C147 O159 1.281 . S
C147 O160 1.236 . S
C148 O170 1.240 . S
C148 O171 1.264 . S
O149 Mn144 2.095 . S
O149 C158 1.250 . S
O150 Mn145 2.121 . S
O150 C158 1.258 . S
C151 N152 1.326 1_554 S
C151 C155 1.460 . S
C151 H157 0.929 . S
N152 Mn145 2.257 . S
N152 C151 1.326 1_556 S
N152 C156 1.362 1_556 S
C153 C154 1.258 . S
C153 C156 1.431 . S
C153 C173 1.449 . S
C154 C153 1.258 . S
C154 C155 1.477 . S
C154 H174 0.931 . S
C155 C151 1.460 . S
C155 C154 1.477 . S
C155 H175 0.930 . S
C156 N152 1.362 1_554 S
C156 C153 1.431 . S
C156 C166 1.476 1_554 S
H157 C151 0.929 . S
C158 O149 1.250 . S
C158 O150 1.258 . S
O159 Mn144 2.162 . S
O159 C147 1.281 . S
O160 Mn144 2.297 . S
O160 C147 1.236 . S
N161 Mn145 2.282 . S
N161 C162 1.328 . S
N161 C166 1.318 . S
C162 N161 1.328 . S
C162 C163 1.457 . S
C162 H167 0.929 . S
C163 C162 1.457 . S
C163 C164 1.291 . S
C163 H176 0.931 . S
C164 C163 1.291 . S
C164 C165 1.373 . S
C164 H177 0.929 . S
C165 C164 1.373 . S
C165 C166 1.396 . S
C165 C172 1.403 1_556 S
C166 C156 1.476 1_556 S
C166 N161 1.318 . S
C166 C165 1.396 . S
H167 C162 0.929 . S
O168 Mn144 2.385 . S
O168 C146 1.234 . S
O169 Mn144 2.209 . S
O169 Mn145 2.215 . S
O169 C146 1.283 . S
O170 Mn144 2.094 . S
O170 C148 1.240 . S
O171 Mn145 2.117 . S
O171 C148 1.264 . S
C172 C165 1.403 1_554 S
C172 C173 1.399 . S
C172 H178 0.929 . S
C173 C153 1.449 . S
C173 C172 1.399 . S
C173 H179 0.930 . S
H174 C154 0.931 . S
H175 C155 0.930 . S
H176 C163 0.931 . S
H177 C164 0.929 . S
H178 C172 0.929 . S
H179 C173 0.930 . S
Mn180 O185 2.095 . S
Mn180 O195 2.162 . S
Mn180 O196 2.297 . S
Mn180 O204 2.385 . S
Mn180 O205 2.209 . S
Mn180 O206 2.094 . S
Mn181 O186 2.121 . S
Mn181 N188 2.257 . S
Mn181 N197 2.282 . S
Mn181 O205 2.215 . S
Mn181 O207 2.117 . S
C182 O204 1.234 . S
C182 O205 1.283 . S
C183 O195 1.281 . S
C183 O196 1.236 . S
C184 O206 1.240 . S
C184 O207 1.264 . S
O185 Mn180 2.095 . S
O185 C194 1.250 . S
O186 Mn181 2.121 . S
O186 C194 1.258 . S
C187 N188 1.326 . S
C187 C191 1.460 . S
C187 H193 0.929 . S
N188 Mn181 2.257 . S
N188 C187 1.326 . S
N188 C192 1.362 . S
C189 C190 1.258 . S
C189 C192 1.431 . S
C189 C209 1.449 . S
C190 C189 1.258 . S
C190 C191 1.477 . S
C190 H210 0.931 . S
C191 C187 1.460 . S
C191 C190 1.477 . S
C191 H211 0.930 . S
C192 N188 1.362 . S
C192 C189 1.431 . S
C192 C202 1.476 . S
H193 C187 0.929 . S
C194 O185 1.250 . S
C194 O186 1.258 . S
O195 Mn180 2.162 . S
O195 C183 1.281 . S
O196 Mn180 2.297 . S
O196 C183 1.236 . S
N197 Mn181 2.282 . S
N197 C198 1.328 . S
N197 C202 1.318 . S
C198 N197 1.328 . S
C198 C199 1.457 . S
C198 H203 0.929 . S
C199 C198 1.457 . S
C199 C200 1.291 . S
C199 H212 0.931 . S
C200 C199 1.291 . S
C200 C201 1.373 . S
C200 H213 0.929 . S
C201 C200 1.373 . S
C201 C202 1.396 . S
C201 C208 1.403 . S
C202 C192 1.476 . S
C202 N197 1.318 . S
C202 C201 1.396 . S
H203 C198 0.929 . S
O204 Mn180 2.385 . S
O204 C182 1.234 . S
O205 Mn180 2.209 . S
O205 Mn181 2.215 . S
O205 C182 1.283 . S
O206 Mn180 2.094 . S
O206 C184 1.240 . S
O207 Mn181 2.117 . S
O207 C184 1.264 . S
C208 C201 1.403 . S
C208 C209 1.399 . S
C208 H214 0.929 . S
C209 C189 1.449 . S
C209 C208 1.399 . S
C209 H215 0.930 . S
H210 C190 0.931 . S
H211 C191 0.930 . S
H212 C199 0.931 . S
H213 C200 0.929 . S
H214 C208 0.929 . S
H215 C209 0.930 . S
Mn216 O221 2.095 . S
Mn216 O231 2.162 . S
Mn216 O232 2.297 . S
Mn216 O240 2.385 . S
Mn216 O241 2.209 . S
Mn216 O242 2.094 . S
Mn217 O222 2.121 . S
Mn217 N224 2.257 . S
Mn217 N233 2.282 . S
Mn217 O241 2.215 . S
Mn217 O243 2.117 . S
C218 O240 1.234 . S
C218 O241 1.283 . S
C219 O231 1.281 . S
C219 O232 1.236 . S
C220 O242 1.240 . S
C220 O243 1.264 . S
O221 Mn216 2.095 . S
O221 C230 1.250 . S
O222 Mn217 2.121 . S
O222 C230 1.258 . S
C223 N224 1.326 . S
C223 C227 1.460 . S
C223 H229 0.929 . S
N224 Mn217 2.257 . S
N224 C223 1.326 . S
N224 C228 1.362 . S
C225 C226 1.258 . S
C225 C228 1.431 . S
C225 C245 1.449 . S
C226 C225 1.258 . S
C226 C227 1.477 . S
C226 H246 0.931 . S
C227 C223 1.460 . S
C227 C226 1.477 . S
C227 H247 0.930 . S
C228 N224 1.362 . S
C228 C225 1.431 . S
C228 C238 1.476 . S
H229 C223 0.929 . S
C230 O221 1.250 . S
C230 O222 1.258 . S
O231 Mn216 2.162 . S
O231 C219 1.281 . S
O232 Mn216 2.297 . S
O232 C219 1.236 . S
N233 Mn217 2.282 . S
N233 C234 1.328 . S
N233 C238 1.318 . S
C234 N233 1.328 . S
C234 C235 1.457 . S
C234 H239 0.929 . S
C235 C234 1.457 . S
C235 C236 1.291 . S
C235 H248 0.931 . S
C236 C235 1.291 . S
C236 C237 1.373 . S
C236 H249 0.929 . S
C237 C236 1.373 . S
C237 C238 1.396 . S
C237 C244 1.403 . S
C238 C228 1.476 . S
C238 N233 1.318 . S
C238 C237 1.396 . S
H239 C234 0.929 . S
O240 Mn216 2.385 . S
O240 C218 1.234 . S
O241 Mn216 2.209 . S
O241 Mn217 2.215 . S
O241 C218 1.283 . S
O242 Mn216 2.094 . S
O242 C220 1.240 . S
O243 Mn217 2.117 . S
O243 C220 1.264 . S
C244 C237 1.403 . S
C244 C245 1.399 . S
C244 H250 0.929 . S
C245 C225 1.449 . S
C245 C244 1.399 . S
C245 H251 0.930 . S
H246 C226 0.931 . S
H247 C227 0.930 . S
H248 C235 0.931 . S
H249 C236 0.929 . S
H250 C244 0.929 . S
H251 C245 0.930 . S
Mn252 O257 2.095 . S
Mn252 O267 2.162 . S
Mn252 O268 2.297 . S
Mn252 O276 2.385 . S
Mn252 O277 2.209 . S
Mn252 O278 2.094 . S
Mn253 O258 2.121 . S
Mn253 N260 2.257 . S
Mn253 N269 2.282 . S
Mn253 O277 2.215 . S
Mn253 O279 2.117 . S
C254 O276 1.234 . S
C254 O277 1.283 . S
C255 O267 1.281 . S
C255 O268 1.236 . S
C256 O278 1.240 . S
C256 O279 1.264 . S
O257 Mn252 2.095 . S
O257 C266 1.250 . S
O258 Mn253 2.121 . S
O258 C266 1.258 . S
C259 N260 1.326 . S
C259 C263 1.460 . S
C259 H265 0.929 . S
N260 Mn253 2.257 . S
N260 C259 1.326 . S
N260 C264 1.362 . S
C261 C262 1.258 . S
C261 C264 1.431 . S
C261 C281 1.449 . S
C262 C261 1.258 . S
C262 C263 1.477 . S
C262 H282 0.931 . S
C263 C259 1.460 . S
C263 C262 1.477 . S
C263 H283 0.930 . S
C264 N260 1.362 . S
C264 C261 1.431 . S
C264 C274 1.476 . S
H265 C259 0.929 . S
C266 O257 1.250 . S
C266 O258 1.258 . S
O267 Mn252 2.162 . S
O267 C255 1.281 . S
O268 Mn252 2.297 . S
O268 C255 1.236 . S
N269 Mn253 2.282 . S
N269 C270 1.328 . S
N269 C274 1.318 . S
C270 N269 1.328 . S
C270 C271 1.457 . S
C270 H275 0.929 . S
C271 C270 1.457 . S
C271 C272 1.291 . S
C271 H284 0.931 . S
C272 C271 1.291 . S
C272 C273 1.373 . S
C272 H285 0.929 . S
C273 C272 1.373 . S
C273 C274 1.396 . S
C273 C280 1.403 . S
C274 C264 1.476 . S
C274 N269 1.318 . S
C274 C273 1.396 . S
H275 C270 0.929 . S
O276 Mn252 2.385 . S
O276 C254 1.234 . S
O277 Mn252 2.209 . S
O277 Mn253 2.215 . S
O277 C254 1.283 . S
O278 Mn252 2.094 . S
O278 C256 1.240 . S
O279 Mn253 2.117 . S
O279 C256 1.264 . S
C280 C273 1.403 . S
C280 C281 1.399 . S
C280 H286 0.929 . S
C281 C261 1.449 . S
C281 C280 1.399 . S
C281 H287 0.930 . S
H282 C262 0.931 . S
H283 C263 0.930 . S
H284 C271 0.931 . S
H285 C272 0.929 . S
H286 C280 0.929 . S
H287 C281 0.930 . S
Mn288 O293 2.095 . S
Mn288 O303 2.162 . S
Mn288 O304 2.297 . S
Mn288 O312 2.385 . S
Mn288 O313 2.209 . S
Mn288 O314 2.094 . S
Mn289 O294 2.121 . S
Mn289 N296 2.257 . S
Mn289 N305 2.282 . S
Mn289 O313 2.215 . S
Mn289 O315 2.117 . S
C290 O312 1.234 . S
C290 O313 1.283 . S
C291 O303 1.281 . S
C291 O304 1.236 . S
C292 O314 1.240 . S
C292 O315 1.264 . S
O293 Mn288 2.095 . S
O293 C302 1.250 . S
O294 Mn289 2.121 . S
O294 C302 1.258 . S
C295 N296 1.326 . S
C295 C299 1.460 . S
C295 H301 0.929 . S
N296 Mn289 2.257 . S
N296 C295 1.326 . S
N296 C300 1.362 . S
C297 C298 1.258 . S
C297 C300 1.431 . S
C297 C317 1.449 . S
C298 C297 1.258 . S
C298 C299 1.477 . S
C298 H318 0.931 . S
C299 C295 1.460 . S
C299 C298 1.477 . S
C299 H319 0.930 . S
C300 N296 1.362 . S
C300 C297 1.431 . S
C300 C310 1.476 . S
H301 C295 0.929 . S
C302 O293 1.250 . S
C302 O294 1.258 . S
O303 Mn288 2.162 . S
O303 C291 1.281 . S
O304 Mn288 2.297 . S
O304 C291 1.236 . S
N305 Mn289 2.282 . S
N305 C306 1.328 . S
N305 C310 1.318 . S
C306 N305 1.328 . S
C306 C307 1.457 . S
C306 H311 0.929 . S
C307 C306 1.457 . S
C307 C308 1.291 . S
C307 H320 0.931 . S
C308 C307 1.291 . S
C308 C309 1.373 . S
C308 H321 0.929 . S
C309 C308 1.373 . S
C309 C310 1.396 . S
C309 C316 1.403 . S
C310 C300 1.476 . S
C310 N305 1.318 . S
C310 C309 1.396 . S
H311 C306 0.929 . S
O312 Mn288 2.385 . S
O312 C290 1.234 . S
O313 Mn288 2.209 . S
O313 Mn289 2.215 . S
O313 C290 1.283 . S
O314 Mn288 2.094 . S
O314 C292 1.240 . S
O315 Mn289 2.117 . S
O315 C292 1.264 . S
C316 C309 1.403 . S
C316 C317 1.399 . S
C316 H322 0.929 . S
C317 C297 1.449 . S
C317 C316 1.399 . S
C317 H323 0.930 . S
H318 C298 0.931 . S
H319 C299 0.930 . S
H320 C307 0.931 . S
H321 C308 0.929 . S
H322 C316 0.929 . S
H323 C317 0.930 . S
Mn324 O329 2.095 . S
Mn324 O339 2.162 . S
Mn324 O340 2.297 . S
Mn324 O348 2.385 . S
Mn324 O349 2.209 . S
Mn324 O350 2.094 . S
Mn325 O330 2.121 . S
Mn325 N332 2.257 . S
Mn325 N341 2.282 . S
Mn325 O349 2.215 . S
Mn325 O351 2.117 . S
C326 O348 1.234 . S
C326 O349 1.283 . S
C327 O339 1.281 . S
C327 O340 1.236 . S
C328 O350 1.240 . S
C328 O351 1.264 . S
O329 Mn324 2.095 . S
O329 C338 1.250 . S
O330 Mn325 2.121 . S
O330 C338 1.258 . S
C331 N332 1.326 . S
C331 C335 1.460 . S
C331 H337 0.929 . S
N332 Mn325 2.257 . S
N332 C331 1.326 . S
N332 C336 1.362 . S
C333 C334 1.258 . S
C333 C336 1.431 . S
C333 C353 1.449 . S
C334 C333 1.258 . S
C334 C335 1.477 . S
C334 H354 0.931 . S
C335 C331 1.460 . S
C335 C334 1.477 . S
C335 H355 0.930 . S
C336 N332 1.362 . S
C336 C333 1.431 . S
C336 C346 1.476 . S
H337 C331 0.929 . S
C338 O329 1.250 . S
C338 O330 1.258 . S
O339 Mn324 2.162 . S
O339 C327 1.281 . S
O340 Mn324 2.297 . S
O340 C327 1.236 . S
N341 Mn325 2.282 . S
N341 C342 1.328 . S
N341 C346 1.318 . S
C342 N341 1.328 . S
C342 C343 1.457 . S
C342 H347 0.929 . S
C343 C342 1.457 . S
C343 C344 1.291 . S
C343 H356 0.931 . S
C344 C343 1.291 . S
C344 C345 1.373 . S
C344 H357 0.929 . S
C345 C344 1.373 . S
C345 C346 1.396 . S
C345 C352 1.403 . S
C346 C336 1.476 . S
C346 N341 1.318 . S
C346 C345 1.396 . S
H347 C342 0.929 . S
O348 Mn324 2.385 . S
O348 C326 1.234 . S
O349 Mn324 2.209 . S
O349 Mn325 2.215 . S
O349 C326 1.283 . S
O350 Mn324 2.094 . S
O350 C328 1.240 . S
O351 Mn325 2.117 . S
O351 C328 1.264 . S
C352 C345 1.403 . S
C352 C353 1.399 . S
C352 H358 0.929 . S
C353 C333 1.449 . S
C353 C352 1.399 . S
C353 H359 0.930 . S
H354 C334 0.931 . S
H355 C335 0.930 . S
H356 C343 0.931 . S
H357 C344 0.929 . S
H358 C352 0.929 . S
H359 C353 0.930 . S
Mn360 O365 2.095 . S
Mn360 O375 2.162 . S
Mn360 O376 2.297 . S
Mn360 O384 2.385 . S
Mn360 O385 2.209 . S
Mn360 O386 2.094 . S
Mn361 O366 2.121 . S
Mn361 N368 2.257 . S
Mn361 N377 2.282 . S
Mn361 O385 2.215 . S
Mn361 O387 2.117 . S
C362 O384 1.234 . S
C362 O385 1.283 . S
C363 O375 1.281 . S
C363 O376 1.236 . S
C364 O386 1.240 . S
C364 O387 1.264 . S
O365 Mn360 2.095 . S
O365 C374 1.250 . S
O366 Mn361 2.121 . S
O366 C374 1.258 . S
C367 N368 1.326 . S
C367 C371 1.460 . S
C367 H373 0.929 . S
N368 Mn361 2.257 . S
N368 C367 1.326 . S
N368 C372 1.362 . S
C369 C370 1.258 . S
C369 C372 1.431 . S
C369 C389 1.449 . S
C370 C369 1.258 . S
C370 C371 1.477 . S
C370 H390 0.931 . S
C371 C367 1.460 . S
C371 C370 1.477 . S
C371 H391 0.930 . S
C372 N368 1.362 . S
C372 C369 1.431 . S
C372 C382 1.476 . S
H373 C367 0.929 . S
C374 O365 1.250 . S
C374 O366 1.258 . S
O375 Mn360 2.162 . S
O375 C363 1.281 . S
O376 Mn360 2.297 . S
O376 C363 1.236 . S
N377 Mn361 2.282 . S
N377 C378 1.328 . S
N377 C382 1.318 . S
C378 N377 1.328 . S
C378 C379 1.457 . S
C378 H383 0.929 . S
C379 C378 1.457 . S
C379 C380 1.291 . S
C379 H392 0.931 . S
C380 C379 1.291 . S
C380 C381 1.373 . S
C380 H393 0.929 . S
C381 C380 1.373 . S
C381 C382 1.396 . S
C381 C388 1.403 . S
C382 C372 1.476 . S
C382 N377 1.318 . S
C382 C381 1.396 . S
H383 C378 0.929 . S
O384 Mn360 2.385 . S
O384 C362 1.234 . S
O385 Mn360 2.209 . S
O385 Mn361 2.215 . S
O385 C362 1.283 . S
O386 Mn360 2.094 . S
O386 C364 1.240 . S
O387 Mn361 2.117 . S
O387 C364 1.264 . S
C388 C381 1.403 . S
C388 C389 1.399 . S
C388 H394 0.929 . S
C389 C369 1.449 . S
C389 C388 1.399 . S
C389 H395 0.930 . S
H390 C370 0.931 . S
H391 C371 0.930 . S
H392 C379 0.931 . S
H393 C380 0.929 . S
H394 C388 0.929 . S
H395 C389 0.930 . S
Mn396 O401 2.095 . S
Mn396 O411 2.162 . S
Mn396 O412 2.297 . S
Mn396 O420 2.385 . S
Mn396 O421 2.209 . S
Mn396 O422 2.094 . S
Mn397 O402 2.121 . S
Mn397 N404 2.257 . S
Mn397 N413 2.282 . S
Mn397 O421 2.215 . S
Mn397 O423 2.117 . S
C398 O420 1.234 . S
C398 O421 1.283 . S
C399 O411 1.281 . S
C399 O412 1.236 . S
C400 O422 1.240 . S
C400 O423 1.264 . S
O401 Mn396 2.095 . S
O401 C410 1.250 . S
O402 Mn397 2.121 . S
O402 C410 1.258 . S
C403 N404 1.326 . S
C403 C407 1.460 . S
C403 H409 0.929 . S
N404 Mn397 2.257 . S
N404 C403 1.326 . S
N404 C408 1.362 . S
C405 C406 1.258 . S
C405 C408 1.431 . S
C405 C425 1.449 . S
C406 C405 1.258 . S
C406 C407 1.477 . S
C406 H426 0.931 . S
C407 C403 1.460 . S
C407 C406 1.477 . S
C407 H427 0.930 . S
C408 N404 1.362 . S
C408 C405 1.431 . S
C408 C418 1.476 . S
H409 C403 0.929 . S
C410 O401 1.250 . S
C410 O402 1.258 . S
O411 Mn396 2.162 . S
O411 C399 1.281 . S
O412 Mn396 2.297 . S
O412 C399 1.236 . S
N413 Mn397 2.282 . S
N413 C414 1.328 . S
N413 C418 1.318 . S
C414 N413 1.328 . S
C414 C415 1.457 . S
C414 H419 0.929 . S
C415 C414 1.457 . S
C415 C416 1.291 . S
C415 H428 0.931 . S
C416 C415 1.291 . S
C416 C417 1.373 . S
C416 H429 0.929 . S
C417 C416 1.373 . S
C417 C418 1.396 . S
C417 C424 1.403 . S
C418 C408 1.476 . S
C418 N413 1.318 . S
C418 C417 1.396 . S
H419 C414 0.929 . S
O420 Mn396 2.385 . S
O420 C398 1.234 . S
O421 Mn396 2.209 . S
O421 Mn397 2.215 . S
O421 C398 1.283 . S
O422 Mn396 2.094 . S
O422 C400 1.240 . S
O423 Mn397 2.117 . S
O423 C400 1.264 . S
C424 C417 1.403 . S
C424 C425 1.399 . S
C424 H430 0.929 . S
C425 C405 1.449 . S
C425 C424 1.399 . S
C425 H431 0.930 . S
H426 C406 0.931 . S
H427 C407 0.930 . S
H428 C415 0.931 . S
H429 C416 0.929 . S
H430 C424 0.929 . S
H431 C425 0.930 . S
Mn432 O437 2.095 . S
Mn432 O447 2.162 . S
Mn432 O448 2.297 . S
Mn432 O456 2.385 . S
Mn432 O457 2.209 . S
Mn432 O458 2.094 . S
Mn433 O438 2.121 . S
Mn433 N440 2.257 . S
Mn433 N449 2.282 . S
Mn433 O457 2.215 . S
Mn433 O459 2.117 . S
C434 O456 1.234 . S
C434 O457 1.283 . S
C435 O447 1.281 . S
C435 O448 1.236 . S
C436 O458 1.240 . S
C436 O459 1.264 . S
O437 Mn432 2.095 . S
O437 C446 1.250 . S
O438 Mn433 2.121 . S
O438 C446 1.258 . S
C439 N440 1.326 1_556 S
C439 C443 1.460 . S
C439 H445 0.929 . S
N440 Mn433 2.257 . S
N440 C439 1.326 1_554 S
N440 C444 1.362 1_554 S
C441 C442 1.258 . S
C441 C444 1.431 . S
C441 C461 1.449 . S
C442 C441 1.258 . S
C442 C443 1.477 . S
C442 H462 0.931 . S
C443 C439 1.460 . S
C443 C442 1.477 . S
C443 H463 0.930 . S
C444 N440 1.362 1_556 S
C444 C441 1.431 . S
C444 C454 1.476 1_556 S
H445 C439 0.929 . S
C446 O437 1.250 . S
C446 O438 1.258 . S
O447 Mn432 2.162 . S
O447 C435 1.281 . S
O448 Mn432 2.297 . S
O448 C435 1.236 . S
N449 Mn433 2.282 . S
N449 C450 1.328 . S
N449 C454 1.318 . S
C450 N449 1.328 . S
C450 C451 1.457 . S
C450 H455 0.929 . S
C451 C450 1.457 . S
C451 C452 1.291 . S
C451 H464 0.931 . S
C452 C451 1.291 . S
C452 C453 1.373 . S
C452 H465 0.929 . S
C453 C452 1.373 . S
C453 C454 1.396 . S
C453 C460 1.403 1_554 S
C454 C444 1.476 1_554 S
C454 N449 1.318 . S
C454 C453 1.396 . S
H455 C450 0.929 . S
O456 Mn432 2.385 . S
O456 C434 1.234 . S
O457 Mn432 2.209 . S
O457 Mn433 2.215 . S
O457 C434 1.283 . S
O458 Mn432 2.094 . S
O458 C436 1.240 . S
O459 Mn433 2.117 . S
O459 C436 1.264 . S
C460 C453 1.403 1_556 S
C460 C461 1.399 . S
C460 H466 0.929 . S
C461 C441 1.449 . S
C461 C460 1.399 . S
C461 H467 0.930 . S
H462 C442 0.931 . S
H463 C443 0.930 . S
H464 C451 0.931 . S
H465 C452 0.929 . S
H466 C460 0.929 . S
H467 C461 0.930 . S
Mn468 O473 2.095 . S
Mn468 O483 2.162 . S
Mn468 O484 2.297 . S
Mn468 O492 2.385 . S
Mn468 O493 2.209 . S
Mn468 O494 2.094 . S
Mn469 O474 2.121 . S
Mn469 N476 2.257 . S
Mn469 N485 2.282 . S
Mn469 O493 2.215 . S
Mn469 O495 2.117 . S
C470 O492 1.234 . S
C470 O493 1.283 . S
C471 O483 1.281 . S
C471 O484 1.236 . S
C472 O494 1.240 . S
C472 O495 1.264 . S
O473 Mn468 2.095 . S
O473 C482 1.250 . S
O474 Mn469 2.121 . S
O474 C482 1.258 . S
C475 N476 1.326 . S
C475 C479 1.460 . S
C475 H481 0.929 . S
N476 Mn469 2.257 . S
N476 C475 1.326 . S
N476 C480 1.362 . S
C477 C478 1.258 . S
C477 C480 1.431 . S
C477 C497 1.449 . S
C478 C477 1.258 . S
C478 C479 1.477 . S
C478 H498 0.931 . S
C479 C475 1.460 . S
C479 C478 1.477 . S
C479 H499 0.930 . S
C480 N476 1.362 . S
C480 C477 1.431 . S
C480 C490 1.476 . S
H481 C475 0.929 . S
C482 O473 1.250 . S
C482 O474 1.258 . S
O483 Mn468 2.162 . S
O483 C471 1.281 . S
O484 Mn468 2.297 . S
O484 C471 1.236 . S
N485 Mn469 2.282 . S
N485 C486 1.328 . S
N485 C490 1.318 . S
C486 N485 1.328 . S
C486 C487 1.457 . S
C486 H491 0.929 . S
C487 C486 1.457 . S
C487 C488 1.291 . S
C487 H500 0.931 . S
C488 C487 1.291 . S
C488 C489 1.373 . S
C488 H501 0.929 . S
C489 C488 1.373 . S
C489 C490 1.396 . S
C489 C496 1.403 . S
C490 C480 1.476 . S
C490 N485 1.318 . S
C490 C489 1.396 . S
H491 C486 0.929 . S
O492 Mn468 2.385 . S
O492 C470 1.234 . S
O493 Mn468 2.209 . S
O493 Mn469 2.215 . S
O493 C470 1.283 . S
O494 Mn468 2.094 . S
O494 C472 1.240 . S
O495 Mn469 2.117 . S
O495 C472 1.264 . S
C496 C489 1.403 . S
C496 C497 1.399 . S
C496 H502 0.929 . S
C497 C477 1.449 . S
C497 C496 1.399 . S
C497 H503 0.930 . S
H498 C478 0.931 . S
H499 C479 0.930 . S
H500 C487 0.931 . S
H501 C488 0.929 . S
H502 C496 0.929 . S
H503 C497 0.930 . S
Mn504 O509 2.095 . S
Mn504 O519 2.162 . S
Mn504 O520 2.297 . S
Mn504 O528 2.385 . S
Mn504 O529 2.209 . S
Mn504 O530 2.094 . S
Mn505 O510 2.121 . S
Mn505 N512 2.257 . S
Mn505 N521 2.282 . S
Mn505 O529 2.215 . S
Mn505 O531 2.117 . S
C506 O528 1.234 . S
C506 O529 1.283 . S
C507 O519 1.281 . S
C507 O520 1.236 . S
C508 O530 1.240 . S
C508 O531 1.264 . S
O509 Mn504 2.095 . S
O509 C518 1.250 . S
O510 Mn505 2.121 . S
O510 C518 1.258 . S
C511 N512 1.326 . S
C511 C515 1.460 . S
C511 H517 0.929 . S
N512 Mn505 2.257 . S
N512 C511 1.326 . S
N512 C516 1.362 . S
C513 C514 1.258 . S
C513 C516 1.431 . S
C513 C533 1.449 . S
C514 C513 1.258 . S
C514 C515 1.477 . S
C514 H534 0.931 . S
C515 C511 1.460 . S
C515 C514 1.477 . S
C515 H535 0.930 . S
C516 N512 1.362 . S
C516 C513 1.431 . S
C516 C526 1.476 . S
H517 C511 0.929 . S
C518 O509 1.250 . S
C518 O510 1.258 . S
O519 Mn504 2.162 . S
O519 C507 1.281 . S
O520 Mn504 2.297 . S
O520 C507 1.236 . S
N521 Mn505 2.282 . S
N521 C522 1.328 . S
N521 C526 1.318 . S
C522 N521 1.328 . S
C522 C523 1.457 . S
C522 H527 0.929 . S
C523 C522 1.457 . S
C523 C524 1.291 . S
C523 H536 0.931 . S
C524 C523 1.291 . S
C524 C525 1.373 . S
C524 H537 0.929 . S
C525 C524 1.373 . S
C525 C526 1.396 . S
C525 C532 1.403 . S
C526 C516 1.476 . S
C526 N521 1.318 . S
C526 C525 1.396 . S
H527 C522 0.929 . S
O528 Mn504 2.385 . S
O528 C506 1.234 . S
O529 Mn504 2.209 . S
O529 Mn505 2.215 . S
O529 C506 1.283 . S
O530 Mn504 2.094 . S
O530 C508 1.240 . S
O531 Mn505 2.117 . S
O531 C508 1.264 . S
C532 C525 1.403 . S
C532 C533 1.399 . S
C532 H538 0.929 . S
C533 C513 1.449 . S
C533 C532 1.399 . S
C533 H539 0.930 . S
H534 C514 0.931 . S
H535 C515 0.930 . S
H536 C523 0.931 . S
H537 C524 0.929 . S
H538 C532 0.929 . S
H539 C533 0.930 . S
Mn540 O545 2.095 . S
Mn540 O555 2.162 . S
Mn540 O556 2.297 . S
Mn540 O564 2.385 . S
Mn540 O565 2.209 . S
Mn540 O566 2.094 . S
Mn541 O546 2.121 . S
Mn541 N548 2.257 . S
Mn541 N557 2.282 . S
Mn541 O565 2.215 . S
Mn541 O567 2.117 . S
C542 O564 1.234 . S
C542 O565 1.283 . S
C543 O555 1.281 . S
C543 O556 1.236 . S
C544 O566 1.240 . S
C544 O567 1.264 . S
O545 Mn540 2.095 . S
O545 C554 1.250 . S
O546 Mn541 2.121 . S
O546 C554 1.258 . S
C547 N548 1.326 . S
C547 C551 1.460 . S
C547 H553 0.929 . S
N548 Mn541 2.257 . S
N548 C547 1.326 . S
N548 C552 1.362 . S
C549 C550 1.258 . S
C549 C552 1.431 . S
C549 C569 1.449 . S
C550 C549 1.258 . S
C550 C551 1.477 . S
C550 H570 0.931 . S
C551 C547 1.460 . S
C551 C550 1.477 . S
C551 H571 0.930 . S
C552 N548 1.362 . S
C552 C549 1.431 . S
C552 C562 1.476 . S
H553 C547 0.929 . S
C554 O545 1.250 . S
C554 O546 1.258 . S
O555 Mn540 2.162 . S
O555 C543 1.281 . S
O556 Mn540 2.297 . S
O556 C543 1.236 . S
N557 Mn541 2.282 . S
N557 C558 1.328 . S
N557 C562 1.318 . S
C558 N557 1.328 . S
C558 C559 1.457 . S
C558 H563 0.929 . S
C559 C558 1.457 . S
C559 C560 1.291 . S
C559 H572 0.931 . S
C560 C559 1.291 . S
C560 C561 1.373 . S
C560 H573 0.929 . S
C561 C560 1.373 . S
C561 C562 1.396 . S
C561 C568 1.403 . S
C562 C552 1.476 . S
C562 N557 1.318 . S
C562 C561 1.396 . S
H563 C558 0.929 . S
O564 Mn540 2.385 . S
O564 C542 1.234 . S
O565 Mn540 2.209 . S
O565 Mn541 2.215 . S
O565 C542 1.283 . S
O566 Mn540 2.094 . S
O566 C544 1.240 . S
O567 Mn541 2.117 . S
O567 C544 1.264 . S
C568 C561 1.403 . S
C568 C569 1.399 . S
C568 H574 0.929 . S
C569 C549 1.449 . S
C569 C568 1.399 . S
C569 H575 0.930 . S
H570 C550 0.931 . S
H571 C551 0.930 . S
H572 C559 0.931 . S
H573 C560 0.929 . S
H574 C568 0.929 . S
H575 C569 0.930 . S
H576 C582 0.930 . S
H577 C586 0.930 . S
H578 C591 0.929 . S
H579 C589 0.929 . S
H580 C584 0.929 . S
H581 C590 0.929 . S
C582 H576 0.930 . S
C582 C583 1.367 . S
C582 C590 1.378 . S
C583 C582 1.367 . S
C583 C591 1.433 . S
C584 H580 0.929 . S
C584 C586 1.378 . S
C584 C588 1.350 . S
C585 C588 1.463 . S
C585 C590 1.350 . S
C585 N593 1.427 . S
C586 H577 0.930 . S
C586 C584 1.378 . S
C586 C587 1.367 . S
C587 C586 1.367 . S
C587 C589 1.433 . S
C588 C584 1.350 . S
C588 C585 1.463 . S
C588 N592 1.427 . S
C589 H579 0.929 . S
C589 C587 1.433 . S
C589 N592 1.384 . S
C590 H581 0.929 . S
C590 C582 1.378 . S
C590 C585 1.350 . S
C591 H578 0.929 . S
C591 C583 1.433 . S
C591 N593 1.384 . S
N592 C588 1.427 . S
N592 C589 1.384 . S
N593 C585 1.427 . S
N593 C591 1.384 . S
H594 C600 0.930 . S
H595 C604 0.930 . S
H596 C609 0.929 . S
H597 C607 0.929 . S
H598 C602 0.929 . S
H599 C608 0.929 . S
C600 H594 0.930 . S
C600 C601 1.367 . S
C600 C608 1.378 . S
C601 C600 1.367 . S
C601 C609 1.433 . S
C602 H598 0.929 . S
C602 C604 1.378 . S
C602 C606 1.350 . S
C603 C606 1.463 . S
C603 C608 1.350 . S
C603 N611 1.427 . S
C604 H595 0.930 . S
C604 C602 1.378 . S
C604 C605 1.367 . S
C605 C604 1.367 . S
C605 C607 1.433 . S
C606 C602 1.350 . S
C606 C603 1.463 . S
C606 N610 1.427 . S
C607 H597 0.929 . S
C607 C605 1.433 . S
C607 N610 1.384 . S
C608 H599 0.929 . S
C608 C600 1.378 . S
C608 C603 1.350 . S
C609 H596 0.929 . S
C609 C601 1.433 . S
C609 N611 1.384 . S
N610 C606 1.427 . S
N610 C607 1.384 . S
N611 C603 1.427 . S
N611 C609 1.384 . S
H612 C618 0.930 . S
H613 C622 0.930 . S
H614 C627 0.929 . S
H615 C625 0.929 . S
H616 C620 0.929 . S
H617 C626 0.929 . S
C618 H612 0.930 . S
C618 C619 1.367 . S
C618 C626 1.378 . S
C619 C618 1.367 . S
C619 C627 1.433 . S
C620 H616 0.929 . S
C620 C622 1.378 . S
C620 C624 1.350 . S
C621 C624 1.463 . S
C621 C626 1.350 . S
C621 N629 1.427 . S
C622 H613 0.930 . S
C622 C620 1.378 . S
C622 C623 1.367 . S
C623 C622 1.367 . S
C623 C625 1.433 . S
C624 C620 1.350 . S
C624 C621 1.463 . S
C624 N628 1.427 . S
C625 H615 0.929 . S
C625 C623 1.433 . S
C625 N628 1.384 . S
C626 H617 0.929 . S
C626 C618 1.378 . S
C626 C621 1.350 . S
C627 H614 0.929 . S
C627 C619 1.433 . S
C627 N629 1.384 . S
N628 C624 1.427 . S
N628 C625 1.384 . S
N629 C621 1.427 . S
N629 C627 1.384 . S
H630 C636 0.930 . S
H631 C640 0.930 . S
H632 C645 0.929 . S
H633 C643 0.929 . S
H634 C638 0.929 . S
H635 C644 0.929 . S
C636 H630 0.930 . S
C636 C637 1.367 . S
C636 C644 1.378 . S
C637 C636 1.367 . S
C637 C645 1.433 . S
C638 H634 0.929 . S
C638 C640 1.378 . S
C638 C642 1.350 . S
C639 C642 1.463 1_455 S
C639 C644 1.350 . S
C639 N647 1.427 . S
C640 H631 0.930 . S
C640 C638 1.378 . S
C640 C641 1.367 . S
C641 C640 1.367 . S
C641 C643 1.433 . S
C642 C638 1.350 . S
C642 C639 1.463 1_655 S
C642 N646 1.427 . S
C643 H633 0.929 . S
C643 C641 1.433 . S
C643 N646 1.384 . S
C644 H635 0.929 . S
C644 C636 1.378 . S
C644 C639 1.350 . S
C645 H632 0.929 . S
C645 C637 1.433 . S
C645 N647 1.384 . S
N646 C642 1.427 . S
N646 C643 1.384 . S
N647 C639 1.427 . S
N647 C645 1.384 . S
H648 C654 0.930 . S
H649 C658 0.930 . S
H650 C663 0.929 . S
H651 C661 0.929 . S
H652 C656 0.929 . S
H653 C662 0.929 . S
C654 H648 0.930 . S
C654 C655 1.367 . S
C654 C662 1.378 . S
C655 C654 1.367 . S
C655 C663 1.433 . S
C656 H652 0.929 . S
C656 C658 1.378 . S
C656 C660 1.350 . S
C657 C660 1.463 . S
C657 C662 1.350 . S
C657 N665 1.427 . S
C658 H649 0.930 . S
C658 C656 1.378 . S
C658 C659 1.367 . S
C659 C658 1.367 . S
C659 C661 1.433 . S
C660 C656 1.350 . S
C660 C657 1.463 . S
C660 N664 1.427 . S
C661 H651 0.929 . S
C661 C659 1.433 . S
C661 N664 1.384 . S
C662 H653 0.929 . S
C662 C654 1.378 . S
C662 C657 1.350 . S
C663 H650 0.929 . S
C663 C655 1.433 . S
C663 N665 1.384 . S
N664 C660 1.427 . S
N664 C661 1.384 . S
N665 C657 1.427 . S
N665 C663 1.384 . S
H666 C672 0.930 . S
H667 C676 0.930 . S
H668 C681 0.929 . S
H669 C679 0.929 . S
H670 C674 0.929 . S
H671 C680 0.929 . S
C672 H666 0.930 . S
C672 C673 1.367 . S
C672 C680 1.378 . S
C673 C672 1.367 . S
C673 C681 1.433 . S
C674 H670 0.929 . S
C674 C676 1.378 . S
C674 C678 1.350 . S
C675 C678 1.463 1_655 S
C675 C680 1.350 . S
C675 N683 1.427 . S
C676 H667 0.930 . S
C676 C674 1.378 . S
C676 C677 1.367 . S
C677 C676 1.367 . S
C677 C679 1.433 . S
C678 C674 1.350 . S
C678 C675 1.463 1_455 S
C678 N682 1.427 . S
C679 H669 0.929 . S
C679 C677 1.433 . S
C679 N682 1.384 . S
C680 H671 0.929 . S
C680 C672 1.378 . S
C680 C675 1.350 . S
C681 H668 0.929 . S
C681 C673 1.433 . S
C681 N683 1.384 . S
N682 C678 1.427 . S
N682 C679 1.384 . S
N683 C675 1.427 . S
N683 C681 1.384 . S
H684 C690 0.930 . S
H685 C694 0.930 . S
H686 C699 0.929 . S
H687 C697 0.929 . S
H688 C692 0.929 . S
H689 C698 0.929 . S
C690 H684 0.930 . S
C690 C691 1.367 . S
C690 C698 1.378 . S
C691 C690 1.367 . S
C691 C699 1.433 . S
C692 H688 0.929 . S
C692 C694 1.378 . S
C692 C696 1.350 . S
C693 C696 1.463 . S
C693 C698 1.350 . S
C693 N701 1.427 . S
C694 H685 0.930 . S
C694 C692 1.378 . S
C694 C695 1.367 . S
C695 C694 1.367 . S
C695 C697 1.433 . S
C696 C692 1.350 . S
C696 C693 1.463 . S
C696 N700 1.427 . S
C697 H687 0.929 . S
C697 C695 1.433 . S
C697 N700 1.384 . S
C698 H689 0.929 . S
C698 C690 1.378 . S
C698 C693 1.350 . S
C699 H686 0.929 . S
C699 C691 1.433 . S
C699 N701 1.384 . S
N700 C696 1.427 . S
N700 C697 1.384 . S
N701 C693 1.427 . S
N701 C699 1.384 . S
H702 C708 0.930 . S
H703 C712 0.930 . S
H704 C717 0.929 . S
H705 C715 0.929 . S
H706 C710 0.929 . S
H707 C716 0.929 . S
C708 H702 0.930 . S
C708 C709 1.367 . S
C708 C716 1.378 . S
C709 C708 1.367 . S
C709 C717 1.433 . S
C710 H706 0.929 . S
C710 C712 1.378 . S
C710 C714 1.350 . S
C711 C714 1.463 . S
C711 C716 1.350 . S
C711 N719 1.427 . S
C712 H703 0.930 . S
C712 C710 1.378 . S
C712 C713 1.367 . S
C713 C712 1.367 . S
C713 C715 1.433 . S
C714 C710 1.350 . S
C714 C711 1.463 . S
C714 N718 1.427 . S
C715 H705 0.929 . S
C715 C713 1.433 . S
C715 N718 1.384 . S
C716 H707 0.929 . S
C716 C708 1.378 . S
C716 C711 1.350 . S
C717 H704 0.929 . S
C717 C709 1.433 . S
C717 N719 1.384 . S
N718 C714 1.427 . S
N718 C715 1.384 . S
N719 C711 1.427 . S
N719 C717 1.384 . S
H720 C726 0.930 . S
H721 C730 0.930 . S
H722 C735 0.929 . S
H723 C733 0.929 . S
H724 C728 0.929 . S
H725 C734 0.929 . S
C726 H720 0.930 . S
C726 C727 1.367 . S
C726 C734 1.378 . S
C727 C726 1.367 . S
C727 C735 1.433 . S
C728 H724 0.929 . S
C728 C730 1.378 . S
C728 C732 1.350 . S
C729 C732 1.463 . S
C729 C734 1.350 . S
C729 N737 1.427 . S
C730 H721 0.930 . S
C730 C728 1.378 . S
C730 C731 1.367 . S
C731 C730 1.367 . S
C731 C733 1.433 . S
C732 C728 1.350 . S
C732 C729 1.463 . S
C732 N736 1.427 . S
C733 H723 0.929 . S
C733 C731 1.433 . S
C733 N736 1.384 . S
C734 H725 0.929 . S
C734 C726 1.378 . S
C734 C729 1.350 . S
C735 H722 0.929 . S
C735 C727 1.433 . S
C735 N737 1.384 . S
N736 C732 1.427 . S
N736 C733 1.384 . S
N737 C729 1.427 . S
N737 C735 1.384 . S
H738 C744 0.930 . S
H739 C748 0.930 . S
H740 C753 0.929 . S
H741 C751 0.929 . S
H742 C746 0.929 . S
H743 C752 0.929 . S
C744 H738 0.930 . S
C744 C745 1.367 . S
C744 C752 1.378 . S
C745 C744 1.367 . S
C745 C753 1.433 . S
C746 H742 0.929 . S
C746 C748 1.378 . S
C746 C750 1.350 . S
C747 C750 1.463 . S
C747 C752 1.350 . S
C747 N755 1.427 . S
C748 H739 0.930 . S
C748 C746 1.378 . S
C748 C749 1.367 . S
C749 C748 1.367 . S
C749 C751 1.433 . S
C750 C746 1.350 . S
C750 C747 1.463 . S
C750 N754 1.427 . S
C751 H741 0.929 . S
C751 C749 1.433 . S
C751 N754 1.384 . S
C752 H743 0.929 . S
C752 C744 1.378 . S
C752 C747 1.350 . S
C753 H740 0.929 . S
C753 C745 1.433 . S
C753 N755 1.384 . S
N754 C750 1.427 . S
N754 C751 1.384 . S
N755 C747 1.427 . S
N755 C753 1.384 . S
H756 C762 0.930 . S
H757 C766 0.930 . S
H758 C771 0.929 . S
H759 C769 0.929 . S
H760 C764 0.929 . S
H761 C770 0.929 . S
C762 H756 0.930 . S
C762 C763 1.367 . S
C762 C770 1.378 . S
C763 C762 1.367 . S
C763 C771 1.433 . S
C764 H760 0.929 . S
C764 C766 1.378 . S
C764 C768 1.350 . S
C765 C768 1.463 . S
C765 C770 1.350 . S
C765 N773 1.427 . S
C766 H757 0.930 . S
C766 C764 1.378 . S
C766 C767 1.367 . S
C767 C766 1.367 . S
C767 C769 1.433 . S
C768 C764 1.350 . S
C768 C765 1.463 . S
C768 N772 1.427 . S
C769 H759 0.929 . S
C769 C767 1.433 . S
C769 N772 1.384 . S
C770 H761 0.929 . S
C770 C762 1.378 . S
C770 C765 1.350 . S
C771 H758 0.929 . S
C771 C763 1.433 . S
C771 N773 1.384 . S
N772 C768 1.427 . S
N772 C769 1.384 . S
N773 C765 1.427 . S
N773 C771 1.384 . S
H774 C780 0.930 . S
H775 C784 0.930 . S
H776 C789 0.929 . S
H777 C787 0.929 . S
H778 C782 0.929 . S
H779 C788 0.929 . S
C780 H774 0.930 . S
C780 C781 1.367 . S
C780 C788 1.378 . S
C781 C780 1.367 . S
C781 C789 1.433 . S
C782 H778 0.929 . S
C782 C784 1.378 . S
C782 C786 1.350 . S
C783 C786 1.463 . S
C783 C788 1.350 . S
C783 N791 1.427 . S
C784 H775 0.930 . S
C784 C782 1.378 . S
C784 C785 1.367 . S
C785 C784 1.367 . S
C785 C787 1.433 . S
C786 C782 1.350 . S
C786 C783 1.463 . S
C786 N790 1.427 . S
C787 H777 0.929 . S
C787 C785 1.433 . S
C787 N790 1.384 . S
C788 H779 0.929 . S
C788 C780 1.378 . S
C788 C783 1.350 . S
C789 H776 0.929 . S
C789 C781 1.433 . S
C789 N791 1.384 . S
N790 C786 1.427 . S
N790 C787 1.384 . S
N791 C783 1.427 . S
N791 C789 1.384 . S
H792 C798 0.930 . S
H793 C802 0.930 . S
H794 C807 0.929 . S
H795 C805 0.929 . S
H796 C800 0.929 . S
H797 C806 0.929 . S
C798 H792 0.930 . S
C798 C799 1.367 . S
C798 C806 1.378 . S
C799 C798 1.367 . S
C799 C807 1.433 . S
C800 H796 0.929 . S
C800 C802 1.378 . S
C800 C804 1.350 . S
C801 C804 1.463 1_455 S
C801 C806 1.350 . S
C801 N809 1.427 . S
C802 H793 0.930 . S
C802 C800 1.378 . S
C802 C803 1.367 . S
C803 C802 1.367 . S
C803 C805 1.433 . S
C804 C800 1.350 . S
C804 C801 1.463 1_655 S
C804 N808 1.427 . S
C805 H795 0.929 . S
C805 C803 1.433 . S
C805 N808 1.384 . S
C806 H797 0.929 . S
C806 C798 1.378 . S
C806 C801 1.350 . S
C807 H794 0.929 . S
C807 C799 1.433 . S
C807 N809 1.384 . S
N808 C804 1.427 . S
N808 C805 1.384 . S
N809 C801 1.427 . S
N809 C807 1.384 . S
H810 C816 0.930 . S
H811 C820 0.930 . S
H812 C825 0.929 . S
H813 C823 0.929 . S
H814 C818 0.929 . S
H815 C824 0.929 . S
C816 H810 0.930 . S
C816 C817 1.367 . S
C816 C824 1.378 . S
C817 C816 1.367 . S
C817 C825 1.433 . S
C818 H814 0.929 . S
C818 C820 1.378 . S
C818 C822 1.350 . S
C819 C822 1.463 . S
C819 C824 1.350 . S
C819 N827 1.427 . S
C820 H811 0.930 . S
C820 C818 1.378 . S
C820 C821 1.367 . S
C821 C820 1.367 . S
C821 C823 1.433 . S
C822 C818 1.350 . S
C822 C819 1.463 . S
C822 N826 1.427 . S
C823 H813 0.929 . S
C823 C821 1.433 . S
C823 N826 1.384 . S
C824 H815 0.929 . S
C824 C816 1.378 . S
C824 C819 1.350 . S
C825 H812 0.929 . S
C825 C817 1.433 . S
C825 N827 1.384 . S
N826 C822 1.427 . S
N826 C823 1.384 . S
N827 C819 1.427 . S
N827 C825 1.384 . S
H828 C834 0.930 . S
H829 C838 0.930 . S
H830 C843 0.929 . S
H831 C841 0.929 . S
H832 C836 0.929 . S
H833 C842 0.929 . S
C834 H828 0.930 . S
C834 C835 1.367 . S
C834 C842 1.378 . S
C835 C834 1.367 . S
C835 C843 1.433 . S
C836 H832 0.929 . S
C836 C838 1.378 . S
C836 C840 1.350 . S
C837 C840 1.463 . S
C837 C842 1.350 . S
C837 N845 1.427 . S
C838 H829 0.930 . S
C838 C836 1.378 . S
C838 C839 1.367 . S
C839 C838 1.367 . S
C839 C841 1.433 . S
C840 C836 1.350 . S
C840 C837 1.463 . S
C840 N844 1.427 . S
C841 H831 0.929 . S
C841 C839 1.433 . S
C841 N844 1.384 . S
C842 H833 0.929 . S
C842 C834 1.378 . S
C842 C837 1.350 . S
C843 H830 0.929 . S
C843 C835 1.433 . S
C843 N845 1.384 . S
N844 C840 1.427 . S
N844 C841 1.384 . S
N845 C837 1.427 . S
N845 C843 1.384 . S
H846 C852 0.930 . S
H847 C856 0.930 . S
H848 C861 0.929 . S
H849 C859 0.929 . S
H850 C854 0.929 . S
H851 C860 0.929 . S
C852 H846 0.930 . S
C852 C853 1.367 . S
C852 C860 1.378 . S
C853 C852 1.367 . S
C853 C861 1.433 . S
C854 H850 0.929 . S
C854 C856 1.378 . S
C854 C858 1.350 . S
C855 C858 1.463 1_455 S
C855 C860 1.350 . S
C855 N863 1.427 . S
C856 H847 0.930 . S
C856 C854 1.378 . S
C856 C857 1.367 . S
C857 C856 1.367 . S
C857 C859 1.433 . S
C858 C854 1.350 . S
C858 C855 1.463 1_655 S
C858 N862 1.427 . S
C859 H849 0.929 . S
C859 C857 1.433 . S
C859 N862 1.384 . S
C860 H851 0.929 . S
C860 C852 1.378 . S
C860 C855 1.350 . S
C861 H848 0.929 . S
C861 C853 1.433 . S
C861 N863 1.384 . S
N862 C858 1.427 . S
N862 C859 1.384 . S
N863 C855 1.427 . S
N863 C861 1.384 . S
H864 C870 0.930 . S
H865 C874 0.930 . S
H866 C879 0.929 . S
H867 C877 0.929 . S
H868 C872 0.929 1_554 S
H869 C878 0.929 . S
C870 H864 0.930 . S
C870 C871 1.367 . S
C870 C878 1.378 1_554 S
C871 C870 1.367 . S
C871 C879 1.433 . S
C872 H868 0.929 1_556 S
C872 C874 1.378 . S
C872 C876 1.350 . S
C873 C876 1.463 1_554 S
C873 C878 1.350 1_554 S
C873 N881 1.427 . S
C874 H865 0.930 . S
C874 C872 1.378 . S
C874 C875 1.367 . S
C875 C874 1.367 . S
C875 C877 1.433 . S
C876 C872 1.350 . S
C876 C873 1.463 1_556 S
C876 N880 1.427 . S
C877 H867 0.929 . S
C877 C875 1.433 . S
C877 N880 1.384 . S
C878 H869 0.929 . S
C878 C870 1.378 1_556 S
C878 C873 1.350 1_556 S
C879 H866 0.929 . S
C879 C871 1.433 . S
C879 N881 1.384 . S
N880 C876 1.427 . S
N880 C877 1.384 . S
N881 C873 1.427 . S
N881 C879 1.384 . S
H882 C888 0.930 . S
H883 C892 0.930 . S
H884 C897 0.929 . S
H885 C895 0.929 . S
H886 C890 0.929 . S
H887 C896 0.929 . S
C888 H882 0.930 . S
C888 C889 1.367 . S
C888 C896 1.378 . S
C889 C888 1.367 . S
C889 C897 1.433 . S
C890 H886 0.929 . S
C890 C892 1.378 . S
C890 C894 1.350 . S
C891 C894 1.463 . S
C891 C896 1.350 . S
C891 N899 1.427 . S
C892 H883 0.930 . S
C892 C890 1.378 . S
C892 C893 1.367 . S
C893 C892 1.367 . S
C893 C895 1.433 . S
C894 C890 1.350 . S
C894 C891 1.463 . S
C894 N898 1.427 . S
C895 H885 0.929 . S
C895 C893 1.433 . S
C895 N898 1.384 . S
C896 H887 0.929 . S
C896 C888 1.378 . S
C896 C891 1.350 . S
C897 H884 0.929 . S
C897 C889 1.433 . S
C897 N899 1.384 . S
N898 C894 1.427 . S
N898 C895 1.384 . S
N899 C891 1.427 . S
N899 C897 1.384 . S
H900 C906 0.930 . S
H901 C910 0.930 . S
H902 C915 0.929 . S
H903 C913 0.929 . S
H904 C908 0.929 . S
H905 C914 0.929 . S
C906 H900 0.930 . S
C906 C907 1.367 . S
C906 C914 1.378 . S
C907 C906 1.367 . S
C907 C915 1.433 . S
C908 H904 0.929 . S
C908 C910 1.378 . S
C908 C912 1.350 . S
C909 C912 1.463 . S
C909 C914 1.350 . S
C909 N917 1.427 . S
C910 H901 0.930 . S
C910 C908 1.378 . S
C910 C911 1.367 . S
C911 C910 1.367 . S
C911 C913 1.433 . S
C912 C908 1.350 . S
C912 C909 1.463 . S
C912 N916 1.427 . S
C913 H903 0.929 . S
C913 C911 1.433 . S
C913 N916 1.384 . S
C914 H905 0.929 . S
C914 C906 1.378 . S
C914 C909 1.350 . S
C915 H902 0.929 . S
C915 C907 1.433 . S
C915 N917 1.384 . S
N916 C912 1.427 . S
N916 C913 1.384 . S
N917 C909 1.427 . S
N917 C915 1.384 . S
H918 C924 0.930 . S
H919 C928 0.930 . S
H920 C933 0.929 . S
H921 C931 0.929 . S
H922 C926 0.929 . S
H923 C932 0.929 . S
C924 H918 0.930 . S
C924 C925 1.367 . S
C924 C932 1.378 . S
C925 C924 1.367 . S
C925 C933 1.433 . S
C926 H922 0.929 . S
C926 C928 1.378 . S
C926 C930 1.350 . S
C927 C930 1.463 . S
C927 C932 1.350 . S
C927 N935 1.427 . S
C928 H919 0.930 . S
C928 C926 1.378 . S
C928 C929 1.367 . S
C929 C928 1.367 . S
C929 C931 1.433 . S
C930 C926 1.350 . S
C930 C927 1.463 . S
C930 N934 1.427 . S
C931 H921 0.929 . S
C931 C929 1.433 . S
C931 N934 1.384 . S
C932 H923 0.929 . S
C932 C924 1.378 . S
C932 C927 1.350 . S
C933 H920 0.929 . S
C933 C925 1.433 . S
C933 N935 1.384 . S
N934 C930 1.427 . S
N934 C931 1.384 . S
N935 C927 1.427 . S
N935 C933 1.384 . S
H936 C942 0.930 1_554 S
H937 C946 0.930 . S
H938 C951 0.929 . S
H939 C949 0.929 . S
H940 C944 0.929 1_556 S
H941 C950 0.929 . S
C942 H936 0.930 1_556 S
C942 C943 1.367 . S
C942 C950 1.378 1_556 S
C943 C942 1.367 . S
C943 C951 1.433 . S
C944 H940 0.929 1_554 S
C944 C946 1.378 . S
C944 C948 1.350 . S
C945 C948 1.463 . S
C945 C950 1.350 . S
C945 N953 1.427 1_554 S
C946 H937 0.930 . S
C946 C944 1.378 . S
C946 C947 1.367 . S
C947 C946 1.367 . S
C947 C949 1.433 . S
C948 C944 1.350 . S
C948 C945 1.463 . S
C948 N952 1.427 . S
C949 H939 0.929 . S
C949 C947 1.433 . S
C949 N952 1.384 . S
C950 H941 0.929 . S
C950 C942 1.378 1_554 S
C950 C945 1.350 . S
C951 H938 0.929 . S
C951 C943 1.433 . S
C951 N953 1.384 . S
N952 C948 1.427 . S
N952 C949 1.384 . S
N953 C945 1.427 1_556 S
N953 C951 1.384 . S
H954 C960 0.930 . S
H955 C964 0.930 . S
H956 C969 0.929 . S
H957 C967 0.929 . S
H958 C962 0.929 . S
H959 C968 0.929 . S
C960 H954 0.930 . S
C960 C961 1.367 . S
C960 C968 1.378 . S
C961 C960 1.367 . S
C961 C969 1.433 . S
C962 H958 0.929 . S
C962 C964 1.378 . S
C962 C966 1.350 . S
C963 C966 1.463 . S
C963 C968 1.350 . S
C963 N971 1.427 . S
C964 H955 0.930 . S
C964 C962 1.378 . S
C964 C965 1.367 . S
C965 C964 1.367 . S
C965 C967 1.433 . S
C966 C962 1.350 . S
C966 C963 1.463 . S
C966 N970 1.427 . S
C967 H957 0.929 . S
C967 C965 1.433 . S
C967 N970 1.384 . S
C968 H959 0.929 . S
C968 C960 1.378 . S
C968 C963 1.350 . S
C969 H956 0.929 . S
C969 C961 1.433 . S
C969 N971 1.384 . S
N970 C966 1.427 . S
N970 C967 1.384 . S
N971 C963 1.427 . S
N971 C969 1.384 . S
H972 C978 0.930 . S
H973 C982 0.930 . S
H974 C987 0.929 . S
H975 C985 0.929 . S
H976 C980 0.929 . S
H977 C986 0.929 . S
C978 H972 0.930 . S
C978 C979 1.367 . S
C978 C986 1.378 . S
C979 C978 1.367 . S
C979 C987 1.433 . S
C980 H976 0.929 . S
C980 C982 1.378 . S
C980 C984 1.350 . S
C981 C984 1.463 . S
C981 C986 1.350 . S
C981 N989 1.427 . S
C982 H973 0.930 . S
C982 C980 1.378 . S
C982 C983 1.367 . S
C983 C982 1.367 . S
C983 C985 1.433 . S
C984 C980 1.350 . S
C984 C981 1.463 . S
C984 N988 1.427 . S
C985 H975 0.929 . S
C985 C983 1.433 . S
C985 N988 1.384 . S
C986 H977 0.929 . S
C986 C978 1.378 . S
C986 C981 1.350 . S
C987 H974 0.929 . S
C987 C979 1.433 . S
C987 N989 1.384 . S
N988 C984 1.427 . S
N988 C985 1.384 . S
N989 C981 1.427 . S
N989 C987 1.384 . S
H990 C996 0.930 . S
H991 C1000 0.930 . S
H992 C1005 0.929 . S
H993 C1003 0.929 . S
H994 C998 0.929 . S
H995 C1004 0.929 . S
C996 H990 0.930 . S
C996 C997 1.367 . S
C996 C1004 1.378 . S
C997 C996 1.367 . S
C997 C1005 1.433 . S
C998 H994 0.929 . S
C998 C1000 1.378 . S
C998 C1002 1.350 . S
C999 C1002 1.463 . S
C999 C1004 1.350 . S
C999 N1007 1.427 . S
C1000 H991 0.930 . S
C1000 C998 1.378 . S
C1000 C1001 1.367 . S
C1001 C1000 1.367 . S
C1001 C1003 1.433 . S
C1002 C998 1.350 . S
C1002 C999 1.463 . S
C1002 N1006 1.427 . S
C1003 H993 0.929 . S
C1003 C1001 1.433 . S
C1003 N1006 1.384 . S
C1004 H995 0.929 . S
C1004 C996 1.378 . S
C1004 C999 1.350 . S
C1005 H992 0.929 . S
C1005 C997 1.433 . S
C1005 N1007 1.384 . S
N1006 C1002 1.427 . S
N1006 C1003 1.384 . S
N1007 C999 1.427 . S
N1007 C1005 1.384 . S
H1008 C1014 0.930 . S
H1009 C1018 0.930 . S
H1010 C1023 0.929 . S
H1011 C1021 0.929 . S
H1012 C1016 0.944 . S
H1013 C1022 0.929 1_565 S
C1014 H1008 0.930 . S
C1014 C1015 1.367 . S
C1014 C1022 1.378 . S
C1015 C1014 1.367 . S
C1015 C1023 1.433 . S
C1016 H1012 0.944 . S
C1016 C1018 1.378 . S
C1016 C1020 1.350 . S
C1017 C1020 1.463 1_545 S
C1017 C1022 1.350 . S
C1017 N1025 1.427 . S
C1018 H1009 0.930 . S
C1018 C1016 1.378 . S
C1018 C1019 1.367 . S
C1019 C1018 1.367 . S
C1019 C1021 1.433 . S
C1020 C1016 1.350 . S
C1020 C1017 1.463 1_565 S
C1020 N1024 1.427 . S
C1021 H1011 0.929 . S
C1021 C1019 1.433 . S
C1021 N1024 1.384 . S
C1022 H1013 0.929 1_545 S
C1022 C1014 1.378 . S
C1022 C1017 1.350 . S
C1023 H1010 0.929 . S
C1023 C1015 1.433 . S
C1023 N1025 1.384 . S
N1024 C1020 1.427 . S
N1024 C1021 1.384 . S
N1025 C1017 1.427 . S
N1025 C1023 1.384 . S
H1026 C1032 0.930 . S
H1027 C1036 0.930 . S
H1028 C1041 0.929 . S
H1029 C1039 0.929 . S
H1030 C1034 0.929 . S
H1031 C1040 0.929 . S
C1032 H1026 0.930 . S
C1032 C1033 1.367 . S
C1032 C1040 1.378 . S
C1033 C1032 1.367 . S
C1033 C1041 1.433 . S
C1034 H1030 0.929 . S
C1034 C1036 1.378 . S
C1034 C1038 1.350 . S
C1035 C1038 1.463 . S
C1035 C1040 1.350 . S
C1035 N1043 1.427 . S
C1036 H1027 0.930 . S
C1036 C1034 1.378 . S
C1036 C1037 1.367 . S
C1037 C1036 1.367 . S
C1037 C1039 1.433 . S
C1038 C1034 1.350 . S
C1038 C1035 1.463 . S
C1038 N1042 1.427 . S
C1039 H1029 0.929 . S
C1039 C1037 1.433 . S
C1039 N1042 1.384 . S
C1040 H1031 0.929 . S
C1040 C1032 1.378 . S
C1040 C1035 1.350 . S
C1041 H1028 0.929 . S
C1041 C1033 1.433 . S
C1041 N1043 1.384 . S
N1042 C1038 1.427 . S
N1042 C1039 1.384 . S
N1043 C1035 1.427 . S
N1043 C1041 1.384 . S
H1044 C1050 0.930 . S
H1045 C1054 0.930 1_556 S
H1046 C1059 0.929 . S
H1047 C1057 0.929 . S
H1048 C1052 0.929 . S
H1049 C1058 0.929 1_554 S
C1050 H1044 0.930 . S
C1050 C1051 1.367 . S
C1050 C1058 1.378 . S
C1051 C1050 1.367 . S
C1051 C1059 1.433 . S
C1052 H1048 0.929 . S
C1052 C1054 1.378 1_556 S
C1052 C1056 1.341 1_556 S
C1053 C1056 1.453 1_546 S
C1053 C1058 1.350 . S
C1053 N1061 1.427 . S
C1054 H1045 0.930 1_554 S
C1054 C1052 1.378 1_554 S
C1054 C1055 1.367 . S
C1055 C1054 1.367 . S
C1055 C1057 1.433 . S
C1056 C1052 1.341 1_554 S
C1056 C1053 1.453 1_564 S
C1056 N1060 1.447 . S
C1057 H1047 0.929 . S
C1057 C1055 1.433 . S
C1057 N1060 1.384 . S
C1058 H1049 0.929 1_556 S
C1058 C1050 1.378 . S
C1058 C1053 1.350 . S
C1059 H1046 0.929 . S
C1059 C1051 1.433 . S
C1059 N1061 1.384 . S
N1060 C1056 1.447 . S
N1060 C1057 1.384 . S
N1061 C1053 1.427 . S
N1061 C1059 1.384 . S
H1062 C1068 0.930 . S
H1063 C1072 0.930 . S
H1064 C1077 0.929 . S
H1065 C1075 0.929 . S
H1066 C1070 0.929 . S
H1067 C1076 0.929 . S
C1068 H1062 0.930 . S
C1068 C1069 1.367 . S
C1068 C1076 1.378 . S
C1069 C1068 1.367 . S
C1069 C1077 1.433 . S
C1070 H1066 0.929 . S
C1070 C1072 1.378 . S
C1070 C1074 1.350 . S
C1071 C1074 1.463 . S
C1071 C1076 1.350 . S
C1071 N1079 1.427 . S
C1072 H1063 0.930 . S
C1072 C1070 1.378 . S
C1072 C1073 1.367 . S
C1073 C1072 1.367 . S
C1073 C1075 1.433 . S
C1074 C1070 1.350 . S
C1074 C1071 1.463 . S
C1074 N1078 1.427 . S
C1075 H1065 0.929 . S
C1075 C1073 1.433 . S
C1075 N1078 1.384 . S
C1076 H1067 0.929 . S
C1076 C1068 1.378 . S
C1076 C1071 1.350 . S
C1077 H1064 0.929 . S
C1077 C1069 1.433 . S
C1077 N1079 1.384 . S
N1078 C1074 1.427 . S
N1078 C1075 1.384 . S
N1079 C1071 1.427 . S
N1079 C1077 1.384 . S
H1080 C1086 0.930 . S
H1081 C1090 0.930 . S
H1082 C1095 0.929 . S
H1083 C1093 0.929 . S
H1084 C1088 0.929 . S
H1085 C1094 0.929 . S
C1086 H1080 0.930 . S
C1086 C1087 1.367 . S
C1086 C1094 1.378 . S
C1087 C1086 1.367 . S
C1087 C1095 1.433 . S
C1088 H1084 0.929 . S
C1088 C1090 1.378 . S
C1088 C1092 1.350 . S
C1089 C1092 1.463 1_545 S
C1089 C1094 1.350 . S
C1089 N1097 1.427 . S
C1090 H1081 0.930 . S
C1090 C1088 1.378 . S
C1090 C1091 1.367 . S
C1091 C1090 1.367 . S
C1091 C1093 1.433 . S
C1092 C1088 1.350 . S
C1092 C1089 1.463 1_565 S
C1092 N1096 1.427 . S
C1093 H1083 0.929 . S
C1093 C1091 1.433 . S
C1093 N1096 1.384 . S
C1094 H1085 0.929 . S
C1094 C1086 1.378 . S
C1094 C1089 1.350 . S
C1095 H1082 0.929 . S
C1095 C1087 1.433 . S
C1095 N1097 1.384 . S
N1096 C1092 1.427 . S
N1096 C1093 1.384 . S
N1097 C1089 1.427 . S
N1097 C1095 1.384 . S
H1098 C1104 0.930 . S
H1099 C1108 0.930 . S
H1100 C1113 0.929 . S
H1101 C1111 0.929 . S
H1102 C1106 0.929 . S
H1103 C1112 0.929 . S
C1104 H1098 0.930 . S
C1104 C1105 1.367 . S
C1104 C1112 1.378 . S
C1105 C1104 1.367 . S
C1105 C1113 1.433 . S
C1106 H1102 0.929 . S
C1106 C1108 1.378 . S
C1106 C1110 1.350 . S
C1107 C1110 1.463 . S
C1107 C1112 1.350 . S
C1107 N1115 1.427 . S
C1108 H1099 0.930 . S
C1108 C1106 1.378 . S
C1108 C1109 1.367 . S
C1109 C1108 1.367 . S
C1109 C1111 1.433 . S
C1110 C1106 1.350 . S
C1110 C1107 1.463 . S
C1110 N1114 1.427 . S
C1111 H1101 0.929 . S
C1111 C1109 1.433 . S
C1111 N1114 1.384 . S
C1112 H1103 0.929 . S
C1112 C1104 1.378 . S
C1112 C1107 1.350 . S
C1113 H1100 0.929 . S
C1113 C1105 1.433 . S
C1113 N1115 1.384 . S
N1114 C1110 1.427 . S
N1114 C1111 1.384 . S
N1115 C1107 1.427 . S
N1115 C1113 1.384 . S
H1116 C1122 0.930 . S
H1117 C1126 0.930 1_554 S
H1118 C1131 0.929 . S
H1119 C1129 0.929 . S
H1120 C1124 0.929 . S
H1121 C1130 0.929 . S
C1122 H1116 0.930 . S
C1122 C1123 1.367 . S
C1122 C1130 1.378 1_554 S
C1123 C1122 1.367 . S
C1123 C1131 1.433 . S
C1124 H1120 0.929 . S
C1124 C1126 1.378 1_554 S
C1124 C1128 1.350 1_554 S
C1125 C1128 1.463 1_564 S
C1125 C1130 1.350 1_554 S
C1125 N1133 1.427 . S
C1126 H1117 0.930 1_556 S
C1126 C1124 1.378 1_556 S
C1126 C1127 1.367 . S
C1127 C1126 1.367 . S
C1127 C1129 1.433 . S
C1128 C1124 1.350 1_556 S
C1128 C1125 1.463 1_546 S
C1128 N1132 1.427 . S
C1129 H1119 0.929 . S
C1129 C1127 1.433 . S
C1129 N1132 1.384 . S
C1130 H1121 0.929 . S
C1130 C1122 1.378 1_556 S
C1130 C1125 1.350 1_556 S
C1131 H1118 0.929 . S
C1131 C1123 1.433 . S
C1131 N1133 1.384 . S
N1132 C1128 1.427 . S
N1132 C1129 1.384 . S
N1133 C1125 1.427 . S
N1133 C1131 1.384 . S
H1134 C1140 0.930 . S
H1135 C1144 0.930 . S
H1136 C1149 0.929 . S
H1137 C1147 0.929 . S
H1138 C1142 0.929 . S
H1139 C1148 0.929 . S
C1140 H1134 0.930 . S
C1140 C1141 1.367 . S
C1140 C1148 1.378 . S
C1141 C1140 1.367 . S
C1141 C1149 1.433 . S
C1142 H1138 0.929 . S
C1142 C1144 1.378 . S
C1142 C1146 1.350 . S
C1143 C1146 1.463 . S
C1143 C1148 1.350 . S
C1143 N1151 1.427 . S
C1144 H1135 0.930 . S
C1144 C1142 1.378 . S
C1144 C1145 1.367 . S
C1145 C1144 1.367 . S
C1145 C1147 1.433 . S
C1146 C1142 1.350 . S
C1146 C1143 1.463 . S
C1146 N1150 1.427 . S
C1147 H1137 0.929 . S
C1147 C1145 1.433 . S
C1147 N1150 1.384 . S
C1148 H1139 0.929 . S
C1148 C1140 1.378 . S
C1148 C1143 1.350 . S
C1149 H1136 0.929 . S
C1149 C1141 1.433 . S
C1149 N1151 1.384 . S
N1150 C1146 1.427 . S
N1150 C1147 1.384 . S
N1151 C1143 1.427 . S
N1151 C1149 1.384 . S
C583 C400 1.256 . S
C587 C4 1.263 . S
C601 C544 1.301 . S
C605 C40 1.308 . S
C619 C76 1.386 . S
C623 C326 1.379 . S
C637 C470 1.425 . S
C641 C110 1.413 . S
C655 C146 1.325 . S
C659 C472 1.317 . S
C673 C182 1.370 . S
C677 C398 1.360 . S
C691 C220 1.402 . S
C695 C542 1.393 . S
C709 C254 1.432 . S
C713 C328 1.432 . S
C727 C112 1.289 . S
C731 C292 1.287 . S
C745 C364 1.282 . S
C749 C38 1.261 . S
C763 C434 1.302 . S
C767 C184 1.310 . S
C781 C508 1.296 . S
C785 C256 1.299 . S
C799 C148 1.404 . S
C803 C290 1.396 . S
C817 C362 1.468 . S
C821 C218 1.461 . S
C835 C506 1.435 . S
C839 C74 1.433 . S
C853 C2 1.384 . S
C857 C436 1.396 . S
C871 C3 1.200 . S
C875 C158 1.151 . S
C889 C39 1.301 . S
C893 C194 1.254 . S
C907 C75 1.306 . S
C911 C219 1.305 . S
C925 C266 1.235 . S
C929 C122 1.221 . S
C943 C291 1.177 . S
C947 C446 1.140 . S
C961 C482 1.305 . S
C965 C327 1.349 . S
C979 C363 1.232 . S
C983 C507 1.235 . S
C997 C543 1.268 . S
C1001 C410 1.216 . S
C1015 C255 1.132 . S
C1019 C50 1.102 . S
C1033 C86 1.295 . S
C1037 C147 1.340 . S
C1051 C111 1.240 . S
C1055 C183 1.237 . S
C1069 C14 1.264 . S
C1073 C230 1.286 . S
C1087 C338 1.181 . S
C1091 C554 1.179 . S
C1105 C435 1.331 . S
C1109 C374 1.272 . S
C1123 C399 1.227 . S
C1127 C471 1.225 . S
C1141 C518 1.237 . S
C1145 C302 1.226 . S
