# Generated by pormake.
# Topology snz, (6)-cn, num edge types: 1
# Building blocks:
#     Node 0, Type 0, BuildingBlock: INOVEN_clean_sbu_0, # of connection points: 6
#     Node 1, Type 0, BuildingBlock: INOVEN_clean_sbu_0, # of connection points: 6
#     Node 2, Type 0, BuildingBlock: INOVEN_clean_sbu_0, # of connection points: 6
#     Node 3, Type 0, BuildingBlock: INOVEN_clean_sbu_0, # of connection points: 6
#     Node 4, Type 0, BuildingBlock: INOVEN_clean_sbu_0, # of connection points: 6
#     Node 5, Type 0, BuildingBlock: INOVEN_clean_sbu_0, # of connection points: 6
#     Node 6, Type 0, BuildingBlock: INOVEN_clean_sbu_0, # of connection points: 6
#     Node 7, Type 0, BuildingBlock: INOVEN_clean_sbu_0, # of connection points: 6
#     Node 8, Type 0, BuildingBlock: INOVEN_clean_sbu_0, # of connection points: 6
#     Edge 9, Type (0, 0), BuildingBlock: AJUNOK_clean_linker_0, # of connection points: 2
#     Edge 10, Type (0, 0), BuildingBlock: AJUNOK_clean_linker_0, # of connection points: 2
#     Edge 11, Type (0, 0), BuildingBlock: AJUNOK_clean_linker_0, # of connection points: 2
#     Edge 12, Type (0, 0), BuildingBlock: AJUNOK_clean_linker_0, # of connection points: 2
#     Edge 13, Type (0, 0), BuildingBlock: AJUNOK_clean_linker_0, # of connection points: 2
#     Edge 14, Type (0, 0), BuildingBlock: AJUNOK_clean_linker_0, # of connection points: 2
#     Edge 15, Type (0, 0), BuildingBlock: AJUNOK_clean_linker_0, # of connection points: 2
#     Edge 16, Type (0, 0), BuildingBlock: AJUNOK_clean_linker_0, # of connection points: 2
#     Edge 17, Type (0, 0), BuildingBlock: AJUNOK_clean_linker_0, # of connection points: 2
#     Edge 18, Type (0, 0), BuildingBlock: AJUNOK_clean_linker_0, # of connection points: 2
#     Edge 19, Type (0, 0), BuildingBlock: AJUNOK_clean_linker_0, # of connection points: 2
#     Edge 20, Type (0, 0), BuildingBlock: AJUNOK_clean_linker_0, # of connection points: 2
#     Edge 21, Type (0, 0), BuildingBlock: AJUNOK_clean_linker_0, # of connection points: 2
#     Edge 22, Type (0, 0), BuildingBlock: AJUNOK_clean_linker_0, # of connection points: 2
#     Edge 23, Type (0, 0), BuildingBlock: AJUNOK_clean_linker_0, # of connection points: 2
#     Edge 24, Type (0, 0), BuildingBlock: AJUNOK_clean_linker_0, # of connection points: 2
#     Edge 25, Type (0, 0), BuildingBlock: AJUNOK_clean_linker_0, # of connection points: 2
#     Edge 26, Type (0, 0), BuildingBlock: AJUNOK_clean_linker_0, # of connection points: 2
#     Edge 27, Type (0, 0), BuildingBlock: AJUNOK_clean_linker_0, # of connection points: 2
#     Edge 28, Type (0, 0), BuildingBlock: AJUNOK_clean_linker_0, # of connection points: 2
#     Edge 29, Type (0, 0), BuildingBlock: AJUNOK_clean_linker_0, # of connection points: 2
#     Edge 30, Type (0, 0), BuildingBlock: AJUNOK_clean_linker_0, # of connection points: 2
#     Edge 31, Type (0, 0), BuildingBlock: AJUNOK_clean_linker_0, # of connection points: 2
#     Edge 32, Type (0, 0), BuildingBlock: AJUNOK_clean_linker_0, # of connection points: 2
#     Edge 33, Type (0, 0), BuildingBlock: AJUNOK_clean_linker_0, # of connection points: 2
#     Edge 34, Type (0, 0), BuildingBlock: AJUNOK_clean_linker_0, # of connection points: 2
#     Edge 35, Type (0, 0), BuildingBlock: AJUNOK_clean_linker_0, # of connection points: 2
# Relax obj value: 0.581
# Max RMSD: 0.279
# Mean RMSD: 0.184
data_MOF--net-snz--node1-INOVEN_clean_sbu_0--edge1-AJUNOK_clean_linker_0
_symmetry_space_group_name_H-M    P1
_symmetry_Int_Tables_number       1
_symmetry_cell_setting            triclinic
loop_
_symmetry_equiv_pos_as_xyz
'x, y, z'
_cell_length_a     54.304443
_cell_length_b     41.707337
_cell_length_c     12.487471
_cell_angle_alpha  96.726934
_cell_angle_beta   97.96994
_cell_angle_gamma 121.55458
loop_
_atom_site_label
_atom_site_type_symbol
_atom_site_fract_x
_atom_site_fract_y
_atom_site_fract_z
_atom_type_partial_charge
Gd0 Gd 0.1461 0.50643 0.25335 0.0
Gd1 Gd 0.11461 0.51721 0.23901 0.0
C2 C 0.08296 0.43025 0.13952 0.0
C3 C 0.18601 0.48816 0.27274 0.0
C4 C 0.19703 0.46747 0.33542 0.0
C5 C 0.19093 0.43143 0.2826 0.0
C6 C 0.21548 0.48417 0.44369 0.0
C7 C 0.22151 0.42953 0.4434 0.0
C8 C 0.22743 0.46547 0.49679 0.0
C9 C 0.20277 0.41273 0.33571 0.0
C10 C 0.12665 0.49757 0.98998 0.0
C11 C 0.17317 0.5966 0.32468 0.0
C12 C 0.0747 0.53396 0.245 0.0
C13 C 0.06088 0.55294 0.19546 0.0
C14 C 0.04478 0.56233 0.25619 0.0
C15 C 0.06421 0.56319 1.09267 0.0
C16 C 1.03407 0.59028 0.11033 0.0
C17 C 0.05091 0.58182 1.05044 0.0
C18 C 1.03157 0.5808 0.21433 0.0
C19 C 0.13508 0.52626 0.50136 0.0
O20 O 0.10792 0.44128 0.20922 0.0
O21 O 0.08061 0.4589 0.12248 0.0
O22 O 0.19113 0.52108 0.32247 0.0
O23 O 0.15986 0.46727 0.20505 0.0
O24 O 0.13789 0.52274 1.08665 0.0
O25 O 0.13773 0.522 1.08847 0.0
O26 O 0.14752 0.58117 0.25602 0.0
O27 O 0.1786 0.57085 0.35212 0.0
O28 O 0.10236 0.55651 0.29942 0.0
O29 O 0.06882 0.50139 0.18832 0.0
O30 O 0.12387 0.5009 0.40485 0.0
O31 O 0.12402 0.50162 0.40361 0.0
H32 H 0.17728 0.41781 0.19874 0.0
H33 H 0.22097 0.51193 0.48731 0.0
H34 H 0.24126 0.47919 0.58029 0.0
H35 H 0.19776 0.38534 0.29105 0.0
H36 H 0.04238 0.55528 0.33652 0.0
H37 H 0.07692 0.55667 1.04521 0.0
H38 H 0.05322 0.58884 0.97011 0.0
H39 H 1.01921 0.58757 0.26325 0.0
Gd40 Gd 0.6552 0.52765 1.0719 0.0
Gd41 Gd 0.61994 0.52894 1.0546 0.0
C42 C 0.67148 0.61364 0.14193 0.0
C43 C 0.70641 0.53346 0.10168 0.0
C44 C 0.73459 0.55166 1.06165 0.0
C45 C 0.74958 0.5327 1.05353 0.0
C46 C 0.7482 0.58905 1.04052 0.0
C47 C 0.79089 0.58766 1.00289 0.0
C48 C 0.77597 0.60681 1.0119 0.0
C49 C 0.77725 0.55038 1.0248 0.0
C50 C 0.64827 0.54279 0.32345 0.0
C51 C 0.59711 0.44191 0.99704 0.0
C52 C 0.57049 0.52563 1.02726 0.0
C53 C 0.54868 0.51206 0.09632 0.0
C54 C 0.51917 0.50016 1.05396 0.0
C55 C 0.55696 0.50831 0.20345 0.0
C56 C 0.50648 0.48107 0.22584 0.0
C57 C 0.53611 0.49315 0.26775 0.0
C58 C 0.4982 0.48482 0.11837 0.0
C59 C 0.62732 0.51375 0.80315 0.0
O60 O 0.68136 0.5944 1.09332 0.0
O61 O 0.64451 0.59126 0.15383 0.0
O62 O 0.70148 0.55678 0.1587 0.0
O63 O 0.68195 0.50416 1.03526 0.0
O64 O 0.635 0.51757 0.22637 0.0
O65 O 0.63561 0.51838 0.22491 0.0
O66 O 0.59001 0.4643 1.04527 0.0
O67 O 0.62449 0.46165 0.98191 0.0
O68 O 0.57303 0.49889 0.97548 0.0
O69 O 0.5963 0.55728 1.07437 0.0
O70 O 0.64057 0.5387 0.90081 0.0
O71 O 0.64004 0.53801 0.90193 0.0
H72 H 0.74007 0.50427 1.07123 0.0
H73 H 0.7375 0.60476 1.04705 0.0
H74 H 0.78562 0.63541 0.99547 0.0
H75 H 0.7882 0.53493 1.0212 0.0
H76 H 0.51233 0.50242 0.97098 0.0
H77 H 0.57953 0.5167 0.23693 0.0
H78 H 0.54306 0.4903 0.34978 0.0
H79 H 0.47559 0.47615 1.08455 0.0
Gd80 Gd 0.608 0.06526 0.88794 0.0
Gd81 Gd 0.64924 0.1103 0.921 0.0
C82 C 0.59921 0.13167 0.88199 0.0
C83 C 0.55458 1.00388 0.83986 0.0
C84 C 0.53315 0.98716 0.90932 0.0
C85 C 0.50828 0.94919 0.87352 0.0
C86 C 0.5375 1.00933 1.01233 0.0
C87 C 0.49177 0.95594 1.04185 0.0
C88 C 0.51695 0.99391 1.07783 0.0
C89 C 0.48781 0.93361 0.93946 0.0
C90 C 0.61997 0.0917 0.65507 0.0
C91 C 0.64727 0.03604 0.94696 0.0
C92 C 0.70817 0.15851 0.96531 0.0
C93 C 0.73531 0.16079 0.93196 0.0
C94 C 0.75789 0.19425 0.90477 0.0
C95 C 0.74091 0.13137 0.9391 0.0
C96 C 0.7906 0.16918 0.89598 0.0
C97 C 0.76767 0.13538 0.92125 0.0
C98 C 0.78467 0.19824 0.88662 0.0
C99 C 0.63746 0.08768 0.15826 0.0
O100 O 0.58641 0.0985 0.90892 0.0
O101 O 0.62698 0.1448 0.87112 0.0
O102 O 0.57835 1.00302 0.86452 0.0
O103 O 0.5607 0.03723 0.8225 0.0
O104 O 0.62834 0.07796 0.73332 0.0
O105 O 0.62787 0.0782 0.735 0.0
O106 O 0.66005 0.06385 0.89546 0.0
O107 O 0.62388 0.03216 0.97412 0.0
O108 O 0.68976 0.16287 0.89887 0.0
O109 O 0.69362 0.13215 1.01841 0.0
O110 O 0.62896 0.10014 1.07644 0.0
O111 O 0.62945 0.09988 1.07446 0.0
H112 H 0.50472 0.93158 0.79473 0.0
H113 H 0.55671 0.0387 1.04176 0.0
H114 H 0.52056 1.01185 0.15603 0.0
H115 H 0.46901 0.90397 0.91077 0.0
H116 H 0.75518 0.21801 0.89983 0.0
H117 H 0.72467 0.10506 0.96033 0.0
H118 H 0.77015 0.11148 0.92664 0.0
H119 H 0.80121 0.22489 0.86785 0.0
Gd120 Gd 0.80399 0.86492 0.33301 0.0
Gd121 Gd 0.77403 0.87863 0.32452 0.0
C122 C 0.74517 0.78764 0.29079 0.0
C123 C 0.84126 0.84394 0.31871 0.0
C124 C 0.85955 0.83114 0.37301 0.0
C125 C 0.87758 0.82542 0.31384 0.0
C126 C 0.8559 0.81883 0.47301 0.0
C127 C 0.88789 0.7947 0.45236 0.0
C128 C 0.87003 0.80085 0.51249 0.0
C129 C 0.89148 0.80729 0.35262 0.0
C130 C 0.80115 0.88726 1.09372 0.0
C131 C 0.83721 0.95461 0.39936 0.0
C132 C 0.73649 0.90079 0.31478 0.0
C133 C 0.72009 0.91359 0.24395 0.0
C134 C 0.69996 0.92014 0.28564 0.0
C135 C 0.72719 0.92491 0.14464 0.0
C136 C 0.69572 0.95112 0.13489 0.0
C137 C 0.71491 0.94307 1.09019 0.0
C138 C 0.68804 0.93864 0.2323 0.0
C139 C 0.77612 0.85673 0.56501 0.0
O140 O 0.77186 0.80461 0.35319 0.0
O141 O 0.73935 0.81207 0.25452 0.0
O142 O 0.81267 0.82026 0.30243 0.0
O143 O 0.84974 0.8801 0.34408 0.0
O144 O 0.7845 0.86476 0.15511 0.0
O145 O 0.78498 0.86515 0.15689 0.0
O146 O 0.81148 0.94147 0.33203 0.0
O147 O 0.84041 0.92721 0.42444 0.0
O148 O 0.72804 0.86461 0.2972 0.0
O149 O 0.76524 0.92375 0.34156 0.0
O150 O 0.79268 0.87913 0.50364 0.0
O151 O 0.79227 0.87881 0.50133 0.0
H152 H 0.88004 0.8337 0.23498 0.0
H153 H 0.84156 0.82221 0.51886 0.0
H154 H 0.86688 0.79159 0.58974 0.0
H155 H 0.90442 0.80221 0.30277 0.0
H156 H 0.69431 0.9123 0.36255 0.0
H157 H 0.74301 0.9209 0.11119 0.0
H158 H 0.72141 0.9523 1.01562 0.0
H159 H 0.67314 0.94389 0.2687 0.0
Gd160 Gd 0.30043 0.85672 0.52885 0.0
Gd161 Gd 0.26333 0.85425 0.50729 0.0
C162 C 0.31986 0.94131 0.54992 0.0
C163 C 0.35091 0.8626 0.55313 0.0
C164 C 0.36978 0.8715 0.47263 0.0
C165 C 0.39358 0.86663 0.48466 0.0
C166 C 0.36486 0.88744 0.38551 0.0
C167 C 0.40795 0.89506 0.32527 0.0
C168 C 0.38405 0.89988 0.31452 0.0
C169 C 0.4124 0.87805 0.41098 0.0
C170 C 0.27935 0.83906 0.75909 0.0
C171 C 0.24897 0.77022 0.48394 0.0
C172 C 0.21038 0.84388 0.4705 0.0
C173 C 0.18387 0.82994 0.51964 0.0
C174 C 0.15957 0.83076 0.46761 0.0
C175 C 0.18048 0.81053 0.60684 0.0
C176 C 0.12896 0.79295 0.58826 0.0
C177 C 0.15346 0.79239 0.64078 0.0
C178 C 0.13253 0.81253 0.50117 0.0
C179 C 0.28418 0.87199 0.27662 0.0
O180 O 0.32709 0.91852 0.50546 0.0
O181 O 0.29311 0.92194 0.5706 0.0
O182 O 0.32542 0.8294 0.52498 0.0
O183 O 0.34819 0.89064 0.59182 0.0
O184 O 0.2864 0.86382 0.69326 0.0
O185 O 0.28638 0.86312 0.69135 0.0
O186 O 0.23989 0.79123 0.5275 0.0
O187 O 0.27516 0.791 0.46334 0.0
O188 O 0.21582 0.81798 0.43886 0.0
O189 O 0.23496 0.87729 0.51624 0.0
O190 O 0.27722 0.84737 0.34277 0.0
O191 O 0.27723 0.84805 0.34486 0.0
H192 H 0.39778 0.85443 0.55139 0.0
H193 H 0.34654 0.89127 0.37379 0.0
H194 H 0.38045 0.91417 0.25299 0.0
H195 H 0.43054 0.87378 0.42152 0.0
H196 H 0.1612 0.84468 0.39852 0.0
H197 H 0.19846 0.80841 0.64662 0.0
H198 H 0.15152 0.77694 0.70632 0.0
H199 H 0.11433 0.8137 0.45862 0.0
Gd200 Gd 0.26932 0.27122 0.66396 0.0
Gd201 Gd 0.31167 0.31681 0.69468 0.0
C202 C 0.27159 0.34688 0.64028 0.0
C203 C 0.21112 0.21963 0.64358 0.0
C204 C 0.18209 0.21807 0.64442 0.0
C205 C 0.15541 0.1827 0.6404 0.0
C206 C 0.18055 0.25112 0.65826 0.0
C207 C 0.12702 0.21337 0.66413 0.0
C208 C 0.1537 0.2488 0.66675 0.0
C209 C 0.12872 0.18042 0.65056 0.0
C210 C 0.27947 0.29863 0.43003 0.0
C211 C 0.3201 0.25055 0.67667 0.0
C212 C 0.36658 0.37429 0.73737 0.0
C213 C 0.38701 0.39014 0.66244 0.0
C214 C 0.39946 0.42845 0.6519 0.0
C215 C 0.39359 0.36671 0.59809 0.0
C216 C 0.42416 0.41935 0.51324 0.0
C217 C 0.41199 0.38119 0.52485 0.0
C218 C 0.41789 0.44294 0.5782 0.0
C219 C 0.29018 0.31356 0.93073 0.0
O220 O 0.25576 0.3148 0.67171 0.0
O221 O 0.29803 0.35577 0.6357 0.0
O222 O 0.2237 0.22793 0.56069 0.0
O223 O 0.23148 0.23566 0.73519 0.0
O224 O 0.28779 0.28384 0.50489 0.0
O225 O 0.28732 0.28411 0.50726 0.0
O226 O 0.33014 0.28205 0.64049 0.0
O227 O 0.29393 0.2383 0.70361 0.0
O228 O 0.34443 0.37897 0.72702 0.0
O229 O 0.35851 0.33976 0.74926 0.0
O230 O 0.29552 0.29548 0.85146 0.0
O231 O 0.29559 0.29642 0.84962 0.0
H232 H 0.15525 0.15645 0.63132 0.0
H233 H 0.20031 0.27913 0.6652 0.0
H234 H 0.15425 0.27531 0.67929 0.0
H235 H 0.1092 0.15242 0.64756 0.0
H236 H 0.39476 0.4471 0.70012 0.0
H237 H 0.38455 0.33705 0.60387 0.0
H238 H 0.417 0.36258 0.47831 0.0
H239 H 0.42702 0.47252 0.57114 0.0
Gd240 Gd 0.46477 0.19679 0.69399 0.0
Gd241 Gd 0.45494 0.18397 0.86043 0.0
C242 C 0.41428 0.21145 0.76282 0.0
C243 C 0.46146 0.19784 0.487 0.0
C244 C 0.46028 0.17032 0.39823 0.0
C245 C 0.48628 0.17179 0.38805 0.0
C246 C 0.43266 0.13922 0.33307 0.0
C247 C 0.45723 0.11294 0.2442 0.0
C248 C 0.43108 0.11029 0.25854 0.0
C249 C 0.48467 0.14294 0.31347 0.0
C250 C 0.50723 0.26785 0.83918 0.0
C251 C 0.50748 0.1739 0.79869 0.0
C252 C 0.45631 0.16159 1.04273 0.0
C253 C 0.4566 0.12668 1.05018 0.0
C254 C 0.42093 0.07909 1.01515 0.0
C255 C 0.4928 0.13148 1.08686 0.0
C256 C 0.45767 0.03737 1.04533 0.0
C257 C 0.49532 0.08923 1.08973 0.0
C258 C 0.41935 0.03391 1.01372 0.0
C259 C 0.41189 0.11468 0.70865 0.0
O260 O 0.42465 0.20392 0.68014 0.0
O261 O 0.42643 0.21037 0.86074 0.0
O262 O 0.43832 0.18413 0.52979 0.0
O263 O 0.48634 0.21889 0.56241 0.0
O264 O 0.512 0.24869 0.76547 0.0
O265 O 0.47973 0.24647 0.84242 0.0
O266 O 0.4995 0.1864 0.88056 0.0
O267 O 0.49189 0.1686 0.70037 0.0
O268 O 0.43203 0.15584 0.98445 0.0
O269 O 0.47997 0.18998 1.02212 0.0
O270 O 0.40727 0.13531 0.77742 0.0
O271 O 0.43989 0.13472 0.71249 0.0
H272 H 0.50786 0.19473 0.43931 0.0
H273 H 0.41218 0.13672 0.34164 0.0
H274 H 0.40947 0.08613 0.21157 0.0
H275 H 0.50497 0.14435 0.30878 0.0
H276 H 0.40036 0.07759 0.99153 0.0
H277 H 0.51302 0.15983 0.10627 0.0
H278 H 0.51669 0.09246 0.10131 0.0
H279 H 0.39843 1.0063 0.98259 0.0
Gd280 Gd 0.9599 0.17596 0.83926 0.0
Gd281 Gd 0.95744 0.21032 0.69329 0.0
C282 C 0.90539 0.18946 0.81708 0.0
C283 C 0.95601 0.13878 0.99321 0.0
C284 C 0.93869 0.09692 0.98953 0.0
C285 C 0.94955 0.07386 0.95921 0.0
C286 C 0.91198 0.07974 1.02423 0.0
C287 C 0.91863 0.02867 1.06074 0.0
C288 C 0.90061 0.04389 1.05178 0.0
C289 C 0.9378 0.03801 0.98789 0.0
C290 C 0.92896 0.11915 0.64372 0.0
C291 C 1.01433 0.20163 0.73434 0.0
C292 C 0.95636 0.22805 0.50279 0.0
C293 C 0.95798 0.20516 0.4075 0.0
C294 C 0.93129 0.1731 0.33997 0.0
C295 C 0.9839 0.20493 0.41476 0.0
C296 C 0.95415 0.13604 0.33428 0.0
C297 C 0.9819 0.17025 0.3842 0.0
C298 C 0.92942 0.13881 0.30355 0.0
C299 C 0.98813 0.26796 0.8859 0.0
O300 O 0.92288 0.18351 0.88493 0.0
O301 O 0.91354 0.19926 0.72556 0.0
O302 O 0.97763 0.15122 0.94278 0.0
O303 O 0.94132 0.15521 0.97887 0.0
O304 O 0.95194 0.12583 0.71201 0.0
O305 O 0.92531 0.14615 0.67567 0.0
O306 O 0.99435 0.20037 0.65663 0.0
O307 O 1.00775 0.19844 0.83134 0.0
O308 O 0.98005 0.2477 0.58433 0.0
O309 O 0.93244 0.20895 0.53929 0.0
O310 O 0.96624 0.26243 0.81215 0.0
O311 O 0.99166 0.24038 0.85918 0.0
H312 H 0.96871 0.08477 0.92329 0.0
H313 H 0.90141 0.09524 1.03952 0.0
H314 H 0.88193 0.03359 1.09033 0.0
H315 H 0.94911 0.02325 0.97727 0.0
H316 H 0.91101 0.1728 0.32835 0.0
H317 H 1.00509 0.23015 0.4599 0.0
H318 H 1.00179 0.17034 0.40875 0.0
H319 H 0.908 0.11381 0.25797 0.0
Gd320 Gd 0.94571 0.65449 0.71673 0.0
Gd321 Gd 0.97096 0.7265 0.85303 0.0
C322 C 1.01393 0.7204 0.71908 0.0
C323 C 0.92605 0.59087 0.57422 0.0
C324 C 0.93903 0.58177 0.48969 0.0
C325 C 0.97022 0.60206 0.51079 0.0
C326 C 0.92268 0.56937 0.37955 0.0
C327 C 0.9668 0.61951 0.33562 0.0
C328 C 0.93687 0.58845 0.3009 0.0
C329 C 0.98433 0.6205 0.4311 0.0
C330 C 0.97016 0.65599 0.92316 0.0
C331 C 0.9045 0.65958 0.8608 0.0
C332 C 0.99085 0.7903 0.99579 0.0
C333 C 0.98698 0.79816 0.10758 0.0
C334 C 0.95907 0.77333 0.12824 0.0
C335 C 1.01236 0.81577 0.19527 0.0
C336 C 0.98417 0.76477 0.28626 0.0
C337 C 1.01092 0.79884 0.28607 0.0
C338 C 0.95763 0.75624 0.21811 0.0
C339 C 0.94747 0.72459 0.6438 0.0
O340 O 0.98878 0.68946 0.65659 0.0
O341 O 1.01325 0.73798 0.81187 0.0
O342 O 0.93964 0.59831 0.67699 0.0
O343 O 0.91943 0.61606 0.55635 0.0
O344 O 0.94284 0.63142 0.8705 0.0
O345 O 0.98197 0.68257 0.87123 0.0
O346 O 0.9301 0.68984 0.92294 0.0
O347 O 0.90416 0.64409 0.76232 0.0
O348 O 0.96746 0.77468 0.91395 0.0
O349 O 1.005 0.77299 0.98864 0.0
O350 O 0.97457 0.74921 0.6984 0.0
O351 O 0.9351 0.69863 0.69719 0.0
H352 H 0.98355 0.6103 0.59425 0.0
H353 H 0.89859 0.55232 0.36041 0.0
H354 H 0.923 0.58612 0.22525 0.0
H355 H 1.00792 0.64256 0.45652 0.0
H356 H 0.93884 0.76106 1.06461 0.0
H357 H 1.03405 0.83666 0.18328 0.0
H358 H 1.03143 0.80788 0.34354 0.0
H359 H 0.93623 0.7315 0.21988 0.0
C360 C 0.11588 0.47607 0.76894 0.0
C361 C 0.12931 0.50701 0.86714 0.0
C362 C 0.11736 0.48076 0.65462 0.0
C363 C 0.13274 0.51737 0.62485 0.0
H364 H 0.10367 0.44678 0.78046 0.0
H365 H 0.10608 0.45496 0.58886 0.0
S366 S 0.17236 0.6097 0.84228 0.0
N367 N 0.15896 0.57691 0.91749 0.0
N368 N 0.16177 0.58579 0.71199 0.0
C369 C 0.14624 0.54857 0.72211 0.0
C370 C 0.14467 0.5437 0.83835 0.0
C371 C 0.61769 0.49301 0.58208 0.0
C372 C 0.63409 0.52292 0.68301 0.0
C373 C 0.62131 0.49809 0.46949 0.0
C374 C 0.64191 0.53408 0.44433 0.0
H375 H 0.60123 0.46434 0.58987 0.0
H376 H 0.60757 0.47307 0.40132 0.0
S377 S 0.69156 0.62353 0.67101 0.0
N378 N 0.6726 0.59114 0.74138 0.0
N379 N 0.67935 0.60067 0.53902 0.0
C380 C 0.65848 0.56422 0.54441 0.0
C381 C 0.65477 0.55896 0.6589 0.0
C382 C 0.6372 0.07152 0.47439 0.0
C383 C 0.62516 0.09043 0.52893 0.0
C384 C 0.64005 0.07098 0.35887 0.0
C385 C 0.63142 0.08911 0.28322 0.0
H386 H 0.64449 0.05646 0.52094 0.0
H387 H 0.6493 0.05535 0.3277 0.0
S388 S 0.59768 0.14249 0.37721 0.0
N389 N 0.60382 0.12765 0.48903 0.0
N390 N 0.60935 0.12672 0.28129 0.0
C391 C 0.61914 0.10787 0.33649 0.0
C392 C 0.61612 0.10838 0.45415 0.0
C393 C 0.76408 0.83932 0.7599 0.0
C394 C 0.78394 0.86567 0.70056 0.0
C395 C 0.76858 0.84527 0.88123 0.0
C396 C 0.7936 0.87872 0.9582 0.0
H397 H 0.74412 0.8129 0.71091 0.0
H398 H 0.75196 0.82293 0.91459 0.0
S399 S 0.85366 0.95822 0.8563 0.0
N400 N 0.83059 0.92771 0.73881 0.0
N401 N 0.839 0.9388 0.95755 0.0
C402 C 0.81366 0.90528 0.90001 0.0
C403 C 0.80903 0.8991 0.77652 0.0
C404 C 0.29082 0.88514 0.96081 0.0
C405 C 0.28038 0.84855 0.89099 0.0
C406 C 0.29194 0.89134 1.08024 0.0
C407 C 0.28303 0.86207 0.1447 0.0
H408 H 0.29845 0.90981 0.92326 0.0
H409 H 0.30014 0.92037 0.12348 0.0
S410 S 0.25357 0.7602 1.00794 0.0
N411 N 0.26072 0.78213 0.90362 0.0
N412 N 0.26282 0.79359 0.11875 0.0
C413 C 0.27256 0.82541 1.07578 0.0
C414 C 0.27135 0.81902 0.95421 0.0
C415 C 0.27747 0.32292 0.12564 0.0
C416 C 0.28827 0.30552 1.0563 0.0
C417 C 0.2755 0.31987 0.23988 0.0
C418 C 0.28442 0.29945 0.30303 0.0
H419 H 0.27008 0.33983 1.09038 0.0
H420 H 0.26652 0.33448 0.28051 0.0
S421 S 0.31601 0.24793 0.17141 0.0
N422 N 0.30906 0.26623 1.06951 0.0
N423 N 0.3057 0.261 0.278 0.0
C424 C 0.29571 0.28175 0.23605 0.0
C425 C 0.29753 0.28464 0.11727 0.0
C426 C 0.45556 0.05454 0.2195 0.0
C427 C 0.45621 0.08364 0.15475 0.0
C428 C 0.45683 0.02268 0.13272 0.0
C429 C 0.45825 1.01349 0.99929 0.0
H430 H 0.45501 0.05443 0.30596 0.0
H431 H 0.45664 1.00105 0.17741 0.0
S432 S 0.46104 0.06885 0.76497 0.0
N433 N 0.45934 0.09677 0.86678 0.0
N434 N 0.4604 0.03247 0.81062 0.0
C435 C 0.45876 0.03977 0.91698 0.0
C436 C 0.45806 0.07766 0.94983 0.0
C437 C 0.92245 0.06402 0.31347 0.0
C438 C 0.95008 0.09739 0.31296 0.0
C439 C 0.91371 0.02755 0.25328 0.0
C440 C 0.93007 0.02677 0.17596 0.0
H441 H 0.90632 0.06651 0.3486 0.0
H442 H 0.89075 1.00398 0.24122 0.0
S443 S 1.01136 0.09358 0.22543 0.0
N444 N 1.00005 0.11888 0.28851 0.0
N445 N 0.98161 0.04921 0.17906 0.0
C446 C 0.96096 0.05346 0.21675 0.0
C447 C 0.97094 0.09106 0.2764 0.0
C448 C 0.95485 0.66903 0.36086 0.0
C449 C 0.97284 0.65741 0.32264 0.0
C450 C 0.96062 0.7056 0.36007 0.0
C451 C 0.98443 0.73209 0.31985 0.0
H452 H 0.93594 0.6496 0.39159 0.0
H453 H 0.94531 0.71239 0.38546 0.0
S454 S 0.04072 0.71762 0.22546 0.0
N455 N 1.01749 0.67648 0.25733 0.0
N456 N 1.02784 0.74521 0.24898 0.0
C457 C 1.00364 0.72159 0.28676 0.0
C458 C 0.99788 0.68421 0.2893 0.0
C459 C 0.22871 0.35001 0.5442 0.0
C460 C 0.25905 0.36918 0.59798 0.0
C461 C 0.21689 0.36955 0.49529 0.0
C462 C 0.23467 0.40949 0.49866 0.0
H463 H 0.21404 0.31924 0.53632 0.0
H464 H 0.19347 0.3531 0.45437 0.0
S465 S 0.31579 0.47325 0.62666 0.0
N466 N 0.30677 0.43056 0.64899 0.0
N467 N 0.28472 0.46719 0.55927 0.0
C468 C 0.26507 0.42904 0.55257 0.0
C469 C 0.27717 0.40898 0.60105 0.0
C470 C 0.72105 0.68018 0.20933 0.0
C471 C 0.68958 0.65804 0.17955 0.0
C472 C 0.73824 0.72123 0.24626 0.0
C473 C 0.72528 0.74325 0.2526 0.0
H474 H 0.73266 0.66559 0.20571 0.0
H475 H 0.76223 0.73599 0.26856 0.0
S476 S 0.64383 0.7003 0.18195 0.0
N477 N 0.64631 0.66233 0.16025 0.0
N478 N 0.67832 0.73855 0.22352 0.0
C479 C 0.69386 0.72157 0.22136 0.0
C480 C 0.67626 0.67957 0.18685 0.0
C481 C 0.4798 0.94408 0.22598 0.0
C482 C 0.46991 0.9397 0.11174 0.0
C483 C 0.45965 0.92914 0.29371 0.0
C484 C 0.42874 0.90914 0.25006 0.0
H485 H 0.50335 0.95908 0.26341 0.0
H486 H 0.46845 0.93393 0.38147 0.0
S487 S 0.39148 0.89073 0.95586 0.0
N488 N 0.4273 0.91524 0.95845 0.0
N489 N 0.3893 0.8855 1.08389 0.0
C490 C 0.41857 0.90448 0.13552 0.0
C491 C 0.43915 0.92005 1.0669 0.0
C492 C 0.55916 0.13531 0.75328 0.0
C493 C 0.58034 0.14915 0.85615 0.0
C494 C 0.53673 0.14405 0.73447 0.0
C495 C 0.53314 0.16654 0.81803 0.0
H496 H 0.55926 0.11629 0.68666 0.0
H497 H 0.52135 0.13183 0.65385 0.0
S498 S 0.58226 0.21018 0.10376 0.0
N499 N 0.59526 0.18663 1.04338 0.0
N500 N 0.55458 0.20348 1.00888 0.0
C501 C 0.55441 0.18087 0.92094 0.0
C502 C 0.57725 0.172 0.93977 0.0
C503 C 0.04092 0.31917 1.01097 0.0
C504 C 1.01192 0.3084 0.95859 0.0
C505 C 0.06346 0.35781 1.0711 0.0
C506 C 0.05846 0.38809 1.08157 0.0
H507 H 0.04651 0.29773 1.00387 0.0
H508 H 0.08526 0.36416 0.1075 0.0
S509 S 0.98601 0.37534 0.96808 0.0
N510 N 0.97956 0.33192 0.92879 0.0
N511 N 1.02111 0.403 1.03759 0.0
C512 C 1.02937 0.37733 1.03171 0.0
C513 C 1.00651 0.3382 0.97185 0.0
C514 C 0.87144 0.66136 0.98556 0.0
C515 C 0.87604 0.64108 0.9004 0.0
C516 C 0.844 0.64427 1.01788 0.0
C517 C 0.8201 0.60589 0.96804 0.0
H518 H 0.88895 0.69088 1.0263 0.0
H519 H 0.84157 0.66119 1.08322 0.0
S520 S 0.82064 0.5398 0.743 0.0
N521 N 0.85401 0.57982 0.76873 0.0
N522 N 0.80321 0.54844 0.82881 0.0
C523 C 0.82463 0.58529 0.884 0.0
C524 C 0.85229 0.60263 0.85053 0.0
C525 C 1.01743 0.65819 0.98421 0.0
C526 C 0.9869 0.64117 0.98013 0.0
C527 C 1.03267 0.64166 1.02566 0.0
C528 C 1.01789 0.60733 1.0637 0.0
H529 H 1.02964 0.68429 0.95423 0.0
H530 H 0.05619 0.65597 1.0286 0.0
S531 S 0.93732 0.54785 1.05388 0.0
N532 N 0.94213 0.58603 1.00941 0.0
N533 N 0.97056 0.55484 1.08366 0.0
C534 C 0.9873 0.5895 1.05705 0.0
C535 C 0.97188 0.60639 1.01616 0.0
C536 C 0.58038 0.37195 0.90198 0.0
C537 C 0.57431 0.39726 0.96051 0.0
C538 C 0.55896 0.33106 0.86592 0.0
C539 C 0.52979 0.31213 0.88556 0.0
H540 H 0.60192 0.38381 0.88265 0.0
H541 H 0.56546 0.314 0.82085 0.0
S542 S 0.50173 0.36391 1.03647 0.0
N543 N 0.53591 0.39876 1.03695 0.0
N544 N 0.49673 0.3235 0.97027 0.0
C545 C 0.5235 0.33697 0.94496 0.0
C546 C 0.54526 0.37866 0.98163 0.0
C547 C 0.86095 0.19726 0.77737 0.0
C548 C 0.87657 0.18462 0.84138 0.0
C549 C 0.83394 0.1925 0.79591 0.0
C550 C 0.82016 0.17415 0.87874 0.0
H551 H 0.8697 0.21119 0.71148 0.0
H552 H 0.82347 0.20288 0.74275 0.0
S553 S 0.85151 0.13564 1.07192 0.0
N554 N 0.87555 0.15283 0.99317 0.0
N555 N 0.82565 0.14386 1.0275 0.0
C556 C 0.83556 0.16128 0.94348 0.0
C557 C 0.86328 0.16652 0.92523 0.0
C558 C 0.65767 0.98295 0.92683 0.0
C559 C 0.66138 1.01595 0.9915 0.0
C560 C 0.66931 0.96257 0.97217 0.0
C561 C 0.68482 0.97405 1.08451 0.0
H562 H 0.64526 0.97242 0.84111 0.0
H563 H 0.66548 0.93706 0.91963 0.0
S564 S 0.70343 0.061 0.28514 0.0
N565 N 0.68382 0.06073 0.17096 0.0
N566 N 0.7051 0.02263 0.25586 0.0
C567 C 0.68931 1.00764 0.14854 0.0
C568 C 0.67775 0.02845 0.10227 0.0
C569 C 0.24227 0.70335 0.43569 0.0
C570 C 0.22976 0.7257 0.45057 0.0
C571 C 0.22444 0.66206 0.3995 0.0
C572 C 0.19293 0.64063 0.3723 0.0
H573 H 0.26621 0.71792 0.45216 0.0
H574 H 0.23552 0.64697 0.38963 0.0
S575 S 0.14849 0.68432 0.3952 0.0
N576 N 0.18324 0.72187 0.43574 0.0
N577 N 0.15037 0.64617 0.36475 0.0
C578 C 0.18027 0.66275 0.38675 0.0
C579 C 0.19834 0.70444 0.42634 0.0
C580 C 0.49159 0.48517 0.40541 0.0
C581 C 0.48458 0.46509 0.29557 0.0
C582 C 0.47174 0.47046 0.47428 0.0
C583 C 0.44418 0.4349 0.43643 0.0
H584 H 0.51262 0.51258 0.43843 0.0
H585 H 0.4783 0.48676 0.55865 0.0
S586 S 0.4152 0.37089 0.15536 0.0
N587 N 0.44825 0.40765 0.15213 0.0
N588 N 0.4107 0.38019 0.28086 0.0
C589 C 0.43682 0.41455 0.32643 0.0
C590 C 0.45703 0.42963 0.25616 0.0
C591 C 0.90093 0.72286 0.57163 0.0
C592 C 0.93147 0.73894 0.5793 0.0
C593 C 0.88691 0.74076 0.52975 0.0
C594 C 0.90279 0.77526 0.49308 0.0
H595 H 0.888 0.69712 0.60226 0.0
H596 H 0.8635 0.72767 0.52706 0.0
S597 S 0.98301 0.82871 0.49351 0.0
N598 N 0.97686 0.79089 0.54332 0.0
N599 N 0.9507 0.82447 0.46648 0.0
C600 C 0.93309 0.79092 0.49729 0.0
C601 C 0.94733 0.77278 0.53973 0.0
C602 C 0.39315 0.04512 0.59745 0.0
C603 C 0.38822 0.0706 0.66222 0.0
C604 C 0.37115 1.00429 0.56068 0.0
C605 C 0.34244 0.98593 0.58454 0.0
H606 H 0.41431 0.05668 0.57513 0.0
H607 H 0.37695 0.9868 0.51327 0.0
S608 S 0.31685 0.03872 0.74671 0.0
N609 N 0.35098 0.07298 0.74488 0.0
N610 N 0.31079 0.99823 0.67623 0.0
C611 C 0.33706 1.01121 0.64697 0.0
C612 C 0.35939 0.05257 0.68499 0.0
C613 C 0.05426 0.18527 0.76527 0.0
C614 C 0.04291 0.20487 0.71327 0.0
C615 C 0.08063 0.18769 0.74782 0.0
C616 C 0.09807 0.21068 0.67918 0.0
H617 H 0.04243 0.16736 0.8198 0.0
H618 H 0.0877 0.17173 0.79072 0.0
S619 S 0.07929 0.26928 0.52517 0.0
N620 N 0.05247 0.24919 0.59145 0.0
N621 N 0.10102 0.25359 0.55831 0.0
C622 C 0.08707 0.23071 0.62732 0.0
C623 C 0.05998 0.22783 0.64416 0.0
C624 C 0.37072 0.21687 0.816 0.0
C625 C 0.38912 0.21976 0.74134 0.0
C626 C 0.34731 0.22401 0.7934 0.0
C627 C 0.34069 0.23489 0.69474 0.0
H628 H 0.37444 0.20908 0.89352 0.0
H629 H 0.33505 0.22236 0.85619 0.0
S630 S 0.38166 0.24728 0.47075 0.0
N631 N 0.39778 0.23441 0.56251 0.0
N632 N 0.35565 0.24822 0.52268 0.0
C633 C 0.35891 0.23774 0.62006 0.0
C634 C 0.38228 0.23007 0.64216 0.0
C635 C 0.88871 1.0093 0.51699 0.0
C636 C 0.86047 0.99755 0.45372 0.0
C637 C 0.91025 0.04815 0.57494 0.0
C638 C 0.90508 0.07815 0.57514 0.0
H639 H 0.89434 0.98809 0.52267 0.0
H640 H 0.93127 0.05457 0.62151 0.0
S641 S 0.83509 0.06413 0.42269 0.0
N642 N 0.82896 0.02047 0.39471 0.0
N643 N 0.86892 0.0926 0.50395 0.0
C644 C 0.87698 0.06702 0.51211 0.0
C645 C 0.85502 0.02729 0.45168 0.0
C646 C 0.04479 0.7315 0.57501 0.0
C647 C 0.04328 0.73674 0.68675 0.0
C648 C 0.07235 0.74948 0.54396 0.0
C649 C 0.09978 0.77318 0.62333 0.0
H650 H 1.02447 0.71416 0.51104 0.0
H651 H 0.07223 0.74472 0.45694 0.0
S652 S 0.10843 0.79532 0.92817 0.0
N653 N 0.07213 0.76677 0.87774 0.0
N654 N 0.12331 0.8003 0.8197 0.0
C655 C 0.09855 0.77798 0.7356 0.0
C656 C 0.07057 0.75995 0.76709 0.0
loop_
_geom_bond_atom_site_label_1
_geom_bond_atom_site_label_2
_geom_bond_distance
_geom_bond_site_symmetry_2
_ccdc_geom_bond_type
Gd0 C3 2.818 . S
Gd0 O20 2.377 . S
Gd0 O22 2.448 . S
Gd0 O23 2.506 . S
Gd0 O24 2.435 1_554 S
Gd0 O25 2.717 1_554 S
Gd0 O27 2.395 . S
Gd0 O31 2.327 . S
Gd1 C12 2.818 1_455 S
Gd1 O21 2.388 . S
Gd1 O25 2.327 1_554 S
Gd1 O26 2.377 . S
Gd1 O28 2.448 1_455 S
Gd1 O29 2.506 1_554 S
Gd1 O30 2.435 . S
Gd1 O31 2.717 . S
C2 O20 1.240 . S
C2 O21 1.257 . S
C3 Gd0 2.818 . S
C3 C4 1.510 . S
C3 O22 1.249 . S
C3 O23 1.252 . S
C4 C3 1.510 . S
C4 C5 1.404 . S
C4 C6 1.352 . S
C5 C4 1.404 . S
C5 C9 1.389 . S
C5 H32 0.930 . S
C6 C4 1.352 . S
C6 C8 1.374 . S
C6 H33 0.931 . S
C7 C8 1.359 . S
C7 C9 1.364 . S
C8 C6 1.374 . S
C8 C7 1.359 . S
C8 H34 0.931 . S
C9 C5 1.389 . S
C9 C7 1.364 . S
C9 H35 0.931 . S
C10 O24 1.256 . S
C10 O25 1.257 . S
C11 O26 1.240 . S
C11 O27 1.240 . S
C12 Gd1 2.818 1_655 S
C12 C13 1.510 1_554 S
C12 O28 1.249 . S
C12 O29 1.252 1_654 S
C13 C12 1.510 1_556 S
C13 C14 1.404 1_556 S
C13 C15 1.352 . S
C14 C13 1.404 1_554 S
C14 C18 1.389 . S
C14 H36 0.930 . S
C15 C13 1.352 . S
C15 C17 1.374 . S
C15 H37 0.931 1_655 S
C16 C17 1.359 . S
C16 C18 1.364 1_556 S
C17 C15 1.374 . S
C17 C16 1.359 . S
C17 H38 0.931 . S
C18 C14 1.389 . S
C18 C16 1.364 1_554 S
C18 H39 0.931 . S
C19 O30 1.256 . S
C19 O31 1.257 . S
O20 Gd0 2.377 . S
O20 C2 1.240 . S
O21 Gd1 2.388 . S
O21 C2 1.257 . S
O22 Gd0 2.448 . S
O22 C3 1.249 . S
O23 Gd0 2.506 . S
O23 C3 1.252 . S
O24 Gd0 2.435 1_556 S
O24 C10 1.256 . S
O25 Gd0 2.717 1_556 S
O25 Gd1 2.327 1_556 S
O25 C10 1.257 . S
O26 Gd1 2.377 . S
O26 C11 1.240 . S
O27 Gd0 2.395 . S
O27 C11 1.240 . S
O28 Gd1 2.448 1_655 S
O28 C12 1.249 . S
O29 Gd1 2.506 1_556 S
O29 C12 1.252 1_456 S
O30 Gd1 2.435 . S
O30 C19 1.256 . S
O31 Gd0 2.327 . S
O31 Gd1 2.717 . S
O31 C19 1.257 . S
H32 C5 0.930 . S
H33 C6 0.931 . S
H34 C8 0.931 . S
H35 C9 0.931 . S
H36 C14 0.930 . S
H37 C15 0.931 1_455 S
H38 C17 0.931 . S
H39 C18 0.931 . S
Gd40 C43 2.818 . S
Gd40 O60 2.377 . S
Gd40 O62 2.448 . S
Gd40 O63 2.506 . S
Gd40 O64 2.435 . S
Gd40 O65 2.717 . S
Gd40 O67 2.395 . S
Gd40 O71 2.327 . S
Gd41 C52 2.818 . S
Gd41 O61 2.395 . S
Gd41 O65 2.327 . S
Gd41 O66 2.377 . S
Gd41 O68 2.448 . S
Gd41 O69 2.506 . S
Gd41 O70 2.435 1_554 S
Gd41 O71 2.717 . S
C42 O60 1.240 . S
C42 O61 1.240 . S
C43 Gd40 2.818 . S
C43 C44 1.510 . S
C43 O62 1.249 . S
C43 O63 1.252 . S
C44 C43 1.510 . S
C44 C45 1.404 . S
C44 C46 1.352 . S
C45 C44 1.404 . S
C45 C49 1.389 . S
C45 H72 0.930 . S
C46 C44 1.352 . S
C46 C48 1.374 . S
C46 H73 0.931 . S
C47 C48 1.359 . S
C47 C49 1.364 . S
C48 C46 1.374 . S
C48 C47 1.359 . S
C48 H74 0.931 . S
C49 C45 1.389 . S
C49 C47 1.364 . S
C49 H75 0.931 . S
C50 O64 1.256 . S
C50 O65 1.257 . S
C51 O66 1.240 . S
C51 O67 1.240 . S
C52 Gd41 2.818 . S
C52 C53 1.510 . S
C52 O68 1.249 . S
C52 O69 1.252 . S
C53 C52 1.510 . S
C53 C54 1.404 . S
C53 C55 1.352 . S
C54 C53 1.404 . S
C54 C58 1.389 . S
C54 H76 0.930 . S
C55 C53 1.352 . S
C55 C57 1.374 . S
C55 H77 0.931 . S
C56 C57 1.359 . S
C56 C58 1.364 . S
C57 C55 1.374 . S
C57 C56 1.359 . S
C57 H78 0.931 . S
C58 C54 1.389 . S
C58 C56 1.364 . S
C58 H79 0.931 . S
C59 O70 1.256 . S
C59 O71 1.257 1_556 S
O60 Gd40 2.377 . S
O60 C42 1.240 . S
O61 Gd41 2.395 . S
O61 C42 1.240 . S
O62 Gd40 2.448 . S
O62 C43 1.249 . S
O63 Gd40 2.506 . S
O63 C43 1.252 . S
O64 Gd40 2.435 . S
O64 C50 1.256 . S
O65 Gd40 2.717 . S
O65 Gd41 2.327 . S
O65 C50 1.257 . S
O66 Gd41 2.377 . S
O66 C51 1.240 . S
O67 Gd40 2.395 . S
O67 C51 1.240 . S
O68 Gd41 2.448 . S
O68 C52 1.249 . S
O69 Gd41 2.506 . S
O69 C52 1.252 . S
O70 Gd41 2.435 1_556 S
O70 C59 1.256 . S
O71 Gd40 2.327 . S
O71 Gd41 2.717 . S
O71 C59 1.257 1_554 S
H72 C45 0.930 . S
H73 C46 0.931 . S
H74 C48 0.931 . S
H75 C49 0.931 . S
H76 C54 0.930 . S
H77 C55 0.931 . S
H78 C57 0.931 . S
H79 C58 0.931 . S
Gd80 C83 2.818 . S
Gd80 O100 2.377 . S
Gd80 O102 2.448 . S
Gd80 O103 2.506 . S
Gd80 O104 2.435 1_554 S
Gd80 O105 2.717 . S
Gd80 O107 2.395 . S
Gd80 O111 2.327 . S
Gd81 C92 2.818 . S
Gd81 O101 2.395 . S
Gd81 O105 2.327 . S
Gd81 O106 2.377 . S
Gd81 O108 2.448 . S
Gd81 O109 2.506 . S
Gd81 O110 2.435 . S
Gd81 O111 2.717 . S
C82 O100 1.240 . S
C82 O101 1.240 . S
C83 Gd80 2.818 . S
C83 C84 1.510 . S
C83 O102 1.249 . S
C83 O103 1.252 . S
C84 C83 1.510 . S
C84 C85 1.404 . S
C84 C86 1.352 . S
C85 C84 1.404 . S
C85 C89 1.389 . S
C85 H112 0.930 1_554 S
C86 C84 1.352 . S
C86 C88 1.374 . S
C86 H113 0.931 . S
C87 C88 1.359 . S
C87 C89 1.364 . S
C88 C86 1.374 . S
C88 C87 1.359 . S
C88 H114 0.931 . S
C89 C85 1.389 . S
C89 C87 1.364 . S
C89 H115 0.931 1_544 S
C90 O104 1.256 . S
C90 O105 1.257 1_556 S
C91 O106 1.240 . S
C91 O107 1.240 . S
C92 Gd81 2.818 . S
C92 C93 1.510 . S
C92 O108 1.249 . S
C92 O109 1.252 . S
C93 C92 1.510 . S
C93 C94 1.404 . S
C93 C95 1.352 . S
C94 C93 1.404 . S
C94 C98 1.389 . S
C94 H116 0.930 . S
C95 C93 1.352 . S
C95 C97 1.374 . S
C95 H117 0.931 . S
C96 C97 1.359 . S
C96 C98 1.364 . S
C97 C95 1.374 . S
C97 C96 1.359 . S
C97 H118 0.931 . S
C98 C94 1.389 . S
C98 C96 1.364 . S
C98 H119 0.931 . S
C99 O110 1.256 . S
C99 O111 1.257 . S
O100 Gd80 2.377 . S
O100 C82 1.240 . S
O101 Gd81 2.395 . S
O101 C82 1.240 . S
O102 Gd80 2.448 . S
O102 C83 1.249 . S
O103 Gd80 2.506 . S
O103 C83 1.252 . S
O104 Gd80 2.435 1_556 S
O104 C90 1.256 . S
O105 Gd80 2.717 . S
O105 Gd81 2.327 . S
O105 C90 1.257 1_554 S
O106 Gd81 2.377 . S
O106 C91 1.240 . S
O107 Gd80 2.395 . S
O107 C91 1.240 . S
O108 Gd81 2.448 . S
O108 C92 1.249 . S
O109 Gd81 2.506 . S
O109 C92 1.252 . S
O110 Gd81 2.435 . S
O110 C99 1.256 . S
O111 Gd80 2.327 . S
O111 Gd81 2.717 . S
O111 C99 1.257 . S
H112 C85 0.930 1_556 S
H113 C86 0.931 . S
H114 C88 0.931 . S
H115 C89 0.931 1_566 S
H116 C94 0.930 . S
H117 C95 0.931 . S
H118 C97 0.931 . S
H119 C98 0.931 . S
Gd120 C123 2.818 . S
Gd120 O140 2.377 . S
Gd120 O142 2.448 . S
Gd120 O143 2.506 . S
Gd120 O144 2.435 . S
Gd120 O145 2.717 . S
Gd120 O147 2.395 . S
Gd120 O151 2.327 . S
Gd121 C132 2.818 . S
Gd121 O141 2.395 . S
Gd121 O145 2.327 . S
Gd121 O146 2.377 . S
Gd121 O148 2.448 . S
Gd121 O149 2.506 . S
Gd121 O150 2.435 . S
Gd121 O151 2.717 . S
C122 O140 1.240 . S
C122 O141 1.240 . S
C123 Gd120 2.818 . S
C123 C124 1.510 . S
C123 O142 1.249 . S
C123 O143 1.252 . S
C124 C123 1.510 . S
C124 C125 1.404 . S
C124 C126 1.352 . S
C125 C124 1.404 . S
C125 C129 1.389 . S
C125 H152 0.930 . S
C126 C124 1.352 . S
C126 C128 1.374 . S
C126 H153 0.931 . S
C127 C128 1.359 . S
C127 C129 1.364 . S
C128 C126 1.374 . S
C128 C127 1.359 . S
C128 H154 0.931 . S
C129 C125 1.389 . S
C129 C127 1.364 . S
C129 H155 0.931 . S
C130 O144 1.256 . S
C130 O145 1.257 . S
C131 O146 1.240 . S
C131 O147 1.240 . S
C132 Gd121 2.818 . S
C132 C133 1.510 . S
C132 O148 1.249 . S
C132 O149 1.252 . S
C133 C132 1.510 . S
C133 C134 1.404 . S
C133 C135 1.352 . S
C134 C133 1.404 . S
C134 C138 1.389 . S
C134 H156 0.930 . S
C135 C133 1.352 . S
C135 C137 1.374 1_565 S
C135 H157 0.931 . S
C136 C137 1.359 . S
C136 C138 1.364 1_545 S
C137 C135 1.374 1_545 S
C137 C136 1.359 . S
C137 H158 0.931 . S
C138 C134 1.389 . S
C138 C136 1.364 1_565 S
C138 H159 0.931 . S
C139 O150 1.256 . S
C139 O151 1.257 . S
O140 Gd120 2.377 . S
O140 C122 1.240 . S
O141 Gd121 2.395 . S
O141 C122 1.240 . S
O142 Gd120 2.448 . S
O142 C123 1.249 . S
O143 Gd120 2.506 . S
O143 C123 1.252 . S
O144 Gd120 2.435 . S
O144 C130 1.256 . S
O145 Gd120 2.717 . S
O145 Gd121 2.327 . S
O145 C130 1.257 . S
O146 Gd121 2.377 . S
O146 C131 1.240 . S
O147 Gd120 2.395 . S
O147 C131 1.240 . S
O148 Gd121 2.448 . S
O148 C132 1.249 . S
O149 Gd121 2.506 . S
O149 C132 1.252 . S
O150 Gd121 2.435 . S
O150 C139 1.256 . S
O151 Gd120 2.327 . S
O151 Gd121 2.717 . S
O151 C139 1.257 . S
H152 C125 0.930 . S
H153 C126 0.931 . S
H154 C128 0.931 . S
H155 C129 0.931 . S
H156 C134 0.930 . S
H157 C135 0.931 . S
H158 C137 0.931 . S
H159 C138 0.931 . S
Gd160 C163 2.818 . S
Gd160 O180 2.377 . S
Gd160 O182 2.448 . S
Gd160 O183 2.506 . S
Gd160 O184 2.435 . S
Gd160 O185 2.717 . S
Gd160 O187 2.395 . S
Gd160 O191 2.327 . S
Gd161 C172 2.818 . S
Gd161 O181 2.395 . S
Gd161 O185 2.327 . S
Gd161 O186 2.377 . S
Gd161 O188 2.448 . S
Gd161 O189 2.506 . S
Gd161 O190 2.435 . S
Gd161 O191 2.717 . S
C162 O180 1.240 . S
C162 O181 1.240 . S
C163 Gd160 2.818 . S
C163 C164 1.510 . S
C163 O182 1.249 . S
C163 O183 1.252 . S
C164 C163 1.510 . S
C164 C165 1.404 . S
C164 C166 1.352 . S
C165 C164 1.404 . S
C165 C169 1.389 . S
C165 H192 0.930 . S
C166 C164 1.352 . S
C166 C168 1.374 . S
C166 H193 0.931 . S
C167 C168 1.359 . S
C167 C169 1.364 . S
C168 C166 1.374 . S
C168 C167 1.359 . S
C168 H194 0.931 . S
C169 C165 1.389 . S
C169 C167 1.364 . S
C169 H195 0.931 . S
C170 O184 1.256 . S
C170 O185 1.257 . S
C171 O186 1.240 . S
C171 O187 1.240 . S
C172 Gd161 2.818 . S
C172 C173 1.510 . S
C172 O188 1.249 . S
C172 O189 1.252 . S
C173 C172 1.510 . S
C173 C174 1.404 . S
C173 C175 1.352 . S
C174 C173 1.404 . S
C174 C178 1.389 . S
C174 H196 0.930 . S
C175 C173 1.352 . S
C175 C177 1.374 . S
C175 H197 0.931 . S
C176 C177 1.359 . S
C176 C178 1.364 . S
C177 C175 1.374 . S
C177 C176 1.359 . S
C177 H198 0.931 . S
C178 C174 1.389 . S
C178 C176 1.364 . S
C178 H199 0.931 . S
C179 O190 1.256 . S
C179 O191 1.257 . S
O180 Gd160 2.377 . S
O180 C162 1.240 . S
O181 Gd161 2.395 . S
O181 C162 1.240 . S
O182 Gd160 2.448 . S
O182 C163 1.249 . S
O183 Gd160 2.506 . S
O183 C163 1.252 . S
O184 Gd160 2.435 . S
O184 C170 1.256 . S
O185 Gd160 2.717 . S
O185 Gd161 2.327 . S
O185 C170 1.257 . S
O186 Gd161 2.377 . S
O186 C171 1.240 . S
O187 Gd160 2.395 . S
O187 C171 1.240 . S
O188 Gd161 2.448 . S
O188 C172 1.249 . S
O189 Gd161 2.506 . S
O189 C172 1.252 . S
O190 Gd161 2.435 . S
O190 C179 1.256 . S
O191 Gd160 2.327 . S
O191 Gd161 2.717 . S
O191 C179 1.257 . S
H192 C165 0.930 . S
H193 C166 0.931 . S
H194 C168 0.931 . S
H195 C169 0.931 . S
H196 C174 0.930 . S
H197 C175 0.931 . S
H198 C177 0.931 . S
H199 C178 0.931 . S
Gd200 C203 2.818 . S
Gd200 O220 2.377 . S
Gd200 O222 2.448 . S
Gd200 O223 2.506 . S
Gd200 O224 2.435 . S
Gd200 O225 2.717 . S
Gd200 O227 2.395 . S
Gd200 O231 2.327 . S
Gd201 C212 2.818 . S
Gd201 O221 2.395 . S
Gd201 O225 2.327 . S
Gd201 O226 2.377 . S
Gd201 O228 2.448 . S
Gd201 O229 2.506 . S
Gd201 O230 2.435 . S
Gd201 O231 2.717 . S
C202 O220 1.240 . S
C202 O221 1.240 . S
C203 Gd200 2.818 . S
C203 C204 1.510 . S
C203 O222 1.249 . S
C203 O223 1.252 . S
C204 C203 1.510 . S
C204 C205 1.404 . S
C204 C206 1.352 . S
C205 C204 1.404 . S
C205 C209 1.389 . S
C205 H232 0.930 . S
C206 C204 1.352 . S
C206 C208 1.374 . S
C206 H233 0.931 . S
C207 C208 1.359 . S
C207 C209 1.364 . S
C208 C206 1.374 . S
C208 C207 1.359 . S
C208 H234 0.931 . S
C209 C205 1.389 . S
C209 C207 1.364 . S
C209 H235 0.931 . S
C210 O224 1.256 . S
C210 O225 1.257 . S
C211 O226 1.240 . S
C211 O227 1.240 . S
C212 Gd201 2.818 . S
C212 C213 1.510 . S
C212 O228 1.249 . S
C212 O229 1.252 . S
C213 C212 1.510 . S
C213 C214 1.404 . S
C213 C215 1.352 . S
C214 C213 1.404 . S
C214 C218 1.389 . S
C214 H236 0.930 . S
C215 C213 1.352 . S
C215 C217 1.374 . S
C215 H237 0.931 . S
C216 C217 1.359 . S
C216 C218 1.364 . S
C217 C215 1.374 . S
C217 C216 1.359 . S
C217 H238 0.931 . S
C218 C214 1.389 . S
C218 C216 1.364 . S
C218 H239 0.931 . S
C219 O230 1.256 . S
C219 O231 1.257 . S
O220 Gd200 2.377 . S
O220 C202 1.240 . S
O221 Gd201 2.395 . S
O221 C202 1.240 . S
O222 Gd200 2.448 . S
O222 C203 1.249 . S
O223 Gd200 2.506 . S
O223 C203 1.252 . S
O224 Gd200 2.435 . S
O224 C210 1.256 . S
O225 Gd200 2.717 . S
O225 Gd201 2.327 . S
O225 C210 1.257 . S
O226 Gd201 2.377 . S
O226 C211 1.240 . S
O227 Gd200 2.395 . S
O227 C211 1.240 . S
O228 Gd201 2.448 . S
O228 C212 1.249 . S
O229 Gd201 2.506 . S
O229 C212 1.252 . S
O230 Gd201 2.435 . S
O230 C219 1.256 . S
O231 Gd200 2.327 . S
O231 Gd201 2.717 . S
O231 C219 1.257 . S
H232 C205 0.930 . S
H233 C206 0.931 . S
H234 C208 0.931 . S
H235 C209 0.931 . S
H236 C214 0.930 . S
H237 C215 0.931 . S
H238 C217 0.931 . S
H239 C218 0.931 . S
Gd240 C243 2.818 . S
Gd240 O260 2.377 . S
Gd240 O262 2.448 . S
Gd240 O263 2.506 . S
Gd240 O264 2.435 . S
Gd240 O265 2.717 . S
Gd240 O267 2.395 . S
Gd240 O271 2.327 . S
Gd241 C252 2.818 . S
Gd241 O261 2.395 . S
Gd241 O265 2.327 . S
Gd241 O266 2.377 . S
Gd241 O268 2.448 . S
Gd241 O269 2.506 . S
Gd241 O270 2.435 . S
Gd241 O271 2.717 . S
C242 O260 1.240 . S
C242 O261 1.240 . S
C243 Gd240 2.818 . S
C243 C244 1.510 . S
C243 O262 1.249 . S
C243 O263 1.252 . S
C244 C243 1.510 . S
C244 C245 1.404 . S
C244 C246 1.352 . S
C245 C244 1.404 . S
C245 C249 1.389 . S
C245 H272 0.930 . S
C246 C244 1.352 . S
C246 C248 1.374 . S
C246 H273 0.931 . S
C247 C248 1.359 . S
C247 C249 1.364 . S
C248 C246 1.374 . S
C248 C247 1.359 . S
C248 H274 0.931 . S
C249 C245 1.389 . S
C249 C247 1.364 . S
C249 H275 0.931 . S
C250 O264 1.256 . S
C250 O265 1.257 . S
C251 O266 1.240 . S
C251 O267 1.240 . S
C252 Gd241 2.818 . S
C252 C253 1.510 1_556 S
C252 O268 1.249 . S
C252 O269 1.252 . S
C253 C252 1.510 1_554 S
C253 C254 1.404 . S
C253 C255 1.352 . S
C254 C253 1.404 . S
C254 C258 1.389 . S
C254 H276 0.930 . S
C255 C253 1.352 . S
C255 C257 1.374 . S
C255 H277 0.931 . S
C256 C257 1.359 . S
C256 C258 1.364 . S
C257 C255 1.374 . S
C257 C256 1.359 . S
C257 H278 0.931 . S
C258 C254 1.389 . S
C258 C256 1.364 . S
C258 H279 0.931 . S
C259 O270 1.256 . S
C259 O271 1.257 . S
O260 Gd240 2.377 . S
O260 C242 1.240 . S
O261 Gd241 2.395 . S
O261 C242 1.240 . S
O262 Gd240 2.448 . S
O262 C243 1.249 . S
O263 Gd240 2.506 . S
O263 C243 1.252 . S
O264 Gd240 2.435 . S
O264 C250 1.256 . S
O265 Gd240 2.717 . S
O265 Gd241 2.327 . S
O265 C250 1.257 . S
O266 Gd241 2.377 . S
O266 C251 1.240 . S
O267 Gd240 2.395 . S
O267 C251 1.240 . S
O268 Gd241 2.448 . S
O268 C252 1.249 . S
O269 Gd241 2.506 . S
O269 C252 1.252 . S
O270 Gd241 2.435 . S
O270 C259 1.256 . S
O271 Gd240 2.327 . S
O271 Gd241 2.717 . S
O271 C259 1.257 . S
H272 C245 0.930 . S
H273 C246 0.931 . S
H274 C248 0.931 . S
H275 C249 0.931 . S
H276 C254 0.930 . S
H277 C255 0.931 . S
H278 C257 0.931 . S
H279 C258 0.931 . S
Gd280 C283 2.818 . S
Gd280 O300 2.377 . S
Gd280 O302 2.448 . S
Gd280 O303 2.506 . S
Gd280 O304 2.435 . S
Gd280 O305 2.717 . S
Gd280 O307 2.395 . S
Gd280 O311 2.327 . S
Gd281 C292 2.818 . S
Gd281 O301 2.395 . S
Gd281 O305 2.327 . S
Gd281 O306 2.377 . S
Gd281 O308 2.448 . S
Gd281 O309 2.506 . S
Gd281 O310 2.435 . S
Gd281 O311 2.717 . S
C282 O300 1.240 . S
C282 O301 1.240 . S
C283 Gd280 2.818 . S
C283 C284 1.510 1_556 S
C283 O302 1.249 . S
C283 O303 1.252 . S
C284 C283 1.510 1_554 S
C284 C285 1.404 . S
C284 C286 1.352 . S
C285 C284 1.404 . S
C285 C289 1.389 . S
C285 H312 0.930 . S
C286 C284 1.352 . S
C286 C288 1.374 . S
C286 H313 0.931 . S
C287 C288 1.359 . S
C287 C289 1.364 . S
C288 C286 1.374 . S
C288 C287 1.359 . S
C288 H314 0.931 . S
C289 C285 1.389 . S
C289 C287 1.364 . S
C289 H315 0.931 . S
C290 O304 1.256 . S
C290 O305 1.257 . S
C291 O306 1.240 . S
C291 O307 1.240 . S
C292 Gd281 2.818 . S
C292 C293 1.510 . S
C292 O308 1.249 . S
C292 O309 1.252 . S
C293 C292 1.510 . S
C293 C294 1.404 . S
C293 C295 1.352 . S
C294 C293 1.404 . S
C294 C298 1.389 . S
C294 H316 0.930 . S
C295 C293 1.352 . S
C295 C297 1.374 . S
C295 H317 0.931 . S
C296 C297 1.359 . S
C296 C298 1.364 . S
C297 C295 1.374 . S
C297 C296 1.359 . S
C297 H318 0.931 . S
C298 C294 1.389 . S
C298 C296 1.364 . S
C298 H319 0.931 . S
C299 O310 1.256 . S
C299 O311 1.257 . S
O300 Gd280 2.377 . S
O300 C282 1.240 . S
O301 Gd281 2.395 . S
O301 C282 1.240 . S
O302 Gd280 2.448 . S
O302 C283 1.249 . S
O303 Gd280 2.506 . S
O303 C283 1.252 . S
O304 Gd280 2.435 . S
O304 C290 1.256 . S
O305 Gd280 2.717 . S
O305 Gd281 2.327 . S
O305 C290 1.257 . S
O306 Gd281 2.377 . S
O306 C291 1.240 . S
O307 Gd280 2.395 . S
O307 C291 1.240 . S
O308 Gd281 2.448 . S
O308 C292 1.249 . S
O309 Gd281 2.506 . S
O309 C292 1.252 . S
O310 Gd281 2.435 . S
O310 C299 1.256 . S
O311 Gd280 2.327 . S
O311 Gd281 2.717 . S
O311 C299 1.257 . S
H312 C285 0.930 . S
H313 C286 0.931 . S
H314 C288 0.931 . S
H315 C289 0.931 . S
H316 C294 0.930 . S
H317 C295 0.931 . S
H318 C297 0.931 . S
H319 C298 0.931 . S
Gd320 C323 2.818 . S
Gd320 O340 2.377 . S
Gd320 O342 2.448 . S
Gd320 O343 2.506 . S
Gd320 O344 2.435 . S
Gd320 O345 2.717 . S
Gd320 O347 2.395 . S
Gd320 O351 2.327 . S
Gd321 C332 2.818 . S
Gd321 O341 2.395 . S
Gd321 O345 2.327 . S
Gd321 O346 2.377 . S
Gd321 O348 2.448 . S
Gd321 O349 2.506 . S
Gd321 O350 2.435 . S
Gd321 O351 2.717 . S
C322 O340 1.240 . S
C322 O341 1.240 . S
C323 Gd320 2.818 . S
C323 C324 1.510 . S
C323 O342 1.249 . S
C323 O343 1.252 . S
C324 C323 1.510 . S
C324 C325 1.404 . S
C324 C326 1.352 . S
C325 C324 1.404 . S
C325 C329 1.389 . S
C325 H352 0.930 . S
C326 C324 1.352 . S
C326 C328 1.374 . S
C326 H353 0.931 . S
C327 C328 1.359 . S
C327 C329 1.364 . S
C328 C326 1.374 . S
C328 C327 1.359 . S
C328 H354 0.931 . S
C329 C325 1.389 . S
C329 C327 1.364 . S
C329 H355 0.931 . S
C330 O344 1.256 . S
C330 O345 1.257 . S
C331 O346 1.240 . S
C331 O347 1.240 . S
C332 Gd321 2.818 . S
C332 C333 1.510 1_556 S
C332 O348 1.249 . S
C332 O349 1.252 . S
C333 C332 1.510 1_554 S
C333 C334 1.404 . S
C333 C335 1.352 . S
C334 C333 1.404 . S
C334 C338 1.389 . S
C334 H356 0.930 . S
C335 C333 1.352 . S
C335 C337 1.374 . S
C335 H357 0.931 . S
C336 C337 1.359 . S
C336 C338 1.364 . S
C337 C335 1.374 . S
C337 C336 1.359 . S
C337 H358 0.931 . S
C338 C334 1.389 . S
C338 C336 1.364 . S
C338 H359 0.931 . S
C339 O350 1.256 . S
C339 O351 1.257 . S
O340 Gd320 2.377 . S
O340 C322 1.240 . S
O341 Gd321 2.395 . S
O341 C322 1.240 . S
O342 Gd320 2.448 . S
O342 C323 1.249 . S
O343 Gd320 2.506 . S
O343 C323 1.252 . S
O344 Gd320 2.435 . S
O344 C330 1.256 . S
O345 Gd320 2.717 . S
O345 Gd321 2.327 . S
O345 C330 1.257 . S
O346 Gd321 2.377 . S
O346 C331 1.240 . S
O347 Gd320 2.395 . S
O347 C331 1.240 . S
O348 Gd321 2.448 . S
O348 C332 1.249 . S
O349 Gd321 2.506 . S
O349 C332 1.252 . S
O350 Gd321 2.435 . S
O350 C339 1.256 . S
O351 Gd320 2.327 . S
O351 Gd321 2.717 . S
O351 C339 1.257 . S
H352 C325 0.930 . S
H353 C326 0.931 . S
H354 C328 0.931 . S
H355 C329 0.931 . S
H356 C334 0.930 . S
H357 C335 0.931 . S
H358 C337 0.931 . S
H359 C338 0.931 . S
C360 C361 1.369 . S
C360 C362 1.419 . S
C360 H364 0.930 . S
C361 C360 1.369 . S
C361 C370 1.429 . S
C362 C360 1.419 . S
C362 C363 1.363 . S
C362 H365 0.929 . S
C363 C362 1.363 . S
C363 C369 1.428 . S
H364 C360 0.930 . S
H365 C362 0.929 . S
S366 N367 1.613 . S
S366 N368 1.610 . S
N367 S366 1.613 . S
N367 C370 1.350 . S
N368 S366 1.610 . S
N368 C369 1.351 . S
C369 C363 1.428 . S
C369 N368 1.351 . S
C369 C370 1.434 . S
C370 C361 1.429 . S
C370 N367 1.350 . S
C370 C369 1.434 . S
C371 C372 1.369 . S
C371 C373 1.419 . S
C371 H375 0.930 . S
C372 C371 1.369 . S
C372 C381 1.429 . S
C373 C371 1.419 . S
C373 C374 1.363 . S
C373 H376 0.929 . S
C374 C373 1.363 . S
C374 C380 1.428 . S
H375 C371 0.930 . S
H376 C373 0.929 . S
S377 N378 1.613 . S
S377 N379 1.610 . S
N378 S377 1.613 . S
N378 C381 1.350 . S
N379 S377 1.610 . S
N379 C380 1.351 . S
C380 C374 1.428 . S
C380 N379 1.351 . S
C380 C381 1.434 . S
C381 C372 1.429 . S
C381 N378 1.350 . S
C381 C380 1.434 . S
C382 C383 1.369 . S
C382 C384 1.419 . S
C382 H386 0.930 . S
C383 C382 1.369 . S
C383 C392 1.429 . S
C384 C382 1.419 . S
C384 C385 1.363 . S
C384 H387 0.929 . S
C385 C384 1.363 . S
C385 C391 1.428 . S
H386 C382 0.930 . S
H387 C384 0.929 . S
S388 N389 1.613 . S
S388 N390 1.610 . S
N389 S388 1.613 . S
N389 C392 1.350 . S
N390 S388 1.610 . S
N390 C391 1.351 . S
C391 C385 1.428 . S
C391 N390 1.351 . S
C391 C392 1.434 . S
C392 C383 1.429 . S
C392 N389 1.350 . S
C392 C391 1.434 . S
C393 C394 1.369 . S
C393 C395 1.419 . S
C393 H397 0.930 . S
C394 C393 1.369 . S
C394 C403 1.429 . S
C395 C393 1.419 . S
C395 C396 1.363 . S
C395 H398 0.929 . S
C396 C395 1.363 . S
C396 C402 1.428 . S
H397 C393 0.930 . S
H398 C395 0.929 . S
S399 N400 1.613 . S
S399 N401 1.610 . S
N400 S399 1.613 . S
N400 C403 1.350 . S
N401 S399 1.610 . S
N401 C402 1.351 . S
C402 C396 1.428 . S
C402 N401 1.351 . S
C402 C403 1.434 . S
C403 C394 1.429 . S
C403 N400 1.350 . S
C403 C402 1.434 . S
C404 C405 1.369 . S
C404 C406 1.419 . S
C404 H408 0.930 . S
C405 C404 1.369 . S
C405 C414 1.429 . S
C406 C404 1.419 . S
C406 C407 1.363 . S
C406 H409 0.929 . S
C407 C406 1.363 . S
C407 C413 1.428 . S
H408 C404 0.930 . S
H409 C406 0.929 . S
S410 N411 1.613 . S
S410 N412 1.610 . S
N411 S410 1.613 . S
N411 C414 1.350 . S
N412 S410 1.610 . S
N412 C413 1.351 . S
C413 C407 1.428 . S
C413 N412 1.351 . S
C413 C414 1.434 . S
C414 C405 1.429 . S
C414 N411 1.350 . S
C414 C413 1.434 . S
C415 C416 1.369 . S
C415 C417 1.419 . S
C415 H419 0.930 . S
C416 C415 1.369 . S
C416 C425 1.429 . S
C417 C415 1.419 . S
C417 C418 1.363 . S
C417 H420 0.929 . S
C418 C417 1.363 . S
C418 C424 1.428 . S
H419 C415 0.930 . S
H420 C417 0.929 . S
S421 N422 1.613 . S
S421 N423 1.610 . S
N422 S421 1.613 . S
N422 C425 1.350 . S
N423 S421 1.610 . S
N423 C424 1.351 . S
C424 C418 1.428 . S
C424 N423 1.351 . S
C424 C425 1.434 . S
C425 C416 1.429 . S
C425 N422 1.350 . S
C425 C424 1.434 . S
C426 C427 1.369 . S
C426 C428 1.419 . S
C426 H430 0.930 . S
C427 C426 1.369 . S
C427 C436 1.429 . S
C428 C426 1.419 . S
C428 C429 1.363 . S
C428 H431 0.929 . S
C429 C428 1.363 . S
C429 C435 1.428 . S
H430 C426 0.930 . S
H431 C428 0.929 . S
S432 N433 1.613 . S
S432 N434 1.610 . S
N433 S432 1.613 . S
N433 C436 1.350 . S
N434 S432 1.610 . S
N434 C435 1.351 . S
C435 C429 1.428 . S
C435 N434 1.351 . S
C435 C436 1.434 . S
C436 C427 1.429 . S
C436 N433 1.350 . S
C436 C435 1.434 . S
C437 C438 1.369 . S
C437 C439 1.419 . S
C437 H441 0.930 . S
C438 C437 1.369 . S
C438 C447 1.429 . S
C439 C437 1.419 . S
C439 C440 1.363 . S
C439 H442 0.929 . S
C440 C439 1.363 . S
C440 C446 1.428 . S
H441 C437 0.930 . S
H442 C439 0.929 . S
S443 N444 1.613 . S
S443 N445 1.610 . S
N444 S443 1.613 . S
N444 C447 1.350 . S
N445 S443 1.610 . S
N445 C446 1.351 . S
C446 C440 1.428 . S
C446 N445 1.351 . S
C446 C447 1.434 . S
C447 C438 1.429 . S
C447 N444 1.350 . S
C447 C446 1.434 . S
C448 C449 1.369 . S
C448 C450 1.419 . S
C448 H452 0.930 . S
C449 C448 1.369 . S
C449 C458 1.429 . S
C450 C448 1.419 . S
C450 C451 1.363 . S
C450 H453 0.929 . S
C451 C450 1.363 . S
C451 C457 1.428 . S
H452 C448 0.930 . S
H453 C450 0.929 . S
S454 N455 1.613 . S
S454 N456 1.610 . S
N455 S454 1.613 . S
N455 C458 1.350 . S
N456 S454 1.610 . S
N456 C457 1.351 . S
C457 C451 1.428 . S
C457 N456 1.351 . S
C457 C458 1.434 . S
C458 C449 1.429 . S
C458 N455 1.350 . S
C458 C457 1.434 . S
C459 C460 1.369 . S
C459 C461 1.419 . S
C459 H463 0.930 . S
C460 C459 1.369 . S
C460 C469 1.429 . S
C461 C459 1.419 . S
C461 C462 1.363 . S
C461 H464 0.929 . S
C462 C461 1.363 . S
C462 C468 1.428 . S
H463 C459 0.930 . S
H464 C461 0.929 . S
S465 N466 1.613 . S
S465 N467 1.610 . S
N466 S465 1.613 . S
N466 C469 1.350 . S
N467 S465 1.610 . S
N467 C468 1.351 . S
C468 C462 1.428 . S
C468 N467 1.351 . S
C468 C469 1.434 . S
C469 C460 1.429 . S
C469 N466 1.350 . S
C469 C468 1.434 . S
C470 C471 1.369 . S
C470 C472 1.419 . S
C470 H474 0.930 . S
C471 C470 1.369 . S
C471 C480 1.429 . S
C472 C470 1.419 . S
C472 C473 1.363 . S
C472 H475 0.929 . S
C473 C472 1.363 . S
C473 C479 1.428 . S
H474 C470 0.930 . S
H475 C472 0.929 . S
S476 N477 1.613 . S
S476 N478 1.610 . S
N477 S476 1.613 . S
N477 C480 1.350 . S
N478 S476 1.610 . S
N478 C479 1.351 . S
C479 C473 1.428 . S
C479 N478 1.351 . S
C479 C480 1.434 . S
C480 C471 1.429 . S
C480 N477 1.350 . S
C480 C479 1.434 . S
C481 C482 1.369 1_565 S
C481 C483 1.419 . S
C481 H485 0.930 1_565 S
C482 C481 1.369 1_545 S
C482 C491 1.429 . S
C483 C481 1.419 . S
C483 C484 1.363 . S
C483 H486 0.929 . S
C484 C483 1.363 . S
C484 C490 1.428 . S
H485 C481 0.930 1_545 S
H486 C483 0.929 . S
S487 N488 1.613 1_565 S
S487 N489 1.610 . S
N488 S487 1.613 1_545 S
N488 C491 1.350 . S
N489 S487 1.610 . S
N489 C490 1.351 . S
C490 C484 1.428 . S
C490 N489 1.351 . S
C490 C491 1.434 1_565 S
C491 C482 1.429 . S
C491 N488 1.350 . S
C491 C490 1.434 1_545 S
C492 C493 1.369 1_556 S
C492 C494 1.419 . S
C492 H496 0.930 . S
C493 C492 1.369 1_554 S
C493 C502 1.429 . S
C494 C492 1.419 . S
C494 C495 1.363 . S
C494 H497 0.929 . S
C495 C494 1.363 . S
C495 C501 1.428 1_556 S
H496 C492 0.930 . S
H497 C494 0.929 . S
S498 N499 1.613 . S
S498 N500 1.610 . S
N499 S498 1.613 . S
N499 C502 1.350 . S
N500 S498 1.610 . S
N500 C501 1.351 . S
C501 C495 1.428 1_554 S
C501 N500 1.351 . S
C501 C502 1.434 . S
C502 C493 1.429 . S
C502 N499 1.350 . S
C502 C501 1.434 . S
C503 C504 1.369 . S
C503 C505 1.419 1_655 S
C503 H507 0.943 . S
C504 C503 1.369 . S
C504 C513 1.429 . S
C505 C503 1.419 1_455 S
C505 C506 1.361 1_455 S
C505 H508 0.929 . S
C506 C505 1.361 1_655 S
C506 C512 1.431 . S
H507 C503 0.943 . S
H508 C505 0.929 . S
S509 N510 1.613 1_554 S
S509 N511 1.610 . S
N510 S509 1.613 1_556 S
N510 C513 1.350 . S
N511 S509 1.610 . S
N511 C512 1.351 1_554 S
C512 C506 1.431 . S
C512 N511 1.351 1_556 S
C512 C513 1.434 . S
C513 C504 1.429 . S
C513 N510 1.350 . S
C513 C512 1.434 . S
C514 C515 1.369 . S
C514 C516 1.419 1_556 S
C514 H518 0.930 . S
C515 C514 1.369 . S
C515 C524 1.429 . S
C516 C514 1.419 1_554 S
C516 C517 1.363 . S
C516 H519 0.929 . S
C517 C516 1.363 . S
C517 C523 1.428 1_554 S
H518 C514 0.930 . S
H519 C516 0.929 . S
S520 N521 1.613 . S
S520 N522 1.610 . S
N521 S520 1.613 . S
N521 C524 1.350 . S
N522 S520 1.610 . S
N522 C523 1.351 . S
C523 C517 1.428 1_556 S
C523 N522 1.351 . S
C523 C524 1.434 . S
C524 C515 1.429 . S
C524 N521 1.350 . S
C524 C523 1.434 . S
C525 C526 1.369 . S
C525 C527 1.419 . S
C525 H529 0.930 . S
C526 C525 1.369 . S
C526 C535 1.429 . S
C527 C525 1.419 . S
C527 C528 1.363 . S
C527 H530 0.929 . S
C528 C527 1.363 . S
C528 C534 1.428 . S
H529 C525 0.930 . S
H530 C527 0.929 . S
S531 N532 1.613 . S
S531 N533 1.610 . S
N532 S531 1.613 . S
N532 C535 1.350 . S
N533 S531 1.610 . S
N533 C534 1.351 . S
C534 C528 1.428 . S
C534 N533 1.351 . S
C534 C535 1.434 . S
C535 C526 1.429 . S
C535 N532 1.350 . S
C535 C534 1.434 . S
C536 C537 1.369 . S
C536 C538 1.419 . S
C536 H540 0.930 . S
C537 C536 1.369 . S
C537 C546 1.429 1_556 S
C538 C536 1.419 . S
C538 C539 1.363 . S
C538 H541 0.929 . S
C539 C538 1.363 . S
C539 C545 1.428 . S
H540 C536 0.930 . S
H541 C538 0.929 . S
S542 N543 1.613 . S
S542 N544 1.610 1_554 S
N543 S542 1.613 . S
N543 C546 1.350 . S
N544 S542 1.610 1_556 S
N544 C545 1.351 . S
C545 C539 1.428 . S
C545 N544 1.351 . S
C545 C546 1.434 1_556 S
C546 C537 1.429 1_554 S
C546 N543 1.350 . S
C546 C545 1.434 1_554 S
C547 C548 1.369 . S
C547 C549 1.419 1_556 S
C547 H551 0.930 . S
C548 C547 1.369 . S
C548 C557 1.429 . S
C549 C547 1.419 1_554 S
C549 C550 1.363 . S
C549 H552 0.929 . S
C550 C549 1.363 . S
C550 C556 1.428 1_554 S
H551 C547 0.930 . S
H552 C549 0.929 . S
S553 N554 1.613 . S
S553 N555 1.610 . S
N554 S553 1.613 . S
N554 C557 1.350 . S
N555 S553 1.610 . S
N555 C556 1.351 . S
C556 C550 1.428 1_556 S
C556 N555 1.351 . S
C556 C557 1.434 . S
C557 C548 1.429 . S
C557 N554 1.350 . S
C557 C556 1.434 . S
C558 C559 1.369 . S
C558 C560 1.419 . S
C558 H562 0.930 . S
C559 C558 1.369 . S
C559 C568 1.429 . S
C560 C558 1.419 . S
C560 C561 1.363 . S
C560 H563 0.929 . S
C561 C560 1.363 . S
C561 C567 1.428 . S
H562 C558 0.930 . S
H563 C560 0.929 . S
S564 N565 1.613 . S
S564 N566 1.610 . S
N565 S564 1.613 . S
N565 C568 1.350 . S
N566 S564 1.610 . S
N566 C567 1.351 . S
C567 C561 1.428 . S
C567 N566 1.351 . S
C567 C568 1.434 . S
C568 C559 1.429 . S
C568 N565 1.350 . S
C568 C567 1.434 . S
C569 C570 1.369 . S
C569 C571 1.419 . S
C569 H573 0.930 . S
C570 C569 1.369 . S
C570 C579 1.429 . S
C571 C569 1.419 . S
C571 C572 1.363 . S
C571 H574 0.929 . S
C572 C571 1.363 . S
C572 C578 1.428 . S
H573 C569 0.930 . S
H574 C571 0.929 . S
S575 N576 1.613 . S
S575 N577 1.610 . S
N576 S575 1.613 . S
N576 C579 1.350 1_556 S
N577 S575 1.610 . S
N577 C578 1.351 1_556 S
C578 C572 1.428 . S
C578 N577 1.351 1_554 S
C578 C579 1.434 . S
C579 C570 1.429 . S
C579 N576 1.350 1_554 S
C579 C578 1.434 . S
C580 C581 1.369 . S
C580 C582 1.419 . S
C580 H584 0.930 . S
C581 C580 1.369 . S
C581 C590 1.429 . S
C582 C580 1.419 . S
C582 C583 1.363 . S
C582 H585 0.929 . S
C583 C582 1.363 . S
C583 C589 1.428 . S
H584 C580 0.930 . S
H585 C582 0.929 . S
S586 N587 1.613 . S
S586 N588 1.610 1_556 S
N587 S586 1.613 . S
N587 C590 1.350 1_556 S
N588 S586 1.610 1_554 S
N588 C589 1.351 . S
C589 C583 1.428 . S
C589 N588 1.351 . S
C589 C590 1.434 . S
C590 C581 1.429 . S
C590 N587 1.350 1_554 S
C590 C589 1.434 . S
C591 C592 1.369 . S
C591 C593 1.419 . S
C591 H595 0.930 . S
C592 C591 1.369 . S
C592 C601 1.429 . S
C593 C591 1.419 . S
C593 C594 1.363 . S
C593 H596 0.929 . S
C594 C593 1.363 . S
C594 C600 1.428 . S
H595 C591 0.930 . S
H596 C593 0.929 . S
S597 N598 1.613 . S
S597 N599 1.610 . S
N598 S597 1.613 . S
N598 C601 1.350 . S
N599 S597 1.610 . S
N599 C600 1.351 . S
C600 C594 1.428 . S
C600 N599 1.351 . S
C600 C601 1.434 . S
C601 C592 1.429 . S
C601 N598 1.350 . S
C601 C600 1.434 . S
C602 C603 1.369 . S
C602 C604 1.419 1_545 S
C602 H606 0.943 . S
C603 C602 1.369 . S
C603 C612 1.429 . S
C604 C602 1.419 1_565 S
C604 C605 1.363 . S
C604 H607 0.929 . S
C605 C604 1.363 . S
C605 C611 1.428 1_565 S
H606 C602 0.943 . S
H607 C604 0.929 . S
S608 N609 1.613 . S
S608 N610 1.610 . S
N609 S608 1.613 . S
N609 C612 1.350 . S
N610 S608 1.610 . S
N610 C611 1.351 . S
C611 C605 1.428 1_545 S
C611 N610 1.351 . S
C611 C612 1.434 . S
C612 C603 1.429 . S
C612 N609 1.350 . S
C612 C611 1.434 . S
C613 C614 1.369 . S
C613 C615 1.419 . S
C613 H617 0.930 . S
C614 C613 1.369 . S
C614 C623 1.429 . S
C615 C613 1.419 . S
C615 C616 1.363 1_655 S
C615 H618 0.929 . S
C616 C615 1.363 1_455 S
C616 C622 1.425 1_455 S
H617 C613 0.930 . S
H618 C615 0.929 . S
S619 N620 1.613 . S
S619 N621 1.610 . S
N620 S619 1.613 . S
N620 C623 1.350 . S
N621 S619 1.610 . S
N621 C622 1.351 . S
C622 C616 1.425 1_655 S
C622 N621 1.351 . S
C622 C623 1.434 . S
C623 C614 1.429 . S
C623 N620 1.350 . S
C623 C622 1.434 . S
C624 C625 1.369 . S
C624 C626 1.419 . S
C624 H628 0.930 . S
C625 C624 1.369 . S
C625 C634 1.429 . S
C626 C624 1.419 . S
C626 C627 1.363 . S
C626 H629 0.929 . S
C627 C626 1.363 . S
C627 C633 1.428 . S
H628 C624 0.930 . S
H629 C626 0.929 . S
S630 N631 1.613 . S
S630 N632 1.610 . S
N631 S630 1.613 . S
N631 C634 1.350 . S
N632 S630 1.610 . S
N632 C633 1.351 . S
C633 C627 1.428 . S
C633 N632 1.351 . S
C633 C634 1.434 . S
C634 C625 1.429 . S
C634 N631 1.350 . S
C634 C633 1.434 . S
C635 C636 1.369 . S
C635 C637 1.419 1_565 S
C635 H639 0.930 . S
C636 C635 1.369 . S
C636 C645 1.429 1_565 S
C637 C635 1.419 1_545 S
C637 C638 1.363 . S
C637 H640 0.929 . S
C638 C637 1.363 . S
C638 C644 1.428 . S
H639 C635 0.930 . S
H640 C637 0.929 . S
S641 N642 1.613 . S
S641 N643 1.610 . S
N642 S641 1.613 . S
N642 C645 1.350 . S
N643 S641 1.610 . S
N643 C644 1.351 . S
C644 C638 1.428 . S
C644 N643 1.351 . S
C644 C645 1.434 . S
C645 C636 1.429 1_545 S
C645 N642 1.350 . S
C645 C644 1.434 . S
C646 C647 1.369 . S
C646 C648 1.419 . S
C646 H650 0.930 . S
C647 C646 1.369 . S
C647 C656 1.429 1_655 S
C648 C646 1.419 . S
C648 C649 1.363 . S
C648 H651 0.929 . S
C649 C648 1.363 . S
C649 C655 1.428 1_655 S
H650 C646 0.930 . S
H651 C648 0.929 . S
S652 N653 1.613 . S
S652 N654 1.610 . S
N653 S652 1.613 . S
N653 C656 1.350 . S
N654 S652 1.610 . S
N654 C655 1.351 . S
C655 C649 1.428 1_455 S
C655 N654 1.351 . S
C655 C656 1.434 . S
C656 C647 1.429 1_455 S
C656 N653 1.350 . S
C656 C655 1.434 . S
C361 C10 3.630 . S
C363 C19 3.631 . S
C372 C59 3.723 . S
C374 C50 3.724 . S
C383 C90 3.767 . S
C385 C99 3.767 . S
C394 C139 3.630 . S
C396 C130 3.631 1_556 S
C405 C170 3.724 . S
C407 C179 3.723 1_556 S
C416 C219 3.766 . S
C418 C210 3.768 1_556 S
C427 C247 0.331 . S
C429 C256 0.307 . S
C438 C296 0.345 . S
C440 C287 0.327 . S
C449 C327 0.577 . S
C451 C336 0.586 . S
C460 C202 1.625 . S
C462 C7 1.635 . S
C471 C42 2.666 . S
C473 C122 2.705 . S
C482 C87 1.197 . S
C484 C167 1.201 . S
C493 C82 3.090 . S
C495 C251 3.252 . S
C504 C299 1.396 . S
C506 C2 1.297 1_656 S
C515 C331 2.194 . S
C517 C47 1.962 . S
C526 C330 1.162 . S
C528 C16 1.036 . S
C537 C51 2.381 1_556 S
C539 C250 2.456 . S
C548 C282 3.114 . S
C550 C96 2.838 . S
C559 C91 1.622 . S
C561 C136 1.637 . S
C570 C171 2.667 . S
C572 C11 2.705 . S
C581 C56 1.211 . S
C583 C216 1.185 . S
C592 C339 1.162 . S
C594 C127 1.037 . S
C603 C259 2.453 . S
C605 C162 2.381 . S
C614 C291 3.112 . S
C616 C207 2.847 . S
C625 C242 3.251 . S
C627 C211 3.092 . S
C636 C131 1.300 . S
C638 C290 1.396 . S
C647 C322 2.194 . S
C649 C176 1.962 1_655 S
