# Generated by pormake.
# Topology dft, (4)-cn, num edge types: 1
# Building blocks:
#     Node 0, Type 0, BuildingBlock: UXUYUI_clean_sbu_0, # of connection points: 4
#     Node 1, Type 0, BuildingBlock: UXUYUI_clean_sbu_0, # of connection points: 4
#     Node 2, Type 0, BuildingBlock: UXUYUI_clean_sbu_0, # of connection points: 4
#     Node 3, Type 0, BuildingBlock: UXUYUI_clean_sbu_0, # of connection points: 4
#     Node 4, Type 0, BuildingBlock: UXUYUI_clean_sbu_0, # of connection points: 4
#     Node 5, Type 0, BuildingBlock: UXUYUI_clean_sbu_0, # of connection points: 4
#     Node 6, Type 0, BuildingBlock: UXUYUI_clean_sbu_0, # of connection points: 4
#     Node 7, Type 0, BuildingBlock: UXUYUI_clean_sbu_0, # of connection points: 4
#     Edge 8, Type (0, 0), None
#     Edge 9, Type (0, 0), None
#     Edge 10, Type (0, 0), None
#     Edge 11, Type (0, 0), None
#     Edge 12, Type (0, 0), None
#     Edge 13, Type (0, 0), None
#     Edge 14, Type (0, 0), None
#     Edge 15, Type (0, 0), None
#     Edge 16, Type (0, 0), None
#     Edge 17, Type (0, 0), None
#     Edge 18, Type (0, 0), None
#     Edge 19, Type (0, 0), None
#     Edge 20, Type (0, 0), None
#     Edge 21, Type (0, 0), None
#     Edge 22, Type (0, 0), None
#     Edge 23, Type (0, 0), None
# Relax obj value: 0.226
# Max RMSD: 0.178
# Mean RMSD: 0.177
data_MOF--net-dft--node1-UXUYUI_clean_sbu_0--edge1-none
_symmetry_space_group_name_H-M    P1
_symmetry_Int_Tables_number       1
_symmetry_cell_setting            triclinic
loop_
_symmetry_equiv_pos_as_xyz
'x, y, z'
_cell_length_a     31.677391
_cell_length_b     31.624006
_cell_length_c     36.810402
_cell_angle_alpha  89.999983
_cell_angle_beta   89.999998
_cell_angle_gamma 90.000003
loop_
_atom_site_label
_atom_site_type_symbol
_atom_site_fract_x
_atom_site_fract_y
_atom_site_fract_z
_atom_type_partial_charge
Li0 Li 0.26596 0.03832 0.20232 0.0
Li1 Li 0.33045 0.99811 0.19913 0.0
Li2 Li 0.28184 0.99907 0.14649 0.0
Li3 Li 0.26345 0.96002 0.20297 0.0
C4 C 0.33171 0.08519 0.16735 0.0
N5 N 0.36861 0.16432 0.16553 0.0
C6 C 0.35438 0.10002 0.1973 0.0
C7 C 0.32808 0.11045 0.13634 0.0
C8 C 0.37274 0.14014 0.19589 0.0
C9 C 0.34687 0.15042 0.13599 0.0
C10 C 0.30395 0.00687 0.27302 0.0
C11 C 0.32767 0.98246 0.33164 0.0
N12 N 0.33504 0.02316 0.34175 0.0
C13 C 0.31123 0.0485 0.28416 0.0
C14 C 0.3117 0.97358 0.29709 0.0
C15 C 0.32715 0.05607 0.31895 0.0
C16 C 0.21134 0.07805 0.24974 0.0
N17 N 0.23695 0.08611 0.22098 0.0
C18 C 0.21346 0.15785 0.21873 0.0
C19 C 0.23863 0.12507 0.20542 0.0
C20 C 0.18615 0.15029 0.24813 0.0
C21 C 0.18565 0.10981 0.26388 0.0
H22 H 0.21015 0.04652 0.26108 0.0
H23 H 0.25847 0.13051 0.18207 0.0
C24 C 0.41197 0.98609 0.17831 0.0
N25 N 0.38957 0.9973 0.20822 0.0
C26 C 0.45586 0.98643 0.17894 0.0
C27 C 0.45327 0.01012 0.24132 0.0
C28 C 0.40916 0.00872 0.23962 0.0
C29 C 0.47723 0.99941 0.21049 0.0
H30 H 0.39554 0.97738 0.15366 0.0
H31 H 0.39084 0.0179 0.26301 0.0
C32 C 0.19637 0.02327 0.15891 0.0
N33 N 0.13201 0.07129 0.12957 0.0
C34 C 0.1543 0.01263 0.1657 0.0
C35 C 0.20574 0.05837 0.13728 0.0
C36 C 0.12219 0.03729 0.15057 0.0
C37 C 0.17276 0.08223 0.12268 0.0
C38 C 0.33203 0.91264 0.17595 0.0
C39 C 0.33995 0.88349 0.14826 0.0
C40 C 0.34646 0.90449 0.21113 0.0
C41 C 0.36193 0.84635 0.15635 0.0
C42 C 0.36836 0.86703 0.21812 0.0
N43 N 0.37555 0.83896 0.19082 0.0
C44 C 0.31418 0.01277 0.07727 0.0
C45 C 0.24434 0.98573 0.07722 0.0
C46 C 0.31462 0.01388 0.0394 0.0
N47 N 0.27935 0.99902 0.09524 0.0
C48 C 0.24332 0.98648 0.03928 0.0
C49 C 0.27885 0.00065 0.01991 0.0
H50 H 0.34159 0.02297 0.09246 0.0
H51 H 0.21725 0.97454 0.0923 0.0
C52 C 0.19453 0.92743 0.23788 0.0
N53 N 0.23067 0.91455 0.22138 0.0
C54 C 0.165 0.89787 0.24981 0.0
C55 C 0.2112 0.84202 0.22901 0.0
C56 C 0.2396 0.87277 0.21686 0.0
C57 C 0.17306 0.85461 0.2451 0.0
H58 H 0.18826 0.96087 0.24095 0.0
H59 H 0.26805 0.86311 0.20308 0.0
O60 O 0.31347 0.04601 0.16803 0.0
O61 O 0.28787 0.99872 0.23925 0.0
O62 O 0.22817 -7e-05 0.17406 0.0
O63 O 0.31104 0.94937 0.16833 0.0
H64 H 0.35789 0.08077 0.22131 0.0
H65 H 0.31068 0.09941 0.11288 0.0
H66 H 0.39033 0.15204 0.21892 0.0
H67 H 0.34416 0.17038 0.11224 0.0
H68 H 0.33404 0.95699 0.35048 0.0
H69 H 0.30466 0.07474 0.26623 0.0
H70 H 0.30531 0.94123 0.28924 0.0
H71 H 0.33316 0.08811 0.32784 0.0
H72 H 0.21494 0.18859 0.20584 0.0
H73 H 0.16447 0.10222 0.28603 0.0
H74 H 0.47281 0.97685 0.15476 0.0
H75 H 0.4683 0.02066 0.26613 0.0
H76 H 0.14654 0.98564 0.1825 0.0
H77 H 0.23813 0.06725 0.13201 0.0
H78 H 0.08947 0.02942 0.15558 0.0
H79 H 0.17955 0.10952 0.10595 0.0
H80 H 0.3292 0.88952 0.12083 0.0
H81 H 0.34093 0.92689 0.23273 0.0
H82 H 0.36821 0.82343 0.13521 0.0
H83 H 0.37967 0.86031 0.24524 0.0
H84 H 0.3425 0.02544 0.02556 0.0
H85 H 0.21533 0.97549 0.02528 0.0
H86 H 0.13602 0.90869 0.26238 0.0
H87 H 0.21822 0.80887 0.22472 0.0
Li88 Li 0.99756 0.29062 0.64736 0.0
Li89 Li 0.99438 0.33388 0.7027 0.0
Li90 Li 0.03306 0.26668 0.70224 0.0
Li91 Li 0.95598 0.26921 0.70077 0.0
C92 C 0.07176 0.33431 0.64863 0.0
N93 N 0.12402 0.36733 0.59563 0.0
C94 C 0.07396 0.37804 0.64328 0.0
C95 C 0.09631 0.30743 0.62714 0.0
C96 C 0.10056 0.3941 0.61633 0.0
C97 C 0.12246 0.32472 0.60044 0.0
C98 C 0.90565 0.31712 0.66328 0.0
C99 C 0.83414 0.32316 0.68515 0.0
N100 N 0.81973 0.30891 0.65256 0.0
C101 C 0.89016 0.30272 0.62996 0.0
C102 C 0.87746 0.32765 0.69107 0.0
C103 C 0.84659 0.29874 0.62509 0.0
C104 C 0.99015 0.2548 0.57757 0.0
N105 N 0.99905 0.2911 0.59573 0.0
C106 C 0.00919 0.32811 0.53985 0.0
C107 C 0.00748 0.3276 0.5777 0.0
C108 C 0.00025 0.29105 0.52006 0.0
C109 C 0.99018 0.25413 0.53964 0.0
H110 H 0.98236 0.22646 0.59258 0.0
H111 H 0.01297 0.35642 0.5927 0.0
C112 C 0.03031 0.40802 0.73328 0.0
N113 N 0.99482 0.39103 0.71853 0.0
C114 C 0.03283 0.45153 0.7395 0.0
C115 C 0.96159 0.45873 0.71675 0.0
C116 C 0.96049 0.41519 0.71095 0.0
C117 C 0.99854 0.47763 0.73025 0.0
H118 H 0.05738 0.38809 0.73853 0.0
H119 H 0.93297 0.40099 0.69866 0.0
C120 C 0.00947 0.19483 0.66902 0.0
N121 N 0.04337 0.11434 0.66905 0.0
C122 C 0.99249 0.16357 0.69154 0.0
C123 C 0.04333 0.18503 0.6462 0.0
C124 C 0.01014 0.12308 0.69122 0.0
C125 C 0.06014 0.1442 0.64672 0.0
C126 C -8e-05 0.31159 0.77048 0.0
C127 C 0.04008 0.31408 0.78603 0.0
C128 C 0.9665 0.33436 0.7857 0.0
C129 C 0.0462 0.33961 0.81656 0.0
C130 C 0.97393 0.35959 0.81619 0.0
N131 N 0.01329 0.36167 0.83085 0.0
C132 C 0.11946 0.24077 0.70979 0.0
C133 C 0.06845 0.20266 0.74373 0.0
C134 C 0.15132 0.21328 0.72138 0.0
N135 N 0.07888 0.23439 0.72053 0.0
C136 C 0.09901 0.17407 0.75539 0.0
C137 C 0.1409 0.1789 0.74377 0.0
H138 H 0.12699 0.26665 0.69179 0.0
H139 H 0.03602 0.19894 0.75236 0.0
C140 C 0.88671 0.21496 0.69072 0.0
N141 N 0.90788 0.23827 0.7158 0.0
C142 C 0.85482 0.18731 0.70159 0.0
C143 C 0.8666 0.20888 0.7638 0.0
C144 C 0.89817 0.23624 0.7517 0.0
C145 C 0.84505 0.18329 0.73868 0.0
H146 H 0.89571 0.21673 0.66241 0.0
H147 H 0.91615 0.25452 0.77108 0.0
O148 O 0.04574 0.31799 0.67477 0.0
O149 O 0.94821 0.32055 0.6688 0.0
O150 O 0.99326 0.23492 0.66953 0.0
O151 O 0.99343 0.28734 0.74025 0.0
H152 H 0.05501 0.39934 0.65945 0.0
H153 H 0.09493 0.27355 0.63083 0.0
H154 H 0.10243 0.42785 0.6118 0.0
H155 H 0.14146 0.30425 0.5835 0.0
H156 H 0.81197 0.3309 0.70649 0.0
H157 H 0.9115 0.29447 0.60815 0.0
H158 H 0.88897 0.3386 0.7171 0.0
H159 H 0.83415 0.28748 0.59949 0.0
H160 H 0.01776 0.35733 0.52649 0.0
H161 H 0.98176 0.22502 0.52601 0.0
H162 H 0.06182 0.46477 0.75015 0.0
H163 H 0.93469 0.47762 0.7086 0.0
H164 H 0.96639 0.17062 0.7095 0.0
H165 H 0.05662 0.20875 0.6284 0.0
H166 H 0.99755 0.09867 0.70872 0.0
H167 H 0.08654 0.13624 0.62937 0.0
H168 H 0.06632 0.29677 0.7745 0.0
H169 H 0.93527 0.33292 0.77384 0.0
H170 H 0.07714 0.34198 0.82882 0.0
H171 H 0.94843 0.37759 0.82814 0.0
H172 H 0.1834 0.218 0.71204 0.0
H173 H 0.08999 0.14829 0.77315 0.0
H174 H 0.83873 0.16851 0.68127 0.0
H175 H 0.86065 0.20633 0.79269 0.0
Li176 Li 0.67085 0.00391 0.19913 0.0
Li177 Li 0.73535 0.9637 0.20232 0.0
Li178 Li 0.73786 0.042 0.20297 0.0
Li179 Li 0.71947 0.00294 0.14649 0.0
C180 C 0.69736 0.99516 0.27302 0.0
N181 N 0.66626 0.97888 0.34175 0.0
C182 C 0.69008 0.95353 0.28417 0.0
C183 C 0.6896 0.02845 0.29709 0.0
C184 C 0.67416 0.94597 0.31896 0.0
C185 C 0.67363 0.01959 0.33164 0.0
C186 C 0.66959 0.91683 0.16735 0.0
C187 C 0.65443 0.8516 0.136 0.0
N188 N 0.63269 0.8377 0.16555 0.0
C189 C 0.64693 0.902 0.19731 0.0
C190 C 0.67322 0.89156 0.13635 0.0
C191 C 0.62857 0.86188 0.1959 0.0
C192 C 0.58933 0.01593 0.17831 0.0
N193 N 0.61173 0.00471 0.20822 0.0
C194 C 0.54804 0.9919 0.24132 0.0
C195 C 0.59214 0.99329 0.23962 0.0
C196 C 0.52408 0.00261 0.21049 0.0
C197 C 0.54544 0.01559 0.17894 0.0
H198 H 0.60577 0.02464 0.15366 0.0
H199 H 0.61047 0.98412 0.26301 0.0
C200 C 0.78996 0.92396 0.24974 0.0
N201 N 0.76435 0.91591 0.22098 0.0
C202 C 0.81565 0.8922 0.26389 0.0
C203 C 0.78784 0.84417 0.21874 0.0
C204 C 0.76268 0.87695 0.20542 0.0
C205 C 0.81515 0.85173 0.24813 0.0
H206 H 0.79115 0.9555 0.26109 0.0
H207 H 0.74283 0.87151 0.18208 0.0
C208 C 0.66928 0.08938 0.17594 0.0
N209 N 0.62576 0.16306 0.1908 0.0
C210 C 0.66136 0.11853 0.14825 0.0
C211 C 0.65484 0.09754 0.21112 0.0
C212 C 0.63938 0.15567 0.15634 0.0
C213 C 0.63294 0.13499 0.21811 0.0
C214 C 0.80493 0.97874 0.15891 0.0
C215 C 0.847 0.98937 0.16571 0.0
C216 C 0.79556 0.94365 0.13728 0.0
C217 C 0.87911 0.96472 0.15059 0.0
C218 C 0.82855 0.91978 0.12269 0.0
N219 N 0.8693 0.93072 0.12959 0.0
C220 C 0.80677 0.07459 0.23788 0.0
C221 C 0.7617 0.12925 0.21686 0.0
C222 C 0.8363 0.10415 0.24981 0.0
N223 N 0.77064 0.08747 0.22138 0.0
C224 C 0.79011 0.16 0.22901 0.0
C225 C 0.82824 0.14741 0.2451 0.0
H226 H 0.81305 0.04115 0.24095 0.0
H227 H 0.73326 0.13891 0.20307 0.0
C228 C 0.68713 0.98925 0.07727 0.0
N229 N 0.72195 0.00299 0.09524 0.0
C230 C 0.68668 0.98813 0.0394 0.0
C231 C 0.75798 0.01554 0.03928 0.0
C232 C 0.75697 0.01629 0.07722 0.0
C233 C 0.72245 0.00136 0.01991 0.0
H234 H 0.65972 0.97904 0.09246 0.0
H235 H 0.78406 0.02747 0.0923 0.0
O236 O 0.71343 0.0033 0.23925 0.0
O237 O 0.68783 0.95601 0.16803 0.0
O238 O 0.69027 0.05265 0.16833 0.0
O239 O 0.77313 0.00208 0.17406 0.0
H240 H 0.69665 0.92728 0.26625 0.0
H241 H 0.69599 0.0608 0.28923 0.0
H242 H 0.66815 0.91393 0.32786 0.0
H243 H 0.66726 0.04506 0.35047 0.0
H244 H 0.65714 0.83164 0.11225 0.0
H245 H 0.64342 0.92125 0.22132 0.0
H246 H 0.69061 0.9026 0.11288 0.0
H247 H 0.61098 0.84998 0.21893 0.0
H248 H 0.533 0.98136 0.26613 0.0
H249 H 0.52849 0.02517 0.15476 0.0
H250 H 0.83683 0.89979 0.28604 0.0
H251 H 0.78637 0.81343 0.20584 0.0
H252 H 0.67212 0.1125 0.12082 0.0
H253 H 0.66037 0.07513 0.23273 0.0
H254 H 0.6331 0.17858 0.1352 0.0
H255 H 0.62162 0.14172 0.24523 0.0
H256 H 0.85477 0.01637 0.18251 0.0
H257 H 0.76317 0.93477 0.132 0.0
H258 H 0.91183 0.97257 0.1556 0.0
H259 H 0.82175 0.89249 0.10596 0.0
H260 H 0.86529 0.09333 0.26238 0.0
H261 H 0.78308 0.19315 0.22472 0.0
H262 H 0.65881 0.97658 0.02556 0.0
H263 H 0.78598 0.02652 0.02528 0.0
Li264 Li 0.96824 0.73534 0.70224 0.0
Li265 Li 0.04532 0.73281 0.70077 0.0
Li266 Li 0.00374 0.71141 0.64737 0.0
Li267 Li 0.00692 0.66814 0.7027 0.0
C268 C 0.99183 0.80719 0.66902 0.0
N269 N 0.95794 0.88769 0.66906 0.0
C270 C 0.00882 0.83845 0.69155 0.0
C271 C 0.95797 0.817 0.6462 0.0
C272 C 0.99116 0.87894 0.69123 0.0
C273 C 0.94116 0.85783 0.64672 0.0
C274 C 0.00138 0.69044 0.77048 0.0
C275 C 0.02737 0.64243 0.81619 0.0
N276 N 0.98801 0.64035 0.83085 0.0
C277 C 0.96122 0.68794 0.78603 0.0
C278 C 0.0348 0.66767 0.7857 0.0
C279 C 0.9551 0.66241 0.81656 0.0
C280 C 0.88185 0.76126 0.70979 0.0
N281 N 0.92243 0.76764 0.72053 0.0
C282 C 0.90229 0.82795 0.75539 0.0
C283 C 0.93285 0.79936 0.74374 0.0
C284 C 0.86041 0.82312 0.74377 0.0
C285 C 0.84999 0.78875 0.72137 0.0
H286 H 0.87431 0.73538 0.69178 0.0
H287 H 0.96527 0.80308 0.75236 0.0
C288 C 0.11459 0.78706 0.69072 0.0
N289 N 0.09343 0.76375 0.7158 0.0
C290 C 0.14649 0.81471 0.70159 0.0
C291 C 0.1347 0.79314 0.7638 0.0
C292 C 0.10313 0.76579 0.7517 0.0
C293 C 0.15626 0.81873 0.73868 0.0
H294 H 0.1056 0.78528 0.66241 0.0
H295 H 0.08515 0.7475 0.77108 0.0
C296 C 0.92954 0.66771 0.64863 0.0
N297 N 0.87728 0.63469 0.59562 0.0
C298 C 0.92735 0.62399 0.64328 0.0
C299 C 0.90499 0.6946 0.62714 0.0
C300 C 0.90075 0.60792 0.61633 0.0
C301 C 0.87885 0.67731 0.60043 0.0
C302 C 0.09565 0.6849 0.66328 0.0
C303 C 0.11115 0.6993 0.62996 0.0
C304 C 0.12384 0.67437 0.69107 0.0
C305 C 0.15471 0.70328 0.62509 0.0
C306 C 0.16717 0.67885 0.68515 0.0
N307 N 0.18157 0.69311 0.65256 0.0
C308 C 0.01115 0.74723 0.57757 0.0
C309 C 0.99383 0.67442 0.5777 0.0
C310 C 0.01112 0.7479 0.53965 0.0
N311 N 0.00225 0.71092 0.59573 0.0
C312 C 0.99212 0.67392 0.53985 0.0
C313 C 0.00105 0.71097 0.52007 0.0
H314 H 0.01894 0.77556 0.59258 0.0
H315 H 0.98834 0.64561 0.5927 0.0
C316 C 0.97099 0.594 0.73328 0.0
N317 N 0.00648 0.61099 0.71853 0.0
C318 C 0.96847 0.5505 0.7395 0.0
C319 C 0.03971 0.54329 0.71675 0.0
C320 C 0.04081 0.58683 0.71095 0.0
C321 C 0.00276 0.5244 0.73025 0.0
H322 H 0.94392 0.61393 0.73853 0.0
H323 H 0.06833 0.60103 0.69866 0.0
O324 O 0.00804 0.7671 0.66953 0.0
O325 O 0.00787 0.71469 0.74026 0.0
O326 O 0.95556 0.68404 0.67477 0.0
O327 O 0.05309 0.68147 0.6688 0.0
H328 H 0.03491 0.8314 0.7095 0.0
H329 H 0.94469 0.79327 0.62841 0.0
H330 H 0.00376 0.90335 0.70873 0.0
H331 H 0.91477 0.86578 0.62937 0.0
H332 H 0.05287 0.62443 0.82814 0.0
H333 H 0.93499 0.70525 0.7745 0.0
H334 H 0.06603 0.6691 0.77384 0.0
H335 H 0.92416 0.66004 0.82882 0.0
H336 H 0.91131 0.85373 0.77316 0.0
H337 H 0.8179 0.78403 0.71204 0.0
H338 H 0.16257 0.83351 0.68127 0.0
H339 H 0.14065 0.79569 0.79269 0.0
H340 H 0.94629 0.60268 0.65945 0.0
H341 H 0.90638 0.72847 0.63083 0.0
H342 H 0.89887 0.57418 0.6118 0.0
H343 H 0.85985 0.69778 0.58349 0.0
H344 H 0.0898 0.70755 0.60816 0.0
H345 H 0.11233 0.66342 0.7171 0.0
H346 H 0.16716 0.71454 0.59949 0.0
H347 H 0.18933 0.67112 0.7065 0.0
H348 H 0.01954 0.777 0.52601 0.0
H349 H 0.98355 0.64469 0.52649 0.0
H350 H 0.93948 0.53725 0.75015 0.0
H351 H 0.06661 0.5244 0.7086 0.0
Li352 Li 0.26345 0.042 0.79656 0.0
Li353 Li 0.28183 0.00294 0.85304 0.0
Li354 Li 0.33045 0.00391 0.8004 0.0
Li355 Li 0.26596 0.9637 0.79721 0.0
C356 C 0.33203 0.08938 0.82358 0.0
N357 N 0.37555 0.16307 0.80872 0.0
C358 C 0.33994 0.11853 0.85127 0.0
C359 C 0.34646 0.09754 0.7884 0.0
C360 C 0.36192 0.15567 0.84319 0.0
C361 C 0.36836 0.13499 0.78142 0.0
C362 C 0.19637 0.97875 0.84062 0.0
C363 C 0.17276 0.91978 0.87684 0.0
N364 N 0.13201 0.93072 0.86996 0.0
C365 C 0.1543 0.98938 0.83383 0.0
C366 C 0.20575 0.94365 0.86225 0.0
C367 C 0.12219 0.96473 0.84896 0.0
C368 C 0.19452 0.07459 0.76165 0.0
N369 N 0.23066 0.08747 0.77815 0.0
C370 C 0.2112 0.16001 0.77051 0.0
C371 C 0.2396 0.12925 0.78267 0.0
C372 C 0.17306 0.14741 0.75443 0.0
C373 C 0.165 0.10415 0.74972 0.0
H374 H 0.18825 0.04115 0.75859 0.0
H375 H 0.26805 0.13891 0.79644 0.0
C376 C 0.31418 0.98925 0.92226 0.0
N377 N 0.27935 0.003 0.90429 0.0
C378 C 0.31462 0.98814 0.96012 0.0
C379 C 0.24332 0.01554 0.96024 0.0
C380 C 0.24434 0.01629 0.92231 0.0
C381 C 0.27885 0.00137 0.97962 0.0
H382 H 0.34158 0.97905 0.90707 0.0
H383 H 0.21725 0.02748 0.90723 0.0
C384 C 0.30395 0.99516 0.72651 0.0
N385 N 0.33504 0.97888 0.65778 0.0
C386 C 0.31122 0.95353 0.71536 0.0
C387 C 0.31171 0.02845 0.70244 0.0
C388 C 0.32715 0.94597 0.68057 0.0
C389 C 0.32767 0.01958 0.66789 0.0
C390 C 0.33171 0.91683 0.83218 0.0
C391 C 0.35437 0.902 0.80222 0.0
C392 C 0.32808 0.89157 0.86318 0.0
C393 C 0.37274 0.86188 0.80363 0.0
C394 C 0.34688 0.8516 0.86353 0.0
N395 N 0.36862 0.8377 0.83398 0.0
C396 C 0.41197 0.01593 0.82122 0.0
C397 C 0.40916 0.9933 0.75991 0.0
C398 C 0.45586 0.0156 0.82059 0.0
N399 N 0.38957 0.00472 0.7913 0.0
C400 C 0.45327 0.9919 0.75821 0.0
C401 C 0.47723 0.00262 0.78904 0.0
H402 H 0.39554 0.02464 0.84587 0.0
H403 H 0.39084 0.98413 0.73652 0.0
C404 C 0.21134 0.92396 0.74979 0.0
N405 N 0.23696 0.91591 0.77855 0.0
C406 C 0.18565 0.89221 0.73564 0.0
C407 C 0.21346 0.84417 0.78079 0.0
C408 C 0.23863 0.87695 0.7941 0.0
C409 C 0.18615 0.85173 0.7514 0.0
H410 H 0.21015 0.9555 0.73844 0.0
H411 H 0.25848 0.87151 0.81745 0.0
O412 O 0.31104 0.05265 0.8312 0.0
O413 O 0.22817 0.00209 0.82547 0.0
O414 O 0.28787 0.0033 0.76028 0.0
O415 O 0.31347 0.95601 0.8315 0.0
H416 H 0.32918 0.1125 0.8787 0.0
H417 H 0.34093 0.07513 0.7668 0.0
H418 H 0.3682 0.17859 0.86433 0.0
H419 H 0.37968 0.14172 0.7543 0.0
H420 H 0.17956 0.8925 0.89358 0.0
H421 H 0.14654 0.01637 0.81703 0.0
H422 H 0.23814 0.93477 0.86752 0.0
H423 H 0.08947 0.97259 0.84395 0.0
H424 H 0.21822 0.19315 0.7748 0.0
H425 H 0.13601 0.09333 0.73716 0.0
H426 H 0.3425 0.97658 0.97397 0.0
H427 H 0.21533 0.02653 0.97425 0.0
H428 H 0.30466 0.92728 0.73328 0.0
H429 H 0.30531 0.0608 0.71029 0.0
H430 H 0.33315 0.91393 0.67167 0.0
H431 H 0.33404 0.04506 0.64906 0.0
H432 H 0.35789 0.92125 0.77821 0.0
H433 H 0.31069 0.9026 0.88665 0.0
H434 H 0.39032 0.84999 0.7806 0.0
H435 H 0.34417 0.83164 0.88727 0.0
H436 H 0.47281 0.02518 0.84477 0.0
H437 H 0.4683 0.98136 0.7334 0.0
H438 H 0.16447 0.8998 0.71349 0.0
H439 H 0.21494 0.81343 0.79369 0.0
Li440 Li 0.00692 0.33388 0.29683 0.0
Li441 Li 0.00374 0.29062 0.35216 0.0
Li442 Li 0.04532 0.26921 0.29875 0.0
Li443 Li 0.96824 0.26668 0.29728 0.0
C444 C 0.09565 0.31712 0.33624 0.0
N445 N 0.18157 0.30892 0.34696 0.0
C446 C 0.11115 0.30272 0.36956 0.0
C447 C 0.12384 0.32765 0.30845 0.0
C448 C 0.15471 0.29875 0.37443 0.0
C449 C 0.16717 0.32317 0.31437 0.0
C450 C 0.92954 0.33431 0.35089 0.0
C451 C 0.87884 0.32472 0.39909 0.0
N452 N 0.87728 0.36733 0.40389 0.0
C453 C 0.92735 0.37804 0.35624 0.0
C454 C 0.90499 0.30743 0.37238 0.0
C455 C 0.90074 0.3941 0.38319 0.0
C456 C 0.97099 0.40802 0.26624 0.0
N457 N 0.00648 0.39103 0.28099 0.0
C458 C 0.03971 0.45873 0.28277 0.0
C459 C 0.04081 0.41519 0.28858 0.0
C460 C 0.00276 0.47763 0.26927 0.0
C461 C 0.96847 0.45152 0.26002 0.0
H462 H 0.94393 0.38809 0.26099 0.0
H463 H 0.06833 0.40099 0.30086 0.0
C464 C 0.01116 0.2548 0.42195 0.0
N465 N 0.00225 0.29111 0.4038 0.0
C466 C 0.01113 0.25413 0.45988 0.0
C467 C 0.99211 0.3281 0.45967 0.0
C468 C 0.99382 0.3276 0.42182 0.0
C469 C 0.00105 0.29105 0.47946 0.0
H470 H 0.01895 0.22646 0.40694 0.0
H471 H 0.98833 0.35642 0.40682 0.0
C472 C 0.00138 0.31158 0.22904 0.0
N473 N 0.98801 0.36167 0.16867 0.0
C474 C 0.96122 0.31407 0.21349 0.0
C475 C 0.0348 0.33435 0.21382 0.0
C476 C 0.9551 0.3396 0.18296 0.0
C477 C 0.02737 0.35958 0.18333 0.0
C478 C 0.99183 0.19483 0.33051 0.0
C479 C 0.00882 0.16357 0.30799 0.0
C480 C 0.95797 0.18503 0.35333 0.0
C481 C 0.99116 0.12308 0.30831 0.0
C482 C 0.94116 0.1442 0.35282 0.0
N483 N 0.95794 0.11434 0.33048 0.0
C484 C 0.11459 0.21496 0.30881 0.0
C485 C 0.10313 0.23623 0.24783 0.0
C486 C 0.14649 0.18731 0.29794 0.0
N487 N 0.09342 0.23827 0.28372 0.0
C488 C 0.1347 0.20888 0.23572 0.0
C489 C 0.15625 0.18329 0.26085 0.0
H490 H 0.1056 0.21674 0.33711 0.0
H491 H 0.08515 0.25452 0.22844 0.0
C492 C 0.88185 0.24077 0.28973 0.0
N493 N 0.92243 0.23438 0.27899 0.0
C494 C 0.84999 0.21328 0.27815 0.0
C495 C 0.90229 0.17406 0.24414 0.0
C496 C 0.93286 0.20266 0.2558 0.0
C497 C 0.86041 0.1789 0.25576 0.0
H498 H 0.87431 0.26665 0.30773 0.0
H499 H 0.96528 0.19893 0.24717 0.0
O500 O 0.05309 0.32055 0.33072 0.0
O501 O 0.95556 0.31799 0.32476 0.0
O502 O 0.00787 0.28734 0.25927 0.0
O503 O 0.00804 0.23492 0.32999 0.0
H504 H 0.08981 0.29448 0.39137 0.0
H505 H 0.11233 0.3386 0.28242 0.0
H506 H 0.16716 0.28748 0.40003 0.0
H507 H 0.18933 0.3309 0.29303 0.0
H508 H 0.85984 0.30425 0.41603 0.0
H509 H 0.94629 0.39934 0.34007 0.0
H510 H 0.90637 0.27355 0.36869 0.0
H511 H 0.89887 0.42785 0.38772 0.0
H512 H 0.06661 0.47762 0.29092 0.0
H513 H 0.93948 0.46477 0.24937 0.0
H514 H 0.01955 0.22502 0.47352 0.0
H515 H 0.98354 0.35733 0.47303 0.0
H516 H 0.93499 0.29676 0.22503 0.0
H517 H 0.06603 0.33292 0.22568 0.0
H518 H 0.92415 0.34198 0.1707 0.0
H519 H 0.05287 0.37758 0.17138 0.0
H520 H 0.03491 0.17062 0.29003 0.0
H521 H 0.94469 0.20876 0.37112 0.0
H522 H 0.00376 0.09866 0.29082 0.0
H523 H 0.91477 0.13625 0.37017 0.0
H524 H 0.16257 0.16851 0.31826 0.0
H525 H 0.14065 0.20632 0.20684 0.0
H526 H 0.8179 0.218 0.28748 0.0
H527 H 0.91131 0.14828 0.22638 0.0
Li528 Li 0.71947 0.99907 0.85304 0.0
Li529 Li 0.73785 0.96002 0.79656 0.0
Li530 Li 0.73535 0.03832 0.79721 0.0
Li531 Li 0.67085 0.99811 0.8004 0.0
C532 C 0.80493 0.02327 0.84063 0.0
N533 N 0.86928 0.07128 0.86999 0.0
C534 C 0.847 0.01262 0.83386 0.0
C535 C 0.79555 0.05837 0.86225 0.0
C536 C 0.8791 0.03727 0.84899 0.0
C537 C 0.82853 0.08223 0.87686 0.0
C538 C 0.66927 0.91264 0.82358 0.0
C539 C 0.63294 0.86704 0.78141 0.0
N540 N 0.62575 0.83896 0.80871 0.0
C541 C 0.66136 0.88348 0.85126 0.0
C542 C 0.65484 0.90449 0.7884 0.0
C543 C 0.63938 0.84635 0.84318 0.0
C544 C 0.68713 0.01277 0.92226 0.0
N545 N 0.72195 0.99902 0.90429 0.0
C546 C 0.75798 0.98647 0.96024 0.0
C547 C 0.75697 0.98572 0.92231 0.0
C548 C 0.72245 0.00065 0.97962 0.0
C549 C 0.68668 0.01388 0.96013 0.0
H550 H 0.65972 0.02297 0.90707 0.0
H551 H 0.78406 0.97453 0.90723 0.0
C552 C 0.80678 0.92743 0.76166 0.0
N553 N 0.77064 0.91455 0.77815 0.0
C554 C 0.83631 0.89787 0.74973 0.0
C555 C 0.7901 0.84202 0.7705 0.0
C556 C 0.7617 0.87277 0.78266 0.0
C557 C 0.82824 0.85461 0.75443 0.0
H558 H 0.81306 0.96087 0.7586 0.0
H559 H 0.73324 0.86311 0.79643 0.0
C560 C 0.66959 0.08519 0.83218 0.0
N561 N 0.63269 0.16432 0.83399 0.0
C562 C 0.64693 0.10002 0.80223 0.0
C563 C 0.67322 0.11045 0.86319 0.0
C564 C 0.62857 0.14014 0.80363 0.0
C565 C 0.65443 0.15041 0.86353 0.0
C566 C 0.69736 0.00687 0.72651 0.0
C567 C 0.69008 0.0485 0.71536 0.0
C568 C 0.6896 0.97358 0.70244 0.0
C569 C 0.67416 0.05607 0.68058 0.0
C570 C 0.67363 0.98245 0.66789 0.0
N571 N 0.66626 0.02316 0.65778 0.0
C572 C 0.78996 0.07806 0.74979 0.0
C573 C 0.76267 0.12507 0.79411 0.0
C574 C 0.81565 0.10981 0.73565 0.0
N575 N 0.76435 0.08611 0.77855 0.0
C576 C 0.78784 0.15785 0.78079 0.0
C577 C 0.81515 0.15029 0.7514 0.0
H578 H 0.79116 0.04652 0.73845 0.0
H579 H 0.74283 0.13051 0.81745 0.0
C580 C 0.58933 0.98609 0.82122 0.0
N581 N 0.61173 0.99731 0.7913 0.0
C582 C 0.54544 0.98643 0.82059 0.0
C583 C 0.54804 0.01012 0.75821 0.0
C584 C 0.59214 0.00873 0.75991 0.0
C585 C 0.52408 0.99941 0.78904 0.0
H586 H 0.60576 0.97739 0.84587 0.0
H587 H 0.61047 0.0179 0.73652 0.0
O588 O 0.77313 -7e-05 0.82547 0.0
O589 O 0.69026 0.94937 0.83119 0.0
O590 O 0.68783 0.04601 0.8315 0.0
O591 O 0.71343 0.99872 0.76028 0.0
H592 H 0.85477 0.98563 0.81706 0.0
H593 H 0.76316 0.06725 0.86751 0.0
H594 H 0.91183 0.0294 0.84401 0.0
H595 H 0.82173 0.10952 0.89359 0.0
H596 H 0.62162 0.86031 0.75429 0.0
H597 H 0.67212 0.88951 0.8787 0.0
H598 H 0.66036 0.9269 0.7668 0.0
H599 H 0.6331 0.82343 0.86431 0.0
H600 H 0.78597 0.97548 0.97425 0.0
H601 H 0.65881 0.02544 0.97397 0.0
H602 H 0.8653 0.90869 0.73717 0.0
H603 H 0.78307 0.80887 0.77479 0.0
H604 H 0.64342 0.08077 0.77821 0.0
H605 H 0.69061 0.09942 0.88665 0.0
H606 H 0.61098 0.15204 0.78061 0.0
H607 H 0.65714 0.17038 0.88728 0.0
H608 H 0.69665 0.07475 0.73329 0.0
H609 H 0.69599 0.94123 0.71029 0.0
H610 H 0.66815 0.08811 0.67168 0.0
H611 H 0.66726 0.95698 0.64905 0.0
H612 H 0.83683 0.10222 0.7135 0.0
H613 H 0.78636 0.1886 0.79368 0.0
H614 H 0.52849 0.97685 0.84477 0.0
H615 H 0.533 0.02066 0.7334 0.0
Li616 Li 0.95598 0.73281 0.29875 0.0
Li617 Li 0.03306 0.73534 0.29728 0.0
Li618 Li 0.99439 0.66814 0.29683 0.0
Li619 Li 0.99756 0.7114 0.35216 0.0
C620 C -8e-05 0.69044 0.22905 0.0
N621 N 0.01329 0.64035 0.16867 0.0
C622 C 0.04008 0.68794 0.21349 0.0
C623 C 0.9665 0.66767 0.21382 0.0
C624 C 0.0462 0.66242 0.18296 0.0
C625 C 0.97393 0.64244 0.18333 0.0
C626 C 0.00947 0.80719 0.33051 0.0
C627 C 0.06014 0.85783 0.35282 0.0
N628 N 0.04336 0.88768 0.33048 0.0
C629 C 0.99249 0.83845 0.30799 0.0
C630 C 0.04333 0.81699 0.35333 0.0
C631 C 0.01014 0.87894 0.30831 0.0
C632 C 0.88671 0.78706 0.30881 0.0
N633 N 0.90788 0.76374 0.28373 0.0
C634 C 0.8666 0.79314 0.23572 0.0
C635 C 0.89818 0.76579 0.24783 0.0
C636 C 0.84505 0.81873 0.26085 0.0
C637 C 0.85481 0.81471 0.29794 0.0
H638 H 0.8957 0.78528 0.33711 0.0
H639 H 0.91615 0.7475 0.22844 0.0
C640 C 0.11946 0.76125 0.28973 0.0
N641 N 0.07888 0.76763 0.27899 0.0
C642 C 0.15132 0.78874 0.27815 0.0
C643 C 0.09901 0.82796 0.24414 0.0
C644 C 0.06845 0.79936 0.2558 0.0
C645 C 0.1409 0.82312 0.25576 0.0
H646 H 0.12699 0.73537 0.30773 0.0
H647 H 0.03603 0.80309 0.24717 0.0
C648 C 0.90565 0.6849 0.33625 0.0
N649 N 0.81973 0.6931 0.34696 0.0
C650 C 0.89016 0.69929 0.36957 0.0
C651 C 0.87747 0.67437 0.30846 0.0
C652 C 0.84659 0.70327 0.37444 0.0
C653 C 0.83414 0.67885 0.31438 0.0
C654 C 0.07176 0.66771 0.35089 0.0
C655 C 0.07396 0.62399 0.35624 0.0
C656 C 0.09631 0.69459 0.37238 0.0
C657 C 0.10056 0.60792 0.38319 0.0
C658 C 0.12246 0.6773 0.39909 0.0
N659 N 0.12403 0.63469 0.40389 0.0
C660 C 0.03032 0.594 0.26624 0.0
C661 C 0.96049 0.58683 0.28858 0.0
C662 C 0.03283 0.5505 0.26002 0.0
N663 N 0.99482 0.61099 0.28099 0.0
C664 C 0.96159 0.54329 0.28277 0.0
C665 C 0.99854 0.52439 0.26928 0.0
H666 H 0.05738 0.61393 0.26099 0.0
H667 H 0.93298 0.60103 0.30086 0.0
C668 C 0.99015 0.74722 0.42195 0.0
N669 N 0.99905 0.71091 0.4038 0.0
C670 C 0.99018 0.74789 0.45988 0.0
C671 C 0.0092 0.67392 0.45967 0.0
C672 C 0.00748 0.67442 0.42182 0.0
C673 C 0.00025 0.71097 0.47946 0.0
H674 H 0.98235 0.77556 0.40694 0.0
H675 H 0.01298 0.6456 0.40683 0.0
O676 O 0.99343 0.71468 0.25927 0.0
O677 O 0.99326 0.7671 0.32999 0.0
O678 O 0.94821 0.68147 0.33073 0.0
O679 O 0.04574 0.68403 0.32476 0.0
H680 H 0.06632 0.70525 0.22503 0.0
H681 H 0.93527 0.6691 0.22568 0.0
H682 H 0.07715 0.66004 0.1707 0.0
H683 H 0.94843 0.62444 0.17138 0.0
H684 H 0.08653 0.86578 0.37016 0.0
H685 H 0.96639 0.8314 0.29003 0.0
H686 H 0.05661 0.79327 0.37112 0.0
H687 H 0.99754 0.90336 0.29082 0.0
H688 H 0.86065 0.7957 0.20684 0.0
H689 H 0.83873 0.8335 0.31827 0.0
H690 H 0.1834 0.78402 0.28748 0.0
H691 H 0.08999 0.85374 0.22638 0.0
H692 H 0.9115 0.70754 0.39137 0.0
H693 H 0.88897 0.66342 0.28242 0.0
H694 H 0.83415 0.71453 0.40004 0.0
H695 H 0.81197 0.67112 0.29303 0.0
H696 H 0.05501 0.60268 0.34008 0.0
H697 H 0.09493 0.72847 0.36869 0.0
H698 H 0.10244 0.57417 0.38772 0.0
H699 H 0.14147 0.69777 0.41603 0.0
H700 H 0.06183 0.53725 0.24937 0.0
H701 H 0.93469 0.5244 0.29092 0.0
H702 H 0.98175 0.777 0.47352 0.0
H703 H 0.01777 0.64469 0.47303 0.0
loop_
_geom_bond_atom_site_label_1
_geom_bond_atom_site_label_2
_geom_bond_distance
_geom_bond_site_symmetry_2
_ccdc_geom_bond_type
Li0 N17 1.990 . S
Li0 O60 1.956 . S
Li0 O61 1.970 . S
Li0 O62 1.967 . S
Li1 N25 1.990 1_545 S
Li1 O60 1.972 . S
Li1 O61 1.956 . S
Li1 O63 1.960 1_545 S
Li2 N47 1.990 . S
Li2 O60 1.961 . S
Li2 O62 1.956 . S
Li2 O63 1.970 1_545 S
Li3 N53 1.990 . S
Li3 O61 1.961 1_565 S
Li3 O62 1.964 1_565 S
Li3 O63 1.956 . S
C4 C6 1.348 . S
C4 C7 1.356 . S
C4 O60 1.325 . S
N5 C8 1.314 . S
N5 C9 1.279 . S
C6 C4 1.348 . S
C6 C8 1.353 . S
C6 H64 0.929 . S
C7 C4 1.356 . S
C7 C9 1.358 . S
C7 H65 0.930 . S
C8 N5 1.314 . S
C8 C6 1.353 . S
C8 H66 0.930 . S
C9 N5 1.279 . S
C9 C7 1.358 . S
C9 H67 0.930 . S
C10 C13 1.364 . S
C10 C14 1.340 1_545 S
C10 O61 1.325 . S
C11 N12 1.279 . S
C11 C14 1.358 . S
C11 H68 0.930 . S
N12 C11 1.279 . S
N12 C15 1.314 1_565 S
C13 C10 1.364 . S
C13 C15 1.353 . S
C13 H69 0.929 . S
C14 C10 1.340 1_565 S
C14 C11 1.358 . S
C14 H70 0.930 . S
C15 N12 1.314 1_545 S
C15 C13 1.353 . S
C15 H71 0.930 . S
C16 N17 1.314 . S
C16 C21 1.353 . S
C16 H22 0.930 . S
N17 Li0 1.990 . S
N17 C16 1.314 . S
N17 C19 1.279 . S
C18 C19 1.358 . S
C18 C20 1.356 . S
C18 H72 0.930 . S
C19 N17 1.279 . S
C19 C18 1.358 . S
C19 H23 0.930 . S
C20 C18 1.356 . S
C20 C21 1.348 . S
C21 C16 1.353 . S
C21 C20 1.348 . S
C21 H73 0.929 . S
H22 C16 0.930 . S
H23 C19 0.930 . S
C24 N25 1.314 . S
C24 C26 1.353 . S
C24 H30 0.930 . S
N25 Li1 1.990 1_565 S
N25 C24 1.314 . S
N25 C28 1.279 1_565 S
C26 C24 1.353 . S
C26 C29 1.340 1_565 S
C26 H74 0.929 . S
C27 C28 1.358 . S
C27 C29 1.361 . S
C27 H75 0.930 . S
C28 N25 1.279 1_545 S
C28 C27 1.358 . S
C28 H31 0.930 . S
C29 C26 1.340 1_545 S
C29 C27 1.361 . S
H30 C24 0.930 . S
H31 C28 0.930 . S
C32 C34 1.325 1_545 S
C32 C35 1.379 . S
C32 O62 1.325 . S
N33 C36 1.314 1_545 S
N33 C37 1.279 . S
C34 C32 1.325 1_565 S
C34 C36 1.353 . S
C34 H76 0.929 . S
C35 C32 1.379 . S
C35 C37 1.358 . S
C35 H77 0.930 . S
C36 N33 1.314 1_565 S
C36 C34 1.353 . S
C36 H78 0.930 . S
C37 N33 1.279 . S
C37 C35 1.358 . S
C37 H79 0.930 . S
C38 C39 1.348 . S
C38 C40 1.356 . S
C38 O63 1.325 . S
C39 C38 1.348 . S
C39 C41 1.353 . S
C39 H80 0.929 . S
C40 C38 1.356 . S
C40 C42 1.358 . S
C40 H81 0.930 . S
C41 C39 1.353 . S
C41 N43 1.314 . S
C41 H82 0.930 . S
C42 C40 1.358 . S
C42 N43 1.279 . S
C42 H83 0.930 . S
N43 C41 1.314 . S
N43 C42 1.279 . S
C44 C46 1.353 . S
C44 N47 1.314 . S
C44 H50 0.930 . S
C45 N47 1.279 1_565 S
C45 C48 1.358 . S
C45 H51 0.930 . S
C46 C44 1.353 . S
C46 C49 1.354 . S
C46 H84 0.929 . S
N47 Li2 1.990 . S
N47 C44 1.314 . S
N47 C45 1.279 1_545 S
C48 C45 1.358 . S
C48 C49 1.352 1_565 S
C48 H85 0.930 . S
C49 C46 1.354 . S
C49 C48 1.352 1_545 S
H50 C44 0.930 . S
H51 C45 0.930 . S
C52 N53 1.314 . S
C52 C54 1.353 . S
C52 H58 0.930 . S
N53 Li3 1.990 . S
N53 C52 1.314 . S
N53 C56 1.279 . S
C54 C52 1.353 . S
C54 C57 1.348 . S
C54 H86 0.929 . S
C55 C56 1.358 . S
C55 C57 1.356 . S
C55 H87 0.930 . S
C56 N53 1.279 . S
C56 C55 1.358 . S
C56 H59 0.930 . S
C57 C54 1.348 . S
C57 C55 1.356 . S
H58 C52 0.930 . S
H59 C56 0.930 . S
O60 Li0 1.956 . S
O60 Li1 1.972 . S
O60 Li2 1.961 . S
O60 C4 1.325 . S
O61 Li0 1.970 . S
O61 Li1 1.956 . S
O61 Li3 1.961 1_545 S
O61 C10 1.325 . S
O62 Li0 1.967 . S
O62 Li2 1.956 . S
O62 Li3 1.964 1_545 S
O62 C32 1.325 . S
O63 Li1 1.960 1_565 S
O63 Li2 1.970 1_565 S
O63 Li3 1.956 . S
O63 C38 1.325 . S
H64 C6 0.929 . S
H65 C7 0.930 . S
H66 C8 0.930 . S
H67 C9 0.930 . S
H68 C11 0.930 . S
H69 C13 0.929 . S
H70 C14 0.930 . S
H71 C15 0.930 . S
H72 C18 0.930 . S
H73 C21 0.929 . S
H74 C26 0.929 . S
H75 C27 0.930 . S
H76 C34 0.929 . S
H77 C35 0.930 . S
H78 C36 0.930 . S
H79 C37 0.930 . S
H80 C39 0.929 . S
H81 C40 0.930 . S
H82 C41 0.930 . S
H83 C42 0.930 . S
H84 C46 0.929 . S
H85 C48 0.930 . S
H86 C54 0.929 . S
H87 C55 0.930 . S
Li88 N105 1.990 . S
Li88 O148 1.956 . S
Li88 O149 1.970 1_455 S
Li88 O150 1.960 1_455 S
Li89 N113 1.990 . S
Li89 O148 1.970 1_655 S
Li89 O149 1.956 . S
Li89 O151 1.961 1_655 S
Li90 N135 1.990 . S
Li90 O148 1.961 . S
Li90 O150 1.937 1_455 S
Li90 O151 1.970 . S
Li91 N141 1.990 . S
Li91 O149 1.961 . S
Li91 O150 1.988 . S
Li91 O151 1.956 1_655 S
C92 C94 1.348 . S
C92 C95 1.356 . S
C92 O148 1.325 . S
N93 C96 1.314 . S
N93 C97 1.279 . S
C94 C92 1.348 . S
C94 C96 1.353 . S
C94 H152 0.929 . S
C95 C92 1.356 . S
C95 C97 1.358 . S
C95 H153 0.930 . S
C96 N93 1.314 . S
C96 C94 1.353 . S
C96 H154 0.930 . S
C97 N93 1.279 . S
C97 C95 1.358 . S
C97 H155 0.930 . S
C98 C101 1.348 . S
C98 C102 1.356 . S
C98 O149 1.325 . S
C99 N100 1.279 . S
C99 C102 1.358 . S
C99 H156 0.930 . S
N100 C99 1.279 . S
N100 C103 1.314 . S
C101 C98 1.348 . S
C101 C103 1.353 . S
C101 H157 0.929 . S
C102 C98 1.356 . S
C102 C99 1.358 . S
C102 H158 0.930 . S
C103 N100 1.314 . S
C103 C101 1.353 . S
C103 H159 0.930 . S
C104 N105 1.314 1_655 S
C104 C109 1.353 . S
C104 H110 0.930 . S
N105 Li88 1.990 . S
N105 C104 1.314 1_455 S
N105 C107 1.279 . S
C106 C107 1.358 . S
C106 C108 1.370 . S
C106 H160 0.930 . S
C107 N105 1.279 . S
C107 C106 1.358 . S
C107 H111 0.930 . S
C108 C106 1.370 . S
C108 C109 1.336 1_455 S
C109 C104 1.353 . S
C109 C108 1.336 1_655 S
C109 H161 0.929 . S
H110 C104 0.930 . S
H111 C107 0.930 . S
C112 N113 1.314 1_455 S
C112 C114 1.353 . S
C112 H118 0.930 . S
N113 Li89 1.990 . S
N113 C112 1.314 1_655 S
N113 C116 1.279 . S
C114 C112 1.353 . S
C114 C117 1.357 . S
C114 H162 0.929 . S
C115 C116 1.358 . S
C115 C117 1.345 1_655 S
C115 H163 0.930 . S
C116 N113 1.279 . S
C116 C115 1.358 . S
C116 H119 0.930 . S
C117 C114 1.357 . S
C117 C115 1.345 1_455 S
H118 C112 0.930 . S
H119 C116 0.930 . S
C120 C122 1.337 1_455 S
C120 C123 1.369 . S
C120 O150 1.324 1_455 S
N121 C124 1.314 1_455 S
N121 C125 1.279 . S
C122 C120 1.337 1_655 S
C122 C124 1.353 . S
C122 H164 0.929 . S
C123 C120 1.369 . S
C123 C125 1.358 . S
C123 H165 0.930 . S
C124 N121 1.314 1_655 S
C124 C122 1.353 . S
C124 H166 0.930 . S
C125 N121 1.279 . S
C125 C123 1.358 . S
C125 H167 0.930 . S
C126 C127 1.358 . S
C126 C128 1.344 1_455 S
C126 O151 1.326 . S
C127 C126 1.358 . S
C127 C129 1.353 . S
C127 H168 0.929 . S
C128 C126 1.344 1_655 S
C128 C130 1.358 . S
C128 H169 0.930 . S
C129 C127 1.353 . S
C129 N131 1.314 1_455 S
C129 H170 0.930 . S
C130 C128 1.358 . S
C130 N131 1.279 . S
C130 H171 0.930 . S
N131 C129 1.314 1_655 S
N131 C130 1.279 . S
C132 C134 1.353 . S
C132 N135 1.314 . S
C132 H138 0.930 . S
C133 N135 1.279 . S
C133 C136 1.358 . S
C133 H139 0.930 . S
C134 C132 1.353 . S
C134 C137 1.348 . S
C134 H172 0.929 . S
N135 Li90 1.990 . S
N135 C132 1.314 . S
N135 C133 1.279 . S
C136 C133 1.358 . S
C136 C137 1.356 . S
C136 H173 0.930 . S
C137 C134 1.348 . S
C137 C136 1.356 . S
H138 C132 0.930 . S
H139 C133 0.930 . S
C140 N141 1.314 . S
C140 C142 1.353 . S
C140 H146 0.930 . S
N141 Li91 1.990 . S
N141 C140 1.314 . S
N141 C144 1.279 . S
C142 C140 1.353 . S
C142 C145 1.348 . S
C142 H174 0.929 . S
C143 C144 1.358 . S
C143 C145 1.356 . S
C143 H175 0.930 . S
C144 N141 1.279 . S
C144 C143 1.358 . S
C144 H147 0.930 . S
C145 C142 1.348 . S
C145 C143 1.356 . S
H146 C140 0.930 . S
H147 C144 0.930 . S
O148 Li88 1.956 . S
O148 Li89 1.970 1_455 S
O148 Li90 1.961 . S
O148 C92 1.325 . S
O149 Li88 1.970 1_655 S
O149 Li89 1.956 . S
O149 Li91 1.961 . S
O149 C98 1.325 . S
O150 Li88 1.960 1_655 S
O150 Li90 1.937 1_655 S
O150 Li91 1.988 . S
O150 C120 1.324 1_655 S
O151 Li89 1.961 1_455 S
O151 Li90 1.970 . S
O151 Li91 1.956 1_455 S
O151 C126 1.326 . S
H152 C94 0.929 . S
H153 C95 0.930 . S
H154 C96 0.930 . S
H155 C97 0.930 . S
H156 C99 0.930 . S
H157 C101 0.929 . S
H158 C102 0.930 . S
H159 C103 0.930 . S
H160 C106 0.930 . S
H161 C109 0.929 . S
H162 C114 0.929 . S
H163 C115 0.930 . S
H164 C122 0.929 . S
H165 C123 0.930 . S
H166 C124 0.930 . S
H167 C125 0.930 . S
H168 C127 0.929 . S
H169 C128 0.930 . S
H170 C129 0.930 . S
H171 C130 0.930 . S
H172 C134 0.929 . S
H173 C136 0.930 . S
H174 C142 0.929 . S
H175 C143 0.930 . S
Li176 N193 1.990 . S
Li176 O236 1.956 . S
Li176 O237 1.970 1_545 S
Li176 O238 1.961 . S
Li177 N201 1.990 . S
Li177 O236 1.970 1_565 S
Li177 O237 1.956 . S
Li177 O239 1.961 1_565 S
Li178 N223 1.990 . S
Li178 O236 1.961 . S
Li178 O238 1.956 . S
Li178 O239 1.970 . S
Li179 N229 1.990 1_545 S
Li179 O237 1.961 1_545 S
Li179 O238 1.970 . S
Li179 O239 1.956 . S
C180 C182 1.348 1_545 S
C180 C183 1.356 . S
C180 O236 1.325 . S
N181 C184 1.314 1_545 S
N181 C185 1.279 . S
C182 C180 1.348 1_565 S
C182 C184 1.353 . S
C182 H240 0.929 . S
C183 C180 1.356 . S
C183 C185 1.358 . S
C183 H241 0.930 . S
C184 N181 1.314 1_565 S
C184 C182 1.353 . S
C184 H242 0.930 . S
C185 N181 1.279 . S
C185 C183 1.358 . S
C185 H243 0.930 . S
C186 C189 1.348 . S
C186 C190 1.356 . S
C186 O237 1.325 . S
C187 N188 1.279 . S
C187 C190 1.358 . S
C187 H244 0.930 . S
N188 C187 1.279 . S
N188 C191 1.314 . S
C189 C186 1.348 . S
C189 C191 1.353 . S
C189 H245 0.929 . S
C190 C186 1.356 . S
C190 C187 1.358 . S
C190 H246 0.930 . S
C191 N188 1.314 . S
C191 C189 1.353 . S
C191 H247 0.930 . S
C192 N193 1.314 . S
C192 C197 1.353 . S
C192 H198 0.930 . S
N193 Li176 1.990 . S
N193 C192 1.314 . S
N193 C195 1.279 1_545 S
C194 C195 1.358 . S
C194 C196 1.356 1_565 S
C194 H248 0.930 . S
C195 N193 1.279 1_565 S
C195 C194 1.358 . S
C195 H199 0.930 . S
C196 C194 1.356 1_545 S
C196 C197 1.348 . S
C197 C192 1.353 . S
C197 C196 1.348 . S
C197 H249 0.929 . S
H198 C192 0.930 . S
H199 C195 0.930 . S
C200 N201 1.314 . S
C200 C202 1.353 . S
C200 H206 0.930 . S
N201 Li177 1.990 . S
N201 C200 1.314 . S
N201 C204 1.279 . S
C202 C200 1.353 . S
C202 C205 1.348 . S
C202 H250 0.929 . S
C203 C204 1.358 . S
C203 C205 1.356 . S
C203 H251 0.930 . S
C204 N201 1.279 . S
C204 C203 1.358 . S
C204 H207 0.930 . S
C205 C202 1.348 . S
C205 C203 1.356 . S
H206 C200 0.930 . S
H207 C204 0.930 . S
C208 C210 1.348 . S
C208 C211 1.356 . S
C208 O238 1.325 . S
N209 C212 1.314 . S
N209 C213 1.279 . S
C210 C208 1.348 . S
C210 C212 1.353 . S
C210 H252 0.929 . S
C211 C208 1.356 . S
C211 C213 1.358 . S
C211 H253 0.930 . S
C212 N209 1.314 . S
C212 C210 1.353 . S
C212 H254 0.930 . S
C213 N209 1.279 . S
C213 C211 1.358 . S
C213 H255 0.930 . S
C214 C215 1.348 . S
C214 C216 1.356 1_545 S
C214 O239 1.325 . S
C215 C214 1.348 . S
C215 C217 1.353 . S
C215 H256 0.929 . S
C216 C214 1.356 1_565 S
C216 C218 1.358 . S
C216 H257 0.930 . S
C217 C215 1.353 . S
C217 N219 1.313 1_545 S
C217 H258 0.930 . S
C218 C216 1.358 . S
C218 N219 1.280 . S
C218 H259 0.930 . S
N219 C217 1.313 1_565 S
N219 C218 1.280 . S
C220 C222 1.353 . S
C220 N223 1.314 . S
C220 H226 0.930 . S
C221 N223 1.279 . S
C221 C224 1.358 . S
C221 H227 0.930 . S
C222 C220 1.353 . S
C222 C225 1.348 . S
C222 H260 0.929 . S
N223 Li178 1.990 . S
N223 C220 1.314 . S
N223 C221 1.279 . S
C224 C221 1.358 . S
C224 C225 1.356 . S
C224 H261 0.930 . S
C225 C222 1.348 . S
C225 C224 1.356 . S
H226 C220 0.930 . S
H227 C221 0.930 . S
C228 N229 1.314 . S
C228 C230 1.353 . S
C228 H234 0.930 . S
N229 Li179 1.990 1_565 S
N229 C228 1.314 . S
N229 C232 1.279 1_565 S
C230 C228 1.353 . S
C230 C233 1.348 1_565 S
C230 H262 0.929 . S
C231 C232 1.358 . S
C231 C233 1.356 . S
C231 H263 0.930 . S
C232 N229 1.279 1_545 S
C232 C231 1.358 . S
C232 H235 0.930 . S
C233 C230 1.348 1_545 S
C233 C231 1.356 . S
H234 C228 0.930 . S
H235 C232 0.930 . S
O236 Li176 1.956 . S
O236 Li177 1.970 1_545 S
O236 Li178 1.961 . S
O236 C180 1.325 . S
O237 Li176 1.970 1_565 S
O237 Li177 1.956 . S
O237 Li179 1.961 1_565 S
O237 C186 1.325 . S
O238 Li176 1.961 . S
O238 Li178 1.956 . S
O238 Li179 1.970 . S
O238 C208 1.325 . S
O239 Li177 1.961 1_545 S
O239 Li178 1.970 . S
O239 Li179 1.956 . S
O239 C214 1.325 . S
H240 C182 0.929 . S
H241 C183 0.930 . S
H242 C184 0.930 . S
H243 C185 0.930 . S
H244 C187 0.930 . S
H245 C189 0.929 . S
H246 C190 0.930 . S
H247 C191 0.930 . S
H248 C194 0.930 . S
H249 C197 0.929 . S
H250 C202 0.929 . S
H251 C203 0.930 . S
H252 C210 0.929 . S
H253 C211 0.930 . S
H254 C212 0.930 . S
H255 C213 0.930 . S
H256 C215 0.929 . S
H257 C216 0.930 . S
H258 C217 0.930 . S
H259 C218 0.930 . S
H260 C222 0.929 . S
H261 C224 0.930 . S
H262 C230 0.929 . S
H263 C231 0.930 . S
Li264 N281 1.990 . S
Li264 O324 1.956 1_655 S
Li264 O325 1.972 . S
Li264 O326 1.961 . S
Li265 N289 1.990 . S
Li265 O324 1.970 . S
Li265 O325 1.954 1_455 S
Li265 O327 1.961 . S
Li266 N311 1.991 . S
Li266 O324 1.960 1_655 S
Li266 O326 1.963 . S
Li266 O327 1.963 1_655 S
Li267 N317 1.990 . S
Li267 O325 1.961 1_455 S
Li267 O326 1.970 1_455 S
Li267 O327 1.956 . S
C268 C270 1.348 . S
C268 C271 1.356 1_455 S
C268 O324 1.325 . S
N269 C272 1.314 1_655 S
N269 C273 1.279 . S
C270 C268 1.348 . S
C270 C272 1.353 . S
C270 H328 0.929 . S
C271 C268 1.356 1_655 S
C271 C273 1.358 . S
C271 H329 0.930 . S
C272 N269 1.314 1_455 S
C272 C270 1.353 . S
C272 H330 0.930 . S
C273 N269 1.279 . S
C273 C271 1.358 . S
C273 H331 0.930 . S
C274 C277 1.348 1_455 S
C274 C278 1.356 . S
C274 O325 1.325 1_455 S
C275 N276 1.279 . S
C275 C278 1.358 . S
C275 H332 0.930 . S
N276 C275 1.279 . S
N276 C279 1.314 1_455 S
C277 C274 1.348 1_655 S
C277 C279 1.353 . S
C277 H333 0.929 . S
C278 C274 1.356 . S
C278 C275 1.358 . S
C278 H334 0.930 . S
C279 N276 1.314 1_655 S
C279 C277 1.353 . S
C279 H335 0.930 . S
C280 N281 1.314 . S
C280 C285 1.353 . S
C280 H286 0.930 . S
N281 Li264 1.990 . S
N281 C280 1.314 . S
N281 C283 1.279 . S
C282 C283 1.358 . S
C282 C284 1.356 . S
C282 H336 0.930 . S
C283 N281 1.279 . S
C283 C282 1.358 . S
C283 H287 0.930 . S
C284 C282 1.356 . S
C284 C285 1.348 . S
C285 C280 1.353 . S
C285 C284 1.348 . S
C285 H337 0.929 . S
H286 C280 0.930 . S
H287 C283 0.930 . S
C288 N289 1.314 . S
C288 C290 1.353 . S
C288 H294 0.930 . S
N289 Li265 1.990 . S
N289 C288 1.314 . S
N289 C292 1.279 . S
C290 C288 1.353 . S
C290 C293 1.348 . S
C290 H338 0.929 . S
C291 C292 1.358 . S
C291 C293 1.356 . S
C291 H339 0.930 . S
C292 N289 1.279 . S
C292 C291 1.358 . S
C292 H295 0.930 . S
C293 C290 1.348 . S
C293 C291 1.356 . S
H294 C288 0.930 . S
H295 C292 0.930 . S
C296 C298 1.348 . S
C296 C299 1.356 . S
C296 O326 1.325 . S
N297 C300 1.314 . S
N297 C301 1.279 . S
C298 C296 1.348 . S
C298 C300 1.353 . S
C298 H340 0.929 . S
C299 C296 1.356 . S
C299 C301 1.358 . S
C299 H341 0.930 . S
C300 N297 1.314 . S
C300 C298 1.353 . S
C300 H342 0.930 . S
C301 N297 1.279 . S
C301 C299 1.358 . S
C301 H343 0.930 . S
C302 C303 1.348 . S
C302 C304 1.356 . S
C302 O327 1.325 . S
C303 C302 1.348 . S
C303 C305 1.353 . S
C303 H344 0.929 . S
C304 C302 1.356 . S
C304 C306 1.358 . S
C304 H345 0.930 . S
C305 C303 1.353 . S
C305 N307 1.314 . S
C305 H346 0.930 . S
C306 C304 1.358 . S
C306 N307 1.279 . S
C306 H347 0.930 . S
N307 C305 1.314 . S
N307 C306 1.279 . S
C308 C310 1.353 . S
C308 N311 1.314 1_455 S
C308 H314 0.930 . S
C309 N311 1.279 . S
C309 C312 1.358 . S
C309 H315 0.930 . S
C310 C308 1.353 . S
C310 C313 1.348 . S
C310 H348 0.929 . S
N311 Li266 1.991 . S
N311 C308 1.314 1_655 S
N311 C309 1.279 . S
C312 C309 1.358 . S
C312 C313 1.356 1_655 S
C312 H349 0.930 . S
C313 C310 1.348 . S
C313 C312 1.356 1_455 S
H314 C308 0.930 . S
H315 C309 0.930 . S
C316 N317 1.314 1_655 S
C316 C318 1.353 . S
C316 H322 0.930 . S
N317 Li267 1.990 . S
N317 C316 1.314 1_455 S
N317 C320 1.279 . S
C318 C316 1.353 . S
C318 C321 1.348 1_655 S
C318 H350 0.929 . S
C319 C320 1.358 . S
C319 C321 1.356 . S
C319 H351 0.930 . S
C320 N317 1.279 . S
C320 C319 1.358 . S
C320 H323 0.930 . S
C321 C318 1.348 1_455 S
C321 C319 1.356 . S
H322 C316 0.930 . S
H323 C320 0.930 . S
O324 Li264 1.956 1_455 S
O324 Li265 1.970 . S
O324 Li266 1.960 1_455 S
O324 C268 1.325 . S
O325 Li264 1.972 . S
O325 Li265 1.954 1_655 S
O325 Li267 1.961 1_655 S
O325 C274 1.325 1_655 S
O326 Li264 1.961 . S
O326 Li266 1.963 . S
O326 Li267 1.970 1_655 S
O326 C296 1.325 . S
O327 Li265 1.961 . S
O327 Li266 1.963 1_455 S
O327 Li267 1.956 . S
O327 C302 1.325 . S
H328 C270 0.929 . S
H329 C271 0.930 . S
H330 C272 0.930 . S
H331 C273 0.930 . S
H332 C275 0.930 . S
H333 C277 0.929 . S
H334 C278 0.930 . S
H335 C279 0.930 . S
H336 C282 0.930 . S
H337 C285 0.929 . S
H338 C290 0.929 . S
H339 C291 0.930 . S
H340 C298 0.929 . S
H341 C299 0.930 . S
H342 C300 0.930 . S
H343 C301 0.930 . S
H344 C303 0.929 . S
H345 C304 0.930 . S
H346 C305 0.930 . S
H347 C306 0.930 . S
H348 C310 0.929 . S
H349 C312 0.930 . S
H350 C318 0.929 . S
H351 C319 0.930 . S
Li352 N369 1.990 . S
Li352 O412 1.956 . S
Li352 O413 1.970 . S
Li352 O414 1.961 . S
Li353 N377 1.990 1_545 S
Li353 O412 1.970 . S
Li353 O413 1.956 . S
Li353 O415 1.961 1_545 S
Li354 N399 1.990 . S
Li354 O412 1.961 . S
Li354 O414 1.956 . S
Li354 O415 1.970 1_545 S
Li355 N405 1.990 . S
Li355 O413 1.961 1_565 S
Li355 O414 1.970 1_565 S
Li355 O415 1.956 . S
C356 C358 1.348 . S
C356 C359 1.356 . S
C356 O412 1.325 . S
N357 C360 1.314 . S
N357 C361 1.279 . S
C358 C356 1.348 . S
C358 C360 1.353 . S
C358 H416 0.929 . S
C359 C356 1.356 . S
C359 C361 1.358 . S
C359 H417 0.930 . S
C360 N357 1.314 . S
C360 C358 1.353 . S
C360 H418 0.930 . S
C361 N357 1.279 . S
C361 C359 1.358 . S
C361 H419 0.930 . S
C362 C365 1.348 . S
C362 C366 1.356 1_545 S
C362 O413 1.325 . S
C363 N364 1.280 . S
C363 C366 1.358 . S
C363 H420 0.930 . S
N364 C363 1.280 . S
N364 C367 1.313 1_565 S
C365 C362 1.348 . S
C365 C367 1.353 . S
C365 H421 0.929 . S
C366 C362 1.356 1_565 S
C366 C363 1.358 . S
C366 H422 0.930 . S
C367 N364 1.313 1_545 S
C367 C365 1.353 . S
C367 H423 0.930 . S
C368 N369 1.314 . S
C368 C373 1.353 . S
C368 H374 0.930 . S
N369 Li352 1.990 . S
N369 C368 1.314 . S
N369 C371 1.279 . S
C370 C371 1.358 . S
C370 C372 1.356 . S
C370 H424 0.930 . S
C371 N369 1.279 . S
C371 C370 1.358 . S
C371 H375 0.930 . S
C372 C370 1.356 . S
C372 C373 1.348 . S
C373 C368 1.353 . S
C373 C372 1.348 . S
C373 H425 0.929 . S
H374 C368 0.930 . S
H375 C371 0.930 . S
C376 N377 1.314 . S
C376 C378 1.353 . S
C376 H382 0.930 . S
N377 Li353 1.990 1_565 S
N377 C376 1.314 . S
N377 C380 1.279 1_565 S
C378 C376 1.353 . S
C378 C381 1.348 1_565 S
C378 H426 0.929 . S
C379 C380 1.358 . S
C379 C381 1.356 . S
C379 H427 0.930 . S
C380 N377 1.279 1_545 S
C380 C379 1.358 . S
C380 H383 0.930 . S
C381 C378 1.348 1_545 S
C381 C379 1.356 . S
H382 C376 0.930 . S
H383 C380 0.930 . S
C384 C386 1.348 1_545 S
C384 C387 1.356 . S
C384 O414 1.325 . S
N385 C388 1.314 1_545 S
N385 C389 1.279 . S
C386 C384 1.348 1_565 S
C386 C388 1.353 . S
C386 H428 0.929 . S
C387 C384 1.356 . S
C387 C389 1.358 . S
C387 H429 0.930 . S
C388 N385 1.314 1_565 S
C388 C386 1.353 . S
C388 H430 0.930 . S
C389 N385 1.279 . S
C389 C387 1.358 . S
C389 H431 0.930 . S
C390 C391 1.348 . S
C390 C392 1.356 . S
C390 O415 1.325 . S
C391 C390 1.348 . S
C391 C393 1.353 . S
C391 H432 0.929 . S
C392 C390 1.356 . S
C392 C394 1.358 . S
C392 H433 0.930 . S
C393 C391 1.353 . S
C393 N395 1.314 . S
C393 H434 0.930 . S
C394 C392 1.358 . S
C394 N395 1.279 . S
C394 H435 0.930 . S
N395 C393 1.314 . S
N395 C394 1.279 . S
C396 C398 1.353 . S
C396 N399 1.314 . S
C396 H402 0.930 . S
C397 N399 1.279 1_565 S
C397 C400 1.358 . S
C397 H403 0.930 . S
C398 C396 1.353 . S
C398 C401 1.348 . S
C398 H436 0.929 . S
N399 Li354 1.990 . S
N399 C396 1.314 . S
N399 C397 1.279 1_545 S
C400 C397 1.358 . S
C400 C401 1.356 1_565 S
C400 H437 0.930 . S
C401 C398 1.348 . S
C401 C400 1.356 1_545 S
H402 C396 0.930 . S
H403 C397 0.930 . S
C404 N405 1.314 . S
C404 C406 1.353 . S
C404 H410 0.930 . S
N405 Li355 1.990 . S
N405 C404 1.314 . S
N405 C408 1.279 . S
C406 C404 1.353 . S
C406 C409 1.348 . S
C406 H438 0.929 . S
C407 C408 1.358 . S
C407 C409 1.356 . S
C407 H439 0.930 . S
C408 N405 1.279 . S
C408 C407 1.358 . S
C408 H411 0.930 . S
C409 C406 1.348 . S
C409 C407 1.356 . S
H410 C404 0.930 . S
H411 C408 0.930 . S
O412 Li352 1.956 . S
O412 Li353 1.970 . S
O412 Li354 1.961 . S
O412 C356 1.325 . S
O413 Li352 1.970 . S
O413 Li353 1.956 . S
O413 Li355 1.961 1_545 S
O413 C362 1.325 . S
O414 Li352 1.961 . S
O414 Li354 1.956 . S
O414 Li355 1.970 1_545 S
O414 C384 1.325 . S
O415 Li353 1.961 1_565 S
O415 Li354 1.970 1_565 S
O415 Li355 1.956 . S
O415 C390 1.325 . S
H416 C358 0.929 . S
H417 C359 0.930 . S
H418 C360 0.930 . S
H419 C361 0.930 . S
H420 C363 0.930 . S
H421 C365 0.929 . S
H422 C366 0.930 . S
H423 C367 0.930 . S
H424 C370 0.930 . S
H425 C373 0.929 . S
H426 C378 0.929 . S
H427 C379 0.930 . S
H428 C386 0.929 . S
H429 C387 0.930 . S
H430 C388 0.930 . S
H431 C389 0.930 . S
H432 C391 0.929 . S
H433 C392 0.930 . S
H434 C393 0.930 . S
H435 C394 0.930 . S
H436 C398 0.929 . S
H437 C400 0.930 . S
H438 C406 0.929 . S
H439 C407 0.930 . S
Li440 N457 1.990 . S
Li440 O500 1.956 . S
Li440 O501 1.970 1_455 S
Li440 O502 1.961 1_455 S
Li441 N465 1.991 . S
Li441 O500 1.963 1_655 S
Li441 O501 1.963 . S
Li441 O503 1.960 1_655 S
Li442 N487 1.990 . S
Li442 O500 1.961 . S
Li442 O502 1.954 1_455 S
Li442 O503 1.970 . S
Li443 N493 1.990 . S
Li443 O501 1.961 . S
Li443 O502 1.972 . S
Li443 O503 1.956 1_655 S
C444 C446 1.348 . S
C444 C447 1.356 . S
C444 O500 1.325 . S
N445 C448 1.314 . S
N445 C449 1.279 . S
C446 C444 1.348 . S
C446 C448 1.353 . S
C446 H504 0.929 . S
C447 C444 1.356 . S
C447 C449 1.358 . S
C447 H505 0.930 . S
C448 N445 1.314 . S
C448 C446 1.353 . S
C448 H506 0.930 . S
C449 N445 1.279 . S
C449 C447 1.358 . S
C449 H507 0.930 . S
C450 C453 1.348 . S
C450 C454 1.356 . S
C450 O501 1.325 . S
C451 N452 1.279 . S
C451 C454 1.358 . S
C451 H508 0.930 . S
N452 C451 1.279 . S
N452 C455 1.314 . S
C453 C450 1.348 . S
C453 C455 1.353 . S
C453 H509 0.929 . S
C454 C450 1.356 . S
C454 C451 1.358 . S
C454 H510 0.930 . S
C455 N452 1.314 . S
C455 C453 1.353 . S
C455 H511 0.930 . S
C456 N457 1.314 1_655 S
C456 C461 1.353 . S
C456 H462 0.930 . S
N457 Li440 1.990 . S
N457 C456 1.314 1_455 S
N457 C459 1.279 . S
C458 C459 1.358 . S
C458 C460 1.356 . S
C458 H512 0.930 . S
C459 N457 1.279 . S
C459 C458 1.358 . S
C459 H463 0.930 . S
C460 C458 1.356 . S
C460 C461 1.348 1_455 S
C461 C456 1.353 . S
C461 C460 1.348 1_655 S
C461 H513 0.929 . S
H462 C456 0.930 . S
H463 C459 0.930 . S
C464 N465 1.314 1_455 S
C464 C466 1.353 . S
C464 H470 0.930 . S
N465 Li441 1.991 . S
N465 C464 1.314 1_655 S
N465 C468 1.279 . S
C466 C464 1.353 . S
C466 C469 1.348 . S
C466 H514 0.929 . S
C467 C468 1.358 . S
C467 C469 1.356 1_655 S
C467 H515 0.930 . S
C468 N465 1.279 . S
C468 C467 1.358 . S
C468 H471 0.930 . S
C469 C466 1.348 . S
C469 C467 1.356 1_455 S
H470 C464 0.930 . S
H471 C468 0.930 . S
C472 C474 1.348 1_455 S
C472 C475 1.356 . S
C472 O502 1.325 1_455 S
N473 C476 1.314 1_455 S
N473 C477 1.279 . S
C474 C472 1.348 1_655 S
C474 C476 1.353 . S
C474 H516 0.929 . S
C475 C472 1.356 . S
C475 C477 1.358 . S
C475 H517 0.930 . S
C476 N473 1.314 1_655 S
C476 C474 1.353 . S
C476 H518 0.930 . S
C477 N473 1.279 . S
C477 C475 1.358 . S
C477 H519 0.930 . S
C478 C479 1.348 . S
C478 C480 1.356 1_455 S
C478 O503 1.325 . S
C479 C478 1.348 . S
C479 C481 1.353 . S
C479 H520 0.929 . S
C480 C478 1.356 1_655 S
C480 C482 1.358 . S
C480 H521 0.930 . S
C481 C479 1.353 . S
C481 N483 1.314 1_455 S
C481 H522 0.930 . S
C482 C480 1.358 . S
C482 N483 1.279 . S
C482 H523 0.930 . S
N483 C481 1.314 1_655 S
N483 C482 1.279 . S
C484 C486 1.353 . S
C484 N487 1.314 . S
C484 H490 0.930 . S
C485 N487 1.279 . S
C485 C488 1.358 . S
C485 H491 0.930 . S
C486 C484 1.353 . S
C486 C489 1.348 . S
C486 H524 0.929 . S
N487 Li442 1.990 . S
N487 C484 1.314 . S
N487 C485 1.279 . S
C488 C485 1.358 . S
C488 C489 1.356 . S
C488 H525 0.930 . S
C489 C486 1.348 . S
C489 C488 1.356 . S
H490 C484 0.930 . S
H491 C485 0.930 . S
C492 N493 1.314 . S
C492 C494 1.353 . S
C492 H498 0.930 . S
N493 Li443 1.990 . S
N493 C492 1.314 . S
N493 C496 1.279 . S
C494 C492 1.353 . S
C494 C497 1.348 . S
C494 H526 0.929 . S
C495 C496 1.358 . S
C495 C497 1.356 . S
C495 H527 0.930 . S
C496 N493 1.279 . S
C496 C495 1.358 . S
C496 H499 0.930 . S
C497 C494 1.348 . S
C497 C495 1.356 . S
H498 C492 0.930 . S
H499 C496 0.930 . S
O500 Li440 1.956 . S
O500 Li441 1.963 1_455 S
O500 Li442 1.961 . S
O500 C444 1.325 . S
O501 Li440 1.970 1_655 S
O501 Li441 1.963 . S
O501 Li443 1.961 . S
O501 C450 1.325 . S
O502 Li440 1.961 1_655 S
O502 Li442 1.954 1_655 S
O502 Li443 1.972 . S
O502 C472 1.325 1_655 S
O503 Li441 1.960 1_455 S
O503 Li442 1.970 . S
O503 Li443 1.956 1_455 S
O503 C478 1.325 . S
H504 C446 0.929 . S
H505 C447 0.930 . S
H506 C448 0.930 . S
H507 C449 0.930 . S
H508 C451 0.930 . S
H509 C453 0.929 . S
H510 C454 0.930 . S
H511 C455 0.930 . S
H512 C458 0.930 . S
H513 C461 0.929 . S
H514 C466 0.929 . S
H515 C467 0.930 . S
H516 C474 0.929 . S
H517 C475 0.930 . S
H518 C476 0.930 . S
H519 C477 0.930 . S
H520 C479 0.929 . S
H521 C480 0.930 . S
H522 C481 0.930 . S
H523 C482 0.930 . S
H524 C486 0.929 . S
H525 C488 0.930 . S
H526 C494 0.929 . S
H527 C495 0.930 . S
Li528 N545 1.990 . S
Li528 O588 1.956 . S
Li528 O589 1.970 1_545 S
Li528 O590 1.961 . S
Li529 N553 1.990 . S
Li529 O588 1.964 1_565 S
Li529 O589 1.956 . S
Li529 O591 1.961 1_565 S
Li530 N575 1.990 . S
Li530 O588 1.967 . S
Li530 O590 1.956 . S
Li530 O591 1.970 . S
Li531 N581 1.990 1_545 S
Li531 O589 1.960 1_545 S
Li531 O590 1.972 . S
Li531 O591 1.956 . S
C532 C534 1.325 1_545 S
C532 C535 1.379 . S
C532 O588 1.325 . S
N533 C536 1.314 1_545 S
N533 C537 1.279 . S
C534 C532 1.325 1_565 S
C534 C536 1.353 . S
C534 H592 0.929 . S
C535 C532 1.379 . S
C535 C537 1.358 . S
C535 H593 0.930 . S
C536 N533 1.314 1_565 S
C536 C534 1.353 . S
C536 H594 0.930 . S
C537 N533 1.279 . S
C537 C535 1.358 . S
C537 H595 0.930 . S
C538 C541 1.348 . S
C538 C542 1.356 . S
C538 O589 1.325 . S
C539 N540 1.279 . S
C539 C542 1.358 . S
C539 H596 0.930 . S
N540 C539 1.279 . S
N540 C543 1.314 . S
C541 C538 1.348 . S
C541 C543 1.353 . S
C541 H597 0.929 . S
C542 C538 1.356 . S
C542 C539 1.358 . S
C542 H598 0.930 . S
C543 N540 1.314 . S
C543 C541 1.353 . S
C543 H599 0.930 . S
C544 N545 1.314 . S
C544 C549 1.353 . S
C544 H550 0.930 . S
N545 Li528 1.990 . S
N545 C544 1.314 . S
N545 C547 1.279 1_545 S
C546 C547 1.358 . S
C546 C548 1.352 1_565 S
C546 H600 0.930 . S
C547 N545 1.279 1_565 S
C547 C546 1.358 . S
C547 H551 0.930 . S
C548 C546 1.352 1_545 S
C548 C549 1.354 . S
C549 C544 1.353 . S
C549 C548 1.354 . S
C549 H601 0.929 . S
H550 C544 0.930 . S
H551 C547 0.930 . S
C552 N553 1.314 . S
C552 C554 1.353 . S
C552 H558 0.930 . S
N553 Li529 1.990 . S
N553 C552 1.314 . S
N553 C556 1.279 . S
C554 C552 1.353 . S
C554 C557 1.348 . S
C554 H602 0.929 . S
C555 C556 1.358 . S
C555 C557 1.356 . S
C555 H603 0.930 . S
C556 N553 1.279 . S
C556 C555 1.358 . S
C556 H559 0.930 . S
C557 C554 1.348 . S
C557 C555 1.356 . S
H558 C552 0.930 . S
H559 C556 0.930 . S
C560 C562 1.348 . S
C560 C563 1.356 . S
C560 O590 1.325 . S
N561 C564 1.314 . S
N561 C565 1.279 . S
C562 C560 1.348 . S
C562 C564 1.353 . S
C562 H604 0.929 . S
C563 C560 1.356 . S
C563 C565 1.358 . S
C563 H605 0.930 . S
C564 N561 1.314 . S
C564 C562 1.353 . S
C564 H606 0.930 . S
C565 N561 1.279 . S
C565 C563 1.358 . S
C565 H607 0.930 . S
C566 C567 1.364 . S
C566 C568 1.340 1_545 S
C566 O591 1.325 . S
C567 C566 1.364 . S
C567 C569 1.353 . S
C567 H608 0.929 . S
C568 C566 1.340 1_565 S
C568 C570 1.358 . S
C568 H609 0.930 . S
C569 C567 1.353 . S
C569 N571 1.314 1_545 S
C569 H610 0.930 . S
C570 C568 1.358 . S
C570 N571 1.279 . S
C570 H611 0.930 . S
N571 C569 1.314 1_565 S
N571 C570 1.279 . S
C572 C574 1.353 . S
C572 N575 1.314 . S
C572 H578 0.930 . S
C573 N575 1.279 . S
C573 C576 1.358 . S
C573 H579 0.930 . S
C574 C572 1.353 . S
C574 C577 1.348 . S
C574 H612 0.929 . S
N575 Li530 1.990 . S
N575 C572 1.314 . S
N575 C573 1.279 . S
C576 C573 1.358 . S
C576 C577 1.356 . S
C576 H613 0.930 . S
C577 C574 1.348 . S
C577 C576 1.356 . S
H578 C572 0.930 . S
H579 C573 0.930 . S
C580 N581 1.314 . S
C580 C582 1.353 . S
C580 H586 0.930 . S
N581 Li531 1.990 1_565 S
N581 C580 1.314 . S
N581 C584 1.279 1_565 S
C582 C580 1.353 . S
C582 C585 1.340 1_565 S
C582 H614 0.929 . S
C583 C584 1.358 . S
C583 C585 1.361 . S
C583 H615 0.930 . S
C584 N581 1.279 1_545 S
C584 C583 1.358 . S
C584 H587 0.930 . S
C585 C582 1.340 1_545 S
C585 C583 1.361 . S
H586 C580 0.930 . S
H587 C584 0.930 . S
O588 Li528 1.956 . S
O588 Li529 1.964 1_545 S
O588 Li530 1.967 . S
O588 C532 1.325 . S
O589 Li528 1.970 1_565 S
O589 Li529 1.956 . S
O589 Li531 1.960 1_565 S
O589 C538 1.325 . S
O590 Li528 1.961 . S
O590 Li530 1.956 . S
O590 Li531 1.972 . S
O590 C560 1.325 . S
O591 Li529 1.961 1_545 S
O591 Li530 1.970 . S
O591 Li531 1.956 . S
O591 C566 1.325 . S
H592 C534 0.929 . S
H593 C535 0.930 . S
H594 C536 0.930 . S
H595 C537 0.930 . S
H596 C539 0.930 . S
H597 C541 0.929 . S
H598 C542 0.930 . S
H599 C543 0.930 . S
H600 C546 0.930 . S
H601 C549 0.929 . S
H602 C554 0.929 . S
H603 C555 0.930 . S
H604 C562 0.929 . S
H605 C563 0.930 . S
H606 C564 0.930 . S
H607 C565 0.930 . S
H608 C567 0.929 . S
H609 C568 0.930 . S
H610 C569 0.930 . S
H611 C570 0.930 . S
H612 C574 0.929 . S
H613 C576 0.930 . S
H614 C582 0.929 . S
H615 C583 0.930 . S
Li616 N633 1.990 . S
Li616 O676 1.956 1_655 S
Li616 O677 1.988 . S
Li616 O678 1.961 . S
Li617 N641 1.990 . S
Li617 O676 1.970 . S
Li617 O677 1.937 1_455 S
Li617 O679 1.961 . S
Li618 N663 1.990 . S
Li618 O676 1.961 1_655 S
Li618 O678 1.956 . S
Li618 O679 1.970 1_655 S
Li619 N669 1.990 . S
Li619 O677 1.960 1_455 S
Li619 O678 1.970 1_455 S
Li619 O679 1.956 . S
C620 C622 1.358 . S
C620 C623 1.344 1_455 S
C620 O676 1.326 . S
N621 C624 1.314 1_655 S
N621 C625 1.279 . S
C622 C620 1.358 . S
C622 C624 1.353 . S
C622 H680 0.929 . S
C623 C620 1.344 1_655 S
C623 C625 1.358 . S
C623 H681 0.930 . S
C624 N621 1.314 1_455 S
C624 C622 1.353 . S
C624 H682 0.930 . S
C625 N621 1.279 . S
C625 C623 1.358 . S
C625 H683 0.930 . S
C626 C629 1.337 1_455 S
C626 C630 1.369 . S
C626 O677 1.324 1_455 S
C627 N628 1.279 . S
C627 C630 1.358 . S
C627 H684 0.930 . S
N628 C627 1.279 . S
N628 C631 1.314 1_455 S
C629 C626 1.337 1_655 S
C629 C631 1.353 . S
C629 H685 0.929 . S
C630 C626 1.369 . S
C630 C627 1.358 . S
C630 H686 0.930 . S
C631 N628 1.314 1_655 S
C631 C629 1.353 . S
C631 H687 0.930 . S
C632 N633 1.314 . S
C632 C637 1.353 . S
C632 H638 0.930 . S
N633 Li616 1.990 . S
N633 C632 1.314 . S
N633 C635 1.279 . S
C634 C635 1.358 . S
C634 C636 1.356 . S
C634 H688 0.930 . S
C635 N633 1.279 . S
C635 C634 1.358 . S
C635 H639 0.930 . S
C636 C634 1.356 . S
C636 C637 1.348 . S
C637 C632 1.353 . S
C637 C636 1.348 . S
C637 H689 0.929 . S
H638 C632 0.930 . S
H639 C635 0.930 . S
C640 N641 1.314 . S
C640 C642 1.353 . S
C640 H646 0.930 . S
N641 Li617 1.990 . S
N641 C640 1.314 . S
N641 C644 1.279 . S
C642 C640 1.353 . S
C642 C645 1.348 . S
C642 H690 0.929 . S
C643 C644 1.358 . S
C643 C645 1.356 . S
C643 H691 0.930 . S
C644 N641 1.279 . S
C644 C643 1.358 . S
C644 H647 0.930 . S
C645 C642 1.348 . S
C645 C643 1.356 . S
H646 C640 0.930 . S
H647 C644 0.930 . S
C648 C650 1.348 . S
C648 C651 1.356 . S
C648 O678 1.325 . S
N649 C652 1.314 . S
N649 C653 1.279 . S
C650 C648 1.348 . S
C650 C652 1.353 . S
C650 H692 0.929 . S
C651 C648 1.356 . S
C651 C653 1.358 . S
C651 H693 0.930 . S
C652 N649 1.314 . S
C652 C650 1.353 . S
C652 H694 0.930 . S
C653 N649 1.279 . S
C653 C651 1.358 . S
C653 H695 0.930 . S
C654 C655 1.348 . S
C654 C656 1.356 . S
C654 O679 1.325 . S
C655 C654 1.348 . S
C655 C657 1.353 . S
C655 H696 0.929 . S
C656 C654 1.356 . S
C656 C658 1.358 . S
C656 H697 0.930 . S
C657 C655 1.353 . S
C657 N659 1.314 . S
C657 H698 0.930 . S
C658 C656 1.358 . S
C658 N659 1.279 . S
C658 H699 0.930 . S
N659 C657 1.314 . S
N659 C658 1.279 . S
C660 C662 1.353 . S
C660 N663 1.314 1_455 S
C660 H666 0.930 . S
C661 N663 1.279 . S
C661 C664 1.358 . S
C661 H667 0.930 . S
C662 C660 1.353 . S
C662 C665 1.357 . S
C662 H700 0.929 . S
N663 Li618 1.990 . S
N663 C660 1.314 1_655 S
N663 C661 1.279 . S
C664 C661 1.358 . S
C664 C665 1.345 1_655 S
C664 H701 0.930 . S
C665 C662 1.357 . S
C665 C664 1.345 1_455 S
H666 C660 0.930 . S
H667 C661 0.930 . S
C668 N669 1.314 1_655 S
C668 C670 1.353 . S
C668 H674 0.930 . S
N669 Li619 1.990 . S
N669 C668 1.314 1_455 S
N669 C672 1.279 . S
C670 C668 1.353 . S
C670 C673 1.336 1_655 S
C670 H702 0.929 . S
C671 C672 1.358 . S
C671 C673 1.370 . S
C671 H703 0.930 . S
C672 N669 1.279 . S
C672 C671 1.358 . S
C672 H675 0.930 . S
C673 C670 1.336 1_455 S
C673 C671 1.370 . S
H674 C668 0.930 . S
H675 C672 0.930 . S
O676 Li616 1.956 1_455 S
O676 Li617 1.970 . S
O676 Li618 1.961 1_455 S
O676 C620 1.326 . S
O677 Li616 1.988 . S
O677 Li617 1.937 1_655 S
O677 Li619 1.960 1_655 S
O677 C626 1.324 1_655 S
O678 Li616 1.961 . S
O678 Li618 1.956 . S
O678 Li619 1.970 1_655 S
O678 C648 1.325 . S
O679 Li617 1.961 . S
O679 Li618 1.970 1_455 S
O679 Li619 1.956 . S
O679 C654 1.325 . S
H680 C622 0.929 . S
H681 C623 0.930 . S
H682 C624 0.930 . S
H683 C625 0.930 . S
H684 C627 0.930 . S
H685 C629 0.929 . S
H686 C630 0.930 . S
H687 C631 0.930 . S
H688 C634 0.930 . S
H689 C637 0.929 . S
H690 C642 0.929 . S
H691 C643 0.930 . S
H692 C650 0.929 . S
H693 C651 0.930 . S
H694 C652 0.930 . S
H695 C653 0.930 . S
H696 C655 0.929 . S
H697 C656 0.930 . S
H698 C657 0.930 . S
H699 C658 0.930 . S
H700 C662 0.929 . S
H701 C664 0.930 . S
H702 C670 0.929 . S
H703 C671 0.930 . S
C49 C381 1.630 1_554 S
C108 C469 1.626 . S
C548 C233 1.630 1_556 S
C673 C313 1.626 . S
C29 C196 0.721 . S
C117 C321 0.718 . S
C585 C401 0.721 . S
C460 C665 0.718 . S
C489 C20 1.686 . S
C145 C577 1.686 . S
C636 C205 1.686 . S
C293 C409 1.686 . S
C557 C284 1.679 . S
C57 C645 1.679 . S
C137 C372 1.679 . S
C497 C225 1.679 . S
