# Generated by pormake.
# Topology wka, (5)-cn, num edge types: 1
# Building blocks:
#     Node 0, Type 0, BuildingBlock: XOMCOT_clean_sbu_1, # of connection points: 5
#     Node 1, Type 0, BuildingBlock: XOMCOT_clean_sbu_1, # of connection points: 5
#     Node 2, Type 0, BuildingBlock: XOMCOT_clean_sbu_1, # of connection points: 5
#     Node 3, Type 0, BuildingBlock: XOMCOT_clean_sbu_1, # of connection points: 5
#     Node 4, Type 0, BuildingBlock: XOMCOT_clean_sbu_1, # of connection points: 5
#     Node 5, Type 0, BuildingBlock: XOMCOT_clean_sbu_1, # of connection points: 5
#     Node 6, Type 0, BuildingBlock: XOMCOT_clean_sbu_1, # of connection points: 5
#     Node 7, Type 0, BuildingBlock: XOMCOT_clean_sbu_1, # of connection points: 5
#     Node 8, Type 0, BuildingBlock: XOMCOT_clean_sbu_1, # of connection points: 5
#     Node 9, Type 0, BuildingBlock: XOMCOT_clean_sbu_1, # of connection points: 5
#     Node 10, Type 0, BuildingBlock: XOMCOT_clean_sbu_1, # of connection points: 5
#     Node 11, Type 0, BuildingBlock: XOMCOT_clean_sbu_1, # of connection points: 5
#     Edge 12, Type (0, 0), BuildingBlock: EYOCIG_clean_linker_4, # of connection points: 2
#     Edge 13, Type (0, 0), BuildingBlock: EYOCIG_clean_linker_4, # of connection points: 2
#     Edge 14, Type (0, 0), BuildingBlock: EYOCIG_clean_linker_4, # of connection points: 2
#     Edge 15, Type (0, 0), BuildingBlock: EYOCIG_clean_linker_4, # of connection points: 2
#     Edge 16, Type (0, 0), BuildingBlock: EYOCIG_clean_linker_4, # of connection points: 2
#     Edge 17, Type (0, 0), BuildingBlock: EYOCIG_clean_linker_4, # of connection points: 2
#     Edge 18, Type (0, 0), BuildingBlock: EYOCIG_clean_linker_4, # of connection points: 2
#     Edge 19, Type (0, 0), BuildingBlock: EYOCIG_clean_linker_4, # of connection points: 2
#     Edge 20, Type (0, 0), BuildingBlock: EYOCIG_clean_linker_4, # of connection points: 2
#     Edge 21, Type (0, 0), BuildingBlock: EYOCIG_clean_linker_4, # of connection points: 2
#     Edge 22, Type (0, 0), BuildingBlock: EYOCIG_clean_linker_4, # of connection points: 2
#     Edge 23, Type (0, 0), BuildingBlock: EYOCIG_clean_linker_4, # of connection points: 2
#     Edge 24, Type (0, 0), BuildingBlock: EYOCIG_clean_linker_4, # of connection points: 2
#     Edge 25, Type (0, 0), BuildingBlock: EYOCIG_clean_linker_4, # of connection points: 2
#     Edge 26, Type (0, 0), BuildingBlock: EYOCIG_clean_linker_4, # of connection points: 2
#     Edge 27, Type (0, 0), BuildingBlock: EYOCIG_clean_linker_4, # of connection points: 2
#     Edge 28, Type (0, 0), BuildingBlock: EYOCIG_clean_linker_4, # of connection points: 2
#     Edge 29, Type (0, 0), BuildingBlock: EYOCIG_clean_linker_4, # of connection points: 2
#     Edge 30, Type (0, 0), BuildingBlock: EYOCIG_clean_linker_4, # of connection points: 2
#     Edge 31, Type (0, 0), BuildingBlock: EYOCIG_clean_linker_4, # of connection points: 2
#     Edge 32, Type (0, 0), BuildingBlock: EYOCIG_clean_linker_4, # of connection points: 2
#     Edge 33, Type (0, 0), BuildingBlock: EYOCIG_clean_linker_4, # of connection points: 2
#     Edge 34, Type (0, 0), BuildingBlock: EYOCIG_clean_linker_4, # of connection points: 2
#     Edge 35, Type (0, 0), BuildingBlock: EYOCIG_clean_linker_4, # of connection points: 2
#     Edge 36, Type (0, 0), BuildingBlock: EYOCIG_clean_linker_4, # of connection points: 2
#     Edge 37, Type (0, 0), BuildingBlock: EYOCIG_clean_linker_4, # of connection points: 2
#     Edge 38, Type (0, 0), BuildingBlock: EYOCIG_clean_linker_4, # of connection points: 2
#     Edge 39, Type (0, 0), BuildingBlock: EYOCIG_clean_linker_4, # of connection points: 2
#     Edge 40, Type (0, 0), BuildingBlock: EYOCIG_clean_linker_4, # of connection points: 2
#     Edge 41, Type (0, 0), BuildingBlock: EYOCIG_clean_linker_4, # of connection points: 2
# Relax obj value: 0.239
# Max RMSD: 0.186
# Mean RMSD: 0.186
data_MOF--net-wka--node1-XOMCOT_clean_sbu_1--edge1-EYOCIG_clean_linker_4
_symmetry_space_group_name_H-M    P1
_symmetry_Int_Tables_number       1
_symmetry_cell_setting            triclinic
loop_
_symmetry_equiv_pos_as_xyz
'x, y, z'
_cell_length_a     53.519929
_cell_length_b     53.529953
_cell_length_c     14.083959
_cell_angle_alpha  89.996134
_cell_angle_beta   90.013604
_cell_angle_gamma 119.98015
loop_
_atom_site_label
_atom_site_type_symbol
_atom_site_fract_x
_atom_site_fract_y
_atom_site_fract_z
_atom_type_partial_charge
C0 C 0.16783 0.45505 0.94634 0.0
C1 C 0.17225 0.45745 0.84944 0.0
N2 N 0.15123 0.43329 0.80946 0.0
N3 N 0.14403 0.42956 0.96598 0.0
C4 C 0.13466 0.41665 0.88075 0.0
H5 H 0.18018 0.47143 0.99868 0.0
Co6 Co 0.12607 0.41821 0.08362 0.0
C7 C 0.06403 0.38451 0.01791 0.0
O8 O 0.05589 0.39785 0.07787 0.0
N9 N 0.109 0.40679 0.20412 0.0
C10 C 0.08394 0.3819 0.33111 0.0
C11 C 0.08437 0.38323 0.23333 0.0
C12 C 0.12358 0.41855 0.28549 0.0
N13 N 0.10869 0.40416 0.36264 0.0
O14 O 0.13908 0.39082 0.09741 0.0
H15 H 0.06862 0.36666 0.18772 0.0
H16 H 0.14557 0.43623 0.28834 0.0
O17 O 0.09008 0.38957 0.01836 0.0
C18 C 0.1639 0.40346 0.13672 0.0
O19 O 0.17696 0.43148 0.14922 0.0
N20 N 0.11614 0.44743 0.07496 0.0
C21 C 0.10786 0.49475 0.07217 0.0
C22 C 0.09687 0.47443 0.99892 0.0
C23 C 0.10183 0.45111 0.00051 0.0
C24 C 0.12861 0.46839 0.14251 0.0
C25 C 0.12423 0.4919 0.14368 0.0
H26 H 0.09461 0.4364 0.9411 0.0
H27 H 0.14302 0.46768 0.19409 0.0
H28 H 0.11522 0.39614 0.86984 0.0
H29 H 0.18861 0.47597 0.81118 0.0
H30 H 0.06757 0.36513 0.37515 0.0
H31 H 0.08507 0.47682 0.94043 0.0
H32 H 0.13409 0.50804 0.19899 0.0
C33 C 0.72446 0.16161 0.11305 0.0
C34 C 0.72648 0.16603 0.01614 0.0
N35 N 0.72968 0.14504 0.97619 0.0
N36 N 0.72622 0.13784 0.13271 0.0
C37 C 0.7298 0.12849 0.0475 0.0
H38 H 0.7204 0.17394 0.16537 0.0
Co39 Co 0.71966 0.11989 0.25037 0.0
C40 C 0.69141 0.05786 0.18472 0.0
O41 O 0.66994 0.04971 0.24473 0.0
N42 N 0.71405 0.10283 0.37088 0.0
C43 C 0.71394 0.0778 0.49789 0.0
C44 C 0.71304 0.07823 0.40011 0.0
C45 C 0.71684 0.1174 0.45224 0.0
N46 N 0.71638 0.10253 0.5294 0.0
O47 O 0.76007 0.13295 0.26412 0.0
H48 H 0.71389 0.06249 0.35451 0.0
H49 H 0.72111 0.13938 0.45507 0.0
O50 O 0.71237 0.08392 0.18513 0.0
C51 C 0.77221 0.15776 0.30339 0.0
O52 O 0.7572 0.17079 0.31592 0.0
N53 N 0.68049 0.10992 0.24174 0.0
C54 C 0.62487 0.10159 0.23891 0.0
C55 C 0.63422 0.09061 0.16568 0.0
C56 C 0.66251 0.0956 0.16728 0.0
C57 C 0.67197 0.12236 0.30928 0.0
C58 C 0.64406 0.11795 0.31044 0.0
H59 H 0.67002 0.08839 0.10788 0.0
H60 H 0.68708 0.13678 0.36086 0.0
H61 H 0.73091 0.10907 0.03661 0.0
H62 H 0.72426 0.18236 0.97787 0.0
H63 H 0.71438 0.06144 0.54194 0.0
H64 H 0.62005 0.07882 0.10718 0.0
H65 H 0.63777 0.1278 0.36574 0.0
C66 C 0.57451 0.71824 0.27989 0.0
C67 C 0.5721 0.72025 0.18298 0.0
N68 N 0.59627 0.72339 0.14302 0.0
N69 N 0.6 0.71992 0.29956 0.0
C70 C 0.61292 0.72347 0.21434 0.0
H71 H 0.55812 0.71421 0.33221 0.0
Co72 Co 0.61136 0.71331 0.41722 0.0
C73 C 0.64508 0.68498 0.35152 0.0
O74 O 0.63173 0.6635 0.41143 0.0
N75 N 0.62279 0.70766 0.53774 0.0
C76 C 0.64765 0.70744 0.6648 0.0
C77 C 0.64633 0.70655 0.56701 0.0
C78 C 0.61102 0.71049 0.61908 0.0
N79 N 0.6254 0.70997 0.69627 0.0
O80 O 0.63874 0.7537 0.43105 0.0
H81 H 0.66289 0.70734 0.52144 0.0
H82 H 0.59335 0.71482 0.62188 0.0
O83 O 0.64002 0.70598 0.352 0.0
C84 C 0.6261 0.76588 0.4703 0.0
O85 O 0.59806 0.75093 0.48277 0.0
N86 N 0.58214 0.67417 0.40852 0.0
C87 C 0.53483 0.61861 0.40561 0.0
C88 C 0.55514 0.62794 0.33237 0.0
C89 C 0.57846 0.65621 0.33402 0.0
C90 C 0.56118 0.66567 0.47608 0.0
C91 C 0.53768 0.63779 0.4772 0.0
H92 H 0.59318 0.66371 0.27463 0.0
H93 H 0.5619 0.68078 0.52772 0.0
H94 H 0.63343 0.72452 0.20345 0.0
H95 H 0.55356 0.71808 0.1447 0.0
H96 H 0.6644 0.70781 0.70887 0.0
H97 H 0.55275 0.61378 0.27384 0.0
H98 H 0.52154 0.63151 0.5325 0.0
C99 C 0.86821 0.56852 0.44661 0.0
C100 C 0.86379 0.56612 0.3497 0.0
N101 N 0.88479 0.5903 0.30976 0.0
N102 N 0.89198 0.59403 0.4663 0.0
C103 C 0.90133 0.60696 0.38109 0.0
H104 H 0.85588 0.55213 0.49893 0.0
Co105 Co 0.90995 0.60539 0.58397 0.0
C106 C 0.97197 0.63913 0.51827 0.0
O107 O 0.98012 0.62579 0.5782 0.0
N108 N 0.92702 0.61682 0.70448 0.0
C109 C 0.95208 0.6417 0.83152 0.0
C110 C 0.95165 0.64037 0.73374 0.0
C111 C 0.91244 0.60505 0.78583 0.0
N112 N 0.92733 0.61944 0.86301 0.0
O113 O 0.89686 0.63273 0.59783 0.0
H114 H 0.9674 0.65694 0.68815 0.0
H115 H 0.89045 0.58736 0.78864 0.0
O116 O 0.94592 0.63408 0.51874 0.0
C117 C 0.87204 0.62004 0.63707 0.0
O118 O 0.85902 0.59201 0.64947 0.0
N119 N 0.91993 0.57621 0.57524 0.0
C120 C 0.92825 0.52892 0.57215 0.0
C121 C 0.93918 0.54923 0.49891 0.0
C122 C 0.9342 0.57254 0.50065 0.0
C123 C 0.90754 0.55525 0.64283 0.0
C124 C 0.91194 0.53175 0.64385 0.0
H125 H 0.94138 0.58725 0.44125 0.0
H126 H 0.89316 0.55596 0.69456 0.0
H127 H 0.92076 0.62748 0.37021 0.0
H128 H 0.84746 0.54758 0.31142 0.0
H129 H 0.96845 0.65847 0.87558 0.0
H130 H 0.95093 0.54685 0.44029 0.0
H131 H 0.90213 0.51562 0.69917 0.0
C132 C 0.31154 0.86192 0.61319 0.0
C133 C 0.30953 0.8575 0.51628 0.0
N134 N 0.30634 0.8785 0.4763 0.0
N135 N 0.30979 0.88569 0.63283 0.0
C136 C 0.30622 0.89504 0.5476 0.0
H137 H 0.3156 0.84959 0.66553 0.0
Co138 Co 0.31638 0.90365 0.75049 0.0
C139 C 0.3446 0.96567 0.68484 0.0
O140 O 0.36607 0.97382 0.74485 0.0
N141 N 0.322 0.92072 0.87099 0.0
C142 C 0.32211 0.94574 0.998 0.0
C143 C 0.323 0.94532 0.90022 0.0
C144 C 0.31923 0.90615 0.95235 0.0
N145 N 0.31969 0.92102 0.02951 0.0
O146 O 0.27596 0.89057 0.76431 0.0
H147 H 0.32213 0.96104 0.85462 0.0
H148 H 0.31498 0.88418 0.95519 0.0
O149 O 0.32363 0.93962 0.68524 0.0
C150 C 0.26384 0.86576 0.80362 0.0
O151 O 0.27885 0.85274 0.81611 0.0
N152 N 0.35555 0.91365 0.74179 0.0
C153 C 0.41118 0.92201 0.73883 0.0
C154 C 0.40179 0.93295 0.66559 0.0
C155 C 0.37349 0.92795 0.66727 0.0
C156 C 0.36412 0.90123 0.80935 0.0
C157 C 0.39203 0.90566 0.81044 0.0
H158 H 0.36595 0.93513 0.60787 0.0
H159 H 0.34903 0.88683 0.861 0.0
H160 H 0.30512 0.91447 0.53669 0.0
H161 H 0.31175 0.84117 0.47803 0.0
H162 H 0.32165 0.96209 0.04204 0.0
H163 H 0.41593 0.94474 0.60705 0.0
H164 H 0.39835 0.89584 0.86574 0.0
C165 C 0.46131 0.30528 0.7802 0.0
C166 C 0.46372 0.30327 0.68329 0.0
N167 N 0.43953 0.30008 0.64331 0.0
N168 N 0.4358 0.30355 0.79984 0.0
C169 C 0.42286 0.29997 0.71462 0.0
H170 H 0.47771 0.30935 0.83253 0.0
Co171 Co 0.42442 0.31014 0.91748 0.0
C172 C 0.39067 0.33843 0.85176 0.0
O173 O 0.404 0.3599 0.91172 0.0
N174 N 0.41298 0.31577 0.03798 0.0
C175 C 0.38808 0.31593 0.16496 0.0
C176 C 0.38941 0.31683 0.06719 0.0
C177 C 0.42475 0.31296 0.11935 0.0
N178 N 0.41035 0.31344 0.19649 0.0
O179 O 0.39707 0.26974 0.93126 0.0
H180 H 0.37283 0.316 0.02157 0.0
H181 H 0.44245 0.30866 0.12219 0.0
O182 O 0.39574 0.31744 0.85221 0.0
C183 C 0.40975 0.25758 0.97054 0.0
O184 O 0.43778 0.27256 0.98306 0.0
N185 N 0.45361 0.34929 0.90882 0.0
C186 C 0.50089 0.40488 0.90586 0.0
C187 C 0.48058 0.39551 0.83258 0.0
C188 C 0.45728 0.36723 0.83426 0.0
C189 C 0.47457 0.35783 0.97644 0.0
C190 C 0.49806 0.38572 0.97753 0.0
H191 H 0.44257 0.35971 0.77484 0.0
H192 H 0.47387 0.34275 0.02814 0.0
H193 H 0.40233 0.29887 0.70371 0.0
H194 H 0.48227 0.30548 0.64503 0.0
H195 H 0.3713 0.31552 0.20899 0.0
H196 H 0.48296 0.40965 0.774 0.0
H197 H 0.51419 0.39203 0.03287 0.0
C198 C 0.5747 0.86204 0.8946 0.0
C199 C 0.5723 0.85763 0.99151 0.0
N200 N 0.59651 0.87859 0.03146 0.0
N201 N 0.60023 0.88578 0.87493 0.0
C202 C 0.61318 0.89511 0.96014 0.0
H203 H 0.55829 0.84974 0.84228 0.0
Co204 Co 0.61162 0.90374 0.75728 0.0
C205 C 0.64538 0.96575 0.823 0.0
O206 O 0.63206 0.9739 0.76301 0.0
N207 N 0.62307 0.9208 0.63678 0.0
C208 C 0.64798 0.94584 0.5098 0.0
C209 C 0.64665 0.94541 0.60758 0.0
C210 C 0.6113 0.90623 0.55541 0.0
N211 N 0.62571 0.92111 0.47826 0.0
O212 O 0.63895 0.89064 0.74353 0.0
H213 H 0.66322 0.96115 0.6532 0.0
H214 H 0.5936 0.88425 0.55256 0.0
O215 O 0.64031 0.9397 0.82256 0.0
C216 C 0.62625 0.86582 0.70428 0.0
O217 O 0.59822 0.85282 0.69179 0.0
N218 N 0.58244 0.91374 0.7659 0.0
C219 C 0.53516 0.92209 0.76883 0.0
C220 C 0.55547 0.93301 0.84212 0.0
C221 C 0.57877 0.92802 0.84045 0.0
C222 C 0.56149 0.90135 0.69827 0.0
C223 C 0.538 0.90576 0.69717 0.0
H224 H 0.59348 0.93519 0.89988 0.0
H225 H 0.56219 0.88696 0.64657 0.0
H226 H 0.63372 0.91451 0.97102 0.0
H227 H 0.55374 0.84133 0.02979 0.0
H228 H 0.66477 0.9622 0.46577 0.0
H229 H 0.55309 0.94477 0.9007 0.0
H230 H 0.52187 0.89596 0.64182 0.0
C231 C 0.72443 0.56837 0.06154 0.0
C232 C 0.72645 0.56597 0.15845 0.0
N233 N 0.72962 0.59015 0.1984 0.0
N234 N 0.72615 0.59388 0.04187 0.0
C235 C 0.72972 0.6068 0.12709 0.0
H236 H 0.72038 0.55198 0.00921 0.0
Co237 Co 0.71955 0.60524 0.9242 0.0
C238 C 0.69123 0.63897 0.98988 0.0
O239 O 0.66976 0.62564 0.9299 0.0
N240 N 0.71391 0.61667 0.80369 0.0
C241 C 0.71373 0.64156 0.67667 0.0
C242 C 0.71283 0.64023 0.77445 0.0
C243 C 0.71672 0.6049 0.72234 0.0
N244 N 0.71622 0.6193 0.64517 0.0
O245 O 0.75996 0.6326 0.91041 0.0
H246 H 0.71365 0.6568 0.82005 0.0
H247 H 0.72103 0.58722 0.71952 0.0
O248 O 0.71223 0.63391 0.98945 0.0
C249 C 0.77212 0.61994 0.87114 0.0
O250 O 0.75715 0.59191 0.85865 0.0
N251 N 0.68039 0.57605 0.93287 0.0
C252 C 0.6248 0.52877 0.93581 0.0
C253 C 0.63416 0.54908 0.00908 0.0
C254 C 0.66244 0.57238 0.00741 0.0
C255 C 0.67186 0.55509 0.86528 0.0
C256 C 0.64396 0.5316 0.86418 0.0
H257 H 0.66997 0.58709 0.06682 0.0
H258 H 0.68695 0.5558 0.8136 0.0
H259 H 0.73081 0.62732 0.13797 0.0
H260 H 0.72424 0.54743 0.19672 0.0
H261 H 0.71413 0.65833 0.63262 0.0
H262 H 0.62001 0.5467 0.06764 0.0
H263 H 0.63766 0.51547 0.80885 0.0
C264 C 0.16791 0.71828 0.2284 0.0
C265 C 0.17234 0.72029 0.32531 0.0
N266 N 0.15132 0.72347 0.36526 0.0
N267 N 0.14413 0.72002 0.20872 0.0
C268 C 0.13477 0.72359 0.29393 0.0
H269 H 0.18025 0.71423 0.17608 0.0
Co270 Co 0.12617 0.71343 0.09105 0.0
C271 C 0.06413 0.68517 0.15671 0.0
O272 O 0.05599 0.66369 0.09676 0.0
N273 N 0.10909 0.7078 0.97053 0.0
C274 C 0.08404 0.70764 0.84349 0.0
C275 C 0.08447 0.70674 0.94127 0.0
C276 C 0.12367 0.71059 0.88918 0.0
N277 N 0.10878 0.71011 0.812 0.0
O278 O 0.13922 0.75383 0.07721 0.0
H279 H 0.06872 0.70758 0.98685 0.0
H280 H 0.14566 0.71489 0.88637 0.0
O281 O 0.09018 0.70614 0.15627 0.0
C282 C 0.16404 0.76597 0.03795 0.0
O283 O 0.17708 0.75097 0.02551 0.0
N284 N 0.1162 0.67427 0.09974 0.0
C285 C 0.10789 0.61867 0.10263 0.0
C286 C 0.09693 0.62803 0.17587 0.0
C287 C 0.10191 0.65632 0.17423 0.0
C288 C 0.12864 0.66574 0.03219 0.0
C289 C 0.12424 0.63785 0.03106 0.0
H290 H 0.09471 0.66383 0.23363 0.0
H291 H 0.14304 0.68084 0.98057 0.0
H292 H 0.11534 0.72468 0.30481 0.0
H293 H 0.18867 0.71808 0.36359 0.0
H294 H 0.06767 0.70805 0.79942 0.0
H295 H 0.08514 0.61387 0.23439 0.0
H296 H 0.13408 0.63154 0.97576 0.0
C297 C 0.46129 0.16157 0.39492 0.0
C298 C 0.4637 0.16599 0.49183 0.0
N299 N 0.43952 0.14498 0.53178 0.0
N300 N 0.43579 0.13779 0.37525 0.0
C301 C 0.42287 0.12843 0.46046 0.0
H302 H 0.47768 0.17391 0.34259 0.0
Co303 Co 0.42442 0.11983 0.25759 0.0
C304 C 0.39067 0.05781 0.32322 0.0
O305 O 0.404 0.04966 0.26326 0.0
N306 N 0.41298 0.10277 0.13707 0.0
C307 C 0.38808 0.07773 0.01004 0.0
C308 C 0.38941 0.07816 0.10782 0.0
C309 C 0.42476 0.11734 0.05572 0.0
N310 N 0.41036 0.10246 0.97855 0.0
O311 O 0.39706 0.13289 0.24377 0.0
H312 H 0.37283 0.06242 0.15341 0.0
H313 H 0.44246 0.13932 0.0529 0.0
O314 O 0.39574 0.08386 0.32281 0.0
C315 C 0.40973 0.15771 0.20449 0.0
O316 O 0.43776 0.17074 0.19201 0.0
N317 N 0.45362 0.10986 0.26628 0.0
C318 C 0.50092 0.10155 0.26921 0.0
C319 C 0.4806 0.09058 0.34242 0.0
C320 C 0.45728 0.09556 0.34076 0.0
C321 C 0.47459 0.12231 0.19875 0.0
C322 C 0.49809 0.11791 0.19765 0.0
H323 H 0.44257 0.08835 0.40015 0.0
H324 H 0.47388 0.13672 0.14715 0.0
H325 H 0.40235 0.109 0.47135 0.0
H326 H 0.48223 0.18233 0.5301 0.0
H327 H 0.3713 0.06137 0.96598 0.0
H328 H 0.48298 0.07879 0.40093 0.0
H329 H 0.51423 0.12776 0.14237 0.0
C330 C 0.31127 0.45502 0.56166 0.0
C331 C 0.30924 0.45743 0.65856 0.0
N332 N 0.30611 0.43326 0.69853 0.0
N333 N 0.3096 0.42954 0.54201 0.0
C334 C 0.30605 0.41662 0.62723 0.0
H335 H 0.31529 0.4714 0.50932 0.0
Co336 Co 0.31621 0.41819 0.42436 0.0
C337 C 0.34457 0.3845 0.49005 0.0
O338 O 0.36604 0.39784 0.4301 0.0
N339 N 0.32187 0.40677 0.30386 0.0
C340 C 0.32205 0.38189 0.17685 0.0
C341 C 0.32295 0.38321 0.27463 0.0
C342 C 0.31904 0.41853 0.2225 0.0
N343 N 0.31954 0.40414 0.14534 0.0
O344 O 0.27582 0.3908 0.41055 0.0
H345 H 0.32214 0.36665 0.32023 0.0
H346 H 0.31472 0.43621 0.21966 0.0
O347 O 0.32357 0.38955 0.48961 0.0
C348 C 0.26364 0.40344 0.37126 0.0
O349 O 0.27859 0.43147 0.35879 0.0
N350 N 0.35535 0.44742 0.43305 0.0
C351 C 0.41093 0.49472 0.43591 0.0
C352 C 0.4016 0.47441 0.50916 0.0
C353 C 0.37333 0.4511 0.50753 0.0
C354 C 0.36384 0.46837 0.3655 0.0
C355 C 0.39173 0.49188 0.36436 0.0
H356 H 0.36584 0.43638 0.56693 0.0
H357 H 0.34872 0.46766 0.31389 0.0
H358 H 0.30501 0.39612 0.63814 0.0
H359 H 0.3114 0.47595 0.69682 0.0
H360 H 0.32165 0.36512 0.13281 0.0
H361 H 0.41578 0.4768 0.56767 0.0
H362 H 0.398 0.50801 0.30906 0.0
C363 C 0.86819 0.30538 0.72752 0.0
C364 C 0.86377 0.30336 0.82443 0.0
N365 N 0.88476 0.30015 0.8644 0.0
N366 N 0.89196 0.30362 0.70787 0.0
C367 C 0.90131 0.30003 0.79309 0.0
H368 H 0.85586 0.30945 0.67519 0.0
Co369 Co 0.90992 0.3102 0.59023 0.0
C370 C 0.97195 0.33848 0.65599 0.0
O371 O 0.98009 0.35995 0.59604 0.0
N372 N 0.92699 0.31583 0.46974 0.0
C373 C 0.95205 0.31598 0.34275 0.0
C374 C 0.95162 0.31689 0.44053 0.0
C375 C 0.9124 0.31301 0.38837 0.0
N376 N 0.92729 0.31349 0.31122 0.0
O377 O 0.89688 0.26981 0.57647 0.0
H378 H 0.96738 0.31607 0.48615 0.0
H379 H 0.89041 0.30871 0.38553 0.0
O380 O 0.9459 0.3175 0.65552 0.0
C381 C 0.87206 0.25765 0.5372 0.0
O382 O 0.859 0.27263 0.52467 0.0
N383 N 0.91988 0.34936 0.59889 0.0
C384 C 0.9282 0.40496 0.60185 0.0
C385 C 0.93913 0.39558 0.67515 0.0
C386 C 0.93415 0.3673 0.67347 0.0
C387 C 0.90748 0.35792 0.53125 0.0
C388 C 0.91189 0.38582 0.53016 0.0
H389 H 0.94133 0.35977 0.7329 0.0
H390 H 0.89311 0.34284 0.47952 0.0
H391 H 0.92073 0.29892 0.80399 0.0
H392 H 0.84744 0.30559 0.86269 0.0
H393 H 0.96842 0.31558 0.29872 0.0
H394 H 0.95089 0.40972 0.73376 0.0
H395 H 0.90208 0.39214 0.4748 0.0
C396 C 0.10179 0.56672 0.09358 0.0
C397 C 0.10377 0.59002 0.10177 0.0
C398 C 0.10179 0.54062 0.08129 0.0
C399 C 0.10376 0.51929 0.07308 0.0
C400 C 0.54679 0.09547 0.26022 0.0
C401 C 0.52546 0.09744 0.26838 0.0
C402 C 0.57291 0.09547 0.24798 0.0
C403 C 0.59622 0.09746 0.23979 0.0
C404 C 0.46286 0.54059 0.42686 0.0
C405 C 0.43956 0.51927 0.43503 0.0
C406 C 0.48896 0.56668 0.41462 0.0
C407 C 0.51029 0.58997 0.40647 0.0
C408 C 0.9343 0.45692 0.593 0.0
C409 C 0.93231 0.43361 0.60107 0.0
C410 C 0.93431 0.48303 0.58089 0.0
C411 C 0.93234 0.50437 0.57285 0.0
C412 C 0.46316 0.92815 0.74775 0.0
C413 C 0.43984 0.92615 0.73963 0.0
C414 C 0.48928 0.92817 0.75993 0.0
C415 C 0.51061 0.92619 0.76805 0.0
C416 C 0.57286 0.48292 0.9269 0.0
C417 C 0.59616 0.50423 0.93501 0.0
C418 C 0.54675 0.45681 0.91474 0.0
C419 C 0.52543 0.43352 0.90664 0.0
C420 C 0.02812 0.35751 0.87496 0.0
C421 C 0.0454 0.36949 0.93837 0.0
C422 C 1.00785 0.34738 0.79898 0.0
C423 C 0.99057 0.34208 0.73556 0.0
C424 C 0.67239 1.00166 0.96592 0.0
C425 C 0.66041 0.98437 0.90254 0.0
C426 C 0.68252 0.02194 0.04184 0.0
C427 C 0.68781 0.03923 0.10521 0.0
C428 C 0.67212 0.67609 0.20868 0.0
C429 C 0.66013 0.68139 0.27203 0.0
C430 C 0.68229 0.66596 0.13278 0.0
C431 C 0.68762 0.65399 0.06941 0.0
C432 C 1.0079 0.66614 0.37543 0.0
C433 C 0.9906 0.65417 0.43877 0.0
C434 C 0.0282 0.67628 0.29955 0.0
C435 C 0.0455 0.68159 0.23621 0.0
C436 C 0.36364 0.02188 0.46606 0.0
C437 C 0.37563 0.03918 0.40272 0.0
C438 C 0.3535 1.00159 0.54196 0.0
C439 C 0.34819 0.9843 0.60532 0.0
C440 C 0.36365 0.34734 0.70885 0.0
C441 C 0.37564 0.34203 0.77223 0.0
C442 C 0.3535 0.35748 0.63292 0.0
C443 C 0.34819 0.36947 0.56955 0.0
C444 C 0.19203 0.38193 0.22563 0.0
C445 C 0.17641 0.38796 0.18105 0.0
C446 C 0.214 0.38193 0.28232 0.0
C447 C 0.23564 0.38795 0.32691 0.0
C448 C 0.82189 0.18598 0.39204 0.0
C449 C 0.80023 0.17033 0.34758 0.0
C450 C 0.84388 0.20797 0.44856 0.0
C451 C 0.85952 0.22963 0.49301 0.0
C452 C 0.64767 0.83756 0.61558 0.0
C453 C 0.64169 0.85323 0.66006 0.0
C454 C 0.64763 0.81555 0.55903 0.0
C455 C 0.64159 0.79389 0.51455 0.0
C456 C 0.82179 0.64143 0.78242 0.0
C457 C 0.80013 0.6354 0.8269 0.0
C458 C 0.8438 0.64146 0.72586 0.0
C459 C 0.85946 0.63547 0.68135 0.0
C460 C 0.21419 0.83757 0.89245 0.0
C461 C 0.23583 0.85321 0.84792 0.0
C462 C 0.19222 0.8156 0.94907 0.0
C463 C 0.17658 0.79396 0.99362 0.0
C464 C 0.38826 0.18592 0.11577 0.0
C465 C 0.39427 0.17027 0.16026 0.0
C466 C 0.38827 0.20791 0.05922 0.0
C467 C 0.39428 0.22957 0.01475 0.0
C468 C 0.12752 0.41561 0.53666 0.0
C469 C 0.11852 0.41004 0.45656 0.0
C470 C 0.13758 0.42251 0.63081 0.0
C471 C 0.14453 0.42818 0.71276 0.0
C472 C 0.72684 0.1314 0.79755 0.0
C473 C 0.7281 0.13834 0.8795 0.0
C474 C 0.72372 0.12135 0.70341 0.0
C475 C 0.72031 0.11235 0.62332 0.0
C476 C 0.61394 0.71734 0.87025 0.0
C477 C 0.61951 0.71391 0.79018 0.0
C478 C 0.60703 0.7205 0.96439 0.0
C479 C 0.60137 0.72179 0.04633 0.0
C480 C 0.9085 0.60798 0.037 0.0
C481 C 0.9175 0.61355 0.95692 0.0
C482 C 0.89844 0.60108 0.13114 0.0
C483 C 0.8915 0.59542 0.21308 0.0
C484 C 0.30921 0.89215 0.29766 0.0
C485 C 0.30793 0.8852 0.37961 0.0
C486 C 0.31235 0.9022 0.20351 0.0
C487 C 0.31576 0.9112 0.12343 0.0
C488 C 0.42873 0.30294 0.46467 0.0
C489 C 0.4344 0.30166 0.54662 0.0
C490 C 0.42182 0.30608 0.37051 0.0
C491 C 0.41624 0.30951 0.29042 0.0
C492 C 0.60732 0.89224 0.21009 0.0
C493 C 0.60164 0.8853 0.12815 0.0
C494 C 0.61424 0.90229 0.30425 0.0
C495 C 0.61982 0.91128 0.38434 0.0
C496 C 0.72674 0.60093 0.37703 0.0
C497 C 0.72802 0.59526 0.29509 0.0
C498 C 0.72359 0.60783 0.47118 0.0
C499 C 0.72016 0.61341 0.55126 0.0
C500 C 0.13767 0.7206 0.54388 0.0
C501 C 0.14462 0.72188 0.46194 0.0
C502 C 0.12761 0.71746 0.63802 0.0
C503 C 0.11861 0.71404 0.71809 0.0
C504 C 0.42874 0.13134 0.71041 0.0
C505 C 0.43441 0.13828 0.62847 0.0
C506 C 0.42183 0.12129 0.80455 0.0
C507 C 0.41625 0.11229 0.88463 0.0
C508 C 0.30899 0.42249 0.87718 0.0
C509 C 0.30771 0.42815 0.79523 0.0
C510 C 0.31215 0.41559 0.97133 0.0
C511 C 0.31559 0.41002 0.05142 0.0
C512 C 0.90847 0.30614 0.1372 0.0
C513 C 0.91747 0.30956 0.2173 0.0
C514 C 0.89842 0.303 0.04304 0.0
C515 C 0.89147 0.30173 0.96109 0.0
loop_
_geom_bond_atom_site_label_1
_geom_bond_atom_site_label_2
_geom_bond_distance
_geom_bond_site_symmetry_2
_ccdc_geom_bond_type
C0 C1 1.351 . S
C0 N3 1.368 . S
C0 H5 0.931 . S
C1 C0 1.351 . S
C1 N2 1.373 . S
C1 H29 0.930 . S
N2 C1 1.373 . S
N2 C4 1.340 . S
N3 C0 1.368 . S
N3 C4 1.321 . S
N3 Co6 2.135 1_556 S
C4 N2 1.340 . S
C4 N3 1.321 . S
C4 H28 0.930 . S
H5 C0 0.931 . S
Co6 N3 2.135 1_554 S
Co6 N9 2.121 . S
Co6 O14 2.055 . S
Co6 O17 2.039 . S
Co6 N20 2.140 . S
C7 O8 1.227 . S
C7 O17 1.265 1_556 S
O8 C7 1.227 . S
N9 Co6 2.121 . S
N9 C11 1.375 . S
N9 C12 1.313 . S
C10 C11 1.338 . S
C10 N13 1.377 . S
C10 H30 0.930 . S
C11 N9 1.375 . S
C11 C10 1.338 . S
C11 H15 0.931 . S
C12 N9 1.313 . S
C12 N13 1.344 . S
C12 H16 0.930 . S
N13 C10 1.377 . S
N13 C12 1.344 . S
O14 Co6 2.055 . S
O14 C18 1.253 . S
H15 C11 0.931 . S
H16 C12 0.930 . S
O17 Co6 2.039 . S
O17 C7 1.265 1_554 S
C18 O14 1.253 . S
C18 O19 1.227 . S
O19 C18 1.227 . S
N20 Co6 2.140 . S
N20 C23 1.346 1_554 S
N20 C24 1.345 . S
C21 C22 1.387 1_554 S
C21 C25 1.391 . S
C22 C21 1.387 1_556 S
C22 C23 1.369 . S
C22 H31 0.929 . S
C23 N20 1.346 1_556 S
C23 C22 1.369 . S
C23 H26 0.928 . S
C24 N20 1.345 . S
C24 C25 1.371 . S
C24 H27 0.931 . S
C25 C21 1.391 . S
C25 C24 1.371 . S
C25 H32 0.930 . S
H26 C23 0.928 . S
H27 C24 0.931 . S
H28 C4 0.930 . S
H29 C1 0.930 . S
H30 C10 0.930 . S
H31 C22 0.929 . S
H32 C25 0.930 . S
C33 C34 1.351 1_554 S
C33 N36 1.368 . S
C33 H38 0.931 . S
C34 C33 1.351 1_556 S
C34 N35 1.373 . S
C34 H62 0.930 . S
N35 C34 1.373 . S
N35 C37 1.336 1_556 S
N36 C33 1.368 . S
N36 C37 1.326 . S
N36 Co39 2.135 . S
C37 N35 1.336 1_554 S
C37 N36 1.326 . S
C37 H61 0.930 1_554 S
H38 C33 0.931 . S
Co39 N36 2.135 . S
Co39 N42 2.121 . S
Co39 O47 2.055 . S
Co39 O50 2.039 . S
Co39 N53 2.140 . S
C40 O41 1.227 . S
C40 O50 1.265 . S
O41 C40 1.227 . S
N42 Co39 2.121 . S
N42 C44 1.375 . S
N42 C45 1.313 . S
C43 C44 1.338 . S
C43 N46 1.377 . S
C43 H63 0.930 . S
C44 N42 1.375 . S
C44 C43 1.338 . S
C44 H48 0.931 . S
C45 N42 1.313 . S
C45 N46 1.344 . S
C45 H49 0.930 . S
N46 C43 1.377 . S
N46 C45 1.344 . S
O47 Co39 2.055 . S
O47 C51 1.253 . S
H48 C44 0.931 . S
H49 C45 0.930 . S
O50 Co39 2.039 . S
O50 C40 1.265 . S
C51 O47 1.253 . S
C51 O52 1.227 . S
O52 C51 1.227 . S
N53 Co39 2.140 . S
N53 C56 1.346 . S
N53 C57 1.345 . S
C54 C55 1.387 . S
C54 C58 1.391 . S
C55 C54 1.387 . S
C55 C56 1.369 . S
C55 H64 0.929 . S
C56 N53 1.346 . S
C56 C55 1.369 . S
C56 H59 0.928 . S
C57 N53 1.345 . S
C57 C58 1.371 . S
C57 H60 0.931 . S
C58 C54 1.391 . S
C58 C57 1.371 . S
C58 H65 0.930 . S
H59 C56 0.928 . S
H60 C57 0.931 . S
H61 C37 0.930 1_556 S
H62 C34 0.930 . S
H63 C43 0.930 . S
H64 C55 0.929 . S
H65 C58 0.930 . S
C66 C67 1.351 . S
C66 N69 1.368 . S
C66 H71 0.931 . S
C67 C66 1.351 . S
C67 N68 1.373 . S
C67 H95 0.930 . S
N68 C67 1.373 . S
N68 C70 1.340 . S
N69 C66 1.368 . S
N69 C70 1.321 . S
N69 Co72 2.135 . S
C70 N68 1.340 . S
C70 N69 1.321 . S
C70 H94 0.930 . S
H71 C66 0.931 . S
Co72 N69 2.135 . S
Co72 N75 2.121 . S
Co72 O80 2.055 . S
Co72 O83 2.039 . S
Co72 N86 2.140 . S
C73 O74 1.227 . S
C73 O83 1.265 . S
O74 C73 1.227 . S
N75 Co72 2.121 . S
N75 C77 1.375 . S
N75 C78 1.313 . S
C76 C77 1.338 . S
C76 N79 1.377 . S
C76 H96 0.930 . S
C77 N75 1.375 . S
C77 C76 1.338 . S
C77 H81 0.931 . S
C78 N75 1.313 . S
C78 N79 1.344 . S
C78 H82 0.930 . S
N79 C76 1.377 . S
N79 C78 1.344 . S
O80 Co72 2.055 . S
O80 C84 1.253 . S
H81 C77 0.931 . S
H82 C78 0.930 . S
O83 Co72 2.039 . S
O83 C73 1.265 . S
C84 O80 1.253 . S
C84 O85 1.227 . S
O85 C84 1.227 . S
N86 Co72 2.140 . S
N86 C89 1.346 . S
N86 C90 1.345 . S
C87 C88 1.387 . S
C87 C91 1.391 . S
C88 C87 1.387 . S
C88 C89 1.369 . S
C88 H97 0.929 . S
C89 N86 1.346 . S
C89 C88 1.369 . S
C89 H92 0.928 . S
C90 N86 1.345 . S
C90 C91 1.371 . S
C90 H93 0.931 . S
C91 C87 1.391 . S
C91 C90 1.371 . S
C91 H98 0.930 . S
H92 C89 0.928 . S
H93 C90 0.931 . S
H94 C70 0.930 . S
H95 C67 0.930 . S
H96 C76 0.930 . S
H97 C88 0.929 . S
H98 C91 0.930 . S
C99 C100 1.351 . S
C99 N102 1.368 . S
C99 H104 0.931 . S
C100 C99 1.351 . S
C100 N101 1.373 . S
C100 H128 0.930 . S
N101 C100 1.373 . S
N101 C103 1.340 . S
N102 C99 1.368 . S
N102 C103 1.321 . S
N102 Co105 2.135 . S
C103 N101 1.340 . S
C103 N102 1.321 . S
C103 H127 0.930 . S
H104 C99 0.931 . S
Co105 N102 2.135 . S
Co105 N108 2.121 . S
Co105 O113 2.055 . S
Co105 O116 2.039 . S
Co105 N119 2.140 . S
C106 O107 1.227 . S
C106 O116 1.265 . S
O107 C106 1.227 . S
N108 Co105 2.121 . S
N108 C110 1.375 . S
N108 C111 1.313 . S
C109 C110 1.338 . S
C109 N112 1.377 . S
C109 H129 0.930 . S
C110 N108 1.375 . S
C110 C109 1.338 . S
C110 H114 0.931 . S
C111 N108 1.313 . S
C111 N112 1.344 . S
C111 H115 0.930 . S
N112 C109 1.377 . S
N112 C111 1.344 . S
O113 Co105 2.055 . S
O113 C117 1.253 . S
H114 C110 0.931 . S
H115 C111 0.930 . S
O116 Co105 2.039 . S
O116 C106 1.265 . S
C117 O113 1.253 . S
C117 O118 1.227 . S
O118 C117 1.227 . S
N119 Co105 2.140 . S
N119 C122 1.346 . S
N119 C123 1.345 . S
C120 C121 1.387 . S
C120 C124 1.391 . S
C121 C120 1.387 . S
C121 C122 1.369 . S
C121 H130 0.929 . S
C122 N119 1.346 . S
C122 C121 1.369 . S
C122 H125 0.928 . S
C123 N119 1.345 . S
C123 C124 1.371 . S
C123 H126 0.931 . S
C124 C120 1.391 . S
C124 C123 1.371 . S
C124 H131 0.930 . S
H125 C122 0.928 . S
H126 C123 0.931 . S
H127 C103 0.930 . S
H128 C100 0.930 . S
H129 C109 0.930 . S
H130 C121 0.929 . S
H131 C124 0.930 . S
C132 C133 1.351 . S
C132 N135 1.368 . S
C132 H137 0.931 . S
C133 C132 1.351 . S
C133 N134 1.373 . S
C133 H161 0.930 . S
N134 C133 1.373 . S
N134 C136 1.340 . S
N135 C132 1.368 . S
N135 C136 1.321 . S
N135 Co138 2.135 . S
C136 N134 1.340 . S
C136 N135 1.321 . S
C136 H160 0.930 . S
H137 C132 0.931 . S
Co138 N135 2.135 . S
Co138 N141 2.121 . S
Co138 O146 2.055 . S
Co138 O149 2.039 . S
Co138 N152 2.140 . S
C139 O140 1.227 . S
C139 O149 1.265 . S
O140 C139 1.227 . S
N141 Co138 2.121 . S
N141 C143 1.375 . S
N141 C144 1.313 . S
C142 C143 1.338 . S
C142 N145 1.377 1_556 S
C142 H162 0.930 1_556 S
C143 N141 1.375 . S
C143 C142 1.338 . S
C143 H147 0.931 . S
C144 N141 1.313 . S
C144 N145 1.344 1_556 S
C144 H148 0.930 . S
N145 C142 1.377 1_554 S
N145 C144 1.344 1_554 S
O146 Co138 2.055 . S
O146 C150 1.253 . S
H147 C143 0.931 . S
H148 C144 0.930 . S
O149 Co138 2.039 . S
O149 C139 1.265 . S
C150 O146 1.253 . S
C150 O151 1.227 . S
O151 C150 1.227 . S
N152 Co138 2.140 . S
N152 C155 1.346 . S
N152 C156 1.345 . S
C153 C154 1.387 . S
C153 C157 1.391 . S
C154 C153 1.387 . S
C154 C155 1.369 . S
C154 H163 0.929 . S
C155 N152 1.346 . S
C155 C154 1.369 . S
C155 H158 0.928 . S
C156 N152 1.345 . S
C156 C157 1.371 . S
C156 H159 0.931 . S
C157 C153 1.391 . S
C157 C156 1.371 . S
C157 H164 0.930 . S
H158 C155 0.928 . S
H159 C156 0.931 . S
H160 C136 0.930 . S
H161 C133 0.930 . S
H162 C142 0.930 1_554 S
H163 C154 0.929 . S
H164 C157 0.930 . S
C165 C166 1.351 . S
C165 N168 1.368 . S
C165 H170 0.931 . S
C166 C165 1.351 . S
C166 N167 1.373 . S
C166 H194 0.930 . S
N167 C166 1.373 . S
N167 C169 1.340 . S
N168 C165 1.368 . S
N168 C169 1.321 . S
N168 Co171 2.135 . S
C169 N167 1.340 . S
C169 N168 1.321 . S
C169 H193 0.930 . S
H170 C165 0.931 . S
Co171 N168 2.135 . S
Co171 N174 2.121 1_556 S
Co171 O179 2.055 . S
Co171 O182 2.039 . S
Co171 N185 2.140 . S
C172 O173 1.227 . S
C172 O182 1.265 . S
O173 C172 1.227 . S
N174 Co171 2.121 1_554 S
N174 C176 1.375 . S
N174 C177 1.313 . S
C175 C176 1.338 . S
C175 N178 1.377 . S
C175 H195 0.930 . S
C176 N174 1.375 . S
C176 C175 1.338 . S
C176 H180 0.931 . S
C177 N174 1.313 . S
C177 N178 1.344 . S
C177 H181 0.930 . S
N178 C175 1.377 . S
N178 C177 1.344 . S
O179 Co171 2.055 . S
O179 C183 1.253 . S
H180 C176 0.931 . S
H181 C177 0.930 . S
O182 Co171 2.039 . S
O182 C172 1.265 . S
C183 O179 1.253 . S
C183 O184 1.227 . S
O184 C183 1.227 . S
N185 Co171 2.140 . S
N185 C188 1.346 . S
N185 C189 1.345 . S
C186 C187 1.387 . S
C186 C190 1.391 . S
C187 C186 1.387 . S
C187 C188 1.369 . S
C187 H196 0.929 . S
C188 N185 1.346 . S
C188 C187 1.369 . S
C188 H191 0.928 . S
C189 N185 1.345 . S
C189 C190 1.371 . S
C189 H192 0.931 1_556 S
C190 C186 1.391 . S
C190 C189 1.371 . S
C190 H197 0.930 1_556 S
H191 C188 0.928 . S
H192 C189 0.931 1_554 S
H193 C169 0.930 . S
H194 C166 0.930 . S
H195 C175 0.930 . S
H196 C187 0.929 . S
H197 C190 0.930 1_554 S
C198 C199 1.351 1_556 S
C198 N201 1.368 . S
C198 H203 0.931 . S
C199 C198 1.351 1_554 S
C199 N200 1.373 . S
C199 H227 0.930 . S
N200 C199 1.373 . S
N200 C202 1.340 . S
N201 C198 1.368 . S
N201 C202 1.321 1_556 S
N201 Co204 2.135 . S
C202 N200 1.340 . S
C202 N201 1.321 1_554 S
C202 H226 0.930 . S
H203 C198 0.931 . S
Co204 N201 2.135 . S
Co204 N207 2.121 . S
Co204 O212 2.055 . S
Co204 O215 2.039 . S
Co204 N218 2.140 . S
C205 O206 1.227 . S
C205 O215 1.265 . S
O206 C205 1.227 . S
N207 Co204 2.121 . S
N207 C209 1.375 . S
N207 C210 1.313 . S
C208 C209 1.338 . S
C208 N211 1.377 . S
C208 H228 0.930 . S
C209 N207 1.375 . S
C209 C208 1.338 . S
C209 H213 0.931 . S
C210 N207 1.313 . S
C210 N211 1.344 . S
C210 H214 0.930 . S
N211 C208 1.377 . S
N211 C210 1.344 . S
O212 Co204 2.055 . S
O212 C216 1.253 . S
H213 C209 0.931 . S
H214 C210 0.930 . S
O215 Co204 2.039 . S
O215 C205 1.265 . S
C216 O212 1.253 . S
C216 O217 1.227 . S
O217 C216 1.227 . S
N218 Co204 2.140 . S
N218 C221 1.346 . S
N218 C222 1.345 . S
C219 C220 1.387 . S
C219 C223 1.391 . S
C220 C219 1.387 . S
C220 C221 1.369 . S
C220 H229 0.929 . S
C221 N218 1.346 . S
C221 C220 1.369 . S
C221 H224 0.928 . S
C222 N218 1.345 . S
C222 C223 1.371 . S
C222 H225 0.931 . S
C223 C219 1.391 . S
C223 C222 1.371 . S
C223 H230 0.930 . S
H224 C221 0.928 . S
H225 C222 0.931 . S
H226 C202 0.930 . S
H227 C199 0.930 . S
H228 C208 0.930 . S
H229 C220 0.929 . S
H230 C223 0.930 . S
C231 C232 1.351 . S
C231 N234 1.368 . S
C231 H236 0.931 . S
C232 C231 1.351 . S
C232 N233 1.373 . S
C232 H260 0.930 . S
N233 C232 1.373 . S
N233 C235 1.340 . S
N234 C231 1.368 . S
N234 C235 1.321 . S
N234 Co237 2.135 1_554 S
C235 N233 1.340 . S
C235 N234 1.321 . S
C235 H259 0.930 . S
H236 C231 0.931 . S
Co237 N234 2.135 1_556 S
Co237 N240 2.121 . S
Co237 O245 2.055 . S
Co237 O248 2.039 . S
Co237 N251 2.140 . S
C238 O239 1.227 . S
C238 O248 1.265 1_554 S
O239 C238 1.227 . S
N240 Co237 2.121 . S
N240 C242 1.375 . S
N240 C243 1.313 . S
C241 C242 1.338 . S
C241 N244 1.377 . S
C241 H261 0.930 . S
C242 N240 1.375 . S
C242 C241 1.338 . S
C242 H246 0.931 . S
C243 N240 1.313 . S
C243 N244 1.344 . S
C243 H247 0.930 . S
N244 C241 1.377 . S
N244 C243 1.344 . S
O245 Co237 2.055 . S
O245 C249 1.253 . S
H246 C242 0.931 . S
H247 C243 0.930 . S
O248 Co237 2.039 . S
O248 C238 1.265 1_556 S
C249 O245 1.253 . S
C249 O250 1.227 . S
O250 C249 1.227 . S
N251 Co237 2.140 . S
N251 C254 1.346 1_556 S
N251 C255 1.345 . S
C252 C253 1.387 1_556 S
C252 C256 1.391 . S
C253 C252 1.387 1_554 S
C253 C254 1.369 . S
C253 H262 0.929 . S
C254 N251 1.346 1_554 S
C254 C253 1.369 . S
C254 H257 0.928 . S
C255 N251 1.345 . S
C255 C256 1.371 . S
C255 H258 0.931 . S
C256 C252 1.391 . S
C256 C255 1.371 . S
C256 H263 0.930 . S
H257 C254 0.928 . S
H258 C255 0.931 . S
H259 C235 0.930 . S
H260 C232 0.930 . S
H261 C241 0.930 . S
H262 C253 0.929 . S
H263 C256 0.930 . S
C264 C265 1.351 . S
C264 N267 1.368 . S
C264 H269 0.931 . S
C265 C264 1.351 . S
C265 N266 1.373 . S
C265 H293 0.930 . S
N266 C265 1.373 . S
N266 C268 1.340 . S
N267 C264 1.368 . S
N267 C268 1.321 . S
N267 Co270 2.135 . S
C268 N266 1.340 . S
C268 N267 1.321 . S
C268 H292 0.930 . S
H269 C264 0.931 . S
Co270 N267 2.135 . S
Co270 N273 2.121 1_554 S
Co270 O278 2.055 . S
Co270 O281 2.039 . S
Co270 N284 2.140 . S
C271 O272 1.227 . S
C271 O281 1.265 . S
O272 C271 1.227 . S
N273 Co270 2.121 1_556 S
N273 C275 1.375 . S
N273 C276 1.313 . S
C274 C275 1.338 . S
C274 N277 1.377 . S
C274 H294 0.930 . S
C275 N273 1.375 . S
C275 C274 1.338 . S
C275 H279 0.931 . S
C276 N273 1.313 . S
C276 N277 1.344 . S
C276 H280 0.930 . S
N277 C274 1.377 . S
N277 C276 1.344 . S
O278 Co270 2.055 . S
O278 C282 1.253 . S
H279 C275 0.931 . S
H280 C276 0.930 . S
O281 Co270 2.039 . S
O281 C271 1.265 . S
C282 O278 1.253 . S
C282 O283 1.227 . S
O283 C282 1.227 . S
N284 Co270 2.140 . S
N284 C287 1.346 . S
N284 C288 1.345 . S
C285 C286 1.387 . S
C285 C289 1.391 . S
C286 C285 1.387 . S
C286 C287 1.369 . S
C286 H295 0.929 . S
C287 N284 1.346 . S
C287 C286 1.369 . S
C287 H290 0.928 . S
C288 N284 1.345 . S
C288 C289 1.371 . S
C288 H291 0.931 1_554 S
C289 C285 1.391 . S
C289 C288 1.371 . S
C289 H296 0.930 1_554 S
H290 C287 0.928 . S
H291 C288 0.931 1_556 S
H292 C268 0.930 . S
H293 C265 0.930 . S
H294 C274 0.930 . S
H295 C286 0.929 . S
H296 C289 0.930 1_556 S
C297 C298 1.351 . S
C297 N300 1.368 . S
C297 H302 0.931 . S
C298 C297 1.351 . S
C298 N299 1.373 . S
C298 H326 0.930 . S
N299 C298 1.373 . S
N299 C301 1.340 . S
N300 C297 1.368 . S
N300 C301 1.321 . S
N300 Co303 2.135 . S
C301 N299 1.340 . S
C301 N300 1.321 . S
C301 H325 0.930 . S
H302 C297 0.931 . S
Co303 N300 2.135 . S
Co303 N306 2.121 . S
Co303 O311 2.055 . S
Co303 O314 2.039 . S
Co303 N317 2.140 . S
C304 O305 1.227 . S
C304 O314 1.265 . S
O305 C304 1.227 . S
N306 Co303 2.121 . S
N306 C308 1.375 . S
N306 C309 1.313 . S
C307 C308 1.338 . S
C307 N310 1.377 1_554 S
C307 H327 0.930 1_554 S
C308 N306 1.375 . S
C308 C307 1.338 . S
C308 H312 0.931 . S
C309 N306 1.313 . S
C309 N310 1.344 1_554 S
C309 H313 0.930 . S
N310 C307 1.377 1_556 S
N310 C309 1.344 1_556 S
O311 Co303 2.055 . S
O311 C315 1.253 . S
H312 C308 0.931 . S
H313 C309 0.930 . S
O314 Co303 2.039 . S
O314 C304 1.265 . S
C315 O311 1.253 . S
C315 O316 1.227 . S
O316 C315 1.227 . S
N317 Co303 2.140 . S
N317 C320 1.346 . S
N317 C321 1.345 . S
C318 C319 1.387 . S
C318 C322 1.391 . S
C319 C318 1.387 . S
C319 C320 1.369 . S
C319 H328 0.929 . S
C320 N317 1.346 . S
C320 C319 1.369 . S
C320 H323 0.928 . S
C321 N317 1.345 . S
C321 C322 1.371 . S
C321 H324 0.931 . S
C322 C318 1.391 . S
C322 C321 1.371 . S
C322 H329 0.930 . S
H323 C320 0.928 . S
H324 C321 0.931 . S
H325 C301 0.930 . S
H326 C298 0.930 . S
H327 C307 0.930 1_556 S
H328 C319 0.929 . S
H329 C322 0.930 . S
C330 C331 1.351 . S
C330 N333 1.368 . S
C330 H335 0.931 . S
C331 C330 1.351 . S
C331 N332 1.373 . S
C331 H359 0.930 . S
N332 C331 1.373 . S
N332 C334 1.340 . S
N333 C330 1.368 . S
N333 C334 1.321 . S
N333 Co336 2.135 . S
C334 N332 1.340 . S
C334 N333 1.321 . S
C334 H358 0.930 . S
H335 C330 0.931 . S
Co336 N333 2.135 . S
Co336 N339 2.121 . S
Co336 O344 2.055 . S
Co336 O347 2.039 . S
Co336 N350 2.140 . S
C337 O338 1.227 . S
C337 O347 1.265 . S
O338 C337 1.227 . S
N339 Co336 2.121 . S
N339 C341 1.375 . S
N339 C342 1.313 . S
C340 C341 1.338 . S
C340 N343 1.377 . S
C340 H360 0.930 . S
C341 N339 1.375 . S
C341 C340 1.338 . S
C341 H345 0.931 . S
C342 N339 1.313 . S
C342 N343 1.344 . S
C342 H346 0.930 . S
N343 C340 1.377 . S
N343 C342 1.344 . S
O344 Co336 2.055 . S
O344 C348 1.253 . S
H345 C341 0.931 . S
H346 C342 0.930 . S
O347 Co336 2.039 . S
O347 C337 1.265 . S
C348 O344 1.253 . S
C348 O349 1.227 . S
O349 C348 1.227 . S
N350 Co336 2.140 . S
N350 C353 1.346 . S
N350 C354 1.345 . S
C351 C352 1.387 . S
C351 C355 1.391 . S
C352 C351 1.387 . S
C352 C353 1.369 . S
C352 H361 0.929 . S
C353 N350 1.346 . S
C353 C352 1.369 . S
C353 H356 0.928 . S
C354 N350 1.345 . S
C354 C355 1.371 . S
C354 H357 0.931 . S
C355 C351 1.391 . S
C355 C354 1.371 . S
C355 H362 0.930 . S
H356 C353 0.928 . S
H357 C354 0.931 . S
H358 C334 0.930 . S
H359 C331 0.930 . S
H360 C340 0.930 . S
H361 C352 0.929 . S
H362 C355 0.930 . S
C363 C364 1.351 . S
C363 N366 1.368 . S
C363 H368 0.931 . S
C364 C363 1.351 . S
C364 N365 1.373 . S
C364 H392 0.930 . S
N365 C364 1.373 . S
N365 C367 1.340 . S
N366 C363 1.368 . S
N366 C367 1.321 . S
N366 Co369 2.135 . S
C367 N365 1.340 . S
C367 N366 1.321 . S
C367 H391 0.930 . S
H368 C363 0.931 . S
Co369 N366 2.135 . S
Co369 N372 2.121 . S
Co369 O377 2.055 . S
Co369 O380 2.039 . S
Co369 N383 2.140 . S
C370 O371 1.227 . S
C370 O380 1.265 . S
O371 C370 1.227 . S
N372 Co369 2.121 . S
N372 C374 1.375 . S
N372 C375 1.313 . S
C373 C374 1.338 . S
C373 N376 1.377 . S
C373 H393 0.930 . S
C374 N372 1.375 . S
C374 C373 1.338 . S
C374 H378 0.931 . S
C375 N372 1.313 . S
C375 N376 1.344 . S
C375 H379 0.930 . S
N376 C373 1.377 . S
N376 C375 1.344 . S
O377 Co369 2.055 . S
O377 C381 1.253 . S
H378 C374 0.931 . S
H379 C375 0.930 . S
O380 Co369 2.039 . S
O380 C370 1.265 . S
C381 O377 1.253 . S
C381 O382 1.227 . S
O382 C381 1.227 . S
N383 Co369 2.140 . S
N383 C386 1.346 . S
N383 C387 1.345 . S
C384 C385 1.387 . S
C384 C388 1.391 . S
C385 C384 1.387 . S
C385 C386 1.369 . S
C385 H394 0.929 . S
C386 N383 1.346 . S
C386 C385 1.369 . S
C386 H389 0.928 . S
C387 N383 1.345 . S
C387 C388 1.371 . S
C387 H390 0.931 . S
C388 C384 1.391 . S
C388 C387 1.371 . S
C388 H395 0.930 . S
H389 C386 0.928 . S
H390 C387 0.931 . S
H391 C367 0.930 . S
H392 C364 0.930 . S
H393 C373 0.930 . S
H394 C385 0.929 . S
H395 C388 0.930 . S
C396 C397 1.170 . S
C396 C398 1.380 . S
C397 C396 1.170 . S
C398 C396 1.380 . S
C398 C399 1.170 . S
C399 C398 1.170 . S
C400 C401 1.170 . S
C400 C402 1.380 . S
C401 C400 1.170 . S
C402 C400 1.380 . S
C402 C403 1.170 . S
C403 C402 1.170 . S
C404 C405 1.170 . S
C404 C406 1.380 . S
C405 C404 1.170 . S
C406 C404 1.380 . S
C406 C407 1.170 . S
C407 C406 1.170 . S
C408 C409 1.170 . S
C408 C410 1.380 . S
C409 C408 1.170 . S
C410 C408 1.380 . S
C410 C411 1.170 . S
C411 C410 1.170 . S
C412 C413 1.170 . S
C412 C414 1.380 . S
C413 C412 1.170 . S
C414 C412 1.380 . S
C414 C415 1.170 . S
C415 C414 1.170 . S
C416 C417 1.170 . S
C416 C418 1.380 . S
C417 C416 1.170 . S
C418 C416 1.380 . S
C418 C419 1.170 . S
C419 C418 1.170 . S
C420 C421 1.170 . S
C420 C422 1.380 1_455 S
C421 C420 1.170 . S
C422 C420 1.380 1_655 S
C422 C423 1.170 . S
C423 C422 1.170 . S
C424 C425 1.170 . S
C424 C426 1.380 1_566 S
C425 C424 1.170 . S
C426 C424 1.380 1_544 S
C426 C427 1.170 . S
C427 C426 1.170 . S
C428 C429 1.170 . S
C428 C430 1.380 . S
C429 C428 1.170 . S
C430 C428 1.380 . S
C430 C431 1.170 . S
C431 C430 1.170 . S
C432 C433 1.170 . S
C432 C434 1.380 1_655 S
C433 C432 1.170 . S
C434 C432 1.380 1_455 S
C434 C435 1.170 . S
C435 C434 1.170 . S
C436 C437 1.170 . S
C436 C438 1.380 1_545 S
C437 C436 1.170 . S
C438 C436 1.380 1_565 S
C438 C439 1.170 . S
C439 C438 1.170 . S
C440 C441 1.170 . S
C440 C442 1.380 . S
C441 C440 1.170 . S
C442 C440 1.380 . S
C442 C443 1.170 . S
C443 C442 1.170 . S
C444 C445 1.170 . S
C444 C446 1.380 . S
C445 C444 1.170 . S
C446 C444 1.380 . S
C446 C447 1.170 . S
C447 C446 1.170 . S
C448 C449 1.170 . S
C448 C450 1.380 . S
C449 C448 1.170 . S
C450 C448 1.380 . S
C450 C451 1.170 . S
C451 C450 1.170 . S
C452 C453 1.170 . S
C452 C454 1.380 . S
C453 C452 1.170 . S
C454 C452 1.380 . S
C454 C455 1.170 . S
C455 C454 1.170 . S
C456 C457 1.170 . S
C456 C458 1.380 . S
C457 C456 1.170 . S
C458 C456 1.380 . S
C458 C459 1.170 . S
C459 C458 1.170 . S
C460 C461 1.170 . S
C460 C462 1.380 . S
C461 C460 1.170 . S
C462 C460 1.380 . S
C462 C463 1.170 1_556 S
C463 C462 1.170 1_554 S
C464 C465 1.170 . S
C464 C466 1.380 . S
C465 C464 1.170 . S
C466 C464 1.380 . S
C466 C467 1.170 1_554 S
C467 C466 1.170 1_556 S
C468 C469 1.170 . S
C468 C470 1.380 . S
C469 C468 1.170 . S
C470 C468 1.380 . S
C470 C471 1.170 . S
C471 C470 1.170 . S
C472 C473 1.170 . S
C472 C474 1.380 . S
C473 C472 1.170 . S
C474 C472 1.380 . S
C474 C475 1.170 . S
C475 C474 1.170 . S
C476 C477 1.170 . S
C476 C478 1.380 . S
C477 C476 1.170 . S
C478 C476 1.380 . S
C478 C479 1.170 1_556 S
C479 C478 1.170 1_554 S
C480 C481 1.170 1_554 S
C480 C482 1.380 . S
C481 C480 1.170 1_556 S
C482 C480 1.380 . S
C482 C483 1.170 . S
C483 C482 1.170 . S
C484 C485 1.170 . S
C484 C486 1.380 . S
C485 C484 1.170 . S
C486 C484 1.380 . S
C486 C487 1.170 . S
C487 C486 1.170 . S
C488 C489 1.170 . S
C488 C490 1.380 . S
C489 C488 1.170 . S
C490 C488 1.380 . S
C490 C491 1.170 . S
C491 C490 1.170 . S
C492 C493 1.170 . S
C492 C494 1.380 . S
C493 C492 1.170 . S
C494 C492 1.380 . S
C494 C495 1.170 . S
C495 C494 1.170 . S
C496 C497 1.170 . S
C496 C498 1.380 . S
C497 C496 1.170 . S
C498 C496 1.380 . S
C498 C499 1.170 . S
C499 C498 1.170 . S
C500 C501 1.170 . S
C500 C502 1.380 . S
C501 C500 1.170 . S
C502 C500 1.380 . S
C502 C503 1.170 . S
C503 C502 1.170 . S
C504 C505 1.170 . S
C504 C506 1.380 . S
C505 C504 1.170 . S
C506 C504 1.380 . S
C506 C507 1.170 . S
C507 C506 1.170 . S
C508 C509 1.170 . S
C508 C510 1.380 . S
C509 C508 1.170 . S
C510 C508 1.380 . S
C510 C511 1.170 1_556 S
C511 C510 1.170 1_554 S
C512 C513 1.170 . S
C512 C514 1.380 . S
C513 C512 1.170 . S
C514 C512 1.380 . S
C514 C515 1.170 1_554 S
C515 C514 1.170 1_556 S
C397 C285 1.602 . S
C399 C21 1.599 . S
C401 C318 1.602 . S
C403 C54 1.599 . S
C405 C351 1.599 . S
C407 C87 1.602 . S
C409 C384 1.594 . S
C411 C120 1.598 . S
C413 C153 1.592 . S
C415 C219 1.593 . S
C417 C252 1.592 . S
C419 C186 1.595 . S
C421 C7 1.378 . S
C423 C370 1.406 . S
C425 C205 1.406 . S
C427 C40 1.392 . S
C429 C73 1.371 . S
C431 C238 1.348 . S
C433 C106 1.349 . S
C435 C271 1.366 . S
C437 C304 1.407 . S
C439 C139 1.385 . S
C441 C172 1.368 . S
C443 C337 1.348 . S
C445 C18 1.463 . S
C447 C348 1.471 . S
C449 C51 1.440 . S
C451 C381 1.453 . S
C453 C216 1.473 . S
C455 C84 1.443 . S
C457 C249 1.474 . S
C459 C117 1.446 . S
C461 C150 1.444 . S
C463 C282 1.446 . S
C465 C315 1.441 . S
C467 C183 1.471 . S
C469 N13 1.185 . S
C471 N2 1.197 . S
C473 N35 1.205 . S
C475 N46 1.183 . S
C477 N79 1.185 . S
C479 N68 1.207 . S
C481 N112 1.203 . S
C483 N101 1.193 . S
C485 N134 1.203 . S
C487 N145 1.182 . S
C489 N167 1.192 . S
C491 N178 1.204 . S
C493 N200 1.184 . S
C495 N211 1.207 . S
C497 N233 1.206 . S
C499 N244 1.189 . S
C501 N266 1.196 . S
C503 N277 1.186 . S
C505 N299 1.206 . S
C507 N310 1.183 . S
C509 N332 1.187 . S
C511 N343 1.194 . S
C513 N376 1.207 . S
C515 N365 1.186 . S
