# Generated by pormake.
# Topology ukc, (4)-cn, num edge types: 1
# Building blocks:
#     Node 0, Type 0, BuildingBlock: KUFVIS_clean_sbu_0, # of connection points: 4
#     Node 1, Type 0, BuildingBlock: KUFVIS_clean_sbu_0, # of connection points: 4
#     Node 2, Type 0, BuildingBlock: KUFVIS_clean_sbu_0, # of connection points: 4
#     Node 3, Type 0, BuildingBlock: KUFVIS_clean_sbu_0, # of connection points: 4
#     Node 4, Type 0, BuildingBlock: KUFVIS_clean_sbu_0, # of connection points: 4
#     Node 5, Type 0, BuildingBlock: KUFVIS_clean_sbu_0, # of connection points: 4
#     Node 6, Type 0, BuildingBlock: KUFVIS_clean_sbu_0, # of connection points: 4
#     Node 7, Type 0, BuildingBlock: KUFVIS_clean_sbu_0, # of connection points: 4
#     Node 8, Type 0, BuildingBlock: KUFVIS_clean_sbu_0, # of connection points: 4
#     Node 9, Type 0, BuildingBlock: KUFVIS_clean_sbu_0, # of connection points: 4
#     Node 10, Type 0, BuildingBlock: KUFVIS_clean_sbu_0, # of connection points: 4
#     Node 11, Type 0, BuildingBlock: KUFVIS_clean_sbu_0, # of connection points: 4
#     Node 12, Type 0, BuildingBlock: KUFVIS_clean_sbu_0, # of connection points: 4
#     Node 13, Type 0, BuildingBlock: KUFVIS_clean_sbu_0, # of connection points: 4
#     Node 14, Type 0, BuildingBlock: KUFVIS_clean_sbu_0, # of connection points: 4
#     Node 15, Type 0, BuildingBlock: KUFVIS_clean_sbu_0, # of connection points: 4
#     Node 16, Type 0, BuildingBlock: KUFVIS_clean_sbu_0, # of connection points: 4
#     Node 17, Type 0, BuildingBlock: KUFVIS_clean_sbu_0, # of connection points: 4
#     Node 18, Type 0, BuildingBlock: KUFVIS_clean_sbu_0, # of connection points: 4
#     Node 19, Type 0, BuildingBlock: KUFVIS_clean_sbu_0, # of connection points: 4
#     Node 20, Type 0, BuildingBlock: KUFVIS_clean_sbu_0, # of connection points: 4
#     Node 21, Type 0, BuildingBlock: KUFVIS_clean_sbu_0, # of connection points: 4
#     Node 22, Type 0, BuildingBlock: KUFVIS_clean_sbu_0, # of connection points: 4
#     Node 23, Type 0, BuildingBlock: KUFVIS_clean_sbu_0, # of connection points: 4
#     Node 24, Type 0, BuildingBlock: KUFVIS_clean_sbu_0, # of connection points: 4
#     Node 25, Type 0, BuildingBlock: KUFVIS_clean_sbu_0, # of connection points: 4
#     Node 26, Type 0, BuildingBlock: KUFVIS_clean_sbu_0, # of connection points: 4
#     Node 27, Type 0, BuildingBlock: KUFVIS_clean_sbu_0, # of connection points: 4
#     Node 28, Type 0, BuildingBlock: KUFVIS_clean_sbu_0, # of connection points: 4
#     Node 29, Type 0, BuildingBlock: KUFVIS_clean_sbu_0, # of connection points: 4
#     Node 30, Type 0, BuildingBlock: KUFVIS_clean_sbu_0, # of connection points: 4
#     Node 31, Type 0, BuildingBlock: KUFVIS_clean_sbu_0, # of connection points: 4
#     Edge 32, Type (0, 0), BuildingBlock: OJICUG_clean_linker_0, # of connection points: 2
#     Edge 33, Type (0, 0), BuildingBlock: OJICUG_clean_linker_0, # of connection points: 2
#     Edge 34, Type (0, 0), BuildingBlock: OJICUG_clean_linker_0, # of connection points: 2
#     Edge 35, Type (0, 0), BuildingBlock: OJICUG_clean_linker_0, # of connection points: 2
#     Edge 36, Type (0, 0), BuildingBlock: OJICUG_clean_linker_0, # of connection points: 2
#     Edge 37, Type (0, 0), BuildingBlock: OJICUG_clean_linker_0, # of connection points: 2
#     Edge 38, Type (0, 0), BuildingBlock: OJICUG_clean_linker_0, # of connection points: 2
#     Edge 39, Type (0, 0), BuildingBlock: OJICUG_clean_linker_0, # of connection points: 2
#     Edge 40, Type (0, 0), BuildingBlock: OJICUG_clean_linker_0, # of connection points: 2
#     Edge 41, Type (0, 0), BuildingBlock: OJICUG_clean_linker_0, # of connection points: 2
#     Edge 42, Type (0, 0), BuildingBlock: OJICUG_clean_linker_0, # of connection points: 2
#     Edge 43, Type (0, 0), BuildingBlock: OJICUG_clean_linker_0, # of connection points: 2
#     Edge 44, Type (0, 0), BuildingBlock: OJICUG_clean_linker_0, # of connection points: 2
#     Edge 45, Type (0, 0), BuildingBlock: OJICUG_clean_linker_0, # of connection points: 2
#     Edge 46, Type (0, 0), BuildingBlock: OJICUG_clean_linker_0, # of connection points: 2
#     Edge 47, Type (0, 0), BuildingBlock: OJICUG_clean_linker_0, # of connection points: 2
#     Edge 48, Type (0, 0), BuildingBlock: OJICUG_clean_linker_0, # of connection points: 2
#     Edge 49, Type (0, 0), BuildingBlock: OJICUG_clean_linker_0, # of connection points: 2
#     Edge 50, Type (0, 0), BuildingBlock: OJICUG_clean_linker_0, # of connection points: 2
#     Edge 51, Type (0, 0), BuildingBlock: OJICUG_clean_linker_0, # of connection points: 2
#     Edge 52, Type (0, 0), BuildingBlock: OJICUG_clean_linker_0, # of connection points: 2
#     Edge 53, Type (0, 0), BuildingBlock: OJICUG_clean_linker_0, # of connection points: 2
#     Edge 54, Type (0, 0), BuildingBlock: OJICUG_clean_linker_0, # of connection points: 2
#     Edge 55, Type (0, 0), BuildingBlock: OJICUG_clean_linker_0, # of connection points: 2
#     Edge 56, Type (0, 0), BuildingBlock: OJICUG_clean_linker_0, # of connection points: 2
#     Edge 57, Type (0, 0), BuildingBlock: OJICUG_clean_linker_0, # of connection points: 2
#     Edge 58, Type (0, 0), BuildingBlock: OJICUG_clean_linker_0, # of connection points: 2
#     Edge 59, Type (0, 0), BuildingBlock: OJICUG_clean_linker_0, # of connection points: 2
#     Edge 60, Type (0, 0), BuildingBlock: OJICUG_clean_linker_0, # of connection points: 2
#     Edge 61, Type (0, 0), BuildingBlock: OJICUG_clean_linker_0, # of connection points: 2
#     Edge 62, Type (0, 0), BuildingBlock: OJICUG_clean_linker_0, # of connection points: 2
#     Edge 63, Type (0, 0), BuildingBlock: OJICUG_clean_linker_0, # of connection points: 2
#     Edge 64, Type (0, 0), BuildingBlock: OJICUG_clean_linker_0, # of connection points: 2
#     Edge 65, Type (0, 0), BuildingBlock: OJICUG_clean_linker_0, # of connection points: 2
#     Edge 66, Type (0, 0), BuildingBlock: OJICUG_clean_linker_0, # of connection points: 2
#     Edge 67, Type (0, 0), BuildingBlock: OJICUG_clean_linker_0, # of connection points: 2
#     Edge 68, Type (0, 0), BuildingBlock: OJICUG_clean_linker_0, # of connection points: 2
#     Edge 69, Type (0, 0), BuildingBlock: OJICUG_clean_linker_0, # of connection points: 2
#     Edge 70, Type (0, 0), BuildingBlock: OJICUG_clean_linker_0, # of connection points: 2
#     Edge 71, Type (0, 0), BuildingBlock: OJICUG_clean_linker_0, # of connection points: 2
#     Edge 72, Type (0, 0), BuildingBlock: OJICUG_clean_linker_0, # of connection points: 2
#     Edge 73, Type (0, 0), BuildingBlock: OJICUG_clean_linker_0, # of connection points: 2
#     Edge 74, Type (0, 0), BuildingBlock: OJICUG_clean_linker_0, # of connection points: 2
#     Edge 75, Type (0, 0), BuildingBlock: OJICUG_clean_linker_0, # of connection points: 2
#     Edge 76, Type (0, 0), BuildingBlock: OJICUG_clean_linker_0, # of connection points: 2
#     Edge 77, Type (0, 0), BuildingBlock: OJICUG_clean_linker_0, # of connection points: 2
#     Edge 78, Type (0, 0), BuildingBlock: OJICUG_clean_linker_0, # of connection points: 2
#     Edge 79, Type (0, 0), BuildingBlock: OJICUG_clean_linker_0, # of connection points: 2
#     Edge 80, Type (0, 0), BuildingBlock: OJICUG_clean_linker_0, # of connection points: 2
#     Edge 81, Type (0, 0), BuildingBlock: OJICUG_clean_linker_0, # of connection points: 2
#     Edge 82, Type (0, 0), BuildingBlock: OJICUG_clean_linker_0, # of connection points: 2
#     Edge 83, Type (0, 0), BuildingBlock: OJICUG_clean_linker_0, # of connection points: 2
#     Edge 84, Type (0, 0), BuildingBlock: OJICUG_clean_linker_0, # of connection points: 2
#     Edge 85, Type (0, 0), BuildingBlock: OJICUG_clean_linker_0, # of connection points: 2
#     Edge 86, Type (0, 0), BuildingBlock: OJICUG_clean_linker_0, # of connection points: 2
#     Edge 87, Type (0, 0), BuildingBlock: OJICUG_clean_linker_0, # of connection points: 2
#     Edge 88, Type (0, 0), BuildingBlock: OJICUG_clean_linker_0, # of connection points: 2
#     Edge 89, Type (0, 0), BuildingBlock: OJICUG_clean_linker_0, # of connection points: 2
#     Edge 90, Type (0, 0), BuildingBlock: OJICUG_clean_linker_0, # of connection points: 2
#     Edge 91, Type (0, 0), BuildingBlock: OJICUG_clean_linker_0, # of connection points: 2
#     Edge 92, Type (0, 0), BuildingBlock: OJICUG_clean_linker_0, # of connection points: 2
#     Edge 93, Type (0, 0), BuildingBlock: OJICUG_clean_linker_0, # of connection points: 2
#     Edge 94, Type (0, 0), BuildingBlock: OJICUG_clean_linker_0, # of connection points: 2
#     Edge 95, Type (0, 0), BuildingBlock: OJICUG_clean_linker_0, # of connection points: 2
# Relax obj value: 0.037
# Max RMSD: 0.055
# Mean RMSD: 0.055
data_MOF--net-ukc--node1-KUFVIS_clean_sbu_0--edge1-OJICUG_clean_linker_0
_symmetry_space_group_name_H-M    P1
_symmetry_Int_Tables_number       1
_symmetry_cell_setting            triclinic
loop_
_symmetry_equiv_pos_as_xyz
'x, y, z'
_cell_length_a     32.265874
_cell_length_b     32.264846
_cell_length_c     63.307564
_cell_angle_alpha  90.002625
_cell_angle_beta   90.00258
_cell_angle_gamma 89.999173
loop_
_atom_site_label
_atom_site_type_symbol
_atom_site_fract_x
_atom_site_fract_y
_atom_site_fract_z
_atom_type_partial_charge
Mn0 Mn 0.096 0.37861 0.07201 0.0
Mn1 Mn 0.08301 0.35237 1.02085 0.0
C2 C 0.04967 0.32568 0.06344 0.0
C3 C 0.12086 0.37921 0.10703 0.0
C4 C 0.05425 0.43293 0.03956 0.0
O5 O 0.15016 0.39834 0.05746 0.0
O6 O 0.14124 0.37144 1.02444 0.0
C7 C 0.14027 0.29116 1.00201 0.0
N8 N 0.10093 0.30021 1.00837 0.0
C9 C 0.07644 0.24622 0.97941 0.0
C10 C 0.11814 0.24018 0.9749 0.0
C11 C 0.14893 0.26172 0.98611 0.0
C12 C 0.06843 0.28205 0.99876 0.0
H13 H 0.16603 0.30793 1.00856 0.0
C14 C 0.16318 0.38963 0.0387 0.0
O15 O 0.10496 0.41131 0.09811 0.0
O16 O 0.12655 0.34694 0.09496 0.0
N17 N 0.02656 0.33395 1.01869 0.0
C18 C 0.99173 0.35386 1.02535 0.0
C19 C 0.95231 0.3362 1.02338 0.0
C20 C 0.94537 0.29791 1.01373 0.0
C21 C 0.97852 0.27602 1.0033 0.0
C22 C 0.02456 0.29724 1.00926 0.0
H23 H 0.99367 0.38309 0.0334 0.0
O24 O 0.04466 0.34859 0.08012 0.0
O25 O 0.08163 0.33456 0.05136 0.0
O26 O 0.06108 0.42416 0.0586 0.0
O27 O 0.06408 0.40869 1.02492 0.0
C28 C 0.98851 0.21891 0.97372 0.0
C29 C 0.04022 0.21554 0.96732 0.0
H30 H 0.12716 0.21785 0.963 0.0
H31 H 0.18101 0.25611 0.98199 0.0
H32 H 0.9261 0.35271 0.02998 0.0
H33 H 0.91334 0.28817 1.01384 0.0
H34 H 0.96664 0.19904 0.96524 0.0
H35 H 0.04996 0.19335 0.95551 0.0
Mn36 Mn 0.87206 0.84624 0.32187 0.0
Mn37 Mn 0.89822 0.83307 0.27072 0.0
C38 C 0.92494 0.79985 0.31334 0.0
C39 C 0.87146 0.87125 0.35686 0.0
C40 C 0.81766 0.80445 0.28948 0.0
O41 O 0.8523 0.90034 0.30728 0.0
O42 O 0.87924 0.89135 0.27427 0.0
C43 C 0.95945 0.89016 0.25178 0.0
N44 N 0.95037 0.85086 0.25819 0.0
C45 C 0.0043 0.82617 0.22925 0.0
C46 C 0.01038 0.86784 0.22469 0.0
C47 C 0.98888 0.89871 0.23585 0.0
C48 C 0.96848 0.8183 0.24861 0.0
H49 H 0.94271 0.91596 0.25828 0.0
C50 C 0.86105 0.91333 0.28852 0.0
O51 O 0.83936 0.85532 0.34796 0.0
O52 O 0.90373 0.87688 0.34479 0.0
N53 N 0.91656 0.77658 0.26861 0.0
C54 C 0.89661 0.7418 0.27532 0.0
C55 C 0.91422 0.70235 0.27339 0.0
C56 C 0.95251 0.69532 0.26374 0.0
C57 C 0.97442 0.7284 0.25327 0.0
C58 C 0.95325 0.77449 0.25918 0.0
H59 H 0.8674 0.74381 0.28336 0.0
O60 O 0.90205 0.79493 0.33003 0.0
O61 O 0.91607 0.83177 0.30122 0.0
O62 O 0.82649 0.81127 0.30852 0.0
O63 O 0.84186 0.81425 0.27483 0.0
C64 C 0.03152 0.73819 0.22367 0.0
C65 C 0.03494 0.78987 0.2172 0.0
H66 H 0.03271 0.87678 0.21277 0.0
H67 H 0.99451 0.93077 0.23169 0.0
H68 H 0.89769 0.67619 0.28002 0.0
H69 H 0.96221 0.66328 0.26389 0.0
H70 H 0.05137 0.71625 0.21522 0.0
H71 H 0.05713 0.79952 0.20538 0.0
Mn72 Mn 0.40409 0.62185 0.57192 0.0
Mn73 Mn 0.41705 0.64803 0.52076 0.0
C74 C 0.45053 0.67465 0.56335 0.0
C75 C 0.37926 0.62128 0.60694 0.0
C76 C 0.44573 0.56744 0.53948 0.0
O77 O 0.34988 0.60221 0.5574 0.0
O78 O 0.35879 0.62907 0.52437 0.0
C79 C 0.35986 0.70939 0.502 0.0
N80 N 0.3992 0.70024 0.50832 0.0
C81 C 0.42372 0.75427 0.47939 0.0
C82 C 0.38202 0.76041 0.47492 0.0
C83 C 0.35122 0.7389 0.48613 0.0
C84 C 0.43171 0.71837 0.4987 0.0
H85 H 0.33408 0.69267 0.50856 0.0
C86 C 0.33684 0.61093 0.53865 0.0
O87 O 0.39506 0.58914 0.59801 0.0
O88 O 0.37363 0.65357 0.59488 0.0
N89 N 0.47353 0.66634 0.51858 0.0
C90 C 0.50834 0.64634 0.52521 0.0
C91 C 0.54779 0.66392 0.52322 0.0
C92 C 0.55479 0.70222 0.51359 0.0
C93 C 0.52165 0.7242 0.5032 0.0
C94 C 0.47558 0.70305 0.50917 0.0
H95 H 0.50637 0.61711 0.53324 0.0
O96 O 0.45549 0.65174 0.58003 0.0
O97 O 0.41853 0.66585 0.55127 0.0
O98 O 0.43892 0.57626 0.55852 0.0
O99 O 0.43589 0.59165 0.52483 0.0
C100 C 0.51169 0.78142 0.47367 0.0
C101 C 0.45997 0.78492 0.46731 0.0
H102 H 0.37302 0.7828 0.46304 0.0
H103 H 0.31914 0.74459 0.48204 0.0
H104 H 0.57398 0.64735 0.52979 0.0
H105 H 0.58683 0.71189 0.51368 0.0
H106 H 0.53358 0.80128 0.4652 0.0
H107 H 0.45025 0.80717 0.45553 0.0
Mn108 Mn 0.62917 0.1545 0.82207 0.0
Mn109 Mn 0.60298 0.16741 0.7709 0.0
C110 C 0.57627 0.20084 0.81348 0.0
C111 C 0.6297 0.12969 0.85709 0.0
C112 C 0.6835 0.19624 0.78962 0.0
O113 O 0.64889 0.10031 0.80756 0.0
O114 O 0.62209 0.1092 0.77451 0.0
C115 C 0.54176 0.11003 0.75216 0.0
N116 N 0.55082 0.14941 0.75846 0.0
C117 C 0.49676 0.17376 0.72951 0.0
C118 C 0.49072 0.13204 0.72505 0.0
C119 C 0.51229 0.1013 0.73628 0.0
C120 C 0.53262 0.18186 0.74883 0.0
H121 H 0.55852 0.0843 0.75874 0.0
C122 C 0.64023 0.08727 0.78879 0.0
O123 O 0.66183 0.14557 0.84819 0.0
O124 O 0.59745 0.12399 0.84501 0.0
N125 N 0.58453 0.22384 0.76871 0.0
C126 C 0.60443 0.2587 0.77534 0.0
C127 C 0.58676 0.29811 0.77333 0.0
C128 C 0.54845 0.305 0.76368 0.0
C129 C 0.52657 0.27179 0.75329 0.0
C130 C 0.54782 0.22579 0.75929 0.0
H131 H 0.63366 0.2568 0.78337 0.0
O132 O 0.59917 0.20587 0.83016 0.0
O133 O 0.58516 0.16886 0.80141 0.0
O134 O 0.67473 0.18941 0.80867 0.0
O135 O 0.65929 0.18639 0.77498 0.0
C136 C 0.46941 0.26166 0.72375 0.0
C137 C 0.46604 0.20992 0.7174 0.0
H138 H 0.46837 0.12296 0.71317 0.0
H139 H 0.50667 0.06919 0.73221 0.0
H140 H 0.60326 0.32435 0.77989 0.0
H141 H 0.53871 0.33702 0.76376 0.0
H142 H 0.44951 0.28349 0.71526 0.0
H143 H 0.44383 0.20013 0.70562 0.0
Mn144 Mn 0.09582 0.62222 0.48366 0.0
Mn145 Mn 0.0828 0.64849 0.5348 0.0
C146 C 0.04952 0.67518 0.49219 0.0
C147 C 0.12076 0.62155 0.44866 0.0
C148 C 0.054 0.56794 0.5161 0.0
O149 O 0.14993 0.60244 0.49822 0.0
O150 O 0.14103 0.6294 0.53124 0.0
C151 C 0.14007 0.7097 0.55363 0.0
N152 N 0.10073 0.70066 0.54727 0.0
C153 C 0.07624 0.7547 0.5762 0.0
C154 C 0.11794 0.76073 0.58072 0.0
C155 C 0.14873 0.73916 0.56953 0.0
C156 C 0.06823 0.71884 0.55687 0.0
H157 H 0.16583 0.69292 0.5471 0.0
C158 C 0.16296 0.61118 0.51698 0.0
O159 O 0.1048 0.58947 0.45758 0.0
O160 O 0.12645 0.65383 0.46072 0.0
N161 N 0.02635 0.66694 0.53694 0.0
C162 C 0.99152 0.64704 0.53027 0.0
C163 C 0.95211 0.66473 0.53222 0.0
C164 C 0.94518 0.70305 0.54185 0.0
C165 C 0.97833 0.72492 0.55228 0.0
C166 C 0.02436 0.70366 0.54635 0.0
H167 H 0.99345 0.61781 0.52224 0.0
O168 O 0.04452 0.65227 0.47551 0.0
O169 O 0.08145 0.66628 0.50429 0.0
O170 O 0.06084 0.57671 0.49705 0.0
O171 O 0.06385 0.59217 0.53073 0.0
C172 C 0.98832 0.78209 0.58185 0.0
C173 C 0.04003 0.78543 0.58827 0.0
H174 H 0.12696 0.78308 0.59261 0.0
H175 H 0.18081 0.74476 0.57365 0.0
H176 H 0.9259 0.64823 0.52562 0.0
H177 H 0.91316 0.7128 0.54173 0.0
H178 H 0.96645 0.80199 0.5903 0.0
H179 H 0.04976 0.80764 0.60006 0.0
Mn180 Mn 0.62876 0.84628 0.73363 0.0
Mn181 Mn 0.60253 0.83325 0.78478 0.0
C182 C 0.57591 0.79986 0.74218 0.0
C183 C 0.62935 0.87111 0.69861 0.0
C184 C 0.68314 0.80461 0.76608 0.0
O185 O 0.64843 0.90046 0.74818 0.0
O186 O 0.62151 0.89151 0.7812 0.0
C187 C 0.54122 0.89039 0.80363 0.0
N188 N 0.55034 0.85107 0.79726 0.0
C189 C 0.49637 0.82647 0.8262 0.0
C190 C 0.49025 0.86815 0.83072 0.0
C191 C 0.51175 0.89899 0.81953 0.0
C192 C 0.53223 0.81853 0.80686 0.0
H193 H 0.55796 0.91617 0.7971 0.0
C194 C 0.63968 0.91348 0.76694 0.0
O195 O 0.66147 0.85528 0.70753 0.0
O196 O 0.59707 0.87678 0.71067 0.0
N197 N 0.58422 0.77676 0.78693 0.0
C198 C 0.60419 0.74196 0.78027 0.0
C199 C 0.58661 0.70251 0.78223 0.0
C200 C 0.54832 0.6955 0.79187 0.0
C201 C 0.52637 0.72861 0.8023 0.0
C202 C 0.54751 0.77469 0.79635 0.0
H203 H 0.63342 0.74396 0.77223 0.0
O204 O 0.59883 0.7949 0.72551 0.0
O205 O 0.58473 0.83183 0.75427 0.0
O206 O 0.67434 0.81141 0.74703 0.0
O207 O 0.6589 0.81442 0.78071 0.0
C208 C 0.46921 0.73848 0.83187 0.0
C209 C 0.46574 0.79019 0.83828 0.0
H210 H 0.4679 0.87712 0.84261 0.0
H211 H 0.50609 0.93106 0.82365 0.0
H212 H 0.60317 0.67634 0.77564 0.0
H213 H 0.53864 0.66345 0.79176 0.0
H214 H 0.44937 0.71657 0.84033 0.0
H215 H 0.44352 0.79988 0.85008 0.0
Mn216 Mn 0.40426 0.37898 0.98364 0.0
Mn217 Mn 0.41717 0.35276 0.03481 0.0
C218 C 0.45065 0.32612 0.99223 0.0
C219 C 0.37947 0.37953 0.94862 0.0
C220 C 0.44593 0.43333 1.01611 0.0
O221 O 0.35005 0.39866 0.99816 0.0
O222 O 0.35894 0.37179 0.03119 0.0
C223 C 0.35989 0.29146 0.05354 0.0
N224 N 0.39924 0.30057 0.04724 0.0
C225 C 0.42367 0.24653 0.07618 0.0
C226 C 0.38197 0.24043 0.08064 0.0
C227 C 0.35119 0.26196 0.06942 0.0
C228 C 0.43173 0.28241 0.05687 0.0
H229 H 0.33414 0.3082 0.04697 0.0
C230 C 0.337 0.38995 1.01691 0.0
O231 O 0.3953 0.41166 0.95753 0.0
O232 O 0.37378 0.34727 0.96069 0.0
N233 N 0.47362 0.33439 0.037 0.0
C234 C 0.50846 0.35435 0.03038 0.0
C235 C 0.54789 0.33673 0.03239 0.0
C236 C 0.55484 0.29843 0.04203 0.0
C237 C 0.52166 0.27649 0.05241 0.0
C238 C 0.47563 0.29767 0.04642 0.0
H239 H 0.50652 0.38358 1.02235 0.0
O240 O 0.45564 0.34903 0.97555 0.0
O241 O 0.41865 0.33497 1.0043 0.0
O242 O 0.43913 0.42455 0.99706 0.0
O243 O 0.43607 0.40911 0.03075 0.0
C244 C 0.51161 0.21931 0.08196 0.0
C245 C 0.45988 0.21586 0.0883 0.0
H246 H 0.37292 0.21807 0.09252 0.0
H247 H 0.3191 0.25631 0.07349 0.0
H248 H 0.57411 0.35328 1.02583 0.0
H249 H 0.58687 0.28873 0.04196 0.0
H250 H 0.53348 0.19944 0.09044 0.0
H251 H 0.45012 0.19363 0.10007 0.0
Mn252 Mn 0.87164 0.15444 0.2336 0.0
Mn253 Mn 0.8979 0.16727 0.28475 0.0
C254 C 0.92458 0.20073 0.24218 0.0
C255 C 0.87105 0.12956 0.19859 0.0
C256 C 0.81738 0.19619 0.26607 0.0
O257 O 0.85186 0.10028 0.24811 0.0
O258 O 0.87879 0.10907 0.28113 0.0
C259 C 0.95918 0.10987 0.30343 0.0
N260 N 0.95009 0.14926 0.29716 0.0
C261 C 0.00418 0.17356 0.32611 0.0
C262 C 0.01024 0.13184 0.33054 0.0
C263 C 0.98867 0.10111 0.31929 0.0
C264 C 0.9683 0.1817 0.3068 0.0
H265 H 0.94242 0.08415 0.29683 0.0
C266 C 0.86057 0.08719 0.26686 0.0
O267 O 0.83895 0.14551 0.20749 0.0
O268 O 0.9033 0.12385 0.21067 0.0
N269 N 0.91636 0.2237 0.28696 0.0
C270 C 0.89644 0.25857 0.28036 0.0
C271 C 0.9141 0.29798 0.28238 0.0
C272 C 0.95241 0.30486 0.29203 0.0
C273 C 0.97431 0.27164 0.30239 0.0
C274 C 0.95308 0.22564 0.29637 0.0
H275 H 0.8672 0.25669 0.27232 0.0
O276 O 0.90169 0.20576 0.22549 0.0
O277 O 0.91568 0.16875 0.25425 0.0
O278 O 0.82615 0.18941 0.24702 0.0
O279 O 0.84158 0.18625 0.2807 0.0
C280 C 0.0315 0.26147 0.33192 0.0
C281 C 0.03489 0.20971 0.33824 0.0
H282 H 0.0326 0.12274 0.34241 0.0
H283 H 0.99431 0.069 0.32334 0.0
H284 H 0.89758 0.32423 0.27583 0.0
H285 H 0.96214 0.33689 0.29197 0.0
H286 H 0.0514 0.28329 0.34042 0.0
H287 H 0.05712 0.1999 0.35001 0.0
Mn288 Mn 0.90458 0.62219 0.98366 0.0
Mn289 Mn 0.91765 0.64844 0.03481 0.0
C290 C 0.951 0.67506 0.9922 0.0
C291 C 0.87971 0.6216 0.94864 0.0
C292 C 0.94629 0.56782 1.0161 0.0
O293 O 0.85042 0.60252 0.99822 0.0
O294 O 0.85939 0.62945 0.03123 0.0
C295 C 0.86051 0.70973 0.05367 0.0
N296 N 0.89983 0.70063 0.04729 0.0
C297 C 0.92443 0.75461 0.07623 0.0
C298 C 0.88276 0.76071 0.08075 0.0
C299 C 0.85192 0.7392 0.06957 0.0
C300 C 0.93237 0.71875 0.05689 0.0
H301 H 0.83473 0.69298 0.04715 0.0
C302 C 0.83741 0.61127 1.01698 0.0
O303 O 0.89556 0.58948 0.95756 0.0
O304 O 0.87405 0.65388 0.96071 0.0
N305 N 0.97414 0.66678 0.03695 0.0
C306 C 0.00893 0.64681 0.03027 0.0
C307 C 0.04838 0.66442 0.03222 0.0
C308 C 0.05539 0.70272 0.04186 0.0
C309 C 0.02228 0.72466 0.0523 0.0
C310 C 0.9762 0.70349 0.04636 0.0
H311 H 0.00694 0.61758 1.02224 0.0
O312 O 0.95595 0.65213 0.97553 0.0
O313 O 0.91904 0.66623 1.0043 0.0
O314 O 0.93946 0.5766 0.99706 0.0
O315 O 0.9365 0.59208 0.03074 0.0
C316 C 0.01241 0.78182 0.08187 0.0
C317 C 0.96071 0.78526 0.08829 0.0
H318 H 0.87379 0.78307 0.09265 0.0
H319 H 0.81985 0.74484 0.0737 0.0
H320 H 0.07455 0.64787 1.02562 0.0
H321 H 0.08742 0.71241 0.04174 0.0
H322 H 0.03432 0.80167 0.09033 0.0
H323 H 0.95103 0.80748 0.10009 0.0
Mn324 Mn 0.1288 0.15448 0.73373 0.0
Mn325 Mn 0.1026 0.16753 0.78488 0.0
C326 C 0.07592 0.20086 0.74228 0.0
C327 C 0.12943 0.12955 0.69873 0.0
C328 C 0.18319 0.19617 0.76616 0.0
O329 O 0.14853 0.10034 0.74829 0.0
O330 O 0.12156 0.10925 0.7813 0.0
C331 C 0.04132 0.11043 0.80376 0.0
N332 N 0.05042 0.14973 0.79738 0.0
C333 C 0.99648 0.17438 0.82632 0.0
C334 C 0.99037 0.13271 0.83085 0.0
C335 C 0.01186 0.10185 0.81967 0.0
C336 C 0.03232 0.18229 0.80698 0.0
H337 H 0.05805 0.08463 0.79724 0.0
C338 C 0.13976 0.0873 0.76704 0.0
O339 O 0.16153 0.14545 0.70765 0.0
O340 O 0.09715 0.12389 0.71079 0.0
N341 N 0.08429 0.22403 0.78702 0.0
C342 C 0.10426 0.25881 0.78034 0.0
C343 C 0.08667 0.29827 0.78229 0.0
C344 C 0.04838 0.3053 0.79193 0.0
C345 C 0.02644 0.2722 0.80237 0.0
C346 C 0.04759 0.22611 0.79644 0.0
H347 H 0.13348 0.25681 0.7723 0.0
O348 O 0.09883 0.20581 0.72559 0.0
O349 O 0.08478 0.16891 0.75437 0.0
O350 O 0.17435 0.1894 0.74711 0.0
O351 O 0.15898 0.18634 0.7808 0.0
C352 C 0.9693 0.26237 0.83196 0.0
C353 C 0.96585 0.21068 0.83839 0.0
H354 H 0.96802 0.12375 0.84276 0.0
H355 H 0.00621 0.06979 0.82381 0.0
H356 H 0.10322 0.32443 0.77568 0.0
H357 H 0.0387 0.33734 0.7918 0.0
H358 H 0.94946 0.2843 0.84041 0.0
H359 H 0.94364 0.20101 0.85019 0.0
Mn360 Mn 0.59627 0.37881 0.48371 0.0
Mn361 Mn 0.58333 0.35257 0.53486 0.0
C362 C 0.54998 0.32586 0.49226 0.0
C363 C 0.62118 0.37947 0.44871 0.0
C364 C 0.55442 0.43307 0.51615 0.0
O365 O 0.6504 0.3986 0.49825 0.0
O366 O 0.64153 0.3717 0.53128 0.0
C367 C 0.64071 0.29134 0.55359 0.0
N368 N 0.60134 0.30039 0.54729 0.0
C369 C 0.57698 0.24628 0.57621 0.0
C370 C 0.6187 0.24025 0.58067 0.0
C371 C 0.64944 0.26184 0.56946 0.0
C372 C 0.56888 0.28216 0.5569 0.0
H373 H 0.66644 0.30812 0.54702 0.0
C374 C 0.66345 0.3899 0.51701 0.0
O375 O 0.60522 0.41155 0.45763 0.0
O376 O 0.62689 0.3472 0.46077 0.0
N377 N 0.5269 0.33408 0.53703 0.0
C378 C 0.49203 0.35398 0.5304 0.0
C379 C 0.45264 0.33629 0.5324 0.0
C380 C 0.44575 0.29797 0.54204 0.0
C381 C 0.47896 0.27609 0.55242 0.0
C382 C 0.52496 0.29736 0.54644 0.0
H383 H 0.49392 0.38322 0.52237 0.0
O384 O 0.54497 0.34876 0.47558 0.0
O385 O 0.58193 0.33477 0.50435 0.0
O386 O 0.56127 0.42429 0.49711 0.0
O387 O 0.56432 0.40889 0.53079 0.0
C388 C 0.48909 0.21889 0.58195 0.0
C389 C 0.54083 0.21553 0.5883 0.0
H390 H 0.62778 0.21789 0.59254 0.0
H391 H 0.68154 0.25623 0.57353 0.0
H392 H 0.4264 0.35279 0.52583 0.0
H393 H 0.41374 0.28822 0.54195 0.0
H394 H 0.46726 0.19897 0.59042 0.0
H395 H 0.55062 0.1933 0.60008 0.0
Mn396 Mn 0.37156 0.84643 0.23353 0.0
Mn397 Mn 0.39776 0.8336 0.2847 0.0
C398 C 0.42445 0.80009 0.24214 0.0
C399 C 0.37104 0.87123 0.19851 0.0
C400 C 0.31724 0.80472 0.266 0.0
O401 O 0.35184 0.90064 0.24803 0.0
O402 O 0.37865 0.8918 0.28108 0.0
C403 C 0.45902 0.89101 0.30339 0.0
N404 N 0.44994 0.85162 0.29712 0.0
C405 C 0.504 0.82733 0.32609 0.0
C406 C 0.51005 0.86906 0.33051 0.0
C407 C 0.4885 0.89978 0.31926 0.0
C408 C 0.46814 0.81918 0.30677 0.0
H409 H 0.44227 0.91673 0.29679 0.0
C410 C 0.3605 0.9137 0.26679 0.0
O411 O 0.33891 0.85535 0.20741 0.0
O412 O 0.40328 0.87693 0.2106 0.0
N413 N 0.41621 0.77717 0.28692 0.0
C414 C 0.39629 0.7423 0.28032 0.0
C415 C 0.41395 0.70289 0.28236 0.0
C416 C 0.45225 0.69601 0.29202 0.0
C417 C 0.47414 0.72924 0.30238 0.0
C418 C 0.45292 0.77524 0.29635 0.0
H419 H 0.36706 0.74419 0.27228 0.0
O420 O 0.40156 0.79506 0.22546 0.0
O421 O 0.41557 0.8321 0.2542 0.0
O422 O 0.32601 0.81154 0.24695 0.0
O423 O 0.34145 0.81461 0.28064 0.0
C424 C 0.53131 0.73943 0.33192 0.0
C425 C 0.53469 0.79119 0.33823 0.0
H426 H 0.53241 0.87816 0.34238 0.0
H427 H 0.49413 0.93189 0.32331 0.0
H428 H 0.39744 0.67664 0.27581 0.0
H429 H 0.46198 0.66398 0.29196 0.0
H430 H 0.55119 0.71761 0.34042 0.0
H431 H 0.55691 0.801 0.35 0.0
Mn432 Mn 0.90454 0.37855 0.57197 0.0
Mn433 Mn 0.91755 0.35229 0.52082 0.0
C434 C 0.95095 0.32568 0.56343 0.0
C435 C 0.87968 0.37919 0.60698 0.0
C436 C 0.94617 0.43293 0.53952 0.0
O437 O 0.85037 0.39822 0.55742 0.0
O438 O 0.85927 0.37123 0.52441 0.0
C439 C 0.86045 0.29095 0.50198 0.0
N440 N 0.89976 0.30009 0.50835 0.0
C441 C 0.92439 0.24611 0.47942 0.0
C442 C 0.88272 0.23997 0.4749 0.0
C443 C 0.85187 0.26147 0.48608 0.0
C444 C 0.93231 0.28199 0.49875 0.0
H445 H 0.83465 0.30768 0.5085 0.0
C446 C 0.83733 0.38943 0.53867 0.0
O447 O 0.89554 0.41129 0.59805 0.0
O448 O 0.87402 0.34689 0.59493 0.0
N449 N 0.97405 0.334 0.51868 0.0
C450 C 0.00883 0.35399 0.52534 0.0
C451 C 0.04829 0.33642 0.52339 0.0
C452 C 0.05532 0.29812 0.51376 0.0
C453 C 0.02223 0.27615 0.50333 0.0
C454 C 0.97614 0.29729 0.50926 0.0
H455 H 0.00682 0.38323 0.53338 0.0
O456 O 0.95591 0.34862 0.5801 0.0
O457 O 0.91898 0.3345 0.55134 0.0
O458 O 0.93941 0.42412 0.55856 0.0
O459 O 0.93634 0.40868 0.52488 0.0
C460 C 0.01239 0.21896 0.47377 0.0
C461 C 0.96069 0.21547 0.46735 0.0
H462 H 0.87376 0.2176 0.463 0.0
H463 H 0.8198 0.25579 0.48196 0.0
H464 H 0.07446 0.35299 0.52999 0.0
H465 H 0.08737 0.28844 0.51389 0.0
H466 H 0.03431 0.19911 0.46532 0.0
H467 H 0.95101 0.19324 0.45556 0.0
Mn468 Mn 0.37213 0.15463 0.32197 0.0
Mn469 Mn 0.39833 0.16775 0.27082 0.0
C470 C 0.42502 0.20103 0.31343 0.0
C471 C 0.37157 0.1297 0.35698 0.0
C472 C 0.31774 0.19638 0.28956 0.0
O473 O 0.35241 0.1005 0.30739 0.0
O474 O 0.37934 0.10948 0.27438 0.0
C475 C 0.45957 0.11065 0.2519 0.0
N476 N 0.45049 0.14995 0.2583 0.0
C477 C 0.50442 0.17461 0.22936 0.0
C478 C 0.51051 0.13294 0.22481 0.0
C479 C 0.48901 0.10208 0.23598 0.0
C480 C 0.46859 0.18251 0.24872 0.0
H481 H 0.44282 0.08485 0.25841 0.0
C482 C 0.36116 0.0875 0.28863 0.0
O483 O 0.33945 0.14559 0.34807 0.0
O484 O 0.40383 0.12405 0.3449 0.0
N485 N 0.41666 0.22424 0.2687 0.0
C486 C 0.39671 0.25903 0.2754 0.0
C487 C 0.41432 0.29848 0.27346 0.0
C488 C 0.4526 0.3055 0.26382 0.0
C489 C 0.47452 0.27241 0.25336 0.0
C490 C 0.45335 0.22632 0.25927 0.0
H491 H 0.36749 0.25702 0.28344 0.0
O492 O 0.40211 0.20597 0.33012 0.0
O493 O 0.41616 0.16909 0.30133 0.0
O494 O 0.32656 0.18956 0.3086 0.0
O495 O 0.34197 0.18658 0.27491 0.0
C496 C 0.53163 0.26259 0.22376 0.0
C497 C 0.53506 0.21091 0.2173 0.0
H498 H 0.53284 0.12399 0.21289 0.0
H499 H 0.49464 0.07002 0.23183 0.0
H500 H 0.39778 0.32464 0.28009 0.0
H501 H 0.4623 0.33754 0.26396 0.0
H502 H 0.55148 0.28452 0.21531 0.0
H503 H 0.55726 0.20124 0.20549 0.0
Mn504 Mn 0.59634 0.62191 0.07206 0.0
Mn505 Mn 0.58351 0.64814 1.02089 0.0
C506 C 0.55003 0.67482 0.06346 0.0
C507 C 0.62111 0.62133 0.10709 0.0
C508 C 0.55462 0.56761 0.03958 0.0
O509 O 0.65055 0.60217 0.05756 0.0
O510 O 0.6417 0.62902 1.02452 0.0
C511 C 0.6409 0.70938 1.00219 0.0
N512 N 0.60152 0.70031 1.00847 0.0
C513 C 0.57721 0.75437 0.97951 0.0
C514 C 0.61894 0.76041 0.97507 0.0
C515 C 0.64966 0.73886 0.98632 0.0
C516 C 0.56908 0.71851 0.99883 0.0
H517 H 0.66663 0.69261 1.00878 0.0
C518 C 0.66361 0.61085 0.0388 0.0
O519 O 0.60524 0.58921 0.09817 0.0
O520 O 0.62684 0.65358 0.09502 0.0
N521 N 0.52708 0.66659 1.01868 0.0
C522 C 0.49221 0.64668 1.02529 0.0
C523 C 0.45281 0.66434 1.02326 0.0
C524 C 0.44592 0.70264 1.0136 0.0
C525 C 0.47914 0.72453 1.00323 0.0
C526 C 0.52514 0.7033 1.00926 0.0
H527 H 0.4941 0.61745 0.03333 0.0
O528 O 0.54499 0.65192 0.08014 0.0
O529 O 0.58202 0.66594 0.0514 0.0
O530 O 0.56144 0.57638 0.05863 0.0
O531 O 0.56451 0.59182 1.02495 0.0
C532 C 0.48931 0.78169 0.97369 0.0
C533 C 0.54107 0.78507 0.96737 0.0
H534 H 0.62803 0.78276 0.9632 0.0
H535 H 0.68177 0.74448 0.98226 0.0
H536 H 0.42656 0.64783 0.02981 0.0
H537 H 0.4139 0.71238 1.01366 0.0
H538 H 0.46749 0.80157 0.96519 0.0
H539 H 0.55088 0.80728 0.9556 0.0
Mn540 Mn 0.12912 0.84621 0.82195 0.0
Mn541 Mn 0.10288 0.83331 0.77079 0.0
C542 C 0.07619 0.79991 0.81338 0.0
C543 C 0.12972 0.87111 0.85695 0.0
C544 C 0.1834 0.80443 0.7895 0.0
O545 O 0.1489 0.90036 0.80743 0.0
O546 O 0.122 0.89151 0.7744 0.0
C547 C 0.04164 0.89068 0.75207 0.0
N548 N 0.05071 0.8513 0.75837 0.0
C549 C 0.99661 0.82695 0.72944 0.0
C550 C 0.99057 0.86867 0.72498 0.0
C551 C 0.01215 0.89941 0.7362 0.0
C552 C 0.03249 0.81885 0.74874 0.0
H553 H 0.05841 0.91641 0.75865 0.0
C554 C 0.1402 0.91342 0.78867 0.0
O555 O 0.16182 0.85517 0.84805 0.0
O556 O 0.09746 0.87681 0.84488 0.0
N557 N 0.08442 0.77688 0.76861 0.0
C558 C 0.10433 0.74201 0.77523 0.0
C559 C 0.08665 0.70261 0.77323 0.0
C560 C 0.04833 0.69572 0.7636 0.0
C561 C 0.02644 0.72892 0.75322 0.0
C562 C 0.0477 0.77493 0.7592 0.0
H563 H 0.13357 0.74391 0.78326 0.0
O564 O 0.09908 0.7949 0.83007 0.0
O565 O 0.08509 0.83188 0.8013 0.0
O566 O 0.17462 0.81125 0.80855 0.0
O567 O 0.1592 0.81432 0.77486 0.0
C568 C 0.96923 0.73904 0.72369 0.0
C569 C 0.96587 0.79078 0.71734 0.0
H570 H 0.9682 0.87774 0.71311 0.0
H571 H 0.00653 0.93151 0.73213 0.0
H572 H 0.10316 0.67637 0.7798 0.0
H573 H 0.03858 0.6637 0.76368 0.0
H574 H 0.94931 0.71721 0.71522 0.0
H575 H 0.94363 0.80057 0.70557 0.0
Mn576 Mn 0.59619 0.87834 0.57193 0.0
Mn577 Mn 0.58316 0.85207 0.52078 0.0
C578 C 0.54982 0.82542 0.56339 0.0
C579 C 0.62109 0.87902 0.60694 0.0
C580 C 0.55448 0.93267 0.53948 0.0
O581 O 0.65032 0.89808 0.55736 0.0
O582 O 0.64142 0.87106 0.52435 0.0
C583 C 0.64029 0.79076 0.50193 0.0
N584 N 0.60098 0.79987 0.5083 0.0
C585 C 0.57638 0.74593 0.47934 0.0
C586 C 0.61806 0.73981 0.47483 0.0
C587 C 0.6489 0.7613 0.48602 0.0
C588 C 0.56844 0.78176 0.49869 0.0
H589 H 0.66608 0.8075 0.50846 0.0
C590 C 0.66336 0.8893 0.5386 0.0
O591 O 0.60518 0.9111 0.59801 0.0
O592 O 0.62678 0.84673 0.59489 0.0
N593 N 0.52667 0.83374 0.51863 0.0
C594 C 0.49188 0.85371 0.5253 0.0
C595 C 0.45243 0.83613 0.52333 0.0
C596 C 0.44541 0.79785 0.51367 0.0
C597 C 0.47852 0.77591 0.50324 0.0
C598 C 0.5246 0.79704 0.5092 0.0
H599 H 0.49388 0.88292 0.53335 0.0
O600 O 0.54486 0.84834 0.58007 0.0
O601 O 0.58178 0.83428 0.55129 0.0
O602 O 0.56125 0.92386 0.55852 0.0
O603 O 0.56433 0.90844 0.52484 0.0
C604 C 0.48839 0.71879 0.47365 0.0
C605 C 0.5401 0.71532 0.46725 0.0
H606 H 0.62703 0.71747 0.46292 0.0
H607 H 0.68096 0.75565 0.4819 0.0
H608 H 0.42625 0.85268 0.52993 0.0
H609 H 0.41336 0.78818 0.51378 0.0
H610 H 0.46648 0.69897 0.46517 0.0
H611 H 0.54979 0.69311 0.45544 0.0
Mn612 Mn 0.37231 0.3461 0.82196 0.0
Mn613 Mn 0.39857 0.33303 0.77082 0.0
C614 C 0.42527 0.29979 0.81344 0.0
C615 C 0.3716 0.37105 0.85696 0.0
C616 C 0.31803 0.30425 0.78953 0.0
O617 O 0.35253 0.40021 0.80739 0.0
O618 O 0.37947 0.39126 0.77437 0.0
C619 C 0.45977 0.39029 0.75198 0.0
N620 N 0.45073 0.35095 0.75834 0.0
C621 C 0.50474 0.32644 0.72941 0.0
C622 C 0.51078 0.36814 0.72489 0.0
C623 C 0.48922 0.39894 0.73608 0.0
C624 C 0.46891 0.31845 0.74875 0.0
H625 H 0.443 0.41605 0.75852 0.0
C626 C 0.36126 0.41321 0.78862 0.0
O627 O 0.33954 0.3551 0.84804 0.0
O628 O 0.4039 0.37675 0.84491 0.0
N629 N 0.41702 0.27658 0.76869 0.0
C630 C 0.39712 0.24175 0.77537 0.0
C631 C 0.41479 0.20234 0.77341 0.0
C632 C 0.45309 0.19539 0.76376 0.0
C633 C 0.47496 0.22854 0.75333 0.0
C634 C 0.45372 0.27458 0.75927 0.0
H635 H 0.36789 0.2437 0.78341 0.0
O636 O 0.40235 0.29481 0.83012 0.0
O637 O 0.41637 0.33172 0.80133 0.0
O638 O 0.32681 0.31111 0.80857 0.0
O639 O 0.34225 0.31408 0.77489 0.0
C640 C 0.53209 0.23851 0.72375 0.0
C641 C 0.53545 0.29022 0.71734 0.0
H642 H 0.53311 0.37715 0.71299 0.0
H643 H 0.49482 0.43102 0.73196 0.0
H644 H 0.39829 0.17613 0.78002 0.0
H645 H 0.46283 0.16337 0.76388 0.0
H646 H 0.55198 0.21663 0.71529 0.0
H647 H 0.55765 0.29994 0.70554 0.0
Mn648 Mn 0.90439 0.12177 0.07198 0.0
Mn649 Mn 0.91731 0.14801 1.02082 0.0
C650 C 0.95071 0.1747 0.06342 0.0
C651 C 0.87947 0.12117 0.10697 0.0
C652 C 0.94615 0.06747 0.03952 0.0
O653 O 0.85025 0.10201 0.05744 0.0
O654 O 0.8591 0.12894 1.02442 0.0
C655 C 0.85999 0.20928 1.00209 0.0
N656 N 0.89935 0.20019 1.00839 0.0
C657 C 0.92376 0.25426 0.97946 0.0
C658 C 0.88205 0.26032 0.97499 0.0
C659 C 0.85129 0.23877 0.98621 0.0
C660 C 0.93183 0.21838 0.99877 0.0
H661 H 0.83424 0.19252 1.00865 0.0
C662 C 0.83719 0.11074 0.03869 0.0
O663 O 0.89542 0.08907 0.09807 0.0
O664 O 0.87378 0.15343 0.09489 0.0
N665 N 0.97376 0.16644 1.01865 0.0
C666 C 0.00861 0.14652 1.02528 0.0
C667 C 0.04802 0.16417 1.0233 0.0
C668 C 0.05493 0.20249 1.01366 0.0
C669 C 0.02175 0.22439 1.00327 0.0
C670 C 0.97573 0.20316 1.00924 0.0
H671 H 0.00669 0.11728 0.03331 0.0
O672 O 0.95571 0.1518 0.0801 0.0
O673 O 0.91874 0.16581 0.05133 0.0
O674 O 0.93937 0.07627 0.05857 0.0
O675 O 0.93625 0.09167 1.02489 0.0
C676 C 0.01168 0.28159 0.97373 0.0
C677 C 0.95995 0.28498 0.96737 0.0
H678 H 0.873 0.28269 0.96311 0.0
H679 H 0.8192 0.2444 0.98213 0.0
H680 H 0.07424 0.14766 0.02987 0.0
H681 H 0.08696 0.21222 1.01375 0.0
H682 H 0.03353 0.30149 0.96526 0.0
H683 H 0.95018 0.30721 0.95559 0.0
Mn684 Mn 0.12869 0.65437 0.322 0.0
Mn685 Mn 0.10242 0.66717 0.27084 0.0
C686 C 0.0758 0.70071 0.3134 0.0
C687 C 0.12925 0.62957 0.35702 0.0
C688 C 0.18298 0.69603 0.28951 0.0
O689 O 0.14841 0.60016 0.3075 0.0
O690 O 0.1215 0.60896 0.27447 0.0
C691 C 0.0411 0.6098 0.25218 0.0
N692 N 0.05022 0.64918 0.25844 0.0
C693 C 0.99612 0.6735 0.2295 0.0
C694 C 0.99003 0.63177 0.22508 0.0
C695 C 0.01159 0.60104 0.23632 0.0
C696 C 0.03202 0.68163 0.2488 0.0
H697 H 0.05786 0.58407 0.25877 0.0
C698 C 0.13969 0.58707 0.28875 0.0
O699 O 0.16137 0.64545 0.34811 0.0
O700 O 0.097 0.62387 0.34495 0.0
N701 N 0.08401 0.72361 0.26862 0.0
C702 C 0.10396 0.75848 0.2752 0.0
C703 C 0.08633 0.79789 0.27317 0.0
C704 C 0.04802 0.8048 0.26353 0.0
C705 C 0.02609 0.77158 0.25318 0.0
C706 C 0.04729 0.72557 0.25921 0.0
H707 H 0.1332 0.75658 0.28323 0.0
O708 O 0.0987 0.70574 0.33009 0.0
O709 O 0.08466 0.6687 0.30135 0.0
O710 O 0.17421 0.68926 0.30856 0.0
O711 O 0.15877 0.68612 0.27488 0.0
C712 C 0.96887 0.76142 0.22366 0.0
C713 C 0.96543 0.70966 0.21736 0.0
H714 H 0.96765 0.62268 0.21322 0.0
H715 H 0.00593 0.56894 0.23228 0.0
H716 H 0.10288 0.82414 0.27971 0.0
H717 H 0.03832 0.83683 0.26358 0.0
H718 H 0.94898 0.78325 0.21517 0.0
H719 H 0.94319 0.69985 0.2056 0.0
Mn720 Mn 0.59617 0.12236 0.98373 0.0
Mn721 Mn 0.58311 0.14859 0.03487 0.0
C722 C 0.54981 0.17528 0.99226 0.0
C723 C 0.62114 0.12171 0.94873 0.0
C724 C 0.55442 0.06802 1.01615 0.0
O725 O 0.65028 0.10259 0.9983 0.0
O726 O 0.64137 0.12959 0.03131 0.0
C727 C 0.64026 0.20986 0.05374 0.0
N728 N 0.60094 0.20077 0.04736 0.0
C729 C 0.57634 0.25474 0.0763 0.0
C730 C 0.61802 0.26084 0.08083 0.0
C731 C 0.64886 0.23933 0.06965 0.0
C732 C 0.5684 0.2189 0.05696 0.0
H733 H 0.66604 0.19312 0.04721 0.0
C734 C 0.66331 0.11136 1.01705 0.0
O735 O 0.60519 0.08963 0.95764 0.0
O736 O 0.62681 0.15399 0.9608 0.0
N737 N 0.52663 0.16694 0.03701 0.0
C738 C 0.49183 0.14699 0.03033 0.0
C739 C 0.45239 0.1646 0.03228 0.0
C740 C 0.44538 0.20289 0.04193 0.0
C741 C 0.47849 0.22481 0.05237 0.0
C742 C 0.52457 0.20364 0.04643 0.0
H743 H 0.49382 0.11777 1.02229 0.0
O744 O 0.54487 0.15238 0.97557 0.0
O745 O 0.58175 0.1664 1.00437 0.0
O746 O 0.5612 0.07684 0.9971 0.0
O747 O 0.56426 0.09222 0.03079 0.0
C748 C 0.48837 0.28196 0.08195 0.0
C749 C 0.54007 0.28539 0.08837 0.0
H750 H 0.62699 0.28319 0.09273 0.0
H751 H 0.68092 0.24497 0.07378 0.0
H752 H 0.42621 0.14806 1.02568 0.0
H753 H 0.41334 0.21258 0.04181 0.0
H754 H 0.46646 0.30181 0.09041 0.0
H755 H 0.54976 0.3076 0.10018 0.0
Mn756 Mn 0.12845 0.34606 0.2337 0.0
Mn757 Mn 0.10224 0.33299 0.28486 0.0
C758 C 0.07554 0.29971 0.24225 0.0
C759 C 0.12905 0.37097 0.19869 0.0
C760 C 0.18281 0.30431 0.26613 0.0
O761 O 0.14817 0.40021 0.24827 0.0
O762 O 0.12127 0.39125 0.28129 0.0
C763 C 0.04104 0.39016 0.30376 0.0
N764 N 0.05009 0.35085 0.29737 0.0
C765 C 0.99613 0.32625 0.32631 0.0
C766 C 0.99008 0.36793 0.33085 0.0
C767 C 0.01161 0.39876 0.31968 0.0
C768 C 0.03195 0.31831 0.30696 0.0
H769 H 0.0578 0.41595 0.29725 0.0
C770 C 0.13944 0.41322 0.26703 0.0
O771 O 0.16115 0.35507 0.20761 0.0
O772 O 0.09678 0.37664 0.21076 0.0
N773 N 0.08386 0.27652 0.28698 0.0
C774 C 0.10378 0.24171 0.28029 0.0
C775 C 0.08613 0.20228 0.28223 0.0
C776 C 0.04783 0.1953 0.29187 0.0
C777 C 0.02594 0.22841 0.30232 0.0
C778 C 0.04716 0.27448 0.29641 0.0
H779 H 0.133 0.24369 0.27225 0.0
O780 O 0.09846 0.29473 0.22557 0.0
O781 O 0.08442 0.33165 0.25435 0.0
O782 O 0.17401 0.31114 0.24709 0.0
O783 O 0.15858 0.31411 0.28077 0.0
C784 C 0.96883 0.23829 0.33191 0.0
C785 C 0.96545 0.28998 0.33836 0.0
H786 H 0.96775 0.3769 0.34277 0.0
H787 H 0.006 0.43083 0.32383 0.0
H788 H 0.10265 0.1761 0.27561 0.0
H789 H 0.0381 0.16327 0.29173 0.0
H790 H 0.94896 0.21638 0.34036 0.0
H791 H 0.94325 0.29967 0.35017 0.0
Mn792 Mn 0.90439 0.87919 0.48353 0.0
Mn793 Mn 0.91725 0.85297 0.53469 0.0
C794 C 0.95068 0.82625 0.49212 0.0
C795 C 0.87958 0.87976 0.4485 0.0
C796 C 0.94614 0.93348 0.51599 0.0
O797 O 0.85021 0.89894 0.49803 0.0
O798 O 0.85907 0.8721 0.53107 0.0
C799 C 0.85985 0.79177 0.55342 0.0
N800 N 0.89923 0.80081 0.54713 0.0
C801 C 0.92356 0.74678 0.57609 0.0
C802 C 0.88184 0.74076 0.58055 0.0
C803 C 0.8511 0.76232 0.56931 0.0
C804 C 0.93168 0.78261 0.55676 0.0
H805 H 0.83413 0.80854 0.54684 0.0
C806 C 0.83715 0.89026 0.5168 0.0
O807 O 0.89548 0.91187 0.45741 0.0
O808 O 0.87386 0.84752 0.46058 0.0
N809 N 0.97367 0.83449 0.53688 0.0
C810 C 0.00855 0.85437 0.53026 0.0
C811 C 0.04794 0.83669 0.53226 0.0
C812 C 0.05481 0.79838 0.54192 0.0
C813 C 0.0216 0.77652 0.55231 0.0
C814 C 0.9756 0.79778 0.54631 0.0
H815 H 0.00666 0.8836 0.52221 0.0
O816 O 0.95573 0.84915 0.47544 0.0
O817 O 0.9187 0.83516 0.50418 0.0
O818 O 0.93933 0.92472 0.49694 0.0
O819 O 0.93625 0.90927 0.53063 0.0
C820 C 0.01145 0.71939 0.58187 0.0
C821 C 0.9597 0.71606 0.58821 0.0
H822 H 0.87275 0.71843 0.59243 0.0
H823 H 0.819 0.75672 0.57338 0.0
H824 H 0.07418 0.85317 0.5257 0.0
H825 H 0.08683 0.78862 0.54184 0.0
H826 H 0.03327 0.6995 0.59036 0.0
H827 H 0.9499 0.69386 0.6 0.0
Mn828 Mn 0.37217 0.6543 0.7336 0.0
Mn829 Mn 0.39846 0.66719 0.78474 0.0
C830 C 0.4251 0.70063 0.74215 0.0
C831 C 0.37145 0.62948 0.69859 0.0
C832 C 0.31788 0.69597 0.76607 0.0
O833 O 0.35243 0.60013 0.74813 0.0
O834 O 0.37945 0.60895 0.78114 0.0
C835 C 0.45979 0.60997 0.80349 0.0
N836 N 0.45066 0.64931 0.79718 0.0
C837 C 0.50467 0.6738 0.82612 0.0
C838 C 0.5108 0.6321 0.83059 0.0
C839 C 0.48929 0.6013 0.81938 0.0
C840 C 0.4688 0.68181 0.8068 0.0
H841 H 0.44306 0.5842 0.79693 0.0
C842 C 0.36122 0.58705 0.76687 0.0
O843 O 0.33939 0.6454 0.70753 0.0
O844 O 0.40375 0.62373 0.71062 0.0
N845 N 0.4168 0.72367 0.78692 0.0
C846 C 0.39683 0.75849 0.78029 0.0
C847 C 0.41443 0.79793 0.78228 0.0
C848 C 0.45272 0.8049 0.79193 0.0
C849 C 0.47466 0.77175 0.80233 0.0
C850 C 0.45351 0.7257 0.79634 0.0
H851 H 0.36761 0.75653 0.77225 0.0
O852 O 0.40218 0.70563 0.72548 0.0
O853 O 0.41624 0.66865 0.75423 0.0
O854 O 0.3267 0.68925 0.74702 0.0
O855 O 0.34208 0.68605 0.7807 0.0
C856 C 0.53185 0.76177 0.83188 0.0
C857 C 0.53532 0.71004 0.83823 0.0
H858 H 0.53316 0.62308 0.84248 0.0
H859 H 0.49496 0.56922 0.82346 0.0
H860 H 0.39787 0.82413 0.77571 0.0
H861 H 0.4624 0.83695 0.79185 0.0
H862 H 0.5517 0.78365 0.84036 0.0
H863 H 0.55755 0.7003 0.85002 0.0
Mn864 Mn 0.40472 0.12195 0.48365 0.0
Mn865 Mn 0.41777 0.14811 0.53482 0.0
C866 C 0.45107 0.17485 0.49223 0.0
C867 C 0.37984 0.1214 0.44864 0.0
C868 C 0.44651 0.06758 0.51607 0.0
O869 O 0.35057 0.10221 0.4982 0.0
O870 O 0.35955 0.12901 0.53124 0.0
C871 C 0.36049 0.20926 0.55369 0.0
N872 N 0.39983 0.20024 0.54732 0.0
C873 C 0.4243 0.25421 0.57629 0.0
C874 C 0.3826 0.26023 0.5808 0.0
C875 C 0.35182 0.23868 0.5696 0.0
C876 C 0.43232 0.21841 0.55694 0.0
H877 H 0.33473 0.19249 0.54714 0.0
C878 C 0.33758 0.11087 0.51697 0.0
O879 O 0.39573 0.08928 0.45754 0.0
O880 O 0.37417 0.15365 0.46072 0.0
N881 N 0.47421 0.16655 0.53698 0.0
C882 C 0.50905 0.14666 0.53031 0.0
C883 C 0.54846 0.16434 0.53228 0.0
C884 C 0.55539 0.20263 0.54194 0.0
C885 C 0.52223 0.22449 0.55237 0.0
C886 C 0.4762 0.20324 0.54642 0.0
H887 H 0.50711 0.11744 0.52226 0.0
O888 O 0.45606 0.15195 0.47554 0.0
O889 O 0.41912 0.16595 0.50432 0.0
O890 O 0.43964 0.07636 0.49703 0.0
O891 O 0.43673 0.09181 0.53072 0.0
C892 C 0.51222 0.28158 0.58197 0.0
C893 C 0.46051 0.28491 0.58838 0.0
H894 H 0.37358 0.28254 0.59271 0.0
H895 H 0.31974 0.24426 0.57372 0.0
H896 H 0.57467 0.14785 0.52567 0.0
H897 H 0.58741 0.21239 0.54183 0.0
H898 H 0.53408 0.30146 0.59044 0.0
H899 H 0.45077 0.30709 0.60019 0.0
Mn900 Mn 0.62832 0.65471 0.23374 0.0
Mn901 Mn 0.60208 0.66786 0.28488 0.0
C902 C 0.57539 0.70107 0.24226 0.0
C903 C 0.62901 0.62974 0.19875 0.0
C904 C 0.68265 0.69654 0.26616 0.0
O905 O 0.64808 0.60062 0.24833 0.0
O906 O 0.62112 0.6096 0.28134 0.0
C907 C 0.54087 0.61071 0.30379 0.0
N908 N 0.54992 0.65002 0.29739 0.0
C909 C 0.49593 0.67465 0.32631 0.0
C910 C 0.48987 0.63297 0.33086 0.0
C911 C 0.51142 0.60213 0.3197 0.0
C912 C 0.53178 0.68257 0.30696 0.0
H913 H 0.55764 0.58492 0.29729 0.0
C914 C 0.63932 0.58762 0.26709 0.0
O915 O 0.66108 0.64568 0.20767 0.0
O916 O 0.59671 0.62407 0.2108 0.0
N917 N 0.5837 0.72433 0.28699 0.0
C918 C 0.60362 0.75913 0.28029 0.0
C919 C 0.58598 0.79857 0.28222 0.0
C920 C 0.54768 0.80556 0.29186 0.0
C921 C 0.52578 0.77246 0.30231 0.0
C922 C 0.54699 0.72639 0.29641 0.0
H923 H 0.63285 0.75715 0.27225 0.0
O924 O 0.59831 0.70602 0.22558 0.0
O925 O 0.58427 0.66915 0.25437 0.0
O926 O 0.67385 0.68969 0.24712 0.0
O927 O 0.65843 0.68674 0.2808 0.0
C928 C 0.46863 0.76261 0.33189 0.0
C929 C 0.46525 0.71093 0.33835 0.0
H930 H 0.46753 0.62401 0.34277 0.0
H931 H 0.5058 0.57006 0.32385 0.0
H932 H 0.6025 0.82474 0.2756 0.0
H933 H 0.53795 0.83759 0.29171 0.0
H934 H 0.44876 0.78453 0.34033 0.0
H935 H 0.44304 0.70125 0.35016 0.0
Mn936 Mn 0.09648 0.87884 0.98357 0.0
Mn937 Mn 0.0836 0.8526 0.03473 0.0
C938 C 0.05015 0.82592 0.99214 0.0
C939 C 0.12138 0.87944 0.94858 0.0
C940 C 0.05477 0.93315 1.01603 0.0
O941 O 0.15063 0.89861 0.9981 0.0
O942 O 0.14183 0.87164 0.03112 0.0
C943 C 0.14088 0.79128 0.05345 0.0
N944 N 0.10152 0.8004 0.04716 0.0
C945 C 0.0771 0.74638 0.07611 0.0
C946 C 0.11881 0.74028 0.08056 0.0
C947 C 0.14958 0.7618 0.06933 0.0
C948 C 0.06905 0.78225 0.05679 0.0
H949 H 0.16664 0.80801 0.04687 0.0
C950 C 0.16371 0.88986 1.01685 0.0
O951 O 0.10543 0.91154 0.95748 0.0
O952 O 0.12707 0.84718 0.96065 0.0
N953 N 0.02714 0.83422 0.03691 0.0
C954 C 0.9923 0.85417 0.03029 0.0
C955 C 0.95288 0.83656 0.03229 0.0
C956 C 0.94593 0.79827 0.04195 0.0
C957 C 0.97911 0.77634 0.05233 0.0
C958 C 0.02514 0.79751 0.04633 0.0
H959 H 0.99424 0.8834 1.02225 0.0
O960 O 0.04516 0.8488 0.97545 0.0
O961 O 0.08213 0.8348 1.00422 0.0
O962 O 0.06151 0.92433 0.99698 0.0
O963 O 0.06471 0.90896 0.03067 0.0
C964 C 0.98916 0.71917 0.08188 0.0
C965 C 0.0409 0.71573 0.08822 0.0
H966 H 0.12786 0.71792 0.09244 0.0
H967 H 0.18167 0.75613 0.0734 0.0
H968 H 0.92666 0.8531 1.02573 0.0
H969 H 0.9139 0.78857 0.04187 0.0
H970 H 0.9673 0.69931 0.09037 0.0
H971 H 0.05066 0.6935 0.1 0.0
Mn972 Mn 0.8722 0.34641 0.73366 0.0
Mn973 Mn 0.8985 0.33356 0.78481 0.0
C974 C 0.9251 0.30006 0.74223 0.0
C975 C 0.87155 0.3712 0.69864 0.0
C976 C 0.81791 0.30476 0.76615 0.0
O977 O 0.85249 0.4006 0.74818 0.0
O978 O 0.87946 0.39179 0.78119 0.0
C979 C 0.95983 0.39083 0.80353 0.0
N980 N 0.95071 0.35147 0.79723 0.0
C981 C 0.00475 0.32705 0.82618 0.0
C982 C 0.01086 0.36876 0.83063 0.0
C983 C 0.98934 0.39953 0.8194 0.0
C984 C 0.96887 0.31899 0.80686 0.0
H985 H 0.94309 0.41658 0.79696 0.0
C986 C 0.86125 0.41369 0.76692 0.0
O987 O 0.83946 0.35532 0.70757 0.0
O988 O 0.90383 0.37691 0.71069 0.0
N989 N 0.91686 0.27709 0.78701 0.0
C990 C 0.89689 0.24226 0.7804 0.0
C991 C 0.9145 0.20282 0.7824 0.0
C992 C 0.9528 0.19587 0.79205 0.0
C993 C 0.97475 0.22905 0.80242 0.0
C994 C 0.95358 0.27509 0.79642 0.0
H995 H 0.86766 0.2442 0.77236 0.0
O996 O 0.90218 0.29505 0.72556 0.0
O997 O 0.91625 0.33206 0.7543 0.0
O998 O 0.82669 0.31151 0.7471 0.0
O999 O 0.84213 0.31466 0.78078 0.0
C1000 C 0.03194 0.2391 0.83196 0.0
C1001 C 0.03541 0.29084 0.8383 0.0
H1002 H 0.03324 0.37781 0.8425 0.0
H1003 H 0.995 0.43163 0.82347 0.0
H1004 H 0.89794 0.17661 0.77585 0.0
H1005 H 0.96249 0.16383 0.79198 0.0
H1006 H 0.0518 0.21724 0.84045 0.0
H1007 H 0.05764 0.3006 0.85007 0.0
Mn1008 Mn 0.40466 0.87869 0.07189 0.0
Mn1009 Mn 0.4178 0.85248 1.02074 0.0
C1010 C 0.45102 0.82578 0.06336 0.0
C1011 C 0.37965 0.87931 0.10687 0.0
C1012 C 0.44648 0.93304 0.03948 0.0
O1013 O 0.35056 0.89844 0.0573 0.0
O1014 O 0.35954 0.87152 1.02428 0.0
C1015 C 0.36062 0.79126 1.00185 0.0
N1016 N 0.39994 0.80032 1.00824 0.0
C1017 C 0.42454 0.74632 0.97931 0.0
C1018 C 0.38286 0.74026 0.97477 0.0
C1019 C 0.35202 0.76181 0.98594 0.0
C1020 C 0.43248 0.78217 0.99865 0.0
H1021 H 0.33484 0.80803 1.00836 0.0
C1022 C 0.33757 0.88971 0.03854 0.0
O1023 O 0.3956 0.9114 0.09797 0.0
O1024 O 0.37401 0.84703 0.0948 0.0
N1025 N 0.47426 0.83409 1.01862 0.0
C1026 C 0.50907 0.85401 1.02531 0.0
C1027 C 0.5485 0.83637 1.02338 0.0
C1028 C 0.55549 0.79806 1.01374 0.0
C1029 C 0.52237 0.77616 1.00329 0.0
C1030 C 0.47631 0.79739 1.0092 0.0
H1031 H 0.50709 0.88324 0.03335 0.0
O1032 O 0.45596 0.84868 0.08005 0.0
O1033 O 0.4191 0.83466 0.05124 0.0
O1034 O 0.43963 0.92424 0.05852 0.0
O1035 O 0.43668 0.90882 1.02484 0.0
C1036 C 0.51249 0.71901 0.97371 0.0
C1037 C 0.4608 0.71563 0.96726 0.0
H1038 H 0.37389 0.71792 0.96286 0.0
H1039 H 0.31996 0.75619 0.98179 0.0
H1040 H 0.57468 0.85288 0.03 0.0
H1041 H 0.58751 0.78833 1.01388 0.0
H1042 H 0.5344 0.69913 0.96527 0.0
H1043 H 0.45111 0.69342 0.95546 0.0
Mn1044 Mn 0.87223 0.65471 0.82196 0.0
Mn1045 Mn 0.89845 0.66771 0.7708 0.0
C1046 C 0.92517 0.70102 0.8134 0.0
C1047 C 0.8716 0.62984 0.85698 0.0
C1048 C 0.81791 0.6965 0.78952 0.0
O1049 O 0.85248 0.60057 0.80741 0.0
O1050 O 0.87936 0.60949 0.77438 0.0
C1051 C 0.95961 0.61044 0.75194 0.0
N1052 N 0.95059 0.64977 0.75831 0.0
C1053 C 0.00456 0.67426 0.72935 0.0
C1054 C 0.01058 0.63256 0.72483 0.0
C1055 C 0.98903 0.60177 0.73603 0.0
C1056 C 0.96876 0.68227 0.7487 0.0
H1057 H 0.94284 0.58468 0.75848 0.0
C1058 C 0.86118 0.58754 0.78865 0.0
O1059 O 0.83951 0.64576 0.84806 0.0
O1060 O 0.90387 0.62414 0.84491 0.0
N1061 N 0.91689 0.72416 0.76865 0.0
C1062 C 0.897 0.759 0.77532 0.0
C1063 C 0.91468 0.79841 0.77336 0.0
C1064 C 0.95297 0.80534 0.76371 0.0
C1065 C 0.97483 0.77218 0.75327 0.0
C1066 C 0.95359 0.72615 0.75922 0.0
H1067 H 0.86778 0.75706 0.78337 0.0
O1068 O 0.90226 0.70603 0.83008 0.0
O1069 O 0.91627 0.66907 0.80131 0.0
O1070 O 0.8267 0.68967 0.80856 0.0
O1071 O 0.84213 0.68667 0.77488 0.0
C1072 C 0.03192 0.76218 0.72367 0.0
C1073 C 0.03525 0.71047 0.71726 0.0
H1074 H 0.03289 0.62354 0.71292 0.0
H1075 H 0.99462 0.56969 0.7319 0.0
H1076 H 0.89819 0.82462 0.77997 0.0
H1077 H 0.96272 0.83736 0.76382 0.0
H1078 H 0.05179 0.78405 0.7152 0.0
H1079 H 0.05743 0.70073 0.70545 0.0
Mn1080 Mn 0.09652 0.12195 0.57206 0.0
Mn1081 Mn 0.08365 0.14824 0.52091 0.0
C1082 C 0.05019 0.17487 0.5635 0.0
C1083 C 0.12135 0.1213 0.60708 0.0
C1084 C 0.05487 0.06765 0.53957 0.0
O1085 O 0.1507 0.10221 0.55753 0.0
O1086 O 0.14188 0.12923 0.52452 0.0
C1087 C 0.14088 0.20959 0.50218 0.0
N1088 N 0.10153 0.20045 0.50848 0.0
C1089 C 0.07706 0.25444 0.47952 0.0
C1090 C 0.11876 0.26057 0.47506 0.0
C1091 C 0.14955 0.23907 0.48629 0.0
C1092 C 0.06903 0.21858 0.49885 0.0
H1093 H 0.16664 0.19286 0.50874 0.0
C1094 C 0.16378 0.11099 0.53879 0.0
O1095 O 0.10545 0.08921 0.59815 0.0
O1096 O 0.12707 0.15358 0.59502 0.0
N1097 N 0.02718 0.16659 0.51873 0.0
C1098 C 0.99236 0.14661 0.52536 0.0
C1099 C 0.95292 0.1642 0.52336 0.0
C1100 C 0.94594 0.20249 0.5137 0.0
C1101 C 0.9791 0.22443 0.50331 0.0
C1102 C 0.02515 0.20329 0.50931 0.0
H1103 H 0.99432 0.11739 0.5334 0.0
O1104 O 0.04518 0.15195 0.58017 0.0
O1105 O 0.08217 0.16601 0.55142 0.0
O1106 O 0.06158 0.07645 0.55863 0.0
O1107 O 0.0648 0.09187 0.52495 0.0
C1108 C 0.98909 0.28159 0.47375 0.0
C1109 C 0.04082 0.28506 0.4674 0.0
H1110 H 0.12778 0.28292 0.46318 0.0
H1111 H 0.18163 0.24474 0.48221 0.0
H1112 H 0.92672 0.14765 0.52992 0.0
H1113 H 0.9139 0.21216 0.51378 0.0
H1114 H 0.96721 0.30143 0.46526 0.0
H1115 H 0.05056 0.30729 0.45562 0.0
Mn1116 Mn 0.6288 0.3465 0.32206 0.0
Mn1117 Mn 0.60251 0.33367 0.27091 0.0
C1118 C 0.57589 0.30016 0.31349 0.0
C1119 C 0.62943 0.37133 0.35708 0.0
C1120 C 0.68308 0.30482 0.28957 0.0
O1121 O 0.64852 0.40069 0.30755 0.0
O1122 O 0.62157 0.39188 0.27453 0.0
C1123 C 0.54117 0.39101 0.25224 0.0
N1124 N 0.5503 0.35164 0.25851 0.0
C1125 C 0.49622 0.32728 0.22957 0.0
C1126 C 0.49012 0.369 0.22514 0.0
C1127 C 0.51166 0.39975 0.23638 0.0
C1128 C 0.53211 0.31918 0.24887 0.0
H1129 H 0.55792 0.41675 0.25883 0.0
C1130 C 0.63978 0.41378 0.28881 0.0
O1131 O 0.66153 0.35542 0.34815 0.0
O1132 O 0.59715 0.37703 0.34502 0.0
N1133 N 0.58411 0.27722 0.2687 0.0
C1134 C 0.60406 0.24237 0.2753 0.0
C1135 C 0.58644 0.20295 0.27328 0.0
C1136 C 0.54813 0.19603 0.26363 0.0
C1137 C 0.52619 0.22923 0.25327 0.0
C1138 C 0.54738 0.27525 0.2593 0.0
H1139 H 0.6333 0.24428 0.28333 0.0
O1140 O 0.5988 0.29514 0.33016 0.0
O1141 O 0.58475 0.33216 0.30142 0.0
O1142 O 0.6743 0.31158 0.30863 0.0
O1143 O 0.65886 0.31474 0.27495 0.0
C1144 C 0.46898 0.23935 0.22375 0.0
C1145 C 0.46554 0.29111 0.21744 0.0
H1146 H 0.46774 0.37808 0.21328 0.0
H1147 H 0.506 0.43185 0.23233 0.0
H1148 H 0.60298 0.17671 0.27983 0.0
H1149 H 0.53843 0.16399 0.26369 0.0
H1150 H 0.4491 0.21751 0.21526 0.0
H1151 H 0.44329 0.3009 0.20568 0.0
C1152 C 0.97896 0.5223 0.04336 0.0
C1153 C 0.97233 0.53192 1.02188 0.0
H1154 H 0.01057 0.48419 0.06585 0.0
C1155 C 0.99387 0.50957 1.00642 0.0
H1156 H 0.96297 0.53909 0.05574 0.0
C1157 C 0.02153 0.47842 1.0123 0.0
C1158 C 0.02817 0.46881 0.03378 0.0
H1159 H 0.98993 0.51653 0.98981 0.0
H1160 H 0.03752 0.46164 0.99992 0.0
C1161 C 0.00662 0.49116 0.04924 0.0
C1162 C 0.72821 0.72928 0.29337 0.0
C1163 C 0.71856 0.7226 0.27191 0.0
H1164 H 0.7664 0.7609 0.31583 0.0
C1165 C 0.74089 0.74409 0.25642 0.0
H1166 H 0.71144 0.71333 0.30577 0.0
C1167 C 0.77207 0.77174 0.26227 0.0
C1168 C 0.78173 0.77841 0.28373 0.0
H1169 H 0.73389 0.74011 0.23981 0.0
H1170 H 0.78884 0.78768 0.24987 0.0
C1171 C 0.7594 0.75692 0.29922 0.0
C1172 C 0.52151 0.47851 0.54336 0.0
C1173 C 0.52816 0.46884 0.5219 0.0
H1174 H 0.48971 0.51654 0.56582 0.0
C1175 C 0.50641 0.49094 0.50642 0.0
H1176 H 0.53764 0.46191 0.55575 0.0
C1177 C 0.47854 0.52192 0.51227 0.0
C1178 C 0.47191 0.53161 0.53373 0.0
H1179 H 0.51035 0.4839 0.48981 0.0
H1180 H 0.46241 0.53853 0.49987 0.0
C1181 C 0.49364 0.5095 0.54921 0.0
C1182 C 0.77241 0.27208 0.79341 0.0
C1183 C 0.78211 0.27858 0.77194 0.0
H1184 H 0.73435 0.24043 0.81591 0.0
C1185 C 0.76001 0.25674 0.75649 0.0
H1186 H 0.789 0.2883 0.80578 0.0
C1187 C 0.72902 0.22892 0.76238 0.0
C1188 C 0.71931 0.22242 0.78385 0.0
H1189 H 0.76707 0.26057 0.73987 0.0
H1190 H 0.71243 0.2127 0.75001 0.0
C1191 C 0.74141 0.24426 0.7993 0.0
C1192 C 0.97887 0.47844 0.51227 0.0
C1193 C 0.97218 0.46886 0.53374 0.0
H1194 H 0.01049 0.51657 0.48978 0.0
C1195 C 0.99362 0.49128 0.54921 0.0
H1196 H 0.96296 0.4616 0.49988 0.0
C1197 C 0.02124 0.52247 0.54334 0.0
C1198 C 0.02794 0.53205 0.52187 0.0
H1199 H 0.98962 0.48434 0.56583 0.0
H1200 H 0.03715 0.53931 0.55573 0.0
C1201 C 0.00649 0.50963 0.5064 0.0
C1202 C 0.7413 0.75692 0.7564 0.0
C1203 C 0.71903 0.77855 0.77186 0.0
H1204 H 0.78913 0.71317 0.74989 0.0
C1205 C 0.72868 0.77195 0.79333 0.0
H1206 H 0.7343 0.76084 0.73978 0.0
C1207 C 0.75979 0.74425 0.79921 0.0
C1208 C 0.78206 0.72262 0.78374 0.0
H1209 H 0.71196 0.788 0.80571 0.0
H1210 H 0.7668 0.74033 0.81582 0.0
C1211 C 0.77241 0.72922 0.76227 0.0
C1212 C 0.47863 0.47884 0.04336 0.0
C1213 C 0.47213 0.46913 1.02189 0.0
H1214 H 0.51034 0.51686 0.06586 0.0
C1215 C 0.49401 0.49118 1.00644 0.0
H1216 H 0.46239 0.46228 0.05573 0.0
C1217 C 0.52188 0.52213 1.01233 0.0
C1218 C 0.52839 0.53184 0.0338 0.0
H1219 H 0.49018 0.48411 0.98983 0.0
H1220 H 0.53812 0.53869 0.99996 0.0
C1221 C 0.50651 0.50979 0.04925 0.0
C1222 C 0.75951 0.24426 0.25641 0.0
C1223 C 0.7816 0.2224 0.27186 0.0
H1224 H 0.71195 0.28834 0.24994 0.0
C1225 C 0.77192 0.22892 0.29333 0.0
H1226 H 0.76655 0.24042 0.2398 0.0
C1227 C 0.74096 0.25677 0.29923 0.0
C1228 C 0.71886 0.27862 0.28378 0.0
H1229 H 0.78851 0.21269 0.3057 0.0
H1230 H 0.73391 0.2606 0.31584 0.0
C1231 C 0.72854 0.27211 0.26231 0.0
C1232 C 0.25986 0.25659 0.79925 0.0
C1233 C 0.28217 0.27814 0.78377 0.0
H1234 H 0.21198 0.21292 0.80578 0.0
C1235 C 0.27253 0.27147 0.7623 0.0
H1236 H 0.26685 0.26056 0.81586 0.0
C1237 C 0.2414 0.24378 0.75644 0.0
C1238 C 0.21908 0.22224 0.77192 0.0
H1239 H 0.28928 0.28746 0.74991 0.0
H1240 H 0.23441 0.23981 0.73983 0.0
C1241 C 0.22873 0.2289 0.79339 0.0
C1242 C 0.2408 0.74416 0.29916 0.0
C1243 C 0.21876 0.72225 0.28372 0.0
H1244 H 0.2883 0.7883 0.30562 0.0
C1245 C 0.22846 0.72873 0.26224 0.0
H1246 H 0.23374 0.74035 0.31577 0.0
C1247 C 0.25941 0.7566 0.25634 0.0
C1248 C 0.28146 0.77851 0.27179 0.0
H1249 H 0.21191 0.71246 0.24988 0.0
H1250 H 0.26648 0.76041 0.23973 0.0
C1251 C 0.27175 0.77203 0.29326 0.0
C1252 C 0.25955 0.24403 0.29925 0.0
C1253 C 0.28183 0.22242 0.28379 0.0
H1254 H 0.21167 0.28773 0.30576 0.0
C1255 C 0.27214 0.22898 0.26231 0.0
H1256 H 0.26658 0.24014 0.31586 0.0
C1257 C 0.24099 0.25664 0.25644 0.0
C1258 C 0.21871 0.27825 0.2719 0.0
H1259 H 0.28887 0.21294 0.24993 0.0
H1260 H 0.23396 0.26053 0.23983 0.0
C1261 C 0.22839 0.27169 0.29338 0.0
C1262 C 0.22893 0.77174 0.76227 0.0
C1263 C 0.21921 0.77825 0.78373 0.0
H1264 H 0.26702 0.7401 0.73977 0.0
C1265 C 0.24132 0.75644 0.79919 0.0
H1266 H 0.21234 0.78793 0.74989 0.0
C1267 C 0.27234 0.72864 0.79331 0.0
C1268 C 0.28206 0.72213 0.77184 0.0
H1269 H 0.23425 0.76029 0.8158 0.0
H1270 H 0.28894 0.71245 0.80569 0.0
C1271 C 0.25995 0.74394 0.75639 0.0
C1272 C 0.52178 0.97819 0.51223 0.0
C1273 C 0.52842 0.96856 0.5337 0.0
H1274 H 0.49017 0.01634 0.48975 0.0
C1275 C 0.50688 0.99089 0.54917 0.0
H1276 H 0.53777 0.96142 0.49984 0.0
C1277 C 0.47922 0.02204 0.54331 0.0
C1278 C 0.47258 0.03168 0.52183 0.0
H1279 H 0.51082 0.9839 0.56579 0.0
H1280 H 0.46323 0.0388 0.55569 0.0
C1281 C 0.49412 0.00935 0.50636 0.0
C1282 C 0.00662 0.99095 1.00637 0.0
C1283 C 0.02858 0.96894 1.02182 0.0
H1284 H 0.96247 0.03844 0.99991 0.0
C1285 C 0.02216 0.97871 0.04329 0.0
H1286 H 0.01039 0.98384 0.98976 0.0
C1287 C 0.99431 0.00968 0.04919 0.0
C1288 C 0.97236 0.03168 0.03374 0.0
H1289 H 0.03846 0.96219 0.05565 0.0
H1290 H 0.99055 0.01679 0.0658 0.0
C1291 C 0.97878 0.02191 1.01227 0.0
C1292 C 0.50687 0.00976 1.00642 0.0
C1293 C 0.52835 0.03211 1.0219 0.0
H1294 H 0.46329 0.96181 0.99987 0.0
C1295 C 0.52167 0.02248 0.04337 0.0
H1296 H 0.51086 0.01675 0.98981 0.0
C1297 C 0.49402 0.9913 0.04922 0.0
C1298 C 0.47254 0.96895 0.03373 0.0
H1299 H 0.5376 0.03926 0.05577 0.0
H1300 H 0.49003 0.98432 0.06583 0.0
C1301 C 0.47922 0.97859 1.01227 0.0
C1302 C 0.02235 0.02208 0.51229 0.0
C1303 C 0.02866 0.03188 0.53377 0.0
H1304 H 0.99078 0.98402 0.48976 0.0
C1305 C 0.00657 0.00996 0.54919 0.0
H1306 H 0.03876 0.03854 0.49995 0.0
C1307 C 0.97868 0.97905 0.54327 0.0
C1308 C 0.97237 0.96925 0.52179 0.0
H1309 H 0.01024 0.01711 0.5658 0.0
H1310 H 0.96227 0.9626 0.55561 0.0
C1311 C 0.99446 0.99117 0.50637 0.0
C1312 C 0.01947 0.21173 0.06283 0.0
C1313 C 0.97594 0.21327 0.06137 0.0
H1314 H 0.07698 0.24562 0.06194 0.0
C1315 C 0.95686 0.25235 0.06159 0.0
H1316 H 0.03502 0.18225 0.06476 0.0
C1317 C 0.9809 0.28865 0.06289 0.0
C1318 C 0.02442 0.28711 0.06139 0.0
H1319 H 0.92339 0.25476 0.06202 0.0
H1320 H 0.96536 0.31812 0.06486 0.0
C1321 C 0.0435 0.24804 0.06154 0.0
C1322 C 0.03885 0.76952 0.31275 0.0
C1323 C 0.03726 0.72599 0.31133 0.0
H1324 H 0.00503 0.82706 0.3118 0.0
C1325 C 0.99817 0.70695 0.31156 0.0
H1326 H 0.06835 0.78504 0.31467 0.0
C1327 C 0.9619 0.73104 0.31284 0.0
C1328 C 0.96348 0.77455 0.3113 0.0
H1329 H 0.99571 0.67348 0.31203 0.0
H1330 H 0.9324 0.71554 0.31483 0.0
C1331 C 0.00258 0.79359 0.31144 0.0
C1332 C 0.45686 0.75229 0.56152 0.0
C1333 C 0.47586 0.71317 0.5613 0.0
H1334 H 0.4655 0.81804 0.56481 0.0
C1335 C 0.51938 0.71154 0.56276 0.0
H1336 H 0.4234 0.75477 0.56196 0.0
C1337 C 0.54349 0.74779 0.56147 0.0
C1338 C 0.5245 0.78691 0.56133 0.0
H1339 H 0.53486 0.68202 0.56468 0.0
H1340 H 0.57696 0.7453 0.56187 0.0
C1341 C 0.48098 0.78853 0.56283 0.0
C1342 C 0.53923 0.26961 0.81287 0.0
C1343 C 0.53769 0.22608 0.81142 0.0
H1344 H 0.50533 0.32711 0.81195 0.0
C1345 C 0.49862 0.20699 0.81163 0.0
H1346 H 0.5687 0.28516 0.8148 0.0
C1347 C 0.46232 0.23103 0.81291 0.0
C1348 C 0.46385 0.27455 0.8114 0.0
H1349 H 0.49622 0.17352 0.81206 0.0
H1350 H 0.43284 0.21548 0.81488 0.0
C1351 C 0.50292 0.29363 0.81156 0.0
C1352 C 0.01942 0.78916 0.49272 0.0
C1353 C 0.97589 0.78766 0.49418 0.0
H1354 H 0.07689 0.75523 0.49364 0.0
C1355 C 0.95678 0.7486 0.49399 0.0
H1356 H 0.03499 0.81863 0.49078 0.0
C1357 C 0.98078 0.71228 0.49272 0.0
C1358 C 0.0243 0.71378 0.49422 0.0
H1359 H 0.9233 0.74622 0.49356 0.0
H1360 H 0.96522 0.68281 0.49076 0.0
C1361 C 0.04342 0.75284 0.49404 0.0
C1362 C 0.53899 0.73102 0.74273 0.0
C1363 C 0.53738 0.77454 0.74422 0.0
H1364 H 0.50521 0.67345 0.74359 0.0
C1365 C 0.49827 0.79355 0.74406 0.0
H1366 H 0.5685 0.71554 0.74076 0.0
C1367 C 0.46201 0.76946 0.74275 0.0
C1368 C 0.46363 0.72593 0.74421 0.0
H1369 H 0.4958 0.82703 0.74366 0.0
H1370 H 0.43251 0.78495 0.74081 0.0
C1371 C 0.50274 0.70692 0.74402 0.0
C1372 C 0.54354 0.25291 0.99414 0.0
C1373 C 0.52452 0.21382 0.99431 0.0
H1374 H 0.53497 0.31869 0.99091 0.0
C1375 C 0.481 0.21222 0.9928 0.0
H1376 H 0.57702 0.25537 0.99375 0.0
C1377 C 0.45691 0.24849 0.99409 0.0
C1378 C 0.47594 0.28759 0.99429 0.0
H1379 H 0.4655 0.18272 0.99083 0.0
H1380 H 0.42344 0.24603 0.99365 0.0
C1381 C 0.51946 0.28918 0.99284 0.0
C1382 C 0.03852 0.23094 0.24275 0.0
C1383 C 0.03697 0.27445 0.24428 0.0
H1384 H 0.00464 0.17342 0.24357 0.0
C1385 C 0.9979 0.29353 0.24413 0.0
H1386 H 0.068 0.2154 0.24077 0.0
C1387 C 0.9616 0.2695 0.24282 0.0
C1388 C 0.96315 0.22597 0.24425 0.0
H1389 H 0.99548 0.32701 0.24376 0.0
H1390 H 0.93212 0.28505 0.2409 0.0
C1391 C 0.00222 0.20689 0.24403 0.0
C1392 C 0.01981 0.71201 0.99272 0.0
C1393 C 0.97629 0.7136 0.99423 0.0
H1394 H 0.07737 0.74582 0.99357 0.0
C1395 C 0.95727 0.7527 0.99407 0.0
H1396 H 0.03531 0.68251 0.99076 0.0
C1397 C 0.98135 0.78897 0.99276 0.0
C1398 C 0.02487 0.78737 0.99421 0.0
H1399 H 0.92379 0.75516 0.99368 0.0
H1400 H 0.96583 0.81847 0.99082 0.0
C1401 C 0.0439 0.74828 0.99401 0.0
C1402 C 0.96203 0.23124 0.74285 0.0
C1403 C 0.96363 0.27477 0.74429 0.0
H1404 H 0.99582 0.17368 0.74377 0.0
C1405 C 0.00274 0.29378 0.74409 0.0
H1406 H 0.93252 0.21573 0.74092 0.0
C1407 C 0.039 0.26969 0.74281 0.0
C1408 C 0.03739 0.22617 0.74432 0.0
H1409 H 0.0052 0.32725 0.74365 0.0
H1410 H 0.0685 0.28518 0.74084 0.0
C1411 C 0.99829 0.20715 0.74416 0.0
C1412 C 0.48123 0.2888 0.49285 0.0
C1413 C 0.52476 0.28728 0.49431 0.0
H1414 H 0.42374 0.2549 0.49375 0.0
C1415 C 0.54385 0.24821 0.49409 0.0
H1416 H 0.46567 0.31828 0.49093 0.0
C1417 C 0.51983 0.2119 0.49278 0.0
C1418 C 0.47631 0.21343 0.49428 0.0
H1419 H 0.57733 0.24581 0.49365 0.0
H1420 H 0.53538 0.18243 0.4908 0.0
C1421 C 0.45721 0.25249 0.49414 0.0
C1422 C 0.46145 0.73131 0.24279 0.0
C1423 C 0.46301 0.77484 0.24422 0.0
H1424 H 0.49532 0.67379 0.24375 0.0
C1425 C 0.50209 0.79391 0.24401 0.0
H1426 H 0.43197 0.71577 0.24086 0.0
C1427 C 0.53838 0.76985 0.24274 0.0
C1428 C 0.53683 0.72633 0.24428 0.0
H1429 H 0.50452 0.82738 0.24356 0.0
H1430 H 0.56787 0.78537 0.24077 0.0
C1431 C 0.49775 0.70727 0.24412 0.0
C1432 C 0.01978 0.28877 0.56289 0.0
C1433 C 0.97626 0.28715 0.56139 0.0
H1434 H 0.07736 0.25498 0.56204 0.0
C1435 C 0.95726 0.24804 0.56158 0.0
H1436 H 0.03527 0.31828 0.56485 0.0
C1437 C 0.98136 0.21178 0.56289 0.0
C1438 C 0.02488 0.2134 0.56143 0.0
H1439 H 0.92379 0.24557 0.56197 0.0
H1440 H 0.96586 0.18228 0.56484 0.0
C1441 C 0.04389 0.25251 0.56161 0.0
C1442 C 0.46198 0.26984 0.31293 0.0
C1443 C 0.46356 0.22632 0.3114 0.0
H1444 H 0.4958 0.32739 0.3121 0.0
C1445 C 0.50266 0.20729 0.31154 0.0
H1446 H 0.43248 0.28534 0.31491 0.0
C1447 C 0.53893 0.23136 0.31285 0.0
C1448 C 0.53734 0.27489 0.31142 0.0
H1449 H 0.50511 0.17381 0.31191 0.0
H1450 H 0.56843 0.21584 0.31477 0.0
C1451 C 0.49825 0.29392 0.31165 0.0
C1452 C 0.5198 0.78876 0.06286 0.0
C1453 C 0.47628 0.78721 0.06133 0.0
H1454 H 0.57732 0.75489 0.06204 0.0
C1455 C 0.45721 0.74813 0.0615 0.0
H1456 H 0.53533 0.81825 0.06482 0.0
C1457 C 0.48125 0.71184 0.06282 0.0
C1458 C 0.52478 0.71339 0.06139 0.0
H1459 H 0.42374 0.74571 0.06188 0.0
H1460 H 0.46571 0.68235 0.06476 0.0
C1461 C 0.54385 0.75247 0.06159 0.0
C1462 C 0.96223 0.76977 0.81286 0.0
C1463 C 0.96375 0.72625 0.81135 0.0
H1464 H 0.99614 0.82727 0.812 0.0
C1465 C 0.00281 0.70715 0.81149 0.0
H1466 H 0.93276 0.78533 0.81484 0.0
C1467 C 0.03913 0.73116 0.81278 0.0
C1468 C 0.0376 0.77469 0.81133 0.0
H1469 H 0.00521 0.67367 0.81187 0.0
H1470 H 0.0686 0.7156 0.8147 0.0
C1471 C 0.99854 0.79379 0.81156 0.0
C1472 C 0.27107 0.4302 1.02474 0.0
C1473 C 0.29212 0.39251 1.02147 0.0
H1474 H 0.21294 0.45925 0.03318 0.0
C1475 C 0.27071 0.3552 1.02447 0.0
H1476 H 0.28713 0.4594 1.02272 0.0
C1477 C 0.22952 0.35511 0.03094 0.0
C1478 C 0.20805 0.39234 0.03411 0.0
H1479 H 0.28596 0.32577 1.0218 0.0
H1480 H 0.21434 0.32561 0.0335 0.0
C1481 C 0.22904 0.43011 0.03102 0.0
C1482 C 0.89537 0.02085 0.27419 0.0
C1483 C 0.85803 0.0423 0.27137 0.0
H1484 H 0.92504 0.96443 0.28306 0.0
C1485 C 0.82038 0.02129 0.27478 0.0
H1486 H 0.92477 0.03611 0.27145 0.0
C1487 C 0.82053 0.97924 0.28102 0.0
C1488 C 0.85833 0.95818 0.28391 0.0
H1489 H 0.79117 0.03739 0.27291 0.0
H1490 H 0.79141 0.96317 0.28331 0.0
C1491 C 0.89552 0.97963 0.28061 0.0
C1492 C 0.22883 0.57073 0.52468 0.0
C1493 C 0.20783 0.60849 0.52155 0.0
H1494 H 0.28694 0.54148 0.53296 0.0
C1495 C 0.22932 0.64574 0.52465 0.0
H1496 H 0.21271 0.54158 0.52257 0.0
C1497 C 0.27054 0.64567 0.53106 0.0
C1498 C 0.29195 0.60837 0.5341 0.0
H1499 H 0.21412 0.67522 0.52207 0.0
H1500 H 0.28581 0.67511 0.53367 0.0
C1501 C 0.27088 0.57067 0.53091 0.0
C1502 C 0.60541 0.02098 0.78134 0.0
C1503 C 0.64276 0.04239 0.78424 0.0
H1504 H 0.57572 0.96465 0.77235 0.0
C1505 C 0.6804 0.02136 0.78083 0.0
H1506 H 0.57601 0.03625 0.78409 0.0
C1507 C 0.68024 0.97934 0.77453 0.0
C1508 C 0.64243 0.95834 0.77156 0.0
H1509 H 0.70962 0.03743 0.78275 0.0
H1510 H 0.70935 0.96325 0.77226 0.0
C1511 C 0.60524 0.97981 0.77485 0.0
C1512 C 0.72951 0.57063 0.03087 0.0
C1513 C 0.7085 0.6083 0.03426 0.0
H1514 H 0.78761 0.54163 1.02233 0.0
C1515 C 0.72993 0.64563 0.03135 0.0
H1516 H 0.71343 0.54142 0.0328 0.0
C1517 C 0.77111 0.64576 1.02487 0.0
C1518 C 0.79256 0.60855 1.02159 0.0
H1519 H 0.71468 0.67504 0.03409 0.0
H1520 H 0.78629 0.67527 1.02236 0.0
C1521 C 0.77153 0.57076 1.02458 0.0
C1522 C 0.1804 0.97934 0.78078 0.0
C1523 C 0.14274 0.9583 0.78415 0.0
H1524 H 0.20939 0.03747 0.77231 0.0
C1525 C 0.1054 0.97975 0.78129 0.0
H1526 H 0.20961 0.96324 0.78268 0.0
C1527 C 0.10527 0.02098 0.77488 0.0
C1528 C 0.14247 0.04244 0.77163 0.0
H1529 H 0.076 0.96448 0.78401 0.0
H1530 H 0.07575 0.03618 0.77242 0.0
C1531 C 0.18027 0.02139 0.77456 0.0
C1532 C 0.77099 0.35495 0.53082 0.0
C1533 C 0.79246 0.39215 0.53409 0.0
H1534 H 0.71451 0.32569 0.52168 0.0
C1535 C 0.77142 0.42995 0.53116 0.0
H1536 H 0.78619 0.32543 0.53329 0.0
C1537 C 0.72937 0.43009 0.52493 0.0
C1538 C 0.70833 0.39244 0.52155 0.0
H1539 H 0.7875 0.45907 0.53342 0.0
H1540 H 0.71327 0.45931 0.52302 0.0
C1541 C 0.72977 0.3551 0.5244 0.0
C1542 C 0.39556 0.02119 0.28065 0.0
C1543 C 0.35838 0.04265 0.284 0.0
H1544 H 0.42474 0.96474 0.27138 0.0
C1545 C 0.32056 0.02164 0.28108 0.0
H1546 H 0.42509 0.03634 0.28311 0.0
C1547 C 0.32037 0.97962 0.2748 0.0
C1548 C 0.358 0.9586 0.27133 0.0
H1549 H 0.29146 0.03773 0.28341 0.0
H1550 H 0.29114 0.96355 0.27293 0.0
C1551 C 0.39536 0.98 0.27416 0.0
C1552 C 0.77118 0.93029 0.52482 0.0
C1553 C 0.79226 0.8927 0.52132 0.0
H1554 H 0.71303 0.95909 0.53344 0.0
C1555 C 0.77091 0.8553 0.52413 0.0
H1556 H 0.78721 0.95955 0.52297 0.0
C1557 C 0.72973 0.85502 0.53061 0.0
C1558 C 0.7082 0.89215 0.53398 0.0
H1559 H 0.78622 0.82594 0.52133 0.0
H1560 H 0.71462 0.82546 0.53306 0.0
C1561 C 0.72915 0.93002 0.5311 0.0
C1562 C 0.32087 0.52113 0.7746 0.0
C1563 C 0.35859 0.54217 0.77142 0.0
H1564 H 0.29171 0.46301 0.78295 0.0
C1565 C 0.39587 0.52073 0.77449 0.0
H1566 H 0.2917 0.53721 0.77251 0.0
C1567 C 0.39588 0.47953 0.78095 0.0
C1568 C 0.35861 0.45808 0.78403 0.0
H1569 H 0.42533 0.53595 0.77188 0.0
H1570 H 0.42534 0.46432 0.78356 0.0
C1571 C 0.32088 0.4791 0.78086 0.0
C1572 C 0.7709 0.1456 0.03131 0.0
C1573 C 0.7923 0.10824 0.03417 0.0
H1574 H 0.7145 0.17531 1.02243 0.0
C1575 C 0.77123 0.0706 0.0308 0.0
H1576 H 0.78619 0.17499 0.03402 0.0
C1577 C 0.72917 0.07078 1.02458 0.0
C1578 C 0.70817 0.10859 1.02164 0.0
H1579 H 0.78729 0.04137 0.0327 0.0
H1580 H 0.71306 0.04167 1.02232 0.0
C1581 C 0.72967 0.14578 1.0249 0.0
C1582 C 0.17997 0.52117 0.28089 0.0
C1583 C 0.14228 0.54218 0.28422 0.0
H1584 H 0.20903 0.46307 0.27241 0.0
C1585 C 0.10497 0.52072 0.28131 0.0
H1586 H 0.20916 0.53728 0.28284 0.0
C1587 C 0.10489 0.47951 0.27486 0.0
C1588 C 0.14212 0.45808 0.27163 0.0
H1589 H 0.07555 0.53595 0.28401 0.0
H1590 H 0.07539 0.4643 0.27235 0.0
C1591 C 0.17989 0.47913 0.27463 0.0
C1592 C 0.23012 0.14558 0.53113 0.0
C1593 C 0.20866 0.10832 0.53423 0.0
H1594 H 0.28653 0.175 0.52202 0.0
C1595 C 0.22966 0.07058 0.53105 0.0
H1596 H 0.21492 0.17505 0.53374 0.0
C1597 C 0.27168 0.07055 0.52477 0.0
C1598 C 0.29272 0.10826 0.52156 0.0
H1599 H 0.21356 0.04142 0.53315 0.0
H1600 H 0.28774 0.04136 0.52268 0.0
C1601 C 0.2713 0.14555 0.52464 0.0
C1602 C 0.67998 0.4797 0.28092 0.0
C1603 C 0.64232 0.45867 0.28429 0.0
H1604 H 0.70897 0.53783 0.27242 0.0
C1605 C 0.60498 0.4801 0.2814 0.0
H1606 H 0.70919 0.46361 0.28284 0.0
C1607 C 0.60485 0.52131 0.27496 0.0
C1608 C 0.64205 0.54277 0.27171 0.0
H1609 H 0.57558 0.46484 0.28412 0.0
H1610 H 0.57533 0.53649 0.27247 0.0
C1611 C 0.67985 0.52174 0.27467 0.0
C1612 C 0.23005 0.85517 1.02435 0.0
C1613 C 0.2086 0.89247 1.02138 0.0
H1614 H 0.28649 0.82564 0.03332 0.0
C1615 C 0.22962 0.93017 1.02464 0.0
H1616 H 0.21482 0.82573 1.0217 0.0
C1617 C 0.27166 0.93012 0.03088 0.0
C1618 C 0.29271 0.89237 0.03394 0.0
H1619 H 0.21351 0.95936 1.02264 0.0
H1620 H 0.28774 0.95928 0.03305 0.0
C1621 C 0.27127 0.85512 0.03078 0.0
C1622 C 0.89586 0.48004 0.77453 0.0
C1623 C 0.85859 0.45857 0.77147 0.0
H1624 H 0.9253 0.53648 0.78358 0.0
C1625 C 0.82086 0.47958 0.77466 0.0
H1626 H 0.92532 0.46483 0.77191 0.0
C1627 C 0.82084 0.52162 0.78092 0.0
C1628 C 0.85856 0.54267 0.78407 0.0
H1629 H 0.79169 0.46347 0.77259 0.0
H1630 H 0.79167 0.53768 0.78302 0.0
C1631 C 0.89584 0.52124 0.78098 0.0
C1632 C 0.15254 0.35127 0.14064 0.0
C1633 C 0.12536 0.37854 0.13044 0.0
H1634 H 0.17567 0.32857 0.17014 0.0
C1635 C 0.10008 0.40461 0.14294 0.0
H1636 H 0.17221 0.33075 0.13153 0.0
C1637 C 0.1011 0.40265 0.16508 0.0
C1638 C 0.12838 0.37549 0.17528 0.0
H1639 H 0.0784 0.42578 0.13558 0.0
H1640 H 0.08056 0.4223 0.17419 0.0
C1641 C 0.15449 0.35024 0.16278 0.0
C1642 C 0.8479 0.85177 0.41492 0.0
C1643 C 0.87508 0.87905 0.4251 0.0
H1644 H 0.82479 0.82898 0.38542 0.0
C1645 C 0.90038 0.90508 0.41259 0.0
H1646 H 0.82821 0.83129 0.42403 0.0
C1647 C 0.89939 0.90305 0.39044 0.0
C1648 C 0.8721 0.87586 0.38026 0.0
H1649 H 0.92207 0.92626 0.41994 0.0
H1650 H 0.91994 0.92266 0.38132 0.0
C1651 C 0.84598 0.85067 0.39277 0.0
C1652 C 0.34661 0.65104 0.66272 0.0
C1653 C 0.37204 0.62506 0.67518 0.0
H1654 H 0.32931 0.67105 0.6315 0.0
C1655 C 0.3985 0.59714 0.66496 0.0
H1656 H 0.32609 0.6733 0.67011 0.0
C1657 C 0.39935 0.59515 0.64282 0.0
C1658 C 0.37476 0.62193 0.63034 0.0
H1659 H 0.41848 0.57689 0.67405 0.0
H1660 H 0.4204 0.57336 0.63544 0.0
C1661 C 0.34841 0.64996 0.64058 0.0
C1662 C 0.65503 0.15051 0.893 0.0
C1663 C 0.62897 0.12523 0.8805 0.0
H1664 H 0.67262 0.17009 0.92426 0.0
C1665 C 0.60164 0.0981 0.89068 0.0
H1666 H 0.67624 0.17216 0.88565 0.0
C1667 C 0.60053 0.09621 0.91283 0.0
C1668 C 0.62576 0.12232 0.92533 0.0
H1669 H 0.58114 0.07843 0.88157 0.0
H1670 H 0.5788 0.07507 0.92018 0.0
C1671 C 0.65299 0.14955 0.91515 0.0
C1672 C 0.15461 0.65037 0.39293 0.0
C1673 C 0.12855 0.62509 0.38042 0.0
H1674 H 0.17223 0.66993 0.42419 0.0
C1675 C 0.10122 0.59796 0.39061 0.0
H1676 H 0.17582 0.67202 0.38558 0.0
C1677 C 0.10013 0.59606 0.41276 0.0
C1678 C 0.12536 0.62216 0.42526 0.0
H1679 H 0.08071 0.5783 0.3815 0.0
H1680 H 0.07841 0.57491 0.42011 0.0
C1681 C 0.15259 0.6494 0.41508 0.0
C1682 C 0.60135 0.90265 0.66498 0.0
C1683 C 0.62867 0.87555 0.6752 0.0
H1684 H 0.57861 0.92565 0.63545 0.0
C1685 C 0.65479 0.85028 0.66271 0.0
H1686 H 0.58081 0.92232 0.67407 0.0
C1687 C 0.65282 0.85122 0.64057 0.0
C1688 C 0.62561 0.87843 0.63035 0.0
H1689 H 0.676 0.82865 0.67009 0.0
H1690 H 0.6725 0.83069 0.63148 0.0
C1691 C 0.60032 0.90452 0.64283 0.0
C1692 C 0.34611 0.35035 0.89286 0.0
C1693 C 0.37219 0.37564 0.88037 0.0
H1694 H 0.32833 0.33089 0.9241 0.0
C1695 C 0.39936 0.40291 0.89057 0.0
H1696 H 0.32502 0.32859 0.88549 0.0
C1697 C 0.40028 0.40493 0.91272 0.0
C1698 C 0.37503 0.37882 0.92521 0.0
H1699 H 0.41987 0.42259 0.88147 0.0
H1700 H 0.42188 0.42618 0.92008 0.0
C1701 C 0.34797 0.35144 0.915 0.0
C1702 C 0.84567 0.15022 0.16267 0.0
C1703 C 0.87173 0.12497 0.1752 0.0
H1704 H 0.82805 0.16967 0.1314 0.0
C1705 C 0.89901 0.09776 0.16503 0.0
H1706 H 0.82449 0.17192 0.17001 0.0
C1707 C 0.90009 0.09577 0.14289 0.0
C1708 C 0.87487 0.12185 0.13037 0.0
H1709 H 0.91951 0.07812 0.17416 0.0
H1710 H 0.92178 0.07457 0.13555 0.0
C1711 C 0.84767 0.14915 0.14053 0.0
C1712 C 0.84617 0.65062 0.89288 0.0
C1713 C 0.87224 0.62533 0.88038 0.0
H1714 H 0.82845 0.67014 0.92413 0.0
C1715 C 0.89947 0.59812 0.89059 0.0
H1716 H 0.82503 0.67233 0.88551 0.0
C1717 C 0.90046 0.59616 0.91274 0.0
C1718 C 0.87522 0.62227 0.92523 0.0
H1719 H 0.91998 0.57843 0.88149 0.0
H1720 H 0.92211 0.57495 0.9201 0.0
C1721 C 0.8481 0.64959 0.91503 0.0
C1722 C 0.15301 0.14921 0.64069 0.0
C1723 C 0.12584 0.12195 0.63048 0.0
H1724 H 0.1761 0.17192 0.6702 0.0
C1725 C 0.10054 0.09588 0.64297 0.0
H1726 H 0.1727 0.16973 0.63159 0.0
C1727 C 0.10153 0.09785 0.66512 0.0
C1728 C 0.1288 0.12501 0.67533 0.0
H1729 H 0.07886 0.07471 0.6356 0.0
H1730 H 0.08097 0.07821 0.67422 0.0
C1731 C 0.15492 0.15025 0.66283 0.0
C1732 C 0.60048 0.40495 0.41282 0.0
C1733 C 0.62573 0.37884 0.42531 0.0
H1734 H 0.58099 0.42268 0.38157 0.0
C1735 C 0.6529 0.35157 0.41512 0.0
H1736 H 0.57879 0.42613 0.42018 0.0
C1737 C 0.65486 0.35056 0.39297 0.0
C1738 C 0.62878 0.37584 0.38048 0.0
H1739 H 0.67255 0.33103 0.42422 0.0
H1740 H 0.67603 0.32888 0.38561 0.0
C1741 C 0.60151 0.40302 0.39067 0.0
C1742 C 0.40023 0.90478 0.14279 0.0
C1743 C 0.37502 0.87867 0.13027 0.0
H1744 H 0.41959 0.92254 0.17405 0.0
C1745 C 0.3478 0.85141 0.14044 0.0
H1746 H 0.42194 0.92595 0.13545 0.0
C1747 C 0.34575 0.85043 0.16259 0.0
C1748 C 0.37178 0.87572 0.17511 0.0
H1749 H 0.32818 0.83087 0.13132 0.0
H1750 H 0.32454 0.82876 0.16994 0.0
C1751 C 0.3991 0.90287 0.16493 0.0
C1752 C 0.8461 0.35033 0.66275 0.0
C1753 C 0.87218 0.37565 0.67523 0.0
H1754 H 0.82838 0.33074 0.63152 0.0
C1755 C 0.89943 0.40281 0.66501 0.0
H1756 H 0.82495 0.32866 0.67013 0.0
C1757 C 0.90044 0.40471 0.64286 0.0
C1758 C 0.87518 0.37857 0.63039 0.0
H1759 H 0.91995 0.42251 0.6741 0.0
H1760 H 0.92209 0.42588 0.63549 0.0
C1761 C 0.84804 0.3513 0.64061 0.0
C1762 C 0.39954 0.09799 0.39057 0.0
C1763 C 0.37225 0.12516 0.38038 0.0
H1764 H 0.42228 0.07485 0.42007 0.0
C1765 C 0.34616 0.15041 0.3929 0.0
H1766 H 0.42007 0.07835 0.38146 0.0
C1767 C 0.34813 0.14937 0.41504 0.0
C1768 C 0.37532 0.12209 0.42523 0.0
H1769 H 0.32497 0.17208 0.38554 0.0
H1770 H 0.32847 0.16988 0.42416 0.0
C1771 C 0.40058 0.09602 0.41272 0.0
C1772 C 0.65454 0.65041 0.16285 0.0
C1773 C 0.62841 0.62516 0.17534 0.0
H1774 H 0.67235 0.66985 0.13161 0.0
C1775 C 0.60119 0.59796 0.16514 0.0
H1776 H 0.67568 0.67212 0.17022 0.0
C1777 C 0.60025 0.59595 0.14299 0.0
C1778 C 0.62555 0.62202 0.1305 0.0
H1779 H 0.58063 0.57831 0.17423 0.0
H1780 H 0.5786 0.57475 0.13562 0.0
C1781 C 0.65267 0.64933 0.14071 0.0
C1782 C 0.15512 0.85042 0.89286 0.0
C1783 C 0.12905 0.87568 0.88035 0.0
H1784 H 0.17277 0.83095 0.92413 0.0
C1785 C 0.10178 0.90288 0.89052 0.0
H1786 H 0.17629 0.82872 0.88552 0.0
C1787 C 0.10072 0.90486 0.91266 0.0
C1788 C 0.12595 0.87878 0.92518 0.0
H1789 H 0.08127 0.92254 0.8814 0.0
H1790 H 0.07904 0.92606 0.92001 0.0
C1791 C 0.15313 0.85148 0.915 0.0
loop_
_geom_bond_atom_site_label_1
_geom_bond_atom_site_label_2
_geom_bond_distance
_geom_bond_site_symmetry_2
_ccdc_geom_bond_type
Mn0 O5 2.095 . S
Mn0 O15 2.162 . S
Mn0 O16 2.297 . S
Mn0 O24 2.385 . S
Mn0 O25 2.209 . S
Mn0 O26 2.094 . S
Mn1 O6 2.121 1_556 S
Mn1 N8 2.257 . S
Mn1 N17 2.282 . S
Mn1 O25 2.215 1_556 S
Mn1 O27 2.117 1_556 S
C2 O24 1.234 . S
C2 O25 1.283 . S
C3 O15 1.281 . S
C3 O16 1.236 . S
C4 O26 1.240 . S
C4 O27 1.264 . S
O5 Mn0 2.095 . S
O5 C14 1.250 . S
O6 Mn1 2.121 1_554 S
O6 C14 1.258 . S
C7 N8 1.326 . S
C7 C11 1.460 . S
C7 H13 0.929 . S
N8 Mn1 2.257 . S
N8 C7 1.326 . S
N8 C12 1.362 . S
C9 C10 1.258 . S
C9 C12 1.431 . S
C9 C29 1.449 . S
C10 C9 1.258 . S
C10 C11 1.477 . S
C10 H30 0.931 . S
C11 C7 1.460 . S
C11 C10 1.477 . S
C11 H31 0.930 . S
C12 N8 1.362 . S
C12 C9 1.431 . S
C12 C22 1.476 . S
H13 C7 0.929 . S
C14 O5 1.250 . S
C14 O6 1.258 . S
O15 Mn0 2.162 . S
O15 C3 1.281 . S
O16 Mn0 2.297 . S
O16 C3 1.236 . S
N17 Mn1 2.282 . S
N17 C18 1.328 1_455 S
N17 C22 1.318 . S
C18 N17 1.328 1_655 S
C18 C19 1.457 . S
C18 H23 0.929 . S
C19 C18 1.457 . S
C19 C20 1.291 . S
C19 H32 0.931 . S
C20 C19 1.291 . S
C20 C21 1.373 . S
C20 H33 0.929 . S
C21 C20 1.373 . S
C21 C22 1.396 1_655 S
C21 C28 1.403 . S
C22 C12 1.476 . S
C22 N17 1.318 . S
C22 C21 1.396 1_455 S
H23 C18 0.929 . S
O24 Mn0 2.385 . S
O24 C2 1.234 . S
O25 Mn0 2.209 . S
O25 Mn1 2.215 1_554 S
O25 C2 1.283 . S
O26 Mn0 2.094 . S
O26 C4 1.240 . S
O27 Mn1 2.117 1_554 S
O27 C4 1.264 . S
C28 C21 1.403 . S
C28 C29 1.399 1_655 S
C28 H34 0.929 . S
C29 C9 1.449 . S
C29 C28 1.399 1_455 S
C29 H35 0.930 . S
H30 C10 0.931 . S
H31 C11 0.930 . S
H32 C19 0.931 . S
H33 C20 0.929 . S
H34 C28 0.929 . S
H35 C29 0.930 . S
Mn36 O41 2.095 . S
Mn36 O51 2.162 . S
Mn36 O52 2.297 . S
Mn36 O60 2.385 . S
Mn36 O61 2.209 . S
Mn36 O62 2.094 . S
Mn37 O42 2.121 . S
Mn37 N44 2.257 . S
Mn37 N53 2.282 . S
Mn37 O61 2.215 . S
Mn37 O63 2.117 . S
C38 O60 1.234 . S
C38 O61 1.283 . S
C39 O51 1.281 . S
C39 O52 1.236 . S
C40 O62 1.240 . S
C40 O63 1.264 . S
O41 Mn36 2.095 . S
O41 C50 1.250 . S
O42 Mn37 2.121 . S
O42 C50 1.258 . S
C43 N44 1.326 . S
C43 C47 1.460 1_655 S
C43 H49 0.929 . S
N44 Mn37 2.257 . S
N44 C43 1.326 . S
N44 C48 1.362 . S
C45 C46 1.258 . S
C45 C48 1.431 1_455 S
C45 C65 1.449 . S
C46 C45 1.258 . S
C46 C47 1.477 . S
C46 H66 0.931 . S
C47 C43 1.460 1_455 S
C47 C46 1.477 . S
C47 H67 0.930 . S
C48 N44 1.362 . S
C48 C45 1.431 1_655 S
C48 C58 1.476 . S
H49 C43 0.929 . S
C50 O41 1.250 . S
C50 O42 1.258 . S
O51 Mn36 2.162 . S
O51 C39 1.281 . S
O52 Mn36 2.297 . S
O52 C39 1.236 . S
N53 Mn37 2.282 . S
N53 C54 1.328 . S
N53 C58 1.318 . S
C54 N53 1.328 . S
C54 C55 1.457 . S
C54 H59 0.929 . S
C55 C54 1.457 . S
C55 C56 1.291 . S
C55 H68 0.931 . S
C56 C55 1.291 . S
C56 C57 1.373 . S
C56 H69 0.929 . S
C57 C56 1.373 . S
C57 C58 1.396 . S
C57 C64 1.403 1_655 S
C58 C48 1.476 . S
C58 N53 1.318 . S
C58 C57 1.396 . S
H59 C54 0.929 . S
O60 Mn36 2.385 . S
O60 C38 1.234 . S
O61 Mn36 2.209 . S
O61 Mn37 2.215 . S
O61 C38 1.283 . S
O62 Mn36 2.094 . S
O62 C40 1.240 . S
O63 Mn37 2.117 . S
O63 C40 1.264 . S
C64 C57 1.403 1_455 S
C64 C65 1.399 . S
C64 H70 0.929 . S
C65 C45 1.449 . S
C65 C64 1.399 . S
C65 H71 0.930 . S
H66 C46 0.931 . S
H67 C47 0.930 . S
H68 C55 0.931 . S
H69 C56 0.929 . S
H70 C64 0.929 . S
H71 C65 0.930 . S
Mn72 O77 2.095 . S
Mn72 O87 2.162 . S
Mn72 O88 2.297 . S
Mn72 O96 2.385 . S
Mn72 O97 2.209 . S
Mn72 O98 2.094 . S
Mn73 O78 2.121 . S
Mn73 N80 2.257 . S
Mn73 N89 2.282 . S
Mn73 O97 2.215 . S
Mn73 O99 2.117 . S
C74 O96 1.234 . S
C74 O97 1.283 . S
C75 O87 1.281 . S
C75 O88 1.236 . S
C76 O98 1.240 . S
C76 O99 1.264 . S
O77 Mn72 2.095 . S
O77 C86 1.250 . S
O78 Mn73 2.121 . S
O78 C86 1.258 . S
C79 N80 1.326 . S
C79 C83 1.460 . S
C79 H85 0.929 . S
N80 Mn73 2.257 . S
N80 C79 1.326 . S
N80 C84 1.362 . S
C81 C82 1.258 . S
C81 C84 1.431 . S
C81 C101 1.449 . S
C82 C81 1.258 . S
C82 C83 1.477 . S
C82 H102 0.931 . S
C83 C79 1.460 . S
C83 C82 1.477 . S
C83 H103 0.930 . S
C84 N80 1.362 . S
C84 C81 1.431 . S
C84 C94 1.476 . S
H85 C79 0.929 . S
C86 O77 1.250 . S
C86 O78 1.258 . S
O87 Mn72 2.162 . S
O87 C75 1.281 . S
O88 Mn72 2.297 . S
O88 C75 1.236 . S
N89 Mn73 2.282 . S
N89 C90 1.328 . S
N89 C94 1.318 . S
C90 N89 1.328 . S
C90 C91 1.457 . S
C90 H95 0.929 . S
C91 C90 1.457 . S
C91 C92 1.291 . S
C91 H104 0.931 . S
C92 C91 1.291 . S
C92 C93 1.373 . S
C92 H105 0.929 . S
C93 C92 1.373 . S
C93 C94 1.396 . S
C93 C100 1.403 . S
C94 C84 1.476 . S
C94 N89 1.318 . S
C94 C93 1.396 . S
H95 C90 0.929 . S
O96 Mn72 2.385 . S
O96 C74 1.234 . S
O97 Mn72 2.209 . S
O97 Mn73 2.215 . S
O97 C74 1.283 . S
O98 Mn72 2.094 . S
O98 C76 1.240 . S
O99 Mn73 2.117 . S
O99 C76 1.264 . S
C100 C93 1.403 . S
C100 C101 1.399 . S
C100 H106 0.929 . S
C101 C81 1.449 . S
C101 C100 1.399 . S
C101 H107 0.930 . S
H102 C82 0.931 . S
H103 C83 0.930 . S
H104 C91 0.931 . S
H105 C92 0.929 . S
H106 C100 0.929 . S
H107 C101 0.930 . S
Mn108 O113 2.095 . S
Mn108 O123 2.162 . S
Mn108 O124 2.297 . S
Mn108 O132 2.385 . S
Mn108 O133 2.209 . S
Mn108 O134 2.094 . S
Mn109 O114 2.121 . S
Mn109 N116 2.257 . S
Mn109 N125 2.282 . S
Mn109 O133 2.215 . S
Mn109 O135 2.117 . S
C110 O132 1.234 . S
C110 O133 1.283 . S
C111 O123 1.281 . S
C111 O124 1.236 . S
C112 O134 1.240 . S
C112 O135 1.264 . S
O113 Mn108 2.095 . S
O113 C122 1.250 . S
O114 Mn109 2.121 . S
O114 C122 1.258 . S
C115 N116 1.326 . S
C115 C119 1.460 . S
C115 H121 0.929 . S
N116 Mn109 2.257 . S
N116 C115 1.326 . S
N116 C120 1.362 . S
C117 C118 1.258 . S
C117 C120 1.431 . S
C117 C137 1.449 . S
C118 C117 1.258 . S
C118 C119 1.477 . S
C118 H138 0.931 . S
C119 C115 1.460 . S
C119 C118 1.477 . S
C119 H139 0.930 . S
C120 N116 1.362 . S
C120 C117 1.431 . S
C120 C130 1.476 . S
H121 C115 0.929 . S
C122 O113 1.250 . S
C122 O114 1.258 . S
O123 Mn108 2.162 . S
O123 C111 1.281 . S
O124 Mn108 2.297 . S
O124 C111 1.236 . S
N125 Mn109 2.282 . S
N125 C126 1.328 . S
N125 C130 1.318 . S
C126 N125 1.328 . S
C126 C127 1.457 . S
C126 H131 0.929 . S
C127 C126 1.457 . S
C127 C128 1.291 . S
C127 H140 0.931 . S
C128 C127 1.291 . S
C128 C129 1.373 . S
C128 H141 0.929 . S
C129 C128 1.373 . S
C129 C130 1.396 . S
C129 C136 1.403 . S
C130 C120 1.476 . S
C130 N125 1.318 . S
C130 C129 1.396 . S
H131 C126 0.929 . S
O132 Mn108 2.385 . S
O132 C110 1.234 . S
O133 Mn108 2.209 . S
O133 Mn109 2.215 . S
O133 C110 1.283 . S
O134 Mn108 2.094 . S
O134 C112 1.240 . S
O135 Mn109 2.117 . S
O135 C112 1.264 . S
C136 C129 1.403 . S
C136 C137 1.399 . S
C136 H142 0.929 . S
C137 C117 1.449 . S
C137 C136 1.399 . S
C137 H143 0.930 . S
H138 C118 0.931 . S
H139 C119 0.930 . S
H140 C127 0.931 . S
H141 C128 0.929 . S
H142 C136 0.929 . S
H143 C137 0.930 . S
Mn144 O149 2.095 . S
Mn144 O159 2.162 . S
Mn144 O160 2.297 . S
Mn144 O168 2.385 . S
Mn144 O169 2.209 . S
Mn144 O170 2.094 . S
Mn145 O150 2.121 . S
Mn145 N152 2.257 . S
Mn145 N161 2.282 . S
Mn145 O169 2.215 . S
Mn145 O171 2.117 . S
C146 O168 1.234 . S
C146 O169 1.283 . S
C147 O159 1.281 . S
C147 O160 1.236 . S
C148 O170 1.240 . S
C148 O171 1.264 . S
O149 Mn144 2.095 . S
O149 C158 1.250 . S
O150 Mn145 2.121 . S
O150 C158 1.258 . S
C151 N152 1.326 . S
C151 C155 1.460 . S
C151 H157 0.929 . S
N152 Mn145 2.257 . S
N152 C151 1.326 . S
N152 C156 1.362 . S
C153 C154 1.258 . S
C153 C156 1.431 . S
C153 C173 1.449 . S
C154 C153 1.258 . S
C154 C155 1.477 . S
C154 H174 0.931 . S
C155 C151 1.460 . S
C155 C154 1.477 . S
C155 H175 0.930 . S
C156 N152 1.362 . S
C156 C153 1.431 . S
C156 C166 1.476 . S
H157 C151 0.929 . S
C158 O149 1.250 . S
C158 O150 1.258 . S
O159 Mn144 2.162 . S
O159 C147 1.281 . S
O160 Mn144 2.297 . S
O160 C147 1.236 . S
N161 Mn145 2.282 . S
N161 C162 1.328 1_455 S
N161 C166 1.318 . S
C162 N161 1.328 1_655 S
C162 C163 1.457 . S
C162 H167 0.929 . S
C163 C162 1.457 . S
C163 C164 1.291 . S
C163 H176 0.931 . S
C164 C163 1.291 . S
C164 C165 1.373 . S
C164 H177 0.929 . S
C165 C164 1.373 . S
C165 C166 1.396 1_655 S
C165 C172 1.403 . S
C166 C156 1.476 . S
C166 N161 1.318 . S
C166 C165 1.396 1_455 S
H167 C162 0.929 . S
O168 Mn144 2.385 . S
O168 C146 1.234 . S
O169 Mn144 2.209 . S
O169 Mn145 2.215 . S
O169 C146 1.283 . S
O170 Mn144 2.094 . S
O170 C148 1.240 . S
O171 Mn145 2.117 . S
O171 C148 1.264 . S
C172 C165 1.403 . S
C172 C173 1.399 1_655 S
C172 H178 0.929 . S
C173 C153 1.449 . S
C173 C172 1.399 1_455 S
C173 H179 0.930 . S
H174 C154 0.931 . S
H175 C155 0.930 . S
H176 C163 0.931 . S
H177 C164 0.929 . S
H178 C172 0.929 . S
H179 C173 0.930 . S
Mn180 O185 2.095 . S
Mn180 O195 2.162 . S
Mn180 O196 2.297 . S
Mn180 O204 2.385 . S
Mn180 O205 2.209 . S
Mn180 O206 2.094 . S
Mn181 O186 2.121 . S
Mn181 N188 2.257 . S
Mn181 N197 2.282 . S
Mn181 O205 2.215 . S
Mn181 O207 2.117 . S
C182 O204 1.234 . S
C182 O205 1.283 . S
C183 O195 1.281 . S
C183 O196 1.236 . S
C184 O206 1.240 . S
C184 O207 1.264 . S
O185 Mn180 2.095 . S
O185 C194 1.250 . S
O186 Mn181 2.121 . S
O186 C194 1.258 . S
C187 N188 1.326 . S
C187 C191 1.460 . S
C187 H193 0.929 . S
N188 Mn181 2.257 . S
N188 C187 1.326 . S
N188 C192 1.362 . S
C189 C190 1.258 . S
C189 C192 1.431 . S
C189 C209 1.449 . S
C190 C189 1.258 . S
C190 C191 1.477 . S
C190 H210 0.931 . S
C191 C187 1.460 . S
C191 C190 1.477 . S
C191 H211 0.930 . S
C192 N188 1.362 . S
C192 C189 1.431 . S
C192 C202 1.476 . S
H193 C187 0.929 . S
C194 O185 1.250 . S
C194 O186 1.258 . S
O195 Mn180 2.162 . S
O195 C183 1.281 . S
O196 Mn180 2.297 . S
O196 C183 1.236 . S
N197 Mn181 2.282 . S
N197 C198 1.328 . S
N197 C202 1.318 . S
C198 N197 1.328 . S
C198 C199 1.457 . S
C198 H203 0.929 . S
C199 C198 1.457 . S
C199 C200 1.291 . S
C199 H212 0.931 . S
C200 C199 1.291 . S
C200 C201 1.373 . S
C200 H213 0.929 . S
C201 C200 1.373 . S
C201 C202 1.396 . S
C201 C208 1.403 . S
C202 C192 1.476 . S
C202 N197 1.318 . S
C202 C201 1.396 . S
H203 C198 0.929 . S
O204 Mn180 2.385 . S
O204 C182 1.234 . S
O205 Mn180 2.209 . S
O205 Mn181 2.215 . S
O205 C182 1.283 . S
O206 Mn180 2.094 . S
O206 C184 1.240 . S
O207 Mn181 2.117 . S
O207 C184 1.264 . S
C208 C201 1.403 . S
C208 C209 1.399 . S
C208 H214 0.929 . S
C209 C189 1.449 . S
C209 C208 1.399 . S
C209 H215 0.930 . S
H210 C190 0.931 . S
H211 C191 0.930 . S
H212 C199 0.931 . S
H213 C200 0.929 . S
H214 C208 0.929 . S
H215 C209 0.930 . S
Mn216 O221 2.095 . S
Mn216 O231 2.162 . S
Mn216 O232 2.297 . S
Mn216 O240 2.385 . S
Mn216 O241 2.209 . S
Mn216 O242 2.094 . S
Mn217 O222 2.121 1_554 S
Mn217 N224 2.257 . S
Mn217 N233 2.282 . S
Mn217 O241 2.215 1_554 S
Mn217 O243 2.117 1_554 S
C218 O240 1.234 . S
C218 O241 1.283 . S
C219 O231 1.281 . S
C219 O232 1.236 . S
C220 O242 1.240 . S
C220 O243 1.264 . S
O221 Mn216 2.095 . S
O221 C230 1.250 . S
O222 Mn217 2.121 1_556 S
O222 C230 1.258 . S
C223 N224 1.326 . S
C223 C227 1.460 . S
C223 H229 0.929 . S
N224 Mn217 2.257 . S
N224 C223 1.326 . S
N224 C228 1.362 . S
C225 C226 1.258 . S
C225 C228 1.431 . S
C225 C245 1.449 . S
C226 C225 1.258 . S
C226 C227 1.477 . S
C226 H246 0.931 . S
C227 C223 1.460 . S
C227 C226 1.477 . S
C227 H247 0.930 . S
C228 N224 1.362 . S
C228 C225 1.431 . S
C228 C238 1.476 . S
H229 C223 0.929 . S
C230 O221 1.250 . S
C230 O222 1.258 . S
O231 Mn216 2.162 . S
O231 C219 1.281 . S
O232 Mn216 2.297 . S
O232 C219 1.236 . S
N233 Mn217 2.282 . S
N233 C234 1.328 . S
N233 C238 1.318 . S
C234 N233 1.328 . S
C234 C235 1.457 . S
C234 H239 0.929 . S
C235 C234 1.457 . S
C235 C236 1.291 . S
C235 H248 0.931 . S
C236 C235 1.291 . S
C236 C237 1.373 . S
C236 H249 0.929 . S
C237 C236 1.373 . S
C237 C238 1.396 . S
C237 C244 1.403 . S
C238 C228 1.476 . S
C238 N233 1.318 . S
C238 C237 1.396 . S
H239 C234 0.929 . S
O240 Mn216 2.385 . S
O240 C218 1.234 . S
O241 Mn216 2.209 . S
O241 Mn217 2.215 1_556 S
O241 C218 1.283 . S
O242 Mn216 2.094 . S
O242 C220 1.240 . S
O243 Mn217 2.117 1_556 S
O243 C220 1.264 . S
C244 C237 1.403 . S
C244 C245 1.399 . S
C244 H250 0.929 . S
C245 C225 1.449 . S
C245 C244 1.399 . S
C245 H251 0.930 . S
H246 C226 0.931 . S
H247 C227 0.930 . S
H248 C235 0.931 . S
H249 C236 0.929 . S
H250 C244 0.929 . S
H251 C245 0.930 . S
Mn252 O257 2.095 . S
Mn252 O267 2.162 . S
Mn252 O268 2.297 . S
Mn252 O276 2.385 . S
Mn252 O277 2.209 . S
Mn252 O278 2.094 . S
Mn253 O258 2.121 . S
Mn253 N260 2.257 . S
Mn253 N269 2.282 . S
Mn253 O277 2.215 . S
Mn253 O279 2.117 . S
C254 O276 1.234 . S
C254 O277 1.283 . S
C255 O267 1.281 . S
C255 O268 1.236 . S
C256 O278 1.240 . S
C256 O279 1.264 . S
O257 Mn252 2.095 . S
O257 C266 1.250 . S
O258 Mn253 2.121 . S
O258 C266 1.258 . S
C259 N260 1.326 . S
C259 C263 1.460 1_655 S
C259 H265 0.929 . S
N260 Mn253 2.257 . S
N260 C259 1.326 . S
N260 C264 1.362 . S
C261 C262 1.258 . S
C261 C264 1.431 1_455 S
C261 C281 1.449 . S
C262 C261 1.258 . S
C262 C263 1.477 . S
C262 H282 0.931 . S
C263 C259 1.460 1_455 S
C263 C262 1.477 . S
C263 H283 0.930 . S
C264 N260 1.362 . S
C264 C261 1.431 1_655 S
C264 C274 1.476 . S
H265 C259 0.929 . S
C266 O257 1.250 . S
C266 O258 1.258 . S
O267 Mn252 2.162 . S
O267 C255 1.281 . S
O268 Mn252 2.297 . S
O268 C255 1.236 . S
N269 Mn253 2.282 . S
N269 C270 1.328 . S
N269 C274 1.318 . S
C270 N269 1.328 . S
C270 C271 1.457 . S
C270 H275 0.929 . S
C271 C270 1.457 . S
C271 C272 1.291 . S
C271 H284 0.931 . S
C272 C271 1.291 . S
C272 C273 1.373 . S
C272 H285 0.929 . S
C273 C272 1.373 . S
C273 C274 1.396 . S
C273 C280 1.403 1_655 S
C274 C264 1.476 . S
C274 N269 1.318 . S
C274 C273 1.396 . S
H275 C270 0.929 . S
O276 Mn252 2.385 . S
O276 C254 1.234 . S
O277 Mn252 2.209 . S
O277 Mn253 2.215 . S
O277 C254 1.283 . S
O278 Mn252 2.094 . S
O278 C256 1.240 . S
O279 Mn253 2.117 . S
O279 C256 1.264 . S
C280 C273 1.403 1_455 S
C280 C281 1.399 . S
C280 H286 0.929 . S
C281 C261 1.449 . S
C281 C280 1.399 . S
C281 H287 0.930 . S
H282 C262 0.931 . S
H283 C263 0.930 . S
H284 C271 0.931 . S
H285 C272 0.929 . S
H286 C280 0.929 . S
H287 C281 0.930 . S
Mn288 O293 2.095 . S
Mn288 O303 2.162 . S
Mn288 O304 2.297 . S
Mn288 O312 2.385 . S
Mn288 O313 2.209 . S
Mn288 O314 2.094 . S
Mn289 O294 2.121 1_554 S
Mn289 N296 2.257 . S
Mn289 N305 2.282 . S
Mn289 O313 2.215 1_554 S
Mn289 O315 2.117 1_554 S
C290 O312 1.234 . S
C290 O313 1.283 . S
C291 O303 1.281 . S
C291 O304 1.236 . S
C292 O314 1.240 . S
C292 O315 1.264 . S
O293 Mn288 2.095 . S
O293 C302 1.250 . S
O294 Mn289 2.121 1_556 S
O294 C302 1.258 . S
C295 N296 1.326 . S
C295 C299 1.460 . S
C295 H301 0.929 . S
N296 Mn289 2.257 . S
N296 C295 1.326 . S
N296 C300 1.362 . S
C297 C298 1.258 . S
C297 C300 1.431 . S
C297 C317 1.449 . S
C298 C297 1.258 . S
C298 C299 1.477 . S
C298 H318 0.931 . S
C299 C295 1.460 . S
C299 C298 1.477 . S
C299 H319 0.930 . S
C300 N296 1.362 . S
C300 C297 1.431 . S
C300 C310 1.476 . S
H301 C295 0.929 . S
C302 O293 1.250 . S
C302 O294 1.258 . S
O303 Mn288 2.162 . S
O303 C291 1.281 . S
O304 Mn288 2.297 . S
O304 C291 1.236 . S
N305 Mn289 2.282 . S
N305 C306 1.328 1_655 S
N305 C310 1.318 . S
C306 N305 1.328 1_455 S
C306 C307 1.457 . S
C306 H311 0.929 . S
C307 C306 1.457 . S
C307 C308 1.291 . S
C307 H320 0.931 . S
C308 C307 1.291 . S
C308 C309 1.373 . S
C308 H321 0.929 . S
C309 C308 1.373 . S
C309 C310 1.396 1_455 S
C309 C316 1.403 . S
C310 C300 1.476 . S
C310 N305 1.318 . S
C310 C309 1.396 1_655 S
H311 C306 0.929 . S
O312 Mn288 2.385 . S
O312 C290 1.234 . S
O313 Mn288 2.209 . S
O313 Mn289 2.215 1_556 S
O313 C290 1.283 . S
O314 Mn288 2.094 . S
O314 C292 1.240 . S
O315 Mn289 2.117 1_556 S
O315 C292 1.264 . S
C316 C309 1.403 . S
C316 C317 1.399 1_455 S
C316 H322 0.929 . S
C317 C297 1.449 . S
C317 C316 1.399 1_655 S
C317 H323 0.930 . S
H318 C298 0.931 . S
H319 C299 0.930 . S
H320 C307 0.931 . S
H321 C308 0.929 . S
H322 C316 0.929 . S
H323 C317 0.930 . S
Mn324 O329 2.095 . S
Mn324 O339 2.162 . S
Mn324 O340 2.297 . S
Mn324 O348 2.385 . S
Mn324 O349 2.209 . S
Mn324 O350 2.094 . S
Mn325 O330 2.121 . S
Mn325 N332 2.257 . S
Mn325 N341 2.282 . S
Mn325 O349 2.215 . S
Mn325 O351 2.117 . S
C326 O348 1.234 . S
C326 O349 1.283 . S
C327 O339 1.281 . S
C327 O340 1.236 . S
C328 O350 1.240 . S
C328 O351 1.264 . S
O329 Mn324 2.095 . S
O329 C338 1.250 . S
O330 Mn325 2.121 . S
O330 C338 1.258 . S
C331 N332 1.326 . S
C331 C335 1.460 1_455 S
C331 H337 0.929 . S
N332 Mn325 2.257 . S
N332 C331 1.326 . S
N332 C336 1.362 . S
C333 C334 1.258 . S
C333 C336 1.431 1_655 S
C333 C353 1.449 . S
C334 C333 1.258 . S
C334 C335 1.477 . S
C334 H354 0.931 . S
C335 C331 1.460 1_655 S
C335 C334 1.477 . S
C335 H355 0.930 . S
C336 N332 1.362 . S
C336 C333 1.431 1_455 S
C336 C346 1.476 . S
H337 C331 0.929 . S
C338 O329 1.250 . S
C338 O330 1.258 . S
O339 Mn324 2.162 . S
O339 C327 1.281 . S
O340 Mn324 2.297 . S
O340 C327 1.236 . S
N341 Mn325 2.282 . S
N341 C342 1.328 . S
N341 C346 1.318 . S
C342 N341 1.328 . S
C342 C343 1.457 . S
C342 H347 0.929 . S
C343 C342 1.457 . S
C343 C344 1.291 . S
C343 H356 0.931 . S
C344 C343 1.291 . S
C344 C345 1.373 . S
C344 H357 0.929 . S
C345 C344 1.373 . S
C345 C346 1.396 . S
C345 C352 1.403 1_455 S
C346 C336 1.476 . S
C346 N341 1.318 . S
C346 C345 1.396 . S
H347 C342 0.929 . S
O348 Mn324 2.385 . S
O348 C326 1.234 . S
O349 Mn324 2.209 . S
O349 Mn325 2.215 . S
O349 C326 1.283 . S
O350 Mn324 2.094 . S
O350 C328 1.240 . S
O351 Mn325 2.117 . S
O351 C328 1.264 . S
C352 C345 1.403 1_655 S
C352 C353 1.399 . S
C352 H358 0.929 . S
C353 C333 1.449 . S
C353 C352 1.399 . S
C353 H359 0.930 . S
H354 C334 0.931 . S
H355 C335 0.930 . S
H356 C343 0.931 . S
H357 C344 0.929 . S
H358 C352 0.929 . S
H359 C353 0.930 . S
Mn360 O365 2.095 . S
Mn360 O375 2.162 . S
Mn360 O376 2.297 . S
Mn360 O384 2.385 . S
Mn360 O385 2.209 . S
Mn360 O386 2.094 . S
Mn361 O366 2.121 . S
Mn361 N368 2.257 . S
Mn361 N377 2.282 . S
Mn361 O385 2.215 . S
Mn361 O387 2.117 . S
C362 O384 1.234 . S
C362 O385 1.283 . S
C363 O375 1.281 . S
C363 O376 1.236 . S
C364 O386 1.240 . S
C364 O387 1.264 . S
O365 Mn360 2.095 . S
O365 C374 1.250 . S
O366 Mn361 2.121 . S
O366 C374 1.258 . S
C367 N368 1.326 . S
C367 C371 1.460 . S
C367 H373 0.929 . S
N368 Mn361 2.257 . S
N368 C367 1.326 . S
N368 C372 1.362 . S
C369 C370 1.258 . S
C369 C372 1.431 . S
C369 C389 1.449 . S
C370 C369 1.258 . S
C370 C371 1.477 . S
C370 H390 0.931 . S
C371 C367 1.460 . S
C371 C370 1.477 . S
C371 H391 0.930 . S
C372 N368 1.362 . S
C372 C369 1.431 . S
C372 C382 1.476 . S
H373 C367 0.929 . S
C374 O365 1.250 . S
C374 O366 1.258 . S
O375 Mn360 2.162 . S
O375 C363 1.281 . S
O376 Mn360 2.297 . S
O376 C363 1.236 . S
N377 Mn361 2.282 . S
N377 C378 1.328 . S
N377 C382 1.318 . S
C378 N377 1.328 . S
C378 C379 1.457 . S
C378 H383 0.929 . S
C379 C378 1.457 . S
C379 C380 1.291 . S
C379 H392 0.931 . S
C380 C379 1.291 . S
C380 C381 1.373 . S
C380 H393 0.929 . S
C381 C380 1.373 . S
C381 C382 1.396 . S
C381 C388 1.403 . S
C382 C372 1.476 . S
C382 N377 1.318 . S
C382 C381 1.396 . S
H383 C378 0.929 . S
O384 Mn360 2.385 . S
O384 C362 1.234 . S
O385 Mn360 2.209 . S
O385 Mn361 2.215 . S
O385 C362 1.283 . S
O386 Mn360 2.094 . S
O386 C364 1.240 . S
O387 Mn361 2.117 . S
O387 C364 1.264 . S
C388 C381 1.403 . S
C388 C389 1.399 . S
C388 H394 0.929 . S
C389 C369 1.449 . S
C389 C388 1.399 . S
C389 H395 0.930 . S
H390 C370 0.931 . S
H391 C371 0.930 . S
H392 C379 0.931 . S
H393 C380 0.929 . S
H394 C388 0.929 . S
H395 C389 0.930 . S
Mn396 O401 2.095 . S
Mn396 O411 2.162 . S
Mn396 O412 2.297 . S
Mn396 O420 2.385 . S
Mn396 O421 2.209 . S
Mn396 O422 2.094 . S
Mn397 O402 2.121 . S
Mn397 N404 2.257 . S
Mn397 N413 2.282 . S
Mn397 O421 2.215 . S
Mn397 O423 2.117 . S
C398 O420 1.234 . S
C398 O421 1.283 . S
C399 O411 1.281 . S
C399 O412 1.236 . S
C400 O422 1.240 . S
C400 O423 1.264 . S
O401 Mn396 2.095 . S
O401 C410 1.250 . S
O402 Mn397 2.121 . S
O402 C410 1.258 . S
C403 N404 1.326 . S
C403 C407 1.460 . S
C403 H409 0.929 . S
N404 Mn397 2.257 . S
N404 C403 1.326 . S
N404 C408 1.362 . S
C405 C406 1.258 . S
C405 C408 1.431 . S
C405 C425 1.449 . S
C406 C405 1.258 . S
C406 C407 1.477 . S
C406 H426 0.931 . S
C407 C403 1.460 . S
C407 C406 1.477 . S
C407 H427 0.930 . S
C408 N404 1.362 . S
C408 C405 1.431 . S
C408 C418 1.476 . S
H409 C403 0.929 . S
C410 O401 1.250 . S
C410 O402 1.258 . S
O411 Mn396 2.162 . S
O411 C399 1.281 . S
O412 Mn396 2.297 . S
O412 C399 1.236 . S
N413 Mn397 2.282 . S
N413 C414 1.328 . S
N413 C418 1.318 . S
C414 N413 1.328 . S
C414 C415 1.457 . S
C414 H419 0.929 . S
C415 C414 1.457 . S
C415 C416 1.291 . S
C415 H428 0.931 . S
C416 C415 1.291 . S
C416 C417 1.373 . S
C416 H429 0.929 . S
C417 C416 1.373 . S
C417 C418 1.396 . S
C417 C424 1.403 . S
C418 C408 1.476 . S
C418 N413 1.318 . S
C418 C417 1.396 . S
H419 C414 0.929 . S
O420 Mn396 2.385 . S
O420 C398 1.234 . S
O421 Mn396 2.209 . S
O421 Mn397 2.215 . S
O421 C398 1.283 . S
O422 Mn396 2.094 . S
O422 C400 1.240 . S
O423 Mn397 2.117 . S
O423 C400 1.264 . S
C424 C417 1.403 . S
C424 C425 1.399 . S
C424 H430 0.929 . S
C425 C405 1.449 . S
C425 C424 1.399 . S
C425 H431 0.930 . S
H426 C406 0.931 . S
H427 C407 0.930 . S
H428 C415 0.931 . S
H429 C416 0.929 . S
H430 C424 0.929 . S
H431 C425 0.930 . S
Mn432 O437 2.095 . S
Mn432 O447 2.162 . S
Mn432 O448 2.297 . S
Mn432 O456 2.385 . S
Mn432 O457 2.209 . S
Mn432 O458 2.094 . S
Mn433 O438 2.121 . S
Mn433 N440 2.257 . S
Mn433 N449 2.282 . S
Mn433 O457 2.215 . S
Mn433 O459 2.117 . S
C434 O456 1.234 . S
C434 O457 1.283 . S
C435 O447 1.281 . S
C435 O448 1.236 . S
C436 O458 1.240 . S
C436 O459 1.264 . S
O437 Mn432 2.095 . S
O437 C446 1.250 . S
O438 Mn433 2.121 . S
O438 C446 1.258 . S
C439 N440 1.326 . S
C439 C443 1.460 . S
C439 H445 0.929 . S
N440 Mn433 2.257 . S
N440 C439 1.326 . S
N440 C444 1.362 . S
C441 C442 1.258 . S
C441 C444 1.431 . S
C441 C461 1.449 . S
C442 C441 1.258 . S
C442 C443 1.477 . S
C442 H462 0.931 . S
C443 C439 1.460 . S
C443 C442 1.477 . S
C443 H463 0.930 . S
C444 N440 1.362 . S
C444 C441 1.431 . S
C444 C454 1.476 . S
H445 C439 0.929 . S
C446 O437 1.250 . S
C446 O438 1.258 . S
O447 Mn432 2.162 . S
O447 C435 1.281 . S
O448 Mn432 2.297 . S
O448 C435 1.236 . S
N449 Mn433 2.282 . S
N449 C450 1.328 1_655 S
N449 C454 1.318 . S
C450 N449 1.328 1_455 S
C450 C451 1.457 . S
C450 H455 0.929 . S
C451 C450 1.457 . S
C451 C452 1.291 . S
C451 H464 0.931 . S
C452 C451 1.291 . S
C452 C453 1.373 . S
C452 H465 0.929 . S
C453 C452 1.373 . S
C453 C454 1.396 1_455 S
C453 C460 1.403 . S
C454 C444 1.476 . S
C454 N449 1.318 . S
C454 C453 1.396 1_655 S
H455 C450 0.929 . S
O456 Mn432 2.385 . S
O456 C434 1.234 . S
O457 Mn432 2.209 . S
O457 Mn433 2.215 . S
O457 C434 1.283 . S
O458 Mn432 2.094 . S
O458 C436 1.240 . S
O459 Mn433 2.117 . S
O459 C436 1.264 . S
C460 C453 1.403 . S
C460 C461 1.399 1_455 S
C460 H466 0.929 . S
C461 C441 1.449 . S
C461 C460 1.399 1_655 S
C461 H467 0.930 . S
H462 C442 0.931 . S
H463 C443 0.930 . S
H464 C451 0.931 . S
H465 C452 0.929 . S
H466 C460 0.929 . S
H467 C461 0.930 . S
Mn468 O473 2.095 . S
Mn468 O483 2.162 . S
Mn468 O484 2.297 . S
Mn468 O492 2.385 . S
Mn468 O493 2.209 . S
Mn468 O494 2.094 . S
Mn469 O474 2.121 . S
Mn469 N476 2.257 . S
Mn469 N485 2.282 . S
Mn469 O493 2.215 . S
Mn469 O495 2.117 . S
C470 O492 1.234 . S
C470 O493 1.283 . S
C471 O483 1.281 . S
C471 O484 1.236 . S
C472 O494 1.240 . S
C472 O495 1.264 . S
O473 Mn468 2.095 . S
O473 C482 1.250 . S
O474 Mn469 2.121 . S
O474 C482 1.258 . S
C475 N476 1.326 . S
C475 C479 1.460 . S
C475 H481 0.929 . S
N476 Mn469 2.257 . S
N476 C475 1.326 . S
N476 C480 1.362 . S
C477 C478 1.258 . S
C477 C480 1.431 . S
C477 C497 1.449 . S
C478 C477 1.258 . S
C478 C479 1.477 . S
C478 H498 0.931 . S
C479 C475 1.460 . S
C479 C478 1.477 . S
C479 H499 0.930 . S
C480 N476 1.362 . S
C480 C477 1.431 . S
C480 C490 1.476 . S
H481 C475 0.929 . S
C482 O473 1.250 . S
C482 O474 1.258 . S
O483 Mn468 2.162 . S
O483 C471 1.281 . S
O484 Mn468 2.297 . S
O484 C471 1.236 . S
N485 Mn469 2.282 . S
N485 C486 1.328 . S
N485 C490 1.318 . S
C486 N485 1.328 . S
C486 C487 1.457 . S
C486 H491 0.929 . S
C487 C486 1.457 . S
C487 C488 1.291 . S
C487 H500 0.931 . S
C488 C487 1.291 . S
C488 C489 1.373 . S
C488 H501 0.929 . S
C489 C488 1.373 . S
C489 C490 1.396 . S
C489 C496 1.403 . S
C490 C480 1.476 . S
C490 N485 1.318 . S
C490 C489 1.396 . S
H491 C486 0.929 . S
O492 Mn468 2.385 . S
O492 C470 1.234 . S
O493 Mn468 2.209 . S
O493 Mn469 2.215 . S
O493 C470 1.283 . S
O494 Mn468 2.094 . S
O494 C472 1.240 . S
O495 Mn469 2.117 . S
O495 C472 1.264 . S
C496 C489 1.403 . S
C496 C497 1.399 . S
C496 H502 0.929 . S
C497 C477 1.449 . S
C497 C496 1.399 . S
C497 H503 0.930 . S
H498 C478 0.931 . S
H499 C479 0.930 . S
H500 C487 0.931 . S
H501 C488 0.929 . S
H502 C496 0.929 . S
H503 C497 0.930 . S
Mn504 O509 2.095 . S
Mn504 O519 2.162 . S
Mn504 O520 2.297 . S
Mn504 O528 2.385 . S
Mn504 O529 2.209 . S
Mn504 O530 2.094 . S
Mn505 O510 2.121 1_556 S
Mn505 N512 2.257 . S
Mn505 N521 2.282 . S
Mn505 O529 2.215 1_556 S
Mn505 O531 2.117 1_556 S
C506 O528 1.234 . S
C506 O529 1.283 . S
C507 O519 1.281 . S
C507 O520 1.236 . S
C508 O530 1.240 . S
C508 O531 1.264 . S
O509 Mn504 2.095 . S
O509 C518 1.250 . S
O510 Mn505 2.121 1_554 S
O510 C518 1.258 . S
C511 N512 1.326 . S
C511 C515 1.460 . S
C511 H517 0.929 . S
N512 Mn505 2.257 . S
N512 C511 1.326 . S
N512 C516 1.362 . S
C513 C514 1.258 . S
C513 C516 1.431 . S
C513 C533 1.449 . S
C514 C513 1.258 . S
C514 C515 1.477 . S
C514 H534 0.931 . S
C515 C511 1.460 . S
C515 C514 1.477 . S
C515 H535 0.930 . S
C516 N512 1.362 . S
C516 C513 1.431 . S
C516 C526 1.476 . S
H517 C511 0.929 . S
C518 O509 1.250 . S
C518 O510 1.258 . S
O519 Mn504 2.162 . S
O519 C507 1.281 . S
O520 Mn504 2.297 . S
O520 C507 1.236 . S
N521 Mn505 2.282 . S
N521 C522 1.328 . S
N521 C526 1.318 . S
C522 N521 1.328 . S
C522 C523 1.457 . S
C522 H527 0.929 . S
C523 C522 1.457 . S
C523 C524 1.291 . S
C523 H536 0.931 . S
C524 C523 1.291 . S
C524 C525 1.373 . S
C524 H537 0.929 . S
C525 C524 1.373 . S
C525 C526 1.396 . S
C525 C532 1.403 . S
C526 C516 1.476 . S
C526 N521 1.318 . S
C526 C525 1.396 . S
H527 C522 0.929 . S
O528 Mn504 2.385 . S
O528 C506 1.234 . S
O529 Mn504 2.209 . S
O529 Mn505 2.215 1_554 S
O529 C506 1.283 . S
O530 Mn504 2.094 . S
O530 C508 1.240 . S
O531 Mn505 2.117 1_554 S
O531 C508 1.264 . S
C532 C525 1.403 . S
C532 C533 1.399 . S
C532 H538 0.929 . S
C533 C513 1.449 . S
C533 C532 1.399 . S
C533 H539 0.930 . S
H534 C514 0.931 . S
H535 C515 0.930 . S
H536 C523 0.931 . S
H537 C524 0.929 . S
H538 C532 0.929 . S
H539 C533 0.930 . S
Mn540 O545 2.095 . S
Mn540 O555 2.162 . S
Mn540 O556 2.297 . S
Mn540 O564 2.385 . S
Mn540 O565 2.209 . S
Mn540 O566 2.094 . S
Mn541 O546 2.121 . S
Mn541 N548 2.257 . S
Mn541 N557 2.282 . S
Mn541 O565 2.215 . S
Mn541 O567 2.117 . S
C542 O564 1.234 . S
C542 O565 1.283 . S
C543 O555 1.281 . S
C543 O556 1.236 . S
C544 O566 1.240 . S
C544 O567 1.264 . S
O545 Mn540 2.095 . S
O545 C554 1.250 . S
O546 Mn541 2.121 . S
O546 C554 1.258 . S
C547 N548 1.326 . S
C547 C551 1.460 1_455 S
C547 H553 0.929 . S
N548 Mn541 2.257 . S
N548 C547 1.326 . S
N548 C552 1.362 . S
C549 C550 1.258 . S
C549 C552 1.431 1_655 S
C549 C569 1.449 . S
C550 C549 1.258 . S
C550 C551 1.477 . S
C550 H570 0.931 . S
C551 C547 1.460 1_655 S
C551 C550 1.477 . S
C551 H571 0.930 . S
C552 N548 1.362 . S
C552 C549 1.431 1_455 S
C552 C562 1.476 . S
H553 C547 0.929 . S
C554 O545 1.250 . S
C554 O546 1.258 . S
O555 Mn540 2.162 . S
O555 C543 1.281 . S
O556 Mn540 2.297 . S
O556 C543 1.236 . S
N557 Mn541 2.282 . S
N557 C558 1.328 . S
N557 C562 1.318 . S
C558 N557 1.328 . S
C558 C559 1.457 . S
C558 H563 0.929 . S
C559 C558 1.457 . S
C559 C560 1.291 . S
C559 H572 0.931 . S
C560 C559 1.291 . S
C560 C561 1.373 . S
C560 H573 0.929 . S
C561 C560 1.373 . S
C561 C562 1.396 . S
C561 C568 1.403 1_455 S
C562 C552 1.476 . S
C562 N557 1.318 . S
C562 C561 1.396 . S
H563 C558 0.929 . S
O564 Mn540 2.385 . S
O564 C542 1.234 . S
O565 Mn540 2.209 . S
O565 Mn541 2.215 . S
O565 C542 1.283 . S
O566 Mn540 2.094 . S
O566 C544 1.240 . S
O567 Mn541 2.117 . S
O567 C544 1.264 . S
C568 C561 1.403 1_655 S
C568 C569 1.399 . S
C568 H574 0.929 . S
C569 C549 1.449 . S
C569 C568 1.399 . S
C569 H575 0.930 . S
H570 C550 0.931 . S
H571 C551 0.930 . S
H572 C559 0.931 . S
H573 C560 0.929 . S
H574 C568 0.929 . S
H575 C569 0.930 . S
Mn576 O581 2.095 . S
Mn576 O591 2.162 . S
Mn576 O592 2.297 . S
Mn576 O600 2.385 . S
Mn576 O601 2.209 . S
Mn576 O602 2.094 . S
Mn577 O582 2.121 . S
Mn577 N584 2.257 . S
Mn577 N593 2.282 . S
Mn577 O601 2.215 . S
Mn577 O603 2.117 . S
C578 O600 1.234 . S
C578 O601 1.283 . S
C579 O591 1.281 . S
C579 O592 1.236 . S
C580 O602 1.240 . S
C580 O603 1.264 . S
O581 Mn576 2.095 . S
O581 C590 1.250 . S
O582 Mn577 2.121 . S
O582 C590 1.258 . S
C583 N584 1.326 . S
C583 C587 1.460 . S
C583 H589 0.929 . S
N584 Mn577 2.257 . S
N584 C583 1.326 . S
N584 C588 1.362 . S
C585 C586 1.258 . S
C585 C588 1.431 . S
C585 C605 1.449 . S
C586 C585 1.258 . S
C586 C587 1.477 . S
C586 H606 0.931 . S
C587 C583 1.460 . S
C587 C586 1.477 . S
C587 H607 0.930 . S
C588 N584 1.362 . S
C588 C585 1.431 . S
C588 C598 1.476 . S
H589 C583 0.929 . S
C590 O581 1.250 . S
C590 O582 1.258 . S
O591 Mn576 2.162 . S
O591 C579 1.281 . S
O592 Mn576 2.297 . S
O592 C579 1.236 . S
N593 Mn577 2.282 . S
N593 C594 1.328 . S
N593 C598 1.318 . S
C594 N593 1.328 . S
C594 C595 1.457 . S
C594 H599 0.929 . S
C595 C594 1.457 . S
C595 C596 1.291 . S
C595 H608 0.931 . S
C596 C595 1.291 . S
C596 C597 1.373 . S
C596 H609 0.929 . S
C597 C596 1.373 . S
C597 C598 1.396 . S
C597 C604 1.403 . S
C598 C588 1.476 . S
C598 N593 1.318 . S
C598 C597 1.396 . S
H599 C594 0.929 . S
O600 Mn576 2.385 . S
O600 C578 1.234 . S
O601 Mn576 2.209 . S
O601 Mn577 2.215 . S
O601 C578 1.283 . S
O602 Mn576 2.094 . S
O602 C580 1.240 . S
O603 Mn577 2.117 . S
O603 C580 1.264 . S
C604 C597 1.403 . S
C604 C605 1.399 . S
C604 H610 0.929 . S
C605 C585 1.449 . S
C605 C604 1.399 . S
C605 H611 0.930 . S
H606 C586 0.931 . S
H607 C587 0.930 . S
H608 C595 0.931 . S
H609 C596 0.929 . S
H610 C604 0.929 . S
H611 C605 0.930 . S
Mn612 O617 2.095 . S
Mn612 O627 2.162 . S
Mn612 O628 2.297 . S
Mn612 O636 2.385 . S
Mn612 O637 2.209 . S
Mn612 O638 2.094 . S
Mn613 O618 2.121 . S
Mn613 N620 2.257 . S
Mn613 N629 2.282 . S
Mn613 O637 2.215 . S
Mn613 O639 2.117 . S
C614 O636 1.234 . S
C614 O637 1.283 . S
C615 O627 1.281 . S
C615 O628 1.236 . S
C616 O638 1.240 . S
C616 O639 1.264 . S
O617 Mn612 2.095 . S
O617 C626 1.250 . S
O618 Mn613 2.121 . S
O618 C626 1.258 . S
C619 N620 1.326 . S
C619 C623 1.460 . S
C619 H625 0.929 . S
N620 Mn613 2.257 . S
N620 C619 1.326 . S
N620 C624 1.362 . S
C621 C622 1.258 . S
C621 C624 1.431 . S
C621 C641 1.449 . S
C622 C621 1.258 . S
C622 C623 1.477 . S
C622 H642 0.931 . S
C623 C619 1.460 . S
C623 C622 1.477 . S
C623 H643 0.930 . S
C624 N620 1.362 . S
C624 C621 1.431 . S
C624 C634 1.476 . S
H625 C619 0.929 . S
C626 O617 1.250 . S
C626 O618 1.258 . S
O627 Mn612 2.162 . S
O627 C615 1.281 . S
O628 Mn612 2.297 . S
O628 C615 1.236 . S
N629 Mn613 2.282 . S
N629 C630 1.328 . S
N629 C634 1.318 . S
C630 N629 1.328 . S
C630 C631 1.457 . S
C630 H635 0.929 . S
C631 C630 1.457 . S
C631 C632 1.291 . S
C631 H644 0.931 . S
C632 C631 1.291 . S
C632 C633 1.373 . S
C632 H645 0.929 . S
C633 C632 1.373 . S
C633 C634 1.396 . S
C633 C640 1.403 . S
C634 C624 1.476 . S
C634 N629 1.318 . S
C634 C633 1.396 . S
H635 C630 0.929 . S
O636 Mn612 2.385 . S
O636 C614 1.234 . S
O637 Mn612 2.209 . S
O637 Mn613 2.215 . S
O637 C614 1.283 . S
O638 Mn612 2.094 . S
O638 C616 1.240 . S
O639 Mn613 2.117 . S
O639 C616 1.264 . S
C640 C633 1.403 . S
C640 C641 1.399 . S
C640 H646 0.929 . S
C641 C621 1.449 . S
C641 C640 1.399 . S
C641 H647 0.930 . S
H642 C622 0.931 . S
H643 C623 0.930 . S
H644 C631 0.931 . S
H645 C632 0.929 . S
H646 C640 0.929 . S
H647 C641 0.930 . S
Mn648 O653 2.095 . S
Mn648 O663 2.162 . S
Mn648 O664 2.297 . S
Mn648 O672 2.385 . S
Mn648 O673 2.209 . S
Mn648 O674 2.094 . S
Mn649 O654 2.121 1_556 S
Mn649 N656 2.257 . S
Mn649 N665 2.282 . S
Mn649 O673 2.215 1_556 S
Mn649 O675 2.117 1_556 S
C650 O672 1.234 . S
C650 O673 1.283 . S
C651 O663 1.281 . S
C651 O664 1.236 . S
C652 O674 1.240 . S
C652 O675 1.264 . S
O653 Mn648 2.095 . S
O653 C662 1.250 . S
O654 Mn649 2.121 1_554 S
O654 C662 1.258 . S
C655 N656 1.326 . S
C655 C659 1.460 . S
C655 H661 0.929 . S
N656 Mn649 2.257 . S
N656 C655 1.326 . S
N656 C660 1.362 . S
C657 C658 1.258 . S
C657 C660 1.431 . S
C657 C677 1.449 . S
C658 C657 1.258 . S
C658 C659 1.477 . S
C658 H678 0.931 . S
C659 C655 1.460 . S
C659 C658 1.477 . S
C659 H679 0.930 . S
C660 N656 1.362 . S
C660 C657 1.431 . S
C660 C670 1.476 . S
H661 C655 0.929 . S
C662 O653 1.250 . S
C662 O654 1.258 . S
O663 Mn648 2.162 . S
O663 C651 1.281 . S
O664 Mn648 2.297 . S
O664 C651 1.236 . S
N665 Mn649 2.282 . S
N665 C666 1.328 1_655 S
N665 C670 1.318 . S
C666 N665 1.328 1_455 S
C666 C667 1.457 . S
C666 H671 0.929 . S
C667 C666 1.457 . S
C667 C668 1.291 . S
C667 H680 0.931 . S
C668 C667 1.291 . S
C668 C669 1.373 . S
C668 H681 0.929 . S
C669 C668 1.373 . S
C669 C670 1.396 1_455 S
C669 C676 1.403 . S
C670 C660 1.476 . S
C670 N665 1.318 . S
C670 C669 1.396 1_655 S
H671 C666 0.929 . S
O672 Mn648 2.385 . S
O672 C650 1.234 . S
O673 Mn648 2.209 . S
O673 Mn649 2.215 1_554 S
O673 C650 1.283 . S
O674 Mn648 2.094 . S
O674 C652 1.240 . S
O675 Mn649 2.117 1_554 S
O675 C652 1.264 . S
C676 C669 1.403 . S
C676 C677 1.399 1_455 S
C676 H682 0.929 . S
C677 C657 1.449 . S
C677 C676 1.399 1_655 S
C677 H683 0.930 . S
H678 C658 0.931 . S
H679 C659 0.930 . S
H680 C667 0.931 . S
H681 C668 0.929 . S
H682 C676 0.929 . S
H683 C677 0.930 . S
Mn684 O689 2.095 . S
Mn684 O699 2.162 . S
Mn684 O700 2.297 . S
Mn684 O708 2.385 . S
Mn684 O709 2.209 . S
Mn684 O710 2.094 . S
Mn685 O690 2.121 . S
Mn685 N692 2.257 . S
Mn685 N701 2.282 . S
Mn685 O709 2.215 . S
Mn685 O711 2.117 . S
C686 O708 1.234 . S
C686 O709 1.283 . S
C687 O699 1.281 . S
C687 O700 1.236 . S
C688 O710 1.240 . S
C688 O711 1.264 . S
O689 Mn684 2.095 . S
O689 C698 1.250 . S
O690 Mn685 2.121 . S
O690 C698 1.258 . S
C691 N692 1.326 . S
C691 C695 1.460 1_455 S
C691 H697 0.929 . S
N692 Mn685 2.257 . S
N692 C691 1.326 . S
N692 C696 1.362 . S
C693 C694 1.258 . S
C693 C696 1.431 1_655 S
C693 C713 1.449 . S
C694 C693 1.258 . S
C694 C695 1.477 . S
C694 H714 0.931 . S
C695 C691 1.460 1_655 S
C695 C694 1.477 . S
C695 H715 0.930 . S
C696 N692 1.362 . S
C696 C693 1.431 1_455 S
C696 C706 1.476 . S
H697 C691 0.929 . S
C698 O689 1.250 . S
C698 O690 1.258 . S
O699 Mn684 2.162 . S
O699 C687 1.281 . S
O700 Mn684 2.297 . S
O700 C687 1.236 . S
N701 Mn685 2.282 . S
N701 C702 1.328 . S
N701 C706 1.318 . S
C702 N701 1.328 . S
C702 C703 1.457 . S
C702 H707 0.929 . S
C703 C702 1.457 . S
C703 C704 1.291 . S
C703 H716 0.931 . S
C704 C703 1.291 . S
C704 C705 1.373 . S
C704 H717 0.929 . S
C705 C704 1.373 . S
C705 C706 1.396 . S
C705 C712 1.403 1_455 S
C706 C696 1.476 . S
C706 N701 1.318 . S
C706 C705 1.396 . S
H707 C702 0.929 . S
O708 Mn684 2.385 . S
O708 C686 1.234 . S
O709 Mn684 2.209 . S
O709 Mn685 2.215 . S
O709 C686 1.283 . S
O710 Mn684 2.094 . S
O710 C688 1.240 . S
O711 Mn685 2.117 . S
O711 C688 1.264 . S
C712 C705 1.403 1_655 S
C712 C713 1.399 . S
C712 H718 0.929 . S
C713 C693 1.449 . S
C713 C712 1.399 . S
C713 H719 0.930 . S
H714 C694 0.931 . S
H715 C695 0.930 . S
H716 C703 0.931 . S
H717 C704 0.929 . S
H718 C712 0.929 . S
H719 C713 0.930 . S
Mn720 O725 2.095 . S
Mn720 O735 2.162 . S
Mn720 O736 2.297 . S
Mn720 O744 2.385 . S
Mn720 O745 2.209 . S
Mn720 O746 2.094 . S
Mn721 O726 2.121 1_554 S
Mn721 N728 2.257 . S
Mn721 N737 2.282 . S
Mn721 O745 2.215 1_554 S
Mn721 O747 2.117 1_554 S
C722 O744 1.234 . S
C722 O745 1.283 . S
C723 O735 1.281 . S
C723 O736 1.236 . S
C724 O746 1.240 . S
C724 O747 1.264 . S
O725 Mn720 2.095 . S
O725 C734 1.250 . S
O726 Mn721 2.121 1_556 S
O726 C734 1.258 . S
C727 N728 1.326 . S
C727 C731 1.460 . S
C727 H733 0.929 . S
N728 Mn721 2.257 . S
N728 C727 1.326 . S
N728 C732 1.362 . S
C729 C730 1.258 . S
C729 C732 1.431 . S
C729 C749 1.449 . S
C730 C729 1.258 . S
C730 C731 1.477 . S
C730 H750 0.931 . S
C731 C727 1.460 . S
C731 C730 1.477 . S
C731 H751 0.930 . S
C732 N728 1.362 . S
C732 C729 1.431 . S
C732 C742 1.476 . S
H733 C727 0.929 . S
C734 O725 1.250 . S
C734 O726 1.258 . S
O735 Mn720 2.162 . S
O735 C723 1.281 . S
O736 Mn720 2.297 . S
O736 C723 1.236 . S
N737 Mn721 2.282 . S
N737 C738 1.328 . S
N737 C742 1.318 . S
C738 N737 1.328 . S
C738 C739 1.457 . S
C738 H743 0.929 . S
C739 C738 1.457 . S
C739 C740 1.291 . S
C739 H752 0.931 . S
C740 C739 1.291 . S
C740 C741 1.373 . S
C740 H753 0.929 . S
C741 C740 1.373 . S
C741 C742 1.396 . S
C741 C748 1.403 . S
C742 C732 1.476 . S
C742 N737 1.318 . S
C742 C741 1.396 . S
H743 C738 0.929 . S
O744 Mn720 2.385 . S
O744 C722 1.234 . S
O745 Mn720 2.209 . S
O745 Mn721 2.215 1_556 S
O745 C722 1.283 . S
O746 Mn720 2.094 . S
O746 C724 1.240 . S
O747 Mn721 2.117 1_556 S
O747 C724 1.264 . S
C748 C741 1.403 . S
C748 C749 1.399 . S
C748 H754 0.929 . S
C749 C729 1.449 . S
C749 C748 1.399 . S
C749 H755 0.930 . S
H750 C730 0.931 . S
H751 C731 0.930 . S
H752 C739 0.931 . S
H753 C740 0.929 . S
H754 C748 0.929 . S
H755 C749 0.930 . S
Mn756 O761 2.095 . S
Mn756 O771 2.162 . S
Mn756 O772 2.297 . S
Mn756 O780 2.385 . S
Mn756 O781 2.209 . S
Mn756 O782 2.094 . S
Mn757 O762 2.121 . S
Mn757 N764 2.257 . S
Mn757 N773 2.282 . S
Mn757 O781 2.215 . S
Mn757 O783 2.117 . S
C758 O780 1.234 . S
C758 O781 1.283 . S
C759 O771 1.281 . S
C759 O772 1.236 . S
C760 O782 1.240 . S
C760 O783 1.264 . S
O761 Mn756 2.095 . S
O761 C770 1.250 . S
O762 Mn757 2.121 . S
O762 C770 1.258 . S
C763 N764 1.326 . S
C763 C767 1.460 1_455 S
C763 H769 0.929 . S
N764 Mn757 2.257 . S
N764 C763 1.326 . S
N764 C768 1.362 . S
C765 C766 1.258 . S
C765 C768 1.431 1_655 S
C765 C785 1.449 . S
C766 C765 1.258 . S
C766 C767 1.477 . S
C766 H786 0.931 . S
C767 C763 1.460 1_655 S
C767 C766 1.477 . S
C767 H787 0.930 . S
C768 N764 1.362 . S
C768 C765 1.431 1_455 S
C768 C778 1.476 . S
H769 C763 0.929 . S
C770 O761 1.250 . S
C770 O762 1.258 . S
O771 Mn756 2.162 . S
O771 C759 1.281 . S
O772 Mn756 2.297 . S
O772 C759 1.236 . S
N773 Mn757 2.282 . S
N773 C774 1.328 . S
N773 C778 1.318 . S
C774 N773 1.328 . S
C774 C775 1.457 . S
C774 H779 0.929 . S
C775 C774 1.457 . S
C775 C776 1.291 . S
C775 H788 0.931 . S
C776 C775 1.291 . S
C776 C777 1.373 . S
C776 H789 0.929 . S
C777 C776 1.373 . S
C777 C778 1.396 . S
C777 C784 1.403 1_455 S
C778 C768 1.476 . S
C778 N773 1.318 . S
C778 C777 1.396 . S
H779 C774 0.929 . S
O780 Mn756 2.385 . S
O780 C758 1.234 . S
O781 Mn756 2.209 . S
O781 Mn757 2.215 . S
O781 C758 1.283 . S
O782 Mn756 2.094 . S
O782 C760 1.240 . S
O783 Mn757 2.117 . S
O783 C760 1.264 . S
C784 C777 1.403 1_655 S
C784 C785 1.399 . S
C784 H790 0.929 . S
C785 C765 1.449 . S
C785 C784 1.399 . S
C785 H791 0.930 . S
H786 C766 0.931 . S
H787 C767 0.930 . S
H788 C775 0.931 . S
H789 C776 0.929 . S
H790 C784 0.929 . S
H791 C785 0.930 . S
Mn792 O797 2.095 . S
Mn792 O807 2.162 . S
Mn792 O808 2.297 . S
Mn792 O816 2.385 . S
Mn792 O817 2.209 . S
Mn792 O818 2.094 . S
Mn793 O798 2.121 . S
Mn793 N800 2.257 . S
Mn793 N809 2.282 . S
Mn793 O817 2.215 . S
Mn793 O819 2.117 . S
C794 O816 1.234 . S
C794 O817 1.283 . S
C795 O807 1.281 . S
C795 O808 1.236 . S
C796 O818 1.240 . S
C796 O819 1.264 . S
O797 Mn792 2.095 . S
O797 C806 1.250 . S
O798 Mn793 2.121 . S
O798 C806 1.258 . S
C799 N800 1.326 . S
C799 C803 1.460 . S
C799 H805 0.929 . S
N800 Mn793 2.257 . S
N800 C799 1.326 . S
N800 C804 1.362 . S
C801 C802 1.258 . S
C801 C804 1.431 . S
C801 C821 1.449 . S
C802 C801 1.258 . S
C802 C803 1.477 . S
C802 H822 0.931 . S
C803 C799 1.460 . S
C803 C802 1.477 . S
C803 H823 0.930 . S
C804 N800 1.362 . S
C804 C801 1.431 . S
C804 C814 1.476 . S
H805 C799 0.929 . S
C806 O797 1.250 . S
C806 O798 1.258 . S
O807 Mn792 2.162 . S
O807 C795 1.281 . S
O808 Mn792 2.297 . S
O808 C795 1.236 . S
N809 Mn793 2.282 . S
N809 C810 1.328 1_655 S
N809 C814 1.318 . S
C810 N809 1.328 1_455 S
C810 C811 1.457 . S
C810 H815 0.929 . S
C811 C810 1.457 . S
C811 C812 1.291 . S
C811 H824 0.931 . S
C812 C811 1.291 . S
C812 C813 1.373 . S
C812 H825 0.929 . S
C813 C812 1.373 . S
C813 C814 1.396 1_455 S
C813 C820 1.403 . S
C814 C804 1.476 . S
C814 N809 1.318 . S
C814 C813 1.396 1_655 S
H815 C810 0.929 . S
O816 Mn792 2.385 . S
O816 C794 1.234 . S
O817 Mn792 2.209 . S
O817 Mn793 2.215 . S
O817 C794 1.283 . S
O818 Mn792 2.094 . S
O818 C796 1.240 . S
O819 Mn793 2.117 . S
O819 C796 1.264 . S
C820 C813 1.403 . S
C820 C821 1.399 1_455 S
C820 H826 0.929 . S
C821 C801 1.449 . S
C821 C820 1.399 1_655 S
C821 H827 0.930 . S
H822 C802 0.931 . S
H823 C803 0.930 . S
H824 C811 0.931 . S
H825 C812 0.929 . S
H826 C820 0.929 . S
H827 C821 0.930 . S
Mn828 O833 2.095 . S
Mn828 O843 2.162 . S
Mn828 O844 2.297 . S
Mn828 O852 2.385 . S
Mn828 O853 2.209 . S
Mn828 O854 2.094 . S
Mn829 O834 2.121 . S
Mn829 N836 2.257 . S
Mn829 N845 2.282 . S
Mn829 O853 2.215 . S
Mn829 O855 2.117 . S
C830 O852 1.234 . S
C830 O853 1.283 . S
C831 O843 1.281 . S
C831 O844 1.236 . S
C832 O854 1.240 . S
C832 O855 1.264 . S
O833 Mn828 2.095 . S
O833 C842 1.250 . S
O834 Mn829 2.121 . S
O834 C842 1.258 . S
C835 N836 1.326 . S
C835 C839 1.460 . S
C835 H841 0.929 . S
N836 Mn829 2.257 . S
N836 C835 1.326 . S
N836 C840 1.362 . S
C837 C838 1.258 . S
C837 C840 1.431 . S
C837 C857 1.449 . S
C838 C837 1.258 . S
C838 C839 1.477 . S
C838 H858 0.931 . S
C839 C835 1.460 . S
C839 C838 1.477 . S
C839 H859 0.930 . S
C840 N836 1.362 . S
C840 C837 1.431 . S
C840 C850 1.476 . S
H841 C835 0.929 . S
C842 O833 1.250 . S
C842 O834 1.258 . S
O843 Mn828 2.162 . S
O843 C831 1.281 . S
O844 Mn828 2.297 . S
O844 C831 1.236 . S
N845 Mn829 2.282 . S
N845 C846 1.328 . S
N845 C850 1.318 . S
C846 N845 1.328 . S
C846 C847 1.457 . S
C846 H851 0.929 . S
C847 C846 1.457 . S
C847 C848 1.291 . S
C847 H860 0.931 . S
C848 C847 1.291 . S
C848 C849 1.373 . S
C848 H861 0.929 . S
C849 C848 1.373 . S
C849 C850 1.396 . S
C849 C856 1.403 . S
C850 C840 1.476 . S
C850 N845 1.318 . S
C850 C849 1.396 . S
H851 C846 0.929 . S
O852 Mn828 2.385 . S
O852 C830 1.234 . S
O853 Mn828 2.209 . S
O853 Mn829 2.215 . S
O853 C830 1.283 . S
O854 Mn828 2.094 . S
O854 C832 1.240 . S
O855 Mn829 2.117 . S
O855 C832 1.264 . S
C856 C849 1.403 . S
C856 C857 1.399 . S
C856 H862 0.929 . S
C857 C837 1.449 . S
C857 C856 1.399 . S
C857 H863 0.930 . S
H858 C838 0.931 . S
H859 C839 0.930 . S
H860 C847 0.931 . S
H861 C848 0.929 . S
H862 C856 0.929 . S
H863 C857 0.930 . S
Mn864 O869 2.095 . S
Mn864 O879 2.162 . S
Mn864 O880 2.297 . S
Mn864 O888 2.385 . S
Mn864 O889 2.209 . S
Mn864 O890 2.094 . S
Mn865 O870 2.121 . S
Mn865 N872 2.257 . S
Mn865 N881 2.282 . S
Mn865 O889 2.215 . S
Mn865 O891 2.117 . S
C866 O888 1.234 . S
C866 O889 1.283 . S
C867 O879 1.281 . S
C867 O880 1.236 . S
C868 O890 1.240 . S
C868 O891 1.264 . S
O869 Mn864 2.095 . S
O869 C878 1.250 . S
O870 Mn865 2.121 . S
O870 C878 1.258 . S
C871 N872 1.326 . S
C871 C875 1.460 . S
C871 H877 0.929 . S
N872 Mn865 2.257 . S
N872 C871 1.326 . S
N872 C876 1.362 . S
C873 C874 1.258 . S
C873 C876 1.431 . S
C873 C893 1.449 . S
C874 C873 1.258 . S
C874 C875 1.477 . S
C874 H894 0.931 . S
C875 C871 1.460 . S
C875 C874 1.477 . S
C875 H895 0.930 . S
C876 N872 1.362 . S
C876 C873 1.431 . S
C876 C886 1.476 . S
H877 C871 0.929 . S
C878 O869 1.250 . S
C878 O870 1.258 . S
O879 Mn864 2.162 . S
O879 C867 1.281 . S
O880 Mn864 2.297 . S
O880 C867 1.236 . S
N881 Mn865 2.282 . S
N881 C882 1.328 . S
N881 C886 1.318 . S
C882 N881 1.328 . S
C882 C883 1.457 . S
C882 H887 0.929 . S
C883 C882 1.457 . S
C883 C884 1.291 . S
C883 H896 0.931 . S
C884 C883 1.291 . S
C884 C885 1.373 . S
C884 H897 0.929 . S
C885 C884 1.373 . S
C885 C886 1.396 . S
C885 C892 1.403 . S
C886 C876 1.476 . S
C886 N881 1.318 . S
C886 C885 1.396 . S
H887 C882 0.929 . S
O888 Mn864 2.385 . S
O888 C866 1.234 . S
O889 Mn864 2.209 . S
O889 Mn865 2.215 . S
O889 C866 1.283 . S
O890 Mn864 2.094 . S
O890 C868 1.240 . S
O891 Mn865 2.117 . S
O891 C868 1.264 . S
C892 C885 1.403 . S
C892 C893 1.399 . S
C892 H898 0.929 . S
C893 C873 1.449 . S
C893 C892 1.399 . S
C893 H899 0.930 . S
H894 C874 0.931 . S
H895 C875 0.930 . S
H896 C883 0.931 . S
H897 C884 0.929 . S
H898 C892 0.929 . S
H899 C893 0.930 . S
Mn900 O905 2.095 . S
Mn900 O915 2.162 . S
Mn900 O916 2.297 . S
Mn900 O924 2.385 . S
Mn900 O925 2.209 . S
Mn900 O926 2.094 . S
Mn901 O906 2.121 . S
Mn901 N908 2.257 . S
Mn901 N917 2.282 . S
Mn901 O925 2.215 . S
Mn901 O927 2.117 . S
C902 O924 1.234 . S
C902 O925 1.283 . S
C903 O915 1.281 . S
C903 O916 1.236 . S
C904 O926 1.240 . S
C904 O927 1.264 . S
O905 Mn900 2.095 . S
O905 C914 1.250 . S
O906 Mn901 2.121 . S
O906 C914 1.258 . S
C907 N908 1.326 . S
C907 C911 1.460 . S
C907 H913 0.929 . S
N908 Mn901 2.257 . S
N908 C907 1.326 . S
N908 C912 1.362 . S
C909 C910 1.258 . S
C909 C912 1.431 . S
C909 C929 1.449 . S
C910 C909 1.258 . S
C910 C911 1.477 . S
C910 H930 0.931 . S
C911 C907 1.460 . S
C911 C910 1.477 . S
C911 H931 0.930 . S
C912 N908 1.362 . S
C912 C909 1.431 . S
C912 C922 1.476 . S
H913 C907 0.929 . S
C914 O905 1.250 . S
C914 O906 1.258 . S
O915 Mn900 2.162 . S
O915 C903 1.281 . S
O916 Mn900 2.297 . S
O916 C903 1.236 . S
N917 Mn901 2.282 . S
N917 C918 1.328 . S
N917 C922 1.318 . S
C918 N917 1.328 . S
C918 C919 1.457 . S
C918 H923 0.929 . S
C919 C918 1.457 . S
C919 C920 1.291 . S
C919 H932 0.931 . S
C920 C919 1.291 . S
C920 C921 1.373 . S
C920 H933 0.929 . S
C921 C920 1.373 . S
C921 C922 1.396 . S
C921 C928 1.403 . S
C922 C912 1.476 . S
C922 N917 1.318 . S
C922 C921 1.396 . S
H923 C918 0.929 . S
O924 Mn900 2.385 . S
O924 C902 1.234 . S
O925 Mn900 2.209 . S
O925 Mn901 2.215 . S
O925 C902 1.283 . S
O926 Mn900 2.094 . S
O926 C904 1.240 . S
O927 Mn901 2.117 . S
O927 C904 1.264 . S
C928 C921 1.403 . S
C928 C929 1.399 . S
C928 H934 0.929 . S
C929 C909 1.449 . S
C929 C928 1.399 . S
C929 H935 0.930 . S
H930 C910 0.931 . S
H931 C911 0.930 . S
H932 C919 0.931 . S
H933 C920 0.929 . S
H934 C928 0.929 . S
H935 C929 0.930 . S
Mn936 O941 2.095 . S
Mn936 O951 2.162 . S
Mn936 O952 2.297 . S
Mn936 O960 2.385 . S
Mn936 O961 2.209 . S
Mn936 O962 2.094 . S
Mn937 O942 2.121 1_554 S
Mn937 N944 2.257 . S
Mn937 N953 2.282 . S
Mn937 O961 2.215 1_554 S
Mn937 O963 2.117 1_554 S
C938 O960 1.234 . S
C938 O961 1.283 . S
C939 O951 1.281 . S
C939 O952 1.236 . S
C940 O962 1.240 . S
C940 O963 1.264 . S
O941 Mn936 2.095 . S
O941 C950 1.250 . S
O942 Mn937 2.121 1_556 S
O942 C950 1.258 . S
C943 N944 1.326 . S
C943 C947 1.460 . S
C943 H949 0.929 . S
N944 Mn937 2.257 . S
N944 C943 1.326 . S
N944 C948 1.362 . S
C945 C946 1.258 . S
C945 C948 1.431 . S
C945 C965 1.449 . S
C946 C945 1.258 . S
C946 C947 1.477 . S
C946 H966 0.931 . S
C947 C943 1.460 . S
C947 C946 1.477 . S
C947 H967 0.930 . S
C948 N944 1.362 . S
C948 C945 1.431 . S
C948 C958 1.476 . S
H949 C943 0.929 . S
C950 O941 1.250 . S
C950 O942 1.258 . S
O951 Mn936 2.162 . S
O951 C939 1.281 . S
O952 Mn936 2.297 . S
O952 C939 1.236 . S
N953 Mn937 2.282 . S
N953 C954 1.328 1_455 S
N953 C958 1.318 . S
C954 N953 1.328 1_655 S
C954 C955 1.457 . S
C954 H959 0.929 . S
C955 C954 1.457 . S
C955 C956 1.291 . S
C955 H968 0.931 . S
C956 C955 1.291 . S
C956 C957 1.373 . S
C956 H969 0.929 . S
C957 C956 1.373 . S
C957 C958 1.396 1_655 S
C957 C964 1.403 . S
C958 C948 1.476 . S
C958 N953 1.318 . S
C958 C957 1.396 1_455 S
H959 C954 0.929 . S
O960 Mn936 2.385 . S
O960 C938 1.234 . S
O961 Mn936 2.209 . S
O961 Mn937 2.215 1_556 S
O961 C938 1.283 . S
O962 Mn936 2.094 . S
O962 C940 1.240 . S
O963 Mn937 2.117 1_556 S
O963 C940 1.264 . S
C964 C957 1.403 . S
C964 C965 1.399 1_655 S
C964 H970 0.929 . S
C965 C945 1.449 . S
C965 C964 1.399 1_455 S
C965 H971 0.930 . S
H966 C946 0.931 . S
H967 C947 0.930 . S
H968 C955 0.931 . S
H969 C956 0.929 . S
H970 C964 0.929 . S
H971 C965 0.930 . S
Mn972 O977 2.095 . S
Mn972 O987 2.162 . S
Mn972 O988 2.297 . S
Mn972 O996 2.385 . S
Mn972 O997 2.209 . S
Mn972 O998 2.094 . S
Mn973 O978 2.121 . S
Mn973 N980 2.257 . S
Mn973 N989 2.282 . S
Mn973 O997 2.215 . S
Mn973 O999 2.117 . S
C974 O996 1.234 . S
C974 O997 1.283 . S
C975 O987 1.281 . S
C975 O988 1.236 . S
C976 O998 1.240 . S
C976 O999 1.264 . S
O977 Mn972 2.095 . S
O977 C986 1.250 . S
O978 Mn973 2.121 . S
O978 C986 1.258 . S
C979 N980 1.326 . S
C979 C983 1.460 1_655 S
C979 H985 0.929 . S
N980 Mn973 2.257 . S
N980 C979 1.326 . S
N980 C984 1.362 . S
C981 C982 1.258 . S
C981 C984 1.431 1_455 S
C981 C1001 1.449 . S
C982 C981 1.258 . S
C982 C983 1.477 . S
C982 H1002 0.931 . S
C983 C979 1.460 1_455 S
C983 C982 1.477 . S
C983 H1003 0.930 . S
C984 N980 1.362 . S
C984 C981 1.431 1_655 S
C984 C994 1.476 . S
H985 C979 0.929 . S
C986 O977 1.250 . S
C986 O978 1.258 . S
O987 Mn972 2.162 . S
O987 C975 1.281 . S
O988 Mn972 2.297 . S
O988 C975 1.236 . S
N989 Mn973 2.282 . S
N989 C990 1.328 . S
N989 C994 1.318 . S
C990 N989 1.328 . S
C990 C991 1.457 . S
C990 H995 0.929 . S
C991 C990 1.457 . S
C991 C992 1.291 . S
C991 H1004 0.931 . S
C992 C991 1.291 . S
C992 C993 1.373 . S
C992 H1005 0.929 . S
C993 C992 1.373 . S
C993 C994 1.396 . S
C993 C1000 1.403 1_655 S
C994 C984 1.476 . S
C994 N989 1.318 . S
C994 C993 1.396 . S
H995 C990 0.929 . S
O996 Mn972 2.385 . S
O996 C974 1.234 . S
O997 Mn972 2.209 . S
O997 Mn973 2.215 . S
O997 C974 1.283 . S
O998 Mn972 2.094 . S
O998 C976 1.240 . S
O999 Mn973 2.117 . S
O999 C976 1.264 . S
C1000 C993 1.403 1_455 S
C1000 C1001 1.399 . S
C1000 H1006 0.929 . S
C1001 C981 1.449 . S
C1001 C1000 1.399 . S
C1001 H1007 0.930 . S
H1002 C982 0.931 . S
H1003 C983 0.930 . S
H1004 C991 0.931 . S
H1005 C992 0.929 . S
H1006 C1000 0.929 . S
H1007 C1001 0.930 . S
Mn1008 O1013 2.095 . S
Mn1008 O1023 2.162 . S
Mn1008 O1024 2.297 . S
Mn1008 O1032 2.385 . S
Mn1008 O1033 2.209 . S
Mn1008 O1034 2.094 . S
Mn1009 O1014 2.121 1_556 S
Mn1009 N1016 2.257 . S
Mn1009 N1025 2.282 . S
Mn1009 O1033 2.215 1_556 S
Mn1009 O1035 2.117 1_556 S
C1010 O1032 1.234 . S
C1010 O1033 1.283 . S
C1011 O1023 1.281 . S
C1011 O1024 1.236 . S
C1012 O1034 1.240 . S
C1012 O1035 1.264 . S
O1013 Mn1008 2.095 . S
O1013 C1022 1.250 . S
O1014 Mn1009 2.121 1_554 S
O1014 C1022 1.258 . S
C1015 N1016 1.326 . S
C1015 C1019 1.460 . S
C1015 H1021 0.929 . S
N1016 Mn1009 2.257 . S
N1016 C1015 1.326 . S
N1016 C1020 1.362 . S
C1017 C1018 1.258 . S
C1017 C1020 1.431 . S
C1017 C1037 1.449 . S
C1018 C1017 1.258 . S
C1018 C1019 1.477 . S
C1018 H1038 0.931 . S
C1019 C1015 1.460 . S
C1019 C1018 1.477 . S
C1019 H1039 0.930 . S
C1020 N1016 1.362 . S
C1020 C1017 1.431 . S
C1020 C1030 1.476 . S
H1021 C1015 0.929 . S
C1022 O1013 1.250 . S
C1022 O1014 1.258 . S
O1023 Mn1008 2.162 . S
O1023 C1011 1.281 . S
O1024 Mn1008 2.297 . S
O1024 C1011 1.236 . S
N1025 Mn1009 2.282 . S
N1025 C1026 1.328 . S
N1025 C1030 1.318 . S
C1026 N1025 1.328 . S
C1026 C1027 1.457 . S
C1026 H1031 0.929 . S
C1027 C1026 1.457 . S
C1027 C1028 1.291 . S
C1027 H1040 0.931 . S
C1028 C1027 1.291 . S
C1028 C1029 1.373 . S
C1028 H1041 0.929 . S
C1029 C1028 1.373 . S
C1029 C1030 1.396 . S
C1029 C1036 1.403 . S
C1030 C1020 1.476 . S
C1030 N1025 1.318 . S
C1030 C1029 1.396 . S
H1031 C1026 0.929 . S
O1032 Mn1008 2.385 . S
O1032 C1010 1.234 . S
O1033 Mn1008 2.209 . S
O1033 Mn1009 2.215 1_554 S
O1033 C1010 1.283 . S
O1034 Mn1008 2.094 . S
O1034 C1012 1.240 . S
O1035 Mn1009 2.117 1_554 S
O1035 C1012 1.264 . S
C1036 C1029 1.403 . S
C1036 C1037 1.399 . S
C1036 H1042 0.929 . S
C1037 C1017 1.449 . S
C1037 C1036 1.399 . S
C1037 H1043 0.930 . S
H1038 C1018 0.931 . S
H1039 C1019 0.930 . S
H1040 C1027 0.931 . S
H1041 C1028 0.929 . S
H1042 C1036 0.929 . S
H1043 C1037 0.930 . S
Mn1044 O1049 2.095 . S
Mn1044 O1059 2.162 . S
Mn1044 O1060 2.297 . S
Mn1044 O1068 2.385 . S
Mn1044 O1069 2.209 . S
Mn1044 O1070 2.094 . S
Mn1045 O1050 2.121 . S
Mn1045 N1052 2.257 . S
Mn1045 N1061 2.282 . S
Mn1045 O1069 2.215 . S
Mn1045 O1071 2.117 . S
C1046 O1068 1.234 . S
C1046 O1069 1.283 . S
C1047 O1059 1.281 . S
C1047 O1060 1.236 . S
C1048 O1070 1.240 . S
C1048 O1071 1.264 . S
O1049 Mn1044 2.095 . S
O1049 C1058 1.250 . S
O1050 Mn1045 2.121 . S
O1050 C1058 1.258 . S
C1051 N1052 1.326 . S
C1051 C1055 1.460 1_655 S
C1051 H1057 0.929 . S
N1052 Mn1045 2.257 . S
N1052 C1051 1.326 . S
N1052 C1056 1.362 . S
C1053 C1054 1.258 . S
C1053 C1056 1.431 1_455 S
C1053 C1073 1.449 . S
C1054 C1053 1.258 . S
C1054 C1055 1.477 . S
C1054 H1074 0.931 . S
C1055 C1051 1.460 1_455 S
C1055 C1054 1.477 . S
C1055 H1075 0.930 . S
C1056 N1052 1.362 . S
C1056 C1053 1.431 1_655 S
C1056 C1066 1.476 . S
H1057 C1051 0.929 . S
C1058 O1049 1.250 . S
C1058 O1050 1.258 . S
O1059 Mn1044 2.162 . S
O1059 C1047 1.281 . S
O1060 Mn1044 2.297 . S
O1060 C1047 1.236 . S
N1061 Mn1045 2.282 . S
N1061 C1062 1.328 . S
N1061 C1066 1.318 . S
C1062 N1061 1.328 . S
C1062 C1063 1.457 . S
C1062 H1067 0.929 . S
C1063 C1062 1.457 . S
C1063 C1064 1.291 . S
C1063 H1076 0.931 . S
C1064 C1063 1.291 . S
C1064 C1065 1.373 . S
C1064 H1077 0.929 . S
C1065 C1064 1.373 . S
C1065 C1066 1.396 . S
C1065 C1072 1.403 1_655 S
C1066 C1056 1.476 . S
C1066 N1061 1.318 . S
C1066 C1065 1.396 . S
H1067 C1062 0.929 . S
O1068 Mn1044 2.385 . S
O1068 C1046 1.234 . S
O1069 Mn1044 2.209 . S
O1069 Mn1045 2.215 . S
O1069 C1046 1.283 . S
O1070 Mn1044 2.094 . S
O1070 C1048 1.240 . S
O1071 Mn1045 2.117 . S
O1071 C1048 1.264 . S
C1072 C1065 1.403 1_455 S
C1072 C1073 1.399 . S
C1072 H1078 0.929 . S
C1073 C1053 1.449 . S
C1073 C1072 1.399 . S
C1073 H1079 0.930 . S
H1074 C1054 0.931 . S
H1075 C1055 0.930 . S
H1076 C1063 0.931 . S
H1077 C1064 0.929 . S
H1078 C1072 0.929 . S
H1079 C1073 0.930 . S
Mn1080 O1085 2.095 . S
Mn1080 O1095 2.162 . S
Mn1080 O1096 2.297 . S
Mn1080 O1104 2.385 . S
Mn1080 O1105 2.209 . S
Mn1080 O1106 2.094 . S
Mn1081 O1086 2.121 . S
Mn1081 N1088 2.257 . S
Mn1081 N1097 2.282 . S
Mn1081 O1105 2.215 . S
Mn1081 O1107 2.117 . S
C1082 O1104 1.234 . S
C1082 O1105 1.283 . S
C1083 O1095 1.281 . S
C1083 O1096 1.236 . S
C1084 O1106 1.240 . S
C1084 O1107 1.264 . S
O1085 Mn1080 2.095 . S
O1085 C1094 1.250 . S
O1086 Mn1081 2.121 . S
O1086 C1094 1.258 . S
C1087 N1088 1.326 . S
C1087 C1091 1.460 . S
C1087 H1093 0.929 . S
N1088 Mn1081 2.257 . S
N1088 C1087 1.326 . S
N1088 C1092 1.362 . S
C1089 C1090 1.258 . S
C1089 C1092 1.431 . S
C1089 C1109 1.449 . S
C1090 C1089 1.258 . S
C1090 C1091 1.477 . S
C1090 H1110 0.931 . S
C1091 C1087 1.460 . S
C1091 C1090 1.477 . S
C1091 H1111 0.930 . S
C1092 N1088 1.362 . S
C1092 C1089 1.431 . S
C1092 C1102 1.476 . S
H1093 C1087 0.929 . S
C1094 O1085 1.250 . S
C1094 O1086 1.258 . S
O1095 Mn1080 2.162 . S
O1095 C1083 1.281 . S
O1096 Mn1080 2.297 . S
O1096 C1083 1.236 . S
N1097 Mn1081 2.282 . S
N1097 C1098 1.328 1_455 S
N1097 C1102 1.318 . S
C1098 N1097 1.328 1_655 S
C1098 C1099 1.457 . S
C1098 H1103 0.929 . S
C1099 C1098 1.457 . S
C1099 C1100 1.291 . S
C1099 H1112 0.931 . S
C1100 C1099 1.291 . S
C1100 C1101 1.373 . S
C1100 H1113 0.929 . S
C1101 C1100 1.373 . S
C1101 C1102 1.396 1_655 S
C1101 C1108 1.403 . S
C1102 C1092 1.476 . S
C1102 N1097 1.318 . S
C1102 C1101 1.396 1_455 S
H1103 C1098 0.929 . S
O1104 Mn1080 2.385 . S
O1104 C1082 1.234 . S
O1105 Mn1080 2.209 . S
O1105 Mn1081 2.215 . S
O1105 C1082 1.283 . S
O1106 Mn1080 2.094 . S
O1106 C1084 1.240 . S
O1107 Mn1081 2.117 . S
O1107 C1084 1.264 . S
C1108 C1101 1.403 . S
C1108 C1109 1.399 1_655 S
C1108 H1114 0.929 . S
C1109 C1089 1.449 . S
C1109 C1108 1.399 1_455 S
C1109 H1115 0.930 . S
H1110 C1090 0.931 . S
H1111 C1091 0.930 . S
H1112 C1099 0.931 . S
H1113 C1100 0.929 . S
H1114 C1108 0.929 . S
H1115 C1109 0.930 . S
Mn1116 O1121 2.095 . S
Mn1116 O1131 2.162 . S
Mn1116 O1132 2.297 . S
Mn1116 O1140 2.385 . S
Mn1116 O1141 2.209 . S
Mn1116 O1142 2.094 . S
Mn1117 O1122 2.121 . S
Mn1117 N1124 2.257 . S
Mn1117 N1133 2.282 . S
Mn1117 O1141 2.215 . S
Mn1117 O1143 2.117 . S
C1118 O1140 1.234 . S
C1118 O1141 1.283 . S
C1119 O1131 1.281 . S
C1119 O1132 1.236 . S
C1120 O1142 1.240 . S
C1120 O1143 1.264 . S
O1121 Mn1116 2.095 . S
O1121 C1130 1.250 . S
O1122 Mn1117 2.121 . S
O1122 C1130 1.258 . S
C1123 N1124 1.326 . S
C1123 C1127 1.460 . S
C1123 H1129 0.929 . S
N1124 Mn1117 2.257 . S
N1124 C1123 1.326 . S
N1124 C1128 1.362 . S
C1125 C1126 1.258 . S
C1125 C1128 1.431 . S
C1125 C1145 1.449 . S
C1126 C1125 1.258 . S
C1126 C1127 1.477 . S
C1126 H1146 0.931 . S
C1127 C1123 1.460 . S
C1127 C1126 1.477 . S
C1127 H1147 0.930 . S
C1128 N1124 1.362 . S
C1128 C1125 1.431 . S
C1128 C1138 1.476 . S
H1129 C1123 0.929 . S
C1130 O1121 1.250 . S
C1130 O1122 1.258 . S
O1131 Mn1116 2.162 . S
O1131 C1119 1.281 . S
O1132 Mn1116 2.297 . S
O1132 C1119 1.236 . S
N1133 Mn1117 2.282 . S
N1133 C1134 1.328 . S
N1133 C1138 1.318 . S
C1134 N1133 1.328 . S
C1134 C1135 1.457 . S
C1134 H1139 0.929 . S
C1135 C1134 1.457 . S
C1135 C1136 1.291 . S
C1135 H1148 0.931 . S
C1136 C1135 1.291 . S
C1136 C1137 1.373 . S
C1136 H1149 0.929 . S
C1137 C1136 1.373 . S
C1137 C1138 1.396 . S
C1137 C1144 1.403 . S
C1138 C1128 1.476 . S
C1138 N1133 1.318 . S
C1138 C1137 1.396 . S
H1139 C1134 0.929 . S
O1140 Mn1116 2.385 . S
O1140 C1118 1.234 . S
O1141 Mn1116 2.209 . S
O1141 Mn1117 2.215 . S
O1141 C1118 1.283 . S
O1142 Mn1116 2.094 . S
O1142 C1120 1.240 . S
O1143 Mn1117 2.117 . S
O1143 C1120 1.264 . S
C1144 C1137 1.403 . S
C1144 C1145 1.399 . S
C1144 H1150 0.929 . S
C1145 C1125 1.449 . S
C1145 C1144 1.399 . S
C1145 H1151 0.930 . S
H1146 C1126 0.931 . S
H1147 C1127 0.930 . S
H1148 C1135 0.931 . S
H1149 C1136 0.929 . S
H1150 C1144 0.929 . S
H1151 C1145 0.930 . S
C1152 C1153 1.387 1_454 S
C1152 H1156 0.950 . S
C1152 C1161 1.390 . S
C1153 C1152 1.387 1_656 S
C1153 C1155 1.387 . S
H1154 C1161 0.950 . S
C1155 C1153 1.387 . S
C1155 C1157 1.390 . S
C1155 H1159 0.950 . S
H1156 C1152 0.950 . S
C1157 C1155 1.390 . S
C1157 C1158 1.387 1_656 S
C1157 H1160 0.950 . S
C1158 C1157 1.387 1_454 S
C1158 C1161 1.387 . S
H1159 C1155 0.950 . S
H1160 C1157 0.950 . S
C1161 C1152 1.390 . S
C1161 H1154 0.950 . S
C1161 C1158 1.387 . S
C1162 C1163 1.387 . S
C1162 H1166 0.950 . S
C1162 C1171 1.390 . S
C1163 C1162 1.387 . S
C1163 C1165 1.387 . S
H1164 C1171 0.950 . S
C1165 C1163 1.387 . S
C1165 C1167 1.390 . S
C1165 H1169 0.950 . S
H1166 C1162 0.950 . S
C1167 C1165 1.390 . S
C1167 C1168 1.387 . S
C1167 H1170 0.950 . S
C1168 C1167 1.387 . S
C1168 C1171 1.387 . S
H1169 C1165 0.950 . S
H1170 C1167 0.950 . S
C1171 C1162 1.390 . S
C1171 H1164 0.950 . S
C1171 C1168 1.387 . S
C1172 C1173 1.387 . S
C1172 H1176 0.950 . S
C1172 C1181 1.390 . S
C1173 C1172 1.387 . S
C1173 C1175 1.387 . S
H1174 C1181 0.950 . S
C1175 C1173 1.387 . S
C1175 C1177 1.390 . S
C1175 H1179 0.950 . S
H1176 C1172 0.950 . S
C1177 C1175 1.390 . S
C1177 C1178 1.387 . S
C1177 H1180 0.950 . S
C1178 C1177 1.387 . S
C1178 C1181 1.387 . S
H1179 C1175 0.950 . S
H1180 C1177 0.950 . S
C1181 C1172 1.390 . S
C1181 H1174 0.950 . S
C1181 C1178 1.387 . S
C1182 C1183 1.387 . S
C1182 H1186 0.950 . S
C1182 C1191 1.390 . S
C1183 C1182 1.387 . S
C1183 C1185 1.387 . S
H1184 C1191 0.950 . S
C1185 C1183 1.387 . S
C1185 C1187 1.390 . S
C1185 H1189 0.950 . S
H1186 C1182 0.950 . S
C1187 C1185 1.390 . S
C1187 C1188 1.387 . S
C1187 H1190 0.950 . S
C1188 C1187 1.387 . S
C1188 C1191 1.387 . S
H1189 C1185 0.950 . S
H1190 C1187 0.950 . S
C1191 C1182 1.390 . S
C1191 H1184 0.950 . S
C1191 C1188 1.387 . S
C1192 C1193 1.387 . S
C1192 H1196 0.950 . S
C1192 C1201 1.390 1_655 S
C1193 C1192 1.387 . S
C1193 C1195 1.387 . S
H1194 C1201 0.950 . S
C1195 C1193 1.387 . S
C1195 C1197 1.390 1_655 S
C1195 H1199 0.950 . S
H1196 C1192 0.950 . S
C1197 C1195 1.390 1_455 S
C1197 C1198 1.387 . S
C1197 H1200 0.950 . S
C1198 C1197 1.387 . S
C1198 C1201 1.387 . S
H1199 C1195 0.950 . S
H1200 C1197 0.950 . S
C1201 C1192 1.390 1_455 S
C1201 H1194 0.950 . S
C1201 C1198 1.387 . S
C1202 C1203 1.387 . S
C1202 H1206 0.950 . S
C1202 C1211 1.390 . S
C1203 C1202 1.387 . S
C1203 C1205 1.387 . S
H1204 C1211 0.950 . S
C1205 C1203 1.387 . S
C1205 C1207 1.390 . S
C1205 H1209 0.950 . S
H1206 C1202 0.950 . S
C1207 C1205 1.390 . S
C1207 C1208 1.387 . S
C1207 H1210 0.950 . S
C1208 C1207 1.387 . S
C1208 C1211 1.387 . S
H1209 C1205 0.950 . S
H1210 C1207 0.950 . S
C1211 C1202 1.390 . S
C1211 H1204 0.950 . S
C1211 C1208 1.387 . S
C1212 C1213 1.387 1_554 S
C1212 H1216 0.950 . S
C1212 C1221 1.390 . S
C1213 C1212 1.387 1_556 S
C1213 C1215 1.387 . S
H1214 C1221 0.950 . S
C1215 C1213 1.387 . S
C1215 C1217 1.390 . S
C1215 H1219 0.950 . S
H1216 C1212 0.950 . S
C1217 C1215 1.390 . S
C1217 C1218 1.387 1_556 S
C1217 H1220 0.950 . S
C1218 C1217 1.387 1_554 S
C1218 C1221 1.387 . S
H1219 C1215 0.950 . S
H1220 C1217 0.950 . S
C1221 C1212 1.390 . S
C1221 H1214 0.950 . S
C1221 C1218 1.387 . S
C1222 C1223 1.387 . S
C1222 H1226 0.950 . S
C1222 C1231 1.390 . S
C1223 C1222 1.387 . S
C1223 C1225 1.387 . S
H1224 C1231 0.950 . S
C1225 C1223 1.387 . S
C1225 C1227 1.390 . S
C1225 H1229 0.950 . S
H1226 C1222 0.950 . S
C1227 C1225 1.390 . S
C1227 C1228 1.387 . S
C1227 H1230 0.950 . S
C1228 C1227 1.387 . S
C1228 C1231 1.387 . S
H1229 C1225 0.950 . S
H1230 C1227 0.950 . S
C1231 C1222 1.390 . S
C1231 H1224 0.950 . S
C1231 C1228 1.387 . S
C1232 C1233 1.387 . S
C1232 H1236 0.950 . S
C1232 C1241 1.390 . S
C1233 C1232 1.387 . S
C1233 C1235 1.387 . S
H1234 C1241 0.950 . S
C1235 C1233 1.387 . S
C1235 C1237 1.390 . S
C1235 H1239 0.950 . S
H1236 C1232 0.950 . S
C1237 C1235 1.390 . S
C1237 C1238 1.387 . S
C1237 H1240 0.950 . S
C1238 C1237 1.387 . S
C1238 C1241 1.387 . S
H1239 C1235 0.950 . S
H1240 C1237 0.950 . S
C1241 C1232 1.390 . S
C1241 H1234 0.950 . S
C1241 C1238 1.387 . S
C1242 C1243 1.387 . S
C1242 H1246 0.950 . S
C1242 C1251 1.390 . S
C1243 C1242 1.387 . S
C1243 C1245 1.387 . S
H1244 C1251 0.950 . S
C1245 C1243 1.387 . S
C1245 C1247 1.390 . S
C1245 H1249 0.950 . S
H1246 C1242 0.950 . S
C1247 C1245 1.390 . S
C1247 C1248 1.387 . S
C1247 H1250 0.950 . S
C1248 C1247 1.387 . S
C1248 C1251 1.387 . S
H1249 C1245 0.950 . S
H1250 C1247 0.950 . S
C1251 C1242 1.390 . S
C1251 H1244 0.950 . S
C1251 C1248 1.387 . S
C1252 C1253 1.387 . S
C1252 H1256 0.950 . S
C1252 C1261 1.390 . S
C1253 C1252 1.387 . S
C1253 C1255 1.387 . S
H1254 C1261 0.950 . S
C1255 C1253 1.387 . S
C1255 C1257 1.390 . S
C1255 H1259 0.950 . S
H1256 C1252 0.950 . S
C1257 C1255 1.390 . S
C1257 C1258 1.387 . S
C1257 H1260 0.950 . S
C1258 C1257 1.387 . S
C1258 C1261 1.387 . S
H1259 C1255 0.950 . S
H1260 C1257 0.950 . S
C1261 C1252 1.390 . S
C1261 H1254 0.950 . S
C1261 C1258 1.387 . S
C1262 C1263 1.387 . S
C1262 H1266 0.950 . S
C1262 C1271 1.390 . S
C1263 C1262 1.387 . S
C1263 C1265 1.387 . S
H1264 C1271 0.950 . S
C1265 C1263 1.387 . S
C1265 C1267 1.390 . S
C1265 H1269 0.950 . S
H1266 C1262 0.950 . S
C1267 C1265 1.390 . S
C1267 C1268 1.387 . S
C1267 H1270 0.950 . S
C1268 C1267 1.387 . S
C1268 C1271 1.387 . S
H1269 C1265 0.950 . S
H1270 C1267 0.950 . S
C1271 C1262 1.390 . S
C1271 H1264 0.950 . S
C1271 C1268 1.387 . S
C1272 C1273 1.387 . S
C1272 H1276 0.950 . S
C1272 C1281 1.390 . S
C1273 C1272 1.387 . S
C1273 C1275 1.387 1_565 S
H1274 C1281 0.950 . S
C1275 C1273 1.387 1_545 S
C1275 C1277 1.390 . S
C1275 H1279 0.950 . S
H1276 C1272 0.950 . S
C1277 C1275 1.390 . S
C1277 C1278 1.387 . S
C1277 H1280 0.950 . S
C1278 C1277 1.387 . S
C1278 C1281 1.387 1_545 S
H1279 C1275 0.950 . S
H1280 C1277 0.950 . S
C1281 C1272 1.390 . S
C1281 H1274 0.950 . S
C1281 C1278 1.387 1_565 S
C1282 C1283 1.387 1_545 S
C1282 H1286 0.950 . S
C1282 C1291 1.390 1_455 S
C1283 C1282 1.387 1_565 S
C1283 C1285 1.387 1_556 S
H1284 C1291 0.950 . S
C1285 C1283 1.387 1_554 S
C1285 C1287 1.390 1_455 S
C1285 H1289 0.950 . S
H1286 C1282 0.950 . S
C1287 C1285 1.390 1_655 S
C1287 C1288 1.387 1_565 S
C1287 H1290 0.950 . S
C1288 C1287 1.387 1_545 S
C1288 C1291 1.387 1_554 S
H1289 C1285 0.950 . S
H1290 C1287 0.950 . S
C1291 C1282 1.390 1_655 S
C1291 H1284 0.950 . S
C1291 C1288 1.387 1_556 S
C1292 C1293 1.387 1_565 S
C1292 H1296 0.950 . S
C1292 C1301 1.390 . S
C1293 C1292 1.387 1_545 S
C1293 C1295 1.387 1_556 S
H1294 C1301 0.950 . S
C1295 C1293 1.387 1_554 S
C1295 C1297 1.390 . S
C1295 H1299 0.950 . S
H1296 C1292 0.950 . S
C1297 C1295 1.390 . S
C1297 C1298 1.387 1_545 S
C1297 H1300 0.950 . S
C1298 C1297 1.387 1_565 S
C1298 C1301 1.387 1_554 S
H1299 C1295 0.950 . S
H1300 C1297 0.950 . S
C1301 C1292 1.390 . S
C1301 H1294 0.950 . S
C1301 C1298 1.387 1_556 S
C1302 C1303 1.387 1_565 S
C1302 H1306 0.950 . S
C1302 C1311 1.390 . S
C1303 C1302 1.387 1_545 S
C1303 C1305 1.387 1_455 S
H1304 C1311 0.950 . S
C1305 C1303 1.387 1_655 S
C1305 C1307 1.390 . S
C1305 H1309 0.950 . S
H1306 C1302 0.950 . S
C1307 C1305 1.390 . S
C1307 C1308 1.387 1_545 S
C1307 H1310 0.950 . S
C1308 C1307 1.387 1_565 S
C1308 C1311 1.387 1_655 S
H1309 C1305 0.950 . S
H1310 C1307 0.950 . S
C1311 C1302 1.390 . S
C1311 H1304 0.950 . S
C1311 C1308 1.387 1_455 S
C1312 C1313 1.387 . S
C1312 H1316 0.950 . S
C1312 C1321 1.390 1_655 S
C1313 C1312 1.387 . S
C1313 C1315 1.387 . S
H1314 C1321 0.950 . S
C1315 C1313 1.387 . S
C1315 C1317 1.390 1_655 S
C1315 H1319 0.950 . S
H1316 C1312 0.950 . S
C1317 C1315 1.390 1_455 S
C1317 C1318 1.387 . S
C1317 H1320 0.950 . S
C1318 C1317 1.387 . S
C1318 C1321 1.387 . S
H1319 C1315 0.950 . S
H1320 C1317 0.950 . S
C1321 C1312 1.390 1_455 S
C1321 H1314 0.950 . S
C1321 C1318 1.387 . S
C1322 C1323 1.387 . S
C1322 H1326 0.950 . S
C1322 C1331 1.390 1_455 S
C1323 C1322 1.387 . S
C1323 C1325 1.387 . S
H1324 C1331 0.950 . S
C1325 C1323 1.387 . S
C1325 C1327 1.390 1_455 S
C1325 H1329 0.950 . S
H1326 C1322 0.950 . S
C1327 C1325 1.390 1_655 S
C1327 C1328 1.387 . S
C1327 H1330 0.950 . S
C1328 C1327 1.387 . S
C1328 C1331 1.387 . S
H1329 C1325 0.950 . S
H1330 C1327 0.950 . S
C1331 C1322 1.390 1_655 S
C1331 H1324 0.950 . S
C1331 C1328 1.387 . S
C1332 C1333 1.387 . S
C1332 H1336 0.950 . S
C1332 C1341 1.390 . S
C1333 C1332 1.387 . S
C1333 C1335 1.387 . S
H1334 C1341 0.950 . S
C1335 C1333 1.387 . S
C1335 C1337 1.390 . S
C1335 H1339 0.950 . S
H1336 C1332 0.950 . S
C1337 C1335 1.390 . S
C1337 C1338 1.387 . S
C1337 H1340 0.950 . S
C1338 C1337 1.387 . S
C1338 C1341 1.387 . S
H1339 C1335 0.950 . S
H1340 C1337 0.950 . S
C1341 C1332 1.390 . S
C1341 H1334 0.950 . S
C1341 C1338 1.387 . S
C1342 C1343 1.387 . S
C1342 H1346 0.950 . S
C1342 C1351 1.390 . S
C1343 C1342 1.387 . S
C1343 C1345 1.387 . S
H1344 C1351 0.950 . S
C1345 C1343 1.387 . S
C1345 C1347 1.390 . S
C1345 H1349 0.950 . S
H1346 C1342 0.950 . S
C1347 C1345 1.390 . S
C1347 C1348 1.387 . S
C1347 H1350 0.950 . S
C1348 C1347 1.387 . S
C1348 C1351 1.387 . S
H1349 C1345 0.950 . S
H1350 C1347 0.950 . S
C1351 C1342 1.390 . S
C1351 H1344 0.950 . S
C1351 C1348 1.387 . S
C1352 C1353 1.387 . S
C1352 H1356 0.950 . S
C1352 C1361 1.390 1_655 S
C1353 C1352 1.387 . S
C1353 C1355 1.387 . S
H1354 C1361 0.950 . S
C1355 C1353 1.387 . S
C1355 C1357 1.390 1_655 S
C1355 H1359 0.950 . S
H1356 C1352 0.950 . S
C1357 C1355 1.390 1_455 S
C1357 C1358 1.387 . S
C1357 H1360 0.950 . S
C1358 C1357 1.387 . S
C1358 C1361 1.387 . S
H1359 C1355 0.950 . S
H1360 C1357 0.950 . S
C1361 C1352 1.390 1_455 S
C1361 H1354 0.950 . S
C1361 C1358 1.387 . S
C1362 C1363 1.387 . S
C1362 H1366 0.950 . S
C1362 C1371 1.390 . S
C1363 C1362 1.387 . S
C1363 C1365 1.387 . S
H1364 C1371 0.950 . S
C1365 C1363 1.387 . S
C1365 C1367 1.390 . S
C1365 H1369 0.950 . S
H1366 C1362 0.950 . S
C1367 C1365 1.390 . S
C1367 C1368 1.387 . S
C1367 H1370 0.950 . S
C1368 C1367 1.387 . S
C1368 C1371 1.387 . S
H1369 C1365 0.950 . S
H1370 C1367 0.950 . S
C1371 C1362 1.390 . S
C1371 H1364 0.950 . S
C1371 C1368 1.387 . S
C1372 C1373 1.387 . S
C1372 H1376 0.950 . S
C1372 C1381 1.390 . S
C1373 C1372 1.387 . S
C1373 C1375 1.387 . S
H1374 C1381 0.950 . S
C1375 C1373 1.387 . S
C1375 C1377 1.390 . S
C1375 H1379 0.950 . S
H1376 C1372 0.950 . S
C1377 C1375 1.390 . S
C1377 C1378 1.387 . S
C1377 H1380 0.950 . S
C1378 C1377 1.387 . S
C1378 C1381 1.387 . S
H1379 C1375 0.950 . S
H1380 C1377 0.950 . S
C1381 C1372 1.390 . S
C1381 H1374 0.950 . S
C1381 C1378 1.387 . S
C1382 C1383 1.387 . S
C1382 H1386 0.950 . S
C1382 C1391 1.390 1_455 S
C1383 C1382 1.387 . S
C1383 C1385 1.387 . S
H1384 C1391 0.950 . S
C1385 C1383 1.387 . S
C1385 C1387 1.390 1_455 S
C1385 H1389 0.950 . S
H1386 C1382 0.950 . S
C1387 C1385 1.390 1_655 S
C1387 C1388 1.387 . S
C1387 H1390 0.950 . S
C1388 C1387 1.387 . S
C1388 C1391 1.387 . S
H1389 C1385 0.950 . S
H1390 C1387 0.950 . S
C1391 C1382 1.390 1_655 S
C1391 H1384 0.950 . S
C1391 C1388 1.387 . S
C1392 C1393 1.387 . S
C1392 H1396 0.950 . S
C1392 C1401 1.390 1_655 S
C1393 C1392 1.387 . S
C1393 C1395 1.387 . S
H1394 C1401 0.950 . S
C1395 C1393 1.387 . S
C1395 C1397 1.390 1_655 S
C1395 H1399 0.950 . S
H1396 C1392 0.950 . S
C1397 C1395 1.390 1_455 S
C1397 C1398 1.387 . S
C1397 H1400 0.950 . S
C1398 C1397 1.387 . S
C1398 C1401 1.387 . S
H1399 C1395 0.950 . S
H1400 C1397 0.950 . S
C1401 C1392 1.390 1_455 S
C1401 H1394 0.950 . S
C1401 C1398 1.387 . S
C1402 C1403 1.387 . S
C1402 H1406 0.950 . S
C1402 C1411 1.390 1_655 S
C1403 C1402 1.387 . S
C1403 C1405 1.387 . S
H1404 C1411 0.950 . S
C1405 C1403 1.387 . S
C1405 C1407 1.390 1_655 S
C1405 H1409 0.950 . S
H1406 C1402 0.950 . S
C1407 C1405 1.390 1_455 S
C1407 C1408 1.387 . S
C1407 H1410 0.950 . S
C1408 C1407 1.387 . S
C1408 C1411 1.387 . S
H1409 C1405 0.950 . S
H1410 C1407 0.950 . S
C1411 C1402 1.390 1_455 S
C1411 H1404 0.950 . S
C1411 C1408 1.387 . S
C1412 C1413 1.387 . S
C1412 H1416 0.950 . S
C1412 C1421 1.390 . S
C1413 C1412 1.387 . S
C1413 C1415 1.387 . S
H1414 C1421 0.950 . S
C1415 C1413 1.387 . S
C1415 C1417 1.390 . S
C1415 H1419 0.950 . S
H1416 C1412 0.950 . S
C1417 C1415 1.390 . S
C1417 C1418 1.387 . S
C1417 H1420 0.950 . S
C1418 C1417 1.387 . S
C1418 C1421 1.387 . S
H1419 C1415 0.950 . S
H1420 C1417 0.950 . S
C1421 C1412 1.390 . S
C1421 H1414 0.950 . S
C1421 C1418 1.387 . S
C1422 C1423 1.387 . S
C1422 H1426 0.950 . S
C1422 C1431 1.390 . S
C1423 C1422 1.387 . S
C1423 C1425 1.387 . S
H1424 C1431 0.950 . S
C1425 C1423 1.387 . S
C1425 C1427 1.390 . S
C1425 H1429 0.950 . S
H1426 C1422 0.950 . S
C1427 C1425 1.390 . S
C1427 C1428 1.387 . S
C1427 H1430 0.950 . S
C1428 C1427 1.387 . S
C1428 C1431 1.387 . S
H1429 C1425 0.950 . S
H1430 C1427 0.950 . S
C1431 C1422 1.390 . S
C1431 H1424 0.950 . S
C1431 C1428 1.387 . S
C1432 C1433 1.387 . S
C1432 H1436 0.950 . S
C1432 C1441 1.390 1_655 S
C1433 C1432 1.387 . S
C1433 C1435 1.387 . S
H1434 C1441 0.950 . S
C1435 C1433 1.387 . S
C1435 C1437 1.390 1_655 S
C1435 H1439 0.950 . S
H1436 C1432 0.950 . S
C1437 C1435 1.390 1_455 S
C1437 C1438 1.387 . S
C1437 H1440 0.950 . S
C1438 C1437 1.387 . S
C1438 C1441 1.387 . S
H1439 C1435 0.950 . S
H1440 C1437 0.950 . S
C1441 C1432 1.390 1_455 S
C1441 H1434 0.950 . S
C1441 C1438 1.387 . S
C1442 C1443 1.387 . S
C1442 H1446 0.950 . S
C1442 C1451 1.390 . S
C1443 C1442 1.387 . S
C1443 C1445 1.387 . S
H1444 C1451 0.950 . S
C1445 C1443 1.387 . S
C1445 C1447 1.390 . S
C1445 H1449 0.950 . S
H1446 C1442 0.950 . S
C1447 C1445 1.390 . S
C1447 C1448 1.387 . S
C1447 H1450 0.950 . S
C1448 C1447 1.387 . S
C1448 C1451 1.387 . S
H1449 C1445 0.950 . S
H1450 C1447 0.950 . S
C1451 C1442 1.390 . S
C1451 H1444 0.950 . S
C1451 C1448 1.387 . S
C1452 C1453 1.387 . S
C1452 H1456 0.950 . S
C1452 C1461 1.390 . S
C1453 C1452 1.387 . S
C1453 C1455 1.387 . S
H1454 C1461 0.950 . S
C1455 C1453 1.387 . S
C1455 C1457 1.390 . S
C1455 H1459 0.950 . S
H1456 C1452 0.950 . S
C1457 C1455 1.390 . S
C1457 C1458 1.387 . S
C1457 H1460 0.950 . S
C1458 C1457 1.387 . S
C1458 C1461 1.387 . S
H1459 C1455 0.950 . S
H1460 C1457 0.950 . S
C1461 C1452 1.390 . S
C1461 H1454 0.950 . S
C1461 C1458 1.387 . S
C1462 C1463 1.387 . S
C1462 H1466 0.950 . S
C1462 C1471 1.390 1_655 S
C1463 C1462 1.387 . S
C1463 C1465 1.387 . S
H1464 C1471 0.950 . S
C1465 C1463 1.387 . S
C1465 C1467 1.390 1_655 S
C1465 H1469 0.950 . S
H1466 C1462 0.950 . S
C1467 C1465 1.390 1_455 S
C1467 C1468 1.387 . S
C1467 H1470 0.950 . S
C1468 C1467 1.387 . S
C1468 C1471 1.387 . S
H1469 C1465 0.950 . S
H1470 C1467 0.950 . S
C1471 C1462 1.390 1_455 S
C1471 H1464 0.950 . S
C1471 C1468 1.387 . S
C1472 C1473 1.387 . S
C1472 H1476 0.950 . S
C1472 C1481 1.390 1_556 S
C1473 C1472 1.387 . S
C1473 C1475 1.387 . S
H1474 C1481 0.950 . S
C1475 C1473 1.387 . S
C1475 C1477 1.390 1_556 S
C1475 H1479 0.950 . S
H1476 C1472 0.950 . S
C1477 C1475 1.390 1_554 S
C1477 C1478 1.387 . S
C1477 H1480 0.950 . S
C1478 C1477 1.387 . S
C1478 C1481 1.387 . S
H1479 C1475 0.950 . S
H1480 C1477 0.950 . S
C1481 C1472 1.390 1_554 S
C1481 H1474 0.950 . S
C1481 C1478 1.387 . S
C1482 C1483 1.387 . S
C1482 H1486 0.950 . S
C1482 C1491 1.390 1_545 S
C1483 C1482 1.387 . S
C1483 C1485 1.387 . S
H1484 C1491 0.950 . S
C1485 C1483 1.387 . S
C1485 C1487 1.390 1_545 S
C1485 H1489 0.950 . S
H1486 C1482 0.950 . S
C1487 C1485 1.390 1_565 S
C1487 C1488 1.387 . S
C1487 H1490 0.950 . S
C1488 C1487 1.387 . S
C1488 C1491 1.387 . S
H1489 C1485 0.950 . S
H1490 C1487 0.950 . S
C1491 C1482 1.390 1_565 S
C1491 H1484 0.950 . S
C1491 C1488 1.387 . S
C1492 C1493 1.387 . S
C1492 H1496 0.950 . S
C1492 C1501 1.390 . S
C1493 C1492 1.387 . S
C1493 C1495 1.387 . S
H1494 C1501 0.950 . S
C1495 C1493 1.387 . S
C1495 C1497 1.390 . S
C1495 H1499 0.950 . S
H1496 C1492 0.950 . S
C1497 C1495 1.390 . S
C1497 C1498 1.387 . S
C1497 H1500 0.950 . S
C1498 C1497 1.387 . S
C1498 C1501 1.387 . S
H1499 C1495 0.950 . S
H1500 C1497 0.950 . S
C1501 C1492 1.390 . S
C1501 H1494 0.950 . S
C1501 C1498 1.387 . S
C1502 C1503 1.387 . S
C1502 H1506 0.950 . S
C1502 C1511 1.390 1_545 S
C1503 C1502 1.387 . S
C1503 C1505 1.387 . S
H1504 C1511 0.950 . S
C1505 C1503 1.387 . S
C1505 C1507 1.390 1_545 S
C1505 H1509 0.950 . S
H1506 C1502 0.950 . S
C1507 C1505 1.390 1_565 S
C1507 C1508 1.387 . S
C1507 H1510 0.950 . S
C1508 C1507 1.387 . S
C1508 C1511 1.387 . S
H1509 C1505 0.950 . S
H1510 C1507 0.950 . S
C1511 C1502 1.390 1_565 S
C1511 H1504 0.950 . S
C1511 C1508 1.387 . S
C1512 C1513 1.387 . S
C1512 H1516 0.950 . S
C1512 C1521 1.390 1_554 S
C1513 C1512 1.387 . S
C1513 C1515 1.387 . S
H1514 C1521 0.950 . S
C1515 C1513 1.387 . S
C1515 C1517 1.390 1_554 S
C1515 H1519 0.950 . S
H1516 C1512 0.950 . S
C1517 C1515 1.390 1_556 S
C1517 C1518 1.387 . S
C1517 H1520 0.950 . S
C1518 C1517 1.387 . S
C1518 C1521 1.387 . S
H1519 C1515 0.950 . S
H1520 C1517 0.950 . S
C1521 C1512 1.390 1_556 S
C1521 H1514 0.950 . S
C1521 C1518 1.387 . S
C1522 C1523 1.387 . S
C1522 H1526 0.950 . S
C1522 C1531 1.390 1_565 S
C1523 C1522 1.387 . S
C1523 C1525 1.387 . S
H1524 C1531 0.950 . S
C1525 C1523 1.387 . S
C1525 C1527 1.390 1_565 S
C1525 H1529 0.950 . S
H1526 C1522 0.950 . S
C1527 C1525 1.390 1_545 S
C1527 C1528 1.387 . S
C1527 H1530 0.950 . S
C1528 C1527 1.387 . S
C1528 C1531 1.387 . S
H1529 C1525 0.950 . S
H1530 C1527 0.950 . S
C1531 C1522 1.390 1_545 S
C1531 H1524 0.950 . S
C1531 C1528 1.387 . S
C1532 C1533 1.387 . S
C1532 H1536 0.950 . S
C1532 C1541 1.390 . S
C1533 C1532 1.387 . S
C1533 C1535 1.387 . S
H1534 C1541 0.950 . S
C1535 C1533 1.387 . S
C1535 C1537 1.390 . S
C1535 H1539 0.950 . S
H1536 C1532 0.950 . S
C1537 C1535 1.390 . S
C1537 C1538 1.387 . S
C1537 H1540 0.950 . S
C1538 C1537 1.387 . S
C1538 C1541 1.387 . S
H1539 C1535 0.950 . S
H1540 C1537 0.950 . S
C1541 C1532 1.390 . S
C1541 H1534 0.950 . S
C1541 C1538 1.387 . S
C1542 C1543 1.387 . S
C1542 H1546 0.950 . S
C1542 C1551 1.390 1_545 S
C1543 C1542 1.387 . S
C1543 C1545 1.387 . S
H1544 C1551 0.950 . S
C1545 C1543 1.387 . S
C1545 C1547 1.390 1_545 S
C1545 H1549 0.950 . S
H1546 C1542 0.950 . S
C1547 C1545 1.390 1_565 S
C1547 C1548 1.387 . S
C1547 H1550 0.950 . S
C1548 C1547 1.387 . S
C1548 C1551 1.387 . S
H1549 C1545 0.950 . S
H1550 C1547 0.950 . S
C1551 C1542 1.390 1_565 S
C1551 H1544 0.950 . S
C1551 C1548 1.387 . S
C1552 C1553 1.387 . S
C1552 H1556 0.950 . S
C1552 C1561 1.390 . S
C1553 C1552 1.387 . S
C1553 C1555 1.387 . S
H1554 C1561 0.950 . S
C1555 C1553 1.387 . S
C1555 C1557 1.390 . S
C1555 H1559 0.950 . S
H1556 C1552 0.950 . S
C1557 C1555 1.390 . S
C1557 C1558 1.387 . S
C1557 H1560 0.950 . S
C1558 C1557 1.387 . S
C1558 C1561 1.387 . S
H1559 C1555 0.950 . S
H1560 C1557 0.950 . S
C1561 C1552 1.390 . S
C1561 H1554 0.950 . S
C1561 C1558 1.387 . S
C1562 C1563 1.387 . S
C1562 H1566 0.950 . S
C1562 C1571 1.390 . S
C1563 C1562 1.387 . S
C1563 C1565 1.387 . S
H1564 C1571 0.950 . S
C1565 C1563 1.387 . S
C1565 C1567 1.390 . S
C1565 H1569 0.950 . S
H1566 C1562 0.950 . S
C1567 C1565 1.390 . S
C1567 C1568 1.387 . S
C1567 H1570 0.950 . S
C1568 C1567 1.387 . S
C1568 C1571 1.387 . S
H1569 C1565 0.950 . S
H1570 C1567 0.950 . S
C1571 C1562 1.390 . S
C1571 H1564 0.950 . S
C1571 C1568 1.387 . S
C1572 C1573 1.387 . S
C1572 H1576 0.950 . S
C1572 C1581 1.390 1_554 S
C1573 C1572 1.387 . S
C1573 C1575 1.387 . S
H1574 C1581 0.950 . S
C1575 C1573 1.387 . S
C1575 C1577 1.390 1_554 S
C1575 H1579 0.950 . S
H1576 C1572 0.950 . S
C1577 C1575 1.390 1_556 S
C1577 C1578 1.387 . S
C1577 H1580 0.950 . S
C1578 C1577 1.387 . S
C1578 C1581 1.387 . S
H1579 C1575 0.950 . S
H1580 C1577 0.950 . S
C1581 C1572 1.390 1_556 S
C1581 H1574 0.950 . S
C1581 C1578 1.387 . S
C1582 C1583 1.387 . S
C1582 H1586 0.950 . S
C1582 C1591 1.390 . S
C1583 C1582 1.387 . S
C1583 C1585 1.387 . S
H1584 C1591 0.950 . S
C1585 C1583 1.387 . S
C1585 C1587 1.390 . S
C1585 H1589 0.950 . S
H1586 C1582 0.950 . S
C1587 C1585 1.390 . S
C1587 C1588 1.387 . S
C1587 H1590 0.950 . S
C1588 C1587 1.387 . S
C1588 C1591 1.387 . S
H1589 C1585 0.950 . S
H1590 C1587 0.950 . S
C1591 C1582 1.390 . S
C1591 H1584 0.950 . S
C1591 C1588 1.387 . S
C1592 C1593 1.387 . S
C1592 H1596 0.950 . S
C1592 C1601 1.390 . S
C1593 C1592 1.387 . S
C1593 C1595 1.387 . S
H1594 C1601 0.950 . S
C1595 C1593 1.387 . S
C1595 C1597 1.390 . S
C1595 H1599 0.950 . S
H1596 C1592 0.950 . S
C1597 C1595 1.390 . S
C1597 C1598 1.387 . S
C1597 H1600 0.950 . S
C1598 C1597 1.387 . S
C1598 C1601 1.387 . S
H1599 C1595 0.950 . S
H1600 C1597 0.950 . S
C1601 C1592 1.390 . S
C1601 H1594 0.950 . S
C1601 C1598 1.387 . S
C1602 C1603 1.387 . S
C1602 H1606 0.950 . S
C1602 C1611 1.390 . S
C1603 C1602 1.387 . S
C1603 C1605 1.387 . S
H1604 C1611 0.950 . S
C1605 C1603 1.387 . S
C1605 C1607 1.390 . S
C1605 H1609 0.950 . S
H1606 C1602 0.950 . S
C1607 C1605 1.390 . S
C1607 C1608 1.387 . S
C1607 H1610 0.950 . S
C1608 C1607 1.387 . S
C1608 C1611 1.387 . S
H1609 C1605 0.950 . S
H1610 C1607 0.950 . S
C1611 C1602 1.390 . S
C1611 H1604 0.950 . S
C1611 C1608 1.387 . S
C1612 C1613 1.387 . S
C1612 H1616 0.950 . S
C1612 C1621 1.390 1_556 S
C1613 C1612 1.387 . S
C1613 C1615 1.387 . S
H1614 C1621 0.950 . S
C1615 C1613 1.387 . S
C1615 C1617 1.390 1_556 S
C1615 H1619 0.950 . S
H1616 C1612 0.950 . S
C1617 C1615 1.390 1_554 S
C1617 C1618 1.387 . S
C1617 H1620 0.950 . S
C1618 C1617 1.387 . S
C1618 C1621 1.387 . S
H1619 C1615 0.950 . S
H1620 C1617 0.950 . S
C1621 C1612 1.390 1_554 S
C1621 H1614 0.950 . S
C1621 C1618 1.387 . S
C1622 C1623 1.387 . S
C1622 H1626 0.950 . S
C1622 C1631 1.390 . S
C1623 C1622 1.387 . S
C1623 C1625 1.387 . S
H1624 C1631 0.950 . S
C1625 C1623 1.387 . S
C1625 C1627 1.390 . S
C1625 H1629 0.950 . S
H1626 C1622 0.950 . S
C1627 C1625 1.390 . S
C1627 C1628 1.387 . S
C1627 H1630 0.950 . S
C1628 C1627 1.387 . S
C1628 C1631 1.387 . S
H1629 C1625 0.950 . S
H1630 C1627 0.950 . S
C1631 C1622 1.390 . S
C1631 H1624 0.950 . S
C1631 C1628 1.387 . S
C1632 C1633 1.387 . S
C1632 H1636 0.950 . S
C1632 C1641 1.390 . S
C1633 C1632 1.387 . S
C1633 C1635 1.387 . S
H1634 C1641 0.950 . S
C1635 C1633 1.387 . S
C1635 C1637 1.390 . S
C1635 H1639 0.950 . S
H1636 C1632 0.950 . S
C1637 C1635 1.390 . S
C1637 C1638 1.387 . S
C1637 H1640 0.950 . S
C1638 C1637 1.387 . S
C1638 C1641 1.387 . S
H1639 C1635 0.950 . S
H1640 C1637 0.950 . S
C1641 C1632 1.390 . S
C1641 H1634 0.950 . S
C1641 C1638 1.387 . S
C1642 C1643 1.387 . S
C1642 H1646 0.950 . S
C1642 C1651 1.390 . S
C1643 C1642 1.387 . S
C1643 C1645 1.387 . S
H1644 C1651 0.950 . S
C1645 C1643 1.387 . S
C1645 C1647 1.390 . S
C1645 H1649 0.950 . S
H1646 C1642 0.950 . S
C1647 C1645 1.390 . S
C1647 C1648 1.387 . S
C1647 H1650 0.950 . S
C1648 C1647 1.387 . S
C1648 C1651 1.387 . S
H1649 C1645 0.950 . S
H1650 C1647 0.950 . S
C1651 C1642 1.390 . S
C1651 H1644 0.950 . S
C1651 C1648 1.387 . S
C1652 C1653 1.387 . S
C1652 H1656 0.950 . S
C1652 C1661 1.390 . S
C1653 C1652 1.387 . S
C1653 C1655 1.387 . S
H1654 C1661 0.950 . S
C1655 C1653 1.387 . S
C1655 C1657 1.390 . S
C1655 H1659 0.950 . S
H1656 C1652 0.950 . S
C1657 C1655 1.390 . S
C1657 C1658 1.387 . S
C1657 H1660 0.950 . S
C1658 C1657 1.387 . S
C1658 C1661 1.387 . S
H1659 C1655 0.950 . S
H1660 C1657 0.950 . S
C1661 C1652 1.390 . S
C1661 H1654 0.950 . S
C1661 C1658 1.387 . S
C1662 C1663 1.387 . S
C1662 H1666 0.950 . S
C1662 C1671 1.390 . S
C1663 C1662 1.387 . S
C1663 C1665 1.387 . S
H1664 C1671 0.950 . S
C1665 C1663 1.387 . S
C1665 C1667 1.390 . S
C1665 H1669 0.950 . S
H1666 C1662 0.950 . S
C1667 C1665 1.390 . S
C1667 C1668 1.387 . S
C1667 H1670 0.950 . S
C1668 C1667 1.387 . S
C1668 C1671 1.387 . S
H1669 C1665 0.950 . S
H1670 C1667 0.950 . S
C1671 C1662 1.390 . S
C1671 H1664 0.950 . S
C1671 C1668 1.387 . S
C1672 C1673 1.387 . S
C1672 H1676 0.950 . S
C1672 C1681 1.390 . S
C1673 C1672 1.387 . S
C1673 C1675 1.387 . S
H1674 C1681 0.950 . S
C1675 C1673 1.387 . S
C1675 C1677 1.390 . S
C1675 H1679 0.950 . S
H1676 C1672 0.950 . S
C1677 C1675 1.390 . S
C1677 C1678 1.387 . S
C1677 H1680 0.950 . S
C1678 C1677 1.387 . S
C1678 C1681 1.387 . S
H1679 C1675 0.950 . S
H1680 C1677 0.950 . S
C1681 C1672 1.390 . S
C1681 H1674 0.950 . S
C1681 C1678 1.387 . S
C1682 C1683 1.387 . S
C1682 H1686 0.950 . S
C1682 C1691 1.390 . S
C1683 C1682 1.387 . S
C1683 C1685 1.387 . S
H1684 C1691 0.950 . S
C1685 C1683 1.387 . S
C1685 C1687 1.390 . S
C1685 H1689 0.950 . S
H1686 C1682 0.950 . S
C1687 C1685 1.390 . S
C1687 C1688 1.387 . S
C1687 H1690 0.950 . S
C1688 C1687 1.387 . S
C1688 C1691 1.387 . S
H1689 C1685 0.950 . S
H1690 C1687 0.950 . S
C1691 C1682 1.390 . S
C1691 H1684 0.950 . S
C1691 C1688 1.387 . S
C1692 C1693 1.387 . S
C1692 H1696 0.950 . S
C1692 C1701 1.390 . S
C1693 C1692 1.387 . S
C1693 C1695 1.387 . S
H1694 C1701 0.950 . S
C1695 C1693 1.387 . S
C1695 C1697 1.390 . S
C1695 H1699 0.950 . S
H1696 C1692 0.950 . S
C1697 C1695 1.390 . S
C1697 C1698 1.387 . S
C1697 H1700 0.950 . S
C1698 C1697 1.387 . S
C1698 C1701 1.387 . S
H1699 C1695 0.950 . S
H1700 C1697 0.950 . S
C1701 C1692 1.390 . S
C1701 H1694 0.950 . S
C1701 C1698 1.387 . S
C1702 C1703 1.387 . S
C1702 H1706 0.950 . S
C1702 C1711 1.390 . S
C1703 C1702 1.387 . S
C1703 C1705 1.387 . S
H1704 C1711 0.950 . S
C1705 C1703 1.387 . S
C1705 C1707 1.390 . S
C1705 H1709 0.950 . S
H1706 C1702 0.950 . S
C1707 C1705 1.390 . S
C1707 C1708 1.387 . S
C1707 H1710 0.950 . S
C1708 C1707 1.387 . S
C1708 C1711 1.387 . S
H1709 C1705 0.950 . S
H1710 C1707 0.950 . S
C1711 C1702 1.390 . S
C1711 H1704 0.950 . S
C1711 C1708 1.387 . S
C1712 C1713 1.387 . S
C1712 H1716 0.950 . S
C1712 C1721 1.390 . S
C1713 C1712 1.387 . S
C1713 C1715 1.387 . S
H1714 C1721 0.950 . S
C1715 C1713 1.387 . S
C1715 C1717 1.390 . S
C1715 H1719 0.950 . S
H1716 C1712 0.950 . S
C1717 C1715 1.390 . S
C1717 C1718 1.387 . S
C1717 H1720 0.950 . S
C1718 C1717 1.387 . S
C1718 C1721 1.387 . S
H1719 C1715 0.950 . S
H1720 C1717 0.950 . S
C1721 C1712 1.390 . S
C1721 H1714 0.950 . S
C1721 C1718 1.387 . S
C1722 C1723 1.387 . S
C1722 H1726 0.950 . S
C1722 C1731 1.390 . S
C1723 C1722 1.387 . S
C1723 C1725 1.387 . S
H1724 C1731 0.950 . S
C1725 C1723 1.387 . S
C1725 C1727 1.390 . S
C1725 H1729 0.950 . S
H1726 C1722 0.950 . S
C1727 C1725 1.390 . S
C1727 C1728 1.387 . S
C1727 H1730 0.950 . S
C1728 C1727 1.387 . S
C1728 C1731 1.387 . S
H1729 C1725 0.950 . S
H1730 C1727 0.950 . S
C1731 C1722 1.390 . S
C1731 H1724 0.950 . S
C1731 C1728 1.387 . S
C1732 C1733 1.387 . S
C1732 H1736 0.950 . S
C1732 C1741 1.390 . S
C1733 C1732 1.387 . S
C1733 C1735 1.387 . S
H1734 C1741 0.950 . S
C1735 C1733 1.387 . S
C1735 C1737 1.390 . S
C1735 H1739 0.950 . S
H1736 C1732 0.950 . S
C1737 C1735 1.390 . S
C1737 C1738 1.387 . S
C1737 H1740 0.950 . S
C1738 C1737 1.387 . S
C1738 C1741 1.387 . S
H1739 C1735 0.950 . S
H1740 C1737 0.950 . S
C1741 C1732 1.390 . S
C1741 H1734 0.950 . S
C1741 C1738 1.387 . S
C1742 C1743 1.387 . S
C1742 H1746 0.950 . S
C1742 C1751 1.390 . S
C1743 C1742 1.387 . S
C1743 C1745 1.387 . S
H1744 C1751 0.950 . S
C1745 C1743 1.387 . S
C1745 C1747 1.390 . S
C1745 H1749 0.950 . S
H1746 C1742 0.950 . S
C1747 C1745 1.390 . S
C1747 C1748 1.387 . S
C1747 H1750 0.950 . S
C1748 C1747 1.387 . S
C1748 C1751 1.387 . S
H1749 C1745 0.950 . S
H1750 C1747 0.950 . S
C1751 C1742 1.390 . S
C1751 H1744 0.950 . S
C1751 C1748 1.387 . S
C1752 C1753 1.387 . S
C1752 H1756 0.950 . S
C1752 C1761 1.390 . S
C1753 C1752 1.387 . S
C1753 C1755 1.387 . S
H1754 C1761 0.950 . S
C1755 C1753 1.387 . S
C1755 C1757 1.390 . S
C1755 H1759 0.950 . S
H1756 C1752 0.950 . S
C1757 C1755 1.390 . S
C1757 C1758 1.387 . S
C1757 H1760 0.950 . S
C1758 C1757 1.387 . S
C1758 C1761 1.387 . S
H1759 C1755 0.950 . S
H1760 C1757 0.950 . S
C1761 C1752 1.390 . S
C1761 H1754 0.950 . S
C1761 C1758 1.387 . S
C1762 C1763 1.387 . S
C1762 H1766 0.950 . S
C1762 C1771 1.390 . S
C1763 C1762 1.387 . S
C1763 C1765 1.387 . S
H1764 C1771 0.950 . S
C1765 C1763 1.387 . S
C1765 C1767 1.390 . S
C1765 H1769 0.950 . S
H1766 C1762 0.950 . S
C1767 C1765 1.390 . S
C1767 C1768 1.387 . S
C1767 H1770 0.950 . S
C1768 C1767 1.387 . S
C1768 C1771 1.387 . S
H1769 C1765 0.950 . S
H1770 C1767 0.950 . S
C1771 C1762 1.390 . S
C1771 H1764 0.950 . S
C1771 C1768 1.387 . S
C1772 C1773 1.387 . S
C1772 H1776 0.950 . S
C1772 C1781 1.390 . S
C1773 C1772 1.387 . S
C1773 C1775 1.387 . S
H1774 C1781 0.950 . S
C1775 C1773 1.387 . S
C1775 C1777 1.390 . S
C1775 H1779 0.950 . S
H1776 C1772 0.950 . S
C1777 C1775 1.390 . S
C1777 C1778 1.387 . S
C1777 H1780 0.950 . S
C1778 C1777 1.387 . S
C1778 C1781 1.387 . S
H1779 C1775 0.950 . S
H1780 C1777 0.950 . S
C1781 C1772 1.390 . S
C1781 H1774 0.950 . S
C1781 C1778 1.387 . S
C1782 C1783 1.387 . S
C1782 H1786 0.950 . S
C1782 C1791 1.390 . S
C1783 C1782 1.387 . S
C1783 C1785 1.387 . S
H1784 C1791 0.950 . S
C1785 C1783 1.387 . S
C1785 C1787 1.390 . S
C1785 H1789 0.950 . S
H1786 C1782 0.950 . S
C1787 C1785 1.390 . S
C1787 C1788 1.387 . S
C1787 H1790 0.950 . S
C1788 C1787 1.387 . S
C1788 C1791 1.387 . S
H1789 C1785 0.950 . S
H1790 C1787 0.950 . S
C1791 C1782 1.390 . S
C1791 H1784 0.950 . S
C1791 C1788 1.387 . S
C1153 C292 1.366 . S
C1158 C4 1.366 . S
C1163 C904 1.366 . S
C1168 C40 1.366 . S
C1173 C364 1.366 . S
C1178 C76 1.366 . S
C1183 C976 1.366 . S
C1188 C112 1.366 . S
C1193 C436 1.366 . S
C1198 C148 1.366 . S
C1203 C184 1.366 . S
C1208 C1048 1.366 . S
C1213 C220 1.367 . S
C1218 C508 1.367 . S
C1223 C256 1.366 . S
C1228 C1120 1.366 . S
C1233 C616 1.366 . S
C1238 C328 1.366 . S
C1243 C688 1.366 . S
C1248 C400 1.366 . S
C1253 C472 1.367 . S
C1258 C760 1.367 . S
C1263 C544 1.366 . S
C1268 C832 1.366 . S
C1273 C580 1.367 . S
C1278 C868 1.367 . S
C1283 C940 1.367 . S
C1288 C652 1.367 . S
C1293 C724 1.366 . S
C1298 C1012 1.366 . S
C1303 C1084 1.366 . S
C1308 C796 1.366 . S
C1313 C650 1.506 . S
C1318 C2 1.506 . S
C1323 C686 1.506 . S
C1328 C38 1.506 . S
C1333 C74 1.507 . S
C1338 C578 1.507 . S
C1343 C110 1.506 . S
C1348 C614 1.506 . S
C1353 C794 1.506 . S
C1358 C146 1.506 . S
C1363 C182 1.507 . S
C1368 C830 1.507 . S
C1373 C722 1.506 . S
C1378 C218 1.506 . S
C1383 C758 1.507 . S
C1388 C254 1.507 . S
C1393 C290 1.506 . S
C1398 C938 1.506 . S
C1403 C974 1.507 . S
C1408 C326 1.507 . S
C1413 C362 1.507 . S
C1418 C866 1.507 . S
C1423 C398 1.507 . S
C1428 C902 1.507 . S
C1433 C434 1.506 . S
C1438 C1082 1.506 . S
C1443 C470 1.506 . S
C1448 C1118 1.506 . S
C1453 C1010 1.506 . S
C1458 C506 1.506 . S
C1463 C1046 1.506 . S
C1468 C542 1.506 . S
C1473 C230 1.544 . S
C1478 C14 1.544 . S
C1483 C266 1.548 . S
C1488 C50 1.548 . S
C1493 C158 1.544 . S
C1498 C86 1.544 . S
C1503 C122 1.548 . S
C1508 C194 1.548 . S
C1513 C518 1.548 . S
C1518 C302 1.548 . S
C1523 C554 1.548 . S
C1528 C338 1.548 . S
C1533 C446 1.544 . S
C1538 C374 1.544 . S
C1543 C482 1.544 . S
C1548 C410 1.544 . S
C1553 C806 1.544 . S
C1558 C590 1.544 . S
C1563 C842 1.544 . S
C1568 C626 1.544 . S
C1573 C662 1.548 . S
C1578 C734 1.548 . S
C1583 C698 1.544 . S
C1588 C770 1.544 . S
C1593 C1094 1.544 . S
C1598 C878 1.544 . S
C1603 C1130 1.548 . S
C1608 C914 1.548 . S
C1613 C950 1.544 . S
C1618 C1022 1.544 . S
C1623 C986 1.544 . S
C1628 C1058 1.544 . S
C1633 C3 1.484 . S
C1638 C759 1.484 . S
C1643 C795 1.484 . S
C1648 C39 1.485 . S
C1653 C831 1.484 . S
C1658 C75 1.484 . S
C1663 C111 1.485 . S
C1668 C723 1.484 . S
C1673 C687 1.484 . S
C1678 C147 1.484 . S
C1683 C183 1.484 . S
C1688 C579 1.484 . S
C1693 C615 1.484 . S
C1698 C219 1.484 . S
C1703 C255 1.484 . S
C1708 C651 1.484 . S
C1713 C1047 1.484 . S
C1718 C291 1.485 . S
C1723 C1083 1.484 . S
C1728 C327 1.484 . S
C1733 C363 1.484 . S
C1738 C1119 1.484 . S
C1743 C1011 1.484 . S
C1748 C399 1.484 . S
C1753 C975 1.484 . S
C1758 C435 1.484 . S
C1763 C471 1.484 . S
C1768 C867 1.484 . S
C1773 C903 1.484 . S
C1778 C507 1.485 . S
C1783 C543 1.484 . S
C1788 C939 1.485 . S
