# Generated by pormake.
# Topology sod, (4)-cn, num edge types: 1
# Building blocks:
#     Node 0, Type 0, BuildingBlock: TATPOV_clean_sbu_0, # of connection points: 4
#     Node 1, Type 0, BuildingBlock: TATPOV_clean_sbu_0, # of connection points: 4
#     Node 2, Type 0, BuildingBlock: TATPOV_clean_sbu_0, # of connection points: 4
#     Node 3, Type 0, BuildingBlock: TATPOV_clean_sbu_0, # of connection points: 4
#     Node 4, Type 0, BuildingBlock: TATPOV_clean_sbu_0, # of connection points: 4
#     Node 5, Type 0, BuildingBlock: TATPOV_clean_sbu_0, # of connection points: 4
#     Node 6, Type 0, BuildingBlock: TATPOV_clean_sbu_0, # of connection points: 4
#     Node 7, Type 0, BuildingBlock: TATPOV_clean_sbu_0, # of connection points: 4
#     Node 8, Type 0, BuildingBlock: TATPOV_clean_sbu_0, # of connection points: 4
#     Node 9, Type 0, BuildingBlock: TATPOV_clean_sbu_0, # of connection points: 4
#     Node 10, Type 0, BuildingBlock: TATPOV_clean_sbu_0, # of connection points: 4
#     Node 11, Type 0, BuildingBlock: TATPOV_clean_sbu_0, # of connection points: 4
#     Edge 12, Type (0, 0), BuildingBlock: MIFKUJ_clean_linker_0, # of connection points: 2
#     Edge 13, Type (0, 0), BuildingBlock: MIFKUJ_clean_linker_0, # of connection points: 2
#     Edge 14, Type (0, 0), BuildingBlock: MIFKUJ_clean_linker_0, # of connection points: 2
#     Edge 15, Type (0, 0), BuildingBlock: MIFKUJ_clean_linker_0, # of connection points: 2
#     Edge 16, Type (0, 0), BuildingBlock: MIFKUJ_clean_linker_0, # of connection points: 2
#     Edge 17, Type (0, 0), BuildingBlock: MIFKUJ_clean_linker_0, # of connection points: 2
#     Edge 18, Type (0, 0), BuildingBlock: MIFKUJ_clean_linker_0, # of connection points: 2
#     Edge 19, Type (0, 0), BuildingBlock: MIFKUJ_clean_linker_0, # of connection points: 2
#     Edge 20, Type (0, 0), BuildingBlock: MIFKUJ_clean_linker_0, # of connection points: 2
#     Edge 21, Type (0, 0), BuildingBlock: MIFKUJ_clean_linker_0, # of connection points: 2
#     Edge 22, Type (0, 0), BuildingBlock: MIFKUJ_clean_linker_0, # of connection points: 2
#     Edge 23, Type (0, 0), BuildingBlock: MIFKUJ_clean_linker_0, # of connection points: 2
#     Edge 24, Type (0, 0), BuildingBlock: MIFKUJ_clean_linker_0, # of connection points: 2
#     Edge 25, Type (0, 0), BuildingBlock: MIFKUJ_clean_linker_0, # of connection points: 2
#     Edge 26, Type (0, 0), BuildingBlock: MIFKUJ_clean_linker_0, # of connection points: 2
#     Edge 27, Type (0, 0), BuildingBlock: MIFKUJ_clean_linker_0, # of connection points: 2
#     Edge 28, Type (0, 0), BuildingBlock: MIFKUJ_clean_linker_0, # of connection points: 2
#     Edge 29, Type (0, 0), BuildingBlock: MIFKUJ_clean_linker_0, # of connection points: 2
#     Edge 30, Type (0, 0), BuildingBlock: MIFKUJ_clean_linker_0, # of connection points: 2
#     Edge 31, Type (0, 0), BuildingBlock: MIFKUJ_clean_linker_0, # of connection points: 2
#     Edge 32, Type (0, 0), BuildingBlock: MIFKUJ_clean_linker_0, # of connection points: 2
#     Edge 33, Type (0, 0), BuildingBlock: MIFKUJ_clean_linker_0, # of connection points: 2
#     Edge 34, Type (0, 0), BuildingBlock: MIFKUJ_clean_linker_0, # of connection points: 2
#     Edge 35, Type (0, 0), BuildingBlock: MIFKUJ_clean_linker_0, # of connection points: 2
# Relax obj value: 0.089
# Max RMSD: 0.145
# Mean RMSD: 0.126
data_MOF--net-sod--node1-TATPOV_clean_sbu_0--edge1-MIFKUJ_clean_linker_0
_symmetry_space_group_name_H-M    P1
_symmetry_Int_Tables_number       1
_symmetry_cell_setting            triclinic
loop_
_symmetry_equiv_pos_as_xyz
'x, y, z'
_cell_length_a     53.649402
_cell_length_b     54.243208
_cell_length_c     55.872974
_cell_angle_alpha  90.509504
_cell_angle_beta   90.579288
_cell_angle_gamma 92.151163
loop_
_atom_site_label
_atom_site_type_symbol
_atom_site_fract_x
_atom_site_fract_y
_atom_site_fract_z
_atom_type_partial_charge
Zn0 Zn 0.02351 0.24006 0.44186 0.0
Zn1 Zn 0.02758 0.26704 0.48214 0.0
O2 O 0.05722 0.24385 0.48534 0.0
O3 O 0.05535 0.22394 0.45074 0.0
O4 O 0.02892 0.28853 0.51202 0.0
O5 O 0.0247 0.27026 0.42192 0.0
O6 O 0.03066 0.29254 0.45478 0.0
C7 C 0.06601 0.22827 0.47073 0.0
C8 C 0.98084 0.23372 0.47145 0.0
O9 O 0.99296 0.24938 0.48463 0.0
O10 O 0.99022 0.22613 0.45217 0.0
C11 C 0.03092 0.27983 0.533 0.0
O12 O 0.03321 0.25597 0.53558 0.0
C13 C 0.02852 0.29102 0.43204 0.0
Zn14 Zn 0.79726 0.0117 0.54193 0.0
Zn15 Zn 0.77021 0.01182 0.50164 0.0
O16 O 0.79505 0.9848 0.49458 0.0
O17 O 0.82005 0.98816 0.52605 0.0
O18 O 0.74716 0.01207 0.47289 0.0
O19 O 0.76843 0.99751 0.56041 0.0
O20 O 0.74548 0.00196 0.52796 0.0
C21 C 0.81426 0.97813 0.5061 0.0
C22 C 0.79706 0.05921 0.52055 0.0
O23 O 0.78548 0.04728 0.50381 0.0
O24 O 0.8031 0.0484 0.53961 0.0
C25 C 0.75334 0.01497 0.45117 0.0
O26 O 0.77703 0.01819 0.44583 0.0
C27 C 0.74747 0.99592 0.54985 0.0
Zn28 Zn 0.97641 0.72936 0.46071 0.0
Zn29 Zn 0.98489 0.72941 0.50843 0.0
O30 O 0.95265 0.74839 0.50449 0.0
O31 O 0.94488 0.74744 0.46569 0.0
O32 O 0.98984 0.72558 0.54388 0.0
O33 O 0.97607 0.69227 0.45975 0.0
O34 O 0.98631 0.69335 0.4979 0.0
C35 C 0.93915 0.75414 0.48662 0.0
C36 C 0.0226 0.7551 0.47621 0.0
O37 O 0.01519 0.74919 0.49703 0.0
O38 O 0.00961 0.74887 0.45789 0.0
C39 C 0.01027 0.71668 0.5508 0.0
O40 O 0.02775 0.71324 0.53493 0.0
C41 C 0.98228 0.6812 0.47862 0.0
Zn42 Zn 0.21056 0.97668 0.54921 0.0
Zn43 Zn 0.24357 0.97946 0.51285 0.0
O44 O 0.22606 0.01275 0.51128 0.0
O45 O 0.19883 0.01024 0.5405 0.0
O46 O 0.26898 0.98066 0.48616 0.0
O47 O 0.23848 0.97435 0.5729 0.0
O48 O 0.26524 0.97552 0.54323 0.0
C49 C 0.20883 0.0222 0.52353 0.0
C50 C 0.20356 0.93754 0.51452 0.0
O51 O 0.22145 0.94887 0.50392 0.0
O52 O 0.19559 0.94564 0.53422 0.0
C53 C 0.26606 0.99296 0.46711 0.0
O54 O 0.2459 0.00572 0.46446 0.0
C55 C 0.26069 0.974 0.56555 0.0
Zn56 Zn 0.49685 0.06967 0.28722 0.0
Zn57 Zn 0.50075 0.02874 0.26074 0.0
O58 O 0.46968 0.02051 0.28167 0.0
O59 O 0.46514 0.05548 0.30131 0.0
O60 O 0.50333 -0.00064 0.23824 0.0
O61 O 0.49494 0.09117 0.25834 0.0
O62 O 0.49738 0.05743 0.2365 0.0
C63 C 0.45774 0.03354 0.2965 0.0
C64 C 0.54254 0.04446 0.29624 0.0
O65 O 0.53381 0.02956 0.28017 0.0
O66 O 0.53023 0.06291 0.30244 0.0
C67 C 0.50189 0.97688 0.24455 0.0
O68 O 0.49853 0.97163 0.26723 0.0
C69 C 0.4954 0.08078 0.238 0.0
Zn70 Zn 0.04661 0.59898 0.2554 0.0
Zn71 Zn 0.05366 0.55066 0.26718 0.0
O72 O 0.07354 0.55301 0.23698 0.0
O73 O 0.06773 0.59138 0.22604 0.0
O74 O 0.05836 0.51716 0.28046 0.0
O75 O 0.06185 0.61026 0.28759 0.0
O76 O 0.06641 0.57106 0.29524 0.0
C77 C 0.07669 0.57041 0.22208 0.0
C78 C 0.00167 0.56762 0.25384 0.0
O79 O 0.01674 0.55103 0.25946 0.0
O80 O 0.00937 0.58994 0.25222 0.0
C81 C 0.04646 0.49751 0.27406 0.0
O82 O 0.03096 0.49791 0.25573 0.0
C83 C 0.06894 0.59354 0.30151 0.0
Zn84 Zn 0.51296 0.04039 0.72197 0.0
Zn85 Zn 0.5148 -0.00188 0.74717 0.0
O86 O 0.53963 0.99129 0.72102 0.0
O87 O 0.53666 0.02454 0.6989 0.0
O88 O 0.51634 0.96951 0.76923 0.0
O89 O 0.52614 0.06035 0.75037 0.0
O90 O 0.52526 0.02569 0.77042 0.0
C91 C 0.54566 0.0036 0.70254 0.0
C92 C 0.46604 0.01303 0.72369 0.0
O93 O 0.47889 0.99741 0.73473 0.0
O94 O 0.47592 0.03354 0.71745 0.0
C95 C 0.50332 0.94953 0.76775 0.0
O96 O 0.48788 0.94584 0.74956 0.0
C97 C 0.52948 0.04887 0.76969 0.0
Zn98 Zn 0.93974 0.48748 0.73395 0.0
Zn99 Zn 0.98359 0.49051 0.75697 0.0
O100 O 0.98505 0.5223 0.73705 0.0
O101 O 0.94918 0.51958 0.71754 0.0
O102 O 0.01595 0.49208 0.77586 0.0
O103 O 0.92096 0.48785 0.76507 0.0
O104 O 0.95714 0.49013 0.78396 0.0
C105 C 0.96981 0.53096 0.72193 0.0
C106 C 0.97101 0.44767 0.72143 0.0
O107 O 0.9862 0.45909 0.73577 0.0
O108 O 0.94932 0.45557 0.71822 0.0
C109 C 0.03699 0.498 0.76685 0.0
O110 O 0.03822 0.50321 0.74396 0.0
C111 C 0.93334 0.48927 0.78448 0.0
Zn112 Zn 0.26329 0.50203 0.03593 0.0
Zn113 Zn 0.24768 0.50747 0.99157 0.0
O114 O 0.27055 0.47755 0.98922 0.0
O115 O 0.28612 0.47578 0.02574 0.0
O116 O 0.2303 0.5088 0.95946 0.0
O117 O 0.22957 0.49217 0.048 0.0
O118 O 0.21647 0.50314 0.01242 0.0
C119 C 0.28492 0.46768 0.00444 0.0
C120 C 0.27437 0.55065 0.01685 0.0
O121 O 0.26625 0.54114 0.99716 0.0
O122 O 0.27404 0.53807 0.03584 0.0
C123 C 0.23769 0.51415 0.93854 0.0
O124 O 0.26123 0.52052 0.93506 0.0
C125 C 0.21184 0.49615 0.03365 0.0
Zn126 Zn 0.51359 0.28172 0.94462 0.0
Zn127 Zn 0.5086 0.25844 0.98678 0.0
O128 O 0.47536 0.27623 0.9832 0.0
O129 O 0.47859 0.2932 0.9476 0.0
O130 O 0.50488 0.23783 0.0165 0.0
O131 O 0.51994 0.25009 0.92759 0.0
O132 O 0.51545 0.2313 0.96207 0.0
C133 C 0.46617 0.28885 0.96633 0.0
C134 C 0.55029 0.29766 0.98035 0.0
O135 O 0.53897 0.28179 0.99344 0.0
O136 O 0.54279 0.30124 0.95913 0.0
C137 C 0.49813 0.24506 0.03705 0.0
O138 O 0.49287 0.2683 0.04034 0.0
C139 C 0.5198 0.23052 0.93973 0.0
Zn140 Zn 0.74327 0.5169 0.08481 0.0
Zn141 Zn 0.77184 0.51834 0.04664 0.0
O142 O 0.75107 0.54964 0.04251 0.0
O143 O 0.72436 0.54503 0.07195 0.0
O144 O 0.79451 0.51783 0.01776 0.0
O145 O 0.77232 0.52417 0.10653 0.0
O146 O 0.79674 0.52042 0.07531 0.0
C147 C 0.73217 0.55689 0.05395 0.0
C148 C 0.73705 0.47318 0.0573 0.0
O149 O 0.75118 0.48543 0.04312 0.0
O150 O 0.73185 0.48206 0.07757 0.0
C151 C 0.78559 0.51583 0.99662 0.0
O152 O 0.76125 0.51473 0.99359 0.0
C153 C 0.7939 0.52369 0.09774 0.0
Zn154 Zn 0.50503 0.73318 0.98074 0.0
Zn155 Zn 0.51031 0.76492 0.01585 0.0
O156 O 0.5437 0.74621 0.01707 0.0
O157 O 0.53955 0.72208 0.98527 0.0
O158 O 0.51345 0.79035 0.04275 0.0
O159 O 0.49762 0.75943 0.95727 0.0
O160 O 0.50649 0.78667 0.98582 0.0
C161 C 0.55239 0.72998 0.00302 0.0
C162 C 0.46847 0.72412 0.01548 0.0
O163 O 0.47819 0.74397 0.02455 0.0
O164 O 0.47747 0.71479 0.99683 0.0
C165 C 0.511 0.7847 0.06468 0.0
O166 O 0.50694 0.76144 0.07033 0.0
C167 C 0.50062 0.78163 0.96409 0.0
H168 H 0.04853 0.33689 0.44399 0.0
H169 H 0.05346 0.37262 0.41764 0.0
H170 H 0.01711 0.33096 0.36016 0.0
H171 H 0.01289 0.29522 0.38597 0.0
H172 H 0.05664 0.3536 0.34396 0.0
H173 H 0.98778 0.37663 0.3927 0.0
H174 H 0.96584 0.38529 0.43025 0.0
H175 H 0.02028 0.44284 0.44777 0.0
H176 H 0.04276 0.43429 0.41047 0.0
H177 H 0.02525 0.45145 0.26575 0.0
H178 H 0.02442 0.4164 0.29312 0.0
H179 H 0.06903 0.45907 0.34435 0.0
H180 H 0.07 0.49405 0.31728 0.0
H181 H 0.02758 0.43685 0.3644 0.0
H182 H 0.09504 0.41416 0.31367 0.0
H183 H 0.11524 0.40555 0.2752 0.0
H184 H 0.06088 0.34715 0.26039 0.0
H185 H 0.04013 0.35564 0.29864 0.0
C186 C 0.04149 0.33546 0.42578 0.0
C187 C 0.03043 0.31325 0.41702 0.0
C188 C 0.04425 0.35588 0.41076 0.0
C189 C 0.03554 0.35449 0.38695 0.0
C190 C 0.02413 0.33243 0.3784 0.0
C191 C 0.02168 0.31202 0.39322 0.0
C192 C 0.03869 0.37569 0.37055 0.0
C193 C 0.05002 0.37174 0.34835 0.0
C194 C 0.03057 0.39948 0.37647 0.0
C195 C 0.01712 0.4046 0.39894 0.0
C196 C 0.9952 0.39097 0.40467 0.0
C197 C 0.98264 0.39589 0.42589 0.0
C198 C 0.99171 0.41454 0.44143 0.0
C199 C 0.01331 0.42836 0.43574 0.0
C200 C 0.02597 0.42349 0.41457 0.0
C201 C 0.03512 0.45325 0.28272 0.0
C202 C 0.04772 0.47549 0.28931 0.0
C203 C 0.03466 0.43323 0.2983 0.0
C204 C 0.04675 0.43519 0.32069 0.0
C205 C 0.05961 0.45723 0.32715 0.0
C206 C 0.06024 0.47714 0.31156 0.0
C207 C 0.0452 0.4146 0.33781 0.0
C208 C 0.03424 0.4187 0.36012 0.0
C209 C 0.05339 0.39088 0.3319 0.0
C210 C 0.0659 0.3857 0.30892 0.0
C211 C 0.08727 0.39962 0.30212 0.0
C212 C 0.09884 0.39473 0.28037 0.0
C213 C 0.08932 0.37586 0.26533 0.0
C214 C 0.06823 0.36178 0.27204 0.0
C215 C 0.05657 0.36661 0.29377 0.0
H216 H 0.09831 0.3721 0.2485 0.0
H217 H 0.98195 0.41833 0.45784 0.0
H218 H 0.75911 0.02262 0.40296 0.0
H219 H 0.72621 0.02472 0.37238 0.0
H220 H 0.67047 0.01055 0.42614 0.0
H221 H 0.70307 0.0081 0.45662 0.0
H222 H 0.65886 0.98511 0.38627 0.0
H223 H 0.68442 0.06904 0.40708 0.0
H224 H 0.71453 0.10425 0.41204 0.0
H225 H 0.73173 0.10077 0.33722 0.0
H226 H 0.70193 0.06531 0.33189 0.0
H227 H 0.56548 0.07289 0.33103 0.0
H228 H 0.6039 0.06532 0.35272 0.0
H229 H 0.61349 -0.00069 0.31071 0.0
H230 H 0.57448 0.00652 0.28903 0.0
H231 H 0.65101 0.06257 0.34071 0.0
H232 H 0.64147 0.95698 0.34706 0.0
H233 H 0.60882 0.92367 0.34577 0.0
H234 H 0.55524 0.97379 0.37225 0.0
H235 H 0.58764 0.00728 0.37396 0.0
C236 C 0.73986 0.01981 0.40824 0.0
C237 C 0.73374 0.01535 0.43228 0.0
C238 C 0.72107 0.02105 0.39074 0.0
C239 C 0.69584 0.01797 0.39699 0.0
C240 C 0.68978 0.01291 0.42086 0.0
C241 C 0.70848 0.01166 0.43831 0.0
C242 C 0.67555 0.021 0.37908 0.0
C243 C 0.65729 0.00195 0.37611 0.0
C244 C 0.67332 0.04304 0.36598 0.0
C245 C 0.69119 0.06435 0.36915 0.0
C246 C 0.69478 0.07567 0.39173 0.0
C247 C 0.71175 0.09569 0.3946 0.0
C248 C 0.7251 0.10469 0.37498 0.0
C249 C 0.72143 0.09374 0.35242 0.0
C250 C 0.70449 0.07369 0.34946 0.0
C251 C 0.57572 0.05677 0.32625 0.0
C252 C 0.56674 0.04022 0.30835 0.0
C253 C 0.59783 0.05254 0.33864 0.0
C254 C 0.61155 0.03168 0.3335 0.0
C255 C 0.60306 0.0154 0.31519 0.0
C256 C 0.5808 0.01958 0.30277 0.0
C257 C 0.63412 0.02681 0.34812 0.0
C258 C 0.65285 0.0455 0.35045 0.0
C259 C 0.63648 0.00468 0.36106 0.0
C260 C 0.6169 0.98466 0.36034 0.0
C261 C 0.62273 0.96085 0.35265 0.0
C262 C 0.60427 0.94195 0.35184 0.0
C263 C 0.57995 0.94664 0.35883 0.0
C264 C 0.57406 0.97021 0.36674 0.0
C265 C 0.59245 0.98916 0.36761 0.0
H266 H 0.56568 0.93199 0.35818 0.0
H267 H 0.73823 0.1202 0.37724 0.0
H268 H 0.09365 0.56422 0.33252 0.0
H269 H 0.09478 0.56841 0.37611 0.0
H270 H 0.06121 0.63922 0.37049 0.0
H271 H 0.06071 0.63548 0.32706 0.0
H272 H 0.08936 0.63785 0.40999 0.0
H273 H 0.02497 0.58266 0.36937 0.0
H274 H 0.01399 0.54562 0.34489 0.0
H275 H 0.05251 0.50049 0.39487 0.0
H276 H 0.06393 0.53738 0.41948 0.0
H277 H 0.96815 0.64658 0.4452 0.0
H278 H 0.99564 0.61565 0.43012 0.0
H279 H 0.04463 0.62788 0.49113 0.0
H280 H 0.01702 0.65901 0.50641 0.0
H281 H 0.02523 0.5762 0.43704 0.0
H282 H 0.0989 0.64326 0.46904 0.0
H283 H 0.10509 0.68444 0.48801 0.0
H284 H 0.04136 0.71 0.44974 0.0
H285 H 0.03494 0.66906 0.43056 0.0
C286 C 0.08734 0.58109 0.34058 0.0
C287 C 0.07649 0.59929 0.32646 0.0
C288 C 0.08803 0.58343 0.36549 0.0
C289 C 0.07745 0.60377 0.37655 0.0
C290 C 0.06938 0.62326 0.36234 0.0
C291 C 0.069 0.62109 0.33745 0.0
C292 C 0.07016 0.60315 0.40204 0.0
C293 C 0.07607 0.6239 0.41639 0.0
C294 C 0.05289 0.58487 0.41049 0.0
C295 C 0.04548 0.56271 0.39609 0.0
C296 C 0.03108 0.56482 0.37509 0.0
C297 C 0.02483 0.54388 0.36119 0.0
C298 C 0.03262 0.52073 0.36828 0.0
C299 C 0.04656 0.51845 0.38936 0.0
C300 C 0.05294 0.53935 0.40329 0.0
C301 C 0.98405 0.64177 0.45608 0.0
C302 C 0.99101 0.65586 0.47639 0.0
C303 C -0.00023 0.62393 0.44751 0.0
C304 C 0.02266 0.62018 0.45907 0.0
C305 C 0.02727 0.63089 0.48172 0.0
C306 C 0.0114 0.64869 0.49043 0.0
C307 C 0.04334 0.61163 0.44417 0.0
C308 C 0.04001 0.58916 0.43173 0.0
C309 C 0.0626 0.62859 0.43714 0.0
C310 C 0.06635 0.65316 0.4486 0.0
C311 C 0.08624 0.65772 0.46474 0.0
C312 C 0.08978 0.68099 0.47552 0.0
C313 C 0.07357 0.69982 0.47016 0.0
C314 C 0.05385 0.69543 0.45396 0.0
C315 C 0.05027 0.67222 0.44312 0.0
H316 H 0.07634 0.71782 0.4785 0.0
H317 H 0.02782 0.50455 0.35747 0.0
H318 H 0.30525 0.96232 0.46244 0.0
H319 H 0.33667 0.9626 0.43101 0.0
H320 H 0.30195 0.02435 0.39787 0.0
H321 H 0.27003 0.02357 0.4287 0.0
H322 H 0.31471 0.99403 0.36466 0.0
H323 H 0.35652 0.03014 0.43388 0.0
H324 H 0.37167 0.03185 0.47571 0.0
H325 H 0.41446 0.96771 0.46336 0.0
H326 H 0.3993 0.96545 0.42151 0.0
H327 H 0.41654 0.05776 0.30891 0.0
H328 H 0.38262 0.04323 0.3347 0.0
H329 H 0.41592 0.97235 0.34003 0.0
H330 H 0.44974 0.98664 0.31341 0.0
H331 H 0.40479 -6e-05 0.38578 0.0
H332 H 0.36621 0.96918 0.31343 0.0
H333 H 0.35185 0.97125 0.27148 0.0
H334 H 0.30364 0.02978 0.28987 0.0
H335 H 0.318 0.02833 0.33189 0.0
C336 C 0.3043 0.97594 0.44844 0.0
C337 C 0.28519 0.993 0.44814 0.0
C338 C 0.32234 0.97613 0.4305 0.0
C339 C 0.32194 0.99371 0.41217 0.0
C340 C 0.30269 0.01056 0.41175 0.0
C341 C 0.28448 0.01017 0.42947 0.0
C342 C 0.34166 0.99491 0.39357 0.0
C343 C 0.33439 0.99543 0.36934 0.0
C344 C 0.36744 0.99615 0.39952 0.0
C345 C 0.37653 0.99744 0.42467 0.0
C346 C 0.36899 0.01628 0.44015 0.0
C347 C 0.37761 0.01738 0.46384 0.0
C348 C 0.39395 -0.00015 0.47221 0.0
C349 C 0.40176 0.98124 0.45687 0.0
C350 C 0.39317 0.98005 0.43316 0.0
C351 C 0.41637 0.0389 0.31517 0.0
C352 C 0.43571 0.02329 0.30917 0.0
C353 C 0.39699 0.03064 0.32988 0.0
C354 C 0.39681 0.00675 0.33925 0.0
C355 C 0.41575 0.99083 0.33287 0.0
C356 C 0.43492 -0.00106 0.3176 0.0
C357 C 0.37772 -0.0005 0.3571 0.0
C358 C 0.38511 0.99799 0.38117 0.0
C359 C 0.35207 0.99782 0.35105 0.0
C360 C 0.34334 -0.00124 0.3258 0.0
C361 C 0.35272 0.98265 0.3085 0.0
C362 C 0.34454 0.98368 0.28471 0.0
C363 C 0.32688 0.00067 0.278 0.0
C364 C 0.31733 0.01664 0.29509 0.0
C365 C 0.32546 0.01569 0.3189 0.0
H366 H 0.32056 0.00143 0.25957 0.0
H367 H 0.40061 0.00073 0.49056 0.0
H368 H 0.01023 0.56316 0.72866 0.0
H369 H 0.02186 0.59914 0.70421 0.0
H370 H 0.95644 0.58535 0.65994 0.0
H371 H 0.94458 0.5498 0.68416 0.0
H372 H 0.00046 0.59151 0.63396 0.0
H373 H 0.95626 0.63069 0.69833 0.0
H374 H 0.94869 0.6415 0.74053 0.0
H375 H 0.02178 0.6763 0.74606 0.0
H376 H 0.02989 0.66538 0.70394 0.0
H377 H 0.97573 0.71621 0.58659 0.0
H378 H 0.97493 0.68945 0.62155 0.0
H379 H 0.04801 0.6646 0.6041 0.0
H380 H 0.04899 0.69119 0.56906 0.0
H381 H 0.00459 0.67847 0.66267 0.0
H382 H 0.04239 0.60139 0.60465 0.0
H383 H 0.0482 0.59128 0.56194 0.0
H384 H 0.98414 0.63248 0.54329 0.0
H385 H 0.97769 0.64242 0.58591 0.0
C386 C -0.00176 0.56793 0.71382 0.0
C387 C 0.97649 0.55357 0.70835 0.0
C388 C 0.0049 0.58848 0.69992 0.0
C389 C 0.99002 0.59481 0.68026 0.0
C390 C 0.96821 0.58069 0.67499 0.0
C391 C 0.96143 0.56041 0.68894 0.0
C392 C 0.99724 0.61565 0.66452 0.0
C393 C 0.00163 0.61049 0.64032 0.0
C394 C -0.00132 0.64039 0.67281 0.0
C395 C 0.99379 0.64695 0.69809 0.0
C396 C 0.9708 0.64043 0.70861 0.0
C397 C 0.9664 0.64663 0.7325 0.0
C398 C 0.98477 0.65951 0.74599 0.0
C399 C 0.00758 0.66628 0.7356 0.0
C400 C 0.01209 0.6601 0.71172 0.0
C401 C 0.99194 0.70559 0.59054 0.0
C402 C 0.01219 0.70542 0.57475 0.0
C403 C 0.9915 0.69041 0.61063 0.0
C404 C 0.01124 0.6748 0.61515 0.0
C405 C 0.0325 0.67638 0.60076 0.0
C406 C 0.03298 0.69157 0.5807 0.0
C407 C 0.00774 0.65425 0.63219 0.0
C408 C 0.00398 0.65943 0.65651 0.0
C409 C 0.00665 0.62945 0.62403 0.0
C410 C 0.00975 0.62286 0.59843 0.0
C411 C 0.02947 0.60816 0.59143 0.0
C412 C 0.03288 0.60247 0.56725 0.0
C413 C 0.0166 0.6113 0.54991 0.0
C414 C 0.99677 0.62571 0.55674 0.0
C415 C 0.99323 0.63136 0.5809 0.0
H416 H 0.0193 0.60691 0.53121 0.0
H417 H 0.98132 0.6643 0.76448 0.0
H418 H 0.44531 0.96659 0.71792 0.0
H419 H 0.40825 0.95509 0.69392 0.0
H420 H 0.39258 0.032 0.68563 0.0
H421 H 0.42996 0.04366 0.70896 0.0
H422 H 0.35864 0.96136 0.69185 0.0
H423 H 0.38054 0.04301 0.6281 0.0
H424 H 0.4168 0.06928 0.61622 0.0
H425 H 0.46604 0.01157 0.63444 0.0
H426 H 0.43007 0.98484 0.64606 0.0
H427 H 0.25819 0.98172 0.61362 0.0
H428 H 0.29223 0.9826 0.6427 0.0
H429 H 0.3436 0.96382 0.58702 0.0
H430 H 0.30958 0.96389 0.55748 0.0
H431 H 0.3626 -0.00041 0.61152 0.0
H432 H 0.32542 0.92224 0.6325 0.0
H433 H 0.29182 0.89215 0.64309 0.0
H434 H 0.27739 0.93355 0.707 0.0
H435 H 0.31067 0.96408 0.69664 0.0
C436 C 0.4336 0.98103 0.71152 0.0
C437 C 0.44076 0.00604 0.71486 0.0
C438 C 0.41243 0.97441 0.69782 0.0
C439 C 0.39813 0.99273 0.68749 0.0
C440 C 0.40377 0.01762 0.693 0.0
C441 C 0.42507 0.02425 0.70637 0.0
C442 C 0.37925 0.98614 0.66884 0.0
C443 C 0.35939 0.96968 0.67428 0.0
C444 C 0.3809 0.99627 0.64563 0.0
C445 C 0.40262 0.01202 0.63814 0.0
C446 C 0.3991 0.03589 0.62944 0.0
C447 C 0.4196 0.05087 0.62278 0.0
C448 C 0.44371 0.04213 0.62464 0.0
C449 C 0.44737 0.01835 0.63307 0.0
C450 C 0.42693 0.00328 0.63971 0.0
C451 C 0.27667 0.97752 0.60755 0.0
C452 C 0.28123 0.97281 0.58322 0.0
C453 C 0.29611 0.97783 0.62427 0.0
C454 C 0.32043 0.9729 0.61715 0.0
C455 C 0.32496 0.96764 0.59293 0.0
C456 C 0.30553 0.96769 0.57608 0.0
C457 C 0.34134 0.97533 0.63465 0.0
C458 C 0.36173 0.99105 0.62899 0.0
C459 C 0.3405 0.96388 0.65735 0.0
C460 C 0.32045 0.94555 0.66369 0.0
C461 C 0.31496 0.92503 0.64873 0.0
C462 C 0.29599 0.90788 0.65471 0.0
C463 C 0.28245 0.91096 0.67568 0.0
C464 C 0.28789 0.93118 0.69075 0.0
C465 C 0.30683 0.9484 0.68485 0.0
H466 H 0.26777 0.89766 0.68028 0.0
H467 H 0.45956 0.05377 0.61952 0.0
H468 H 0.03604 0.26773 0.58028 0.0
H469 H 0.02997 0.29413 0.6153 0.0
H470 H 0.01458 0.35508 0.56903 0.0
H471 H 0.02116 0.329 0.53398 0.0
H472 H 0.04178 0.37112 0.60596 0.0
H473 H 0.96737 0.31957 0.59484 0.0
H474 H 0.94339 0.28007 0.59044 0.0
H475 H 0.96866 0.25792 0.6599 0.0
H476 H 0.99307 0.29718 0.66457 0.0
H477 H 0.94243 0.41852 0.6911 0.0
H478 H 0.95628 0.38783 0.66264 0.0
H479 H 0.0317 0.39794 0.68943 0.0
H480 H 0.01799 0.42926 0.71783 0.0
H481 H 0.97721 0.34488 0.66436 0.0
H482 H 0.07148 0.39287 0.64179 0.0
H483 H 0.09189 0.43442 0.64318 0.0
H484 H 0.02058 0.46721 0.6363 0.0
H485 H -0.00019 0.42587 0.63456 0.0
C486 C 0.03156 0.28681 0.57754 0.0
C487 C 0.02891 0.29618 0.55429 0.0
C488 C 0.02802 0.30187 0.59761 0.0
C489 C 0.02147 0.32653 0.59484 0.0
C490 C 0.01962 0.33613 0.57165 0.0
C491 C 0.0233 0.32114 0.5516 0.0
C492 C 0.01548 0.34212 0.61594 0.0
C493 C 0.02781 0.36527 0.61884 0.0
C494 C 0.99703 0.33471 0.63265 0.0
C495 C 0.98225 0.31118 0.62994 0.0
C496 C 0.96795 0.3062 0.6091 0.0
C497 C 0.95426 0.28387 0.60657 0.0
C498 C 0.95456 0.26646 0.62485 0.0
C499 C 0.96848 0.27139 0.64573 0.0
C500 C 0.98224 0.29369 0.64834 0.0
C501 C 0.96194 0.41409 0.6912 0.0
C502 C 0.97913 0.42658 0.70665 0.0
C503 C 0.96983 0.39641 0.67492 0.0
C504 C 0.99509 0.39077 0.67361 0.0
C505 C 0.01216 0.40225 0.68984 0.0
C506 C 0.00427 0.42005 0.70617 0.0
C507 C 0.00343 0.37392 0.65434 0.0
C508 C 0.99152 0.35053 0.65176 0.0
C509 C 0.02181 0.38137 0.63758 0.0
C510 C 0.0341 0.4063 0.63836 0.0
C511 C 0.06018 0.40896 0.64052 0.0
C512 C 0.07181 0.43247 0.64137 0.0
C513 C 0.05754 0.45344 0.63993 0.0
C514 C 0.03161 0.45095 0.63752 0.0
C515 C 0.0199 0.4275 0.63662 0.0
H516 H 0.06657 0.47162 0.64061 0.0
H517 H 0.94396 0.24918 0.62285 0.0
H518 H 0.57718 0.96566 0.70903 0.0
H519 H 0.60943 0.95227 0.68156 0.0
H520 H 0.58632 0.00565 0.62988 0.0
H521 H 0.55424 0.01922 0.65712 0.0
H522 H 0.59955 0.95924 0.60942 0.0
H523 H 0.63062 0.02255 0.66675 0.0
H524 H 0.63875 0.03841 0.70772 0.0
H525 H 0.68218 0.97548 0.72325 0.0
H526 H 0.67401 0.95911 0.68242 0.0
H527 H 0.69887 0.00566 0.54058 0.0
H528 H 0.66288 0.99495 0.56527 0.0
H529 H 0.71008 0.95498 0.61318 0.0
H530 H 0.74632 0.96672 0.58914 0.0
H531 H 0.68489 0.98396 0.63771 0.0
H532 H 0.66248 0.9256 0.57718 0.0
H533 H 0.65471 0.90929 0.53636 0.0
H534 H 0.59574 0.95972 0.52657 0.0
H535 H 0.60338 0.97662 0.5672 0.0
C536 C 0.57874 0.97428 0.69167 0.0
C537 C 0.56348 0.99375 0.68535 0.0
C538 C 0.59707 0.96654 0.67601 0.0
C539 C 0.60019 0.97806 0.65381 0.0
C540 C 0.58406 0.99649 0.64692 0.0
C541 C 0.56594 0.00439 0.66261 0.0
C542 C 0.62204 0.97334 0.63893 0.0
C543 C 0.6183 0.9645 0.61547 0.0
C544 C 0.64643 0.97954 0.64726 0.0
C545 C 0.65145 0.98947 0.67169 0.0
C546 C 0.64173 0.01201 0.67898 0.0
C547 C 0.64637 0.02111 0.70215 0.0
C548 C 0.6609 0.00792 0.71811 0.0
C549 C 0.67088 0.98564 0.71089 0.0
C550 C 0.66626 0.97645 0.68775 0.0
C551 C 0.70146 0.99431 0.55619 0.0
C552 C 0.72535 0.98727 0.56315 0.0
C553 C 0.68085 0.98796 0.57018 0.0
C554 C 0.6837 0.9739 0.59098 0.0
C555 C 0.70743 0.96586 0.59725 0.0
C556 C 0.72811 0.97264 0.58356 0.0
C557 C 0.66261 0.97033 0.60766 0.0
C558 C 0.66641 0.9778 0.63158 0.0
C559 C 0.63838 0.9626 0.59973 0.0
C560 C 0.6336 0.95247 0.57525 0.0
C561 C 0.64796 0.93334 0.56628 0.0
C562 C 0.64356 0.92397 0.54317 0.0
C563 C 0.62476 0.93348 0.52887 0.0
C564 C 0.61029 0.95236 0.53767 0.0
C565 C 0.61462 0.96181 0.56076 0.0
H566 H 0.62139 0.9262 0.51098 0.0
H567 H 0.66448 0.01499 0.73604 0.0
H568 H 0.43441 0.30157 0.93071 0.0
H569 H 0.39763 0.32646 0.93425 0.0
H570 H 0.40678 0.32798 0.01109 0.0
H571 H 0.44311 0.30216 0.00767 0.0
H572 H 0.35869 0.32675 -0.00043 0.0
H573 H 0.43161 0.37457 0.97504 0.0
H574 H 0.46741 0.38492 0.94917 0.0
H575 H 0.41782 0.39298 0.88917 0.0
H576 H 0.38173 0.38235 0.91464 0.0
H577 H 0.3139 0.4411 0.03409 0.0
H578 H 0.33874 0.40601 0.02409 0.0
H579 H 0.31512 0.41027 0.95027 0.0
H580 H 0.29001 0.44587 0.96013 0.0
H581 H 0.36594 0.40587 0.95575 0.0
H582 H 0.29218 0.36408 0.98383 0.0
H583 H 0.25756 0.35568 0.01165 0.0
H584 H 0.30984 0.33819 0.06708 0.0
H585 H 0.34481 0.34683 0.03971 0.0
C586 C 0.42829 0.30683 0.94839 0.0
C587 C 0.44178 0.30024 0.96891 0.0
C588 C 0.40733 0.32112 0.95038 0.0
C589 C 0.39987 0.32967 0.97288 0.0
C590 C 0.4123 0.32172 0.99352 0.0
C591 C 0.43305 0.30699 0.99157 0.0
C592 C 0.38054 0.34843 0.97476 0.0
C593 C 0.36032 0.34408 0.99008 0.0
C594 C 0.38236 0.37087 0.96195 0.0
C595 C 0.40402 0.37739 0.94666 0.0
C596 C 0.42837 0.37839 0.95629 0.0
C597 C 0.4487 0.38432 0.94171 0.0
C598 C 0.4449 0.38953 0.91752 0.0
C599 C 0.42074 0.38889 0.90789 0.0
C600 C 0.40034 0.38292 0.92239 0.0
C601 C 0.31383 0.43463 0.01568 0.0
C602 C 0.29992 0.44633 0.99788 0.0
C603 C 0.32794 0.4144 0.01006 0.0
C604 C 0.32843 0.40529 0.98654 0.0
C605 C 0.31478 0.41695 0.96859 0.0
C606 C 0.30049 0.43726 0.97424 0.0
C607 C 0.34433 0.38434 0.98083 0.0
C608 C 0.364 0.38832 0.96486 0.0
C609 C 0.34214 0.36174 0.99327 0.0
C610 C 0.32114 0.35623 0.00972 0.0
C611 C 0.29631 0.35859 0.00199 0.0
C612 C 0.27662 0.35377 0.01768 0.0
C613 C 0.2815 0.34644 0.04112 0.0
C614 C 0.30609 0.34386 0.04891 0.0
C615 C 0.32585 0.34868 0.0333 0.0
H616 H 0.26623 0.34273 0.05324 0.0
H617 H 0.46067 0.39412 0.90626 0.0
H618 H 0.30039 0.57529 0.982 0.0
H619 H 0.32649 0.61303 0.98746 0.0
H620 H 0.29933 0.62081 0.05947 0.0
H621 H 0.27403 0.5827 0.05438 0.0
H622 H 0.32406 0.66114 -0.00057 0.0
H623 H 0.34792 0.63606 0.09608 0.0
H624 H 0.34635 0.60004 0.12282 0.0
H625 H 0.35484 0.5516 0.06247 0.0
H626 H 0.35676 0.58735 0.03546 0.0
H627 H 0.42584 0.74494 0.03158 0.0
H628 H 0.38577 0.72273 0.03906 0.0
H629 H 0.42121 0.65339 0.02858 0.0
H630 H 0.46073 0.67531 0.021 0.0
H631 H 0.38695 0.65038 0.06391 0.0
H632 H 0.39424 0.68143 0.98212 0.0
H633 H 0.39882 0.71482 0.9526 0.0
H634 H 0.33252 0.74726 0.97895 0.0
H635 H 0.32775 0.71418 0.00883 0.0
C636 C 0.29958 0.5854 -0.00124 0.0
C637 C 0.28566 0.57586 0.01793 0.0
C638 C 0.31442 0.60699 0.00187 0.0
C639 C 0.31528 0.61943 0.02408 0.0
C640 C 0.29938 0.61123 0.04237 0.0
C641 C 0.28495 0.58946 0.03944 0.0
C642 C 0.33512 0.63867 0.02903 0.0
C643 C 0.33757 0.65902 0.01377 0.0
C644 C 0.35285 0.63592 0.0477 0.0
C645 C 0.35216 0.61433 0.06378 0.0
C646 C 0.34951 0.61771 0.08856 0.0
C647 C 0.34856 0.59736 0.10375 0.0
C648 C 0.3504 0.57354 0.09434 0.0
C649 C 0.35332 0.57005 0.06973 0.0
C650 C 0.35434 0.59034 0.05448 0.0
C651 C 0.4251 0.72496 0.03168 0.0
C652 C 0.4462 0.71174 0.02567 0.0
C653 C 0.40225 0.71232 0.03577 0.0
C654 C 0.40051 0.68642 0.03413 0.0
C655 C 0.42211 0.67334 0.02998 0.0
C656 C 0.44467 0.68587 0.02561 0.0
C657 C 0.37619 0.67254 0.03404 0.0
C658 C 0.37289 0.65309 0.05018 0.0
C659 C 0.35804 0.67583 0.01589 0.0
C660 C 0.36082 0.69556 0.99786 0.0
C661 C 0.38075 0.69579 0.98171 0.0
C662 C 0.38336 0.71463 0.96491 0.0
C663 C 0.36602 0.7332 0.96395 0.0
C664 C 0.34597 0.7329 0.97975 0.0
C665 C 0.34331 0.71412 0.99662 0.0
H666 H 0.36806 0.74777 0.95093 0.0
H667 H 0.34961 0.55781 0.10612 0.0
H668 H 0.58183 0.32784 0.95504 0.0
H669 H 0.61804 0.35197 0.96982 0.0
H670 H 0.60574 0.32391 0.04089 0.0
H671 H 0.56917 0.29958 0.02622 0.0
H672 H 0.61245 0.37435 0.03982 0.0
H673 H 0.6541 0.30442 0.00955 0.0
H674 H 0.66414 0.27269 0.97966 0.0
H675 H 0.6907 0.329 0.93171 0.0
H676 H 0.68049 0.36112 0.96117 0.0
H677 H 0.71832 0.43685 0.08589 0.0
H678 H 0.69159 0.4014 0.07393 0.0
H679 H 0.70018 0.42113 -0.00025 0.0
H680 H 0.72766 0.45636 0.01161 0.0
H681 H 0.69698 0.37152 0.00477 0.0
H682 H 0.65102 0.44092 0.03149 0.0
H683 H 0.63964 0.47383 0.05963 0.0
H684 H 0.61964 0.41956 0.11223 0.0
H685 H 0.63125 0.38632 0.0845 0.0
C686 C 0.58681 0.32666 0.97382 0.0
C687 C 0.57254 0.31183 0.98949 0.0
C688 C 0.60767 0.34034 0.98218 0.0
C689 C 0.61474 0.33947 0.00636 0.0
C690 C 0.60063 0.32467 0.02211 0.0
C691 C 0.57977 0.31081 0.01371 0.0
C692 C 0.63593 0.35532 0.01531 0.0
C693 C 0.63108 0.37337 0.03256 0.0
C694 C 0.66 0.35448 0.00524 0.0
C695 C 0.66635 0.3352 0.98753 0.0
C696 C 0.66191 0.31006 0.99256 0.0
C697 C 0.66767 0.292 0.97571 0.0
C698 C 0.67801 0.29883 0.95378 0.0
C699 C 0.68268 0.32374 0.9487 0.0
C700 C 0.67694 0.34188 0.96549 0.0
C701 C 0.71491 0.43337 0.067 0.0
C702 C 0.72474 0.44956 0.04968 0.0
C703 C 0.6996 0.41314 0.0602 0.0
C704 C 0.69339 0.40902 0.03601 0.0
C705 C 0.70463 0.42408 0.01854 0.0
C706 C 0.7203 0.4442 0.02533 0.0
C707 C 0.67343 0.39056 0.02922 0.0
C708 C 0.67845 0.37219 0.0123 0.0
C709 C 0.64937 0.39123 0.03937 0.0
C710 C 0.64227 0.41117 0.05603 0.0
C711 C 0.64437 0.43602 0.04913 0.0
C712 C 0.63786 0.45473 0.06499 0.0
C713 C 0.62899 0.44879 0.08773 0.0
C714 C 0.62656 0.42413 0.09463 0.0
C715 C 0.63309 0.40535 0.07885 0.0
H716 H 0.62396 0.4633 0.09998 0.0
H717 H 0.68244 0.28482 0.94075 0.0
H718 H 0.6859 0.56952 0.06712 0.0
H719 H 0.66437 0.60678 0.05775 0.0
H720 H 0.72733 0.63322 0.01649 0.0
H721 H 0.74898 0.59513 0.02538 0.0
H722 H 0.67352 0.65294 0.06822 0.0
H723 H 0.70426 0.6709 0.97216 0.0
H724 H 0.72061 0.6488 0.93717 0.0
H725 H 0.68319 0.58177 0.95984 0.0
H726 H 0.66642 0.60355 0.99478 0.0
H727 H 0.59185 0.74769 0.03129 0.0
H728 H 0.63164 0.72766 0.03838 0.0
H729 H 0.60659 0.66679 0.99278 0.0
H730 H 0.56798 0.68693 0.98489 0.0
H731 H 0.65255 0.67495 0.9847 0.0
H732 H 0.60234 0.66786 0.05777 0.0
H733 H 0.58084 0.68508 0.09265 0.0
H734 H 0.64907 0.7222 0.11592 0.0
H735 H 0.67088 0.70535 0.08102 0.0
C736 C 0.69526 0.58318 0.056 0.0
C737 C 0.71917 0.57935 0.04698 0.0
C738 C 0.68295 0.60462 0.05079 0.0
C739 C 0.69424 0.62295 0.03655 0.0
C740 C 0.71818 0.61928 0.02742 0.0
C741 C 0.73049 0.59752 0.03244 0.0
C742 C 0.68005 0.64521 0.03094 0.0
C743 C 0.66921 0.65799 0.04993 0.0
C744 C 0.67455 0.65202 0.00715 0.0
C745 C 0.68444 0.63876 0.98622 0.0
C746 C 0.69955 0.65145 0.96964 0.0
C747 C 0.70886 0.63899 0.94983 0.0
C748 C 0.70304 0.61387 0.94635 0.0
C749 C 0.68778 0.60119 0.96261 0.0
C750 C 0.6784 0.61357 0.98243 0.0
C751 C 0.59505 0.73013 0.0227 0.0
C752 C 0.57675 0.71889 0.00759 0.0
C753 C 0.61775 0.7187 0.02674 0.0
C754 C 0.62215 0.69559 0.01621 0.0
C755 C 0.60393 0.6847 0.00091 0.0
C756 C 0.58166 0.69622 0.99654 0.0
C757 C 0.64461 0.68141 0.02196 0.0
C758 C 0.6574 0.67045 0.003 0.0
C759 C 0.6512 0.67557 0.04578 0.0
C760 C 0.63812 0.68564 0.06669 0.0
C761 C 0.61269 0.67981 0.07027 0.0
C762 C 0.60047 0.68948 0.09004 0.0
C763 C 0.61356 0.70479 0.10644 0.0
C764 C 0.63893 0.7104 0.10316 0.0
C765 C 0.65123 0.7008 0.0834 0.0
H766 H 0.60407 0.71226 0.12173 0.0
H767 H 0.71028 0.60426 0.93101 0.0
H768 H 0.47518 0.77872 0.92192 0.0
H769 H 0.47528 0.80893 0.88995 0.0
H770 H 0.52162 0.85888 0.93322 0.0
H771 H 0.52099 0.82878 0.9658 0.0
H772 H 0.48787 0.88359 0.90802 0.0
H773 H 0.54759 0.82329 0.89069 0.0
H774 H 0.56344 0.78155 0.88533 0.0
H775 H 0.51084 0.76722 0.828 0.0
H776 H 0.49441 0.80878 0.83325 0.0
H777 H 0.53052 0.95417 0.80914 0.0
H778 H 0.52975 0.9266 0.84335 0.0
H779 H 0.47713 0.87751 0.80612 0.0
H780 H 0.47778 0.90505 0.77159 0.0
H781 H 0.51589 0.85345 0.82891 0.0
H782 H 0.45654 0.91556 0.84768 0.0
H783 H 0.44361 0.95841 0.85296 0.0
H784 H 0.49946 0.97053 0.90781 0.0
H785 H 0.51296 0.92783 0.90263 0.0
C786 C 0.48519 0.79623 0.92477 0.0
C787 C 0.49837 0.80129 0.94622 0.0
C788 C 0.4853 0.81344 0.90644 0.0
C789 C 0.499 0.83585 0.90898 0.0
C790 C 0.51109 0.84158 0.93086 0.0
C791 C 0.51072 0.82441 0.94942 0.0
C792 C 0.50149 0.85263 0.88831 0.0
C793 C 0.49431 0.87711 0.89081 0.0
C794 C 0.50974 0.84408 0.8658 0.0
C795 C 0.51962 0.81908 0.86251 0.0
C796 C 0.53928 0.81118 0.87706 0.0
C797 C 0.54838 0.78756 0.87402 0.0
C798 C 0.53812 0.77172 0.85638 0.0
C799 C 0.51876 0.7795 0.84168 0.0
C800 C 0.50955 0.8031 0.84467 0.0
C801 C 0.51886 0.93745 0.8081 0.0
C802 C 0.50408 0.93185 0.78767 0.0
C803 C 0.51838 0.92179 0.82773 0.0
C804 C 0.50311 0.90027 0.82734 0.0
C805 C 0.48893 0.89416 0.80674 0.0
C806 C 0.48931 0.90989 0.78707 0.0
C807 C 0.50187 0.8842 0.84854 0.0
C808 C 0.50943 0.85989 0.84613 0.0
C809 C 0.49435 0.89304 0.87116 0.0
C810 C 0.48591 0.91856 0.87462 0.0
C811 C 0.46617 0.92741 0.86077 0.0
C812 C 0.45872 0.95166 0.86376 0.0
C813 C 0.47075 0.96721 0.88067 0.0
C814 C 0.49018 0.95848 0.8947 0.0
C815 C 0.49772 0.93424 0.89177 0.0
H816 H 0.46499 0.98599 0.88293 0.0
H817 H 0.5452 0.75344 0.85405 0.0
H818 H 0.24562 0.5238 0.89079 0.0
H819 H 0.21485 0.52058 0.85796 0.0
H820 H 0.15788 0.49824 0.90808 0.0
H821 H 0.18824 0.50113 0.94067 0.0
H822 H 0.15628 0.46902 0.86908 0.0
H823 H 0.16222 0.55698 0.88596 0.0
H824 H 0.18434 0.59751 0.89001 0.0
H825 H 0.20692 0.59338 0.81661 0.0
H826 H 0.18517 0.55265 0.81223 0.0
H827 H 0.04063 0.48844 0.81467 0.0
H828 H 0.07796 0.4906 0.83997 0.0
H829 H 0.12241 0.51232 0.77926 0.0
H830 H 0.08495 0.51051 0.75375 0.0
H831 H 0.1349 0.54005 0.81849 0.0
H832 H 0.12508 0.45431 0.80025 0.0
H833 H 0.10279 0.41391 0.79594 0.0
H834 H 0.08805 0.41341 0.87133 0.0
H835 H 0.10995 0.45399 0.87605 0.0
C836 C 0.22653 0.51823 0.89479 0.0
C837 C 0.21944 0.51272 0.91838 0.0
C838 C 0.20896 0.51646 0.87602 0.0
C839 C 0.18402 0.50924 0.88058 0.0
C840 C 0.17701 0.50374 0.9041 0.0
C841 C 0.19444 0.5055 0.92276 0.0
C842 C 0.16497 0.50713 0.86111 0.0
C843 C 0.15152 0.4846 0.85811 0.0
C844 C 0.15931 0.52719 0.84622 0.0
C845 C 0.17234 0.55166 0.84886 0.0
C846 C 0.17208 0.56463 0.87075 0.0
C847 C 0.18452 0.58765 0.87309 0.0
C848 C 0.1971 0.59798 0.85361 0.0
C849 C 0.19721 0.58533 0.83171 0.0
C850 C 0.18483 0.56229 0.82928 0.0
C851 C 0.05832 0.49364 0.80662 0.0
C852 C 0.05979 0.49919 0.78213 0.0
C853 C 0.0797 0.49477 0.82112 0.0
C854 C 0.10307 0.50129 0.81145 0.0
C855 C 0.1046 0.50716 0.78708 0.0
C856 C 0.08317 0.50604 0.77252 0.0
C857 C 0.12571 0.50215 0.82703 0.0
C858 C 0.13988 0.52437 0.82922 0.0
C859 C 0.13211 0.48178 0.84118 0.0
C860 C 0.11902 0.45729 0.83846 0.0
C861 C 0.11694 0.44567 0.81588 0.0
C862 C 0.1044 0.42272 0.81337 0.0
C863 C 0.09398 0.41112 0.83334 0.0
C864 C 0.09613 0.42242 0.85588 0.0
C865 C 0.10863 0.44538 0.85848 0.0
H866 H 0.08427 0.39335 0.83136 0.0
H867 H 0.20671 0.61581 0.85545 0.0
H868 H 0.53735 0.03004 0.81433 0.0
H869 H 0.54605 0.0532 0.85144 0.0
H870 H 0.5475 0.12123 0.81195 0.0
H871 H 0.5392 0.09835 0.77485 0.0
H872 H 0.58333 0.12141 0.84765 0.0
H873 H 0.49299 0.09805 0.838 0.0
H874 H 0.45916 0.06606 0.83434 0.0
H875 H 0.483 0.03381 0.90025 0.0
H876 H 0.51706 0.06557 0.90418 0.0
H877 H 0.53036 0.22331 0.89279 0.0
H878 H 0.54136 0.18526 0.87309 0.0
H879 H 0.53416 0.14627 0.93978 0.0
H880 H 0.52279 0.18465 0.95989 0.0
H881 H 0.51114 0.12128 0.90252 0.0
H882 H 0.59146 0.15493 0.91834 0.0
H883 H 0.62517 0.18691 0.9221 0.0
H884 H 0.62245 0.19867 0.84624 0.0
H885 H 0.58845 0.16705 0.84203 0.0
C886 C 0.53988 0.04991 0.8135 0.0
C887 C 0.53723 0.06243 0.7917 0.0
C888 C 0.54489 0.06307 0.83472 0.0
C889 C 0.54717 0.08889 0.83442 0.0
C890 C 0.54586 0.10127 0.81253 0.0
C891 C 0.54093 0.08818 0.79135 0.0
C892 C 0.54826 0.10358 0.8568 0.0
C893 C 0.56773 0.12131 0.85985 0.0
C894 C 0.52847 0.10257 0.87334 0.0
C895 C 0.50762 0.08399 0.87128 0.0
C896 C 0.491 0.0841 0.85168 0.0
C897 C 0.47181 0.06602 0.84956 0.0
C898 C 0.46897 0.04788 0.86703 0.0
C899 C 0.48524 0.04786 0.88673 0.0
C900 C 0.50446 0.0659 0.88893 0.0
C901 C 0.53113 0.20673 0.90339 0.0
C902 C 0.52577 0.20704 0.92793 0.0
C903 C 0.53765 0.185 0.89212 0.0
C904 C 0.53915 0.1631 0.90512 0.0
C905 C 0.5334 0.1631 0.92955 0.0
C906 C 0.52686 0.18498 0.94094 0.0
C907 C 0.54538 0.14025 0.89232 0.0
C908 C 0.52735 0.12088 0.89109 0.0
C909 C 0.56667 0.13962 0.87761 0.0
C910 C 0.58735 0.15855 0.87988 0.0
C911 C 0.59796 0.1644 0.90246 0.0
C912 C 0.61713 0.18248 0.90467 0.0
C913 C 0.62595 0.1948 0.88442 0.0
C914 C 0.61563 0.18906 0.86191 0.0
C915 C 0.59644 0.17101 0.85959 0.0
H916 H 0.64079 0.2088 0.88618 0.0
H917 H 0.45414 0.03386 0.86533 0.0
H918 H 0.883 0.49011 0.79108 0.0
H919 H 0.86068 0.49532 0.82842 0.0
H920 H 0.93035 0.49799 0.86767 0.0
H921 H 0.95304 0.49264 0.83016 0.0
H922 H 0.89387 0.46946 0.89015 0.0
H923 H 0.9019 0.55038 0.85751 0.0
H924 H 0.89917 0.58216 0.82641 0.0
H925 H 0.81986 0.56896 0.82148 0.0
H926 H 0.82216 0.53683 0.85232 0.0
H927 H 0.83669 0.51422 0.99652 0.0
H928 H 0.8639 0.51026 0.96188 0.0
H929 H 0.79965 0.50909 0.91481 0.0
H930 H 0.77238 0.51325 0.94924 0.0
H931 H 0.83657 0.53875 0.89783 0.0
H932 H 0.82892 0.4562 0.92858 0.0
H933 H 0.83154 0.42402 0.9593 0.0
H934 H 0.91012 0.44024 0.9677 0.0
H935 H 0.90789 0.47277 0.93723 0.0
C936 C 0.89369 0.49169 0.80761 0.0
C937 C 0.91989 0.49108 0.80754 0.0
C938 C 0.88084 0.49478 0.82898 0.0
C939 C 0.89384 0.49742 0.85082 0.0
C940 C 0.91995 0.4961 0.851 0.0
C941 C 0.93288 0.49308 0.82954 0.0
C942 C 0.87998 0.50181 0.8733 0.0
C943 C 0.88168 0.48485 0.89202 0.0
C944 C 0.86372 0.52165 0.87559 0.0
C945 C 0.86224 0.54104 0.85709 0.0
C946 C 0.8839 0.55412 0.84967 0.0
C947 C 0.88243 0.57222 0.83211 0.0
C948 C 0.85937 0.57754 0.82194 0.0
C949 C 0.83772 0.5648 0.82936 0.0
C950 C 0.83909 0.54666 0.8469 0.0
C951 C 0.82835 0.51317 0.97879 0.0
C952 C 0.80232 0.51399 0.97569 0.0
C953 C 0.84393 0.5108 0.959 0.0
C954 C 0.83382 0.50913 0.93572 0.0
C955 C 0.8079 0.51032 0.93258 0.0
C956 C 0.79231 0.51264 0.95232 0.0
C957 C 0.85013 0.50618 0.91456 0.0
C958 C 0.84891 0.52346 0.89607 0.0
C959 C 0.8668 0.48664 0.91251 0.0
C960 C 0.86818 0.46711 0.93083 0.0
C961 C 0.84671 0.45306 0.93713 0.0
C962 C 0.84813 0.43472 0.95447 0.0
C963 C 0.87097 0.43014 0.9655 0.0
C964 C 0.89243 0.44384 0.95917 0.0
C965 C 0.89111 0.46222 0.94186 0.0
H966 H 0.87203 0.41593 0.97891 0.0
H967 H 0.85827 0.59156 0.80835 0.0
H968 H 0.50164 0.06665 0.1911 0.0
H969 H 0.50037 0.09284 0.15557 0.0
H970 H 0.48451 0.15554 0.20013 0.0
H971 H 0.48561 0.12967 0.23553 0.0
H972 H 0.45522 0.15353 0.16002 0.0
H973 H 0.54257 0.14804 0.18002 0.0
H974 H 0.58123 0.1263 0.18831 0.0
H975 H 0.57717 0.09293 0.11833 0.0
H976 H 0.53827 0.11423 0.10975 0.0
H977 H 0.48582 0.25398 0.08379 0.0
H978 H 0.48361 0.2244 0.11658 0.0
H979 H 0.50393 0.16624 0.06821 0.0
H980 H 0.50659 0.19569 0.03549 0.0
H981 H 0.52974 0.1638 0.1087 0.0
H982 H 0.44375 0.17081 0.08758 0.0
H983 H 0.40493 0.1922 0.0791 0.0
H984 H 0.40587 0.22205 0.15055 0.0
H985 H 0.44491 0.20111 0.15937 0.0
C986 C 0.49778 0.08599 0.1933 0.0
C987 C 0.49386 0.09607 0.21619 0.0
C988 C 0.49713 0.10094 0.173 0.0
C989 C 0.49253 0.1262 0.17524 0.0
C990 C 0.48808 0.13613 0.19798 0.0
C991 C 0.48883 0.12128 0.21822 0.0
C992 C 0.49283 0.14256 0.15408 0.0
C993 C 0.47158 0.15595 0.1489 0.0
C994 C 0.51396 0.14527 0.13925 0.0
C995 C 0.53737 0.1325 0.14435 0.0
C996 C 0.54981 0.13591 0.16648 0.0
C997 C 0.57179 0.1237 0.17122 0.0
C998 C 0.58161 0.10818 0.15389 0.0
C999 C 0.56951 0.10491 0.13176 0.0
C1000 C 0.54751 0.11706 0.12694 0.0
C1001 C 0.48976 0.23489 0.08011 0.0
C1002 C 0.49637 0.22723 0.05699 0.0
C1003 C 0.48837 0.21796 0.09886 0.0
C1004 C 0.49335 0.19301 0.09481 0.0
C1005 C 0.5 0.18536 0.07177 0.0
C1006 C 0.50146 0.20225 0.05306 0.0
C1007 C 0.49217 0.17498 0.1147 0.0
C1008 C 0.51329 0.16128 0.11966 0.0
C1009 C 0.47087 0.17194 0.12929 0.0
C1010 C 0.44739 0.18457 0.12405 0.0
C1011 C 0.43579 0.1821 0.10142 0.0
C1012 C 0.41373 0.19412 0.09657 0.0
C1013 C 0.40298 0.20853 0.11426 0.0
C1014 C 0.41424 0.21091 0.13686 0.0
C1015 C 0.43632 0.19895 0.1418 0.0
H1016 H 0.38589 0.21781 0.11046 0.0
H1017 H 0.59863 0.09875 0.15758 0.0
H1018 H 0.96206 0.59703 0.24577 0.0
H1019 H 0.92403 0.58577 0.22286 0.0
H1020 H 0.94704 0.51067 0.21753 0.0
H1021 H 0.9846 0.52142 0.24092 0.0
H1022 H 0.9387 0.54426 0.17168 0.0
H1023 H 0.90276 0.50924 0.24366 0.0
H1024 H 0.89007 0.51053 0.28592 0.0
H1025 H 0.84237 0.57041 0.27081 0.0
H1026 H 0.8551 0.56972 0.2285 0.0
H1027 H 0.83807 0.5002 0.09684 0.0
H1028 H 0.87216 0.50429 0.12635 0.0
H1029 H 0.83254 0.56063 0.16368 0.0
H1030 H 0.79793 0.55525 0.13528 0.0
H1031 H 0.85002 0.53333 0.19482 0.0
H1032 H 0.88581 0.57193 0.1253 0.0
H1033 H 0.89892 0.57482 0.0832 0.0
H1034 H 0.94728 0.51436 0.0932 0.0
H1035 H 0.93421 0.51091 0.1353 0.0
C1036 C 0.95865 0.57797 0.24036 0.0
C1037 C 0.97642 0.56018 0.24501 0.0
C1038 C 0.93697 0.57159 0.22729 0.0
C1039 C 0.93297 0.54746 0.21852 0.0
C1040 C 0.94989 0.52937 0.22427 0.0
C1041 C 0.97129 0.53558 0.23771 0.0
C1042 C 0.91292 0.54195 0.20088 0.0
C1043 C 0.91929 0.54147 0.17663 0.0
C1044 C 0.88773 0.53913 0.20755 0.0
C1045 C 0.88013 0.53962 0.23298 0.0
C1046 C 0.88981 0.52288 0.2494 0.0
C1047 C 0.88254 0.52345 0.27335 0.0
C1048 C 0.86549 0.5406 0.28107 0.0
C1049 C 0.85562 0.55717 0.26482 0.0
C1050 C 0.86284 0.55668 0.24085 0.0
C1051 C 0.83686 0.51353 0.1113 0.0
C1052 C 0.81553 0.52745 0.11388 0.0
C1053 C 0.85633 0.51595 0.12811 0.0
C1054 C 0.85512 0.533 0.14717 0.0
C1055 C 0.83392 0.54723 0.14931 0.0
C1056 C 0.81421 0.54427 0.133 0.0
C1057 C 0.87557 0.53592 0.16522 0.0
C1058 C 0.86936 0.53595 0.18964 0.0
C1059 C 0.90094 0.53893 0.15866 0.0
C1060 C 0.90882 0.54099 0.13336 0.0
C1061 C 0.8991 0.55913 0.11847 0.0
C1062 C 0.90654 0.56089 0.09462 0.0
C1063 C 0.92386 0.54473 0.08551 0.0
C1064 C 0.93383 0.52683 0.10026 0.0
C1065 C 0.92642 0.52498 0.12412 0.0
H1066 H 0.9296 0.54613 0.06704 0.0
H1067 H 0.85987 0.541 0.29961 0.0
H1068 H 0.51801 0.83467 0.0592 0.0
H1069 H 0.51773 0.86671 0.09023 0.0
H1070 H 0.50546 0.81107 0.14395 0.0
H1071 H 0.50539 0.77893 0.11299 0.0
H1072 H 0.47503 0.84829 0.15053 0.0
H1073 H 0.56257 0.84085 0.1378 0.0
H1074 H 0.60117 0.8397 0.11431 0.0
H1075 H 0.5908 0.91388 0.09104 0.0
H1076 H 0.55193 0.91536 0.11415 0.0
H1077 H 0.49836 0.92691 0.25155 0.0
H1078 H 0.501 0.89406 0.2215 0.0
H1079 H 0.51208 0.94849 0.16644 0.0
H1080 H 0.50974 0.98144 0.19639 0.0
H1081 H 0.54367 0.91142 0.16111 0.0
H1082 H 0.45568 0.91842 0.17325 0.0
H1083 H 0.41711 0.91951 0.19682 0.0
H1084 H 0.42852 0.84593 0.22131 0.0
H1085 H 0.46736 0.84453 0.19813 0.0
C1086 C 0.51537 0.82921 0.07762 0.0
C1087 C 0.51175 0.80419 0.08357 0.0
C1088 C 0.51532 0.84757 0.09538 0.0
C1089 C 0.51181 0.84133 0.11951 0.0
C1090 C 0.50822 0.81637 0.12549 0.0
C1091 C 0.50826 0.79799 0.10774 0.0
C1092 C 0.51128 0.86084 0.13841 0.0
C1093 C 0.49022 0.86186 0.15307 0.0
C1094 C 0.53082 0.87894 0.14142 0.0
C1095 C 0.5542 0.87812 0.12752 0.0
C1096 C 0.56841 0.85684 0.12752 0.0
C1097 C 0.59036 0.85615 0.1143 0.0
C1098 C 0.5984 0.87668 0.10114 0.0
C1099 C 0.58453 0.89798 0.10122 0.0
C1100 C 0.56255 0.89876 0.11439 0.0
C1101 C 0.50137 0.93192 0.23306 0.0
C1102 C 0.50374 0.95685 0.2264 0.0
C1103 C 0.5028 0.9131 0.21587 0.0
C1104 C 0.50648 0.91878 0.19164 0.0
C1105 C 0.50921 0.94363 0.185 0.0
C1106 C 0.50778 0.96246 0.20216 0.0
C1107 C 0.50741 0.89886 0.17318 0.0
C1108 C 0.52852 0.8978 0.1586 0.0
C1109 C 0.48793 0.8807 0.17025 0.0
C1110 C 0.46456 0.88148 0.18415 0.0
C1111 C 0.45007 0.90255 0.18382 0.0
C1112 C 0.42814 0.90321 0.19708 0.0
C1113 C 0.42041 0.88283 0.21061 0.0
C1114 C 0.43456 0.86172 0.21085 0.0
C1115 C 0.45652 0.86098 0.19764 0.0
H1116 H 0.40342 0.88337 0.22086 0.0
H1117 H 0.6154 0.87611 0.09092 0.0
H1118 H 0.17297 0.52214 0.01652 0.0
H1119 H 0.13648 0.53339 0.03956 0.0
H1120 H 0.15704 0.48299 0.09505 0.0
H1121 H 0.19343 0.47176 0.07226 0.0
H1122 H 0.10495 0.49004 0.09224 0.0
H1123 H 0.18545 0.53805 0.09526 0.0
H1124 H 0.21887 0.56242 0.07529 0.0
H1125 H 0.16505 0.61263 0.04927 0.0
H1126 H 0.13128 0.58829 0.06883 0.0
H1127 H 0.1019 0.52972 0.20948 0.0
H1128 H 0.11391 0.51729 0.16937 0.0
H1129 H 0.08713 0.58526 0.14106 0.0
H1130 H 0.07536 0.59812 0.18138 0.0
H1131 H 0.13049 0.574 0.12162 0.0
H1132 H 0.05259 0.53219 0.13211 0.0
H1133 H 0.02021 0.50729 0.15285 0.0
H1134 H 0.06781 0.44541 0.15351 0.0
H1135 H 0.10064 0.47002 0.1331 0.0
C1136 C 0.16909 0.51268 0.03313 0.0
C1137 C 0.18632 0.49659 0.04299 0.0
C1138 C 0.14824 0.51911 0.04624 0.0
C1139 C 0.14446 0.50938 0.06916 0.0
C1140 C 0.15973 0.49077 0.07742 0.0
C1141 C 0.18064 0.48451 0.06447 0.0
C1142 C 0.12899 0.52206 0.08673 0.0
C1143 C 0.11019 0.5085 0.09856 0.0
C1144 C 0.13558 0.54637 0.09452 0.0
C1145 C 0.15588 0.56126 0.08325 0.0
C1146 C 0.18078 0.55424 0.08519 0.0
C1147 C 0.19976 0.56802 0.07395 0.0
C1148 C 0.19408 0.58903 0.06098 0.0
C1149 C 0.16941 0.59633 0.05928 0.0
C1150 C 0.15035 0.58255 0.07042 0.0
C1151 C 0.0988 0.54219 0.1948 0.0
C1152 C 0.08756 0.56485 0.19859 0.0
C1153 C 0.1054 0.53492 0.17184 0.0
C1154 C 0.10064 0.55002 0.15218 0.0
C1155 C 0.09058 0.5732 0.15599 0.0
C1156 C 0.08407 0.58058 0.17905 0.0
C1157 C 0.10704 0.54161 0.12785 0.0
C1158 C 0.12427 0.55598 0.11482 0.0
C1159 C 0.09891 0.51807 0.11899 0.0
C1160 C 0.07913 0.50302 0.1311 0.0
C1161 C 0.05622 0.51331 0.13679 0.0
C1162 C 0.03777 0.49924 0.14848 0.0
C1163 C 0.04196 0.47479 0.15451 0.0
C1164 C 0.06459 0.46434 0.14881 0.0
C1165 C 0.08311 0.47834 0.13713 0.0
H1166 H 0.02766 0.46393 0.16358 0.0
H1167 H 0.2088 0.59967 0.05228 0.0
H1168 H 0.80326 0.94636 0.46854 0.0
H1169 H 0.82258 0.90698 0.46035 0.0
H1170 H 0.87523 0.9216 0.51813 0.0
H1171 H 0.85669 0.96098 0.52589 0.0
H1172 H 0.89752 0.89983 0.48318 0.0
H1173 H 0.82002 0.88661 0.5256 0.0
H1174 H 0.77464 0.88908 0.53127 0.0
H1175 H 0.76101 0.84741 0.46644 0.0
H1176 H 0.80635 0.84497 0.46024 0.0
H1177 H 0.93261 0.78552 0.52426 0.0
H1178 H 0.90759 0.82224 0.52405 0.0
H1179 H 0.87664 0.80089 0.45511 0.0
H1180 H 0.90184 0.7642 0.45496 0.0
H1181 H 0.84229 0.82475 0.49011 0.0
H1182 H 0.92196 0.83576 0.45083 0.0
H1183 H 0.96759 0.83251 0.44846 0.0
H1184 H 0.97717 0.87839 0.51115 0.0
H1185 H 0.93153 0.88154 0.51413 0.0
C1186 C 0.8193 0.9414 0.47912 0.0
C1187 C 0.82822 0.95665 0.49807 0.0
C1188 C 0.83019 0.91882 0.47455 0.0
C1189 C 0.84998 0.91112 0.489 0.0
C1190 C 0.8599 0.92708 0.50683 0.0
C1191 C 0.84919 0.94961 0.51129 0.0
C1192 C 0.85958 0.88595 0.48684 0.0
C1193 C 0.8854 0.88346 0.48473 0.0
C1194 C 0.84376 0.86451 0.48856 0.0
C1195 C 0.81654 0.86587 0.49231 0.0
C1196 C 0.80733 0.87813 0.51247 0.0
C1197 C 0.78163 0.87951 0.51579 0.0
C1198 C 0.76495 0.86848 0.49918 0.0
C1199 C 0.77395 0.85599 0.47926 0.0
C1200 C 0.79965 0.8546 0.47584 0.0
C1201 C 0.9199 0.78817 0.5094 0.0
C1202 C 0.91944 0.77217 0.48947 0.0
C1203 C 0.9057 0.8092 0.50928 0.0
C1204 C 0.89065 0.81432 0.4894 0.0
C1205 C 0.88826 0.7972 0.47055 0.0
C1206 C 0.9027 0.77631 0.4705 0.0
C1207 C 0.8801 0.83891 0.48703 0.0
C1208 C 0.85423 0.84119 0.48822 0.0
C1209 C 0.89586 0.86022 0.48481 0.0
C1210 C 0.92332 0.85869 0.48282 0.0
C1211 C 0.93378 0.84498 0.46422 0.0
C1212 C 0.95965 0.84318 0.46275 0.0
C1213 C 0.97527 0.85519 0.47968 0.0
C1214 C 0.96505 0.86908 0.49806 0.0
C1215 C 0.93918 0.87089 0.49964 0.0
H1216 H 0.99529 0.85377 0.47851 0.0
H1217 H 0.74506 0.86956 0.50178 0.0
H1218 H 0.95678 0.24027 0.51413 0.0
H1219 H 0.91693 0.22083 0.5263 0.0
H1220 H 0.90904 0.18565 0.45695 0.0
H1221 H 0.9484 0.20503 0.44461 0.0
H1222 H 0.86409 0.20118 0.4736 0.0
H1223 H 0.93569 0.15592 0.50329 0.0
H1224 H 0.9745 0.15275 0.52697 0.0
H1225 H 0.93607 0.174 0.59053 0.0
H1226 H 0.89709 0.17753 0.56712 0.0
H1227 H 0.80747 0.08272 0.47864 0.0
H1228 H 0.82988 0.12237 0.47419 0.0
H1229 H 0.82794 0.13403 0.5507 0.0
H1230 H 0.80655 0.09384 0.55526 0.0
H1231 H 0.87259 0.13905 0.53744 0.0
H1232 H 0.79825 0.17324 0.50935 0.0
H1233 H 0.75926 0.17608 0.48598 0.0
H1234 H 0.80076 0.1768 0.42068 0.0
H1235 H 0.83999 0.17361 0.4436 0.0
C1236 C 0.94637 0.22866 0.50139 0.0
C1237 C 0.95593 0.2239 0.47853 0.0
C1238 C 0.92361 0.21762 0.50835 0.0
C1239 C 0.91015 0.20168 0.49256 0.0
C1240 C 0.91908 0.19795 0.46938 0.0
C1241 C 0.94174 0.20888 0.46245 0.0
C1242 C 0.88825 0.18666 0.50058 0.0
C1243 C 0.86576 0.18762 0.48762 0.0
C1244 C 0.89026 0.1696 0.5194 0.0
C1245 C 0.91361 0.16727 0.53344 0.0
C1246 C 0.93558 0.16005 0.52229 0.0
C1247 C 0.95759 0.15818 0.53565 0.0
C1248 C 0.95777 0.16325 0.56022 0.0
C1249 C 0.93592 0.17013 0.57149 0.0
C1250 C 0.91387 0.17206 0.55819 0.0
C1251 C 0.81125 0.09405 0.49442 0.0
C1252 C 0.80558 0.08511 0.5173 0.0
C1253 C 0.82393 0.11684 0.49188 0.0
C1254 C 0.83058 0.13133 0.51213 0.0
C1255 C 0.82316 0.12317 0.53483 0.0
C1256 C 0.81093 0.10021 0.53741 0.0
C1257 C 0.84837 0.15283 0.50992 0.0
C1258 C 0.87027 0.15306 0.52394 0.0
C1259 C 0.84564 0.17105 0.49218 0.0
C1260 C 0.8221 0.17308 0.47823 0.0
C1261 C 0.79907 0.17385 0.48999 0.0
C1262 C 0.77692 0.17554 0.47682 0.0
C1263 C 0.77753 0.17659 0.45186 0.0
C1264 C 0.80032 0.176 0.44002 0.0
C1265 C 0.82253 0.1743 0.4531 0.0
H1266 H 0.76036 0.17789 0.4417 0.0
H1267 H 0.97482 0.16179 0.57054 0.0
H1268 H 0.04404 0.77215 0.43483 0.0
H1269 H 0.08275 0.79722 0.43107 0.0
H1270 H 0.09315 0.7956 0.50772 0.0
H1271 H 0.05501 0.77042 0.5116 0.0
H1272 H 0.09331 0.84241 0.44871 0.0
H1273 H 0.15229 0.79544 0.52351 0.0
H1274 H 0.15885 0.75329 0.53776 0.0
H1275 H 0.13628 0.72366 0.46906 0.0
H1276 H 0.1301 0.76563 0.45419 0.0
H1277 H 0.17825 0.90148 0.53842 0.0
H1278 H 0.15625 0.86507 0.5218 0.0
H1279 H 0.18022 0.8852 0.45092 0.0
H1280 H 0.20279 0.92188 0.4676 0.0
H1281 H 0.17095 0.82433 0.4932 0.0
H1282 H 0.12595 0.8724 0.41579 0.0
H1283 H 0.11767 0.91431 0.40153 0.0
H1284 H 0.11134 0.93973 0.47416 0.0
H1285 H 0.11929 0.89792 0.48877 0.0
C1286 C 0.05472 0.77696 0.45083 0.0
C1287 C 0.04639 0.76939 0.47353 0.0
C1288 C 0.07682 0.79125 0.44865 0.0
C1289 C 0.09101 0.79796 0.46906 0.0
C1290 C 0.08282 0.79018 0.49165 0.0
C1291 C 0.06084 0.77595 0.49385 0.0
C1292 C 0.1134 0.81466 0.46746 0.0
C1293 C 0.11062 0.83817 0.45773 0.0
C1294 C 0.13602 0.80909 0.47911 0.0
C1295 C 0.14067 0.78379 0.48773 0.0
C1296 C 0.149 0.77999 0.51133 0.0
C1297 C 0.15259 0.75609 0.51954 0.0
C1298 C 0.14796 0.73581 0.50434 0.0
C1299 C 0.13984 0.73938 0.48084 0.0
C1300 C 0.13629 0.76323 0.47251 0.0
C1301 C 0.17909 0.89809 0.51931 0.0
C1302 C 0.19199 0.91465 0.50425 0.0
C1303 C 0.16671 0.87714 0.50988 0.0
C1304 C 0.16664 0.87248 0.48518 0.0
C1305 C 0.18016 0.88851 0.47006 0.0
C1306 C 0.19295 0.90941 0.47959 0.0
C1307 C 0.15017 0.85222 0.4756 0.0
C1308 C 0.15408 0.82809 0.48324 0.0
C1309 C 0.12869 0.85709 0.46183 0.0
C1310 C 0.12354 0.88218 0.45333 0.0
C1311 C 0.12276 0.88696 0.42868 0.0
C1312 C 0.11812 0.91067 0.42055 0.0
C1313 C 0.11409 0.92969 0.43693 0.0
C1314 C 0.11457 0.92501 0.46149 0.0
C1315 C 0.11916 0.90132 0.4697 0.0
H1316 H 0.11053 0.94805 0.43061 0.0
H1317 H 0.15065 0.71732 0.51077 0.0
H1318 H 0.08064 0.21299 0.5151 0.0
H1319 H 0.11236 0.18292 0.52387 0.0
H1320 H 0.13273 0.18172 0.44931 0.0
H1321 H 0.10038 0.21078 0.44041 0.0
H1322 H 0.12461 0.13767 0.46265 0.0
H1323 H 0.1729 0.20541 0.49563 0.0
H1324 H 0.18192 0.24239 0.52067 0.0
H1325 H 0.16806 0.20015 0.5841 0.0
H1326 H 0.15861 0.16297 0.55943 0.0
H1327 H 0.21771 0.05006 0.48348 0.0
H1328 H 0.20076 0.09032 0.47423 0.0
H1329 H 0.16395 0.091 0.54248 0.0
H1330 H 0.18062 0.05098 0.55183 0.0
H1331 H 0.18536 0.13734 0.53013 0.0
H1332 H 0.13181 0.07166 0.49562 0.0
H1333 H 0.12339 0.03481 0.4702 0.0
H1334 H 0.14881 0.07478 0.40853 0.0
H1335 H 0.15769 0.11179 0.43368 0.0
C1336 C 0.0923 0.20668 0.50074 0.0
C1337 C 0.08795 0.21398 0.47707 0.0
C1338 C 0.11051 0.18957 0.50575 0.0
C1339 C 0.12503 0.18002 0.48724 0.0
C1340 C 0.12168 0.18863 0.46386 0.0
C1341 C 0.10322 0.20527 0.4588 0.0
C1342 C 0.14162 0.15913 0.49161 0.0
C1343 C 0.1383 0.13794 0.47708 0.0
C1344 C 0.15917 0.15911 0.51072 0.0
C1345 C 0.16486 0.18143 0.52565 0.0
C1346 C 0.17159 0.20404 0.51491 0.0
C1347 C 0.17681 0.22503 0.52904 0.0
C1348 C 0.17552 0.22363 0.55396 0.0
C1349 C 0.16904 0.20121 0.5648 0.0
C1350 C 0.16378 0.18016 0.55075 0.0
C1351 C 0.20622 0.05892 0.49659 0.0
C1352 C 0.20025 0.0472 0.51824 0.0
C1353 C 0.19659 0.0819 0.4913 0.0
C1354 C 0.18103 0.09353 0.50766 0.0
C1355 C 0.17598 0.08236 0.52967 0.0
C1356 C 0.18536 0.05937 0.53487 0.0
C1357 C 0.16816 0.11624 0.50119 0.0
C1358 C 0.17203 0.13753 0.51541 0.0
C1359 C 0.15123 0.11653 0.48169 0.0
C1360 C 0.14568 0.09437 0.46655 0.0
C1361 C 0.13578 0.07252 0.47667 0.0
C1362 C 0.13089 0.05162 0.46231 0.0
C1363 C 0.13564 0.05243 0.43778 0.0
C1364 C 0.1452 0.07417 0.42754 0.0
C1365 C 0.15015 0.09511 0.44183 0.0
H1366 H 0.13184 0.03623 0.42669 0.0
H1367 H 0.17957 0.23991 0.56486 0.0
loop_
_geom_bond_atom_site_label_1
_geom_bond_atom_site_label_2
_geom_bond_distance
_geom_bond_site_symmetry_2
_ccdc_geom_bond_type
Zn0 O3 2.031 . S
Zn0 O5 2.049 . S
Zn0 O10 2.067 1_455 S
Zn1 O2 1.962 . S
Zn1 O4 1.986 . S
Zn1 O6 1.996 . S
Zn1 O9 1.943 1_455 S
O2 Zn1 1.962 . S
O2 C7 1.254 . S
O3 Zn0 2.031 . S
O3 C7 1.269 . S
O4 Zn1 1.986 . S
O4 C11 1.262 . S
O5 Zn0 2.049 . S
O5 C13 1.260 . S
O6 Zn1 1.996 . S
O6 C13 1.257 . S
C7 O2 1.254 . S
C7 O3 1.269 . S
C8 O9 1.249 . S
C8 O10 1.270 . S
O9 Zn1 1.943 1_655 S
O9 C8 1.249 . S
O10 Zn0 2.067 1_655 S
O10 C8 1.270 . S
C11 O4 1.262 . S
C11 O12 1.232 . S
O12 C11 1.232 . S
C13 O5 1.260 . S
C13 O6 1.257 . S
Zn14 O17 2.031 1_545 S
Zn14 O19 2.049 . S
Zn14 O24 2.067 . S
Zn15 O16 1.962 1_545 S
Zn15 O18 1.986 . S
Zn15 O20 1.996 . S
Zn15 O23 1.943 . S
O16 Zn15 1.962 1_565 S
O16 C21 1.254 . S
O17 Zn14 2.031 1_565 S
O17 C21 1.269 . S
O18 Zn15 1.986 . S
O18 C25 1.262 . S
O19 Zn14 2.049 . S
O19 C27 1.260 . S
O20 Zn15 1.996 . S
O20 C27 1.257 . S
C21 O16 1.254 . S
C21 O17 1.269 . S
C22 O23 1.249 . S
C22 O24 1.270 . S
O23 Zn15 1.943 . S
O23 C22 1.249 . S
O24 Zn14 2.067 . S
O24 C22 1.270 . S
C25 O18 1.262 . S
C25 O26 1.232 . S
O26 C25 1.232 . S
C27 O19 1.260 . S
C27 O20 1.257 . S
Zn28 O31 2.031 1_455 S
Zn28 O33 2.049 . S
Zn28 O38 2.067 . S
Zn29 O30 1.962 1_455 S
Zn29 O32 1.986 . S
Zn29 O34 1.996 . S
Zn29 O37 1.943 . S
O30 Zn29 1.962 1_655 S
O30 C35 1.254 . S
O31 Zn28 2.031 1_655 S
O31 C35 1.269 . S
O32 Zn29 1.986 . S
O32 C39 1.262 . S
O33 Zn28 2.049 . S
O33 C41 1.260 . S
O34 Zn29 1.996 . S
O34 C41 1.257 . S
C35 O30 1.254 . S
C35 O31 1.269 . S
C36 O37 1.249 . S
C36 O38 1.270 . S
O37 Zn29 1.943 . S
O37 C36 1.249 . S
O38 Zn28 2.067 . S
O38 C36 1.270 . S
C39 O32 1.262 . S
C39 O40 1.232 . S
O40 C39 1.232 . S
C41 O33 1.260 . S
C41 O34 1.257 . S
Zn42 O45 2.031 . S
Zn42 O47 2.049 . S
Zn42 O52 2.067 1_545 S
Zn43 O44 1.962 . S
Zn43 O46 1.986 . S
Zn43 O48 1.996 . S
Zn43 O51 1.943 1_545 S
O44 Zn43 1.962 . S
O44 C49 1.254 . S
O45 Zn42 2.031 . S
O45 C49 1.269 . S
O46 Zn43 1.986 . S
O46 C53 1.262 . S
O47 Zn42 2.049 . S
O47 C55 1.260 . S
O48 Zn43 1.996 . S
O48 C55 1.257 . S
C49 O44 1.254 . S
C49 O45 1.269 . S
C50 O51 1.249 . S
C50 O52 1.270 . S
O51 Zn43 1.943 1_565 S
O51 C50 1.249 . S
O52 Zn42 2.067 1_565 S
O52 C50 1.270 . S
C53 O46 1.262 . S
C53 O54 1.232 . S
O54 C53 1.232 . S
C55 O47 1.260 . S
C55 O48 1.257 . S
Zn56 O59 2.031 . S
Zn56 O61 2.049 . S
Zn56 O66 2.067 . S
Zn57 O58 1.962 . S
Zn57 O60 1.986 1_545 S
Zn57 O62 1.996 . S
Zn57 O65 1.943 . S
O58 Zn57 1.962 . S
O58 C63 1.264 . S
O59 Zn56 2.031 . S
O59 C63 1.269 . S
O60 Zn57 1.986 1_565 S
O60 C67 1.262 . S
O61 Zn56 2.049 . S
O61 C69 1.260 . S
O62 Zn57 1.996 . S
O62 C69 1.257 . S
C63 O58 1.264 . S
C63 O59 1.269 . S
C64 O65 1.249 . S
C64 O66 1.270 . S
O65 Zn57 1.943 . S
O65 C64 1.249 . S
O66 Zn56 2.067 . S
O66 C64 1.270 . S
C67 O60 1.262 . S
C67 O68 1.232 . S
O68 C67 1.232 . S
C69 O61 1.260 . S
C69 O62 1.257 . S
Zn70 O73 2.031 . S
Zn70 O75 2.049 . S
Zn70 O80 2.067 1_455 S
Zn71 O72 1.962 . S
Zn71 O74 1.986 . S
Zn71 O76 1.996 . S
Zn71 O79 1.943 1_455 S
O72 Zn71 1.962 . S
O72 C77 1.254 . S
O73 Zn70 2.031 . S
O73 C77 1.269 . S
O74 Zn71 1.986 . S
O74 C81 1.262 . S
O75 Zn70 2.049 . S
O75 C83 1.260 . S
O76 Zn71 1.996 . S
O76 C83 1.257 . S
C77 O72 1.254 . S
C77 O73 1.269 . S
C78 O79 1.249 . S
C78 O80 1.270 . S
O79 Zn71 1.943 1_655 S
O79 C78 1.249 . S
O80 Zn70 2.067 1_655 S
O80 C78 1.270 . S
C81 O74 1.262 . S
C81 O82 1.232 . S
O82 C81 1.232 . S
C83 O75 1.260 . S
C83 O76 1.257 . S
Zn84 O87 2.031 . S
Zn84 O89 2.049 . S
Zn84 O94 2.067 . S
Zn85 O86 1.963 . S
Zn85 O88 2.000 . S
Zn85 O90 1.968 1_565 S
Zn85 O93 1.943 . S
O86 Zn85 1.963 . S
O86 C91 1.254 1_565 S
O87 Zn84 2.031 . S
O87 C91 1.269 . S
O88 Zn85 2.000 . S
O88 C95 1.262 . S
O89 Zn84 2.049 . S
O89 C97 1.260 . S
O90 Zn85 1.968 1_545 S
O90 C97 1.257 . S
C91 O86 1.254 1_545 S
C91 O87 1.269 . S
C92 O93 1.249 1_545 S
C92 O94 1.270 . S
O93 Zn85 1.943 . S
O93 C92 1.249 1_565 S
O94 Zn84 2.067 . S
O94 C92 1.270 . S
C95 O88 1.262 . S
C95 O96 1.232 . S
O96 C95 1.232 . S
C97 O89 1.260 . S
C97 O90 1.257 . S
Zn98 O101 2.031 . S
Zn98 O103 2.049 . S
Zn98 O108 2.067 . S
Zn99 O100 1.962 . S
Zn99 O102 1.986 . S
Zn99 O104 1.996 1_455 S
Zn99 O107 1.943 . S
O100 Zn99 1.962 . S
O100 C105 1.254 . S
O101 Zn98 2.031 . S
O101 C105 1.269 1_655 S
O102 Zn99 1.986 . S
O102 C109 1.262 . S
O103 Zn98 2.049 . S
O103 C111 1.260 . S
O104 Zn99 1.996 1_655 S
O104 C111 1.257 . S
C105 O100 1.254 . S
C105 O101 1.269 1_455 S
C106 O107 1.249 . S
C106 O108 1.270 1_455 S
O107 Zn99 1.943 . S
O107 C106 1.249 . S
O108 Zn98 2.067 . S
O108 C106 1.270 1_655 S
C109 O102 1.262 . S
C109 O110 1.232 . S
O110 C109 1.232 . S
C111 O103 1.260 . S
C111 O104 1.257 . S
Zn112 O115 2.031 . S
Zn112 O117 2.049 . S
Zn112 O122 2.067 . S
Zn113 O114 1.963 . S
Zn113 O116 1.995 . S
Zn113 O118 1.977 1_556 S
Zn113 O121 1.943 . S
O114 Zn113 1.963 . S
O114 C119 1.254 1_556 S
O115 Zn112 2.031 . S
O115 C119 1.269 . S
O116 Zn113 1.995 . S
O116 C123 1.262 . S
O117 Zn112 2.049 . S
O117 C125 1.260 . S
O118 Zn113 1.977 1_554 S
O118 C125 1.257 . S
C119 O114 1.254 1_554 S
C119 O115 1.269 . S
C120 O121 1.228 1_554 S
C120 O122 1.270 . S
O121 Zn113 1.943 . S
O121 C120 1.228 1_556 S
O122 Zn112 2.067 . S
O122 C120 1.270 . S
C123 O116 1.262 . S
C123 O124 1.232 . S
O124 C123 1.232 . S
C125 O117 1.260 . S
C125 O118 1.257 . S
Zn126 O129 2.031 . S
Zn126 O131 2.049 . S
Zn126 O136 2.067 . S
Zn127 O128 1.962 . S
Zn127 O130 1.986 . S
Zn127 O132 1.996 1_554 S
Zn127 O135 1.943 . S
O128 Zn127 1.962 . S
O128 C133 1.254 . S
O129 Zn126 2.031 . S
O129 C133 1.269 1_556 S
O130 Zn127 1.986 . S
O130 C137 1.262 . S
O131 Zn126 2.049 . S
O131 C139 1.260 . S
O132 Zn127 1.996 1_556 S
O132 C139 1.257 . S
C133 O128 1.254 . S
C133 O129 1.269 1_554 S
C134 O135 1.249 . S
C134 O136 1.270 1_554 S
O135 Zn127 1.943 . S
O135 C134 1.249 . S
O136 Zn126 2.067 . S
O136 C134 1.270 1_556 S
C137 O130 1.262 . S
C137 O138 1.232 . S
O138 C137 1.232 . S
C139 O131 1.260 . S
C139 O132 1.257 . S
Zn140 O143 2.031 . S
Zn140 O145 2.049 . S
Zn140 O150 2.067 . S
Zn141 O142 1.961 1_554 S
Zn141 O144 1.985 1_554 S
Zn141 O146 1.997 . S
Zn141 O149 1.943 1_554 S
O142 Zn141 1.961 1_556 S
O142 C147 1.235 1_556 S
O143 Zn140 2.031 . S
O143 C147 1.269 . S
O144 Zn141 1.985 1_556 S
O144 C151 1.262 . S
O145 Zn140 2.049 . S
O145 C153 1.260 . S
O146 Zn141 1.997 . S
O146 C153 1.257 . S
C147 O142 1.235 1_554 S
C147 O143 1.269 . S
C148 O149 1.227 1_554 S
C148 O150 1.270 . S
O149 Zn141 1.943 1_556 S
O149 C148 1.227 1_556 S
O150 Zn140 2.067 . S
O150 C148 1.270 . S
C151 O144 1.262 . S
C151 O152 1.232 . S
O152 C151 1.232 . S
C153 O145 1.260 . S
C153 O146 1.257 . S
Zn154 O157 2.031 . S
Zn154 O159 2.049 . S
Zn154 O164 2.067 . S
Zn155 O156 1.962 . S
Zn155 O158 1.986 . S
Zn155 O160 1.996 1_554 S
Zn155 O163 1.943 . S
O156 Zn155 1.962 . S
O156 C161 1.254 . S
O157 Zn154 2.031 . S
O157 C161 1.269 1_556 S
O158 Zn155 1.986 . S
O158 C165 1.262 . S
O159 Zn154 2.049 . S
O159 C167 1.260 . S
O160 Zn155 1.996 1_556 S
O160 C167 1.257 . S
C161 O156 1.254 . S
C161 O157 1.269 1_554 S
C162 O163 1.269 . S
C162 O164 1.240 1_554 S
O163 Zn155 1.943 . S
O163 C162 1.269 . S
O164 Zn154 2.067 . S
O164 C162 1.240 1_556 S
C165 O158 1.262 . S
C165 O166 1.232 . S
O166 C165 1.232 . S
C167 O159 1.260 . S
C167 O160 1.257 . S
H168 C186 0.951 . S
H169 C188 0.951 . S
H170 C190 0.950 . S
H171 C191 0.950 . S
H172 C193 0.951 . S
H173 C196 0.950 . S
H174 C197 0.950 . S
H175 C199 0.950 . S
H176 C200 0.950 . S
H177 C201 0.951 . S
H178 C203 0.951 . S
H179 C205 0.950 . S
H180 C206 0.950 . S
H181 C208 0.950 . S
H182 C211 0.950 . S
H183 C212 0.950 . S
H184 C214 0.950 . S
H185 C215 0.950 . S
C186 H168 0.951 . S
C186 C187 1.366 . S
C186 C188 1.388 . S
C187 C186 1.366 . S
C187 C191 1.385 1_455 S
C188 H169 0.951 . S
C188 C186 1.388 . S
C188 C189 1.366 . S
C189 C188 1.366 . S
C189 C190 1.414 1_455 S
C189 C192 1.499 . S
C190 H170 0.950 . S
C190 C189 1.414 1_655 S
C190 C191 1.374 . S
C191 H171 0.950 . S
C191 C187 1.385 1_655 S
C191 C190 1.374 . S
C192 C189 1.499 . S
C192 C193 1.373 . S
C192 C194 1.389 . S
C193 H172 0.951 . S
C193 C192 1.373 . S
C193 C209 1.377 . S
C194 C192 1.389 . S
C194 C195 1.524 . S
C194 C208 1.377 . S
C195 C194 1.524 . S
C195 C196 1.397 1_455 S
C195 C200 1.363 . S
C196 H173 0.950 . S
C196 C195 1.397 1_655 S
C196 C197 1.334 . S
C197 H174 0.950 . S
C197 C196 1.334 . S
C197 C198 1.287 1_655 S
C198 C197 1.287 1_455 S
C198 C199 1.524 . S
C198 H217 0.913 . S
C199 H175 0.950 . S
C199 C198 1.524 . S
C199 C200 1.415 . S
C200 H176 0.950 . S
C200 C195 1.363 . S
C200 C199 1.415 . S
C201 H177 0.951 . S
C201 C202 1.366 1_655 S
C201 C203 1.388 . S
C202 C201 1.366 1_455 S
C202 C206 1.385 . S
C203 H178 0.951 . S
C203 C201 1.388 . S
C203 C204 1.366 1_655 S
C204 C203 1.366 1_455 S
C204 C205 1.414 . S
C204 C207 1.499 . S
C205 H179 0.950 . S
C205 C204 1.414 . S
C205 C206 1.374 . S
C206 H180 0.950 . S
C206 C202 1.385 . S
C206 C205 1.374 . S
C207 C204 1.499 . S
C207 C208 1.373 . S
C207 C209 1.389 . S
C208 H181 0.950 . S
C208 C194 1.377 . S
C208 C207 1.373 . S
C209 C193 1.377 . S
C209 C207 1.389 . S
C209 C210 1.524 . S
C210 C209 1.524 . S
C210 C211 1.397 . S
C210 C215 1.363 1_455 S
C211 H182 0.950 . S
C211 C210 1.397 . S
C211 C212 1.334 . S
C212 H183 0.950 . S
C212 C211 1.334 . S
C212 C213 1.287 . S
C213 C212 1.287 . S
C213 C214 1.524 1_455 S
C213 H216 0.999 . S
C214 H184 0.950 . S
C214 C213 1.524 1_655 S
C214 C215 1.415 . S
C215 H185 0.950 . S
C215 C210 1.363 1_655 S
C215 C214 1.415 . S
H216 C213 0.999 . S
H217 C198 0.913 . S
H218 C236 0.951 . S
H219 C238 0.951 . S
H220 C240 0.950 1_565 S
H221 C241 0.950 1_565 S
H222 C243 0.950 . S
H223 C246 0.950 . S
H224 C247 0.950 . S
H225 C249 0.950 . S
H226 C250 0.950 . S
H227 C251 0.951 1_565 S
H228 C253 0.951 1_565 S
H229 C255 0.950 . S
H230 C256 0.950 . S
H231 C258 0.950 . S
H232 C261 0.950 . S
H233 C262 0.950 . S
H234 C264 0.950 . S
H235 C265 0.950 . S
C236 H218 0.951 . S
C236 C237 1.366 . S
C236 C238 1.388 . S
C237 C236 1.366 . S
C237 C241 1.385 . S
C238 H219 0.951 . S
C238 C236 1.388 . S
C238 C239 1.366 . S
C239 C238 1.366 . S
C239 C240 1.414 . S
C239 C242 1.499 . S
C240 H220 0.950 1_545 S
C240 C239 1.414 . S
C240 C241 1.374 . S
C241 H221 0.950 1_545 S
C241 C237 1.385 . S
C241 C240 1.374 . S
C242 C239 1.499 . S
C242 C243 1.373 1_545 S
C242 C244 1.389 . S
C243 H222 0.950 . S
C243 C242 1.373 1_565 S
C243 C259 1.377 . S
C244 C242 1.389 . S
C244 C245 1.524 . S
C244 C258 1.377 . S
C245 C244 1.524 . S
C245 C246 1.397 . S
C245 C250 1.363 . S
C246 H223 0.950 . S
C246 C245 1.397 . S
C246 C247 1.334 . S
C247 H224 0.950 . S
C247 C246 1.334 . S
C247 C248 1.287 . S
C248 C247 1.287 . S
C248 C249 1.524 . S
C248 H267 0.913 . S
C249 H225 0.950 . S
C249 C248 1.524 . S
C249 C250 1.415 . S
C250 H226 0.950 . S
C250 C245 1.363 . S
C250 C249 1.415 . S
C251 H227 0.951 1_545 S
C251 C252 1.366 . S
C251 C253 1.388 . S
C252 C251 1.366 . S
C252 C256 1.385 . S
C253 H228 0.951 1_545 S
C253 C251 1.388 . S
C253 C254 1.366 . S
C254 C253 1.366 . S
C254 C255 1.414 . S
C254 C257 1.499 . S
C255 H229 0.950 . S
C255 C254 1.414 . S
C255 C256 1.374 . S
C256 H230 0.950 . S
C256 C252 1.385 . S
C256 C255 1.374 . S
C257 C254 1.499 . S
C257 C258 1.373 . S
C257 C259 1.389 1_545 S
C258 H231 0.950 . S
C258 C244 1.377 . S
C258 C257 1.373 . S
C259 C243 1.377 . S
C259 C257 1.389 1_565 S
C259 C260 1.524 . S
C260 C259 1.524 . S
C260 C261 1.397 . S
C260 C265 1.363 . S
C261 H232 0.950 . S
C261 C260 1.397 . S
C261 C262 1.334 . S
C262 H233 0.950 . S
C262 C261 1.334 . S
C262 C263 1.287 . S
C263 C262 1.287 . S
C263 C264 1.524 . S
C263 H266 0.999 . S
C264 H234 0.950 . S
C264 C263 1.524 . S
C264 C265 1.415 . S
C265 H235 0.950 . S
C265 C260 1.363 . S
C265 C264 1.415 . S
H266 C263 0.999 . S
H267 C248 0.913 . S
H268 C286 0.951 . S
H269 C288 0.951 . S
H270 C290 0.950 . S
H271 C291 0.950 . S
H272 C293 0.950 . S
H273 C296 0.950 . S
H274 C297 0.950 . S
H275 C299 0.950 . S
H276 C300 0.950 . S
H277 C301 0.951 1_655 S
H278 C303 0.951 1_655 S
H279 C305 0.950 . S
H280 C306 0.950 . S
H281 C308 0.950 . S
H282 C311 0.950 . S
H283 C312 0.950 . S
H284 C314 0.950 . S
H285 C315 0.950 . S
C286 H268 0.951 . S
C286 C287 1.366 . S
C286 C288 1.388 . S
C287 C286 1.366 . S
C287 C291 1.385 1_455 S
C288 H269 0.951 . S
C288 C286 1.388 . S
C288 C289 1.366 . S
C289 C288 1.366 . S
C289 C290 1.414 1_455 S
C289 C292 1.499 . S
C290 H270 0.950 . S
C290 C289 1.414 1_655 S
C290 C291 1.374 . S
C291 H271 0.950 . S
C291 C287 1.385 1_655 S
C291 C290 1.374 . S
C292 C289 1.499 . S
C292 C293 1.373 . S
C292 C294 1.389 . S
C293 H272 0.950 . S
C293 C292 1.373 . S
C293 C309 1.377 . S
C294 C292 1.389 . S
C294 C295 1.523 1_455 S
C294 C308 1.377 . S
C295 C294 1.523 1_655 S
C295 C296 1.403 . S
C295 C300 1.359 1_655 S
C296 H273 0.950 . S
C296 C295 1.403 . S
C296 C297 1.334 . S
C297 H274 0.950 . S
C297 C296 1.334 . S
C297 C298 1.287 . S
C298 C297 1.287 . S
C298 C299 1.524 1_655 S
C298 H317 0.913 . S
C299 H275 0.950 . S
C299 C298 1.524 1_455 S
C299 C300 1.415 . S
C300 H276 0.950 . S
C300 C295 1.359 1_455 S
C300 C299 1.415 . S
C301 H277 0.951 1_455 S
C301 C302 1.366 . S
C301 C303 1.388 . S
C302 C301 1.366 . S
C302 C306 1.385 . S
C303 H278 0.951 1_455 S
C303 C301 1.388 . S
C303 C304 1.366 . S
C304 C303 1.366 . S
C304 C305 1.414 . S
C304 C307 1.499 . S
C305 H279 0.950 . S
C305 C304 1.414 . S
C305 C306 1.374 . S
C306 H280 0.950 . S
C306 C302 1.385 . S
C306 C305 1.374 . S
C307 C304 1.499 . S
C307 C308 1.373 . S
C307 C309 1.389 . S
C308 H281 0.950 . S
C308 C294 1.377 . S
C308 C307 1.373 . S
C309 C293 1.377 . S
C309 C307 1.389 . S
C309 C310 1.524 . S
C310 C309 1.524 . S
C310 C311 1.397 . S
C310 C315 1.363 . S
C311 H282 0.950 . S
C311 C310 1.397 . S
C311 C312 1.334 . S
C312 H283 0.950 . S
C312 C311 1.334 . S
C312 C313 1.287 . S
C313 C312 1.287 . S
C313 C314 1.524 . S
C313 H316 0.999 . S
C314 H284 0.950 . S
C314 C313 1.524 . S
C314 C315 1.415 . S
C315 H285 0.950 . S
C315 C310 1.363 . S
C315 C314 1.415 . S
H316 C313 0.999 . S
H317 C298 0.913 . S
H318 C336 0.950 1_565 S
H319 C338 0.950 1_565 S
H320 C340 0.950 . S
H321 C341 0.950 . S
H322 C343 0.963 . S
H323 C346 0.950 . S
H324 C347 0.950 . S
H325 C349 0.950 . S
H326 C350 0.950 . S
H327 C351 0.951 . S
H328 C353 0.951 . S
H329 C355 0.944 1_565 S
H330 C356 0.944 1_565 S
H331 C358 0.950 . S
H332 C361 0.950 . S
H333 C362 0.950 . S
H334 C364 0.950 . S
H335 C365 0.950 . S
C336 H318 0.950 1_545 S
C336 C337 1.366 . S
C336 C338 1.388 . S
C337 C336 1.366 . S
C337 C341 1.385 . S
C338 H319 0.950 1_545 S
C338 C336 1.388 . S
C338 C339 1.366 . S
C339 C338 1.366 . S
C339 C340 1.414 . S
C339 C342 1.499 . S
C340 H320 0.950 . S
C340 C339 1.414 . S
C340 C341 1.374 . S
C341 H321 0.950 . S
C341 C337 1.385 . S
C341 C340 1.374 . S
C342 C339 1.499 . S
C342 C343 1.358 1_545 S
C342 C344 1.389 . S
C343 H322 0.963 . S
C343 C342 1.358 1_565 S
C343 C359 1.381 . S
C344 C342 1.389 . S
C344 C345 1.524 . S
C344 C358 1.377 . S
C345 C344 1.524 . S
C345 C346 1.397 . S
C345 C350 1.363 . S
C346 H323 0.950 . S
C346 C345 1.397 . S
C346 C347 1.334 . S
C347 H324 0.950 . S
C347 C346 1.334 . S
C347 C348 1.287 . S
C348 C347 1.287 . S
C348 C349 1.524 . S
C348 H367 0.913 . S
C349 H325 0.950 . S
C349 C348 1.524 . S
C349 C350 1.415 . S
C350 H326 0.950 . S
C350 C345 1.363 . S
C350 C349 1.415 . S
C351 H327 0.951 . S
C351 C352 1.366 . S
C351 C353 1.388 . S
C352 C351 1.366 . S
C352 C356 1.390 . S
C353 H328 0.951 . S
C353 C351 1.388 . S
C353 C354 1.366 . S
C354 C353 1.366 . S
C354 C355 1.421 . S
C354 C357 1.499 . S
C355 H329 0.944 1_545 S
C355 C354 1.421 . S
C355 C356 1.374 . S
C356 H330 0.944 1_545 S
C356 C352 1.390 . S
C356 C355 1.374 . S
C357 C354 1.499 . S
C357 C358 1.373 . S
C357 C359 1.389 1_545 S
C358 H331 0.950 . S
C358 C344 1.377 . S
C358 C357 1.373 . S
C359 C343 1.381 . S
C359 C357 1.389 1_565 S
C359 C360 1.524 . S
C360 C359 1.524 . S
C360 C361 1.397 . S
C360 C365 1.363 . S
C361 H332 0.950 . S
C361 C360 1.397 . S
C361 C362 1.334 . S
C362 H333 0.950 . S
C362 C361 1.334 . S
C362 C363 1.287 . S
C363 C362 1.287 . S
C363 C364 1.524 . S
C363 H366 0.999 . S
C364 H334 0.950 . S
C364 C363 1.524 . S
C364 C365 1.415 . S
C365 H335 0.950 . S
C365 C360 1.363 . S
C365 C364 1.415 . S
H366 C363 0.999 . S
H367 C348 0.913 . S
H368 C386 0.951 . S
H369 C388 0.951 . S
H370 C390 0.950 . S
H371 C391 0.950 . S
H372 C393 0.950 . S
H373 C396 0.950 . S
H374 C397 0.950 . S
H375 C399 0.950 . S
H376 C400 0.950 . S
H377 C401 0.951 . S
H378 C403 0.951 . S
H379 C405 0.950 . S
H380 C406 0.950 . S
H381 C408 0.950 . S
H382 C411 0.950 . S
H383 C412 0.950 . S
H384 C414 0.950 . S
H385 C415 0.950 . S
C386 H368 0.951 . S
C386 C387 1.366 . S
C386 C388 1.388 . S
C387 C386 1.366 . S
C387 C391 1.385 . S
C388 H369 0.951 . S
C388 C386 1.388 . S
C388 C389 1.366 . S
C389 C388 1.366 . S
C389 C390 1.414 . S
C389 C392 1.499 . S
C390 H370 0.950 . S
C390 C389 1.414 . S
C390 C391 1.374 . S
C391 H371 0.950 . S
C391 C387 1.385 . S
C391 C390 1.374 . S
C392 C389 1.499 . S
C392 C393 1.373 . S
C392 C394 1.389 1_455 S
C393 H372 0.950 . S
C393 C392 1.373 . S
C393 C409 1.377 . S
C394 C392 1.389 1_655 S
C394 C395 1.524 . S
C394 C408 1.377 . S
C395 C394 1.524 . S
C395 C396 1.397 . S
C395 C400 1.363 . S
C396 H373 0.950 . S
C396 C395 1.397 . S
C396 C397 1.334 . S
C397 H374 0.950 . S
C397 C396 1.334 . S
C397 C398 1.287 . S
C398 C397 1.287 . S
C398 C399 1.524 . S
C398 H417 0.913 . S
C399 H375 0.950 . S
C399 C398 1.524 . S
C399 C400 1.415 . S
C400 H376 0.950 . S
C400 C395 1.363 . S
C400 C399 1.415 . S
C401 H377 0.951 . S
C401 C402 1.366 . S
C401 C403 1.388 . S
C402 C401 1.366 . S
C402 C406 1.385 . S
C403 H378 0.951 . S
C403 C401 1.388 . S
C403 C404 1.366 . S
C404 C403 1.366 . S
C404 C405 1.414 . S
C404 C407 1.499 . S
C405 H379 0.950 . S
C405 C404 1.414 . S
C405 C406 1.374 . S
C406 H380 0.950 . S
C406 C402 1.385 . S
C406 C405 1.374 . S
C407 C404 1.499 . S
C407 C408 1.373 1_455 S
C407 C409 1.389 . S
C408 H381 0.950 . S
C408 C394 1.377 . S
C408 C407 1.373 1_655 S
C409 C393 1.377 . S
C409 C407 1.389 . S
C409 C410 1.524 . S
C410 C409 1.524 . S
C410 C411 1.397 . S
C410 C415 1.363 . S
C411 H382 0.950 . S
C411 C410 1.397 . S
C411 C412 1.334 . S
C412 H383 0.950 . S
C412 C411 1.334 . S
C412 C413 1.287 . S
C413 C412 1.287 . S
C413 C414 1.524 . S
C413 H416 0.999 . S
C414 H384 0.950 . S
C414 C413 1.524 . S
C414 C415 1.415 . S
C415 H385 0.950 . S
C415 C410 1.363 . S
C415 C414 1.415 . S
H416 C413 0.999 . S
H417 C398 0.913 . S
H418 C436 0.951 . S
H419 C438 0.951 . S
H420 C440 0.950 . S
H421 C441 0.950 . S
H422 C443 0.950 . S
H423 C446 0.950 . S
H424 C447 0.950 . S
H425 C449 0.950 . S
H426 C450 0.950 . S
H427 C451 0.953 . S
H428 C453 0.950 1_565 S
H429 C455 0.950 . S
H430 C456 0.950 . S
H431 C458 0.950 . S
H432 C461 0.950 . S
H433 C462 0.950 . S
H434 C464 0.950 . S
H435 C465 0.950 . S
C436 H418 0.951 . S
C436 C437 1.366 . S
C436 C438 1.388 . S
C437 C436 1.366 . S
C437 C441 1.385 . S
C438 H419 0.951 . S
C438 C436 1.388 . S
C438 C439 1.366 . S
C439 C438 1.366 . S
C439 C440 1.414 . S
C439 C442 1.499 . S
C440 H420 0.950 . S
C440 C439 1.414 . S
C440 C441 1.374 . S
C441 H421 0.950 . S
C441 C437 1.385 . S
C441 C440 1.374 . S
C442 C439 1.499 . S
C442 C443 1.373 1_545 S
C442 C444 1.389 . S
C443 H422 0.950 . S
C443 C442 1.373 1_565 S
C443 C459 1.377 . S
C444 C442 1.389 . S
C444 C445 1.524 . S
C444 C458 1.377 . S
C445 C444 1.524 . S
C445 C446 1.397 . S
C445 C450 1.363 . S
C446 H423 0.950 . S
C446 C445 1.397 . S
C446 C447 1.334 . S
C447 H424 0.950 . S
C447 C446 1.334 . S
C447 C448 1.287 . S
C448 C447 1.287 . S
C448 C449 1.524 . S
C448 H467 0.913 . S
C449 H425 0.950 . S
C449 C448 1.524 . S
C449 C450 1.415 . S
C450 H426 0.950 . S
C450 C445 1.363 . S
C450 C449 1.415 . S
C451 H427 0.953 . S
C451 C452 1.366 . S
C451 C453 1.388 . S
C452 C451 1.366 . S
C452 C456 1.385 . S
C453 H428 0.950 1_545 S
C453 C451 1.388 . S
C453 C454 1.366 . S
C454 C453 1.366 . S
C454 C455 1.414 . S
C454 C457 1.499 . S
C455 H429 0.950 . S
C455 C454 1.414 . S
C455 C456 1.374 . S
C456 H430 0.950 . S
C456 C452 1.385 . S
C456 C455 1.374 . S
C457 C454 1.499 . S
C457 C458 1.373 . S
C457 C459 1.389 1_545 S
C458 H431 0.950 . S
C458 C444 1.377 . S
C458 C457 1.373 . S
C459 C443 1.377 . S
C459 C457 1.389 1_565 S
C459 C460 1.524 . S
C460 C459 1.524 . S
C460 C461 1.397 . S
C460 C465 1.363 . S
C461 H432 0.950 . S
C461 C460 1.397 . S
C461 C462 1.334 . S
C462 H433 0.950 . S
C462 C461 1.334 . S
C462 C463 1.287 . S
C463 C462 1.287 . S
C463 C464 1.524 . S
C463 H466 0.999 . S
C464 H434 0.950 . S
C464 C463 1.524 . S
C464 C465 1.415 . S
C465 H435 0.950 . S
C465 C460 1.363 . S
C465 C464 1.415 . S
H466 C463 0.999 . S
H467 C448 0.913 . S
H468 C486 0.951 . S
H469 C488 0.951 . S
H470 C490 0.957 . S
H471 C491 0.950 . S
H472 C493 0.950 . S
H473 C496 0.950 . S
H474 C497 0.950 . S
H475 C499 0.950 . S
H476 C500 0.950 . S
H477 C501 0.943 1_655 S
H478 C503 0.957 . S
H479 C505 0.950 . S
H480 C506 0.950 . S
H481 C508 0.950 . S
H482 C511 0.950 . S
H483 C512 0.950 . S
H484 C514 0.950 . S
H485 C515 0.950 . S
C486 H468 0.951 . S
C486 C487 1.366 . S
C486 C488 1.388 . S
C487 C486 1.366 . S
C487 C491 1.385 . S
C488 H469 0.951 . S
C488 C486 1.388 . S
C488 C489 1.366 . S
C489 C488 1.366 . S
C489 C490 1.414 . S
C489 C492 1.499 . S
C490 H470 0.957 . S
C490 C489 1.414 . S
C490 C491 1.374 . S
C491 H471 0.950 . S
C491 C487 1.385 . S
C491 C490 1.374 . S
C492 C489 1.499 . S
C492 C493 1.373 . S
C492 C494 1.389 1_455 S
C493 H472 0.950 . S
C493 C492 1.373 . S
C493 C509 1.377 . S
C494 C492 1.389 1_655 S
C494 C495 1.524 . S
C494 C508 1.377 . S
C495 C494 1.524 . S
C495 C496 1.397 . S
C495 C500 1.363 . S
C496 H473 0.950 . S
C496 C495 1.397 . S
C496 C497 1.334 . S
C497 H474 0.950 . S
C497 C496 1.334 . S
C497 C498 1.287 . S
C498 C497 1.287 . S
C498 C499 1.524 . S
C498 H517 0.913 . S
C499 H475 0.950 . S
C499 C498 1.524 . S
C499 C500 1.415 . S
C500 H476 0.950 . S
C500 C495 1.363 . S
C500 C499 1.415 . S
C501 H477 0.943 1_455 S
C501 C502 1.366 . S
C501 C503 1.388 . S
C502 C501 1.366 . S
C502 C506 1.385 . S
C503 H478 0.957 . S
C503 C501 1.388 . S
C503 C504 1.366 . S
C504 C503 1.366 . S
C504 C505 1.414 . S
C504 C507 1.499 . S
C505 H479 0.950 . S
C505 C504 1.414 . S
C505 C506 1.374 . S
C506 H480 0.950 . S
C506 C502 1.385 . S
C506 C505 1.374 . S
C507 C504 1.499 . S
C507 C508 1.373 1_455 S
C507 C509 1.389 . S
C508 H481 0.950 . S
C508 C494 1.377 . S
C508 C507 1.373 1_655 S
C509 C493 1.377 . S
C509 C507 1.389 . S
C509 C510 1.524 . S
C510 C509 1.524 . S
C510 C511 1.397 . S
C510 C515 1.363 . S
C511 H482 0.950 . S
C511 C510 1.397 . S
C511 C512 1.334 . S
C512 H483 0.950 . S
C512 C511 1.334 . S
C512 C513 1.287 . S
C513 C512 1.287 . S
C513 C514 1.524 . S
C513 H516 0.999 . S
C514 H484 0.950 . S
C514 C513 1.524 . S
C514 C515 1.415 . S
C515 H485 0.950 . S
C515 C510 1.363 . S
C515 C514 1.415 . S
H516 C513 0.999 . S
H517 C498 0.913 . S
H518 C536 0.951 . S
H519 C538 0.951 . S
H520 C540 0.950 . S
H521 C541 0.950 . S
H522 C543 0.950 . S
H523 C546 0.950 . S
H524 C547 0.950 . S
H525 C549 0.950 . S
H526 C550 0.950 . S
H527 C551 0.951 . S
H528 C553 0.951 . S
H529 C555 0.950 . S
H530 C556 0.950 . S
H531 C558 0.950 . S
H532 C561 0.950 . S
H533 C562 0.950 . S
H534 C564 0.950 . S
H535 C565 0.950 . S
C536 H518 0.951 . S
C536 C537 1.366 . S
C536 C538 1.388 . S
C537 C536 1.366 . S
C537 C541 1.385 . S
C538 H519 0.951 . S
C538 C536 1.388 . S
C538 C539 1.366 . S
C539 C538 1.366 . S
C539 C540 1.414 . S
C539 C542 1.499 . S
C540 H520 0.950 . S
C540 C539 1.414 . S
C540 C541 1.374 . S
C541 H521 0.950 . S
C541 C537 1.385 . S
C541 C540 1.374 . S
C542 C539 1.499 . S
C542 C543 1.373 1_545 S
C542 C544 1.389 . S
C543 H522 0.950 . S
C543 C542 1.373 1_565 S
C543 C559 1.377 . S
C544 C542 1.389 . S
C544 C545 1.524 . S
C544 C558 1.377 . S
C545 C544 1.524 . S
C545 C546 1.397 . S
C545 C550 1.363 . S
C546 H523 0.950 . S
C546 C545 1.397 . S
C546 C547 1.334 . S
C547 H524 0.950 . S
C547 C546 1.334 . S
C547 C548 1.287 . S
C548 C547 1.287 . S
C548 C549 1.524 . S
C548 H567 0.913 . S
C549 H525 0.950 . S
C549 C548 1.524 . S
C549 C550 1.415 . S
C550 H526 0.950 . S
C550 C545 1.363 . S
C550 C549 1.415 . S
C551 H527 0.951 . S
C551 C552 1.366 . S
C551 C553 1.388 . S
C552 C551 1.366 . S
C552 C556 1.385 . S
C553 H528 0.951 . S
C553 C551 1.388 . S
C553 C554 1.366 . S
C554 C553 1.366 . S
C554 C555 1.414 . S
C554 C557 1.499 . S
C555 H529 0.950 . S
C555 C554 1.414 . S
C555 C556 1.374 . S
C556 H530 0.950 . S
C556 C552 1.385 . S
C556 C555 1.374 . S
C557 C554 1.499 . S
C557 C558 1.373 . S
C557 C559 1.389 1_545 S
C558 H531 0.950 . S
C558 C544 1.377 . S
C558 C557 1.373 . S
C559 C543 1.377 . S
C559 C557 1.389 1_565 S
C559 C560 1.524 . S
C560 C559 1.524 . S
C560 C561 1.397 . S
C560 C565 1.363 . S
C561 H532 0.950 . S
C561 C560 1.397 . S
C561 C562 1.334 . S
C562 H533 0.950 . S
C562 C561 1.334 . S
C562 C563 1.287 . S
C563 C562 1.287 . S
C563 C564 1.524 . S
C563 H566 0.999 . S
C564 H534 0.950 . S
C564 C563 1.524 . S
C564 C565 1.415 . S
C565 H535 0.950 . S
C565 C560 1.363 . S
C565 C564 1.415 . S
H566 C563 0.999 . S
H567 C548 0.913 . S
H568 C586 0.951 . S
H569 C588 0.951 . S
H570 C590 0.950 . S
H571 C591 0.950 . S
H572 C593 0.950 . S
H573 C596 0.950 . S
H574 C597 0.950 . S
H575 C599 0.950 . S
H576 C600 0.950 . S
H577 C601 0.951 . S
H578 C603 0.951 . S
H579 C605 0.950 . S
H580 C606 0.950 . S
H581 C608 0.950 . S
H582 C611 0.950 . S
H583 C612 0.950 . S
H584 C614 0.950 . S
H585 C615 0.950 . S
C586 H568 0.951 . S
C586 C587 1.366 1_556 S
C586 C588 1.388 . S
C587 C586 1.366 1_554 S
C587 C591 1.385 . S
C588 H569 0.951 . S
C588 C586 1.388 . S
C588 C589 1.366 1_556 S
C589 C588 1.366 1_554 S
C589 C590 1.414 . S
C589 C592 1.499 . S
C590 H570 0.950 . S
C590 C589 1.414 . S
C590 C591 1.374 . S
C591 H571 0.950 . S
C591 C587 1.385 . S
C591 C590 1.374 . S
C592 C589 1.499 . S
C592 C593 1.373 . S
C592 C594 1.389 1_554 S
C593 H572 0.950 . S
C593 C592 1.373 . S
C593 C609 1.377 . S
C594 C592 1.389 1_556 S
C594 C595 1.524 . S
C594 C608 1.377 . S
C595 C594 1.524 . S
C595 C596 1.397 . S
C595 C600 1.363 . S
C596 H573 0.950 . S
C596 C595 1.397 . S
C596 C597 1.334 . S
C597 H574 0.950 . S
C597 C596 1.334 . S
C597 C598 1.287 . S
C598 C597 1.287 . S
C598 C599 1.524 . S
C598 H617 0.913 . S
C599 H575 0.950 . S
C599 C598 1.524 . S
C599 C600 1.415 . S
C600 H576 0.950 . S
C600 C595 1.363 . S
C600 C599 1.415 . S
C601 H577 0.951 . S
C601 C602 1.366 . S
C601 C603 1.388 . S
C602 C601 1.366 . S
C602 C606 1.385 1_554 S
C603 H578 0.951 . S
C603 C601 1.388 . S
C603 C604 1.366 . S
C604 C603 1.366 . S
C604 C605 1.414 1_554 S
C604 C607 1.499 . S
C605 H579 0.950 . S
C605 C604 1.414 1_556 S
C605 C606 1.374 . S
C606 H580 0.950 . S
C606 C602 1.385 1_556 S
C606 C605 1.374 . S
C607 C604 1.499 . S
C607 C608 1.373 1_554 S
C607 C609 1.389 . S
C608 H581 0.950 . S
C608 C594 1.377 . S
C608 C607 1.373 1_556 S
C609 C593 1.377 . S
C609 C607 1.389 . S
C609 C610 1.524 . S
C610 C609 1.524 . S
C610 C611 1.397 . S
C610 C615 1.363 . S
C611 H582 0.950 . S
C611 C610 1.397 . S
C611 C612 1.334 . S
C612 H583 0.950 . S
C612 C611 1.334 . S
C612 C613 1.287 . S
C613 C612 1.287 . S
C613 C614 1.524 . S
C613 H616 0.999 . S
C614 H584 0.950 . S
C614 C613 1.524 . S
C614 C615 1.415 . S
C615 H585 0.950 . S
C615 C610 1.363 . S
C615 C614 1.415 . S
H616 C613 0.999 . S
H617 C598 0.913 . S
H618 C636 0.951 . S
H619 C638 0.951 . S
H620 C640 0.950 . S
H621 C641 0.950 . S
H622 C643 0.950 . S
H623 C646 0.950 . S
H624 C647 0.950 . S
H625 C649 0.950 . S
H626 C650 0.950 . S
H627 C651 0.951 . S
H628 C653 0.951 . S
H629 C655 0.950 . S
H630 C656 0.950 . S
H631 C658 0.950 . S
H632 C661 0.950 . S
H633 C662 0.950 . S
H634 C664 0.950 . S
H635 C665 0.950 . S
C636 H618 0.951 . S
C636 C637 1.366 . S
C636 C638 1.388 . S
C637 C636 1.366 . S
C637 C641 1.385 . S
C638 H619 0.951 . S
C638 C636 1.388 . S
C638 C639 1.366 . S
C639 C638 1.366 . S
C639 C640 1.414 . S
C639 C642 1.499 . S
C640 H620 0.950 . S
C640 C639 1.414 . S
C640 C641 1.374 . S
C641 H621 0.950 . S
C641 C637 1.385 . S
C641 C640 1.374 . S
C642 C639 1.499 . S
C642 C643 1.373 1_554 S
C642 C644 1.389 . S
C643 H622 0.950 . S
C643 C642 1.373 1_556 S
C643 C659 1.377 . S
C644 C642 1.389 . S
C644 C645 1.524 . S
C644 C658 1.377 . S
C645 C644 1.524 . S
C645 C646 1.397 . S
C645 C650 1.363 . S
C646 H623 0.950 . S
C646 C645 1.397 . S
C646 C647 1.334 . S
C647 H624 0.950 . S
C647 C646 1.334 . S
C647 C648 1.287 . S
C648 C647 1.287 . S
C648 C649 1.524 . S
C648 H667 0.913 . S
C649 H625 0.950 . S
C649 C648 1.524 . S
C649 C650 1.415 . S
C650 H626 0.950 . S
C650 C645 1.363 . S
C650 C649 1.415 . S
C651 H627 0.951 . S
C651 C652 1.366 . S
C651 C653 1.388 . S
C652 C651 1.366 . S
C652 C656 1.385 . S
C653 H628 0.951 . S
C653 C651 1.388 . S
C653 C654 1.366 . S
C654 C653 1.366 . S
C654 C655 1.414 . S
C654 C657 1.499 . S
C655 H629 0.950 . S
C655 C654 1.414 . S
C655 C656 1.374 . S
C656 H630 0.950 . S
C656 C652 1.385 . S
C656 C655 1.374 . S
C657 C654 1.499 . S
C657 C658 1.373 . S
C657 C659 1.389 1_554 S
C658 H631 0.950 . S
C658 C644 1.377 . S
C658 C657 1.373 . S
C659 C643 1.377 . S
C659 C657 1.389 1_556 S
C659 C660 1.524 . S
C660 C659 1.524 . S
C660 C661 1.397 . S
C660 C665 1.363 . S
C661 H632 0.950 . S
C661 C660 1.397 . S
C661 C662 1.334 . S
C662 H633 0.950 . S
C662 C661 1.334 . S
C662 C663 1.287 . S
C663 C662 1.287 . S
C663 C664 1.524 . S
C663 H666 0.999 . S
C664 H634 0.950 . S
C664 C663 1.524 . S
C664 C665 1.415 . S
C665 H635 0.950 . S
C665 C660 1.363 . S
C665 C664 1.415 . S
H666 C663 0.999 . S
H667 C648 0.913 . S
H668 C686 0.951 . S
H669 C688 0.951 . S
H670 C690 0.950 . S
H671 C691 0.950 . S
H672 C693 0.950 . S
H673 C696 0.950 1_554 S
H674 C697 0.950 . S
H675 C699 0.950 . S
H676 C700 0.950 . S
H677 C701 0.951 . S
H678 C703 0.951 . S
H679 C705 0.950 . S
H680 C706 0.950 . S
H681 C708 0.950 . S
H682 C711 0.950 . S
H683 C712 0.950 . S
H684 C714 0.950 . S
H685 C715 0.950 . S
C686 H668 0.951 . S
C686 C687 1.366 1_556 S
C686 C688 1.388 . S
C687 C686 1.366 1_554 S
C687 C691 1.385 . S
C688 H669 0.951 . S
C688 C686 1.388 . S
C688 C689 1.366 1_556 S
C689 C688 1.366 1_554 S
C689 C690 1.414 . S
C689 C692 1.499 . S
C690 H670 0.950 . S
C690 C689 1.414 . S
C690 C691 1.374 . S
C691 H671 0.950 . S
C691 C687 1.385 . S
C691 C690 1.374 . S
C692 C689 1.499 . S
C692 C693 1.373 . S
C692 C694 1.389 1_554 S
C693 H672 0.950 . S
C693 C692 1.373 . S
C693 C709 1.377 . S
C694 C692 1.389 1_556 S
C694 C695 1.524 . S
C694 C708 1.377 . S
C695 C694 1.524 . S
C695 C696 1.397 . S
C695 C700 1.363 . S
C696 H673 0.950 1_556 S
C696 C695 1.397 . S
C696 C697 1.334 . S
C697 H674 0.950 . S
C697 C696 1.334 . S
C697 C698 1.287 . S
C698 C697 1.287 . S
C698 C699 1.524 . S
C698 H717 0.913 . S
C699 H675 0.950 . S
C699 C698 1.524 . S
C699 C700 1.415 . S
C700 H676 0.950 . S
C700 C695 1.363 . S
C700 C699 1.415 . S
C701 H677 0.951 . S
C701 C702 1.366 . S
C701 C703 1.388 . S
C702 C701 1.366 . S
C702 C706 1.385 1_554 S
C703 H678 0.951 . S
C703 C701 1.388 . S
C703 C704 1.366 . S
C704 C703 1.366 . S
C704 C705 1.414 1_554 S
C704 C707 1.499 . S
C705 H679 0.950 . S
C705 C704 1.414 1_556 S
C705 C706 1.374 . S
C706 H680 0.950 . S
C706 C702 1.385 1_556 S
C706 C705 1.374 . S
C707 C704 1.499 . S
C707 C708 1.373 1_554 S
C707 C709 1.389 . S
C708 H681 0.950 . S
C708 C694 1.377 . S
C708 C707 1.373 1_556 S
C709 C693 1.377 . S
C709 C707 1.389 . S
C709 C710 1.524 . S
C710 C709 1.524 . S
C710 C711 1.397 . S
C710 C715 1.363 . S
C711 H682 0.950 . S
C711 C710 1.397 . S
C711 C712 1.334 . S
C712 H683 0.950 . S
C712 C711 1.334 . S
C712 C713 1.287 . S
C713 C712 1.287 . S
C713 C714 1.524 . S
C713 H716 0.999 . S
C714 H684 0.950 . S
C714 C713 1.524 . S
C714 C715 1.415 . S
C715 H685 0.950 . S
C715 C710 1.363 . S
C715 C714 1.415 . S
H716 C713 0.999 . S
H717 C698 0.913 . S
H718 C736 0.951 . S
H719 C738 0.951 . S
H720 C740 0.951 1_556 S
H721 C741 0.944 1_556 S
H722 C743 0.950 . S
H723 C746 0.950 . S
H724 C747 0.950 . S
H725 C749 0.950 . S
H726 C750 0.950 . S
H727 C751 0.951 . S
H728 C753 0.951 . S
H729 C755 0.950 . S
H730 C756 0.950 . S
H731 C758 0.950 . S
H732 C761 0.950 . S
H733 C762 0.950 . S
H734 C764 0.950 . S
H735 C765 0.950 . S
C736 H718 0.951 . S
C736 C737 1.366 . S
C736 C738 1.388 . S
C737 C736 1.366 . S
C737 C741 1.385 . S
C738 H719 0.951 . S
C738 C736 1.388 . S
C738 C739 1.366 . S
C739 C738 1.366 . S
C739 C740 1.414 . S
C739 C742 1.499 . S
C740 H720 0.951 1_554 S
C740 C739 1.414 . S
C740 C741 1.374 . S
C741 H721 0.944 1_554 S
C741 C737 1.385 . S
C741 C740 1.374 . S
C742 C739 1.499 . S
C742 C743 1.373 . S
C742 C744 1.389 1_554 S
C743 H722 0.950 . S
C743 C742 1.373 . S
C743 C759 1.377 . S
C744 C742 1.389 1_556 S
C744 C745 1.524 . S
C744 C758 1.377 . S
C745 C744 1.524 . S
C745 C746 1.397 . S
C745 C750 1.363 . S
C746 H723 0.950 . S
C746 C745 1.397 . S
C746 C747 1.334 . S
C747 H724 0.950 . S
C747 C746 1.334 . S
C747 C748 1.287 . S
C748 C747 1.287 . S
C748 C749 1.524 . S
C748 H767 0.913 . S
C749 H725 0.950 . S
C749 C748 1.524 . S
C749 C750 1.415 . S
C750 H726 0.950 . S
C750 C745 1.363 . S
C750 C749 1.415 . S
C751 H727 0.951 . S
C751 C752 1.366 . S
C751 C753 1.388 . S
C752 C751 1.366 . S
C752 C756 1.385 . S
C753 H728 0.951 . S
C753 C751 1.388 . S
C753 C754 1.366 . S
C754 C753 1.366 . S
C754 C755 1.414 . S
C754 C757 1.499 . S
C755 H729 0.950 . S
C755 C754 1.414 . S
C755 C756 1.374 . S
C756 H730 0.950 . S
C756 C752 1.385 . S
C756 C755 1.374 . S
C757 C754 1.499 . S
C757 C758 1.373 1_554 S
C757 C759 1.389 . S
C758 H731 0.950 . S
C758 C744 1.377 . S
C758 C757 1.373 1_556 S
C759 C743 1.377 . S
C759 C757 1.389 . S
C759 C760 1.524 . S
C760 C759 1.524 . S
C760 C761 1.397 . S
C760 C765 1.363 . S
C761 H732 0.950 . S
C761 C760 1.397 . S
C761 C762 1.334 . S
C762 H733 0.950 . S
C762 C761 1.334 . S
C762 C763 1.287 . S
C763 C762 1.287 . S
C763 C764 1.524 . S
C763 H766 0.999 . S
C764 H734 0.950 . S
C764 C763 1.524 . S
C764 C765 1.415 . S
C765 H735 0.950 . S
C765 C760 1.363 . S
C765 C764 1.415 . S
H766 C763 0.999 . S
H767 C748 0.913 . S
H768 C786 0.951 . S
H769 C788 0.951 . S
H770 C790 0.950 . S
H771 C791 0.950 . S
H772 C793 0.950 . S
H773 C796 0.950 . S
H774 C797 0.950 . S
H775 C799 0.950 . S
H776 C800 0.950 . S
H777 C801 0.951 . S
H778 C803 0.951 . S
H779 C805 0.950 . S
H780 C806 0.950 . S
H781 C808 0.950 . S
H782 C811 0.950 . S
H783 C812 0.950 . S
H784 C814 0.950 . S
H785 C815 0.950 . S
C786 H768 0.951 . S
C786 C787 1.366 . S
C786 C788 1.388 . S
C787 C786 1.366 . S
C787 C791 1.385 . S
C788 H769 0.951 . S
C788 C786 1.388 . S
C788 C789 1.366 . S
C789 C788 1.366 . S
C789 C790 1.414 . S
C789 C792 1.499 . S
C790 H770 0.950 . S
C790 C789 1.414 . S
C790 C791 1.374 . S
C791 H771 0.950 . S
C791 C787 1.385 . S
C791 C790 1.374 . S
C792 C789 1.499 . S
C792 C793 1.373 . S
C792 C794 1.389 . S
C793 H772 0.950 . S
C793 C792 1.373 . S
C793 C809 1.377 . S
C794 C792 1.389 . S
C794 C795 1.524 . S
C794 C808 1.377 . S
C795 C794 1.524 . S
C795 C796 1.397 . S
C795 C800 1.363 . S
C796 H773 0.950 . S
C796 C795 1.397 . S
C796 C797 1.334 . S
C797 H774 0.950 . S
C797 C796 1.334 . S
C797 C798 1.287 . S
C798 C797 1.287 . S
C798 C799 1.524 . S
C798 H817 0.913 . S
C799 H775 0.950 . S
C799 C798 1.524 . S
C799 C800 1.415 . S
C800 H776 0.950 . S
C800 C795 1.363 . S
C800 C799 1.415 . S
C801 H777 0.951 . S
C801 C802 1.366 . S
C801 C803 1.388 . S
C802 C801 1.366 . S
C802 C806 1.385 . S
C803 H778 0.951 . S
C803 C801 1.388 . S
C803 C804 1.366 . S
C804 C803 1.366 . S
C804 C805 1.414 . S
C804 C807 1.499 . S
C805 H779 0.950 . S
C805 C804 1.414 . S
C805 C806 1.374 . S
C806 H780 0.950 . S
C806 C802 1.385 . S
C806 C805 1.374 . S
C807 C804 1.499 . S
C807 C808 1.373 . S
C807 C809 1.389 . S
C808 H781 0.950 . S
C808 C794 1.377 . S
C808 C807 1.373 . S
C809 C793 1.377 . S
C809 C807 1.389 . S
C809 C810 1.524 . S
C810 C809 1.524 . S
C810 C811 1.397 . S
C810 C815 1.363 . S
C811 H782 0.950 . S
C811 C810 1.397 . S
C811 C812 1.334 . S
C812 H783 0.950 . S
C812 C811 1.334 . S
C812 C813 1.287 . S
C813 C812 1.287 . S
C813 C814 1.524 . S
C813 H816 0.999 . S
C814 H784 0.950 . S
C814 C813 1.524 . S
C814 C815 1.415 . S
C815 H785 0.950 . S
C815 C810 1.363 . S
C815 C814 1.415 . S
H816 C813 0.999 . S
H817 C798 0.913 . S
H818 C836 0.951 . S
H819 C838 0.951 . S
H820 C840 0.950 . S
H821 C841 0.950 . S
H822 C843 0.950 . S
H823 C846 0.950 . S
H824 C847 0.950 . S
H825 C849 0.950 . S
H826 C850 0.950 . S
H827 C851 0.951 . S
H828 C853 0.951 . S
H829 C855 0.950 . S
H830 C856 0.950 . S
H831 C858 0.950 . S
H832 C861 0.950 . S
H833 C862 0.950 . S
H834 C864 0.950 . S
H835 C865 0.950 . S
C836 H818 0.951 . S
C836 C837 1.366 . S
C836 C838 1.388 . S
C837 C836 1.366 . S
C837 C841 1.385 . S
C838 H819 0.951 . S
C838 C836 1.388 . S
C838 C839 1.366 . S
C839 C838 1.366 . S
C839 C840 1.414 . S
C839 C842 1.499 . S
C840 H820 0.950 . S
C840 C839 1.414 . S
C840 C841 1.374 . S
C841 H821 0.950 . S
C841 C837 1.385 . S
C841 C840 1.374 . S
C842 C839 1.499 . S
C842 C843 1.373 . S
C842 C844 1.389 . S
C843 H822 0.950 . S
C843 C842 1.373 . S
C843 C859 1.377 . S
C844 C842 1.389 . S
C844 C845 1.524 . S
C844 C858 1.377 . S
C845 C844 1.524 . S
C845 C846 1.397 . S
C845 C850 1.363 . S
C846 H823 0.950 . S
C846 C845 1.397 . S
C846 C847 1.334 . S
C847 H824 0.950 . S
C847 C846 1.334 . S
C847 C848 1.287 . S
C848 C847 1.287 . S
C848 C849 1.524 . S
C848 H867 0.913 . S
C849 H825 0.950 . S
C849 C848 1.524 . S
C849 C850 1.415 . S
C850 H826 0.950 . S
C850 C845 1.363 . S
C850 C849 1.415 . S
C851 H827 0.951 . S
C851 C852 1.366 . S
C851 C853 1.388 . S
C852 C851 1.366 . S
C852 C856 1.385 . S
C853 H828 0.951 . S
C853 C851 1.388 . S
C853 C854 1.366 . S
C854 C853 1.366 . S
C854 C855 1.414 . S
C854 C857 1.499 . S
C855 H829 0.950 . S
C855 C854 1.414 . S
C855 C856 1.374 . S
C856 H830 0.950 . S
C856 C852 1.385 . S
C856 C855 1.374 . S
C857 C854 1.499 . S
C857 C858 1.373 . S
C857 C859 1.389 . S
C858 H831 0.950 . S
C858 C844 1.377 . S
C858 C857 1.373 . S
C859 C843 1.377 . S
C859 C857 1.389 . S
C859 C860 1.524 . S
C860 C859 1.524 . S
C860 C861 1.397 . S
C860 C865 1.363 . S
C861 H832 0.950 . S
C861 C860 1.397 . S
C861 C862 1.334 . S
C862 H833 0.950 . S
C862 C861 1.334 . S
C862 C863 1.287 . S
C863 C862 1.287 . S
C863 C864 1.524 . S
C863 H866 0.999 . S
C864 H834 0.950 . S
C864 C863 1.524 . S
C864 C865 1.415 . S
C865 H835 0.950 . S
C865 C860 1.363 . S
C865 C864 1.415 . S
H866 C863 0.999 . S
H867 C848 0.913 . S
H868 C886 0.951 . S
H869 C888 0.951 . S
H870 C890 0.950 . S
H871 C891 0.950 . S
H872 C893 0.950 . S
H873 C896 0.950 . S
H874 C897 0.950 . S
H875 C899 0.950 . S
H876 C900 0.950 . S
H877 C901 0.951 . S
H878 C903 0.951 . S
H879 C905 0.950 . S
H880 C906 0.950 . S
H881 C908 0.950 . S
H882 C911 0.950 . S
H883 C912 0.950 . S
H884 C914 0.950 . S
H885 C915 0.950 . S
C886 H868 0.951 . S
C886 C887 1.366 . S
C886 C888 1.388 . S
C887 C886 1.366 . S
C887 C891 1.385 . S
C888 H869 0.951 . S
C888 C886 1.388 . S
C888 C889 1.366 . S
C889 C888 1.366 . S
C889 C890 1.414 . S
C889 C892 1.499 . S
C890 H870 0.950 . S
C890 C889 1.414 . S
C890 C891 1.374 . S
C891 H871 0.950 . S
C891 C887 1.385 . S
C891 C890 1.374 . S
C892 C889 1.499 . S
C892 C893 1.373 . S
C892 C894 1.389 . S
C893 H872 0.950 . S
C893 C892 1.373 . S
C893 C909 1.377 . S
C894 C892 1.389 . S
C894 C895 1.524 . S
C894 C908 1.377 . S
C895 C894 1.524 . S
C895 C896 1.397 . S
C895 C900 1.363 . S
C896 H873 0.950 . S
C896 C895 1.397 . S
C896 C897 1.334 . S
C897 H874 0.950 . S
C897 C896 1.334 . S
C897 C898 1.287 . S
C898 C897 1.287 . S
C898 C899 1.524 . S
C898 H917 0.913 . S
C899 H875 0.950 . S
C899 C898 1.524 . S
C899 C900 1.415 . S
C900 H876 0.950 . S
C900 C895 1.363 . S
C900 C899 1.415 . S
C901 H877 0.951 . S
C901 C902 1.366 . S
C901 C903 1.388 . S
C902 C901 1.366 . S
C902 C906 1.385 . S
C903 H878 0.951 . S
C903 C901 1.388 . S
C903 C904 1.366 . S
C904 C903 1.366 . S
C904 C905 1.414 . S
C904 C907 1.499 . S
C905 H879 0.950 . S
C905 C904 1.414 . S
C905 C906 1.374 . S
C906 H880 0.950 . S
C906 C902 1.385 . S
C906 C905 1.374 . S
C907 C904 1.499 . S
C907 C908 1.373 . S
C907 C909 1.389 . S
C908 H881 0.950 . S
C908 C894 1.377 . S
C908 C907 1.373 . S
C909 C893 1.377 . S
C909 C907 1.389 . S
C909 C910 1.524 . S
C910 C909 1.524 . S
C910 C911 1.397 . S
C910 C915 1.363 . S
C911 H882 0.950 . S
C911 C910 1.397 . S
C911 C912 1.334 . S
C912 H883 0.950 . S
C912 C911 1.334 . S
C912 C913 1.287 . S
C913 C912 1.287 . S
C913 C914 1.524 . S
C913 H916 0.999 . S
C914 H884 0.950 . S
C914 C913 1.524 . S
C914 C915 1.415 . S
C915 H885 0.950 . S
C915 C910 1.363 . S
C915 C914 1.415 . S
H916 C913 0.999 . S
H917 C898 0.913 . S
H918 C936 0.951 . S
H919 C938 0.951 . S
H920 C940 0.950 . S
H921 C941 0.950 . S
H922 C943 0.950 . S
H923 C946 0.950 . S
H924 C947 0.950 . S
H925 C949 0.950 . S
H926 C950 0.950 . S
H927 C951 0.951 . S
H928 C953 0.951 . S
H929 C955 0.950 . S
H930 C956 0.950 . S
H931 C958 0.950 . S
H932 C961 0.950 . S
H933 C962 0.950 . S
H934 C964 0.950 . S
H935 C965 0.950 . S
C936 H918 0.951 . S
C936 C937 1.366 . S
C936 C938 1.388 . S
C937 C936 1.366 . S
C937 C941 1.385 . S
C938 H919 0.951 . S
C938 C936 1.388 . S
C938 C939 1.366 . S
C939 C938 1.366 . S
C939 C940 1.414 . S
C939 C942 1.499 . S
C940 H920 0.950 . S
C940 C939 1.414 . S
C940 C941 1.374 . S
C941 H921 0.950 . S
C941 C937 1.385 . S
C941 C940 1.374 . S
C942 C939 1.499 . S
C942 C943 1.373 . S
C942 C944 1.389 . S
C943 H922 0.950 . S
C943 C942 1.373 . S
C943 C959 1.377 . S
C944 C942 1.389 . S
C944 C945 1.524 . S
C944 C958 1.377 . S
C945 C944 1.524 . S
C945 C946 1.397 . S
C945 C950 1.363 . S
C946 H923 0.950 . S
C946 C945 1.397 . S
C946 C947 1.334 . S
C947 H924 0.950 . S
C947 C946 1.334 . S
C947 C948 1.287 . S
C948 C947 1.287 . S
C948 C949 1.524 . S
C948 H967 0.913 . S
C949 H925 0.950 . S
C949 C948 1.524 . S
C949 C950 1.415 . S
C950 H926 0.950 . S
C950 C945 1.363 . S
C950 C949 1.415 . S
C951 H927 0.951 . S
C951 C952 1.366 . S
C951 C953 1.388 . S
C952 C951 1.366 . S
C952 C956 1.385 . S
C953 H928 0.951 . S
C953 C951 1.388 . S
C953 C954 1.366 . S
C954 C953 1.366 . S
C954 C955 1.414 . S
C954 C957 1.499 . S
C955 H929 0.950 . S
C955 C954 1.414 . S
C955 C956 1.374 . S
C956 H930 0.950 . S
C956 C952 1.385 . S
C956 C955 1.374 . S
C957 C954 1.499 . S
C957 C958 1.373 . S
C957 C959 1.389 . S
C958 H931 0.950 . S
C958 C944 1.377 . S
C958 C957 1.373 . S
C959 C943 1.377 . S
C959 C957 1.389 . S
C959 C960 1.524 . S
C960 C959 1.524 . S
C960 C961 1.397 . S
C960 C965 1.363 . S
C961 H932 0.950 . S
C961 C960 1.397 . S
C961 C962 1.334 . S
C962 H933 0.950 . S
C962 C961 1.334 . S
C962 C963 1.287 . S
C963 C962 1.287 . S
C963 C964 1.524 . S
C963 H966 0.999 . S
C964 H934 0.950 . S
C964 C963 1.524 . S
C964 C965 1.415 . S
C965 H935 0.950 . S
C965 C960 1.363 . S
C965 C964 1.415 . S
H966 C963 0.999 . S
H967 C948 0.913 . S
H968 C986 0.951 . S
H969 C988 0.951 . S
H970 C990 0.950 . S
H971 C991 0.950 . S
H972 C993 0.950 . S
H973 C996 0.950 . S
H974 C997 0.950 . S
H975 C999 0.950 . S
H976 C1000 0.950 . S
H977 C1001 0.951 . S
H978 C1003 0.951 . S
H979 C1005 0.950 . S
H980 C1006 0.950 . S
H981 C1008 0.950 . S
H982 C1011 0.950 . S
H983 C1012 0.950 . S
H984 C1014 0.950 . S
H985 C1015 0.950 . S
C986 H968 0.951 . S
C986 C987 1.366 . S
C986 C988 1.388 . S
C987 C986 1.366 . S
C987 C991 1.385 . S
C988 H969 0.951 . S
C988 C986 1.388 . S
C988 C989 1.366 . S
C989 C988 1.366 . S
C989 C990 1.414 . S
C989 C992 1.499 . S
C990 H970 0.950 . S
C990 C989 1.414 . S
C990 C991 1.374 . S
C991 H971 0.950 . S
C991 C987 1.385 . S
C991 C990 1.374 . S
C992 C989 1.499 . S
C992 C993 1.373 . S
C992 C994 1.389 . S
C993 H972 0.950 . S
C993 C992 1.373 . S
C993 C1009 1.377 . S
C994 C992 1.389 . S
C994 C995 1.524 . S
C994 C1008 1.377 . S
C995 C994 1.524 . S
C995 C996 1.397 . S
C995 C1000 1.363 . S
C996 H973 0.950 . S
C996 C995 1.397 . S
C996 C997 1.334 . S
C997 H974 0.950 . S
C997 C996 1.334 . S
C997 C998 1.287 . S
C998 C997 1.287 . S
C998 C999 1.524 . S
C998 H1017 0.913 . S
C999 H975 0.950 . S
C999 C998 1.524 . S
C999 C1000 1.415 . S
C1000 H976 0.950 . S
C1000 C995 1.363 . S
C1000 C999 1.415 . S
C1001 H977 0.951 . S
C1001 C1002 1.366 . S
C1001 C1003 1.388 . S
C1002 C1001 1.366 . S
C1002 C1006 1.385 . S
C1003 H978 0.951 . S
C1003 C1001 1.388 . S
C1003 C1004 1.366 . S
C1004 C1003 1.366 . S
C1004 C1005 1.414 . S
C1004 C1007 1.499 . S
C1005 H979 0.950 . S
C1005 C1004 1.414 . S
C1005 C1006 1.374 . S
C1006 H980 0.950 . S
C1006 C1002 1.385 . S
C1006 C1005 1.374 . S
C1007 C1004 1.499 . S
C1007 C1008 1.373 . S
C1007 C1009 1.389 . S
C1008 H981 0.950 . S
C1008 C994 1.377 . S
C1008 C1007 1.373 . S
C1009 C993 1.377 . S
C1009 C1007 1.389 . S
C1009 C1010 1.524 . S
C1010 C1009 1.524 . S
C1010 C1011 1.397 . S
C1010 C1015 1.363 . S
C1011 H982 0.950 . S
C1011 C1010 1.397 . S
C1011 C1012 1.334 . S
C1012 H983 0.950 . S
C1012 C1011 1.334 . S
C1012 C1013 1.287 . S
C1013 C1012 1.287 . S
C1013 C1014 1.524 . S
C1013 H1016 0.999 . S
C1014 H984 0.950 . S
C1014 C1013 1.524 . S
C1014 C1015 1.415 . S
C1015 H985 0.950 . S
C1015 C1010 1.363 . S
C1015 C1014 1.415 . S
H1016 C1013 0.999 . S
H1017 C998 0.913 . S
H1018 C1036 0.951 . S
H1019 C1038 0.951 . S
H1020 C1040 0.950 . S
H1021 C1041 0.950 . S
H1022 C1043 0.950 . S
H1023 C1046 0.950 . S
H1024 C1047 0.950 . S
H1025 C1049 0.950 . S
H1026 C1050 0.950 . S
H1027 C1051 0.951 . S
H1028 C1053 0.951 . S
H1029 C1055 0.950 . S
H1030 C1056 0.950 . S
H1031 C1058 0.950 . S
H1032 C1061 0.950 . S
H1033 C1062 0.950 . S
H1034 C1064 0.950 . S
H1035 C1065 0.950 . S
C1036 H1018 0.951 . S
C1036 C1037 1.366 . S
C1036 C1038 1.388 . S
C1037 C1036 1.366 . S
C1037 C1041 1.385 . S
C1038 H1019 0.951 . S
C1038 C1036 1.388 . S
C1038 C1039 1.366 . S
C1039 C1038 1.366 . S
C1039 C1040 1.414 . S
C1039 C1042 1.499 . S
C1040 H1020 0.950 . S
C1040 C1039 1.414 . S
C1040 C1041 1.374 . S
C1041 H1021 0.950 . S
C1041 C1037 1.385 . S
C1041 C1040 1.374 . S
C1042 C1039 1.499 . S
C1042 C1043 1.373 . S
C1042 C1044 1.389 . S
C1043 H1022 0.950 . S
C1043 C1042 1.373 . S
C1043 C1059 1.377 . S
C1044 C1042 1.389 . S
C1044 C1045 1.524 . S
C1044 C1058 1.377 . S
C1045 C1044 1.524 . S
C1045 C1046 1.397 . S
C1045 C1050 1.363 . S
C1046 H1023 0.950 . S
C1046 C1045 1.397 . S
C1046 C1047 1.334 . S
C1047 H1024 0.950 . S
C1047 C1046 1.334 . S
C1047 C1048 1.287 . S
C1048 C1047 1.287 . S
C1048 C1049 1.524 . S
C1048 H1067 0.913 . S
C1049 H1025 0.950 . S
C1049 C1048 1.524 . S
C1049 C1050 1.415 . S
C1050 H1026 0.950 . S
C1050 C1045 1.363 . S
C1050 C1049 1.415 . S
C1051 H1027 0.951 . S
C1051 C1052 1.366 . S
C1051 C1053 1.388 . S
C1052 C1051 1.366 . S
C1052 C1056 1.385 . S
C1053 H1028 0.951 . S
C1053 C1051 1.388 . S
C1053 C1054 1.366 . S
C1054 C1053 1.366 . S
C1054 C1055 1.414 . S
C1054 C1057 1.499 . S
C1055 H1029 0.950 . S
C1055 C1054 1.414 . S
C1055 C1056 1.374 . S
C1056 H1030 0.950 . S
C1056 C1052 1.385 . S
C1056 C1055 1.374 . S
C1057 C1054 1.499 . S
C1057 C1058 1.373 . S
C1057 C1059 1.389 . S
C1058 H1031 0.950 . S
C1058 C1044 1.377 . S
C1058 C1057 1.373 . S
C1059 C1043 1.377 . S
C1059 C1057 1.389 . S
C1059 C1060 1.524 . S
C1060 C1059 1.524 . S
C1060 C1061 1.397 . S
C1060 C1065 1.363 . S
C1061 H1032 0.950 . S
C1061 C1060 1.397 . S
C1061 C1062 1.334 . S
C1062 H1033 0.950 . S
C1062 C1061 1.334 . S
C1062 C1063 1.287 . S
C1063 C1062 1.287 . S
C1063 C1064 1.524 . S
C1063 H1066 0.999 . S
C1064 H1034 0.950 . S
C1064 C1063 1.524 . S
C1064 C1065 1.415 . S
C1065 H1035 0.950 . S
C1065 C1060 1.363 . S
C1065 C1064 1.415 . S
H1066 C1063 0.999 . S
H1067 C1048 0.913 . S
H1068 C1086 0.951 . S
H1069 C1088 0.951 . S
H1070 C1090 0.950 . S
H1071 C1091 0.950 . S
H1072 C1093 0.950 . S
H1073 C1096 0.950 . S
H1074 C1097 0.950 . S
H1075 C1099 0.950 . S
H1076 C1100 0.950 . S
H1077 C1101 0.951 . S
H1078 C1103 0.951 . S
H1079 C1105 0.950 . S
H1080 C1106 0.950 . S
H1081 C1108 0.950 . S
H1082 C1111 0.950 . S
H1083 C1112 0.950 . S
H1084 C1114 0.950 . S
H1085 C1115 0.950 . S
C1086 H1068 0.951 . S
C1086 C1087 1.366 . S
C1086 C1088 1.388 . S
C1087 C1086 1.366 . S
C1087 C1091 1.385 . S
C1088 H1069 0.951 . S
C1088 C1086 1.388 . S
C1088 C1089 1.366 . S
C1089 C1088 1.366 . S
C1089 C1090 1.414 . S
C1089 C1092 1.499 . S
C1090 H1070 0.950 . S
C1090 C1089 1.414 . S
C1090 C1091 1.374 . S
C1091 H1071 0.950 . S
C1091 C1087 1.385 . S
C1091 C1090 1.374 . S
C1092 C1089 1.499 . S
C1092 C1093 1.373 . S
C1092 C1094 1.389 . S
C1093 H1072 0.950 . S
C1093 C1092 1.373 . S
C1093 C1109 1.377 . S
C1094 C1092 1.389 . S
C1094 C1095 1.524 . S
C1094 C1108 1.377 . S
C1095 C1094 1.524 . S
C1095 C1096 1.397 . S
C1095 C1100 1.363 . S
C1096 H1073 0.950 . S
C1096 C1095 1.397 . S
C1096 C1097 1.334 . S
C1097 H1074 0.950 . S
C1097 C1096 1.334 . S
C1097 C1098 1.287 . S
C1098 C1097 1.287 . S
C1098 C1099 1.524 . S
C1098 H1117 0.913 . S
C1099 H1075 0.950 . S
C1099 C1098 1.524 . S
C1099 C1100 1.415 . S
C1100 H1076 0.950 . S
C1100 C1095 1.363 . S
C1100 C1099 1.415 . S
C1101 H1077 0.951 . S
C1101 C1102 1.366 . S
C1101 C1103 1.388 . S
C1102 C1101 1.366 . S
C1102 C1106 1.385 . S
C1103 H1078 0.951 . S
C1103 C1101 1.388 . S
C1103 C1104 1.366 . S
C1104 C1103 1.366 . S
C1104 C1105 1.414 . S
C1104 C1107 1.499 . S
C1105 H1079 0.950 . S
C1105 C1104 1.414 . S
C1105 C1106 1.374 . S
C1106 H1080 0.950 . S
C1106 C1102 1.385 . S
C1106 C1105 1.374 . S
C1107 C1104 1.499 . S
C1107 C1108 1.373 . S
C1107 C1109 1.389 . S
C1108 H1081 0.950 . S
C1108 C1094 1.377 . S
C1108 C1107 1.373 . S
C1109 C1093 1.377 . S
C1109 C1107 1.389 . S
C1109 C1110 1.524 . S
C1110 C1109 1.524 . S
C1110 C1111 1.397 . S
C1110 C1115 1.363 . S
C1111 H1082 0.950 . S
C1111 C1110 1.397 . S
C1111 C1112 1.334 . S
C1112 H1083 0.950 . S
C1112 C1111 1.334 . S
C1112 C1113 1.287 . S
C1113 C1112 1.287 . S
C1113 C1114 1.524 . S
C1113 H1116 0.999 . S
C1114 H1084 0.950 . S
C1114 C1113 1.524 . S
C1114 C1115 1.415 . S
C1115 H1085 0.950 . S
C1115 C1110 1.363 . S
C1115 C1114 1.415 . S
H1116 C1113 0.999 . S
H1117 C1098 0.913 . S
H1118 C1136 0.951 . S
H1119 C1138 0.951 . S
H1120 C1140 0.950 . S
H1121 C1141 0.950 . S
H1122 C1143 0.950 . S
H1123 C1146 0.950 . S
H1124 C1147 0.950 . S
H1125 C1149 0.950 . S
H1126 C1150 0.950 . S
H1127 C1151 0.951 . S
H1128 C1153 0.951 . S
H1129 C1155 0.950 . S
H1130 C1156 0.950 . S
H1131 C1158 0.950 . S
H1132 C1161 0.950 . S
H1133 C1162 0.950 . S
H1134 C1164 0.950 . S
H1135 C1165 0.950 . S
C1136 H1118 0.951 . S
C1136 C1137 1.366 . S
C1136 C1138 1.388 . S
C1137 C1136 1.366 . S
C1137 C1141 1.385 . S
C1138 H1119 0.951 . S
C1138 C1136 1.388 . S
C1138 C1139 1.366 . S
C1139 C1138 1.366 . S
C1139 C1140 1.414 . S
C1139 C1142 1.499 . S
C1140 H1120 0.950 . S
C1140 C1139 1.414 . S
C1140 C1141 1.374 . S
C1141 H1121 0.950 . S
C1141 C1137 1.385 . S
C1141 C1140 1.374 . S
C1142 C1139 1.499 . S
C1142 C1143 1.373 . S
C1142 C1144 1.389 . S
C1143 H1122 0.950 . S
C1143 C1142 1.373 . S
C1143 C1159 1.377 . S
C1144 C1142 1.389 . S
C1144 C1145 1.524 . S
C1144 C1158 1.377 . S
C1145 C1144 1.524 . S
C1145 C1146 1.397 . S
C1145 C1150 1.363 . S
C1146 H1123 0.950 . S
C1146 C1145 1.397 . S
C1146 C1147 1.334 . S
C1147 H1124 0.950 . S
C1147 C1146 1.334 . S
C1147 C1148 1.287 . S
C1148 C1147 1.287 . S
C1148 C1149 1.524 . S
C1148 H1167 0.913 . S
C1149 H1125 0.950 . S
C1149 C1148 1.524 . S
C1149 C1150 1.415 . S
C1150 H1126 0.950 . S
C1150 C1145 1.363 . S
C1150 C1149 1.415 . S
C1151 H1127 0.951 . S
C1151 C1152 1.366 . S
C1151 C1153 1.388 . S
C1152 C1151 1.366 . S
C1152 C1156 1.385 . S
C1153 H1128 0.951 . S
C1153 C1151 1.388 . S
C1153 C1154 1.366 . S
C1154 C1153 1.366 . S
C1154 C1155 1.414 . S
C1154 C1157 1.499 . S
C1155 H1129 0.950 . S
C1155 C1154 1.414 . S
C1155 C1156 1.374 . S
C1156 H1130 0.950 . S
C1156 C1152 1.385 . S
C1156 C1155 1.374 . S
C1157 C1154 1.499 . S
C1157 C1158 1.373 . S
C1157 C1159 1.389 . S
C1158 H1131 0.950 . S
C1158 C1144 1.377 . S
C1158 C1157 1.373 . S
C1159 C1143 1.377 . S
C1159 C1157 1.389 . S
C1159 C1160 1.524 . S
C1160 C1159 1.524 . S
C1160 C1161 1.397 . S
C1160 C1165 1.363 . S
C1161 H1132 0.950 . S
C1161 C1160 1.397 . S
C1161 C1162 1.334 . S
C1162 H1133 0.950 . S
C1162 C1161 1.334 . S
C1162 C1163 1.287 . S
C1163 C1162 1.287 . S
C1163 C1164 1.524 . S
C1163 H1166 0.999 . S
C1164 H1134 0.950 . S
C1164 C1163 1.524 . S
C1164 C1165 1.415 . S
C1165 H1135 0.950 . S
C1165 C1160 1.363 . S
C1165 C1164 1.415 . S
H1166 C1163 0.999 . S
H1167 C1148 0.913 . S
H1168 C1186 0.951 . S
H1169 C1188 0.951 . S
H1170 C1190 0.950 . S
H1171 C1191 0.950 . S
H1172 C1193 0.950 . S
H1173 C1196 0.950 . S
H1174 C1197 0.950 . S
H1175 C1199 0.950 . S
H1176 C1200 0.950 . S
H1177 C1201 0.951 . S
H1178 C1203 0.951 . S
H1179 C1205 0.950 . S
H1180 C1206 0.950 . S
H1181 C1208 0.950 . S
H1182 C1211 0.950 . S
H1183 C1212 0.950 . S
H1184 C1214 0.950 . S
H1185 C1215 0.950 . S
C1186 H1168 0.951 . S
C1186 C1187 1.366 . S
C1186 C1188 1.388 . S
C1187 C1186 1.366 . S
C1187 C1191 1.385 . S
C1188 H1169 0.951 . S
C1188 C1186 1.388 . S
C1188 C1189 1.366 . S
C1189 C1188 1.366 . S
C1189 C1190 1.414 . S
C1189 C1192 1.499 . S
C1190 H1170 0.950 . S
C1190 C1189 1.414 . S
C1190 C1191 1.374 . S
C1191 H1171 0.950 . S
C1191 C1187 1.385 . S
C1191 C1190 1.374 . S
C1192 C1189 1.499 . S
C1192 C1193 1.373 . S
C1192 C1194 1.389 . S
C1193 H1172 0.950 . S
C1193 C1192 1.373 . S
C1193 C1209 1.377 . S
C1194 C1192 1.389 . S
C1194 C1195 1.524 . S
C1194 C1208 1.377 . S
C1195 C1194 1.524 . S
C1195 C1196 1.397 . S
C1195 C1200 1.363 . S
C1196 H1173 0.950 . S
C1196 C1195 1.397 . S
C1196 C1197 1.334 . S
C1197 H1174 0.950 . S
C1197 C1196 1.334 . S
C1197 C1198 1.287 . S
C1198 C1197 1.287 . S
C1198 C1199 1.524 . S
C1198 H1217 0.913 . S
C1199 H1175 0.950 . S
C1199 C1198 1.524 . S
C1199 C1200 1.415 . S
C1200 H1176 0.950 . S
C1200 C1195 1.363 . S
C1200 C1199 1.415 . S
C1201 H1177 0.951 . S
C1201 C1202 1.366 . S
C1201 C1203 1.388 . S
C1202 C1201 1.366 . S
C1202 C1206 1.385 . S
C1203 H1178 0.951 . S
C1203 C1201 1.388 . S
C1203 C1204 1.366 . S
C1204 C1203 1.366 . S
C1204 C1205 1.414 . S
C1204 C1207 1.499 . S
C1205 H1179 0.950 . S
C1205 C1204 1.414 . S
C1205 C1206 1.374 . S
C1206 H1180 0.950 . S
C1206 C1202 1.385 . S
C1206 C1205 1.374 . S
C1207 C1204 1.499 . S
C1207 C1208 1.373 . S
C1207 C1209 1.389 . S
C1208 H1181 0.950 . S
C1208 C1194 1.377 . S
C1208 C1207 1.373 . S
C1209 C1193 1.377 . S
C1209 C1207 1.389 . S
C1209 C1210 1.524 . S
C1210 C1209 1.524 . S
C1210 C1211 1.397 . S
C1210 C1215 1.363 . S
C1211 H1182 0.950 . S
C1211 C1210 1.397 . S
C1211 C1212 1.334 . S
C1212 H1183 0.950 . S
C1212 C1211 1.334 . S
C1212 C1213 1.287 . S
C1213 C1212 1.287 . S
C1213 C1214 1.524 . S
C1213 H1216 0.999 . S
C1214 H1184 0.950 . S
C1214 C1213 1.524 . S
C1214 C1215 1.415 . S
C1215 H1185 0.950 . S
C1215 C1210 1.363 . S
C1215 C1214 1.415 . S
H1216 C1213 0.999 . S
H1217 C1198 0.913 . S
H1218 C1236 0.951 . S
H1219 C1238 0.951 . S
H1220 C1240 0.950 . S
H1221 C1241 0.950 . S
H1222 C1243 0.950 . S
H1223 C1246 0.950 . S
H1224 C1247 0.950 . S
H1225 C1249 0.950 . S
H1226 C1250 0.950 . S
H1227 C1251 0.951 . S
H1228 C1253 0.951 . S
H1229 C1255 0.950 . S
H1230 C1256 0.950 . S
H1231 C1258 0.950 . S
H1232 C1261 0.950 . S
H1233 C1262 0.950 . S
H1234 C1264 0.950 . S
H1235 C1265 0.950 . S
C1236 H1218 0.951 . S
C1236 C1237 1.366 . S
C1236 C1238 1.388 . S
C1237 C1236 1.366 . S
C1237 C1241 1.385 . S
C1238 H1219 0.951 . S
C1238 C1236 1.388 . S
C1238 C1239 1.366 . S
C1239 C1238 1.366 . S
C1239 C1240 1.414 . S
C1239 C1242 1.499 . S
C1240 H1220 0.950 . S
C1240 C1239 1.414 . S
C1240 C1241 1.374 . S
C1241 H1221 0.950 . S
C1241 C1237 1.385 . S
C1241 C1240 1.374 . S
C1242 C1239 1.499 . S
C1242 C1243 1.373 . S
C1242 C1244 1.389 . S
C1243 H1222 0.950 . S
C1243 C1242 1.373 . S
C1243 C1259 1.377 . S
C1244 C1242 1.389 . S
C1244 C1245 1.524 . S
C1244 C1258 1.377 . S
C1245 C1244 1.524 . S
C1245 C1246 1.397 . S
C1245 C1250 1.363 . S
C1246 H1223 0.950 . S
C1246 C1245 1.397 . S
C1246 C1247 1.334 . S
C1247 H1224 0.950 . S
C1247 C1246 1.334 . S
C1247 C1248 1.287 . S
C1248 C1247 1.287 . S
C1248 C1249 1.524 . S
C1248 H1267 0.913 . S
C1249 H1225 0.950 . S
C1249 C1248 1.524 . S
C1249 C1250 1.415 . S
C1250 H1226 0.950 . S
C1250 C1245 1.363 . S
C1250 C1249 1.415 . S
C1251 H1227 0.951 . S
C1251 C1252 1.366 . S
C1251 C1253 1.388 . S
C1252 C1251 1.366 . S
C1252 C1256 1.385 . S
C1253 H1228 0.951 . S
C1253 C1251 1.388 . S
C1253 C1254 1.366 . S
C1254 C1253 1.366 . S
C1254 C1255 1.414 . S
C1254 C1257 1.499 . S
C1255 H1229 0.950 . S
C1255 C1254 1.414 . S
C1255 C1256 1.374 . S
C1256 H1230 0.950 . S
C1256 C1252 1.385 . S
C1256 C1255 1.374 . S
C1257 C1254 1.499 . S
C1257 C1258 1.373 . S
C1257 C1259 1.389 . S
C1258 H1231 0.950 . S
C1258 C1244 1.377 . S
C1258 C1257 1.373 . S
C1259 C1243 1.377 . S
C1259 C1257 1.389 . S
C1259 C1260 1.524 . S
C1260 C1259 1.524 . S
C1260 C1261 1.397 . S
C1260 C1265 1.363 . S
C1261 H1232 0.950 . S
C1261 C1260 1.397 . S
C1261 C1262 1.334 . S
C1262 H1233 0.950 . S
C1262 C1261 1.334 . S
C1262 C1263 1.287 . S
C1263 C1262 1.287 . S
C1263 C1264 1.524 . S
C1263 H1266 0.999 . S
C1264 H1234 0.950 . S
C1264 C1263 1.524 . S
C1264 C1265 1.415 . S
C1265 H1235 0.950 . S
C1265 C1260 1.363 . S
C1265 C1264 1.415 . S
H1266 C1263 0.999 . S
H1267 C1248 0.913 . S
H1268 C1286 0.951 . S
H1269 C1288 0.951 . S
H1270 C1290 0.950 . S
H1271 C1291 0.950 . S
H1272 C1293 0.950 . S
H1273 C1296 0.950 . S
H1274 C1297 0.950 . S
H1275 C1299 0.950 . S
H1276 C1300 0.950 . S
H1277 C1301 0.951 . S
H1278 C1303 0.951 . S
H1279 C1305 0.950 . S
H1280 C1306 0.950 . S
H1281 C1308 0.950 . S
H1282 C1311 0.950 . S
H1283 C1312 0.950 . S
H1284 C1314 0.950 . S
H1285 C1315 0.950 . S
C1286 H1268 0.951 . S
C1286 C1287 1.366 . S
C1286 C1288 1.388 . S
C1287 C1286 1.366 . S
C1287 C1291 1.385 . S
C1288 H1269 0.951 . S
C1288 C1286 1.388 . S
C1288 C1289 1.366 . S
C1289 C1288 1.366 . S
C1289 C1290 1.414 . S
C1289 C1292 1.499 . S
C1290 H1270 0.950 . S
C1290 C1289 1.414 . S
C1290 C1291 1.374 . S
C1291 H1271 0.950 . S
C1291 C1287 1.385 . S
C1291 C1290 1.374 . S
C1292 C1289 1.499 . S
C1292 C1293 1.373 . S
C1292 C1294 1.389 . S
C1293 H1272 0.950 . S
C1293 C1292 1.373 . S
C1293 C1309 1.377 . S
C1294 C1292 1.389 . S
C1294 C1295 1.524 . S
C1294 C1308 1.377 . S
C1295 C1294 1.524 . S
C1295 C1296 1.397 . S
C1295 C1300 1.363 . S
C1296 H1273 0.950 . S
C1296 C1295 1.397 . S
C1296 C1297 1.334 . S
C1297 H1274 0.950 . S
C1297 C1296 1.334 . S
C1297 C1298 1.287 . S
C1298 C1297 1.287 . S
C1298 C1299 1.524 . S
C1298 H1317 0.913 . S
C1299 H1275 0.950 . S
C1299 C1298 1.524 . S
C1299 C1300 1.415 . S
C1300 H1276 0.950 . S
C1300 C1295 1.363 . S
C1300 C1299 1.415 . S
C1301 H1277 0.951 . S
C1301 C1302 1.366 . S
C1301 C1303 1.388 . S
C1302 C1301 1.366 . S
C1302 C1306 1.385 . S
C1303 H1278 0.951 . S
C1303 C1301 1.388 . S
C1303 C1304 1.366 . S
C1304 C1303 1.366 . S
C1304 C1305 1.414 . S
C1304 C1307 1.499 . S
C1305 H1279 0.950 . S
C1305 C1304 1.414 . S
C1305 C1306 1.374 . S
C1306 H1280 0.950 . S
C1306 C1302 1.385 . S
C1306 C1305 1.374 . S
C1307 C1304 1.499 . S
C1307 C1308 1.373 . S
C1307 C1309 1.389 . S
C1308 H1281 0.950 . S
C1308 C1294 1.377 . S
C1308 C1307 1.373 . S
C1309 C1293 1.377 . S
C1309 C1307 1.389 . S
C1309 C1310 1.524 . S
C1310 C1309 1.524 . S
C1310 C1311 1.397 . S
C1310 C1315 1.363 . S
C1311 H1282 0.950 . S
C1311 C1310 1.397 . S
C1311 C1312 1.334 . S
C1312 H1283 0.950 . S
C1312 C1311 1.334 . S
C1312 C1313 1.287 . S
C1313 C1312 1.287 . S
C1313 C1314 1.524 . S
C1313 H1316 0.999 . S
C1314 H1284 0.950 . S
C1314 C1313 1.524 . S
C1314 C1315 1.415 . S
C1315 H1285 0.950 . S
C1315 C1310 1.363 . S
C1315 C1314 1.415 . S
H1316 C1313 0.999 . S
H1317 C1298 0.913 . S
H1318 C1336 0.951 . S
H1319 C1338 0.951 . S
H1320 C1340 0.950 . S
H1321 C1341 0.950 . S
H1322 C1343 0.950 . S
H1323 C1346 0.950 . S
H1324 C1347 0.950 . S
H1325 C1349 0.950 . S
H1326 C1350 0.950 . S
H1327 C1351 0.951 . S
H1328 C1353 0.951 . S
H1329 C1355 0.950 . S
H1330 C1356 0.950 . S
H1331 C1358 0.950 . S
H1332 C1361 0.950 . S
H1333 C1362 0.950 . S
H1334 C1364 0.950 . S
H1335 C1365 0.950 . S
C1336 H1318 0.951 . S
C1336 C1337 1.366 . S
C1336 C1338 1.388 . S
C1337 C1336 1.366 . S
C1337 C1341 1.385 . S
C1338 H1319 0.951 . S
C1338 C1336 1.388 . S
C1338 C1339 1.366 . S
C1339 C1338 1.366 . S
C1339 C1340 1.414 . S
C1339 C1342 1.499 . S
C1340 H1320 0.950 . S
C1340 C1339 1.414 . S
C1340 C1341 1.374 . S
C1341 H1321 0.950 . S
C1341 C1337 1.385 . S
C1341 C1340 1.374 . S
C1342 C1339 1.499 . S
C1342 C1343 1.373 . S
C1342 C1344 1.389 . S
C1343 H1322 0.950 . S
C1343 C1342 1.373 . S
C1343 C1359 1.377 . S
C1344 C1342 1.389 . S
C1344 C1345 1.524 . S
C1344 C1358 1.377 . S
C1345 C1344 1.524 . S
C1345 C1346 1.397 . S
C1345 C1350 1.363 . S
C1346 H1323 0.950 . S
C1346 C1345 1.397 . S
C1346 C1347 1.334 . S
C1347 H1324 0.950 . S
C1347 C1346 1.334 . S
C1347 C1348 1.287 . S
C1348 C1347 1.287 . S
C1348 C1349 1.524 . S
C1348 H1367 0.913 . S
C1349 H1325 0.950 . S
C1349 C1348 1.524 . S
C1349 C1350 1.415 . S
C1350 H1326 0.950 . S
C1350 C1345 1.363 . S
C1350 C1349 1.415 . S
C1351 H1327 0.951 . S
C1351 C1352 1.366 . S
C1351 C1353 1.388 . S
C1352 C1351 1.366 . S
C1352 C1356 1.385 . S
C1353 H1328 0.951 . S
C1353 C1351 1.388 . S
C1353 C1354 1.366 . S
C1354 C1353 1.366 . S
C1354 C1355 1.414 . S
C1354 C1357 1.499 . S
C1355 H1329 0.950 . S
C1355 C1354 1.414 . S
C1355 C1356 1.374 . S
C1356 H1330 0.950 . S
C1356 C1352 1.385 . S
C1356 C1355 1.374 . S
C1357 C1354 1.499 . S
C1357 C1358 1.373 . S
C1357 C1359 1.389 . S
C1358 H1331 0.950 . S
C1358 C1344 1.377 . S
C1358 C1357 1.373 . S
C1359 C1343 1.377 . S
C1359 C1357 1.389 . S
C1359 C1360 1.524 . S
C1360 C1359 1.524 . S
C1360 C1361 1.397 . S
C1360 C1365 1.363 . S
C1361 H1332 0.950 . S
C1361 C1360 1.397 . S
C1361 C1362 1.334 . S
C1362 H1333 0.950 . S
C1362 C1361 1.334 . S
C1362 C1363 1.287 . S
C1363 C1362 1.287 . S
C1363 C1364 1.524 . S
C1363 H1366 0.999 . S
C1364 H1334 0.950 . S
C1364 C1363 1.524 . S
C1364 C1365 1.415 . S
C1365 H1335 0.950 . S
C1365 C1360 1.363 . S
C1365 C1364 1.415 . S
H1366 C1363 0.999 . S
H1367 C1348 0.913 . S
C187 C13 1.256 . S
C202 C81 1.313 . S
C237 C25 1.217 . S
C252 C64 1.201 . S
C287 C83 1.258 . S
C302 C41 1.257 . S
C337 C53 1.265 . S
C352 C63 1.253 . S
C387 C105 1.346 . S
C402 C39 1.357 . S
C437 C92 1.384 . S
C452 C55 1.350 . S
C487 C11 1.327 . S
C502 C106 1.310 . S
C537 C91 1.391 . S
C552 C27 1.339 . S
C587 C133 1.254 . S
C602 C119 1.253 . S
C637 C120 1.128 . S
C652 C162 1.136 . S
C687 C134 1.195 . S
C702 C148 1.195 . S
C737 C147 1.259 . S
C752 C161 1.258 . S
C787 C167 1.283 . S
C802 C95 1.335 . S
C837 C123 1.044 . S
C852 C109 1.044 . S
C887 C97 1.334 . S
C902 C139 1.334 . S
C937 C111 1.110 . S
C952 C151 1.146 . S
C987 C69 1.191 . S
C1002 C137 1.238 . S
C1037 C78 1.465 . S
C1052 C153 1.426 . S
C1087 C165 1.153 . S
C1102 C67 1.153 . S
C1137 C125 1.363 . S
C1152 C77 1.411 . S
C1187 C21 1.384 . S
C1202 C35 1.386 . S
C1237 C8 1.266 . S
C1252 C22 1.265 . S
C1287 C36 1.342 . S
C1302 C50 1.342 . S
C1337 C7 1.390 . S
C1352 C49 1.391 . S
