# Generated by pormake.
# Topology noo, (5)-cn, num edge types: 1
# Building blocks:
#     Node 0, Type 0, BuildingBlock: BEQFEK_clean_sbu_0, # of connection points: 5
#     Node 1, Type 0, BuildingBlock: BEQFEK_clean_sbu_0, # of connection points: 5
#     Node 2, Type 0, BuildingBlock: BEQFEK_clean_sbu_0, # of connection points: 5
#     Node 3, Type 0, BuildingBlock: BEQFEK_clean_sbu_0, # of connection points: 5
#     Node 4, Type 0, BuildingBlock: BEQFEK_clean_sbu_0, # of connection points: 5
#     Node 5, Type 0, BuildingBlock: BEQFEK_clean_sbu_0, # of connection points: 5
#     Node 6, Type 0, BuildingBlock: BEQFEK_clean_sbu_0, # of connection points: 5
#     Node 7, Type 0, BuildingBlock: BEQFEK_clean_sbu_0, # of connection points: 5
#     Edge 8, Type (0, 0), None
#     Edge 9, Type (0, 0), None
#     Edge 10, Type (0, 0), None
#     Edge 11, Type (0, 0), None
#     Edge 12, Type (0, 0), None
#     Edge 13, Type (0, 0), None
#     Edge 14, Type (0, 0), None
#     Edge 15, Type (0, 0), None
#     Edge 16, Type (0, 0), None
#     Edge 17, Type (0, 0), None
#     Edge 18, Type (0, 0), None
#     Edge 19, Type (0, 0), None
#     Edge 20, Type (0, 0), None
#     Edge 21, Type (0, 0), None
#     Edge 22, Type (0, 0), None
#     Edge 23, Type (0, 0), None
#     Edge 24, Type (0, 0), None
#     Edge 25, Type (0, 0), None
#     Edge 26, Type (0, 0), None
#     Edge 27, Type (0, 0), None
# Relax obj value: 0.227
# Max RMSD: 0.190
# Mean RMSD: 0.190
data_MOF--net-noo--node1-BEQFEK_clean_sbu_0--edge1-none
_symmetry_space_group_name_H-M    P1
_symmetry_Int_Tables_number       1
_symmetry_cell_setting            triclinic
loop_
_symmetry_equiv_pos_as_xyz
'x, y, z'
_cell_length_a     21.281427
_cell_length_b     21.281415
_cell_length_c     13.348211
_cell_angle_alpha  90.000626
_cell_angle_beta   89.99931
_cell_angle_gamma 89.99997
loop_
_atom_site_label
_atom_site_type_symbol
_atom_site_fract_x
_atom_site_fract_y
_atom_site_fract_z
_atom_type_partial_charge
Co0 Co 0.35564 0.33857 0.08096 0.0
Co1 Co 0.418 0.20724 0.11231 0.0
C2 C 0.33545 0.22597 0.93877 0.0
O3 O 0.32257 0.28251 0.96606 0.0
O4 O 0.37496 0.19197 0.98598 0.0
C5 C 0.34786 0.47446 0.06417 0.0
O6 O 0.40764 0.46981 0.04147 0.0
C7 C 0.46913 0.07917 0.1389 0.0
C8 C 0.51391 0.0913 0.28751 0.0
C9 C 0.50519 0.04898 0.21052 0.0
N10 N 0.45745 0.13746 0.17194 0.0
N11 N 0.48483 0.14456 0.26017 0.0
C12 C 0.44535 0.05341 0.04198 0.0
H13 H 0.47593 0.0708 0.98078 0.0
H14 H 0.39696 0.0706 1.02775 0.0
H15 H 0.44588 1.00126 0.04198 0.0
C16 C 0.30383 0.30448 0.28815 0.0
N17 N 0.33839 0.29518 0.20399 0.0
N18 N 0.35772 0.23663 0.20371 0.0
C19 C 0.33114 0.20547 0.27978 0.0
C20 C 0.29834 0.24738 0.33936 0.0
C21 C 0.27687 0.36635 0.31888 0.0
H22 H 0.30714 0.40528 0.2918 0.0
H23 H 0.22974 0.37169 0.28434 0.0
H24 H 0.27148 0.36883 0.40152 0.0
O25 O 0.44791 0.35423 0.06581 0.0
O26 O 0.49131 0.26195 0.09342 0.0
H27 H 0.37195 0.11733 0.32578 0.0
H28 H 0.2878 0.11934 0.33065 0.0
C29 C 0.32956 0.13511 0.28758 0.0
H30 H 0.32845 0.11409 0.21148 0.0
H31 H 0.48386 0.18616 0.30153 0.0
O32 O 0.31571 0.42483 0.08142 0.0
C33 C 0.49634 0.31978 0.07411 0.0
Co34 Co 0.69509 0.35564 0.08094 0.0
Co35 Co 0.82642 0.41801 0.11228 0.0
C36 C 0.80769 0.33545 0.93875 0.0
O37 O 0.75115 0.32258 0.96603 0.0
O38 O 0.84169 0.37496 0.98596 0.0
C39 C 0.5592 0.34787 0.06417 0.0
O40 O 0.56384 0.40765 0.0415 0.0
C41 C 0.95449 0.46915 0.13888 0.0
C42 C 0.94235 0.51392 0.28751 0.0
C43 C 0.98467 0.5052 0.21051 0.0
N44 N 0.89619 0.45746 0.17192 0.0
N45 N 0.88909 0.48484 0.26016 0.0
C46 C 0.98025 0.44539 0.04195 0.0
H47 H 0.96285 0.47597 0.98076 0.0
H48 H 0.96306 0.39699 1.02771 0.0
H49 H 0.03239 0.44592 0.04195 0.0
C50 C 0.72919 0.30384 0.28813 0.0
N51 N 0.73848 0.3384 0.20397 0.0
N52 N 0.79703 0.35773 0.20369 0.0
C53 C 0.82819 0.33115 0.27975 0.0
C54 C 0.78628 0.29835 0.33933 0.0
C55 C 0.66731 0.27687 0.31886 0.0
H56 H 0.62839 0.30714 0.29178 0.0
H57 H 0.66197 0.22974 0.28432 0.0
H58 H 0.66484 0.27148 0.4015 0.0
O59 O 0.67943 0.44792 0.06578 0.0
O60 O 0.77171 0.49132 0.09338 0.0
H61 H 0.91633 0.37196 0.32574 0.0
H62 H 0.91432 0.2878 0.33061 0.0
C63 C 0.89855 0.32957 0.28754 0.0
H64 H 0.91957 0.32846 0.21144 0.0
H65 H 0.84749 0.48385 0.30152 0.0
O66 O 0.60883 0.31572 0.08141 0.0
C67 C 0.71388 0.49635 0.07408 0.0
Co68 Co 0.67802 0.69509 0.0809 0.0
Co69 Co 0.61566 0.82642 0.11225 0.0
C70 C 0.69821 0.80769 0.93871 0.0
O71 O 0.71108 0.75115 0.966 0.0
O72 O 0.6587 0.84169 0.98592 0.0
C73 C 0.68579 0.5592 0.06414 0.0
O74 O 0.626 0.56385 0.04146 0.0
C75 C 0.56459 0.95452 0.13889 0.0
C76 C 0.51978 0.94238 0.28748 0.0
C77 C 0.52855 0.98471 0.21052 0.0
N78 N 0.57622 0.89621 0.17189 0.0
N79 N 0.54882 0.8891 0.26011 0.0
C80 C 0.58839 0.98028 0.04198 0.0
H81 H 0.55783 0.96289 0.98076 0.0
H82 H 0.63679 0.96309 1.02779 0.0
H83 H 0.58787 0.03242 0.04199 0.0
C84 C 0.72983 0.72919 0.28809 0.0
N85 N 0.69526 0.73848 0.20393 0.0
N86 N 0.67594 0.79703 0.20365 0.0
C87 C 0.70252 0.82819 0.27971 0.0
C88 C 0.73532 0.78628 0.33929 0.0
C89 C 0.75678 0.66731 0.31882 0.0
H90 H 0.7265 0.62838 0.29175 0.0
H91 H 0.80391 0.66196 0.28426 0.0
H92 H 0.76219 0.66483 0.40145 0.0
O93 O 0.58574 0.67944 0.06576 0.0
O94 O 0.54234 0.77172 0.09338 0.0
H95 H 0.66172 0.91634 0.3257 0.0
H96 H 0.74587 0.91432 0.3306 0.0
C97 C 0.70411 0.89855 0.28751 0.0
H98 H 0.70523 0.91957 0.21142 0.0
H99 H 0.54977 0.8475 0.30145 0.0
O100 O 0.71794 0.60883 0.08137 0.0
C101 C 0.53731 0.71389 0.07407 0.0
Co102 Co 0.33857 0.67802 0.08093 0.0
Co103 Co 0.20724 0.61567 0.11228 0.0
C104 C 0.22597 0.69821 0.93874 0.0
O105 O 0.28251 0.71108 0.96603 0.0
O106 O 0.19197 0.6587 0.98596 0.0
C107 C 0.47445 0.68579 0.06413 0.0
O108 O 0.46981 0.62601 0.04144 0.0
C109 C 0.07914 0.56461 0.13891 0.0
C110 C 0.09127 0.51978 0.28748 0.0
C111 C 0.04894 0.52857 0.21053 0.0
N112 N 0.13745 0.57624 0.17192 0.0
N113 N 0.14455 0.54882 0.26013 0.0
C114 C 0.05337 0.58843 0.04202 0.0
H115 H 0.07077 0.55788 0.98078 0.0
H116 H 0.07057 0.63683 1.02784 0.0
H117 H 1.00123 0.58791 0.04202 0.0
C118 C 0.30448 0.72984 0.28812 0.0
N119 N 0.29518 0.69527 0.20396 0.0
N120 N 0.23663 0.67595 0.20368 0.0
C121 C 0.20547 0.70253 0.27975 0.0
C122 C 0.24739 0.73533 0.33933 0.0
C123 C 0.36636 0.75679 0.31884 0.0
H124 H 0.40528 0.7265 0.29177 0.0
H125 H 0.37171 0.80391 0.28429 0.0
H126 H 0.36883 0.76219 0.40148 0.0
O127 O 0.35422 0.58574 0.06579 0.0
O128 O 0.26194 0.54235 0.09341 0.0
H129 H 0.11733 0.66172 0.32574 0.0
H130 H 0.11934 0.74587 0.33065 0.0
C131 C 0.13511 0.70412 0.28756 0.0
H132 H 0.11409 0.70524 0.21147 0.0
H133 H 0.18616 0.54976 0.30147 0.0
O134 O 0.42483 0.71794 0.08139 0.0
C135 C 0.31977 0.53732 0.0741 0.0
Co136 Co 0.85564 0.19508 0.70572 0.0
Co137 Co 0.91802 0.3264 0.6742 0.0
C138 C 0.83535 0.30776 0.84768 0.0
O139 O 0.82251 0.2512 0.82049 0.0
O140 O 0.87488 0.34174 0.80044 0.0
C141 C 0.84785 0.0592 0.72266 0.0
O142 O 0.90762 0.06385 0.74545 0.0
C143 C 0.96915 0.45447 0.64759 0.0
C144 C 1.01401 0.44233 0.49904 0.0
C145 C 1.00523 0.48466 0.576 0.0
N146 N 0.9575 0.39617 0.61456 0.0
N147 N 0.98494 0.38906 0.52638 0.0
C148 C 0.94533 0.48023 0.74449 0.0
H149 H 0.97574 0.46264 0.80576 0.0
H150 H 0.89685 0.4632 0.75849 0.0
H151 H 0.94605 0.53237 0.74464 0.0
C152 C 0.80406 0.22895 0.4983 0.0
N153 N 0.83848 0.23837 0.58258 0.0
N154 N 0.85784 0.29692 0.58271 0.0
C155 C 0.83145 0.32797 0.50635 0.0
C156 C 0.79884 0.28593 0.44675 0.0
C157 C 0.77711 0.16704 0.46773 0.0
H158 H 0.80746 0.12816 0.49475 0.0
H159 H 0.73004 0.16166 0.50248 0.0
H160 H 0.77159 0.16451 0.38511 0.0
O161 O 0.94791 0.17944 0.72102 0.0
O162 O 0.99132 0.2717 0.69329 0.0
H163 H 0.87225 0.41606 0.46013 0.0
H164 H 0.78811 0.414 0.45509 0.0
C165 C 0.82984 0.39831 0.4983 0.0
H166 H 0.82865 0.41944 0.57432 0.0
H167 H 0.984 0.34745 0.48503 0.0
O168 O 0.81572 0.10882 0.70531 0.0
C169 C 0.99634 0.21389 0.7127 0.0
Co170 Co 0.83858 0.85563 0.70569 0.0
Co171 Co 0.70726 0.91801 0.67417 0.0
C172 C 0.7259 0.83535 0.84764 0.0
O173 O 0.78246 0.82251 0.82046 0.0
O174 O 0.69192 0.87487 0.8004 0.0
C175 C 0.97446 0.84785 0.72266 0.0
O176 O 0.96981 0.90761 0.74547 0.0
C177 C 0.57918 0.96912 0.64757 0.0
C178 C 0.59132 1.01401 0.49904 0.0
C179 C 0.54899 1.00521 0.57599 0.0
N180 N 0.63749 0.95749 0.61454 0.0
N181 N 0.64459 0.98495 0.52636 0.0
C182 C 0.55343 0.94528 0.74446 0.0
H183 H 0.57101 0.97569 0.80574 0.0
H184 H 0.57045 0.8968 0.75842 0.0
H185 H 0.50128 0.94601 0.74461 0.0
C186 C 0.80471 0.80405 0.49827 0.0
N187 N 0.79529 0.83848 0.58254 0.0
N188 N 0.73674 0.85783 0.58267 0.0
C189 C 0.7057 0.83144 0.50631 0.0
C190 C 0.74773 0.79883 0.44671 0.0
C191 C 0.86663 0.7771 0.4677 0.0
H192 H 0.90551 0.80746 0.49472 0.0
H193 H 0.87201 0.73004 0.50245 0.0
H194 H 0.86916 0.77159 0.38508 0.0
O195 O 0.85422 0.94791 0.72098 0.0
O196 O 0.76195 0.99131 0.69325 0.0
H197 H 0.61761 0.87225 0.46009 0.0
H198 H 0.61966 0.78811 0.45502 0.0
C199 C 0.63535 0.82984 0.49825 0.0
H200 H 0.61422 0.82865 0.57427 0.0
H201 H 0.6862 0.98401 0.48501 0.0
O202 O 0.92484 0.81572 0.70529 0.0
C203 C 0.81977 0.99634 0.71267 0.0
Co204 Co 0.17802 0.83858 0.70572 0.0
Co205 Co 0.11566 0.70726 0.67419 0.0
C206 C 0.19831 0.7259 0.84768 0.0
O207 O 0.21115 0.78246 0.82049 0.0
O208 O 0.15879 0.69192 0.80043 0.0
C209 C 0.18581 0.97446 0.7227 0.0
O210 O 0.12605 0.96981 0.7455 0.0
C211 C 0.06462 0.57915 0.64756 0.0
C212 C 0.01968 0.59129 0.49907 0.0
C213 C 0.02855 0.54895 0.57599 0.0
N214 N 0.07619 0.63747 0.61456 0.0
N215 N 0.04871 0.64458 0.5264 0.0
C216 C 0.0885 0.5534 0.74442 0.0
H217 H 0.05812 0.57098 0.80574 0.0
H218 H 0.13699 0.57043 0.75834 0.0
H219 H 0.08778 0.50125 0.74457 0.0
C220 C 0.22961 0.80472 0.4983 0.0
N221 N 0.19519 0.79529 0.58258 0.0
N222 N 0.17584 0.73674 0.5827 0.0
C223 C 0.20223 0.7057 0.50634 0.0
C224 C 0.23484 0.74774 0.44675 0.0
C225 C 0.25655 0.86663 0.46774 0.0
H226 H 0.22619 0.90551 0.49474 0.0
H227 H 0.30361 0.87203 0.5025 0.0
H228 H 0.26208 0.86916 0.38512 0.0
O229 O 0.08575 0.85421 0.721 0.0
O230 O 0.04235 0.76195 0.69326 0.0
H231 H 0.16142 0.61761 0.46012 0.0
H232 H 0.24556 0.61967 0.45503 0.0
C233 C 0.20384 0.63535 0.49827 0.0
H234 H 0.20505 0.61422 0.57428 0.0
H235 H 0.04961 0.68619 0.48508 0.0
O236 O 0.21794 0.92484 0.70533 0.0
C237 C 0.03732 0.81976 0.71268 0.0
Co238 Co 0.19508 0.17802 0.70575 0.0
Co239 Co 0.3264 0.11565 0.67422 0.0
C240 C 0.30776 0.19831 0.8477 0.0
O241 O 0.2512 0.21115 0.82052 0.0
O242 O 0.34174 0.15879 0.80046 0.0
C243 C 0.0592 0.1858 0.7227 0.0
O244 O 0.06385 0.12604 0.74548 0.0
C245 C 0.4545 0.0646 0.64758 0.0
C246 C 0.44236 0.01968 0.49907 0.0
C247 C 0.4847 0.02853 0.57599 0.0
N248 N 0.39618 0.07618 0.61458 0.0
N249 N 0.38907 0.04871 0.52642 0.0
C250 C 0.48026 0.08846 0.74445 0.0
H251 H 0.46267 0.05807 0.80576 0.0
H252 H 0.46323 0.13694 0.75839 0.0
H253 H 0.5324 0.08774 0.7446 0.0
C254 C 0.22894 0.2296 0.49833 0.0
N255 N 0.23837 0.19518 0.58261 0.0
N256 N 0.29692 0.17583 0.58273 0.0
C257 C 0.32796 0.20222 0.50637 0.0
C258 C 0.28593 0.23483 0.44678 0.0
C259 C 0.16703 0.25655 0.46776 0.0
H260 H 0.12815 0.22619 0.49477 0.0
H261 H 0.16164 0.30361 0.50253 0.0
H262 H 0.16451 0.26207 0.38515 0.0
O263 O 0.17944 0.08575 0.72104 0.0
O264 O 0.27171 0.04234 0.69329 0.0
H265 H 0.41606 0.16142 0.46016 0.0
H266 H 0.414 0.24556 0.45508 0.0
C267 C 0.39831 0.20384 0.49832 0.0
H268 H 0.41944 0.20504 0.57433 0.0
H269 H 0.34746 0.04962 0.48509 0.0
O270 O 0.10882 0.21793 0.70535 0.0
C271 C 0.21389 0.03732 0.71271 0.0
loop_
_geom_bond_atom_site_label_1
_geom_bond_atom_site_label_2
_geom_bond_distance
_geom_bond_site_symmetry_2
_ccdc_geom_bond_type
Co0 O3 1.970 1_554 S
Co0 N17 1.989 . S
Co0 O25 1.967 . S
Co0 O32 1.920 . S
Co1 O4 1.966 1_554 S
Co1 N10 2.022 . S
Co1 N18 1.993 . S
Co1 O26 1.941 . S
C2 O3 1.258 . S
C2 O4 1.263 . S
O3 Co0 1.970 1_556 S
O3 C2 1.258 . S
O4 Co1 1.966 1_556 S
O4 C2 1.263 . S
C5 O6 1.235 . S
C5 O32 1.289 . S
O6 C5 1.235 . S
C7 C9 1.400 . S
C7 N10 1.351 . S
C7 C12 1.501 1_554 S
C8 C9 1.387 . S
C8 N11 1.341 . S
C9 C7 1.400 . S
C9 C8 1.387 . S
N10 Co1 2.022 . S
N10 C7 1.351 . S
N10 N11 1.365 . S
N11 C8 1.341 . S
N11 N10 1.365 . S
N11 H31 0.862 . S
C12 C7 1.501 1_556 S
C12 H13 0.961 . S
C12 H14 0.961 . S
C12 H15 0.960 . S
H13 C12 0.961 . S
H14 C12 0.961 . S
H15 C12 0.960 . S
C16 N17 1.342 . S
C16 C20 1.401 . S
C16 C21 1.499 . S
N17 Co0 1.989 . S
N17 C16 1.342 . S
N17 N18 1.388 . S
N18 Co1 1.993 . S
N18 N17 1.388 . S
N18 C19 1.346 . S
C19 N18 1.346 . S
C19 C20 1.396 . S
C19 C29 1.510 . S
C20 C16 1.401 . S
C20 C19 1.396 . S
C21 C16 1.499 . S
C21 H22 0.959 . S
C21 H23 0.960 . S
C21 H24 0.961 . S
H22 C21 0.959 . S
H23 C21 0.960 . S
H24 C21 0.961 . S
O25 Co0 1.967 . S
O25 C33 1.258 . S
O26 Co1 1.941 . S
O26 C33 1.266 . S
H27 C29 0.959 . S
H28 C29 0.961 . S
C29 C19 1.510 . S
C29 H27 0.959 . S
C29 H28 0.961 . S
C29 H30 0.960 . S
H30 C29 0.960 . S
H31 N11 0.862 . S
O32 Co0 1.920 . S
O32 C5 1.289 . S
C33 O25 1.258 . S
C33 O26 1.266 . S
Co34 O37 1.970 1_554 S
Co34 N51 1.989 . S
Co34 O59 1.967 . S
Co34 O66 1.920 . S
Co35 O38 1.966 1_554 S
Co35 N44 2.022 . S
Co35 N52 1.993 . S
Co35 O60 1.941 . S
C36 O37 1.258 . S
C36 O38 1.263 . S
O37 Co34 1.970 1_556 S
O37 C36 1.258 . S
O38 Co35 1.966 1_556 S
O38 C36 1.263 . S
C39 O40 1.235 . S
C39 O66 1.289 . S
O40 C39 1.235 . S
C41 C43 1.400 . S
C41 N44 1.351 . S
C41 C46 1.501 1_554 S
C42 C43 1.387 . S
C42 N45 1.341 . S
C43 C41 1.400 . S
C43 C42 1.387 . S
N44 Co35 2.022 . S
N44 C41 1.351 . S
N44 N45 1.365 . S
N45 C42 1.341 . S
N45 N44 1.365 . S
N45 H65 0.862 . S
C46 C41 1.501 1_556 S
C46 H47 0.961 . S
C46 H48 0.961 . S
C46 H49 0.960 . S
H47 C46 0.961 . S
H48 C46 0.961 . S
H49 C46 0.960 . S
C50 N51 1.342 . S
C50 C54 1.401 . S
C50 C55 1.499 . S
N51 Co34 1.989 . S
N51 C50 1.342 . S
N51 N52 1.388 . S
N52 Co35 1.993 . S
N52 N51 1.388 . S
N52 C53 1.346 . S
C53 N52 1.346 . S
C53 C54 1.396 . S
C53 C63 1.510 . S
C54 C50 1.401 . S
C54 C53 1.396 . S
C55 C50 1.499 . S
C55 H56 0.959 . S
C55 H57 0.960 . S
C55 H58 0.961 . S
H56 C55 0.959 . S
H57 C55 0.960 . S
H58 C55 0.961 . S
O59 Co34 1.967 . S
O59 C67 1.258 . S
O60 Co35 1.941 . S
O60 C67 1.266 . S
H61 C63 0.959 . S
H62 C63 0.961 . S
C63 C53 1.510 . S
C63 H61 0.959 . S
C63 H62 0.961 . S
C63 H64 0.960 . S
H64 C63 0.960 . S
H65 N45 0.862 . S
O66 Co34 1.920 . S
O66 C39 1.289 . S
C67 O59 1.258 . S
C67 O60 1.266 . S
Co68 O71 1.970 1_554 S
Co68 N85 1.989 . S
Co68 O93 1.967 . S
Co68 O100 1.920 . S
Co69 O72 1.966 1_554 S
Co69 N78 2.022 . S
Co69 N86 1.993 . S
Co69 O94 1.941 . S
C70 O71 1.258 . S
C70 O72 1.263 . S
O71 Co68 1.970 1_556 S
O71 C70 1.258 . S
O72 Co69 1.966 1_556 S
O72 C70 1.263 . S
C73 O74 1.235 . S
C73 O100 1.289 . S
O74 C73 1.235 . S
C75 C77 1.400 . S
C75 N78 1.351 . S
C75 C80 1.501 1_554 S
C76 C77 1.387 . S
C76 N79 1.341 . S
C77 C75 1.400 . S
C77 C76 1.387 . S
N78 Co69 2.022 . S
N78 C75 1.351 . S
N78 N79 1.365 . S
N79 C76 1.341 . S
N79 N78 1.365 . S
N79 H99 0.862 . S
C80 C75 1.501 1_556 S
C80 H81 0.961 . S
C80 H82 0.961 . S
C80 H83 0.960 . S
H81 C80 0.961 . S
H82 C80 0.961 . S
H83 C80 0.960 . S
C84 N85 1.342 . S
C84 C88 1.401 . S
C84 C89 1.499 . S
N85 Co68 1.989 . S
N85 C84 1.342 . S
N85 N86 1.388 . S
N86 Co69 1.993 . S
N86 N85 1.388 . S
N86 C87 1.346 . S
C87 N86 1.346 . S
C87 C88 1.396 . S
C87 C97 1.510 . S
C88 C84 1.401 . S
C88 C87 1.396 . S
C89 C84 1.499 . S
C89 H90 0.959 . S
C89 H91 0.960 . S
C89 H92 0.961 . S
H90 C89 0.959 . S
H91 C89 0.960 . S
H92 C89 0.961 . S
O93 Co68 1.967 . S
O93 C101 1.258 . S
O94 Co69 1.941 . S
O94 C101 1.266 . S
H95 C97 0.959 . S
H96 C97 0.961 . S
C97 C87 1.510 . S
C97 H95 0.959 . S
C97 H96 0.961 . S
C97 H98 0.960 . S
H98 C97 0.960 . S
H99 N79 0.862 . S
O100 Co68 1.920 . S
O100 C73 1.289 . S
C101 O93 1.258 . S
C101 O94 1.266 . S
Co102 O105 1.970 1_554 S
Co102 N119 1.989 . S
Co102 O127 1.967 . S
Co102 O134 1.920 . S
Co103 O106 1.966 1_554 S
Co103 N112 2.022 . S
Co103 N120 1.993 . S
Co103 O128 1.941 . S
C104 O105 1.258 . S
C104 O106 1.263 . S
O105 Co102 1.970 1_556 S
O105 C104 1.258 . S
O106 Co103 1.966 1_556 S
O106 C104 1.263 . S
C107 O108 1.235 . S
C107 O134 1.289 . S
O108 C107 1.235 . S
C109 C111 1.400 . S
C109 N112 1.351 . S
C109 C114 1.501 1_554 S
C110 C111 1.387 . S
C110 N113 1.341 . S
C111 C109 1.400 . S
C111 C110 1.387 . S
N112 Co103 2.022 . S
N112 C109 1.351 . S
N112 N113 1.365 . S
N113 C110 1.341 . S
N113 N112 1.365 . S
N113 H133 0.862 . S
C114 C109 1.501 1_556 S
C114 H115 0.961 . S
C114 H116 0.961 . S
C114 H117 0.960 . S
H115 C114 0.961 . S
H116 C114 0.961 . S
H117 C114 0.960 . S
C118 N119 1.342 . S
C118 C122 1.401 . S
C118 C123 1.499 . S
N119 Co102 1.989 . S
N119 C118 1.342 . S
N119 N120 1.388 . S
N120 Co103 1.993 . S
N120 N119 1.388 . S
N120 C121 1.346 . S
C121 N120 1.346 . S
C121 C122 1.396 . S
C121 C131 1.510 . S
C122 C118 1.401 . S
C122 C121 1.396 . S
C123 C118 1.499 . S
C123 H124 0.959 . S
C123 H125 0.960 . S
C123 H126 0.961 . S
H124 C123 0.959 . S
H125 C123 0.960 . S
H126 C123 0.961 . S
O127 Co102 1.967 . S
O127 C135 1.258 . S
O128 Co103 1.941 . S
O128 C135 1.266 . S
H129 C131 0.959 . S
H130 C131 0.961 . S
C131 C121 1.510 . S
C131 H129 0.959 . S
C131 H130 0.961 . S
C131 H132 0.960 . S
H132 C131 0.960 . S
H133 N113 0.862 . S
O134 Co102 1.920 . S
O134 C107 1.289 . S
C135 O127 1.258 . S
C135 O128 1.266 . S
Co136 O139 1.970 . S
Co136 N153 1.989 . S
Co136 O161 1.967 . S
Co136 O168 1.920 . S
Co137 O140 1.966 . S
Co137 N146 2.022 . S
Co137 N154 1.993 . S
Co137 O162 1.941 1_655 S
C138 O139 1.258 . S
C138 O140 1.263 . S
O139 Co136 1.970 . S
O139 C138 1.258 . S
O140 Co137 1.966 . S
O140 C138 1.263 . S
C141 O142 1.235 . S
C141 O168 1.289 . S
O142 C141 1.235 . S
C143 C145 1.400 . S
C143 N146 1.351 . S
C143 C148 1.501 . S
C144 C145 1.387 1_455 S
C144 N147 1.341 . S
C145 C143 1.400 . S
C145 C144 1.387 1_655 S
N146 Co137 2.022 . S
N146 C143 1.351 . S
N146 N147 1.365 1_655 S
N147 C144 1.341 . S
N147 N146 1.365 1_455 S
N147 H167 0.862 . S
C148 C143 1.501 . S
C148 H149 0.961 . S
C148 H150 0.961 . S
C148 H151 0.960 . S
H149 C148 0.961 . S
H150 C148 0.961 . S
H151 C148 0.960 . S
C152 N153 1.342 . S
C152 C156 1.401 . S
C152 C157 1.499 . S
N153 Co136 1.989 . S
N153 C152 1.342 . S
N153 N154 1.388 . S
N154 Co137 1.993 . S
N154 N153 1.388 . S
N154 C155 1.346 . S
C155 N154 1.346 . S
C155 C156 1.396 . S
C155 C165 1.510 . S
C156 C152 1.401 . S
C156 C155 1.396 . S
C157 C152 1.499 . S
C157 H158 0.959 . S
C157 H159 0.960 . S
C157 H160 0.961 . S
H158 C157 0.959 . S
H159 C157 0.960 . S
H160 C157 0.961 . S
O161 Co136 1.967 . S
O161 C169 1.258 . S
O162 Co137 1.941 1_455 S
O162 C169 1.266 1_455 S
H163 C165 0.959 . S
H164 C165 0.961 . S
C165 C155 1.510 . S
C165 H163 0.959 . S
C165 H164 0.961 . S
C165 H166 0.960 . S
H166 C165 0.960 . S
H167 N147 0.862 . S
O168 Co136 1.920 . S
O168 C141 1.289 . S
C169 O161 1.258 . S
C169 O162 1.266 1_655 S
Co170 O173 1.970 . S
Co170 N187 1.989 . S
Co170 O195 1.967 . S
Co170 O202 1.920 . S
Co171 O174 1.966 . S
Co171 N180 2.022 . S
Co171 N188 1.993 . S
Co171 O196 1.941 1_565 S
C172 O173 1.258 . S
C172 O174 1.263 . S
O173 Co170 1.970 . S
O173 C172 1.258 . S
O174 Co171 1.966 . S
O174 C172 1.263 . S
C175 O176 1.235 . S
C175 O202 1.289 . S
O176 C175 1.235 . S
C177 C179 1.400 . S
C177 N180 1.351 . S
C177 C182 1.501 . S
C178 C179 1.387 1_545 S
C178 N181 1.341 . S
C179 C177 1.400 . S
C179 C178 1.387 1_565 S
N180 Co171 2.022 . S
N180 C177 1.351 . S
N180 N181 1.365 1_565 S
N181 C178 1.341 . S
N181 N180 1.365 1_545 S
N181 H201 0.862 . S
C182 C177 1.501 . S
C182 H183 0.961 . S
C182 H184 0.961 . S
C182 H185 0.960 . S
H183 C182 0.961 . S
H184 C182 0.961 . S
H185 C182 0.960 . S
C186 N187 1.342 . S
C186 C190 1.401 . S
C186 C191 1.499 . S
N187 Co170 1.989 . S
N187 C186 1.342 . S
N187 N188 1.388 . S
N188 Co171 1.993 . S
N188 N187 1.388 . S
N188 C189 1.346 . S
C189 N188 1.346 . S
C189 C190 1.396 . S
C189 C199 1.510 . S
C190 C186 1.401 . S
C190 C189 1.396 . S
C191 C186 1.499 . S
C191 H192 0.959 . S
C191 H193 0.960 . S
C191 H194 0.961 . S
H192 C191 0.959 . S
H193 C191 0.960 . S
H194 C191 0.961 . S
O195 Co170 1.967 . S
O195 C203 1.258 . S
O196 Co171 1.941 1_545 S
O196 C203 1.266 1_545 S
H197 C199 0.959 . S
H198 C199 0.961 . S
C199 C189 1.510 . S
C199 H197 0.959 . S
C199 H198 0.961 . S
C199 H200 0.960 . S
H200 C199 0.960 . S
H201 N181 0.862 . S
O202 Co170 1.920 . S
O202 C175 1.289 . S
C203 O195 1.258 . S
C203 O196 1.266 1_565 S
Co204 O207 1.970 . S
Co204 N221 1.989 . S
Co204 O229 1.967 . S
Co204 O236 1.920 . S
Co205 O208 1.966 . S
Co205 N214 2.022 . S
Co205 N222 1.993 . S
Co205 O230 1.941 1_455 S
C206 O207 1.258 . S
C206 O208 1.263 . S
O207 Co204 1.970 . S
O207 C206 1.258 . S
O208 Co205 1.966 . S
O208 C206 1.263 . S
C209 O210 1.235 . S
C209 O236 1.289 . S
O210 C209 1.235 . S
C211 C213 1.400 . S
C211 N214 1.351 . S
C211 C216 1.501 . S
C212 C213 1.387 1_655 S
C212 N215 1.341 . S
C213 C211 1.400 . S
C213 C212 1.387 1_455 S
N214 Co205 2.022 . S
N214 C211 1.351 . S
N214 N215 1.365 1_455 S
N215 C212 1.341 . S
N215 N214 1.365 1_655 S
N215 H235 0.862 . S
C216 C211 1.501 . S
C216 H217 0.961 . S
C216 H218 0.961 . S
C216 H219 0.960 . S
H217 C216 0.961 . S
H218 C216 0.961 . S
H219 C216 0.960 . S
C220 N221 1.342 . S
C220 C224 1.401 . S
C220 C225 1.499 . S
N221 Co204 1.989 . S
N221 C220 1.342 . S
N221 N222 1.388 . S
N222 Co205 1.993 . S
N222 N221 1.388 . S
N222 C223 1.346 . S
C223 N222 1.346 . S
C223 C224 1.396 . S
C223 C233 1.510 . S
C224 C220 1.401 . S
C224 C223 1.396 . S
C225 C220 1.499 . S
C225 H226 0.959 . S
C225 H227 0.960 . S
C225 H228 0.961 . S
H226 C225 0.959 . S
H227 C225 0.960 . S
H228 C225 0.961 . S
O229 Co204 1.967 . S
O229 C237 1.258 . S
O230 Co205 1.941 1_655 S
O230 C237 1.266 1_655 S
H231 C233 0.959 . S
H232 C233 0.961 . S
C233 C223 1.510 . S
C233 H231 0.959 . S
C233 H232 0.961 . S
C233 H234 0.960 . S
H234 C233 0.960 . S
H235 N215 0.862 . S
O236 Co204 1.920 . S
O236 C209 1.289 . S
C237 O229 1.258 . S
C237 O230 1.266 1_455 S
Co238 O241 1.970 . S
Co238 N255 1.989 . S
Co238 O263 1.967 . S
Co238 O270 1.920 . S
Co239 O242 1.966 . S
Co239 N248 2.022 . S
Co239 N256 1.993 . S
Co239 O264 1.941 1_545 S
C240 O241 1.258 . S
C240 O242 1.263 . S
O241 Co238 1.970 . S
O241 C240 1.258 . S
O242 Co239 1.966 . S
O242 C240 1.263 . S
C243 O244 1.235 . S
C243 O270 1.289 . S
O244 C243 1.235 . S
C245 C247 1.400 . S
C245 N248 1.351 . S
C245 C250 1.501 . S
C246 C247 1.387 1_565 S
C246 N249 1.341 . S
C247 C245 1.400 . S
C247 C246 1.387 1_545 S
N248 Co239 2.022 . S
N248 C245 1.351 . S
N248 N249 1.365 1_545 S
N249 C246 1.341 . S
N249 N248 1.365 1_565 S
N249 H269 0.862 . S
C250 C245 1.501 . S
C250 H251 0.961 . S
C250 H252 0.961 . S
C250 H253 0.960 . S
H251 C250 0.961 . S
H252 C250 0.961 . S
H253 C250 0.960 . S
C254 N255 1.342 . S
C254 C258 1.401 . S
C254 C259 1.499 . S
N255 Co238 1.989 . S
N255 C254 1.342 . S
N255 N256 1.388 . S
N256 Co239 1.993 . S
N256 N255 1.388 . S
N256 C257 1.346 . S
C257 N256 1.346 . S
C257 C258 1.396 . S
C257 C267 1.510 . S
C258 C254 1.401 . S
C258 C257 1.396 . S
C259 C254 1.499 . S
C259 H260 0.959 . S
C259 H261 0.960 . S
C259 H262 0.961 . S
H260 C259 0.959 . S
H261 C259 0.960 . S
H262 C259 0.961 . S
O263 Co238 1.967 . S
O263 C271 1.258 . S
O264 Co239 1.941 1_565 S
O264 C271 1.266 1_565 S
H265 C267 0.959 . S
H266 C267 0.961 . S
C267 C257 1.510 . S
C267 H265 0.959 . S
C267 H266 0.961 . S
C267 H268 0.960 . S
H268 C267 0.960 . S
H269 N249 0.862 . S
O270 Co238 1.920 . S
O270 C243 1.289 . S
C271 O263 1.258 . S
C271 O264 1.266 1_545 S
C77 C9 1.121 1_565 S
C43 C111 1.121 1_655 S
C145 C213 1.121 1_655 S
C179 C247 1.121 1_565 S
C135 C5 2.316 . S
C33 C39 2.316 . S
C73 C67 2.316 . S
C107 C101 2.316 . S
C203 C141 2.316 1_565 S
C237 C175 2.316 1_455 S
C271 C209 2.316 1_545 S
C169 C243 2.316 1_655 S
C20 C258 2.104 . S
C54 C156 2.104 . S
C190 C88 2.104 . S
C224 C122 2.104 . S
C70 C172 3.032 . S
C206 C104 3.032 . S
C240 C2 3.032 . S
C138 C36 3.032 . S
