# Generated by pormake.
# Topology wmi, (6)-cn, num edge types: 1
# Building blocks:
#     Node 0, Type 0, BuildingBlock: KUMBOL_clean_sbu_0, # of connection points: 6
#     Node 1, Type 0, BuildingBlock: KUMBOL_clean_sbu_0, # of connection points: 6
#     Node 2, Type 0, BuildingBlock: KUMBOL_clean_sbu_0, # of connection points: 6
#     Node 3, Type 0, BuildingBlock: KUMBOL_clean_sbu_0, # of connection points: 6
#     Node 4, Type 0, BuildingBlock: KUMBOL_clean_sbu_0, # of connection points: 6
#     Node 5, Type 0, BuildingBlock: KUMBOL_clean_sbu_0, # of connection points: 6
#     Node 6, Type 0, BuildingBlock: KUMBOL_clean_sbu_0, # of connection points: 6
#     Node 7, Type 0, BuildingBlock: KUMBOL_clean_sbu_0, # of connection points: 6
#     Node 8, Type 0, BuildingBlock: KUMBOL_clean_sbu_0, # of connection points: 6
#     Node 9, Type 0, BuildingBlock: KUMBOL_clean_sbu_0, # of connection points: 6
#     Node 10, Type 0, BuildingBlock: KUMBOL_clean_sbu_0, # of connection points: 6
#     Node 11, Type 0, BuildingBlock: KUMBOL_clean_sbu_0, # of connection points: 6
#     Node 12, Type 0, BuildingBlock: KUMBOL_clean_sbu_0, # of connection points: 6
#     Node 13, Type 0, BuildingBlock: KUMBOL_clean_sbu_0, # of connection points: 6
#     Node 14, Type 0, BuildingBlock: KUMBOL_clean_sbu_0, # of connection points: 6
#     Node 15, Type 0, BuildingBlock: KUMBOL_clean_sbu_0, # of connection points: 6
#     Node 16, Type 0, BuildingBlock: KUMBOL_clean_sbu_0, # of connection points: 6
#     Node 17, Type 0, BuildingBlock: KUMBOL_clean_sbu_0, # of connection points: 6
#     Edge 18, Type (0, 0), None
#     Edge 19, Type (0, 0), None
#     Edge 20, Type (0, 0), None
#     Edge 21, Type (0, 0), None
#     Edge 22, Type (0, 0), None
#     Edge 23, Type (0, 0), None
#     Edge 24, Type (0, 0), None
#     Edge 25, Type (0, 0), None
#     Edge 26, Type (0, 0), None
#     Edge 27, Type (0, 0), None
#     Edge 28, Type (0, 0), None
#     Edge 29, Type (0, 0), None
#     Edge 30, Type (0, 0), None
#     Edge 31, Type (0, 0), None
#     Edge 32, Type (0, 0), None
#     Edge 33, Type (0, 0), None
#     Edge 34, Type (0, 0), None
#     Edge 35, Type (0, 0), None
#     Edge 36, Type (0, 0), None
#     Edge 37, Type (0, 0), None
#     Edge 38, Type (0, 0), None
#     Edge 39, Type (0, 0), None
#     Edge 40, Type (0, 0), None
#     Edge 41, Type (0, 0), None
#     Edge 42, Type (0, 0), None
#     Edge 43, Type (0, 0), None
#     Edge 44, Type (0, 0), None
#     Edge 45, Type (0, 0), None
#     Edge 46, Type (0, 0), None
#     Edge 47, Type (0, 0), None
#     Edge 48, Type (0, 0), None
#     Edge 49, Type (0, 0), None
#     Edge 50, Type (0, 0), None
#     Edge 51, Type (0, 0), None
#     Edge 52, Type (0, 0), None
#     Edge 53, Type (0, 0), None
#     Edge 54, Type (0, 0), None
#     Edge 55, Type (0, 0), None
#     Edge 56, Type (0, 0), None
#     Edge 57, Type (0, 0), None
#     Edge 58, Type (0, 0), None
#     Edge 59, Type (0, 0), None
#     Edge 60, Type (0, 0), None
#     Edge 61, Type (0, 0), None
#     Edge 62, Type (0, 0), None
#     Edge 63, Type (0, 0), None
#     Edge 64, Type (0, 0), None
#     Edge 65, Type (0, 0), None
#     Edge 66, Type (0, 0), None
#     Edge 67, Type (0, 0), None
#     Edge 68, Type (0, 0), None
#     Edge 69, Type (0, 0), None
#     Edge 70, Type (0, 0), None
#     Edge 71, Type (0, 0), None
# Relax obj value: 0.078
# Max RMSD: 0.238
# Mean RMSD: 0.238
data_MOF--net-wmi--node1-KUMBOL_clean_sbu_0--edge1-none
_symmetry_space_group_name_H-M    P1
_symmetry_Int_Tables_number       1
_symmetry_cell_setting            triclinic
loop_
_symmetry_equiv_pos_as_xyz
'x, y, z'
_cell_length_a     21.818012
_cell_length_b     21.720455
_cell_length_c     38.803626
_cell_angle_alpha  89.564261
_cell_angle_beta   89.877549
_cell_angle_gamma 120.18739
loop_
_atom_site_label
_atom_site_type_symbol
_atom_site_fract_x
_atom_site_fract_y
_atom_site_fract_z
_atom_type_partial_charge
Gd0 Gd 0.41462 0.99304 0.02814 0.0
Gd1 Gd 0.5964 0.082 0.04696 0.0
C2 C 0.75934 1.02775 0.00734 0.0
C3 C 0.80093 1.00501 0.06026 0.0
C4 C 0.69968 1.02299 0.05999 0.0
C5 C 0.71001 0.03902 0.02566 0.0
C6 C 0.73545 0.98995 0.07435 0.0
C7 C 0.8123 1.02292 0.02532 0.0
C8 C 0.74236 1.00209 -0.02589 0.0
C9 C 0.67928 0.98882 -0.04034 0.0
N10 N 0.65363 0.03661 0.00998 0.0
C11 C 0.63717 1.00938 -0.02269 0.0
H12 H 0.59224 1.00316 -0.03625 0.0
C13 C 0.59089 0.93827 0.08318 0.0
N14 N 0.63339 1.00516 0.07052 0.0
C15 C 0.61976 0.89467 0.09084 0.0
C16 C 0.6933 0.92374 0.08977 0.0
H17 H 0.53532 0.91836 0.088 0.0
H18 H 0.8527 1.01788 0.01166 0.0
H19 H 0.379 0.04557 0.07106 0.0
H20 H 0.77296 0.98463 -0.03904 0.0
H21 H 0.66476 0.96589 0.93425 0.0
H22 H 0.83269 0.98569 0.07257 0.0
H23 H 0.30876 0.90779 0.94574 0.0
H24 H 0.30463 0.18657 0.09324 0.0
H25 H 0.37175 0.14699 0.12702 0.0
H26 H 0.19831 0.16138 -0.02993 0.0
H27 H 0.58579 0.84044 0.09978 0.0
H28 H 0.71582 0.89111 0.09636 0.0
H29 H 0.22666 0.18374 0.03913 0.0
H30 H 0.23306 0.91402 0.90653 0.0
N31 N 0.36748 0.05612 0.05604 0.0
C32 C 0.31724 0.14875 0.08226 0.0
C33 C 0.35642 0.1258 0.10152 0.0
C34 C 0.30052 0.12991 0.04845 0.0
C35 C 0.34211 0.0862 0.03227 0.0
C36 C 0.37784 0.07776 0.09063 0.0
N37 N 0.34505 1.0052 -0.01955 0.0
C38 C 0.34541 0.07086 -0.01143 0.0
C39 C 0.25527 0.9606 0.92348 0.0
C40 C 0.23992 0.06853 0.92255 0.0
C41 C 0.30471 0.95354 0.95153 0.0
C42 C 0.28134 0.12108 0.95254 0.0
H43 H 0.20724 0.0833 0.90702 0.0
O44 O 0.39001 0.92706 -0.01367 0.0
O45 O 0.51485 0.99226 0.01912 0.0
O46 O 0.57922 0.08721 -0.00994 0.0
O47 O 0.47096 0.07807 -0.00971 0.0
O48 O 0.43821 0.90629 0.04448 0.0
O49 O 0.315 0.88884 0.03004 0.0
O50 O 0.68149 0.14943 0.08336 0.0
O51 O 0.50414 0.09939 0.05437 0.0
O52 O 0.39263 0.95318 0.08121 0.0
O53 O 0.51111 1.03161 0.09752 0.0
O54 O 0.59117 0.17774 0.02887 0.0
O55 O 0.69865 0.17273 0.02929 0.0
C56 C 0.49638 0.92961 0.0276 0.0
C57 C 0.24382 0.15949 -0.02075 0.0
C58 C 0.25435 0.16311 0.02443 0.0
C59 C 0.3337 0.874 0.00029 0.0
C60 C 0.32331 0.80407 -0.00891 0.0
C61 C 0.3295 0.79145 -0.04391 0.0
C62 C 0.29986 0.74816 0.01483 0.0
C63 C 0.26554 0.67786 0.00325 0.0
C64 C 0.30494 0.723 0.9447 0.0
C65 C 0.26862 0.66657 -0.03246 0.0
C66 C 0.52447 0.08283 -0.02621 0.0
C67 C 0.53274 0.16554 0.04319 0.0
C68 C 0.72794 0.18845 0.0594 0.0
C69 C 0.78868 0.26393 0.06677 0.0
C70 C 0.77817 0.3006 0.09329 0.0
C71 C 0.85757 0.29934 0.04933 0.0
C72 C 0.91432 0.36909 0.05983 0.0
C73 C 0.83018 0.36905 0.10201 0.0
C74 C 0.89677 0.40204 0.08607 0.0
C75 C 0.43904 0.98449 0.10534 0.0
H76 H 0.35087 0.83404 0.93711 0.0
H77 H 0.30548 0.75989 0.04164 0.0
H78 H 0.30758 0.71334 0.91756 0.0
H79 H 0.23697 0.61579 -0.04425 0.0
H80 H 0.73001 0.27514 0.10837 0.0
H81 H 0.86664 0.27314 0.02794 0.0
H82 H 0.81982 0.39505 0.12303 0.0
H83 H 0.93602 0.45386 0.09503 0.0
Gd84 Gd 0.15311 0.47119 0.02328 0.0
Gd85 Gd 0.06557 0.56583 0.04539 0.0
C86 C 0.11314 0.78642 0.00887 0.0
C87 C 0.11941 0.84098 0.06323 0.0
C88 C 0.11028 0.72509 0.06096 0.0
C89 C 0.10123 0.72375 0.02614 0.0
C90 C 0.13719 0.79216 0.07698 0.0
C91 C 0.11018 0.83973 0.02763 0.0
C92 C 0.14469 0.80113 -0.02356 0.0
C93 C 0.16138 0.75385 -0.0385 0.0
N94 N 0.10985 0.67335 0.01015 0.0
C95 C 0.14138 0.68943 -0.0219 0.0
H96 H 0.15058 0.65336 -0.03611 0.0
C97 C 0.20068 0.70896 0.08107 0.0
N98 N 0.1326 0.67949 0.07056 0.0
C99 C 0.23922 0.78174 0.08933 0.0
C100 C 0.20393 0.82022 0.09184 0.0
H101 H 0.22549 0.67704 0.08357 0.0
H102 H 0.11545 0.88651 0.01496 0.0
H103 H 0.09452 0.37322 0.06118 0.0
H104 H 0.15966 0.84992 -0.0367 0.0
H105 H 0.18654 0.76538 0.93635 0.0
H106 H 0.13271 0.88957 0.07676 0.0
H107 H 0.24887 0.46921 0.94103 0.0
H108 H 0.96856 0.15052 0.07684 0.0
H109 H 0.99561 0.25065 0.11378 0.0
H110 H 1.00434 0.09483 0.94814 0.0
H111 H 0.29467 0.80646 0.09608 0.0
H112 H 0.23315 0.87536 0.09976 0.0
H113 H 0.97559 0.0873 0.01866 0.0
H114 H 0.25467 0.39772 0.90017 0.0
N115 N 0.08792 0.35361 0.04567 0.0
C116 C 1.00242 0.20397 0.06706 0.0
C117 C 1.01906 0.26235 0.08836 0.0
C118 C 1.02336 0.21317 0.03304 0.0
C119 C 0.06437 0.30173 0.02006 0.0
C120 C 0.06329 0.33506 0.07979 0.0
N121 N 0.14826 0.398 -0.02763 0.0
C122 C 0.08455 0.32877 -0.02262 0.0
C123 C 0.20488 0.36864 0.9146 0.0
C124 C 0.10361 0.243 0.90759 0.0
C125 C 0.20412 0.41762 0.94449 0.0
C126 C 0.04576 0.22206 0.93689 0.0
H127 H 0.09491 0.19965 0.89032 0.0
O128 O 0.22486 0.52087 -0.01601 0.0
O129 O 0.15516 0.57494 0.01746 0.0
O130 O 0.06957 0.55131 -0.01203 0.0
O131 O 0.07155 0.44772 -0.01499 0.0
O132 O 0.23886 0.58069 0.04182 0.0
O133 O 0.25881 0.47953 0.02722 0.0
O134 O 0.99637 0.57978 0.08234 0.0
O135 O 0.04755 0.45474 0.05096 0.0
O136 O 0.18625 0.47546 0.07635 0.0
O137 O 0.12248 0.53164 0.09408 0.0
O138 O 0.97293 0.46698 0.02444 0.0
O139 O 0.96838 0.56737 0.02858 0.0
C140 C 0.21682 0.61844 0.02668 0.0
C141 C 1.00776 0.14085 -0.03959 0.0
C142 C 0.9974 0.13839 0.00592 0.0
C143 C 0.27665 0.51691 -0.00172 0.0
C144 C 0.34742 0.57783 -0.00995 0.0
C145 C 0.36232 0.59976 -0.04467 0.0
C146 C 0.40234 0.60763 0.01403 0.0
C147 C 0.47328 0.64342 0.00281 0.0
C148 C 0.43135 0.64132 0.94411 0.0
C149 C 0.48602 0.65853 -0.03293 0.0
C150 C 0.07034 0.50038 -0.02993 0.0
C151 C 0.98241 0.41909 0.03911 0.0
C152 C 0.95372 0.58151 0.05891 0.0
C153 C 0.88337 0.57838 0.06875 0.0
C154 C 0.84829 0.53866 0.09814 0.0
C155 C 0.8489 0.61125 0.0499 0.0
C156 C 0.78293 0.60625 0.06198 0.0
C157 C 0.78266 0.52882 0.10829 0.0
C158 C 0.75178 0.56344 0.09138 0.0
C159 C 0.16464 0.5001 0.1009 0.0
H160 H 0.3212 0.58219 0.93615 0.0
H161 H 0.38916 0.60052 0.04065 0.0
H162 H 0.44254 0.65408 0.91695 0.0
H163 H 0.53665 0.67648 -0.04471 0.0
H164 H 0.87205 0.51493 0.11374 0.0
H165 H 0.87238 0.63922 0.02596 0.0
H166 H 0.7565 0.49578 0.13068 0.0
H167 H 0.70108 0.55422 0.1008 0.0
Gd168 Gd 0.67874 0.73846 0.02276 0.0
Gd169 Gd 0.58512 0.55399 0.04536 0.0
C170 C 0.3641 0.38699 0.00822 0.0
C171 C 0.30505 0.33987 0.06221 0.0
C172 C 0.4234 0.44383 0.06049 0.0
C173 C 0.42655 0.43567 0.02581 0.0
C174 C 0.35534 0.40559 0.07601 0.0
C175 C 0.30774 0.33236 0.0267 0.0
C176 C 0.35255 0.40554 -0.02439 0.0
C177 C 0.40202 0.46956 -0.03904 0.0
N178 N 0.47937 0.4939 0.00987 0.0
C179 C 0.46594 0.51146 -0.02219 0.0
H180 H 0.50389 0.55672 -0.03612 0.0
C181 C 0.44408 0.55209 0.08148 0.0
N182 N 0.47085 0.51132 0.07018 0.0
C183 C 0.37144 0.5204 0.08954 0.0
C184 C 0.32953 0.44634 0.09063 0.0
H185 H 0.47798 0.6086 0.0849 0.0
H186 H 0.26053 0.29344 0.01352 0.0
H187 H 0.77834 0.77859 0.05871 0.0
H188 H 0.30326 0.37463 -0.03708 0.0
H189 H 0.3925 0.48508 0.93587 0.0
H190 H 0.25519 0.30612 0.07548 0.0
H191 H 0.67794 0.84216 0.94126 0.0
H192 H 1.00132 0.88283 0.07038 0.0
H193 H 0.90359 0.80156 0.10787 0.0
H194 H 0.04817 0.97504 0.93975 0.0
H195 H 0.34915 0.55298 0.09712 0.0
H196 H 0.27412 0.42205 0.09736 0.0
H197 H 0.06156 0.95593 0.01071 0.0
H198 H 0.7482 0.92185 0.90031 0.0
N199 N 0.79726 0.79393 0.04301 0.0
C200 C 0.94754 0.8622 0.06166 0.0
C201 C 0.89064 0.81584 0.08338 0.0
C202 C 0.9367 0.87552 0.02806 0.0
C203 C 0.84788 0.82628 0.0167 0.0
C204 C 0.81763 0.78472 0.07613 0.0
N205 N 0.74952 0.81132 -0.02915 0.0
C206 C 0.81905 0.81838 -0.02545 0.0
C207 C 0.77588 0.89788 0.91262 0.0
C208 C 0.90029 0.92322 0.90289 0.0
C209 C 0.72876 0.84779 0.94343 0.0
C210 C 0.92316 0.88706 0.93189 0.0
H211 H 0.94263 0.95873 0.88502 0.0
O212 O 0.62949 0.75944 -0.01677 0.0
O213 O 0.57592 0.63559 0.0173 0.0
O214 O 0.60304 0.57152 -0.01193 0.0
O215 O 0.70418 0.67961 -0.01431 0.0
O216 O 0.56904 0.71274 0.04201 0.0
O217 O 0.66627 0.83337 0.0269 0.0
O218 O 0.56914 0.47006 0.08291 0.0
O219 O 0.69466 0.64884 0.05057 0.0
O220 O 0.67534 0.76349 0.07694 0.0
O221 O 0.62481 0.64268 0.09434 0.0
O222 O 0.68573 0.56099 0.02629 0.0
O223 O 0.57854 0.45283 0.02915 0.0
C224 C 0.53193 0.65331 0.02645 0.0
C225 C 1.00455 0.93199 0.95352 0.0
C226 C 1.00984 0.92531 -0.00077 0.0
C227 C 0.6304 0.81363 -0.00214 0.0
C228 C 0.5693 0.82206 -0.01049 0.0
C229 C 0.54827 0.81676 -0.04518 0.0
C230 C 0.5391 0.84559 0.01381 0.0
C231 C 0.50463 0.88181 0.0032 0.0
C232 C 0.50689 0.84477 0.9442 0.0
C233 C 0.48949 0.88133 -0.03229 0.0
C234 C 0.65256 0.6259 -0.02955 0.0
C235 C 0.73197 0.62018 0.04 0.0
C236 C 0.56412 0.42394 0.0597 0.0
C237 C 0.57292 0.3598 0.0693 0.0
C238 C 0.61572 0.36764 0.09752 0.0
C239 C 0.53929 0.29091 0.05202 0.0
C240 C 0.54722 0.23157 0.06429 0.0
C241 C 0.62721 0.31295 0.10809 0.0
C242 C 0.5929 0.24619 0.09235 0.0
C243 C 0.65608 0.71611 0.10146 0.0
H244 H 0.56588 0.79376 0.93533 0.0
H245 H 0.54611 0.83877 0.04033 0.0
H246 H 0.49435 0.84427 0.91717 0.0
H247 H 0.471 0.91439 -0.04324 0.0
H248 H 0.64043 0.41668 0.11183 0.0
H249 H 0.50843 0.28406 0.02911 0.0
H250 H 0.66188 0.3219 0.12971 0.0
H251 H 0.60367 0.20562 0.10186 0.0
Gd252 Gd 1.00849 0.40019 0.88043 0.0
Gd253 Gd 0.10009 0.58491 0.86054 0.0
C254 C 1.0443 0.74885 0.90223 0.0
C255 C 0.04668 0.80901 0.84965 0.0
C256 C 0.06036 0.70467 0.84828 0.0
C257 C 0.06178 0.70395 0.88357 0.0
C258 C 1.03625 0.7481 0.83264 0.0
C259 C 1.04197 0.80431 0.88543 0.0
C260 C 1.01593 0.72902 0.93507 0.0
C261 C 1.00147 0.66404 0.94825 0.0
N262 N 0.05342 0.64279 0.8976 0.0
C263 C 1.02114 0.62224 0.92949 0.0
H264 H 1.01052 0.57401 0.94174 0.0
C265 C 0.97226 0.60218 0.82443 0.0
N266 N 1.03962 0.63888 0.83586 0.0
C267 C 0.93596 0.63844 0.81616 0.0
C268 C 0.97281 0.71227 0.81465 0.0
H269 H 0.9457 0.54516 0.82266 0.0
H270 H 1.02413 0.83549 0.89934 0.0
H271 H 0.06764 0.3689 0.8364 0.0
H272 H 1.00407 0.76311 0.95018 0.0
H273 H 0.97773 0.6473 -0.02643 0.0
H274 H 1.0344 0.84613 0.83695 0.0
H275 H 0.91573 0.26267 0.95321 0.0
H276 H 0.22898 0.32078 0.81436 0.0
H277 H 0.17053 0.3672 0.77925 0.0
H278 H 0.24848 0.25641 0.94286 0.0
H279 H 0.87986 0.60956 0.81063 0.0
H280 H 0.94443 0.73919 0.807 0.0
H281 H 0.25224 0.2675 0.87179 0.0
H282 H 0.93276 0.19603 -0.0059 0.0
N283 N 0.07869 0.35875 0.85145 0.0
C284 C 0.18847 0.32887 0.82594 0.0
C285 C 0.1544 0.3564 0.80581 0.0
C286 C 0.17279 0.31377 0.86031 0.0
C287 C 0.11385 0.3391 0.87532 0.0
C288 C 0.09975 0.36906 0.81647 0.0
N289 N 1.02051 0.32201 0.92399 0.0
C290 C 0.09173 0.33585 0.9182 0.0
C291 C 0.98225 0.22792 -0.02063 0.0
C292 C 0.10277 0.23917 -0.01409 0.0
C293 C 0.96827 0.27167 0.95044 0.0
C294 C 0.15642 0.28991 -0.04331 0.0
H295 H 0.12259 0.21243 0.00277 0.0
O296 O 0.94603 0.37519 0.92618 0.0
O297 O 1.00601 0.50177 0.88656 0.0
O298 O 0.10064 0.56819 0.91765 0.0
O299 O 0.08918 0.45841 0.91909 0.0
O300 O 0.92139 0.42323 0.8629 0.0
O301 O 0.90281 0.30739 0.8806 0.0
O302 O 0.17283 0.66789 0.82372 0.0
O303 O 0.11565 0.49123 0.85453 0.0
O304 O 0.97097 0.37395 0.82776 0.0
O305 O 0.04845 0.49368 0.81114 0.0
O306 O 0.19253 0.5768 0.8806 0.0
O307 O 0.19683 0.68293 0.87822 0.0
C308 C 0.94408 0.48397 0.87723 0.0
C309 C 0.21245 0.26954 0.93119 0.0
C310 C 0.21817 0.28092 0.88563 0.0
C311 C 0.89019 0.32342 0.91129 0.0
C312 C 0.8198 0.31134 0.92156 0.0
C313 C 0.80699 0.31477 -0.04322 0.0
C314 C 0.76306 0.28606 0.89841 0.0
C315 C 0.69288 0.25557 0.91049 0.0
C316 C 0.73848 0.28971 -0.03119 0.0
C317 C 0.68173 0.25677 0.94623 0.0
C318 C 0.09219 0.51202 0.93468 0.0
C319 C 0.18103 0.51906 0.86585 0.0
C320 C 0.21558 0.71064 0.84756 0.0
C321 C 0.28309 0.78253 0.83902 0.0
C322 C 0.31978 0.78207 0.8096 0.0
C323 C 0.3154 0.84841 0.85903 0.0
C324 C 0.38019 0.91284 0.84751 0.0
C325 C 0.38312 0.8416 0.79946 0.0
C326 C 0.41204 0.90559 0.8175 0.0
C327 C 1.00187 0.42052 0.80317 0.0
H328 H 0.84985 0.3347 -0.02479 0.0
H329 H 0.7734 0.28535 0.87163 0.0
H330 H 0.72899 0.29182 -0.00396 0.0
H331 H 0.62962 0.22952 -0.04254 0.0
H332 H 0.2994 0.7347 0.794 0.0
H333 H 0.29141 0.84901 0.88334 0.0
H334 H 0.40932 0.83862 0.77632 0.0
H335 H 0.4616 0.94985 0.80817 0.0
Gd336 Gd 0.74794 0.67102 0.87972 0.0
Gd337 Gd 0.56742 0.57056 0.86043 0.0
C338 C 0.41039 0.34014 0.89093 0.0
C339 C 0.4019 0.27935 0.83825 0.0
C340 C 0.48718 0.40572 0.84315 0.0
C341 C 0.4617 0.40553 0.8754 0.0
C342 C 0.46634 0.33934 0.82838 0.0
C343 C 0.37395 0.27951 0.87055 0.0
C344 C 0.41153 0.33222 0.92646 0.0
C345 C 0.46953 0.38321 0.94441 0.0
N346 N 0.507 0.4616 0.89452 0.0
C347 C 0.51608 0.44789 0.92821 0.0
H348 H 0.55923 0.4846 0.94353 0.0
C349 C 0.60264 0.45472 0.82042 0.0
N350 N 0.55088 0.46403 0.83522 0.0
C351 C 0.58841 0.38734 0.81065 0.0
C352 C 0.51917 0.33089 0.81313 0.0
H353 H 0.65556 0.49759 0.8163 0.0
H354 H 0.33367 0.22928 0.8817 0.0
H355 H 0.77069 0.75786 0.83438 0.0
H356 H 0.3742 0.28307 0.93927 0.0
H357 H 0.47746 0.37395 -0.02894 0.0
H358 H 0.38226 0.22911 0.82518 0.0
H359 H 0.88438 0.71589 0.9498 0.0
H360 H 0.81069 0.96589 0.81166 0.0
H361 H 0.75661 0.85701 0.7784 0.0
H362 H 0.88984 0.05512 0.93952 0.0
H363 H 0.62953 0.37974 0.79939 0.0
H364 H 0.50819 0.28133 0.80338 0.0
H365 H 0.87125 0.04709 0.86817 0.0
H366 H 0.95252 0.80176 -0.01068 0.0
N367 N 0.78191 0.78007 0.8492 0.0
C368 C 0.80515 0.91797 0.82336 0.0
C369 C 0.77387 0.85449 0.80421 0.0
C370 C 0.82657 0.91991 0.85706 0.0
C371 C 0.8033 0.83573 0.87259 0.0
C372 C 0.76512 0.78805 0.81494 0.0
N373 N 0.82476 0.76114 0.92135 0.0
C374 C 0.80933 0.8177 0.91553 0.0
C375 C 0.92045 0.81889 -0.02528 0.0
C376 C 0.90773 0.92736 -0.0187 0.0
C377 C 0.87631 0.76017 0.94677 0.0
C378 C 0.85614 0.92934 0.95312 0.0
H379 H 0.93428 0.97412 -0.00227 0.0
O380 O 0.78218 0.63506 0.92197 0.0
O381 O 0.64887 0.56698 0.88954 0.0
O382 O 0.58748 0.58751 0.91805 0.0
O383 O 0.69208 0.69175 0.9206 0.0
O384 O 0.72735 0.55937 0.86739 0.0
O385 O 0.84478 0.66364 0.87391 0.0
O386 O 0.4858 0.55548 0.82202 0.0
O387 O 0.65357 0.6855 0.85574 0.0
O388 O 0.77549 0.65945 0.82799 0.0
O389 O 0.65568 0.6051 0.81093 0.0
O390 O 0.56573 0.66486 0.88327 0.0
O391 O 0.45934 0.54757 0.87541 0.0
C392 C 0.66805 0.52311 0.88313 0.0
C393 C 0.87495 1.00577 0.9273 0.0
C394 C 0.86088 0.99947 0.88181 0.0
C395 C 0.83286 0.63324 0.90461 0.0
C396 C 0.84331 0.57205 0.9129 0.0
C397 C 0.83775 0.55169 0.94774 0.0
C398 C 0.86616 0.53944 0.8887 0.0
C399 C 0.89515 0.49718 0.89973 0.0
C400 C 0.85575 0.50185 -0.04172 0.0
C401 C 0.88694 0.47754 0.93493 0.0
C402 C 0.63879 0.63926 0.9359 0.0
C403 C 0.62107 0.71747 0.86928 0.0
C404 C 0.43509 0.5415 0.84442 0.0
C405 C 0.37313 0.55519 0.83615 0.0
C406 C 0.37851 0.59468 0.80644 0.0
C407 C 0.30715 0.52743 0.85587 0.0
C408 C 0.24741 0.53479 0.84426 0.0
C409 C 0.32607 0.61087 0.79793 0.0
C410 C 0.26118 0.5796 0.81553 0.0
C411 C 0.72871 0.63377 0.80395 0.0
H412 H 0.82185 0.57634 -0.03271 0.0
H413 H 0.86261 0.5485 0.86199 0.0
H414 H 0.85246 0.4878 -0.01467 0.0
H415 H 0.9128 0.45162 0.94604 0.0
H416 H 0.42444 0.6148 0.78969 0.0
H417 H 0.30383 0.50304 0.88045 0.0
H418 H 0.33429 0.64538 0.77601 0.0
H419 H 0.22127 0.59123 0.8065 0.0
Gd420 Gd 0.48492 0.15107 0.88796 0.0
Gd421 Gd 0.57732 0.06371 0.86245 0.0
C422 C 0.80971 0.13952 0.87999 0.0
C423 C 0.86496 0.20655 0.8285 0.0
C424 C 0.73941 0.15995 0.83867 0.0
C425 C 0.74345 0.12875 0.86862 0.0
C426 C 0.80371 0.21129 0.82326 0.0
C427 C 0.86753 0.16868 0.85716 0.0
C428 C 0.82073 0.13846 0.91522 0.0
C429 C 0.77196 0.14006 0.93765 0.0
N430 N 0.68978 0.11211 0.89087 0.0
C431 C 0.7061 0.1255 0.92515 0.0
H432 H 0.67095 0.12778 0.9436 0.0
C433 C 0.68046 0.218 0.81767 0.0
N434 N 0.67768 0.15965 0.83323 0.0
C435 C 0.74455 0.27479 0.80544 0.0
C436 C 0.80646 0.27145 0.80831 0.0
H437 H 0.63496 0.22365 0.81534 0.0
H438 H 0.91827 0.17533 0.86483 0.0
H439 H 0.39197 0.11085 0.84674 0.0
H440 H 0.87085 0.14763 0.92497 0.0
H441 H 0.78409 0.15072 -0.03525 0.0
H442 H 0.91355 0.24037 0.81463 0.0
H443 H 0.45718 0.24123 -0.03219 0.0
H444 H 0.17596 0.96855 0.82511 0.0
H445 H 0.28165 1.02826 0.78895 0.0
H446 H 0.10776 0.92186 -0.04116 0.0
H447 H 0.74599 0.32067 0.79348 0.0
H448 H 0.85505 0.31474 0.79806 0.0
H449 H 0.10637 0.9385 0.88566 0.0
H450 H 0.37635 0.22419 0.01072 0.0
N451 N 0.37169 0.09515 0.86182 0.0
C452 C 0.22698 1.00207 0.83682 0.0
C453 C 0.2874 0.03895 0.81582 0.0
C454 C 0.23224 1.00475 0.87219 0.0
C455 C 0.31876 0.05658 0.88622 0.0
C456 C 0.35716 0.08528 0.82646 0.0
N457 N 0.40276 0.13997 0.93589 0.0
C458 C 0.34149 0.07148 0.92923 0.0
C459 C 0.35513 0.17624 -0.00526 0.0
C460 C 0.24088 0.05737 0.00028 0.0
C461 C 0.41035 0.19055 -0.03566 0.0
C462 C 0.23294 1.00639 -0.03096 0.0
H463 H 0.19543 0.03742 0.01792 0.0
O464 O 0.5282 0.21563 0.93179 0.0
O465 O 0.5866 0.15009 0.89364 0.0
O466 O 0.56426 0.06557 0.92004 0.0
O467 O 0.46003 0.06384 0.92426 0.0
O468 O 0.59654 0.24095 0.87419 0.0
O469 O 0.49284 0.25478 0.8878 0.0
O470 O 0.59454 0.99488 0.82664 0.0
O471 O 0.46579 0.04503 0.85959 0.0
O472 O 0.50102 0.18688 0.83348 0.0
O473 O 0.53076 0.10323 0.8137 0.0
O474 O 0.47834 0.96692 0.8823 0.0
O475 O 0.59696 0.97776 0.88034 0.0
C476 C 0.63165 0.21364 0.88718 0.0
C477 C 0.15446 0.95772 0.94497 0.0
C478 C 0.15568 0.95921 0.89894 0.0
C479 C 0.52695 0.26962 0.91729 0.0
C480 C 0.58814 0.3402 0.92412 0.0
C481 C 0.61414 0.35656 -0.04216 0.0
C482 C 0.61291 0.39406 0.89917 0.0
C483 C 0.65611 0.46554 0.90804 0.0
C484 C 0.65988 0.42679 -0.03314 0.0
C485 C 0.67706 0.481 0.94273 0.0
C486 C 0.51182 0.06108 0.93867 0.0
C487 C 0.43003 0.978 0.86985 0.0
C488 C 0.60618 0.95838 0.85021 0.0
C489 C 0.58609 0.88006 0.84397 0.0
C490 C 0.53393 0.84279 0.81974 0.0
C491 C 0.6173 0.84134 0.86053 0.0
C492 C 0.59885 0.76891 0.85123 0.0
C493 C 0.50654 0.77047 0.81518 0.0
C494 C 0.53776 0.73493 0.83075 0.0
C495 C 0.5063 0.15084 0.80806 0.0
H496 H 0.59599 0.31568 -0.0223 0.0
H497 H 0.59181 0.38005 0.87408 0.0
H498 H 0.67797 0.43961 -0.00683 0.0
H499 H 0.70291 0.53436 0.95219 0.0
H500 H 0.51346 0.8698 0.80453 0.0
H501 H 0.65024 0.86512 0.88196 0.0
H502 H 0.46251 0.7424 0.79784 0.0
H503 H 0.5147 0.67934 0.82593 0.0
Gd504 Gd 0.0681 0.30633 0.35232 0.0
Gd505 Gd 0.24696 0.39559 0.37799 0.0
C506 C 0.40451 0.32212 0.35936 0.0
C507 C 0.39345 0.25545 0.41091 0.0
C508 C 0.31372 0.30098 0.40105 0.0
C509 C 0.3487 0.33216 0.37096 0.0
C510 C 0.3272 0.25016 0.41637 0.0
C511 C 0.43336 0.29297 0.38196 0.0
C512 C 0.41734 0.32482 0.3241 0.0
C513 C 0.36662 0.32261 0.30178 0.0
N514 N 0.31154 0.34876 0.34889 0.0
C515 C 0.31524 0.33695 0.31443 0.0
H516 H 0.27815 0.33552 0.29603 0.0
C517 C 0.19518 0.2397 0.42024 0.0
N518 N 0.25148 0.29975 0.40622 0.0
C519 C 0.20283 0.18299 0.43192 0.0
C520 C 0.26928 0.18866 0.43019 0.0
H521 H 0.14375 0.23359 0.42232 0.0
H522 H 0.47736 0.2863 0.37405 0.0
H523 H 1.004 0.33295 0.39295 0.0
H524 H 0.45985 0.31827 0.31412 0.0
H525 H 0.36817 0.31213 0.27467 0.0
H526 H 0.40851 0.22182 0.42467 0.0
H527 H 0.95238 0.22522 0.27234 0.0
H528 H 0.92756 0.46979 0.4211 0.0
H529 H 0.94969 0.38463 0.45361 0.0
H530 H 0.92646 0.54661 0.29099 0.0
H531 H 0.15799 0.13568 0.44278 0.0
H532 H 0.27421 0.14517 0.43971 0.0
H533 H 0.90284 0.51739 0.36308 0.0
H534 H 0.88852 0.24649 0.23038 0.0
N535 N 1.0061 0.35583 0.3794 0.0
C536 C 0.9494 0.44121 0.40828 0.0
C537 C 0.95934 0.39111 0.42668 0.0
C538 C 0.96523 0.45322 0.37365 0.0
C539 C 1.00065 0.40362 0.35741 0.0
C540 C 0.98598 0.34939 0.41397 0.0
N541 N 1.0001 0.32425 0.30553 0.0
C542 C 1.00825 0.39262 0.31393 0.0
C543 C 0.91552 0.29288 0.24731 0.0
C544 C 0.92052 0.41236 0.24531 0.0
C545 C 0.95674 0.27593 0.27658 0.0
C546 C 0.96449 0.46087 0.27698 0.0
H547 H 0.89487 0.43382 0.22884 0.0
O548 O 0.04748 0.24298 0.3076 0.0
O549 O 0.17174 0.30926 0.34564 0.0
O550 O 0.23464 0.3981 0.32068 0.0
O551 O 0.13085 0.39696 0.31774 0.0
O552 O 0.09092 0.21665 0.36411 0.0
O553 O 0.972 0.20355 0.35128 0.0
O554 O 0.33372 0.46363 0.41373 0.0
O555 O 0.15295 0.4121 0.382 0.0
O556 O 0.04892 0.26789 0.40675 0.0
O557 O 0.15977 0.35598 0.42646 0.0
O558 O 0.24429 0.49339 0.3608 0.0
O559 O 0.35191 0.48172 0.35988 0.0
C560 C 0.15377 0.24541 0.35136 0.0
C561 C 0.93517 0.50759 0.30312 0.0
C562 C 0.9347 0.50135 0.34896 0.0
C563 C 0.99148 0.18896 0.32178 0.0
C564 C 0.98195 0.11811 0.31541 0.0
C565 C 0.99236 0.10159 0.28184 0.0
C566 C 0.95242 0.0642 0.34055 0.0
C567 C 0.92369 0.99263 0.33151 0.0
C568 C 0.96815 1.03134 0.27298 0.0
C569 C 0.92988 0.97713 0.29696 0.0
C570 C 0.18624 0.40263 0.30282 0.0
C571 C 0.18396 0.48008 0.37312 0.0
C572 C 0.38125 0.50041 0.38984 0.0
C573 C 0.4392 0.57865 0.39576 0.0
C574 C 0.42328 0.61692 0.41908 0.0
C575 C 0.5101 0.6159 0.37987 0.0
C576 C 0.5638 0.68884 0.3885 0.0
C577 C 0.47124 0.68782 0.42555 0.0
C578 C 0.53824 0.72286 0.40995 0.0
C579 C 0.08803 0.30678 0.43209 0.0
H580 H 1.01587 0.14243 0.262 0.0
H581 H 0.94573 0.07784 0.36599 0.0
H582 H 0.97514 1.01859 0.2469 0.0
H583 H 0.90348 0.9235 0.28775 0.0
H584 H 0.37312 0.59179 0.43259 0.0
H585 H 0.5215 0.58925 0.36036 0.0
H586 H 0.45659 0.71518 0.44392 0.0
H587 H 0.57318 0.77755 0.41613 0.0
Gd588 Gd 0.80997 0.78675 0.36003 0.0
Gd589 Gd 0.73005 0.88724 0.37947 0.0
C590 C 0.81002 0.12076 0.35709 0.0
C591 C 0.86865 0.1744 0.40981 0.0
C592 C 0.82448 0.04947 0.40064 0.0
C593 C 0.79565 0.05346 0.36999 0.0
C594 C 0.87416 0.11382 0.41567 0.0
C595 C 0.83667 0.17862 0.37951 0.0
C596 C 0.81721 0.13278 0.32163 0.0
C597 C 0.82126 0.08287 0.30113 0.0
N598 N 0.78091 0.99916 0.34875 0.0
C599 C 0.80166 1.01581 0.31491 0.0
H600 H 0.8069 0.98029 0.29798 0.0
C601 C 0.88479 0.9927 0.42161 0.0
N602 N 0.82567 0.98841 0.40669 0.0
C603 C 0.94159 0.05791 0.43178 0.0
C604 C 0.93545 0.11836 0.42932 0.0
H605 H 0.89123 0.94766 0.42521 0.0
H606 H 0.845 0.22999 0.37104 0.0
H607 H 0.7433 0.69554 0.4032 0.0
H608 H 0.8317 0.18436 0.31079 0.0
H609 H 0.83855 0.09538 0.27455 0.0
H610 H 0.89758 0.22073 0.42526 0.0
H611 H 0.90763 0.74823 0.28973 0.0
H612 H 0.5743 0.4851 0.42105 0.0
H613 H 0.62453 0.59143 0.45616 0.0
H614 H 0.57459 0.40833 0.29103 0.0
H615 H 0.9883 0.06086 0.44307 0.0
H616 H 0.97692 0.16665 0.4398 0.0
H617 H 0.55853 0.40909 0.36284 0.0
H618 H 0.89298 0.66671 0.24839 0.0
N619 N 0.73342 0.67462 0.38792 0.0
C620 C 0.61745 0.5341 0.41053 0.0
C621 C 0.64707 0.59613 0.43076 0.0
C622 C 0.63974 0.53524 0.37702 0.0
C623 C 0.70137 0.62099 0.36339 0.0
C624 C 0.70541 0.66362 0.42168 0.0
N625 N 0.8004 0.70042 0.31656 0.0
C626 C 0.72827 0.64302 0.32093 0.0
C627 C 0.84256 0.64792 0.2623 0.0
C628 C 0.72238 0.53994 0.25302 0.0
C629 C 0.85488 0.70384 0.29147 0.0
C630 C 0.66663 0.5349 0.28092 0.0
H631 H 0.70342 0.49602 0.23496 0.0
O632 O 0.88417 0.82404 0.3198 0.0
O633 O 0.81528 0.89087 0.35037 0.0
O634 O 0.73548 0.87373 0.32165 0.0
O635 O 0.73559 0.76938 0.3182 0.0
O636 O 0.90183 0.89826 0.37157 0.0
O637 O 0.91392 0.79423 0.36866 0.0
O638 O 0.66491 0.90435 0.41747 0.0
O639 O 0.70128 0.77228 0.38376 0.0
O640 O 0.84141 0.79703 0.41349 0.0
O641 O 0.77314 0.84862 0.42989 0.0
O642 O 0.63435 0.79282 0.35625 0.0
O643 O 0.64719 0.91252 0.36406 0.0
C644 C 0.87854 0.93463 0.35632 0.0
C645 C 0.60781 0.45621 0.3048 0.0
C646 C 0.59656 0.45803 0.3504 0.0
C647 C 0.93496 0.82469 0.33803 0.0
C648 C 1.00698 0.88612 0.33036 0.0
C649 C 1.0224 0.90819 0.29569 0.0
C650 C 0.06196 0.91765 0.35479 0.0
C651 C 0.13331 0.96169 0.34397 0.0
C652 C 0.09023 0.95872 0.28548 0.0
C653 C 0.1452 0.98259 0.30896 0.0
C654 C 0.73522 0.82262 0.30331 0.0
C655 C 0.63714 0.74023 0.37017 0.0
C656 C 0.6288 0.91859 0.39504 0.0
C657 C 0.55239 0.90061 0.403 0.0
C658 C 0.51937 0.85993 0.43255 0.0
C659 C 0.51253 0.92601 0.38336 0.0
C660 C 0.44352 0.91335 0.39452 0.0
C661 C 0.44835 0.83598 0.43945 0.0
C662 C 0.41125 0.86089 0.42039 0.0
C663 C 0.81561 0.81908 0.4373 0.0
H664 H 0.9825 0.88399 0.27588 0.0
H665 H 0.04898 0.90599 0.38139 0.0
H666 H 0.1015 0.97365 0.25853 0.0
H667 H 0.19712 1.00879 0.29799 0.0
H668 H 0.54756 0.84413 0.4501 0.0
H669 H 0.53318 0.95135 0.35901 0.0
H670 H 0.42257 0.80061 0.4612 0.0
H671 H 0.35817 0.84387 0.42855 0.0
Gd672 Gd 0.34462 0.05709 0.36247 0.0
Gd673 Gd 0.24845 0.8733 0.38245 0.0
C674 C 1.03013 0.70755 0.3405 0.0
C675 C 0.97468 0.64388 0.39283 0.0
C676 C 0.09127 0.74956 0.39438 0.0
C677 C 0.09258 0.75248 0.359 0.0
C678 C 1.02438 0.70417 0.41027 0.0
C679 C 0.97322 0.65097 0.35721 0.0
C680 C 1.0206 0.72782 0.30801 0.0
C681 C 0.0703 0.79346 0.29502 0.0
N682 N 0.14433 0.81483 0.34527 0.0
C683 C 0.13174 0.83572 0.31368 0.0
H684 H 0.16882 0.88412 0.30126 0.0
C685 C 0.10289 0.8499 0.41913 0.0
N686 N 0.13494 0.81501 0.4074 0.0
C687 C 1.03049 0.81182 0.42748 0.0
C688 C 0.99509 0.7382 0.42855 0.0
H689 H 0.13102 0.90674 0.41825 0.0
H690 H 0.92402 0.61932 0.34353 0.0
H691 H 0.43169 0.08306 0.40824 0.0
H692 H 0.97453 0.69341 0.29304 0.0
H693 H 0.0629 0.8104 0.26984 0.0
H694 H 0.92609 0.60521 0.40574 0.0
H695 H 0.39849 0.20169 0.2943 0.0
H696 H 0.63729 0.12288 0.43336 0.0
H697 H 0.53146 0.08204 0.46728 0.0
H698 H 0.73527 0.20835 0.30682 0.0
H699 H 0.99997 0.83797 0.42954 0.0
H700 H 0.93889 0.71064 0.43462 0.0
H701 H 0.71984 0.18158 0.37726 0.0
H702 H 0.48556 0.27149 0.25553 0.0
N703 N 0.45375 0.09307 0.39346 0.0
C704 C 0.59015 0.11667 0.42098 0.0
C705 C 0.52787 0.09242 0.4404 0.0
C706 C 0.59266 0.13376 0.38668 0.0
C707 C 0.50994 0.11146 0.37047 0.0
C708 C 0.46217 0.08311 0.42876 0.0
N709 N 0.43952 0.13726 0.32207 0.0
C710 C 0.49524 0.12068 0.32775 0.0
C711 C 0.50112 0.23727 0.26954 0.0
C712 C 0.60933 0.22466 0.26337 0.0
C713 C 0.44079 0.1911 0.297 0.0
C714 C 0.6091 0.17036 0.29109 0.0
H715 H 0.65727 0.25255 0.24739 0.0
O716 O 0.30953 0.08238 0.3155 0.0
O717 O 0.23907 0.95659 0.3567 0.0
O718 O 0.26577 0.89414 0.32501 0.0
O719 O 0.36807 1.00033 0.32384 0.0
O720 O 0.23467 0.0364 0.37975 0.0
O721 O 0.33078 0.14936 0.36106 0.0
O722 O 0.23614 0.79063 0.42042 0.0
O723 O 0.35959 0.96378 0.38753 0.0
O724 O 0.33492 0.08809 0.41367 0.0
O725 O 0.28122 0.96713 0.4313 0.0
O726 O 0.34512 0.87695 0.36007 0.0
O727 O 0.2475 0.77454 0.36634 0.0
C728 C 0.19563 0.97517 0.36614 0.0
C729 C 0.68331 0.18703 0.31753 0.0
C730 C 0.67335 0.16931 0.36274 0.0
C731 C 0.30341 0.13324 0.33015 0.0
C732 C 0.24672 0.14753 0.31866 0.0
C733 C 0.23149 0.14376 0.28334 0.0
C734 C 0.21508 0.17418 0.34107 0.0
C735 C 0.17543 0.20437 0.32845 0.0
C736 C 0.18811 0.16856 0.2707 0.0
C737 C 0.16317 0.20167 0.29274 0.0
C738 C 0.31618 0.94905 0.30797 0.0
C739 C 0.39376 0.93312 0.3748 0.0
C740 C 0.23707 0.74718 0.39717 0.0
C741 C 0.23077 0.67408 0.40603 0.0
C742 C 0.26043 0.67047 0.43744 0.0
C743 C 0.20059 0.60991 0.38477 0.0
C744 C 0.19681 0.54351 0.3964 0.0
C745 C 0.26046 0.60889 0.448 0.0
C746 C 0.22893 0.54688 0.42825 0.0
C747 C 0.3112 0.04159 0.43847 0.0
H748 H 0.25437 0.12284 0.26538 0.0
H749 H 0.22534 0.17522 0.36778 0.0
H750 H 0.17668 0.1653 0.24344 0.0
H751 H 0.13679 0.22734 0.28134 0.0
H752 H 0.28459 0.71625 0.45421 0.0
H753 H 0.18162 0.6121 0.35935 0.0
H754 H 0.2849 0.60895 0.47228 0.0
H755 H 0.23222 0.50152 0.43761 0.0
Gd756 Gd 0.6829 0.72889 0.21523 0.0
Gd757 Gd 0.77291 0.91368 0.19453 0.0
C758 C 0.72439 0.08355 0.2341 0.0
C759 C 0.72772 0.14204 0.18093 0.0
C760 C 0.73523 0.03431 0.18086 0.0
C761 C 0.7395 0.03631 0.21603 0.0
C762 C 0.71104 0.07762 0.16529 0.0
C763 C 0.72852 0.14211 0.21685 0.0
C764 C 0.68869 0.06137 0.26536 0.0
C765 C 0.67058 0.99533 0.27863 0.0
N766 N 0.72853 0.97458 0.23052 0.0
C767 C 0.69344 0.95423 0.26163 0.0
H768 H 0.68414 0.90767 0.27497 0.0
C769 C 0.6428 0.9305 0.15989 0.0
N770 N 0.71133 0.96689 0.1699 0.0
C771 C 0.60645 0.96721 0.15259 0.0
C772 C 0.6443 0.04122 0.15015 0.0
H773 H 0.61592 0.8736 0.15722 0.0
H774 H 0.71765 0.17871 0.23057 0.0
H775 H 0.77924 0.72388 0.14514 0.0
H776 H 0.66983 0.09195 0.278 0.0
H777 H 0.64229 0.97759 0.30293 0.0
H778 H 0.71674 0.17972 0.16788 0.0
H779 H 0.57297 0.61828 0.2938 0.0
H780 H 0.86895 0.59267 0.16634 0.0
H781 H 0.85327 0.67643 0.12995 0.0
H782 H 0.81081 0.48768 0.29383 0.0
H783 H 0.5504 0.93837 0.14682 0.0
H784 H 0.61641 0.06884 0.14288 0.0
H785 H 0.85025 0.51443 0.22424 0.0
H786 H 0.56249 0.53812 0.3339 0.0
N787 N 0.74888 0.6764 0.19499 0.0
C788 C 0.83507 0.61249 0.17509 0.0
C789 C 0.82583 0.66044 0.1545 0.0
C790 C 0.80684 0.59581 0.20786 0.0
C791 C 0.76538 0.64386 0.21958 0.0
C792 C 0.782 0.68825 0.1636 0.0
N793 N 0.67808 0.65337 0.2656 0.0
C794 C 0.74138 0.64776 0.26196 0.0
C795 C 0.61464 0.5621 0.32183 0.0
C796 C 0.71356 0.53677 0.33151 0.0
C797 C 0.61906 0.61423 0.29199 0.0
C798 C 0.77446 0.57572 0.3035 0.0
H799 H 0.71962 0.50019 0.3489 0.0
O800 O 0.61044 0.70512 0.25387 0.0
O801 O 0.68136 0.83083 0.2209 0.0
O802 O 0.76966 0.89335 0.2519 0.0
O803 O 0.76451 0.7861 0.25348 0.0
O804 O 0.59918 0.7544 0.19528 0.0
O805 O 0.57417 0.63616 0.20841 0.0
O806 O 0.8444 0.99445 0.15703 0.0
O807 O 0.78814 0.81963 0.1883 0.0
O808 O 0.6617 0.70185 0.16171 0.0
O809 O 0.71593 0.82409 0.14566 0.0
O810 O 0.86504 0.90533 0.2144 0.0
O811 O 0.86971 1.01297 0.21137 0.0
C812 C 0.62045 0.81361 0.21082 0.0
C813 C 0.81271 0.53305 0.28127 0.0
C814 C 0.8282 0.54389 0.23602 0.0
C815 C 0.55725 0.65308 0.23808 0.0
C816 C 0.48767 0.64413 0.24737 0.0
C817 C 0.47361 0.64958 0.2824 0.0
C818 C 0.43275 0.62124 0.22373 0.0
C819 C 0.36239 0.58664 0.2354 0.0
C820 C 0.40513 0.62408 0.29389 0.0
C821 C 0.34985 0.58894 0.27104 0.0
C822 C 0.76445 0.83835 0.26908 0.0
C823 C 0.85334 0.84755 0.19963 0.0
C824 C 0.88722 0.03888 0.18031 0.0
C825 C 0.95481 0.10876 0.17025 0.0
C826 C 0.99104 0.10469 0.14147 0.0
C827 C 0.98738 0.17631 0.18855 0.0
C828 C 0.05303 0.23832 0.17643 0.0
C829 C 0.05596 0.1618 0.13114 0.0
C830 C 0.08594 0.22725 0.14787 0.0
C831 C 0.67798 0.7503 0.13797 0.0
H832 H 0.51494 0.67159 0.30153 0.0
H833 H 0.4453 0.62802 0.19691 0.0
H834 H 0.39456 0.62517 0.32111 0.0
H835 H 0.2988 0.55738 0.28278 0.0
H836 H 0.96925 0.05615 0.12677 0.0
H837 H 0.96301 0.18009 0.21214 0.0
H838 H 0.0824 0.15571 0.10889 0.0
H839 H 0.13645 0.26978 0.13848 0.0
Gd840 Gd 0.42323 0.9989 0.21977 0.0
Gd841 Gd 0.24028 0.90301 0.19711 0.0
C842 C 0.06884 0.67972 0.23226 0.0
C843 C 1.02605 0.62438 0.17766 0.0
C844 C 0.1306 0.74207 0.18082 0.0
C845 C 0.11976 0.74322 0.21537 0.0
C846 C 0.09317 0.67489 0.1648 0.0
C847 C 1.01477 0.62555 0.21298 0.0
C848 C 0.08445 0.66475 0.26485 0.0
C849 C 0.14761 0.71278 0.28022 0.0
N850 N 0.177 0.79451 0.23196 0.0
C851 C 0.19172 0.77803 0.26401 0.0
H852 H 0.23653 0.81418 0.27831 0.0
C853 C 0.2395 0.76399 0.15983 0.0
N854 N 0.1985 0.78995 0.17174 0.0
C855 C 0.20819 0.69154 0.15132 0.0
C856 C 0.13433 0.64943 0.15026 0.0
H857 H 0.2959 0.7983 0.15649 0.0
H858 H 0.97325 0.57819 0.22548 0.0
H859 H 0.44805 0.10779 0.14992 0.0
H860 H 0.05046 0.6149 0.27757 0.0
H861 H 0.1609 0.7011 0.30536 0.0
H862 H 0.9929 0.5754 0.16393 0.0
H863 H 0.5222 0.9908 0.30006 0.0
H864 H 0.57571 0.32765 0.17467 0.0
H865 H 0.49612 0.23109 0.13655 0.0
H866 H 0.65186 0.36451 0.30644 0.0
H867 H 0.24095 0.66982 0.14324 0.0
H868 H 0.11023 0.59429 0.14294 0.0
H869 H 0.63912 0.38141 0.2355 0.0
H870 H 0.5954 0.05621 0.34379 0.0
N871 N 0.48226 0.1201 0.20158 0.0
C872 C 0.55301 0.27292 0.18319 0.0
C873 C 0.5087 0.2174 0.16128 0.0
C874 C 0.56173 0.25815 0.21676 0.0
C875 C 0.51112 0.16726 0.22699 0.0
C876 C 0.47868 0.14457 0.16959 0.0
N877 N 0.49251 0.06505 0.27213 0.0
C878 C 0.50023 0.13529 0.26892 0.0
C879 C 0.57458 0.08645 0.33076 0.0
C880 C 0.5995 0.21105 0.3415 0.0
C881 C 0.52707 0.04176 0.29922 0.0
C882 C 0.56583 0.23639 0.31267 0.0
H883 H 0.63322 0.25199 0.36002 0.0
O884 O 0.4479 0.94707 0.25637 0.0
O885 O 0.32114 0.89479 0.2249 0.0
O886 O 0.2546 0.91597 0.2546 0.0
O887 O 0.36201 1.01817 0.25867 0.0
O888 O 0.3992 0.88937 0.20081 0.0
O889 O 0.51784 0.98662 0.21119 0.0
O890 O 0.15873 0.88861 0.15925 0.0
O891 O 0.33416 1.01468 0.19175 0.0
O892 O 0.45024 1.00416 0.16573 0.0
O893 O 0.32996 0.93609 0.14855 0.0
O894 O 0.24678 1.0027 0.21746 0.0
O895 O 0.13935 0.89741 0.21292 0.0
C896 C 0.33898 0.85103 0.21569 0.0
C897 C 0.61219 0.32011 0.29196 0.0
C898 C 0.60895 0.32894 0.24643 0.0
C899 C 0.50157 0.94997 0.24031 0.0
C900 C 0.50989 0.88761 0.24733 0.0
C901 C 0.50082 0.86283 0.28169 0.0
C902 C 0.53643 0.85962 0.22296 0.0
C903 C 0.57051 0.82262 0.23395 0.0
C904 C 0.52767 0.82074 0.29244 0.0
C905 C 0.56641 0.80542 0.26944 0.0
C906 C 0.30687 0.96474 0.273 0.0
C907 C 0.30458 0.05078 0.20301 0.0
C908 C 0.1122 0.88389 0.18228 0.0
C909 C 0.04709 0.88985 0.17219 0.0
C910 C 0.05332 0.93 0.14275 0.0
C911 C 0.9792 0.85696 0.19052 0.0
C912 C 0.91946 0.86331 0.17822 0.0
C913 C 0.99871 0.9414 0.13253 0.0
C914 C 0.93292 0.90771 0.14931 0.0
C915 C 0.40362 0.97222 0.14166 0.0
H916 H 0.47658 0.87882 0.30125 0.0
H917 H 0.5327 0.86938 0.19632 0.0
H918 H 0.52485 0.80634 0.31943 0.0
H919 H 0.5991 0.78763 0.28116 0.0
H920 H 0.10109 0.95286 0.12731 0.0
H921 H 0.97328 0.8277 0.21418 0.0
H922 H 1.0068 0.97519 0.11032 0.0
H923 H 0.89203 0.91721 0.13959 0.0
Gd924 Gd 0.15834 0.47678 0.21437 0.0
Gd925 Gd 0.24862 0.38501 0.1937 0.0
C926 C 0.46199 0.42941 0.23409 0.0
C927 C 0.5223 0.43713 0.18109 0.0
C928 C 0.40762 0.42985 0.18075 0.0
C929 C 0.40237 0.41958 0.2156 0.0
C930 C 0.47573 0.456 0.16587 0.0
C931 C 0.51672 0.42623 0.21672 0.0
C932 C 0.47259 0.45914 0.2665 0.0
C933 C 0.42488 0.476 0.2805 0.0
N934 N 0.35103 0.4282 0.23052 0.0
C935 C 0.36287 0.45718 0.26285 0.0
H936 H 0.32519 0.46565 0.2762 0.0
C937 C 0.39542 0.52199 0.15898 0.0
N938 N 0.36395 0.45325 0.16976 0.0
C939 C 0.46846 0.55941 0.15113 0.0
C940 C 0.5057 0.5227 0.15 0.0
H941 H 0.36487 0.54808 0.15578 0.0
H942 H 0.56104 0.42933 0.23055 0.0
H943 H 0.06901 0.42753 0.17192 0.0
H944 H 0.51976 0.47511 0.27974 0.0
H945 H 0.43436 0.50041 0.30559 0.0
H946 H 0.57188 0.45009 0.16856 0.0
H947 H 0.13964 0.55776 0.29896 0.0
H948 H 0.85211 0.29583 0.14958 0.0
H949 H 0.95812 0.33746 0.11479 0.0
H950 H 0.77282 0.30122 0.27621 0.0
H951 H 0.49464 0.61514 0.14379 0.0
H952 H 0.56116 0.55098 0.14264 0.0
H953 H 0.7788 0.29008 0.2059 0.0
H954 H 0.05742 0.54771 0.34044 0.0
N955 N 0.04728 0.41677 0.18695 0.0
C956 C 0.90311 0.33094 0.16076 0.0
C957 C 0.96473 0.35534 0.14084 0.0
C958 C 0.90628 0.34411 0.19534 0.0
C959 C 0.992 0.38591 0.21095 0.0
C960 C 1.03488 0.39926 0.15186 0.0
N961 N 0.07733 0.46247 0.26326 0.0
C962 C 1.01152 0.39758 0.2546 0.0
C963 C 1.03311 0.50278 0.32255 0.0
C964 C 0.90944 0.39455 0.32248 0.0
C965 C 0.08946 0.51211 0.29336 0.0
C966 C 0.898 0.34471 0.29147 0.0
H967 H 0.8619 0.37834 0.33833 0.0
O968 O 0.20148 0.54164 0.25674 0.0
O969 O 0.25965 0.47654 0.22125 0.0
O970 O 0.228 0.37999 0.25062 0.0
O971 O 0.1298 0.39082 0.25143 0.0
O972 O 0.26824 0.5628 0.19655 0.0
O973 O 0.16351 0.58109 0.21436 0.0
O974 O 0.26386 0.3154 0.15741 0.0
O975 O 0.13984 0.37019 0.18714 0.0
O976 O 0.17499 0.51839 0.16169 0.0
O977 O 0.21241 0.43839 0.14442 0.0
O978 O 0.14752 0.29116 0.21284 0.0
O979 O 0.25319 0.29018 0.21156 0.0
C980 C 0.30386 0.53887 0.21208 0.0
C981 C 0.82144 0.30825 0.26548 0.0
C982 C 0.82744 0.30893 0.2201 0.0
C983 C 0.19813 0.59524 0.24369 0.0
C984 C 0.25883 0.66521 0.25227 0.0
C985 C 0.27876 0.67855 0.28704 0.0
C986 C 0.29106 0.72077 0.22821 0.0
C987 C 0.32794 0.79154 0.23929 0.0
C988 C 0.3229 0.74742 0.29799 0.0
C989 C 0.34264 0.80348 0.27489 0.0
C990 C 0.1785 0.38519 0.2673 0.0
C991 C 0.10214 0.30387 0.19816 0.0
C992 C 0.26828 0.27496 0.18161 0.0
C993 C 0.25977 0.20155 0.17388 0.0
C994 C 0.21554 0.16401 0.14665 0.0
C995 C 0.29464 0.16821 0.19202 0.0
C996 C 0.28619 0.0999 0.18145 0.0
C997 C 0.20383 0.09721 0.13756 0.0
C998 C 0.23889 0.0664 0.15412 0.0
C999 C 0.18804 0.4864 0.13709 0.0
H1000 H 0.25778 0.63622 0.30616 0.0
H1001 H 0.28436 0.70832 0.20159 0.0
H1002 H 0.33593 0.75772 0.32501 0.0
H1003 H 0.36264 0.85485 0.28623 0.0
H1004 H 0.19146 0.18767 0.13135 0.0
H1005 H 0.32724 0.19472 0.21412 0.0
H1006 H 0.16999 0.07089 0.11581 0.0
H1007 H 0.22936 1.01552 0.14508 0.0
Gd1008 Gd 0.73899 0.64885 0.69045 0.0
Gd1009 Gd 0.92029 0.74036 0.71154 0.0
C1010 C 0.08295 0.68341 0.67549 0.0
C1011 C 0.11337 0.64912 0.72861 0.0
C1012 C 1.01634 0.67362 0.72651 0.0
C1013 C 1.03211 0.69393 0.69283 0.0
C1014 C 0.04749 0.63649 0.74107 0.0
C1015 C 0.13081 0.67209 0.69451 0.0
C1016 C 0.0715 0.66436 0.64117 0.0
C1017 C 1.00993 0.65239 0.62535 0.0
N1018 N 0.97901 0.69529 0.67578 0.0
C1019 C 0.96559 0.6707 0.64262 0.0
H1020 H 0.92158 0.66517 0.62849 0.0
C1021 C 0.90432 0.59302 0.74893 0.0
N1022 N 0.95022 0.65881 0.73582 0.0
C1023 C 0.92893 0.54653 0.75778 0.0
C1024 C 1.00158 0.57099 0.75605 0.0
H1025 H 0.84939 0.57653 0.75345 0.0
H1026 H 0.17131 0.66579 0.68165 0.0
H1027 H 0.67959 0.67502 0.73132 0.0
H1028 H 0.10488 0.65004 0.6282 0.0
H1029 H 0.9984 0.63254 0.59929 0.0
H1030 H 0.14115 0.62559 0.74118 0.0
H1031 H 0.64146 0.56791 0.6048 0.0
H1032 H 0.57112 0.78206 0.75841 0.0
H1033 H 0.60734 0.70733 0.79143 0.0
H1034 H 0.51597 0.80412 0.63163 0.0
H1035 H 0.89261 0.49352 0.76755 0.0
H1036 H 1.02069 0.53618 0.76273 0.0
H1037 H 0.53402 0.81972 0.70123 0.0
H1038 H 0.56667 0.57671 0.56396 0.0
N1039 N 0.67571 0.69399 0.71752 0.0
C1040 C 0.60011 0.76041 0.74608 0.0
C1041 C 0.61961 0.71749 0.7648 0.0
C1042 C 0.61258 0.77149 0.71121 0.0
C1043 C 0.66033 0.73425 0.69481 0.0
C1044 C 0.65522 0.68431 0.75214 0.0
N1045 N 0.67226 0.66175 0.64121 0.0
C1046 C 0.66958 0.72524 0.65073 0.0
C1047 C 0.58684 0.62115 0.58211 0.0
C1048 C 0.56911 0.72792 0.58354 0.0
C1049 C 0.63516 0.61243 0.61086 0.0
C1050 C 0.60687 0.77688 0.61504 0.0
H1051 H 0.53726 0.74389 0.56808 0.0
O1052 O 0.71688 0.58368 0.64815 0.0
O1053 O 0.84069 0.65082 0.68192 0.0
O1054 O 0.90389 0.74672 0.65515 0.0
O1055 O 0.7971 0.73991 0.65597 0.0
O1056 O 0.76297 0.56234 0.70578 0.0
O1057 O 0.63837 0.54744 0.69046 0.0
O1058 O 1.00577 0.8067 0.74792 0.0
O1059 O 0.82599 0.75594 0.71874 0.0
O1060 O 0.72316 0.60693 0.74372 0.0
O1061 O 0.83642 0.69427 0.7614 0.0
O1062 O 0.9156 0.83701 0.69526 0.0
O1063 O 1.02322 0.83043 0.69405 0.0
C1064 C 0.82219 0.58768 0.68959 0.0
C1065 C 0.56406 0.80901 0.64165 0.0
C1066 C 0.56858 0.80669 0.68697 0.0
C1067 C 0.65881 0.53167 0.66148 0.0
C1068 C 0.64946 0.46159 0.65522 0.0
C1069 C 0.65621 0.4443 0.62115 0.0
C1070 C 0.62444 0.40941 0.68095 0.0
C1071 C 0.59056 0.3379 0.67177 0.0
C1072 C 0.6302 0.37414 0.61225 0.0
C1073 C 0.59316 0.32125 0.63676 0.0
C1074 C 0.85046 0.74537 0.63918 0.0
C1075 C 0.85642 0.8236 0.7091 0.0
C1076 C 0.05248 0.84601 0.72417 0.0
C1077 C 0.11087 0.92242 0.73178 0.0
C1078 C 0.09617 0.95872 0.75692 0.0
C1079 C 0.1813 0.95925 0.71582 0.0
C1080 C 0.23559 1.03014 0.72636 0.0
C1081 C 0.14599 1.02772 0.76593 0.0
C1082 C 0.21356 0.06224 0.75107 0.0
C1083 C 0.76539 0.64462 0.76823 0.0
H1084 H 0.67782 0.48442 0.60094 0.0
H1085 H 0.62597 0.42471 0.70725 0.0
H1086 H 0.63226 0.36042 0.58568 0.0
H1087 H 0.56038 0.26895 0.62674 0.0
H1088 H 0.04589 0.93296 0.77029 0.0
H1089 H 0.19301 0.93346 0.69529 0.0
H1090 H 0.13252 0.05408 0.78557 0.0
H1091 H 0.25066 0.1141 0.76044 0.0
Gd1092 Gd 0.47812 0.13625 0.69559 0.0
Gd1093 Gd 0.38792 0.22841 0.71389 0.0
C1094 C 0.43074 0.44676 0.67469 0.0
C1095 C 0.42261 0.49739 0.72793 0.0
C1096 C 0.41977 0.38447 0.72768 0.0
C1097 C 0.41671 0.38379 0.69246 0.0
C1098 C 0.44209 0.45134 0.74338 0.0
C1099 C 0.42172 0.49798 0.69198 0.0
C1100 C 0.47 0.46433 0.6443 0.0
C1101 C 0.48965 0.41812 0.63084 0.0
N1102 N 0.43084 0.33545 0.67811 0.0
C1103 C 0.46787 0.35335 0.64745 0.0
H1104 H 0.47999 0.31824 0.63432 0.0
C1105 C 0.51633 0.37875 0.74622 0.0
N1106 N 0.44669 0.34325 0.73823 0.0
C1107 C 0.55047 0.45178 0.75335 0.0
C1108 C 0.51017 0.48459 0.75731 0.0
H1109 H 0.54574 0.35144 0.74708 0.0
H1110 H 0.42871 0.54481 0.6786 0.0
H1111 H 0.41792 0.04441 0.73748 0.0
H1112 H 0.48819 0.51438 0.63172 0.0
H1113 H 0.51926 0.43108 0.60687 0.0
H1114 H 0.43213 0.5452 0.74104 0.0
H1115 H 0.56829 0.12093 0.61405 0.0
H1116 H 0.2725 0.82699 0.75582 0.0
H1117 H 0.30971 0.93117 0.79119 0.0
H1118 H 0.30438 0.75511 0.63156 0.0
H1119 H 0.60727 0.48211 0.75649 0.0
H1120 H 0.53705 0.54043 0.76401 0.0
H1121 H 0.27846 0.75573 0.70088 0.0
H1122 H 0.56111 0.04146 0.57252 0.0
N1123 N 0.40918 1.02386 0.72211 0.0
C1124 C 0.31144 0.87854 0.74562 0.0
C1125 C 0.33294 0.93932 0.76577 0.0
C1126 C 0.3348 0.88332 0.71224 0.0
C1127 C 0.38151 0.9704 0.69745 0.0
C1128 C 0.38368 1.00981 0.75634 0.0
N1129 N 0.46741 0.05851 0.64683 0.0
C1130 C 0.40051 0.99309 0.65403 0.0
C1131 C 0.51371 1.01663 0.58919 0.0
C1132 C 0.40416 0.89419 0.58666 0.0
C1133 C 0.52064 0.07138 0.61823 0.0
C1134 C 0.35067 0.88175 0.61631 0.0
H1135 H 0.38911 0.8475 0.57053 0.0
O1136 O 0.55235 0.17786 0.65733 0.0
O1137 O 0.48026 0.23876 0.68793 0.0
O1138 O 0.39356 0.216 0.65648 0.0
O1139 O 0.40261 0.11617 0.65426 0.0
O1140 O 0.56382 0.24628 0.71295 0.0
O1141 O 0.58043 0.13704 0.70246 0.0
O1142 O 0.31877 0.23816 0.75233 0.0
O1143 O 0.36956 0.11756 0.72015 0.0
O1144 O 0.51307 0.14702 0.74805 0.0
O1145 O 0.44036 0.19396 0.76399 0.0
O1146 O 0.29755 0.12946 0.6912 0.0
O1147 O 0.28857 0.2245 0.69828 0.0
C1148 C 0.54189 0.28272 0.69667 0.0
C1149 C 0.3086 0.8029 0.64173 0.0
C1150 C 0.30189 0.80573 0.68697 0.0
C1151 C 0.60125 0.1709 0.67267 0.0
C1152 C 0.67298 0.23036 0.66447 0.0
C1153 C 0.68566 0.25383 0.62986 0.0
C1154 C 0.72974 0.25863 0.68779 0.0
C1155 C 0.80012 0.29927 0.67531 0.0
C1156 C 0.75321 0.29835 0.61793 0.0
C1157 C 0.80943 0.31666 0.63974 0.0
C1158 C 0.3997 0.16763 0.63902 0.0
C1159 C 0.30566 0.08149 0.70685 0.0
C1160 C 0.27336 0.23513 0.72925 0.0
C1161 C 0.20721 0.23867 0.73838 0.0
C1162 C 0.17248 0.2048 0.7691 0.0
C1163 C 0.17551 0.27049 0.71734 0.0
C1164 C 0.11224 0.27087 0.7284 0.0
C1165 C 0.10882 0.20031 0.77868 0.0
C1166 C 0.07997 0.23362 0.75909 0.0
C1167 C 0.48535 0.16645 0.77191 0.0
H1168 H 0.64383 0.2351 0.61101 0.0
H1169 H 0.71844 0.24631 0.71461 0.0
H1170 H 0.76237 0.31244 0.59081 0.0
H1171 H 0.85858 0.33523 0.62663 0.0
H1172 H 0.19447 0.18091 0.78593 0.0
H1173 H 0.19917 0.29379 0.69261 0.0
H1174 H 0.08275 0.17279 0.80236 0.0
H1175 H 1.03205 0.231 0.76841 0.0
Gd1176 Gd 1.01039 0.40245 0.68703 0.0
Gd1177 Gd 0.9212 0.21588 0.71149 0.0
C1178 C 0.70238 0.03881 0.67448 0.0
C1179 C 0.65902 0.9719 0.72717 0.0
C1180 C 0.76894 0.085 0.72652 0.0
C1181 C 0.76641 0.0868 0.69126 0.0
C1182 C 0.70451 0.03621 0.74353 0.0
C1183 C 0.65322 0.97645 0.69156 0.0
C1184 C 0.68295 0.06163 0.64508 0.0
C1185 C 0.72908 0.12812 0.63139 0.0
N1186 N 0.81349 0.15085 0.67705 0.0
C1187 C 0.79474 0.17043 0.64689 0.0
H1188 H 0.83 0.2177 0.63337 0.0
C1189 C 0.77207 0.18332 0.74902 0.0
N1190 N 0.80883 0.15245 0.73823 0.0
C1191 C 0.70024 0.14083 0.75815 0.0
C1192 C 0.6702 0.06729 0.7603 0.0
H1193 H 0.79659 0.23991 0.74759 0.0
H1194 H 0.60485 0.93903 0.6789 0.0
H1195 H 0.11325 0.44865 0.72091 0.0
H1196 H 0.6324 1.02903 0.63296 0.0
H1197 H 0.71568 0.1455 0.60782 0.0
H1198 H 0.61415 0.92972 0.74103 0.0
H1199 H 1.00499 0.50898 0.60664 0.0
H1200 H 0.33694 0.56595 0.73084 0.0
H1201 H 0.24277 0.48628 0.76989 0.0
H1202 H 0.37692 0.64089 0.59775 0.0
H1203 H 0.66654 0.1634 0.7609 0.0
H1204 H 0.61425 0.03589 0.76658 0.0
H1205 H 0.39331 0.62788 0.6687 0.0
H1206 H 0.07059 0.58562 0.56365 0.0
N1207 N 0.13105 0.46386 0.70509 0.0
C1208 C 0.28277 0.54039 0.72217 0.0
C1209 C 0.22761 0.49591 0.745 0.0
C1210 C 0.26982 0.54725 0.68811 0.0
C1211 C 0.18025 0.49628 0.67814 0.0
C1212 C 0.15406 0.46021 0.73841 0.0
N1213 N 0.0784 0.47795 0.6343 0.0
C1214 C 0.14864 0.48645 0.63661 0.0
C1215 C 0.09992 0.56298 0.57567 0.0
C1216 C 0.22402 0.58873 0.56357 0.0
C1217 C 0.05554 0.51386 0.6075 0.0
C1218 C 0.2495 0.55407 0.59214 0.0
H1219 H 0.26479 0.62365 0.54491 0.0
O1220 O 0.9588 0.41901 0.64686 0.0
O1221 O 0.90728 0.29725 0.68588 0.0
O1222 O 0.93213 0.2311 0.65341 0.0
O1223 O 1.0317 0.34065 0.64968 0.0
O1224 O 0.90227 0.37666 0.70907 0.0
O1225 O 0.99125 0.49285 0.69077 0.0
O1226 O 0.91557 0.1383 0.75113 0.0
O1227 O 1.02774 0.31447 0.71534 0.0
O1228 O 1.01129 0.4298 0.7413 0.0
O1229 O 0.95529 0.30893 0.75971 0.0
O1230 O 1.0222 0.22881 0.68979 0.0
O1231 O 0.92429 0.1185 0.69729 0.0
C1232 C 0.86343 0.31405 0.69668 0.0
C1233 C 0.3328 0.60038 0.61246 0.0
C1234 C 0.34105 0.59603 0.65808 0.0
C1235 C 0.95573 0.47109 0.66173 0.0
C1236 C 0.89465 0.47883 0.65258 0.0
C1237 C 0.8742 0.47293 0.6178 0.0
C1238 C 0.86572 0.50459 0.67628 0.0
C1239 C 0.83241 0.54144 0.66511 0.0
C1240 C 0.83529 0.50333 0.60643 0.0
C1241 C 0.81861 0.54135 0.62948 0.0
C1242 C 0.97832 0.28703 0.63515 0.0
C1243 C 0.06605 0.28726 0.70486 0.0
C1244 C 0.91434 0.09285 0.72854 0.0
C1245 C 0.90993 1.02096 0.73811 0.0
C1246 C 0.93966 1.0188 0.76974 0.0
C1247 C 0.8763 0.95471 0.71842 0.0
C1248 C 0.87103 0.88852 0.73141 0.0
C1249 C 0.93777 0.95704 0.78163 0.0
C1250 C 0.90417 0.8935 0.76308 0.0
C1251 C 0.98792 0.3834 0.76641 0.0
H1252 H 0.89114 0.44813 0.59889 0.0
H1253 H 0.87376 0.49964 0.7028 0.0
H1254 H 0.82339 0.50263 0.57931 0.0
H1255 H 0.80047 0.57461 0.6183 0.0
H1256 H 0.96505 0.06575 0.78569 0.0
H1257 H 0.85515 0.95477 0.69325 0.0
H1258 H 0.96243 0.95822 0.806 0.0
H1259 H 0.90634 0.84803 0.77326 0.0
Gd1260 Gd 0.32775 0.0625 0.5532 0.0
Gd1261 Gd 0.42828 0.24697 0.5289 0.0
C1262 C 0.37756 0.41581 0.56728 0.0
C1263 C 0.38763 0.47756 0.51411 0.0
C1264 C 0.39637 0.37062 0.51426 0.0
C1265 C 0.3951 0.36996 0.54968 0.0
C1266 C 0.37593 0.416 0.49752 0.0
C1267 C 0.37812 0.47192 0.54972 0.0
C1268 C 0.34657 0.39658 0.59962 0.0
C1269 C 0.33084 0.33182 0.61365 0.0
N1270 N 0.38423 0.30843 0.56442 0.0
C1271 C 0.35133 0.28937 0.59614 0.0
H1272 H 0.34005 0.24136 0.60889 0.0
C1273 C 0.30521 0.26944 0.49145 0.0
N1274 N 0.37292 0.30394 0.50237 0.0
C1275 C 0.27229 0.30837 0.48217 0.0
C1276 C 0.31228 0.38185 0.47957 0.0
H1277 H 0.27523 0.21254 0.49252 0.0
H1278 H 0.36049 0.50425 0.56272 0.0
H1279 H 0.36091 1.0028 0.51375 0.0
H1280 H 0.33413 0.43125 0.61377 0.0
H1281 H 0.30565 0.31581 0.63873 0.0
H1282 H 0.37866 0.51613 0.50052 0.0
H1283 H 0.23273 0.93893 0.63218 0.0
H1284 H 0.499 0.92592 0.49004 0.0
H1285 H 0.42292 0.95535 0.45508 0.0
H1286 H 0.55195 0.90844 0.62136 0.0
H1287 H 0.21566 0.28285 0.47928 0.0
H1288 H 0.28521 0.41029 0.4722 0.0
H1289 H 0.53088 0.8876 0.54937 0.0
H1290 H 0.24469 0.87012 0.67387 0.0
N1291 N 0.37917 1.00071 0.52813 0.0
C1292 C 0.4668 0.94443 0.50204 0.0
C1293 C 0.42157 0.95845 0.48214 0.0
C1294 C 0.47068 0.95344 0.53703 0.0
C1295 C 0.42076 0.9896 0.55173 0.0
C1296 C 0.37912 0.98545 0.49327 0.0
N1297 N 0.33577 0.98783 0.60103 0.0
C1298 C 0.40399 0.99435 0.59471 0.0
C1299 C 0.29388 0.8982 0.65863 0.0
C1300 C 0.41022 0.89894 0.66443 0.0
C1301 C 0.28316 0.94287 0.62885 0.0
C1302 C 0.46405 0.94453 0.63379 0.0
H1303 H 0.42757 0.87046 0.68161 0.0
O1304 O 0.26663 0.04551 0.59855 0.0
O1305 O 0.33144 0.16762 0.55616 0.0
O1306 O 0.43214 0.23544 0.58632 0.0
O1307 O 0.4156 0.1238 0.58802 0.0
O1308 O 0.24374 0.08772 0.53428 0.0
O1309 O 0.22301 0.96997 0.5554 0.0
O1310 O 0.50209 0.32645 0.49044 0.0
O1311 O 0.43528 0.14757 0.52427 0.0
O1312 O 0.28934 0.03983 0.49999 0.0
O1313 O 0.37539 0.15436 0.48081 0.0
O1314 O 0.51757 0.23387 0.54841 0.0
O1315 O 0.52639 0.34581 0.54459 0.0
C1316 C 0.26948 0.15044 0.54681 0.0
C1317 C 0.51259 0.91506 0.60887 0.0
C1318 C 0.51318 0.91858 0.56299 0.0
C1319 C 0.21101 0.99126 0.58488 0.0
C1320 C 0.14099 0.97997 0.59363 0.0
C1321 C 0.12546 0.98411 0.62835 0.0
C1322 C 0.08655 0.95176 0.56948 0.0
C1323 C 1.01594 0.91818 0.58025 0.0
C1324 C 0.05549 0.95443 0.63916 0.0
C1325 C 1.00101 0.91813 0.61563 0.0
C1326 C 0.42044 0.17827 0.60353 0.0
C1327 C 0.50169 0.17459 0.53388 0.0
C1328 C 0.54468 0.37167 0.51354 0.0
C1329 C 0.61236 0.44416 0.50459 0.0
C1330 C 0.64626 0.44641 0.47356 0.0
C1331 C 0.64515 0.5098 0.52487 0.0
C1332 C 0.70746 0.57615 0.51267 0.0
C1333 C 0.70747 0.50787 0.46254 0.0
C1334 C 0.73683 0.57118 0.48129 0.0
C1335 C 0.32604 0.08144 0.47462 0.0
H1336 H 0.16717 1.0069 0.64737 0.0
H1337 H 0.0992 0.95043 0.54297 0.0
H1338 H 1.04343 0.9559 0.66611 0.0
H1339 H 0.94786 0.88874 0.62564 0.0
H1340 H 0.62559 0.39957 0.45752 0.0
H1341 H 0.62311 0.50873 0.54993 0.0
H1342 H 0.73223 0.50676 0.4385 0.0
H1343 H 0.78522 0.6164 0.47152 0.0
Gd1344 Gd 0.07108 0.33585 0.5426 0.0
Gd1345 Gd 0.88705 0.23586 0.52588 0.0
C1346 C 0.72051 1.01391 0.56738 0.0
C1347 C 0.65731 0.96223 0.51516 0.0
C1348 C 0.76332 0.07865 0.51386 0.0
C1349 C 0.76464 0.07837 0.54924 0.0
C1350 C 0.71895 1.01181 0.49794 0.0
C1351 C 0.66382 0.95815 0.55069 0.0
C1352 C 0.74274 1.00077 0.59854 0.0
C1353 C 0.80811 0.05038 0.61107 0.0
N1354 N 0.82683 0.1295 0.56268 0.0
C1355 C 0.84863 0.11434 0.59323 0.0
H1356 H 0.89662 0.15089 0.6053 0.0
C1357 C 0.86534 0.08803 0.49273 0.0
N1358 N 0.83008 0.12165 0.50177 0.0
C1359 C 0.82755 1.01526 0.4852 0.0
C1360 C 0.75445 0.98133 0.48179 0.0
H1361 H 0.92199 0.11601 0.49316 0.0
H1362 H 0.63269 0.90763 0.56399 0.0
H1363 H 0.09218 0.42185 0.49713 0.0
H1364 H 0.71035 0.95177 0.61266 0.0
H1365 H 0.82653 0.04057 0.63523 0.0
H1366 H 0.61877 0.91429 0.50218 0.0
H1367 H 0.21438 0.38497 0.61077 0.0
H1368 H 0.13087 0.62903 0.47372 0.0
H1369 H 0.08266 0.52174 0.43999 0.0
H1370 H 0.21893 0.72339 0.59863 0.0
H1371 H 0.85395 0.98472 0.48356 0.0
H1372 H 0.72668 0.92535 0.47523 0.0
H1373 H 0.19244 0.71068 0.52912 0.0
H1374 H 0.28349 0.47193 0.64961 0.0
N1375 N 0.10366 0.44419 0.51187 0.0
C1376 C 0.1255 0.58128 0.48556 0.0
C1377 C 0.09698 0.51841 0.46627 0.0
C1378 C 0.14657 0.58342 0.51922 0.0
C1379 C 0.12488 0.5 0.53508 0.0
C1380 C 0.08855 0.45223 0.47729 0.0
N1381 N 0.15103 0.42767 0.58328 0.0
C1382 C 0.13436 0.48353 0.57785 0.0
C1383 C 0.2506 0.48822 0.63518 0.0
C1384 C 0.23726 0.59616 0.64166 0.0
C1385 C 0.20495 0.42835 0.60788 0.0
C1386 C 0.18352 0.59656 0.6145 0.0
H1387 H 0.26419 0.64347 0.65783 0.0
O1388 O 0.10678 0.30369 0.58531 0.0
O1389 O 0.97254 0.23036 0.55084 0.0
O1390 O 0.90744 0.25078 0.58352 0.0
O1391 O 1.01446 0.35328 0.58459 0.0
O1392 O 0.05134 0.2258 0.52714 0.0
O1393 O 0.16719 0.3271 0.53665 0.0
O1394 O 0.80868 0.22677 0.4872 0.0
O1395 O 0.97599 0.34869 0.51936 0.0
O1396 O 0.09782 0.32463 0.49112 0.0
O1397 O 0.97628 0.26407 0.47601 0.0
O1398 O 0.89049 0.3327 0.54833 0.0
O1399 O 0.78793 0.23403 0.54135 0.0
C1400 C 0.99182 0.18721 0.54233 0.0
C1401 C 0.19993 0.67196 0.58812 0.0
C1402 C 0.18211 0.66351 0.54318 0.0
C1403 C 0.15652 0.30002 0.56803 0.0
C1404 C 0.16905 0.24151 0.57839 0.0
C1405 C 0.16366 0.22475 0.61374 0.0
C1406 C 0.19365 0.20836 0.55558 0.0
C1407 C 0.22224 0.16717 0.56843 0.0
C1408 C 0.18158 0.17609 0.62604 0.0
C1409 C 0.21305 0.14998 0.604 0.0
C1410 C 0.96255 0.30001 0.60053 0.0
C1411 C 0.94553 0.3825 0.53277 0.0
C1412 C 0.7638 0.22619 0.51013 0.0
C1413 C 0.69278 0.22112 0.50054 0.0
C1414 C 0.69114 0.25264 0.46913 0.0
C1415 C 0.62884 0.19079 0.52175 0.0
C1416 C 0.56451 0.18933 0.51031 0.0
C1417 C 0.63149 0.25598 0.45904 0.0
C1418 C 0.56945 0.22459 0.47897 0.0
C1419 C 0.04979 0.29556 0.46785 0.0
H1420 H 0.14653 0.2503 0.63222 0.0
H1421 H 0.19227 0.21664 0.52852 0.0
H1422 H 0.17738 0.16391 0.65336 0.0
H1423 H 0.23792 0.1246 0.61653 0.0
H1424 H 0.73702 0.27611 0.45218 0.0
H1425 H 0.62954 0.16991 0.54707 0.0
H1426 H 0.63282 0.28204 0.43491 0.0
H1427 H 0.52473 0.22845 0.46975 0.0
Gd1428 Gd 0.8139 0.81644 0.55266 0.0
Gd1429 Gd 0.90547 0.7261 0.52985 0.0
C1430 C 0.13794 0.80551 0.55072 0.0
C1431 C 0.19399 0.87282 0.49957 0.0
C1432 C 0.06831 0.82469 0.50848 0.0
C1433 C 0.07153 0.79283 0.53837 0.0
C1434 C 0.13269 0.87692 0.49377 0.0
C1435 C 0.19656 0.8356 0.52846 0.0
C1436 C 0.14797 0.80638 0.58616 0.0
C1437 C 0.09719 0.80648 0.60769 0.0
N1438 N 1.01656 0.77495 0.55986 0.0
C1439 C 1.03146 0.79007 0.59413 0.0
H1440 H 0.99491 0.79188 0.61172 0.0
C1441 C 1.00926 0.88254 0.48739 0.0
N1442 N 1.00656 0.82384 0.50248 0.0
C1443 C 0.07331 0.94022 0.47601 0.0
C1444 C 0.13506 0.93697 0.47888 0.0
H1445 H 0.96348 0.88717 0.48416 0.0
H1446 H 0.24733 0.84293 0.53659 0.0
H1447 H 0.7253 0.79418 0.51193 0.0
H1448 H 0.19852 0.81844 0.59668 0.0
H1449 H 0.10772 0.81747 0.63488 0.0
H1450 H 0.24206 0.90621 0.48568 0.0
H1451 H 0.78045 0.89858 0.63392 0.0
H1452 H 0.51461 0.64667 0.48338 0.0
H1453 H 0.62344 0.72534 0.45021 0.0
H1454 H 0.43329 0.5809 0.6148 0.0
H1455 H 0.07458 0.98603 0.46405 0.0
H1456 H 0.18283 0.97998 0.46814 0.0
H1457 H 0.4409 0.60546 0.54236 0.0
H1458 H 0.69305 0.87244 0.67759 0.0
N1459 N 0.70443 0.76952 0.5255 0.0
C1460 C 0.56429 0.67846 0.49647 0.0
C1461 C 0.62508 0.72582 0.47748 0.0
C1462 C 0.56724 0.67103 0.53166 0.0
C1463 C 0.65193 0.72171 0.54772 0.0
C1464 C 0.69222 0.7725 0.49045 0.0
N1465 N 0.72997 0.80024 0.60029 0.0
C1466 C 0.67073 0.7317 0.59135 0.0
C1467 C 0.67477 0.82776 0.65971 0.0
C1468 C 0.56226 0.70617 0.66044 0.0
C1469 C 0.73402 0.84743 0.62988 0.0
C1470 C 0.55918 0.66047 0.62831 0.0
H1471 H 0.51506 0.68227 0.677 0.0
O1472 O 0.85321 0.88385 0.59542 0.0
O1473 O 0.91335 0.81325 0.56066 0.0
O1474 O 0.88941 0.72426 0.58676 0.0
O1475 O 0.78821 0.72879 0.58925 0.0
O1476 O 0.92596 0.90542 0.54119 0.0
O1477 O 0.81852 0.91915 0.54989 0.0
O1478 O 0.92552 0.66097 0.49327 0.0
O1479 O 0.79425 0.70877 0.52528 0.0
O1480 O 0.83653 0.8493 0.49736 0.0
O1481 O 0.86033 0.7603 0.4801 0.0
O1482 O 0.80496 0.62934 0.54829 0.0
O1483 O 0.92241 0.63812 0.54682 0.0
C1484 C 0.95881 0.87701 0.55534 0.0
C1485 C 0.48297 0.61408 0.60226 0.0
C1486 C 0.48878 0.62152 0.55643 0.0
C1487 C 0.85174 0.93642 0.57966 0.0
C1488 C 0.91547 1.00616 0.58455 0.0
C1489 C 0.94299 1.02406 0.61795 0.0
C1490 C 0.94232 0.05801 0.55832 0.0
C1491 C 0.98398 0.13013 0.56672 0.0
C1492 C 0.99081 0.09407 0.62581 0.0
C1493 C 1.00677 0.14676 0.60115 0.0
C1494 C 0.83756 0.72292 0.60442 0.0
C1495 C 0.75769 0.64135 0.53522 0.0
C1496 C 0.93358 0.62147 0.5164 0.0
C1497 C 0.91206 0.54404 0.50843 0.0
C1498 C 0.86311 0.51013 0.48225 0.0
C1499 C 0.94049 0.50363 0.52529 0.0
C1500 C 0.92502 0.43375 0.51393 0.0
C1501 C 0.83919 0.43939 0.47454 0.0
C1502 C 0.86931 0.40267 0.48999 0.0
C1503 C 0.83772 0.8082 0.4733 0.0
H1504 H 0.92375 0.98486 0.63861 0.0
H1505 H 0.92593 0.04209 0.53242 0.0
H1506 H 1.00957 0.10827 0.65195 0.0
H1507 H 1.02967 0.19963 0.61067 0.0
H1508 H 0.84264 0.53835 0.4678 0.0
H1509 H 0.96929 0.52404 0.5484 0.0
H1510 H 0.79834 0.41322 0.45534 0.0
H1511 H 0.84953 0.34912 0.48204 0.0
loop_
_geom_bond_atom_site_label_1
_geom_bond_atom_site_label_2
_geom_bond_distance
_geom_bond_site_symmetry_2
_ccdc_geom_bond_type
Gd0 N31 2.661 1_565 S
Gd0 N37 2.601 1_565 S
Gd0 O44 2.545 . S
Gd0 O45 2.606 . S
Gd0 O47 2.429 1_565 S
Gd0 O48 2.545 . S
Gd0 O49 2.412 . S
Gd0 O51 2.362 1_565 S
Gd0 O52 2.324 . S
Gd0 C59 2.828 . S
Gd1 N10 2.661 . S
Gd1 N14 2.601 . S
Gd1 O45 2.362 1_545 S
Gd1 O46 2.324 . S
Gd1 O50 2.545 . S
Gd1 O51 2.606 . S
Gd1 O53 2.429 . S
Gd1 O54 2.545 . S
Gd1 O55 2.412 . S
Gd1 C68 2.828 . S
C2 C5 1.417 . S
C2 C7 1.431 . S
C2 C8 1.412 . S
C3 C6 1.437 . S
C3 C7 1.317 . S
C3 H22 0.929 . S
C4 C5 1.426 1_545 S
C4 C6 1.413 1_545 S
C4 N14 1.360 . S
C5 C2 1.417 . S
C5 C4 1.426 1_565 S
C5 N10 1.350 1_565 S
C6 C3 1.437 . S
C6 C4 1.413 1_565 S
C6 C16 1.384 1_565 S
C7 C2 1.431 . S
C7 C3 1.317 . S
C7 H18 0.930 . S
C8 C2 1.412 . S
C8 C9 1.355 . S
C8 H20 0.930 . S
C9 C8 1.355 . S
C9 C11 1.402 . S
C9 H21 0.930 . S
N10 Gd1 2.661 . S
N10 C5 1.350 1_545 S
N10 C11 1.307 1_545 S
C11 C9 1.402 . S
C11 N10 1.307 1_565 S
C11 H12 0.925 1_565 S
H12 C11 0.925 1_545 S
C13 N14 1.334 . S
C13 C15 1.394 . S
C13 H17 0.930 . S
N14 Gd1 2.601 . S
N14 C4 1.360 . S
N14 C13 1.334 . S
C15 C13 1.394 . S
C15 C16 1.375 . S
C15 H27 0.930 . S
C16 C6 1.384 1_545 S
C16 C15 1.375 . S
C16 H28 0.920 1_545 S
H17 C13 0.930 . S
H18 C7 0.930 . S
H19 C36 0.930 . S
H20 C8 0.930 . S
H21 C9 0.930 . S
H22 C3 0.929 . S
H23 C41 0.930 . S
H24 C32 0.930 . S
H25 C33 0.930 . S
H26 C57 0.929 1_556 S
H27 C15 0.930 . S
H28 C16 0.920 1_565 S
H29 C58 0.930 . S
H30 C39 0.923 1_565 S
N31 Gd0 2.661 1_545 S
N31 C35 1.350 . S
N31 C36 1.307 . S
C32 H24 0.930 . S
C32 C33 1.355 . S
C32 C34 1.412 . S
C33 H25 0.930 . S
C33 C32 1.355 . S
C33 C36 1.402 . S
C34 C32 1.412 . S
C34 C35 1.417 . S
C34 C58 1.431 . S
C35 N31 1.350 . S
C35 C34 1.417 . S
C35 C38 1.426 . S
C36 H19 0.930 . S
C36 N31 1.307 . S
C36 C33 1.402 . S
N37 Gd0 2.601 1_545 S
N37 C38 1.359 . S
N37 C41 1.334 1_544 S
C38 C35 1.426 . S
C38 N37 1.359 . S
C38 C42 1.413 1_554 S
C39 H30 0.923 1_545 S
C39 C40 1.374 . S
C39 C41 1.387 1_545 S
C40 C39 1.374 . S
C40 C42 1.391 . S
C40 H43 0.929 . S
C41 H23 0.930 . S
C41 N37 1.334 1_566 S
C41 C39 1.387 1_565 S
C42 C38 1.413 1_556 S
C42 C40 1.391 . S
C42 C57 1.437 1_556 S
H43 C40 0.929 . S
O44 Gd0 2.545 . S
O44 C59 1.258 . S
O45 Gd0 2.606 . S
O45 Gd1 2.362 1_565 S
O45 C56 1.284 . S
O46 Gd1 2.324 . S
O46 C66 1.254 . S
O47 Gd0 2.429 1_545 S
O47 C66 1.268 . S
O48 Gd0 2.545 . S
O48 C56 1.250 . S
O49 Gd0 2.412 . S
O49 C59 1.252 . S
O50 Gd1 2.545 . S
O50 C68 1.258 . S
O51 Gd0 2.362 1_545 S
O51 Gd1 2.606 . S
O51 C67 1.284 . S
O52 Gd0 2.324 . S
O52 C75 1.254 . S
O53 Gd1 2.429 . S
O53 C75 1.268 1_545 S
O54 Gd1 2.545 . S
O54 C67 1.250 . S
O55 Gd1 2.412 . S
O55 C68 1.252 . S
C56 O45 1.284 . S
C56 O48 1.250 . S
C57 H26 0.929 1_554 S
C57 C42 1.437 1_554 S
C57 C58 1.317 . S
C58 H29 0.930 . S
C58 C34 1.431 . S
C58 C57 1.317 . S
C59 Gd0 2.828 . S
C59 O44 1.258 . S
C59 O49 1.252 . S
C59 C60 1.497 . S
C60 C59 1.497 . S
C60 C61 1.395 . S
C60 C62 1.380 . S
C61 C60 1.395 . S
C61 C64 1.398 . S
C61 H76 0.930 1_554 S
C62 C60 1.380 . S
C62 C63 1.391 . S
C62 H77 0.930 . S
C63 C62 1.391 . S
C63 C65 1.387 . S
C64 C61 1.398 . S
C64 C65 1.380 . S
C64 H78 0.930 1_554 S
C65 C63 1.387 . S
C65 C64 1.380 . S
C65 H79 0.930 . S
C66 O46 1.254 . S
C66 O47 1.268 . S
C67 O51 1.284 . S
C67 O54 1.250 . S
C68 Gd1 2.828 . S
C68 O50 1.258 . S
C68 O55 1.252 . S
C68 C69 1.497 . S
C69 C68 1.497 . S
C69 C70 1.395 . S
C69 C71 1.380 . S
C70 C69 1.395 . S
C70 C73 1.398 . S
C70 H80 0.930 . S
C71 C69 1.380 . S
C71 C72 1.391 . S
C71 H81 0.930 . S
C72 C71 1.391 . S
C72 C74 1.387 . S
C73 C70 1.398 . S
C73 C74 1.380 . S
C73 H82 0.930 . S
C74 C72 1.387 . S
C74 C73 1.380 . S
C74 H83 0.930 . S
C75 O52 1.254 . S
C75 O53 1.268 1_565 S
H76 C61 0.930 1_556 S
H77 C62 0.930 . S
H78 C64 0.930 1_556 S
H79 C65 0.930 . S
H80 C70 0.930 . S
H81 C71 0.930 . S
H82 C73 0.930 . S
H83 C74 0.930 . S
Gd84 N115 2.661 . S
Gd84 N121 2.601 . S
Gd84 O128 2.545 . S
Gd84 O129 2.606 . S
Gd84 O131 2.429 . S
Gd84 O132 2.545 . S
Gd84 O133 2.412 . S
Gd84 O135 2.362 1_455 S
Gd84 O136 2.324 . S
Gd84 C143 2.828 . S
Gd85 N94 2.661 1_655 S
Gd85 N98 2.601 1_655 S
Gd85 O129 2.362 1_655 S
Gd85 O130 2.324 . S
Gd85 O134 2.545 . S
Gd85 O135 2.606 . S
Gd85 O137 2.429 1_655 S
Gd85 O138 2.545 . S
Gd85 O139 2.412 . S
Gd85 C152 2.828 . S
C86 C89 1.417 . S
C86 C91 1.431 . S
C86 C92 1.412 . S
C87 C90 1.437 . S
C87 C91 1.317 . S
C87 H106 0.929 . S
C88 C89 1.426 . S
C88 C90 1.413 . S
C88 N98 1.359 . S
C89 C86 1.417 . S
C89 C88 1.426 . S
C89 N94 1.350 . S
C90 C87 1.437 . S
C90 C88 1.413 . S
C90 C100 1.391 . S
C91 C86 1.431 . S
C91 C87 1.317 . S
C91 H102 0.930 . S
C92 C86 1.412 . S
C92 C93 1.355 . S
C92 H104 0.930 . S
C93 C92 1.355 . S
C93 C95 1.402 . S
C93 H105 0.930 . S
N94 Gd85 2.661 1_455 S
N94 C89 1.350 . S
N94 C95 1.307 . S
C95 C93 1.402 . S
C95 N94 1.307 . S
C95 H96 0.930 . S
H96 C95 0.930 . S
C97 N98 1.334 . S
C97 C99 1.394 . S
C97 H101 0.930 . S
N98 Gd85 2.601 1_455 S
N98 C88 1.359 . S
N98 C97 1.334 . S
C99 C97 1.394 . S
C99 C100 1.359 . S
C99 H111 0.930 . S
C100 C90 1.391 . S
C100 C99 1.359 . S
C100 H112 0.929 . S
H101 C97 0.930 . S
H102 C91 0.930 . S
H103 C120 0.930 . S
H104 C92 0.930 . S
H105 C93 0.930 . S
H106 C87 0.929 . S
H107 C125 0.930 . S
H108 C116 0.930 . S
H109 C117 0.930 . S
H110 C141 0.929 1_556 S
H111 C99 0.930 . S
H112 C100 0.929 . S
H113 C142 0.930 . S
H114 C123 0.930 . S
N115 Gd84 2.661 . S
N115 C119 1.350 . S
N115 C120 1.307 . S
C116 H108 0.930 . S
C116 C117 1.355 . S
C116 C118 1.412 . S
C117 H109 0.930 . S
C117 C116 1.355 . S
C117 C120 1.402 1_655 S
C118 C116 1.412 . S
C118 C119 1.417 1_655 S
C118 C142 1.431 . S
C119 N115 1.350 . S
C119 C118 1.417 1_455 S
C119 C122 1.426 . S
C120 H103 0.930 . S
C120 N115 1.307 . S
C120 C117 1.402 1_455 S
N121 Gd84 2.601 . S
N121 C122 1.359 . S
N121 C125 1.334 1_554 S
C122 C119 1.426 . S
C122 N121 1.359 . S
C122 C126 1.413 1_554 S
C123 H114 0.930 . S
C123 C124 1.359 . S
C123 C125 1.394 . S
C124 C123 1.359 . S
C124 C126 1.391 . S
C124 H127 0.929 . S
C125 H107 0.930 . S
C125 N121 1.334 1_556 S
C125 C123 1.394 . S
C126 C122 1.413 1_556 S
C126 C124 1.391 . S
C126 C141 1.437 1_456 S
H127 C124 0.929 . S
O128 Gd84 2.545 . S
O128 C143 1.258 . S
O129 Gd84 2.606 . S
O129 Gd85 2.362 1_455 S
O129 C140 1.284 . S
O130 Gd85 2.324 . S
O130 C150 1.250 1_655 S
O131 Gd84 2.429 . S
O131 C150 1.268 . S
O132 Gd84 2.545 . S
O132 C140 1.250 . S
O133 Gd84 2.412 . S
O133 C143 1.252 . S
O134 Gd85 2.545 . S
O134 C152 1.258 . S
O135 Gd84 2.362 1_655 S
O135 Gd85 2.606 . S
O135 C151 1.284 . S
O136 Gd84 2.324 . S
O136 C159 1.254 . S
O137 Gd85 2.429 1_455 S
O137 C159 1.268 . S
O138 Gd85 2.545 . S
O138 C151 1.250 . S
O139 Gd85 2.412 . S
O139 C152 1.252 . S
C140 O129 1.284 . S
C140 O132 1.250 . S
C141 H110 0.929 1_554 S
C141 C126 1.437 1_654 S
C141 C142 1.317 . S
C142 H113 0.930 . S
C142 C118 1.431 . S
C142 C141 1.317 . S
C143 Gd84 2.828 . S
C143 O128 1.258 . S
C143 O133 1.252 . S
C143 C144 1.497 . S
C144 C143 1.497 . S
C144 C145 1.395 . S
C144 C146 1.380 . S
C145 C144 1.395 . S
C145 C148 1.398 . S
C145 H160 0.930 1_554 S
C146 C144 1.380 . S
C146 C147 1.391 . S
C146 H161 0.930 . S
C147 C146 1.391 . S
C147 C149 1.387 . S
C148 C145 1.398 . S
C148 C149 1.380 . S
C148 H162 0.930 1_554 S
C149 C147 1.387 . S
C149 C148 1.380 . S
C149 H163 0.930 . S
C150 O130 1.250 1_455 S
C150 O131 1.268 . S
C151 O135 1.284 . S
C151 O138 1.250 . S
C152 Gd85 2.828 . S
C152 O134 1.258 . S
C152 O139 1.252 . S
C152 C153 1.497 . S
C153 C152 1.497 . S
C153 C154 1.395 . S
C153 C155 1.380 . S
C154 C153 1.395 . S
C154 C157 1.398 . S
C154 H164 0.930 . S
C155 C153 1.380 . S
C155 C156 1.391 . S
C155 H165 0.930 . S
C156 C155 1.391 . S
C156 C158 1.387 . S
C157 C154 1.398 . S
C157 C158 1.380 . S
C157 H166 0.930 . S
C158 C156 1.387 . S
C158 C157 1.380 . S
C158 H167 0.930 . S
C159 O136 1.254 . S
C159 O137 1.268 . S
H160 C145 0.930 1_556 S
H161 C146 0.930 . S
H162 C148 0.930 1_556 S
H163 C149 0.930 . S
H164 C154 0.930 . S
H165 C155 0.930 . S
H166 C157 0.930 . S
H167 C158 0.930 . S
Gd168 N199 2.661 . S
Gd168 N205 2.601 . S
Gd168 O212 2.545 . S
Gd168 O213 2.606 . S
Gd168 O215 2.429 . S
Gd168 O216 2.545 . S
Gd168 O217 2.412 . S
Gd168 O219 2.362 . S
Gd168 O220 2.324 . S
Gd168 C227 2.828 . S
Gd169 N178 2.661 . S
Gd169 N182 2.601 . S
Gd169 O213 2.362 . S
Gd169 O214 2.324 . S
Gd169 O218 2.545 . S
Gd169 O219 2.606 . S
Gd169 O221 2.429 . S
Gd169 O222 2.545 . S
Gd169 O223 2.412 . S
Gd169 C236 2.828 . S
C170 C173 1.417 . S
C170 C175 1.431 . S
C170 C176 1.412 . S
C171 C174 1.437 . S
C171 C175 1.317 . S
C171 H190 0.929 . S
C172 C173 1.426 . S
C172 C174 1.413 . S
C172 N182 1.359 . S
C173 C170 1.417 . S
C173 C172 1.426 . S
C173 N178 1.350 . S
C174 C171 1.437 . S
C174 C172 1.413 . S
C174 C184 1.391 . S
C175 C170 1.431 . S
C175 C171 1.317 . S
C175 H186 0.930 . S
C176 C170 1.412 . S
C176 C177 1.355 . S
C176 H188 0.930 . S
C177 C176 1.355 . S
C177 C179 1.402 . S
C177 H189 0.930 . S
N178 Gd169 2.661 . S
N178 C173 1.350 . S
N178 C179 1.307 . S
C179 C177 1.402 . S
C179 N178 1.307 . S
C179 H180 0.930 . S
H180 C179 0.930 . S
C181 N182 1.334 . S
C181 C183 1.394 . S
C181 H185 0.930 . S
N182 Gd169 2.601 . S
N182 C172 1.359 . S
N182 C181 1.334 . S
C183 C181 1.394 . S
C183 C184 1.359 . S
C183 H195 0.930 . S
C184 C174 1.391 . S
C184 C183 1.359 . S
C184 H196 0.929 . S
H185 C181 0.930 . S
H186 C175 0.930 . S
H187 C204 0.930 . S
H188 C176 0.930 . S
H189 C177 0.930 . S
H190 C171 0.929 . S
H191 C209 0.930 . S
H192 C200 0.930 . S
H193 C201 0.930 . S
H194 C225 0.929 1_556 S
H195 C183 0.930 . S
H196 C184 0.929 . S
H197 C226 0.930 . S
H198 C207 0.930 . S
N199 Gd168 2.661 . S
N199 C203 1.350 . S
N199 C204 1.307 . S
C200 H192 0.930 . S
C200 C201 1.355 . S
C200 C202 1.412 . S
C201 H193 0.930 . S
C201 C200 1.355 . S
C201 C204 1.402 . S
C202 C200 1.412 . S
C202 C203 1.417 . S
C202 C226 1.431 . S
C203 N199 1.350 . S
C203 C202 1.417 . S
C203 C206 1.426 . S
C204 H187 0.930 . S
C204 N199 1.307 . S
C204 C201 1.402 . S
N205 Gd168 2.601 . S
N205 C206 1.359 . S
N205 C209 1.334 1_554 S
C206 C203 1.426 . S
C206 N205 1.359 . S
C206 C210 1.413 1_554 S
C207 H198 0.930 . S
C207 C208 1.359 . S
C207 C209 1.394 . S
C208 C207 1.359 . S
C208 C210 1.391 . S
C208 H211 0.929 . S
C209 H191 0.930 . S
C209 N205 1.334 1_556 S
C209 C207 1.394 . S
C210 C206 1.413 1_556 S
C210 C208 1.391 . S
C210 C225 1.437 1_556 S
H211 C208 0.929 . S
O212 Gd168 2.545 . S
O212 C227 1.258 . S
O213 Gd168 2.606 . S
O213 Gd169 2.362 . S
O213 C224 1.284 . S
O214 Gd169 2.324 . S
O214 C234 1.254 . S
O215 Gd168 2.429 . S
O215 C234 1.268 . S
O216 Gd168 2.545 . S
O216 C224 1.250 . S
O217 Gd168 2.412 . S
O217 C227 1.252 . S
O218 Gd169 2.545 . S
O218 C236 1.258 . S
O219 Gd168 2.362 . S
O219 Gd169 2.606 . S
O219 C235 1.284 . S
O220 Gd168 2.324 . S
O220 C243 1.254 . S
O221 Gd169 2.429 . S
O221 C243 1.268 . S
O222 Gd169 2.545 . S
O222 C235 1.250 . S
O223 Gd169 2.412 . S
O223 C236 1.252 . S
C224 O213 1.284 . S
C224 O216 1.250 . S
C225 H194 0.929 1_554 S
C225 C210 1.437 1_554 S
C225 C226 1.317 . S
C226 H197 0.930 . S
C226 C202 1.431 . S
C226 C225 1.317 . S
C227 Gd168 2.828 . S
C227 O212 1.258 . S
C227 O217 1.252 . S
C227 C228 1.497 . S
C228 C227 1.497 . S
C228 C229 1.395 . S
C228 C230 1.380 . S
C229 C228 1.395 . S
C229 C232 1.398 . S
C229 H244 0.930 1_554 S
C230 C228 1.380 . S
C230 C231 1.391 . S
C230 H245 0.930 . S
C231 C230 1.391 . S
C231 C233 1.387 . S
C232 C229 1.398 . S
C232 C233 1.380 . S
C232 H246 0.930 1_554 S
C233 C231 1.387 . S
C233 C232 1.380 . S
C233 H247 0.930 . S
C234 O214 1.254 . S
C234 O215 1.268 . S
C235 O219 1.284 . S
C235 O222 1.250 . S
C236 Gd169 2.828 . S
C236 O218 1.258 . S
C236 O223 1.252 . S
C236 C237 1.497 . S
C237 C236 1.497 . S
C237 C238 1.395 . S
C237 C239 1.380 . S
C238 C237 1.395 . S
C238 C241 1.398 . S
C238 H248 0.930 . S
C239 C237 1.380 . S
C239 C240 1.391 . S
C239 H249 0.930 . S
C240 C239 1.391 . S
C240 C242 1.387 . S
C241 C238 1.398 . S
C241 C242 1.380 . S
C241 H250 0.930 . S
C242 C240 1.387 . S
C242 C241 1.380 . S
C242 H251 0.930 . S
C243 O220 1.254 . S
C243 O221 1.268 . S
H244 C229 0.930 1_556 S
H245 C230 0.930 . S
H246 C232 0.930 1_556 S
H247 C233 0.930 . S
H248 C238 0.930 . S
H249 C239 0.930 . S
H250 C241 0.930 . S
H251 C242 0.930 . S
Gd252 N283 2.661 1_655 S
Gd252 N289 2.601 1_655 S
Gd252 O296 2.545 . S
Gd252 O297 2.606 . S
Gd252 O299 2.429 1_655 S
Gd252 O300 2.545 . S
Gd252 O301 2.412 . S
Gd252 O303 2.362 1_655 S
Gd252 O304 2.324 . S
Gd252 C311 2.828 . S
Gd253 N262 2.661 . S
Gd253 N266 2.601 . S
Gd253 O297 2.362 1_455 S
Gd253 O298 2.324 . S
Gd253 O302 2.545 . S
Gd253 O303 2.606 . S
Gd253 O305 2.429 . S
Gd253 O306 2.545 . S
Gd253 O307 2.412 . S
Gd253 C320 2.828 . S
C254 C257 1.417 . S
C254 C259 1.431 . S
C254 C260 1.412 . S
C255 C258 1.437 . S
C255 C259 1.317 . S
C255 H274 0.929 . S
C256 C257 1.426 1_455 S
C256 C258 1.413 1_455 S
C256 N266 1.360 . S
C257 C254 1.417 . S
C257 C256 1.426 1_655 S
C257 N262 1.350 1_655 S
C258 C255 1.437 . S
C258 C256 1.413 1_655 S
C258 C268 1.384 1_655 S
C259 C254 1.431 . S
C259 C255 1.317 . S
C259 H270 0.930 . S
C260 C254 1.412 . S
C260 C261 1.355 . S
C260 H272 0.930 . S
C261 C260 1.355 . S
C261 C263 1.402 . S
C261 H273 0.930 . S
N262 Gd253 2.661 . S
N262 C257 1.350 1_455 S
N262 C263 1.307 1_455 S
C263 C261 1.402 . S
C263 N262 1.307 1_655 S
C263 H264 0.925 1_655 S
H264 C263 0.925 1_455 S
C265 N266 1.334 . S
C265 C267 1.394 . S
C265 H269 0.930 . S
N266 Gd253 2.601 . S
N266 C256 1.360 . S
N266 C265 1.334 . S
C267 C265 1.394 . S
C267 C268 1.375 . S
C267 H279 0.930 . S
C268 C258 1.384 1_455 S
C268 C267 1.375 . S
C268 H280 0.920 1_455 S
H269 C265 0.930 . S
H270 C259 0.930 . S
H271 C288 0.930 . S
H272 C260 0.930 . S
H273 C261 0.930 . S
H274 C255 0.929 . S
H275 C293 0.930 . S
H276 C284 0.930 . S
H277 C285 0.930 . S
H278 C309 0.929 1_554 S
H279 C267 0.930 . S
H280 C268 0.920 1_655 S
H281 C310 0.930 . S
H282 C291 0.923 1_655 S
N283 Gd252 2.661 1_455 S
N283 C287 1.350 . S
N283 C288 1.307 . S
C284 H276 0.930 . S
C284 C285 1.355 . S
C284 C286 1.412 . S
C285 H277 0.930 . S
C285 C284 1.355 . S
C285 C288 1.402 . S
C286 C284 1.412 . S
C286 C287 1.417 . S
C286 C310 1.431 . S
C287 N283 1.350 . S
C287 C286 1.417 . S
C287 C290 1.426 . S
C288 H271 0.930 . S
C288 N283 1.307 . S
C288 C285 1.402 . S
N289 Gd252 2.601 1_455 S
N289 C290 1.359 . S
N289 C293 1.334 1_456 S
C290 C287 1.426 . S
C290 N289 1.359 . S
C290 C294 1.413 1_556 S
C291 H282 0.923 1_455 S
C291 C292 1.374 . S
C291 C293 1.387 1_455 S
C292 C291 1.374 . S
C292 C294 1.391 . S
C292 H295 0.929 . S
C293 H275 0.930 . S
C293 N289 1.334 1_654 S
C293 C291 1.387 1_655 S
C294 C290 1.413 1_554 S
C294 C292 1.391 . S
C294 C309 1.437 1_554 S
H295 C292 0.929 . S
O296 Gd252 2.545 . S
O296 C311 1.258 . S
O297 Gd252 2.606 . S
O297 Gd253 2.362 1_655 S
O297 C308 1.284 . S
O298 Gd253 2.324 . S
O298 C318 1.254 . S
O299 Gd252 2.429 1_455 S
O299 C318 1.268 . S
O300 Gd252 2.545 . S
O300 C308 1.250 . S
O301 Gd252 2.412 . S
O301 C311 1.252 . S
O302 Gd253 2.545 . S
O302 C320 1.258 . S
O303 Gd252 2.362 1_455 S
O303 Gd253 2.606 . S
O303 C319 1.284 . S
O304 Gd252 2.324 . S
O304 C327 1.254 . S
O305 Gd253 2.429 . S
O305 C327 1.268 1_455 S
O306 Gd253 2.545 . S
O306 C319 1.250 . S
O307 Gd253 2.412 . S
O307 C320 1.252 . S
C308 O297 1.284 . S
C308 O300 1.250 . S
C309 H278 0.929 1_556 S
C309 C294 1.437 1_556 S
C309 C310 1.317 . S
C310 H281 0.930 . S
C310 C286 1.431 . S
C310 C309 1.317 . S
C311 Gd252 2.828 . S
C311 O296 1.258 . S
C311 O301 1.252 . S
C311 C312 1.497 . S
C312 C311 1.497 . S
C312 C313 1.395 . S
C312 C314 1.380 . S
C313 C312 1.395 . S
C313 C316 1.398 . S
C313 H328 0.930 1_556 S
C314 C312 1.380 . S
C314 C315 1.391 . S
C314 H329 0.930 . S
C315 C314 1.391 . S
C315 C317 1.387 . S
C316 C313 1.398 . S
C316 C317 1.380 . S
C316 H330 0.930 1_556 S
C317 C315 1.387 . S
C317 C316 1.380 . S
C317 H331 0.930 . S
C318 O298 1.254 . S
C318 O299 1.268 . S
C319 O303 1.284 . S
C319 O306 1.250 . S
C320 Gd253 2.828 . S
C320 O302 1.258 . S
C320 O307 1.252 . S
C320 C321 1.497 . S
C321 C320 1.497 . S
C321 C322 1.395 . S
C321 C323 1.380 . S
C322 C321 1.395 . S
C322 C325 1.398 . S
C322 H332 0.930 . S
C323 C321 1.380 . S
C323 C324 1.391 . S
C323 H333 0.930 . S
C324 C323 1.391 . S
C324 C326 1.387 . S
C325 C322 1.398 . S
C325 C326 1.380 . S
C325 H334 0.930 . S
C326 C324 1.387 . S
C326 C325 1.380 . S
C326 H335 0.930 . S
C327 O304 1.254 . S
C327 O305 1.268 1_655 S
H328 C313 0.930 1_554 S
H329 C314 0.930 . S
H330 C316 0.930 1_554 S
H331 C317 0.930 . S
H332 C322 0.930 . S
H333 C323 0.930 . S
H334 C325 0.930 . S
H335 C326 0.930 . S
Gd336 N367 2.661 . S
Gd336 N373 2.601 . S
Gd336 O380 2.545 . S
Gd336 O381 2.606 . S
Gd336 O383 2.429 . S
Gd336 O384 2.545 . S
Gd336 O385 2.412 . S
Gd336 O387 2.362 . S
Gd336 O388 2.324 . S
Gd336 C395 2.828 . S
Gd337 N346 2.661 . S
Gd337 N350 2.601 . S
Gd337 O381 2.362 . S
Gd337 O382 2.324 . S
Gd337 O386 2.545 . S
Gd337 O387 2.606 . S
Gd337 O389 2.429 . S
Gd337 O390 2.545 . S
Gd337 O391 2.412 . S
Gd337 C404 2.828 . S
C338 C341 1.417 . S
C338 C343 1.431 . S
C338 C344 1.412 . S
C339 C342 1.437 . S
C339 C343 1.317 . S
C339 H358 0.929 . S
C340 C341 1.426 . S
C340 C342 1.413 . S
C340 N350 1.359 . S
C341 C338 1.417 . S
C341 C340 1.426 . S
C341 N346 1.350 . S
C342 C339 1.437 . S
C342 C340 1.413 . S
C342 C352 1.391 . S
C343 C338 1.431 . S
C343 C339 1.317 . S
C343 H354 0.930 . S
C344 C338 1.412 . S
C344 C345 1.355 . S
C344 H356 0.930 . S
C345 C344 1.355 . S
C345 C347 1.402 . S
C345 H357 0.930 . S
N346 Gd337 2.661 . S
N346 C341 1.350 . S
N346 C347 1.307 . S
C347 C345 1.402 . S
C347 N346 1.307 . S
C347 H348 0.930 . S
H348 C347 0.930 . S
C349 N350 1.334 . S
C349 C351 1.394 . S
C349 H353 0.930 . S
N350 Gd337 2.601 . S
N350 C340 1.359 . S
N350 C349 1.334 . S
C351 C349 1.394 . S
C351 C352 1.359 . S
C351 H363 0.930 . S
C352 C342 1.391 . S
C352 C351 1.359 . S
C352 H364 0.929 . S
H353 C349 0.930 . S
H354 C343 0.930 . S
H355 C372 0.930 . S
H356 C344 0.930 . S
H357 C345 0.930 . S
H358 C339 0.929 . S
H359 C377 0.930 . S
H360 C368 0.930 . S
H361 C369 0.930 . S
H362 C393 0.929 1_554 S
H363 C351 0.930 . S
H364 C352 0.929 . S
H365 C394 0.930 . S
H366 C375 0.930 . S
N367 Gd336 2.661 . S
N367 C371 1.350 . S
N367 C372 1.307 . S
C368 H360 0.930 . S
C368 C369 1.355 . S
C368 C370 1.412 . S
C369 H361 0.930 . S
C369 C368 1.355 . S
C369 C372 1.402 . S
C370 C368 1.412 . S
C370 C371 1.417 . S
C370 C394 1.431 . S
C371 N367 1.350 . S
C371 C370 1.417 . S
C371 C374 1.426 . S
C372 H355 0.930 . S
C372 N367 1.307 . S
C372 C369 1.402 . S
N373 Gd336 2.601 . S
N373 C374 1.359 . S
N373 C377 1.334 1_556 S
C374 C371 1.426 . S
C374 N373 1.359 . S
C374 C378 1.413 1_556 S
C375 H366 0.930 . S
C375 C376 1.359 . S
C375 C377 1.394 . S
C376 C375 1.359 . S
C376 C378 1.391 . S
C376 H379 0.929 . S
C377 H359 0.930 . S
C377 N373 1.334 1_554 S
C377 C375 1.394 . S
C378 C374 1.413 1_554 S
C378 C376 1.391 . S
C378 C393 1.437 1_554 S
H379 C376 0.929 . S
O380 Gd336 2.545 . S
O380 C395 1.258 . S
O381 Gd336 2.606 . S
O381 Gd337 2.362 . S
O381 C392 1.284 . S
O382 Gd337 2.324 . S
O382 C402 1.254 . S
O383 Gd336 2.429 . S
O383 C402 1.268 . S
O384 Gd336 2.545 . S
O384 C392 1.250 . S
O385 Gd336 2.412 . S
O385 C395 1.252 . S
O386 Gd337 2.545 . S
O386 C404 1.258 . S
O387 Gd336 2.362 . S
O387 Gd337 2.606 . S
O387 C403 1.284 . S
O388 Gd336 2.324 . S
O388 C411 1.254 . S
O389 Gd337 2.429 . S
O389 C411 1.268 . S
O390 Gd337 2.545 . S
O390 C403 1.250 . S
O391 Gd337 2.412 . S
O391 C404 1.252 . S
C392 O381 1.284 . S
C392 O384 1.250 . S
C393 H362 0.929 1_556 S
C393 C378 1.437 1_556 S
C393 C394 1.317 . S
C394 H365 0.930 . S
C394 C370 1.431 . S
C394 C393 1.317 . S
C395 Gd336 2.828 . S
C395 O380 1.258 . S
C395 O385 1.252 . S
C395 C396 1.497 . S
C396 C395 1.497 . S
C396 C397 1.395 . S
C396 C398 1.380 . S
C397 C396 1.395 . S
C397 C400 1.398 . S
C397 H412 0.930 1_556 S
C398 C396 1.380 . S
C398 C399 1.391 . S
C398 H413 0.930 . S
C399 C398 1.391 . S
C399 C401 1.387 . S
C400 C397 1.398 . S
C400 C401 1.380 . S
C400 H414 0.930 1_556 S
C401 C399 1.387 . S
C401 C400 1.380 . S
C401 H415 0.930 . S
C402 O382 1.254 . S
C402 O383 1.268 . S
C403 O387 1.284 . S
C403 O390 1.250 . S
C404 Gd337 2.828 . S
C404 O386 1.258 . S
C404 O391 1.252 . S
C404 C405 1.497 . S
C405 C404 1.497 . S
C405 C406 1.395 . S
C405 C407 1.380 . S
C406 C405 1.395 . S
C406 C409 1.398 . S
C406 H416 0.930 . S
C407 C405 1.380 . S
C407 C408 1.391 . S
C407 H417 0.930 . S
C408 C407 1.391 . S
C408 C410 1.387 . S
C409 C406 1.398 . S
C409 C410 1.380 . S
C409 H418 0.930 . S
C410 C408 1.387 . S
C410 C409 1.380 . S
C410 H419 0.930 . S
C411 O388 1.254 . S
C411 O389 1.268 . S
H412 C397 0.930 1_554 S
H413 C398 0.930 . S
H414 C400 0.930 1_554 S
H415 C401 0.930 . S
H416 C406 0.930 . S
H417 C407 0.930 . S
H418 C409 0.930 . S
H419 C410 0.930 . S
Gd420 N451 2.661 . S
Gd420 N457 2.601 . S
Gd420 O464 2.545 . S
Gd420 O465 2.606 . S
Gd420 O467 2.429 . S
Gd420 O468 2.545 . S
Gd420 O469 2.412 . S
Gd420 O471 2.362 1_545 S
Gd420 O472 2.324 . S
Gd420 C479 2.828 . S
Gd421 N430 2.661 1_565 S
Gd421 N434 2.601 1_565 S
Gd421 O465 2.362 1_565 S
Gd421 O466 2.324 . S
Gd421 O470 2.545 . S
Gd421 O471 2.606 . S
Gd421 O473 2.429 1_565 S
Gd421 O474 2.545 . S
Gd421 O475 2.412 . S
Gd421 C488 2.828 . S
C422 C425 1.417 . S
C422 C427 1.431 . S
C422 C428 1.412 . S
C423 C426 1.437 . S
C423 C427 1.317 . S
C423 H442 0.929 . S
C424 C425 1.426 . S
C424 C426 1.413 . S
C424 N434 1.359 . S
C425 C422 1.417 . S
C425 C424 1.426 . S
C425 N430 1.350 . S
C426 C423 1.437 . S
C426 C424 1.413 . S
C426 C436 1.391 . S
C427 C422 1.431 . S
C427 C423 1.317 . S
C427 H438 0.930 . S
C428 C422 1.412 . S
C428 C429 1.355 . S
C428 H440 0.930 . S
C429 C428 1.355 . S
C429 C431 1.402 . S
C429 H441 0.930 . S
N430 Gd421 2.661 1_545 S
N430 C425 1.350 . S
N430 C431 1.307 . S
C431 C429 1.402 . S
C431 N430 1.307 . S
C431 H432 0.930 . S
H432 C431 0.930 . S
C433 N434 1.334 . S
C433 C435 1.394 . S
C433 H437 0.930 . S
N434 Gd421 2.601 1_545 S
N434 C424 1.359 . S
N434 C433 1.334 . S
C435 C433 1.394 . S
C435 C436 1.359 . S
C435 H447 0.930 . S
C436 C426 1.391 . S
C436 C435 1.359 . S
C436 H448 0.929 . S
H437 C433 0.930 . S
H438 C427 0.930 . S
H439 C456 0.930 . S
H440 C428 0.930 . S
H441 C429 0.930 . S
H442 C423 0.929 . S
H443 C461 0.930 . S
H444 C452 0.930 . S
H445 C453 0.930 . S
H446 C477 0.929 1_554 S
H447 C435 0.930 . S
H448 C436 0.929 . S
H449 C478 0.930 . S
H450 C459 0.930 . S
N451 Gd420 2.661 . S
N451 C455 1.350 . S
N451 C456 1.307 . S
C452 H444 0.930 . S
C452 C453 1.355 . S
C452 C454 1.412 . S
C453 H445 0.930 . S
C453 C452 1.355 . S
C453 C456 1.402 1_565 S
C454 C452 1.412 . S
C454 C455 1.417 1_565 S
C454 C478 1.431 . S
C455 N451 1.350 . S
C455 C454 1.417 1_545 S
C455 C458 1.426 . S
C456 H439 0.930 . S
C456 N451 1.307 . S
C456 C453 1.402 1_545 S
N457 Gd420 2.601 . S
N457 C458 1.359 . S
N457 C461 1.334 1_556 S
C458 C455 1.426 . S
C458 N457 1.359 . S
C458 C462 1.413 1_556 S
C459 H450 0.930 . S
C459 C460 1.359 . S
C459 C461 1.394 . S
C460 C459 1.359 . S
C460 C462 1.391 . S
C460 H463 0.929 . S
C461 H443 0.930 . S
C461 N457 1.334 1_554 S
C461 C459 1.394 . S
C462 C458 1.413 1_554 S
C462 C460 1.391 . S
C462 C477 1.437 1_544 S
H463 C460 0.929 . S
O464 Gd420 2.545 . S
O464 C479 1.258 . S
O465 Gd420 2.606 . S
O465 Gd421 2.362 1_545 S
O465 C476 1.284 . S
O466 Gd421 2.324 . S
O466 C486 1.250 1_565 S
O467 Gd420 2.429 . S
O467 C486 1.268 . S
O468 Gd420 2.545 . S
O468 C476 1.250 . S
O469 Gd420 2.412 . S
O469 C479 1.252 . S
O470 Gd421 2.545 . S
O470 C488 1.258 . S
O471 Gd420 2.362 1_565 S
O471 Gd421 2.606 . S
O471 C487 1.284 . S
O472 Gd420 2.324 . S
O472 C495 1.254 . S
O473 Gd421 2.429 1_545 S
O473 C495 1.268 . S
O474 Gd421 2.545 . S
O474 C487 1.250 . S
O475 Gd421 2.412 . S
O475 C488 1.252 . S
C476 O465 1.284 . S
C476 O468 1.250 . S
C477 H446 0.929 1_556 S
C477 C462 1.437 1_566 S
C477 C478 1.317 . S
C478 H449 0.930 . S
C478 C454 1.431 . S
C478 C477 1.317 . S
C479 Gd420 2.828 . S
C479 O464 1.258 . S
C479 O469 1.252 . S
C479 C480 1.497 . S
C480 C479 1.497 . S
C480 C481 1.395 . S
C480 C482 1.380 . S
C481 C480 1.395 . S
C481 C484 1.398 . S
C481 H496 0.930 1_556 S
C482 C480 1.380 . S
C482 C483 1.391 . S
C482 H497 0.930 . S
C483 C482 1.391 . S
C483 C485 1.387 . S
C484 C481 1.398 . S
C484 C485 1.380 . S
C484 H498 0.930 1_556 S
C485 C483 1.387 . S
C485 C484 1.380 . S
C485 H499 0.930 . S
C486 O466 1.250 1_545 S
C486 O467 1.268 . S
C487 O471 1.284 . S
C487 O474 1.250 . S
C488 Gd421 2.828 . S
C488 O470 1.258 . S
C488 O475 1.252 . S
C488 C489 1.497 . S
C489 C488 1.497 . S
C489 C490 1.395 . S
C489 C491 1.380 . S
C490 C489 1.395 . S
C490 C493 1.398 . S
C490 H500 0.930 . S
C491 C489 1.380 . S
C491 C492 1.391 . S
C491 H501 0.930 . S
C492 C491 1.391 . S
C492 C494 1.387 . S
C493 C490 1.398 . S
C493 C494 1.380 . S
C493 H502 0.930 . S
C494 C492 1.387 . S
C494 C493 1.380 . S
C494 H503 0.930 . S
C495 O472 1.254 . S
C495 O473 1.268 . S
H496 C481 0.930 1_554 S
H497 C482 0.930 . S
H498 C484 0.930 1_554 S
H499 C485 0.930 . S
H500 C490 0.930 . S
H501 C491 0.930 . S
H502 C493 0.930 . S
H503 C494 0.930 . S
Gd504 N535 2.661 . S
Gd504 N541 2.601 . S
Gd504 O548 2.545 . S
Gd504 O549 2.606 . S
Gd504 O551 2.429 . S
Gd504 O552 2.545 . S
Gd504 O553 2.412 1_455 S
Gd504 O555 2.362 . S
Gd504 O556 2.324 . S
Gd504 C563 2.828 1_455 S
Gd505 N514 2.661 . S
Gd505 N518 2.601 . S
Gd505 O549 2.362 . S
Gd505 O550 2.324 . S
Gd505 O554 2.545 . S
Gd505 O555 2.606 . S
Gd505 O557 2.429 . S
Gd505 O558 2.545 . S
Gd505 O559 2.412 . S
Gd505 C572 2.828 . S
C506 C509 1.417 . S
C506 C511 1.431 . S
C506 C512 1.412 . S
C507 C510 1.437 . S
C507 C511 1.317 . S
C507 H526 0.929 . S
C508 C509 1.426 . S
C508 C510 1.413 . S
C508 N518 1.359 . S
C509 C506 1.417 . S
C509 C508 1.426 . S
C509 N514 1.350 . S
C510 C507 1.437 . S
C510 C508 1.413 . S
C510 C520 1.391 . S
C511 C506 1.431 . S
C511 C507 1.317 . S
C511 H522 0.930 . S
C512 C506 1.412 . S
C512 C513 1.355 . S
C512 H524 0.930 . S
C513 C512 1.355 . S
C513 C515 1.402 . S
C513 H525 0.930 . S
N514 Gd505 2.661 . S
N514 C509 1.350 . S
N514 C515 1.307 . S
C515 C513 1.402 . S
C515 N514 1.307 . S
C515 H516 0.930 . S
H516 C515 0.930 . S
C517 N518 1.334 . S
C517 C519 1.394 . S
C517 H521 0.930 . S
N518 Gd505 2.601 . S
N518 C508 1.359 . S
N518 C517 1.334 . S
C519 C517 1.394 . S
C519 C520 1.359 . S
C519 H531 0.930 . S
C520 C510 1.391 . S
C520 C519 1.359 . S
C520 H532 0.929 . S
H521 C517 0.930 . S
H522 C511 0.930 . S
H523 C540 0.930 . S
H524 C512 0.930 . S
H525 C513 0.930 . S
H526 C507 0.929 . S
H527 C545 0.930 . S
H528 C536 0.930 . S
H529 C537 0.930 . S
H530 C561 0.929 . S
H531 C519 0.930 . S
H532 C520 0.929 . S
H533 C562 0.930 . S
H534 C543 0.930 . S
N535 Gd504 2.661 . S
N535 C539 1.350 1_455 S
N535 C540 1.307 . S
C536 H528 0.930 . S
C536 C537 1.355 . S
C536 C538 1.412 . S
C537 H529 0.930 . S
C537 C536 1.355 . S
C537 C540 1.402 1_655 S
C538 C536 1.412 . S
C538 C539 1.417 . S
C538 C562 1.431 . S
C539 N535 1.350 1_655 S
C539 C538 1.417 . S
C539 C542 1.424 1_655 S
C540 H523 0.930 . S
C540 N535 1.307 . S
C540 C537 1.402 1_455 S
N541 Gd504 2.601 . S
N541 C542 1.367 . S
N541 C545 1.334 . S
C542 C539 1.424 1_455 S
C542 N541 1.367 . S
C542 C546 1.408 1_455 S
C543 H534 0.930 . S
C543 C544 1.359 1_455 S
C543 C545 1.394 . S
C544 C543 1.359 1_655 S
C544 C546 1.391 . S
C544 H547 0.929 . S
C545 H527 0.930 . S
C545 N541 1.334 . S
C545 C543 1.394 . S
C546 C542 1.408 1_655 S
C546 C544 1.391 . S
C546 C561 1.437 . S
H547 C544 0.929 . S
O548 Gd504 2.545 . S
O548 C563 1.258 1_455 S
O549 Gd504 2.606 . S
O549 Gd505 2.362 . S
O549 C560 1.284 . S
O550 Gd505 2.324 . S
O550 C570 1.254 . S
O551 Gd504 2.429 . S
O551 C570 1.268 . S
O552 Gd504 2.545 . S
O552 C560 1.250 . S
O553 Gd504 2.412 1_655 S
O553 C563 1.252 . S
O554 Gd505 2.545 . S
O554 C572 1.258 . S
O555 Gd504 2.362 . S
O555 Gd505 2.606 . S
O555 C571 1.284 . S
O556 Gd504 2.324 . S
O556 C579 1.254 . S
O557 Gd505 2.429 . S
O557 C579 1.268 . S
O558 Gd505 2.545 . S
O558 C571 1.250 . S
O559 Gd505 2.412 . S
O559 C572 1.252 . S
C560 O549 1.284 . S
C560 O552 1.250 . S
C561 H530 0.929 . S
C561 C546 1.437 . S
C561 C562 1.317 . S
C562 H533 0.930 . S
C562 C538 1.431 . S
C562 C561 1.317 . S
C563 Gd504 2.828 1_655 S
C563 O548 1.258 1_655 S
C563 O553 1.252 . S
C563 C564 1.497 . S
C564 C563 1.497 . S
C564 C565 1.395 . S
C564 C566 1.380 . S
C565 C564 1.395 . S
C565 C568 1.398 . S
C565 H580 0.930 . S
C566 C564 1.380 . S
C566 C567 1.391 . S
C566 H581 0.930 . S
C567 C566 1.391 . S
C567 C569 1.387 1_545 S
C568 C565 1.398 . S
C568 C569 1.380 1_545 S
C568 H582 0.930 . S
C569 C567 1.387 1_565 S
C569 C568 1.380 1_565 S
C569 H583 0.930 . S
C570 O550 1.254 . S
C570 O551 1.268 . S
C571 O555 1.284 . S
C571 O558 1.250 . S
C572 Gd505 2.828 . S
C572 O554 1.258 . S
C572 O559 1.252 . S
C572 C573 1.497 . S
C573 C572 1.497 . S
C573 C574 1.395 . S
C573 C575 1.380 . S
C574 C573 1.395 . S
C574 C577 1.398 . S
C574 H584 0.930 . S
C575 C573 1.380 . S
C575 C576 1.391 . S
C575 H585 0.930 . S
C576 C575 1.391 . S
C576 C578 1.387 . S
C577 C574 1.398 . S
C577 C578 1.380 . S
C577 H586 0.930 . S
C578 C576 1.387 . S
C578 C577 1.380 . S
C578 H587 0.930 . S
C579 O556 1.254 . S
C579 O557 1.268 . S
H580 C565 0.930 . S
H581 C566 0.930 . S
H582 C568 0.930 . S
H583 C569 0.930 . S
H584 C574 0.930 . S
H585 C575 0.930 . S
H586 C577 0.930 . S
H587 C578 0.930 . S
Gd588 N619 2.661 . S
Gd588 N625 2.601 . S
Gd588 O632 2.545 . S
Gd588 O633 2.606 . S
Gd588 O635 2.429 . S
Gd588 O636 2.545 . S
Gd588 O637 2.412 . S
Gd588 O639 2.362 . S
Gd588 O640 2.324 . S
Gd588 C647 2.828 . S
Gd589 N598 2.661 1_565 S
Gd589 N602 2.601 . S
Gd589 O633 2.362 . S
Gd589 O634 2.324 . S
Gd589 O638 2.545 . S
Gd589 O639 2.606 . S
Gd589 O641 2.429 . S
Gd589 O642 2.545 . S
Gd589 O643 2.412 . S
Gd589 C656 2.828 . S
C590 C593 1.417 . S
C590 C595 1.431 . S
C590 C596 1.412 . S
C591 C594 1.437 . S
C591 C595 1.317 . S
C591 H610 0.929 . S
C592 C593 1.426 . S
C592 C594 1.413 . S
C592 N602 1.359 1_545 S
C593 C590 1.417 . S
C593 C592 1.426 . S
C593 N598 1.350 . S
C594 C591 1.437 . S
C594 C592 1.413 . S
C594 C604 1.391 . S
C595 C590 1.431 . S
C595 C591 1.317 . S
C595 H606 0.930 . S
C596 C590 1.412 . S
C596 C597 1.355 . S
C596 H608 0.930 . S
C597 C596 1.355 . S
C597 C599 1.402 . S
C597 H609 0.930 . S
N598 Gd589 2.661 1_545 S
N598 C593 1.350 . S
N598 C599 1.307 . S
C599 C597 1.402 . S
C599 N598 1.307 . S
C599 H600 0.930 . S
H600 C599 0.930 . S
C601 N602 1.334 . S
C601 C603 1.394 1_565 S
C601 H605 0.930 . S
N602 Gd589 2.601 . S
N602 C592 1.359 1_565 S
N602 C601 1.334 . S
C603 C601 1.394 1_545 S
C603 C604 1.359 . S
C603 H615 0.930 1_545 S
C604 C594 1.391 . S
C604 C603 1.359 . S
C604 H616 0.929 . S
H605 C601 0.930 . S
H606 C595 0.930 . S
H607 C624 0.930 . S
H608 C596 0.930 . S
H609 C597 0.930 . S
H610 C591 0.929 . S
H611 C629 0.930 . S
H612 C620 0.930 . S
H613 C621 0.930 . S
H614 C645 0.929 . S
H615 C603 0.930 1_565 S
H616 C604 0.929 . S
H617 C646 0.930 . S
H618 C627 0.930 . S
N619 Gd588 2.661 . S
N619 C623 1.350 . S
N619 C624 1.307 . S
C620 H612 0.930 . S
C620 C621 1.355 . S
C620 C622 1.412 . S
C621 H613 0.930 . S
C621 C620 1.355 . S
C621 C624 1.402 . S
C622 C620 1.412 . S
C622 C623 1.417 . S
C622 C646 1.431 . S
C623 N619 1.350 . S
C623 C622 1.417 . S
C623 C626 1.426 . S
C624 H607 0.930 . S
C624 N619 1.307 . S
C624 C621 1.402 . S
N625 Gd588 2.601 . S
N625 C626 1.359 . S
N625 C629 1.334 . S
C626 C623 1.426 . S
C626 N625 1.359 . S
C626 C630 1.413 . S
C627 H618 0.930 . S
C627 C628 1.359 . S
C627 C629 1.394 . S
C628 C627 1.359 . S
C628 C630 1.391 . S
C628 H631 0.929 . S
C629 H611 0.930 . S
C629 N625 1.334 . S
C629 C627 1.394 . S
C630 C626 1.413 . S
C630 C628 1.391 . S
C630 C645 1.437 . S
H631 C628 0.929 . S
O632 Gd588 2.545 . S
O632 C647 1.258 . S
O633 Gd588 2.606 . S
O633 Gd589 2.362 . S
O633 C644 1.284 . S
O634 Gd589 2.324 . S
O634 C654 1.254 . S
O635 Gd588 2.429 . S
O635 C654 1.268 . S
O636 Gd588 2.545 . S
O636 C644 1.250 . S
O637 Gd588 2.412 . S
O637 C647 1.252 . S
O638 Gd589 2.545 . S
O638 C656 1.258 . S
O639 Gd588 2.362 . S
O639 Gd589 2.606 . S
O639 C655 1.284 . S
O640 Gd588 2.324 . S
O640 C663 1.254 . S
O641 Gd589 2.429 . S
O641 C663 1.268 . S
O642 Gd589 2.545 . S
O642 C655 1.250 . S
O643 Gd589 2.412 . S
O643 C656 1.252 . S
C644 O633 1.284 . S
C644 O636 1.250 . S
C645 H614 0.929 . S
C645 C630 1.437 . S
C645 C646 1.317 . S
C646 H617 0.930 . S
C646 C622 1.431 . S
C646 C645 1.317 . S
C647 Gd588 2.828 . S
C647 O632 1.258 . S
C647 O637 1.252 . S
C647 C648 1.497 . S
C648 C647 1.497 . S
C648 C649 1.395 . S
C648 C650 1.380 . S
C649 C648 1.395 . S
C649 C652 1.398 1_655 S
C649 H664 0.930 . S
C650 C648 1.380 . S
C650 C651 1.391 1_655 S
C650 H665 0.930 . S
C651 C650 1.391 1_455 S
C651 C653 1.387 . S
C652 C649 1.398 1_455 S
C652 C653 1.380 . S
C652 H666 0.930 . S
C653 C651 1.387 . S
C653 C652 1.380 . S
C653 H667 0.930 . S
C654 O634 1.254 . S
C654 O635 1.268 . S
C655 O639 1.284 . S
C655 O642 1.250 . S
C656 Gd589 2.828 . S
C656 O638 1.258 . S
C656 O643 1.252 . S
C656 C657 1.497 . S
C657 C656 1.497 . S
C657 C658 1.395 . S
C657 C659 1.380 . S
C658 C657 1.395 . S
C658 C661 1.398 . S
C658 H668 0.930 . S
C659 C657 1.380 . S
C659 C660 1.391 . S
C659 H669 0.930 . S
C660 C659 1.391 . S
C660 C662 1.387 . S
C661 C658 1.398 . S
C661 C662 1.380 . S
C661 H670 0.930 . S
C662 C660 1.387 . S
C662 C661 1.380 . S
C662 H671 0.930 . S
C663 O640 1.254 . S
C663 O641 1.268 . S
H664 C649 0.930 . S
H665 C650 0.930 . S
H666 C652 0.930 . S
H667 C653 0.930 . S
H668 C658 0.930 . S
H669 C659 0.930 . S
H670 C661 0.930 . S
H671 C662 0.930 . S
Gd672 N703 2.661 1_565 S
Gd672 N709 2.601 1_565 S
Gd672 O716 2.545 1_565 S
Gd672 O717 2.606 . S
Gd672 O719 2.429 . S
Gd672 O720 2.545 . S
Gd672 O721 2.412 1_565 S
Gd672 O723 2.362 . S
Gd672 O724 2.324 . S
Gd672 C731 2.828 1_565 S
Gd673 N682 2.661 . S
Gd673 N686 2.601 . S
Gd673 O717 2.362 . S
Gd673 O718 2.324 . S
Gd673 O722 2.545 . S
Gd673 O723 2.606 . S
Gd673 O725 2.429 . S
Gd673 O726 2.545 . S
Gd673 O727 2.412 . S
Gd673 C740 2.828 . S
C674 C677 1.417 . S
C674 C679 1.431 . S
C674 C680 1.412 . S
C675 C678 1.437 . S
C675 C679 1.317 . S
C675 H694 0.929 . S
C676 C677 1.426 1_455 S
C676 C678 1.413 1_455 S
C676 N686 1.359 . S
C677 C674 1.417 . S
C677 C676 1.426 1_655 S
C677 N682 1.350 1_655 S
C678 C675 1.437 . S
C678 C676 1.413 1_655 S
C678 C688 1.391 . S
C679 C674 1.431 . S
C679 C675 1.317 . S
C679 H690 0.930 . S
C680 C674 1.412 . S
C680 C681 1.355 . S
C680 H692 0.930 . S
C681 C680 1.355 . S
C681 C683 1.402 1_655 S
C681 H693 0.930 . S
N682 Gd673 2.661 . S
N682 C677 1.350 1_455 S
N682 C683 1.307 . S
C683 C681 1.402 1_455 S
C683 N682 1.307 . S
C683 H684 0.930 . S
H684 C683 0.930 . S
C685 N686 1.334 . S
C685 C687 1.394 . S
C685 H689 0.930 . S
N686 Gd673 2.601 . S
N686 C676 1.359 . S
N686 C685 1.334 . S
C687 C685 1.394 . S
C687 C688 1.359 1_455 S
C687 H699 0.930 . S
C688 C678 1.391 . S
C688 C687 1.359 1_655 S
C688 H700 0.929 . S
H689 C685 0.930 . S
H690 C679 0.930 . S
H691 C708 0.930 . S
H692 C680 0.930 . S
H693 C681 0.930 . S
H694 C675 0.929 . S
H695 C713 0.930 1_565 S
H696 C704 0.930 . S
H697 C705 0.930 . S
H698 C729 0.929 . S
H699 C687 0.930 . S
H700 C688 0.929 . S
H701 C730 0.930 . S
H702 C711 0.930 . S
N703 Gd672 2.661 1_545 S
N703 C707 1.350 . S
N703 C708 1.307 . S
C704 H696 0.930 . S
C704 C705 1.355 . S
C704 C706 1.412 . S
C705 H697 0.930 . S
C705 C704 1.355 . S
C705 C708 1.402 . S
C706 C704 1.412 . S
C706 C707 1.417 . S
C706 C730 1.431 . S
C707 N703 1.350 . S
C707 C706 1.417 . S
C707 C710 1.426 . S
C708 H691 0.930 . S
C708 N703 1.307 . S
C708 C705 1.402 . S
N709 Gd672 2.601 1_545 S
N709 C710 1.359 . S
N709 C713 1.334 . S
C710 C707 1.426 . S
C710 N709 1.359 . S
C710 C714 1.413 . S
C711 H702 0.930 . S
C711 C712 1.359 . S
C711 C713 1.394 . S
C712 C711 1.359 . S
C712 C714 1.391 . S
C712 H715 0.929 . S
C713 H695 0.930 1_545 S
C713 N709 1.334 . S
C713 C711 1.394 . S
C714 C710 1.413 . S
C714 C712 1.391 . S
C714 C729 1.437 . S
H715 C712 0.929 . S
O716 Gd672 2.545 1_545 S
O716 C731 1.258 . S
O717 Gd672 2.606 . S
O717 Gd673 2.362 . S
O717 C728 1.284 . S
O718 Gd673 2.324 . S
O718 C738 1.254 . S
O719 Gd672 2.429 . S
O719 C738 1.268 . S
O720 Gd672 2.545 . S
O720 C728 1.250 . S
O721 Gd672 2.412 1_545 S
O721 C731 1.252 . S
O722 Gd673 2.545 . S
O722 C740 1.258 . S
O723 Gd672 2.362 . S
O723 Gd673 2.606 . S
O723 C739 1.284 . S
O724 Gd672 2.324 . S
O724 C747 1.254 . S
O725 Gd673 2.429 . S
O725 C747 1.268 . S
O726 Gd673 2.545 . S
O726 C739 1.250 . S
O727 Gd673 2.412 . S
O727 C740 1.252 . S
C728 O717 1.284 . S
C728 O720 1.250 . S
C729 H698 0.929 . S
C729 C714 1.437 . S
C729 C730 1.317 . S
C730 H701 0.930 . S
C730 C706 1.431 . S
C730 C729 1.317 . S
C731 Gd672 2.828 1_545 S
C731 O716 1.258 . S
C731 O721 1.252 . S
C731 C732 1.497 . S
C732 C731 1.497 . S
C732 C733 1.395 . S
C732 C734 1.380 . S
C733 C732 1.395 . S
C733 C736 1.398 . S
C733 H748 0.930 . S
C734 C732 1.380 . S
C734 C735 1.391 . S
C734 H749 0.930 . S
C735 C734 1.391 . S
C735 C737 1.387 . S
C736 C733 1.398 . S
C736 C737 1.380 . S
C736 H750 0.930 . S
C737 C735 1.387 . S
C737 C736 1.380 . S
C737 H751 0.930 . S
C738 O718 1.254 . S
C738 O719 1.268 . S
C739 O723 1.284 . S
C739 O726 1.250 . S
C740 Gd673 2.828 . S
C740 O722 1.258 . S
C740 O727 1.252 . S
C740 C741 1.497 . S
C741 C740 1.497 . S
C741 C742 1.395 . S
C741 C743 1.380 . S
C742 C741 1.395 . S
C742 C745 1.398 . S
C742 H752 0.930 . S
C743 C741 1.380 . S
C743 C744 1.391 . S
C743 H753 0.930 . S
C744 C743 1.391 . S
C744 C746 1.387 . S
C745 C742 1.398 . S
C745 C746 1.380 . S
C745 H754 0.930 . S
C746 C744 1.387 . S
C746 C745 1.380 . S
C746 H755 0.930 . S
C747 O724 1.254 . S
C747 O725 1.268 . S
H748 C733 0.930 . S
H749 C734 0.930 . S
H750 C736 0.930 . S
H751 C737 0.930 . S
H752 C742 0.930 . S
H753 C743 0.930 . S
H754 C745 0.930 . S
H755 C746 0.930 . S
Gd756 N787 2.661 . S
Gd756 N793 2.601 . S
Gd756 O800 2.545 . S
Gd756 O801 2.606 . S
Gd756 O803 2.429 . S
Gd756 O804 2.545 . S
Gd756 O805 2.412 . S
Gd756 O807 2.362 . S
Gd756 O808 2.324 . S
Gd756 C815 2.828 . S
Gd757 N766 2.661 . S
Gd757 N770 2.601 . S
Gd757 O801 2.362 . S
Gd757 O802 2.324 . S
Gd757 O806 2.545 1_565 S
Gd757 O807 2.606 . S
Gd757 O809 2.429 . S
Gd757 O810 2.545 . S
Gd757 O811 2.412 1_565 S
Gd757 C824 2.828 1_565 S
C758 C761 1.417 . S
C758 C763 1.431 . S
C758 C764 1.412 . S
C759 C762 1.437 . S
C759 C763 1.317 . S
C759 H778 0.929 . S
C760 C761 1.426 . S
C760 C762 1.413 . S
C760 N770 1.359 1_545 S
C761 C758 1.417 . S
C761 C760 1.426 . S
C761 N766 1.350 1_545 S
C762 C759 1.437 . S
C762 C760 1.413 . S
C762 C772 1.391 . S
C763 C758 1.431 . S
C763 C759 1.317 . S
C763 H774 0.930 . S
C764 C758 1.412 . S
C764 C765 1.355 . S
C764 H776 0.930 . S
C765 C764 1.355 . S
C765 C767 1.402 . S
C765 H777 0.930 . S
N766 Gd757 2.661 . S
N766 C761 1.350 1_565 S
N766 C767 1.307 1_565 S
C767 C765 1.402 . S
C767 N766 1.307 1_545 S
C767 H768 0.930 1_545 S
H768 C767 0.930 1_565 S
C769 N770 1.334 . S
C769 C771 1.394 1_565 S
C769 H773 0.930 . S
N770 Gd757 2.601 . S
N770 C760 1.359 1_565 S
N770 C769 1.334 . S
C771 C769 1.394 1_545 S
C771 C772 1.359 . S
C771 H783 0.930 1_545 S
C772 C762 1.391 . S
C772 C771 1.359 . S
C772 H784 0.929 . S
H773 C769 0.930 . S
H774 C763 0.930 . S
H775 C792 0.930 . S
H776 C764 0.930 . S
H777 C765 0.930 . S
H778 C759 0.929 . S
H779 C797 0.930 . S
H780 C788 0.930 . S
H781 C789 0.930 . S
H782 C813 0.929 . S
H783 C771 0.930 1_565 S
H784 C772 0.929 . S
H785 C814 0.930 . S
H786 C795 0.930 . S
N787 Gd756 2.661 . S
N787 C791 1.350 . S
N787 C792 1.307 . S
C788 H780 0.930 . S
C788 C789 1.355 . S
C788 C790 1.412 . S
C789 H781 0.930 . S
C789 C788 1.355 . S
C789 C792 1.402 . S
C790 C788 1.412 . S
C790 C791 1.417 . S
C790 C814 1.431 . S
C791 N787 1.350 . S
C791 C790 1.417 . S
C791 C794 1.426 . S
C792 H775 0.930 . S
C792 N787 1.307 . S
C792 C789 1.402 . S
N793 Gd756 2.601 . S
N793 C794 1.359 . S
N793 C797 1.334 . S
C794 C791 1.426 . S
C794 N793 1.359 . S
C794 C798 1.413 . S
C795 H786 0.930 . S
C795 C796 1.359 . S
C795 C797 1.394 . S
C796 C795 1.359 . S
C796 C798 1.391 . S
C796 H799 0.929 . S
C797 H779 0.930 . S
C797 N793 1.334 . S
C797 C795 1.394 . S
C798 C794 1.413 . S
C798 C796 1.391 . S
C798 C813 1.437 . S
H799 C796 0.929 . S
O800 Gd756 2.545 . S
O800 C815 1.258 . S
O801 Gd756 2.606 . S
O801 Gd757 2.362 . S
O801 C812 1.284 . S
O802 Gd757 2.324 . S
O802 C822 1.254 . S
O803 Gd756 2.429 . S
O803 C822 1.268 . S
O804 Gd756 2.545 . S
O804 C812 1.250 . S
O805 Gd756 2.412 . S
O805 C815 1.252 . S
O806 Gd757 2.545 1_545 S
O806 C824 1.258 . S
O807 Gd756 2.362 . S
O807 Gd757 2.606 . S
O807 C823 1.284 . S
O808 Gd756 2.324 . S
O808 C831 1.254 . S
O809 Gd757 2.429 . S
O809 C831 1.268 . S
O810 Gd757 2.545 . S
O810 C823 1.250 . S
O811 Gd757 2.412 1_545 S
O811 C824 1.252 . S
C812 O801 1.284 . S
C812 O804 1.250 . S
C813 H782 0.929 . S
C813 C798 1.437 . S
C813 C814 1.317 . S
C814 H785 0.930 . S
C814 C790 1.431 . S
C814 C813 1.317 . S
C815 Gd756 2.828 . S
C815 O800 1.258 . S
C815 O805 1.252 . S
C815 C816 1.497 . S
C816 C815 1.497 . S
C816 C817 1.395 . S
C816 C818 1.380 . S
C817 C816 1.395 . S
C817 C820 1.398 . S
C817 H832 0.930 . S
C818 C816 1.380 . S
C818 C819 1.391 . S
C818 H833 0.930 . S
C819 C818 1.391 . S
C819 C821 1.387 . S
C820 C817 1.398 . S
C820 C821 1.380 . S
C820 H834 0.930 . S
C821 C819 1.387 . S
C821 C820 1.380 . S
C821 H835 0.930 . S
C822 O802 1.254 . S
C822 O803 1.268 . S
C823 O807 1.284 . S
C823 O810 1.250 . S
C824 Gd757 2.828 1_545 S
C824 O806 1.258 . S
C824 O811 1.252 . S
C824 C825 1.497 . S
C825 C824 1.497 . S
C825 C826 1.395 . S
C825 C827 1.380 . S
C826 C825 1.395 . S
C826 C829 1.404 . S
C826 H836 0.930 . S
C827 C825 1.380 . S
C827 C828 1.391 1_655 S
C827 H837 0.930 . S
C828 C827 1.391 1_455 S
C828 C830 1.387 . S
C829 C826 1.404 . S
C829 C830 1.375 1_655 S
C829 H838 0.929 1_655 S
C830 C828 1.387 . S
C830 C829 1.375 1_455 S
C830 H839 0.930 . S
C831 O808 1.254 . S
C831 O809 1.268 . S
H832 C817 0.930 . S
H833 C818 0.930 . S
H834 C820 0.930 . S
H835 C821 0.930 . S
H836 C826 0.930 . S
H837 C827 0.930 . S
H838 C829 0.929 1_455 S
H839 C830 0.930 . S
Gd840 N871 2.661 1_565 S
Gd840 N877 2.601 . S
Gd840 O884 2.545 . S
Gd840 O885 2.606 . S
Gd840 O887 2.429 . S
Gd840 O888 2.545 . S
Gd840 O889 2.412 . S
Gd840 O891 2.362 . S
Gd840 O892 2.324 . S
Gd840 C899 2.828 . S
Gd841 N850 2.661 . S
Gd841 N854 2.601 . S
Gd841 O885 2.362 . S
Gd841 O886 2.324 . S
Gd841 O890 2.545 . S
Gd841 O891 2.606 . S
Gd841 O893 2.429 . S
Gd841 O894 2.545 . S
Gd841 O895 2.412 . S
Gd841 C908 2.828 . S
C842 C845 1.417 . S
C842 C847 1.431 1_455 S
C842 C848 1.412 1_455 S
C843 C846 1.437 1_655 S
C843 C847 1.317 . S
C843 H862 0.929 . S
C844 C845 1.426 . S
C844 C846 1.413 . S
C844 N854 1.359 . S
C845 C842 1.417 . S
C845 C844 1.426 . S
C845 N850 1.350 . S
C846 C843 1.437 1_455 S
C846 C844 1.413 . S
C846 C856 1.391 . S
C847 C842 1.431 1_655 S
C847 C843 1.317 . S
C847 H858 0.930 . S
C848 C842 1.412 1_655 S
C848 C849 1.355 1_655 S
C848 H860 0.930 . S
C849 C848 1.355 1_455 S
C849 C851 1.402 . S
C849 H861 0.930 . S
N850 Gd841 2.661 . S
N850 C845 1.350 . S
N850 C851 1.307 . S
C851 C849 1.402 . S
C851 N850 1.307 . S
C851 H852 0.930 . S
H852 C851 0.930 . S
C853 N854 1.334 . S
C853 C855 1.394 . S
C853 H857 0.930 . S
N854 Gd841 2.601 . S
N854 C844 1.359 . S
N854 C853 1.334 . S
C855 C853 1.394 . S
C855 C856 1.359 . S
C855 H867 0.930 . S
C856 C846 1.391 . S
C856 C855 1.359 . S
C856 H868 0.929 . S
H857 C853 0.930 . S
H858 C847 0.930 . S
H859 C876 0.930 . S
H860 C848 0.930 . S
H861 C849 0.930 . S
H862 C843 0.929 . S
H863 C881 0.930 . S
H864 C872 0.930 . S
H865 C873 0.930 . S
H866 C897 0.929 . S
H867 C855 0.930 . S
H868 C856 0.929 . S
H869 C898 0.930 . S
H870 C879 0.928 1_565 S
N871 Gd840 2.661 1_545 S
N871 C875 1.350 . S
N871 C876 1.307 . S
C872 H864 0.930 . S
C872 C873 1.355 . S
C872 C874 1.412 . S
C873 H865 0.930 . S
C873 C872 1.355 . S
C873 C876 1.402 . S
C874 C872 1.412 . S
C874 C875 1.417 . S
C874 C898 1.431 . S
C875 N871 1.350 . S
C875 C874 1.417 . S
C875 C878 1.426 . S
C876 H859 0.930 . S
C876 N871 1.307 . S
C876 C873 1.402 . S
N877 Gd840 2.601 . S
N877 C878 1.359 1_565 S
N877 C881 1.334 . S
C878 C875 1.426 . S
C878 N877 1.359 1_545 S
C878 C882 1.413 . S
C879 H870 0.928 1_545 S
C879 C880 1.359 . S
C879 C881 1.394 1_545 S
C880 C879 1.359 . S
C880 C882 1.391 . S
C880 H883 0.929 . S
C881 H863 0.930 . S
C881 N877 1.334 . S
C881 C879 1.394 1_565 S
C882 C878 1.413 . S
C882 C880 1.391 . S
C882 C897 1.437 . S
H883 C880 0.929 . S
O884 Gd840 2.545 . S
O884 C899 1.258 . S
O885 Gd840 2.606 . S
O885 Gd841 2.362 . S
O885 C896 1.284 . S
O886 Gd841 2.324 . S
O886 C906 1.254 . S
O887 Gd840 2.429 . S
O887 C906 1.268 . S
O888 Gd840 2.545 . S
O888 C896 1.250 . S
O889 Gd840 2.412 . S
O889 C899 1.252 . S
O890 Gd841 2.545 . S
O890 C908 1.258 . S
O891 Gd840 2.362 . S
O891 Gd841 2.606 . S
O891 C907 1.284 . S
O892 Gd840 2.324 . S
O892 C915 1.254 . S
O893 Gd841 2.429 . S
O893 C915 1.268 . S
O894 Gd841 2.545 . S
O894 C907 1.250 . S
O895 Gd841 2.412 . S
O895 C908 1.252 . S
C896 O885 1.284 . S
C896 O888 1.250 . S
C897 H866 0.929 . S
C897 C882 1.437 . S
C897 C898 1.317 . S
C898 H869 0.930 . S
C898 C874 1.431 . S
C898 C897 1.317 . S
C899 Gd840 2.828 . S
C899 O884 1.258 . S
C899 O889 1.252 . S
C899 C900 1.497 . S
C900 C899 1.497 . S
C900 C901 1.395 . S
C900 C902 1.380 . S
C901 C900 1.395 . S
C901 C904 1.398 . S
C901 H916 0.930 . S
C902 C900 1.380 . S
C902 C903 1.391 . S
C902 H917 0.930 . S
C903 C902 1.391 . S
C903 C905 1.387 . S
C904 C901 1.398 . S
C904 C905 1.380 . S
C904 H918 0.930 . S
C905 C903 1.387 . S
C905 C904 1.380 . S
C905 H919 0.930 . S
C906 O886 1.254 . S
C906 O887 1.268 . S
C907 O891 1.284 . S
C907 O894 1.250 . S
C908 Gd841 2.828 . S
C908 O890 1.258 . S
C908 O895 1.252 . S
C908 C909 1.497 1_455 S
C909 C908 1.497 1_655 S
C909 C910 1.395 . S
C909 C911 1.380 . S
C910 C909 1.395 . S
C910 C913 1.398 . S
C910 H920 0.930 . S
C911 C909 1.380 . S
C911 C912 1.391 . S
C911 H921 0.930 . S
C912 C911 1.391 . S
C912 C914 1.387 . S
C913 C910 1.398 . S
C913 C914 1.380 . S
C913 H922 0.930 . S
C914 C912 1.387 . S
C914 C913 1.380 . S
C914 H923 0.930 . S
C915 O892 1.254 . S
C915 O893 1.268 . S
H916 C901 0.930 . S
H917 C902 0.930 . S
H918 C904 0.930 . S
H919 C905 0.930 . S
H920 C910 0.930 . S
H921 C911 0.930 . S
H922 C913 0.930 . S
H923 C914 0.930 . S
Gd924 N955 2.661 . S
Gd924 N961 2.601 . S
Gd924 O968 2.545 . S
Gd924 O969 2.606 . S
Gd924 O971 2.429 . S
Gd924 O972 2.545 . S
Gd924 O973 2.412 . S
Gd924 O975 2.362 . S
Gd924 O976 2.324 . S
Gd924 C983 2.828 . S
Gd925 N934 2.661 . S
Gd925 N938 2.601 . S
Gd925 O969 2.362 . S
Gd925 O970 2.324 . S
Gd925 O974 2.545 . S
Gd925 O975 2.606 . S
Gd925 O977 2.429 . S
Gd925 O978 2.545 . S
Gd925 O979 2.412 . S
Gd925 C992 2.828 . S
C926 C929 1.417 . S
C926 C931 1.431 . S
C926 C932 1.412 . S
C927 C930 1.437 . S
C927 C931 1.317 . S
C927 H946 0.929 . S
C928 C929 1.426 . S
C928 C930 1.413 . S
C928 N938 1.359 . S
C929 C926 1.417 . S
C929 C928 1.426 . S
C929 N934 1.350 . S
C930 C927 1.437 . S
C930 C928 1.413 . S
C930 C940 1.391 . S
C931 C926 1.431 . S
C931 C927 1.317 . S
C931 H942 0.930 . S
C932 C926 1.412 . S
C932 C933 1.355 . S
C932 H944 0.930 . S
C933 C932 1.355 . S
C933 C935 1.402 . S
C933 H945 0.930 . S
N934 Gd925 2.661 . S
N934 C929 1.350 . S
N934 C935 1.307 . S
C935 C933 1.402 . S
C935 N934 1.307 . S
C935 H936 0.930 . S
H936 C935 0.930 . S
C937 N938 1.334 . S
C937 C939 1.394 . S
C937 H941 0.930 . S
N938 Gd925 2.601 . S
N938 C928 1.359 . S
N938 C937 1.334 . S
C939 C937 1.394 . S
C939 C940 1.359 . S
C939 H951 0.930 . S
C940 C930 1.391 . S
C940 C939 1.359 . S
C940 H952 0.929 . S
H941 C937 0.930 . S
H942 C931 0.930 . S
H943 C960 0.930 . S
H944 C932 0.930 . S
H945 C933 0.930 . S
H946 C927 0.929 . S
H947 C965 0.930 . S
H948 C956 0.930 . S
H949 C957 0.930 . S
H950 C981 0.929 . S
H951 C939 0.930 . S
H952 C940 0.929 . S
H953 C982 0.930 . S
H954 C963 0.930 . S
N955 Gd924 2.661 . S
N955 C959 1.350 1_455 S
N955 C960 1.307 . S
C956 H948 0.930 . S
C956 C957 1.355 . S
C956 C958 1.412 . S
C957 H949 0.930 . S
C957 C956 1.355 . S
C957 C960 1.402 1_655 S
C958 C956 1.412 . S
C958 C959 1.417 . S
C958 C982 1.431 . S
C959 N955 1.350 1_655 S
C959 C958 1.417 . S
C959 C962 1.423 1_655 S
C960 H943 0.930 . S
C960 N955 1.307 . S
C960 C957 1.402 1_455 S
N961 Gd924 2.601 . S
N961 C962 1.373 . S
N961 C965 1.334 . S
C962 C959 1.423 1_455 S
C962 N961 1.373 . S
C962 C966 1.404 1_455 S
C963 H954 0.930 . S
C963 C964 1.359 1_455 S
C963 C965 1.394 . S
C964 C963 1.359 1_655 S
C964 C966 1.391 . S
C964 H967 0.929 . S
C965 H947 0.930 . S
C965 N961 1.334 . S
C965 C963 1.394 . S
C966 C962 1.404 1_655 S
C966 C964 1.391 . S
C966 C981 1.437 . S
H967 C964 0.929 . S
O968 Gd924 2.545 . S
O968 C983 1.258 . S
O969 Gd924 2.606 . S
O969 Gd925 2.362 . S
O969 C980 1.284 . S
O970 Gd925 2.324 . S
O970 C990 1.254 . S
O971 Gd924 2.429 . S
O971 C990 1.268 . S
O972 Gd924 2.545 . S
O972 C980 1.250 . S
O973 Gd924 2.412 . S
O973 C983 1.252 . S
O974 Gd925 2.545 . S
O974 C992 1.258 . S
O975 Gd924 2.362 . S
O975 Gd925 2.606 . S
O975 C991 1.284 . S
O976 Gd924 2.324 . S
O976 C999 1.254 . S
O977 Gd925 2.429 . S
O977 C999 1.268 . S
O978 Gd925 2.545 . S
O978 C991 1.250 . S
O979 Gd925 2.412 . S
O979 C992 1.252 . S
C980 O969 1.284 . S
C980 O972 1.250 . S
C981 H950 0.929 . S
C981 C966 1.437 . S
C981 C982 1.317 . S
C982 H953 0.930 . S
C982 C958 1.431 . S
C982 C981 1.317 . S
C983 Gd924 2.828 . S
C983 O968 1.258 . S
C983 O973 1.252 . S
C983 C984 1.497 . S
C984 C983 1.497 . S
C984 C985 1.395 . S
C984 C986 1.380 . S
C985 C984 1.395 . S
C985 C988 1.398 . S
C985 H1000 0.930 . S
C986 C984 1.380 . S
C986 C987 1.391 . S
C986 H1001 0.930 . S
C987 C986 1.391 . S
C987 C989 1.387 . S
C988 C985 1.398 . S
C988 C989 1.380 . S
C988 H1002 0.930 . S
C989 C987 1.387 . S
C989 C988 1.380 . S
C989 H1003 0.930 . S
C990 O970 1.254 . S
C990 O971 1.268 . S
C991 O975 1.284 . S
C991 O978 1.250 . S
C992 Gd925 2.828 . S
C992 O974 1.258 . S
C992 O979 1.252 . S
C992 C993 1.497 . S
C993 C992 1.497 . S
C993 C994 1.395 . S
C993 C995 1.380 . S
C994 C993 1.395 . S
C994 C997 1.398 . S
C994 H1004 0.930 . S
C995 C993 1.380 . S
C995 C996 1.391 . S
C995 H1005 0.930 . S
C996 C995 1.391 . S
C996 C998 1.387 . S
C997 C994 1.398 . S
C997 C998 1.380 . S
C997 H1006 0.930 . S
C998 C996 1.387 . S
C998 C997 1.380 . S
C998 H1007 0.930 1_545 S
C999 O976 1.254 . S
C999 O977 1.268 . S
H1000 C985 0.930 . S
H1001 C986 0.930 . S
H1002 C988 0.930 . S
H1003 C989 0.930 . S
H1004 C994 0.930 . S
H1005 C995 0.930 . S
H1006 C997 0.930 . S
H1007 C998 0.930 1_565 S
Gd1008 N1039 2.661 . S
Gd1008 N1045 2.601 . S
Gd1008 O1052 2.545 . S
Gd1008 O1053 2.606 . S
Gd1008 O1055 2.429 . S
Gd1008 O1056 2.545 . S
Gd1008 O1057 2.412 . S
Gd1008 O1059 2.362 . S
Gd1008 O1060 2.324 . S
Gd1008 C1067 2.828 . S
Gd1009 N1018 2.661 . S
Gd1009 N1022 2.601 . S
Gd1009 O1053 2.362 . S
Gd1009 O1054 2.324 . S
Gd1009 O1058 2.545 1_655 S
Gd1009 O1059 2.606 . S
Gd1009 O1061 2.429 . S
Gd1009 O1062 2.545 . S
Gd1009 O1063 2.412 1_655 S
Gd1009 C1076 2.828 1_655 S
C1010 C1013 1.417 . S
C1010 C1015 1.431 . S
C1010 C1016 1.412 . S
C1011 C1014 1.437 . S
C1011 C1015 1.317 . S
C1011 H1030 0.929 . S
C1012 C1013 1.426 . S
C1012 C1014 1.413 . S
C1012 N1022 1.359 1_455 S
C1013 C1010 1.417 . S
C1013 C1012 1.426 . S
C1013 N1018 1.350 1_455 S
C1014 C1011 1.437 . S
C1014 C1012 1.413 . S
C1014 C1024 1.391 . S
C1015 C1010 1.431 . S
C1015 C1011 1.317 . S
C1015 H1026 0.930 . S
C1016 C1010 1.412 . S
C1016 C1017 1.355 . S
C1016 H1028 0.930 . S
C1017 C1016 1.355 . S
C1017 C1019 1.402 . S
C1017 H1029 0.930 . S
N1018 Gd1009 2.661 . S
N1018 C1013 1.350 1_655 S
N1018 C1019 1.307 1_655 S
C1019 C1017 1.402 . S
C1019 N1018 1.307 1_455 S
C1019 H1020 0.930 1_455 S
H1020 C1019 0.930 1_655 S
C1021 N1022 1.334 . S
C1021 C1023 1.394 1_655 S
C1021 H1025 0.930 . S
N1022 Gd1009 2.601 . S
N1022 C1012 1.359 1_655 S
N1022 C1021 1.334 . S
C1023 C1021 1.394 1_455 S
C1023 C1024 1.359 . S
C1023 H1035 0.930 1_455 S
C1024 C1014 1.391 . S
C1024 C1023 1.359 . S
C1024 H1036 0.929 . S
H1025 C1021 0.930 . S
H1026 C1015 0.930 . S
H1027 C1044 0.930 . S
H1028 C1016 0.930 . S
H1029 C1017 0.930 . S
H1030 C1011 0.929 . S
H1031 C1049 0.930 . S
H1032 C1040 0.930 . S
H1033 C1041 0.930 . S
H1034 C1065 0.929 . S
H1035 C1023 0.930 1_655 S
H1036 C1024 0.929 . S
H1037 C1066 0.930 . S
H1038 C1047 0.930 . S
N1039 Gd1008 2.661 . S
N1039 C1043 1.350 . S
N1039 C1044 1.307 . S
C1040 H1032 0.930 . S
C1040 C1041 1.355 . S
C1040 C1042 1.412 . S
C1041 H1033 0.930 . S
C1041 C1040 1.355 . S
C1041 C1044 1.402 . S
C1042 C1040 1.412 . S
C1042 C1043 1.417 . S
C1042 C1066 1.431 . S
C1043 N1039 1.350 . S
C1043 C1042 1.417 . S
C1043 C1046 1.426 . S
C1044 H1027 0.930 . S
C1044 N1039 1.307 . S
C1044 C1041 1.402 . S
N1045 Gd1008 2.601 . S
N1045 C1046 1.359 . S
N1045 C1049 1.334 . S
C1046 C1043 1.426 . S
C1046 N1045 1.359 . S
C1046 C1050 1.413 . S
C1047 H1038 0.930 . S
C1047 C1048 1.359 . S
C1047 C1049 1.394 . S
C1048 C1047 1.359 . S
C1048 C1050 1.391 . S
C1048 H1051 0.929 . S
C1049 H1031 0.930 . S
C1049 N1045 1.334 . S
C1049 C1047 1.394 . S
C1050 C1046 1.413 . S
C1050 C1048 1.391 . S
C1050 C1065 1.437 . S
H1051 C1048 0.929 . S
O1052 Gd1008 2.545 . S
O1052 C1067 1.258 . S
O1053 Gd1008 2.606 . S
O1053 Gd1009 2.362 . S
O1053 C1064 1.284 . S
O1054 Gd1009 2.324 . S
O1054 C1074 1.254 . S
O1055 Gd1008 2.429 . S
O1055 C1074 1.268 . S
O1056 Gd1008 2.545 . S
O1056 C1064 1.250 . S
O1057 Gd1008 2.412 . S
O1057 C1067 1.252 . S
O1058 Gd1009 2.545 1_455 S
O1058 C1076 1.258 . S
O1059 Gd1008 2.362 . S
O1059 Gd1009 2.606 . S
O1059 C1075 1.284 . S
O1060 Gd1008 2.324 . S
O1060 C1083 1.254 . S
O1061 Gd1009 2.429 . S
O1061 C1083 1.268 . S
O1062 Gd1009 2.545 . S
O1062 C1075 1.250 . S
O1063 Gd1009 2.412 1_455 S
O1063 C1076 1.252 . S
C1064 O1053 1.284 . S
C1064 O1056 1.250 . S
C1065 H1034 0.929 . S
C1065 C1050 1.437 . S
C1065 C1066 1.317 . S
C1066 H1037 0.930 . S
C1066 C1042 1.431 . S
C1066 C1065 1.317 . S
C1067 Gd1008 2.828 . S
C1067 O1052 1.258 . S
C1067 O1057 1.252 . S
C1067 C1068 1.497 . S
C1068 C1067 1.497 . S
C1068 C1069 1.395 . S
C1068 C1070 1.380 . S
C1069 C1068 1.395 . S
C1069 C1072 1.398 . S
C1069 H1084 0.930 . S
C1070 C1068 1.380 . S
C1070 C1071 1.391 . S
C1070 H1085 0.930 . S
C1071 C1070 1.391 . S
C1071 C1073 1.387 . S
C1072 C1069 1.398 . S
C1072 C1073 1.380 . S
C1072 H1086 0.930 . S
C1073 C1071 1.387 . S
C1073 C1072 1.380 . S
C1073 H1087 0.930 . S
C1074 O1054 1.254 . S
C1074 O1055 1.268 . S
C1075 O1059 1.284 . S
C1075 O1062 1.250 . S
C1076 Gd1009 2.828 1_455 S
C1076 O1058 1.258 . S
C1076 O1063 1.252 . S
C1076 C1077 1.497 . S
C1077 C1076 1.497 . S
C1077 C1078 1.395 . S
C1077 C1079 1.380 . S
C1078 C1077 1.395 . S
C1078 C1081 1.404 . S
C1078 H1088 0.930 . S
C1079 C1077 1.380 . S
C1079 C1080 1.391 1_565 S
C1079 H1089 0.930 . S
C1080 C1079 1.391 1_545 S
C1080 C1082 1.387 . S
C1081 C1078 1.404 . S
C1081 C1082 1.375 1_565 S
C1081 H1090 0.929 1_565 S
C1082 C1080 1.387 . S
C1082 C1081 1.375 1_545 S
C1082 H1091 0.930 . S
C1083 O1060 1.254 . S
C1083 O1061 1.268 . S
H1084 C1069 0.930 . S
H1085 C1070 0.930 . S
H1086 C1072 0.930 . S
H1087 C1073 0.930 . S
H1088 C1078 0.930 . S
H1089 C1079 0.930 . S
H1090 C1081 0.929 1_545 S
H1091 C1082 0.930 . S
Gd1092 N1123 2.661 . S
Gd1092 N1129 2.601 . S
Gd1092 O1136 2.545 . S
Gd1092 O1137 2.606 . S
Gd1092 O1139 2.429 . S
Gd1092 O1140 2.545 . S
Gd1092 O1141 2.412 . S
Gd1092 O1143 2.362 . S
Gd1092 O1144 2.324 . S
Gd1092 C1151 2.828 . S
Gd1093 N1102 2.661 . S
Gd1093 N1106 2.601 . S
Gd1093 O1137 2.362 . S
Gd1093 O1138 2.324 . S
Gd1093 O1142 2.545 . S
Gd1093 O1143 2.606 . S
Gd1093 O1145 2.429 . S
Gd1093 O1146 2.545 . S
Gd1093 O1147 2.412 . S
Gd1093 C1160 2.828 . S
C1094 C1097 1.417 . S
C1094 C1099 1.431 . S
C1094 C1100 1.412 . S
C1095 C1098 1.437 . S
C1095 C1099 1.317 . S
C1095 H1114 0.929 . S
C1096 C1097 1.426 . S
C1096 C1098 1.413 . S
C1096 N1106 1.359 . S
C1097 C1094 1.417 . S
C1097 C1096 1.426 . S
C1097 N1102 1.350 . S
C1098 C1095 1.437 . S
C1098 C1096 1.413 . S
C1098 C1108 1.391 . S
C1099 C1094 1.431 . S
C1099 C1095 1.317 . S
C1099 H1110 0.930 . S
C1100 C1094 1.412 . S
C1100 C1101 1.355 . S
C1100 H1112 0.930 . S
C1101 C1100 1.355 . S
C1101 C1103 1.402 . S
C1101 H1113 0.930 . S
N1102 Gd1093 2.661 . S
N1102 C1097 1.350 . S
N1102 C1103 1.307 . S
C1103 C1101 1.402 . S
C1103 N1102 1.307 . S
C1103 H1104 0.930 . S
H1104 C1103 0.930 . S
C1105 N1106 1.334 . S
C1105 C1107 1.394 . S
C1105 H1109 0.930 . S
N1106 Gd1093 2.601 . S
N1106 C1096 1.359 . S
N1106 C1105 1.334 . S
C1107 C1105 1.394 . S
C1107 C1108 1.359 . S
C1107 H1119 0.930 . S
C1108 C1098 1.391 . S
C1108 C1107 1.359 . S
C1108 H1120 0.929 . S
H1109 C1105 0.930 . S
H1110 C1099 0.930 . S
H1111 C1128 0.930 . S
H1112 C1100 0.930 . S
H1113 C1101 0.930 . S
H1114 C1095 0.929 . S
H1115 C1133 0.930 . S
H1116 C1124 0.930 . S
H1117 C1125 0.930 . S
H1118 C1149 0.929 . S
H1119 C1107 0.930 . S
H1120 C1108 0.929 . S
H1121 C1150 0.930 . S
H1122 C1131 0.930 . S
N1123 Gd1092 2.661 . S
N1123 C1127 1.350 1_545 S
N1123 C1128 1.307 . S
C1124 H1116 0.930 . S
C1124 C1125 1.355 . S
C1124 C1126 1.412 . S
C1125 H1117 0.930 . S
C1125 C1124 1.355 . S
C1125 C1128 1.402 1_565 S
C1126 C1124 1.412 . S
C1126 C1127 1.417 . S
C1126 C1150 1.431 . S
C1127 N1123 1.350 1_565 S
C1127 C1126 1.417 . S
C1127 C1130 1.423 1_565 S
C1128 H1111 0.930 . S
C1128 N1123 1.307 . S
C1128 C1125 1.402 1_545 S
N1129 Gd1092 2.601 . S
N1129 C1130 1.373 . S
N1129 C1133 1.334 . S
C1130 C1127 1.423 1_545 S
C1130 N1129 1.373 . S
C1130 C1134 1.404 1_545 S
C1131 H1122 0.930 . S
C1131 C1132 1.359 1_545 S
C1131 C1133 1.394 . S
C1132 C1131 1.359 1_565 S
C1132 C1134 1.391 . S
C1132 H1135 0.929 . S
C1133 H1115 0.930 . S
C1133 N1129 1.334 . S
C1133 C1131 1.394 . S
C1134 C1130 1.404 1_565 S
C1134 C1132 1.391 . S
C1134 C1149 1.437 . S
H1135 C1132 0.929 . S
O1136 Gd1092 2.545 . S
O1136 C1151 1.258 . S
O1137 Gd1092 2.606 . S
O1137 Gd1093 2.362 . S
O1137 C1148 1.284 . S
O1138 Gd1093 2.324 . S
O1138 C1158 1.254 . S
O1139 Gd1092 2.429 . S
O1139 C1158 1.268 . S
O1140 Gd1092 2.545 . S
O1140 C1148 1.250 . S
O1141 Gd1092 2.412 . S
O1141 C1151 1.252 . S
O1142 Gd1093 2.545 . S
O1142 C1160 1.258 . S
O1143 Gd1092 2.362 . S
O1143 Gd1093 2.606 . S
O1143 C1159 1.284 . S
O1144 Gd1092 2.324 . S
O1144 C1167 1.254 . S
O1145 Gd1093 2.429 . S
O1145 C1167 1.268 . S
O1146 Gd1093 2.545 . S
O1146 C1159 1.250 . S
O1147 Gd1093 2.412 . S
O1147 C1160 1.252 . S
C1148 O1137 1.284 . S
C1148 O1140 1.250 . S
C1149 H1118 0.929 . S
C1149 C1134 1.437 . S
C1149 C1150 1.317 . S
C1150 H1121 0.930 . S
C1150 C1126 1.431 . S
C1150 C1149 1.317 . S
C1151 Gd1092 2.828 . S
C1151 O1136 1.258 . S
C1151 O1141 1.252 . S
C1151 C1152 1.497 . S
C1152 C1151 1.497 . S
C1152 C1153 1.395 . S
C1152 C1154 1.380 . S
C1153 C1152 1.395 . S
C1153 C1156 1.398 . S
C1153 H1168 0.930 . S
C1154 C1152 1.380 . S
C1154 C1155 1.391 . S
C1154 H1169 0.930 . S
C1155 C1154 1.391 . S
C1155 C1157 1.387 . S
C1156 C1153 1.398 . S
C1156 C1157 1.380 . S
C1156 H1170 0.930 . S
C1157 C1155 1.387 . S
C1157 C1156 1.380 . S
C1157 H1171 0.930 . S
C1158 O1138 1.254 . S
C1158 O1139 1.268 . S
C1159 O1143 1.284 . S
C1159 O1146 1.250 . S
C1160 Gd1093 2.828 . S
C1160 O1142 1.258 . S
C1160 O1147 1.252 . S
C1160 C1161 1.497 . S
C1161 C1160 1.497 . S
C1161 C1162 1.395 . S
C1161 C1163 1.380 . S
C1162 C1161 1.395 . S
C1162 C1165 1.398 . S
C1162 H1172 0.930 . S
C1163 C1161 1.380 . S
C1163 C1164 1.391 . S
C1163 H1173 0.930 . S
C1164 C1163 1.391 . S
C1164 C1166 1.387 . S
C1165 C1162 1.398 . S
C1165 C1166 1.380 . S
C1165 H1174 0.930 . S
C1166 C1164 1.387 . S
C1166 C1165 1.380 . S
C1166 H1175 0.930 1_455 S
C1167 O1144 1.254 . S
C1167 O1145 1.268 . S
H1168 C1153 0.930 . S
H1169 C1154 0.930 . S
H1170 C1156 0.930 . S
H1171 C1157 0.930 . S
H1172 C1162 0.930 . S
H1173 C1163 0.930 . S
H1174 C1165 0.930 . S
H1175 C1166 0.930 1_655 S
Gd1176 N1207 2.661 1_655 S
Gd1176 N1213 2.601 . S
Gd1176 O1220 2.545 . S
Gd1176 O1221 2.606 . S
Gd1176 O1223 2.429 . S
Gd1176 O1224 2.545 . S
Gd1176 O1225 2.412 . S
Gd1176 O1227 2.362 . S
Gd1176 O1228 2.324 . S
Gd1176 C1235 2.828 . S
Gd1177 N1186 2.661 . S
Gd1177 N1190 2.601 . S
Gd1177 O1221 2.362 . S
Gd1177 O1222 2.324 . S
Gd1177 O1226 2.545 . S
Gd1177 O1227 2.606 . S
Gd1177 O1229 2.429 . S
Gd1177 O1230 2.545 . S
Gd1177 O1231 2.412 . S
Gd1177 C1244 2.828 . S
C1178 C1181 1.417 . S
C1178 C1183 1.431 1_545 S
C1178 C1184 1.412 1_545 S
C1179 C1182 1.437 1_565 S
C1179 C1183 1.317 . S
C1179 H1198 0.929 . S
C1180 C1181 1.426 . S
C1180 C1182 1.413 . S
C1180 N1190 1.359 . S
C1181 C1178 1.417 . S
C1181 C1180 1.426 . S
C1181 N1186 1.350 . S
C1182 C1179 1.437 1_545 S
C1182 C1180 1.413 . S
C1182 C1192 1.391 . S
C1183 C1178 1.431 1_565 S
C1183 C1179 1.317 . S
C1183 H1194 0.930 . S
C1184 C1178 1.412 1_565 S
C1184 C1185 1.355 1_565 S
C1184 H1196 0.930 . S
C1185 C1184 1.355 1_545 S
C1185 C1187 1.402 . S
C1185 H1197 0.930 . S
N1186 Gd1177 2.661 . S
N1186 C1181 1.350 . S
N1186 C1187 1.307 . S
C1187 C1185 1.402 . S
C1187 N1186 1.307 . S
C1187 H1188 0.930 . S
H1188 C1187 0.930 . S
C1189 N1190 1.334 . S
C1189 C1191 1.394 . S
C1189 H1193 0.930 . S
N1190 Gd1177 2.601 . S
N1190 C1180 1.359 . S
N1190 C1189 1.334 . S
C1191 C1189 1.394 . S
C1191 C1192 1.359 . S
C1191 H1203 0.930 . S
C1192 C1182 1.391 . S
C1192 C1191 1.359 . S
C1192 H1204 0.929 . S
H1193 C1189 0.930 . S
H1194 C1183 0.930 . S
H1195 C1212 0.930 . S
H1196 C1184 0.930 . S
H1197 C1185 0.930 . S
H1198 C1179 0.929 . S
H1199 C1217 0.930 . S
H1200 C1208 0.930 . S
H1201 C1209 0.930 . S
H1202 C1233 0.929 . S
H1203 C1191 0.930 . S
H1204 C1192 0.929 . S
H1205 C1234 0.930 . S
H1206 C1215 0.928 1_655 S
N1207 Gd1176 2.661 1_455 S
N1207 C1211 1.350 . S
N1207 C1212 1.307 . S
C1208 H1200 0.930 . S
C1208 C1209 1.355 . S
C1208 C1210 1.412 . S
C1209 H1201 0.930 . S
C1209 C1208 1.355 . S
C1209 C1212 1.402 . S
C1210 C1208 1.412 . S
C1210 C1211 1.417 . S
C1210 C1234 1.431 . S
C1211 N1207 1.350 . S
C1211 C1210 1.417 . S
C1211 C1214 1.426 . S
C1212 H1195 0.930 . S
C1212 N1207 1.307 . S
C1212 C1209 1.402 . S
N1213 Gd1176 2.601 . S
N1213 C1214 1.359 1_655 S
N1213 C1217 1.334 . S
C1214 C1211 1.426 . S
C1214 N1213 1.359 1_455 S
C1214 C1218 1.413 . S
C1215 H1206 0.928 1_455 S
C1215 C1216 1.359 . S
C1215 C1217 1.394 1_455 S
C1216 C1215 1.359 . S
C1216 C1218 1.391 . S
C1216 H1219 0.929 . S
C1217 H1199 0.930 . S
C1217 N1213 1.334 . S
C1217 C1215 1.394 1_655 S
C1218 C1214 1.413 . S
C1218 C1216 1.391 . S
C1218 C1233 1.437 . S
H1219 C1216 0.929 . S
O1220 Gd1176 2.545 . S
O1220 C1235 1.258 . S
O1221 Gd1176 2.606 . S
O1221 Gd1177 2.362 . S
O1221 C1232 1.284 . S
O1222 Gd1177 2.324 . S
O1222 C1242 1.254 . S
O1223 Gd1176 2.429 . S
O1223 C1242 1.268 . S
O1224 Gd1176 2.545 . S
O1224 C1232 1.250 . S
O1225 Gd1176 2.412 . S
O1225 C1235 1.252 . S
O1226 Gd1177 2.545 . S
O1226 C1244 1.258 . S
O1227 Gd1176 2.362 . S
O1227 Gd1177 2.606 . S
O1227 C1243 1.284 . S
O1228 Gd1176 2.324 . S
O1228 C1251 1.254 . S
O1229 Gd1177 2.429 . S
O1229 C1251 1.268 . S
O1230 Gd1177 2.545 . S
O1230 C1243 1.250 . S
O1231 Gd1177 2.412 . S
O1231 C1244 1.252 . S
C1232 O1221 1.284 . S
C1232 O1224 1.250 . S
C1233 H1202 0.929 . S
C1233 C1218 1.437 . S
C1233 C1234 1.317 . S
C1234 H1205 0.930 . S
C1234 C1210 1.431 . S
C1234 C1233 1.317 . S
C1235 Gd1176 2.828 . S
C1235 O1220 1.258 . S
C1235 O1225 1.252 . S
C1235 C1236 1.497 . S
C1236 C1235 1.497 . S
C1236 C1237 1.395 . S
C1236 C1238 1.380 . S
C1237 C1236 1.395 . S
C1237 C1240 1.398 . S
C1237 H1252 0.930 . S
C1238 C1236 1.380 . S
C1238 C1239 1.391 . S
C1238 H1253 0.930 . S
C1239 C1238 1.391 . S
C1239 C1241 1.387 . S
C1240 C1237 1.398 . S
C1240 C1241 1.380 . S
C1240 H1254 0.930 . S
C1241 C1239 1.387 . S
C1241 C1240 1.380 . S
C1241 H1255 0.930 . S
C1242 O1222 1.254 . S
C1242 O1223 1.268 . S
C1243 O1227 1.284 . S
C1243 O1230 1.250 . S
C1244 Gd1177 2.828 . S
C1244 O1226 1.258 . S
C1244 O1231 1.252 . S
C1244 C1245 1.497 1_545 S
C1245 C1244 1.497 1_565 S
C1245 C1246 1.395 . S
C1245 C1247 1.380 . S
C1246 C1245 1.395 . S
C1246 C1249 1.398 . S
C1246 H1256 0.930 . S
C1247 C1245 1.380 . S
C1247 C1248 1.391 . S
C1247 H1257 0.930 . S
C1248 C1247 1.391 . S
C1248 C1250 1.387 . S
C1249 C1246 1.398 . S
C1249 C1250 1.380 . S
C1249 H1258 0.930 . S
C1250 C1248 1.387 . S
C1250 C1249 1.380 . S
C1250 H1259 0.930 . S
C1251 O1228 1.254 . S
C1251 O1229 1.268 . S
H1252 C1237 0.930 . S
H1253 C1238 0.930 . S
H1254 C1240 0.930 . S
H1255 C1241 0.930 . S
H1256 C1246 0.930 . S
H1257 C1247 0.930 . S
H1258 C1249 0.930 . S
H1259 C1250 0.930 . S
Gd1260 N1291 2.661 . S
Gd1260 N1297 2.601 . S
Gd1260 O1304 2.545 . S
Gd1260 O1305 2.606 . S
Gd1260 O1307 2.429 . S
Gd1260 O1308 2.545 . S
Gd1260 O1309 2.412 1_545 S
Gd1260 O1311 2.362 . S
Gd1260 O1312 2.324 . S
Gd1260 C1319 2.828 1_545 S
Gd1261 N1270 2.661 . S
Gd1261 N1274 2.601 . S
Gd1261 O1305 2.362 . S
Gd1261 O1306 2.324 . S
Gd1261 O1310 2.545 . S
Gd1261 O1311 2.606 . S
Gd1261 O1313 2.429 . S
Gd1261 O1314 2.545 . S
Gd1261 O1315 2.412 . S
Gd1261 C1328 2.828 . S
C1262 C1265 1.417 . S
C1262 C1267 1.431 . S
C1262 C1268 1.412 . S
C1263 C1266 1.437 . S
C1263 C1267 1.317 . S
C1263 H1282 0.929 . S
C1264 C1265 1.426 . S
C1264 C1266 1.413 . S
C1264 N1274 1.359 . S
C1265 C1262 1.417 . S
C1265 C1264 1.426 . S
C1265 N1270 1.350 . S
C1266 C1263 1.437 . S
C1266 C1264 1.413 . S
C1266 C1276 1.391 . S
C1267 C1262 1.431 . S
C1267 C1263 1.317 . S
C1267 H1278 0.930 . S
C1268 C1262 1.412 . S
C1268 C1269 1.355 . S
C1268 H1280 0.930 . S
C1269 C1268 1.355 . S
C1269 C1271 1.402 . S
C1269 H1281 0.930 . S
N1270 Gd1261 2.661 . S
N1270 C1265 1.350 . S
N1270 C1271 1.307 . S
C1271 C1269 1.402 . S
C1271 N1270 1.307 . S
C1271 H1272 0.930 . S
H1272 C1271 0.930 . S
C1273 N1274 1.334 . S
C1273 C1275 1.394 . S
C1273 H1277 0.930 . S
N1274 Gd1261 2.601 . S
N1274 C1264 1.359 . S
N1274 C1273 1.334 . S
C1275 C1273 1.394 . S
C1275 C1276 1.359 . S
C1275 H1287 0.930 . S
C1276 C1266 1.391 . S
C1276 C1275 1.359 . S
C1276 H1288 0.929 . S
H1277 C1273 0.930 . S
H1278 C1267 0.930 . S
H1279 C1296 0.930 . S
H1280 C1268 0.930 . S
H1281 C1269 0.930 . S
H1282 C1263 0.929 . S
H1283 C1301 0.930 . S
H1284 C1292 0.930 . S
H1285 C1293 0.930 . S
H1286 C1317 0.929 . S
H1287 C1275 0.930 . S
H1288 C1276 0.929 . S
H1289 C1318 0.930 . S
H1290 C1299 0.930 . S
N1291 Gd1260 2.661 . S
N1291 C1295 1.350 1_545 S
N1291 C1296 1.307 . S
C1292 H1284 0.930 . S
C1292 C1293 1.355 . S
C1292 C1294 1.412 . S
C1293 H1285 0.930 . S
C1293 C1292 1.355 . S
C1293 C1296 1.402 1_565 S
C1294 C1292 1.412 . S
C1294 C1295 1.417 . S
C1294 C1318 1.431 . S
C1295 N1291 1.350 1_565 S
C1295 C1294 1.417 . S
C1295 C1298 1.424 1_565 S
C1296 H1279 0.930 . S
C1296 N1291 1.307 . S
C1296 C1293 1.402 1_545 S
N1297 Gd1260 2.601 . S
N1297 C1298 1.367 . S
N1297 C1301 1.334 . S
C1298 C1295 1.424 1_545 S
C1298 N1297 1.367 . S
C1298 C1302 1.408 1_545 S
C1299 H1290 0.930 . S
C1299 C1300 1.359 1_545 S
C1299 C1301 1.394 . S
C1300 C1299 1.359 1_565 S
C1300 C1302 1.391 . S
C1300 H1303 0.929 . S
C1301 H1283 0.930 . S
C1301 N1297 1.334 . S
C1301 C1299 1.394 . S
C1302 C1298 1.408 1_565 S
C1302 C1300 1.391 . S
C1302 C1317 1.437 . S
H1303 C1300 0.929 . S
O1304 Gd1260 2.545 . S
O1304 C1319 1.258 1_545 S
O1305 Gd1260 2.606 . S
O1305 Gd1261 2.362 . S
O1305 C1316 1.284 . S
O1306 Gd1261 2.324 . S
O1306 C1326 1.254 . S
O1307 Gd1260 2.429 . S
O1307 C1326 1.268 . S
O1308 Gd1260 2.545 . S
O1308 C1316 1.250 . S
O1309 Gd1260 2.412 1_565 S
O1309 C1319 1.252 . S
O1310 Gd1261 2.545 . S
O1310 C1328 1.258 . S
O1311 Gd1260 2.362 . S
O1311 Gd1261 2.606 . S
O1311 C1327 1.284 . S
O1312 Gd1260 2.324 . S
O1312 C1335 1.254 . S
O1313 Gd1261 2.429 . S
O1313 C1335 1.268 . S
O1314 Gd1261 2.545 . S
O1314 C1327 1.250 . S
O1315 Gd1261 2.412 . S
O1315 C1328 1.252 . S
C1316 O1305 1.284 . S
C1316 O1308 1.250 . S
C1317 H1286 0.929 . S
C1317 C1302 1.437 . S
C1317 C1318 1.317 . S
C1318 H1289 0.930 . S
C1318 C1294 1.431 . S
C1318 C1317 1.317 . S
C1319 Gd1260 2.828 1_565 S
C1319 O1304 1.258 1_565 S
C1319 O1309 1.252 . S
C1319 C1320 1.497 . S
C1320 C1319 1.497 . S
C1320 C1321 1.395 . S
C1320 C1322 1.380 . S
C1321 C1320 1.395 . S
C1321 C1324 1.398 . S
C1321 H1336 0.930 . S
C1322 C1320 1.380 . S
C1322 C1323 1.391 . S
C1322 H1337 0.930 . S
C1323 C1322 1.391 . S
C1323 C1325 1.387 1_455 S
C1324 C1321 1.398 . S
C1324 C1325 1.380 1_455 S
C1324 H1338 0.930 . S
C1325 C1323 1.387 1_655 S
C1325 C1324 1.380 1_655 S
C1325 H1339 0.930 . S
C1326 O1306 1.254 . S
C1326 O1307 1.268 . S
C1327 O1311 1.284 . S
C1327 O1314 1.250 . S
C1328 Gd1261 2.828 . S
C1328 O1310 1.258 . S
C1328 O1315 1.252 . S
C1328 C1329 1.497 . S
C1329 C1328 1.497 . S
C1329 C1330 1.395 . S
C1329 C1331 1.380 . S
C1330 C1329 1.395 . S
C1330 C1333 1.398 . S
C1330 H1340 0.930 . S
C1331 C1329 1.380 . S
C1331 C1332 1.391 . S
C1331 H1341 0.930 . S
C1332 C1331 1.391 . S
C1332 C1334 1.387 . S
C1333 C1330 1.398 . S
C1333 C1334 1.380 . S
C1333 H1342 0.930 . S
C1334 C1332 1.387 . S
C1334 C1333 1.380 . S
C1334 H1343 0.930 . S
C1335 O1312 1.254 . S
C1335 O1313 1.268 . S
H1336 C1321 0.930 . S
H1337 C1322 0.930 . S
H1338 C1324 0.930 . S
H1339 C1325 0.930 . S
H1340 C1330 0.930 . S
H1341 C1331 0.930 . S
H1342 C1333 0.930 . S
H1343 C1334 0.930 . S
Gd1344 N1375 2.661 1_655 S
Gd1344 N1381 2.601 1_655 S
Gd1344 O1388 2.545 1_655 S
Gd1344 O1389 2.606 . S
Gd1344 O1391 2.429 . S
Gd1344 O1392 2.545 . S
Gd1344 O1393 2.412 1_655 S
Gd1344 O1395 2.362 . S
Gd1344 O1396 2.324 . S
Gd1344 C1403 2.828 1_655 S
Gd1345 N1354 2.661 . S
Gd1345 N1358 2.601 . S
Gd1345 O1389 2.362 . S
Gd1345 O1390 2.324 . S
Gd1345 O1394 2.545 . S
Gd1345 O1395 2.606 . S
Gd1345 O1397 2.429 . S
Gd1345 O1398 2.545 . S
Gd1345 O1399 2.412 . S
Gd1345 C1412 2.828 . S
C1346 C1349 1.417 . S
C1346 C1351 1.431 . S
C1346 C1352 1.412 . S
C1347 C1350 1.437 . S
C1347 C1351 1.317 . S
C1347 H1366 0.929 . S
C1348 C1349 1.426 1_545 S
C1348 C1350 1.413 1_545 S
C1348 N1358 1.359 . S
C1349 C1346 1.417 . S
C1349 C1348 1.426 1_565 S
C1349 N1354 1.350 1_565 S
C1350 C1347 1.437 . S
C1350 C1348 1.413 1_565 S
C1350 C1360 1.391 . S
C1351 C1346 1.431 . S
C1351 C1347 1.317 . S
C1351 H1362 0.930 . S
C1352 C1346 1.412 . S
C1352 C1353 1.355 . S
C1352 H1364 0.930 . S
C1353 C1352 1.355 . S
C1353 C1355 1.402 1_565 S
C1353 H1365 0.930 . S
N1354 Gd1345 2.661 . S
N1354 C1349 1.350 1_545 S
N1354 C1355 1.307 . S
C1355 C1353 1.402 1_545 S
C1355 N1354 1.307 . S
C1355 H1356 0.930 . S
H1356 C1355 0.930 . S
C1357 N1358 1.334 . S
C1357 C1359 1.394 . S
C1357 H1361 0.930 . S
N1358 Gd1345 2.601 . S
N1358 C1348 1.359 . S
N1358 C1357 1.334 . S
C1359 C1357 1.394 . S
C1359 C1360 1.359 1_545 S
C1359 H1371 0.930 . S
C1360 C1350 1.391 . S
C1360 C1359 1.359 1_565 S
C1360 H1372 0.929 . S
H1361 C1357 0.930 . S
H1362 C1351 0.930 . S
H1363 C1380 0.930 . S
H1364 C1352 0.930 . S
H1365 C1353 0.930 . S
H1366 C1347 0.929 . S
H1367 C1385 0.930 1_655 S
H1368 C1376 0.930 . S
H1369 C1377 0.930 . S
H1370 C1401 0.929 . S
H1371 C1359 0.930 . S
H1372 C1360 0.929 . S
H1373 C1402 0.930 . S
H1374 C1383 0.930 . S
N1375 Gd1344 2.661 1_455 S
N1375 C1379 1.350 . S
N1375 C1380 1.307 . S
C1376 H1368 0.930 . S
C1376 C1377 1.355 . S
C1376 C1378 1.412 . S
C1377 H1369 0.930 . S
C1377 C1376 1.355 . S
C1377 C1380 1.402 . S
C1378 C1376 1.412 . S
C1378 C1379 1.417 . S
C1378 C1402 1.431 . S
C1379 N1375 1.350 . S
C1379 C1378 1.417 . S
C1379 C1382 1.426 . S
C1380 H1363 0.930 . S
C1380 N1375 1.307 . S
C1380 C1377 1.402 . S
N1381 Gd1344 2.601 1_455 S
N1381 C1382 1.359 . S
N1381 C1385 1.334 . S
C1382 C1379 1.426 . S
C1382 N1381 1.359 . S
C1382 C1386 1.413 . S
C1383 H1374 0.930 . S
C1383 C1384 1.359 . S
C1383 C1385 1.394 . S
C1384 C1383 1.359 . S
C1384 C1386 1.391 . S
C1384 H1387 0.929 . S
C1385 H1367 0.930 1_455 S
C1385 N1381 1.334 . S
C1385 C1383 1.394 . S
C1386 C1382 1.413 . S
C1386 C1384 1.391 . S
C1386 C1401 1.437 . S
H1387 C1384 0.929 . S
O1388 Gd1344 2.545 1_455 S
O1388 C1403 1.258 . S
O1389 Gd1344 2.606 . S
O1389 Gd1345 2.362 . S
O1389 C1400 1.284 . S
O1390 Gd1345 2.324 . S
O1390 C1410 1.254 . S
O1391 Gd1344 2.429 . S
O1391 C1410 1.268 . S
O1392 Gd1344 2.545 . S
O1392 C1400 1.250 . S
O1393 Gd1344 2.412 1_455 S
O1393 C1403 1.252 . S
O1394 Gd1345 2.545 . S
O1394 C1412 1.258 . S
O1395 Gd1344 2.362 . S
O1395 Gd1345 2.606 . S
O1395 C1411 1.284 . S
O1396 Gd1344 2.324 . S
O1396 C1419 1.254 . S
O1397 Gd1345 2.429 . S
O1397 C1419 1.268 . S
O1398 Gd1345 2.545 . S
O1398 C1411 1.250 . S
O1399 Gd1345 2.412 . S
O1399 C1412 1.252 . S
C1400 O1389 1.284 . S
C1400 O1392 1.250 . S
C1401 H1370 0.929 . S
C1401 C1386 1.437 . S
C1401 C1402 1.317 . S
C1402 H1373 0.930 . S
C1402 C1378 1.431 . S
C1402 C1401 1.317 . S
C1403 Gd1344 2.828 1_455 S
C1403 O1388 1.258 . S
C1403 O1393 1.252 . S
C1403 C1404 1.497 . S
C1404 C1403 1.497 . S
C1404 C1405 1.395 . S
C1404 C1406 1.380 . S
C1405 C1404 1.395 . S
C1405 C1408 1.398 . S
C1405 H1420 0.930 . S
C1406 C1404 1.380 . S
C1406 C1407 1.391 . S
C1406 H1421 0.930 . S
C1407 C1406 1.391 . S
C1407 C1409 1.387 . S
C1408 C1405 1.398 . S
C1408 C1409 1.380 . S
C1408 H1422 0.930 . S
C1409 C1407 1.387 . S
C1409 C1408 1.380 . S
C1409 H1423 0.930 . S
C1410 O1390 1.254 . S
C1410 O1391 1.268 . S
C1411 O1395 1.284 . S
C1411 O1398 1.250 . S
C1412 Gd1345 2.828 . S
C1412 O1394 1.258 . S
C1412 O1399 1.252 . S
C1412 C1413 1.497 . S
C1413 C1412 1.497 . S
C1413 C1414 1.395 . S
C1413 C1415 1.380 . S
C1414 C1413 1.395 . S
C1414 C1417 1.398 . S
C1414 H1424 0.930 . S
C1415 C1413 1.380 . S
C1415 C1416 1.391 . S
C1415 H1425 0.930 . S
C1416 C1415 1.391 . S
C1416 C1418 1.387 . S
C1417 C1414 1.398 . S
C1417 C1418 1.380 . S
C1417 H1426 0.930 . S
C1418 C1416 1.387 . S
C1418 C1417 1.380 . S
C1418 H1427 0.930 . S
C1419 O1396 1.254 . S
C1419 O1397 1.268 . S
H1420 C1405 0.930 . S
H1421 C1406 0.930 . S
H1422 C1408 0.930 . S
H1423 C1409 0.930 . S
H1424 C1414 0.930 . S
H1425 C1415 0.930 . S
H1426 C1417 0.930 . S
H1427 C1418 0.930 . S
Gd1428 N1459 2.661 . S
Gd1428 N1465 2.601 . S
Gd1428 O1472 2.545 . S
Gd1428 O1473 2.606 . S
Gd1428 O1475 2.429 . S
Gd1428 O1476 2.545 . S
Gd1428 O1477 2.412 . S
Gd1428 O1479 2.362 . S
Gd1428 O1480 2.324 . S
Gd1428 C1487 2.828 . S
Gd1429 N1438 2.661 1_655 S
Gd1429 N1442 2.601 . S
Gd1429 O1473 2.362 . S
Gd1429 O1474 2.324 . S
Gd1429 O1478 2.545 . S
Gd1429 O1479 2.606 . S
Gd1429 O1481 2.429 . S
Gd1429 O1482 2.545 . S
Gd1429 O1483 2.412 . S
Gd1429 C1496 2.828 . S
C1430 C1433 1.417 . S
C1430 C1435 1.431 . S
C1430 C1436 1.412 . S
C1431 C1434 1.437 . S
C1431 C1435 1.317 . S
C1431 H1450 0.929 . S
C1432 C1433 1.426 . S
C1432 C1434 1.413 . S
C1432 N1442 1.359 1_455 S
C1433 C1430 1.417 . S
C1433 C1432 1.426 . S
C1433 N1438 1.350 . S
C1434 C1431 1.437 . S
C1434 C1432 1.413 . S
C1434 C1444 1.391 . S
C1435 C1430 1.431 . S
C1435 C1431 1.317 . S
C1435 H1446 0.930 . S
C1436 C1430 1.412 . S
C1436 C1437 1.355 . S
C1436 H1448 0.930 . S
C1437 C1436 1.355 . S
C1437 C1439 1.402 . S
C1437 H1449 0.930 . S
N1438 Gd1429 2.661 1_455 S
N1438 C1433 1.350 . S
N1438 C1439 1.307 . S
C1439 C1437 1.402 . S
C1439 N1438 1.307 . S
C1439 H1440 0.930 . S
H1440 C1439 0.930 . S
C1441 N1442 1.334 . S
C1441 C1443 1.394 1_655 S
C1441 H1445 0.930 . S
N1442 Gd1429 2.601 . S
N1442 C1432 1.359 1_655 S
N1442 C1441 1.334 . S
C1443 C1441 1.394 1_455 S
C1443 C1444 1.359 . S
C1443 H1455 0.930 1_455 S
C1444 C1434 1.391 . S
C1444 C1443 1.359 . S
C1444 H1456 0.929 . S
H1445 C1441 0.930 . S
H1446 C1435 0.930 . S
H1447 C1464 0.930 . S
H1448 C1436 0.930 . S
H1449 C1437 0.930 . S
H1450 C1431 0.929 . S
H1451 C1469 0.930 . S
H1452 C1460 0.930 . S
H1453 C1461 0.930 . S
H1454 C1485 0.929 . S
H1455 C1443 0.930 1_655 S
H1456 C1444 0.929 . S
H1457 C1486 0.930 . S
H1458 C1467 0.930 . S
N1459 Gd1428 2.661 . S
N1459 C1463 1.350 . S
N1459 C1464 1.307 . S
C1460 H1452 0.930 . S
C1460 C1461 1.355 . S
C1460 C1462 1.412 . S
C1461 H1453 0.930 . S
C1461 C1460 1.355 . S
C1461 C1464 1.402 . S
C1462 C1460 1.412 . S
C1462 C1463 1.417 . S
C1462 C1486 1.431 . S
C1463 N1459 1.350 . S
C1463 C1462 1.417 . S
C1463 C1466 1.426 . S
C1464 H1447 0.930 . S
C1464 N1459 1.307 . S
C1464 C1461 1.402 . S
N1465 Gd1428 2.601 . S
N1465 C1466 1.359 . S
N1465 C1469 1.334 . S
C1466 C1463 1.426 . S
C1466 N1465 1.359 . S
C1466 C1470 1.413 . S
C1467 H1458 0.930 . S
C1467 C1468 1.359 . S
C1467 C1469 1.394 . S
C1468 C1467 1.359 . S
C1468 C1470 1.391 . S
C1468 H1471 0.929 . S
C1469 H1451 0.930 . S
C1469 N1465 1.334 . S
C1469 C1467 1.394 . S
C1470 C1466 1.413 . S
C1470 C1468 1.391 . S
C1470 C1485 1.437 . S
H1471 C1468 0.929 . S
O1472 Gd1428 2.545 . S
O1472 C1487 1.258 . S
O1473 Gd1428 2.606 . S
O1473 Gd1429 2.362 . S
O1473 C1484 1.284 . S
O1474 Gd1429 2.324 . S
O1474 C1494 1.254 . S
O1475 Gd1428 2.429 . S
O1475 C1494 1.268 . S
O1476 Gd1428 2.545 . S
O1476 C1484 1.250 . S
O1477 Gd1428 2.412 . S
O1477 C1487 1.252 . S
O1478 Gd1429 2.545 . S
O1478 C1496 1.258 . S
O1479 Gd1428 2.362 . S
O1479 Gd1429 2.606 . S
O1479 C1495 1.284 . S
O1480 Gd1428 2.324 . S
O1480 C1503 1.254 . S
O1481 Gd1429 2.429 . S
O1481 C1503 1.268 . S
O1482 Gd1429 2.545 . S
O1482 C1495 1.250 . S
O1483 Gd1429 2.412 . S
O1483 C1496 1.252 . S
C1484 O1473 1.284 . S
C1484 O1476 1.250 . S
C1485 H1454 0.929 . S
C1485 C1470 1.437 . S
C1485 C1486 1.317 . S
C1486 H1457 0.930 . S
C1486 C1462 1.431 . S
C1486 C1485 1.317 . S
C1487 Gd1428 2.828 . S
C1487 O1472 1.258 . S
C1487 O1477 1.252 . S
C1487 C1488 1.497 . S
C1488 C1487 1.497 . S
C1488 C1489 1.395 . S
C1488 C1490 1.380 . S
C1489 C1488 1.395 . S
C1489 C1492 1.398 1_565 S
C1489 H1504 0.930 . S
C1490 C1488 1.380 . S
C1490 C1491 1.391 1_565 S
C1490 H1505 0.930 . S
C1491 C1490 1.391 1_545 S
C1491 C1493 1.387 . S
C1492 C1489 1.398 1_545 S
C1492 C1493 1.380 . S
C1492 H1506 0.930 . S
C1493 C1491 1.387 . S
C1493 C1492 1.380 . S
C1493 H1507 0.930 . S
C1494 O1474 1.254 . S
C1494 O1475 1.268 . S
C1495 O1479 1.284 . S
C1495 O1482 1.250 . S
C1496 Gd1429 2.828 . S
C1496 O1478 1.258 . S
C1496 O1483 1.252 . S
C1496 C1497 1.497 . S
C1497 C1496 1.497 . S
C1497 C1498 1.395 . S
C1497 C1499 1.380 . S
C1498 C1497 1.395 . S
C1498 C1501 1.398 . S
C1498 H1508 0.930 . S
C1499 C1497 1.380 . S
C1499 C1500 1.391 . S
C1499 H1509 0.930 . S
C1500 C1499 1.391 . S
C1500 C1502 1.387 . S
C1501 C1498 1.398 . S
C1501 C1502 1.380 . S
C1501 H1510 0.930 . S
C1502 C1500 1.387 . S
C1502 C1501 1.380 . S
C1502 H1511 0.930 . S
C1503 O1480 1.254 . S
C1503 O1481 1.268 . S
H1504 C1489 0.930 . S
H1505 C1490 0.930 . S
H1506 C1492 0.930 . S
H1507 C1493 0.930 . S
H1508 C1498 0.930 . S
H1509 C1499 0.930 . S
H1510 C1501 0.930 . S
H1511 C1502 0.930 . S
C56 C231 1.654 . S
C63 C140 1.654 . S
C147 C224 1.654 . S
C308 C399 1.654 . S
C483 C392 1.654 . S
C476 C315 1.654 . S
C735 C560 1.654 . S
C567 C644 1.654 1_545 S
C728 C651 1.654 . S
C903 C812 1.654 . S
C896 C987 1.654 . S
C819 C980 1.654 . S
C1064 C1239 1.654 . S
C1071 C1148 1.654 . S
C1155 C1232 1.654 . S
C1407 C1316 1.654 . S
C1491 C1400 1.654 . S
C1323 C1484 1.654 1_455 S
C66 C486 2.243 1_554 S
C318 C150 2.243 1_556 S
C402 C234 2.243 1_556 S
C570 C990 2.244 . S
C654 C822 2.244 . S
C906 C738 2.244 . S
C1074 C1494 2.244 . S
C1326 C1158 2.244 . S
C1410 C1242 2.244 . S
C915 C75 3.494 . S
C159 C999 3.494 . S
C831 C243 3.494 . S
C327 C1251 3.494 . S
C411 C1083 3.494 . S
C1167 C495 3.494 . S
C1419 C579 3.494 1_655 S
C663 C1503 3.494 . S
C747 C1335 3.494 1_565 S
C240 C67 1.660 . S
C72 C151 1.659 . S
C235 C156 1.660 . S
C408 C319 1.660 . S
C492 C403 1.660 . S
C487 C324 1.659 . S
C744 C571 1.659 . S
C655 C576 1.660 . S
C660 C739 1.659 . S
C823 C912 1.659 . S
C907 C996 1.659 1_565 S
C828 C991 1.660 . S
C1075 C1248 1.659 . S
C1159 C1080 1.660 . S
C1164 C1243 1.659 1_455 S
C1327 C1416 1.659 . S
C1411 C1500 1.659 . S
C1332 C1495 1.660 . S
