# Generated by pormake.
# Topology bcu-f, (3)-cn, num edge types: 1
# Building blocks:
#     Node 0, Type 0, BuildingBlock: OLANEW_clean_sbu_2, # of connection points: 3
#     Node 1, Type 0, BuildingBlock: OLANEW_clean_sbu_2, # of connection points: 3
#     Node 2, Type 0, BuildingBlock: OLANEW_clean_sbu_2, # of connection points: 3
#     Node 3, Type 0, BuildingBlock: OLANEW_clean_sbu_2, # of connection points: 3
#     Node 4, Type 0, BuildingBlock: OLANEW_clean_sbu_2, # of connection points: 3
#     Node 5, Type 0, BuildingBlock: OLANEW_clean_sbu_2, # of connection points: 3
#     Node 6, Type 0, BuildingBlock: OLANEW_clean_sbu_2, # of connection points: 3
#     Node 7, Type 0, BuildingBlock: OLANEW_clean_sbu_2, # of connection points: 3
#     Node 8, Type 0, BuildingBlock: OLANEW_clean_sbu_2, # of connection points: 3
#     Node 9, Type 0, BuildingBlock: OLANEW_clean_sbu_2, # of connection points: 3
#     Node 10, Type 0, BuildingBlock: OLANEW_clean_sbu_2, # of connection points: 3
#     Node 11, Type 0, BuildingBlock: OLANEW_clean_sbu_2, # of connection points: 3
#     Node 12, Type 0, BuildingBlock: OLANEW_clean_sbu_2, # of connection points: 3
#     Node 13, Type 0, BuildingBlock: OLANEW_clean_sbu_2, # of connection points: 3
#     Node 14, Type 0, BuildingBlock: OLANEW_clean_sbu_2, # of connection points: 3
#     Node 15, Type 0, BuildingBlock: OLANEW_clean_sbu_2, # of connection points: 3
#     Edge 16, Type (0, 0), BuildingBlock: OJICUG_clean_linker_0, # of connection points: 2
#     Edge 17, Type (0, 0), BuildingBlock: OJICUG_clean_linker_0, # of connection points: 2
#     Edge 18, Type (0, 0), BuildingBlock: OJICUG_clean_linker_0, # of connection points: 2
#     Edge 19, Type (0, 0), BuildingBlock: OJICUG_clean_linker_0, # of connection points: 2
#     Edge 20, Type (0, 0), BuildingBlock: OJICUG_clean_linker_0, # of connection points: 2
#     Edge 21, Type (0, 0), BuildingBlock: OJICUG_clean_linker_0, # of connection points: 2
#     Edge 22, Type (0, 0), BuildingBlock: OJICUG_clean_linker_0, # of connection points: 2
#     Edge 23, Type (0, 0), BuildingBlock: OJICUG_clean_linker_0, # of connection points: 2
#     Edge 24, Type (0, 0), BuildingBlock: OJICUG_clean_linker_0, # of connection points: 2
#     Edge 25, Type (0, 0), BuildingBlock: OJICUG_clean_linker_0, # of connection points: 2
#     Edge 26, Type (0, 0), BuildingBlock: OJICUG_clean_linker_0, # of connection points: 2
#     Edge 27, Type (0, 0), BuildingBlock: OJICUG_clean_linker_0, # of connection points: 2
#     Edge 28, Type (0, 0), BuildingBlock: OJICUG_clean_linker_0, # of connection points: 2
#     Edge 29, Type (0, 0), BuildingBlock: OJICUG_clean_linker_0, # of connection points: 2
#     Edge 30, Type (0, 0), BuildingBlock: OJICUG_clean_linker_0, # of connection points: 2
#     Edge 31, Type (0, 0), BuildingBlock: OJICUG_clean_linker_0, # of connection points: 2
#     Edge 32, Type (0, 0), BuildingBlock: OJICUG_clean_linker_0, # of connection points: 2
#     Edge 33, Type (0, 0), BuildingBlock: OJICUG_clean_linker_0, # of connection points: 2
#     Edge 34, Type (0, 0), BuildingBlock: OJICUG_clean_linker_0, # of connection points: 2
#     Edge 35, Type (0, 0), BuildingBlock: OJICUG_clean_linker_0, # of connection points: 2
#     Edge 36, Type (0, 0), BuildingBlock: OJICUG_clean_linker_0, # of connection points: 2
#     Edge 37, Type (0, 0), BuildingBlock: OJICUG_clean_linker_0, # of connection points: 2
#     Edge 38, Type (0, 0), BuildingBlock: OJICUG_clean_linker_0, # of connection points: 2
#     Edge 39, Type (0, 0), BuildingBlock: OJICUG_clean_linker_0, # of connection points: 2
# Relax obj value: 0.001
# Max RMSD: 0.037
# Mean RMSD: 0.037
data_MOF--net-bcu-f--node1-OLANEW_clean_sbu_2--edge1-OJICUG_clean_linker_0
_symmetry_space_group_name_H-M    P1
_symmetry_Int_Tables_number       1
_symmetry_cell_setting            triclinic
loop_
_symmetry_equiv_pos_as_xyz
'x, y, z'
_cell_length_a     55.642345
_cell_length_b     55.607445
_cell_length_c     16.247283
_cell_angle_alpha  90.062701
_cell_angle_beta   90.024577
_cell_angle_gamma 90.026384
loop_
_atom_site_label
_atom_site_type_symbol
_atom_site_fract_x
_atom_site_fract_y
_atom_site_fract_z
_atom_type_partial_charge
O0 O 0.12084 0.12103 0.20573 0.0
Cd1 Cd 0.12485 0.09435 0.3235 0.0
O2 O 0.16019 0.12168 0.20394 0.0
Cd3 Cd 0.19463 0.13389 0.15567 0.0
O4 O 0.2269 0.156 0.16542 0.0
C5 C 0.2276 0.16991 0.22755 0.0
O6 O 0.20935 0.16992 0.27889 0.0
C7 C 0.14028 0.12713 0.17057 0.0
C8 C 0.14446 0.05288 0.25524 0.0
O9 O 0.12167 0.05614 0.25745 0.0
O10 O 0.15798 0.06861 0.28968 0.0
O11 O 0.89662 0.20649 0.84151 0.0
Cd12 Cd 0.92748 0.23736 0.85449 0.0
O13 O 0.87407 0.22257 0.93744 0.0
Cd14 Cd 0.84438 0.22425 0.02553 0.0
O15 O 0.81555 0.23513 0.10879 0.0
C16 C 0.82047 0.24741 0.17268 0.0
O17 O 0.84305 0.25251 0.18886 0.0
C18 C 0.87785 0.20577 0.88588 0.0
C19 C 0.9706 0.21613 0.80745 0.0
O20 O 0.96233 0.21365 0.88052 0.0
O21 O 0.95892 0.22941 0.75694 0.0
O22 O 0.85164 0.8891 0.26195 0.0
Cd23 Cd 0.84125 0.92341 0.34836 0.0
O24 O 0.81405 0.87748 0.25546 0.0
Cd25 Cd 0.78525 0.85278 0.22166 0.0
O26 O 0.75615 0.82679 0.21164 0.0
C27 C 0.7461 0.81968 0.27748 0.0
O28 O 0.75361 0.82828 0.34834 0.0
C29 C 0.83584 0.87474 0.23401 0.0
C30 C 0.83131 0.96183 0.24422 0.0
O31 O 0.85289 0.95702 0.26617 0.0
O32 O 0.81427 0.9489 0.27349 0.0
O33 O 0.12746 0.80994 0.10551 0.0
Cd34 Cd 0.10025 0.77723 0.14167 0.0
O35 O 0.15062 0.78633 0.03174 0.0
Cd36 Cd 0.18554 0.779 0.97648 0.0
O37 O 0.21894 0.7626 0.01783 0.0
C38 C 0.22634 0.76997 0.08745 0.0
O39 O 0.21483 0.78775 0.12334 0.0
C40 C 0.14599 0.80696 0.06115 0.0
C41 C 0.05658 0.78164 0.05992 0.0
O42 O 0.06125 0.79418 0.12415 0.0
O43 O 0.07253 0.76681 0.03417 0.0
O44 O 0.19036 0.90814 0.95736 0.0
Cd45 Cd 0.20742 0.94801 0.93682 0.0
O46 O 0.21941 0.8986 0.04294 0.0
Cd47 Cd 0.23819 0.87039 0.11016 0.0
O48 O 0.25884 0.83733 0.09805 0.0
C49 C 0.25463 0.8256 0.03243 0.0
O50 O 0.23799 0.83358 0.98196 0.0
C51 C 0.20014 0.89308 0.00548 0.0
C52 C 0.18685 0.98042 0.04683 0.0
O53 O 0.17655 0.97516 0.97858 0.0
O54 O 0.2071 0.9705 0.063 0.0
O55 O 0.11638 0.13185 0.79668 0.0
Cd56 Cd 0.09524 0.13658 0.66655 0.0
O57 O 0.11711 0.17116 0.80495 0.0
Cd58 Cd 0.12937 0.20449 0.86143 0.0
O59 O 0.15574 0.23328 0.85093 0.0
C60 C 0.17134 0.22988 0.79497 0.0
O61 O 0.17028 0.20998 0.75135 0.0
C62 C 0.12148 0.15078 0.83676 0.0
C63 C 0.05394 0.16271 0.70236 0.0
O64 O 0.05482 0.13992 0.71333 0.0
O65 O 0.07234 0.17319 0.67137 0.0
O66 O 0.82497 0.10208 0.88558 0.0
Cd67 Cd 0.80162 0.06529 0.8687 0.0
O68 O 0.79612 0.12285 0.82788 0.0
Cd69 Cd 0.78009 0.15476 0.77238 0.0
O70 O 0.75842 0.18358 0.72019 0.0
C71 C 0.74075 0.17819 0.67417 0.0
O72 O 0.73646 0.15543 0.65792 0.0
C73 C 0.81683 0.12214 0.8608 0.0
C74 C 0.81127 0.03284 0.99473 0.0
O75 O 0.82501 0.0344 0.93171 0.0
O76 O 0.79281 0.04658 0.99818 0.0
O77 O 0.89408 0.81422 0.96852 0.0
Cd78 Cd 0.91655 0.79702 0.85394 0.0
O79 O 0.85911 0.80142 0.9253 0.0
Cd80 Cd 0.82055 0.79367 0.9206 0.0
O81 O 0.78942 0.77429 0.87187 0.0
C82 C 0.78454 0.77655 0.7958 0.0
O83 O 0.79739 0.79151 0.75134 0.0
C84 C 0.87147 0.8129 0.97824 0.0
C85 C 0.96376 0.7913 0.90653 0.0
O86 O 0.9561 0.81166 0.8807 0.0
O87 O 0.94932 0.77334 0.90516 0.0
O88 O 0.6963 0.60579 0.37554 0.0
Cd89 Cd 0.72584 0.57953 0.44027 0.0
O90 O 0.70727 0.63706 0.44824 0.0
Cd91 Cd 0.70898 0.67416 0.49357 0.0
O92 O 0.72308 0.70626 0.55477 0.0
C93 C 0.72392 0.7069 0.63295 0.0
O94 O 0.71507 0.68873 0.67482 0.0
C95 C 0.69337 0.62774 0.39476 0.0
C96 C 0.71515 0.53262 0.39303 0.0
O97 O 0.70429 0.54261 0.45358 0.0
O98 O 0.73164 0.54454 0.35611 0.0
O99 O 0.39484 0.66805 0.70745 0.0
Cd100 Cd 0.43416 0.68212 0.75282 0.0
O101 O 0.37595 0.69814 0.766 0.0
Cd102 Cd 0.34394 0.71762 0.80584 0.0
O103 O 0.31603 0.74125 0.85408 0.0
C104 C 0.31685 0.7483 0.92849 0.0
O105 O 0.33432 0.74061 0.9761 0.0
C106 C 0.37538 0.67908 0.7228 0.0
C107 C 0.46532 0.68031 0.61897 0.0
O108 O 0.46193 0.66187 0.66476 0.0
O109 O 0.45438 0.69985 0.63764 0.0
O110 O 0.33155 0.38716 0.60787 0.0
Cd111 Cd 0.31577 0.41354 0.71474 0.0
O112 O 0.30452 0.36012 0.63821 0.0
Cd113 Cd 0.28374 0.32685 0.63451 0.0
O114 O 0.25794 0.29839 0.66048 0.0
C115 C 0.24351 0.30145 0.72024 0.0
O116 O 0.24485 0.32143 0.76331 0.0
C117 C 0.32257 0.36647 0.59541 0.0
C118 C 0.29667 0.45568 0.65015 0.0
O119 O 0.31935 0.45323 0.66092 0.0
O120 O 0.28288 0.43812 0.66972 0.0
O121 O 0.61633 0.33968 0.70115 0.0
Cd122 Cd 0.58367 0.33021 0.79518 0.0
O123 O 0.61153 0.30289 0.65551 0.0
Cd124 Cd 0.62342 0.27336 0.57732 0.0
O125 O 0.65047 0.2453 0.56694 0.0
C126 C 0.67136 0.25126 0.59118 0.0
O127 O 0.67514 0.27361 0.61426 0.0
C128 C 0.62162 0.32331 0.64972 0.0
C129 C 0.5449 0.31961 0.6932 0.0
O130 O 0.54957 0.34128 0.71481 0.0
O131 O 0.5579 0.30271 0.72303 0.0
O132 O 0.6557 0.37133 0.32292 0.0
Cd133 Cd 0.66911 0.39613 0.20833 0.0
O134 O 0.69274 0.36122 0.35333 0.0
Cd135 Cd 0.71969 0.33929 0.41536 0.0
O136 O 0.74893 0.3141 0.3916 0.0
C137 C 0.74411 0.29684 0.34294 0.0
O138 O 0.72192 0.29438 0.31645 0.0
C139 C 0.6704 0.36011 0.36866 0.0
C140 C 0.68499 0.44025 0.26831 0.0
O141 O 0.66261 0.43618 0.25606 0.0
O142 O 0.70004 0.42355 0.25101 0.0
O143 O 0.593 0.65672 0.22981 0.0
Cd144 Cd 0.55319 0.67018 0.18796 0.0
O145 O 0.60175 0.69316 0.27193 0.0
Cd146 Cd 0.62698 0.72023 0.31628 0.0
O147 O 0.65631 0.7458 0.32999 0.0
C148 C 0.66776 0.75145 0.26521 0.0
O149 O 0.66132 0.74174 0.19479 0.0
C150 C 0.6077 0.67124 0.26321 0.0
C151 C 0.52412 0.67404 0.32671 0.0
O152 O 0.52647 0.65398 0.28862 0.0
O153 O 0.53524 0.69244 0.29836 0.0
O154 O 0.28185 0.61919 0.60193 0.0
Cd155 Cd 0.25075 0.59691 0.52848 0.0
O156 O 0.28005 0.64886 0.51386 0.0
Cd157 Cd 0.29062 0.68187 0.45018 0.0
O158 O 0.28392 0.71171 0.36585 0.0
C159 C 0.28417 0.70811 0.28854 0.0
O160 O 0.29036 0.6868 0.26076 0.0
C161 C 0.2897 0.63932 0.5768 0.0
C162 C 0.26144 0.54852 0.55079 0.0
O163 O 0.27145 0.56074 0.49343 0.0
O164 O 0.2456 0.55893 0.59563 0.0
O165 O 0.40195 0.31467 0.38245 0.0
Cd166 Cd 0.4366 0.29269 0.33075 0.0
O167 O 0.3772 0.28419 0.3707 0.0
Cd168 Cd 0.34236 0.2662 0.37591 0.0
O169 O 0.31049 0.24418 0.35481 0.0
C170 C 0.30978 0.23099 0.29089 0.0
O171 O 0.32816 0.23116 0.24013 0.0
C172 C 0.38114 0.3058 0.3925 0.0
C173 C 0.47324 0.29977 0.44495 0.0
O174 O 0.46946 0.31487 0.38686 0.0
O175 O 0.4602 0.28078 0.44752 0.0
C176 C 0.18961 0.0092 0.16522 0.0
C177 C 0.17575 0.99769 0.10451 0.0
H178 H 0.19058 0.03585 0.26061 0.0
C179 C 0.15122 0.00329 0.09782 0.0
H180 H 0.20856 0.00522 0.17182 0.0
C181 C 0.14085 0.02045 0.14955 0.0
C182 C 0.15488 0.03268 0.20809 0.0
H183 H 0.14005 0.99457 0.05204 0.0
H184 H 0.12199 0.02472 0.14162 0.0
C185 C 0.17932 0.02672 0.21605 0.0
C186 C 0.00658 0.21148 0.7161 0.0
C187 C 0.9923 0.20299 0.78119 0.0
H188 H 0.03772 0.20551 0.64084 0.0
C189 C -0.00158 0.18125 0.81969 0.0
H190 H 0.00223 0.22821 0.68542 0.0
C191 C 0.01821 0.16801 0.7928 0.0
C192 C 0.03265 0.17655 0.72829 0.0
H193 H 0.98761 0.17421 0.86962 0.0
H194 H 0.02242 0.15122 0.82337 0.0
C195 C 0.02684 0.19853 0.69065 0.0
C196 C 0.79828 0.0078 0.11476 0.0
C197 C 0.81651 0.01548 0.06105 0.0
H198 H 0.78861 0.98453 0.21454 0.0
C199 C 0.83979 0.0061 0.07022 0.0
H200 H 0.78016 0.01472 0.10901 0.0
C201 C 0.84471 0.98921 0.13148 0.0
C202 C 0.82635 0.981 0.18371 0.0
H203 H 0.85422 0.0118 0.02999 0.0
H204 H 0.86279 0.98213 0.13649 0.0
C205 C 0.8031 0.99051 0.17501 0.0
C206 C 0.02287 0.76456 0.97644 0.0
C207 C 0.03337 0.78422 0.0172 0.0
H208 H 0.99218 0.75129 0.91047 0.0
C209 C 0.02127 0.80636 0.01849 0.0
H210 H 0.03186 0.74729 0.97486 0.0
C211 C -0.001 0.80881 0.97985 0.0
C212 C 0.98811 0.78898 0.94133 0.0
H213 H 0.02907 0.82181 0.04919 0.0
H214 H 0.98996 0.82605 0.98229 0.0
C215 C 0.00022 0.76683 0.93987 0.0
C216 C 0.72383 0.49433 0.31732 0.0
C217 C 0.70799 0.50849 0.36413 0.0
H218 H 0.72907 0.46131 0.25138 0.0
C219 C 0.68477 0.49981 0.38047 0.0
H220 H 0.74184 0.5006 0.30393 0.0
C221 C 0.67731 0.47767 0.34889 0.0
C222 C 0.6931 0.46352 0.30201 0.0
H223 H 0.67214 0.5104 0.41599 0.0
H224 H 0.65918 0.47158 0.36154 0.0
C225 C 0.71654 0.47188 0.28741 0.0
C226 C 0.50246 0.69828 0.4335 0.0
C227 C 0.50923 0.67576 0.40179 0.0
H228 H 0.48309 0.7174 0.52686 0.0
C229 C 0.5018 0.65482 0.44284 0.0
H230 H 0.50792 0.71474 0.40318 0.0
C231 C 0.48789 0.65635 0.51419 0.0
C232 C 0.48084 0.67884 0.54534 0.0
H233 H 0.50684 0.6372 0.42015 0.0
H234 H 0.48239 0.63987 0.54425 0.0
C235 C 0.48823 0.6998 0.50426 0.0
C236 C 0.2547 0.50814 0.61478 0.0
C237 C 0.26934 0.52376 0.56895 0.0
H238 H 0.25176 0.47399 0.67505 0.0
C239 C 0.29244 0.51618 0.54574 0.0
H240 H 0.2368 0.51354 0.63334 0.0
C241 C 0.30117 0.49386 0.57113 0.0
C242 C 0.28675 0.47845 0.6185 0.0
H243 H 0.30416 0.5279 0.51074 0.0
H244 H 0.31932 0.48876 0.55445 0.0
C245 C 0.26323 0.48553 0.63847 0.0
C246 C 0.5172 0.33298 0.58141 0.0
C247 C 0.52594 0.31447 0.63195 0.0
H248 H 0.49404 0.34274 0.48183 0.0
C249 C 0.51722 0.29097 0.6206 0.0
H250 H 0.5237 0.35124 0.58823 0.0
C251 C 0.49999 0.28614 0.56004 0.0
C252 C 0.49155 0.30463 0.50872 0.0
H253 H 0.52368 0.27633 0.65857 0.0
H254 H 0.49349 0.26789 0.5528 0.0
C255 C 0.50034 0.32808 0.52 0.0
C256 C 0.15301 0.12671 0.02432 0.0
C257 C 0.13951 0.13749 0.08737 0.0
H258 H 0.15749 0.12224 0.89399 0.0
C259 C 0.12248 0.15514 0.06733 0.0
H260 H 0.16597 0.11276 0.03837 0.0
C261 C 0.11825 0.16113 0.98502 0.0
C262 C 0.13032 0.14885 0.92176 0.0
H263 H 0.11173 0.16348 0.11503 0.0
H264 H 0.10422 0.17396 0.97065 0.0
C265 C 0.14812 0.13202 0.94194 0.0
C266 C 0.85697 0.14177 0.85733 0.0
C267 C 0.832 0.14384 0.86685 0.0
H268 H 0.89089 0.15985 0.85497 0.0
C269 C 0.82201 0.16654 0.88356 0.0
H270 H 0.86514 0.12448 0.84451 0.0
C271 C 0.83682 0.18683 0.89041 0.0
C272 C 0.86179 0.1847 0.88016 0.0
H273 H 0.80286 0.16855 0.89287 0.0
H274 H 0.8287 0.20417 0.90221 0.0
C275 C 0.87168 0.16201 0.86302 0.0
C276 C 0.86623 0.84595 0.1802 0.0
C277 C 0.84309 0.85581 0.17521 0.0
H278 H 0.89302 0.82417 0.12274 0.0
C279 C 0.8283 0.84956 0.10831 0.0
H280 H 0.87803 0.8505 0.23095 0.0
C281 C 0.83692 0.83448 0.04578 0.0
C282 C 0.86047 0.82544 0.04923 0.0
H283 H 0.81069 0.85755 0.10133 0.0
H284 H 0.8257 0.83126 0.99256 0.0
C285 C 0.87479 0.83088 0.11813 0.0
C286 C 0.17074 0.84094 0.11347 0.0
C287 C 0.1623 0.82729 0.04683 0.0
H288 H 0.19019 0.87229 0.15198 0.0
C289 C 0.16788 0.83441 0.96625 0.0
H290 H 0.16657 0.83571 0.17608 0.0
C291 C 0.18065 0.8557 0.95242 0.0
C292 C 0.18876 0.86956 0.01913 0.0
H293 H 0.16137 0.82413 0.91409 0.0
H294 H 0.18395 0.86149 0.88979 0.0
C295 C 0.18425 0.86173 0.09972 0.0
C296 C 0.6636 0.63324 0.2816 0.0
C297 C 0.67337 0.64128 0.35662 0.0
H298 H 0.63527 0.63659 0.1931 0.0
C299 C 0.66216 0.66043 0.39797 0.0
H300 H 0.67175 0.61844 0.24837 0.0
C301 C 0.64129 0.6709 0.36589 0.0
C302 C 0.63123 0.66235 0.29211 0.0
H303 H 0.66855 0.6664 0.45738 0.0
H304 H 0.63231 0.68471 0.40138 0.0
C305 C 0.64272 0.64359 0.2499 0.0
C306 C 0.32853 0.63487 0.65073 0.0
C307 C 0.31093 0.65005 0.61706 0.0
H308 H 0.3628 0.63227 0.70992 0.0
C309 C 0.31408 0.67508 0.62197 0.0
H310 H 0.32658 0.61549 0.64774 0.0
C311 C 0.33471 0.6847 0.65897 0.0
C312 C 0.35256 0.6694 0.69061 0.0
H313 H 0.3006 0.68718 0.59776 0.0
H314 H 0.33705 0.70402 0.66033 0.0
C315 C 0.34926 0.64443 0.68619 0.0
C316 C 0.34856 0.36025 0.4725 0.0
C317 C 0.33404 0.35031 0.53452 0.0
H318 H 0.37459 0.35383 0.37814 0.0
C319 C 0.33302 0.32515 0.5426 0.0
H320 H 0.34972 0.37956 0.46449 0.0
C321 C 0.34709 0.31035 0.49207 0.0
C322 C 0.36258 0.3205 0.43338 0.0
H323 H 0.32275 0.31689 0.59138 0.0
H324 H 0.34714 0.29116 0.50319 0.0
C325 C 0.36275 0.34553 0.42282 0.0
C326 C 0.67003 0.35168 0.51907 0.0
C327 C 0.66125 0.34668 0.43985 0.0
H328 H 0.66389 0.34842 0.64918 0.0
C329 C 0.64123 0.33161 0.43058 0.0
H330 H 0.6853 0.36354 0.52738 0.0
C331 C 0.62952 0.32243 0.49966 0.0
C332 C 0.63719 0.32883 0.57906 0.0
H333 H 0.63408 0.32772 0.36995 0.0
H334 H 0.61343 0.31175 0.49092 0.0
C335 C 0.65779 0.34315 0.58844 0.0
C336 C 0.26899 0.21535 0.32818 0.0
C337 C 0.28869 0.21551 0.27411 0.0
H338 H 0.23432 0.2009 0.35583 0.0
C339 C 0.28808 0.20064 0.20405 0.0
H340 H 0.26887 0.22659 0.38267 0.0
C341 C 0.26823 0.18587 0.1886 0.0
C342 C 0.24858 0.18566 0.24289 0.0
H343 H 0.30296 0.20034 0.16111 0.0
H344 H 0.26833 0.17458 0.13424 0.0
C345 C 0.24917 0.20061 0.31273 0.0
C346 C 0.7583 0.26473 0.2465 0.0
C347 C 0.76357 0.28194 0.30737 0.0
H348 H 0.77208 0.24027 0.15647 0.0
C349 C 0.78771 0.28607 0.32866 0.0
H350 H 0.73989 0.261 0.2289 0.0
C351 C 0.8062 0.27413 0.28709 0.0
C352 C 0.80094 0.25786 0.22324 0.0
H353 H 0.79238 0.29912 0.37556 0.0
H354 H 0.82463 0.27829 0.30318 0.0
C355 C 0.77677 0.25286 0.20483 0.0
C356 C 0.71456 0.79483 0.34713 0.0
C357 C 0.72618 0.80209 0.27447 0.0
H358 H 0.687 0.77317 0.4013 0.0
C359 C 0.71853 0.79243 0.19891 0.0
H360 H 0.72004 0.80191 0.40637 0.0
C361 C 0.69962 0.77592 0.19604 0.0
C362 C 0.68791 0.76876 0.26863 0.0
H363 H 0.72712 0.79762 0.14181 0.0
H364 H 0.69414 0.76886 0.13678 0.0
C365 C 0.69561 0.77836 0.34424 0.0
C366 C 0.26934 0.72047 0.14906 0.0
C367 C 0.27349 0.72614 0.23226 0.0
H368 H 0.2513 0.73007 0.03732 0.0
C369 C 0.26496 0.74814 0.26321 0.0
H370 H 0.27594 0.70382 0.12291 0.0
C371 C 0.25087 0.76317 0.21415 0.0
C372 C 0.24496 0.75648 0.1332 0.0
H373 H 0.26814 0.75323 0.32667 0.0
H374 H 0.24363 0.77944 0.24118 0.0
C375 C 0.25518 0.7355 0.09998 0.0
C376 C 0.26575 0.79311 0.93319 0.0
C377 C 0.26938 0.80452 0.00941 0.0
H378 H 0.27774 0.76634 0.84816 0.0
C379 C 0.28773 0.79614 0.06145 0.0
H380 H 0.25162 0.79897 0.89194 0.0
C381 C 0.30266 0.77727 0.03643 0.0
C382 C 0.29963 0.76655 0.95868 0.0
H383 H 0.29081 0.80439 0.12094 0.0
H384 H 0.31695 0.77153 0.0772 0.0
C385 C 0.28072 0.77436 0.90808 0.0
C386 C 0.22405 0.26151 0.69511 0.0
C387 C 0.2253 0.283 0.74046 0.0
H388 H 0.20612 0.22793 0.6769 0.0
C389 C 0.20885 0.28675 0.8049 0.0
H390 H 0.23646 0.25803 0.64517 0.0
C391 C 0.1914 0.26947 0.82314 0.0
C392 C 0.19005 0.24806 0.77734 0.0
H393 H 0.20935 0.30311 0.84111 0.0
H394 H 0.1789 0.27294 0.87284 0.0
C395 C 0.20663 0.24424 0.71338 0.0
C396 C 0.71217 0.23914 0.64051 0.0
C397 C 0.69021 0.23286 0.6035 0.0
H398 H 0.74536 0.22685 0.69177 0.0
C399 C 0.68584 0.20861 0.58408 0.0
H400 H 0.71617 0.25768 0.65595 0.0
C401 C 0.70264 0.19091 0.60451 0.0
C402 C 0.7241 0.1971 0.64503 0.0
H403 H 0.66914 0.20319 0.55523 0.0
H404 H 0.69845 0.17231 0.59073 0.0
C405 C 0.72891 0.22146 0.66123 0.0
C406 C 0.74816 0.74494 0.63081 0.0
C407 C 0.73708 0.72642 0.6758 0.0
H408 H 0.77166 0.77539 0.63346 0.0
C409 C 0.74004 0.72585 0.76173 0.0
H410 H 0.74613 0.74601 0.56461 0.0
C411 C 0.7547 0.74272 0.80129 0.0
C412 C 0.76671 0.76054 0.75577 0.0
H413 H 0.73165 0.71192 0.79834 0.0
H414 H 0.75721 0.74131 0.86723 0.0
C415 C 0.76281 0.7618 0.67036 0.0
loop_
_geom_bond_atom_site_label_1
_geom_bond_atom_site_label_2
_geom_bond_distance
_geom_bond_site_symmetry_2
_ccdc_geom_bond_type
O0 Cd1 2.300 . S
O0 C7 1.275 . S
Cd1 O0 2.300 . S
Cd1 O9 2.381 . S
Cd1 O10 2.378 . S
O2 Cd3 2.385 . S
O2 C7 1.255 . S
Cd3 O2 2.385 . S
Cd3 O4 2.317 . S
O4 Cd3 2.317 . S
O4 C5 1.232 . S
C5 O4 1.232 . S
C5 O6 1.218 . S
O6 C5 1.218 . S
C7 O0 1.275 . S
C7 O2 1.255 . S
C8 O9 1.258 . S
C8 O10 1.256 . S
O9 Cd1 2.381 . S
O9 C8 1.258 . S
O10 Cd1 2.378 . S
O10 C8 1.256 . S
O11 Cd12 2.300 . S
O11 C18 1.275 . S
Cd12 O11 2.300 . S
Cd12 O20 2.381 . S
Cd12 O21 2.378 . S
O13 Cd14 2.385 . S
O13 C18 1.255 . S
Cd14 O13 2.385 . S
Cd14 O15 2.317 . S
O15 Cd14 2.317 . S
O15 C16 1.232 . S
C16 O15 1.232 . S
C16 O17 1.218 . S
O17 C16 1.218 . S
C18 O11 1.275 . S
C18 O13 1.255 . S
C19 O20 1.258 . S
C19 O21 1.256 . S
O20 Cd12 2.381 . S
O20 C19 1.258 . S
O21 Cd12 2.378 . S
O21 C19 1.256 . S
O22 Cd23 2.300 . S
O22 C29 1.275 . S
Cd23 O22 2.300 . S
Cd23 O31 2.381 . S
Cd23 O32 2.378 . S
O24 Cd25 2.385 . S
O24 C29 1.255 . S
Cd25 O24 2.385 . S
Cd25 O26 2.317 . S
O26 Cd25 2.317 . S
O26 C27 1.232 . S
C27 O26 1.232 . S
C27 O28 1.218 . S
O28 C27 1.218 . S
C29 O22 1.275 . S
C29 O24 1.255 . S
C30 O31 1.258 . S
C30 O32 1.256 . S
O31 Cd23 2.381 . S
O31 C30 1.258 . S
O32 Cd23 2.378 . S
O32 C30 1.256 . S
O33 Cd34 2.300 . S
O33 C40 1.275 . S
Cd34 O33 2.300 . S
Cd34 O42 2.381 . S
Cd34 O43 2.378 . S
O35 Cd36 2.385 . S
O35 C40 1.255 . S
Cd36 O35 2.385 . S
Cd36 O37 2.317 . S
O37 Cd36 2.317 . S
O37 C38 1.232 . S
C38 O37 1.232 . S
C38 O39 1.218 . S
O39 C38 1.218 . S
C40 O33 1.275 . S
C40 O35 1.255 . S
C41 O42 1.258 . S
C41 O43 1.256 . S
O42 Cd34 2.381 . S
O42 C41 1.258 . S
O43 Cd34 2.378 . S
O43 C41 1.256 . S
O44 Cd45 2.300 . S
O44 C51 1.275 . S
Cd45 O44 2.300 . S
Cd45 O53 2.381 . S
Cd45 O54 2.378 . S
O46 Cd47 2.385 . S
O46 C51 1.255 . S
Cd47 O46 2.385 . S
Cd47 O48 2.317 . S
O48 Cd47 2.317 . S
O48 C49 1.232 . S
C49 O48 1.232 . S
C49 O50 1.218 . S
O50 C49 1.218 . S
C51 O44 1.275 . S
C51 O46 1.255 . S
C52 O53 1.258 . S
C52 O54 1.256 . S
O53 Cd45 2.381 . S
O53 C52 1.258 . S
O54 Cd45 2.378 . S
O54 C52 1.256 . S
O55 Cd56 2.300 . S
O55 C62 1.275 . S
Cd56 O55 2.300 . S
Cd56 O64 2.381 . S
Cd56 O65 2.378 . S
O57 Cd58 2.385 . S
O57 C62 1.255 . S
Cd58 O57 2.385 . S
Cd58 O59 2.317 . S
O59 Cd58 2.317 . S
O59 C60 1.232 . S
C60 O59 1.232 . S
C60 O61 1.218 . S
O61 C60 1.218 . S
C62 O55 1.275 . S
C62 O57 1.255 . S
C63 O64 1.258 . S
C63 O65 1.256 . S
O64 Cd56 2.381 . S
O64 C63 1.258 . S
O65 Cd56 2.378 . S
O65 C63 1.256 . S
O66 Cd67 2.300 . S
O66 C73 1.275 . S
Cd67 O66 2.300 . S
Cd67 O75 2.381 . S
Cd67 O76 2.378 . S
O68 Cd69 2.385 . S
O68 C73 1.255 . S
Cd69 O68 2.385 . S
Cd69 O70 2.317 . S
O70 Cd69 2.317 . S
O70 C71 1.232 . S
C71 O70 1.232 . S
C71 O72 1.218 . S
O72 C71 1.218 . S
C73 O66 1.275 . S
C73 O68 1.255 . S
C74 O75 1.258 . S
C74 O76 1.256 . S
O75 Cd67 2.381 . S
O75 C74 1.258 . S
O76 Cd67 2.378 . S
O76 C74 1.256 . S
O77 Cd78 2.300 . S
O77 C84 1.275 . S
Cd78 O77 2.300 . S
Cd78 O86 2.381 . S
Cd78 O87 2.378 . S
O79 Cd80 2.385 . S
O79 C84 1.255 . S
Cd80 O79 2.385 . S
Cd80 O81 2.317 . S
O81 Cd80 2.317 . S
O81 C82 1.232 . S
C82 O81 1.232 . S
C82 O83 1.218 . S
O83 C82 1.218 . S
C84 O77 1.275 . S
C84 O79 1.255 . S
C85 O86 1.258 . S
C85 O87 1.256 . S
O86 Cd78 2.381 . S
O86 C85 1.258 . S
O87 Cd78 2.378 . S
O87 C85 1.256 . S
O88 Cd89 2.300 . S
O88 C95 1.275 . S
Cd89 O88 2.300 . S
Cd89 O97 2.381 . S
Cd89 O98 2.378 . S
O90 Cd91 2.385 . S
O90 C95 1.255 . S
Cd91 O90 2.385 . S
Cd91 O92 2.317 . S
O92 Cd91 2.317 . S
O92 C93 1.232 . S
C93 O92 1.232 . S
C93 O94 1.218 . S
O94 C93 1.218 . S
C95 O88 1.275 . S
C95 O90 1.255 . S
C96 O97 1.258 . S
C96 O98 1.256 . S
O97 Cd89 2.381 . S
O97 C96 1.258 . S
O98 Cd89 2.378 . S
O98 C96 1.256 . S
O99 Cd100 2.300 . S
O99 C106 1.275 . S
Cd100 O99 2.300 . S
Cd100 O108 2.381 . S
Cd100 O109 2.378 . S
O101 Cd102 2.385 . S
O101 C106 1.255 . S
Cd102 O101 2.385 . S
Cd102 O103 2.317 . S
O103 Cd102 2.317 . S
O103 C104 1.232 . S
C104 O103 1.232 . S
C104 O105 1.218 . S
O105 C104 1.218 . S
C106 O99 1.275 . S
C106 O101 1.255 . S
C107 O108 1.258 . S
C107 O109 1.256 . S
O108 Cd100 2.381 . S
O108 C107 1.258 . S
O109 Cd100 2.378 . S
O109 C107 1.256 . S
O110 Cd111 2.300 . S
O110 C117 1.275 . S
Cd111 O110 2.300 . S
Cd111 O119 2.381 . S
Cd111 O120 2.378 . S
O112 Cd113 2.385 . S
O112 C117 1.255 . S
Cd113 O112 2.385 . S
Cd113 O114 2.317 . S
O114 Cd113 2.317 . S
O114 C115 1.232 . S
C115 O114 1.232 . S
C115 O116 1.218 . S
O116 C115 1.218 . S
C117 O110 1.275 . S
C117 O112 1.255 . S
C118 O119 1.258 . S
C118 O120 1.256 . S
O119 Cd111 2.381 . S
O119 C118 1.258 . S
O120 Cd111 2.378 . S
O120 C118 1.256 . S
O121 Cd122 2.300 . S
O121 C128 1.275 . S
Cd122 O121 2.300 . S
Cd122 O130 2.381 . S
Cd122 O131 2.378 . S
O123 Cd124 2.385 . S
O123 C128 1.255 . S
Cd124 O123 2.385 . S
Cd124 O125 2.317 . S
O125 Cd124 2.317 . S
O125 C126 1.232 . S
C126 O125 1.232 . S
C126 O127 1.218 . S
O127 C126 1.218 . S
C128 O121 1.275 . S
C128 O123 1.255 . S
C129 O130 1.258 . S
C129 O131 1.256 . S
O130 Cd122 2.381 . S
O130 C129 1.258 . S
O131 Cd122 2.378 . S
O131 C129 1.256 . S
O132 Cd133 2.300 . S
O132 C139 1.275 . S
Cd133 O132 2.300 . S
Cd133 O141 2.381 . S
Cd133 O142 2.378 . S
O134 Cd135 2.385 . S
O134 C139 1.255 . S
Cd135 O134 2.385 . S
Cd135 O136 2.317 . S
O136 Cd135 2.317 . S
O136 C137 1.232 . S
C137 O136 1.232 . S
C137 O138 1.218 . S
O138 C137 1.218 . S
C139 O132 1.275 . S
C139 O134 1.255 . S
C140 O141 1.258 . S
C140 O142 1.256 . S
O141 Cd133 2.381 . S
O141 C140 1.258 . S
O142 Cd133 2.378 . S
O142 C140 1.256 . S
O143 Cd144 2.300 . S
O143 C150 1.275 . S
Cd144 O143 2.300 . S
Cd144 O152 2.381 . S
Cd144 O153 2.378 . S
O145 Cd146 2.385 . S
O145 C150 1.255 . S
Cd146 O145 2.385 . S
Cd146 O147 2.317 . S
O147 Cd146 2.317 . S
O147 C148 1.232 . S
C148 O147 1.232 . S
C148 O149 1.218 . S
O149 C148 1.218 . S
C150 O143 1.275 . S
C150 O145 1.255 . S
C151 O152 1.258 . S
C151 O153 1.256 . S
O152 Cd144 2.381 . S
O152 C151 1.258 . S
O153 Cd144 2.378 . S
O153 C151 1.256 . S
O154 Cd155 2.300 . S
O154 C161 1.275 . S
Cd155 O154 2.300 . S
Cd155 O163 2.381 . S
Cd155 O164 2.378 . S
O156 Cd157 2.385 . S
O156 C161 1.255 . S
Cd157 O156 2.385 . S
Cd157 O158 2.317 . S
O158 Cd157 2.317 . S
O158 C159 1.232 . S
C159 O158 1.232 . S
C159 O160 1.218 . S
O160 C159 1.218 . S
C161 O154 1.275 . S
C161 O156 1.255 . S
C162 O163 1.258 . S
C162 O164 1.256 . S
O163 Cd155 2.381 . S
O163 C162 1.258 . S
O164 Cd155 2.378 . S
O164 C162 1.256 . S
O165 Cd166 2.300 . S
O165 C172 1.275 . S
Cd166 O165 2.300 . S
Cd166 O174 2.381 . S
Cd166 O175 2.378 . S
O167 Cd168 2.385 . S
O167 C172 1.255 . S
Cd168 O167 2.385 . S
Cd168 O169 2.317 . S
O169 Cd168 2.317 . S
O169 C170 1.232 . S
C170 O169 1.232 . S
C170 O171 1.218 . S
O171 C170 1.218 . S
C172 O165 1.275 . S
C172 O167 1.255 . S
C173 O174 1.258 . S
C173 O175 1.256 . S
O174 Cd166 2.381 . S
O174 C173 1.258 . S
O175 Cd166 2.378 . S
O175 C173 1.256 . S
C176 C177 1.387 . S
C176 H180 0.950 . S
C176 C185 1.390 1_566 S
C177 C176 1.387 . S
C177 C179 1.387 . S
H178 C185 0.950 . S
C179 C177 1.387 . S
C179 C181 1.390 1_566 S
C179 H183 0.950 . S
H180 C176 0.950 . S
C181 C179 1.390 1_544 S
C181 C182 1.387 . S
C181 H184 0.950 . S
C182 C181 1.387 . S
C182 C185 1.387 . S
H183 C179 0.950 . S
H184 C181 0.950 . S
C185 C176 1.390 1_544 S
C185 H178 0.950 . S
C185 C182 1.387 . S
C186 C187 1.387 . S
C186 H190 0.950 . S
C186 C195 1.390 1_654 S
C187 C186 1.387 . S
C187 C189 1.387 . S
H188 C195 0.950 . S
C189 C187 1.387 . S
C189 C191 1.390 1_654 S
C189 H193 0.950 . S
H190 C186 0.950 . S
C191 C189 1.390 1_456 S
C191 C192 1.387 . S
C191 H194 0.950 . S
C192 C191 1.387 . S
C192 C195 1.387 . S
H193 C189 0.950 . S
H194 C191 0.950 . S
C195 C186 1.390 1_456 S
C195 H188 0.950 . S
C195 C192 1.387 . S
C196 C197 1.387 . S
C196 H200 0.950 . S
C196 C205 1.390 1_546 S
C197 C196 1.387 . S
C197 C199 1.387 . S
H198 C205 0.950 . S
C199 C197 1.387 . S
C199 C201 1.390 1_546 S
C199 H203 0.950 . S
H200 C196 0.950 . S
C201 C199 1.390 1_564 S
C201 C202 1.387 . S
C201 H204 0.950 . S
C202 C201 1.387 . S
C202 C205 1.387 . S
H203 C199 0.950 . S
H204 C201 0.950 . S
C205 C196 1.390 1_564 S
C205 H198 0.950 . S
C205 C202 1.387 . S
C206 C207 1.387 . S
C206 H210 0.950 . S
C206 C215 1.390 1_454 S
C207 C206 1.387 . S
C207 C209 1.387 . S
H208 C215 0.950 . S
C209 C207 1.387 . S
C209 C211 1.390 1_454 S
C209 H213 0.950 . S
H210 C206 0.950 . S
C211 C209 1.390 1_656 S
C211 C212 1.387 . S
C211 H214 0.950 . S
C212 C211 1.387 . S
C212 C215 1.387 . S
H213 C209 0.950 . S
H214 C211 0.950 . S
C215 C206 1.390 1_656 S
C215 H208 0.950 . S
C215 C212 1.387 . S
C216 C217 1.387 . S
C216 H220 0.950 . S
C216 C225 1.390 . S
C217 C216 1.387 . S
C217 C219 1.387 . S
H218 C225 0.950 . S
C219 C217 1.387 . S
C219 C221 1.390 . S
C219 H223 0.950 . S
H220 C216 0.950 . S
C221 C219 1.390 . S
C221 C222 1.387 . S
C221 H224 0.950 . S
C222 C221 1.387 . S
C222 C225 1.387 . S
H223 C219 0.950 . S
H224 C221 0.950 . S
C225 C216 1.390 . S
C225 H218 0.950 . S
C225 C222 1.387 . S
C226 C227 1.387 . S
C226 H230 0.950 . S
C226 C235 1.390 . S
C227 C226 1.387 . S
C227 C229 1.387 . S
H228 C235 0.950 . S
C229 C227 1.387 . S
C229 C231 1.390 . S
C229 H233 0.950 . S
H230 C226 0.950 . S
C231 C229 1.390 . S
C231 C232 1.387 . S
C231 H234 0.950 . S
C232 C231 1.387 . S
C232 C235 1.387 . S
H233 C229 0.950 . S
H234 C231 0.950 . S
C235 C226 1.390 . S
C235 H228 0.950 . S
C235 C232 1.387 . S
C236 C237 1.387 . S
C236 H240 0.950 . S
C236 C245 1.390 . S
C237 C236 1.387 . S
C237 C239 1.387 . S
H238 C245 0.950 . S
C239 C237 1.387 . S
C239 C241 1.390 . S
C239 H243 0.950 . S
H240 C236 0.950 . S
C241 C239 1.390 . S
C241 C242 1.387 . S
C241 H244 0.950 . S
C242 C241 1.387 . S
C242 C245 1.387 . S
H243 C239 0.950 . S
H244 C241 0.950 . S
C245 C236 1.390 . S
C245 H238 0.950 . S
C245 C242 1.387 . S
C246 C247 1.387 . S
C246 H250 0.950 . S
C246 C255 1.390 . S
C247 C246 1.387 . S
C247 C249 1.387 . S
H248 C255 0.950 . S
C249 C247 1.387 . S
C249 C251 1.390 . S
C249 H253 0.950 . S
H250 C246 0.950 . S
C251 C249 1.390 . S
C251 C252 1.387 . S
C251 H254 0.950 . S
C252 C251 1.387 . S
C252 C255 1.387 . S
H253 C249 0.950 . S
H254 C251 0.950 . S
C255 C246 1.390 . S
C255 H248 0.950 . S
C255 C252 1.387 . S
C256 C257 1.387 1_556 S
C256 H260 0.950 . S
C256 C265 1.390 . S
C257 C256 1.387 1_554 S
C257 C259 1.387 . S
H258 C265 0.950 . S
C259 C257 1.387 . S
C259 C261 1.390 . S
C259 H263 0.950 . S
H260 C256 0.950 . S
C261 C259 1.390 . S
C261 C262 1.387 1_554 S
C261 H264 0.950 . S
C262 C261 1.387 1_556 S
C262 C265 1.387 . S
H263 C259 0.950 . S
H264 C261 0.950 . S
C265 C256 1.390 . S
C265 H258 0.950 . S
C265 C262 1.387 . S
C266 C267 1.387 1_554 S
C266 H270 0.950 . S
C266 C275 1.390 . S
C267 C266 1.387 1_556 S
C267 C269 1.387 . S
H268 C275 0.950 . S
C269 C267 1.387 . S
C269 C271 1.390 . S
C269 H273 0.950 . S
H270 C266 0.950 . S
C271 C269 1.390 . S
C271 C272 1.387 1_556 S
C271 H274 0.950 . S
C272 C271 1.387 1_554 S
C272 C275 1.387 . S
H273 C269 0.950 . S
H274 C271 0.950 . S
C275 C266 1.390 . S
C275 H268 0.950 . S
C275 C272 1.387 . S
C276 C277 1.387 1_556 S
C276 H280 0.950 . S
C276 C285 1.390 . S
C277 C276 1.387 1_554 S
C277 C279 1.387 . S
H278 C285 0.950 . S
C279 C277 1.387 . S
C279 C281 1.390 . S
C279 H283 0.950 . S
H280 C276 0.950 . S
C281 C279 1.390 . S
C281 C282 1.387 1_554 S
C281 H284 0.950 . S
C282 C281 1.387 1_556 S
C282 C285 1.387 . S
H283 C279 0.950 . S
H284 C281 0.950 . S
C285 C276 1.390 . S
C285 H278 0.950 . S
C285 C282 1.387 . S
C286 C287 1.387 . S
C286 H290 0.950 . S
C286 C295 1.390 . S
C287 C286 1.387 . S
C287 C289 1.387 1_554 S
H288 C295 0.950 . S
C289 C287 1.387 1_556 S
C289 C291 1.390 . S
C289 H293 0.950 . S
H290 C286 0.950 . S
C291 C289 1.390 . S
C291 C292 1.387 . S
C291 H294 0.950 . S
C292 C291 1.387 . S
C292 C295 1.387 1_556 S
H293 C289 0.950 . S
H294 C291 0.950 . S
C295 C286 1.390 . S
C295 H288 0.950 . S
C295 C292 1.387 1_554 S
C296 C297 1.387 . S
C296 H300 0.950 . S
C296 C305 1.390 . S
C297 C296 1.387 . S
C297 C299 1.387 . S
H298 C305 0.950 . S
C299 C297 1.387 . S
C299 C301 1.390 . S
C299 H303 0.950 . S
H300 C296 0.950 . S
C301 C299 1.390 . S
C301 C302 1.387 . S
C301 H304 0.950 . S
C302 C301 1.387 . S
C302 C305 1.387 . S
H303 C299 0.950 . S
H304 C301 0.950 . S
C305 C296 1.390 . S
C305 H298 0.950 . S
C305 C302 1.387 . S
C306 C307 1.387 . S
C306 H310 0.950 . S
C306 C315 1.390 . S
C307 C306 1.387 . S
C307 C309 1.387 . S
H308 C315 0.950 . S
C309 C307 1.387 . S
C309 C311 1.390 . S
C309 H313 0.950 . S
H310 C306 0.950 . S
C311 C309 1.390 . S
C311 C312 1.387 . S
C311 H314 0.950 . S
C312 C311 1.387 . S
C312 C315 1.387 . S
H313 C309 0.950 . S
H314 C311 0.950 . S
C315 C306 1.390 . S
C315 H308 0.950 . S
C315 C312 1.387 . S
C316 C317 1.387 . S
C316 H320 0.950 . S
C316 C325 1.390 . S
C317 C316 1.387 . S
C317 C319 1.387 . S
H318 C325 0.950 . S
C319 C317 1.387 . S
C319 C321 1.390 . S
C319 H323 0.950 . S
H320 C316 0.950 . S
C321 C319 1.390 . S
C321 C322 1.387 . S
C321 H324 0.950 . S
C322 C321 1.387 . S
C322 C325 1.387 . S
H323 C319 0.950 . S
H324 C321 0.950 . S
C325 C316 1.390 . S
C325 H318 0.950 . S
C325 C322 1.387 . S
C326 C327 1.387 . S
C326 H330 0.950 . S
C326 C335 1.390 . S
C327 C326 1.387 . S
C327 C329 1.387 . S
H328 C335 0.950 . S
C329 C327 1.387 . S
C329 C331 1.390 . S
C329 H333 0.950 . S
H330 C326 0.950 . S
C331 C329 1.390 . S
C331 C332 1.387 . S
C331 H334 0.950 . S
C332 C331 1.387 . S
C332 C335 1.387 . S
H333 C329 0.950 . S
H334 C331 0.950 . S
C335 C326 1.390 . S
C335 H328 0.950 . S
C335 C332 1.387 . S
C336 C337 1.387 . S
C336 H340 0.950 . S
C336 C345 1.390 . S
C337 C336 1.387 . S
C337 C339 1.387 . S
H338 C345 0.950 . S
C339 C337 1.387 . S
C339 C341 1.390 . S
C339 H343 0.950 . S
H340 C336 0.950 . S
C341 C339 1.390 . S
C341 C342 1.387 . S
C341 H344 0.950 . S
C342 C341 1.387 . S
C342 C345 1.387 . S
H343 C339 0.950 . S
H344 C341 0.950 . S
C345 C336 1.390 . S
C345 H338 0.950 . S
C345 C342 1.387 . S
C346 C347 1.387 . S
C346 H350 0.950 . S
C346 C355 1.390 . S
C347 C346 1.387 . S
C347 C349 1.387 . S
H348 C355 0.950 . S
C349 C347 1.387 . S
C349 C351 1.390 . S
C349 H353 0.950 . S
H350 C346 0.950 . S
C351 C349 1.390 . S
C351 C352 1.387 . S
C351 H354 0.950 . S
C352 C351 1.387 . S
C352 C355 1.387 . S
H353 C349 0.950 . S
H354 C351 0.950 . S
C355 C346 1.390 . S
C355 H348 0.950 . S
C355 C352 1.387 . S
C356 C357 1.387 . S
C356 H360 0.950 . S
C356 C365 1.390 . S
C357 C356 1.387 . S
C357 C359 1.387 . S
H358 C365 0.950 . S
C359 C357 1.387 . S
C359 C361 1.390 . S
C359 H363 0.950 . S
H360 C356 0.950 . S
C361 C359 1.390 . S
C361 C362 1.387 . S
C361 H364 0.950 . S
C362 C361 1.387 . S
C362 C365 1.387 . S
H363 C359 0.950 . S
H364 C361 0.950 . S
C365 C356 1.390 . S
C365 H358 0.950 . S
C365 C362 1.387 . S
C366 C367 1.387 . S
C366 H370 0.950 . S
C366 C375 1.390 . S
C367 C366 1.387 . S
C367 C369 1.387 . S
H368 C375 0.950 . S
C369 C367 1.387 . S
C369 C371 1.390 . S
C369 H373 0.950 . S
H370 C366 0.950 . S
C371 C369 1.390 . S
C371 C372 1.387 . S
C371 H374 0.950 . S
C372 C371 1.387 . S
C372 C375 1.387 . S
H373 C369 0.950 . S
H374 C371 0.950 . S
C375 C366 1.390 . S
C375 H368 0.950 . S
C375 C372 1.387 . S
C376 C377 1.387 . S
C376 H380 0.950 . S
C376 C385 1.390 . S
C377 C376 1.387 . S
C377 C379 1.387 . S
H378 C385 0.950 . S
C379 C377 1.387 . S
C379 C381 1.390 . S
C379 H383 0.950 . S
H380 C376 0.950 . S
C381 C379 1.390 . S
C381 C382 1.387 . S
C381 H384 0.950 . S
C382 C381 1.387 . S
C382 C385 1.387 . S
H383 C379 0.950 . S
H384 C381 0.950 . S
C385 C376 1.390 . S
C385 H378 0.950 . S
C385 C382 1.387 . S
C386 C387 1.387 . S
C386 H390 0.950 . S
C386 C395 1.390 . S
C387 C386 1.387 . S
C387 C389 1.387 . S
H388 C395 0.950 . S
C389 C387 1.387 . S
C389 C391 1.390 . S
C389 H393 0.950 . S
H390 C386 0.950 . S
C391 C389 1.390 . S
C391 C392 1.387 . S
C391 H394 0.950 . S
C392 C391 1.387 . S
C392 C395 1.387 . S
H393 C389 0.950 . S
H394 C391 0.950 . S
C395 C386 1.390 . S
C395 H388 0.950 . S
C395 C392 1.387 . S
C396 C397 1.387 . S
C396 H400 0.950 . S
C396 C405 1.390 . S
C397 C396 1.387 . S
C397 C399 1.387 . S
H398 C405 0.950 . S
C399 C397 1.387 . S
C399 C401 1.390 . S
C399 H403 0.950 . S
H400 C396 0.950 . S
C401 C399 1.390 . S
C401 C402 1.387 . S
C401 H404 0.950 . S
C402 C401 1.387 . S
C402 C405 1.387 . S
H403 C399 0.950 . S
H404 C401 0.950 . S
C405 C396 1.390 . S
C405 H398 0.950 . S
C405 C402 1.387 . S
C406 C407 1.387 . S
C406 H410 0.950 . S
C406 C415 1.390 . S
C407 C406 1.387 . S
C407 C409 1.387 . S
H408 C415 0.950 . S
C409 C407 1.387 . S
C409 C411 1.390 . S
C409 H413 0.950 . S
H410 C406 0.950 . S
C411 C409 1.390 . S
C411 C412 1.387 . S
C411 H414 0.950 . S
C412 C411 1.387 . S
C412 C415 1.387 . S
H413 C409 0.950 . S
H414 C411 0.950 . S
C415 C406 1.390 . S
C415 H408 0.950 . S
C415 C412 1.387 . S
C177 C52 1.546 . S
C182 C8 1.546 . S
C187 C19 1.546 . S
C192 C63 1.546 . S
C197 C74 1.546 . S
C202 C30 1.546 . S
C207 C41 1.546 . S
C212 C85 1.546 . S
C217 C96 1.546 . S
C222 C140 1.546 . S
C227 C151 1.546 . S
C232 C107 1.546 . S
C237 C162 1.546 . S
C242 C118 1.546 . S
C247 C129 1.548 . S
C252 C173 1.548 . S
C257 C7 1.459 . S
C262 C62 1.458 . S
C267 C73 1.456 . S
C272 C18 1.456 . S
C277 C29 1.457 . S
C282 C84 1.456 . S
C287 C40 1.457 . S
C292 C51 1.458 . S
C297 C95 1.457 . S
C302 C150 1.457 . S
C307 C161 1.456 . S
C312 C106 1.456 . S
C317 C117 1.458 . S
C322 C172 1.457 . S
C327 C139 1.459 . S
C332 C128 1.458 . S
C337 C170 1.269 . S
C342 C5 1.269 . S
C347 C137 1.273 . S
C352 C16 1.273 . S
C357 C27 1.272 . S
C362 C148 1.272 . S
C367 C159 1.270 . S
C372 C38 1.271 . S
C377 C49 1.271 . S
C382 C104 1.272 . S
C387 C115 1.270 . S
C392 C60 1.269 . S
C397 C126 1.268 . S
C402 C71 1.268 . S
C407 C93 1.270 . S
C412 C82 1.270 . S
