# Generated by pormake.
# Topology mdf, (4)-cn, num edge types: 1
# Building blocks:
#     Node 0, Type 0, BuildingBlock: QUQFOY_clean_sbu_1, # of connection points: 4
#     Node 1, Type 0, BuildingBlock: QUQFOY_clean_sbu_1, # of connection points: 4
#     Node 2, Type 0, BuildingBlock: QUQFOY_clean_sbu_1, # of connection points: 4
#     Node 3, Type 0, BuildingBlock: QUQFOY_clean_sbu_1, # of connection points: 4
#     Node 4, Type 0, BuildingBlock: QUQFOY_clean_sbu_1, # of connection points: 4
#     Node 5, Type 0, BuildingBlock: QUQFOY_clean_sbu_1, # of connection points: 4
#     Node 6, Type 0, BuildingBlock: QUQFOY_clean_sbu_1, # of connection points: 4
#     Node 7, Type 0, BuildingBlock: QUQFOY_clean_sbu_1, # of connection points: 4
#     Edge 8, Type (0, 0), BuildingBlock: KIFKEQ_clean_linker_1, # of connection points: 2
#     Edge 9, Type (0, 0), BuildingBlock: KIFKEQ_clean_linker_1, # of connection points: 2
#     Edge 10, Type (0, 0), BuildingBlock: KIFKEQ_clean_linker_1, # of connection points: 2
#     Edge 11, Type (0, 0), BuildingBlock: KIFKEQ_clean_linker_1, # of connection points: 2
#     Edge 12, Type (0, 0), BuildingBlock: KIFKEQ_clean_linker_1, # of connection points: 2
#     Edge 13, Type (0, 0), BuildingBlock: KIFKEQ_clean_linker_1, # of connection points: 2
#     Edge 14, Type (0, 0), BuildingBlock: KIFKEQ_clean_linker_1, # of connection points: 2
#     Edge 15, Type (0, 0), BuildingBlock: KIFKEQ_clean_linker_1, # of connection points: 2
#     Edge 16, Type (0, 0), BuildingBlock: KIFKEQ_clean_linker_1, # of connection points: 2
#     Edge 17, Type (0, 0), BuildingBlock: KIFKEQ_clean_linker_1, # of connection points: 2
#     Edge 18, Type (0, 0), BuildingBlock: KIFKEQ_clean_linker_1, # of connection points: 2
#     Edge 19, Type (0, 0), BuildingBlock: KIFKEQ_clean_linker_1, # of connection points: 2
#     Edge 20, Type (0, 0), BuildingBlock: KIFKEQ_clean_linker_1, # of connection points: 2
#     Edge 21, Type (0, 0), BuildingBlock: KIFKEQ_clean_linker_1, # of connection points: 2
#     Edge 22, Type (0, 0), BuildingBlock: KIFKEQ_clean_linker_1, # of connection points: 2
#     Edge 23, Type (0, 0), BuildingBlock: KIFKEQ_clean_linker_1, # of connection points: 2
# Relax obj value: 0.009
# Max RMSD: 0.065
# Mean RMSD: 0.065
data_MOF--net-mdf--node1-QUQFOY_clean_sbu_1--edge1-KIFKEQ_clean_linker_1
_symmetry_space_group_name_H-M    P1
_symmetry_Int_Tables_number       1
_symmetry_cell_setting            triclinic
loop_
_symmetry_equiv_pos_as_xyz
'x, y, z'
_cell_length_a     39.687229
_cell_length_b     39.694613
_cell_length_c     12.508845
_cell_angle_alpha  89.980787
_cell_angle_beta   90.026226
_cell_angle_gamma 89.915793
loop_
_atom_site_label
_atom_site_type_symbol
_atom_site_fract_x
_atom_site_fract_y
_atom_site_fract_z
_atom_type_partial_charge
O0 O 0.31456 0.5056 0.33677 0.0
Cd1 Cd 0.27554 0.53471 0.27863 0.0
Cd2 Cd 0.25664 0.53434 0.48529 0.0
O3 O 0.30257 0.51017 0.50839 0.0
O4 O 0.29166 0.55336 0.13929 0.0
O5 O 0.28183 0.58496 0.28152 0.0
C6 C 0.29237 0.58263 0.1841 0.0
C7 C 0.23995 0.58215 0.58103 0.0
C8 C 0.32163 0.49939 0.43395 0.0
C9 C 0.21056 0.49982 0.32839 0.0
O10 O 0.21758 0.5056 0.42586 0.0
O11 O 0.22966 0.51084 0.25449 0.0
O12 O 0.24058 0.55276 0.62514 0.0
O13 O 0.25046 0.58465 0.48361 0.0
O14 O 0.53174 0.72096 0.68721 0.0
Cd15 Cd 0.50055 0.75875 0.7419 0.0
Cd16 Cd 0.49912 0.77539 0.53484 0.0
O17 O 0.52209 0.72858 0.51521 0.0
O18 O 0.48117 0.74295 0.88065 0.0
O19 O 0.45065 0.75074 0.73464 0.0
C20 C 0.45235 0.74106 0.8331 0.0
C21 C 0.45149 0.79263 0.4387 0.0
C22 C 0.53572 0.71182 0.59063 0.0
C23 C 0.53406 0.82329 0.68601 0.0
O24 O 0.52889 0.81458 0.58952 0.0
O25 O 0.52252 0.80553 0.76233 0.0
O26 O 0.48073 0.79078 0.39395 0.0
O27 O 0.44898 0.78293 0.53693 0.0
O28 O 0.31314 0.03174 0.93425 0.0
Cd29 Cd 0.27513 0.99994 0.98512 0.0
Cd30 Cd 0.26107 0.99971 0.77796 0.0
O31 O 0.30881 0.02028 0.76234 0.0
O32 O 0.28997 0.98082 0.12571 0.0
O33 O 0.2845 0.95022 0.97905 0.0
C34 C 0.29316 0.95208 0.07841 0.0
C35 C 0.24286 0.95176 0.6862 0.0
C36 C 0.32416 0.03464 0.83921 0.0
C37 C 0.21212 0.03512 0.92247 0.0
O38 O 0.22318 0.0319 0.8276 0.0
O39 O 0.22739 0.02088 0.99985 0.0
O40 O 0.24613 0.98034 0.63802 0.0
O41 O 0.25157 0.95009 0.78555 0.0
O42 O 1.00568 0.71935 0.09392 0.0
Cd43 Cd 0.03538 0.75868 0.03975 0.0
Cd44 Cd 0.03362 0.77519 0.24682 0.0
O45 O 1.01182 0.72831 0.26687 0.0
O46 O 0.05391 0.74354 0.89884 0.0
O47 O 0.08554 0.75129 0.04221 0.0
C48 C 0.08313 0.74174 0.94382 0.0
C49 C 0.08168 0.79319 0.33822 0.0
C50 C 1.00041 0.71056 0.1903 0.0
C51 C 0.99847 0.82208 0.09532 0.0
O52 O 1.00231 0.81286 0.19189 0.0
O53 O 1.0123 0.80544 0.02005 0.0
O54 O 0.05286 0.79114 0.38561 0.0
O55 O 0.08348 0.78344 0.23986 0.0
O56 O 0.81332 1.00178 0.82545 0.0
Cd57 Cd 0.77574 0.03304 0.76963 0.0
Cd58 Cd 0.75885 0.03478 0.97638 0.0
O59 O 0.8056 1.01174 0.99717 0.0
O60 O 0.7919 0.05197 0.63066 0.0
O61 O 0.78407 0.0829 0.77565 0.0
C62 C 0.79393 0.08088 0.67744 0.0
C63 C 0.74158 0.08259 0.07131 0.0
C64 C 0.82237 0.99793 0.92218 0.0
C65 C 0.71102 0.99981 0.82502 0.0
O66 O 0.71966 1.00503 0.92156 0.0
O67 O 0.72888 1.01126 0.7488 0.0
O68 O 0.74333 0.05343 0.11668 0.0
O69 O 0.75141 0.08492 0.97317 0.0
O70 O 0.03169 0.22097 0.17731 0.0
Cd71 Cd 1.0006 0.25879 0.23232 0.0
Cd72 Cd 0.99949 0.2755 0.02536 0.0
O73 O 0.02234 0.22866 1.00521 0.0
O74 O 0.98186 0.24283 0.37179 0.0
O75 O 0.9507 0.25055 0.22715 0.0
C76 C 0.95287 0.24076 0.32542 0.0
C77 C 0.95151 0.29268 0.93092 0.0
C78 C 0.03579 0.21183 0.08079 0.0
C79 C 0.03448 0.32324 0.17666 0.0
O80 O 0.02945 0.31455 0.08007 0.0
O81 O 0.02265 0.30555 0.25275 0.0
O82 O 0.9806 0.29093 0.88518 0.0
O83 O 0.94936 0.28298 0.02925 0.0
O84 O 0.81456 0.52852 0.4217 0.0
Cd85 Cd 0.77522 0.49881 0.4757 0.0
Cd86 Cd 0.75869 0.50062 0.26847 0.0
O87 O 0.80557 0.52247 0.24873 0.0
O88 O 0.79042 0.48012 0.61641 0.0
O89 O 0.78257 0.44865 0.4728 0.0
C90 C 0.7922 0.45095 0.57117 0.0
C91 C 0.74078 0.45272 0.17604 0.0
C92 C 0.82333 0.53383 0.32535 0.0
C93 C 0.71179 0.53571 0.42009 0.0
O94 O 0.72097 0.53185 0.32352 0.0
O95 O 0.72845 0.52191 0.49542 0.0
O96 O 0.74283 0.48163 0.1292 0.0
O97 O 0.75045 0.45074 0.27448 0.0
O98 O 0.50281 0.22044 0.57607 0.0
Cd99 Cd 0.53341 0.25849 0.5202 0.0
Cd100 Cd 0.53496 0.27512 0.72717 0.0
O101 O 0.51267 0.22816 0.74785 0.0
O102 O 0.55232 0.24268 0.38064 0.0
O103 O 0.58342 0.25059 0.52522 0.0
C104 C 0.58134 0.24079 0.42697 0.0
C105 C 0.58278 0.29259 0.82132 0.0
C106 C 0.49913 0.21126 0.67274 0.0
C107 C 0.49907 0.32272 0.57716 0.0
O108 O 0.50448 0.31396 0.67351 0.0
O109 O 0.51084 0.30518 0.50057 0.0
O110 O 0.55374 0.29059 0.86724 0.0
O111 O 0.58498 0.28297 0.72293 0.0
H112 H 0.44665 0.72344 0.04345 0.0
H113 H 0.39193 0.72279 0.74483 0.0
H114 H 0.40218 0.69028 0.12643 0.0
H115 H 0.3472 0.68975 0.82839 0.0
H116 H 0.31118 0.58692 0.97456 0.0
H117 H 0.34474 0.63088 0.89057 0.0
H118 H 0.34279 0.68819 0.18395 0.0
H119 H 0.30933 0.64395 0.26859 0.0
C120 C 0.42483 0.71675 0.99598 0.0
C121 C 0.42301 0.72549 0.88723 0.0
C122 C 0.3992 0.69789 0.0438 0.0
C123 C 0.37122 0.68714 0.98383 0.0
C124 C 0.36862 0.69729 0.87639 0.0
C125 C 0.39417 0.71638 0.82871 0.0
C126 C 0.31739 0.60915 0.02071 0.0
C127 C 0.30785 0.61176 0.12861 0.0
C128 C 0.33649 0.63448 0.9723 0.0
C129 C 0.3467 0.66294 0.03081 0.0
C130 C 0.33569 0.66637 0.13715 0.0
C131 C 0.31634 0.64111 0.1854 0.0
H132 H 0.44788 0.81113 0.22858 0.0
H133 H 0.39014 0.81064 0.52123 0.0
H134 H 0.40434 0.84488 0.14252 0.0
H135 H 0.3463 0.84423 0.43451 0.0
H136 H 0.31032 0.94712 0.28951 0.0
H137 H 0.34379 0.90318 0.37479 0.0
H138 H 0.34591 0.84747 0.07832 0.0
H139 H 0.31264 0.89168 0.99247 0.0
C140 C 0.42559 0.81769 0.27401 0.0
C141 C 0.42265 0.80843 0.38209 0.0
C142 C 0.4005 0.83691 0.22442 0.0
C143 C 0.37192 0.84752 0.28185 0.0
C144 C 0.36821 0.83686 0.38847 0.0
C145 C 0.39324 0.81742 0.43793 0.0
C146 C 0.31745 0.92526 0.24286 0.0
C147 C 0.30905 0.92309 0.13389 0.0
C148 C 0.3365 0.89993 0.29198 0.0
C149 C 0.34777 0.87189 0.2332 0.0
C150 C 0.33801 0.86895 0.12548 0.0
C151 C 0.31876 0.89421 0.07647 0.0
H152 H 0.14241 0.81085 0.25085 0.0
H153 H 0.0868 0.81202 0.54763 0.0
H154 H 0.18706 0.8441 0.33407 0.0
H155 H 0.13112 0.84546 0.63017 0.0
H156 H 0.22382 0.8915 0.77373 0.0
H157 H 0.18989 0.84747 0.69024 0.0
H158 H 0.19054 0.90296 0.39314 0.0
H159 H 0.2247 0.94669 0.476 0.0
C160 C 0.13994 0.81773 0.33426 0.0
C161 C 0.1109 0.80902 0.39234 0.0
C162 C 0.16543 0.83697 0.38173 0.0
C163 C 0.16256 0.84769 0.48853 0.0
C164 C 0.13433 0.83741 0.54808 0.0
C165 C 0.10878 0.81838 0.5005 0.0
C166 C 0.21724 0.894 0.69005 0.0
C167 C 0.22672 0.92277 0.6318 0.0
C168 C 0.19762 0.86886 0.64241 0.0
C169 C 0.18722 0.87182 0.5353 0.0
C170 C 0.1983 0.8997 0.47553 0.0
C171 C 0.21776 0.92491 0.52327 0.0
H172 H 0.14411 0.72292 0.02735 0.0
H173 H 0.0873 0.72454 0.73272 0.0
H174 H 0.18794 0.68943 0.94037 0.0
H175 H 0.1309 0.69096 0.64629 0.0
H176 H 0.2227 0.64365 0.49787 0.0
H177 H 0.18997 0.68811 0.5847 0.0
H178 H 0.18923 0.6305 0.87764 0.0
H179 H 0.22202 0.5863 0.79139 0.0
C180 C 0.14124 0.71666 0.94357 0.0
C181 C 0.11206 0.72615 0.88724 0.0
C182 C 0.16626 0.69729 0.89394 0.0
C183 C 0.1628 0.68726 0.78665 0.0
C184 C 0.13453 0.69844 0.72875 0.0
C185 C 0.10941 0.71756 0.77854 0.0
C186 C 0.21609 0.64078 0.58138 0.0
C187 C 0.22473 0.61129 0.63746 0.0
C188 C 0.19717 0.66617 0.63091 0.0
C189 C 0.18675 0.66276 0.73785 0.0
C190 C 0.19704 0.63411 0.79548 0.0
C191 C 0.2157 0.60863 0.74578 0.0
H192 H 0.81222 0.1415 0.76413 0.0
H193 H 0.81232 0.08574 0.46759 0.0
H194 H 0.84563 0.18585 0.67996 0.0
H195 H 0.84588 0.12981 0.38405 0.0
H196 H 0.94839 0.22224 0.53532 0.0
H197 H 0.90458 0.18843 0.61922 0.0
H198 H 0.84801 0.18884 0.32417 0.0
H199 H 0.89209 0.2225 0.23965 0.0
C200 C 0.81889 0.13895 0.68056 0.0
C201 C 0.80985 0.10994 0.62282 0.0
C202 C 0.83821 0.16427 0.63255 0.0
C203 C 0.84866 0.16127 0.52553 0.0
C204 C 0.83804 0.1331 0.46632 0.0
C205 C 0.81895 0.1077 0.51446 0.0
C206 C 0.92636 0.21561 0.48873 0.0
C207 C 0.9239 0.22481 0.38047 0.0
C208 C 0.90111 0.19636 0.53708 0.0
C209 C 0.87288 0.1857 0.47817 0.0
C210 C 0.86965 0.19629 0.37133 0.0
C211 C 0.89482 0.21575 0.32312 0.0
H212 H 0.89055 0.31099 0.01572 0.0
H213 H 0.94689 0.31039 0.72032 0.0
H214 H 0.84624 0.34417 0.92977 0.0
H215 H 0.90285 0.34369 0.63497 0.0
H216 H 0.81048 0.38987 0.4874 0.0
H217 H 0.84392 0.34585 0.57375 0.0
H218 H 0.84361 0.40298 0.86754 0.0
H219 H 0.81004 0.44673 0.78179 0.0
C220 C 0.89324 0.31743 0.93201 0.0
C221 C 0.9224 0.30827 0.87513 0.0
C222 C 0.86794 0.33663 0.88297 0.0
C223 C 0.8711 0.34683 0.77573 0.0
C224 C 0.89942 0.33606 0.71738 0.0
C225 C 0.92481 0.3171 0.76656 0.0
C226 C 0.817 0.39272 0.571 0.0
C227 C 0.80783 0.42196 0.62744 0.0
C228 C 0.83635 0.36759 0.62026 0.0
C229 C 0.84671 0.371 0.72729 0.0
C230 C 0.83588 0.39937 0.78529 0.0
C231 C 0.81676 0.42459 0.73588 0.0
H232 H 0.72261 0.392 0.26244 0.0
H233 H 0.72275 0.44778 0.96582 0.0
H234 H 0.68954 0.34751 0.17771 0.0
H235 H 0.68952 0.40357 0.88171 0.0
H236 H 0.58711 0.3108 0.03147 0.0
H237 H 0.63075 0.34464 0.11609 0.0
H238 H 0.6876 0.34459 0.82174 0.0
H239 H 0.64367 0.31092 0.73647 0.0
C240 C 0.71607 0.39454 0.17875 0.0
C241 C 0.72508 0.42359 0.12114 0.0
C242 C 0.69695 0.36913 0.13041 0.0
C243 C 0.68665 0.37209 0.02318 0.0
C244 C 0.69724 0.40031 0.96413 0.0
C245 C 0.71615 0.42579 0.01261 0.0
C246 C 0.60917 0.31751 0.9852 0.0
C247 C 0.61173 0.30842 0.8769 0.0
C248 C 0.63432 0.33677 0.03397 0.0
C249 C 0.66257 0.34757 0.97545 0.0
C250 C 0.66594 0.33705 0.8686 0.0
C251 C 0.64086 0.31757 0.81996 0.0
H252 H 0.72324 0.14359 0.98688 0.0
H253 H 0.7233 0.08677 0.28147 0.0
H254 H 0.68947 0.18751 0.0723 0.0
H255 H 0.6894 0.13043 0.36629 0.0
H256 H 0.64214 0.22249 0.51301 0.0
H257 H 0.68659 0.18929 0.42812 0.0
H258 H 0.63038 0.18946 0.13239 0.0
H259 H 0.58619 0.22279 0.2167 0.0
C260 C 0.71656 0.14073 0.07033 0.0
C261 C 0.72573 0.11153 0.12709 0.0
C262 C 0.69702 0.1658 0.11905 0.0
C263 C 0.68648 0.16237 0.22585 0.0
C264 C 0.69728 0.13404 0.28421 0.0
C265 C 0.71659 0.10889 0.23534 0.0
C266 C 0.63956 0.21596 0.42933 0.0
C267 C 0.61047 0.22506 0.37187 0.0
C268 C 0.66495 0.19676 0.3809 0.0
C269 C 0.66195 0.18648 0.27371 0.0
C270 C 0.63368 0.19716 0.21479 0.0
C271 C 0.60821 0.21613 0.26337 0.0
H272 H 0.33588 0.46672 0.62168 0.0
H273 H 0.37402 0.48277 0.30242 0.0
H274 H 0.38107 0.42655 0.6557 0.0
H275 H 0.42 0.4437 0.33758 0.0
H276 H 0.46953 0.3404 0.38741 0.0
H277 H 0.42909 0.38541 0.35548 0.0
H278 H 0.43914 0.41757 0.68412 0.0
H279 H 0.47857 0.37165 0.71688 0.0
C280 C 0.35428 0.46215 0.55941 0.0
C281 C 0.35115 0.47778 0.45909 0.0
C282 C 0.38037 0.43918 0.57901 0.0
C283 C 0.40423 0.43154 0.49916 0.0
C284 C 0.40176 0.44827 0.40026 0.0
C285 C 0.37547 0.47092 0.3803 0.0
C286 C 0.46336 0.35727 0.45261 0.0
C287 C 0.47717 0.35225 0.55484 0.0
C288 C 0.44023 0.38328 0.43422 0.0
C289 C 0.43057 0.40521 0.51731 0.0
C290 C 0.44535 0.40084 0.61867 0.0
C291 C 0.46821 0.37461 0.63731 0.0
H292 H 0.6945 0.96898 0.63662 0.0
H293 H 0.6604 0.98189 0.96188 0.0
H294 H 0.64917 0.92907 0.60452 0.0
H295 H 0.61408 0.9431 0.92871 0.0
H296 H 0.56471 0.83996 0.87463 0.0
H297 H 0.60473 0.88518 0.90664 0.0
H298 H 0.59124 0.91989 0.58168 0.0
H299 H 0.55234 0.87366 0.54864 0.0
C300 C 0.67691 0.9638 0.70072 0.0
C301 C 0.68125 0.97845 0.80202 0.0
C302 C 0.65071 0.94098 0.68221 0.0
C303 C 0.62789 0.93255 0.76415 0.0
C304 C 0.63152 0.94832 0.86427 0.0
C305 C 0.65797 0.97079 0.88314 0.0
C306 C 0.57003 0.85744 0.81033 0.0
C307 C 0.5555 0.85302 0.70887 0.0
C308 C 0.59292 0.88358 0.82879 0.0
C309 C 0.60154 0.90627 0.74662 0.0
C310 C 0.58588 0.90256 0.64631 0.0
C311 C 0.56334 0.87616 0.62751 0.0
H312 H 0.04305 0.17758 0.89123 0.0
H313 H 0.0791 0.1801 0.21697 0.0
H314 H 0.08184 0.13144 0.85214 0.0
H315 H 0.11881 0.1354 0.17716 0.0
H316 H 0.17374 0.03952 0.10429 0.0
H317 H 0.12762 0.07851 0.14048 0.0
H318 H 0.13919 0.12115 0.82445 0.0
H319 H 0.18397 0.08115 0.78697 0.0
C320 C 0.05925 0.16831 0.95445 0.0
C321 C 0.05796 0.18261 0.05713 0.0
C322 C 0.08171 0.14197 0.93196 0.0
C323 C 0.10376 0.12958 0.01122 0.0
C324 C 0.10193 0.14363 0.11432 0.0
C325 C 0.07923 0.16958 0.13708 0.0
C326 C 0.16615 0.05701 0.04227 0.0
C327 C 0.18265 0.05726 0.94293 0.0
C328 C 0.13982 0.07959 0.06317 0.0
C329 C 0.12966 0.10338 0.98585 0.0
C330 C 0.14576 0.103 0.88562 0.0
C331 C 0.17172 0.08012 0.86426 0.0
H332 H 0.9824 0.66024 0.05244 0.0
H333 H 0.96954 0.69372 0.37836 0.0
H334 H 0.94348 0.61397 0.0846 0.0
H335 H 0.9295 0.64844 0.40948 0.0
H336 H 0.87372 0.55171 0.46326 0.0
H337 H 0.92008 0.59052 0.43115 0.0
H338 H 0.88553 0.60472 0.10632 0.0
H339 H 0.84017 0.56478 0.13738 0.0
C340 C 0.97129 0.65769 0.13111 0.0
C341 C 0.979 0.68078 0.21271 0.0
C342 C 0.94873 0.63126 0.14941 0.0
C343 C 0.93293 0.62747 0.24942 0.0
C344 C 0.94143 0.65011 0.33184 0.0
C345 C 0.96432 0.67628 0.3139 0.0
C346 C 0.87628 0.56284 0.38461 0.0
C347 C 0.85314 0.55522 0.30301 0.0
C348 C 0.90276 0.58534 0.36634 0.0
C349 C 0.90655 0.60117 0.26635 0.0
C350 C 0.88387 0.59277 0.18394 0.0
C351 C 0.85764 0.56993 0.20185 0.0
H352 H 0.36218 0.03852 0.65659 0.0
H353 H 0.3526 0.08084 0.97316 0.0
H354 H 0.40807 0.07743 0.61829 0.0
H355 H 0.39718 0.12075 0.93357 0.0
H356 H 0.49284 0.17713 0.86279 0.0
H357 H 0.45447 0.13093 0.90388 0.0
H358 H 0.41637 0.13435 0.5801 0.0
H359 H 0.45565 0.17916 0.53827 0.0
C360 C 0.36988 0.05613 0.71803 0.0
C361 C 0.35361 0.05662 0.81774 0.0
C362 C 0.39607 0.07866 0.69589 0.0
C363 C 0.40633 0.10262 0.77236 0.0
C364 C 0.39051 0.10246 0.87303 0.0
C365 C 0.36468 0.07963 0.89561 0.0
C366 C 0.47648 0.16773 0.80024 0.0
C367 C 0.47731 0.18192 0.69734 0.0
C368 C 0.45427 0.14135 0.82389 0.0
C369 C 0.43202 0.12881 0.7456 0.0
C370 C 0.43341 0.14272 0.64221 0.0
C371 C 0.45588 0.16872 0.61828 0.0
H372 H 0.85742 0.99228 0.11076 0.0
H373 H 0.8529 0.9528 0.78941 0.0
H374 H 0.90331 0.95344 0.15204 0.0
H375 H 0.89732 0.91296 0.83163 0.0
H376 H 0.99307 0.85757 0.9076 0.0
H377 H 0.95415 0.90341 0.86669 0.0
H378 H 0.91313 0.89659 0.18623 0.0
H379 H 0.95306 0.85219 0.22814 0.0
C380 C 0.86619 0.97528 0.04899 0.0
C381 C 0.85143 0.97565 0.9469 0.0
C382 C 0.89239 0.95279 0.07276 0.0
C383 C 0.90412 0.92972 0.99551 0.0
C384 C 0.8896 0.9306 0.8929 0.0
C385 C 0.86382 0.95339 0.86877 0.0
C386 C 0.97593 0.86614 0.96927 0.0
C387 C 0.97617 0.85114 0.071 0.0
C388 C 0.95339 0.89231 0.94571 0.0
C389 C 0.93013 0.90378 0.02279 0.0
C390 C 0.93091 0.88905 0.12511 0.0
C391 C 0.95374 0.8633 0.14905 0.0
H392 H 0.05491 0.3726 0.03844 0.0
H393 H 0.06335 0.34063 0.36746 0.0
H394 H 0.09388 0.41867 0.07329 0.0
H395 H 0.10334 0.38573 0.40145 0.0
H396 H 0.15794 0.48286 0.45842 0.0
H397 H 0.11211 0.44392 0.42109 0.0
H398 H 0.15175 0.42779 0.10328 0.0
H399 H 0.19674 0.46784 0.13943 0.0
C400 C 0.06504 0.37544 0.11835 0.0
C401 C 0.05606 0.35284 0.20008 0.0
C402 C 0.08763 0.40175 0.1382 0.0
C403 C 0.10211 0.40594 0.24005 0.0
C404 C 0.09242 0.38376 0.32239 0.0
C405 C 0.06955 0.35769 0.3028 0.0
C406 C 0.15666 0.47127 0.38014 0.0
C407 C 0.18112 0.47836 0.30207 0.0
C408 C 0.13047 0.4487 0.35892 0.0
C409 C 0.12826 0.43228 0.25947 0.0
C410 C 0.15224 0.44018 0.18034 0.0
C411 C 0.17822 0.46308 0.20119 0.0
H412 H 0.54143 0.67652 0.40269 0.0
H413 H 0.58078 0.68141 0.72422 0.0
H414 H 0.58032 0.63063 0.36225 0.0
H415 H 0.62069 0.63698 0.68281 0.0
H416 H 0.67638 0.54129 0.6079 0.0
H417 H 0.63049 0.58019 0.6484 0.0
H418 H 0.63715 0.62089 0.32835 0.0
H419 H 0.68157 0.58099 0.28687 0.0
C420 C 0.55841 0.66783 0.46468 0.0
C421 C 0.558 0.68271 0.56656 0.0
C422 C 0.58094 0.64163 0.44139 0.0
C423 C 0.60401 0.63001 0.5189 0.0
C424 C 0.60306 0.64463 0.62135 0.0
C425 C 0.58023 0.67041 0.64501 0.0
C426 C 0.66776 0.55835 0.54604 0.0
C427 C 0.68271 0.55802 0.44427 0.0
C428 C 0.64156 0.58088 0.56936 0.0
C429 C 0.63002 0.60404 0.492 0.0
C430 C 0.64472 0.60319 0.38969 0.0
C431 C 0.6705 0.58036 0.36599 0.0
loop_
_geom_bond_atom_site_label_1
_geom_bond_atom_site_label_2
_geom_bond_distance
_geom_bond_site_symmetry_2
_ccdc_geom_bond_type
O0 Cd1 2.223 . S
O0 C8 1.315 . S
Cd1 O0 2.223 . S
Cd1 O4 2.297 . S
Cd1 O5 2.439 . S
Cd1 O11 2.240 . S
Cd2 O3 2.240 . S
Cd2 O10 2.223 . S
Cd2 O12 2.297 . S
Cd2 O13 2.439 . S
O3 Cd2 2.240 . S
O3 C8 1.279 . S
O4 Cd1 2.297 . S
O4 C6 1.247 . S
O5 Cd1 2.439 . S
O5 C6 1.208 . S
C6 O4 1.247 . S
C6 O5 1.208 . S
C7 O12 1.247 . S
C7 O13 1.208 . S
C8 O0 1.315 . S
C8 O3 1.279 . S
C9 O10 1.315 . S
C9 O11 1.279 . S
O10 Cd2 2.223 . S
O10 C9 1.315 . S
O11 Cd1 2.240 . S
O11 C9 1.279 . S
O12 Cd2 2.297 . S
O12 C7 1.247 . S
O13 Cd2 2.439 . S
O13 C7 1.208 . S
O14 Cd15 2.223 . S
O14 C22 1.315 . S
Cd15 O14 2.223 . S
Cd15 O18 2.297 . S
Cd15 O19 2.439 . S
Cd15 O25 2.240 . S
Cd16 O17 2.240 . S
Cd16 O24 2.223 . S
Cd16 O26 2.297 . S
Cd16 O27 2.439 . S
O17 Cd16 2.240 . S
O17 C22 1.279 . S
O18 Cd15 2.297 . S
O18 C20 1.247 . S
O19 Cd15 2.439 . S
O19 C20 1.208 . S
C20 O18 1.247 . S
C20 O19 1.208 . S
C21 O26 1.247 . S
C21 O27 1.208 . S
C22 O14 1.315 . S
C22 O17 1.279 . S
C23 O24 1.315 . S
C23 O25 1.279 . S
O24 Cd16 2.223 . S
O24 C23 1.315 . S
O25 Cd15 2.240 . S
O25 C23 1.279 . S
O26 Cd16 2.297 . S
O26 C21 1.247 . S
O27 Cd16 2.439 . S
O27 C21 1.208 . S
O28 Cd29 2.223 1_556 S
O28 C36 1.315 . S
Cd29 O28 2.223 1_554 S
Cd29 O32 2.297 1_545 S
Cd29 O33 2.439 1_544 S
Cd29 O39 2.240 1_554 S
Cd30 O31 2.240 . S
Cd30 O38 2.223 . S
Cd30 O40 2.297 1_545 S
Cd30 O41 2.439 1_545 S
O31 Cd30 2.240 . S
O31 C36 1.279 . S
O32 Cd29 2.297 1_565 S
O32 C34 1.247 . S
O33 Cd29 2.439 1_566 S
O33 C34 1.208 1_556 S
C34 O32 1.247 . S
C34 O33 1.208 1_554 S
C35 O40 1.247 . S
C35 O41 1.208 . S
C36 O28 1.315 . S
C36 O31 1.279 . S
C37 O38 1.315 . S
C37 O39 1.279 . S
O38 Cd30 2.223 . S
O38 C37 1.315 . S
O39 Cd29 2.240 1_556 S
O39 C37 1.279 . S
O40 Cd30 2.297 1_565 S
O40 C35 1.247 . S
O41 Cd30 2.439 1_565 S
O41 C35 1.208 . S
O42 Cd43 2.223 1_554 S
O42 C50 1.315 . S
Cd43 O42 2.223 1_556 S
Cd43 O46 2.297 1_655 S
Cd43 O47 2.439 1_656 S
Cd43 O53 2.240 1_556 S
Cd44 O45 2.240 . S
Cd44 O52 2.223 . S
Cd44 O54 2.297 1_655 S
Cd44 O55 2.439 1_655 S
O45 Cd44 2.240 . S
O45 C50 1.279 . S
O46 Cd43 2.297 1_455 S
O46 C48 1.247 . S
O47 Cd43 2.439 1_454 S
O47 C48 1.208 1_554 S
C48 O46 1.247 . S
C48 O47 1.208 1_556 S
C49 O54 1.247 . S
C49 O55 1.208 . S
C50 O42 1.315 . S
C50 O45 1.279 . S
C51 O52 1.315 . S
C51 O53 1.279 . S
O52 Cd44 2.223 . S
O52 C51 1.315 . S
O53 Cd43 2.240 1_554 S
O53 C51 1.279 . S
O54 Cd44 2.297 1_455 S
O54 C49 1.247 . S
O55 Cd44 2.439 1_455 S
O55 C49 1.208 . S
O56 Cd57 2.223 . S
O56 C64 1.315 . S
Cd57 O56 2.223 . S
Cd57 O60 2.297 1_565 S
Cd57 O61 2.439 1_565 S
Cd57 O67 2.240 . S
Cd58 O59 2.240 1_554 S
Cd58 O66 2.223 1_554 S
Cd58 O68 2.297 1_565 S
Cd58 O69 2.439 1_564 S
O59 Cd58 2.240 1_556 S
O59 C64 1.279 . S
O60 Cd57 2.297 1_545 S
O60 C62 1.247 . S
O61 Cd57 2.439 1_545 S
O61 C62 1.208 . S
C62 O60 1.247 . S
C62 O61 1.208 . S
C63 O68 1.247 . S
C63 O69 1.208 1_554 S
C64 O56 1.315 . S
C64 O59 1.279 . S
C65 O66 1.315 . S
C65 O67 1.279 . S
O66 Cd58 2.223 1_556 S
O66 C65 1.315 . S
O67 Cd57 2.240 . S
O67 C65 1.279 . S
O68 Cd58 2.297 1_545 S
O68 C63 1.247 . S
O69 Cd58 2.439 1_546 S
O69 C63 1.208 1_556 S
O70 Cd71 2.223 . S
O70 C78 1.315 . S
Cd71 O70 2.223 . S
Cd71 O74 2.297 1_455 S
Cd71 O75 2.439 1_455 S
Cd71 O81 2.240 . S
Cd72 O73 2.240 1_556 S
Cd72 O80 2.223 1_556 S
Cd72 O82 2.297 1_455 S
Cd72 O83 2.439 1_456 S
O73 Cd72 2.240 1_554 S
O73 C78 1.279 . S
O74 Cd71 2.297 1_655 S
O74 C76 1.247 . S
O75 Cd71 2.439 1_655 S
O75 C76 1.208 . S
C76 O74 1.247 . S
C76 O75 1.208 . S
C77 O82 1.247 . S
C77 O83 1.208 1_556 S
C78 O70 1.315 . S
C78 O73 1.279 . S
C79 O80 1.315 . S
C79 O81 1.279 . S
O80 Cd72 2.223 1_554 S
O80 C79 1.315 . S
O81 Cd71 2.240 . S
O81 C79 1.279 . S
O82 Cd72 2.297 1_655 S
O82 C77 1.247 . S
O83 Cd72 2.439 1_654 S
O83 C77 1.208 1_554 S
O84 Cd85 2.223 . S
O84 C92 1.315 . S
Cd85 O84 2.223 . S
Cd85 O88 2.297 . S
Cd85 O89 2.439 . S
Cd85 O95 2.240 . S
Cd86 O87 2.240 . S
Cd86 O94 2.223 . S
Cd86 O96 2.297 . S
Cd86 O97 2.439 . S
O87 Cd86 2.240 . S
O87 C92 1.279 . S
O88 Cd85 2.297 . S
O88 C90 1.247 . S
O89 Cd85 2.439 . S
O89 C90 1.208 . S
C90 O88 1.247 . S
C90 O89 1.208 . S
C91 O96 1.247 . S
C91 O97 1.208 . S
C92 O84 1.315 . S
C92 O87 1.279 . S
C93 O94 1.315 . S
C93 O95 1.279 . S
O94 Cd86 2.223 . S
O94 C93 1.315 . S
O95 Cd85 2.240 . S
O95 C93 1.279 . S
O96 Cd86 2.297 . S
O96 C91 1.247 . S
O97 Cd86 2.439 . S
O97 C91 1.208 . S
O98 Cd99 2.223 . S
O98 C106 1.315 . S
Cd99 O98 2.223 . S
Cd99 O102 2.297 . S
Cd99 O103 2.439 . S
Cd99 O109 2.240 . S
Cd100 O101 2.240 . S
Cd100 O108 2.223 . S
Cd100 O110 2.297 . S
Cd100 O111 2.439 . S
O101 Cd100 2.240 . S
O101 C106 1.279 . S
O102 Cd99 2.297 . S
O102 C104 1.247 . S
O103 Cd99 2.439 . S
O103 C104 1.208 . S
C104 O102 1.247 . S
C104 O103 1.208 . S
C105 O110 1.247 . S
C105 O111 1.208 . S
C106 O98 1.315 . S
C106 O101 1.279 . S
C107 O108 1.315 . S
C107 O109 1.279 . S
O108 Cd100 2.223 . S
O108 C107 1.315 . S
O109 Cd99 2.240 . S
O109 C107 1.279 . S
O110 Cd100 2.297 . S
O110 C105 1.247 . S
O111 Cd100 2.439 . S
O111 C105 1.208 . S
H112 C120 0.950 . S
H113 C125 0.950 . S
H114 C122 0.950 . S
H115 C124 0.950 . S
H116 C126 0.950 . S
H117 C128 0.950 . S
H118 C130 0.950 . S
H119 C131 0.950 . S
C120 H112 0.950 . S
C120 C121 1.386 . S
C120 C122 1.391 1_556 S
C121 C120 1.386 . S
C121 C125 1.393 . S
C122 H114 0.950 . S
C122 C120 1.391 1_554 S
C122 C123 1.400 1_554 S
C123 C122 1.400 1_556 S
C123 C124 1.398 . S
C123 C129 1.491 1_556 S
C124 H115 0.950 . S
C124 C123 1.398 . S
C124 C125 1.391 . S
C125 H113 0.950 . S
C125 C121 1.393 . S
C125 C124 1.391 . S
C126 H116 0.950 . S
C126 C127 1.386 . S
C126 C128 1.391 1_554 S
C127 C126 1.386 . S
C127 C131 1.393 . S
C128 H117 0.950 . S
C128 C126 1.391 1_556 S
C128 C129 1.400 1_556 S
C129 C123 1.491 1_554 S
C129 C128 1.400 1_554 S
C129 C130 1.398 . S
C130 H118 0.950 . S
C130 C129 1.398 . S
C130 C131 1.391 . S
C131 H119 0.950 . S
C131 C127 1.393 . S
C131 C130 1.391 . S
H132 C140 0.950 . S
H133 C145 0.950 . S
H134 C142 0.950 . S
H135 C144 0.950 . S
H136 C146 0.950 . S
H137 C148 0.950 . S
H138 C150 0.950 . S
H139 C151 0.950 1_556 S
C140 H132 0.950 . S
C140 C141 1.386 . S
C140 C142 1.391 . S
C141 C140 1.386 . S
C141 C145 1.393 . S
C142 H134 0.950 . S
C142 C140 1.391 . S
C142 C143 1.400 . S
C143 C142 1.400 . S
C143 C144 1.398 . S
C143 C149 1.491 . S
C144 H135 0.950 . S
C144 C143 1.398 . S
C144 C145 1.391 . S
C145 H133 0.950 . S
C145 C141 1.393 . S
C145 C144 1.391 . S
C146 H136 0.950 . S
C146 C147 1.386 . S
C146 C148 1.391 . S
C147 C146 1.386 . S
C147 C151 1.393 . S
C148 H137 0.950 . S
C148 C146 1.391 . S
C148 C149 1.400 . S
C149 C143 1.491 . S
C149 C148 1.400 . S
C149 C150 1.398 . S
C150 H138 0.950 . S
C150 C149 1.398 . S
C150 C151 1.391 . S
C151 H139 0.950 1_554 S
C151 C147 1.393 . S
C151 C150 1.391 . S
H152 C160 0.950 . S
H153 C165 0.950 . S
H154 C162 0.950 . S
H155 C164 0.950 . S
H156 C166 0.950 . S
H157 C168 0.950 . S
H158 C170 0.950 . S
H159 C171 0.950 . S
C160 H152 0.950 . S
C160 C161 1.386 . S
C160 C162 1.391 . S
C161 C160 1.386 . S
C161 C165 1.393 . S
C162 H154 0.950 . S
C162 C160 1.391 . S
C162 C163 1.400 . S
C163 C162 1.400 . S
C163 C164 1.398 . S
C163 C169 1.491 . S
C164 H155 0.950 . S
C164 C163 1.398 . S
C164 C165 1.391 . S
C165 H153 0.950 . S
C165 C161 1.393 . S
C165 C164 1.391 . S
C166 H156 0.950 . S
C166 C167 1.386 . S
C166 C168 1.391 . S
C167 C166 1.386 . S
C167 C171 1.393 . S
C168 H157 0.950 . S
C168 C166 1.391 . S
C168 C169 1.400 . S
C169 C163 1.491 . S
C169 C168 1.400 . S
C169 C170 1.398 . S
C170 H158 0.950 . S
C170 C169 1.398 . S
C170 C171 1.391 . S
C171 H159 0.950 . S
C171 C167 1.393 . S
C171 C170 1.391 . S
H172 C180 0.950 . S
H173 C185 0.950 . S
H174 C182 0.950 . S
H175 C184 0.950 . S
H176 C186 0.950 . S
H177 C188 0.950 . S
H178 C190 0.950 . S
H179 C191 0.950 . S
C180 H172 0.950 . S
C180 C181 1.386 . S
C180 C182 1.391 . S
C181 C180 1.386 . S
C181 C185 1.393 . S
C182 H174 0.950 . S
C182 C180 1.391 . S
C182 C183 1.400 . S
C183 C182 1.400 . S
C183 C184 1.398 . S
C183 C189 1.491 . S
C184 H175 0.950 . S
C184 C183 1.398 . S
C184 C185 1.391 . S
C185 H173 0.950 . S
C185 C181 1.393 . S
C185 C184 1.391 . S
C186 H176 0.950 . S
C186 C187 1.386 . S
C186 C188 1.391 . S
C187 C186 1.386 . S
C187 C191 1.393 . S
C188 H177 0.950 . S
C188 C186 1.391 . S
C188 C189 1.400 . S
C189 C183 1.491 . S
C189 C188 1.400 . S
C189 C190 1.398 . S
C190 H178 0.950 . S
C190 C189 1.398 . S
C190 C191 1.391 . S
C191 H179 0.950 . S
C191 C187 1.393 . S
C191 C190 1.391 . S
H192 C200 0.950 . S
H193 C205 0.950 . S
H194 C202 0.950 . S
H195 C204 0.950 . S
H196 C206 0.950 . S
H197 C208 0.950 . S
H198 C210 0.950 . S
H199 C211 0.950 . S
C200 H192 0.950 . S
C200 C201 1.386 . S
C200 C202 1.391 . S
C201 C200 1.386 . S
C201 C205 1.393 . S
C202 H194 0.950 . S
C202 C200 1.391 . S
C202 C203 1.400 . S
C203 C202 1.400 . S
C203 C204 1.398 . S
C203 C209 1.491 . S
C204 H195 0.950 . S
C204 C203 1.398 . S
C204 C205 1.391 . S
C205 H193 0.950 . S
C205 C201 1.393 . S
C205 C204 1.391 . S
C206 H196 0.950 . S
C206 C207 1.386 . S
C206 C208 1.391 . S
C207 C206 1.386 . S
C207 C211 1.393 . S
C208 H197 0.950 . S
C208 C206 1.391 . S
C208 C209 1.400 . S
C209 C203 1.491 . S
C209 C208 1.400 . S
C209 C210 1.398 . S
C210 H198 0.950 . S
C210 C209 1.398 . S
C210 C211 1.391 . S
C211 H199 0.950 . S
C211 C207 1.393 . S
C211 C210 1.391 . S
H212 C220 0.950 1_554 S
H213 C225 0.950 . S
H214 C222 0.950 . S
H215 C224 0.950 . S
H216 C226 0.950 . S
H217 C228 0.950 . S
H218 C230 0.950 . S
H219 C231 0.950 . S
C220 H212 0.950 1_556 S
C220 C221 1.386 . S
C220 C222 1.391 . S
C221 C220 1.386 . S
C221 C225 1.393 . S
C222 H214 0.950 . S
C222 C220 1.391 . S
C222 C223 1.400 . S
C223 C222 1.400 . S
C223 C224 1.398 . S
C223 C229 1.491 . S
C224 H215 0.950 . S
C224 C223 1.398 . S
C224 C225 1.391 . S
C225 H213 0.950 . S
C225 C221 1.393 . S
C225 C224 1.391 . S
C226 H216 0.950 . S
C226 C227 1.386 . S
C226 C228 1.391 . S
C227 C226 1.386 . S
C227 C231 1.393 . S
C228 H217 0.950 . S
C228 C226 1.391 . S
C228 C229 1.400 . S
C229 C223 1.491 . S
C229 C228 1.400 . S
C229 C230 1.398 . S
C230 H218 0.950 . S
C230 C229 1.398 . S
C230 C231 1.391 . S
C231 H219 0.950 . S
C231 C227 1.393 . S
C231 C230 1.391 . S
H232 C240 0.950 . S
H233 C245 0.950 . S
H234 C242 0.950 . S
H235 C244 0.950 . S
H236 C246 0.950 . S
H237 C248 0.950 . S
H238 C250 0.950 . S
H239 C251 0.950 . S
C240 H232 0.950 . S
C240 C241 1.386 . S
C240 C242 1.391 . S
C241 C240 1.386 . S
C241 C245 1.393 . S
C242 H234 0.950 . S
C242 C240 1.391 . S
C242 C243 1.400 . S
C243 C242 1.400 . S
C243 C244 1.398 . S
C243 C249 1.491 1_554 S
C244 H235 0.950 . S
C244 C243 1.398 . S
C244 C245 1.391 . S
C245 H233 0.950 . S
C245 C241 1.393 . S
C245 C244 1.391 . S
C246 H236 0.950 . S
C246 C247 1.386 . S
C246 C248 1.391 . S
C247 C246 1.386 . S
C247 C251 1.393 . S
C248 H237 0.950 . S
C248 C246 1.391 . S
C248 C249 1.400 . S
C249 C243 1.491 1_556 S
C249 C248 1.400 . S
C249 C250 1.398 . S
C250 H238 0.950 . S
C250 C249 1.398 . S
C250 C251 1.391 . S
C251 H239 0.950 . S
C251 C247 1.393 . S
C251 C250 1.391 . S
H252 C260 0.950 1_556 S
H253 C265 0.950 . S
H254 C262 0.950 . S
H255 C264 0.950 . S
H256 C266 0.950 . S
H257 C268 0.950 . S
H258 C270 0.950 . S
H259 C271 0.950 . S
C260 H252 0.950 1_554 S
C260 C261 1.386 . S
C260 C262 1.391 . S
C261 C260 1.386 . S
C261 C265 1.393 . S
C262 H254 0.950 . S
C262 C260 1.391 . S
C262 C263 1.400 . S
C263 C262 1.400 . S
C263 C264 1.398 . S
C263 C269 1.491 . S
C264 H255 0.950 . S
C264 C263 1.398 . S
C264 C265 1.391 . S
C265 H253 0.950 . S
C265 C261 1.393 . S
C265 C264 1.391 . S
C266 H256 0.950 . S
C266 C267 1.386 . S
C266 C268 1.391 . S
C267 C266 1.386 . S
C267 C271 1.393 . S
C268 H257 0.950 . S
C268 C266 1.391 . S
C268 C269 1.400 . S
C269 C263 1.491 . S
C269 C268 1.400 . S
C269 C270 1.398 . S
C270 H258 0.950 . S
C270 C269 1.398 . S
C270 C271 1.391 . S
C271 H259 0.950 . S
C271 C267 1.393 . S
C271 C270 1.391 . S
H272 C280 0.950 . S
H273 C285 0.950 . S
H274 C282 0.950 . S
H275 C284 0.950 . S
H276 C286 0.950 . S
H277 C288 0.950 . S
H278 C290 0.950 . S
H279 C291 0.950 . S
C280 H272 0.950 . S
C280 C281 1.386 . S
C280 C282 1.391 . S
C281 C280 1.386 . S
C281 C285 1.393 . S
C282 H274 0.950 . S
C282 C280 1.391 . S
C282 C283 1.400 . S
C283 C282 1.400 . S
C283 C284 1.398 . S
C283 C289 1.491 . S
C284 H275 0.950 . S
C284 C283 1.398 . S
C284 C285 1.391 . S
C285 H273 0.950 . S
C285 C281 1.393 . S
C285 C284 1.391 . S
C286 H276 0.950 . S
C286 C287 1.386 . S
C286 C288 1.391 . S
C287 C286 1.386 . S
C287 C291 1.393 . S
C288 H277 0.950 . S
C288 C286 1.391 . S
C288 C289 1.400 . S
C289 C283 1.491 . S
C289 C288 1.400 . S
C289 C290 1.398 . S
C290 H278 0.950 . S
C290 C289 1.398 . S
C290 C291 1.391 . S
C291 H279 0.950 . S
C291 C287 1.393 . S
C291 C290 1.391 . S
H292 C300 0.950 . S
H293 C305 0.950 . S
H294 C302 0.950 . S
H295 C304 0.950 . S
H296 C306 0.950 . S
H297 C308 0.950 . S
H298 C310 0.950 . S
H299 C311 0.950 . S
C300 H292 0.950 . S
C300 C301 1.386 . S
C300 C302 1.391 . S
C301 C300 1.386 . S
C301 C305 1.393 . S
C302 H294 0.950 . S
C302 C300 1.391 . S
C302 C303 1.400 . S
C303 C302 1.400 . S
C303 C304 1.398 . S
C303 C309 1.491 . S
C304 H295 0.950 . S
C304 C303 1.398 . S
C304 C305 1.391 . S
C305 H293 0.950 . S
C305 C301 1.393 . S
C305 C304 1.391 . S
C306 H296 0.950 . S
C306 C307 1.386 . S
C306 C308 1.391 . S
C307 C306 1.386 . S
C307 C311 1.393 . S
C308 H297 0.950 . S
C308 C306 1.391 . S
C308 C309 1.400 . S
C309 C303 1.491 . S
C309 C308 1.400 . S
C309 C310 1.398 . S
C310 H298 0.950 . S
C310 C309 1.398 . S
C310 C311 1.391 . S
C311 H299 0.950 . S
C311 C307 1.393 . S
C311 C310 1.391 . S
H312 C320 0.950 . S
H313 C325 0.950 . S
H314 C322 0.950 . S
H315 C324 0.950 . S
H316 C326 0.950 . S
H317 C328 0.950 . S
H318 C330 0.950 . S
H319 C331 0.950 . S
C320 H312 0.950 . S
C320 C321 1.386 1_556 S
C320 C322 1.391 . S
C321 C320 1.386 1_554 S
C321 C325 1.393 . S
C322 H314 0.950 . S
C322 C320 1.391 . S
C322 C323 1.400 1_556 S
C323 C322 1.400 1_554 S
C323 C324 1.398 . S
C323 C329 1.491 1_554 S
C324 H315 0.950 . S
C324 C323 1.398 . S
C324 C325 1.391 . S
C325 H313 0.950 . S
C325 C321 1.393 . S
C325 C324 1.391 . S
C326 H316 0.950 . S
C326 C327 1.386 1_554 S
C326 C328 1.391 . S
C327 C326 1.386 1_556 S
C327 C331 1.393 . S
C328 H317 0.950 . S
C328 C326 1.391 . S
C328 C329 1.400 1_554 S
C329 C323 1.491 1_556 S
C329 C328 1.400 1_556 S
C329 C330 1.398 . S
C330 H318 0.950 . S
C330 C329 1.398 . S
C330 C331 1.391 . S
C331 H319 0.950 . S
C331 C327 1.393 . S
C331 C330 1.391 . S
H332 C340 0.950 . S
H333 C345 0.950 . S
H334 C342 0.950 . S
H335 C344 0.950 . S
H336 C346 0.950 . S
H337 C348 0.950 . S
H338 C350 0.950 . S
H339 C351 0.950 . S
C340 H332 0.950 . S
C340 C341 1.386 . S
C340 C342 1.391 . S
C341 C340 1.386 . S
C341 C345 1.393 . S
C342 H334 0.950 . S
C342 C340 1.391 . S
C342 C343 1.400 . S
C343 C342 1.400 . S
C343 C344 1.398 . S
C343 C349 1.491 . S
C344 H335 0.950 . S
C344 C343 1.398 . S
C344 C345 1.391 . S
C345 H333 0.950 . S
C345 C341 1.393 . S
C345 C344 1.391 . S
C346 H336 0.950 . S
C346 C347 1.386 . S
C346 C348 1.391 . S
C347 C346 1.386 . S
C347 C351 1.393 . S
C348 H337 0.950 . S
C348 C346 1.391 . S
C348 C349 1.400 . S
C349 C343 1.491 . S
C349 C348 1.400 . S
C349 C350 1.398 . S
C350 H338 0.950 . S
C350 C349 1.398 . S
C350 C351 1.391 . S
C351 H339 0.950 . S
C351 C347 1.393 . S
C351 C350 1.391 . S
H352 C360 0.950 . S
H353 C365 0.950 . S
H354 C362 0.950 . S
H355 C364 0.950 . S
H356 C366 0.950 . S
H357 C368 0.950 . S
H358 C370 0.950 . S
H359 C371 0.950 . S
C360 H352 0.950 . S
C360 C361 1.386 . S
C360 C362 1.391 . S
C361 C360 1.386 . S
C361 C365 1.393 . S
C362 H354 0.950 . S
C362 C360 1.391 . S
C362 C363 1.400 . S
C363 C362 1.400 . S
C363 C364 1.398 . S
C363 C369 1.491 . S
C364 H355 0.950 . S
C364 C363 1.398 . S
C364 C365 1.391 . S
C365 H353 0.950 . S
C365 C361 1.393 . S
C365 C364 1.391 . S
C366 H356 0.950 . S
C366 C367 1.386 . S
C366 C368 1.391 . S
C367 C366 1.386 . S
C367 C371 1.393 . S
C368 H357 0.950 . S
C368 C366 1.391 . S
C368 C369 1.400 . S
C369 C363 1.491 . S
C369 C368 1.400 . S
C369 C370 1.398 . S
C370 H358 0.950 . S
C370 C369 1.398 . S
C370 C371 1.391 . S
C371 H359 0.950 . S
C371 C367 1.393 . S
C371 C370 1.391 . S
H372 C380 0.950 1_554 S
H373 C385 0.950 . S
H374 C382 0.950 . S
H375 C384 0.950 . S
H376 C386 0.950 1_556 S
H377 C388 0.950 . S
H378 C390 0.950 . S
H379 C391 0.950 . S
C380 H372 0.950 1_556 S
C380 C381 1.386 . S
C380 C382 1.391 1_556 S
C381 C380 1.386 . S
C381 C385 1.393 . S
C382 H374 0.950 . S
C382 C380 1.391 1_554 S
C382 C383 1.400 1_554 S
C383 C382 1.400 1_556 S
C383 C384 1.398 . S
C383 C389 1.491 1_556 S
C384 H375 0.950 . S
C384 C383 1.398 . S
C384 C385 1.391 . S
C385 H373 0.950 . S
C385 C381 1.393 . S
C385 C384 1.391 . S
C386 H376 0.950 1_554 S
C386 C387 1.386 . S
C386 C388 1.391 1_554 S
C387 C386 1.386 . S
C387 C391 1.393 . S
C388 H377 0.950 . S
C388 C386 1.391 1_556 S
C388 C389 1.400 1_556 S
C389 C383 1.491 1_554 S
C389 C388 1.400 1_554 S
C389 C390 1.398 . S
C390 H378 0.950 . S
C390 C389 1.398 . S
C390 C391 1.391 . S
C391 H379 0.950 . S
C391 C387 1.393 . S
C391 C390 1.391 . S
H392 C400 0.950 . S
H393 C405 0.950 . S
H394 C402 0.950 . S
H395 C404 0.950 . S
H396 C406 0.950 . S
H397 C408 0.950 . S
H398 C410 0.950 . S
H399 C411 0.950 . S
C400 H392 0.950 . S
C400 C401 1.386 . S
C400 C402 1.391 . S
C401 C400 1.386 . S
C401 C405 1.393 . S
C402 H394 0.950 . S
C402 C400 1.391 . S
C402 C403 1.400 . S
C403 C402 1.400 . S
C403 C404 1.398 . S
C403 C409 1.491 . S
C404 H395 0.950 . S
C404 C403 1.398 . S
C404 C405 1.391 . S
C405 H393 0.950 . S
C405 C401 1.393 . S
C405 C404 1.391 . S
C406 H396 0.950 . S
C406 C407 1.386 . S
C406 C408 1.391 . S
C407 C406 1.386 . S
C407 C411 1.393 . S
C408 H397 0.950 . S
C408 C406 1.391 . S
C408 C409 1.400 . S
C409 C403 1.491 . S
C409 C408 1.400 . S
C409 C410 1.398 . S
C410 H398 0.950 . S
C410 C409 1.398 . S
C410 C411 1.391 . S
C411 H399 0.950 . S
C411 C407 1.393 . S
C411 C410 1.391 . S
H412 C420 0.950 . S
H413 C425 0.950 . S
H414 C422 0.950 . S
H415 C424 0.950 . S
H416 C426 0.950 . S
H417 C428 0.950 . S
H418 C430 0.950 . S
H419 C431 0.950 . S
C420 H412 0.950 . S
C420 C421 1.386 . S
C420 C422 1.391 . S
C421 C420 1.386 . S
C421 C425 1.393 . S
C422 H414 0.950 . S
C422 C420 1.391 . S
C422 C423 1.400 . S
C423 C422 1.400 . S
C423 C424 1.398 . S
C423 C429 1.491 . S
C424 H415 0.950 . S
C424 C423 1.398 . S
C424 C425 1.391 . S
C425 H413 0.950 . S
C425 C421 1.393 . S
C425 C424 1.391 . S
C426 H416 0.950 . S
C426 C427 1.386 . S
C426 C428 1.391 . S
C427 C426 1.386 . S
C427 C431 1.393 . S
C428 H417 0.950 . S
C428 C426 1.391 . S
C428 C429 1.400 . S
C429 C423 1.491 . S
C429 C428 1.400 . S
C429 C430 1.398 . S
C430 H418 0.950 . S
C430 C429 1.398 . S
C430 C431 1.391 . S
C431 H419 0.950 . S
C431 C427 1.393 . S
C431 C430 1.391 . S
C121 C20 1.531 . S
C127 C6 1.526 . S
C141 C21 1.529 . S
C147 C34 1.524 . S
C161 C49 1.516 . S
C167 C35 1.519 . S
C181 C48 1.516 . S
C187 C7 1.519 . S
C201 C62 1.533 . S
C207 C76 1.533 . S
C221 C77 1.523 . S
C227 C90 1.528 . S
C241 C91 1.532 . S
C247 C105 1.533 . S
C261 C63 1.523 . S
C267 C104 1.529 . S
C281 C8 1.546 . S
C287 C107 1.543 . S
C301 C65 1.543 . S
C307 C23 1.538 . S
C321 C78 1.536 . S
C327 C37 1.532 . S
C341 C50 1.537 . S
C347 C92 1.543 . S
C361 C36 1.534 . S
C367 C106 1.532 . S
C381 C64 1.534 . S
C387 C51 1.532 . S
C401 C79 1.544 . S
C407 C9 1.547 . S
C421 C22 1.535 . S
C427 C93 1.532 . S
