# Generated by pormake.
# Topology mmt, (4)-cn, num edge types: 1
# Building blocks:
#     Node 0, Type 0, BuildingBlock: CEKHIL_clean_sbu_0, # of connection points: 4
#     Node 1, Type 0, BuildingBlock: CEKHIL_clean_sbu_0, # of connection points: 4
#     Node 2, Type 0, BuildingBlock: CEKHIL_clean_sbu_0, # of connection points: 4
#     Node 3, Type 0, BuildingBlock: CEKHIL_clean_sbu_0, # of connection points: 4
#     Node 4, Type 0, BuildingBlock: CEKHIL_clean_sbu_0, # of connection points: 4
#     Node 5, Type 0, BuildingBlock: CEKHIL_clean_sbu_0, # of connection points: 4
#     Node 6, Type 0, BuildingBlock: CEKHIL_clean_sbu_0, # of connection points: 4
#     Node 7, Type 0, BuildingBlock: CEKHIL_clean_sbu_0, # of connection points: 4
#     Edge 8, Type (0, 0), BuildingBlock: AJUNOK_clean_linker_0, # of connection points: 2
#     Edge 9, Type (0, 0), BuildingBlock: AJUNOK_clean_linker_0, # of connection points: 2
#     Edge 10, Type (0, 0), BuildingBlock: AJUNOK_clean_linker_0, # of connection points: 2
#     Edge 11, Type (0, 0), BuildingBlock: AJUNOK_clean_linker_0, # of connection points: 2
#     Edge 12, Type (0, 0), BuildingBlock: AJUNOK_clean_linker_0, # of connection points: 2
#     Edge 13, Type (0, 0), BuildingBlock: AJUNOK_clean_linker_0, # of connection points: 2
#     Edge 14, Type (0, 0), BuildingBlock: AJUNOK_clean_linker_0, # of connection points: 2
#     Edge 15, Type (0, 0), BuildingBlock: AJUNOK_clean_linker_0, # of connection points: 2
#     Edge 16, Type (0, 0), BuildingBlock: AJUNOK_clean_linker_0, # of connection points: 2
#     Edge 17, Type (0, 0), BuildingBlock: AJUNOK_clean_linker_0, # of connection points: 2
#     Edge 18, Type (0, 0), BuildingBlock: AJUNOK_clean_linker_0, # of connection points: 2
#     Edge 19, Type (0, 0), BuildingBlock: AJUNOK_clean_linker_0, # of connection points: 2
#     Edge 20, Type (0, 0), BuildingBlock: AJUNOK_clean_linker_0, # of connection points: 2
#     Edge 21, Type (0, 0), BuildingBlock: AJUNOK_clean_linker_0, # of connection points: 2
#     Edge 22, Type (0, 0), BuildingBlock: AJUNOK_clean_linker_0, # of connection points: 2
#     Edge 23, Type (0, 0), BuildingBlock: AJUNOK_clean_linker_0, # of connection points: 2
# Relax obj value: 0.031
# Max RMSD: 0.050
# Mean RMSD: 0.050
data_MOF--net-mmt--node1-CEKHIL_clean_sbu_0--edge1-AJUNOK_clean_linker_0
_symmetry_space_group_name_H-M    P1
_symmetry_Int_Tables_number       1
_symmetry_cell_setting            triclinic
loop_
_symmetry_equiv_pos_as_xyz
'x, y, z'
_cell_length_a     16.344488
_cell_length_b     26.585428
_cell_length_c     32.297948
_cell_angle_alpha  90.029316
_cell_angle_beta   90.08252
_cell_angle_gamma 89.98682
loop_
_atom_site_label
_atom_site_type_symbol
_atom_site_fract_x
_atom_site_fract_y
_atom_site_fract_z
_atom_type_partial_charge
Co0 Co 0.12089 0.58136 0.37392 0.0
O1 O 0.04394 0.58896 0.4196 0.0
O2 O 0.12058 0.52212 0.40914 0.0
C3 C 0.18017 0.65849 0.38015 0.0
O4 O 0.20958 0.55895 0.33304 0.0
Co5 Co 0.12184 0.64883 0.29552 0.0
O6 O 0.22378 0.61304 0.28026 0.0
C7 C 1.00006 0.56646 0.30225 0.0
C8 C 0.06736 0.54487 0.4324 0.0
C9 C 0.24573 0.57358 0.29965 0.0
O10 O 0.03272 0.55155 0.33662 0.0
O11 O 0.02328 0.60635 0.28348 0.0
O12 O 0.20152 0.62173 0.40434 0.0
O13 O 0.11998 0.64892 0.35543 0.0
Co14 Co 0.39455 0.933 0.37467 0.0
O15 O 0.47126 0.92538 0.42051 0.0
O16 O 0.39218 0.99136 0.41069 0.0
C17 C 0.33808 0.85514 0.37934 0.0
O18 O 0.3056 0.95532 0.33386 0.0
Co19 Co 0.39843 0.86875 0.29491 0.0
O20 O 0.29551 0.90348 0.27935 0.0
C21 C 0.51681 0.95218 0.30438 0.0
C22 C 0.44617 0.96893 0.43375 0.0
C23 C 0.27108 0.94163 0.29973 0.0
O24 O 0.48195 0.96508 0.33864 0.0
O25 O 0.49609 0.91275 0.28411 0.0
O26 O 0.3152 0.89106 0.40401 0.0
O27 O 0.39832 0.86586 0.35498 0.0
Co28 Co 0.61991 0.43362 0.15083 0.0
O29 O 0.54221 0.42622 0.10535 0.0
O30 O 0.61954 0.49281 0.11562 0.0
C31 C 0.67819 0.3563 0.14442 0.0
O32 O 0.70932 0.45583 0.19156 0.0
Co33 Co 0.62168 0.36616 0.22925 0.0
O34 O 0.72361 0.40201 0.24454 0.0
C35 C 0.50008 0.44871 0.22262 0.0
C36 C 0.5658 0.47023 0.0925 0.0
C37 C 0.74558 0.44136 0.22504 0.0
O38 O 0.53251 0.46365 0.18827 0.0
O39 O 0.52324 0.40872 0.24132 0.0
O40 O 0.69969 0.39295 0.12019 0.0
O41 O 0.61861 0.36613 0.16935 0.0
Co42 Co 0.89426 0.08246 0.15265 0.0
O43 O 0.97135 0.08933 0.10712 0.0
O44 O 0.89363 0.02298 0.11765 0.0
C45 C 0.83678 0.15995 0.14571 0.0
O46 O 0.80519 0.06127 0.19403 0.0
Co47 Co 0.89749 0.15147 0.2302 0.0
O48 O 0.79424 0.11742 0.24564 0.0
C49 C 0.01586 0.06725 0.22397 0.0
C50 C 0.94737 0.04535 0.09442 0.0
C51 C 0.77032 0.07764 0.22731 0.0
O52 O 0.98202 0.05229 0.18993 0.0
O53 O 0.99465 0.10781 0.24244 0.0
O54 O 0.81433 0.12303 0.12195 0.0
O55 O 0.89697 0.15023 0.17038 0.0
Co56 Co 0.89852 0.43128 0.65172 0.0
O57 O 0.97455 0.4204 0.60632 0.0
O58 O 0.90199 0.4893 0.61491 0.0
C59 C 0.8352 0.35517 0.64719 0.0
O60 O 0.81176 0.4566 0.69259 0.0
Co61 Co 0.89651 0.36572 0.73132 0.0
O62 O 0.79596 0.40331 0.7459 0.0
C63 C 0.02129 0.44615 0.72256 0.0
C64 C 0.95391 0.46443 0.59232 0.0
C65 C 0.77577 0.44304 0.72637 0.0
O66 O 0.98861 0.46053 0.68805 0.0
O67 O 0.99682 0.40718 0.74224 0.0
O68 O 0.81543 0.39161 0.62236 0.0
O69 O 0.89625 0.36426 0.67148 0.0
Co70 Co 0.60959 0.08386 0.65362 0.0
O71 O 0.53513 0.09376 0.60754 0.0
O72 O 0.60936 0.02562 0.61688 0.0
C73 C 0.67065 0.16057 0.64942 0.0
O74 O 0.69543 0.06012 0.69587 0.0
Co75 Co 0.60124 0.14966 0.73264 0.0
O76 O 0.70277 0.11427 0.74909 0.0
C77 C 0.48207 0.06698 0.72212 0.0
C78 C 0.55725 0.0499 0.59386 0.0
C79 C 0.72768 0.07506 0.73031 0.0
O80 O 0.5188 0.05352 0.68853 0.0
O81 O 0.50241 0.10637 0.74255 0.0
O82 O 0.69268 0.12404 0.6252 0.0
O83 O 0.60835 0.15121 0.6728 0.0
Co84 Co 0.39871 0.58417 0.87267 0.0
O85 O 0.4732 0.5949 0.91877 0.0
O86 O 0.40018 0.52626 0.90974 0.0
C87 C 0.33736 0.66084 0.87668 0.0
O88 O 0.31286 0.55906 0.83122 0.0
Co89 Co 0.39858 0.64901 0.79322 0.0
O90 O 0.29773 0.61201 0.77775 0.0
C91 C 0.52414 0.56942 0.80346 0.0
C92 C 0.45187 0.551 0.93265 0.0
C93 C 0.27679 0.57258 0.79744 0.0
O94 O 0.48995 0.55462 0.83741 0.0
O95 O 0.49982 0.60815 0.78339 0.0
O96 O 0.31432 0.62421 0.90058 0.0
O97 O 0.39918 0.65126 0.85315 0.0
Co98 Co 0.11039 0.93147 0.87412 0.0
O99 O 0.03813 0.92083 0.92086 0.0
O100 O 0.11085 0.98946 0.91125 0.0
C101 C 0.17228 0.85508 0.87736 0.0
O102 O 0.19422 0.95592 0.83128 0.0
Co103 Co 0.10078 0.86608 0.79524 0.0
O104 O 0.20244 0.90123 0.77854 0.0
C105 C 0.98117 0.94837 0.80639 0.0
C106 C 0.05987 0.96473 0.93453 0.0
C107 C 0.22673 0.94084 0.79701 0.0
O108 O 0.01776 0.96154 0.84017 0.0
O109 O 1.00188 0.90933 0.78567 0.0
O110 O 0.19616 0.89177 0.90101 0.0
O111 O 0.10826 0.86408 0.85506 0.0
C112 C 0.34246 0.55255 0.24138 0.0
C113 C 0.31229 0.54197 0.28139 0.0
C114 C 0.40236 0.52226 0.22257 0.0
C115 C 0.43501 0.47988 0.24282 0.0
H116 H 0.31911 0.58432 0.22403 0.0
H117 H 0.42291 0.53221 0.19177 0.0
S118 S 0.3796 0.43666 0.3489 0.0
N119 N 0.3218 0.48662 0.34111 0.0
N120 N 0.43366 0.42987 0.30618 0.0
C121 C 0.40594 0.46914 0.28312 0.0
C122 C 0.34499 0.50005 0.30224 0.0
C123 C 0.11441 0.99409 0.22294 0.0
C124 C 0.08048 0.03551 0.244 0.0
C125 C 0.1746 0.96363 0.24141 0.0
C126 C 0.20371 0.97303 0.28188 0.0
H127 H 0.09487 0.98519 0.19173 0.0
H128 H 0.19915 0.93274 0.22343 0.0
S129 S 0.13188 0.07502 0.35163 0.0
N130 N 0.07876 0.08296 0.30868 0.0
N131 N 0.19119 0.02595 0.34298 0.0
C132 C 0.16936 0.01381 0.30358 0.0
C133 C 0.10816 0.0449 0.2848 0.0
C134 C 0.84364 0.46196 0.28303 0.0
C135 C 0.81216 0.47306 0.24331 0.0
C136 C 0.90346 0.49231 0.30192 0.0
C137 C 0.93477 0.53531 0.28206 0.0
H138 H 0.82142 0.42968 0.30008 0.0
H139 H 0.9251 0.48188 0.33244 0.0
S140 S 0.87526 0.58031 0.17695 0.0
N141 N 0.8188 0.52973 0.18435 0.0
N142 N 0.93044 0.58662 0.21943 0.0
C143 C 0.9043 0.54664 0.24208 0.0
C144 C 0.84344 0.51564 0.22287 0.0
C145 C 0.68429 0.99922 0.23158 0.0
C146 C 0.70336 0.04742 0.24685 0.0
C147 C 0.62504 0.96884 0.25066 0.0
C148 C 0.58174 0.98504 0.28604 0.0
H149 H 0.71598 0.98434 0.2048 0.0
H150 H 0.6134 0.93212 0.23738 0.0
S151 S 0.60608 0.10891 0.33796 0.0
N152 N 0.67208 0.11046 0.29938 0.0
N153 N 0.56135 0.05339 0.33506 0.0
C154 C 0.5997 0.03333 0.30158 0.0
C155 C 0.66004 0.06442 0.28206 0.0
C156 C 0.60577 0.48925 0.79808 0.0
C157 C 0.5914 0.53885 0.78471 0.0
C158 C 0.66442 0.45858 0.77872 0.0
C159 C 0.71154 0.47601 0.74504 0.0
H160 H 0.5705 0.4735 0.82331 0.0
H161 H 0.67247 0.42066 0.79029 0.0
S162 S 0.70157 0.60411 0.69939 0.0
N163 N 0.63227 0.60472 0.73648 0.0
N164 N 0.74157 0.54715 0.70026 0.0
C165 C 0.6986 0.52578 0.73167 0.0
C166 C 0.63905 0.5571 0.75145 0.0
C167 C 0.81976 0.99913 0.73161 0.0
C168 C 0.79331 0.0441 0.7503 0.0
C169 C 0.879 0.96837 0.75034 0.0
C170 C 0.915 0.98094 0.78876 0.0
H171 H 0.79442 0.98726 0.70218 0.0
H172 H 0.89697 0.93446 0.73414 0.0
S173 S 0.86709 0.09447 0.85132 0.0
N174 N 0.80796 0.09953 0.81009 0.0
N175 N 0.9188 0.04174 0.84503 0.0
C176 C 0.88897 0.02572 0.80799 0.0
C177 C 0.82855 0.0572 0.78887 0.0
C178 C 0.1789 0.55049 0.73974 0.0
C179 C 0.21103 0.54002 0.77942 0.0
C180 C 0.11877 0.51983 0.72143 0.0
C181 C 0.08778 0.47714 0.74189 0.0
H182 H 0.20057 0.58263 0.72233 0.0
H183 H 0.09638 0.52991 0.69097 0.0
S184 S 0.14993 0.43336 0.84693 0.0
N185 N 0.20599 0.48394 0.83883 0.0
N186 N 0.09386 0.42647 0.80482 0.0
C187 C 0.11933 0.46625 0.78172 0.0
C188 C 0.18048 0.49755 0.80033 0.0
C189 C 0.32315 0.01475 0.79742 0.0
C190 C 0.29244 0.97182 0.77717 0.0
C191 C 0.38318 0.04529 0.77915 0.0
C192 C 0.41571 0.03451 0.73964 0.0
H193 H 0.30078 0.02508 0.82781 0.0
H194 H 0.4046 0.07753 0.79656 0.0
S195 S 0.3552 0.92712 0.67261 0.0
N196 N 0.29881 0.92055 0.7146 0.0
N197 N 0.41116 0.97786 0.68053 0.0
C198 C 0.38533 0.99182 0.71884 0.0
C199 C 0.32409 0.9606 0.73748 0.0
C200 C 0.98425 0.55028 0.49822 0.0
C201 C 0.03818 0.52297 0.4726 0.0
C202 C 0.95816 0.5314 0.53681 0.0
C203 C 0.98475 0.48428 0.55172 0.0
H204 H 0.96207 0.58682 0.48853 0.0
H205 H 0.91651 0.55403 0.55504 0.0
S206 S 0.12606 0.39739 0.49682 0.0
N207 N 0.11709 0.4459 0.46527 0.0
N208 N 0.06839 0.41065 0.53729 0.0
C209 C 0.03865 0.45652 0.5264 0.0
C210 C 0.06517 0.47574 0.48709 0.0
C211 C 0.52974 0.964 0.49953 0.0
C212 C 0.47471 0.99076 0.47407 0.0
C213 C 0.5554 0.98303 0.53819 0.0
C214 C 0.52722 0.02971 0.55323 0.0
H215 H 0.55313 0.92782 0.48966 0.0
H216 H 0.59794 0.9609 0.55635 0.0
S217 S 0.38235 0.11496 0.49878 0.0
N218 N 0.39296 0.06676 0.46703 0.0
N219 N 0.44074 0.10225 0.53917 0.0
C220 C 0.47214 0.05687 0.52807 0.0
C221 C 0.4461 0.03753 0.48873 0.0
C222 C 0.48125 0.46529 0.02699 0.0
C223 C 0.53623 0.49222 0.05237 0.0
C224 C 0.45494 0.48426 0.98842 0.0
C225 C 0.48237 0.53108 0.97333 0.0
H226 H 0.45846 0.42897 0.03683 0.0
H227 H 0.41253 0.46193 0.97033 0.0
S228 S 0.62664 0.61689 0.0276 0.0
N229 N 0.61702 0.5686 0.0593 0.0
N230 N 0.56797 0.604 0.98734 0.0
C231 C 0.53728 0.55846 0.99844 0.0
C232 C 0.564 0.53917 0.03771 0.0
C233 C 0.0571 0.03155 0.99025 0.0
C234 C 0.03003 0.9846 0.97529 0.0
C235 C 0.03104 0.05046 0.02884 0.0
C236 C 0.97665 0.02333 0.05433 0.0
H237 H 0.09896 0.05404 0.97204 0.0
H238 H 0.0535 0.08691 0.0386 0.0
S239 S 0.88748 0.89822 0.0299 0.0
N240 N 0.94547 0.91128 0.98953 0.0
N241 N 0.89692 0.94664 0.06154 0.0
C242 C 0.94928 0.97625 0.03981 0.0
C243 C 0.97576 0.957 1.00053 0.0
C244 C 0.23644 0.73397 0.34313 0.0
C245 C 0.22228 0.70797 0.38043 0.0
C246 C 0.27558 0.78115 0.34285 0.0
C247 C 0.29905 0.80481 0.37997 0.0
H248 H 0.21807 0.71748 0.3139 0.0
H249 H 0.28594 0.79969 0.31347 0.0
S250 S 0.27508 0.75301 0.48581 0.0
N251 N 0.23617 0.70918 0.45531 0.0
N252 N 0.30565 0.79878 0.4549 0.0
C253 C 0.28451 0.77948 0.41742 0.0
C254 C 0.24725 0.7308 0.41762 0.0
C255 C 0.77755 0.23504 0.18186 0.0
C256 C 0.7962 0.20982 0.14474 0.0
C257 C 0.73848 0.28221 0.18153 0.0
C258 C 0.71968 0.3067 0.14408 0.0
H259 H 0.79189 0.21783 0.21137 0.0
H260 H 0.72405 0.29995 0.21082 0.0
S261 S 0.75804 0.25726 0.03853 0.0
N262 N 0.79268 0.21271 0.06962 0.0
N263 N 0.72336 0.3024 0.06901 0.0
C264 C 0.73945 0.28229 0.10681 0.0
C265 C 0.77659 0.23355 0.10715 0.0
C266 C 0.73115 0.23563 0.68552 0.0
C267 C 0.71152 0.21038 0.64852 0.0
C268 C 0.77199 0.2823 0.68494 0.0
C269 C 0.79163 0.3062 0.64734 0.0
H270 H 0.71647 0.21872 0.71509 0.0
H271 H 0.78733 0.30007 0.71412 0.0
S272 S 0.75103 0.25648 0.54205 0.0
N273 N 0.71484 0.21272 0.57337 0.0
N274 N 0.78742 0.30135 0.57231 0.0
C275 C 0.77068 0.2818 0.61023 0.0
C276 C 0.73175 0.23363 0.61081 0.0
C277 C 0.21036 0.7139 0.87927 0.0
C278 C 0.29607 0.71053 0.87632 0.0
C279 C 0.17048 0.76084 0.87847 0.0
C280 C 0.21516 0.80602 0.87626 0.0
H281 H 0.17384 0.68002 0.88158 0.0
H282 H 0.10435 0.76184 0.88054 0.0
S283 S 0.44046 0.81774 0.86832 0.0
N284 N 0.42405 0.75646 0.8703 0.0
N285 N 0.34936 0.84447 0.87097 0.0
C286 C 0.30075 0.80315 0.87371 0.0
C287 C 0.34113 0.75544 0.87315 0.0
loop_
_geom_bond_atom_site_label_1
_geom_bond_atom_site_label_2
_geom_bond_distance
_geom_bond_site_symmetry_2
_ccdc_geom_bond_type
Co0 O1 2.216 . S
Co0 O2 2.091 . S
Co0 O4 2.004 . S
Co0 O10 2.021 . S
Co0 O12 2.137 . S
Co0 O13 2.244 . S
O1 Co0 2.216 . S
O1 C8 1.247 . S
O2 Co0 2.091 . S
O2 C8 1.261 . S
C3 O12 1.247 . S
C3 O13 1.272 . S
O4 Co0 2.004 . S
O4 C9 1.259 . S
Co5 O6 2.061 . S
Co5 O11 2.052 . S
Co5 O13 2.135 . S
O6 Co5 2.061 . S
O6 C9 1.235 . S
C7 O10 1.238 . S
C7 O11 1.241 . S
C8 O1 1.247 . S
C8 O2 1.261 . S
C9 O4 1.259 . S
C9 O6 1.235 . S
O10 Co0 2.021 . S
O10 C7 1.238 . S
O11 Co5 2.052 . S
O11 C7 1.241 . S
O12 Co0 2.137 . S
O12 C3 1.247 . S
O13 Co0 2.244 . S
O13 C3 1.272 . S
O13 Co5 2.135 . S
Co14 O15 2.216 . S
Co14 O16 2.091 . S
Co14 O18 2.004 . S
Co14 O24 2.021 . S
Co14 O26 2.137 . S
Co14 O27 2.244 . S
O15 Co14 2.216 . S
O15 C22 1.247 . S
O16 Co14 2.091 . S
O16 C22 1.261 . S
C17 O26 1.247 . S
C17 O27 1.272 . S
O18 Co14 2.004 . S
O18 C23 1.259 . S
Co19 O20 2.061 . S
Co19 O25 2.052 . S
Co19 O27 2.135 . S
O20 Co19 2.061 . S
O20 C23 1.235 . S
C21 O24 1.238 . S
C21 O25 1.241 . S
C22 O15 1.247 . S
C22 O16 1.261 . S
C23 O18 1.259 . S
C23 O20 1.235 . S
O24 Co14 2.021 . S
O24 C21 1.238 . S
O25 Co19 2.052 . S
O25 C21 1.241 . S
O26 Co14 2.137 . S
O26 C17 1.247 . S
O27 Co14 2.244 . S
O27 C17 1.272 . S
O27 Co19 2.135 . S
Co28 O29 2.216 . S
Co28 O30 2.091 . S
Co28 O32 2.004 . S
Co28 O38 2.021 . S
Co28 O40 2.137 . S
Co28 O41 2.244 . S
O29 Co28 2.216 . S
O29 C36 1.247 . S
O30 Co28 2.091 . S
O30 C36 1.261 . S
C31 O40 1.247 . S
C31 O41 1.272 . S
O32 Co28 2.004 . S
O32 C37 1.259 . S
Co33 O34 2.061 . S
Co33 O39 2.052 . S
Co33 O41 2.135 . S
O34 Co33 2.061 . S
O34 C37 1.235 . S
C35 O38 1.238 . S
C35 O39 1.241 . S
C36 O29 1.247 . S
C36 O30 1.261 . S
C37 O32 1.259 . S
C37 O34 1.235 . S
O38 Co28 2.021 . S
O38 C35 1.238 . S
O39 Co33 2.052 . S
O39 C35 1.241 . S
O40 Co28 2.137 . S
O40 C31 1.247 . S
O41 Co28 2.244 . S
O41 C31 1.272 . S
O41 Co33 2.135 . S
Co42 O43 2.216 . S
Co42 O44 2.091 . S
Co42 O46 2.004 . S
Co42 O52 2.021 . S
Co42 O54 2.137 . S
Co42 O55 2.244 . S
O43 Co42 2.216 . S
O43 C50 1.247 . S
O44 Co42 2.091 . S
O44 C50 1.261 . S
C45 O54 1.247 . S
C45 O55 1.272 . S
O46 Co42 2.004 . S
O46 C51 1.259 . S
Co47 O48 2.061 . S
Co47 O53 2.052 . S
Co47 O55 2.135 . S
O48 Co47 2.061 . S
O48 C51 1.235 . S
C49 O52 1.238 . S
C49 O53 1.241 . S
C50 O43 1.247 . S
C50 O44 1.261 . S
C51 O46 1.259 . S
C51 O48 1.235 . S
O52 Co42 2.021 . S
O52 C49 1.238 . S
O53 Co47 2.052 . S
O53 C49 1.241 . S
O54 Co42 2.137 . S
O54 C45 1.247 . S
O55 Co42 2.244 . S
O55 C45 1.272 . S
O55 Co47 2.135 . S
Co56 O57 2.216 . S
Co56 O58 2.091 . S
Co56 O60 2.004 . S
Co56 O66 2.021 . S
Co56 O68 2.137 . S
Co56 O69 2.244 . S
O57 Co56 2.216 . S
O57 C64 1.247 . S
O58 Co56 2.091 . S
O58 C64 1.261 . S
C59 O68 1.247 . S
C59 O69 1.272 . S
O60 Co56 2.004 . S
O60 C65 1.259 . S
Co61 O62 2.061 . S
Co61 O67 2.052 . S
Co61 O69 2.135 . S
O62 Co61 2.061 . S
O62 C65 1.235 . S
C63 O66 1.238 . S
C63 O67 1.241 . S
C64 O57 1.247 . S
C64 O58 1.261 . S
C65 O60 1.259 . S
C65 O62 1.235 . S
O66 Co56 2.021 . S
O66 C63 1.238 . S
O67 Co61 2.052 . S
O67 C63 1.241 . S
O68 Co56 2.137 . S
O68 C59 1.247 . S
O69 Co56 2.244 . S
O69 C59 1.272 . S
O69 Co61 2.135 . S
Co70 O71 2.216 . S
Co70 O72 2.091 . S
Co70 O74 2.004 . S
Co70 O80 2.021 . S
Co70 O82 2.137 . S
Co70 O83 2.244 . S
O71 Co70 2.216 . S
O71 C78 1.247 . S
O72 Co70 2.091 . S
O72 C78 1.261 . S
C73 O82 1.247 . S
C73 O83 1.272 . S
O74 Co70 2.004 . S
O74 C79 1.259 . S
Co75 O76 2.061 . S
Co75 O81 2.052 . S
Co75 O83 2.135 . S
O76 Co75 2.061 . S
O76 C79 1.235 . S
C77 O80 1.238 . S
C77 O81 1.241 . S
C78 O71 1.247 . S
C78 O72 1.261 . S
C79 O74 1.259 . S
C79 O76 1.235 . S
O80 Co70 2.021 . S
O80 C77 1.238 . S
O81 Co75 2.052 . S
O81 C77 1.241 . S
O82 Co70 2.137 . S
O82 C73 1.247 . S
O83 Co70 2.244 . S
O83 C73 1.272 . S
O83 Co75 2.135 . S
Co84 O85 2.216 . S
Co84 O86 2.091 . S
Co84 O88 2.004 . S
Co84 O94 2.021 . S
Co84 O96 2.137 . S
Co84 O97 2.244 . S
O85 Co84 2.216 . S
O85 C92 1.247 . S
O86 Co84 2.091 . S
O86 C92 1.261 . S
C87 O96 1.247 . S
C87 O97 1.272 . S
O88 Co84 2.004 . S
O88 C93 1.259 . S
Co89 O90 2.061 . S
Co89 O95 2.052 . S
Co89 O97 2.135 . S
O90 Co89 2.061 . S
O90 C93 1.235 . S
C91 O94 1.238 . S
C91 O95 1.241 . S
C92 O85 1.247 . S
C92 O86 1.261 . S
C93 O88 1.259 . S
C93 O90 1.235 . S
O94 Co84 2.021 . S
O94 C91 1.238 . S
O95 Co89 2.052 . S
O95 C91 1.241 . S
O96 Co84 2.137 . S
O96 C87 1.247 . S
O97 Co84 2.244 . S
O97 C87 1.272 . S
O97 Co89 2.135 . S
Co98 O99 2.216 . S
Co98 O100 2.091 . S
Co98 O102 2.004 . S
Co98 O108 2.021 . S
Co98 O110 2.137 . S
Co98 O111 2.244 . S
O99 Co98 2.216 . S
O99 C106 1.247 . S
O100 Co98 2.091 . S
O100 C106 1.261 . S
C101 O110 1.247 . S
C101 O111 1.272 . S
O102 Co98 2.004 . S
O102 C107 1.259 . S
Co103 O104 2.061 . S
Co103 O109 2.052 . S
Co103 O111 2.135 . S
O104 Co103 2.061 . S
O104 C107 1.235 . S
C105 O108 1.238 . S
C105 O109 1.241 . S
C106 O99 1.247 . S
C106 O100 1.261 . S
C107 O102 1.259 . S
C107 O104 1.235 . S
O108 Co98 2.021 . S
O108 C105 1.238 . S
O109 Co103 2.052 . S
O109 C105 1.241 . S
O110 Co98 2.137 . S
O110 C101 1.247 . S
O111 Co98 2.244 . S
O111 C101 1.272 . S
O111 Co103 2.135 . S
C112 C113 1.369 . S
C112 C114 1.419 . S
C112 H116 0.930 . S
C113 C112 1.369 . S
C113 C122 1.429 . S
C114 C112 1.419 . S
C114 C115 1.363 . S
C114 H117 0.929 . S
C115 C114 1.363 . S
C115 C121 1.428 . S
H116 C112 0.930 . S
H117 C114 0.929 . S
S118 N119 1.613 . S
S118 N120 1.610 . S
N119 S118 1.613 . S
N119 C122 1.350 . S
N120 S118 1.610 . S
N120 C121 1.351 . S
C121 C115 1.428 . S
C121 N120 1.351 . S
C121 C122 1.434 . S
C122 C113 1.429 . S
C122 N119 1.350 . S
C122 C121 1.434 . S
C123 C124 1.369 . S
C123 C125 1.419 1_545 S
C123 H127 0.930 . S
C124 C123 1.369 . S
C124 C133 1.429 . S
C125 C123 1.419 1_565 S
C125 C126 1.363 . S
C125 H128 0.929 . S
C126 C125 1.363 . S
C126 C132 1.428 1_565 S
H127 C123 0.930 . S
H128 C125 0.929 . S
S129 N130 1.613 . S
S129 N131 1.610 1_655 S
N130 S129 1.613 . S
N130 C133 1.350 1_655 S
N131 S129 1.610 1_455 S
N131 C132 1.351 . S
C132 C126 1.428 1_545 S
C132 N131 1.351 . S
C132 C133 1.434 . S
C133 C124 1.429 . S
C133 N130 1.350 1_455 S
C133 C132 1.434 . S
C134 C135 1.369 . S
C134 C136 1.419 . S
C134 H138 0.930 . S
C135 C134 1.369 . S
C135 C144 1.429 . S
C136 C134 1.419 . S
C136 C137 1.363 . S
C136 H139 0.929 . S
C137 C136 1.363 . S
C137 C143 1.428 . S
H138 C134 0.930 . S
H139 C136 0.929 . S
S140 N141 1.613 1_455 S
S140 N142 1.610 . S
N141 S140 1.613 1_655 S
N141 C144 1.350 . S
N142 S140 1.610 . S
N142 C143 1.351 1_455 S
C143 C137 1.428 . S
C143 N142 1.351 1_655 S
C143 C144 1.434 . S
C144 C135 1.429 . S
C144 N141 1.350 . S
C144 C143 1.434 . S
C145 C146 1.369 1_565 S
C145 C147 1.419 . S
C145 H149 0.930 . S
C146 C145 1.369 1_545 S
C146 C155 1.429 . S
C147 C145 1.419 . S
C147 C148 1.363 . S
C147 H150 0.929 . S
C148 C147 1.363 . S
C148 C154 1.428 1_565 S
H149 C145 0.930 . S
H150 C147 0.929 . S
S151 N152 1.613 . S
S151 N153 1.610 . S
N152 S151 1.613 . S
N152 C155 1.350 . S
N153 S151 1.610 . S
N153 C154 1.351 . S
C154 C148 1.428 1_545 S
C154 N153 1.351 . S
C154 C155 1.434 . S
C155 C146 1.429 . S
C155 N152 1.350 . S
C155 C154 1.434 . S
C156 C157 1.369 . S
C156 C158 1.419 . S
C156 H160 0.930 . S
C157 C156 1.369 . S
C157 C166 1.429 . S
C158 C156 1.419 . S
C158 C159 1.363 . S
C158 H161 0.929 . S
C159 C158 1.363 . S
C159 C165 1.428 . S
H160 C156 0.930 . S
H161 C158 0.929 . S
S162 N163 1.613 . S
S162 N164 1.610 . S
N163 S162 1.613 . S
N163 C166 1.350 . S
N164 S162 1.610 . S
N164 C165 1.351 . S
C165 C159 1.428 . S
C165 N164 1.351 . S
C165 C166 1.434 . S
C166 C157 1.429 . S
C166 N163 1.350 . S
C166 C165 1.434 . S
C167 C168 1.369 1_565 S
C167 C169 1.419 . S
C167 H171 0.930 . S
C168 C167 1.369 1_545 S
C168 C177 1.429 . S
C169 C167 1.419 . S
C169 C170 1.363 . S
C169 H172 0.930 . S
C170 C169 1.363 . S
C170 C176 1.428 1_565 S
H171 C167 0.930 . S
H172 C169 0.930 . S
S173 N174 1.613 . S
S173 N175 1.610 . S
N174 S173 1.613 . S
N174 C177 1.350 . S
N175 S173 1.610 . S
N175 C176 1.351 . S
C176 C170 1.428 1_545 S
C176 N175 1.351 . S
C176 C177 1.434 . S
C177 C168 1.429 . S
C177 N174 1.350 . S
C177 C176 1.434 . S
C178 C179 1.369 . S
C178 C180 1.419 . S
C178 H182 0.930 . S
C179 C178 1.369 . S
C179 C188 1.429 . S
C180 C178 1.419 . S
C180 C181 1.363 . S
C180 H183 0.929 . S
C181 C180 1.363 . S
C181 C187 1.428 . S
H182 C178 0.930 . S
H183 C180 0.929 . S
S184 N185 1.613 . S
S184 N186 1.610 1_455 S
N185 S184 1.613 . S
N185 C188 1.350 . S
N186 S184 1.610 1_655 S
N186 C187 1.351 1_655 S
C187 C181 1.428 . S
C187 N186 1.351 1_455 S
C187 C188 1.434 . S
C188 C179 1.429 . S
C188 N185 1.350 . S
C188 C187 1.434 . S
C189 C190 1.369 . S
C189 C191 1.419 . S
C189 H193 0.930 . S
C190 C189 1.369 . S
C190 C199 1.429 1_565 S
C191 C189 1.419 . S
C191 C192 1.363 1_565 S
C191 H194 0.929 . S
C192 C191 1.363 1_545 S
C192 C198 1.428 . S
H193 C189 0.930 . S
H194 C191 0.929 . S
S195 N196 1.613 . S
S195 N197 1.610 . S
N196 S195 1.613 . S
N196 C199 1.350 . S
N197 S195 1.610 . S
N197 C198 1.351 . S
C198 C192 1.428 . S
C198 N197 1.351 . S
C198 C199 1.434 . S
C199 C190 1.429 1_545 S
C199 N196 1.350 . S
C199 C198 1.434 . S
C200 C201 1.369 1_655 S
C200 C202 1.419 . S
C200 H204 0.930 . S
C201 C200 1.369 1_455 S
C201 C210 1.429 . S
C202 C200 1.419 . S
C202 C203 1.363 . S
C202 H205 0.929 . S
C203 C202 1.363 . S
C203 C209 1.428 1_655 S
H204 C200 0.930 . S
H205 C202 0.929 . S
S206 N207 1.613 . S
S206 N208 1.610 . S
N207 S206 1.613 . S
N207 C210 1.350 . S
N208 S206 1.610 . S
N208 C209 1.351 . S
C209 C203 1.428 1_455 S
C209 N208 1.351 . S
C209 C210 1.434 . S
C210 C201 1.429 . S
C210 N207 1.350 . S
C210 C209 1.434 . S
C211 C212 1.369 1_545 S
C211 C213 1.419 . S
C211 H215 0.930 . S
C212 C211 1.369 1_565 S
C212 C221 1.429 . S
C213 C211 1.419 . S
C213 C214 1.363 . S
C213 H216 0.929 . S
C214 C213 1.363 . S
C214 C220 1.428 1_545 S
H215 C211 0.930 . S
H216 C213 0.929 . S
S217 N218 1.613 . S
S217 N219 1.610 . S
N218 S217 1.613 . S
N218 C221 1.350 . S
N219 S217 1.610 . S
N219 C220 1.351 . S
C220 C214 1.428 1_565 S
C220 N219 1.351 . S
C220 C221 1.434 . S
C221 C212 1.429 . S
C221 N218 1.350 . S
C221 C220 1.434 . S
C222 C223 1.369 . S
C222 C224 1.420 1_554 S
C222 H226 0.930 . S
C223 C222 1.369 . S
C223 C232 1.429 1_554 S
C224 C222 1.420 1_556 S
C224 C225 1.362 . S
C224 H227 0.929 1_556 S
C225 C224 1.362 . S
C225 C231 1.428 . S
H226 C222 0.930 . S
H227 C224 0.929 1_554 S
S228 N229 1.613 . S
S228 N230 1.610 . S
N229 S228 1.613 . S
N229 C232 1.350 . S
N230 S228 1.610 . S
N230 C231 1.351 . S
C231 C225 1.428 . S
C231 N230 1.351 . S
C231 C232 1.434 . S
C232 C223 1.429 1_556 S
C232 N229 1.350 . S
C232 C231 1.434 . S
C233 C234 1.369 1_545 S
C233 C235 1.419 1_556 S
C233 H237 0.930 . S
C234 C233 1.369 1_565 S
C234 C243 1.429 1_455 S
C235 C233 1.419 1_554 S
C235 C236 1.363 1_455 S
C235 H238 0.929 . S
C236 C235 1.363 1_655 S
C236 C242 1.428 1_545 S
H237 C233 0.930 . S
H238 C235 0.929 . S
S239 N240 1.613 . S
S239 N241 1.610 1_556 S
N240 S239 1.613 . S
N240 C243 1.350 . S
N241 S239 1.610 1_554 S
N241 C242 1.351 . S
C242 C236 1.428 1_565 S
C242 N241 1.351 . S
C242 C243 1.434 1_554 S
C243 C234 1.429 1_655 S
C243 N240 1.350 . S
C243 C242 1.434 1_556 S
C244 C245 1.369 . S
C244 C246 1.419 . S
C244 H248 0.930 . S
C245 C244 1.369 . S
C245 C254 1.429 . S
C246 C244 1.419 . S
C246 C247 1.363 . S
C246 H249 0.929 . S
C247 C246 1.363 . S
C247 C253 1.428 . S
H248 C244 0.930 . S
H249 C246 0.929 . S
S250 N251 1.613 . S
S250 N252 1.610 . S
N251 S250 1.613 . S
N251 C254 1.350 . S
N252 S250 1.610 . S
N252 C253 1.351 . S
C253 C247 1.428 . S
C253 N252 1.351 . S
C253 C254 1.434 . S
C254 C245 1.429 . S
C254 N251 1.350 . S
C254 C253 1.434 . S
C255 C256 1.369 . S
C255 C257 1.419 . S
C255 H259 0.930 . S
C256 C255 1.369 . S
C256 C265 1.429 . S
C257 C255 1.419 . S
C257 C258 1.363 . S
C257 H260 0.929 . S
C258 C257 1.363 . S
C258 C264 1.428 . S
H259 C255 0.930 . S
H260 C257 0.929 . S
S261 N262 1.613 . S
S261 N263 1.610 . S
N262 S261 1.613 . S
N262 C265 1.350 . S
N263 S261 1.610 . S
N263 C264 1.351 . S
C264 C258 1.428 . S
C264 N263 1.351 . S
C264 C265 1.434 . S
C265 C256 1.429 . S
C265 N262 1.350 . S
C265 C264 1.434 . S
C266 C267 1.369 . S
C266 C268 1.419 . S
C266 H270 0.930 . S
C267 C266 1.369 . S
C267 C276 1.429 . S
C268 C266 1.419 . S
C268 C269 1.363 . S
C268 H271 0.929 . S
C269 C268 1.363 . S
C269 C275 1.428 . S
H270 C266 0.930 . S
H271 C268 0.929 . S
S272 N273 1.613 . S
S272 N274 1.610 . S
N273 S272 1.613 . S
N273 C276 1.350 . S
N274 S272 1.610 . S
N274 C275 1.351 . S
C275 C269 1.428 . S
C275 N274 1.351 . S
C275 C276 1.434 . S
C276 C267 1.429 . S
C276 N273 1.350 . S
C276 C275 1.434 . S
C277 C278 1.369 . S
C277 C279 1.419 . S
C277 H281 0.930 . S
C278 C277 1.369 . S
C278 C287 1.429 . S
C279 C277 1.419 . S
C279 C280 1.363 . S
C279 H282 0.929 . S
C280 C279 1.363 . S
C280 C286 1.428 . S
H281 C277 0.930 . S
H282 C279 0.929 . S
S283 N284 1.613 . S
S283 N285 1.610 . S
N284 S283 1.613 . S
N284 C287 1.350 . S
N285 S283 1.610 . S
N285 C286 1.351 . S
C286 C280 1.428 . S
C286 N285 1.351 . S
C286 C287 1.434 . S
C287 C278 1.429 . S
C287 N284 1.350 . S
C287 C286 1.434 . S
C113 C9 1.419 . S
C115 C35 1.401 . S
C124 C49 1.399 1_455 S
C126 C23 1.420 . S
C135 C37 1.420 . S
C137 C7 1.400 1_655 S
C146 C51 1.414 . S
C148 C21 1.407 . S
C157 C91 1.400 . S
C159 C65 1.420 . S
C168 C79 1.414 . S
C170 C105 1.407 1_655 S
C179 C93 1.421 . S
C181 C63 1.400 1_455 S
C190 C107 1.415 . S
C192 C77 1.406 . S
C201 C8 1.523 . S
C203 C64 1.525 . S
C212 C22 1.525 . S
C214 C78 1.524 . S
C223 C36 1.524 . S
C225 C92 1.524 . S
C234 C106 1.524 . S
C236 C50 1.524 . S
C245 C3 1.526 . S
C247 C17 1.527 . S
C256 C45 1.527 . S
C258 C31 1.526 . S
C267 C73 1.526 . S
C269 C59 1.527 . S
C278 C87 1.528 . S
C280 C101 1.526 . S
