# Generated by pormake.
# Topology reo-e, (6)-cn, num edge types: 1
# Building blocks:
#     Node 0, Type 0, BuildingBlock: IZENUY_clean_sbu_0, # of connection points: 6
#     Node 1, Type 0, BuildingBlock: IZENUY_clean_sbu_0, # of connection points: 6
#     Node 2, Type 0, BuildingBlock: IZENUY_clean_sbu_0, # of connection points: 6
#     Node 3, Type 0, BuildingBlock: IZENUY_clean_sbu_0, # of connection points: 6
#     Node 4, Type 0, BuildingBlock: IZENUY_clean_sbu_0, # of connection points: 6
#     Node 5, Type 0, BuildingBlock: IZENUY_clean_sbu_0, # of connection points: 6
#     Node 6, Type 0, BuildingBlock: IZENUY_clean_sbu_0, # of connection points: 6
#     Node 7, Type 0, BuildingBlock: IZENUY_clean_sbu_0, # of connection points: 6
#     Node 8, Type 0, BuildingBlock: IZENUY_clean_sbu_0, # of connection points: 6
#     Node 9, Type 0, BuildingBlock: IZENUY_clean_sbu_0, # of connection points: 6
#     Node 10, Type 0, BuildingBlock: IZENUY_clean_sbu_0, # of connection points: 6
#     Node 11, Type 0, BuildingBlock: IZENUY_clean_sbu_0, # of connection points: 6
#     Edge 12, Type (0, 0), BuildingBlock: UVAHIK_clean_linker_0, # of connection points: 2
#     Edge 13, Type (0, 0), BuildingBlock: UVAHIK_clean_linker_0, # of connection points: 2
#     Edge 14, Type (0, 0), BuildingBlock: UVAHIK_clean_linker_0, # of connection points: 2
#     Edge 15, Type (0, 0), BuildingBlock: UVAHIK_clean_linker_0, # of connection points: 2
#     Edge 16, Type (0, 0), BuildingBlock: UVAHIK_clean_linker_0, # of connection points: 2
#     Edge 17, Type (0, 0), BuildingBlock: UVAHIK_clean_linker_0, # of connection points: 2
#     Edge 18, Type (0, 0), BuildingBlock: UVAHIK_clean_linker_0, # of connection points: 2
#     Edge 19, Type (0, 0), BuildingBlock: UVAHIK_clean_linker_0, # of connection points: 2
#     Edge 20, Type (0, 0), BuildingBlock: UVAHIK_clean_linker_0, # of connection points: 2
#     Edge 21, Type (0, 0), BuildingBlock: UVAHIK_clean_linker_0, # of connection points: 2
#     Edge 22, Type (0, 0), BuildingBlock: UVAHIK_clean_linker_0, # of connection points: 2
#     Edge 23, Type (0, 0), BuildingBlock: UVAHIK_clean_linker_0, # of connection points: 2
#     Edge 24, Type (0, 0), BuildingBlock: UVAHIK_clean_linker_0, # of connection points: 2
#     Edge 25, Type (0, 0), BuildingBlock: UVAHIK_clean_linker_0, # of connection points: 2
#     Edge 26, Type (0, 0), BuildingBlock: UVAHIK_clean_linker_0, # of connection points: 2
#     Edge 27, Type (0, 0), BuildingBlock: UVAHIK_clean_linker_0, # of connection points: 2
#     Edge 28, Type (0, 0), BuildingBlock: UVAHIK_clean_linker_0, # of connection points: 2
#     Edge 29, Type (0, 0), BuildingBlock: UVAHIK_clean_linker_0, # of connection points: 2
#     Edge 30, Type (0, 0), BuildingBlock: UVAHIK_clean_linker_0, # of connection points: 2
#     Edge 31, Type (0, 0), BuildingBlock: UVAHIK_clean_linker_0, # of connection points: 2
#     Edge 32, Type (0, 0), BuildingBlock: UVAHIK_clean_linker_0, # of connection points: 2
#     Edge 33, Type (0, 0), BuildingBlock: UVAHIK_clean_linker_0, # of connection points: 2
#     Edge 34, Type (0, 0), BuildingBlock: UVAHIK_clean_linker_0, # of connection points: 2
#     Edge 35, Type (0, 0), BuildingBlock: UVAHIK_clean_linker_0, # of connection points: 2
#     Edge 36, Type (0, 0), BuildingBlock: UVAHIK_clean_linker_0, # of connection points: 2
#     Edge 37, Type (0, 0), BuildingBlock: UVAHIK_clean_linker_0, # of connection points: 2
#     Edge 38, Type (0, 0), BuildingBlock: UVAHIK_clean_linker_0, # of connection points: 2
#     Edge 39, Type (0, 0), BuildingBlock: UVAHIK_clean_linker_0, # of connection points: 2
#     Edge 40, Type (0, 0), BuildingBlock: UVAHIK_clean_linker_0, # of connection points: 2
#     Edge 41, Type (0, 0), BuildingBlock: UVAHIK_clean_linker_0, # of connection points: 2
#     Edge 42, Type (0, 0), BuildingBlock: UVAHIK_clean_linker_0, # of connection points: 2
#     Edge 43, Type (0, 0), BuildingBlock: UVAHIK_clean_linker_0, # of connection points: 2
#     Edge 44, Type (0, 0), BuildingBlock: UVAHIK_clean_linker_0, # of connection points: 2
#     Edge 45, Type (0, 0), BuildingBlock: UVAHIK_clean_linker_0, # of connection points: 2
#     Edge 46, Type (0, 0), BuildingBlock: UVAHIK_clean_linker_0, # of connection points: 2
#     Edge 47, Type (0, 0), BuildingBlock: UVAHIK_clean_linker_0, # of connection points: 2
# Relax obj value: 0.074
# Max RMSD: 0.096
# Mean RMSD: 0.095
data_MOF--net-reo-e--node1-IZENUY_clean_sbu_0--edge1-UVAHIK_clean_linker_0
_symmetry_space_group_name_H-M    P1
_symmetry_Int_Tables_number       1
_symmetry_cell_setting            triclinic
loop_
_symmetry_equiv_pos_as_xyz
'x, y, z'
_cell_length_a     48.876821
_cell_length_b     48.891813
_cell_length_c     48.864182
_cell_angle_alpha  89.942451
_cell_angle_beta   89.99763
_cell_angle_gamma 90.017226
loop_
_atom_site_label
_atom_site_type_symbol
_atom_site_fract_x
_atom_site_fract_y
_atom_site_fract_z
_atom_type_partial_charge
Fe0 Fe 0.20248 0.20139 0.53709 0.0
Fe1 Fe 0.24001 0.23983 0.50443 0.0
O2 O 0.21447 0.21409 0.50521 0.0
Fe3 Fe 0.20091 0.20114 0.47409 0.0
O4 O 0.1664 0.19511 0.48773 0.0
O5 O 0.16767 0.21175 0.52946 0.0
O6 O 0.20632 0.23404 0.55526 0.0
C7 C 0.20853 0.25842 0.54673 0.0
C8 C 0.20552 0.15389 0.50385 0.0
O9 O 0.21868 0.26342 0.52352 0.0
C10 C 0.25757 0.20715 0.4626 0.0
O11 O 0.23648 0.19021 0.54727 0.0
O12 O 0.25742 0.22822 0.53556 0.0
O13 O 0.21175 0.1667 0.48233 0.0
O14 O 0.19651 0.16642 0.52468 0.0
C15 C 0.20426 0.25553 0.46142 0.0
O16 O 0.26315 0.21809 0.48529 0.0
O17 O 0.23297 0.20472 0.45476 0.0
C18 C 0.25712 0.20567 0.54833 0.0
O19 O 0.22734 0.25625 0.47315 0.0
O20 O 0.18909 0.23475 0.46348 0.0
C21 C 0.15431 0.20471 0.50854 0.0
Fe22 Fe 0.77266 0.23912 0.50703 0.0
Fe23 Fe 0.81126 0.20113 0.53878 0.0
O24 O 0.79854 0.21379 0.50717 0.0
Fe25 Fe 0.81162 0.20116 0.47569 0.0
O26 O 0.82278 0.23499 0.46489 0.0
O27 O 0.78446 0.25586 0.47567 0.0
O28 O 0.79408 0.26287 0.52567 0.0
C29 C 0.80464 0.25806 0.54871 0.0
C30 C 0.75464 0.2066 0.46538 0.0
O31 O 0.80729 0.23371 0.55724 0.0
C32 C 0.80813 0.15369 0.50541 0.0
O33 O 0.75597 0.22717 0.5384 0.0
O34 O 0.77762 0.18939 0.5494 0.0
O35 O 0.7791 0.20448 0.45701 0.0
O36 O 0.74948 0.21709 0.48837 0.0
C37 C 0.85883 0.20515 0.50938 0.0
O38 O 0.81746 0.16627 0.52608 0.0
O39 O 0.80137 0.16651 0.48405 0.0
C40 C 0.75668 0.20439 0.55066 0.0
O41 O 0.84576 0.21199 0.53054 0.0
O42 O 0.84648 0.19555 0.48869 0.0
C43 C 0.80734 0.25562 0.46357 0.0
Fe44 Fe 0.81202 0.81062 0.53701 0.0
Fe45 Fe 0.8109 0.81102 0.474 0.0
O46 O 0.79878 0.79787 0.50566 0.0
Fe47 Fe 0.77341 0.77194 0.50596 0.0
O48 O 0.74998 0.79327 0.52521 0.0
O49 O 0.77986 0.80658 0.55605 0.0
O50 O 0.80104 0.84516 0.52904 0.0
C51 C 0.80734 0.85821 0.50767 0.0
C52 C 0.80889 0.75607 0.54923 0.0
O53 O 0.81656 0.8459 0.48682 0.0
C54 C 0.80545 0.7541 0.46369 0.0
O55 O 0.8466 0.817 0.52368 0.0
O56 O 0.84571 0.80081 0.48175 0.0
O57 O 0.78602 0.75522 0.53711 0.0
O58 O 0.82396 0.77697 0.54745 0.0
C59 C 0.75624 0.80663 0.46266 0.0
O60 O 0.80746 0.77858 0.4554 0.0
O61 O 0.795 0.74873 0.48669 0.0
C62 C 0.85888 0.80768 0.50285 0.0
O63 O 0.7769 0.82207 0.46382 0.0
O64 O 0.75605 0.78382 0.47491 0.0
C65 C 0.75533 0.8039 0.54809 0.0
Fe66 Fe 0.20183 0.81127 0.4745 0.0
Fe67 Fe 0.24071 0.7739 0.50663 0.0
O68 O 0.21459 0.79897 0.50621 0.0
Fe69 Fe 0.20128 0.81173 0.53752 0.0
O70 O 0.16644 0.817 0.52436 0.0
O71 O 0.16742 0.80011 0.48271 0.0
O72 O 0.20618 0.77864 0.45627 0.0
C73 C 0.20904 0.75436 0.46493 0.0
C74 C 0.20452 0.85892 0.5075 0.0
O75 O 0.21959 0.74978 0.48803 0.0
C76 C 0.25825 0.80687 0.54818 0.0
O77 O 0.23535 0.82329 0.4639 0.0
O78 O 0.25741 0.78582 0.47515 0.0
O79 O 0.21134 0.84633 0.52897 0.0
O80 O 0.19525 0.84613 0.48694 0.0
C81 C 0.20601 0.75752 0.55031 0.0
O82 O 0.26363 0.79626 0.52528 0.0
O83 O 0.23374 0.80884 0.5564 0.0
C84 C 0.2564 0.80844 0.46255 0.0
O85 O 0.22889 0.75731 0.53815 0.0
O86 O 0.19032 0.77792 0.54847 0.0
C87 C 0.15423 0.80708 0.50375 0.0
Fe88 Fe 0.53826 0.2007 0.20138 0.0
Fe89 Fe 0.50674 0.23869 0.24008 0.0
O90 O 0.50676 0.2133 0.21432 0.0
Fe91 Fe 0.47527 0.20051 0.20154 0.0
O92 O 0.48819 0.16573 0.19528 0.0
O93 O 0.52997 0.16613 0.21191 0.0
O94 O 0.55688 0.20422 0.23393 0.0
C95 C 0.54842 0.20634 0.25837 0.0
C96 C 0.50475 0.20463 0.15409 0.0
O97 O 0.52538 0.21678 0.26342 0.0
C98 C 0.46506 0.25736 0.20793 0.0
O99 O 0.54893 0.23447 0.19002 0.0
O100 O 0.53815 0.25541 0.22828 0.0
O101 O 0.48355 0.21148 0.1671 0.0
O102 O 0.52534 0.1949 0.1665 0.0
C103 C 0.46317 0.20384 0.25604 0.0
O104 O 0.48808 0.26233 0.21847 0.0
O105 O 0.45664 0.23296 0.20548 0.0
C106 C 0.55044 0.25508 0.20547 0.0
O107 O 0.47534 0.22669 0.25671 0.0
O108 O 0.46465 0.18874 0.23517 0.0
C109 C 0.50878 0.15321 0.20488 0.0
Fe110 Fe 0.81134 0.47475 0.20101 0.0
Fe111 Fe 0.77306 0.50573 0.24 0.0
O112 O 0.79849 0.5061 0.21418 0.0
Fe113 Fe 0.81105 0.53778 0.20155 0.0
O114 O 0.80034 0.52962 0.16699 0.0
O115 O 0.81708 0.48792 0.16623 0.0
O116 O 0.77762 0.46391 0.18964 0.0
C117 C 0.75697 0.46224 0.20506 0.0
C118 C 0.85861 0.50462 0.20482 0.0
O119 O 0.75651 0.4744 0.22791 0.0
C120 C 0.80755 0.54948 0.2562 0.0
O121 O 0.80801 0.45583 0.23342 0.0
O122 O 0.79503 0.48688 0.26318 0.0
O123 O 0.84597 0.52524 0.19546 0.0
O124 O 0.84589 0.48318 0.21147 0.0
C125 C 0.75408 0.54761 0.20809 0.0
O126 O 0.78489 0.53699 0.25692 0.0
O127 O 0.8226 0.54837 0.23526 0.0
C128 C 0.80566 0.46398 0.25792 0.0
O129 O 0.74927 0.52456 0.21866 0.0
O130 O 0.77843 0.55612 0.20541 0.0
C131 C 0.80734 0.50854 0.1539 0.0
Fe132 Fe 0.53684 0.80991 0.20213 0.0
Fe133 Fe 0.47387 0.81113 0.20218 0.0
O134 O 0.50511 0.79789 0.2152 0.0
Fe135 Fe 0.50461 0.77268 0.24131 0.0
O136 O 0.52401 0.79425 0.26446 0.0
O137 O 0.55537 0.80648 0.23463 0.0
O138 O 0.52912 0.84474 0.21223 0.0
C139 C 0.50811 0.85791 0.20512 0.0
C140 C 0.54788 0.75521 0.20676 0.0
O141 O 0.48735 0.84562 0.19565 0.0
C142 C 0.46252 0.75458 0.20914 0.0
O143 O 0.52411 0.81559 0.16717 0.0
O144 O 0.48201 0.79983 0.1678 0.0
O145 O 0.53552 0.75513 0.22952 0.0
O146 O 0.54704 0.77585 0.19124 0.0
C147 C 0.46155 0.80849 0.25677 0.0
O148 O 0.45465 0.7791 0.20627 0.0
O149 O 0.48525 0.74922 0.22011 0.0
C150 C 0.50334 0.80626 0.15477 0.0
O151 O 0.46331 0.82332 0.23569 0.0
O152 O 0.47355 0.78557 0.25787 0.0
C153 C 0.54708 0.80453 0.25911 0.0
Fe154 Fe 0.20142 0.53681 0.20212 0.0
Fe155 Fe 0.23935 0.50471 0.24052 0.0
O156 O 0.21387 0.5051 0.21475 0.0
Fe157 Fe 0.20091 0.4738 0.20167 0.0
O158 O 0.21162 0.48236 0.16719 0.0
O159 O 0.19563 0.5244 0.16709 0.0
O160 O 0.23524 0.54737 0.19095 0.0
C161 C 0.25592 0.54861 0.20633 0.0
C162 C 0.15377 0.50747 0.20541 0.0
O163 O 0.2563 0.53615 0.22904 0.0
C164 C 0.20437 0.46101 0.25605 0.0
O165 O 0.20501 0.55502 0.23488 0.0
O166 O 0.21761 0.52324 0.2641 0.0
O167 O 0.16615 0.48685 0.19577 0.0
O168 O 0.16675 0.52863 0.2124 0.0
C169 C 0.25781 0.46336 0.20788 0.0
O170 O 0.22724 0.47315 0.25685 0.0
O171 O 0.18924 0.46286 0.23523 0.0
C172 C 0.20731 0.54639 0.25926 0.0
O173 O 0.26283 0.48621 0.2187 0.0
O174 O 0.23338 0.45503 0.20527 0.0
C175 C 0.20502 0.50382 0.15445 0.0
Fe176 Fe 0.53737 0.81208 0.81216 0.0
Fe177 Fe 0.47436 0.81289 0.81139 0.0
O178 O 0.50585 0.79969 0.79895 0.0
Fe179 Fe 0.50583 0.77409 0.77332 0.0
O180 O 0.53667 0.75693 0.78573 0.0
O181 O 0.54765 0.77827 0.82378 0.0
O182 O 0.52417 0.81818 0.84687 0.0
C183 C 0.50339 0.80869 0.85916 0.0
C184 C 0.54827 0.80577 0.75537 0.0
O185 O 0.48222 0.80202 0.846 0.0
C186 C 0.46297 0.80947 0.75666 0.0
O187 O 0.52952 0.8467 0.80137 0.0
O188 O 0.48759 0.84754 0.81758 0.0
O189 O 0.52524 0.79546 0.75004 0.0
O190 O 0.5563 0.8082 0.7799 0.0
C191 C 0.46344 0.75618 0.80511 0.0
O192 O 0.46407 0.82457 0.77757 0.0
O193 O 0.47497 0.78655 0.75618 0.0
C194 C 0.50838 0.85984 0.80813 0.0
O195 O 0.4554 0.78069 0.80746 0.0
O196 O 0.48642 0.75083 0.79472 0.0
C197 C 0.5487 0.75739 0.80865 0.0
Fe198 Fe 0.20018 0.53769 0.81159 0.0
Fe199 Fe 0.23916 0.50709 0.77304 0.0
O200 O 0.21357 0.50646 0.79871 0.0
Fe201 Fe 0.20142 0.47464 0.81144 0.0
O202 O 0.16664 0.48245 0.80108 0.0
O203 O 0.16561 0.52423 0.81759 0.0
O204 O 0.18847 0.54846 0.77789 0.0
C205 C 0.20378 0.55029 0.75716 0.0
C206 C 0.20462 0.50791 0.85896 0.0
O207 O 0.22672 0.53833 0.75661 0.0
C208 C 0.25618 0.46359 0.80738 0.0
O209 O 0.23236 0.55681 0.80799 0.0
O210 O 0.26235 0.52607 0.79483 0.0
O211 O 0.19553 0.48711 0.84644 0.0
O212 O 0.21092 0.52939 0.84612 0.0
C213 C 0.20754 0.46495 0.75438 0.0
O214 O 0.25643 0.47601 0.78468 0.0
O215 O 0.23538 0.46431 0.82266 0.0
C216 C 0.25691 0.54887 0.80555 0.0
O217 O 0.21779 0.48811 0.74941 0.0
O218 O 0.2052 0.45644 0.77877 0.0
C219 C 0.15341 0.50346 0.80806 0.0
Fe220 Fe 0.50757 0.24101 0.77282 0.0
Fe221 Fe 0.47553 0.20257 0.81089 0.0
O222 O 0.5072 0.21539 0.79847 0.0
Fe223 Fe 0.53853 0.20263 0.81172 0.0
O224 O 0.54917 0.23637 0.82328 0.0
O225 O 0.53889 0.25763 0.78503 0.0
O226 O 0.4886 0.26454 0.79431 0.0
C227 C 0.46553 0.25951 0.80477 0.0
C228 C 0.54932 0.20839 0.75494 0.0
O229 O 0.45708 0.23512 0.80713 0.0
C230 C 0.50899 0.15519 0.80767 0.0
O231 O 0.47633 0.2292 0.75584 0.0
O232 O 0.46503 0.1912 0.77703 0.0
O233 O 0.55745 0.20618 0.77945 0.0
O234 O 0.52656 0.21928 0.74951 0.0
C235 C 0.5046 0.20618 0.8587 0.0
O236 O 0.48825 0.16768 0.81694 0.0
O237 O 0.53031 0.16812 0.80103 0.0
C238 C 0.46376 0.20656 0.7563 0.0
O239 O 0.48351 0.21311 0.84556 0.0
O240 O 0.52532 0.19664 0.8464 0.0
C241 C 0.55096 0.25708 0.80795 0.0
Fe242 Fe 0.81022 0.4762 0.81097 0.0
Fe243 Fe 0.77206 0.50815 0.77271 0.0
O244 O 0.79775 0.50783 0.79824 0.0
Fe245 Fe 0.81095 0.53913 0.81104 0.0
O246 O 0.84571 0.52588 0.8169 0.0
O247 O 0.84477 0.48419 0.80015 0.0
O248 O 0.80618 0.45772 0.77845 0.0
C249 C 0.80383 0.4662 0.75404 0.0
C250 C 0.80708 0.50948 0.85843 0.0
O251 O 0.79352 0.48932 0.74908 0.0
C252 C 0.75412 0.54987 0.80525 0.0
O253 O 0.77647 0.46585 0.82262 0.0
O254 O 0.75507 0.47681 0.78463 0.0
O255 O 0.80028 0.53079 0.84556 0.0
O256 O 0.81653 0.48889 0.84584 0.0
C257 C 0.80716 0.55164 0.75662 0.0
O258 O 0.74884 0.52701 0.79456 0.0
O259 O 0.77862 0.55807 0.80754 0.0
C260 C 0.75569 0.46436 0.80738 0.0
O261 O 0.78425 0.53954 0.75603 0.0
O262 O 0.82247 0.54981 0.77733 0.0
C263 C 0.85796 0.50521 0.80716 0.0
C264 C 0.21188 0.30264 0.44308 0.0
C265 C 0.19676 0.27819 0.44267 0.0
C266 C 0.20646 0.32346 0.42432 0.0
C267 C 0.17886 0.33486 0.35563 0.0
H268 H 0.18536 0.41114 0.37634 0.0
C269 C 0.17578 0.42291 0.27582 0.0
C270 C 0.19703 0.44212 0.27865 0.0
C271 C 0.17047 0.40391 0.29666 0.0
C272 C 0.18351 0.38994 0.37021 0.0
H273 H 0.16346 0.25679 0.42258 0.0
H274 H 0.15403 0.29334 0.38959 0.0
H275 H 0.18521 0.37588 0.41166 0.0
H276 H 0.22865 0.45704 0.30603 0.0
H277 H 0.21946 0.42408 0.34208 0.0
H278 H 0.17799 0.34893 0.31409 0.0
C279 C 0.17021 0.29621 0.40445 0.0
C280 C 0.18341 0.36974 0.39045 0.0
C281 C 0.17552 0.27536 0.42343 0.0
C282 C 0.21221 0.44247 0.30308 0.0
C283 C 0.20679 0.42368 0.3239 0.0
C284 C 0.17894 0.35511 0.33535 0.0
C285 C 0.18581 0.32041 0.40455 0.0
C286 C 0.18186 0.34192 0.38336 0.0
C287 C 0.18609 0.40396 0.32085 0.0
C288 C 0.18204 0.38282 0.34238 0.0
H289 H 0.2283 0.30559 0.45767 0.0
H290 H 0.21912 0.34164 0.42476 0.0
H291 H 0.17785 0.31361 0.34947 0.0
H292 H 0.16367 0.42211 0.25728 0.0
H293 H 0.15425 0.38909 0.2938 0.0
C294 C 0.59421 0.19153 0.27621 0.0
C295 C 0.56723 0.20011 0.28134 0.0
C296 C 0.61269 0.18798 0.29775 0.0
C297 C 0.62517 0.21178 0.36798 0.0
H298 H 0.6805 0.15495 0.36837 0.0
C299 C 0.70446 0.20415 0.45476 0.0
C300 C 0.73175 0.20027 0.44651 0.0
C301 C 0.683 0.20053 0.4362 0.0
C302 C 0.66525 0.17101 0.36847 0.0
H303 H 0.53819 0.21039 0.31334 0.0
H304 H 0.57038 0.20394 0.35087 0.0
H305 H 0.64523 0.15493 0.33296 0.0
H306 H 0.75774 0.18843 0.4125 0.0
H307 H 0.72037 0.18244 0.38013 0.0
H308 H 0.64541 0.22822 0.40308 0.0
C309 C 0.57737 0.20045 0.33013 0.0
C310 C 0.64505 0.171 0.34819 0.0
C311 C 0.55888 0.20402 0.3086 0.0
C312 C 0.73699 0.19167 0.41956 0.0
C313 C 0.71553 0.18806 0.401 0.0
C314 C 0.64533 0.21179 0.38822 0.0
C315 C 0.60462 0.19287 0.32493 0.0
C316 C 0.62495 0.19157 0.34753 0.0
C317 C 0.68832 0.19293 0.40897 0.0
C318 C 0.6658 0.1916 0.38855 0.0
H319 H 0.60134 0.18828 0.25548 0.0
H320 H 0.63359 0.18237 0.29299 0.0
H321 H 0.6103 0.2282 0.36782 0.0
H322 H 0.69964 0.21054 0.47542 0.0
H323 H 0.66224 0.20401 0.44311 0.0
C324 C 0.80254 0.70491 0.44919 0.0
C325 C 0.81233 0.73156 0.44464 0.0
C326 C 0.80704 0.6843 0.42987 0.0
C327 C 0.82274 0.67558 0.35617 0.0
H328 H 0.83037 0.59933 0.37666 0.0
C329 C 0.8331 0.58977 0.27546 0.0
C330 C 0.81454 0.56809 0.27905 0.0
C331 C 0.83733 0.60883 0.29642 0.0
C332 C 0.82828 0.62056 0.37066 0.0
H333 H 0.83584 0.75707 0.41692 0.0
H334 H 0.84434 0.72103 0.38367 0.0
H335 H 0.82983 0.63445 0.41215 0.0
H336 H 0.78699 0.5486 0.30792 0.0
H337 H 0.79457 0.58161 0.34442 0.0
H338 H 0.82104 0.6616 0.31469 0.0
C339 C 0.83245 0.71618 0.40172 0.0
C340 C 0.82783 0.64069 0.39098 0.0
C341 C 0.82769 0.73684 0.42089 0.0
C342 C 0.80128 0.56518 0.30443 0.0
C343 C 0.80577 0.58398 0.32544 0.0
C344 C 0.82345 0.65548 0.33587 0.0
C345 C 0.82172 0.68977 0.40567 0.0
C346 C 0.82456 0.66845 0.38404 0.0
C347 C 0.82342 0.60631 0.3215 0.0
C348 C 0.82574 0.62772 0.34291 0.0
H349 H 0.79057 0.70016 0.46724 0.0
H350 H 0.79816 0.66434 0.43351 0.0
H351 H 0.81972 0.69664 0.34999 0.0
H352 H 0.84365 0.59256 0.25616 0.0
H353 H 0.85122 0.62574 0.29291 0.0
C354 C 0.30356 0.80082 0.44422 0.0
C355 C 0.27899 0.81575 0.44363 0.0
C356 C 0.32433 0.80618 0.42536 0.0
C357 C 0.33546 0.83327 0.35633 0.0
H358 H 0.41186 0.82824 0.37716 0.0
C359 C 0.42326 0.83698 0.27633 0.0
C360 C 0.44286 0.81613 0.27942 0.0
C361 C 0.40427 0.84227 0.29718 0.0
C362 C 0.39062 0.82967 0.37099 0.0
H363 H 0.25733 0.84861 0.42309 0.0
H364 H 0.29374 0.85792 0.38996 0.0
H365 H 0.37658 0.82793 0.41244 0.0
H366 H 0.45851 0.7853 0.30731 0.0
H367 H 0.4256 0.79443 0.34332 0.0
H368 H 0.34951 0.83414 0.31479 0.0
C369 C 0.29676 0.84194 0.40502 0.0
C370 C 0.37041 0.82949 0.39121 0.0
C371 C 0.27598 0.83669 0.42409 0.0
C372 C 0.44364 0.80142 0.30414 0.0
C373 C 0.42487 0.80682 0.32495 0.0
C374 C 0.35572 0.83342 0.33606 0.0
C375 C 0.32109 0.82656 0.40531 0.0
C376 C 0.34256 0.83055 0.38409 0.0
C377 C 0.40471 0.82704 0.32163 0.0
C378 C 0.3835 0.83087 0.34313 0.0
H379 H 0.30665 0.78461 0.45903 0.0
H380 H 0.34263 0.79371 0.42596 0.0
H381 H 0.3142 0.8339 0.35014 0.0
H382 H 0.42212 0.84872 0.25755 0.0
H383 H 0.38912 0.85814 0.29409 0.0
C384 C 0.17977 0.7379 0.59023 0.0
C385 C 0.19969 0.73499 0.56963 0.0
C386 C 0.17636 0.71751 0.61018 0.0
C387 C 0.21614 0.66235 0.64262 0.0
H388 H 0.14671 0.63696 0.67151 0.0
C389 C 0.21186 0.5677 0.70994 0.0
C390 C 0.19715 0.56944 0.73459 0.0
C391 C 0.20877 0.58753 0.68969 0.0
C392 C 0.16622 0.64407 0.66377 0.0
H393 H 0.23024 0.70759 0.55275 0.0
H394 H 0.22403 0.67217 0.58701 0.0
H395 H 0.14746 0.67252 0.63595 0.0
H396 H 0.16635 0.59257 0.75658 0.0
H397 H 0.16106 0.62761 0.72093 0.0
H398 H 0.235 0.63414 0.6701 0.0
C399 C 0.21158 0.69044 0.58833 0.0
C400 C 0.16666 0.6644 0.64345 0.0
C401 C 0.21505 0.71073 0.56858 0.0
C402 C 0.17803 0.59071 0.73784 0.0
C403 C 0.17498 0.61073 0.71744 0.0
C404 C 0.21569 0.64215 0.66273 0.0
C405 C 0.19277 0.69387 0.60981 0.0
C406 C 0.19167 0.67339 0.63233 0.0
C407 C 0.19097 0.60974 0.69352 0.0
C408 C 0.19077 0.63239 0.67322 0.0
H409 H 0.16755 0.75633 0.59156 0.0
H410 H 0.16171 0.72076 0.62647 0.0
H411 H 0.23579 0.66936 0.63512 0.0
H412 H 0.2264 0.55133 0.70652 0.0
H413 H 0.22088 0.58579 0.6712 0.0
C414 C 0.27706 0.18012 0.58856 0.0
C415 C 0.27983 0.19965 0.56756 0.0
C416 C 0.29752 0.17718 0.60851 0.0
C417 C 0.35246 0.21786 0.64014 0.0
H418 H 0.37811 0.14916 0.67043 0.0
C419 C 0.44625 0.21543 0.70917 0.0
C420 C 0.44464 0.20029 0.73358 0.0
C421 C 0.42663 0.21226 0.68872 0.0
C422 C 0.37094 0.16849 0.66231 0.0
H423 H 0.30711 0.22998 0.54999 0.0
H424 H 0.34264 0.2246 0.58428 0.0
H425 H 0.34277 0.14904 0.63471 0.0
H426 H 0.42182 0.16879 0.75498 0.0
H427 H 0.38717 0.16341 0.71908 0.0
H428 H 0.38028 0.23742 0.6675 0.0
C429 C 0.32442 0.21207 0.58588 0.0
C430 C 0.35073 0.16842 0.64189 0.0
C431 C 0.30406 0.21506 0.56611 0.0
C432 C 0.42361 0.18082 0.73644 0.0
C433 C 0.4038 0.17769 0.71588 0.0
C434 C 0.37251 0.21792 0.6604 0.0
C435 C 0.3211 0.19369 0.60775 0.0
C436 C 0.34161 0.19315 0.63027 0.0
C437 C 0.40472 0.19395 0.69211 0.0
C438 C 0.38236 0.19327 0.67145 0.0
H439 H 0.25867 0.16788 0.59023 0.0
H440 H 0.29435 0.16283 0.62511 0.0
H441 H 0.34535 0.23731 0.63224 0.0
H442 H 0.46242 0.23028 0.70604 0.0
H443 H 0.42836 0.22459 0.67037 0.0
C444 C 0.81888 0.42051 0.73626 0.0
C445 C 0.80977 0.44731 0.73106 0.0
C446 C 0.82233 0.40192 0.71483 0.0
C447 C 0.79772 0.38838 0.64501 0.0
H448 H 0.85549 0.33403 0.6446 0.0
C449 C 0.80598 0.30836 0.55895 0.0
C450 C 0.8105 0.28122 0.56741 0.0
C451 C 0.80926 0.33003 0.57729 0.0
C452 C 0.83916 0.349 0.64451 0.0
H453 H 0.79833 0.47588 0.69902 0.0
H454 H 0.80459 0.44348 0.66164 0.0
H455 H 0.85537 0.36967 0.67958 0.0
H456 H 0.82309 0.25578 0.60158 0.0
H457 H 0.82854 0.29354 0.63358 0.0
H458 H 0.78121 0.36749 0.61032 0.0
C459 C 0.8086 0.43673 0.68237 0.0
C460 C 0.83909 0.36941 0.66454 0.0
C461 C 0.80515 0.45534 0.70381 0.0
C462 C 0.81936 0.2764 0.59436 0.0
C463 C 0.82265 0.29809 0.6127 0.0
C464 C 0.79781 0.368 0.625 0.0
C465 C 0.8168 0.40967 0.68767 0.0
C466 C 0.81818 0.38916 0.66523 0.0
C467 C 0.81719 0.32512 0.60451 0.0
C468 C 0.81834 0.34787 0.62468 0.0
H469 H 0.8227 0.41361 0.75698 0.0
H470 H 0.8284 0.38118 0.71969 0.0
H471 H 0.78106 0.40297 0.64519 0.0
H472 H 0.79936 0.31288 0.53827 0.0
H473 H 0.80532 0.35066 0.57021 0.0
C474 C 0.73846 0.82148 0.59317 0.0
C475 C 0.73276 0.80992 0.56746 0.0
C476 C 0.7177 0.82497 0.61248 0.0
C477 C 0.6424 0.82657 0.62186 0.0
H478 H 0.66057 0.80379 0.69569 0.0
C479 C 0.56118 0.80462 0.7056 0.0
C480 C 0.56765 0.81158 0.73276 0.0
C481 C 0.58056 0.80773 0.68476 0.0
C482 C 0.65522 0.81067 0.67531 0.0
H483 H 0.70042 0.79405 0.54149 0.0
H484 H 0.66423 0.79986 0.57537 0.0
H485 H 0.69569 0.80338 0.66051 0.0
H486 H 0.59913 0.82869 0.759 0.0
H487 H 0.6327 0.83441 0.72266 0.0
H488 H 0.60172 0.83345 0.63675 0.0
C489 C 0.68477 0.80641 0.5805 0.0
C490 C 0.67539 0.81042 0.6551 0.0
C491 C 0.70557 0.80294 0.56113 0.0
C492 C 0.59353 0.82281 0.73838 0.0
C493 C 0.61285 0.82597 0.71756 0.0
C494 C 0.62216 0.82682 0.64214 0.0
C495 C 0.69071 0.81697 0.60659 0.0
C496 C 0.66924 0.81828 0.62811 0.0
C497 C 0.60682 0.81793 0.69061 0.0
C498 C 0.62834 0.81879 0.6691 0.0
H499 H 0.75911 0.82738 0.59865 0.0
H500 H 0.72287 0.83367 0.63219 0.0
H501 H 0.63707 0.833 0.60133 0.0
H502 H 0.54141 0.79598 0.70051 0.0
H503 H 0.5753 0.80116 0.66426 0.0
C504 C 0.42265 0.17831 0.2749 0.0
C505 C 0.44439 0.19676 0.27874 0.0
C506 C 0.40338 0.17408 0.2957 0.0
C507 C 0.39107 0.1828 0.36985 0.0
H508 H 0.31523 0.19235 0.34875 0.0
C509 C 0.30674 0.20964 0.44794 0.0
C510 C 0.27997 0.20016 0.4434 0.0
C511 C 0.32733 0.20488 0.42864 0.0
C512 C 0.33621 0.18905 0.35504 0.0
H513 H 0.46377 0.22407 0.30785 0.0
H514 H 0.43041 0.21645 0.34408 0.0
H515 H 0.35053 0.19074 0.31365 0.0
H516 H 0.2542 0.17703 0.41566 0.0
H517 H 0.29021 0.16812 0.38241 0.0
H518 H 0.37687 0.18127 0.41125 0.0
C519 C 0.42815 0.20536 0.32503 0.0
C520 C 0.35646 0.18817 0.33486 0.0
C521 C 0.44715 0.20987 0.30418 0.0
C522 C 0.27453 0.18491 0.41963 0.0
C523 C 0.29517 0.17992 0.40047 0.0
C524 C 0.3708 0.18341 0.39004 0.0
C525 C 0.40576 0.18785 0.32085 0.0
C526 C 0.38414 0.18556 0.34208 0.0
C527 C 0.32173 0.19027 0.40447 0.0
C528 C 0.34313 0.18708 0.38294 0.0
H529 H 0.41997 0.1679 0.25553 0.0
H530 H 0.38642 0.16031 0.292 0.0
H531 H 0.41224 0.18045 0.37599 0.0
H532 H 0.31164 0.2215 0.46599 0.0
H533 H 0.3474 0.2135 0.43231 0.0
C534 C 0.82424 0.41938 0.27549 0.0
C535 C 0.81186 0.44484 0.28068 0.0
C536 C 0.8278 0.40032 0.29657 0.0
C537 C 0.79683 0.38052 0.36163 0.0
H538 H 0.86186 0.33626 0.37187 0.0
C539 C 0.80266 0.30458 0.45041 0.0
C540 C 0.81398 0.27872 0.44518 0.0
C541 C 0.80586 0.32592 0.43173 0.0
C542 C 0.84346 0.34826 0.36912 0.0
H543 H 0.79462 0.47062 0.31246 0.0
H544 H 0.80069 0.4373 0.34909 0.0
H545 H 0.86122 0.37168 0.33643 0.0
H546 H 0.83852 0.25519 0.41678 0.0
H547 H 0.84345 0.29232 0.38352 0.0
H548 H 0.77858 0.35684 0.39342 0.0
C549 C 0.80743 0.43204 0.32865 0.0
C550 C 0.84314 0.3686 0.34887 0.0
C551 C 0.80407 0.45117 0.30765 0.0
C552 C 0.82962 0.27495 0.42136 0.0
C553 C 0.83249 0.29628 0.40236 0.0
C554 C 0.79703 0.36012 0.3816 0.0
C555 C 0.81887 0.40622 0.32325 0.0
C556 C 0.81983 0.385 0.34501 0.0
C557 C 0.82005 0.32186 0.40702 0.0
C558 C 0.82037 0.34376 0.38575 0.0
H559 H 0.83063 0.41389 0.25499 0.0
H560 H 0.83655 0.38055 0.29177 0.0
H561 H 0.77834 0.39241 0.35876 0.0
H562 H 0.79087 0.30822 0.46884 0.0
H563 H 0.79671 0.34552 0.43648 0.0
C564 C 0.58988 0.82675 0.2764 0.0
C565 C 0.5662 0.81128 0.28166 0.0
C566 C 0.60917 0.83132 0.29701 0.0
C567 C 0.62048 0.82586 0.37245 0.0
H568 H 0.69663 0.82003 0.35093 0.0
C569 C 0.70801 0.7997 0.4472 0.0
C570 C 0.73315 0.81339 0.44423 0.0
C571 C 0.68679 0.80401 0.42855 0.0
C572 C 0.67549 0.82216 0.35722 0.0
H573 H 0.54386 0.78913 0.31297 0.0
H574 H 0.57781 0.79641 0.34871 0.0
H575 H 0.66108 0.81874 0.31611 0.0
H576 H 0.7554 0.84303 0.4198 0.0
H577 H 0.71829 0.85028 0.38689 0.0
H578 H 0.6351 0.82809 0.41376 0.0
C579 C 0.5813 0.80552 0.32881 0.0
C580 C 0.65503 0.82147 0.33725 0.0
C581 C 0.56184 0.8012 0.30825 0.0
C582 C 0.73629 0.83216 0.42264 0.0
C583 C 0.71512 0.83621 0.40374 0.0
C584 C 0.64095 0.82628 0.39245 0.0
C585 C 0.60544 0.8203 0.32336 0.0
C586 C 0.62721 0.82298 0.34459 0.0
C587 C 0.69028 0.82189 0.40632 0.0
C588 C 0.66866 0.82411 0.38507 0.0
H589 H 0.5937 0.8351 0.25622 0.0
H590 H 0.62715 0.84332 0.29217 0.0
H591 H 0.59935 0.82761 0.37887 0.0
H592 H 0.70486 0.78523 0.4637 0.0
H593 H 0.668 0.79251 0.43097 0.0
C594 C 0.19383 0.73584 0.41954 0.0
C595 C 0.20327 0.73111 0.44632 0.0
C596 C 0.19041 0.71414 0.40125 0.0
C597 C 0.21536 0.64431 0.38836 0.0
H598 H 0.15674 0.64265 0.3349 0.0
C599 C 0.20652 0.55709 0.30953 0.0
C600 C 0.20152 0.5652 0.28236 0.0
C601 C 0.20343 0.57566 0.33107 0.0
C602 C 0.17331 0.6429 0.34962 0.0
H603 H 0.21541 0.69958 0.47517 0.0
H604 H 0.20921 0.66173 0.44331 0.0
H605 H 0.1572 0.67817 0.36998 0.0
H606 H 0.18825 0.59896 0.25672 0.0
H607 H 0.18312 0.63132 0.29419 0.0
H608 H 0.23176 0.60941 0.36775 0.0
C609 C 0.2049 0.68232 0.43633 0.0
C610 C 0.17358 0.66326 0.36971 0.0
C611 C 0.20832 0.70402 0.45464 0.0
C612 C 0.19235 0.59201 0.27737 0.0
C613 C 0.18924 0.61055 0.2989 0.0
C614 C 0.21508 0.62397 0.36829 0.0
C615 C 0.1963 0.68716 0.40929 0.0
C616 C 0.19479 0.66441 0.38913 0.0
C617 C 0.19519 0.60275 0.32596 0.0
C618 C 0.19424 0.6232 0.34847 0.0
H619 H 0.18968 0.75642 0.41242 0.0
H620 H 0.18402 0.71865 0.38051 0.0
H621 H 0.23224 0.64483 0.40269 0.0
H622 H 0.21341 0.53655 0.31418 0.0
H623 H 0.20776 0.56886 0.35172 0.0
C624 C 0.2756 0.82559 0.59278 0.0
C625 C 0.28095 0.81347 0.56722 0.0
C626 C 0.29667 0.82946 0.61178 0.0
C627 C 0.36233 0.7996 0.63106 0.0
H628 H 0.37127 0.86425 0.67612 0.0
C629 C 0.45055 0.80584 0.70744 0.0
C630 C 0.44488 0.81653 0.73348 0.0
C631 C 0.43204 0.80919 0.68599 0.0
C632 C 0.36889 0.84596 0.66388 0.0
H633 H 0.31297 0.79711 0.54116 0.0
H634 H 0.34959 0.80375 0.57435 0.0
H635 H 0.3359 0.86336 0.64065 0.0
H636 H 0.41592 0.84017 0.75724 0.0
H637 H 0.38297 0.84536 0.7199 0.0
H638 H 0.39441 0.78169 0.65455 0.0
C639 C 0.32904 0.81001 0.57976 0.0
C640 C 0.34869 0.8455 0.64352 0.0
C641 C 0.30804 0.80632 0.5607 0.0
C642 C 0.42083 0.83177 0.73733 0.0
C643 C 0.402 0.83478 0.71589 0.0
C644 C 0.38227 0.79995 0.65147 0.0
C645 C 0.3235 0.82114 0.60569 0.0
C646 C 0.34527 0.82232 0.62686 0.0
C647 C 0.40708 0.82289 0.69012 0.0
C648 C 0.38594 0.82314 0.66812 0.0
H649 H 0.255 0.83149 0.59842 0.0
H650 H 0.29175 0.83796 0.63164 0.0
H651 H 0.35981 0.78121 0.61897 0.0
H652 H 0.46916 0.79436 0.70376 0.0
H653 H 0.43709 0.80049 0.66625 0.0
C654 C 0.2101 0.30828 0.55933 0.0
C655 C 0.20264 0.28124 0.56581 0.0
C656 C 0.20692 0.32922 0.57858 0.0
C657 C 0.20279 0.33879 0.65319 0.0
H658 H 0.18101 0.41282 0.63481 0.0
C659 C 0.19015 0.42014 0.73669 0.0
C660 C 0.20177 0.44593 0.73147 0.0
C661 C 0.1871 0.40106 0.71567 0.0
C662 C 0.1873 0.39228 0.64021 0.0
H663 H 0.18454 0.25538 0.59708 0.0
H664 H 0.17872 0.29185 0.63036 0.0
H665 H 0.18127 0.37757 0.59931 0.0
H666 H 0.21817 0.47229 0.69968 0.0
H667 H 0.21315 0.4388 0.66305 0.0
H668 H 0.20923 0.35337 0.69387 0.0
C669 C 0.18761 0.29679 0.61066 0.0
C670 C 0.18745 0.3721 0.61988 0.0
C671 C 0.19084 0.27588 0.5915 0.0
C672 C 0.20921 0.45259 0.70446 0.0
C673 C 0.20621 0.43344 0.6834 0.0
C674 C 0.20264 0.35889 0.67343 0.0
C675 C 0.19617 0.32359 0.60469 0.0
C676 C 0.19521 0.34511 0.62616 0.0
C677 C 0.19564 0.40724 0.68889 0.0
C678 C 0.19492 0.38589 0.66723 0.0
H679 H 0.21921 0.31315 0.53971 0.0
H680 H 0.21387 0.34961 0.57338 0.0
H681 H 0.20947 0.31838 0.65863 0.0
H682 H 0.18389 0.41442 0.75718 0.0
H683 H 0.17835 0.38128 0.72049 0.0
C684 C 0.56393 0.2108 0.70572 0.0
C685 C 0.56831 0.20113 0.73245 0.0
C686 C 0.58319 0.20584 0.68514 0.0
C687 C 0.65661 0.18924 0.67661 0.0
H688 H 0.63616 0.18118 0.60038 0.0
C689 C 0.73742 0.17865 0.59088 0.0
C690 C 0.73381 0.19722 0.56919 0.0
C691 C 0.71642 0.17432 0.6099 0.0
C692 C 0.64216 0.18337 0.62161 0.0
H693 H 0.5956 0.17736 0.75816 0.0
H694 H 0.62876 0.16812 0.72218 0.0
H695 H 0.60065 0.1822 0.63551 0.0
H696 H 0.70489 0.22461 0.54959 0.0
H697 H 0.66834 0.21687 0.58254 0.0
H698 H 0.6981 0.19064 0.66262 0.0
C699 C 0.61089 0.18024 0.71724 0.0
C700 C 0.62182 0.18409 0.64173 0.0
C701 C 0.59179 0.18543 0.73786 0.0
C702 C 0.70839 0.21033 0.5662 0.0
C703 C 0.68736 0.20575 0.58496 0.0
C704 C 0.67692 0.18827 0.65651 0.0
C705 C 0.60714 0.19084 0.69074 0.0
C706 C 0.62876 0.18756 0.66946 0.0
C707 C 0.6913 0.18813 0.60732 0.0
C708 C 0.6699 0.18585 0.62876 0.0
H709 H 0.54608 0.223 0.70087 0.0
H710 H 0.57973 0.21463 0.66509 0.0
H711 H 0.66278 0.19238 0.69765 0.0
H712 H 0.75676 0.16822 0.59372 0.0
H713 H 0.71994 0.16047 0.62685 0.0
C714 C 0.79909 0.57004 0.70952 0.0
C715 C 0.81435 0.5705 0.7339 0.0
C716 C 0.80439 0.58877 0.6886 0.0
C717 C 0.83227 0.65734 0.67658 0.0
H718 H 0.82635 0.63594 0.60041 0.0
C719 C 0.83699 0.73642 0.58784 0.0
C720 C 0.81614 0.73348 0.56821 0.0
C721 C 0.84189 0.7157 0.60711 0.0
C722 C 0.82802 0.64228 0.62158 0.0
H723 H 0.84769 0.59074 0.75509 0.0
H724 H 0.85689 0.62365 0.71841 0.0
H725 H 0.82575 0.601 0.63604 0.0
H726 H 0.78483 0.706 0.55285 0.0
H727 H 0.79327 0.67022 0.58624 0.0
H728 H 0.8337 0.69871 0.66211 0.0
C729 C 0.8407 0.60878 0.71565 0.0
C730 C 0.82767 0.62225 0.642 0.0
C731 C 0.83552 0.58983 0.73658 0.0
C732 C 0.80099 0.70903 0.56772 0.0
C733 C 0.80598 0.68836 0.58678 0.0
C734 C 0.83258 0.67742 0.65611 0.0
C735 C 0.82504 0.60857 0.69149 0.0
C736 C 0.82908 0.62957 0.66978 0.0
C737 C 0.82623 0.69153 0.60695 0.0
C738 C 0.82973 0.67016 0.62841 0.0
H739 H 0.78269 0.5554 0.70668 0.0
H740 H 0.79169 0.58824 0.67045 0.0
H741 H 0.83318 0.66369 0.69778 0.0
H742 H 0.84906 0.75498 0.58878 0.0
H743 H 0.85779 0.71868 0.62226 0.0
C744 C 0.41937 0.2752 0.19285 0.0
C745 C 0.44621 0.28034 0.20185 0.0
C746 C 0.40082 0.29667 0.18935 0.0
C747 C 0.38764 0.36651 0.21382 0.0
H748 H 0.33298 0.36715 0.1563 0.0
C749 C 0.30804 0.45291 0.20597 0.0
C750 C 0.28082 0.44459 0.2017 0.0
C751 C 0.3296 0.43447 0.20247 0.0
C752 C 0.34804 0.36717 0.17256 0.0
H753 H 0.47494 0.31232 0.21299 0.0
H754 H 0.44263 0.34976 0.20662 0.0
H755 H 0.36848 0.332 0.15632 0.0
H756 H 0.25509 0.4106 0.18929 0.0
H757 H 0.29267 0.37843 0.18348 0.0
H758 H 0.36699 0.40129 0.23038 0.0
C759 C 0.4358 0.32904 0.20275 0.0
C760 C 0.36837 0.34704 0.17257 0.0
C761 C 0.45436 0.30757 0.20627 0.0
C762 C 0.27578 0.4177 0.19283 0.0
C763 C 0.29736 0.39927 0.18933 0.0
C764 C 0.36735 0.38661 0.2138 0.0
C765 C 0.40868 0.3238 0.19471 0.0
C766 C 0.38823 0.3463 0.19339 0.0
C767 C 0.32449 0.4073 0.19459 0.0
C768 C 0.34712 0.38702 0.19335 0.0
H769 H 0.41239 0.25449 0.18919 0.0
H770 H 0.38003 0.29187 0.18339 0.0
H771 H 0.40232 0.36628 0.23042 0.0
H772 H 0.31271 0.47353 0.21257 0.0
H773 H 0.3503 0.44144 0.20624 0.0
C774 C 0.30665 0.56189 0.80487 0.0
C775 C 0.27943 0.56821 0.81175 0.0
C776 C 0.32741 0.58129 0.8083 0.0
C777 C 0.33656 0.65585 0.81178 0.0
H778 H 0.41043 0.63787 0.83447 0.0
C779 C 0.41838 0.73928 0.82271 0.0
C780 C 0.44413 0.73361 0.81123 0.0
C781 C 0.39913 0.71848 0.82626 0.0
C782 C 0.38992 0.64315 0.82794 0.0
H783 H 0.253 0.59937 0.82909 0.0
H784 H 0.2892 0.63297 0.83536 0.0
H785 H 0.37513 0.6024 0.83463 0.0
H786 H 0.47024 0.7013 0.79558 0.0
H787 H 0.43646 0.66506 0.80146 0.0
H788 H 0.35126 0.69637 0.80462 0.0
C789 C 0.29441 0.61325 0.82674 0.0
C790 C 0.36971 0.62285 0.82804 0.0
C791 C 0.27367 0.59391 0.82326 0.0
C792 C 0.45057 0.70642 0.8044 0.0
C793 C 0.43125 0.68559 0.80791 0.0
C794 C 0.35669 0.67608 0.81168 0.0
C795 C 0.32141 0.60739 0.81876 0.0
C796 C 0.34281 0.62897 0.81986 0.0
C797 C 0.40511 0.69149 0.81838 0.0
C798 C 0.38364 0.66998 0.81966 0.0
H799 H 0.31184 0.54226 0.79602 0.0
H800 H 0.34795 0.57618 0.80178 0.0
H801 H 0.3162 0.66115 0.8048 0.0
H802 H 0.41283 0.75993 0.8285 0.0
H803 H 0.37938 0.72362 0.83489 0.0
C804 C 0.27614 0.42166 0.82961 0.0
C805 C 0.27955 0.44555 0.81398 0.0
C806 C 0.29774 0.40299 0.83241 0.0
C807 C 0.36165 0.38314 0.79667 0.0
H808 H 0.37404 0.33815 0.86086 0.0
C809 C 0.45286 0.30925 0.80278 0.0
C810 C 0.44657 0.28239 0.81093 0.0
C811 C 0.43382 0.3303 0.80625 0.0
C812 C 0.37073 0.35055 0.84277 0.0
H813 H 0.3087 0.46968 0.79083 0.0
H814 H 0.34645 0.43787 0.79652 0.0
H815 H 0.33833 0.37323 0.86171 0.0
H816 H 0.41582 0.25692 0.83042 0.0
H817 H 0.38266 0.29371 0.83648 0.0
H818 H 0.39394 0.36056 0.77773 0.0
C819 C 0.32693 0.43283 0.80573 0.0
C820 C 0.35023 0.37058 0.84322 0.0
C821 C 0.30533 0.4512 0.80262 0.0
C822 C 0.42127 0.27734 0.82374 0.0
C823 C 0.40232 0.29844 0.82739 0.0
C824 C 0.3822 0.36335 0.79633 0.0
C825 C 0.32322 0.40806 0.8199 0.0
C826 C 0.3454 0.38712 0.82012 0.0
C827 C 0.40815 0.32503 0.81815 0.0
C828 C 0.38696 0.34678 0.81931 0.0
H829 H 0.25645 0.41676 0.83855 0.0
H830 H 0.29406 0.38408 0.84336 0.0
H831 H 0.35812 0.39491 0.77822 0.0
H832 H 0.47219 0.31393 0.79299 0.0
H833 H 0.43903 0.35067 0.79925 0.0
C834 C 0.7089 0.44546 0.79867 0.0
C835 C 0.73304 0.44533 0.81432 0.0
C836 C 0.68817 0.42645 0.80368 0.0
C837 C 0.67674 0.35777 0.83179 0.0
H838 H 0.60037 0.37791 0.82426 0.0
C839 C 0.58911 0.27747 0.83615 0.0
C840 C 0.56973 0.27989 0.81499 0.0
C841 C 0.60805 0.29847 0.841 0.0
C842 C 0.62161 0.37192 0.82637 0.0
H843 H 0.75394 0.42544 0.84807 0.0
H844 H 0.71759 0.3921 0.8568 0.0
H845 H 0.63542 0.4134 0.82393 0.0
H846 H 0.5545 0.30675 0.78305 0.0
H847 H 0.58733 0.34301 0.7914 0.0
H848 H 0.66292 0.3162 0.83345 0.0
C849 C 0.71488 0.40689 0.84051 0.0
C850 C 0.64169 0.39227 0.82618 0.0
C851 C 0.73563 0.42609 0.8356 0.0
C852 C 0.56918 0.3041 0.79944 0.0
C853 C 0.58791 0.32506 0.80438 0.0
C854 C 0.6566 0.33738 0.83197 0.0
C855 C 0.691 0.40672 0.82444 0.0
C856 C 0.66955 0.38541 0.82819 0.0
C857 C 0.6078 0.32243 0.82499 0.0
C858 C 0.62885 0.34417 0.82855 0.0
H859 H 0.70614 0.46001 0.78217 0.0
H860 H 0.67023 0.42671 0.79067 0.0
H861 H 0.69802 0.35176 0.83316 0.0
H862 H 0.59008 0.2591 0.84853 0.0
H863 H 0.62299 0.29592 0.85717 0.0
C864 C 0.70433 0.56229 0.80442 0.0
C865 C 0.73136 0.56885 0.81175 0.0
C866 C 0.68326 0.58122 0.80818 0.0
C867 C 0.66326 0.64452 0.8442 0.0
H868 H 0.61758 0.65587 0.78036 0.0
C869 C 0.59085 0.73809 0.83095 0.0
C870 C 0.56682 0.73423 0.81565 0.0
C871 C 0.60973 0.7167 0.83388 0.0
C872 C 0.62972 0.65269 0.79863 0.0
H873 H 0.75714 0.59999 0.83011 0.0
H874 H 0.72025 0.633 0.83669 0.0
H875 H 0.65237 0.6205 0.77964 0.0
H876 H 0.54262 0.70455 0.79334 0.0
H877 H 0.5748 0.66714 0.79933 0.0
H878 H 0.6405 0.67683 0.8632 0.0
C879 C 0.71544 0.6132 0.82801 0.0
C880 C 0.64976 0.63241 0.79814 0.0
C881 C 0.73659 0.59433 0.82407 0.0
C882 C 0.56121 0.70823 0.80486 0.0
C883 C 0.57978 0.68684 0.80813 0.0
C884 C 0.64297 0.66476 0.8448 0.0
C885 C 0.68867 0.60706 0.81955 0.0
C886 C 0.6668 0.6281 0.82086 0.0
C887 C 0.60472 0.691 0.82186 0.0
C888 C 0.62594 0.6691 0.82197 0.0
H889 H 0.69949 0.54281 0.79506 0.0
H890 H 0.66274 0.57578 0.80181 0.0
H891 H 0.67604 0.64156 0.86207 0.0
H892 H 0.59571 0.75797 0.83943 0.0
H893 H 0.62875 0.72072 0.84449 0.0
C894 C 0.58969 0.73537 0.18427 0.0
C895 C 0.56611 0.73193 0.20035 0.0
C896 C 0.60855 0.71395 0.18147 0.0
C897 C 0.6297 0.65053 0.21753 0.0
H898 H 0.67384 0.6383 0.15277 0.0
C899 C 0.70429 0.55995 0.21064 0.0
C900 C 0.73102 0.56644 0.20218 0.0
C901 C 0.68305 0.57883 0.20742 0.0
C902 C 0.66168 0.64156 0.17101 0.0
H903 H 0.54274 0.70287 0.22439 0.0
H904 H 0.57487 0.6654 0.21869 0.0
H905 H 0.63833 0.67357 0.15219 0.0
H906 H 0.75602 0.59739 0.18243 0.0
H907 H 0.71886 0.63026 0.17675 0.0
H908 H 0.65293 0.61857 0.23631 0.0
C909 C 0.57953 0.68483 0.20912 0.0
C910 C 0.6414 0.66182 0.17073 0.0
C911 C 0.56098 0.70627 0.21223 0.0
C912 C 0.73572 0.59178 0.18933 0.0
C913 C 0.7144 0.61057 0.18591 0.0
C914 C 0.64972 0.6302 0.2177 0.0
C915 C 0.604 0.68858 0.19442 0.0
C916 C 0.62517 0.6666 0.19404 0.0
C917 C 0.68797 0.60452 0.19545 0.0
C918 C 0.666 0.62551 0.19451 0.0
H919 H 0.59421 0.75496 0.17493 0.0
H920 H 0.62721 0.71768 0.17013 0.0
H921 H 0.61818 0.65402 0.23613 0.0
H922 H 0.69986 0.54058 0.22048 0.0
H923 H 0.66279 0.57345 0.21465 0.0
C924 C 0.44788 0.70548 0.21255 0.0
C925 C 0.44336 0.73204 0.20252 0.0
C926 C 0.42862 0.68479 0.20809 0.0
C927 C 0.35513 0.67555 0.1919 0.0
H928 H 0.37616 0.59943 0.18473 0.0
C929 C 0.27521 0.589 0.18095 0.0
C930 C 0.27871 0.56743 0.19968 0.0
C931 C 0.29606 0.60824 0.17693 0.0
C932 C 0.37001 0.62062 0.18669 0.0
H933 H 0.41573 0.75734 0.17871 0.0
H934 H 0.38256 0.72115 0.17031 0.0
H935 H 0.4114 0.63481 0.18535 0.0
H936 H 0.30731 0.54833 0.22777 0.0
H937 H 0.34365 0.58167 0.22053 0.0
H938 H 0.31374 0.66125 0.19335 0.0
C939 C 0.40056 0.71643 0.18233 0.0
C940 C 0.39018 0.6409 0.18719 0.0
C941 C 0.41967 0.73718 0.18703 0.0
C942 C 0.30389 0.56482 0.21334 0.0
C943 C 0.3248 0.58381 0.20906 0.0
C944 C 0.33497 0.65529 0.19113 0.0
C945 C 0.40452 0.69008 0.19323 0.0
C946 C 0.38304 0.66861 0.1903 0.0
C947 C 0.32094 0.60601 0.19122 0.0
C948 C 0.34221 0.62758 0.18901 0.0
H949 H 0.46588 0.70083 0.22461 0.0
H950 H 0.43226 0.66489 0.21713 0.0
H951 H 0.3488 0.69657 0.19478 0.0
H952 H 0.25606 0.59156 0.1701 0.0
H953 H 0.29262 0.62506 0.1629 0.0
C954 C 0.59046 0.27477 0.17947 0.0
C955 C 0.56955 0.27772 0.19906 0.0
C956 C 0.6103 0.29526 0.17619 0.0
C957 C 0.64199 0.35034 0.21632 0.0
H958 H 0.67152 0.37628 0.14734 0.0
C959 C 0.70987 0.44467 0.21349 0.0
C960 C 0.73438 0.44311 0.19856 0.0
C961 C 0.68956 0.42495 0.21022 0.0
C962 C 0.6636 0.36902 0.16673 0.0
H963 H 0.55195 0.3053 0.22904 0.0
H964 H 0.58609 0.34086 0.22308 0.0
H965 H 0.63602 0.34069 0.14749 0.0
H966 H 0.75611 0.42039 0.16725 0.0
H967 H 0.72042 0.38554 0.16171 0.0
H968 H 0.6693 0.37834 0.23567 0.0
C969 C 0.58769 0.3225 0.21079 0.0
C970 C 0.64332 0.34868 0.16682 0.0
C971 C 0.56804 0.30213 0.21413 0.0
C972 C 0.73748 0.42211 0.17913 0.0
C973 C 0.71705 0.40219 0.17591 0.0
C974 C 0.66209 0.37052 0.21623 0.0
C975 C 0.60951 0.31901 0.1924 0.0
C976 C 0.63197 0.33951 0.19166 0.0
C977 C 0.69321 0.40303 0.19203 0.0
C978 C 0.67282 0.38048 0.19147 0.0
H979 H 0.59213 0.25623 0.16748 0.0
H980 H 0.62687 0.292 0.16184 0.0
H981 H 0.63427 0.34318 0.23583 0.0
H982 H 0.70658 0.46083 0.22828 0.0
H983 H 0.67113 0.42658 0.22244 0.0
C984 C 0.20851 0.90417 0.53135 0.0
C985 C 0.20548 0.8892 0.507 0.0
C986 C 0.20905 0.93276 0.53085 0.0
C987 C 0.19094 0.99221 0.48681 0.0
H988 H 0.23736 0.03179 0.53752 0.0
C989 C 0.20941 0.10888 0.47951 0.0
C990 C 0.20665 0.12361 0.50406 0.0
C991 C 0.20977 0.08028 0.47972 0.0
C992 C 0.22418 0.02099 0.52336 0.0
H993 H 0.2013 0.89254 0.46294 0.0
H994 H 0.20307 0.94228 0.46195 0.0
H995 H 0.2374 0.98191 0.5379 0.0
H996 H 0.20267 0.11982 0.54814 0.0
H997 H 0.20365 0.06988 0.54845 0.0
H998 H 0.17819 0.03144 0.47198 0.0
C999 C 0.20423 0.93204 0.48157 0.0
C1000 C 0.22409 0.99239 0.52362 0.0
C1001 C 0.20336 0.90346 0.4821 0.0
C1002 C 0.2047 0.10909 0.52885 0.0
C1003 C 0.20542 0.08051 0.52907 0.0
C1004 C 0.19129 0.02079 0.48635 0.0
C1005 C 0.20694 0.9471 0.50595 0.0
C1006 C 0.20737 0.97759 0.50542 0.0
C1007 C 0.20777 0.06581 0.5045 0.0
C1008 C 0.20782 0.03547 0.50469 0.0
H1009 H 0.21006 0.89383 0.5509 0.0
H1010 H 0.2107 0.94359 0.5501 0.0
H1011 H 0.17741 0.98161 0.47284 0.0
H1012 H 0.21096 0.11941 0.46006 0.0
H1013 H 0.21184 0.06946 0.46049 0.0
C1014 C 0.10879 0.19721 0.48605 0.0
C1015 C 0.12395 0.2057 0.50899 0.0
C1016 C 0.08021 0.19772 0.48646 0.0
C1017 C 0.02099 0.22857 0.52205 0.0
H1018 H 0.9815 0.16777 0.4899 0.0
C1019 C 0.90354 0.21548 0.53267 0.0
C1020 C 0.88919 0.20623 0.50949 0.0
C1021 C 0.93217 0.21592 0.53287 0.0
C1022 C 0.99219 0.18506 0.49869 0.0
H1023 H 0.12078 0.22168 0.55029 0.0
H1024 H 0.07086 0.2223 0.55105 0.0
H1025 H 0.03132 0.16759 0.48987 0.0
H1026 H 0.89384 0.19064 0.46818 0.0
H1027 H 0.94362 0.19164 0.46849 0.0
H1028 H 0.98176 0.24603 0.53086 0.0
C1029 C 0.08115 0.21548 0.53265 0.0
C1030 C 0.02078 0.18496 0.49868 0.0
C1031 C 0.10978 0.21497 0.53226 0.0
C1032 C 0.90417 0.19773 0.48645 0.0
C1033 C 0.93276 0.19815 0.48668 0.0
C1034 C 0.99235 0.22868 0.52206 0.0
C1035 C 0.06601 0.20673 0.50979 0.0
C1036 C 0.03555 0.20676 0.51025 0.0
C1037 C 0.94714 0.20711 0.50993 0.0
C1038 C 0.9776 0.20697 0.51027 0.0
H1039 H 0.11897 0.19012 0.4677 0.0
H1040 H 0.06922 0.19126 0.46833 0.0
H1041 H 0.03171 0.24585 0.53083 0.0
H1042 H 0.89269 0.2222 0.55078 0.0
H1043 H 0.94259 0.2227 0.55122 0.0
C1044 C 0.80937 0.10883 0.53043 0.0
C1045 C 0.80702 0.12335 0.50567 0.0
C1046 C 0.80846 0.08023 0.53071 0.0
C1047 C 0.82105 0.02024 0.48761 0.0
H1048 H 0.77595 0.98168 0.5403 0.0
C1049 C 0.80772 0.9031 0.48282 0.0
C1050 C 0.80604 0.88854 0.50758 0.0
C1051 C 0.807 0.93169 0.48261 0.0
C1052 C 0.78898 0.99205 0.52569 0.0
H1053 H 0.80182 0.11909 0.46178 0.0
H1054 H 0.80064 0.06915 0.46229 0.0
H1055 H 0.7766 0.03157 0.54011 0.0
H1056 H 0.80222 0.8927 0.5516 0.0
H1057 H 0.80182 0.94253 0.55134 0.0
H1058 H 0.83405 0.98097 0.47357 0.0
C1059 C 0.80317 0.07996 0.48146 0.0
C1060 C 0.78925 0.02068 0.52554 0.0
C1061 C 0.80371 0.10858 0.4812 0.0
C1062 C 0.80344 0.90327 0.53214 0.0
C1063 C 0.80305 0.9319 0.53196 0.0
C1064 C 0.82104 0.99164 0.48796 0.0
C1065 C 0.80553 0.06548 0.50621 0.0
C1066 C 0.80522 0.03508 0.50644 0.0
C1067 C 0.80491 0.94654 0.50718 0.0
C1068 C 0.80494 0.9771 0.50694 0.0
H1069 H 0.81182 0.11956 0.54965 0.0
H1070 H 0.81052 0.06962 0.55007 0.0
H1071 H 0.83386 0.03078 0.4729 0.0
H1072 H 0.80943 0.89239 0.4635 0.0
H1073 H 0.80788 0.94211 0.46307 0.0
C1074 C 0.10881 0.81444 0.52648 0.0
C1075 C 0.12389 0.80589 0.50352 0.0
C1076 C 0.08022 0.81402 0.52612 0.0
C1077 C 0.0208 0.78352 0.4905 0.0
H1078 H 0.98178 0.8448 0.52226 0.0
C1079 C 0.90355 0.79752 0.47942 0.0
C1080 C 0.88922 0.80676 0.50261 0.0
C1081 C 0.93217 0.79698 0.47923 0.0
C1082 C 0.99234 0.82738 0.51357 0.0
H1083 H 0.12059 0.78983 0.46226 0.0
H1084 H 0.0707 0.78934 0.46158 0.0
H1085 H 0.0316 0.84451 0.52253 0.0
H1086 H 0.89391 0.82232 0.54394 0.0
H1087 H 0.94367 0.82116 0.54364 0.0
H1088 H 0.98145 0.76642 0.48153 0.0
C1089 C 0.08103 0.79615 0.47996 0.0
C1090 C 0.02092 0.82721 0.51373 0.0
C1091 C 0.10965 0.79657 0.48031 0.0
C1092 C 0.90422 0.81524 0.52565 0.0
C1093 C 0.9328 0.81472 0.52544 0.0
C1094 C 0.99217 0.78369 0.49033 0.0
C1095 C 0.06597 0.80503 0.50281 0.0
C1096 C 0.03552 0.80523 0.5023 0.0
C1097 C 0.94715 0.8057 0.5022 0.0
C1098 C 0.97759 0.80559 0.50197 0.0
H1099 H 0.11906 0.82157 0.54479 0.0
H1100 H 0.06928 0.82057 0.54424 0.0
H1101 H 0.0314 0.76612 0.48182 0.0
H1102 H 0.89267 0.79081 0.46131 0.0
H1103 H 0.94258 0.79016 0.4609 0.0
C1104 C 0.48126 0.21622 0.90345 0.0
C1105 C 0.50445 0.2071 0.88905 0.0
C1106 C 0.48111 0.21658 0.93209 0.0
C1107 C 0.51554 0.18572 0.99199 0.0
H1108 H 0.48351 0.24648 0.03158 0.0
C1109 C 0.52778 0.19744 0.10876 0.0
C1110 C 0.5047 0.20584 0.12375 0.0
C1111 C 0.52761 0.1981 0.08016 0.0
C1112 C 0.49227 0.22922 0.02083 0.0
H1113 H 0.54584 0.19166 0.8936 0.0
H1114 H 0.54561 0.19252 0.94338 0.0
H1115 H 0.48335 0.24672 0.98163 0.0
H1116 H 0.46342 0.22184 0.12027 0.0
H1117 H 0.46307 0.22272 0.07039 0.0
H1118 H 0.52445 0.16819 0.03111 0.0
C1119 C 0.52738 0.19898 0.93256 0.0
C1120 C 0.49217 0.22935 0.9922 0.0
C1121 C 0.52755 0.19864 0.90398 0.0
C1122 C 0.48156 0.2152 0.10941 0.0
C1123 C 0.4814 0.21586 0.08079 0.0
C1124 C 0.51564 0.18558 0.02058 0.0
C1125 C 0.50413 0.20782 0.94698 0.0
C1126 C 0.50389 0.20764 0.97743 0.0
C1127 C 0.50438 0.20719 0.06582 0.0
C1128 C 0.50408 0.20736 0.03537 0.0
H1129 H 0.46311 0.22291 0.89263 0.0
H1130 H 0.46277 0.22326 0.94256 0.0
H1131 H 0.5243 0.16843 0.98127 0.0
H1132 H 0.54603 0.19028 0.11909 0.0
H1133 H 0.54581 0.19168 0.06928 0.0
C1134 C 0.79691 0.53241 0.9033 0.0
C1135 C 0.80612 0.50935 0.88879 0.0
C1136 C 0.79643 0.53238 0.93193 0.0
C1137 C 0.82696 0.49769 0.99184 0.0
H1138 H 0.76607 0.52986 0.03119 0.0
C1139 C 0.81473 0.4856 0.10859 0.0
C1140 C 0.80626 0.50866 0.12355 0.0
C1141 C 0.81421 0.48578 0.08 0.0
C1142 C 0.78337 0.52106 0.02051 0.0
H1143 H 0.82164 0.46798 0.89312 0.0
H1144 H 0.82056 0.46787 0.94294 0.0
H1145 H 0.76603 0.52995 0.98125 0.0
H1146 H 0.7903 0.54994 0.12 0.0
H1147 H 0.78966 0.5503 0.07009 0.0
H1148 H 0.84434 0.48883 0.03104 0.0
C1149 C 0.81411 0.48615 0.9322 0.0
C1150 C 0.78335 0.52111 0.99188 0.0
C1151 C 0.81458 0.48617 0.9036 0.0
C1152 C 0.79699 0.53181 0.10917 0.0
C1153 C 0.79646 0.53197 0.08053 0.0
C1154 C 0.82699 0.49764 0.02044 0.0
C1155 C 0.80514 0.50929 0.94673 0.0
C1156 C 0.80512 0.50937 0.97719 0.0
C1157 C 0.8052 0.509 0.0656 0.0
C1158 C 0.80517 0.50926 0.03514 0.0
H1159 H 0.79023 0.55063 0.89259 0.0
H1160 H 0.78967 0.55064 0.94247 0.0
H1161 H 0.84429 0.48892 0.98119 0.0
H1162 H 0.82183 0.46734 0.11896 0.0
H1163 H 0.82067 0.46757 0.06917 0.0
C1164 C 0.5265 0.81343 0.10948 0.0
C1165 C 0.5033 0.8052 0.1244 0.0
C1166 C 0.52633 0.81314 0.08088 0.0
C1167 C 0.49056 0.78349 0.02107 0.0
H1168 H 0.52361 0.84442 0.98242 0.0
C1169 C 0.47996 0.79832 0.90382 0.0
C1170 C 0.50322 0.80747 0.88952 0.0
C1171 C 0.47979 0.79755 0.93246 0.0
C1172 C 0.51457 0.82709 0.99287 0.0
H1173 H 0.4618 0.78982 0.12076 0.0
H1174 H 0.46146 0.78955 0.07084 0.0
H1175 H 0.52367 0.84385 0.03225 0.0
H1176 H 0.54471 0.82258 0.89428 0.0
H1177 H 0.54446 0.821 0.94406 0.0
H1178 H 0.48146 0.76675 0.98161 0.0
C1179 C 0.47988 0.79601 0.08131 0.0
C1180 C 0.5146 0.82676 0.02147 0.0
C1181 C 0.48003 0.79632 0.10996 0.0
C1182 C 0.52637 0.81558 0.90457 0.0
C1183 C 0.52619 0.81483 0.93316 0.0
C1184 C 0.49053 0.78382 0.99243 0.0
C1185 C 0.50297 0.80459 0.06642 0.0
C1186 C 0.50268 0.80493 0.03594 0.0
C1187 C 0.50286 0.80592 0.94749 0.0
C1188 C 0.50261 0.80559 0.97797 0.0
H1189 H 0.54485 0.82023 0.11988 0.0
H1190 H 0.54463 0.81945 0.07008 0.0
H1191 H 0.48151 0.76619 0.03156 0.0
H1192 H 0.46177 0.7919 0.89292 0.0
H1193 H 0.46139 0.79084 0.94283 0.0
C1194 C 0.20889 0.53212 0.9041 0.0
C1195 C 0.20591 0.50764 0.8893 0.0
C1196 C 0.20948 0.53184 0.93272 0.0
C1197 C 0.22406 0.4879 0.99193 0.0
H1198 H 0.17819 0.5388 0.0318 0.0
C1199 C 0.20925 0.47996 0.10912 0.0
C1200 C 0.20627 0.5043 0.12412 0.0
C1201 C 0.20976 0.48047 0.08049 0.0
C1202 C 0.19149 0.52472 0.02108 0.0
H1203 H 0.20178 0.4636 0.89304 0.0
H1204 H 0.20316 0.46315 0.943 0.0
H1205 H 0.17859 0.53978 0.98195 0.0
H1206 H 0.20224 0.54834 0.12076 0.0
H1207 H 0.20397 0.54935 0.07101 0.0
H1208 H 0.23743 0.47312 0.03091 0.0
C1209 C 0.20492 0.48254 0.9324 0.0
C1210 C 0.19161 0.52525 0.99246 0.0
C1211 C 0.20397 0.48284 0.9038 0.0
C1212 C 0.20426 0.52918 0.10984 0.0
C1213 C 0.20509 0.52972 0.08124 0.0
C1214 C 0.2242 0.48757 0.02056 0.0
C1215 C 0.2075 0.50705 0.94718 0.0
C1216 C 0.2078 0.50677 0.97758 0.0
C1217 C 0.20764 0.50536 0.06612 0.0
C1218 C 0.20783 0.50591 0.03556 0.0
H1219 H 0.21045 0.55158 0.89359 0.0
H1220 H 0.21172 0.55102 0.94357 0.0
H1221 H 0.23698 0.47362 0.98099 0.0
H1222 H 0.21073 0.46042 0.11947 0.0
H1223 H 0.21131 0.46123 0.06965 0.0
C1224 C 0.10883 0.53196 0.20985 0.0
C1225 C 0.12347 0.50742 0.20657 0.0
C1226 C 0.08022 0.53187 0.21036 0.0
C1227 C 0.02082 0.4882 0.22434 0.0
H1228 H 0.98133 0.53957 0.17856 0.0
C1229 C 0.90385 0.48066 0.20886 0.0
C1230 C 0.8889 0.50505 0.20604 0.0
C1231 C 0.93246 0.48111 0.20946 0.0
C1232 C 0.99195 0.52536 0.19183 0.0
H1233 H 0.11948 0.46348 0.2018 0.0
H1234 H 0.06954 0.46335 0.20304 0.0
H1235 H 0.03118 0.54035 0.17918 0.0
H1236 H 0.89229 0.54913 0.20237 0.0
H1237 H 0.94203 0.55003 0.20429 0.0
H1238 H 0.98176 0.4735 0.23747 0.0
C1239 C 0.08025 0.48264 0.20511 0.0
C1240 C 0.02055 0.52577 0.19208 0.0
C1241 C 0.10884 0.48275 0.20423 0.0
C1242 C 0.9032 0.52993 0.20426 0.0
C1243 C 0.93178 0.53042 0.2052 0.0
C1244 C 0.99221 0.48799 0.22436 0.0
C1245 C 0.06564 0.50721 0.208 0.0
C1246 C 0.03528 0.50712 0.20822 0.0
C1247 C 0.94683 0.506 0.20763 0.0
C1248 C 0.97736 0.50649 0.208 0.0
H1249 H 0.11946 0.55132 0.21173 0.0
H1250 H 0.06948 0.55109 0.21284 0.0
H1251 H 0.03166 0.47378 0.23723 0.0
H1252 H 0.89348 0.46112 0.21015 0.0
H1253 H 0.94327 0.46184 0.2109 0.0
C1254 C 0.90347 0.52772 0.81484 0.0
C1255 C 0.88831 0.50486 0.8062 0.0
C1256 C 0.93207 0.52724 0.81449 0.0
C1257 C 0.99137 0.4914 0.78396 0.0
H1258 H 0.03058 0.52301 0.84523 0.0
C1259 C 0.10869 0.48006 0.79782 0.0
C1260 C 0.12305 0.50322 0.80708 0.0
C1261 C 0.08005 0.4799 0.79731 0.0
C1262 C 0.01997 0.51436 0.82781 0.0
H1263 H 0.8915 0.46362 0.79008 0.0
H1264 H 0.94137 0.46274 0.78974 0.0
H1265 H 0.98076 0.5235 0.84496 0.0
H1266 H 0.1184 0.54453 0.82267 0.0
H1267 H 0.06866 0.54428 0.82155 0.0
H1268 H 0.03067 0.48226 0.76684 0.0
C1269 C 0.93111 0.48114 0.79655 0.0
C1270 C 0.99138 0.51465 0.82765 0.0
C1271 C 0.90249 0.48161 0.7969 0.0
C1272 C 0.10807 0.52626 0.81558 0.0
C1273 C 0.07949 0.52608 0.81509 0.0
C1274 C 0.02 0.4911 0.78412 0.0
C1275 C 0.94625 0.50391 0.80549 0.0
C1276 C 0.97671 0.50328 0.80568 0.0
C1277 C 0.06511 0.50287 0.80607 0.0
C1278 C 0.03465 0.50269 0.806 0.0
H1279 H 0.89328 0.54605 0.82196 0.0
H1280 H 0.94308 0.5453 0.8211 0.0
H1281 H 0.98072 0.48276 0.76655 0.0
H1282 H 0.11955 0.46196 0.7911 0.0
H1283 H 0.06961 0.4616 0.79048 0.0
C1284 C 0.4858 0.10996 0.81507 0.0
C1285 C 0.50897 0.12484 0.80671 0.0
C1286 C 0.4859 0.08138 0.81467 0.0
C1287 C 0.52129 0.02179 0.78427 0.0
H1288 H 0.48861 0.98266 0.84511 0.0
C1289 C 0.53185 0.90451 0.79804 0.0
C1290 C 0.50859 0.89018 0.80713 0.0
C1291 C 0.53206 0.93313 0.79754 0.0
C1292 C 0.49755 0.99325 0.8278 0.0
H1293 H 0.55037 0.12117 0.79106 0.0
H1294 H 0.5506 0.0713 0.79061 0.0
H1295 H 0.48864 0.03248 0.84499 0.0
H1296 H 0.46715 0.89485 0.82241 0.0
H1297 H 0.46748 0.94461 0.8213 0.0
H1298 H 0.53022 0.98249 0.76711 0.0
C1299 C 0.53224 0.08179 0.79724 0.0
C1300 C 0.49756 0.02184 0.82773 0.0
C1301 C 0.53216 0.1104 0.79766 0.0
C1302 C 0.48549 0.90517 0.81545 0.0
C1303 C 0.48572 0.93375 0.81496 0.0
C1304 C 0.52128 0.99317 0.78434 0.0
C1305 C 0.50916 0.06692 0.80587 0.0
C1306 C 0.50936 0.03647 0.80594 0.0
C1307 C 0.50904 0.9481 0.80612 0.0
C1308 C 0.50934 0.97855 0.80607 0.0
H1309 H 0.46752 0.12038 0.82201 0.0
H1310 H 0.46762 0.07059 0.82104 0.0
H1311 H 0.53024 0.03241 0.76699 0.0
H1312 H 0.55 0.89365 0.79146 0.0
H1313 H 0.55046 0.94354 0.79087 0.0
C1314 C 0.53159 0.90257 0.21512 0.0
C1315 C 0.50841 0.88825 0.20587 0.0
C1316 C 0.53184 0.93119 0.21548 0.0
C1317 C 0.49771 0.9913 0.18468 0.0
H1318 H 0.52961 0.03046 0.24583 0.0
C1319 C 0.48572 0.108 0.19713 0.0
C1320 C 0.50879 0.12287 0.20577 0.0
C1321 C 0.48584 0.07941 0.19754 0.0
C1322 C 0.52089 0.01983 0.22846 0.0
H1323 H 0.46714 0.89293 0.19012 0.0
H1324 H 0.46754 0.94269 0.19099 0.0
H1325 H 0.52962 0.98054 0.24579 0.0
H1326 H 0.55 0.11919 0.22192 0.0
H1327 H 0.55024 0.06933 0.22238 0.0
H1328 H 0.48898 0.03053 0.16732 0.0
C1329 C 0.48569 0.93182 0.19756 0.0
C1330 C 0.5209 0.99122 0.22843 0.0
C1331 C 0.48543 0.90325 0.19721 0.0
C1332 C 0.53187 0.10842 0.2151 0.0
C1333 C 0.53197 0.07982 0.21552 0.0
C1334 C 0.4977 0.01988 0.1847 0.0
C1335 C 0.50893 0.94616 0.2066 0.0
C1336 C 0.50924 0.9766 0.20657 0.0
C1337 C 0.50899 0.06496 0.20663 0.0
C1338 C 0.50921 0.03451 0.20662 0.0
H1339 H 0.54966 0.8917 0.22195 0.0
H1340 H 0.55018 0.94159 0.22231 0.0
H1341 H 0.48899 0.9807 0.16728 0.0
H1342 H 0.46752 0.11841 0.18997 0.0
H1343 H 0.46764 0.06862 0.19095 0.0
loop_
_geom_bond_atom_site_label_1
_geom_bond_atom_site_label_2
_geom_bond_distance
_geom_bond_site_symmetry_2
_ccdc_geom_bond_type
Fe0 O2 1.918 . S
Fe0 O5 1.997 . S
Fe0 O6 2.002 . S
Fe0 O11 1.976 . S
Fe0 O14 1.996 . S
Fe1 O2 1.918 . S
Fe1 O9 1.997 . S
Fe1 O12 1.996 . S
Fe1 O16 1.976 . S
Fe1 O19 2.002 . S
O2 Fe0 1.918 . S
O2 Fe1 1.918 . S
O2 Fe3 1.918 . S
Fe3 O2 1.918 . S
Fe3 O4 2.002 . S
Fe3 O13 1.976 . S
Fe3 O17 1.996 . S
Fe3 O20 1.997 . S
O4 Fe3 2.002 . S
O4 C21 1.295 . S
O5 Fe0 1.997 . S
O5 C21 1.235 . S
O6 Fe0 2.002 . S
O6 C7 1.295 . S
C7 O6 1.295 . S
C7 O9 1.235 . S
C8 O13 1.287 . S
C8 O14 1.255 . S
O9 Fe1 1.997 . S
O9 C7 1.235 . S
C10 O16 1.287 . S
C10 O17 1.255 . S
O11 Fe0 1.976 . S
O11 C18 1.287 . S
O12 Fe1 1.996 . S
O12 C18 1.255 . S
O13 Fe3 1.976 . S
O13 C8 1.287 . S
O14 Fe0 1.996 . S
O14 C8 1.255 . S
C15 O19 1.295 . S
C15 O20 1.235 . S
O16 Fe1 1.976 . S
O16 C10 1.287 . S
O17 Fe3 1.996 . S
O17 C10 1.255 . S
C18 O11 1.287 . S
C18 O12 1.255 . S
O19 Fe1 2.002 . S
O19 C15 1.295 . S
O20 Fe3 1.997 . S
O20 C15 1.235 . S
C21 O4 1.295 . S
C21 O5 1.235 . S
Fe22 O24 1.918 . S
Fe22 O27 1.997 . S
Fe22 O28 2.002 . S
Fe22 O33 1.976 . S
Fe22 O36 1.996 . S
Fe23 O24 1.918 . S
Fe23 O31 1.997 . S
Fe23 O34 1.996 . S
Fe23 O38 1.976 . S
Fe23 O41 2.002 . S
O24 Fe22 1.918 . S
O24 Fe23 1.918 . S
O24 Fe25 1.918 . S
Fe25 O24 1.918 . S
Fe25 O26 2.002 . S
Fe25 O35 1.976 . S
Fe25 O39 1.996 . S
Fe25 O42 1.997 . S
O26 Fe25 2.002 . S
O26 C43 1.295 . S
O27 Fe22 1.997 . S
O27 C43 1.235 . S
O28 Fe22 2.002 . S
O28 C29 1.295 . S
C29 O28 1.295 . S
C29 O31 1.235 . S
C30 O35 1.287 . S
C30 O36 1.255 . S
O31 Fe23 1.997 . S
O31 C29 1.235 . S
C32 O38 1.287 . S
C32 O39 1.255 . S
O33 Fe22 1.976 . S
O33 C40 1.287 . S
O34 Fe23 1.996 . S
O34 C40 1.255 . S
O35 Fe25 1.976 . S
O35 C30 1.287 . S
O36 Fe22 1.996 . S
O36 C30 1.255 . S
C37 O41 1.295 . S
C37 O42 1.235 . S
O38 Fe23 1.976 . S
O38 C32 1.287 . S
O39 Fe25 1.996 . S
O39 C32 1.255 . S
C40 O33 1.287 . S
C40 O34 1.255 . S
O41 Fe23 2.002 . S
O41 C37 1.295 . S
O42 Fe25 1.997 . S
O42 C37 1.235 . S
C43 O26 1.295 . S
C43 O27 1.235 . S
Fe44 O46 1.918 . S
Fe44 O49 1.997 . S
Fe44 O50 2.002 . S
Fe44 O55 1.976 . S
Fe44 O58 1.996 . S
Fe45 O46 1.918 . S
Fe45 O53 1.997 . S
Fe45 O56 1.996 . S
Fe45 O60 1.976 . S
Fe45 O63 2.002 . S
O46 Fe44 1.918 . S
O46 Fe45 1.918 . S
O46 Fe47 1.918 . S
Fe47 O46 1.918 . S
Fe47 O48 2.002 . S
Fe47 O57 1.976 . S
Fe47 O61 1.996 . S
Fe47 O64 1.997 . S
O48 Fe47 2.002 . S
O48 C65 1.295 . S
O49 Fe44 1.997 . S
O49 C65 1.235 . S
O50 Fe44 2.002 . S
O50 C51 1.295 . S
C51 O50 1.295 . S
C51 O53 1.235 . S
C52 O57 1.287 . S
C52 O58 1.255 . S
O53 Fe45 1.997 . S
O53 C51 1.235 . S
C54 O60 1.287 . S
C54 O61 1.255 . S
O55 Fe44 1.976 . S
O55 C62 1.287 . S
O56 Fe45 1.996 . S
O56 C62 1.255 . S
O57 Fe47 1.976 . S
O57 C52 1.287 . S
O58 Fe44 1.996 . S
O58 C52 1.255 . S
C59 O63 1.295 . S
C59 O64 1.235 . S
O60 Fe45 1.976 . S
O60 C54 1.287 . S
O61 Fe47 1.996 . S
O61 C54 1.255 . S
C62 O55 1.287 . S
C62 O56 1.255 . S
O63 Fe45 2.002 . S
O63 C59 1.295 . S
O64 Fe47 1.997 . S
O64 C59 1.235 . S
C65 O48 1.295 . S
C65 O49 1.235 . S
Fe66 O68 1.918 . S
Fe66 O71 1.997 . S
Fe66 O72 2.002 . S
Fe66 O77 1.976 . S
Fe66 O80 1.996 . S
Fe67 O68 1.918 . S
Fe67 O75 1.997 . S
Fe67 O78 1.996 . S
Fe67 O82 1.976 . S
Fe67 O85 2.002 . S
O68 Fe66 1.918 . S
O68 Fe67 1.918 . S
O68 Fe69 1.918 . S
Fe69 O68 1.918 . S
Fe69 O70 2.002 . S
Fe69 O79 1.976 . S
Fe69 O83 1.996 . S
Fe69 O86 1.997 . S
O70 Fe69 2.002 . S
O70 C87 1.295 . S
O71 Fe66 1.997 . S
O71 C87 1.235 . S
O72 Fe66 2.002 . S
O72 C73 1.295 . S
C73 O72 1.295 . S
C73 O75 1.235 . S
C74 O79 1.287 . S
C74 O80 1.255 . S
O75 Fe67 1.997 . S
O75 C73 1.235 . S
C76 O82 1.287 . S
C76 O83 1.255 . S
O77 Fe66 1.976 . S
O77 C84 1.287 . S
O78 Fe67 1.996 . S
O78 C84 1.255 . S
O79 Fe69 1.976 . S
O79 C74 1.287 . S
O80 Fe66 1.996 . S
O80 C74 1.255 . S
C81 O85 1.295 . S
C81 O86 1.235 . S
O82 Fe67 1.976 . S
O82 C76 1.287 . S
O83 Fe69 1.996 . S
O83 C76 1.255 . S
C84 O77 1.287 . S
C84 O78 1.255 . S
O85 Fe67 2.002 . S
O85 C81 1.295 . S
O86 Fe69 1.997 . S
O86 C81 1.235 . S
C87 O70 1.295 . S
C87 O71 1.235 . S
Fe88 O90 1.918 . S
Fe88 O93 1.997 . S
Fe88 O94 2.002 . S
Fe88 O99 1.976 . S
Fe88 O102 1.996 . S
Fe89 O90 1.918 . S
Fe89 O97 1.997 . S
Fe89 O100 1.996 . S
Fe89 O104 1.976 . S
Fe89 O107 2.002 . S
O90 Fe88 1.918 . S
O90 Fe89 1.918 . S
O90 Fe91 1.918 . S
Fe91 O90 1.918 . S
Fe91 O92 2.002 . S
Fe91 O101 1.976 . S
Fe91 O105 1.996 . S
Fe91 O108 1.997 . S
O92 Fe91 2.002 . S
O92 C109 1.295 . S
O93 Fe88 1.997 . S
O93 C109 1.235 . S
O94 Fe88 2.002 . S
O94 C95 1.295 . S
C95 O94 1.295 . S
C95 O97 1.235 . S
C96 O101 1.287 . S
C96 O102 1.255 . S
O97 Fe89 1.997 . S
O97 C95 1.235 . S
C98 O104 1.287 . S
C98 O105 1.255 . S
O99 Fe88 1.976 . S
O99 C106 1.287 . S
O100 Fe89 1.996 . S
O100 C106 1.255 . S
O101 Fe91 1.976 . S
O101 C96 1.287 . S
O102 Fe88 1.996 . S
O102 C96 1.255 . S
C103 O107 1.295 . S
C103 O108 1.235 . S
O104 Fe89 1.976 . S
O104 C98 1.287 . S
O105 Fe91 1.996 . S
O105 C98 1.255 . S
C106 O99 1.287 . S
C106 O100 1.255 . S
O107 Fe89 2.002 . S
O107 C103 1.295 . S
O108 Fe91 1.997 . S
O108 C103 1.235 . S
C109 O92 1.295 . S
C109 O93 1.235 . S
Fe110 O112 1.918 . S
Fe110 O115 1.997 . S
Fe110 O116 2.002 . S
Fe110 O121 1.976 . S
Fe110 O124 1.996 . S
Fe111 O112 1.918 . S
Fe111 O119 1.997 . S
Fe111 O122 1.996 . S
Fe111 O126 1.976 . S
Fe111 O129 2.002 . S
O112 Fe110 1.918 . S
O112 Fe111 1.918 . S
O112 Fe113 1.918 . S
Fe113 O112 1.918 . S
Fe113 O114 2.002 . S
Fe113 O123 1.976 . S
Fe113 O127 1.996 . S
Fe113 O130 1.997 . S
O114 Fe113 2.002 . S
O114 C131 1.295 . S
O115 Fe110 1.997 . S
O115 C131 1.235 . S
O116 Fe110 2.002 . S
O116 C117 1.295 . S
C117 O116 1.295 . S
C117 O119 1.235 . S
C118 O123 1.287 . S
C118 O124 1.255 . S
O119 Fe111 1.997 . S
O119 C117 1.235 . S
C120 O126 1.287 . S
C120 O127 1.255 . S
O121 Fe110 1.976 . S
O121 C128 1.287 . S
O122 Fe111 1.996 . S
O122 C128 1.255 . S
O123 Fe113 1.976 . S
O123 C118 1.287 . S
O124 Fe110 1.996 . S
O124 C118 1.255 . S
C125 O129 1.295 . S
C125 O130 1.235 . S
O126 Fe111 1.976 . S
O126 C120 1.287 . S
O127 Fe113 1.996 . S
O127 C120 1.255 . S
C128 O121 1.287 . S
C128 O122 1.255 . S
O129 Fe111 2.002 . S
O129 C125 1.295 . S
O130 Fe113 1.997 . S
O130 C125 1.235 . S
C131 O114 1.295 . S
C131 O115 1.235 . S
Fe132 O134 1.918 . S
Fe132 O137 1.997 . S
Fe132 O138 2.002 . S
Fe132 O143 1.976 . S
Fe132 O146 1.996 . S
Fe133 O134 1.918 . S
Fe133 O141 1.997 . S
Fe133 O144 1.996 . S
Fe133 O148 1.976 . S
Fe133 O151 2.002 . S
O134 Fe132 1.918 . S
O134 Fe133 1.918 . S
O134 Fe135 1.918 . S
Fe135 O134 1.918 . S
Fe135 O136 2.002 . S
Fe135 O145 1.976 . S
Fe135 O149 1.996 . S
Fe135 O152 1.997 . S
O136 Fe135 2.002 . S
O136 C153 1.295 . S
O137 Fe132 1.997 . S
O137 C153 1.235 . S
O138 Fe132 2.002 . S
O138 C139 1.295 . S
C139 O138 1.295 . S
C139 O141 1.235 . S
C140 O145 1.287 . S
C140 O146 1.255 . S
O141 Fe133 1.997 . S
O141 C139 1.235 . S
C142 O148 1.287 . S
C142 O149 1.255 . S
O143 Fe132 1.976 . S
O143 C150 1.287 . S
O144 Fe133 1.996 . S
O144 C150 1.255 . S
O145 Fe135 1.976 . S
O145 C140 1.287 . S
O146 Fe132 1.996 . S
O146 C140 1.255 . S
C147 O151 1.295 . S
C147 O152 1.235 . S
O148 Fe133 1.976 . S
O148 C142 1.287 . S
O149 Fe135 1.996 . S
O149 C142 1.255 . S
C150 O143 1.287 . S
C150 O144 1.255 . S
O151 Fe133 2.002 . S
O151 C147 1.295 . S
O152 Fe135 1.997 . S
O152 C147 1.235 . S
C153 O136 1.295 . S
C153 O137 1.235 . S
Fe154 O156 1.918 . S
Fe154 O159 1.997 . S
Fe154 O160 2.002 . S
Fe154 O165 1.976 . S
Fe154 O168 1.996 . S
Fe155 O156 1.918 . S
Fe155 O163 1.997 . S
Fe155 O166 1.996 . S
Fe155 O170 1.976 . S
Fe155 O173 2.002 . S
O156 Fe154 1.918 . S
O156 Fe155 1.918 . S
O156 Fe157 1.918 . S
Fe157 O156 1.918 . S
Fe157 O158 2.002 . S
Fe157 O167 1.976 . S
Fe157 O171 1.996 . S
Fe157 O174 1.997 . S
O158 Fe157 2.002 . S
O158 C175 1.295 . S
O159 Fe154 1.997 . S
O159 C175 1.235 . S
O160 Fe154 2.002 . S
O160 C161 1.295 . S
C161 O160 1.295 . S
C161 O163 1.235 . S
C162 O167 1.287 . S
C162 O168 1.255 . S
O163 Fe155 1.997 . S
O163 C161 1.235 . S
C164 O170 1.287 . S
C164 O171 1.255 . S
O165 Fe154 1.976 . S
O165 C172 1.287 . S
O166 Fe155 1.996 . S
O166 C172 1.255 . S
O167 Fe157 1.976 . S
O167 C162 1.287 . S
O168 Fe154 1.996 . S
O168 C162 1.255 . S
C169 O173 1.295 . S
C169 O174 1.235 . S
O170 Fe155 1.976 . S
O170 C164 1.287 . S
O171 Fe157 1.996 . S
O171 C164 1.255 . S
C172 O165 1.287 . S
C172 O166 1.255 . S
O173 Fe155 2.002 . S
O173 C169 1.295 . S
O174 Fe157 1.997 . S
O174 C169 1.235 . S
C175 O158 1.295 . S
C175 O159 1.235 . S
Fe176 O178 1.918 . S
Fe176 O181 1.997 . S
Fe176 O182 2.002 . S
Fe176 O187 1.976 . S
Fe176 O190 1.996 . S
Fe177 O178 1.918 . S
Fe177 O185 1.997 . S
Fe177 O188 1.996 . S
Fe177 O192 1.976 . S
Fe177 O195 2.002 . S
O178 Fe176 1.918 . S
O178 Fe177 1.918 . S
O178 Fe179 1.918 . S
Fe179 O178 1.918 . S
Fe179 O180 2.002 . S
Fe179 O189 1.976 . S
Fe179 O193 1.996 . S
Fe179 O196 1.997 . S
O180 Fe179 2.002 . S
O180 C197 1.295 . S
O181 Fe176 1.997 . S
O181 C197 1.235 . S
O182 Fe176 2.002 . S
O182 C183 1.295 . S
C183 O182 1.295 . S
C183 O185 1.235 . S
C184 O189 1.287 . S
C184 O190 1.255 . S
O185 Fe177 1.997 . S
O185 C183 1.235 . S
C186 O192 1.287 . S
C186 O193 1.255 . S
O187 Fe176 1.976 . S
O187 C194 1.287 . S
O188 Fe177 1.996 . S
O188 C194 1.255 . S
O189 Fe179 1.976 . S
O189 C184 1.287 . S
O190 Fe176 1.996 . S
O190 C184 1.255 . S
C191 O195 1.295 . S
C191 O196 1.235 . S
O192 Fe177 1.976 . S
O192 C186 1.287 . S
O193 Fe179 1.996 . S
O193 C186 1.255 . S
C194 O187 1.287 . S
C194 O188 1.255 . S
O195 Fe177 2.002 . S
O195 C191 1.295 . S
O196 Fe179 1.997 . S
O196 C191 1.235 . S
C197 O180 1.295 . S
C197 O181 1.235 . S
Fe198 O200 1.918 . S
Fe198 O203 1.997 . S
Fe198 O204 2.002 . S
Fe198 O209 1.976 . S
Fe198 O212 1.996 . S
Fe199 O200 1.918 . S
Fe199 O207 1.997 . S
Fe199 O210 1.996 . S
Fe199 O214 1.976 . S
Fe199 O217 2.002 . S
O200 Fe198 1.918 . S
O200 Fe199 1.918 . S
O200 Fe201 1.918 . S
Fe201 O200 1.918 . S
Fe201 O202 2.002 . S
Fe201 O211 1.976 . S
Fe201 O215 1.996 . S
Fe201 O218 1.997 . S
O202 Fe201 2.002 . S
O202 C219 1.295 . S
O203 Fe198 1.997 . S
O203 C219 1.235 . S
O204 Fe198 2.002 . S
O204 C205 1.295 . S
C205 O204 1.295 . S
C205 O207 1.235 . S
C206 O211 1.287 . S
C206 O212 1.255 . S
O207 Fe199 1.997 . S
O207 C205 1.235 . S
C208 O214 1.287 . S
C208 O215 1.255 . S
O209 Fe198 1.976 . S
O209 C216 1.287 . S
O210 Fe199 1.996 . S
O210 C216 1.255 . S
O211 Fe201 1.976 . S
O211 C206 1.287 . S
O212 Fe198 1.996 . S
O212 C206 1.255 . S
C213 O217 1.295 . S
C213 O218 1.235 . S
O214 Fe199 1.976 . S
O214 C208 1.287 . S
O215 Fe201 1.996 . S
O215 C208 1.255 . S
C216 O209 1.287 . S
C216 O210 1.255 . S
O217 Fe199 2.002 . S
O217 C213 1.295 . S
O218 Fe201 1.997 . S
O218 C213 1.235 . S
C219 O202 1.295 . S
C219 O203 1.235 . S
Fe220 O222 1.918 . S
Fe220 O225 1.997 . S
Fe220 O226 2.002 . S
Fe220 O231 1.976 . S
Fe220 O234 1.996 . S
Fe221 O222 1.918 . S
Fe221 O229 1.997 . S
Fe221 O232 1.996 . S
Fe221 O236 1.976 . S
Fe221 O239 2.002 . S
O222 Fe220 1.918 . S
O222 Fe221 1.918 . S
O222 Fe223 1.918 . S
Fe223 O222 1.918 . S
Fe223 O224 2.002 . S
Fe223 O233 1.976 . S
Fe223 O237 1.996 . S
Fe223 O240 1.997 . S
O224 Fe223 2.002 . S
O224 C241 1.295 . S
O225 Fe220 1.997 . S
O225 C241 1.235 . S
O226 Fe220 2.002 . S
O226 C227 1.295 . S
C227 O226 1.295 . S
C227 O229 1.235 . S
C228 O233 1.287 . S
C228 O234 1.255 . S
O229 Fe221 1.997 . S
O229 C227 1.235 . S
C230 O236 1.287 . S
C230 O237 1.255 . S
O231 Fe220 1.976 . S
O231 C238 1.287 . S
O232 Fe221 1.996 . S
O232 C238 1.255 . S
O233 Fe223 1.976 . S
O233 C228 1.287 . S
O234 Fe220 1.996 . S
O234 C228 1.255 . S
C235 O239 1.295 . S
C235 O240 1.235 . S
O236 Fe221 1.976 . S
O236 C230 1.287 . S
O237 Fe223 1.996 . S
O237 C230 1.255 . S
C238 O231 1.287 . S
C238 O232 1.255 . S
O239 Fe221 2.002 . S
O239 C235 1.295 . S
O240 Fe223 1.997 . S
O240 C235 1.235 . S
C241 O224 1.295 . S
C241 O225 1.235 . S
Fe242 O244 1.918 . S
Fe242 O247 1.997 . S
Fe242 O248 2.002 . S
Fe242 O253 1.976 . S
Fe242 O256 1.996 . S
Fe243 O244 1.918 . S
Fe243 O251 1.997 . S
Fe243 O254 1.996 . S
Fe243 O258 1.976 . S
Fe243 O261 2.002 . S
O244 Fe242 1.918 . S
O244 Fe243 1.918 . S
O244 Fe245 1.918 . S
Fe245 O244 1.918 . S
Fe245 O246 2.002 . S
Fe245 O255 1.976 . S
Fe245 O259 1.996 . S
Fe245 O262 1.997 . S
O246 Fe245 2.002 . S
O246 C263 1.295 . S
O247 Fe242 1.997 . S
O247 C263 1.235 . S
O248 Fe242 2.002 . S
O248 C249 1.295 . S
C249 O248 1.295 . S
C249 O251 1.235 . S
C250 O255 1.287 . S
C250 O256 1.255 . S
O251 Fe243 1.997 . S
O251 C249 1.235 . S
C252 O258 1.287 . S
C252 O259 1.255 . S
O253 Fe242 1.976 . S
O253 C260 1.287 . S
O254 Fe243 1.996 . S
O254 C260 1.255 . S
O255 Fe245 1.976 . S
O255 C250 1.287 . S
O256 Fe242 1.996 . S
O256 C250 1.255 . S
C257 O261 1.295 . S
C257 O262 1.235 . S
O258 Fe243 1.976 . S
O258 C252 1.287 . S
O259 Fe245 1.996 . S
O259 C252 1.255 . S
C260 O253 1.287 . S
C260 O254 1.255 . S
O261 Fe243 2.002 . S
O261 C257 1.295 . S
O262 Fe245 1.997 . S
O262 C257 1.235 . S
C263 O246 1.295 . S
C263 O247 1.235 . S
C264 C265 1.349 . S
C264 C266 1.327 . S
C264 H289 0.950 . S
C265 C264 1.349 . S
C265 C281 1.349 . S
C266 C264 1.327 . S
C266 C285 1.429 . S
C266 H290 0.950 . S
C267 C284 1.574 . S
C267 C286 1.368 . S
C267 H291 0.949 . S
H268 C272 0.949 . S
C269 C270 1.349 . S
C269 C271 1.327 . S
C269 H292 0.950 . S
C270 C269 1.349 . S
C270 C282 1.349 . S
C271 C269 1.327 . S
C271 C287 1.429 . S
C271 H293 0.950 . S
C272 H268 0.949 . S
C272 C280 1.574 . S
C272 C288 1.368 . S
H273 C281 0.950 . S
H274 C279 0.950 . S
H275 C280 0.949 . S
H276 C282 0.950 . S
H277 C283 0.950 . S
H278 C284 0.949 . S
C279 H274 0.950 . S
C279 C281 1.327 . S
C279 C285 1.429 . S
C280 C272 1.574 . S
C280 H275 0.949 . S
C280 C286 1.368 . S
C281 C265 1.349 . S
C281 H273 0.950 . S
C281 C279 1.327 . S
C282 C270 1.349 . S
C282 H276 0.950 . S
C282 C283 1.327 . S
C283 H277 0.950 . S
C283 C282 1.327 . S
C283 C287 1.429 . S
C284 C267 1.574 . S
C284 H278 0.949 . S
C284 C288 1.368 . S
C285 C266 1.429 . S
C285 C279 1.429 . S
C285 C286 1.523 . S
C286 C267 1.368 . S
C286 C280 1.368 . S
C286 C285 1.523 . S
C287 C271 1.429 . S
C287 C283 1.429 . S
C287 C288 1.523 . S
C288 C272 1.368 . S
C288 C284 1.368 . S
C288 C287 1.523 . S
H289 C264 0.950 . S
H290 C266 0.950 . S
H291 C267 0.949 . S
H292 C269 0.950 . S
H293 C271 0.950 . S
C294 C295 1.349 . S
C294 C296 1.327 . S
C294 H319 0.950 . S
C295 C294 1.349 . S
C295 C311 1.349 . S
C296 C294 1.327 . S
C296 C315 1.429 . S
C296 H320 0.950 . S
C297 C314 1.574 . S
C297 C316 1.368 . S
C297 H321 0.949 . S
H298 C302 0.949 . S
C299 C300 1.349 . S
C299 C301 1.327 . S
C299 H322 0.950 . S
C300 C299 1.349 . S
C300 C312 1.349 . S
C301 C299 1.327 . S
C301 C317 1.429 . S
C301 H323 0.950 . S
C302 H298 0.949 . S
C302 C310 1.574 . S
C302 C318 1.368 . S
H303 C311 0.950 . S
H304 C309 0.950 . S
H305 C310 0.949 . S
H306 C312 0.950 . S
H307 C313 0.950 . S
H308 C314 0.949 . S
C309 H304 0.950 . S
C309 C311 1.327 . S
C309 C315 1.429 . S
C310 C302 1.574 . S
C310 H305 0.949 . S
C310 C316 1.368 . S
C311 C295 1.349 . S
C311 H303 0.950 . S
C311 C309 1.327 . S
C312 C300 1.349 . S
C312 H306 0.950 . S
C312 C313 1.327 . S
C313 H307 0.950 . S
C313 C312 1.327 . S
C313 C317 1.429 . S
C314 C297 1.574 . S
C314 H308 0.949 . S
C314 C318 1.368 . S
C315 C296 1.429 . S
C315 C309 1.429 . S
C315 C316 1.523 . S
C316 C297 1.368 . S
C316 C310 1.368 . S
C316 C315 1.523 . S
C317 C301 1.429 . S
C317 C313 1.429 . S
C317 C318 1.523 . S
C318 C302 1.368 . S
C318 C314 1.368 . S
C318 C317 1.523 . S
H319 C294 0.950 . S
H320 C296 0.950 . S
H321 C297 0.949 . S
H322 C299 0.950 . S
H323 C301 0.950 . S
C324 C325 1.349 . S
C324 C326 1.327 . S
C324 H349 0.950 . S
C325 C324 1.349 . S
C325 C341 1.349 . S
C326 C324 1.327 . S
C326 C345 1.429 . S
C326 H350 0.950 . S
C327 C344 1.574 . S
C327 C346 1.368 . S
C327 H351 0.949 . S
H328 C332 0.949 . S
C329 C330 1.349 . S
C329 C331 1.327 . S
C329 H352 0.950 . S
C330 C329 1.349 . S
C330 C342 1.349 . S
C331 C329 1.327 . S
C331 C347 1.429 . S
C331 H353 0.950 . S
C332 H328 0.949 . S
C332 C340 1.574 . S
C332 C348 1.368 . S
H333 C341 0.950 . S
H334 C339 0.950 . S
H335 C340 0.949 . S
H336 C342 0.950 . S
H337 C343 0.950 . S
H338 C344 0.949 . S
C339 H334 0.950 . S
C339 C341 1.327 . S
C339 C345 1.429 . S
C340 C332 1.574 . S
C340 H335 0.949 . S
C340 C346 1.368 . S
C341 C325 1.349 . S
C341 H333 0.950 . S
C341 C339 1.327 . S
C342 C330 1.349 . S
C342 H336 0.950 . S
C342 C343 1.327 . S
C343 H337 0.950 . S
C343 C342 1.327 . S
C343 C347 1.429 . S
C344 C327 1.574 . S
C344 H338 0.949 . S
C344 C348 1.368 . S
C345 C326 1.429 . S
C345 C339 1.429 . S
C345 C346 1.523 . S
C346 C327 1.368 . S
C346 C340 1.368 . S
C346 C345 1.523 . S
C347 C331 1.429 . S
C347 C343 1.429 . S
C347 C348 1.523 . S
C348 C332 1.368 . S
C348 C344 1.368 . S
C348 C347 1.523 . S
H349 C324 0.950 . S
H350 C326 0.950 . S
H351 C327 0.949 . S
H352 C329 0.950 . S
H353 C331 0.950 . S
C354 C355 1.349 . S
C354 C356 1.327 . S
C354 H379 0.950 . S
C355 C354 1.349 . S
C355 C371 1.349 . S
C356 C354 1.327 . S
C356 C375 1.429 . S
C356 H380 0.950 . S
C357 C374 1.574 . S
C357 C376 1.368 . S
C357 H381 0.949 . S
H358 C362 0.949 . S
C359 C360 1.349 . S
C359 C361 1.327 . S
C359 H382 0.950 . S
C360 C359 1.349 . S
C360 C372 1.349 . S
C361 C359 1.327 . S
C361 C377 1.429 . S
C361 H383 0.950 . S
C362 H358 0.949 . S
C362 C370 1.574 . S
C362 C378 1.368 . S
H363 C371 0.950 . S
H364 C369 0.950 . S
H365 C370 0.949 . S
H366 C372 0.950 . S
H367 C373 0.950 . S
H368 C374 0.949 . S
C369 H364 0.950 . S
C369 C371 1.327 . S
C369 C375 1.429 . S
C370 C362 1.574 . S
C370 H365 0.949 . S
C370 C376 1.368 . S
C371 C355 1.349 . S
C371 H363 0.950 . S
C371 C369 1.327 . S
C372 C360 1.349 . S
C372 H366 0.950 . S
C372 C373 1.327 . S
C373 H367 0.950 . S
C373 C372 1.327 . S
C373 C377 1.429 . S
C374 C357 1.574 . S
C374 H368 0.949 . S
C374 C378 1.368 . S
C375 C356 1.429 . S
C375 C369 1.429 . S
C375 C376 1.523 . S
C376 C357 1.368 . S
C376 C370 1.368 . S
C376 C375 1.523 . S
C377 C361 1.429 . S
C377 C373 1.429 . S
C377 C378 1.523 . S
C378 C362 1.368 . S
C378 C374 1.368 . S
C378 C377 1.523 . S
H379 C354 0.950 . S
H380 C356 0.950 . S
H381 C357 0.949 . S
H382 C359 0.950 . S
H383 C361 0.950 . S
C384 C385 1.349 . S
C384 C386 1.327 . S
C384 H409 0.950 . S
C385 C384 1.349 . S
C385 C401 1.349 . S
C386 C384 1.327 . S
C386 C405 1.429 . S
C386 H410 0.950 . S
C387 C404 1.574 . S
C387 C406 1.368 . S
C387 H411 0.949 . S
H388 C392 0.949 . S
C389 C390 1.349 . S
C389 C391 1.327 . S
C389 H412 0.950 . S
C390 C389 1.349 . S
C390 C402 1.349 . S
C391 C389 1.327 . S
C391 C407 1.429 . S
C391 H413 0.950 . S
C392 H388 0.949 . S
C392 C400 1.574 . S
C392 C408 1.368 . S
H393 C401 0.950 . S
H394 C399 0.950 . S
H395 C400 0.949 . S
H396 C402 0.950 . S
H397 C403 0.950 . S
H398 C404 0.949 . S
C399 H394 0.950 . S
C399 C401 1.327 . S
C399 C405 1.429 . S
C400 C392 1.574 . S
C400 H395 0.949 . S
C400 C406 1.368 . S
C401 C385 1.349 . S
C401 H393 0.950 . S
C401 C399 1.327 . S
C402 C390 1.349 . S
C402 H396 0.950 . S
C402 C403 1.327 . S
C403 H397 0.950 . S
C403 C402 1.327 . S
C403 C407 1.429 . S
C404 C387 1.574 . S
C404 H398 0.949 . S
C404 C408 1.368 . S
C405 C386 1.429 . S
C405 C399 1.429 . S
C405 C406 1.523 . S
C406 C387 1.368 . S
C406 C400 1.368 . S
C406 C405 1.523 . S
C407 C391 1.429 . S
C407 C403 1.429 . S
C407 C408 1.523 . S
C408 C392 1.368 . S
C408 C404 1.368 . S
C408 C407 1.523 . S
H409 C384 0.950 . S
H410 C386 0.950 . S
H411 C387 0.949 . S
H412 C389 0.950 . S
H413 C391 0.950 . S
C414 C415 1.349 . S
C414 C416 1.327 . S
C414 H439 0.950 . S
C415 C414 1.349 . S
C415 C431 1.349 . S
C416 C414 1.327 . S
C416 C435 1.429 . S
C416 H440 0.950 . S
C417 C434 1.574 . S
C417 C436 1.368 . S
C417 H441 0.949 . S
H418 C422 0.949 . S
C419 C420 1.349 . S
C419 C421 1.327 . S
C419 H442 0.950 . S
C420 C419 1.349 . S
C420 C432 1.349 . S
C421 C419 1.327 . S
C421 C437 1.429 . S
C421 H443 0.950 . S
C422 H418 0.949 . S
C422 C430 1.574 . S
C422 C438 1.368 . S
H423 C431 0.950 . S
H424 C429 0.950 . S
H425 C430 0.949 . S
H426 C432 0.950 . S
H427 C433 0.950 . S
H428 C434 0.949 . S
C429 H424 0.950 . S
C429 C431 1.327 . S
C429 C435 1.429 . S
C430 C422 1.574 . S
C430 H425 0.949 . S
C430 C436 1.368 . S
C431 C415 1.349 . S
C431 H423 0.950 . S
C431 C429 1.327 . S
C432 C420 1.349 . S
C432 H426 0.950 . S
C432 C433 1.327 . S
C433 H427 0.950 . S
C433 C432 1.327 . S
C433 C437 1.429 . S
C434 C417 1.574 . S
C434 H428 0.949 . S
C434 C438 1.368 . S
C435 C416 1.429 . S
C435 C429 1.429 . S
C435 C436 1.523 . S
C436 C417 1.368 . S
C436 C430 1.368 . S
C436 C435 1.523 . S
C437 C421 1.429 . S
C437 C433 1.429 . S
C437 C438 1.523 . S
C438 C422 1.368 . S
C438 C434 1.368 . S
C438 C437 1.523 . S
H439 C414 0.950 . S
H440 C416 0.950 . S
H441 C417 0.949 . S
H442 C419 0.950 . S
H443 C421 0.950 . S
C444 C445 1.349 . S
C444 C446 1.327 . S
C444 H469 0.950 . S
C445 C444 1.349 . S
C445 C461 1.349 . S
C446 C444 1.327 . S
C446 C465 1.429 . S
C446 H470 0.950 . S
C447 C464 1.574 . S
C447 C466 1.368 . S
C447 H471 0.949 . S
H448 C452 0.949 . S
C449 C450 1.349 . S
C449 C451 1.327 . S
C449 H472 0.950 . S
C450 C449 1.349 . S
C450 C462 1.349 . S
C451 C449 1.327 . S
C451 C467 1.429 . S
C451 H473 0.950 . S
C452 H448 0.949 . S
C452 C460 1.574 . S
C452 C468 1.368 . S
H453 C461 0.950 . S
H454 C459 0.950 . S
H455 C460 0.949 . S
H456 C462 0.950 . S
H457 C463 0.950 . S
H458 C464 0.949 . S
C459 H454 0.950 . S
C459 C461 1.327 . S
C459 C465 1.429 . S
C460 C452 1.574 . S
C460 H455 0.949 . S
C460 C466 1.368 . S
C461 C445 1.349 . S
C461 H453 0.950 . S
C461 C459 1.327 . S
C462 C450 1.349 . S
C462 H456 0.950 . S
C462 C463 1.327 . S
C463 H457 0.950 . S
C463 C462 1.327 . S
C463 C467 1.429 . S
C464 C447 1.574 . S
C464 H458 0.949 . S
C464 C468 1.368 . S
C465 C446 1.429 . S
C465 C459 1.429 . S
C465 C466 1.523 . S
C466 C447 1.368 . S
C466 C460 1.368 . S
C466 C465 1.523 . S
C467 C451 1.429 . S
C467 C463 1.429 . S
C467 C468 1.523 . S
C468 C452 1.368 . S
C468 C464 1.368 . S
C468 C467 1.523 . S
H469 C444 0.950 . S
H470 C446 0.950 . S
H471 C447 0.949 . S
H472 C449 0.950 . S
H473 C451 0.950 . S
C474 C475 1.349 . S
C474 C476 1.327 . S
C474 H499 0.950 . S
C475 C474 1.349 . S
C475 C491 1.349 . S
C476 C474 1.327 . S
C476 C495 1.429 . S
C476 H500 0.950 . S
C477 C494 1.574 . S
C477 C496 1.368 . S
C477 H501 0.949 . S
H478 C482 0.949 . S
C479 C480 1.349 . S
C479 C481 1.327 . S
C479 H502 0.950 . S
C480 C479 1.349 . S
C480 C492 1.349 . S
C481 C479 1.327 . S
C481 C497 1.429 . S
C481 H503 0.950 . S
C482 H478 0.949 . S
C482 C490 1.574 . S
C482 C498 1.368 . S
H483 C491 0.950 . S
H484 C489 0.950 . S
H485 C490 0.949 . S
H486 C492 0.950 . S
H487 C493 0.950 . S
H488 C494 0.949 . S
C489 H484 0.950 . S
C489 C491 1.327 . S
C489 C495 1.429 . S
C490 C482 1.574 . S
C490 H485 0.949 . S
C490 C496 1.368 . S
C491 C475 1.349 . S
C491 H483 0.950 . S
C491 C489 1.327 . S
C492 C480 1.349 . S
C492 H486 0.950 . S
C492 C493 1.327 . S
C493 H487 0.950 . S
C493 C492 1.327 . S
C493 C497 1.429 . S
C494 C477 1.574 . S
C494 H488 0.949 . S
C494 C498 1.368 . S
C495 C476 1.429 . S
C495 C489 1.429 . S
C495 C496 1.523 . S
C496 C477 1.368 . S
C496 C490 1.368 . S
C496 C495 1.523 . S
C497 C481 1.429 . S
C497 C493 1.429 . S
C497 C498 1.523 . S
C498 C482 1.368 . S
C498 C494 1.368 . S
C498 C497 1.523 . S
H499 C474 0.950 . S
H500 C476 0.950 . S
H501 C477 0.949 . S
H502 C479 0.950 . S
H503 C481 0.950 . S
C504 C505 1.349 . S
C504 C506 1.327 . S
C504 H529 0.950 . S
C505 C504 1.349 . S
C505 C521 1.349 . S
C506 C504 1.327 . S
C506 C525 1.429 . S
C506 H530 0.950 . S
C507 C524 1.574 . S
C507 C526 1.368 . S
C507 H531 0.949 . S
H508 C512 0.949 . S
C509 C510 1.349 . S
C509 C511 1.327 . S
C509 H532 0.950 . S
C510 C509 1.349 . S
C510 C522 1.349 . S
C511 C509 1.327 . S
C511 C527 1.429 . S
C511 H533 0.950 . S
C512 H508 0.949 . S
C512 C520 1.574 . S
C512 C528 1.368 . S
H513 C521 0.950 . S
H514 C519 0.950 . S
H515 C520 0.949 . S
H516 C522 0.950 . S
H517 C523 0.950 . S
H518 C524 0.949 . S
C519 H514 0.950 . S
C519 C521 1.327 . S
C519 C525 1.429 . S
C520 C512 1.574 . S
C520 H515 0.949 . S
C520 C526 1.368 . S
C521 C505 1.349 . S
C521 H513 0.950 . S
C521 C519 1.327 . S
C522 C510 1.349 . S
C522 H516 0.950 . S
C522 C523 1.327 . S
C523 H517 0.950 . S
C523 C522 1.327 . S
C523 C527 1.429 . S
C524 C507 1.574 . S
C524 H518 0.949 . S
C524 C528 1.368 . S
C525 C506 1.429 . S
C525 C519 1.429 . S
C525 C526 1.523 . S
C526 C507 1.368 . S
C526 C520 1.368 . S
C526 C525 1.523 . S
C527 C511 1.429 . S
C527 C523 1.429 . S
C527 C528 1.523 . S
C528 C512 1.368 . S
C528 C524 1.368 . S
C528 C527 1.523 . S
H529 C504 0.950 . S
H530 C506 0.950 . S
H531 C507 0.949 . S
H532 C509 0.950 . S
H533 C511 0.950 . S
C534 C535 1.349 . S
C534 C536 1.327 . S
C534 H559 0.950 . S
C535 C534 1.349 . S
C535 C551 1.349 . S
C536 C534 1.327 . S
C536 C555 1.429 . S
C536 H560 0.950 . S
C537 C554 1.574 . S
C537 C556 1.368 . S
C537 H561 0.949 . S
H538 C542 0.949 . S
C539 C540 1.349 . S
C539 C541 1.327 . S
C539 H562 0.950 . S
C540 C539 1.349 . S
C540 C552 1.349 . S
C541 C539 1.327 . S
C541 C557 1.429 . S
C541 H563 0.950 . S
C542 H538 0.949 . S
C542 C550 1.574 . S
C542 C558 1.368 . S
H543 C551 0.950 . S
H544 C549 0.950 . S
H545 C550 0.949 . S
H546 C552 0.950 . S
H547 C553 0.950 . S
H548 C554 0.949 . S
C549 H544 0.950 . S
C549 C551 1.327 . S
C549 C555 1.429 . S
C550 C542 1.574 . S
C550 H545 0.949 . S
C550 C556 1.368 . S
C551 C535 1.349 . S
C551 H543 0.950 . S
C551 C549 1.327 . S
C552 C540 1.349 . S
C552 H546 0.950 . S
C552 C553 1.327 . S
C553 H547 0.950 . S
C553 C552 1.327 . S
C553 C557 1.429 . S
C554 C537 1.574 . S
C554 H548 0.949 . S
C554 C558 1.368 . S
C555 C536 1.429 . S
C555 C549 1.429 . S
C555 C556 1.523 . S
C556 C537 1.368 . S
C556 C550 1.368 . S
C556 C555 1.523 . S
C557 C541 1.429 . S
C557 C553 1.429 . S
C557 C558 1.523 . S
C558 C542 1.368 . S
C558 C554 1.368 . S
C558 C557 1.523 . S
H559 C534 0.950 . S
H560 C536 0.950 . S
H561 C537 0.949 . S
H562 C539 0.950 . S
H563 C541 0.950 . S
C564 C565 1.349 . S
C564 C566 1.327 . S
C564 H589 0.950 . S
C565 C564 1.349 . S
C565 C581 1.349 . S
C566 C564 1.327 . S
C566 C585 1.429 . S
C566 H590 0.950 . S
C567 C584 1.574 . S
C567 C586 1.368 . S
C567 H591 0.949 . S
H568 C572 0.949 . S
C569 C570 1.349 . S
C569 C571 1.327 . S
C569 H592 0.950 . S
C570 C569 1.349 . S
C570 C582 1.349 . S
C571 C569 1.327 . S
C571 C587 1.429 . S
C571 H593 0.950 . S
C572 H568 0.949 . S
C572 C580 1.574 . S
C572 C588 1.368 . S
H573 C581 0.950 . S
H574 C579 0.950 . S
H575 C580 0.949 . S
H576 C582 0.950 . S
H577 C583 0.950 . S
H578 C584 0.949 . S
C579 H574 0.950 . S
C579 C581 1.327 . S
C579 C585 1.429 . S
C580 C572 1.574 . S
C580 H575 0.949 . S
C580 C586 1.368 . S
C581 C565 1.349 . S
C581 H573 0.950 . S
C581 C579 1.327 . S
C582 C570 1.349 . S
C582 H576 0.950 . S
C582 C583 1.327 . S
C583 H577 0.950 . S
C583 C582 1.327 . S
C583 C587 1.429 . S
C584 C567 1.574 . S
C584 H578 0.949 . S
C584 C588 1.368 . S
C585 C566 1.429 . S
C585 C579 1.429 . S
C585 C586 1.523 . S
C586 C567 1.368 . S
C586 C580 1.368 . S
C586 C585 1.523 . S
C587 C571 1.429 . S
C587 C583 1.429 . S
C587 C588 1.523 . S
C588 C572 1.368 . S
C588 C584 1.368 . S
C588 C587 1.523 . S
H589 C564 0.950 . S
H590 C566 0.950 . S
H591 C567 0.949 . S
H592 C569 0.950 . S
H593 C571 0.950 . S
C594 C595 1.349 . S
C594 C596 1.327 . S
C594 H619 0.950 . S
C595 C594 1.349 . S
C595 C611 1.349 . S
C596 C594 1.327 . S
C596 C615 1.429 . S
C596 H620 0.950 . S
C597 C614 1.574 . S
C597 C616 1.368 . S
C597 H621 0.949 . S
H598 C602 0.949 . S
C599 C600 1.349 . S
C599 C601 1.327 . S
C599 H622 0.950 . S
C600 C599 1.349 . S
C600 C612 1.349 . S
C601 C599 1.327 . S
C601 C617 1.429 . S
C601 H623 0.950 . S
C602 H598 0.949 . S
C602 C610 1.574 . S
C602 C618 1.368 . S
H603 C611 0.950 . S
H604 C609 0.950 . S
H605 C610 0.949 . S
H606 C612 0.950 . S
H607 C613 0.950 . S
H608 C614 0.949 . S
C609 H604 0.950 . S
C609 C611 1.327 . S
C609 C615 1.429 . S
C610 C602 1.574 . S
C610 H605 0.949 . S
C610 C616 1.368 . S
C611 C595 1.349 . S
C611 H603 0.950 . S
C611 C609 1.327 . S
C612 C600 1.349 . S
C612 H606 0.950 . S
C612 C613 1.327 . S
C613 H607 0.950 . S
C613 C612 1.327 . S
C613 C617 1.429 . S
C614 C597 1.574 . S
C614 H608 0.949 . S
C614 C618 1.368 . S
C615 C596 1.429 . S
C615 C609 1.429 . S
C615 C616 1.523 . S
C616 C597 1.368 . S
C616 C610 1.368 . S
C616 C615 1.523 . S
C617 C601 1.429 . S
C617 C613 1.429 . S
C617 C618 1.523 . S
C618 C602 1.368 . S
C618 C614 1.368 . S
C618 C617 1.523 . S
H619 C594 0.950 . S
H620 C596 0.950 . S
H621 C597 0.949 . S
H622 C599 0.950 . S
H623 C601 0.950 . S
C624 C625 1.349 . S
C624 C626 1.327 . S
C624 H649 0.950 . S
C625 C624 1.349 . S
C625 C641 1.349 . S
C626 C624 1.327 . S
C626 C645 1.429 . S
C626 H650 0.950 . S
C627 C644 1.574 . S
C627 C646 1.368 . S
C627 H651 0.949 . S
H628 C632 0.949 . S
C629 C630 1.349 . S
C629 C631 1.327 . S
C629 H652 0.950 . S
C630 C629 1.349 . S
C630 C642 1.349 . S
C631 C629 1.327 . S
C631 C647 1.429 . S
C631 H653 0.950 . S
C632 H628 0.949 . S
C632 C640 1.574 . S
C632 C648 1.368 . S
H633 C641 0.950 . S
H634 C639 0.950 . S
H635 C640 0.949 . S
H636 C642 0.950 . S
H637 C643 0.950 . S
H638 C644 0.949 . S
C639 H634 0.950 . S
C639 C641 1.327 . S
C639 C645 1.429 . S
C640 C632 1.574 . S
C640 H635 0.949 . S
C640 C646 1.368 . S
C641 C625 1.349 . S
C641 H633 0.950 . S
C641 C639 1.327 . S
C642 C630 1.349 . S
C642 H636 0.950 . S
C642 C643 1.327 . S
C643 H637 0.950 . S
C643 C642 1.327 . S
C643 C647 1.429 . S
C644 C627 1.574 . S
C644 H638 0.949 . S
C644 C648 1.368 . S
C645 C626 1.429 . S
C645 C639 1.429 . S
C645 C646 1.523 . S
C646 C627 1.368 . S
C646 C640 1.368 . S
C646 C645 1.523 . S
C647 C631 1.429 . S
C647 C643 1.429 . S
C647 C648 1.523 . S
C648 C632 1.368 . S
C648 C644 1.368 . S
C648 C647 1.523 . S
H649 C624 0.950 . S
H650 C626 0.950 . S
H651 C627 0.949 . S
H652 C629 0.950 . S
H653 C631 0.950 . S
C654 C655 1.349 . S
C654 C656 1.327 . S
C654 H679 0.950 . S
C655 C654 1.349 . S
C655 C671 1.349 . S
C656 C654 1.327 . S
C656 C675 1.429 . S
C656 H680 0.950 . S
C657 C674 1.574 . S
C657 C676 1.368 . S
C657 H681 0.949 . S
H658 C662 0.949 . S
C659 C660 1.349 . S
C659 C661 1.327 . S
C659 H682 0.950 . S
C660 C659 1.349 . S
C660 C672 1.349 . S
C661 C659 1.327 . S
C661 C677 1.429 . S
C661 H683 0.950 . S
C662 H658 0.949 . S
C662 C670 1.574 . S
C662 C678 1.368 . S
H663 C671 0.950 . S
H664 C669 0.950 . S
H665 C670 0.949 . S
H666 C672 0.950 . S
H667 C673 0.950 . S
H668 C674 0.949 . S
C669 H664 0.950 . S
C669 C671 1.327 . S
C669 C675 1.429 . S
C670 C662 1.574 . S
C670 H665 0.949 . S
C670 C676 1.368 . S
C671 C655 1.349 . S
C671 H663 0.950 . S
C671 C669 1.327 . S
C672 C660 1.349 . S
C672 H666 0.950 . S
C672 C673 1.327 . S
C673 H667 0.950 . S
C673 C672 1.327 . S
C673 C677 1.429 . S
C674 C657 1.574 . S
C674 H668 0.949 . S
C674 C678 1.368 . S
C675 C656 1.429 . S
C675 C669 1.429 . S
C675 C676 1.523 . S
C676 C657 1.368 . S
C676 C670 1.368 . S
C676 C675 1.523 . S
C677 C661 1.429 . S
C677 C673 1.429 . S
C677 C678 1.523 . S
C678 C662 1.368 . S
C678 C674 1.368 . S
C678 C677 1.523 . S
H679 C654 0.950 . S
H680 C656 0.950 . S
H681 C657 0.949 . S
H682 C659 0.950 . S
H683 C661 0.950 . S
C684 C685 1.349 . S
C684 C686 1.327 . S
C684 H709 0.950 . S
C685 C684 1.349 . S
C685 C701 1.349 . S
C686 C684 1.327 . S
C686 C705 1.429 . S
C686 H710 0.950 . S
C687 C704 1.574 . S
C687 C706 1.368 . S
C687 H711 0.949 . S
H688 C692 0.949 . S
C689 C690 1.349 . S
C689 C691 1.327 . S
C689 H712 0.950 . S
C690 C689 1.349 . S
C690 C702 1.349 . S
C691 C689 1.327 . S
C691 C707 1.429 . S
C691 H713 0.950 . S
C692 H688 0.949 . S
C692 C700 1.574 . S
C692 C708 1.368 . S
H693 C701 0.950 . S
H694 C699 0.950 . S
H695 C700 0.949 . S
H696 C702 0.950 . S
H697 C703 0.950 . S
H698 C704 0.949 . S
C699 H694 0.950 . S
C699 C701 1.327 . S
C699 C705 1.429 . S
C700 C692 1.574 . S
C700 H695 0.949 . S
C700 C706 1.368 . S
C701 C685 1.349 . S
C701 H693 0.950 . S
C701 C699 1.327 . S
C702 C690 1.349 . S
C702 H696 0.950 . S
C702 C703 1.327 . S
C703 H697 0.950 . S
C703 C702 1.327 . S
C703 C707 1.429 . S
C704 C687 1.574 . S
C704 H698 0.949 . S
C704 C708 1.368 . S
C705 C686 1.429 . S
C705 C699 1.429 . S
C705 C706 1.523 . S
C706 C687 1.368 . S
C706 C700 1.368 . S
C706 C705 1.523 . S
C707 C691 1.429 . S
C707 C703 1.429 . S
C707 C708 1.523 . S
C708 C692 1.368 . S
C708 C704 1.368 . S
C708 C707 1.523 . S
H709 C684 0.950 . S
H710 C686 0.950 . S
H711 C687 0.949 . S
H712 C689 0.950 . S
H713 C691 0.950 . S
C714 C715 1.349 . S
C714 C716 1.327 . S
C714 H739 0.950 . S
C715 C714 1.349 . S
C715 C731 1.349 . S
C716 C714 1.327 . S
C716 C735 1.429 . S
C716 H740 0.950 . S
C717 C734 1.574 . S
C717 C736 1.368 . S
C717 H741 0.949 . S
H718 C722 0.949 . S
C719 C720 1.349 . S
C719 C721 1.327 . S
C719 H742 0.950 . S
C720 C719 1.349 . S
C720 C732 1.349 . S
C721 C719 1.327 . S
C721 C737 1.429 . S
C721 H743 0.950 . S
C722 H718 0.949 . S
C722 C730 1.574 . S
C722 C738 1.368 . S
H723 C731 0.950 . S
H724 C729 0.950 . S
H725 C730 0.949 . S
H726 C732 0.950 . S
H727 C733 0.950 . S
H728 C734 0.949 . S
C729 H724 0.950 . S
C729 C731 1.327 . S
C729 C735 1.429 . S
C730 C722 1.574 . S
C730 H725 0.949 . S
C730 C736 1.368 . S
C731 C715 1.349 . S
C731 H723 0.950 . S
C731 C729 1.327 . S
C732 C720 1.349 . S
C732 H726 0.950 . S
C732 C733 1.327 . S
C733 H727 0.950 . S
C733 C732 1.327 . S
C733 C737 1.429 . S
C734 C717 1.574 . S
C734 H728 0.949 . S
C734 C738 1.368 . S
C735 C716 1.429 . S
C735 C729 1.429 . S
C735 C736 1.523 . S
C736 C717 1.368 . S
C736 C730 1.368 . S
C736 C735 1.523 . S
C737 C721 1.429 . S
C737 C733 1.429 . S
C737 C738 1.523 . S
C738 C722 1.368 . S
C738 C734 1.368 . S
C738 C737 1.523 . S
H739 C714 0.950 . S
H740 C716 0.950 . S
H741 C717 0.949 . S
H742 C719 0.950 . S
H743 C721 0.950 . S
C744 C745 1.349 . S
C744 C746 1.327 . S
C744 H769 0.950 . S
C745 C744 1.349 . S
C745 C761 1.349 . S
C746 C744 1.327 . S
C746 C765 1.429 . S
C746 H770 0.950 . S
C747 C764 1.574 . S
C747 C766 1.368 . S
C747 H771 0.949 . S
H748 C752 0.949 . S
C749 C750 1.349 . S
C749 C751 1.327 . S
C749 H772 0.950 . S
C750 C749 1.349 . S
C750 C762 1.349 . S
C751 C749 1.327 . S
C751 C767 1.429 . S
C751 H773 0.950 . S
C752 H748 0.949 . S
C752 C760 1.574 . S
C752 C768 1.368 . S
H753 C761 0.950 . S
H754 C759 0.950 . S
H755 C760 0.949 . S
H756 C762 0.950 . S
H757 C763 0.950 . S
H758 C764 0.949 . S
C759 H754 0.950 . S
C759 C761 1.327 . S
C759 C765 1.429 . S
C760 C752 1.574 . S
C760 H755 0.949 . S
C760 C766 1.368 . S
C761 C745 1.349 . S
C761 H753 0.950 . S
C761 C759 1.327 . S
C762 C750 1.349 . S
C762 H756 0.950 . S
C762 C763 1.327 . S
C763 H757 0.950 . S
C763 C762 1.327 . S
C763 C767 1.429 . S
C764 C747 1.574 . S
C764 H758 0.949 . S
C764 C768 1.368 . S
C765 C746 1.429 . S
C765 C759 1.429 . S
C765 C766 1.523 . S
C766 C747 1.368 . S
C766 C760 1.368 . S
C766 C765 1.523 . S
C767 C751 1.429 . S
C767 C763 1.429 . S
C767 C768 1.523 . S
C768 C752 1.368 . S
C768 C764 1.368 . S
C768 C767 1.523 . S
H769 C744 0.950 . S
H770 C746 0.950 . S
H771 C747 0.949 . S
H772 C749 0.950 . S
H773 C751 0.950 . S
C774 C775 1.349 . S
C774 C776 1.327 . S
C774 H799 0.950 . S
C775 C774 1.349 . S
C775 C791 1.349 . S
C776 C774 1.327 . S
C776 C795 1.429 . S
C776 H800 0.950 . S
C777 C794 1.574 . S
C777 C796 1.368 . S
C777 H801 0.949 . S
H778 C782 0.949 . S
C779 C780 1.349 . S
C779 C781 1.327 . S
C779 H802 0.950 . S
C780 C779 1.349 . S
C780 C792 1.349 . S
C781 C779 1.327 . S
C781 C797 1.429 . S
C781 H803 0.950 . S
C782 H778 0.949 . S
C782 C790 1.574 . S
C782 C798 1.368 . S
H783 C791 0.950 . S
H784 C789 0.950 . S
H785 C790 0.949 . S
H786 C792 0.950 . S
H787 C793 0.950 . S
H788 C794 0.949 . S
C789 H784 0.950 . S
C789 C791 1.327 . S
C789 C795 1.429 . S
C790 C782 1.574 . S
C790 H785 0.949 . S
C790 C796 1.368 . S
C791 C775 1.349 . S
C791 H783 0.950 . S
C791 C789 1.327 . S
C792 C780 1.349 . S
C792 H786 0.950 . S
C792 C793 1.327 . S
C793 H787 0.950 . S
C793 C792 1.327 . S
C793 C797 1.429 . S
C794 C777 1.574 . S
C794 H788 0.949 . S
C794 C798 1.368 . S
C795 C776 1.429 . S
C795 C789 1.429 . S
C795 C796 1.523 . S
C796 C777 1.368 . S
C796 C790 1.368 . S
C796 C795 1.523 . S
C797 C781 1.429 . S
C797 C793 1.429 . S
C797 C798 1.523 . S
C798 C782 1.368 . S
C798 C794 1.368 . S
C798 C797 1.523 . S
H799 C774 0.950 . S
H800 C776 0.950 . S
H801 C777 0.949 . S
H802 C779 0.950 . S
H803 C781 0.950 . S
C804 C805 1.349 . S
C804 C806 1.327 . S
C804 H829 0.950 . S
C805 C804 1.349 . S
C805 C821 1.349 . S
C806 C804 1.327 . S
C806 C825 1.429 . S
C806 H830 0.950 . S
C807 C824 1.574 . S
C807 C826 1.368 . S
C807 H831 0.949 . S
H808 C812 0.949 . S
C809 C810 1.349 . S
C809 C811 1.327 . S
C809 H832 0.950 . S
C810 C809 1.349 . S
C810 C822 1.349 . S
C811 C809 1.327 . S
C811 C827 1.429 . S
C811 H833 0.950 . S
C812 H808 0.949 . S
C812 C820 1.574 . S
C812 C828 1.368 . S
H813 C821 0.950 . S
H814 C819 0.950 . S
H815 C820 0.949 . S
H816 C822 0.950 . S
H817 C823 0.950 . S
H818 C824 0.949 . S
C819 H814 0.950 . S
C819 C821 1.327 . S
C819 C825 1.429 . S
C820 C812 1.574 . S
C820 H815 0.949 . S
C820 C826 1.368 . S
C821 C805 1.349 . S
C821 H813 0.950 . S
C821 C819 1.327 . S
C822 C810 1.349 . S
C822 H816 0.950 . S
C822 C823 1.327 . S
C823 H817 0.950 . S
C823 C822 1.327 . S
C823 C827 1.429 . S
C824 C807 1.574 . S
C824 H818 0.949 . S
C824 C828 1.368 . S
C825 C806 1.429 . S
C825 C819 1.429 . S
C825 C826 1.523 . S
C826 C807 1.368 . S
C826 C820 1.368 . S
C826 C825 1.523 . S
C827 C811 1.429 . S
C827 C823 1.429 . S
C827 C828 1.523 . S
C828 C812 1.368 . S
C828 C824 1.368 . S
C828 C827 1.523 . S
H829 C804 0.950 . S
H830 C806 0.950 . S
H831 C807 0.949 . S
H832 C809 0.950 . S
H833 C811 0.950 . S
C834 C835 1.349 . S
C834 C836 1.327 . S
C834 H859 0.950 . S
C835 C834 1.349 . S
C835 C851 1.349 . S
C836 C834 1.327 . S
C836 C855 1.429 . S
C836 H860 0.950 . S
C837 C854 1.574 . S
C837 C856 1.368 . S
C837 H861 0.949 . S
H838 C842 0.949 . S
C839 C840 1.349 . S
C839 C841 1.327 . S
C839 H862 0.950 . S
C840 C839 1.349 . S
C840 C852 1.349 . S
C841 C839 1.327 . S
C841 C857 1.429 . S
C841 H863 0.950 . S
C842 H838 0.949 . S
C842 C850 1.574 . S
C842 C858 1.368 . S
H843 C851 0.950 . S
H844 C849 0.950 . S
H845 C850 0.949 . S
H846 C852 0.950 . S
H847 C853 0.950 . S
H848 C854 0.949 . S
C849 H844 0.950 . S
C849 C851 1.327 . S
C849 C855 1.429 . S
C850 C842 1.574 . S
C850 H845 0.949 . S
C850 C856 1.368 . S
C851 C835 1.349 . S
C851 H843 0.950 . S
C851 C849 1.327 . S
C852 C840 1.349 . S
C852 H846 0.950 . S
C852 C853 1.327 . S
C853 H847 0.950 . S
C853 C852 1.327 . S
C853 C857 1.429 . S
C854 C837 1.574 . S
C854 H848 0.949 . S
C854 C858 1.368 . S
C855 C836 1.429 . S
C855 C849 1.429 . S
C855 C856 1.523 . S
C856 C837 1.368 . S
C856 C850 1.368 . S
C856 C855 1.523 . S
C857 C841 1.429 . S
C857 C853 1.429 . S
C857 C858 1.523 . S
C858 C842 1.368 . S
C858 C854 1.368 . S
C858 C857 1.523 . S
H859 C834 0.950 . S
H860 C836 0.950 . S
H861 C837 0.949 . S
H862 C839 0.950 . S
H863 C841 0.950 . S
C864 C865 1.349 . S
C864 C866 1.327 . S
C864 H889 0.950 . S
C865 C864 1.349 . S
C865 C881 1.349 . S
C866 C864 1.327 . S
C866 C885 1.429 . S
C866 H890 0.950 . S
C867 C884 1.574 . S
C867 C886 1.368 . S
C867 H891 0.949 . S
H868 C872 0.949 . S
C869 C870 1.349 . S
C869 C871 1.327 . S
C869 H892 0.950 . S
C870 C869 1.349 . S
C870 C882 1.349 . S
C871 C869 1.327 . S
C871 C887 1.429 . S
C871 H893 0.950 . S
C872 H868 0.949 . S
C872 C880 1.574 . S
C872 C888 1.368 . S
H873 C881 0.950 . S
H874 C879 0.950 . S
H875 C880 0.949 . S
H876 C882 0.950 . S
H877 C883 0.950 . S
H878 C884 0.949 . S
C879 H874 0.950 . S
C879 C881 1.327 . S
C879 C885 1.429 . S
C880 C872 1.574 . S
C880 H875 0.949 . S
C880 C886 1.368 . S
C881 C865 1.349 . S
C881 H873 0.950 . S
C881 C879 1.327 . S
C882 C870 1.349 . S
C882 H876 0.950 . S
C882 C883 1.327 . S
C883 H877 0.950 . S
C883 C882 1.327 . S
C883 C887 1.429 . S
C884 C867 1.574 . S
C884 H878 0.949 . S
C884 C888 1.368 . S
C885 C866 1.429 . S
C885 C879 1.429 . S
C885 C886 1.523 . S
C886 C867 1.368 . S
C886 C880 1.368 . S
C886 C885 1.523 . S
C887 C871 1.429 . S
C887 C883 1.429 . S
C887 C888 1.523 . S
C888 C872 1.368 . S
C888 C884 1.368 . S
C888 C887 1.523 . S
H889 C864 0.950 . S
H890 C866 0.950 . S
H891 C867 0.949 . S
H892 C869 0.950 . S
H893 C871 0.950 . S
C894 C895 1.349 . S
C894 C896 1.327 . S
C894 H919 0.950 . S
C895 C894 1.349 . S
C895 C911 1.349 . S
C896 C894 1.327 . S
C896 C915 1.429 . S
C896 H920 0.950 . S
C897 C914 1.574 . S
C897 C916 1.368 . S
C897 H921 0.949 . S
H898 C902 0.949 . S
C899 C900 1.349 . S
C899 C901 1.327 . S
C899 H922 0.950 . S
C900 C899 1.349 . S
C900 C912 1.349 . S
C901 C899 1.327 . S
C901 C917 1.429 . S
C901 H923 0.950 . S
C902 H898 0.949 . S
C902 C910 1.574 . S
C902 C918 1.368 . S
H903 C911 0.950 . S
H904 C909 0.950 . S
H905 C910 0.949 . S
H906 C912 0.950 . S
H907 C913 0.950 . S
H908 C914 0.949 . S
C909 H904 0.950 . S
C909 C911 1.327 . S
C909 C915 1.429 . S
C910 C902 1.574 . S
C910 H905 0.949 . S
C910 C916 1.368 . S
C911 C895 1.349 . S
C911 H903 0.950 . S
C911 C909 1.327 . S
C912 C900 1.349 . S
C912 H906 0.950 . S
C912 C913 1.327 . S
C913 H907 0.950 . S
C913 C912 1.327 . S
C913 C917 1.429 . S
C914 C897 1.574 . S
C914 H908 0.949 . S
C914 C918 1.368 . S
C915 C896 1.429 . S
C915 C909 1.429 . S
C915 C916 1.523 . S
C916 C897 1.368 . S
C916 C910 1.368 . S
C916 C915 1.523 . S
C917 C901 1.429 . S
C917 C913 1.429 . S
C917 C918 1.523 . S
C918 C902 1.368 . S
C918 C914 1.368 . S
C918 C917 1.523 . S
H919 C894 0.950 . S
H920 C896 0.950 . S
H921 C897 0.949 . S
H922 C899 0.950 . S
H923 C901 0.950 . S
C924 C925 1.349 . S
C924 C926 1.327 . S
C924 H949 0.950 . S
C925 C924 1.349 . S
C925 C941 1.349 . S
C926 C924 1.327 . S
C926 C945 1.429 . S
C926 H950 0.950 . S
C927 C944 1.574 . S
C927 C946 1.368 . S
C927 H951 0.949 . S
H928 C932 0.949 . S
C929 C930 1.349 . S
C929 C931 1.327 . S
C929 H952 0.950 . S
C930 C929 1.349 . S
C930 C942 1.349 . S
C931 C929 1.327 . S
C931 C947 1.429 . S
C931 H953 0.950 . S
C932 H928 0.949 . S
C932 C940 1.574 . S
C932 C948 1.368 . S
H933 C941 0.950 . S
H934 C939 0.950 . S
H935 C940 0.949 . S
H936 C942 0.950 . S
H937 C943 0.950 . S
H938 C944 0.949 . S
C939 H934 0.950 . S
C939 C941 1.327 . S
C939 C945 1.429 . S
C940 C932 1.574 . S
C940 H935 0.949 . S
C940 C946 1.368 . S
C941 C925 1.349 . S
C941 H933 0.950 . S
C941 C939 1.327 . S
C942 C930 1.349 . S
C942 H936 0.950 . S
C942 C943 1.327 . S
C943 H937 0.950 . S
C943 C942 1.327 . S
C943 C947 1.429 . S
C944 C927 1.574 . S
C944 H938 0.949 . S
C944 C948 1.368 . S
C945 C926 1.429 . S
C945 C939 1.429 . S
C945 C946 1.523 . S
C946 C927 1.368 . S
C946 C940 1.368 . S
C946 C945 1.523 . S
C947 C931 1.429 . S
C947 C943 1.429 . S
C947 C948 1.523 . S
C948 C932 1.368 . S
C948 C944 1.368 . S
C948 C947 1.523 . S
H949 C924 0.950 . S
H950 C926 0.950 . S
H951 C927 0.949 . S
H952 C929 0.950 . S
H953 C931 0.950 . S
C954 C955 1.349 . S
C954 C956 1.327 . S
C954 H979 0.950 . S
C955 C954 1.349 . S
C955 C971 1.349 . S
C956 C954 1.327 . S
C956 C975 1.429 . S
C956 H980 0.950 . S
C957 C974 1.574 . S
C957 C976 1.368 . S
C957 H981 0.949 . S
H958 C962 0.949 . S
C959 C960 1.349 . S
C959 C961 1.327 . S
C959 H982 0.950 . S
C960 C959 1.349 . S
C960 C972 1.349 . S
C961 C959 1.327 . S
C961 C977 1.429 . S
C961 H983 0.950 . S
C962 H958 0.949 . S
C962 C970 1.574 . S
C962 C978 1.368 . S
H963 C971 0.950 . S
H964 C969 0.950 . S
H965 C970 0.949 . S
H966 C972 0.950 . S
H967 C973 0.950 . S
H968 C974 0.949 . S
C969 H964 0.950 . S
C969 C971 1.327 . S
C969 C975 1.429 . S
C970 C962 1.574 . S
C970 H965 0.949 . S
C970 C976 1.368 . S
C971 C955 1.349 . S
C971 H963 0.950 . S
C971 C969 1.327 . S
C972 C960 1.349 . S
C972 H966 0.950 . S
C972 C973 1.327 . S
C973 H967 0.950 . S
C973 C972 1.327 . S
C973 C977 1.429 . S
C974 C957 1.574 . S
C974 H968 0.949 . S
C974 C978 1.368 . S
C975 C956 1.429 . S
C975 C969 1.429 . S
C975 C976 1.523 . S
C976 C957 1.368 . S
C976 C970 1.368 . S
C976 C975 1.523 . S
C977 C961 1.429 . S
C977 C973 1.429 . S
C977 C978 1.523 . S
C978 C962 1.368 . S
C978 C974 1.368 . S
C978 C977 1.523 . S
H979 C954 0.950 . S
H980 C956 0.950 . S
H981 C957 0.949 . S
H982 C959 0.950 . S
H983 C961 0.950 . S
C984 C985 1.349 . S
C984 C986 1.327 . S
C984 H1009 0.950 . S
C985 C984 1.349 . S
C985 C1001 1.349 . S
C986 C984 1.327 . S
C986 C1005 1.429 . S
C986 H1010 0.950 . S
C987 C1004 1.574 1_565 S
C987 C1006 1.368 . S
C987 H1011 0.949 . S
H988 C992 0.949 . S
C989 C990 1.349 . S
C989 C991 1.327 . S
C989 H1012 0.950 . S
C990 C989 1.349 . S
C990 C1002 1.349 . S
C991 C989 1.327 . S
C991 C1007 1.429 . S
C991 H1013 0.950 . S
C992 H988 0.949 . S
C992 C1000 1.574 1_545 S
C992 C1008 1.368 . S
H993 C1001 0.950 . S
H994 C999 0.950 . S
H995 C1000 0.949 . S
H996 C1002 0.950 . S
H997 C1003 0.950 . S
H998 C1004 0.949 . S
C999 H994 0.950 . S
C999 C1001 1.327 . S
C999 C1005 1.429 . S
C1000 C992 1.574 1_565 S
C1000 H995 0.949 . S
C1000 C1006 1.368 . S
C1001 C985 1.349 . S
C1001 H993 0.950 . S
C1001 C999 1.327 . S
C1002 C990 1.349 . S
C1002 H996 0.950 . S
C1002 C1003 1.327 . S
C1003 H997 0.950 . S
C1003 C1002 1.327 . S
C1003 C1007 1.429 . S
C1004 C987 1.574 1_545 S
C1004 H998 0.949 . S
C1004 C1008 1.368 . S
C1005 C986 1.429 . S
C1005 C999 1.429 . S
C1005 C1006 1.523 . S
C1006 C987 1.368 . S
C1006 C1000 1.368 . S
C1006 C1005 1.523 . S
C1007 C991 1.429 . S
C1007 C1003 1.429 . S
C1007 C1008 1.523 . S
C1008 C992 1.368 . S
C1008 C1004 1.368 . S
C1008 C1007 1.523 . S
H1009 C984 0.950 . S
H1010 C986 0.950 . S
H1011 C987 0.949 . S
H1012 C989 0.950 . S
H1013 C991 0.950 . S
C1014 C1015 1.349 . S
C1014 C1016 1.327 . S
C1014 H1039 0.950 . S
C1015 C1014 1.349 . S
C1015 C1031 1.349 . S
C1016 C1014 1.327 . S
C1016 C1035 1.429 . S
C1016 H1040 0.950 . S
C1017 C1034 1.574 1_455 S
C1017 C1036 1.368 . S
C1017 H1041 0.949 . S
H1018 C1022 0.949 . S
C1019 C1020 1.349 . S
C1019 C1021 1.327 . S
C1019 H1042 0.950 . S
C1020 C1019 1.349 . S
C1020 C1032 1.349 . S
C1021 C1019 1.327 . S
C1021 C1037 1.429 . S
C1021 H1043 0.950 . S
C1022 H1018 0.949 . S
C1022 C1030 1.574 1_655 S
C1022 C1038 1.368 . S
H1023 C1031 0.950 . S
H1024 C1029 0.950 . S
H1025 C1030 0.949 . S
H1026 C1032 0.950 . S
H1027 C1033 0.950 . S
H1028 C1034 0.949 . S
C1029 H1024 0.950 . S
C1029 C1031 1.327 . S
C1029 C1035 1.429 . S
C1030 C1022 1.574 1_455 S
C1030 H1025 0.949 . S
C1030 C1036 1.368 . S
C1031 C1015 1.349 . S
C1031 H1023 0.950 . S
C1031 C1029 1.327 . S
C1032 C1020 1.349 . S
C1032 H1026 0.950 . S
C1032 C1033 1.327 . S
C1033 H1027 0.950 . S
C1033 C1032 1.327 . S
C1033 C1037 1.429 . S
C1034 C1017 1.574 1_655 S
C1034 H1028 0.949 . S
C1034 C1038 1.368 . S
C1035 C1016 1.429 . S
C1035 C1029 1.429 . S
C1035 C1036 1.523 . S
C1036 C1017 1.368 . S
C1036 C1030 1.368 . S
C1036 C1035 1.523 . S
C1037 C1021 1.429 . S
C1037 C1033 1.429 . S
C1037 C1038 1.523 . S
C1038 C1022 1.368 . S
C1038 C1034 1.368 . S
C1038 C1037 1.523 . S
H1039 C1014 0.950 . S
H1040 C1016 0.950 . S
H1041 C1017 0.949 . S
H1042 C1019 0.950 . S
H1043 C1021 0.950 . S
C1044 C1045 1.349 . S
C1044 C1046 1.327 . S
C1044 H1069 0.950 . S
C1045 C1044 1.349 . S
C1045 C1061 1.349 . S
C1046 C1044 1.327 . S
C1046 C1065 1.429 . S
C1046 H1070 0.950 . S
C1047 C1064 1.574 1_545 S
C1047 C1066 1.368 . S
C1047 H1071 0.949 . S
H1048 C1052 0.949 . S
C1049 C1050 1.349 . S
C1049 C1051 1.327 . S
C1049 H1072 0.950 . S
C1050 C1049 1.349 . S
C1050 C1062 1.349 . S
C1051 C1049 1.327 . S
C1051 C1067 1.429 . S
C1051 H1073 0.950 . S
C1052 H1048 0.949 . S
C1052 C1060 1.574 1_565 S
C1052 C1068 1.368 . S
H1053 C1061 0.950 . S
H1054 C1059 0.950 . S
H1055 C1060 0.949 . S
H1056 C1062 0.950 . S
H1057 C1063 0.950 . S
H1058 C1064 0.949 . S
C1059 H1054 0.950 . S
C1059 C1061 1.327 . S
C1059 C1065 1.429 . S
C1060 C1052 1.574 1_545 S
C1060 H1055 0.949 . S
C1060 C1066 1.368 . S
C1061 C1045 1.349 . S
C1061 H1053 0.950 . S
C1061 C1059 1.327 . S
C1062 C1050 1.349 . S
C1062 H1056 0.950 . S
C1062 C1063 1.327 . S
C1063 H1057 0.950 . S
C1063 C1062 1.327 . S
C1063 C1067 1.429 . S
C1064 C1047 1.574 1_565 S
C1064 H1058 0.949 . S
C1064 C1068 1.368 . S
C1065 C1046 1.429 . S
C1065 C1059 1.429 . S
C1065 C1066 1.523 . S
C1066 C1047 1.368 . S
C1066 C1060 1.368 . S
C1066 C1065 1.523 . S
C1067 C1051 1.429 . S
C1067 C1063 1.429 . S
C1067 C1068 1.523 . S
C1068 C1052 1.368 . S
C1068 C1064 1.368 . S
C1068 C1067 1.523 . S
H1069 C1044 0.950 . S
H1070 C1046 0.950 . S
H1071 C1047 0.949 . S
H1072 C1049 0.950 . S
H1073 C1051 0.950 . S
C1074 C1075 1.349 . S
C1074 C1076 1.327 . S
C1074 H1099 0.950 . S
C1075 C1074 1.349 . S
C1075 C1091 1.349 . S
C1076 C1074 1.327 . S
C1076 C1095 1.429 . S
C1076 H1100 0.950 . S
C1077 C1094 1.574 1_455 S
C1077 C1096 1.368 . S
C1077 H1101 0.949 . S
H1078 C1082 0.949 . S
C1079 C1080 1.349 . S
C1079 C1081 1.327 . S
C1079 H1102 0.950 . S
C1080 C1079 1.349 . S
C1080 C1092 1.349 . S
C1081 C1079 1.327 . S
C1081 C1097 1.429 . S
C1081 H1103 0.950 . S
C1082 H1078 0.949 . S
C1082 C1090 1.574 1_655 S
C1082 C1098 1.368 . S
H1083 C1091 0.950 . S
H1084 C1089 0.950 . S
H1085 C1090 0.949 . S
H1086 C1092 0.950 . S
H1087 C1093 0.950 . S
H1088 C1094 0.949 . S
C1089 H1084 0.950 . S
C1089 C1091 1.327 . S
C1089 C1095 1.429 . S
C1090 C1082 1.574 1_455 S
C1090 H1085 0.949 . S
C1090 C1096 1.368 . S
C1091 C1075 1.349 . S
C1091 H1083 0.950 . S
C1091 C1089 1.327 . S
C1092 C1080 1.349 . S
C1092 H1086 0.950 . S
C1092 C1093 1.327 . S
C1093 H1087 0.950 . S
C1093 C1092 1.327 . S
C1093 C1097 1.429 . S
C1094 C1077 1.574 1_655 S
C1094 H1088 0.949 . S
C1094 C1098 1.368 . S
C1095 C1076 1.429 . S
C1095 C1089 1.429 . S
C1095 C1096 1.523 . S
C1096 C1077 1.368 . S
C1096 C1090 1.368 . S
C1096 C1095 1.523 . S
C1097 C1081 1.429 . S
C1097 C1093 1.429 . S
C1097 C1098 1.523 . S
C1098 C1082 1.368 . S
C1098 C1094 1.368 . S
C1098 C1097 1.523 . S
H1099 C1074 0.950 . S
H1100 C1076 0.950 . S
H1101 C1077 0.949 . S
H1102 C1079 0.950 . S
H1103 C1081 0.950 . S
C1104 C1105 1.349 . S
C1104 C1106 1.327 . S
C1104 H1129 0.950 . S
C1105 C1104 1.349 . S
C1105 C1121 1.349 . S
C1106 C1104 1.327 . S
C1106 C1125 1.429 . S
C1106 H1130 0.950 . S
C1107 C1124 1.574 1_556 S
C1107 C1126 1.368 . S
C1107 H1131 0.949 . S
H1108 C1112 0.949 . S
C1109 C1110 1.349 . S
C1109 C1111 1.327 . S
C1109 H1132 0.950 . S
C1110 C1109 1.349 . S
C1110 C1122 1.349 . S
C1111 C1109 1.327 . S
C1111 C1127 1.429 . S
C1111 H1133 0.950 . S
C1112 H1108 0.949 . S
C1112 C1120 1.574 1_554 S
C1112 C1128 1.368 . S
H1113 C1121 0.950 . S
H1114 C1119 0.950 . S
H1115 C1120 0.949 . S
H1116 C1122 0.950 . S
H1117 C1123 0.950 . S
H1118 C1124 0.949 . S
C1119 H1114 0.950 . S
C1119 C1121 1.327 . S
C1119 C1125 1.429 . S
C1120 C1112 1.574 1_556 S
C1120 H1115 0.949 . S
C1120 C1126 1.368 . S
C1121 C1105 1.349 . S
C1121 H1113 0.950 . S
C1121 C1119 1.327 . S
C1122 C1110 1.349 . S
C1122 H1116 0.950 . S
C1122 C1123 1.327 . S
C1123 H1117 0.950 . S
C1123 C1122 1.327 . S
C1123 C1127 1.429 . S
C1124 C1107 1.574 1_554 S
C1124 H1118 0.949 . S
C1124 C1128 1.368 . S
C1125 C1106 1.429 . S
C1125 C1119 1.429 . S
C1125 C1126 1.523 . S
C1126 C1107 1.368 . S
C1126 C1120 1.368 . S
C1126 C1125 1.523 . S
C1127 C1111 1.429 . S
C1127 C1123 1.429 . S
C1127 C1128 1.523 . S
C1128 C1112 1.368 . S
C1128 C1124 1.368 . S
C1128 C1127 1.523 . S
H1129 C1104 0.950 . S
H1130 C1106 0.950 . S
H1131 C1107 0.949 . S
H1132 C1109 0.950 . S
H1133 C1111 0.950 . S
C1134 C1135 1.349 . S
C1134 C1136 1.327 . S
C1134 H1159 0.950 . S
C1135 C1134 1.349 . S
C1135 C1151 1.349 . S
C1136 C1134 1.327 . S
C1136 C1155 1.429 . S
C1136 H1160 0.950 . S
C1137 C1154 1.574 1_556 S
C1137 C1156 1.368 . S
C1137 H1161 0.949 . S
H1138 C1142 0.949 . S
C1139 C1140 1.349 . S
C1139 C1141 1.327 . S
C1139 H1162 0.950 . S
C1140 C1139 1.349 . S
C1140 C1152 1.349 . S
C1141 C1139 1.327 . S
C1141 C1157 1.429 . S
C1141 H1163 0.950 . S
C1142 H1138 0.949 . S
C1142 C1150 1.574 1_554 S
C1142 C1158 1.368 . S
H1143 C1151 0.950 . S
H1144 C1149 0.950 . S
H1145 C1150 0.949 . S
H1146 C1152 0.950 . S
H1147 C1153 0.950 . S
H1148 C1154 0.949 . S
C1149 H1144 0.950 . S
C1149 C1151 1.327 . S
C1149 C1155 1.429 . S
C1150 C1142 1.574 1_556 S
C1150 H1145 0.949 . S
C1150 C1156 1.368 . S
C1151 C1135 1.349 . S
C1151 H1143 0.950 . S
C1151 C1149 1.327 . S
C1152 C1140 1.349 . S
C1152 H1146 0.950 . S
C1152 C1153 1.327 . S
C1153 H1147 0.950 . S
C1153 C1152 1.327 . S
C1153 C1157 1.429 . S
C1154 C1137 1.574 1_554 S
C1154 H1148 0.949 . S
C1154 C1158 1.368 . S
C1155 C1136 1.429 . S
C1155 C1149 1.429 . S
C1155 C1156 1.523 . S
C1156 C1137 1.368 . S
C1156 C1150 1.368 . S
C1156 C1155 1.523 . S
C1157 C1141 1.429 . S
C1157 C1153 1.429 . S
C1157 C1158 1.523 . S
C1158 C1142 1.368 . S
C1158 C1154 1.368 . S
C1158 C1157 1.523 . S
H1159 C1134 0.950 . S
H1160 C1136 0.950 . S
H1161 C1137 0.949 . S
H1162 C1139 0.950 . S
H1163 C1141 0.950 . S
C1164 C1165 1.349 . S
C1164 C1166 1.327 . S
C1164 H1189 0.950 . S
C1165 C1164 1.349 . S
C1165 C1181 1.349 . S
C1166 C1164 1.327 . S
C1166 C1185 1.429 . S
C1166 H1190 0.950 . S
C1167 C1184 1.574 1_554 S
C1167 C1186 1.368 . S
C1167 H1191 0.949 . S
H1168 C1172 0.949 . S
C1169 C1170 1.349 . S
C1169 C1171 1.327 . S
C1169 H1192 0.950 . S
C1170 C1169 1.349 . S
C1170 C1182 1.349 . S
C1171 C1169 1.327 . S
C1171 C1187 1.429 . S
C1171 H1193 0.950 . S
C1172 H1168 0.949 . S
C1172 C1180 1.574 1_556 S
C1172 C1188 1.368 . S
H1173 C1181 0.950 . S
H1174 C1179 0.950 . S
H1175 C1180 0.949 . S
H1176 C1182 0.950 . S
H1177 C1183 0.950 . S
H1178 C1184 0.949 . S
C1179 H1174 0.950 . S
C1179 C1181 1.327 . S
C1179 C1185 1.429 . S
C1180 C1172 1.574 1_554 S
C1180 H1175 0.949 . S
C1180 C1186 1.368 . S
C1181 C1165 1.349 . S
C1181 H1173 0.950 . S
C1181 C1179 1.327 . S
C1182 C1170 1.349 . S
C1182 H1176 0.950 . S
C1182 C1183 1.327 . S
C1183 H1177 0.950 . S
C1183 C1182 1.327 . S
C1183 C1187 1.429 . S
C1184 C1167 1.574 1_556 S
C1184 H1178 0.949 . S
C1184 C1188 1.368 . S
C1185 C1166 1.429 . S
C1185 C1179 1.429 . S
C1185 C1186 1.523 . S
C1186 C1167 1.368 . S
C1186 C1180 1.368 . S
C1186 C1185 1.523 . S
C1187 C1171 1.429 . S
C1187 C1183 1.429 . S
C1187 C1188 1.523 . S
C1188 C1172 1.368 . S
C1188 C1184 1.368 . S
C1188 C1187 1.523 . S
H1189 C1164 0.950 . S
H1190 C1166 0.950 . S
H1191 C1167 0.949 . S
H1192 C1169 0.950 . S
H1193 C1171 0.950 . S
C1194 C1195 1.349 . S
C1194 C1196 1.327 . S
C1194 H1219 0.950 . S
C1195 C1194 1.349 . S
C1195 C1211 1.349 . S
C1196 C1194 1.327 . S
C1196 C1215 1.429 . S
C1196 H1220 0.950 . S
C1197 C1214 1.574 1_556 S
C1197 C1216 1.368 . S
C1197 H1221 0.949 . S
H1198 C1202 0.949 . S
C1199 C1200 1.349 . S
C1199 C1201 1.327 . S
C1199 H1222 0.950 . S
C1200 C1199 1.349 . S
C1200 C1212 1.349 . S
C1201 C1199 1.327 . S
C1201 C1217 1.429 . S
C1201 H1223 0.950 . S
C1202 H1198 0.949 . S
C1202 C1210 1.574 1_554 S
C1202 C1218 1.368 . S
H1203 C1211 0.950 . S
H1204 C1209 0.950 . S
H1205 C1210 0.949 . S
H1206 C1212 0.950 . S
H1207 C1213 0.950 . S
H1208 C1214 0.949 . S
C1209 H1204 0.950 . S
C1209 C1211 1.327 . S
C1209 C1215 1.429 . S
C1210 C1202 1.574 1_556 S
C1210 H1205 0.949 . S
C1210 C1216 1.368 . S
C1211 C1195 1.349 . S
C1211 H1203 0.950 . S
C1211 C1209 1.327 . S
C1212 C1200 1.349 . S
C1212 H1206 0.950 . S
C1212 C1213 1.327 . S
C1213 H1207 0.950 . S
C1213 C1212 1.327 . S
C1213 C1217 1.429 . S
C1214 C1197 1.574 1_554 S
C1214 H1208 0.949 . S
C1214 C1218 1.368 . S
C1215 C1196 1.429 . S
C1215 C1209 1.429 . S
C1215 C1216 1.523 . S
C1216 C1197 1.368 . S
C1216 C1210 1.368 . S
C1216 C1215 1.523 . S
C1217 C1201 1.429 . S
C1217 C1213 1.429 . S
C1217 C1218 1.523 . S
C1218 C1202 1.368 . S
C1218 C1214 1.368 . S
C1218 C1217 1.523 . S
H1219 C1194 0.950 . S
H1220 C1196 0.950 . S
H1221 C1197 0.949 . S
H1222 C1199 0.950 . S
H1223 C1201 0.950 . S
C1224 C1225 1.349 . S
C1224 C1226 1.327 . S
C1224 H1249 0.950 . S
C1225 C1224 1.349 . S
C1225 C1241 1.349 . S
C1226 C1224 1.327 . S
C1226 C1245 1.429 . S
C1226 H1250 0.950 . S
C1227 C1244 1.574 1_455 S
C1227 C1246 1.368 . S
C1227 H1251 0.949 . S
H1228 C1232 0.949 . S
C1229 C1230 1.349 . S
C1229 C1231 1.327 . S
C1229 H1252 0.950 . S
C1230 C1229 1.349 . S
C1230 C1242 1.349 . S
C1231 C1229 1.327 . S
C1231 C1247 1.429 . S
C1231 H1253 0.950 . S
C1232 H1228 0.949 . S
C1232 C1240 1.574 1_655 S
C1232 C1248 1.368 . S
H1233 C1241 0.950 . S
H1234 C1239 0.950 . S
H1235 C1240 0.949 . S
H1236 C1242 0.950 . S
H1237 C1243 0.950 . S
H1238 C1244 0.949 . S
C1239 H1234 0.950 . S
C1239 C1241 1.327 . S
C1239 C1245 1.429 . S
C1240 C1232 1.574 1_455 S
C1240 H1235 0.949 . S
C1240 C1246 1.368 . S
C1241 C1225 1.349 . S
C1241 H1233 0.950 . S
C1241 C1239 1.327 . S
C1242 C1230 1.349 . S
C1242 H1236 0.950 . S
C1242 C1243 1.327 . S
C1243 H1237 0.950 . S
C1243 C1242 1.327 . S
C1243 C1247 1.429 . S
C1244 C1227 1.574 1_655 S
C1244 H1238 0.949 . S
C1244 C1248 1.368 . S
C1245 C1226 1.429 . S
C1245 C1239 1.429 . S
C1245 C1246 1.523 . S
C1246 C1227 1.368 . S
C1246 C1240 1.368 . S
C1246 C1245 1.523 . S
C1247 C1231 1.429 . S
C1247 C1243 1.429 . S
C1247 C1248 1.523 . S
C1248 C1232 1.368 . S
C1248 C1244 1.368 . S
C1248 C1247 1.523 . S
H1249 C1224 0.950 . S
H1250 C1226 0.950 . S
H1251 C1227 0.949 . S
H1252 C1229 0.950 . S
H1253 C1231 0.950 . S
C1254 C1255 1.349 . S
C1254 C1256 1.327 . S
C1254 H1279 0.950 . S
C1255 C1254 1.349 . S
C1255 C1271 1.349 . S
C1256 C1254 1.327 . S
C1256 C1275 1.429 . S
C1256 H1280 0.950 . S
C1257 C1274 1.574 1_655 S
C1257 C1276 1.368 . S
C1257 H1281 0.949 . S
H1258 C1262 0.949 . S
C1259 C1260 1.349 . S
C1259 C1261 1.327 . S
C1259 H1282 0.950 . S
C1260 C1259 1.349 . S
C1260 C1272 1.349 . S
C1261 C1259 1.327 . S
C1261 C1277 1.429 . S
C1261 H1283 0.950 . S
C1262 H1258 0.949 . S
C1262 C1270 1.574 1_455 S
C1262 C1278 1.368 . S
H1263 C1271 0.950 . S
H1264 C1269 0.950 . S
H1265 C1270 0.949 . S
H1266 C1272 0.950 . S
H1267 C1273 0.950 . S
H1268 C1274 0.949 . S
C1269 H1264 0.950 . S
C1269 C1271 1.327 . S
C1269 C1275 1.429 . S
C1270 C1262 1.574 1_655 S
C1270 H1265 0.949 . S
C1270 C1276 1.368 . S
C1271 C1255 1.349 . S
C1271 H1263 0.950 . S
C1271 C1269 1.327 . S
C1272 C1260 1.349 . S
C1272 H1266 0.950 . S
C1272 C1273 1.327 . S
C1273 H1267 0.950 . S
C1273 C1272 1.327 . S
C1273 C1277 1.429 . S
C1274 C1257 1.574 1_455 S
C1274 H1268 0.949 . S
C1274 C1278 1.368 . S
C1275 C1256 1.429 . S
C1275 C1269 1.429 . S
C1275 C1276 1.523 . S
C1276 C1257 1.368 . S
C1276 C1270 1.368 . S
C1276 C1275 1.523 . S
C1277 C1261 1.429 . S
C1277 C1273 1.429 . S
C1277 C1278 1.523 . S
C1278 C1262 1.368 . S
C1278 C1274 1.368 . S
C1278 C1277 1.523 . S
H1279 C1254 0.950 . S
H1280 C1256 0.950 . S
H1281 C1257 0.949 . S
H1282 C1259 0.950 . S
H1283 C1261 0.950 . S
C1284 C1285 1.349 . S
C1284 C1286 1.327 . S
C1284 H1309 0.950 . S
C1285 C1284 1.349 . S
C1285 C1301 1.349 . S
C1286 C1284 1.327 . S
C1286 C1305 1.429 . S
C1286 H1310 0.950 . S
C1287 C1304 1.574 1_545 S
C1287 C1306 1.368 . S
C1287 H1311 0.949 . S
H1288 C1292 0.949 . S
C1289 C1290 1.349 . S
C1289 C1291 1.327 . S
C1289 H1312 0.950 . S
C1290 C1289 1.349 . S
C1290 C1302 1.349 . S
C1291 C1289 1.327 . S
C1291 C1307 1.429 . S
C1291 H1313 0.950 . S
C1292 H1288 0.949 . S
C1292 C1300 1.574 1_565 S
C1292 C1308 1.368 . S
H1293 C1301 0.950 . S
H1294 C1299 0.950 . S
H1295 C1300 0.949 . S
H1296 C1302 0.950 . S
H1297 C1303 0.950 . S
H1298 C1304 0.949 . S
C1299 H1294 0.950 . S
C1299 C1301 1.327 . S
C1299 C1305 1.429 . S
C1300 C1292 1.574 1_545 S
C1300 H1295 0.949 . S
C1300 C1306 1.368 . S
C1301 C1285 1.349 . S
C1301 H1293 0.950 . S
C1301 C1299 1.327 . S
C1302 C1290 1.349 . S
C1302 H1296 0.950 . S
C1302 C1303 1.327 . S
C1303 H1297 0.950 . S
C1303 C1302 1.327 . S
C1303 C1307 1.429 . S
C1304 C1287 1.574 1_565 S
C1304 H1298 0.949 . S
C1304 C1308 1.368 . S
C1305 C1286 1.429 . S
C1305 C1299 1.429 . S
C1305 C1306 1.523 . S
C1306 C1287 1.368 . S
C1306 C1300 1.368 . S
C1306 C1305 1.523 . S
C1307 C1291 1.429 . S
C1307 C1303 1.429 . S
C1307 C1308 1.523 . S
C1308 C1292 1.368 . S
C1308 C1304 1.368 . S
C1308 C1307 1.523 . S
H1309 C1284 0.950 . S
H1310 C1286 0.950 . S
H1311 C1287 0.949 . S
H1312 C1289 0.950 . S
H1313 C1291 0.950 . S
C1314 C1315 1.349 . S
C1314 C1316 1.327 . S
C1314 H1339 0.950 . S
C1315 C1314 1.349 . S
C1315 C1331 1.349 . S
C1316 C1314 1.327 . S
C1316 C1335 1.429 . S
C1316 H1340 0.950 . S
C1317 C1334 1.574 1_565 S
C1317 C1336 1.368 . S
C1317 H1341 0.949 . S
H1318 C1322 0.949 . S
C1319 C1320 1.349 . S
C1319 C1321 1.327 . S
C1319 H1342 0.950 . S
C1320 C1319 1.349 . S
C1320 C1332 1.349 . S
C1321 C1319 1.327 . S
C1321 C1337 1.429 . S
C1321 H1343 0.950 . S
C1322 H1318 0.949 . S
C1322 C1330 1.574 1_545 S
C1322 C1338 1.368 . S
H1323 C1331 0.950 . S
H1324 C1329 0.950 . S
H1325 C1330 0.949 . S
H1326 C1332 0.950 . S
H1327 C1333 0.950 . S
H1328 C1334 0.949 . S
C1329 H1324 0.950 . S
C1329 C1331 1.327 . S
C1329 C1335 1.429 . S
C1330 C1322 1.574 1_565 S
C1330 H1325 0.949 . S
C1330 C1336 1.368 . S
C1331 C1315 1.349 . S
C1331 H1323 0.950 . S
C1331 C1329 1.327 . S
C1332 C1320 1.349 . S
C1332 H1326 0.950 . S
C1332 C1333 1.327 . S
C1333 H1327 0.950 . S
C1333 C1332 1.327 . S
C1333 C1337 1.429 . S
C1334 C1317 1.574 1_545 S
C1334 H1328 0.949 . S
C1334 C1338 1.368 . S
C1335 C1316 1.429 . S
C1335 C1329 1.429 . S
C1335 C1336 1.523 . S
C1336 C1317 1.368 . S
C1336 C1330 1.368 . S
C1336 C1335 1.523 . S
C1337 C1321 1.429 . S
C1337 C1333 1.429 . S
C1337 C1338 1.523 . S
C1338 C1322 1.368 . S
C1338 C1334 1.368 . S
C1338 C1337 1.523 . S
H1339 C1314 0.950 . S
H1340 C1316 0.950 . S
H1341 C1317 0.949 . S
H1342 C1319 0.950 . S
H1343 C1321 0.950 . S
C265 C15 1.416 . S
C270 C164 1.436 . S
C295 C95 1.456 . S
C300 C30 1.471 . S
C325 C54 1.374 . S
C330 C120 1.376 . S
C355 C84 1.464 . S
C360 C147 1.448 . S
C385 C81 1.506 . S
C390 C205 1.508 . S
C415 C18 1.392 . S
C420 C238 1.393 . S
C445 C249 1.516 . S
C450 C29 1.514 . S
C475 C65 1.434 . S
C480 C184 1.453 . S
C505 C103 1.459 . S
C510 C10 1.479 . S
C535 C128 1.447 . S
C540 C43 1.431 . S
C565 C153 1.518 . S
C570 C59 1.520 . S
C595 C73 1.424 . S
C600 C172 1.439 . S
C625 C76 1.380 . S
C630 C186 1.378 . S
C655 C7 1.502 . S
C660 C213 1.501 . S
C685 C228 1.386 . S
C690 C40 1.388 . S
C715 C257 1.442 . S
C720 C52 1.461 . S
C745 C98 1.457 . S
C750 C169 1.439 . S
C775 C216 1.464 . S
C780 C191 1.449 . S
C805 C208 1.457 . S
C810 C227 1.438 . S
C835 C260 1.446 . S
C840 C241 1.431 . S
C865 C252 1.457 . S
C870 C197 1.438 . S
C895 C140 1.457 . S
C900 C125 1.438 . S
C925 C142 1.464 . S
C930 C161 1.449 . S
C955 C106 1.446 . S
C960 C117 1.431 . S
C985 C74 1.441 . S
C990 C8 1.441 . S
C1015 C21 1.532 . S
C1020 C37 1.532 . S
C1045 C32 1.504 . S
C1050 C51 1.501 . S
C1075 C87 1.470 . S
C1080 C62 1.472 . S
C1105 C235 1.460 . S
C1110 C96 1.463 . S
C1135 C250 1.486 . S
C1140 C131 1.484 . S
C1165 C150 1.489 . S
C1170 C183 1.487 . S
C1195 C206 1.513 . S
C1200 C175 1.510 . S
C1225 C162 1.381 . S
C1230 C118 1.381 . S
C1255 C263 1.557 . S
C1260 C219 1.557 . S
C1285 C230 1.416 . S
C1290 C194 1.416 . S
C1315 C139 1.592 . S
C1320 C109 1.592 . S
