# Generated by pormake.
# Topology ukm, (4)-cn, num edge types: 1
# Building blocks:
#     Node 0, Type 0, BuildingBlock: CEKHIL_clean_sbu_0, # of connection points: 4
#     Node 1, Type 0, BuildingBlock: CEKHIL_clean_sbu_0, # of connection points: 4
#     Node 2, Type 0, BuildingBlock: CEKHIL_clean_sbu_0, # of connection points: 4
#     Node 3, Type 0, BuildingBlock: CEKHIL_clean_sbu_0, # of connection points: 4
#     Node 4, Type 0, BuildingBlock: CEKHIL_clean_sbu_0, # of connection points: 4
#     Node 5, Type 0, BuildingBlock: CEKHIL_clean_sbu_0, # of connection points: 4
#     Node 6, Type 0, BuildingBlock: CEKHIL_clean_sbu_0, # of connection points: 4
#     Node 7, Type 0, BuildingBlock: CEKHIL_clean_sbu_0, # of connection points: 4
#     Node 8, Type 0, BuildingBlock: CEKHIL_clean_sbu_0, # of connection points: 4
#     Node 9, Type 0, BuildingBlock: CEKHIL_clean_sbu_0, # of connection points: 4
#     Node 10, Type 0, BuildingBlock: CEKHIL_clean_sbu_0, # of connection points: 4
#     Node 11, Type 0, BuildingBlock: CEKHIL_clean_sbu_0, # of connection points: 4
#     Node 12, Type 0, BuildingBlock: CEKHIL_clean_sbu_0, # of connection points: 4
#     Node 13, Type 0, BuildingBlock: CEKHIL_clean_sbu_0, # of connection points: 4
#     Node 14, Type 0, BuildingBlock: CEKHIL_clean_sbu_0, # of connection points: 4
#     Node 15, Type 0, BuildingBlock: CEKHIL_clean_sbu_0, # of connection points: 4
#     Node 16, Type 0, BuildingBlock: CEKHIL_clean_sbu_0, # of connection points: 4
#     Node 17, Type 0, BuildingBlock: CEKHIL_clean_sbu_0, # of connection points: 4
#     Node 18, Type 0, BuildingBlock: CEKHIL_clean_sbu_0, # of connection points: 4
#     Node 19, Type 0, BuildingBlock: CEKHIL_clean_sbu_0, # of connection points: 4
#     Node 20, Type 0, BuildingBlock: CEKHIL_clean_sbu_0, # of connection points: 4
#     Node 21, Type 0, BuildingBlock: CEKHIL_clean_sbu_0, # of connection points: 4
#     Node 22, Type 0, BuildingBlock: CEKHIL_clean_sbu_0, # of connection points: 4
#     Node 23, Type 0, BuildingBlock: CEKHIL_clean_sbu_0, # of connection points: 4
#     Node 24, Type 0, BuildingBlock: CEKHIL_clean_sbu_0, # of connection points: 4
#     Node 25, Type 0, BuildingBlock: CEKHIL_clean_sbu_0, # of connection points: 4
#     Node 26, Type 0, BuildingBlock: CEKHIL_clean_sbu_0, # of connection points: 4
#     Node 27, Type 0, BuildingBlock: CEKHIL_clean_sbu_0, # of connection points: 4
#     Node 28, Type 0, BuildingBlock: CEKHIL_clean_sbu_0, # of connection points: 4
#     Node 29, Type 0, BuildingBlock: CEKHIL_clean_sbu_0, # of connection points: 4
#     Node 30, Type 0, BuildingBlock: CEKHIL_clean_sbu_0, # of connection points: 4
#     Node 31, Type 0, BuildingBlock: CEKHIL_clean_sbu_0, # of connection points: 4
#     Edge 32, Type (0, 0), None
#     Edge 33, Type (0, 0), None
#     Edge 34, Type (0, 0), None
#     Edge 35, Type (0, 0), None
#     Edge 36, Type (0, 0), None
#     Edge 37, Type (0, 0), None
#     Edge 38, Type (0, 0), None
#     Edge 39, Type (0, 0), None
#     Edge 40, Type (0, 0), None
#     Edge 41, Type (0, 0), None
#     Edge 42, Type (0, 0), None
#     Edge 43, Type (0, 0), None
#     Edge 44, Type (0, 0), None
#     Edge 45, Type (0, 0), None
#     Edge 46, Type (0, 0), None
#     Edge 47, Type (0, 0), None
#     Edge 48, Type (0, 0), None
#     Edge 49, Type (0, 0), None
#     Edge 50, Type (0, 0), None
#     Edge 51, Type (0, 0), None
#     Edge 52, Type (0, 0), None
#     Edge 53, Type (0, 0), None
#     Edge 54, Type (0, 0), None
#     Edge 55, Type (0, 0), None
#     Edge 56, Type (0, 0), None
#     Edge 57, Type (0, 0), None
#     Edge 58, Type (0, 0), None
#     Edge 59, Type (0, 0), None
#     Edge 60, Type (0, 0), None
#     Edge 61, Type (0, 0), None
#     Edge 62, Type (0, 0), None
#     Edge 63, Type (0, 0), None
#     Edge 64, Type (0, 0), None
#     Edge 65, Type (0, 0), None
#     Edge 66, Type (0, 0), None
#     Edge 67, Type (0, 0), None
#     Edge 68, Type (0, 0), None
#     Edge 69, Type (0, 0), None
#     Edge 70, Type (0, 0), None
#     Edge 71, Type (0, 0), None
#     Edge 72, Type (0, 0), None
#     Edge 73, Type (0, 0), None
#     Edge 74, Type (0, 0), None
#     Edge 75, Type (0, 0), None
#     Edge 76, Type (0, 0), None
#     Edge 77, Type (0, 0), None
#     Edge 78, Type (0, 0), None
#     Edge 79, Type (0, 0), None
#     Edge 80, Type (0, 0), None
#     Edge 81, Type (0, 0), None
#     Edge 82, Type (0, 0), None
#     Edge 83, Type (0, 0), None
#     Edge 84, Type (0, 0), None
#     Edge 85, Type (0, 0), None
#     Edge 86, Type (0, 0), None
#     Edge 87, Type (0, 0), None
#     Edge 88, Type (0, 0), None
#     Edge 89, Type (0, 0), None
#     Edge 90, Type (0, 0), None
#     Edge 91, Type (0, 0), None
#     Edge 92, Type (0, 0), None
#     Edge 93, Type (0, 0), None
#     Edge 94, Type (0, 0), None
#     Edge 95, Type (0, 0), None
# Relax obj value: 0.256
# Max RMSD: 0.188
# Mean RMSD: 0.188
data_MOF--net-ukm--node1-CEKHIL_clean_sbu_0--edge1-none
_symmetry_space_group_name_H-M    P1
_symmetry_Int_Tables_number       1
_symmetry_cell_setting            triclinic
loop_
_symmetry_equiv_pos_as_xyz
'x, y, z'
_cell_length_a     11.070706
_cell_length_b     42.579031
_cell_length_c     20.663743
_cell_angle_alpha  89.998605
_cell_angle_beta   90.000032
_cell_angle_gamma 89.991202
loop_
_atom_site_label
_atom_site_type_symbol
_atom_site_fract_x
_atom_site_fract_y
_atom_site_fract_z
_atom_type_partial_charge
Co0 Co 0.11665 0.33901 0.2514 0.0
O1 O 0.13403 0.29882 0.21173 0.0
O2 O 0.96401 0.31614 0.25569 0.0
C3 C 0.28659 0.33861 0.31205 0.0
O4 O 0.07552 0.37968 0.29928 0.0
Co5 Co 0.29987 0.38632 0.20324 0.0
O6 O 0.21567 0.41423 0.26538 0.0
C7 C 0.12279 0.36523 0.11338 0.0
C8 C 0.02084 0.29428 0.22353 0.0
C9 C 0.12699 0.40682 0.30152 0.0
O10 O 0.06357 0.35649 0.16381 0.0
O11 O 0.23188 0.3746 0.11675 0.0
O12 O 0.18933 0.32484 0.33251 0.0
O13 O 0.28427 0.34715 0.25173 0.0
Co14 Co 0.06757 0.99237 0.2514 0.0
O15 O 0.05024 1.03255 0.21169 0.0
O16 O 0.22023 1.01523 0.25569 0.0
C17 C 0.89762 0.99279 0.31205 0.0
O18 O 0.10866 0.95171 0.29932 0.0
Co19 Co 0.88431 0.94506 0.20329 0.0
O20 O -0.03144 0.91715 0.26542 0.0
C21 C 0.06146 0.96611 0.11342 0.0
C22 C 0.16343 1.03709 0.2235 0.0
C23 C 0.05723 0.92457 0.30156 0.0
O24 O 0.12066 0.97486 0.16384 0.0
O25 O 0.95235 0.95674 0.1168 0.0
O26 O -0.00512 1.00657 0.3325 0.0
O27 O 0.89994 0.98424 0.25173 0.0
Co28 Co 0.11665 0.99239 0.91201 0.0
O29 O 0.13402 1.03257 0.95173 0.0
O30 O 0.964 1.01528 0.90774 0.0
C31 C 0.28659 0.99281 0.85136 0.0
O32 O 0.07554 0.95174 0.86409 0.0
Co33 Co 0.29991 0.94506 -0.03989 0.0
O34 O 0.21567 0.91717 0.89796 0.0
C35 C 0.12276 0.96612 0.04998 0.0
C36 C 0.02083 1.03713 0.93992 0.0
C37 C 0.12699 0.9246 0.86183 0.0
O38 O 0.06356 0.97489 -0.00043 0.0
O39 O 0.23186 0.95674 0.04661 0.0
O40 O 0.18932 1.00659 0.83091 0.0
O41 O 0.28427 0.98425 0.91167 0.0
Co42 Co 0.06761 0.33894 0.91196 0.0
O43 O 0.05028 0.29875 0.95165 0.0
O44 O 0.22027 0.31606 0.90766 0.0
C45 C 0.89764 0.33853 0.85132 0.0
O46 O 0.10868 0.3796 0.86406 0.0
Co47 Co 0.88427 0.38626 -0.03992 0.0
O48 O -0.03151 0.41416 0.89793 0.0
C49 C 0.06148 0.36521 0.04994 0.0
C50 C 0.16347 0.2942 0.93983 0.0
C51 C 0.05719 0.40674 0.86181 0.0
O52 O 0.12068 0.35643 -0.00047 0.0
O53 O 0.95238 0.37459 0.04656 0.0
O54 O -0.0051 0.32475 0.83085 0.0
O55 O 0.89999 0.34708 0.91164 0.0
Co56 Co 0.81917 0.70802 0.69498 0.0
O57 O 0.92387 0.68906 0.75767 0.0
O58 O 0.73464 0.70506 0.7747 0.0
C59 C 0.85213 0.67421 0.61257 0.0
O60 O 0.68177 0.72738 0.6474 0.0
Co61 Co 0.90884 0.73677 0.56544 0.0
O62 O 0.73379 0.73733 0.54469 0.0
C63 C 0.95961 0.76862 0.68965 0.0
C64 C 0.83333 0.69302 0.79719 0.0
C65 C 0.65564 0.73518 0.58973 0.0
O66 O 0.88399 0.75093 0.71959 0.0
O67 O -0.0095 0.76445 0.63061 0.0
O68 O 0.77696 0.66711 0.65855 0.0
O69 O 0.91246 0.69989 0.62048 0.0
Co70 Co 0.865 0.12339 0.69497 0.0
O71 O 0.76032 0.14234 0.75767 0.0
O72 O 0.94955 0.12635 0.77468 0.0
C73 C 0.83202 0.15721 0.61257 0.0
O74 O 0.00238 0.10404 0.64737 0.0
Co75 Co 0.77529 0.09465 0.56542 0.0
O76 O 0.95034 0.09408 0.54466 0.0
C77 C 0.72453 0.06279 0.68963 0.0
C78 C 0.85088 0.13839 0.79719 0.0
C79 C 0.0285 0.09622 0.5897 0.0
O80 O 0.80018 0.08048 0.71956 0.0
O81 O 0.69362 0.06698 0.63059 0.0
O82 O 0.90721 0.16431 0.65854 0.0
O83 O 0.77169 0.13153 0.62048 0.0
Co84 Co 0.8192 0.12342 -0.03158 0.0
O85 O 0.92387 0.14236 0.90571 0.0
O86 O 0.73462 0.12638 0.88872 0.0
C87 C 0.85217 0.15723 0.05082 0.0
O88 O 0.68184 0.10408 0.01603 0.0
Co89 Co 0.90897 0.09468 0.09797 0.0
O90 O 0.73392 0.09402 0.1187 0.0
C91 C 0.95968 0.06281 -0.02624 0.0
C92 C 0.83331 0.1384 0.86621 0.0
C93 C 0.65576 0.09619 0.07367 0.0
O94 O 0.88401 0.08051 0.94383 0.0
O95 O -0.00935 0.06701 0.03279 0.0
O96 O 0.77699 0.16434 0.00484 0.0
O97 O 0.91252 0.13155 0.0429 0.0
Co98 Co 0.86507 0.70799 -0.03159 0.0
O99 O 0.76037 0.68906 0.90572 0.0
O100 O 0.94962 0.70503 0.88871 0.0
C101 C 0.8321 0.67418 0.05082 0.0
O102 O 0.00247 0.72733 0.01601 0.0
Co103 Co 0.77537 0.73674 0.09796 0.0
O104 O 0.95042 0.73736 0.11869 0.0
C105 C 0.72462 0.76861 -0.02625 0.0
C106 C 0.85092 0.69301 0.86621 0.0
C107 C 0.02857 0.73519 0.07366 0.0
O108 O 0.80027 0.75091 0.94382 0.0
O109 O 0.6937 0.76442 0.03279 0.0
O110 O 0.90727 0.66707 0.00484 0.0
O111 O 0.77178 0.69986 0.04291 0.0
Co112 Co 0.11665 0.83902 0.75141 0.0
O113 O 0.13398 0.79883 0.7117 0.0
O114 O 0.96398 0.81615 0.7557 0.0
C115 C 0.2866 0.8386 0.81204 0.0
O116 O 0.07563 0.87968 0.79932 0.0
Co117 Co 0.29992 0.88631 0.70325 0.0
O118 O 0.21528 0.9143 0.76508 0.0
C119 C 0.12278 0.86524 0.61342 0.0
C120 C 0.02078 0.7943 0.7235 0.0
C121 C 0.12677 0.90686 0.80131 0.0
O122 O 0.06356 0.85652 0.66385 0.0
O123 O 0.23191 0.87459 0.61677 0.0
O124 O 0.18934 0.82482 0.83251 0.0
O125 O 0.28428 0.84714 0.75173 0.0
Co126 Co 0.06762 0.49234 0.75143 0.0
O127 O 0.05033 0.53254 0.71174 0.0
O128 O 0.22031 0.5152 0.75572 0.0
C129 C 0.89767 0.49277 0.81207 0.0
O130 O 0.1086 0.45167 0.79932 0.0
Co131 Co 0.8843 0.44507 0.70325 0.0
O132 O -0.03109 0.41706 0.76506 0.0
C133 C 0.06145 0.46613 0.61342 0.0
C134 C 0.16353 0.53707 0.72355 0.0
C135 C 0.05743 0.42449 0.8013 0.0
O136 O 0.12069 0.47485 0.66386 0.0
O137 O 0.95232 0.45679 0.61678 0.0
O138 O -0.00505 0.50653 0.83254 0.0
O139 O 0.89998 0.48423 0.75175 0.0
Co140 Co 0.11662 0.49239 0.41201 0.0
O141 O 0.13393 0.53257 0.45173 0.0
O142 O 0.96394 0.51527 0.40773 0.0
C143 C 0.28656 0.49281 0.35137 0.0
O144 O 0.07561 0.45173 0.36408 0.0
Co145 Co 0.29994 0.44508 0.46014 0.0
O146 O 0.21538 0.41712 0.39825 0.0
C147 C 0.12277 0.46614 0.54999 0.0
C148 C 0.02074 0.53712 0.43991 0.0
C149 C 0.12682 0.42455 0.36204 0.0
O150 O 0.06355 0.47488 0.49956 0.0
O151 O 0.2319 0.45679 0.54662 0.0
O152 O 0.18929 0.50659 0.33091 0.0
O153 O 0.28425 0.48426 0.41168 0.0
Co154 Co 0.06759 0.83899 0.41201 0.0
O155 O 0.05027 0.7988 0.45173 0.0
O156 O 0.22026 0.81611 0.40773 0.0
C157 C 0.89764 0.83857 0.35137 0.0
O158 O 0.1086 0.87965 0.36409 0.0
Co159 Co 0.88427 0.88629 0.46015 0.0
O160 O -0.03111 0.91427 0.3983 0.0
C161 C 0.06145 0.86523 0.54999 0.0
C162 C 0.16346 0.79426 0.43992 0.0
C163 C 0.05742 0.90683 0.36208 0.0
O164 O 0.12067 0.85649 0.49956 0.0
O165 O 0.95232 0.87459 0.54663 0.0
O166 O -0.00509 0.82479 0.33091 0.0
O167 O 0.89996 0.84712 0.41168 0.0
Co168 Co 0.81919 0.20801 0.19498 0.0
O169 O 0.92383 0.18904 0.25769 0.0
O170 O 0.73461 0.20505 0.27468 0.0
C171 C 0.85214 0.17421 0.11256 0.0
O172 O 0.68184 0.22737 0.14738 0.0
Co173 Co 0.90898 0.23676 0.06545 0.0
O174 O 0.73394 0.23732 0.04466 0.0
C175 C 0.95968 0.2686 0.18968 0.0
C176 C 0.83328 0.19301 0.2972 0.0
C177 C 0.65575 0.23518 0.08969 0.0
O178 O 0.88403 0.25091 0.2196 0.0
O179 O -0.00938 0.26442 0.13064 0.0
O180 O 0.77696 0.1671 0.15853 0.0
O181 O 0.91252 0.19987 0.12049 0.0
Co182 Co 0.86504 0.6234 0.19498 0.0
O183 O 0.76035 0.64236 0.25767 0.0
O184 O 0.94957 0.62636 0.2747 0.0
C185 C 0.83212 0.6572 0.11255 0.0
O186 O 0.00243 0.60404 0.1474 0.0
Co187 Co 0.77534 0.59465 0.06544 0.0
O188 O 0.95039 0.59406 0.0447 0.0
C189 C 0.72456 0.5628 0.18966 0.0
C190 C 0.85089 0.6384 0.29719 0.0
C191 C 0.02855 0.59621 0.08973 0.0
O192 O 0.80021 0.58049 0.21959 0.0
O193 O 0.69366 0.56698 0.13062 0.0
O194 O 0.90727 0.66431 0.15854 0.0
O195 O 0.77175 0.63153 0.12048 0.0
Co196 Co 0.81916 0.62343 0.46842 0.0
O197 O 0.92386 0.64236 0.40572 0.0
O198 O 0.7346 0.62639 0.38872 0.0
C199 C 0.85211 0.65723 0.55084 0.0
O200 O 0.68178 0.60409 0.51603 0.0
Co201 Co 0.9089 0.59467 0.59797 0.0
O202 O 0.73385 0.59404 0.6187 0.0
C203 C 0.95958 0.5628 0.47376 0.0
C204 C 0.8333 0.63841 0.36621 0.0
C205 C 0.65569 0.59622 0.57368 0.0
O206 O 0.88395 0.58051 0.44383 0.0
O207 O -0.00947 0.56699 0.53279 0.0
O208 O 0.77696 0.66435 0.50485 0.0
O209 O 0.91247 0.63155 0.54292 0.0
Co210 Co 0.86497 0.20799 0.46842 0.0
O211 O 0.76028 0.18905 0.40572 0.0
O212 O 0.94953 0.20503 0.38872 0.0
C213 C 0.83203 0.17419 0.55084 0.0
O214 O 0.00235 0.22733 0.51602 0.0
Co215 Co 0.77527 0.23674 0.59798 0.0
O216 O 0.95032 0.23734 0.61872 0.0
C217 C 0.72452 0.2686 0.47377 0.0
C218 C 0.85084 0.19301 0.36622 0.0
C219 C 0.02847 0.23518 0.57368 0.0
O220 O 0.80016 0.25091 0.44383 0.0
O221 O 0.69361 0.26442 0.53281 0.0
O222 O 0.90718 0.16707 0.50485 0.0
O223 O 0.77167 0.19986 0.54292 0.0
Co224 Co 0.61666 0.339 0.75137 0.0
O225 O 0.63394 0.29882 0.71162 0.0
O226 O 0.46398 0.31613 0.75566 0.0
C227 C 0.78667 0.33853 0.81196 0.0
O228 O 0.57564 0.37965 0.79934 0.0
Co229 Co 0.79998 0.38631 0.70329 0.0
O230 O 0.71576 0.41421 0.76544 0.0
C231 C 0.62276 0.36529 0.61342 0.0
C232 C 0.52075 0.29428 0.72345 0.0
C233 C 0.62709 0.40679 0.80159 0.0
O234 O 0.56355 0.35653 0.66384 0.0
O235 O 0.73187 0.37465 0.6168 0.0
O236 O 0.68939 0.32477 0.83244 0.0
O237 O 0.78428 0.34711 0.75167 0.0
Co238 Co 0.56753 0.99239 0.75138 0.0
O239 O 0.55018 1.03257 0.71164 0.0
O240 O 0.72018 1.01526 0.75567 0.0
C241 C 0.39755 0.99283 0.81199 0.0
O242 O 0.60861 0.95173 0.79932 0.0
Co243 Co 0.38423 0.94507 0.70328 0.0
O244 O 0.46848 0.91717 0.76544 0.0
C245 C 0.56144 0.96611 0.61342 0.0
C246 C 0.66337 1.03711 0.72345 0.0
C247 C 0.55715 0.9246 0.80157 0.0
O248 O 0.62064 0.97488 0.66383 0.0
O249 O 0.45234 0.95675 0.61679 0.0
O250 O 0.4948 1.0066 0.83247 0.0
O251 O 0.39993 0.98426 0.75169 0.0
Co252 Co 0.61665 0.99239 0.41201 0.0
O253 O 0.63396 1.03257 0.45174 0.0
O254 O 0.46399 1.01526 0.40771 0.0
C255 C 0.78665 0.99282 0.35142 0.0
O256 O 0.57561 0.95173 0.36408 0.0
Co257 Co 0.79997 0.94506 0.46013 0.0
O258 O 0.71574 0.91716 0.39798 0.0
C259 C 0.62275 0.96611 0.54998 0.0
C260 C 0.52077 1.03711 0.43992 0.0
C261 C 0.62707 0.92459 0.36183 0.0
O262 O 0.56354 0.97487 0.49956 0.0
O263 O 0.73186 0.95674 0.54661 0.0
O264 O 0.68939 1.00659 0.33093 0.0
O265 O 0.78426 0.98425 0.41171 0.0
Co266 Co 0.56754 0.33902 0.41202 0.0
O267 O 0.55018 0.29885 0.45176 0.0
O268 O 0.72019 0.31614 0.40773 0.0
C269 C 0.39755 0.33859 0.35142 0.0
O270 O 0.60861 0.37967 0.36407 0.0
Co271 Co 0.38427 0.38636 0.46012 0.0
O272 O 0.46853 0.41425 0.39798 0.0
C273 C 0.56145 0.3653 0.54998 0.0
C274 C 0.66337 0.2943 0.43995 0.0
C275 C 0.55718 0.40682 0.36183 0.0
O276 O 0.62065 0.35653 0.49957 0.0
O277 O 0.45235 0.37467 0.54661 0.0
O278 O 0.49481 0.32482 0.33094 0.0
O279 O 0.39993 0.34717 0.41171 0.0
Co280 Co 0.31918 0.70801 0.19497 0.0
O281 O 0.42385 0.68904 0.25766 0.0
O282 O 0.23464 0.70505 0.27469 0.0
C283 C 0.3521 0.6742 0.11255 0.0
O284 O 0.1818 0.72737 0.1474 0.0
Co285 Co 0.40887 0.73676 0.06543 0.0
O286 O 0.23382 0.73734 0.04468 0.0
C287 C 0.45963 0.76861 0.18964 0.0
C288 C 0.33331 0.693 0.29718 0.0
C289 C 0.15568 0.73521 0.08974 0.0
O290 O 0.38403 0.75091 0.21958 0.0
O291 O 0.49051 0.76443 0.1306 0.0
O292 O 0.27692 0.6671 0.15853 0.0
O293 O 0.41245 0.69987 0.12047 0.0
Co294 Co 0.36513 0.12335 0.19495 0.0
O295 O 0.26043 0.14232 0.25761 0.0
O296 O 0.44963 0.12632 0.27467 0.0
C297 C 0.33226 0.15715 0.11251 0.0
O298 O 0.50252 0.10398 0.14741 0.0
Co299 Co 0.27546 0.09459 0.06541 0.0
O300 O 0.45052 0.09402 0.04469 0.0
C301 C 0.22463 0.06276 0.18964 0.0
C302 C 0.35095 0.13837 0.29715 0.0
C303 C 0.52865 0.09615 0.08974 0.0
O304 O 0.30025 0.08045 0.21958 0.0
O305 O 0.19375 0.06693 0.1306 0.0
O306 O 0.40741 0.16425 0.15849 0.0
O307 O 0.27188 0.13148 0.12044 0.0
Co308 Co 0.31914 0.12341 0.46837 0.0
O309 O 0.42387 0.14233 0.40568 0.0
O310 O 0.23461 0.12637 0.38866 0.0
C311 C 0.35212 0.15722 0.55076 0.0
O312 O 0.18171 0.10408 0.51597 0.0
Co313 Co 0.4088 0.09466 0.59794 0.0
O314 O 0.23375 0.09405 0.61866 0.0
C315 C 0.45958 0.0628 0.47375 0.0
C316 C 0.33332 0.13838 0.36617 0.0
C317 C 0.15561 0.09621 0.57362 0.0
O318 O 0.38392 0.08048 0.44381 0.0
O319 O 0.49051 0.06699 0.53278 0.0
O320 O 0.27696 0.16433 0.50478 0.0
O321 O 0.41242 0.13154 0.54287 0.0
Co322 Co 0.36504 0.70795 0.46841 0.0
O323 O 0.26033 0.68903 0.4057 0.0
O324 O 0.4496 0.705 0.3887 0.0
C325 C 0.33204 0.67413 0.5508 0.0
O326 O 0.50244 0.72728 0.51601 0.0
Co327 Co 0.27533 0.7367 0.59796 0.0
O328 O 0.45038 0.73734 0.61869 0.0
C329 C 0.22463 0.76857 0.47376 0.0
C330 C 0.3509 0.69298 0.3662 0.0
C331 C 0.52853 0.73517 0.57365 0.0
O332 O 0.30028 0.75088 0.44383 0.0
O333 O 0.19368 0.76438 0.53279 0.0
O334 O 0.40721 0.66703 0.50482 0.0
O335 O 0.27173 0.69982 0.5429 0.0
Co336 Co 0.6167 0.839 0.25139 0.0
O337 O 0.63401 0.79882 0.21167 0.0
O338 O 0.46402 0.81614 0.25569 0.0
C339 C 0.78669 0.83856 0.31199 0.0
O340 O 0.57572 0.87967 0.29932 0.0
Co341 Co 0.80001 0.8863 0.20324 0.0
O342 O 0.71539 0.91428 0.26509 0.0
C343 C 0.6228 0.86525 0.11342 0.0
C344 C 0.52081 0.79429 0.22348 0.0
C345 C 0.62687 0.90685 0.30132 0.0
O346 O 0.56359 0.85652 0.16385 0.0
O347 O 0.73193 0.87459 0.11677 0.0
O348 O 0.68942 0.82479 0.33248 0.0
O349 O 0.78432 0.84712 0.25169 0.0
Co350 Co 0.5675 0.49241 0.2514 0.0
O351 O 0.55019 0.53259 0.21168 0.0
O352 O 0.72017 0.51527 0.25571 0.0
C353 C 0.39752 0.49284 0.31199 0.0
O354 O 0.60851 0.45174 0.29931 0.0
Co355 Co 0.38421 0.4451 0.20324 0.0
O356 O 0.46886 0.41712 0.26508 0.0
C357 C 0.56141 0.46616 0.11342 0.0
C358 C 0.66338 0.53712 0.2235 0.0
C359 C 0.55738 0.42456 0.30131 0.0
O360 O 0.62062 0.4749 0.16385 0.0
O361 O 0.45229 0.45681 0.11677 0.0
O362 O 0.49477 0.5066 0.33249 0.0
O363 O 0.3999 0.48428 0.25169 0.0
Co364 Co 0.61669 0.49238 0.912 0.0
O365 O 0.63397 0.53257 0.95172 0.0
O366 O 0.46402 0.51526 0.90768 0.0
C367 C 0.7867 0.49281 0.85143 0.0
O368 O 0.57572 0.45172 0.86409 0.0
Co369 Co 0.79998 0.44507 -0.03981 0.0
O370 O 0.71536 0.41709 0.89834 0.0
C371 C 0.62275 0.46616 0.04999 0.0
C372 C 0.52079 0.53712 0.93988 0.0
C373 C 0.62686 0.42453 0.8621 0.0
O374 O 0.56355 0.47488 -0.00045 0.0
O375 O 0.73189 0.4568 0.04665 0.0
O376 O 0.68945 0.50658 0.83092 0.0
O377 O 0.7843 0.48424 0.91173 0.0
Co378 Co 0.56755 0.83901 0.91201 0.0
O379 O 0.55025 0.79883 0.95174 0.0
O380 O 0.72023 0.81614 0.90771 0.0
C381 C 0.39756 0.83858 0.85142 0.0
O382 O 0.60853 0.87967 0.86409 0.0
Co383 Co 0.38424 0.88632 -0.03983 0.0
O384 O 0.46886 0.9143 0.89833 0.0
C385 C 0.56146 0.86525 0.04999 0.0
C386 C 0.66344 0.79429 0.93992 0.0
C387 C 0.55737 0.90686 0.86209 0.0
O388 O 0.62067 0.85652 -0.00045 0.0
O389 O 0.45232 0.8746 0.04664 0.0
O390 O 0.49483 0.82481 0.83092 0.0
O391 O 0.39993 0.84714 0.91172 0.0
Co392 Co 0.3192 0.20799 0.69494 0.0
O393 O 0.42396 0.18903 0.75759 0.0
O394 O 0.23474 0.20501 0.77466 0.0
C395 C 0.35209 0.17421 0.61249 0.0
O396 O 0.18174 0.22734 0.64739 0.0
Co397 Co 0.40876 0.23677 0.56538 0.0
O398 O 0.2337 0.23735 0.54468 0.0
C399 C 0.45956 0.26861 0.6896 0.0
C400 C 0.33344 0.19297 0.79713 0.0
C401 C 0.15559 0.2352 0.58975 0.0
O402 O 0.38399 0.2509 0.71955 0.0
O403 O 0.49042 0.26444 0.63055 0.0
O404 O 0.27699 0.16708 0.65849 0.0
O405 O 0.41244 0.19988 0.62041 0.0
Co406 Co 0.36503 0.62337 0.69499 0.0
O407 O 0.26032 0.64232 0.75766 0.0
O408 O 0.44956 0.62635 0.7747 0.0
C409 C 0.33208 0.65715 0.61254 0.0
O410 O 0.50245 0.60401 0.64742 0.0
Co411 Co 0.2754 0.59459 0.56546 0.0
O412 O 0.45045 0.59404 0.54471 0.0
C413 C 0.22471 0.56274 0.68969 0.0
C414 C 0.35086 0.63838 0.79718 0.0
C415 C 0.52858 0.59618 0.58976 0.0
O416 O 0.30025 0.58045 0.71962 0.0
O417 O 0.19384 0.5669 0.63064 0.0
O418 O 0.40722 0.66428 0.65852 0.0
O419 O 0.27174 0.63148 0.62047 0.0
Co420 Co 0.31914 0.62341 -0.03159 0.0
O421 O 0.42382 0.64235 0.90571 0.0
O422 O 0.23457 0.62637 0.8887 0.0
C423 C 0.35207 0.65721 0.05083 0.0
O424 O 0.18175 0.60407 0.016 0.0
Co425 Co 0.40886 0.59465 0.09795 0.0
O426 O 0.23381 0.59405 0.11869 0.0
C427 C 0.4596 0.5628 -0.02627 0.0
C428 C 0.33327 0.6384 0.8662 0.0
C429 C 0.15566 0.5962 0.07365 0.0
O430 O 0.38396 0.5805 0.9438 0.0
O431 O 0.49052 0.56698 0.03277 0.0
O432 O 0.27692 0.66433 0.00484 0.0
O433 O 0.41244 0.63154 0.0429 0.0
Co434 Co 0.36522 0.20793 -0.03164 0.0
O435 O 0.26053 0.18898 0.90566 0.0
O436 O 0.44977 0.20497 0.88865 0.0
C437 C 0.33229 0.17413 0.05078 0.0
O438 O 0.50259 0.22727 0.01596 0.0
Co439 Co 0.27544 0.23668 0.09789 0.0
O440 O 0.45049 0.23733 0.11862 0.0
C441 C 0.22465 0.26852 -0.02633 0.0
C442 C 0.35107 0.19295 0.86615 0.0
C443 C 0.52865 0.23517 0.07359 0.0
O444 O 0.30038 0.25084 0.94376 0.0
O445 O 0.19368 0.26432 0.0327 0.0
O446 O 0.40744 0.16701 0.00479 0.0
O447 O 0.27191 0.1998 0.04285 0.0
loop_
_geom_bond_atom_site_label_1
_geom_bond_atom_site_label_2
_geom_bond_distance
_geom_bond_site_symmetry_2
_ccdc_geom_bond_type
Co0 O1 2.216 . S
Co0 O2 2.091 1_455 S
Co0 O4 2.004 . S
Co0 O10 2.021 . S
Co0 O12 2.137 . S
Co0 O13 2.244 . S
O1 Co0 2.216 . S
O1 C8 1.247 1_455 S
O2 Co0 2.091 1_655 S
O2 C8 1.261 . S
C3 O12 1.247 . S
C3 O13 1.272 . S
O4 Co0 2.004 . S
O4 C9 1.259 . S
Co5 O6 2.061 . S
Co5 O11 2.052 . S
Co5 O13 2.135 . S
O6 Co5 2.061 . S
O6 C9 1.235 . S
C7 O10 1.238 . S
C7 O11 1.241 . S
C8 O1 1.247 1_655 S
C8 O2 1.261 . S
C9 O4 1.259 . S
C9 O6 1.235 . S
O10 Co0 2.021 . S
O10 C7 1.238 . S
O11 Co5 2.052 . S
O11 C7 1.241 . S
O12 Co0 2.137 . S
O12 C3 1.247 . S
O13 Co0 2.244 . S
O13 C3 1.272 . S
O13 Co5 2.135 . S
Co14 O15 2.216 . S
Co14 O16 2.091 . S
Co14 O18 2.004 . S
Co14 O24 2.021 . S
Co14 O26 2.137 . S
Co14 O27 2.244 1_455 S
O15 Co14 2.216 . S
O15 C22 1.247 . S
O16 Co14 2.091 . S
O16 C22 1.261 . S
C17 O26 1.247 1_655 S
C17 O27 1.272 . S
O18 Co14 2.004 . S
O18 C23 1.259 . S
Co19 O20 2.061 1_655 S
Co19 O25 2.052 1_655 S
Co19 O27 2.135 . S
O20 Co19 2.061 1_455 S
O20 C23 1.235 . S
C21 O24 1.238 . S
C21 O25 1.241 . S
C22 O15 1.247 . S
C22 O16 1.261 . S
C23 O18 1.259 . S
C23 O20 1.235 . S
O24 Co14 2.021 . S
O24 C21 1.238 . S
O25 Co19 2.052 1_455 S
O25 C21 1.241 . S
O26 Co14 2.137 . S
O26 C17 1.247 1_455 S
O27 Co14 2.244 1_655 S
O27 C17 1.272 . S
O27 Co19 2.135 . S
Co28 O29 2.216 . S
Co28 O30 2.091 1_455 S
Co28 O32 2.004 . S
Co28 O38 2.021 1_556 S
Co28 O40 2.137 . S
Co28 O41 2.244 . S
O29 Co28 2.216 . S
O29 C36 1.247 1_455 S
O30 Co28 2.091 1_655 S
O30 C36 1.261 . S
C31 O40 1.247 . S
C31 O41 1.272 . S
O32 Co28 2.004 . S
O32 C37 1.259 . S
Co33 O34 2.061 . S
Co33 O39 2.052 1_556 S
Co33 O41 2.135 . S
O34 Co33 2.061 . S
O34 C37 1.235 . S
C35 O38 1.238 . S
C35 O39 1.241 . S
C36 O29 1.247 1_655 S
C36 O30 1.261 . S
C37 O32 1.259 . S
C37 O34 1.235 . S
O38 Co28 2.021 1_554 S
O38 C35 1.238 . S
O39 Co33 2.052 1_554 S
O39 C35 1.241 . S
O40 Co28 2.137 . S
O40 C31 1.247 . S
O41 Co28 2.244 . S
O41 C31 1.272 . S
O41 Co33 2.135 . S
Co42 O43 2.216 . S
Co42 O44 2.091 . S
Co42 O46 2.004 . S
Co42 O52 2.021 1_556 S
Co42 O54 2.137 . S
Co42 O55 2.244 1_455 S
O43 Co42 2.216 . S
O43 C50 1.247 . S
O44 Co42 2.091 . S
O44 C50 1.261 . S
C45 O54 1.247 1_655 S
C45 O55 1.272 . S
O46 Co42 2.004 . S
O46 C51 1.259 . S
Co47 O48 2.061 1_655 S
Co47 O53 2.052 1_656 S
Co47 O55 2.135 . S
O48 Co47 2.061 1_455 S
O48 C51 1.235 . S
C49 O52 1.238 . S
C49 O53 1.241 . S
C50 O43 1.247 . S
C50 O44 1.261 . S
C51 O46 1.259 . S
C51 O48 1.235 . S
O52 Co42 2.021 1_554 S
O52 C49 1.238 . S
O53 Co47 2.052 1_454 S
O53 C49 1.241 . S
O54 Co42 2.137 . S
O54 C45 1.247 1_455 S
O55 Co42 2.244 1_655 S
O55 C45 1.272 . S
O55 Co47 2.135 . S
Co56 O57 2.216 1_655 S
Co56 O58 2.091 . S
Co56 O60 2.004 . S
Co56 O66 2.021 . S
Co56 O68 2.137 . S
Co56 O69 2.244 1_655 S
O57 Co56 2.216 1_455 S
O57 C64 1.247 1_455 S
O58 Co56 2.091 . S
O58 C64 1.261 . S
C59 O68 1.247 . S
C59 O69 1.272 1_655 S
O60 Co56 2.004 . S
O60 C65 1.259 . S
Co61 O62 2.061 . S
Co61 O67 2.052 1_655 S
Co61 O69 2.135 1_655 S
O62 Co61 2.061 . S
O62 C65 1.235 . S
C63 O66 1.238 1_455 S
C63 O67 1.241 . S
C64 O57 1.247 1_655 S
C64 O58 1.261 . S
C65 O60 1.259 . S
C65 O62 1.235 . S
O66 Co56 2.021 . S
O66 C63 1.238 1_655 S
O67 Co61 2.052 1_455 S
O67 C63 1.241 . S
O68 Co56 2.137 . S
O68 C59 1.247 . S
O69 Co56 2.244 1_455 S
O69 C59 1.272 1_455 S
O69 Co61 2.135 1_455 S
Co70 O71 2.216 . S
Co70 O72 2.091 . S
Co70 O74 2.004 1_655 S
Co70 O80 2.021 . S
Co70 O82 2.137 . S
Co70 O83 2.244 . S
O71 Co70 2.216 . S
O71 C78 1.247 . S
O72 Co70 2.091 . S
O72 C78 1.261 . S
C73 O82 1.247 . S
C73 O83 1.272 . S
O74 Co70 2.004 1_455 S
O74 C79 1.259 . S
Co75 O76 2.061 . S
Co75 O81 2.052 . S
Co75 O83 2.135 . S
O76 Co75 2.061 . S
O76 C79 1.235 1_655 S
C77 O80 1.238 . S
C77 O81 1.241 . S
C78 O71 1.247 . S
C78 O72 1.261 . S
C79 O74 1.259 . S
C79 O76 1.235 1_455 S
O80 Co70 2.021 . S
O80 C77 1.238 . S
O81 Co75 2.052 . S
O81 C77 1.241 . S
O82 Co70 2.137 . S
O82 C73 1.247 . S
O83 Co70 2.244 . S
O83 C73 1.272 . S
O83 Co75 2.135 . S
Co84 O85 2.216 1_654 S
Co84 O86 2.091 1_554 S
Co84 O88 2.004 . S
Co84 O94 2.021 . S
Co84 O96 2.137 . S
Co84 O97 2.244 1_655 S
O85 Co84 2.216 1_456 S
O85 C92 1.247 1_455 S
O86 Co84 2.091 1_556 S
O86 C92 1.261 . S
C87 O96 1.247 . S
C87 O97 1.272 1_655 S
O88 Co84 2.004 . S
O88 C93 1.259 . S
Co89 O90 2.061 . S
Co89 O95 2.052 1_655 S
Co89 O97 2.135 1_655 S
O90 Co89 2.061 . S
O90 C93 1.235 . S
C91 O94 1.238 1_455 S
C91 O95 1.241 . S
C92 O85 1.247 1_655 S
C92 O86 1.261 . S
C93 O88 1.259 . S
C93 O90 1.235 . S
O94 Co84 2.021 . S
O94 C91 1.238 1_655 S
O95 Co89 2.052 1_455 S
O95 C91 1.241 . S
O96 Co84 2.137 . S
O96 C87 1.247 . S
O97 Co84 2.244 1_455 S
O97 C87 1.272 1_455 S
O97 Co89 2.135 1_455 S
Co98 O99 2.216 1_554 S
Co98 O100 2.091 1_554 S
Co98 O102 2.004 1_655 S
Co98 O108 2.021 . S
Co98 O110 2.137 . S
Co98 O111 2.244 . S
O99 Co98 2.216 1_556 S
O99 C106 1.247 . S
O100 Co98 2.091 1_556 S
O100 C106 1.261 . S
C101 O110 1.247 . S
C101 O111 1.272 . S
O102 Co98 2.004 1_455 S
O102 C107 1.259 . S
Co103 O104 2.061 . S
Co103 O109 2.052 . S
Co103 O111 2.135 . S
O104 Co103 2.061 . S
O104 C107 1.235 1_655 S
C105 O108 1.238 . S
C105 O109 1.241 . S
C106 O99 1.247 . S
C106 O100 1.261 . S
C107 O102 1.259 . S
C107 O104 1.235 1_455 S
O108 Co98 2.021 . S
O108 C105 1.238 . S
O109 Co103 2.052 . S
O109 C105 1.241 . S
O110 Co98 2.137 . S
O110 C101 1.247 . S
O111 Co98 2.244 . S
O111 C101 1.272 . S
O111 Co103 2.135 . S
Co112 O113 2.216 . S
Co112 O114 2.091 1_455 S
Co112 O116 2.004 . S
Co112 O122 2.021 . S
Co112 O124 2.137 . S
Co112 O125 2.244 . S
O113 Co112 2.216 . S
O113 C120 1.247 1_455 S
O114 Co112 2.091 1_655 S
O114 C120 1.261 . S
C115 O124 1.247 . S
C115 O125 1.272 . S
O116 Co112 2.004 . S
O116 C121 1.259 . S
Co117 O118 2.061 . S
Co117 O123 2.052 . S
Co117 O125 2.135 . S
O118 Co117 2.061 . S
O118 C121 1.235 . S
C119 O122 1.238 . S
C119 O123 1.241 . S
C120 O113 1.247 1_655 S
C120 O114 1.261 . S
C121 O116 1.259 . S
C121 O118 1.235 . S
O122 Co112 2.021 . S
O122 C119 1.238 . S
O123 Co117 2.052 . S
O123 C119 1.241 . S
O124 Co112 2.137 . S
O124 C115 1.247 . S
O125 Co112 2.244 . S
O125 C115 1.272 . S
O125 Co117 2.135 . S
Co126 O127 2.216 . S
Co126 O128 2.091 . S
Co126 O130 2.004 . S
Co126 O136 2.021 . S
Co126 O138 2.137 . S
Co126 O139 2.244 1_455 S
O127 Co126 2.216 . S
O127 C134 1.247 . S
O128 Co126 2.091 . S
O128 C134 1.261 . S
C129 O138 1.247 1_655 S
C129 O139 1.272 . S
O130 Co126 2.004 . S
O130 C135 1.259 . S
Co131 O132 2.061 1_655 S
Co131 O137 2.052 1_655 S
Co131 O139 2.135 . S
O132 Co131 2.061 1_455 S
O132 C135 1.235 . S
C133 O136 1.238 . S
C133 O137 1.241 . S
C134 O127 1.247 . S
C134 O128 1.261 . S
C135 O130 1.259 . S
C135 O132 1.235 . S
O136 Co126 2.021 . S
O136 C133 1.238 . S
O137 Co131 2.052 1_455 S
O137 C133 1.241 . S
O138 Co126 2.137 . S
O138 C129 1.247 1_455 S
O139 Co126 2.244 1_655 S
O139 C129 1.272 . S
O139 Co131 2.135 . S
Co140 O141 2.216 . S
Co140 O142 2.091 1_455 S
Co140 O144 2.004 . S
Co140 O150 2.021 . S
Co140 O152 2.137 . S
Co140 O153 2.244 . S
O141 Co140 2.216 . S
O141 C148 1.247 1_455 S
O142 Co140 2.091 1_655 S
O142 C148 1.261 . S
C143 O152 1.247 . S
C143 O153 1.272 . S
O144 Co140 2.004 . S
O144 C149 1.259 . S
Co145 O146 2.061 . S
Co145 O151 2.052 . S
Co145 O153 2.135 . S
O146 Co145 2.061 . S
O146 C149 1.235 . S
C147 O150 1.238 . S
C147 O151 1.241 . S
C148 O141 1.247 1_655 S
C148 O142 1.261 . S
C149 O144 1.259 . S
C149 O146 1.235 . S
O150 Co140 2.021 . S
O150 C147 1.238 . S
O151 Co145 2.052 . S
O151 C147 1.241 . S
O152 Co140 2.137 . S
O152 C143 1.247 . S
O153 Co140 2.244 . S
O153 C143 1.272 . S
O153 Co145 2.135 . S
Co154 O155 2.216 . S
Co154 O156 2.091 . S
Co154 O158 2.004 . S
Co154 O164 2.021 . S
Co154 O166 2.137 . S
Co154 O167 2.244 1_455 S
O155 Co154 2.216 . S
O155 C162 1.247 . S
O156 Co154 2.091 . S
O156 C162 1.261 . S
C157 O166 1.247 1_655 S
C157 O167 1.272 . S
O158 Co154 2.004 . S
O158 C163 1.259 . S
Co159 O160 2.061 1_655 S
Co159 O165 2.052 1_655 S
Co159 O167 2.135 . S
O160 Co159 2.061 1_455 S
O160 C163 1.235 . S
C161 O164 1.238 . S
C161 O165 1.241 . S
C162 O155 1.247 . S
C162 O156 1.261 . S
C163 O158 1.259 . S
C163 O160 1.235 . S
O164 Co154 2.021 . S
O164 C161 1.238 . S
O165 Co159 2.052 1_455 S
O165 C161 1.241 . S
O166 Co154 2.137 . S
O166 C157 1.247 1_455 S
O167 Co154 2.244 1_655 S
O167 C157 1.272 . S
O167 Co159 2.135 . S
Co168 O169 2.216 1_655 S
Co168 O170 2.091 . S
Co168 O172 2.004 . S
Co168 O178 2.021 . S
Co168 O180 2.137 . S
Co168 O181 2.244 1_655 S
O169 Co168 2.216 1_455 S
O169 C176 1.247 1_455 S
O170 Co168 2.091 . S
O170 C176 1.261 . S
C171 O180 1.247 . S
C171 O181 1.272 1_655 S
O172 Co168 2.004 . S
O172 C177 1.259 . S
Co173 O174 2.061 . S
Co173 O179 2.052 1_655 S
Co173 O181 2.135 1_655 S
O174 Co173 2.061 . S
O174 C177 1.235 . S
C175 O178 1.238 1_455 S
C175 O179 1.241 . S
C176 O169 1.247 1_655 S
C176 O170 1.261 . S
C177 O172 1.259 . S
C177 O174 1.235 . S
O178 Co168 2.021 . S
O178 C175 1.238 1_655 S
O179 Co173 2.052 1_455 S
O179 C175 1.241 . S
O180 Co168 2.137 . S
O180 C171 1.247 . S
O181 Co168 2.244 1_455 S
O181 C171 1.272 1_455 S
O181 Co173 2.135 1_455 S
Co182 O183 2.216 . S
Co182 O184 2.091 . S
Co182 O186 2.004 1_655 S
Co182 O192 2.021 . S
Co182 O194 2.137 . S
Co182 O195 2.244 . S
O183 Co182 2.216 . S
O183 C190 1.247 . S
O184 Co182 2.091 . S
O184 C190 1.261 . S
C185 O194 1.247 . S
C185 O195 1.272 . S
O186 Co182 2.004 1_455 S
O186 C191 1.259 . S
Co187 O188 2.061 . S
Co187 O193 2.052 . S
Co187 O195 2.135 . S
O188 Co187 2.061 . S
O188 C191 1.235 1_655 S
C189 O192 1.238 . S
C189 O193 1.241 . S
C190 O183 1.247 . S
C190 O184 1.261 . S
C191 O186 1.259 . S
C191 O188 1.235 1_455 S
O192 Co182 2.021 . S
O192 C189 1.238 . S
O193 Co187 2.052 . S
O193 C189 1.241 . S
O194 Co182 2.137 . S
O194 C185 1.247 . S
O195 Co182 2.244 . S
O195 C185 1.272 . S
O195 Co187 2.135 . S
Co196 O197 2.216 1_655 S
Co196 O198 2.091 . S
Co196 O200 2.004 . S
Co196 O206 2.021 . S
Co196 O208 2.137 . S
Co196 O209 2.244 1_655 S
O197 Co196 2.216 1_455 S
O197 C204 1.247 1_455 S
O198 Co196 2.091 . S
O198 C204 1.261 . S
C199 O208 1.247 . S
C199 O209 1.272 1_655 S
O200 Co196 2.004 . S
O200 C205 1.259 . S
Co201 O202 2.061 . S
Co201 O207 2.052 1_655 S
Co201 O209 2.135 1_655 S
O202 Co201 2.061 . S
O202 C205 1.235 . S
C203 O206 1.238 1_455 S
C203 O207 1.241 . S
C204 O197 1.247 1_655 S
C204 O198 1.261 . S
C205 O200 1.259 . S
C205 O202 1.235 . S
O206 Co196 2.021 . S
O206 C203 1.238 1_655 S
O207 Co201 2.052 1_455 S
O207 C203 1.241 . S
O208 Co196 2.137 . S
O208 C199 1.247 . S
O209 Co196 2.244 1_455 S
O209 C199 1.272 1_455 S
O209 Co201 2.135 1_455 S
Co210 O211 2.216 . S
Co210 O212 2.091 . S
Co210 O214 2.004 1_655 S
Co210 O220 2.021 . S
Co210 O222 2.137 . S
Co210 O223 2.244 . S
O211 Co210 2.216 . S
O211 C218 1.247 . S
O212 Co210 2.091 . S
O212 C218 1.261 . S
C213 O222 1.247 . S
C213 O223 1.272 . S
O214 Co210 2.004 1_455 S
O214 C219 1.259 . S
Co215 O216 2.061 . S
Co215 O221 2.052 . S
Co215 O223 2.135 . S
O216 Co215 2.061 . S
O216 C219 1.235 1_655 S
C217 O220 1.238 . S
C217 O221 1.241 . S
C218 O211 1.247 . S
C218 O212 1.261 . S
C219 O214 1.259 . S
C219 O216 1.235 1_455 S
O220 Co210 2.021 . S
O220 C217 1.238 . S
O221 Co215 2.052 . S
O221 C217 1.241 . S
O222 Co210 2.137 . S
O222 C213 1.247 . S
O223 Co210 2.244 . S
O223 C213 1.272 . S
O223 Co215 2.135 . S
Co224 O225 2.216 . S
Co224 O226 2.091 . S
Co224 O228 2.004 . S
Co224 O234 2.021 . S
Co224 O236 2.137 . S
Co224 O237 2.244 . S
O225 Co224 2.216 . S
O225 C232 1.247 . S
O226 Co224 2.091 . S
O226 C232 1.261 . S
C227 O236 1.247 . S
C227 O237 1.272 . S
O228 Co224 2.004 . S
O228 C233 1.259 . S
Co229 O230 2.061 . S
Co229 O235 2.052 . S
Co229 O237 2.135 . S
O230 Co229 2.061 . S
O230 C233 1.235 . S
C231 O234 1.238 . S
C231 O235 1.241 . S
C232 O225 1.247 . S
C232 O226 1.261 . S
C233 O228 1.259 . S
C233 O230 1.235 . S
O234 Co224 2.021 . S
O234 C231 1.238 . S
O235 Co229 2.052 . S
O235 C231 1.241 . S
O236 Co224 2.137 . S
O236 C227 1.247 . S
O237 Co224 2.244 . S
O237 C227 1.272 . S
O237 Co229 2.135 . S
Co238 O239 2.216 . S
Co238 O240 2.091 . S
Co238 O242 2.004 . S
Co238 O248 2.021 . S
Co238 O250 2.137 . S
Co238 O251 2.244 . S
O239 Co238 2.216 . S
O239 C246 1.247 . S
O240 Co238 2.091 . S
O240 C246 1.261 . S
C241 O250 1.247 . S
C241 O251 1.272 . S
O242 Co238 2.004 . S
O242 C247 1.259 . S
Co243 O244 2.061 . S
Co243 O249 2.052 . S
Co243 O251 2.135 . S
O244 Co243 2.061 . S
O244 C247 1.235 . S
C245 O248 1.238 . S
C245 O249 1.241 . S
C246 O239 1.247 . S
C246 O240 1.261 . S
C247 O242 1.259 . S
C247 O244 1.235 . S
O248 Co238 2.021 . S
O248 C245 1.238 . S
O249 Co243 2.052 . S
O249 C245 1.241 . S
O250 Co238 2.137 . S
O250 C241 1.247 . S
O251 Co238 2.244 . S
O251 C241 1.272 . S
O251 Co243 2.135 . S
Co252 O253 2.216 . S
Co252 O254 2.091 . S
Co252 O256 2.004 . S
Co252 O262 2.021 . S
Co252 O264 2.137 . S
Co252 O265 2.244 . S
O253 Co252 2.216 . S
O253 C260 1.247 . S
O254 Co252 2.091 . S
O254 C260 1.261 . S
C255 O264 1.247 . S
C255 O265 1.272 . S
O256 Co252 2.004 . S
O256 C261 1.259 . S
Co257 O258 2.061 . S
Co257 O263 2.052 . S
Co257 O265 2.135 . S
O258 Co257 2.061 . S
O258 C261 1.235 . S
C259 O262 1.238 . S
C259 O263 1.241 . S
C260 O253 1.247 . S
C260 O254 1.261 . S
C261 O256 1.259 . S
C261 O258 1.235 . S
O262 Co252 2.021 . S
O262 C259 1.238 . S
O263 Co257 2.052 . S
O263 C259 1.241 . S
O264 Co252 2.137 . S
O264 C255 1.247 . S
O265 Co252 2.244 . S
O265 C255 1.272 . S
O265 Co257 2.135 . S
Co266 O267 2.216 . S
Co266 O268 2.091 . S
Co266 O270 2.004 . S
Co266 O276 2.021 . S
Co266 O278 2.137 . S
Co266 O279 2.244 . S
O267 Co266 2.216 . S
O267 C274 1.247 . S
O268 Co266 2.091 . S
O268 C274 1.261 . S
C269 O278 1.247 . S
C269 O279 1.272 . S
O270 Co266 2.004 . S
O270 C275 1.259 . S
Co271 O272 2.061 . S
Co271 O277 2.052 . S
Co271 O279 2.135 . S
O272 Co271 2.061 . S
O272 C275 1.235 . S
C273 O276 1.238 . S
C273 O277 1.241 . S
C274 O267 1.247 . S
C274 O268 1.261 . S
C275 O270 1.259 . S
C275 O272 1.235 . S
O276 Co266 2.021 . S
O276 C273 1.238 . S
O277 Co271 2.052 . S
O277 C273 1.241 . S
O278 Co266 2.137 . S
O278 C269 1.247 . S
O279 Co266 2.244 . S
O279 C269 1.272 . S
O279 Co271 2.135 . S
Co280 O281 2.216 . S
Co280 O282 2.091 . S
Co280 O284 2.004 . S
Co280 O290 2.021 . S
Co280 O292 2.137 . S
Co280 O293 2.244 . S
O281 Co280 2.216 . S
O281 C288 1.247 . S
O282 Co280 2.091 . S
O282 C288 1.261 . S
C283 O292 1.247 . S
C283 O293 1.272 . S
O284 Co280 2.004 . S
O284 C289 1.259 . S
Co285 O286 2.061 . S
Co285 O291 2.052 . S
Co285 O293 2.135 . S
O286 Co285 2.061 . S
O286 C289 1.235 . S
C287 O290 1.238 . S
C287 O291 1.241 . S
C288 O281 1.247 . S
C288 O282 1.261 . S
C289 O284 1.259 . S
C289 O286 1.235 . S
O290 Co280 2.021 . S
O290 C287 1.238 . S
O291 Co285 2.052 . S
O291 C287 1.241 . S
O292 Co280 2.137 . S
O292 C283 1.247 . S
O293 Co280 2.244 . S
O293 C283 1.272 . S
O293 Co285 2.135 . S
Co294 O295 2.216 . S
Co294 O296 2.091 . S
Co294 O298 2.004 . S
Co294 O304 2.021 . S
Co294 O306 2.137 . S
Co294 O307 2.244 . S
O295 Co294 2.216 . S
O295 C302 1.247 . S
O296 Co294 2.091 . S
O296 C302 1.261 . S
C297 O306 1.247 . S
C297 O307 1.272 . S
O298 Co294 2.004 . S
O298 C303 1.259 . S
Co299 O300 2.061 . S
Co299 O305 2.052 . S
Co299 O307 2.135 . S
O300 Co299 2.061 . S
O300 C303 1.235 . S
C301 O304 1.238 . S
C301 O305 1.241 . S
C302 O295 1.247 . S
C302 O296 1.261 . S
C303 O298 1.259 . S
C303 O300 1.235 . S
O304 Co294 2.021 . S
O304 C301 1.238 . S
O305 Co299 2.052 . S
O305 C301 1.241 . S
O306 Co294 2.137 . S
O306 C297 1.247 . S
O307 Co294 2.244 . S
O307 C297 1.272 . S
O307 Co299 2.135 . S
Co308 O309 2.216 . S
Co308 O310 2.091 . S
Co308 O312 2.004 . S
Co308 O318 2.021 . S
Co308 O320 2.137 . S
Co308 O321 2.244 . S
O309 Co308 2.216 . S
O309 C316 1.247 . S
O310 Co308 2.091 . S
O310 C316 1.261 . S
C311 O320 1.247 . S
C311 O321 1.272 . S
O312 Co308 2.004 . S
O312 C317 1.259 . S
Co313 O314 2.061 . S
Co313 O319 2.052 . S
Co313 O321 2.135 . S
O314 Co313 2.061 . S
O314 C317 1.235 . S
C315 O318 1.238 . S
C315 O319 1.241 . S
C316 O309 1.247 . S
C316 O310 1.261 . S
C317 O312 1.259 . S
C317 O314 1.235 . S
O318 Co308 2.021 . S
O318 C315 1.238 . S
O319 Co313 2.052 . S
O319 C315 1.241 . S
O320 Co308 2.137 . S
O320 C311 1.247 . S
O321 Co308 2.244 . S
O321 C311 1.272 . S
O321 Co313 2.135 . S
Co322 O323 2.216 . S
Co322 O324 2.091 . S
Co322 O326 2.004 . S
Co322 O332 2.021 . S
Co322 O334 2.137 . S
Co322 O335 2.244 . S
O323 Co322 2.216 . S
O323 C330 1.247 . S
O324 Co322 2.091 . S
O324 C330 1.261 . S
C325 O334 1.247 . S
C325 O335 1.272 . S
O326 Co322 2.004 . S
O326 C331 1.259 . S
Co327 O328 2.061 . S
Co327 O333 2.052 . S
Co327 O335 2.135 . S
O328 Co327 2.061 . S
O328 C331 1.235 . S
C329 O332 1.238 . S
C329 O333 1.241 . S
C330 O323 1.247 . S
C330 O324 1.261 . S
C331 O326 1.259 . S
C331 O328 1.235 . S
O332 Co322 2.021 . S
O332 C329 1.238 . S
O333 Co327 2.052 . S
O333 C329 1.241 . S
O334 Co322 2.137 . S
O334 C325 1.247 . S
O335 Co322 2.244 . S
O335 C325 1.272 . S
O335 Co327 2.135 . S
Co336 O337 2.216 . S
Co336 O338 2.091 . S
Co336 O340 2.004 . S
Co336 O346 2.021 . S
Co336 O348 2.137 . S
Co336 O349 2.244 . S
O337 Co336 2.216 . S
O337 C344 1.247 . S
O338 Co336 2.091 . S
O338 C344 1.261 . S
C339 O348 1.247 . S
C339 O349 1.272 . S
O340 Co336 2.004 . S
O340 C345 1.259 . S
Co341 O342 2.061 . S
Co341 O347 2.052 . S
Co341 O349 2.135 . S
O342 Co341 2.061 . S
O342 C345 1.235 . S
C343 O346 1.238 . S
C343 O347 1.241 . S
C344 O337 1.247 . S
C344 O338 1.261 . S
C345 O340 1.259 . S
C345 O342 1.235 . S
O346 Co336 2.021 . S
O346 C343 1.238 . S
O347 Co341 2.052 . S
O347 C343 1.241 . S
O348 Co336 2.137 . S
O348 C339 1.247 . S
O349 Co336 2.244 . S
O349 C339 1.272 . S
O349 Co341 2.135 . S
Co350 O351 2.216 . S
Co350 O352 2.091 . S
Co350 O354 2.004 . S
Co350 O360 2.021 . S
Co350 O362 2.137 . S
Co350 O363 2.244 . S
O351 Co350 2.216 . S
O351 C358 1.247 . S
O352 Co350 2.091 . S
O352 C358 1.261 . S
C353 O362 1.247 . S
C353 O363 1.272 . S
O354 Co350 2.004 . S
O354 C359 1.259 . S
Co355 O356 2.061 . S
Co355 O361 2.052 . S
Co355 O363 2.135 . S
O356 Co355 2.061 . S
O356 C359 1.235 . S
C357 O360 1.238 . S
C357 O361 1.241 . S
C358 O351 1.247 . S
C358 O352 1.261 . S
C359 O354 1.259 . S
C359 O356 1.235 . S
O360 Co350 2.021 . S
O360 C357 1.238 . S
O361 Co355 2.052 . S
O361 C357 1.241 . S
O362 Co350 2.137 . S
O362 C353 1.247 . S
O363 Co350 2.244 . S
O363 C353 1.272 . S
O363 Co355 2.135 . S
Co364 O365 2.216 . S
Co364 O366 2.091 . S
Co364 O368 2.004 . S
Co364 O374 2.021 1_556 S
Co364 O376 2.137 . S
Co364 O377 2.244 . S
O365 Co364 2.216 . S
O365 C372 1.247 . S
O366 Co364 2.091 . S
O366 C372 1.261 . S
C367 O376 1.247 . S
C367 O377 1.272 . S
O368 Co364 2.004 . S
O368 C373 1.259 . S
Co369 O370 2.061 . S
Co369 O375 2.052 1_556 S
Co369 O377 2.135 . S
O370 Co369 2.061 . S
O370 C373 1.235 . S
C371 O374 1.238 . S
C371 O375 1.241 . S
C372 O365 1.247 . S
C372 O366 1.261 . S
C373 O368 1.259 . S
C373 O370 1.235 . S
O374 Co364 2.021 1_554 S
O374 C371 1.238 . S
O375 Co369 2.052 1_554 S
O375 C371 1.241 . S
O376 Co364 2.137 . S
O376 C367 1.247 . S
O377 Co364 2.244 . S
O377 C367 1.272 . S
O377 Co369 2.135 . S
Co378 O379 2.216 . S
Co378 O380 2.091 . S
Co378 O382 2.004 . S
Co378 O388 2.021 1_556 S
Co378 O390 2.137 . S
Co378 O391 2.244 . S
O379 Co378 2.216 . S
O379 C386 1.247 . S
O380 Co378 2.091 . S
O380 C386 1.261 . S
C381 O390 1.247 . S
C381 O391 1.272 . S
O382 Co378 2.004 . S
O382 C387 1.259 . S
Co383 O384 2.061 . S
Co383 O389 2.052 1_556 S
Co383 O391 2.135 . S
O384 Co383 2.061 . S
O384 C387 1.235 . S
C385 O388 1.238 . S
C385 O389 1.241 . S
C386 O379 1.247 . S
C386 O380 1.261 . S
C387 O382 1.259 . S
C387 O384 1.235 . S
O388 Co378 2.021 1_554 S
O388 C385 1.238 . S
O389 Co383 2.052 1_554 S
O389 C385 1.241 . S
O390 Co378 2.137 . S
O390 C381 1.247 . S
O391 Co378 2.244 . S
O391 C381 1.272 . S
O391 Co383 2.135 . S
Co392 O393 2.216 . S
Co392 O394 2.091 . S
Co392 O396 2.004 . S
Co392 O402 2.021 . S
Co392 O404 2.137 . S
Co392 O405 2.244 . S
O393 Co392 2.216 . S
O393 C400 1.247 . S
O394 Co392 2.091 . S
O394 C400 1.261 . S
C395 O404 1.247 . S
C395 O405 1.272 . S
O396 Co392 2.004 . S
O396 C401 1.259 . S
Co397 O398 2.061 . S
Co397 O403 2.052 . S
Co397 O405 2.135 . S
O398 Co397 2.061 . S
O398 C401 1.235 . S
C399 O402 1.238 . S
C399 O403 1.241 . S
C400 O393 1.247 . S
C400 O394 1.261 . S
C401 O396 1.259 . S
C401 O398 1.235 . S
O402 Co392 2.021 . S
O402 C399 1.238 . S
O403 Co397 2.052 . S
O403 C399 1.241 . S
O404 Co392 2.137 . S
O404 C395 1.247 . S
O405 Co392 2.244 . S
O405 C395 1.272 . S
O405 Co397 2.135 . S
Co406 O407 2.216 . S
Co406 O408 2.091 . S
Co406 O410 2.004 . S
Co406 O416 2.021 . S
Co406 O418 2.137 . S
Co406 O419 2.244 . S
O407 Co406 2.216 . S
O407 C414 1.247 . S
O408 Co406 2.091 . S
O408 C414 1.261 . S
C409 O418 1.247 . S
C409 O419 1.272 . S
O410 Co406 2.004 . S
O410 C415 1.259 . S
Co411 O412 2.061 . S
Co411 O417 2.052 . S
Co411 O419 2.135 . S
O412 Co411 2.061 . S
O412 C415 1.235 . S
C413 O416 1.238 . S
C413 O417 1.241 . S
C414 O407 1.247 . S
C414 O408 1.261 . S
C415 O410 1.259 . S
C415 O412 1.235 . S
O416 Co406 2.021 . S
O416 C413 1.238 . S
O417 Co411 2.052 . S
O417 C413 1.241 . S
O418 Co406 2.137 . S
O418 C409 1.247 . S
O419 Co406 2.244 . S
O419 C409 1.272 . S
O419 Co411 2.135 . S
Co420 O421 2.216 1_554 S
Co420 O422 2.091 1_554 S
Co420 O424 2.004 . S
Co420 O430 2.021 . S
Co420 O432 2.137 . S
Co420 O433 2.244 . S
O421 Co420 2.216 1_556 S
O421 C428 1.247 . S
O422 Co420 2.091 1_556 S
O422 C428 1.261 . S
C423 O432 1.247 . S
C423 O433 1.272 . S
O424 Co420 2.004 . S
O424 C429 1.259 . S
Co425 O426 2.061 . S
Co425 O431 2.052 . S
Co425 O433 2.135 . S
O426 Co425 2.061 . S
O426 C429 1.235 . S
C427 O430 1.238 . S
C427 O431 1.241 . S
C428 O421 1.247 . S
C428 O422 1.261 . S
C429 O424 1.259 . S
C429 O426 1.235 . S
O430 Co420 2.021 . S
O430 C427 1.238 . S
O431 Co425 2.052 . S
O431 C427 1.241 . S
O432 Co420 2.137 . S
O432 C423 1.247 . S
O433 Co420 2.244 . S
O433 C423 1.272 . S
O433 Co425 2.135 . S
Co434 O435 2.216 1_554 S
Co434 O436 2.091 1_554 S
Co434 O438 2.004 . S
Co434 O444 2.021 . S
Co434 O446 2.137 . S
Co434 O447 2.244 . S
O435 Co434 2.216 1_556 S
O435 C442 1.247 . S
O436 Co434 2.091 1_556 S
O436 C442 1.261 . S
C437 O446 1.247 . S
C437 O447 1.272 . S
O438 Co434 2.004 . S
O438 C443 1.259 . S
Co439 O440 2.061 . S
Co439 O445 2.052 . S
Co439 O447 2.135 . S
O440 Co439 2.061 . S
O440 C443 1.235 . S
C441 O444 1.238 . S
C441 O445 1.241 . S
C442 O435 1.247 . S
C442 O436 1.261 . S
C443 O438 1.259 . S
C443 O440 1.235 . S
O444 Co434 2.021 . S
O444 C441 1.238 . S
O445 Co439 2.052 . S
O445 C441 1.241 . S
O446 Co434 2.137 . S
O446 C437 1.247 . S
O447 Co434 2.244 . S
O447 C437 1.272 . S
O447 Co439 2.135 . S
C149 C9 1.489 . S
C23 C163 1.489 . S
C37 C121 1.489 . S
C135 C51 1.489 . S
C199 C59 1.419 . S
C73 C213 1.419 . S
C171 C87 1.419 . S
C185 C101 1.419 . S
C373 C233 1.489 . S
C387 C247 1.489 . S
C345 C261 1.489 . S
C275 C359 1.489 . S
C423 C283 1.419 . S
C437 C297 1.419 . S
C311 C395 1.419 . S
C325 C409 1.419 . S
C269 C3 1.622 . S
C17 C255 1.622 . S
C241 C31 1.622 . S
C227 C45 1.622 . S
C65 C331 1.756 . S
C79 C317 1.756 . S
C303 C93 1.756 . S
C107 C289 1.756 . S
C381 C115 1.622 . S
C367 C129 1.622 . S
C353 C143 1.622 . S
C339 C157 1.622 . S
C177 C443 1.756 . S
C429 C191 1.756 . S
C205 C415 1.756 . S
C219 C401 1.756 . S
C175 C8 2.259 1_455 S
C22 C301 2.260 1_565 S
C91 C36 2.259 1_444 S
C441 C50 2.260 1_554 S
C63 C120 2.259 1_455 S
C246 C77 2.260 1_565 S
C386 C105 2.260 1_556 S
C413 C134 2.260 . S
C148 C203 2.259 1_655 S
C329 C162 2.260 . S
C358 C189 2.260 . S
C217 C274 2.260 . S
C232 C399 2.259 . S
C315 C260 2.259 1_545 S
C344 C287 2.259 . S
C372 C427 2.259 1_556 S
C7 C49 1.302 . S
C35 C21 1.302 . S
C64 C106 1.341 . S
C78 C92 1.341 . S
C119 C161 1.302 . S
C133 C147 1.302 . S
C176 C218 1.341 . S
C204 C190 1.341 . S
C273 C231 1.302 . S
C259 C245 1.302 . S
C330 C288 1.341 . S
C316 C302 1.341 . S
C385 C343 1.302 . S
C371 C357 1.302 . S
C400 C442 1.341 . S
C428 C414 1.341 . S
