# Generated by pormake.
# Topology uns, (4)-cn, num edge types: 1
# Building blocks:
#     Node 0, Type 0, BuildingBlock: NAWXER_clean_sbu_0, # of connection points: 4
#     Node 1, Type 0, BuildingBlock: NAWXER_clean_sbu_0, # of connection points: 4
#     Node 2, Type 0, BuildingBlock: NAWXER_clean_sbu_0, # of connection points: 4
#     Node 3, Type 0, BuildingBlock: NAWXER_clean_sbu_0, # of connection points: 4
#     Node 4, Type 0, BuildingBlock: NAWXER_clean_sbu_0, # of connection points: 4
#     Node 5, Type 0, BuildingBlock: NAWXER_clean_sbu_0, # of connection points: 4
#     Node 6, Type 0, BuildingBlock: NAWXER_clean_sbu_0, # of connection points: 4
#     Node 7, Type 0, BuildingBlock: NAWXER_clean_sbu_0, # of connection points: 4
#     Node 8, Type 0, BuildingBlock: NAWXER_clean_sbu_0, # of connection points: 4
#     Node 9, Type 0, BuildingBlock: NAWXER_clean_sbu_0, # of connection points: 4
#     Node 10, Type 0, BuildingBlock: NAWXER_clean_sbu_0, # of connection points: 4
#     Node 11, Type 0, BuildingBlock: NAWXER_clean_sbu_0, # of connection points: 4
#     Node 12, Type 0, BuildingBlock: NAWXER_clean_sbu_0, # of connection points: 4
#     Node 13, Type 0, BuildingBlock: NAWXER_clean_sbu_0, # of connection points: 4
#     Node 14, Type 0, BuildingBlock: NAWXER_clean_sbu_0, # of connection points: 4
#     Node 15, Type 0, BuildingBlock: NAWXER_clean_sbu_0, # of connection points: 4
#     Node 16, Type 0, BuildingBlock: NAWXER_clean_sbu_0, # of connection points: 4
#     Node 17, Type 0, BuildingBlock: NAWXER_clean_sbu_0, # of connection points: 4
#     Node 18, Type 0, BuildingBlock: NAWXER_clean_sbu_0, # of connection points: 4
#     Node 19, Type 0, BuildingBlock: NAWXER_clean_sbu_0, # of connection points: 4
#     Node 20, Type 0, BuildingBlock: NAWXER_clean_sbu_0, # of connection points: 4
#     Node 21, Type 0, BuildingBlock: NAWXER_clean_sbu_0, # of connection points: 4
#     Node 22, Type 0, BuildingBlock: NAWXER_clean_sbu_0, # of connection points: 4
#     Node 23, Type 0, BuildingBlock: NAWXER_clean_sbu_0, # of connection points: 4
#     Node 24, Type 0, BuildingBlock: NAWXER_clean_sbu_0, # of connection points: 4
#     Node 25, Type 0, BuildingBlock: NAWXER_clean_sbu_0, # of connection points: 4
#     Node 26, Type 0, BuildingBlock: NAWXER_clean_sbu_0, # of connection points: 4
#     Node 27, Type 0, BuildingBlock: NAWXER_clean_sbu_0, # of connection points: 4
#     Node 28, Type 0, BuildingBlock: NAWXER_clean_sbu_0, # of connection points: 4
#     Node 29, Type 0, BuildingBlock: NAWXER_clean_sbu_0, # of connection points: 4
#     Node 30, Type 0, BuildingBlock: NAWXER_clean_sbu_0, # of connection points: 4
#     Node 31, Type 0, BuildingBlock: NAWXER_clean_sbu_0, # of connection points: 4
#     Node 32, Type 0, BuildingBlock: NAWXER_clean_sbu_0, # of connection points: 4
#     Node 33, Type 0, BuildingBlock: NAWXER_clean_sbu_0, # of connection points: 4
#     Node 34, Type 0, BuildingBlock: NAWXER_clean_sbu_0, # of connection points: 4
#     Node 35, Type 0, BuildingBlock: NAWXER_clean_sbu_0, # of connection points: 4
#     Edge 36, Type (0, 0), BuildingBlock: AJUNOK_clean_linker_0, # of connection points: 2
#     Edge 37, Type (0, 0), BuildingBlock: AJUNOK_clean_linker_0, # of connection points: 2
#     Edge 38, Type (0, 0), BuildingBlock: AJUNOK_clean_linker_0, # of connection points: 2
#     Edge 39, Type (0, 0), BuildingBlock: AJUNOK_clean_linker_0, # of connection points: 2
#     Edge 40, Type (0, 0), BuildingBlock: AJUNOK_clean_linker_0, # of connection points: 2
#     Edge 41, Type (0, 0), BuildingBlock: AJUNOK_clean_linker_0, # of connection points: 2
#     Edge 42, Type (0, 0), BuildingBlock: AJUNOK_clean_linker_0, # of connection points: 2
#     Edge 43, Type (0, 0), BuildingBlock: AJUNOK_clean_linker_0, # of connection points: 2
#     Edge 44, Type (0, 0), BuildingBlock: AJUNOK_clean_linker_0, # of connection points: 2
#     Edge 45, Type (0, 0), BuildingBlock: AJUNOK_clean_linker_0, # of connection points: 2
#     Edge 46, Type (0, 0), BuildingBlock: AJUNOK_clean_linker_0, # of connection points: 2
#     Edge 47, Type (0, 0), BuildingBlock: AJUNOK_clean_linker_0, # of connection points: 2
#     Edge 48, Type (0, 0), BuildingBlock: AJUNOK_clean_linker_0, # of connection points: 2
#     Edge 49, Type (0, 0), BuildingBlock: AJUNOK_clean_linker_0, # of connection points: 2
#     Edge 50, Type (0, 0), BuildingBlock: AJUNOK_clean_linker_0, # of connection points: 2
#     Edge 51, Type (0, 0), BuildingBlock: AJUNOK_clean_linker_0, # of connection points: 2
#     Edge 52, Type (0, 0), BuildingBlock: AJUNOK_clean_linker_0, # of connection points: 2
#     Edge 53, Type (0, 0), BuildingBlock: AJUNOK_clean_linker_0, # of connection points: 2
#     Edge 54, Type (0, 0), BuildingBlock: AJUNOK_clean_linker_0, # of connection points: 2
#     Edge 55, Type (0, 0), BuildingBlock: AJUNOK_clean_linker_0, # of connection points: 2
#     Edge 56, Type (0, 0), BuildingBlock: AJUNOK_clean_linker_0, # of connection points: 2
#     Edge 57, Type (0, 0), BuildingBlock: AJUNOK_clean_linker_0, # of connection points: 2
#     Edge 58, Type (0, 0), BuildingBlock: AJUNOK_clean_linker_0, # of connection points: 2
#     Edge 59, Type (0, 0), BuildingBlock: AJUNOK_clean_linker_0, # of connection points: 2
#     Edge 60, Type (0, 0), BuildingBlock: AJUNOK_clean_linker_0, # of connection points: 2
#     Edge 61, Type (0, 0), BuildingBlock: AJUNOK_clean_linker_0, # of connection points: 2
#     Edge 62, Type (0, 0), BuildingBlock: AJUNOK_clean_linker_0, # of connection points: 2
#     Edge 63, Type (0, 0), BuildingBlock: AJUNOK_clean_linker_0, # of connection points: 2
#     Edge 64, Type (0, 0), BuildingBlock: AJUNOK_clean_linker_0, # of connection points: 2
#     Edge 65, Type (0, 0), BuildingBlock: AJUNOK_clean_linker_0, # of connection points: 2
#     Edge 66, Type (0, 0), BuildingBlock: AJUNOK_clean_linker_0, # of connection points: 2
#     Edge 67, Type (0, 0), BuildingBlock: AJUNOK_clean_linker_0, # of connection points: 2
#     Edge 68, Type (0, 0), BuildingBlock: AJUNOK_clean_linker_0, # of connection points: 2
#     Edge 69, Type (0, 0), BuildingBlock: AJUNOK_clean_linker_0, # of connection points: 2
#     Edge 70, Type (0, 0), BuildingBlock: AJUNOK_clean_linker_0, # of connection points: 2
#     Edge 71, Type (0, 0), BuildingBlock: AJUNOK_clean_linker_0, # of connection points: 2
#     Edge 72, Type (0, 0), BuildingBlock: AJUNOK_clean_linker_0, # of connection points: 2
#     Edge 73, Type (0, 0), BuildingBlock: AJUNOK_clean_linker_0, # of connection points: 2
#     Edge 74, Type (0, 0), BuildingBlock: AJUNOK_clean_linker_0, # of connection points: 2
#     Edge 75, Type (0, 0), BuildingBlock: AJUNOK_clean_linker_0, # of connection points: 2
#     Edge 76, Type (0, 0), BuildingBlock: AJUNOK_clean_linker_0, # of connection points: 2
#     Edge 77, Type (0, 0), BuildingBlock: AJUNOK_clean_linker_0, # of connection points: 2
#     Edge 78, Type (0, 0), BuildingBlock: AJUNOK_clean_linker_0, # of connection points: 2
#     Edge 79, Type (0, 0), BuildingBlock: AJUNOK_clean_linker_0, # of connection points: 2
#     Edge 80, Type (0, 0), BuildingBlock: AJUNOK_clean_linker_0, # of connection points: 2
#     Edge 81, Type (0, 0), BuildingBlock: AJUNOK_clean_linker_0, # of connection points: 2
#     Edge 82, Type (0, 0), BuildingBlock: AJUNOK_clean_linker_0, # of connection points: 2
#     Edge 83, Type (0, 0), BuildingBlock: AJUNOK_clean_linker_0, # of connection points: 2
#     Edge 84, Type (0, 0), BuildingBlock: AJUNOK_clean_linker_0, # of connection points: 2
#     Edge 85, Type (0, 0), BuildingBlock: AJUNOK_clean_linker_0, # of connection points: 2
#     Edge 86, Type (0, 0), BuildingBlock: AJUNOK_clean_linker_0, # of connection points: 2
#     Edge 87, Type (0, 0), BuildingBlock: AJUNOK_clean_linker_0, # of connection points: 2
#     Edge 88, Type (0, 0), BuildingBlock: AJUNOK_clean_linker_0, # of connection points: 2
#     Edge 89, Type (0, 0), BuildingBlock: AJUNOK_clean_linker_0, # of connection points: 2
#     Edge 90, Type (0, 0), BuildingBlock: AJUNOK_clean_linker_0, # of connection points: 2
#     Edge 91, Type (0, 0), BuildingBlock: AJUNOK_clean_linker_0, # of connection points: 2
#     Edge 92, Type (0, 0), BuildingBlock: AJUNOK_clean_linker_0, # of connection points: 2
#     Edge 93, Type (0, 0), BuildingBlock: AJUNOK_clean_linker_0, # of connection points: 2
#     Edge 94, Type (0, 0), BuildingBlock: AJUNOK_clean_linker_0, # of connection points: 2
#     Edge 95, Type (0, 0), BuildingBlock: AJUNOK_clean_linker_0, # of connection points: 2
#     Edge 96, Type (0, 0), BuildingBlock: AJUNOK_clean_linker_0, # of connection points: 2
#     Edge 97, Type (0, 0), BuildingBlock: AJUNOK_clean_linker_0, # of connection points: 2
#     Edge 98, Type (0, 0), BuildingBlock: AJUNOK_clean_linker_0, # of connection points: 2
#     Edge 99, Type (0, 0), BuildingBlock: AJUNOK_clean_linker_0, # of connection points: 2
#     Edge 100, Type (0, 0), BuildingBlock: AJUNOK_clean_linker_0, # of connection points: 2
#     Edge 101, Type (0, 0), BuildingBlock: AJUNOK_clean_linker_0, # of connection points: 2
#     Edge 102, Type (0, 0), BuildingBlock: AJUNOK_clean_linker_0, # of connection points: 2
#     Edge 103, Type (0, 0), BuildingBlock: AJUNOK_clean_linker_0, # of connection points: 2
#     Edge 104, Type (0, 0), BuildingBlock: AJUNOK_clean_linker_0, # of connection points: 2
#     Edge 105, Type (0, 0), BuildingBlock: AJUNOK_clean_linker_0, # of connection points: 2
#     Edge 106, Type (0, 0), BuildingBlock: AJUNOK_clean_linker_0, # of connection points: 2
#     Edge 107, Type (0, 0), BuildingBlock: AJUNOK_clean_linker_0, # of connection points: 2
# Relax obj value: 0.008
# Max RMSD: 0.156
# Mean RMSD: 0.156
data_MOF--net-uns--node1-NAWXER_clean_sbu_0--edge1-AJUNOK_clean_linker_0
_symmetry_space_group_name_H-M    P1
_symmetry_Int_Tables_number       1
_symmetry_cell_setting            triclinic
loop_
_symmetry_equiv_pos_as_xyz
'x, y, z'
_cell_length_a     43.976263
_cell_length_b     43.971492
_cell_length_c     33.514874
_cell_angle_alpha  90.015924
_cell_angle_beta   90.004377
_cell_angle_gamma 120.00059
loop_
_atom_site_label
_atom_site_type_symbol
_atom_site_fract_x
_atom_site_fract_y
_atom_site_fract_z
_atom_type_partial_charge
C0 C 0.30117 0.18787 0.1143 0.0
C1 C 0.21178 0.207 0.05072 0.0
O2 O 0.27268 0.18317 0.12976 0.0
Zn3 Zn 0.25528 0.19603 0.08351 0.0
O4 O 0.30805 0.1978 0.07785 0.0
Zn5 Zn 0.28488 0.21108 0.02935 0.0
O6 O 0.31977 0.25991 0.02036 0.0
O7 O 0.29347 0.25042 0.07883 0.0
O8 O 0.23721 0.21263 0.02751 0.0
O9 O 0.2116 0.19714 0.08642 0.0
O10 O 0.24409 0.15385 0.04315 0.0
O11 O 0.27704 0.17588 0.98956 0.0
C12 C 0.31625 0.27151 0.05379 0.0
C13 C 0.25404 0.14938 0.00875 0.0
C14 C 0.81874 1.00709 0.05884 0.0
C15 C 0.84023 0.11513 0.12481 0.0
O16 O 0.83025 0.01737 0.0939 0.0
Zn17 Zn 0.8315 0.06202 0.09171 0.0
O18 O 0.81278 0.02689 0.03596 0.0
Zn19 Zn 0.81525 0.07675 0.03918 0.0
O20 O 0.8493 0.1043 0.99858 0.0
O21 O 0.87306 0.09368 0.05077 0.0
O22 O 0.82956 0.11295 0.08871 0.0
O23 O 0.84539 0.09112 0.13852 0.0
O24 O 0.77693 0.04632 0.0893 0.0
O25 O 0.76651 0.06348 0.03154 0.0
C26 C 0.87644 0.10819 0.0166 0.0
C27 C 0.75555 0.04859 0.0652 0.0
C28 C 0.91537 0.77038 0.01172 0.0
C29 C 0.97329 0.70923 0.0661 0.0
O30 O 0.91839 0.74592 0.99544 0.0
Zn31 Zn 0.94541 0.74019 0.03734 0.0
O32 O 0.92955 0.78222 0.04591 0.0
Zn33 Zn 0.96045 0.77293 0.08874 0.0
O34 O 1.00549 0.81632 0.08956 0.0
O35 O 0.99507 0.78729 0.03289 0.0
O36 O 0.97576 0.73373 0.08891 0.0
O37 O 0.95846 0.70435 0.03225 0.0
O38 O 0.90919 0.7202 0.08667 0.0
O39 O 0.93088 0.75905 0.13539 0.0
C40 C 0.0151 0.81395 0.0545 0.0
C41 C 0.90685 0.72959 0.12226 0.0
C42 C 0.15305 0.2487 0.4893 0.0
C43 C 0.27467 0.31011 0.44307 0.0
O44 O 0.17974 0.27238 0.50761 0.0
Zn45 Zn 0.2145 0.27888 0.46797 0.0
O46 O 0.15713 0.23744 0.45555 0.0
Zn47 Zn 0.19925 0.24732 0.41558 0.0
O48 O 0.20071 0.20384 0.41504 0.0
O49 O 0.21682 0.23161 0.47269 0.0
O50 O 0.25366 0.28628 0.41888 0.0
O51 O 0.26308 0.31452 0.47606 0.0
O52 O 0.20061 0.30003 0.41768 0.0
O53 O 0.18583 0.26231 0.36803 0.0
C54 C 0.21115 0.20543 0.45074 0.0
C55 C 0.19047 0.2914 0.38146 0.0
C56 C 0.81761 1.00909 0.44831 0.0
C57 C 0.72831 0.90103 0.38359 0.0
O58 O 0.81826 0.99945 0.41271 0.0
Zn59 Zn 0.77434 0.95468 0.41481 0.0
O60 O 0.79177 0.98938 0.47106 0.0
Zn61 Zn 0.74401 0.94054 0.46861 0.0
O62 O 0.75094 0.9128 0.50874 0.0
O63 O 0.78429 0.9231 0.45558 0.0
O64 O 0.72124 0.9043 0.4199 0.0
O65 O 0.75721 0.92437 0.36842 0.0
O66 O 0.73608 0.97085 0.41811 0.0
O67 O 0.70923 0.9549 0.47641 0.0
C68 C 0.77376 0.90873 0.48991 0.0
C69 C 0.71291 0.96926 0.44244 0.0
C70 C 1.01343 0.81241 0.4482 0.0
C71 C 0.12248 0.83377 0.38356 0.0
O72 O 0.02305 0.82313 0.41271 0.0
Zn73 Zn 0.06811 0.82451 0.4146 0.0
O74 O 0.03329 0.80629 0.4707 0.0
Zn75 Zn 0.08243 0.80796 0.46801 0.0
O76 O 0.1097 0.8422 0.50878 0.0
O77 O 0.0991 0.8656 0.45617 0.0
O78 O 0.1191 0.82282 0.41961 0.0
O79 O 0.09878 0.83882 0.36846 0.0
O80 O 0.0525 0.77019 0.41683 0.0
O81 O 0.06866 0.75887 0.47474 0.0
C82 C 0.11343 0.8692 0.49049 0.0
C83 C 0.05432 0.74844 0.44069 0.0
C84 C 0.77637 0.86866 0.99452 0.0
C85 C 0.71577 0.74919 0.94122 0.0
O86 O 0.78694 0.86642 0.95952 0.0
Zn87 Zn 0.77704 0.82629 0.91644 0.0
O88 O 0.75349 0.84094 0.01201 0.0
Zn89 Zn 0.74678 0.80808 0.96991 0.0
O90 O 0.79457 0.80684 0.97078 0.0
O91 O 0.82091 0.82556 0.91264 0.0
O92 O 0.71202 0.7588 0.97581 0.0
O93 O 0.73894 0.77162 0.9175 0.0
O94 O 0.75989 0.84091 0.87139 0.0
O95 O 0.72384 0.82317 0.92288 0.0
C96 C 0.82022 0.81364 0.94738 0.0
C97 C 0.73099 0.83483 0.88705 0.0
C98 C 0.21066 0.00971 0.94797 0.0
C99 C 0.19161 0.90115 0.88482 0.0
O100 O 0.21669 0.99017 0.97115 0.0
Zn101 Zn 0.21534 0.94108 0.96948 0.0
O102 O 0.20031 0.99969 0.91247 0.0
Zn103 Zn 0.19959 0.9551 0.91549 0.0
O104 O 0.15777 0.92387 0.95624 0.0
O105 O 0.18067 0.91382 0.0097 0.0
O106 O 0.18655 0.9247 0.86936 0.0
O107 O 0.20186 0.90445 0.92117 0.0
O108 O 0.26424 0.95527 0.97798 0.0
O109 O 0.25419 0.97172 0.91958 0.0
C110 C 0.15384 0.90974 0.99074 0.0
C111 C 0.27556 0.9703 0.94445 0.0
C112 C 0.11476 0.24896 0.98871 0.0
C113 C 0.05464 0.31064 0.94272 0.0
O114 O 0.09929 0.23773 0.955 0.0
Zn115 Zn 0.06716 0.24783 0.91499 0.0
O116 O 0.11204 0.27284 0.00695 0.0
Zn117 Zn 0.08369 0.27934 0.96739 0.0
O118 O 0.0342 0.23193 0.9723 0.0
O119 O 0.02226 0.20434 0.91451 0.0
O120 O 0.07077 0.31498 0.97559 0.0
O121 O 0.05171 0.28683 0.91843 0.0
O122 O 0.09557 0.26272 0.86738 0.0
O123 O 0.11869 0.30036 0.91706 0.0
C124 C 1.01363 0.20576 0.95035 0.0
C125 C 0.12015 0.29171 0.88083 0.0
C126 C 0.87531 0.77027 0.51328 0.0
C127 C 0.75463 0.70854 0.5631 0.0
O128 O 0.87171 0.78176 0.54711 0.0
Zn129 Zn 0.83043 0.77206 0.58822 0.0
O130 O 0.84836 0.74622 0.4957 0.0
Zn131 Zn 0.81413 0.73982 0.53623 0.0
O132 O 0.81129 0.78681 0.53169 0.0
O133 O 0.82856 0.81531 0.58881 0.0
O134 O 0.76526 0.70393 0.52954 0.0
O135 O 0.77614 0.73281 0.5865 0.0
O136 O 0.84485 0.75764 0.63545 0.0
O137 O 0.82903 0.71929 0.58632 0.0
C138 C 0.81722 0.81318 0.55345 0.0
C139 C 0.83982 0.72833 0.62229 0.0
C140 C 0.29511 0.1148 0.62383 0.0
C141 C 0.20906 1.00763 0.55535 0.0
O142 O 0.30371 0.11286 0.58772 0.0
Zn143 Zn 0.28258 0.07742 0.53773 0.0
O144 O 0.2659 0.09066 0.63738 0.0
Zn145 Zn 0.25085 0.06178 0.59011 0.0
O146 O 0.28985 0.04642 0.58771 0.0
O147 O 0.31814 0.06411 0.53039 0.0
O148 O 0.20735 0.01679 0.59086 0.0
O149 O 0.23532 0.02794 0.5334 0.0
O150 O 0.27626 0.10548 0.49759 0.0
O151 O 0.24133 0.09385 0.5495 0.0
C152 C 0.31381 0.04896 0.56395 0.0
C153 C 0.2527 0.10888 0.51563 0.0
C154 C 0.90678 0.18373 0.6209 0.0
C155 C 0.01424 0.20575 0.55271 0.0
O156 O 0.90852 0.19413 0.58478 0.0
Zn157 Zn 0.944 0.2087 0.53489 0.0
O158 O 0.93127 0.17924 0.63449 0.0
Zn159 Zn 0.96011 0.19327 0.58725 0.0
O160 O 0.97549 0.24772 0.58436 0.0
O161 O 0.95675 0.25726 0.52724 0.0
O162 O 1.00513 0.19502 0.58827 0.0
O163 O 0.9938 0.21141 0.53061 0.0
O164 O 0.9163 0.17419 0.49468 0.0
O165 O 0.92866 0.15141 0.5465 0.0
C166 C 0.9727 0.2688 0.56026 0.0
C167 C 0.91357 0.14746 0.5126 0.0
C168 C 0.96191 0.51735 0.45372 0.0
C169 C 0.87519 0.53927 0.38909 0.0
O170 O 0.93313 0.51282 0.46796 0.0
Zn171 Zn 0.91751 0.52654 0.42141 0.0
O172 O 0.96997 0.52759 0.41744 0.0
Zn173 Zn 0.94774 0.54179 0.36828 0.0
O174 O 0.98351 0.5903 0.35996 0.0
O175 O 0.95658 0.58095 0.41798 0.0
O176 O 0.90056 0.54477 0.36577 0.0
O177 O 0.87439 0.52815 0.42425 0.0
O178 O 0.90644 0.48447 0.38089 0.0
O179 O 0.94017 0.50705 0.328 0.0
C180 C 0.97995 0.60193 0.39335 0.0
C181 C 0.91686 0.48035 0.34662 0.0
C182 C 0.48508 0.3434 0.38631 0.0
C183 C 0.50646 0.45234 0.45114 0.0
O184 O 0.49636 0.35329 0.42158 0.0
Zn185 Zn 0.4975 0.39824 0.41969 0.0
O186 O 0.4785 0.36304 0.36399 0.0
Zn187 Zn 0.48002 0.41211 0.36687 0.0
O188 O 0.51329 0.43902 0.3254 0.0
O189 O 0.53803 0.4291 0.37726 0.0
O190 O 0.49511 0.44889 0.41525 0.0
O191 O 0.51212 0.42891 0.46582 0.0
O192 O 0.44295 0.38221 0.4184 0.0
O193 O 0.43092 0.3981 0.36074 0.0
C194 C 0.5407 0.44282 0.34271 0.0
C195 C 0.42088 0.38383 0.39485 0.0
C196 C 0.5819 0.10614 0.3481 0.0
C197 C 0.64092 0.04387 0.39552 0.0
O198 O 0.58613 0.08336 0.32943 0.0
Zn199 Zn 0.6129 0.07583 0.37006 0.0
O200 O 0.59574 0.11635 0.38275 0.0
Zn201 Zn 0.6266 0.10545 0.42391 0.0
O202 O 0.67135 0.14894 0.42739 0.0
O203 O 0.66256 0.12313 0.36874 0.0
O204 O 0.64267 0.06687 0.42032 0.0
O205 O 0.62619 0.04052 0.36186 0.0
O206 O 0.576 0.05283 0.41821 0.0
O207 O 0.59612 0.08845 0.46999 0.0
C208 C 0.68205 0.14842 0.39231 0.0
C209 C 0.57262 0.05981 0.45453 0.0
C210 C 0.82147 0.58287 0.82852 0.0
C211 C 0.94159 0.64433 0.77747 0.0
O212 O 0.84871 0.60635 0.84623 0.0
Zn213 Zn 0.88232 0.61326 0.80492 0.0
O214 O 0.82444 0.57226 0.79384 0.0
Zn215 Zn 0.86516 0.58246 0.75161 0.0
O216 O 0.8663 0.53869 0.74902 0.0
O217 O 0.88377 0.56564 0.80704 0.0
O218 O 0.91963 0.62092 0.75359 0.0
O219 O 0.93144 0.64824 0.81167 0.0
O220 O 0.86754 0.63553 0.75683 0.0
O221 O 0.85083 0.59903 0.70578 0.0
C222 C 0.87732 0.53967 0.78433 0.0
C223 C 0.85639 0.62798 0.72082 0.0
C224 C 0.38112 0.30341 0.77434 0.0
C225 C 0.44244 0.24529 0.82789 0.0
O226 O 0.37751 0.29012 0.80895 0.0
Zn227 Zn 0.41232 0.27567 0.80299 0.0
O228 O 0.40423 0.30414 0.75054 0.0
Zn229 Zn 0.4424 0.28762 0.7495 0.0
O230 O 0.42543 0.25575 0.70467 0.0
O231 O 0.38928 0.23735 0.75605 0.0
O232 O 0.45277 0.25797 0.79281 0.0
O233 O 0.41935 0.24982 0.84535 0.0
O234 O 0.46017 0.32488 0.80352 0.0
O235 O 0.48621 0.33206 0.74525 0.0
C236 C 0.39653 0.23286 0.72023 0.0
C237 C 0.48573 0.34355 0.77991 0.0
C238 C 0.77943 0.20393 0.82321 0.0
C239 C 0.7192 0.08202 0.77774 0.0
O240 O 0.77501 0.17708 0.8424 0.0
Zn241 Zn 0.74796 0.14241 0.80218 0.0
O242 O 0.76557 0.19997 0.78854 0.0
Zn243 Zn 0.73442 0.15781 0.74792 0.0
O244 O 0.68997 0.15715 0.74401 0.0
O245 O 0.69867 0.14097 0.8032 0.0
O246 O 0.7178 0.10311 0.75242 0.0
O247 O 0.73399 0.09372 0.8113 0.0
O248 O 0.78502 0.15564 0.75416 0.0
O249 O 0.76489 0.17063 0.70199 0.0
C250 C 0.67935 0.14674 0.77931 0.0
C251 C 0.78843 0.16569 0.71771 0.0
C252 C 0.44243 0.20515 0.3213 0.0
C253 C 0.38074 0.08447 0.2712 0.0
O254 O 0.45403 0.20151 0.28756 0.0
Zn255 Zn 0.44444 0.16022 0.24644 0.0
O256 O 0.41827 0.17824 0.33881 0.0
Zn257 Zn 0.41209 0.14404 0.29833 0.0
O258 O 0.45925 0.14164 0.30345 0.0
O259 O 0.48778 0.15849 0.24633 0.0
O260 O 0.37617 0.09515 0.30474 0.0
O261 O 0.40511 0.10595 0.2479 0.0
O262 O 0.43027 0.17485 0.19912 0.0
O263 O 0.39191 0.15921 0.2482 0.0
C264 C 0.48573 0.14762 0.2819 0.0
C265 C 0.40105 0.17005 0.21228 0.0
C266 C 0.8761 0.34171 0.28457 0.0
C267 C 0.8567 0.23277 0.22194 0.0
O268 O 0.88282 0.32256 0.30756 0.0
Zn269 Zn 0.88201 0.27375 0.30584 0.0
O270 O 0.86533 0.33143 0.24924 0.0
Zn271 Zn 0.86497 0.28697 0.25237 0.0
O272 O 0.82408 0.25637 0.29466 0.0
O273 O 0.84862 0.24714 0.34721 0.0
O274 O 0.85104 0.25597 0.20663 0.0
O275 O 0.86772 0.23657 0.25801 0.0
O276 O 0.931 0.28823 0.31316 0.0
O277 O 0.91984 0.30398 0.25495 0.0
C278 C 0.82128 0.24308 0.3295 0.0
C279 C 0.9417 0.3029 0.27936 0.0
C280 C 0.77914 0.58237 0.32672 0.0
C281 C 0.71934 0.64338 0.2782 0.0
O282 O 0.76603 0.57219 0.29175 0.0
Zn283 Zn 0.73531 0.58285 0.25 0.0
O284 O 0.77458 0.60514 0.34488 0.0
Zn285 Zn 0.74814 0.61233 0.30376 0.0
O286 O 0.69882 0.56452 0.30458 0.0
O287 O 0.6909 0.53902 0.24584 0.0
O288 O 0.7339 0.6469 0.312 0.0
O289 O 0.71832 0.62075 0.25332 0.0
O290 O 0.76612 0.60028 0.20436 0.0
O291 O 0.78557 0.63603 0.25606 0.0
C292 C 0.6798 0.53922 0.28079 0.0
C293 C 0.7893 0.62907 0.21983 0.0
C294 C 0.50803 0.06112 0.95053 0.0
C295 C 0.48578 0.14967 0.8907 0.0
O296 O 0.49629 0.05382 0.91473 0.0
Zn297 Zn 0.48081 0.07654 0.86776 0.0
O298 O 0.51388 0.08996 0.96615 0.0
Zn299 Zn 0.49888 0.10671 0.92117 0.0
O300 O 0.44419 0.06823 0.92018 0.0
O301 O 0.43172 0.04149 0.86177 0.0
O302 O 0.49788 0.15038 0.92534 0.0
O303 O 0.47909 0.12413 0.86714 0.0
O304 O 0.51354 0.08343 0.82546 0.0
O305 O 0.53904 0.11697 0.87788 0.0
C306 C 0.42193 0.04501 0.89634 0.0
C307 C 0.54126 0.10645 0.84283 0.0
C308 C 0.96159 0.44947 0.95631 0.0
C309 C 0.87621 0.3423 0.88741 0.0
O310 O 0.97048 0.44773 0.92027 0.0
Zn311 Zn 0.94975 0.41228 0.87018 0.0
O312 O 0.93243 0.42509 0.96964 0.0
Zn313 Zn 0.91786 0.3963 0.92238 0.0
O314 O 0.95707 0.38122 0.92027 0.0
O315 O 0.98551 0.39919 0.86309 0.0
O316 O 0.87449 0.35133 0.92298 0.0
O317 O 0.9025 0.36268 0.86553 0.0
O318 O 0.94333 0.44029 0.82993 0.0
O319 O 0.90806 0.42802 0.8816 0.0
C320 C 0.98118 0.38397 0.89661 0.0
C321 C 0.9194 0.44319 0.8478 0.0
C322 C 0.57158 0.51881 0.94826 0.0
C323 C 0.68164 0.53872 0.88884 0.0
O324 O 0.57571 0.52967 0.91209 0.0
Zn325 Zn 0.61355 0.54357 0.86488 0.0
O326 O 0.59451 0.51298 0.96403 0.0
Zn327 Zn 0.62581 0.52655 0.91883 0.0
O328 O 0.6429 0.58144 0.91588 0.0
O329 O 0.62797 0.59252 0.85711 0.0
O330 O 0.67017 0.52714 0.92361 0.0
O331 O 0.66287 0.54512 0.86482 0.0
O332 O 0.5875 0.51005 0.82333 0.0
O333 O 0.59562 0.4855 0.87657 0.0
C334 C 0.64218 0.60327 0.89114 0.0
C335 C 0.58283 0.48266 0.84144 0.0
C336 C 0.58484 0.81378 0.68406 0.0
C337 C 0.64586 0.93486 0.73262 0.0
O338 O 0.60803 0.84085 0.66585 0.0
Zn339 Zn 0.61458 0.87514 0.70629 0.0
O340 O 0.57382 0.81733 0.71821 0.0
Zn341 Zn 0.58364 0.85881 0.75908 0.0
O342 O 0.54015 0.85992 0.76115 0.0
O343 O 0.56708 0.87726 0.70314 0.0
O344 O 0.62225 0.91332 0.75661 0.0
O345 O 0.6499 0.92409 0.69887 0.0
O346 O 0.63663 0.86105 0.75566 0.0
O347 O 0.59928 0.84514 0.80581 0.0
C348 C 0.54131 0.87125 0.726 0.0
C349 C 0.62843 0.85045 0.79181 0.0
C350 C 0.08756 0.7166 0.72838 0.0
C351 C 0.20783 0.77567 0.67845 0.0
O352 O 0.09865 0.73228 0.69517 0.0
Zn353 Zn 0.14717 0.74507 0.70209 0.0
O354 O 0.10894 0.71397 0.75216 0.0
Zn355 Zn 0.16356 0.72952 0.75398 0.0
O356 O 0.17806 0.75854 0.80105 0.0
O357 O 0.1623 0.78089 0.75172 0.0
O358 O 0.20488 0.76119 0.71257 0.0
O359 O 0.18063 0.77245 0.66126 0.0
O360 O 0.14466 0.6954 0.69766 0.0
O361 O 0.16209 0.68458 0.75489 0.0
C362 C 0.17322 0.78285 0.78765 0.0
C363 C 0.15083 0.67521 0.71954 0.0
C364 C 0.30772 0.37616 0.72517 0.0
C365 C 0.24883 0.43861 0.67732 0.0
O366 O 0.29314 0.37273 0.69138 0.0
Zn367 Zn 0.27937 0.40783 0.69946 0.0
O368 O 0.30907 0.39898 0.74996 0.0
Zn369 Zn 0.29286 0.43732 0.75347 0.0
O370 O 0.26196 0.42016 0.79913 0.0
O371 O 0.24202 0.3846 0.7473 0.0
O372 O 0.26259 0.44858 0.71202 0.0
O373 O 0.25279 0.41566 0.65864 0.0
O374 O 0.329 0.45533 0.69854 0.0
O375 O 0.33755 0.48078 0.7574 0.0
C376 C 0.23845 0.39159 0.78356 0.0
C377 C 0.34836 0.4805 0.72231 0.0
C378 C 0.48602 0.91465 0.15312 0.0
C379 C 0.60806 0.97578 0.10853 0.0
O380 O 0.51283 0.93758 0.17191 0.0
Zn381 Zn 0.54756 0.94451 0.13218 0.0
O382 O 0.49002 0.90399 0.11892 0.0
Zn383 Zn 0.53249 0.91441 0.07904 0.0
O384 O 0.53336 0.87086 0.0764 0.0
O385 O 0.5496 0.89687 0.13504 0.0
O386 O 0.58722 0.95277 0.08346 0.0
O387 O 0.59606 0.97955 0.14154 0.0
O388 O 0.53452 0.96729 0.08257 0.0
O389 O 0.51985 0.93048 0.03201 0.0
C390 C 0.54401 0.87145 0.11176 0.0
C391 C 0.52467 0.95941 0.04614 0.0
C392 C 0.15048 0.67626 0.1174 0.0
C393 C 0.06161 0.56728 0.05411 0.0
O394 O 0.15076 0.66645 0.08178 0.0
Zn395 Zn 0.10726 0.62148 0.08483 0.0
O396 O 0.12512 0.65641 0.14066 0.0
Zn397 Zn 0.07769 0.60698 0.13899 0.0
O398 O 0.08578 0.57989 0.17894 0.0
O399 O 0.11868 0.5907 0.12532 0.0
O400 O 0.05469 0.57037 0.09055 0.0
O401 O 0.09004 0.59112 0.03863 0.0
O402 O 0.06874 0.63732 0.08933 0.0
O403 O 0.04256 0.62063 0.14788 0.0
C404 C 0.10881 0.5764 0.15978 0.0
C405 C 0.04592 0.63557 0.11436 0.0
C406 C 0.38773 0.41794 0.10129 0.0
C407 C 0.44553 0.53717 0.15467 0.0
O408 O 0.40214 0.42807 0.13532 0.0
Zn409 Zn 0.41508 0.47681 0.12949 0.0
O410 O 0.38549 0.43984 0.078 0.0
Zn411 Zn 0.40087 0.49443 0.07762 0.0
O412 O 0.4306 0.5096 0.03118 0.0
O413 O 0.45175 0.49249 0.0805 0.0
O414 O 0.43178 0.53493 0.12023 0.0
O415 O 0.44178 0.50957 0.17135 0.0
O416 O 0.36513 0.4739 0.13281 0.0
O417 O 0.35591 0.49275 0.07564 0.0
C418 C 0.45437 0.50398 0.04474 0.0
C419 C 0.3454 0.48029 0.11034 0.0
C420 C 0.06315 0.49993 0.54945 0.0
C421 C 0.1521 0.48013 0.61324 0.0
O422 O 0.05609 0.4893 0.58565 0.0
Zn423 Zn 0.0786 0.47514 0.63392 0.0
O424 O 0.09182 0.50514 0.53395 0.0
Zn425 Zn 0.10883 0.49144 0.58005 0.0
O426 O 0.07029 0.43704 0.58296 0.0
O427 O 0.04356 0.42606 0.64132 0.0
O428 O 0.1527 0.49048 0.57768 0.0
O429 O 0.12629 0.47395 0.63606 0.0
O430 O 0.08567 0.50962 0.67437 0.0
O431 O 0.11899 0.53283 0.62123 0.0
C432 C 0.04705 0.41543 0.60722 0.0
C433 C 0.10853 0.53657 0.65565 0.0
C434 C 0.54437 0.67592 0.61921 0.0
C435 C 0.52319 0.56892 0.55057 0.0
O436 O 0.5505 0.65574 0.64118 0.0
Zn437 Zn 0.54842 0.60619 0.63655 0.0
O438 O 0.53354 0.66671 0.5837 0.0
Zn439 Zn 0.53227 0.6219 0.58471 0.0
O440 O 0.49076 0.59026 0.62603 0.0
O441 O 0.51479 0.57859 0.67722 0.0
O442 O 0.51813 0.59317 0.53748 0.0
O443 O 0.53389 0.57062 0.58657 0.0
O444 O 0.59701 0.61936 0.64399 0.0
O445 O 0.58698 0.63778 0.58693 0.0
C446 C 0.48768 0.57568 0.66013 0.0
C447 C 0.60829 0.63522 0.61091 0.0
C448 C 0.44659 0.91491 0.66104 0.0
C449 C 0.38769 0.97627 0.61094 0.0
O450 O 0.43288 0.90386 0.62647 0.0
Zn451 Zn 0.40201 0.91421 0.58452 0.0
O452 O 0.44293 0.93862 0.6782 0.0
Zn453 Zn 0.41623 0.94512 0.63683 0.0
O454 O 0.36631 0.89763 0.63951 0.0
O455 O 0.35756 0.87079 0.58153 0.0
O456 O 0.40297 0.98042 0.64435 0.0
O457 O 0.38571 0.95283 0.58665 0.0
O458 O 0.43148 0.92938 0.53813 0.0
O459 O 0.45292 0.96716 0.58786 0.0
C460 C 0.34686 0.8719 0.61639 0.0
C461 C 0.45535 0.9586 0.55187 0.0
C462 C 0.17341 0.39184 0.28369 0.0
C463 C 0.15233 0.48033 0.22103 0.0
O464 O 0.16167 0.38415 0.24792 0.0
Zn465 Zn 0.14639 0.40637 0.20027 0.0
O466 O 0.17946 0.42095 0.29873 0.0
Zn467 Zn 0.16463 0.43743 0.25326 0.0
O468 O 0.10995 0.39929 0.25244 0.0
O469 O 0.0971 0.3716 0.19457 0.0
O470 O 0.16401 0.48146 0.25602 0.0
O471 O 0.14526 0.45416 0.19838 0.0
O472 O 0.1792 0.41274 0.1582 0.0
O473 O 0.20465 0.44697 0.2102 0.0
C474 C 0.0875 0.37582 0.22896 0.0
C475 C 0.20687 0.43606 0.17539 0.0
C476 C 0.62721 0.78363 0.28611 0.0
C477 C 0.5412 0.67501 0.22041 0.0
O478 O 0.63621 0.78088 0.25044 0.0
Zn479 Zn 0.61497 0.74411 0.20146 0.0
O480 O 0.59776 0.75992 0.29956 0.0
Zn481 Zn 0.58307 0.73009 0.25329 0.0
O482 O 0.62175 0.71412 0.25293 0.0
O483 O 0.65027 0.73045 0.19567 0.0
O484 O 0.5395 0.68548 0.25522 0.0
O485 O 0.56741 0.69452 0.19795 0.0
O486 O 0.60931 0.77112 0.15968 0.0
O487 O 0.57389 0.76117 0.21072 0.0
C488 C 0.64572 0.71597 0.22968 0.0
C489 C 0.58553 0.775 0.17637 0.0
C490 C 0.24114 0.85335 0.28615 0.0
C491 C 0.3479 0.87409 0.21717 0.0
O492 O 0.2426 0.8634 0.2499 0.0
Zn493 Zn 0.27779 0.8774 0.19969 0.0
O494 O 0.26576 0.84904 0.29968 0.0
Zn495 Zn 0.29423 0.86253 0.25223 0.0
O496 O 0.30963 0.91691 0.24868 0.0
O497 O 0.29076 0.92603 0.19141 0.0
O498 O 0.3391 0.86397 0.25296 0.0
O499 O 0.32739 0.87965 0.19507 0.0
O500 O 0.24956 0.84234 0.16013 0.0
O501 O 0.26228 0.82025 0.21232 0.0
C502 C 0.3068 0.93781 0.22434 0.0
C503 C 0.24686 0.81583 0.17857 0.0
C504 C 0.32097 0.17512 0.17918 0.0
C505 C 0.32698 0.18315 0.13831 0.0
C506 C 0.34523 0.17135 0.2027 0.0
C507 C 0.37664 0.17545 0.18645 0.0
H508 H 0.29735 0.17181 0.19332 0.0
H509 H 0.33914 0.16511 0.23398 0.0
S510 S 0.40494 0.19608 0.08077 0.0
N511 N 0.3668 0.19478 0.08239 0.0
N512 N 0.41225 0.18771 0.12665 0.0
C513 C 0.38304 0.18345 0.1456 0.0
C514 C 0.35828 0.18726 0.12156 0.0
C515 C 0.83917 0.17114 0.13426 0.0
C516 C 0.84506 0.1449 0.15033 0.0
C517 C 0.84261 0.19915 0.15763 0.0
C518 C 0.85209 0.20218 0.19813 0.0
H519 H 0.83177 0.17015 0.10325 0.0
H520 H 0.83795 0.21866 0.14365 0.0
S521 S 0.87007 0.14021 0.25504 0.0
N522 N 0.86062 0.12368 0.20956 0.0
N523 N 0.86705 0.17611 0.25349 0.0
C524 C 0.85795 0.17603 0.21469 0.0
C525 C 0.85448 0.14752 0.19083 0.0
C526 C 0.82259 0.64859 0.15544 0.0
C527 C 0.81976 0.65513 0.19596 0.0
C528 C 0.85053 0.67301 0.13197 0.0
C529 C 0.87695 0.70511 0.14791 0.0
H530 H 0.80301 0.62441 0.14153 0.0
H531 H 0.85136 0.66646 0.10098 0.0
S532 S 0.8821 0.73513 0.25255 0.0
N533 N 0.84609 0.69629 0.25117 0.0
N534 N 0.89849 0.74205 0.20701 0.0
C535 C 0.87449 0.71209 0.18839 0.0
C536 C 0.84599 0.68717 0.21239 0.0
C537 C 0.19161 0.34843 0.37146 0.0
C538 C 0.18557 0.31615 0.35567 0.0
C539 C 0.18805 0.37283 0.34795 0.0
C540 C 0.17827 0.36605 0.30757 0.0
H541 H 0.19923 0.3551 0.40238 0.0
H542 H 0.19282 0.39711 0.36175 0.0
S543 S 0.15967 0.28556 0.25138 0.0
N544 N 0.16947 0.27884 0.29684 0.0
N545 N 0.1628 0.32453 0.25261 0.0
C546 C 0.17223 0.33388 0.29127 0.0
C547 C 0.17585 0.30901 0.31528 0.0
C548 C 0.68503 0.83871 0.29623 0.0
C549 C 0.65199 0.81359 0.31152 0.0
C550 C 0.70955 0.86668 0.31968 0.0
C551 C 0.70215 0.87078 0.3595 0.0
H552 H 0.69224 0.83676 0.26583 0.0
H553 H 0.73451 0.88521 0.30639 0.0
S554 S 0.61924 0.81246 0.41395 0.0
N555 N 0.61312 0.79491 0.36908 0.0
N556 N 0.65897 0.84726 0.41317 0.0
C557 C 0.66912 0.8459 0.37519 0.0
C558 C 0.64414 0.81743 0.35124 0.0
C559 C 0.15591 0.84833 0.3191 0.0
C560 C 0.15332 0.83919 0.35966 0.0
C561 C 0.18422 0.85258 0.29571 0.0
C562 C 0.21122 0.84789 0.31183 0.0
H563 H 0.13583 0.85207 0.30509 0.0
H564 H 0.18482 0.85963 0.26464 0.0
S565 S 0.2173 0.82426 0.41674 0.0
N566 N 0.18064 0.82588 0.41515 0.0
N567 N 0.23361 0.83383 0.37117 0.0
C568 C 0.20905 0.83884 0.3524 0.0
C569 C 0.18023 0.83453 0.37628 0.0
C570 C 0.68544 0.85128 0.80016 0.0
C571 C 0.65374 0.84592 0.81696 0.0
C572 C 0.71039 0.84812 0.82307 0.0
C573 C 0.70476 0.83946 0.86381 0.0
H574 H 0.6912 0.858 0.76892 0.0
H575 H 0.73416 0.85227 0.80853 0.0
S576 S 0.62634 0.82338 0.92266 0.0
N577 N 0.61833 0.83192 0.87717 0.0
N578 N 0.66506 0.82602 0.92026 0.0
C579 C 0.67322 0.83419 0.88113 0.0
C580 C 0.64778 0.83738 0.85773 0.0
C581 C 0.17748 0.86771 0.82045 0.0
C582 C 0.18683 0.87053 0.86096 0.0
C583 C 0.17353 0.83951 0.79711 0.0
C584 C 0.17875 0.81285 0.81321 0.0
H585 H 0.17323 0.88748 0.80646 0.0
H586 H 0.16621 0.83868 0.7661 0.0
S587 S 0.20338 0.8076 0.91791 0.0
N588 N 0.20113 0.84392 0.91635 0.0
N589 N 0.1937 0.79109 0.87243 0.0
C590 C 0.18814 0.8153 0.8537 0.0
C591 C 0.19214 0.84403 0.87755 0.0
C592 C 0.17644 0.34837 0.87105 0.0
C593 C 0.14998 0.31627 0.85512 0.0
C594 C 0.20463 0.37258 0.84768 0.0
C595 C 0.20768 0.36582 0.8073 0.0
H596 H 0.17548 0.35505 0.90195 0.0
H597 H 0.22424 0.39675 0.86158 0.0
S598 S 0.14537 0.28572 0.75082 0.0
N599 N 0.12866 0.27911 0.79618 0.0
N600 N 0.1815 0.32447 0.75223 0.0
C601 C 0.18137 0.33382 0.79087 0.0
C602 C 0.15262 0.30912 0.81475 0.0
C603 C 0.83991 0.6719 0.63225 0.0
C604 C 0.84478 0.7037 0.64824 0.0
C605 C 0.84328 0.64748 0.65594 0.0
C606 C 0.85168 0.65374 0.69671 0.0
H607 H 0.83337 0.66564 0.60104 0.0
H608 H 0.83947 0.6236 0.64199 0.0
S609 S 0.86654 0.7327 0.75362 0.0
N610 N 0.85809 0.7399 0.70773 0.0
N611 N 0.86441 0.69417 0.75228 0.0
C612 C 0.85651 0.68541 0.71321 0.0
C613 C 0.8531 0.71031 0.68902 0.0
C614 C 0.37674 0.19888 0.65628 0.0
C615 C 0.3705 0.20202 0.6968 0.0
C616 C 0.3521 0.17081 0.6331 0.0
C617 C 0.32007 0.14456 0.64936 0.0
H618 H 0.40079 0.21839 0.6421 0.0
H619 H 0.35838 0.1698 0.60205 0.0
S620 S 0.29095 0.14006 0.75426 0.0
N621 N 0.32982 0.17602 0.75246 0.0
N622 N 0.28363 0.12339 0.70883 0.0
C623 C 0.31347 0.14724 0.68991 0.0
C624 C 0.33862 0.17586 0.7136 0.0
C625 C 0.85008 0.18334 0.63016 0.0
C626 C 0.87681 0.17833 0.64643 0.0
C627 C 0.82187 0.17947 0.65341 0.0
C628 C 0.81909 0.17039 0.69401 0.0
H629 H 0.85084 0.19044 0.59908 0.0
H630 H 0.80205 0.18355 0.63927 0.0
S631 S 0.8822 0.15445 0.75142 0.0
N632 N 0.89869 0.16386 0.70592 0.0
N633 N 0.84581 0.15657 0.74966 0.0
C634 C 0.84566 0.16529 0.71077 0.0
C635 C 0.87441 0.16922 0.68701 0.0
C636 C 0.01854 0.51728 0.46218 0.0
C637 C 0.98689 0.51223 0.47882 0.0
C638 C 0.04314 0.5136 0.4852 0.0
C639 C 0.03718 0.50471 0.52587 0.0
H640 H 0.02453 0.52422 0.43102 0.0
H641 H 0.06694 0.51762 0.47084 0.0
S642 S 0.95857 0.48891 0.58416 0.0
N643 N 0.95107 0.49801 0.53872 0.0
N644 N 0.99711 0.49116 0.58198 0.0
C645 C 1.00563 0.49964 0.54297 0.0
C646 C 0.98057 0.50335 0.51948 0.0
C647 C 0.52009 0.4849 0.51618 0.0
C648 C 0.51127 0.48273 0.47553 0.0
C649 C 0.52352 0.51262 0.5401 0.0
C650 C 0.51828 0.53942 0.52446 0.0
H651 H 0.52418 0.46491 0.52984 0.0
H652 H 0.53038 0.51294 0.57119 0.0
S653 S 0.49528 0.54649 0.41955 0.0
N654 N 0.49772 0.51026 0.42049 0.0
N655 N 0.50412 0.56213 0.46544 0.0
C656 C 0.50954 0.53767 0.48381 0.0
C657 C 0.50608 0.50945 0.45939 0.0
C658 C 0.53894 0.04052 0.51879 0.0
C659 C 0.54219 0.03378 0.47845 0.0
C660 C 0.51103 0.01595 0.54223 0.0
C661 C 0.48514 0.98352 0.5264 0.0
H662 H 0.55815 0.06496 0.53255 0.0
H663 H 0.50979 0.0226 0.57309 0.0
S664 S 0.48133 0.95284 0.42227 0.0
N665 N 0.51684 0.99206 0.42356 0.0
N666 N 0.46461 0.94605 0.46762 0.0
C667 C 0.48804 0.97638 0.48608 0.0
C668 C 0.51644 1.00143 0.46215 0.0
C669 C 0.52213 0.04116 0.01445 0.0
C670 C 0.51302 0.03516 0.97383 0.0
C671 C 0.5256 0.01645 0.03745 0.0
C672 C 0.52012 0.98463 0.02087 0.0
H673 H 0.52638 0.06504 0.02883 0.0
H674 H 0.53262 0.02247 0.0686 0.0
S675 S 0.49641 0.95627 0.91555 0.0
N676 N 0.49904 0.995 0.91772 0.0
N677 N 0.5055 0.9487 0.96098 0.0
C678 C 0.51117 0.97832 0.9802 0.0
C679 C 0.50767 1.00352 0.95671 0.0
C680 C 0.01753 0.50655 0.96577 0.0
C681 C 0.98615 0.47926 0.98207 0.0
C682 C 0.04182 0.53462 0.98926 0.0
C683 C 0.03586 0.53667 0.03014 0.0
H684 H 0.02355 0.50637 0.93447 0.0
H685 H 0.0654 0.55494 0.97508 0.0
S686 S 0.95803 0.47166 0.08782 0.0
N687 N 0.95064 0.45593 0.04195 0.0
N688 N 0.99615 0.5085 0.08613 0.0
C689 C 1.0046 0.50947 0.04695 0.0
C690 C 0.97982 0.48088 0.02295 0.0
C691 C 0.53831 0.50612 0.01256 0.0
C692 C 0.54109 0.51472 0.9718 0.0
C693 C 0.5105 0.50321 0.03579 0.0
C694 C 0.48417 0.50877 0.01934 0.0
H695 H 0.55788 0.50173 0.02685 0.0
H696 H 0.50969 0.49643 0.06699 0.0
S697 S 0.47879 0.53147 0.91383 0.0
N698 N 0.51472 0.52851 0.91577 0.0
N699 N 0.46256 0.52304 0.95947 0.0
C700 C 0.48654 0.51737 0.97859 0.0
C701 C 0.5149 0.52031 0.95485 0.0
C702 C 0.23125 0.0736 0.93705 0.0
C703 C 0.21772 0.04439 0.9627 0.0
C704 C 0.24254 0.10751 0.95197 0.0
C705 C 0.24007 0.11325 0.99291 0.0
H706 H 0.23448 0.07048 0.90554 0.0
H707 H 0.25366 0.1294 0.93134 0.0
S708 S 0.20406 0.04478 0.07191 0.0
N709 N 0.20084 0.02304 0.03052 0.0
N710 N 0.22146 0.08628 0.05848 0.0
C711 C 0.22525 0.08391 0.01852 0.0
C712 C 0.21424 0.04963 0.00343 0.0
C713 C 0.94969 0.16137 0.94225 0.0
C714 C 0.97954 0.17844 0.96684 0.0
C715 C 0.91643 0.13832 0.95841 0.0
C716 C 0.91199 0.13095 0.99959 0.0
H717 H 0.95179 0.16683 0.91054 0.0
H718 H 0.89402 0.12644 0.93853 0.0
S719 S 0.98247 0.16728 0.07627 0.0
N720 N 1.00284 0.18531 0.03406 0.0
N721 N 0.94078 0.14175 0.0643 0.0
C722 C 0.94195 0.14695 0.0242 0.0
C723 C 0.97559 0.17075 0.00787 0.0
C724 C 0.87897 0.79908 0.01768 0.0
C725 C 0.89372 0.78382 0.99319 0.0
C726 C 0.85617 0.80964 0.00216 0.0
C727 C 0.84773 0.80614 0.96134 0.0
H728 H 0.88406 0.80182 0.04949 0.0
H729 H 0.8446 0.82019 0.02251 0.0
S730 S 0.88101 0.76997 0.88379 0.0
N731 N 0.89934 0.76703 0.92556 0.0
N732 N 0.85694 0.78773 0.89624 0.0
C733 C 0.86334 0.79228 0.93608 0.0
C734 C 0.88615 0.78084 0.95206 0.0
C735 C 0.0782 0.22604 0.56214 0.0
C736 C 0.0488 0.21346 0.53685 0.0
C737 C 0.11188 0.23716 0.54669 0.0
C738 C 0.11719 0.23537 0.50551 0.0
H739 H 0.07539 0.2285 0.59391 0.0
H740 H 0.13391 0.24743 0.56711 0.0
S741 S 0.04833 0.2025 0.427 0.0
N742 N 0.02695 0.19864 0.46888 0.0
N743 N 0.08983 0.21887 0.43995 0.0
C744 C 0.08774 0.22172 0.48014 0.0
C745 C 0.05368 0.21095 0.49577 0.0
C746 C 0.79764 0.85747 0.56285 0.0
C747 C 0.80918 0.83979 0.53743 0.0
C748 C 0.78636 0.87993 0.54741 0.0
C749 C 0.78695 0.88606 0.5061 0.0
H750 H 0.79617 0.85302 0.59476 0.0
H751 H 0.777 0.89245 0.56796 0.0
S752 S 0.81658 0.84739 0.42712 0.0
N753 N 0.82159 0.83082 0.46912 0.0
N754 N 0.80102 0.87319 0.44022 0.0
C755 C 0.79946 0.8693 0.48056 0.0
C756 C 0.8104 0.84614 0.49618 0.0
C757 C 0.16523 0.94357 0.56426 0.0
C758 C 0.18212 0.97316 0.53927 0.0
C759 C 0.14274 0.90998 0.54845 0.0
C760 C 0.13582 0.90495 0.50721 0.0
H761 H 0.1704 0.94615 0.59605 0.0
H762 H 0.13092 0.88778 0.56864 0.0
S763 S 0.17205 0.9745 0.42945 0.0
N764 N 0.18935 0.99554 0.47157 0.0
N765 N 0.14694 0.93289 0.44195 0.0
C766 C 0.15169 0.93463 0.48216 0.0
C767 C 0.17488 0.96859 0.49816 0.0
C768 C 0.80222 0.93344 0.98771 0.0
C769 C 0.78924 0.90379 0.01267 0.0
C770 C 0.81238 0.96677 0.00315 0.0
C771 C 0.81071 0.97203 0.04429 0.0
H772 H 0.80358 0.93081 0.95572 0.0
H773 H 0.82135 0.98858 0.98255 0.0
S774 S 0.7804 0.90352 0.12281 0.0
N775 N 0.77626 0.88206 0.08085 0.0
N776 N 0.79615 0.945 0.11 0.0
C777 C 0.79891 0.94289 0.06984 0.0
C778 C 0.78791 0.90871 0.05399 0.0
C779 C 0.1126 0.88079 0.04832 0.0
C780 C 0.11797 0.88724 0.00702 0.0
C781 C 0.07894 0.85823 0.06385 0.0
C782 C 0.04963 0.84076 0.03853 0.0
H783 H 0.13457 0.89307 0.06878 0.0
H784 H 0.07608 0.85348 0.09571 0.0
S785 S 0.04926 0.84943 0.92841 0.0
N786 N 0.09068 0.87506 0.94133 0.0
N787 N 0.02789 0.83246 0.97043 0.0
C788 C 0.05455 0.84749 0.99734 0.0
C789 C 0.08858 0.87078 0.98161 0.0
C790 C 0.14592 0.23891 0.04573 0.0
C791 C 0.13714 0.23538 0.0049 0.0
C792 C 0.16872 0.22799 0.06097 0.0
C793 C 0.18407 0.21382 0.03574 0.0
H794 H 0.13541 0.25054 0.06602 0.0
H795 H 0.17547 0.23199 0.09236 0.0
S796 S 0.16855 0.19742 0.92702 0.0
N797 N 0.14461 0.21513 0.93994 0.0
N798 N 0.18765 0.19526 0.96845 0.0
C799 C 0.17483 0.20934 0.99514 0.0
C800 C 0.15131 0.21993 0.97975 0.0
C801 C 0.91564 0.7803 0.45523 0.0
C802 C 0.91099 0.78374 0.49627 0.0
C803 C 0.94916 0.79131 0.43925 0.0
C804 C 0.97905 0.80545 0.4639 0.0
H805 H 0.8932 0.76871 0.43537 0.0
H806 H 0.95147 0.78741 0.40772 0.0
S807 S 0.9815 0.82148 0.57288 0.0
N808 N 0.93967 0.80379 0.5608 0.0
N809 N 1.00215 0.82379 0.5309 0.0
C810 C 0.97487 0.80979 0.50471 0.0
C811 C 0.94099 0.79913 0.52085 0.0
C812 C 0.23098 0.1613 0.44198 0.0
C813 C 0.21849 0.17841 0.46695 0.0
C814 C 0.24175 0.13857 0.45779 0.0
C815 C 0.23969 0.13157 0.49901 0.0
H816 H 0.23364 0.16646 0.4102 0.0
H817 H 0.25196 0.12658 0.43761 0.0
S818 S 0.20692 0.16832 0.57676 0.0
N819 N 0.20347 0.18582 0.53467 0.0
N820 N 0.22303 0.14287 0.56425 0.0
C821 C 0.22612 0.14766 0.52406 0.0
C822 C 0.21572 0.17114 0.50807 0.0
C823 C 0.86072 0.07326 0.439 0.0
C824 C 0.84524 0.04346 0.46378 0.0
C825 C 0.88324 0.10685 0.45481 0.0
C826 C 0.89159 0.11167 0.49578 0.0
H827 H 0.85426 0.07084 0.40754 0.0
H828 H 0.89384 0.12922 0.43487 0.0
S829 S 0.8597 0.0414 0.57259 0.0
N830 N 0.84109 0.02058 0.53076 0.0
N831 N 0.88361 0.08322 0.56035 0.0
C832 C 0.87731 0.08175 0.52046 0.0
C833 C 0.85409 0.04779 0.5045 0.0
C834 C 0.90648 0.43916 0.28942 0.0
C835 C 0.90331 0.44441 0.33036 0.0
C836 C 0.89589 0.40549 0.27418 0.0
C837 C 0.88244 0.37608 0.29949 0.0
H838 H 0.91765 0.46125 0.26908 0.0
H839 H 0.89965 0.40274 0.24272 0.0
S840 S 0.86704 0.37515 0.40845 0.0
N841 N 0.88404 0.41672 0.39549 0.0
N842 N 0.86479 0.35396 0.36693 0.0
C843 C 0.87823 0.38081 0.34018 0.0
C844 C 0.88848 0.41483 0.35558 0.0
C845 C 0.60555 0.48047 0.35018 0.0
C846 C 0.57602 0.46489 0.32495 0.0
C847 C 0.63907 0.50361 0.33528 0.0
C848 C 0.64466 0.51163 0.29438 0.0
H849 H 0.60268 0.47572 0.38205 0.0
H850 H 0.66076 0.51572 0.35614 0.0
S851 S 0.57665 0.47615 0.21515 0.0
N852 N 0.55479 0.45803 0.25666 0.0
N853 N 0.61814 0.50109 0.22849 0.0
C854 C 0.61568 0.49523 0.26847 0.0
C855 C 0.58129 0.47205 0.2838 0.0
C856 C 0.55298 0.11762 0.28987 0.0
C857 C 0.55949 0.11939 0.33121 0.0
C858 C 0.53027 0.12827 0.27375 0.0
C859 C 0.51269 0.14037 0.29849 0.0
H860 H 0.56529 0.10765 0.26983 0.0
H861 H 0.52548 0.12581 0.24188 0.0
S862 S 0.52155 0.15137 0.40845 0.0
N863 N 0.54733 0.13555 0.3963 0.0
N864 N 0.50442 0.15492 0.36611 0.0
C865 C 0.51952 0.14295 0.33972 0.0
C866 C 0.54298 0.13265 0.35604 0.0
C867 C 0.72293 0.5442 0.83495 0.0
C868 C 0.71696 0.54652 0.87574 0.0
C869 C 0.75664 0.55498 0.82042 0.0
C870 C 0.78598 0.56923 0.84595 0.0
H871 H 0.70139 0.53441 0.81385 0.0
H872 H 0.75978 0.55317 0.7886 0.0
S873 S 0.78433 0.57973 0.95568 0.0
N874 N 0.7429 0.56273 0.94189 0.0
N875 N 0.80662 0.58376 0.91444 0.0
C876 C 0.78034 0.571 0.88703 0.0
C877 C 0.74574 0.55938 0.90197 0.0
C878 C 0.47029 0.20819 0.82108 0.0
C879 C 0.45584 0.22346 0.84605 0.0
C880 C 0.48083 0.18526 0.83619 0.0
C881 C 0.47807 0.17712 0.87705 0.0
H882 H 0.47247 0.21302 0.78922 0.0
H883 H 0.49081 0.17339 0.8155 0.0
S884 S 0.44402 0.21157 0.95573 0.0
N885 N 0.44053 0.22977 0.91413 0.0
N886 N 0.46114 0.18706 0.94267 0.0
C887 C 0.46497 0.19317 0.90275 0.0
C888 C 0.45359 0.21616 0.88721 0.0
C889 C 0.83157 0.27855 0.89645 0.0
C890 C 0.84915 0.30791 0.87126 0.0
C891 C 0.80872 0.24501 0.88083 0.0
C892 C 0.80207 0.23977 0.83955 0.0
H893 H 0.83646 0.28125 0.92829 0.0
H894 H 0.7964 0.223 0.90122 0.0
S895 S 0.83997 0.3087 0.76123 0.0
N896 N 0.85728 0.32989 0.80327 0.0
N897 N 0.81412 0.26728 0.77401 0.0
C898 C 0.8186 0.26923 0.81426 0.0
C899 C 0.84219 0.30317 0.83008 0.0
C900 C 0.45267 0.24557 0.37934 0.0
C901 C 0.45601 0.24086 0.3383 0.0
C902 C 0.46384 0.27913 0.39532 0.0
C903 C 0.47804 0.30899 0.37065 0.0
H904 H 0.44104 0.22314 0.39921 0.0
H905 H 0.46001 0.2815 0.42686 0.0
S906 S 0.49387 0.31131 0.26166 0.0
N907 N 0.47604 0.26946 0.27374 0.0
N908 N 0.49633 0.33203 0.30365 0.0
C909 C 0.48228 0.30475 0.32984 0.0
C910 C 0.47146 0.27084 0.3137 0.0
C911 C 0.72285 0.18285 0.33731 0.0
C912 C 0.71727 0.17555 0.37836 0.0
C913 C 0.7564 0.20555 0.32218 0.0
C914 C 0.78595 0.2214 0.34735 0.0
H915 H 0.70113 0.17053 0.31651 0.0
H916 H 0.75927 0.20977 0.29022 0.0
S917 S 0.78537 0.21206 0.45746 0.0
N918 N 0.74385 0.18708 0.44429 0.0
N919 N 0.80723 0.22935 0.41571 0.0
C920 C 0.7807 0.21497 0.38863 0.0
C921 C 0.74629 0.19223 0.40418 0.0
C922 C 0.84116 0.54617 0.33383 0.0
C923 C 0.84814 0.54742 0.37493 0.0
C924 C 0.81797 0.55647 0.31883 0.0
C925 C 0.80132 0.56916 0.34424 0.0
H926 H 0.85401 0.53745 0.31291 0.0
H927 H 0.81394 0.55548 0.28686 0.0
S928 S 0.80982 0.57667 0.45448 0.0
N929 N 0.83562 0.56116 0.44107 0.0
N930 N 0.79249 0.58126 0.41278 0.0
C931 C 0.80755 0.56999 0.38553 0.0
C932 C 0.83077 0.55888 0.4009 0.0
C933 C 0.60617 0.13325 0.84943 0.0
C934 C 0.57638 0.11932 0.8246 0.0
C935 C 0.63942 0.14293 0.83416 0.0
C936 C 0.64448 0.13978 0.79328 0.0
H937 H 0.60371 0.13563 0.88129 0.0
H938 H 0.66131 0.15254 0.85475 0.0
S939 S 0.57567 0.10697 0.71496 0.0
N940 N 0.55438 0.10419 0.75664 0.0
N941 N 0.61721 0.12315 0.72781 0.0
C942 C 0.61527 0.12723 0.76774 0.0
C943 C 0.58114 0.11675 0.78344 0.0
C944 C 0.9092 0.47378 0.7902 0.0
C945 C 0.90591 0.4655 0.83118 0.0
C946 C 0.8982 0.49643 0.7746 0.0
C947 C 0.88421 0.5121 0.7996 0.0
H948 H 0.92068 0.46299 0.7701 0.0
H949 H 0.90199 0.5028 0.74311 0.0
S950 S 0.86854 0.49801 0.90856 0.0
N951 N 0.88613 0.47386 0.89602 0.0
N952 N 0.86613 0.51658 0.86682 0.0
C953 C 0.87999 0.50337 0.84034 0.0
C954 C 0.89065 0.48004 0.8561 0.0
C955 C 0.54455 0.41789 0.84924 0.0
C956 C 0.56069 0.44725 0.82383 0.0
C957 C 0.52118 0.38439 0.83443 0.0
C958 C 0.51347 0.37864 0.79347 0.0
H959 H 0.54903 0.4209 0.88115 0.0
H960 H 0.50866 0.36284 0.85541 0.0
S961 S 0.55037 0.44612 0.71381 0.0
N962 N 0.56837 0.46811 0.75531 0.0
N963 N 0.52487 0.40479 0.72736 0.0
C964 C 0.53042 0.40742 0.76741 0.0
C965 C 0.55385 0.4418 0.78261 0.0
C966 C 0.56445 0.73991 0.61042 0.0
C967 C 0.55138 0.7102 0.63526 0.0
C968 C 0.5749 0.77334 0.62625 0.0
C969 C 0.57194 0.7781 0.66735 0.0
H970 H 0.56784 0.73754 0.57877 0.0
H971 H 0.58564 0.79563 0.60619 0.0
S972 S 0.53702 0.70805 0.74455 0.0
N973 N 0.53462 0.68735 0.70257 0.0
N974 N 0.55354 0.74971 0.73224 0.0
C975 C 0.55768 0.74827 0.6922 0.0
C976 C 0.54762 0.71447 0.67619 0.0
C977 C 0.27257 0.81403 0.68631 0.0
C978 C 0.24317 0.79788 0.66094 0.0
C979 C 0.30607 0.83729 0.6714 0.0
C980 C 0.3117 0.84477 0.63039 0.0
H981 H 0.26957 0.80957 0.71822 0.0
H982 H 0.32771 0.8498 0.69228 0.0
S983 S 0.24393 0.80788 0.55093 0.0
N984 N 0.22206 0.79009 0.59253 0.0
N985 N 0.28532 0.83329 0.56435 0.0
C986 C 0.28281 0.82789 0.60442 0.0
C987 C 0.24847 0.80465 0.61974 0.0
C988 C 0.21856 0.44902 0.61951 0.0
C989 C 0.22672 0.45231 0.66053 0.0
C990 C 0.19579 0.45979 0.60378 0.0
C991 C 0.17988 0.4736 0.62866 0.0
H992 H 0.22945 0.43759 0.59948 0.0
H993 H 0.18948 0.4559 0.57227 0.0
S994 S 0.19383 0.48959 0.7376 0.0
N995 N 0.21816 0.47217 0.72525 0.0
N996 N 0.17524 0.49179 0.69577 0.0
C997 C 0.18859 0.47797 0.66941 0.0
C998 C 0.21204 0.46751 0.68532 0.0
C999 C 0.41162 0.89317 0.22621 0.0
C1000 C 0.38221 0.88115 0.20104 0.0
C1001 C 0.4451 0.90359 0.21061 0.0
C1002 C 0.45022 0.90167 0.1694 0.0
H1003 H 0.40902 0.89573 0.25799 0.0
H1004 H 0.46715 0.91348 0.23097 0.0
S1005 S 0.38116 0.86992 0.09119 0.0
N1006 N 0.36007 0.86659 0.13315 0.0
N1007 N 0.42259 0.88552 0.10396 0.0
C1008 C 0.42072 0.88851 0.14415 0.0
C1009 C 0.38684 0.87845 0.15994 0.0
C1010 C 0.13212 0.52399 0.2318 0.0
C1011 C 0.14523 0.50789 0.20617 0.0
C1012 C 0.12079 0.54654 0.21677 0.0
C1013 C 0.12284 0.55431 0.17572 0.0
H1014 H 0.12924 0.518 0.2634 0.0
H1015 H 0.10999 0.55764 0.2374 0.0
S1016 S 0.15766 0.52063 0.0967 0.0
N1017 N 0.16124 0.50252 0.13823 0.0
N1018 N 0.1406 0.54506 0.11007 0.0
C1019 C 0.13726 0.53938 0.15012 0.0
C1020 C 0.14826 0.51614 0.16532 0.0
C1021 C 0.50696 0.63531 0.16444 0.0
C1022 C 0.51413 0.64012 0.20556 0.0
C1023 C 0.48385 0.60212 0.14863 0.0
C1024 C 0.46756 0.57218 0.17318 0.0
H1025 H 0.5196 0.65739 0.14415 0.0
H1026 H 0.47965 0.59979 0.11666 0.0
S1027 S 0.47689 0.57074 0.28315 0.0
N1028 N 0.50228 0.61241 0.27084 0.0
N1029 N 0.4594 0.54969 0.24101 0.0
C1030 C 0.47405 0.57666 0.21451 0.0
C1031 C 0.49712 0.61071 0.23074 0.0
C1032 C 0.13118 0.61133 0.72885 0.0
C1033 C 0.14327 0.6407 0.70359 0.0
C1034 C 0.12023 0.57769 0.71329 0.0
C1035 C 0.1217 0.5724 0.67204 0.0
H1036 H 0.12899 0.61411 0.76067 0.0
H1037 H 0.11035 0.55567 0.73369 0.0
S1038 S 0.15333 0.6413 0.59361 0.0
N1039 N 0.15735 0.66258 0.63561 0.0
N1040 N 0.13741 0.59985 0.60646 0.0
C1041 C 0.13487 0.60186 0.64671 0.0
C1042 C 0.14547 0.63586 0.66246 0.0
C1043 C 0.38913 0.51595 0.66772 0.0
C1044 C 0.38359 0.5078 0.7086 0.0
C1045 C 0.42271 0.53882 0.65273 0.0
C1046 C 0.4523 0.55392 0.67786 0.0
H1047 H 0.36735 0.50416 0.64695 0.0
H1048 H 0.42557 0.54372 0.62089 0.0
S1049 S 0.45185 0.54217 0.78759 0.0
N1050 N 0.41027 0.51774 0.77436 0.0
N1051 N 0.47368 0.56024 0.74604 0.0
C1052 C 0.44709 0.54663 0.719 0.0
C1053 C 0.41267 0.52376 0.73441 0.0
C1054 C 0.50697 0.87692 0.67026 0.0
C1055 C 0.51431 0.87925 0.71135 0.0
C1056 C 0.48414 0.88743 0.65462 0.0
C1057 C 0.46829 0.90144 0.67931 0.0
H1058 H 0.51932 0.86724 0.64986 0.0
H1059 H 0.47982 0.88559 0.62267 0.0
S1060 S 0.47806 0.91217 0.78927 0.0
N1061 N 0.50299 0.89542 0.77675 0.0
N1062 N 0.46059 0.91596 0.74725 0.0
C1063 C 0.47486 0.90334 0.72062 0.0
C1064 C 0.49768 0.89198 0.73667 0.0
C1065 C 0.27167 0.46219 0.18194 0.0
C1066 C 0.24196 0.44924 0.15708 0.0
C1067 C 0.30503 0.47288 0.1663 0.0
C1068 C 0.31027 0.47179 0.12507 0.0
H1069 H 0.26905 0.46315 0.21399 0.0
H1070 H 0.3269 0.48179 0.18683 0.0
S1071 S 0.24159 0.44189 0.04675 0.0
N1072 N 0.22012 0.43696 0.0889 0.0
N1073 N 0.28316 0.45786 0.05938 0.0
C1074 C 0.28107 0.46003 0.09962 0.0
C1075 C 0.24684 0.44848 0.11566 0.0
C1076 C 0.54857 0.83622 0.16716 0.0
C1077 C 0.55163 0.84415 0.12622 0.0
C1078 C 0.55856 0.81296 0.18269 0.0
C1079 C 0.57275 0.79724 0.15804 0.0
H1080 H 0.5387 0.8484 0.18755 0.0
H1081 H 0.55615 0.80819 0.21455 0.0
S1082 S 0.58537 0.80857 0.04842 0.0
N1083 N 0.56871 0.8336 0.06095 0.0
N1084 N 0.58829 0.79038 0.09029 0.0
C1085 C 0.57541 0.80444 0.11686 0.0
C1086 C 0.56459 0.82771 0.10091 0.0
C1087 C 0.21592 0.7742 0.12176 0.0
C1088 C 0.22455 0.77977 0.16261 0.0
C1089 C 0.19329 0.74033 0.10674 0.0
C1090 C 0.17797 0.71098 0.13221 0.0
H1091 H 0.22643 0.79619 0.10128 0.0
H1092 H 0.18667 0.73733 0.07531 0.0
S1093 S 0.19308 0.71097 0.24115 0.0
N1094 N 0.21692 0.75254 0.2279 0.0
N1095 N 0.17422 0.68937 0.19979 0.0
C1096 C 0.18705 0.71607 0.17286 0.0
C1097 C 0.21038 0.75032 0.18803 0.0
C1098 C 0.34198 0.31872 0.10527 0.0
C1099 C 0.33761 0.30906 0.06466 0.0
C1100 C 0.35944 0.35402 0.11696 0.0
C1101 C 0.37267 0.38101 0.08847 0.0
H1102 H 0.3314 0.29881 0.12835 0.0
H1103 H 0.36146 0.36014 0.1485 0.0
S1104 S 0.37053 0.36997 0.97843 0.0
N1105 N 0.34991 0.32946 0.996 0.0
N1106 N 0.38235 0.39592 0.01789 0.0
C1107 C 0.36954 0.37182 0.04778 0.0
C1108 C 0.35217 0.33581 0.03589 0.0
C1109 C 0.65632 1.00129 0.05817 0.0
C1110 C 0.6458 0.99714 0.09847 0.0
C1111 C 0.69189 0.0192 0.04748 0.0
C1112 C 0.71827 0.03305 0.07674 0.0
H1113 H 0.63691 0.9903 0.03459 0.0
H1114 H 0.69874 0.02111 0.01617 0.0
S1115 S 0.70483 0.03133 0.18631 0.0
N1116 N 0.66473 0.01008 0.16761 0.0
N1117 N 0.73161 0.04328 0.14762 0.0
C1118 C 0.70817 0.02998 0.11709 0.0
C1119 C 0.67193 0.01219 0.12794 0.0
C1120 C 1.00143 0.67334 0.05087 0.0
C1121 C 0.98864 0.68767 0.07921 0.0
C1122 C 0.01919 0.65583 0.06273 0.0
C1123 C 0.02428 0.65143 0.10338 0.0
H1124 H 0.99884 0.67674 0.01928 0.0
H1125 H 0.02941 0.64605 0.03975 0.0
S1126 S 0.99291 0.68129 0.1894 0.0
N1127 N 0.98028 0.69446 0.1498 0.0
N1128 N 1.01325 0.66106 0.17199 0.0
C1129 C 1.0102 0.66422 0.13206 0.0
C1130 C 0.99254 0.68252 0.11999 0.0
C1131 C 0.32154 0.33548 0.39116 0.0
C1132 C 0.31206 0.33183 0.4318 0.0
C1133 C 0.3568 0.35362 0.37927 0.0
C1134 C 0.3839 0.36823 0.40761 0.0
H1135 H 0.30155 0.32387 0.36825 0.0
H1136 H 0.36284 0.35508 0.34774 0.0
S1137 S 0.37322 0.36818 0.51757 0.0
N1138 N 0.33268 0.34615 0.50024 0.0
N1139 N 0.39902 0.37982 0.47801 0.0
C1140 C 0.37482 0.36575 0.44829 0.0
C1141 C 0.33889 0.34771 0.46036 0.0
C1142 C 0.66391 0.01958 0.44723 0.0
C1143 C 0.65644 0.02194 0.40677 0.0
C1144 C 0.6808 1.00114 0.45889 0.0
C1145 C 0.69135 0.98486 0.43045 0.0
H1146 H 0.65709 0.03249 0.47016 0.0
H1147 H 0.68682 1.0008 0.49018 0.0
S1148 S 0.67548 0.98049 0.32122 0.0
N1149 N 0.65886 1.00423 0.33861 0.0
N1150 N 0.691 0.96997 0.36046 0.0
C1151 C 0.68297 0.98589 0.3901 0.0
C1152 C 0.66537 1.00428 0.37827 0.0
C1153 C 0.02401 0.6844 0.45678 0.0
C1154 C 0.0388 0.71135 0.42829 0.0
C1155 C 1.00568 0.64907 0.44508 0.0
C1156 C 1.00198 0.63936 0.40449 0.0
H1157 H 0.02543 0.69063 0.48825 0.0
H1158 H 0.9939 0.62922 0.46809 0.0
S1159 S 0.03894 0.70009 0.31843 0.0
N1160 N 0.05066 0.72608 0.35784 0.0
N1161 N 0.01659 0.65965 0.33597 0.0
C1162 C 0.0181 0.66605 0.37581 0.0
C1163 C 0.03637 0.70204 0.38768 0.0
C1164 C 0.66406 0.64977 0.94364 0.0
C1165 C 0.65834 0.64065 0.90289 0.0
C1166 C 0.68147 0.68493 0.95597 0.0
C1167 C 0.69432 0.71231 0.92798 0.0
H1168 H 0.65536 0.62958 0.96633 0.0
H1169 H 0.68592 0.69065 0.98757 0.0
S1170 S 0.68407 0.7027 0.81788 0.0
N1171 N 0.66518 0.66199 0.8347 0.0
N1172 N 0.69826 0.7281 0.85776 0.0
C1173 C 0.68784 0.70362 0.88719 0.0
C1174 C 0.66972 0.66779 0.87467 0.0
C1175 C 0.3226 0.99232 0.8927 0.0
C1176 C 0.31307 0.98662 0.93333 0.0
C1177 C 0.35786 0.01007 0.88086 0.0
C1178 C 0.38497 0.02331 0.90923 0.0
H1179 H 0.30262 0.98335 0.86972 0.0
H1180 H 0.36386 0.01446 0.84932 0.0
S1181 S 0.37427 0.01336 0.01927 0.0
N1182 N 0.33372 0.99393 1.00185 0.0
N1183 N 0.40008 0.0277 0.97973 0.0
C1184 C 0.37589 0.01688 0.94994 0.0
C1185 C 0.33993 0.99838 0.96196 0.0
C1186 C 0.03222 0.3357 0.89135 0.0
C1187 C 0.0388 0.33234 0.93183 0.0
C1188 C 0.01492 0.3538 0.87994 0.0
C1189 C 1.00297 0.36863 0.90865 0.0
H1190 H 0.04013 0.32387 0.86821 0.0
H1191 H 1.00971 0.35502 0.84856 0.0
S1192 S 0.01572 0.36954 0.01826 0.0
N1193 N 0.03385 0.34731 1.00044 0.0
N1194 N 1.0008 0.38083 0.9791 0.0
C1195 C 1.01033 0.36647 0.94911 0.0
C1196 C 0.02843 0.3485 0.96069 0.0
C1197 C 0.69057 0.6745 0.54712 0.0
C1198 C 0.7176 0.68684 0.57555 0.0
C1199 C 0.65526 0.65727 0.55893 0.0
C1200 C 0.6457 0.65117 0.59954 0.0
H1201 H 0.69671 0.67932 0.51564 0.0
H1202 H 0.63529 0.649 0.53601 0.0
S1203 S 0.70676 0.67564 0.68542 0.0
N1204 N 0.73261 0.69003 0.64592 0.0
N1205 N 0.66625 0.65716 0.668 0.0
C1206 C 0.6725 0.66202 0.62814 0.0
C1207 C 0.70845 0.68002 0.61616 0.0
C1208 C 0.3474 0.01856 0.54753 0.0
C1209 C 0.3356 0.03366 0.57607 0.0
C1210 C 0.36479 1.00059 0.55915 0.0
C1211 C 0.37158 0.99764 0.59967 0.0
H1212 H 0.34203 0.01949 0.51614 0.0
H1213 H 0.37262 0.98857 0.53616 0.0
S1214 S 0.34886 0.03566 0.68566 0.0
N1215 N 0.33376 0.04655 0.64635 0.0
N1216 N 0.3669 0.01326 0.66811 0.0
C1217 C 0.36129 0.01404 0.62834 0.0
C1218 C 0.34314 0.03189 0.61655 0.0
C1219 C 1.01327 0.35143 0.62355 0.0
C1220 C 0.02509 0.37833 0.59503 0.0
C1221 C 0.99568 0.31606 0.61194 0.0
C1222 C 0.9887 0.30629 0.57144 0.0
H1223 H 0.01878 0.35771 0.65493 0.0
H1224 H 0.98789 0.29623 0.63494 0.0
S1225 S 1.01129 0.36693 0.48545 0.0
N1226 N 0.02665 0.39298 0.52473 0.0
N1227 N 0.99316 0.3265 0.50303 0.0
C1228 C 0.99895 0.33295 0.54278 0.0
C1229 C 0.0173 0.36897 0.55455 0.0
C1230 C 1.00576 0.67721 0.79294 0.0
C1231 C 0.97857 0.66581 0.76482 0.0
C1232 C 0.04096 0.6942 0.78079 0.0
C1233 C 0.05027 0.70096 0.74017 0.0
H1234 H 0.9998 0.67182 0.82439 0.0
H1235 H 0.06103 0.70172 0.80347 0.0
S1236 S 0.98875 0.67928 0.65517 0.0
N1237 N 0.96316 0.66439 0.69483 0.0
N1238 N 0.02934 0.69676 0.67211 0.0
C1239 C 0.02333 0.69111 0.71193 0.0
C1240 C 0.98748 0.67338 0.72424 0.0
C1241 C 0.32934 0.35105 0.77733 0.0
C1242 C 0.32365 0.35467 0.73663 0.0
C1243 C 0.34674 0.33324 0.78944 0.0
C1244 C 0.35963 0.31887 0.76128 0.0
H1245 H 0.32065 0.36245 0.80016 0.0
H1246 H 0.35117 0.33182 0.82101 0.0
S1247 S 0.34947 0.31884 0.6512 0.0
N1248 N 0.33054 0.34055 0.6683 0.0
N1249 N 0.36363 0.30741 0.69093 0.0
C1250 C 0.35317 0.32129 0.72053 0.0
C1251 C 0.33504 0.33905 0.70823 0.0
C1252 C 0.67982 0.99872 0.71561 0.0
C1253 C 0.66742 0.97209 0.74453 0.0
C1254 C 0.69711 0.03419 0.72677 0.0
C1255 C 0.70318 0.04437 0.76721 0.0
H1256 H 0.67505 0.99213 0.68422 0.0
H1257 H 0.70543 0.05378 0.70342 0.0
S1258 S 0.67873 0.98456 0.85425 0.0
N1259 N 0.66428 0.95814 0.81522 0.0
N1260 N 0.6972 0.02481 0.83609 0.0
C1261 C 0.69228 0.01798 0.79633 0.0
C1262 C 0.67426 0.98185 0.785 0.0
C1263 C 0.32846 0.98513 0.27583 0.0
C1264 C 0.3227 0.97533 0.23527 0.0
C1265 C 0.34594 0.0205 0.2874 0.0
C1266 C 0.35891 0.0474 0.25879 0.0
H1267 H 0.31976 0.96528 0.29894 0.0
H1268 H 0.35046 0.02678 0.31888 0.0
S1269 S 0.3487 0.03594 0.14887 0.0
N1270 N 0.3296 0.9955 0.1666 0.0
N1271 N 0.36298 0.06203 0.18821 0.0
C1272 C 0.3524 0.03803 0.21818 0.0
C1273 C 0.33411 1.00199 0.20644 0.0
C1274 C 0.98807 0.32481 0.22671 0.0
C1275 C 0.97903 0.31902 0.26747 0.0
C1276 C 0.0232 0.34201 0.21429 0.0
C1277 C 0.05063 0.35458 0.24223 0.0
H1278 H 0.96783 0.3163 0.20408 0.0
H1279 H 0.02888 0.34651 0.1827 0.0
S1280 S 0.04123 0.34414 0.3523 0.0
N1281 N 1.0005 0.32555 0.33558 0.0
N1282 N 0.06655 0.35827 0.31237 0.0
C1283 C 0.04201 0.34808 0.28302 0.0
C1284 C 1.00622 0.33016 0.29562 0.0
C1285 C 0.69763 0.66854 0.22623 0.0
C1286 C 0.70314 0.66464 0.26689 0.0
C1287 C 0.68022 0.68638 0.21429 0.0
C1288 C 0.66713 0.70044 0.2426 0.0
H1289 H 0.70651 0.6574 0.20331 0.0
H1290 H 0.67594 0.68808 0.18273 0.0
S1291 S 0.67672 0.69962 0.35264 0.0
N1292 N 0.69585 0.67815 0.33537 0.0
N1293 N 0.66266 0.71127 0.313 0.0
C1294 C 0.67334 0.69768 0.28331 0.0
C1295 C 0.69152 0.67993 0.29545 0.0
loop_
_geom_bond_atom_site_label_1
_geom_bond_atom_site_label_2
_geom_bond_distance
_geom_bond_site_symmetry_2
_ccdc_geom_bond_type
C0 O2 1.247 . S
C0 O4 1.258 . S
C1 O8 1.247 . S
C1 O9 1.258 . S
O2 C0 1.247 . S
O2 Zn3 2.028 . S
Zn3 O2 2.028 . S
Zn3 O7 2.035 . S
Zn3 O9 2.035 . S
Zn3 O10 2.028 . S
O4 C0 1.258 . S
O4 Zn5 2.035 . S
Zn5 O4 2.035 . S
Zn5 O6 2.028 . S
Zn5 O8 2.028 . S
Zn5 O11 2.035 . S
O6 Zn5 2.028 . S
O6 C12 1.247 . S
O7 Zn3 2.035 . S
O7 C12 1.258 . S
O8 C1 1.247 . S
O8 Zn5 2.028 . S
O9 C1 1.258 . S
O9 Zn3 2.035 . S
O10 Zn3 2.028 . S
O10 C13 1.247 . S
O11 Zn5 2.035 . S
O11 C13 1.258 . S
C12 O6 1.247 . S
C12 O7 1.258 . S
C13 O10 1.247 . S
C13 O11 1.258 . S
C14 O16 1.247 . S
C14 O18 1.258 . S
C15 O22 1.247 . S
C15 O23 1.258 . S
O16 C14 1.247 . S
O16 Zn17 2.028 . S
Zn17 O16 2.028 . S
Zn17 O21 2.035 . S
Zn17 O23 2.035 . S
Zn17 O24 2.028 . S
O18 C14 1.258 . S
O18 Zn19 2.035 . S
Zn19 O18 2.035 . S
Zn19 O20 2.028 . S
Zn19 O22 2.028 . S
Zn19 O25 2.035 . S
O20 Zn19 2.028 . S
O20 C26 1.247 . S
O21 Zn17 2.035 . S
O21 C26 1.258 . S
O22 C15 1.247 . S
O22 Zn19 2.028 . S
O23 C15 1.258 . S
O23 Zn17 2.035 . S
O24 Zn17 2.028 . S
O24 C27 1.247 . S
O25 Zn19 2.035 . S
O25 C27 1.258 . S
C26 O20 1.247 . S
C26 O21 1.258 . S
C27 O24 1.247 . S
C27 O25 1.258 . S
C28 O30 1.247 . S
C28 O32 1.258 . S
C29 O36 1.247 . S
C29 O37 1.258 . S
O30 C28 1.247 . S
O30 Zn31 2.028 . S
Zn31 O30 2.028 . S
Zn31 O35 2.035 . S
Zn31 O37 2.035 . S
Zn31 O38 2.028 . S
O32 C28 1.258 . S
O32 Zn33 2.035 . S
Zn33 O32 2.035 . S
Zn33 O34 2.028 . S
Zn33 O36 2.028 . S
Zn33 O39 2.035 . S
O34 Zn33 2.028 . S
O34 C40 1.247 . S
O35 Zn31 2.035 . S
O35 C40 1.258 . S
O36 C29 1.247 . S
O36 Zn33 2.028 . S
O37 C29 1.258 . S
O37 Zn31 2.035 . S
O38 Zn31 2.028 . S
O38 C41 1.247 . S
O39 Zn33 2.035 . S
O39 C41 1.258 . S
C40 O34 1.247 . S
C40 O35 1.258 . S
C41 O38 1.247 . S
C41 O39 1.258 . S
C42 O44 1.247 . S
C42 O46 1.258 . S
C43 O50 1.247 . S
C43 O51 1.258 . S
O44 C42 1.247 . S
O44 Zn45 2.028 . S
Zn45 O44 2.028 . S
Zn45 O49 2.035 . S
Zn45 O51 2.035 . S
Zn45 O52 2.028 . S
O46 C42 1.258 . S
O46 Zn47 2.035 . S
Zn47 O46 2.035 . S
Zn47 O48 2.028 . S
Zn47 O50 2.028 . S
Zn47 O53 2.035 . S
O48 Zn47 2.028 . S
O48 C54 1.247 . S
O49 Zn45 2.035 . S
O49 C54 1.258 . S
O50 C43 1.247 . S
O50 Zn47 2.028 . S
O51 C43 1.258 . S
O51 Zn45 2.035 . S
O52 Zn45 2.028 . S
O52 C55 1.247 . S
O53 Zn47 2.035 . S
O53 C55 1.258 . S
C54 O48 1.247 . S
C54 O49 1.258 . S
C55 O52 1.247 . S
C55 O53 1.258 . S
C56 O58 1.247 . S
C56 O60 1.258 . S
C57 O64 1.247 . S
C57 O65 1.258 . S
O58 C56 1.247 . S
O58 Zn59 2.028 . S
Zn59 O58 2.028 . S
Zn59 O63 2.035 . S
Zn59 O65 2.035 . S
Zn59 O66 2.028 . S
O60 C56 1.258 . S
O60 Zn61 2.035 . S
Zn61 O60 2.035 . S
Zn61 O62 2.028 . S
Zn61 O64 2.028 . S
Zn61 O67 2.035 . S
O62 Zn61 2.028 . S
O62 C68 1.247 . S
O63 Zn59 2.035 . S
O63 C68 1.258 . S
O64 C57 1.247 . S
O64 Zn61 2.028 . S
O65 C57 1.258 . S
O65 Zn59 2.035 . S
O66 Zn59 2.028 . S
O66 C69 1.247 . S
O67 Zn61 2.035 . S
O67 C69 1.258 . S
C68 O62 1.247 . S
C68 O63 1.258 . S
C69 O66 1.247 . S
C69 O67 1.258 . S
C70 O72 1.247 . S
C70 O74 1.258 . S
C71 O78 1.247 . S
C71 O79 1.258 . S
O72 C70 1.247 . S
O72 Zn73 2.028 . S
Zn73 O72 2.028 . S
Zn73 O77 2.035 . S
Zn73 O79 2.035 . S
Zn73 O80 2.028 . S
O74 C70 1.258 . S
O74 Zn75 2.035 . S
Zn75 O74 2.035 . S
Zn75 O76 2.028 . S
Zn75 O78 2.028 . S
Zn75 O81 2.035 . S
O76 Zn75 2.028 . S
O76 C82 1.247 . S
O77 Zn73 2.035 . S
O77 C82 1.258 . S
O78 C71 1.247 . S
O78 Zn75 2.028 . S
O79 C71 1.258 . S
O79 Zn73 2.035 . S
O80 Zn73 2.028 . S
O80 C83 1.247 . S
O81 Zn75 2.035 . S
O81 C83 1.258 . S
C82 O76 1.247 . S
C82 O77 1.258 . S
C83 O80 1.247 . S
C83 O81 1.258 . S
C84 O86 1.247 . S
C84 O88 1.258 . S
C85 O92 1.247 . S
C85 O93 1.258 . S
O86 C84 1.247 . S
O86 Zn87 2.028 . S
Zn87 O86 2.028 . S
Zn87 O91 2.035 . S
Zn87 O93 2.035 . S
Zn87 O94 2.028 . S
O88 C84 1.258 . S
O88 Zn89 2.035 . S
Zn89 O88 2.035 . S
Zn89 O90 2.028 . S
Zn89 O92 2.028 . S
Zn89 O95 2.035 . S
O90 Zn89 2.028 . S
O90 C96 1.247 . S
O91 Zn87 2.035 . S
O91 C96 1.258 . S
O92 C85 1.247 . S
O92 Zn89 2.028 . S
O93 C85 1.258 . S
O93 Zn87 2.035 . S
O94 Zn87 2.028 . S
O94 C97 1.247 . S
O95 Zn89 2.035 . S
O95 C97 1.258 . S
C96 O90 1.247 . S
C96 O91 1.258 . S
C97 O94 1.247 . S
C97 O95 1.258 . S
C98 O100 1.247 . S
C98 O102 1.258 . S
C99 O106 1.247 . S
C99 O107 1.258 . S
O100 C98 1.247 . S
O100 Zn101 2.028 . S
Zn101 O100 2.028 . S
Zn101 O105 2.035 . S
Zn101 O107 2.035 . S
Zn101 O108 2.028 . S
O102 C98 1.258 . S
O102 Zn103 2.035 . S
Zn103 O102 2.035 . S
Zn103 O104 2.028 . S
Zn103 O106 2.028 . S
Zn103 O109 2.035 . S
O104 Zn103 2.028 . S
O104 C110 1.247 . S
O105 Zn101 2.035 . S
O105 C110 1.258 . S
O106 C99 1.247 . S
O106 Zn103 2.028 . S
O107 C99 1.258 . S
O107 Zn101 2.035 . S
O108 Zn101 2.028 . S
O108 C111 1.247 . S
O109 Zn103 2.035 . S
O109 C111 1.258 . S
C110 O104 1.247 . S
C110 O105 1.258 . S
C111 O108 1.247 . S
C111 O109 1.258 . S
C112 O114 1.247 . S
C112 O116 1.258 . S
C113 O120 1.247 . S
C113 O121 1.258 . S
O114 C112 1.247 . S
O114 Zn115 2.028 . S
Zn115 O114 2.028 . S
Zn115 O119 2.035 . S
Zn115 O121 2.035 . S
Zn115 O122 2.028 . S
O116 C112 1.258 . S
O116 Zn117 2.035 . S
Zn117 O116 2.035 . S
Zn117 O118 2.028 . S
Zn117 O120 2.028 . S
Zn117 O123 2.035 . S
O118 Zn117 2.028 . S
O118 C124 1.247 . S
O119 Zn115 2.035 . S
O119 C124 1.258 . S
O120 C113 1.247 . S
O120 Zn117 2.028 . S
O121 C113 1.258 . S
O121 Zn115 2.035 . S
O122 Zn115 2.028 . S
O122 C125 1.247 . S
O123 Zn117 2.035 . S
O123 C125 1.258 . S
C124 O118 1.247 . S
C124 O119 1.258 . S
C125 O122 1.247 . S
C125 O123 1.258 . S
C126 O128 1.247 . S
C126 O130 1.258 . S
C127 O134 1.247 . S
C127 O135 1.258 . S
O128 C126 1.247 . S
O128 Zn129 2.028 . S
Zn129 O128 2.028 . S
Zn129 O133 2.035 . S
Zn129 O135 2.035 . S
Zn129 O136 2.028 . S
O130 C126 1.258 . S
O130 Zn131 2.035 . S
Zn131 O130 2.035 . S
Zn131 O132 2.028 . S
Zn131 O134 2.028 . S
Zn131 O137 2.035 . S
O132 Zn131 2.028 . S
O132 C138 1.247 . S
O133 Zn129 2.035 . S
O133 C138 1.258 . S
O134 C127 1.247 . S
O134 Zn131 2.028 . S
O135 C127 1.258 . S
O135 Zn129 2.035 . S
O136 Zn129 2.028 . S
O136 C139 1.247 . S
O137 Zn131 2.035 . S
O137 C139 1.258 . S
C138 O132 1.247 . S
C138 O133 1.258 . S
C139 O136 1.247 . S
C139 O137 1.258 . S
C140 O142 1.247 . S
C140 O144 1.258 . S
C141 O148 1.247 . S
C141 O149 1.258 . S
O142 C140 1.247 . S
O142 Zn143 2.028 . S
Zn143 O142 2.028 . S
Zn143 O147 2.035 . S
Zn143 O149 2.035 . S
Zn143 O150 2.028 . S
O144 C140 1.258 . S
O144 Zn145 2.035 . S
Zn145 O144 2.035 . S
Zn145 O146 2.028 . S
Zn145 O148 2.028 . S
Zn145 O151 2.035 . S
O146 Zn145 2.028 . S
O146 C152 1.247 . S
O147 Zn143 2.035 . S
O147 C152 1.258 . S
O148 C141 1.247 . S
O148 Zn145 2.028 . S
O149 C141 1.258 . S
O149 Zn143 2.035 . S
O150 Zn143 2.028 . S
O150 C153 1.247 . S
O151 Zn145 2.035 . S
O151 C153 1.258 . S
C152 O146 1.247 . S
C152 O147 1.258 . S
C153 O150 1.247 . S
C153 O151 1.258 . S
C154 O156 1.247 . S
C154 O158 1.258 . S
C155 O162 1.247 . S
C155 O163 1.258 . S
O156 C154 1.247 . S
O156 Zn157 2.028 . S
Zn157 O156 2.028 . S
Zn157 O161 2.035 . S
Zn157 O163 2.035 . S
Zn157 O164 2.028 . S
O158 C154 1.258 . S
O158 Zn159 2.035 . S
Zn159 O158 2.035 . S
Zn159 O160 2.028 . S
Zn159 O162 2.028 . S
Zn159 O165 2.035 . S
O160 Zn159 2.028 . S
O160 C166 1.247 . S
O161 Zn157 2.035 . S
O161 C166 1.258 . S
O162 C155 1.247 . S
O162 Zn159 2.028 . S
O163 C155 1.258 . S
O163 Zn157 2.035 . S
O164 Zn157 2.028 . S
O164 C167 1.247 . S
O165 Zn159 2.035 . S
O165 C167 1.258 . S
C166 O160 1.247 . S
C166 O161 1.258 . S
C167 O164 1.247 . S
C167 O165 1.258 . S
C168 O170 1.247 . S
C168 O172 1.258 . S
C169 O176 1.247 . S
C169 O177 1.258 . S
O170 C168 1.247 . S
O170 Zn171 2.028 . S
Zn171 O170 2.028 . S
Zn171 O175 2.035 . S
Zn171 O177 2.035 . S
Zn171 O178 2.028 . S
O172 C168 1.258 . S
O172 Zn173 2.035 . S
Zn173 O172 2.035 . S
Zn173 O174 2.028 . S
Zn173 O176 2.028 . S
Zn173 O179 2.035 . S
O174 Zn173 2.028 . S
O174 C180 1.247 . S
O175 Zn171 2.035 . S
O175 C180 1.258 . S
O176 C169 1.247 . S
O176 Zn173 2.028 . S
O177 C169 1.258 . S
O177 Zn171 2.035 . S
O178 Zn171 2.028 . S
O178 C181 1.247 . S
O179 Zn173 2.035 . S
O179 C181 1.258 . S
C180 O174 1.247 . S
C180 O175 1.258 . S
C181 O178 1.247 . S
C181 O179 1.258 . S
C182 O184 1.247 . S
C182 O186 1.258 . S
C183 O190 1.247 . S
C183 O191 1.258 . S
O184 C182 1.247 . S
O184 Zn185 2.028 . S
Zn185 O184 2.028 . S
Zn185 O189 2.035 . S
Zn185 O191 2.035 . S
Zn185 O192 2.028 . S
O186 C182 1.258 . S
O186 Zn187 2.035 . S
Zn187 O186 2.035 . S
Zn187 O188 2.028 . S
Zn187 O190 2.028 . S
Zn187 O193 2.035 . S
O188 Zn187 2.028 . S
O188 C194 1.247 . S
O189 Zn185 2.035 . S
O189 C194 1.258 . S
O190 C183 1.247 . S
O190 Zn187 2.028 . S
O191 C183 1.258 . S
O191 Zn185 2.035 . S
O192 Zn185 2.028 . S
O192 C195 1.247 . S
O193 Zn187 2.035 . S
O193 C195 1.258 . S
C194 O188 1.247 . S
C194 O189 1.258 . S
C195 O192 1.247 . S
C195 O193 1.258 . S
C196 O198 1.247 . S
C196 O200 1.258 . S
C197 O204 1.247 . S
C197 O205 1.258 . S
O198 C196 1.247 . S
O198 Zn199 2.028 . S
Zn199 O198 2.028 . S
Zn199 O203 2.035 . S
Zn199 O205 2.035 . S
Zn199 O206 2.028 . S
O200 C196 1.258 . S
O200 Zn201 2.035 . S
Zn201 O200 2.035 . S
Zn201 O202 2.028 . S
Zn201 O204 2.028 . S
Zn201 O207 2.035 . S
O202 Zn201 2.028 . S
O202 C208 1.247 . S
O203 Zn199 2.035 . S
O203 C208 1.258 . S
O204 C197 1.247 . S
O204 Zn201 2.028 . S
O205 C197 1.258 . S
O205 Zn199 2.035 . S
O206 Zn199 2.028 . S
O206 C209 1.247 . S
O207 Zn201 2.035 . S
O207 C209 1.258 . S
C208 O202 1.247 . S
C208 O203 1.258 . S
C209 O206 1.247 . S
C209 O207 1.258 . S
C210 O212 1.247 . S
C210 O214 1.258 . S
C211 O218 1.247 . S
C211 O219 1.258 . S
O212 C210 1.247 . S
O212 Zn213 2.028 . S
Zn213 O212 2.028 . S
Zn213 O217 2.035 . S
Zn213 O219 2.035 . S
Zn213 O220 2.028 . S
O214 C210 1.258 . S
O214 Zn215 2.035 . S
Zn215 O214 2.035 . S
Zn215 O216 2.028 . S
Zn215 O218 2.028 . S
Zn215 O221 2.035 . S
O216 Zn215 2.028 . S
O216 C222 1.247 . S
O217 Zn213 2.035 . S
O217 C222 1.258 . S
O218 C211 1.247 . S
O218 Zn215 2.028 . S
O219 C211 1.258 . S
O219 Zn213 2.035 . S
O220 Zn213 2.028 . S
O220 C223 1.247 . S
O221 Zn215 2.035 . S
O221 C223 1.258 . S
C222 O216 1.247 . S
C222 O217 1.258 . S
C223 O220 1.247 . S
C223 O221 1.258 . S
C224 O226 1.247 . S
C224 O228 1.258 . S
C225 O232 1.247 . S
C225 O233 1.258 . S
O226 C224 1.247 . S
O226 Zn227 2.028 . S
Zn227 O226 2.028 . S
Zn227 O231 2.035 . S
Zn227 O233 2.035 . S
Zn227 O234 2.028 . S
O228 C224 1.258 . S
O228 Zn229 2.035 . S
Zn229 O228 2.035 . S
Zn229 O230 2.028 . S
Zn229 O232 2.028 . S
Zn229 O235 2.035 . S
O230 Zn229 2.028 . S
O230 C236 1.247 . S
O231 Zn227 2.035 . S
O231 C236 1.258 . S
O232 C225 1.247 . S
O232 Zn229 2.028 . S
O233 C225 1.258 . S
O233 Zn227 2.035 . S
O234 Zn227 2.028 . S
O234 C237 1.247 . S
O235 Zn229 2.035 . S
O235 C237 1.258 . S
C236 O230 1.247 . S
C236 O231 1.258 . S
C237 O234 1.247 . S
C237 O235 1.258 . S
C238 O240 1.247 . S
C238 O242 1.258 . S
C239 O246 1.247 . S
C239 O247 1.258 . S
O240 C238 1.247 . S
O240 Zn241 2.028 . S
Zn241 O240 2.028 . S
Zn241 O245 2.035 . S
Zn241 O247 2.035 . S
Zn241 O248 2.028 . S
O242 C238 1.258 . S
O242 Zn243 2.035 . S
Zn243 O242 2.035 . S
Zn243 O244 2.028 . S
Zn243 O246 2.028 . S
Zn243 O249 2.035 . S
O244 Zn243 2.028 . S
O244 C250 1.247 . S
O245 Zn241 2.035 . S
O245 C250 1.258 . S
O246 C239 1.247 . S
O246 Zn243 2.028 . S
O247 C239 1.258 . S
O247 Zn241 2.035 . S
O248 Zn241 2.028 . S
O248 C251 1.247 . S
O249 Zn243 2.035 . S
O249 C251 1.258 . S
C250 O244 1.247 . S
C250 O245 1.258 . S
C251 O248 1.247 . S
C251 O249 1.258 . S
C252 O254 1.247 . S
C252 O256 1.258 . S
C253 O260 1.247 . S
C253 O261 1.258 . S
O254 C252 1.247 . S
O254 Zn255 2.028 . S
Zn255 O254 2.028 . S
Zn255 O259 2.035 . S
Zn255 O261 2.035 . S
Zn255 O262 2.028 . S
O256 C252 1.258 . S
O256 Zn257 2.035 . S
Zn257 O256 2.035 . S
Zn257 O258 2.028 . S
Zn257 O260 2.028 . S
Zn257 O263 2.035 . S
O258 Zn257 2.028 . S
O258 C264 1.247 . S
O259 Zn255 2.035 . S
O259 C264 1.258 . S
O260 C253 1.247 . S
O260 Zn257 2.028 . S
O261 C253 1.258 . S
O261 Zn255 2.035 . S
O262 Zn255 2.028 . S
O262 C265 1.247 . S
O263 Zn257 2.035 . S
O263 C265 1.258 . S
C264 O258 1.247 . S
C264 O259 1.258 . S
C265 O262 1.247 . S
C265 O263 1.258 . S
C266 O268 1.247 . S
C266 O270 1.258 . S
C267 O274 1.247 . S
C267 O275 1.258 . S
O268 C266 1.247 . S
O268 Zn269 2.028 . S
Zn269 O268 2.028 . S
Zn269 O273 2.035 . S
Zn269 O275 2.035 . S
Zn269 O276 2.028 . S
O270 C266 1.258 . S
O270 Zn271 2.035 . S
Zn271 O270 2.035 . S
Zn271 O272 2.028 . S
Zn271 O274 2.028 . S
Zn271 O277 2.035 . S
O272 Zn271 2.028 . S
O272 C278 1.247 . S
O273 Zn269 2.035 . S
O273 C278 1.258 . S
O274 C267 1.247 . S
O274 Zn271 2.028 . S
O275 C267 1.258 . S
O275 Zn269 2.035 . S
O276 Zn269 2.028 . S
O276 C279 1.247 . S
O277 Zn271 2.035 . S
O277 C279 1.258 . S
C278 O272 1.247 . S
C278 O273 1.258 . S
C279 O276 1.247 . S
C279 O277 1.258 . S
C280 O282 1.247 . S
C280 O284 1.258 . S
C281 O288 1.247 . S
C281 O289 1.258 . S
O282 C280 1.247 . S
O282 Zn283 2.028 . S
Zn283 O282 2.028 . S
Zn283 O287 2.035 . S
Zn283 O289 2.035 . S
Zn283 O290 2.028 . S
O284 C280 1.258 . S
O284 Zn285 2.035 . S
Zn285 O284 2.035 . S
Zn285 O286 2.028 . S
Zn285 O288 2.028 . S
Zn285 O291 2.035 . S
O286 Zn285 2.028 . S
O286 C292 1.247 . S
O287 Zn283 2.035 . S
O287 C292 1.258 . S
O288 C281 1.247 . S
O288 Zn285 2.028 . S
O289 C281 1.258 . S
O289 Zn283 2.035 . S
O290 Zn283 2.028 . S
O290 C293 1.247 . S
O291 Zn285 2.035 . S
O291 C293 1.258 . S
C292 O286 1.247 . S
C292 O287 1.258 . S
C293 O290 1.247 . S
C293 O291 1.258 . S
C294 O296 1.247 . S
C294 O298 1.258 . S
C295 O302 1.247 . S
C295 O303 1.258 . S
O296 C294 1.247 . S
O296 Zn297 2.028 . S
Zn297 O296 2.028 . S
Zn297 O301 2.035 . S
Zn297 O303 2.035 . S
Zn297 O304 2.028 . S
O298 C294 1.258 . S
O298 Zn299 2.035 . S
Zn299 O298 2.035 . S
Zn299 O300 2.028 . S
Zn299 O302 2.028 . S
Zn299 O305 2.035 . S
O300 Zn299 2.028 . S
O300 C306 1.247 . S
O301 Zn297 2.035 . S
O301 C306 1.258 . S
O302 C295 1.247 . S
O302 Zn299 2.028 . S
O303 C295 1.258 . S
O303 Zn297 2.035 . S
O304 Zn297 2.028 . S
O304 C307 1.247 . S
O305 Zn299 2.035 . S
O305 C307 1.258 . S
C306 O300 1.247 . S
C306 O301 1.258 . S
C307 O304 1.247 . S
C307 O305 1.258 . S
C308 O310 1.247 . S
C308 O312 1.258 . S
C309 O316 1.247 . S
C309 O317 1.258 . S
O310 C308 1.247 . S
O310 Zn311 2.028 . S
Zn311 O310 2.028 . S
Zn311 O315 2.035 . S
Zn311 O317 2.035 . S
Zn311 O318 2.028 . S
O312 C308 1.258 . S
O312 Zn313 2.035 . S
Zn313 O312 2.035 . S
Zn313 O314 2.028 . S
Zn313 O316 2.028 . S
Zn313 O319 2.035 . S
O314 Zn313 2.028 . S
O314 C320 1.247 . S
O315 Zn311 2.035 . S
O315 C320 1.258 . S
O316 C309 1.247 . S
O316 Zn313 2.028 . S
O317 C309 1.258 . S
O317 Zn311 2.035 . S
O318 Zn311 2.028 . S
O318 C321 1.247 . S
O319 Zn313 2.035 . S
O319 C321 1.258 . S
C320 O314 1.247 . S
C320 O315 1.258 . S
C321 O318 1.247 . S
C321 O319 1.258 . S
C322 O324 1.247 . S
C322 O326 1.258 . S
C323 O330 1.247 . S
C323 O331 1.258 . S
O324 C322 1.247 . S
O324 Zn325 2.028 . S
Zn325 O324 2.028 . S
Zn325 O329 2.035 . S
Zn325 O331 2.035 . S
Zn325 O332 2.028 . S
O326 C322 1.258 . S
O326 Zn327 2.035 . S
Zn327 O326 2.035 . S
Zn327 O328 2.028 . S
Zn327 O330 2.028 . S
Zn327 O333 2.035 . S
O328 Zn327 2.028 . S
O328 C334 1.247 . S
O329 Zn325 2.035 . S
O329 C334 1.258 . S
O330 C323 1.247 . S
O330 Zn327 2.028 . S
O331 C323 1.258 . S
O331 Zn325 2.035 . S
O332 Zn325 2.028 . S
O332 C335 1.247 . S
O333 Zn327 2.035 . S
O333 C335 1.258 . S
C334 O328 1.247 . S
C334 O329 1.258 . S
C335 O332 1.247 . S
C335 O333 1.258 . S
C336 O338 1.247 . S
C336 O340 1.258 . S
C337 O344 1.247 . S
C337 O345 1.258 . S
O338 C336 1.247 . S
O338 Zn339 2.028 . S
Zn339 O338 2.028 . S
Zn339 O343 2.035 . S
Zn339 O345 2.035 . S
Zn339 O346 2.028 . S
O340 C336 1.258 . S
O340 Zn341 2.035 . S
Zn341 O340 2.035 . S
Zn341 O342 2.028 . S
Zn341 O344 2.028 . S
Zn341 O347 2.035 . S
O342 Zn341 2.028 . S
O342 C348 1.247 . S
O343 Zn339 2.035 . S
O343 C348 1.258 . S
O344 C337 1.247 . S
O344 Zn341 2.028 . S
O345 C337 1.258 . S
O345 Zn339 2.035 . S
O346 Zn339 2.028 . S
O346 C349 1.247 . S
O347 Zn341 2.035 . S
O347 C349 1.258 . S
C348 O342 1.247 . S
C348 O343 1.258 . S
C349 O346 1.247 . S
C349 O347 1.258 . S
C350 O352 1.247 . S
C350 O354 1.258 . S
C351 O358 1.247 . S
C351 O359 1.258 . S
O352 C350 1.247 . S
O352 Zn353 2.028 . S
Zn353 O352 2.028 . S
Zn353 O357 2.035 . S
Zn353 O359 2.035 . S
Zn353 O360 2.028 . S
O354 C350 1.258 . S
O354 Zn355 2.035 . S
Zn355 O354 2.035 . S
Zn355 O356 2.028 . S
Zn355 O358 2.028 . S
Zn355 O361 2.035 . S
O356 Zn355 2.028 . S
O356 C362 1.247 . S
O357 Zn353 2.035 . S
O357 C362 1.258 . S
O358 C351 1.247 . S
O358 Zn355 2.028 . S
O359 C351 1.258 . S
O359 Zn353 2.035 . S
O360 Zn353 2.028 . S
O360 C363 1.247 . S
O361 Zn355 2.035 . S
O361 C363 1.258 . S
C362 O356 1.247 . S
C362 O357 1.258 . S
C363 O360 1.247 . S
C363 O361 1.258 . S
C364 O366 1.247 . S
C364 O368 1.258 . S
C365 O372 1.247 . S
C365 O373 1.258 . S
O366 C364 1.247 . S
O366 Zn367 2.028 . S
Zn367 O366 2.028 . S
Zn367 O371 2.035 . S
Zn367 O373 2.035 . S
Zn367 O374 2.028 . S
O368 C364 1.258 . S
O368 Zn369 2.035 . S
Zn369 O368 2.035 . S
Zn369 O370 2.028 . S
Zn369 O372 2.028 . S
Zn369 O375 2.035 . S
O370 Zn369 2.028 . S
O370 C376 1.247 . S
O371 Zn367 2.035 . S
O371 C376 1.258 . S
O372 C365 1.247 . S
O372 Zn369 2.028 . S
O373 C365 1.258 . S
O373 Zn367 2.035 . S
O374 Zn367 2.028 . S
O374 C377 1.247 . S
O375 Zn369 2.035 . S
O375 C377 1.258 . S
C376 O370 1.247 . S
C376 O371 1.258 . S
C377 O374 1.247 . S
C377 O375 1.258 . S
C378 O380 1.247 . S
C378 O382 1.258 . S
C379 O386 1.247 . S
C379 O387 1.258 . S
O380 C378 1.247 . S
O380 Zn381 2.028 . S
Zn381 O380 2.028 . S
Zn381 O385 2.035 . S
Zn381 O387 2.035 . S
Zn381 O388 2.028 . S
O382 C378 1.258 . S
O382 Zn383 2.035 . S
Zn383 O382 2.035 . S
Zn383 O384 2.028 . S
Zn383 O386 2.028 . S
Zn383 O389 2.035 . S
O384 Zn383 2.028 . S
O384 C390 1.247 . S
O385 Zn381 2.035 . S
O385 C390 1.258 . S
O386 C379 1.247 . S
O386 Zn383 2.028 . S
O387 C379 1.258 . S
O387 Zn381 2.035 . S
O388 Zn381 2.028 . S
O388 C391 1.247 . S
O389 Zn383 2.035 . S
O389 C391 1.258 . S
C390 O384 1.247 . S
C390 O385 1.258 . S
C391 O388 1.247 . S
C391 O389 1.258 . S
C392 O394 1.247 . S
C392 O396 1.258 . S
C393 O400 1.247 . S
C393 O401 1.258 . S
O394 C392 1.247 . S
O394 Zn395 2.028 . S
Zn395 O394 2.028 . S
Zn395 O399 2.035 . S
Zn395 O401 2.035 . S
Zn395 O402 2.028 . S
O396 C392 1.258 . S
O396 Zn397 2.035 . S
Zn397 O396 2.035 . S
Zn397 O398 2.028 . S
Zn397 O400 2.028 . S
Zn397 O403 2.035 . S
O398 Zn397 2.028 . S
O398 C404 1.247 . S
O399 Zn395 2.035 . S
O399 C404 1.258 . S
O400 C393 1.247 . S
O400 Zn397 2.028 . S
O401 C393 1.258 . S
O401 Zn395 2.035 . S
O402 Zn395 2.028 . S
O402 C405 1.247 . S
O403 Zn397 2.035 . S
O403 C405 1.258 . S
C404 O398 1.247 . S
C404 O399 1.258 . S
C405 O402 1.247 . S
C405 O403 1.258 . S
C406 O408 1.247 . S
C406 O410 1.258 . S
C407 O414 1.247 . S
C407 O415 1.258 . S
O408 C406 1.247 . S
O408 Zn409 2.028 . S
Zn409 O408 2.028 . S
Zn409 O413 2.035 . S
Zn409 O415 2.035 . S
Zn409 O416 2.028 . S
O410 C406 1.258 . S
O410 Zn411 2.035 . S
Zn411 O410 2.035 . S
Zn411 O412 2.028 . S
Zn411 O414 2.028 . S
Zn411 O417 2.035 . S
O412 Zn411 2.028 . S
O412 C418 1.247 . S
O413 Zn409 2.035 . S
O413 C418 1.258 . S
O414 C407 1.247 . S
O414 Zn411 2.028 . S
O415 C407 1.258 . S
O415 Zn409 2.035 . S
O416 Zn409 2.028 . S
O416 C419 1.247 . S
O417 Zn411 2.035 . S
O417 C419 1.258 . S
C418 O412 1.247 . S
C418 O413 1.258 . S
C419 O416 1.247 . S
C419 O417 1.258 . S
C420 O422 1.247 . S
C420 O424 1.258 . S
C421 O428 1.247 . S
C421 O429 1.258 . S
O422 C420 1.247 . S
O422 Zn423 2.028 . S
Zn423 O422 2.028 . S
Zn423 O427 2.035 . S
Zn423 O429 2.035 . S
Zn423 O430 2.028 . S
O424 C420 1.258 . S
O424 Zn425 2.035 . S
Zn425 O424 2.035 . S
Zn425 O426 2.028 . S
Zn425 O428 2.028 . S
Zn425 O431 2.035 . S
O426 Zn425 2.028 . S
O426 C432 1.247 . S
O427 Zn423 2.035 . S
O427 C432 1.258 . S
O428 C421 1.247 . S
O428 Zn425 2.028 . S
O429 C421 1.258 . S
O429 Zn423 2.035 . S
O430 Zn423 2.028 . S
O430 C433 1.247 . S
O431 Zn425 2.035 . S
O431 C433 1.258 . S
C432 O426 1.247 . S
C432 O427 1.258 . S
C433 O430 1.247 . S
C433 O431 1.258 . S
C434 O436 1.247 . S
C434 O438 1.258 . S
C435 O442 1.247 . S
C435 O443 1.258 . S
O436 C434 1.247 . S
O436 Zn437 2.028 . S
Zn437 O436 2.028 . S
Zn437 O441 2.035 . S
Zn437 O443 2.035 . S
Zn437 O444 2.028 . S
O438 C434 1.258 . S
O438 Zn439 2.035 . S
Zn439 O438 2.035 . S
Zn439 O440 2.028 . S
Zn439 O442 2.028 . S
Zn439 O445 2.035 . S
O440 Zn439 2.028 . S
O440 C446 1.247 . S
O441 Zn437 2.035 . S
O441 C446 1.258 . S
O442 C435 1.247 . S
O442 Zn439 2.028 . S
O443 C435 1.258 . S
O443 Zn437 2.035 . S
O444 Zn437 2.028 . S
O444 C447 1.247 . S
O445 Zn439 2.035 . S
O445 C447 1.258 . S
C446 O440 1.247 . S
C446 O441 1.258 . S
C447 O444 1.247 . S
C447 O445 1.258 . S
C448 O450 1.247 . S
C448 O452 1.258 . S
C449 O456 1.247 . S
C449 O457 1.258 . S
O450 C448 1.247 . S
O450 Zn451 2.028 . S
Zn451 O450 2.028 . S
Zn451 O455 2.035 . S
Zn451 O457 2.035 . S
Zn451 O458 2.028 . S
O452 C448 1.258 . S
O452 Zn453 2.035 . S
Zn453 O452 2.035 . S
Zn453 O454 2.028 . S
Zn453 O456 2.028 . S
Zn453 O459 2.035 . S
O454 Zn453 2.028 . S
O454 C460 1.247 . S
O455 Zn451 2.035 . S
O455 C460 1.258 . S
O456 C449 1.247 . S
O456 Zn453 2.028 . S
O457 C449 1.258 . S
O457 Zn451 2.035 . S
O458 Zn451 2.028 . S
O458 C461 1.247 . S
O459 Zn453 2.035 . S
O459 C461 1.258 . S
C460 O454 1.247 . S
C460 O455 1.258 . S
C461 O458 1.247 . S
C461 O459 1.258 . S
C462 O464 1.247 . S
C462 O466 1.258 . S
C463 O470 1.247 . S
C463 O471 1.258 . S
O464 C462 1.247 . S
O464 Zn465 2.028 . S
Zn465 O464 2.028 . S
Zn465 O469 2.035 . S
Zn465 O471 2.035 . S
Zn465 O472 2.028 . S
O466 C462 1.258 . S
O466 Zn467 2.035 . S
Zn467 O466 2.035 . S
Zn467 O468 2.028 . S
Zn467 O470 2.028 . S
Zn467 O473 2.035 . S
O468 Zn467 2.028 . S
O468 C474 1.247 . S
O469 Zn465 2.035 . S
O469 C474 1.258 . S
O470 C463 1.247 . S
O470 Zn467 2.028 . S
O471 C463 1.258 . S
O471 Zn465 2.035 . S
O472 Zn465 2.028 . S
O472 C475 1.247 . S
O473 Zn467 2.035 . S
O473 C475 1.258 . S
C474 O468 1.247 . S
C474 O469 1.258 . S
C475 O472 1.247 . S
C475 O473 1.258 . S
C476 O478 1.247 . S
C476 O480 1.258 . S
C477 O484 1.247 . S
C477 O485 1.258 . S
O478 C476 1.247 . S
O478 Zn479 2.028 . S
Zn479 O478 2.028 . S
Zn479 O483 2.035 . S
Zn479 O485 2.035 . S
Zn479 O486 2.028 . S
O480 C476 1.258 . S
O480 Zn481 2.035 . S
Zn481 O480 2.035 . S
Zn481 O482 2.028 . S
Zn481 O484 2.028 . S
Zn481 O487 2.035 . S
O482 Zn481 2.028 . S
O482 C488 1.247 . S
O483 Zn479 2.035 . S
O483 C488 1.258 . S
O484 C477 1.247 . S
O484 Zn481 2.028 . S
O485 C477 1.258 . S
O485 Zn479 2.035 . S
O486 Zn479 2.028 . S
O486 C489 1.247 . S
O487 Zn481 2.035 . S
O487 C489 1.258 . S
C488 O482 1.247 . S
C488 O483 1.258 . S
C489 O486 1.247 . S
C489 O487 1.258 . S
C490 O492 1.247 . S
C490 O494 1.258 . S
C491 O498 1.247 . S
C491 O499 1.258 . S
O492 C490 1.247 . S
O492 Zn493 2.028 . S
Zn493 O492 2.028 . S
Zn493 O497 2.035 . S
Zn493 O499 2.035 . S
Zn493 O500 2.028 . S
O494 C490 1.258 . S
O494 Zn495 2.035 . S
Zn495 O494 2.035 . S
Zn495 O496 2.028 . S
Zn495 O498 2.028 . S
Zn495 O501 2.035 . S
O496 Zn495 2.028 . S
O496 C502 1.247 . S
O497 Zn493 2.035 . S
O497 C502 1.258 . S
O498 C491 1.247 . S
O498 Zn495 2.028 . S
O499 C491 1.258 . S
O499 Zn493 2.035 . S
O500 Zn493 2.028 . S
O500 C503 1.247 . S
O501 Zn495 2.035 . S
O501 C503 1.258 . S
C502 O496 1.247 . S
C502 O497 1.258 . S
C503 O500 1.247 . S
C503 O501 1.258 . S
C504 C505 1.369 . S
C504 C506 1.419 . S
C504 H508 0.930 . S
C505 C504 1.369 . S
C505 C514 1.429 . S
C506 C504 1.419 . S
C506 C507 1.363 . S
C506 H509 0.929 . S
C507 C506 1.363 . S
C507 C513 1.428 . S
H508 C504 0.930 . S
H509 C506 0.929 . S
S510 N511 1.613 . S
S510 N512 1.610 . S
N511 S510 1.613 . S
N511 C514 1.350 . S
N512 S510 1.610 . S
N512 C513 1.351 . S
C513 C507 1.428 . S
C513 N512 1.351 . S
C513 C514 1.434 . S
C514 C505 1.429 . S
C514 N511 1.350 . S
C514 C513 1.434 . S
C515 C516 1.369 . S
C515 C517 1.419 . S
C515 H519 0.930 . S
C516 C515 1.369 . S
C516 C525 1.429 . S
C517 C515 1.419 . S
C517 C518 1.363 . S
C517 H520 0.929 . S
C518 C517 1.363 . S
C518 C524 1.428 . S
H519 C515 0.930 . S
H520 C517 0.929 . S
S521 N522 1.613 . S
S521 N523 1.610 . S
N522 S521 1.613 . S
N522 C525 1.350 . S
N523 S521 1.610 . S
N523 C524 1.351 . S
C524 C518 1.428 . S
C524 N523 1.351 . S
C524 C525 1.434 . S
C525 C516 1.429 . S
C525 N522 1.350 . S
C525 C524 1.434 . S
C526 C527 1.369 . S
C526 C528 1.419 . S
C526 H530 0.930 . S
C527 C526 1.369 . S
C527 C536 1.429 . S
C528 C526 1.419 . S
C528 C529 1.363 . S
C528 H531 0.929 . S
C529 C528 1.363 . S
C529 C535 1.428 . S
H530 C526 0.930 . S
H531 C528 0.929 . S
S532 N533 1.613 . S
S532 N534 1.610 . S
N533 S532 1.613 . S
N533 C536 1.350 . S
N534 S532 1.610 . S
N534 C535 1.351 . S
C535 C529 1.428 . S
C535 N534 1.351 . S
C535 C536 1.434 . S
C536 C527 1.429 . S
C536 N533 1.350 . S
C536 C535 1.434 . S
C537 C538 1.369 . S
C537 C539 1.419 . S
C537 H541 0.930 . S
C538 C537 1.369 . S
C538 C547 1.429 . S
C539 C537 1.419 . S
C539 C540 1.363 . S
C539 H542 0.929 . S
C540 C539 1.363 . S
C540 C546 1.428 . S
H541 C537 0.930 . S
H542 C539 0.929 . S
S543 N544 1.613 . S
S543 N545 1.610 . S
N544 S543 1.613 . S
N544 C547 1.350 . S
N545 S543 1.610 . S
N545 C546 1.351 . S
C546 C540 1.428 . S
C546 N545 1.351 . S
C546 C547 1.434 . S
C547 C538 1.429 . S
C547 N544 1.350 . S
C547 C546 1.434 . S
C548 C549 1.369 . S
C548 C550 1.419 . S
C548 H552 0.930 . S
C549 C548 1.369 . S
C549 C558 1.429 . S
C550 C548 1.419 . S
C550 C551 1.363 . S
C550 H553 0.929 . S
C551 C550 1.363 . S
C551 C557 1.428 . S
H552 C548 0.930 . S
H553 C550 0.929 . S
S554 N555 1.613 . S
S554 N556 1.610 . S
N555 S554 1.613 . S
N555 C558 1.350 . S
N556 S554 1.610 . S
N556 C557 1.351 . S
C557 C551 1.428 . S
C557 N556 1.351 . S
C557 C558 1.434 . S
C558 C549 1.429 . S
C558 N555 1.350 . S
C558 C557 1.434 . S
C559 C560 1.369 . S
C559 C561 1.419 . S
C559 H563 0.930 . S
C560 C559 1.369 . S
C560 C569 1.429 . S
C561 C559 1.419 . S
C561 C562 1.363 . S
C561 H564 0.929 . S
C562 C561 1.363 . S
C562 C568 1.428 . S
H563 C559 0.930 . S
H564 C561 0.929 . S
S565 N566 1.613 . S
S565 N567 1.610 . S
N566 S565 1.613 . S
N566 C569 1.350 . S
N567 S565 1.610 . S
N567 C568 1.351 . S
C568 C562 1.428 . S
C568 N567 1.351 . S
C568 C569 1.434 . S
C569 C560 1.429 . S
C569 N566 1.350 . S
C569 C568 1.434 . S
C570 C571 1.369 . S
C570 C572 1.419 . S
C570 H574 0.930 . S
C571 C570 1.369 . S
C571 C580 1.429 . S
C572 C570 1.419 . S
C572 C573 1.363 . S
C572 H575 0.929 . S
C573 C572 1.363 . S
C573 C579 1.428 . S
H574 C570 0.930 . S
H575 C572 0.929 . S
S576 N577 1.613 . S
S576 N578 1.610 . S
N577 S576 1.613 . S
N577 C580 1.350 . S
N578 S576 1.610 . S
N578 C579 1.351 . S
C579 C573 1.428 . S
C579 N578 1.351 . S
C579 C580 1.434 . S
C580 C571 1.429 . S
C580 N577 1.350 . S
C580 C579 1.434 . S
C581 C582 1.369 . S
C581 C583 1.419 . S
C581 H585 0.930 . S
C582 C581 1.369 . S
C582 C591 1.429 . S
C583 C581 1.419 . S
C583 C584 1.363 . S
C583 H586 0.929 . S
C584 C583 1.363 . S
C584 C590 1.428 . S
H585 C581 0.930 . S
H586 C583 0.929 . S
S587 N588 1.613 . S
S587 N589 1.610 . S
N588 S587 1.613 . S
N588 C591 1.350 . S
N589 S587 1.610 . S
N589 C590 1.351 . S
C590 C584 1.428 . S
C590 N589 1.351 . S
C590 C591 1.434 . S
C591 C582 1.429 . S
C591 N588 1.350 . S
C591 C590 1.434 . S
C592 C593 1.369 . S
C592 C594 1.419 . S
C592 H596 0.930 . S
C593 C592 1.369 . S
C593 C602 1.429 . S
C594 C592 1.419 . S
C594 C595 1.363 . S
C594 H597 0.929 . S
C595 C594 1.363 . S
C595 C601 1.428 . S
H596 C592 0.930 . S
H597 C594 0.929 . S
S598 N599 1.613 . S
S598 N600 1.610 . S
N599 S598 1.613 . S
N599 C602 1.350 . S
N600 S598 1.610 . S
N600 C601 1.351 . S
C601 C595 1.428 . S
C601 N600 1.351 . S
C601 C602 1.434 . S
C602 C593 1.429 . S
C602 N599 1.350 . S
C602 C601 1.434 . S
C603 C604 1.369 . S
C603 C605 1.419 . S
C603 H607 0.930 . S
C604 C603 1.369 . S
C604 C613 1.429 . S
C605 C603 1.419 . S
C605 C606 1.363 . S
C605 H608 0.929 . S
C606 C605 1.363 . S
C606 C612 1.428 . S
H607 C603 0.930 . S
H608 C605 0.929 . S
S609 N610 1.613 . S
S609 N611 1.610 . S
N610 S609 1.613 . S
N610 C613 1.350 . S
N611 S609 1.610 . S
N611 C612 1.351 . S
C612 C606 1.428 . S
C612 N611 1.351 . S
C612 C613 1.434 . S
C613 C604 1.429 . S
C613 N610 1.350 . S
C613 C612 1.434 . S
C614 C615 1.369 . S
C614 C616 1.419 . S
C614 H618 0.930 . S
C615 C614 1.369 . S
C615 C624 1.429 . S
C616 C614 1.419 . S
C616 C617 1.363 . S
C616 H619 0.929 . S
C617 C616 1.363 . S
C617 C623 1.428 . S
H618 C614 0.930 . S
H619 C616 0.929 . S
S620 N621 1.613 . S
S620 N622 1.610 . S
N621 S620 1.613 . S
N621 C624 1.350 . S
N622 S620 1.610 . S
N622 C623 1.351 . S
C623 C617 1.428 . S
C623 N622 1.351 . S
C623 C624 1.434 . S
C624 C615 1.429 . S
C624 N621 1.350 . S
C624 C623 1.434 . S
C625 C626 1.369 . S
C625 C627 1.419 . S
C625 H629 0.930 . S
C626 C625 1.369 . S
C626 C635 1.429 . S
C627 C625 1.419 . S
C627 C628 1.363 . S
C627 H630 0.929 . S
C628 C627 1.363 . S
C628 C634 1.428 . S
H629 C625 0.930 . S
H630 C627 0.929 . S
S631 N632 1.613 . S
S631 N633 1.610 . S
N632 S631 1.613 . S
N632 C635 1.350 . S
N633 S631 1.610 . S
N633 C634 1.351 . S
C634 C628 1.428 . S
C634 N633 1.351 . S
C634 C635 1.434 . S
C635 C626 1.429 . S
C635 N632 1.350 . S
C635 C634 1.434 . S
C636 C637 1.369 1_455 S
C636 C638 1.419 . S
C636 H640 0.930 . S
C637 C636 1.369 1_655 S
C637 C646 1.429 . S
C638 C636 1.419 . S
C638 C639 1.363 . S
C638 H641 0.929 . S
C639 C638 1.363 . S
C639 C645 1.428 1_455 S
H640 C636 0.930 . S
H641 C638 0.929 . S
S642 N643 1.613 . S
S642 N644 1.610 . S
N643 S642 1.613 . S
N643 C646 1.350 . S
N644 S642 1.610 . S
N644 C645 1.351 . S
C645 C639 1.428 1_655 S
C645 N644 1.351 . S
C645 C646 1.434 . S
C646 C637 1.429 . S
C646 N643 1.350 . S
C646 C645 1.434 . S
C647 C648 1.369 . S
C647 C649 1.419 . S
C647 H651 0.930 . S
C648 C647 1.369 . S
C648 C657 1.429 . S
C649 C647 1.419 . S
C649 C650 1.363 . S
C649 H652 0.929 . S
C650 C649 1.363 . S
C650 C656 1.428 . S
H651 C647 0.930 . S
H652 C649 0.929 . S
S653 N654 1.613 . S
S653 N655 1.610 . S
N654 S653 1.613 . S
N654 C657 1.350 . S
N655 S653 1.610 . S
N655 C656 1.351 . S
C656 C650 1.428 . S
C656 N655 1.351 . S
C656 C657 1.434 . S
C657 C648 1.429 . S
C657 N654 1.350 . S
C657 C656 1.434 . S
C658 C659 1.369 . S
C658 C660 1.419 . S
C658 H662 0.930 . S
C659 C658 1.369 . S
C659 C668 1.429 1_545 S
C660 C658 1.419 . S
C660 C661 1.363 1_545 S
C660 H663 0.929 . S
C661 C660 1.363 1_565 S
C661 C667 1.428 . S
H662 C658 0.930 . S
H663 C660 0.929 . S
S664 N665 1.613 . S
S664 N666 1.610 . S
N665 S664 1.613 . S
N665 C668 1.350 . S
N666 S664 1.610 . S
N666 C667 1.351 . S
C667 C661 1.428 . S
C667 N666 1.351 . S
C667 C668 1.434 . S
C668 C659 1.429 1_565 S
C668 N665 1.350 . S
C668 C667 1.434 . S
C669 C670 1.369 . S
C669 C671 1.419 1_556 S
C669 H673 0.930 . S
C670 C669 1.369 . S
C670 C679 1.429 1_545 S
C671 C669 1.419 1_554 S
C671 C672 1.363 1_545 S
C671 H674 0.929 . S
C672 C671 1.363 1_565 S
C672 C678 1.428 . S
H673 C669 0.930 . S
H674 C671 0.929 . S
S675 N676 1.613 . S
S675 N677 1.610 1_556 S
N676 S675 1.613 . S
N676 C679 1.350 . S
N677 S675 1.610 1_554 S
N677 C678 1.351 . S
C678 C672 1.428 . S
C678 N677 1.351 . S
C678 C679 1.434 1_554 S
C679 C670 1.429 1_565 S
C679 N676 1.350 . S
C679 C678 1.434 1_556 S
C680 C681 1.369 . S
C680 C682 1.419 1_556 S
C680 H684 0.930 . S
C681 C680 1.369 . S
C681 C690 1.429 1_655 S
C682 C680 1.419 1_554 S
C682 C683 1.363 1_655 S
C682 H685 0.929 . S
C683 C682 1.363 1_455 S
C683 C689 1.428 . S
H684 C680 0.930 . S
H685 C682 0.929 . S
S686 N687 1.613 1_554 S
S686 N688 1.610 . S
N687 S686 1.613 1_556 S
N687 C690 1.350 . S
N688 S686 1.610 . S
N688 C689 1.351 . S
C689 C683 1.428 . S
C689 N688 1.351 . S
C689 C690 1.434 1_554 S
C690 C681 1.429 1_455 S
C690 N687 1.350 . S
C690 C689 1.434 1_556 S
C691 C692 1.361 1_554 S
C691 C693 1.426 . S
C691 H695 0.931 . S
C692 C691 1.361 1_556 S
C692 C701 1.429 . S
C693 C691 1.426 . S
C693 C694 1.363 . S
C693 H696 0.929 . S
C694 C693 1.363 . S
C694 C700 1.428 1_554 S
H695 C691 0.931 . S
H696 C693 0.929 . S
S697 N698 1.613 . S
S697 N699 1.610 . S
N698 S697 1.613 . S
N698 C701 1.350 . S
N699 S697 1.610 . S
N699 C700 1.351 . S
C700 C694 1.428 1_556 S
C700 N699 1.351 . S
C700 C701 1.434 . S
C701 C692 1.429 . S
C701 N698 1.350 . S
C701 C700 1.434 . S
C702 C703 1.369 . S
C702 C704 1.419 . S
C702 H706 0.930 . S
C703 C702 1.369 . S
C703 C712 1.429 1_556 S
C704 C702 1.419 . S
C704 C705 1.363 1_556 S
C704 H707 0.929 . S
C705 C704 1.363 1_554 S
C705 C711 1.428 . S
H706 C702 0.930 . S
H707 C704 0.929 . S
S708 N709 1.613 1_545 S
S708 N710 1.610 . S
N709 S708 1.613 1_565 S
N709 C712 1.350 1_565 S
N710 S708 1.610 . S
N710 C711 1.351 . S
C711 C705 1.428 . S
C711 N710 1.351 . S
C711 C712 1.434 . S
C712 C703 1.429 1_554 S
C712 N709 1.350 1_545 S
C712 C711 1.434 . S
C713 C714 1.369 1_554 S
C713 C715 1.419 . S
C713 H717 0.930 . S
C714 C713 1.369 1_556 S
C714 C723 1.429 . S
C715 C713 1.419 . S
C715 C716 1.363 . S
C715 H718 0.929 . S
C716 C715 1.363 . S
C716 C722 1.428 . S
H717 C713 0.930 . S
H718 C715 0.929 . S
S719 N720 1.613 . S
S719 N721 1.610 1_556 S
N720 S719 1.613 . S
N720 C723 1.350 . S
N721 S719 1.610 1_554 S
N721 C722 1.351 . S
C722 C716 1.428 . S
C722 N721 1.351 . S
C722 C723 1.434 1_554 S
C723 C714 1.429 . S
C723 N720 1.350 . S
C723 C722 1.434 1_556 S
C724 C725 1.369 . S
C724 C726 1.419 . S
C724 H728 0.930 . S
C725 C724 1.369 . S
C725 C734 1.429 . S
C726 C724 1.419 . S
C726 C727 1.363 1_554 S
C726 H729 0.929 . S
C727 C726 1.363 1_556 S
C727 C733 1.428 . S
H728 C724 0.930 . S
H729 C726 0.929 . S
S730 N731 1.613 . S
S730 N732 1.610 . S
N731 S730 1.613 . S
N731 C734 1.350 1_556 S
N732 S730 1.610 . S
N732 C733 1.351 . S
C733 C727 1.428 . S
C733 N732 1.351 . S
C733 C734 1.434 1_556 S
C734 C725 1.429 . S
C734 N731 1.350 1_554 S
C734 C733 1.434 1_554 S
C735 C736 1.369 . S
C735 C737 1.419 . S
C735 H739 0.930 . S
C736 C735 1.369 . S
C736 C745 1.429 . S
C737 C735 1.419 . S
C737 C738 1.363 . S
C737 H740 0.929 . S
C738 C737 1.363 . S
C738 C744 1.428 . S
H739 C735 0.930 . S
H740 C737 0.929 . S
S741 N742 1.613 . S
S741 N743 1.610 . S
N742 S741 1.613 . S
N742 C745 1.350 . S
N743 S741 1.610 . S
N743 C744 1.351 . S
C744 C738 1.428 . S
C744 N743 1.351 . S
C744 C745 1.434 . S
C745 C736 1.429 . S
C745 N742 1.350 . S
C745 C744 1.434 . S
C746 C747 1.369 . S
C746 C748 1.419 . S
C746 H750 0.930 . S
C747 C746 1.369 . S
C747 C756 1.429 . S
C748 C746 1.419 . S
C748 C749 1.363 . S
C748 H751 0.929 . S
C749 C748 1.363 . S
C749 C755 1.428 . S
H750 C746 0.930 . S
H751 C748 0.929 . S
S752 N753 1.613 . S
S752 N754 1.610 . S
N753 S752 1.613 . S
N753 C756 1.350 . S
N754 S752 1.610 . S
N754 C755 1.351 . S
C755 C749 1.428 . S
C755 N754 1.351 . S
C755 C756 1.434 . S
C756 C747 1.429 . S
C756 N753 1.350 . S
C756 C755 1.434 . S
C757 C758 1.369 . S
C757 C759 1.419 . S
C757 H761 0.930 . S
C758 C757 1.369 . S
C758 C767 1.429 . S
C759 C757 1.419 . S
C759 C760 1.363 . S
C759 H762 0.929 . S
C760 C759 1.363 . S
C760 C766 1.428 . S
H761 C757 0.930 . S
H762 C759 0.929 . S
S763 N764 1.613 . S
S763 N765 1.610 . S
N764 S763 1.613 . S
N764 C767 1.350 . S
N765 S763 1.610 . S
N765 C766 1.351 . S
C766 C760 1.428 . S
C766 N765 1.351 . S
C766 C767 1.434 . S
C767 C758 1.429 . S
C767 N764 1.350 . S
C767 C766 1.434 . S
C768 C769 1.369 . S
C768 C770 1.419 . S
C768 H772 0.930 . S
C769 C768 1.369 . S
C769 C778 1.429 . S
C770 C768 1.419 . S
C770 C771 1.363 1_556 S
C770 H773 0.929 . S
C771 C770 1.363 1_554 S
C771 C777 1.428 . S
H772 C768 0.930 . S
H773 C770 0.929 . S
S774 N775 1.613 . S
S774 N776 1.610 . S
N775 S774 1.613 . S
N775 C778 1.350 1_554 S
N776 S774 1.610 . S
N776 C777 1.351 . S
C777 C771 1.428 . S
C777 N776 1.351 . S
C777 C778 1.434 1_554 S
C778 C769 1.429 . S
C778 N775 1.350 1_556 S
C778 C777 1.434 1_556 S
C779 C780 1.369 1_554 S
C779 C781 1.419 . S
C779 H783 0.930 . S
C780 C779 1.369 1_556 S
C780 C789 1.429 . S
C781 C779 1.419 . S
C781 C782 1.363 . S
C781 H784 0.929 . S
C782 C781 1.363 . S
C782 C788 1.428 1_554 S
H783 C779 0.930 . S
H784 C781 0.929 . S
S785 N786 1.613 . S
S785 N787 1.610 . S
N786 S785 1.613 . S
N786 C789 1.350 . S
N787 S785 1.610 . S
N787 C788 1.351 . S
C788 C782 1.428 1_556 S
C788 N787 1.351 . S
C788 C789 1.434 . S
C789 C780 1.429 . S
C789 N786 1.350 . S
C789 C788 1.434 . S
C790 C791 1.369 . S
C790 C792 1.419 1_556 S
C790 H794 0.930 . S
C791 C790 1.369 . S
C791 C800 1.429 . S
C792 C790 1.419 1_554 S
C792 C793 1.363 . S
C792 H795 0.929 . S
C793 C792 1.363 . S
C793 C799 1.428 1_554 S
H794 C790 0.930 . S
H795 C792 0.929 . S
S796 N797 1.613 . S
S796 N798 1.610 . S
N797 S796 1.613 . S
N797 C800 1.350 . S
N798 S796 1.610 . S
N798 C799 1.351 . S
C799 C793 1.428 1_556 S
C799 N798 1.351 . S
C799 C800 1.434 . S
C800 C791 1.429 . S
C800 N797 1.350 . S
C800 C799 1.434 . S
C801 C802 1.369 . S
C801 C803 1.419 . S
C801 H805 0.930 . S
C802 C801 1.369 . S
C802 C811 1.429 . S
C803 C801 1.419 . S
C803 C804 1.363 . S
C803 H806 0.929 . S
C804 C803 1.363 . S
C804 C810 1.428 . S
H805 C801 0.930 . S
H806 C803 0.929 . S
S807 N808 1.613 . S
S807 N809 1.610 1_655 S
N808 S807 1.613 . S
N808 C811 1.350 . S
N809 S807 1.610 1_455 S
N809 C810 1.351 1_455 S
C810 C804 1.428 . S
C810 N809 1.351 1_655 S
C810 C811 1.434 . S
C811 C802 1.429 . S
C811 N808 1.350 . S
C811 C810 1.434 . S
C812 C813 1.369 . S
C812 C814 1.419 . S
C812 H816 0.930 . S
C813 C812 1.369 . S
C813 C822 1.429 . S
C814 C812 1.419 . S
C814 C815 1.363 . S
C814 H817 0.929 . S
C815 C814 1.363 . S
C815 C821 1.428 . S
H816 C812 0.930 . S
H817 C814 0.929 . S
S818 N819 1.613 . S
S818 N820 1.610 . S
N819 S818 1.613 . S
N819 C822 1.350 . S
N820 S818 1.610 . S
N820 C821 1.351 . S
C821 C815 1.428 . S
C821 N820 1.351 . S
C821 C822 1.434 . S
C822 C813 1.429 . S
C822 N819 1.350 . S
C822 C821 1.434 . S
C823 C824 1.369 . S
C823 C825 1.419 . S
C823 H827 0.930 . S
C824 C823 1.369 . S
C824 C833 1.429 . S
C825 C823 1.419 . S
C825 C826 1.363 . S
C825 H828 0.929 . S
C826 C825 1.363 . S
C826 C832 1.428 . S
H827 C823 0.930 . S
H828 C825 0.929 . S
S829 N830 1.613 . S
S829 N831 1.610 . S
N830 S829 1.613 . S
N830 C833 1.350 . S
N831 S829 1.610 . S
N831 C832 1.351 . S
C832 C826 1.428 . S
C832 N831 1.351 . S
C832 C833 1.434 . S
C833 C824 1.429 . S
C833 N830 1.350 . S
C833 C832 1.434 . S
C834 C835 1.369 . S
C834 C836 1.419 . S
C834 H838 0.930 . S
C835 C834 1.369 . S
C835 C844 1.429 . S
C836 C834 1.419 . S
C836 C837 1.363 . S
C836 H839 0.929 . S
C837 C836 1.363 . S
C837 C843 1.428 . S
H838 C834 0.930 . S
H839 C836 0.929 . S
S840 N841 1.613 . S
S840 N842 1.610 . S
N841 S840 1.613 . S
N841 C844 1.350 . S
N842 S840 1.610 . S
N842 C843 1.351 . S
C843 C837 1.428 . S
C843 N842 1.351 . S
C843 C844 1.434 . S
C844 C835 1.429 . S
C844 N841 1.350 . S
C844 C843 1.434 . S
C845 C846 1.369 . S
C845 C847 1.419 . S
C845 H849 0.930 . S
C846 C845 1.369 . S
C846 C855 1.429 . S
C847 C845 1.419 . S
C847 C848 1.363 . S
C847 H850 0.929 . S
C848 C847 1.363 . S
C848 C854 1.428 . S
H849 C845 0.930 . S
H850 C847 0.929 . S
S851 N852 1.613 . S
S851 N853 1.610 . S
N852 S851 1.613 . S
N852 C855 1.350 . S
N853 S851 1.610 . S
N853 C854 1.351 . S
C854 C848 1.428 . S
C854 N853 1.351 . S
C854 C855 1.434 . S
C855 C846 1.429 . S
C855 N852 1.350 . S
C855 C854 1.434 . S
C856 C857 1.369 . S
C856 C858 1.419 . S
C856 H860 0.930 . S
C857 C856 1.369 . S
C857 C866 1.429 . S
C858 C856 1.419 . S
C858 C859 1.363 . S
C858 H861 0.929 . S
C859 C858 1.363 . S
C859 C865 1.428 . S
H860 C856 0.930 . S
H861 C858 0.929 . S
S862 N863 1.613 . S
S862 N864 1.610 . S
N863 S862 1.613 . S
N863 C866 1.350 . S
N864 S862 1.610 . S
N864 C865 1.351 . S
C865 C859 1.428 . S
C865 N864 1.351 . S
C865 C866 1.434 . S
C866 C857 1.429 . S
C866 N863 1.350 . S
C866 C865 1.434 . S
C867 C868 1.369 . S
C867 C869 1.419 . S
C867 H871 0.930 . S
C868 C867 1.369 . S
C868 C877 1.429 . S
C869 C867 1.419 . S
C869 C870 1.363 . S
C869 H872 0.929 . S
C870 C869 1.363 . S
C870 C876 1.428 . S
H871 C867 0.930 . S
H872 C869 0.929 . S
S873 N874 1.613 . S
S873 N875 1.610 . S
N874 S873 1.613 . S
N874 C877 1.350 . S
N875 S873 1.610 . S
N875 C876 1.351 . S
C876 C870 1.428 . S
C876 N875 1.351 . S
C876 C877 1.434 . S
C877 C868 1.429 . S
C877 N874 1.350 . S
C877 C876 1.434 . S
C878 C879 1.369 . S
C878 C880 1.419 . S
C878 H882 0.930 . S
C879 C878 1.369 . S
C879 C888 1.429 . S
C880 C878 1.419 . S
C880 C881 1.363 . S
C880 H883 0.929 . S
C881 C880 1.363 . S
C881 C887 1.428 . S
H882 C878 0.930 . S
H883 C880 0.929 . S
S884 N885 1.613 . S
S884 N886 1.610 . S
N885 S884 1.613 . S
N885 C888 1.350 . S
N886 S884 1.610 . S
N886 C887 1.351 . S
C887 C881 1.428 . S
C887 N886 1.351 . S
C887 C888 1.434 . S
C888 C879 1.429 . S
C888 N885 1.350 . S
C888 C887 1.434 . S
C889 C890 1.369 . S
C889 C891 1.419 . S
C889 H893 0.930 . S
C890 C889 1.369 . S
C890 C899 1.429 . S
C891 C889 1.419 . S
C891 C892 1.363 . S
C891 H894 0.929 . S
C892 C891 1.363 . S
C892 C898 1.428 . S
H893 C889 0.930 . S
H894 C891 0.929 . S
S895 N896 1.613 . S
S895 N897 1.610 . S
N896 S895 1.613 . S
N896 C899 1.350 . S
N897 S895 1.610 . S
N897 C898 1.351 . S
C898 C892 1.428 . S
C898 N897 1.351 . S
C898 C899 1.434 . S
C899 C890 1.429 . S
C899 N896 1.350 . S
C899 C898 1.434 . S
C900 C901 1.369 . S
C900 C902 1.419 . S
C900 H904 0.930 . S
C901 C900 1.369 . S
C901 C910 1.429 . S
C902 C900 1.419 . S
C902 C903 1.363 . S
C902 H905 0.929 . S
C903 C902 1.363 . S
C903 C909 1.428 . S
H904 C900 0.930 . S
H905 C902 0.929 . S
S906 N907 1.613 . S
S906 N908 1.610 . S
N907 S906 1.613 . S
N907 C910 1.350 . S
N908 S906 1.610 . S
N908 C909 1.351 . S
C909 C903 1.428 . S
C909 N908 1.351 . S
C909 C910 1.434 . S
C910 C901 1.429 . S
C910 N907 1.350 . S
C910 C909 1.434 . S
C911 C912 1.369 . S
C911 C913 1.419 . S
C911 H915 0.930 . S
C912 C911 1.369 . S
C912 C921 1.429 . S
C913 C911 1.419 . S
C913 C914 1.363 . S
C913 H916 0.929 . S
C914 C913 1.363 . S
C914 C920 1.428 . S
H915 C911 0.930 . S
H916 C913 0.929 . S
S917 N918 1.613 . S
S917 N919 1.610 . S
N918 S917 1.613 . S
N918 C921 1.350 . S
N919 S917 1.610 . S
N919 C920 1.351 . S
C920 C914 1.428 . S
C920 N919 1.351 . S
C920 C921 1.434 . S
C921 C912 1.429 . S
C921 N918 1.350 . S
C921 C920 1.434 . S
C922 C923 1.369 . S
C922 C924 1.419 . S
C922 H926 0.930 . S
C923 C922 1.369 . S
C923 C932 1.429 . S
C924 C922 1.419 . S
C924 C925 1.363 . S
C924 H927 0.929 . S
C925 C924 1.363 . S
C925 C931 1.428 . S
H926 C922 0.930 . S
H927 C924 0.929 . S
S928 N929 1.613 . S
S928 N930 1.610 . S
N929 S928 1.613 . S
N929 C932 1.350 . S
N930 S928 1.610 . S
N930 C931 1.351 . S
C931 C925 1.428 . S
C931 N930 1.351 . S
C931 C932 1.434 . S
C932 C923 1.429 . S
C932 N929 1.350 . S
C932 C931 1.434 . S
C933 C934 1.369 . S
C933 C935 1.419 . S
C933 H937 0.930 . S
C934 C933 1.369 . S
C934 C943 1.429 . S
C935 C933 1.419 . S
C935 C936 1.363 . S
C935 H938 0.929 . S
C936 C935 1.363 . S
C936 C942 1.428 . S
H937 C933 0.930 . S
H938 C935 0.929 . S
S939 N940 1.613 . S
S939 N941 1.610 . S
N940 S939 1.613 . S
N940 C943 1.350 . S
N941 S939 1.610 . S
N941 C942 1.351 . S
C942 C936 1.428 . S
C942 N941 1.351 . S
C942 C943 1.434 . S
C943 C934 1.429 . S
C943 N940 1.350 . S
C943 C942 1.434 . S
C944 C945 1.369 . S
C944 C946 1.419 . S
C944 H948 0.930 . S
C945 C944 1.369 . S
C945 C954 1.429 . S
C946 C944 1.419 . S
C946 C947 1.363 . S
C946 H949 0.929 . S
C947 C946 1.363 . S
C947 C953 1.428 . S
H948 C944 0.930 . S
H949 C946 0.929 . S
S950 N951 1.613 . S
S950 N952 1.610 . S
N951 S950 1.613 . S
N951 C954 1.350 . S
N952 S950 1.610 . S
N952 C953 1.351 . S
C953 C947 1.428 . S
C953 N952 1.351 . S
C953 C954 1.434 . S
C954 C945 1.429 . S
C954 N951 1.350 . S
C954 C953 1.434 . S
C955 C956 1.369 . S
C955 C957 1.419 . S
C955 H959 0.930 . S
C956 C955 1.369 . S
C956 C965 1.429 . S
C957 C955 1.419 . S
C957 C958 1.363 . S
C957 H960 0.929 . S
C958 C957 1.363 . S
C958 C964 1.428 . S
H959 C955 0.930 . S
H960 C957 0.929 . S
S961 N962 1.613 . S
S961 N963 1.610 . S
N962 S961 1.613 . S
N962 C965 1.350 . S
N963 S961 1.610 . S
N963 C964 1.351 . S
C964 C958 1.428 . S
C964 N963 1.351 . S
C964 C965 1.434 . S
C965 C956 1.429 . S
C965 N962 1.350 . S
C965 C964 1.434 . S
C966 C967 1.369 . S
C966 C968 1.419 . S
C966 H970 0.930 . S
C967 C966 1.369 . S
C967 C976 1.429 . S
C968 C966 1.419 . S
C968 C969 1.363 . S
C968 H971 0.929 . S
C969 C968 1.363 . S
C969 C975 1.428 . S
H970 C966 0.930 . S
H971 C968 0.929 . S
S972 N973 1.613 . S
S972 N974 1.610 . S
N973 S972 1.613 . S
N973 C976 1.350 . S
N974 S972 1.610 . S
N974 C975 1.351 . S
C975 C969 1.428 . S
C975 N974 1.351 . S
C975 C976 1.434 . S
C976 C967 1.429 . S
C976 N973 1.350 . S
C976 C975 1.434 . S
C977 C978 1.369 . S
C977 C979 1.419 . S
C977 H981 0.930 . S
C978 C977 1.369 . S
C978 C987 1.429 . S
C979 C977 1.419 . S
C979 C980 1.363 . S
C979 H982 0.929 . S
C980 C979 1.363 . S
C980 C986 1.428 . S
H981 C977 0.930 . S
H982 C979 0.929 . S
S983 N984 1.613 . S
S983 N985 1.610 . S
N984 S983 1.613 . S
N984 C987 1.350 . S
N985 S983 1.610 . S
N985 C986 1.351 . S
C986 C980 1.428 . S
C986 N985 1.351 . S
C986 C987 1.434 . S
C987 C978 1.429 . S
C987 N984 1.350 . S
C987 C986 1.434 . S
C988 C989 1.369 . S
C988 C990 1.419 . S
C988 H992 0.930 . S
C989 C988 1.369 . S
C989 C998 1.429 . S
C990 C988 1.419 . S
C990 C991 1.363 . S
C990 H993 0.929 . S
C991 C990 1.363 . S
C991 C997 1.428 . S
H992 C988 0.930 . S
H993 C990 0.929 . S
S994 N995 1.613 . S
S994 N996 1.610 . S
N995 S994 1.613 . S
N995 C998 1.350 . S
N996 S994 1.610 . S
N996 C997 1.351 . S
C997 C991 1.428 . S
C997 N996 1.351 . S
C997 C998 1.434 . S
C998 C989 1.429 . S
C998 N995 1.350 . S
C998 C997 1.434 . S
C999 C1000 1.369 . S
C999 C1001 1.419 . S
C999 H1003 0.930 . S
C1000 C999 1.369 . S
C1000 C1009 1.429 . S
C1001 C999 1.419 . S
C1001 C1002 1.363 . S
C1001 H1004 0.929 . S
C1002 C1001 1.363 . S
C1002 C1008 1.428 . S
H1003 C999 0.930 . S
H1004 C1001 0.929 . S
S1005 N1006 1.613 . S
S1005 N1007 1.610 . S
N1006 S1005 1.613 . S
N1006 C1009 1.350 . S
N1007 S1005 1.610 . S
N1007 C1008 1.351 . S
C1008 C1002 1.428 . S
C1008 N1007 1.351 . S
C1008 C1009 1.434 . S
C1009 C1000 1.429 . S
C1009 N1006 1.350 . S
C1009 C1008 1.434 . S
C1010 C1011 1.369 . S
C1010 C1012 1.419 . S
C1010 H1014 0.930 . S
C1011 C1010 1.369 . S
C1011 C1020 1.429 . S
C1012 C1010 1.419 . S
C1012 C1013 1.363 . S
C1012 H1015 0.929 . S
C1013 C1012 1.363 . S
C1013 C1019 1.428 . S
H1014 C1010 0.930 . S
H1015 C1012 0.929 . S
S1016 N1017 1.613 . S
S1016 N1018 1.610 . S
N1017 S1016 1.613 . S
N1017 C1020 1.350 . S
N1018 S1016 1.610 . S
N1018 C1019 1.351 . S
C1019 C1013 1.428 . S
C1019 N1018 1.351 . S
C1019 C1020 1.434 . S
C1020 C1011 1.429 . S
C1020 N1017 1.350 . S
C1020 C1019 1.434 . S
C1021 C1022 1.369 . S
C1021 C1023 1.419 . S
C1021 H1025 0.930 . S
C1022 C1021 1.369 . S
C1022 C1031 1.429 . S
C1023 C1021 1.419 . S
C1023 C1024 1.363 . S
C1023 H1026 0.929 . S
C1024 C1023 1.363 . S
C1024 C1030 1.428 . S
H1025 C1021 0.930 . S
H1026 C1023 0.929 . S
S1027 N1028 1.613 . S
S1027 N1029 1.610 . S
N1028 S1027 1.613 . S
N1028 C1031 1.350 . S
N1029 S1027 1.610 . S
N1029 C1030 1.351 . S
C1030 C1024 1.428 . S
C1030 N1029 1.351 . S
C1030 C1031 1.434 . S
C1031 C1022 1.429 . S
C1031 N1028 1.350 . S
C1031 C1030 1.434 . S
C1032 C1033 1.369 . S
C1032 C1034 1.419 . S
C1032 H1036 0.930 . S
C1033 C1032 1.369 . S
C1033 C1042 1.429 . S
C1034 C1032 1.419 . S
C1034 C1035 1.363 . S
C1034 H1037 0.929 . S
C1035 C1034 1.363 . S
C1035 C1041 1.428 . S
H1036 C1032 0.930 . S
H1037 C1034 0.929 . S
S1038 N1039 1.613 . S
S1038 N1040 1.610 . S
N1039 S1038 1.613 . S
N1039 C1042 1.350 . S
N1040 S1038 1.610 . S
N1040 C1041 1.351 . S
C1041 C1035 1.428 . S
C1041 N1040 1.351 . S
C1041 C1042 1.434 . S
C1042 C1033 1.429 . S
C1042 N1039 1.350 . S
C1042 C1041 1.434 . S
C1043 C1044 1.369 . S
C1043 C1045 1.419 . S
C1043 H1047 0.930 . S
C1044 C1043 1.369 . S
C1044 C1053 1.429 . S
C1045 C1043 1.419 . S
C1045 C1046 1.363 . S
C1045 H1048 0.929 . S
C1046 C1045 1.363 . S
C1046 C1052 1.428 . S
H1047 C1043 0.930 . S
H1048 C1045 0.929 . S
S1049 N1050 1.613 . S
S1049 N1051 1.610 . S
N1050 S1049 1.613 . S
N1050 C1053 1.350 . S
N1051 S1049 1.610 . S
N1051 C1052 1.351 . S
C1052 C1046 1.428 . S
C1052 N1051 1.351 . S
C1052 C1053 1.434 . S
C1053 C1044 1.429 . S
C1053 N1050 1.350 . S
C1053 C1052 1.434 . S
C1054 C1055 1.369 . S
C1054 C1056 1.419 . S
C1054 H1058 0.930 . S
C1055 C1054 1.369 . S
C1055 C1064 1.429 . S
C1056 C1054 1.419 . S
C1056 C1057 1.363 . S
C1056 H1059 0.929 . S
C1057 C1056 1.363 . S
C1057 C1063 1.428 . S
H1058 C1054 0.930 . S
H1059 C1056 0.929 . S
S1060 N1061 1.613 . S
S1060 N1062 1.610 . S
N1061 S1060 1.613 . S
N1061 C1064 1.350 . S
N1062 S1060 1.610 . S
N1062 C1063 1.351 . S
C1063 C1057 1.428 . S
C1063 N1062 1.351 . S
C1063 C1064 1.434 . S
C1064 C1055 1.429 . S
C1064 N1061 1.350 . S
C1064 C1063 1.434 . S
C1065 C1066 1.369 . S
C1065 C1067 1.419 . S
C1065 H1069 0.930 . S
C1066 C1065 1.369 . S
C1066 C1075 1.429 . S
C1067 C1065 1.419 . S
C1067 C1068 1.363 . S
C1067 H1070 0.929 . S
C1068 C1067 1.363 . S
C1068 C1074 1.428 . S
H1069 C1065 0.930 . S
H1070 C1067 0.929 . S
S1071 N1072 1.613 . S
S1071 N1073 1.610 . S
N1072 S1071 1.613 . S
N1072 C1075 1.350 . S
N1073 S1071 1.610 . S
N1073 C1074 1.351 . S
C1074 C1068 1.428 . S
C1074 N1073 1.351 . S
C1074 C1075 1.434 . S
C1075 C1066 1.429 . S
C1075 N1072 1.350 . S
C1075 C1074 1.434 . S
C1076 C1077 1.369 . S
C1076 C1078 1.419 . S
C1076 H1080 0.930 . S
C1077 C1076 1.369 . S
C1077 C1086 1.429 . S
C1078 C1076 1.419 . S
C1078 C1079 1.363 . S
C1078 H1081 0.929 . S
C1079 C1078 1.363 . S
C1079 C1085 1.428 . S
H1080 C1076 0.930 . S
H1081 C1078 0.929 . S
S1082 N1083 1.613 . S
S1082 N1084 1.610 . S
N1083 S1082 1.613 . S
N1083 C1086 1.350 . S
N1084 S1082 1.610 . S
N1084 C1085 1.351 . S
C1085 C1079 1.428 . S
C1085 N1084 1.351 . S
C1085 C1086 1.434 . S
C1086 C1077 1.429 . S
C1086 N1083 1.350 . S
C1086 C1085 1.434 . S
C1087 C1088 1.369 . S
C1087 C1089 1.419 . S
C1087 H1091 0.930 . S
C1088 C1087 1.369 . S
C1088 C1097 1.429 . S
C1089 C1087 1.419 . S
C1089 C1090 1.363 . S
C1089 H1092 0.929 . S
C1090 C1089 1.363 . S
C1090 C1096 1.428 . S
H1091 C1087 0.930 . S
H1092 C1089 0.929 . S
S1093 N1094 1.613 . S
S1093 N1095 1.610 . S
N1094 S1093 1.613 . S
N1094 C1097 1.350 . S
N1095 S1093 1.610 . S
N1095 C1096 1.351 . S
C1096 C1090 1.428 . S
C1096 N1095 1.351 . S
C1096 C1097 1.434 . S
C1097 C1088 1.429 . S
C1097 N1094 1.350 . S
C1097 C1096 1.434 . S
C1098 C1099 1.369 . S
C1098 C1100 1.419 . S
C1098 H1102 0.930 . S
C1099 C1098 1.369 . S
C1099 C1108 1.429 . S
C1100 C1098 1.419 . S
C1100 C1101 1.363 . S
C1100 H1103 0.929 . S
C1101 C1100 1.363 . S
C1101 C1107 1.428 . S
H1102 C1098 0.930 . S
H1103 C1100 0.929 . S
S1104 N1105 1.613 . S
S1104 N1106 1.610 . S
N1105 S1104 1.613 . S
N1105 C1108 1.350 . S
N1106 S1104 1.610 . S
N1106 C1107 1.351 . S
C1107 C1101 1.428 . S
C1107 N1106 1.351 . S
C1107 C1108 1.434 . S
C1108 C1099 1.429 . S
C1108 N1105 1.350 . S
C1108 C1107 1.434 . S
C1109 C1110 1.369 . S
C1109 C1111 1.419 . S
C1109 H1113 0.930 . S
C1110 C1109 1.369 . S
C1110 C1119 1.429 . S
C1111 C1109 1.419 . S
C1111 C1112 1.363 . S
C1111 H1114 0.929 . S
C1112 C1111 1.363 . S
C1112 C1118 1.428 1_565 S
H1113 C1109 0.930 . S
H1114 C1111 0.929 . S
S1115 N1116 1.613 . S
S1115 N1117 1.610 . S
N1116 S1115 1.613 . S
N1116 C1119 1.350 1_545 S
N1117 S1115 1.610 . S
N1117 C1118 1.351 . S
C1118 C1112 1.428 1_545 S
C1118 N1117 1.351 . S
C1118 C1119 1.434 1_545 S
C1119 C1110 1.429 . S
C1119 N1116 1.350 1_565 S
C1119 C1118 1.434 1_565 S
C1120 C1121 1.369 . S
C1120 C1122 1.419 . S
C1120 H1124 0.930 . S
C1121 C1120 1.369 . S
C1121 C1130 1.429 . S
C1122 C1120 1.419 . S
C1122 C1123 1.363 . S
C1122 H1125 0.929 . S
C1123 C1122 1.363 . S
C1123 C1129 1.428 . S
H1124 C1120 0.930 . S
H1125 C1122 0.929 . S
S1126 N1127 1.613 . S
S1126 N1128 1.610 . S
N1127 S1126 1.613 . S
N1127 C1130 1.350 . S
N1128 S1126 1.610 . S
N1128 C1129 1.351 . S
C1129 C1123 1.428 . S
C1129 N1128 1.351 . S
C1129 C1130 1.434 . S
C1130 C1121 1.429 . S
C1130 N1127 1.350 . S
C1130 C1129 1.434 . S
C1131 C1132 1.369 . S
C1131 C1133 1.419 . S
C1131 H1135 0.930 . S
C1132 C1131 1.369 . S
C1132 C1141 1.429 . S
C1133 C1131 1.419 . S
C1133 C1134 1.363 . S
C1133 H1136 0.929 . S
C1134 C1133 1.363 . S
C1134 C1140 1.428 . S
H1135 C1131 0.930 . S
H1136 C1133 0.929 . S
S1137 N1138 1.613 . S
S1137 N1139 1.610 . S
N1138 S1137 1.613 . S
N1138 C1141 1.350 . S
N1139 S1137 1.610 . S
N1139 C1140 1.351 . S
C1140 C1134 1.428 . S
C1140 N1139 1.351 . S
C1140 C1141 1.434 . S
C1141 C1132 1.429 . S
C1141 N1138 1.350 . S
C1141 C1140 1.434 . S
C1142 C1143 1.369 . S
C1142 C1144 1.419 . S
C1142 H1146 0.930 . S
C1143 C1142 1.369 . S
C1143 C1152 1.429 . S
C1144 C1142 1.419 . S
C1144 C1145 1.363 . S
C1144 H1147 0.929 . S
C1145 C1144 1.363 . S
C1145 C1151 1.428 1_545 S
H1146 C1142 0.930 . S
H1147 C1144 0.929 . S
S1148 N1149 1.613 . S
S1148 N1150 1.610 . S
N1149 S1148 1.613 . S
N1149 C1152 1.350 1_565 S
N1150 S1148 1.610 . S
N1150 C1151 1.351 . S
C1151 C1145 1.428 1_565 S
C1151 N1150 1.351 . S
C1151 C1152 1.434 1_565 S
C1152 C1143 1.429 . S
C1152 N1149 1.350 1_545 S
C1152 C1151 1.434 1_545 S
C1153 C1154 1.369 . S
C1153 C1155 1.419 . S
C1153 H1157 0.930 . S
C1154 C1153 1.369 . S
C1154 C1163 1.429 1_655 S
C1155 C1153 1.419 . S
C1155 C1156 1.363 . S
C1155 H1158 0.929 . S
C1156 C1155 1.363 . S
C1156 C1162 1.428 . S
H1157 C1153 0.930 . S
H1158 C1155 0.929 . S
S1159 N1160 1.613 . S
S1159 N1161 1.610 . S
N1160 S1159 1.613 . S
N1160 C1163 1.350 . S
N1161 S1159 1.610 . S
N1161 C1162 1.351 1_455 S
C1162 C1156 1.428 . S
C1162 N1161 1.351 1_655 S
C1162 C1163 1.434 1_655 S
C1163 C1154 1.429 1_455 S
C1163 N1160 1.350 . S
C1163 C1162 1.434 1_455 S
C1164 C1165 1.369 . S
C1164 C1166 1.419 . S
C1164 H1168 0.930 . S
C1165 C1164 1.369 . S
C1165 C1174 1.429 . S
C1166 C1164 1.419 . S
C1166 C1167 1.363 . S
C1166 H1169 0.929 . S
C1167 C1166 1.363 . S
C1167 C1173 1.428 . S
H1168 C1164 0.930 . S
H1169 C1166 0.929 . S
S1170 N1171 1.613 . S
S1170 N1172 1.610 . S
N1171 S1170 1.613 . S
N1171 C1174 1.350 . S
N1172 S1170 1.610 . S
N1172 C1173 1.351 . S
C1173 C1167 1.428 . S
C1173 N1172 1.351 . S
C1173 C1174 1.434 . S
C1174 C1165 1.429 . S
C1174 N1171 1.350 . S
C1174 C1173 1.434 . S
C1175 C1176 1.369 . S
C1175 C1177 1.419 . S
C1175 H1179 0.930 . S
C1176 C1175 1.369 . S
C1176 C1185 1.429 . S
C1177 C1175 1.419 . S
C1177 C1178 1.363 . S
C1177 H1180 0.929 . S
C1178 C1177 1.363 . S
C1178 C1184 1.428 . S
H1179 C1175 0.930 . S
H1180 C1177 0.929 . S
S1181 N1182 1.613 1_554 S
S1181 N1183 1.610 1_564 S
N1182 S1181 1.613 1_556 S
N1182 C1185 1.349 1_565 S
N1183 S1181 1.610 1_546 S
N1183 C1184 1.351 . S
C1184 C1178 1.428 . S
C1184 N1183 1.351 . S
C1184 C1185 1.434 . S
C1185 C1176 1.429 . S
C1185 N1182 1.349 1_545 S
C1185 C1184 1.434 . S
C1186 C1187 1.369 . S
C1186 C1188 1.419 . S
C1186 H1190 0.930 . S
C1187 C1186 1.369 . S
C1187 C1196 1.429 1_655 S
C1188 C1186 1.419 . S
C1188 C1189 1.363 . S
C1188 H1191 0.929 . S
C1189 C1188 1.363 . S
C1189 C1195 1.428 . S
H1190 C1186 0.930 . S
H1191 C1188 0.929 . S
S1192 N1193 1.613 . S
S1192 N1194 1.610 . S
N1193 S1192 1.613 . S
N1193 C1196 1.350 . S
N1194 S1192 1.610 . S
N1194 C1195 1.351 1_455 S
C1195 C1189 1.428 . S
C1195 N1194 1.351 1_655 S
C1195 C1196 1.434 1_655 S
C1196 C1187 1.429 1_455 S
C1196 N1193 1.350 . S
C1196 C1195 1.434 1_455 S
C1197 C1198 1.369 . S
C1197 C1199 1.419 . S
C1197 H1201 0.930 . S
C1198 C1197 1.369 . S
C1198 C1207 1.429 . S
C1199 C1197 1.419 . S
C1199 C1200 1.363 . S
C1199 H1202 0.929 . S
C1200 C1199 1.363 . S
C1200 C1206 1.428 . S
H1201 C1197 0.930 . S
H1202 C1199 0.929 . S
S1203 N1204 1.613 . S
S1203 N1205 1.610 . S
N1204 S1203 1.613 . S
N1204 C1207 1.350 . S
N1205 S1203 1.610 . S
N1205 C1206 1.351 . S
C1206 C1200 1.428 . S
C1206 N1205 1.351 . S
C1206 C1207 1.434 . S
C1207 C1198 1.429 . S
C1207 N1204 1.350 . S
C1207 C1206 1.434 . S
C1208 C1209 1.369 . S
C1208 C1210 1.419 . S
C1208 H1212 0.930 . S
C1209 C1208 1.369 . S
C1209 C1218 1.429 . S
C1210 C1208 1.419 . S
C1210 C1211 1.363 . S
C1210 H1213 0.929 . S
C1211 C1210 1.363 . S
C1211 C1217 1.428 . S
H1212 C1208 0.930 . S
H1213 C1210 0.929 . S
S1214 N1215 1.613 . S
S1214 N1216 1.610 . S
N1215 S1214 1.613 . S
N1215 C1218 1.350 . S
N1216 S1214 1.610 . S
N1216 C1217 1.351 . S
C1217 C1211 1.428 . S
C1217 N1216 1.351 . S
C1217 C1218 1.434 . S
C1218 C1209 1.429 . S
C1218 N1215 1.350 . S
C1218 C1217 1.434 . S
C1219 C1220 1.369 . S
C1219 C1221 1.419 . S
C1219 H1223 0.930 . S
C1220 C1219 1.369 . S
C1220 C1229 1.429 . S
C1221 C1219 1.419 . S
C1221 C1222 1.363 . S
C1221 H1224 0.929 . S
C1222 C1221 1.363 . S
C1222 C1228 1.428 . S
H1223 C1219 0.930 . S
H1224 C1221 0.929 . S
S1225 N1226 1.613 1_655 S
S1225 N1227 1.610 . S
N1226 S1225 1.613 1_455 S
N1226 C1229 1.350 . S
N1227 S1225 1.610 . S
N1227 C1228 1.351 1_655 S
C1228 C1222 1.428 . S
C1228 N1227 1.351 1_455 S
C1228 C1229 1.434 . S
C1229 C1220 1.429 . S
C1229 N1226 1.350 . S
C1229 C1228 1.434 . S
C1230 C1231 1.369 . S
C1230 C1232 1.419 1_655 S
C1230 H1234 0.930 . S
C1231 C1230 1.369 . S
C1231 C1240 1.429 . S
C1232 C1230 1.419 1_455 S
C1232 C1233 1.363 . S
C1232 H1235 0.929 . S
C1233 C1232 1.363 . S
C1233 C1239 1.428 . S
H1234 C1230 0.930 . S
H1235 C1232 0.929 . S
S1236 N1237 1.613 1_455 S
S1236 N1238 1.610 . S
N1237 S1236 1.613 1_655 S
N1237 C1240 1.350 . S
N1238 S1236 1.610 . S
N1238 C1239 1.351 . S
C1239 C1233 1.428 . S
C1239 N1238 1.351 . S
C1239 C1240 1.434 1_455 S
C1240 C1231 1.429 . S
C1240 N1237 1.350 . S
C1240 C1239 1.434 1_655 S
C1241 C1242 1.369 . S
C1241 C1243 1.419 . S
C1241 H1245 0.930 . S
C1242 C1241 1.369 . S
C1242 C1251 1.429 . S
C1243 C1241 1.419 . S
C1243 C1244 1.363 . S
C1243 H1246 0.929 . S
C1244 C1243 1.363 . S
C1244 C1250 1.428 . S
H1245 C1241 0.930 . S
H1246 C1243 0.929 . S
S1247 N1248 1.613 . S
S1247 N1249 1.610 . S
N1248 S1247 1.613 . S
N1248 C1251 1.350 . S
N1249 S1247 1.610 . S
N1249 C1250 1.351 . S
C1250 C1244 1.428 . S
C1250 N1249 1.351 . S
C1250 C1251 1.434 . S
C1251 C1242 1.429 . S
C1251 N1248 1.350 . S
C1251 C1250 1.434 . S
C1252 C1253 1.369 . S
C1252 C1254 1.419 1_565 S
C1252 H1256 0.930 . S
C1253 C1252 1.369 . S
C1253 C1262 1.429 . S
C1254 C1252 1.419 1_545 S
C1254 C1255 1.363 . S
C1254 H1257 0.929 . S
C1255 C1254 1.363 . S
C1255 C1261 1.428 . S
H1256 C1252 0.930 . S
H1257 C1254 0.929 . S
S1258 N1259 1.613 1_545 S
S1258 N1260 1.610 . S
N1259 S1258 1.613 1_565 S
N1259 C1262 1.350 . S
N1260 S1258 1.610 . S
N1260 C1261 1.351 . S
C1261 C1255 1.428 . S
C1261 N1260 1.351 . S
C1261 C1262 1.434 1_545 S
C1262 C1253 1.429 . S
C1262 N1259 1.350 . S
C1262 C1261 1.434 1_565 S
C1263 C1264 1.369 . S
C1263 C1265 1.419 1_565 S
C1263 H1267 0.930 . S
C1264 C1263 1.369 . S
C1264 C1273 1.429 . S
C1265 C1263 1.419 1_545 S
C1265 C1266 1.363 . S
C1265 H1268 0.929 . S
C1266 C1265 1.363 . S
C1266 C1272 1.428 . S
H1267 C1263 0.930 . S
H1268 C1265 0.929 . S
S1269 N1270 1.613 . S
S1269 N1271 1.610 1_565 S
N1270 S1269 1.613 . S
N1270 C1273 1.350 . S
N1271 S1269 1.610 1_545 S
N1271 C1272 1.351 . S
C1272 C1266 1.428 . S
C1272 N1271 1.351 . S
C1272 C1273 1.434 1_545 S
C1273 C1264 1.429 . S
C1273 N1270 1.350 . S
C1273 C1272 1.434 1_565 S
C1274 C1275 1.369 . S
C1274 C1276 1.419 1_655 S
C1274 H1278 0.930 . S
C1275 C1274 1.369 . S
C1275 C1284 1.429 . S
C1276 C1274 1.419 1_455 S
C1276 C1277 1.363 . S
C1276 H1279 0.929 . S
C1277 C1276 1.363 . S
C1277 C1283 1.428 . S
H1278 C1274 0.930 . S
H1279 C1276 0.929 . S
S1280 N1281 1.613 . S
S1280 N1282 1.610 1_655 S
N1281 S1280 1.613 . S
N1281 C1284 1.350 . S
N1282 S1280 1.610 1_455 S
N1282 C1283 1.351 . S
C1283 C1277 1.428 . S
C1283 N1282 1.351 . S
C1283 C1284 1.434 1_455 S
C1284 C1275 1.429 . S
C1284 N1281 1.350 . S
C1284 C1283 1.434 1_655 S
C1285 C1286 1.369 . S
C1285 C1287 1.419 . S
C1285 H1289 0.930 . S
C1286 C1285 1.369 . S
C1286 C1295 1.429 . S
C1287 C1285 1.419 . S
C1287 C1288 1.363 . S
C1287 H1290 0.929 . S
C1288 C1287 1.363 . S
C1288 C1294 1.428 . S
H1289 C1285 0.930 . S
H1290 C1287 0.929 . S
S1291 N1292 1.613 . S
S1291 N1293 1.610 . S
N1292 S1291 1.613 . S
N1292 C1295 1.350 . S
N1293 S1291 1.610 . S
N1293 C1294 1.351 . S
C1294 C1288 1.428 . S
C1294 N1293 1.351 . S
C1294 C1295 1.434 . S
C1295 C1286 1.429 . S
C1295 N1292 1.350 . S
C1295 C1294 1.434 . S
C505 C0 1.542 . S
C507 C265 1.540 . S
C516 C15 1.541 . S
C518 C267 1.542 . S
C527 C293 1.541 . S
C529 C41 1.542 . S
C538 C55 1.540 . S
C540 C462 1.543 . S
C549 C476 1.543 . S
C551 C57 1.541 . S
C560 C71 1.543 . S
C562 C490 1.540 . S
C571 C349 1.540 . S
C573 C97 1.543 . S
C582 C99 1.542 . S
C584 C362 1.540 . S
C593 C125 1.541 . S
C595 C376 1.541 . S
C604 C139 1.540 . S
C606 C223 1.543 . S
C615 C236 1.543 . S
C617 C140 1.541 . S
C626 C154 1.540 . S
C628 C251 1.543 . S
C637 C168 1.539 . S
C639 C420 1.543 . S
C648 C183 1.543 . S
C650 C435 1.540 . S
C659 C209 1.541 . S
C661 C461 1.542 . S
C670 C294 1.541 . S
C672 C391 1.542 . S
C681 C308 1.540 . S
C683 C393 1.543 . S
C692 C322 1.541 . S
C694 C418 1.541 . S
C703 C98 1.612 1_545 S
C705 C13 1.593 . S
C714 C124 1.612 1_655 S
C716 C26 1.589 . S
C725 C28 1.590 . S
C727 C96 1.612 . S
C736 C155 1.612 1_455 S
C738 C42 1.591 . S
C747 C138 1.614 . S
C749 C68 1.589 . S
C758 C141 1.612 1_565 S
C760 C82 1.591 . S
C769 C84 1.589 . S
C771 C14 1.613 1_565 S
C780 C110 1.593 . S
C782 C40 1.613 1_455 S
C791 C112 1.591 . S
C793 C1 1.614 . S
C802 C126 1.593 . S
C804 C70 1.612 1_655 S
C813 C54 1.613 . S
C815 C153 1.591 . S
C824 C56 1.614 1_545 S
C826 C167 1.589 . S
C835 C181 1.593 . S
C837 C266 1.612 . S
C846 C194 1.586 . S
C848 C292 1.614 . S
C857 C196 1.590 . S
C859 C264 1.614 . S
C868 C323 1.614 . S
C870 C210 1.586 . S
C879 C225 1.589 . S
C881 C295 1.613 . S
C890 C309 1.613 . S
C892 C238 1.590 . S
C901 C252 1.593 . S
C903 C182 1.612 . S
C912 C208 1.612 . S
C914 C278 1.591 . S
C923 C169 1.612 . S
C925 C280 1.591 . S
C934 C307 1.586 . S
C936 C250 1.614 . S
C945 C321 1.589 . S
C947 C222 1.614 . S
C956 C335 1.587 . S
C958 C237 1.613 . S
C967 C434 1.612 . S
C969 C336 1.589 . S
C978 C351 1.592 . S
C980 C460 1.612 . S
C989 C365 1.594 . S
C991 C421 1.613 . S
C1000 C491 1.613 . S
C1002 C378 1.590 . S
C1011 C463 1.612 . S
C1013 C404 1.591 . S
C1022 C477 1.614 . S
C1024 C407 1.588 . S
C1033 C363 1.615 . S
C1035 C433 1.587 . S
C1044 C377 1.612 . S
C1046 C446 1.591 . S
C1055 C348 1.612 . S
C1057 C448 1.590 . S
C1066 C475 1.586 . S
C1068 C419 1.613 . S
C1077 C390 1.614 . S
C1079 C489 1.586 . S
C1088 C503 1.591 . S
C1090 C392 1.612 . S
C1099 C12 1.720 . S
C1101 C406 1.725 . S
C1110 C379 1.723 . S
C1112 C27 1.724 1_565 S
C1121 C29 1.728 1_455 S
C1123 C405 1.723 . S
C1132 C43 1.722 . S
C1134 C195 1.725 . S
C1143 C197 1.724 . S
C1145 C69 1.723 1_545 S
C1154 C83 1.725 1_655 S
C1156 C180 1.720 . S
C1165 C334 1.722 . S
C1167 C85 1.725 . S
C1176 C111 1.719 1_545 S
C1178 C306 1.727 . S
C1187 C113 1.719 1_655 S
C1189 C320 1.726 . S
C1198 C127 1.726 . S
C1200 C447 1.720 . S
C1209 C152 1.727 1_565 S
C1211 C449 1.719 . S
C1220 C432 1.726 . S
C1222 C166 1.722 1_455 S
C1231 C211 1.727 . S
C1233 C350 1.723 . S
C1242 C364 1.720 . S
C1244 C224 1.725 . S
C1253 C337 1.728 . S
C1255 C239 1.722 . S
C1264 C502 1.721 . S
C1266 C253 1.724 . S
C1275 C279 1.719 . S
C1277 C474 1.726 . S
C1286 C281 1.719 . S
C1288 C488 1.725 . S
