# Generated by pormake.
# Topology whv, (6)-cn, num edge types: 1
# Building blocks:
#     Node 0, Type 0, BuildingBlock: VOLQOD_clean_sbu_1, # of connection points: 6
#     Node 1, Type 0, BuildingBlock: VOLQOD_clean_sbu_1, # of connection points: 6
#     Node 2, Type 0, BuildingBlock: VOLQOD_clean_sbu_1, # of connection points: 6
#     Node 3, Type 0, BuildingBlock: VOLQOD_clean_sbu_1, # of connection points: 6
#     Node 4, Type 0, BuildingBlock: VOLQOD_clean_sbu_1, # of connection points: 6
#     Node 5, Type 0, BuildingBlock: VOLQOD_clean_sbu_1, # of connection points: 6
#     Node 6, Type 0, BuildingBlock: VOLQOD_clean_sbu_1, # of connection points: 6
#     Node 7, Type 0, BuildingBlock: VOLQOD_clean_sbu_1, # of connection points: 6
#     Node 8, Type 0, BuildingBlock: VOLQOD_clean_sbu_1, # of connection points: 6
#     Node 9, Type 0, BuildingBlock: VOLQOD_clean_sbu_1, # of connection points: 6
#     Node 10, Type 0, BuildingBlock: VOLQOD_clean_sbu_1, # of connection points: 6
#     Node 11, Type 0, BuildingBlock: VOLQOD_clean_sbu_1, # of connection points: 6
#     Node 12, Type 0, BuildingBlock: VOLQOD_clean_sbu_1, # of connection points: 6
#     Node 13, Type 0, BuildingBlock: VOLQOD_clean_sbu_1, # of connection points: 6
#     Node 14, Type 0, BuildingBlock: VOLQOD_clean_sbu_1, # of connection points: 6
#     Node 15, Type 0, BuildingBlock: VOLQOD_clean_sbu_1, # of connection points: 6
#     Edge 16, Type (0, 0), BuildingBlock: XUDNAN_clean_linker_2, # of connection points: 2
#     Edge 17, Type (0, 0), BuildingBlock: XUDNAN_clean_linker_2, # of connection points: 2
#     Edge 18, Type (0, 0), BuildingBlock: XUDNAN_clean_linker_2, # of connection points: 2
#     Edge 19, Type (0, 0), BuildingBlock: XUDNAN_clean_linker_2, # of connection points: 2
#     Edge 20, Type (0, 0), BuildingBlock: XUDNAN_clean_linker_2, # of connection points: 2
#     Edge 21, Type (0, 0), BuildingBlock: XUDNAN_clean_linker_2, # of connection points: 2
#     Edge 22, Type (0, 0), BuildingBlock: XUDNAN_clean_linker_2, # of connection points: 2
#     Edge 23, Type (0, 0), BuildingBlock: XUDNAN_clean_linker_2, # of connection points: 2
#     Edge 24, Type (0, 0), BuildingBlock: XUDNAN_clean_linker_2, # of connection points: 2
#     Edge 25, Type (0, 0), BuildingBlock: XUDNAN_clean_linker_2, # of connection points: 2
#     Edge 26, Type (0, 0), BuildingBlock: XUDNAN_clean_linker_2, # of connection points: 2
#     Edge 27, Type (0, 0), BuildingBlock: XUDNAN_clean_linker_2, # of connection points: 2
#     Edge 28, Type (0, 0), BuildingBlock: XUDNAN_clean_linker_2, # of connection points: 2
#     Edge 29, Type (0, 0), BuildingBlock: XUDNAN_clean_linker_2, # of connection points: 2
#     Edge 30, Type (0, 0), BuildingBlock: XUDNAN_clean_linker_2, # of connection points: 2
#     Edge 31, Type (0, 0), BuildingBlock: XUDNAN_clean_linker_2, # of connection points: 2
#     Edge 32, Type (0, 0), BuildingBlock: XUDNAN_clean_linker_2, # of connection points: 2
#     Edge 33, Type (0, 0), BuildingBlock: XUDNAN_clean_linker_2, # of connection points: 2
#     Edge 34, Type (0, 0), BuildingBlock: XUDNAN_clean_linker_2, # of connection points: 2
#     Edge 35, Type (0, 0), BuildingBlock: XUDNAN_clean_linker_2, # of connection points: 2
#     Edge 36, Type (0, 0), BuildingBlock: XUDNAN_clean_linker_2, # of connection points: 2
#     Edge 37, Type (0, 0), BuildingBlock: XUDNAN_clean_linker_2, # of connection points: 2
#     Edge 38, Type (0, 0), BuildingBlock: XUDNAN_clean_linker_2, # of connection points: 2
#     Edge 39, Type (0, 0), BuildingBlock: XUDNAN_clean_linker_2, # of connection points: 2
#     Edge 40, Type (0, 0), BuildingBlock: XUDNAN_clean_linker_2, # of connection points: 2
#     Edge 41, Type (0, 0), BuildingBlock: XUDNAN_clean_linker_2, # of connection points: 2
#     Edge 42, Type (0, 0), BuildingBlock: XUDNAN_clean_linker_2, # of connection points: 2
#     Edge 43, Type (0, 0), BuildingBlock: XUDNAN_clean_linker_2, # of connection points: 2
#     Edge 44, Type (0, 0), BuildingBlock: XUDNAN_clean_linker_2, # of connection points: 2
#     Edge 45, Type (0, 0), BuildingBlock: XUDNAN_clean_linker_2, # of connection points: 2
#     Edge 46, Type (0, 0), BuildingBlock: XUDNAN_clean_linker_2, # of connection points: 2
#     Edge 47, Type (0, 0), BuildingBlock: XUDNAN_clean_linker_2, # of connection points: 2
#     Edge 48, Type (0, 0), BuildingBlock: XUDNAN_clean_linker_2, # of connection points: 2
#     Edge 49, Type (0, 0), BuildingBlock: XUDNAN_clean_linker_2, # of connection points: 2
#     Edge 50, Type (0, 0), BuildingBlock: XUDNAN_clean_linker_2, # of connection points: 2
#     Edge 51, Type (0, 0), BuildingBlock: XUDNAN_clean_linker_2, # of connection points: 2
#     Edge 52, Type (0, 0), BuildingBlock: XUDNAN_clean_linker_2, # of connection points: 2
#     Edge 53, Type (0, 0), BuildingBlock: XUDNAN_clean_linker_2, # of connection points: 2
#     Edge 54, Type (0, 0), BuildingBlock: XUDNAN_clean_linker_2, # of connection points: 2
#     Edge 55, Type (0, 0), BuildingBlock: XUDNAN_clean_linker_2, # of connection points: 2
#     Edge 56, Type (0, 0), BuildingBlock: XUDNAN_clean_linker_2, # of connection points: 2
#     Edge 57, Type (0, 0), BuildingBlock: XUDNAN_clean_linker_2, # of connection points: 2
#     Edge 58, Type (0, 0), BuildingBlock: XUDNAN_clean_linker_2, # of connection points: 2
#     Edge 59, Type (0, 0), BuildingBlock: XUDNAN_clean_linker_2, # of connection points: 2
#     Edge 60, Type (0, 0), BuildingBlock: XUDNAN_clean_linker_2, # of connection points: 2
#     Edge 61, Type (0, 0), BuildingBlock: XUDNAN_clean_linker_2, # of connection points: 2
#     Edge 62, Type (0, 0), BuildingBlock: XUDNAN_clean_linker_2, # of connection points: 2
#     Edge 63, Type (0, 0), BuildingBlock: XUDNAN_clean_linker_2, # of connection points: 2
# Relax obj value: 0.298
# Max RMSD: 0.250
# Mean RMSD: 0.250
data_MOF--net-whv--node1-VOLQOD_clean_sbu_1--edge1-XUDNAN_clean_linker_2
_symmetry_space_group_name_H-M    P1
_symmetry_Int_Tables_number       1
_symmetry_cell_setting            triclinic
loop_
_symmetry_equiv_pos_as_xyz
'x, y, z'
_cell_length_a     53.792475
_cell_length_b     53.825475
_cell_length_c     26.970211
_cell_angle_alpha  90.012838
_cell_angle_beta   89.96029
_cell_angle_gamma 89.993496
loop_
_atom_site_label
_atom_site_type_symbol
_atom_site_fract_x
_atom_site_fract_y
_atom_site_fract_z
_atom_type_partial_charge
O0 O 0.2881 0.20308 0.93332 0.0
Zn1 Zn 0.3043 0.17487 0.96845 0.0
O2 O 0.31484 0.18642 0.03339 0.0
Zn3 Zn 0.35091 0.18651 0.03589 0.0
Zn4 Zn 0.30159 0.21913 0.04737 0.0
Zn5 Zn 0.30113 0.16457 0.08271 0.0
O6 O 0.36266 0.16073 0.08577 0.0
O7 O 0.32742 0.14098 0.10479 0.0
O8 O 0.33289 0.16289 0.92531 0.0
O9 O 0.36496 0.17513 0.9708 0.0
O10 O 0.36451 0.22164 0.04392 0.0
O11 O 0.32938 0.2434 0.04691 0.0
O12 O 0.28532 0.22161 0.11471 0.0
O13 O 0.27682 0.14964 0.97414 0.0
O14 O 0.28985 0.1832 0.14275 0.0
O15 O 0.27095 0.14708 0.0555 0.0
C16 C 0.27737 0.22286 0.9479 0.0
C17 C 0.35104 0.14275 0.10642 0.0
C18 C 0.35298 0.24235 0.04582 0.0
C19 C 0.35624 0.16578 0.93113 0.0
C20 C 0.28331 0.20566 0.14935 0.0
C21 C 0.26425 0.14214 0.01129 0.0
O22 O 0.27884 0.23025 0.9927 0.0
O23 O 0.53453 0.56133 0.17205 0.0
Zn24 Zn 0.56766 0.56842 0.20118 0.0
O25 O 0.56472 0.57206 0.27186 0.0
Zn26 Zn 0.56969 0.60631 0.29021 0.0
Zn27 Zn 0.53238 0.56008 0.28831 0.0
Zn28 Zn 0.58744 0.55092 0.30542 0.0
O29 O 0.59984 0.60926 0.33739 0.0
O30 O 0.61639 0.57184 0.32304 0.0
O31 O 0.5815 0.59881 0.1669 0.0
O32 O 0.58082 0.62531 0.22993 0.0
O33 O 0.53569 0.62188 0.30691 0.0
O34 O 0.51071 0.5896 0.29253 0.0
O35 O 0.53197 0.54254 0.35401 0.0
O36 O 0.58643 0.53715 0.18623 0.0
O37 O 0.57223 0.5376 0.3687 0.0
O38 O 0.59716 0.52246 0.26042 0.0
C39 C 0.52061 0.54382 0.18723 0.0
C40 C 0.61828 0.59414 0.33852 0.0
C41 C 0.51389 0.61264 0.30113 0.0
C42 C 0.5849 0.62053 0.1844 0.0
C43 C 0.5496 0.5353 0.38199 0.0
C44 C 0.59568 0.52015 0.21343 0.0
O45 O 0.51974 0.53814 0.23309 0.0
O46 O 0.21043 0.799 0.4318 0.0
Zn47 Zn 0.19106 0.82408 0.46972 0.0
O48 O 0.18079 0.80951 0.53218 0.0
Zn49 Zn 0.14502 0.80993 0.53635 0.0
Zn50 Zn 0.19288 0.77625 0.5378 0.0
Zn51 Zn 0.19575 0.82821 0.58526 0.0
O52 O 0.1348 0.83899 0.58046 0.0
O53 O 0.17119 0.85454 0.60569 0.0
O54 O 0.16215 0.83326 0.4251 0.0
O55 O 0.13106 0.81794 0.4696 0.0
O56 O 0.13078 0.77522 0.54983 0.0
O57 O 0.16455 0.75297 0.53161 0.0
O58 O 0.20583 0.7697 0.60561 0.0
O59 O 0.21618 0.85139 0.48019 0.0
O60 O 0.20392 0.80606 0.64432 0.0
O61 O 0.22736 0.84348 0.55802 0.0
C62 C 0.221 0.77859 0.44261 0.0
C63 C 0.14755 0.85585 0.60232 0.0
C64 C 0.14143 0.75444 0.54091 0.0
C65 C 0.13927 0.82752 0.42974 0.0
C66 C 0.20787 0.78271 0.64478 0.0
C67 C 0.23175 0.85319 0.5157 0.0
O68 O 0.21772 0.76813 0.48447 0.0
O69 O 0.92974 0.44841 0.6509 0.0
Zn70 Zn 0.90778 0.43327 0.70058 0.0
O71 O 0.92576 0.43238 0.76265 0.0
Zn72 Zn 0.9294 0.39764 0.78254 0.0
Zn73 Zn 0.95732 0.45019 0.75834 0.0
Zn74 Zn 0.90611 0.45085 0.80881 0.0
O75 O 0.90599 0.39102 0.84148 0.0
O76 O 0.88627 0.42741 0.84968 0.0
O77 O 0.89929 0.39937 0.67357 0.0
O78 O 0.91785 0.37443 0.72755 0.0
O79 O 0.96662 0.38975 0.79194 0.0
O80 O 0.98399 0.42533 0.76709 0.0
O81 O 0.96265 0.47486 0.81502 0.0
O82 O 0.87891 0.45727 0.70086 0.0
O83 O 0.92691 0.47042 0.85498 0.0
O84 O 0.88541 0.47603 0.77285 0.0
C85 C 0.94927 0.46163 0.65039 0.0
C86 C 0.88916 0.40466 0.86124 0.0
C87 C 0.98575 0.40295 0.78172 0.0
C88 C 0.90581 0.37769 0.68737 0.0
C89 C 0.9486 0.47957 0.85193 0.0
C90 C 0.87519 0.47537 0.73039 0.0
O91 O 0.96172 0.46577 0.68986 0.0
O92 O 0.71054 0.83183 0.14407 0.0
Zn93 Zn 0.69128 0.84955 0.09291 0.0
O94 O 0.6878 0.82853 0.036 0.0
Zn95 Zn 0.65335 0.8263 0.01652 0.0
Zn96 Zn 0.70124 0.79638 0.04844 0.0
Zn97 Zn 0.70787 0.84373 0.98626 0.0
O98 O 0.64821 0.84951 0.95695 0.0
O99 O 0.68582 0.86702 0.94924 0.0
O100 O 0.65847 0.8573 0.12408 0.0
O101 O 0.63177 0.83859 0.07364 0.0
O102 O 0.643 0.78971 0.00904 0.0
O103 O 0.67259 0.77357 0.05728 0.0
O104 O 0.71981 0.78418 0.98821 0.0
O105 O 0.7125 0.87929 0.07839 0.0
O106 O 0.72153 0.81756 0.93988 0.0
O107 O 0.73595 0.8613 0.02154 0.0
C108 C 0.72253 0.81157 0.14647 0.0
C109 C 0.66277 0.86593 0.93839 0.0
C110 C 0.65161 0.772 0.03564 0.0
C111 C 0.63643 0.85053 0.11344 0.0
C112 C 0.7255 0.79448 0.94716 0.0
C113 C 0.73366 0.87616 0.05806 0.0
O114 O 0.72206 0.79586 0.11104 0.0
O115 O 0.44644 0.44311 0.89073 0.0
Zn116 Zn 0.42299 0.43639 0.83647 0.0
O117 O 0.44158 0.42979 0.77706 0.0
Zn118 Zn 0.43919 0.39445 0.76231 0.0
Zn119 Zn 0.47547 0.44094 0.78557 0.0
Zn120 Zn 0.42725 0.44935 0.72501 0.0
O121 O 0.41503 0.38936 0.70387 0.0
O122 O 0.40259 0.4283 0.68943 0.0
O123 O 0.40368 0.407 0.86093 0.0
O124 O 0.42362 0.37686 0.82116 0.0
O125 O 0.47409 0.37933 0.75513 0.0
O126 O 0.49746 0.41141 0.77917 0.0
O127 O 0.48624 0.46351 0.72978 0.0
O128 O 0.40337 0.46813 0.83125 0.0
O129 O 0.45389 0.46183 0.67869 0.0
O130 O 0.40974 0.47923 0.75295 0.0
C131 C 0.46815 0.4522 0.89312 0.0
C132 C 0.40059 0.40498 0.68258 0.0
C133 C 0.49522 0.38887 0.7657 0.0
C134 C 0.40888 0.38407 0.85532 0.0
C135 C 0.4763 0.46806 0.68784 0.0
C136 C 0.40109 0.48369 0.79597 0.0
O137 O 0.48131 0.45559 0.85433 0.0
O138 O 0.79495 0.16898 0.64962 0.0
Zn139 Zn 0.8061 0.14749 0.59491 0.0
O140 O 0.81422 0.16835 0.53871 0.0
Zn141 Zn 0.84978 0.16647 0.52776 0.0
Zn142 Zn 0.80352 0.20217 0.55067 0.0
Zn143 Zn 0.79632 0.15608 0.482 0.0
O144 O 0.85665 0.14176 0.47134 0.0
O145 O 0.81858 0.13332 0.44299 0.0
O146 O 0.83581 0.12985 0.62473 0.0
O147 O 0.86555 0.15201 0.58868 0.0
O148 O 0.86512 0.20141 0.52202 0.0
O149 O 0.83351 0.22372 0.55196 0.0
O150 O 0.78265 0.21524 0.49388 0.0
O151 O 0.77547 0.12692 0.58229 0.0
O152 O 0.78459 0.1844 0.43923 0.0
O153 O 0.76555 0.13804 0.50542 0.0
C154 C 0.78691 0.191 0.65426 0.0
C155 C 0.84203 0.12977 0.44252 0.0
C156 C 0.85598 0.22189 0.53781 0.0
C157 C 0.85841 0.13694 0.62216 0.0
C158 C 0.77854 0.20658 0.4506 0.0
C159 C 0.76025 0.12717 0.54606 0.0
O160 O 0.78698 0.20613 0.61787 0.0
O161 O 0.0449 0.54555 0.36528 0.0
Zn162 Zn 0.07278 0.55943 0.32467 0.0
O163 O 0.05948 0.57085 0.26127 0.0
Zn164 Zn 0.0676 0.60577 0.25179 0.0
Zn165 Zn 0.02411 0.56633 0.25865 0.0
Zn166 Zn 0.07288 0.55039 0.20902 0.0
O167 O 0.09535 0.6088 0.19973 0.0
O168 O 0.10047 0.56916 0.17723 0.0
O169 O 0.08765 0.58754 0.36575 0.0
O170 O 0.08153 0.61929 0.31484 0.0
O171 O 0.03609 0.62722 0.24479 0.0
O172 O 0.00782 0.59899 0.26608 0.0
O173 O 0.01271 0.55286 0.19337 0.0
O174 O 0.09575 0.52989 0.31541 0.0
O175 O 0.0477 0.54248 0.15539 0.0
O176 O 0.08607 0.51852 0.23841 0.0
C177 C 0.02243 0.53978 0.35604 0.0
C178 C 0.10691 0.59192 0.17544 0.0
C179 C 0.01388 0.62138 0.25729 0.0
C180 C 0.0885 0.61077 0.35652 0.0
C181 C 0.02412 0.54458 0.1555 0.0
C182 C 0.09606 0.51396 0.28032 0.0
O183 O 0.0123 0.5451 0.31473 0.0
O184 O 0.80843 0.71891 0.42869 0.0
Zn185 Zn 0.82128 0.68907 0.46331 0.0
O186 O 0.82383 0.69724 0.53289 0.0
Zn187 Zn 0.85731 0.68987 0.55633 0.0
Zn188 Zn 0.81457 0.73106 0.54665 0.0
Zn189 Zn 0.79934 0.67774 0.56551 0.0
O190 O 0.85669 0.65682 0.59667 0.0
O191 O 0.81649 0.64744 0.58773 0.0
O192 O 0.85449 0.68044 0.43178 0.0
O193 O 0.87937 0.68373 0.49708 0.0
O194 O 0.87377 0.72161 0.58387 0.0
O195 O 0.84578 0.74924 0.55814 0.0
O196 O 0.79396 0.73449 0.60924 0.0
O197 O 0.79502 0.66307 0.45068 0.0
O198 O 0.78545 0.69504 0.62531 0.0
O199 O 0.77203 0.66742 0.51858 0.0
C200 C 0.7991 0.73967 0.44149 0.0
C201 C 0.83847 0.64152 0.60048 0.0
C202 C 0.86731 0.74408 0.57461 0.0
C203 C 0.87615 0.68032 0.45083 0.0
C204 C 0.78448 0.71791 0.63716 0.0
C205 C 0.77475 0.65964 0.4743 0.0
O206 O 0.79845 0.74661 0.4867 0.0
O207 O 0.03992 0.06579 0.67229 0.0
Zn208 Zn 0.07095 0.07032 0.71001 0.0
O209 O 0.06216 0.06755 0.778 0.0
Zn210 Zn 0.05907 0.10019 0.80563 0.0
Zn211 Zn 0.03201 0.04864 0.77991 0.0
Zn212 Zn 0.08653 0.04802 0.80979 0.0
O213 O 0.08546 0.10342 0.86088 0.0
O214 O 0.11033 0.07147 0.84099 0.0
O215 O 0.08459 0.10389 0.69101 0.0
O216 O 0.06805 0.12555 0.753 0.0
O217 O 0.02218 0.10711 0.82072 0.0
O218 O 0.0047 0.07242 0.79146 0.0
O219 O 0.03144 0.02498 0.838 0.0
O220 O 0.09158 0.04092 0.68941 0.0
O221 O 0.07034 0.02864 0.86427 0.0
O222 O 0.1016 0.02347 0.76133 0.0
C223 C 0.02981 0.04448 0.67237 0.0
C224 C 0.10622 0.09175 0.86419 0.0
C225 C 0.00299 0.09422 0.80934 0.0
C226 C 0.07897 0.12458 0.71107 0.0
C227 C 0.04835 0.02028 0.86969 0.0
C228 C 0.10138 0.02325 0.71405 0.0
O229 O 0.02731 0.03236 0.71275 0.0
O230 O 0.70625 0.28813 0.93566 0.0
Zn231 Zn 0.69127 0.31717 0.96951 0.0
O232 O 0.6816 0.30745 0.03597 0.0
Zn233 Zn 0.64569 0.30857 0.04063 0.0
Zn234 Zn 0.69348 0.27424 0.05011 0.0
Zn235 Zn 0.69663 0.32985 0.08319 0.0
O236 O 0.63516 0.33634 0.08658 0.0
O237 O 0.67112 0.35498 0.10443 0.0
O238 O 0.66247 0.32906 0.92683 0.0
O239 O 0.63094 0.31822 0.97509 0.0
O240 O 0.63095 0.27446 0.05371 0.0
O241 O 0.66472 0.25094 0.04724 0.0
O242 O 0.70894 0.27188 0.11834 0.0
O243 O 0.71973 0.34112 0.97159 0.0
O244 O 0.70819 0.31113 0.14367 0.0
O245 O 0.72664 0.3466 0.05211 0.0
C246 C 0.71741 0.2688 0.95108 0.0
C247 C 0.64741 0.35436 0.10539 0.0
C248 C 0.64121 0.25313 0.05017 0.0
C249 C 0.63919 0.32657 0.93415 0.0
C250 C 0.71276 0.28825 0.15168 0.0
C251 C 0.73288 0.34973 0.0069 0.0
O252 O 0.71662 0.26223 0.99647 0.0
O253 O 0.46308 0.93774 0.1701 0.0
Zn254 Zn 0.43039 0.93151 0.20136 0.0
O255 O 0.43447 0.92527 0.2702 0.0
Zn256 Zn 0.43135 0.89012 0.28186 0.0
Zn257 Zn 0.46667 0.93814 0.28655 0.0
Zn258 Zn 0.41034 0.94388 0.30693 0.0
O259 O 0.40515 0.88519 0.33654 0.0
O260 O 0.3835 0.92053 0.3288 0.0
O261 O 0.41409 0.90369 0.16494 0.0
O262 O 0.41861 0.87318 0.21964 0.0
O263 O 0.46603 0.87531 0.29286 0.0
O264 O 0.48952 0.90947 0.29194 0.0
O265 O 0.46632 0.95563 0.35225 0.0
O266 O 0.41309 0.96362 0.19235 0.0
O267 O 0.42602 0.95686 0.36969 0.0
O268 O 0.39873 0.97383 0.26694 0.0
C269 C 0.4784 0.95407 0.18507 0.0
C270 C 0.38578 0.89841 0.34531 0.0
C271 C 0.48726 0.88598 0.29429 0.0
C272 C 0.41221 0.8809 0.1768 0.0
C273 C 0.44856 0.96088 0.3817 0.0
C274 C 0.40225 0.97882 0.22122 0.0
O275 O 0.4799 0.95971 0.23091 0.0
O276 O 0.2009 0.32472 0.6477 0.0
Zn277 Zn 0.19033 0.34627 0.59219 0.0
O278 O 0.18233 0.32477 0.53652 0.0
Zn279 Zn 0.14719 0.32591 0.52191 0.0
Zn280 Zn 0.19318 0.29108 0.54839 0.0
Zn281 Zn 0.20029 0.33694 0.48077 0.0
O282 O 0.14078 0.34651 0.45948 0.0
O283 O 0.17885 0.36093 0.44342 0.0
O284 O 0.15983 0.36402 0.61959 0.0
O285 O 0.13055 0.3437 0.57793 0.0
O286 O 0.13155 0.29139 0.52358 0.0
O287 O 0.16342 0.2691 0.55145 0.0
O288 O 0.21393 0.27811 0.49171 0.0
O289 O 0.22151 0.36701 0.5795 0.0
O290 O 0.21088 0.30875 0.43686 0.0
O291 O 0.23154 0.35304 0.50468 0.0
C292 C 0.2093 0.30277 0.65198 0.0
C293 C 0.15543 0.36113 0.43616 0.0
C294 C 0.14062 0.27097 0.53961 0.0
C295 C 0.13702 0.35843 0.61255 0.0
C296 C 0.21735 0.28669 0.44816 0.0
C297 C 0.23712 0.36482 0.54404 0.0
O298 O 0.20984 0.28785 0.61525 0.0
O299 O 0.96179 0.94214 0.38812 0.0
Zn300 Zn 0.93426 0.92856 0.34706 0.0
O301 O 0.94717 0.92035 0.28137 0.0
Zn302 Zn 0.94344 0.88492 0.27117 0.0
Zn303 Zn 0.98166 0.92899 0.27703 0.0
Zn304 Zn 0.9299 0.93914 0.23041 0.0
O305 O 0.9126 0.87916 0.22892 0.0
O306 O 0.90373 0.91716 0.20075 0.0
O307 O 0.92238 0.89825 0.3864 0.0
O308 O 0.93746 0.86884 0.33702 0.0
O309 O 0.97559 0.86837 0.24769 0.0
O310 O 0.00177 0.89864 0.26851 0.0
O311 O 0.98905 0.94867 0.21701 0.0
O312 O 0.91041 0.95769 0.3429 0.0
O313 O 0.95346 0.95161 0.17619 0.0
O314 O 0.91253 0.96837 0.26307 0.0
C315 C 0.98383 0.94943 0.3795 0.0
C316 C 0.89901 0.89401 0.20375 0.0
C317 C 0.99763 0.87661 0.25381 0.0
C318 C 0.9283 0.87563 0.37836 0.0
C319 C 0.97689 0.95504 0.17874 0.0
C320 C 0.9054 0.97262 0.30747 0.0
O321 O 0.99378 0.94693 0.33705 0.0
O322 O 0.30737 0.68779 0.14327 0.0
Zn323 Zn 0.31781 0.66339 0.09356 0.0
O324 O 0.31965 0.68084 0.0305 0.0
Zn325 Zn 0.35437 0.68225 0.01135 0.0
Zn326 Zn 0.30504 0.71409 0.03499 0.0
Zn327 Zn 0.30107 0.66219 0.98257 0.0
O328 O 0.36174 0.6565 0.95776 0.0
O329 O 0.32381 0.64258 0.93926 0.0
O330 O 0.35132 0.6519 0.12068 0.0
O331 O 0.37521 0.67421 0.0705 0.0
O332 O 0.36485 0.71743 0.99454 0.0
O333 O 0.33168 0.73859 0.02037 0.0
O334 O 0.27874 0.72022 0.98217 0.0
O335 O 0.28963 0.63837 0.09482 0.0
O336 O 0.28057 0.68462 0.94057 0.0
O337 O 0.27693 0.63967 0.01648 0.0
C338 C 0.29746 0.70915 0.14489 0.0
C339 C 0.34726 0.64228 0.93321 0.0
C340 C 0.3537 0.73789 0.0033 0.0
C341 C 0.37234 0.66145 0.10975 0.0
C342 C 0.27231 0.70662 0.94567 0.0
C343 C 0.27446 0.632 0.06081 0.0
O344 O 0.29312 0.72154 0.10545 0.0
O345 O 0.55978 0.05005 0.88299 0.0
Zn346 Zn 0.57966 0.06305 0.82697 0.0
O347 O 0.55712 0.06742 0.77127 0.0
Zn348 Zn 0.55596 0.10224 0.75473 0.0
Zn349 Zn 0.52435 0.05414 0.78465 0.0
Zn350 Zn 0.57014 0.04906 0.71682 0.0
O351 O 0.58087 0.10931 0.6986 0.0
O352 O 0.59143 0.07094 0.67535 0.0
O353 O 0.59309 0.09573 0.85435 0.0
O354 O 0.56738 0.12105 0.81427 0.0
O355 O 0.52002 0.11387 0.74514 0.0
O356 O 0.50012 0.08205 0.78046 0.0
O357 O 0.51272 0.03048 0.73091 0.0
O358 O 0.60455 0.03515 0.81485 0.0
O359 O 0.54302 0.03466 0.67569 0.0
O360 O 0.59015 0.02086 0.74313 0.0
C361 C 0.53837 0.0406 0.88919 0.0
C362 C 0.59361 0.09439 0.67173 0.0
C363 C 0.50016 0.10373 0.76164 0.0
C364 C 0.58283 0.11695 0.84904 0.0
C365 C 0.52157 0.02673 0.68767 0.0
C366 C 0.60366 0.0183 0.78151 0.0
O367 O 0.52268 0.03921 0.8538 0.0
H368 H 0.24773 0.11869 0.92752 0.0
H369 H 0.22417 0.14267 0.07381 0.0
H370 H 0.18064 0.13271 0.05243 0.0
H371 H 0.19789 0.14285 0.86117 0.0
H372 H 0.19525 0.11728 0.81832 0.0
H373 H 0.2248 0.12432 0.84625 0.0
H374 H 0.22807 0.07941 0.88034 0.0
H375 H 0.19878 0.07203 0.85153 0.0
H376 H 0.20298 0.06691 0.91703 0.0
H377 H 0.13886 0.12499 0.0106 0.0
H378 H 0.10334 0.11307 0.95668 0.0
H379 H 0.15506 0.0921 0.84067 0.0
C380 C 0.2335 0.12129 0.95548 0.0
C381 C 0.23935 0.13142 0.00231 0.0
C382 C 0.22017 0.13467 0.03783 0.0
C383 C 0.19535 0.12929 0.02589 0.0
C384 C 0.1901 0.12026 0.97862 0.0
C385 C 0.20875 0.11567 0.94448 0.0
C386 C 0.19829 0.10603 0.89616 0.0
C387 C 0.20443 0.12368 0.85295 0.0
C388 C 0.20758 0.07952 0.88567 0.0
C389 C 0.17083 0.10633 0.90809 0.0
C390 C 0.16635 0.11486 0.95557 0.0
C391 C 0.14219 0.1179 0.97364 0.0
C392 C 0.12216 0.11134 0.94275 0.0
C393 C 0.1266 0.10156 0.8949 0.0
C394 C 0.15122 0.0993 0.87741 0.0
H395 H 0.6619 0.38849 0.17534 0.0
H396 H 0.60299 0.37118 0.07098 0.0
H397 H 0.58374 0.41196 0.08729 0.0
H398 H 0.6211 0.42188 0.26418 0.0
H399 H 0.64497 0.44404 0.27978 0.0
H400 H 0.65338 0.41292 0.26169 0.0
H401 H 0.68165 0.43088 0.19264 0.0
H402 H 0.67298 0.46202 0.20985 0.0
H403 H 0.66853 0.45153 0.147 0.0
H404 H 0.57401 0.45617 0.10641 0.0
H405 H 0.56952 0.49866 0.13929 0.0
H406 H 0.6323 0.48644 0.23734 0.0
C407 C 0.64467 0.39313 0.15675 0.0
C408 C 0.6339 0.37672 0.12193 0.0
C409 C 0.61139 0.38337 0.09819 0.0
C410 C 0.60043 0.40657 0.10689 0.0
C411 C 0.61192 0.42262 0.14025 0.0
C412 C 0.63312 0.41598 0.16592 0.0
C413 C 0.64148 0.43669 0.20022 0.0
C414 C 0.64014 0.42839 0.2547 0.0
C415 C 0.66771 0.44581 0.18658 0.0
C416 C 0.62203 0.45622 0.18878 0.0
C417 C 0.60539 0.44778 0.15354 0.0
C418 C 0.58665 0.46286 0.13462 0.0
C419 C 0.58443 0.48704 0.15314 0.0
C420 C 0.6006 0.49574 0.19078 0.0
C421 C 0.61966 0.48014 0.20874 0.0
H422 H 0.33609 0.9069 0.33637 0.0
H423 H 0.39045 0.86855 0.42701 0.0
H424 H 0.35706 0.85624 0.48553 0.0
H425 H 0.29698 0.92967 0.43371 0.0
H426 H 0.26842 0.92411 0.40062 0.0
H427 H 0.29661 0.93057 0.36689 0.0
H428 H 0.29175 0.88952 0.31747 0.0
H429 H 0.2633 0.88321 0.35032 0.0
H430 H 0.28808 0.86066 0.35061 0.0
H431 H 0.31767 0.84961 0.53549 0.0
H432 H 0.27484 0.84247 0.56511 0.0
H433 H 0.24615 0.88307 0.43843 0.0
C434 C 0.34093 0.89586 0.36851 0.0
C435 C 0.3658 0.88876 0.37751 0.0
C436 C 0.37145 0.87404 0.41947 0.0
C437 C 0.35267 0.8672 0.45307 0.0
C438 C 0.32837 0.87494 0.4436 0.0
C439 C 0.3224 0.88845 0.40171 0.0
C440 C 0.2947 0.89307 0.39824 0.0
C441 C 0.28884 0.92102 0.39998 0.0
C442 C 0.28382 0.88088 0.3514 0.0
C443 C 0.28592 0.88009 0.44484 0.0
C444 C 0.30565 0.87017 0.47101 0.0
C445 C 0.30209 0.85724 0.5152 0.0
C446 C 0.27767 0.85348 0.53197 0.0
C447 C 0.2571 0.86224 0.50414 0.0
C448 C 0.26145 0.87624 0.46066 0.0
H449 H 0.86837 0.62108 0.67451 0.0
H450 H 0.81651 0.60246 0.55697 0.0
H451 H 0.81821 0.55848 0.58086 0.0
H452 H 0.90598 0.56489 0.66433 0.0
H453 H 0.91055 0.56199 0.73028 0.0
H454 H 0.90589 0.59219 0.7031 0.0
H455 H 0.86892 0.59973 0.76294 0.0
H456 H 0.87324 0.56935 0.78966 0.0
H457 H 0.84348 0.57793 0.76416 0.0
H458 H 0.82555 0.51661 0.61542 0.0
H459 H 0.83982 0.47853 0.65796 0.0
H460 H 0.88511 0.52344 0.75643 0.0
C461 C 0.85768 0.60763 0.65361 0.0
C462 C 0.84229 0.61517 0.61394 0.0
C463 C 0.82831 0.5971 0.58772 0.0
C464 C 0.82909 0.57205 0.60099 0.0
C465 C 0.84383 0.56521 0.64093 0.0
C466 C 0.85798 0.58232 0.66687 0.0
C467 C 0.87207 0.56966 0.70853 0.0
C468 C 0.90029 0.57234 0.7011 0.0
C469 C 0.86393 0.57978 0.75933 0.0
C470 C 0.86368 0.54293 0.70148 0.0
C471 C 0.84741 0.54085 0.6622 0.0
C472 C 0.83809 0.51795 0.64665 0.0
C473 C 0.84618 0.49645 0.67111 0.0
C474 C 0.86314 0.49804 0.71101 0.0
C475 C 0.87155 0.52168 0.72695 0.0
H476 H 0.78057 0.88889 0.02481 0.0
H477 H 0.73751 0.87487 0.15802 0.0
H478 H 0.77592 0.87395 0.20738 0.0
H479 H 0.83354 0.85293 0.05325 0.0
H480 H 0.85617 0.87491 0.03076 0.0
H481 H 0.82538 0.87435 0.00452 0.0
H482 H 0.81938 0.92096 0.02538 0.0
H483 H 0.8504 0.92183 0.0504 0.0
H484 H 0.82444 0.93157 0.08798 0.0
H485 H 0.81885 0.86957 0.2405 0.0
H486 H 0.86338 0.87402 0.26113 0.0
H487 H 0.87879 0.89733 0.11035 0.0
C488 C 0.77928 0.88621 0.06452 0.0
C489 C 0.75609 0.88176 0.08755 0.0
C490 C 0.75505 0.87835 0.1396 0.0
C491 C 0.77679 0.87755 0.16793 0.0
C492 C 0.79941 0.88106 0.14394 0.0
C493 C 0.80081 0.8864 0.09389 0.0
C494 C 0.82751 0.89122 0.07836 0.0
C495 C 0.83615 0.87221 0.03941 0.0
C496 C 0.83061 0.91799 0.05943 0.0
C497 C 0.8408 0.88736 0.12738 0.0
C498 C 0.82423 0.88076 0.16427 0.0
C499 C 0.83201 0.87509 0.21219 0.0
C500 C 0.85732 0.87735 0.22339 0.0
C501 C 0.87434 0.88581 0.1872 0.0
C502 C 0.86607 0.8906 0.13844 0.0
H503 H 0.40473 0.50952 0.88245 0.0
H504 H 0.37559 0.51425 0.73283 0.0
H505 H 0.36115 0.55716 0.74963 0.0
H506 H 0.35716 0.54424 0.94366 0.0
H507 H 0.37837 0.55946 0.98554 0.0
H508 H 0.38573 0.52916 0.96141 0.0
H509 H 0.42764 0.54615 0.92823 0.0
H510 H 0.42021 0.57663 0.95157 0.0
H511 H 0.4277 0.57249 0.88694 0.0
H512 H 0.34753 0.59833 0.78507 0.0
H513 H 0.33669 0.63515 0.83586 0.0
H514 H 0.37859 0.60502 0.95899 0.0
C515 C 0.39503 0.51949 0.85343 0.0
C516 C 0.39085 0.50853 0.8066 0.0
C517 C 0.37872 0.52233 0.76908 0.0
C518 C 0.37058 0.54669 0.77823 0.0
C519 C 0.37528 0.55708 0.82467 0.0
C520 C 0.38737 0.54397 0.86152 0.0
C521 C 0.3905 0.55947 0.90793 0.0
C522 C 0.37713 0.54737 0.95223 0.0
C523 C 0.41816 0.56395 0.91931 0.0
C524 C 0.37775 0.58321 0.89191 0.0
C525 C 0.36903 0.58143 0.84378 0.0
C526 C 0.35475 0.60018 0.82234 0.0
C527 C 0.34878 0.62101 0.85123 0.0
C528 C 0.35753 0.62309 0.90047 0.0
C529 C 0.37256 0.60421 0.9207 0.0
H530 H 0.63577 0.1162 0.70419 0.0
H531 H 0.5987 0.09007 0.57173 0.0
H532 H 0.63752 0.09611 0.52355 0.0
H533 H 0.67845 0.16168 0.64497 0.0
H534 H 0.70359 0.15352 0.68601 0.0
H535 H 0.67189 0.15113 0.70705 0.0
H536 H 0.67965 0.10502 0.72994 0.0
H537 H 0.71113 0.10706 0.70771 0.0
H538 H 0.69049 0.08379 0.68293 0.0
H539 H 0.68139 0.10297 0.49129 0.0
H540 H 0.72636 0.11043 0.47759 0.0
H541 H 0.73513 0.12769 0.63372 0.0
C542 C 0.63563 0.11284 0.66458 0.0
C543 C 0.61416 0.10364 0.64097 0.0
C544 C 0.61486 0.09795 0.5898 0.0
C545 C 0.63684 0.10113 0.56238 0.0
C546 C 0.65804 0.10947 0.5871 0.0
C547 C 0.65757 0.1153 0.63707 0.0
C548 C 0.68331 0.12158 0.656 0.0
C549 C 0.68437 0.14858 0.67458 0.0
C550 C 0.69162 0.10327 0.69653 0.0
C551 C 0.69836 0.11823 0.60904 0.0
C552 C 0.68347 0.11154 0.56952 0.0
C553 C 0.69324 0.1081 0.52205 0.0
C554 C 0.71879 0.1122 0.51465 0.0
C555 C 0.73431 0.11911 0.55472 0.0
C556 C 0.7239 0.12176 0.60256 0.0
H557 H 0.16703 0.41008 0.43595 0.0
H558 H 0.1199 0.35561 0.36422 0.0
H559 H 0.10252 0.38867 0.31014 0.0
H560 H 0.12065 0.45683 0.44153 0.0
H561 H 0.14202 0.48222 0.43252 0.0
H562 H 0.15257 0.45389 0.461 0.0
H563 H 0.18722 0.45 0.3946 0.0
H564 H 0.17666 0.47828 0.3657 0.0
H565 H 0.17899 0.45011 0.32981 0.0
H566 H 0.09057 0.42793 0.26421 0.0
H567 H 0.08001 0.4707 0.23861 0.0
H568 H 0.13204 0.49987 0.3468 0.0
C569 C 0.15332 0.40511 0.40826 0.0
C570 C 0.14505 0.38035 0.40332 0.0
C571 C 0.12654 0.37451 0.36802 0.0
C572 C 0.11673 0.39311 0.33711 0.0
C573 C 0.12531 0.41743 0.34289 0.0
C574 C 0.14286 0.42351 0.37826 0.0
C575 C 0.14714 0.4513 0.38059 0.0
C576 C 0.14017 0.46166 0.43195 0.0
C577 C 0.17411 0.4578 0.36684 0.0
C578 C 0.12917 0.46001 0.34111 0.0
C579 C 0.11719 0.44016 0.31899 0.0
C580 C 0.0998 0.44359 0.28136 0.0
C581 C 0.09404 0.46795 0.26687 0.0
C582 C 0.10522 0.48858 0.29075 0.0
C583 C 0.12323 0.48446 0.3279 0.0
H584 H 0.63227 0.62787 0.41158 0.0
H585 H 0.66115 0.5794 0.29642 0.0
H586 H 0.70382 0.59116 0.31855 0.0
H587 H 0.67908 0.67663 0.39901 0.0
H588 H 0.68135 0.68225 0.46474 0.0
H589 H 0.65262 0.67113 0.43857 0.0
H590 H 0.65319 0.63381 0.4992 0.0
H591 H 0.682 0.64474 0.52535 0.0
H592 H 0.67996 0.61366 0.50078 0.0
H593 H 0.7431 0.60768 0.35152 0.0
H594 H 0.77766 0.62757 0.39647 0.0
H595 H 0.72471 0.66389 0.49415 0.0
C596 C 0.64762 0.61999 0.3909 0.0
C597 C 0.64342 0.60272 0.35232 0.0
C598 C 0.66396 0.59252 0.32637 0.0
C599 C 0.68829 0.59913 0.3385 0.0
C600 C 0.69192 0.61582 0.37706 0.0
C601 C 0.67229 0.62609 0.40316 0.0
C602 C 0.6818 0.64288 0.44424 0.0
C603 C 0.6732 0.66982 0.43613 0.0
C604 C 0.67376 0.63319 0.49542 0.0
C605 C 0.70969 0.64032 0.43688 0.0
C606 C 0.71499 0.62477 0.39758 0.0
C607 C 0.73926 0.61984 0.38255 0.0
C608 C 0.75876 0.63122 0.40828 0.0
C609 C 0.75389 0.6471 0.44896 0.0
C610 C 0.729 0.65156 0.46359 0.0
H611 H 0.1611 0.8881 0.67673 0.0
H612 H 0.10698 0.87709 0.55952 0.0
H613 H 0.09084 0.91946 0.57336 0.0
H614 H 0.11885 0.92393 0.75773 0.0
H615 H 0.14344 0.94375 0.78 0.0
H616 H 0.15022 0.9123 0.76155 0.0
H617 H 0.18351 0.92879 0.70039 0.0
H618 H 0.17645 0.96032 0.71785 0.0
H619 H 0.17472 0.95109 0.6537 0.0
H620 H 0.08371 0.96424 0.59342 0.0
H621 H 0.07975 0.00594 0.63003 0.0
H622 H 0.13562 0.98721 0.73995 0.0
C623 C 0.14555 0.89449 0.65465 0.0
C624 C 0.13526 0.87931 0.61706 0.0
C625 C 0.11495 0.88828 0.58887 0.0
C626 C 0.10583 0.91241 0.5961 0.0
C627 C 0.11688 0.92716 0.63238 0.0
C628 C 0.13578 0.91834 0.66225 0.0
C629 C 0.14378 0.93784 0.69965 0.0
C630 C 0.13876 0.92893 0.75289 0.0
C631 C 0.17125 0.94492 0.69244 0.0
C632 C 0.12673 0.95913 0.68549 0.0
C633 C 0.11171 0.95265 0.64597 0.0
C634 C 0.09515 0.96943 0.62476 0.0
C635 C 0.09326 0.9932 0.64552 0.0
C636 C 0.10746 -0.00012 0.68775 0.0
C637 C 0.12459 0.98264 0.70764 0.0
H638 H 0.85393 0.37004 0.84113 0.0
H639 H 0.88221 0.41785 0.95716 0.0
H640 H 0.84594 0.40744 0.00982 0.0
H641 H 0.7929 0.38896 0.85264 0.0
H642 H 0.77889 0.35921 0.83996 0.0
H643 H 0.80906 0.36645 0.81502 0.0
H644 H 0.82774 0.32726 0.85651 0.0
H645 H 0.79745 0.31957 0.88057 0.0
H646 H 0.82352 0.32246 0.92214 0.0
H647 H 0.80477 0.39453 0.04671 0.0
H648 H 0.7622 0.37966 0.06533 0.0
H649 H 0.75967 0.34308 0.92194 0.0
C650 C 0.85293 0.37737 0.87849 0.0
C651 C 0.87111 0.39402 0.89609 0.0
C652 C 0.8687 0.40447 0.94395 0.0
C653 C 0.84814 0.39877 0.97387 0.0
C654 C 0.83 0.38292 0.95489 0.0
C655 C 0.83225 0.37226 0.90837 0.0
C656 C 0.80901 0.35796 0.89458 0.0
C657 C 0.79675 0.36881 0.84779 0.0
C658 C 0.81478 0.33016 0.88809 0.0
C659 C 0.79324 0.36258 0.94018 0.0
C660 C 0.80575 0.37672 0.97485 0.0
C661 C 0.79482 0.38337 0.01989 0.0
C662 C 0.77061 0.37497 0.03005 0.0
C663 C 0.75748 0.36049 0.99491 0.0
C664 C 0.76901 0.35446 0.94932 0.0
H665 H 0.36376 0.01154 0.24065 0.0
H666 H 0.43349 0.00368 0.16104 0.0
H667 H 0.43026 0.04683 0.13186 0.0
H668 H 0.3338 0.04598 0.14501 0.0
H669 H 0.31636 0.06558 0.18659 0.0
H670 H 0.3254 0.03487 0.20582 0.0
H671 H 0.3471 0.05357 0.2831 0.0
H672 H 0.33836 0.0844 0.26367 0.0
H673 H 0.37056 0.07715 0.27507 0.0
H674 H 0.41965 0.0902 0.10997 0.0
H675 H 0.39888 0.12922 0.08578 0.0
H676 H 0.33461 0.10861 0.17419 0.0
C677 C 0.37834 0.01906 0.21736 0.0
C678 C 0.39884 0.00438 0.20308 0.0
C679 C 0.41749 0.01461 0.17203 0.0
C680 C 0.416 0.03918 0.15571 0.0
C681 C 0.39561 0.05325 0.17028 0.0
C682 C 0.37685 0.04352 0.19961 0.0
C683 C 0.35581 0.06199 0.20557 0.0
C684 C 0.33141 0.05148 0.18447 0.0
C685 C 0.35279 0.06974 0.2601 0.0
C686 C 0.36556 0.08331 0.17436 0.0
C687 C 0.38883 0.07809 0.15546 0.0
C688 C 0.40144 0.09461 0.12462 0.0
C689 C 0.38956 0.11678 0.11129 0.0
C690 C 0.36516 0.12191 0.12805 0.0
C691 C 0.35331 0.10519 0.1609 0.0
H692 H 0.3527 0.41862 0.69552 0.0
H693 H 0.40003 0.37165 0.60538 0.0
H694 H 0.36337 0.35932 0.55496 0.0
H695 H 0.30165 0.37577 0.69985 0.0
H696 H 0.27829 0.39977 0.69953 0.0
H697 H 0.30847 0.40593 0.72552 0.0
H698 H 0.3134 0.44364 0.66657 0.0
H699 H 0.28333 0.43739 0.63994 0.0
H700 H 0.31038 0.43918 0.60059 0.0
H701 H 0.3216 0.35347 0.51344 0.0
H702 H 0.27744 0.34829 0.49221 0.0
H703 H 0.25677 0.39633 0.61491 0.0
C704 C 0.3553 0.40582 0.66494 0.0
C705 C 0.37909 0.39624 0.65363 0.0
C706 C 0.38189 0.37915 0.61428 0.0
C707 C 0.36124 0.37225 0.5854 0.0
C708 C 0.338 0.38228 0.59721 0.0
C709 C 0.33487 0.39827 0.63676 0.0
C710 C 0.30773 0.40491 0.64427 0.0
C711 C 0.2985 0.39606 0.69531 0.0
C712 C 0.30347 0.43295 0.63742 0.0
C713 C 0.29595 0.39018 0.60265 0.0
C714 C 0.3138 0.3777 0.57532 0.0
C715 C 0.30749 0.36305 0.53476 0.0
C716 C 0.28228 0.36038 0.52281 0.0
C717 C 0.26351 0.3719 0.55191 0.0
C718 C 0.2706 0.38734 0.59186 0.0
H719 H 0.87638 0.09443 0.46745 0.0
H720 H 0.82809 0.11842 0.34815 0.0
H721 H 0.83982 0.08127 0.29937 0.0
H722 H 0.92514 0.06528 0.39097 0.0
H723 H 0.92933 0.03987 0.43369 0.0
H724 H 0.91947 0.06981 0.45624 0.0
H725 H 0.88103 0.04925 0.49708 0.0
H726 H 0.89058 0.01934 0.47404 0.0
H727 H 0.86008 0.03112 0.45948 0.0
H728 H 0.85614 0.0409 0.26443 0.0
H729 H 0.87466 -0.00034 0.24725 0.0
H730 H 0.90917 0.00011 0.39256 0.0
C731 C 0.86888 0.09217 0.43046 0.0
C732 C 0.85178 0.10953 0.41095 0.0
C733 C 0.84152 0.1055 0.3633 0.0
C734 C 0.84803 0.08444 0.33544 0.0
C735 C 0.86449 0.06734 0.35615 0.0
C736 C 0.87472 0.07091 0.40265 0.0
C737 C 0.89039 0.04877 0.41795 0.0
C738 C 0.9177 0.05639 0.42512 0.0
C739 C 0.87988 0.03639 0.46492 0.0
C740 C 0.88727 0.03217 0.37294 0.0
C741 C 0.87256 0.04337 0.33741 0.0
C742 C 0.86759 0.0319 0.2921 0.0
C743 C 0.87812 0.00848 0.28269 0.0
C744 C 0.893 0.99654 0.31882 0.0
C745 C 0.89743 0.00856 0.36463 0.0
H746 H 0.14535 0.62213 0.20387 0.0
H747 H 0.12047 0.57331 0.08606 0.0
H748 H 0.16155 0.57669 0.0456 0.0
H749 H 0.18548 0.66222 0.12774 0.0
H750 H 0.2088 0.6648 0.17542 0.0
H751 H 0.1767 0.6603 0.19215 0.0
H752 H 0.18924 0.62153 0.24328 0.0
H753 H 0.22129 0.62554 0.22563 0.0
H754 H 0.20575 0.59652 0.21336 0.0
H755 H 0.20532 0.58468 0.01876 0.0
H756 H 0.24864 0.59853 0.00521 0.0
H757 H 0.24635 0.63942 0.14369 0.0
C758 C 0.1484 0.6128 0.16881 0.0
C759 C 0.12969 0.59784 0.14745 0.0
C760 C 0.13454 0.58512 0.10251 0.0
C761 C 0.15782 0.58681 0.07948 0.0
C762 C 0.17619 0.60099 0.1023 0.0
C763 C 0.17176 0.61389 0.14578 0.0
C764 C 0.1951 0.62692 0.16357 0.0
C765 C 0.19129 0.65524 0.16476 0.0
C766 C 0.20332 0.61703 0.21448 0.0
C767 C 0.21325 0.61936 0.12325 0.0
C768 C 0.20191 0.60448 0.08819 0.0
C769 C 0.2145 0.59614 0.04617 0.0
C770 C 0.23911 0.60392 0.03894 0.0
C771 C 0.25096 0.61952 0.07393 0.0
C772 C 0.238 0.62682 0.11717 0.0
H773 H 0.67044 0.91543 0.9467 0.0
H774 H 0.63221 0.86023 0.85804 0.0
H775 H 0.61687 0.89355 0.80219 0.0
H776 H 0.62143 0.95995 0.94172 0.0
H777 H 0.64196 0.98641 0.94089 0.0
H778 H 0.65164 0.95803 0.97038 0.0
H779 H 0.69102 0.95714 0.91493 0.0
H780 H 0.68127 0.98539 0.88481 0.0
H781 H 0.68772 0.95804 0.84843 0.0
H782 H 0.60627 0.93281 0.75632 0.0
H783 H 0.59467 0.97516 0.73133 0.0
H784 H 0.63697 0.00516 0.85477 0.0
C785 C 0.65901 0.91041 0.91519 0.0
C786 C 0.65269 0.88539 0.90591 0.0
C787 C 0.63723 0.87937 0.86534 0.0
C788 C 0.62866 0.89811 0.83339 0.0
C789 C 0.63541 0.92267 0.84332 0.0
C790 C 0.64979 0.92889 0.88386 0.0
C791 C 0.65242 0.95679 0.88912 0.0
C792 C 0.64119 0.96582 0.93844 0.0
C793 C 0.67974 0.9648 0.884 0.0
C794 C 0.63717 0.96539 0.84524 0.0
C795 C 0.62802 0.94539 0.8187 0.0
C796 C 0.61326 0.94859 0.77688 0.0
C797 C 0.6069 0.97282 0.76286 0.0
C798 C 0.61485 0.9936 0.79117 0.0
C799 C 0.63067 0.98974 0.83225 0.0
H800 H 0.40567 0.17723 0.92443 0.0
H801 H 0.34688 0.13719 0.84855 0.0
H802 H 0.37731 0.12267 0.78615 0.0
H803 H 0.44141 0.19491 0.81131 0.0
H804 H 0.47075 0.19078 0.84247 0.0
H805 H 0.44379 0.20069 0.87697 0.0
H806 H 0.44935 0.16365 0.93742 0.0
H807 H 0.47636 0.15386 0.90346 0.0
H808 H 0.45095 0.13253 0.91288 0.0
H809 H 0.41501 0.1073 0.74059 0.0
H810 H 0.45673 0.09217 0.71643 0.0
H811 H 0.49064 0.14401 0.81859 0.0
C812 C 0.39905 0.16573 0.89426 0.0
C813 C 0.37385 0.1583 0.89148 0.0
C814 C 0.36605 0.14319 0.85142 0.0
C815 C 0.38319 0.13495 0.81567 0.0
C816 C 0.40797 0.14235 0.81999 0.0
C817 C 0.41582 0.15758 0.85812 0.0
C818 C 0.44373 0.16126 0.85694 0.0
C819 C 0.4503 0.18854 0.84628 0.0
C820 C 0.4558 0.15227 0.90553 0.0
C821 C 0.45061 0.14473 0.8136 0.0
C822 C 0.42966 0.13426 0.7923 0.0
C823 C 0.43146 0.11598 0.75582 0.0
C824 C 0.45519 0.10759 0.74209 0.0
C825 C 0.47674 0.11768 0.76433 0.0
C826 C 0.47443 0.13697 0.79935 0.0
H827 H 0.60666 0.66401 0.21209 0.0
H828 H 0.58124 0.6235 0.08264 0.0
H829 H 0.59271 0.65929 0.02941 0.0
H830 H 0.58639 0.72467 0.17444 0.0
H831 H 0.61329 0.74003 0.19981 0.0
H832 H 0.60222 0.7116 0.22724 0.0
H833 H 0.64566 0.6915 0.21547 0.0
H834 H 0.65693 0.71994 0.18861 0.0
H835 H 0.65967 0.69121 0.15472 0.0
H836 H 0.60676 0.70088 0.99074 0.0
H837 H 0.62653 0.74147 0.97028 0.0
H838 H 0.64369 0.75238 0.12565 0.0
C839 C 0.60341 0.66261 0.17255 0.0
C840 C 0.59293 0.64103 0.15153 0.0
C841 C 0.58932 0.63987 0.09952 0.0
C842 C 0.59561 0.66016 0.06907 0.0
C843 C 0.60565 0.68133 0.09124 0.0
C844 C 0.6098 0.68245 0.14181 0.0
C845 C 0.62189 0.70662 0.15673 0.0
C846 C 0.60493 0.72161 0.19161 0.0
C847 C 0.64756 0.70203 0.18024 0.0
C848 C 0.62413 0.71896 0.10669 0.0
C849 C 0.61433 0.70442 0.06924 0.0
C850 C 0.6145 0.71235 0.01984 0.0
C851 C 0.62556 0.73542 0.00852 0.0
C852 C 0.63657 0.74982 0.04645 0.0
C853 C 0.63542 0.7416 0.09599 0.0
H854 H 0.00567 0.83733 0.31326 0.0
H855 H 0.03894 0.88185 0.1976 0.0
H856 H 0.08056 0.86703 0.22193 0.0
H857 H 0.0435 0.854 0.3995 0.0
H858 H 0.04661 0.82524 0.43315 0.0
H859 H 0.01934 0.83081 0.39662 0.0
H860 H 0.02681 0.79057 0.34633 0.0
H861 H 0.0538 0.78421 0.38388 0.0
H862 H 0.05656 0.78533 0.31732 0.0
H863 H 0.118 0.85718 0.27209 0.0
H864 H 0.14818 0.84998 0.33965 0.0
H865 H 0.09054 0.81334 0.42544 0.0
C866 C 0.02162 0.84234 0.29083 0.0
C867 C 0.01922 0.85999 0.2526 0.0
C868 C 0.0405 0.86765 0.2259 0.0
C869 C 0.06421 0.85945 0.23979 0.0
C870 C 0.06627 0.84364 0.28051 0.0
C871 C 0.04546 0.83467 0.30506 0.0
C872 C 0.05267 0.82179 0.35292 0.0
C873 C 0.03977 0.83369 0.39815 0.0
C874 C 0.04713 0.79381 0.34991 0.0
C875 C 0.08038 0.82661 0.35325 0.0
C876 C 0.08802 0.83863 0.31066 0.0
C877 C 0.11237 0.84715 0.305 0.0
C878 C 0.12934 0.84319 0.34376 0.0
C879 C 0.12177 0.83116 0.38794 0.0
C880 C 0.09702 0.82252 0.39212 0.0
H881 H 0.88111 0.23533 0.62018 0.0
H882 H 0.86203 0.2596 0.47214 0.0
H883 H 0.87615 0.30218 0.49264 0.0
H884 H 0.85817 0.28571 0.68036 0.0
H885 H 0.88164 0.2879 0.72782 0.0
H886 H 0.87517 0.25843 0.69921 0.0
H887 H 0.92131 0.25371 0.67357 0.0
H888 H 0.92817 0.28292 0.70328 0.0
H889 H 0.93626 0.27821 0.6391 0.0
H890 H 0.88531 0.34304 0.53368 0.0
H891 H 0.89309 0.37865 0.58914 0.0
H892 H 0.90658 0.32788 0.71125 0.0
C893 C 0.88126 0.24937 0.5914 0.0
C894 C 0.87147 0.24415 0.54399 0.0
C895 C 0.87042 0.26315 0.50795 0.0
C896 C 0.87816 0.2874 0.51952 0.0
C897 C 0.88684 0.29224 0.56733 0.0
C898 C 0.88888 0.27364 0.60248 0.0
C899 C 0.89648 0.28414 0.65246 0.0
C900 C 0.87668 0.27872 0.69228 0.0
C901 C 0.92208 0.27415 0.66801 0.0
C902 C 0.89763 0.31162 0.64039 0.0
C903 C 0.89207 0.31588 0.59108 0.0
C904 C 0.89018 0.33988 0.57209 0.0
C905 C 0.89442 0.36001 0.60406 0.0
C906 C 0.90056 0.35612 0.65459 0.0
C907 C 0.90222 0.33151 0.67273 0.0
H908 H 0.58635 0.83995 0.10506 0.0
H909 H 0.64142 0.86963 0.20687 0.0
H910 H 0.60927 0.87386 0.27116 0.0
H911 H 0.53827 0.88081 0.13954 0.0
H912 H 0.51381 0.85816 0.13297 0.0
H913 H 0.54181 0.85518 0.09705 0.0
H914 H 0.54779 0.81067 0.13201 0.0
H915 H 0.52007 0.8139 0.16907 0.0
H916 H 0.54919 0.80604 0.19814 0.0
H917 H 0.57117 0.8787 0.32167 0.0
H918 H 0.52878 0.88862 0.3507 0.0
H919 H 0.49802 0.8548 0.21872 0.0
C920 C 0.59169 0.84719 0.14097 0.0
C921 C 0.61651 0.8544 0.15076 0.0
C922 C 0.62259 0.864 0.1982 0.0
C923 C 0.60449 0.86623 0.23528 0.0
C924 C 0.58033 0.85868 0.22465 0.0
C925 C 0.5738 0.84961 0.17852 0.0
C926 C 0.54603 0.84502 0.17538 0.0
C927 C 0.5343 0.86074 0.13381 0.0
C928 C 0.54045 0.81725 0.16823 0.0
C929 C 0.53789 0.85381 0.22634 0.0
C930 C 0.55809 0.86111 0.25451 0.0
C931 C 0.55522 0.87249 0.3006 0.0
C932 C 0.53111 0.87783 0.31709 0.0
C933 C 0.51025 0.87167 0.28772 0.0
C934 C 0.51365 0.85854 0.2429 0.0
H935 H 0.3899 0.2507 0.97882 0.0
H936 H 0.34347 0.28708 0.08829 0.0
H937 H 0.35563 0.32799 0.05483 0.0
H938 H 0.4395 0.30097 0.96985 0.0
H939 H 0.44222 0.29642 0.90386 0.0
H940 H 0.43453 0.27059 0.94353 0.0
H941 H 0.39529 0.26239 0.89052 0.0
H942 H 0.40234 0.28857 0.8516 0.0
H943 H 0.3727 0.28682 0.88261 0.0
H944 H 0.36661 0.36391 0.00124 0.0
H945 H 0.37937 0.39333 0.93608 0.0
H946 H 0.41785 0.3337 0.85914 0.0
C947 C 0.38345 0.26735 0.9974 0.0
C948 C 0.36623 0.26586 0.03683 0.0
C949 C 0.35708 0.28794 0.0587 0.0
C950 C 0.36378 0.31123 0.03975 0.0
C951 C 0.37958 0.31207 0.99885 0.0
C952 C 0.38969 0.29076 0.97839 0.0
C953 C 0.40389 0.29664 0.93121 0.0
C954 C 0.43169 0.29082 0.93751 0.0
C955 C 0.39288 0.28278 0.88637 0.0
C956 C 0.3994 0.32437 0.92747 0.0
C957 C 0.38554 0.3329 0.9671 0.0
C958 C 0.37788 0.35756 0.9705 0.0
C959 C 0.38504 0.37409 0.93299 0.0
C960 C 0.39966 0.36591 0.89236 0.0
C961 C 0.40675 0.34062 0.88966 0.0
H962 H 0.90596 0.15388 0.6346 0.0
H963 H 0.85146 0.1038 0.69882 0.0
H964 H 0.88113 0.09345 0.76572 0.0
H965 H 0.95806 0.11666 0.65501 0.0
H966 H 0.97855 0.14229 0.66854 0.0
H967 H 0.95202 0.14697 0.62921 0.0
H968 H 0.93718 0.18246 0.68729 0.0
H969 H 0.96345 0.17734 0.72749 0.0
H970 H 0.93233 0.1762 0.75224 0.0
H971 H 0.91822 0.08517 0.81967 0.0
H972 H 0.96054 0.07694 0.85119 0.0
H973 H 0.98993 0.13423 0.75519 0.0
C974 C 0.90012 0.1408 0.6628 0.0
C975 C 0.87634 0.12959 0.66128 0.0
C976 C 0.86957 0.11259 0.69904 0.0
C977 C 0.88621 0.10678 0.73746 0.0
C978 C 0.90941 0.11841 0.73802 0.0
C979 C 0.91635 0.135 0.70152 0.0
C980 C 0.94294 0.14358 0.70829 0.0
C981 C 0.95882 0.13696 0.66258 0.0
C982 C 0.94403 0.17156 0.7195 0.0
C983 C 0.95031 0.12842 0.75323 0.0
C984 C 0.93055 0.11432 0.77037 0.0
C985 C 0.93361 0.0966 0.80755 0.0
C986 C 0.95765 0.09221 0.82565 0.0
C987 C 0.97822 0.10561 0.80683 0.0
C988 C 0.9743 0.12469 0.77192 0.0
H989 H 0.0816 0.66104 0.35541 0.0
H990 H 0.11081 0.60139 0.44673 0.0
H991 H 0.12149 0.63204 0.51187 0.0
H992 H 0.12714 0.70515 0.38297 0.0
H993 H 0.106 0.73115 0.38279 0.0
H994 H 0.09919 0.70411 0.34617 0.0
H995 H 0.05647 0.70024 0.39023 0.0
H996 H 0.06349 0.72711 0.42761 0.0
H997 H 0.05528 0.69814 0.45689 0.0
H998 H 0.13322 0.66978 0.56219 0.0
H999 H 0.14651 0.71126 0.59153 0.0
H1000 H 0.10706 0.74575 0.46996 0.0
C1001 C 0.09017 0.65429 0.38914 0.0
C1002 C 0.09553 0.62876 0.3958 0.0
C1003 C 0.10659 0.62083 0.44071 0.0
C1004 C 0.11255 0.63809 0.47802 0.0
C1005 C 0.1069 0.66312 0.47018 0.0
C1006 C 0.0959 0.67114 0.42682 0.0
C1007 C 0.09301 0.69913 0.426 0.0
C1008 C 0.10719 0.71054 0.3819 0.0
C1009 C 0.06542 0.70659 0.42514 0.0
C1010 C 0.10495 0.70581 0.47502 0.0
C1011 C 0.11262 0.68475 0.50026 0.0
C1012 C 0.12668 0.68634 0.54354 0.0
C1013 C 0.13398 0.70993 0.56021 0.0
C1014 C 0.12692 0.73158 0.53403 0.0
C1015 C 0.11156 0.72952 0.49195 0.0
H1016 H 0.88247 0.65104 0.36821 0.0
H1017 H 0.91995 0.70489 0.46141 0.0
H1018 H 0.95754 0.70163 0.40912 0.0
H1019 H 0.93367 0.61168 0.35742 0.0
H1020 H 0.92729 0.60229 0.29454 0.0
H1021 H 0.90228 0.61219 0.33405 0.0
H1022 H 0.8899 0.64536 0.26882 0.0
H1023 H 0.91529 0.63578 0.22953 0.0
H1024 H 0.91261 0.66778 0.24847 0.0
H1025 H 0.99224 0.69001 0.35126 0.0
H1026 H 0.02281 0.66605 0.3022 0.0
H1027 H 0.96362 0.61837 0.24911 0.0
C1028 C 0.89846 0.66248 0.37686 0.0
C1029 C 0.89829 0.67835 0.4185 0.0
C1030 C 0.91974 0.69257 0.42962 0.0
C1031 C 0.94107 0.69106 0.39982 0.0
C1032 C 0.94079 0.67509 0.35916 0.0
C1033 C 0.92014 0.66077 0.34808 0.0
C1034 C 0.92578 0.64258 0.3067 0.0
C1035 C 0.92205 0.6156 0.32425 0.0
C1036 C 0.90995 0.64822 0.26065 0.0
C1037 C 0.95298 0.64836 0.29738 0.0
C1038 C 0.96112 0.66769 0.32691 0.0
C1039 C 0.98601 0.6751 0.32739 0.0
C1040 C 0.00325 0.66156 0.29897 0.0
C1041 C 0.99553 0.64056 0.27143 0.0
C1042 C 0.96993 0.63465 0.2691 0.0
H1043 H 0.15299 0.22188 0.54498 0.0
H1044 H 0.09167 0.27305 0.56694 0.0
H1045 H 0.06785 0.23986 0.60888 0.0
H1046 H 0.11357 0.16475 0.52614 0.0
H1047 H 0.13583 0.14556 0.55819 0.0
H1048 H 0.14622 0.17222 0.52343 0.0
H1049 H 0.16839 0.18886 0.60191 0.0
H1050 H 0.15763 0.16265 0.63725 0.0
H1051 H 0.15068 0.19374 0.65785 0.0
H1052 H 0.0544 0.20386 0.66183 0.0
H1053 H 0.04901 0.16524 0.71018 0.0
H1054 H 0.1179 0.13643 0.64947 0.0
C1055 C 0.13419 0.22584 0.55705 0.0
C1056 C 0.1241 0.24999 0.55253 0.0
C1057 C 0.09959 0.25459 0.56932 0.0
C1058 C 0.08602 0.23589 0.59354 0.0
C1059 C 0.09703 0.21262 0.5996 0.0
C1060 C 0.12029 0.20731 0.58057 0.0
C1061 C 0.12849 0.18125 0.59428 0.0
C1062 C 0.13117 0.16498 0.54773 0.0
C1063 C 0.15272 0.18167 0.62462 0.0
C1064 C 0.10666 0.17305 0.62568 0.0
C1065 C 0.08876 0.19145 0.62845 0.0
C1066 C 0.06798 0.1891 0.65894 0.0
C1067 C 0.06522 0.16722 0.68664 0.0
C1068 C 0.08298 0.14786 0.68324 0.0
C1069 C 0.10387 0.15081 0.65212 0.0
H1070 H 0.58903 0.31797 0.93388 0.0
H1071 H 0.64812 0.35076 0.84587 0.0
H1072 H 0.61714 0.36393 0.78346 0.0
H1073 H 0.54982 0.29698 0.82823 0.0
H1074 H 0.52149 0.30442 0.86073 0.0
H1075 H 0.54861 0.29472 0.89487 0.0
H1076 H 0.54654 0.33491 0.94777 0.0
H1077 H 0.51934 0.34449 0.91425 0.0
H1078 H 0.54605 0.36466 0.91708 0.0
H1079 H 0.57933 0.37891 0.73781 0.0
H1080 H 0.538 0.39521 0.7142 0.0
H1081 H 0.50369 0.35084 0.82909 0.0
C1082 C 0.59559 0.32757 0.90112 0.0
C1083 C 0.62107 0.33335 0.89487 0.0
C1084 C 0.62875 0.34605 0.85149 0.0
C1085 C 0.61128 0.35349 0.8157 0.0
C1086 C 0.58627 0.34773 0.82341 0.0
C1087 C 0.57848 0.33492 0.86497 0.0
C1088 C 0.5504 0.33285 0.86682 0.0
C1089 C 0.5421 0.30562 0.86239 0.0
C1090 C 0.53998 0.34496 0.91426 0.0
C1091 C 0.54345 0.34748 0.82092 0.0
C1092 C 0.56444 0.35562 0.79595 0.0
C1093 C 0.56279 0.37202 0.75607 0.0
C1094 C 0.53927 0.38106 0.74266 0.0
C1095 C 0.51773 0.37346 0.76864 0.0
C1096 C 0.51978 0.35588 0.80712 0.0
H1097 H 0.39334 0.74705 0.06062 0.0
H1098 H 0.34282 0.78118 0.95618 0.0
H1099 H 0.3572 0.8228 0.98241 0.0
H1100 H 0.37842 0.78423 0.1539 0.0
H1101 H 0.40854 0.78662 0.18275 0.0
H1102 H 0.40107 0.75984 0.14595 0.0
H1103 H 0.43927 0.76744 0.08961 0.0
H1104 H 0.4475 0.79389 0.12721 0.0
H1105 H 0.44364 0.79745 0.06121 0.0
H1106 H 0.37119 0.86002 0.03005 0.0
H1107 H 0.38418 0.89011 0.09422 0.0
H1108 H 0.4223 0.83115 0.1733 0.0
C1109 C 0.38659 0.76331 0.04115 0.0
C1110 C 0.36779 0.76113 0.0051 0.0
C1111 C 0.35791 0.78267 0.9826 0.0
C1112 C 0.36587 0.80632 0.99753 0.0
C1113 C 0.38338 0.80796 0.03552 0.0
C1114 C 0.3938 0.78699 0.05681 0.0
C1115 C 0.40874 0.79353 0.10259 0.0
C1116 C 0.39857 0.78027 0.14899 0.0
C1117 C 0.43644 0.78774 0.09466 0.0
C1118 C 0.40419 0.82123 0.10499 0.0
C1119 C 0.39008 0.8293 0.06533 0.0
C1120 C 0.38257 0.85398 0.06085 0.0
C1121 C 0.38988 0.87088 0.09761 0.0
C1122 C 0.40406 0.8629 0.13887 0.0
C1123 C 0.41129 0.83774 0.14238 0.0
H1124 H 0.08839 0.3438 0.61576 0.0
H1125 H 0.14176 0.39134 0.69052 0.0
H1126 H 0.10952 0.40268 0.75209 0.0
H1127 H 0.03654 0.38284 0.62882 0.0
H1128 H 0.01488 0.35771 0.63809 0.0
H1129 H 0.04274 0.35263 0.6027 0.0
H1130 H 0.05432 0.31617 0.66121 0.0
H1131 H 0.02669 0.32161 0.6975 0.0
H1132 H 0.05676 0.32164 0.72697 0.0
H1133 H 0.07043 0.41151 0.80063 0.0
H1134 H 0.02726 0.41961 0.82772 0.0
H1135 H 0.00034 0.36438 0.72428 0.0
C1136 C 0.09344 0.35661 0.64502 0.0
C1137 C 0.11767 0.36677 0.64809 0.0
C1138 C 0.12334 0.38338 0.68722 0.0
C1139 C 0.10521 0.38974 0.72261 0.0
C1140 C 0.08164 0.37906 0.71874 0.0
C1141 C 0.07575 0.3629 0.68078 0.0
C1142 C 0.04876 0.35498 0.68304 0.0
C1143 C 0.03493 0.3625 0.63536 0.0
C1144 C 0.04651 0.32693 0.69277 0.0
C1145 C 0.04002 0.36988 0.72734 0.0
C1146 C 0.05936 0.3834 0.74786 0.0
C1147 C 0.05531 0.40056 0.78571 0.0
C1148 C 0.03079 0.40488 0.80122 0.0
C1149 C 0.01071 0.39195 0.77925 0.0
C1150 C 0.01551 0.37357 0.74327 0.0
H1151 H 0.85897 0.79385 0.57741 0.0
H1152 H 0.91718 0.73922 0.55597 0.0
H1153 H 0.94296 0.77095 0.51467 0.0
H1154 H 0.86029 0.81649 0.46541 0.0
H1155 H 0.85471 0.8488 0.479 0.0
H1156 H 0.84415 0.82535 0.52132 0.0
H1157 H 0.86881 0.84546 0.5932 0.0
H1158 H 0.87891 0.86965 0.55153 0.0
H1159 H 0.9015 0.8518 0.58566 0.0
H1160 H 0.9566 0.80381 0.45608 0.0
H1161 H 0.95986 0.83717 0.39393 0.0
H1162 H 0.89289 0.8713 0.45204 0.0
C1163 C 0.87774 0.78896 0.56659 0.0
C1164 C 0.88612 0.76407 0.5702 0.0
C1165 C 0.91053 0.7582 0.55456 0.0
C1166 C 0.92522 0.77613 0.53057 0.0
C1167 C 0.91541 0.7999 0.52343 0.0
C1168 C 0.89246 0.80658 0.54226 0.0
C1169 C 0.88447 0.83194 0.52332 0.0
C1170 C 0.85944 0.83053 0.49563 0.0
C1171 C 0.88337 0.85083 0.56597 0.0
C1172 C 0.90565 0.83776 0.48821 0.0
C1173 C 0.92348 0.8192 0.48945 0.0
C1174 C 0.94319 0.81879 0.45596 0.0
C1175 C 0.94471 0.8377 0.4204 0.0
C1176 C 0.92667 0.85688 0.4184 0.0
C1177 C 0.90719 0.85715 0.45346 0.0
H1178 H 0.38264 0.62553 0.18015 0.0
H1179 H 0.40952 0.69521 0.11946 0.0
H1180 H 0.4449 0.69439 0.17713 0.0
H1181 H 0.40417 0.63572 0.31054 0.0
H1182 H 0.41345 0.60374 0.31767 0.0
H1183 H 0.38782 0.6116 0.27756 0.0
H1184 H 0.40942 0.5892 0.20403 0.0
H1185 H 0.43472 0.58092 0.24418 0.0
H1186 H 0.44079 0.59769 0.18762 0.0
H1187 H 0.47976 0.68413 0.23414 0.0
H1188 H 0.51383 0.6622 0.27689 0.0
H1189 H 0.46501 0.59921 0.3014 0.0
C1190 C 0.39576 0.64079 0.17973 0.0
C1191 C 0.39329 0.6604 0.14533 0.0
C1192 C 0.41109 0.67985 0.14523 0.0
C1193 C 0.43113 0.67975 0.17833 0.0
C1194 C 0.43323 0.66008 0.2115 0.0
C1195 C 0.41617 0.64082 0.2122 0.0
C1196 C 0.4245 0.62038 0.24702 0.0
C1197 C 0.4064 0.61771 0.2908 0.0
C1198 C 0.42755 0.5956 0.21903 0.0
C1199 C 0.44934 0.63069 0.26396 0.0
C1200 C 0.45371 0.65393 0.24418 0.0
C1201 C 0.47641 0.6661 0.25061 0.0
C1202 C 0.49566 0.65358 0.27537 0.0
C1203 C 0.49214 0.629 0.29261 0.0
C1204 C 0.46822 0.61811 0.28916 0.0
H1205 H 0.62427 0.1268 0.90638 0.0
H1206 H 0.54898 0.15157 0.87651 0.0
H1207 H 0.5536 0.18494 0.93813 0.0
H1208 H 0.62555 0.14304 0.04088 0.0
H1209 H 0.65717 0.15402 0.03787 0.0
H1210 H 0.64696 0.12952 0.99707 0.0
H1211 H 0.66114 0.15515 0.92069 0.0
H1212 H 0.67169 0.17943 0.9613 0.0
H1213 H 0.64968 0.18639 0.91288 0.0
H1214 H 0.56715 0.21784 0.99634 0.0
H1215 H 0.59052 0.25093 0.03889 0.0
H1216 H 0.65736 0.20582 0.03093 0.0
C1217 C 0.60868 0.13901 0.91358 0.0
C1218 C 0.58628 0.13657 0.88678 0.0
C1219 C 0.5664 0.15319 0.8964 0.0
C1220 C 0.56871 0.17204 0.93179 0.0
C1221 C 0.59106 0.17417 0.95731 0.0
C1222 C 0.61081 0.15829 0.94839 0.0
C1223 C 0.63373 0.16658 0.97654 0.0
C1224 C 0.64129 0.14713 0.0154 0.0
C1225 C 0.65532 0.17223 0.94072 0.0
C1226 C 0.62397 0.19001 0.00105 0.0
C1227 C 0.59913 0.19368 0.9905 0.0
C1228 C 0.58653 0.21505 0.00552 0.0
C1229 C 0.59996 0.23374 0.02989 0.0
C1230 C 0.6258 0.23107 0.03837 0.0
C1231 C 0.63758 0.20839 0.02564 0.0
H1232 H 0.26632 0.25173 0.17767 0.0
H1233 H 0.27885 0.17687 0.23257 0.0
H1234 H 0.2639 0.18963 0.31511 0.0
H1235 H 0.28566 0.28372 0.28786 0.0
H1236 H 0.26224 0.30754 0.28288 0.0
H1237 H 0.27389 0.29257 0.22783 0.0
H1238 H 0.229 0.28023 0.20308 0.0
H1239 H 0.21721 0.29524 0.25796 0.0
H1240 H 0.21005 0.26305 0.24628 0.0
H1241 H 0.24794 0.21045 0.39183 0.0
H1242 H 0.23088 0.23776 0.45697 0.0
H1243 H 0.22857 0.29891 0.35188 0.0
C1244 C 0.2659 0.23798 0.20697 0.0
C1245 C 0.27378 0.21329 0.19853 0.0
C1246 C 0.27289 0.1959 0.238 0.0
C1247 C 0.26447 0.20296 0.2851 0.0
C1248 C 0.25696 0.22744 0.29216 0.0
C1249 C 0.2575 0.24468 0.2542 0.0
C1250 C 0.24823 0.26976 0.27158 0.0
C1251 C 0.26873 0.28956 0.26729 0.0
C1252 C 0.22472 0.27752 0.24303 0.0
C1253 C 0.24239 0.26391 0.32522 0.0
C1254 C 0.24763 0.23943 0.33638 0.0
C1255 C 0.24375 0.22968 0.38358 0.0
C1256 C 0.23409 0.24536 0.42034 0.0
C1257 C 0.22837 0.2705 0.40963 0.0
C1258 C 0.23273 0.27981 0.36137 0.0
H1259 H 0.4609 0.48404 0.59606 0.0
H1260 H 0.52638 0.47756 0.68934 0.0
H1261 H 0.5523 0.49392 0.62129 0.0
H1262 H 0.48956 0.46542 0.48322 0.0
H1263 H 0.47259 0.48712 0.44521 0.0
H1264 H 0.45899 0.47559 0.50172 0.0
H1265 H 0.4528 0.52069 0.5331 0.0
H1266 H 0.46622 0.53237 0.47651 0.0
H1267 H 0.47908 0.54144 0.53549 0.0
H1268 H 0.5714 0.5093 0.54169 0.0
H1269 H 0.58181 0.52504 0.45819 0.0
H1270 H 0.50371 0.52211 0.41783 0.0
C1271 C 0.48066 0.48621 0.6024 0.0
C1272 C 0.49157 0.47948 0.64814 0.0
C1273 C 0.51753 0.48264 0.65475 0.0
C1274 C 0.53245 0.49186 0.61625 0.0
C1275 C 0.52113 0.49798 0.57146 0.0
C1276 C 0.4958 0.4955 0.56451 0.0
C1277 C 0.48825 0.50338 0.51278 0.0
C1278 C 0.47667 0.48158 0.48405 0.0
C1279 C 0.47055 0.52581 0.5146 0.0
C1280 C 0.51332 0.5105 0.49161 0.0
C1281 C 0.53207 0.50717 0.52594 0.0
C1282 C 0.55686 0.51212 0.51457 0.0
C1283 C 0.56259 0.52096 0.46696 0.0
C1284 C 0.5436 0.52488 0.43141 0.0
C1285 C 0.51868 0.51944 0.44413 0.0
H1286 H 0.23265 0.7991 0.72879 0.0
H1287 H 0.19296 0.73613 0.66669 0.0
H1288 H 0.20058 0.71226 0.74272 0.0
H1289 H 0.28032 0.76371 0.78309 0.0
H1290 H 0.28355 0.78251 0.83804 0.0
H1291 H 0.27225 0.79622 0.78155 0.0
H1292 H 0.23272 0.81127 0.82753 0.0
H1293 H 0.24389 0.79746 0.88421 0.0
H1294 H 0.21373 0.7891 0.86035 0.0
H1295 H 0.21522 0.69367 0.81979 0.0
H1296 H 0.23847 0.68026 0.89361 0.0
H1297 H 0.26958 0.75426 0.90863 0.0
C1298 C 0.22525 0.78046 0.73178 0.0
C1299 C 0.2122 0.76946 0.69192 0.0
C1300 C 0.20315 0.74486 0.69664 0.0
C1301 C 0.20717 0.73121 0.73987 0.0
C1302 C 0.22036 0.74232 0.7782 0.0
C1303 C 0.22942 0.7663 0.77477 0.0
C1304 C 0.24506 0.7727 0.81989 0.0
C1305 C 0.27188 0.77915 0.80472 0.0
C1306 C 0.23313 0.79389 0.84977 0.0
C1307 C 0.24391 0.74831 0.84816 0.0
C1308 C 0.22916 0.73128 0.82359 0.0
C1309 C 0.22653 0.7069 0.83988 0.0
C1310 C 0.23984 0.69944 0.88174 0.0
C1311 C 0.2556 0.71628 0.90692 0.0
C1312 C 0.25718 0.74121 0.89067 0.0
H1313 H 0.03993 0.52049 0.07047 0.0
H1314 H 0.97527 0.55493 0.13852 0.0
H1315 H 0.9506 0.54555 0.06424 0.0
H1316 H 0.02691 0.54044 0.94293 0.0
H1317 H 0.03722 0.51159 0.91591 0.0
H1318 H 0.05074 0.5224 0.97313 0.0
H1319 H 0.03901 0.48092 0.01586 0.0
H1320 H 0.02566 0.46994 0.95874 0.0
H1321 H 0.00716 0.47049 0.01449 0.0
H1322 H 0.93216 0.53089 0.98615 0.0
H1323 H 0.92014 0.50942 0.90926 0.0
H1324 H 0.99613 0.48418 0.88937 0.0
C1325 C 0.02063 0.52621 0.06955 0.0
C1326 C 0.00959 0.5385 0.11045 0.0
C1327 C 0.9842 0.54546 0.10789 0.0
C1328 C 0.97003 0.54036 0.06567 0.0
C1329 C 0.98143 0.52829 0.02613 0.0
C1330 C 0.00608 0.52115 0.02758 0.0
C1331 C 0.01321 0.5071 0.98083 0.0
C1332 C 0.03321 0.52123 0.95147 0.0
C1333 C 0.02176 0.48054 0.99324 0.0
C1334 C 0.98855 0.50708 0.9535 0.0
C1335 C 0.97062 0.51968 0.98028 0.0
C1336 C 0.94605 0.52116 0.96454 0.0
C1337 C 0.93941 0.50889 0.92087 0.0
C1338 C 0.95723 0.49531 0.8933 0.0
C1339 C 0.98227 0.49487 0.90923 0.0
H1340 H 0.74324 0.80966 0.85607 0.0
H1341 H 0.72909 0.7438 0.94486 0.0
H1342 H 0.74181 0.71739 0.87474 0.0
H1343 H 0.72113 0.78548 0.74115 0.0
H1344 H 0.7448 0.80012 0.70392 0.0
H1345 H 0.73511 0.81418 0.76138 0.0
H1346 H 0.78065 0.81408 0.79264 0.0
H1347 H 0.79051 0.80025 0.73508 0.0
H1348 H 0.79792 0.78538 0.7931 0.0
H1349 H 0.75418 0.698 0.79445 0.0
H1350 H 0.76893 0.68675 0.71099 0.0
H1351 H 0.77624 0.76501 0.67423 0.0
C1352 C 0.743 0.78969 0.86094 0.0
C1353 C 0.73512 0.77885 0.90611 0.0
C1354 C 0.73511 0.75261 0.91082 0.0
C1355 C 0.74221 0.73741 0.87109 0.0
C1356 C 0.74946 0.74868 0.82695 0.0
C1357 C 0.75021 0.77419 0.82174 0.0
C1358 C 0.75898 0.78149 0.7703 0.0
C1359 C 0.7388 0.79618 0.74256 0.0
C1360 C 0.78347 0.79616 0.77296 0.0
C1361 C 0.76287 0.75606 0.74739 0.0
C1362 C 0.7571 0.73743 0.78068 0.0
C1363 C 0.75889 0.71241 0.76809 0.0
C1364 C 0.7672 0.70623 0.72043 0.0
C1365 C 0.7738 0.72497 0.68589 0.0
C1366 C 0.77138 0.75023 0.69967 0.0
H1367 H 0.72748 0.24158 0.18138 0.0
H1368 H 0.7194 0.31747 0.23391 0.0
H1369 H 0.7344 0.30465 0.31642 0.0
H1370 H 0.70773 0.21148 0.29385 0.0
H1371 H 0.72989 0.1865 0.28856 0.0
H1372 H 0.71832 0.20155 0.23358 0.0
H1373 H 0.76343 0.21145 0.20616 0.0
H1374 H 0.77514 0.19636 0.26095 0.0
H1375 H 0.78372 0.22805 0.24779 0.0
H1376 H 0.75016 0.2836 0.39346 0.0
H1377 H 0.76694 0.25609 0.45852 0.0
H1378 H 0.7651 0.19408 0.35545 0.0
C1379 C 0.72884 0.25554 0.21017 0.0
C1380 C 0.72221 0.28055 0.20102 0.0
C1381 C 0.72437 0.2982 0.23985 0.0
C1382 C 0.73283 0.2911 0.28694 0.0
C1383 C 0.73911 0.2663 0.2947 0.0
C1384 C 0.73732 0.24881 0.25736 0.0
C1385 C 0.74559 0.22344 0.27522 0.0
C1386 C 0.7241 0.20464 0.27265 0.0
C1387 C 0.76832 0.2143 0.24578 0.0
C1388 C 0.75236 0.22943 0.3284 0.0
C1389 C 0.74838 0.25422 0.33896 0.0
C1390 C 0.75335 0.26414 0.38563 0.0
C1391 C 0.76284 0.24833 0.42239 0.0
C1392 C 0.76737 0.22288 0.41224 0.0
C1393 C 0.76188 0.21341 0.36455 0.0
H1394 H 0.00188 0.00703 0.9042 0.0
H1395 H 0.08051 0.00406 0.94079 0.0
H1396 H 0.07022 0.98682 0.02264 0.0
H1397 H 0.98083 0.02603 0.02195 0.0
H1398 H 0.95296 0.00744 0.02197 0.0
H1399 H 0.96612 0.01783 0.96417 0.0
H1400 H 0.96852 0.97239 0.93288 0.0
H1401 H 0.95504 0.96187 0.99035 0.0
H1402 H 0.98438 0.9494 0.96976 0.0
H1403 H 0.05206 0.97343 0.10171 0.0
H1404 H 0.02707 0.96057 0.17306 0.0
H1405 H 0.9595 0.97095 0.087 0.0
C1406 C 0.01695 0.00229 0.92904 0.0
C1407 C 0.04204 0.00693 0.91597 0.0
C1408 C 0.06118 0.00073 0.94984 0.0
C1409 C 0.05553 0.99094 0.99651 0.0
C1410 C 0.03067 0.98731 0.00873 0.0
C1411 C 0.01165 0.99244 0.97597 0.0
C1412 C 0.98648 0.98729 0.99939 0.0
C1413 C 0.97067 0.01107 0.00202 0.0
C1414 C 0.9728 0.96649 0.97143 0.0
C1415 C 0.99442 0.97884 0.05066 0.0
C1416 C 0.02002 0.97911 0.05495 0.0
C1417 C 0.03201 0.97286 0.09876 0.0
C1418 C 0.01752 0.96567 0.13922 0.0
C1419 C 0.9912 0.96462 0.13581 0.0
C1420 C 0.97952 0.97149 0.09085 0.0
H1421 H 0.53662 0.01099 0.59619 0.0
H1422 H 0.47178 0.01519 0.69185 0.0
H1423 H 0.44578 0.99839 0.62405 0.0
H1424 H 0.50717 0.03027 0.48635 0.0
H1425 H 0.52438 0.00958 0.44654 0.0
H1426 H 0.53805 0.02046 0.50343 0.0
H1427 H 0.54533 0.97503 0.53188 0.0
H1428 H 0.53193 0.96398 0.4748 0.0
H1429 H 0.51952 0.95368 0.53338 0.0
H1430 H 0.42659 0.98342 0.54354 0.0
H1431 H 0.41626 0.96898 0.45905 0.0
H1432 H 0.4941 0.97471 0.41764 0.0
C1433 C 0.517 0.00816 0.60324 0.0
C1434 C 0.50623 0.01443 0.64936 0.0
C1435 C 0.48047 0.0104 0.6569 0.0
C1436 C 0.46554 0.00096 0.61857 0.0
C1437 C 0.47672 0.99551 0.57319 0.0
C1438 C 0.50192 0.99873 0.56563 0.0
C1439 C 0.50943 0.99188 0.51336 0.0
C1440 C 0.5204 0.01439 0.48582 0.0
C1441 C 0.52762 0.96983 0.51338 0.0
C1442 C 0.48446 0.98458 0.49234 0.0
C1443 C 0.46579 0.98678 0.5273 0.0
C1444 C 0.44109 0.98147 0.51598 0.0
C1445 C 0.4354 0.97339 0.46781 0.0
C1446 C 0.45436 0.97068 0.43165 0.0
C1447 C 0.47915 0.9765 0.44433 0.0
H1448 H 0.22877 0.25738 0.67826 0.0
H1449 H 0.20894 0.32983 0.73764 0.0
H1450 H 0.22208 0.31641 0.82066 0.0
H1451 H 0.20904 0.22148 0.78489 0.0
H1452 H 0.23451 0.19984 0.78036 0.0
H1453 H 0.22275 0.21475 0.72537 0.0
H1454 H 0.2669 0.23131 0.70521 0.0
H1455 H 0.27879 0.21633 0.75993 0.0
H1456 H 0.2834 0.24921 0.75114 0.0
H1457 H 0.23792 0.2957 0.89687 0.0
H1458 H 0.25751 0.26935 0.96073 0.0
H1459 H 0.26714 0.21066 0.85168 0.0
C1460 C 0.22715 0.27041 0.70869 0.0
C1461 C 0.2178 0.29462 0.70135 0.0
C1462 C 0.21605 0.31114 0.74222 0.0
C1463 C 0.22337 0.30371 0.78965 0.0
C1464 C 0.23239 0.27971 0.79564 0.0
C1465 C 0.23441 0.26332 0.75635 0.0
C1466 C 0.24545 0.23884 0.77271 0.0
C1467 C 0.22682 0.21747 0.7654 0.0
C1468 C 0.2701 0.23363 0.74565 0.0
C1469 C 0.2496 0.24422 0.82711 0.0
C1470 C 0.24172 0.2678 0.83969 0.0
C1471 C 0.2441 0.27714 0.88762 0.0
C1472 C 0.2552 0.26203 0.92362 0.0
C1473 C 0.26389 0.23799 0.91119 0.0
C1474 C 0.26071 0.22896 0.86241 0.0
H1475 H 0.49951 0.49082 0.91521 0.0
H1476 H 0.45521 0.43225 0.98174 0.0
H1477 H 0.46369 0.4493 0.06483 0.0
H1478 H 0.54625 0.49506 0.01563 0.0
H1479 H 0.5484 0.52835 0.01006 0.0
H1480 H 0.54101 0.50977 0.95649 0.0
H1481 H 0.50109 0.53605 0.94327 0.0
H1482 H 0.50804 0.55426 0.9975 0.0
H1483 H 0.47862 0.5384 0.99269 0.0
H1484 H 0.47458 0.47416 0.14008 0.0
H1485 H 0.48977 0.50388 0.20309 0.0
H1486 H 0.52553 0.54681 0.08672 0.0
C1487 C 0.49222 0.48123 0.94739 0.0
C1488 C 0.47684 0.46022 0.94225 0.0
C1489 C 0.46708 0.44843 0.98506 0.0
C1490 C 0.47174 0.45796 0.03236 0.0
C1491 C 0.48617 0.47929 0.03615 0.0
C1492 C 0.49649 0.49065 0.99496 0.0
C1493 C 0.51028 0.51404 0.00918 0.0
C1494 C 0.53814 0.51165 0.99713 0.0
C1495 C 0.49881 0.53704 0.98417 0.0
C1496 C 0.50576 0.51417 0.06453 0.0
C1497 C 0.49194 0.49393 0.07945 0.0
C1498 C 0.48553 0.49007 0.12896 0.0
C1499 C 0.49409 0.50711 0.1644 0.0
C1500 C 0.50873 0.52772 0.14989 0.0
C1501 C 0.51421 0.53138 0.09914 0.0
H1502 H 0.22334 0.78959 0.34386 0.0
H1503 H 0.25438 0.74078 0.4562 0.0
H1504 H 0.28003 0.72035 0.39212 0.0
H1505 H 0.21753 0.74431 0.25129 0.0
H1506 H 0.22547 0.76466 0.20061 0.0
H1507 H 0.21146 0.77718 0.25583 0.0
H1508 H 0.24839 0.80771 0.26585 0.0
H1509 H 0.26254 0.79528 0.21056 0.0
H1510 H 0.27967 0.79575 0.26797 0.0
H1511 H 0.30015 0.70393 0.31672 0.0
H1512 H 0.31266 0.69065 0.23352 0.0
H1513 H 0.26786 0.74949 0.16863 0.0
C1514 C 0.23581 0.77485 0.35519 0.0
C1515 C 0.237 0.76682 0.40505 0.0
C1516 C 0.25321 0.7472 0.41822 0.0
C1517 C 0.26792 0.7356 0.38218 0.0
C1518 C 0.26611 0.74387 0.33335 0.0
C1519 C 0.25045 0.76297 0.31971 0.0
C1520 C 0.25074 0.76709 0.26413 0.0
C1521 C 0.22476 0.76306 0.24166 0.0
C1522 C 0.26095 0.793 0.25139 0.0
C1523 C 0.26862 0.74687 0.24848 0.0
C1524 C 0.27748 0.734 0.28921 0.0
C1525 C 0.29348 0.71392 0.28455 0.0
C1526 C 0.30036 0.70649 0.23695 0.0
C1527 C 0.2911 0.71896 0.19439 0.0
C1528 C 0.27533 0.7397 0.20037 0.0
H1529 H 0.03586 0.53045 0.45241 0.0
H1530 H 0.97577 0.52024 0.34662 0.0
H1531 H 0.95096 0.49935 0.41107 0.0
H1532 H 0.0287 0.4719 0.51543 0.0
H1533 H 0.0355 0.48451 0.57584 0.0
H1534 H 0.04883 0.49851 0.52131 0.0
H1535 H 0.03009 0.54105 0.54647 0.0
H1536 H 0.01664 0.52717 0.60102 0.0
H1537 H 0.99713 0.54353 0.55761 0.0
H1538 H 0.93282 0.47991 0.48525 0.0
H1539 H 0.92161 0.46263 0.56617 0.0
H1540 H 0.99314 0.48558 0.62573 0.0
C1541 C 0.01752 0.52374 0.44269 0.0
C1542 C 0.00775 0.52694 0.39442 0.0
C1543 C 0.98363 0.51802 0.38332 0.0
C1544 C 0.9694 0.50613 0.41964 0.0
C1545 C 0.97955 0.5034 0.46677 0.0
C1546 C 0.003 0.51192 0.47853 0.0
C1547 C 0.00932 0.50675 0.53233 0.0
C1548 C 0.03192 0.48938 0.53645 0.0
C1549 C 0.01353 0.53108 0.56105 0.0
C1550 C 0.98569 0.49392 0.54888 0.0
C1551 C 0.96887 0.49222 0.51028 0.0
C1552 C 0.94579 0.48109 0.51582 0.0
C1553 C 0.93967 0.47129 0.56208 0.0
C1554 C 0.95655 0.47268 0.60244 0.0
C1555 C 0.97984 0.48429 0.59571 0.0
H1556 H 0.74565 0.76807 0.17318 0.0
H1557 H 0.73021 0.84306 0.22441 0.0
H1558 H 0.75006 0.83358 0.30418 0.0
H1559 H 0.73211 0.7383 0.28526 0.0
H1560 H 0.75644 0.71541 0.28031 0.0
H1561 H 0.74316 0.72868 0.22513 0.0
H1562 H 0.78694 0.74258 0.19579 0.0
H1563 H 0.8004 0.72915 0.25076 0.0
H1564 H 0.80592 0.76136 0.23616 0.0
H1565 H 0.76819 0.815 0.38112 0.0
H1566 H 0.78547 0.7888 0.44817 0.0
H1567 H 0.78907 0.7264 0.34618 0.0
C1568 C 0.74681 0.78262 0.20082 0.0
C1569 C 0.73639 0.80627 0.19242 0.0
C1570 C 0.73808 0.82475 0.22984 0.0
C1571 C 0.74934 0.8196 0.27538 0.0
C1572 C 0.75888 0.79592 0.28291 0.0
C1573 C 0.75795 0.77779 0.24658 0.0
C1574 C 0.76858 0.75352 0.26495 0.0
C1575 C 0.7489 0.73277 0.26385 0.0
C1576 C 0.79185 0.74623 0.23514 0.0
C1577 C 0.77515 0.76075 0.31748 0.0
C1578 C 0.76951 0.78528 0.32717 0.0
C1579 C 0.77298 0.79581 0.37391 0.0
C1580 C 0.78265 0.78079 0.41177 0.0
C1581 C 0.7887 0.75564 0.40233 0.0
C1582 C 0.78489 0.74564 0.3545 0.0
H1583 H 0.77071 0.23729 0.68359 0.0
H1584 H 0.7827 0.16199 0.73675 0.0
H1585 H 0.76864 0.17437 0.81978 0.0
H1586 H 0.79059 0.26853 0.79638 0.0
H1587 H 0.76723 0.29242 0.79184 0.0
H1588 H 0.77923 0.27804 0.73644 0.0
H1589 H 0.73448 0.26598 0.70987 0.0
H1590 H 0.72235 0.28046 0.76497 0.0
H1591 H 0.71523 0.2484 0.75189 0.0
H1592 H 0.7526 0.19436 0.89673 0.0
H1593 H 0.73327 0.22063 0.96135 0.0
H1594 H 0.73159 0.28254 0.85807 0.0
C1595 C 0.77042 0.22343 0.71268 0.0
C1596 C 0.77787 0.19873 0.70357 0.0
C1597 C 0.77716 0.1811 0.74272 0.0
C1598 C 0.76928 0.18792 0.79017 0.0
C1599 C 0.76221 0.21242 0.79799 0.0
C1600 C 0.76261 0.22991 0.76041 0.0
C1601 C 0.75324 0.25479 0.77846 0.0
C1602 C 0.7738 0.27461 0.77561 0.0
C1603 C 0.72994 0.26287 0.74959 0.0
C1604 C 0.74711 0.24834 0.83165 0.0
C1605 C 0.7527 0.22391 0.84239 0.0
C1606 C 0.74822 0.21359 0.88895 0.0
C1607 C 0.73732 0.22863 0.9254 0.0
C1608 C 0.73089 0.25354 0.91464 0.0
C1609 C 0.73621 0.26351 0.86736 0.0
H1610 H 0.97453 0.94771 0.47885 0.0
H1611 H 0.02275 0.98151 0.36863 0.0
H1612 H 0.04104 0.00821 0.4334 0.0
H1613 H 0.96053 0.00085 0.54432 0.0
H1614 H 0.96112 0.98697 0.60513 0.0
H1615 H 0.95374 0.96827 0.55186 0.0
H1616 H 0.98948 0.93777 0.57331 0.0
H1617 H 0.99668 0.95612 0.62735 0.0
H1618 H 0.02051 0.94963 0.58216 0.0
H1619 H 0.04958 0.03473 0.50601 0.0
H1620 H 0.05238 0.05655 0.58569 0.0
H1621 H 3e-05 0.00439 0.65069 0.0
C1622 C 0.98928 0.9604 0.46854 0.0
C1623 C 0.99721 0.9627 0.41884 0.0
C1624 C 0.01654 0.97942 0.40661 0.0
C1625 C 0.02697 0.99468 0.44305 0.0
C1626 C 0.01811 0.99255 0.49139 0.0
C1627 C 0.00011 0.97549 0.5045 0.0
C1628 C 0.99327 0.97762 0.55879 0.0
C1629 C 0.96552 0.9838 0.56537 0.0
C1630 C 0.00042 0.95387 0.58707 0.0
C1631 C 0.00956 0.99924 0.57367 0.0
C1632 C 0.0237 0.0075 0.53413 0.0
C1633 C 0.03897 0.02821 0.53752 0.0
C1634 C 0.04017 0.04062 0.58284 0.0
C1635 C 0.02633 0.03213 0.62432 0.0
C1636 C 0.01087 0.01114 0.61964 0.0
H1637 H 0.50205 0.00699 0.91417 0.0
H1638 H 0.5613 0.05207 0.97631 0.0
H1639 H 0.55299 0.03453 0.05902 0.0
H1640 H 0.46032 0.01113 0.01928 0.0
H1641 H 0.4499 0.97946 0.01322 0.0
H1642 H 0.46001 0.99637 0.95926 0.0
H1643 H 0.49203 0.96161 0.93998 0.0
H1644 H 0.48217 0.94475 0.9942 0.0
H1645 H 0.51444 0.95295 0.98656 0.0
H1646 H 0.53812 0.01215 0.13536 0.0
H1647 H 0.51757 0.98622 0.19926 0.0
H1648 H 0.46959 0.95492 0.08581 0.0
C1649 C 0.51309 0.01333 0.94525 0.0
C1650 C 0.53227 0.03088 0.93882 0.0
C1651 C 0.54654 0.03853 0.98035 0.0
C1652 C 0.54197 0.02872 0.02751 0.0
C1653 C 0.52318 0.01118 0.0325 0.0
C1654 C 0.50898 0.00355 0.99254 0.0
C1655 C 0.49028 0.98405 0.00772 0.0
C1656 C 0.46355 0.99332 0.99938 0.0
C1657 C 0.49503 0.95938 0.9805 0.0
C1658 C 0.49624 0.98195 0.06232 0.0
C1659 C 0.51516 0.99781 0.07608 0.0
C1660 C 0.52335 -0.00047 0.12504 0.0
C1661 C 0.51163 0.98474 0.16101 0.0
C1662 C 0.49218 0.9684 0.14747 0.0
C1663 C 0.48465 0.96694 0.09737 0.0
loop_
_geom_bond_atom_site_label_1
_geom_bond_atom_site_label_2
_geom_bond_distance
_geom_bond_site_symmetry_2
_ccdc_geom_bond_type
O0 Zn1 1.953 . S
O0 C16 1.225 . S
Zn1 O0 1.953 . S
Zn1 O2 1.949 1_556 S
Zn1 O8 1.919 . S
Zn1 O13 1.924 . S
O2 Zn1 1.949 1_554 S
O2 Zn3 1.923 . S
O2 Zn4 1.950 . S
O2 Zn5 1.945 . S
Zn3 O2 1.923 . S
Zn3 O6 1.933 . S
Zn3 O9 1.941 1_554 S
Zn3 O10 1.965 . S
Zn4 O2 1.950 . S
Zn4 O11 1.938 . S
Zn4 O12 1.906 . S
Zn4 O22 1.953 1_554 S
Zn5 O2 1.945 . S
Zn5 O7 1.932 . S
Zn5 O14 1.977 . S
Zn5 O15 1.910 . S
O6 Zn3 1.933 . S
O6 C17 1.226 . S
O7 Zn5 1.932 . S
O7 C17 1.307 . S
O8 Zn1 1.919 . S
O8 C19 1.253 . S
O9 Zn3 1.941 1_556 S
O9 C19 1.283 . S
O10 Zn3 1.965 . S
O10 C18 1.303 . S
O11 Zn4 1.938 . S
O11 C18 1.247 . S
O12 Zn4 1.906 . S
O12 C20 1.304 . S
O13 Zn1 1.924 . S
O13 C21 1.311 . S
O14 Zn5 1.977 . S
O14 C20 1.272 . S
O15 Zn5 1.910 . S
O15 C21 1.231 1_554 S
C16 O0 1.225 . S
C16 O22 1.298 . S
C17 O6 1.226 . S
C17 O7 1.307 . S
C18 O10 1.303 . S
C18 O11 1.247 . S
C19 O8 1.253 . S
C19 O9 1.283 . S
C20 O12 1.304 . S
C20 O14 1.272 . S
C21 O13 1.311 . S
C21 O15 1.231 1_556 S
O22 Zn4 1.953 1_556 S
O22 C16 1.298 . S
O23 Zn24 1.953 . S
O23 C39 1.225 . S
Zn24 O23 1.953 . S
Zn24 O25 1.949 . S
Zn24 O31 1.919 . S
Zn24 O36 1.924 . S
O25 Zn24 1.949 . S
O25 Zn26 1.923 . S
O25 Zn27 1.950 . S
O25 Zn28 1.945 . S
Zn26 O25 1.923 . S
Zn26 O29 1.933 . S
Zn26 O32 1.941 . S
Zn26 O33 1.965 . S
Zn27 O25 1.950 . S
Zn27 O34 1.938 . S
Zn27 O35 1.906 . S
Zn27 O45 1.953 . S
Zn28 O25 1.945 . S
Zn28 O30 1.932 . S
Zn28 O37 1.977 . S
Zn28 O38 1.910 . S
O29 Zn26 1.933 . S
O29 C40 1.226 . S
O30 Zn28 1.932 . S
O30 C40 1.307 . S
O31 Zn24 1.919 . S
O31 C42 1.253 . S
O32 Zn26 1.941 . S
O32 C42 1.283 . S
O33 Zn26 1.965 . S
O33 C41 1.303 . S
O34 Zn27 1.938 . S
O34 C41 1.247 . S
O35 Zn27 1.906 . S
O35 C43 1.304 . S
O36 Zn24 1.924 . S
O36 C44 1.311 . S
O37 Zn28 1.977 . S
O37 C43 1.272 . S
O38 Zn28 1.910 . S
O38 C44 1.231 . S
C39 O23 1.225 . S
C39 O45 1.298 . S
C40 O29 1.226 . S
C40 O30 1.307 . S
C41 O33 1.303 . S
C41 O34 1.247 . S
C42 O31 1.253 . S
C42 O32 1.283 . S
C43 O35 1.304 . S
C43 O37 1.272 . S
C44 O36 1.311 . S
C44 O38 1.231 . S
O45 Zn27 1.953 . S
O45 C39 1.298 . S
O46 Zn47 1.953 . S
O46 C62 1.225 . S
Zn47 O46 1.953 . S
Zn47 O48 1.949 . S
Zn47 O54 1.919 . S
Zn47 O59 1.924 . S
O48 Zn47 1.949 . S
O48 Zn49 1.923 . S
O48 Zn50 1.950 . S
O48 Zn51 1.945 . S
Zn49 O48 1.923 . S
Zn49 O52 1.933 . S
Zn49 O55 1.941 . S
Zn49 O56 1.965 . S
Zn50 O48 1.950 . S
Zn50 O57 1.938 . S
Zn50 O58 1.906 . S
Zn50 O68 1.953 . S
Zn51 O48 1.945 . S
Zn51 O53 1.932 . S
Zn51 O60 1.977 . S
Zn51 O61 1.910 . S
O52 Zn49 1.933 . S
O52 C63 1.226 . S
O53 Zn51 1.932 . S
O53 C63 1.307 . S
O54 Zn47 1.919 . S
O54 C65 1.253 . S
O55 Zn49 1.941 . S
O55 C65 1.283 . S
O56 Zn49 1.965 . S
O56 C64 1.303 . S
O57 Zn50 1.938 . S
O57 C64 1.247 . S
O58 Zn50 1.906 . S
O58 C66 1.304 . S
O59 Zn47 1.924 . S
O59 C67 1.311 . S
O60 Zn51 1.977 . S
O60 C66 1.272 . S
O61 Zn51 1.910 . S
O61 C67 1.231 . S
C62 O46 1.225 . S
C62 O68 1.298 . S
C63 O52 1.226 . S
C63 O53 1.307 . S
C64 O56 1.303 . S
C64 O57 1.247 . S
C65 O54 1.253 . S
C65 O55 1.283 . S
C66 O58 1.304 . S
C66 O60 1.272 . S
C67 O59 1.311 . S
C67 O61 1.231 . S
O68 Zn50 1.953 . S
O68 C62 1.298 . S
O69 Zn70 1.953 . S
O69 C85 1.225 . S
Zn70 O69 1.953 . S
Zn70 O71 1.949 . S
Zn70 O77 1.919 . S
Zn70 O82 1.924 . S
O71 Zn70 1.949 . S
O71 Zn72 1.923 . S
O71 Zn73 1.950 . S
O71 Zn74 1.945 . S
Zn72 O71 1.923 . S
Zn72 O75 1.933 . S
Zn72 O78 1.941 . S
Zn72 O79 1.965 . S
Zn73 O71 1.950 . S
Zn73 O80 1.960 . S
Zn73 O81 1.906 . S
Zn73 O91 1.953 . S
Zn74 O71 1.945 . S
Zn74 O76 1.932 . S
Zn74 O83 1.977 . S
Zn74 O84 1.910 . S
O75 Zn72 1.933 . S
O75 C86 1.226 . S
O76 Zn74 1.932 . S
O76 C86 1.307 . S
O77 Zn70 1.919 . S
O77 C88 1.253 . S
O78 Zn72 1.941 . S
O78 C88 1.283 . S
O79 Zn72 1.965 . S
O79 C87 1.303 . S
O80 Zn73 1.960 . S
O80 C87 1.253 . S
O81 Zn73 1.906 . S
O81 C89 1.304 . S
O82 Zn70 1.924 . S
O82 C90 1.311 . S
O83 Zn74 1.977 . S
O83 C89 1.272 . S
O84 Zn74 1.910 . S
O84 C90 1.231 . S
C85 O69 1.225 . S
C85 O91 1.298 . S
C86 O75 1.226 . S
C86 O76 1.307 . S
C87 O79 1.303 . S
C87 O80 1.253 . S
C88 O77 1.253 . S
C88 O78 1.283 . S
C89 O81 1.304 . S
C89 O83 1.272 . S
C90 O82 1.311 . S
C90 O84 1.231 . S
O91 Zn73 1.953 . S
O91 C85 1.298 . S
O92 Zn93 1.953 . S
O92 C108 1.225 . S
Zn93 O92 1.953 . S
Zn93 O94 1.949 . S
Zn93 O100 1.919 . S
Zn93 O105 1.924 . S
O94 Zn93 1.949 . S
O94 Zn95 1.923 . S
O94 Zn96 1.950 . S
O94 Zn97 1.945 1_554 S
Zn95 O94 1.923 . S
Zn95 O98 1.933 1_554 S
Zn95 O101 1.941 . S
Zn95 O102 1.965 . S
Zn96 O94 1.950 . S
Zn96 O103 1.938 . S
Zn96 O104 1.906 1_554 S
Zn96 O114 1.953 . S
Zn97 O94 1.945 1_556 S
Zn97 O99 1.932 . S
Zn97 O106 1.977 . S
Zn97 O107 1.910 1_556 S
O98 Zn95 1.933 1_556 S
O98 C109 1.226 . S
O99 Zn97 1.932 . S
O99 C109 1.307 . S
O100 Zn93 1.919 . S
O100 C111 1.253 . S
O101 Zn95 1.941 . S
O101 C111 1.283 . S
O102 Zn95 1.965 . S
O102 C110 1.303 . S
O103 Zn96 1.938 . S
O103 C110 1.247 . S
O104 Zn96 1.906 1_556 S
O104 C112 1.304 . S
O105 Zn93 1.924 . S
O105 C113 1.311 . S
O106 Zn97 1.977 . S
O106 C112 1.272 . S
O107 Zn97 1.910 1_554 S
O107 C113 1.231 . S
C108 O92 1.225 . S
C108 O114 1.298 . S
C109 O98 1.226 . S
C109 O99 1.307 . S
C110 O102 1.303 . S
C110 O103 1.247 . S
C111 O100 1.253 . S
C111 O101 1.283 . S
C112 O104 1.304 . S
C112 O106 1.272 . S
C113 O105 1.311 . S
C113 O107 1.231 . S
O114 Zn96 1.953 . S
O114 C108 1.298 . S
O115 Zn116 1.953 . S
O115 C131 1.225 . S
Zn116 O115 1.953 . S
Zn116 O117 1.949 . S
Zn116 O123 1.919 . S
Zn116 O128 1.924 . S
O117 Zn116 1.949 . S
O117 Zn118 1.923 . S
O117 Zn119 1.950 . S
O117 Zn120 1.945 . S
Zn118 O117 1.923 . S
Zn118 O121 1.933 . S
Zn118 O124 1.941 . S
Zn118 O125 1.965 . S
Zn119 O117 1.950 . S
Zn119 O126 1.938 . S
Zn119 O127 1.906 . S
Zn119 O137 1.953 . S
Zn120 O117 1.945 . S
Zn120 O122 1.932 . S
Zn120 O129 1.977 . S
Zn120 O130 1.910 . S
O121 Zn118 1.933 . S
O121 C132 1.226 . S
O122 Zn120 1.932 . S
O122 C132 1.307 . S
O123 Zn116 1.919 . S
O123 C134 1.253 . S
O124 Zn118 1.941 . S
O124 C134 1.283 . S
O125 Zn118 1.965 . S
O125 C133 1.303 . S
O126 Zn119 1.938 . S
O126 C133 1.247 . S
O127 Zn119 1.906 . S
O127 C135 1.304 . S
O128 Zn116 1.924 . S
O128 C136 1.311 . S
O129 Zn120 1.977 . S
O129 C135 1.272 . S
O130 Zn120 1.910 . S
O130 C136 1.231 . S
C131 O115 1.225 . S
C131 O137 1.298 . S
C132 O121 1.226 . S
C132 O122 1.307 . S
C133 O125 1.303 . S
C133 O126 1.247 . S
C134 O123 1.253 . S
C134 O124 1.283 . S
C135 O127 1.304 . S
C135 O129 1.272 . S
C136 O128 1.311 . S
C136 O130 1.231 . S
O137 Zn119 1.953 . S
O137 C131 1.298 . S
O138 Zn139 1.953 . S
O138 C154 1.225 . S
Zn139 O138 1.953 . S
Zn139 O140 1.949 . S
Zn139 O146 1.919 . S
Zn139 O151 1.924 . S
O140 Zn139 1.949 . S
O140 Zn141 1.923 . S
O140 Zn142 1.950 . S
O140 Zn143 1.945 . S
Zn141 O140 1.923 . S
Zn141 O144 1.933 . S
Zn141 O147 1.941 . S
Zn141 O148 1.965 . S
Zn142 O140 1.950 . S
Zn142 O149 1.938 . S
Zn142 O150 1.906 . S
Zn142 O160 1.953 . S
Zn143 O140 1.945 . S
Zn143 O145 1.932 . S
Zn143 O152 1.977 . S
Zn143 O153 1.910 . S
O144 Zn141 1.933 . S
O144 C155 1.226 . S
O145 Zn143 1.932 . S
O145 C155 1.307 . S
O146 Zn139 1.919 . S
O146 C157 1.253 . S
O147 Zn141 1.941 . S
O147 C157 1.283 . S
O148 Zn141 1.965 . S
O148 C156 1.303 . S
O149 Zn142 1.938 . S
O149 C156 1.247 . S
O150 Zn142 1.906 . S
O150 C158 1.304 . S
O151 Zn139 1.924 . S
O151 C159 1.311 . S
O152 Zn143 1.977 . S
O152 C158 1.272 . S
O153 Zn143 1.910 . S
O153 C159 1.231 . S
C154 O138 1.225 . S
C154 O160 1.298 . S
C155 O144 1.226 . S
C155 O145 1.307 . S
C156 O148 1.303 . S
C156 O149 1.247 . S
C157 O146 1.253 . S
C157 O147 1.283 . S
C158 O150 1.304 . S
C158 O152 1.272 . S
C159 O151 1.311 . S
C159 O153 1.231 . S
O160 Zn142 1.953 . S
O160 C154 1.298 . S
O161 Zn162 1.953 . S
O161 C177 1.225 . S
Zn162 O161 1.953 . S
Zn162 O163 1.949 . S
Zn162 O169 1.919 . S
Zn162 O174 1.924 . S
O163 Zn162 1.949 . S
O163 Zn164 1.923 . S
O163 Zn165 1.950 . S
O163 Zn166 1.945 . S
Zn164 O163 1.923 . S
Zn164 O167 1.933 . S
Zn164 O170 1.941 . S
Zn164 O171 1.965 . S
Zn165 O163 1.950 . S
Zn165 O172 1.960 . S
Zn165 O173 1.906 . S
Zn165 O183 1.953 . S
Zn166 O163 1.945 . S
Zn166 O168 1.932 . S
Zn166 O175 1.977 . S
Zn166 O176 1.910 . S
O167 Zn164 1.933 . S
O167 C178 1.226 . S
O168 Zn166 1.932 . S
O168 C178 1.307 . S
O169 Zn162 1.919 . S
O169 C180 1.253 . S
O170 Zn164 1.941 . S
O170 C180 1.283 . S
O171 Zn164 1.965 . S
O171 C179 1.303 . S
O172 Zn165 1.960 . S
O172 C179 1.253 . S
O173 Zn165 1.906 . S
O173 C181 1.304 . S
O174 Zn162 1.924 . S
O174 C182 1.311 . S
O175 Zn166 1.977 . S
O175 C181 1.272 . S
O176 Zn166 1.910 . S
O176 C182 1.231 . S
C177 O161 1.225 . S
C177 O183 1.298 . S
C178 O167 1.226 . S
C178 O168 1.307 . S
C179 O171 1.303 . S
C179 O172 1.253 . S
C180 O169 1.253 . S
C180 O170 1.283 . S
C181 O173 1.304 . S
C181 O175 1.272 . S
C182 O174 1.311 . S
C182 O176 1.231 . S
O183 Zn165 1.953 . S
O183 C177 1.298 . S
O184 Zn185 1.953 . S
O184 C200 1.225 . S
Zn185 O184 1.953 . S
Zn185 O186 1.949 . S
Zn185 O192 1.919 . S
Zn185 O197 1.924 . S
O186 Zn185 1.949 . S
O186 Zn187 1.923 . S
O186 Zn188 1.950 . S
O186 Zn189 1.945 . S
Zn187 O186 1.923 . S
Zn187 O190 1.933 . S
Zn187 O193 1.941 . S
Zn187 O194 1.965 . S
Zn188 O186 1.950 . S
Zn188 O195 1.938 . S
Zn188 O196 1.906 . S
Zn188 O206 1.953 . S
Zn189 O186 1.945 . S
Zn189 O191 1.932 . S
Zn189 O198 1.977 . S
Zn189 O199 1.910 . S
O190 Zn187 1.933 . S
O190 C201 1.226 . S
O191 Zn189 1.932 . S
O191 C201 1.307 . S
O192 Zn185 1.919 . S
O192 C203 1.253 . S
O193 Zn187 1.941 . S
O193 C203 1.283 . S
O194 Zn187 1.965 . S
O194 C202 1.303 . S
O195 Zn188 1.938 . S
O195 C202 1.247 . S
O196 Zn188 1.906 . S
O196 C204 1.304 . S
O197 Zn185 1.924 . S
O197 C205 1.311 . S
O198 Zn189 1.977 . S
O198 C204 1.272 . S
O199 Zn189 1.910 . S
O199 C205 1.231 . S
C200 O184 1.225 . S
C200 O206 1.298 . S
C201 O190 1.226 . S
C201 O191 1.307 . S
C202 O194 1.303 . S
C202 O195 1.247 . S
C203 O192 1.253 . S
C203 O193 1.283 . S
C204 O196 1.304 . S
C204 O198 1.272 . S
C205 O197 1.311 . S
C205 O199 1.231 . S
O206 Zn188 1.953 . S
O206 C200 1.298 . S
O207 Zn208 1.953 . S
O207 C223 1.225 . S
Zn208 O207 1.953 . S
Zn208 O209 1.949 . S
Zn208 O215 1.919 . S
Zn208 O220 1.924 . S
O209 Zn208 1.949 . S
O209 Zn210 1.923 . S
O209 Zn211 1.950 . S
O209 Zn212 1.945 . S
Zn210 O209 1.923 . S
Zn210 O213 1.933 . S
Zn210 O216 1.941 . S
Zn210 O217 1.965 . S
Zn211 O209 1.950 . S
Zn211 O218 1.960 . S
Zn211 O219 1.906 . S
Zn211 O229 1.953 . S
Zn212 O209 1.945 . S
Zn212 O214 1.932 . S
Zn212 O221 1.977 . S
Zn212 O222 1.910 . S
O213 Zn210 1.933 . S
O213 C224 1.226 . S
O214 Zn212 1.932 . S
O214 C224 1.307 . S
O215 Zn208 1.919 . S
O215 C226 1.253 . S
O216 Zn210 1.941 . S
O216 C226 1.283 . S
O217 Zn210 1.965 . S
O217 C225 1.303 . S
O218 Zn211 1.960 . S
O218 C225 1.253 . S
O219 Zn211 1.906 . S
O219 C227 1.304 . S
O220 Zn208 1.924 . S
O220 C228 1.311 . S
O221 Zn212 1.977 . S
O221 C227 1.272 . S
O222 Zn212 1.910 . S
O222 C228 1.231 . S
C223 O207 1.225 . S
C223 O229 1.298 . S
C224 O213 1.226 . S
C224 O214 1.307 . S
C225 O217 1.303 . S
C225 O218 1.253 . S
C226 O215 1.253 . S
C226 O216 1.283 . S
C227 O219 1.304 . S
C227 O221 1.272 . S
C228 O220 1.311 . S
C228 O222 1.231 . S
O229 Zn211 1.953 . S
O229 C223 1.298 . S
O230 Zn231 1.953 . S
O230 C246 1.225 . S
Zn231 O230 1.953 . S
Zn231 O232 1.949 1_556 S
Zn231 O238 1.919 . S
Zn231 O243 1.924 . S
O232 Zn231 1.949 1_554 S
O232 Zn233 1.923 . S
O232 Zn234 1.950 . S
O232 Zn235 1.945 . S
Zn233 O232 1.923 . S
Zn233 O236 1.933 . S
Zn233 O239 1.941 1_554 S
Zn233 O240 1.965 . S
Zn234 O232 1.950 . S
Zn234 O241 1.938 . S
Zn234 O242 1.906 . S
Zn234 O252 1.953 1_554 S
Zn235 O232 1.945 . S
Zn235 O237 1.932 . S
Zn235 O244 1.977 . S
Zn235 O245 1.910 . S
O236 Zn233 1.933 . S
O236 C247 1.226 . S
O237 Zn235 1.932 . S
O237 C247 1.307 . S
O238 Zn231 1.919 . S
O238 C249 1.253 . S
O239 Zn233 1.941 1_556 S
O239 C249 1.283 . S
O240 Zn233 1.965 . S
O240 C248 1.303 . S
O241 Zn234 1.938 . S
O241 C248 1.247 . S
O242 Zn234 1.906 . S
O242 C250 1.304 . S
O243 Zn231 1.924 . S
O243 C251 1.311 . S
O244 Zn235 1.977 . S
O244 C250 1.272 . S
O245 Zn235 1.910 . S
O245 C251 1.231 1_554 S
C246 O230 1.225 . S
C246 O252 1.298 . S
C247 O236 1.226 . S
C247 O237 1.307 . S
C248 O240 1.303 . S
C248 O241 1.247 . S
C249 O238 1.253 . S
C249 O239 1.283 . S
C250 O242 1.304 . S
C250 O244 1.272 . S
C251 O243 1.311 . S
C251 O245 1.231 1_556 S
O252 Zn234 1.953 1_556 S
O252 C246 1.298 . S
O253 Zn254 1.953 . S
O253 C269 1.225 . S
Zn254 O253 1.953 . S
Zn254 O255 1.949 . S
Zn254 O261 1.919 . S
Zn254 O266 1.924 . S
O255 Zn254 1.949 . S
O255 Zn256 1.923 . S
O255 Zn257 1.950 . S
O255 Zn258 1.945 . S
Zn256 O255 1.923 . S
Zn256 O259 1.933 . S
Zn256 O262 1.941 . S
Zn256 O263 1.965 . S
Zn257 O255 1.950 . S
Zn257 O264 1.938 . S
Zn257 O265 1.906 . S
Zn257 O275 1.953 . S
Zn258 O255 1.945 . S
Zn258 O260 1.932 . S
Zn258 O267 1.977 . S
Zn258 O268 1.910 . S
O259 Zn256 1.933 . S
O259 C270 1.226 . S
O260 Zn258 1.932 . S
O260 C270 1.307 . S
O261 Zn254 1.919 . S
O261 C272 1.253 . S
O262 Zn256 1.941 . S
O262 C272 1.283 . S
O263 Zn256 1.965 . S
O263 C271 1.303 . S
O264 Zn257 1.938 . S
O264 C271 1.247 . S
O265 Zn257 1.906 . S
O265 C273 1.304 . S
O266 Zn254 1.924 . S
O266 C274 1.311 . S
O267 Zn258 1.977 . S
O267 C273 1.272 . S
O268 Zn258 1.910 . S
O268 C274 1.231 . S
C269 O253 1.225 . S
C269 O275 1.298 . S
C270 O259 1.226 . S
C270 O260 1.307 . S
C271 O263 1.303 . S
C271 O264 1.247 . S
C272 O261 1.253 . S
C272 O262 1.283 . S
C273 O265 1.304 . S
C273 O267 1.272 . S
C274 O266 1.311 . S
C274 O268 1.231 . S
O275 Zn257 1.953 . S
O275 C269 1.298 . S
O276 Zn277 1.953 . S
O276 C292 1.225 . S
Zn277 O276 1.953 . S
Zn277 O278 1.949 . S
Zn277 O284 1.919 . S
Zn277 O289 1.924 . S
O278 Zn277 1.949 . S
O278 Zn279 1.923 . S
O278 Zn280 1.950 . S
O278 Zn281 1.945 . S
Zn279 O278 1.923 . S
Zn279 O282 1.933 . S
Zn279 O285 1.941 . S
Zn279 O286 1.965 . S
Zn280 O278 1.950 . S
Zn280 O287 1.938 . S
Zn280 O288 1.906 . S
Zn280 O298 1.953 . S
Zn281 O278 1.945 . S
Zn281 O283 1.932 . S
Zn281 O290 1.977 . S
Zn281 O291 1.910 . S
O282 Zn279 1.933 . S
O282 C293 1.226 . S
O283 Zn281 1.932 . S
O283 C293 1.307 . S
O284 Zn277 1.919 . S
O284 C295 1.253 . S
O285 Zn279 1.941 . S
O285 C295 1.283 . S
O286 Zn279 1.965 . S
O286 C294 1.303 . S
O287 Zn280 1.938 . S
O287 C294 1.247 . S
O288 Zn280 1.906 . S
O288 C296 1.304 . S
O289 Zn277 1.924 . S
O289 C297 1.311 . S
O290 Zn281 1.977 . S
O290 C296 1.272 . S
O291 Zn281 1.910 . S
O291 C297 1.231 . S
C292 O276 1.225 . S
C292 O298 1.298 . S
C293 O282 1.226 . S
C293 O283 1.307 . S
C294 O286 1.303 . S
C294 O287 1.247 . S
C295 O284 1.253 . S
C295 O285 1.283 . S
C296 O288 1.304 . S
C296 O290 1.272 . S
C297 O289 1.311 . S
C297 O291 1.231 . S
O298 Zn280 1.953 . S
O298 C292 1.298 . S
O299 Zn300 1.953 . S
O299 C315 1.225 . S
Zn300 O299 1.953 . S
Zn300 O301 1.949 . S
Zn300 O307 1.919 . S
Zn300 O312 1.924 . S
O301 Zn300 1.949 . S
O301 Zn302 1.923 . S
O301 Zn303 1.950 . S
O301 Zn304 1.945 . S
Zn302 O301 1.923 . S
Zn302 O305 1.933 . S
Zn302 O308 1.941 . S
Zn302 O309 1.965 . S
Zn303 O301 1.950 . S
Zn303 O310 1.960 . S
Zn303 O311 1.906 . S
Zn303 O321 1.953 . S
Zn304 O301 1.945 . S
Zn304 O306 1.932 . S
Zn304 O313 1.977 . S
Zn304 O314 1.910 . S
O305 Zn302 1.933 . S
O305 C316 1.226 . S
O306 Zn304 1.932 . S
O306 C316 1.307 . S
O307 Zn300 1.919 . S
O307 C318 1.253 . S
O308 Zn302 1.941 . S
O308 C318 1.283 . S
O309 Zn302 1.965 . S
O309 C317 1.303 . S
O310 Zn303 1.960 . S
O310 C317 1.253 . S
O311 Zn303 1.906 . S
O311 C319 1.304 . S
O312 Zn300 1.924 . S
O312 C320 1.311 . S
O313 Zn304 1.977 . S
O313 C319 1.272 . S
O314 Zn304 1.910 . S
O314 C320 1.231 . S
C315 O299 1.225 . S
C315 O321 1.298 . S
C316 O305 1.226 . S
C316 O306 1.307 . S
C317 O309 1.303 . S
C317 O310 1.253 . S
C318 O307 1.253 . S
C318 O308 1.283 . S
C319 O311 1.304 . S
C319 O313 1.272 . S
C320 O312 1.311 . S
C320 O314 1.231 . S
O321 Zn303 1.953 . S
O321 C315 1.298 . S
O322 Zn323 1.953 . S
O322 C338 1.225 . S
Zn323 O322 1.953 . S
Zn323 O324 1.949 . S
Zn323 O330 1.919 . S
Zn323 O335 1.924 . S
O324 Zn323 1.949 . S
O324 Zn325 1.923 . S
O324 Zn326 1.950 . S
O324 Zn327 1.945 1_554 S
Zn325 O324 1.923 . S
Zn325 O328 1.933 1_554 S
Zn325 O331 1.941 . S
Zn325 O332 1.965 . S
Zn326 O324 1.950 . S
Zn326 O333 1.938 . S
Zn326 O334 1.906 1_554 S
Zn326 O344 1.953 . S
Zn327 O324 1.945 1_556 S
Zn327 O329 1.932 . S
Zn327 O336 1.977 . S
Zn327 O337 1.910 1_556 S
O328 Zn325 1.933 1_556 S
O328 C339 1.226 . S
O329 Zn327 1.932 . S
O329 C339 1.307 . S
O330 Zn323 1.919 . S
O330 C341 1.253 . S
O331 Zn325 1.941 . S
O331 C341 1.283 . S
O332 Zn325 1.965 . S
O332 C340 1.303 . S
O333 Zn326 1.938 . S
O333 C340 1.247 . S
O334 Zn326 1.906 1_556 S
O334 C342 1.304 . S
O335 Zn323 1.924 . S
O335 C343 1.311 . S
O336 Zn327 1.977 . S
O336 C342 1.272 . S
O337 Zn327 1.910 1_554 S
O337 C343 1.231 . S
C338 O322 1.225 . S
C338 O344 1.298 . S
C339 O328 1.226 . S
C339 O329 1.307 . S
C340 O332 1.303 . S
C340 O333 1.247 . S
C341 O330 1.253 . S
C341 O331 1.283 . S
C342 O334 1.304 . S
C342 O336 1.272 . S
C343 O335 1.311 . S
C343 O337 1.231 . S
O344 Zn326 1.953 . S
O344 C338 1.298 . S
O345 Zn346 1.953 . S
O345 C361 1.225 . S
Zn346 O345 1.953 . S
Zn346 O347 1.949 . S
Zn346 O353 1.919 . S
Zn346 O358 1.924 . S
O347 Zn346 1.949 . S
O347 Zn348 1.923 . S
O347 Zn349 1.950 . S
O347 Zn350 1.945 . S
Zn348 O347 1.923 . S
Zn348 O351 1.933 . S
Zn348 O354 1.941 . S
Zn348 O355 1.965 . S
Zn349 O347 1.950 . S
Zn349 O356 1.938 . S
Zn349 O357 1.906 . S
Zn349 O367 1.953 . S
Zn350 O347 1.945 . S
Zn350 O352 1.932 . S
Zn350 O359 1.977 . S
Zn350 O360 1.910 . S
O351 Zn348 1.933 . S
O351 C362 1.226 . S
O352 Zn350 1.932 . S
O352 C362 1.307 . S
O353 Zn346 1.919 . S
O353 C364 1.253 . S
O354 Zn348 1.941 . S
O354 C364 1.283 . S
O355 Zn348 1.965 . S
O355 C363 1.303 . S
O356 Zn349 1.938 . S
O356 C363 1.247 . S
O357 Zn349 1.906 . S
O357 C365 1.304 . S
O358 Zn346 1.924 . S
O358 C366 1.311 . S
O359 Zn350 1.977 . S
O359 C365 1.272 . S
O360 Zn350 1.910 . S
O360 C366 1.231 . S
C361 O345 1.225 . S
C361 O367 1.298 . S
C362 O351 1.226 . S
C362 O352 1.307 . S
C363 O355 1.303 . S
C363 O356 1.247 . S
C364 O353 1.253 . S
C364 O354 1.283 . S
C365 O357 1.304 . S
C365 O359 1.272 . S
C366 O358 1.311 . S
C366 O360 1.231 . S
O367 Zn349 1.953 . S
O367 C361 1.298 . S
H368 C380 0.930 . S
H369 C382 0.930 . S
H370 C383 0.930 . S
H371 C387 0.959 . S
H372 C387 0.959 . S
H373 C387 0.961 . S
H374 C388 0.960 . S
H375 C388 0.961 . S
H376 C388 0.959 . S
H377 C391 0.912 1_554 S
H378 C392 0.931 . S
H379 C394 0.930 . S
C380 H368 0.930 . S
C380 C381 1.399 . S
C380 C385 1.399 . S
C381 C380 1.399 . S
C381 C382 1.376 1_556 S
C382 H369 0.930 . S
C382 C381 1.376 1_554 S
C382 C383 1.388 . S
C383 H370 0.930 . S
C383 C382 1.388 . S
C383 C384 1.390 1_554 S
C384 C383 1.390 1_556 S
C384 C385 1.394 . S
C384 C390 1.465 . S
C385 C380 1.399 . S
C385 C384 1.394 . S
C385 C386 1.516 . S
C386 C385 1.516 . S
C386 C387 1.502 . S
C386 C388 1.561 . S
C386 C389 1.526 . S
C387 H371 0.959 . S
C387 H372 0.959 . S
C387 H373 0.961 . S
C387 C386 1.502 . S
C388 H374 0.960 . S
C388 H375 0.961 . S
C388 H376 0.959 . S
C388 C386 1.561 . S
C389 C386 1.526 . S
C389 C390 1.396 . S
C389 C394 1.390 . S
C390 C384 1.465 . S
C390 C389 1.396 . S
C390 C391 1.399 . S
C391 H377 0.912 1_556 S
C391 C390 1.399 . S
C391 C392 1.385 . S
C392 H378 0.931 . S
C392 C391 1.385 . S
C392 C393 1.389 . S
C393 C392 1.389 . S
C393 C394 1.387 . S
C394 H379 0.930 . S
C394 C389 1.390 . S
C394 C393 1.387 . S
H395 C407 0.930 . S
H396 C409 0.930 . S
H397 C410 0.930 . S
H398 C414 0.959 . S
H399 C414 0.959 . S
H400 C414 0.961 . S
H401 C415 0.960 . S
H402 C415 0.961 . S
H403 C415 0.959 . S
H404 C418 0.929 . S
H405 C419 0.931 . S
H406 C421 0.930 . S
C407 H395 0.930 . S
C407 C408 1.399 . S
C407 C412 1.399 . S
C408 C407 1.399 . S
C408 C409 1.376 . S
C409 H396 0.930 . S
C409 C408 1.376 . S
C409 C410 1.388 . S
C410 H397 0.930 . S
C410 C409 1.388 . S
C410 C411 1.390 . S
C411 C410 1.390 . S
C411 C412 1.394 . S
C411 C417 1.465 . S
C412 C407 1.399 . S
C412 C411 1.394 . S
C412 C413 1.516 . S
C413 C412 1.516 . S
C413 C414 1.502 . S
C413 C415 1.561 . S
C413 C416 1.526 . S
C414 H398 0.959 . S
C414 H399 0.959 . S
C414 H400 0.961 . S
C414 C413 1.502 . S
C415 H401 0.960 . S
C415 H402 0.961 . S
C415 H403 0.959 . S
C415 C413 1.561 . S
C416 C413 1.526 . S
C416 C417 1.396 . S
C416 C421 1.390 . S
C417 C411 1.465 . S
C417 C416 1.396 . S
C417 C418 1.399 . S
C418 H404 0.929 . S
C418 C417 1.399 . S
C418 C419 1.385 . S
C419 H405 0.931 . S
C419 C418 1.385 . S
C419 C420 1.389 . S
C420 C419 1.389 . S
C420 C421 1.387 . S
C421 H406 0.930 . S
C421 C416 1.390 . S
C421 C420 1.387 . S
H422 C434 0.930 . S
H423 C436 0.930 . S
H424 C437 0.930 . S
H425 C441 0.959 . S
H426 C441 0.959 . S
H427 C441 0.961 . S
H428 C442 0.960 . S
H429 C442 0.961 . S
H430 C442 0.959 . S
H431 C445 0.929 . S
H432 C446 0.931 . S
H433 C448 0.930 . S
C434 H422 0.930 . S
C434 C435 1.399 . S
C434 C439 1.399 . S
C435 C434 1.399 . S
C435 C436 1.376 . S
C436 H423 0.930 . S
C436 C435 1.376 . S
C436 C437 1.388 . S
C437 H424 0.930 . S
C437 C436 1.388 . S
C437 C438 1.390 . S
C438 C437 1.390 . S
C438 C439 1.394 . S
C438 C444 1.465 . S
C439 C434 1.399 . S
C439 C438 1.394 . S
C439 C440 1.516 . S
C440 C439 1.516 . S
C440 C441 1.502 . S
C440 C442 1.561 . S
C440 C443 1.526 . S
C441 H425 0.959 . S
C441 H426 0.959 . S
C441 H427 0.961 . S
C441 C440 1.502 . S
C442 H428 0.960 . S
C442 H429 0.961 . S
C442 H430 0.959 . S
C442 C440 1.561 . S
C443 C440 1.526 . S
C443 C444 1.396 . S
C443 C448 1.390 . S
C444 C438 1.465 . S
C444 C443 1.396 . S
C444 C445 1.399 . S
C445 H431 0.929 . S
C445 C444 1.399 . S
C445 C446 1.385 . S
C446 H432 0.931 . S
C446 C445 1.385 . S
C446 C447 1.389 . S
C447 C446 1.389 . S
C447 C448 1.387 . S
C448 H433 0.930 . S
C448 C443 1.390 . S
C448 C447 1.387 . S
H449 C461 0.930 . S
H450 C463 0.930 . S
H451 C464 0.930 . S
H452 C468 0.959 . S
H453 C468 0.959 . S
H454 C468 0.961 . S
H455 C469 0.960 . S
H456 C469 0.961 . S
H457 C469 0.959 . S
H458 C472 0.929 . S
H459 C473 0.931 . S
H460 C475 0.930 . S
C461 H449 0.930 . S
C461 C462 1.399 . S
C461 C466 1.399 . S
C462 C461 1.399 . S
C462 C463 1.376 . S
C463 H450 0.930 . S
C463 C462 1.376 . S
C463 C464 1.388 . S
C464 H451 0.930 . S
C464 C463 1.388 . S
C464 C465 1.390 . S
C465 C464 1.390 . S
C465 C466 1.394 . S
C465 C471 1.465 . S
C466 C461 1.399 . S
C466 C465 1.394 . S
C466 C467 1.516 . S
C467 C466 1.516 . S
C467 C468 1.502 . S
C467 C469 1.561 . S
C467 C470 1.526 . S
C468 H452 0.959 . S
C468 H453 0.959 . S
C468 H454 0.961 . S
C468 C467 1.502 . S
C469 H455 0.960 . S
C469 H456 0.961 . S
C469 H457 0.959 . S
C469 C467 1.561 . S
C470 C467 1.526 . S
C470 C471 1.396 . S
C470 C475 1.390 . S
C471 C465 1.465 . S
C471 C470 1.396 . S
C471 C472 1.399 . S
C472 H458 0.929 . S
C472 C471 1.399 . S
C472 C473 1.385 . S
C473 H459 0.931 . S
C473 C472 1.385 . S
C473 C474 1.389 . S
C474 C473 1.389 . S
C474 C475 1.387 . S
C475 H460 0.930 . S
C475 C470 1.390 . S
C475 C474 1.387 . S
H476 C488 0.930 . S
H477 C490 0.930 . S
H478 C491 0.930 . S
H479 C495 0.959 . S
H480 C495 0.959 . S
H481 C495 0.961 . S
H482 C496 0.960 . S
H483 C496 0.961 . S
H484 C496 0.959 . S
H485 C499 0.929 . S
H486 C500 0.931 . S
H487 C502 0.930 . S
C488 H476 0.930 . S
C488 C489 1.399 . S
C488 C493 1.399 . S
C489 C488 1.399 . S
C489 C490 1.376 . S
C490 H477 0.930 . S
C490 C489 1.376 . S
C490 C491 1.388 . S
C491 H478 0.930 . S
C491 C490 1.388 . S
C491 C492 1.390 . S
C492 C491 1.390 . S
C492 C493 1.394 . S
C492 C498 1.465 . S
C493 C488 1.399 . S
C493 C492 1.394 . S
C493 C494 1.516 . S
C494 C493 1.516 . S
C494 C495 1.502 . S
C494 C496 1.561 . S
C494 C497 1.526 . S
C495 H479 0.959 . S
C495 H480 0.959 . S
C495 H481 0.961 . S
C495 C494 1.502 . S
C496 H482 0.960 . S
C496 H483 0.961 . S
C496 H484 0.959 . S
C496 C494 1.561 . S
C497 C494 1.526 . S
C497 C498 1.396 . S
C497 C502 1.390 . S
C498 C492 1.465 . S
C498 C497 1.396 . S
C498 C499 1.399 . S
C499 H485 0.929 . S
C499 C498 1.399 . S
C499 C500 1.385 . S
C500 H486 0.931 . S
C500 C499 1.385 . S
C500 C501 1.389 . S
C501 C500 1.389 . S
C501 C502 1.387 . S
C502 H487 0.930 . S
C502 C497 1.390 . S
C502 C501 1.387 . S
H503 C515 0.930 . S
H504 C517 0.930 . S
H505 C518 0.930 . S
H506 C522 0.959 . S
H507 C522 0.959 . S
H508 C522 0.961 . S
H509 C523 0.960 . S
H510 C523 0.961 . S
H511 C523 0.959 . S
H512 C526 0.929 . S
H513 C527 0.931 . S
H514 C529 0.930 . S
C515 H503 0.930 . S
C515 C516 1.399 . S
C515 C520 1.399 . S
C516 C515 1.399 . S
C516 C517 1.376 . S
C517 H504 0.930 . S
C517 C516 1.376 . S
C517 C518 1.388 . S
C518 H505 0.930 . S
C518 C517 1.388 . S
C518 C519 1.390 . S
C519 C518 1.390 . S
C519 C520 1.394 . S
C519 C525 1.465 . S
C520 C515 1.399 . S
C520 C519 1.394 . S
C520 C521 1.516 . S
C521 C520 1.516 . S
C521 C522 1.502 . S
C521 C523 1.561 . S
C521 C524 1.526 . S
C522 H506 0.959 . S
C522 H507 0.959 . S
C522 H508 0.961 . S
C522 C521 1.502 . S
C523 H509 0.960 . S
C523 H510 0.961 . S
C523 H511 0.959 . S
C523 C521 1.561 . S
C524 C521 1.526 . S
C524 C525 1.396 . S
C524 C529 1.390 . S
C525 C519 1.465 . S
C525 C524 1.396 . S
C525 C526 1.399 . S
C526 H512 0.929 . S
C526 C525 1.399 . S
C526 C527 1.385 . S
C527 H513 0.931 . S
C527 C526 1.385 . S
C527 C528 1.389 . S
C528 C527 1.389 . S
C528 C529 1.387 . S
C529 H514 0.930 . S
C529 C524 1.390 . S
C529 C528 1.387 . S
H530 C542 0.930 . S
H531 C544 0.930 . S
H532 C545 0.930 . S
H533 C549 0.959 . S
H534 C549 0.959 . S
H535 C549 0.961 . S
H536 C550 0.960 . S
H537 C550 0.961 . S
H538 C550 0.959 . S
H539 C553 0.929 . S
H540 C554 0.931 . S
H541 C556 0.930 . S
C542 H530 0.930 . S
C542 C543 1.399 . S
C542 C547 1.399 . S
C543 C542 1.399 . S
C543 C544 1.376 . S
C544 H531 0.930 . S
C544 C543 1.376 . S
C544 C545 1.388 . S
C545 H532 0.930 . S
C545 C544 1.388 . S
C545 C546 1.390 . S
C546 C545 1.390 . S
C546 C547 1.394 . S
C546 C552 1.465 . S
C547 C542 1.399 . S
C547 C546 1.394 . S
C547 C548 1.516 . S
C548 C547 1.516 . S
C548 C549 1.502 . S
C548 C550 1.561 . S
C548 C551 1.526 . S
C549 H533 0.959 . S
C549 H534 0.959 . S
C549 H535 0.961 . S
C549 C548 1.502 . S
C550 H536 0.960 . S
C550 H537 0.961 . S
C550 H538 0.959 . S
C550 C548 1.561 . S
C551 C548 1.526 . S
C551 C552 1.396 . S
C551 C556 1.390 . S
C552 C546 1.465 . S
C552 C551 1.396 . S
C552 C553 1.399 . S
C553 H539 0.929 . S
C553 C552 1.399 . S
C553 C554 1.385 . S
C554 H540 0.931 . S
C554 C553 1.385 . S
C554 C555 1.389 . S
C555 C554 1.389 . S
C555 C556 1.387 . S
C556 H541 0.930 . S
C556 C551 1.390 . S
C556 C555 1.387 . S
H557 C569 0.930 . S
H558 C571 0.930 . S
H559 C572 0.930 . S
H560 C576 0.959 . S
H561 C576 0.959 . S
H562 C576 0.961 . S
H563 C577 0.960 . S
H564 C577 0.961 . S
H565 C577 0.959 . S
H566 C580 0.929 . S
H567 C581 0.931 . S
H568 C583 0.930 . S
C569 H557 0.930 . S
C569 C570 1.399 . S
C569 C574 1.399 . S
C570 C569 1.399 . S
C570 C571 1.376 . S
C571 H558 0.930 . S
C571 C570 1.376 . S
C571 C572 1.388 . S
C572 H559 0.930 . S
C572 C571 1.388 . S
C572 C573 1.390 . S
C573 C572 1.390 . S
C573 C574 1.394 . S
C573 C579 1.465 . S
C574 C569 1.399 . S
C574 C573 1.394 . S
C574 C575 1.516 . S
C575 C574 1.516 . S
C575 C576 1.502 . S
C575 C577 1.561 . S
C575 C578 1.526 . S
C576 H560 0.959 . S
C576 H561 0.959 . S
C576 H562 0.961 . S
C576 C575 1.502 . S
C577 H563 0.960 . S
C577 H564 0.961 . S
C577 H565 0.959 . S
C577 C575 1.561 . S
C578 C575 1.526 . S
C578 C579 1.396 . S
C578 C583 1.390 . S
C579 C573 1.465 . S
C579 C578 1.396 . S
C579 C580 1.399 . S
C580 H566 0.929 . S
C580 C579 1.399 . S
C580 C581 1.385 . S
C581 H567 0.931 . S
C581 C580 1.385 . S
C581 C582 1.389 . S
C582 C581 1.389 . S
C582 C583 1.387 . S
C583 H568 0.930 . S
C583 C578 1.390 . S
C583 C582 1.387 . S
H584 C596 0.930 . S
H585 C598 0.930 . S
H586 C599 0.930 . S
H587 C603 0.959 . S
H588 C603 0.959 . S
H589 C603 0.961 . S
H590 C604 0.960 . S
H591 C604 0.961 . S
H592 C604 0.959 . S
H593 C607 0.929 . S
H594 C608 0.931 . S
H595 C610 0.930 . S
C596 H584 0.930 . S
C596 C597 1.399 . S
C596 C601 1.399 . S
C597 C596 1.399 . S
C597 C598 1.376 . S
C598 H585 0.930 . S
C598 C597 1.376 . S
C598 C599 1.388 . S
C599 H586 0.930 . S
C599 C598 1.388 . S
C599 C600 1.390 . S
C600 C599 1.390 . S
C600 C601 1.394 . S
C600 C606 1.465 . S
C601 C596 1.399 . S
C601 C600 1.394 . S
C601 C602 1.516 . S
C602 C601 1.516 . S
C602 C603 1.502 . S
C602 C604 1.561 . S
C602 C605 1.526 . S
C603 H587 0.959 . S
C603 H588 0.959 . S
C603 H589 0.961 . S
C603 C602 1.502 . S
C604 H590 0.960 . S
C604 H591 0.961 . S
C604 H592 0.959 . S
C604 C602 1.561 . S
C605 C602 1.526 . S
C605 C606 1.396 . S
C605 C610 1.390 . S
C606 C600 1.465 . S
C606 C605 1.396 . S
C606 C607 1.399 . S
C607 H593 0.929 . S
C607 C606 1.399 . S
C607 C608 1.385 . S
C608 H594 0.931 . S
C608 C607 1.385 . S
C608 C609 1.389 . S
C609 C608 1.389 . S
C609 C610 1.387 . S
C610 H595 0.930 . S
C610 C605 1.390 . S
C610 C609 1.387 . S
H611 C623 0.930 . S
H612 C625 0.930 . S
H613 C626 0.930 . S
H614 C630 0.959 . S
H615 C630 0.959 . S
H616 C630 0.961 . S
H617 C631 0.960 . S
H618 C631 0.961 . S
H619 C631 0.959 . S
H620 C634 0.929 . S
H621 C635 0.931 . S
H622 C637 0.930 . S
C623 H611 0.930 . S
C623 C624 1.399 . S
C623 C628 1.399 . S
C624 C623 1.399 . S
C624 C625 1.376 . S
C625 H612 0.930 . S
C625 C624 1.376 . S
C625 C626 1.388 . S
C626 H613 0.930 . S
C626 C625 1.388 . S
C626 C627 1.390 . S
C627 C626 1.390 . S
C627 C628 1.394 . S
C627 C633 1.465 . S
C628 C623 1.399 . S
C628 C627 1.394 . S
C628 C629 1.516 . S
C629 C628 1.516 . S
C629 C630 1.502 . S
C629 C631 1.561 . S
C629 C632 1.526 . S
C630 H614 0.959 . S
C630 H615 0.959 . S
C630 H616 0.961 . S
C630 C629 1.502 . S
C631 H617 0.960 . S
C631 H618 0.961 . S
C631 H619 0.959 . S
C631 C629 1.561 . S
C632 C629 1.526 . S
C632 C633 1.396 . S
C632 C637 1.390 . S
C633 C627 1.465 . S
C633 C632 1.396 . S
C633 C634 1.399 . S
C634 H620 0.929 . S
C634 C633 1.399 . S
C634 C635 1.385 . S
C635 H621 0.931 . S
C635 C634 1.385 . S
C635 C636 1.389 . S
C636 C635 1.389 . S
C636 C637 1.387 . S
C637 H622 0.930 . S
C637 C632 1.390 . S
C637 C636 1.387 . S
H638 C650 0.930 . S
H639 C652 0.930 . S
H640 C653 0.930 . S
H641 C657 0.959 . S
H642 C657 0.959 . S
H643 C657 0.961 . S
H644 C658 0.960 . S
H645 C658 0.961 . S
H646 C658 0.959 . S
H647 C661 0.929 . S
H648 C662 0.931 . S
H649 C664 0.930 . S
C650 H638 0.930 . S
C650 C651 1.399 . S
C650 C655 1.399 . S
C651 C650 1.399 . S
C651 C652 1.376 . S
C652 H639 0.930 . S
C652 C651 1.376 . S
C652 C653 1.388 . S
C653 H640 0.930 . S
C653 C652 1.388 . S
C653 C654 1.390 . S
C654 C653 1.390 . S
C654 C655 1.394 . S
C654 C660 1.465 . S
C655 C650 1.399 . S
C655 C654 1.394 . S
C655 C656 1.516 . S
C656 C655 1.516 . S
C656 C657 1.502 . S
C656 C658 1.561 1_556 S
C656 C659 1.526 . S
C657 H641 0.959 . S
C657 H642 0.959 . S
C657 H643 0.961 . S
C657 C656 1.502 . S
C658 H644 0.960 . S
C658 H645 0.961 . S
C658 H646 0.959 . S
C658 C656 1.561 1_554 S
C659 C656 1.526 . S
C659 C660 1.396 . S
C659 C664 1.390 . S
C660 C654 1.465 . S
C660 C659 1.396 . S
C660 C661 1.399 . S
C661 H647 0.929 . S
C661 C660 1.399 . S
C661 C662 1.385 . S
C662 H648 0.931 . S
C662 C661 1.385 . S
C662 C663 1.389 . S
C663 C662 1.389 . S
C663 C664 1.387 . S
C664 H649 0.930 . S
C664 C659 1.390 . S
C664 C663 1.387 . S
H665 C677 0.930 . S
H666 C679 0.930 . S
H667 C680 0.930 . S
H668 C684 0.959 . S
H669 C684 0.959 . S
H670 C684 0.961 . S
H671 C685 0.960 . S
H672 C685 0.961 . S
H673 C685 0.959 . S
H674 C688 0.929 . S
H675 C689 0.931 . S
H676 C691 0.930 . S
C677 H665 0.930 . S
C677 C678 1.399 . S
C677 C682 1.399 . S
C678 C677 1.399 . S
C678 C679 1.376 . S
C679 H666 0.930 . S
C679 C678 1.376 . S
C679 C680 1.388 . S
C680 H667 0.930 . S
C680 C679 1.388 . S
C680 C681 1.390 . S
C681 C680 1.390 . S
C681 C682 1.394 . S
C681 C687 1.465 . S
C682 C677 1.399 . S
C682 C681 1.394 . S
C682 C683 1.516 . S
C683 C682 1.516 . S
C683 C684 1.502 . S
C683 C685 1.561 . S
C683 C686 1.526 . S
C684 H668 0.959 . S
C684 H669 0.959 . S
C684 H670 0.961 . S
C684 C683 1.502 . S
C685 H671 0.960 . S
C685 H672 0.961 . S
C685 H673 0.959 . S
C685 C683 1.561 . S
C686 C683 1.526 . S
C686 C687 1.396 . S
C686 C691 1.390 . S
C687 C681 1.465 . S
C687 C686 1.396 . S
C687 C688 1.399 . S
C688 H674 0.929 . S
C688 C687 1.399 . S
C688 C689 1.385 . S
C689 H675 0.931 . S
C689 C688 1.385 . S
C689 C690 1.389 . S
C690 C689 1.389 . S
C690 C691 1.387 . S
C691 H676 0.930 . S
C691 C686 1.390 . S
C691 C690 1.387 . S
H692 C704 0.930 . S
H693 C706 0.930 . S
H694 C707 0.930 . S
H695 C711 0.959 . S
H696 C711 0.959 . S
H697 C711 0.961 . S
H698 C712 0.960 . S
H699 C712 0.961 . S
H700 C712 0.959 . S
H701 C715 0.929 . S
H702 C716 0.931 . S
H703 C718 0.930 . S
C704 H692 0.930 . S
C704 C705 1.399 . S
C704 C709 1.399 . S
C705 C704 1.399 . S
C705 C706 1.376 . S
C706 H693 0.930 . S
C706 C705 1.376 . S
C706 C707 1.388 . S
C707 H694 0.930 . S
C707 C706 1.388 . S
C707 C708 1.390 . S
C708 C707 1.390 . S
C708 C709 1.394 . S
C708 C714 1.465 . S
C709 C704 1.399 . S
C709 C708 1.394 . S
C709 C710 1.516 . S
C710 C709 1.516 . S
C710 C711 1.502 . S
C710 C712 1.561 . S
C710 C713 1.526 . S
C711 H695 0.959 . S
C711 H696 0.959 . S
C711 H697 0.961 . S
C711 C710 1.502 . S
C712 H698 0.960 . S
C712 H699 0.961 . S
C712 H700 0.959 . S
C712 C710 1.561 . S
C713 C710 1.526 . S
C713 C714 1.396 . S
C713 C718 1.390 . S
C714 C708 1.465 . S
C714 C713 1.396 . S
C714 C715 1.399 . S
C715 H701 0.929 . S
C715 C714 1.399 . S
C715 C716 1.385 . S
C716 H702 0.931 . S
C716 C715 1.385 . S
C716 C717 1.389 . S
C717 C716 1.389 . S
C717 C718 1.387 . S
C718 H703 0.930 . S
C718 C713 1.390 . S
C718 C717 1.387 . S
H719 C731 0.930 . S
H720 C733 0.930 . S
H721 C734 0.930 . S
H722 C738 0.959 . S
H723 C738 0.959 . S
H724 C738 0.961 . S
H725 C739 0.960 . S
H726 C739 0.961 . S
H727 C739 0.959 . S
H728 C742 0.929 . S
H729 C743 0.931 1_565 S
H730 C745 0.930 . S
C731 H719 0.930 . S
C731 C732 1.399 . S
C731 C736 1.399 . S
C732 C731 1.399 . S
C732 C733 1.376 . S
C733 H720 0.930 . S
C733 C732 1.376 . S
C733 C734 1.388 . S
C734 H721 0.930 . S
C734 C733 1.388 . S
C734 C735 1.390 . S
C735 C734 1.390 . S
C735 C736 1.394 . S
C735 C741 1.465 . S
C736 C731 1.399 . S
C736 C735 1.394 . S
C736 C737 1.516 . S
C737 C736 1.516 . S
C737 C738 1.502 . S
C737 C739 1.561 . S
C737 C740 1.526 . S
C738 H722 0.959 . S
C738 H723 0.959 . S
C738 H724 0.961 . S
C738 C737 1.502 . S
C739 H725 0.960 . S
C739 H726 0.961 . S
C739 H727 0.959 . S
C739 C737 1.561 . S
C740 C737 1.526 . S
C740 C741 1.396 . S
C740 C745 1.390 . S
C741 C735 1.465 . S
C741 C740 1.396 . S
C741 C742 1.399 . S
C742 H728 0.929 . S
C742 C741 1.399 . S
C742 C743 1.385 . S
C743 H729 0.931 1_545 S
C743 C742 1.385 . S
C743 C744 1.389 . S
C744 C743 1.389 . S
C744 C745 1.387 . S
C745 H730 0.930 . S
C745 C740 1.390 . S
C745 C744 1.387 . S
H746 C758 0.930 . S
H747 C760 0.930 . S
H748 C761 0.930 . S
H749 C765 0.959 . S
H750 C765 0.959 . S
H751 C765 0.961 . S
H752 C766 0.960 . S
H753 C766 0.961 . S
H754 C766 0.959 . S
H755 C769 0.929 . S
H756 C770 0.931 . S
H757 C772 0.930 . S
C758 H746 0.930 . S
C758 C759 1.399 . S
C758 C763 1.399 . S
C759 C758 1.399 . S
C759 C760 1.376 . S
C760 H747 0.930 . S
C760 C759 1.376 . S
C760 C761 1.388 . S
C761 H748 0.930 . S
C761 C760 1.388 . S
C761 C762 1.390 . S
C762 C761 1.390 . S
C762 C763 1.394 . S
C762 C768 1.465 . S
C763 C758 1.399 . S
C763 C762 1.394 . S
C763 C764 1.516 . S
C764 C763 1.516 . S
C764 C765 1.502 . S
C764 C766 1.561 . S
C764 C767 1.526 . S
C765 H749 0.959 . S
C765 H750 0.959 . S
C765 H751 0.961 . S
C765 C764 1.502 . S
C766 H752 0.960 . S
C766 H753 0.961 . S
C766 H754 0.959 . S
C766 C764 1.561 . S
C767 C764 1.526 . S
C767 C768 1.396 . S
C767 C772 1.390 . S
C768 C762 1.465 . S
C768 C767 1.396 . S
C768 C769 1.399 . S
C769 H755 0.929 . S
C769 C768 1.399 . S
C769 C770 1.385 . S
C770 H756 0.931 . S
C770 C769 1.385 . S
C770 C771 1.389 . S
C771 C770 1.389 . S
C771 C772 1.387 . S
C772 H757 0.930 . S
C772 C767 1.390 . S
C772 C771 1.387 . S
H773 C785 0.930 . S
H774 C787 0.930 . S
H775 C788 0.930 . S
H776 C792 0.959 . S
H777 C792 0.959 . S
H778 C792 0.961 1_554 S
H779 C793 0.960 . S
H780 C793 0.961 . S
H781 C793 0.959 . S
H782 C796 0.929 . S
H783 C797 0.931 . S
H784 C799 0.930 . S
C785 H773 0.930 . S
C785 C786 1.399 . S
C785 C790 1.399 . S
C786 C785 1.399 . S
C786 C787 1.376 . S
C787 H774 0.930 . S
C787 C786 1.376 . S
C787 C788 1.388 . S
C788 H775 0.930 . S
C788 C787 1.388 . S
C788 C789 1.390 . S
C789 C788 1.390 . S
C789 C790 1.394 . S
C789 C795 1.465 . S
C790 C785 1.399 . S
C790 C789 1.394 . S
C790 C791 1.516 . S
C791 C790 1.516 . S
C791 C792 1.502 . S
C791 C793 1.561 . S
C791 C794 1.526 . S
C792 H776 0.959 . S
C792 H777 0.959 . S
C792 H778 0.961 1_556 S
C792 C791 1.502 . S
C793 H779 0.960 . S
C793 H780 0.961 . S
C793 H781 0.959 . S
C793 C791 1.561 . S
C794 C791 1.526 . S
C794 C795 1.396 . S
C794 C799 1.390 . S
C795 C789 1.465 . S
C795 C794 1.396 . S
C795 C796 1.399 . S
C796 H782 0.929 . S
C796 C795 1.399 . S
C796 C797 1.385 . S
C797 H783 0.931 . S
C797 C796 1.385 . S
C797 C798 1.389 . S
C798 C797 1.389 . S
C798 C799 1.387 . S
C799 H784 0.930 . S
C799 C794 1.390 . S
C799 C798 1.387 . S
H800 C812 0.930 . S
H801 C814 0.930 . S
H802 C815 0.930 . S
H803 C819 0.959 . S
H804 C819 0.959 . S
H805 C819 0.961 . S
H806 C820 0.960 . S
H807 C820 0.961 . S
H808 C820 0.959 . S
H809 C823 0.929 . S
H810 C824 0.931 . S
H811 C826 0.930 . S
C812 H800 0.930 . S
C812 C813 1.399 . S
C812 C817 1.399 . S
C813 C812 1.399 . S
C813 C814 1.376 . S
C814 H801 0.930 . S
C814 C813 1.376 . S
C814 C815 1.388 . S
C815 H802 0.930 . S
C815 C814 1.388 . S
C815 C816 1.390 . S
C816 C815 1.390 . S
C816 C817 1.394 . S
C816 C822 1.465 . S
C817 C812 1.399 . S
C817 C816 1.394 . S
C817 C818 1.516 . S
C818 C817 1.516 . S
C818 C819 1.502 . S
C818 C820 1.561 . S
C818 C821 1.526 . S
C819 H803 0.959 . S
C819 H804 0.959 . S
C819 H805 0.961 . S
C819 C818 1.502 . S
C820 H806 0.960 . S
C820 H807 0.961 . S
C820 H808 0.959 . S
C820 C818 1.561 . S
C821 C818 1.526 . S
C821 C822 1.396 . S
C821 C826 1.390 . S
C822 C816 1.465 . S
C822 C821 1.396 . S
C822 C823 1.399 . S
C823 H809 0.929 . S
C823 C822 1.399 . S
C823 C824 1.385 . S
C824 H810 0.931 . S
C824 C823 1.385 . S
C824 C825 1.389 . S
C825 C824 1.389 . S
C825 C826 1.387 . S
C826 H811 0.930 . S
C826 C821 1.390 . S
C826 C825 1.387 . S
H827 C839 0.930 . S
H828 C841 0.930 . S
H829 C842 0.930 . S
H830 C846 0.959 . S
H831 C846 0.959 . S
H832 C846 0.961 . S
H833 C847 0.960 . S
H834 C847 0.961 . S
H835 C847 0.959 . S
H836 C850 0.929 . S
H837 C851 0.931 1_556 S
H838 C853 0.930 . S
C839 H827 0.930 . S
C839 C840 1.399 . S
C839 C844 1.399 . S
C840 C839 1.399 . S
C840 C841 1.376 . S
C841 H828 0.930 . S
C841 C840 1.376 . S
C841 C842 1.388 . S
C842 H829 0.930 . S
C842 C841 1.388 . S
C842 C843 1.390 . S
C843 C842 1.390 . S
C843 C844 1.394 . S
C843 C849 1.465 . S
C844 C839 1.399 . S
C844 C843 1.394 . S
C844 C845 1.516 . S
C845 C844 1.516 . S
C845 C846 1.502 . S
C845 C847 1.561 . S
C845 C848 1.526 . S
C846 H830 0.959 . S
C846 H831 0.959 . S
C846 H832 0.961 . S
C846 C845 1.502 . S
C847 H833 0.960 . S
C847 H834 0.961 . S
C847 H835 0.959 . S
C847 C845 1.561 . S
C848 C845 1.526 . S
C848 C849 1.396 . S
C848 C853 1.390 . S
C849 C843 1.465 . S
C849 C848 1.396 . S
C849 C850 1.399 . S
C850 H836 0.929 . S
C850 C849 1.399 . S
C850 C851 1.385 . S
C851 H837 0.931 1_554 S
C851 C850 1.385 . S
C851 C852 1.389 . S
C852 C851 1.389 . S
C852 C853 1.387 . S
C853 H838 0.930 . S
C853 C848 1.390 . S
C853 C852 1.387 . S
H854 C866 0.930 . S
H855 C868 0.930 . S
H856 C869 0.930 . S
H857 C873 0.959 . S
H858 C873 0.959 . S
H859 C873 0.961 . S
H860 C874 0.960 . S
H861 C874 0.961 . S
H862 C874 0.959 . S
H863 C877 0.929 . S
H864 C878 0.931 . S
H865 C880 0.930 . S
C866 H854 0.930 . S
C866 C867 1.399 . S
C866 C871 1.399 . S
C867 C866 1.399 . S
C867 C868 1.376 . S
C868 H855 0.930 . S
C868 C867 1.376 . S
C868 C869 1.388 . S
C869 H856 0.930 . S
C869 C868 1.388 . S
C869 C870 1.390 . S
C870 C869 1.390 . S
C870 C871 1.394 . S
C870 C876 1.465 . S
C871 C866 1.399 . S
C871 C870 1.394 . S
C871 C872 1.516 . S
C872 C871 1.516 . S
C872 C873 1.502 . S
C872 C874 1.561 . S
C872 C875 1.526 . S
C873 H857 0.959 . S
C873 H858 0.959 . S
C873 H859 0.961 . S
C873 C872 1.502 . S
C874 H860 0.960 . S
C874 H861 0.961 . S
C874 H862 0.959 . S
C874 C872 1.561 . S
C875 C872 1.526 . S
C875 C876 1.396 . S
C875 C880 1.390 . S
C876 C870 1.465 . S
C876 C875 1.396 . S
C876 C877 1.399 . S
C877 H863 0.929 . S
C877 C876 1.399 . S
C877 C878 1.385 . S
C878 H864 0.931 . S
C878 C877 1.385 . S
C878 C879 1.389 . S
C879 C878 1.389 . S
C879 C880 1.387 . S
C880 H865 0.930 . S
C880 C875 1.390 . S
C880 C879 1.387 . S
H881 C893 0.930 . S
H882 C895 0.930 . S
H883 C896 0.930 . S
H884 C900 0.959 . S
H885 C900 0.959 . S
H886 C900 0.961 . S
H887 C901 0.960 . S
H888 C901 0.961 . S
H889 C901 0.959 . S
H890 C904 0.929 . S
H891 C905 0.931 . S
H892 C907 0.930 . S
C893 H881 0.930 . S
C893 C894 1.399 . S
C893 C898 1.399 . S
C894 C893 1.399 . S
C894 C895 1.376 . S
C895 H882 0.930 . S
C895 C894 1.376 . S
C895 C896 1.388 . S
C896 H883 0.930 . S
C896 C895 1.388 . S
C896 C897 1.390 . S
C897 C896 1.390 . S
C897 C898 1.394 . S
C897 C903 1.465 . S
C898 C893 1.399 . S
C898 C897 1.394 . S
C898 C899 1.516 . S
C899 C898 1.516 . S
C899 C900 1.502 . S
C899 C901 1.561 . S
C899 C902 1.526 . S
C900 H884 0.959 . S
C900 H885 0.959 . S
C900 H886 0.961 . S
C900 C899 1.502 . S
C901 H887 0.960 . S
C901 H888 0.961 . S
C901 H889 0.959 . S
C901 C899 1.561 . S
C902 C899 1.526 . S
C902 C903 1.396 . S
C902 C907 1.390 . S
C903 C897 1.465 . S
C903 C902 1.396 . S
C903 C904 1.399 . S
C904 H890 0.929 . S
C904 C903 1.399 . S
C904 C905 1.385 . S
C905 H891 0.931 . S
C905 C904 1.385 . S
C905 C906 1.389 . S
C906 C905 1.389 . S
C906 C907 1.387 . S
C907 H892 0.930 . S
C907 C902 1.390 . S
C907 C906 1.387 . S
H908 C920 0.930 . S
H909 C922 0.930 . S
H910 C923 0.930 . S
H911 C927 0.959 . S
H912 C927 0.959 . S
H913 C927 0.961 . S
H914 C928 0.960 . S
H915 C928 0.961 . S
H916 C928 0.959 . S
H917 C931 0.929 . S
H918 C932 0.931 . S
H919 C934 0.930 . S
C920 H908 0.930 . S
C920 C921 1.399 . S
C920 C925 1.399 . S
C921 C920 1.399 . S
C921 C922 1.376 . S
C922 H909 0.930 . S
C922 C921 1.376 . S
C922 C923 1.388 . S
C923 H910 0.930 . S
C923 C922 1.388 . S
C923 C924 1.390 . S
C924 C923 1.390 . S
C924 C925 1.394 . S
C924 C930 1.465 . S
C925 C920 1.399 . S
C925 C924 1.394 . S
C925 C926 1.516 . S
C926 C925 1.516 . S
C926 C927 1.502 . S
C926 C928 1.561 . S
C926 C929 1.526 . S
C927 H911 0.959 . S
C927 H912 0.959 . S
C927 H913 0.961 . S
C927 C926 1.502 . S
C928 H914 0.960 . S
C928 H915 0.961 . S
C928 H916 0.959 . S
C928 C926 1.561 . S
C929 C926 1.526 . S
C929 C930 1.396 . S
C929 C934 1.390 . S
C930 C924 1.465 . S
C930 C929 1.396 . S
C930 C931 1.399 . S
C931 H917 0.929 . S
C931 C930 1.399 . S
C931 C932 1.385 . S
C932 H918 0.931 . S
C932 C931 1.385 . S
C932 C933 1.389 . S
C933 C932 1.389 . S
C933 C934 1.387 . S
C934 H919 0.930 . S
C934 C929 1.390 . S
C934 C933 1.387 . S
H935 C947 0.930 . S
H936 C949 0.930 . S
H937 C950 0.930 . S
H938 C954 0.959 . S
H939 C954 0.959 . S
H940 C954 0.961 . S
H941 C955 0.960 . S
H942 C955 0.961 . S
H943 C955 0.959 . S
H944 C958 0.929 . S
H945 C959 0.931 . S
H946 C961 0.930 . S
C947 H935 0.930 . S
C947 C948 1.399 . S
C947 C952 1.399 . S
C948 C947 1.399 . S
C948 C949 1.376 . S
C949 H936 0.930 . S
C949 C948 1.376 . S
C949 C950 1.388 . S
C950 H937 0.930 . S
C950 C949 1.388 . S
C950 C951 1.390 . S
C951 C950 1.390 . S
C951 C952 1.394 . S
C951 C957 1.465 . S
C952 C947 1.399 . S
C952 C951 1.394 . S
C952 C953 1.516 . S
C953 C952 1.516 . S
C953 C954 1.502 . S
C953 C955 1.561 . S
C953 C956 1.526 . S
C954 H938 0.959 . S
C954 H939 0.959 . S
C954 H940 0.961 . S
C954 C953 1.502 . S
C955 H941 0.960 . S
C955 H942 0.961 . S
C955 H943 0.959 . S
C955 C953 1.561 . S
C956 C953 1.526 . S
C956 C957 1.396 . S
C956 C961 1.390 . S
C957 C951 1.465 . S
C957 C956 1.396 . S
C957 C958 1.399 . S
C958 H944 0.929 . S
C958 C957 1.399 . S
C958 C959 1.385 . S
C959 H945 0.931 . S
C959 C958 1.385 . S
C959 C960 1.389 . S
C960 C959 1.389 . S
C960 C961 1.387 . S
C961 H946 0.930 . S
C961 C956 1.390 . S
C961 C960 1.387 . S
H962 C974 0.930 . S
H963 C976 0.930 . S
H964 C977 0.930 . S
H965 C981 0.959 . S
H966 C981 0.959 . S
H967 C981 0.961 . S
H968 C982 0.960 . S
H969 C982 0.961 . S
H970 C982 0.959 . S
H971 C985 0.929 . S
H972 C986 0.931 . S
H973 C988 0.930 . S
C974 H962 0.930 . S
C974 C975 1.399 . S
C974 C979 1.399 . S
C975 C974 1.399 . S
C975 C976 1.376 . S
C976 H963 0.930 . S
C976 C975 1.376 . S
C976 C977 1.388 . S
C977 H964 0.930 . S
C977 C976 1.388 . S
C977 C978 1.390 . S
C978 C977 1.390 . S
C978 C979 1.394 . S
C978 C984 1.465 . S
C979 C974 1.399 . S
C979 C978 1.394 . S
C979 C980 1.516 . S
C980 C979 1.516 . S
C980 C981 1.502 . S
C980 C982 1.561 . S
C980 C983 1.526 . S
C981 H965 0.959 . S
C981 H966 0.959 . S
C981 H967 0.961 . S
C981 C980 1.502 . S
C982 H968 0.960 . S
C982 H969 0.961 . S
C982 H970 0.959 . S
C982 C980 1.561 . S
C983 C980 1.526 . S
C983 C984 1.396 . S
C983 C988 1.390 . S
C984 C978 1.465 . S
C984 C983 1.396 . S
C984 C985 1.399 . S
C985 H971 0.929 . S
C985 C984 1.399 . S
C985 C986 1.385 . S
C986 H972 0.931 . S
C986 C985 1.385 . S
C986 C987 1.389 . S
C987 C986 1.389 . S
C987 C988 1.387 . S
C988 H973 0.930 . S
C988 C983 1.390 . S
C988 C987 1.387 . S
H989 C1001 0.930 . S
H990 C1003 0.930 . S
H991 C1004 0.930 . S
H992 C1008 0.959 . S
H993 C1008 0.959 . S
H994 C1008 0.961 . S
H995 C1009 0.960 . S
H996 C1009 0.961 . S
H997 C1009 0.959 . S
H998 C1012 0.929 . S
H999 C1013 0.931 . S
H1000 C1015 0.930 . S
C1001 H989 0.930 . S
C1001 C1002 1.399 . S
C1001 C1006 1.399 . S
C1002 C1001 1.399 . S
C1002 C1003 1.376 . S
C1003 H990 0.930 . S
C1003 C1002 1.376 . S
C1003 C1004 1.388 . S
C1004 H991 0.930 . S
C1004 C1003 1.388 . S
C1004 C1005 1.390 . S
C1005 C1004 1.390 . S
C1005 C1006 1.394 . S
C1005 C1011 1.465 . S
C1006 C1001 1.399 . S
C1006 C1005 1.394 . S
C1006 C1007 1.516 . S
C1007 C1006 1.516 . S
C1007 C1008 1.502 . S
C1007 C1009 1.561 . S
C1007 C1010 1.526 . S
C1008 H992 0.959 . S
C1008 H993 0.959 . S
C1008 H994 0.961 . S
C1008 C1007 1.502 . S
C1009 H995 0.960 . S
C1009 H996 0.961 . S
C1009 H997 0.959 . S
C1009 C1007 1.561 . S
C1010 C1007 1.526 . S
C1010 C1011 1.396 . S
C1010 C1015 1.390 . S
C1011 C1005 1.465 . S
C1011 C1010 1.396 . S
C1011 C1012 1.399 . S
C1012 H998 0.929 . S
C1012 C1011 1.399 . S
C1012 C1013 1.385 . S
C1013 H999 0.931 . S
C1013 C1012 1.385 . S
C1013 C1014 1.389 . S
C1014 C1013 1.389 . S
C1014 C1015 1.387 . S
C1015 H1000 0.930 . S
C1015 C1010 1.390 . S
C1015 C1014 1.387 . S
H1016 C1028 0.930 . S
H1017 C1030 0.930 . S
H1018 C1031 0.930 . S
H1019 C1035 0.959 . S
H1020 C1035 0.959 . S
H1021 C1035 0.961 . S
H1022 C1036 0.960 . S
H1023 C1036 0.961 . S
H1024 C1036 0.959 . S
H1025 C1039 0.929 . S
H1026 C1040 0.931 . S
H1027 C1042 0.930 . S
C1028 H1016 0.930 . S
C1028 C1029 1.399 . S
C1028 C1033 1.399 . S
C1029 C1028 1.399 . S
C1029 C1030 1.376 . S
C1030 H1017 0.930 . S
C1030 C1029 1.376 . S
C1030 C1031 1.388 . S
C1031 H1018 0.930 . S
C1031 C1030 1.388 . S
C1031 C1032 1.390 . S
C1032 C1031 1.390 . S
C1032 C1033 1.394 . S
C1032 C1038 1.465 . S
C1033 C1028 1.399 . S
C1033 C1032 1.394 . S
C1033 C1034 1.516 . S
C1034 C1033 1.516 . S
C1034 C1035 1.502 . S
C1034 C1036 1.561 . S
C1034 C1037 1.526 . S
C1035 H1019 0.959 . S
C1035 H1020 0.959 . S
C1035 H1021 0.961 . S
C1035 C1034 1.502 . S
C1036 H1022 0.960 . S
C1036 H1023 0.961 . S
C1036 H1024 0.959 . S
C1036 C1034 1.561 . S
C1037 C1034 1.526 . S
C1037 C1038 1.396 . S
C1037 C1042 1.390 . S
C1038 C1032 1.465 . S
C1038 C1037 1.396 . S
C1038 C1039 1.399 . S
C1039 H1025 0.929 . S
C1039 C1038 1.399 . S
C1039 C1040 1.385 . S
C1040 H1026 0.931 . S
C1040 C1039 1.385 . S
C1040 C1041 1.389 . S
C1041 C1040 1.389 . S
C1041 C1042 1.387 . S
C1042 H1027 0.930 . S
C1042 C1037 1.390 . S
C1042 C1041 1.387 . S
H1043 C1055 0.930 . S
H1044 C1057 0.930 . S
H1045 C1058 0.930 . S
H1046 C1062 0.959 . S
H1047 C1062 0.959 . S
H1048 C1062 0.961 . S
H1049 C1063 0.960 . S
H1050 C1063 0.961 . S
H1051 C1063 0.959 . S
H1052 C1066 0.929 . S
H1053 C1067 0.931 . S
H1054 C1069 0.930 . S
C1055 H1043 0.930 . S
C1055 C1056 1.399 . S
C1055 C1060 1.399 . S
C1056 C1055 1.399 . S
C1056 C1057 1.376 . S
C1057 H1044 0.930 . S
C1057 C1056 1.376 . S
C1057 C1058 1.388 . S
C1058 H1045 0.930 . S
C1058 C1057 1.388 . S
C1058 C1059 1.390 . S
C1059 C1058 1.390 . S
C1059 C1060 1.394 . S
C1059 C1065 1.465 . S
C1060 C1055 1.399 . S
C1060 C1059 1.394 . S
C1060 C1061 1.516 . S
C1061 C1060 1.516 . S
C1061 C1062 1.502 . S
C1061 C1063 1.561 . S
C1061 C1064 1.526 . S
C1062 H1046 0.959 . S
C1062 H1047 0.959 . S
C1062 H1048 0.961 . S
C1062 C1061 1.502 . S
C1063 H1049 0.960 . S
C1063 H1050 0.961 . S
C1063 H1051 0.959 . S
C1063 C1061 1.561 . S
C1064 C1061 1.526 . S
C1064 C1065 1.396 . S
C1064 C1069 1.390 . S
C1065 C1059 1.465 . S
C1065 C1064 1.396 . S
C1065 C1066 1.399 . S
C1066 H1052 0.929 . S
C1066 C1065 1.399 . S
C1066 C1067 1.385 . S
C1067 H1053 0.931 . S
C1067 C1066 1.385 . S
C1067 C1068 1.389 . S
C1068 C1067 1.389 . S
C1068 C1069 1.387 . S
C1069 H1054 0.930 . S
C1069 C1064 1.390 . S
C1069 C1068 1.387 . S
H1070 C1082 0.930 . S
H1071 C1084 0.930 . S
H1072 C1085 0.930 . S
H1073 C1089 0.959 . S
H1074 C1089 0.959 . S
H1075 C1089 0.961 . S
H1076 C1090 0.960 . S
H1077 C1090 0.961 . S
H1078 C1090 0.959 . S
H1079 C1093 0.929 . S
H1080 C1094 0.931 . S
H1081 C1096 0.930 . S
C1082 H1070 0.930 . S
C1082 C1083 1.399 . S
C1082 C1087 1.399 . S
C1083 C1082 1.399 . S
C1083 C1084 1.376 . S
C1084 H1071 0.930 . S
C1084 C1083 1.376 . S
C1084 C1085 1.388 . S
C1085 H1072 0.930 . S
C1085 C1084 1.388 . S
C1085 C1086 1.390 . S
C1086 C1085 1.390 . S
C1086 C1087 1.394 . S
C1086 C1092 1.465 . S
C1087 C1082 1.399 . S
C1087 C1086 1.394 . S
C1087 C1088 1.516 . S
C1088 C1087 1.516 . S
C1088 C1089 1.502 . S
C1088 C1090 1.561 . S
C1088 C1091 1.526 . S
C1089 H1073 0.959 . S
C1089 H1074 0.959 . S
C1089 H1075 0.961 . S
C1089 C1088 1.502 . S
C1090 H1076 0.960 . S
C1090 H1077 0.961 . S
C1090 H1078 0.959 . S
C1090 C1088 1.561 . S
C1091 C1088 1.526 . S
C1091 C1092 1.396 . S
C1091 C1096 1.390 . S
C1092 C1086 1.465 . S
C1092 C1091 1.396 . S
C1092 C1093 1.399 . S
C1093 H1079 0.929 . S
C1093 C1092 1.399 . S
C1093 C1094 1.385 . S
C1094 H1080 0.931 . S
C1094 C1093 1.385 . S
C1094 C1095 1.389 . S
C1095 C1094 1.389 . S
C1095 C1096 1.387 . S
C1096 H1081 0.930 . S
C1096 C1091 1.390 . S
C1096 C1095 1.387 . S
H1097 C1109 0.930 . S
H1098 C1111 0.930 1_556 S
H1099 C1112 0.930 . S
H1100 C1116 0.959 . S
H1101 C1116 0.959 . S
H1102 C1116 0.961 . S
H1103 C1117 0.960 . S
H1104 C1117 0.961 . S
H1105 C1117 0.959 . S
H1106 C1120 0.929 . S
H1107 C1121 0.931 . S
H1108 C1123 0.930 . S
C1109 H1097 0.930 . S
C1109 C1110 1.399 . S
C1109 C1114 1.399 . S
C1110 C1109 1.399 . S
C1110 C1111 1.376 . S
C1111 H1098 0.930 1_554 S
C1111 C1110 1.376 . S
C1111 C1112 1.388 . S
C1112 H1099 0.930 . S
C1112 C1111 1.388 . S
C1112 C1113 1.390 . S
C1113 C1112 1.390 . S
C1113 C1114 1.394 . S
C1113 C1119 1.465 . S
C1114 C1109 1.399 . S
C1114 C1113 1.394 . S
C1114 C1115 1.516 . S
C1115 C1114 1.516 . S
C1115 C1116 1.502 . S
C1115 C1117 1.561 . S
C1115 C1118 1.526 . S
C1116 H1100 0.959 . S
C1116 H1101 0.959 . S
C1116 H1102 0.961 . S
C1116 C1115 1.502 . S
C1117 H1103 0.960 . S
C1117 H1104 0.961 . S
C1117 H1105 0.959 . S
C1117 C1115 1.561 . S
C1118 C1115 1.526 . S
C1118 C1119 1.396 . S
C1118 C1123 1.390 . S
C1119 C1113 1.465 . S
C1119 C1118 1.396 . S
C1119 C1120 1.399 . S
C1120 H1106 0.929 . S
C1120 C1119 1.399 . S
C1120 C1121 1.385 . S
C1121 H1107 0.931 . S
C1121 C1120 1.385 . S
C1121 C1122 1.389 . S
C1122 C1121 1.389 . S
C1122 C1123 1.387 . S
C1123 H1108 0.930 . S
C1123 C1118 1.390 . S
C1123 C1122 1.387 . S
H1124 C1136 0.930 . S
H1125 C1138 0.930 . S
H1126 C1139 0.930 . S
H1127 C1143 0.959 . S
H1128 C1143 0.959 . S
H1129 C1143 0.961 . S
H1130 C1144 0.960 . S
H1131 C1144 0.961 . S
H1132 C1144 0.959 . S
H1133 C1147 0.929 . S
H1134 C1148 0.931 . S
H1135 C1150 0.930 . S
C1136 H1124 0.930 . S
C1136 C1137 1.399 . S
C1136 C1141 1.399 . S
C1137 C1136 1.399 . S
C1137 C1138 1.376 . S
C1138 H1125 0.930 . S
C1138 C1137 1.376 . S
C1138 C1139 1.388 . S
C1139 H1126 0.930 . S
C1139 C1138 1.388 . S
C1139 C1140 1.390 . S
C1140 C1139 1.390 . S
C1140 C1141 1.394 . S
C1140 C1146 1.465 . S
C1141 C1136 1.399 . S
C1141 C1140 1.394 . S
C1141 C1142 1.516 . S
C1142 C1141 1.516 . S
C1142 C1143 1.502 . S
C1142 C1144 1.561 . S
C1142 C1145 1.526 . S
C1143 H1127 0.959 . S
C1143 H1128 0.959 . S
C1143 H1129 0.961 . S
C1143 C1142 1.502 . S
C1144 H1130 0.960 . S
C1144 H1131 0.961 . S
C1144 H1132 0.959 . S
C1144 C1142 1.561 . S
C1145 C1142 1.526 . S
C1145 C1146 1.396 . S
C1145 C1150 1.390 . S
C1146 C1140 1.465 . S
C1146 C1145 1.396 . S
C1146 C1147 1.399 . S
C1147 H1133 0.929 . S
C1147 C1146 1.399 . S
C1147 C1148 1.385 . S
C1148 H1134 0.931 . S
C1148 C1147 1.385 . S
C1148 C1149 1.389 . S
C1149 C1148 1.389 . S
C1149 C1150 1.387 . S
C1150 H1135 0.930 . S
C1150 C1145 1.390 . S
C1150 C1149 1.387 . S
H1151 C1163 0.930 . S
H1152 C1165 0.930 . S
H1153 C1166 0.930 . S
H1154 C1170 0.959 . S
H1155 C1170 0.959 . S
H1156 C1170 0.961 . S
H1157 C1171 0.960 . S
H1158 C1171 0.961 . S
H1159 C1171 0.959 . S
H1160 C1174 0.929 . S
H1161 C1175 0.931 . S
H1162 C1177 0.930 . S
C1163 H1151 0.930 . S
C1163 C1164 1.399 . S
C1163 C1168 1.399 . S
C1164 C1163 1.399 . S
C1164 C1165 1.376 . S
C1165 H1152 0.930 . S
C1165 C1164 1.376 . S
C1165 C1166 1.388 . S
C1166 H1153 0.930 . S
C1166 C1165 1.388 . S
C1166 C1167 1.390 . S
C1167 C1166 1.390 . S
C1167 C1168 1.394 . S
C1167 C1173 1.465 . S
C1168 C1163 1.399 . S
C1168 C1167 1.394 . S
C1168 C1169 1.516 . S
C1169 C1168 1.516 . S
C1169 C1170 1.502 . S
C1169 C1171 1.561 . S
C1169 C1172 1.526 . S
C1170 H1154 0.959 . S
C1170 H1155 0.959 . S
C1170 H1156 0.961 . S
C1170 C1169 1.502 . S
C1171 H1157 0.960 . S
C1171 H1158 0.961 . S
C1171 H1159 0.959 . S
C1171 C1169 1.561 . S
C1172 C1169 1.526 . S
C1172 C1173 1.396 . S
C1172 C1177 1.390 . S
C1173 C1167 1.465 . S
C1173 C1172 1.396 . S
C1173 C1174 1.399 . S
C1174 H1160 0.929 . S
C1174 C1173 1.399 . S
C1174 C1175 1.385 . S
C1175 H1161 0.931 . S
C1175 C1174 1.385 . S
C1175 C1176 1.389 . S
C1176 C1175 1.389 . S
C1176 C1177 1.387 . S
C1177 H1162 0.930 . S
C1177 C1172 1.390 . S
C1177 C1176 1.387 . S
H1178 C1190 0.930 . S
H1179 C1192 0.930 . S
H1180 C1193 0.930 . S
H1181 C1197 0.959 . S
H1182 C1197 0.959 . S
H1183 C1197 0.961 . S
H1184 C1198 0.960 . S
H1185 C1198 0.961 . S
H1186 C1198 0.959 . S
H1187 C1201 0.929 . S
H1188 C1202 0.931 . S
H1189 C1204 0.930 . S
C1190 H1178 0.930 . S
C1190 C1191 1.399 . S
C1190 C1195 1.399 . S
C1191 C1190 1.399 . S
C1191 C1192 1.376 . S
C1192 H1179 0.930 . S
C1192 C1191 1.376 . S
C1192 C1193 1.388 . S
C1193 H1180 0.930 . S
C1193 C1192 1.388 . S
C1193 C1194 1.390 . S
C1194 C1193 1.390 . S
C1194 C1195 1.394 . S
C1194 C1200 1.465 . S
C1195 C1190 1.399 . S
C1195 C1194 1.394 . S
C1195 C1196 1.516 . S
C1196 C1195 1.516 . S
C1196 C1197 1.502 . S
C1196 C1198 1.561 . S
C1196 C1199 1.526 . S
C1197 H1181 0.959 . S
C1197 H1182 0.959 . S
C1197 H1183 0.961 . S
C1197 C1196 1.502 . S
C1198 H1184 0.960 . S
C1198 H1185 0.961 . S
C1198 H1186 0.959 . S
C1198 C1196 1.561 . S
C1199 C1196 1.526 . S
C1199 C1200 1.396 . S
C1199 C1204 1.390 . S
C1200 C1194 1.465 . S
C1200 C1199 1.396 . S
C1200 C1201 1.399 . S
C1201 H1187 0.929 . S
C1201 C1200 1.399 . S
C1201 C1202 1.385 . S
C1202 H1188 0.931 . S
C1202 C1201 1.385 . S
C1202 C1203 1.389 . S
C1203 C1202 1.389 . S
C1203 C1204 1.387 . S
C1204 H1189 0.930 . S
C1204 C1199 1.390 . S
C1204 C1203 1.387 . S
H1205 C1217 0.930 . S
H1206 C1219 0.930 . S
H1207 C1220 0.930 . S
H1208 C1224 0.959 . S
H1209 C1224 0.959 . S
H1210 C1224 0.961 . S
H1211 C1225 0.960 . S
H1212 C1225 0.961 1_554 S
H1213 C1225 0.959 . S
H1214 C1228 0.929 . S
H1215 C1229 0.931 . S
H1216 C1231 0.930 . S
C1217 H1205 0.930 . S
C1217 C1218 1.399 . S
C1217 C1222 1.399 . S
C1218 C1217 1.399 . S
C1218 C1219 1.376 . S
C1219 H1206 0.930 . S
C1219 C1218 1.376 . S
C1219 C1220 1.388 . S
C1220 H1207 0.930 . S
C1220 C1219 1.388 . S
C1220 C1221 1.390 . S
C1221 C1220 1.390 . S
C1221 C1222 1.394 . S
C1221 C1227 1.465 . S
C1222 C1217 1.399 . S
C1222 C1221 1.394 . S
C1222 C1223 1.516 . S
C1223 C1222 1.516 . S
C1223 C1224 1.502 1_556 S
C1223 C1225 1.561 . S
C1223 C1226 1.526 . S
C1224 H1208 0.959 . S
C1224 H1209 0.959 . S
C1224 H1210 0.961 . S
C1224 C1223 1.502 1_554 S
C1225 H1211 0.960 . S
C1225 H1212 0.961 1_556 S
C1225 H1213 0.959 . S
C1225 C1223 1.561 . S
C1226 C1223 1.526 . S
C1226 C1227 1.396 . S
C1226 C1231 1.390 1_556 S
C1227 C1221 1.465 . S
C1227 C1226 1.396 . S
C1227 C1228 1.399 . S
C1228 H1214 0.929 . S
C1228 C1227 1.399 . S
C1228 C1229 1.385 . S
C1229 H1215 0.931 . S
C1229 C1228 1.385 . S
C1229 C1230 1.389 . S
C1230 C1229 1.389 . S
C1230 C1231 1.387 1_556 S
C1231 H1216 0.930 . S
C1231 C1226 1.390 1_554 S
C1231 C1230 1.387 1_554 S
H1232 C1244 0.930 . S
H1233 C1246 0.930 . S
H1234 C1247 0.930 . S
H1235 C1251 0.959 . S
H1236 C1251 0.959 . S
H1237 C1251 0.961 . S
H1238 C1252 0.960 . S
H1239 C1252 0.961 . S
H1240 C1252 0.959 . S
H1241 C1255 0.929 . S
H1242 C1256 0.931 . S
H1243 C1258 0.930 . S
C1244 H1232 0.930 . S
C1244 C1245 1.399 . S
C1244 C1249 1.399 . S
C1245 C1244 1.399 . S
C1245 C1246 1.376 . S
C1246 H1233 0.930 . S
C1246 C1245 1.376 . S
C1246 C1247 1.388 . S
C1247 H1234 0.930 . S
C1247 C1246 1.388 . S
C1247 C1248 1.390 . S
C1248 C1247 1.390 . S
C1248 C1249 1.394 . S
C1248 C1254 1.465 . S
C1249 C1244 1.399 . S
C1249 C1248 1.394 . S
C1249 C1250 1.516 . S
C1250 C1249 1.516 . S
C1250 C1251 1.502 . S
C1250 C1252 1.561 . S
C1250 C1253 1.526 . S
C1251 H1235 0.959 . S
C1251 H1236 0.959 . S
C1251 H1237 0.961 . S
C1251 C1250 1.502 . S
C1252 H1238 0.960 . S
C1252 H1239 0.961 . S
C1252 H1240 0.959 . S
C1252 C1250 1.561 . S
C1253 C1250 1.526 . S
C1253 C1254 1.396 . S
C1253 C1258 1.390 . S
C1254 C1248 1.465 . S
C1254 C1253 1.396 . S
C1254 C1255 1.399 . S
C1255 H1241 0.929 . S
C1255 C1254 1.399 . S
C1255 C1256 1.385 . S
C1256 H1242 0.931 . S
C1256 C1255 1.385 . S
C1256 C1257 1.389 . S
C1257 C1256 1.389 . S
C1257 C1258 1.387 . S
C1258 H1243 0.930 . S
C1258 C1253 1.390 . S
C1258 C1257 1.387 . S
H1259 C1271 0.930 . S
H1260 C1273 0.930 . S
H1261 C1274 0.930 . S
H1262 C1278 0.959 . S
H1263 C1278 0.959 . S
H1264 C1278 0.961 . S
H1265 C1279 0.960 . S
H1266 C1279 0.961 . S
H1267 C1279 0.959 . S
H1268 C1282 0.929 . S
H1269 C1283 0.931 . S
H1270 C1285 0.930 . S
C1271 H1259 0.930 . S
C1271 C1272 1.399 . S
C1271 C1276 1.399 . S
C1272 C1271 1.399 . S
C1272 C1273 1.376 . S
C1273 H1260 0.930 . S
C1273 C1272 1.376 . S
C1273 C1274 1.388 . S
C1274 H1261 0.930 . S
C1274 C1273 1.388 . S
C1274 C1275 1.390 . S
C1275 C1274 1.390 . S
C1275 C1276 1.394 . S
C1275 C1281 1.465 . S
C1276 C1271 1.399 . S
C1276 C1275 1.394 . S
C1276 C1277 1.516 . S
C1277 C1276 1.516 . S
C1277 C1278 1.502 . S
C1277 C1279 1.561 . S
C1277 C1280 1.526 . S
C1278 H1262 0.959 . S
C1278 H1263 0.959 . S
C1278 H1264 0.961 . S
C1278 C1277 1.502 . S
C1279 H1265 0.960 . S
C1279 H1266 0.961 . S
C1279 H1267 0.959 . S
C1279 C1277 1.561 . S
C1280 C1277 1.526 . S
C1280 C1281 1.396 . S
C1280 C1285 1.390 . S
C1281 C1275 1.465 . S
C1281 C1280 1.396 . S
C1281 C1282 1.399 . S
C1282 H1268 0.929 . S
C1282 C1281 1.399 . S
C1282 C1283 1.385 . S
C1283 H1269 0.931 . S
C1283 C1282 1.385 . S
C1283 C1284 1.389 . S
C1284 C1283 1.389 . S
C1284 C1285 1.387 . S
C1285 H1270 0.930 . S
C1285 C1280 1.390 . S
C1285 C1284 1.387 . S
H1286 C1298 0.930 . S
H1287 C1300 0.930 . S
H1288 C1301 0.930 . S
H1289 C1305 0.959 . S
H1290 C1305 0.959 . S
H1291 C1305 0.961 . S
H1292 C1306 0.960 . S
H1293 C1306 0.961 . S
H1294 C1306 0.959 . S
H1295 C1309 0.929 . S
H1296 C1310 0.931 . S
H1297 C1312 0.930 . S
C1298 H1286 0.930 . S
C1298 C1299 1.399 . S
C1298 C1303 1.399 . S
C1299 C1298 1.399 . S
C1299 C1300 1.376 . S
C1300 H1287 0.930 . S
C1300 C1299 1.376 . S
C1300 C1301 1.388 . S
C1301 H1288 0.930 . S
C1301 C1300 1.388 . S
C1301 C1302 1.390 . S
C1302 C1301 1.390 . S
C1302 C1303 1.394 . S
C1302 C1308 1.465 . S
C1303 C1298 1.399 . S
C1303 C1302 1.394 . S
C1303 C1304 1.516 . S
C1304 C1303 1.516 . S
C1304 C1305 1.502 . S
C1304 C1306 1.561 . S
C1304 C1307 1.526 . S
C1305 H1289 0.959 . S
C1305 H1290 0.959 . S
C1305 H1291 0.961 . S
C1305 C1304 1.502 . S
C1306 H1292 0.960 . S
C1306 H1293 0.961 . S
C1306 H1294 0.959 . S
C1306 C1304 1.561 . S
C1307 C1304 1.526 . S
C1307 C1308 1.396 . S
C1307 C1312 1.390 . S
C1308 C1302 1.465 . S
C1308 C1307 1.396 . S
C1308 C1309 1.399 . S
C1309 H1295 0.929 . S
C1309 C1308 1.399 . S
C1309 C1310 1.385 . S
C1310 H1296 0.931 . S
C1310 C1309 1.385 . S
C1310 C1311 1.389 . S
C1311 C1310 1.389 . S
C1311 C1312 1.387 . S
C1312 H1297 0.930 . S
C1312 C1307 1.390 . S
C1312 C1311 1.387 . S
H1313 C1325 0.930 . S
H1314 C1327 0.930 . S
H1315 C1328 0.930 . S
H1316 C1332 0.950 1_556 S
H1317 C1332 0.959 1_556 S
H1318 C1332 0.961 . S
H1319 C1333 0.960 1_455 S
H1320 C1333 0.961 . S
H1321 C1333 0.959 . S
H1322 C1336 0.929 . S
H1323 C1337 0.931 . S
H1324 C1339 0.930 . S
C1325 H1313 0.930 . S
C1325 C1326 1.399 . S
C1325 C1330 1.399 . S
C1326 C1325 1.399 . S
C1326 C1327 1.376 . S
C1327 H1314 0.930 . S
C1327 C1326 1.376 . S
C1327 C1328 1.388 1_455 S
C1328 H1315 0.930 . S
C1328 C1327 1.388 1_655 S
C1328 C1329 1.390 . S
C1329 C1328 1.390 . S
C1329 C1330 1.394 1_655 S
C1329 C1335 1.465 . S
C1330 C1325 1.399 . S
C1330 C1329 1.394 1_455 S
C1330 C1331 1.516 . S
C1331 C1330 1.516 . S
C1331 C1332 1.502 . S
C1331 C1333 1.561 1_455 S
C1331 C1334 1.526 1_454 S
C1332 H1316 0.950 1_554 S
C1332 H1317 0.959 1_554 S
C1332 H1318 0.961 . S
C1332 C1331 1.502 . S
C1333 H1319 0.960 1_655 S
C1333 H1320 0.961 . S
C1333 H1321 0.959 . S
C1333 C1331 1.561 1_655 S
C1334 C1331 1.526 1_656 S
C1334 C1335 1.396 1_556 S
C1334 C1339 1.390 . S
C1335 C1329 1.465 . S
C1335 C1334 1.396 1_554 S
C1335 C1336 1.399 1_554 S
C1336 H1322 0.929 . S
C1336 C1335 1.399 1_556 S
C1336 C1337 1.385 . S
C1337 H1323 0.931 . S
C1337 C1336 1.385 . S
C1337 C1338 1.389 . S
C1338 C1337 1.389 . S
C1338 C1339 1.387 . S
C1339 H1324 0.930 . S
C1339 C1334 1.390 . S
C1339 C1338 1.387 . S
H1340 C1352 0.930 . S
H1341 C1354 0.930 . S
H1342 C1355 0.930 . S
H1343 C1359 0.959 . S
H1344 C1359 0.959 . S
H1345 C1359 0.961 . S
H1346 C1360 0.960 . S
H1347 C1360 0.961 . S
H1348 C1360 0.959 . S
H1349 C1363 0.929 . S
H1350 C1364 0.931 . S
H1351 C1366 0.930 . S
C1352 H1340 0.930 . S
C1352 C1353 1.399 . S
C1352 C1357 1.399 . S
C1353 C1352 1.399 . S
C1353 C1354 1.376 . S
C1354 H1341 0.930 . S
C1354 C1353 1.376 . S
C1354 C1355 1.388 . S
C1355 H1342 0.930 . S
C1355 C1354 1.388 . S
C1355 C1356 1.390 . S
C1356 C1355 1.390 . S
C1356 C1357 1.394 . S
C1356 C1362 1.465 . S
C1357 C1352 1.399 . S
C1357 C1356 1.394 . S
C1357 C1358 1.516 . S
C1358 C1357 1.516 . S
C1358 C1359 1.502 . S
C1358 C1360 1.561 . S
C1358 C1361 1.526 . S
C1359 H1343 0.959 . S
C1359 H1344 0.959 . S
C1359 H1345 0.961 . S
C1359 C1358 1.502 . S
C1360 H1346 0.960 . S
C1360 H1347 0.961 . S
C1360 H1348 0.959 . S
C1360 C1358 1.561 . S
C1361 C1358 1.526 . S
C1361 C1362 1.396 . S
C1361 C1366 1.390 . S
C1362 C1356 1.465 . S
C1362 C1361 1.396 . S
C1362 C1363 1.399 . S
C1363 H1349 0.929 . S
C1363 C1362 1.399 . S
C1363 C1364 1.385 . S
C1364 H1350 0.931 . S
C1364 C1363 1.385 . S
C1364 C1365 1.389 . S
C1365 C1364 1.389 . S
C1365 C1366 1.387 . S
C1366 H1351 0.930 . S
C1366 C1361 1.390 . S
C1366 C1365 1.387 . S
H1367 C1379 0.930 . S
H1368 C1381 0.930 . S
H1369 C1382 0.930 . S
H1370 C1386 0.959 . S
H1371 C1386 0.959 . S
H1372 C1386 0.961 . S
H1373 C1387 0.960 . S
H1374 C1387 0.961 . S
H1375 C1387 0.959 . S
H1376 C1390 0.929 . S
H1377 C1391 0.931 . S
H1378 C1393 0.930 . S
C1379 H1367 0.930 . S
C1379 C1380 1.399 . S
C1379 C1384 1.399 . S
C1380 C1379 1.399 . S
C1380 C1381 1.376 . S
C1381 H1368 0.930 . S
C1381 C1380 1.376 . S
C1381 C1382 1.388 . S
C1382 H1369 0.930 . S
C1382 C1381 1.388 . S
C1382 C1383 1.390 . S
C1383 C1382 1.390 . S
C1383 C1384 1.394 . S
C1383 C1389 1.465 . S
C1384 C1379 1.399 . S
C1384 C1383 1.394 . S
C1384 C1385 1.516 . S
C1385 C1384 1.516 . S
C1385 C1386 1.502 . S
C1385 C1387 1.561 . S
C1385 C1388 1.526 . S
C1386 H1370 0.959 . S
C1386 H1371 0.959 . S
C1386 H1372 0.961 . S
C1386 C1385 1.502 . S
C1387 H1373 0.960 . S
C1387 H1374 0.961 . S
C1387 H1375 0.959 . S
C1387 C1385 1.561 . S
C1388 C1385 1.526 . S
C1388 C1389 1.396 . S
C1388 C1393 1.390 . S
C1389 C1383 1.465 . S
C1389 C1388 1.396 . S
C1389 C1390 1.399 . S
C1390 H1376 0.929 . S
C1390 C1389 1.399 . S
C1390 C1391 1.385 . S
C1391 H1377 0.931 . S
C1391 C1390 1.385 . S
C1391 C1392 1.389 . S
C1392 C1391 1.389 . S
C1392 C1393 1.387 . S
C1393 H1378 0.930 . S
C1393 C1388 1.390 . S
C1393 C1392 1.387 . S
H1394 C1406 0.930 . S
H1395 C1408 0.930 . S
H1396 C1409 0.930 1_554 S
H1397 C1413 0.959 . S
H1398 C1413 0.959 1_554 S
H1399 C1413 0.961 . S
H1400 C1414 0.960 1_556 S
H1401 C1414 0.961 . S
H1402 C1414 0.959 . S
H1403 C1417 0.915 1_455 S
H1404 C1418 0.931 . S
H1405 C1420 0.930 . S
C1406 H1394 0.930 . S
C1406 C1407 1.399 1_565 S
C1406 C1411 1.399 . S
C1407 C1406 1.399 1_545 S
C1407 C1408 1.376 . S
C1408 H1395 0.930 . S
C1408 C1407 1.376 . S
C1408 C1409 1.388 . S
C1409 H1396 0.930 1_556 S
C1409 C1408 1.388 . S
C1409 C1410 1.390 1_556 S
C1410 C1409 1.390 1_554 S
C1410 C1411 1.394 1_544 S
C1410 C1416 1.472 . S
C1411 C1406 1.399 . S
C1411 C1410 1.394 1_566 S
C1411 C1412 1.516 1_456 S
C1412 C1411 1.516 1_654 S
C1412 C1413 1.502 1_554 S
C1412 C1414 1.561 1_655 S
C1412 C1415 1.526 . S
C1413 H1397 0.959 . S
C1413 H1398 0.959 1_556 S
C1413 H1399 0.961 . S
C1413 C1412 1.502 1_556 S
C1414 H1400 0.960 1_554 S
C1414 H1401 0.961 . S
C1414 H1402 0.959 . S
C1414 C1412 1.561 1_455 S
C1415 C1412 1.526 . S
C1415 C1416 1.389 1_665 S
C1415 C1420 1.390 . S
C1416 C1410 1.472 . S
C1416 C1415 1.389 1_445 S
C1416 C1417 1.397 1_455 S
C1417 H1403 0.915 1_655 S
C1417 C1416 1.397 1_655 S
C1417 C1418 1.403 . S
C1418 H1404 0.931 . S
C1418 C1417 1.403 . S
C1418 C1419 1.389 1_545 S
C1419 C1418 1.389 1_565 S
C1419 C1420 1.387 . S
C1420 H1405 0.930 . S
C1420 C1415 1.390 . S
C1420 C1419 1.387 . S
H1421 C1433 0.930 . S
H1422 C1435 0.930 . S
H1423 C1436 0.930 . S
H1424 C1440 0.959 . S
H1425 C1440 0.959 . S
H1426 C1440 0.961 . S
H1427 C1441 0.960 . S
H1428 C1441 0.961 . S
H1429 C1441 0.959 . S
H1430 C1444 0.929 . S
H1431 C1445 0.931 . S
H1432 C1447 0.930 . S
C1433 H1421 0.930 . S
C1433 C1434 1.399 . S
C1433 C1438 1.399 . S
C1434 C1433 1.399 . S
C1434 C1435 1.376 1_545 S
C1435 H1422 0.930 . S
C1435 C1434 1.376 1_565 S
C1435 C1436 1.388 . S
C1436 H1423 0.930 . S
C1436 C1435 1.388 . S
C1436 C1437 1.390 . S
C1437 C1436 1.390 . S
C1437 C1438 1.394 1_565 S
C1437 C1443 1.465 . S
C1438 C1433 1.399 . S
C1438 C1437 1.394 1_545 S
C1438 C1439 1.516 . S
C1439 C1438 1.516 . S
C1439 C1440 1.502 . S
C1439 C1441 1.561 . S
C1439 C1442 1.526 . S
C1440 H1424 0.959 . S
C1440 H1425 0.959 . S
C1440 H1426 0.961 . S
C1440 C1439 1.502 . S
C1441 H1427 0.960 . S
C1441 H1428 0.961 . S
C1441 H1429 0.959 . S
C1441 C1439 1.561 . S
C1442 C1439 1.526 . S
C1442 C1443 1.396 1_545 S
C1442 C1447 1.390 . S
C1443 C1437 1.465 . S
C1443 C1442 1.396 1_565 S
C1443 C1444 1.399 . S
C1444 H1430 0.929 . S
C1444 C1443 1.399 . S
C1444 C1445 1.385 . S
C1445 H1431 0.931 . S
C1445 C1444 1.385 . S
C1445 C1446 1.389 . S
C1446 C1445 1.389 . S
C1446 C1447 1.387 1_565 S
C1447 H1432 0.930 . S
C1447 C1442 1.390 . S
C1447 C1446 1.387 1_545 S
H1448 C1460 0.930 . S
H1449 C1462 0.930 . S
H1450 C1463 0.930 . S
H1451 C1467 0.959 . S
H1452 C1467 0.959 . S
H1453 C1467 0.961 . S
H1454 C1468 0.960 . S
H1455 C1468 0.961 . S
H1456 C1468 0.959 . S
H1457 C1471 0.929 . S
H1458 C1472 0.931 . S
H1459 C1474 0.930 . S
C1460 H1448 0.930 . S
C1460 C1461 1.399 . S
C1460 C1465 1.399 . S
C1461 C1460 1.399 . S
C1461 C1462 1.376 . S
C1462 H1449 0.930 . S
C1462 C1461 1.376 . S
C1462 C1463 1.388 . S
C1463 H1450 0.930 . S
C1463 C1462 1.388 . S
C1463 C1464 1.390 . S
C1464 C1463 1.390 . S
C1464 C1465 1.394 . S
C1464 C1470 1.465 . S
C1465 C1460 1.399 . S
C1465 C1464 1.394 . S
C1465 C1466 1.516 . S
C1466 C1465 1.516 . S
C1466 C1467 1.502 . S
C1466 C1468 1.561 . S
C1466 C1469 1.526 . S
C1467 H1451 0.959 . S
C1467 H1452 0.959 . S
C1467 H1453 0.961 . S
C1467 C1466 1.502 . S
C1468 H1454 0.960 . S
C1468 H1455 0.961 . S
C1468 H1456 0.959 . S
C1468 C1466 1.561 . S
C1469 C1466 1.526 . S
C1469 C1470 1.396 . S
C1469 C1474 1.390 . S
C1470 C1464 1.465 . S
C1470 C1469 1.396 . S
C1470 C1471 1.399 . S
C1471 H1457 0.929 . S
C1471 C1470 1.399 . S
C1471 C1472 1.385 . S
C1472 H1458 0.931 . S
C1472 C1471 1.385 . S
C1472 C1473 1.389 . S
C1473 C1472 1.389 . S
C1473 C1474 1.387 . S
C1474 H1459 0.930 . S
C1474 C1469 1.390 . S
C1474 C1473 1.387 . S
H1475 C1487 0.930 . S
H1476 C1489 0.930 . S
H1477 C1490 0.930 1_554 S
H1478 C1494 0.959 1_554 S
H1479 C1494 0.959 1_554 S
H1480 C1494 0.961 . S
H1481 C1495 0.960 . S
H1482 C1495 0.961 1_554 S
H1483 C1495 0.959 1_554 S
H1484 C1498 0.929 . S
H1485 C1499 0.931 . S
H1486 C1501 0.930 . S
C1487 H1475 0.930 . S
C1487 C1488 1.399 . S
C1487 C1492 1.399 . S
C1488 C1487 1.399 . S
C1488 C1489 1.376 . S
C1489 H1476 0.930 . S
C1489 C1488 1.376 . S
C1489 C1490 1.388 . S
C1490 H1477 0.930 1_556 S
C1490 C1489 1.388 . S
C1490 C1491 1.390 1_556 S
C1491 C1490 1.390 1_554 S
C1491 C1492 1.394 1_554 S
C1491 C1497 1.465 . S
C1492 C1487 1.399 . S
C1492 C1491 1.394 1_556 S
C1492 C1493 1.516 1_556 S
C1493 C1492 1.516 1_554 S
C1493 C1494 1.502 1_554 S
C1493 C1495 1.561 1_554 S
C1493 C1496 1.526 . S
C1494 H1478 0.959 1_556 S
C1494 H1479 0.959 1_556 S
C1494 H1480 0.961 . S
C1494 C1493 1.502 1_556 S
C1495 H1481 0.960 . S
C1495 H1482 0.961 1_556 S
C1495 H1483 0.959 1_556 S
C1495 C1493 1.561 1_556 S
C1496 C1493 1.526 . S
C1496 C1497 1.396 . S
C1496 C1501 1.390 . S
C1497 C1491 1.465 . S
C1497 C1496 1.396 . S
C1497 C1498 1.399 . S
C1498 H1484 0.929 . S
C1498 C1497 1.399 . S
C1498 C1499 1.385 . S
C1499 H1485 0.931 . S
C1499 C1498 1.385 . S
C1499 C1500 1.389 . S
C1500 C1499 1.389 . S
C1500 C1501 1.387 . S
C1501 H1486 0.930 . S
C1501 C1496 1.390 . S
C1501 C1500 1.387 . S
H1502 C1514 0.930 . S
H1503 C1516 0.930 . S
H1504 C1517 0.930 . S
H1505 C1521 0.959 . S
H1506 C1521 0.959 . S
H1507 C1521 0.961 . S
H1508 C1522 0.960 . S
H1509 C1522 0.961 . S
H1510 C1522 0.959 . S
H1511 C1525 0.929 . S
H1512 C1526 0.931 . S
H1513 C1528 0.930 . S
C1514 H1502 0.930 . S
C1514 C1515 1.399 . S
C1514 C1519 1.399 . S
C1515 C1514 1.399 . S
C1515 C1516 1.376 . S
C1516 H1503 0.930 . S
C1516 C1515 1.376 . S
C1516 C1517 1.388 . S
C1517 H1504 0.930 . S
C1517 C1516 1.388 . S
C1517 C1518 1.390 . S
C1518 C1517 1.390 . S
C1518 C1519 1.394 . S
C1518 C1524 1.465 . S
C1519 C1514 1.399 . S
C1519 C1518 1.394 . S
C1519 C1520 1.516 . S
C1520 C1519 1.516 . S
C1520 C1521 1.502 . S
C1520 C1522 1.561 . S
C1520 C1523 1.526 . S
C1521 H1505 0.959 . S
C1521 H1506 0.959 . S
C1521 H1507 0.961 . S
C1521 C1520 1.502 . S
C1522 H1508 0.960 . S
C1522 H1509 0.961 . S
C1522 H1510 0.959 . S
C1522 C1520 1.561 . S
C1523 C1520 1.526 . S
C1523 C1524 1.396 . S
C1523 C1528 1.390 . S
C1524 C1518 1.465 . S
C1524 C1523 1.396 . S
C1524 C1525 1.399 . S
C1525 H1511 0.929 . S
C1525 C1524 1.399 . S
C1525 C1526 1.385 . S
C1526 H1512 0.931 . S
C1526 C1525 1.385 . S
C1526 C1527 1.389 . S
C1527 C1526 1.389 . S
C1527 C1528 1.387 . S
C1528 H1513 0.930 . S
C1528 C1523 1.390 . S
C1528 C1527 1.387 . S
H1529 C1541 0.930 . S
H1530 C1543 0.930 . S
H1531 C1544 0.930 . S
H1532 C1548 0.959 . S
H1533 C1548 0.959 . S
H1534 C1548 0.961 . S
H1535 C1549 0.960 . S
H1536 C1549 0.961 . S
H1537 C1549 0.959 . S
H1538 C1552 0.929 . S
H1539 C1553 0.931 . S
H1540 C1555 0.930 1_455 S
C1541 H1529 0.930 . S
C1541 C1542 1.399 . S
C1541 C1546 1.399 . S
C1542 C1541 1.399 . S
C1542 C1543 1.376 1_455 S
C1543 H1530 0.930 . S
C1543 C1542 1.376 1_655 S
C1543 C1544 1.388 . S
C1544 H1531 0.930 . S
C1544 C1543 1.388 . S
C1544 C1545 1.390 . S
C1545 C1544 1.390 . S
C1545 C1546 1.394 1_655 S
C1545 C1551 1.465 . S
C1546 C1541 1.399 . S
C1546 C1545 1.394 1_455 S
C1546 C1547 1.516 . S
C1547 C1546 1.516 . S
C1547 C1548 1.502 . S
C1547 C1549 1.561 1_455 S
C1547 C1550 1.526 1_455 S
C1548 H1532 0.959 . S
C1548 H1533 0.959 . S
C1548 H1534 0.961 . S
C1548 C1547 1.502 . S
C1549 H1535 0.960 . S
C1549 H1536 0.961 . S
C1549 H1537 0.959 . S
C1549 C1547 1.561 1_655 S
C1550 C1547 1.526 1_655 S
C1550 C1551 1.396 . S
C1550 C1555 1.390 . S
C1551 C1545 1.465 . S
C1551 C1550 1.396 . S
C1551 C1552 1.399 . S
C1552 H1538 0.929 . S
C1552 C1551 1.399 . S
C1552 C1553 1.385 . S
C1553 H1539 0.931 . S
C1553 C1552 1.385 . S
C1553 C1554 1.389 . S
C1554 C1553 1.389 . S
C1554 C1555 1.387 . S
C1555 H1540 0.930 1_655 S
C1555 C1550 1.390 . S
C1555 C1554 1.387 . S
H1556 C1568 0.930 . S
H1557 C1570 0.930 . S
H1558 C1571 0.930 . S
H1559 C1575 0.959 . S
H1560 C1575 0.959 . S
H1561 C1575 0.961 . S
H1562 C1576 0.960 . S
H1563 C1576 0.961 . S
H1564 C1576 0.959 . S
H1565 C1579 0.929 . S
H1566 C1580 0.931 . S
H1567 C1582 0.930 . S
C1568 H1556 0.930 . S
C1568 C1569 1.399 . S
C1568 C1573 1.399 . S
C1569 C1568 1.399 . S
C1569 C1570 1.376 . S
C1570 H1557 0.930 . S
C1570 C1569 1.376 . S
C1570 C1571 1.388 . S
C1571 H1558 0.930 . S
C1571 C1570 1.388 . S
C1571 C1572 1.390 . S
C1572 C1571 1.390 . S
C1572 C1573 1.394 . S
C1572 C1578 1.465 . S
C1573 C1568 1.399 . S
C1573 C1572 1.394 . S
C1573 C1574 1.516 . S
C1574 C1573 1.516 . S
C1574 C1575 1.502 . S
C1574 C1576 1.561 . S
C1574 C1577 1.526 . S
C1575 H1559 0.959 . S
C1575 H1560 0.959 . S
C1575 H1561 0.961 . S
C1575 C1574 1.502 . S
C1576 H1562 0.960 . S
C1576 H1563 0.961 . S
C1576 H1564 0.959 . S
C1576 C1574 1.561 . S
C1577 C1574 1.526 . S
C1577 C1578 1.396 . S
C1577 C1582 1.390 . S
C1578 C1572 1.465 . S
C1578 C1577 1.396 . S
C1578 C1579 1.399 . S
C1579 H1565 0.929 . S
C1579 C1578 1.399 . S
C1579 C1580 1.385 . S
C1580 H1566 0.931 . S
C1580 C1579 1.385 . S
C1580 C1581 1.389 . S
C1581 C1580 1.389 . S
C1581 C1582 1.387 . S
C1582 H1567 0.930 . S
C1582 C1577 1.390 . S
C1582 C1581 1.387 . S
H1583 C1595 0.930 . S
H1584 C1597 0.930 . S
H1585 C1598 0.930 . S
H1586 C1602 0.959 . S
H1587 C1602 0.959 . S
H1588 C1602 0.961 . S
H1589 C1603 0.960 . S
H1590 C1603 0.961 . S
H1591 C1603 0.959 . S
H1592 C1606 0.929 . S
H1593 C1607 0.931 . S
H1594 C1609 0.930 . S
C1595 H1583 0.930 . S
C1595 C1596 1.399 . S
C1595 C1600 1.399 . S
C1596 C1595 1.399 . S
C1596 C1597 1.376 . S
C1597 H1584 0.930 . S
C1597 C1596 1.376 . S
C1597 C1598 1.388 . S
C1598 H1585 0.930 . S
C1598 C1597 1.388 . S
C1598 C1599 1.390 . S
C1599 C1598 1.390 . S
C1599 C1600 1.394 . S
C1599 C1605 1.465 . S
C1600 C1595 1.399 . S
C1600 C1599 1.394 . S
C1600 C1601 1.516 . S
C1601 C1600 1.516 . S
C1601 C1602 1.502 . S
C1601 C1603 1.561 . S
C1601 C1604 1.526 . S
C1602 H1586 0.959 . S
C1602 H1587 0.959 . S
C1602 H1588 0.961 . S
C1602 C1601 1.502 . S
C1603 H1589 0.960 . S
C1603 H1590 0.961 . S
C1603 H1591 0.959 . S
C1603 C1601 1.561 . S
C1604 C1601 1.526 . S
C1604 C1605 1.396 . S
C1604 C1609 1.390 . S
C1605 C1599 1.465 . S
C1605 C1604 1.396 . S
C1605 C1606 1.399 . S
C1606 H1592 0.929 . S
C1606 C1605 1.399 . S
C1606 C1607 1.385 . S
C1607 H1593 0.931 . S
C1607 C1606 1.385 . S
C1607 C1608 1.389 . S
C1608 C1607 1.389 . S
C1608 C1609 1.387 . S
C1609 H1594 0.930 . S
C1609 C1604 1.390 . S
C1609 C1608 1.387 . S
H1610 C1622 0.930 . S
H1611 C1624 0.930 . S
H1612 C1625 0.930 . S
H1613 C1629 0.959 1_545 S
H1614 C1629 0.959 . S
H1615 C1629 0.961 . S
H1616 C1630 0.960 . S
H1617 C1630 0.961 . S
H1618 C1630 0.959 . S
H1619 C1633 0.929 . S
H1620 C1634 0.931 . S
H1621 C1636 0.930 . S
C1622 H1610 0.930 . S
C1622 C1623 1.399 . S
C1622 C1627 1.399 . S
C1623 C1622 1.399 . S
C1623 C1624 1.376 1_655 S
C1624 H1611 0.930 . S
C1624 C1623 1.376 1_455 S
C1624 C1625 1.388 1_565 S
C1625 H1612 0.930 . S
C1625 C1624 1.388 1_545 S
C1625 C1626 1.390 1_545 S
C1626 C1625 1.390 1_565 S
C1626 C1627 1.394 1_455 S
C1626 C1632 1.465 1_565 S
C1627 C1622 1.399 . S
C1627 C1626 1.394 1_655 S
C1627 C1628 1.516 . S
C1628 C1627 1.516 . S
C1628 C1629 1.502 . S
C1628 C1630 1.561 . S
C1628 C1631 1.515 1_565 S
C1629 H1613 0.959 1_565 S
C1629 H1614 0.959 . S
C1629 H1615 0.961 . S
C1629 C1628 1.502 . S
C1630 H1616 0.960 . S
C1630 H1617 0.961 . S
C1630 H1618 0.959 . S
C1630 C1628 1.561 . S
C1631 C1628 1.515 1_545 S
C1631 C1632 1.402 1_655 S
C1631 C1636 1.395 . S
C1632 C1626 1.465 1_545 S
C1632 C1631 1.402 1_455 S
C1632 C1633 1.399 . S
C1633 H1619 0.929 . S
C1633 C1632 1.399 . S
C1633 C1634 1.385 . S
C1634 H1620 0.931 . S
C1634 C1633 1.385 . S
C1634 C1635 1.389 . S
C1635 C1634 1.389 . S
C1635 C1636 1.387 1_455 S
C1636 H1621 0.930 . S
C1636 C1631 1.395 . S
C1636 C1635 1.387 1_655 S
H1637 C1649 0.931 1_565 S
H1638 C1651 0.930 . S
H1639 C1652 0.930 1_554 S
H1640 C1656 0.959 . S
H1641 C1656 0.959 1_554 S
H1642 C1656 0.961 . S
H1643 C1657 0.960 1_556 S
H1644 C1657 0.961 . S
H1645 C1657 0.959 . S
H1646 C1660 0.929 . S
H1647 C1661 0.931 . S
H1648 C1663 0.930 . S
C1649 H1637 0.931 1_545 S
C1649 C1650 1.398 . S
C1649 C1654 1.399 1_545 S
C1650 C1649 1.398 . S
C1650 C1651 1.376 . S
C1651 H1638 0.930 . S
C1651 C1650 1.376 . S
C1651 C1652 1.388 . S
C1652 H1639 0.930 1_556 S
C1652 C1651 1.388 . S
C1652 C1653 1.390 1_556 S
C1653 C1652 1.390 1_554 S
C1653 C1654 1.394 1_544 S
C1653 C1659 1.465 . S
C1654 C1649 1.399 1_565 S
C1654 C1653 1.394 1_566 S
C1654 C1655 1.516 1_556 S
C1655 C1654 1.516 1_554 S
C1655 C1656 1.502 1_554 S
C1655 C1657 1.561 . S
C1655 C1658 1.526 . S
C1656 H1640 0.959 . S
C1656 H1641 0.959 1_556 S
C1656 H1642 0.961 . S
C1656 C1655 1.502 1_556 S
C1657 H1643 0.960 1_554 S
C1657 H1644 0.961 . S
C1657 H1645 0.959 . S
C1657 C1655 1.561 . S
C1658 C1655 1.526 . S
C1658 C1659 1.396 1_565 S
C1658 C1663 1.390 . S
C1659 C1653 1.465 . S
C1659 C1658 1.396 1_545 S
C1659 C1660 1.399 . S
C1660 H1646 0.929 . S
C1660 C1659 1.399 . S
C1660 C1661 1.385 . S
C1661 H1647 0.931 . S
C1661 C1660 1.385 . S
C1661 C1662 1.389 1_545 S
C1662 C1661 1.389 1_565 S
C1662 C1663 1.387 . S
C1663 H1648 0.930 . S
C1663 C1658 1.390 . S
C1663 C1662 1.387 . S
C381 C21 1.675 . S
C393 C224 1.657 . S
C408 C247 1.600 . S
C420 C44 1.674 . S
C435 C270 1.658 . S
C447 C67 1.675 . S
C462 C201 1.607 . S
C474 C90 1.675 . S
C489 C113 1.674 . S
C501 C316 1.598 . S
C516 C136 1.675 . S
C528 C339 1.605 . S
C543 C362 1.609 . S
C555 C159 1.676 . S
C570 C293 1.630 . S
C582 C182 1.672 . S
C597 C40 1.613 . S
C609 C205 1.676 . S
C624 C63 1.596 . S
C636 C228 1.673 1_565 S
C651 C86 1.615 . S
C663 C251 1.676 . S
C678 C274 1.671 1_545 S
C690 C17 1.606 . S
C705 C132 1.638 . S
C717 C297 1.672 . S
C732 C155 1.596 . S
C744 C320 1.674 1_545 S
C759 C178 1.614 . S
C771 C343 1.676 . S
C786 C109 1.654 . S
C798 C366 1.674 1_565 S
C813 C19 1.547 . S
C825 C363 1.534 . S
C840 C42 1.548 . S
C852 C110 1.534 . S
C867 C317 1.523 1_455 S
C879 C65 1.553 . S
C894 C156 1.564 . S
C906 C88 1.506 . S
C921 C111 1.557 . S
C933 C271 1.526 . S
C948 C18 1.524 1_556 S
C960 C134 1.557 . S
C975 C157 1.552 . S
C987 C225 1.523 1_655 S
C1002 C180 1.494 . S
C1014 C64 1.561 . S
C1029 C203 1.535 . S
C1041 C179 1.535 1_655 S
C1056 C294 1.535 . S
C1068 C226 1.533 . S
C1083 C249 1.546 . S
C1095 C133 1.528 . S
C1110 C340 1.561 . S
C1122 C272 1.510 . S
C1137 C295 1.554 . S
C1149 C87 1.523 1_455 S
C1164 C202 1.571 . S
C1176 C318 1.494 . S
C1191 C341 1.490 . S
C1203 C41 1.566 . S
C1218 C364 1.519 . S
C1230 C248 1.559 1_556 S
C1245 C20 1.482 . S
C1257 C296 1.478 . S
C1272 C135 1.482 . S
C1284 C43 1.479 . S
C1299 C66 1.478 . S
C1311 C342 1.482 . S
C1326 C181 1.477 . S
C1338 C89 1.482 . S
C1353 C112 1.477 . S
C1365 C204 1.482 . S
C1380 C250 1.481 . S
C1392 C158 1.478 . S
C1407 C227 1.481 . S
C1419 C319 1.480 . S
C1434 C365 1.481 . S
C1446 C273 1.480 . S
C1461 C292 0.757 . S
C1473 C16 0.801 . S
C1488 C131 0.706 . S
C1500 C39 0.825 . S
C1515 C62 0.825 . S
C1527 C338 0.707 . S
C1542 C177 0.830 . S
C1554 C85 0.716 . S
C1569 C108 0.745 . S
C1581 C200 0.811 . S
C1596 C154 0.751 . S
C1608 C246 0.806 . S
C1623 C315 0.828 . S
C1635 C223 0.707 . S
C1650 C361 0.710 . S
C1662 C269 0.818 . S
