# Generated by pormake.
# Topology lcy-a-x, (5)-cn, num edge types: 1
# Building blocks:
#     Node 0, Type 0, BuildingBlock: XOMCOT_clean_sbu_1, # of connection points: 5
#     Node 1, Type 0, BuildingBlock: XOMCOT_clean_sbu_1, # of connection points: 5
#     Node 2, Type 0, BuildingBlock: XOMCOT_clean_sbu_1, # of connection points: 5
#     Node 3, Type 0, BuildingBlock: XOMCOT_clean_sbu_1, # of connection points: 5
#     Node 4, Type 0, BuildingBlock: XOMCOT_clean_sbu_1, # of connection points: 5
#     Node 5, Type 0, BuildingBlock: XOMCOT_clean_sbu_1, # of connection points: 5
#     Node 6, Type 0, BuildingBlock: XOMCOT_clean_sbu_1, # of connection points: 5
#     Node 7, Type 0, BuildingBlock: XOMCOT_clean_sbu_1, # of connection points: 5
#     Node 8, Type 0, BuildingBlock: XOMCOT_clean_sbu_1, # of connection points: 5
#     Node 9, Type 0, BuildingBlock: XOMCOT_clean_sbu_1, # of connection points: 5
#     Node 10, Type 0, BuildingBlock: XOMCOT_clean_sbu_1, # of connection points: 5
#     Node 11, Type 0, BuildingBlock: XOMCOT_clean_sbu_1, # of connection points: 5
#     Node 12, Type 0, BuildingBlock: XOMCOT_clean_sbu_1, # of connection points: 5
#     Node 13, Type 0, BuildingBlock: XOMCOT_clean_sbu_1, # of connection points: 5
#     Node 14, Type 0, BuildingBlock: XOMCOT_clean_sbu_1, # of connection points: 5
#     Node 15, Type 0, BuildingBlock: XOMCOT_clean_sbu_1, # of connection points: 5
#     Node 16, Type 0, BuildingBlock: XOMCOT_clean_sbu_1, # of connection points: 5
#     Node 17, Type 0, BuildingBlock: XOMCOT_clean_sbu_1, # of connection points: 5
#     Node 18, Type 0, BuildingBlock: XOMCOT_clean_sbu_1, # of connection points: 5
#     Node 19, Type 0, BuildingBlock: XOMCOT_clean_sbu_1, # of connection points: 5
#     Node 20, Type 0, BuildingBlock: XOMCOT_clean_sbu_1, # of connection points: 5
#     Node 21, Type 0, BuildingBlock: XOMCOT_clean_sbu_1, # of connection points: 5
#     Node 22, Type 0, BuildingBlock: XOMCOT_clean_sbu_1, # of connection points: 5
#     Node 23, Type 0, BuildingBlock: XOMCOT_clean_sbu_1, # of connection points: 5
#     Edge 24, Type (0, 0), BuildingBlock: KIFKEQ_clean_linker_1, # of connection points: 2
#     Edge 25, Type (0, 0), BuildingBlock: KIFKEQ_clean_linker_1, # of connection points: 2
#     Edge 26, Type (0, 0), BuildingBlock: KIFKEQ_clean_linker_1, # of connection points: 2
#     Edge 27, Type (0, 0), BuildingBlock: KIFKEQ_clean_linker_1, # of connection points: 2
#     Edge 28, Type (0, 0), BuildingBlock: KIFKEQ_clean_linker_1, # of connection points: 2
#     Edge 29, Type (0, 0), BuildingBlock: KIFKEQ_clean_linker_1, # of connection points: 2
#     Edge 30, Type (0, 0), BuildingBlock: KIFKEQ_clean_linker_1, # of connection points: 2
#     Edge 31, Type (0, 0), BuildingBlock: KIFKEQ_clean_linker_1, # of connection points: 2
#     Edge 32, Type (0, 0), BuildingBlock: KIFKEQ_clean_linker_1, # of connection points: 2
#     Edge 33, Type (0, 0), BuildingBlock: KIFKEQ_clean_linker_1, # of connection points: 2
#     Edge 34, Type (0, 0), BuildingBlock: KIFKEQ_clean_linker_1, # of connection points: 2
#     Edge 35, Type (0, 0), BuildingBlock: KIFKEQ_clean_linker_1, # of connection points: 2
#     Edge 36, Type (0, 0), BuildingBlock: KIFKEQ_clean_linker_1, # of connection points: 2
#     Edge 37, Type (0, 0), BuildingBlock: KIFKEQ_clean_linker_1, # of connection points: 2
#     Edge 38, Type (0, 0), BuildingBlock: KIFKEQ_clean_linker_1, # of connection points: 2
#     Edge 39, Type (0, 0), BuildingBlock: KIFKEQ_clean_linker_1, # of connection points: 2
#     Edge 40, Type (0, 0), BuildingBlock: KIFKEQ_clean_linker_1, # of connection points: 2
#     Edge 41, Type (0, 0), BuildingBlock: KIFKEQ_clean_linker_1, # of connection points: 2
#     Edge 42, Type (0, 0), BuildingBlock: KIFKEQ_clean_linker_1, # of connection points: 2
#     Edge 43, Type (0, 0), BuildingBlock: KIFKEQ_clean_linker_1, # of connection points: 2
#     Edge 44, Type (0, 0), BuildingBlock: KIFKEQ_clean_linker_1, # of connection points: 2
#     Edge 45, Type (0, 0), BuildingBlock: KIFKEQ_clean_linker_1, # of connection points: 2
#     Edge 46, Type (0, 0), BuildingBlock: KIFKEQ_clean_linker_1, # of connection points: 2
#     Edge 47, Type (0, 0), BuildingBlock: KIFKEQ_clean_linker_1, # of connection points: 2
#     Edge 48, Type (0, 0), BuildingBlock: KIFKEQ_clean_linker_1, # of connection points: 2
#     Edge 49, Type (0, 0), BuildingBlock: KIFKEQ_clean_linker_1, # of connection points: 2
#     Edge 50, Type (0, 0), BuildingBlock: KIFKEQ_clean_linker_1, # of connection points: 2
#     Edge 51, Type (0, 0), BuildingBlock: KIFKEQ_clean_linker_1, # of connection points: 2
#     Edge 52, Type (0, 0), BuildingBlock: KIFKEQ_clean_linker_1, # of connection points: 2
#     Edge 53, Type (0, 0), BuildingBlock: KIFKEQ_clean_linker_1, # of connection points: 2
#     Edge 54, Type (0, 0), BuildingBlock: KIFKEQ_clean_linker_1, # of connection points: 2
#     Edge 55, Type (0, 0), BuildingBlock: KIFKEQ_clean_linker_1, # of connection points: 2
#     Edge 56, Type (0, 0), BuildingBlock: KIFKEQ_clean_linker_1, # of connection points: 2
#     Edge 57, Type (0, 0), BuildingBlock: KIFKEQ_clean_linker_1, # of connection points: 2
#     Edge 58, Type (0, 0), BuildingBlock: KIFKEQ_clean_linker_1, # of connection points: 2
#     Edge 59, Type (0, 0), BuildingBlock: KIFKEQ_clean_linker_1, # of connection points: 2
#     Edge 60, Type (0, 0), BuildingBlock: KIFKEQ_clean_linker_1, # of connection points: 2
#     Edge 61, Type (0, 0), BuildingBlock: KIFKEQ_clean_linker_1, # of connection points: 2
#     Edge 62, Type (0, 0), BuildingBlock: KIFKEQ_clean_linker_1, # of connection points: 2
#     Edge 63, Type (0, 0), BuildingBlock: KIFKEQ_clean_linker_1, # of connection points: 2
#     Edge 64, Type (0, 0), BuildingBlock: KIFKEQ_clean_linker_1, # of connection points: 2
#     Edge 65, Type (0, 0), BuildingBlock: KIFKEQ_clean_linker_1, # of connection points: 2
#     Edge 66, Type (0, 0), BuildingBlock: KIFKEQ_clean_linker_1, # of connection points: 2
#     Edge 67, Type (0, 0), BuildingBlock: KIFKEQ_clean_linker_1, # of connection points: 2
#     Edge 68, Type (0, 0), BuildingBlock: KIFKEQ_clean_linker_1, # of connection points: 2
#     Edge 69, Type (0, 0), BuildingBlock: KIFKEQ_clean_linker_1, # of connection points: 2
#     Edge 70, Type (0, 0), BuildingBlock: KIFKEQ_clean_linker_1, # of connection points: 2
#     Edge 71, Type (0, 0), BuildingBlock: KIFKEQ_clean_linker_1, # of connection points: 2
#     Edge 72, Type (0, 0), BuildingBlock: KIFKEQ_clean_linker_1, # of connection points: 2
#     Edge 73, Type (0, 0), BuildingBlock: KIFKEQ_clean_linker_1, # of connection points: 2
#     Edge 74, Type (0, 0), BuildingBlock: KIFKEQ_clean_linker_1, # of connection points: 2
#     Edge 75, Type (0, 0), BuildingBlock: KIFKEQ_clean_linker_1, # of connection points: 2
#     Edge 76, Type (0, 0), BuildingBlock: KIFKEQ_clean_linker_1, # of connection points: 2
#     Edge 77, Type (0, 0), BuildingBlock: KIFKEQ_clean_linker_1, # of connection points: 2
#     Edge 78, Type (0, 0), BuildingBlock: KIFKEQ_clean_linker_1, # of connection points: 2
#     Edge 79, Type (0, 0), BuildingBlock: KIFKEQ_clean_linker_1, # of connection points: 2
#     Edge 80, Type (0, 0), BuildingBlock: KIFKEQ_clean_linker_1, # of connection points: 2
#     Edge 81, Type (0, 0), BuildingBlock: KIFKEQ_clean_linker_1, # of connection points: 2
#     Edge 82, Type (0, 0), BuildingBlock: KIFKEQ_clean_linker_1, # of connection points: 2
#     Edge 83, Type (0, 0), BuildingBlock: KIFKEQ_clean_linker_1, # of connection points: 2
# Relax obj value: 0.878
# Max RMSD: 0.223
# Mean RMSD: 0.223
data_MOF--net-lcy-a-x--node1-XOMCOT_clean_sbu_1--edge1-KIFKEQ_clean_linker_1
_symmetry_space_group_name_H-M    P1
_symmetry_Int_Tables_number       1
_symmetry_cell_setting            triclinic
loop_
_symmetry_equiv_pos_as_xyz
'x, y, z'
_cell_length_a     59.078587
_cell_length_b     59.001742
_cell_length_c     59.009534
_cell_angle_alpha  89.943369
_cell_angle_beta   90.01828
_cell_angle_gamma 90.026496
loop_
_atom_site_label
_atom_site_type_symbol
_atom_site_fract_x
_atom_site_fract_y
_atom_site_fract_z
_atom_type_partial_charge
C0 C 0.06061 0.02804 0.76968 0.0
C1 C 0.04147 0.02022 0.78059 0.0
N2 N 0.02313 0.0288 0.77 0.0
N3 N 0.05432 0.0413 0.75219 0.0
C4 C 0.03149 0.04139 0.7528 0.0
H5 H 0.07795 0.02498 0.7747 0.0
Co6 Co 0.07224 0.0592 0.73352 0.0
C7 C 0.05493 0.05204 0.68708 0.0
O8 O 0.07573 0.05291 0.67927 0.0
N9 N 0.08998 0.0784 0.71469 0.0
C10 C 0.11502 0.09433 0.69122 0.0
C11 C 0.1117 0.07772 0.70731 0.0
C12 C 0.08091 0.09621 0.70339 0.0
N13 N 0.09561 0.10592 0.68896 0.0
O14 O 0.0551 0.08479 0.74272 0.0
H15 H 0.1243 0.06545 0.71212 0.0
H16 H 0.0632 0.10084 0.70424 0.0
O17 O 0.05118 0.05409 0.70834 0.0
C18 C 0.06278 0.09648 0.75908 0.0
O19 O 0.08221 0.0907 0.76826 0.0
N20 N 0.08945 0.03345 0.72597 0.0
C21 C 0.11681 0.99583 0.71785 0.0
C22 C 0.09451 0.99655 0.70977 0.0
C23 C 0.08093 0.01524 0.71451 0.0
C24 C 0.11035 0.03217 0.73566 0.0
C25 C 0.12456 0.01373 0.73141 0.0
H26 H 0.0634 0.01462 0.70944 0.0
H27 H 0.11617 0.04578 0.74647 0.0
H28 H 0.02126 0.05113 0.74113 0.0
H29 H 0.04119 0.00991 0.79576 0.0
H30 H 0.1302 0.09712 0.68132 0.0
H31 H 0.08734 0.98245 0.70046 0.0
H32 H 0.14143 0.01355 0.7386 0.0
C33 C 0.23717 0.7309 0.02579 0.0
C34 C 0.2314 0.71207 0.03842 0.0
N35 N 0.23754 0.69339 0.02677 0.0
N36 N 0.24701 0.72407 0.00636 0.0
C37 C 0.24679 0.70125 0.00738 0.0
H38 H 0.23432 0.74842 0.03037 0.0
Co39 Co 0.25744 0.74135 0.98217 0.0
C40 C 0.30132 0.713 0.9763 0.0
O41 O 0.31714 0.72633 0.98449 0.0
N42 N 0.26774 0.75841 0.95733 0.0
C43 C 0.28922 0.77329 0.9301 0.0
C44 C 0.28922 0.76355 0.95132 0.0
C45 C 0.25505 0.76602 0.93991 0.0
N46 N 0.26763 0.77473 0.923 0.0
O47 O 0.23851 0.72425 0.96272 0.0
H48 H 0.30404 0.75983 0.96132 0.0
H49 H 0.23696 0.76394 0.93878 0.0
O50 O 0.28069 0.71929 0.97605 0.0
C51 C 0.21815 0.73069 0.96077 0.0
O52 O 0.21159 0.74918 0.9713 0.0
N53 N 0.27524 0.7584 0.00177 0.0
C54 C 0.30165 0.78634 0.02871 0.0
C55 C 0.30273 0.76271 0.03116 0.0
C56 C 0.28915 0.74899 0.01762 0.0
C57 C 0.2723 0.7813 0.00081 0.0
C58 C 0.28566 0.79567 0.01388 0.0
H59 H 0.29016 0.73079 0.01946 0.0
H60 H 0.26005 0.78849 0.98923 0.0
H61 H 0.25262 0.6906 0.99369 0.0
H62 H 0.22329 0.7122 0.05486 0.0
H63 H 0.30396 0.77809 0.92031 0.0
H64 H 0.31482 0.75484 0.04251 0.0
H65 H 0.28407 0.81385 0.01188 0.0
C66 C 0.52811 0.0512 0.30774 0.0
C67 C 0.54799 0.06168 0.31414 0.0
N68 N 0.56348 0.05805 0.2978 0.0
N69 N 0.53124 0.04104 0.28754 0.0
C70 C 0.55292 0.04545 0.28196 0.0
H71 H 0.51267 0.05024 0.31754 0.0
Co72 Co 0.51161 0.0213 0.2731 0.0
C73 C 0.51577 0.03211 0.2247 0.0
O74 O 0.49358 0.03066 0.22364 0.0
N75 N 0.4925 -0.00028 0.25958 0.0
C76 C 0.46882 0.97054 0.25521 0.0
C77 C 0.47363 0.98963 0.26781 0.0
C78 C 0.49943 0.98562 0.24295 0.0
N79 N 0.4853 0.96804 0.23975 0.0
O80 O 0.53258 -0.00247 0.27848 0.0
H81 H 0.46524 0.99417 0.2834 0.0
H82 H 0.51545 0.98733 0.23426 0.0
O83 O 0.52599 0.02781 0.24341 0.0
C84 C 0.5297 0.98497 0.29573 0.0
O85 O 0.51257 0.9891 0.30931 0.0
N86 N 0.49092 0.04572 0.26805 0.0
C87 C 0.4624 0.08007 0.25291 0.0
C88 C 0.48581 0.08223 0.25091 0.0
C89 C 0.49975 0.06521 0.25905 0.0
C90 C 0.46823 0.0446 0.27254 0.0
C91 C 0.45351 0.0616 0.26484 0.0
H92 H 0.51775 0.06718 0.25661 0.0
H93 H 0.46127 0.03062 0.28186 0.0
H94 H 0.56122 0.03839 0.26722 0.0
H95 H 0.55099 0.07074 0.3298 0.0
H96 H 0.45538 0.95847 0.2584 0.0
H97 H 0.49332 0.09687 0.24272 0.0
H98 H 0.43546 0.0601 0.2677 0.0
C99 C 0.25483 0.3056 0.4814 0.0
C100 C 0.25012 0.32419 0.49477 0.0
N101 N 0.25805 0.34279 0.48414 0.0
N102 N 0.2658 0.31257 0.4626 0.0
C103 C 0.26746 0.33526 0.46477 0.0
H104 H 0.25153 0.28807 0.4856 0.0
Co105 Co 0.28011 0.29469 0.44114 0.0
C106 C 0.27427 0.31952 0.39801 0.0
O107 O 0.26963 0.30039 0.38759 0.0
N108 N 0.2957 0.27674 0.41971 0.0
C109 C 0.31103 0.25042 0.39737 0.0
C110 C 0.29445 0.25478 0.41314 0.0
C111 C 0.31359 0.28499 0.40804 0.0
N112 N 0.32306 0.26951 0.39429 0.0
O113 O 0.30819 0.30562 0.4513 0.0
H114 H 0.28269 0.24226 0.41925 0.0
H115 H 0.31926 0.30239 0.40924 0.0
O116 O 0.27848 0.31947 0.41925 0.0
C117 C 0.31633 0.29511 0.46819 0.0
O118 O 0.30428 0.27898 0.47773 0.0
N119 N 0.25208 0.28317 0.43246 0.0
C120 C 0.20958 0.26351 0.42656 0.0
C121 C 0.21332 0.2864 0.42104 0.0
C122 C 0.23463 0.29596 0.42433 0.0
C123 C 0.24846 0.26138 0.439 0.0
C124 C 0.22781 0.25085 0.43506 0.0
H125 H 0.23661 0.31396 0.42169 0.0
H126 H 0.26152 0.25233 0.44809 0.0
H127 H 0.27688 0.34593 0.45321 0.0
H128 H 0.24221 0.324 0.51131 0.0
H129 H 0.31412 0.23439 0.38902 0.0
H130 H 0.19963 0.29736 0.4157 0.0
H131 H 0.22596 0.23323 0.43983 0.0
C132 C 0.55594 0.55868 0.31032 0.0
C133 C 0.53784 0.56416 0.29653 0.0
N134 N 0.51911 0.5542 0.30499 0.0
N135 N 0.54851 0.54554 0.32747 0.0
C136 C 0.5261 0.54326 0.32383 0.0
H137 H 0.57347 0.56308 0.30742 0.0
Co138 Co 0.56474 0.52945 0.3491 0.0
C139 C 0.54204 0.53944 0.39256 0.0
O140 O 0.56198 0.5407 0.40237 0.0
N141 N 0.58066 0.51203 0.37088 0.0
C142 C 0.60455 0.49519 0.39484 0.0
C143 C 0.60241 0.51134 0.37808 0.0
C144 C 0.57028 0.49564 0.3831 0.0
N145 N 0.58424 0.48537 0.39795 0.0
O146 O 0.54997 0.50255 0.33942 0.0
H147 H 0.61609 0.52171 0.3719 0.0
H148 H 0.55239 0.49196 0.38175 0.0
O149 O 0.54069 0.53526 0.37132 0.0
C150 C 0.56149 0.49172 0.32481 0.0
O151 O 0.58122 0.49995 0.31861 0.0
N152 N 0.58036 0.55599 0.35689 0.0
C153 C 0.60736 0.59381 0.36508 0.0
C154 C 0.58441 0.5938 0.37118 0.0
C155 C 0.57102 0.57491 0.36638 0.0
C156 C 0.60205 0.55651 0.34913 0.0
C157 C 0.61605 0.57501 0.3535 0.0
H158 H 0.55312 0.57582 0.36985 0.0
H159 H 0.60856 0.54232 0.33955 0.0
H160 H 0.51528 0.53295 0.33444 0.0
H161 H 0.53869 0.57364 0.28084 0.0
H162 H 0.61988 0.491 0.40397 0.0
H163 H 0.57671 0.60852 0.37895 0.0
H164 H 0.63349 0.57455 0.34787 0.0
C165 C 0.74787 0.22718 0.55912 0.0
C166 C 0.74155 0.20861 0.54639 0.0
N167 N 0.74826 0.18977 0.55743 0.0
N168 N 0.7587 0.21992 0.57788 0.0
C169 C 0.75836 0.19715 0.57651 0.0
H170 H 0.74671 0.24474 0.55396 0.0
Co171 Co 0.77788 0.23639 0.59647 0.0
C172 C 0.76404 0.21823 0.64171 0.0
O173 O 0.76124 0.2387 0.65005 0.0
N174 N 0.79861 0.25274 0.6143 0.0
C175 C 0.82694 0.27633 0.62256 0.0
C176 C 0.81106 0.27035 0.6066 0.0
C177 C 0.8084 0.24742 0.63433 0.0
N178 N 0.82511 0.26188 0.6401 0.0
O179 O 0.80222 0.21772 0.58812 0.0
H180 H 0.80939 0.2778 0.58993 0.0
H181 H 0.80476 0.23225 0.64382 0.0
O182 O 0.77094 0.21567 0.62135 0.0
C183 C 0.81142 0.22161 0.5691 0.0
O184 O 0.80079 0.23471 0.55457 0.0
N185 N 0.7539 0.25581 0.60435 0.0
C186 C 0.72012 0.28589 0.61756 0.0
C187 C 0.71648 0.26241 0.61851 0.0
C188 C 0.73346 0.24765 0.61144 0.0
C189 C 0.75698 0.27856 0.60167 0.0
C190 C 0.74056 0.29392 0.60868 0.0
H191 H 0.73027 0.22961 0.61192 0.0
H192 H 0.77202 0.28506 0.59378 0.0
H193 H 0.76797 0.18628 0.58774 0.0
H194 H 0.73442 0.20899 0.52949 0.0
H195 H 0.83906 0.29001 0.62114 0.0
H196 H 0.70044 0.25547 0.62408 0.0
H197 H 0.74377 0.3119 0.60688 0.0
C198 C 0.03535 0.5283 0.76982 0.0
C199 C 0.05708 0.52168 0.76432 0.0
N200 N 0.07163 0.53167 0.77888 0.0
N201 N 0.03622 0.54223 0.78786 0.0
C202 C 0.0584 0.54389 0.79298 0.0
H203 H 0.02003 0.52393 0.76079 0.0
Co204 Co 0.0134 0.55924 0.80111 0.0
C205 C 0.02007 0.55293 0.85058 0.0
O206 O -0.00189 0.55436 0.85382 0.0
N207 N 0.99068 0.57774 0.81434 0.0
C208 C 0.9598 0.59648 0.82562 0.0
C209 C 0.96776 0.57836 0.81325 0.0
C210 C 0.99602 0.59608 0.82702 0.0
N211 N 0.9777 0.60764 0.83405 0.0
O212 O 0.03093 0.58572 0.79538 0.0
H213 H 0.95707 0.56698 0.8039 0.0
H214 H 0.0132 0.60067 0.83146 0.0
O215 O 0.0282 0.55576 0.83067 0.0
C216 C 0.0261 0.59889 0.77905 0.0
O217 O 0.00836 0.5944 0.76638 0.0
N218 N 0.99651 0.5324 0.8059 0.0
C219 C 0.96957 0.49512 0.81626 0.0
C220 C 0.99149 0.49694 0.82505 0.0
C221 C 0.00492 0.51531 0.81909 0.0
C222 C 0.97673 0.52913 0.79445 0.0
C223 C 0.96257 0.51085 0.79985 0.0
H224 H 0.02209 0.51577 0.8253 0.0
H225 H 0.97166 0.541 0.78145 0.0
H226 H 0.06468 0.55451 0.8065 0.0
H227 H 0.06177 0.51112 0.7501 0.0
H228 H 0.94227 0.60133 0.82786 0.0
H229 H -0.0017 0.48417 0.83637 0.0
H230 H 0.94624 0.50932 0.79164 0.0
C231 C 0.79607 0.85235 0.04692 0.0
C232 C 0.79202 0.87195 0.03477 0.0
N233 N 0.78179 0.88684 0.04868 0.0
N234 N 0.78833 0.85506 0.06825 0.0
C235 C 0.77952 0.87607 0.06867 0.0
H236 H 0.80402 0.8371 0.04063 0.0
Co237 Co 0.78848 0.83436 0.09175 0.0
C238 C 0.79667 0.86104 0.13342 0.0
O239 O 0.80892 0.84436 0.14165 0.0
N240 N 0.78777 0.81293 0.11564 0.0
C241 C 0.79352 0.78598 0.14155 0.0
C242 C 0.80138 0.79549 0.1217 0.0
C243 C 0.77149 0.8131 0.13177 0.0
N244 N 0.77466 0.79711 0.14769 0.0
O245 O 0.7566 0.83389 0.09089 0.0
H246 H 0.81639 0.79007 0.11289 0.0
H247 H 0.75818 0.82567 0.1326 0.0
O248 O 0.78744 0.85903 0.11391 0.0
C249 C 0.74674 0.81713 0.08173 0.0
O250 O 0.75899 0.80075 0.07297 0.0
N251 N 0.8201 0.83492 0.09113 0.0
C252 C 0.86654 0.83421 0.08488 0.0
C253 C 0.85619 0.8534 0.09386 0.0
C254 C 0.83275 0.85372 0.09614 0.0
C255 C 0.82992 0.81671 0.08097 0.0
C256 C 0.85327 0.81583 0.07797 0.0
H257 H 0.82493 0.86946 0.10102 0.0
H258 H 0.81946 0.80288 0.07501 0.0
H259 H 0.77086 0.88315 0.08315 0.0
H260 H 0.79633 0.87506 0.01721 0.0
H261 H 0.80124 0.77222 0.15092 0.0
H262 H 0.86603 0.86826 0.09825 0.0
H263 H 0.8609 0.80106 0.07019 0.0
C264 C 0.68834 0.06738 0.01918 0.0
C265 C 0.70517 0.05175 0.0151 0.0
N266 N 0.70079 0.03312 0.02758 0.0
N267 N 0.67333 0.05844 0.0339 0.0
C268 C 0.68141 0.03767 0.03877 0.0
H269 H 0.68733 0.08428 0.01217 0.0
Co270 Co 0.64803 0.0721 0.0464 0.0
C271 C 0.61231 0.03724 0.04654 0.0
O272 O 0.59792 0.05277 0.03967 0.0
N273 N 0.62271 0.08603 0.05998 0.0
C274 C 0.59096 0.10405 0.06975 0.0
C275 C 0.60711 0.10134 0.05301 0.0
C276 C 0.61578 0.08013 0.081 0.0
N277 N 0.59676 0.09078 0.08734 0.0
O278 O 0.66137 0.06856 0.07551 0.0
H279 H 0.60675 0.10943 0.03661 0.0
H280 H 0.62374 0.06708 0.09113 0.0
O281 O 0.63309 0.04253 0.04966 0.0
C282 C 0.6754 0.08369 0.08166 0.0
O283 O 0.67974 0.1006 0.06781 0.0
N284 N 0.63676 0.07635 0.01692 0.0
C285 C 0.64291 0.08287 0.97055 0.0
C286 C 0.63663 0.0616 0.97906 0.0
C287 C 0.63401 0.05859 0.0023 0.0
C288 C 0.64042 0.09765 0.00872 0.0
C289 C 0.64329 0.10136 0.9855 0.0
H290 H 0.63316 0.04138 0.00833 0.0
H291 H 0.64401 0.11133 0.02037 0.0
H292 H 0.67331 0.02616 0.05052 0.0
H293 H 0.71985 0.05419 0.00439 0.0
H294 H 0.57599 0.11459 0.06892 0.0
H295 H 0.63671 0.04671 0.96834 0.0
H296 H 0.64806 0.11809 0.97965 0.0
C297 C 0.32389 0.54547 0.24345 0.0
C298 C 0.34516 0.55463 0.24002 0.0
N299 N 0.3606 0.54005 0.24841 0.0
N300 N 0.32608 0.52534 0.25407 0.0
C301 C 0.34856 0.52256 0.2568 0.0
H302 H 0.30788 0.55353 0.23968 0.0
Co303 Co 0.30414 0.50752 0.2678 0.0
C304 C 0.3186 0.46013 0.25694 0.0
O305 O 0.29753 0.45341 0.2544 0.0
N306 N 0.28226 0.48961 0.28286 0.0
C307 C 0.25133 0.47417 0.29808 0.0
C308 C 0.25938 0.49056 0.28357 0.0
C309 C 0.28756 0.4732 0.29799 0.0
N310 N 0.26915 0.46324 0.30709 0.0
O311 O 0.31864 0.51161 0.29605 0.0
H312 H 0.24885 0.50257 0.27477 0.0
H313 H 0.30477 0.4683 0.30191 0.0
O314 O 0.32285 0.48074 0.26212 0.0
C315 C 0.31406 0.53 0.30622 0.0
O316 O 0.30155 0.54521 0.29582 0.0
N317 N 0.28903 0.50463 0.23998 0.0
C318 C 0.25858 0.49529 0.20545 0.0
C319 C 0.28071 0.48664 0.20464 0.0
C320 C 0.29595 0.49199 0.22191 0.0
C321 C 0.26937 0.51654 0.2387 0.0
C322 C 0.25348 0.51161 0.22196 0.0
H323 H 0.31289 0.4852 0.22112 0.0
H324 H 0.26524 0.52859 0.25186 0.0
H325 H 0.35591 0.50887 0.26652 0.0
H326 H 0.34892 0.57106 0.23275 0.0
H327 H 0.23374 0.47083 0.30196 0.0
H328 H 0.28596 0.47525 0.19125 0.0
H329 H 0.23695 0.51946 0.22292 0.0
C330 C 0.83653 0.01095 0.52297 0.0
C331 C 0.81814 0.02472 0.51895 0.0
N332 N 0.82377 0.04601 0.52491 0.0
N333 N 0.85355 0.02356 0.53147 0.0
C334 C 0.84529 0.04484 0.5325 0.0
H335 H 0.83734 0.99282 0.52039 0.0
Co336 Co 0.88077 0.01212 0.54171 0.0
C337 C 0.91478 0.04761 0.5336 0.0
O338 O 0.92805 0.03154 0.52574 0.0
N339 N 0.90795 -3e-05 0.55329 0.0
C340 C 0.93683 0.97883 0.56548 0.0
C341 C 0.9183 0.97962 0.55121 0.0
C342 C 0.92005 0.01073 0.56947 0.0
N343 N 0.93788 -0.00139 0.5767 0.0
O344 O 0.87132 0.01766 0.57196 0.0
H345 H 0.91265 0.9658 0.54074 0.0
H346 H 0.91561 0.02718 0.57623 0.0
O347 O 0.8949 0.04255 0.54071 0.0
C348 C 0.86446 0.00101 0.58378 0.0
O349 O 0.86399 0.98073 0.57461 0.0
N350 N 0.88897 0.00633 0.51126 0.0
C351 C 0.89663 -0.00229 0.46542 0.0
C352 C 0.89413 0.01989 0.47328 0.0
C353 C 0.88951 0.02376 0.49598 0.0
C354 C 0.89003 0.9845 0.50372 0.0
C355 C 0.89415 0.97976 0.48082 0.0
H356 H 0.88547 0.04087 0.50095 0.0
H357 H 0.88639 0.97069 0.51514 0.0
H358 H 0.8545 0.05902 0.53957 0.0
H359 H 0.80184 0.01945 0.51243 0.0
H360 H 0.94858 0.96489 0.56741 0.0
H361 H 0.89429 0.03416 0.46169 0.0
H362 H 0.89465 0.96233 0.47509 0.0
C363 C 0.27751 0.52078 0.7874 0.0
C364 C 0.25671 0.51448 0.7788 0.0
N365 N 0.24131 0.52997 0.7854 0.0
N366 N 0.2751 0.54009 0.79935 0.0
C367 C 0.25289 0.54518 0.79789 0.0
H368 H 0.29323 0.51155 0.78566 0.0
Co369 Co 0.29648 0.55464 0.81716 0.0
C370 C 0.28802 0.60391 0.81009 0.0
O371 O 0.30962 0.60842 0.81293 0.0
N372 N 0.31791 0.56908 0.83621 0.0
C373 C 0.34811 0.58253 0.85461 0.0
C374 C 0.34084 0.56977 0.83648 0.0
C375 C 0.31186 0.58121 0.85468 0.0
N376 N 0.32978 0.58953 0.86607 0.0
O377 O 0.27786 0.54904 0.84274 0.0
H378 H 0.352 0.56164 0.82461 0.0
H379 H 0.29447 0.58453 0.85938 0.0
O380 O 0.28089 0.58353 0.81221 0.0
C381 C 0.28239 0.53235 0.85556 0.0
O382 O 0.30027 0.51987 0.85115 0.0
N383 N 0.31455 0.55897 0.79124 0.0
C384 C 0.34214 0.56396 0.75335 0.0
C385 C 0.32158 0.57558 0.75487 0.0
C386 C 0.30771 0.57227 0.77356 0.0
C387 C 0.33338 0.54579 0.78901 0.0
C388 C 0.34774 0.54831 0.77033 0.0
H389 H 0.29117 0.57993 0.77324 0.0
H390 H 0.33736 0.53338 0.80192 0.0
H391 H 0.24508 0.55908 0.8069 0.0
H392 H 0.25313 0.49955 0.76877 0.0
H393 H 0.36549 0.58619 0.85915 0.0
H394 H 0.31581 0.5865 0.74127 0.0
H395 H 0.36297 0.53816 0.76916 0.0
C396 C 0.18545 0.49597 0.05264 0.0
C397 C 0.1981 0.51459 0.05914 0.0
N398 N 0.19226 0.53211 0.04572 0.0
N399 N 0.17149 0.50205 0.03555 0.0
C400 C 0.17617 0.52408 0.03175 0.0
H401 H 0.18656 0.4791 0.05975 0.0
Co402 Co 0.15071 0.48571 0.01832 0.0
C403 C 0.1081 0.51087 0.02273 0.0
O404 O 0.09754 0.49145 0.0255 0.0
N405 N 0.12978 0.47013 -0.00023 0.0
C406 C 0.10343 0.44952 0.98204 0.0
C407 C 0.11793 0.45049 0.00051 0.0
C408 C 0.12233 0.48039 0.98073 0.0
N409 N 0.10658 0.46839 0.96961 0.0
O410 O 0.1646 0.49793 0.99188 0.0
H411 H 0.1189 0.438 0.01384 0.0
H412 H 0.12729 0.49733 0.97573 0.0
O413 O 0.12956 0.51117 0.01982 0.0
C414 C 0.1791 0.48486 0.98285 0.0
O415 O 0.1822 0.46461 0.99163 0.0
N416 N 0.13927 0.47276 0.04498 0.0
C417 C 0.14591 0.45684 0.08887 0.0
C418 C 0.13566 0.47796 0.08507 0.0
C419 C 0.13272 0.48574 0.063 0.0
C420 C 0.14644 0.45107 0.04831 0.0
C421 C 0.14937 0.44253 0.07019 0.0
H422 H 0.12873 0.50345 0.0609 0.0
H423 H 0.15288 0.44139 0.03416 0.0
H424 H 0.16802 0.53409 0.0187 0.0
H425 H 0.21105 0.51505 0.07211 0.0
H426 H 0.09134 0.43626 0.97829 0.0
H427 H 0.13298 0.48986 0.09876 0.0
H428 H 0.15694 0.42596 0.07229 0.0
C429 C 0.76826 0.0768 0.29293 0.0
C430 C 0.74703 0.08231 0.30102 0.0
N431 N 0.73199 0.06735 0.2925 0.0
N432 N 0.76651 0.05836 0.2796 0.0
C433 C 0.74438 0.05293 0.27985 0.0
H434 H 0.78371 0.08627 0.2956 0.0
Co435 Co 0.78764 0.0456 0.26029 0.0
C436 C 0.78383 0.99611 0.26805 0.0
O437 O 0.80597 0.99455 0.26639 0.0
N438 N 0.80836 0.03287 0.2395 0.0
C439 C 0.83679 0.02085 0.21772 0.0
C440 C 0.83075 0.03517 0.23515 0.0
C441 C 0.8012 0.01801 0.22363 0.0
N442 N 0.81806 0.01007 0.21057 0.0
O443 O 0.76739 0.05024 0.23564 0.0
H444 H 0.84232 0.04628 0.2438 0.0
H445 H 0.7839 0.01207 0.22252 0.0
O446 O 0.7742 0.01541 0.26556 0.0
C447 C 0.7643 0.06961 0.22677 0.0
O448 O 0.77489 0.08728 0.23522 0.0
N449 N 0.80752 0.04163 0.2851 0.0
C450 C 0.83904 0.03084 0.31828 0.0
C451 C 0.81696 0.02241 0.31957 0.0
C452 C 0.80122 0.02866 0.30324 0.0
C453 C 0.8277 0.05284 0.28564 0.0
C454 C 0.84409 0.04728 0.30187 0.0
H455 H 0.78412 0.02241 0.30487 0.0
H456 H 0.83129 0.06579 0.2732 0.0
H457 H 0.7374 0.03917 0.26998 0.0
H458 H 0.74286 0.09696 0.31121 0.0
H459 H 0.85367 0.01835 0.21106 0.0
H460 H 0.81193 0.01096 0.33302 0.0
H461 H 0.8606 0.05523 0.30123 0.0
C462 C 0.3034 0.53651 0.53215 0.0
C463 C 0.2886 0.51847 0.53369 0.0
N464 N 0.29975 0.49956 0.52748 0.0
N465 N 0.32365 0.5289 0.52491 0.0
C466 C 0.32086 0.50637 0.52213 0.0
H467 H 0.29949 0.55413 0.53536 0.0
Co468 Co 0.34853 0.54625 0.51668 0.0
C469 C 0.38729 0.51921 0.53259 0.0
O470 O 0.39609 0.53784 0.54108 0.0
N471 N 0.37306 0.56398 0.50659 0.0
C472 C 0.39222 0.59168 0.4893 0.0
C473 C 0.37312 0.58637 0.50167 0.0
C474 C 0.39163 0.556 0.49584 0.0
N475 N 0.40387 0.57243 0.48585 0.0
O476 O 0.34427 0.53741 0.4863 0.0
H477 H 0.35926 0.59784 0.505 0.0
H478 H 0.39513 0.5382 0.4934 0.0
O479 O 0.36856 0.52011 0.52169 0.0
C480 C 0.33051 0.54898 0.47451 0.0
O481 O 0.31917 0.56546 0.48426 0.0
N482 N 0.35233 0.55522 0.54738 0.0
C483 C 0.36236 0.56633 0.59214 0.0
C484 C 0.35773 0.54392 0.58607 0.0
C485 C 0.35227 0.5388 0.56378 0.0
C486 C 0.35467 0.57743 0.55345 0.0
C487 C 0.35997 0.58338 0.57578 0.0
H488 H 0.34895 0.5213 0.55958 0.0
H489 H 0.3525 0.59071 0.54118 0.0
H490 H 0.33368 0.49532 0.51516 0.0
H491 H 0.27095 0.51923 0.53858 0.0
H492 H 0.39662 0.60815 0.48251 0.0
H493 H 0.35829 0.53039 0.59849 0.0
H494 H 0.36249 0.60103 0.58012 0.0
C495 C 0.82234 0.00777 0.80911 0.0
C496 C 0.8445 0.00207 0.81408 0.0
N497 N 0.85801 0.01902 0.80684 0.0
N498 N 0.82207 0.02813 0.79875 0.0
C499 C 0.84397 0.0345 0.79767 0.0
H500 H 0.80758 0.99724 0.81171 0.0
Co501 Co 0.79858 0.04228 0.78352 0.0
C502 C 0.80445 0.09121 0.79447 0.0
O503 O 0.7824 0.09375 0.79617 0.0
N504 N 0.77524 0.05656 0.76681 0.0
C505 C 0.74392 0.0676 0.7487 0.0
C506 C 0.75291 0.05224 0.76386 0.0
C507 C 0.77943 0.07382 0.75234 0.0
N508 N 0.7607 0.08131 0.74177 0.0
O509 O 0.81516 0.03952 0.75608 0.0
H510 H 0.74349 0.03869 0.77166 0.0
H511 H 0.7961 0.0809 0.74957 0.0
O512 O 0.81281 0.07183 0.78951 0.0
C513 C 0.80971 0.02243 0.74417 0.0
O514 O 0.79431 0.0084 0.75207 0.0
N515 N 0.78184 0.04372 0.81066 0.0
C516 C 0.75112 0.05 0.84574 0.0
C517 C 0.77257 0.06019 0.84655 0.0
C518 C 0.78799 0.05629 0.82908 0.0
C519 C 0.76285 0.03068 0.81162 0.0
C520 C 0.74684 0.034 0.8287 0.0
H521 H 0.80449 0.06411 0.83003 0.0
H522 H 0.75963 0.01834 0.79849 0.0
H523 H 0.84971 0.04941 0.78863 0.0
H524 H 0.85026 0.98637 0.82162 0.0
H525 H 0.72639 0.06882 0.74349 0.0
H526 H 0.77719 0.07149 0.86025 0.0
H527 H 0.73093 0.02493 0.82791 0.0
C528 C 0.06786 0.75916 0.98592 0.0
C529 C 0.07534 0.77337 0.96898 0.0
N530 N 0.06876 0.76472 0.94887 0.0
N531 N 0.05649 0.74174 0.97654 0.0
C532 C 0.0575 0.74545 0.95401 0.0
H533 H 0.07043 0.76138 0.00393 0.0
Co534 Co 0.04317 0.71768 0.9918 0.0
C535 C 0.00143 0.71551 0.95996 0.0
O536 O 0.98522 0.72421 0.97246 0.0
N537 N 0.03021 0.69314 0.00721 0.0
C538 C 0.00734 0.66579 0.01956 0.0
C539 C 0.00833 0.68683 0.00942 0.0
C540 C 0.04199 0.67622 0.01701 0.0
N541 N 0.02864 0.65922 0.02426 0.0
O542 O 0.06228 0.69764 0.97561 0.0
H543 H 0.994 0.6964 0.00342 0.0
H544 H 0.06021 0.67551 0.01759 0.0
O545 O 0.0215 0.71372 0.96769 0.0
C546 C 0.08198 0.69471 0.98358 0.0
O547 O 0.08746 0.70466 0.00274 0.0
N548 N 0.0254 0.73787 0.00798 0.0
C549 C 0.00485 0.77065 0.03472 0.0
C550 C 0.00315 0.77155 0.01101 0.0
C551 C 0.01385 0.75516 -0.00208 0.0
C552 C 0.02787 0.7371 0.03092 0.0
C553 C 0.01754 0.75323 0.04468 0.0
H554 H 0.01343 0.75674 0.97969 0.0
H555 H 0.03832 0.72414 0.03859 0.0
H556 H 0.05057 0.7339 0.9416 0.0
H557 H 0.08476 0.78891 0.97137 0.0
H558 H 0.99227 0.65573 0.02239 0.0
H559 H 0.99344 0.78465 0.00259 0.0
H560 H 0.01965 0.75219 0.06288 0.0
C561 C 0.52609 0.77777 0.10627 0.0
C562 C 0.52822 0.76609 0.12646 0.0
N563 N 0.53386 0.78107 0.14272 0.0
N564 N 0.53054 0.79987 0.10996 0.0
C565 C 0.53527 0.8013 0.13225 0.0
H566 H 0.52249 0.77053 0.08983 0.0
Co567 Co 0.53415 0.82262 0.0886 0.0
C568 C 0.51473 0.86255 0.11113 0.0
O569 O 0.50381 0.86713 0.09224 0.0
N570 N 0.53965 0.84542 0.06673 0.0
C571 C 0.55111 0.86247 0.03494 0.0
C572 C 0.54242 0.84285 0.04412 0.0
C573 C 0.54839 0.86623 0.07091 0.0
N574 N 0.55493 0.87711 0.05193 0.0
O575 O 0.56532 0.8231 0.09508 0.0
H576 H 0.54038 0.82712 0.03501 0.0
H577 H 0.55116 0.8729 0.08772 0.0
O578 O 0.52829 0.84564 0.11192 0.0
C579 C 0.57679 0.80981 0.08266 0.0
O580 O 0.56614 0.79721 0.06771 0.0
N581 N 0.50282 0.82107 0.08189 0.0
C582 C 0.45658 0.82061 0.07215 0.0
C583 C 0.46419 0.82097 0.09463 0.0
C584 C 0.48731 0.82098 0.09913 0.0
C585 C 0.49567 0.81859 0.06009 0.0
C586 C 0.47271 0.81906 0.05477 0.0
H587 H 0.49273 0.82136 0.11661 0.0
H588 H 0.50753 0.81597 0.04662 0.0
H589 H 0.54109 0.81663 0.14045 0.0
H590 H 0.5264 0.74799 0.12888 0.0
H591 H 0.55576 0.86513 0.01739 0.0
H592 H 0.45244 0.82105 0.10871 0.0
H593 H 0.46779 0.81829 0.03712 0.0
C594 C 0.51843 0.27563 0.27307 0.0
C595 C 0.5277 0.26921 0.29358 0.0
N596 N 0.51531 0.27865 0.31024 0.0
N597 N 0.50039 0.28906 0.27693 0.0
C598 C 0.49902 0.29066 0.29968 0.0
H599 H 0.52467 0.2712 0.25642 0.0
Co600 Co 0.48302 0.30437 0.25571 0.0
C601 C 0.43646 0.30379 0.27338 0.0
O602 O 0.4293 0.29989 0.25265 0.0
N603 N 0.46588 0.32111 0.23428 0.0
C604 C 0.44704 0.33619 0.20516 0.0
C605 C 0.46155 0.31914 0.21184 0.0
C606 C 0.4546 0.3401 0.24038 0.0
N607 N 0.44269 0.34931 0.22326 0.0
O608 O 0.49434 0.33206 0.26736 0.0
H609 H 0.46812 0.3063 0.20071 0.0
H610 H 0.45415 0.34638 0.2576 0.0
O611 O 0.45766 0.30619 0.27719 0.0
C612 C 0.50891 0.34403 0.25702 0.0
O613 O 0.51671 0.33713 0.23735 0.0
N614 N 0.47247 0.27612 0.24472 0.0
C615 C 0.45645 0.23443 0.22921 0.0
C616 C 0.45294 0.24116 0.25165 0.0
C617 C 0.46165 0.26162 0.25921 0.0
C618 C 0.47818 0.26883 0.22355 0.0
C619 C 0.46989 0.2482 0.2152 0.0
H620 H 0.45988 0.26555 0.27698 0.0
H621 H 0.48956 0.27879 0.21324 0.0
H622 H 0.4869 0.30128 0.30838 0.0
H623 H 0.54245 0.2586 0.29604 0.0
H624 H 0.4401 0.3386 0.18835 0.0
H625 H 0.44423 0.23028 0.26361 0.0
H626 H 0.47415 0.24297 0.19814 0.0
C627 C 0.03491 0.29478 0.57374 0.0
C628 C 0.03757 0.30472 0.59477 0.0
N629 N 0.03113 0.28961 0.61065 0.0
N630 N 0.02703 0.2735 0.57656 0.0
C631 C 0.02526 0.2708 0.59914 0.0
H632 H 0.03706 0.30304 0.55752 0.0
Co633 Co 0.01499 0.25352 0.55563 0.0
C634 C 0.03764 0.20945 0.56681 0.0
O635 O 0.04003 0.20397 0.54536 0.0
N636 N 0.00173 0.2332 0.53479 0.0
C637 C 0.98436 0.21695 0.50546 0.0
C638 C -0.00289 0.23518 0.51242 0.0
C639 C 0.99092 0.21396 0.54103 0.0
N640 N 0.9804 0.20369 0.52357 0.0
O641 O 0.98893 0.25034 0.57347 0.0
H642 H 0.00155 0.24932 0.50175 0.0
H643 H 0.99054 0.20772 0.55827 0.0
O644 O 0.02861 0.22834 0.57231 0.0
C645 C 0.97283 0.26337 0.5679 0.0
O646 O 0.97709 0.28018 0.5539 0.0
N647 N 0.04013 0.25765 0.5371 0.0
C648 C 0.07046 0.25829 0.50161 0.0
C649 C 0.07642 0.24816 0.52227 0.0
C650 C 0.06115 0.24865 0.54022 0.0
C651 C 0.03578 0.27086 0.51867 0.0
C652 C 0.05059 0.27107 0.50033 0.0
H653 H 0.06593 0.24103 0.55612 0.0
H654 H 0.01987 0.27986 0.51755 0.0
H655 H 0.01829 0.25573 0.60693 0.0
H656 H 0.04206 0.32222 0.59799 0.0
H657 H 0.97781 0.21414 0.48856 0.0
H658 H 0.09243 0.23944 0.52429 0.0
H659 H 0.04595 0.27997 0.48496 0.0
C660 C 0.11697 0.80053 0.75292 0.0
C661 C 0.10498 0.80769 0.77175 0.0
N662 N 0.11352 0.79703 0.79008 0.0
N663 N 0.1328 0.78544 0.75956 0.0
C664 C 0.13006 0.78357 0.78213 0.0
H665 H 0.11419 0.80576 0.73557 0.0
Co666 Co 0.15345 0.76844 0.74313 0.0
C667 C 0.1955 0.77053 0.77009 0.0
O668 O 0.20713 0.77372 0.75137 0.0
N669 N 0.17438 0.75007 0.72731 0.0
C670 C 0.20165 0.73338 0.70709 0.0
C671 C 0.18697 0.75164 0.70819 0.0
C672 C 0.18147 0.73059 0.73702 0.0
N673 N 0.1979 0.72017 0.72531 0.0
O674 O 0.1386 0.74181 0.75384 0.0
H675 H 0.18656 0.7655 0.69627 0.0
H676 H 0.17594 0.72496 0.75358 0.0
O677 O 0.174 0.76814 0.76916 0.0
C678 C 0.12434 0.73333 0.74011 0.0
O679 O 0.12161 0.74299 0.72022 0.0
N680 N 0.16604 0.79541 0.73188 0.0
C681 C 0.17183 0.83931 0.71514 0.0
C682 C 0.17714 0.8341 0.7377 0.0
C683 C 0.17369 0.81222 0.74585 0.0
C684 C 0.16118 0.80004 0.70979 0.0
C685 C 0.16438 0.82177 0.70092 0.0
H686 H 0.17518 0.80954 0.76387 0.0
H687 H 0.15331 0.78719 0.69936 0.0
H688 H 0.13945 0.77177 0.79254 0.0
H689 H 0.09113 0.81968 0.77196 0.0
H690 H 0.21446 0.73043 0.69433 0.0
H691 H 0.18191 0.84723 0.7496 0.0
H692 H 0.15974 0.82509 0.68347 0.0
C693 C 0.54144 0.29294 0.5142 0.0
C694 C 0.54584 0.28347 0.49324 0.0
N695 N 0.53801 0.29767 0.4771 0.0
N696 N 0.53108 0.31306 0.51117 0.0
C697 C 0.52953 0.31553 0.48853 0.0
H698 H 0.54421 0.28501 0.5305 0.0
Co699 Co 0.51572 0.33137 0.53162 0.0
C700 C 0.53021 0.37825 0.519 0.0
O701 O 0.53057 0.38474 0.5403 0.0
N702 N 0.49914 0.34984 0.5517 0.0
C703 C 0.48075 0.36641 0.58021 0.0
C704 C 0.49632 0.35003 0.57447 0.0
C705 C 0.48459 0.3658 0.54415 0.0
N706 N 0.47336 0.37621 0.56101 0.0
O707 O 0.48944 0.32861 0.51383 0.0
H708 H 0.50441 0.33888 0.58644 0.0
H709 H 0.48256 0.36999 0.52641 0.0
O710 O 0.52479 0.35789 0.514 0.0
C711 C 0.47798 0.31077 0.51732 0.0
O712 O 0.48587 0.29543 0.53142 0.0
N713 N 0.54134 0.33269 0.54988 0.0
C714 C 0.5759 0.33294 0.58179 0.0
C715 C 0.57849 0.34429 0.56102 0.0
C716 C 0.56112 0.34359 0.54504 0.0
C717 C 0.5395 0.31973 0.56886 0.0
C718 C 0.55623 0.32016 0.58542 0.0
H719 H 0.56386 0.35146 0.52878 0.0
H720 H 0.52458 0.3094 0.57136 0.0
H721 H 0.52099 0.32969 0.48066 0.0
H722 H 0.55276 0.26676 0.49023 0.0
H723 H 0.47503 0.37047 0.59715 0.0
H724 H 0.59404 0.35308 0.55684 0.0
H725 H 0.55373 0.31057 0.60087 0.0
C726 C 0.98826 0.29566 0.80991 0.0
C727 C 0.00079 0.30482 0.79241 0.0
N728 N 0.99007 0.30011 0.77283 0.0
N729 N 0.96994 0.28514 0.80125 0.0
C730 C 0.97159 0.28807 0.77867 0.0
H731 H 0.99243 0.29619 0.82775 0.0
Co732 Co 0.9487 0.26851 0.81722 0.0
C733 C 0.90738 0.26882 0.78891 0.0
O734 O 0.89531 0.27321 0.8071 0.0
N735 N 0.92778 0.25069 0.83351 0.0
C736 C 0.90538 0.23292 0.85827 0.0
C737 C 0.92024 0.25074 0.85517 0.0
C738 C 0.91781 0.2323 0.82421 0.0
N739 N 0.90378 0.2216 0.83858 0.0
O740 O 0.96311 0.2416 0.80736 0.0
H741 H 0.92513 0.26263 0.86812 0.0
H742 H 0.92072 0.22679 0.80696 0.0
O743 O 0.92889 0.26685 0.79051 0.0
C744 C 0.97707 0.23111 0.81993 0.0
O745 O 0.98114 0.23878 0.84042 0.0
N746 N 0.93557 0.29598 0.8269 0.0
C747 C 0.92491 0.34012 0.84034 0.0
C748 C 0.92163 0.33312 0.81793 0.0
C749 C 0.92763 0.31133 0.81146 0.0
C750 C 0.93923 0.30254 0.84875 0.0
C751 C 0.93363 0.32443 0.85597 0.0
H752 H 0.92745 0.30762 0.79359 0.0
H753 H 0.94805 0.29137 0.86026 0.0
H754 H 0.95998 0.28076 0.76653 0.0
H755 H 0.01659 0.31401 0.79391 0.0
H756 H 0.89614 0.22888 0.8736 0.0
H757 H 0.91631 0.34495 0.80493 0.0
H758 H 0.93722 0.32936 0.87327 0.0
C759 C 0.61564 0.78715 0.32909 0.0
C760 C 0.59976 0.77762 0.31488 0.0
N761 N 0.60633 0.78135 0.29334 0.0
N762 N 0.63202 0.79685 0.31648 0.0
C763 C 0.62588 0.79308 0.2948 0.0
H764 H 0.61499 0.78758 0.3474 0.0
Co765 Co 0.65574 0.81421 0.32727 0.0
C766 C 0.69376 0.80605 0.29642 0.0
O767 O 0.70671 0.80355 0.31437 0.0
N768 N 0.67943 0.83279 0.33806 0.0
C769 C 0.70618 0.85224 0.35633 0.0
C770 C 0.69161 0.83394 0.35744 0.0
C771 C 0.68688 0.85058 0.3257 0.0
N772 N 0.70294 0.86273 0.33633 0.0
O773 O 0.64121 0.8404 0.31532 0.0
H774 H 0.69009 0.82261 0.3717 0.0
H775 H 0.68076 0.8544 0.30884 0.0
O776 O 0.67261 0.81016 0.29882 0.0
C777 C 0.63005 0.85118 0.33024 0.0
O778 O 0.63014 0.84356 0.35118 0.0
N779 N 0.66808 0.78791 0.34026 0.0
C780 C 0.67238 0.74583 0.36143 0.0
C781 C 0.67615 0.74812 0.3381 0.0
C782 C 0.67328 0.76912 0.32776 0.0
C783 C 0.66482 0.78607 0.36306 0.0
C784 C 0.66721 0.76524 0.37407 0.0
H785 H 0.6731 0.76959 0.30949 0.0
H786 H 0.65838 0.8004 0.37246 0.0
H787 H 0.63491 0.79981 0.28034 0.0
H788 H 0.5844 0.76901 0.31998 0.0
H789 H 0.71783 0.85765 0.36941 0.0
H790 H 0.67901 0.73341 0.32751 0.0
H791 H 0.6635 0.76406 0.39201 0.0
H792 H 0.12141 0.97291 0.67793 0.0
H793 H 0.14438 0.97321 0.74743 0.0
H794 H 0.14044 0.93671 0.67181 0.0
H795 H 0.16335 0.93712 0.74135 0.0
H796 H 0.20077 0.87435 0.72521 0.0
H797 H 0.19264 0.91482 0.72171 0.0
H798 H 0.13067 0.8991 0.68617 0.0
H799 H 0.13855 0.859 0.68984 0.0
C800 C 0.13075 0.96536 0.69181 0.0
C801 C 0.13113 0.97572 0.71326 0.0
C802 C 0.14169 0.9447 0.68828 0.0
C803 C 0.15324 0.93398 0.70613 0.0
C804 C 0.15484 0.94507 0.72716 0.0
C805 C 0.1439 0.96574 0.73068 0.0
C806 C 0.18565 0.8796 0.71624 0.0
C807 C 0.17018 0.86342 0.70807 0.0
C808 C 0.18101 0.90275 0.71426 0.0
C809 C 0.16088 0.91013 0.70394 0.0
C810 C 0.14644 0.89401 0.69403 0.0
C811 C 0.15102 0.87092 0.69609 0.0
H812 H 0.43458 0.79857 0.03781 0.0
H813 H 0.42269 0.84323 0.09479 0.0
H814 H 0.39442 0.79872 0.02942 0.0
H815 H 0.38198 0.84188 0.087 0.0
H816 H 0.31782 0.78533 0.07219 0.0
H817 H 0.35434 0.80055 0.08466 0.0
H818 H 0.36258 0.8338 0.02006 0.0
H819 H 0.32624 0.8188 0.00755 0.0
C820 C 0.42357 0.80871 0.04836 0.0
C821 C 0.43202 0.821 0.06692 0.0
C822 C 0.40054 0.80868 0.04357 0.0
C823 C 0.3854 0.82052 0.05747 0.0
C824 C 0.39354 0.83277 0.07605 0.0
C825 C 0.41676 0.83327 0.08058 0.0
C826 C 0.32707 0.7966 0.06102 0.0
C827 C 0.31945 0.80064 0.03883 0.0
C828 C 0.34779 0.80541 0.0682 0.0
C829 C 0.36108 0.81811 0.05316 0.0
C830 C 0.35243 0.82407 0.03187 0.0
C831 C 0.33164 0.81552 0.02479 0.0
H832 H 0.41499 0.21546 0.23691 0.0
H833 H 0.47987 0.20207 0.20602 0.0
H834 H 0.40608 0.17505 0.23586 0.0
H835 H 0.47098 0.16194 0.20478 0.0
H836 H 0.43512 0.10967 0.2751 0.0
H837 H 0.42466 0.14705 0.26097 0.0
H838 H 0.4484 0.12861 0.19421 0.0
H839 H 0.45917 0.09133 0.20864 0.0
C840 C 0.42703 0.20395 0.22923 0.0
C841 C 0.44836 0.21179 0.22205 0.0
C842 C 0.4219 0.18086 0.2286 0.0
C843 C 0.43795 0.16528 0.22062 0.0
C844 C 0.45814 0.17349 0.21092 0.0
C845 C 0.4633 0.19656 0.21164 0.0
C846 C 0.43698 0.11326 0.25719 0.0
C847 C 0.44816 0.09794 0.24298 0.0
C848 C 0.431 0.13467 0.24901 0.0
C849 C 0.43621 0.14092 0.22655 0.0
C850 C 0.44457 0.12438 0.21166 0.0
C851 C 0.45059 0.10305 0.21986 0.0
H852 H 0.08564 0.21833 0.48508 0.0
H853 H 0.08682 0.29044 0.47269 0.0
H854 H 0.11457 0.21281 0.45608 0.0
H855 H 0.11607 0.28506 0.44403 0.0
H856 H 0.19238 0.23258 0.45666 0.0
H857 H 0.15342 0.22562 0.46492 0.0
H858 H 0.13331 0.26779 0.40855 0.0
H859 H 0.17311 0.27387 0.39904 0.0
C860 C 0.09186 0.23292 0.47581 0.0
C861 C 0.08472 0.25487 0.48149 0.0
C862 C 0.10815 0.22975 0.45909 0.0
C863 C 0.11777 0.24852 0.44809 0.0
C864 C 0.10884 0.27025 0.45211 0.0
C865 C 0.09234 0.2734 0.46871 0.0
C866 C 0.18 0.23949 0.44505 0.0
C867 C 0.18614 0.25436 0.42745 0.0
C868 C 0.15739 0.23544 0.44991 0.0
C869 C 0.14033 0.24648 0.4376 0.0
C870 C 0.14623 0.25934 0.41848 0.0
C871 C 0.16901 0.26301 0.41325 0.0
H872 H 0.63766 0.61369 0.33641 0.0
H873 H 0.60936 0.61942 0.40365 0.0
H874 H 0.65855 0.64863 0.34211 0.0
H875 H 0.63053 0.65454 0.40951 0.0
H876 H 0.63774 0.73117 0.38798 0.0
H877 H 0.62635 0.69215 0.394 0.0
H878 H 0.68793 0.66911 0.36192 0.0
H879 H 0.69921 0.70845 0.35559 0.0
C880 C 0.63634 0.62214 0.35264 0.0
C881 C 0.62172 0.61392 0.36951 0.0
C882 C 0.64844 0.64215 0.35599 0.0
C883 C 0.64624 0.6544 0.3763 0.0
C884 C 0.6324 0.64562 0.39359 0.0
C885 C 0.62022 0.6256 0.3902 0.0
C886 C 0.64932 0.71783 0.38304 0.0
C887 C 0.66923 0.72285 0.37103 0.0
C888 C 0.64275 0.69537 0.38647 0.0
C889 C 0.65601 0.67751 0.378 0.0
C890 C 0.6771 0.68254 0.36815 0.0
C891 C 0.68362 0.70502 0.36463 0.0
H892 H 0.5903 0.29704 0.6071 0.0
H893 H 0.60403 0.36785 0.594 0.0
H894 H 0.62558 0.29381 0.62734 0.0
H895 H 0.64002 0.36441 0.61413 0.0
H896 H 0.69078 0.2837 0.65339 0.0
H897 H 0.65436 0.3031 0.65605 0.0
H898 H 0.6715 0.34297 0.59702 0.0
H899 H 0.70742 0.32369 0.59428 0.0
C900 C 0.60041 0.31219 0.60929 0.0
C901 C 0.59465 0.33255 0.59841 0.0
C902 C 0.6207 0.31037 0.62109 0.0
C903 C 0.63574 0.3288 0.62204 0.0
C904 C 0.62884 0.34987 0.61338 0.0
C905 C 0.6084 0.35174 0.60165 0.0
C906 C 0.68694 0.29708 0.6414 0.0
C907 C 0.70156 0.30168 0.6232 0.0
C908 C 0.66624 0.30831 0.64307 0.0
C909 C 0.6599 0.32416 0.62646 0.0
C910 C 0.67587 0.3309 0.61015 0.0
C911 C 0.69651 0.31969 0.60848 0.0
H912 H 0.95451 0.36566 0.86495 0.0
H913 H 0.89218 0.3702 0.82688 0.0
H914 H 0.95837 0.40652 0.86353 0.0
H915 H 0.89633 0.41137 0.82511 0.0
H916 H 0.96274 0.48049 0.85945 0.0
H917 H 0.94465 0.44527 0.87143 0.0
H918 H 0.92536 0.43187 0.8021 0.0
H919 H 0.94347 0.46706 0.79014 0.0
C920 C 0.9411 0.37542 0.85711 0.0
C921 C 0.92326 0.36464 0.84566 0.0
C922 C 0.94336 0.39893 0.85623 0.0
C923 C 0.92786 0.4121 0.84381 0.0
C924 C 0.90873 0.40157 0.83443 0.0
C925 C 0.90637 0.37803 0.83548 0.0
C926 C 0.95429 0.47016 0.84684 0.0
C927 C 0.9549 0.47622 0.82379 0.0
C928 C 0.94388 0.45009 0.85372 0.0
C929 C 0.93383 0.43571 0.83769 0.0
C930 C 0.93279 0.44271 0.8149 0.0
C931 C 0.94323 0.46282 0.808 0.0
H932 H -0.00095 0.8162 0.02775 0.0
H933 H 0.98142 0.76166 0.07345 0.0
H934 H 0.96984 0.8399 0.04492 0.0
H935 H 0.9528 0.78543 0.09078 0.0
H936 H 0.88859 0.83744 0.04513 0.0
H937 H 0.92856 0.82977 0.03834 0.0
H938 H 0.93923 0.82134 0.11034 0.0
H939 H 0.89896 0.82931 0.11701 0.0
C940 C 0.98937 0.80949 0.04183 0.0
C941 C 0.992 0.78686 0.04881 0.0
C942 C 0.97286 0.82312 0.05176 0.0
C943 C 0.95892 0.81433 0.0689 0.0
C944 C 0.96343 0.79268 0.07769 0.0
C945 C 0.9798 0.77901 0.06767 0.0
C946 C 0.89971 0.8346 0.05946 0.0
C947 C 0.89103 0.83366 0.08148 0.0
C948 C 0.92257 0.83047 0.05567 0.0
C949 C 0.93694 0.82499 0.07386 0.0
C950 C 0.92846 0.82557 0.0961 0.0
C951 C 0.90556 0.83003 0.0999 0.0
H952 H 0.68156 0.10569 0.95994 0.0
H953 H 0.63064 0.06193 0.93074 0.0
H954 H 0.70551 0.09983 0.9272 0.0
H955 H 0.65495 0.05588 0.89778 0.0
H956 H 0.74114 0.09267 0.86025 0.0
H957 H 0.7117 0.10429 0.88671 0.0
H958 H 0.69063 0.03452 0.89385 0.0
H959 H 0.72008 0.02289 0.86734 0.0
C960 C 0.67503 0.09553 0.94614 0.0
C961 C 0.65417 0.08418 0.94807 0.0
C962 C 0.68891 0.09203 0.92735 0.0
C963 C 0.6823 0.07708 0.91006 0.0
C964 C 0.66069 0.06713 0.91109 0.0
C965 C 0.64673 0.0707 0.92988 0.0
C966 C 0.73032 0.07978 0.86759 0.0
C967 C 0.73313 0.05681 0.86192 0.0
C968 C 0.71336 0.08647 0.88262 0.0
C969 C 0.6988 0.07035 0.89234 0.0
C970 C 0.70131 0.04742 0.88633 0.0
C971 C 0.71828 0.04072 0.87126 0.0
H972 H 0.13344 0.46865 0.13236 0.0
H973 H 0.1877 0.43761 0.09415 0.0
H974 H 0.1596 0.475 0.16381 0.0
H975 H 0.21314 0.44313 0.1257 0.0
H976 H 0.25277 0.45157 0.19123 0.0
H977 H 0.2228 0.43645 0.16714 0.0
H978 H 0.19307 0.50309 0.1623 0.0
H979 H 0.22333 0.51847 0.18574 0.0
C980 C 0.15065 0.46251 0.13088 0.0
C981 C 0.15848 0.45309 0.11043 0.0
C982 C 0.1656 0.46618 0.14888 0.0
C983 C 0.18846 0.45998 0.14692 0.0
C984 C 0.19559 0.44807 0.12766 0.0
C985 C 0.1808 0.44474 0.10956 0.0
C986 C 0.24003 0.4631 0.18481 0.0
C987 C 0.24063 0.48632 0.19026 0.0
C988 C 0.22272 0.45433 0.17128 0.0
C989 C 0.20549 0.46853 0.16316 0.0
C990 C 0.20587 0.49165 0.16881 0.0
C991 C 0.22329 0.50048 0.18213 0.0
H992 H 0.86962 0.97073 0.43978 0.0
H993 H 0.9257 0.01741 0.43544 0.0
H994 H 0.86285 0.97504 0.39944 0.0
H995 H 0.91929 0.02149 0.39475 0.0
H996 H 0.84947 0.98716 0.32804 0.0
H997 H 0.87192 0.97331 0.3599 0.0
H998 H 0.88867 0.04242 0.37759 0.0
H999 H 0.86672 0.05606 0.34537 0.0
C1000 C 0.8812 0.98105 0.42995 0.0
C1001 C 0.89792 0.99402 0.44071 0.0
C1002 C 0.87733 0.98358 0.40676 0.0
C1003 C 0.89022 -0.00094 0.39395 0.0
C1004 C 0.90873 0.00988 0.40427 0.0
C1005 C 0.91251 0.00742 0.42749 0.0
C1006 C 0.85844 -0.00072 0.3385 0.0
C1007 C 0.85612 0.02266 0.33461 0.0
C1008 C 0.87126 0.99138 0.35671 0.0
C1009 C 0.8818 0.00673 0.37151 0.0
C1010 C 0.88097 0.03007 0.36643 0.0
C1011 C 0.8683 0.03796 0.34806 0.0
H1012 H 0.34394 0.59844 0.61964 0.0
H1013 H 0.39431 0.5455 0.61796 0.0
H1014 H 0.34792 0.60091 0.66061 0.0
H1015 H 0.3987 0.54818 0.65902 0.0
H1016 H 0.3556 0.60342 0.73363 0.0
H1017 H 0.3693 0.6081 0.69487 0.0
H1018 H 0.3724 0.53526 0.68762 0.0
H1019 H 0.35915 0.53072 0.72636 0.0
C1020 C 0.35644 0.58791 0.62799 0.0
C1021 C 0.36849 0.5715 0.61582 0.0
C1022 C 0.35883 0.58936 0.65147 0.0
C1023 C 0.37342 0.57448 0.66311 0.0
C1024 C 0.38702 0.55955 0.65058 0.0
C1025 C 0.38452 0.55802 0.62713 0.0
C1026 C 0.3599 0.58848 0.72388 0.0
C1027 C 0.356 0.56671 0.73274 0.0
C1028 C 0.36766 0.59115 0.70173 0.0
C1029 C 0.3715 0.57208 0.68804 0.0
C1030 C 0.36976 0.55033 0.69773 0.0
C1031 C 0.36211 0.54768 0.71994 0.0
H1032 H 0.02215 0.2043 0.60987 0.0
H1033 H 0.07409 0.18138 0.56394 0.0
H1034 H 0.03701 0.17956 0.6393 0.0
H1035 H 0.09022 0.15787 0.59375 0.0
H1036 H 0.10045 0.10033 0.64411 0.0
H1037 H 0.08652 0.12538 0.61434 0.0
H1038 H 0.06464 0.17323 0.66548 0.0
H1039 H 0.07709 0.14698 0.69496 0.0
C1040 C 0.03697 0.19411 0.60622 0.0
C1041 C 0.04689 0.1946 0.58464 0.0
C1042 C 0.0457 0.18006 0.62317 0.0
C1043 C 0.06501 0.1666 0.61915 0.0
C1044 C 0.07508 0.16747 0.59751 0.0
C1045 C 0.06593 0.18107 0.58039 0.0
C1046 C 0.09286 0.11637 0.64876 0.0
C1047 C 0.0899 0.12196 0.67163 0.0
C1048 C 0.08492 0.13084 0.63176 0.0
C1049 C 0.0743 0.15152 0.63729 0.0
C1050 C 0.07213 0.15731 0.66038 0.0
C1051 C 0.07952 0.14249 0.67734 0.0
H1052 H 0.22808 0.79431 0.91155 0.0
H1053 H 0.28858 0.76446 0.88363 0.0
H1054 H 0.21114 0.79541 0.87384 0.0
H1055 H 0.2716 0.76501 0.846 0.0
H1056 H 0.23943 0.78233 0.77823 0.0
H1057 H 0.25792 0.7871 0.81478 0.0
H1058 H 0.19606 0.76737 0.8486 0.0
H1059 H 0.17739 0.76326 0.81208 0.0
C1060 C 0.23783 0.78826 0.89724 0.0
C1061 C 0.25956 0.77922 0.90047 0.0
C1062 C 0.2281 0.7887 0.8757 0.0
C1063 C 0.23985 0.77992 0.85696 0.0
C1064 C 0.26212 0.77206 0.86002 0.0
C1065 C 0.27191 0.7718 0.88157 0.0
C1066 C 0.22977 0.77898 0.79347 0.0
C1067 C 0.20693 0.77241 0.79226 0.0
C1068 C 0.2404 0.78168 0.81442 0.0
C1069 C 0.22846 0.77774 0.83463 0.0
C1070 C 0.20564 0.771 0.83338 0.0
C1071 C 0.19498 0.76843 0.81243 0.0
H1072 H 0.48429 0.89685 0.11544 0.0
H1073 H 0.53431 0.85886 0.15314 0.0
H1074 H 0.47614 0.91938 0.14887 0.0
H1075 H 0.52589 0.88143 0.18683 0.0
H1076 H 0.52525 0.94921 0.22796 0.0
H1077 H 0.53164 0.92135 0.19825 0.0
H1078 H 0.45949 0.91649 0.18727 0.0
H1079 H 0.45318 0.94497 0.21682 0.0
C1080 C 0.49352 0.89324 0.13089 0.0
C1081 C 0.51008 0.87616 0.13158 0.0
C1082 C 0.48865 0.90601 0.15013 0.0
C1083 C 0.50027 0.90207 0.1705 0.0
C1084 C 0.51674 0.88489 0.1713 0.0
C1085 C 0.52156 0.872 0.15203 0.0
C1086 C 0.51075 0.94215 0.21923 0.0
C1087 C 0.48872 0.94953 0.22433 0.0
C1088 C 0.5144 0.92599 0.20242 0.0
C1089 C 0.49609 0.9169 0.19031 0.0
C1090 C 0.47395 0.92346 0.19616 0.0
C1091 C 0.4703 0.93957 0.21313 0.0
H1092 H 0.32936 0.24869 0.35404 0.0
H1093 H 0.35767 0.29925 0.39873 0.0
H1094 H 0.35798 0.25774 0.32571 0.0
H1095 H 0.38592 0.3088 0.37007 0.0
H1096 H 0.44584 0.30181 0.3189 0.0
H1097 H 0.41935 0.29288 0.34944 0.0
H1098 H 0.36444 0.29117 0.30111 0.0
H1099 H 0.39074 0.29984 0.27068 0.0
C1100 C 0.34185 0.26155 0.3579 0.0
C1101 C 0.34115 0.2734 0.37849 0.0
C1102 C 0.35806 0.26692 0.3416 0.0
C1103 C 0.37394 0.28421 0.34559 0.0
C1104 C 0.37387 0.29543 0.36655 0.0
C1105 C 0.35758 0.2901 0.38284 0.0
C1106 C 0.42808 0.2998 0.31486 0.0
C1107 C 0.42041 0.30132 0.29235 0.0
C1108 C 0.41294 0.29467 0.33233 0.0
C1109 C 0.38994 0.29096 0.32754 0.0
C1110 C 0.38218 0.29342 0.3052 0.0
C1111 C 0.39724 0.29856 0.2878 0.0
H1112 H 0.53409 0.36948 0.47368 0.0
H1113 H 0.54467 0.42208 0.52351 0.0
H1114 H 0.5485 0.39448 0.44421 0.0
H1115 H 0.55869 0.44727 0.49387 0.0
H1116 H 0.60347 0.47847 0.43912 0.0
H1117 H 0.591 0.45189 0.46831 0.0
H1118 H 0.53753 0.4286 0.4241 0.0
H1119 H 0.5505 0.4545 0.39474 0.0
C1120 C 0.53936 0.38641 0.47835 0.0
C1121 C 0.53821 0.39377 0.50098 0.0
C1122 C 0.54756 0.40078 0.46142 0.0
C1123 C 0.55478 0.42286 0.46669 0.0
C1124 C 0.55357 0.43024 0.4893 0.0
C1125 C 0.54536 0.41586 0.50626 0.0
C1126 C 0.5893 0.46742 0.43553 0.0
C1127 C 0.57792 0.46868 0.41465 0.0
C1128 C 0.58197 0.45239 0.45234 0.0
C1129 C 0.56317 0.43824 0.44859 0.0
C1130 C 0.55216 0.43915 0.4275 0.0
C1131 C 0.55945 0.45417 0.41074 0.0
H1132 H 0.86255 0.27424 0.77988 0.0
H1133 H 0.9266 0.25981 0.74756 0.0
H1134 H 0.84365 0.27213 0.74342 0.0
H1135 H 0.90746 0.2572 0.71094 0.0
H1136 H 0.86709 0.27957 0.6472 0.0
H1137 H 0.88771 0.28089 0.68303 0.0
H1138 H 0.83342 0.24417 0.7156 0.0
H1139 H 0.81243 0.24381 0.6803 0.0
C1140 C 0.8726 0.27049 0.765 0.0
C1141 C 0.89608 0.26718 0.76664 0.0
C1142 C 0.86172 0.26914 0.74409 0.0
C1143 C 0.87402 0.26435 0.72429 0.0
C1144 C 0.89755 0.26111 0.72587 0.0
C1145 C 0.90848 0.26249 0.74685 0.0
C1146 C 0.85951 0.27191 0.66203 0.0
C1147 C 0.83803 0.26167 0.66083 0.0
C1148 C 0.87145 0.27243 0.6825 0.0
C1149 C 0.86214 0.26276 0.70219 0.0
C1150 C 0.84092 0.25209 0.70083 0.0
C1151 C 0.829 0.25163 0.68047 0.0
H1152 H 0.95985 0.70936 0.93989 0.0
H1153 H 0.03131 0.6967 0.93043 0.0
H1154 H 0.95158 0.68715 0.90588 0.0
H1155 H 0.02309 0.67423 0.89728 0.0
H1156 H 0.94867 0.61706 0.86807 0.0
H1157 H 0.95242 0.6475 0.89589 0.0
H1158 H 0.01033 0.6735 0.85933 0.0
H1159 H 0.00692 0.64255 0.83218 0.0
C1160 C 0.97378 0.70211 0.93044 0.0
C1161 C 0.99621 0.70466 0.93799 0.0
C1162 C 0.96904 0.68927 0.91106 0.0
C1163 C 0.98665 0.67881 0.89887 0.0
C1164 C 0.0091 0.68228 0.90595 0.0
C1165 C 0.01381 0.69508 0.92518 0.0
C1166 C 0.9619 0.62958 0.86585 0.0
C1167 C 0.97775 0.62733 0.84831 0.0
C1168 C 0.96402 0.64708 0.88169 0.0
C1169 C 0.9819 0.66278 0.88004 0.0
C1170 C 0.99672 0.66138 0.86145 0.0
C1171 C 0.99479 0.64372 0.84588 0.0
H1172 H 0.79149 0.78996 0.18947 0.0
H1173 H 0.72941 0.79985 0.15245 0.0
H1174 H 0.77068 0.79072 0.22501 0.0
H1175 H 0.70805 0.79935 0.18788 0.0
H1176 H 0.6813 0.82537 0.25619 0.0
H1177 H 0.70015 0.82127 0.2196 0.0
H1178 H 0.74621 0.77248 0.24922 0.0
H1179 H 0.72828 0.77787 0.28583 0.0
C1180 C 0.77325 0.79168 0.18901 0.0
C1181 C 0.76201 0.79483 0.16834 0.0
C1182 C 0.76122 0.79206 0.20936 0.0
C1183 C 0.73755 0.79512 0.20949 0.0
C1184 C 0.72626 0.79745 0.1886 0.0
C1185 C 0.73841 0.79754 0.16827 0.0
C1186 C 0.69541 0.81375 0.25472 0.0
C1187 C 0.70357 0.80219 0.27381 0.0
C1188 C 0.70617 0.81123 0.23373 0.0
C1189 C 0.72497 0.79669 0.23136 0.0
C1190 C 0.7323 0.78436 0.25041 0.0
C1191 C 0.72191 0.78731 0.27142 0.0
H1192 H 0.552 0.08293 0.09142 0.0
H1193 H 0.61422 0.08751 0.12918 0.0
H1194 H 0.53248 0.06911 0.12516 0.0
H1195 H 0.59474 0.07497 0.16341 0.0
H1196 H 0.49872 0.06022 0.19272 0.0
H1197 H 0.5181 0.07713 0.1607 0.0
H1198 H 0.57972 0.04253 0.18008 0.0
H1199 H 0.56037 0.02665 0.21308 0.0
C1200 C 0.56127 0.0816 0.1072 0.0
C1201 C 0.5845 0.08627 0.10784 0.0
C1202 C 0.55017 0.07368 0.12659 0.0
C1203 C 0.56203 0.0707 0.14715 0.0
C1204 C 0.58513 0.07644 0.14786 0.0
C1205 C 0.59626 0.08391 0.12837 0.0
C1206 C 0.51641 0.05617 0.1901 0.0
C1207 C 0.52801 0.04191 0.20523 0.0
C1208 C 0.52754 0.06582 0.17163 0.0
C1209 C 0.55049 0.06112 0.16751 0.0
C1210 C 0.56214 0.04688 0.18282 0.0
C1211 C 0.55106 0.03758 0.20164 0.0
H1212 H 0.30092 0.45147 0.33808 0.0
H1213 H 0.23667 0.43102 0.30976 0.0
H1214 H 0.30187 0.41692 0.36085 0.0
H1215 H 0.23731 0.39681 0.33297 0.0
H1216 H 0.26193 0.32602 0.35393 0.0
H1217 H 0.26001 0.36165 0.33317 0.0
H1218 H 0.28228 0.39774 0.3928 0.0
H1219 H 0.28448 0.36202 0.4136 0.0
C1220 C 0.28696 0.43966 0.3368 0.0
C1221 C 0.2688 0.44389 0.32199 0.0
C1222 C 0.28739 0.41999 0.35001 0.0
C1223 C 0.26973 0.4041 0.34857 0.0
C1224 C 0.2513 0.40862 0.33421 0.0
C1225 C 0.25081 0.42833 0.32111 0.0
C1226 C 0.26644 0.34153 0.36265 0.0
C1227 C 0.27334 0.34118 0.38543 0.0
C1228 C 0.26517 0.36197 0.35078 0.0
C1229 C 0.27087 0.3825 0.3614 0.0
C1230 C 0.27792 0.38216 0.38414 0.0
C1231 C 0.27909 0.36171 0.39606 0.0
H1232 H 0.95848 0.97364 0.60922 0.0
H1233 H 0.95499 0.04065 0.58007 0.0
H1234 H 0.98624 0.98733 0.6371 0.0
H1235 H 0.98261 0.05426 0.60768 0.0
H1236 H 0.05363 0.05846 0.64161 0.0
H1237 H 0.02483 0.04525 0.61505 0.0
H1238 H 0.98629 0.01728 0.67059 0.0
H1239 H 0.01507 0.03076 0.69736 0.0
C1240 C 0.96377 0.99121 0.60875 0.0
C1241 C 0.95465 0.00613 0.59262 0.0
C1242 C 0.9794 -0.00093 0.62475 0.0
C1243 C 0.98643 0.02184 0.62451 0.0
C1244 C 0.97749 0.03663 0.60818 0.0
C1245 C 0.96165 0.02888 0.5925 0.0
C1246 C 0.03893 0.04964 0.64817 0.0
C1247 C 0.03653 0.04565 0.6715 0.0
C1248 C 0.02247 0.04213 0.63299 0.0
C1249 C 0.00348 0.03017 0.64082 0.0
C1250 C 0.00092 0.02632 0.66418 0.0
C1251 C 0.01723 0.0342 0.67945 0.0
H1252 H 0.34367 0.69515 0.96879 0.0
H1253 H 0.27252 0.68286 0.95668 0.0
H1254 H 0.35309 0.66208 0.94565 0.0
H1255 H 0.28185 0.65063 0.93334 0.0
H1256 H 0.35704 0.62509 0.87534 0.0
H1257 H 0.35219 0.65258 0.90589 0.0
H1258 H 0.2962 0.61323 0.93204 0.0
H1259 H 0.3007 0.58635 0.90101 0.0
C1260 C 0.33006 0.6853 0.96142 0.0
C1261 C 0.30736 0.69174 0.96449 0.0
C1262 C 0.33545 0.66645 0.94807 0.0
C1263 C 0.31824 0.65371 0.93758 0.0
C1264 C 0.29557 0.65974 0.94143 0.0
C1265 C 0.2902 0.67843 0.95475 0.0
C1266 C 0.34399 0.6222 0.8879 0.0
C1267 C 0.329 0.60388 0.88569 0.0
C1268 C 0.34125 0.63786 0.90546 0.0
C1269 C 0.32359 0.63529 0.92126 0.0
C1270 C 0.3096 0.61605 0.91984 0.0
C1271 C 0.31216 0.60063 0.90213 0.0
H1272 H 0.12424 0.49209 0.93509 0.0
H1273 H 0.06186 0.46359 0.96016 0.0
H1274 H 0.1036 0.51282 0.90621 0.0
H1275 H 0.04092 0.4836 0.93033 0.0
H1276 H 0.00923 0.54499 0.8949 0.0
H1277 H 0.03007 0.52206 0.92221 0.0
H1278 H 0.08261 0.51098 0.87247 0.0
H1279 H 0.06226 0.53454 0.84558 0.0
C1280 C 0.10606 0.48992 0.93405 0.0
C1281 C 0.0946 0.47644 0.94998 0.0
C1282 C 0.09421 0.5017 0.91739 0.0
C1283 C 0.07053 0.50013 0.91605 0.0
C1284 C 0.05913 0.48555 0.93118 0.0
C1285 C 0.07108 0.47378 0.94801 0.0
C1286 C 0.0254 0.53793 0.88993 0.0
C1287 C 0.03411 0.54172 0.86809 0.0
C1288 C 0.03719 0.52448 0.90547 0.0
C1289 C 0.0579 0.51439 0.89949 0.0
C1290 C 0.06682 0.51862 0.87779 0.0
C1291 C 0.05515 0.53223 0.86234 0.0
H1292 H 0.81595 0.87144 0.17404 0.0
H1293 H 0.78067 0.90162 0.11737 0.0
H1294 H 0.82198 0.90886 0.19016 0.0
H1295 H 0.78719 0.93914 0.13327 0.0
H1296 H 0.78206 -0.00132 0.18476 0.0
H1297 H 0.77623 0.9628 0.1652 0.0
H1298 H 0.84449 0.94264 0.18211 0.0
H1299 H 0.84996 0.9782 0.20245 0.0
C1300 C 0.80941 0.88604 0.16503 0.0
C1301 C 0.79793 0.88353 0.14434 0.0
C1302 C 0.8131 0.90752 0.17415 0.0
C1303 C 0.80543 0.92698 0.16278 0.0
C1304 C 0.79331 0.92446 0.14244 0.0
C1305 C 0.78957 0.90294 0.13333 0.0
C1306 C 0.79586 0.98664 0.18412 0.0
C1307 C 0.81635 0.99109 0.19541 0.0
C1308 C 0.79259 0.96617 0.17278 0.0
C1309 C 0.80977 0.94974 0.17245 0.0
C1310 C 0.83076 0.9548 0.18251 0.0
C1311 C 0.83403 0.97529 0.19386 0.0
H1312 H 0.49889 0.54707 0.37706 0.0
H1313 H 0.53888 0.54363 0.43833 0.0
H1314 H 0.46536 0.55625 0.39966 0.0
H1315 H 0.50558 0.55291 0.46069 0.0
H1316 H 0.43631 0.54147 0.49359 0.0
H1317 H 0.4695 0.53371 0.47038 0.0
H1318 H 0.45052 0.58789 0.42492 0.0
H1319 H 0.41692 0.59544 0.44815 0.0
C1320 C 0.50052 0.54823 0.39531 0.0
C1321 C 0.52151 0.54455 0.40592 0.0
C1322 C 0.48139 0.55367 0.4082 0.0
C1323 C 0.48289 0.55528 0.43192 0.0
C1324 C 0.50387 0.55157 0.44246 0.0
C1325 C 0.52297 0.54633 0.42962 0.0
C1326 C 0.43922 0.5517 0.47863 0.0
C1327 C 0.42404 0.56902 0.47265 0.0
C1328 C 0.45828 0.54737 0.46543 0.0
C1329 C 0.46259 0.5602 0.44585 0.0
C1330 C 0.4475 0.57764 0.43985 0.0
C1331 C 0.42845 0.58212 0.45324 0.0
H1332 H 0.75858 0.2174 0.6876 0.0
H1333 H 0.76215 0.17376 0.6289 0.0
H1334 H 0.75539 0.18419 0.71204 0.0
H1335 H 0.75903 0.14056 0.65345 0.0
H1336 H 0.78433 0.12001 0.74644 0.0
H1337 H 0.78289 0.15331 0.72208 0.0
H1338 H 0.73178 0.12103 0.68087 0.0
H1339 H 0.73342 0.08738 0.70536 0.0
C1340 C 0.75851 0.20075 0.67989 0.0
C1341 C 0.7608 0.19819 0.65634 0.0
C1342 C 0.75676 0.18176 0.69389 0.0
C1343 C 0.75706 0.15984 0.68461 0.0
C1344 C 0.75859 0.15727 0.66101 0.0
C1345 C 0.76055 0.17627 0.64701 0.0
C1346 C 0.77287 0.11997 0.73212 0.0
C1347 C 0.75913 0.10107 0.72761 0.0
C1348 C 0.77185 0.13912 0.71834 0.0
C1349 C 0.75719 0.13974 0.69964 0.0
C1350 C 0.7433 0.12091 0.69515 0.0
C1351 C 0.74413 0.10177 0.70917 0.0
H1352 H 0.12429 0.55416 0.01936 0.0
H1353 H 0.06311 0.51589 0.03184 0.0
H1354 H 0.10314 0.58932 0.02364 0.0
H1355 H 0.04211 0.55105 0.03668 0.0
H1356 H 0.06527 0.64904 0.0494 0.0
H1357 H 0.08376 0.61212 0.05183 0.0
H1358 H 0.02894 0.58235 0.01352 0.0
H1359 H 0.01043 0.61922 0.01145 0.0
C1360 C 0.10636 0.55325 0.02313 0.0
C1361 C 0.09537 0.53225 0.02517 0.0
C1362 C 0.09428 0.57339 0.02582 0.0
C1363 C 0.07096 0.57296 0.03067 0.0
C1364 C 0.06 0.55194 0.03279 0.0
C1365 C 0.07207 0.53181 0.03005 0.0
C1366 C 0.05701 0.63445 0.04196 0.0
C1367 C 0.03656 0.63696 0.03009 0.0
C1368 C 0.06764 0.61339 0.04317 0.0
C1369 C 0.05804 0.59442 0.03246 0.0
C1370 C 0.03674 0.59661 0.02203 0.0
C1371 C 0.02606 0.6177 0.02091 0.0
H1372 H 0.57077 0.0203 0.03588 0.0
H1373 H 0.63685 4e-05 0.06 0.0
H1374 H 0.55842 0.98102 0.03657 0.0
H1375 H 0.62435 0.96047 0.06059 0.0
H1376 H 0.58173 0.89754 0.08319 0.0
H1377 H 0.59664 0.93609 0.08179 0.0
H1378 H 0.56657 0.94532 0.0157 0.0
H1379 H 0.55125 0.90686 0.01733 0.0
C1380 C 0.5827 0.00748 0.04136 0.0
C1381 C 0.60483 0.01333 0.04786 0.0
C1382 C 0.57563 0.98493 0.04157 0.0
C1383 C 0.59047 0.96766 0.04844 0.0
C1384 C 0.61253 0.97346 0.05529 0.0
C1385 C 0.61969 0.99609 0.05491 0.0
C1386 C 0.57824 0.90781 0.0684 0.0
C1387 C 0.56508 0.89926 0.05046 0.0
C1388 C 0.587 0.9298 0.06749 0.0
C1389 C 0.58265 0.94376 0.04871 0.0
C1390 C 0.56997 0.93502 0.03053 0.0
C1391 C 0.56137 0.91297 0.03135 0.0
H1392 H 0.404 0.35475 0.19915 0.0
H1393 H 0.4444 0.38469 0.25226 0.0
H1394 H 0.37437 0.38277 0.20596 0.0
H1395 H 0.41453 0.41207 0.25969 0.0
H1396 H 0.36388 0.46978 0.25517 0.0
H1397 H 0.39463 0.44449 0.24462 0.0
H1398 H 0.34674 0.38984 0.23572 0.0
H1399 H 0.31587 0.41528 0.24579 0.0
C1400 C 0.40669 0.3675 0.21205 0.0
C1401 C 0.42646 0.3674 0.22528 0.0
C1402 C 0.3896 0.38335 0.21617 0.0
C1403 C 0.39197 0.39948 0.23356 0.0
C1404 C 0.41218 0.39997 0.24611 0.0
C1405 C 0.42922 0.38413 0.24199 0.0
C1406 C 0.35988 0.45237 0.25101 0.0
C1407 C 0.3374 0.44455 0.25137 0.0
C1408 C 0.37754 0.43785 0.24499 0.0
C1409 C 0.37314 0.41516 0.23924 0.0
C1410 C 0.35066 0.40733 0.23966 0.0
C1411 C 0.33299 0.42187 0.24564 0.0
H1412 H 0.9755 0.17341 0.48963 0.0
H1413 H 0.9567 0.18661 0.55909 0.0
H1414 H 0.95694 0.13656 0.49165 0.0
H1415 H 0.93856 0.14945 0.56128 0.0
H1416 H 0.89307 0.08607 0.54862 0.0
H1417 H 0.90653 0.12533 0.5455 0.0
H1418 H 0.96747 0.10169 0.5128 0.0
H1419 H 0.95426 0.06294 0.51578 0.0
C1420 C 0.96717 0.16857 0.50523 0.0
C1421 C 0.96782 0.1828 0.52427 0.0
C1422 C 0.95669 0.1474 0.50645 0.0
C1423 C 0.94653 0.14005 0.52671 0.0
C1424 C 0.94622 0.1547 0.54544 0.0
C1425 C 0.95684 0.17585 0.54426 0.0
C1426 C 0.90933 0.08933 0.54079 0.0
C1427 C 0.92257 0.0714 0.53242 0.0
C1428 C 0.91702 0.11174 0.53904 0.0
C1429 C 0.93793 0.11654 0.52868 0.0
C1430 C 0.95111 0.09857 0.52047 0.0
C1431 C 0.94356 0.0763 0.52236 0.0
H1432 H 0.24673 0.59712 0.79021 0.0
H1433 H 0.2969 0.64885 0.80304 0.0
H1434 H 0.22551 0.62346 0.76681 0.0
H1435 H 0.27523 0.67554 0.78014 0.0
H1436 H 0.24305 0.71267 0.72135 0.0
H1437 H 0.26486 0.68355 0.74136 0.0
H1438 H 0.20281 0.65636 0.76915 0.0
H1439 H 0.18128 0.68466 0.74845 0.0
C1440 C 0.25303 0.61424 0.78843 0.0
C1441 C 0.27352 0.62086 0.79858 0.0
C1442 C 0.24086 0.62938 0.77491 0.0
C1443 C 0.24874 0.6516 0.77138 0.0
C1444 C 0.26892 0.65841 0.78205 0.0
C1445 C 0.28119 0.64319 0.79545 0.0
C1446 C 0.23415 0.70003 0.73123 0.0
C1447 C 0.21052 0.70098 0.73348 0.0
C1448 C 0.2466 0.68359 0.743 0.0
C1449 C 0.23562 0.6678 0.75717 0.0
C1450 C 0.21188 0.66811 0.75835 0.0
C1451 C 0.19951 0.68442 0.74659 0.0
H1452 H 0.46541 0.40965 0.59134 0.0
H1453 H 0.44604 0.38494 0.52524 0.0
H1454 H 0.44222 0.44333 0.58547 0.0
H1455 H 0.42365 0.419 0.51897 0.0
H1456 H 0.37199 0.47659 0.52212 0.0
H1457 H 0.39034 0.44051 0.53081 0.0
H1458 H 0.44635 0.47648 0.56125 0.0
H1459 H 0.42795 0.51232 0.55303 0.0
C1460 C 0.456 0.41128 0.57569 0.0
C1461 C 0.45782 0.39482 0.55863 0.0
C1462 C 0.44292 0.43067 0.57221 0.0
C1463 C 0.43138 0.43396 0.55162 0.0
C1464 C 0.43229 0.41695 0.53503 0.0
C1465 C 0.44535 0.39757 0.53851 0.0
C1466 C 0.38823 0.47676 0.53063 0.0
C1467 C 0.39852 0.4973 0.53687 0.0
C1468 C 0.39873 0.45611 0.5356 0.0
C1469 C 0.41969 0.45566 0.54688 0.0
C1470 C 0.42998 0.47623 0.55297 0.0
C1471 C 0.41951 0.4968 0.54805 0.0
H1472 H 0.84807 0.08932 0.80981 0.0
H1473 H 0.79443 0.13612 0.79281 0.0
H1474 H 0.872 0.12117 0.82151 0.0
H1475 H 0.81846 0.16785 0.80421 0.0
H1476 H 0.88051 0.21646 0.79982 0.0
H1477 H 0.85648 0.1845 0.78913 0.0
H1478 H 0.86989 0.15273 0.85369 0.0
H1479 H 0.8939 0.18507 0.8645 0.0
C1480 C 0.84149 0.1064 0.8084 0.0
C1481 C 0.81943 0.1103 0.80038 0.0
C1482 C 0.85509 0.12455 0.81528 0.0
C1483 C 0.84699 0.14688 0.81383 0.0
C1484 C 0.82508 0.15077 0.80545 0.0
C1485 C 0.81136 0.13264 0.79897 0.0
C1486 C 0.87832 0.20262 0.8117 0.0
C1487 C 0.88906 0.20308 0.83294 0.0
C1488 C 0.86451 0.18445 0.80565 0.0
C1489 C 0.86144 0.16619 0.82057 0.0
C1490 C 0.87215 0.16659 0.84186 0.0
C1491 C 0.88568 0.18506 0.8481 0.0
H1492 H 0.74551 0.87733 0.34541 0.0
H1493 H 0.68508 0.89365 0.3076 0.0
H1494 H 0.76458 0.91017 0.32878 0.0
H1495 H 0.70426 0.92582 0.29041 0.0
H1496 H 0.73943 0.99475 0.28151 0.0
H1497 H 0.71955 0.96304 0.29915 0.0
H1498 H 0.77916 0.92133 0.29165 0.0
H1499 H 0.79913 0.95301 0.2744 0.0
C1500 C 0.73628 0.88798 0.33366 0.0
C1501 C 0.71389 0.88276 0.32766 0.0
C1502 C 0.74725 0.90663 0.32393 0.0
C1503 C 0.73598 0.92049 0.3081 0.0
C1504 C 0.71339 0.91558 0.3026 0.0
C1505 C 0.70248 0.89696 0.31227 0.0
C1506 C 0.74822 0.97875 0.28343 0.0
C1507 C 0.77088 0.97643 0.2766 0.0
C1508 C 0.73683 0.96058 0.29355 0.0
C1509 C 0.74786 0.93973 0.29702 0.0
C1510 C 0.77033 0.9373 0.28966 0.0
C1511 C 0.7817 0.95542 0.27957 0.0
H1512 H 0.01965 0.10928 0.74825 0.0
H1513 H 0.07694 0.12791 0.78982 0.0
H1514 H -0.00168 0.14119 0.76343 0.0
H1515 H 0.0559 0.16017 0.80447 0.0
H1516 H 0.00462 0.2022 0.84335 0.0
H1517 H 0.0247 0.16921 0.82879 0.0
H1518 H -0.003 0.1818 0.76215 0.0
H1519 H 0.9764 0.21432 0.77686 0.0
C1520 C 0.02774 0.12029 0.7605 0.0
C1521 C 0.04997 0.11608 0.76785 0.0
C1522 C 0.01555 0.13864 0.76913 0.0
C1523 C 0.02538 0.15325 0.7852 0.0
C1524 C 0.04767 0.14905 0.79242 0.0
C1525 C 0.05979 0.13063 0.78391 0.0
C1526 C 0.00276 0.19787 0.82561 0.0
C1527 C 0.98894 0.21087 0.81126 0.0
C1528 C 0.01438 0.17904 0.81723 0.0
C1529 C 0.01254 0.1729 0.79427 0.0
C1530 C -0.00144 0.18585 0.77998 0.0
C1531 C 0.98685 0.20458 0.78839 0.0
H1532 H 0.11811 0.67116 -0.00112 0.0
H1533 H 0.08606 0.69485 0.93757 0.0
H1534 H 0.1538 0.66784 0.97908 0.0
H1535 H 0.12208 0.69174 0.91752 0.0
H1536 H 0.18118 0.74504 0.93797 0.0
H1537 H 0.14774 0.72264 0.93027 0.0
H1538 H 0.18363 0.66187 0.94999 0.0
H1539 H 0.21744 0.68461 0.95747 0.0
C1540 C 0.11854 0.67462 0.98084 0.0
C1541 C 0.09976 0.6841 0.96991 0.0
C1542 C 0.13896 0.67245 0.96932 0.0
C1543 C 0.14093 0.68039 0.94691 0.0
C1544 C 0.1211 0.68592 0.93491 0.0
C1545 C 0.10051 0.6878 0.94642 0.0
C1546 C 0.18218 0.72678 0.93972 0.0
C1547 C 0.20142 0.71657 0.94907 0.0
C1548 C 0.16311 0.71379 0.93498 0.0
C1549 C 0.16285 0.6905 0.94016 0.0
C1550 C 0.1833 0.67983 0.94614 0.0
C1551 C 0.20257 0.69285 0.95055 0.0
H1552 H 0.52549 0.95272 0.3285 0.0
H1553 H 0.56836 0.97344 0.27288 0.0
H1554 H 0.55034 0.92076 0.3359 0.0
H1555 H 0.5937 0.94169 0.28073 0.0
H1556 H 0.61991 0.86792 0.28804 0.0
H1557 H 0.59599 0.90057 0.27909 0.0
H1558 H 0.58734 0.91356 0.35064 0.0
H1559 H 0.61052 0.88077 0.3595 0.0
C1560 C 0.54032 0.95055 0.31794 0.0
C1561 C 0.545 0.96567 0.30018 0.0
C1562 C 0.55466 0.93228 0.32226 0.0
C1563 C 0.57414 0.92876 0.30903 0.0
C1564 C 0.57874 0.9438 0.29111 0.0
C1565 C 0.5643 0.96207 0.28671 0.0
C1566 C 0.61294 0.87785 0.30181 0.0
C1567 C 0.61689 0.87166 0.32446 0.0
C1568 C 0.59933 0.89659 0.2967 0.0
C1569 C 0.58955 0.90953 0.31416 0.0
C1570 C 0.59415 0.90366 0.33678 0.0
C1571 C 0.60757 0.88492 0.34186 0.0
H1572 H 0.45149 0.27309 0.51711 0.0
H1573 H 0.45278 0.34341 0.49645 0.0
H1574 H 0.41236 0.27012 0.50456 0.0
H1575 H 0.4134 0.34059 0.48444 0.0
H1576 H 0.34893 0.31922 0.446 0.0
H1577 H 0.38866 0.32299 0.45654 0.0
H1578 H 0.37613 0.28425 0.51749 0.0
H1579 H 0.33661 0.27997 0.50667 0.0
C1580 C 0.44342 0.28788 0.50982 0.0
C1581 C 0.45511 0.30848 0.50782 0.0
C1582 C 0.42098 0.28623 0.50279 0.0
C1583 C 0.40975 0.30521 0.4938 0.0
C1584 C 0.42167 0.32565 0.49117 0.0
C1585 C 0.44419 0.32726 0.49807 0.0
C1586 C 0.35465 0.3117 0.46175 0.0
C1587 C 0.33975 0.29922 0.4755 0.0
C1588 C 0.37737 0.31388 0.46778 0.0
C1589 C 0.38553 0.30371 0.48771 0.0
C1590 C 0.37043 0.29184 0.50177 0.0
C1591 C 0.34777 0.28953 0.49567 0.0
H1592 H 0.51962 0.47231 0.32954 0.0
H1593 H 0.58487 0.46257 0.29795 0.0
H1594 H 0.50627 0.43695 0.31266 0.0
H1595 H 0.57185 0.42709 0.28172 0.0
H1596 H 0.53503 0.37668 0.23714 0.0
H1597 H 0.54676 0.41282 0.25327 0.0
H1598 H 0.51155 0.39653 0.31539 0.0
H1599 H 0.49926 0.36073 0.29902 0.0
C1600 C 0.53113 0.46256 0.31912 0.0
C1601 C 0.55326 0.47024 0.31503 0.0
C1602 C 0.52354 0.44226 0.30953 0.0
C1603 C 0.53798 0.42922 0.29577 0.0
C1604 C 0.56014 0.43691 0.29186 0.0
C1605 C 0.56766 0.45721 0.30131 0.0
C1606 C 0.5298 0.38082 0.25423 0.0
C1607 C 0.51628 0.36583 0.26682 0.0
C1608 C 0.53659 0.4015 0.26353 0.0
C1609 C 0.53015 0.40755 0.28566 0.0
C1610 C 0.51655 0.39255 0.29819 0.0
C1611 C 0.50964 0.37195 0.28885 0.0
H1612 H 0.93434 0.28484 0.55464 0.0
H1613 H 0.95843 0.22406 0.58786 0.0
H1614 H 0.89636 0.26901 0.55349 0.0
H1615 H 0.92033 0.20811 0.58634 0.0
H1616 H 0.84111 0.20764 0.60178 0.0
H1617 H 0.88154 0.21537 0.60215 0.0
H1618 H 0.87809 0.23705 0.5323 0.0
H1619 H 0.83751 0.22972 0.53195 0.0
C1620 C 0.93149 0.26822 0.56193 0.0
C1621 C 0.94939 0.25565 0.57119 0.0
C1622 C 0.90983 0.25902 0.56096 0.0
C1623 C 0.90563 0.2371 0.56926 0.0
C1624 C 0.92322 0.22497 0.57966 0.0
C1625 C 0.94495 0.23419 0.58063 0.0
C1626 C 0.84906 0.21333 0.58625 0.0
C1627 C 0.83606 0.21867 0.56698 0.0
C1628 C 0.87224 0.21779 0.58651 0.0
C1629 C 0.88268 0.22746 0.56748 0.0
C1630 C 0.8702 0.2302 0.54741 0.0
C1631 C 0.84704 0.22582 0.54714 0.0
H1632 H 0.01679 0.63418 0.75066 0.0
H1633 H 0.06773 0.60876 0.79667 0.0
H1634 H 0.04061 0.66676 0.74217 0.0
H1635 H 0.09195 0.64099 0.78761 0.0
H1636 H 0.12012 0.71337 0.78185 0.0
H1637 H 0.09611 0.68122 0.79204 0.0
H1638 H 0.0745 0.67549 0.72228 0.0
H1639 H 0.09779 0.70793 0.71233 0.0
C1640 C 0.03314 0.6355 0.75888 0.0
C1641 C 0.04041 0.61888 0.77427 0.0
C1642 C 0.04687 0.65412 0.75392 0.0
C1643 C 0.06831 0.65644 0.76407 0.0
C1644 C 0.07545 0.6399 0.77968 0.0
C1645 C 0.06162 0.62136 0.78479 0.0
C1646 C 0.11025 0.70518 0.76872 0.0
C1647 C 0.11074 0.71325 0.74632 0.0
C1648 C 0.09657 0.6867 0.77453 0.0
C1649 C 0.08322 0.67584 0.75802 0.0
C1650 C 0.08413 0.68372 0.73555 0.0
C1651 C 0.09763 0.70225 0.7298 0.0
H1652 H 0.6039 0.83011 0.11418 0.0
H1653 H 0.60582 0.78916 0.05352 0.0
H1654 H 0.64516 0.83089 0.11493 0.0
H1655 H 0.64691 0.7906 0.05378 0.0
H1656 H 0.72066 0.78029 0.07185 0.0
H1657 H 0.67957 0.77743 0.07365 0.0
H1658 H 0.67567 0.84769 0.09407 0.0
H1659 H 0.71676 0.85029 0.09303 0.0
C1660 C 0.61314 0.82131 0.10102 0.0
C1661 C 0.60167 0.8096 0.08379 0.0
C1662 C 0.63676 0.82186 0.10135 0.0
C1663 C 0.64932 0.81088 0.08436 0.0
C1664 C 0.63777 0.79895 0.06731 0.0
C1665 C 0.6142 0.79823 0.06709 0.0
C1666 C 0.711 0.79511 0.0767 0.0
C1667 C 0.72188 0.81552 0.08225 0.0
C1668 C 0.68747 0.7935 0.07767 0.0
C1669 C 0.67435 0.81234 0.08401 0.0
C1670 C 0.68529 0.83276 0.08951 0.0
C1671 C 0.70882 0.8343 0.08874 0.0
H1672 H 0.7498 0.10872 0.20664 0.0
H1673 H 0.74566 0.03578 0.20135 0.0
H1674 H 0.72671 0.1125 0.17261 0.0
H1675 H 0.72317 0.03954 0.16699 0.0
H1676 H 0.66709 0.05389 0.11623 0.0
H1677 H 0.68698 0.05104 0.15238 0.0
H1678 H 0.73044 0.10662 0.13266 0.0
H1679 H 0.71018 0.10988 0.09694 0.0
C1680 C 0.74398 0.0935 0.1982 0.0
C1681 C 0.74961 0.07197 0.20665 0.0
C1682 C 0.73084 0.09565 0.17863 0.0
C1683 C 0.72317 0.07632 0.16698 0.0
C1684 C 0.72852 0.05479 0.17568 0.0
C1685 C 0.74153 0.05263 0.19533 0.0
C1686 C 0.68084 0.06554 0.11968 0.0
C1687 C 0.68709 0.08208 0.10373 0.0
C1688 C 0.69231 0.06384 0.14035 0.0
C1689 C 0.71033 0.07859 0.14543 0.0
C1690 C 0.71641 0.09523 0.12949 0.0
C1691 C 0.70488 0.097 0.10892 0.0
H1692 H 0.29955 0.56718 0.44559 0.0
H1693 H 0.35742 0.52244 0.44785 0.0
H1694 H 0.29742 0.56242 0.40471 0.0
H1695 H 0.35569 0.51818 0.40677 0.0
H1696 H 0.32813 0.49763 0.33619 0.0
H1697 H 0.33279 0.50178 0.37704 0.0
H1698 H 0.31801 0.57331 0.37133 0.0
H1699 H 0.3127 0.56901 0.33065 0.0
C1700 C 0.31185 0.55636 0.43733 0.0
C1701 C 0.32864 0.5452 0.4499 0.0
C1702 C 0.31075 0.55378 0.41388 0.0
C1703 C 0.32655 0.54012 0.40245 0.0
C1704 C 0.34317 0.52868 0.41509 0.0
C1705 C 0.34418 0.53116 0.4386 0.0
C1706 C 0.3262 0.51429 0.34365 0.0
C1707 C 0.3199 0.53299 0.33029 0.0
C1708 C 0.32889 0.51667 0.36704 0.0
C1709 C 0.32548 0.53782 0.37746 0.0
C1710 C 0.32022 0.55668 0.36388 0.0
C1711 C 0.31735 0.55427 0.34056 0.0
H1712 H 0.85851 0.041 0.60645 0.0
H1713 H 0.85524 0.96834 0.61511 0.0
H1714 H 0.84631 0.04615 0.64561 0.0
H1715 H 0.84378 0.97344 0.65435 0.0
H1716 H 0.79743 0.99049 0.71331 0.0
H1717 H 0.81138 0.9857 0.67495 0.0
H1718 H 0.85765 0.04164 0.68467 0.0
H1719 H 0.84308 0.04691 0.72306 0.0
C1720 C 0.85536 0.02613 0.61677 0.0
C1721 C 0.85766 0.00426 0.60765 0.0
C1722 C 0.84852 0.02908 0.63926 0.0
C1723 C 0.84397 0.01021 0.65312 0.0
C1724 C 0.84672 0.98835 0.64404 0.0
C1725 C 0.85339 0.98542 0.62155 0.0
C1726 C 0.81065 0.00173 0.70735 0.0
C1727 C 0.81916 0.01908 0.72124 0.0
C1728 C 0.81876 -0.00111 0.68535 0.0
C1729 C 0.83572 0.01322 0.67672 0.0
C1730 C 0.84439 0.03048 0.69069 0.0
C1731 C 0.83616 0.03341 0.71273 0.0
H1732 H 0.24076 0.55013 0.86513 0.0
H1733 H 0.29005 0.50168 0.88925 0.0
H1734 H 0.21512 0.53911 0.8956 0.0
H1735 H 0.26478 0.49117 0.92006 0.0
H1736 H 0.20551 0.45875 0.95572 0.0
H1737 H 0.23007 0.471 0.92504 0.0
H1738 H 0.20952 0.54043 0.93611 0.0
H1739 H 0.18432 0.52799 0.9665 0.0
C1740 C 0.24621 0.5373 0.87708 0.0
C1741 C 0.26736 0.52664 0.87471 0.0
C1742 C 0.23156 0.53106 0.8946 0.0
C1743 C 0.23781 0.51413 0.91017 0.0
C1744 C 0.25922 0.50392 0.90807 0.0
C1745 C 0.27378 0.51004 0.89049 0.0
C1746 C 0.20615 0.47663 0.95156 0.0
C1747 C 0.19304 0.49242 0.96354 0.0
C1748 C 0.22036 0.48368 0.93407 0.0
C1749 C 0.22198 0.50674 0.92828 0.0
C1750 C 0.20854 0.52252 0.94001 0.0
C1751 C 0.19414 0.51542 0.95745 0.0
H1752 H 0.88482 0.0558 0.81017 0.0
H1753 H 0.88628 0.9834 0.80025 0.0
H1754 H 0.92543 0.05772 0.80329 0.0
H1755 H 0.92695 0.98524 0.7928 0.0
H1756 H 0.00396 0.99536 0.79539 0.0
H1757 H 0.96449 0.99259 0.80736 0.0
H1758 H 0.94943 0.05445 0.77114 0.0
H1759 H 0.98876 0.05782 0.76024 0.0
C1760 C 0.89391 0.04028 0.8066 0.0
C1761 C 0.88236 0.01949 0.80558 0.0
C1762 C 0.91716 0.04136 0.80252 0.0
C1763 C 0.92947 0.02169 0.79709 0.0
C1764 C 0.91808 0.00072 0.79707 0.0
C1765 C 0.89477 -0.00037 0.80135 0.0
C1766 C 0.99227 0.00848 0.79018 0.0
C1767 C -0.00032 0.02678 0.77676 0.0
C1768 C 0.96957 0.00678 0.79687 0.0
C1769 C 0.95374 0.02335 0.79033 0.0
C1770 C 0.96117 0.04155 0.77686 0.0
C1771 C 0.98378 0.04329 0.77025 0.0
H1772 H 0.20671 0.67624 0.05656 0.0
H1773 H 0.26041 0.65688 0.01073 0.0
H1774 H 0.19851 0.63626 0.06362 0.0
H1775 H 0.2517 0.61716 0.01735 0.0
H1776 H 0.20289 0.55564 0.00828 0.0
H1777 H 0.21632 0.59468 0.00621 0.0
H1778 H 0.21641 0.59853 0.07929 0.0
H1779 H 0.20301 0.55903 0.08127 0.0
C1780 C 0.21698 0.66358 0.04823 0.0
C1781 C 0.23396 0.66991 0.03273 0.0
C1782 C 0.21228 0.64067 0.05232 0.0
C1783 C 0.22434 0.62367 0.04086 0.0
C1784 C 0.24193 0.62995 0.02616 0.0
C1785 C 0.24678 0.65276 0.02225 0.0
C1786 C 0.20592 0.5648 0.02388 0.0
C1787 C 0.20187 0.55446 0.04493 0.0
C1788 C 0.21374 0.58705 0.02272 0.0
C1789 C 0.21741 0.59959 0.0426 0.0
C1790 C 0.21364 0.58921 0.06373 0.0
C1791 C 0.20616 0.56668 0.06488 0.0
H1792 H 0.70195 0.05031 0.26219 0.0
H1793 H 0.70639 0.08645 0.32572 0.0
H1794 H 0.66121 0.05061 0.26464 0.0
H1795 H 0.66503 0.08788 0.32753 0.0
H1796 H 0.59145 0.05888 0.33415 0.0
H1797 H 0.63258 0.0635 0.33351 0.0
H1798 H 0.62985 0.07529 0.26124 0.0
H1799 H 0.58896 0.06992 0.26195 0.0
C1800 C 0.6943 0.0583 0.27678 0.0
C1801 C 0.70761 0.06812 0.29393 0.0
C1802 C 0.67077 0.05884 0.27796 0.0
C1803 C 0.65976 0.06946 0.29618 0.0
C1804 C 0.67298 0.07945 0.31332 0.0
C1805 C 0.69667 0.0788 0.31219 0.0
C1806 C 0.59968 0.06284 0.31825 0.0
C1807 C 0.58714 0.06378 0.29804 0.0
C1808 C 0.62323 0.06552 0.31786 0.0
C1809 C 0.63459 0.06941 0.29726 0.0
C1810 C 0.62175 0.07169 0.2773 0.0
C1811 C 0.59833 0.06873 0.27768 0.0
H1812 H 0.32111 0.46031 0.53665 0.0
H1813 H 0.25832 0.48808 0.51173 0.0
H1814 H 0.30744 0.42197 0.52862 0.0
H1815 H 0.24469 0.44969 0.50338 0.0
H1816 H 0.26719 0.3554 0.52722 0.0
H1817 H 0.27468 0.39404 0.54062 0.0
H1818 H 0.26014 0.42002 0.47378 0.0
H1819 H 0.253 0.3814 0.46038 0.0
C1820 C 0.3043 0.45813 0.52966 0.0
C1821 C 0.29077 0.47707 0.52475 0.0
C1822 C 0.29642 0.43625 0.52522 0.0
C1823 C 0.27502 0.43293 0.5154 0.0
C1824 C 0.26126 0.45184 0.51095 0.0
C1825 C 0.26898 0.47373 0.51583 0.0
C1826 C 0.26517 0.36945 0.51558 0.0
C1827 C 0.25956 0.36551 0.49278 0.0
C1828 C 0.26958 0.39147 0.52318 0.0
C1829 C 0.26798 0.40994 0.50821 0.0
C1830 C 0.26131 0.40609 0.4857 0.0
C1831 C 0.25735 0.38405 0.47801 0.0
H1832 H 0.49952 0.58479 0.27657 0.0
H1833 H 0.48821 0.52057 0.30994 0.0
H1834 H 0.46198 0.58218 0.25913 0.0
H1835 H 0.45077 0.51847 0.29351 0.0
H1836 H 0.39302 0.50811 0.2468 0.0
H1837 H 0.43255 0.5123 0.25784 0.0
H1838 H 0.42178 0.58383 0.26923 0.0
H1839 H 0.38222 0.57957 0.25763 0.0
C1840 C 0.48908 0.57016 0.2802 0.0
C1841 C 0.4969 0.55299 0.2948 0.0
C1842 C 0.46751 0.56874 0.27036 0.0
C1843 C 0.45338 0.55005 0.27479 0.0
C1844 C 0.46129 0.53294 0.28937 0.0
C1845 C 0.48272 0.53434 0.29915 0.0
C1846 C 0.39922 0.52477 0.25139 0.0
C1847 C 0.38453 0.54346 0.25158 0.0
C1848 C 0.42181 0.52718 0.25783 0.0
C1849 C 0.43026 0.54833 0.26487 0.0
C1850 C 0.41588 0.56732 0.26382 0.0
C1851 C 0.39322 0.56491 0.25717 0.0
H1852 H 0.77891 0.04723 0.53396 0.0
H1853 H 0.83616 0.08916 0.51645 0.0
H1854 H 0.75527 0.08114 0.53769 0.0
H1855 H 0.81262 0.123 0.52011 0.0
H1856 H 0.76264 0.17946 0.51526 0.0
H1857 H 0.77764 0.14276 0.50311 0.0
H1858 H 0.75761 0.11341 0.56709 0.0
H1859 H 0.74278 0.15017 0.57919 0.0
C1860 C 0.78629 0.06367 0.53049 0.0
C1861 C 0.80937 0.06565 0.52505 0.0
C1862 C 0.77282 0.08302 0.53271 0.0
C1863 C 0.78211 0.10464 0.52911 0.0
C1864 C 0.80495 0.10652 0.52271 0.0
C1865 C 0.81848 0.08722 0.52086 0.0
C1866 C 0.76069 0.16495 0.52633 0.0
C1867 C 0.75156 0.16753 0.54815 0.0
C1868 C 0.76947 0.14405 0.51949 0.0
C1869 C 0.76894 0.12535 0.53424 0.0
C1870 C 0.7581 0.1275 0.55532 0.0
C1871 C 0.74965 0.14847 0.56226 0.0
H1872 H 0.1007 0.56153 0.79873 0.0
H1873 H 0.09876 0.50052 0.75822 0.0
H1874 H 0.14147 0.56019 0.79904 0.0
H1875 H 0.14 0.50005 0.75733 0.0
H1876 H 0.21389 0.49322 0.78301 0.0
H1877 H 0.17261 0.49321 0.78023 0.0
H1878 H 0.17318 0.56638 0.77591 0.0
H1879 H 0.21424 0.56622 0.77946 0.0
C1880 C 0.10883 0.54775 0.78986 0.0
C1881 C 0.09613 0.53101 0.77858 0.0
C1882 C 0.13244 0.54722 0.78972 0.0
C1883 C 0.14418 0.53013 0.77805 0.0
C1884 C 0.13157 0.51339 0.76667 0.0
C1885 C 0.10785 0.5138 0.76697 0.0
C1886 C 0.20513 0.50923 0.78121 0.0
C1887 C 0.21722 0.52974 0.78167 0.0
C1888 C 0.18147 0.50927 0.77957 0.0
C1889 C 0.16944 0.52981 0.77811 0.0
C1890 C 0.18175 0.55025 0.77763 0.0
C1891 C 0.2053 0.5502 0.77956 0.0
H1892 H 0.72884 0.01508 0.99594 0.0
H1893 H 0.70369 0.00552 0.06402 0.0
H1894 H 0.75165 0.98063 -0.00029 0.0
H1895 H 0.7256 0.97097 0.06745 0.0
H1896 H 0.78213 0.92249 0.07698 0.0
H1897 H 0.76477 0.95937 0.07067 0.0
H1898 H 0.74614 0.93903 0.00284 0.0
H1899 H 0.76396 0.90205 0.0092 0.0
C1900 C 0.72823 0.00569 0.01169 0.0
C1901 C 0.71439 0.01299 0.02965 0.0
C1902 C 0.74111 0.98589 0.01377 0.0
C1903 C 0.74051 0.97316 0.03391 0.0
C1904 C 0.72673 0.98057 0.05183 0.0
C1905 C 0.71389 0.00023 0.04975 0.0
C1906 C 0.77444 0.92598 0.06069 0.0
C1907 C 0.77402 0.90936 0.0437 0.0
C1908 C 0.76448 0.94705 0.05707 0.0
C1909 C 0.75372 0.95195 0.03641 0.0
C1910 C 0.75438 0.93577 0.01891 0.0
C1911 C 0.76453 0.91463 0.02252 0.0
H1912 H 0.13993 0.79302 0.82701 0.0
H1913 H 0.07079 0.80328 0.80579 0.0
H1914 H 0.12761 0.78866 0.86599 0.0
H1915 H 0.0583 0.79971 0.84525 0.0
H1916 H 0.10261 0.79347 0.93674 0.0
H1917 H 0.1118 0.80653 0.89875 0.0
H1918 H 0.05537 0.76843 0.87195 0.0
H1919 H 0.04547 0.75629 0.91006 0.0
C1920 C 0.12207 0.79467 0.83079 0.0
C1921 C 0.10627 0.79815 0.81333 0.0
C1922 C 0.11501 0.79243 0.8532 0.0
C1923 C 0.09193 0.79369 0.85878 0.0
C1924 C 0.07618 0.79835 0.84146 0.0
C1925 C 0.08331 0.80064 0.81892 0.0
C1926 C 0.09187 0.78821 0.92286 0.0
C1927 C 0.07344 0.77357 0.92653 0.0
C1928 C 0.09727 0.79556 0.90101 0.0
C1929 C 0.08445 0.78839 0.88225 0.0
C1930 C 0.06551 0.77446 0.88601 0.0
C1931 C 0.06005 0.76717 0.90787 0.0
H1932 H 0.56088 0.78154 0.28776 0.0
H1933 H 0.62394 0.77014 0.25272 0.0
H1934 H 0.54027 0.77721 0.25203 0.0
H1935 H 0.6034 0.76584 0.21701 0.0
H1936 H 0.55801 0.7454 0.15836 0.0
H1937 H 0.5738 0.74118 0.1966 0.0
H1938 H 0.54031 0.8029 0.21706 0.0
H1939 H 0.52472 0.80708 0.17893 0.0
C1940 C 0.57027 0.77766 0.2725 0.0
C1941 C 0.59401 0.77633 0.27293 0.0
C1942 C 0.5585 0.77531 0.25207 0.0
C1943 C 0.57025 0.77122 0.23179 0.0
C1944 C 0.5939 0.76878 0.23242 0.0
C1945 C 0.60567 0.77145 0.25278 0.0
C1946 C 0.55364 0.75771 0.17123 0.0
C1947 C 0.54027 0.77661 0.16578 0.0
C1948 C 0.56277 0.7554 0.19299 0.0
C1949 C 0.55831 0.77175 0.20972 0.0
C1950 C 0.54388 0.78994 0.20456 0.0
C1951 C 0.53508 0.79242 0.18276 0.0
H1952 H 0.50661 0.31568 0.44872 0.0
H1953 H 0.56333 0.26947 0.45079 0.0
H1954 H 0.50229 0.30897 0.4087 0.0
H1955 H 0.55813 0.26173 0.41032 0.0
H1956 H 0.55568 0.27666 0.33205 0.0
H1957 H 0.5619 0.27932 0.373 0.0
H1958 H 0.48952 0.28028 0.38363 0.0
H1959 H 0.4835 0.27827 0.34288 0.0
C1960 C 0.51832 0.30414 0.44069 0.0
C1961 C 0.53554 0.29333 0.45312 0.0
C1962 C 0.51553 0.29995 0.41764 0.0
C1963 C 0.52968 0.2846 0.40626 0.0
C1964 C 0.54699 0.27374 0.41856 0.0
C1965 C 0.54986 0.27803 0.44177 0.0
C1966 C 0.54117 0.27714 0.34324 0.0
C1967 C 0.51912 0.27761 0.33432 0.0
C1968 C 0.54471 0.27861 0.36668 0.0
C1969 C 0.52622 0.2804 0.38161 0.0
C1970 C 0.50417 0.27959 0.37262 0.0
C1971 C 0.50068 0.27836 0.34928 0.0
H1972 H 0.96335 0.31015 0.73738 0.0
H1973 H 0.03309 0.30054 0.75683 0.0
H1974 H 0.97446 0.31154 0.69765 0.0
H1975 H 0.04433 0.30169 0.71682 0.0
H1976 H 0.05455 0.31685 0.63941 0.0
H1977 H 0.04562 0.3242 0.6795 0.0
H1978 H 0.98796 0.27943 0.67447 0.0
H1979 H 0.99648 0.2726 0.63497 0.0
C1980 C 0.98111 0.3086 0.7331 0.0
C1981 C -0.00268 0.30482 0.75007 0.0
C1982 C 0.98748 0.3094 0.71041 0.0
C1983 C 0.0102 0.30628 0.70415 0.0
C1984 C 0.0267 0.30419 0.72119 0.0
C1985 C 0.02029 0.30351 0.74404 0.0
C1986 C 0.03996 0.30873 0.64699 0.0
C1987 C 0.02638 0.29398 0.63415 0.0
C1988 C 0.03492 0.31284 0.66986 0.0
C1989 C 0.01598 0.30255 0.68001 0.0
C1990 C 0.00246 0.2879 0.66705 0.0
C1991 C 0.00757 0.28369 0.64446 0.0
loop_
_geom_bond_atom_site_label_1
_geom_bond_atom_site_label_2
_geom_bond_distance
_geom_bond_site_symmetry_2
_ccdc_geom_bond_type
C0 C1 1.351 1_455 S
C0 N3 1.368 . S
C0 H5 0.931 . S
C1 C0 1.351 1_655 S
C1 N2 1.373 . S
C1 H29 0.930 . S
N2 C1 1.373 . S
N2 C4 1.340 . S
N3 C0 1.368 . S
N3 C4 1.321 1_455 S
N3 Co6 2.135 . S
C4 N2 1.340 . S
C4 N3 1.321 1_655 S
C4 H28 0.930 . S
H5 C0 0.931 . S
Co6 N3 2.135 . S
Co6 N9 2.121 . S
Co6 O14 2.055 . S
Co6 O17 2.039 . S
Co6 N20 2.140 . S
C7 O8 1.227 1_655 S
C7 O17 1.265 1_655 S
O8 C7 1.227 1_455 S
N9 Co6 2.121 . S
N9 C11 1.375 . S
N9 C12 1.313 . S
C10 C11 1.338 . S
C10 N13 1.377 . S
C10 H30 0.930 . S
C11 N9 1.375 . S
C11 C10 1.338 . S
C11 H15 0.931 . S
C12 N9 1.313 . S
C12 N13 1.344 . S
C12 H16 0.930 . S
N13 C10 1.377 . S
N13 C12 1.344 . S
O14 Co6 2.055 . S
O14 C18 1.253 . S
H15 C11 0.931 . S
H16 C12 0.930 . S
O17 Co6 2.039 . S
O17 C7 1.265 1_455 S
C18 O14 1.253 . S
C18 O19 1.227 . S
O19 C18 1.227 . S
N20 Co6 2.140 . S
N20 C23 1.346 . S
N20 C24 1.345 . S
C21 C22 1.387 . S
C21 C25 1.391 1_565 S
C22 C21 1.387 . S
C22 C23 1.369 1_565 S
C22 H31 0.929 . S
C23 N20 1.346 . S
C23 C22 1.369 1_545 S
C23 H26 0.928 . S
C24 N20 1.345 . S
C24 C25 1.371 . S
C24 H27 0.931 . S
C25 C21 1.391 1_545 S
C25 C24 1.371 . S
C25 H32 0.930 . S
H26 C23 0.928 . S
H27 C24 0.931 . S
H28 C4 0.930 . S
H29 C1 0.930 . S
H30 C10 0.930 . S
H31 C22 0.929 . S
H32 C25 0.930 . S
C33 C34 1.351 . S
C33 N36 1.368 . S
C33 H38 0.931 . S
C34 C33 1.351 . S
C34 N35 1.373 . S
C34 H62 0.930 . S
N35 C34 1.373 . S
N35 C37 1.340 . S
N36 C33 1.368 . S
N36 C37 1.321 . S
N36 Co39 2.135 1_554 S
C37 N35 1.340 . S
C37 N36 1.321 . S
C37 H61 0.930 1_554 S
H38 C33 0.931 . S
Co39 N36 2.135 1_556 S
Co39 N42 2.121 . S
Co39 O47 2.055 . S
Co39 O50 2.039 . S
Co39 N53 2.140 . S
C40 O41 1.227 . S
C40 O50 1.265 . S
O41 C40 1.227 . S
N42 Co39 2.121 . S
N42 C44 1.375 . S
N42 C45 1.313 . S
C43 C44 1.338 . S
C43 N46 1.377 . S
C43 H63 0.930 . S
C44 N42 1.375 . S
C44 C43 1.338 . S
C44 H48 0.931 . S
C45 N42 1.313 . S
C45 N46 1.344 . S
C45 H49 0.930 . S
N46 C43 1.377 . S
N46 C45 1.344 . S
O47 Co39 2.055 . S
O47 C51 1.253 . S
H48 C44 0.931 . S
H49 C45 0.930 . S
O50 Co39 2.039 . S
O50 C40 1.265 . S
C51 O47 1.253 . S
C51 O52 1.227 1_556 S
O52 C51 1.227 1_554 S
N53 Co39 2.140 . S
N53 C56 1.346 . S
N53 C57 1.345 . S
C54 C55 1.387 1_554 S
C54 C58 1.391 1_554 S
C55 C54 1.387 1_556 S
C55 C56 1.369 . S
C55 H64 0.929 1_556 S
C56 N53 1.346 . S
C56 C55 1.369 . S
C56 H59 0.928 . S
C57 N53 1.345 . S
C57 C58 1.371 . S
C57 H60 0.931 . S
C58 C54 1.391 1_556 S
C58 C57 1.371 . S
C58 H65 0.930 . S
H59 C56 0.928 . S
H60 C57 0.931 . S
H61 C37 0.930 1_556 S
H62 C34 0.930 . S
H63 C43 0.930 . S
H64 C55 0.929 1_554 S
H65 C58 0.930 . S
C66 C67 1.351 . S
C66 N69 1.368 . S
C66 H71 0.931 . S
C67 C66 1.351 . S
C67 N68 1.373 . S
C67 H95 0.930 . S
N68 C67 1.373 . S
N68 C70 1.340 . S
N69 C66 1.368 . S
N69 C70 1.321 . S
N69 Co72 2.135 . S
C70 N68 1.340 . S
C70 N69 1.321 . S
C70 H94 0.930 . S
H71 C66 0.931 . S
Co72 N69 2.135 . S
Co72 N75 2.121 . S
Co72 O80 2.055 1_545 S
Co72 O83 2.039 . S
Co72 N86 2.140 . S
C73 O74 1.227 . S
C73 O83 1.265 . S
O74 C73 1.227 . S
N75 Co72 2.121 . S
N75 C77 1.375 . S
N75 C78 1.343 . S
C76 C77 1.338 . S
C76 N79 1.377 . S
C76 H96 0.930 . S
C77 N75 1.375 . S
C77 C76 1.338 . S
C77 H81 0.931 . S
C78 N75 1.343 . S
C78 N79 1.350 . S
C78 H82 0.900 1_545 S
N79 C76 1.377 . S
N79 C78 1.350 . S
O80 Co72 2.055 1_565 S
O80 C84 1.253 . S
H81 C77 0.931 . S
H82 C78 0.900 1_565 S
O83 Co72 2.039 . S
O83 C73 1.265 . S
C84 O80 1.253 . S
C84 O85 1.227 1_565 S
O85 C84 1.227 1_545 S
N86 Co72 2.140 . S
N86 C89 1.346 . S
N86 C90 1.345 . S
C87 C88 1.387 . S
C87 C91 1.391 . S
C88 C87 1.387 . S
C88 C89 1.369 . S
C88 H97 0.929 . S
C89 N86 1.346 . S
C89 C88 1.369 . S
C89 H92 0.928 . S
C90 N86 1.345 . S
C90 C91 1.371 . S
C90 H93 0.931 . S
C91 C87 1.391 . S
C91 C90 1.371 . S
C91 H98 0.930 . S
H92 C89 0.928 . S
H93 C90 0.931 . S
H94 C70 0.930 . S
H95 C67 0.930 . S
H96 C76 0.930 . S
H97 C88 0.929 . S
H98 C91 0.930 . S
C99 C100 1.351 . S
C99 N102 1.368 . S
C99 H104 0.931 . S
C100 C99 1.351 . S
C100 N101 1.373 . S
C100 H128 0.930 . S
N101 C100 1.373 . S
N101 C103 1.340 . S
N102 C99 1.368 . S
N102 C103 1.321 . S
N102 Co105 2.135 . S
C103 N101 1.340 . S
C103 N102 1.321 . S
C103 H127 0.930 . S
H104 C99 0.931 . S
Co105 N102 2.135 . S
Co105 N108 2.121 . S
Co105 O113 2.055 . S
Co105 O116 2.039 . S
Co105 N119 2.140 . S
C106 O107 1.227 . S
C106 O116 1.265 . S
O107 C106 1.227 . S
N108 Co105 2.121 . S
N108 C110 1.375 . S
N108 C111 1.313 . S
C109 C110 1.338 . S
C109 N112 1.377 . S
C109 H129 0.930 . S
C110 N108 1.375 . S
C110 C109 1.338 . S
C110 H114 0.931 . S
C111 N108 1.313 . S
C111 N112 1.344 . S
C111 H115 0.930 . S
N112 C109 1.377 . S
N112 C111 1.344 . S
O113 Co105 2.055 . S
O113 C117 1.253 . S
H114 C110 0.931 . S
H115 C111 0.930 . S
O116 Co105 2.039 . S
O116 C106 1.265 . S
C117 O113 1.253 . S
C117 O118 1.227 . S
O118 C117 1.227 . S
N119 Co105 2.140 . S
N119 C122 1.346 . S
N119 C123 1.345 . S
C120 C121 1.387 . S
C120 C124 1.391 . S
C121 C120 1.387 . S
C121 C122 1.369 . S
C121 H130 0.929 . S
C122 N119 1.346 . S
C122 C121 1.369 . S
C122 H125 0.928 . S
C123 N119 1.345 . S
C123 C124 1.371 . S
C123 H126 0.931 . S
C124 C120 1.391 . S
C124 C123 1.371 . S
C124 H131 0.930 . S
H125 C122 0.928 . S
H126 C123 0.931 . S
H127 C103 0.930 . S
H128 C100 0.930 . S
H129 C109 0.930 . S
H130 C121 0.929 . S
H131 C124 0.930 . S
C132 C133 1.351 . S
C132 N135 1.368 . S
C132 H137 0.931 . S
C133 C132 1.351 . S
C133 N134 1.373 . S
C133 H161 0.930 . S
N134 C133 1.373 . S
N134 C136 1.340 . S
N135 C132 1.368 . S
N135 C136 1.321 . S
N135 Co138 2.135 . S
C136 N134 1.340 . S
C136 N135 1.321 . S
C136 H160 0.930 . S
H137 C132 0.931 . S
Co138 N135 2.135 . S
Co138 N141 2.121 . S
Co138 O146 2.055 . S
Co138 O149 2.039 . S
Co138 N152 2.140 . S
C139 O140 1.227 . S
C139 O149 1.265 . S
O140 C139 1.227 . S
N141 Co138 2.121 . S
N141 C143 1.375 . S
N141 C144 1.313 . S
C142 C143 1.338 . S
C142 N145 1.377 . S
C142 H162 0.930 . S
C143 N141 1.375 . S
C143 C142 1.338 . S
C143 H147 0.931 . S
C144 N141 1.313 . S
C144 N145 1.344 . S
C144 H148 0.930 . S
N145 C142 1.377 . S
N145 C144 1.344 . S
O146 Co138 2.055 . S
O146 C150 1.253 . S
H147 C143 0.931 . S
H148 C144 0.930 . S
O149 Co138 2.039 . S
O149 C139 1.265 . S
C150 O146 1.253 . S
C150 O151 1.227 . S
O151 C150 1.227 . S
N152 Co138 2.140 . S
N152 C155 1.346 . S
N152 C156 1.345 . S
C153 C154 1.387 . S
C153 C157 1.391 . S
C154 C153 1.387 . S
C154 C155 1.369 . S
C154 H163 0.929 . S
C155 N152 1.346 . S
C155 C154 1.369 . S
C155 H158 0.928 . S
C156 N152 1.345 . S
C156 C157 1.371 . S
C156 H159 0.931 . S
C157 C153 1.391 . S
C157 C156 1.371 . S
C157 H164 0.930 . S
H158 C155 0.928 . S
H159 C156 0.931 . S
H160 C136 0.930 . S
H161 C133 0.930 . S
H162 C142 0.930 . S
H163 C154 0.929 . S
H164 C157 0.930 . S
C165 C166 1.351 . S
C165 N168 1.368 . S
C165 H170 0.931 . S
C166 C165 1.351 . S
C166 N167 1.373 . S
C166 H194 0.930 . S
N167 C166 1.373 . S
N167 C169 1.340 . S
N168 C165 1.368 . S
N168 C169 1.321 . S
N168 Co171 2.135 . S
C169 N167 1.340 . S
C169 N168 1.321 . S
C169 H193 0.930 . S
H170 C165 0.931 . S
Co171 N168 2.135 . S
Co171 N174 2.121 . S
Co171 O179 2.055 . S
Co171 O182 2.039 . S
Co171 N185 2.140 . S
C172 O173 1.227 . S
C172 O182 1.265 . S
O173 C172 1.227 . S
N174 Co171 2.121 . S
N174 C176 1.375 . S
N174 C177 1.313 . S
C175 C176 1.338 . S
C175 N178 1.377 . S
C175 H195 0.930 . S
C176 N174 1.375 . S
C176 C175 1.338 . S
C176 H180 0.931 . S
C177 N174 1.313 . S
C177 N178 1.344 . S
C177 H181 0.930 . S
N178 C175 1.377 . S
N178 C177 1.344 . S
O179 Co171 2.055 . S
O179 C183 1.253 . S
H180 C176 0.931 . S
H181 C177 0.930 . S
O182 Co171 2.039 . S
O182 C172 1.265 . S
C183 O179 1.253 . S
C183 O184 1.227 . S
O184 C183 1.227 . S
N185 Co171 2.140 . S
N185 C188 1.346 . S
N185 C189 1.345 . S
C186 C187 1.387 . S
C186 C190 1.391 . S
C187 C186 1.387 . S
C187 C188 1.369 . S
C187 H196 0.929 . S
C188 N185 1.346 . S
C188 C187 1.369 . S
C188 H191 0.928 . S
C189 N185 1.345 . S
C189 C190 1.371 . S
C189 H192 0.931 . S
C190 C186 1.391 . S
C190 C189 1.371 . S
C190 H197 0.930 . S
H191 C188 0.928 . S
H192 C189 0.931 . S
H193 C169 0.930 . S
H194 C166 0.930 . S
H195 C175 0.930 . S
H196 C187 0.929 . S
H197 C190 0.930 . S
C198 C199 1.351 . S
C198 N201 1.368 . S
C198 H203 0.931 . S
C199 C198 1.351 . S
C199 N200 1.373 . S
C199 H227 0.930 . S
N200 C199 1.373 . S
N200 C202 1.340 . S
N201 C198 1.368 . S
N201 C202 1.321 . S
N201 Co204 2.135 . S
C202 N200 1.340 . S
C202 N201 1.321 . S
C202 H226 0.930 . S
H203 C198 0.931 . S
Co204 N201 2.135 . S
Co204 N207 2.121 . S
Co204 O212 2.055 . S
Co204 O215 2.039 . S
Co204 N218 2.140 . S
C205 O206 1.227 . S
C205 O215 1.265 . S
O206 C205 1.227 . S
N207 Co204 2.121 . S
N207 C209 1.375 . S
N207 C210 1.313 . S
C208 C209 1.338 . S
C208 N211 1.377 1_455 S
C208 H228 0.930 1_455 S
C209 N207 1.375 . S
C209 C208 1.338 . S
C209 H213 0.931 . S
C210 N207 1.313 . S
C210 N211 1.344 1_455 S
C210 H214 0.930 . S
N211 C208 1.377 1_655 S
N211 C210 1.344 1_655 S
O212 Co204 2.055 . S
O212 C216 1.253 . S
H213 C209 0.931 . S
H214 C210 0.930 . S
O215 Co204 2.039 . S
O215 C205 1.265 . S
C216 O212 1.253 . S
C216 O217 1.227 . S
O217 C216 1.227 . S
N218 Co204 2.140 . S
N218 C221 1.346 . S
N218 C222 1.345 . S
C219 C220 1.387 . S
C219 C223 1.391 1_455 S
C220 C219 1.387 . S
C220 C221 1.369 . S
C220 H229 0.929 . S
C221 N218 1.346 . S
C221 C220 1.369 . S
C221 H224 0.928 . S
C222 N218 1.345 . S
C222 C223 1.371 1_455 S
C222 H225 0.910 1_455 S
C223 C219 1.391 1_655 S
C223 C222 1.371 1_655 S
C223 H230 0.930 . S
H224 C221 0.928 . S
H225 C222 0.910 1_655 S
H226 C202 0.930 . S
H227 C199 0.930 . S
H228 C208 0.930 1_655 S
H229 C220 0.929 . S
H230 C223 0.930 . S
C231 C232 1.351 . S
C231 N234 1.368 . S
C231 H236 0.931 . S
C232 C231 1.351 . S
C232 N233 1.373 . S
C232 H260 0.930 . S
N233 C232 1.373 . S
N233 C235 1.340 . S
N234 C231 1.368 . S
N234 C235 1.321 . S
N234 Co237 2.135 . S
C235 N233 1.340 . S
C235 N234 1.321 . S
C235 H259 0.930 . S
H236 C231 0.931 . S
Co237 N234 2.135 . S
Co237 N240 2.121 . S
Co237 O245 2.055 . S
Co237 O248 2.039 . S
Co237 N251 2.140 . S
C238 O239 1.227 . S
C238 O248 1.265 . S
O239 C238 1.227 . S
N240 Co237 2.121 . S
N240 C242 1.375 . S
N240 C243 1.313 . S
C241 C242 1.338 . S
C241 N244 1.377 . S
C241 H261 0.930 . S
C242 N240 1.375 . S
C242 C241 1.338 . S
C242 H246 0.931 . S
C243 N240 1.313 . S
C243 N244 1.344 . S
C243 H247 0.930 . S
N244 C241 1.377 . S
N244 C243 1.344 . S
O245 Co237 2.055 . S
O245 C249 1.253 . S
H246 C242 0.931 . S
H247 C243 0.930 . S
O248 Co237 2.039 . S
O248 C238 1.265 . S
C249 O245 1.253 . S
C249 O250 1.227 . S
O250 C249 1.227 . S
N251 Co237 2.140 . S
N251 C254 1.346 . S
N251 C255 1.345 . S
C252 C253 1.387 . S
C252 C256 1.391 . S
C253 C252 1.387 . S
C253 C254 1.369 . S
C253 H262 0.929 . S
C254 N251 1.346 . S
C254 C253 1.369 . S
C254 H257 0.928 . S
C255 N251 1.345 . S
C255 C256 1.371 . S
C255 H258 0.931 . S
C256 C252 1.391 . S
C256 C255 1.371 . S
C256 H263 0.930 . S
H257 C254 0.928 . S
H258 C255 0.931 . S
H259 C235 0.930 . S
H260 C232 0.930 . S
H261 C241 0.930 . S
H262 C253 0.929 . S
H263 C256 0.930 . S
C264 C265 1.351 1_545 S
C264 N267 1.368 . S
C264 H269 0.931 . S
C265 C264 1.351 1_565 S
C265 N266 1.373 . S
C265 H293 0.930 . S
N266 C265 1.373 . S
N266 C268 1.340 . S
N267 C264 1.368 . S
N267 C268 1.321 1_545 S
N267 Co270 2.135 . S
C268 N266 1.340 . S
C268 N267 1.321 1_565 S
C268 H292 0.930 . S
H269 C264 0.931 . S
Co270 N267 2.135 . S
Co270 N273 2.121 . S
Co270 O278 2.055 . S
Co270 O281 2.039 . S
Co270 N284 2.140 . S
C271 O272 1.227 1_565 S
C271 O281 1.265 1_565 S
O272 C271 1.227 1_545 S
N273 Co270 2.121 . S
N273 C275 1.375 . S
N273 C276 1.313 . S
C274 C275 1.338 . S
C274 N277 1.377 . S
C274 H294 0.930 . S
C275 N273 1.375 . S
C275 C274 1.338 . S
C275 H279 0.931 . S
C276 N273 1.313 . S
C276 N277 1.344 . S
C276 H280 0.930 . S
N277 C274 1.377 . S
N277 C276 1.344 . S
O278 Co270 2.055 . S
O278 C282 1.253 . S
H279 C275 0.931 . S
H280 C276 0.930 . S
O281 Co270 2.039 . S
O281 C271 1.265 1_545 S
C282 O278 1.253 . S
C282 O283 1.227 . S
O283 C282 1.227 . S
N284 Co270 2.140 . S
N284 C287 1.346 . S
N284 C288 1.345 . S
C285 C286 1.387 . S
C285 C289 1.391 1_556 S
C286 C285 1.387 . S
C286 C287 1.369 1_556 S
C286 H295 0.929 . S
C287 N284 1.346 . S
C287 C286 1.369 1_554 S
C287 H290 0.928 . S
C288 N284 1.345 . S
C288 C289 1.371 . S
C288 H291 0.931 . S
C289 C285 1.391 1_554 S
C289 C288 1.371 . S
C289 H296 0.930 . S
H290 C287 0.928 . S
H291 C288 0.931 . S
H292 C268 0.930 . S
H293 C265 0.930 . S
H294 C274 0.930 . S
H295 C286 0.929 . S
H296 C289 0.930 . S
C297 C298 1.351 . S
C297 N300 1.368 . S
C297 H302 0.931 . S
C298 C297 1.351 . S
C298 N299 1.373 . S
C298 H326 0.930 . S
N299 C298 1.373 . S
N299 C301 1.340 . S
N300 C297 1.368 . S
N300 C301 1.321 . S
N300 Co303 2.135 . S
C301 N299 1.340 . S
C301 N300 1.321 . S
C301 H325 0.930 . S
H302 C297 0.931 . S
Co303 N300 2.135 . S
Co303 N306 2.121 . S
Co303 O311 2.055 . S
Co303 O314 2.039 . S
Co303 N317 2.140 . S
C304 O305 1.227 . S
C304 O314 1.265 . S
O305 C304 1.227 . S
N306 Co303 2.121 . S
N306 C308 1.375 . S
N306 C309 1.313 . S
C307 C308 1.338 . S
C307 N310 1.377 . S
C307 H327 0.930 . S
C308 N306 1.375 . S
C308 C307 1.338 . S
C308 H312 0.931 . S
C309 N306 1.313 . S
C309 N310 1.344 . S
C309 H313 0.930 . S
N310 C307 1.377 . S
N310 C309 1.344 . S
O311 Co303 2.055 . S
O311 C315 1.253 . S
H312 C308 0.931 . S
H313 C309 0.930 . S
O314 Co303 2.039 . S
O314 C304 1.265 . S
C315 O311 1.253 . S
C315 O316 1.227 . S
O316 C315 1.227 . S
N317 Co303 2.140 . S
N317 C320 1.346 . S
N317 C321 1.345 . S
C318 C319 1.387 . S
C318 C322 1.391 . S
C319 C318 1.387 . S
C319 C320 1.369 . S
C319 H328 0.929 . S
C320 N317 1.346 . S
C320 C319 1.369 . S
C320 H323 0.928 . S
C321 N317 1.345 . S
C321 C322 1.371 . S
C321 H324 0.931 . S
C322 C318 1.391 . S
C322 C321 1.371 . S
C322 H329 0.930 . S
H323 C320 0.928 . S
H324 C321 0.931 . S
H325 C301 0.930 . S
H326 C298 0.930 . S
H327 C307 0.930 . S
H328 C319 0.929 . S
H329 C322 0.930 . S
C330 C331 1.351 . S
C330 N333 1.368 . S
C330 H335 0.931 . S
C331 C330 1.351 . S
C331 N332 1.373 . S
C331 H359 0.930 . S
N332 C331 1.373 . S
N332 C334 1.340 . S
N333 C330 1.368 . S
N333 C334 1.321 . S
N333 Co336 2.135 . S
C334 N332 1.340 . S
C334 N333 1.321 . S
C334 H358 0.930 . S
H335 C330 0.931 . S
Co336 N333 2.135 . S
Co336 N339 2.121 . S
Co336 O344 2.055 . S
Co336 O347 2.039 . S
Co336 N350 2.140 . S
C337 O338 1.227 . S
C337 O347 1.265 . S
O338 C337 1.227 . S
N339 Co336 2.121 . S
N339 C341 1.375 . S
N339 C342 1.313 . S
C340 C341 1.338 . S
C340 N343 1.377 1_545 S
C340 H360 0.930 1_545 S
C341 N339 1.375 . S
C341 C340 1.338 . S
C341 H345 0.931 . S
C342 N339 1.313 . S
C342 N343 1.344 1_545 S
C342 H346 0.930 . S
N343 C340 1.377 1_565 S
N343 C342 1.344 1_565 S
O344 Co336 2.055 . S
O344 C348 1.253 . S
H345 C341 0.931 . S
H346 C342 0.930 . S
O347 Co336 2.039 . S
O347 C337 1.265 . S
C348 O344 1.253 . S
C348 O349 1.227 . S
O349 C348 1.227 . S
N350 Co336 2.140 . S
N350 C353 1.346 . S
N350 C354 1.345 . S
C351 C352 1.387 . S
C351 C355 1.391 1_545 S
C352 C351 1.387 . S
C352 C353 1.369 . S
C352 H361 0.929 . S
C353 N350 1.346 . S
C353 C352 1.369 . S
C353 H356 0.928 . S
C354 N350 1.345 . S
C354 C355 1.371 1_545 S
C354 H357 0.910 1_545 S
C355 C351 1.391 1_565 S
C355 C354 1.371 1_565 S
C355 H362 0.930 . S
H356 C353 0.928 . S
H357 C354 0.910 1_565 S
H358 C334 0.930 . S
H359 C331 0.930 . S
H360 C340 0.930 1_565 S
H361 C352 0.929 . S
H362 C355 0.930 . S
C363 C364 1.351 . S
C363 N366 1.368 . S
C363 H368 0.931 . S
C364 C363 1.351 . S
C364 N365 1.373 . S
C364 H392 0.930 . S
N365 C364 1.373 . S
N365 C367 1.340 . S
N366 C363 1.368 . S
N366 C367 1.321 . S
N366 Co369 2.135 . S
C367 N365 1.340 . S
C367 N366 1.321 . S
C367 H391 0.930 . S
H368 C363 0.931 . S
Co369 N366 2.135 . S
Co369 N372 2.121 . S
Co369 O377 2.055 . S
Co369 O380 2.039 . S
Co369 N383 2.140 . S
C370 O371 1.227 . S
C370 O380 1.265 . S
O371 C370 1.227 . S
N372 Co369 2.121 . S
N372 C374 1.375 . S
N372 C375 1.313 . S
C373 C374 1.338 . S
C373 N376 1.377 . S
C373 H393 0.930 . S
C374 N372 1.375 . S
C374 C373 1.338 . S
C374 H378 0.931 . S
C375 N372 1.313 . S
C375 N376 1.344 . S
C375 H379 0.930 . S
N376 C373 1.377 . S
N376 C375 1.344 . S
O377 Co369 2.055 . S
O377 C381 1.253 . S
H378 C374 0.931 . S
H379 C375 0.930 . S
O380 Co369 2.039 . S
O380 C370 1.265 . S
C381 O377 1.253 . S
C381 O382 1.227 . S
O382 C381 1.227 . S
N383 Co369 2.140 . S
N383 C386 1.346 . S
N383 C387 1.345 . S
C384 C385 1.387 . S
C384 C388 1.391 . S
C385 C384 1.387 . S
C385 C386 1.369 . S
C385 H394 0.929 . S
C386 N383 1.346 . S
C386 C385 1.369 . S
C386 H389 0.928 . S
C387 N383 1.345 . S
C387 C388 1.371 . S
C387 H390 0.931 . S
C388 C384 1.391 . S
C388 C387 1.371 . S
C388 H395 0.930 . S
H389 C386 0.928 . S
H390 C387 0.931 . S
H391 C367 0.930 . S
H392 C364 0.930 . S
H393 C373 0.930 . S
H394 C385 0.929 . S
H395 C388 0.930 . S
C396 C397 1.351 . S
C396 N399 1.368 . S
C396 H401 0.931 . S
C397 C396 1.351 . S
C397 N398 1.373 . S
C397 H425 0.930 . S
N398 C397 1.373 . S
N398 C400 1.340 . S
N399 C396 1.368 . S
N399 C400 1.321 . S
N399 Co402 2.135 . S
C400 N398 1.340 . S
C400 N399 1.321 . S
C400 H424 0.930 . S
H401 C396 0.931 . S
Co402 N399 2.135 . S
Co402 N405 2.121 . S
Co402 O410 2.055 1_554 S
Co402 O413 2.039 . S
Co402 N416 2.140 . S
C403 O404 1.227 . S
C403 O413 1.265 . S
O404 C403 1.227 . S
N405 Co402 2.121 . S
N405 C407 1.375 . S
N405 C408 1.343 . S
C406 C407 1.338 . S
C406 N409 1.377 . S
C406 H426 0.930 . S
C407 N405 1.375 . S
C407 C406 1.338 . S
C407 H411 0.931 . S
C408 N405 1.343 . S
C408 N409 1.350 . S
C408 H412 0.900 1_554 S
N409 C406 1.377 . S
N409 C408 1.350 . S
O410 Co402 2.055 1_556 S
O410 C414 1.253 . S
H411 C407 0.931 . S
H412 C408 0.900 1_556 S
O413 Co402 2.039 . S
O413 C403 1.265 . S
C414 O410 1.253 . S
C414 O415 1.227 1_556 S
O415 C414 1.227 1_554 S
N416 Co402 2.140 . S
N416 C419 1.346 . S
N416 C420 1.345 . S
C417 C418 1.387 . S
C417 C421 1.391 . S
C418 C417 1.387 . S
C418 C419 1.369 . S
C418 H427 0.929 . S
C419 N416 1.346 . S
C419 C418 1.369 . S
C419 H422 0.928 . S
C420 N416 1.345 . S
C420 C421 1.371 . S
C420 H423 0.931 . S
C421 C417 1.391 . S
C421 C420 1.371 . S
C421 H428 0.930 . S
H422 C419 0.928 . S
H423 C420 0.931 . S
H424 C400 0.930 . S
H425 C397 0.930 . S
H426 C406 0.930 . S
H427 C418 0.929 . S
H428 C421 0.930 . S
C429 C430 1.351 . S
C429 N432 1.368 . S
C429 H434 0.931 . S
C430 C429 1.351 . S
C430 N431 1.373 . S
C430 H458 0.930 . S
N431 C430 1.373 . S
N431 C433 1.340 . S
N432 C429 1.368 . S
N432 C433 1.321 . S
N432 Co435 2.135 1_545 S
C433 N431 1.340 . S
C433 N432 1.321 . S
C433 H457 0.930 1_545 S
H434 C429 0.931 . S
Co435 N432 2.135 1_565 S
Co435 N438 2.121 . S
Co435 O443 2.055 . S
Co435 O446 2.039 . S
Co435 N449 2.140 . S
C436 O437 1.227 . S
C436 O446 1.265 . S
O437 C436 1.227 . S
N438 Co435 2.121 . S
N438 C440 1.375 . S
N438 C441 1.313 . S
C439 C440 1.338 . S
C439 N442 1.377 . S
C439 H459 0.930 . S
C440 N438 1.375 . S
C440 C439 1.338 . S
C440 H444 0.931 . S
C441 N438 1.313 . S
C441 N442 1.344 . S
C441 H445 0.930 . S
N442 C439 1.377 . S
N442 C441 1.344 . S
O443 Co435 2.055 . S
O443 C447 1.253 . S
H444 C440 0.931 . S
H445 C441 0.930 . S
O446 Co435 2.039 . S
O446 C436 1.265 . S
C447 O443 1.253 . S
C447 O448 1.227 1_565 S
O448 C447 1.227 1_545 S
N449 Co435 2.140 . S
N449 C452 1.346 . S
N449 C453 1.345 . S
C450 C451 1.387 1_545 S
C450 C454 1.391 1_545 S
C451 C450 1.387 1_565 S
C451 C452 1.369 . S
C451 H460 0.929 1_565 S
C452 N449 1.346 . S
C452 C451 1.369 . S
C452 H455 0.928 . S
C453 N449 1.345 . S
C453 C454 1.371 . S
C453 H456 0.931 . S
C454 C450 1.391 1_565 S
C454 C453 1.371 . S
C454 H461 0.930 . S
H455 C452 0.928 . S
H456 C453 0.931 . S
H457 C433 0.930 1_565 S
H458 C430 0.930 . S
H459 C439 0.930 . S
H460 C451 0.929 1_545 S
H461 C454 0.930 . S
C462 C463 1.351 . S
C462 N465 1.368 . S
C462 H467 0.931 . S
C463 C462 1.351 . S
C463 N464 1.373 . S
C463 H491 0.930 . S
N464 C463 1.373 . S
N464 C466 1.340 . S
N465 C462 1.368 . S
N465 C466 1.321 . S
N465 Co468 2.135 . S
C466 N464 1.340 . S
C466 N465 1.321 . S
C466 H490 0.930 . S
H467 C462 0.931 . S
Co468 N465 2.135 . S
Co468 N471 2.121 . S
Co468 O476 2.055 . S
Co468 O479 2.039 . S
Co468 N482 2.140 . S
C469 O470 1.227 . S
C469 O479 1.265 . S
O470 C469 1.227 . S
N471 Co468 2.121 . S
N471 C473 1.375 . S
N471 C474 1.313 . S
C472 C473 1.338 . S
C472 N475 1.377 . S
C472 H492 0.930 . S
C473 N471 1.375 . S
C473 C472 1.338 . S
C473 H477 0.931 . S
C474 N471 1.313 . S
C474 N475 1.344 . S
C474 H478 0.930 . S
N475 C472 1.377 . S
N475 C474 1.344 . S
O476 Co468 2.055 . S
O476 C480 1.253 . S
H477 C473 0.931 . S
H478 C474 0.930 . S
O479 Co468 2.039 . S
O479 C469 1.265 . S
C480 O476 1.253 . S
C480 O481 1.227 . S
O481 C480 1.227 . S
N482 Co468 2.140 . S
N482 C485 1.346 . S
N482 C486 1.345 . S
C483 C484 1.387 . S
C483 C487 1.391 . S
C484 C483 1.387 . S
C484 C485 1.369 . S
C484 H493 0.929 . S
C485 N482 1.346 . S
C485 C484 1.369 . S
C485 H488 0.928 . S
C486 N482 1.345 . S
C486 C487 1.371 . S
C486 H489 0.931 . S
C487 C483 1.391 . S
C487 C486 1.371 . S
C487 H494 0.930 . S
H488 C485 0.928 . S
H489 C486 0.931 . S
H490 C466 0.930 . S
H491 C463 0.930 . S
H492 C472 0.930 . S
H493 C484 0.929 . S
H494 C487 0.930 . S
C495 C496 1.351 . S
C495 N498 1.368 . S
C495 H500 0.931 . S
C496 C495 1.351 . S
C496 N497 1.373 . S
C496 H524 0.930 . S
N497 C496 1.373 . S
N497 C499 1.340 . S
N498 C495 1.368 . S
N498 C499 1.321 . S
N498 Co501 2.135 . S
C499 N497 1.340 . S
C499 N498 1.321 . S
C499 H523 0.930 . S
H500 C495 0.931 . S
Co501 N498 2.135 . S
Co501 N504 2.121 . S
Co501 O509 2.055 . S
Co501 O512 2.039 . S
Co501 N515 2.140 . S
C502 O503 1.227 . S
C502 O512 1.265 . S
O503 C502 1.227 . S
N504 Co501 2.121 . S
N504 C506 1.375 . S
N504 C507 1.313 . S
C505 C506 1.338 . S
C505 N508 1.377 . S
C505 H525 0.930 . S
C506 N504 1.375 . S
C506 C505 1.338 . S
C506 H510 0.931 . S
C507 N504 1.313 . S
C507 N508 1.344 . S
C507 H511 0.930 . S
N508 C505 1.377 . S
N508 C507 1.344 . S
O509 Co501 2.055 . S
O509 C513 1.253 . S
H510 C506 0.931 . S
H511 C507 0.930 . S
O512 Co501 2.039 . S
O512 C502 1.265 . S
C513 O509 1.253 . S
C513 O514 1.227 . S
O514 C513 1.227 . S
N515 Co501 2.140 . S
N515 C518 1.346 . S
N515 C519 1.345 . S
C516 C517 1.387 . S
C516 C520 1.391 . S
C517 C516 1.387 . S
C517 C518 1.369 . S
C517 H526 0.929 . S
C518 N515 1.346 . S
C518 C517 1.369 . S
C518 H521 0.928 . S
C519 N515 1.345 . S
C519 C520 1.371 . S
C519 H522 0.931 . S
C520 C516 1.391 . S
C520 C519 1.371 . S
C520 H527 0.930 . S
H521 C518 0.928 . S
H522 C519 0.931 . S
H523 C499 0.930 . S
H524 C496 0.930 . S
H525 C505 0.930 . S
H526 C517 0.929 . S
H527 C520 0.930 . S
C528 C529 1.351 1_554 S
C528 N531 1.368 . S
C528 H533 0.931 . S
C529 C528 1.351 1_556 S
C529 N530 1.373 . S
C529 H557 0.930 . S
N530 C529 1.373 . S
N530 C532 1.340 . S
N531 C528 1.368 . S
N531 C532 1.321 1_554 S
N531 Co534 2.135 . S
C532 N530 1.340 . S
C532 N531 1.321 1_556 S
C532 H556 0.930 . S
H533 C528 0.931 . S
Co534 N531 2.135 . S
Co534 N537 2.121 . S
Co534 O542 2.055 . S
Co534 O545 2.039 . S
Co534 N548 2.140 . S
C535 O536 1.227 1_556 S
C535 O545 1.265 1_556 S
O536 C535 1.227 1_554 S
N537 Co534 2.121 . S
N537 C539 1.375 . S
N537 C540 1.313 . S
C538 C539 1.338 . S
C538 N541 1.377 . S
C538 H558 0.930 . S
C539 N537 1.375 . S
C539 C538 1.338 . S
C539 H543 0.931 . S
C540 N537 1.313 . S
C540 N541 1.344 . S
C540 H544 0.930 . S
N541 C538 1.377 . S
N541 C540 1.344 . S
O542 Co534 2.055 . S
O542 C546 1.253 . S
H543 C539 0.931 . S
H544 C540 0.930 . S
O545 Co534 2.039 . S
O545 C535 1.265 1_554 S
C546 O542 1.253 . S
C546 O547 1.227 . S
O547 C546 1.227 . S
N548 Co534 2.140 . S
N548 C551 1.346 . S
N548 C552 1.345 . S
C549 C550 1.387 . S
C549 C553 1.391 1_655 S
C550 C549 1.387 . S
C550 C551 1.369 1_655 S
C550 H559 0.929 . S
C551 N548 1.346 . S
C551 C550 1.369 1_455 S
C551 H554 0.928 . S
C552 N548 1.345 . S
C552 C553 1.371 . S
C552 H555 0.931 . S
C553 C549 1.391 1_455 S
C553 C552 1.371 . S
C553 H560 0.930 . S
H554 C551 0.928 . S
H555 C552 0.931 . S
H556 C532 0.930 . S
H557 C529 0.930 . S
H558 C538 0.930 . S
H559 C550 0.929 . S
H560 C553 0.930 . S
C561 C562 1.351 . S
C561 N564 1.368 . S
C561 H566 0.931 . S
C562 C561 1.351 . S
C562 N563 1.373 . S
C562 H590 0.930 . S
N563 C562 1.373 . S
N563 C565 1.340 . S
N564 C561 1.368 . S
N564 C565 1.321 . S
N564 Co567 2.135 . S
C565 N563 1.340 . S
C565 N564 1.321 . S
C565 H589 0.930 . S
H566 C561 0.931 . S
Co567 N564 2.135 . S
Co567 N570 2.121 . S
Co567 O575 2.055 . S
Co567 O578 2.039 . S
Co567 N581 2.140 . S
C568 O569 1.227 . S
C568 O578 1.265 . S
O569 C568 1.227 . S
N570 Co567 2.121 . S
N570 C572 1.375 . S
N570 C573 1.313 . S
C571 C572 1.338 . S
C571 N574 1.377 1_554 S
C571 H591 0.930 1_554 S
C572 N570 1.375 . S
C572 C571 1.338 . S
C572 H576 0.931 . S
C573 N570 1.313 . S
C573 N574 1.344 1_554 S
C573 H577 0.930 . S
N574 C571 1.377 1_556 S
N574 C573 1.344 1_556 S
O575 Co567 2.055 . S
O575 C579 1.253 . S
H576 C572 0.931 . S
H577 C573 0.930 . S
O578 Co567 2.039 . S
O578 C568 1.265 . S
C579 O575 1.253 . S
C579 O580 1.227 . S
O580 C579 1.227 . S
N581 Co567 2.140 . S
N581 C584 1.346 . S
N581 C585 1.345 . S
C582 C583 1.387 . S
C582 C586 1.391 1_554 S
C583 C582 1.387 . S
C583 C584 1.369 . S
C583 H592 0.929 . S
C584 N581 1.346 . S
C584 C583 1.369 . S
C584 H587 0.928 . S
C585 N581 1.345 . S
C585 C586 1.371 1_554 S
C585 H588 0.910 1_554 S
C586 C582 1.391 1_556 S
C586 C585 1.371 1_556 S
C586 H593 0.930 . S
H587 C584 0.928 . S
H588 C585 0.910 1_556 S
H589 C565 0.930 . S
H590 C562 0.930 . S
H591 C571 0.930 1_556 S
H592 C583 0.929 . S
H593 C586 0.930 . S
C594 C595 1.351 . S
C594 N597 1.368 . S
C594 H599 0.931 . S
C595 C594 1.351 . S
C595 N596 1.373 . S
C595 H623 0.930 . S
N596 C595 1.373 . S
N596 C598 1.340 . S
N597 C594 1.368 . S
N597 C598 1.321 . S
N597 Co600 2.135 . S
C598 N596 1.340 . S
C598 N597 1.321 . S
C598 H622 0.930 . S
H599 C594 0.931 . S
Co600 N597 2.135 . S
Co600 N603 2.121 . S
Co600 O608 2.055 . S
Co600 O611 2.039 . S
Co600 N614 2.140 . S
C601 O602 1.227 . S
C601 O611 1.265 . S
O602 C601 1.227 . S
N603 Co600 2.121 . S
N603 C605 1.375 . S
N603 C606 1.313 . S
C604 C605 1.338 . S
C604 N607 1.377 . S
C604 H624 0.930 . S
C605 N603 1.375 . S
C605 C604 1.338 . S
C605 H609 0.931 . S
C606 N603 1.313 . S
C606 N607 1.344 . S
C606 H610 0.930 . S
N607 C604 1.377 . S
N607 C606 1.344 . S
O608 Co600 2.055 . S
O608 C612 1.253 . S
H609 C605 0.931 . S
H610 C606 0.930 . S
O611 Co600 2.039 . S
O611 C601 1.265 . S
C612 O608 1.253 . S
C612 O613 1.227 . S
O613 C612 1.227 . S
N614 Co600 2.140 . S
N614 C617 1.346 . S
N614 C618 1.345 . S
C615 C616 1.387 . S
C615 C619 1.391 . S
C616 C615 1.387 . S
C616 C617 1.369 . S
C616 H625 0.929 . S
C617 N614 1.346 . S
C617 C616 1.369 . S
C617 H620 0.928 . S
C618 N614 1.345 . S
C618 C619 1.371 . S
C618 H621 0.931 . S
C619 C615 1.391 . S
C619 C618 1.371 . S
C619 H626 0.930 . S
H620 C617 0.928 . S
H621 C618 0.931 . S
H622 C598 0.930 . S
H623 C595 0.930 . S
H624 C604 0.930 . S
H625 C616 0.929 . S
H626 C619 0.930 . S
C627 C628 1.351 . S
C627 N630 1.368 . S
C627 H632 0.931 . S
C628 C627 1.351 . S
C628 N629 1.373 . S
C628 H656 0.930 . S
N629 C628 1.373 . S
N629 C631 1.340 . S
N630 C627 1.368 . S
N630 C631 1.321 . S
N630 Co633 2.135 . S
C631 N629 1.340 . S
C631 N630 1.321 . S
C631 H655 0.930 . S
H632 C627 0.931 . S
Co633 N630 2.135 . S
Co633 N636 2.121 . S
Co633 O641 2.055 1_455 S
Co633 O644 2.039 . S
Co633 N647 2.140 . S
C634 O635 1.227 . S
C634 O644 1.265 . S
O635 C634 1.227 . S
N636 Co633 2.121 . S
N636 C638 1.375 . S
N636 C639 1.343 . S
C637 C638 1.338 . S
C637 N640 1.377 . S
C637 H657 0.930 . S
C638 N636 1.375 . S
C638 C637 1.338 . S
C638 H642 0.931 . S
C639 N636 1.343 . S
C639 N640 1.350 . S
C639 H643 0.900 1_455 S
N640 C637 1.377 . S
N640 C639 1.350 . S
O641 Co633 2.055 1_655 S
O641 C645 1.253 . S
H642 C638 0.931 . S
H643 C639 0.900 1_655 S
O644 Co633 2.039 . S
O644 C634 1.265 . S
C645 O641 1.253 . S
C645 O646 1.227 1_655 S
O646 C645 1.227 1_455 S
N647 Co633 2.140 . S
N647 C650 1.346 . S
N647 C651 1.345 . S
C648 C649 1.387 . S
C648 C652 1.391 . S
C649 C648 1.387 . S
C649 C650 1.369 . S
C649 H658 0.929 . S
C650 N647 1.346 . S
C650 C649 1.369 . S
C650 H653 0.928 . S
C651 N647 1.345 . S
C651 C652 1.371 . S
C651 H654 0.931 . S
C652 C648 1.391 . S
C652 C651 1.371 . S
C652 H659 0.930 . S
H653 C650 0.928 . S
H654 C651 0.931 . S
H655 C631 0.930 . S
H656 C628 0.930 . S
H657 C637 0.930 . S
H658 C649 0.929 . S
H659 C652 0.930 . S
C660 C661 1.351 . S
C660 N663 1.368 . S
C660 H665 0.931 . S
C661 C660 1.351 . S
C661 N662 1.373 . S
C661 H689 0.930 . S
N662 C661 1.373 . S
N662 C664 1.340 . S
N663 C660 1.368 . S
N663 C664 1.321 . S
N663 Co666 2.135 . S
C664 N662 1.340 . S
C664 N663 1.321 . S
C664 H688 0.930 . S
H665 C660 0.931 . S
Co666 N663 2.135 . S
Co666 N669 2.121 . S
Co666 O674 2.055 . S
Co666 O677 2.039 . S
Co666 N680 2.140 . S
C667 O668 1.227 . S
C667 O677 1.265 . S
O668 C667 1.227 . S
N669 Co666 2.121 . S
N669 C671 1.375 . S
N669 C672 1.313 . S
C670 C671 1.338 . S
C670 N673 1.377 . S
C670 H690 0.930 . S
C671 N669 1.375 . S
C671 C670 1.338 . S
C671 H675 0.931 . S
C672 N669 1.313 . S
C672 N673 1.344 . S
C672 H676 0.930 . S
N673 C670 1.377 . S
N673 C672 1.344 . S
O674 Co666 2.055 . S
O674 C678 1.253 . S
H675 C671 0.931 . S
H676 C672 0.930 . S
O677 Co666 2.039 . S
O677 C667 1.265 . S
C678 O674 1.253 . S
C678 O679 1.227 . S
O679 C678 1.227 . S
N680 Co666 2.140 . S
N680 C683 1.346 . S
N680 C684 1.345 . S
C681 C682 1.387 . S
C681 C685 1.391 . S
C682 C681 1.387 . S
C682 C683 1.369 . S
C682 H691 0.929 . S
C683 N680 1.346 . S
C683 C682 1.369 . S
C683 H686 0.928 . S
C684 N680 1.345 . S
C684 C685 1.371 . S
C684 H687 0.931 . S
C685 C681 1.391 . S
C685 C684 1.371 . S
C685 H692 0.930 . S
H686 C683 0.928 . S
H687 C684 0.931 . S
H688 C664 0.930 . S
H689 C661 0.930 . S
H690 C670 0.930 . S
H691 C682 0.929 . S
H692 C685 0.930 . S
C693 C694 1.351 . S
C693 N696 1.368 . S
C693 H698 0.931 . S
C694 C693 1.351 . S
C694 N695 1.373 . S
C694 H722 0.930 . S
N695 C694 1.373 . S
N695 C697 1.340 . S
N696 C693 1.368 . S
N696 C697 1.321 . S
N696 Co699 2.135 . S
C697 N695 1.340 . S
C697 N696 1.321 . S
C697 H721 0.930 . S
H698 C693 0.931 . S
Co699 N696 2.135 . S
Co699 N702 2.121 . S
Co699 O707 2.055 . S
Co699 O710 2.039 . S
Co699 N713 2.140 . S
C700 O701 1.227 . S
C700 O710 1.265 . S
O701 C700 1.227 . S
N702 Co699 2.121 . S
N702 C704 1.375 . S
N702 C705 1.313 . S
C703 C704 1.338 . S
C703 N706 1.377 . S
C703 H723 0.930 . S
C704 N702 1.375 . S
C704 C703 1.338 . S
C704 H708 0.931 . S
C705 N702 1.313 . S
C705 N706 1.344 . S
C705 H709 0.930 . S
N706 C703 1.377 . S
N706 C705 1.344 . S
O707 Co699 2.055 . S
O707 C711 1.253 . S
H708 C704 0.931 . S
H709 C705 0.930 . S
O710 Co699 2.039 . S
O710 C700 1.265 . S
C711 O707 1.253 . S
C711 O712 1.227 . S
O712 C711 1.227 . S
N713 Co699 2.140 . S
N713 C716 1.346 . S
N713 C717 1.345 . S
C714 C715 1.387 . S
C714 C718 1.391 . S
C715 C714 1.387 . S
C715 C716 1.369 . S
C715 H724 0.929 . S
C716 N713 1.346 . S
C716 C715 1.369 . S
C716 H719 0.928 . S
C717 N713 1.345 . S
C717 C718 1.371 . S
C717 H720 0.931 . S
C718 C714 1.391 . S
C718 C717 1.371 . S
C718 H725 0.930 . S
H719 C716 0.928 . S
H720 C717 0.931 . S
H721 C697 0.930 . S
H722 C694 0.930 . S
H723 C703 0.930 . S
H724 C715 0.929 . S
H725 C718 0.930 . S
C726 C727 1.351 . S
C726 N729 1.368 . S
C726 H731 0.931 . S
C727 C726 1.351 . S
C727 N728 1.373 . S
C727 H755 0.930 . S
N728 C727 1.373 . S
N728 C730 1.340 . S
N729 C726 1.368 . S
N729 C730 1.321 . S
N729 Co732 2.135 1_455 S
C730 N728 1.340 . S
C730 N729 1.321 . S
C730 H754 0.930 1_455 S
H731 C726 0.931 . S
Co732 N729 2.135 1_655 S
Co732 N735 2.121 . S
Co732 O740 2.055 . S
Co732 O743 2.039 . S
Co732 N746 2.140 . S
C733 O734 1.227 . S
C733 O743 1.265 . S
O734 C733 1.227 . S
N735 Co732 2.121 . S
N735 C737 1.375 . S
N735 C738 1.313 . S
C736 C737 1.338 . S
C736 N739 1.377 . S
C736 H756 0.930 . S
C737 N735 1.375 . S
C737 C736 1.338 . S
C737 H741 0.931 . S
C738 N735 1.313 . S
C738 N739 1.344 . S
C738 H742 0.930 . S
N739 C736 1.377 . S
N739 C738 1.344 . S
O740 Co732 2.055 . S
O740 C744 1.253 . S
H741 C737 0.931 . S
H742 C738 0.930 . S
O743 Co732 2.039 . S
O743 C733 1.265 . S
C744 O740 1.253 . S
C744 O745 1.227 1_655 S
O745 C744 1.227 1_455 S
N746 Co732 2.140 . S
N746 C749 1.346 . S
N746 C750 1.345 . S
C747 C748 1.387 1_455 S
C747 C751 1.391 1_455 S
C748 C747 1.387 1_655 S
C748 C749 1.369 . S
C748 H757 0.929 1_655 S
C749 N746 1.346 . S
C749 C748 1.369 . S
C749 H752 0.928 . S
C750 N746 1.345 . S
C750 C751 1.371 . S
C750 H753 0.931 . S
C751 C747 1.391 1_655 S
C751 C750 1.371 . S
C751 H758 0.930 . S
H752 C749 0.928 . S
H753 C750 0.931 . S
H754 C730 0.930 1_655 S
H755 C727 0.930 . S
H756 C736 0.930 . S
H757 C748 0.929 1_455 S
H758 C751 0.930 . S
C759 C760 1.351 . S
C759 N762 1.368 . S
C759 H764 0.931 . S
C760 C759 1.351 . S
C760 N761 1.373 . S
C760 H788 0.930 . S
N761 C760 1.373 . S
N761 C763 1.340 . S
N762 C759 1.368 . S
N762 C763 1.321 . S
N762 Co765 2.135 . S
C763 N761 1.340 . S
C763 N762 1.321 . S
C763 H787 0.930 . S
H764 C759 0.931 . S
Co765 N762 2.135 . S
Co765 N768 2.121 . S
Co765 O773 2.055 . S
Co765 O776 2.039 . S
Co765 N779 2.140 . S
C766 O767 1.227 . S
C766 O776 1.265 . S
O767 C766 1.227 . S
N768 Co765 2.121 . S
N768 C770 1.375 . S
N768 C771 1.313 . S
C769 C770 1.338 . S
C769 N772 1.377 . S
C769 H789 0.930 . S
C770 N768 1.375 . S
C770 C769 1.338 . S
C770 H774 0.931 . S
C771 N768 1.313 . S
C771 N772 1.344 . S
C771 H775 0.930 . S
N772 C769 1.377 . S
N772 C771 1.344 . S
O773 Co765 2.055 . S
O773 C777 1.253 . S
H774 C770 0.931 . S
H775 C771 0.930 . S
O776 Co765 2.039 . S
O776 C766 1.265 . S
C777 O773 1.253 . S
C777 O778 1.227 . S
O778 C777 1.227 . S
N779 Co765 2.140 . S
N779 C782 1.346 . S
N779 C783 1.345 . S
C780 C781 1.387 . S
C780 C784 1.391 . S
C781 C780 1.387 . S
C781 C782 1.369 . S
C781 H790 0.929 . S
C782 N779 1.346 . S
C782 C781 1.369 . S
C782 H785 0.928 . S
C783 N779 1.345 . S
C783 C784 1.371 . S
C783 H786 0.931 . S
C784 C780 1.391 . S
C784 C783 1.371 . S
C784 H791 0.930 . S
H785 C782 0.928 . S
H786 C783 0.931 . S
H787 C763 0.930 . S
H788 C760 0.930 . S
H789 C769 0.930 . S
H790 C781 0.929 . S
H791 C784 0.930 . S
H792 C800 0.950 . S
H793 C805 0.950 . S
H794 C802 0.950 . S
H795 C804 0.950 . S
H796 C806 0.950 . S
H797 C808 0.950 . S
H798 C810 0.950 . S
H799 C811 0.950 . S
C800 H792 0.950 . S
C800 C801 1.386 . S
C800 C802 1.391 . S
C801 C800 1.386 . S
C801 C805 1.393 . S
C802 H794 0.950 . S
C802 C800 1.391 . S
C802 C803 1.400 . S
C803 C802 1.400 . S
C803 C804 1.398 . S
C803 C809 1.491 . S
C804 H795 0.950 . S
C804 C803 1.398 . S
C804 C805 1.391 . S
C805 H793 0.950 . S
C805 C801 1.393 . S
C805 C804 1.391 . S
C806 H796 0.950 . S
C806 C807 1.386 . S
C806 C808 1.391 . S
C807 C806 1.386 . S
C807 C811 1.393 . S
C808 H797 0.950 . S
C808 C806 1.391 . S
C808 C809 1.400 . S
C809 C803 1.491 . S
C809 C808 1.400 . S
C809 C810 1.398 . S
C810 H798 0.950 . S
C810 C809 1.398 . S
C810 C811 1.391 . S
C811 H799 0.950 . S
C811 C807 1.393 . S
C811 C810 1.391 . S
H812 C820 0.950 . S
H813 C825 0.950 . S
H814 C822 0.950 . S
H815 C824 0.950 . S
H816 C826 0.950 . S
H817 C828 0.950 . S
H818 C830 0.950 . S
H819 C831 0.950 . S
C820 H812 0.950 . S
C820 C821 1.386 . S
C820 C822 1.391 . S
C821 C820 1.386 . S
C821 C825 1.393 1_556 S
C822 H814 0.950 . S
C822 C820 1.391 . S
C822 C823 1.392 1_556 S
C823 C822 1.392 1_554 S
C823 C824 1.406 . S
C823 C829 1.491 . S
C824 H815 0.950 . S
C824 C823 1.406 . S
C824 C825 1.391 . S
C825 H813 0.950 . S
C825 C821 1.393 1_554 S
C825 C824 1.391 . S
C826 H816 0.950 . S
C826 C827 1.386 . S
C826 C828 1.391 . S
C827 C826 1.386 . S
C827 C831 1.393 1_554 S
C828 H817 0.950 . S
C828 C826 1.391 . S
C828 C829 1.400 . S
C829 C823 1.491 . S
C829 C828 1.400 . S
C829 C830 1.398 1_554 S
C830 H818 0.950 . S
C830 C829 1.398 1_556 S
C830 C831 1.391 . S
C831 H819 0.950 . S
C831 C827 1.393 1_556 S
C831 C830 1.391 . S
H832 C840 0.950 . S
H833 C845 0.950 . S
H834 C842 0.950 . S
H835 C844 0.950 . S
H836 C846 0.950 . S
H837 C848 0.950 . S
H838 C850 0.950 . S
H839 C851 0.950 . S
C840 H832 0.950 . S
C840 C841 1.386 . S
C840 C842 1.391 . S
C841 C840 1.386 . S
C841 C845 1.393 . S
C842 H834 0.950 . S
C842 C840 1.391 . S
C842 C843 1.400 . S
C843 C842 1.400 . S
C843 C844 1.398 . S
C843 C849 1.491 . S
C844 H835 0.950 . S
C844 C843 1.398 . S
C844 C845 1.391 . S
C845 H833 0.950 . S
C845 C841 1.393 . S
C845 C844 1.391 . S
C846 H836 0.950 . S
C846 C847 1.386 . S
C846 C848 1.391 . S
C847 C846 1.386 . S
C847 C851 1.393 . S
C848 H837 0.950 . S
C848 C846 1.391 . S
C848 C849 1.400 . S
C849 C843 1.491 . S
C849 C848 1.400 . S
C849 C850 1.398 . S
C850 H838 0.950 . S
C850 C849 1.398 . S
C850 C851 1.391 . S
C851 H839 0.950 . S
C851 C847 1.393 . S
C851 C850 1.391 . S
H852 C860 0.950 . S
H853 C865 0.950 . S
H854 C862 0.950 . S
H855 C864 0.950 . S
H856 C866 0.950 . S
H857 C868 0.950 . S
H858 C870 0.950 . S
H859 C871 0.950 . S
C860 H852 0.950 . S
C860 C861 1.386 . S
C860 C862 1.391 . S
C861 C860 1.386 . S
C861 C865 1.393 . S
C862 H854 0.950 . S
C862 C860 1.391 . S
C862 C863 1.400 . S
C863 C862 1.400 . S
C863 C864 1.398 . S
C863 C869 1.491 . S
C864 H855 0.950 . S
C864 C863 1.398 . S
C864 C865 1.391 . S
C865 H853 0.950 . S
C865 C861 1.393 . S
C865 C864 1.391 . S
C866 H856 0.950 . S
C866 C867 1.386 . S
C866 C868 1.391 . S
C867 C866 1.386 . S
C867 C871 1.393 . S
C868 H857 0.950 . S
C868 C866 1.391 . S
C868 C869 1.400 . S
C869 C863 1.491 . S
C869 C868 1.400 . S
C869 C870 1.398 . S
C870 H858 0.950 . S
C870 C869 1.398 . S
C870 C871 1.391 . S
C871 H859 0.950 . S
C871 C867 1.393 . S
C871 C870 1.391 . S
H872 C880 0.950 . S
H873 C885 0.950 . S
H874 C882 0.950 . S
H875 C884 0.950 . S
H876 C886 0.950 . S
H877 C888 0.950 . S
H878 C890 0.950 . S
H879 C891 0.950 . S
C880 H872 0.950 . S
C880 C881 1.386 . S
C880 C882 1.391 . S
C881 C880 1.386 . S
C881 C885 1.393 . S
C882 H874 0.950 . S
C882 C880 1.391 . S
C882 C883 1.400 . S
C883 C882 1.400 . S
C883 C884 1.398 . S
C883 C889 1.491 . S
C884 H875 0.950 . S
C884 C883 1.398 . S
C884 C885 1.391 . S
C885 H873 0.950 . S
C885 C881 1.393 . S
C885 C884 1.391 . S
C886 H876 0.950 . S
C886 C887 1.386 . S
C886 C888 1.391 . S
C887 C886 1.386 . S
C887 C891 1.393 . S
C888 H877 0.950 . S
C888 C886 1.391 . S
C888 C889 1.400 . S
C889 C883 1.491 . S
C889 C888 1.400 . S
C889 C890 1.398 . S
C890 H878 0.950 . S
C890 C889 1.398 . S
C890 C891 1.391 . S
C891 H879 0.950 . S
C891 C887 1.393 . S
C891 C890 1.391 . S
H892 C900 0.950 . S
H893 C905 0.950 . S
H894 C902 0.950 . S
H895 C904 0.950 . S
H896 C906 0.950 . S
H897 C908 0.950 . S
H898 C910 0.950 . S
H899 C911 0.950 . S
C900 H892 0.950 . S
C900 C901 1.386 . S
C900 C902 1.391 . S
C901 C900 1.386 . S
C901 C905 1.393 . S
C902 H894 0.950 . S
C902 C900 1.391 . S
C902 C903 1.400 . S
C903 C902 1.400 . S
C903 C904 1.398 . S
C903 C909 1.491 . S
C904 H895 0.950 . S
C904 C903 1.398 . S
C904 C905 1.391 . S
C905 H893 0.950 . S
C905 C901 1.393 . S
C905 C904 1.391 . S
C906 H896 0.950 . S
C906 C907 1.386 . S
C906 C908 1.391 . S
C907 C906 1.386 . S
C907 C911 1.393 . S
C908 H897 0.950 . S
C908 C906 1.391 . S
C908 C909 1.400 . S
C909 C903 1.491 . S
C909 C908 1.400 . S
C909 C910 1.398 . S
C910 H898 0.950 . S
C910 C909 1.398 . S
C910 C911 1.391 . S
C911 H899 0.950 . S
C911 C907 1.393 . S
C911 C910 1.391 . S
H912 C920 0.950 . S
H913 C925 0.950 . S
H914 C922 0.950 . S
H915 C924 0.950 . S
H916 C926 0.950 . S
H917 C928 0.950 . S
H918 C930 0.950 . S
H919 C931 0.950 . S
C920 H912 0.950 . S
C920 C921 1.386 . S
C920 C922 1.391 . S
C921 C920 1.386 . S
C921 C925 1.393 1_455 S
C922 H914 0.950 . S
C922 C920 1.391 . S
C922 C923 1.414 . S
C923 C922 1.414 . S
C923 C924 1.387 1_455 S
C923 C929 1.490 . S
C924 H915 0.950 . S
C924 C923 1.387 1_655 S
C924 C925 1.391 . S
C925 H913 0.950 . S
C925 C921 1.393 1_655 S
C925 C924 1.391 . S
C926 H916 0.950 . S
C926 C927 1.386 . S
C926 C928 1.391 . S
C927 C926 1.386 . S
C927 C931 1.393 1_655 S
C928 H917 0.950 . S
C928 C926 1.391 . S
C928 C929 1.395 1_655 S
C929 C923 1.490 . S
C929 C928 1.395 1_455 S
C929 C930 1.404 . S
C930 H918 0.950 . S
C930 C929 1.404 . S
C930 C931 1.391 . S
C931 H919 0.950 . S
C931 C927 1.393 1_455 S
C931 C930 1.391 . S
H932 C940 0.950 . S
H933 C945 0.950 . S
H934 C942 0.950 . S
H935 C944 0.950 . S
H936 C946 0.950 . S
H937 C948 0.950 . S
H938 C950 0.950 . S
H939 C951 0.950 . S
C940 H932 0.950 . S
C940 C941 1.386 . S
C940 C942 1.391 . S
C941 C940 1.386 . S
C941 C945 1.393 . S
C942 H934 0.950 . S
C942 C940 1.391 . S
C942 C943 1.400 . S
C943 C942 1.400 . S
C943 C944 1.398 . S
C943 C949 1.491 . S
C944 H935 0.950 . S
C944 C943 1.398 . S
C944 C945 1.391 . S
C945 H933 0.950 . S
C945 C941 1.393 . S
C945 C944 1.391 . S
C946 H936 0.950 . S
C946 C947 1.386 . S
C946 C948 1.391 . S
C947 C946 1.386 . S
C947 C951 1.393 . S
C948 H937 0.950 . S
C948 C946 1.391 . S
C948 C949 1.400 . S
C949 C943 1.491 . S
C949 C948 1.400 . S
C949 C950 1.398 . S
C950 H938 0.950 . S
C950 C949 1.398 . S
C950 C951 1.391 . S
C951 H939 0.950 . S
C951 C947 1.393 . S
C951 C950 1.391 . S
H952 C960 0.950 . S
H953 C965 0.950 . S
H954 C962 0.950 . S
H955 C964 0.950 . S
H956 C966 0.950 . S
H957 C968 0.950 . S
H958 C970 0.950 . S
H959 C971 0.950 . S
C960 H952 0.950 . S
C960 C961 1.386 . S
C960 C962 1.391 . S
C961 C960 1.386 . S
C961 C965 1.393 . S
C962 H954 0.950 . S
C962 C960 1.391 . S
C962 C963 1.400 . S
C963 C962 1.400 . S
C963 C964 1.398 . S
C963 C969 1.491 . S
C964 H955 0.950 . S
C964 C963 1.398 . S
C964 C965 1.391 . S
C965 H953 0.950 . S
C965 C961 1.393 . S
C965 C964 1.391 . S
C966 H956 0.950 . S
C966 C967 1.386 . S
C966 C968 1.391 . S
C967 C966 1.386 . S
C967 C971 1.393 . S
C968 H957 0.950 . S
C968 C966 1.391 . S
C968 C969 1.400 . S
C969 C963 1.491 . S
C969 C968 1.400 . S
C969 C970 1.398 . S
C970 H958 0.950 . S
C970 C969 1.398 . S
C970 C971 1.391 . S
C971 H959 0.950 . S
C971 C967 1.393 . S
C971 C970 1.391 . S
H972 C980 0.950 . S
H973 C985 0.950 . S
H974 C982 0.950 . S
H975 C984 0.950 . S
H976 C986 0.950 . S
H977 C988 0.950 . S
H978 C990 0.950 . S
H979 C991 0.950 . S
C980 H972 0.950 . S
C980 C981 1.386 . S
C980 C982 1.391 . S
C981 C980 1.386 . S
C981 C985 1.393 . S
C982 H974 0.950 . S
C982 C980 1.391 . S
C982 C983 1.400 . S
C983 C982 1.400 . S
C983 C984 1.398 . S
C983 C989 1.491 . S
C984 H975 0.950 . S
C984 C983 1.398 . S
C984 C985 1.391 . S
C985 H973 0.950 . S
C985 C981 1.393 . S
C985 C984 1.391 . S
C986 H976 0.950 . S
C986 C987 1.386 . S
C986 C988 1.391 . S
C987 C986 1.386 . S
C987 C991 1.393 . S
C988 H977 0.950 . S
C988 C986 1.391 . S
C988 C989 1.400 . S
C989 C983 1.491 . S
C989 C988 1.400 . S
C989 C990 1.398 . S
C990 H978 0.950 . S
C990 C989 1.398 . S
C990 C991 1.391 . S
C991 H979 0.950 . S
C991 C987 1.393 . S
C991 C990 1.391 . S
H992 C1000 0.950 . S
H993 C1005 0.952 . S
H994 C1002 0.949 . S
H995 C1004 0.952 . S
H996 C1006 0.950 . S
H997 C1008 0.952 . S
H998 C1010 0.948 1_565 S
H999 C1011 0.950 . S
C1000 H992 0.950 . S
C1000 C1001 1.388 . S
C1000 C1002 1.390 1_565 S
C1001 C1000 1.388 . S
C1001 C1005 1.395 . S
C1002 H994 0.949 . S
C1002 C1000 1.390 1_545 S
C1002 C1003 1.400 . S
C1003 C1002 1.400 . S
C1003 C1004 1.398 . S
C1003 C1009 1.490 . S
C1004 H995 0.952 . S
C1004 C1003 1.398 . S
C1004 C1005 1.388 1_545 S
C1005 H993 0.952 . S
C1005 C1001 1.395 . S
C1005 C1004 1.388 1_565 S
C1006 H996 0.950 . S
C1006 C1007 1.386 . S
C1006 C1008 1.391 . S
C1007 C1006 1.386 . S
C1007 C1011 1.393 . S
C1008 H997 0.952 . S
C1008 C1006 1.391 . S
C1008 C1009 1.402 . S
C1009 C1003 1.490 . S
C1009 C1008 1.402 . S
C1009 C1010 1.398 . S
C1010 H998 0.948 1_545 S
C1010 C1009 1.398 . S
C1010 C1011 1.394 . S
C1011 H999 0.950 . S
C1011 C1007 1.393 . S
C1011 C1010 1.394 . S
H1012 C1020 0.950 . S
H1013 C1025 0.950 . S
H1014 C1022 0.950 . S
H1015 C1024 0.950 . S
H1016 C1026 0.950 . S
H1017 C1028 0.950 . S
H1018 C1030 0.950 . S
H1019 C1031 0.950 . S
C1020 H1012 0.950 . S
C1020 C1021 1.386 . S
C1020 C1022 1.391 . S
C1021 C1020 1.386 . S
C1021 C1025 1.393 . S
C1022 H1014 0.950 . S
C1022 C1020 1.391 . S
C1022 C1023 1.400 . S
C1023 C1022 1.400 . S
C1023 C1024 1.398 . S
C1023 C1029 1.491 . S
C1024 H1015 0.950 . S
C1024 C1023 1.398 . S
C1024 C1025 1.391 . S
C1025 H1013 0.950 . S
C1025 C1021 1.393 . S
C1025 C1024 1.391 . S
C1026 H1016 0.950 . S
C1026 C1027 1.386 . S
C1026 C1028 1.391 . S
C1027 C1026 1.386 . S
C1027 C1031 1.393 . S
C1028 H1017 0.950 . S
C1028 C1026 1.391 . S
C1028 C1029 1.400 . S
C1029 C1023 1.491 . S
C1029 C1028 1.400 . S
C1029 C1030 1.398 . S
C1030 H1018 0.950 . S
C1030 C1029 1.398 . S
C1030 C1031 1.391 . S
C1031 H1019 0.950 . S
C1031 C1027 1.393 . S
C1031 C1030 1.391 . S
H1032 C1040 0.950 . S
H1033 C1045 0.950 . S
H1034 C1042 0.950 . S
H1035 C1044 0.950 . S
H1036 C1046 0.950 . S
H1037 C1048 0.950 . S
H1038 C1050 0.950 . S
H1039 C1051 0.950 . S
C1040 H1032 0.950 . S
C1040 C1041 1.386 . S
C1040 C1042 1.391 . S
C1041 C1040 1.386 . S
C1041 C1045 1.393 . S
C1042 H1034 0.950 . S
C1042 C1040 1.391 . S
C1042 C1043 1.400 . S
C1043 C1042 1.400 . S
C1043 C1044 1.398 . S
C1043 C1049 1.491 . S
C1044 H1035 0.950 . S
C1044 C1043 1.398 . S
C1044 C1045 1.391 . S
C1045 H1033 0.950 . S
C1045 C1041 1.393 . S
C1045 C1044 1.391 . S
C1046 H1036 0.950 . S
C1046 C1047 1.386 . S
C1046 C1048 1.391 . S
C1047 C1046 1.386 . S
C1047 C1051 1.393 . S
C1048 H1037 0.950 . S
C1048 C1046 1.391 . S
C1048 C1049 1.400 . S
C1049 C1043 1.491 . S
C1049 C1048 1.400 . S
C1049 C1050 1.398 . S
C1050 H1038 0.950 . S
C1050 C1049 1.398 . S
C1050 C1051 1.391 . S
C1051 H1039 0.950 . S
C1051 C1047 1.393 . S
C1051 C1050 1.391 . S
H1052 C1060 0.950 . S
H1053 C1065 0.950 . S
H1054 C1062 0.950 . S
H1055 C1064 0.950 . S
H1056 C1066 0.950 . S
H1057 C1068 0.950 . S
H1058 C1070 0.950 . S
H1059 C1071 0.950 . S
C1060 H1052 0.950 . S
C1060 C1061 1.386 . S
C1060 C1062 1.391 . S
C1061 C1060 1.386 . S
C1061 C1065 1.393 . S
C1062 H1054 0.950 . S
C1062 C1060 1.391 . S
C1062 C1063 1.400 . S
C1063 C1062 1.400 . S
C1063 C1064 1.398 . S
C1063 C1069 1.491 . S
C1064 H1055 0.950 . S
C1064 C1063 1.398 . S
C1064 C1065 1.391 . S
C1065 H1053 0.950 . S
C1065 C1061 1.393 . S
C1065 C1064 1.391 . S
C1066 H1056 0.950 . S
C1066 C1067 1.386 . S
C1066 C1068 1.391 . S
C1067 C1066 1.386 . S
C1067 C1071 1.393 . S
C1068 H1057 0.950 . S
C1068 C1066 1.391 . S
C1068 C1069 1.400 . S
C1069 C1063 1.491 . S
C1069 C1068 1.400 . S
C1069 C1070 1.398 . S
C1070 H1058 0.950 . S
C1070 C1069 1.398 . S
C1070 C1071 1.391 . S
C1071 H1059 0.950 . S
C1071 C1067 1.393 . S
C1071 C1070 1.391 . S
H1072 C1080 0.950 . S
H1073 C1085 0.950 . S
H1074 C1082 0.950 . S
H1075 C1084 0.950 . S
H1076 C1086 0.950 . S
H1077 C1088 0.950 . S
H1078 C1090 0.950 . S
H1079 C1091 0.950 . S
C1080 H1072 0.950 . S
C1080 C1081 1.386 . S
C1080 C1082 1.391 . S
C1081 C1080 1.386 . S
C1081 C1085 1.393 . S
C1082 H1074 0.950 . S
C1082 C1080 1.391 . S
C1082 C1083 1.400 . S
C1083 C1082 1.400 . S
C1083 C1084 1.398 . S
C1083 C1089 1.491 . S
C1084 H1075 0.950 . S
C1084 C1083 1.398 . S
C1084 C1085 1.391 . S
C1085 H1073 0.950 . S
C1085 C1081 1.393 . S
C1085 C1084 1.391 . S
C1086 H1076 0.950 . S
C1086 C1087 1.386 . S
C1086 C1088 1.391 . S
C1087 C1086 1.386 . S
C1087 C1091 1.393 . S
C1088 H1077 0.950 . S
C1088 C1086 1.391 . S
C1088 C1089 1.400 . S
C1089 C1083 1.491 . S
C1089 C1088 1.400 . S
C1089 C1090 1.398 . S
C1090 H1078 0.950 . S
C1090 C1089 1.398 . S
C1090 C1091 1.391 . S
C1091 H1079 0.950 . S
C1091 C1087 1.393 . S
C1091 C1090 1.391 . S
H1092 C1100 0.950 . S
H1093 C1105 0.950 . S
H1094 C1102 0.950 . S
H1095 C1104 0.950 . S
H1096 C1106 0.950 . S
H1097 C1108 0.950 . S
H1098 C1110 0.950 . S
H1099 C1111 0.950 . S
C1100 H1092 0.950 . S
C1100 C1101 1.386 . S
C1100 C1102 1.391 . S
C1101 C1100 1.386 . S
C1101 C1105 1.393 . S
C1102 H1094 0.950 . S
C1102 C1100 1.391 . S
C1102 C1103 1.400 . S
C1103 C1102 1.400 . S
C1103 C1104 1.398 . S
C1103 C1109 1.491 . S
C1104 H1095 0.950 . S
C1104 C1103 1.398 . S
C1104 C1105 1.391 . S
C1105 H1093 0.950 . S
C1105 C1101 1.393 . S
C1105 C1104 1.391 . S
C1106 H1096 0.950 . S
C1106 C1107 1.386 . S
C1106 C1108 1.391 . S
C1107 C1106 1.386 . S
C1107 C1111 1.393 . S
C1108 H1097 0.950 . S
C1108 C1106 1.391 . S
C1108 C1109 1.400 . S
C1109 C1103 1.491 . S
C1109 C1108 1.400 . S
C1109 C1110 1.398 . S
C1110 H1098 0.950 . S
C1110 C1109 1.398 . S
C1110 C1111 1.391 . S
C1111 H1099 0.950 . S
C1111 C1107 1.393 . S
C1111 C1110 1.391 . S
H1112 C1120 0.950 . S
H1113 C1125 0.950 . S
H1114 C1122 0.950 . S
H1115 C1124 0.950 . S
H1116 C1126 0.950 . S
H1117 C1128 0.950 . S
H1118 C1130 0.950 . S
H1119 C1131 0.950 . S
C1120 H1112 0.950 . S
C1120 C1121 1.386 . S
C1120 C1122 1.391 . S
C1121 C1120 1.386 . S
C1121 C1125 1.393 . S
C1122 H1114 0.950 . S
C1122 C1120 1.391 . S
C1122 C1123 1.400 . S
C1123 C1122 1.400 . S
C1123 C1124 1.398 . S
C1123 C1129 1.491 . S
C1124 H1115 0.950 . S
C1124 C1123 1.398 . S
C1124 C1125 1.391 . S
C1125 H1113 0.950 . S
C1125 C1121 1.393 . S
C1125 C1124 1.391 . S
C1126 H1116 0.950 . S
C1126 C1127 1.386 . S
C1126 C1128 1.391 . S
C1127 C1126 1.386 . S
C1127 C1131 1.393 . S
C1128 H1117 0.950 . S
C1128 C1126 1.391 . S
C1128 C1129 1.400 . S
C1129 C1123 1.491 . S
C1129 C1128 1.400 . S
C1129 C1130 1.398 . S
C1130 H1118 0.950 . S
C1130 C1129 1.398 . S
C1130 C1131 1.391 . S
C1131 H1119 0.950 . S
C1131 C1127 1.393 . S
C1131 C1130 1.391 . S
H1132 C1140 0.950 . S
H1133 C1145 0.950 . S
H1134 C1142 0.950 . S
H1135 C1144 0.950 . S
H1136 C1146 0.950 . S
H1137 C1148 0.950 . S
H1138 C1150 0.950 . S
H1139 C1151 0.950 . S
C1140 H1132 0.950 . S
C1140 C1141 1.386 . S
C1140 C1142 1.391 . S
C1141 C1140 1.386 . S
C1141 C1145 1.393 . S
C1142 H1134 0.950 . S
C1142 C1140 1.391 . S
C1142 C1143 1.400 . S
C1143 C1142 1.400 . S
C1143 C1144 1.398 . S
C1143 C1149 1.491 . S
C1144 H1135 0.950 . S
C1144 C1143 1.398 . S
C1144 C1145 1.391 . S
C1145 H1133 0.950 . S
C1145 C1141 1.393 . S
C1145 C1144 1.391 . S
C1146 H1136 0.950 . S
C1146 C1147 1.386 . S
C1146 C1148 1.391 . S
C1147 C1146 1.386 . S
C1147 C1151 1.393 . S
C1148 H1137 0.950 . S
C1148 C1146 1.391 . S
C1148 C1149 1.400 . S
C1149 C1143 1.491 . S
C1149 C1148 1.400 . S
C1149 C1150 1.398 . S
C1150 H1138 0.950 . S
C1150 C1149 1.398 . S
C1150 C1151 1.391 . S
C1151 H1139 0.950 . S
C1151 C1147 1.393 . S
C1151 C1150 1.391 . S
H1152 C1160 0.950 . S
H1153 C1165 0.950 1_554 S
H1154 C1162 0.950 . S
H1155 C1164 0.950 . S
H1156 C1166 0.948 1_455 S
H1157 C1168 0.950 . S
H1158 C1170 0.950 . S
H1159 C1171 0.950 . S
C1160 H1152 0.950 . S
C1160 C1161 1.386 . S
C1160 C1162 1.391 . S
C1161 C1160 1.386 . S
C1161 C1165 1.393 . S
C1162 H1154 0.950 . S
C1162 C1160 1.391 . S
C1162 C1163 1.400 . S
C1163 C1162 1.400 . S
C1163 C1164 1.398 . S
C1163 C1169 1.491 . S
C1164 H1155 0.950 . S
C1164 C1163 1.398 . S
C1164 C1165 1.391 . S
C1165 H1153 0.950 1_556 S
C1165 C1161 1.393 . S
C1165 C1164 1.391 . S
C1166 H1156 0.948 1_655 S
C1166 C1167 1.386 . S
C1166 C1168 1.391 1_655 S
C1167 C1166 1.386 . S
C1167 C1171 1.393 . S
C1168 H1157 0.950 . S
C1168 C1166 1.391 1_455 S
C1168 C1169 1.400 . S
C1169 C1163 1.491 . S
C1169 C1168 1.400 . S
C1169 C1170 1.398 1_455 S
C1170 H1158 0.950 . S
C1170 C1169 1.398 1_655 S
C1170 C1171 1.391 . S
C1171 H1159 0.950 . S
C1171 C1167 1.393 . S
C1171 C1170 1.391 . S
H1172 C1180 0.950 . S
H1173 C1185 0.950 . S
H1174 C1182 0.950 . S
H1175 C1184 0.950 . S
H1176 C1186 0.950 . S
H1177 C1188 0.950 . S
H1178 C1190 0.950 . S
H1179 C1191 0.950 . S
C1180 H1172 0.950 . S
C1180 C1181 1.386 . S
C1180 C1182 1.391 . S
C1181 C1180 1.386 . S
C1181 C1185 1.393 . S
C1182 H1174 0.950 . S
C1182 C1180 1.391 . S
C1182 C1183 1.400 . S
C1183 C1182 1.400 . S
C1183 C1184 1.398 . S
C1183 C1189 1.491 . S
C1184 H1175 0.950 . S
C1184 C1183 1.398 . S
C1184 C1185 1.391 . S
C1185 H1173 0.950 . S
C1185 C1181 1.393 . S
C1185 C1184 1.391 . S
C1186 H1176 0.950 . S
C1186 C1187 1.386 . S
C1186 C1188 1.391 . S
C1187 C1186 1.386 . S
C1187 C1191 1.393 . S
C1188 H1177 0.950 . S
C1188 C1186 1.391 . S
C1188 C1189 1.400 . S
C1189 C1183 1.491 . S
C1189 C1188 1.400 . S
C1189 C1190 1.398 . S
C1190 H1178 0.950 . S
C1190 C1189 1.398 . S
C1190 C1191 1.391 . S
C1191 H1179 0.950 . S
C1191 C1187 1.393 . S
C1191 C1190 1.391 . S
H1192 C1200 0.950 . S
H1193 C1205 0.950 . S
H1194 C1202 0.950 . S
H1195 C1204 0.950 . S
H1196 C1206 0.950 . S
H1197 C1208 0.950 . S
H1198 C1210 0.950 . S
H1199 C1211 0.950 . S
C1200 H1192 0.950 . S
C1200 C1201 1.386 . S
C1200 C1202 1.391 . S
C1201 C1200 1.386 . S
C1201 C1205 1.393 . S
C1202 H1194 0.950 . S
C1202 C1200 1.391 . S
C1202 C1203 1.400 . S
C1203 C1202 1.400 . S
C1203 C1204 1.398 . S
C1203 C1209 1.491 . S
C1204 H1195 0.950 . S
C1204 C1203 1.398 . S
C1204 C1205 1.391 . S
C1205 H1193 0.950 . S
C1205 C1201 1.393 . S
C1205 C1204 1.391 . S
C1206 H1196 0.950 . S
C1206 C1207 1.386 . S
C1206 C1208 1.391 . S
C1207 C1206 1.386 . S
C1207 C1211 1.393 . S
C1208 H1197 0.950 . S
C1208 C1206 1.391 . S
C1208 C1209 1.400 . S
C1209 C1203 1.491 . S
C1209 C1208 1.400 . S
C1209 C1210 1.398 . S
C1210 H1198 0.950 . S
C1210 C1209 1.398 . S
C1210 C1211 1.391 . S
C1211 H1199 0.950 . S
C1211 C1207 1.393 . S
C1211 C1210 1.391 . S
H1212 C1220 0.950 . S
H1213 C1225 0.950 . S
H1214 C1222 0.950 . S
H1215 C1224 0.950 . S
H1216 C1226 0.950 . S
H1217 C1228 0.950 . S
H1218 C1230 0.950 . S
H1219 C1231 0.950 . S
C1220 H1212 0.950 . S
C1220 C1221 1.386 . S
C1220 C1222 1.391 . S
C1221 C1220 1.386 . S
C1221 C1225 1.393 . S
C1222 H1214 0.950 . S
C1222 C1220 1.391 . S
C1222 C1223 1.400 . S
C1223 C1222 1.400 . S
C1223 C1224 1.398 . S
C1223 C1229 1.491 . S
C1224 H1215 0.950 . S
C1224 C1223 1.398 . S
C1224 C1225 1.391 . S
C1225 H1213 0.950 . S
C1225 C1221 1.393 . S
C1225 C1224 1.391 . S
C1226 H1216 0.950 . S
C1226 C1227 1.386 . S
C1226 C1228 1.391 . S
C1227 C1226 1.386 . S
C1227 C1231 1.393 . S
C1228 H1217 0.950 . S
C1228 C1226 1.391 . S
C1228 C1229 1.400 . S
C1229 C1223 1.491 . S
C1229 C1228 1.400 . S
C1229 C1230 1.398 . S
C1230 H1218 0.950 . S
C1230 C1229 1.398 . S
C1230 C1231 1.391 . S
C1231 H1219 0.950 . S
C1231 C1227 1.393 . S
C1231 C1230 1.391 . S
H1232 C1240 0.950 . S
H1233 C1245 0.950 . S
H1234 C1242 0.950 . S
H1235 C1244 0.950 . S
H1236 C1246 0.930 1_465 S
H1237 C1248 0.980 . S
H1238 C1250 0.950 . S
H1239 C1251 0.950 . S
C1240 H1232 0.950 . S
C1240 C1241 1.386 1_545 S
C1240 C1242 1.391 . S
C1241 C1240 1.386 1_565 S
C1241 C1245 1.393 . S
C1242 H1234 0.950 . S
C1242 C1240 1.391 . S
C1242 C1243 1.400 . S
C1243 C1242 1.400 . S
C1243 C1244 1.398 1_545 S
C1243 C1249 1.491 . S
C1244 H1235 0.950 . S
C1244 C1243 1.398 1_565 S
C1244 C1245 1.391 . S
C1245 H1233 0.950 . S
C1245 C1241 1.393 . S
C1245 C1244 1.391 . S
C1246 H1236 0.930 1_645 S
C1246 C1247 1.386 . S
C1246 C1248 1.381 1_545 S
C1247 C1246 1.386 . S
C1247 C1251 1.393 . S
C1248 H1237 0.980 . S
C1248 C1246 1.381 1_565 S
C1248 C1249 1.383 1_565 S
C1249 C1243 1.491 . S
C1249 C1248 1.383 1_545 S
C1249 C1250 1.398 . S
C1250 H1238 0.950 . S
C1250 C1249 1.398 . S
C1250 C1251 1.391 . S
C1251 H1239 0.950 . S
C1251 C1247 1.393 . S
C1251 C1250 1.391 . S
H1252 C1260 0.950 . S
H1253 C1265 0.950 . S
H1254 C1262 0.950 . S
H1255 C1264 0.950 . S
H1256 C1266 0.950 . S
H1257 C1268 0.950 . S
H1258 C1270 0.950 . S
H1259 C1271 0.950 . S
C1260 H1252 0.950 . S
C1260 C1261 1.386 . S
C1260 C1262 1.391 . S
C1261 C1260 1.386 . S
C1261 C1265 1.393 . S
C1262 H1254 0.950 . S
C1262 C1260 1.391 . S
C1262 C1263 1.400 . S
C1263 C1262 1.400 . S
C1263 C1264 1.398 . S
C1263 C1269 1.491 . S
C1264 H1255 0.950 . S
C1264 C1263 1.398 . S
C1264 C1265 1.391 . S
C1265 H1253 0.950 . S
C1265 C1261 1.393 . S
C1265 C1264 1.391 . S
C1266 H1256 0.950 . S
C1266 C1267 1.386 . S
C1266 C1268 1.391 . S
C1267 C1266 1.386 . S
C1267 C1271 1.393 . S
C1268 H1257 0.950 . S
C1268 C1266 1.391 . S
C1268 C1269 1.400 . S
C1269 C1263 1.491 . S
C1269 C1268 1.400 . S
C1269 C1270 1.398 . S
C1270 H1258 0.950 . S
C1270 C1269 1.398 . S
C1270 C1271 1.391 . S
C1271 H1259 0.950 . S
C1271 C1267 1.393 . S
C1271 C1270 1.391 . S
H1272 C1280 0.950 . S
H1273 C1285 0.950 . S
H1274 C1282 0.950 . S
H1275 C1284 0.950 . S
H1276 C1286 0.950 . S
H1277 C1288 0.950 . S
H1278 C1290 0.950 . S
H1279 C1291 0.950 . S
C1280 H1272 0.950 . S
C1280 C1281 1.386 . S
C1280 C1282 1.391 . S
C1281 C1280 1.386 . S
C1281 C1285 1.393 . S
C1282 H1274 0.950 . S
C1282 C1280 1.391 . S
C1282 C1283 1.400 . S
C1283 C1282 1.400 . S
C1283 C1284 1.398 . S
C1283 C1289 1.491 . S
C1284 H1275 0.950 . S
C1284 C1283 1.398 . S
C1284 C1285 1.391 . S
C1285 H1273 0.950 . S
C1285 C1281 1.393 . S
C1285 C1284 1.391 . S
C1286 H1276 0.950 . S
C1286 C1287 1.386 . S
C1286 C1288 1.391 . S
C1287 C1286 1.386 . S
C1287 C1291 1.393 . S
C1288 H1277 0.950 . S
C1288 C1286 1.391 . S
C1288 C1289 1.400 . S
C1289 C1283 1.491 . S
C1289 C1288 1.400 . S
C1289 C1290 1.398 . S
C1290 H1278 0.950 . S
C1290 C1289 1.398 . S
C1290 C1291 1.391 . S
C1291 H1279 0.950 . S
C1291 C1287 1.393 . S
C1291 C1290 1.391 . S
H1292 C1300 0.950 . S
H1293 C1305 0.950 . S
H1294 C1302 0.950 . S
H1295 C1304 0.950 . S
H1296 C1306 0.950 . S
H1297 C1308 0.950 . S
H1298 C1310 0.950 . S
H1299 C1311 0.950 . S
C1300 H1292 0.950 . S
C1300 C1301 1.386 . S
C1300 C1302 1.391 . S
C1301 C1300 1.386 . S
C1301 C1305 1.393 . S
C1302 H1294 0.950 . S
C1302 C1300 1.391 . S
C1302 C1303 1.400 . S
C1303 C1302 1.400 . S
C1303 C1304 1.398 . S
C1303 C1309 1.491 . S
C1304 H1295 0.950 . S
C1304 C1303 1.398 . S
C1304 C1305 1.391 . S
C1305 H1293 0.950 . S
C1305 C1301 1.393 . S
C1305 C1304 1.391 . S
C1306 H1296 0.950 . S
C1306 C1307 1.386 . S
C1306 C1308 1.391 . S
C1307 C1306 1.386 . S
C1307 C1311 1.393 . S
C1308 H1297 0.950 . S
C1308 C1306 1.391 . S
C1308 C1309 1.400 . S
C1309 C1303 1.491 . S
C1309 C1308 1.400 . S
C1309 C1310 1.398 . S
C1310 H1298 0.950 . S
C1310 C1309 1.398 . S
C1310 C1311 1.391 . S
C1311 H1299 0.950 . S
C1311 C1307 1.393 . S
C1311 C1310 1.391 . S
H1312 C1320 0.950 . S
H1313 C1325 0.950 . S
H1314 C1322 0.950 . S
H1315 C1324 0.950 . S
H1316 C1326 0.950 . S
H1317 C1328 0.950 . S
H1318 C1330 0.950 . S
H1319 C1331 0.950 . S
C1320 H1312 0.950 . S
C1320 C1321 1.386 . S
C1320 C1322 1.391 . S
C1321 C1320 1.386 . S
C1321 C1325 1.393 . S
C1322 H1314 0.950 . S
C1322 C1320 1.391 . S
C1322 C1323 1.400 . S
C1323 C1322 1.400 . S
C1323 C1324 1.398 . S
C1323 C1329 1.491 . S
C1324 H1315 0.950 . S
C1324 C1323 1.398 . S
C1324 C1325 1.391 . S
C1325 H1313 0.950 . S
C1325 C1321 1.393 . S
C1325 C1324 1.391 . S
C1326 H1316 0.950 . S
C1326 C1327 1.386 . S
C1326 C1328 1.391 . S
C1327 C1326 1.386 . S
C1327 C1331 1.393 . S
C1328 H1317 0.950 . S
C1328 C1326 1.391 . S
C1328 C1329 1.400 . S
C1329 C1323 1.491 . S
C1329 C1328 1.400 . S
C1329 C1330 1.398 . S
C1330 H1318 0.950 . S
C1330 C1329 1.398 . S
C1330 C1331 1.391 . S
C1331 H1319 0.950 . S
C1331 C1327 1.393 . S
C1331 C1330 1.391 . S
H1332 C1340 0.950 . S
H1333 C1345 0.950 . S
H1334 C1342 0.950 . S
H1335 C1344 0.950 . S
H1336 C1346 0.950 . S
H1337 C1348 0.950 . S
H1338 C1350 0.950 . S
H1339 C1351 0.950 . S
C1340 H1332 0.950 . S
C1340 C1341 1.386 . S
C1340 C1342 1.391 . S
C1341 C1340 1.386 . S
C1341 C1345 1.393 . S
C1342 H1334 0.950 . S
C1342 C1340 1.391 . S
C1342 C1343 1.400 . S
C1343 C1342 1.400 . S
C1343 C1344 1.398 . S
C1343 C1349 1.491 . S
C1344 H1335 0.950 . S
C1344 C1343 1.398 . S
C1344 C1345 1.391 . S
C1345 H1333 0.950 . S
C1345 C1341 1.393 . S
C1345 C1344 1.391 . S
C1346 H1336 0.950 . S
C1346 C1347 1.386 . S
C1346 C1348 1.391 . S
C1347 C1346 1.386 . S
C1347 C1351 1.393 . S
C1348 H1337 0.950 . S
C1348 C1346 1.391 . S
C1348 C1349 1.400 . S
C1349 C1343 1.491 . S
C1349 C1348 1.400 . S
C1349 C1350 1.398 . S
C1350 H1338 0.950 . S
C1350 C1349 1.398 . S
C1350 C1351 1.391 . S
C1351 H1339 0.950 . S
C1351 C1347 1.393 . S
C1351 C1350 1.391 . S
H1352 C1360 0.950 . S
H1353 C1365 0.950 . S
H1354 C1362 0.950 . S
H1355 C1364 0.950 . S
H1356 C1366 0.950 . S
H1357 C1368 0.950 . S
H1358 C1370 0.950 . S
H1359 C1371 0.950 . S
C1360 H1352 0.950 . S
C1360 C1361 1.386 . S
C1360 C1362 1.391 . S
C1361 C1360 1.386 . S
C1361 C1365 1.393 . S
C1362 H1354 0.950 . S
C1362 C1360 1.391 . S
C1362 C1363 1.400 . S
C1363 C1362 1.400 . S
C1363 C1364 1.398 . S
C1363 C1369 1.491 . S
C1364 H1355 0.950 . S
C1364 C1363 1.398 . S
C1364 C1365 1.391 . S
C1365 H1353 0.950 . S
C1365 C1361 1.393 . S
C1365 C1364 1.391 . S
C1366 H1356 0.950 . S
C1366 C1367 1.386 . S
C1366 C1368 1.391 . S
C1367 C1366 1.386 . S
C1367 C1371 1.393 . S
C1368 H1357 0.950 . S
C1368 C1366 1.391 . S
C1368 C1369 1.400 . S
C1369 C1363 1.491 . S
C1369 C1368 1.400 . S
C1369 C1370 1.398 . S
C1370 H1358 0.950 . S
C1370 C1369 1.398 . S
C1370 C1371 1.391 . S
C1371 H1359 0.950 . S
C1371 C1367 1.393 . S
C1371 C1370 1.391 . S
H1372 C1380 0.950 1_545 S
H1373 C1385 0.950 . S
H1374 C1382 0.950 . S
H1375 C1384 0.950 . S
H1376 C1386 0.950 . S
H1377 C1388 0.959 . S
H1378 C1390 0.951 . S
H1379 C1391 0.950 . S
C1380 H1372 0.950 1_565 S
C1380 C1381 1.386 . S
C1380 C1382 1.391 . S
C1381 C1380 1.386 . S
C1381 C1385 1.393 . S
C1382 H1374 0.950 . S
C1382 C1380 1.391 . S
C1382 C1383 1.400 . S
C1383 C1382 1.400 . S
C1383 C1384 1.398 . S
C1383 C1389 1.491 . S
C1384 H1375 0.950 . S
C1384 C1383 1.398 . S
C1384 C1385 1.391 . S
C1385 H1373 0.950 . S
C1385 C1381 1.393 . S
C1385 C1384 1.391 . S
C1386 H1376 0.950 . S
C1386 C1387 1.386 . S
C1386 C1388 1.378 1_556 S
C1387 C1386 1.386 . S
C1387 C1391 1.393 . S
C1388 H1377 0.959 . S
C1388 C1386 1.378 1_554 S
C1388 C1389 1.407 . S
C1389 C1383 1.491 . S
C1389 C1388 1.407 . S
C1389 C1390 1.399 . S
C1390 H1378 0.951 . S
C1390 C1389 1.399 . S
C1390 C1391 1.389 1_554 S
C1391 H1379 0.950 . S
C1391 C1387 1.393 . S
C1391 C1390 1.389 1_556 S
H1392 C1400 0.950 . S
H1393 C1405 0.950 . S
H1394 C1402 0.950 . S
H1395 C1404 0.950 . S
H1396 C1406 0.950 . S
H1397 C1408 0.950 . S
H1398 C1410 0.950 . S
H1399 C1411 0.950 . S
C1400 H1392 0.950 . S
C1400 C1401 1.386 . S
C1400 C1402 1.391 . S
C1401 C1400 1.386 . S
C1401 C1405 1.393 . S
C1402 H1394 0.950 . S
C1402 C1400 1.391 . S
C1402 C1403 1.400 . S
C1403 C1402 1.400 . S
C1403 C1404 1.398 . S
C1403 C1409 1.491 . S
C1404 H1395 0.950 . S
C1404 C1403 1.398 . S
C1404 C1405 1.391 . S
C1405 H1393 0.950 . S
C1405 C1401 1.393 . S
C1405 C1404 1.391 . S
C1406 H1396 0.950 . S
C1406 C1407 1.386 . S
C1406 C1408 1.391 . S
C1407 C1406 1.386 . S
C1407 C1411 1.393 . S
C1408 H1397 0.950 . S
C1408 C1406 1.391 . S
C1408 C1409 1.400 . S
C1409 C1403 1.491 . S
C1409 C1408 1.400 . S
C1409 C1410 1.398 . S
C1410 H1398 0.950 . S
C1410 C1409 1.398 . S
C1410 C1411 1.391 . S
C1411 H1399 0.950 . S
C1411 C1407 1.393 . S
C1411 C1410 1.391 . S
H1412 C1420 0.950 1_455 S
H1413 C1425 0.950 . S
H1414 C1422 0.950 . S
H1415 C1424 0.950 . S
H1416 C1426 0.950 . S
H1417 C1428 0.950 . S
H1418 C1430 0.950 . S
H1419 C1431 0.950 . S
C1420 H1412 0.950 1_655 S
C1420 C1421 1.386 . S
C1420 C1422 1.391 . S
C1421 C1420 1.386 . S
C1421 C1425 1.393 . S
C1422 H1414 0.950 . S
C1422 C1420 1.391 . S
C1422 C1423 1.400 . S
C1423 C1422 1.400 . S
C1423 C1424 1.398 . S
C1423 C1429 1.491 . S
C1424 H1415 0.950 . S
C1424 C1423 1.398 . S
C1424 C1425 1.391 . S
C1425 H1413 0.950 . S
C1425 C1421 1.393 . S
C1425 C1424 1.391 . S
C1426 H1416 0.950 . S
C1426 C1427 1.386 . S
C1426 C1428 1.391 . S
C1427 C1426 1.386 . S
C1427 C1431 1.393 . S
C1428 H1417 0.950 . S
C1428 C1426 1.391 . S
C1428 C1429 1.400 . S
C1429 C1423 1.491 . S
C1429 C1428 1.400 . S
C1429 C1430 1.398 . S
C1430 H1418 0.950 . S
C1430 C1429 1.398 . S
C1430 C1431 1.391 . S
C1431 H1419 0.950 . S
C1431 C1427 1.393 . S
C1431 C1430 1.391 . S
H1432 C1440 0.950 . S
H1433 C1445 0.950 . S
H1434 C1442 0.950 . S
H1435 C1444 0.950 . S
H1436 C1446 0.950 . S
H1437 C1448 0.950 . S
H1438 C1450 0.950 . S
H1439 C1451 0.950 . S
C1440 H1432 0.950 . S
C1440 C1441 1.386 . S
C1440 C1442 1.391 . S
C1441 C1440 1.386 . S
C1441 C1445 1.393 . S
C1442 H1434 0.950 . S
C1442 C1440 1.391 . S
C1442 C1443 1.400 . S
C1443 C1442 1.400 . S
C1443 C1444 1.398 . S
C1443 C1449 1.491 . S
C1444 H1435 0.950 . S
C1444 C1443 1.398 . S
C1444 C1445 1.391 . S
C1445 H1433 0.950 . S
C1445 C1441 1.393 . S
C1445 C1444 1.391 . S
C1446 H1436 0.950 . S
C1446 C1447 1.386 . S
C1446 C1448 1.391 . S
C1447 C1446 1.386 . S
C1447 C1451 1.393 . S
C1448 H1437 0.950 . S
C1448 C1446 1.391 . S
C1448 C1449 1.400 . S
C1449 C1443 1.491 . S
C1449 C1448 1.400 . S
C1449 C1450 1.398 . S
C1450 H1438 0.950 . S
C1450 C1449 1.398 . S
C1450 C1451 1.391 . S
C1451 H1439 0.950 . S
C1451 C1447 1.393 . S
C1451 C1450 1.391 . S
H1452 C1460 0.950 . S
H1453 C1465 0.950 . S
H1454 C1462 0.950 . S
H1455 C1464 0.950 . S
H1456 C1466 0.950 . S
H1457 C1468 0.950 . S
H1458 C1470 0.950 . S
H1459 C1471 0.950 . S
C1460 H1452 0.950 . S
C1460 C1461 1.386 . S
C1460 C1462 1.391 . S
C1461 C1460 1.386 . S
C1461 C1465 1.393 . S
C1462 H1454 0.950 . S
C1462 C1460 1.391 . S
C1462 C1463 1.400 . S
C1463 C1462 1.400 . S
C1463 C1464 1.398 . S
C1463 C1469 1.491 . S
C1464 H1455 0.950 . S
C1464 C1463 1.398 . S
C1464 C1465 1.391 . S
C1465 H1453 0.950 . S
C1465 C1461 1.393 . S
C1465 C1464 1.391 . S
C1466 H1456 0.950 . S
C1466 C1467 1.386 . S
C1466 C1468 1.391 . S
C1467 C1466 1.386 . S
C1467 C1471 1.393 . S
C1468 H1457 0.950 . S
C1468 C1466 1.391 . S
C1468 C1469 1.400 . S
C1469 C1463 1.491 . S
C1469 C1468 1.400 . S
C1469 C1470 1.398 . S
C1470 H1458 0.950 . S
C1470 C1469 1.398 . S
C1470 C1471 1.391 . S
C1471 H1459 0.950 . S
C1471 C1467 1.393 . S
C1471 C1470 1.391 . S
H1472 C1480 0.950 . S
H1473 C1485 0.950 . S
H1474 C1482 0.950 . S
H1475 C1484 0.950 . S
H1476 C1486 0.950 . S
H1477 C1488 0.950 . S
H1478 C1490 0.950 . S
H1479 C1491 0.950 . S
C1480 H1472 0.950 . S
C1480 C1481 1.386 . S
C1480 C1482 1.391 . S
C1481 C1480 1.386 . S
C1481 C1485 1.393 . S
C1482 H1474 0.950 . S
C1482 C1480 1.391 . S
C1482 C1483 1.400 . S
C1483 C1482 1.400 . S
C1483 C1484 1.398 . S
C1483 C1489 1.491 . S
C1484 H1475 0.950 . S
C1484 C1483 1.398 . S
C1484 C1485 1.391 . S
C1485 H1473 0.950 . S
C1485 C1481 1.393 . S
C1485 C1484 1.391 . S
C1486 H1476 0.950 . S
C1486 C1487 1.386 . S
C1486 C1488 1.391 . S
C1487 C1486 1.386 . S
C1487 C1491 1.393 . S
C1488 H1477 0.950 . S
C1488 C1486 1.391 . S
C1488 C1489 1.400 . S
C1489 C1483 1.491 . S
C1489 C1488 1.400 . S
C1489 C1490 1.398 . S
C1490 H1478 0.950 . S
C1490 C1489 1.398 . S
C1490 C1491 1.391 . S
C1491 H1479 0.950 . S
C1491 C1487 1.393 . S
C1491 C1490 1.391 . S
H1492 C1500 0.950 . S
H1493 C1505 0.950 . S
H1494 C1502 0.950 . S
H1495 C1504 0.950 . S
H1496 C1506 0.950 . S
H1497 C1508 0.950 . S
H1498 C1510 0.950 . S
H1499 C1511 0.950 . S
C1500 H1492 0.950 . S
C1500 C1501 1.386 . S
C1500 C1502 1.391 . S
C1501 C1500 1.386 . S
C1501 C1505 1.393 . S
C1502 H1494 0.950 . S
C1502 C1500 1.391 . S
C1502 C1503 1.400 . S
C1503 C1502 1.400 . S
C1503 C1504 1.398 . S
C1503 C1509 1.491 . S
C1504 H1495 0.950 . S
C1504 C1503 1.398 . S
C1504 C1505 1.391 . S
C1505 H1493 0.950 . S
C1505 C1501 1.393 . S
C1505 C1504 1.391 . S
C1506 H1496 0.950 . S
C1506 C1507 1.386 . S
C1506 C1508 1.391 . S
C1507 C1506 1.386 . S
C1507 C1511 1.393 . S
C1508 H1497 0.950 . S
C1508 C1506 1.391 . S
C1508 C1509 1.400 . S
C1509 C1503 1.491 . S
C1509 C1508 1.400 . S
C1509 C1510 1.398 . S
C1510 H1498 0.950 . S
C1510 C1509 1.398 . S
C1510 C1511 1.391 . S
C1511 H1499 0.950 . S
C1511 C1507 1.393 . S
C1511 C1510 1.391 . S
H1512 C1520 0.950 . S
H1513 C1525 0.950 . S
H1514 C1522 0.950 1_655 S
H1515 C1524 0.950 . S
H1516 C1526 0.950 . S
H1517 C1528 0.950 . S
H1518 C1530 0.950 . S
H1519 C1531 0.950 . S
C1520 H1512 0.950 . S
C1520 C1521 1.386 . S
C1520 C1522 1.391 . S
C1521 C1520 1.386 . S
C1521 C1525 1.393 . S
C1522 H1514 0.950 1_455 S
C1522 C1520 1.391 . S
C1522 C1523 1.400 . S
C1523 C1522 1.400 . S
C1523 C1524 1.398 . S
C1523 C1529 1.491 . S
C1524 H1515 0.950 . S
C1524 C1523 1.398 . S
C1524 C1525 1.391 . S
C1525 H1513 0.950 . S
C1525 C1521 1.393 . S
C1525 C1524 1.391 . S
C1526 H1516 0.950 . S
C1526 C1527 1.386 . S
C1526 C1528 1.391 . S
C1527 C1526 1.386 . S
C1527 C1531 1.393 1_455 S
C1528 H1517 0.950 . S
C1528 C1526 1.391 . S
C1528 C1529 1.400 . S
C1529 C1523 1.491 . S
C1529 C1528 1.400 . S
C1529 C1530 1.398 1_455 S
C1530 H1518 0.950 . S
C1530 C1529 1.398 1_655 S
C1530 C1531 1.391 . S
C1531 H1519 0.950 . S
C1531 C1527 1.393 1_655 S
C1531 C1530 1.391 . S
H1532 C1540 0.950 . S
H1533 C1545 0.950 . S
H1534 C1542 0.950 . S
H1535 C1544 0.943 1_556 S
H1536 C1546 0.950 . S
H1537 C1548 0.944 1_556 S
H1538 C1550 0.950 . S
H1539 C1551 0.950 . S
C1540 H1532 0.950 . S
C1540 C1541 1.386 . S
C1540 C1542 1.391 . S
C1541 C1540 1.386 . S
C1541 C1545 1.393 . S
C1542 H1534 0.950 . S
C1542 C1540 1.391 . S
C1542 C1543 1.400 . S
C1543 C1542 1.400 . S
C1543 C1544 1.398 . S
C1543 C1549 1.491 . S
C1544 H1535 0.943 1_554 S
C1544 C1543 1.398 . S
C1544 C1545 1.391 . S
C1545 H1533 0.950 . S
C1545 C1541 1.393 . S
C1545 C1544 1.391 . S
C1546 H1536 0.950 . S
C1546 C1547 1.386 1_556 S
C1546 C1548 1.388 1_556 S
C1547 C1546 1.386 1_554 S
C1547 C1551 1.393 . S
C1548 H1537 0.944 1_554 S
C1548 C1546 1.388 1_554 S
C1548 C1549 1.409 . S
C1549 C1543 1.491 . S
C1549 C1548 1.409 . S
C1549 C1550 1.398 . S
C1550 H1538 0.950 . S
C1550 C1549 1.398 . S
C1550 C1551 1.391 . S
C1551 H1539 0.950 . S
C1551 C1547 1.393 . S
C1551 C1550 1.391 . S
H1552 C1560 0.950 . S
H1553 C1565 0.950 . S
H1554 C1562 0.950 . S
H1555 C1564 0.950 . S
H1556 C1566 0.950 . S
H1557 C1568 0.950 . S
H1558 C1570 0.950 . S
H1559 C1571 0.950 . S
C1560 H1552 0.950 . S
C1560 C1561 1.386 . S
C1560 C1562 1.391 . S
C1561 C1560 1.386 . S
C1561 C1565 1.393 . S
C1562 H1554 0.950 . S
C1562 C1560 1.391 . S
C1562 C1563 1.400 . S
C1563 C1562 1.400 . S
C1563 C1564 1.398 . S
C1563 C1569 1.491 . S
C1564 H1555 0.950 . S
C1564 C1563 1.398 . S
C1564 C1565 1.391 . S
C1565 H1553 0.950 . S
C1565 C1561 1.393 . S
C1565 C1564 1.391 . S
C1566 H1556 0.950 . S
C1566 C1567 1.386 . S
C1566 C1568 1.391 . S
C1567 C1566 1.386 . S
C1567 C1571 1.393 . S
C1568 H1557 0.950 . S
C1568 C1566 1.391 . S
C1568 C1569 1.400 . S
C1569 C1563 1.491 . S
C1569 C1568 1.400 . S
C1569 C1570 1.398 . S
C1570 H1558 0.950 . S
C1570 C1569 1.398 . S
C1570 C1571 1.391 . S
C1571 H1559 0.950 . S
C1571 C1567 1.393 . S
C1571 C1570 1.391 . S
H1572 C1580 0.950 . S
H1573 C1585 0.950 . S
H1574 C1582 0.950 . S
H1575 C1584 0.950 . S
H1576 C1586 0.950 . S
H1577 C1588 0.950 . S
H1578 C1590 0.950 . S
H1579 C1591 0.950 . S
C1580 H1572 0.950 . S
C1580 C1581 1.386 . S
C1580 C1582 1.391 . S
C1581 C1580 1.386 . S
C1581 C1585 1.393 . S
C1582 H1574 0.950 . S
C1582 C1580 1.391 . S
C1582 C1583 1.400 . S
C1583 C1582 1.400 . S
C1583 C1584 1.398 . S
C1583 C1589 1.491 . S
C1584 H1575 0.950 . S
C1584 C1583 1.398 . S
C1584 C1585 1.391 . S
C1585 H1573 0.950 . S
C1585 C1581 1.393 . S
C1585 C1584 1.391 . S
C1586 H1576 0.950 . S
C1586 C1587 1.386 . S
C1586 C1588 1.391 . S
C1587 C1586 1.386 . S
C1587 C1591 1.393 . S
C1588 H1577 0.950 . S
C1588 C1586 1.391 . S
C1588 C1589 1.400 . S
C1589 C1583 1.491 . S
C1589 C1588 1.400 . S
C1589 C1590 1.398 . S
C1590 H1578 0.950 . S
C1590 C1589 1.398 . S
C1590 C1591 1.391 . S
C1591 H1579 0.950 . S
C1591 C1587 1.393 . S
C1591 C1590 1.391 . S
H1592 C1600 0.950 . S
H1593 C1605 0.950 . S
H1594 C1602 0.950 . S
H1595 C1604 0.950 . S
H1596 C1606 0.950 . S
H1597 C1608 0.950 . S
H1598 C1610 0.950 . S
H1599 C1611 0.950 . S
C1600 H1592 0.950 . S
C1600 C1601 1.386 . S
C1600 C1602 1.391 . S
C1601 C1600 1.386 . S
C1601 C1605 1.393 . S
C1602 H1594 0.950 . S
C1602 C1600 1.391 . S
C1602 C1603 1.400 . S
C1603 C1602 1.400 . S
C1603 C1604 1.398 . S
C1603 C1609 1.491 . S
C1604 H1595 0.950 . S
C1604 C1603 1.398 . S
C1604 C1605 1.391 . S
C1605 H1593 0.950 . S
C1605 C1601 1.393 . S
C1605 C1604 1.391 . S
C1606 H1596 0.950 . S
C1606 C1607 1.386 . S
C1606 C1608 1.391 . S
C1607 C1606 1.386 . S
C1607 C1611 1.393 . S
C1608 H1597 0.950 . S
C1608 C1606 1.391 . S
C1608 C1609 1.400 . S
C1609 C1603 1.491 . S
C1609 C1608 1.400 . S
C1609 C1610 1.398 . S
C1610 H1598 0.950 . S
C1610 C1609 1.398 . S
C1610 C1611 1.391 . S
C1611 H1599 0.950 . S
C1611 C1607 1.393 . S
C1611 C1610 1.391 . S
H1612 C1620 0.950 . S
H1613 C1625 0.950 . S
H1614 C1622 0.950 . S
H1615 C1624 0.950 . S
H1616 C1626 0.950 . S
H1617 C1628 0.950 . S
H1618 C1630 0.950 . S
H1619 C1631 0.950 . S
C1620 H1612 0.950 . S
C1620 C1621 1.386 . S
C1620 C1622 1.391 . S
C1621 C1620 1.386 . S
C1621 C1625 1.393 . S
C1622 H1614 0.950 . S
C1622 C1620 1.391 . S
C1622 C1623 1.400 . S
C1623 C1622 1.400 . S
C1623 C1624 1.398 . S
C1623 C1629 1.491 . S
C1624 H1615 0.950 . S
C1624 C1623 1.398 . S
C1624 C1625 1.391 . S
C1625 H1613 0.950 . S
C1625 C1621 1.393 . S
C1625 C1624 1.391 . S
C1626 H1616 0.950 . S
C1626 C1627 1.386 . S
C1626 C1628 1.391 . S
C1627 C1626 1.386 . S
C1627 C1631 1.393 . S
C1628 H1617 0.950 . S
C1628 C1626 1.391 . S
C1628 C1629 1.400 . S
C1629 C1623 1.491 . S
C1629 C1628 1.400 . S
C1629 C1630 1.398 . S
C1630 H1618 0.950 . S
C1630 C1629 1.398 . S
C1630 C1631 1.391 . S
C1631 H1619 0.950 . S
C1631 C1627 1.393 . S
C1631 C1630 1.391 . S
H1632 C1640 0.950 . S
H1633 C1645 0.950 . S
H1634 C1642 0.950 . S
H1635 C1644 0.950 . S
H1636 C1646 0.950 . S
H1637 C1648 0.950 . S
H1638 C1650 0.950 . S
H1639 C1651 0.950 . S
C1640 H1632 0.950 . S
C1640 C1641 1.386 . S
C1640 C1642 1.391 . S
C1641 C1640 1.386 . S
C1641 C1645 1.393 . S
C1642 H1634 0.950 . S
C1642 C1640 1.391 . S
C1642 C1643 1.400 . S
C1643 C1642 1.400 . S
C1643 C1644 1.398 . S
C1643 C1649 1.491 . S
C1644 H1635 0.950 . S
C1644 C1643 1.398 . S
C1644 C1645 1.391 . S
C1645 H1633 0.950 . S
C1645 C1641 1.393 . S
C1645 C1644 1.391 . S
C1646 H1636 0.950 . S
C1646 C1647 1.386 . S
C1646 C1648 1.391 . S
C1647 C1646 1.386 . S
C1647 C1651 1.393 . S
C1648 H1637 0.950 . S
C1648 C1646 1.391 . S
C1648 C1649 1.400 . S
C1649 C1643 1.491 . S
C1649 C1648 1.400 . S
C1649 C1650 1.398 . S
C1650 H1638 0.950 . S
C1650 C1649 1.398 . S
C1650 C1651 1.391 . S
C1651 H1639 0.950 . S
C1651 C1647 1.393 . S
C1651 C1650 1.391 . S
H1652 C1660 0.950 . S
H1653 C1665 0.950 . S
H1654 C1662 0.950 . S
H1655 C1664 0.950 . S
H1656 C1666 0.950 . S
H1657 C1668 0.950 . S
H1658 C1670 0.950 . S
H1659 C1671 0.950 . S
C1660 H1652 0.950 . S
C1660 C1661 1.386 . S
C1660 C1662 1.391 . S
C1661 C1660 1.386 . S
C1661 C1665 1.393 . S
C1662 H1654 0.950 . S
C1662 C1660 1.391 . S
C1662 C1663 1.400 . S
C1663 C1662 1.400 . S
C1663 C1664 1.398 . S
C1663 C1669 1.491 . S
C1664 H1655 0.950 . S
C1664 C1663 1.398 . S
C1664 C1665 1.391 . S
C1665 H1653 0.950 . S
C1665 C1661 1.393 . S
C1665 C1664 1.391 . S
C1666 H1656 0.950 . S
C1666 C1667 1.386 . S
C1666 C1668 1.391 . S
C1667 C1666 1.386 . S
C1667 C1671 1.393 . S
C1668 H1657 0.950 . S
C1668 C1666 1.391 . S
C1668 C1669 1.400 . S
C1669 C1663 1.491 . S
C1669 C1668 1.400 . S
C1669 C1670 1.398 . S
C1670 H1658 0.950 . S
C1670 C1669 1.398 . S
C1670 C1671 1.391 . S
C1671 H1659 0.950 . S
C1671 C1667 1.393 . S
C1671 C1670 1.391 . S
H1672 C1680 0.950 . S
H1673 C1685 0.950 . S
H1674 C1682 0.950 . S
H1675 C1684 0.950 1_565 S
H1676 C1686 0.950 . S
H1677 C1688 0.950 . S
H1678 C1690 0.950 . S
H1679 C1691 0.950 . S
C1680 H1672 0.950 . S
C1680 C1681 1.386 . S
C1680 C1682 1.391 . S
C1681 C1680 1.386 . S
C1681 C1685 1.393 1_545 S
C1682 H1674 0.950 . S
C1682 C1680 1.391 . S
C1682 C1683 1.400 . S
C1683 C1682 1.400 . S
C1683 C1684 1.398 . S
C1683 C1689 1.491 . S
C1684 H1675 0.950 1_545 S
C1684 C1683 1.398 . S
C1684 C1685 1.391 1_545 S
C1685 H1673 0.950 . S
C1685 C1681 1.393 1_565 S
C1685 C1684 1.391 1_565 S
C1686 H1676 0.950 . S
C1686 C1687 1.386 . S
C1686 C1688 1.391 . S
C1687 C1686 1.386 . S
C1687 C1691 1.393 . S
C1688 H1677 0.950 . S
C1688 C1686 1.391 . S
C1688 C1689 1.400 . S
C1689 C1683 1.491 . S
C1689 C1688 1.400 . S
C1689 C1690 1.398 . S
C1690 H1678 0.950 . S
C1690 C1689 1.398 . S
C1690 C1691 1.391 . S
C1691 H1679 0.950 . S
C1691 C1687 1.393 . S
C1691 C1690 1.391 . S
H1692 C1700 0.950 . S
H1693 C1705 0.950 . S
H1694 C1702 0.950 . S
H1695 C1704 0.950 . S
H1696 C1706 0.950 . S
H1697 C1708 0.950 . S
H1698 C1710 0.950 . S
H1699 C1711 0.950 . S
C1700 H1692 0.950 . S
C1700 C1701 1.386 . S
C1700 C1702 1.391 . S
C1701 C1700 1.386 . S
C1701 C1705 1.393 . S
C1702 H1694 0.950 . S
C1702 C1700 1.391 . S
C1702 C1703 1.400 . S
C1703 C1702 1.400 . S
C1703 C1704 1.398 . S
C1703 C1709 1.491 . S
C1704 H1695 0.950 . S
C1704 C1703 1.398 . S
C1704 C1705 1.391 . S
C1705 H1693 0.950 . S
C1705 C1701 1.393 . S
C1705 C1704 1.391 . S
C1706 H1696 0.950 . S
C1706 C1707 1.386 . S
C1706 C1708 1.391 . S
C1707 C1706 1.386 . S
C1707 C1711 1.393 . S
C1708 H1697 0.950 . S
C1708 C1706 1.391 . S
C1708 C1709 1.400 . S
C1709 C1703 1.491 . S
C1709 C1708 1.400 . S
C1709 C1710 1.398 . S
C1710 H1698 0.950 . S
C1710 C1709 1.398 . S
C1710 C1711 1.391 . S
C1711 H1699 0.950 . S
C1711 C1707 1.393 . S
C1711 C1710 1.391 . S
H1712 C1720 0.950 . S
H1713 C1725 0.950 . S
H1714 C1722 0.950 . S
H1715 C1724 0.950 . S
H1716 C1726 0.950 . S
H1717 C1728 0.950 . S
H1718 C1730 0.950 . S
H1719 C1731 0.950 . S
C1720 H1712 0.950 . S
C1720 C1721 1.386 . S
C1720 C1722 1.391 . S
C1721 C1720 1.386 . S
C1721 C1725 1.393 . S
C1722 H1714 0.950 . S
C1722 C1720 1.391 . S
C1722 C1723 1.400 . S
C1723 C1722 1.400 . S
C1723 C1724 1.398 . S
C1723 C1729 1.491 . S
C1724 H1715 0.950 . S
C1724 C1723 1.398 . S
C1724 C1725 1.391 . S
C1725 H1713 0.950 . S
C1725 C1721 1.393 . S
C1725 C1724 1.391 . S
C1726 H1716 0.950 . S
C1726 C1727 1.386 . S
C1726 C1728 1.391 . S
C1727 C1726 1.386 . S
C1727 C1731 1.393 . S
C1728 H1717 0.950 . S
C1728 C1726 1.391 . S
C1728 C1729 1.400 . S
C1729 C1723 1.491 . S
C1729 C1728 1.400 . S
C1729 C1730 1.398 . S
C1730 H1718 0.950 . S
C1730 C1729 1.398 . S
C1730 C1731 1.391 . S
C1731 H1719 0.950 . S
C1731 C1727 1.393 . S
C1731 C1730 1.391 . S
H1732 C1740 0.950 . S
H1733 C1745 0.950 . S
H1734 C1742 0.950 . S
H1735 C1744 0.950 . S
H1736 C1746 0.950 . S
H1737 C1748 0.950 . S
H1738 C1750 0.950 . S
H1739 C1751 0.950 . S
C1740 H1732 0.950 . S
C1740 C1741 1.386 . S
C1740 C1742 1.391 . S
C1741 C1740 1.386 . S
C1741 C1745 1.393 . S
C1742 H1734 0.950 . S
C1742 C1740 1.391 . S
C1742 C1743 1.400 . S
C1743 C1742 1.400 . S
C1743 C1744 1.398 . S
C1743 C1749 1.491 . S
C1744 H1735 0.950 . S
C1744 C1743 1.398 . S
C1744 C1745 1.391 . S
C1745 H1733 0.950 . S
C1745 C1741 1.393 . S
C1745 C1744 1.391 . S
C1746 H1736 0.950 . S
C1746 C1747 1.386 . S
C1746 C1748 1.391 . S
C1747 C1746 1.386 . S
C1747 C1751 1.393 . S
C1748 H1737 0.950 . S
C1748 C1746 1.391 . S
C1748 C1749 1.400 . S
C1749 C1743 1.491 . S
C1749 C1748 1.400 . S
C1749 C1750 1.398 . S
C1750 H1738 0.950 . S
C1750 C1749 1.398 . S
C1750 C1751 1.391 . S
C1751 H1739 0.950 . S
C1751 C1747 1.393 . S
C1751 C1750 1.391 . S
H1752 C1760 0.950 . S
H1753 C1765 0.950 . S
H1754 C1762 0.950 . S
H1755 C1764 0.950 . S
H1756 C1766 0.950 1_565 S
H1757 C1768 0.950 . S
H1758 C1770 0.950 . S
H1759 C1771 0.950 . S
C1760 H1752 0.950 . S
C1760 C1761 1.386 . S
C1760 C1762 1.391 . S
C1761 C1760 1.386 . S
C1761 C1765 1.393 . S
C1762 H1754 0.950 . S
C1762 C1760 1.391 . S
C1762 C1763 1.400 . S
C1763 C1762 1.400 . S
C1763 C1764 1.398 . S
C1763 C1769 1.491 . S
C1764 H1755 0.950 . S
C1764 C1763 1.398 . S
C1764 C1765 1.391 . S
C1765 H1753 0.950 . S
C1765 C1761 1.393 . S
C1765 C1764 1.391 . S
C1766 H1756 0.950 1_545 S
C1766 C1767 1.386 . S
C1766 C1768 1.391 . S
C1767 C1766 1.386 . S
C1767 C1771 1.393 . S
C1768 H1757 0.950 . S
C1768 C1766 1.391 . S
C1768 C1769 1.400 . S
C1769 C1763 1.491 . S
C1769 C1768 1.400 . S
C1769 C1770 1.398 . S
C1770 H1758 0.950 . S
C1770 C1769 1.398 . S
C1770 C1771 1.391 . S
C1771 H1759 0.950 . S
C1771 C1767 1.393 . S
C1771 C1770 1.391 . S
H1772 C1780 0.950 . S
H1773 C1785 0.950 1_556 S
H1774 C1782 0.950 . S
H1775 C1784 0.971 . S
H1776 C1786 0.950 . S
H1777 C1788 0.950 . S
H1778 C1790 0.950 . S
H1779 C1791 0.950 . S
C1780 H1772 0.950 . S
C1780 C1781 1.386 . S
C1780 C1782 1.391 . S
C1781 C1780 1.386 . S
C1781 C1785 1.393 . S
C1782 H1774 0.950 . S
C1782 C1780 1.391 . S
C1782 C1783 1.400 . S
C1783 C1782 1.400 . S
C1783 C1784 1.398 . S
C1783 C1789 1.491 . S
C1784 H1775 0.971 . S
C1784 C1783 1.398 . S
C1784 C1785 1.391 . S
C1785 H1773 0.950 1_554 S
C1785 C1781 1.393 . S
C1785 C1784 1.391 . S
C1786 H1776 0.950 . S
C1786 C1787 1.386 . S
C1786 C1788 1.391 . S
C1787 C1786 1.386 . S
C1787 C1791 1.393 . S
C1788 H1777 0.950 . S
C1788 C1786 1.391 . S
C1788 C1789 1.400 . S
C1789 C1783 1.491 . S
C1789 C1788 1.400 . S
C1789 C1790 1.398 . S
C1790 H1778 0.950 . S
C1790 C1789 1.398 . S
C1790 C1791 1.391 . S
C1791 H1779 0.950 . S
C1791 C1787 1.393 . S
C1791 C1790 1.391 . S
H1792 C1800 0.950 . S
H1793 C1805 0.950 . S
H1794 C1802 0.950 . S
H1795 C1804 0.950 . S
H1796 C1806 0.950 . S
H1797 C1808 0.950 . S
H1798 C1810 0.950 . S
H1799 C1811 0.950 . S
C1800 H1792 0.950 . S
C1800 C1801 1.386 . S
C1800 C1802 1.391 . S
C1801 C1800 1.386 . S
C1801 C1805 1.393 . S
C1802 H1794 0.950 . S
C1802 C1800 1.391 . S
C1802 C1803 1.400 . S
C1803 C1802 1.400 . S
C1803 C1804 1.398 . S
C1803 C1809 1.491 . S
C1804 H1795 0.950 . S
C1804 C1803 1.398 . S
C1804 C1805 1.391 . S
C1805 H1793 0.950 . S
C1805 C1801 1.393 . S
C1805 C1804 1.391 . S
C1806 H1796 0.950 . S
C1806 C1807 1.386 . S
C1806 C1808 1.391 . S
C1807 C1806 1.386 . S
C1807 C1811 1.393 . S
C1808 H1797 0.950 . S
C1808 C1806 1.391 . S
C1808 C1809 1.400 . S
C1809 C1803 1.491 . S
C1809 C1808 1.400 . S
C1809 C1810 1.398 . S
C1810 H1798 0.950 . S
C1810 C1809 1.398 . S
C1810 C1811 1.391 . S
C1811 H1799 0.950 . S
C1811 C1807 1.393 . S
C1811 C1810 1.391 . S
H1812 C1820 0.950 . S
H1813 C1825 0.950 . S
H1814 C1822 0.950 . S
H1815 C1824 0.950 . S
H1816 C1826 0.950 . S
H1817 C1828 0.950 . S
H1818 C1830 0.950 . S
H1819 C1831 0.950 . S
C1820 H1812 0.950 . S
C1820 C1821 1.386 . S
C1820 C1822 1.391 . S
C1821 C1820 1.386 . S
C1821 C1825 1.393 . S
C1822 H1814 0.950 . S
C1822 C1820 1.391 . S
C1822 C1823 1.400 . S
C1823 C1822 1.400 . S
C1823 C1824 1.398 . S
C1823 C1829 1.491 . S
C1824 H1815 0.950 . S
C1824 C1823 1.398 . S
C1824 C1825 1.391 . S
C1825 H1813 0.950 . S
C1825 C1821 1.393 . S
C1825 C1824 1.391 . S
C1826 H1816 0.950 . S
C1826 C1827 1.386 . S
C1826 C1828 1.391 . S
C1827 C1826 1.386 . S
C1827 C1831 1.393 . S
C1828 H1817 0.950 . S
C1828 C1826 1.391 . S
C1828 C1829 1.400 . S
C1829 C1823 1.491 . S
C1829 C1828 1.400 . S
C1829 C1830 1.398 . S
C1830 H1818 0.950 . S
C1830 C1829 1.398 . S
C1830 C1831 1.391 . S
C1831 H1819 0.950 . S
C1831 C1827 1.393 . S
C1831 C1830 1.391 . S
H1832 C1840 0.950 . S
H1833 C1845 0.950 . S
H1834 C1842 0.950 . S
H1835 C1844 0.950 . S
H1836 C1846 0.950 . S
H1837 C1848 0.950 . S
H1838 C1850 0.950 . S
H1839 C1851 0.950 . S
C1840 H1832 0.950 . S
C1840 C1841 1.386 . S
C1840 C1842 1.391 . S
C1841 C1840 1.386 . S
C1841 C1845 1.393 . S
C1842 H1834 0.950 . S
C1842 C1840 1.391 . S
C1842 C1843 1.400 . S
C1843 C1842 1.400 . S
C1843 C1844 1.398 . S
C1843 C1849 1.491 . S
C1844 H1835 0.950 . S
C1844 C1843 1.398 . S
C1844 C1845 1.391 . S
C1845 H1833 0.950 . S
C1845 C1841 1.393 . S
C1845 C1844 1.391 . S
C1846 H1836 0.950 . S
C1846 C1847 1.386 . S
C1846 C1848 1.391 . S
C1847 C1846 1.386 . S
C1847 C1851 1.393 . S
C1848 H1837 0.950 . S
C1848 C1846 1.391 . S
C1848 C1849 1.400 . S
C1849 C1843 1.491 . S
C1849 C1848 1.400 . S
C1849 C1850 1.398 . S
C1850 H1838 0.950 . S
C1850 C1849 1.398 . S
C1850 C1851 1.391 . S
C1851 H1839 0.950 . S
C1851 C1847 1.393 . S
C1851 C1850 1.391 . S
H1852 C1860 0.950 . S
H1853 C1865 0.950 . S
H1854 C1862 0.950 . S
H1855 C1864 0.950 . S
H1856 C1866 0.950 . S
H1857 C1868 0.950 . S
H1858 C1870 0.950 . S
H1859 C1871 0.950 . S
C1860 H1852 0.950 . S
C1860 C1861 1.386 . S
C1860 C1862 1.391 . S
C1861 C1860 1.386 . S
C1861 C1865 1.393 . S
C1862 H1854 0.950 . S
C1862 C1860 1.391 . S
C1862 C1863 1.400 . S
C1863 C1862 1.400 . S
C1863 C1864 1.398 . S
C1863 C1869 1.491 . S
C1864 H1855 0.950 . S
C1864 C1863 1.398 . S
C1864 C1865 1.391 . S
C1865 H1853 0.950 . S
C1865 C1861 1.393 . S
C1865 C1864 1.391 . S
C1866 H1856 0.950 . S
C1866 C1867 1.386 . S
C1866 C1868 1.391 . S
C1867 C1866 1.386 . S
C1867 C1871 1.393 . S
C1868 H1857 0.950 . S
C1868 C1866 1.391 . S
C1868 C1869 1.400 . S
C1869 C1863 1.491 . S
C1869 C1868 1.400 . S
C1869 C1870 1.398 . S
C1870 H1858 0.950 . S
C1870 C1869 1.398 . S
C1870 C1871 1.391 . S
C1871 H1859 0.950 . S
C1871 C1867 1.393 . S
C1871 C1870 1.391 . S
H1872 C1880 0.950 . S
H1873 C1885 0.950 . S
H1874 C1882 0.950 . S
H1875 C1884 0.950 . S
H1876 C1886 0.950 . S
H1877 C1888 0.950 . S
H1878 C1890 0.950 . S
H1879 C1891 0.950 . S
C1880 H1872 0.950 . S
C1880 C1881 1.386 . S
C1880 C1882 1.391 . S
C1881 C1880 1.386 . S
C1881 C1885 1.393 . S
C1882 H1874 0.950 . S
C1882 C1880 1.391 . S
C1882 C1883 1.400 . S
C1883 C1882 1.400 . S
C1883 C1884 1.398 . S
C1883 C1889 1.491 . S
C1884 H1875 0.950 . S
C1884 C1883 1.398 . S
C1884 C1885 1.391 . S
C1885 H1873 0.950 . S
C1885 C1881 1.393 . S
C1885 C1884 1.391 . S
C1886 H1876 0.950 . S
C1886 C1887 1.386 . S
C1886 C1888 1.391 . S
C1887 C1886 1.386 . S
C1887 C1891 1.393 . S
C1888 H1877 0.950 . S
C1888 C1886 1.391 . S
C1888 C1889 1.400 . S
C1889 C1883 1.491 . S
C1889 C1888 1.400 . S
C1889 C1890 1.398 . S
C1890 H1878 0.950 . S
C1890 C1889 1.398 . S
C1890 C1891 1.391 . S
C1891 H1879 0.950 . S
C1891 C1887 1.393 . S
C1891 C1890 1.391 . S
H1892 C1900 0.950 1_556 S
H1893 C1905 0.950 . S
H1894 C1902 0.950 . S
H1895 C1904 0.950 . S
H1896 C1906 0.950 . S
H1897 C1908 0.950 . S
H1898 C1910 0.950 . S
H1899 C1911 0.950 . S
C1900 H1892 0.950 1_554 S
C1900 C1901 1.386 . S
C1900 C1902 1.391 . S
C1901 C1900 1.386 . S
C1901 C1905 1.393 . S
C1902 H1894 0.950 . S
C1902 C1900 1.391 . S
C1902 C1903 1.400 . S
C1903 C1902 1.400 . S
C1903 C1904 1.398 . S
C1903 C1909 1.491 . S
C1904 H1895 0.950 . S
C1904 C1903 1.398 . S
C1904 C1905 1.391 . S
C1905 H1893 0.950 . S
C1905 C1901 1.393 . S
C1905 C1904 1.391 . S
C1906 H1896 0.950 . S
C1906 C1907 1.386 . S
C1906 C1908 1.391 . S
C1907 C1906 1.386 . S
C1907 C1911 1.393 . S
C1908 H1897 0.950 . S
C1908 C1906 1.391 . S
C1908 C1909 1.400 . S
C1909 C1903 1.491 . S
C1909 C1908 1.400 . S
C1909 C1910 1.398 . S
C1910 H1898 0.950 . S
C1910 C1909 1.398 . S
C1910 C1911 1.391 . S
C1911 H1899 0.950 . S
C1911 C1907 1.393 . S
C1911 C1910 1.391 . S
H1912 C1920 0.950 . S
H1913 C1925 0.950 . S
H1914 C1922 0.950 . S
H1915 C1924 0.950 . S
H1916 C1926 0.950 1_655 S
H1917 C1928 0.950 . S
H1918 C1930 0.950 . S
H1919 C1931 0.950 . S
C1920 H1912 0.950 . S
C1920 C1921 1.386 . S
C1920 C1922 1.391 . S
C1921 C1920 1.386 . S
C1921 C1925 1.393 . S
C1922 H1914 0.950 . S
C1922 C1920 1.391 . S
C1922 C1923 1.400 . S
C1923 C1922 1.400 . S
C1923 C1924 1.398 . S
C1923 C1929 1.491 . S
C1924 H1915 0.950 . S
C1924 C1923 1.398 . S
C1924 C1925 1.391 . S
C1925 H1913 0.950 . S
C1925 C1921 1.393 . S
C1925 C1924 1.391 . S
C1926 H1916 0.950 1_455 S
C1926 C1927 1.386 . S
C1926 C1928 1.391 . S
C1927 C1926 1.386 . S
C1927 C1931 1.393 . S
C1928 H1917 0.950 . S
C1928 C1926 1.391 . S
C1928 C1929 1.400 . S
C1929 C1923 1.491 . S
C1929 C1928 1.400 . S
C1929 C1930 1.398 . S
C1930 H1918 0.950 . S
C1930 C1929 1.398 . S
C1930 C1931 1.391 . S
C1931 H1919 0.950 . S
C1931 C1927 1.393 . S
C1931 C1930 1.391 . S
H1932 C1940 0.950 . S
H1933 C1945 0.950 . S
H1934 C1942 0.950 . S
H1935 C1944 0.950 . S
H1936 C1946 0.950 . S
H1937 C1948 0.950 . S
H1938 C1950 0.950 . S
H1939 C1951 0.950 . S
C1940 H1932 0.950 . S
C1940 C1941 1.386 . S
C1940 C1942 1.391 . S
C1941 C1940 1.386 . S
C1941 C1945 1.393 . S
C1942 H1934 0.950 . S
C1942 C1940 1.391 . S
C1942 C1943 1.400 . S
C1943 C1942 1.400 . S
C1943 C1944 1.398 . S
C1943 C1949 1.491 . S
C1944 H1935 0.950 . S
C1944 C1943 1.398 . S
C1944 C1945 1.391 . S
C1945 H1933 0.950 . S
C1945 C1941 1.393 . S
C1945 C1944 1.391 . S
C1946 H1936 0.950 . S
C1946 C1947 1.386 . S
C1946 C1948 1.391 . S
C1947 C1946 1.386 . S
C1947 C1951 1.393 . S
C1948 H1937 0.950 . S
C1948 C1946 1.391 . S
C1948 C1949 1.400 . S
C1949 C1943 1.491 . S
C1949 C1948 1.400 . S
C1949 C1950 1.398 . S
C1950 H1938 0.950 . S
C1950 C1949 1.398 . S
C1950 C1951 1.391 . S
C1951 H1939 0.950 . S
C1951 C1947 1.393 . S
C1951 C1950 1.391 . S
H1952 C1960 0.950 . S
H1953 C1965 0.950 . S
H1954 C1962 0.950 . S
H1955 C1964 0.950 . S
H1956 C1966 0.950 . S
H1957 C1968 0.950 . S
H1958 C1970 0.950 . S
H1959 C1971 0.950 . S
C1960 H1952 0.950 . S
C1960 C1961 1.386 . S
C1960 C1962 1.391 . S
C1961 C1960 1.386 . S
C1961 C1965 1.393 . S
C1962 H1954 0.950 . S
C1962 C1960 1.391 . S
C1962 C1963 1.400 . S
C1963 C1962 1.400 . S
C1963 C1964 1.398 . S
C1963 C1969 1.491 . S
C1964 H1955 0.950 . S
C1964 C1963 1.398 . S
C1964 C1965 1.391 . S
C1965 H1953 0.950 . S
C1965 C1961 1.393 . S
C1965 C1964 1.391 . S
C1966 H1956 0.950 . S
C1966 C1967 1.386 . S
C1966 C1968 1.391 . S
C1967 C1966 1.386 . S
C1967 C1971 1.393 . S
C1968 H1957 0.950 . S
C1968 C1966 1.391 . S
C1968 C1969 1.400 . S
C1969 C1963 1.491 . S
C1969 C1968 1.400 . S
C1969 C1970 1.398 . S
C1970 H1958 0.950 . S
C1970 C1969 1.398 . S
C1970 C1971 1.391 . S
C1971 H1959 0.950 . S
C1971 C1967 1.393 . S
C1971 C1970 1.391 . S
H1972 C1980 0.950 1_655 S
H1973 C1985 0.950 . S
H1974 C1982 0.950 . S
H1975 C1984 0.950 . S
H1976 C1986 0.950 . S
H1977 C1988 0.950 . S
H1978 C1990 0.950 . S
H1979 C1991 0.950 . S
C1980 H1972 0.950 1_455 S
C1980 C1981 1.386 . S
C1980 C1982 1.391 . S
C1981 C1980 1.386 . S
C1981 C1985 1.393 . S
C1982 H1974 0.950 . S
C1982 C1980 1.391 . S
C1982 C1983 1.400 . S
C1983 C1982 1.400 . S
C1983 C1984 1.398 . S
C1983 C1989 1.491 . S
C1984 H1975 0.950 . S
C1984 C1983 1.398 . S
C1984 C1985 1.391 . S
C1985 H1973 0.950 . S
C1985 C1981 1.393 . S
C1985 C1984 1.391 . S
C1986 H1976 0.950 . S
C1986 C1987 1.386 . S
C1986 C1988 1.391 . S
C1987 C1986 1.386 . S
C1987 C1991 1.393 . S
C1988 H1977 0.950 . S
C1988 C1986 1.391 . S
C1988 C1989 1.400 . S
C1989 C1983 1.491 . S
C1989 C1988 1.400 . S
C1989 C1990 1.398 . S
C1990 H1978 0.950 . S
C1990 C1989 1.398 . S
C1990 C1991 1.391 . S
C1991 H1979 0.950 . S
C1991 C1987 1.393 . S
C1991 C1990 1.391 . S
C801 C21 0.840 . S
C807 C681 0.826 . S
C821 C582 0.841 1_556 S
C827 C54 0.854 . S
C841 C615 0.871 . S
C847 C87 0.866 . S
C861 C648 0.856 . S
C867 C120 0.867 . S
C881 C153 0.849 . S
C887 C780 0.862 . S
C901 C714 0.814 . S
C907 C186 0.822 . S
C921 C747 0.823 . S
C927 C219 0.815 1_655 S
C941 C549 0.842 . S
C947 C252 0.856 . S
C961 C285 0.828 . S
C967 C516 0.817 . S
C981 C417 0.867 . S
C987 C318 0.857 . S
C1001 C351 0.815 1_565 S
C1007 C450 0.823 . S
C1021 C483 0.814 . S
C1027 C384 0.820 . S
C1041 C634 1.490 . S
C1047 N13 1.216 . S
C1061 N46 1.242 . S
C1067 C667 1.495 . S
C1081 C568 1.488 . S
C1087 N79 1.219 1_565 S
C1101 N112 1.194 . S
C1107 C601 1.484 . S
C1121 C700 1.495 . S
C1127 N145 1.243 . S
C1141 C733 1.484 . S
C1147 N178 1.202 . S
C1161 C535 1.494 . S
C1167 N211 1.241 . S
C1181 N244 1.187 . S
C1187 C766 1.481 . S
C1201 N277 1.202 . S
C1207 C73 1.487 . S
C1221 N310 1.243 . S
C1227 C106 1.495 . S
C1241 N343 1.237 . S
C1247 C7 1.494 . S
C1261 C40 1.494 . S
C1267 N376 1.240 . S
C1281 N409 1.240 1_556 S
C1287 C205 1.495 . S
C1301 C238 1.481 . S
C1307 N442 1.186 . S
C1321 C139 1.494 . S
C1327 N475 1.233 . S
C1341 C172 1.494 . S
C1347 N508 1.240 . S
C1361 C403 1.486 . S
C1367 N541 1.199 . S
C1381 C271 1.482 . S
C1387 N574 1.186 . S
C1401 N607 1.207 . S
C1407 C304 1.485 . S
C1421 N640 1.187 1_655 S
C1427 C337 1.482 . S
C1441 C370 1.495 . S
C1447 N673 1.239 . S
C1461 N706 1.188 . S
C1467 C469 1.483 . S
C1481 C502 1.492 . S
C1487 N739 1.226 . S
C1501 N772 1.188 . S
C1507 C436 1.483 . S
C1521 C18 1.134 . S
C1527 C744 1.116 1_455 S
C1541 C546 1.117 . S
C1547 C51 1.141 1_554 S
C1561 C84 1.141 . S
C1567 C777 1.122 . S
C1581 C711 1.128 . S
C1587 C117 1.138 . S
C1601 C150 1.138 . S
C1607 C612 1.115 . S
C1621 C645 1.123 . S
C1627 C183 1.141 . S
C1641 C216 1.119 . S
C1647 C678 1.142 . S
C1661 C579 1.127 . S
C1667 C249 1.120 . S
C1681 C447 1.130 1_545 S
C1687 C282 1.137 . S
C1701 C480 1.126 . S
C1707 C315 1.139 . S
C1721 C348 1.131 . S
C1727 C513 1.117 . S
C1741 C381 1.122 . S
C1747 C414 1.124 . S
C1761 N497 0.626 . S
C1767 N2 0.594 . S
C1781 N35 0.534 . S
C1787 N398 0.590 . S
C1801 N431 0.596 . S
C1807 N68 0.625 . S
C1821 N464 0.619 . S
C1827 N101 0.607 . S
C1841 N134 0.559 . S
C1847 N299 0.545 . S
C1861 N332 0.566 . S
C1867 N167 0.628 . S
C1881 N200 0.616 . S
C1887 N365 0.610 . S
C1901 N266 0.563 . S
C1907 N233 0.543 . S
C1921 N662 0.619 . S
C1927 N530 0.606 . S
C1941 N761 0.543 . S
C1947 N563 0.615 . S
C1961 N695 0.605 . S
C1967 N596 0.620 . S
C1981 N728 0.627 . S
C1987 N629 0.590 . S
