# Generated by pormake.
# Topology umk, (4)-cn, num edge types: 1
# Building blocks:
#     Node 0, Type 0, BuildingBlock: CEKHIL_clean_sbu_0, # of connection points: 4
#     Node 1, Type 0, BuildingBlock: CEKHIL_clean_sbu_0, # of connection points: 4
#     Node 2, Type 0, BuildingBlock: CEKHIL_clean_sbu_0, # of connection points: 4
#     Node 3, Type 0, BuildingBlock: CEKHIL_clean_sbu_0, # of connection points: 4
#     Node 4, Type 0, BuildingBlock: CEKHIL_clean_sbu_0, # of connection points: 4
#     Node 5, Type 0, BuildingBlock: CEKHIL_clean_sbu_0, # of connection points: 4
#     Node 6, Type 0, BuildingBlock: CEKHIL_clean_sbu_0, # of connection points: 4
#     Node 7, Type 0, BuildingBlock: CEKHIL_clean_sbu_0, # of connection points: 4
#     Node 8, Type 0, BuildingBlock: CEKHIL_clean_sbu_0, # of connection points: 4
#     Node 9, Type 0, BuildingBlock: CEKHIL_clean_sbu_0, # of connection points: 4
#     Node 10, Type 0, BuildingBlock: CEKHIL_clean_sbu_0, # of connection points: 4
#     Node 11, Type 0, BuildingBlock: CEKHIL_clean_sbu_0, # of connection points: 4
#     Node 12, Type 0, BuildingBlock: CEKHIL_clean_sbu_0, # of connection points: 4
#     Node 13, Type 0, BuildingBlock: CEKHIL_clean_sbu_0, # of connection points: 4
#     Node 14, Type 0, BuildingBlock: CEKHIL_clean_sbu_0, # of connection points: 4
#     Node 15, Type 0, BuildingBlock: CEKHIL_clean_sbu_0, # of connection points: 4
#     Node 16, Type 0, BuildingBlock: CEKHIL_clean_sbu_0, # of connection points: 4
#     Node 17, Type 0, BuildingBlock: CEKHIL_clean_sbu_0, # of connection points: 4
#     Node 18, Type 0, BuildingBlock: CEKHIL_clean_sbu_0, # of connection points: 4
#     Node 19, Type 0, BuildingBlock: CEKHIL_clean_sbu_0, # of connection points: 4
#     Node 20, Type 0, BuildingBlock: CEKHIL_clean_sbu_0, # of connection points: 4
#     Node 21, Type 0, BuildingBlock: CEKHIL_clean_sbu_0, # of connection points: 4
#     Node 22, Type 0, BuildingBlock: CEKHIL_clean_sbu_0, # of connection points: 4
#     Node 23, Type 0, BuildingBlock: CEKHIL_clean_sbu_0, # of connection points: 4
#     Edge 24, Type (0, 0), BuildingBlock: AJUNOK_clean_linker_0, # of connection points: 2
#     Edge 25, Type (0, 0), BuildingBlock: AJUNOK_clean_linker_0, # of connection points: 2
#     Edge 26, Type (0, 0), BuildingBlock: AJUNOK_clean_linker_0, # of connection points: 2
#     Edge 27, Type (0, 0), BuildingBlock: AJUNOK_clean_linker_0, # of connection points: 2
#     Edge 28, Type (0, 0), BuildingBlock: AJUNOK_clean_linker_0, # of connection points: 2
#     Edge 29, Type (0, 0), BuildingBlock: AJUNOK_clean_linker_0, # of connection points: 2
#     Edge 30, Type (0, 0), BuildingBlock: AJUNOK_clean_linker_0, # of connection points: 2
#     Edge 31, Type (0, 0), BuildingBlock: AJUNOK_clean_linker_0, # of connection points: 2
#     Edge 32, Type (0, 0), BuildingBlock: AJUNOK_clean_linker_0, # of connection points: 2
#     Edge 33, Type (0, 0), BuildingBlock: AJUNOK_clean_linker_0, # of connection points: 2
#     Edge 34, Type (0, 0), BuildingBlock: AJUNOK_clean_linker_0, # of connection points: 2
#     Edge 35, Type (0, 0), BuildingBlock: AJUNOK_clean_linker_0, # of connection points: 2
#     Edge 36, Type (0, 0), BuildingBlock: AJUNOK_clean_linker_0, # of connection points: 2
#     Edge 37, Type (0, 0), BuildingBlock: AJUNOK_clean_linker_0, # of connection points: 2
#     Edge 38, Type (0, 0), BuildingBlock: AJUNOK_clean_linker_0, # of connection points: 2
#     Edge 39, Type (0, 0), BuildingBlock: AJUNOK_clean_linker_0, # of connection points: 2
#     Edge 40, Type (0, 0), BuildingBlock: AJUNOK_clean_linker_0, # of connection points: 2
#     Edge 41, Type (0, 0), BuildingBlock: AJUNOK_clean_linker_0, # of connection points: 2
#     Edge 42, Type (0, 0), BuildingBlock: AJUNOK_clean_linker_0, # of connection points: 2
#     Edge 43, Type (0, 0), BuildingBlock: AJUNOK_clean_linker_0, # of connection points: 2
#     Edge 44, Type (0, 0), BuildingBlock: AJUNOK_clean_linker_0, # of connection points: 2
#     Edge 45, Type (0, 0), BuildingBlock: AJUNOK_clean_linker_0, # of connection points: 2
#     Edge 46, Type (0, 0), BuildingBlock: AJUNOK_clean_linker_0, # of connection points: 2
#     Edge 47, Type (0, 0), BuildingBlock: AJUNOK_clean_linker_0, # of connection points: 2
#     Edge 48, Type (0, 0), BuildingBlock: AJUNOK_clean_linker_0, # of connection points: 2
#     Edge 49, Type (0, 0), BuildingBlock: AJUNOK_clean_linker_0, # of connection points: 2
#     Edge 50, Type (0, 0), BuildingBlock: AJUNOK_clean_linker_0, # of connection points: 2
#     Edge 51, Type (0, 0), BuildingBlock: AJUNOK_clean_linker_0, # of connection points: 2
#     Edge 52, Type (0, 0), BuildingBlock: AJUNOK_clean_linker_0, # of connection points: 2
#     Edge 53, Type (0, 0), BuildingBlock: AJUNOK_clean_linker_0, # of connection points: 2
#     Edge 54, Type (0, 0), BuildingBlock: AJUNOK_clean_linker_0, # of connection points: 2
#     Edge 55, Type (0, 0), BuildingBlock: AJUNOK_clean_linker_0, # of connection points: 2
#     Edge 56, Type (0, 0), BuildingBlock: AJUNOK_clean_linker_0, # of connection points: 2
#     Edge 57, Type (0, 0), BuildingBlock: AJUNOK_clean_linker_0, # of connection points: 2
#     Edge 58, Type (0, 0), BuildingBlock: AJUNOK_clean_linker_0, # of connection points: 2
#     Edge 59, Type (0, 0), BuildingBlock: AJUNOK_clean_linker_0, # of connection points: 2
#     Edge 60, Type (0, 0), BuildingBlock: AJUNOK_clean_linker_0, # of connection points: 2
#     Edge 61, Type (0, 0), BuildingBlock: AJUNOK_clean_linker_0, # of connection points: 2
#     Edge 62, Type (0, 0), BuildingBlock: AJUNOK_clean_linker_0, # of connection points: 2
#     Edge 63, Type (0, 0), BuildingBlock: AJUNOK_clean_linker_0, # of connection points: 2
#     Edge 64, Type (0, 0), BuildingBlock: AJUNOK_clean_linker_0, # of connection points: 2
#     Edge 65, Type (0, 0), BuildingBlock: AJUNOK_clean_linker_0, # of connection points: 2
#     Edge 66, Type (0, 0), BuildingBlock: AJUNOK_clean_linker_0, # of connection points: 2
#     Edge 67, Type (0, 0), BuildingBlock: AJUNOK_clean_linker_0, # of connection points: 2
#     Edge 68, Type (0, 0), BuildingBlock: AJUNOK_clean_linker_0, # of connection points: 2
#     Edge 69, Type (0, 0), BuildingBlock: AJUNOK_clean_linker_0, # of connection points: 2
#     Edge 70, Type (0, 0), BuildingBlock: AJUNOK_clean_linker_0, # of connection points: 2
#     Edge 71, Type (0, 0), BuildingBlock: AJUNOK_clean_linker_0, # of connection points: 2
# Relax obj value: 0.066
# Max RMSD: 0.048
# Mean RMSD: 0.048
data_MOF--net-umk--node1-CEKHIL_clean_sbu_0--edge1-AJUNOK_clean_linker_0
_symmetry_space_group_name_H-M    P1
_symmetry_Int_Tables_number       1
_symmetry_cell_setting            triclinic
loop_
_symmetry_equiv_pos_as_xyz
'x, y, z'
_cell_length_a     48.255521
_cell_length_b     48.175885
_cell_length_c     31.59107
_cell_angle_alpha  89.990353
_cell_angle_beta   89.983231
_cell_angle_gamma 120.14738
loop_
_atom_site_label
_atom_site_type_symbol
_atom_site_fract_x
_atom_site_fract_y
_atom_site_fract_z
_atom_type_partial_charge
Co0 Co 0.34188 0.47748 0.0894 0.0
O1 O 0.31377 0.4947 0.07986 0.0
O2 O 0.31492 0.45807 0.03934 0.0
C3 C 0.332 0.47105 0.16001 0.0
O4 O 0.36678 0.45277 0.09138 0.0
Co5 Co 0.40024 0.51236 0.15064 0.0
O6 O 0.39914 0.47071 0.14841 0.0
C7 C 0.40353 0.53878 0.06502 0.0
C8 C 0.30208 0.47566 0.04768 0.0
C9 C 0.38599 0.45074 0.11822 0.0
O10 O 0.37703 0.51334 0.05438 0.0
O11 O 0.41487 0.54367 0.10265 0.0
O12 O 0.31246 0.44892 0.134 0.0
O13 O 0.35517 0.49591 0.14242 0.0
Co14 Co 0.87399 0.33654 0.58778 0.0
O15 O 0.82807 0.31003 0.57965 0.0
O16 O 0.86431 0.30832 0.5389 0.0
C17 C 0.8734 0.3285 0.65883 0.0
O18 O 0.92352 0.35957 0.58694 0.0
Co19 Co 0.90214 0.39674 0.64661 0.0
O20 O 0.94198 0.39469 0.64121 0.0
C21 C 0.87546 0.39848 0.56317 0.0
C22 C 0.83416 0.29734 0.54738 0.0
C23 C 0.94643 0.37962 0.61128 0.0
O24 O 0.87413 0.37191 0.55227 0.0
O25 O 0.88325 0.41037 0.60039 0.0
O26 O 0.87291 0.30733 0.6328 0.0
O27 O 0.87175 0.35164 0.64111 0.0
Co28 Co 0.55291 0.8726 0.08797 0.0
O29 O 0.53539 0.82676 0.08073 0.0
O30 O 0.57122 0.86384 0.03821 0.0
C31 C 0.56151 0.87281 0.15877 0.0
O32 O 0.57781 0.92213 0.08607 0.0
Co33 Co 0.52072 0.89983 0.14775 0.0
O34 O 0.56191 0.94055 0.14107 0.0
C35 C 0.49187 0.87338 0.06426 0.0
C36 C 0.55371 0.83359 0.04779 0.0
C37 C 0.58074 0.94511 0.11023 0.0
O38 O 0.51649 0.871 0.05348 0.0
O39 O 0.48823 0.88162 0.10144 0.0
O40 O 0.58236 0.87324 0.13225 0.0
O41 O 0.53611 0.87012 0.14169 0.0
Co42 Co 0.69374 0.54866 0.58767 0.0
O43 O 0.72227 0.53147 0.58067 0.0
O44 O 0.72059 0.5666 0.53754 0.0
C45 C 0.70227 0.55773 0.65836 0.0
O46 O 0.6691 0.57343 0.58572 0.0
Co47 Co 0.63438 0.51636 0.64781 0.0
O48 O 0.63491 0.55751 0.64096 0.0
C49 C 0.63167 0.48708 0.56461 0.0
C50 C 0.7336 0.54944 0.54734 0.0
C51 C 0.64918 0.57636 0.61008 0.0
O52 O 0.65871 0.51177 0.55359 0.0
O53 O 0.61989 0.48357 0.60183 0.0
O54 O 0.72269 0.57856 0.63167 0.0
O55 O 0.67956 0.53213 0.64147 0.0
Co56 Co 0.15944 0.68698 0.08684 0.0
O57 O 0.20532 0.71396 0.07819 0.0
O58 O 0.16857 0.71667 0.03984 0.0
C59 C 0.16171 0.69325 0.15841 0.0
O60 O 0.10995 0.66412 0.0866 0.0
Co61 Co 0.1306 0.6255 0.14343 0.0
O62 O 0.09014 0.6263 0.13766 0.0
C63 C 0.1578 0.62573 0.05916 0.0
C64 C 0.19881 0.72782 0.04771 0.0
C65 C 0.08648 0.64285 0.10913 0.0
O66 O 0.15916 0.65249 0.04912 0.0
O67 O 0.1501 0.61343 0.09624 0.0
O68 O 0.16112 0.71482 0.13424 0.0
O69 O 0.16224 0.67029 0.13856 0.0
Co70 Co 0.47981 0.15217 0.58774 0.0
O71 O 0.49934 0.19788 0.57798 0.0
O72 O 0.46027 0.16106 0.53906 0.0
C73 C 0.4747 0.15598 0.6585 0.0
O74 O 0.45308 0.10245 0.58964 0.0
Co75 Co 0.51293 0.12596 0.64775 0.0
O76 O 0.47075 0.08597 0.64492 0.0
C77 C 0.54022 0.15112 0.56305 0.0
C78 C 0.47977 0.1914 0.54664 0.0
C79 C 0.45052 0.08041 0.61552 0.0
O80 O 0.51448 0.15134 0.55186 0.0
O81 O 0.54488 0.14451 0.60069 0.0
O82 O 0.4528 0.15457 0.63316 0.0
O83 O 0.49864 0.15637 0.64021 0.0
Co84 Co 0.5529 0.68852 0.91398 0.0
O85 O 0.53514 0.71647 0.92153 0.0
O86 O 0.5715 0.71621 0.9633 0.0
C87 C 0.56103 0.69664 0.8431 0.0
O88 O 0.57814 0.66428 0.91504 0.0
Co89 Co 0.51953 0.62853 0.8549 0.0
O90 O 0.56097 0.62961 0.86022 0.0
C91 C 0.4913 0.62713 0.9383 0.0
C92 C 0.55372 0.72864 0.95414 0.0
C93 C 0.58059 0.64423 0.89026 0.0
O94 O 0.51674 0.6536 0.94913 0.0
O95 O 0.48705 0.61515 0.90112 0.0
O96 O 0.58197 0.71738 0.86933 0.0
O97 O 0.5357 0.67391 0.86054 0.0
Co98 Co 0.87756 0.54917 0.41267 0.0
O99 O 0.83184 0.53181 0.41935 0.0
O100 O 0.86831 0.56717 0.46262 0.0
C101 C 0.8783 0.55828 0.34201 0.0
O102 O 0.92719 0.57393 0.41411 0.0
Co103 Co 0.90325 0.51536 0.35314 0.0
O104 O 0.94382 0.55685 0.35834 0.0
C105 C 0.87688 0.48718 0.43672 0.0
C106 C 0.83817 0.54991 0.45243 0.0
C107 C 0.94938 0.5764 0.38868 0.0
O108 O 0.87544 0.51241 0.44721 0.0
O109 O 0.88464 0.48294 0.39955 0.0
O110 O 0.87868 0.57905 0.36868 0.0
O111 O 0.87502 0.53253 0.35891 0.0
Co112 Co 0.34263 0.87354 0.91416 0.0
O113 O 0.31592 0.82781 0.92403 0.0
O114 O 0.31473 0.86506 0.96324 0.0
C115 C 0.33374 0.87103 0.84337 0.0
O116 O 0.36622 0.92331 0.91237 0.0
Co117 Co 0.40195 0.89908 0.85405 0.0
O118 O 0.4002 0.93926 0.85686 0.0
C119 C 0.40387 0.87392 0.93858 0.0
C120 C 0.30334 0.83465 0.95567 0.0
C121 C 0.38588 0.94518 0.88636 0.0
O122 O 0.37804 0.87394 0.9497 0.0
O123 O 0.41521 0.88041 0.90097 0.0
O124 O 0.31313 0.87168 0.86928 0.0
O125 O 0.35688 0.86954 0.86121 0.0
Co126 Co 0.48148 0.3374 0.4142 0.0
O127 O 0.50051 0.31089 0.42394 0.0
O128 O 0.46142 0.30864 0.46259 0.0
C129 C 0.47667 0.32891 0.34332 0.0
O130 O 0.45516 0.36067 0.41215 0.0
Co131 Co 0.51562 0.39725 0.35475 0.0
O132 O 0.47362 0.39521 0.35714 0.0
C133 C 0.54228 0.39856 0.43953 0.0
C134 C 0.48072 0.29766 0.45509 0.0
C135 C 0.45305 0.38038 0.38621 0.0
O136 O 0.5162 0.37272 0.45053 0.0
O137 O 0.54732 0.41002 0.40196 0.0
O138 O 0.45455 0.30823 0.3684 0.0
O139 O 0.50064 0.3523 0.36197 0.0
Co140 Co 0.15727 0.47434 0.91312 0.0
O141 O 0.2032 0.49148 0.91866 0.0
O142 O 0.16709 0.45773 0.96374 0.0
C143 C 0.15413 0.46231 0.84305 0.0
O144 O 0.10771 0.4494 0.91675 0.0
Co145 Co 0.13085 0.50752 0.85435 0.0
O146 O 0.0883 0.47193 0.87189 0.0
C147 C 0.16081 0.53834 0.93423 0.0
C148 C 0.19709 0.47439 0.95279 0.0
C149 C 0.08422 0.45043 0.89855 0.0
O150 O 0.16031 0.51233 0.94612 0.0
O151 O 0.15356 0.54228 0.89672 0.0
O152 O 0.15506 0.44294 0.87093 0.0
O153 O 0.15822 0.48899 0.85799 0.0
Co154 Co 0.69068 0.15217 0.41297 0.0
O155 O 0.71681 0.19836 0.42007 0.0
O156 O 0.71877 0.16272 0.46195 0.0
C157 C 0.69874 0.15087 0.34212 0.0
O158 O 0.66867 0.10269 0.41527 0.0
Co159 Co 0.62988 0.12304 0.3561 0.0
O160 O 0.62657 0.08149 0.37052 0.0
C161 C 0.62875 0.15119 0.43751 0.0
C162 C 0.72964 0.19273 0.45264 0.0
C163 C 0.64493 0.07854 0.39672 0.0
O164 O 0.65508 0.15204 0.44825 0.0
O165 O 0.61723 0.14406 0.40012 0.0
O166 O 0.72017 0.15296 0.36886 0.0
O167 O 0.67542 0.15292 0.35867 0.0
Co168 Co 0.69355 0.54913 0.91321 0.0
O169 O 0.72217 0.53215 0.92003 0.0
O170 O 0.7207 0.5674 0.96311 0.0
C171 C 0.70198 0.55805 0.84248 0.0
O172 O 0.66868 0.57373 0.91483 0.0
Co173 Co 0.63407 0.51575 0.85346 0.0
O174 O 0.63497 0.55717 0.85908 0.0
C175 C 0.63232 0.4868 0.93645 0.0
C176 C 0.73384 0.55042 0.953 0.0
C177 C 0.64901 0.57644 0.88967 0.0
O178 O 0.65877 0.51217 0.94759 0.0
O179 O 0.62045 0.48288 0.89925 0.0
O180 O 0.72233 0.57902 0.86905 0.0
O181 O 0.67942 0.5324 0.85953 0.0
Co182 Co 0.15801 0.68498 0.4149 0.0
O183 O 0.20376 0.71135 0.42435 0.0
O184 O 0.16704 0.71427 0.46249 0.0
C185 C 0.16116 0.6922 0.34347 0.0
O186 O 0.10848 0.6624 0.4138 0.0
Co187 Co 0.13027 0.62416 0.35715 0.0
O188 O 0.09051 0.6265 0.3604 0.0
C189 C 0.15567 0.6232 0.44215 0.0
C190 C 0.19728 0.72497 0.45512 0.0
C191 C 0.08585 0.6422 0.38924 0.0
O192 O 0.15697 0.64992 0.45224 0.0
O193 O 0.14856 0.61123 0.40487 0.0
O194 O 0.1605 0.71356 0.36798 0.0
O195 O 0.16143 0.66898 0.36298 0.0
Co196 Co 0.48121 0.15438 0.91319 0.0
O197 O 0.49846 0.19998 0.92165 0.0
O198 O 0.46154 0.16252 0.96238 0.0
C199 C 0.47536 0.1572 0.84238 0.0
O200 O 0.45628 0.10458 0.91222 0.0
Co201 Co 0.5158 0.12972 0.8534 0.0
O202 O 0.47394 0.08931 0.85576 0.0
C203 C 0.54235 0.15457 0.93855 0.0
C204 C 0.47912 0.19294 0.95341 0.0
C205 C 0.45399 0.08294 0.88582 0.0
O206 O 0.51688 0.15552 0.94898 0.0
O207 O 0.54713 0.14758 0.90116 0.0
O208 O 0.45309 0.15488 0.86784 0.0
O209 O 0.4999 0.15886 0.86061 0.0
Co210 Co 0.34045 0.47578 0.41457 0.0
O211 O 0.31257 0.49331 0.42401 0.0
O212 O 0.31307 0.45619 0.46423 0.0
C213 C 0.33116 0.47 0.34383 0.0
O214 O 0.36483 0.45056 0.4127 0.0
Co215 Co 0.39938 0.5103 0.35411 0.0
O216 O 0.39769 0.46837 0.3561 0.0
C217 C 0.40205 0.53676 0.43955 0.0
C218 C 0.30052 0.47404 0.45594 0.0
C219 C 0.3839 0.44821 0.38595 0.0
O220 O 0.37553 0.51129 0.45009 0.0
O221 O 0.41357 0.54163 0.402 0.0
O222 O 0.31125 0.44775 0.36947 0.0
O223 O 0.35438 0.49455 0.36182 0.0
Co224 Co 0.87565 0.3385 0.91402 0.0
O225 O 0.82976 0.31069 0.92047 0.0
O226 O 0.8658 0.31106 0.96379 0.0
C227 C 0.8761 0.33032 0.84317 0.0
O228 O 0.92515 0.3624 0.91643 0.0
Co229 Co 0.90415 0.39854 0.85503 0.0
O230 O 0.94417 0.39689 0.86152 0.0
C231 C 0.87673 0.40051 0.9379 0.0
C232 C 0.83575 0.29872 0.95363 0.0
C233 C 0.94831 0.38217 0.89218 0.0
O234 O 0.87438 0.37347 0.9486 0.0
O235 O 0.8854 0.41267 0.90088 0.0
O236 O 0.87596 0.30954 0.86964 0.0
O237 O 0.87391 0.35332 0.86033 0.0
Co238 Co 0.55111 0.87053 0.41357 0.0
O239 O 0.53331 0.82463 0.41993 0.0
O240 O 0.56865 0.86097 0.46349 0.0
C241 C 0.56036 0.87146 0.34287 0.0
O242 O 0.5764 0.92003 0.4161 0.0
Co243 Co 0.51953 0.89853 0.35411 0.0
O244 O 0.56137 0.93861 0.3604 0.0
C245 C 0.49013 0.87169 0.4372 0.0
C246 C 0.55127 0.83085 0.45314 0.0
C247 C 0.58001 0.94301 0.39141 0.0
O248 O 0.51453 0.86889 0.44784 0.0
O249 O 0.48678 0.88042 0.40019 0.0
O250 O 0.58087 0.8714 0.36957 0.0
O251 O 0.53486 0.86872 0.3597 0.0
Co252 Co 0.482 0.33819 0.08842 0.0
O253 O 0.49871 0.30958 0.07874 0.0
O254 O 0.46175 0.31081 0.03908 0.0
C255 C 0.47674 0.32922 0.15922 0.0
O256 O 0.45748 0.36326 0.0906 0.0
Co257 Co 0.51746 0.39731 0.14858 0.0
O258 O 0.47581 0.39609 0.14719 0.0
C259 C 0.54323 0.39937 0.06282 0.0
C260 C 0.47923 0.29781 0.04702 0.0
C261 C 0.45559 0.38261 0.11738 0.0
O262 O 0.51755 0.37296 0.05245 0.0
O263 O 0.54839 0.41095 0.10034 0.0
O264 O 0.45416 0.30933 0.13398 0.0
O265 O 0.5012 0.35217 0.14074 0.0
Co266 Co 0.15557 0.47266 0.59027 0.0
O267 O 0.20149 0.49 0.58434 0.0
O268 O 0.16527 0.45571 0.53986 0.0
C269 C 0.15299 0.46134 0.66058 0.0
O270 O 0.10597 0.44751 0.58725 0.0
Co271 Co 0.12953 0.50637 0.64879 0.0
O272 O 0.08701 0.46996 0.63293 0.0
C273 C 0.15866 0.53629 0.56809 0.0
C274 C 0.19532 0.47262 0.5505 0.0
C275 C 0.08266 0.44832 0.60634 0.0
O276 O 0.1582 0.51023 0.55667 0.0
O277 O 0.15163 0.54064 0.60554 0.0
O278 O 0.15382 0.44175 0.63298 0.0
O279 O 0.15686 0.48781 0.64519 0.0
Co280 Co 0.69164 0.15429 0.08846 0.0
O281 O 0.71992 0.20038 0.08274 0.0
O282 O 0.71871 0.1643 0.03858 0.0
C283 C 0.69942 0.15148 0.15902 0.0
O284 O 0.66792 0.1048 0.08492 0.0
Co285 Co 0.63087 0.12634 0.14516 0.0
O286 O 0.62568 0.08417 0.12941 0.0
C287 C 0.6311 0.15651 0.06498 0.0
C288 C 0.73139 0.19436 0.04903 0.0
C289 C 0.64369 0.08084 0.103 0.0
O290 O 0.65691 0.15641 0.05397 0.0
O291 O 0.61919 0.14888 0.10213 0.0
O292 O 0.72043 0.15293 0.13197 0.0
O293 O 0.67677 0.15491 0.143 0.0
Co294 Co 0.55189 0.68734 0.58829 0.0
O295 O 0.53435 0.71558 0.58156 0.0
O296 O 0.56961 0.71434 0.53828 0.0
C297 C 0.56093 0.69571 0.65897 0.0
O298 O 0.57699 0.66306 0.58604 0.0
Co299 Co 0.51986 0.62757 0.64783 0.0
O300 O 0.56101 0.62824 0.64064 0.0
C301 C 0.49013 0.62566 0.5654 0.0
C302 C 0.55221 0.72704 0.54816 0.0
C303 C 0.57997 0.64296 0.61004 0.0
O304 O 0.51518 0.65231 0.55409 0.0
O305 O 0.48662 0.61372 0.60252 0.0
O306 O 0.58161 0.71633 0.63232 0.0
O307 O 0.53544 0.67287 0.64207 0.0
Co308 Co 0.87809 0.5509 0.08727 0.0
O309 O 0.83238 0.53412 0.08082 0.0
O310 O 0.86922 0.56925 0.03759 0.0
C311 C 0.87916 0.55968 0.15805 0.0
O312 O 0.9276 0.57522 0.08498 0.0
Co313 Co 0.90446 0.51733 0.14601 0.0
O314 O 0.94566 0.55805 0.13906 0.0
C315 C 0.87596 0.4884 0.06347 0.0
C316 C 0.83903 0.55215 0.04756 0.0
C317 C 0.95043 0.57743 0.10881 0.0
O318 O 0.87535 0.51399 0.05251 0.0
O319 O 0.88405 0.48432 0.1005 0.0
O320 O 0.8797 0.58074 0.13171 0.0
O321 O 0.87575 0.534 0.14081 0.0
Co322 Co 0.34083 0.87146 0.58822 0.0
O323 O 0.31474 0.82558 0.57952 0.0
O324 O 0.31228 0.86178 0.53955 0.0
C325 C 0.33272 0.86977 0.65914 0.0
O326 O 0.36361 0.9212 0.58901 0.0
Co327 Co 0.40095 0.89863 0.6471 0.0
O328 O 0.39825 0.93827 0.64384 0.0
C329 C 0.4023 0.87249 0.56308 0.0
C330 C 0.30162 0.83157 0.54773 0.0
C331 C 0.38317 0.94346 0.61465 0.0
O332 O 0.37621 0.87209 0.55223 0.0
O333 O 0.41402 0.87957 0.60046 0.0
O334 O 0.31158 0.86961 0.63348 0.0
O335 O 0.35591 0.86851 0.64104 0.0
C336 C 0.31377 0.44052 0.22926 0.0
C337 C 0.32834 0.46969 0.20667 0.0
C338 C 0.31354 0.44025 0.274 0.0
C339 C 0.32787 0.46916 0.29715 0.0
H340 H 0.30356 0.41793 0.21239 0.0
H341 H 0.30319 0.41747 0.29044 0.0
S342 S 0.36466 0.55156 0.25269 0.0
N343 N 0.35422 0.52787 0.21097 0.0
N344 N 0.35378 0.52738 0.29396 0.0
C345 C 0.3409 0.49824 0.27466 0.0
C346 C 0.34114 0.49851 0.2297 0.0
C347 C 0.88129 0.35488 0.72868 0.0
C348 C 0.8768 0.32799 0.70558 0.0
C349 C 0.88213 0.35538 0.77275 0.0
C350 C 0.87844 0.32898 0.79635 0.0
H351 H 0.88353 0.37581 0.71278 0.0
H352 H 0.88497 0.37667 0.78831 0.0
S353 S 0.86786 0.25304 0.75164 0.0
N354 N 0.87012 0.27453 0.70959 0.0
N355 N 0.87156 0.27543 0.79328 0.0
C356 C 0.87505 0.30217 0.77395 0.0
C357 C 0.87424 0.30168 0.72844 0.0
C358 C 0.54294 0.88002 0.27281 0.0
C359 C 0.5649 0.87516 0.29624 0.0
C360 C 0.54323 0.88036 0.22879 0.0
C361 C 0.56549 0.87586 0.2055 0.0
H362 H 0.52451 0.88278 0.28841 0.0
H363 H 0.52499 0.88335 0.21305 0.0
S364 S 0.62989 0.86441 0.25112 0.0
N365 N 0.61098 0.86748 0.29292 0.0
N366 N 0.61151 0.86812 0.20918 0.0
C367 C 0.58866 0.87233 0.2282 0.0
C368 C 0.58836 0.87198 0.27373 0.0
C369 C 0.67667 0.53891 0.77241 0.0
C370 C 0.70289 0.56209 0.79577 0.0
C371 C 0.67676 0.53883 0.72841 0.0
C372 C 0.70307 0.56193 0.70504 0.0
H373 H 0.65586 0.51982 0.78807 0.0
H374 H 0.656 0.51965 0.7128 0.0
S375 S 0.77714 0.62964 0.7504 0.0
N376 N 0.75551 0.61019 0.79227 0.0
N377 N 0.75566 0.61004 0.70852 0.0
C378 C 0.72913 0.58625 0.72763 0.0
C379 C 0.72904 0.58633 0.77316 0.0
C380 C 0.15521 0.71463 0.27353 0.0
C381 C 0.16164 0.69335 0.29637 0.0
C382 C 0.15533 0.71489 0.22878 0.0
C383 C 0.16189 0.69386 0.20553 0.0
H384 H 0.14977 0.73095 0.29025 0.0
H385 H 0.14999 0.73139 0.21237 0.0
S386 S 0.18245 0.63503 0.25041 0.0
N387 N 0.17625 0.65184 0.29197 0.0
N388 N 0.17648 0.6523 0.20917 0.0
C389 C 0.16888 0.67294 0.22824 0.0
C390 C 0.16875 0.67269 0.27328 0.0
C391 C 0.44536 0.14578 0.77294 0.0
C392 C 0.47437 0.15896 0.79563 0.0
C393 C 0.4452 0.1455 0.72823 0.0
C394 C 0.47405 0.15837 0.70518 0.0
H395 H 0.42273 0.13482 0.78973 0.0
H396 H 0.42246 0.13432 0.71173 0.0
S397 S 0.55642 0.19968 0.74976 0.0
N398 N 0.53263 0.18802 0.79142 0.0
N399 N 0.53229 0.18742 0.70847 0.0
C400 C 0.50309 0.17287 0.7277 0.0
C401 C 0.50327 0.17319 0.77266 0.0
C402 C 0.54234 0.6703 0.72922 0.0
C403 C 0.56506 0.69677 0.70567 0.0
C404 C 0.5423 0.67054 0.77326 0.0
C405 C 0.565 0.69724 0.7964 0.0
H406 H 0.52359 0.64917 0.71368 0.0
H407 H 0.52353 0.64959 0.7891 0.0
S408 S 0.63139 0.77213 0.75049 0.0
N409 N 0.61225 0.75007 0.70878 0.0
N410 N 0.61223 0.75051 0.79251 0.0
C411 C 0.58887 0.72357 0.7736 0.0
C412 C 0.58889 0.72333 0.72808 0.0
C413 C 0.88612 0.54044 0.27184 0.0
C414 C 0.88197 0.56281 0.29542 0.0
C415 C 0.8864 0.54083 0.22781 0.0
C416 C 0.88251 0.5636 0.20474 0.0
H417 H 0.88836 0.52162 0.28731 0.0
H418 H 0.88882 0.52227 0.2119 0.0
S419 S 0.87326 0.62929 0.25088 0.0
N420 N 0.8758 0.60988 0.29251 0.0
N421 N 0.87628 0.61059 0.20879 0.0
C422 C 0.87977 0.58719 0.22761 0.0
C423 C 0.8795 0.5868 0.27312 0.0
C424 C 0.35745 0.8734 0.72907 0.0
C425 C 0.33192 0.87203 0.70593 0.0
C426 C 0.3577 0.8737 0.77312 0.0
C427 C 0.33244 0.87267 0.79656 0.0
H428 H 0.37749 0.87371 0.71318 0.0
H429 H 0.37791 0.87422 0.78878 0.0
S430 S 0.26027 0.87038 0.75165 0.0
N431 N 0.28093 0.87074 0.7097 0.0
N432 N 0.2814 0.87133 0.79337 0.0
C433 C 0.30694 0.87209 0.77411 0.0
C434 C 0.30668 0.87177 0.72865 0.0
C435 C 0.44718 0.3095 0.27363 0.0
C436 C 0.476 0.32649 0.29653 0.0
C437 C 0.44718 0.30958 0.22892 0.0
C438 C 0.47602 0.32662 0.20603 0.0
H439 H 0.42452 0.29687 0.29026 0.0
H440 H 0.42454 0.297 0.21229 0.0
S441 S 0.55815 0.37137 0.25138 0.0
N442 N 0.53418 0.35827 0.29281 0.0
N443 N 0.53424 0.35837 0.20991 0.0
C444 C 0.50496 0.34247 0.22883 0.0
C445 C 0.50494 0.34242 0.2738 0.0
C446 C 0.16739 0.44515 0.72941 0.0
C447 C 0.14849 0.45476 0.70666 0.0
C448 C 0.16766 0.44537 0.77416 0.0
C449 C 0.14904 0.4552 0.79715 0.0
H450 H 0.18344 0.43939 0.71267 0.0
H451 H 0.18393 0.43979 0.79067 0.0
S452 S 0.09062 0.47578 0.75235 0.0
N453 N 0.10739 0.46948 0.71084 0.0
N454 N 0.10788 0.46986 0.79361 0.0
C455 C 0.12834 0.46222 0.77454 0.0
C456 C 0.12808 0.46202 0.72958 0.0
C457 C 0.72921 0.16482 0.27308 0.0
C458 C 0.70044 0.14667 0.29581 0.0
C459 C 0.72943 0.1649 0.22833 0.0
C460 C 0.70088 0.14678 0.20521 0.0
H461 H 0.75125 0.18039 0.28984 0.0
H462 H 0.7516 0.18056 0.21188 0.0
S463 S 0.62096 0.08995 0.2499 0.0
N464 N 0.64406 0.10652 0.29148 0.0
N465 N 0.64449 0.10664 0.20868 0.0
C466 C 0.67276 0.12676 0.2278 0.0
C467 C 0.67253 0.12671 0.27281 0.0
C468 C 0.24945 0.4746 0.95638 0.0
C469 C 0.22315 0.47364 0.97737 0.0
C470 C 0.27441 0.47402 0.97901 0.0
C471 C 0.27452 0.47357 0.02355 0.0
H472 H 0.25063 0.47553 0.92212 0.0
H473 H 0.29416 0.47489 0.96159 0.0
S474 S 0.21163 0.47127 0.09363 0.0
N475 N 0.19874 0.47165 0.04531 0.0
N476 N 0.24606 0.47211 0.08771 0.0
C477 C 0.24847 0.47278 0.04482 0.0
C478 C 0.22268 0.47239 0.02181 0.0
C479 C 0.78363 0.2183 0.48822 0.0
C480 C 0.7559 0.21937 0.47716 0.0
C481 C 0.80934 0.24403 0.50972 0.0
C482 C 0.80778 0.27127 0.52226 0.0
H483 H 0.78574 0.1977 0.47948 0.0
H484 H 0.83027 0.24225 0.51744 0.0
S485 S 0.74018 0.28546 0.5018 0.0
N486 N 0.72863 0.25011 0.48008 0.0
N487 N 0.77596 0.29748 0.52224 0.0
C488 C 0.77997 0.27234 0.5119 0.0
C489 C 0.75432 0.24668 0.48888 0.0
C490 C 0.53847 0.79665 0.98527 0.0
C491 C 0.5552 0.80797 0.02356 0.0
C492 C 0.53811 0.77101 0.96331 0.0
C493 C 0.55471 0.75581 0.97855 0.0
H494 H 0.52515 0.80736 0.97253 0.0
H495 H 0.52465 0.76308 0.93405 0.0
S496 S 0.60274 0.77738 0.07746 0.0
N497 N 0.58886 0.80251 0.07592 0.0
N498 N 0.58883 0.75488 0.03459 0.0
C499 C 0.57186 0.76736 0.01674 0.0
C500 C 0.5719 0.79324 0.03924 0.0
C501 C 0.78659 0.55124 0.54348 0.0
C502 C 0.76045 0.55058 0.52255 0.0
C503 C 0.81218 0.55204 0.52077 0.0
C504 C 0.81203 0.55104 0.47624 0.0
H505 H 0.78743 0.55144 0.57777 0.0
H506 H 0.83177 0.55258 0.5382 0.0
S507 S 0.74895 0.54857 0.40637 0.0
N508 N 0.7363 0.54934 0.45473 0.0
N509 N 0.78332 0.54926 0.41214 0.0
C510 C 0.78589 0.5501 0.45502 0.0
C511 C 0.7604 0.55031 0.47809 0.0
C512 C 0.27811 0.78069 0.99091 0.0
C513 C 0.27693 0.80856 0.9808 0.0
C514 C 0.25289 0.75489 0.01281 0.0
C515 C 0.22487 0.75533 0.024 0.0
H516 H 0.29886 0.77891 0.98212 0.0
H517 H 0.25513 0.73417 0.02039 0.0
S518 S 0.20943 0.82227 0.00417 0.0
N519 N 0.24548 0.83509 0.98406 0.0
N520 N 0.1975 0.78605 0.02329 0.0
C521 C 0.22319 0.78287 0.01363 0.0
C522 C 0.24936 0.80961 0.99258 0.0
C523 C 0.45114 0.21701 0.51108 0.0
C524 C 0.47989 0.21784 0.52187 0.0
C525 C 0.45138 0.24335 0.4909 0.0
C526 C 0.48038 0.27106 0.47972 0.0
H527 H 0.42833 0.1962 0.51914 0.0
H528 H 0.42874 0.24172 0.48317 0.0
S529 S 0.56209 0.28492 0.50025 0.0
N530 N 0.53802 0.2489 0.52006 0.0
N531 N 0.53847 0.29739 0.48076 0.0
C532 C 0.50917 0.27188 0.48988 0.0
C533 C 0.50892 0.24557 0.51131 0.0
C534 C 0.78683 0.55195 0.04386 0.0
C535 C 0.81319 0.5531 0.02285 0.0
C536 C 0.76171 0.55212 0.02126 0.0
C537 C 0.7614 0.55224 0.97673 0.0
H538 H 0.78573 0.55114 0.07813 0.0
H539 H 0.74198 0.55126 0.03874 0.0
S540 S 0.82449 0.55504 0.90659 0.0
N541 N 0.83759 0.55505 0.95491 0.0
N542 N 0.78984 0.55376 0.9125 0.0
C543 C 0.78752 0.55324 0.95539 0.0
C544 C 0.81355 0.55411 0.97839 0.0
C545 C 0.22242 0.77972 0.48932 0.0
C546 C 0.22347 0.7517 0.47968 0.0
C547 C 0.24822 0.80603 0.50999 0.0
C548 C 0.27555 0.80484 0.52294 0.0
H549 H 0.20182 0.78161 0.48003 0.0
H550 H 0.24643 0.82712 0.51672 0.0
S551 S 0.28974 0.73674 0.50606 0.0
N552 N 0.25429 0.7246 0.4845 0.0
N553 N 0.30179 0.77305 0.52482 0.0
C554 C 0.27659 0.77677 0.51396 0.0
C555 C 0.25085 0.75049 0.49195 0.0
C556 C 0.47505 0.21832 0.02126 0.0
C557 C 0.47695 0.21869 0.97681 0.0
C558 C 0.47562 0.24396 0.04362 0.0
C559 C 0.47691 0.27035 0.02237 0.0
H560 H 0.47422 0.19865 0.03893 0.0
H561 H 0.47505 0.24312 0.0779 0.0
S562 S 0.48103 0.28233 0.90623 0.0
N563 N 0.47997 0.24775 0.9124 0.0
N564 N 0.47946 0.29486 0.95437 0.0
C565 C 0.47782 0.27051 0.97798 0.0
C566 C 0.47828 0.24498 0.95526 0.0
C567 C 0.24767 0.47287 0.54701 0.0
C568 C 0.22138 0.47186 0.52595 0.0
C569 C 0.2727 0.47237 0.52446 0.0
C570 C 0.27292 0.47197 0.47992 0.0
H571 H 0.24879 0.47379 0.58127 0.0
H572 H 0.29243 0.47325 0.54194 0.0
S573 S 0.2101 0.46958 0.40967 0.0
N574 N 0.19708 0.46987 0.45794 0.0
N575 N 0.24457 0.47052 0.41567 0.0
C576 C 0.24689 0.47115 0.45857 0.0
C577 C 0.22101 0.47065 0.4815 0.0
C578 C 0.80915 0.27156 0.02217 0.0
C579 C 0.80942 0.27171 0.97761 0.0
C580 C 0.78359 0.24673 0.04503 0.0
C581 C 0.75793 0.22054 0.02423 0.0
H582 H 0.82845 0.29113 0.03946 0.0
H583 H 0.78415 0.24781 0.0793 0.0
S584 S 0.74771 0.20914 0.90804 0.0
N585 N 0.78166 0.24348 0.91363 0.0
N586 N 0.73469 0.19626 0.95648 0.0
C587 C 0.75828 0.22014 0.97975 0.0
C588 C 0.78372 0.24587 0.95651 0.0
C589 C 0.5519 0.80423 0.52148 0.0
C590 C 0.5524 0.80475 0.47694 0.0
C591 C 0.55154 0.77885 0.54419 0.0
C592 C 0.55285 0.75366 0.52331 0.0
H593 H 0.55099 0.82314 0.53884 0.0
H594 H 0.55057 0.77913 0.57845 0.0
S595 S 0.55552 0.74443 0.40713 0.0
N596 N 0.55425 0.77787 0.41285 0.0
N597 N 0.55518 0.73123 0.45551 0.0
C598 C 0.5541 0.75434 0.47886 0.0
C599 C 0.55342 0.77958 0.45573 0.0
C600 C 0.40043 0.41287 0.15151 0.0
C601 C 0.39557 0.42581 0.11416 0.0
C602 C 0.41743 0.39631 0.15131 0.0
C603 C 0.43041 0.39183 0.11376 0.0
H604 H 0.3927 0.41726 0.18173 0.0
H605 H 0.4221 0.38861 0.18138 0.0
S606 S 0.42169 0.41797 0.00659 0.0
N607 N 0.40276 0.43055 0.03786 0.0
N608 N 0.43478 0.39928 0.03749 0.0
C609 C 0.42354 0.40229 0.07559 0.0
C610 C 0.40611 0.41932 0.0758 0.0
C611 C 0.03214 0.40577 0.63786 0.0
C612 C 0.04889 0.42227 0.6012 0.0
C613 C 0.99855 0.38902 0.63931 0.0
C614 C 0.98019 0.3879 0.60409 0.0
H615 H 0.04517 0.40797 0.6668 0.0
H616 H 0.98689 0.37881 0.66926 0.0
S617 S 1.01226 0.42474 0.49927 0.0
N618 N 0.04461 0.43454 0.52783 0.0
N619 N 0.98124 0.40268 0.53035 0.0
C620 C 0.99651 0.40205 0.56612 0.0
C621 C 0.03094 0.41936 0.56473 0.0
C622 C 0.60066 0.99466 0.06596 0.0
C623 C 0.60489 0.97898 0.10091 0.0
C624 C 0.6163 0.02848 0.06402 0.0
C625 C 0.63692 0.04756 0.09667 0.0
H626 H 0.58304 0.98077 0.04198 0.0
H627 H 0.61018 0.03961 0.03869 0.0
S628 S 0.65889 0.01821 0.19203 0.0
N629 N 0.63327 0.98514 0.1667 0.0
N630 N 0.66291 0.04839 0.16268 0.0
C631 C 0.64324 0.03212 0.12981 0.0
C632 C 0.62717 0.9979 0.13202 0.0
C633 C 0.61729 0.59538 0.56961 0.0
C634 C 0.63994 0.60087 0.60141 0.0
C635 C 0.60004 0.6119 0.56965 0.0
C636 C 0.60494 0.63438 0.60146 0.0
H637 H 0.61093 0.57634 0.54678 0.0
H638 H 0.58094 0.60508 0.54682 0.0
S639 S 0.66478 0.66065 0.68772 0.0
N640 N 0.66872 0.63279 0.66249 0.0
N641 N 0.63644 0.66372 0.66254 0.0
C642 C 0.62927 0.64182 0.63123 0.0
C643 C 0.64675 0.62508 0.6312 0.0
C644 C 1.00143 0.59541 0.06899 0.0
C645 C 0.98436 0.60165 0.10008 0.0
C646 C 0.03522 0.61163 0.06916 0.0
C647 C 0.05301 0.63463 0.10039 0.0
H648 H 0.98861 0.57602 0.04663 0.0
H649 H 0.04736 0.60424 0.04689 0.0
S650 S 0.0198 0.66271 0.18491 0.0
N651 N 0.98783 0.63465 0.16004 0.0
N652 N 0.05114 0.66506 0.16031 0.0
C653 C 0.03625 0.64274 0.1295 0.0
C654 C 1.00197 0.62627 0.12935 0.0
C655 C 0.4214 0.02904 0.57336 0.0
C656 C 0.42464 0.04629 0.61088 0.0
C657 C 0.40468 0.99505 0.57311 0.0
C658 C 0.3907 0.97735 0.61038 0.0
H659 H 0.43418 0.04177 0.54509 0.0
H660 H 0.40515 0.98273 0.54468 0.0
S661 S 0.38794 1.01112 0.71476 0.0
N662 N 0.40896 0.04294 0.68454 0.0
N663 N 0.37781 0.9797 0.68407 0.0
C664 C 0.39135 0.99442 0.64682 0.0
C665 C 0.40824 0.02871 0.64707 0.0
C666 C 0.60605 0.61843 0.93211 0.0
C667 C 0.60615 0.63603 0.8964 0.0
C668 C 0.62302 0.60155 0.93195 0.0
C669 C 0.64051 0.60181 0.89606 0.0
H670 H 0.59065 0.61543 0.95876 0.0
H671 H 0.62017 0.58609 0.95849 0.0
S672 S 0.65222 0.6482 0.79765 0.0
N673 N 0.62822 0.65565 0.82663 0.0
N674 N 0.65988 0.62417 0.82632 0.0
C675 C 0.64289 0.62154 0.8619 0.0
C676 C 0.62577 0.63858 0.86207 0.0
C677 C 1.00062 0.60296 0.43108 0.0
C678 C 0.98349 0.60175 0.39432 0.0
C679 C 0.03453 0.61931 0.43117 0.0
C680 C 0.05222 0.63488 0.39449 0.0
H681 H 0.98783 0.58894 0.4586 0.0
H682 H 0.04677 0.61737 0.45876 0.0
S683 S 0.01876 0.64278 0.29273 0.0
N684 N 0.98692 0.62078 0.32238 0.0
N685 N 0.0501 0.65113 0.32252 0.0
C686 C 0.03531 0.63608 0.35906 0.0
C687 C 1.0011 0.61963 0.35899 0.0
C688 C 0.41497 0.03068 0.85309 0.0
C689 C 0.42874 0.04848 0.89023 0.0
C690 C 0.39828 0.99702 0.85323 0.0
C691 C 0.39449 0.97945 0.89052 0.0
H692 H 0.41893 0.0429 0.82297 0.0
H693 H 0.39006 0.98463 0.82321 0.0
S694 S 0.42295 0.01426 0.99722 0.0
N695 N 0.43499 0.04592 0.96619 0.0
N696 N 0.40351 0.98243 0.96644 0.0
C697 C 0.40576 0.99678 0.9286 0.0
C698 C 0.4229 0.03135 0.92846 0.0
C699 C 0.4059 0.41865 0.42756 0.0
C700 C 0.39258 0.42266 0.38992 0.0
C701 C 0.42295 0.4018 0.42765 0.0
C702 C 0.42712 0.38845 0.39011 0.0
H703 H 0.40551 0.43083 0.45618 0.0
H704 H 0.43515 0.40159 0.45632 0.0
S705 S 0.39224 0.38766 0.28519 0.0
N706 N 0.38124 0.40826 0.31574 0.0
N707 N 0.41295 0.37693 0.31592 0.0
C708 C 0.4114 0.38992 0.35344 0.0
C709 C 0.39422 0.40692 0.35334 0.0
C710 C 0.03211 0.4253 0.93843 0.0
C711 C 0.05054 0.42443 0.90442 0.0
C712 C 0.99826 0.40836 0.93661 0.0
C713 C 0.98191 0.39046 0.90046 0.0
H714 H 0.04387 0.4412 0.96493 0.0
H715 H 0.98501 0.41166 0.96189 0.0
S716 S 0.01913 0.37817 0.80502 0.0
N717 N 0.04982 0.40189 0.83551 0.0
N718 N 0.9867 0.37079 0.83176 0.0
C719 C 1.0001 0.38767 0.86779 0.0
C720 C 0.03429 0.40449 0.86985 0.0
C721 C 0.60262 0.99294 0.43558 0.0
C722 C 0.60501 0.97673 0.3999 0.0
C723 C 0.61896 0.02681 0.4371 0.0
C724 C 0.63843 0.04538 0.40323 0.0
H725 H 0.58578 0.9795 0.46057 0.0
H726 H 0.61409 0.0384 0.46311 0.0
S727 S 0.65588 0.01442 0.30562 0.0
N728 N 0.63081 0.98179 0.33218 0.0
N729 N 0.66164 0.04508 0.3353 0.0
C730 C 0.64311 0.02935 0.36931 0.0
C731 C 0.62637 0.99511 0.36758 0.0
C732 C 0.47494 0.61084 0.01369 0.0
C733 C 0.46671 0.6075 0.97064 0.0
C734 C 0.45386 0.58919 0.04388 0.0
C735 C 0.42352 0.56318 0.03246 0.0
H736 H 0.49842 0.62944 0.02403 0.0
H737 H 0.46208 0.59242 0.07635 0.0
S738 S 0.38839 0.54679 0.92456 0.0
N739 N 0.42453 0.57837 0.91862 0.0
N740 N 0.38513 0.53767 0.97535 0.0
C741 C 0.41419 0.56077 0.98984 0.0
C742 C 0.43568 0.58288 0.95902 0.0
C743 C 0.87507 0.41461 0.48779 0.0
C744 C 0.8706 0.41818 0.53091 0.0
C745 C 0.87568 0.43625 0.45762 0.0
C746 C 0.8718 0.46248 0.46913 0.0
H747 H 0.87963 0.39584 0.47736 0.0
H748 H 0.88039 0.43286 0.42508 0.0
S749 S 0.85401 0.47941 0.57727 0.0
N750 N 0.85822 0.44767 0.58311 0.0
N751 N 0.85961 0.48837 0.52641 0.0
C752 C 0.86516 0.46505 0.51182 0.0
C753 C 0.86452 0.44296 0.54263 0.0
C754 C 0.42088 0.87475 0.01374 0.0
C755 C 0.42333 0.86878 0.97084 0.0
C756 C 0.44234 0.87484 0.04371 0.0
C757 C 0.46724 0.86891 0.0322 0.0
H758 H 0.40319 0.88084 0.0241 0.0
H759 H 0.43989 0.88076 0.07604 0.0
S760 S 0.48065 0.84667 0.92482 0.0
N761 N 0.45018 0.85285 0.919 0.0
N762 N 0.49053 0.85325 0.97534 0.0
C763 C 0.46863 0.86084 0.98981 0.0
C764 C 0.44672 0.86072 0.95921 0.0
C765 C 0.55867 0.41588 0.51465 0.0
C766 C 0.56705 0.41798 0.47177 0.0
C767 C 0.58025 0.43748 0.54444 0.0
C768 C 0.61127 0.46221 0.53278 0.0
H769 H 0.53476 0.39837 0.52508 0.0
H770 H 0.57189 0.43532 0.57674 0.0
S771 S 0.64691 0.4746 0.42549 0.0
N772 N 0.61002 0.44423 0.41986 0.0
N773 N 0.65034 0.48488 0.47586 0.0
C774 C 0.62069 0.46322 0.49045 0.0
C775 C 0.59869 0.44115 0.46003 0.0
C776 C 0.16229 0.55608 0.00921 0.0
C777 C 0.16593 0.56346 0.96588 0.0
C778 C 0.16105 0.57702 0.03893 0.0
C779 C 0.16336 0.6064 0.02682 0.0
H780 H 0.15882 0.53325 0.02023 0.0
H781 H 0.1571 0.56934 0.07168 0.0
S782 S 0.17855 0.63959 0.91787 0.0
N783 N 0.17598 0.60427 0.91276 0.0
N784 N 0.17327 0.64331 0.96872 0.0
C785 C 0.16924 0.61512 0.98392 0.0
C786 C 0.17062 0.59379 0.95352 0.0
C787 C 0.5567 0.15058 0.48793 0.0
C788 C 0.56491 0.15613 0.53091 0.0
C789 C 0.57806 0.15037 0.45803 0.0
C790 C 0.60869 0.15573 0.46968 0.0
H791 H 0.53306 0.14493 0.47742 0.0
H792 H 0.5698 0.14478 0.42561 0.0
S793 S 0.64395 0.17691 0.57731 0.0
N794 N 0.60743 0.17119 0.583 0.0
N795 N 0.64734 0.17053 0.52674 0.0
C796 C 0.618 0.1634 0.51215 0.0
C797 C 0.59622 0.16367 0.5427 0.0
C798 C 0.59424 0.44906 0.04178 0.0
C799 C 0.56772 0.41906 0.0302 0.0
C800 C 0.61609 0.47002 0.0117 0.0
C801 C 0.61248 0.46205 0.96856 0.0
H802 H 0.59778 0.45713 0.07435 0.0
H803 H 0.63507 0.49326 0.02224 0.0
S804 S 0.55039 0.38448 0.92197 0.0
N805 N 0.54141 0.38113 0.97282 0.0
N806 N 0.58248 0.42031 0.91622 0.0
C807 C 0.58733 0.43128 0.95674 0.0
C808 C 0.56501 0.4099 0.98748 0.0
C809 C 0.15696 0.57355 0.46304 0.0
C810 C 0.16077 0.60365 0.47464 0.0
C811 C 0.15831 0.55277 0.49294 0.0
C812 C 0.1635 0.56102 0.53595 0.0
H813 H 0.1518 0.56523 0.4306 0.0
H814 H 0.15371 0.52943 0.48239 0.0
S815 S 0.18021 0.63897 0.58239 0.0
N816 N 0.17366 0.642 0.53178 0.0
N817 N 0.17641 0.60315 0.58808 0.0
C818 C 0.1695 0.5919 0.54773 0.0
C819 C 0.16807 0.61311 0.51715 0.0
C820 C 0.61503 0.15685 0.98963 0.0
C821 C 0.6117 0.16175 0.03268 0.0
C822 C 0.5932 0.15584 0.95953 0.0
C823 C 0.56699 0.1597 0.97102 0.0
H824 H 0.63371 0.15219 0.97923 0.0
H825 H 0.59645 0.15082 0.92708 0.0
S826 S 0.55064 0.17857 0.07883 0.0
N827 N 0.58245 0.17456 0.0847 0.0
N828 N 0.54139 0.1724 0.0281 0.0
C829 C 0.56465 0.16678 0.01357 0.0
C830 C 0.58696 0.16788 0.04432 0.0
C831 C 0.47284 0.60968 0.49024 0.0
C832 C 0.46524 0.60581 0.53351 0.0
C833 C 0.4517 0.58791 0.46024 0.0
C834 C 0.42191 0.56125 0.47207 0.0
H835 H 0.49592 0.62882 0.47949 0.0
H836 H 0.45947 0.59163 0.42754 0.0
S837 S 0.38832 0.54325 0.58086 0.0
N838 N 0.42408 0.57544 0.58632 0.0
N839 N 0.38456 0.53452 0.52992 0.0
C840 C 0.41311 0.5583 0.51497 0.0
C841 C 0.43468 0.58052 0.54562 0.0
C842 C 0.87624 0.45067 0.95825 0.0
C843 C 0.87154 0.42025 0.96991 0.0
C844 C 0.87563 0.47181 0.98822 0.0
C845 C 0.87037 0.46357 0.03126 0.0
H846 H 0.88164 0.45893 0.92581 0.0
H847 H 0.88095 0.49541 0.97776 0.0
S848 S 0.85121 0.38491 0.07772 0.0
N849 N 0.8575 0.38163 0.02709 0.0
N850 N 0.8562 0.42121 0.0834 0.0
C851 C 0.86335 0.43239 0.04303 0.0
C852 C 0.86396 0.41081 0.01243 0.0
C853 C 0.44033 0.87273 0.45776 0.0
C854 C 0.46546 0.86715 0.4693 0.0
C855 C 0.41891 0.87271 0.48778 0.0
C856 C 0.42163 0.86716 0.53077 0.0
H857 H 0.43768 0.87833 0.42534 0.0
H858 H 0.40104 0.87854 0.47739 0.0
S859 S 0.47961 0.84603 0.57699 0.0
N860 N 0.48924 0.85223 0.52636 0.0
N861 N 0.44896 0.85194 0.58277 0.0
C862 C 0.44523 0.85941 0.54245 0.0
C863 C 0.46709 0.85945 0.5118 0.0
loop_
_geom_bond_atom_site_label_1
_geom_bond_atom_site_label_2
_geom_bond_distance
_geom_bond_site_symmetry_2
_ccdc_geom_bond_type
Co0 O1 2.216 . S
Co0 O2 2.091 . S
Co0 O4 2.004 . S
Co0 O10 2.021 . S
Co0 O12 2.137 . S
Co0 O13 2.244 . S
O1 Co0 2.216 . S
O1 C8 1.247 . S
O2 Co0 2.091 . S
O2 C8 1.261 . S
C3 O12 1.247 . S
C3 O13 1.272 . S
O4 Co0 2.004 . S
O4 C9 1.259 . S
Co5 O6 2.061 . S
Co5 O11 2.052 . S
Co5 O13 2.135 . S
O6 Co5 2.061 . S
O6 C9 1.235 . S
C7 O10 1.238 . S
C7 O11 1.241 . S
C8 O1 1.247 . S
C8 O2 1.261 . S
C9 O4 1.259 . S
C9 O6 1.235 . S
O10 Co0 2.021 . S
O10 C7 1.238 . S
O11 Co5 2.052 . S
O11 C7 1.241 . S
O12 Co0 2.137 . S
O12 C3 1.247 . S
O13 Co0 2.244 . S
O13 C3 1.272 . S
O13 Co5 2.135 . S
Co14 O15 2.216 . S
Co14 O16 2.091 . S
Co14 O18 2.004 . S
Co14 O24 2.021 . S
Co14 O26 2.137 . S
Co14 O27 2.244 . S
O15 Co14 2.216 . S
O15 C22 1.247 . S
O16 Co14 2.091 . S
O16 C22 1.261 . S
C17 O26 1.247 . S
C17 O27 1.272 . S
O18 Co14 2.004 . S
O18 C23 1.259 . S
Co19 O20 2.061 . S
Co19 O25 2.052 . S
Co19 O27 2.135 . S
O20 Co19 2.061 . S
O20 C23 1.235 . S
C21 O24 1.238 . S
C21 O25 1.241 . S
C22 O15 1.247 . S
C22 O16 1.261 . S
C23 O18 1.259 . S
C23 O20 1.235 . S
O24 Co14 2.021 . S
O24 C21 1.238 . S
O25 Co19 2.052 . S
O25 C21 1.241 . S
O26 Co14 2.137 . S
O26 C17 1.247 . S
O27 Co14 2.244 . S
O27 C17 1.272 . S
O27 Co19 2.135 . S
Co28 O29 2.216 . S
Co28 O30 2.091 . S
Co28 O32 2.004 . S
Co28 O38 2.021 . S
Co28 O40 2.137 . S
Co28 O41 2.244 . S
O29 Co28 2.216 . S
O29 C36 1.247 . S
O30 Co28 2.091 . S
O30 C36 1.261 . S
C31 O40 1.247 . S
C31 O41 1.272 . S
O32 Co28 2.004 . S
O32 C37 1.259 . S
Co33 O34 2.061 . S
Co33 O39 2.052 . S
Co33 O41 2.135 . S
O34 Co33 2.061 . S
O34 C37 1.235 . S
C35 O38 1.238 . S
C35 O39 1.241 . S
C36 O29 1.247 . S
C36 O30 1.261 . S
C37 O32 1.259 . S
C37 O34 1.235 . S
O38 Co28 2.021 . S
O38 C35 1.238 . S
O39 Co33 2.052 . S
O39 C35 1.241 . S
O40 Co28 2.137 . S
O40 C31 1.247 . S
O41 Co28 2.244 . S
O41 C31 1.272 . S
O41 Co33 2.135 . S
Co42 O43 2.216 . S
Co42 O44 2.091 . S
Co42 O46 2.004 . S
Co42 O52 2.021 . S
Co42 O54 2.137 . S
Co42 O55 2.244 . S
O43 Co42 2.216 . S
O43 C50 1.247 . S
O44 Co42 2.091 . S
O44 C50 1.261 . S
C45 O54 1.247 . S
C45 O55 1.272 . S
O46 Co42 2.004 . S
O46 C51 1.259 . S
Co47 O48 2.061 . S
Co47 O53 2.052 . S
Co47 O55 2.135 . S
O48 Co47 2.061 . S
O48 C51 1.235 . S
C49 O52 1.238 . S
C49 O53 1.241 . S
C50 O43 1.247 . S
C50 O44 1.261 . S
C51 O46 1.259 . S
C51 O48 1.235 . S
O52 Co42 2.021 . S
O52 C49 1.238 . S
O53 Co47 2.052 . S
O53 C49 1.241 . S
O54 Co42 2.137 . S
O54 C45 1.247 . S
O55 Co42 2.244 . S
O55 C45 1.272 . S
O55 Co47 2.135 . S
Co56 O57 2.216 . S
Co56 O58 2.091 . S
Co56 O60 2.004 . S
Co56 O66 2.021 . S
Co56 O68 2.137 . S
Co56 O69 2.244 . S
O57 Co56 2.216 . S
O57 C64 1.247 . S
O58 Co56 2.091 . S
O58 C64 1.261 . S
C59 O68 1.247 . S
C59 O69 1.272 . S
O60 Co56 2.004 . S
O60 C65 1.259 . S
Co61 O62 2.061 . S
Co61 O67 2.052 . S
Co61 O69 2.135 . S
O62 Co61 2.061 . S
O62 C65 1.235 . S
C63 O66 1.238 . S
C63 O67 1.241 . S
C64 O57 1.247 . S
C64 O58 1.261 . S
C65 O60 1.259 . S
C65 O62 1.235 . S
O66 Co56 2.021 . S
O66 C63 1.238 . S
O67 Co61 2.052 . S
O67 C63 1.241 . S
O68 Co56 2.137 . S
O68 C59 1.247 . S
O69 Co56 2.244 . S
O69 C59 1.272 . S
O69 Co61 2.135 . S
Co70 O71 2.216 . S
Co70 O72 2.091 . S
Co70 O74 2.004 . S
Co70 O80 2.021 . S
Co70 O82 2.137 . S
Co70 O83 2.244 . S
O71 Co70 2.216 . S
O71 C78 1.247 . S
O72 Co70 2.091 . S
O72 C78 1.261 . S
C73 O82 1.247 . S
C73 O83 1.272 . S
O74 Co70 2.004 . S
O74 C79 1.259 . S
Co75 O76 2.061 . S
Co75 O81 2.052 . S
Co75 O83 2.135 . S
O76 Co75 2.061 . S
O76 C79 1.235 . S
C77 O80 1.238 . S
C77 O81 1.241 . S
C78 O71 1.247 . S
C78 O72 1.261 . S
C79 O74 1.259 . S
C79 O76 1.235 . S
O80 Co70 2.021 . S
O80 C77 1.238 . S
O81 Co75 2.052 . S
O81 C77 1.241 . S
O82 Co70 2.137 . S
O82 C73 1.247 . S
O83 Co70 2.244 . S
O83 C73 1.272 . S
O83 Co75 2.135 . S
Co84 O85 2.216 . S
Co84 O86 2.091 . S
Co84 O88 2.004 . S
Co84 O94 2.021 . S
Co84 O96 2.137 . S
Co84 O97 2.244 . S
O85 Co84 2.216 . S
O85 C92 1.247 . S
O86 Co84 2.091 . S
O86 C92 1.261 . S
C87 O96 1.247 . S
C87 O97 1.272 . S
O88 Co84 2.004 . S
O88 C93 1.259 . S
Co89 O90 2.061 . S
Co89 O95 2.052 . S
Co89 O97 2.135 . S
O90 Co89 2.061 . S
O90 C93 1.235 . S
C91 O94 1.238 . S
C91 O95 1.241 . S
C92 O85 1.247 . S
C92 O86 1.261 . S
C93 O88 1.259 . S
C93 O90 1.235 . S
O94 Co84 2.021 . S
O94 C91 1.238 . S
O95 Co89 2.052 . S
O95 C91 1.241 . S
O96 Co84 2.137 . S
O96 C87 1.247 . S
O97 Co84 2.244 . S
O97 C87 1.272 . S
O97 Co89 2.135 . S
Co98 O99 2.216 . S
Co98 O100 2.091 . S
Co98 O102 2.004 . S
Co98 O108 2.021 . S
Co98 O110 2.137 . S
Co98 O111 2.244 . S
O99 Co98 2.216 . S
O99 C106 1.247 . S
O100 Co98 2.091 . S
O100 C106 1.261 . S
C101 O110 1.247 . S
C101 O111 1.272 . S
O102 Co98 2.004 . S
O102 C107 1.259 . S
Co103 O104 2.061 . S
Co103 O109 2.052 . S
Co103 O111 2.135 . S
O104 Co103 2.061 . S
O104 C107 1.235 . S
C105 O108 1.238 . S
C105 O109 1.241 . S
C106 O99 1.247 . S
C106 O100 1.261 . S
C107 O102 1.259 . S
C107 O104 1.235 . S
O108 Co98 2.021 . S
O108 C105 1.238 . S
O109 Co103 2.052 . S
O109 C105 1.241 . S
O110 Co98 2.137 . S
O110 C101 1.247 . S
O111 Co98 2.244 . S
O111 C101 1.272 . S
O111 Co103 2.135 . S
Co112 O113 2.216 . S
Co112 O114 2.091 . S
Co112 O116 2.004 . S
Co112 O122 2.021 . S
Co112 O124 2.137 . S
Co112 O125 2.244 . S
O113 Co112 2.216 . S
O113 C120 1.247 . S
O114 Co112 2.091 . S
O114 C120 1.261 . S
C115 O124 1.247 . S
C115 O125 1.272 . S
O116 Co112 2.004 . S
O116 C121 1.259 . S
Co117 O118 2.061 . S
Co117 O123 2.052 . S
Co117 O125 2.135 . S
O118 Co117 2.061 . S
O118 C121 1.235 . S
C119 O122 1.238 . S
C119 O123 1.241 . S
C120 O113 1.247 . S
C120 O114 1.261 . S
C121 O116 1.259 . S
C121 O118 1.235 . S
O122 Co112 2.021 . S
O122 C119 1.238 . S
O123 Co117 2.052 . S
O123 C119 1.241 . S
O124 Co112 2.137 . S
O124 C115 1.247 . S
O125 Co112 2.244 . S
O125 C115 1.272 . S
O125 Co117 2.135 . S
Co126 O127 2.216 . S
Co126 O128 2.091 . S
Co126 O130 2.004 . S
Co126 O136 2.021 . S
Co126 O138 2.137 . S
Co126 O139 2.244 . S
O127 Co126 2.216 . S
O127 C134 1.247 . S
O128 Co126 2.091 . S
O128 C134 1.261 . S
C129 O138 1.247 . S
C129 O139 1.272 . S
O130 Co126 2.004 . S
O130 C135 1.259 . S
Co131 O132 2.061 . S
Co131 O137 2.052 . S
Co131 O139 2.135 . S
O132 Co131 2.061 . S
O132 C135 1.235 . S
C133 O136 1.238 . S
C133 O137 1.241 . S
C134 O127 1.247 . S
C134 O128 1.261 . S
C135 O130 1.259 . S
C135 O132 1.235 . S
O136 Co126 2.021 . S
O136 C133 1.238 . S
O137 Co131 2.052 . S
O137 C133 1.241 . S
O138 Co126 2.137 . S
O138 C129 1.247 . S
O139 Co126 2.244 . S
O139 C129 1.272 . S
O139 Co131 2.135 . S
Co140 O141 2.216 . S
Co140 O142 2.091 . S
Co140 O144 2.004 . S
Co140 O150 2.021 . S
Co140 O152 2.137 . S
Co140 O153 2.244 . S
O141 Co140 2.216 . S
O141 C148 1.247 . S
O142 Co140 2.091 . S
O142 C148 1.261 . S
C143 O152 1.247 . S
C143 O153 1.272 . S
O144 Co140 2.004 . S
O144 C149 1.259 . S
Co145 O146 2.061 . S
Co145 O151 2.052 . S
Co145 O153 2.135 . S
O146 Co145 2.061 . S
O146 C149 1.235 . S
C147 O150 1.238 . S
C147 O151 1.241 . S
C148 O141 1.247 . S
C148 O142 1.261 . S
C149 O144 1.259 . S
C149 O146 1.235 . S
O150 Co140 2.021 . S
O150 C147 1.238 . S
O151 Co145 2.052 . S
O151 C147 1.241 . S
O152 Co140 2.137 . S
O152 C143 1.247 . S
O153 Co140 2.244 . S
O153 C143 1.272 . S
O153 Co145 2.135 . S
Co154 O155 2.216 . S
Co154 O156 2.091 . S
Co154 O158 2.004 . S
Co154 O164 2.021 . S
Co154 O166 2.137 . S
Co154 O167 2.244 . S
O155 Co154 2.216 . S
O155 C162 1.247 . S
O156 Co154 2.091 . S
O156 C162 1.261 . S
C157 O166 1.247 . S
C157 O167 1.272 . S
O158 Co154 2.004 . S
O158 C163 1.259 . S
Co159 O160 2.061 . S
Co159 O165 2.052 . S
Co159 O167 2.135 . S
O160 Co159 2.061 . S
O160 C163 1.235 . S
C161 O164 1.238 . S
C161 O165 1.241 . S
C162 O155 1.247 . S
C162 O156 1.261 . S
C163 O158 1.259 . S
C163 O160 1.235 . S
O164 Co154 2.021 . S
O164 C161 1.238 . S
O165 Co159 2.052 . S
O165 C161 1.241 . S
O166 Co154 2.137 . S
O166 C157 1.247 . S
O167 Co154 2.244 . S
O167 C157 1.272 . S
O167 Co159 2.135 . S
Co168 O169 2.216 . S
Co168 O170 2.091 . S
Co168 O172 2.004 . S
Co168 O178 2.021 . S
Co168 O180 2.137 . S
Co168 O181 2.244 . S
O169 Co168 2.216 . S
O169 C176 1.247 . S
O170 Co168 2.091 . S
O170 C176 1.261 . S
C171 O180 1.247 . S
C171 O181 1.272 . S
O172 Co168 2.004 . S
O172 C177 1.259 . S
Co173 O174 2.061 . S
Co173 O179 2.052 . S
Co173 O181 2.135 . S
O174 Co173 2.061 . S
O174 C177 1.235 . S
C175 O178 1.238 . S
C175 O179 1.241 . S
C176 O169 1.247 . S
C176 O170 1.261 . S
C177 O172 1.259 . S
C177 O174 1.235 . S
O178 Co168 2.021 . S
O178 C175 1.238 . S
O179 Co173 2.052 . S
O179 C175 1.241 . S
O180 Co168 2.137 . S
O180 C171 1.247 . S
O181 Co168 2.244 . S
O181 C171 1.272 . S
O181 Co173 2.135 . S
Co182 O183 2.216 . S
Co182 O184 2.091 . S
Co182 O186 2.004 . S
Co182 O192 2.021 . S
Co182 O194 2.137 . S
Co182 O195 2.244 . S
O183 Co182 2.216 . S
O183 C190 1.247 . S
O184 Co182 2.091 . S
O184 C190 1.261 . S
C185 O194 1.247 . S
C185 O195 1.272 . S
O186 Co182 2.004 . S
O186 C191 1.259 . S
Co187 O188 2.061 . S
Co187 O193 2.052 . S
Co187 O195 2.135 . S
O188 Co187 2.061 . S
O188 C191 1.235 . S
C189 O192 1.238 . S
C189 O193 1.241 . S
C190 O183 1.247 . S
C190 O184 1.261 . S
C191 O186 1.259 . S
C191 O188 1.235 . S
O192 Co182 2.021 . S
O192 C189 1.238 . S
O193 Co187 2.052 . S
O193 C189 1.241 . S
O194 Co182 2.137 . S
O194 C185 1.247 . S
O195 Co182 2.244 . S
O195 C185 1.272 . S
O195 Co187 2.135 . S
Co196 O197 2.216 . S
Co196 O198 2.091 . S
Co196 O200 2.004 . S
Co196 O206 2.021 . S
Co196 O208 2.137 . S
Co196 O209 2.244 . S
O197 Co196 2.216 . S
O197 C204 1.247 . S
O198 Co196 2.091 . S
O198 C204 1.261 . S
C199 O208 1.247 . S
C199 O209 1.272 . S
O200 Co196 2.004 . S
O200 C205 1.259 . S
Co201 O202 2.061 . S
Co201 O207 2.052 . S
Co201 O209 2.135 . S
O202 Co201 2.061 . S
O202 C205 1.235 . S
C203 O206 1.238 . S
C203 O207 1.241 . S
C204 O197 1.247 . S
C204 O198 1.261 . S
C205 O200 1.259 . S
C205 O202 1.235 . S
O206 Co196 2.021 . S
O206 C203 1.238 . S
O207 Co201 2.052 . S
O207 C203 1.241 . S
O208 Co196 2.137 . S
O208 C199 1.247 . S
O209 Co196 2.244 . S
O209 C199 1.272 . S
O209 Co201 2.135 . S
Co210 O211 2.216 . S
Co210 O212 2.091 . S
Co210 O214 2.004 . S
Co210 O220 2.021 . S
Co210 O222 2.137 . S
Co210 O223 2.244 . S
O211 Co210 2.216 . S
O211 C218 1.247 . S
O212 Co210 2.091 . S
O212 C218 1.261 . S
C213 O222 1.247 . S
C213 O223 1.272 . S
O214 Co210 2.004 . S
O214 C219 1.259 . S
Co215 O216 2.061 . S
Co215 O221 2.052 . S
Co215 O223 2.135 . S
O216 Co215 2.061 . S
O216 C219 1.235 . S
C217 O220 1.238 . S
C217 O221 1.241 . S
C218 O211 1.247 . S
C218 O212 1.261 . S
C219 O214 1.259 . S
C219 O216 1.235 . S
O220 Co210 2.021 . S
O220 C217 1.238 . S
O221 Co215 2.052 . S
O221 C217 1.241 . S
O222 Co210 2.137 . S
O222 C213 1.247 . S
O223 Co210 2.244 . S
O223 C213 1.272 . S
O223 Co215 2.135 . S
Co224 O225 2.216 . S
Co224 O226 2.091 . S
Co224 O228 2.004 . S
Co224 O234 2.021 . S
Co224 O236 2.137 . S
Co224 O237 2.244 . S
O225 Co224 2.216 . S
O225 C232 1.247 . S
O226 Co224 2.091 . S
O226 C232 1.261 . S
C227 O236 1.247 . S
C227 O237 1.272 . S
O228 Co224 2.004 . S
O228 C233 1.259 . S
Co229 O230 2.061 . S
Co229 O235 2.052 . S
Co229 O237 2.135 . S
O230 Co229 2.061 . S
O230 C233 1.235 . S
C231 O234 1.238 . S
C231 O235 1.241 . S
C232 O225 1.247 . S
C232 O226 1.261 . S
C233 O228 1.259 . S
C233 O230 1.235 . S
O234 Co224 2.021 . S
O234 C231 1.238 . S
O235 Co229 2.052 . S
O235 C231 1.241 . S
O236 Co224 2.137 . S
O236 C227 1.247 . S
O237 Co224 2.244 . S
O237 C227 1.272 . S
O237 Co229 2.135 . S
Co238 O239 2.216 . S
Co238 O240 2.091 . S
Co238 O242 2.004 . S
Co238 O248 2.021 . S
Co238 O250 2.137 . S
Co238 O251 2.244 . S
O239 Co238 2.216 . S
O239 C246 1.247 . S
O240 Co238 2.091 . S
O240 C246 1.261 . S
C241 O250 1.247 . S
C241 O251 1.272 . S
O242 Co238 2.004 . S
O242 C247 1.259 . S
Co243 O244 2.061 . S
Co243 O249 2.052 . S
Co243 O251 2.135 . S
O244 Co243 2.061 . S
O244 C247 1.235 . S
C245 O248 1.238 . S
C245 O249 1.241 . S
C246 O239 1.247 . S
C246 O240 1.261 . S
C247 O242 1.259 . S
C247 O244 1.235 . S
O248 Co238 2.021 . S
O248 C245 1.238 . S
O249 Co243 2.052 . S
O249 C245 1.241 . S
O250 Co238 2.137 . S
O250 C241 1.247 . S
O251 Co238 2.244 . S
O251 C241 1.272 . S
O251 Co243 2.135 . S
Co252 O253 2.216 . S
Co252 O254 2.091 . S
Co252 O256 2.004 . S
Co252 O262 2.021 . S
Co252 O264 2.137 . S
Co252 O265 2.244 . S
O253 Co252 2.216 . S
O253 C260 1.247 . S
O254 Co252 2.091 . S
O254 C260 1.261 . S
C255 O264 1.247 . S
C255 O265 1.272 . S
O256 Co252 2.004 . S
O256 C261 1.259 . S
Co257 O258 2.061 . S
Co257 O263 2.052 . S
Co257 O265 2.135 . S
O258 Co257 2.061 . S
O258 C261 1.235 . S
C259 O262 1.238 . S
C259 O263 1.241 . S
C260 O253 1.247 . S
C260 O254 1.261 . S
C261 O256 1.259 . S
C261 O258 1.235 . S
O262 Co252 2.021 . S
O262 C259 1.238 . S
O263 Co257 2.052 . S
O263 C259 1.241 . S
O264 Co252 2.137 . S
O264 C255 1.247 . S
O265 Co252 2.244 . S
O265 C255 1.272 . S
O265 Co257 2.135 . S
Co266 O267 2.216 . S
Co266 O268 2.091 . S
Co266 O270 2.004 . S
Co266 O276 2.021 . S
Co266 O278 2.137 . S
Co266 O279 2.244 . S
O267 Co266 2.216 . S
O267 C274 1.247 . S
O268 Co266 2.091 . S
O268 C274 1.261 . S
C269 O278 1.247 . S
C269 O279 1.272 . S
O270 Co266 2.004 . S
O270 C275 1.259 . S
Co271 O272 2.061 . S
Co271 O277 2.052 . S
Co271 O279 2.135 . S
O272 Co271 2.061 . S
O272 C275 1.235 . S
C273 O276 1.238 . S
C273 O277 1.241 . S
C274 O267 1.247 . S
C274 O268 1.261 . S
C275 O270 1.259 . S
C275 O272 1.235 . S
O276 Co266 2.021 . S
O276 C273 1.238 . S
O277 Co271 2.052 . S
O277 C273 1.241 . S
O278 Co266 2.137 . S
O278 C269 1.247 . S
O279 Co266 2.244 . S
O279 C269 1.272 . S
O279 Co271 2.135 . S
Co280 O281 2.216 . S
Co280 O282 2.091 . S
Co280 O284 2.004 . S
Co280 O290 2.021 . S
Co280 O292 2.137 . S
Co280 O293 2.244 . S
O281 Co280 2.216 . S
O281 C288 1.247 . S
O282 Co280 2.091 . S
O282 C288 1.261 . S
C283 O292 1.247 . S
C283 O293 1.272 . S
O284 Co280 2.004 . S
O284 C289 1.259 . S
Co285 O286 2.061 . S
Co285 O291 2.052 . S
Co285 O293 2.135 . S
O286 Co285 2.061 . S
O286 C289 1.235 . S
C287 O290 1.238 . S
C287 O291 1.241 . S
C288 O281 1.247 . S
C288 O282 1.261 . S
C289 O284 1.259 . S
C289 O286 1.235 . S
O290 Co280 2.021 . S
O290 C287 1.238 . S
O291 Co285 2.052 . S
O291 C287 1.241 . S
O292 Co280 2.137 . S
O292 C283 1.247 . S
O293 Co280 2.244 . S
O293 C283 1.272 . S
O293 Co285 2.135 . S
Co294 O295 2.216 . S
Co294 O296 2.091 . S
Co294 O298 2.004 . S
Co294 O304 2.021 . S
Co294 O306 2.137 . S
Co294 O307 2.244 . S
O295 Co294 2.216 . S
O295 C302 1.247 . S
O296 Co294 2.091 . S
O296 C302 1.261 . S
C297 O306 1.247 . S
C297 O307 1.272 . S
O298 Co294 2.004 . S
O298 C303 1.259 . S
Co299 O300 2.061 . S
Co299 O305 2.052 . S
Co299 O307 2.135 . S
O300 Co299 2.061 . S
O300 C303 1.235 . S
C301 O304 1.238 . S
C301 O305 1.241 . S
C302 O295 1.247 . S
C302 O296 1.261 . S
C303 O298 1.259 . S
C303 O300 1.235 . S
O304 Co294 2.021 . S
O304 C301 1.238 . S
O305 Co299 2.052 . S
O305 C301 1.241 . S
O306 Co294 2.137 . S
O306 C297 1.247 . S
O307 Co294 2.244 . S
O307 C297 1.272 . S
O307 Co299 2.135 . S
Co308 O309 2.216 . S
Co308 O310 2.091 . S
Co308 O312 2.004 . S
Co308 O318 2.021 . S
Co308 O320 2.137 . S
Co308 O321 2.244 . S
O309 Co308 2.216 . S
O309 C316 1.247 . S
O310 Co308 2.091 . S
O310 C316 1.261 . S
C311 O320 1.247 . S
C311 O321 1.272 . S
O312 Co308 2.004 . S
O312 C317 1.259 . S
Co313 O314 2.061 . S
Co313 O319 2.052 . S
Co313 O321 2.135 . S
O314 Co313 2.061 . S
O314 C317 1.235 . S
C315 O318 1.238 . S
C315 O319 1.241 . S
C316 O309 1.247 . S
C316 O310 1.261 . S
C317 O312 1.259 . S
C317 O314 1.235 . S
O318 Co308 2.021 . S
O318 C315 1.238 . S
O319 Co313 2.052 . S
O319 C315 1.241 . S
O320 Co308 2.137 . S
O320 C311 1.247 . S
O321 Co308 2.244 . S
O321 C311 1.272 . S
O321 Co313 2.135 . S
Co322 O323 2.216 . S
Co322 O324 2.091 . S
Co322 O326 2.004 . S
Co322 O332 2.021 . S
Co322 O334 2.137 . S
Co322 O335 2.244 . S
O323 Co322 2.216 . S
O323 C330 1.247 . S
O324 Co322 2.091 . S
O324 C330 1.261 . S
C325 O334 1.247 . S
C325 O335 1.272 . S
O326 Co322 2.004 . S
O326 C331 1.259 . S
Co327 O328 2.061 . S
Co327 O333 2.052 . S
Co327 O335 2.135 . S
O328 Co327 2.061 . S
O328 C331 1.235 . S
C329 O332 1.238 . S
C329 O333 1.241 . S
C330 O323 1.247 . S
C330 O324 1.261 . S
C331 O326 1.259 . S
C331 O328 1.235 . S
O332 Co322 2.021 . S
O332 C329 1.238 . S
O333 Co327 2.052 . S
O333 C329 1.241 . S
O334 Co322 2.137 . S
O334 C325 1.247 . S
O335 Co322 2.244 . S
O335 C325 1.272 . S
O335 Co327 2.135 . S
C336 C337 1.369 . S
C336 C338 1.419 . S
C336 H340 0.930 . S
C337 C336 1.369 . S
C337 C346 1.429 . S
C338 C336 1.419 . S
C338 C339 1.363 . S
C338 H341 0.929 . S
C339 C338 1.363 . S
C339 C345 1.428 . S
H340 C336 0.930 . S
H341 C338 0.929 . S
S342 N343 1.613 . S
S342 N344 1.610 . S
N343 S342 1.613 . S
N343 C346 1.350 . S
N344 S342 1.610 . S
N344 C345 1.351 . S
C345 C339 1.428 . S
C345 N344 1.351 . S
C345 C346 1.434 . S
C346 C337 1.429 . S
C346 N343 1.350 . S
C346 C345 1.434 . S
C347 C348 1.369 . S
C347 C349 1.419 . S
C347 H351 0.930 . S
C348 C347 1.369 . S
C348 C357 1.429 . S
C349 C347 1.419 . S
C349 C350 1.363 . S
C349 H352 0.929 . S
C350 C349 1.363 . S
C350 C356 1.428 . S
H351 C347 0.930 . S
H352 C349 0.929 . S
S353 N354 1.613 . S
S353 N355 1.610 . S
N354 S353 1.613 . S
N354 C357 1.350 . S
N355 S353 1.610 . S
N355 C356 1.351 . S
C356 C350 1.428 . S
C356 N355 1.351 . S
C356 C357 1.434 . S
C357 C348 1.429 . S
C357 N354 1.350 . S
C357 C356 1.434 . S
C358 C359 1.369 . S
C358 C360 1.419 . S
C358 H362 0.930 . S
C359 C358 1.369 . S
C359 C368 1.429 . S
C360 C358 1.419 . S
C360 C361 1.363 . S
C360 H363 0.929 . S
C361 C360 1.363 . S
C361 C367 1.428 . S
H362 C358 0.930 . S
H363 C360 0.929 . S
S364 N365 1.613 . S
S364 N366 1.610 . S
N365 S364 1.613 . S
N365 C368 1.350 . S
N366 S364 1.610 . S
N366 C367 1.351 . S
C367 C361 1.428 . S
C367 N366 1.351 . S
C367 C368 1.434 . S
C368 C359 1.429 . S
C368 N365 1.350 . S
C368 C367 1.434 . S
C369 C370 1.369 . S
C369 C371 1.419 . S
C369 H373 0.930 . S
C370 C369 1.369 . S
C370 C379 1.429 . S
C371 C369 1.419 . S
C371 C372 1.363 . S
C371 H374 0.929 . S
C372 C371 1.363 . S
C372 C378 1.428 . S
H373 C369 0.930 . S
H374 C371 0.929 . S
S375 N376 1.613 . S
S375 N377 1.610 . S
N376 S375 1.613 . S
N376 C379 1.350 . S
N377 S375 1.610 . S
N377 C378 1.351 . S
C378 C372 1.428 . S
C378 N377 1.351 . S
C378 C379 1.434 . S
C379 C370 1.429 . S
C379 N376 1.350 . S
C379 C378 1.434 . S
C380 C381 1.369 . S
C380 C382 1.419 . S
C380 H384 0.930 . S
C381 C380 1.369 . S
C381 C390 1.429 . S
C382 C380 1.419 . S
C382 C383 1.363 . S
C382 H385 0.929 . S
C383 C382 1.363 . S
C383 C389 1.428 . S
H384 C380 0.930 . S
H385 C382 0.929 . S
S386 N387 1.613 . S
S386 N388 1.610 . S
N387 S386 1.613 . S
N387 C390 1.350 . S
N388 S386 1.610 . S
N388 C389 1.351 . S
C389 C383 1.428 . S
C389 N388 1.351 . S
C389 C390 1.434 . S
C390 C381 1.429 . S
C390 N387 1.350 . S
C390 C389 1.434 . S
C391 C392 1.369 . S
C391 C393 1.419 . S
C391 H395 0.930 . S
C392 C391 1.369 . S
C392 C401 1.429 . S
C393 C391 1.419 . S
C393 C394 1.363 . S
C393 H396 0.929 . S
C394 C393 1.363 . S
C394 C400 1.428 . S
H395 C391 0.930 . S
H396 C393 0.929 . S
S397 N398 1.613 . S
S397 N399 1.610 . S
N398 S397 1.613 . S
N398 C401 1.350 . S
N399 S397 1.610 . S
N399 C400 1.351 . S
C400 C394 1.428 . S
C400 N399 1.351 . S
C400 C401 1.434 . S
C401 C392 1.429 . S
C401 N398 1.350 . S
C401 C400 1.434 . S
C402 C403 1.369 . S
C402 C404 1.419 . S
C402 H406 0.930 . S
C403 C402 1.369 . S
C403 C412 1.429 . S
C404 C402 1.419 . S
C404 C405 1.363 . S
C404 H407 0.929 . S
C405 C404 1.363 . S
C405 C411 1.428 . S
H406 C402 0.930 . S
H407 C404 0.929 . S
S408 N409 1.613 . S
S408 N410 1.610 . S
N409 S408 1.613 . S
N409 C412 1.350 . S
N410 S408 1.610 . S
N410 C411 1.351 . S
C411 C405 1.428 . S
C411 N410 1.351 . S
C411 C412 1.434 . S
C412 C403 1.429 . S
C412 N409 1.350 . S
C412 C411 1.434 . S
C413 C414 1.369 . S
C413 C415 1.419 . S
C413 H417 0.930 . S
C414 C413 1.369 . S
C414 C423 1.429 . S
C415 C413 1.419 . S
C415 C416 1.363 . S
C415 H418 0.929 . S
C416 C415 1.363 . S
C416 C422 1.428 . S
H417 C413 0.930 . S
H418 C415 0.929 . S
S419 N420 1.613 . S
S419 N421 1.610 . S
N420 S419 1.613 . S
N420 C423 1.350 . S
N421 S419 1.610 . S
N421 C422 1.351 . S
C422 C416 1.428 . S
C422 N421 1.351 . S
C422 C423 1.434 . S
C423 C414 1.429 . S
C423 N420 1.350 . S
C423 C422 1.434 . S
C424 C425 1.369 . S
C424 C426 1.419 . S
C424 H428 0.930 . S
C425 C424 1.369 . S
C425 C434 1.429 . S
C426 C424 1.419 . S
C426 C427 1.363 . S
C426 H429 0.929 . S
C427 C426 1.363 . S
C427 C433 1.428 . S
H428 C424 0.930 . S
H429 C426 0.929 . S
S430 N431 1.613 . S
S430 N432 1.610 . S
N431 S430 1.613 . S
N431 C434 1.350 . S
N432 S430 1.610 . S
N432 C433 1.351 . S
C433 C427 1.428 . S
C433 N432 1.351 . S
C433 C434 1.434 . S
C434 C425 1.429 . S
C434 N431 1.350 . S
C434 C433 1.434 . S
C435 C436 1.369 . S
C435 C437 1.419 . S
C435 H439 0.930 . S
C436 C435 1.369 . S
C436 C445 1.429 . S
C437 C435 1.419 . S
C437 C438 1.363 . S
C437 H440 0.929 . S
C438 C437 1.363 . S
C438 C444 1.428 . S
H439 C435 0.930 . S
H440 C437 0.929 . S
S441 N442 1.613 . S
S441 N443 1.610 . S
N442 S441 1.613 . S
N442 C445 1.350 . S
N443 S441 1.610 . S
N443 C444 1.351 . S
C444 C438 1.428 . S
C444 N443 1.351 . S
C444 C445 1.434 . S
C445 C436 1.429 . S
C445 N442 1.350 . S
C445 C444 1.434 . S
C446 C447 1.369 . S
C446 C448 1.419 . S
C446 H450 0.930 . S
C447 C446 1.369 . S
C447 C456 1.429 . S
C448 C446 1.419 . S
C448 C449 1.363 . S
C448 H451 0.929 . S
C449 C448 1.363 . S
C449 C455 1.428 . S
H450 C446 0.930 . S
H451 C448 0.929 . S
S452 N453 1.613 . S
S452 N454 1.610 . S
N453 S452 1.613 . S
N453 C456 1.350 . S
N454 S452 1.610 . S
N454 C455 1.351 . S
C455 C449 1.428 . S
C455 N454 1.351 . S
C455 C456 1.434 . S
C456 C447 1.429 . S
C456 N453 1.350 . S
C456 C455 1.434 . S
C457 C458 1.369 . S
C457 C459 1.419 . S
C457 H461 0.930 . S
C458 C457 1.369 . S
C458 C467 1.429 . S
C459 C457 1.419 . S
C459 C460 1.363 . S
C459 H462 0.929 . S
C460 C459 1.363 . S
C460 C466 1.428 . S
H461 C457 0.930 . S
H462 C459 0.929 . S
S463 N464 1.613 . S
S463 N465 1.610 . S
N464 S463 1.613 . S
N464 C467 1.350 . S
N465 S463 1.610 . S
N465 C466 1.351 . S
C466 C460 1.428 . S
C466 N465 1.351 . S
C466 C467 1.434 . S
C467 C458 1.429 . S
C467 N464 1.350 . S
C467 C466 1.434 . S
C468 C469 1.369 . S
C468 C470 1.419 . S
C468 H472 0.930 . S
C469 C468 1.369 . S
C469 C478 1.429 1_556 S
C470 C468 1.419 . S
C470 C471 1.363 1_556 S
C470 H473 0.929 . S
C471 C470 1.363 1_554 S
C471 C477 1.428 . S
H472 C468 0.930 . S
H473 C470 0.929 . S
S474 N475 1.613 . S
S474 N476 1.610 . S
N475 S474 1.613 . S
N475 C478 1.350 . S
N476 S474 1.610 . S
N476 C477 1.351 . S
C477 C471 1.428 . S
C477 N476 1.351 . S
C477 C478 1.434 . S
C478 C469 1.429 1_554 S
C478 N475 1.350 . S
C478 C477 1.434 . S
C479 C480 1.369 . S
C479 C481 1.419 . S
C479 H483 0.930 . S
C480 C479 1.369 . S
C480 C489 1.429 . S
C481 C479 1.419 . S
C481 C482 1.363 . S
C481 H484 0.929 . S
C482 C481 1.363 . S
C482 C488 1.428 . S
H483 C479 0.930 . S
H484 C481 0.929 . S
S485 N486 1.613 . S
S485 N487 1.610 . S
N486 S485 1.613 . S
N486 C489 1.350 . S
N487 S485 1.610 . S
N487 C488 1.351 . S
C488 C482 1.428 . S
C488 N487 1.351 . S
C488 C489 1.434 . S
C489 C480 1.429 . S
C489 N486 1.350 . S
C489 C488 1.434 . S
C490 C491 1.369 1_556 S
C490 C492 1.419 . S
C490 H494 0.930 . S
C491 C490 1.369 1_554 S
C491 C500 1.429 . S
C492 C490 1.419 . S
C492 C493 1.363 . S
C492 H495 0.929 . S
C493 C492 1.363 . S
C493 C499 1.428 1_556 S
H494 C490 0.930 . S
H495 C492 0.929 . S
S496 N497 1.613 . S
S496 N498 1.610 . S
N497 S496 1.613 . S
N497 C500 1.350 . S
N498 S496 1.610 . S
N498 C499 1.351 . S
C499 C493 1.428 1_554 S
C499 N498 1.351 . S
C499 C500 1.434 . S
C500 C491 1.429 . S
C500 N497 1.350 . S
C500 C499 1.434 . S
C501 C502 1.369 . S
C501 C503 1.419 . S
C501 H505 0.930 . S
C502 C501 1.369 . S
C502 C511 1.429 . S
C503 C501 1.419 . S
C503 C504 1.363 . S
C503 H506 0.929 . S
C504 C503 1.363 . S
C504 C510 1.428 . S
H505 C501 0.930 . S
H506 C503 0.929 . S
S507 N508 1.613 . S
S507 N509 1.610 . S
N508 S507 1.613 . S
N508 C511 1.350 . S
N509 S507 1.610 . S
N509 C510 1.351 . S
C510 C504 1.428 . S
C510 N509 1.351 . S
C510 C511 1.434 . S
C511 C502 1.429 . S
C511 N508 1.350 . S
C511 C510 1.434 . S
C512 C513 1.369 . S
C512 C514 1.418 . S
C512 H516 0.930 . S
C513 C512 1.369 . S
C513 C522 1.429 1_556 S
C514 C512 1.418 . S
C514 C515 1.363 1_556 S
C514 H517 0.929 . S
C515 C514 1.363 1_554 S
C515 C521 1.428 . S
H516 C512 0.930 . S
H517 C514 0.929 . S
S518 N519 1.613 . S
S518 N520 1.610 . S
N519 S518 1.613 . S
N519 C522 1.350 . S
N520 S518 1.610 . S
N520 C521 1.351 . S
C521 C515 1.428 . S
C521 N520 1.351 . S
C521 C522 1.434 . S
C522 C513 1.429 1_554 S
C522 N519 1.350 . S
C522 C521 1.434 . S
C523 C524 1.369 . S
C523 C525 1.419 . S
C523 H527 0.930 . S
C524 C523 1.369 . S
C524 C533 1.429 . S
C525 C523 1.419 . S
C525 C526 1.363 . S
C525 H528 0.929 . S
C526 C525 1.363 . S
C526 C532 1.428 . S
H527 C523 0.930 . S
H528 C525 0.929 . S
S529 N530 1.613 . S
S529 N531 1.610 . S
N530 S529 1.613 . S
N530 C533 1.350 . S
N531 S529 1.610 . S
N531 C532 1.351 . S
C532 C526 1.428 . S
C532 N531 1.351 . S
C532 C533 1.434 . S
C533 C524 1.429 . S
C533 N530 1.350 . S
C533 C532 1.434 . S
C534 C535 1.369 . S
C534 C536 1.419 . S
C534 H538 0.930 . S
C535 C534 1.369 . S
C535 C544 1.429 1_554 S
C536 C534 1.419 . S
C536 C537 1.363 1_554 S
C536 H539 0.929 . S
C537 C536 1.363 1_556 S
C537 C543 1.428 . S
H538 C534 0.930 . S
H539 C536 0.929 . S
S540 N541 1.613 . S
S540 N542 1.610 . S
N541 S540 1.613 . S
N541 C544 1.350 . S
N542 S540 1.610 . S
N542 C543 1.351 . S
C543 C537 1.428 . S
C543 N542 1.351 . S
C543 C544 1.434 . S
C544 C535 1.429 1_556 S
C544 N541 1.350 . S
C544 C543 1.434 . S
C545 C546 1.369 . S
C545 C547 1.419 . S
C545 H549 0.930 . S
C546 C545 1.369 . S
C546 C555 1.429 . S
C547 C545 1.419 . S
C547 C548 1.363 . S
C547 H550 0.929 . S
C548 C547 1.363 . S
C548 C554 1.428 . S
H549 C545 0.930 . S
H550 C547 0.929 . S
S551 N552 1.613 . S
S551 N553 1.610 . S
N552 S551 1.613 . S
N552 C555 1.350 . S
N553 S551 1.610 . S
N553 C554 1.351 . S
C554 C548 1.428 . S
C554 N553 1.351 . S
C554 C555 1.434 . S
C555 C546 1.429 . S
C555 N552 1.350 . S
C555 C554 1.434 . S
C556 C557 1.369 1_554 S
C556 C558 1.419 . S
C556 H560 0.930 . S
C557 C556 1.369 1_556 S
C557 C566 1.429 . S
C558 C556 1.419 . S
C558 C559 1.363 . S
C558 H561 0.929 . S
C559 C558 1.363 . S
C559 C565 1.428 1_554 S
H560 C556 0.930 . S
H561 C558 0.929 . S
S562 N563 1.613 . S
S562 N564 1.610 . S
N563 S562 1.613 . S
N563 C566 1.350 . S
N564 S562 1.610 . S
N564 C565 1.351 . S
C565 C559 1.428 1_556 S
C565 N564 1.351 . S
C565 C566 1.434 . S
C566 C557 1.429 . S
C566 N563 1.350 . S
C566 C565 1.434 . S
C567 C568 1.369 . S
C567 C569 1.419 . S
C567 H571 0.930 . S
C568 C567 1.369 . S
C568 C577 1.429 . S
C569 C567 1.419 . S
C569 C570 1.363 . S
C569 H572 0.929 . S
C570 C569 1.363 . S
C570 C576 1.428 . S
H571 C567 0.930 . S
H572 C569 0.929 . S
S573 N574 1.613 . S
S573 N575 1.610 . S
N574 S573 1.613 . S
N574 C577 1.350 . S
N575 S573 1.610 . S
N575 C576 1.351 . S
C576 C570 1.428 . S
C576 N575 1.351 . S
C576 C577 1.434 . S
C577 C568 1.429 . S
C577 N574 1.350 . S
C577 C576 1.434 . S
C578 C579 1.369 1_554 S
C578 C580 1.419 . S
C578 H582 0.930 . S
C579 C578 1.369 1_556 S
C579 C588 1.429 . S
C580 C578 1.419 . S
C580 C581 1.363 . S
C580 H583 0.929 . S
C581 C580 1.363 . S
C581 C587 1.428 1_554 S
H582 C578 0.930 . S
H583 C580 0.929 . S
S584 N585 1.613 . S
S584 N586 1.610 . S
N585 S584 1.613 . S
N585 C588 1.350 . S
N586 S584 1.610 . S
N586 C587 1.351 . S
C587 C581 1.428 1_556 S
C587 N586 1.351 . S
C587 C588 1.434 . S
C588 C579 1.429 . S
C588 N585 1.350 . S
C588 C587 1.434 . S
C589 C590 1.369 . S
C589 C591 1.419 . S
C589 H593 0.930 . S
C590 C589 1.369 . S
C590 C599 1.429 . S
C591 C589 1.419 . S
C591 C592 1.363 . S
C591 H594 0.929 . S
C592 C591 1.363 . S
C592 C598 1.428 . S
H593 C589 0.930 . S
H594 C591 0.929 . S
S595 N596 1.613 . S
S595 N597 1.610 . S
N596 S595 1.613 . S
N596 C599 1.350 . S
N597 S595 1.610 . S
N597 C598 1.351 . S
C598 C592 1.428 . S
C598 N597 1.351 . S
C598 C599 1.434 . S
C599 C590 1.429 . S
C599 N596 1.350 . S
C599 C598 1.434 . S
C600 C601 1.369 . S
C600 C602 1.419 . S
C600 H604 0.930 . S
C601 C600 1.369 . S
C601 C610 1.429 . S
C602 C600 1.419 . S
C602 C603 1.363 . S
C602 H605 0.929 . S
C603 C602 1.363 . S
C603 C609 1.428 . S
H604 C600 0.930 . S
H605 C602 0.929 . S
S606 N607 1.613 . S
S606 N608 1.610 . S
N607 S606 1.613 . S
N607 C610 1.350 . S
N608 S606 1.610 . S
N608 C609 1.351 . S
C609 C603 1.428 . S
C609 N608 1.351 . S
C609 C610 1.434 . S
C610 C601 1.429 . S
C610 N607 1.350 . S
C610 C609 1.434 . S
C611 C612 1.369 . S
C611 C613 1.419 1_455 S
C611 H615 0.930 . S
C612 C611 1.369 . S
C612 C621 1.429 . S
C613 C611 1.419 1_655 S
C613 C614 1.363 . S
C613 H616 0.929 . S
C614 C613 1.363 . S
C614 C620 1.428 . S
H615 C611 0.930 . S
H616 C613 0.929 . S
S617 N618 1.615 1_655 S
S617 N619 1.607 . S
N618 S617 1.615 1_455 S
N618 C621 1.350 . S
N619 S617 1.607 . S
N619 C620 1.351 . S
C620 C614 1.428 . S
C620 N619 1.351 . S
C620 C621 1.434 1_655 S
C621 C612 1.429 . S
C621 N618 1.350 . S
C621 C620 1.434 1_455 S
C622 C623 1.369 . S
C622 C624 1.419 1_565 S
C622 H626 0.930 . S
C623 C622 1.369 . S
C623 C632 1.429 . S
C624 C622 1.419 1_545 S
C624 C625 1.363 . S
C624 H627 0.929 . S
C625 C624 1.363 . S
C625 C631 1.428 . S
H626 C622 0.930 . S
H627 C624 0.929 . S
S628 N629 1.615 1_545 S
S628 N630 1.607 . S
N629 S628 1.615 1_565 S
N629 C632 1.350 . S
N630 S628 1.607 . S
N630 C631 1.351 . S
C631 C625 1.428 . S
C631 N630 1.351 . S
C631 C632 1.434 1_545 S
C632 C623 1.429 . S
C632 N629 1.350 . S
C632 C631 1.434 1_565 S
C633 C634 1.369 . S
C633 C635 1.419 . S
C633 H637 0.930 . S
C634 C633 1.369 . S
C634 C643 1.429 . S
C635 C633 1.419 . S
C635 C636 1.363 . S
C635 H638 0.929 . S
C636 C635 1.363 . S
C636 C642 1.428 . S
H637 C633 0.930 . S
H638 C635 0.929 . S
S639 N640 1.613 . S
S639 N641 1.610 . S
N640 S639 1.613 . S
N640 C643 1.350 . S
N641 S639 1.610 . S
N641 C642 1.351 . S
C642 C636 1.428 . S
C642 N641 1.351 . S
C642 C643 1.434 . S
C643 C634 1.429 . S
C643 N640 1.350 . S
C643 C642 1.434 . S
C644 C645 1.369 . S
C644 C646 1.419 1_655 S
C644 H648 0.930 . S
C645 C644 1.369 . S
C645 C654 1.429 . S
C646 C644 1.419 1_455 S
C646 C647 1.363 . S
C646 H649 0.929 . S
C647 C646 1.363 . S
C647 C653 1.428 . S
H648 C644 0.930 . S
H649 C646 0.929 . S
S650 N651 1.614 1_455 S
S650 N652 1.607 . S
N651 S650 1.614 1_655 S
N651 C654 1.350 . S
N652 S650 1.607 . S
N652 C653 1.351 . S
C653 C647 1.428 . S
C653 N652 1.351 . S
C653 C654 1.434 1_455 S
C654 C645 1.429 . S
C654 N651 1.350 . S
C654 C653 1.434 1_655 S
C655 C656 1.369 . S
C655 C657 1.419 1_545 S
C655 H659 0.930 . S
C656 C655 1.369 . S
C656 C665 1.429 . S
C657 C655 1.419 1_565 S
C657 C658 1.363 . S
C657 H660 0.929 . S
C658 C657 1.363 . S
C658 C664 1.428 . S
H659 C655 0.930 . S
H660 C657 0.929 . S
S661 N662 1.615 1_565 S
S661 N663 1.607 . S
N662 S661 1.615 1_545 S
N662 C665 1.350 . S
N663 S661 1.607 . S
N663 C664 1.351 . S
C664 C658 1.428 . S
C664 N663 1.351 . S
C664 C665 1.434 1_565 S
C665 C656 1.429 . S
C665 N662 1.350 . S
C665 C664 1.434 1_545 S
C666 C667 1.369 . S
C666 C668 1.419 . S
C666 H670 0.930 . S
C667 C666 1.369 . S
C667 C676 1.429 . S
C668 C666 1.419 . S
C668 C669 1.363 . S
C668 H671 0.929 . S
C669 C668 1.363 . S
C669 C675 1.428 . S
H670 C666 0.930 . S
H671 C668 0.929 . S
S672 N673 1.613 . S
S672 N674 1.610 . S
N673 S672 1.613 . S
N673 C676 1.350 . S
N674 S672 1.610 . S
N674 C675 1.351 . S
C675 C669 1.428 . S
C675 N674 1.351 . S
C675 C676 1.434 . S
C676 C667 1.429 . S
C676 N673 1.350 . S
C676 C675 1.434 . S
C677 C678 1.369 . S
C677 C679 1.419 1_655 S
C677 H681 0.930 . S
C678 C677 1.369 . S
C678 C687 1.429 . S
C679 C677 1.419 1_455 S
C679 C680 1.363 . S
C679 H682 0.929 . S
C680 C679 1.363 . S
C680 C686 1.428 . S
H681 C677 0.930 . S
H682 C679 0.929 . S
S683 N684 1.616 1_455 S
S683 N685 1.608 . S
N684 S683 1.616 1_655 S
N684 C687 1.350 . S
N685 S683 1.608 . S
N685 C686 1.351 . S
C686 C680 1.428 . S
C686 N685 1.351 . S
C686 C687 1.434 1_455 S
C687 C678 1.429 . S
C687 N684 1.350 . S
C687 C686 1.434 1_655 S
C688 C689 1.369 . S
C688 C690 1.419 1_545 S
C688 H692 0.930 . S
C689 C688 1.369 . S
C689 C698 1.429 . S
C690 C688 1.419 1_565 S
C690 C691 1.363 . S
C690 H693 0.929 . S
C691 C690 1.363 . S
C691 C697 1.428 . S
H692 C688 0.930 . S
H693 C690 0.929 . S
S694 N695 1.617 1_565 S
S694 N696 1.609 . S
N695 S694 1.617 1_545 S
N695 C698 1.350 . S
N696 S694 1.609 . S
N696 C697 1.351 . S
C697 C691 1.428 . S
C697 N696 1.351 . S
C697 C698 1.434 1_565 S
C698 C689 1.429 . S
C698 N695 1.350 . S
C698 C697 1.434 1_545 S
C699 C700 1.369 . S
C699 C701 1.419 . S
C699 H703 0.930 . S
C700 C699 1.369 . S
C700 C709 1.429 . S
C701 C699 1.419 . S
C701 C702 1.363 . S
C701 H704 0.929 . S
C702 C701 1.363 . S
C702 C708 1.428 . S
H703 C699 0.930 . S
H704 C701 0.929 . S
S705 N706 1.613 . S
S705 N707 1.610 . S
N706 S705 1.613 . S
N706 C709 1.350 . S
N707 S705 1.610 . S
N707 C708 1.351 . S
C708 C702 1.428 . S
C708 N707 1.351 . S
C708 C709 1.434 . S
C709 C700 1.429 . S
C709 N706 1.350 . S
C709 C708 1.434 . S
C710 C711 1.369 . S
C710 C712 1.419 1_455 S
C710 H714 0.930 . S
C711 C710 1.369 . S
C711 C720 1.429 . S
C712 C710 1.419 1_655 S
C712 C713 1.363 . S
C712 H715 0.929 . S
C713 C712 1.363 . S
C713 C719 1.428 . S
H714 C710 0.930 . S
H715 C712 0.929 . S
S716 N717 1.615 1_655 S
S716 N718 1.607 . S
N717 S716 1.615 1_455 S
N717 C720 1.350 . S
N718 S716 1.607 . S
N718 C719 1.351 . S
C719 C713 1.428 . S
C719 N718 1.351 . S
C719 C720 1.434 1_655 S
C720 C711 1.429 . S
C720 N717 1.350 . S
C720 C719 1.434 1_455 S
C721 C722 1.369 . S
C721 C723 1.419 1_565 S
C721 H725 0.930 . S
C722 C721 1.369 . S
C722 C731 1.429 . S
C723 C721 1.419 1_545 S
C723 C724 1.363 . S
C723 H726 0.929 . S
C724 C723 1.363 . S
C724 C730 1.428 . S
H725 C721 0.930 . S
H726 C723 0.929 . S
S727 N728 1.616 1_545 S
S727 N729 1.608 . S
N728 S727 1.616 1_565 S
N728 C731 1.350 . S
N729 S727 1.608 . S
N729 C730 1.351 . S
C730 C724 1.428 . S
C730 N729 1.351 . S
C730 C731 1.434 1_545 S
C731 C722 1.429 . S
C731 N728 1.350 . S
C731 C730 1.434 1_565 S
C732 C733 1.369 1_554 S
C732 C734 1.419 . S
C732 H736 0.930 . S
C733 C732 1.369 1_556 S
C733 C742 1.429 . S
C734 C732 1.419 . S
C734 C735 1.363 . S
C734 H737 0.929 . S
C735 C734 1.363 . S
C735 C741 1.428 1_554 S
H736 C732 0.930 . S
H737 C734 0.929 . S
S738 N739 1.613 . S
S738 N740 1.610 . S
N739 S738 1.613 . S
N739 C742 1.350 . S
N740 S738 1.610 . S
N740 C741 1.351 . S
C741 C735 1.428 1_556 S
C741 N740 1.351 . S
C741 C742 1.434 . S
C742 C733 1.429 . S
C742 N739 1.350 . S
C742 C741 1.434 . S
C743 C744 1.369 . S
C743 C745 1.419 . S
C743 H747 0.930 . S
C744 C743 1.369 . S
C744 C753 1.429 . S
C745 C743 1.419 . S
C745 C746 1.363 . S
C745 H748 0.929 . S
C746 C745 1.363 . S
C746 C752 1.428 . S
H747 C743 0.930 . S
H748 C745 0.929 . S
S749 N750 1.613 . S
S749 N751 1.610 . S
N750 S749 1.613 . S
N750 C753 1.350 . S
N751 S749 1.610 . S
N751 C752 1.351 . S
C752 C746 1.428 . S
C752 N751 1.351 . S
C752 C753 1.434 . S
C753 C744 1.429 . S
C753 N750 1.350 . S
C753 C752 1.434 . S
C754 C755 1.369 1_554 S
C754 C756 1.419 . S
C754 H758 0.930 . S
C755 C754 1.369 1_556 S
C755 C764 1.429 . S
C756 C754 1.419 . S
C756 C757 1.363 . S
C756 H759 0.929 . S
C757 C756 1.363 . S
C757 C763 1.428 1_554 S
H758 C754 0.930 . S
H759 C756 0.929 . S
S760 N761 1.613 . S
S760 N762 1.610 . S
N761 S760 1.613 . S
N761 C764 1.350 . S
N762 S760 1.610 . S
N762 C763 1.351 . S
C763 C757 1.428 1_556 S
C763 N762 1.351 . S
C763 C764 1.434 . S
C764 C755 1.429 . S
C764 N761 1.350 . S
C764 C763 1.434 . S
C765 C766 1.369 . S
C765 C767 1.419 . S
C765 H769 0.930 . S
C766 C765 1.369 . S
C766 C775 1.429 . S
C767 C765 1.419 . S
C767 C768 1.363 . S
C767 H770 0.929 . S
C768 C767 1.363 . S
C768 C774 1.428 . S
H769 C765 0.930 . S
H770 C767 0.929 . S
S771 N772 1.613 . S
S771 N773 1.610 . S
N772 S771 1.613 . S
N772 C775 1.350 . S
N773 S771 1.610 . S
N773 C774 1.351 . S
C774 C768 1.428 . S
C774 N773 1.351 . S
C774 C775 1.434 . S
C775 C766 1.429 . S
C775 N772 1.350 . S
C775 C774 1.434 . S
C776 C777 1.369 1_554 S
C776 C778 1.419 . S
C776 H780 0.930 . S
C777 C776 1.369 1_556 S
C777 C786 1.429 . S
C778 C776 1.419 . S
C778 C779 1.363 . S
C778 H781 0.929 . S
C779 C778 1.363 . S
C779 C785 1.428 1_554 S
H780 C776 0.930 . S
H781 C778 0.929 . S
S782 N783 1.613 . S
S782 N784 1.610 . S
N783 S782 1.613 . S
N783 C786 1.350 . S
N784 S782 1.610 . S
N784 C785 1.351 . S
C785 C779 1.428 1_556 S
C785 N784 1.351 . S
C785 C786 1.434 . S
C786 C777 1.429 . S
C786 N783 1.350 . S
C786 C785 1.434 . S
C787 C788 1.369 . S
C787 C789 1.419 . S
C787 H791 0.930 . S
C788 C787 1.369 . S
C788 C797 1.429 . S
C789 C787 1.419 . S
C789 C790 1.363 . S
C789 H792 0.929 . S
C790 C789 1.363 . S
C790 C796 1.428 . S
H791 C787 0.930 . S
H792 C789 0.929 . S
S793 N794 1.613 . S
S793 N795 1.610 . S
N794 S793 1.613 . S
N794 C797 1.350 . S
N795 S793 1.610 . S
N795 C796 1.351 . S
C796 C790 1.428 . S
C796 N795 1.351 . S
C796 C797 1.434 . S
C797 C788 1.429 . S
C797 N794 1.350 . S
C797 C796 1.434 . S
C798 C799 1.369 . S
C798 C800 1.419 . S
C798 H802 0.930 . S
C799 C798 1.369 . S
C799 C808 1.429 1_554 S
C800 C798 1.419 . S
C800 C801 1.363 1_554 S
C800 H803 0.929 . S
C801 C800 1.363 1_556 S
C801 C807 1.428 . S
H802 C798 0.930 . S
H803 C800 0.929 . S
S804 N805 1.613 . S
S804 N806 1.610 . S
N805 S804 1.613 . S
N805 C808 1.350 . S
N806 S804 1.610 . S
N806 C807 1.351 . S
C807 C801 1.428 . S
C807 N806 1.351 . S
C807 C808 1.434 . S
C808 C799 1.429 1_556 S
C808 N805 1.350 . S
C808 C807 1.434 . S
C809 C810 1.369 . S
C809 C811 1.419 . S
C809 H813 0.930 . S
C810 C809 1.369 . S
C810 C819 1.429 . S
C811 C809 1.419 . S
C811 C812 1.363 . S
C811 H814 0.929 . S
C812 C811 1.363 . S
C812 C818 1.428 . S
H813 C809 0.930 . S
H814 C811 0.929 . S
S815 N816 1.613 . S
S815 N817 1.610 . S
N816 S815 1.613 . S
N816 C819 1.350 . S
N817 S815 1.610 . S
N817 C818 1.351 . S
C818 C812 1.428 . S
C818 N817 1.351 . S
C818 C819 1.434 . S
C819 C810 1.429 . S
C819 N816 1.350 . S
C819 C818 1.434 . S
C820 C821 1.369 1_556 S
C820 C822 1.419 . S
C820 H824 0.930 . S
C821 C820 1.369 1_554 S
C821 C830 1.429 . S
C822 C820 1.419 . S
C822 C823 1.363 . S
C822 H825 0.929 . S
C823 C822 1.363 . S
C823 C829 1.428 1_556 S
H824 C820 0.930 . S
H825 C822 0.929 . S
S826 N827 1.613 . S
S826 N828 1.610 . S
N827 S826 1.613 . S
N827 C830 1.350 . S
N828 S826 1.610 . S
N828 C829 1.351 . S
C829 C823 1.428 1_554 S
C829 N828 1.351 . S
C829 C830 1.434 . S
C830 C821 1.429 . S
C830 N827 1.350 . S
C830 C829 1.434 . S
C831 C832 1.369 . S
C831 C833 1.419 . S
C831 H835 0.930 . S
C832 C831 1.369 . S
C832 C841 1.429 . S
C833 C831 1.419 . S
C833 C834 1.363 . S
C833 H836 0.929 . S
C834 C833 1.363 . S
C834 C840 1.428 . S
H835 C831 0.930 . S
H836 C833 0.929 . S
S837 N838 1.613 . S
S837 N839 1.610 . S
N838 S837 1.613 . S
N838 C841 1.350 . S
N839 S837 1.610 . S
N839 C840 1.351 . S
C840 C834 1.428 . S
C840 N839 1.351 . S
C840 C841 1.434 . S
C841 C832 1.429 . S
C841 N838 1.350 . S
C841 C840 1.434 . S
C842 C843 1.369 . S
C842 C844 1.419 . S
C842 H846 0.930 . S
C843 C842 1.369 . S
C843 C852 1.429 1_556 S
C844 C842 1.419 . S
C844 C845 1.363 1_556 S
C844 H847 0.929 . S
C845 C844 1.363 1_554 S
C845 C851 1.428 . S
H846 C842 0.930 . S
H847 C844 0.929 . S
S848 N849 1.613 . S
S848 N850 1.610 . S
N849 S848 1.613 . S
N849 C852 1.350 . S
N850 S848 1.610 . S
N850 C851 1.351 . S
C851 C845 1.428 . S
C851 N850 1.351 . S
C851 C852 1.434 . S
C852 C843 1.429 1_554 S
C852 N849 1.350 . S
C852 C851 1.434 . S
C853 C854 1.369 . S
C853 C855 1.419 . S
C853 H857 0.930 . S
C854 C853 1.369 . S
C854 C863 1.429 . S
C855 C853 1.419 . S
C855 C856 1.363 . S
C855 H858 0.929 . S
C856 C855 1.363 . S
C856 C862 1.428 . S
H857 C853 0.930 . S
H858 C855 0.929 . S
S859 N860 1.613 . S
S859 N861 1.610 . S
N860 S859 1.613 . S
N860 C863 1.350 . S
N861 S859 1.610 . S
N861 C862 1.351 . S
C862 C856 1.428 . S
C862 N861 1.351 . S
C862 C863 1.434 . S
C863 C854 1.429 . S
C863 N860 1.350 . S
C863 C862 1.434 . S
C337 C3 1.509 . S
C339 C213 1.509 . S
C348 C17 1.509 . S
C350 C227 1.509 . S
C359 C241 1.509 . S
C361 C31 1.509 . S
C370 C171 1.507 . S
C372 C45 1.507 . S
C381 C185 1.509 . S
C383 C59 1.509 . S
C392 C199 1.509 . S
C394 C73 1.508 . S
C403 C297 1.508 . S
C405 C87 1.508 . S
C414 C101 1.509 . S
C416 C311 1.509 . S
C425 C325 1.507 . S
C427 C115 1.508 . S
C436 C129 1.507 . S
C438 C255 1.508 . S
C447 C269 1.507 . S
C449 C143 1.507 . S
C458 C157 1.507 . S
C460 C283 1.507 . S
C469 C148 1.417 . S
C471 C8 1.419 . S
C480 C162 1.419 . S
C482 C22 1.417 . S
C491 C36 1.418 . S
C493 C92 1.418 . S
C502 C50 1.417 . S
C504 C106 1.419 . S
C513 C120 1.417 . S
C515 C64 1.419 . S
C524 C78 1.418 . S
C526 C134 1.419 . S
C535 C316 1.417 . S
C537 C176 1.419 . S
C546 C190 1.418 . S
C548 C330 1.418 . S
C557 C204 1.419 . S
C559 C260 1.417 . S
C568 C274 1.417 . S
C570 C218 1.419 . S
C579 C232 1.419 . S
C581 C288 1.418 . S
C590 C246 1.419 . S
C592 C302 1.417 . S
C601 C9 1.424 . S
C603 C261 1.424 . S
C612 C275 1.428 . S
C614 C23 1.427 . S
C623 C37 1.424 . S
C625 C289 1.425 . S
C634 C51 1.428 . S
C636 C303 1.427 . S
C645 C317 1.428 . S
C647 C65 1.427 . S
C656 C79 1.426 . S
C658 C331 1.426 . S
C667 C93 1.425 . S
C669 C177 1.425 . S
C678 C107 1.422 . S
C680 C191 1.423 . S
C689 C205 1.421 . S
C691 C121 1.422 . S
C700 C219 1.423 . S
C702 C135 1.424 . S
C711 C149 1.428 . S
C713 C233 1.427 . S
C722 C247 1.423 . S
C724 C163 1.423 . S
C733 C91 1.447 . S
C735 C7 1.453 . S
C744 C21 1.448 . S
C746 C105 1.452 . S
C755 C119 1.449 . S
C757 C35 1.456 . S
C766 C133 1.451 . S
C768 C49 1.456 . S
C777 C147 1.447 . S
C779 C63 1.453 . S
C788 C77 1.448 . S
C790 C161 1.455 . S
C799 C259 1.457 . S
C801 C175 1.449 . S
C810 C189 1.453 . S
C812 C273 1.448 . S
C821 C287 1.447 . S
C823 C203 1.453 . S
C832 C301 1.449 . S
C834 C217 1.451 . S
C843 C231 1.455 . S
C845 C315 1.454 . S
C854 C245 1.455 . S
C856 C329 1.448 . S
