# Generated by pormake.
# Topology uol, (4)-cn, num edge types: 1
# Building blocks:
#     Node 0, Type 0, BuildingBlock: CEKHIL_clean_sbu_0, # of connection points: 4
#     Node 1, Type 0, BuildingBlock: CEKHIL_clean_sbu_0, # of connection points: 4
#     Node 2, Type 0, BuildingBlock: CEKHIL_clean_sbu_0, # of connection points: 4
#     Node 3, Type 0, BuildingBlock: CEKHIL_clean_sbu_0, # of connection points: 4
#     Node 4, Type 0, BuildingBlock: CEKHIL_clean_sbu_0, # of connection points: 4
#     Node 5, Type 0, BuildingBlock: CEKHIL_clean_sbu_0, # of connection points: 4
#     Node 6, Type 0, BuildingBlock: CEKHIL_clean_sbu_0, # of connection points: 4
#     Node 7, Type 0, BuildingBlock: CEKHIL_clean_sbu_0, # of connection points: 4
#     Node 8, Type 0, BuildingBlock: CEKHIL_clean_sbu_0, # of connection points: 4
#     Node 9, Type 0, BuildingBlock: CEKHIL_clean_sbu_0, # of connection points: 4
#     Node 10, Type 0, BuildingBlock: CEKHIL_clean_sbu_0, # of connection points: 4
#     Node 11, Type 0, BuildingBlock: CEKHIL_clean_sbu_0, # of connection points: 4
#     Edge 12, Type (0, 0), BuildingBlock: ZUJKAS_clean_linker_0, # of connection points: 2
#     Edge 13, Type (0, 0), BuildingBlock: ZUJKAS_clean_linker_0, # of connection points: 2
#     Edge 14, Type (0, 0), BuildingBlock: ZUJKAS_clean_linker_0, # of connection points: 2
#     Edge 15, Type (0, 0), BuildingBlock: ZUJKAS_clean_linker_0, # of connection points: 2
#     Edge 16, Type (0, 0), BuildingBlock: ZUJKAS_clean_linker_0, # of connection points: 2
#     Edge 17, Type (0, 0), BuildingBlock: ZUJKAS_clean_linker_0, # of connection points: 2
#     Edge 18, Type (0, 0), BuildingBlock: ZUJKAS_clean_linker_0, # of connection points: 2
#     Edge 19, Type (0, 0), BuildingBlock: ZUJKAS_clean_linker_0, # of connection points: 2
#     Edge 20, Type (0, 0), BuildingBlock: ZUJKAS_clean_linker_0, # of connection points: 2
#     Edge 21, Type (0, 0), BuildingBlock: ZUJKAS_clean_linker_0, # of connection points: 2
#     Edge 22, Type (0, 0), BuildingBlock: ZUJKAS_clean_linker_0, # of connection points: 2
#     Edge 23, Type (0, 0), BuildingBlock: ZUJKAS_clean_linker_0, # of connection points: 2
#     Edge 24, Type (0, 0), BuildingBlock: ZUJKAS_clean_linker_0, # of connection points: 2
#     Edge 25, Type (0, 0), BuildingBlock: ZUJKAS_clean_linker_0, # of connection points: 2
#     Edge 26, Type (0, 0), BuildingBlock: ZUJKAS_clean_linker_0, # of connection points: 2
#     Edge 27, Type (0, 0), BuildingBlock: ZUJKAS_clean_linker_0, # of connection points: 2
#     Edge 28, Type (0, 0), BuildingBlock: ZUJKAS_clean_linker_0, # of connection points: 2
#     Edge 29, Type (0, 0), BuildingBlock: ZUJKAS_clean_linker_0, # of connection points: 2
#     Edge 30, Type (0, 0), BuildingBlock: ZUJKAS_clean_linker_0, # of connection points: 2
#     Edge 31, Type (0, 0), BuildingBlock: ZUJKAS_clean_linker_0, # of connection points: 2
#     Edge 32, Type (0, 0), BuildingBlock: ZUJKAS_clean_linker_0, # of connection points: 2
#     Edge 33, Type (0, 0), BuildingBlock: ZUJKAS_clean_linker_0, # of connection points: 2
#     Edge 34, Type (0, 0), BuildingBlock: ZUJKAS_clean_linker_0, # of connection points: 2
#     Edge 35, Type (0, 0), BuildingBlock: ZUJKAS_clean_linker_0, # of connection points: 2
# Relax obj value: 0.130
# Max RMSD: 0.171
# Mean RMSD: 0.171
data_MOF--net-uol--node1-CEKHIL_clean_sbu_0--edge1-ZUJKAS_clean_linker_0
_symmetry_space_group_name_H-M    P1
_symmetry_Int_Tables_number       1
_symmetry_cell_setting            triclinic
loop_
_symmetry_equiv_pos_as_xyz
'x, y, z'
_cell_length_a     42.385141
_cell_length_b     42.369689
_cell_length_c     84.939507
_cell_angle_alpha  89.949362
_cell_angle_beta   90.044475
_cell_angle_gamma 119.97876
loop_
_atom_site_label
_atom_site_type_symbol
_atom_site_fract_x
_atom_site_fract_y
_atom_site_fract_z
_atom_type_partial_charge
Co0 Co 0.14692 0.34955 0.08623 0.0
O1 O 0.12491 0.37428 0.07595 0.0
O2 O 0.15989 0.39449 0.09714 0.0
C3 C 0.16777 0.33672 0.06411 0.0
O4 O 0.17546 0.33255 0.09976 0.0
Co5 Co 0.11979 0.26786 0.07987 0.0
O6 O 0.16474 0.27788 0.09124 0.0
C7 C 0.07822 0.28823 0.10146 0.0
C8 C 0.14078 0.39959 0.0865 0.0
C9 C 0.18188 0.30587 0.09998 0.0
O10 O 0.10271 0.32205 0.10009 0.0
O11 O 0.07893 0.26277 0.09362 0.0
O12 O 0.18594 0.36862 0.07063 0.0
O13 O 0.13638 0.315 0.07029 0.0
Co14 Co 0.79469 0.14942 0.25354 0.0
O15 O 0.74833 0.12947 0.24314 0.0
O16 O 0.76392 0.1639 0.26452 0.0
C17 C 0.82883 0.1698 0.23152 0.0
O18 O 0.84029 0.17588 0.26715 0.0
Co19 Co 0.84572 0.11826 0.24693 0.0
O20 O 0.88204 0.16195 0.25864 0.0
C21 C 0.7829 0.07837 0.26818 0.0
C22 C 0.73959 0.14569 0.25379 0.0
C23 C 0.87264 0.18027 0.2674 0.0
O24 O 0.77595 0.1046 0.26717 0.0
O25 O 0.80797 0.0774 0.26014 0.0
O26 O 0.8164 0.18895 0.23821 0.0
O27 O 0.81758 0.13782 0.23746 0.0
Co28 Co 0.64208 0.79551 0.42018 0.0
O29 O 0.61852 0.74906 0.40968 0.0
O30 O 0.59712 0.76254 0.43084 0.0
C31 C 0.65465 0.82955 0.39816 0.0
O32 O 0.65775 0.84054 0.43388 0.0
Co33 Co 0.7234 0.85181 0.41428 0.0
O34 O 0.71085 0.886 0.4247 0.0
C35 C 0.70401 0.78944 0.43557 0.0
C36 C 0.59282 0.73886 0.42008 0.0
C37 C 0.68305 0.87425 0.43361 0.0
O38 O 0.67002 0.77929 0.43405 0.0
O39 O 0.72929 0.81635 0.42799 0.0
O40 O 0.6226 0.81508 0.40458 0.0
O41 O 0.67683 0.8205 0.40441 0.0
Co42 Co 0.84604 0.64451 0.58633 0.0
O43 O 0.86825 0.61931 0.57667 0.0
O44 O 0.83257 0.59993 0.59768 0.0
C45 C 0.82563 0.65637 0.5638 0.0
O46 O 0.81746 0.66225 0.59933 0.0
Co47 Co 0.87325 0.72584 0.57902 0.0
O48 O 0.82802 0.71631 0.58999 0.0
C49 C 0.91478 0.70643 0.60117 0.0
C50 C 0.85203 0.59445 0.58738 0.0
C51 C 0.81092 0.68885 0.59902 0.0
O52 O 0.89011 0.67258 0.6002 0.0
O53 O 0.91416 0.73144 0.59291 0.0
O54 O 0.8072 0.62485 0.57063 0.0
O55 O 0.85698 0.67829 0.56997 0.0
Co56 Co 0.19841 0.84344 0.75325 0.0
O57 O 0.24563 0.8636 0.74368 0.0
O58 O 0.22742 0.82699 0.76442 0.0
C59 C 0.16603 0.82528 0.73071 0.0
O60 O 0.15155 0.8168 0.76601 0.0
Co61 Co 0.14965 0.87722 0.74604 0.0
O62 O 0.11178 0.83322 0.75716 0.0
C63 C 0.21138 0.91459 0.76796 0.0
C64 C 0.25285 0.84592 0.7542 0.0
C65 C 0.11967 0.81357 0.76585 0.0
O66 O 0.21647 0.8871 0.76752 0.0
O67 O 0.18837 0.91748 0.75919 0.0
O68 O 0.17749 0.80521 0.73733 0.0
O69 O 0.17748 0.85692 0.737 0.0
Co70 Co 0.35161 0.19867 0.92015 0.0
O71 O 0.37611 0.24539 0.90989 0.0
O72 O 0.39681 0.23056 0.93092 0.0
C73 C 0.33835 0.16504 0.89803 0.0
O74 O 0.33466 0.15298 0.93358 0.0
Co75 Co 0.26955 0.145 0.91392 0.0
O76 O 0.27938 0.10983 0.92522 0.0
C77 C 0.29098 0.20738 0.93529 0.0
C78 C 0.40169 0.25475 0.9203 0.0
C79 C 0.30754 0.1201 0.93381 0.0
O80 O 0.32449 0.21545 0.9342 0.0
O81 O 0.26533 0.18195 0.92722 0.0
O82 O 0.37044 0.17887 0.90437 0.0
O83 O 0.31675 0.17475 0.90432 0.0
Co84 Co 0.64263 0.84312 0.74029 0.0
O85 O 0.6167 0.8648 0.74969 0.0
O86 O 0.59717 0.82722 0.72929 0.0
C87 C 0.65657 0.82533 0.763 0.0
O88 O 0.66132 0.81482 0.72772 0.0
Co89 Co 0.72514 0.87507 0.74705 0.0
O90 O 0.71798 0.83094 0.73575 0.0
C91 C 0.70153 0.9131 0.72509 0.0
C92 C 0.59136 0.84688 0.73937 0.0
C93 C 0.68976 0.81122 0.72745 0.0
O94 O 0.66877 0.886 0.72563 0.0
O95 O 0.72729 0.91564 0.73387 0.0
O96 O 0.62469 0.80578 0.75664 0.0
O97 O 0.67747 0.85639 0.75635 0.0
Co98 Co 0.7958 0.64407 0.90788 0.0
O99 O 0.7493 0.61746 0.9181 0.0
O100 O 0.76516 0.59904 0.89668 0.0
C101 C 0.82967 0.65733 0.92997 0.0
O102 O 0.84157 0.66372 0.89441 0.0
Co103 Co 0.84617 0.72626 0.91507 0.0
O104 O 0.88256 0.7198 0.90288 0.0
C105 C 0.7835 0.70344 0.89386 0.0
C106 C 0.7407 0.5927 0.90737 0.0
C107 C 0.87357 0.69218 0.8941 0.0
O108 O 0.77748 0.67053 0.89427 0.0
O109 O 0.8075 0.72912 0.90241 0.0
O110 O 0.81729 0.62589 0.92316 0.0
O111 O 0.81837 0.6781 0.92413 0.0
Co112 Co 0.14921 0.79561 0.07427 0.0
O113 O 0.12757 0.7489 0.08452 0.0
O114 O 0.16192 0.76365 0.06314 0.0
C115 C 0.17055 0.82903 0.09644 0.0
O116 O 0.1773 0.84126 0.06077 0.0
Co117 Co 0.12232 0.8501 0.08113 0.0
O118 O 0.16809 0.88542 0.07036 0.0
C119 C 0.07998 0.78816 0.0596 0.0
C120 C 0.14311 0.73945 0.07383 0.0
C121 C 0.1846 0.87464 0.0612 0.0
O122 O 0.10454 0.77886 0.06071 0.0
O123 O 0.081 0.81438 0.06753 0.0
O124 O 0.18874 0.81564 0.08965 0.0
O125 O 0.13897 0.81933 0.09045 0.0
Co126 Co 0.35037 0.15039 0.24045 0.0
O127 O 0.3755 0.12903 0.25086 0.0
O128 O 0.39558 0.16392 0.22964 0.0
C129 C 0.33716 0.17098 0.26254 0.0
O130 O 0.33285 0.17838 0.22685 0.0
Co131 Co 0.26864 0.12244 0.24674 0.0
O132 O 0.27901 0.1684 0.23615 0.0
C133 C 0.28975 0.08121 0.22527 0.0
C134 C 0.40089 0.14514 0.24038 0.0
C135 C 0.30655 0.18535 0.22716 0.0
O136 O 0.32345 0.10595 0.22668 0.0
O137 O 0.26405 0.08174 0.23299 0.0
O138 O 0.36891 0.18958 0.25594 0.0
O139 O 0.31574 0.13942 0.25641 0.0
Co140 Co 0.19892 0.35036 0.40729 0.0
O141 O 0.24579 0.37581 0.41736 0.0
O142 O 0.23048 0.39478 0.39592 0.0
C143 C 0.16571 0.33857 0.42949 0.0
O144 O 0.153 0.33227 0.39394 0.0
Co145 Co 0.14522 0.26897 0.41456 0.0
O146 O 0.10949 0.27879 0.40374 0.0
C147 C 0.20668 0.28858 0.39279 0.0
C148 C 0.25494 0.40048 0.40653 0.0
C149 C 0.11979 0.30592 0.3945 0.0
O150 O 0.21569 0.32237 0.39381 0.0
O151 O 0.18077 0.26338 0.40085 0.0
O152 O 0.17897 0.37004 0.42259 0.0
O153 O 0.1756 0.31672 0.42362 0.0
Co154 Co 0.84351 0.1987 0.57321 0.0
O155 O 0.86706 0.24584 0.5832 0.0
O156 O 0.83009 0.23069 0.56265 0.0
C157 C 0.824 0.16559 0.59552 0.0
O158 O 0.81334 0.15299 0.56 0.0
Co159 Co 0.86974 0.14308 0.57887 0.0
O160 O 0.82381 0.10851 0.56804 0.0
C161 C 0.9111 0.20523 0.55731 0.0
C162 C 0.85037 0.25513 0.57298 0.0
C163 C 0.80638 0.11971 0.55968 0.0
O164 O 0.88659 0.21452 0.55874 0.0
O165 O 0.91054 0.17911 0.56515 0.0
O166 O 0.80585 0.17982 0.58942 0.0
O167 O 0.85472 0.17447 0.58884 0.0
H168 H 0.10958 0.68676 0.09613 0.0
H169 H 0.10823 0.62864 0.09812 0.0
H170 H 0.16869 0.6516 0.05474 0.0
H171 H 0.17088 0.71042 0.05284 0.0
H172 H 0.08018 0.56973 0.07882 0.0
H173 H 0.22968 0.629 0.08463 0.0
H174 H 0.2079 0.65616 0.08617 0.0
H175 H 0.21615 0.64303 0.06716 0.0
C176 C 0.12258 0.67949 0.08698 0.0
C177 C 0.1406 0.70334 0.07438 0.0
C178 C 0.12175 0.64621 0.08814 0.0
C179 C 0.13891 0.63603 0.07674 0.0
C180 C 0.15601 0.65928 0.06388 0.0
H181 H 0.10685 0.41857 0.06426 0.0
H182 H 0.10545 0.47533 0.06231 0.0
C183 C 0.15703 0.69276 0.06274 0.0
C184 C 0.13878 0.60109 0.07844 0.0
H185 H 0.19448 0.56475 0.08203 0.0
C186 C 0.10517 0.56863 0.07954 0.0
C187 C 0.17141 0.59976 0.07966 0.0
C188 C 0.20835 0.63385 0.0795 0.0
C189 C 0.10327 0.53483 0.08162 0.0
C190 C 0.13588 0.53338 0.0823 0.0
C191 C 0.1695 0.56588 0.0814 0.0
C192 C 0.13582 0.49843 0.08379 0.0
C193 C 0.06635 0.50112 0.08339 0.0
C194 C 0.15399 0.49276 0.09636 0.0
C195 C 0.15516 0.46039 0.09743 0.0
C196 C 0.13825 0.43317 0.08592 0.0
C197 C 0.11992 0.43887 0.0734 0.0
C198 C 0.1189 0.47125 0.07231 0.0
H199 H 0.04542 0.50795 0.08725 0.0
H200 H 0.05765 0.4871 0.07185 0.0
H201 H 0.0672 0.48187 0.09203 0.0
H202 H 0.16739 0.51347 0.10532 0.0
H203 H 0.16958 0.45685 0.10719 0.0
H204 H 0.71181 0.17476 0.27476 0.0
H205 H 0.65307 0.17286 0.27318 0.0
H206 H 0.62891 0.11223 0.2298 0.0
H207 H 0.68688 0.11334 0.23145 0.0
H208 H 0.62787 0.20018 0.2502 0.0
H209 H 0.53711 0.05083 0.25507 0.0
H210 H 0.58504 0.073 0.2597 0.0
H211 H 0.56997 0.06345 0.23956 0.0
C212 C 0.69381 0.16076 0.26497 0.0
C213 C 0.7039 0.14403 0.25328 0.0
C214 C 0.66031 0.15974 0.26406 0.0
C215 C 0.63635 0.14189 0.2515 0.0
C216 C 0.64653 0.12539 0.2398 0.0
H217 H 0.45877 0.17451 0.21995 0.0
H218 H 0.51596 0.17361 0.22243 0.0
C219 C 0.67983 0.12625 0.24072 0.0
C220 C 0.60128 0.1416 0.25025 0.0
H221 H 0.50951 0.08503 0.24647 0.0
C222 C 0.60195 0.17502 0.24949 0.0
C223 C 0.56746 0.10874 0.24948 0.0
C224 C 0.56471 0.07197 0.25115 0.0
C225 C 0.56976 0.17649 0.24768 0.0
C226 C 0.5361 0.14363 0.24626 0.0
C227 C 0.53538 0.11021 0.24732 0.0
C228 C 0.50111 0.14325 0.24429 0.0
C229 C 0.57209 0.21321 0.24761 0.0
C230 C 0.47327 0.12533 0.25542 0.0
C231 C 0.44051 0.12541 0.25393 0.0
C232 C 0.43486 0.1434 0.24126 0.0
C233 C 0.46241 0.16063 0.2299 0.0
C234 C 0.4952 0.16038 0.23137 0.0
H235 H 0.5979 0.2346 0.25297 0.0
H236 H 0.57115 0.22134 0.23528 0.0
H237 H 0.54889 0.21224 0.25411 0.0
H238 H 0.47714 0.11177 0.26544 0.0
H239 H 0.41983 0.11182 0.26288 0.0
H240 H 0.57537 0.68718 0.39744 0.0
H241 H 0.51867 0.62927 0.3946 0.0
H242 H 0.47833 0.65018 0.43765 0.0
H243 H 0.53482 0.70873 0.44039 0.0
H244 H 0.48604 0.56927 0.41325 0.0
H245 H 0.39711 0.62986 0.40678 0.0
H246 H 0.44613 0.65677 0.40586 0.0
H247 H 0.42343 0.64306 0.42459 0.0
C248 C 0.55449 0.67947 0.40634 0.0
C249 C 0.55947 0.70268 0.41909 0.0
C250 C 0.52208 0.64633 0.40469 0.0
C251 C 0.49397 0.6357 0.41574 0.0
C252 C 0.4993 0.65825 0.42877 0.0
H253 H 0.30849 0.41998 0.42843 0.0
H254 H 0.36691 0.47643 0.4298 0.0
C255 C 0.5317 0.69156 0.43039 0.0
C256 C 0.45917 0.60102 0.41355 0.0
H257 H 0.36737 0.56547 0.40955 0.0
C258 C 0.46009 0.56844 0.4124 0.0
C259 C 0.42542 0.60005 0.4121 0.0
C260 C 0.42286 0.63432 0.41224 0.0
C261 C 0.42811 0.53482 0.41019 0.0
C262 C 0.3942 0.53368 0.40944 0.0
C263 C 0.39335 0.56634 0.41025 0.0
C264 C 0.35917 0.49886 0.40821 0.0
C265 C 0.43106 0.50094 0.40845 0.0
C266 C 0.33496 0.49294 0.39577 0.0
C267 C 0.30123 0.46072 0.39502 0.0
C268 C 0.29112 0.43395 0.40675 0.0
C269 C 0.31553 0.43992 0.41913 0.0
C270 C 0.34909 0.47212 0.4199 0.0
H271 H 0.45867 0.50757 0.40447 0.0
H272 H 0.426 0.48712 0.42004 0.0
H273 H 0.4107 0.48161 0.39993 0.0
H274 H 0.34212 0.51334 0.38666 0.0
H275 H 0.28298 0.45696 0.38536 0.0
H276 H 0.90208 0.58315 0.5722 0.0
H277 H 0.90362 0.5264 0.57027 0.0
H278 H 0.808 0.47254 0.59963 0.0
H279 H 0.80726 0.52978 0.60214 0.0
H280 H 0.85497 0.45133 0.60728 0.0
H281 H 0.8385 0.44285 0.5425 0.0
H282 H 0.87818 0.48411 0.54857 0.0
H283 H 0.83363 0.47578 0.5541 0.0
C284 C 0.88149 0.55925 0.57831 0.0
C285 C 0.85435 0.56079 0.58721 0.0
C286 C 0.88222 0.52674 0.57709 0.0
C287 C 0.85529 0.49488 0.58441 0.0
C288 C 0.82887 0.49667 0.59375 0.0
H289 H 0.80555 0.27592 0.55901 0.0
H290 H 0.80678 0.33395 0.5621 0.0
C291 C 0.82849 0.52939 0.59519 0.0
C292 C 0.85462 0.45971 0.58229 0.0
H293 H 0.8538 0.40132 0.55437 0.0
C294 C 0.85454 0.4403 0.59571 0.0
C295 C 0.85338 0.44494 0.56719 0.0
C296 C 0.85052 0.4628 0.55229 0.0
C297 C 0.85376 0.40686 0.59446 0.0
C298 C 0.8543 0.39298 0.57936 0.0
C299 C 0.85389 0.41216 0.56594 0.0
C300 C 0.85438 0.35819 0.57717 0.0
C301 C 0.85136 0.38637 0.60938 0.0
C302 C 0.88122 0.35274 0.58427 0.0
C303 C 0.88022 0.31941 0.58271 0.0
C304 C 0.85287 0.29118 0.5737 0.0
C305 C 0.82696 0.29718 0.56603 0.0
C306 C 0.82762 0.33032 0.5678 0.0
H307 H 0.83988 0.39463 0.61926 0.0
H308 H 0.8342 0.35649 0.60768 0.0
H309 H 0.87911 0.39256 0.61287 0.0
H310 H 0.90288 0.3742 0.59111 0.0
H311 H 0.90082 0.31572 0.58861 0.0
H312 H 0.57783 0.89532 0.75466 0.0
H313 H 0.5197 0.89381 0.75713 0.0
H314 H 0.46816 0.79729 0.7282 0.0
H315 H 0.52673 0.79949 0.72519 0.0
H316 H 0.44453 0.84237 0.72051 0.0
H317 H 0.43759 0.82689 0.78529 0.0
H318 H 0.4782 0.86721 0.77917 0.0
H319 H 0.47104 0.82307 0.77361 0.0
C320 C 0.55415 0.87386 0.74876 0.0
C321 C 0.55675 0.84736 0.73982 0.0
C322 C 0.52084 0.87283 0.75031 0.0
C323 C 0.48929 0.84481 0.74325 0.0
C324 C 0.49207 0.81896 0.73389 0.0
H325 H 0.27 0.79851 0.7686 0.0
H326 H 0.32665 0.79661 0.76585 0.0
C327 C 0.52554 0.82028 0.73214 0.0
C328 C 0.45356 0.84279 0.74549 0.0
H329 H 0.39564 0.84222 0.77358 0.0
C330 C 0.43372 0.84206 0.73212 0.0
C331 C 0.43901 0.84159 0.76063 0.0
C332 C 0.45738 0.83932 0.77548 0.0
C333 C 0.40031 0.84122 0.73347 0.0
C334 C 0.38689 0.84233 0.74861 0.0
C335 C 0.40618 0.84196 0.76198 0.0
C336 C 0.35308 0.84419 0.7508 0.0
C337 C 0.37952 0.83858 0.71862 0.0
C338 C 0.34952 0.87215 0.74369 0.0
C339 C 0.31715 0.87299 0.74508 0.0
C340 C 0.28793 0.84636 0.75393 0.0
C341 C 0.29207 0.81937 0.76169 0.0
C342 C 0.32438 0.81823 0.7601 0.0
H343 H 0.387 0.82616 0.70885 0.0
H344 H 0.34965 0.82214 0.72053 0.0
H345 H 0.38631 0.86635 0.71485 0.0
H346 H 0.37171 0.89321 0.73692 0.0
H347 H 0.31494 0.89444 0.73913 0.0
H348 H 0.45955 0.2833 0.9407 0.0
H349 H 0.51631 0.34185 0.93847 0.0
H350 H 0.47721 0.36502 0.89557 0.0
H351 H 0.42033 0.30718 0.89788 0.0
H352 H 0.56703 0.36556 0.9149 0.0
H353 H 0.51036 0.458 0.9203 0.0
H354 H 0.4844 0.41022 0.92521 0.0
H355 H 0.48922 0.4247 0.905 0.0
C356 C 0.46292 0.30107 0.93089 0.0
C357 C 0.43538 0.2907 0.91952 0.0
C358 C 0.49537 0.33445 0.92961 0.0
C359 C 0.50079 0.35804 0.91697 0.0
C360 C 0.47332 0.34769 0.90561 0.0
H361 H 0.71283 0.53616 0.88619 0.0
H362 H 0.65436 0.47905 0.88783 0.0
C363 C 0.44086 0.31447 0.90692 0.0
C364 C 0.5357 0.39285 0.91531 0.0
H365 H 0.57198 0.48487 0.91184 0.0
C366 C 0.56817 0.39169 0.91429 0.0
C367 C 0.53713 0.42692 0.91464 0.0
C368 C 0.50347 0.43019 0.9165 0.0
C369 C 0.60202 0.42363 0.91251 0.0
C370 C 0.60333 0.4576 0.91137 0.0
C371 C 0.57088 0.45877 0.91251 0.0
C372 C 0.63825 0.49247 0.90988 0.0
C373 C 0.6361 0.42076 0.91225 0.0
C374 C 0.64803 0.51943 0.92142 0.0
C375 C 0.68106 0.5521 0.92042 0.0
C376 C 0.70509 0.55856 0.90783 0.0
C377 C 0.69501 0.53186 0.89609 0.0
C378 C 0.66174 0.49914 0.89706 0.0
H379 H 0.63126 0.39443 0.9172 0.0
H380 H 0.64534 0.42255 0.89989 0.0
H381 H 0.65836 0.44331 0.91902 0.0
H382 H 0.63029 0.51496 0.93138 0.0
H383 H 0.68794 0.5721 0.92966 0.0
H384 H 0.3409 0.20543 0.19859 0.0
H385 H 0.33022 0.23859 0.17762 0.0
H386 H 0.26007 0.25671 0.20852 0.0
H387 H 0.26969 0.22261 0.22932 0.0
H388 H 0.22636 0.22547 0.18211 0.0
H389 H 0.36128 0.34258 0.16685 0.0
H390 H 0.36098 0.3001 0.1665 0.0
H391 H 0.35342 0.31675 0.18478 0.0
C392 C 0.32397 0.21731 0.20104 0.0
C393 C 0.30589 0.21114 0.21557 0.0
C394 C 0.31804 0.23648 0.18906 0.0
C395 C 0.29454 0.25045 0.1915 0.0
C396 C 0.2783 0.2462 0.20634 0.0
H397 H 0.21196 0.35108 0.1255 0.0
H398 H 0.24418 0.34259 0.14764 0.0
C399 C 0.2838 0.22665 0.21822 0.0
C400 C 0.2829 0.26491 0.17813 0.0
H401 H 0.31357 0.32597 0.14767 0.0
C402 C 0.24549 0.24781 0.17476 0.0
C403 C 0.30778 0.29406 0.16847 0.0
C404 C 0.34807 0.31467 0.17192 0.0
C405 C 0.23239 0.25832 0.16181 0.0
C406 C 0.2573 0.2864 0.15184 0.0
C407 C 0.29463 0.30426 0.15533 0.0
C408 C 0.24443 0.29601 0.13742 0.0
C409 C 0.19193 0.23893 0.15866 0.0
C410 C 0.23499 0.27326 0.12423 0.0
C411 C 0.21653 0.27788 0.11162 0.0
C412 C 0.20709 0.30536 0.11199 0.0
C413 C 0.21876 0.32964 0.12482 0.0
C414 C 0.23722 0.32491 0.13748 0.0
H415 H 0.17591 0.22093 0.16858 0.0
H416 H 0.18284 0.25902 0.15653 0.0
H417 H 0.18583 0.22201 0.1479 0.0
H418 H 0.24033 0.25078 0.12403 0.0
H419 H 0.2083 0.25887 0.10189 0.0
H420 H 0.94496 0.20173 0.26962 0.0
H421 H 0.98591 0.23309 0.29157 0.0
H422 H 0.90192 0.24523 0.31447 0.0
H423 H 0.8604 0.21376 0.29249 0.0
H424 H 0.98222 0.3096 0.31588 0.0
H425 H 0.95726 0.17336 0.33495 0.0
H426 H 0.96939 0.18473 0.31461 0.0
H427 H 0.92699 0.17898 0.32176 0.0
C428 C 0.93523 0.21155 0.27916 0.0
C429 C 0.89912 0.2047 0.27937 0.0
C430 C 0.95877 0.22957 0.29168 0.0
C431 C 0.94676 0.24109 0.30466 0.0
C432 C 0.91162 0.2365 0.30452 0.0
H433 H 0.04569 0.26628 0.39635 0.0
H434 H 0.00191 0.25568 0.37546 0.0
C435 C 0.88795 0.21847 0.29195 0.0
C436 C 0.96957 0.25407 0.31899 0.0
H437 H 0.00326 0.22442 0.34835 0.0
C438 C 0.98672 0.29107 0.32309 0.0
C439 C 0.9749 0.22965 0.32843 0.0
C440 C 0.956 0.18938 0.32486 0.0
C441 C 0.01001 0.30447 0.33624 0.0
C442 C 0.01642 0.2802 0.34533 0.0
C443 C -0.00158 0.24306 0.34138 0.0
C444 C 0.04224 0.29227 0.35879 0.0
C445 C 0.0273 0.34433 0.34032 0.0
C446 C 0.07943 0.31725 0.35655 0.0
C447 C 0.10459 0.32362 0.36856 0.0
C448 C 0.09302 0.30462 0.38291 0.0
C449 C 0.05555 0.28111 0.38538 0.0
C450 C 0.03046 0.27506 0.37346 0.0
H451 H 0.0116 0.35658 0.33536 0.0
H452 H 0.02948 0.34848 0.35327 0.0
H453 H 0.05516 0.35911 0.33527 0.0
H454 H 0.08931 0.33028 0.34523 0.0
H455 H 0.13328 0.34173 0.36624 0.0
H456 H 0.77593 0.04566 0.55862 0.0
H457 H 0.74279 0.00537 0.53667 0.0
H458 H 0.74534 0.09527 0.5118 0.0
H459 H 0.7785 0.13605 0.53375 0.0
H460 H 0.67211 0.00216 0.51435 0.0
H461 H 0.81014 0.04586 0.48996 0.0
H462 H 0.80285 0.04234 0.51097 0.0
H463 H 0.80096 0.07771 0.5002 0.0
C464 C 0.76877 0.05681 0.54866 0.0
C465 C 0.78028 0.09422 0.54788 0.0
C466 C 0.74966 0.03366 0.53617 0.0
C467 C 0.74175 0.04745 0.52268 0.0
C468 C 0.75106 0.08418 0.52221 0.0
H469 H 0.71399 0.94788 0.43082 0.0
H470 H 0.72206 0.99129 0.45152 0.0
C471 C 0.77003 0.10741 0.53476 0.0
C472 C 0.72864 0.02465 0.50837 0.0
H473 H 0.76013 -0.00058 0.47669 0.0
C474 C 0.69117 0.00169 0.50598 0.0
C475 C 0.7537 0.0244 0.49752 0.0
C476 C 0.79423 0.04883 0.49966 0.0
C477 C 0.67808 0.97794 0.49298 0.0
C478 C 0.70328 0.97667 0.4824 0.0
C479 C 0.74074 0.00037 0.48472 0.0
C480 C 0.6921 0.95016 0.46919 0.0
C481 C 0.6375 0.95472 0.49068 0.0
C482 C 0.67155 0.91247 0.47203 0.0
C483 C 0.66635 0.88755 0.46009 0.0
C484 C 0.68237 0.89992 0.44522 0.0
C485 C 0.70151 0.93756 0.4422 0.0
C486 C 0.70613 0.96239 0.45402 0.0
H487 H 0.62281 0.96752 0.49614 0.0
H488 H 0.63024 0.94999 0.478 0.0
H489 H 0.62783 0.92795 0.49647 0.0
H490 H 0.66124 0.90226 0.4837 0.0
H491 H 0.65181 0.85872 0.46282 0.0
H492 H 0.78673 0.65027 0.62658 0.0
H493 H 0.75494 0.66116 0.64805 0.0
H494 H 0.74646 0.74107 0.61968 0.0
H495 H 0.77886 0.73096 0.59832 0.0
H496 H 0.77916 0.7685 0.6474 0.0
H497 H 0.65165 0.63787 0.65783 0.0
H498 H 0.69165 0.6335 0.65754 0.0
H499 H 0.67792 0.6471 0.63995 0.0
C500 C 0.77725 0.66946 0.62475 0.0
C501 C 0.78566 0.69001 0.61078 0.0
C502 C 0.75889 0.67553 0.63703 0.0
C503 C 0.74812 0.7018 0.63546 0.0
C504 C 0.75452 0.72067 0.62116 0.0
H505 H 0.64401 0.77667 0.7025 0.0
H506 H 0.65482 0.74567 0.68059 0.0
C507 C 0.7731 0.71488 0.60896 0.0
C508 C 0.7348 0.71325 0.64927 0.0
H509 H 0.66975 0.68308 0.67807 0.0
C510 C 0.75504 0.74982 0.654 0.0
C511 C 0.70329 0.68892 0.65788 0.0
C512 C 0.67964 0.64973 0.65297 0.0
C513 C 0.74508 0.76263 0.6672 0.0
C514 C 0.71437 0.7381 0.67613 0.0
C515 C 0.69354 0.70167 0.67128 0.0
C516 C 0.70402 0.75046 0.69052 0.0
C517 C 0.76749 0.80247 0.67147 0.0
C518 C 0.72728 0.76198 0.70361 0.0
C519 C 0.72132 0.77978 0.7161 0.0
C520 C 0.69185 0.7863 0.71576 0.0
C521 C 0.66702 0.77222 0.70314 0.0
C522 C 0.67311 0.75447 0.69061 0.0
H523 H 0.78509 0.81907 0.66157 0.0
H524 H 0.74966 0.81351 0.67498 0.0
H525 H 0.78534 0.80555 0.68161 0.0
H526 H 0.75107 0.75875 0.70382 0.0
H527 H 0.74077 0.78982 0.72569 0.0
H528 H 0.94606 0.7427 0.89221 0.0
H529 H 0.98693 0.75358 0.87007 0.0
H530 H 0.90222 0.65975 0.84611 0.0
H531 H 0.86098 0.64829 0.86832 0.0
H532 H 0.97626 0.67087 0.84273 0.0
H533 H 0.9657 0.79344 0.82895 0.0
H534 H 0.97965 0.79178 0.84877 0.0
H535 H 0.93484 0.75834 0.84227 0.0
C536 C 0.93618 0.72396 0.88237 0.0
C537 C 0.9 0.69492 0.88196 0.0
C538 C 0.95962 0.73027 0.86972 0.0
C539 C 0.94734 0.70786 0.85636 0.0
C540 C 0.91212 0.67743 0.85631 0.0
H541 H 0.04638 0.78788 0.76516 0.0
H542 H 0.00241 0.75594 0.78612 0.0
C543 C 0.8886 0.67095 0.86902 0.0
C544 C 0.97015 0.71832 0.84199 0.0
H545 H 0.00909 0.78582 0.81451 0.0
C546 C 0.98337 0.69588 0.83648 0.0
C547 C 0.97878 0.75063 0.83372 0.0
C548 C 0.96378 0.77483 0.8386 0.0
C549 C 0.00593 0.70552 0.8231 0.0
C550 C 0.01571 0.73862 0.81521 0.0
C551 C 0.00171 0.76051 0.82057 0.0
C552 C 0.0409 0.75189 0.80154 0.0
C553 C 0.01874 0.68008 0.81745 0.0
C554 C 0.077 0.75936 0.80303 0.0
C555 C 0.10223 0.77741 0.79097 0.0
C556 C 0.09192 0.78886 0.77732 0.0
C557 C 0.05532 0.77972 0.77556 0.0
C558 C 0.03011 0.76141 0.78753 0.0
H559 H 0.00063 0.65179 0.82168 0.0
H560 H 0.01998 0.67982 0.8044 0.0
H561 H 0.04647 0.6894 0.82213 0.0
H562 H 0.08619 0.75299 0.81385 0.0
H563 H 0.13024 0.78423 0.79275 0.0
H564 H 0.22203 0.94883 0.06323 0.0
H565 H 0.25505 0.99227 0.04216 0.0
H566 H 0.23656 0.90375 0.01139 0.0
H567 H 0.20425 0.86006 0.03257 0.0
H568 H 0.30572 0.96754 0.007 0.0
H569 H 0.1923 -0.00221 0.00686 0.0
H570 H 0.21527 0.00539 0.02542 0.0
H571 H 0.18993 0.95995 0.01762 0.0
C572 C 0.22556 0.93862 0.05207 0.0
C573 C 0.21004 0.90096 0.04949 0.0
C574 C 0.24438 0.96348 0.04004 0.0
C575 C 0.24747 0.95115 0.02511 0.0
C576 C 0.23432 0.91381 0.02281 0.0
H577 H 0.26021 0.04682 0.93518 0.0
H578 H 0.25112 0.00583 0.95705 0.0
C579 C 0.21585 0.88888 0.03493 0.0
C580 C 0.2609 0.97663 0.01155 0.0
H581 H 0.24094 0.03177 0.98945 0.0
C582 C 0.29173 0.98175 0.00319 0.0
C583 C 0.24223 0.99474 0.00647 0.0
C584 C 0.20791 0.98903 0.01444 0.0
C585 C 0.30448 0.0048 0.98994 0.0
C586 C 0.28589 0.02296 0.98503 0.0
C587 C 0.25521 0.01789 0.99338 0.0
C588 C 0.29631 0.04606 0.97077 0.0
C589 C 0.33708 0.00906 0.98101 0.0
C590 C 0.3254 0.08207 0.9711 0.0
C591 C 0.33068 0.10581 0.95859 0.0
C592 C 0.3067 0.09388 0.94564 0.0
C593 C 0.27899 0.05709 0.945 0.0
C594 C 0.27379 0.03351 0.95747 0.0
H595 H 0.34735 0.99147 0.98582 0.0
H596 H 0.32988 0.00216 0.96842 0.0
H597 H 0.3593 0.0379 0.98156 0.0
H598 H 0.34281 0.09229 0.98137 0.0
H599 H 0.35224 0.13394 0.95948 0.0
H600 H 0.23011 0.37898 0.04744 0.0
H601 H 0.25347 0.36074 0.02491 0.0
H602 H 0.16179 0.25161 0.02797 0.0
H603 H 0.1382 0.26958 0.05046 0.0
H604 H 0.23368 0.25812 0.02535 0.0
H605 H 0.20695 0.33613 0.97966 0.0
H606 H 0.23088 0.36088 -0.00298 0.0
H607 H 0.18442 0.3249 -0.00143 0.0
C608 C 0.21493 0.3511 0.04331 0.0
C609 C 0.18227 0.32572 0.05068 0.0
C610 C 0.22822 0.3408 0.03041 0.0
C611 C 0.20912 0.30496 0.02471 0.0
C612 C 0.1768 0.27945 0.03217 0.0
H613 H 0.22456 0.20226 0.93993 0.0
H614 H 0.2068 0.22855 0.96139 0.0
C615 C 0.16337 0.28977 0.045 0.0
C616 C 0.22304 0.29379 0.0111 0.0
H617 H 0.23732 0.30499 0.97141 0.0
C618 C 0.23464 0.26843 0.01356 0.0
C619 C 0.2239 0.30714 0.99575 0.0
C620 C 0.21066 0.33358 0.99246 0.0
C621 C 0.24723 0.2561 0.00104 0.0
C622 C 0.24842 0.26969 0.9857 0.0
C623 C 0.23667 0.29494 0.98322 0.0
C624 C 0.26029 0.25663 0.97202 0.0
C625 C 0.25839 0.22799 0.00421 0.0
C626 C 0.29651 0.2646 0.97068 0.0
C627 C 0.30687 0.24974 0.95839 0.0
C628 C 0.2811 0.22652 0.94725 0.0
C629 C 0.24511 0.21982 0.94833 0.0
C630 C 0.23487 0.23485 0.96057 0.0
H631 H 0.24968 0.21552 0.01607 0.0
H632 H 0.2466 0.20604 0.99523 0.0
H633 H 0.28849 0.24113 0.00352 0.0
H634 H 0.31661 0.28174 0.97932 0.0
H635 H 0.33483 0.25561 0.95793 0.0
H636 H 0.86143 0.23809 0.21876 0.0
H637 H 0.90212 0.26044 0.1959 0.0
H638 H 0.89367 0.15525 0.19082 0.0
H639 H 0.85316 0.13272 0.2137 0.0
H640 H 0.97123 0.25853 0.19187 0.0
H641 H 0.86568 0.18057 0.14661 0.0
H642 H 0.8546 0.19006 0.16593 0.0
H643 H 0.86642 0.15517 0.16346 0.0
C644 C 0.86825 0.21973 0.21278 0.0
C645 C 0.85403 0.18361 0.21798 0.0
C646 C 0.89147 0.23254 0.19974 0.0
C647 C 0.90046 0.20933 0.1916 0.0
C648 C 0.88661 0.1734 0.19685 0.0
H649 H 0.02865 0.21963 0.11154 0.0
H650 H 0.98523 0.20281 0.1331 0.0
C651 C 0.86363 0.16064 0.20995 0.0
C652 C 0.92482 0.22279 0.17775 0.0
H653 H 0.92703 0.21177 0.13805 0.0
C654 C 0.96164 0.2486 0.18006 0.0
C655 C 0.91205 0.2096 0.16244 0.0
C656 C 0.87248 0.1825 0.15934 0.0
C657 C 0.98644 0.26077 0.16748 0.0
C658 C 0.97375 0.24745 0.15211 0.0
C659 C 0.93671 0.22204 0.14981 0.0
C660 C -0.00124 0.25811 0.13842 0.0
C661 C 0.0262 0.28663 0.17088 0.0
C662 C 0.02015 0.29477 0.13393 0.0
C663 C 0.04533 0.30459 0.12164 0.0
C664 C 0.04921 0.27785 0.11346 0.0
C665 C 0.02651 0.24101 0.11756 0.0
C666 C 0.00162 0.23129 0.12991 0.0
H667 H 0.03266 0.2867 0.18357 0.0
H668 H 0.04385 0.27939 0.16393 0.0
H669 H 0.03302 0.31471 0.16763 0.0
H670 H 0.0177 0.31584 0.14005 0.0
H671 H 0.06208 0.33318 0.11871 0.0
H672 H 0.78627 0.01609 0.273 0.0
H673 H 0.75881 0.97218 0.29444 0.0
H674 H 0.70749 0.03098 0.31196 0.0
H675 H 0.73485 0.07521 0.29059 0.0
H676 H 0.74896 0.01728 0.33465 0.0
H677 H 0.65177 0.89179 0.30244 0.0
H678 H 0.69719 0.91507 0.29456 0.0
H679 H 0.67011 0.93682 0.29408 0.0
C680 C 0.76872 0.01948 0.28125 0.0
C681 C 0.7629 0.04933 0.28005 0.0
C682 C 0.75291 0.99421 0.29347 0.0
C683 C 0.73093 -0.00179 0.3047 0.0
C684 C 0.72428 0.02737 0.30335 0.0
H685 H 0.61122 0.84746 0.38109 0.0
H686 H 0.62878 0.88912 0.35858 0.0
C687 C 0.7399 0.05257 0.29109 0.0
C688 C 0.71718 0.97355 0.3185 0.0
H689 H 0.66365 0.88446 0.32922 0.0
C690 C 0.7301 0.98828 0.33349 0.0
C691 C 0.69243 0.93581 0.31693 0.0
C692 C 0.67675 0.91886 0.30116 0.0
C693 C 0.71965 0.96606 0.34694 0.0
C694 C 0.69585 0.92817 0.34531 0.0
C695 C 0.68213 0.91354 0.33038 0.0
C696 C 0.68536 0.90322 0.35896 0.0
C697 C 0.7341 0.98322 0.36281 0.0
C698 C 0.71136 0.89726 0.36652 0.0
C699 C 0.70141 0.87338 0.37931 0.0
C700 C 0.66528 0.85516 0.38478 0.0
C701 C 0.6393 0.86123 0.37718 0.0
C702 C 0.64923 0.88491 0.36431 0.0
H703 H 0.74573 0.01323 0.36252 0.0
H704 H 0.71223 0.97144 0.37183 0.0
H705 H 0.75592 0.97756 0.3665 0.0
H706 H 0.73931 0.91087 0.36244 0.0
H707 H 0.72202 0.8692 0.3849 0.0
H708 H 0.75776 0.61863 0.55068 0.0
H709 H 0.7345 0.6364 0.5279 0.0
H710 H 0.83782 0.73552 0.52333 0.0
H711 H 0.86123 0.71813 0.5461 0.0
H712 H 0.73316 0.70557 0.52458 0.0
H713 H 0.81489 0.68548 0.47868 0.0
H714 H 0.80621 0.664 0.49781 0.0
H715 H 0.83971 0.71131 0.49567 0.0
C716 C 0.77554 0.64417 0.5448 0.0
C717 C 0.81135 0.66695 0.55013 0.0
C718 C 0.76221 0.65425 0.53181 0.0
C719 C 0.78462 0.68701 0.52386 0.0
C720 C 0.8203 0.70987 0.5292 0.0
H721 H 0.77259 0.80981 0.44617 0.0
H722 H 0.78965 0.7821 0.46722 0.0
C723 C 0.83356 0.69997 0.54224 0.0
C724 C 0.77055 0.69792 0.5102 0.0
H725 H 0.78273 0.7153 0.47077 0.0
C726 C 0.74366 0.7074 0.51276 0.0
C727 C 0.7845 0.70034 0.49487 0.0
C728 C 0.81273 0.6895 0.49148 0.0
C729 C 0.73123 0.72056 0.50046 0.0
C730 C 0.74543 0.72333 0.4851 0.0
C731 C 0.77183 0.71311 0.48252 0.0
C732 C 0.73469 0.73857 0.47174 0.0
C733 C 0.70418 0.7328 0.50418 0.0
C734 C 0.69817 0.72279 0.46697 0.0
C735 C 0.6882 0.73877 0.45498 0.0
C736 C 0.71467 0.77058 0.44737 0.0
C737 C 0.75142 0.78538 0.45175 0.0
C738 C 0.76128 0.76956 0.46381 0.0
H739 H 0.70325 0.73763 0.51698 0.0
H740 H 0.7109 0.75822 0.49774 0.0
H741 H 0.67657 0.71129 0.50051 0.0
H742 H 0.67731 0.6983 0.47264 0.0
H743 H 0.6597 0.7264 0.45181 0.0
H744 H 0.14296 0.86392 0.71319 0.0
H745 H 0.10132 0.84239 0.6907 0.0
H746 H 0.08957 0.73565 0.69547 0.0
H747 H 0.13199 0.75729 0.71771 0.0
H748 H 0.09941 0.758 0.665 0.0
H749 H 0.992 0.77837 0.69211 0.0
H750 H 0.03573 0.81909 0.69196 0.0
H751 H 0.02909 0.78042 0.70337 0.0
C752 C 0.13141 0.83583 0.70947 0.0
C753 C 0.14058 0.81223 0.71724 0.0
C754 C 0.10745 0.82351 0.69669 0.0
C755 C 0.09178 0.78722 0.69159 0.0
C756 C 0.10118 0.7637 0.69925 0.0
H757 H 0.92986 0.66238 0.61969 0.0
H758 H 0.97437 0.68114 0.64112 0.0
C759 C 0.12537 0.77609 0.71197 0.0
C760 C 0.06613 0.77398 0.6781 0.0
H761 H 0.98655 0.76598 0.66457 0.0
C762 C 0.07459 0.75948 0.66495 0.0
C763 C 0.03364 0.77574 0.67809 0.0
C764 C 0.02184 0.7889 0.6922 0.0
C765 C 0.05187 0.74757 0.65164 0.0
C766 C 0.01995 0.75019 0.65153 0.0
C767 C 0.01126 0.76429 0.6647 0.0
C768 C 0.99525 0.73883 0.63779 0.0
C769 C 0.0624 0.73299 0.63763 0.0
C770 C 0.99255 0.76513 0.62882 0.0
C771 C 0.96734 0.75461 0.61654 0.0
C772 C 0.94397 0.71748 0.61313 0.0
C773 C 0.94736 0.69119 0.62198 0.0
C774 C 0.97283 0.70182 0.6342 0.0
H775 H 0.0905 0.73751 0.6387 0.0
H776 H 0.04323 0.70326 0.63658 0.0
H777 H 0.06042 0.74609 0.62664 0.0
H778 H 0.0096 0.79383 0.63148 0.0
H779 H 0.96552 0.77564 0.61005 0.0
H780 H 0.26975 0.11184 0.89022 0.0
H781 H 0.25162 0.06949 0.86806 0.0
H782 H 0.36359 0.12105 0.85268 0.0
H783 H 0.382 0.16163 0.87548 0.0
H784 H 0.25286 0.07848 0.83861 0.0
H785 H 0.34094 0.01928 0.85022 0.0
H786 H 0.33607 0.04853 0.86418 0.0
H787 H 0.36747 0.06771 0.84794 0.0
C788 C 0.29049 0.1138 0.88219 0.0
C789 C 0.32729 0.13969 0.88461 0.0
C790 C 0.28014 0.08965 0.8695 0.0
C791 C 0.3063 0.09143 0.8588 0.0
C792 C 0.34301 0.11806 0.86103 0.0
H793 H 0.23415 0.98734 0.76646 0.0
H794 H 0.26038 0.03201 0.78777 0.0
C795 C 0.35349 0.1415 0.87399 0.0
C796 C 0.29482 0.06631 0.84506 0.0
H797 H 0.31302 0.00752 0.82488 0.0
C798 C 0.26587 0.06275 0.8357 0.0
C799 C 0.31137 0.04532 0.84131 0.0
C800 C 0.34039 0.04509 0.85155 0.0
C801 C 0.25293 0.03886 0.82282 0.0
C802 C 0.2707 0.01928 0.81859 0.0
C803 C 0.2997 0.02288 0.82793 0.0
C804 C 0.25844 0.99346 0.80508 0.0
C805 C 0.21944 0.03394 0.81433 0.0
C806 C 0.25103 0.95752 0.80733 0.0
C807 C 0.23746 0.93239 0.79499 0.0
C808 C 0.23037 0.94251 0.78023 0.0
C809 C 0.23896 0.97874 0.77779 0.0
C810 C 0.25354 0.00416 0.79002 0.0
H811 H 0.20289 0.04143 0.82194 0.0
H812 H 0.22789 0.05204 0.80387 0.0
H813 H 0.20191 0.00536 0.81038 0.0
H814 H 0.25474 0.94854 0.81877 0.0
H815 H 0.23093 0.9046 0.79723 0.0
H816 H 0.72543 0.84181 0.77107 0.0
H817 H 0.74382 0.81896 0.79371 0.0
H818 H 0.63208 0.76002 0.80949 0.0
H819 H 0.61344 0.78069 0.78626 0.0
H820 H 0.7433 0.82744 0.82316 0.0
H821 H 0.65345 0.68017 0.81234 0.0
H822 H 0.65859 0.7141 0.79819 0.0
H823 H 0.62743 0.70264 0.81449 0.0
C824 C 0.70484 0.8237 0.77932 0.0
C825 C 0.668 0.81261 0.77686 0.0
C826 C 0.71532 0.81069 0.79228 0.0
C827 C 0.68926 0.78697 0.80319 0.0
C828 C 0.65258 0.77704 0.80098 0.0
H829 H 0.76273 0.75503 0.8955 0.0
H830 H 0.73677 0.77427 0.87432 0.0
C831 C 0.64196 0.78914 0.78778 0.0
C832 C 0.70068 0.77344 0.81702 0.0
H833 H 0.68163 0.69661 0.83758 0.0
C834 C 0.72997 0.79877 0.82623 0.0
C835 C 0.6837 0.73596 0.82096 0.0
C836 C 0.65435 0.70667 0.81086 0.0
C837 C 0.74286 0.78779 0.83915 0.0
C838 C 0.72469 0.75053 0.84356 0.0
C839 C 0.69529 0.72523 0.83439 0.0
C840 C 0.73701 0.73681 0.85702 0.0
C841 C 0.77671 0.81621 0.84747 0.0
C842 C 0.74339 0.70761 0.85476 0.0
C843 C 0.75673 0.69561 0.86703 0.0
C844 C 0.76466 0.713 0.88174 0.0
C845 C 0.75721 0.74142 0.88421 0.0
C846 C 0.74281 0.75271 0.87205 0.0
H847 H 0.79333 0.84005 0.83974 0.0
H848 H 0.76872 0.82625 0.85793 0.0
H849 H 0.79403 0.80488 0.85139 0.0
H850 H 0.73903 0.6947 0.84334 0.0
H851 H 0.76243 0.67379 0.86475 0.0
H852 H 0.85448 0.71874 0.94785 0.0
H853 H 0.89539 0.73656 0.97062 0.0
H854 H 0.90284 0.63929 0.96542 0.0
H855 H 0.8618 0.62113 0.94268 0.0
H856 H 0.88349 0.69022 -0.00052 0.0
H857 H 0.0111 0.72843 0.96642 0.0
H858 H 0.97199 0.72709 0.95724 0.0
H859 H 0.97147 0.68546 0.9617 0.0
C860 C 0.86492 0.7012 0.95152 0.0
C861 C 0.85499 0.66856 0.94348 0.0
C862 C 0.88819 0.71138 0.96453 0.0
C863 C 0.90221 0.68932 0.96959 0.0
C864 C 0.89248 0.65679 0.96158 0.0
H865 H 0.06425 0.72792 0.04181 0.0
H866 H 0.01862 0.70038 0.02095 0.0
C867 C 0.86901 0.64645 0.94863 0.0
C868 C 0.92672 0.70019 0.9834 0.0
H869 H 0.01523 0.73241 0.99406 0.0
C870 C 0.9123 0.69939 -0.00166 0.0
C871 C 0.96412 0.71176 0.98183 0.0
C872 C 0.98086 0.71354 0.96595 0.0
C873 C 0.93441 0.70996 0.01183 0.0
C874 C 0.97212 0.72257 0.01024 0.0
C875 C 0.98635 0.72274 0.99528 0.0
C876 C -0.00233 0.7373 0.02375 0.0
C877 C 0.91703 0.70704 0.02767 0.0
C878 C 0.00098 0.76712 0.03231 0.0
C879 C 0.0268 0.78276 0.04431 0.0
C880 C 0.05033 0.76926 0.04788 0.0
C881 C 0.04662 0.73904 0.03941 0.0
C882 C 0.02057 0.72327 0.02746 0.0
H883 H 0.88756 0.68632 0.02752 0.0
H884 H 0.93052 0.69978 0.03706 0.0
H885 H 0.91949 0.73366 0.03067 0.0
H886 H 0.9843 0.77905 0.02941 0.0
H887 H 0.02901 0.80617 0.05045 0.0
H888 H 0.23888 0.85983 0.10917 0.0
H889 H 0.26238 0.9008 0.13195 0.0
H890 H 0.15871 0.8956 0.1371 0.0
H891 H 0.13508 0.85494 0.11433 0.0
H892 H 0.26186 0.9714 0.13565 0.0
H893 H 0.18403 0.86724 0.18143 0.0
H894 H 0.19327 0.85556 0.16218 0.0
H895 H 0.15853 0.86761 0.16454 0.0
C896 C 0.2211 0.86742 0.11516 0.0
C897 C 0.18511 0.85411 0.11001 0.0
C898 C 0.23457 0.89079 0.12815 0.0
C899 C 0.2121 0.90079 0.13626 0.0
C900 C 0.17628 0.88778 0.13108 0.0
H901 H 0.22152 0.03106 0.21503 0.0
H902 H 0.20545 0.98697 0.1938 0.0
C903 C 0.1629 0.86469 0.11804 0.0
C904 C 0.22616 0.92544 0.15001 0.0
H905 H 0.21509 0.92894 0.18963 0.0
C906 C 0.252 0.96218 0.1475 0.0
C907 C 0.21302 0.91316 0.16537 0.0
C908 C 0.18586 0.87369 0.16866 0.0
C909 C 0.26413 0.98741 0.15993 0.0
C910 C 0.25071 0.97523 0.17533 0.0
C911 C 0.22541 0.93823 0.17784 0.0
C912 C 0.26095 0.00076 0.18883 0.0
C913 C 0.28994 0.02708 0.1563 0.0
C914 C 0.29748 0.02256 0.1934 0.0
C915 C 0.30687 0.04812 0.2055 0.0
C916 C 0.27982 0.05199 0.21341 0.0
C917 C 0.24313 0.02894 0.20923 0.0
C918 C 0.23384 0.00366 0.19706 0.0
H919 H 0.29024 0.03307 0.14355 0.0
H920 H 0.28247 0.04491 0.16298 0.0
H921 H 0.31797 0.03413 0.15974 0.0
H922 H 0.31878 0.02011 0.18749 0.0
H923 H 0.33537 0.06514 0.20851 0.0
H924 H 0.27502 0.13498 0.27997 0.0
H925 H 0.25741 0.15787 0.30285 0.0
H926 H 0.35648 0.26135 0.29866 0.0
H927 H 0.37447 0.23865 0.27581 0.0
H928 H 0.30401 0.1905 0.3321 0.0
H929 H 0.26827 0.28266 0.29961 0.0
H930 H 0.26849 0.24451 0.29023 0.0
H931 H 0.31069 0.28481 0.29482 0.0
C932 C 0.29301 0.16265 0.28389 0.0
C933 C 0.32611 0.18505 0.2761 0.0
C934 C 0.28295 0.17562 0.29696 0.0
C935 C 0.30559 0.21129 0.30235 0.0
C936 C 0.33856 0.23381 0.29458 0.0
H937 H 0.26724 0.33326 0.37525 0.0
H938 H 0.29478 0.31551 0.35428 0.0
C939 C 0.34879 0.22078 0.28156 0.0
C940 C 0.29483 0.22472 0.31624 0.0
H941 H 0.26321 0.28132 0.32722 0.0
C942 C 0.29516 0.21043 0.33109 0.0
C943 C 0.28368 0.25092 0.31482 0.0
C944 C 0.28247 0.26663 0.29903 0.0
C945 C 0.28451 0.22164 0.34464 0.0
C946 C 0.27227 0.24709 0.34319 0.0
C947 C 0.27259 0.26183 0.32833 0.0
C948 C 0.25748 0.25763 0.35677 0.0
C949 C 0.28693 0.20644 0.36038 0.0
C950 C 0.22745 0.23101 0.36519 0.0
C951 C 0.21183 0.241 0.37726 0.0
C952 C 0.22554 0.27794 0.38102 0.0
C953 C 0.25595 0.30457 0.37269 0.0
C954 C 0.27173 0.29449 0.36068 0.0
H955 H 0.30747 0.19745 0.36019 0.0
H956 H 0.29413 0.22684 0.36991 0.0
H957 H 0.26015 0.18231 0.3632 0.0
H958 H 0.21536 0.20248 0.36213 0.0
H959 H 0.18825 0.21974 0.38329 0.0
H960 H 0.13876 0.27683 0.44726 0.0
H961 H 0.09701 0.25959 0.46967 0.0
H962 H 0.09318 0.35883 0.46441 0.0
H963 H 0.13515 0.37647 0.44201 0.0
H964 H 0.10919 0.30668 0.49867 0.0
H965 H 0.9835 0.27036 0.46432 0.0
H966 H 0.02238 0.27035 0.45562 0.0
H967 H 0.02417 0.31268 0.45981 0.0
C968 C 0.12899 0.29497 0.45085 0.0
C969 C 0.14018 0.32799 0.44288 0.0
C970 C 0.10522 0.28511 0.46365 0.0
C971 C 0.09196 0.30787 0.46859 0.0
C972 C 0.10298 0.34082 0.46067 0.0
H973 H 0.92612 0.26556 0.53966 0.0
H974 H 0.97221 0.29431 0.51904 0.0
C975 C 0.12698 0.35085 0.44792 0.0
C976 C 0.06683 0.29716 0.48215 0.0
H977 H 0.97768 0.26422 0.49185 0.0
C978 C 0.08045 0.29753 0.49724 0.0
C979 C 0.02953 0.28563 0.48018 0.0
C980 C 0.01373 0.28445 0.46413 0.0
C981 C 0.05757 0.28635 0.51048 0.0
C982 C 0.01991 0.27353 0.50846 0.0
C983 C 0.00652 0.27401 0.49338 0.0
C984 C 0.99361 0.2577 0.52166 0.0
C985 C 0.07407 0.28869 0.52648 0.0
C986 C 0.99027 0.22755 0.52997 0.0
C987 C 0.96419 0.21122 0.54181 0.0
C988 C 0.94043 0.22435 0.54548 0.0
C989 C 0.94395 0.25473 0.53718 0.0
C990 C 0.97026 0.2712 0.52538 0.0
H991 H 0.10345 0.30969 0.5267 0.0
H992 H 0.05982 0.29525 0.53577 0.0
H993 H 0.0718 0.26208 0.52936 0.0
H994 H 0.00728 0.21602 0.52704 0.0
H995 H 0.96212 0.1877 0.54782 0.0
H996 H 0.672 0.9036 0.69584 0.0
H997 H 0.69214 0.94788 0.67439 0.0
H998 H 0.77056 0.03062 0.70541 0.0
H999 H 0.75209 0.98563 0.72661 0.0
H1000 H 0.69292 0.00715 0.66866 0.0
H1001 H 0.83681 0.04053 0.67087 0.0
H1002 H 0.80188 0.00429 0.68243 0.0
H1003 H 0.8228 0.05085 0.68911 0.0
C1004 C 0.69344 0.9313 0.69809 0.0
C1005 C 0.71076 0.94113 0.71283 0.0
C1006 C 0.70498 0.95662 0.68581 0.0
C1007 C 0.73363 0.99246 0.68809 0.0
C1008 C 0.74943 0.00284 0.70312 0.0
H1009 H 0.77766 0.16232 0.61844 0.0
H1010 H 0.75581 0.12145 0.64118 0.0
C1011 C 0.7386 0.97724 0.71529 0.0
C1012 C 0.74702 0.01857 0.67467 0.0
H1013 H 0.82376 0.0781 0.65456 0.0
C1014 C 0.72153 0.02251 0.66553 0.0
C1015 C 0.78428 0.03817 0.67033 0.0
C1016 C 0.81292 0.03296 0.67859 0.0
C1017 C 0.73214 0.0453 0.65225 0.0
C1018 C 0.76961 0.06627 0.6484 0.0
C1019 C 0.79508 0.06239 0.65755 0.0
C1020 C 0.78308 0.09162 0.63471 0.0
C1021 C 0.7028 0.04546 0.64222 0.0
C1022 C 0.8071 0.08979 0.62382 0.0
C1023 C 0.82069 0.11406 0.61116 0.0
C1024 C 0.80994 0.14016 0.60895 0.0
C1025 C 0.78591 0.14204 0.61977 0.0
C1026 C 0.77315 0.11845 0.63269 0.0
H1027 H 0.67639 0.01974 0.64358 0.0
H1028 H 0.6986 0.06815 0.64599 0.0
H1029 H 0.71031 0.04907 0.62956 0.0
H1030 H 0.81532 0.06947 0.62509 0.0
H1031 H 0.83918 0.11202 0.60299 0.0
loop_
_geom_bond_atom_site_label_1
_geom_bond_atom_site_label_2
_geom_bond_distance
_geom_bond_site_symmetry_2
_ccdc_geom_bond_type
Co0 O1 2.216 . S
Co0 O2 2.091 . S
Co0 O4 2.004 . S
Co0 O10 2.021 . S
Co0 O12 2.137 . S
Co0 O13 2.244 . S
O1 Co0 2.216 . S
O1 C8 1.247 . S
O2 Co0 2.091 . S
O2 C8 1.261 . S
C3 O12 1.247 . S
C3 O13 1.272 . S
O4 Co0 2.004 . S
O4 C9 1.259 . S
Co5 O6 2.061 . S
Co5 O11 2.052 . S
Co5 O13 2.135 . S
O6 Co5 2.061 . S
O6 C9 1.235 . S
C7 O10 1.238 . S
C7 O11 1.241 . S
C8 O1 1.247 . S
C8 O2 1.261 . S
C9 O4 1.259 . S
C9 O6 1.235 . S
O10 Co0 2.021 . S
O10 C7 1.238 . S
O11 Co5 2.052 . S
O11 C7 1.241 . S
O12 Co0 2.137 . S
O12 C3 1.247 . S
O13 Co0 2.244 . S
O13 C3 1.272 . S
O13 Co5 2.135 . S
Co14 O15 2.216 . S
Co14 O16 2.091 . S
Co14 O18 2.004 . S
Co14 O24 2.021 . S
Co14 O26 2.137 . S
Co14 O27 2.244 . S
O15 Co14 2.216 . S
O15 C22 1.247 . S
O16 Co14 2.091 . S
O16 C22 1.261 . S
C17 O26 1.247 . S
C17 O27 1.272 . S
O18 Co14 2.004 . S
O18 C23 1.259 . S
Co19 O20 2.061 . S
Co19 O25 2.052 . S
Co19 O27 2.135 . S
O20 Co19 2.061 . S
O20 C23 1.235 . S
C21 O24 1.238 . S
C21 O25 1.241 . S
C22 O15 1.247 . S
C22 O16 1.261 . S
C23 O18 1.259 . S
C23 O20 1.235 . S
O24 Co14 2.021 . S
O24 C21 1.238 . S
O25 Co19 2.052 . S
O25 C21 1.241 . S
O26 Co14 2.137 . S
O26 C17 1.247 . S
O27 Co14 2.244 . S
O27 C17 1.272 . S
O27 Co19 2.135 . S
Co28 O29 2.216 . S
Co28 O30 2.091 . S
Co28 O32 2.004 . S
Co28 O38 2.021 . S
Co28 O40 2.137 . S
Co28 O41 2.244 . S
O29 Co28 2.216 . S
O29 C36 1.247 . S
O30 Co28 2.091 . S
O30 C36 1.261 . S
C31 O40 1.247 . S
C31 O41 1.272 . S
O32 Co28 2.004 . S
O32 C37 1.259 . S
Co33 O34 2.061 . S
Co33 O39 2.052 . S
Co33 O41 2.135 . S
O34 Co33 2.061 . S
O34 C37 1.235 . S
C35 O38 1.238 . S
C35 O39 1.241 . S
C36 O29 1.247 . S
C36 O30 1.261 . S
C37 O32 1.259 . S
C37 O34 1.235 . S
O38 Co28 2.021 . S
O38 C35 1.238 . S
O39 Co33 2.052 . S
O39 C35 1.241 . S
O40 Co28 2.137 . S
O40 C31 1.247 . S
O41 Co28 2.244 . S
O41 C31 1.272 . S
O41 Co33 2.135 . S
Co42 O43 2.216 . S
Co42 O44 2.091 . S
Co42 O46 2.004 . S
Co42 O52 2.021 . S
Co42 O54 2.137 . S
Co42 O55 2.244 . S
O43 Co42 2.216 . S
O43 C50 1.247 . S
O44 Co42 2.091 . S
O44 C50 1.261 . S
C45 O54 1.247 . S
C45 O55 1.272 . S
O46 Co42 2.004 . S
O46 C51 1.259 . S
Co47 O48 2.061 . S
Co47 O53 2.052 . S
Co47 O55 2.135 . S
O48 Co47 2.061 . S
O48 C51 1.235 . S
C49 O52 1.238 . S
C49 O53 1.241 . S
C50 O43 1.247 . S
C50 O44 1.261 . S
C51 O46 1.259 . S
C51 O48 1.235 . S
O52 Co42 2.021 . S
O52 C49 1.238 . S
O53 Co47 2.052 . S
O53 C49 1.241 . S
O54 Co42 2.137 . S
O54 C45 1.247 . S
O55 Co42 2.244 . S
O55 C45 1.272 . S
O55 Co47 2.135 . S
Co56 O57 2.216 . S
Co56 O58 2.091 . S
Co56 O60 2.004 . S
Co56 O66 2.021 . S
Co56 O68 2.137 . S
Co56 O69 2.244 . S
O57 Co56 2.216 . S
O57 C64 1.247 . S
O58 Co56 2.091 . S
O58 C64 1.261 . S
C59 O68 1.247 . S
C59 O69 1.272 . S
O60 Co56 2.004 . S
O60 C65 1.259 . S
Co61 O62 2.061 . S
Co61 O67 2.052 . S
Co61 O69 2.135 . S
O62 Co61 2.061 . S
O62 C65 1.235 . S
C63 O66 1.238 . S
C63 O67 1.241 . S
C64 O57 1.247 . S
C64 O58 1.261 . S
C65 O60 1.259 . S
C65 O62 1.235 . S
O66 Co56 2.021 . S
O66 C63 1.238 . S
O67 Co61 2.052 . S
O67 C63 1.241 . S
O68 Co56 2.137 . S
O68 C59 1.247 . S
O69 Co56 2.244 . S
O69 C59 1.272 . S
O69 Co61 2.135 . S
Co70 O71 2.216 . S
Co70 O72 2.091 . S
Co70 O74 2.004 . S
Co70 O80 2.021 . S
Co70 O82 2.137 . S
Co70 O83 2.244 . S
O71 Co70 2.216 . S
O71 C78 1.247 . S
O72 Co70 2.091 . S
O72 C78 1.261 . S
C73 O82 1.247 . S
C73 O83 1.272 . S
O74 Co70 2.004 . S
O74 C79 1.259 . S
Co75 O76 2.061 . S
Co75 O81 2.052 . S
Co75 O83 2.135 . S
O76 Co75 2.061 . S
O76 C79 1.235 . S
C77 O80 1.238 . S
C77 O81 1.241 . S
C78 O71 1.247 . S
C78 O72 1.261 . S
C79 O74 1.259 . S
C79 O76 1.235 . S
O80 Co70 2.021 . S
O80 C77 1.238 . S
O81 Co75 2.052 . S
O81 C77 1.241 . S
O82 Co70 2.137 . S
O82 C73 1.247 . S
O83 Co70 2.244 . S
O83 C73 1.272 . S
O83 Co75 2.135 . S
Co84 O85 2.216 . S
Co84 O86 2.091 . S
Co84 O88 2.004 . S
Co84 O94 2.021 . S
Co84 O96 2.137 . S
Co84 O97 2.244 . S
O85 Co84 2.216 . S
O85 C92 1.247 . S
O86 Co84 2.091 . S
O86 C92 1.261 . S
C87 O96 1.247 . S
C87 O97 1.272 . S
O88 Co84 2.004 . S
O88 C93 1.259 . S
Co89 O90 2.061 . S
Co89 O95 2.052 . S
Co89 O97 2.135 . S
O90 Co89 2.061 . S
O90 C93 1.235 . S
C91 O94 1.238 . S
C91 O95 1.241 . S
C92 O85 1.247 . S
C92 O86 1.261 . S
C93 O88 1.259 . S
C93 O90 1.235 . S
O94 Co84 2.021 . S
O94 C91 1.238 . S
O95 Co89 2.052 . S
O95 C91 1.241 . S
O96 Co84 2.137 . S
O96 C87 1.247 . S
O97 Co84 2.244 . S
O97 C87 1.272 . S
O97 Co89 2.135 . S
Co98 O99 2.216 . S
Co98 O100 2.091 . S
Co98 O102 2.004 . S
Co98 O108 2.021 . S
Co98 O110 2.137 . S
Co98 O111 2.244 . S
O99 Co98 2.216 . S
O99 C106 1.247 . S
O100 Co98 2.091 . S
O100 C106 1.261 . S
C101 O110 1.247 . S
C101 O111 1.272 . S
O102 Co98 2.004 . S
O102 C107 1.259 . S
Co103 O104 2.061 . S
Co103 O109 2.052 . S
Co103 O111 2.135 . S
O104 Co103 2.061 . S
O104 C107 1.235 . S
C105 O108 1.238 . S
C105 O109 1.241 . S
C106 O99 1.247 . S
C106 O100 1.261 . S
C107 O102 1.259 . S
C107 O104 1.235 . S
O108 Co98 2.021 . S
O108 C105 1.238 . S
O109 Co103 2.052 . S
O109 C105 1.241 . S
O110 Co98 2.137 . S
O110 C101 1.247 . S
O111 Co98 2.244 . S
O111 C101 1.272 . S
O111 Co103 2.135 . S
Co112 O113 2.216 . S
Co112 O114 2.091 . S
Co112 O116 2.004 . S
Co112 O122 2.021 . S
Co112 O124 2.137 . S
Co112 O125 2.244 . S
O113 Co112 2.216 . S
O113 C120 1.247 . S
O114 Co112 2.091 . S
O114 C120 1.261 . S
C115 O124 1.247 . S
C115 O125 1.272 . S
O116 Co112 2.004 . S
O116 C121 1.259 . S
Co117 O118 2.061 . S
Co117 O123 2.052 . S
Co117 O125 2.135 . S
O118 Co117 2.061 . S
O118 C121 1.235 . S
C119 O122 1.238 . S
C119 O123 1.241 . S
C120 O113 1.247 . S
C120 O114 1.261 . S
C121 O116 1.259 . S
C121 O118 1.235 . S
O122 Co112 2.021 . S
O122 C119 1.238 . S
O123 Co117 2.052 . S
O123 C119 1.241 . S
O124 Co112 2.137 . S
O124 C115 1.247 . S
O125 Co112 2.244 . S
O125 C115 1.272 . S
O125 Co117 2.135 . S
Co126 O127 2.216 . S
Co126 O128 2.091 . S
Co126 O130 2.004 . S
Co126 O136 2.021 . S
Co126 O138 2.137 . S
Co126 O139 2.244 . S
O127 Co126 2.216 . S
O127 C134 1.247 . S
O128 Co126 2.091 . S
O128 C134 1.261 . S
C129 O138 1.247 . S
C129 O139 1.272 . S
O130 Co126 2.004 . S
O130 C135 1.259 . S
Co131 O132 2.061 . S
Co131 O137 2.052 . S
Co131 O139 2.135 . S
O132 Co131 2.061 . S
O132 C135 1.235 . S
C133 O136 1.238 . S
C133 O137 1.241 . S
C134 O127 1.247 . S
C134 O128 1.261 . S
C135 O130 1.259 . S
C135 O132 1.235 . S
O136 Co126 2.021 . S
O136 C133 1.238 . S
O137 Co131 2.052 . S
O137 C133 1.241 . S
O138 Co126 2.137 . S
O138 C129 1.247 . S
O139 Co126 2.244 . S
O139 C129 1.272 . S
O139 Co131 2.135 . S
Co140 O141 2.216 . S
Co140 O142 2.091 . S
Co140 O144 2.004 . S
Co140 O150 2.021 . S
Co140 O152 2.137 . S
Co140 O153 2.244 . S
O141 Co140 2.216 . S
O141 C148 1.247 . S
O142 Co140 2.091 . S
O142 C148 1.261 . S
C143 O152 1.247 . S
C143 O153 1.272 . S
O144 Co140 2.004 . S
O144 C149 1.259 . S
Co145 O146 2.061 . S
Co145 O151 2.052 . S
Co145 O153 2.135 . S
O146 Co145 2.061 . S
O146 C149 1.235 . S
C147 O150 1.238 . S
C147 O151 1.241 . S
C148 O141 1.247 . S
C148 O142 1.261 . S
C149 O144 1.259 . S
C149 O146 1.235 . S
O150 Co140 2.021 . S
O150 C147 1.238 . S
O151 Co145 2.052 . S
O151 C147 1.241 . S
O152 Co140 2.137 . S
O152 C143 1.247 . S
O153 Co140 2.244 . S
O153 C143 1.272 . S
O153 Co145 2.135 . S
Co154 O155 2.216 . S
Co154 O156 2.091 . S
Co154 O158 2.004 . S
Co154 O164 2.021 . S
Co154 O166 2.137 . S
Co154 O167 2.244 . S
O155 Co154 2.216 . S
O155 C162 1.247 . S
O156 Co154 2.091 . S
O156 C162 1.261 . S
C157 O166 1.247 . S
C157 O167 1.272 . S
O158 Co154 2.004 . S
O158 C163 1.259 . S
Co159 O160 2.061 . S
Co159 O165 2.052 . S
Co159 O167 2.135 . S
O160 Co159 2.061 . S
O160 C163 1.235 . S
C161 O164 1.238 . S
C161 O165 1.241 . S
C162 O155 1.247 . S
C162 O156 1.261 . S
C163 O158 1.259 . S
C163 O160 1.235 . S
O164 Co154 2.021 . S
O164 C161 1.238 . S
O165 Co159 2.052 . S
O165 C161 1.241 . S
O166 Co154 2.137 . S
O166 C157 1.247 . S
O167 Co154 2.244 . S
O167 C157 1.272 . S
O167 Co159 2.135 . S
H168 C176 0.929 . S
H169 C178 0.930 . S
H170 C180 0.930 . S
H171 C183 0.929 . S
H172 C186 0.930 . S
H173 C188 0.960 . S
H174 C188 0.960 . S
H175 C188 0.960 . S
C176 H168 0.929 . S
C176 C177 1.377 . S
C176 C178 1.384 . S
C177 C176 1.377 . S
C177 C183 1.390 . S
C178 H169 0.930 . S
C178 C176 1.384 . S
C178 C179 1.372 . S
C179 C178 1.372 . S
C179 C180 1.400 . S
C179 C184 1.490 . S
C180 H170 0.930 . S
C180 C179 1.400 . S
C180 C183 1.386 . S
H181 C197 0.930 . S
H182 C198 0.931 . S
C183 H171 0.929 . S
C183 C177 1.390 . S
C183 C180 1.386 . S
C184 C179 1.490 . S
C184 C186 1.395 . S
C184 C187 1.403 . S
H185 C191 0.930 . S
C186 H172 0.930 . S
C186 C184 1.395 . S
C186 C189 1.403 . S
C187 C184 1.403 . S
C187 C188 1.524 . S
C187 C191 1.400 . S
C188 H173 0.960 . S
C188 H174 0.960 . S
C188 H175 0.960 . S
C188 C187 1.524 . S
C189 C186 1.403 . S
C189 C190 1.392 . S
C189 C193 1.495 . S
C190 C189 1.392 . S
C190 C191 1.385 . S
C190 C192 1.478 . S
C191 H185 0.930 . S
C191 C187 1.400 . S
C191 C190 1.385 . S
C192 C190 1.478 . S
C192 C194 1.381 . S
C192 C198 1.383 . S
C193 C189 1.495 . S
C193 H199 0.959 . S
C193 H200 0.961 . S
C193 H201 0.960 . S
C194 C192 1.381 . S
C194 C195 1.394 . S
C194 H202 0.930 . S
C195 C194 1.394 . S
C195 C196 1.383 . S
C195 H203 0.929 . S
C196 C195 1.383 . S
C196 C197 1.377 . S
C197 H181 0.930 . S
C197 C196 1.377 . S
C197 C198 1.379 . S
C198 H182 0.931 . S
C198 C192 1.383 . S
C198 C197 1.379 . S
H199 C193 0.959 . S
H200 C193 0.961 . S
H201 C193 0.960 . S
H202 C194 0.930 . S
H203 C195 0.929 . S
H204 C212 0.929 . S
H205 C214 0.930 . S
H206 C216 0.930 . S
H207 C219 0.929 . S
H208 C222 0.930 . S
H209 C224 0.960 . S
H210 C224 0.960 . S
H211 C224 0.960 . S
C212 H204 0.929 . S
C212 C213 1.377 . S
C212 C214 1.384 . S
C213 C212 1.377 . S
C213 C219 1.390 . S
C214 H205 0.930 . S
C214 C212 1.384 . S
C214 C215 1.372 . S
C215 C214 1.372 . S
C215 C216 1.400 . S
C215 C220 1.490 . S
C216 H206 0.930 . S
C216 C215 1.400 . S
C216 C219 1.386 . S
H217 C233 0.930 . S
H218 C234 0.931 . S
C219 H207 0.929 . S
C219 C213 1.390 . S
C219 C216 1.386 . S
C220 C215 1.490 . S
C220 C222 1.395 . S
C220 C223 1.403 . S
H221 C227 0.930 . S
C222 H208 0.930 . S
C222 C220 1.395 . S
C222 C225 1.403 . S
C223 C220 1.403 . S
C223 C224 1.524 . S
C223 C227 1.400 . S
C224 H209 0.960 . S
C224 H210 0.960 . S
C224 H211 0.960 . S
C224 C223 1.524 . S
C225 C222 1.403 . S
C225 C226 1.392 . S
C225 C229 1.495 . S
C226 C225 1.392 . S
C226 C227 1.385 . S
C226 C228 1.478 . S
C227 H221 0.930 . S
C227 C223 1.400 . S
C227 C226 1.385 . S
C228 C226 1.478 . S
C228 C230 1.381 . S
C228 C234 1.383 . S
C229 C225 1.495 . S
C229 H235 0.959 . S
C229 H236 0.961 . S
C229 H237 0.960 . S
C230 C228 1.381 . S
C230 C231 1.394 . S
C230 H238 0.930 . S
C231 C230 1.394 . S
C231 C232 1.383 . S
C231 H239 0.929 . S
C232 C231 1.383 . S
C232 C233 1.377 . S
C233 H217 0.930 . S
C233 C232 1.377 . S
C233 C234 1.379 . S
C234 H218 0.931 . S
C234 C228 1.383 . S
C234 C233 1.379 . S
H235 C229 0.959 . S
H236 C229 0.961 . S
H237 C229 0.960 . S
H238 C230 0.930 . S
H239 C231 0.929 . S
H240 C248 0.929 . S
H241 C250 0.930 . S
H242 C252 0.930 . S
H243 C255 0.929 . S
H244 C258 0.930 . S
H245 C260 0.960 . S
H246 C260 0.960 . S
H247 C260 0.960 . S
C248 H240 0.929 . S
C248 C249 1.377 . S
C248 C250 1.384 . S
C249 C248 1.377 . S
C249 C255 1.390 . S
C250 H241 0.930 . S
C250 C248 1.384 . S
C250 C251 1.372 . S
C251 C250 1.372 . S
C251 C252 1.400 . S
C251 C256 1.490 . S
C252 H242 0.930 . S
C252 C251 1.400 . S
C252 C255 1.386 . S
H253 C269 0.930 . S
H254 C270 0.931 . S
C255 H243 0.929 . S
C255 C249 1.390 . S
C255 C252 1.386 . S
C256 C251 1.490 . S
C256 C258 1.395 . S
C256 C259 1.403 . S
H257 C263 0.930 . S
C258 H244 0.930 . S
C258 C256 1.395 . S
C258 C261 1.403 . S
C259 C256 1.403 . S
C259 C260 1.524 . S
C259 C263 1.400 . S
C260 H245 0.960 . S
C260 H246 0.960 . S
C260 H247 0.960 . S
C260 C259 1.524 . S
C261 C258 1.403 . S
C261 C262 1.392 . S
C261 C265 1.495 . S
C262 C261 1.392 . S
C262 C263 1.385 . S
C262 C264 1.478 . S
C263 H257 0.930 . S
C263 C259 1.400 . S
C263 C262 1.385 . S
C264 C262 1.478 . S
C264 C266 1.381 . S
C264 C270 1.383 . S
C265 C261 1.495 . S
C265 H271 0.959 . S
C265 H272 0.961 . S
C265 H273 0.960 . S
C266 C264 1.381 . S
C266 C267 1.394 . S
C266 H274 0.930 . S
C267 C266 1.394 . S
C267 C268 1.383 . S
C267 H275 0.929 . S
C268 C267 1.383 . S
C268 C269 1.377 . S
C269 H253 0.930 . S
C269 C268 1.377 . S
C269 C270 1.379 . S
C270 H254 0.931 . S
C270 C264 1.383 . S
C270 C269 1.379 . S
H271 C265 0.959 . S
H272 C265 0.961 . S
H273 C265 0.960 . S
H274 C266 0.930 . S
H275 C267 0.929 . S
H276 C284 0.929 . S
H277 C286 0.930 . S
H278 C288 0.930 . S
H279 C291 0.929 . S
H280 C294 0.930 . S
H281 C296 0.960 . S
H282 C296 0.960 . S
H283 C296 0.960 . S
C284 H276 0.929 . S
C284 C285 1.377 . S
C284 C286 1.384 . S
C285 C284 1.377 . S
C285 C291 1.390 . S
C286 H277 0.930 . S
C286 C284 1.384 . S
C286 C287 1.372 . S
C287 C286 1.372 . S
C287 C288 1.400 . S
C287 C292 1.490 . S
C288 H278 0.930 . S
C288 C287 1.400 . S
C288 C291 1.386 . S
H289 C305 0.930 . S
H290 C306 0.931 . S
C291 H279 0.929 . S
C291 C285 1.390 . S
C291 C288 1.386 . S
C292 C287 1.490 . S
C292 C294 1.395 . S
C292 C295 1.403 . S
H293 C299 0.930 . S
C294 H280 0.930 . S
C294 C292 1.395 . S
C294 C297 1.403 . S
C295 C292 1.403 . S
C295 C296 1.524 . S
C295 C299 1.400 . S
C296 H281 0.960 . S
C296 H282 0.960 . S
C296 H283 0.960 . S
C296 C295 1.524 . S
C297 C294 1.403 . S
C297 C298 1.392 . S
C297 C301 1.495 . S
C298 C297 1.392 . S
C298 C299 1.385 . S
C298 C300 1.478 . S
C299 H293 0.930 . S
C299 C295 1.400 . S
C299 C298 1.385 . S
C300 C298 1.478 . S
C300 C302 1.381 . S
C300 C306 1.383 . S
C301 C297 1.495 . S
C301 H307 0.959 . S
C301 H308 0.961 . S
C301 H309 0.960 . S
C302 C300 1.381 . S
C302 C303 1.394 . S
C302 H310 0.930 . S
C303 C302 1.394 . S
C303 C304 1.383 . S
C303 H311 0.929 . S
C304 C303 1.383 . S
C304 C305 1.377 . S
C305 H289 0.930 . S
C305 C304 1.377 . S
C305 C306 1.379 . S
C306 H290 0.931 . S
C306 C300 1.383 . S
C306 C305 1.379 . S
H307 C301 0.959 . S
H308 C301 0.961 . S
H309 C301 0.960 . S
H310 C302 0.930 . S
H311 C303 0.929 . S
H312 C320 0.929 . S
H313 C322 0.930 . S
H314 C324 0.930 . S
H315 C327 0.929 . S
H316 C330 0.930 . S
H317 C332 0.960 . S
H318 C332 0.960 . S
H319 C332 0.960 . S
C320 H312 0.929 . S
C320 C321 1.377 . S
C320 C322 1.384 . S
C321 C320 1.377 . S
C321 C327 1.390 . S
C322 H313 0.930 . S
C322 C320 1.384 . S
C322 C323 1.372 . S
C323 C322 1.372 . S
C323 C324 1.400 . S
C323 C328 1.490 . S
C324 H314 0.930 . S
C324 C323 1.400 . S
C324 C327 1.386 . S
H325 C341 0.930 . S
H326 C342 0.931 . S
C327 H315 0.929 . S
C327 C321 1.390 . S
C327 C324 1.386 . S
C328 C323 1.490 . S
C328 C330 1.395 . S
C328 C331 1.403 . S
H329 C335 0.930 . S
C330 H316 0.930 . S
C330 C328 1.395 . S
C330 C333 1.403 . S
C331 C328 1.403 . S
C331 C332 1.524 . S
C331 C335 1.400 . S
C332 H317 0.960 . S
C332 H318 0.960 . S
C332 H319 0.960 . S
C332 C331 1.524 . S
C333 C330 1.403 . S
C333 C334 1.392 . S
C333 C337 1.495 . S
C334 C333 1.392 . S
C334 C335 1.385 . S
C334 C336 1.478 . S
C335 H329 0.930 . S
C335 C331 1.400 . S
C335 C334 1.385 . S
C336 C334 1.478 . S
C336 C338 1.381 . S
C336 C342 1.383 . S
C337 C333 1.495 . S
C337 H343 0.959 . S
C337 H344 0.961 . S
C337 H345 0.960 . S
C338 C336 1.381 . S
C338 C339 1.394 . S
C338 H346 0.930 . S
C339 C338 1.394 . S
C339 C340 1.383 . S
C339 H347 0.929 . S
C340 C339 1.383 . S
C340 C341 1.377 . S
C341 H325 0.930 . S
C341 C340 1.377 . S
C341 C342 1.379 . S
C342 H326 0.931 . S
C342 C336 1.383 . S
C342 C341 1.379 . S
H343 C337 0.959 . S
H344 C337 0.961 . S
H345 C337 0.960 . S
H346 C338 0.930 . S
H347 C339 0.929 . S
H348 C356 0.929 . S
H349 C358 0.930 . S
H350 C360 0.930 . S
H351 C363 0.929 . S
H352 C366 0.930 . S
H353 C368 0.960 . S
H354 C368 0.960 . S
H355 C368 0.960 . S
C356 H348 0.929 . S
C356 C357 1.377 . S
C356 C358 1.384 . S
C357 C356 1.377 . S
C357 C363 1.390 . S
C358 H349 0.930 . S
C358 C356 1.384 . S
C358 C359 1.372 . S
C359 C358 1.372 . S
C359 C360 1.400 . S
C359 C364 1.490 . S
C360 H350 0.930 . S
C360 C359 1.400 . S
C360 C363 1.386 . S
H361 C377 0.930 . S
H362 C378 0.931 . S
C363 H351 0.929 . S
C363 C357 1.390 . S
C363 C360 1.386 . S
C364 C359 1.490 . S
C364 C366 1.395 . S
C364 C367 1.403 . S
H365 C371 0.930 . S
C366 H352 0.930 . S
C366 C364 1.395 . S
C366 C369 1.403 . S
C367 C364 1.403 . S
C367 C368 1.524 . S
C367 C371 1.400 . S
C368 H353 0.960 . S
C368 H354 0.960 . S
C368 H355 0.960 . S
C368 C367 1.524 . S
C369 C366 1.403 . S
C369 C370 1.392 . S
C369 C373 1.495 . S
C370 C369 1.392 . S
C370 C371 1.385 . S
C370 C372 1.478 . S
C371 H365 0.930 . S
C371 C367 1.400 . S
C371 C370 1.385 . S
C372 C370 1.478 . S
C372 C374 1.381 . S
C372 C378 1.383 . S
C373 C369 1.495 . S
C373 H379 0.959 . S
C373 H380 0.961 . S
C373 H381 0.960 . S
C374 C372 1.381 . S
C374 C375 1.394 . S
C374 H382 0.930 . S
C375 C374 1.394 . S
C375 C376 1.383 . S
C375 H383 0.929 . S
C376 C375 1.383 . S
C376 C377 1.377 . S
C377 H361 0.930 . S
C377 C376 1.377 . S
C377 C378 1.379 . S
C378 H362 0.931 . S
C378 C372 1.383 . S
C378 C377 1.379 . S
H379 C373 0.959 . S
H380 C373 0.961 . S
H381 C373 0.960 . S
H382 C374 0.930 . S
H383 C375 0.929 . S
H384 C392 0.929 . S
H385 C394 0.930 . S
H386 C396 0.930 . S
H387 C399 0.929 . S
H388 C402 0.930 . S
H389 C404 0.960 . S
H390 C404 0.960 . S
H391 C404 0.960 . S
C392 H384 0.929 . S
C392 C393 1.377 . S
C392 C394 1.384 . S
C393 C392 1.377 . S
C393 C399 1.390 . S
C394 H385 0.930 . S
C394 C392 1.384 . S
C394 C395 1.372 . S
C395 C394 1.372 . S
C395 C396 1.400 . S
C395 C400 1.490 . S
C396 H386 0.930 . S
C396 C395 1.400 . S
C396 C399 1.386 . S
H397 C413 0.930 . S
H398 C414 0.931 . S
C399 H387 0.929 . S
C399 C393 1.390 . S
C399 C396 1.386 . S
C400 C395 1.490 . S
C400 C402 1.395 . S
C400 C403 1.403 . S
H401 C407 0.930 . S
C402 H388 0.930 . S
C402 C400 1.395 . S
C402 C405 1.403 . S
C403 C400 1.403 . S
C403 C404 1.524 . S
C403 C407 1.400 . S
C404 H389 0.960 . S
C404 H390 0.960 . S
C404 H391 0.960 . S
C404 C403 1.524 . S
C405 C402 1.403 . S
C405 C406 1.392 . S
C405 C409 1.495 . S
C406 C405 1.392 . S
C406 C407 1.385 . S
C406 C408 1.478 . S
C407 H401 0.930 . S
C407 C403 1.400 . S
C407 C406 1.385 . S
C408 C406 1.478 . S
C408 C410 1.381 . S
C408 C414 1.383 . S
C409 C405 1.495 . S
C409 H415 0.959 . S
C409 H416 0.961 . S
C409 H417 0.960 . S
C410 C408 1.381 . S
C410 C411 1.394 . S
C410 H418 0.930 . S
C411 C410 1.394 . S
C411 C412 1.383 . S
C411 H419 0.929 . S
C412 C411 1.383 . S
C412 C413 1.377 . S
C413 H397 0.930 . S
C413 C412 1.377 . S
C413 C414 1.379 . S
C414 H398 0.931 . S
C414 C408 1.383 . S
C414 C413 1.379 . S
H415 C409 0.959 . S
H416 C409 0.961 . S
H417 C409 0.960 . S
H418 C410 0.930 . S
H419 C411 0.929 . S
H420 C428 0.929 . S
H421 C430 0.930 . S
H422 C432 0.930 . S
H423 C435 0.929 . S
H424 C438 0.930 . S
H425 C440 0.960 . S
H426 C440 0.960 . S
H427 C440 0.960 . S
C428 H420 0.929 . S
C428 C429 1.377 . S
C428 C430 1.384 . S
C429 C428 1.377 . S
C429 C435 1.390 . S
C430 H421 0.930 . S
C430 C428 1.384 . S
C430 C431 1.372 . S
C431 C430 1.372 . S
C431 C432 1.400 . S
C431 C436 1.490 . S
C432 H422 0.930 . S
C432 C431 1.400 . S
C432 C435 1.386 . S
H433 C449 0.930 . S
H434 C450 0.931 . S
C435 H423 0.929 . S
C435 C429 1.390 . S
C435 C432 1.386 . S
C436 C431 1.490 . S
C436 C438 1.395 . S
C436 C439 1.403 . S
H437 C443 0.930 . S
C438 H424 0.930 . S
C438 C436 1.395 . S
C438 C441 1.403 1_655 S
C439 C436 1.403 . S
C439 C440 1.524 . S
C439 C443 1.400 1_655 S
C440 H425 0.960 . S
C440 H426 0.960 . S
C440 H427 0.960 . S
C440 C439 1.524 . S
C441 C438 1.403 1_455 S
C441 C442 1.392 . S
C441 C445 1.495 . S
C442 C441 1.392 . S
C442 C443 1.385 . S
C442 C444 1.478 . S
C443 H437 0.930 . S
C443 C439 1.400 1_455 S
C443 C442 1.385 . S
C444 C442 1.478 . S
C444 C446 1.381 . S
C444 C450 1.383 . S
C445 C441 1.495 . S
C445 H451 0.959 . S
C445 H452 0.961 . S
C445 H453 0.960 . S
C446 C444 1.381 . S
C446 C447 1.394 . S
C446 H454 0.930 . S
C447 C446 1.394 . S
C447 C448 1.383 . S
C447 H455 0.929 . S
C448 C447 1.383 . S
C448 C449 1.377 . S
C449 H433 0.930 . S
C449 C448 1.377 . S
C449 C450 1.379 . S
C450 H434 0.931 . S
C450 C444 1.383 . S
C450 C449 1.379 . S
H451 C445 0.959 . S
H452 C445 0.961 . S
H453 C445 0.960 . S
H454 C446 0.930 . S
H455 C447 0.929 . S
H456 C464 0.929 . S
H457 C466 0.930 . S
H458 C468 0.930 . S
H459 C471 0.929 . S
H460 C474 0.930 . S
H461 C476 0.960 . S
H462 C476 0.960 . S
H463 C476 0.960 . S
C464 H456 0.929 . S
C464 C465 1.377 . S
C464 C466 1.384 . S
C465 C464 1.377 . S
C465 C471 1.390 . S
C466 H457 0.930 . S
C466 C464 1.384 . S
C466 C467 1.372 . S
C467 C466 1.372 . S
C467 C468 1.400 . S
C467 C472 1.490 . S
C468 H458 0.930 . S
C468 C467 1.400 . S
C468 C471 1.386 . S
H469 C485 0.930 . S
H470 C486 0.931 . S
C471 H459 0.929 . S
C471 C465 1.390 . S
C471 C468 1.386 . S
C472 C467 1.490 . S
C472 C474 1.395 1_545 S
C472 C475 1.403 . S
H473 C479 0.930 . S
C474 H460 0.930 . S
C474 C472 1.395 1_565 S
C474 C477 1.403 . S
C475 C472 1.403 . S
C475 C476 1.524 . S
C475 C479 1.400 1_545 S
C476 H461 0.960 . S
C476 H462 0.960 . S
C476 H463 0.960 . S
C476 C475 1.524 . S
C477 C474 1.403 . S
C477 C478 1.392 . S
C477 C481 1.495 . S
C478 C477 1.392 . S
C478 C479 1.385 . S
C478 C480 1.478 . S
C479 H473 0.930 . S
C479 C475 1.400 1_565 S
C479 C478 1.385 . S
C480 C478 1.478 . S
C480 C482 1.381 . S
C480 C486 1.383 . S
C481 C477 1.495 . S
C481 H487 0.959 . S
C481 H488 0.961 . S
C481 H489 0.960 . S
C482 C480 1.381 . S
C482 C483 1.394 . S
C482 H490 0.930 . S
C483 C482 1.394 . S
C483 C484 1.383 . S
C483 H491 0.929 . S
C484 C483 1.383 . S
C484 C485 1.377 . S
C485 H469 0.930 . S
C485 C484 1.377 . S
C485 C486 1.379 . S
C486 H470 0.931 . S
C486 C480 1.383 . S
C486 C485 1.379 . S
H487 C481 0.959 . S
H488 C481 0.961 . S
H489 C481 0.960 . S
H490 C482 0.930 . S
H491 C483 0.929 . S
H492 C500 0.929 . S
H493 C502 0.930 . S
H494 C504 0.930 . S
H495 C507 0.929 . S
H496 C510 0.930 . S
H497 C512 0.960 . S
H498 C512 0.960 . S
H499 C512 0.960 . S
C500 H492 0.929 . S
C500 C501 1.377 . S
C500 C502 1.384 . S
C501 C500 1.377 . S
C501 C507 1.390 . S
C502 H493 0.930 . S
C502 C500 1.384 . S
C502 C503 1.372 . S
C503 C502 1.372 . S
C503 C504 1.400 . S
C503 C508 1.490 . S
C504 H494 0.930 . S
C504 C503 1.400 . S
C504 C507 1.386 . S
H505 C521 0.930 . S
H506 C522 0.931 . S
C507 H495 0.929 . S
C507 C501 1.390 . S
C507 C504 1.386 . S
C508 C503 1.490 . S
C508 C510 1.395 . S
C508 C511 1.403 . S
H509 C515 0.930 . S
C510 H496 0.930 . S
C510 C508 1.395 . S
C510 C513 1.403 . S
C511 C508 1.403 . S
C511 C512 1.524 . S
C511 C515 1.400 . S
C512 H497 0.960 . S
C512 H498 0.960 . S
C512 H499 0.960 . S
C512 C511 1.524 . S
C513 C510 1.403 . S
C513 C514 1.392 . S
C513 C517 1.495 . S
C514 C513 1.392 . S
C514 C515 1.385 . S
C514 C516 1.478 . S
C515 H509 0.930 . S
C515 C511 1.400 . S
C515 C514 1.385 . S
C516 C514 1.478 . S
C516 C518 1.381 . S
C516 C522 1.383 . S
C517 C513 1.495 . S
C517 H523 0.959 . S
C517 H524 0.961 . S
C517 H525 0.960 . S
C518 C516 1.381 . S
C518 C519 1.394 . S
C518 H526 0.930 . S
C519 C518 1.394 . S
C519 C520 1.383 . S
C519 H527 0.929 . S
C520 C519 1.383 . S
C520 C521 1.377 . S
C521 H505 0.930 . S
C521 C520 1.377 . S
C521 C522 1.379 . S
C522 H506 0.931 . S
C522 C516 1.383 . S
C522 C521 1.379 . S
H523 C517 0.959 . S
H524 C517 0.961 . S
H525 C517 0.960 . S
H526 C518 0.930 . S
H527 C519 0.929 . S
H528 C536 0.929 . S
H529 C538 0.930 . S
H530 C540 0.930 . S
H531 C543 0.929 . S
H532 C546 0.930 . S
H533 C548 0.960 . S
H534 C548 0.960 . S
H535 C548 0.960 . S
C536 H528 0.929 . S
C536 C537 1.377 . S
C536 C538 1.384 . S
C537 C536 1.377 . S
C537 C543 1.390 . S
C538 H529 0.930 . S
C538 C536 1.384 . S
C538 C539 1.372 . S
C539 C538 1.372 . S
C539 C540 1.400 . S
C539 C544 1.490 . S
C540 H530 0.930 . S
C540 C539 1.400 . S
C540 C543 1.386 . S
H541 C557 0.930 . S
H542 C558 0.931 . S
C543 H531 0.929 . S
C543 C537 1.390 . S
C543 C540 1.386 . S
C544 C539 1.490 . S
C544 C546 1.395 . S
C544 C547 1.403 . S
H545 C551 0.930 . S
C546 H532 0.930 . S
C546 C544 1.395 . S
C546 C549 1.403 1_655 S
C547 C544 1.403 . S
C547 C548 1.524 . S
C547 C551 1.400 1_655 S
C548 H533 0.960 . S
C548 H534 0.960 . S
C548 H535 0.960 . S
C548 C547 1.524 . S
C549 C546 1.403 1_455 S
C549 C550 1.392 . S
C549 C553 1.495 . S
C550 C549 1.392 . S
C550 C551 1.385 . S
C550 C552 1.478 . S
C551 H545 0.930 . S
C551 C547 1.400 1_455 S
C551 C550 1.385 . S
C552 C550 1.478 . S
C552 C554 1.381 . S
C552 C558 1.383 . S
C553 C549 1.495 . S
C553 H559 0.959 . S
C553 H560 0.961 . S
C553 H561 0.960 . S
C554 C552 1.381 . S
C554 C555 1.394 . S
C554 H562 0.930 . S
C555 C554 1.394 . S
C555 C556 1.383 . S
C555 H563 0.929 . S
C556 C555 1.383 . S
C556 C557 1.377 . S
C557 H541 0.930 . S
C557 C556 1.377 . S
C557 C558 1.379 . S
C558 H542 0.931 . S
C558 C552 1.383 . S
C558 C557 1.379 . S
H559 C553 0.959 . S
H560 C553 0.961 . S
H561 C553 0.960 . S
H562 C554 0.930 . S
H563 C555 0.929 . S
H564 C572 0.929 . S
H565 C574 0.930 . S
H566 C576 0.930 . S
H567 C579 0.929 . S
H568 C582 0.930 . S
H569 C584 0.960 1_545 S
H570 C584 0.960 . S
H571 C584 0.960 . S
C572 H564 0.929 . S
C572 C573 1.377 . S
C572 C574 1.384 . S
C573 C572 1.377 . S
C573 C579 1.390 . S
C574 H565 0.930 . S
C574 C572 1.384 . S
C574 C575 1.372 . S
C575 C574 1.372 . S
C575 C576 1.400 . S
C575 C580 1.490 . S
C576 H566 0.930 . S
C576 C575 1.400 . S
C576 C579 1.386 . S
H577 C593 0.930 . S
H578 C594 0.931 . S
C579 H567 0.929 . S
C579 C573 1.390 . S
C579 C576 1.386 . S
C580 C575 1.490 . S
C580 C582 1.395 . S
C580 C583 1.403 . S
H581 C587 0.930 . S
C582 H568 0.930 . S
C582 C580 1.395 . S
C582 C585 1.403 1_564 S
C583 C580 1.403 . S
C583 C584 1.524 . S
C583 C587 1.400 1_564 S
C584 H569 0.960 1_565 S
C584 H570 0.960 . S
C584 H571 0.960 . S
C584 C583 1.524 . S
C585 C582 1.403 1_546 S
C585 C586 1.392 . S
C585 C589 1.495 . S
C586 C585 1.392 . S
C586 C587 1.385 . S
C586 C588 1.478 . S
C587 H581 0.930 . S
C587 C583 1.400 1_546 S
C587 C586 1.385 . S
C588 C586 1.478 . S
C588 C590 1.381 . S
C588 C594 1.383 . S
C589 C585 1.495 . S
C589 H595 0.959 1_545 S
C589 H596 0.961 . S
C589 H597 0.960 . S
C590 C588 1.381 . S
C590 C591 1.394 . S
C590 H598 0.930 . S
C591 C590 1.394 . S
C591 C592 1.383 . S
C591 H599 0.929 . S
C592 C591 1.383 . S
C592 C593 1.377 . S
C593 H577 0.930 . S
C593 C592 1.377 . S
C593 C594 1.379 . S
C594 H578 0.931 . S
C594 C588 1.383 . S
C594 C593 1.379 . S
H595 C589 0.959 1_565 S
H596 C589 0.961 . S
H597 C589 0.960 . S
H598 C590 0.930 . S
H599 C591 0.929 . S
H600 C608 0.929 . S
H601 C610 0.930 . S
H602 C612 0.930 . S
H603 C615 0.929 . S
H604 C618 0.930 . S
H605 C620 0.915 1_556 S
H606 C620 0.960 . S
H607 C620 0.960 . S
C608 H600 0.929 . S
C608 C609 1.377 . S
C608 C610 1.384 . S
C609 C608 1.377 . S
C609 C615 1.390 . S
C610 H601 0.930 . S
C610 C608 1.384 . S
C610 C611 1.372 . S
C611 C610 1.372 . S
C611 C612 1.400 . S
C611 C616 1.490 . S
C612 H602 0.930 . S
C612 C611 1.400 . S
C612 C615 1.386 . S
H613 C629 0.930 . S
H614 C630 0.931 . S
C615 H603 0.929 . S
C615 C609 1.390 . S
C615 C612 1.386 . S
C616 C611 1.490 . S
C616 C618 1.395 . S
C616 C619 1.403 . S
H617 C623 0.930 1_556 S
C618 H604 0.930 . S
C618 C616 1.395 . S
C618 C621 1.403 . S
C619 C616 1.403 . S
C619 C620 1.524 . S
C619 C623 1.400 . S
C620 H605 0.915 1_554 S
C620 H606 0.960 . S
C620 H607 0.960 . S
C620 C619 1.524 . S
C621 C618 1.403 . S
C621 C622 1.392 . S
C621 C625 1.495 . S
C622 C621 1.392 . S
C622 C623 1.385 . S
C622 C624 1.478 1_554 S
C623 H617 0.930 1_554 S
C623 C619 1.400 . S
C623 C622 1.385 . S
C624 C622 1.478 1_556 S
C624 C626 1.381 . S
C624 C630 1.383 . S
C625 C621 1.495 . S
C625 H631 0.959 . S
C625 H632 0.961 . S
C625 H633 0.960 . S
C626 C624 1.381 . S
C626 C627 1.394 . S
C626 H634 0.930 1_556 S
C627 C626 1.394 . S
C627 C628 1.383 . S
C627 H635 0.929 . S
C628 C627 1.383 . S
C628 C629 1.377 . S
C629 H613 0.930 . S
C629 C628 1.377 . S
C629 C630 1.379 . S
C630 H614 0.931 . S
C630 C624 1.383 . S
C630 C629 1.379 . S
H631 C625 0.959 . S
H632 C625 0.961 . S
H633 C625 0.960 . S
H634 C626 0.930 1_554 S
H635 C627 0.929 . S
H636 C644 0.929 . S
H637 C646 0.930 . S
H638 C648 0.930 . S
H639 C651 0.929 . S
H640 C654 0.930 . S
H641 C656 0.960 . S
H642 C656 0.960 . S
H643 C656 0.960 . S
C644 H636 0.929 . S
C644 C645 1.377 . S
C644 C646 1.384 . S
C645 C644 1.377 . S
C645 C651 1.390 . S
C646 H637 0.930 . S
C646 C644 1.384 . S
C646 C647 1.372 . S
C647 C646 1.372 . S
C647 C648 1.400 . S
C647 C652 1.490 . S
C648 H638 0.930 . S
C648 C647 1.400 . S
C648 C651 1.386 . S
H649 C665 0.930 . S
H650 C666 0.931 . S
C651 H639 0.929 . S
C651 C645 1.390 . S
C651 C648 1.386 . S
C652 C647 1.490 . S
C652 C654 1.395 . S
C652 C655 1.403 . S
H653 C659 0.930 . S
C654 H640 0.930 . S
C654 C652 1.395 . S
C654 C657 1.403 . S
C655 C652 1.403 . S
C655 C656 1.524 . S
C655 C659 1.400 . S
C656 H641 0.960 . S
C656 H642 0.960 . S
C656 H643 0.960 . S
C656 C655 1.524 . S
C657 C654 1.403 . S
C657 C658 1.392 . S
C657 C661 1.495 1_655 S
C658 C657 1.392 . S
C658 C659 1.385 . S
C658 C660 1.478 1_655 S
C659 H653 0.930 . S
C659 C655 1.400 . S
C659 C658 1.385 . S
C660 C658 1.478 1_455 S
C660 C662 1.381 . S
C660 C666 1.383 . S
C661 C657 1.495 1_455 S
C661 H667 0.959 . S
C661 H668 0.961 . S
C661 H669 0.960 . S
C662 C660 1.381 . S
C662 C663 1.394 . S
C662 H670 0.930 . S
C663 C662 1.394 . S
C663 C664 1.383 . S
C663 H671 0.929 . S
C664 C663 1.383 . S
C664 C665 1.377 . S
C665 H649 0.930 . S
C665 C664 1.377 . S
C665 C666 1.379 . S
C666 H650 0.931 . S
C666 C660 1.383 . S
C666 C665 1.379 . S
H667 C661 0.959 . S
H668 C661 0.961 . S
H669 C661 0.960 . S
H670 C662 0.930 . S
H671 C663 0.929 . S
H672 C680 0.929 . S
H673 C682 0.930 . S
H674 C684 0.930 . S
H675 C687 0.929 . S
H676 C690 0.930 1_545 S
H677 C692 0.960 . S
H678 C692 0.960 . S
H679 C692 0.960 . S
C680 H672 0.929 . S
C680 C681 1.377 . S
C680 C682 1.384 . S
C681 C680 1.377 . S
C681 C687 1.390 . S
C682 H673 0.930 . S
C682 C680 1.384 . S
C682 C683 1.372 1_545 S
C683 C682 1.372 1_565 S
C683 C684 1.400 . S
C683 C688 1.490 . S
C684 H674 0.930 . S
C684 C683 1.400 . S
C684 C687 1.386 1_565 S
H685 C701 0.930 . S
H686 C702 0.931 . S
C687 H675 0.929 . S
C687 C681 1.390 . S
C687 C684 1.386 1_545 S
C688 C683 1.490 . S
C688 C690 1.395 . S
C688 C691 1.403 . S
H689 C695 0.930 . S
C690 H676 0.930 1_565 S
C690 C688 1.395 . S
C690 C693 1.403 . S
C691 C688 1.403 . S
C691 C692 1.524 . S
C691 C695 1.400 . S
C692 H677 0.960 . S
C692 H678 0.960 . S
C692 H679 0.960 . S
C692 C691 1.524 . S
C693 C690 1.403 . S
C693 C694 1.392 . S
C693 C697 1.495 . S
C694 C693 1.392 . S
C694 C695 1.385 . S
C694 C696 1.478 . S
C695 H689 0.930 . S
C695 C691 1.400 . S
C695 C694 1.385 . S
C696 C694 1.478 . S
C696 C698 1.381 . S
C696 C702 1.383 . S
C697 C693 1.495 . S
C697 H703 0.959 1_565 S
C697 H704 0.961 . S
C697 H705 0.960 . S
C698 C696 1.381 . S
C698 C699 1.394 . S
C698 H706 0.930 . S
C699 C698 1.394 . S
C699 C700 1.383 . S
C699 H707 0.929 . S
C700 C699 1.383 . S
C700 C701 1.377 . S
C701 H685 0.930 . S
C701 C700 1.377 . S
C701 C702 1.379 . S
C702 H686 0.931 . S
C702 C696 1.383 . S
C702 C701 1.379 . S
H703 C697 0.959 1_545 S
H704 C697 0.961 . S
H705 C697 0.960 . S
H706 C698 0.930 . S
H707 C699 0.929 . S
H708 C716 0.929 . S
H709 C718 0.930 . S
H710 C720 0.930 . S
H711 C723 0.929 . S
H712 C726 0.930 . S
H713 C728 0.960 . S
H714 C728 0.960 . S
H715 C728 0.960 . S
C716 H708 0.929 . S
C716 C717 1.377 . S
C716 C718 1.384 . S
C717 C716 1.377 . S
C717 C723 1.390 . S
C718 H709 0.930 . S
C718 C716 1.384 . S
C718 C719 1.372 . S
C719 C718 1.372 . S
C719 C720 1.400 . S
C719 C724 1.490 . S
C720 H710 0.930 . S
C720 C719 1.400 . S
C720 C723 1.386 . S
H721 C737 0.930 . S
H722 C738 0.931 . S
C723 H711 0.929 . S
C723 C717 1.390 . S
C723 C720 1.386 . S
C724 C719 1.490 . S
C724 C726 1.395 . S
C724 C727 1.403 . S
H725 C731 0.930 . S
C726 H712 0.930 . S
C726 C724 1.395 . S
C726 C729 1.403 . S
C727 C724 1.403 . S
C727 C728 1.524 . S
C727 C731 1.400 . S
C728 H713 0.960 . S
C728 H714 0.960 . S
C728 H715 0.960 . S
C728 C727 1.524 . S
C729 C726 1.403 . S
C729 C730 1.392 . S
C729 C733 1.495 . S
C730 C729 1.392 . S
C730 C731 1.385 . S
C730 C732 1.478 . S
C731 H725 0.930 . S
C731 C727 1.400 . S
C731 C730 1.385 . S
C732 C730 1.478 . S
C732 C734 1.381 . S
C732 C738 1.383 . S
C733 C729 1.495 . S
C733 H739 0.959 . S
C733 H740 0.961 . S
C733 H741 0.960 . S
C734 C732 1.381 . S
C734 C735 1.394 . S
C734 H742 0.930 . S
C735 C734 1.394 . S
C735 C736 1.383 . S
C735 H743 0.929 . S
C736 C735 1.383 . S
C736 C737 1.377 . S
C737 H721 0.930 . S
C737 C736 1.377 . S
C737 C738 1.379 . S
C738 H722 0.931 . S
C738 C732 1.383 . S
C738 C737 1.379 . S
H739 C733 0.959 . S
H740 C733 0.961 . S
H741 C733 0.960 . S
H742 C734 0.930 . S
H743 C735 0.929 . S
H744 C752 0.929 . S
H745 C754 0.930 . S
H746 C756 0.930 . S
H747 C759 0.929 . S
H748 C762 0.930 . S
H749 C764 0.960 . S
H750 C764 0.960 . S
H751 C764 0.960 . S
C752 H744 0.929 . S
C752 C753 1.377 . S
C752 C754 1.384 . S
C753 C752 1.377 . S
C753 C759 1.390 . S
C754 H745 0.930 . S
C754 C752 1.384 . S
C754 C755 1.372 . S
C755 C754 1.372 . S
C755 C756 1.400 . S
C755 C760 1.490 . S
C756 H746 0.930 . S
C756 C755 1.400 . S
C756 C759 1.386 . S
H757 C773 0.930 . S
H758 C774 0.931 . S
C759 H747 0.929 . S
C759 C753 1.390 . S
C759 C756 1.386 . S
C760 C755 1.490 . S
C760 C762 1.395 . S
C760 C763 1.403 . S
H761 C767 0.930 . S
C762 H748 0.930 . S
C762 C760 1.395 . S
C762 C765 1.403 . S
C763 C760 1.403 . S
C763 C764 1.524 . S
C763 C767 1.400 . S
C764 H749 0.960 . S
C764 H750 0.960 . S
C764 H751 0.960 . S
C764 C763 1.524 . S
C765 C762 1.403 . S
C765 C766 1.392 . S
C765 C769 1.495 . S
C766 C765 1.392 . S
C766 C767 1.385 . S
C766 C768 1.478 . S
C767 H761 0.930 . S
C767 C763 1.400 . S
C767 C766 1.385 . S
C768 C766 1.478 . S
C768 C770 1.381 . S
C768 C774 1.383 1_455 S
C769 C765 1.495 . S
C769 H775 0.959 . S
C769 H776 0.961 . S
C769 H777 0.960 . S
C770 C768 1.381 . S
C770 C771 1.394 1_455 S
C770 H778 0.930 . S
C771 C770 1.394 1_655 S
C771 C772 1.383 . S
C771 H779 0.929 . S
C772 C771 1.383 . S
C772 C773 1.377 . S
C773 H757 0.930 . S
C773 C772 1.377 . S
C773 C774 1.379 . S
C774 H758 0.931 . S
C774 C768 1.383 1_655 S
C774 C773 1.379 . S
H775 C769 0.959 . S
H776 C769 0.961 . S
H777 C769 0.960 . S
H778 C770 0.930 . S
H779 C771 0.929 . S
H780 C788 0.929 . S
H781 C790 0.930 . S
H782 C792 0.930 . S
H783 C795 0.929 . S
H784 C798 0.930 . S
H785 C800 0.960 . S
H786 C800 0.960 . S
H787 C800 0.960 . S
C788 H780 0.929 . S
C788 C789 1.377 . S
C788 C790 1.384 . S
C789 C788 1.377 . S
C789 C795 1.390 . S
C790 H781 0.930 . S
C790 C788 1.384 . S
C790 C791 1.372 . S
C791 C790 1.372 . S
C791 C792 1.400 . S
C791 C796 1.490 . S
C792 H782 0.930 . S
C792 C791 1.400 . S
C792 C795 1.386 . S
H793 C809 0.930 . S
H794 C810 0.931 . S
C795 H783 0.929 . S
C795 C789 1.390 . S
C795 C792 1.386 . S
C796 C791 1.490 . S
C796 C798 1.395 . S
C796 C799 1.403 . S
H797 C803 0.930 . S
C798 H784 0.930 . S
C798 C796 1.395 . S
C798 C801 1.403 . S
C799 C796 1.403 . S
C799 C800 1.524 . S
C799 C803 1.400 . S
C800 H785 0.960 . S
C800 H786 0.960 . S
C800 H787 0.960 . S
C800 C799 1.524 . S
C801 C798 1.403 . S
C801 C802 1.392 . S
C801 C805 1.495 . S
C802 C801 1.392 . S
C802 C803 1.385 . S
C802 C804 1.478 . S
C803 H797 0.930 . S
C803 C799 1.400 . S
C803 C802 1.385 . S
C804 C802 1.478 . S
C804 C806 1.381 1_545 S
C804 C810 1.383 . S
C805 C801 1.495 . S
C805 H811 0.959 . S
C805 H812 0.961 . S
C805 H813 0.960 . S
C806 C804 1.381 1_565 S
C806 C807 1.394 . S
C806 H814 0.930 . S
C807 C806 1.394 . S
C807 C808 1.383 . S
C807 H815 0.929 . S
C808 C807 1.383 . S
C808 C809 1.377 . S
C809 H793 0.930 . S
C809 C808 1.377 . S
C809 C810 1.379 1_565 S
C810 H794 0.931 . S
C810 C804 1.383 . S
C810 C809 1.379 1_545 S
H811 C805 0.959 . S
H812 C805 0.961 . S
H813 C805 0.960 . S
H814 C806 0.930 . S
H815 C807 0.929 . S
H816 C824 0.929 . S
H817 C826 0.930 . S
H818 C828 0.930 . S
H819 C831 0.929 . S
H820 C834 0.930 . S
H821 C836 0.960 . S
H822 C836 0.960 . S
H823 C836 0.960 . S
C824 H816 0.929 . S
C824 C825 1.377 . S
C824 C826 1.384 . S
C825 C824 1.377 . S
C825 C831 1.390 . S
C826 H817 0.930 . S
C826 C824 1.384 . S
C826 C827 1.372 . S
C827 C826 1.372 . S
C827 C828 1.400 . S
C827 C832 1.490 . S
C828 H818 0.930 . S
C828 C827 1.400 . S
C828 C831 1.386 . S
H829 C845 0.930 . S
H830 C846 0.931 . S
C831 H819 0.929 . S
C831 C825 1.390 . S
C831 C828 1.386 . S
C832 C827 1.490 . S
C832 C834 1.395 . S
C832 C835 1.403 . S
H833 C839 0.930 . S
C834 H820 0.930 . S
C834 C832 1.395 . S
C834 C837 1.403 . S
C835 C832 1.403 . S
C835 C836 1.524 . S
C835 C839 1.400 . S
C836 H821 0.960 . S
C836 H822 0.960 . S
C836 H823 0.960 . S
C836 C835 1.524 . S
C837 C834 1.403 . S
C837 C838 1.392 . S
C837 C841 1.495 . S
C838 C837 1.392 . S
C838 C839 1.385 . S
C838 C840 1.478 . S
C839 H833 0.930 . S
C839 C835 1.400 . S
C839 C838 1.385 . S
C840 C838 1.478 . S
C840 C842 1.381 . S
C840 C846 1.383 . S
C841 C837 1.495 . S
C841 H847 0.959 . S
C841 H848 0.961 . S
C841 H849 0.960 . S
C842 C840 1.381 . S
C842 C843 1.394 . S
C842 H850 0.930 . S
C843 C842 1.394 . S
C843 C844 1.383 . S
C843 H851 0.929 . S
C844 C843 1.383 . S
C844 C845 1.377 . S
C845 H829 0.930 . S
C845 C844 1.377 . S
C845 C846 1.379 . S
C846 H830 0.931 . S
C846 C840 1.383 . S
C846 C845 1.379 . S
H847 C841 0.959 . S
H848 C841 0.961 . S
H849 C841 0.960 . S
H850 C842 0.930 . S
H851 C843 0.929 . S
H852 C860 0.929 . S
H853 C862 0.930 . S
H854 C864 0.930 . S
H855 C867 0.929 . S
H856 C870 0.930 . S
H857 C872 0.960 1_455 S
H858 C872 0.960 . S
H859 C872 0.960 . S
C860 H852 0.929 . S
C860 C861 1.377 . S
C860 C862 1.384 . S
C861 C860 1.377 . S
C861 C867 1.390 . S
C862 H853 0.930 . S
C862 C860 1.384 . S
C862 C863 1.372 . S
C863 C862 1.372 . S
C863 C864 1.400 . S
C863 C868 1.490 . S
C864 H854 0.930 . S
C864 C863 1.400 . S
C864 C867 1.386 . S
H865 C881 0.930 . S
H866 C882 0.929 . S
C867 H855 0.929 . S
C867 C861 1.390 . S
C867 C864 1.386 . S
C868 C863 1.490 . S
C868 C870 1.395 . S
C868 C871 1.403 . S
H869 C875 0.930 1_455 S
C870 H856 0.930 . S
C870 C868 1.395 . S
C870 C873 1.403 1_556 S
C871 C868 1.403 . S
C871 C872 1.524 . S
C871 C875 1.400 . S
C872 H857 0.960 1_655 S
C872 H858 0.960 . S
C872 H859 0.960 . S
C872 C871 1.524 . S
C873 C870 1.403 1_554 S
C873 C874 1.386 1_554 S
C873 C877 1.495 . S
C874 C873 1.386 1_556 S
C874 C875 1.434 . S
C874 C876 1.438 1_556 S
C875 H869 0.930 1_655 S
C875 C871 1.400 . S
C875 C874 1.434 . S
C876 C874 1.438 1_554 S
C876 C878 1.381 1_655 S
C876 C882 1.383 1_655 S
C877 C873 1.495 . S
C877 H883 0.959 . S
C877 H884 0.961 . S
C877 H885 0.960 . S
C878 C876 1.381 1_455 S
C878 C879 1.394 . S
C878 H886 0.930 1_455 S
C879 C878 1.394 . S
C879 C880 1.383 . S
C879 H887 0.929 . S
C880 C879 1.383 . S
C880 C881 1.377 . S
C881 H865 0.930 . S
C881 C880 1.377 . S
C881 C882 1.379 . S
C882 H866 0.929 . S
C882 C876 1.383 1_455 S
C882 C881 1.379 . S
H883 C877 0.959 . S
H884 C877 0.961 . S
H885 C877 0.960 . S
H886 C878 0.930 1_655 S
H887 C879 0.929 . S
H888 C896 0.929 . S
H889 C898 0.930 . S
H890 C900 0.930 . S
H891 C903 0.929 . S
H892 C906 0.930 . S
H893 C908 0.960 . S
H894 C908 0.960 . S
H895 C908 0.960 . S
C896 H888 0.929 . S
C896 C897 1.377 . S
C896 C898 1.384 . S
C897 C896 1.377 . S
C897 C903 1.390 . S
C898 H889 0.930 . S
C898 C896 1.384 . S
C898 C899 1.372 . S
C899 C898 1.372 . S
C899 C900 1.400 . S
C899 C904 1.490 . S
C900 H890 0.930 . S
C900 C899 1.400 . S
C900 C903 1.386 . S
H901 C917 0.930 . S
H902 C918 0.931 . S
C903 H891 0.929 . S
C903 C897 1.390 . S
C903 C900 1.386 . S
C904 C899 1.490 . S
C904 C906 1.395 . S
C904 C907 1.403 . S
H905 C911 0.930 . S
C906 H892 0.930 . S
C906 C904 1.395 . S
C906 C909 1.403 . S
C907 C904 1.403 . S
C907 C908 1.524 . S
C907 C911 1.400 . S
C908 H893 0.960 . S
C908 H894 0.960 . S
C908 H895 0.960 . S
C908 C907 1.524 . S
C909 C906 1.403 . S
C909 C910 1.392 . S
C909 C913 1.495 1_565 S
C910 C909 1.392 . S
C910 C911 1.385 . S
C910 C912 1.478 1_565 S
C911 H905 0.930 . S
C911 C907 1.400 . S
C911 C910 1.385 . S
C912 C910 1.478 1_545 S
C912 C914 1.381 . S
C912 C918 1.383 . S
C913 C909 1.495 1_545 S
C913 H919 0.959 . S
C913 H920 0.961 . S
C913 H921 0.960 . S
C914 C912 1.381 . S
C914 C915 1.394 . S
C914 H922 0.930 . S
C915 C914 1.394 . S
C915 C916 1.383 . S
C915 H923 0.929 . S
C916 C915 1.383 . S
C916 C917 1.377 . S
C917 H901 0.930 . S
C917 C916 1.377 . S
C917 C918 1.379 . S
C918 H902 0.931 . S
C918 C912 1.383 . S
C918 C917 1.379 . S
H919 C913 0.959 . S
H920 C913 0.961 . S
H921 C913 0.960 . S
H922 C914 0.930 . S
H923 C915 0.929 . S
H924 C932 0.929 . S
H925 C934 0.930 . S
H926 C936 0.930 . S
H927 C939 0.929 . S
H928 C942 0.930 . S
H929 C944 0.960 . S
H930 C944 0.960 . S
H931 C944 0.960 . S
C932 H924 0.929 . S
C932 C933 1.377 . S
C932 C934 1.384 . S
C933 C932 1.377 . S
C933 C939 1.390 . S
C934 H925 0.930 . S
C934 C932 1.384 . S
C934 C935 1.372 . S
C935 C934 1.372 . S
C935 C936 1.400 . S
C935 C940 1.490 . S
C936 H926 0.930 . S
C936 C935 1.400 . S
C936 C939 1.386 . S
H937 C953 0.930 . S
H938 C954 0.931 . S
C939 H927 0.929 . S
C939 C933 1.390 . S
C939 C936 1.386 . S
C940 C935 1.490 . S
C940 C942 1.395 . S
C940 C943 1.403 . S
H941 C947 0.930 . S
C942 H928 0.930 . S
C942 C940 1.395 . S
C942 C945 1.403 . S
C943 C940 1.403 . S
C943 C944 1.524 . S
C943 C947 1.400 . S
C944 H929 0.960 . S
C944 H930 0.960 . S
C944 H931 0.960 . S
C944 C943 1.524 . S
C945 C942 1.403 . S
C945 C946 1.392 . S
C945 C949 1.495 . S
C946 C945 1.392 . S
C946 C947 1.385 . S
C946 C948 1.478 . S
C947 H941 0.930 . S
C947 C943 1.400 . S
C947 C946 1.385 . S
C948 C946 1.478 . S
C948 C950 1.381 . S
C948 C954 1.383 . S
C949 C945 1.495 . S
C949 H955 0.959 . S
C949 H956 0.961 . S
C949 H957 0.960 . S
C950 C948 1.381 . S
C950 C951 1.394 . S
C950 H958 0.930 . S
C951 C950 1.394 . S
C951 C952 1.383 . S
C951 H959 0.929 . S
C952 C951 1.383 . S
C952 C953 1.377 . S
C953 H937 0.930 . S
C953 C952 1.377 . S
C953 C954 1.379 . S
C954 H938 0.931 . S
C954 C948 1.383 . S
C954 C953 1.379 . S
H955 C949 0.959 . S
H956 C949 0.961 . S
H957 C949 0.960 . S
H958 C950 0.930 . S
H959 C951 0.929 . S
H960 C968 0.929 . S
H961 C970 0.930 . S
H962 C972 0.930 . S
H963 C975 0.929 . S
H964 C978 0.930 . S
H965 C980 0.960 . S
H966 C980 0.960 . S
H967 C980 0.960 . S
C968 H960 0.929 . S
C968 C969 1.377 . S
C968 C970 1.384 . S
C969 C968 1.377 . S
C969 C975 1.390 . S
C970 H961 0.930 . S
C970 C968 1.384 . S
C970 C971 1.372 . S
C971 C970 1.372 . S
C971 C972 1.400 . S
C971 C976 1.490 . S
C972 H962 0.930 . S
C972 C971 1.400 . S
C972 C975 1.386 . S
H973 C989 0.930 . S
H974 C990 0.931 . S
C975 H963 0.929 . S
C975 C969 1.390 . S
C975 C972 1.386 . S
C976 C971 1.490 . S
C976 C978 1.395 . S
C976 C979 1.403 . S
H977 C983 0.930 . S
C978 H964 0.930 . S
C978 C976 1.395 . S
C978 C981 1.403 . S
C979 C976 1.403 . S
C979 C980 1.524 . S
C979 C983 1.400 . S
C980 H965 0.960 . S
C980 H966 0.960 . S
C980 H967 0.960 . S
C980 C979 1.524 . S
C981 C978 1.403 . S
C981 C982 1.392 . S
C981 C985 1.495 . S
C982 C981 1.392 . S
C982 C983 1.385 . S
C982 C984 1.478 . S
C983 H977 0.930 . S
C983 C979 1.400 . S
C983 C982 1.385 . S
C984 C982 1.478 . S
C984 C986 1.381 1_455 S
C984 C990 1.383 . S
C985 C981 1.495 . S
C985 H991 0.959 . S
C985 H992 0.961 . S
C985 H993 0.960 . S
C986 C984 1.381 1_655 S
C986 C987 1.394 . S
C986 H994 0.930 . S
C987 C986 1.394 . S
C987 C988 1.383 . S
C987 H995 0.929 . S
C988 C987 1.383 . S
C988 C989 1.377 . S
C989 H973 0.930 . S
C989 C988 1.377 . S
C989 C990 1.379 1_655 S
C990 H974 0.931 . S
C990 C984 1.383 . S
C990 C989 1.379 1_455 S
H991 C985 0.959 . S
H992 C985 0.961 . S
H993 C985 0.960 . S
H994 C986 0.930 . S
H995 C987 0.929 . S
H996 C1004 0.929 . S
H997 C1006 0.930 . S
H998 C1008 0.930 . S
H999 C1011 0.929 . S
H1000 C1014 0.930 1_565 S
H1001 C1016 0.960 . S
H1002 C1016 0.960 . S
H1003 C1016 0.960 . S
C1004 H996 0.929 . S
C1004 C1005 1.377 . S
C1004 C1006 1.384 . S
C1005 C1004 1.377 . S
C1005 C1011 1.390 . S
C1006 H997 0.930 . S
C1006 C1004 1.384 . S
C1006 C1007 1.372 1_565 S
C1007 C1006 1.372 1_545 S
C1007 C1008 1.400 . S
C1007 C1012 1.490 . S
C1008 H998 0.930 . S
C1008 C1007 1.400 . S
C1008 C1011 1.386 1_545 S
H1009 C1025 0.930 . S
H1010 C1026 0.931 . S
C1011 H999 0.929 . S
C1011 C1005 1.390 . S
C1011 C1008 1.386 1_565 S
C1012 C1007 1.490 . S
C1012 C1014 1.395 . S
C1012 C1015 1.403 . S
H1013 C1019 0.930 . S
C1014 H1000 0.930 1_545 S
C1014 C1012 1.395 . S
C1014 C1017 1.403 . S
C1015 C1012 1.403 . S
C1015 C1016 1.524 . S
C1015 C1019 1.400 . S
C1016 H1001 0.960 . S
C1016 H1002 0.960 . S
C1016 H1003 0.960 . S
C1016 C1015 1.524 . S
C1017 C1014 1.403 . S
C1017 C1018 1.392 . S
C1017 C1021 1.495 . S
C1018 C1017 1.392 . S
C1018 C1019 1.385 . S
C1018 C1020 1.478 . S
C1019 H1013 0.930 . S
C1019 C1015 1.400 . S
C1019 C1018 1.385 . S
C1020 C1018 1.478 . S
C1020 C1022 1.381 . S
C1020 C1026 1.383 . S
C1021 C1017 1.495 . S
C1021 H1027 0.959 . S
C1021 H1028 0.961 . S
C1021 H1029 0.960 . S
C1022 C1020 1.381 . S
C1022 C1023 1.394 . S
C1022 H1030 0.930 . S
C1023 C1022 1.394 . S
C1023 C1024 1.383 . S
C1023 H1031 0.929 . S
C1024 C1023 1.383 . S
C1024 C1025 1.377 . S
C1025 H1009 0.930 . S
C1025 C1024 1.377 . S
C1025 C1026 1.379 . S
C1026 H1010 0.931 . S
C1026 C1020 1.383 . S
C1026 C1025 1.379 . S
H1027 C1021 0.959 . S
H1028 C1021 0.961 . S
H1029 C1021 0.960 . S
H1030 C1022 0.930 . S
H1031 C1023 0.929 . S
C177 C120 1.232 . S
C196 C8 1.231 . S
C213 C22 1.233 . S
C232 C134 1.230 . S
C249 C36 1.233 . S
C268 C148 1.232 . S
C285 C50 1.233 . S
C304 C162 1.232 . S
C321 C92 1.233 . S
C340 C64 1.232 . S
C357 C78 1.232 . S
C376 C106 1.228 . S
C393 C135 0.806 . S
C412 C9 0.782 . S
C429 C23 0.796 . S
C448 C149 0.842 . S
C465 C163 0.795 . S
C484 C37 0.835 . S
C501 C51 0.807 . S
C520 C93 0.776 . S
C537 C107 0.796 . S
C556 C65 0.842 . S
C573 C121 0.799 . S
C592 C79 0.831 . S
C609 C3 1.378 . S
C628 C77 1.321 . S
C645 C17 1.380 . S
C664 C7 1.337 . S
C681 C21 1.343 . S
C700 C31 1.363 . S
C717 C45 1.383 . S
C736 C35 1.362 . S
C753 C59 1.385 . S
C772 C49 1.375 . S
C789 C73 1.378 . S
C808 C63 1.322 . S
C825 C87 1.378 . S
C844 C105 1.322 . S
C861 C101 1.382 . S
C880 C119 1.356 . S
C897 C115 1.379 . S
C916 C133 1.334 . S
C933 C129 1.380 . S
C952 C147 1.337 . S
C969 C143 1.379 . S
C988 C161 1.337 . S
C1005 C91 1.341 . S
C1024 C157 1.358 . S
