# Generated by pormake.
# Topology bcg, (8)-cn, num edge types: 1
# Building blocks:
#     Node 0, Type 0, BuildingBlock: EBIMEJ_clean_sbu_0, # of connection points: 8
#     Node 1, Type 0, BuildingBlock: EBIMEJ_clean_sbu_0, # of connection points: 8
#     Node 2, Type 0, BuildingBlock: EBIMEJ_clean_sbu_0, # of connection points: 8
#     Node 3, Type 0, BuildingBlock: EBIMEJ_clean_sbu_0, # of connection points: 8
#     Edge 4, Type (0, 0), BuildingBlock: FUNLAD_clean_linker_1, # of connection points: 2
#     Edge 5, Type (0, 0), BuildingBlock: FUNLAD_clean_linker_1, # of connection points: 2
#     Edge 6, Type (0, 0), BuildingBlock: FUNLAD_clean_linker_1, # of connection points: 2
#     Edge 7, Type (0, 0), BuildingBlock: FUNLAD_clean_linker_1, # of connection points: 2
#     Edge 8, Type (0, 0), BuildingBlock: FUNLAD_clean_linker_1, # of connection points: 2
#     Edge 9, Type (0, 0), BuildingBlock: FUNLAD_clean_linker_1, # of connection points: 2
#     Edge 10, Type (0, 0), BuildingBlock: FUNLAD_clean_linker_1, # of connection points: 2
#     Edge 11, Type (0, 0), BuildingBlock: FUNLAD_clean_linker_1, # of connection points: 2
#     Edge 12, Type (0, 0), BuildingBlock: FUNLAD_clean_linker_1, # of connection points: 2
#     Edge 13, Type (0, 0), BuildingBlock: FUNLAD_clean_linker_1, # of connection points: 2
#     Edge 14, Type (0, 0), BuildingBlock: FUNLAD_clean_linker_1, # of connection points: 2
#     Edge 15, Type (0, 0), BuildingBlock: FUNLAD_clean_linker_1, # of connection points: 2
#     Edge 16, Type (0, 0), BuildingBlock: FUNLAD_clean_linker_1, # of connection points: 2
#     Edge 17, Type (0, 0), BuildingBlock: FUNLAD_clean_linker_1, # of connection points: 2
#     Edge 18, Type (0, 0), BuildingBlock: FUNLAD_clean_linker_1, # of connection points: 2
#     Edge 19, Type (0, 0), BuildingBlock: FUNLAD_clean_linker_1, # of connection points: 2
# Relax obj value: 0.041
# Max RMSD: 0.091
# Mean RMSD: 0.091
data_MOF--net-bcg--node1-EBIMEJ_clean_sbu_0--edge1-FUNLAD_clean_linker_1
_symmetry_space_group_name_H-M    P1
_symmetry_Int_Tables_number       1
_symmetry_cell_setting            triclinic
loop_
_symmetry_equiv_pos_as_xyz
'x, y, z'
_cell_length_a     17.427109
_cell_length_b     29.246356
_cell_length_c     35.229284
_cell_angle_alpha  82.361684
_cell_angle_beta   90.103335
_cell_angle_gamma 90.031826
loop_
_atom_site_label
_atom_site_type_symbol
_atom_site_fract_x
_atom_site_fract_y
_atom_site_fract_z
_atom_type_partial_charge
Co0 Co 0.16201 0.24477 0.95672 0.0
Co1 Co 0.32073 0.25907 1.00426 0.0
Co2 Co 0.17164 0.25039 0.04747 0.0
H3 H 0.18319 0.25637 1.00189 0.0
O4 O 0.21416 0.27896 0.99501 0.0
H5 H 0.30977 0.25427 0.04952 0.0
O6 O 0.27906 0.23184 0.0572 0.0
Co7 Co 0.33146 0.26768 0.09386 0.0
O8 O 0.43376 0.24209 0.07874 0.0
O9 O 0.42652 0.23795 1.01557 0.0
O10 O 0.24627 0.25346 0.13315 0.0
O11 O 0.14078 0.23289 0.10257 0.0
O12 O 0.11716 0.21929 0.90925 0.0
O13 O 0.15313 0.28742 0.90504 0.0
O14 O 0.31223 0.33313 0.07065 0.0
O15 O 0.3521 0.32463 1.01204 0.0
C16 C 0.02835 0.2741 1.00357 0.0
C17 C 0.3207 0.25224 0.92335 0.0
C18 C 0.40618 0.27993 0.15229 0.0
C19 C 0.12137 0.16354 1.01232 0.0
C20 C 0.46276 0.23318 0.04733 0.0
C21 C 0.17688 0.23941 0.13316 0.0
C22 C 0.1237 0.25688 0.88767 0.0
C23 C 0.33869 0.35001 0.03831 0.0
O24 O 0.05828 0.26728 0.97185 0.0
O25 O 0.0644 0.26899 0.03542 0.0
O26 O 0.34854 0.2748 0.94891 0.0
O27 O 0.25952 0.22839 0.92922 0.0
O28 O 0.35628 0.24908 0.15132 0.0
O29 O 0.41343 0.30398 0.12021 0.0
O30 O 0.11778 0.18317 0.978 0.0
O31 O 0.14796 0.184 0.03956 0.0
Co32 Co 0.66498 0.74577 0.94333 0.0
Co33 Co 0.82173 0.7504 0.99436 0.0
Co34 Co 0.66945 0.75334 0.03317 0.0
H35 H 0.68524 0.75802 0.98822 0.0
O36 O 0.72078 0.77801 0.98185 0.0
H37 H 0.80608 0.74426 0.03912 0.0
O38 O 0.7699 0.72454 0.04519 0.0
Co39 Co 0.8282 0.75426 0.08425 0.0
O40 O 0.93799 0.74709 0.06562 0.0
O41 O 0.92207 0.72219 1.00865 0.0
O42 O 0.73967 0.73588 0.12084 0.0
O43 O 0.63048 0.7372 0.08676 0.0
O44 O 0.56241 0.73364 0.91709 0.0
O45 O 0.6597 0.74939 0.8841 0.0
O46 O 0.81872 0.82133 0.06322 0.0
O47 O 0.86042 0.81358 1.00482 0.0
C48 C 0.53144 0.78063 0.98918 0.0
C49 C 0.82755 0.76535 0.90901 0.0
C50 C 0.88565 0.7473 0.1498 0.0
C51 C 0.64377 0.66452 0.99787 0.0
C52 C 0.96392 0.72978 0.03674 0.0
C53 C 0.66709 0.73176 0.11853 0.0
C54 C 0.58946 0.73968 0.88385 0.0
C55 C 0.84737 0.83843 0.03145 0.0
O56 O 0.55755 0.76429 0.95981 0.0
O57 O 0.57089 0.78328 0.01915 0.0
O58 O 0.8601 0.76746 0.94125 0.0
O59 O 0.75599 0.75618 0.90574 0.0
O60 O 0.88093 0.78452 0.12754 0.0
O61 O 0.85783 0.71428 0.13489 0.0
O62 O 0.67861 0.68 0.96729 0.0
O63 O 0.62686 0.69095 0.02287 0.0
Co64 Co 0.16986 0.76439 0.58205 0.0
Co65 Co 0.32224 0.74796 0.52998 0.0
Co66 Co 0.1675 0.75118 0.49268 0.0
H67 H 0.18555 0.74918 0.53755 0.0
O68 O 0.2181 0.72746 0.54429 0.0
H69 H 0.30493 0.75385 0.48519 0.0
O70 O 0.27087 0.77488 0.47908 0.0
Co71 Co 0.3233 0.74287 0.43975 0.0
O72 O 0.43435 0.74489 0.45677 0.0
O73 O 0.42651 0.76855 0.5146 0.0
O74 O 0.23465 0.76258 0.40391 0.0
O75 O 0.12748 0.76502 0.43889 0.0
O76 O 0.15075 0.74853 0.6405 0.0
O77 O 0.09154 0.80227 0.60896 0.0
O78 O 0.31259 0.67602 0.46094 0.0
O79 O 0.34907 0.68236 0.52068 0.0
C80 C 0.03617 0.72137 0.54234 0.0
C81 C 0.33283 0.74066 0.61438 0.0
C82 C 0.37985 0.74971 0.37402 0.0
C83 C 0.13499 0.84358 0.52431 0.0
C84 C 0.46491 0.75887 0.486 0.0
C85 C 0.1627 0.76844 0.40681 0.0
C86 C 0.10107 0.77954 0.64143 0.0
C87 C 0.3371 0.65815 0.49346 0.0
O88 O 0.07011 0.73143 0.57229 0.0
O89 O 0.0658 0.72744 0.50898 0.0
O90 O 0.36057 0.73054 0.58302 0.0
O91 O 0.26495 0.7568 0.61712 0.0
O92 O 0.37555 0.71257 0.3964 0.0
O93 O 0.35186 0.7827 0.38886 0.0
O94 O 0.157 0.83061 0.55845 0.0
O95 O 0.13384 0.81609 0.49895 0.0
Co96 Co 0.66595 0.26267 0.59812 0.0
Co97 Co 0.82537 0.2634 0.54552 0.0
Co98 Co 0.67235 0.2533 0.50866 0.0
H99 H 0.68882 0.25093 0.55337 0.0
O100 O 0.72691 0.23287 0.55999 0.0
H101 H 0.80929 0.26337 0.50058 0.0
O102 O 0.77189 0.28192 0.49371 0.0
Co103 Co 0.83127 0.24939 0.45617 0.0
O104 O 0.93962 0.26458 0.47361 0.0
O105 O 0.92264 0.29365 0.52884 0.0
O106 O 0.73617 0.25478 0.42088 0.0
O107 O 0.63144 0.26569 0.45565 0.0
O108 O 0.58014 0.27983 0.63496 0.0
O109 O 0.67253 0.23967 0.656 0.0
O110 O 0.85827 0.18502 0.48044 0.0
O111 O 0.86984 0.20035 0.54055 0.0
C112 C 0.53121 0.23319 0.55221 0.0
C113 C 0.83109 0.24819 0.6312 0.0
C114 C 0.88054 0.25373 0.38881 0.0
C115 C 0.6386 0.34343 0.54195 0.0
C116 C 0.96443 0.28526 0.50104 0.0
C117 C 0.66428 0.26254 0.42378 0.0
C118 C 0.61145 0.25863 0.6643 0.0
C119 C 0.87711 0.1731 0.51522 0.0
O120 O 0.55629 0.25281 0.58011 0.0
O121 O 0.57376 0.22403 0.52494 0.0
O122 O 0.86648 0.25329 0.59917 0.0
O123 O 0.75811 0.24949 0.63388 0.0
O124 O 0.89457 0.22113 0.41489 0.0
O125 O 0.83806 0.28338 0.40084 0.0
O126 O 0.6665 0.3289 0.57456 0.0
O127 O 0.6305 0.3169 0.51602 0.0
H128 H 0.57472 0.21953 0.07486 0.0
C129 C 0.54493 0.22307 0.04743 0.0
H130 H 0.55736 0.23455 0.98722 0.0
H131 H 0.8492 0.35453 1.0171 0.0
H132 H 0.75871 0.41353 0.9907 0.0
H133 H 0.62576 0.39299 0.97566 0.0
H134 H 0.58206 0.31373 0.98774 0.0
C135 C 0.58562 0.22809 1.01494 0.0
C136 C 0.66815 0.23846 1.01708 0.0
C137 C 0.69253 0.285 1.00925 0.0
C138 C 0.76931 0.29671 1.01705 0.0
C139 C 0.79188 0.34364 1.01057 0.0
C140 C 0.74045 0.37785 0.99563 0.0
C141 C 0.66556 0.36631 0.98727 0.0
C142 C 0.64127 0.3206 0.99434 0.0
H143 H 0.91695 0.28782 0.97565 0.0
C144 C 0.9456 0.28198 1.00336 0.0
H145 H 0.93119 0.26329 0.06293 0.0
H146 H 0.63979 0.14586 0.03161 0.0
H147 H 0.73193 0.0861 0.05461 0.0
H148 H 0.86646 0.10597 0.06697 0.0
H149 H 0.90958 0.18543 0.05684 0.0
C150 C 0.90373 0.27243 0.03522 0.0
C151 C 0.82164 0.26159 0.03143 0.0
C152 C 0.79775 0.21483 0.03816 0.0
C153 C 0.72059 0.20327 0.03095 0.0
C154 C 0.69782 0.1564 0.03719 0.0
C155 C 0.75016 0.1218 0.05015 0.0
C156 C 0.82592 0.13298 0.05709 0.0
C157 C 0.84983 0.17885 0.0512 0.0
H158 H 0.06611 0.7027 1.01113 0.0
C159 C 0.0467 0.72379 0.03247 0.0
H160 H 0.07845 0.77478 0.06681 0.0
H161 H 0.41824 0.69182 0.02678 0.0
H162 H 0.39046 0.63193 0.07947 0.0
H163 H 0.26379 0.62777 0.11098 0.0
H164 H 0.16435 0.68383 0.09007 0.0
C165 C 0.09723 0.7505 0.04791 0.0
C166 C 0.17551 0.75527 0.03183 0.0
C167 C 0.2324 0.72219 0.04429 0.0
C168 C 0.30499 0.7245 0.026 0.0
C169 C 0.36164 0.69144 0.03938 0.0
C170 C 0.34653 0.65693 0.06967 0.0
C171 C 0.27524 0.65459 0.08741 0.0
C172 C 0.21861 0.68681 0.07504 0.0
H173 H 0.43166 0.8135 1.01194 0.0
C174 C 0.44949 0.79054 0.9917 0.0
H175 H 0.41496 0.73684 0.96093 0.0
H176 H 0.07896 0.82504 1.00218 0.0
H177 H 0.10648 0.885 0.94943 0.0
H178 H 0.23206 0.88815 0.91685 0.0
H179 H 0.33091 0.83137 0.93701 0.0
C180 C 0.39733 0.76336 0.978 0.0
C181 C 0.31997 0.75989 0.99527 0.0
C182 C 0.2633 0.79324 0.98306 0.0
C183 C 0.19095 0.79115 1.00161 0.0
C184 C 0.13492 0.8249 0.98895 0.0
C185 C 0.14999 0.85952 0.95873 0.0
C186 C 0.22072 0.86132 0.94043 0.0
C187 C 0.27698 0.82864 0.95233 0.0
H188 H 0.58163 0.75725 0.46276 0.0
C189 C 0.54845 0.75759 0.48885 0.0
H190 H 0.55077 0.74796 0.54958 0.0
H191 H 0.86206 0.64521 0.49153 0.0
H192 H 0.7724 0.58835 0.4732 0.0
H193 H 0.63306 0.59844 0.48041 0.0
H194 H 0.58205 0.66593 0.50498 0.0
C195 C 0.583 0.74903 0.52308 0.0
C196 C 0.66569 0.73854 0.52548 0.0
C197 C 0.69391 0.69805 0.51216 0.0
C198 C 0.77405 0.6915 0.50914 0.0
C199 C 0.80138 0.65163 0.49466 0.0
C200 C 0.75063 0.61871 0.48411 0.0
C201 C 0.67208 0.62449 0.48803 0.0
C202 C 0.64364 0.66355 0.50193 0.0
H203 H 0.9303 0.70204 0.57443 0.0
C204 C 0.9547 0.70961 0.54588 0.0
H205 H 0.93096 0.72818 0.48683 0.0
H206 H 0.62856 0.81617 0.55722 0.0
H207 H 0.71805 0.87183 0.5776 0.0
H208 H 0.85766 0.86162 0.57085 0.0
H209 H 0.90854 0.796 0.54419 0.0
C210 C 0.90822 0.71901 0.51554 0.0
C211 C 0.8251 0.72458 0.52066 0.0
C212 C 0.79687 0.76401 0.53573 0.0
C213 C 0.71667 0.77052 0.53874 0.0
C214 C 0.68924 0.80984 0.55405 0.0
C215 C 0.7399 0.84204 0.56584 0.0
C216 C 0.81847 0.83627 0.56212 0.0
C217 C 0.84695 0.79804 0.54701 0.0
H218 H 0.06462 0.31463 0.52662 0.0
C219 C 0.04683 0.29371 0.50481 0.0
H220 H 0.08222 0.24494 0.46936 0.0
H221 H 0.40396 0.33646 0.53331 0.0
H222 H 0.3694 0.40645 0.49202 0.0
H223 H 0.24729 0.41186 0.45624 0.0
H224 H 0.15873 0.34717 0.46166 0.0
C225 C 0.09946 0.26875 0.48901 0.0
C226 C 0.17712 0.26395 0.5063 0.0
C227 C 0.22832 0.30191 0.5026 0.0
C228 C 0.29897 0.29854 0.52293 0.0
C229 C 0.34936 0.33698 0.51861 0.0
C230 C 0.33033 0.37742 0.49495 0.0
C231 C 0.26151 0.3805 0.47485 0.0
C232 C 0.21099 0.34324 0.4784 0.0
H233 H 0.43035 0.20594 0.52551 0.0
C234 C 0.44854 0.22647 0.54752 0.0
H235 H 0.41422 0.27529 0.58319 0.0
H236 H 0.09136 0.1845 0.51963 0.0
H237 H 0.12536 0.11474 0.56119 0.0
H238 H 0.24744 0.10938 0.59716 0.0
H239 H 0.33642 0.17389 0.59142 0.0
C240 C 0.39651 0.25185 0.56332 0.0
C241 C 0.31858 0.25688 0.54634 0.0
C242 C 0.26716 0.21901 0.55021 0.0
C243 C 0.19655 0.22237 0.52986 0.0
C244 C 0.14597 0.184 0.53432 0.0
C245 C 0.16469 0.14367 0.55818 0.0
C246 C 0.23346 0.14063 0.57836 0.0
C247 C 0.28422 0.17778 0.57462 0.0
H248 H 0.64152 0.59363 0.98251 0.0
C249 C 0.61621 0.61582 1.00154 0.0
H250 H 0.52685 0.62217 0.04077 0.0
H251 H 0.31342 0.47114 0.98127 0.0
H252 H 0.24507 0.5417 0.9585 0.0
H253 H 0.30253 0.61773 0.96369 0.0
H254 H 0.42898 0.62369 0.99125 0.0
C255 C 0.55643 0.59944 0.02362 0.0
C256 C 0.52188 0.55264 0.02099 0.0
C257 C 0.44757 0.54928 1.00487 0.0
C258 C 0.41402 0.50518 1.00209 0.0
C259 C 0.34086 0.50346 0.98483 0.0
C260 C 0.30114 0.54374 0.97144 0.0
C261 C 0.33349 0.58655 0.97434 0.0
C262 C 0.40599 0.58949 0.99051 0.0
H263 H 0.3346 0.42117 0.05294 0.0
C264 C 0.36132 0.39962 0.03381 0.0
H265 H 0.45258 0.3948 0.99543 0.0
H266 H 0.66204 0.54561 0.05618 0.0
H267 H 0.72885 0.4751 0.08064 0.0
H268 H 0.67069 0.39909 0.07632 0.0
H269 H 0.54566 0.39297 0.04726 0.0
C270 C 0.42094 0.41714 1.01215 0.0
C271 C 0.45426 0.46402 1.01578 0.0
C272 C 0.52798 0.4674 0.03258 0.0
C273 C 0.56168 0.51149 0.03516 0.0
C274 C 0.63441 0.51327 0.05285 0.0
C275 C 0.67321 0.47303 0.06726 0.0
C276 C 0.64043 0.43023 0.06487 0.0
C277 C 0.56868 0.42723 0.04791 0.0
H278 H 0.63009 0.41435 0.55634 0.0
C279 C 0.60901 0.3916 0.5366 0.0
H280 H 0.52733 0.38427 0.49344 0.0
H281 H 0.37935 0.54989 0.58515 0.0
H282 H 0.36581 0.48938 0.63893 0.0
H283 H 0.41644 0.41128 0.63565 0.0
H284 H 0.4818 0.39328 0.57889 0.0
C285 C 0.55039 0.40646 0.5131 0.0
C286 C 0.51382 0.45299 0.51416 0.0
C287 C 0.47361 0.46286 0.54723 0.0
C288 C 0.44234 0.50777 0.54874 0.0
C289 C 0.40393 0.51652 0.58242 0.0
C290 C 0.39549 0.48205 0.61345 0.0
C291 C 0.42412 0.4381 0.61163 0.0
C292 C 0.4623 0.42835 0.57895 0.0
H293 H 0.33266 0.58768 0.47747 0.0
C294 C 0.35891 0.60853 0.49732 0.0
H295 H 0.44609 0.61089 0.5387 0.0
H296 H 0.58129 0.44523 0.4455 0.0
H297 H 0.59192 0.505 0.39103 0.0
H298 H 0.53914 0.58271 0.39369 0.0
H299 H 0.47528 0.60121 0.45057 0.0
C300 C 0.41785 0.59037 0.51923 0.0
C301 C 0.44849 0.54265 0.51677 0.0
C302 C 0.48659 0.5323 0.48321 0.0
C303 C 0.51849 0.48749 0.48187 0.0
C304 C 0.5562 0.47851 0.44808 0.0
C305 C 0.56283 0.51252 0.41661 0.0
C306 C 0.53294 0.55625 0.41808 0.0
C307 C 0.49561 0.56627 0.4509 0.0
H308 H 0.12883 0.09137 0.04129 0.0
C309 C 0.09638 0.11444 0.0205 0.0
H310 H 0.00343 0.12261 0.98233 0.0
H311 H 0.93814 0.92907 0.93703 0.0
H312 H 0.96338 0.97546 0.87625 0.0
H313 H 0.01404 0.05453 0.87356 0.0
H314 H 0.03887 0.08793 0.93148 0.0
C315 C 0.03537 0.09828 1.00241 0.0
C316 C 0.01204 0.04807 1.00532 0.0
C317 C 0.00074 0.02789 0.97106 0.0
C318 C 0.97396 0.98144 0.97258 0.0
C319 C 0.96016 0.96352 0.93773 0.0
C320 C 0.9742 0.98984 0.90253 0.0
C321 C 0.00252 0.03439 0.90102 0.0
C322 C 0.01598 0.05327 0.93467 0.0
H323 H 0.83631 0.91071 0.04274 0.0
C324 C 0.86979 0.88801 0.02715 0.0
H325 H 0.96877 0.88172 0.99415 0.0
H326 H 0.01125 0.07637 0.07662 0.0
H327 H -0.0025 0.02787 0.13738 0.0
H328 H 0.97375 0.94436 0.14006 0.0
H329 H 0.96005 0.90937 0.08191 0.0
C330 C 0.93449 0.90454 1.00921 0.0
C331 C 0.96099 0.95392 1.00833 0.0
C332 C 0.97568 0.97333 0.04264 0.0
C333 C -0.00292 0.02084 0.04114 0.0
C334 C 0.00166 0.04002 0.07591 0.0
C335 C 0.9928 0.01262 0.1111 0.0
C336 C 0.97885 0.96569 0.11261 0.0
C337 C 0.97028 0.94612 0.07892 0.0
H338 H 0.93642 0.12019 0.55583 0.0
C339 C 0.91402 0.12733 0.52683 0.0
H340 H 0.90347 0.10307 0.47336 0.0
H341 H 0.18085 0.96539 0.48471 0.0
H342 H 0.22061 0.02419 0.43365 0.0
H343 H 0.14679 0.09621 0.41858 0.0
H344 H 0.03301 0.11001 0.45462 0.0
C345 C 0.92372 0.09549 0.50271 0.0
C346 C 0.96884 0.05161 0.51314 0.0
C347 C 0.0353 0.0435 0.49162 0.0
C348 C 0.0775 1.00142 0.49997 0.0
C349 C 0.14505 0.99566 0.47883 0.0
C350 C 0.16907 0.02942 0.44963 0.0
C351 C 0.12757 0.06999 0.44118 0.0
C352 C 0.06191 0.07731 0.46199 0.0
H353 H 0.08 0.89957 0.48504 0.0
C354 C 0.10298 0.89091 0.5138 0.0
H355 H 0.11667 0.91289 0.568 0.0
H356 H 0.84068 0.0528 0.55799 0.0
H357 H 0.80181 0.99443 0.60951 0.0
H358 H 0.87676 0.92296 0.62523 0.0
H359 H 0.99041 0.90911 0.58918 0.0
C360 C 0.09622 0.92197 0.53882 0.0
C361 C 0.05291 0.96674 0.52959 0.0
C362 C 0.98708 0.97512 0.55148 0.0
C363 C 0.94456 0.01708 0.54296 0.0
C364 C 0.87693 0.02277 0.56407 0.0
C365 C 0.85342 0.98925 0.59356 0.0
C366 C 0.89557 0.94899 0.6024 0.0
C367 C 0.96113 0.94163 0.58152 0.0
H368 H 0.55378 0.2689 0.39241 0.0
C369 C 0.61556 0.2667 0.38882 0.0
H370 H 0.70594 0.26334 0.34949 0.0
H371 H 0.51914 0.18384 0.22049 0.0
H372 H 0.60569 0.12088 0.24213 0.0
H373 H 0.68728 0.12315 0.29912 0.0
H374 H 0.6828 0.1883 0.33486 0.0
C375 C 0.64442 0.26662 0.35331 0.0
C376 C 0.59406 0.26583 0.31882 0.0
C377 C 0.59661 0.22718 0.29834 0.0
C378 C 0.54869 0.22557 0.26569 0.0
C379 C 0.55334 0.18667 0.24573 0.0
C380 C 0.60298 0.15029 0.25777 0.0
C381 C 0.64896 0.15159 0.28983 0.0
C382 C 0.64593 0.18937 0.31003 0.0
H383 H 0.49682 0.3131 0.18324 0.0
C384 C 0.45332 0.28623 0.18628 0.0
H385 H 0.40382 0.23115 0.22276 0.0
H386 H 0.5826 0.3482 0.34741 0.0
H387 H 0.49453 0.41058 0.32642 0.0
H388 H 0.40494 0.40527 0.2729 0.0
H389 H 0.40394 0.33794 0.23954 0.0
C390 C 0.44541 0.2591 0.22008 0.0
C391 C 0.49782 0.26249 0.25339 0.0
C392 C 0.49563 0.30134 0.27366 0.0
C393 C 0.54487 0.30345 0.30583 0.0
C394 C 0.54429 0.34382 0.324 0.0
C395 C 0.49437 0.38008 0.31204 0.0
C396 C 0.44413 0.37717 0.28181 0.0
C397 C 0.44445 0.33837 0.26277 0.0
H398 H 0.66001 0.70878 0.18037 0.0
C399 C 0.62594 0.72219 0.15545 0.0
H400 H 0.51809 0.74974 0.13679 0.0
H401 H 0.34457 0.66632 0.28978 0.0
H402 H 0.28528 0.62338 0.2432 0.0
H403 H 0.33273 0.63056 0.17678 0.0
H404 H 0.44026 0.68059 0.15647 0.0
C405 C 0.55345 0.73564 0.16098 0.0
C406 C 0.52149 0.73356 0.2007 0.0
C407 C 0.45854 0.7043 0.21221 0.0
C408 C 0.43154 0.69988 0.25075 0.0
C409 C 0.36815 0.67059 0.26115 0.0
C410 C 0.33332 0.64586 0.23463 0.0
C411 C 0.36006 0.64989 0.19722 0.0
C412 C 0.42189 0.67869 0.18597 0.0
H413 H 0.40775 0.78856 0.31772 0.0
C414 C 0.41001 0.75456 0.33443 0.0
H415 H 0.43959 0.68465 0.33467 0.0
H416 H 0.63226 0.80028 0.18673 0.0
H417 H 0.69543 0.84075 0.23356 0.0
H418 H 0.65936 0.82623 0.30183 0.0
H419 H 0.55767 0.77254 0.32319 0.0
C420 C 0.43951 0.71902 0.31856 0.0
C421 C 0.46768 0.7246 0.27798 0.0
C422 C 0.53067 0.75403 0.26637 0.0
C423 C 0.55551 0.75984 0.22748 0.0
C424 C 0.61416 0.79237 0.21621 0.0
C425 C 0.6506 0.81618 0.2428 0.0
C426 C 0.62991 0.80824 0.28114 0.0
C427 C 0.5708 0.77757 0.29295 0.0
H428 H 0.43896 0.71814 0.64608 0.0
C429 C 0.3834 0.73434 0.64864 0.0
H430 H 0.31131 0.76769 0.68464 0.0
H431 H 0.52607 0.65696 0.82052 0.0
H432 H 0.44942 0.59065 0.80985 0.0
H433 H 0.35795 0.59516 0.75596 0.0
H434 H 0.34332 0.66596 0.71205 0.0
C435 C 0.36521 0.74981 0.68183 0.0
C436 C 0.4206 0.74677 0.71454 0.0
C437 C 0.42736 0.70556 0.7405 0.0
C438 C 0.47841 0.70345 0.7724 0.0
C439 C 0.48617 0.66113 0.79678 0.0
C440 C 0.44294 0.62264 0.79079 0.0
C441 C 0.39157 0.62515 0.76038 0.0
C442 C 0.38375 0.66598 0.73539 0.0
H443 H 0.48102 0.73159 0.85312 0.0
C444 C 0.54231 0.73727 0.8492 0.0
H445 H 0.6325 0.74932 0.80932 0.0
H446 H 0.42384 0.83034 0.66952 0.0
H447 H 0.5002 0.89693 0.68005 0.0
H448 H 0.58635 0.89407 0.73593 0.0
H449 H 0.59695 0.82469 0.78161 0.0
C450 C 0.57162 0.74235 0.81357 0.0
C451 C 0.52116 0.74307 0.77898 0.0
C452 C 0.51555 0.78397 0.75245 0.0
C453 C 0.46526 0.7858 0.72032 0.0
C454 C 0.46077 0.82716 0.69446 0.0
C455 C 0.5043 0.86563 0.70015 0.0
C456 C 0.55286 0.864 0.7316 0.0
C457 C 0.5585 0.82385 0.75758 0.0
H458 H 0.32941 0.23173 0.86581 0.0
C459 C 0.35767 0.25207 0.88548 0.0
H460 H 0.44896 0.29794 0.89174 0.0
H461 H 0.51343 0.18495 0.73891 0.0
H462 H 0.51924 0.11564 0.78475 0.0
H463 H 0.49893 0.1189 0.85361 0.0
H464 H 0.46999 0.19138 0.87676 0.0
C465 C 0.42118 0.27581 0.8734 0.0
C466 C 0.45013 0.27531 0.83325 0.0
C467 C 0.47285 0.23329 0.82043 0.0
C468 C 0.49062 0.23201 0.78106 0.0
C469 C 0.50487 0.18863 0.76872 0.0
C470 C 0.50747 0.14838 0.79471 0.0
C471 C 0.49558 0.15017 0.83343 0.0
C472 C 0.47837 0.19198 0.84629 0.0
H473 H 0.62397 0.24372 0.72687 0.0
C474 C 0.58479 0.25784 0.70428 0.0
H475 H 0.47683 0.28826 0.69135 0.0
H476 H 0.41057 0.3618 0.84775 0.0
H477 H 0.4125 0.43204 0.80272 0.0
H478 H 0.45272 0.43092 0.73577 0.0
H479 H 0.49046 0.35956 0.71328 0.0
C480 C 0.5156 0.27325 0.71381 0.0
C481 C 0.49239 0.27349 0.7549 0.0
C482 C 0.47219 0.31577 0.76804 0.0
C483 C 0.4505 0.3166 0.80702 0.0
C484 C 0.42855 0.35918 0.81876 0.0
C485 C 0.42933 0.39982 0.79318 0.0
C486 C 0.45189 0.39918 0.75547 0.0
C487 C 0.47324 0.35784 0.74291 0.0
H488 H 0.15425 0.79176 0.34518 0.0
C489 C 0.12074 0.77794 0.37013 0.0
H490 H 0.01434 0.74815 0.38865 0.0
H491 H 0.84807 0.8326 0.23243 0.0
H492 H 0.78781 0.87703 0.27763 0.0
H493 H 0.83153 0.87009 0.34472 0.0
H494 H 0.9364 0.81884 0.36712 0.0
C495 C 0.04908 0.76315 0.36458 0.0
C496 C 0.01821 0.76435 0.32473 0.0
C497 C 0.95678 0.79421 0.31199 0.0
C498 C 0.93196 0.79842 0.27307 0.0
C499 C 0.87006 0.82843 0.26142 0.0
C500 C 0.83468 0.85402 0.28711 0.0
C501 C 0.85934 0.85015 0.3249 0.0
C502 C 0.91962 0.82065 0.33737 0.0
H503 H 0.9114 0.70861 0.20643 0.0
C504 C 0.91442 0.74255 0.18964 0.0
H505 H 0.94369 0.81248 0.18951 0.0
H506 H 0.12737 0.69716 0.34106 0.0
H507 H 0.19202 0.65517 0.29565 0.0
H508 H 0.15904 0.6687 0.2269 0.0
H509 H 0.05998 0.72314 0.2035 0.0
C510 C 0.94297 0.77818 0.20575 0.0
C511 C 0.96883 0.77284 0.24673 0.0
C512 C 0.03033 0.74277 0.25959 0.0
C513 C 0.05301 0.7373 0.29882 0.0
C514 C 0.11066 0.70453 0.3113 0.0
C515 C 0.14791 0.6799 0.28556 0.0
C516 C 0.12908 0.68733 0.24694 0.0
C517 C 0.0713 0.71841 0.23393 0.0
H518 H 0.88598 0.28567 0.32842 0.0
C519 C 0.90631 0.25665 0.34838 0.0
H520 H 0.97216 0.19572 0.35519 0.0
H521 H 0.98739 0.15626 0.18459 0.0
H522 H 0.91072 0.09201 0.21423 0.0
H523 H 0.86275 0.09017 0.28025 0.0
H524 H 0.89191 0.15217 0.3173 0.0
C525 C 0.95366 0.22557 0.33562 0.0
C526 C 0.97849 0.22889 0.2944 0.0
C527 C 0.95991 0.19278 0.27263 0.0
C528 C 0.98634 0.19426 0.2341 0.0
C529 C 0.96817 0.15713 0.21367 0.0
C530 C 0.9242 0.12004 0.23034 0.0
C531 C 0.89729 0.11897 0.26754 0.0
C532 C 0.9147 0.15476 0.28855 0.0
H533 H 0.17658 0.23101 0.19611 0.0
C534 C 0.13906 0.23202 0.17129 0.0
H535 H 0.02332 0.23331 0.15312 0.0
H536 H 0.03321 0.30181 0.32817 0.0
H537 H 0.10112 0.36852 0.29693 0.0
H538 H 0.13343 0.37514 0.2283 0.0
H539 H 0.09994 0.31435 0.19082 0.0
C540 C 0.06268 0.23223 0.17716 0.0
C541 C 0.03064 0.23211 0.21688 0.0
C542 C 0.046 0.26934 0.23799 0.0
C543 C 0.02252 0.26698 0.27703 0.0
C544 C 0.04521 0.30285 0.298 0.0
C545 C 0.085 0.34126 0.28049 0.0
C546 C 0.10356 0.34488 0.24191 0.0
C547 C 0.08452 0.30948 0.2208 0.0
H548 H 0.11169 0.29833 0.83069 0.0
C549 C 0.10054 0.26467 0.84679 0.0
H550 H 0.05504 0.19814 0.84534 0.0
H551 H 0.88495 0.32299 0.69565 0.0
H552 H 0.83245 0.36974 0.7412 0.0
H553 H 0.87003 0.35609 0.80928 0.0
H554 H 0.96172 0.29662 0.83199 0.0
C555 C 0.06433 0.23222 0.82957 0.0
C556 C 0.03881 0.24023 0.78847 0.0
C557 C 0.98181 0.2737 0.77606 0.0
C558 C 0.95615 0.27957 0.73723 0.0
C559 C 0.9033 0.31537 0.72515 0.0
C560 C 0.87316 0.34275 0.75094 0.0
C561 C 0.89461 0.33521 0.78922 0.0
C562 C 0.94803 0.30111 0.80181 0.0
H563 H 0.83991 0.23177 0.69374 0.0
C564 C 0.87367 0.24169 0.66801 0.0
H565 H 0.98406 0.26159 0.64709 0.0
H566 H 0.15144 0.1749 0.8015 0.0
H567 H 0.20079 0.12679 0.75609 0.0
H568 H 0.1511 0.13424 0.68994 0.0
H569 H 0.05197 0.19009 0.66867 0.0
C570 C 0.9484 0.25171 0.6721 0.0
C571 C 0.98326 0.24991 0.71131 0.0
C572 C 0.04115 0.21714 0.72346 0.0
C573 C 0.06907 0.21241 0.76191 0.0
C574 C 0.12729 0.17952 0.77294 0.0
C575 C 0.15633 0.15176 0.74711 0.0
C576 C 0.1284 0.15598 0.70985 0.0
C577 C 0.07147 0.18818 0.69801 0.0
H578 H 0.00976 0.8128 0.67158 0.0
C579 C 0.05439 0.78665 0.67539 0.0
H580 H 0.10526 0.73339 0.71321 0.0
H581 H 0.90533 0.85216 0.83038 0.0
H582 H 0.98835 0.91681 0.80858 0.0
H583 H 0.08318 0.91169 0.75743 0.0
H584 H 0.09463 0.8422 0.72727 0.0
C585 C 0.06251 0.76068 0.70975 0.0
C586 C 0.00796 0.76382 0.74233 0.0
C587 C 0.00387 0.80411 0.76081 0.0
C588 C 0.95155 0.80627 0.79174 0.0
C589 C 0.94607 0.84786 0.80803 0.0
C590 C 0.99305 0.88539 0.79558 0.0
C591 C 0.04625 0.88257 0.76668 0.0
C592 C 0.05188 0.84252 0.74943 0.0
H593 H 0.93847 0.77637 0.87876 0.0
C594 C 0.87739 0.77142 0.87442 0.0
H595 H 0.79131 0.76179 0.83408 0.0
H596 H -0.00091 0.68169 0.71329 0.0
H597 H 0.92 0.61597 0.73689 0.0
H598 H 0.83436 0.61833 0.79222 0.0
H599 H 0.82684 0.68651 0.82417 0.0
C600 C 0.85176 0.76836 0.83868 0.0
C601 C 0.90555 0.76742 0.80545 0.0
C602 C 0.91014 0.72707 0.78714 0.0
C603 C 0.96087 0.72536 0.7556 0.0
C604 C 0.96284 0.68474 0.73772 0.0
C605 C 0.9175 0.64672 0.75089 0.0
C606 C 0.86919 0.64808 0.78199 0.0
C607 C 0.86531 0.6876 0.80001 0.0
loop_
_geom_bond_atom_site_label_1
_geom_bond_atom_site_label_2
_geom_bond_distance
_geom_bond_site_symmetry_2
_ccdc_geom_bond_type
Co0 H3 2.400 . S
Co0 O4 2.009 . S
Co0 O12 2.115 . S
Co0 O13 2.315 . S
Co0 O24 2.053 . S
Co0 O27 2.094 . S
Co0 O30 2.122 . S
Co1 O4 2.126 . S
Co1 H5 2.388 1_556 S
Co1 O6 2.053 1_556 S
Co1 O9 2.047 . S
Co1 O15 2.113 . S
Co1 O26 2.063 . S
Co2 H3 2.388 1_554 S
Co2 O4 2.053 1_554 S
Co2 O6 2.126 . S
Co2 O11 2.063 . S
Co2 O25 2.047 . S
Co2 O31 2.113 . S
H3 Co0 2.400 . S
H3 Co2 2.388 1_556 S
H3 O4 0.760 . S
O4 Co0 2.009 . S
O4 Co1 2.126 . S
O4 Co2 2.053 1_556 S
O4 H3 0.760 . S
H5 Co1 2.388 1_554 S
H5 O6 0.760 . S
H5 Co7 2.400 . S
O6 Co1 2.053 1_554 S
O6 Co2 2.126 . S
O6 H5 0.760 . S
O6 Co7 2.009 . S
Co7 H5 2.400 . S
Co7 O6 2.009 . S
Co7 O8 2.053 . S
Co7 O10 2.094 . S
Co7 O14 2.122 . S
Co7 O28 2.115 . S
Co7 O29 2.315 . S
O8 Co7 2.053 . S
O8 C20 1.259 . S
O9 Co1 2.047 . S
O9 C20 1.257 1_556 S
O10 Co7 2.094 . S
O10 C21 1.253 . S
O11 Co2 2.063 . S
O11 C21 1.268 . S
O12 Co0 2.115 . S
O12 C22 1.281 . S
O13 Co0 2.315 . S
O13 C22 1.252 . S
O14 Co7 2.122 . S
O14 C23 1.272 . S
O15 Co1 2.113 . S
O15 C23 1.245 1_556 S
C16 O24 1.259 . S
C16 O25 1.257 1_556 S
C17 O26 1.268 . S
C17 O27 1.253 . S
C18 O28 1.281 . S
C18 O29 1.252 . S
C19 O30 1.272 . S
C19 O31 1.245 1_556 S
C20 O8 1.259 . S
C20 O9 1.257 1_554 S
C21 O10 1.253 . S
C21 O11 1.268 . S
C22 O12 1.281 . S
C22 O13 1.252 . S
C23 O14 1.272 . S
C23 O15 1.245 1_554 S
O24 Co0 2.053 . S
O24 C16 1.259 . S
O25 Co2 2.047 . S
O25 C16 1.257 1_554 S
O26 Co1 2.063 . S
O26 C17 1.268 . S
O27 Co0 2.094 . S
O27 C17 1.253 . S
O28 Co7 2.115 . S
O28 C18 1.281 . S
O29 Co7 2.315 . S
O29 C18 1.252 . S
O30 Co0 2.122 . S
O30 C19 1.272 . S
O31 Co2 2.113 . S
O31 C19 1.245 1_554 S
Co32 H35 2.400 . S
Co32 O36 2.009 . S
Co32 O44 2.115 . S
Co32 O45 2.315 . S
Co32 O56 2.053 . S
Co32 O59 2.094 . S
Co32 O62 2.122 . S
Co33 O36 2.126 . S
Co33 H37 2.388 1_556 S
Co33 O38 2.053 1_556 S
Co33 O41 2.047 . S
Co33 O47 2.113 . S
Co33 O58 2.063 . S
Co34 H35 2.388 1_554 S
Co34 O36 2.053 1_554 S
Co34 O38 2.126 . S
Co34 O43 2.063 . S
Co34 O57 2.047 . S
Co34 O63 2.113 . S
H35 Co32 2.400 . S
H35 Co34 2.388 1_556 S
H35 O36 0.760 . S
O36 Co32 2.009 . S
O36 Co33 2.126 . S
O36 Co34 2.053 1_556 S
O36 H35 0.760 . S
H37 Co33 2.388 1_554 S
H37 O38 0.760 . S
H37 Co39 2.400 . S
O38 Co33 2.053 1_554 S
O38 Co34 2.126 . S
O38 H37 0.760 . S
O38 Co39 2.009 . S
Co39 H37 2.400 . S
Co39 O38 2.009 . S
Co39 O40 2.053 . S
Co39 O42 2.094 . S
Co39 O46 2.122 . S
Co39 O60 2.115 . S
Co39 O61 2.315 . S
O40 Co39 2.053 . S
O40 C52 1.259 . S
O41 Co33 2.047 . S
O41 C52 1.257 1_556 S
O42 Co39 2.094 . S
O42 C53 1.253 . S
O43 Co34 2.063 . S
O43 C53 1.268 . S
O44 Co32 2.115 . S
O44 C54 1.281 . S
O45 Co32 2.315 . S
O45 C54 1.252 . S
O46 Co39 2.122 . S
O46 C55 1.272 . S
O47 Co33 2.113 . S
O47 C55 1.245 1_556 S
C48 O56 1.259 . S
C48 O57 1.257 1_556 S
C49 O58 1.268 . S
C49 O59 1.253 . S
C50 O60 1.281 . S
C50 O61 1.252 . S
C51 O62 1.272 . S
C51 O63 1.245 1_556 S
C52 O40 1.259 . S
C52 O41 1.257 1_554 S
C53 O42 1.253 . S
C53 O43 1.268 . S
C54 O44 1.281 . S
C54 O45 1.252 . S
C55 O46 1.272 . S
C55 O47 1.245 1_554 S
O56 Co32 2.053 . S
O56 C48 1.259 . S
O57 Co34 2.047 . S
O57 C48 1.257 1_554 S
O58 Co33 2.063 . S
O58 C49 1.268 . S
O59 Co32 2.094 . S
O59 C49 1.253 . S
O60 Co39 2.115 . S
O60 C50 1.281 . S
O61 Co39 2.315 . S
O61 C50 1.252 . S
O62 Co32 2.122 . S
O62 C51 1.272 . S
O63 Co34 2.113 . S
O63 C51 1.245 1_554 S
Co64 H67 2.400 . S
Co64 O68 2.009 . S
Co64 O76 2.115 . S
Co64 O77 2.315 . S
Co64 O88 2.053 . S
Co64 O91 2.094 . S
Co64 O94 2.122 . S
Co65 O68 2.126 . S
Co65 H69 2.388 . S
Co65 O70 2.053 . S
Co65 O73 2.047 . S
Co65 O79 2.113 . S
Co65 O90 2.063 . S
Co66 H67 2.388 . S
Co66 O68 2.053 . S
Co66 O70 2.126 . S
Co66 O75 2.063 . S
Co66 O89 2.047 . S
Co66 O95 2.113 . S
H67 Co64 2.400 . S
H67 Co66 2.388 . S
H67 O68 0.760 . S
O68 Co64 2.009 . S
O68 Co65 2.126 . S
O68 Co66 2.053 . S
O68 H67 0.760 . S
H69 Co65 2.388 . S
H69 O70 0.760 . S
H69 Co71 2.400 . S
O70 Co65 2.053 . S
O70 Co66 2.126 . S
O70 H69 0.760 . S
O70 Co71 2.009 . S
Co71 H69 2.400 . S
Co71 O70 2.009 . S
Co71 O72 2.053 . S
Co71 O74 2.094 . S
Co71 O78 2.122 . S
Co71 O92 2.115 . S
Co71 O93 2.315 . S
O72 Co71 2.053 . S
O72 C84 1.259 . S
O73 Co65 2.047 . S
O73 C84 1.257 . S
O74 Co71 2.094 . S
O74 C85 1.253 . S
O75 Co66 2.063 . S
O75 C85 1.268 . S
O76 Co64 2.115 . S
O76 C86 1.281 . S
O77 Co64 2.315 . S
O77 C86 1.252 . S
O78 Co71 2.122 . S
O78 C87 1.272 . S
O79 Co65 2.113 . S
O79 C87 1.245 . S
C80 O88 1.259 . S
C80 O89 1.257 . S
C81 O90 1.268 . S
C81 O91 1.253 . S
C82 O92 1.281 . S
C82 O93 1.252 . S
C83 O94 1.272 . S
C83 O95 1.245 . S
C84 O72 1.259 . S
C84 O73 1.257 . S
C85 O74 1.253 . S
C85 O75 1.268 . S
C86 O76 1.281 . S
C86 O77 1.252 . S
C87 O78 1.272 . S
C87 O79 1.245 . S
O88 Co64 2.053 . S
O88 C80 1.259 . S
O89 Co66 2.047 . S
O89 C80 1.257 . S
O90 Co65 2.063 . S
O90 C81 1.268 . S
O91 Co64 2.094 . S
O91 C81 1.253 . S
O92 Co71 2.115 . S
O92 C82 1.281 . S
O93 Co71 2.315 . S
O93 C82 1.252 . S
O94 Co64 2.122 . S
O94 C83 1.272 . S
O95 Co66 2.113 . S
O95 C83 1.245 . S
Co96 H99 2.400 . S
Co96 O100 2.009 . S
Co96 O108 2.115 . S
Co96 O109 2.315 . S
Co96 O120 2.053 . S
Co96 O123 2.094 . S
Co96 O126 2.122 . S
Co97 O100 2.126 . S
Co97 H101 2.388 . S
Co97 O102 2.053 . S
Co97 O105 2.047 . S
Co97 O111 2.113 . S
Co97 O122 2.063 . S
Co98 H99 2.388 . S
Co98 O100 2.053 . S
Co98 O102 2.126 . S
Co98 O107 2.063 . S
Co98 O121 2.047 . S
Co98 O127 2.113 . S
H99 Co96 2.400 . S
H99 Co98 2.388 . S
H99 O100 0.760 . S
O100 Co96 2.009 . S
O100 Co97 2.126 . S
O100 Co98 2.053 . S
O100 H99 0.760 . S
H101 Co97 2.388 . S
H101 O102 0.760 . S
H101 Co103 2.400 . S
O102 Co97 2.053 . S
O102 Co98 2.126 . S
O102 H101 0.760 . S
O102 Co103 2.009 . S
Co103 H101 2.400 . S
Co103 O102 2.009 . S
Co103 O104 2.053 . S
Co103 O106 2.094 . S
Co103 O110 2.122 . S
Co103 O124 2.115 . S
Co103 O125 2.315 . S
O104 Co103 2.053 . S
O104 C116 1.259 . S
O105 Co97 2.047 . S
O105 C116 1.257 . S
O106 Co103 2.094 . S
O106 C117 1.253 . S
O107 Co98 2.063 . S
O107 C117 1.268 . S
O108 Co96 2.115 . S
O108 C118 1.281 . S
O109 Co96 2.315 . S
O109 C118 1.252 . S
O110 Co103 2.122 . S
O110 C119 1.272 . S
O111 Co97 2.113 . S
O111 C119 1.245 . S
C112 O120 1.259 . S
C112 O121 1.257 . S
C113 O122 1.268 . S
C113 O123 1.253 . S
C114 O124 1.281 . S
C114 O125 1.252 . S
C115 O126 1.272 . S
C115 O127 1.245 . S
C116 O104 1.259 . S
C116 O105 1.257 . S
C117 O106 1.253 . S
C117 O107 1.268 . S
C118 O108 1.281 . S
C118 O109 1.252 . S
C119 O110 1.272 . S
C119 O111 1.245 . S
O120 Co96 2.053 . S
O120 C112 1.259 . S
O121 Co98 2.047 . S
O121 C112 1.257 . S
O122 Co97 2.063 . S
O122 C113 1.268 . S
O123 Co96 2.094 . S
O123 C113 1.253 . S
O124 Co103 2.115 . S
O124 C114 1.281 . S
O125 Co103 2.315 . S
O125 C114 1.252 . S
O126 Co96 2.122 . S
O126 C115 1.272 . S
O127 Co98 2.113 . S
O127 C115 1.245 . S
H128 C129 0.951 . S
C129 H128 0.951 . S
C129 C135 1.265 1_554 S
H130 C135 0.950 . S
H131 C139 0.949 . S
H132 C140 0.950 . S
H133 C141 0.951 . S
H134 C142 0.951 . S
C135 C129 1.265 1_556 S
C135 H130 0.950 . S
C135 C136 1.478 . S
C136 C135 1.478 . S
C136 C137 1.397 . S
C136 C153 1.394 1_556 S
C137 C136 1.397 . S
C137 C138 1.438 . S
C137 C142 1.429 . S
C138 C137 1.438 . S
C138 C139 1.428 . S
C138 C151 1.394 1_556 S
C139 H131 0.949 . S
C139 C138 1.428 . S
C139 C140 1.345 . S
C140 H132 0.950 . S
C140 C139 1.345 . S
C140 C141 1.424 . S
C141 H133 0.951 . S
C141 C140 1.424 . S
C141 C142 1.347 . S
C142 H134 0.951 . S
C142 C137 1.429 . S
C142 C141 1.347 . S
H143 C144 0.951 . S
C144 H143 0.951 . S
C144 C150 1.265 1_556 S
H145 C150 0.950 . S
H146 C154 0.949 . S
H147 C155 0.950 . S
H148 C156 0.951 . S
H149 C157 0.951 . S
C150 C144 1.265 1_554 S
C150 H145 0.950 . S
C150 C151 1.478 . S
C151 C138 1.394 1_554 S
C151 C150 1.478 . S
C151 C152 1.397 . S
C152 C151 1.397 . S
C152 C153 1.438 . S
C152 C157 1.429 . S
C153 C136 1.394 1_554 S
C153 C152 1.438 . S
C153 C154 1.428 . S
C154 H146 0.949 . S
C154 C153 1.428 . S
C154 C155 1.345 . S
C155 H147 0.950 . S
C155 C154 1.345 . S
C155 C156 1.424 . S
C156 H148 0.951 . S
C156 C155 1.424 . S
C156 C157 1.347 . S
C157 H149 0.951 . S
C157 C152 1.429 . S
C157 C156 1.347 . S
H158 C159 0.951 1_556 S
C159 H158 0.951 1_554 S
C159 C165 1.265 . S
H160 C165 0.950 . S
H161 C169 0.949 . S
H162 C170 0.950 . S
H163 C171 0.951 . S
H164 C172 0.951 . S
C165 C159 1.265 . S
C165 H160 0.950 . S
C165 C166 1.478 . S
C166 C165 1.478 . S
C166 C167 1.397 . S
C166 C183 1.394 1_554 S
C167 C166 1.397 . S
C167 C168 1.438 . S
C167 C172 1.429 . S
C168 C167 1.438 . S
C168 C169 1.428 . S
C168 C181 1.394 1_554 S
C169 H161 0.949 . S
C169 C168 1.428 . S
C169 C170 1.345 . S
C170 H162 0.950 . S
C170 C169 1.345 . S
C170 C171 1.424 . S
C171 H163 0.951 . S
C171 C170 1.424 . S
C171 C172 1.347 . S
C172 H164 0.951 . S
C172 C167 1.429 . S
C172 C171 1.347 . S
H173 C174 0.951 1_554 S
C174 H173 0.951 1_556 S
C174 C180 1.265 . S
H175 C180 0.950 . S
H176 C184 0.949 . S
H177 C185 0.950 . S
H178 C186 0.951 . S
H179 C187 0.951 . S
C180 C174 1.265 . S
C180 H175 0.950 . S
C180 C181 1.478 . S
C181 C168 1.394 1_556 S
C181 C180 1.478 . S
C181 C182 1.397 . S
C182 C181 1.397 . S
C182 C183 1.438 . S
C182 C187 1.429 . S
C183 C166 1.394 1_556 S
C183 C182 1.438 . S
C183 C184 1.428 . S
C184 H176 0.949 . S
C184 C183 1.428 . S
C184 C185 1.345 . S
C185 H177 0.950 . S
C185 C184 1.345 . S
C185 C186 1.424 . S
C186 H178 0.951 . S
C186 C185 1.424 . S
C186 C187 1.347 . S
C187 H179 0.951 . S
C187 C182 1.429 . S
C187 C186 1.347 . S
H188 C189 0.951 . S
C189 H188 0.951 . S
C189 C195 1.265 . S
H190 C195 0.950 . S
H191 C199 0.949 . S
H192 C200 0.950 . S
H193 C201 0.951 . S
H194 C202 0.951 . S
C195 C189 1.265 . S
C195 H190 0.950 . S
C195 C196 1.478 . S
C196 C195 1.478 . S
C196 C197 1.397 . S
C196 C213 1.394 . S
C197 C196 1.397 . S
C197 C198 1.438 . S
C197 C202 1.429 . S
C198 C197 1.438 . S
C198 C199 1.428 . S
C198 C211 1.394 . S
C199 H191 0.949 . S
C199 C198 1.428 . S
C199 C200 1.345 . S
C200 H192 0.950 . S
C200 C199 1.345 . S
C200 C201 1.424 . S
C201 H193 0.951 . S
C201 C200 1.424 . S
C201 C202 1.347 . S
C202 H194 0.951 . S
C202 C197 1.429 . S
C202 C201 1.347 . S
H203 C204 0.951 . S
C204 H203 0.951 . S
C204 C210 1.265 . S
H205 C210 0.950 . S
H206 C214 0.949 . S
H207 C215 0.950 . S
H208 C216 0.951 . S
H209 C217 0.951 . S
C210 C204 1.265 . S
C210 H205 0.950 . S
C210 C211 1.478 . S
C211 C198 1.394 . S
C211 C210 1.478 . S
C211 C212 1.397 . S
C212 C211 1.397 . S
C212 C213 1.438 . S
C212 C217 1.429 . S
C213 C196 1.394 . S
C213 C212 1.438 . S
C213 C214 1.428 . S
C214 H206 0.949 . S
C214 C213 1.428 . S
C214 C215 1.345 . S
C215 H207 0.950 . S
C215 C214 1.345 . S
C215 C216 1.424 . S
C216 H208 0.951 . S
C216 C215 1.424 . S
C216 C217 1.347 . S
C217 H209 0.951 . S
C217 C212 1.429 . S
C217 C216 1.347 . S
H218 C219 0.951 . S
C219 H218 0.951 . S
C219 C225 1.265 . S
H220 C225 0.950 . S
H221 C229 0.949 . S
H222 C230 0.950 . S
H223 C231 0.951 . S
H224 C232 0.951 . S
C225 C219 1.265 . S
C225 H220 0.950 . S
C225 C226 1.478 . S
C226 C225 1.478 . S
C226 C227 1.397 . S
C226 C243 1.394 . S
C227 C226 1.397 . S
C227 C228 1.438 . S
C227 C232 1.429 . S
C228 C227 1.438 . S
C228 C229 1.428 . S
C228 C241 1.394 . S
C229 H221 0.949 . S
C229 C228 1.428 . S
C229 C230 1.345 . S
C230 H222 0.950 . S
C230 C229 1.345 . S
C230 C231 1.424 . S
C231 H223 0.951 . S
C231 C230 1.424 . S
C231 C232 1.347 . S
C232 H224 0.951 . S
C232 C227 1.429 . S
C232 C231 1.347 . S
H233 C234 0.951 . S
C234 H233 0.951 . S
C234 C240 1.265 . S
H235 C240 0.950 . S
H236 C244 0.949 . S
H237 C245 0.950 . S
H238 C246 0.951 . S
H239 C247 0.951 . S
C240 C234 1.265 . S
C240 H235 0.950 . S
C240 C241 1.478 . S
C241 C228 1.394 . S
C241 C240 1.478 . S
C241 C242 1.397 . S
C242 C241 1.397 . S
C242 C243 1.438 . S
C242 C247 1.429 . S
C243 C226 1.394 . S
C243 C242 1.438 . S
C243 C244 1.428 . S
C244 H236 0.949 . S
C244 C243 1.428 . S
C244 C245 1.345 . S
C245 H237 0.950 . S
C245 C244 1.345 . S
C245 C246 1.424 . S
C246 H238 0.951 . S
C246 C245 1.424 . S
C246 C247 1.347 . S
C247 H239 0.951 . S
C247 C242 1.429 . S
C247 C246 1.347 . S
H248 C249 0.957 . S
C249 H248 0.957 . S
C249 C255 1.262 1_556 S
H250 C255 0.950 . S
H251 C259 0.949 . S
H252 C260 0.950 . S
H253 C261 0.951 . S
H254 C262 0.951 . S
C255 C249 1.262 1_554 S
C255 H250 0.950 . S
C255 C256 1.478 . S
C256 C255 1.478 . S
C256 C257 1.397 1_554 S
C256 C273 1.394 . S
C257 C256 1.397 1_556 S
C257 C258 1.438 . S
C257 C262 1.429 . S
C258 C257 1.438 . S
C258 C259 1.428 . S
C258 C271 1.394 . S
C259 H251 0.949 . S
C259 C258 1.428 . S
C259 C260 1.345 . S
C260 H252 0.950 . S
C260 C259 1.345 . S
C260 C261 1.424 . S
C261 H253 0.951 . S
C261 C260 1.424 . S
C261 C262 1.347 . S
C262 H254 0.951 . S
C262 C257 1.429 . S
C262 C261 1.347 . S
H263 C264 0.961 . S
C264 H263 0.961 . S
C264 C270 1.261 1_554 S
H265 C270 0.950 . S
H266 C274 0.949 . S
H267 C275 0.950 . S
H268 C276 0.951 . S
H269 C277 0.951 . S
C270 C264 1.261 1_556 S
C270 H265 0.950 . S
C270 C271 1.478 . S
C271 C258 1.394 . S
C271 C270 1.478 . S
C271 C272 1.397 1_556 S
C272 C271 1.397 1_554 S
C272 C273 1.438 . S
C272 C277 1.429 . S
C273 C256 1.394 . S
C273 C272 1.438 . S
C273 C274 1.428 . S
C274 H266 0.949 . S
C274 C273 1.428 . S
C274 C275 1.345 . S
C275 H267 0.950 . S
C275 C274 1.345 . S
C275 C276 1.424 . S
C276 H268 0.951 . S
C276 C275 1.424 . S
C276 C277 1.347 . S
C277 H269 0.951 . S
C277 C272 1.429 . S
C277 C276 1.347 . S
H278 C279 0.951 . S
C279 H278 0.951 . S
C279 C285 1.265 . S
H280 C285 0.950 . S
H281 C289 0.949 . S
H282 C290 0.950 . S
H283 C291 0.951 . S
H284 C292 0.951 . S
C285 C279 1.265 . S
C285 H280 0.950 . S
C285 C286 1.478 . S
C286 C285 1.478 . S
C286 C287 1.397 . S
C286 C303 1.394 . S
C287 C286 1.397 . S
C287 C288 1.438 . S
C287 C292 1.429 . S
C288 C287 1.438 . S
C288 C289 1.428 . S
C288 C301 1.394 . S
C289 H281 0.949 . S
C289 C288 1.428 . S
C289 C290 1.345 . S
C290 H282 0.950 . S
C290 C289 1.345 . S
C290 C291 1.424 . S
C291 H283 0.951 . S
C291 C290 1.424 . S
C291 C292 1.347 . S
C292 H284 0.951 . S
C292 C287 1.429 . S
C292 C291 1.347 . S
H293 C294 0.951 . S
C294 H293 0.951 . S
C294 C300 1.265 . S
H295 C300 0.950 . S
H296 C304 0.949 . S
H297 C305 0.950 . S
H298 C306 0.951 . S
H299 C307 0.951 . S
C300 C294 1.265 . S
C300 H295 0.950 . S
C300 C301 1.478 . S
C301 C288 1.394 . S
C301 C300 1.478 . S
C301 C302 1.397 . S
C302 C301 1.397 . S
C302 C303 1.438 . S
C302 C307 1.429 . S
C303 C286 1.394 . S
C303 C302 1.438 . S
C303 C304 1.428 . S
C304 H296 0.949 . S
C304 C303 1.428 . S
C304 C305 1.345 . S
C305 H297 0.950 . S
C305 C304 1.345 . S
C305 C306 1.424 . S
C306 H298 0.951 . S
C306 C305 1.424 . S
C306 C307 1.347 . S
C307 H299 0.951 . S
C307 C302 1.429 . S
C307 C306 1.347 . S
H308 C309 0.951 . S
C309 H308 0.951 . S
C309 C315 1.265 1_554 S
H310 C315 0.950 . S
H311 C319 0.949 . S
H312 C320 0.950 . S
H313 C321 0.951 . S
H314 C322 0.951 . S
C315 C309 1.265 1_556 S
C315 H310 0.950 . S
C315 C316 1.478 1_556 S
C316 C315 1.478 1_554 S
C316 C317 1.393 1_454 S
C316 C333 1.397 . S
C317 C316 1.393 1_656 S
C317 C318 1.438 1_545 S
C317 C322 1.429 . S
C318 C317 1.438 1_565 S
C318 C319 1.428 . S
C318 C331 1.392 . S
C319 H311 0.949 . S
C319 C318 1.428 . S
C319 C320 1.345 1_565 S
C320 H312 0.950 . S
C320 C319 1.345 1_545 S
C320 C321 1.424 . S
C321 H313 0.951 . S
C321 C320 1.424 . S
C321 C322 1.347 . S
C322 H314 0.951 . S
C322 C317 1.429 . S
C322 C321 1.347 . S
H323 C324 0.951 . S
C324 H323 0.951 . S
C324 C330 1.264 1_556 S
H325 C330 0.949 . S
H326 C334 0.949 . S
H327 C335 0.950 . S
H328 C336 0.951 . S
H329 C337 0.951 . S
C330 C324 1.264 1_554 S
C330 H325 0.949 . S
C330 C331 1.478 1_554 S
C331 C318 1.392 . S
C331 C330 1.478 1_556 S
C331 C332 1.399 1_656 S
C332 C331 1.399 1_454 S
C332 C333 1.438 1_565 S
C332 C337 1.429 . S
C333 C316 1.397 . S
C333 C332 1.438 1_545 S
C333 C334 1.428 . S
C334 H326 0.949 . S
C334 C333 1.428 . S
C334 C335 1.345 1_545 S
C335 H327 0.950 . S
C335 C334 1.345 1_565 S
C335 C336 1.424 . S
C336 H328 0.951 . S
C336 C335 1.424 . S
C336 C337 1.347 . S
C337 H329 0.951 . S
C337 C332 1.429 . S
C337 C336 1.347 . S
H338 C339 0.951 . S
C339 H338 0.951 . S
C339 C345 1.265 . S
H340 C345 0.950 . S
H341 C349 0.949 . S
H342 C350 0.950 . S
H343 C351 0.951 . S
H344 C352 0.951 . S
C345 C339 1.265 . S
C345 H340 0.950 . S
C345 C346 1.478 . S
C346 C345 1.478 . S
C346 C347 1.397 . S
C346 C363 1.394 . S
C347 C346 1.397 . S
C347 C348 1.438 1_645 S
C347 C352 1.429 . S
C348 C347 1.438 1_465 S
C348 C349 1.428 . S
C348 C361 1.394 . S
C349 H341 0.949 . S
C349 C348 1.428 . S
C349 C350 1.345 1_455 S
C350 H342 0.950 . S
C350 C349 1.345 1_655 S
C350 C351 1.424 1_565 S
C351 H343 0.951 . S
C351 C350 1.424 1_545 S
C351 C352 1.347 . S
C352 H344 0.951 . S
C352 C347 1.429 . S
C352 C351 1.347 . S
H353 C354 0.951 . S
C354 H353 0.951 . S
C354 C360 1.265 . S
H355 C360 0.950 . S
H356 C364 0.949 . S
H357 C365 0.950 . S
H358 C366 0.951 . S
H359 C367 0.951 . S
C360 C354 1.265 . S
C360 H355 0.950 . S
C360 C361 1.478 . S
C361 C348 1.394 . S
C361 C360 1.478 . S
C361 C362 1.397 . S
C362 C361 1.397 . S
C362 C363 1.438 1_465 S
C362 C367 1.429 . S
C363 C346 1.394 . S
C363 C362 1.438 1_645 S
C363 C364 1.428 . S
C364 H356 0.949 . S
C364 C363 1.428 . S
C364 C365 1.345 1_655 S
C365 H357 0.950 . S
C365 C364 1.345 1_455 S
C365 C366 1.424 1_545 S
C366 H358 0.951 . S
C366 C365 1.424 1_565 S
C366 C367 1.347 . S
C367 H359 0.951 . S
C367 C362 1.429 . S
C367 C366 1.347 . S
H368 C369 0.951 . S
C369 H368 0.951 . S
C369 C375 1.265 . S
H370 C375 0.950 . S
H371 C379 0.949 . S
H372 C380 0.950 . S
H373 C381 0.951 . S
H374 C382 0.951 . S
C375 C369 1.265 . S
C375 H370 0.950 . S
C375 C376 1.478 . S
C376 C375 1.478 . S
C376 C377 1.397 . S
C376 C393 1.394 . S
C377 C376 1.397 . S
C377 C378 1.438 . S
C377 C382 1.429 . S
C378 C377 1.438 . S
C378 C379 1.428 . S
C378 C391 1.394 . S
C379 H371 0.949 . S
C379 C378 1.428 . S
C379 C380 1.345 . S
C380 H372 0.950 . S
C380 C379 1.345 . S
C380 C381 1.424 . S
C381 H373 0.951 . S
C381 C380 1.424 . S
C381 C382 1.347 . S
C382 H374 0.951 . S
C382 C377 1.429 . S
C382 C381 1.347 . S
H383 C384 0.951 . S
C384 H383 0.951 . S
C384 C390 1.265 . S
H385 C390 0.950 . S
H386 C394 0.949 . S
H387 C395 0.950 . S
H388 C396 0.951 . S
H389 C397 0.951 . S
C390 C384 1.265 . S
C390 H385 0.950 . S
C390 C391 1.478 . S
C391 C378 1.394 . S
C391 C390 1.478 . S
C391 C392 1.397 . S
C392 C391 1.397 . S
C392 C393 1.438 . S
C392 C397 1.429 . S
C393 C376 1.394 . S
C393 C392 1.438 . S
C393 C394 1.428 . S
C394 H386 0.949 . S
C394 C393 1.428 . S
C394 C395 1.345 . S
C395 H387 0.950 . S
C395 C394 1.345 . S
C395 C396 1.424 . S
C396 H388 0.951 . S
C396 C395 1.424 . S
C396 C397 1.347 . S
C397 H389 0.951 . S
C397 C392 1.429 . S
C397 C396 1.347 . S
H398 C399 0.951 . S
C399 H398 0.951 . S
C399 C405 1.265 . S
H400 C405 0.950 . S
H401 C409 0.949 . S
H402 C410 0.950 . S
H403 C411 0.951 . S
H404 C412 0.951 . S
C405 C399 1.265 . S
C405 H400 0.950 . S
C405 C406 1.478 . S
C406 C405 1.478 . S
C406 C407 1.397 . S
C406 C423 1.394 . S
C407 C406 1.397 . S
C407 C408 1.438 . S
C407 C412 1.429 . S
C408 C407 1.438 . S
C408 C409 1.428 . S
C408 C421 1.394 . S
C409 H401 0.949 . S
C409 C408 1.428 . S
C409 C410 1.345 . S
C410 H402 0.950 . S
C410 C409 1.345 . S
C410 C411 1.424 . S
C411 H403 0.951 . S
C411 C410 1.424 . S
C411 C412 1.347 . S
C412 H404 0.951 . S
C412 C407 1.429 . S
C412 C411 1.347 . S
H413 C414 0.951 . S
C414 H413 0.951 . S
C414 C420 1.265 . S
H415 C420 0.950 . S
H416 C424 0.949 . S
H417 C425 0.950 . S
H418 C426 0.951 . S
H419 C427 0.951 . S
C420 C414 1.265 . S
C420 H415 0.950 . S
C420 C421 1.478 . S
C421 C408 1.394 . S
C421 C420 1.478 . S
C421 C422 1.397 . S
C422 C421 1.397 . S
C422 C423 1.438 . S
C422 C427 1.429 . S
C423 C406 1.394 . S
C423 C422 1.438 . S
C423 C424 1.428 . S
C424 H416 0.949 . S
C424 C423 1.428 . S
C424 C425 1.345 . S
C425 H417 0.950 . S
C425 C424 1.345 . S
C425 C426 1.424 . S
C426 H418 0.951 . S
C426 C425 1.424 . S
C426 C427 1.347 . S
C427 H419 0.951 . S
C427 C422 1.429 . S
C427 C426 1.347 . S
H428 C429 0.951 . S
C429 H428 0.951 . S
C429 C435 1.265 . S
H430 C435 0.950 . S
H431 C439 0.949 . S
H432 C440 0.950 . S
H433 C441 0.951 . S
H434 C442 0.951 . S
C435 C429 1.265 . S
C435 H430 0.950 . S
C435 C436 1.478 . S
C436 C435 1.478 . S
C436 C437 1.397 . S
C436 C453 1.394 . S
C437 C436 1.397 . S
C437 C438 1.438 . S
C437 C442 1.429 . S
C438 C437 1.438 . S
C438 C439 1.428 . S
C438 C451 1.394 . S
C439 H431 0.949 . S
C439 C438 1.428 . S
C439 C440 1.345 . S
C440 H432 0.950 . S
C440 C439 1.345 . S
C440 C441 1.424 . S
C441 H433 0.951 . S
C441 C440 1.424 . S
C441 C442 1.347 . S
C442 H434 0.951 . S
C442 C437 1.429 . S
C442 C441 1.347 . S
H443 C444 0.951 . S
C444 H443 0.951 . S
C444 C450 1.265 . S
H445 C450 0.950 . S
H446 C454 0.949 . S
H447 C455 0.950 . S
H448 C456 0.951 . S
H449 C457 0.951 . S
C450 C444 1.265 . S
C450 H445 0.950 . S
C450 C451 1.478 . S
C451 C438 1.394 . S
C451 C450 1.478 . S
C451 C452 1.397 . S
C452 C451 1.397 . S
C452 C453 1.438 . S
C452 C457 1.429 . S
C453 C436 1.394 . S
C453 C452 1.438 . S
C453 C454 1.428 . S
C454 H446 0.949 . S
C454 C453 1.428 . S
C454 C455 1.345 . S
C455 H447 0.950 . S
C455 C454 1.345 . S
C455 C456 1.424 . S
C456 H448 0.951 . S
C456 C455 1.424 . S
C456 C457 1.347 . S
C457 H449 0.951 . S
C457 C452 1.429 . S
C457 C456 1.347 . S
H458 C459 0.951 . S
C459 H458 0.951 . S
C459 C465 1.265 . S
H460 C465 0.950 . S
H461 C469 0.949 . S
H462 C470 0.950 . S
H463 C471 0.951 . S
H464 C472 0.951 . S
C465 C459 1.265 . S
C465 H460 0.950 . S
C465 C466 1.478 . S
C466 C465 1.478 . S
C466 C467 1.397 . S
C466 C483 1.394 . S
C467 C466 1.397 . S
C467 C468 1.438 . S
C467 C472 1.429 . S
C468 C467 1.438 . S
C468 C469 1.428 . S
C468 C481 1.394 . S
C469 H461 0.949 . S
C469 C468 1.428 . S
C469 C470 1.345 . S
C470 H462 0.950 . S
C470 C469 1.345 . S
C470 C471 1.424 . S
C471 H463 0.951 . S
C471 C470 1.424 . S
C471 C472 1.347 . S
C472 H464 0.951 . S
C472 C467 1.429 . S
C472 C471 1.347 . S
H473 C474 0.951 . S
C474 H473 0.951 . S
C474 C480 1.265 . S
H475 C480 0.950 . S
H476 C484 0.949 . S
H477 C485 0.950 . S
H478 C486 0.951 . S
H479 C487 0.951 . S
C480 C474 1.265 . S
C480 H475 0.950 . S
C480 C481 1.478 . S
C481 C468 1.394 . S
C481 C480 1.478 . S
C481 C482 1.397 . S
C482 C481 1.397 . S
C482 C483 1.438 . S
C482 C487 1.429 . S
C483 C466 1.394 . S
C483 C482 1.438 . S
C483 C484 1.428 . S
C484 H476 0.949 . S
C484 C483 1.428 . S
C484 C485 1.345 . S
C485 H477 0.950 . S
C485 C484 1.345 . S
C485 C486 1.424 . S
C486 H478 0.951 . S
C486 C485 1.424 . S
C486 C487 1.347 . S
C487 H479 0.951 . S
C487 C482 1.429 . S
C487 C486 1.347 . S
H488 C489 0.951 . S
C489 H488 0.951 . S
C489 C495 1.265 . S
H490 C495 0.950 . S
H491 C499 0.949 . S
H492 C500 0.950 . S
H493 C501 0.951 . S
H494 C502 0.951 1_455 S
C495 C489 1.265 . S
C495 H490 0.950 . S
C495 C496 1.478 . S
C496 C495 1.478 . S
C496 C497 1.397 . S
C496 C513 1.394 . S
C497 C496 1.397 . S
C497 C498 1.438 1_455 S
C497 C502 1.429 1_455 S
C498 C497 1.438 1_655 S
C498 C499 1.428 . S
C498 C511 1.394 1_655 S
C499 H491 0.949 . S
C499 C498 1.428 . S
C499 C500 1.345 . S
C500 H492 0.950 . S
C500 C499 1.345 . S
C500 C501 1.424 . S
C501 H493 0.951 . S
C501 C500 1.424 . S
C501 C502 1.347 . S
C502 H494 0.951 1_655 S
C502 C497 1.429 1_655 S
C502 C501 1.347 . S
H503 C504 0.951 . S
C504 H503 0.951 . S
C504 C510 1.265 . S
H505 C510 0.950 1_455 S
H506 C514 0.949 . S
H507 C515 0.950 . S
H508 C516 0.951 . S
H509 C517 0.951 . S
C510 C504 1.265 . S
C510 H505 0.950 1_655 S
C510 C511 1.478 1_655 S
C511 C498 1.394 1_455 S
C511 C510 1.478 1_455 S
C511 C512 1.397 . S
C512 C511 1.397 . S
C512 C513 1.438 . S
C512 C517 1.429 . S
C513 C496 1.394 . S
C513 C512 1.438 . S
C513 C514 1.428 . S
C514 H506 0.949 . S
C514 C513 1.428 . S
C514 C515 1.345 . S
C515 H507 0.950 . S
C515 C514 1.345 . S
C515 C516 1.424 . S
C516 H508 0.951 . S
C516 C515 1.424 . S
C516 C517 1.347 . S
C517 H509 0.951 . S
C517 C512 1.429 . S
C517 C516 1.347 . S
H518 C519 0.951 . S
C519 H518 0.951 . S
C519 C525 1.265 . S
H520 C525 0.950 1_455 S
H521 C529 0.949 . S
H522 C530 0.950 . S
H523 C531 0.951 . S
H524 C532 0.951 . S
C525 C519 1.265 . S
C525 H520 0.950 1_655 S
C525 C526 1.478 1_655 S
C526 C525 1.478 1_455 S
C526 C527 1.397 . S
C526 C543 1.394 . S
C527 C526 1.397 . S
C527 C528 1.438 . S
C527 C532 1.429 1_455 S
C528 C527 1.438 . S
C528 C529 1.428 . S
C528 C541 1.394 . S
C529 H521 0.949 . S
C529 C528 1.428 . S
C529 C530 1.345 . S
C530 H522 0.950 . S
C530 C529 1.345 . S
C530 C531 1.424 1_455 S
C531 H523 0.951 . S
C531 C530 1.424 1_655 S
C531 C532 1.347 . S
C532 H524 0.951 . S
C532 C527 1.429 1_655 S
C532 C531 1.347 . S
H533 C534 0.951 . S
C534 H533 0.951 . S
C534 C540 1.265 . S
H535 C540 0.950 . S
H536 C544 0.949 . S
H537 C545 0.950 . S
H538 C546 0.951 . S
H539 C547 0.951 . S
C540 C534 1.265 . S
C540 H535 0.950 . S
C540 C541 1.478 . S
C541 C528 1.394 . S
C541 C540 1.478 . S
C541 C542 1.397 . S
C542 C541 1.397 . S
C542 C543 1.438 . S
C542 C547 1.429 . S
C543 C526 1.394 . S
C543 C542 1.438 . S
C543 C544 1.428 . S
C544 H536 0.949 . S
C544 C543 1.428 . S
C544 C545 1.345 . S
C545 H537 0.950 . S
C545 C544 1.345 . S
C545 C546 1.424 . S
C546 H538 0.951 . S
C546 C545 1.424 . S
C546 C547 1.347 . S
C547 H539 0.951 . S
C547 C542 1.429 . S
C547 C546 1.347 . S
H548 C549 0.951 . S
C549 H548 0.951 . S
C549 C555 1.265 . S
H550 C555 0.950 1_655 S
H551 C559 0.949 . S
H552 C560 0.950 . S
H553 C561 0.951 . S
H554 C562 0.951 . S
C555 C549 1.265 . S
C555 H550 0.950 1_455 S
C555 C556 1.478 1_455 S
C556 C555 1.478 1_655 S
C556 C557 1.397 . S
C556 C573 1.394 1_655 S
C557 C556 1.397 . S
C557 C558 1.438 . S
C557 C562 1.429 . S
C558 C557 1.438 . S
C558 C559 1.428 . S
C558 C571 1.394 . S
C559 H551 0.949 . S
C559 C558 1.428 . S
C559 C560 1.345 . S
C560 H552 0.950 . S
C560 C559 1.345 . S
C560 C561 1.424 . S
C561 H553 0.951 . S
C561 C560 1.424 . S
C561 C562 1.347 . S
C562 H554 0.951 . S
C562 C557 1.429 . S
C562 C561 1.347 . S
H563 C564 0.951 . S
C564 H563 0.951 . S
C564 C570 1.265 . S
H565 C570 0.950 . S
H566 C574 0.949 . S
H567 C575 0.950 . S
H568 C576 0.951 . S
H569 C577 0.951 1_655 S
C570 C564 1.265 . S
C570 H565 0.950 . S
C570 C571 1.478 . S
C571 C558 1.394 . S
C571 C570 1.478 . S
C571 C572 1.397 . S
C572 C571 1.397 . S
C572 C573 1.438 1_655 S
C572 C577 1.429 1_655 S
C573 C556 1.394 1_455 S
C573 C572 1.438 1_455 S
C573 C574 1.428 . S
C574 H566 0.949 . S
C574 C573 1.428 . S
C574 C575 1.345 . S
C575 H567 0.950 . S
C575 C574 1.345 . S
C575 C576 1.424 . S
C576 H568 0.951 . S
C576 C575 1.424 . S
C576 C577 1.347 . S
C577 H569 0.951 1_455 S
C577 C572 1.429 1_455 S
C577 C576 1.347 . S
H578 C579 0.951 . S
C579 H578 0.951 . S
C579 C585 1.265 . S
H580 C585 0.950 . S
H581 C589 0.949 . S
H582 C590 0.950 . S
H583 C591 0.951 . S
H584 C592 0.951 . S
C585 C579 1.265 . S
C585 H580 0.950 . S
C585 C586 1.478 . S
C586 C585 1.478 . S
C586 C587 1.397 . S
C586 C603 1.394 1_455 S
C587 C586 1.397 . S
C587 C588 1.438 1_455 S
C587 C592 1.429 . S
C588 C587 1.438 1_655 S
C588 C589 1.428 . S
C588 C601 1.394 . S
C589 H581 0.949 . S
C589 C588 1.428 . S
C589 C590 1.345 . S
C590 H582 0.950 . S
C590 C589 1.345 . S
C590 C591 1.424 1_655 S
C591 H583 0.951 . S
C591 C590 1.424 1_455 S
C591 C592 1.347 . S
C592 H584 0.951 . S
C592 C587 1.429 . S
C592 C591 1.347 . S
H593 C594 0.951 . S
C594 H593 0.951 . S
C594 C600 1.265 . S
H595 C600 0.950 . S
H596 C604 0.949 1_455 S
H597 C605 0.950 . S
H598 C606 0.951 . S
H599 C607 0.951 . S
C600 C594 1.265 . S
C600 H595 0.950 . S
C600 C601 1.478 . S
C601 C588 1.394 . S
C601 C600 1.478 . S
C601 C602 1.397 . S
C602 C601 1.397 . S
C602 C603 1.438 . S
C602 C607 1.429 . S
C603 C586 1.394 1_655 S
C603 C602 1.438 . S
C603 C604 1.428 . S
C604 H596 0.949 1_655 S
C604 C603 1.428 . S
C604 C605 1.345 . S
C605 H597 0.950 . S
C605 C604 1.345 . S
C605 C606 1.424 . S
C606 H598 0.951 . S
C606 C605 1.424 . S
C606 C607 1.347 . S
C607 H599 0.951 . S
C607 C602 1.429 . S
C607 C606 1.347 . S
C129 C20 0.876 . S
C144 C16 0.876 1_655 S
C159 C52 0.860 1_455 S
C174 C48 0.860 . S
C189 C84 0.872 . S
C204 C80 0.872 1_655 S
C219 C116 0.857 1_455 S
C234 C112 0.857 . S
C249 C51 1.452 . S
C264 C23 1.452 . S
C279 C115 1.475 . S
C294 C87 1.475 . S
C309 C19 1.474 1_554 S
C324 C55 1.474 1_556 S
C339 C119 1.421 . S
C354 C83 1.421 . S
C369 C117 1.705 . S
C384 C18 1.656 . S
C399 C53 1.713 . S
C414 C82 1.705 . S
C429 C81 1.704 . S
C444 C54 1.661 . S
C459 C17 1.713 . S
C474 C118 1.712 . S
C489 C85 1.712 . S
C504 C50 1.704 . S
C519 C114 1.710 . S
C534 C21 1.711 . S
C549 C22 1.709 . S
C564 C113 1.716 . S
C579 C86 1.660 . S
C594 C49 1.708 . S
