# Generated by pormake.
# Topology pyc, (8)-cn, num edge types: 1
# Building blocks:
#     Node 0, Type 0, BuildingBlock: TAGTUT_clean_sbu_3, # of connection points: 8
#     Node 1, Type 0, BuildingBlock: TAGTUT_clean_sbu_3, # of connection points: 8
#     Node 2, Type 0, BuildingBlock: TAGTUT_clean_sbu_3, # of connection points: 8
#     Node 3, Type 0, BuildingBlock: TAGTUT_clean_sbu_3, # of connection points: 8
#     Node 4, Type 0, BuildingBlock: TAGTUT_clean_sbu_3, # of connection points: 8
#     Node 5, Type 0, BuildingBlock: TAGTUT_clean_sbu_3, # of connection points: 8
#     Node 6, Type 0, BuildingBlock: TAGTUT_clean_sbu_3, # of connection points: 8
#     Node 7, Type 0, BuildingBlock: TAGTUT_clean_sbu_3, # of connection points: 8
#     Node 8, Type 0, BuildingBlock: TAGTUT_clean_sbu_3, # of connection points: 8
#     Node 9, Type 0, BuildingBlock: TAGTUT_clean_sbu_3, # of connection points: 8
#     Node 10, Type 0, BuildingBlock: TAGTUT_clean_sbu_3, # of connection points: 8
#     Node 11, Type 0, BuildingBlock: TAGTUT_clean_sbu_3, # of connection points: 8
#     Node 12, Type 0, BuildingBlock: TAGTUT_clean_sbu_3, # of connection points: 8
#     Node 13, Type 0, BuildingBlock: TAGTUT_clean_sbu_3, # of connection points: 8
#     Node 14, Type 0, BuildingBlock: TAGTUT_clean_sbu_3, # of connection points: 8
#     Node 15, Type 0, BuildingBlock: TAGTUT_clean_sbu_3, # of connection points: 8
#     Node 16, Type 0, BuildingBlock: TAGTUT_clean_sbu_3, # of connection points: 8
#     Node 17, Type 0, BuildingBlock: TAGTUT_clean_sbu_3, # of connection points: 8
#     Node 18, Type 0, BuildingBlock: TAGTUT_clean_sbu_3, # of connection points: 8
#     Node 19, Type 0, BuildingBlock: TAGTUT_clean_sbu_3, # of connection points: 8
#     Node 20, Type 0, BuildingBlock: TAGTUT_clean_sbu_3, # of connection points: 8
#     Node 21, Type 0, BuildingBlock: TAGTUT_clean_sbu_3, # of connection points: 8
#     Node 22, Type 0, BuildingBlock: TAGTUT_clean_sbu_3, # of connection points: 8
#     Node 23, Type 0, BuildingBlock: TAGTUT_clean_sbu_3, # of connection points: 8
#     Node 24, Type 0, BuildingBlock: TAGTUT_clean_sbu_3, # of connection points: 8
#     Node 25, Type 0, BuildingBlock: TAGTUT_clean_sbu_3, # of connection points: 8
#     Node 26, Type 0, BuildingBlock: TAGTUT_clean_sbu_3, # of connection points: 8
#     Node 27, Type 0, BuildingBlock: TAGTUT_clean_sbu_3, # of connection points: 8
#     Node 28, Type 0, BuildingBlock: TAGTUT_clean_sbu_3, # of connection points: 8
#     Node 29, Type 0, BuildingBlock: TAGTUT_clean_sbu_3, # of connection points: 8
#     Node 30, Type 0, BuildingBlock: TAGTUT_clean_sbu_3, # of connection points: 8
#     Node 31, Type 0, BuildingBlock: TAGTUT_clean_sbu_3, # of connection points: 8
#     Node 32, Type 0, BuildingBlock: TAGTUT_clean_sbu_3, # of connection points: 8
#     Node 33, Type 0, BuildingBlock: TAGTUT_clean_sbu_3, # of connection points: 8
#     Node 34, Type 0, BuildingBlock: TAGTUT_clean_sbu_3, # of connection points: 8
#     Node 35, Type 0, BuildingBlock: TAGTUT_clean_sbu_3, # of connection points: 8
#     Node 36, Type 0, BuildingBlock: TAGTUT_clean_sbu_3, # of connection points: 8
#     Node 37, Type 0, BuildingBlock: TAGTUT_clean_sbu_3, # of connection points: 8
#     Node 38, Type 0, BuildingBlock: TAGTUT_clean_sbu_3, # of connection points: 8
#     Node 39, Type 0, BuildingBlock: TAGTUT_clean_sbu_3, # of connection points: 8
#     Node 40, Type 0, BuildingBlock: TAGTUT_clean_sbu_3, # of connection points: 8
#     Node 41, Type 0, BuildingBlock: TAGTUT_clean_sbu_3, # of connection points: 8
#     Node 42, Type 0, BuildingBlock: TAGTUT_clean_sbu_3, # of connection points: 8
#     Node 43, Type 0, BuildingBlock: TAGTUT_clean_sbu_3, # of connection points: 8
#     Node 44, Type 0, BuildingBlock: TAGTUT_clean_sbu_3, # of connection points: 8
#     Node 45, Type 0, BuildingBlock: TAGTUT_clean_sbu_3, # of connection points: 8
#     Node 46, Type 0, BuildingBlock: TAGTUT_clean_sbu_3, # of connection points: 8
#     Node 47, Type 0, BuildingBlock: TAGTUT_clean_sbu_3, # of connection points: 8
#     Edge 48, Type (0, 0), BuildingBlock: XIVTED_clean_linker_0, # of connection points: 2
#     Edge 49, Type (0, 0), BuildingBlock: XIVTED_clean_linker_0, # of connection points: 2
#     Edge 50, Type (0, 0), BuildingBlock: XIVTED_clean_linker_0, # of connection points: 2
#     Edge 51, Type (0, 0), BuildingBlock: XIVTED_clean_linker_0, # of connection points: 2
#     Edge 52, Type (0, 0), BuildingBlock: XIVTED_clean_linker_0, # of connection points: 2
#     Edge 53, Type (0, 0), BuildingBlock: XIVTED_clean_linker_0, # of connection points: 2
#     Edge 54, Type (0, 0), BuildingBlock: XIVTED_clean_linker_0, # of connection points: 2
#     Edge 55, Type (0, 0), BuildingBlock: XIVTED_clean_linker_0, # of connection points: 2
#     Edge 56, Type (0, 0), BuildingBlock: XIVTED_clean_linker_0, # of connection points: 2
#     Edge 57, Type (0, 0), BuildingBlock: XIVTED_clean_linker_0, # of connection points: 2
#     Edge 58, Type (0, 0), BuildingBlock: XIVTED_clean_linker_0, # of connection points: 2
#     Edge 59, Type (0, 0), BuildingBlock: XIVTED_clean_linker_0, # of connection points: 2
#     Edge 60, Type (0, 0), BuildingBlock: XIVTED_clean_linker_0, # of connection points: 2
#     Edge 61, Type (0, 0), BuildingBlock: XIVTED_clean_linker_0, # of connection points: 2
#     Edge 62, Type (0, 0), BuildingBlock: XIVTED_clean_linker_0, # of connection points: 2
#     Edge 63, Type (0, 0), BuildingBlock: XIVTED_clean_linker_0, # of connection points: 2
#     Edge 64, Type (0, 0), BuildingBlock: XIVTED_clean_linker_0, # of connection points: 2
#     Edge 65, Type (0, 0), BuildingBlock: XIVTED_clean_linker_0, # of connection points: 2
#     Edge 66, Type (0, 0), BuildingBlock: XIVTED_clean_linker_0, # of connection points: 2
#     Edge 67, Type (0, 0), BuildingBlock: XIVTED_clean_linker_0, # of connection points: 2
#     Edge 68, Type (0, 0), BuildingBlock: XIVTED_clean_linker_0, # of connection points: 2
#     Edge 69, Type (0, 0), BuildingBlock: XIVTED_clean_linker_0, # of connection points: 2
#     Edge 70, Type (0, 0), BuildingBlock: XIVTED_clean_linker_0, # of connection points: 2
#     Edge 71, Type (0, 0), BuildingBlock: XIVTED_clean_linker_0, # of connection points: 2
#     Edge 72, Type (0, 0), BuildingBlock: XIVTED_clean_linker_0, # of connection points: 2
#     Edge 73, Type (0, 0), BuildingBlock: XIVTED_clean_linker_0, # of connection points: 2
#     Edge 74, Type (0, 0), BuildingBlock: XIVTED_clean_linker_0, # of connection points: 2
#     Edge 75, Type (0, 0), BuildingBlock: XIVTED_clean_linker_0, # of connection points: 2
#     Edge 76, Type (0, 0), BuildingBlock: XIVTED_clean_linker_0, # of connection points: 2
#     Edge 77, Type (0, 0), BuildingBlock: XIVTED_clean_linker_0, # of connection points: 2
#     Edge 78, Type (0, 0), BuildingBlock: XIVTED_clean_linker_0, # of connection points: 2
#     Edge 79, Type (0, 0), BuildingBlock: XIVTED_clean_linker_0, # of connection points: 2
#     Edge 80, Type (0, 0), BuildingBlock: XIVTED_clean_linker_0, # of connection points: 2
#     Edge 81, Type (0, 0), BuildingBlock: XIVTED_clean_linker_0, # of connection points: 2
#     Edge 82, Type (0, 0), BuildingBlock: XIVTED_clean_linker_0, # of connection points: 2
#     Edge 83, Type (0, 0), BuildingBlock: XIVTED_clean_linker_0, # of connection points: 2
#     Edge 84, Type (0, 0), BuildingBlock: XIVTED_clean_linker_0, # of connection points: 2
#     Edge 85, Type (0, 0), BuildingBlock: XIVTED_clean_linker_0, # of connection points: 2
#     Edge 86, Type (0, 0), BuildingBlock: XIVTED_clean_linker_0, # of connection points: 2
#     Edge 87, Type (0, 0), BuildingBlock: XIVTED_clean_linker_0, # of connection points: 2
#     Edge 88, Type (0, 0), BuildingBlock: XIVTED_clean_linker_0, # of connection points: 2
#     Edge 89, Type (0, 0), BuildingBlock: XIVTED_clean_linker_0, # of connection points: 2
#     Edge 90, Type (0, 0), BuildingBlock: XIVTED_clean_linker_0, # of connection points: 2
#     Edge 91, Type (0, 0), BuildingBlock: XIVTED_clean_linker_0, # of connection points: 2
#     Edge 92, Type (0, 0), BuildingBlock: XIVTED_clean_linker_0, # of connection points: 2
#     Edge 93, Type (0, 0), BuildingBlock: XIVTED_clean_linker_0, # of connection points: 2
#     Edge 94, Type (0, 0), BuildingBlock: XIVTED_clean_linker_0, # of connection points: 2
#     Edge 95, Type (0, 0), BuildingBlock: XIVTED_clean_linker_0, # of connection points: 2
#     Edge 96, Type (0, 0), BuildingBlock: XIVTED_clean_linker_0, # of connection points: 2
#     Edge 97, Type (0, 0), BuildingBlock: XIVTED_clean_linker_0, # of connection points: 2
#     Edge 98, Type (0, 0), BuildingBlock: XIVTED_clean_linker_0, # of connection points: 2
#     Edge 99, Type (0, 0), BuildingBlock: XIVTED_clean_linker_0, # of connection points: 2
#     Edge 100, Type (0, 0), BuildingBlock: XIVTED_clean_linker_0, # of connection points: 2
#     Edge 101, Type (0, 0), BuildingBlock: XIVTED_clean_linker_0, # of connection points: 2
#     Edge 102, Type (0, 0), BuildingBlock: XIVTED_clean_linker_0, # of connection points: 2
#     Edge 103, Type (0, 0), BuildingBlock: XIVTED_clean_linker_0, # of connection points: 2
#     Edge 104, Type (0, 0), BuildingBlock: XIVTED_clean_linker_0, # of connection points: 2
#     Edge 105, Type (0, 0), BuildingBlock: XIVTED_clean_linker_0, # of connection points: 2
#     Edge 106, Type (0, 0), BuildingBlock: XIVTED_clean_linker_0, # of connection points: 2
#     Edge 107, Type (0, 0), BuildingBlock: XIVTED_clean_linker_0, # of connection points: 2
#     Edge 108, Type (0, 0), BuildingBlock: XIVTED_clean_linker_0, # of connection points: 2
#     Edge 109, Type (0, 0), BuildingBlock: XIVTED_clean_linker_0, # of connection points: 2
#     Edge 110, Type (0, 0), BuildingBlock: XIVTED_clean_linker_0, # of connection points: 2
#     Edge 111, Type (0, 0), BuildingBlock: XIVTED_clean_linker_0, # of connection points: 2
#     Edge 112, Type (0, 0), BuildingBlock: XIVTED_clean_linker_0, # of connection points: 2
#     Edge 113, Type (0, 0), BuildingBlock: XIVTED_clean_linker_0, # of connection points: 2
#     Edge 114, Type (0, 0), BuildingBlock: XIVTED_clean_linker_0, # of connection points: 2
#     Edge 115, Type (0, 0), BuildingBlock: XIVTED_clean_linker_0, # of connection points: 2
#     Edge 116, Type (0, 0), BuildingBlock: XIVTED_clean_linker_0, # of connection points: 2
#     Edge 117, Type (0, 0), BuildingBlock: XIVTED_clean_linker_0, # of connection points: 2
#     Edge 118, Type (0, 0), BuildingBlock: XIVTED_clean_linker_0, # of connection points: 2
#     Edge 119, Type (0, 0), BuildingBlock: XIVTED_clean_linker_0, # of connection points: 2
#     Edge 120, Type (0, 0), BuildingBlock: XIVTED_clean_linker_0, # of connection points: 2
#     Edge 121, Type (0, 0), BuildingBlock: XIVTED_clean_linker_0, # of connection points: 2
#     Edge 122, Type (0, 0), BuildingBlock: XIVTED_clean_linker_0, # of connection points: 2
#     Edge 123, Type (0, 0), BuildingBlock: XIVTED_clean_linker_0, # of connection points: 2
#     Edge 124, Type (0, 0), BuildingBlock: XIVTED_clean_linker_0, # of connection points: 2
#     Edge 125, Type (0, 0), BuildingBlock: XIVTED_clean_linker_0, # of connection points: 2
#     Edge 126, Type (0, 0), BuildingBlock: XIVTED_clean_linker_0, # of connection points: 2
#     Edge 127, Type (0, 0), BuildingBlock: XIVTED_clean_linker_0, # of connection points: 2
#     Edge 128, Type (0, 0), BuildingBlock: XIVTED_clean_linker_0, # of connection points: 2
#     Edge 129, Type (0, 0), BuildingBlock: XIVTED_clean_linker_0, # of connection points: 2
#     Edge 130, Type (0, 0), BuildingBlock: XIVTED_clean_linker_0, # of connection points: 2
#     Edge 131, Type (0, 0), BuildingBlock: XIVTED_clean_linker_0, # of connection points: 2
#     Edge 132, Type (0, 0), BuildingBlock: XIVTED_clean_linker_0, # of connection points: 2
#     Edge 133, Type (0, 0), BuildingBlock: XIVTED_clean_linker_0, # of connection points: 2
#     Edge 134, Type (0, 0), BuildingBlock: XIVTED_clean_linker_0, # of connection points: 2
#     Edge 135, Type (0, 0), BuildingBlock: XIVTED_clean_linker_0, # of connection points: 2
#     Edge 136, Type (0, 0), BuildingBlock: XIVTED_clean_linker_0, # of connection points: 2
#     Edge 137, Type (0, 0), BuildingBlock: XIVTED_clean_linker_0, # of connection points: 2
#     Edge 138, Type (0, 0), BuildingBlock: XIVTED_clean_linker_0, # of connection points: 2
#     Edge 139, Type (0, 0), BuildingBlock: XIVTED_clean_linker_0, # of connection points: 2
#     Edge 140, Type (0, 0), BuildingBlock: XIVTED_clean_linker_0, # of connection points: 2
#     Edge 141, Type (0, 0), BuildingBlock: XIVTED_clean_linker_0, # of connection points: 2
#     Edge 142, Type (0, 0), BuildingBlock: XIVTED_clean_linker_0, # of connection points: 2
#     Edge 143, Type (0, 0), BuildingBlock: XIVTED_clean_linker_0, # of connection points: 2
#     Edge 144, Type (0, 0), BuildingBlock: XIVTED_clean_linker_0, # of connection points: 2
#     Edge 145, Type (0, 0), BuildingBlock: XIVTED_clean_linker_0, # of connection points: 2
#     Edge 146, Type (0, 0), BuildingBlock: XIVTED_clean_linker_0, # of connection points: 2
#     Edge 147, Type (0, 0), BuildingBlock: XIVTED_clean_linker_0, # of connection points: 2
#     Edge 148, Type (0, 0), BuildingBlock: XIVTED_clean_linker_0, # of connection points: 2
#     Edge 149, Type (0, 0), BuildingBlock: XIVTED_clean_linker_0, # of connection points: 2
#     Edge 150, Type (0, 0), BuildingBlock: XIVTED_clean_linker_0, # of connection points: 2
#     Edge 151, Type (0, 0), BuildingBlock: XIVTED_clean_linker_0, # of connection points: 2
#     Edge 152, Type (0, 0), BuildingBlock: XIVTED_clean_linker_0, # of connection points: 2
#     Edge 153, Type (0, 0), BuildingBlock: XIVTED_clean_linker_0, # of connection points: 2
#     Edge 154, Type (0, 0), BuildingBlock: XIVTED_clean_linker_0, # of connection points: 2
#     Edge 155, Type (0, 0), BuildingBlock: XIVTED_clean_linker_0, # of connection points: 2
#     Edge 156, Type (0, 0), BuildingBlock: XIVTED_clean_linker_0, # of connection points: 2
#     Edge 157, Type (0, 0), BuildingBlock: XIVTED_clean_linker_0, # of connection points: 2
#     Edge 158, Type (0, 0), BuildingBlock: XIVTED_clean_linker_0, # of connection points: 2
#     Edge 159, Type (0, 0), BuildingBlock: XIVTED_clean_linker_0, # of connection points: 2
#     Edge 160, Type (0, 0), BuildingBlock: XIVTED_clean_linker_0, # of connection points: 2
#     Edge 161, Type (0, 0), BuildingBlock: XIVTED_clean_linker_0, # of connection points: 2
#     Edge 162, Type (0, 0), BuildingBlock: XIVTED_clean_linker_0, # of connection points: 2
#     Edge 163, Type (0, 0), BuildingBlock: XIVTED_clean_linker_0, # of connection points: 2
#     Edge 164, Type (0, 0), BuildingBlock: XIVTED_clean_linker_0, # of connection points: 2
#     Edge 165, Type (0, 0), BuildingBlock: XIVTED_clean_linker_0, # of connection points: 2
#     Edge 166, Type (0, 0), BuildingBlock: XIVTED_clean_linker_0, # of connection points: 2
#     Edge 167, Type (0, 0), BuildingBlock: XIVTED_clean_linker_0, # of connection points: 2
#     Edge 168, Type (0, 0), BuildingBlock: XIVTED_clean_linker_0, # of connection points: 2
#     Edge 169, Type (0, 0), BuildingBlock: XIVTED_clean_linker_0, # of connection points: 2
#     Edge 170, Type (0, 0), BuildingBlock: XIVTED_clean_linker_0, # of connection points: 2
#     Edge 171, Type (0, 0), BuildingBlock: XIVTED_clean_linker_0, # of connection points: 2
#     Edge 172, Type (0, 0), BuildingBlock: XIVTED_clean_linker_0, # of connection points: 2
#     Edge 173, Type (0, 0), BuildingBlock: XIVTED_clean_linker_0, # of connection points: 2
#     Edge 174, Type (0, 0), BuildingBlock: XIVTED_clean_linker_0, # of connection points: 2
#     Edge 175, Type (0, 0), BuildingBlock: XIVTED_clean_linker_0, # of connection points: 2
#     Edge 176, Type (0, 0), BuildingBlock: XIVTED_clean_linker_0, # of connection points: 2
#     Edge 177, Type (0, 0), BuildingBlock: XIVTED_clean_linker_0, # of connection points: 2
#     Edge 178, Type (0, 0), BuildingBlock: XIVTED_clean_linker_0, # of connection points: 2
#     Edge 179, Type (0, 0), BuildingBlock: XIVTED_clean_linker_0, # of connection points: 2
#     Edge 180, Type (0, 0), BuildingBlock: XIVTED_clean_linker_0, # of connection points: 2
#     Edge 181, Type (0, 0), BuildingBlock: XIVTED_clean_linker_0, # of connection points: 2
#     Edge 182, Type (0, 0), BuildingBlock: XIVTED_clean_linker_0, # of connection points: 2
#     Edge 183, Type (0, 0), BuildingBlock: XIVTED_clean_linker_0, # of connection points: 2
#     Edge 184, Type (0, 0), BuildingBlock: XIVTED_clean_linker_0, # of connection points: 2
#     Edge 185, Type (0, 0), BuildingBlock: XIVTED_clean_linker_0, # of connection points: 2
#     Edge 186, Type (0, 0), BuildingBlock: XIVTED_clean_linker_0, # of connection points: 2
#     Edge 187, Type (0, 0), BuildingBlock: XIVTED_clean_linker_0, # of connection points: 2
#     Edge 188, Type (0, 0), BuildingBlock: XIVTED_clean_linker_0, # of connection points: 2
#     Edge 189, Type (0, 0), BuildingBlock: XIVTED_clean_linker_0, # of connection points: 2
#     Edge 190, Type (0, 0), BuildingBlock: XIVTED_clean_linker_0, # of connection points: 2
#     Edge 191, Type (0, 0), BuildingBlock: XIVTED_clean_linker_0, # of connection points: 2
#     Edge 192, Type (0, 0), BuildingBlock: XIVTED_clean_linker_0, # of connection points: 2
#     Edge 193, Type (0, 0), BuildingBlock: XIVTED_clean_linker_0, # of connection points: 2
#     Edge 194, Type (0, 0), BuildingBlock: XIVTED_clean_linker_0, # of connection points: 2
#     Edge 195, Type (0, 0), BuildingBlock: XIVTED_clean_linker_0, # of connection points: 2
#     Edge 196, Type (0, 0), BuildingBlock: XIVTED_clean_linker_0, # of connection points: 2
#     Edge 197, Type (0, 0), BuildingBlock: XIVTED_clean_linker_0, # of connection points: 2
#     Edge 198, Type (0, 0), BuildingBlock: XIVTED_clean_linker_0, # of connection points: 2
#     Edge 199, Type (0, 0), BuildingBlock: XIVTED_clean_linker_0, # of connection points: 2
#     Edge 200, Type (0, 0), BuildingBlock: XIVTED_clean_linker_0, # of connection points: 2
#     Edge 201, Type (0, 0), BuildingBlock: XIVTED_clean_linker_0, # of connection points: 2
#     Edge 202, Type (0, 0), BuildingBlock: XIVTED_clean_linker_0, # of connection points: 2
#     Edge 203, Type (0, 0), BuildingBlock: XIVTED_clean_linker_0, # of connection points: 2
#     Edge 204, Type (0, 0), BuildingBlock: XIVTED_clean_linker_0, # of connection points: 2
#     Edge 205, Type (0, 0), BuildingBlock: XIVTED_clean_linker_0, # of connection points: 2
#     Edge 206, Type (0, 0), BuildingBlock: XIVTED_clean_linker_0, # of connection points: 2
#     Edge 207, Type (0, 0), BuildingBlock: XIVTED_clean_linker_0, # of connection points: 2
#     Edge 208, Type (0, 0), BuildingBlock: XIVTED_clean_linker_0, # of connection points: 2
#     Edge 209, Type (0, 0), BuildingBlock: XIVTED_clean_linker_0, # of connection points: 2
#     Edge 210, Type (0, 0), BuildingBlock: XIVTED_clean_linker_0, # of connection points: 2
#     Edge 211, Type (0, 0), BuildingBlock: XIVTED_clean_linker_0, # of connection points: 2
#     Edge 212, Type (0, 0), BuildingBlock: XIVTED_clean_linker_0, # of connection points: 2
#     Edge 213, Type (0, 0), BuildingBlock: XIVTED_clean_linker_0, # of connection points: 2
#     Edge 214, Type (0, 0), BuildingBlock: XIVTED_clean_linker_0, # of connection points: 2
#     Edge 215, Type (0, 0), BuildingBlock: XIVTED_clean_linker_0, # of connection points: 2
#     Edge 216, Type (0, 0), BuildingBlock: XIVTED_clean_linker_0, # of connection points: 2
#     Edge 217, Type (0, 0), BuildingBlock: XIVTED_clean_linker_0, # of connection points: 2
#     Edge 218, Type (0, 0), BuildingBlock: XIVTED_clean_linker_0, # of connection points: 2
#     Edge 219, Type (0, 0), BuildingBlock: XIVTED_clean_linker_0, # of connection points: 2
#     Edge 220, Type (0, 0), BuildingBlock: XIVTED_clean_linker_0, # of connection points: 2
#     Edge 221, Type (0, 0), BuildingBlock: XIVTED_clean_linker_0, # of connection points: 2
#     Edge 222, Type (0, 0), BuildingBlock: XIVTED_clean_linker_0, # of connection points: 2
#     Edge 223, Type (0, 0), BuildingBlock: XIVTED_clean_linker_0, # of connection points: 2
#     Edge 224, Type (0, 0), BuildingBlock: XIVTED_clean_linker_0, # of connection points: 2
#     Edge 225, Type (0, 0), BuildingBlock: XIVTED_clean_linker_0, # of connection points: 2
#     Edge 226, Type (0, 0), BuildingBlock: XIVTED_clean_linker_0, # of connection points: 2
#     Edge 227, Type (0, 0), BuildingBlock: XIVTED_clean_linker_0, # of connection points: 2
#     Edge 228, Type (0, 0), BuildingBlock: XIVTED_clean_linker_0, # of connection points: 2
#     Edge 229, Type (0, 0), BuildingBlock: XIVTED_clean_linker_0, # of connection points: 2
#     Edge 230, Type (0, 0), BuildingBlock: XIVTED_clean_linker_0, # of connection points: 2
#     Edge 231, Type (0, 0), BuildingBlock: XIVTED_clean_linker_0, # of connection points: 2
#     Edge 232, Type (0, 0), BuildingBlock: XIVTED_clean_linker_0, # of connection points: 2
#     Edge 233, Type (0, 0), BuildingBlock: XIVTED_clean_linker_0, # of connection points: 2
#     Edge 234, Type (0, 0), BuildingBlock: XIVTED_clean_linker_0, # of connection points: 2
#     Edge 235, Type (0, 0), BuildingBlock: XIVTED_clean_linker_0, # of connection points: 2
#     Edge 236, Type (0, 0), BuildingBlock: XIVTED_clean_linker_0, # of connection points: 2
#     Edge 237, Type (0, 0), BuildingBlock: XIVTED_clean_linker_0, # of connection points: 2
#     Edge 238, Type (0, 0), BuildingBlock: XIVTED_clean_linker_0, # of connection points: 2
#     Edge 239, Type (0, 0), BuildingBlock: XIVTED_clean_linker_0, # of connection points: 2
# Relax obj value: 0.353
# Max RMSD: 0.248
# Mean RMSD: 0.181
data_MOF--net-pyc--node1-TAGTUT_clean_sbu_3--edge1-XIVTED_clean_linker_0
_symmetry_space_group_name_H-M    P1
_symmetry_Int_Tables_number       1
_symmetry_cell_setting            triclinic
loop_
_symmetry_equiv_pos_as_xyz
'x, y, z'
_cell_length_a     61.38659
_cell_length_b     61.37419
_cell_length_c     61.203477
_cell_angle_alpha  93.987889
_cell_angle_beta   94.105894
_cell_angle_gamma 101.26697
loop_
_atom_site_label
_atom_site_type_symbol
_atom_site_fract_x
_atom_site_fract_y
_atom_site_fract_z
_atom_type_partial_charge
C0 C 0.11822 0.1527 0.41072 0.0
C1 C 0.14883 0.0787 0.3914 0.0
C2 C 0.09208 0.05021 0.42748 0.0
Mg3 Mg 0.09588 0.16481 0.45411 0.0
Mg4 Mg 0.1006 0.14043 0.50005 0.0
O5 O 0.09264 0.13656 0.46995 0.0
Mg6 Mg 0.11 0.12019 0.45075 0.0
O7 O 0.12616 0.10543 0.42952 0.0
Mg8 Mg 0.10298 0.0989 0.40382 0.0
Mg9 Mg 0.13586 0.08047 0.43904 0.0
C10 C 0.09938 0.08877 0.49295 0.0
O11 O 0.14397 0.12785 0.47433 0.0
O12 O 0.07182 0.17621 0.47756 0.0
O13 O 0.15563 0.09556 0.46813 0.0
O14 O 0.12653 0.18319 0.47766 0.0
O15 O 0.07585 0.15898 0.50853 0.0
O16 O 0.13225 0.16176 0.50461 0.0
O17 O 0.077 0.11087 0.42655 0.0
O18 O 0.06688 0.144 0.43158 0.0
C19 C 0.06295 0.12379 0.42293 0.0
C20 C 0.06693 0.17213 0.49705 0.0
O21 O 0.10169 0.08994 0.47225 0.0
O22 O 0.13262 0.08825 0.38553 0.0
O23 O 0.0991 0.10592 0.50609 0.0
O24 O 0.08977 0.06267 0.41192 0.0
O25 O 0.15207 0.07296 0.41084 0.0
O26 O 0.10803 0.05555 0.4424 0.0
O27 O 0.1184 0.1509 0.4315 0.0
O28 O 0.1146 0.13531 0.39712 0.0
C29 C 0.13822 0.1791 0.49454 0.0
C30 C 0.1575 0.11465 0.47871 0.0
C31 C 0.86239 0.31604 0.6038 0.0
C32 C 0.83386 0.29272 0.67774 0.0
C33 C 0.79276 0.34266 0.66974 0.0
Mg34 Mg 0.8748 0.36718 0.58757 0.0
Mg35 Mg 0.89002 0.40752 0.62637 0.0
O36 O 0.86679 0.3849 0.6132 0.0
Mg37 Mg 0.8577 0.36098 0.63297 0.0
O38 O 0.84778 0.33646 0.65175 0.0
Mg39 Mg 0.82126 0.31859 0.63301 0.0
Mg40 Mg 0.84262 0.34488 0.68088 0.0
C41 C 0.85341 0.40795 0.65984 0.0
O42 O 0.88897 0.37125 0.6566 0.0
O43 O 0.87923 0.40224 0.57103 0.0
O44 O 0.87425 0.36898 0.68938 0.0
O45 O 0.91254 0.37346 0.5988 0.0
O46 O 0.89267 0.42756 0.59973 0.0
O47 O 0.91978 0.39468 0.63055 0.0
O48 O 0.82583 0.34924 0.61206 0.0
O49 O 0.83619 0.35855 0.57914 0.0
C50 C 0.82112 0.35037 0.59158 0.0
C51 C 0.88687 0.42258 0.57926 0.0
O52 O 0.84435 0.38738 0.65426 0.0
O53 O 0.82441 0.29119 0.65797 0.0
O54 O 0.87187 0.41749 0.65294 0.0
O55 O 0.79566 0.33087 0.65272 0.0
O56 O 0.84135 0.31145 0.689 0.0
O57 O 0.80928 0.3521 0.68324 0.0
O58 O 0.87141 0.33657 0.60937 0.0
O59 O 0.84502 0.30656 0.61221 0.0
C60 C 0.92571 0.38204 0.61568 0.0
C61 C 0.89061 0.37507 0.67762 0.0
C62 C 0.61714 0.15264 0.90821 0.0
C63 C 0.65238 0.08123 0.89358 0.0
C64 C 0.59709 0.05164 0.93034 0.0
Mg65 Mg 0.59309 0.16589 0.94991 0.0
Mg66 Mg 0.59909 0.14507 -0.00263 0.0
O67 O 0.59013 0.13868 0.96747 0.0
Mg68 Mg 0.60891 0.12228 0.95004 0.0
O69 O 0.62686 0.10765 0.93039 0.0
Mg70 Mg 0.60453 0.09884 0.90412 0.0
Mg71 Mg 0.63966 0.08499 0.94125 0.0
C72 C 0.59867 0.09349 -0.0059 0.0
O73 O 0.6415 0.13254 0.97462 0.0
O74 O 0.56806 0.17761 0.9724 0.0
O75 O 0.65821 0.10309 0.97 0.0
O76 O 0.62353 0.18622 0.97238 0.0
O77 O 0.57418 0.16366 0.00489 0.0
O78 O 0.63065 0.16655 0.0003 0.0
O79 O 0.57719 0.11073 0.92507 0.0
O80 O 0.56537 0.14329 0.92716 0.0
C81 C 0.56298 0.12287 0.91942 0.0
C82 C 0.56399 0.17508 -0.00756 0.0
O83 O 0.60099 0.0932 0.97326 0.0
O84 O 0.63502 0.08871 0.8869 0.0
O85 O 0.59822 0.11144 0.00597 0.0
O86 O 0.59325 0.06328 0.9145 0.0
O87 O 0.65677 0.07788 0.91363 0.0
O88 O 0.61356 0.05813 0.94457 0.0
O89 O 0.6167 0.15175 0.92906 0.0
O90 O 0.61466 0.13477 0.89541 0.0
C91 C 0.63609 0.18305 -0.011 0.0
C92 C 0.65701 0.12186 0.97984 0.0
C93 C 0.85754 0.82311 0.1017 0.0
C94 C 0.83392 0.795 0.1732 0.0
C95 C 0.79825 0.84955 0.1787 0.0
Mg96 Mg 0.874 0.87456 0.08915 0.0
Mg97 Mg 0.89411 0.91288 0.12894 0.0
O98 O 0.86923 0.89201 0.11632 0.0
Mg99 Mg 0.85929 0.86726 0.13486 0.0
O100 O 0.84834 0.84182 0.15202 0.0
Mg101 Mg 0.81946 0.82763 0.13456 0.0
Mg102 Mg 0.84771 0.84663 0.18246 0.0
C103 C 0.85984 0.91407 0.16456 0.0
O104 O 0.89228 0.87355 0.15626 0.0
O105 O 0.88055 0.91018 0.07426 0.0
O106 O 0.88013 0.86916 0.18995 0.0
O107 O 0.91213 0.87687 0.09835 0.0
O108 O 0.8969 0.93401 0.10311 0.0
O109 O 0.92201 0.89725 0.13045 0.0
O110 O 0.82574 0.86023 0.11649 0.0
O111 O 0.83511 0.8708 0.08365 0.0
C112 C 0.82023 0.86397 0.09682 0.0
C113 C 0.88988 0.92998 0.08281 0.0
O114 O 0.84973 0.89389 0.15871 0.0
O115 O 0.82194 0.79675 0.15539 0.0
O116 O 0.8782 0.92305 0.15709 0.0
O117 O 0.7974 0.84024 0.1593 0.0
O118 O 0.84491 0.81192 0.1855 0.0
O119 O 0.81665 0.85523 0.19069 0.0
O120 O 0.86894 0.84249 0.10869 0.0
O121 O 0.83951 0.8151 0.10987 0.0
C122 C 0.92628 0.88423 0.11493 0.0
C123 C 0.89548 0.87587 0.1773 0.0
C124 C 0.12437 0.15746 0.88206 0.0
C125 C 0.05461 0.08911 0.89475 0.0
C126 C 0.09906 0.05243 0.86082 0.0
Mg127 Mg 0.15762 0.15781 0.84147 0.0
Mg128 Mg 0.13076 0.13596 0.7946 0.0
O129 O 0.14089 0.13041 0.82311 0.0
Mg130 Mg 0.11644 0.11969 0.8418 0.0
O131 O 0.09246 0.11003 0.86133 0.0
Mg132 Mg 0.11023 0.10382 0.88771 0.0
Mg133 Mg 0.07113 0.08563 0.84831 0.0
C134 C 0.10278 0.08691 0.79727 0.0
O135 O 0.0895 0.13161 0.82018 0.0
O136 O 0.18488 0.15618 0.81597 0.0
O137 O 0.06039 0.10294 0.82135 0.0
O138 O 0.14429 0.18283 0.82159 0.0
O139 O 0.16378 0.1404 0.78502 0.0
O140 O 0.12141 0.16825 0.79246 0.0
O141 O 0.14143 0.10771 0.86626 0.0
O142 O 0.17078 0.1347 0.86255 0.0
C143 C 0.16189 0.11739 0.87146 0.0
C144 C 0.1828 0.14832 0.79558 0.0
O145 O 0.10714 0.08799 0.81822 0.0
O146 O 0.07456 0.09813 0.90332 0.0
O147 O 0.10803 0.10378 0.78594 0.0
O148 O 0.10619 0.06603 0.87779 0.0
O149 O 0.05046 0.08233 0.87441 0.0
O150 O 0.08643 0.05732 0.84526 0.0
O151 O 0.1269 0.15191 0.86211 0.0
O152 O 0.11636 0.14269 0.89486 0.0
C153 C 0.13149 0.18517 0.80506 0.0
C154 C 0.06922 0.12169 0.8145 0.0
C155 C 0.82217 0.36374 0.0622 0.0
C156 C 0.89488 0.33122 0.08147 0.0
C157 C 0.92556 0.38461 0.04499 0.0
Mg158 Mg 0.80919 0.38373 0.01801 0.0
Mg159 Mg 0.8308 0.37288 0.97235 0.0
O160 O 0.83691 0.38548 0.0012 0.0
Mg161 Mg 0.85375 0.36896 0.02106 0.0
O162 O 0.86874 0.35343 0.04275 0.0
Mg163 Mg 0.87607 0.3772 0.06781 0.0
Mg164 Mg 0.89315 0.34269 0.03317 0.0
C165 C 0.88274 0.37446 0.97695 0.0
O166 O 0.84511 0.33447 -0.00085 0.0
O167 O 0.79742 0.40613 -0.00728 0.0
O168 O 0.87676 0.32149 0.00525 0.0
O169 O 0.78856 0.35203 -0.00264 0.0
O170 O 0.81139 0.39606 0.96134 0.0
O171 O 0.80975 0.34128 0.97247 0.0
O172 O 0.86437 0.40266 0.04388 0.0
O173 O 0.83125 0.41316 0.03913 0.0
C174 C 0.85152 0.41674 0.04763 0.0
C175 C 0.79978 0.40754 0.97218 0.0
O176 O 0.88318 0.37502 -0.00187 0.0
O177 O 0.8857 0.34777 0.08702 0.0
O178 O 0.86464 0.37305 0.96458 0.0
O179 O 0.91266 0.38774 0.05989 0.0
O180 O 0.90041 0.32737 0.06206 0.0
O181 O 0.91927 0.36962 0.02924 0.0
O182 O 0.82352 0.36232 0.04137 0.0
O183 O 0.8398 0.36746 0.07545 0.0
C184 C 0.7922 0.33771 0.98256 0.0
C185 C 0.85744 0.32005 -0.00476 0.0
C186 C 0.62086 0.16296 0.3784 0.0
C187 C 0.55557 0.09318 0.39004 0.0
C188 C 0.60309 0.05707 0.36019 0.0
Mg189 Mg 0.65903 0.16553 0.34273 0.0
Mg190 Mg 0.64299 0.13763 0.29433 0.0
O191 O 0.64668 0.13634 0.32469 0.0
Mg192 Mg 0.62052 0.12426 0.34052 0.0
O193 O 0.59513 0.11362 0.35794 0.0
Mg194 Mg 0.61157 0.10928 0.38586 0.0
Mg195 Mg 0.5746 0.08879 0.34492 0.0
C196 C 0.61377 0.08915 0.29731 0.0
O197 O 0.5945 0.13343 0.31556 0.0
O198 O 0.69105 0.16513 0.32348 0.0
O199 O 0.56552 0.10454 0.31635 0.0
O200 O 0.64645 0.18749 0.3176 0.0
O201 O 0.67804 0.14224 0.29272 0.0
O202 O 0.63268 0.16783 0.28611 0.0
O203 O 0.64494 0.11492 0.3677 0.0
O204 O 0.67149 0.14542 0.36761 0.0
C205 C 0.66406 0.12683 0.37509 0.0
C206 C 0.69407 0.15379 0.30576 0.0
O207 O 0.61531 0.09128 0.31844 0.0
O208 O 0.57516 0.10241 0.39922 0.0
O209 O 0.62127 0.10517 0.28569 0.0
O210 O 0.60987 0.07127 0.37685 0.0
O211 O 0.55226 0.08605 0.36974 0.0
O212 O 0.59054 0.06121 0.34419 0.0
O213 O 0.62579 0.15764 0.35914 0.0
O214 O 0.6142 0.14791 0.39142 0.0
C215 C 0.63746 0.1863 0.298 0.0
C216 C 0.57463 0.12291 0.30901 0.0
C217 C 0.82817 0.86275 0.56396 0.0
C218 C 0.89918 0.82603 0.57847 0.0
C219 C 0.92997 0.88073 0.54275 0.0
Mg220 Mg 0.81557 0.88595 0.52163 0.0
Mg221 Mg 0.83663 0.87949 0.4744 0.0
O222 O 0.84293 0.88854 0.50428 0.0
Mg223 Mg 0.85884 0.86958 0.52208 0.0
O224 O 0.87305 0.85158 0.54195 0.0
Mg225 Mg 0.88201 0.87398 0.5681 0.0
Mg226 Mg 0.89604 0.8394 0.53086 0.0
C227 C 0.88778 0.87799 0.47781 0.0
O228 O 0.84819 0.83677 0.49785 0.0
O229 O 0.80404 0.91064 0.49867 0.0
O230 O 0.87802 0.82056 0.50227 0.0
O231 O 0.79524 0.85521 0.49952 0.0
O232 O 0.81831 0.9045 0.46639 0.0
O233 O 0.81499 0.84809 0.47171 0.0
O234 O 0.87084 0.90161 0.54679 0.0
O235 O 0.83839 0.91372 0.54413 0.0
C236 C 0.85876 0.91603 0.55208 0.0
C237 C 0.80673 0.91464 0.47866 0.0
O238 O 0.88804 0.87613 0.49874 0.0
O239 O 0.89136 0.84313 0.58524 0.0
O240 O 0.87003 0.87911 0.46592 0.0
O241 O 0.91789 0.88409 0.55833 0.0
O242 O 0.90317 0.82223 0.55851 0.0
O243 O 0.92319 0.86539 0.5274 0.0
O244 O 0.82917 0.86266 0.54308 0.0
O245 O 0.84597 0.86489 0.5768 0.0
C246 C 0.79857 0.84257 0.48306 0.0
C247 C 0.85905 0.82141 0.49262 0.0
C248 C 0.39979 0.07125 0.12229 0.0
C249 C 0.47946 0.07164 0.154 0.0
C250 C 0.47558 0.13543 0.1884 0.0
Mg251 Mg 0.3792 0.11606 0.11068 0.0
Mg252 Mg 0.41425 0.16002 0.09851 0.0
O253 O 0.40515 0.14115 0.12041 0.0
Mg254 Mg 0.42744 0.12315 0.12821 0.0
O255 O 0.4484 0.10432 0.13703 0.0
Mg256 Mg 0.43488 0.09319 0.16431 0.0
Mg257 Mg 0.47821 0.11923 0.14124 0.0
C258 C 0.45655 0.17533 0.13167 0.0
O259 O 0.44518 0.12855 0.09671 0.0
O260 O 0.35953 0.14576 0.10625 0.0
O261 O 0.48095 0.13506 0.11087 0.0
O262 O 0.38616 0.11474 0.07447 0.0
O263 O 0.38565 0.17348 0.09572 0.0
O264 O 0.41548 0.14085 0.06886 0.0
O265 O 0.41106 0.11756 0.16006 0.0
O266 O 0.37531 0.11502 0.14788 0.0
C267 C 0.39034 0.11426 0.16342 0.0
C268 C 0.36574 0.16552 0.09987 0.0
O269 O 0.45234 0.15674 0.14072 0.0
O270 O 0.4606 0.07004 0.16237 0.0
O271 O 0.44474 0.1792 0.11483 0.0
O272 O 0.45922 0.119 0.18856 0.0
O273 O 0.48926 0.08933 0.146 0.0
O274 O 0.48454 0.14009 0.17085 0.0
O275 O 0.40292 0.09036 0.11415 0.0
O276 O 0.41029 0.0687 0.14044 0.0
C277 C 0.40108 0.12336 0.06238 0.0
C278 C 0.46606 0.13561 0.09525 0.0
C279 C 0.85256 0.61248 0.31202 0.0
C280 C 0.90644 0.62045 0.38908 0.0
C281 C 0.85412 0.654 0.41004 0.0
Mg282 Mg 0.81752 0.6442 0.29813 0.0
Mg283 Mg 0.83279 0.6972 0.31429 0.0
O284 O 0.82541 0.66843 0.32311 0.0
Mg285 Mg 0.84953 0.65811 0.34047 0.0
O286 O 0.87277 0.64519 0.35672 0.0
Mg287 Mg 0.85373 0.61775 0.36588 0.0
Mg288 Mg 0.88985 0.66385 0.3795 0.0
C289 C 0.84656 0.70754 0.36524 0.0
O290 O 0.87906 0.68251 0.32852 0.0
O291 O 0.78655 0.66038 0.29022 0.0
O292 O 0.90349 0.68866 0.35882 0.0
O293 O 0.83592 0.66546 0.2725 0.0
O294 O 0.79992 0.69688 0.30054 0.0
O295 O 0.85388 0.69846 0.28806 0.0
O296 O 0.82255 0.6317 0.35306 0.0
O297 O 0.79932 0.62325 0.32257 0.0
C298 C 0.80454 0.62047 0.3426 0.0
C299 C 0.78416 0.68079 0.2926 0.0
O300 O 0.84804 0.68706 0.36747 0.0
O301 O 0.88786 0.60839 0.38011 0.0
O302 O 0.84327 0.71475 0.34634 0.0
O303 O 0.84923 0.63456 0.39976 0.0
O304 O 0.91002 0.64175 0.3907 0.0
O305 O 0.8685 0.66964 0.40374 0.0
O306 O 0.84903 0.63234 0.31239 0.0
O307 O 0.85677 0.60349 0.32983 0.0
C308 C 0.84894 0.68427 0.2714 0.0
C309 C 0.89795 0.69179 0.33886 0.0
C310 C 0.36946 0.12736 0.66037 0.0
C311 C 0.36503 0.07438 0.58399 0.0
C312 C 0.33487 0.12945 0.56119 0.0
Mg313 Mg 0.33759 0.16155 0.67352 0.0
Mg314 Mg 0.28594 0.15073 0.65263 0.0
O315 O 0.31564 0.15686 0.6465 0.0
Mg316 Mg 0.32621 0.13267 0.62932 0.0
O317 O 0.33934 0.10918 0.61393 0.0
Mg318 Mg 0.36816 0.12765 0.60702 0.0
Mg319 Mg 0.32187 0.0925 0.59014 0.0
C320 C 0.27943 0.13921 0.60113 0.0
O321 O 0.29931 0.10378 0.6387 0.0
O322 O 0.32273 0.19292 0.68303 0.0
O323 O 0.29483 0.07933 0.60856 0.0
O324 O 0.31339 0.14162 0.69591 0.0
O325 O 0.28693 0.18269 0.66876 0.0
O326 O 0.28104 0.12726 0.67677 0.0
O327 O 0.35498 0.15971 0.61961 0.0
O328 O 0.36089 0.18049 0.65179 0.0
C329 C 0.36554 0.17696 0.63199 0.0
C330 C 0.30297 0.19674 0.67944 0.0
O331 O 0.29949 0.13571 0.60051 0.0
O332 O 0.37701 0.09282 0.59342 0.0
O333 O 0.27109 0.14348 0.6192 0.0
O334 O 0.35385 0.13364 0.57242 0.0
O335 O 0.34383 0.07143 0.58081 0.0
O336 O 0.31865 0.11494 0.56624 0.0
O337 O 0.34959 0.13085 0.65863 0.0
O338 O 0.37979 0.1235 0.64341 0.0
C339 C 0.29377 0.12957 0.6945 0.0
C340 C 0.28992 0.08526 0.62778 0.0
C341 C 0.86028 0.58969 0.807 0.0
C342 C 0.81674 0.60991 0.87916 0.0
C343 C 0.86815 0.57947 0.90866 0.0
Mg344 Mg 0.88182 0.54635 0.80057 0.0
Mg345 Mg 0.8588 0.50152 0.82177 0.0
O346 O 0.8742 0.53085 0.82794 0.0
Mg347 Mg 0.8562 0.5511 0.84124 0.0
O348 O 0.83945 0.57298 0.85321 0.0
Mg349 Mg 0.86434 0.5998 0.85996 0.0
Mg350 Mg 0.82726 0.56281 0.87859 0.0
C351 C 0.84901 0.50883 0.87133 0.0
O352 O 0.82157 0.52702 0.83164 0.0
O353 O 0.9047 0.52078 0.79547 0.0
O354 O 0.80673 0.53229 0.86373 0.0
O355 O 0.8539 0.52301 0.77734 0.0
O356 O 0.88606 0.49003 0.80929 0.0
O357 O 0.83355 0.49777 0.79568 0.0
O358 O 0.88963 0.57582 0.85296 0.0
O359 O 0.90862 0.56954 0.82409 0.0
C360 C 0.90784 0.57904 0.84328 0.0
C361 C 0.90252 0.50032 0.79987 0.0
O362 O 0.85406 0.53022 0.87149 0.0
O363 O 0.83388 0.61708 0.86853 0.0
O364 O 0.84883 0.4958 0.85398 0.0
O365 O 0.87158 0.59521 0.89608 0.0
O366 O 0.81248 0.59031 0.88562 0.0
O367 O 0.85282 0.56242 0.9037 0.0
O368 O 0.85805 0.56908 0.81026 0.0
O369 O 0.86047 0.60441 0.82295 0.0
C370 C 0.83718 0.50706 0.77805 0.0
C371 C 0.80621 0.52172 0.84482 0.0
C372 C 0.0762 0.38991 0.10839 0.0
C373 C 0.14481 0.38205 0.06572 0.0
C374 C 0.18269 0.41542 0.12292 0.0
Mg375 Mg 0.06936 0.42552 0.14562 0.0
Mg376 Mg 0.09473 0.47677 0.14418 0.0
O377 O 0.09852 0.4479 0.14816 0.0
Mg378 Mg 0.11396 0.43371 0.12483 0.0
O379 O 0.1269 0.4167 0.10199 0.0
Mg380 Mg 0.12839 0.38863 0.11655 0.0
Mg381 Mg 0.15212 0.43002 0.08923 0.0
C382 C 0.14698 0.48095 0.14271 0.0
O383 O 0.10925 0.45859 0.098 0.0
O384 O 0.06106 0.445 0.17705 0.0
O385 O 0.14009 0.45909 0.07979 0.0
O386 O 0.05016 0.44492 0.12417 0.0
O387 O 0.07818 0.48047 0.17345 0.0
O388 O 0.07143 0.47646 0.11632 0.0
O389 O 0.12064 0.40793 0.14892 0.0
O390 O 0.08872 0.40516 0.16512 0.0
C391 C 0.10757 0.39976 0.16307 0.0
C392 C 0.0661 0.46584 0.18377 0.0
O393 O 0.14537 0.46006 0.13688 0.0
O394 O 0.13603 0.37377 0.08256 0.0
O395 O 0.12997 0.49014 0.14418 0.0
O396 O 0.16629 0.39955 0.12518 0.0
O397 O 0.152 0.40302 0.06499 0.0
O398 O 0.18007 0.43198 0.11229 0.0
O399 O 0.08184 0.41034 0.11527 0.0
O400 O 0.09068 0.37776 0.10609 0.0
C401 C 0.05318 0.46215 0.11353 0.0
C402 C 0.12239 0.46642 0.08355 0.0
C403 C 0.63704 0.36353 0.16868 0.0
C404 C 0.67495 0.30135 0.20128 0.0
C405 C 0.70226 0.29851 0.13968 0.0
Mg406 Mg 0.62223 0.36793 0.1157 0.0
Mg407 Mg 0.60147 0.32042 0.08709 0.0
O408 O 0.62641 0.33859 0.10274 0.0
Mg409 Mg 0.63806 0.32613 0.12942 0.0
O410 O 0.65088 0.31553 0.15653 0.0
Mg411 Mg 0.67906 0.33881 0.16351 0.0
Mg412 Mg 0.65545 0.28634 0.15284 0.0
C413 C 0.63783 0.29029 0.08789 0.0
O414 O 0.60599 0.29934 0.13208 0.0
O415 O 0.61462 0.37569 0.07858 0.0
O416 O 0.62148 0.27039 0.14121 0.0
O417 O 0.58455 0.35592 0.11837 0.0
O418 O 0.59878 0.34188 0.0617 0.0
O419 O 0.5728 0.32039 0.10533 0.0
O420 O 0.67086 0.34991 0.129 0.0
O421 O 0.66078 0.37848 0.11352 0.0
C422 C 0.67603 0.36863 0.12098 0.0
C423 C 0.6052 0.36296 0.06139 0.0
O424 O 0.64818 0.30045 0.10578 0.0
O425 O 0.68124 0.32187 0.19707 0.0
O426 O 0.61878 0.29345 0.08006 0.0
O427 O 0.70243 0.31728 0.15006 0.0
O428 O 0.66554 0.28578 0.18666 0.0
O429 O 0.68417 0.28414 0.13533 0.0
O430 O 0.62769 0.35371 0.15027 0.0
O431 O 0.65602 0.36032 0.17622 0.0
C432 C 0.56933 0.33825 0.11521 0.0
C433 C 0.60437 0.27867 0.1358 0.0
C434 C 0.61687 0.83934 0.30574 0.0
C435 C 0.68019 0.80773 0.26938 0.0
C436 C 0.69008 0.7812 0.33059 0.0
Mg437 Mg 0.61374 0.85356 0.3589 0.0
Mg438 Mg 0.6613 0.87542 0.38688 0.0
O439 O 0.6437 0.85031 0.3712 0.0
Mg440 Mg 0.65617 0.84047 0.34384 0.0
O441 O 0.6666 0.82939 0.31594 0.0
Mg442 Mg 0.64527 0.79983 0.30944 0.0
Mg443 Mg 0.69672 0.82823 0.31702 0.0
C444 C 0.69338 0.84126 0.38447 0.0
O445 O 0.68075 0.87423 0.34131 0.0
O446 O 0.60639 0.86078 0.3963 0.0
O447 O 0.7103 0.86285 0.32773 0.0
O448 O 0.62404 0.89151 0.35673 0.0
O449 O 0.64027 0.87729 0.4126 0.0
O450 O 0.65962 0.90396 0.36928 0.0
O451 O 0.63449 0.80655 0.34442 0.0
O452 O 0.60538 0.81477 0.36051 0.0
C453 C 0.61603 0.80034 0.35268 0.0
C454 C 0.61927 0.87063 0.41325 0.0
O455 O 0.68338 0.83127 0.36637 0.0
O456 O 0.66064 0.79906 0.27489 0.0
O457 O 0.68948 0.85971 0.393 0.0
O458 O 0.67022 0.77895 0.32173 0.0
O459 O 0.69579 0.81888 0.28304 0.0
O460 O 0.70301 0.80032 0.33382 0.0
O461 O 0.62705 0.84928 0.32382 0.0
O462 O 0.62096 0.8208 0.29798 0.0
C463 C 0.6414 0.90711 0.35995 0.0
C464 C 0.70075 0.87827 0.33528 0.0
C465 C 0.08059 0.89335 0.60822 0.0
C466 C 0.14631 0.88194 0.56405 0.0
C467 C 0.18701 0.91212 0.62111 0.0
Mg468 Mg 0.07575 0.92896 0.64625 0.0
Mg469 Mg 0.1059 0.97867 0.64896 0.0
O470 O 0.10643 0.94875 0.65046 0.0
Mg471 Mg 0.12059 0.93437 0.62621 0.0
O472 O 0.13206 0.91725 0.60248 0.0
Mg473 Mg 0.1318 0.88829 0.6158 0.0
Mg474 Mg 0.15688 0.92953 0.58856 0.0
C475 C 0.15713 0.9787 0.64677 0.0
O476 O 0.11713 0.96061 0.60046 0.0
O477 O 0.0678 0.94798 0.67828 0.0
O478 O 0.14625 0.95974 0.58008 0.0
O479 O 0.05966 0.95218 0.62603 0.0
O480 O 0.08891 0.98243 0.67777 0.0
O481 O 0.08454 0.9825 0.6212 0.0
O482 O 0.12496 0.90685 0.64914 0.0
O483 O 0.09259 0.90556 0.66451 0.0
C484 C 0.11088 0.89883 0.66257 0.0
C485 C 0.07472 0.96824 0.68649 0.0
O486 O 0.15372 0.95816 0.63894 0.0
O487 O 0.13809 0.87376 0.58117 0.0
O488 O 0.14134 0.98923 0.64982 0.0
O489 O 0.17003 0.89708 0.62397 0.0
O490 O 0.15418 0.90279 0.56345 0.0
O491 O 0.18516 0.92884 0.61037 0.0
O492 O 0.08741 0.91352 0.61566 0.0
O493 O 0.09405 0.88013 0.60563 0.0
C494 C 0.06511 0.97039 0.61715 0.0
C495 C 0.12937 0.96791 0.58516 0.0
C496 C 0.58705 0.39764 0.35776 0.0
C497 C 0.59494 0.33079 0.40408 0.0
C498 C 0.55437 0.29151 0.35133 0.0
Mg499 Mg 0.54741 0.40505 0.32495 0.0
Mg500 Mg 0.49789 0.38404 0.33619 0.0
O501 O 0.52404 0.37722 0.32654 0.0
Mg502 Mg 0.54023 0.36217 0.34877 0.0
O503 O 0.55879 0.34927 0.37033 0.0
Mg504 Mg 0.58416 0.34467 0.35275 0.0
Mg505 Mg 0.54543 0.32534 0.38507 0.0
C506 C 0.49041 0.33191 0.33908 0.0
O507 O 0.51979 0.37046 0.37816 0.0
O508 O 0.52361 0.41288 0.29623 0.0
O509 O 0.51876 0.33994 0.39699 0.0
O510 O 0.53357 0.42793 0.34856 0.0
O511 O 0.48966 0.39978 0.3075 0.0
O512 O 0.50492 0.40878 0.36347 0.0
O513 O 0.56183 0.3521 0.32208 0.0
O514 O 0.56277 0.38236 0.30323 0.0
C515 C 0.56786 0.36343 0.30589 0.0
C516 C 0.50217 0.40965 0.2938 0.0
O517 O 0.51147 0.33197 0.34121 0.0
O518 O 0.60194 0.33818 0.3861 0.0
O519 O 0.48252 0.34983 0.33935 0.0
O520 O 0.57035 0.30691 0.34699 0.0
O521 O 0.57418 0.32488 0.4068 0.0
O522 O 0.53943 0.29575 0.36344 0.0
O523 O 0.56603 0.39315 0.3538 0.0
O524 O 0.59821 0.38232 0.35988 0.0
C525 C 0.51924 0.42669 0.36266 0.0
C526 C 0.51257 0.35831 0.39356 0.0
C527 C 0.1427 0.86158 0.17387 0.0
C528 C 0.17742 0.79706 0.2061 0.0
C529 C 0.20172 0.79084 0.14363 0.0
Mg530 Mg 0.12599 0.86516 0.12119 0.0
Mg531 Mg 0.1036 0.81769 0.09312 0.0
O532 O 0.12904 0.83541 0.10832 0.0
Mg533 Mg 0.14031 0.8228 0.13499 0.0
O534 O 0.15294 0.81203 0.16203 0.0
Mg535 Mg 0.18242 0.83376 0.16763 0.0
Mg536 Mg 0.15544 0.78223 0.15857 0.0
C537 C 0.13811 0.78585 0.09378 0.0
O538 O 0.10721 0.79743 0.13831 0.0
O539 O 0.11761 0.87284 0.08412 0.0
O540 O 0.1211 0.76763 0.14764 0.0
O541 O 0.08817 0.85424 0.12397 0.0
O542 O 0.1009 0.83905 0.06776 0.0
O543 O 0.07524 0.81876 0.11131 0.0
O544 O 0.17382 0.84508 0.13338 0.0
O545 O 0.16458 0.87433 0.11838 0.0
C546 C 0.17945 0.86377 0.12537 0.0
C547 C 0.10743 0.86009 0.06723 0.0
O548 O 0.14884 0.79598 0.11151 0.0
O549 O 0.18507 0.81717 0.20135 0.0
O550 O 0.1194 0.78975 0.08592 0.0
O551 O 0.20368 0.81015 0.15362 0.0
O552 O 0.16631 0.78175 0.1921 0.0
O553 O 0.18278 0.77768 0.14016 0.0
O554 O 0.13186 0.85153 0.1561 0.0
O555 O 0.16144 0.85724 0.18075 0.0
C556 C 0.07236 0.83705 0.12078 0.0
C557 C 0.10459 0.77671 0.14215 0.0
C558 C 0.07464 0.39667 0.87236 0.0
C559 C 0.0907 0.33167 0.91604 0.0
C560 C 0.06996 0.2924 0.85613 0.0
Mg561 Mg 0.04335 0.39864 0.82945 0.0
Mg562 Mg -0.00195 0.36109 0.81521 0.0
O563 O 0.0284 0.36642 0.82233 0.0
Mg564 Mg 0.04105 0.35358 0.84842 0.0
O565 O 0.05681 0.34382 0.87431 0.0
Mg566 Mg 0.08776 0.34834 0.86473 0.0
Mg567 Mg 0.04562 0.31791 0.88705 0.0
C568 C 0.00495 0.31209 0.82045 0.0
O569 O 0.0105 0.35248 0.86995 0.0
O570 O 0.02852 0.40609 0.79507 0.0
O571 O 0.01304 0.3251 0.89222 0.0
O572 O 0.013 0.408 0.84366 0.0
O573 O -0.00112 0.37798 0.78605 0.0
O574 O 0.98376 0.37981 0.8389 0.0
O575 O 0.07262 0.35459 0.8298 0.0
O576 O 0.07275 0.38755 0.81592 0.0
C577 C 0.08121 0.37029 0.8182 0.0
C578 C 0.012 0.39576 0.78176 0.0
O579 O 0.02335 0.31858 0.83274 0.0
O580 O 0.0996 0.34167 0.90012 0.0
O581 O -0.0071 0.32554 0.81366 0.0
O582 O 0.08403 0.31063 0.85512 0.0
O583 O 0.07016 0.32187 0.91464 0.0
O584 O 0.05177 0.29193 0.86514 0.0
O585 O 0.05598 0.38794 0.86197 0.0
O586 O 0.08969 0.38528 0.87604 0.0
C587 C -0.00727 0.39973 0.84627 0.0
C588 C 0.00318 0.34026 0.88527 0.0
C589 C 0.12113 0.65545 0.37688 0.0
C590 C 0.05285 0.58663 0.38934 0.0
C591 C 0.10027 0.5497 0.36079 0.0
Mg592 Mg 0.15851 0.65545 0.34103 0.0
Mg593 Mg 0.14191 0.62685 0.29314 0.0
O594 O 0.14507 0.62624 0.32362 0.0
Mg595 Mg 0.11849 0.61565 0.33954 0.0
O596 O 0.09268 0.60645 0.35709 0.0
Mg597 Mg 0.10883 0.60211 0.38535 0.0
Mg598 Mg 0.07221 0.58137 0.34445 0.0
C599 C 0.11092 0.57956 0.29727 0.0
O600 O 0.0932 0.62461 0.31359 0.0
O601 O 0.19044 0.6531 0.32187 0.0
O602 O 0.06394 0.59613 0.31497 0.0
O603 O 0.14709 0.67739 0.31546 0.0
O604 O 0.17675 0.62951 0.29177 0.0
O605 O 0.1339 0.65777 0.28378 0.0
O606 O 0.1419 0.60627 0.36732 0.0
O607 O 0.16972 0.63547 0.36654 0.0
C608 C 0.1612 0.6176 0.37474 0.0
C609 C 0.19308 0.64092 0.30453 0.0
O610 O 0.11249 0.58221 0.31837 0.0
O611 O 0.07235 0.59608 0.3986 0.0
O612 O 0.11889 0.59502 0.28522 0.0
O613 O 0.10661 0.56398 0.37742 0.0
O614 O 0.04972 0.57923 0.36911 0.0
O615 O 0.08805 0.55369 0.34448 0.0
O616 O 0.12513 0.64942 0.35747 0.0
O617 O 0.11324 0.64103 0.3901 0.0
C618 C 0.13884 0.67627 0.29562 0.0
C619 C 0.0734 0.61394 0.30685 0.0
C620 C 0.32612 0.86072 0.06622 0.0
C621 C 0.39703 0.82525 0.08364 0.0
C622 C 0.42882 0.87928 0.04777 0.0
Mg623 Mg 0.31382 0.88257 0.02295 0.0
Mg624 Mg 0.33575 0.87419 0.97677 0.0
O625 O 0.34157 0.88511 0.00623 0.0
Mg626 Mg 0.35767 0.86713 0.02511 0.0
O627 O 0.37188 0.84997 0.04583 0.0
Mg628 Mg 0.37992 0.87279 0.07164 0.0
Mg629 Mg 0.39527 0.83778 0.03572 0.0
C630 C 0.38736 0.87513 0.98152 0.0
O631 O 0.34791 0.83379 0.0018 0.0
O632 O 0.30194 0.90597 -0.0014 0.0
O633 O 0.37793 0.81807 0.00727 0.0
O634 O 0.294 0.85119 0.00132 0.0
O635 O 0.31639 0.89768 0.96696 0.0
O636 O 0.31462 0.84251 0.97485 0.0
O637 O 0.3688 0.89967 0.04913 0.0
O638 O 0.33612 0.91125 0.04512 0.0
C639 C 0.35638 0.914 0.05357 0.0
C640 C 0.30445 0.90838 0.97822 0.0
O641 O 0.38734 0.87386 0.0025 0.0
O642 O 0.38891 0.84236 0.08976 0.0
O643 O 0.36959 0.87494 0.96908 0.0
O644 O 0.41623 0.88286 0.06284 0.0
O645 O 0.40175 0.82124 0.06397 0.0
O646 O 0.4224 0.86383 0.03244 0.0
O647 O 0.32761 0.8602 0.04541 0.0
O648 O 0.34366 0.86351 0.07951 0.0
C649 C 0.29763 0.8378 0.9856 0.0
C650 C 0.359 0.81846 -0.00273 0.0
C651 C 0.11733 0.65152 0.90927 0.0
C652 C 0.15379 0.58077 0.89424 0.0
C653 C 0.0973 0.55006 0.92929 0.0
Mg654 Mg 0.09202 0.66321 0.95029 0.0
Mg655 Mg 0.0942 0.64002 -0.00279 0.0
O656 O 0.08815 0.6353 0.9668 0.0
Mg657 Mg 0.10814 0.61992 0.94984 0.0
O658 O 0.12708 0.60621 0.93058 0.0
Mg659 Mg 0.10548 0.59777 0.90374 0.0
Mg660 Mg 0.13949 0.58324 0.94138 0.0
C661 C 0.09515 0.58876 -0.00817 0.0
O662 O 0.14015 0.62995 0.97552 0.0
O663 O 0.06603 0.67444 0.97165 0.0
O664 O 0.15744 0.60096 0.97047 0.0
O665 O 0.12148 0.68226 0.97479 0.0
O666 O 0.06868 0.65841 0.00352 0.0
O667 O 0.12573 0.66152 0.0027 0.0
O668 O 0.0773 0.60889 0.92381 0.0
O669 O 0.06519 0.64132 0.92594 0.0
C670 C 0.06325 0.62108 0.91782 0.0
C671 C 0.06011 0.67093 -0.00905 0.0
O672 O 0.09948 0.58995 0.97158 0.0
O673 O 0.13664 0.58842 0.88732 0.0
O674 O 0.09294 0.60576 0.00427 0.0
O675 O 0.09408 0.56193 0.91345 0.0
O676 O 0.15741 0.57665 0.91419 0.0
O677 O 0.11327 0.55635 0.94411 0.0
O678 O 0.1165 0.64998 0.93 0.0
O679 O 0.11551 0.63405 0.89602 0.0
C680 C 0.13253 0.6783 -0.00787 0.0
C681 C 0.15585 0.61944 0.98063 0.0
C682 C 0.36121 0.81591 0.60323 0.0
C683 C 0.33351 0.78827 0.67482 0.0
C684 C 0.29597 0.84151 0.67481 0.0
Mg685 Mg 0.3764 0.86832 0.59077 0.0
Mg686 Mg 0.39508 0.9057 0.63159 0.0
O687 O 0.37053 0.88503 0.61794 0.0
Mg688 Mg 0.3602 0.85991 0.63598 0.0
O689 O 0.34893 0.83421 0.65284 0.0
Mg690 Mg 0.32116 0.81919 0.63393 0.0
Mg691 Mg 0.34542 0.84027 0.68276 0.0
C692 C 0.35948 0.9061 0.66611 0.0
O693 O 0.39216 0.86692 0.65895 0.0
O694 O 0.383 0.9047 0.57677 0.0
O695 O 0.37747 0.86322 0.69164 0.0
O696 O 0.41432 0.87114 0.60068 0.0
O697 O 0.39852 0.92776 0.60648 0.0
O698 O 0.42324 0.89021 0.63352 0.0
O699 O 0.32748 0.85189 0.61607 0.0
O700 O 0.3375 0.86378 0.58395 0.0
C701 C 0.32234 0.85593 0.59644 0.0
C702 C 0.39203 0.92434 0.58603 0.0
O703 O 0.34919 0.88613 0.65948 0.0
O704 O 0.3232 0.78903 0.65579 0.0
O705 O 0.37827 0.91504 0.65944 0.0
O706 O 0.29726 0.83112 0.6564 0.0
O707 O 0.34271 0.80578 0.68733 0.0
O708 O 0.31336 0.84897 0.68792 0.0
O709 O 0.3716 0.83574 0.61017 0.0
O710 O 0.34311 0.80722 0.61088 0.0
C711 C 0.42804 0.87791 0.61768 0.0
C712 C 0.39382 0.86976 0.68003 0.0
C713 C 0.58021 0.89916 0.87372 0.0
C714 C 0.59474 0.83393 0.91783 0.0
C715 C 0.57218 0.79429 0.85787 0.0
Mg716 Mg 0.54813 0.9017 0.83168 0.0
Mg717 Mg 0.50089 0.86669 0.82184 0.0
O718 O 0.53148 0.86983 0.82546 0.0
Mg719 Mg 0.5446 0.85659 0.85109 0.0
O720 O 0.56072 0.84642 0.87651 0.0
Mg721 Mg 0.59137 0.85006 0.86625 0.0
Mg722 Mg 0.54931 0.82057 0.88924 0.0
C723 C 0.50556 0.81671 0.8252 0.0
O724 O 0.515 0.85661 0.87369 0.0
O725 O 0.5323 0.9089 0.79771 0.0
O726 O 0.5171 0.82822 0.89482 0.0
O727 O 0.51978 0.91369 0.84759 0.0
O728 O 0.50002 0.88347 0.7926 0.0
O729 O 0.49021 0.88632 0.84741 0.0
O730 O 0.57536 0.85605 0.8314 0.0
O731 O 0.57588 0.88868 0.8168 0.0
C732 C 0.58379 0.87109 0.81904 0.0
C733 C 0.514 0.89965 0.78634 0.0
O734 O 0.52498 0.82197 0.83593 0.0
O735 O 0.60364 0.84362 0.90173 0.0
O736 O 0.49389 0.83113 0.82019 0.0
O737 O 0.58655 0.81229 0.85684 0.0
O738 O 0.57415 0.8243 0.91658 0.0
O739 O 0.55417 0.7942 0.86707 0.0
O740 O 0.56122 0.89078 0.86384 0.0
O741 O 0.59481 0.8873 0.8774 0.0
C742 C 0.50013 0.90641 0.85284 0.0
C743 C 0.50759 0.84391 0.88864 0.0
C744 C 0.143 0.36498 0.6767 0.0
C745 C 0.1703 0.30033 0.71203 0.0
C746 C 0.20172 0.29198 0.65206 0.0
Mg747 Mg 0.1297 0.36946 0.62401 0.0
Mg748 Mg 0.10706 0.32299 0.59456 0.0
O749 O 0.13232 0.3396 0.61093 0.0
Mg750 Mg 0.14178 0.32618 0.63782 0.0
O751 O 0.15255 0.31488 0.66522 0.0
Mg752 Mg 0.18197 0.33607 0.67311 0.0
Mg753 Mg 0.15407 0.28485 0.66314 0.0
C754 C 0.14032 0.28976 0.59629 0.0
O755 O 0.1077 0.30153 0.63949 0.0
O756 O 0.12415 0.3781 0.58706 0.0
O757 O 0.12052 0.27132 0.64939 0.0
O758 O 0.09149 0.35983 0.62516 0.0
O759 O 0.10651 0.34517 0.5695 0.0
O760 O 0.07841 0.32447 0.61215 0.0
O761 O 0.17639 0.34739 0.63795 0.0
O762 O 0.16847 0.37717 0.62293 0.0
C763 C 0.18278 0.366 0.62998 0.0
C764 C 0.11439 0.36607 0.56962 0.0
O765 O 0.1505 0.29917 0.61457 0.0
O766 O 0.18002 0.31984 0.70724 0.0
O767 O 0.12229 0.29457 0.58773 0.0
O768 O 0.2035 0.31154 0.66144 0.0
O769 O 0.16035 0.28488 0.69756 0.0
O770 O 0.18276 0.27903 0.64779 0.0
O771 O 0.13294 0.35504 0.65859 0.0
O772 O 0.16134 0.3605 0.68439 0.0
C773 C 0.07554 0.34279 0.62155 0.0
C774 C 0.10451 0.28071 0.64305 0.0
C775 C 0.35301 0.60946 0.81771 0.0
C776 C 0.4075 0.61896 0.89467 0.0
C777 C 0.35254 0.64932 0.91585 0.0
Mg778 Mg 0.31735 0.63998 0.80358 0.0
Mg779 Mg 0.33128 0.6929 0.81942 0.0
O780 O 0.32433 0.66426 0.82859 0.0
Mg781 Mg 0.34882 0.65467 0.84626 0.0
O782 O 0.37251 0.6425 0.86271 0.0
Mg783 Mg 0.35432 0.61432 0.87139 0.0
Mg784 Mg 0.38858 0.66138 0.88596 0.0
C785 C 0.34483 0.7038 0.87043 0.0
O786 O 0.37792 0.68005 0.83475 0.0
O787 O 0.28592 0.65521 0.79491 0.0
O788 O 0.40144 0.68701 0.86574 0.0
O789 O 0.33567 0.66137 0.77799 0.0
O790 O 0.29843 0.69187 0.8051 0.0
O791 O 0.35297 0.69452 0.79366 0.0
O792 O 0.3224 0.62745 0.85864 0.0
O793 O 0.29938 0.61881 0.82798 0.0
C794 C 0.30455 0.61601 0.84802 0.0
C795 C 0.28306 0.67548 0.797 0.0
O796 O 0.34656 0.68346 0.87307 0.0
O797 O 0.38928 0.6063 0.88554 0.0
O798 O 0.3414 0.71062 0.85136 0.0
O799 O 0.34883 0.63004 0.90531 0.0
O800 O 0.40999 0.6402 0.89678 0.0
O801 O 0.36637 0.66568 0.91001 0.0
O802 O 0.34907 0.62913 0.8183 0.0
O803 O 0.35781 0.60052 0.83536 0.0
C804 C 0.34848 0.6803 0.77701 0.0
C805 C 0.39625 0.6901 0.84568 0.0
C806 C 0.90603 0.07736 0.34739 0.0
C807 C 0.89515 -0.0016 0.30515 0.0
C808 C 0.83322 0.01114 0.27892 0.0
Mg809 Mg 0.86397 0.10187 0.36387 0.0
Mg810 Mg 0.82217 0.06739 0.37932 0.0
O811 O 0.83757 0.07713 0.35532 0.0
Mg812 Mg 0.85261 0.05389 0.3435 0.0
O813 O 0.86859 0.03183 0.33053 0.0
Mg814 Mg 0.87879 0.04707 0.30383 0.0
Mg815 Mg 0.85095 0.00337 0.32403 0.0
C816 C 0.79989 0.02815 0.34439 0.0
O817 O 0.84795 0.03299 0.37331 0.0
O818 O 0.83496 0.12199 0.37169 0.0
O819 O 0.83764 -0.00124 0.35529 0.0
O820 O 0.86831 0.09433 0.39981 0.0
O821 O 0.80977 0.09621 0.38611 0.0
O822 O 0.84441 0.06372 0.40609 0.0
O823 O 0.85727 0.07255 0.31281 0.0
O824 O 0.86243 0.10783 0.32703 0.0
C825 C 0.8615 0.09349 0.31052 0.0
C826 C 0.81653 0.11596 0.3808 0.0
O827 O 0.81653 0.0322 0.33241 0.0
O828 O 0.89881 0.01871 0.29999 0.0
O829 O 0.80002 0.03872 0.3632 0.0
O830 O 0.85062 0.02651 0.27935 0.0
O831 O 0.87773 0.98941 0.31405 0.0
O832 O 0.82837 0.0012 0.29593 0.0
O833 O 0.88761 0.07602 0.35675 0.0
O834 O 0.90598 0.06763 0.32818 0.0
C835 C 0.86164 0.07867 0.41188 0.0
C836 C 0.83933 0.01209 0.3727 0.0
C837 C 0.4078 0.5715 0.63146 0.0
C838 C 0.48803 0.58102 0.67464 0.0
C839 C 0.4762 0.64394 0.6978 0.0
Mg840 Mg 0.38589 0.6157 0.6153 0.0
Mg841 Mg 0.42223 0.6579 0.60129 0.0
O842 O 0.41187 0.64082 0.6241 0.0
Mg843 Mg 0.4338 0.62379 0.63484 0.0
O844 O 0.45494 0.6063 0.64708 0.0
Mg845 Mg 0.43989 0.59798 0.67452 0.0
Mg846 Mg 0.48337 0.62433 0.65335 0.0
C847 C 0.46306 0.67581 0.63542 0.0
O848 O 0.45334 0.62707 0.60442 0.0
O849 O 0.36727 0.64608 0.60832 0.0
O850 O 0.48817 0.63592 0.62118 0.0
O851 O 0.39346 0.61236 0.57922 0.0
O852 O 0.39428 0.67207 0.59646 0.0
O853 O 0.42354 0.63701 0.57279 0.0
O854 O 0.41559 0.62036 0.66561 0.0
O855 O 0.38018 0.61676 0.6522 0.0
C856 C 0.39477 0.61694 0.66836 0.0
C857 C 0.3742 0.66522 0.60075 0.0
O858 O 0.45792 0.65831 0.64603 0.0
O859 O 0.46748 0.57721 0.679 0.0
O860 O 0.45236 0.67815 0.61729 0.0
O861 O 0.46147 0.6262 0.6983 0.0
O862 O 0.4972 0.59822 0.66549 0.0
O863 O 0.48515 0.64861 0.68025 0.0
O864 O 0.40981 0.5899 0.62188 0.0
O865 O 0.41792 0.57123 0.6505 0.0
C866 C 0.40848 0.61991 0.56677 0.0
C867 C 0.47435 0.63448 0.60415 0.0
C868 C 0.85331 0.10939 0.81677 0.0
C869 C 0.90484 0.11719 0.89522 0.0
C870 C 0.84605 0.14258 0.91558 0.0
Mg871 Mg 0.81709 0.13884 0.80257 0.0
Mg872 Mg 0.82766 0.19097 0.82113 0.0
O873 O 0.82147 0.16177 0.82879 0.0
Mg874 Mg 0.84596 0.15252 0.84693 0.0
O875 O 0.86965 0.1405 0.86351 0.0
Mg876 Mg 0.85206 0.11101 0.87017 0.0
Mg877 Mg 0.88346 0.15849 0.8882 0.0
C878 C 0.8383 0.19982 0.87266 0.0
O879 O 0.87454 0.18008 0.83811 0.0
O880 O 0.78535 0.15273 0.79211 0.0
O881 O 0.8949 0.18693 0.87096 0.0
O882 O 0.83633 0.1626 0.77924 0.0
O883 O 0.79571 0.18911 0.80445 0.0
O884 O 0.85149 0.19524 0.79738 0.0
O885 O 0.81983 0.12352 0.85689 0.0
O886 O 0.79827 0.1157 0.82521 0.0
C887 C 0.80249 0.11222 0.84529 0.0
C888 C 0.78159 0.17263 0.79454 0.0
O889 O 0.84155 0.17981 0.87468 0.0
O890 O 0.88735 0.10414 0.88506 0.0
O891 O 0.83476 0.20716 0.85388 0.0
O892 O 0.84391 0.12369 0.90456 0.0
O893 O 0.90612 0.13823 0.89849 0.0
O894 O 0.85942 0.15973 0.91074 0.0
O895 O 0.84862 0.12875 0.81821 0.0
O896 O 0.85769 0.09958 0.83397 0.0
C897 C 0.84852 0.1821 0.77992 0.0
C898 C 0.89096 0.19133 0.85106 0.0
C899 C 0.89192 0.57411 0.11367 0.0
C900 C 0.96852 0.56425 0.13264 0.0
C901 C 0.97604 0.62478 0.17922 0.0
Mg902 Mg 0.87439 0.62187 0.10909 0.0
Mg903 Mg 0.91091 0.66633 0.10083 0.0
O904 O 0.90168 0.64479 0.12031 0.0
Mg905 Mg 0.92276 0.62455 0.12375 0.0
O906 O 0.94241 0.60352 0.12805 0.0
Mg907 Mg 0.9301 0.58917 0.15432 0.0
Mg908 Mg 0.9731 0.61475 0.12976 0.0
C909 C 0.95488 0.67548 0.13182 0.0
O910 O 0.93853 0.63276 0.09173 0.0
O911 O 0.85633 0.65326 0.10935 0.0
O912 O 0.97483 0.63548 0.1027 0.0
O913 O 0.87987 0.62473 0.07281 0.0
O914 O 0.88381 0.68171 0.10253 0.0
O915 O 0.9095 0.65106 0.06865 0.0
O916 O 0.9082 0.61599 0.1561 0.0
O917 O 0.87245 0.6166 0.14596 0.0
C918 C 0.88767 0.61333 0.16027 0.0
C919 C 0.86369 0.67392 0.10611 0.0
O920 O 0.95004 0.65573 0.13846 0.0
O921 O 0.9525 0.56363 0.14527 0.0
O922 O 0.94271 0.68212 0.11685 0.0
O923 O 0.9577 0.61064 0.17896 0.0
O924 O 0.97898 0.58224 0.12572 0.0
O925 O 0.98483 0.62977 0.16163 0.0
O926 O 0.89602 0.59411 0.10748 0.0
O927 O 0.90283 0.56905 0.13044 0.0
C928 C 0.89429 0.63466 0.06093 0.0
C929 C 0.95928 0.63892 0.0891 0.0
C930 C 0.62055 0.65301 0.4102 0.0
C931 C 0.65421 0.58148 0.39027 0.0
C932 C 0.59709 0.54848 0.42096 0.0
Mg933 Mg 0.59662 0.66318 0.45248 0.0
Mg934 Mg 0.6011 0.63849 0.49789 0.0
O935 O 0.59325 0.63446 0.46777 0.0
Mg936 Mg 0.61168 0.6189 0.449 0.0
O937 O 0.629 0.6052 0.4281 0.0
Mg938 Mg 0.60712 0.59936 0.40134 0.0
Mg939 Mg 0.63851 0.58 0.43713 0.0
C940 C 0.60173 0.58712 0.49112 0.0
O941 O 0.64441 0.62675 0.47336 0.0
O942 O 0.57144 0.67352 0.47524 0.0
O943 O 0.6562 0.59443 0.46754 0.0
O944 O 0.62645 0.68191 0.47677 0.0
O945 O 0.57563 0.65613 0.50609 0.0
O946 O 0.63249 0.6602 0.50329 0.0
O947 O 0.57985 0.60946 0.42367 0.0
O948 O 0.56904 0.64242 0.42832 0.0
C949 C 0.56612 0.62246 0.4192 0.0
C950 C 0.56639 0.66902 0.49459 0.0
O951 O 0.60375 0.58796 0.47028 0.0
O952 O 0.63793 0.59078 0.38407 0.0
O953 O 0.60088 0.60435 0.50388 0.0
O954 O 0.59543 0.56227 0.40654 0.0
O955 O 0.65667 0.57486 0.40949 0.0
O956 O 0.61087 0.55378 0.43783 0.0
O957 O 0.62019 0.65038 0.43076 0.0
O958 O 0.61781 0.63614 0.39611 0.0
C959 C 0.6382 0.67778 0.49355 0.0
C960 C 0.65749 0.61335 0.47831 0.0
C961 C 0.62654 0.65871 0.88124 0.0
C962 C 0.55669 0.59117 0.89396 0.0
C963 C 0.60013 0.55335 0.86051 0.0
Mg964 Mg 0.66069 0.65888 0.84181 0.0
Mg965 Mg 0.63852 0.63278 0.79409 0.0
O966 O 0.6453 0.63053 0.82412 0.0
Mg967 Mg 0.62005 0.62038 0.84186 0.0
O968 O 0.59538 0.61128 0.86071 0.0
Mg969 Mg 0.61254 0.605 0.88745 0.0
Mg970 Mg 0.57343 0.58744 0.8477 0.0
C971 C 0.60923 0.58497 0.79863 0.0
O972 O 0.59392 0.63193 0.8188 0.0
O973 O 0.6901 0.65654 0.81902 0.0
O974 O 0.56373 0.60455 0.82026 0.0
O975 O 0.64764 0.68223 0.81881 0.0
O976 O 0.67271 0.63569 0.78845 0.0
O977 O 0.62945 0.66428 0.78811 0.0
O978 O 0.64454 0.60899 0.86734 0.0
O979 O 0.67321 0.63716 0.86506 0.0
C980 C 0.66457 0.61946 0.87352 0.0
C981 C 0.69044 0.6457 0.8002 0.0
O982 O 0.61195 0.58781 0.81969 0.0
O983 O 0.57671 0.5996 0.90265 0.0
O984 O 0.61575 0.60057 0.78617 0.0
O985 O 0.60811 0.567 0.87727 0.0
O986 O 0.55246 0.58484 0.87354 0.0
O987 O 0.58742 0.55849 0.84518 0.0
O988 O 0.62911 0.65324 0.86124 0.0
O989 O 0.61885 0.6439 0.89417 0.0
C990 C 0.63672 0.68231 0.80033 0.0
C991 C 0.57344 0.62279 0.81308 0.0
C992 C 0.36694 0.62601 0.1591 0.0
C993 C 0.35733 0.5701 0.08439 0.0
C994 C 0.32493 0.62298 0.06128 0.0
Mg995 Mg 0.33687 0.66204 0.1728 0.0
Mg996 Mg 0.28375 0.64804 0.1575 0.0
O997 O 0.31231 0.65519 0.14796 0.0
Mg998 Mg 0.32147 0.63026 0.13078 0.0
O999 O 0.33327 0.60591 0.11502 0.0
Mg1000 Mg 0.36123 0.62383 0.10553 0.0
Mg1001 Mg 0.31434 0.58794 0.09288 0.0
C1002 C 0.27226 0.63412 0.10655 0.0
O1003 O 0.29557 0.60244 0.14315 0.0
O1004 O 0.32187 0.69359 0.18117 0.0
O1005 O 0.28905 0.57639 0.11414 0.0
O1006 O 0.31593 0.64401 0.19861 0.0
O1007 O 0.28509 0.68102 0.17154 0.0
O1008 O 0.28248 0.62665 0.18368 0.0
O1009 O 0.34864 0.65615 0.11766 0.0
O1010 O 0.35779 0.67947 0.14805 0.0
C1011 C 0.36031 0.67405 0.12801 0.0
C1012 C 0.3016 0.69647 0.17924 0.0
O1013 O 0.29257 0.63228 0.10391 0.0
O1014 O 0.36953 0.58898 0.09236 0.0
O1015 O 0.26557 0.63774 0.12563 0.0
O1016 O 0.3443 0.6279 0.07171 0.0
O1017 O 0.33603 0.56663 0.08295 0.0
O1018 O 0.30917 0.60872 0.06758 0.0
O1019 O 0.3473 0.63005 0.15862 0.0
O1020 O 0.37573 0.62117 0.14141 0.0
C1021 C 0.29712 0.6312 0.20002 0.0
C1022 C 0.28541 0.58357 0.13346 0.0
C1023 C 0.64537 0.86279 0.6768 0.0
C1024 C 0.68135 0.79919 0.70861 0.0
C1025 C 0.71041 0.79748 0.64786 0.0
Mg1026 Mg 0.63042 0.86745 0.62404 0.0
Mg1027 Mg 0.61013 0.82037 0.59449 0.0
O1028 O 0.63485 0.83842 0.61058 0.0
Mg1029 Mg 0.6462 0.82545 0.63709 0.0
O1030 O 0.65865 0.81422 0.66395 0.0
Mg1031 Mg 0.68674 0.83741 0.67163 0.0
Mg1032 Mg 0.66318 0.78493 0.65963 0.0
C1033 C 0.64609 0.78986 0.59518 0.0
O1034 O 0.61398 0.79881 0.63917 0.0
O1035 O 0.62237 0.87602 0.5872 0.0
O1036 O 0.62905 0.76938 0.64752 0.0
O1037 O 0.59268 0.85523 0.626 0.0
O1038 O 0.60694 0.84232 0.56975 0.0
O1039 O 0.58107 0.81992 0.61212 0.0
O1040 O 0.67925 0.84908 0.63706 0.0
O1041 O 0.66914 0.87786 0.62195 0.0
C1042 C 0.68442 0.86783 0.62904 0.0
C1043 C 0.61274 0.8635 0.56996 0.0
O1044 O 0.65631 0.79981 0.61322 0.0
O1045 O 0.68782 0.81982 0.70485 0.0
O1046 O 0.62739 0.79351 0.58697 0.0
O1047 O 0.70995 0.81598 0.65839 0.0
O1048 O 0.67242 0.78383 0.69359 0.0
O1049 O 0.69258 0.78286 0.64277 0.0
O1050 O 0.63569 0.85287 0.65852 0.0
O1051 O 0.66413 0.85914 0.68436 0.0
C1052 C 0.5774 0.83765 0.6221 0.0
C1053 C 0.61209 0.778 0.64238 0.0
C1054 C 0.61404 0.33612 0.79642 0.0
C1055 C 0.67397 0.30679 0.75525 0.0
C1056 C 0.68921 0.27846 0.81524 0.0
Mg1057 Mg 0.61474 0.35099 0.84995 0.0
Mg1058 Mg 0.66392 0.37315 0.87485 0.0
O1059 O 0.6453 0.34767 0.86054 0.0
Mg1060 Mg 0.65566 0.33754 0.83224 0.0
O1061 O 0.6641 0.3264 0.8036 0.0
Mg1062 Mg 0.64273 0.29679 0.79808 0.0
Mg1063 Mg 0.69412 0.32554 0.80229 0.0
C1064 C 0.69713 0.34033 0.8688 0.0
O1065 O 0.67975 0.37131 0.82869 0.0
O1066 O 0.61014 0.35854 0.88794 0.0
O1067 O 0.70837 0.35979 0.81337 0.0
O1068 O 0.6244 0.38882 0.84748 0.0
O1069 O 0.64488 0.37458 0.9025 0.0
O1070 O 0.6604 0.40176 0.85784 0.0
O1071 O 0.63456 0.30325 0.83424 0.0
O1072 O 0.6066 0.3124 0.8517 0.0
C1073 C 0.61662 0.29757 0.84361 0.0
C1074 C 0.624 0.36808 0.90435 0.0
O1075 O 0.68459 0.32895 0.85266 0.0
O1076 O 0.65529 0.29731 0.76211 0.0
O1077 O 0.69378 0.35901 0.87738 0.0
O1078 O 0.66878 0.27604 0.808 0.0
O1079 O 0.6905 0.31753 0.76807 0.0
O1080 O 0.70212 0.2976 0.8176 0.0
O1081 O 0.62539 0.34641 0.81383 0.0
O1082 O 0.61724 0.31717 0.78886 0.0
C1083 C 0.64155 0.40465 0.84979 0.0
C1084 C 0.69941 0.3752 0.82187 0.0
C1085 C 0.07589 0.89775 0.37093 0.0
C1086 C 0.08897 0.8311 0.41432 0.0
C1087 C 0.07005 0.79341 0.35308 0.0
Mg1088 Mg 0.04652 0.90068 0.32708 0.0
Mg1089 Mg 0.00096 0.86415 0.31184 0.0
O1090 O 0.03116 0.86864 0.31935 0.0
Mg1091 Mg 0.04254 0.85515 0.34562 0.0
O1092 O 0.0571 0.84476 0.37186 0.0
Mg1093 Mg 0.08849 0.84914 0.36352 0.0
Mg1094 Mg 0.04501 0.81847 0.38349 0.0
C1095 C 0.00671 0.81469 0.31595 0.0
O1096 O 0.01126 0.8542 0.36616 0.0
O1097 O 0.03333 0.90864 0.29229 0.0
O1098 O 0.01241 0.82591 0.38761 0.0
O1099 O 0.01605 0.91067 0.34072 0.0
O1100 O 0.00302 0.88139 0.28288 0.0
O1101 O 0.98685 0.88243 0.3359 0.0
O1102 O 0.07477 0.85599 0.32822 0.0
O1103 O 0.07609 0.88913 0.31443 0.0
C1104 C 0.08404 0.87158 0.31687 0.0
C1105 C 0.01693 0.89866 0.27867 0.0
O1106 O 0.02482 0.82044 0.32882 0.0
O1107 O 0.09872 0.84156 0.39907 0.0
O1108 O -0.00483 0.82868 0.30945 0.0
O1109 O 0.08453 0.81155 0.35315 0.0
O1110 O 0.06839 0.8214 0.41188 0.0
O1111 O 0.05147 0.79293 0.36133 0.0
O1112 O 0.05761 0.88925 0.35976 0.0
O1113 O 0.09057 0.88615 0.37539 0.0
C1114 C -0.00417 0.90227 0.34343 0.0
C1115 C 0.00317 0.84157 0.38088 0.0
C1116 C 0.32483 0.35851 0.56224 0.0
C1117 C 0.39868 0.32393 0.57422 0.0
C1118 C 0.4278 0.38616 0.54779 0.0
Mg1119 Mg 0.31378 0.38634 0.52178 0.0
Mg1120 Mg 0.3405 0.38933 0.47664 0.0
O1121 O 0.34262 0.39174 0.50714 0.0
Mg1122 Mg 0.35775 0.37131 0.52354 0.0
O1123 O 0.37178 0.35206 0.54181 0.0
Mg1124 Mg 0.3788 0.37177 0.56992 0.0
Mg1125 Mg 0.39663 0.34452 0.52977 0.0
C1126 C 0.39122 0.38785 0.48399 0.0
O1127 O 0.34911 0.34002 0.49655 0.0
O1128 O 0.30376 0.41417 0.50186 0.0
O1129 O 0.3818 0.32855 0.49878 0.0
O1130 O 0.29633 0.35809 0.49448 0.0
O1131 O 0.32295 0.41553 0.47179 0.0
O1132 O 0.3196 0.35832 0.46796 0.0
O1133 O 0.36753 0.4013 0.55112 0.0
O1134 O 0.33464 0.41234 0.54748 0.0
C1135 C 0.35483 0.41523 0.55616 0.0
C1136 C 0.30919 0.42252 0.48393 0.0
O1137 O 0.38853 0.38188 0.50354 0.0
O1138 O 0.38972 0.33929 0.5834 0.0
O1139 O 0.37514 0.39131 0.47103 0.0
O1140 O 0.41512 0.38611 0.56345 0.0
O1141 O 0.40363 0.32403 0.55431 0.0
O1142 O 0.42243 0.37263 0.53082 0.0
O1143 O 0.32666 0.36098 0.54173 0.0
O1144 O 0.34218 0.35951 0.57552 0.0
C1145 C 0.3022 0.34944 0.47666 0.0
C1146 C 0.36222 0.32742 0.48955 0.0
C1147 C 0.35062 0.31516 0.10466 0.0
C1148 C 0.31186 0.29181 0.17592 0.0
C1149 C 0.28104 0.34776 0.16749 0.0
Mg1150 Mg 0.36876 0.36693 0.09163 0.0
Mg1151 Mg 0.38707 0.40451 0.13268 0.0
O1152 O 0.3625 0.38442 0.11825 0.0
Mg1153 Mg 0.34967 0.35983 0.13601 0.0
O1154 O 0.33562 0.33469 0.15257 0.0
Mg1155 Mg 0.30862 0.32103 0.13181 0.0
Mg1156 Mg 0.32856 0.34368 0.18086 0.0
C1157 C 0.34978 0.40622 0.16563 0.0
O1158 O 0.37997 0.36587 0.16139 0.0
O1159 O 0.37756 0.40268 0.07729 0.0
O1160 O 0.36148 0.36414 0.19209 0.0
O1161 O 0.40581 0.36843 0.10335 0.0
O1162 O 0.39234 0.42601 0.10708 0.0
O1163 O 0.41451 0.38771 0.13611 0.0
O1164 O 0.31846 0.353 0.1138 0.0
O1165 O 0.33062 0.3642 0.08228 0.0
C1166 C 0.31455 0.35709 0.09397 0.0
C1167 C 0.38674 0.42229 0.08644 0.0
O1168 O 0.33881 0.38668 0.15847 0.0
O1169 O 0.30593 0.29169 0.1552 0.0
O1170 O 0.36899 0.41468 0.1595 0.0
O1171 O 0.2835 0.33529 0.15078 0.0
O1172 O 0.32026 0.30976 0.18813 0.0
O1173 O 0.29762 0.35617 0.1813 0.0
O1174 O 0.36128 0.33488 0.11156 0.0
O1175 O 0.3319 0.30706 0.11154 0.0
C1176 C 0.41923 0.37493 0.12058 0.0
C1177 C 0.37947 0.36929 0.18231 0.0
C1178 C 0.34883 0.11234 0.31455 0.0
C1179 C 0.40696 0.12514 0.38773 0.0
C1180 C 0.35181 0.15266 0.41265 0.0
Mg1181 Mg 0.30917 0.13831 0.30233 0.0
Mg1182 Mg 0.31263 0.19017 0.32224 0.0
O1183 O 0.31279 0.16117 0.32864 0.0
Mg1184 Mg 0.34027 0.15505 0.34426 0.0
O1185 O 0.36706 0.14577 0.35835 0.0
Mg1186 Mg 0.35201 0.11675 0.36827 0.0
Mg1187 Mg 0.38489 0.16567 0.37971 0.0
C1188 C 0.32983 0.20047 0.37244 0.0
O1189 O 0.36458 0.18374 0.33125 0.0
O1190 O 0.27477 0.14791 0.29326 0.0
O1191 O 0.39266 0.19169 0.3584 0.0
O1192 O 0.32488 0.16384 0.27849 0.0
O1193 O 0.27895 0.18318 0.30871 0.0
O1194 O 0.33349 0.19775 0.29633 0.0
O1195 O 0.31732 0.12541 0.35712 0.0
O1196 O 0.29454 0.11439 0.3264 0.0
C1197 C 0.30019 0.11238 0.34659 0.0
C1198 C 0.26726 0.16566 0.29795 0.0
O1199 O 0.33684 0.18196 0.37277 0.0
O1200 O 0.3885 0.1117 0.38055 0.0
O1201 O 0.32131 0.20684 0.35485 0.0
O1202 O 0.34776 0.13309 0.40256 0.0
O1203 O 0.40886 0.14632 0.38874 0.0
O1204 O 0.36474 0.16899 0.40565 0.0
O1205 O 0.34276 0.13113 0.31565 0.0
O1206 O 0.35487 0.10363 0.33195 0.0
C1207 C 0.33346 0.18467 0.2792 0.0
C1208 C 0.3834 0.19513 0.33987 0.0
C1209 C 0.90106 0.07203 0.62427 0.0
C1210 C 0.98034 0.07389 0.66144 0.0
C1211 C 0.97281 0.13687 0.69385 0.0
Mg1212 Mg 0.88045 0.11697 0.612 0.0
Mg1213 Mg 0.9167 0.15971 0.59971 0.0
O1214 O 0.90646 0.14187 0.62198 0.0
Mg1215 Mg 0.92849 0.12402 0.63101 0.0
O1216 O 0.94925 0.10529 0.64112 0.0
Mg1217 Mg 0.93429 0.09401 0.66765 0.0
Mg1218 Mg 0.9786 0.12105 0.64748 0.0
C1219 C 0.95736 0.17618 0.63451 0.0
O1220 O 0.94797 0.1295 0.60067 0.0
O1221 O 0.86153 0.14722 0.60651 0.0
O1222 O 0.98296 0.13653 0.61711 0.0
O1223 O 0.88797 0.11518 0.57591 0.0
O1224 O 0.88858 0.17361 0.5953 0.0
O1225 O 0.91852 0.1398 0.57064 0.0
O1226 O 0.91073 0.11826 0.66181 0.0
O1227 O 0.87523 0.11609 0.64923 0.0
C1228 C 0.89 0.11512 0.66494 0.0
C1229 C 0.86847 0.16654 0.59939 0.0
O1230 O 0.9527 0.15792 0.64407 0.0
O1231 O 0.96053 0.0714 0.66783 0.0
O1232 O 0.94652 0.17935 0.61675 0.0
O1233 O 0.95702 0.1198 0.69308 0.0
O1234 O -0.00964 0.09186 0.65407 0.0
O1235 O 0.98244 0.14229 0.67684 0.0
O1236 O 0.9043 0.09124 0.61633 0.0
O1237 O 0.91103 0.06939 0.64268 0.0
C1238 C 0.90341 0.12293 0.56399 0.0
C1239 C 0.96901 0.13686 0.60057 0.0
C1240 C 0.86672 0.13488 0.1606 0.0
C1241 C 0.85496 0.07527 0.08775 0.0
C1242 C 0.82057 0.12493 0.0634 0.0
Mg1243 Mg 0.83699 0.1717 0.17288 0.0
Mg1244 Mg 0.78336 0.15831 0.15855 0.0
O1245 O 0.81187 0.16369 0.14867 0.0
Mg1246 Mg 0.8206 0.13774 0.1329 0.0
O1247 O 0.83204 0.11248 0.11834 0.0
Mg1248 Mg 0.85915 0.12968 0.10671 0.0
Mg1249 Mg 0.81241 0.09292 0.09804 0.0
C1250 C 0.7712 0.14104 0.1084 0.0
O1251 O 0.79529 0.11101 0.14771 0.0
O1252 O 0.82261 0.20392 0.17939 0.0
O1253 O 0.78846 0.08269 0.12085 0.0
O1254 O 0.81643 0.15534 0.19979 0.0
O1255 O 0.78561 0.19225 0.17042 0.0
O1256 O 0.78233 0.13853 0.18595 0.0
O1257 O 0.84712 0.16256 0.11768 0.0
O1258 O 0.85737 0.18726 0.14694 0.0
C1259 C 0.85921 0.18077 0.12702 0.0
C1260 C 0.80262 0.20752 0.17715 0.0
O1261 O 0.79131 0.13835 0.10614 0.0
O1262 O 0.86734 0.09447 0.09443 0.0
O1263 O 0.76468 0.14632 0.12717 0.0
O1264 O 0.84031 0.13118 0.07295 0.0
O1265 O 0.83377 0.07151 0.08798 0.0
O1266 O 0.80553 0.11121 0.07138 0.0
O1267 O 0.8471 0.13898 0.16036 0.0
O1268 O 0.87491 0.12913 0.14279 0.0
C1269 C 0.79745 0.14312 0.20188 0.0
C1270 C 0.78535 0.09137 0.13974 0.0
C1271 C 0.40886 0.58603 0.35217 0.0
C1272 C 0.415 0.50678 0.32505 0.0
C1273 C 0.34829 0.50223 0.29375 0.0
Mg1274 Mg 0.36232 0.604 0.36288 0.0
Mg1275 Mg 0.32131 0.5675 0.37762 0.0
O1276 O 0.33876 0.57638 0.35471 0.0
Mg1277 Mg 0.35846 0.55532 0.34836 0.0
O1278 O 0.3792 0.53564 0.34131 0.0
Mg1279 Mg 0.3883 0.54755 0.31275 0.0
Mg1280 Mg 0.36793 0.50493 0.3409 0.0
C1281 C 0.30835 0.52289 0.34721 0.0
O1282 O 0.35517 0.54033 0.38121 0.0
O1283 O 0.33078 0.6214 0.36635 0.0
O1284 O 0.35602 0.50412 0.37352 0.0
O1285 O 0.36507 0.59995 0.39984 0.0
O1286 O 0.3052 0.59429 0.37861 0.0
O1287 O 0.34136 0.56971 0.40746 0.0
O1288 O 0.36213 0.56949 0.3154 0.0
O1289 O 0.36239 0.60537 0.32536 0.0
C1290 C 0.36405 0.5898 0.31076 0.0
C1291 C 0.31143 0.61409 0.37321 0.0
O1292 O 0.32626 0.52782 0.33723 0.0
O1293 O 0.41431 0.52469 0.3155 0.0
O1294 O 0.30427 0.5354 0.36337 0.0
O1295 O 0.36294 0.51978 0.29184 0.0
O1296 O 0.39894 0.49665 0.33511 0.0
O1297 O 0.34572 0.49407 0.31218 0.0
O1298 O 0.39 0.58225 0.36075 0.0
O1299 O 0.41167 0.57501 0.33443 0.0
C1300 C 0.35787 0.58554 0.41303 0.0
C1301 C 0.35332 0.52038 0.3867 0.0
C1302 C 0.5827 0.40394 0.6013 0.0
C1303 C 0.646 0.38537 0.55368 0.0
C1304 C 0.68584 0.40254 0.61357 0.0
Mg1305 Mg 0.58542 0.43454 0.64564 0.0
Mg1306 Mg 0.62629 0.47698 0.66031 0.0
O1307 O 0.61835 0.44707 0.65119 0.0
Mg1308 Mg 0.62842 0.43433 0.62356 0.0
O1309 O 0.63538 0.41871 0.59623 0.0
Mg1310 Mg 0.62971 0.38745 0.60509 0.0
Mg1311 Mg 0.662 0.42924 0.58438 0.0
C1312 C 0.67324 0.46711 0.65021 0.0
O1313 O 0.62991 0.46564 0.60308 0.0
O1314 O 0.58106 0.44869 0.68125 0.0
O1315 O 0.65636 0.46247 0.57995 0.0
O1316 O 0.57818 0.46659 0.63331 0.0
O1317 O 0.61163 0.47552 0.69078 0.0
O1318 O 0.60805 0.49413 0.63875 0.0
O1319 O 0.62624 0.40187 0.64106 0.0
O1320 O 0.59467 0.40345 0.65699 0.0
C1321 C 0.61089 0.39381 0.65328 0.0
C1322 C 0.59328 0.46348 0.69521 0.0
O1323 O 0.66496 0.44961 0.63715 0.0
O1324 O 0.63473 0.3764 0.56885 0.0
O1325 O 0.66131 0.47958 0.65919 0.0
O1326 O 0.6672 0.3888 0.61328 0.0
O1327 O 0.65751 0.4053 0.55628 0.0
O1328 O 0.68709 0.4218 0.60656 0.0
O1329 O 0.59309 0.4219 0.61194 0.0
O1330 O 0.59268 0.38815 0.59587 0.0
C1331 C 0.58779 0.48667 0.63145 0.0
C1332 C 0.64178 0.47277 0.58745 0.0
C1333 C 0.11745 0.83733 0.80425 0.0
C1334 C 0.1807 0.80669 0.76956 0.0
C1335 C 0.18726 0.77519 0.82969 0.0
Mg1336 Mg 0.11329 0.85169 0.85678 0.0
Mg1337 Mg 0.16044 0.87288 0.88561 0.0
O1338 O 0.14259 0.84767 0.8701 0.0
Mg1339 Mg 0.1556 0.83718 0.84334 0.0
O1340 O 0.16662 0.82561 0.81614 0.0
Mg1341 Mg 0.14443 0.79686 0.80823 0.0
Mg1342 Mg 0.19636 0.82296 0.81842 0.0
C1343 C 0.19158 0.83764 0.88496 0.0
O1344 O 0.18138 0.87027 0.84155 0.0
O1345 O 0.10502 0.85928 0.89377 0.0
O1346 O 0.21108 0.85642 0.83193 0.0
O1347 O 0.12464 0.88939 0.85468 0.0
O1348 O 0.13873 0.8756 0.91061 0.0
O1349 O 0.16015 0.90159 0.86761 0.0
O1350 O 0.13289 0.80352 0.84309 0.0
O1351 O 0.1037 0.81292 0.85814 0.0
C1352 C 0.11396 0.79799 0.85068 0.0
C1353 C 0.11764 0.86922 0.91084 0.0
O1354 O 0.18173 0.82737 0.86689 0.0
O1355 O 0.16093 0.79772 0.77428 0.0
O1356 O 0.18793 0.85644 0.89287 0.0
O1357 O 0.16778 0.77411 0.82032 0.0
O1358 O 0.19628 0.81633 0.78405 0.0
O1359 O 0.20082 0.79382 0.83385 0.0
O1360 O 0.1276 0.84709 0.82237 0.0
O1361 O 0.12131 0.81873 0.79651 0.0
C1362 C 0.14209 0.90485 0.85795 0.0
C1363 C 0.20216 0.87282 0.83807 0.0
C1364 C 0.58067 0.89424 0.1117 0.0
C1365 C 0.64835 0.88701 0.06797 0.0
C1366 C 0.68698 0.92164 0.12472 0.0
Mg1367 Mg 0.57324 0.93015 0.14851 0.0
Mg1368 Mg 0.59778 0.98069 0.14504 0.0
O1369 O 0.60239 0.95264 0.15116 0.0
Mg1370 Mg 0.61795 0.93859 0.12787 0.0
O1371 O 0.63093 0.92175 0.10491 0.0
Mg1372 Mg 0.63298 0.8938 0.11941 0.0
Mg1373 Mg 0.6554 0.93511 0.09105 0.0
C1374 C 0.65013 0.98626 0.14509 0.0
O1375 O 0.6127 0.96335 0.10111 0.0
O1376 O 0.56482 0.95047 0.17951 0.0
O1377 O 0.6422 0.96334 0.08102 0.0
O1378 O 0.55324 0.94865 0.12643 0.0
O1379 O 0.58038 0.98577 0.17346 0.0
O1380 O 0.57567 0.97804 0.11596 0.0
O1381 O 0.62496 0.9129 0.15194 0.0
O1382 O 0.59306 0.91031 0.16831 0.0
C1383 C 0.61189 0.90482 0.16617 0.0
C1384 C 0.56905 0.97163 0.18486 0.0
O1385 O 0.64917 0.96535 0.13982 0.0
O1386 O 0.64025 0.87881 0.08515 0.0
O1387 O 0.63274 -0.00505 0.14559 0.0
O1388 O 0.67088 0.90564 0.12754 0.0
O1389 O 0.65512 0.90799 0.06695 0.0
O1390 O 0.68392 0.93777 0.11359 0.0
O1391 O 0.58601 0.91475 0.11843 0.0
O1392 O 0.59538 0.88237 0.10942 0.0
C1393 C 0.55689 0.96466 0.1142 0.0
C1394 C 0.62473 0.97066 0.08567 0.0
C1395 C 0.40643 0.07971 0.84819 0.0
C1396 C 0.40306 0.00096 0.80582 0.0
C1397 C 0.3381 0.00744 0.78142 0.0
Mg1398 Mg 0.36216 0.09934 0.86405 0.0
Mg1399 Mg 0.32297 0.06201 0.88024 0.0
O1400 O 0.33739 0.07259 0.85604 0.0
Mg1401 Mg 0.355 0.05112 0.84482 0.0
O1402 O 0.37367 0.03117 0.83235 0.0
Mg1403 Mg 0.382 0.04679 0.80519 0.0
Mg1404 Mg 0.35824 0.00183 0.82578 0.0
C1405 C 0.30437 0.02132 0.84548 0.0
O1406 O 0.3519 0.03027 0.87489 0.0
O1407 O 0.33154 0.11677 0.87191 0.0
O1408 O 0.34742 -0.00423 0.85774 0.0
O1409 O 0.36823 0.09324 0.89999 0.0
O1410 O 0.30834 0.08958 0.88678 0.0
O1411 O 0.34715 0.06103 0.90642 0.0
O1412 O 0.35769 0.06933 0.81397 0.0
O1413 O 0.35951 0.10451 0.82708 0.0
C1414 C 0.35992 0.09004 0.81104 0.0
C1415 C 0.31359 0.10949 0.88132 0.0
O1416 O 0.32117 0.0266 0.83401 0.0
O1417 O 0.40529 0.02141 0.80134 0.0
O1418 O 0.30285 0.03175 0.86402 0.0
O1419 O 0.35501 0.02328 0.78117 0.0
O1420 O 0.38607 0.99047 0.81437 0.0
O1421 O 0.33363 -0.00159 0.799 0.0
O1422 O 0.38799 0.07596 0.85747 0.0
O1423 O 0.40788 0.07027 0.82916 0.0
C1424 C 0.36345 0.07707 0.9119 0.0
C1425 C 0.347 0.00891 0.87486 0.0
C1426 C 0.86904 0.62648 0.65609 0.0
C1427 C 0.85688 0.57097 0.57952 0.0
C1428 C 0.83215 0.62911 0.55734 0.0
Mg1429 Mg 0.84186 0.66546 0.66874 0.0
Mg1430 Mg 0.78908 0.65811 0.65069 0.0
O1431 O 0.81818 0.65991 0.64321 0.0
Mg1432 Mg 0.8258 0.63377 0.62654 0.0
O1433 O 0.83613 0.60842 0.61094 0.0
Mg1434 Mg 0.86536 0.62471 0.60228 0.0
Mg1435 Mg 0.81677 0.59394 0.58727 0.0
C1436 C 0.77957 0.64268 0.59997 0.0
O1437 O 0.79759 0.60701 0.63765 0.0
O1438 O 0.83054 0.69944 0.67566 0.0
O1439 O 0.78871 0.5851 0.60577 0.0
O1440 O 0.81778 0.64948 0.6936 0.0
O1441 O 0.79424 0.69215 0.66274 0.0
O1442 O 0.78342 0.63771 0.67735 0.0
O1443 O 0.85492 0.65811 0.61432 0.0
O1444 O 0.86515 0.68101 0.6448 0.0
C1445 C 0.86751 0.67542 0.62477 0.0
C1446 C 0.81184 0.70548 0.67151 0.0
O1447 O 0.79888 0.63753 0.5988 0.0
O1448 O 0.8706 0.58861 0.58851 0.0
O1449 O 0.77251 0.64897 0.61812 0.0
O1450 O 0.85129 0.63142 0.56793 0.0
O1451 O 0.83581 0.56999 0.57725 0.0
O1452 O 0.81504 0.61641 0.56313 0.0
O1453 O 0.84997 0.6319 0.65519 0.0
O1454 O 0.87778 0.6207 0.63864 0.0
C1455 C 0.79748 0.63955 0.69406 0.0
C1456 C 0.78516 0.59058 0.6256 0.0
C1457 C 0.11485 0.34192 0.30453 0.0
C1458 C 0.16603 0.31232 0.25332 0.0
C1459 C 0.18526 0.27724 0.30755 0.0
Mg1460 Mg 0.1209 0.35293 0.35827 0.0
Mg1461 Mg 0.17219 0.3711 0.3802 0.0
O1462 O 0.15141 0.34718 0.36565 0.0
Mg1463 Mg 0.15849 0.33796 0.33546 0.0
O1464 O 0.16337 0.32809 0.30508 0.0
Mg1465 Mg 0.13972 0.30009 0.29913 0.0
Mg1466 Mg 0.19222 0.32606 0.29894 0.0
C1467 C 0.20164 0.33566 0.36758 0.0
O1468 O 0.18425 0.37088 0.33221 0.0
O1469 O 0.11952 0.35917 0.39676 0.0
O1470 O 0.20979 0.35886 0.31221 0.0
O1471 O 0.13249 0.39036 0.35703 0.0
O1472 O 0.15546 0.37209 0.40955 0.0
O1473 O 0.16904 0.4015 0.36569 0.0
O1474 O 0.13572 0.3043 0.33681 0.0
O1475 O 0.11086 0.31428 0.35823 0.0
C1476 C 0.11896 0.29908 0.34801 0.0
C1477 C 0.1347 0.36701 0.41261 0.0
O1478 O 0.18754 0.32605 0.35176 0.0
O1479 O 0.1483 0.30272 0.26178 0.0
O1480 O 0.20015 0.35395 0.37848 0.0
O1481 O 0.16442 0.27667 0.3039 0.0
O1482 O 0.18406 0.32169 0.26478 0.0
O1483 O 0.19963 0.29544 0.30874 0.0
O1484 O 0.12827 0.35 0.32137 0.0
O1485 O 0.11557 0.32299 0.29485 0.0
C1486 C 0.1502 0.40545 0.3589 0.0
C1487 C 0.20307 0.37423 0.32356 0.0
H1488 H 0.08939 0.98192 0.58031 0.0
H1489 H 0.12533 0.05852 0.48357 0.0
H1490 H 0.1552 -0.00728 0.55756 0.0
H1491 H 0.07577 0.07197 0.52626 0.0
H1492 H 0.13124 0.02775 0.50523 0.0
H1493 H 0.07977 0.00966 0.55636 0.0
C1494 C 0.10198 0.99047 0.57077 0.0
C1495 C 0.12335 0.98542 0.57159 0.0
C1496 C 0.11881 0.03722 0.50962 0.0
C1497 C 0.11203 0.01614 0.54308 0.0
C1498 C 0.11517 0.05453 0.49704 0.0
C1499 C 0.09985 0.06762 0.50298 0.0
C1500 C 0.1069 0.03284 0.52814 0.0
C1501 C 0.08769 0.06219 0.52112 0.0
C1502 C 0.09635 0.00601 0.55679 0.0
C1503 C 0.13857 -0.00385 0.55772 0.0
N1504 N 0.09148 0.04522 0.53309 0.0
N1505 N 0.1326 0.01089 0.54401 0.0
H1506 H -0.00899 0.4303 0.77952 0.0
H1507 H 0.93158 0.37169 0.66528 0.0
H1508 H 0.01538 0.38125 0.73959 0.0
H1509 H 0.8992 0.40304 0.71535 0.0
H1510 H 0.96768 0.38688 0.68575 0.0
H1511 H 0.96395 0.43311 0.74896 0.0
C1512 C -0.00848 0.42112 0.76384 0.0
C1513 C 0.00532 0.40553 0.7619 0.0
C1514 C 0.95272 0.39085 0.692 0.0
C1515 C 0.97409 0.40797 0.7274 0.0
C1516 C 0.93215 0.38226 0.68031 0.0
C1517 C 0.91245 0.38604 0.68874 0.0
C1518 C 0.95356 0.40328 0.71227 0.0
C1519 C 0.91403 0.39947 0.70849 0.0
C1520 C 0.97584 0.42242 0.74656 0.0
C1521 C 0.00501 0.39352 0.74156 0.0
N1522 N 0.93425 0.40746 0.71972 0.0
N1523 N -0.01074 0.39463 0.72517 0.0
H1524 H 0.65034 0.22417 0.97399 0.0
H1525 H 0.66438 0.26033 0.09778 0.0
H1526 H 0.6654 0.1828 0.0249 0.0
H1527 H 0.64082 0.29511 0.04499 0.0
H1528 H 0.68239 0.23939 0.07115 0.0
H1529 H 0.66786 0.25703 -0.00184 0.0
C1530 C 0.65795 0.22192 -0.01002 0.0
C1531 C 0.65487 0.20089 -0.00184 0.0
C1532 C 0.6737 0.25199 0.06552 0.0
C1533 C 0.67392 0.23818 0.02602 0.0
C1534 C 0.66325 0.26367 0.08064 0.0
C1535 C 0.6502 0.27843 0.07321 0.0
C1536 C 0.67104 0.25537 0.04303 0.0
C1537 C 0.64978 0.2829 0.05109 0.0
C1538 C 0.66795 0.24071 0.00384 0.0
C1539 C 0.66612 0.19889 0.0185 0.0
N1540 N 0.65974 0.27118 0.03673 0.0
N1541 N 0.67435 0.21741 0.03222 0.0
H1542 H 0.70483 0.78041 0.25197 0.0
H1543 H 0.75604 0.84651 0.15855 0.0
H1544 H 0.67191 0.83415 0.23723 0.0
H1545 H 0.79179 0.84751 0.22211 0.0
H1546 H 0.72081 0.83314 0.17495 0.0
H1547 H 0.73192 0.79274 0.22568 0.0
C1548 C 0.70242 0.79389 0.24211 0.0
C1549 C 0.68605 0.80618 0.24661 0.0
C1550 C 0.73642 0.83671 0.18521 0.0
C1551 C 0.71727 0.82073 0.2172 0.0
C1552 C 0.75646 0.84449 0.17601 0.0
C1553 C 0.77695 0.8481 0.18899 0.0
C1554 C 0.73713 0.83197 0.20727 0.0
C1555 C 0.7765 0.84507 0.21147 0.0
C1556 C 0.71814 0.80119 0.2275 0.0
C1557 C 0.68414 0.82407 0.23393 0.0
N1558 N 0.75697 0.83669 0.21977 0.0
N1559 N 0.69997 0.83123 0.22009 0.0
H1560 H 0.1994 0.29002 0.74393 0.0
H1561 H 0.15763 0.22368 0.82484 0.0
H1562 H 0.13145 0.29692 0.72987 0.0
H1563 H 0.10891 0.19927 0.76972 0.0
H1564 H 0.16743 0.25908 0.8086 0.0
H1565 H 0.1874 0.26655 0.77358 0.0
C1566 C 0.18222 0.2876 0.7479 0.0
C1567 C 0.16642 0.29559 0.73476 0.0
C1568 C 0.15431 0.2461 0.80036 0.0
C1569 C 0.15242 0.26798 0.7675 0.0
C1570 C 0.14851 0.22587 0.80961 0.0
C1571 C 0.13269 0.20814 0.79836 0.0
C1572 C 0.14392 0.24884 0.77995 0.0
C1573 C 0.1214 0.21227 0.77881 0.0
C1574 C 0.1753 0.27402 0.7646 0.0
C1575 C 0.14413 0.29122 0.73993 0.0
N1576 N 0.12739 0.23218 0.7701 0.0
N1577 N 0.13762 0.27707 0.75539 0.0
H1578 H 0.69268 0.29605 0.8748 0.0
H1579 H 0.74751 0.33342 -0.0128 0.0
H1580 H 0.73581 0.36031 0.8924 0.0
H1581 H 0.79424 0.30194 0.95382 0.0
H1582 H 0.72015 0.32099 0.95581 0.0
H1583 H 0.71156 0.28091 0.90546 0.0
C1584 C 0.70668 0.30671 0.88453 0.0
C1585 C 0.71267 0.32954 0.88131 0.0
C1586 C 0.73603 0.31578 0.95592 0.0
C1587 C 0.73364 0.31248 0.91592 0.0
C1588 C 0.75171 0.32287 0.97387 0.0
C1589 C 0.77368 0.32009 0.97233 0.0
C1590 C 0.7427 0.30621 0.93666 0.0
C1591 C 0.77784 0.30564 0.95496 0.0
C1592 C 0.71713 0.29809 0.90205 0.0
C1593 C 0.73062 0.34272 0.89447 0.0
N1594 N 0.76288 0.30026 0.93707 0.0
N1595 N 0.7403 0.33404 0.91144 0.0
H1596 H 0.61431 0.04575 0.30586 0.0
H1597 H 0.5434 0.0021 0.19182 0.0
H1598 H 0.58384 0.08551 0.26219 0.0
H1599 H 0.58438 0.96335 0.22561 0.0
H1600 H 0.5477 0.02805 0.22463 0.0
H1601 H 0.59484 0.01185 0.28305 0.0
C1602 C 0.60326 0.04725 0.29169 0.0
C1603 C 0.60096 0.06833 0.28554 0.0
C1604 C 0.55526 0.01353 0.22519 0.0
C1605 C 0.57855 0.03004 0.25978 0.0
C1606 C 0.5525 -0.00143 0.20656 0.0
C1607 C 0.56356 0.98067 0.20613 0.0
C1608 C 0.56973 0.01092 0.24325 0.0
C1609 C 0.57549 0.97694 0.22546 0.0
C1610 C 0.59218 0.028 0.27872 0.0
C1611 C 0.58645 0.06955 0.26714 0.0
N1612 N 0.57879 -0.00767 0.24314 0.0
N1613 N 0.57594 0.05072 0.25487 0.0
H1614 H 0.98258 0.87772 0.37869 0.0
H1615 H 0.91777 0.85122 0.4858 0.0
H1616 H 0.98164 0.818 0.41217 0.0
H1617 H 0.90162 0.89864 0.4417 0.0
H1618 H 0.94571 0.8427 0.4617 0.0
H1619 H 0.95577 0.88835 0.40311 0.0
C1620 C 0.97648 0.86663 0.39081 0.0
C1621 C 0.98441 0.84685 0.39311 0.0
C1622 C 0.93627 0.8552 0.45744 0.0
C1623 C 0.95433 0.85936 0.42181 0.0
C1624 C 0.92062 0.86038 0.47145 0.0
C1625 C 0.90762 0.87595 0.46598 0.0
C1626 C 0.939 0.8657 0.43782 0.0
C1627 C 0.91141 0.88663 0.4466 0.0
C1628 C 0.96135 0.87284 0.40495 0.0
C1629 C 0.97614 0.83342 0.40962 0.0
N1630 N 0.92672 0.88131 0.43322 0.0
N1631 N 0.96178 0.84 0.42339 0.0
H1632 H 0.45519 0.12268 0.05144 0.0
H1633 H 0.52122 0.16483 0.97419 0.0
H1634 H 0.49308 0.17588 0.09649 0.0
H1635 H 0.56275 0.19986 0.03044 0.0
H1636 H 0.48881 0.16172 -0.00433 0.0
H1637 H 0.47206 0.14124 0.02086 0.0
C1638 C 0.46661 0.13861 0.05472 0.0
C1639 C 0.47323 0.1476 0.07634 0.0
C1640 C 0.50487 0.17051 0.00324 0.0
C1641 C 0.49235 0.16925 0.04177 0.0
C1642 C 0.52328 0.17272 -0.00919 0.0
C1643 C 0.54458 0.18215 0.00088 0.0
C1644 C 0.50817 0.17769 0.02577 0.0
C1645 C 0.54654 0.19213 0.02232 0.0
C1646 C 0.47617 0.14938 0.03728 0.0
C1647 C 0.48802 0.16819 0.08 0.0
N1648 N 0.52861 0.18924 0.03423 0.0
N1649 N 0.4973 0.17816 0.06293 0.0
H1650 H 0.88367 0.71544 0.26023 0.0
H1651 H 0.80378 0.75485 0.17284 0.0
H1652 H 0.8216 0.67305 0.23352 0.0
H1653 H 0.87322 0.78554 0.18717 0.0
H1654 H 0.81108 0.72163 0.19027 0.0
H1655 H 0.88241 0.73782 0.22894 0.0
C1656 C 0.87016 0.71042 0.24738 0.0
C1657 C 0.85262 0.69255 0.24961 0.0
C1658 C 0.82479 0.73547 0.18913 0.0
C1659 C 0.85043 0.71866 0.21421 0.0
C1660 C 0.82059 0.75436 0.17919 0.0
C1661 C 0.83779 0.7731 0.17919 0.0
C1662 C 0.84629 0.73556 0.19902 0.0
C1663 C 0.85934 0.77165 0.18745 0.0
C1664 C 0.8693 0.72329 0.22955 0.0
C1665 C 0.83547 0.68677 0.23247 0.0
N1666 N 0.8629 0.75343 0.19731 0.0
N1667 N 0.83443 0.70019 0.2158 0.0
H1668 H 0.27474 0.11004 0.56414 0.0
H1669 H 0.1752 0.15557 0.50196 0.0
H1670 H 0.25011 0.16603 0.59196 0.0
H1671 H 0.18379 0.08744 0.4948 0.0
H1672 H 0.20689 0.16387 0.53053 0.0
H1673 H 0.24652 0.10622 0.53286 0.0
C1674 C 0.26378 0.12185 0.56339 0.0
C1675 C 0.26481 0.13838 0.5806 0.0
C1676 C 0.2017 0.14713 0.52261 0.0
C1677 C 0.23225 0.13395 0.54514 0.0
C1678 C 0.18346 0.14238 0.50655 0.0
C1679 C 0.17638 0.12076 0.49622 0.0
C1680 C 0.21323 0.13022 0.5279 0.0
C1681 C 0.18841 0.10441 0.50222 0.0
C1682 C 0.24749 0.11952 0.5457 0.0
C1683 C 0.24978 0.15295 0.57904 0.0
N1684 N 0.20615 0.10949 0.5175 0.0
N1685 N 0.23409 0.15039 0.56168 0.0
H1686 H 0.83923 0.52128 0.73665 0.0
H1687 H 0.82408 0.39558 0.69098 0.0
H1688 H 0.80952 0.46586 0.77167 0.0
H1689 H 0.85603 0.45241 0.65923 0.0
H1690 H 0.80855 0.42075 0.71565 0.0
H1691 H 0.83346 0.4966 0.70294 0.0
C1692 C 0.83088 0.50407 0.73714 0.0
C1693 C 0.82579 0.4954 0.75718 0.0
C1694 C 0.81865 0.42763 0.70301 0.0
C1695 C 0.81984 0.46691 0.71886 0.0
C1696 C 0.82754 0.41326 0.68901 0.0
C1697 C 0.84186 0.422 0.67354 0.0
C1698 C 0.82412 0.45079 0.70133 0.0
C1699 C 0.84564 0.44503 0.67144 0.0
C1700 C 0.82773 0.4899 0.71789 0.0
C1701 C 0.81443 0.47311 0.7567 0.0
N1702 N 0.83706 0.4586 0.68533 0.0
N1703 N 0.81252 0.4594 0.73797 0.0
H1704 H 0.5309 0.12175 0.31184 0.0
H1705 H 0.51567 0.16495 0.19488 0.0
H1706 H 0.58563 0.14884 0.27484 0.0
H1707 H 0.46261 0.13032 0.22993 0.0
H1708 H 0.54023 0.17121 0.22878 0.0
H1709 H 0.50558 0.13616 0.28704 0.0
C1710 C 0.53757 0.13075 0.29837 0.0
C1711 C 0.5602 0.13344 0.29479 0.0
C1712 C 0.52305 0.16276 0.22916 0.0
C1713 C 0.53123 0.14992 0.26625 0.0
C1714 C 0.50894 0.15923 0.20983 0.0
C1715 C 0.48733 0.14618 0.20941 0.0
C1716 C 0.51539 0.15323 0.24806 0.0
C1717 C 0.47938 0.13977 0.22936 0.0
C1718 C 0.52313 0.13918 0.28436 0.0
C1719 C 0.56816 0.14601 0.27775 0.0
N1720 N 0.4936 0.1429 0.2478 0.0
N1721 N 0.55353 0.15338 0.2637 0.0
H1722 H 0.84583 0.82684 0.44998 0.0
H1723 H 0.84239 0.69893 0.4086 0.0
H1724 H 0.85488 0.77682 0.49388 0.0
H1725 H 0.85094 0.75283 0.36639 0.0
H1726 H 0.84163 0.72588 0.43992 0.0
H1727 H 0.84068 0.79829 0.41878 0.0
C1728 C 0.84599 0.8097 0.45307 0.0
C1729 C 0.85047 0.80405 0.47447 0.0
C1730 C 0.84375 0.73178 0.42379 0.0
C1731 C 0.84537 0.77151 0.43901 0.0
C1732 C 0.84451 0.7164 0.40596 0.0
C1733 C 0.84723 0.72354 0.38486 0.0
C1734 C 0.84539 0.75448 0.42044 0.0
C1735 C 0.84895 0.74644 0.38233 0.0
C1736 C 0.84341 0.79348 0.43529 0.0
C1737 C 0.85125 0.78174 0.47758 0.0
N1738 N 0.84798 0.76101 0.39983 0.0
N1739 N 0.84883 0.76632 0.46007 0.0
H1740 H 0.30724 0.148 0.73672 0.0
H1741 H 0.18331 0.14037 0.75163 0.0
H1742 H 0.25538 0.09966 0.69876 0.0
H1743 H 0.22699 0.15042 0.81163 0.0
H1744 H 0.21269 0.12997 0.73166 0.0
H1745 H 0.28183 0.1507 0.76549 0.0
C1746 C 0.29087 0.13723 0.7348 0.0
C1747 C 0.28315 0.12409 0.71493 0.0
C1748 C 0.2159 0.13433 0.74922 0.0
C1749 C 0.25414 0.12753 0.74749 0.0
C1750 C 0.19917 0.14054 0.7607 0.0
C1751 C 0.20248 0.14604 0.78352 0.0
C1752 C 0.23653 0.13396 0.76032 0.0
C1753 C 0.22369 0.1463 0.79407 0.0
C1754 C 0.27636 0.13894 0.75121 0.0
C1755 C 0.26185 0.11045 0.71349 0.0
N1756 N 0.24008 0.14039 0.78231 0.0
N1757 N 0.24788 0.11301 0.72924 0.0
H1758 H 0.77845 0.40481 0.93159 0.0
H1759 H 0.8273 0.52648 0.90432 0.0
H1760 H 0.80668 0.4513 -0.01287 0.0
H1761 H 0.84767 0.46627 0.88059 0.0
H1762 H 0.80577 0.50534 0.93107 0.0
H1763 H 0.7849 0.4352 0.90763 0.0
C1764 C 0.78489 0.42166 0.93886 0.0
C1765 C 0.79264 0.42563 0.96111 0.0
C1766 C 0.81512 0.49702 0.91997 0.0
C1767 C 0.8006 0.45992 0.93398 0.0
C1768 C 0.82785 0.50911 0.9051 0.0
C1769 C 0.83965 0.49824 0.89039 0.0
C1770 C 0.81376 0.47398 0.91939 0.0
C1771 C 0.83884 0.47538 0.89153 0.0
C1772 C 0.7887 0.4389 0.92522 0.0
C1773 C 0.80081 0.44769 0.9699 0.0
N1774 N 0.8259 0.46399 0.90557 0.0
N1775 N 0.80546 0.46408 0.9561 0.0
H1776 H 0.00965 0.44275 0.11602 0.0
H1777 H 0.98213 0.55854 0.0921 0.0
H1778 H 0.05147 0.49527 0.08588 0.0
H1779 H 0.96269 0.52236 0.14797 0.0
H1780 H -0.00724 0.52568 0.07518 0.0
H1781 H 0.97871 0.46195 0.11115 0.0
C1782 C 0.01212 0.45776 0.10743 0.0
C1783 C 0.03346 0.46801 0.10222 0.0
C1784 C 0.98576 0.5248 0.09093 0.0
C1785 C -0.0018 0.48967 0.09657 0.0
C1786 C 0.98009 0.54362 0.10086 0.0
C1787 C 0.97271 0.54345 0.12207 0.0
C1788 C 0.98439 0.50576 0.1024 0.0
C1789 C 0.96916 0.52335 0.132 0.0
C1790 C -0.00559 0.46869 0.10476 0.0
C1791 C 0.03553 0.48715 0.09078 0.0
N1792 N 0.97565 0.50534 0.1223 0.0
N1793 N 0.01819 0.49771 0.0888 0.0
H1794 H 0.46304 0.22052 0.13129 0.0
H1795 H 0.59515 0.23354 0.13765 0.0
H1796 H 0.49765 0.16766 0.1449 0.0
H1797 H 0.56284 0.28987 0.13422 0.0
H1798 H 0.5592 0.20948 0.14047 0.0
H1799 H 0.49895 0.24667 0.13356 0.0
C1800 C 0.47817 0.21454 0.13545 0.0
C1801 C 0.4773 0.19189 0.13839 0.0
C1802 C 0.5599 0.22709 0.13909 0.0
C1803 C 0.51846 0.22157 0.14032 0.0
C1804 C 0.58047 0.2409 0.13734 0.0
C1805 C 0.58211 0.26385 0.13553 0.0
C1806 C 0.54061 0.23614 0.13895 0.0
C1807 C 0.5624 0.27227 0.13524 0.0
C1808 C 0.49865 0.22945 0.13658 0.0
C1809 C 0.4974 0.185 0.1434 0.0
N1810 N 0.54245 0.25841 0.1369 0.0
N1811 N 0.51714 0.1997 0.14393 0.0
H1812 H 0.74695 0.66114 0.3111 0.0
H1813 H 0.73357 0.77915 0.34149 0.0
H1814 H 0.77235 0.71476 0.27212 0.0
H1815 H 0.66933 0.7373 0.32019 0.0
H1816 H 0.75138 0.74873 0.32935 0.0
H1817 H 0.71921 0.68223 0.32368 0.0
C1818 C 0.74585 0.67671 0.3042 0.0
C1819 C 0.76197 0.68637 0.29065 0.0
C1820 C 0.73334 0.74616 0.32786 0.0
C1821 C 0.73138 0.71059 0.30562 0.0
C1822 C 0.72313 0.76339 0.33495 0.0
C1823 C 0.69994 0.76105 0.33125 0.0
C1824 C 0.7203 0.72637 0.31741 0.0
C1825 C 0.68732 0.74 0.32292 0.0
C1826 C 0.73033 0.68884 0.31169 0.0
C1827 C 0.76022 0.70683 0.28261 0.0
N1828 N 0.6977 0.72348 0.31581 0.0
N1829 N 0.74569 0.71862 0.29078 0.0
H1830 H 0.28787 0.04095 0.62477 0.0
H1831 H 0.17034 0.0173 0.67308 0.0
H1832 H 0.25709 0.09188 0.65419 0.0
H1833 H 0.196 0.96917 0.63279 0.0
H1834 H 0.20679 0.04199 0.67623 0.0
H1835 H 0.25932 0.01244 0.63747 0.0
C1836 C 0.27514 0.04609 0.63413 0.0
C1837 C 0.27441 0.0687 0.63811 0.0
C1838 C 0.20455 0.02589 0.66698 0.0
C1839 C 0.24177 0.03626 0.65257 0.0
C1840 C 0.18374 0.0118 0.66508 0.0
C1841 C 0.18 -0.00854 0.652 0.0
C1842 C 0.22166 0.01966 0.65561 0.0
C1843 C 0.19808 0.98488 0.64264 0.0
C1844 C 0.25896 0.02984 0.64147 0.0
C1845 C 0.25808 0.0746 0.65078 0.0
N1846 N 0.2181 -0.00082 0.64427 0.0
N1847 N 0.24205 0.05839 0.65725 0.0
H1848 H 0.42063 0.46444 0.3248 0.0
H1849 H 0.53922 0.46956 0.35588 0.0
H1850 H 0.45656 0.53263 0.33573 0.0
H1851 H 0.48806 0.43265 0.3914 0.0
H1852 H 0.51582 0.49672 0.34953 0.0
H1853 H 0.45144 0.45255 0.34464 0.0
C1854 C 0.43536 0.47681 0.33083 0.0
C1855 C 0.43612 0.49948 0.3288 0.0
C1856 C 0.51025 0.48328 0.35966 0.0
C1857 C 0.47084 0.48618 0.35222 0.0
C1858 C 0.5236 0.46772 0.36342 0.0
C1859 C 0.51453 0.44776 0.3724 0.0
C1860 C 0.4883 0.47864 0.36544 0.0
C1861 C 0.49497 0.44702 0.383 0.0
C1862 C 0.45262 0.47013 0.34259 0.0
C1863 C 0.45555 0.51495 0.33691 0.0
N1864 N 0.48184 0.46169 0.37827 0.0
N1865 N 0.47233 0.50801 0.34851 0.0
H1866 H 0.24559 0.81283 0.15094 0.0
H1867 H 0.32183 0.73362 0.16094 0.0
H1868 H 0.20436 0.74732 0.13451 0.0
H1869 H 0.26835 0.70891 0.20029 0.0
H1870 H 0.30137 0.7621 0.14895 0.0
H1871 H 0.27681 0.79522 0.16236 0.0
C1872 C 0.24326 0.79482 0.14903 0.0
C1873 C 0.22209 0.7815 0.14226 0.0
C1874 C 0.29468 0.75098 0.16091 0.0
C1875 C 0.25735 0.76168 0.15573 0.0
C1876 C 0.30645 0.73502 0.16805 0.0
C1877 C 0.29661 0.71889 0.18152 0.0
C1878 C 0.27308 0.75034 0.16725 0.0
C1879 C 0.27641 0.72103 0.18985 0.0
C1880 C 0.26104 0.78489 0.15568 0.0
C1881 C 0.22015 0.75829 0.13996 0.0
N1882 N 0.26493 0.73595 0.18198 0.0
N1883 N 0.23735 0.74912 0.14736 0.0
H1884 H 0.7915 -0.00219 0.30744 0.0
H1885 H 0.69979 0.91426 0.36427 0.0
H1886 H 0.76444 0.01435 0.36807 0.0
H1887 H 0.7299 0.89515 0.30635 0.0
H1888 H 0.71998 0.95261 0.36319 0.0
H1889 H 0.76544 0.96181 0.3036 0.0
C1890 C 0.78026 -0.00608 0.31994 0.0
C1891 C 0.78113 0.00876 0.3386 0.0
C1892 C 0.72203 0.94008 0.35057 0.0
C1893 C 0.7507 0.9679 0.33415 0.0
C1894 C 0.71029 0.91822 0.3511 0.0
C1895 C 0.71291 0.90157 0.33526 0.0
C1896 C 0.73661 0.94529 0.33411 0.0
C1897 C 0.72751 0.90748 0.319 0.0
C1898 C 0.76521 0.97342 0.31771 0.0
C1899 C 0.76497 0.00331 0.35363 0.0
N1900 N 0.73883 0.92882 0.31886 0.0
N1901 N 0.75072 0.98326 0.35125 0.0
H1902 H 0.92351 0.22109 0.87531 0.0
H1903 H 0.97354 0.29149 0.78779 0.0
H1904 H 0.89828 0.19919 0.80795 0.0
H1905 H 0.01306 0.27844 0.84472 0.0
H1906 H 0.94697 0.25687 0.79108 0.0
H1907 H 0.95597 0.24367 0.86247 0.0
C1908 C 0.92469 0.22111 0.85773 0.0
C1909 C 0.90817 0.20806 0.84267 0.0
C1910 C 0.96194 0.26118 0.80229 0.0
C1911 C 0.94568 0.23399 0.82786 0.0
C1912 C 0.97709 0.28091 0.80049 0.0
C1913 C -0.005 0.28822 0.81664 0.0
C1914 C 0.96479 0.24911 0.82047 0.0
C1915 C -0.00078 0.2737 0.83229 0.0
C1916 C 0.94348 0.23378 0.85044 0.0
C1917 C 0.91058 0.20913 0.82009 0.0
N1918 N 0.98377 0.25508 0.83427 0.0
N1919 N 0.92906 0.2221 0.81327 0.0
H1920 H 0.80053 0.98241 0.37056 0.0
H1921 H 0.81979 0.95806 0.49376 0.0
H1922 H 0.8516 0.02203 0.41692 0.0
H1923 H 0.77811 0.91399 0.44287 0.0
H1924 H 0.82048 0.98896 0.47033 0.0
H1925 H 0.78209 0.96535 0.40068 0.0
C1926 C 0.80773 0.98769 0.38721 0.0
C1927 C 0.82776 0.00337 0.39136 0.0
C1928 C 0.81043 0.97275 0.46465 0.0
C1929 C 0.8071 0.9834 0.42596 0.0
C1930 C 0.80983 0.95521 0.47809 0.0
C1931 C 0.79913 0.9336 0.4699 0.0
C1932 C 0.80027 0.96833 0.44308 0.0
C1933 C 0.7867 0.93049 0.44953 0.0
C1934 C 0.79713 0.97802 0.40442 0.0
C1935 C 0.83622 0.00987 0.41317 0.0
N1936 N 0.78795 0.94762 0.43658 0.0
N1937 N 0.82611 -0.00058 0.42975 0.0
H1938 H 0.96225 0.62113 0.22056 0.0
H1939 H 0.08715 0.63973 0.27332 0.0
H1940 H 0.01939 0.64735 0.18612 0.0
H1941 H 0.02868 0.60933 0.30366 0.0
H1942 H 0.06275 0.65131 0.24458 0.0
H1943 H 0.98626 0.62663 0.25473 0.0
C1944 C 0.97978 0.62839 0.22024 0.0
C1945 C -0.01104 0.63307 0.20039 0.0
C1946 C 0.05535 0.64237 0.25774 0.0
C1947 C 0.01665 0.63894 0.23929 0.0
C1948 C 0.06925 0.63574 0.27403 0.0
C1949 C 0.05984 0.62302 0.29041 0.0
C1950 C 0.03206 0.63636 0.25815 0.0
C1951 C 0.0366 0.61851 0.29089 0.0
C1952 C -0.00647 0.6315 0.23975 0.0
C1953 C 0.0117 0.64298 0.20102 0.0
N1954 N 0.02353 0.62499 0.2749 0.0
N1955 N 0.02491 0.64508 0.2201 0.0
H1956 H 0.34877 0.74887 0.87029 0.0
H1957 H 0.35571 0.77413 -7e-05 0.0
H1958 H 0.34182 0.69647 0.91429 0.0
H1959 H 0.34518 0.82231 0.95442 0.0
H1960 H 0.35008 0.7452 0.96929 0.0
H1961 H 0.34789 0.7758 0.9011 0.0
C1962 C 0.34718 0.74295 0.88648 0.0
C1963 C 0.34568 0.72024 0.88968 0.0
C1964 C 0.34855 0.76197 0.966 0.0
C1965 C 0.34459 0.75133 0.92526 0.0
C1966 C 0.35163 0.77845 0.98348 0.0
C1967 C 0.35059 0.80052 0.97966 0.0
C1968 C 0.34495 0.76774 0.94444 0.0
C1969 C 0.34565 0.80539 0.95807 0.0
C1970 C 0.34656 0.75842 0.90409 0.0
C1971 C 0.3436 0.71378 0.91111 0.0
N1972 N 0.3433 0.78917 0.94121 0.0
N1973 N 0.34322 0.72925 0.92811 0.0
H1974 H 0.15069 0.63189 0.02361 0.0
H1975 H 0.27947 0.63569 0.06258 0.0
H1976 H 0.20041 0.6248 0.97889 0.0
H1977 H 0.22726 0.63155 0.1066 0.0
H1978 H 0.25176 0.63593 0.03171 0.0
H1979 H 0.17977 0.63758 0.05446 0.0
C1980 C 0.16784 0.63225 0.02027 0.0
C1981 C 0.17326 0.62817 -0.00126 0.0
C1982 C 0.24639 0.63493 0.04815 0.0
C1983 C 0.20644 0.63384 0.03378 0.0
C1984 C 0.26221 0.63454 0.06574 0.0
C1985 C 0.25578 0.63325 0.08723 0.0
C1986 C 0.22395 0.63424 0.05208 0.0
C1987 C 0.23313 0.63247 0.09036 0.0
C1988 C 0.18439 0.63515 0.03785 0.0
C1989 C 0.19563 0.62807 -0.0047 0.0
N1990 N 0.21812 0.63298 0.07306 0.0
N1991 N 0.21135 0.63072 0.0126 0.0
H1992 H 0.34209 0.02097 0.73992 0.0
H1993 H 0.32739 0.89437 0.69499 0.0
H1994 H 0.31091 0.966 0.77473 0.0
H1995 H 0.36592 0.95104 0.66773 0.0
H1996 H 0.31126 0.92012 0.71856 0.0
H1997 H 0.33851 -0.00433 0.70682 0.0
C1998 C 0.33387 0.00372 0.74045 0.0
C1999 C 0.32773 -0.00462 0.76035 0.0
C2000 C 0.32303 0.92681 0.70716 0.0
C2001 C 0.32431 0.96622 0.72281 0.0
C2002 C 0.33232 0.91215 0.69387 0.0
C2003 C 0.34853 0.92062 0.67995 0.0
C2004 C 0.32986 0.94997 0.70618 0.0
C2005 C 0.35404 0.94377 0.67877 0.0
C2006 C 0.33199 0.9892 0.72158 0.0
C2007 C 0.31659 0.97301 0.7599 0.0
N2008 N 0.34488 0.95758 0.69182 0.0
N2009 N 0.31592 0.95897 0.74159 0.0
H2010 H 0.95731 0.12629 0.5565 0.0
H2011 H 0.06791 0.20152 0.53231 0.0
H2012 H -0.00061 0.17525 0.60311 0.0
H2013 H 0.0236 0.159 0.48219 0.0
H2014 H 0.03677 0.2018 0.55479 0.0
H2015 H 0.97488 0.14553 0.52643 0.0
C2016 C 0.96991 0.14135 0.5603 0.0
C2017 C 0.97738 0.14896 0.58212 0.0
C2018 C 0.03356 0.19292 0.5386 0.0
C2019 C -0.00251 0.17095 0.54829 0.0
C2020 C 0.05134 0.193 0.52574 0.0
C2021 C 0.04813 0.17998 0.50572 0.0
C2022 C 0.0129 0.17877 0.53173 0.0
C2023 C 0.02653 0.16909 0.49776 0.0
C2024 C 0.97989 0.15238 0.54324 0.0
C2025 C -0.00634 0.16851 0.58643 0.0
N2026 N 0.00975 0.16807 0.51115 0.0
N2027 N 0.00337 0.17867 0.56968 0.0
H2028 H 0.48547 0.81831 0.91815 0.0
H2029 H 0.40159 0.89759 0.94666 0.0
H2030 H 0.48767 0.88066 0.88901 0.0
H2031 H 0.41858 0.84979 -0.01012 0.0
H2032 H 0.43117 0.89081 0.92378 0.0
H2033 H 0.45828 0.82795 0.94223 0.0
C2034 C 0.48009 0.83395 0.91655 0.0
C2035 C 0.48888 0.84862 0.90123 0.0
C2036 C 0.42869 0.8821 0.93848 0.0
C2037 C 0.4576 0.8598 0.92911 0.0
C2038 C 0.41191 0.88603 0.95159 0.0
C2039 C 0.40786 0.87447 0.97038 0.0
C2040 C 0.44118 0.86606 0.94387 0.0
C2041 C 0.42148 0.85945 0.97587 0.0
C2042 C 0.46463 0.8395 0.9305 0.0
C2043 C 0.48112 0.86863 0.90014 0.0
N2044 N 0.43734 0.85546 0.96251 0.0
N2045 N 0.4659 0.87361 0.91385 0.0
H2046 H 0.72406 0.81552 0.37449 0.0
H2047 H 0.75744 0.82792 0.4979 0.0
H2048 H 0.68717 0.83624 0.42677 0.0
H2049 H 0.79965 0.81258 0.44801 0.0
H2050 H 0.72498 0.80954 0.47363 0.0
H2051 H 0.74439 0.79664 0.40093 0.0
C2052 C 0.72019 0.81591 0.39147 0.0
C2053 C 0.70508 0.8285 0.39892 0.0
C2054 C 0.74139 0.8096 0.46818 0.0
C2055 C 0.72735 0.80658 0.42882 0.0
C2056 C 0.75996 0.8201 0.48212 0.0
C2057 C 0.78108 0.82339 0.47417 0.0
C2058 C 0.74424 0.80352 0.44611 0.0
C2059 C 0.78345 0.81179 0.45415 0.0
C2060 C 0.73148 0.80491 0.40647 0.0
C2061 C 0.69977 0.82779 0.42076 0.0
N2062 N 0.76513 0.80317 0.44028 0.0
N2063 N 0.71112 0.81733 0.435 0.0
H2064 H 0.03937 0.49496 0.1921 0.0
H2065 H 0.11244 0.53625 0.3048 0.0
H2066 H 0.08169 0.45613 0.2238 0.0
H2067 H 0.07861 0.57629 0.26443 0.0
H2068 H 0.09224 0.50255 0.2822 0.0
H2069 H 0.04286 0.51936 0.22593 0.0
C2070 C 0.0486 0.49105 0.20657 0.0
C2071 C 0.0603 0.47367 0.20531 0.0
C2072 C 0.08895 0.51869 0.27859 0.0
C2073 C 0.06558 0.50218 0.24355 0.0
C2074 C 0.10044 0.53781 0.29145 0.0
C2075 C 0.09741 0.55889 0.28605 0.0
C2076 C 0.07429 0.5209 0.26049 0.0
C2077 C 0.08174 0.56028 0.26871 0.0
C2078 C 0.05088 0.50512 0.2258 0.0
C2079 C 0.07235 0.46939 0.22431 0.0
N2080 N 0.07092 0.54157 0.25645 0.0
N2081 N 0.07524 0.48398 0.24256 0.0
H2082 H 0.40012 0.89992 0.71562 0.0
H2083 H 0.5203 0.88405 0.74533 0.0
H2084 H 0.4358 0.86656 0.67014 0.0
H2085 H 0.49041 0.93186 0.78097 0.0
H2086 H 0.49381 0.88406 0.71356 0.0
H2087 H 0.43544 0.91719 0.73636 0.0
C2088 C 0.4155 0.89639 0.70996 0.0
C2089 C 0.41517 0.88157 0.69144 0.0
C2090 C 0.49356 0.89527 0.72796 0.0
C2091 C 0.45564 0.90113 0.71504 0.0
C2092 C 0.50891 0.89549 0.74597 0.0
C2093 C 0.5074 0.90798 0.76563 0.0
C2094 C 0.47631 0.90713 0.73007 0.0
C2095 C 0.49208 0.92211 0.76596 0.0
C2096 C 0.43569 0.90643 0.72163 0.0
C2097 C 0.43548 0.87786 0.68444 0.0
N2098 N 0.47666 0.92085 0.74864 0.0
N2099 N 0.45492 0.88722 0.69652 0.0
H2100 H 0.14946 0.29799 0.55526 0.0
H2101 H 0.16427 0.17752 0.5325 0.0
H2102 H 0.15954 0.25407 0.60533 0.0
H2103 H 0.15268 0.22156 0.48279 0.0
H2104 H 0.17962 0.20962 0.55812 0.0
H2105 H 0.16606 0.2756 0.52937 0.0
C2106 C 0.15522 0.28349 0.56072 0.0
C2107 C 0.15222 0.27705 0.58197 0.0
C2108 C 0.17443 0.21233 0.54141 0.0
C2109 C 0.17098 0.25123 0.55247 0.0
C2110 C 0.16571 0.19393 0.52661 0.0
C2111 C 0.15596 0.19689 0.5058 0.0
C2112 C 0.17287 0.23362 0.5354 0.0
C2113 C 0.15903 0.21851 0.49902 0.0
C2114 C 0.16497 0.2709 0.54605 0.0
C2115 C 0.16089 0.25895 0.58874 0.0
N2116 N 0.16652 0.23615 0.51407 0.0
N2117 N 0.16932 0.24618 0.57376 0.0
H2118 H 0.14999 0.49175 0.0579 0.0
H2119 H 0.06852 0.57094 0.02274 0.0
H2120 H 0.08268 0.48072 0.07686 0.0
H2121 H 0.12336 0.56008 0.98606 0.0
H2122 H 0.07348 0.53977 0.04445 0.0
H2123 H 0.14115 0.51913 0.03369 0.0
C2124 C 0.13331 0.49517 0.05714 0.0
C2125 C 0.11708 0.48407 0.06981 0.0
C2126 C 0.08411 0.54394 0.03134 0.0
C2127 C 0.10687 0.51568 0.04187 0.0
C2128 C 0.08126 0.56165 0.01894 0.0
C2129 C 0.09529 0.5678 0.0023 0.0
C2130 C 0.1015 0.53274 0.02745 0.0
C2131 C 0.11175 0.55547 -0.00177 0.0
C2132 C 0.12827 0.51078 0.04317 0.0
C2133 C 0.09582 0.48933 0.06796 0.0
N2134 N 0.11459 0.53873 0.0109 0.0
N2135 N 0.09131 0.50487 0.05435 0.0
H2136 H 0.00482 0.44414 0.86055 0.0
H2137 H 0.90214 0.45904 0.78148 0.0
H2138 H 0.94726 0.39224 0.83969 0.0
H2139 H 0.94417 0.51555 0.81925 0.0
H2140 H 0.92413 0.43459 0.79828 0.0
H2141 H 0.98503 0.47147 0.84577 0.0
C2142 C 0.98771 0.43856 0.85364 0.0
C2143 C 0.97811 0.4157 0.85016 0.0
C2144 C 0.92883 0.45239 0.80262 0.0
C2145 C 0.95589 0.44663 0.83287 0.0
C2146 C 0.91673 0.46636 0.79252 0.0
C2147 C 0.92133 0.48917 0.79923 0.0
C2148 C 0.94556 0.46144 0.81943 0.0
C2149 C 0.94022 0.49797 0.81371 0.0
C2150 C 0.97663 0.45414 0.84484 0.0
C2151 C 0.95569 0.40957 0.84188 0.0
N2152 N 0.95145 0.48396 0.82384 0.0
N2153 N 0.94556 0.42487 0.83275 0.0
H2154 H 0.51576 0.77945 0.84257 0.0
H2155 H 0.39218 0.7176 0.81246 0.0
H2156 H 0.47121 0.80038 0.79419 0.0
H2157 H 0.44037 0.6925 0.85325 0.0
H2158 H 0.42291 0.74322 0.79847 0.0
H2159 H 0.49152 0.74261 0.83919 0.0
C2160 C 0.50118 0.77615 0.83088 0.0
C2161 C 0.49497 0.79319 0.81936 0.0
C2162 C 0.42674 0.73179 0.81019 0.0
C2163 C 0.46693 0.75144 0.81572 0.0
C2164 C 0.4092 0.71727 0.81816 0.0
C2165 C 0.4138 0.70364 0.83456 0.0
C2166 C 0.44881 0.73256 0.81886 0.0
C2167 C 0.43611 0.70348 0.84123 0.0
C2168 C 0.48726 0.75513 0.82896 0.0
C2169 C 0.47611 0.7879 0.80409 0.0
N2170 N 0.45277 0.71799 0.83363 0.0
N2171 N 0.46241 0.76764 0.80312 0.0
H2172 H 0.32245 0.23587 0.66428 0.0
H2173 H 0.24569 0.31372 0.65944 0.0
H2174 H 0.27087 0.20661 0.70372 0.0
H2175 H 0.20391 0.24819 0.64507 0.0
H2176 H 0.27712 0.2961 0.67033 0.0
H2177 H 0.30124 0.26496 0.65619 0.0
C2178 C 0.30738 0.23639 0.67233 0.0
C2179 C 0.29823 0.21888 0.68462 0.0
C2180 C 0.26112 0.28577 0.66435 0.0
C2181 C 0.27383 0.25105 0.67473 0.0
C2182 C 0.24324 0.2957 0.658 0.0
C2183 C 0.22199 0.28239 0.65168 0.0
C2184 C 0.25739 0.26257 0.66469 0.0
C2185 C 0.21983 0.25916 0.65003 0.0
C2186 C 0.29518 0.25274 0.66742 0.0
C2187 C 0.27839 0.21987 0.69419 0.0
N2188 N 0.23715 0.25002 0.65708 0.0
N2189 N 0.26643 0.23522 0.6884 0.0
H2190 H 0.53086 0.58488 0.69048 0.0
H2191 H 0.54376 0.47783 0.61588 0.0
H2192 H 0.47441 0.53831 0.65751 0.0
H2193 H 0.59819 0.53198 0.63997 0.0
H2194 H 0.51756 0.4997 0.62923 0.0
H2195 H 0.55571 0.56278 0.67471 0.0
C2196 C 0.52372 0.5694 0.68067 0.0
C2197 C 0.50071 0.56335 0.67512 0.0
C2198 C 0.53522 0.50693 0.63123 0.0
C2199 C 0.52882 0.5388 0.65606 0.0
C2200 C 0.55019 0.49465 0.62325 0.0
C2201 C 0.57323 0.50269 0.62786 0.0
C2202 C 0.54352 0.52734 0.64358 0.0
C2203 C 0.58058 0.52479 0.63678 0.0
C2204 C 0.53787 0.55714 0.67118 0.0
C2205 C 0.49213 0.54336 0.66222 0.0
N2206 N 0.56576 0.53613 0.64502 0.0
N2207 N 0.50628 0.53194 0.65267 0.0
H2208 H 0.74261 0.15636 0.81163 0.0
H2209 H 0.66795 0.23439 0.81417 0.0
H2210 H 0.77204 0.20172 0.76628 0.0
H2211 H 0.73317 0.27684 0.81542 0.0
H2212 H 0.68454 0.20189 0.8046 0.0
H2213 H 0.71448 0.17931 0.81724 0.0
C2214 C 0.74227 0.17033 0.80181 0.0
C2215 C 0.75959 0.17731 0.78852 0.0
C2216 C 0.69509 0.21835 0.80732 0.0
C2217 C 0.72849 0.20381 0.79554 0.0
C2218 C 0.68576 0.23684 0.81293 0.0
C2219 C 0.69918 0.25843 0.81548 0.0
C2220 C 0.71776 0.22174 0.80381 0.0
C2221 C 0.72212 0.26063 0.81362 0.0
C2222 C 0.72646 0.18357 0.80528 0.0
C2223 C 0.75888 0.19585 0.77663 0.0
N2224 N 0.73056 0.24259 0.80743 0.0
N2225 N 0.74408 0.20894 0.78101 0.0
H2226 H 0.06384 0.7896 0.14084 0.0
H2227 H -0.00485 0.6645 0.14269 0.0
H2228 H 0.09364 0.73149 0.14255 0.0
H2229 H 0.9638 0.7209 0.13578 0.0
H2230 H 0.03154 0.68967 0.1472 0.0
H2231 H 0.02708 0.76546 0.1417 0.0
C2232 C 0.06268 0.7718 0.14113 0.0
C2233 C 0.08191 0.76261 0.14139 0.0
C2234 C 0.01669 0.69662 0.14508 0.0
C2235 C 0.03998 0.73495 0.14299 0.0
C2236 C -0.00414 0.68222 0.14297 0.0
C2237 C 0.9764 0.69058 0.13924 0.0
C2238 C 0.01807 0.71958 0.14328 0.0
C2239 C 0.97843 0.71375 0.13868 0.0
C2240 C 0.04171 0.75804 0.14186 0.0
C2241 C 0.07935 0.73942 0.14231 0.0
N2242 N -0.00112 0.72742 0.14051 0.0
N2243 N 0.05886 0.72646 0.14308 0.0
H2244 H 0.90493 0.90695 0.21219 0.0
H2245 H 0.02159 0.88218 0.23752 0.0
H2246 H 0.93596 0.87004 0.16532 0.0
H2247 H -0.00206 0.93431 0.27362 0.0
H2248 H -0.00462 0.88445 0.20626 0.0
H2249 H 0.9416 0.92286 0.23107 0.0
C2250 C 0.9196 0.90241 0.2058 0.0
C2251 C 0.91759 0.88701 0.18745 0.0
C2252 C -0.00352 0.89609 0.22062 0.0
C2253 C 0.95953 0.90492 0.20891 0.0
C2254 C 0.01171 0.89499 0.23835 0.0
C2255 C 0.0117 0.90799 0.25807 0.0
C2256 C 0.98078 0.90974 0.22312 0.0
C2257 C -0.00164 0.92404 0.25859 0.0
C2258 C 0.94055 0.91165 0.21639 0.0
C2259 C 0.93698 0.88189 0.17949 0.0
N2260 N 0.98284 0.92397 0.24161 0.0
N2261 N 0.95717 0.89047 0.19055 0.0
H2262 H 0.65616 0.79846 0.55442 0.0
H2263 H 0.6648 0.67581 0.53101 0.0
H2264 H 0.66416 0.75353 0.60407 0.0
H2265 H 0.65256 0.72027 0.48193 0.0
H2266 H 0.6819 0.7078 0.55628 0.0
H2267 H 0.67121 0.77497 0.52815 0.0
C2268 C 0.66128 0.7836 0.55974 0.0
C2269 C 0.65809 0.77719 0.58096 0.0
C2270 C 0.67613 0.71058 0.53976 0.0
C2271 C 0.67486 0.75007 0.55103 0.0
C2272 C 0.66636 0.69228 0.52522 0.0
C2273 C 0.65607 0.69547 0.50474 0.0
C2274 C 0.67515 0.73204 0.53383 0.0
C2275 C 0.65936 0.71709 0.49794 0.0
C2276 C 0.67008 0.77033 0.54485 0.0
C2277 C 0.66576 0.75847 0.58752 0.0
N2278 N 0.66798 0.73467 0.51276 0.0
N2279 N 0.67322 0.74509 0.57234 0.0
H2280 H 0.75475 0.31897 0.64662 0.0
H2281 H 0.68515 0.27625 0.72582 0.0
H2282 H 0.77713 0.36324 0.70538 0.0
H2283 H 0.67312 0.34303 0.73356 0.0
H2284 H 0.71018 0.28776 0.69733 0.0
H2285 H 0.71785 0.30941 0.65998 0.0
C2286 C 0.75187 0.32715 0.6621 0.0
C2287 C 0.76939 0.34158 0.67521 0.0
C2288 C 0.70123 0.2996 0.70459 0.0
C2289 C 0.7269 0.33092 0.69008 0.0
C2290 C 0.68666 0.29292 0.72053 0.0
C2291 C 0.67695 0.30867 0.73185 0.0
C2292 C 0.70651 0.32225 0.70064 0.0
C2293 C 0.68018 0.33037 0.72498 0.0
C2294 C 0.73075 0.32158 0.66961 0.0
C2295 C 0.76432 0.35181 0.6949 0.0
N2296 N 0.69548 0.33683 0.71051 0.0
N2297 N 0.74353 0.34611 0.70186 0.0
H2298 H 0.13874 0.71835 0.3145 0.0
H2299 H 0.20552 0.77168 0.22048 0.0
H2300 H 0.14513 0.68245 0.25284 0.0
H2301 H 0.15294 0.80393 0.24031 0.0
H2302 H 0.19487 0.74345 0.24614 0.0
H2303 H 0.15201 0.75371 0.2982 0.0
C2304 C 0.14243 0.71791 0.29744 0.0
C2305 C 0.14076 0.69739 0.28496 0.0
C2306 C 0.18628 0.75727 0.24553 0.0
C2307 C 0.15695 0.73738 0.26696 0.0
C2308 C 0.19266 0.77363 0.23128 0.0
C2309 C 0.18015 0.79017 0.2284 0.0
C2310 C 0.16744 0.75764 0.25709 0.0
C2311 C 0.16314 0.79155 0.24231 0.0
C2312 C 0.15018 0.73801 0.28833 0.0
C2313 C 0.14595 0.69778 0.26303 0.0
N2314 N 0.15686 0.77511 0.25581 0.0
N2315 N 0.15425 0.71742 0.25489 0.0
H2316 H 0.61277 0.46267 0.73618 0.0
H2317 H 0.57973 0.57483 0.76231 0.0
H2318 H 0.5566 0.48076 0.70094 0.0
H2319 H 0.61559 0.54482 0.81112 0.0
H2320 H 0.56655 0.53812 0.74243 0.0
H2321 H 0.6089 0.48821 0.76741 0.0
C2322 C 0.59893 0.47127 0.73551 0.0
C2323 C 0.58502 0.46979 0.71609 0.0
C2324 C 0.57685 0.53941 0.75777 0.0
C2325 C 0.58129 0.49993 0.75102 0.0
C2326 C 0.58453 0.56038 0.76897 0.0
C2327 C 0.59889 0.56272 0.78818 0.0
C2328 C 0.58417 0.52081 0.76553 0.0
C2329 C 0.60446 0.54357 0.79634 0.0
C2330 C 0.59683 0.48602 0.75323 0.0
C2331 C 0.56758 0.48147 0.71575 0.0
N2332 N 0.59748 0.52343 0.78471 0.0
N2333 N 0.56663 0.49666 0.73272 0.0
H2334 H 0.97914 0.37344 0.8798 0.0
H2335 H 0.91578 0.35216 -0.01135 0.0
H2336 H 0.98479 0.31929 0.91974 0.0
H2337 H 0.8949 0.3918 0.93876 0.0
H2338 H 0.94534 0.34435 0.96625 0.0
H2339 H 0.95123 0.38367 0.90295 0.0
C2340 C 0.97433 0.36348 0.89314 0.0
C2341 C 0.98432 0.34534 0.89751 0.0
C2342 C 0.93446 0.355 0.96033 0.0
C2343 C 0.95282 0.35743 0.92472 0.0
C2344 C 0.91784 0.35979 0.97332 0.0
C2345 C 0.90306 0.37292 0.96573 0.0
C2346 C 0.93639 0.36349 0.93963 0.0
C2347 C 0.90601 0.38167 0.94527 0.0
C2348 C 0.9585 0.36946 0.90653 0.0
C2349 C 0.9776 0.33337 0.91553 0.0
N2350 N 0.92229 0.37679 0.93294 0.0
N2351 N 0.96245 0.3397 0.92849 0.0
H2352 H 0.46059 0.62219 0.56059 0.0
H2353 H 0.56693 0.70069 0.5277 0.0
H2354 H 0.50624 0.6715 0.60407 0.0
H2355 H 0.52307 0.65221 0.4821 0.0
H2356 H 0.53702 0.69989 0.55194 0.0
H2357 H 0.47607 0.64041 0.52903 0.0
C2358 C 0.47363 0.63701 0.56343 0.0
C2359 C 0.48256 0.6451 0.58481 0.0
C2360 C 0.53358 0.68992 0.53632 0.0
C2361 C 0.5001 0.66606 0.5492 0.0
C2362 C 0.5506 0.69064 0.52242 0.0
C2363 C 0.5473 0.67628 0.50324 0.0
C2364 C 0.51371 0.67393 0.53132 0.0
C2365 C 0.52606 0.66338 0.49698 0.0
C2366 C 0.48237 0.64748 0.54551 0.0
C2367 C 0.49934 0.66437 0.5878 0.0
N2368 N 0.51016 0.6619 0.51139 0.0
N2369 N 0.50771 0.67405 0.5702 0.0
H2370 H 0.82659 0.16958 0.73909 0.0
H2371 H 0.87085 0.29139 0.70358 0.0
H2372 H 0.8806 0.21825 0.77356 0.0
H2373 H 0.8101 0.24886 0.67375 0.0
H2374 H 0.87957 0.26065 0.72295 0.0
H2375 H 0.82598 0.1938 0.70901 0.0
C2376 C 0.83891 0.18496 0.73999 0.0
C2377 C 0.85347 0.19209 0.75907 0.0
C2378 C 0.86436 0.25786 0.71212 0.0
C2379 C 0.85255 0.21994 0.72486 0.0
C2380 C 0.85926 0.27548 0.70112 0.0
C2381 C 0.83936 0.27286 0.6875 0.0
C2382 C 0.84935 0.23731 0.70988 0.0
C2383 C 0.82543 0.25166 0.68438 0.0
C2384 C 0.83833 0.19889 0.7229 0.0
C2385 C 0.86893 0.21221 0.75932 0.0
N2386 N 0.83048 0.23472 0.69585 0.0
N2387 N 0.86782 0.22555 0.74266 0.0
H2388 H 0.80349 0.97126 0.27031 0.0
H2389 H 0.8649 0.9588 0.16406 0.0
H2390 H 0.83916 0.0261 0.2382 0.0
H2391 H 0.82827 0.90287 0.19396 0.0
H2392 H 0.84695 0.98369 0.18553 0.0
H2393 H 0.80174 0.94705 0.23672 0.0
C2394 C 0.81023 0.97848 0.25595 0.0
C2395 C 0.82265 0.00044 0.2574 0.0
C2396 C 0.84265 0.96599 0.1874 0.0
C2397 C 0.82091 0.97275 0.21916 0.0
C2398 C 0.85317 0.95175 0.17535 0.0
C2399 C 0.84865 0.92879 0.17783 0.0
C2400 C 0.82782 0.95739 0.20253 0.0
C2401 C 0.83261 0.92054 0.19199 0.0
C2402 C 0.80936 0.96453 0.23679 0.0
C2403 C 0.83028 0.009 0.23809 0.0
N2404 N 0.82308 0.93492 0.20421 0.0
N2405 N 0.82993 -0.00506 0.21992 0.0
H2406 H 0.53009 0.62321 0.81731 0.0
H2407 H 0.516 0.67392 0.70448 0.0
H2408 H 0.58482 0.65068 0.7805 0.0
H2409 H 0.46216 0.64013 0.73907 0.0
H2410 H 0.54064 0.67856 0.73821 0.0
H2411 H 0.50549 0.64094 0.79492 0.0
C2412 C 0.53692 0.63298 0.8044 0.0
C2413 C 0.55932 0.63485 0.80015 0.0
C2414 C 0.52326 0.67074 0.73859 0.0
C2415 C 0.53118 0.65524 0.77441 0.0
C2416 C 0.50908 0.66821 0.71935 0.0
C2417 C 0.48729 0.65555 0.71874 0.0
C2418 C 0.51545 0.66063 0.75716 0.0
C2419 C 0.47911 0.64919 0.73862 0.0
C2420 C 0.52291 0.64333 0.7918 0.0
C2421 C 0.56752 0.64846 0.78392 0.0
N2422 N 0.4934 0.65121 0.75692 0.0
N2423 N 0.55329 0.65776 0.77122 0.0
H2424 H 0.86309 0.27779 -0.00095 0.0
H2425 H 0.81657 0.23437 0.87517 0.0
H2426 H 0.83623 0.31853 0.95379 0.0
H2427 H 0.85956 0.20164 0.91437 0.0
H2428 H 0.81807 0.26228 0.90583 0.0
H2429 H 0.85612 0.24686 0.97039 0.0
C2430 C 0.8553 0.28007 0.98315 0.0
C2431 C 0.84985 0.30066 0.97888 0.0
C2432 C 0.82702 0.24889 0.90785 0.0
C2433 C 0.84212 0.26536 0.94588 0.0
C2434 C 0.82622 0.23289 0.89034 0.0
C2435 C 0.83792 0.21545 0.89221 0.0
C2436 C 0.83961 0.24758 0.92755 0.0
C2437 C 0.84993 0.21442 0.91234 0.0
C2438 C 0.85144 0.26243 0.96679 0.0
C2439 C 0.84004 0.30278 0.95798 0.0
N2440 N 0.85054 0.23032 0.92922 0.0
N2441 N 0.83655 0.28536 0.94221 0.0
H2442 H 0.2311 0.67292 0.30196 0.0
H2443 H 0.26547 0.59679 0.21112 0.0
H2444 H 0.20528 0.60203 0.29428 0.0
H2445 H 0.31131 0.65647 0.23869 0.0
H2446 H 0.24593 0.59669 0.2445 0.0
H2447 H 0.26354 0.66686 0.28263 0.0
C2448 C 0.23267 0.65608 0.29687 0.0
C2449 C 0.21539 0.63799 0.29918 0.0
C2450 C 0.26064 0.60949 0.24355 0.0
C2451 C 0.25184 0.63095 0.27691 0.0
C2452 C 0.27182 0.60947 0.2245 0.0
C2453 C 0.28984 0.62677 0.22204 0.0
C2454 C 0.26709 0.62735 0.25991 0.0
C2455 C 0.2974 0.64284 0.23989 0.0
C2456 C 0.25108 0.65258 0.28579 0.0
C2457 C 0.21809 0.61646 0.29229 0.0
N2458 N 0.28557 0.64316 0.25782 0.0
N2459 N 0.23567 0.61357 0.28106 0.0
H2460 H 0.95858 0.03087 0.64973 0.0
H2461 H 0.06876 0.01052 0.59929 0.0
H2462 H 0.02412 0.07307 0.6607 0.0
H2463 H 0.01991 0.95464 0.61565 0.0
H2464 H 0.04311 0.03495 0.60736 0.0
H2465 H 0.97453 0.00317 0.62854 0.0
C2466 C 0.9764 0.03397 0.64833 0.0
C2467 C -0.00989 0.0543 0.65683 0.0
C2468 C 0.03781 0.01721 0.60861 0.0
C2469 C 0.0078 0.02373 0.63166 0.0
C2470 C 0.0523 0.00318 0.60365 0.0
C2471 C 0.04706 0.98086 0.60845 0.0
C2472 C 0.01816 0.00864 0.61815 0.0
C2473 C 0.02509 0.97211 0.61306 0.0
C2474 C 0.98529 0.01847 0.6358 0.0
C2475 C 0.01297 0.05767 0.65426 0.0
N2476 N 0.01163 0.98625 0.61886 0.0
N2477 N 0.02103 0.04272 0.64157 0.0
H2478 H 0.47011 0.72066 0.63194 0.0
H2479 H 0.60203 0.73281 0.64411 0.0
H2480 H 0.50364 0.66879 0.65159 0.0
H2481 H 0.57086 0.78985 0.6401 0.0
H2482 H 0.56559 0.7092 0.6459 0.0
H2483 H 0.50623 0.74664 0.63482 0.0
C2484 C 0.48498 0.7149 0.63753 0.0
C2485 C 0.48373 0.69258 0.64207 0.0
C2486 C 0.56666 0.72688 0.6446 0.0
C2487 C 0.52514 0.72198 0.64469 0.0
C2488 C 0.58752 0.74042 0.64344 0.0
C2489 C 0.58962 0.76344 0.64173 0.0
C2490 C 0.54756 0.73626 0.64393 0.0
C2491 C 0.57008 0.77219 0.64099 0.0
C2492 C 0.50559 0.72969 0.63903 0.0
C2493 C 0.50355 0.68592 0.64886 0.0
N2494 N 0.54986 0.75859 0.64203 0.0
N2495 N 0.52342 0.70046 0.64969 0.0
H2496 H 0.28255 0.53953 0.13591 0.0
H2497 H 0.15641 0.52422 0.16023 0.0
H2498 H 0.25134 0.59393 0.15592 0.0
H2499 H 0.1881 0.47034 0.13909 0.0
H2500 H 0.1928 0.54875 0.16708 0.0
H2501 H 0.25071 0.51318 0.14632 0.0
C2502 C 0.26907 0.54587 0.14297 0.0
C2503 C 0.26914 0.56875 0.14471 0.0
C2504 C 0.19183 0.53151 0.16116 0.0
C2505 C 0.23253 0.53885 0.15605 0.0
C2506 C 0.17103 0.51748 0.15706 0.0
C2507 C 0.16915 0.4953 0.14843 0.0
C2508 C 0.21092 0.5234 0.15641 0.0
C2509 C 0.18871 0.48742 0.14525 0.0
C2510 C 0.25092 0.53086 0.14888 0.0
C2511 C 0.25167 0.57632 0.15422 0.0
N2512 N 0.2088 0.50158 0.14894 0.0
N2513 N 0.23369 0.5613 0.1591 0.0
H2514 H 0.40335 0.9584 0.79182 0.0
H2515 H 0.51397 0.95171 0.86161 0.0
H2516 H 0.4451 0.0186 0.82359 0.0
H2517 H 0.45482 0.89956 0.85372 0.0
H2518 H 0.49187 0.97766 0.84772 0.0
H2519 H 0.42764 0.93663 0.80959 0.0
C2520 C 0.41824 0.96704 0.8018 0.0
C2521 C 0.42223 0.99019 0.80648 0.0
C2522 C 0.48371 0.96065 0.84953 0.0
C2523 C 0.44925 0.96554 0.82766 0.0
C2524 C 0.49618 0.94588 0.85779 0.0
C2525 C 0.48644 0.9231 0.85753 0.0
C2526 C 0.46154 0.9524 0.8413 0.0
C2527 C 0.46325 0.91673 0.85323 0.0
C2528 C 0.4317 0.95464 0.81242 0.0
C2529 C 0.4416 0.00072 0.81959 0.0
N2530 N 0.45168 0.93113 0.84445 0.0
N2531 N 0.4543 0.98822 0.83018 0.0
H2532 H 0.72713 0.39382 0.79257 0.0
H2533 H 0.777 0.50235 0.87258 0.0
H2534 H 0.70219 0.40843 0.85485 0.0
H2535 H 0.79376 0.49541 0.80544 0.0
H2536 H 0.74904 0.46839 0.86566 0.0
H2537 H 0.75123 0.43092 0.79633 0.0
C2538 C 0.72656 0.40498 0.80694 0.0
C2539 C 0.71249 0.39819 0.82336 0.0
C2540 C 0.75871 0.47427 0.85235 0.0
C2541 C 0.74011 0.44051 0.82784 0.0
C2542 C 0.77478 0.49379 0.85625 0.0
C2543 C 0.78816 0.50172 0.83961 0.0
C2544 C 0.75591 0.46229 0.83169 0.0
C2545 C 0.78433 0.48968 0.81889 0.0
C2546 C 0.74025 0.42616 0.80902 0.0
C2547 C 0.71234 0.41322 0.84159 0.0
N2548 N 0.76866 0.47042 0.81555 0.0
N2549 N 0.7261 0.43362 0.84344 0.0
H2550 H 0.01724 0.77786 0.33392 0.0
H2551 H 0.89431 0.71835 0.30479 0.0
H2552 H 0.97435 0.79743 0.28312 0.0
H2553 H 0.94185 0.69235 0.34553 0.0
H2554 H 0.92537 0.74193 0.28924 0.0
H2555 H -0.00655 0.74089 0.33042 0.0
C2556 C 0.00316 0.77424 0.32168 0.0
C2557 C -0.00288 0.79101 0.30964 0.0
C2558 C 0.92898 0.73072 0.30128 0.0
C2559 C 0.96949 0.7491 0.30586 0.0
C2560 C 0.91124 0.71738 0.31016 0.0
C2561 C 0.91561 0.70419 0.32703 0.0
C2562 C 0.95103 0.73079 0.30955 0.0
C2563 C 0.93781 0.70311 0.33322 0.0
C2564 C -0.01052 0.75311 0.31966 0.0
C2565 C 0.979 0.78522 0.29352 0.0
N2566 N 0.95469 0.71655 0.32476 0.0
N2567 N 0.96539 0.76491 0.29256 0.0
H2568 H 0.01167 0.16797 0.70255 0.0
H2569 H 0.02518 0.11974 0.81735 0.0
H2570 H 0.95823 0.12964 0.73448 0.0
H2571 H 0.07998 0.14908 0.78157 0.0
H2572 H -0.00022 0.13477 0.79303 0.0
H2573 H 0.03502 0.17366 0.7372 0.0
C2574 C 0.00457 0.16131 0.71699 0.0
C2575 C 0.98333 0.14738 0.71543 0.0
C2576 C 0.0174 0.13823 0.79063 0.0
C2577 C 0.01001 0.15372 0.75491 0.0
C2578 C 0.03187 0.12947 0.80437 0.0
C2579 C 0.05459 0.13271 0.801 0.0
C2580 C 0.02561 0.14993 0.77309 0.0
C2581 C 0.06253 0.14604 0.78449 0.0
C2582 C 0.01799 0.16451 0.73675 0.0
C2583 C 0.97481 0.13979 0.73478 0.0
N2584 N 0.04794 0.15381 0.77078 0.0
N2585 N -0.01159 0.14257 0.75364 0.0
H2586 H 0.299 0.22265 0.38793 0.0
H2587 H 0.38818 0.31411 0.45949 0.0
H2588 H 0.36669 0.21469 0.40165 0.0
H2589 H 0.32099 0.29956 0.47868 0.0
H2590 H 0.37936 0.28117 0.43324 0.0
H2591 H 0.30526 0.25335 0.41716 0.0
C2592 C 0.31505 0.2271 0.39742 0.0
C2593 C 0.33232 0.21598 0.39254 0.0
C2594 C 0.36647 0.28526 0.44304 0.0
C2595 C 0.33977 0.25155 0.42532 0.0
C2596 C 0.37139 0.30418 0.45789 0.0
C2597 C 0.35516 0.30985 0.47107 0.0
C2598 C 0.34504 0.27187 0.44101 0.0
C2599 C 0.3338 0.29615 0.46844 0.0
C2600 C 0.31859 0.24461 0.41402 0.0
C2601 C 0.35286 0.22257 0.40511 0.0
N2602 N 0.32927 0.27784 0.45355 0.0
N2603 N 0.35614 0.24018 0.42066 0.0
H2604 H 0.32401 0.45932 0.28931 0.0
H2605 H 0.35101 0.45042 0.16584 0.0
H2606 H 0.3462 0.51555 0.25211 0.0
H2607 H 0.32675 0.39326 0.20086 0.0
H2608 H 0.33999 0.47448 0.19454 0.0
H2609 H 0.31497 0.4354 0.25499 0.0
C2610 C 0.32645 0.46677 0.27391 0.0
C2611 C 0.33668 0.48931 0.27359 0.0
C2612 C 0.3367 0.45666 0.19589 0.0
C2613 C 0.32657 0.46202 0.2344 0.0
C2614 C 0.3431 0.44296 0.17955 0.0
C2615 C 0.34012 0.41997 0.18132 0.0
C2616 C 0.32782 0.44736 0.21446 0.0
C2617 C 0.32941 0.41098 0.19907 0.0
C2618 C 0.32133 0.45306 0.25431 0.0
C2619 C 0.33901 0.49812 0.25317 0.0
N2620 N 0.32407 0.42479 0.2153 0.0
N2621 N 0.33446 0.48435 0.23441 0.0
H2622 H 0.94769 0.62815 0.04524 0.0
H2623 H 0.05964 0.70102 0.02529 0.0
H2624 H 0.98623 0.6794 0.09197 0.0
H2625 H 0.01724 0.65818 0.97404 0.0
H2626 H 0.02715 0.70318 0.04536 0.0
H2627 H 0.96599 0.64704 0.01541 0.0
C2628 C 0.95949 0.64379 0.04904 0.0
C2629 C 0.96593 0.65212 0.07086 0.0
C2630 C 0.02468 0.69383 0.0294 0.0
C2631 C 0.9872 0.67346 0.03734 0.0
C2632 C 0.04326 0.69277 0.01794 0.0
C2633 C 0.04092 0.67916 -0.00168 0.0
C2634 C 0.00398 0.68022 0.02164 0.0
C2635 C 0.01952 0.6687 -0.01068 0.0
C2636 C 0.96997 0.65458 0.03211 0.0
C2637 C 0.9813 0.67228 0.07524 0.0
N2638 N 0.00186 0.66881 0.00143 0.0
N2639 N -0.00828 0.68208 0.05865 0.0
H2640 H 0.41825 0.35834 0.49066 0.0
H2641 H 0.50323 0.40014 0.40251 0.0
H2642 H 0.41189 0.41504 0.45468 0.0
H2643 H 0.48562 0.33208 0.4189 0.0
H2644 H 0.47553 0.41003 0.42649 0.0
H2645 H 0.45008 0.35349 0.47067 0.0
C2646 C 0.42405 0.37029 0.47913 0.0
C2647 C 0.41268 0.3874 0.47468 0.0
C2648 C 0.47776 0.39295 0.42467 0.0
C2649 C 0.44863 0.38136 0.45097 0.0
C2650 C 0.49328 0.38723 0.41073 0.0
C2651 C 0.4963 0.36515 0.40807 0.0
C2652 C 0.46567 0.37652 0.43644 0.0
C2653 C 0.48385 0.34931 0.42024 0.0
C2654 C 0.44199 0.36725 0.4674 0.0
C2655 C 0.42033 0.40172 0.45869 0.0
N2656 N 0.46916 0.35531 0.43385 0.0
N2657 N 0.43784 0.39836 0.44732 0.0
H2658 H 0.10634 0.04476 0.80681 0.0
H2659 H 0.0444 -0.00571 0.69069 0.0
H2660 H 0.07333 0.08058 0.76098 0.0
H2661 H 0.08941 0.96242 0.72812 0.0
H2662 H 0.04387 0.02012 0.7228 0.0
H2663 H 0.09045 0.00985 0.78423 0.0
C2664 C 0.09536 0.04517 0.79225 0.0
C2665 C 0.09135 0.06552 0.78552 0.0
C2666 C 0.05329 0.00703 0.72429 0.0
C2667 C 0.07321 0.0259 0.75973 0.0
C2668 C 0.05332 -0.00789 0.70606 0.0
C2669 C 0.06687 0.97627 0.70696 0.0
C2670 C 0.06737 0.00636 0.74327 0.0
C2671 C 0.07859 0.97436 0.72699 0.0
C2672 C 0.08636 0.0253 0.77937 0.0
C2673 C 0.07717 0.06525 0.76648 0.0
N2674 N 0.07899 0.98962 0.7443 0.0
N2675 N 0.06878 0.04579 0.75416 0.0
H2676 H 0.50927 0.39804 0.25141 0.0
H2677 H 0.38214 0.39747 0.21893 0.0
H2678 H 0.46773 0.43104 0.29056 0.0
H2679 H 0.42312 0.36828 0.17567 0.0
H2680 H 0.41544 0.4155 0.24221 0.0
H2681 H 0.48099 0.3937 0.22009 0.0
C2682 C 0.49465 0.40526 0.25307 0.0
C2683 C 0.49062 0.41473 0.27352 0.0
C2684 C 0.4173 0.40533 0.22755 0.0
C2685 C 0.45809 0.40927 0.23827 0.0
C2686 C 0.39823 0.39485 0.21436 0.0
C2687 C 0.39989 0.38102 0.19562 0.0
C2688 C 0.43826 0.40164 0.22226 0.0
C2689 C 0.42117 0.3787 0.19011 0.0
C2690 C 0.47838 0.40252 0.23532 0.0
C2691 C 0.47131 0.42349 0.27503 0.0
N2692 N 0.43956 0.38861 0.20361 0.0
N2693 N 0.45559 0.4202 0.25778 0.0
H2694 H 0.14929 0.71971 0.97892 0.0
H2695 H 0.16173 0.75344 0.10352 0.0
H2696 H 0.15923 0.67598 0.02936 0.0
H2697 H 0.14265 0.79134 0.05126 0.0
H2698 H 0.17853 0.73131 0.07684 0.0
H2699 H 0.16753 0.75145 0.00422 0.0
C2700 C 0.15592 0.71668 -0.00494 0.0
C2701 C 0.15131 0.69539 0.00264 0.0
C2702 C 0.17112 0.74484 0.07135 0.0
C2703 C 0.17127 0.73146 0.03173 0.0
C2704 C 0.16136 0.75721 0.0865 0.0
C2705 C 0.14989 0.77327 0.07917 0.0
C2706 C 0.16932 0.74882 0.04896 0.0
C2707 C 0.15038 0.7782 0.05721 0.0
C2708 C 0.16634 0.73483 0.00956 0.0
C2709 C 0.16127 0.69232 0.02329 0.0
N2710 N 0.15962 0.7658 0.04281 0.0
N2711 N 0.17002 0.7103 0.03753 0.0
H2712 H 0.939 0.01453 0.31795 0.0
H2713 H 0.95069 0.89246 0.34604 0.0
H2714 H 0.89136 0.95408 0.29617 0.0
H2715 H 0.00716 0.94763 0.35236 0.0
H2716 H 0.92657 0.91786 0.33593 0.0
H2717 H 0.9639 -0.00791 0.33414 0.0
C2718 C 0.93423 -0.0035 0.31577 0.0
C2719 C 0.91316 0.98602 0.30585 0.0
C2720 C 0.94422 0.92445 0.33982 0.0
C2721 C 0.9407 0.96062 0.32521 0.0
C2722 C 0.95796 0.91003 0.346 0.0
C2723 C 0.98111 0.91774 0.3488 0.0
C2724 C 0.9538 0.94662 0.33675 0.0
C2725 C -0.01054 0.94082 0.34938 0.0
C2726 C 0.94815 0.98378 0.32547 0.0
C2727 C 0.9075 0.9627 0.30379 0.0
N2728 N 0.97586 0.95444 0.34265 0.0
N2729 N 0.92104 0.95076 0.31376 0.0
H2730 H 0.49908 0.28993 0.33161 0.0
H2731 H 0.37092 0.23255 0.32611 0.0
H2732 H 0.44505 0.32562 0.33446 0.0
H2733 H 0.42488 0.19696 0.32814 0.0
H2734 H 0.39723 0.26629 0.31878 0.0
H2735 H 0.47174 0.25534 0.32204 0.0
C2736 C 0.48151 0.2905 0.33032 0.0
C2737 C 0.47435 0.31063 0.33423 0.0
C2738 C 0.4032 0.25094 0.32023 0.0
C2739 C 0.44305 0.27129 0.32292 0.0
C2740 C 0.38815 0.23173 0.32414 0.0
C2741 C 0.39606 0.21239 0.32804 0.0
C2742 C 0.42608 0.25049 0.32049 0.0
C2743 C 0.41842 0.21187 0.3255 0.0
C2744 C 0.46592 0.2708 0.32461 0.0
C2745 C 0.45138 0.31045 0.33189 0.0
N2746 N 0.43282 0.23083 0.3223 0.0
N2747 N 0.43655 0.29106 0.32656 0.0
H2748 H 0.55662 -0.00166 0.08705 0.0
H2749 H 0.45583 0.02848 0.14776 0.0
H2750 H 0.5125 0.94806 0.11759 0.0
H2751 H 0.52129 0.0691 0.14451 0.0
H2752 H 0.46733 -0.00198 0.12605 0.0
H2753 H 0.53051 0.02313 0.09158 0.0
C2754 C 0.54099 -0.0079 0.09381 0.0
C2755 C 0.53753 0.97197 0.10373 0.0
C2756 C 0.47899 0.0137 0.13016 0.0
C2757 C 0.50821 0.00012 0.10932 0.0
C2758 C 0.47273 0.03081 0.14299 0.0
C2759 C 0.48766 0.05135 0.14789 0.0
C2760 C 0.50005 0.01753 0.12201 0.0
C2761 C 0.5092 0.05362 0.141 0.0
C2762 C 0.52621 0.00635 0.09662 0.0
C2763 C 0.51644 0.96419 0.11108 0.0
N2764 N 0.51463 0.03703 0.12818 0.0
N2765 N 0.5029 0.97879 0.11486 0.0
H2766 H 0.06362 0.29371 0.64011 0.0
H2767 H -0.00243 0.16958 0.65182 0.0
H2768 H 0.0934 0.23566 0.6433 0.0
H2769 H 0.96388 0.22114 0.63161 0.0
H2770 H 0.03276 0.19634 0.65583 0.0
H2771 H 0.02676 0.26955 0.64148 0.0
C2772 C 0.06244 0.27596 0.64081 0.0
C2773 C 0.08171 0.26677 0.64153 0.0
C2774 C 0.01762 0.20197 0.65091 0.0
C2775 C 0.03986 0.23927 0.64384 0.0
C2776 C -0.00261 0.18673 0.64921 0.0
C2777 C 0.97766 0.19315 0.64185 0.0
C2778 C 0.01822 0.22382 0.64506 0.0
C2779 C 0.97875 0.21551 0.63741 0.0
C2780 C 0.04145 0.26222 0.64183 0.0
C2781 C 0.07914 0.24364 0.64283 0.0
N2782 N -0.00127 0.23003 0.6389 0.0
N2783 N 0.05873 0.23081 0.64405 0.0
H2784 H 0.63218 0.97467 0.04287 0.0
H2785 H 0.5782 0.08233 0.03113 0.0
H2786 H 0.60252 0.0047 0.09596 0.0
H2787 H 0.61975 0.059 0.98464 0.0
H2788 H 0.58201 0.05111 0.053 0.0
H2789 H 0.62294 0.00253 0.01937 0.0
C2790 C 0.62358 0.98709 0.04959 0.0
C2791 C 0.61797 0.98722 0.07144 0.0
C2792 C 0.58997 0.05261 0.0378 0.0
C2793 C 0.60728 0.01935 0.04443 0.0
C2794 C 0.58774 0.07037 0.02525 0.0
C2795 C 0.59825 0.073 0.00565 0.0
C2796 C 0.6029 0.0374 0.03077 0.0
C2797 C 0.61059 0.05715 -0.00101 0.0
C2798 C 0.61826 0.00299 0.0361 0.0
C2799 C 0.60668 0.00363 0.07912 0.0
N2800 N 0.61264 0.04012 0.01155 0.0
N2801 N 0.60177 0.01912 0.06565 0.0
H2802 H 0.19003 0.77658 0.73814 0.0
H2803 H 0.25658 0.81652 0.6557 0.0
H2804 H 0.1857 0.84539 0.75124 0.0
H2805 H 0.28376 0.86336 0.71155 0.0
H2806 H 0.22147 0.80756 0.67267 0.0
H2807 H 0.21393 0.78737 0.70845 0.0
C2808 C 0.19312 0.79371 0.73396 0.0
C2809 C 0.18571 0.8101 0.74682 0.0
C2810 C 0.23502 0.82008 0.68092 0.0
C2811 C 0.21379 0.82267 0.7141 0.0
C2812 C 0.25508 0.82538 0.67128 0.0
C2813 C 0.27342 0.84045 0.68246 0.0
C2814 C 0.23308 0.83032 0.70161 0.0
C2815 C 0.27024 0.85144 0.7025 0.0
C2816 C 0.20693 0.79993 0.71725 0.0
C2817 C 0.19092 0.83228 0.7414 0.0
N2818 N 0.25045 0.84605 0.71151 0.0
N2819 N 0.20528 0.83806 0.72595 0.0
H2820 H 0.62799 0.19126 0.25448 0.0
H2821 H 0.65193 0.31281 0.23533 0.0
H2822 H 0.64857 0.22952 0.31707 0.0
H2823 H 0.69816 0.27188 0.21647 0.0
H2824 H 0.63989 0.28722 0.2635 0.0
H2825 H 0.63956 0.22513 0.23603 0.0
C2826 C 0.63429 0.20683 0.26442 0.0
C2827 C 0.63771 0.20738 0.28739 0.0
C2828 C 0.65334 0.2845 0.25377 0.0
C2829 C 0.65087 0.24607 0.26623 0.0
C2830 C 0.66048 0.29924 0.23801 0.0
C2831 C 0.67622 0.29449 0.22376 0.0
C2832 C 0.66187 0.26497 0.25482 0.0
C2833 C 0.68618 0.27621 0.22731 0.0
C2834 C 0.64102 0.22608 0.25384 0.0
C2835 C 0.64591 0.22825 0.29931 0.0
N2836 N 0.67837 0.26173 0.24204 0.0
N2837 N 0.65259 0.24681 0.28856 0.0
H2838 H 0.2463 0.34037 0.36487 0.0
H2839 H 0.31341 0.32286 0.44373 0.0
H2840 H 0.19036 0.3028 0.39363 0.0
H2841 H 0.25726 0.33361 0.47868 0.0
H2842 H 0.28801 0.30255 0.41374 0.0
H2843 H 0.27148 0.32701 0.39105 0.0
C2844 C 0.23946 0.32852 0.37615 0.0
C2845 C 0.21653 0.32268 0.37744 0.0
C2846 C 0.28125 0.30865 0.4283 0.0
C2847 C 0.24479 0.30796 0.40777 0.0
C2848 C 0.29571 0.32014 0.44559 0.0
C2849 C 0.28742 0.33061 0.46346 0.0
C2850 C 0.25849 0.30861 0.42852 0.0
C2851 C 0.26435 0.32639 0.4649 0.0
C2852 C 0.25373 0.32073 0.39103 0.0
C2853 C 0.20815 0.30759 0.39242 0.0
N2854 N 0.25057 0.31632 0.44718 0.0
N2855 N 0.22232 0.30136 0.40767 0.0
H2856 H 0.30498 0.74696 0.67338 0.0
H2857 H 0.38295 0.71219 0.76659 0.0
H2858 H 0.3725 0.78144 0.69282 0.0
H2859 H 0.32239 0.66818 0.73842 0.0
H2860 H 0.38219 0.7341 0.73492 0.0
H2861 H 0.3127 0.71473 0.69235 0.0
C2862 C 0.32149 0.74753 0.68122 0.0
C2863 C 0.33795 0.76701 0.68211 0.0
C2864 C 0.3693 0.71934 0.73532 0.0
C2865 C 0.34692 0.73059 0.70365 0.0
C2866 C 0.36988 0.70674 0.75337 0.0
C2867 C 0.3526 0.68853 0.75527 0.0
C2868 C 0.35094 0.7141 0.71937 0.0
C2869 C 0.33603 0.68218 0.73764 0.0
C2870 C 0.32593 0.72921 0.69203 0.0
C2871 C 0.35915 0.76693 0.69231 0.0
N2872 N 0.33523 0.69533 0.72071 0.0
N2873 N 0.36291 0.7492 0.7029 0.0
H2874 H 0.65146 0.13696 0.02194 0.0
H2875 H 0.77915 0.1411 0.06472 0.0
H2876 H 0.70151 0.12469 0.97941 0.0
H2877 H 0.72604 0.13827 0.10751 0.0
H2878 H 0.75202 0.13973 0.03306 0.0
H2879 H 0.67989 0.1436 0.0534 0.0
C2880 C 0.66857 0.13634 0.01917 0.0
C2881 C 0.67426 0.13056 -0.00191 0.0
C2882 C 0.7463 0.13933 0.04939 0.0
C2883 C 0.70666 0.1374 0.03389 0.0
C2884 C 0.76178 0.13979 0.06744 0.0
C2885 C 0.75493 0.13928 0.0888 0.0
C2886 C 0.72374 0.13863 0.05272 0.0
C2887 C 0.73219 0.13854 0.09137 0.0
C2888 C 0.68472 0.13979 0.03712 0.0
C2889 C 0.69652 0.12926 -0.00457 0.0
N2890 N 0.71747 0.13824 0.0736 0.0
N2891 N 0.71186 0.13256 0.01309 0.0
H2892 H 0.73107 0.18649 0.3017 0.0
H2893 H 0.76697 0.10857 0.21435 0.0
H2894 H 0.70762 0.11529 0.29775 0.0
H2895 H 0.81185 0.1697 0.23966 0.0
H2896 H 0.74798 0.10909 0.24803 0.0
H2897 H 0.76387 0.18053 0.28294 0.0
C2898 C 0.73325 0.16965 0.29756 0.0
C2899 C 0.71656 0.15135 0.30074 0.0
C2900 C 0.76239 0.12208 0.24655 0.0
C2901 C 0.75339 0.1444 0.27916 0.0
C2902 C 0.77324 0.12171 0.22733 0.0
C2903 C 0.79078 0.13922 0.22416 0.0
C2904 C 0.76864 0.1405 0.26229 0.0
C2905 C 0.79829 0.1559 0.24146 0.0
C2906 C 0.75188 0.16621 0.28683 0.0
C2907 C 0.72 0.12982 0.29507 0.0
N2908 N 0.78672 0.15654 0.25954 0.0
N2909 N 0.73777 0.12693 0.28413 0.0
H2910 H 0.28154 0.43132 0.4505 0.0
H2911 H 0.37467 0.5046 0.42073 0.0
H2912 H 0.32747 0.46205 0.50556 0.0
H2913 H 0.31332 0.52456 0.40063 0.0
H2914 H 0.35771 0.48986 0.45319 0.0
H2915 H 0.28911 0.46625 0.43284 0.0
C2916 C 0.29219 0.44586 0.4594 0.0
C2917 C 0.30401 0.444 0.47934 0.0
C2918 C 0.34824 0.49815 0.44199 0.0
C2919 C 0.31376 0.48309 0.45887 0.0
C2920 C 0.35782 0.50629 0.42346 0.0
C2921 C 0.34517 0.51543 0.40803 0.0
C2922 C 0.32568 0.49836 0.44436 0.0
C2923 C 0.32342 0.51734 0.41211 0.0
C2924 C 0.29664 0.46572 0.44931 0.0
C2925 C 0.31808 0.46305 0.49011 0.0
N2926 N 0.31399 0.50814 0.42957 0.0
N2927 N 0.32344 0.48162 0.47925 0.0
H2928 H 0.24503 0.65513 0.81388 0.0
H2929 H 0.16504 0.73184 0.8183 0.0
H2930 H 0.27155 0.70908 0.77575 0.0
H2931 H 0.23004 0.77126 0.84105 0.0
H2932 H 0.18286 0.70064 0.80728 0.0
H2933 H 0.2157 0.67522 0.82418 0.0
C2934 C 0.24391 0.67054 0.80666 0.0
C2935 C 0.26071 0.6806 0.79402 0.0
C2936 C 0.19296 0.716 0.81521 0.0
C2937 C 0.2282 0.70367 0.80635 0.0
C2938 C 0.18291 0.73376 0.82161 0.0
C2939 C 0.19613 0.75444 0.83017 0.0
C2940 C 0.21624 0.71922 0.81722 0.0
C2941 C 0.21917 0.75586 0.8342 0.0
C2942 C 0.22742 0.68209 0.81282 0.0
C2943 C 0.2589 0.70085 0.78555 0.0
N2944 N 0.22854 0.73873 0.82707 0.0
N2945 N 0.24341 0.71209 0.79247 0.0
H2946 H 0.65731 0.02901 0.16357 0.0
H2947 H 0.7858 0.04901 0.14788 0.0
H2948 H 0.69225 0.97744 0.14302 0.0
H2949 H 0.74975 0.10171 0.15957 0.0
H2950 H 0.75426 0.02209 0.15815 0.0
H2951 H 0.6928 0.05455 0.17275 0.0
C2952 C 0.67246 0.02299 0.16098 0.0
C2953 C 0.67178 0.00118 0.15185 0.0
C2954 C 0.75338 0.03958 0.15902 0.0
C2955 C 0.71253 0.03046 0.1626 0.0
C2956 C 0.77137 0.05492 0.15327 0.0
C2957 C 0.76994 0.07735 0.15249 0.0
C2958 C 0.73373 0.04677 0.1635 0.0
C2959 C 0.75123 0.08443 0.15982 0.0
C2960 C 0.69273 0.03759 0.16645 0.0
C2961 C 0.69197 -0.00577 0.14954 0.0
N2962 N 0.73349 0.06901 0.16452 0.0
N2963 N 0.71157 0.00897 0.15458 0.0
H2964 H 0.79804 0.73193 0.70309 0.0
H2965 H 0.72137 0.76326 0.62207 0.0
H2966 H 0.8204 0.73056 0.638 0.0
H2967 H 0.74941 0.8172 0.67138 0.0
H2968 H 0.75568 0.74854 0.62753 0.0
H2969 H 0.77918 0.76243 0.69423 0.0
C2970 C 0.80004 0.73895 0.68742 0.0
C2971 C 0.81096 0.72908 0.67133 0.0
C2972 C 0.75441 0.76396 0.63663 0.0
C2973 C 0.78835 0.76244 0.66066 0.0
C2974 C 0.73489 0.7723 0.63357 0.0
C2975 C 0.7324 0.7913 0.64644 0.0
C2976 C 0.77104 0.77432 0.6531 0.0
C2977 C 0.75051 0.80239 0.66117 0.0
C2978 C 0.78907 0.75607 0.68226 0.0
C2979 C 0.81235 0.73809 0.65089 0.0
N2980 N 0.76878 0.79332 0.66466 0.0
N2981 N 0.80036 0.7537 0.64577 0.0
H2982 H 0.25985 0.01467 0.85028 0.0
H2983 H 0.2474 0.88323 0.83894 0.0
H2984 H 0.3108 0.98109 0.82836 0.0
H2985 H 0.18978 0.91386 0.83955 0.0
H2986 H 0.27096 0.91967 0.83742 0.0
H2987 H 0.23366 0.97868 0.84756 0.0
C2988 C 0.26533 -0.00022 0.8443 0.0
C2989 C 0.28743 0.00088 0.83914 0.0
C2990 C 0.25316 0.91848 0.83791 0.0
C2991 C 0.25789 0.95973 0.83672 0.0
C2992 C 0.23964 0.89764 0.83892 0.0
C2993 C 0.21648 0.89539 0.8395 0.0
C2994 C 0.24361 0.93742 0.83763 0.0
C2995 C 0.20754 0.91479 0.83952 0.0
C2996 C 0.25044 0.97928 0.84287 0.0
C2997 C 0.29381 0.98112 0.83183 0.0
N2998 N 0.22115 0.93505 0.83863 0.0
N2999 N 0.2792 0.96133 0.83112 0.0
H3000 H 0.31023 0.9519 -0.0062 0.0
H3001 H 0.32209 0.0253 0.90553 0.0
H3002 H 0.28244 0.90555 0.93805 0.0
H3003 H 0.3491 0.96768 0.88637 0.0
H3004 H 0.30281 0.00461 0.93386 0.0
H3005 H 0.3152 0.98223 0.96936 0.0
C3006 C 0.30389 0.94836 0.97668 0.0
C3007 C 0.29644 0.92629 0.96765 0.0
C3008 C 0.31323 -0.00319 0.92353 0.0
C3009 C 0.30245 0.96031 0.94003 0.0
C3010 C 0.32472 0.00872 0.90778 0.0
C3011 C 0.33792 -0.00151 0.89408 0.0
C3012 C 0.31446 0.97442 0.92478 0.0
C3013 C 0.33931 0.97631 0.89668 0.0
C3014 C 0.30686 0.96561 0.96277 0.0
C3015 C 0.28865 0.92239 0.94542 0.0
N3016 N 0.32751 0.96495 0.91155 0.0
N3017 N 0.29267 0.93916 0.93212 0.0
H3018 H 0.67823 0.58475 0.49955 0.0
H3019 H 0.75246 0.67116 0.58934 0.0
H3020 H 0.67774 0.65489 0.49856 0.0
H3021 H 0.77117 0.61013 0.56584 0.0
H3022 H 0.72321 0.66573 0.55883 0.0
H3023 H 0.70973 0.59354 0.52711 0.0
C3024 C 0.68467 0.60209 0.5052 0.0
C3025 C 0.67522 0.61918 0.49669 0.0
C3026 C 0.73397 0.65375 0.56016 0.0
C3027 C 0.7115 0.62928 0.52859 0.0
C3028 C 0.7506 0.65679 0.57752 0.0
C3029 C 0.76428 0.64108 0.57997 0.0
C3030 C 0.73066 0.63458 0.54552 0.0
C3031 C 0.76122 0.62277 0.56432 0.0
C3032 C 0.70278 0.60706 0.52091 0.0
C3033 C 0.68423 0.64124 0.50496 0.0
N3034 N 0.7445 0.61985 0.54793 0.0
N3035 N 0.70189 0.64571 0.52058 0.0
H3036 H 0.25611 0.8242 -5e-05 0.0
H3037 H 0.2216 0.81095 0.87554 0.0
H3038 H 0.29806 0.80807 0.95011 0.0
H3039 H 0.18642 0.83474 0.92778 0.0
H3040 H 0.24227 0.79296 0.90258 0.0
H3041 H 0.22347 0.80747 0.97514 0.0
C3042 C 0.25851 0.81651 0.98406 0.0
C3043 C 0.27972 0.81911 0.97636 0.0
C3044 C 0.22965 0.80171 0.90798 0.0
C3045 C 0.24271 0.80105 0.94772 0.0
C3046 C 0.21816 0.81219 0.89264 0.0
C3047 C 0.20336 0.8253 0.89982 0.0
C3048 C 0.22596 0.80433 0.93039 0.0
C3049 C 0.19867 0.82575 0.92187 0.0
C3050 C 0.23984 0.807 0.96981 0.0
C3051 C 0.28187 0.80776 0.95613 0.0
N3052 N 0.21014 0.81571 0.93641 0.0
N3053 N 0.26351 0.80008 0.942 0.0
H3054 H 0.62716 0.55622 0.48103 0.0
H3055 H 0.60741 0.49541 0.59199 0.0
H3056 H 0.58186 0.57261 0.5273 0.0
H3057 H 0.6629 0.4917 0.55335 0.0
H3058 H 0.5955 0.52128 0.56717 0.0
H3059 H 0.63686 0.52844 0.50492 0.0
C3060 C 0.61873 0.55349 0.49584 0.0
C3061 C 0.60357 0.56666 0.50209 0.0
C3062 C 0.61038 0.5149 0.56424 0.0
C3063 C 0.61505 0.53538 0.52987 0.0
C3064 C 0.61734 0.50029 0.5786 0.0
C3065 C 0.63628 0.49132 0.57497 0.0
C3066 C 0.62226 0.52043 0.54591 0.0
C3067 C 0.6482 0.49809 0.55695 0.0
C3068 C 0.62456 0.5379 0.50969 0.0
C3069 C 0.59362 0.56279 0.52183 0.0
N3070 N 0.64091 0.51203 0.54307 0.0
N3071 N 0.59959 0.54762 0.53504 0.0
H3072 H 0.70973 0.25866 0.12179 0.0
H3073 H 0.82198 0.24007 0.15287 0.0
H3074 H 0.74398 0.32173 0.15517 0.0
H3075 H 0.77253 0.2251 0.19912 0.0
H3076 H 0.80248 0.2685 0.13907 0.0
H3077 H 0.74236 0.24286 0.13179 0.0
C3078 C 0.72432 0.26941 0.13051 0.0
C3079 C 0.72384 0.29137 0.13819 0.0
C3080 C 0.79662 0.25965 0.15291 0.0
C3081 C 0.76088 0.27335 0.14959 0.0
C3082 C 0.80785 0.24373 0.16103 0.0
C3083 C 0.79879 0.23035 0.17719 0.0
C3084 C 0.77651 0.26207 0.16128 0.0
C3085 C 0.78005 0.2352 0.18675 0.0
C3086 C 0.74286 0.26037 0.13622 0.0
C3087 C 0.74343 0.30457 0.14929 0.0
N3088 N 0.76917 0.25033 0.17827 0.0
N3089 N 0.76097 0.29513 0.15535 0.0
H3090 H 0.16513 0.23632 0.31975 0.0
H3091 H 0.25314 0.17982 0.25986 0.0
H3092 H 0.22207 0.26985 0.28912 0.0
H3093 H 0.23121 0.15792 0.3214 0.0
H3094 H 0.2258 0.20389 0.25908 0.0
H3095 H 0.17681 0.20053 0.31144 0.0
C3096 C 0.18011 0.23613 0.31145 0.0
C3097 C 0.19298 0.25604 0.30552 0.0
C3098 C 0.22626 0.19301 0.27224 0.0
C3099 C 0.20532 0.21551 0.29482 0.0
C3100 C 0.24153 0.17897 0.27246 0.0
C3101 C 0.24447 0.16719 0.29083 0.0
C3102 C 0.21404 0.19511 0.29053 0.0
C3103 C 0.22936 0.16693 0.307 0.0
C3104 C 0.18652 0.2158 0.3065 0.0
C3105 C 0.21199 0.25498 0.29445 0.0
N3106 N 0.21514 0.18135 0.30688 0.0
N3107 N 0.21748 0.23504 0.28933 0.0
H3108 H 0.16119 0.34928 0.23401 0.0
H3109 H 0.26634 0.37347 0.20009 0.0
H3110 H 0.17538 0.28392 0.22073 0.0
H3111 H 0.24263 0.32225 0.14704 0.0
H3112 H 0.2288 0.36666 0.21299 0.0
H3113 H 0.1859 0.36325 0.20616 0.0
C3114 C 0.1683 0.33751 0.22416 0.0
C3115 C 0.16645 0.31544 0.2298 0.0
C3116 C 0.23176 0.35745 0.19812 0.0
C3117 C 0.19491 0.33136 0.19841 0.0
C3118 C 0.25319 0.36127 0.19083 0.0
C3119 C 0.25783 0.34823 0.17267 0.0
C3120 C 0.21511 0.34013 0.18749 0.0
C3121 C 0.24002 0.33257 0.1613 0.0
C3122 C 0.18279 0.34564 0.20867 0.0
C3123 C 0.17634 0.30101 0.21685 0.0
N3124 N 0.21969 0.32844 0.16932 0.0
N3125 N 0.19061 0.30934 0.20204 0.0
H3126 H 0.62559 0.69007 0.75782 0.0
H3127 H 0.65645 0.81085 0.74086 0.0
H3128 H 0.65055 0.72437 0.82142 0.0
H3129 H 0.70294 0.76905 0.72526 0.0
H3130 H 0.64184 0.78512 0.76801 0.0
H3131 H 0.63822 0.72479 0.74092 0.0
C3132 C 0.63302 0.70499 0.76834 0.0
C3133 C 0.63741 0.70412 0.79105 0.0
C3134 C 0.65589 0.78224 0.75928 0.0
C3135 C 0.6518 0.7437 0.77172 0.0
C3136 C 0.66449 0.79705 0.74412 0.0
C3137 C 0.68108 0.79212 0.73103 0.0
C3138 C 0.66395 0.76252 0.761 0.0
C3139 C 0.69035 0.77354 0.73524 0.0
C3140 C 0.64032 0.72471 0.75865 0.0
C3141 C 0.64714 0.72417 0.80379 0.0
N3142 N 0.68124 0.75905 0.74943 0.0
N3143 N 0.65448 0.74313 0.7939 0.0
H3144 H 0.31742 0.25083 0.1576 0.0
H3145 H 0.36024 0.22469 0.27448 0.0
H3146 H 0.30721 0.28558 0.21863 0.0
H3147 H 0.31591 0.1692 0.23714 0.0
H3148 H 0.3553 0.24785 0.24438 0.0
H3149 H 0.32719 0.22053 0.17868 0.0
C3150 C 0.31663 0.25181 0.17526 0.0
C3151 C 0.31168 0.27082 0.18644 0.0
C3152 C 0.34725 0.23038 0.24254 0.0
C3153 C 0.32371 0.2372 0.21026 0.0
C3154 C 0.35017 0.21712 0.25961 0.0
C3155 C 0.33802 0.19517 0.25854 0.0
C3156 C 0.33219 0.22162 0.22428 0.0
C3157 C 0.32537 0.18616 0.23872 0.0
C3158 C 0.32247 0.23473 0.1872 0.0
C3159 C 0.3112 0.27141 0.20935 0.0
N3160 N 0.32224 0.19964 0.22248 0.0
N3161 N 0.31756 0.25511 0.22049 0.0
H3162 H 0.69844 0.60713 0.78237 0.0
H3163 H 0.81104 0.66295 0.73386 0.0
H3164 H 0.73036 0.6759 0.79922 0.0
H3165 H 0.76302 0.60666 0.70248 0.0
H3166 H 0.78915 0.66229 0.76592 0.0
H3167 H 0.72982 0.60168 0.76196 0.0
C3168 C 0.71229 0.62105 0.782 0.0
C3169 C 0.71163 0.64215 0.79203 0.0
C3170 C 0.78379 0.64975 0.75224 0.0
C3171 C 0.74756 0.63601 0.76847 0.0
C3172 C 0.79636 0.64992 0.73405 0.0
C3173 C 0.78868 0.63491 0.71544 0.0
C3174 C 0.76369 0.6342 0.75188 0.0
C3175 C 0.76941 0.6186 0.71644 0.0
C3176 C 0.73018 0.6179 0.77036 0.0
C3177 C 0.73019 0.65945 0.79149 0.0
N3178 N 0.75748 0.61881 0.73426 0.0
N3179 N 0.74733 0.65612 0.77946 0.0
H3180 H 0.7013 0.46707 0.61793 0.0
H3181 H 0.78579 0.57665 0.66738 0.0
H3182 H 0.69901 0.48963 0.6859 0.0
H3183 H 0.74706 0.56695 0.6045 0.0
H3184 H 0.76413 0.54081 0.67711 0.0
H3185 H 0.73298 0.49751 0.61558 0.0
C3186 C 0.70821 0.47766 0.63268 0.0
C3187 C 0.69723 0.47638 0.65192 0.0
C3188 C 0.76044 0.54681 0.6613 0.0
C3189 C 0.73265 0.51137 0.64915 0.0
C3190 C 0.77234 0.56735 0.65595 0.0
C3191 C 0.76824 0.57454 0.63504 0.0
C3192 C 0.74494 0.53358 0.64538 0.0
C3193 C 0.75088 0.56183 0.62069 0.0
C3194 C 0.726 0.49527 0.63123 0.0
C3195 C 0.70684 0.4906 0.67059 0.0
N3196 N 0.74017 0.54177 0.62595 0.0
N3197 N 0.7237 0.5081 0.6686 0.0
H3198 H 0.3026 0.49374 0.30944 0.0
H3199 H 0.20895 0.40505 0.35905 0.0
H3200 H 0.27743 0.50285 0.37282 0.0
H3201 H 0.23154 0.39375 0.29497 0.0
H3202 H 0.23355 0.4417 0.3635 0.0
H3203 H 0.27669 0.45742 0.30291 0.0
C3204 C 0.29181 0.4881 0.32199 0.0
C3205 C 0.29244 0.50133 0.34177 0.0
C3206 C 0.23304 0.43134 0.34834 0.0
C3207 C 0.26256 0.46014 0.33435 0.0
C3208 C 0.21869 0.41052 0.34572 0.0
C3209 C 0.21774 0.3966 0.32644 0.0
C3210 C 0.24675 0.43827 0.33162 0.0
C3211 C 0.23171 0.40405 0.3101 0.0
C3212 C 0.2769 0.46747 0.31822 0.0
C3213 C 0.2776 0.4934 0.35725 0.0
N3214 N 0.24564 0.4244 0.31303 0.0
N3215 N 0.26341 0.47342 0.35323 0.0
H3216 H 0.09475 0.91473 0.41184 0.0
H3217 H 0.059 0.03027 0.39596 0.0
H3218 H 0.06031 0.93153 0.35339 0.0
H3219 H 0.0966 0.01732 0.45438 0.0
H3220 H 0.05048 0.99053 0.38482 0.0
H3221 H 0.09052 0.95007 0.43075 0.0
C3222 C 0.0867 0.92605 0.40291 0.0
C3223 C 0.07797 0.92039 0.38104 0.0
C3224 C 0.0603 -0.00366 0.40028 0.0
C3225 C 0.07225 0.95997 0.40256 0.0
C3226 C 0.06497 0.01902 0.40674 0.0
C3227 C 0.07954 0.02713 0.42546 0.0
C3228 C 0.07057 0.98199 0.41252 0.0
C3229 C 0.08611 0.01178 0.43925 0.0
C3230 C 0.08384 0.9459 0.41379 0.0
C3231 C 0.06716 0.93522 0.37028 0.0
N3232 N 0.08221 0.98989 0.43212 0.0
N3233 N 0.0646 0.95432 0.38115 0.0
H3234 H 0.03584 0.31415 0.60827 0.0
H3235 H 0.96217 0.40291 0.64318 0.0
H3236 H 0.06325 0.37788 0.64416 0.0
H3237 H 0.93907 0.34643 0.59544 0.0
H3238 H -0.00209 0.39114 0.64867 0.0
H3239 H -0.00142 0.32247 0.60933 0.0
C3240 C 0.03402 0.32972 0.61669 0.0
C3241 C 0.05276 0.34552 0.62578 0.0
C3242 C 0.98499 0.38134 0.63701 0.0
C3243 C 0.01021 0.3552 0.62686 0.0
C3244 C 0.96463 0.38807 0.63384 0.0
C3245 C 0.94769 0.37574 0.6187 0.0
C3246 C -0.01161 0.3621 0.62502 0.0
C3247 C 0.95175 0.3566 0.60708 0.0
C3248 C 0.01275 0.33453 0.61715 0.0
C3249 C 0.04933 0.36535 0.63662 0.0
N3250 N 0.97168 0.35038 0.61048 0.0
N3251 N 0.02849 0.36973 0.63666 0.0
H3252 H 0.59508 0.2831 0.87918 0.0
H3253 H 0.62067 0.16054 0.86507 0.0
H3254 H 0.62738 0.26002 0.82425 0.0
H3255 H 0.61337 0.19342 0.92805 0.0
H3256 H 0.61745 0.19458 0.84785 0.0
H3257 H 0.59443 0.24729 0.89469 0.0
C3258 C 0.60152 0.27032 0.87008 0.0
C3259 C 0.61139 0.27459 0.85041 0.0
C3260 C 0.61651 0.1943 0.86544 0.0
C3261 C 0.61097 0.23378 0.86825 0.0
C3262 C 0.6184 0.17488 0.87534 0.0
C3263 C 0.61707 0.17393 0.8981 0.0
C3264 C 0.61299 0.2129 0.87829 0.0
C3265 C 0.61424 0.19318 0.91048 0.0
C3266 C 0.60141 0.25002 0.87911 0.0
C3267 C 0.61973 0.25747 0.83951 0.0
N3268 N 0.61212 0.21181 0.90038 0.0
N3269 N 0.61942 0.23786 0.84862 0.0
H3270 H 0.70087 0.88772 0.145 0.0
H3271 H 0.8082 0.89877 0.07713 0.0
H3272 H 0.72486 0.94466 0.10928 0.0
H3273 H 0.7822 0.84119 0.11094 0.0
H3274 H 0.77685 0.91533 0.08723 0.0
H3275 H 0.7325 0.87184 0.13497 0.0
C3276 C 0.71312 0.89723 0.13559 0.0
C3277 C 0.70976 0.91721 0.12735 0.0
C3278 C 0.77777 0.89888 0.09208 0.0
C3279 C 0.74557 0.89878 0.11523 0.0
C3280 C 0.79535 0.88917 0.08581 0.0
C3281 C 0.7978 0.86867 0.09338 0.0
C3282 C 0.76268 0.88791 0.10591 0.0
C3283 C 0.78088 0.8571 0.1049 0.0
C3284 C 0.73097 0.88793 0.12952 0.0
C3285 C 0.72645 0.92895 0.1156 0.0
N3286 N 0.76424 0.86707 0.1112 0.0
N3287 N 0.7434 0.9193 0.10945 0.0
H3288 H 0.15171 0.19424 0.87009 0.0
H3289 H 0.04622 0.25026 0.85908 0.0
H3290 H 0.09163 0.17286 0.90185 0.0
H3291 H 0.11191 0.28626 0.84828 0.0
H3292 H 0.06248 0.21898 0.8695 0.0
H3293 H 0.13846 0.2278 0.86074 0.0
C3294 C 0.13619 0.19715 0.87596 0.0
C3295 C 0.1226 0.18074 0.88655 0.0
C3296 C 0.07329 0.23369 0.86469 0.0
C3297 C 0.10694 0.21821 0.87496 0.0
C3298 C 0.06398 0.25141 0.85833 0.0
C3299 C 0.0778 0.27122 0.85345 0.0
C3300 C 0.0965 0.23566 0.86585 0.0
C3301 C 0.10065 0.27149 0.85233 0.0
C3302 C 0.12845 0.21603 0.87023 0.0
C3303 C 0.1026 0.18513 0.89368 0.0
N3304 N 0.10938 0.25408 0.85887 0.0
N3305 N 0.09505 0.20321 0.88722 0.0
H3306 H 0.81377 0.36543 0.10546 0.0
H3307 H 0.69007 0.38692 0.08368 0.0
H3308 H 0.78143 0.36507 0.04037 0.0
H3309 H 0.71412 0.36319 0.14369 0.0
H3310 H 0.72642 0.38703 0.06938 0.0
H3311 H 0.77959 0.37086 0.12105 0.0
C3312 C 0.79952 0.36648 0.09438 0.0
C3313 C 0.80069 0.365 0.07147 0.0
C3314 C 0.72381 0.38215 0.08582 0.0
C3315 C 0.76149 0.37164 0.0894 0.0
C3316 C 0.70322 0.38245 0.09413 0.0
C3317 C 0.69911 0.37502 0.1149 0.0
C3318 C 0.74041 0.37464 0.0985 0.0
C3319 C 0.71661 0.36896 0.12757 0.0
C3320 C 0.78001 0.36967 0.10335 0.0
C3321 C 0.78153 0.36638 0.05806 0.0
N3322 N 0.73645 0.36877 0.11912 0.0
N3323 N 0.76277 0.36978 0.06723 0.0
H3324 H 0.63711 0.04506 0.38515 0.0
H3325 H 0.60925 0.91933 0.3331 0.0
H3326 H 0.5863 0.02027 0.33192 0.0
H3327 H 0.6683 0.9467 0.37652 0.0
H3328 H 0.60176 0.95674 0.33111 0.0
H3329 H 0.64939 0.00944 0.38187 0.0
C3330 C 0.6285 0.03213 0.37283 0.0
C3331 C 0.61056 0.03559 0.35889 0.0
C3332 C 0.61651 0.95463 0.34087 0.0
C3333 C 0.62462 -0.00504 0.35494 0.0
C3334 C 0.62081 0.93327 0.34197 0.0
C3335 C 0.63923 0.92987 0.35525 0.0
C3336 C 0.63055 0.9727 0.35338 0.0
C3337 C 0.65381 0.94856 0.36619 0.0
C3338 C 0.63564 0.01188 0.37084 0.0
C3339 C 0.60019 0.01835 0.34305 0.0
N3340 N 0.64895 0.96917 0.36531 0.0
N3341 N 0.60729 -0.00124 0.3416 0.0
H3342 H 0.9631 0.8699 0.51899 0.0
H3343 H 0.04451 0.90192 0.62715 0.0
H3344 H 0.95172 0.91281 0.57423 0.0
H3345 H 0.06506 0.87302 0.56776 0.0
H3346 H 0.00955 0.90467 0.60738 0.0
H3347 H 0.0014 0.87297 0.53434 0.0
C3348 C 0.96883 0.88057 0.53397 0.0
C3349 C 0.95395 0.89026 0.54597 0.0
C3350 C 0.02158 0.89756 0.59863 0.0
C3351 C -0.00266 0.89339 0.56364 0.0
C3352 C 0.04134 0.89565 0.61001 0.0
C3353 C 0.05752 0.88731 0.59896 0.0
C3354 C 0.01797 0.89091 0.57606 0.0
C3355 C 0.05273 0.87927 0.57683 0.0
C3356 C -0.00936 0.88209 0.54283 0.0
C3357 C 0.96243 0.90438 0.56489 0.0
N3358 N 0.03331 0.88142 0.56594 0.0
N3359 N 0.98348 0.90503 0.57351 0.0
H3360 H 0.38302 0.08016 0.04817 0.0
H3361 H 0.40312 0.10463 0.92602 0.0
H3362 H 0.42267 0.14041 0.02804 0.0
H3363 H 0.35431 0.05015 0.9452 0.0
H3364 H 0.42078 0.11025 0.96343 0.0
H3365 H 0.38251 0.0624 0.01121 0.0
C3366 C 0.39167 0.08962 0.03596 0.0
C3367 C 0.40224 0.11201 0.04082 0.0
C3368 C 0.40644 0.09682 0.95935 0.0
C3369 C 0.40192 0.09179 -0.00118 0.0
C3370 C 0.39626 0.09371 0.93807 0.0
C3371 C 0.37661 0.07764 0.93291 0.0
C3372 C 0.39663 0.084 0.97549 0.0
C3373 C 0.36898 0.06328 0.94877 0.0
C3374 C 0.3916 0.07939 0.01499 0.0
C3375 C 0.41391 0.12326 0.02475 0.0
N3376 N 0.37872 0.06717 0.9696 0.0
N3377 N 0.41311 0.11312 0.00428 0.0
H3378 H 0.84558 0.6031 0.17344 0.0
H3379 H 0.88709 0.59455 0.29848 0.0
H3380 H 0.91458 0.60694 0.19626 0.0
H3381 H 0.82287 0.60722 0.27634 0.0
H3382 H 0.89479 0.58809 0.25995 0.0
H3383 H 0.83493 0.59429 0.20982 0.0
C3384 C 0.85853 0.60198 0.18606 0.0
C3385 C 0.88108 0.60622 0.18187 0.0
C3386 C 0.87878 0.59168 0.26357 0.0
C3387 C 0.86889 0.59603 0.22367 0.0
C3388 C 0.87429 0.59506 0.2855 0.0
C3389 C 0.85437 0.60146 0.2904 0.0
C3390 C 0.86313 0.59463 0.24667 0.0
C3391 C 0.83846 0.6024 0.27311 0.0
C3392 C 0.85239 0.59686 0.20684 0.0
C3393 C 0.89702 0.60411 0.19883 0.0
N3394 N 0.84328 0.59928 0.252 0.0
N3395 N 0.89064 0.59941 0.2191 0.0
H3396 H 0.36085 0.19014 0.44145 0.0
H3397 H 0.36334 0.16462 0.547 0.0
H3398 H 0.32041 0.12363 0.43134 0.0
H3399 H 0.29937 0.12061 0.53013 0.0
H3400 H 0.36112 0.17851 0.51087 0.0
H3401 H 0.35017 0.19291 0.47903 0.0
C3402 C 0.34957 0.17619 0.44705 0.0
C3403 C 0.34231 0.15618 0.43365 0.0
C3404 C 0.34715 0.16643 0.51529 0.0
C3405 C 0.3304 0.1592 0.47647 0.0
C3406 C 0.3486 0.15823 0.53585 0.0
C3407 C 0.33189 0.1409 0.54124 0.0
C3408 C 0.32896 0.15701 0.50005 0.0
C3409 C 0.31292 0.1336 0.52642 0.0
C3410 C 0.34357 0.17779 0.46851 0.0
C3411 C 0.3271 0.13901 0.44144 0.0
N3412 N 0.31225 0.14127 0.50622 0.0
N3413 N 0.32195 0.14076 0.46254 0.0
H3414 H 0.88464 0.59113 0.67079 0.0
H3415 H 0.8712 0.63241 0.79477 0.0
H3416 H 0.87514 0.65701 0.69118 0.0
H3417 H 0.86304 0.56355 0.76968 0.0
H3418 H 0.882 0.6437 0.75889 0.0
H3419 H 0.8883 0.58337 0.70951 0.0
C3420 C 0.88424 0.60423 0.68348 0.0
C3421 C 0.87929 0.62458 0.678 0.0
C3422 C 0.87805 0.62611 0.76139 0.0
C3423 C 0.88276 0.61576 0.72188 0.0
C3424 C 0.87169 0.61964 0.78178 0.0
C3425 C 0.86609 0.59693 0.78526 0.0
C3426 C 0.87887 0.60976 0.74441 0.0
C3427 C 0.86724 0.58118 0.76785 0.0
C3428 C 0.88598 0.59973 0.70551 0.0
C3429 C 0.87861 0.64098 0.6949 0.0
N3430 N 0.87344 0.58788 0.74818 0.0
N3431 N 0.87992 0.6361 0.71615 0.0
H3432 H 0.4166 0.10843 0.19997 0.0
H3433 H 0.31963 0.10729 0.27836 0.0
H3434 H 0.34812 0.10669 0.17676 0.0
H3435 H 0.38463 0.09676 0.30075 0.0
H3436 H 0.32856 0.10218 0.24042 0.0
H3437 H 0.4047 0.10044 0.23629 0.0
C3438 C 0.39906 0.10626 0.20244 0.0
C3439 C 0.38339 0.10854 0.18531 0.0
C3440 C 0.34075 0.10048 0.25355 0.0
C3441 C 0.36964 0.09929 0.22687 0.0
C3442 C 0.33559 0.1033 0.2752 0.0
C3443 C 0.3515 0.10259 0.29257 0.0
C3444 C 0.36219 0.09744 0.24928 0.0
C3445 C 0.37191 0.09732 0.28771 0.0
C3446 C 0.39226 0.10155 0.22317 0.0
C3447 C 0.36085 0.10533 0.18949 0.0
N3448 N 0.3769 0.09542 0.26644 0.0
N3449 N 0.3547 0.1011 0.20988 0.0
H3450 H 0.81592 0.63019 0.42366 0.0
H3451 H 0.86168 0.66385 0.54392 0.0
H3452 H 0.86907 0.68707 0.4429 0.0
H3453 H 0.79716 0.62136 0.52574 0.0
H3454 H 0.86043 0.67845 0.50797 0.0
H3455 H 0.80391 0.63229 0.46069 0.0
C3456 C 0.82486 0.64332 0.43563 0.0
C3457 C 0.84402 0.65792 0.43058 0.0
C3458 C 0.84632 0.66625 0.51197 0.0
C3459 C 0.83058 0.66032 0.47287 0.0
C3460 C 0.84715 0.65776 0.53242 0.0
C3461 C 0.82994 0.64072 0.53739 0.0
C3462 C 0.82841 0.65721 0.4963 0.0
C3463 C 0.81113 0.63401 0.52227 0.0
C3464 C 0.8179 0.64465 0.45672 0.0
C3465 C 0.85457 0.67508 0.44637 0.0
N3466 N 0.81111 0.64187 0.50213 0.0
N3467 N 0.84804 0.67547 0.46705 0.0
H3468 H 0.38731 0.09364 0.67575 0.0
H3469 H 0.36891 0.13292 0.79896 0.0
H3470 H 0.37255 0.15761 0.69537 0.0
H3471 H 0.36535 0.06463 0.7741 0.0
H3472 H 0.37982 0.1449 0.76334 0.0
H3473 H 0.39093 0.08616 0.71455 0.0
C3474 C 0.38569 0.10643 0.68831 0.0
C3475 C 0.37931 0.12608 0.68258 0.0
C3476 C 0.37685 0.1273 0.76584 0.0
C3477 C 0.38277 0.11755 0.72653 0.0
C3478 C 0.37047 0.12043 0.78609 0.0
C3479 C 0.36605 0.09767 0.78953 0.0
C3480 C 0.37894 0.11131 0.74898 0.0
C3481 C 0.36854 0.08229 0.77228 0.0
C3482 C 0.38744 0.10207 0.71038 0.0
C3483 C 0.3771 0.14208 0.69929 0.0
N3484 N 0.37474 0.08938 0.75275 0.0
N3485 N 0.37847 0.13733 0.72058 0.0
H3486 H 0.91594 0.65407 0.02757 0.0
H3487 H 0.8622 0.55223 0.94218 0.0
H3488 H 0.87543 0.59257 0.04406 0.0
H3489 H 0.90212 0.61366 0.92478 0.0
H3490 H 0.87547 0.56286 0.98059 0.0
H3491 H 0.91817 0.63651 -0.00901 0.0
C3492 C 0.90746 0.63691 0.02343 0.0
C3493 C 0.89506 0.6249 0.03859 0.0
C3494 C 0.88163 0.57385 0.96832 0.0
C3495 C 0.89765 0.60471 -0.00292 0.0
C3496 C 0.87408 0.56776 0.94639 0.0
C3497 C 0.88029 0.5826 0.9305 0.0
C3498 C 0.89517 0.59497 0.97422 0.0
C3499 C 0.89624 0.60215 0.9367 0.0
C3500 C 0.90891 0.62683 0.00268 0.0
C3501 C 0.88468 0.60263 0.03263 0.0
N3502 N 0.90273 0.60807 0.95823 0.0
N3503 N 0.88605 0.59331 0.01223 0.0
H3504 H 0.94683 0.41162 0.08066 0.0
H3505 H 0.06141 0.37165 0.06711 0.0
H3506 H 0.95946 0.3757 0.02115 0.0
H3507 H 0.03941 0.39364 0.12866 0.0
H3508 H 0.02549 0.37466 0.04851 0.0
H3509 H 0.98414 0.4108 0.09608 0.0
C3510 C 0.95767 0.40418 0.07053 0.0
C3511 C 0.94969 0.39288 0.04995 0.0
C3512 C 0.02841 0.37843 0.06615 0.0
C3513 C -0.0077 0.39166 0.06764 0.0
C3514 C 0.04862 0.37618 0.0768 0.0
C3515 C 0.05315 0.3824 0.09936 0.0
C3516 C 0.01298 0.38707 0.0783 0.0
C3517 C 0.03643 0.38879 0.1112 0.0
C3518 C 0.97892 0.40345 0.07949 0.0
C3519 C 0.96472 0.38403 0.03739 0.0
N3520 N 0.01716 0.39129 0.10046 0.0
N3521 N 0.98524 0.38314 0.04665 0.0
H3522 H 0.55759 0.36883 0.1443 0.0
H3523 H 0.43104 0.34118 0.0955 0.0
H3524 H 0.52947 0.31127 0.0993 0.0
H3525 H 0.45573 0.39005 0.15032 0.0
H3526 H 0.46653 0.32894 0.09791 0.0
H3527 H 0.52011 0.37537 0.14863 0.0
C3528 C 0.54348 0.35737 0.13556 0.0
C3529 C 0.54668 0.33967 0.12114 0.0
C3530 C 0.46416 0.34223 0.10952 0.0
C3531 C 0.50373 0.34727 0.1258 0.0
C3532 C 0.44392 0.34935 0.10807 0.0
C3533 C 0.44047 0.3669 0.12255 0.0
C3534 C 0.48125 0.35286 0.12541 0.0
C3535 C 0.45769 0.37659 0.1387 0.0
C3536 C 0.52208 0.36113 0.13804 0.0
C3537 C 0.52779 0.3252 0.11047 0.0
N3538 N 0.47742 0.36959 0.13955 0.0
N3539 N 0.50713 0.32954 0.11273 0.0
H3540 H 0.62401 0.76358 0.32963 0.0
H3541 H 0.61842 0.6927 0.43356 0.0
H3542 H 0.59764 0.78443 0.3893 0.0
H3543 H 0.6212 0.66381 0.36767 0.0
H3544 H 0.61337 0.72741 0.41839 0.0
H3545 H 0.62437 0.72727 0.34352 0.0
C3546 C 0.61778 0.76029 0.34544 0.0
C3547 C 0.61071 0.77699 0.3583 0.0
C3548 C 0.61498 0.71339 0.4073 0.0
C3549 C 0.61175 0.73575 0.37463 0.0
C3550 C 0.61797 0.69356 0.41596 0.0
C3551 C 0.61993 0.67508 0.40191 0.0
C3552 C 0.61437 0.71489 0.38447 0.0
C3553 C 0.61961 0.67749 0.37921 0.0
C3554 C 0.61812 0.73962 0.35343 0.0
C3555 C 0.60297 0.77193 0.37875 0.0
N3556 N 0.61692 0.69698 0.37124 0.0
N3557 N 0.60404 0.75185 0.38647 0.0
H3558 H 0.22694 0.93655 0.61131 0.0
H3559 H 0.2844 0.83072 0.60835 0.0
H3560 H 0.19768 0.87384 0.63539 0.0
H3561 H 0.30933 0.89082 0.57784 0.0
H3562 H 0.25185 0.84562 0.61755 0.0
H3563 H 0.25881 0.92084 0.60167 0.0
C3564 C 0.22744 0.91967 0.61514 0.0
C3565 C 0.20924 0.90631 0.62362 0.0
C3566 C 0.26416 0.85537 0.6084 0.0
C3567 C 0.24544 0.88809 0.61205 0.0
C3568 C 0.2825 0.84667 0.60275 0.0
C3569 C 0.29957 0.85963 0.59243 0.0
C3570 C 0.26299 0.87718 0.60369 0.0
C3571 C 0.29648 0.88025 0.58571 0.0
C3572 C 0.2455 0.9106 0.60925 0.0
C3573 C 0.21109 0.88467 0.6285 0.0
N3574 N 0.27873 0.88862 0.59187 0.0
N3575 N 0.22868 0.8761 0.62228 0.0
H3576 H 0.58475 0.43287 0.33444 0.0
H3577 H 0.60206 0.51329 0.44468 0.0
H3578 H 0.60881 0.41441 0.39697 0.0
H3579 H 0.57398 0.52912 0.38237 0.0
H3580 H 0.60296 0.47626 0.42824 0.0
H3581 H 0.58339 0.46957 0.35155 0.0
C3582 C 0.59067 0.437 0.35162 0.0
C3583 C 0.59683 0.42082 0.36444 0.0
C3584 C 0.59635 0.48776 0.41826 0.0
C3585 C 0.59431 0.46205 0.38431 0.0
C3586 C 0.59547 0.5088 0.42771 0.0
C3587 C 0.58877 0.52461 0.41461 0.0
C3588 C 0.59034 0.48262 0.39569 0.0
C3589 C 0.57991 0.51767 0.39292 0.0
C3590 C 0.5894 0.4577 0.3615 0.0
C3591 C 0.60418 0.42667 0.3866 0.0
N3592 N 0.58145 0.4973 0.38396 0.0
N3593 N 0.6023 0.44679 0.39603 0.0
H3594 H 0.19404 0.88348 0.08889 0.0
H3595 H 0.31733 0.86052 0.10937 0.0
H3596 H 0.21715 0.85613 0.14719 0.0
H3597 H 0.28565 0.86324 0.04458 0.0
H3598 H 0.28295 0.86509 0.12509 0.0
H3599 H 0.23044 0.88394 0.07455 0.0
C3600 C 0.20698 0.87821 0.09896 0.0
C3601 C 0.20259 0.86973 0.11926 0.0
C3602 C 0.28357 0.86476 0.10743 0.0
C3603 C 0.24397 0.86983 0.1028 0.0
C3604 C 0.30319 0.86207 0.09838 0.0
C3605 C 0.30459 0.86169 0.07553 0.0
C3606 C 0.26517 0.86734 0.09363 0.0
C3607 C 0.28556 0.8637 0.06224 0.0
C3608 C 0.2276 0.87816 0.09062 0.0
C3609 C 0.21984 0.86272 0.13143 0.0
N3610 N 0.26669 0.86658 0.0715 0.0
N3611 N 0.23972 0.86282 0.12298 0.0
H3612 H 0.86927 0.0384 0.6354 0.0
H3613 H 0.8967 0.94715 0.54659 0.0
H3614 H 0.9115 0.05682 0.58373 0.0
H3615 H 0.84079 0.93496 0.58586 0.0
H3616 H 0.90555 0.98634 0.56238 0.0
H3617 H 0.86033 -5e-05 0.61878 0.0
C3618 C 0.87608 0.03447 0.6201 0.0
C3619 C 0.89067 0.05103 0.61065 0.0
C3620 C 0.89153 0.97498 0.56774 0.0
C3621 C 0.88152 0.00647 0.59205 0.0
C3622 C 0.88674 0.95251 0.55905 0.0
C3623 C 0.8682 0.93761 0.56521 0.0
C3624 C 0.87778 0.98256 0.58285 0.0
C3625 C 0.85542 0.94574 0.58086 0.0
C3626 C 0.87124 0.0124 0.61076 0.0
C3627 C 0.89967 0.04474 0.59123 0.0
N3628 N 0.86042 0.9675 0.58909 0.0
N3629 N 0.89519 0.02295 0.58272 0.0
H3630 H 0.93986 0.63868 0.42043 0.0
H3631 H 0.01623 0.55337 0.3858 0.0
H3632 H 0.91676 0.5798 0.37577 0.0
H3633 H 0.04176 0.61964 0.41657 0.0
H3634 H 0.97837 0.55779 0.39184 0.0
H3635 H 0.97503 0.62683 0.42816 0.0
C3636 C 0.94203 0.62301 0.41247 0.0
C3637 C 0.92539 0.61041 0.39706 0.0
C3638 C -0.00775 0.57116 0.3978 0.0
C3639 C 0.96596 0.59677 0.40593 0.0
C3640 C 0.01391 0.56858 0.39459 0.0
C3641 C 0.03219 0.58625 0.40056 0.0
C3642 C -0.01127 0.5916 0.40702 0.0
C3643 C 0.02821 0.60557 0.41181 0.0
C3644 C 0.96219 0.61629 0.41694 0.0
C3645 C 0.9291 0.59009 0.38764 0.0
N3646 N 0.00685 0.6079 0.4143 0.0
N3647 N 0.94914 0.58407 0.39197 0.0
H3648 H 0.34115 0.69224 0.09455 0.0
H3649 H 0.4301 0.80306 0.09444 0.0
H3650 H 0.40196 0.69949 0.13658 0.0
H3651 H 0.36062 0.80305 0.10059 0.0
H3652 H 0.42377 0.76396 0.1034 0.0
H3653 H 0.35218 0.73132 0.08659 0.0
C3654 C 0.35733 0.70174 0.1012 0.0
C3655 C 0.37082 0.69267 0.11604 0.0
C3656 C 0.4101 0.77275 0.10329 0.0
C3657 C 0.38314 0.73725 0.10755 0.0
C3658 C 0.41375 0.79509 0.0986 0.0
C3659 C 0.39593 0.80636 0.09727 0.0
C3660 C 0.38834 0.76153 0.10571 0.0
C3661 C 0.37488 0.79509 0.10199 0.0
C3662 C 0.36334 0.72412 0.0971 0.0
C3663 C 0.39131 0.7059 0.12483 0.0
N3664 N 0.37152 0.7731 0.10548 0.0
N3665 N 0.39686 0.72765 0.12054 0.0
H3666 H 0.28759 0.11758 0.84678 0.0
H3667 H 0.18375 0.12788 0.91205 0.0
H3668 H 0.296 0.12458 0.91753 0.0
H3669 H 0.17978 0.08479 0.85276 0.0
H3670 H 0.22429 0.13091 0.91588 0.0
H3671 H 0.24737 0.11445 0.84837 0.0
C3672 C 0.28114 0.11983 0.86264 0.0
C3673 C 0.29515 0.12148 0.88205 0.0
C3674 C 0.21445 0.12023 0.90241 0.0
C3675 C 0.24915 0.11681 0.88404 0.0
C3676 C 0.19123 0.1179 0.90058 0.0
C3677 C 0.1784 0.10624 0.88191 0.0
C3678 C 0.2247 0.11096 0.88532 0.0
C3679 C 0.18905 0.09398 0.86738 0.0
C3680 C 0.25811 0.11725 0.86356 0.0
C3681 C 0.28575 0.12359 0.90219 0.0
N3682 N 0.21169 0.0974 0.86884 0.0
N3683 N 0.26325 0.12087 0.90273 0.0
H3684 H 0.83926 0.68451 0.07132 0.0
H3685 H 0.89209 0.80787 0.12035 0.0
H3686 H 0.86031 0.70347 0.13972 0.0
H3687 H 0.8442 0.79645 0.06379 0.0
H3688 H 0.88746 0.76762 0.12211 0.0
H3689 H 0.84257 0.72398 0.06494 0.0
C3690 C 0.84322 0.69689 0.08528 0.0
C3691 C 0.84976 0.69072 0.10605 0.0
C3692 C 0.87838 0.77392 0.10893 0.0
C3693 C 0.8551 0.73573 0.0986 0.0
C3694 C 0.88167 0.79691 0.10739 0.0
C3695 C 0.86796 0.80549 0.09233 0.0
C3696 C 0.862 0.75954 0.09464 0.0
C3697 C 0.8548 0.79043 0.07591 0.0
C3698 C 0.84584 0.71944 0.08147 0.0
C3699 C 0.85515 0.7075 0.12344 0.0
N3700 N 0.85152 0.7681 0.07789 0.0
N3701 N 0.85854 0.7293 0.11921 0.0
H3702 H 0.2802 0.57374 0.84044 0.0
H3703 H 0.17371 0.61521 0.87266 0.0
H3704 H 0.28486 0.63578 0.8797 0.0
H3705 H 0.17839 0.54871 0.88805 0.0
H3706 H 0.21258 0.6215 0.86345 0.0
H3707 H 0.24135 0.56214 0.84935 0.0
C3708 C 0.27331 0.58447 0.85168 0.0
C3709 C 0.28579 0.60552 0.85977 0.0
C3710 C 0.20484 0.60537 0.86834 0.0
C3711 C 0.24131 0.59318 0.86848 0.0
C3712 C 0.18258 0.6016 0.8731 0.0
C3713 C 0.17285 0.58135 0.88089 0.0
C3714 C 0.21717 0.58858 0.87093 0.0
C3715 C 0.18533 0.56447 0.88186 0.0
C3716 C 0.25114 0.57803 0.85641 0.0
C3717 C 0.27592 0.61922 0.87359 0.0
N3718 N 0.20696 0.56845 0.87699 0.0
N3719 N 0.25404 0.61306 0.87707 0.0
H3720 H 0.42775 0.95809 0.58558 0.0
H3721 H 0.40488 0.06391 0.59985 0.0
H3722 H 0.35826 0.93828 0.56255 0.0
H3723 H 0.34706 0.03938 0.55411 0.0
H3724 H 0.41584 0.02779 0.5942 0.0
H3725 H 0.42616 -0.0032 0.5802 0.0
C3726 C 0.41229 0.96185 0.57865 0.0
C3727 C 0.39311 0.94489 0.57445 0.0
C3728 C 0.4011 0.03044 0.58484 0.0
C3729 C 0.39072 0.98958 0.56962 0.0
C3730 C 0.39485 0.05119 0.58815 0.0
C3731 C 0.37491 0.05473 0.57766 0.0
C3732 C 0.38731 0.01308 0.5709 0.0
C3733 C 0.36243 0.03741 0.56285 0.0
C3734 C 0.41125 0.9841 0.57609 0.0
C3735 C 0.3735 0.95074 0.56575 0.0
N3736 N 0.36861 0.01736 0.56021 0.0
N3737 N 0.37272 0.97263 0.56397 0.0
H3738 H 0.04692 0.08824 0.39108 0.0
H3739 H 0.91829 0.10127 0.38869 0.0
H3740 H 0.02546 0.13939 0.43116 0.0
H3741 H 0.94597 0.07011 0.33471 0.0
H3742 H 0.95616 0.11132 0.40795 0.0
H3743 H 0.0084 0.07667 0.37371 0.0
C3744 C 0.0342 0.09695 0.39632 0.0
C3745 C 0.0397 0.11504 0.41242 0.0
C3746 C 0.9538 0.10229 0.39185 0.0
C3747 C -0.00458 0.1017 0.39288 0.0
C3748 C 0.93216 0.09661 0.38083 0.0
C3749 C 0.92865 0.08499 0.35985 0.0
C3750 C 0.97202 0.09591 0.38205 0.0
C3751 C 0.94752 0.07926 0.35069 0.0
C3752 C 0.0122 0.09041 0.38637 0.0
C3753 C 0.02228 0.1256 0.41857 0.0
N3754 N 0.96811 0.08461 0.3618 0.0
N3755 N 0.00111 0.11879 0.40891 0.0
H3756 H 0.62202 0.84558 0.05683 0.0
H3757 H 0.63689 0.85836 0.93006 0.0
H3758 H 0.67169 0.89554 0.03214 0.0
H3759 H 0.58292 0.81307 0.9546 0.0
H3760 H 0.65553 0.86544 0.96721 0.0
H3761 H 0.61371 0.82677 0.01975 0.0
C3762 C 0.63159 0.85227 0.04375 0.0
C3763 C 0.6472 0.87244 0.04747 0.0
C3764 C 0.63976 0.85369 0.96439 0.0
C3765 C 0.63757 0.85122 0.00502 0.0
C3766 C 0.62911 0.84962 0.94315 0.0
C3767 C 0.60804 0.83549 0.93926 0.0
C3768 C 0.62925 0.84363 0.98186 0.0
C3769 C 0.59892 0.82446 0.95688 0.0
C3770 C 0.62674 0.8416 0.02254 0.0
C3771 C 0.65916 0.88029 0.02991 0.0
N3772 N 0.60941 0.82901 0.97746 0.0
N3773 N 0.65383 0.86988 0.00939 0.0
H3774 H 0.10052 0.34661 0.68439 0.0
H3775 H 0.11927 0.39736 0.80941 0.0
H3776 H 0.15678 0.39826 0.70927 0.0
H3777 H 0.0741 0.33566 0.78689 0.0
H3778 H 0.13267 0.39937 0.7728 0.0
H3779 H 0.08724 0.34632 0.72109 0.0
C3780 C 0.10952 0.35865 0.69733 0.0
C3781 C 0.12987 0.3724 0.69387 0.0
C3782 C 0.1202 0.38511 0.77596 0.0
C3783 C 0.11533 0.37146 0.73598 0.0
C3784 C 0.11294 0.3837 0.79697 0.0
C3785 C 0.09581 0.36617 0.80116 0.0
C3786 C 0.10992 0.36905 0.75899 0.0
C3787 C 0.08764 0.34922 0.78438 0.0
C3788 C 0.10226 0.35804 0.71841 0.0
C3789 C 0.14102 0.38741 0.71132 0.0
N3790 N 0.09447 0.35128 0.76384 0.0
N3791 N 0.13382 0.38627 0.73175 0.0
H3792 H 0.58466 0.84478 0.43209 0.0
H3793 H 0.57424 0.8535 0.54379 0.0
H3794 H 0.63532 0.90479 0.44416 0.0
H3795 H 0.64082 0.89306 0.54765 0.0
H3796 H 0.56952 0.85895 0.50478 0.0
H3797 H 0.57789 0.84751 0.47104 0.0
C3798 C 0.59381 0.8589 0.44278 0.0
C3799 C 0.61073 0.87438 0.43494 0.0
C3800 C 0.58514 0.86655 0.51404 0.0
C3801 C 0.60318 0.87782 0.47957 0.0
C3802 C 0.58772 0.86379 0.53643 0.0
C3803 C 0.60804 0.87271 0.54888 0.0
C3804 C 0.60319 0.87805 0.50388 0.0
C3805 C 0.62489 0.88596 0.53866 0.0
C3806 C 0.58998 0.86053 0.46511 0.0
C3807 C 0.62233 0.89225 0.4496 0.0
N3808 N 0.62221 0.88795 0.51662 0.0
N3809 N 0.61864 0.89324 0.4712 0.0
H3810 H 0.13742 0.3836 0.29826 0.0
H3811 H 0.09006 0.35832 0.17272 0.0
H3812 H 0.07876 0.33433 0.27456 0.0
H3813 H 0.14006 0.41651 0.19555 0.0
H3814 H 0.08911 0.34735 0.21022 0.0
H3815 H 0.13879 0.39721 0.26175 0.0
C3816 C 0.12414 0.37635 0.2857 0.0
C3817 C 0.10824 0.35739 0.28925 0.0
C3818 C 0.10064 0.36231 0.20705 0.0
C3819 C 0.11033 0.37223 0.24738 0.0
C3820 C 0.10164 0.36818 0.18556 0.0
C3821 C 0.11532 0.38815 0.18115 0.0
C3822 C 0.11331 0.37665 0.22423 0.0
C3823 C 0.12958 0.40077 0.19835 0.0
C3824 C 0.1253 0.38378 0.26468 0.0
C3825 C 0.09148 0.34876 0.27237 0.0
N3826 N 0.12795 0.39501 0.21932 0.0
N3827 N 0.09334 0.35581 0.25196 0.0
H3828 H 0.57617 0.83458 0.78961 0.0
H3829 H 0.65721 0.89796 0.70748 0.0
H3830 H 0.62086 0.8977 0.80746 0.0
H3831 H 0.60474 0.84111 0.68665 0.0
H3832 H 0.64407 0.89848 0.7442 0.0
H3833 H 0.58905 0.83469 0.75258 0.0
C3834 C 0.58945 0.84793 0.78602 0.0
C3835 C 0.59767 0.86606 0.80158 0.0
C3836 C 0.63508 0.88617 0.7315 0.0
C3837 C 0.6116 0.86691 0.75916 0.0
C3838 C 0.64228 0.88621 0.71042 0.0
C3839 C 0.63197 0.86956 0.69402 0.0
C3840 C 0.61763 0.86916 0.73627 0.0
C3841 C 0.613 0.8544 0.69877 0.0
C3842 C 0.59636 0.8483 0.76474 0.0
C3843 C 0.61433 0.88331 0.79593 0.0
N3844 N 0.6067 0.85425 0.71963 0.0
N3845 N 0.62056 0.88346 0.7751 0.0
H3846 H 0.1465 0.39637 0.5527 0.0
H3847 H 0.09443 0.35315 0.43012 0.0
H3848 H 0.08101 0.35532 0.53694 0.0
H3849 H 0.16125 0.39117 0.44704 0.0
H3850 H 0.08651 0.35933 0.46858 0.0
H3851 H 0.14909 0.40136 0.51348 0.0
C3852 C 0.13238 0.38907 0.54108 0.0
C3853 C 0.11365 0.37522 0.54797 0.0
C3854 C 0.10284 0.36647 0.46376 0.0
C3855 C 0.11667 0.38022 0.50316 0.0
C3856 C 0.10736 0.36287 0.44182 0.0
C3857 C 0.12864 0.37125 0.43535 0.0
C3858 C 0.11969 0.37859 0.47927 0.0
C3859 C 0.1447 0.38395 0.45125 0.0
C3860 C 0.13394 0.39165 0.51865 0.0
C3861 C 0.09589 0.36592 0.5322 0.0
N3862 N 0.13995 0.38706 0.4724 0.0
N3863 N 0.09797 0.36827 0.51052 0.0
H3864 H 0.58451 0.82605 0.27225 0.0
H3865 H 0.64408 0.9196 0.19941 0.0
H3866 H 0.63519 0.8823 0.29924 0.0
H3867 H 0.59353 0.8629 0.17371 0.0
H3868 H 0.6426 0.90563 0.23597 0.0
H3869 H 0.58587 0.84102 0.2364 0.0
C3870 C 0.59524 0.84206 0.2708 0.0
C3871 C 0.60987 0.85283 0.28865 0.0
C3872 C 0.63221 0.89596 0.22223 0.0
C3873 C 0.61241 0.86951 0.24751 0.0
C3874 C 0.63353 0.9036 0.20129 0.0
C3875 C 0.61915 0.89213 0.1836 0.0
C3876 C 0.6163 0.87682 0.22531 0.0
C3877 C 0.60513 0.87196 0.18696 0.0
C3878 C 0.59642 0.85035 0.25022 0.0
C3879 C 0.6236 0.87344 0.28589 0.0
N3880 N 0.60381 0.86509 0.20748 0.0
N3881 N 0.62491 0.88089 0.26553 0.0
H3882 H 0.11885 0.34052 0.05439 0.0
H3883 H 0.13315 0.35532 0.92811 0.0
H3884 H 0.16848 0.39086 0.03014 0.0
H3885 H 0.07886 0.31028 0.95249 0.0
H3886 H 0.15231 0.36126 0.96503 0.0
H3887 H 0.1107 0.32196 0.01724 0.0
C3888 C 0.12845 0.34735 0.04139 0.0
C3889 C 0.14393 0.3676 0.04523 0.0
C3890 C 0.13635 0.34981 0.96221 0.0
C3891 C 0.13448 0.34666 0.00272 0.0
C3892 C 0.12538 0.34642 0.94112 0.0
C3893 C 0.10409 0.33273 0.9373 0.0
C3894 C 0.12591 0.33951 0.97959 0.0
C3895 C 0.09503 0.32139 0.95476 0.0
C3896 C 0.1237 0.33682 0.02015 0.0
C3897 C 0.15599 0.37558 0.02779 0.0
N3898 N 0.10583 0.3253 0.97521 0.0
N3899 N 0.15072 0.36532 0.00721 0.0
H3900 H 0.04832 0.6353 0.87959 0.0
H3901 H 0.9209 0.57648 0.88702 0.0
H3902 H 0.02927 0.58731 0.92633 0.0
H3903 H 0.94537 0.60181 0.82754 0.0
H3904 H 0.95944 0.58488 0.90435 0.0
H3905 H 0.01008 0.62643 0.86205 0.0
C3906 C 0.03619 0.62239 0.88574 0.0
C3907 C 0.04216 0.61155 0.90403 0.0
C3908 C 0.9563 0.5888 0.88758 0.0
C3909 C -0.00213 0.60221 0.88482 0.0
C3910 C 0.93426 0.58435 0.87779 0.0
C3911 C 0.92981 0.5886 0.8558 0.0
C3912 C 0.97402 0.59789 0.87543 0.0
C3913 C 0.94795 0.59835 0.84454 0.0
C3914 C 0.01428 0.61753 0.8759 0.0
C3915 C 0.02554 0.59556 0.91185 0.0
N3916 N 0.96912 0.60267 0.85444 0.0
N3917 N 0.00411 0.59156 0.90239 0.0
H3918 H 0.41845 0.57832 0.88218 0.0
H3919 H 0.54606 0.62447 0.92109 0.0
H3920 H 0.44233 0.63921 0.92387 0.0
H3921 H 0.52075 0.55739 0.89236 0.0
H3922 H 0.50781 0.628 0.92735 0.0
H3923 H 0.45485 0.56803 0.88976 0.0
C3924 C 0.43111 0.58928 0.89326 0.0
C3925 C 0.42735 0.60983 0.90205 0.0
C3926 C 0.51065 0.61225 0.92026 0.0
C3927 C 0.46919 0.59837 0.91061 0.0
C3928 C 0.5326 0.61014 0.91704 0.0
C3929 C 0.53661 0.59064 0.90617 0.0
C3930 C 0.49265 0.59483 0.91226 0.0
C3931 C 0.51837 0.57277 0.90076 0.0
C3932 C 0.45196 0.58347 0.89755 0.0
C3933 C 0.44451 0.62339 0.91631 0.0
N3934 N 0.49721 0.57544 0.90338 0.0
N3935 N 0.46466 0.61761 0.91984 0.0
H3936 H 0.41388 0.28815 0.55687 0.0
H3937 H 0.39334 0.21232 0.6549 0.0
H3938 H 0.38774 0.31202 0.61572 0.0
H3939 H 0.36748 0.18686 0.58858 0.0
H3940 H 0.40543 0.24915 0.64214 0.0
H3941 H 0.41055 0.25161 0.57063 0.0
C3942 C 0.40779 0.28596 0.57291 0.0
C3943 C 0.40073 0.30336 0.58502 0.0
C3944 C 0.39749 0.23537 0.63039 0.0
C3945 C 0.39746 0.26128 0.60087 0.0
C3946 C 0.3907 0.21428 0.63751 0.0
C3947 C 0.37889 0.19647 0.62283 0.0
C3948 C 0.39315 0.23862 0.60829 0.0
C3949 C 0.37638 0.20004 0.60048 0.0
C3950 C 0.40586 0.26496 0.5806 0.0
C3951 C 0.39326 0.29921 0.60576 0.0
N3952 N 0.38331 0.22085 0.59388 0.0
N3953 N 0.39177 0.2785 0.61305 0.0
H3954 H 0.68895 0.138 0.41425 0.0
H3955 H 0.79111 0.1248 0.34612 0.0
H3956 H 0.68278 0.09638 0.35366 0.0
H3957 H 0.80035 0.13344 0.41679 0.0
H3958 H 0.75116 0.12334 0.34801 0.0
H3959 H 0.7295 0.14082 0.41649 0.0
C3960 C 0.69599 0.12835 0.40211 0.0
C3961 C 0.6824 0.11682 0.3838 0.0
C3962 C 0.76204 0.12616 0.3631 0.0
C3963 C 0.7288 0.12147 0.38534 0.0
C3964 C 0.78497 0.12779 0.362 0.0
C3965 C 0.79913 0.12935 0.38132 0.0
C3966 C 0.75329 0.12658 0.38369 0.0
C3967 C 0.79005 0.13248 0.4015 0.0
C3968 C 0.71919 0.13054 0.40305 0.0
C3969 C 0.69255 0.10521 0.36819 0.0
N3970 N 0.76763 0.13061 0.40222 0.0
N3971 N 0.71517 0.10845 0.36889 0.0
H3972 H 0.38995 0.4296 0.58888 0.0
H3973 H 0.38482 0.5601 0.58962 0.0
H3974 H 0.34143 0.45376 0.54761 0.0
H3975 H 0.41099 0.53078 0.64537 0.0
H3976 H 0.37307 0.52226 0.57063 0.0
H3977 H 0.40291 0.46793 0.60642 0.0
C3978 C 0.38209 0.44286 0.58345 0.0
C3979 C 0.36431 0.43819 0.56697 0.0
C3980 C 0.38139 0.52426 0.58706 0.0
C3981 C 0.37931 0.48222 0.58662 0.0
C3982 C 0.38801 0.54588 0.59794 0.0
C3983 C 0.39883 0.54895 0.6193 0.0
C3984 C 0.38601 0.50558 0.59739 0.0
C3985 C 0.40264 0.52962 0.62903 0.0
C3986 C 0.38943 0.46474 0.59347 0.0
C3987 C 0.35491 0.45629 0.56053 0.0
N3988 N 0.39645 0.50903 0.61804 0.0
N3989 N 0.3625 0.47732 0.57023 0.0
H3990 H 0.67273 0.04661 0.88331 0.0
H3991 H 0.78641 0.1279 0.88208 0.0
H3992 H 0.67541 0.11621 0.87513 0.0
H3993 H 0.77337 0.07337 0.83147 0.0
H3994 H 0.74756 0.11779 0.891 0.0
H3995 H 0.7111 0.05066 0.87235 0.0
C3996 C 0.68109 0.06248 0.87833 0.0
C3997 C 0.6708 0.08101 0.87957 0.0
C3998 C 0.75348 0.10773 0.87835 0.0
C3999 C 0.7148 0.08602 0.86883 0.0
C4000 C 0.77568 0.11319 0.87354 0.0
C4001 C 0.78306 0.10136 0.85609 0.0
C4002 C 0.73884 0.09002 0.86598 0.0
C4003 C 0.76826 0.08277 0.84515 0.0
C4004 C 0.70299 0.06483 0.87246 0.0
C4005 C 0.68258 0.10144 0.87381 0.0
N4006 N 0.74672 0.07767 0.8502 0.0
N4007 N 0.70419 0.10355 0.8692 0.0
H4008 H 0.09945 0.41495 0.91039 0.0
H4009 H 0.06137 0.52994 0.9011 0.0
H4010 H 0.054 0.42904 0.85863 0.0
H4011 H 0.1057 0.51724 0.95468 0.0
H4012 H 0.05131 0.4901 0.89062 0.0
H4013 H 0.09779 0.45053 0.93029 0.0
C4014 C 0.0894 0.42568 0.9031 0.0
C4015 C 0.07697 0.41923 0.88281 0.0
C4016 C 0.06296 0.49598 0.90491 0.0
C4017 C 0.07436 0.45925 0.90559 0.0
C4018 C 0.06858 0.51872 0.91097 0.0
C4019 C 0.08522 0.52688 0.92804 0.0
C4020 C 0.07439 0.4816 0.91582 0.0
C4021 C 0.09343 0.51164 0.94081 0.0
C4022 C 0.08809 0.44571 0.91461 0.0
C4023 C 0.06378 0.43337 0.87425 0.0
N4024 N 0.08847 0.48965 0.93399 0.0
N4025 N 0.06286 0.45275 0.88567 0.0
H4026 H 0.03239 0.81054 0.10431 0.0
H4027 H 0.96361 0.90264 0.14195 0.0
H4028 H 0.06051 0.87044 0.1462 0.0
H4029 H 0.93731 0.84778 0.09318 0.0
H4030 H -0.00223 0.88834 0.14721 0.0
H4031 H -0.00428 0.82057 0.10458 0.0
C4032 C 0.03079 0.82553 0.11396 0.0
C4033 C 0.04961 0.83987 0.12496 0.0
C4034 C 0.98456 0.87941 0.13533 0.0
C4035 C 0.00784 0.85156 0.12506 0.0
C4036 C 0.96505 0.88761 0.13226 0.0
C4037 C 0.94759 0.87644 0.11703 0.0
C4038 C 0.98675 0.85991 0.12302 0.0
C4039 C 0.95043 0.85705 0.10495 0.0
C4040 C 0.00989 0.83135 0.11392 0.0
C4041 C 0.04652 0.85906 0.13721 0.0
N4042 N 0.96966 0.84939 0.10819 0.0
N4043 N 0.0261 0.86446 0.13672 0.0
H4044 H 0.69065 0.36049 0.62295 0.0
H4045 H 0.80389 0.37772 0.56523 0.0
H4046 H 0.72781 0.42378 0.60659 0.0
H4047 H 0.78515 0.32271 0.60482 0.0
H4048 H 0.76887 0.38925 0.57143 0.0
H4049 H 0.72112 0.34285 0.61198 0.0
C4050 C 0.70538 0.37079 0.61757 0.0
C4051 C 0.70641 0.39358 0.61516 0.0
C4052 C 0.77222 0.37434 0.57834 0.0
C4053 C 0.74054 0.37333 0.60176 0.0
C4054 C 0.79194 0.36743 0.57434 0.0
C4055 C 0.79758 0.34968 0.58511 0.0
C4056 C 0.75821 0.36319 0.59295 0.0
C4057 C 0.78147 0.33685 0.59668 0.0
C4058 C 0.72253 0.36061 0.61098 0.0
C4059 C 0.72602 0.4061 0.60834 0.0
N4060 N 0.76264 0.34423 0.60087 0.0
N4061 N 0.74211 0.39571 0.60143 0.0
H4062 H 0.08841 0.67094 0.39692 0.0
H4063 H 0.11136 0.78668 0.3434 0.0
H4064 H 0.14711 0.692 0.36291 0.0
H4065 H 0.04609 0.75149 0.35656 0.0
H4066 H 0.12661 0.75421 0.35249 0.0
H4067 H 0.07586 0.70497 0.38827 0.0
C4068 C 0.09911 0.68317 0.38844 0.0
C4069 C 0.11867 0.67865 0.38038 0.0
C4070 C 0.10891 0.75359 0.35311 0.0
C4071 C 0.10405 0.71693 0.36968 0.0
C4072 C 0.1001 0.77196 0.3476 0.0
C4073 C 0.0775 0.77208 0.34985 0.0
C4074 C 0.09502 0.73543 0.36103 0.0
C4075 C 0.06371 0.7524 0.3551 0.0
C4076 C 0.09168 0.7023 0.38302 0.0
C4077 C 0.1318 0.69491 0.36922 0.0
N4078 N 0.0728 0.73504 0.36102 0.0
N4079 N 0.12408 0.71325 0.36386 0.0
H4080 H 0.69753 0.88698 0.59174 0.0
H4081 H 0.82051 0.86173 0.60737 0.0
H4082 H 0.72296 0.86057 0.64958 0.0
H4083 H 0.78743 0.86684 0.5438 0.0
H4084 H 0.78699 0.86683 0.62443 0.0
H4085 H 0.73309 0.88686 0.57585 0.0
C4086 C 0.71082 0.88182 0.60139 0.0
C4087 C 0.70728 0.87377 0.62204 0.0
C4088 C 0.78708 0.8669 0.60675 0.0
C4089 C 0.74777 0.87313 0.60376 0.0
C4090 C 0.80622 0.8639 0.59692 0.0
C4091 C 0.80701 0.86402 0.57401 0.0
C4092 C 0.76849 0.87026 0.5937 0.0
C4093 C 0.78781 0.86685 0.56147 0.0
C4094 C 0.73098 0.88141 0.59216 0.0
C4095 C 0.72497 0.86686 0.63361 0.0
N4096 N 0.7694 0.86999 0.57149 0.0
N4097 N 0.74437 0.86658 0.62428 0.0
H4098 H 0.607 0.4166 0.8261 0.0
H4099 H 0.63628 0.54123 0.88142 0.0
H4100 H 0.66862 0.4444 0.86554 0.0
H4101 H 0.58037 0.5165 0.83332 0.0
H4102 H 0.64881 0.50607 0.87527 0.0
H4103 H 0.59807 0.45364 0.82674 0.0
C4104 C 0.61883 0.43058 0.8346 0.0
C4105 C 0.63843 0.42737 0.84606 0.0
C4106 C 0.63384 0.50837 0.86601 0.0
C4107 C 0.6281 0.46972 0.84723 0.0
C4108 C 0.62654 0.52834 0.86969 0.0
C4109 C 0.60717 0.53173 0.85797 0.0
C4110 C 0.62157 0.4916 0.85064 0.0
C4111 C 0.59538 0.51457 0.84275 0.0
C4112 C 0.61368 0.45171 0.83502 0.0
C4113 C 0.65326 0.44609 0.8566 0.0
N4114 N 0.60273 0.49521 0.83959 0.0
N4115 N 0.64761 0.46644 0.85724 0.0
H4116 H 0.38353 0.57964 0.55001 0.0
H4117 H 0.39689 0.61348 0.42877 0.0
H4118 H 0.43087 0.63624 0.53256 0.0
H4119 H 0.34674 0.55928 0.44644 0.0
H4120 H 0.41553 0.61628 0.46558 0.0
H4121 H 0.37648 0.56604 0.51129 0.0
C4122 C 0.39267 0.58904 0.53805 0.0
C4123 C 0.40729 0.60943 0.54435 0.0
C4124 C 0.40055 0.60366 0.46135 0.0
C4125 C 0.39923 0.5941 0.50022 0.0
C4126 C 0.38978 0.60218 0.44041 0.0
C4127 C 0.36983 0.58663 0.43482 0.0
C4128 C 0.39115 0.58965 0.47684 0.0
C4129 C 0.36177 0.57192 0.45027 0.0
C4130 C 0.38869 0.58124 0.51598 0.0
C4131 C 0.41916 0.62063 0.52834 0.0
N4132 N 0.3723 0.57403 0.47075 0.0
N4133 N 0.41453 0.61302 0.5069 0.0
H4134 H 0.82222 0.10383 0.78212 0.0
H4135 H 0.9161 0.10661 0.70017 0.0
H4136 H 0.88826 0.09382 0.80104 0.0
H4137 H 0.84794 0.1087 0.6793 0.0
H4138 H 0.90495 0.0971 0.73606 0.0
H4139 H 0.82942 0.09955 0.74352 0.0
C4140 C 0.83804 0.10011 0.77804 0.0
C4141 C 0.8548 0.09941 0.79462 0.0
C4142 C 0.89235 0.09939 0.7236 0.0
C4143 C 0.86341 0.09508 0.75065 0.0
C4144 C 0.89875 0.10498 0.70304 0.0
C4145 C 0.88302 0.10873 0.68665 0.0
C4146 C 0.87003 0.09777 0.72804 0.0
C4147 C 0.8607 0.10617 0.69146 0.0
C4148 C 0.84219 0.09774 0.75603 0.0
C4149 C 0.87493 0.09438 0.78864 0.0
N4150 N 0.85491 0.10109 0.71181 0.0
N4151 N 0.87888 0.09287 0.76706 0.0
H4152 H 0.29159 0.60927 0.02818 0.0
H4153 H 0.36306 0.68346 0.94844 0.0
H4154 H 0.34939 0.66111 0.04833 0.0
H4155 H 0.31565 0.62226 0.92841 0.0
H4156 H 0.34795 0.68431 0.98423 0.0
H4157 H 0.2903 0.62308 -0.00828 0.0
C4158 C 0.30377 0.62378 0.02504 0.0
C4159 C 0.3212 0.63352 0.0409 0.0
C4160 C 0.34057 0.67094 0.97183 0.0
C4161 C 0.31979 0.6493 -0.00051 0.0
C4162 C 0.34922 0.67041 0.95143 0.0
C4163 C 0.34113 0.65229 0.93581 0.0
C4164 C 0.32394 0.65314 0.97657 0.0
C4165 C 0.3229 0.6361 0.94034 0.0
C4166 C 0.30298 0.63169 0.00428 0.0
C4167 C 0.33619 0.6526 0.03623 0.0
N4168 N 0.31518 0.63667 0.96051 0.0
N4169 N 0.33541 0.65963 0.01576 0.0
H4170 H 0.87053 0.13654 0.29917 0.0
H4171 H 0.88504 0.10053 0.17398 0.0
H4172 H 0.86663 0.06863 0.27287 0.0
H4173 H 0.87131 0.16413 0.19664 0.0
H4174 H 0.8895 0.09162 0.21229 0.0
H4175 H 0.88028 0.14923 0.26353 0.0
C4176 C 0.8718 0.12427 0.28597 0.0
C4177 C 0.86751 0.10141 0.28902 0.0
C4178 C 0.88611 0.10777 0.20888 0.0
C4179 C 0.879 0.11591 0.24827 0.0
C4180 C 0.88393 0.11299 0.18707 0.0
C4181 C 0.87766 0.133 0.18229 0.0
C4182 C 0.88205 0.12277 0.22582 0.0
C4183 C 0.87599 0.14844 0.19976 0.0
C4184 C 0.87748 0.13156 0.26566 0.0
C4185 C 0.8696 0.08635 0.27131 0.0
N4186 N 0.87782 0.14288 0.22077 0.0
N4187 N 0.8751 0.09386 0.25168 0.0
H4188 H 0.42046 0.61191 0.70542 0.0
H4189 H 0.32285 0.60402 0.78233 0.0
H4190 H 0.35198 0.60736 0.68054 0.0
H4191 H 0.3878 0.5926 0.80356 0.0
H4192 H 0.33153 0.6 0.74417 0.0
H4193 H 0.40804 0.60128 0.74063 0.0
C4194 C 0.4028 0.60857 0.70726 0.0
C4195 C 0.3873 0.61069 0.68993 0.0
C4196 C 0.34369 0.59772 0.75707 0.0
C4197 C 0.37286 0.59849 0.73046 0.0
C4198 C 0.33867 0.59987 0.77883 0.0
C4199 C 0.35474 0.59879 0.79595 0.0
C4200 C 0.36514 0.59501 0.75254 0.0
C4201 C 0.37498 0.59343 0.79072 0.0
C4202 C 0.39568 0.60233 0.72741 0.0
C4203 C 0.36457 0.60613 0.69345 0.0
N4204 N 0.37986 0.59228 0.76941 0.0
N4205 N 0.35805 0.60046 0.7134 0.0
H4206 H 0.84925 0.17904 0.94478 0.0
H4207 H 0.78798 0.10523 0.03143 0.0
H4208 H 0.81414 0.11072 0.93058 0.0
H4209 H 0.84145 0.16265 0.04667 0.0
H4210 H 0.78503 0.11463 -0.00672 0.0
H4211 H 0.8334 0.18008 0.98001 0.0
C4212 C 0.83791 0.16435 0.94886 0.0
C4213 C 0.83364 0.14447 0.93507 0.0
C4214 C 0.79703 0.12542 0.00514 0.0
C4215 C 0.81561 0.14563 0.97538 0.0
C4216 C 0.79878 0.12006 0.02684 0.0
C4217 C 0.81558 0.13275 0.04188 0.0
C4218 C 0.81211 0.14357 -0.00132 0.0
C4219 C 0.82881 0.15202 0.03531 0.0
C4220 C 0.82882 0.16502 0.96897 0.0
C4221 C 0.81845 0.12615 0.94107 0.0
N4222 N 0.82704 0.15666 0.01403 0.0
N4223 N 0.81031 0.12701 0.96106 0.0
H4224 H 0.37055 0.56228 0.27546 0.0
H4225 H 0.37401 0.65687 0.19386 0.0
H4226 H 0.37165 0.63133 0.29588 0.0
H4227 H 0.38265 0.59067 0.17366 0.0
H4228 H 0.37938 0.64922 0.23219 0.0
H4229 H 0.37966 0.573 0.23898 0.0
C4230 C 0.37279 0.57969 0.27234 0.0
C4231 C 0.37001 0.59588 0.2887 0.0
C4232 C 0.38069 0.63648 0.21947 0.0
C4233 C 0.3806 0.60826 0.24705 0.0
C4234 C 0.37781 0.64096 0.1976 0.0
C4235 C 0.37786 0.62433 0.18078 0.0
C4236 C 0.38303 0.61502 0.22446 0.0
C4237 C 0.38268 0.60393 0.18631 0.0
C4238 C 0.37815 0.58582 0.25154 0.0
C4239 C 0.37333 0.61821 0.28374 0.0
N4240 N 0.38457 0.59961 0.20778 0.0
N4241 N 0.37825 0.62368 0.26333 0.0
H4242 H 0.92754 0.13845 0.53047 0.0
H4243 H 0.84929 0.0525 0.44508 0.0
H4244 H 0.88043 0.08172 0.54798 0.0
H4245 H 0.9018 0.10449 0.42755 0.0
H4246 H 0.86664 0.05716 0.48251 0.0
H4247 H 0.92468 0.12112 0.49312 0.0
C4248 C 0.91683 0.12221 0.52652 0.0
C4249 C 0.90371 0.11177 0.5421 0.0
C4250 C 0.87461 0.06728 0.47039 0.0
C4251 C 0.90009 0.09203 0.49945 0.0
C4252 C 0.86469 0.06461 0.44899 0.0
C4253 C 0.87374 0.07863 0.4334 0.0
C4254 C 0.8934 0.08435 0.47622 0.0
C4255 C 0.89387 0.09384 0.43929 0.0
C4256 C 0.91523 0.11227 0.50521 0.0
C4257 C 0.89028 0.09065 0.53622 0.0
N4258 N 0.90279 0.09663 0.4604 0.0
N4259 N 0.88851 0.08163 0.51521 0.0
H4260 H 0.44025 0.84377 0.59328 0.0
H4261 H 0.56433 0.86791 0.65049 0.0
H4262 H 0.46452 0.89434 0.64675 0.0
H4263 H 0.53813 0.8119 0.603 0.0
H4264 H 0.52702 0.87593 0.65139 0.0
H4265 H 0.47538 0.83077 0.5976 0.0
C4266 C 0.45299 0.85221 0.60587 0.0
C4267 C 0.44947 0.87028 0.61959 0.0
C4268 C 0.52933 0.8617 0.64097 0.0
C4269 C 0.48964 0.85531 0.62476 0.0
C4270 C 0.55063 0.85705 0.64052 0.0
C4271 C 0.5544 0.83938 0.62643 0.0
C4272 C 0.51166 0.84876 0.62703 0.0
C4273 C 0.536 0.82575 0.61404 0.0
C4274 C 0.47297 0.84464 0.60845 0.0
C4275 C 0.46648 0.88036 0.6358 0.0
N4276 N 0.51546 0.83095 0.61435 0.0
N4277 N 0.48584 0.87281 0.63786 0.0
H4278 H 0.30474 0.3936 0.07596 0.0
H4279 H 0.19553 0.37978 0.14099 0.0
H4280 H 0.27486 0.33295 0.10301 0.0
H4281 H 0.2212 0.43889 0.109 0.0
H4282 H 0.2266 0.36372 0.12968 0.0
H4283 H 0.27346 0.41016 0.08623 0.0
C4284 C 0.29104 0.38339 0.08307 0.0
C4285 C 0.29243 0.36199 0.08892 0.0
C4286 C 0.22556 0.3803 0.12533 0.0
C4287 C 0.25737 0.38112 0.10172 0.0
C4288 C 0.20802 0.38969 0.13215 0.0
C4289 C 0.20526 0.41041 0.12525 0.0
C4290 C 0.24049 0.39182 0.11173 0.0
C4291 C 0.2223 0.42262 0.11423 0.0
C4292 C 0.27349 0.39305 0.0895 0.0
C4293 C 0.2744 0.34958 0.0984 0.0
N4294 N 0.23895 0.41292 0.10736 0.0
N4295 N 0.25784 0.35951 0.10501 0.0
H4296 H 0.60126 0.91594 0.91383 0.0
H4297 H 0.56153 0.0304 0.90217 0.0
H4298 H 0.56442 0.93324 0.85713 0.0
H4299 H 0.60615 0.01946 0.95634 0.0
H4300 H 0.55345 0.99058 0.89143 0.0
H4301 H 0.59792 0.95119 0.93354 0.0
C4302 C 0.5929 0.92738 0.90542 0.0
C4303 C 0.58316 0.92187 0.88386 0.0
C4304 C 0.56474 -0.00315 0.9059 0.0
C4305 C 0.57841 0.96128 0.90635 0.0
C4306 C 0.56918 0.01957 0.91215 0.0
C4307 C 0.58546 0.0283 0.92939 0.0
C4308 C 0.57693 0.98311 0.91685 0.0
C4309 C 0.59421 0.01346 0.9423 0.0
C4310 C 0.59055 0.94716 0.91678 0.0
C4311 C 0.572 0.93683 0.87379 0.0
N4312 N 0.59042 -0.00847 0.9353 0.0
N4313 N 0.56988 0.95585 0.88514 0.0
H4314 H 0.19725 0.38723 0.59415 0.0
H4315 H 0.3152 0.35021 0.60405 0.0
H4316 H 0.21981 0.35353 0.64834 0.0
H4317 H 0.28543 0.36724 0.54314 0.0
H4318 H 0.28208 0.35509 0.62183 0.0
H4319 H 0.232 0.38554 0.57734 0.0
C4320 C 0.20976 0.38004 0.60283 0.0
C4321 C 0.20559 0.37045 0.62269 0.0
C4322 C 0.28276 0.35776 0.60457 0.0
C4323 C 0.24511 0.36802 0.60328 0.0
C4324 C 0.30168 0.35489 0.59432 0.0
C4325 C 0.30336 0.35859 0.57203 0.0
C4326 C 0.2653 0.36456 0.59259 0.0
C4327 C 0.28511 0.36447 0.56036 0.0
C4328 C 0.22943 0.37877 0.59304 0.0
C4329 C 0.22228 0.36102 0.63298 0.0
N4330 N 0.26691 0.36746 0.57082 0.0
N4331 N 0.24121 0.35993 0.62311 0.0
H4332 H 0.90414 0.55953 0.07401 0.0
H4333 H 0.83181 0.43609 0.07972 0.0
H4334 H 0.8566 0.54233 0.12149 0.0
H4335 H 0.88839 0.44904 0.04142 0.0
H4336 H 0.8391 0.47548 0.09318 0.0
H4337 H 0.89565 0.52044 0.05832 0.0
C4338 C 0.8911 0.54778 0.08043 0.0
C4339 C 0.88058 0.55442 0.09872 0.0
C4340 C 0.85018 0.46978 0.08208 0.0
C4341 C 0.87155 0.50933 0.08155 0.0
C4342 C 0.84618 0.44718 0.0746 0.0
C4343 C 0.85978 0.43908 0.05979 0.0
C4344 C 0.86772 0.48482 0.07441 0.0
C4345 C 0.87782 0.45441 0.05326 0.0
C4346 C 0.88667 0.52532 0.07182 0.0
C4347 C 0.86465 0.53815 0.10704 0.0
N4348 N 0.88114 0.47655 0.06044 0.0
N4349 N 0.86073 0.51648 0.09852 0.0
H4350 H 0.01929 0.05482 0.89425 0.0
H4351 H 0.9392 0.13825 0.92468 0.0
H4352 H 0.04296 0.1231 0.92015 0.0
H4353 H 0.91769 0.07749 0.88226 0.0
H4354 H 0.9755 0.12862 0.93189 0.0
H4355 H 0.98107 0.05863 0.89957 0.0
C4356 C 0.01652 0.07036 0.90199 0.0
C4357 C 0.03442 0.08867 0.9068 0.0
C4358 C 0.9628 0.11722 0.92123 0.0
C4359 C -0.00955 0.09334 0.91229 0.0
C4360 C 0.94194 0.12267 0.91704 0.0
C4361 C 0.92527 0.10884 0.90248 0.0
C4362 C 0.96728 0.09769 0.91091 0.0
C4363 C 0.92994 0.08873 0.89349 0.0
C4364 C -0.00537 0.07261 0.90468 0.0
C4365 C 0.02978 0.10848 0.91646 0.0
N4366 N 0.95059 0.0839 0.89765 0.0
N4367 N 0.00822 0.11041 0.91853 0.0
H4368 H 0.18575 0.63004 0.41396 0.0
H4369 H 0.28281 0.61794 0.33896 0.0
H4370 H 0.17789 0.58392 0.35637 0.0
H4371 H 0.29799 0.63544 0.40846 0.0
H4372 H 0.24309 0.61356 0.34402 0.0
H4373 H 0.22631 0.6352 0.41362 0.0
C4374 C 0.19254 0.61989 0.40205 0.0
C4375 C 0.17845 0.60706 0.38475 0.0
C4376 C 0.25515 0.61889 0.35811 0.0
C4377 C 0.22455 0.61389 0.38348 0.0
C4378 C 0.27786 0.62223 0.3551 0.0
C4379 C 0.2937 0.62692 0.37334 0.0
C4380 C 0.24835 0.6208 0.37948 0.0
C4381 C 0.28627 0.63187 0.39396 0.0
C4382 C 0.2157 0.62345 0.40143 0.0
C4383 C 0.18816 0.59429 0.36979 0.0
N4384 N 0.26406 0.62819 0.39661 0.0
N4385 N 0.21063 0.59882 0.36882 0.0
H4386 H 0.89667 0.30038 0.62245 0.0
H4387 H 0.84874 0.18013 0.56311 0.0
H4388 H 0.85235 0.29318 0.56354 0.0
H4389 H 0.86194 0.19419 0.63319 0.0
H4390 H 0.85274 0.2202 0.55922 0.0
H4391 H 0.89222 0.25985 0.62102 0.0
C4392 C 0.88716 0.29038 0.60836 0.0
C4393 C 0.87424 0.30009 0.59352 0.0
C4394 C 0.85412 0.21444 0.5755 0.0
C4395 C 0.86852 0.2538 0.5921 0.0
C4396 C 0.8511 0.19153 0.57781 0.0
C4397 C 0.85507 0.1838 0.59853 0.0
C4398 C 0.86137 0.22955 0.59404 0.0
C4399 C 0.85864 0.1994 0.61694 0.0
C4400 C 0.88393 0.26718 0.60804 0.0
C4401 C 0.86228 0.28626 0.57556 0.0
N4402 N 0.86252 0.22159 0.61424 0.0
N4403 N 0.85903 0.26368 0.5757 0.0
H4404 H 0.17029 0.04489 0.38099 0.0
H4405 H 0.2828 0.13111 0.38086 0.0
H4406 H 0.17214 0.11466 0.37447 0.0
H4407 H 0.27378 0.07108 0.33742 0.0
H4408 H 0.24379 0.12074 0.38904 0.0
H4409 H 0.20932 0.05014 0.3719 0.0
C4410 C 0.17865 0.06109 0.37677 0.0
C4411 C 0.1679 0.0793 0.37802 0.0
C4412 C 0.25059 0.10958 0.37818 0.0
C4413 C 0.21266 0.08565 0.36937 0.0
C4414 C 0.27295 0.1152 0.37392 0.0
C4415 C 0.28153 0.10182 0.35858 0.0
C4416 C 0.23695 0.09023 0.36742 0.0
C4417 C 0.26779 0.08168 0.34952 0.0
C4418 C 0.20094 0.06412 0.37198 0.0
C4419 C 0.17966 0.10011 0.37316 0.0
N4420 N 0.24605 0.0765 0.35397 0.0
N4421 N 0.2016 0.10285 0.36958 0.0
H4422 H 0.42246 0.45629 0.08679 0.0
H4423 H 0.39875 0.5616 0.09739 0.0
H4424 H 0.35389 0.43519 0.06094 0.0
H4425 H 0.3384 0.53414 0.05602 0.0
H4426 H 0.41101 0.52635 0.09102 0.0
H4427 H 0.42062 0.49467 0.08048 0.0
C4428 C 0.40719 0.45972 0.07906 0.0
C4429 C 0.38828 0.44253 0.07442 0.0
C4430 C 0.39536 0.52806 0.08276 0.0
C4431 C 0.38543 0.48685 0.06859 0.0
C4432 C 0.38836 0.54836 0.0865 0.0
C4433 C 0.36739 0.55079 0.07753 0.0
C4434 C 0.38128 0.51008 0.06986 0.0
C4435 C 0.35455 0.53295 0.06363 0.0
C4436 C 0.40595 0.48181 0.07595 0.0
C4437 C 0.3689 0.44788 0.06459 0.0
N4438 N 0.36153 0.51337 0.06052 0.0
N4439 N 0.36784 0.46962 0.06244 0.0
H4440 H 0.63558 0.35886 0.41354 0.0
H4441 H 0.6736 0.39462 0.52092 0.0
H4442 H 0.58968 0.30668 0.43973 0.0
H4443 H 0.61645 0.3473 0.53704 0.0
H4444 H 0.66913 0.37676 0.48381 0.0
H4445 H 0.65486 0.36888 0.44992 0.0
C4446 C 0.63006 0.34899 0.42685 0.0
C4447 C 0.61072 0.33227 0.42373 0.0
C4448 C 0.65741 0.37022 0.49525 0.0
C4449 C 0.63253 0.34373 0.46581 0.0
C4450 C 0.66006 0.38042 0.51662 0.0
C4451 C 0.645 0.37283 0.53198 0.0
C4452 C 0.63928 0.3525 0.48903 0.0
C4453 C 0.62823 0.35397 0.52567 0.0
C4454 C 0.64104 0.3548 0.44786 0.0
C4455 C 0.60426 0.32005 0.44155 0.0
N4456 N 0.62564 0.3447 0.5046 0.0
N4457 N 0.61486 0.32631 0.46187 0.0
H4458 H 0.10044 0.84412 0.1831 0.0
H4459 H 0.12202 0.89809 0.30693 0.0
H4460 H 0.15817 0.89487 0.20608 0.0
H4461 H 0.07648 0.83602 0.28659 0.0
H4462 H 0.13492 0.89875 0.27005 0.0
H4463 H 0.08811 0.84503 0.22019 0.0
C4464 C 0.11 0.85619 0.19571 0.0
C4465 C 0.13043 0.86937 0.1916 0.0
C4466 C 0.12248 0.8847 0.27377 0.0
C4467 C 0.11695 0.86979 0.23413 0.0
C4468 C 0.11551 0.88408 0.29492 0.0
C4469 C 0.09839 0.86685 0.29978 0.0
C4470 C 0.11194 0.86817 0.25732 0.0
C4471 C 0.08999 0.84939 0.28356 0.0
C4472 C 0.10326 0.85627 0.21701 0.0
C4473 C 0.14232 0.88444 0.20865 0.0
N4474 N 0.09653 0.85071 0.26286 0.0
N4475 N 0.13559 0.884 0.22929 0.0
H4476 H 0.63349 0.39667 0.04399 0.0
H4477 H 0.58558 0.34753 0.92185 0.0
H4478 H 0.57243 0.34796 0.02863 0.0
H4479 H 0.64546 0.39788 0.93767 0.0
H4480 H 0.57701 0.3518 0.96035 0.0
H4481 H 0.63448 0.40241 0.00475 0.0
C4482 C 0.61994 0.38772 0.03247 0.0
C4483 C 0.60303 0.37163 0.03952 0.0
C4484 C 0.59189 0.3621 0.95528 0.0
C4485 C 0.60429 0.37758 -0.00538 0.0
C4486 C 0.59673 0.35966 0.93328 0.0
C4487 C 0.61647 0.372 0.92657 0.0
C4488 C 0.60688 0.377 0.97059 0.0
C4489 C 0.63028 0.38759 0.94214 0.0
C4490 C 0.6206 0.39078 0.01002 0.0
C4491 C 0.58598 0.36031 0.02382 0.0
N4492 N 0.62536 0.38945 0.96337 0.0
N4493 N 0.58723 0.36322 0.00212 0.0
H4494 H 0.14547 0.91077 0.694 0.0
H4495 H 0.08318 0.82481 0.77261 0.0
H4496 H 0.08807 0.85925 0.67254 0.0
H4497 H 0.13751 0.87912 0.79593 0.0
H4498 H 0.08354 0.83847 0.73614 0.0
H4499 H 0.14453 0.89809 0.73112 0.0
C4500 C 0.13337 0.89609 0.69689 0.0
C4501 C 0.117 0.88579 0.68026 0.0
C4502 C 0.09511 0.84772 0.7493 0.0
C4503 C 0.11495 0.87207 0.72266 0.0
C4504 C 0.09451 0.84021 0.77024 0.0
C4505 C 0.11037 0.8508 0.78722 0.0
C4506 C 0.11179 0.86584 0.74534 0.0
C4507 C 0.12493 0.87051 0.78328 0.0
C4508 C 0.13243 0.88925 0.71818 0.0
C4509 C 0.10116 0.86737 0.68494 0.0
N4510 N 0.12565 0.87714 0.76256 0.0
N4511 N 0.10033 0.86126 0.70578 0.0
H4512 H 0.59283 0.34625 0.17167 0.0
H4513 H 0.6119 0.3731 0.30186 0.0
H4514 H 0.6497 0.39171 0.20557 0.0
H4515 H 0.54926 0.33769 0.26925 0.0
H4516 H 0.6275 0.37563 0.2663 0.0
H4517 H 0.57606 0.34219 0.20657 0.0
C4518 C 0.6014 0.3561 0.18628 0.0
C4519 C 0.6229 0.36906 0.18583 0.0
C4520 C 0.61048 0.36683 0.26689 0.0
C4521 C 0.60428 0.3637 0.22579 0.0
C4522 C 0.60183 0.36484 0.28724 0.0
C4523 C 0.57948 0.35484 0.28836 0.0
C4524 C 0.59652 0.35895 0.24761 0.0
C4525 C 0.56675 0.3451 0.26896 0.0
C4526 C 0.59202 0.35337 0.20628 0.0
C4527 C 0.63321 0.38135 0.20528 0.0
N4528 N 0.57535 0.3477 0.24924 0.0
N4529 N 0.62404 0.37798 0.22456 0.0
H4530 H 0.13267 0.89538 0.04876 0.0
H4531 H 0.08229 0.84391 0.92916 0.0
H4532 H 0.07327 0.84397 0.03623 0.0
H4533 H 0.13333 0.9036 0.94163 0.0
H4534 H 0.07493 0.84696 0.96808 0.0
H4535 H 0.12984 0.90241 0.00973 0.0
C4536 C 0.11874 0.88601 0.03795 0.0
C4537 C 0.10346 0.86881 0.04564 0.0
C4538 C 0.08744 0.85965 0.96218 0.0
C4539 C 0.10029 0.87634 0.00101 0.0
C4540 C 0.0915 0.85795 0.93992 0.0
C4541 C 0.1087 0.87326 0.93227 0.0
C4542 C 0.10079 0.87668 0.97677 0.0
C4543 C 0.12021 0.89113 0.94697 0.0
C4544 C 0.11716 0.88989 0.01563 0.0
C4545 C 0.08572 0.8571 0.03088 0.0
N4546 N 0.11634 0.89213 0.96852 0.0
N4547 N 0.08485 0.86079 0.00926 0.0
H4548 H 0.63484 0.37737 0.78713 0.0
H4549 H 0.58318 0.35623 0.66238 0.0
H4550 H 0.57985 0.32345 0.76443 0.0
H4551 H 0.64627 0.39962 0.68359 0.0
H4552 H 0.58092 0.34396 0.69944 0.0
H4553 H 0.636 0.3889 0.74979 0.0
C4554 C 0.62228 0.36859 0.77452 0.0
C4555 C 0.60732 0.34927 0.77884 0.0
C4556 C 0.59555 0.35574 0.6959 0.0
C4557 C 0.60923 0.36178 0.73594 0.0
C4558 C 0.5971 0.3623 0.67462 0.0
C4559 C 0.61504 0.37877 0.66994 0.0
C4560 C 0.61191 0.366 0.71263 0.0
C4561 C 0.63235 0.38662 0.68648 0.0
C4562 C 0.62338 0.3748 0.75306 0.0
C4563 C 0.59166 0.33841 0.76175 0.0
N4564 N 0.63013 0.38054 0.70727 0.0
N4565 N 0.59329 0.34454 0.74093 0.0
H4566 H 0.07475 0.80951 0.44992 0.0
H4567 H 0.12314 0.83874 0.55491 0.0
H4568 H 0.13143 0.85358 0.42831 0.0
H4569 H 0.1645 0.89228 0.5257 0.0
H4570 H 0.11315 0.819 0.51856 0.0
H4571 H 0.09265 0.815 0.48696 0.0
C4572 C 0.09121 0.82004 0.45289 0.0
C4573 C 0.10137 0.83148 0.43601 0.0
C4574 C 0.12433 0.83509 0.51999 0.0
C4575 C 0.12242 0.83761 0.47868 0.0
C4576 C 0.13032 0.84624 0.54088 0.0
C4577 C 0.14408 0.86755 0.54329 0.0
C4578 C 0.13196 0.84552 0.50142 0.0
C4579 C 0.15329 0.87619 0.52459 0.0
C4580 C 0.10162 0.82302 0.47418 0.0
C4581 C 0.1228 0.84467 0.44085 0.0
N4582 N 0.14675 0.86533 0.50443 0.0
N4583 N 0.13242 0.84766 0.4618 0.0
H4584 H 0.5456 0.12691 0.41693 0.0
H4585 H 0.41637 0.08308 0.37939 0.0
H4586 H 0.51812 0.0608 0.38671 0.0
H4587 H 0.44425 0.14811 0.41227 0.0
H4588 H 0.45229 0.07208 0.38764 0.0
H4589 H 0.50769 0.13217 0.42227 0.0
C4590 C 0.53167 0.11315 0.4123 0.0
C4591 C 0.53501 0.09345 0.40126 0.0
C4592 C 0.45041 0.08866 0.39329 0.0
C4593 C 0.49151 0.09961 0.40642 0.0
C4594 C 0.42987 0.09492 0.38858 0.0
C4595 C 0.42731 0.11668 0.39475 0.0
C4596 C 0.4685 0.10426 0.40427 0.0
C4597 C 0.44546 0.13128 0.40675 0.0
C4598 C 0.50995 0.11626 0.41499 0.0
C4599 C 0.51625 0.07632 0.39519 0.0
N4600 N 0.46524 0.12492 0.41086 0.0
N4601 N 0.49534 0.07994 0.39742 0.0
H4602 H 0.68823 0.63033 0.91327 0.0
H4603 H 0.7894 0.61678 0.84505 0.0
H4604 H 0.68158 0.58664 0.85403 0.0
H4605 H 0.79968 0.625 0.91571 0.0
H4606 H 0.74936 0.61416 0.84763 0.0
H4607 H 0.72865 0.63241 0.91588 0.0
C4608 C 0.6951 0.62005 0.90156 0.0
C4609 C 0.68153 0.6084 0.88331 0.0
C4610 C 0.76047 0.6171 0.86257 0.0
C4611 C 0.72771 0.61205 0.88529 0.0
C4612 C 0.7834 0.61936 0.86107 0.0
C4613 C 0.7979 0.62134 0.88019 0.0
C4614 C 0.75208 0.61726 0.88333 0.0
C4615 C 0.78907 0.62381 0.90059 0.0
C4616 C 0.71824 0.62181 0.90269 0.0
C4617 C 0.69141 0.59577 0.86838 0.0
N4618 N 0.76666 0.62143 0.90168 0.0
N4619 N 0.714 0.59864 0.86917 0.0
H4620 H 0.3392 0.93212 0.08837 0.0
H4621 H 0.40692 0.05683 0.08025 0.0
H4622 H 0.39225 0.94653 0.04596 0.0
H4623 H 0.3703 0.03668 0.13536 0.0
H4624 H 0.39785 0.01784 0.06405 0.0
H4625 H 0.34779 0.9711 0.10353 0.0
C4626 C 0.3531 0.94341 0.08268 0.0
C4627 C 0.36539 0.93588 0.06628 0.0
C4628 C 0.39149 0.02205 0.07951 0.0
C4629 C 0.37466 0.98111 0.0828 0.0
C4630 C 0.39627 0.04439 0.08853 0.0
C4631 C 0.38898 0.05015 0.10901 0.0
C4632 C 0.37914 0.00536 0.09095 0.0
C4633 C 0.37593 0.0331 0.11938 0.0
C4634 C 0.35783 0.96577 0.09115 0.0
C4635 C 0.38277 0.95147 0.05902 0.0
N4636 N 0.37148 0.01163 0.1103 0.0
N4637 N 0.38674 0.97337 0.06715 0.0
H4638 H 0.67765 0.54906 0.38066 0.0
H4639 H 0.78763 0.638 0.37788 0.0
H4640 H 0.67645 0.61822 0.37368 0.0
H4641 H 0.77821 0.57945 0.33236 0.0
H4642 H 0.74916 0.6263 0.38749 0.0
H4643 H 0.71648 0.55575 0.37078 0.0
C4644 C 0.68533 0.56543 0.3763 0.0
C4645 C 0.67379 0.58305 0.37753 0.0
C4646 C 0.7558 0.61576 0.37583 0.0
C4647 C 0.71823 0.59102 0.36792 0.0
C4648 C 0.77781 0.62216 0.37071 0.0
C4649 C 0.78604 0.60953 0.35447 0.0
C4650 C 0.74225 0.5964 0.36499 0.0
C4651 C 0.77243 0.58945 0.34514 0.0
C4652 C 0.70747 0.56927 0.37102 0.0
C4653 C 0.68463 0.60412 0.37241 0.0
N4654 N 0.75107 0.58348 0.35047 0.0
N4655 N 0.70645 0.60766 0.36831 0.0
H4656 H 0.12688 0.26119 0.32647 0.0
H4657 H 0.1167 0.19322 0.43269 0.0
H4658 H 0.10063 0.28461 0.38526 0.0
H4659 H 0.12067 0.16228 0.36792 0.0
H4660 H 0.11369 0.22788 0.41631 0.0
H4661 H 0.12632 0.22527 0.34161 0.0
C4662 C 0.12059 0.25863 0.34237 0.0
C4663 C 0.11383 0.27598 0.3546 0.0
C4664 C 0.11514 0.21344 0.40572 0.0
C4665 C 0.11371 0.23509 0.37231 0.0
C4666 C 0.11697 0.19365 0.41508 0.0
C4667 C 0.11866 0.17462 0.4017 0.0
C4668 C 0.11537 0.21434 0.38285 0.0
C4669 C 0.11923 0.17641 0.37894 0.0
C4670 C 0.12038 0.23816 0.35107 0.0
C4671 C 0.10588 0.27171 0.37517 0.0
N4672 N 0.11763 0.19588 0.37027 0.0
N4673 N 0.10635 0.25182 0.38352 0.0
H4674 H 0.53336 0.25534 0.37111 0.0
H4675 H 0.64088 0.20161 0.36315 0.0
H4676 H 0.58502 0.27538 0.32798 0.0
H4677 H 0.58485 0.17283 0.39771 0.0
H4678 H 0.62159 0.23108 0.3532 0.0
H4679 H 0.55089 0.2245 0.38071 0.0
C4680 C 0.54795 0.25287 0.36305 0.0
C4681 C 0.55816 0.26846 0.34924 0.0
C4682 C 0.61362 0.21854 0.36325 0.0
C4683 C 0.57859 0.23366 0.36075 0.0
C4684 C 0.62485 0.20201 0.36934 0.0
C4685 C 0.61437 0.18471 0.3811 0.0
C4686 C 0.5918 0.21781 0.36909 0.0
C4687 C 0.59356 0.18592 0.38868 0.0
C4688 C 0.55816 0.23545 0.36888 0.0
C4689 C 0.57686 0.26413 0.33913 0.0
N4690 N 0.58274 0.20201 0.38221 0.0
N4691 N 0.5868 0.24745 0.3455 0.0
H4692 H 0.13402 0.04108 0.88449 0.0
H4693 H 0.11099 0.91663 0.82951 0.0
H4694 H 0.08285 0.01581 0.83172 0.0
H4695 H 0.16785 0.94472 0.87546 0.0
H4696 H 0.10239 0.95363 0.82766 0.0
H4697 H 0.14781 0.00652 0.88002 0.0
C4698 C 0.1256 0.02822 0.87201 0.0
C4699 C 0.10709 0.03127 0.85859 0.0
C4700 C 0.11693 0.9518 0.83791 0.0
C4701 C 0.12299 -0.0083 0.85324 0.0
C4702 C 0.1219 0.93068 0.83893 0.0
C4703 C 0.13995 0.92756 0.85295 0.0
C4704 C 0.12995 0.9699 0.85121 0.0
C4705 C 0.15368 0.94636 0.86456 0.0
C4706 C 0.13363 0.00856 0.86934 0.0
C4707 C 0.0971 0.01415 0.84248 0.0
N4708 N 0.14816 0.9667 0.86373 0.0
N4709 N 0.1051 -0.00496 0.84035 0.0
H4710 H 0.56637 0.87324 0.07129 0.0
H4711 H 0.45003 0.91074 0.08011 0.0
H4712 H 0.54355 0.89933 0.1308 0.0
H4713 H 0.4625 0.86848 0.02484 0.0
H4714 H 0.48829 0.91355 0.09516 0.0
H4715 H 0.53022 0.87404 0.05177 0.0
C4716 C 0.55341 0.87831 0.08038 0.0
C4717 C 0.55773 0.88628 0.10257 0.0
C4718 C 0.48272 0.90389 0.07959 0.0
C4719 C 0.51734 0.88841 0.08038 0.0
C4720 C 0.46097 0.90255 0.07082 0.0
C4721 C 0.45282 0.88857 0.05171 0.0
C4722 C 0.49628 0.89123 0.06909 0.0
C4723 C 0.46793 0.87888 0.04003 0.0
C4724 C 0.53308 0.87928 0.06917 0.0
C4725 C 0.54078 0.89323 0.11361 0.0
N4726 N 0.48889 0.87991 0.04922 0.0
N4727 N 0.52138 0.89443 0.10232 0.0
H4728 H 0.4608 0.3865 0.52003 0.0
H4729 H 0.55321 0.42579 0.61962 0.0
H4730 H 0.44767 0.41379 0.58366 0.0
H4731 H 0.56018 0.38149 0.56376 0.0
H4732 H 0.51726 0.42968 0.60304 0.0
H4733 H 0.50052 0.3952 0.5316 0.0
C4734 C 0.46628 0.39487 0.53624 0.0
C4735 C 0.45091 0.39851 0.55134 0.0
C4736 C 0.52663 0.4191 0.5944 0.0
C4737 C 0.49605 0.40824 0.56452 0.0
C4738 C 0.54709 0.41673 0.60392 0.0
C4739 C 0.55959 0.40317 0.59309 0.0
C4740 C 0.51858 0.4078 0.57391 0.0
C4741 C 0.55083 0.39179 0.57279 0.0
C4742 C 0.48893 0.39965 0.54284 0.0
C4743 C 0.45895 0.41002 0.57179 0.0
N4744 N 0.53075 0.39437 0.56379 0.0
N4745 N 0.48106 0.41402 0.57802 0.0
H4746 H 0.118 0.66029 0.86607 0.0
H4747 H 0.09325 0.78281 0.88638 0.0
H4748 H 0.11419 0.69176 0.93066 0.0
H4749 H 0.12164 0.76061 0.82844 0.0
H4750 H 0.09261 0.74623 0.90036 0.0
H4751 H 0.11292 0.69449 0.85016 0.0
C4752 C 0.11612 0.67435 0.87697 0.0
C4753 C 0.11631 0.67296 0.89981 0.0
C4754 C 0.09864 0.74929 0.88443 0.0
C4755 C 0.11005 0.71208 0.88151 0.0
C4756 C 0.09867 0.77002 0.87628 0.0
C4757 C 0.10757 0.77473 0.85625 0.0
C4758 C 0.1073 0.73317 0.8723 0.0
C4759 C 0.11474 0.75766 0.84401 0.0
C4760 C 0.11312 0.69385 0.86781 0.0
C4761 C 0.11386 0.69185 0.91299 0.0
N4762 N 0.11459 0.73767 0.85229 0.0
N4763 N 0.11069 0.71059 0.90364 0.0
H4764 H 0.86479 0.80495 0.59933 0.0
H4765 H 0.90952 0.70049 0.63268 0.0
H4766 H 0.93235 0.80299 0.58576 0.0
H4767 H 0.84792 0.69409 0.59208 0.0
H4768 H 0.92023 0.73946 0.6238 0.0
H4769 H 0.85964 0.76603 0.60839 0.0
C4770 C 0.87885 0.79667 0.59929 0.0
C4771 C 0.89909 0.80718 0.59205 0.0
C4772 C 0.90466 0.72926 0.61643 0.0
C4773 C 0.89316 0.7628 0.60178 0.0
C4774 C 0.89874 0.70701 0.62113 0.0
C4775 C 0.878 0.69402 0.61275 0.0
C4776 C 0.88931 0.73862 0.60405 0.0
C4777 C 0.86424 0.70343 0.59849 0.0
C4778 C 0.87575 0.77438 0.60394 0.0
C4779 C 0.91659 0.79545 0.59155 0.0
N4780 N 0.86986 0.72538 0.59505 0.0
N4781 N 0.91323 0.77377 0.59628 0.0
H4782 H 0.36594 0.69164 0.63482 0.0
H4783 H 0.35165 0.79142 0.5638 0.0
H4784 H 0.35637 0.68033 0.56429 0.0
H4785 H 0.39353 0.7994 0.62445 0.0
H4786 H 0.34962 0.75105 0.56236 0.0
H4787 H 0.36763 0.73147 0.63174 0.0
C4788 C 0.3628 0.69733 0.61874 0.0
C4789 C 0.36088 0.68261 0.5998 0.0
C4790 C 0.3598 0.76171 0.57564 0.0
C4791 C 0.36397 0.72828 0.59604 0.0
C4792 C 0.36158 0.78484 0.57611 0.0
C4793 C 0.37266 0.79882 0.59436 0.0
C4794 C 0.36904 0.75264 0.59366 0.0
C4795 C 0.38483 0.78927 0.61006 0.0
C4796 C 0.36458 0.72018 0.61694 0.0
C4797 C 0.35759 0.69108 0.57931 0.0
N4798 N 0.38198 0.76671 0.60984 0.0
N4799 N 0.35961 0.71344 0.5779 0.0
H4800 H 0.85627 0.93932 0.0553 0.0
H4801 H 0.89757 0.06717 0.0963 0.0
H4802 H 0.92258 0.96704 0.08494 0.0
H4803 H 0.83414 0.03971 0.05996 0.0
H4804 H 0.9099 0.03224 0.0864 0.0
H4805 H 0.8509 0.97711 0.04966 0.0
C4806 C 0.87006 0.95327 0.05969 0.0
C4807 C 0.88979 0.95007 0.0708 0.0
C4808 C 0.8934 0.03404 0.08031 0.0
C4809 C 0.8835 -0.00657 0.06537 0.0
C4810 C 0.8864 0.05401 0.08595 0.0
C4811 C 0.86463 0.05622 0.0794 0.0
C4812 C 0.8785 0.01624 0.06805 0.0
C4813 C 0.8509 0.0386 0.06589 0.0
C4814 C 0.86689 0.97494 0.05683 0.0
C4815 C 0.907 0.96884 0.07649 0.0
N4816 N 0.85792 0.01935 0.06095 0.0
N4817 N 0.90328 0.98972 0.07423 0.0
H4818 H 0.53187 0.0853 0.92563 0.0
H4819 H 0.44093 0.10874 0.83434 0.0
H4820 H 0.54411 0.14024 0.88506 0.0
H4821 H 0.42197 0.07196 0.88974 0.0
H4822 H 0.47952 0.11789 0.8507 0.0
H4823 H 0.4927 0.07617 0.90976 0.0
C4824 C 0.52651 0.09497 0.91288 0.0
C4825 C 0.5414 0.11332 0.90636 0.0
C4826 C 0.46692 0.1081 0.85951 0.0
C4827 C 0.49654 0.10339 0.88858 0.0
C4828 C 0.44481 0.10309 0.85028 0.0
C4829 C 0.42807 0.08994 0.86087 0.0
C4830 C 0.47267 0.09941 0.87928 0.0
C4831 C 0.43423 0.08257 0.88125 0.0
C4832 C 0.50407 0.09003 0.90414 0.0
C4833 C 0.53331 0.12576 0.89032 0.0
N4834 N 0.45606 0.08714 0.88965 0.0
N4835 N 0.51158 0.12057 0.882 0.0
H4836 H 0.54936 0.64046 0.38418 0.0
H4837 H 0.423 0.57867 0.39407 0.0
H4838 H 0.53249 0.5878 0.42668 0.0
H4839 H 0.44361 0.61533 0.33906 0.0
H4840 H 0.46211 0.58604 0.40966 0.0
H4841 H 0.51027 0.63404 0.36946 0.0
C4842 C 0.53748 0.62704 0.38991 0.0
C4843 C 0.54432 0.61423 0.40623 0.0
C4844 C 0.458 0.59283 0.39439 0.0
C4845 C 0.4991 0.60757 0.39034 0.0
C4846 C 0.4356 0.58906 0.38574 0.0
C4847 C 0.42994 0.59676 0.36541 0.0
C4848 C 0.47485 0.60456 0.38273 0.0
C4849 C 0.44715 0.60942 0.35494 0.0
C4850 C 0.51509 0.62359 0.38173 0.0
C4851 C 0.52805 0.5976 0.41364 0.0
N4852 N 0.46872 0.61284 0.36364 0.0
N4853 N 0.50617 0.5949 0.40583 0.0
H4854 H 0.92807 0.30915 0.0922 0.0
H4855 H 0.83852 0.19857 0.09435 0.0
H4856 H 0.85864 0.30904 0.0988 0.0
H4857 H 0.90148 0.2052 0.13269 0.0
H4858 H 0.84923 0.23754 0.08604 0.0
H4859 H 0.92183 0.27 0.10094 0.0
C4860 C 0.91175 0.30114 0.09642 0.0
C4861 C 0.89391 0.31239 0.0952 0.0
C4862 C 0.86092 0.23022 0.09578 0.0
C4863 C 0.88641 0.26751 0.10346 0.0
C4864 C 0.85507 0.20787 0.10003 0.0
C4865 C 0.86927 0.19867 0.114 0.0
C4866 C 0.88126 0.24321 0.10522 0.0
C4867 C 0.89025 0.21169 0.12159 0.0
C4868 C 0.90814 0.27878 0.10097 0.0
C4869 C 0.87291 0.3011 0.10006 0.0
N4870 N 0.89562 0.23343 0.11723 0.0
N4871 N 0.8696 0.27909 0.10345 0.0
H4872 H 0.61243 0.78714 0.8453 0.0
H4873 H 0.59554 0.67414 0.90408 0.0
H4874 H 0.5495 0.75284 0.86519 0.0
H4875 H 0.65207 0.6955 0.86718 0.0
H4876 H 0.58203 0.70779 0.89601 0.0
H4877 H 0.62909 0.75577 0.85514 0.0
C4878 C 0.60193 0.7728 0.85116 0.0
C4879 C 0.57967 0.77294 0.85505 0.0
C4880 C 0.59762 0.7053 0.89002 0.0
C4881 C 0.59886 0.73757 0.86705 0.0
C4882 C 0.60564 0.6864 0.89513 0.0
C4883 C 0.62471 0.68195 0.88593 0.0
C4884 C 0.60893 0.71976 0.87586 0.0
C4885 C 0.6371 0.69831 0.8743 0.0
C4886 C 0.61158 0.75509 0.85711 0.0
C4887 C 0.56686 0.75374 0.86239 0.0
N4888 N 0.62874 0.71636 0.86916 0.0
N4889 N 0.57678 0.73703 0.86863 0.0
H4890 H 0.17482 0.44501 0.37857 0.0
H4891 H 0.08541 0.51296 0.33199 0.0
H4892 H 0.11947 0.41752 0.33071 0.0
H4893 H 0.13473 0.53895 0.38619 0.0
H4894 H 0.10106 0.47957 0.32814 0.0
H4895 H 0.16445 0.48163 0.37758 0.0
C4896 C 0.16084 0.44682 0.36748 0.0
C4897 C 0.14776 0.42825 0.35494 0.0
C4898 C 0.10849 0.49254 0.34091 0.0
C4899 C 0.13568 0.4697 0.35394 0.0
C4900 C 0.0995 0.51161 0.34316 0.0
C4901 C 0.1087 0.52874 0.35951 0.0
C4902 C 0.12679 0.49045 0.35516 0.0
C4903 C 0.12696 0.52604 0.37351 0.0
C4904 C 0.15479 0.46762 0.36709 0.0
C4905 C 0.12977 0.4314 0.3409 0.0
N4906 N 0.13541 0.50721 0.37103 0.0
N4907 N 0.12414 0.45166 0.34094 0.0
H4908 H 0.34146 0.29094 0.0652 0.0
H4909 H 0.35653 0.19022 0.13474 0.0
H4910 H 0.38215 0.29817 0.12653 0.0
H4911 H 0.34626 0.18019 0.06417 0.0
H4912 H 0.35722 0.22997 0.13253 0.0
H4913 H 0.33945 0.25056 0.06331 0.0
C4914 C 0.35111 0.28417 0.07759 0.0
C4915 C 0.36189 0.29788 0.09611 0.0
C4916 C 0.35424 0.21896 0.11753 0.0
C4917 C 0.35829 0.2518 0.09489 0.0
C4918 C 0.35302 0.19614 0.11885 0.0
C4919 C 0.35138 0.18193 0.09961 0.0
C4920 C 0.35335 0.22744 0.09683 0.0
C4921 C 0.34742 0.19063 0.07939 0.0
C4922 C 0.34936 0.26107 0.07685 0.0
C4923 C 0.37372 0.2882 0.11194 0.0
N4924 N 0.34901 0.21296 0.07844 0.0
N4925 N 0.37093 0.26564 0.11141 0.0
H4926 H 0.83368 0.53547 0.5526 0.0
H4927 H 0.92081 0.45782 0.57781 0.0
H4928 H 0.89764 0.55891 0.58939 0.0
H4929 H 0.85202 0.43292 0.5543 0.0
H4930 H 0.91609 0.49575 0.57226 0.0
H4931 H 0.84359 0.49949 0.54448 0.0
C4932 C 0.84997 0.53319 0.55885 0.0
C4933 C 0.8647 0.55032 0.57211 0.0
C4934 C 0.90219 0.48198 0.56767 0.0
C4935 C 0.87618 0.50868 0.56262 0.0
C4936 C 0.90496 0.46025 0.57045 0.0
C4937 C 0.88679 0.44213 0.56643 0.0
C4938 C 0.88103 0.48572 0.56085 0.0
C4939 C 0.86654 0.44631 0.55734 0.0
C4940 C 0.8556 0.51253 0.55412 0.0
C4941 C 0.88567 0.54626 0.57928 0.0
N4942 N 0.86408 0.46771 0.55526 0.0
N4943 N 0.89067 0.52577 0.57467 0.0
loop_
_geom_bond_atom_site_label_1
_geom_bond_atom_site_label_2
_geom_bond_distance
_geom_bond_site_symmetry_2
_ccdc_geom_bond_type
C0 O27 1.312 . S
C0 O28 1.208 . S
C1 O22 1.331 . S
C1 O25 1.244 . S
C2 O24 1.264 . S
C2 O26 1.273 . S
Mg3 O5 1.936 . S
Mg3 O12 2.081 . S
Mg3 O14 2.023 . S
Mg3 O18 2.031 . S
Mg3 O27 2.291 . S
Mg4 O5 1.963 . S
Mg4 O15 1.942 . S
Mg4 O16 1.955 . S
Mg4 O23 1.986 . S
O5 Mg3 1.936 . S
O5 Mg4 1.963 . S
O5 Mg6 1.915 . S
Mg6 O5 1.915 . S
Mg6 O7 1.915 . S
Mg6 O11 2.013 . S
Mg6 O17 2.114 . S
Mg6 O21 2.013 . S
Mg6 O27 2.114 . S
O7 Mg6 1.915 . S
O7 Mg8 1.936 . S
O7 Mg9 1.963 . S
Mg8 O7 1.936 . S
Mg8 O17 2.291 . S
Mg8 O22 2.081 . S
Mg8 O24 2.023 . S
Mg8 O28 2.031 . S
Mg9 O7 1.963 . S
Mg9 O13 1.986 . S
Mg9 O25 1.942 . S
Mg9 O26 1.955 . S
C10 O21 1.191 . S
C10 O23 1.307 . S
O11 Mg6 2.013 . S
O11 C30 1.191 . S
O12 Mg3 2.081 . S
O12 C20 1.331 . S
O13 Mg9 1.986 . S
O13 C30 1.307 . S
O14 Mg3 2.023 . S
O14 C29 1.264 . S
O15 Mg4 1.942 . S
O15 C20 1.244 . S
O16 Mg4 1.955 . S
O16 C29 1.273 . S
O17 Mg6 2.114 . S
O17 Mg8 2.291 . S
O17 C19 1.312 . S
O18 Mg3 2.031 . S
O18 C19 1.208 . S
C19 O17 1.312 . S
C19 O18 1.208 . S
C20 O12 1.331 . S
C20 O15 1.244 . S
O21 Mg6 2.013 . S
O21 C10 1.191 . S
O22 C1 1.331 . S
O22 Mg8 2.081 . S
O23 Mg4 1.986 . S
O23 C10 1.307 . S
O24 C2 1.264 . S
O24 Mg8 2.023 . S
O25 C1 1.244 . S
O25 Mg9 1.942 . S
O26 C2 1.273 . S
O26 Mg9 1.955 . S
O27 C0 1.312 . S
O27 Mg3 2.291 . S
O27 Mg6 2.114 . S
O28 C0 1.208 . S
O28 Mg8 2.031 . S
C29 O14 1.264 . S
C29 O16 1.273 . S
C30 O11 1.191 . S
C30 O13 1.307 . S
C31 O58 1.312 . S
C31 O59 1.208 . S
C32 O53 1.331 . S
C32 O56 1.244 . S
C33 O55 1.264 . S
C33 O57 1.273 . S
Mg34 O36 1.936 . S
Mg34 O43 2.081 . S
Mg34 O45 2.023 . S
Mg34 O49 2.031 . S
Mg34 O58 2.291 . S
Mg35 O36 1.963 . S
Mg35 O46 1.942 . S
Mg35 O47 1.955 . S
Mg35 O54 1.986 . S
O36 Mg34 1.936 . S
O36 Mg35 1.963 . S
O36 Mg37 1.915 . S
Mg37 O36 1.915 . S
Mg37 O38 1.915 . S
Mg37 O42 2.013 . S
Mg37 O48 2.114 . S
Mg37 O52 2.013 . S
Mg37 O58 2.114 . S
O38 Mg37 1.915 . S
O38 Mg39 1.936 . S
O38 Mg40 1.963 . S
Mg39 O38 1.936 . S
Mg39 O48 2.291 . S
Mg39 O53 2.081 . S
Mg39 O55 2.023 . S
Mg39 O59 2.031 . S
Mg40 O38 1.963 . S
Mg40 O44 1.986 . S
Mg40 O56 1.942 . S
Mg40 O57 1.955 . S
C41 O52 1.191 . S
C41 O54 1.307 . S
O42 Mg37 2.013 . S
O42 C61 1.191 . S
O43 Mg34 2.081 . S
O43 C51 1.331 . S
O44 Mg40 1.986 . S
O44 C61 1.307 . S
O45 Mg34 2.023 . S
O45 C60 1.264 . S
O46 Mg35 1.942 . S
O46 C51 1.244 . S
O47 Mg35 1.955 . S
O47 C60 1.273 . S
O48 Mg37 2.114 . S
O48 Mg39 2.291 . S
O48 C50 1.312 . S
O49 Mg34 2.031 . S
O49 C50 1.208 . S
C50 O48 1.312 . S
C50 O49 1.208 . S
C51 O43 1.331 . S
C51 O46 1.244 . S
O52 Mg37 2.013 . S
O52 C41 1.191 . S
O53 C32 1.331 . S
O53 Mg39 2.081 . S
O54 Mg35 1.986 . S
O54 C41 1.307 . S
O55 C33 1.264 . S
O55 Mg39 2.023 . S
O56 C32 1.244 . S
O56 Mg40 1.942 . S
O57 C33 1.273 . S
O57 Mg40 1.955 . S
O58 C31 1.312 . S
O58 Mg34 2.291 . S
O58 Mg37 2.114 . S
O59 C31 1.208 . S
O59 Mg39 2.031 . S
C60 O45 1.264 . S
C60 O47 1.273 . S
C61 O42 1.191 . S
C61 O44 1.307 . S
C62 O89 1.312 . S
C62 O90 1.208 . S
C63 O84 1.331 . S
C63 O87 1.244 . S
C64 O86 1.264 . S
C64 O88 1.273 . S
Mg65 O67 1.936 . S
Mg65 O74 2.081 . S
Mg65 O76 2.023 . S
Mg65 O80 2.031 . S
Mg65 O89 2.291 . S
Mg66 O67 1.963 1_554 S
Mg66 O77 1.942 . S
Mg66 O78 1.955 . S
Mg66 O85 1.986 . S
O67 Mg65 1.936 . S
O67 Mg66 1.963 1_556 S
O67 Mg68 1.915 . S
Mg68 O67 1.915 . S
Mg68 O69 1.915 . S
Mg68 O73 2.013 . S
Mg68 O79 2.114 . S
Mg68 O83 2.013 . S
Mg68 O89 2.114 . S
O69 Mg68 1.915 . S
O69 Mg70 1.936 . S
O69 Mg71 1.963 . S
Mg70 O69 1.936 . S
Mg70 O79 2.291 . S
Mg70 O84 2.081 . S
Mg70 O86 2.023 . S
Mg70 O90 2.031 . S
Mg71 O69 1.963 . S
Mg71 O75 1.986 . S
Mg71 O87 1.942 . S
Mg71 O88 1.955 . S
C72 O83 1.191 . S
C72 O85 1.307 1_556 S
O73 Mg68 2.013 . S
O73 C92 1.191 . S
O74 Mg65 2.081 . S
O74 C82 1.331 1_556 S
O75 Mg71 1.986 . S
O75 C92 1.307 . S
O76 Mg65 2.023 . S
O76 C91 1.264 1_556 S
O77 Mg66 1.942 . S
O77 C82 1.244 . S
O78 Mg66 1.955 . S
O78 C91 1.273 . S
O79 Mg68 2.114 . S
O79 Mg70 2.291 . S
O79 C81 1.312 . S
O80 Mg65 2.031 . S
O80 C81 1.208 . S
C81 O79 1.312 . S
C81 O80 1.208 . S
C82 O74 1.331 1_554 S
C82 O77 1.244 . S
O83 Mg68 2.013 . S
O83 C72 1.191 . S
O84 C63 1.331 . S
O84 Mg70 2.081 . S
O85 Mg66 1.986 . S
O85 C72 1.307 1_554 S
O86 C64 1.264 . S
O86 Mg70 2.023 . S
O87 C63 1.244 . S
O87 Mg71 1.942 . S
O88 C64 1.273 . S
O88 Mg71 1.955 . S
O89 C62 1.312 . S
O89 Mg65 2.291 . S
O89 Mg68 2.114 . S
O90 C62 1.208 . S
O90 Mg70 2.031 . S
C91 O76 1.264 1_554 S
C91 O78 1.273 . S
C92 O73 1.191 . S
C92 O75 1.307 . S
C93 O120 1.312 . S
C93 O121 1.208 . S
C94 O115 1.331 . S
C94 O118 1.244 . S
C95 O117 1.264 . S
C95 O119 1.273 . S
Mg96 O98 1.936 . S
Mg96 O105 2.081 . S
Mg96 O107 2.023 . S
Mg96 O111 2.031 . S
Mg96 O120 2.291 . S
Mg97 O98 1.963 . S
Mg97 O108 1.942 . S
Mg97 O109 1.955 . S
Mg97 O116 1.986 . S
O98 Mg96 1.936 . S
O98 Mg97 1.963 . S
O98 Mg99 1.915 . S
Mg99 O98 1.915 . S
Mg99 O100 1.915 . S
Mg99 O104 2.013 . S
Mg99 O110 2.114 . S
Mg99 O114 2.013 . S
Mg99 O120 2.114 . S
O100 Mg99 1.915 . S
O100 Mg101 1.936 . S
O100 Mg102 1.963 . S
Mg101 O100 1.936 . S
Mg101 O110 2.291 . S
Mg101 O115 2.081 . S
Mg101 O117 2.023 . S
Mg101 O121 2.031 . S
Mg102 O100 1.963 . S
Mg102 O106 1.986 . S
Mg102 O118 1.942 . S
Mg102 O119 1.955 . S
C103 O114 1.191 . S
C103 O116 1.307 . S
O104 Mg99 2.013 . S
O104 C123 1.191 . S
O105 Mg96 2.081 . S
O105 C113 1.331 . S
O106 Mg102 1.986 . S
O106 C123 1.307 . S
O107 Mg96 2.023 . S
O107 C122 1.264 . S
O108 Mg97 1.942 . S
O108 C113 1.244 . S
O109 Mg97 1.955 . S
O109 C122 1.273 . S
O110 Mg99 2.114 . S
O110 Mg101 2.291 . S
O110 C112 1.312 . S
O111 Mg96 2.031 . S
O111 C112 1.208 . S
C112 O110 1.312 . S
C112 O111 1.208 . S
C113 O105 1.331 . S
C113 O108 1.244 . S
O114 Mg99 2.013 . S
O114 C103 1.191 . S
O115 C94 1.331 . S
O115 Mg101 2.081 . S
O116 Mg97 1.986 . S
O116 C103 1.307 . S
O117 C95 1.264 . S
O117 Mg101 2.023 . S
O118 C94 1.244 . S
O118 Mg102 1.942 . S
O119 C95 1.273 . S
O119 Mg102 1.955 . S
O120 C93 1.312 . S
O120 Mg96 2.291 . S
O120 Mg99 2.114 . S
O121 C93 1.208 . S
O121 Mg101 2.031 . S
C122 O107 1.264 . S
C122 O109 1.273 . S
C123 O104 1.191 . S
C123 O106 1.307 . S
C124 O151 1.312 . S
C124 O152 1.208 . S
C125 O146 1.331 . S
C125 O149 1.244 . S
C126 O148 1.264 . S
C126 O150 1.273 . S
Mg127 O129 1.936 . S
Mg127 O136 2.081 . S
Mg127 O138 2.023 . S
Mg127 O142 2.031 . S
Mg127 O151 2.291 . S
Mg128 O129 1.963 . S
Mg128 O139 1.942 . S
Mg128 O140 1.955 . S
Mg128 O147 1.986 . S
O129 Mg127 1.936 . S
O129 Mg128 1.963 . S
O129 Mg130 1.915 . S
Mg130 O129 1.915 . S
Mg130 O131 1.915 . S
Mg130 O135 2.013 . S
Mg130 O141 2.114 . S
Mg130 O145 2.013 . S
Mg130 O151 2.114 . S
O131 Mg130 1.915 . S
O131 Mg132 1.936 . S
O131 Mg133 1.963 . S
Mg132 O131 1.936 . S
Mg132 O141 2.291 . S
Mg132 O146 2.081 . S
Mg132 O148 2.023 . S
Mg132 O152 2.031 . S
Mg133 O131 1.963 . S
Mg133 O137 1.986 . S
Mg133 O149 1.942 . S
Mg133 O150 1.955 . S
C134 O145 1.191 . S
C134 O147 1.307 . S
O135 Mg130 2.013 . S
O135 C154 1.191 . S
O136 Mg127 2.081 . S
O136 C144 1.331 . S
O137 Mg133 1.986 . S
O137 C154 1.307 . S
O138 Mg127 2.023 . S
O138 C153 1.264 . S
O139 Mg128 1.942 . S
O139 C144 1.244 . S
O140 Mg128 1.955 . S
O140 C153 1.273 . S
O141 Mg130 2.114 . S
O141 Mg132 2.291 . S
O141 C143 1.312 . S
O142 Mg127 2.031 . S
O142 C143 1.208 . S
C143 O141 1.312 . S
C143 O142 1.208 . S
C144 O136 1.331 . S
C144 O139 1.244 . S
O145 Mg130 2.013 . S
O145 C134 1.191 . S
O146 C125 1.331 . S
O146 Mg132 2.081 . S
O147 Mg128 1.986 . S
O147 C134 1.307 . S
O148 C126 1.264 . S
O148 Mg132 2.023 . S
O149 C125 1.244 . S
O149 Mg133 1.942 . S
O150 C126 1.273 . S
O150 Mg133 1.955 . S
O151 C124 1.312 . S
O151 Mg127 2.291 . S
O151 Mg130 2.114 . S
O152 C124 1.208 . S
O152 Mg132 2.031 . S
C153 O138 1.264 . S
C153 O140 1.273 . S
C154 O135 1.191 . S
C154 O137 1.307 . S
C155 O182 1.312 . S
C155 O183 1.208 . S
C156 O177 1.331 . S
C156 O180 1.244 . S
C157 O179 1.264 . S
C157 O181 1.273 . S
Mg158 O160 1.936 . S
Mg158 O167 2.081 . S
Mg158 O169 2.023 . S
Mg158 O173 2.031 . S
Mg158 O182 2.291 . S
Mg159 O160 1.963 1_556 S
Mg159 O170 1.942 . S
Mg159 O171 1.955 . S
Mg159 O178 1.986 . S
O160 Mg158 1.936 . S
O160 Mg159 1.963 1_554 S
O160 Mg161 1.915 . S
Mg161 O160 1.915 . S
Mg161 O162 1.915 . S
Mg161 O166 2.013 . S
Mg161 O172 2.114 . S
Mg161 O176 2.013 . S
Mg161 O182 2.114 . S
O162 Mg161 1.915 . S
O162 Mg163 1.936 . S
O162 Mg164 1.963 . S
Mg163 O162 1.936 . S
Mg163 O172 2.291 . S
Mg163 O177 2.081 . S
Mg163 O179 2.023 . S
Mg163 O183 2.031 . S
Mg164 O162 1.963 . S
Mg164 O168 1.986 . S
Mg164 O180 1.942 . S
Mg164 O181 1.955 . S
C165 O176 1.191 . S
C165 O178 1.307 1_554 S
O166 Mg161 2.013 . S
O166 C185 1.191 . S
O167 Mg158 2.081 . S
O167 C175 1.331 1_554 S
O168 Mg164 1.986 . S
O168 C185 1.307 . S
O169 Mg158 2.023 . S
O169 C184 1.264 1_554 S
O170 Mg159 1.942 . S
O170 C175 1.244 . S
O171 Mg159 1.955 . S
O171 C184 1.273 . S
O172 Mg161 2.114 . S
O172 Mg163 2.291 . S
O172 C174 1.312 . S
O173 Mg158 2.031 . S
O173 C174 1.208 . S
C174 O172 1.312 . S
C174 O173 1.208 . S
C175 O167 1.331 1_556 S
C175 O170 1.244 . S
O176 Mg161 2.013 . S
O176 C165 1.191 . S
O177 C156 1.331 . S
O177 Mg163 2.081 . S
O178 Mg159 1.986 . S
O178 C165 1.307 1_556 S
O179 C157 1.264 . S
O179 Mg163 2.023 . S
O180 C156 1.244 . S
O180 Mg164 1.942 . S
O181 C157 1.273 . S
O181 Mg164 1.955 . S
O182 C155 1.312 . S
O182 Mg158 2.291 . S
O182 Mg161 2.114 . S
O183 C155 1.208 . S
O183 Mg163 2.031 . S
C184 O169 1.264 1_556 S
C184 O171 1.273 . S
C185 O166 1.191 . S
C185 O168 1.307 . S
C186 O213 1.312 . S
C186 O214 1.208 . S
C187 O208 1.331 . S
C187 O211 1.244 . S
C188 O210 1.264 . S
C188 O212 1.273 . S
Mg189 O191 1.936 . S
Mg189 O198 2.081 . S
Mg189 O200 2.023 . S
Mg189 O204 2.031 . S
Mg189 O213 2.291 . S
Mg190 O191 1.963 . S
Mg190 O201 1.942 . S
Mg190 O202 1.955 . S
Mg190 O209 1.986 . S
O191 Mg189 1.936 . S
O191 Mg190 1.963 . S
O191 Mg192 1.915 . S
Mg192 O191 1.915 . S
Mg192 O193 1.915 . S
Mg192 O197 2.013 . S
Mg192 O203 2.114 . S
Mg192 O207 2.013 . S
Mg192 O213 2.114 . S
O193 Mg192 1.915 . S
O193 Mg194 1.936 . S
O193 Mg195 1.963 . S
Mg194 O193 1.936 . S
Mg194 O203 2.291 . S
Mg194 O208 2.081 . S
Mg194 O210 2.023 . S
Mg194 O214 2.031 . S
Mg195 O193 1.963 . S
Mg195 O199 1.986 . S
Mg195 O211 1.942 . S
Mg195 O212 1.955 . S
C196 O207 1.191 . S
C196 O209 1.307 . S
O197 Mg192 2.013 . S
O197 C216 1.191 . S
O198 Mg189 2.081 . S
O198 C206 1.331 . S
O199 Mg195 1.986 . S
O199 C216 1.307 . S
O200 Mg189 2.023 . S
O200 C215 1.264 . S
O201 Mg190 1.942 . S
O201 C206 1.244 . S
O202 Mg190 1.955 . S
O202 C215 1.273 . S
O203 Mg192 2.114 . S
O203 Mg194 2.291 . S
O203 C205 1.312 . S
O204 Mg189 2.031 . S
O204 C205 1.208 . S
C205 O203 1.312 . S
C205 O204 1.208 . S
C206 O198 1.331 . S
C206 O201 1.244 . S
O207 Mg192 2.013 . S
O207 C196 1.191 . S
O208 C187 1.331 . S
O208 Mg194 2.081 . S
O209 Mg190 1.986 . S
O209 C196 1.307 . S
O210 C188 1.264 . S
O210 Mg194 2.023 . S
O211 C187 1.244 . S
O211 Mg195 1.942 . S
O212 C188 1.273 . S
O212 Mg195 1.955 . S
O213 C186 1.312 . S
O213 Mg189 2.291 . S
O213 Mg192 2.114 . S
O214 C186 1.208 . S
O214 Mg194 2.031 . S
C215 O200 1.264 . S
C215 O202 1.273 . S
C216 O197 1.191 . S
C216 O199 1.307 . S
C217 O244 1.312 . S
C217 O245 1.208 . S
C218 O239 1.331 . S
C218 O242 1.244 . S
C219 O241 1.264 . S
C219 O243 1.273 . S
Mg220 O222 1.936 . S
Mg220 O229 2.081 . S
Mg220 O231 2.023 . S
Mg220 O235 2.031 . S
Mg220 O244 2.291 . S
Mg221 O222 1.963 . S
Mg221 O232 1.942 . S
Mg221 O233 1.955 . S
Mg221 O240 1.986 . S
O222 Mg220 1.936 . S
O222 Mg221 1.963 . S
O222 Mg223 1.915 . S
Mg223 O222 1.915 . S
Mg223 O224 1.915 . S
Mg223 O228 2.013 . S
Mg223 O234 2.114 . S
Mg223 O238 2.013 . S
Mg223 O244 2.114 . S
O224 Mg223 1.915 . S
O224 Mg225 1.936 . S
O224 Mg226 1.963 . S
Mg225 O224 1.936 . S
Mg225 O234 2.291 . S
Mg225 O239 2.081 . S
Mg225 O241 2.023 . S
Mg225 O245 2.031 . S
Mg226 O224 1.963 . S
Mg226 O230 1.986 . S
Mg226 O242 1.942 . S
Mg226 O243 1.955 . S
C227 O238 1.191 . S
C227 O240 1.307 . S
O228 Mg223 2.013 . S
O228 C247 1.191 . S
O229 Mg220 2.081 . S
O229 C237 1.331 . S
O230 Mg226 1.986 . S
O230 C247 1.307 . S
O231 Mg220 2.023 . S
O231 C246 1.264 . S
O232 Mg221 1.942 . S
O232 C237 1.244 . S
O233 Mg221 1.955 . S
O233 C246 1.273 . S
O234 Mg223 2.114 . S
O234 Mg225 2.291 . S
O234 C236 1.312 . S
O235 Mg220 2.031 . S
O235 C236 1.208 . S
C236 O234 1.312 . S
C236 O235 1.208 . S
C237 O229 1.331 . S
C237 O232 1.244 . S
O238 Mg223 2.013 . S
O238 C227 1.191 . S
O239 C218 1.331 . S
O239 Mg225 2.081 . S
O240 Mg221 1.986 . S
O240 C227 1.307 . S
O241 C219 1.264 . S
O241 Mg225 2.023 . S
O242 C218 1.244 . S
O242 Mg226 1.942 . S
O243 C219 1.273 . S
O243 Mg226 1.955 . S
O244 C217 1.312 . S
O244 Mg220 2.291 . S
O244 Mg223 2.114 . S
O245 C217 1.208 . S
O245 Mg225 2.031 . S
C246 O231 1.264 . S
C246 O233 1.273 . S
C247 O228 1.191 . S
C247 O230 1.307 . S
C248 O275 1.312 . S
C248 O276 1.208 . S
C249 O270 1.331 . S
C249 O273 1.244 . S
C250 O272 1.264 . S
C250 O274 1.273 . S
Mg251 O253 1.936 . S
Mg251 O260 2.081 . S
Mg251 O262 2.023 . S
Mg251 O266 2.031 . S
Mg251 O275 2.291 . S
Mg252 O253 1.963 . S
Mg252 O263 1.942 . S
Mg252 O264 1.955 . S
Mg252 O271 1.986 . S
O253 Mg251 1.936 . S
O253 Mg252 1.963 . S
O253 Mg254 1.915 . S
Mg254 O253 1.915 . S
Mg254 O255 1.915 . S
Mg254 O259 2.013 . S
Mg254 O265 2.114 . S
Mg254 O269 2.013 . S
Mg254 O275 2.114 . S
O255 Mg254 1.915 . S
O255 Mg256 1.936 . S
O255 Mg257 1.963 . S
Mg256 O255 1.936 . S
Mg256 O265 2.291 . S
Mg256 O270 2.081 . S
Mg256 O272 2.023 . S
Mg256 O276 2.031 . S
Mg257 O255 1.963 . S
Mg257 O261 1.986 . S
Mg257 O273 1.942 . S
Mg257 O274 1.955 . S
C258 O269 1.191 . S
C258 O271 1.307 . S
O259 Mg254 2.013 . S
O259 C278 1.191 . S
O260 Mg251 2.081 . S
O260 C268 1.331 . S
O261 Mg257 1.986 . S
O261 C278 1.307 . S
O262 Mg251 2.023 . S
O262 C277 1.264 . S
O263 Mg252 1.942 . S
O263 C268 1.244 . S
O264 Mg252 1.955 . S
O264 C277 1.273 . S
O265 Mg254 2.114 . S
O265 Mg256 2.291 . S
O265 C267 1.312 . S
O266 Mg251 2.031 . S
O266 C267 1.208 . S
C267 O265 1.312 . S
C267 O266 1.208 . S
C268 O260 1.331 . S
C268 O263 1.244 . S
O269 Mg254 2.013 . S
O269 C258 1.191 . S
O270 C249 1.331 . S
O270 Mg256 2.081 . S
O271 Mg252 1.986 . S
O271 C258 1.307 . S
O272 C250 1.264 . S
O272 Mg256 2.023 . S
O273 C249 1.244 . S
O273 Mg257 1.942 . S
O274 C250 1.273 . S
O274 Mg257 1.955 . S
O275 C248 1.312 . S
O275 Mg251 2.291 . S
O275 Mg254 2.114 . S
O276 C248 1.208 . S
O276 Mg256 2.031 . S
C277 O262 1.264 . S
C277 O264 1.273 . S
C278 O259 1.191 . S
C278 O261 1.307 . S
C279 O306 1.312 . S
C279 O307 1.208 . S
C280 O301 1.331 . S
C280 O304 1.244 . S
C281 O303 1.264 . S
C281 O305 1.273 . S
Mg282 O284 1.936 . S
Mg282 O291 2.081 . S
Mg282 O293 2.023 . S
Mg282 O297 2.031 . S
Mg282 O306 2.291 . S
Mg283 O284 1.963 . S
Mg283 O294 1.942 . S
Mg283 O295 1.955 . S
Mg283 O302 1.986 . S
O284 Mg282 1.936 . S
O284 Mg283 1.963 . S
O284 Mg285 1.915 . S
Mg285 O284 1.915 . S
Mg285 O286 1.915 . S
Mg285 O290 2.013 . S
Mg285 O296 2.114 . S
Mg285 O300 2.013 . S
Mg285 O306 2.114 . S
O286 Mg285 1.915 . S
O286 Mg287 1.936 . S
O286 Mg288 1.963 . S
Mg287 O286 1.936 . S
Mg287 O296 2.291 . S
Mg287 O301 2.081 . S
Mg287 O303 2.023 . S
Mg287 O307 2.031 . S
Mg288 O286 1.963 . S
Mg288 O292 1.986 . S
Mg288 O304 1.942 . S
Mg288 O305 1.955 . S
C289 O300 1.191 . S
C289 O302 1.307 . S
O290 Mg285 2.013 . S
O290 C309 1.191 . S
O291 Mg282 2.081 . S
O291 C299 1.331 . S
O292 Mg288 1.986 . S
O292 C309 1.307 . S
O293 Mg282 2.023 . S
O293 C308 1.264 . S
O294 Mg283 1.942 . S
O294 C299 1.244 . S
O295 Mg283 1.955 . S
O295 C308 1.273 . S
O296 Mg285 2.114 . S
O296 Mg287 2.291 . S
O296 C298 1.312 . S
O297 Mg282 2.031 . S
O297 C298 1.208 . S
C298 O296 1.312 . S
C298 O297 1.208 . S
C299 O291 1.331 . S
C299 O294 1.244 . S
O300 Mg285 2.013 . S
O300 C289 1.191 . S
O301 C280 1.331 . S
O301 Mg287 2.081 . S
O302 Mg283 1.986 . S
O302 C289 1.307 . S
O303 C281 1.264 . S
O303 Mg287 2.023 . S
O304 C280 1.244 . S
O304 Mg288 1.942 . S
O305 C281 1.273 . S
O305 Mg288 1.955 . S
O306 C279 1.312 . S
O306 Mg282 2.291 . S
O306 Mg285 2.114 . S
O307 C279 1.208 . S
O307 Mg287 2.031 . S
C308 O293 1.264 . S
C308 O295 1.273 . S
C309 O290 1.191 . S
C309 O292 1.307 . S
C310 O337 1.312 . S
C310 O338 1.208 . S
C311 O332 1.331 . S
C311 O335 1.244 . S
C312 O334 1.264 . S
C312 O336 1.273 . S
Mg313 O315 1.936 . S
Mg313 O322 2.081 . S
Mg313 O324 2.023 . S
Mg313 O328 2.031 . S
Mg313 O337 2.291 . S
Mg314 O315 1.963 . S
Mg314 O325 1.942 . S
Mg314 O326 1.955 . S
Mg314 O333 1.986 . S
O315 Mg313 1.936 . S
O315 Mg314 1.963 . S
O315 Mg316 1.915 . S
Mg316 O315 1.915 . S
Mg316 O317 1.915 . S
Mg316 O321 2.013 . S
Mg316 O327 2.114 . S
Mg316 O331 2.013 . S
Mg316 O337 2.114 . S
O317 Mg316 1.915 . S
O317 Mg318 1.936 . S
O317 Mg319 1.963 . S
Mg318 O317 1.936 . S
Mg318 O327 2.291 . S
Mg318 O332 2.081 . S
Mg318 O334 2.023 . S
Mg318 O338 2.031 . S
Mg319 O317 1.963 . S
Mg319 O323 1.986 . S
Mg319 O335 1.942 . S
Mg319 O336 1.955 . S
C320 O331 1.191 . S
C320 O333 1.307 . S
O321 Mg316 2.013 . S
O321 C340 1.191 . S
O322 Mg313 2.081 . S
O322 C330 1.331 . S
O323 Mg319 1.986 . S
O323 C340 1.307 . S
O324 Mg313 2.023 . S
O324 C339 1.264 . S
O325 Mg314 1.942 . S
O325 C330 1.244 . S
O326 Mg314 1.955 . S
O326 C339 1.273 . S
O327 Mg316 2.114 . S
O327 Mg318 2.291 . S
O327 C329 1.312 . S
O328 Mg313 2.031 . S
O328 C329 1.208 . S
C329 O327 1.312 . S
C329 O328 1.208 . S
C330 O322 1.331 . S
C330 O325 1.244 . S
O331 Mg316 2.013 . S
O331 C320 1.191 . S
O332 C311 1.331 . S
O332 Mg318 2.081 . S
O333 Mg314 1.986 . S
O333 C320 1.307 . S
O334 C312 1.264 . S
O334 Mg318 2.023 . S
O335 C311 1.244 . S
O335 Mg319 1.942 . S
O336 C312 1.273 . S
O336 Mg319 1.955 . S
O337 C310 1.312 . S
O337 Mg313 2.291 . S
O337 Mg316 2.114 . S
O338 C310 1.208 . S
O338 Mg318 2.031 . S
C339 O324 1.264 . S
C339 O326 1.273 . S
C340 O321 1.191 . S
C340 O323 1.307 . S
C341 O368 1.312 . S
C341 O369 1.208 . S
C342 O363 1.331 . S
C342 O366 1.244 . S
C343 O365 1.264 . S
C343 O367 1.273 . S
Mg344 O346 1.936 . S
Mg344 O353 2.081 . S
Mg344 O355 2.023 . S
Mg344 O359 2.031 . S
Mg344 O368 2.291 . S
Mg345 O346 1.963 . S
Mg345 O356 1.942 . S
Mg345 O357 1.955 . S
Mg345 O364 1.986 . S
O346 Mg344 1.936 . S
O346 Mg345 1.963 . S
O346 Mg347 1.915 . S
Mg347 O346 1.915 . S
Mg347 O348 1.915 . S
Mg347 O352 2.013 . S
Mg347 O358 2.114 . S
Mg347 O362 2.013 . S
Mg347 O368 2.114 . S
O348 Mg347 1.915 . S
O348 Mg349 1.936 . S
O348 Mg350 1.963 . S
Mg349 O348 1.936 . S
Mg349 O358 2.291 . S
Mg349 O363 2.081 . S
Mg349 O365 2.023 . S
Mg349 O369 2.031 . S
Mg350 O348 1.963 . S
Mg350 O354 1.986 . S
Mg350 O366 1.942 . S
Mg350 O367 1.955 . S
C351 O362 1.191 . S
C351 O364 1.307 . S
O352 Mg347 2.013 . S
O352 C371 1.191 . S
O353 Mg344 2.081 . S
O353 C361 1.331 . S
O354 Mg350 1.986 . S
O354 C371 1.307 . S
O355 Mg344 2.023 . S
O355 C370 1.264 . S
O356 Mg345 1.942 . S
O356 C361 1.244 . S
O357 Mg345 1.955 . S
O357 C370 1.273 . S
O358 Mg347 2.114 . S
O358 Mg349 2.291 . S
O358 C360 1.312 . S
O359 Mg344 2.031 . S
O359 C360 1.208 . S
C360 O358 1.312 . S
C360 O359 1.208 . S
C361 O353 1.331 . S
C361 O356 1.244 . S
O362 Mg347 2.013 . S
O362 C351 1.191 . S
O363 C342 1.331 . S
O363 Mg349 2.081 . S
O364 Mg345 1.986 . S
O364 C351 1.307 . S
O365 C343 1.264 . S
O365 Mg349 2.023 . S
O366 C342 1.244 . S
O366 Mg350 1.942 . S
O367 C343 1.273 . S
O367 Mg350 1.955 . S
O368 C341 1.312 . S
O368 Mg344 2.291 . S
O368 Mg347 2.114 . S
O369 C341 1.208 . S
O369 Mg349 2.031 . S
C370 O355 1.264 . S
C370 O357 1.273 . S
C371 O352 1.191 . S
C371 O354 1.307 . S
C372 O399 1.312 . S
C372 O400 1.208 . S
C373 O394 1.331 . S
C373 O397 1.244 . S
C374 O396 1.264 . S
C374 O398 1.273 . S
Mg375 O377 1.936 . S
Mg375 O384 2.081 . S
Mg375 O386 2.023 . S
Mg375 O390 2.031 . S
Mg375 O399 2.291 . S
Mg376 O377 1.963 . S
Mg376 O387 1.942 . S
Mg376 O388 1.955 . S
Mg376 O395 1.986 . S
O377 Mg375 1.936 . S
O377 Mg376 1.963 . S
O377 Mg378 1.915 . S
Mg378 O377 1.915 . S
Mg378 O379 1.915 . S
Mg378 O383 2.013 . S
Mg378 O389 2.114 . S
Mg378 O393 2.013 . S
Mg378 O399 2.114 . S
O379 Mg378 1.915 . S
O379 Mg380 1.936 . S
O379 Mg381 1.963 . S
Mg380 O379 1.936 . S
Mg380 O389 2.291 . S
Mg380 O394 2.081 . S
Mg380 O396 2.023 . S
Mg380 O400 2.031 . S
Mg381 O379 1.963 . S
Mg381 O385 1.986 . S
Mg381 O397 1.942 . S
Mg381 O398 1.955 . S
C382 O393 1.191 . S
C382 O395 1.307 . S
O383 Mg378 2.013 . S
O383 C402 1.191 . S
O384 Mg375 2.081 . S
O384 C392 1.331 . S
O385 Mg381 1.986 . S
O385 C402 1.307 . S
O386 Mg375 2.023 . S
O386 C401 1.264 . S
O387 Mg376 1.942 . S
O387 C392 1.244 . S
O388 Mg376 1.955 . S
O388 C401 1.273 . S
O389 Mg378 2.114 . S
O389 Mg380 2.291 . S
O389 C391 1.312 . S
O390 Mg375 2.031 . S
O390 C391 1.208 . S
C391 O389 1.312 . S
C391 O390 1.208 . S
C392 O384 1.331 . S
C392 O387 1.244 . S
O393 Mg378 2.013 . S
O393 C382 1.191 . S
O394 C373 1.331 . S
O394 Mg380 2.081 . S
O395 Mg376 1.986 . S
O395 C382 1.307 . S
O396 C374 1.264 . S
O396 Mg380 2.023 . S
O397 C373 1.244 . S
O397 Mg381 1.942 . S
O398 C374 1.273 . S
O398 Mg381 1.955 . S
O399 C372 1.312 . S
O399 Mg375 2.291 . S
O399 Mg378 2.114 . S
O400 C372 1.208 . S
O400 Mg380 2.031 . S
C401 O386 1.264 . S
C401 O388 1.273 . S
C402 O383 1.191 . S
C402 O385 1.307 . S
C403 O430 1.312 . S
C403 O431 1.208 . S
C404 O425 1.331 . S
C404 O428 1.244 . S
C405 O427 1.264 . S
C405 O429 1.273 . S
Mg406 O408 1.936 . S
Mg406 O415 2.081 . S
Mg406 O417 2.023 . S
Mg406 O421 2.031 . S
Mg406 O430 2.291 . S
Mg407 O408 1.963 . S
Mg407 O418 1.942 . S
Mg407 O419 1.955 . S
Mg407 O426 1.986 . S
O408 Mg406 1.936 . S
O408 Mg407 1.963 . S
O408 Mg409 1.915 . S
Mg409 O408 1.915 . S
Mg409 O410 1.915 . S
Mg409 O414 2.013 . S
Mg409 O420 2.114 . S
Mg409 O424 2.013 . S
Mg409 O430 2.114 . S
O410 Mg409 1.915 . S
O410 Mg411 1.936 . S
O410 Mg412 1.963 . S
Mg411 O410 1.936 . S
Mg411 O420 2.291 . S
Mg411 O425 2.081 . S
Mg411 O427 2.023 . S
Mg411 O431 2.031 . S
Mg412 O410 1.963 . S
Mg412 O416 1.986 . S
Mg412 O428 1.942 . S
Mg412 O429 1.955 . S
C413 O424 1.191 . S
C413 O426 1.307 . S
O414 Mg409 2.013 . S
O414 C433 1.191 . S
O415 Mg406 2.081 . S
O415 C423 1.331 . S
O416 Mg412 1.986 . S
O416 C433 1.307 . S
O417 Mg406 2.023 . S
O417 C432 1.264 . S
O418 Mg407 1.942 . S
O418 C423 1.244 . S
O419 Mg407 1.955 . S
O419 C432 1.273 . S
O420 Mg409 2.114 . S
O420 Mg411 2.291 . S
O420 C422 1.312 . S
O421 Mg406 2.031 . S
O421 C422 1.208 . S
C422 O420 1.312 . S
C422 O421 1.208 . S
C423 O415 1.331 . S
C423 O418 1.244 . S
O424 Mg409 2.013 . S
O424 C413 1.191 . S
O425 C404 1.331 . S
O425 Mg411 2.081 . S
O426 Mg407 1.986 . S
O426 C413 1.307 . S
O427 C405 1.264 . S
O427 Mg411 2.023 . S
O428 C404 1.244 . S
O428 Mg412 1.942 . S
O429 C405 1.273 . S
O429 Mg412 1.955 . S
O430 C403 1.312 . S
O430 Mg406 2.291 . S
O430 Mg409 2.114 . S
O431 C403 1.208 . S
O431 Mg411 2.031 . S
C432 O417 1.264 . S
C432 O419 1.273 . S
C433 O414 1.191 . S
C433 O416 1.307 . S
C434 O461 1.312 . S
C434 O462 1.208 . S
C435 O456 1.331 . S
C435 O459 1.244 . S
C436 O458 1.264 . S
C436 O460 1.273 . S
Mg437 O439 1.936 . S
Mg437 O446 2.081 . S
Mg437 O448 2.023 . S
Mg437 O452 2.031 . S
Mg437 O461 2.291 . S
Mg438 O439 1.963 . S
Mg438 O449 1.942 . S
Mg438 O450 1.955 . S
Mg438 O457 1.986 . S
O439 Mg437 1.936 . S
O439 Mg438 1.963 . S
O439 Mg440 1.915 . S
Mg440 O439 1.915 . S
Mg440 O441 1.915 . S
Mg440 O445 2.013 . S
Mg440 O451 2.114 . S
Mg440 O455 2.013 . S
Mg440 O461 2.114 . S
O441 Mg440 1.915 . S
O441 Mg442 1.936 . S
O441 Mg443 1.963 . S
Mg442 O441 1.936 . S
Mg442 O451 2.291 . S
Mg442 O456 2.081 . S
Mg442 O458 2.023 . S
Mg442 O462 2.031 . S
Mg443 O441 1.963 . S
Mg443 O447 1.986 . S
Mg443 O459 1.942 . S
Mg443 O460 1.955 . S
C444 O455 1.191 . S
C444 O457 1.307 . S
O445 Mg440 2.013 . S
O445 C464 1.191 . S
O446 Mg437 2.081 . S
O446 C454 1.331 . S
O447 Mg443 1.986 . S
O447 C464 1.307 . S
O448 Mg437 2.023 . S
O448 C463 1.264 . S
O449 Mg438 1.942 . S
O449 C454 1.244 . S
O450 Mg438 1.955 . S
O450 C463 1.273 . S
O451 Mg440 2.114 . S
O451 Mg442 2.291 . S
O451 C453 1.312 . S
O452 Mg437 2.031 . S
O452 C453 1.208 . S
C453 O451 1.312 . S
C453 O452 1.208 . S
C454 O446 1.331 . S
C454 O449 1.244 . S
O455 Mg440 2.013 . S
O455 C444 1.191 . S
O456 C435 1.331 . S
O456 Mg442 2.081 . S
O457 Mg438 1.986 . S
O457 C444 1.307 . S
O458 C436 1.264 . S
O458 Mg442 2.023 . S
O459 C435 1.244 . S
O459 Mg443 1.942 . S
O460 C436 1.273 . S
O460 Mg443 1.955 . S
O461 C434 1.312 . S
O461 Mg437 2.291 . S
O461 Mg440 2.114 . S
O462 C434 1.208 . S
O462 Mg442 2.031 . S
C463 O448 1.264 . S
C463 O450 1.273 . S
C464 O445 1.191 . S
C464 O447 1.307 . S
C465 O492 1.312 . S
C465 O493 1.208 . S
C466 O487 1.331 . S
C466 O490 1.244 . S
C467 O489 1.264 . S
C467 O491 1.273 . S
Mg468 O470 1.936 . S
Mg468 O477 2.081 . S
Mg468 O479 2.023 . S
Mg468 O483 2.031 . S
Mg468 O492 2.291 . S
Mg469 O470 1.963 . S
Mg469 O480 1.942 . S
Mg469 O481 1.955 . S
Mg469 O488 1.986 . S
O470 Mg468 1.936 . S
O470 Mg469 1.963 . S
O470 Mg471 1.915 . S
Mg471 O470 1.915 . S
Mg471 O472 1.915 . S
Mg471 O476 2.013 . S
Mg471 O482 2.114 . S
Mg471 O486 2.013 . S
Mg471 O492 2.114 . S
O472 Mg471 1.915 . S
O472 Mg473 1.936 . S
O472 Mg474 1.963 . S
Mg473 O472 1.936 . S
Mg473 O482 2.291 . S
Mg473 O487 2.081 . S
Mg473 O489 2.023 . S
Mg473 O493 2.031 . S
Mg474 O472 1.963 . S
Mg474 O478 1.986 . S
Mg474 O490 1.942 . S
Mg474 O491 1.955 . S
C475 O486 1.191 . S
C475 O488 1.307 . S
O476 Mg471 2.013 . S
O476 C495 1.191 . S
O477 Mg468 2.081 . S
O477 C485 1.331 . S
O478 Mg474 1.986 . S
O478 C495 1.307 . S
O479 Mg468 2.023 . S
O479 C494 1.264 . S
O480 Mg469 1.942 . S
O480 C485 1.244 . S
O481 Mg469 1.955 . S
O481 C494 1.273 . S
O482 Mg471 2.114 . S
O482 Mg473 2.291 . S
O482 C484 1.312 . S
O483 Mg468 2.031 . S
O483 C484 1.208 . S
C484 O482 1.312 . S
C484 O483 1.208 . S
C485 O477 1.331 . S
C485 O480 1.244 . S
O486 Mg471 2.013 . S
O486 C475 1.191 . S
O487 C466 1.331 . S
O487 Mg473 2.081 . S
O488 Mg469 1.986 . S
O488 C475 1.307 . S
O489 C467 1.264 . S
O489 Mg473 2.023 . S
O490 C466 1.244 . S
O490 Mg474 1.942 . S
O491 C467 1.273 . S
O491 Mg474 1.955 . S
O492 C465 1.312 . S
O492 Mg468 2.291 . S
O492 Mg471 2.114 . S
O493 C465 1.208 . S
O493 Mg473 2.031 . S
C494 O479 1.264 . S
C494 O481 1.273 . S
C495 O476 1.191 . S
C495 O478 1.307 . S
C496 O523 1.312 . S
C496 O524 1.208 . S
C497 O518 1.331 . S
C497 O521 1.244 . S
C498 O520 1.264 . S
C498 O522 1.273 . S
Mg499 O501 1.936 . S
Mg499 O508 2.081 . S
Mg499 O510 2.023 . S
Mg499 O514 2.031 . S
Mg499 O523 2.291 . S
Mg500 O501 1.963 . S
Mg500 O511 1.942 . S
Mg500 O512 1.955 . S
Mg500 O519 1.986 . S
O501 Mg499 1.936 . S
O501 Mg500 1.963 . S
O501 Mg502 1.915 . S
Mg502 O501 1.915 . S
Mg502 O503 1.915 . S
Mg502 O507 2.013 . S
Mg502 O513 2.114 . S
Mg502 O517 2.013 . S
Mg502 O523 2.114 . S
O503 Mg502 1.915 . S
O503 Mg504 1.936 . S
O503 Mg505 1.963 . S
Mg504 O503 1.936 . S
Mg504 O513 2.291 . S
Mg504 O518 2.081 . S
Mg504 O520 2.023 . S
Mg504 O524 2.031 . S
Mg505 O503 1.963 . S
Mg505 O509 1.986 . S
Mg505 O521 1.942 . S
Mg505 O522 1.955 . S
C506 O517 1.191 . S
C506 O519 1.307 . S
O507 Mg502 2.013 . S
O507 C526 1.191 . S
O508 Mg499 2.081 . S
O508 C516 1.331 . S
O509 Mg505 1.986 . S
O509 C526 1.307 . S
O510 Mg499 2.023 . S
O510 C525 1.264 . S
O511 Mg500 1.942 . S
O511 C516 1.244 . S
O512 Mg500 1.955 . S
O512 C525 1.273 . S
O513 Mg502 2.114 . S
O513 Mg504 2.291 . S
O513 C515 1.312 . S
O514 Mg499 2.031 . S
O514 C515 1.208 . S
C515 O513 1.312 . S
C515 O514 1.208 . S
C516 O508 1.331 . S
C516 O511 1.244 . S
O517 Mg502 2.013 . S
O517 C506 1.191 . S
O518 C497 1.331 . S
O518 Mg504 2.081 . S
O519 Mg500 1.986 . S
O519 C506 1.307 . S
O520 C498 1.264 . S
O520 Mg504 2.023 . S
O521 C497 1.244 . S
O521 Mg505 1.942 . S
O522 C498 1.273 . S
O522 Mg505 1.955 . S
O523 C496 1.312 . S
O523 Mg499 2.291 . S
O523 Mg502 2.114 . S
O524 C496 1.208 . S
O524 Mg504 2.031 . S
C525 O510 1.264 . S
C525 O512 1.273 . S
C526 O507 1.191 . S
C526 O509 1.307 . S
C527 O554 1.312 . S
C527 O555 1.208 . S
C528 O549 1.331 . S
C528 O552 1.244 . S
C529 O551 1.264 . S
C529 O553 1.273 . S
Mg530 O532 1.936 . S
Mg530 O539 2.081 . S
Mg530 O541 2.023 . S
Mg530 O545 2.031 . S
Mg530 O554 2.291 . S
Mg531 O532 1.963 . S
Mg531 O542 1.942 . S
Mg531 O543 1.955 . S
Mg531 O550 1.986 . S
O532 Mg530 1.936 . S
O532 Mg531 1.963 . S
O532 Mg533 1.915 . S
Mg533 O532 1.915 . S
Mg533 O534 1.915 . S
Mg533 O538 2.013 . S
Mg533 O544 2.114 . S
Mg533 O548 2.013 . S
Mg533 O554 2.114 . S
O534 Mg533 1.915 . S
O534 Mg535 1.936 . S
O534 Mg536 1.963 . S
Mg535 O534 1.936 . S
Mg535 O544 2.291 . S
Mg535 O549 2.081 . S
Mg535 O551 2.023 . S
Mg535 O555 2.031 . S
Mg536 O534 1.963 . S
Mg536 O540 1.986 . S
Mg536 O552 1.942 . S
Mg536 O553 1.955 . S
C537 O548 1.191 . S
C537 O550 1.307 . S
O538 Mg533 2.013 . S
O538 C557 1.191 . S
O539 Mg530 2.081 . S
O539 C547 1.331 . S
O540 Mg536 1.986 . S
O540 C557 1.307 . S
O541 Mg530 2.023 . S
O541 C556 1.264 . S
O542 Mg531 1.942 . S
O542 C547 1.244 . S
O543 Mg531 1.955 . S
O543 C556 1.273 . S
O544 Mg533 2.114 . S
O544 Mg535 2.291 . S
O544 C546 1.312 . S
O545 Mg530 2.031 . S
O545 C546 1.208 . S
C546 O544 1.312 . S
C546 O545 1.208 . S
C547 O539 1.331 . S
C547 O542 1.244 . S
O548 Mg533 2.013 . S
O548 C537 1.191 . S
O549 C528 1.331 . S
O549 Mg535 2.081 . S
O550 Mg531 1.986 . S
O550 C537 1.307 . S
O551 C529 1.264 . S
O551 Mg535 2.023 . S
O552 C528 1.244 . S
O552 Mg536 1.942 . S
O553 C529 1.273 . S
O553 Mg536 1.955 . S
O554 C527 1.312 . S
O554 Mg530 2.291 . S
O554 Mg533 2.114 . S
O555 C527 1.208 . S
O555 Mg535 2.031 . S
C556 O541 1.264 . S
C556 O543 1.273 . S
C557 O538 1.191 . S
C557 O540 1.307 . S
C558 O585 1.312 . S
C558 O586 1.208 . S
C559 O580 1.331 . S
C559 O583 1.244 . S
C560 O582 1.264 . S
C560 O584 1.273 . S
Mg561 O563 1.936 . S
Mg561 O570 2.081 . S
Mg561 O572 2.023 . S
Mg561 O576 2.031 . S
Mg561 O585 2.291 . S
Mg562 O563 1.963 . S
Mg562 O573 1.942 . S
Mg562 O574 1.955 . S
Mg562 O581 1.986 . S
O563 Mg561 1.936 . S
O563 Mg562 1.963 . S
O563 Mg564 1.915 . S
Mg564 O563 1.915 . S
Mg564 O565 1.915 . S
Mg564 O569 2.013 . S
Mg564 O575 2.114 . S
Mg564 O579 2.013 . S
Mg564 O585 2.114 . S
O565 Mg564 1.915 . S
O565 Mg566 1.936 . S
O565 Mg567 1.963 . S
Mg566 O565 1.936 . S
Mg566 O575 2.291 . S
Mg566 O580 2.081 . S
Mg566 O582 2.023 . S
Mg566 O586 2.031 . S
Mg567 O565 1.963 . S
Mg567 O571 1.986 . S
Mg567 O583 1.942 . S
Mg567 O584 1.955 . S
C568 O579 1.191 . S
C568 O581 1.307 . S
O569 Mg564 2.013 . S
O569 C588 1.191 . S
O570 Mg561 2.081 . S
O570 C578 1.331 . S
O571 Mg567 1.986 . S
O571 C588 1.307 . S
O572 Mg561 2.023 . S
O572 C587 1.264 . S
O573 Mg562 1.942 . S
O573 C578 1.244 . S
O574 Mg562 1.955 . S
O574 C587 1.273 . S
O575 Mg564 2.114 . S
O575 Mg566 2.291 . S
O575 C577 1.312 . S
O576 Mg561 2.031 . S
O576 C577 1.208 . S
C577 O575 1.312 . S
C577 O576 1.208 . S
C578 O570 1.331 . S
C578 O573 1.244 . S
O579 Mg564 2.013 . S
O579 C568 1.191 . S
O580 C559 1.331 . S
O580 Mg566 2.081 . S
O581 Mg562 1.986 . S
O581 C568 1.307 . S
O582 C560 1.264 . S
O582 Mg566 2.023 . S
O583 C559 1.244 . S
O583 Mg567 1.942 . S
O584 C560 1.273 . S
O584 Mg567 1.955 . S
O585 C558 1.312 . S
O585 Mg561 2.291 . S
O585 Mg564 2.114 . S
O586 C558 1.208 . S
O586 Mg566 2.031 . S
C587 O572 1.264 . S
C587 O574 1.273 . S
C588 O569 1.191 . S
C588 O571 1.307 . S
C589 O616 1.312 . S
C589 O617 1.208 . S
C590 O611 1.331 . S
C590 O614 1.244 . S
C591 O613 1.264 . S
C591 O615 1.273 . S
Mg592 O594 1.936 . S
Mg592 O601 2.081 . S
Mg592 O603 2.023 . S
Mg592 O607 2.031 . S
Mg592 O616 2.291 . S
Mg593 O594 1.963 . S
Mg593 O604 1.942 . S
Mg593 O605 1.955 . S
Mg593 O612 1.986 . S
O594 Mg592 1.936 . S
O594 Mg593 1.963 . S
O594 Mg595 1.915 . S
Mg595 O594 1.915 . S
Mg595 O596 1.915 . S
Mg595 O600 2.013 . S
Mg595 O606 2.114 . S
Mg595 O610 2.013 . S
Mg595 O616 2.114 . S
O596 Mg595 1.915 . S
O596 Mg597 1.936 . S
O596 Mg598 1.963 . S
Mg597 O596 1.936 . S
Mg597 O606 2.291 . S
Mg597 O611 2.081 . S
Mg597 O613 2.023 . S
Mg597 O617 2.031 . S
Mg598 O596 1.963 . S
Mg598 O602 1.986 . S
Mg598 O614 1.942 . S
Mg598 O615 1.955 . S
C599 O610 1.191 . S
C599 O612 1.307 . S
O600 Mg595 2.013 . S
O600 C619 1.191 . S
O601 Mg592 2.081 . S
O601 C609 1.331 . S
O602 Mg598 1.986 . S
O602 C619 1.307 . S
O603 Mg592 2.023 . S
O603 C618 1.264 . S
O604 Mg593 1.942 . S
O604 C609 1.244 . S
O605 Mg593 1.955 . S
O605 C618 1.273 . S
O606 Mg595 2.114 . S
O606 Mg597 2.291 . S
O606 C608 1.312 . S
O607 Mg592 2.031 . S
O607 C608 1.208 . S
C608 O606 1.312 . S
C608 O607 1.208 . S
C609 O601 1.331 . S
C609 O604 1.244 . S
O610 Mg595 2.013 . S
O610 C599 1.191 . S
O611 C590 1.331 . S
O611 Mg597 2.081 . S
O612 Mg593 1.986 . S
O612 C599 1.307 . S
O613 C591 1.264 . S
O613 Mg597 2.023 . S
O614 C590 1.244 . S
O614 Mg598 1.942 . S
O615 C591 1.273 . S
O615 Mg598 1.955 . S
O616 C589 1.312 . S
O616 Mg592 2.291 . S
O616 Mg595 2.114 . S
O617 C589 1.208 . S
O617 Mg597 2.031 . S
C618 O603 1.264 . S
C618 O605 1.273 . S
C619 O600 1.191 . S
C619 O602 1.307 . S
C620 O647 1.312 . S
C620 O648 1.208 . S
C621 O642 1.331 . S
C621 O645 1.244 . S
C622 O644 1.264 . S
C622 O646 1.273 . S
Mg623 O625 1.936 . S
Mg623 O632 2.081 . S
Mg623 O634 2.023 . S
Mg623 O638 2.031 . S
Mg623 O647 2.291 . S
Mg624 O625 1.963 1_556 S
Mg624 O635 1.942 . S
Mg624 O636 1.955 . S
Mg624 O643 1.986 . S
O625 Mg623 1.936 . S
O625 Mg624 1.963 1_554 S
O625 Mg626 1.915 . S
Mg626 O625 1.915 . S
Mg626 O627 1.915 . S
Mg626 O631 2.013 . S
Mg626 O637 2.114 . S
Mg626 O641 2.013 . S
Mg626 O647 2.114 . S
O627 Mg626 1.915 . S
O627 Mg628 1.936 . S
O627 Mg629 1.963 . S
Mg628 O627 1.936 . S
Mg628 O637 2.291 . S
Mg628 O642 2.081 . S
Mg628 O644 2.023 . S
Mg628 O648 2.031 . S
Mg629 O627 1.963 . S
Mg629 O633 1.986 . S
Mg629 O645 1.942 . S
Mg629 O646 1.955 . S
C630 O641 1.191 . S
C630 O643 1.307 1_554 S
O631 Mg626 2.013 . S
O631 C650 1.191 . S
O632 Mg623 2.081 . S
O632 C640 1.331 1_554 S
O633 Mg629 1.986 . S
O633 C650 1.307 . S
O634 Mg623 2.023 . S
O634 C649 1.264 1_554 S
O635 Mg624 1.942 . S
O635 C640 1.244 . S
O636 Mg624 1.955 . S
O636 C649 1.273 . S
O637 Mg626 2.114 . S
O637 Mg628 2.291 . S
O637 C639 1.312 . S
O638 Mg623 2.031 . S
O638 C639 1.208 . S
C639 O637 1.312 . S
C639 O638 1.208 . S
C640 O632 1.331 1_556 S
C640 O635 1.244 . S
O641 Mg626 2.013 . S
O641 C630 1.191 . S
O642 C621 1.331 . S
O642 Mg628 2.081 . S
O643 Mg624 1.986 . S
O643 C630 1.307 1_556 S
O644 C622 1.264 . S
O644 Mg628 2.023 . S
O645 C621 1.244 . S
O645 Mg629 1.942 . S
O646 C622 1.273 . S
O646 Mg629 1.955 . S
O647 C620 1.312 . S
O647 Mg623 2.291 . S
O647 Mg626 2.114 . S
O648 C620 1.208 . S
O648 Mg628 2.031 . S
C649 O634 1.264 1_556 S
C649 O636 1.273 . S
C650 O631 1.191 . S
C650 O633 1.307 . S
C651 O678 1.312 . S
C651 O679 1.208 . S
C652 O673 1.331 . S
C652 O676 1.244 . S
C653 O675 1.264 . S
C653 O677 1.273 . S
Mg654 O656 1.936 . S
Mg654 O663 2.081 . S
Mg654 O665 2.023 . S
Mg654 O669 2.031 . S
Mg654 O678 2.291 . S
Mg655 O656 1.963 1_554 S
Mg655 O666 1.942 . S
Mg655 O667 1.955 . S
Mg655 O674 1.986 . S
O656 Mg654 1.936 . S
O656 Mg655 1.963 1_556 S
O656 Mg657 1.915 . S
Mg657 O656 1.915 . S
Mg657 O658 1.915 . S
Mg657 O662 2.013 . S
Mg657 O668 2.114 . S
Mg657 O672 2.013 . S
Mg657 O678 2.114 . S
O658 Mg657 1.915 . S
O658 Mg659 1.936 . S
O658 Mg660 1.963 . S
Mg659 O658 1.936 . S
Mg659 O668 2.291 . S
Mg659 O673 2.081 . S
Mg659 O675 2.023 . S
Mg659 O679 2.031 . S
Mg660 O658 1.963 . S
Mg660 O664 1.986 . S
Mg660 O676 1.942 . S
Mg660 O677 1.955 . S
C661 O672 1.191 . S
C661 O674 1.307 1_556 S
O662 Mg657 2.013 . S
O662 C681 1.191 . S
O663 Mg654 2.081 . S
O663 C671 1.331 1_556 S
O664 Mg660 1.986 . S
O664 C681 1.307 . S
O665 Mg654 2.023 . S
O665 C680 1.264 1_556 S
O666 Mg655 1.942 . S
O666 C671 1.244 . S
O667 Mg655 1.955 . S
O667 C680 1.273 . S
O668 Mg657 2.114 . S
O668 Mg659 2.291 . S
O668 C670 1.312 . S
O669 Mg654 2.031 . S
O669 C670 1.208 . S
C670 O668 1.312 . S
C670 O669 1.208 . S
C671 O663 1.331 1_554 S
C671 O666 1.244 . S
O672 Mg657 2.013 . S
O672 C661 1.191 . S
O673 C652 1.331 . S
O673 Mg659 2.081 . S
O674 Mg655 1.986 . S
O674 C661 1.307 1_554 S
O675 C653 1.264 . S
O675 Mg659 2.023 . S
O676 C652 1.244 . S
O676 Mg660 1.942 . S
O677 C653 1.273 . S
O677 Mg660 1.955 . S
O678 C651 1.312 . S
O678 Mg654 2.291 . S
O678 Mg657 2.114 . S
O679 C651 1.208 . S
O679 Mg659 2.031 . S
C680 O665 1.264 1_554 S
C680 O667 1.273 . S
C681 O662 1.191 . S
C681 O664 1.307 . S
C682 O709 1.312 . S
C682 O710 1.208 . S
C683 O704 1.331 . S
C683 O707 1.244 . S
C684 O706 1.264 . S
C684 O708 1.273 . S
Mg685 O687 1.936 . S
Mg685 O694 2.081 . S
Mg685 O696 2.023 . S
Mg685 O700 2.031 . S
Mg685 O709 2.291 . S
Mg686 O687 1.963 . S
Mg686 O697 1.942 . S
Mg686 O698 1.955 . S
Mg686 O705 1.986 . S
O687 Mg685 1.936 . S
O687 Mg686 1.963 . S
O687 Mg688 1.915 . S
Mg688 O687 1.915 . S
Mg688 O689 1.915 . S
Mg688 O693 2.013 . S
Mg688 O699 2.114 . S
Mg688 O703 2.013 . S
Mg688 O709 2.114 . S
O689 Mg688 1.915 . S
O689 Mg690 1.936 . S
O689 Mg691 1.963 . S
Mg690 O689 1.936 . S
Mg690 O699 2.291 . S
Mg690 O704 2.081 . S
Mg690 O706 2.023 . S
Mg690 O710 2.031 . S
Mg691 O689 1.963 . S
Mg691 O695 1.986 . S
Mg691 O707 1.942 . S
Mg691 O708 1.955 . S
C692 O703 1.191 . S
C692 O705 1.307 . S
O693 Mg688 2.013 . S
O693 C712 1.191 . S
O694 Mg685 2.081 . S
O694 C702 1.331 . S
O695 Mg691 1.986 . S
O695 C712 1.307 . S
O696 Mg685 2.023 . S
O696 C711 1.264 . S
O697 Mg686 1.942 . S
O697 C702 1.244 . S
O698 Mg686 1.955 . S
O698 C711 1.273 . S
O699 Mg688 2.114 . S
O699 Mg690 2.291 . S
O699 C701 1.312 . S
O700 Mg685 2.031 . S
O700 C701 1.208 . S
C701 O699 1.312 . S
C701 O700 1.208 . S
C702 O694 1.331 . S
C702 O697 1.244 . S
O703 Mg688 2.013 . S
O703 C692 1.191 . S
O704 C683 1.331 . S
O704 Mg690 2.081 . S
O705 Mg686 1.986 . S
O705 C692 1.307 . S
O706 C684 1.264 . S
O706 Mg690 2.023 . S
O707 C683 1.244 . S
O707 Mg691 1.942 . S
O708 C684 1.273 . S
O708 Mg691 1.955 . S
O709 C682 1.312 . S
O709 Mg685 2.291 . S
O709 Mg688 2.114 . S
O710 C682 1.208 . S
O710 Mg690 2.031 . S
C711 O696 1.264 . S
C711 O698 1.273 . S
C712 O693 1.191 . S
C712 O695 1.307 . S
C713 O740 1.312 . S
C713 O741 1.208 . S
C714 O735 1.331 . S
C714 O738 1.244 . S
C715 O737 1.264 . S
C715 O739 1.273 . S
Mg716 O718 1.936 . S
Mg716 O725 2.081 . S
Mg716 O727 2.023 . S
Mg716 O731 2.031 . S
Mg716 O740 2.291 . S
Mg717 O718 1.963 . S
Mg717 O728 1.942 . S
Mg717 O729 1.955 . S
Mg717 O736 1.986 . S
O718 Mg716 1.936 . S
O718 Mg717 1.963 . S
O718 Mg719 1.915 . S
Mg719 O718 1.915 . S
Mg719 O720 1.915 . S
Mg719 O724 2.013 . S
Mg719 O730 2.114 . S
Mg719 O734 2.013 . S
Mg719 O740 2.114 . S
O720 Mg719 1.915 . S
O720 Mg721 1.936 . S
O720 Mg722 1.963 . S
Mg721 O720 1.936 . S
Mg721 O730 2.291 . S
Mg721 O735 2.081 . S
Mg721 O737 2.023 . S
Mg721 O741 2.031 . S
Mg722 O720 1.963 . S
Mg722 O726 1.986 . S
Mg722 O738 1.942 . S
Mg722 O739 1.955 . S
C723 O734 1.191 . S
C723 O736 1.307 . S
O724 Mg719 2.013 . S
O724 C743 1.191 . S
O725 Mg716 2.081 . S
O725 C733 1.331 . S
O726 Mg722 1.986 . S
O726 C743 1.307 . S
O727 Mg716 2.023 . S
O727 C742 1.264 . S
O728 Mg717 1.942 . S
O728 C733 1.244 . S
O729 Mg717 1.955 . S
O729 C742 1.273 . S
O730 Mg719 2.114 . S
O730 Mg721 2.291 . S
O730 C732 1.312 . S
O731 Mg716 2.031 . S
O731 C732 1.208 . S
C732 O730 1.312 . S
C732 O731 1.208 . S
C733 O725 1.331 . S
C733 O728 1.244 . S
O734 Mg719 2.013 . S
O734 C723 1.191 . S
O735 C714 1.331 . S
O735 Mg721 2.081 . S
O736 Mg717 1.986 . S
O736 C723 1.307 . S
O737 C715 1.264 . S
O737 Mg721 2.023 . S
O738 C714 1.244 . S
O738 Mg722 1.942 . S
O739 C715 1.273 . S
O739 Mg722 1.955 . S
O740 C713 1.312 . S
O740 Mg716 2.291 . S
O740 Mg719 2.114 . S
O741 C713 1.208 . S
O741 Mg721 2.031 . S
C742 O727 1.264 . S
C742 O729 1.273 . S
C743 O724 1.191 . S
C743 O726 1.307 . S
C744 O771 1.312 . S
C744 O772 1.208 . S
C745 O766 1.331 . S
C745 O769 1.244 . S
C746 O768 1.264 . S
C746 O770 1.273 . S
Mg747 O749 1.936 . S
Mg747 O756 2.081 . S
Mg747 O758 2.023 . S
Mg747 O762 2.031 . S
Mg747 O771 2.291 . S
Mg748 O749 1.963 . S
Mg748 O759 1.942 . S
Mg748 O760 1.955 . S
Mg748 O767 1.986 . S
O749 Mg747 1.936 . S
O749 Mg748 1.963 . S
O749 Mg750 1.915 . S
Mg750 O749 1.915 . S
Mg750 O751 1.915 . S
Mg750 O755 2.013 . S
Mg750 O761 2.114 . S
Mg750 O765 2.013 . S
Mg750 O771 2.114 . S
O751 Mg750 1.915 . S
O751 Mg752 1.936 . S
O751 Mg753 1.963 . S
Mg752 O751 1.936 . S
Mg752 O761 2.291 . S
Mg752 O766 2.081 . S
Mg752 O768 2.023 . S
Mg752 O772 2.031 . S
Mg753 O751 1.963 . S
Mg753 O757 1.986 . S
Mg753 O769 1.942 . S
Mg753 O770 1.955 . S
C754 O765 1.191 . S
C754 O767 1.307 . S
O755 Mg750 2.013 . S
O755 C774 1.191 . S
O756 Mg747 2.081 . S
O756 C764 1.331 . S
O757 Mg753 1.986 . S
O757 C774 1.307 . S
O758 Mg747 2.023 . S
O758 C773 1.264 . S
O759 Mg748 1.942 . S
O759 C764 1.244 . S
O760 Mg748 1.955 . S
O760 C773 1.273 . S
O761 Mg750 2.114 . S
O761 Mg752 2.291 . S
O761 C763 1.312 . S
O762 Mg747 2.031 . S
O762 C763 1.208 . S
C763 O761 1.312 . S
C763 O762 1.208 . S
C764 O756 1.331 . S
C764 O759 1.244 . S
O765 Mg750 2.013 . S
O765 C754 1.191 . S
O766 C745 1.331 . S
O766 Mg752 2.081 . S
O767 Mg748 1.986 . S
O767 C754 1.307 . S
O768 C746 1.264 . S
O768 Mg752 2.023 . S
O769 C745 1.244 . S
O769 Mg753 1.942 . S
O770 C746 1.273 . S
O770 Mg753 1.955 . S
O771 C744 1.312 . S
O771 Mg747 2.291 . S
O771 Mg750 2.114 . S
O772 C744 1.208 . S
O772 Mg752 2.031 . S
C773 O758 1.264 . S
C773 O760 1.273 . S
C774 O755 1.191 . S
C774 O757 1.307 . S
C775 O802 1.312 . S
C775 O803 1.208 . S
C776 O797 1.331 . S
C776 O800 1.244 . S
C777 O799 1.264 . S
C777 O801 1.273 . S
Mg778 O780 1.936 . S
Mg778 O787 2.081 . S
Mg778 O789 2.023 . S
Mg778 O793 2.031 . S
Mg778 O802 2.291 . S
Mg779 O780 1.963 . S
Mg779 O790 1.942 . S
Mg779 O791 1.955 . S
Mg779 O798 1.986 . S
O780 Mg778 1.936 . S
O780 Mg779 1.963 . S
O780 Mg781 1.915 . S
Mg781 O780 1.915 . S
Mg781 O782 1.915 . S
Mg781 O786 2.013 . S
Mg781 O792 2.114 . S
Mg781 O796 2.013 . S
Mg781 O802 2.114 . S
O782 Mg781 1.915 . S
O782 Mg783 1.936 . S
O782 Mg784 1.963 . S
Mg783 O782 1.936 . S
Mg783 O792 2.291 . S
Mg783 O797 2.081 . S
Mg783 O799 2.023 . S
Mg783 O803 2.031 . S
Mg784 O782 1.963 . S
Mg784 O788 1.986 . S
Mg784 O800 1.942 . S
Mg784 O801 1.955 . S
C785 O796 1.191 . S
C785 O798 1.307 . S
O786 Mg781 2.013 . S
O786 C805 1.191 . S
O787 Mg778 2.081 . S
O787 C795 1.331 . S
O788 Mg784 1.986 . S
O788 C805 1.307 . S
O789 Mg778 2.023 . S
O789 C804 1.264 . S
O790 Mg779 1.942 . S
O790 C795 1.244 . S
O791 Mg779 1.955 . S
O791 C804 1.273 . S
O792 Mg781 2.114 . S
O792 Mg783 2.291 . S
O792 C794 1.312 . S
O793 Mg778 2.031 . S
O793 C794 1.208 . S
C794 O792 1.312 . S
C794 O793 1.208 . S
C795 O787 1.331 . S
C795 O790 1.244 . S
O796 Mg781 2.013 . S
O796 C785 1.191 . S
O797 C776 1.331 . S
O797 Mg783 2.081 . S
O798 Mg779 1.986 . S
O798 C785 1.307 . S
O799 C777 1.264 . S
O799 Mg783 2.023 . S
O800 C776 1.244 . S
O800 Mg784 1.942 . S
O801 C777 1.273 . S
O801 Mg784 1.955 . S
O802 C775 1.312 . S
O802 Mg778 2.291 . S
O802 Mg781 2.114 . S
O803 C775 1.208 . S
O803 Mg783 2.031 . S
C804 O789 1.264 . S
C804 O791 1.273 . S
C805 O786 1.191 . S
C805 O788 1.307 . S
C806 O833 1.312 . S
C806 O834 1.208 . S
C807 O828 1.331 . S
C807 O831 1.269 . S
C808 O830 1.264 . S
C808 O832 1.273 . S
Mg809 O811 1.936 . S
Mg809 O818 2.081 . S
Mg809 O820 2.023 . S
Mg809 O824 2.031 . S
Mg809 O833 2.291 . S
Mg810 O811 1.963 . S
Mg810 O821 1.942 . S
Mg810 O822 1.955 . S
Mg810 O829 1.986 . S
O811 Mg809 1.936 . S
O811 Mg810 1.963 . S
O811 Mg812 1.915 . S
Mg812 O811 1.915 . S
Mg812 O813 1.915 . S
Mg812 O817 2.013 . S
Mg812 O823 2.114 . S
Mg812 O827 2.013 . S
Mg812 O833 2.114 . S
O813 Mg812 1.915 . S
O813 Mg814 1.936 . S
O813 Mg815 1.963 . S
Mg814 O813 1.936 . S
Mg814 O823 2.291 . S
Mg814 O828 2.081 . S
Mg814 O830 2.023 . S
Mg814 O834 2.031 . S
Mg815 O813 1.963 . S
Mg815 O819 1.986 . S
Mg815 O831 1.958 . S
Mg815 O832 1.955 . S
C816 O827 1.191 . S
C816 O829 1.307 . S
O817 Mg812 2.013 . S
O817 C836 1.191 . S
O818 Mg809 2.081 . S
O818 C826 1.331 . S
O819 Mg815 1.986 . S
O819 C836 1.307 . S
O820 Mg809 2.023 . S
O820 C835 1.264 . S
O821 Mg810 1.942 . S
O821 C826 1.244 . S
O822 Mg810 1.955 . S
O822 C835 1.273 . S
O823 Mg812 2.114 . S
O823 Mg814 2.291 . S
O823 C825 1.312 . S
O824 Mg809 2.031 . S
O824 C825 1.208 . S
C825 O823 1.312 . S
C825 O824 1.208 . S
C826 O818 1.331 . S
C826 O821 1.244 . S
O827 Mg812 2.013 . S
O827 C816 1.191 . S
O828 C807 1.331 . S
O828 Mg814 2.081 . S
O829 Mg810 1.986 . S
O829 C816 1.307 . S
O830 C808 1.264 . S
O830 Mg814 2.023 . S
O831 C807 1.269 . S
O831 Mg815 1.958 . S
O832 C808 1.273 . S
O832 Mg815 1.955 . S
O833 C806 1.312 . S
O833 Mg809 2.291 . S
O833 Mg812 2.114 . S
O834 C806 1.208 . S
O834 Mg814 2.031 . S
C835 O820 1.264 . S
C835 O822 1.273 . S
C836 O817 1.191 . S
C836 O819 1.307 . S
C837 O864 1.312 . S
C837 O865 1.208 . S
C838 O859 1.331 . S
C838 O862 1.244 . S
C839 O861 1.264 . S
C839 O863 1.273 . S
Mg840 O842 1.936 . S
Mg840 O849 2.081 . S
Mg840 O851 2.023 . S
Mg840 O855 2.031 . S
Mg840 O864 2.291 . S
Mg841 O842 1.963 . S
Mg841 O852 1.942 . S
Mg841 O853 1.955 . S
Mg841 O860 1.986 . S
O842 Mg840 1.936 . S
O842 Mg841 1.963 . S
O842 Mg843 1.915 . S
Mg843 O842 1.915 . S
Mg843 O844 1.915 . S
Mg843 O848 2.013 . S
Mg843 O854 2.114 . S
Mg843 O858 2.013 . S
Mg843 O864 2.114 . S
O844 Mg843 1.915 . S
O844 Mg845 1.936 . S
O844 Mg846 1.963 . S
Mg845 O844 1.936 . S
Mg845 O854 2.291 . S
Mg845 O859 2.081 . S
Mg845 O861 2.023 . S
Mg845 O865 2.031 . S
Mg846 O844 1.963 . S
Mg846 O850 1.986 . S
Mg846 O862 1.942 . S
Mg846 O863 1.955 . S
C847 O858 1.191 . S
C847 O860 1.307 . S
O848 Mg843 2.013 . S
O848 C867 1.191 . S
O849 Mg840 2.081 . S
O849 C857 1.331 . S
O850 Mg846 1.986 . S
O850 C867 1.307 . S
O851 Mg840 2.023 . S
O851 C866 1.264 . S
O852 Mg841 1.942 . S
O852 C857 1.244 . S
O853 Mg841 1.955 . S
O853 C866 1.273 . S
O854 Mg843 2.114 . S
O854 Mg845 2.291 . S
O854 C856 1.312 . S
O855 Mg840 2.031 . S
O855 C856 1.208 . S
C856 O854 1.312 . S
C856 O855 1.208 . S
C857 O849 1.331 . S
C857 O852 1.244 . S
O858 Mg843 2.013 . S
O858 C847 1.191 . S
O859 C838 1.331 . S
O859 Mg845 2.081 . S
O860 Mg841 1.986 . S
O860 C847 1.307 . S
O861 C839 1.264 . S
O861 Mg845 2.023 . S
O862 C838 1.244 . S
O862 Mg846 1.942 . S
O863 C839 1.273 . S
O863 Mg846 1.955 . S
O864 C837 1.312 . S
O864 Mg840 2.291 . S
O864 Mg843 2.114 . S
O865 C837 1.208 . S
O865 Mg845 2.031 . S
C866 O851 1.264 . S
C866 O853 1.273 . S
C867 O848 1.191 . S
C867 O850 1.307 . S
C868 O895 1.312 . S
C868 O896 1.208 . S
C869 O890 1.331 . S
C869 O893 1.244 . S
C870 O892 1.264 . S
C870 O894 1.273 . S
Mg871 O873 1.936 . S
Mg871 O880 2.081 . S
Mg871 O882 2.023 . S
Mg871 O886 2.031 . S
Mg871 O895 2.291 . S
Mg872 O873 1.963 . S
Mg872 O883 1.942 . S
Mg872 O884 1.955 . S
Mg872 O891 1.986 . S
O873 Mg871 1.936 . S
O873 Mg872 1.963 . S
O873 Mg874 1.915 . S
Mg874 O873 1.915 . S
Mg874 O875 1.915 . S
Mg874 O879 2.013 . S
Mg874 O885 2.114 . S
Mg874 O889 2.013 . S
Mg874 O895 2.114 . S
O875 Mg874 1.915 . S
O875 Mg876 1.936 . S
O875 Mg877 1.963 . S
Mg876 O875 1.936 . S
Mg876 O885 2.291 . S
Mg876 O890 2.081 . S
Mg876 O892 2.023 . S
Mg876 O896 2.031 . S
Mg877 O875 1.963 . S
Mg877 O881 1.986 . S
Mg877 O893 1.942 . S
Mg877 O894 1.955 . S
C878 O889 1.191 . S
C878 O891 1.307 . S
O879 Mg874 2.013 . S
O879 C898 1.191 . S
O880 Mg871 2.081 . S
O880 C888 1.331 . S
O881 Mg877 1.986 . S
O881 C898 1.307 . S
O882 Mg871 2.023 . S
O882 C897 1.264 . S
O883 Mg872 1.942 . S
O883 C888 1.244 . S
O884 Mg872 1.955 . S
O884 C897 1.273 . S
O885 Mg874 2.114 . S
O885 Mg876 2.291 . S
O885 C887 1.312 . S
O886 Mg871 2.031 . S
O886 C887 1.208 . S
C887 O885 1.312 . S
C887 O886 1.208 . S
C888 O880 1.331 . S
C888 O883 1.244 . S
O889 Mg874 2.013 . S
O889 C878 1.191 . S
O890 C869 1.331 . S
O890 Mg876 2.081 . S
O891 Mg872 1.986 . S
O891 C878 1.307 . S
O892 C870 1.264 . S
O892 Mg876 2.023 . S
O893 C869 1.244 . S
O893 Mg877 1.942 . S
O894 C870 1.273 . S
O894 Mg877 1.955 . S
O895 C868 1.312 . S
O895 Mg871 2.291 . S
O895 Mg874 2.114 . S
O896 C868 1.208 . S
O896 Mg876 2.031 . S
C897 O882 1.264 . S
C897 O884 1.273 . S
C898 O879 1.191 . S
C898 O881 1.307 . S
C899 O926 1.312 . S
C899 O927 1.208 . S
C900 O921 1.331 . S
C900 O924 1.269 . S
C901 O923 1.264 . S
C901 O925 1.273 . S
Mg902 O904 1.936 . S
Mg902 O911 2.081 . S
Mg902 O913 2.023 . S
Mg902 O917 2.031 . S
Mg902 O926 2.291 . S
Mg903 O904 1.963 . S
Mg903 O914 1.942 . S
Mg903 O915 1.955 . S
Mg903 O922 1.986 . S
O904 Mg902 1.936 . S
O904 Mg903 1.963 . S
O904 Mg905 1.915 . S
Mg905 O904 1.915 . S
Mg905 O906 1.915 . S
Mg905 O910 2.013 . S
Mg905 O916 2.114 . S
Mg905 O920 2.013 . S
Mg905 O926 2.114 . S
O906 Mg905 1.915 . S
O906 Mg907 1.936 . S
O906 Mg908 1.963 . S
Mg907 O906 1.936 . S
Mg907 O916 2.291 . S
Mg907 O921 2.081 . S
Mg907 O923 2.023 . S
Mg907 O927 2.031 . S
Mg908 O906 1.963 . S
Mg908 O912 1.986 . S
Mg908 O924 1.958 . S
Mg908 O925 1.955 . S
C909 O920 1.191 . S
C909 O922 1.307 . S
O910 Mg905 2.013 . S
O910 C929 1.191 . S
O911 Mg902 2.081 . S
O911 C919 1.331 . S
O912 Mg908 1.986 . S
O912 C929 1.307 . S
O913 Mg902 2.023 . S
O913 C928 1.264 . S
O914 Mg903 1.942 . S
O914 C919 1.244 . S
O915 Mg903 1.955 . S
O915 C928 1.273 . S
O916 Mg905 2.114 . S
O916 Mg907 2.291 . S
O916 C918 1.312 . S
O917 Mg902 2.031 . S
O917 C918 1.208 . S
C918 O916 1.312 . S
C918 O917 1.208 . S
C919 O911 1.331 . S
C919 O914 1.244 . S
O920 Mg905 2.013 . S
O920 C909 1.191 . S
O921 C900 1.331 . S
O921 Mg907 2.081 . S
O922 Mg903 1.986 . S
O922 C909 1.307 . S
O923 C901 1.264 . S
O923 Mg907 2.023 . S
O924 C900 1.269 . S
O924 Mg908 1.958 . S
O925 C901 1.273 . S
O925 Mg908 1.955 . S
O926 C899 1.312 . S
O926 Mg902 2.291 . S
O926 Mg905 2.114 . S
O927 C899 1.208 . S
O927 Mg907 2.031 . S
C928 O913 1.264 . S
C928 O915 1.273 . S
C929 O910 1.191 . S
C929 O912 1.307 . S
C930 O957 1.312 . S
C930 O958 1.208 . S
C931 O952 1.331 . S
C931 O955 1.244 . S
C932 O954 1.264 . S
C932 O956 1.273 . S
Mg933 O935 1.936 . S
Mg933 O942 2.081 . S
Mg933 O944 2.023 . S
Mg933 O948 2.031 . S
Mg933 O957 2.291 . S
Mg934 O935 1.963 . S
Mg934 O945 1.942 . S
Mg934 O946 1.955 . S
Mg934 O953 1.986 . S
O935 Mg933 1.936 . S
O935 Mg934 1.963 . S
O935 Mg936 1.915 . S
Mg936 O935 1.915 . S
Mg936 O937 1.915 . S
Mg936 O941 2.013 . S
Mg936 O947 2.114 . S
Mg936 O951 2.013 . S
Mg936 O957 2.114 . S
O937 Mg936 1.915 . S
O937 Mg938 1.936 . S
O937 Mg939 1.963 . S
Mg938 O937 1.936 . S
Mg938 O947 2.291 . S
Mg938 O952 2.081 . S
Mg938 O954 2.023 . S
Mg938 O958 2.031 . S
Mg939 O937 1.963 . S
Mg939 O943 1.986 . S
Mg939 O955 1.942 . S
Mg939 O956 1.955 . S
C940 O951 1.191 . S
C940 O953 1.307 . S
O941 Mg936 2.013 . S
O941 C960 1.191 . S
O942 Mg933 2.081 . S
O942 C950 1.331 . S
O943 Mg939 1.986 . S
O943 C960 1.307 . S
O944 Mg933 2.023 . S
O944 C959 1.264 . S
O945 Mg934 1.942 . S
O945 C950 1.244 . S
O946 Mg934 1.955 . S
O946 C959 1.273 . S
O947 Mg936 2.114 . S
O947 Mg938 2.291 . S
O947 C949 1.312 . S
O948 Mg933 2.031 . S
O948 C949 1.208 . S
C949 O947 1.312 . S
C949 O948 1.208 . S
C950 O942 1.331 . S
C950 O945 1.244 . S
O951 Mg936 2.013 . S
O951 C940 1.191 . S
O952 C931 1.331 . S
O952 Mg938 2.081 . S
O953 Mg934 1.986 . S
O953 C940 1.307 . S
O954 C932 1.264 . S
O954 Mg938 2.023 . S
O955 C931 1.244 . S
O955 Mg939 1.942 . S
O956 C932 1.273 . S
O956 Mg939 1.955 . S
O957 C930 1.312 . S
O957 Mg933 2.291 . S
O957 Mg936 2.114 . S
O958 C930 1.208 . S
O958 Mg938 2.031 . S
C959 O944 1.264 . S
C959 O946 1.273 . S
C960 O941 1.191 . S
C960 O943 1.307 . S
C961 O988 1.312 . S
C961 O989 1.208 . S
C962 O983 1.331 . S
C962 O986 1.244 . S
C963 O985 1.264 . S
C963 O987 1.273 . S
Mg964 O966 1.936 . S
Mg964 O973 2.081 . S
Mg964 O975 2.023 . S
Mg964 O979 2.031 . S
Mg964 O988 2.291 . S
Mg965 O966 1.963 . S
Mg965 O976 1.942 . S
Mg965 O977 1.955 . S
Mg965 O984 1.986 . S
O966 Mg964 1.936 . S
O966 Mg965 1.963 . S
O966 Mg967 1.915 . S
Mg967 O966 1.915 . S
Mg967 O968 1.915 . S
Mg967 O972 2.013 . S
Mg967 O978 2.114 . S
Mg967 O982 2.013 . S
Mg967 O988 2.114 . S
O968 Mg967 1.915 . S
O968 Mg969 1.936 . S
O968 Mg970 1.963 . S
Mg969 O968 1.936 . S
Mg969 O978 2.291 . S
Mg969 O983 2.081 . S
Mg969 O985 2.023 . S
Mg969 O989 2.031 . S
Mg970 O968 1.963 . S
Mg970 O974 1.986 . S
Mg970 O986 1.942 . S
Mg970 O987 1.955 . S
C971 O982 1.191 . S
C971 O984 1.307 . S
O972 Mg967 2.013 . S
O972 C991 1.191 . S
O973 Mg964 2.081 . S
O973 C981 1.331 . S
O974 Mg970 1.986 . S
O974 C991 1.307 . S
O975 Mg964 2.023 . S
O975 C990 1.264 . S
O976 Mg965 1.942 . S
O976 C981 1.244 . S
O977 Mg965 1.955 . S
O977 C990 1.273 . S
O978 Mg967 2.114 . S
O978 Mg969 2.291 . S
O978 C980 1.312 . S
O979 Mg964 2.031 . S
O979 C980 1.208 . S
C980 O978 1.312 . S
C980 O979 1.208 . S
C981 O973 1.331 . S
C981 O976 1.244 . S
O982 Mg967 2.013 . S
O982 C971 1.191 . S
O983 C962 1.331 . S
O983 Mg969 2.081 . S
O984 Mg965 1.986 . S
O984 C971 1.307 . S
O985 C963 1.264 . S
O985 Mg969 2.023 . S
O986 C962 1.244 . S
O986 Mg970 1.942 . S
O987 C963 1.273 . S
O987 Mg970 1.955 . S
O988 C961 1.312 . S
O988 Mg964 2.291 . S
O988 Mg967 2.114 . S
O989 C961 1.208 . S
O989 Mg969 2.031 . S
C990 O975 1.264 . S
C990 O977 1.273 . S
C991 O972 1.191 . S
C991 O974 1.307 . S
C992 O1019 1.312 . S
C992 O1020 1.208 . S
C993 O1014 1.331 . S
C993 O1017 1.244 . S
C994 O1016 1.264 . S
C994 O1018 1.273 . S
Mg995 O997 1.936 . S
Mg995 O1004 2.081 . S
Mg995 O1006 2.023 . S
Mg995 O1010 2.031 . S
Mg995 O1019 2.291 . S
Mg996 O997 1.963 . S
Mg996 O1007 1.942 . S
Mg996 O1008 1.955 . S
Mg996 O1015 1.986 . S
O997 Mg995 1.936 . S
O997 Mg996 1.963 . S
O997 Mg998 1.915 . S
Mg998 O997 1.915 . S
Mg998 O999 1.915 . S
Mg998 O1003 2.013 . S
Mg998 O1009 2.114 . S
Mg998 O1013 2.013 . S
Mg998 O1019 2.114 . S
O999 Mg998 1.915 . S
O999 Mg1000 1.936 . S
O999 Mg1001 1.963 . S
Mg1000 O999 1.936 . S
Mg1000 O1009 2.291 . S
Mg1000 O1014 2.081 . S
Mg1000 O1016 2.023 . S
Mg1000 O1020 2.031 . S
Mg1001 O999 1.963 . S
Mg1001 O1005 1.986 . S
Mg1001 O1017 1.942 . S
Mg1001 O1018 1.955 . S
C1002 O1013 1.191 . S
C1002 O1015 1.307 . S
O1003 Mg998 2.013 . S
O1003 C1022 1.191 . S
O1004 Mg995 2.081 . S
O1004 C1012 1.331 . S
O1005 Mg1001 1.986 . S
O1005 C1022 1.307 . S
O1006 Mg995 2.023 . S
O1006 C1021 1.264 . S
O1007 Mg996 1.942 . S
O1007 C1012 1.244 . S
O1008 Mg996 1.955 . S
O1008 C1021 1.273 . S
O1009 Mg998 2.114 . S
O1009 Mg1000 2.291 . S
O1009 C1011 1.312 . S
O1010 Mg995 2.031 . S
O1010 C1011 1.208 . S
C1011 O1009 1.312 . S
C1011 O1010 1.208 . S
C1012 O1004 1.331 . S
C1012 O1007 1.244 . S
O1013 Mg998 2.013 . S
O1013 C1002 1.191 . S
O1014 C993 1.331 . S
O1014 Mg1000 2.081 . S
O1015 Mg996 1.986 . S
O1015 C1002 1.307 . S
O1016 C994 1.264 . S
O1016 Mg1000 2.023 . S
O1017 C993 1.244 . S
O1017 Mg1001 1.942 . S
O1018 C994 1.273 . S
O1018 Mg1001 1.955 . S
O1019 C992 1.312 . S
O1019 Mg995 2.291 . S
O1019 Mg998 2.114 . S
O1020 C992 1.208 . S
O1020 Mg1000 2.031 . S
C1021 O1006 1.264 . S
C1021 O1008 1.273 . S
C1022 O1003 1.191 . S
C1022 O1005 1.307 . S
C1023 O1050 1.312 . S
C1023 O1051 1.208 . S
C1024 O1045 1.331 . S
C1024 O1048 1.244 . S
C1025 O1047 1.264 . S
C1025 O1049 1.273 . S
Mg1026 O1028 1.936 . S
Mg1026 O1035 2.081 . S
Mg1026 O1037 2.023 . S
Mg1026 O1041 2.031 . S
Mg1026 O1050 2.291 . S
Mg1027 O1028 1.963 . S
Mg1027 O1038 1.942 . S
Mg1027 O1039 1.955 . S
Mg1027 O1046 1.986 . S
O1028 Mg1026 1.936 . S
O1028 Mg1027 1.963 . S
O1028 Mg1029 1.915 . S
Mg1029 O1028 1.915 . S
Mg1029 O1030 1.915 . S
Mg1029 O1034 2.013 . S
Mg1029 O1040 2.114 . S
Mg1029 O1044 2.013 . S
Mg1029 O1050 2.114 . S
O1030 Mg1029 1.915 . S
O1030 Mg1031 1.936 . S
O1030 Mg1032 1.963 . S
Mg1031 O1030 1.936 . S
Mg1031 O1040 2.291 . S
Mg1031 O1045 2.081 . S
Mg1031 O1047 2.023 . S
Mg1031 O1051 2.031 . S
Mg1032 O1030 1.963 . S
Mg1032 O1036 1.986 . S
Mg1032 O1048 1.942 . S
Mg1032 O1049 1.955 . S
C1033 O1044 1.191 . S
C1033 O1046 1.307 . S
O1034 Mg1029 2.013 . S
O1034 C1053 1.191 . S
O1035 Mg1026 2.081 . S
O1035 C1043 1.331 . S
O1036 Mg1032 1.986 . S
O1036 C1053 1.307 . S
O1037 Mg1026 2.023 . S
O1037 C1052 1.264 . S
O1038 Mg1027 1.942 . S
O1038 C1043 1.244 . S
O1039 Mg1027 1.955 . S
O1039 C1052 1.273 . S
O1040 Mg1029 2.114 . S
O1040 Mg1031 2.291 . S
O1040 C1042 1.312 . S
O1041 Mg1026 2.031 . S
O1041 C1042 1.208 . S
C1042 O1040 1.312 . S
C1042 O1041 1.208 . S
C1043 O1035 1.331 . S
C1043 O1038 1.244 . S
O1044 Mg1029 2.013 . S
O1044 C1033 1.191 . S
O1045 C1024 1.331 . S
O1045 Mg1031 2.081 . S
O1046 Mg1027 1.986 . S
O1046 C1033 1.307 . S
O1047 C1025 1.264 . S
O1047 Mg1031 2.023 . S
O1048 C1024 1.244 . S
O1048 Mg1032 1.942 . S
O1049 C1025 1.273 . S
O1049 Mg1032 1.955 . S
O1050 C1023 1.312 . S
O1050 Mg1026 2.291 . S
O1050 Mg1029 2.114 . S
O1051 C1023 1.208 . S
O1051 Mg1031 2.031 . S
C1052 O1037 1.264 . S
C1052 O1039 1.273 . S
C1053 O1034 1.191 . S
C1053 O1036 1.307 . S
C1054 O1081 1.312 . S
C1054 O1082 1.208 . S
C1055 O1076 1.331 . S
C1055 O1079 1.244 . S
C1056 O1078 1.264 . S
C1056 O1080 1.273 . S
Mg1057 O1059 1.936 . S
Mg1057 O1066 2.081 . S
Mg1057 O1068 2.023 . S
Mg1057 O1072 2.031 . S
Mg1057 O1081 2.291 . S
Mg1058 O1059 1.963 . S
Mg1058 O1069 1.942 . S
Mg1058 O1070 1.955 . S
Mg1058 O1077 1.986 . S
O1059 Mg1057 1.936 . S
O1059 Mg1058 1.963 . S
O1059 Mg1060 1.915 . S
Mg1060 O1059 1.915 . S
Mg1060 O1061 1.915 . S
Mg1060 O1065 2.013 . S
Mg1060 O1071 2.114 . S
Mg1060 O1075 2.013 . S
Mg1060 O1081 2.114 . S
O1061 Mg1060 1.915 . S
O1061 Mg1062 1.936 . S
O1061 Mg1063 1.963 . S
Mg1062 O1061 1.936 . S
Mg1062 O1071 2.291 . S
Mg1062 O1076 2.081 . S
Mg1062 O1078 2.023 . S
Mg1062 O1082 2.031 . S
Mg1063 O1061 1.963 . S
Mg1063 O1067 1.986 . S
Mg1063 O1079 1.942 . S
Mg1063 O1080 1.955 . S
C1064 O1075 1.191 . S
C1064 O1077 1.307 . S
O1065 Mg1060 2.013 . S
O1065 C1084 1.191 . S
O1066 Mg1057 2.081 . S
O1066 C1074 1.331 . S
O1067 Mg1063 1.986 . S
O1067 C1084 1.307 . S
O1068 Mg1057 2.023 . S
O1068 C1083 1.264 . S
O1069 Mg1058 1.942 . S
O1069 C1074 1.244 . S
O1070 Mg1058 1.955 . S
O1070 C1083 1.273 . S
O1071 Mg1060 2.114 . S
O1071 Mg1062 2.291 . S
O1071 C1073 1.312 . S
O1072 Mg1057 2.031 . S
O1072 C1073 1.208 . S
C1073 O1071 1.312 . S
C1073 O1072 1.208 . S
C1074 O1066 1.331 . S
C1074 O1069 1.244 . S
O1075 Mg1060 2.013 . S
O1075 C1064 1.191 . S
O1076 C1055 1.331 . S
O1076 Mg1062 2.081 . S
O1077 Mg1058 1.986 . S
O1077 C1064 1.307 . S
O1078 C1056 1.264 . S
O1078 Mg1062 2.023 . S
O1079 C1055 1.244 . S
O1079 Mg1063 1.942 . S
O1080 C1056 1.273 . S
O1080 Mg1063 1.955 . S
O1081 C1054 1.312 . S
O1081 Mg1057 2.291 . S
O1081 Mg1060 2.114 . S
O1082 C1054 1.208 . S
O1082 Mg1062 2.031 . S
C1083 O1068 1.264 . S
C1083 O1070 1.273 . S
C1084 O1065 1.191 . S
C1084 O1067 1.307 . S
C1085 O1112 1.312 . S
C1085 O1113 1.208 . S
C1086 O1107 1.331 . S
C1086 O1110 1.244 . S
C1087 O1109 1.264 . S
C1087 O1111 1.273 . S
Mg1088 O1090 1.936 . S
Mg1088 O1097 2.081 . S
Mg1088 O1099 2.023 . S
Mg1088 O1103 2.031 . S
Mg1088 O1112 2.291 . S
Mg1089 O1090 1.963 . S
Mg1089 O1100 1.942 . S
Mg1089 O1101 1.955 . S
Mg1089 O1108 1.986 . S
O1090 Mg1088 1.936 . S
O1090 Mg1089 1.963 . S
O1090 Mg1091 1.915 . S
Mg1091 O1090 1.915 . S
Mg1091 O1092 1.915 . S
Mg1091 O1096 2.013 . S
Mg1091 O1102 2.114 . S
Mg1091 O1106 2.013 . S
Mg1091 O1112 2.114 . S
O1092 Mg1091 1.915 . S
O1092 Mg1093 1.936 . S
O1092 Mg1094 1.963 . S
Mg1093 O1092 1.936 . S
Mg1093 O1102 2.291 . S
Mg1093 O1107 2.081 . S
Mg1093 O1109 2.023 . S
Mg1093 O1113 2.031 . S
Mg1094 O1092 1.963 . S
Mg1094 O1098 1.986 . S
Mg1094 O1110 1.942 . S
Mg1094 O1111 1.955 . S
C1095 O1106 1.191 . S
C1095 O1108 1.307 . S
O1096 Mg1091 2.013 . S
O1096 C1115 1.191 . S
O1097 Mg1088 2.081 . S
O1097 C1105 1.331 . S
O1098 Mg1094 1.986 . S
O1098 C1115 1.307 . S
O1099 Mg1088 2.023 . S
O1099 C1114 1.264 . S
O1100 Mg1089 1.942 . S
O1100 C1105 1.244 . S
O1101 Mg1089 1.955 . S
O1101 C1114 1.273 . S
O1102 Mg1091 2.114 . S
O1102 Mg1093 2.291 . S
O1102 C1104 1.312 . S
O1103 Mg1088 2.031 . S
O1103 C1104 1.208 . S
C1104 O1102 1.312 . S
C1104 O1103 1.208 . S
C1105 O1097 1.331 . S
C1105 O1100 1.244 . S
O1106 Mg1091 2.013 . S
O1106 C1095 1.191 . S
O1107 C1086 1.331 . S
O1107 Mg1093 2.081 . S
O1108 Mg1089 1.986 . S
O1108 C1095 1.307 . S
O1109 C1087 1.264 . S
O1109 Mg1093 2.023 . S
O1110 C1086 1.244 . S
O1110 Mg1094 1.942 . S
O1111 C1087 1.273 . S
O1111 Mg1094 1.955 . S
O1112 C1085 1.312 . S
O1112 Mg1088 2.291 . S
O1112 Mg1091 2.114 . S
O1113 C1085 1.208 . S
O1113 Mg1093 2.031 . S
C1114 O1099 1.264 . S
C1114 O1101 1.273 . S
C1115 O1096 1.191 . S
C1115 O1098 1.307 . S
C1116 O1143 1.312 . S
C1116 O1144 1.208 . S
C1117 O1138 1.331 . S
C1117 O1141 1.244 . S
C1118 O1140 1.264 . S
C1118 O1142 1.273 . S
Mg1119 O1121 1.936 . S
Mg1119 O1128 2.081 . S
Mg1119 O1130 2.023 . S
Mg1119 O1134 2.031 . S
Mg1119 O1143 2.291 . S
Mg1120 O1121 1.963 . S
Mg1120 O1131 1.942 . S
Mg1120 O1132 1.955 . S
Mg1120 O1139 1.986 . S
O1121 Mg1119 1.936 . S
O1121 Mg1120 1.963 . S
O1121 Mg1122 1.915 . S
Mg1122 O1121 1.915 . S
Mg1122 O1123 1.915 . S
Mg1122 O1127 2.013 . S
Mg1122 O1133 2.114 . S
Mg1122 O1137 2.013 . S
Mg1122 O1143 2.114 . S
O1123 Mg1122 1.915 . S
O1123 Mg1124 1.936 . S
O1123 Mg1125 1.963 . S
Mg1124 O1123 1.936 . S
Mg1124 O1133 2.291 . S
Mg1124 O1138 2.081 . S
Mg1124 O1140 2.023 . S
Mg1124 O1144 2.031 . S
Mg1125 O1123 1.963 . S
Mg1125 O1129 1.986 . S
Mg1125 O1141 1.942 . S
Mg1125 O1142 1.955 . S
C1126 O1137 1.191 . S
C1126 O1139 1.307 . S
O1127 Mg1122 2.013 . S
O1127 C1146 1.191 . S
O1128 Mg1119 2.081 . S
O1128 C1136 1.331 . S
O1129 Mg1125 1.986 . S
O1129 C1146 1.307 . S
O1130 Mg1119 2.023 . S
O1130 C1145 1.264 . S
O1131 Mg1120 1.942 . S
O1131 C1136 1.244 . S
O1132 Mg1120 1.955 . S
O1132 C1145 1.273 . S
O1133 Mg1122 2.114 . S
O1133 Mg1124 2.291 . S
O1133 C1135 1.312 . S
O1134 Mg1119 2.031 . S
O1134 C1135 1.208 . S
C1135 O1133 1.312 . S
C1135 O1134 1.208 . S
C1136 O1128 1.331 . S
C1136 O1131 1.244 . S
O1137 Mg1122 2.013 . S
O1137 C1126 1.191 . S
O1138 C1117 1.331 . S
O1138 Mg1124 2.081 . S
O1139 Mg1120 1.986 . S
O1139 C1126 1.307 . S
O1140 C1118 1.264 . S
O1140 Mg1124 2.023 . S
O1141 C1117 1.244 . S
O1141 Mg1125 1.942 . S
O1142 C1118 1.273 . S
O1142 Mg1125 1.955 . S
O1143 C1116 1.312 . S
O1143 Mg1119 2.291 . S
O1143 Mg1122 2.114 . S
O1144 C1116 1.208 . S
O1144 Mg1124 2.031 . S
C1145 O1130 1.264 . S
C1145 O1132 1.273 . S
C1146 O1127 1.191 . S
C1146 O1129 1.307 . S
C1147 O1174 1.312 . S
C1147 O1175 1.208 . S
C1148 O1169 1.331 . S
C1148 O1172 1.244 . S
C1149 O1171 1.264 . S
C1149 O1173 1.273 . S
Mg1150 O1152 1.936 . S
Mg1150 O1159 2.081 . S
Mg1150 O1161 2.023 . S
Mg1150 O1165 2.031 . S
Mg1150 O1174 2.291 . S
Mg1151 O1152 1.963 . S
Mg1151 O1162 1.942 . S
Mg1151 O1163 1.955 . S
Mg1151 O1170 1.986 . S
O1152 Mg1150 1.936 . S
O1152 Mg1151 1.963 . S
O1152 Mg1153 1.915 . S
Mg1153 O1152 1.915 . S
Mg1153 O1154 1.915 . S
Mg1153 O1158 2.013 . S
Mg1153 O1164 2.114 . S
Mg1153 O1168 2.013 . S
Mg1153 O1174 2.114 . S
O1154 Mg1153 1.915 . S
O1154 Mg1155 1.936 . S
O1154 Mg1156 1.963 . S
Mg1155 O1154 1.936 . S
Mg1155 O1164 2.291 . S
Mg1155 O1169 2.081 . S
Mg1155 O1171 2.023 . S
Mg1155 O1175 2.031 . S
Mg1156 O1154 1.963 . S
Mg1156 O1160 1.986 . S
Mg1156 O1172 1.942 . S
Mg1156 O1173 1.955 . S
C1157 O1168 1.191 . S
C1157 O1170 1.307 . S
O1158 Mg1153 2.013 . S
O1158 C1177 1.191 . S
O1159 Mg1150 2.081 . S
O1159 C1167 1.331 . S
O1160 Mg1156 1.986 . S
O1160 C1177 1.307 . S
O1161 Mg1150 2.023 . S
O1161 C1176 1.264 . S
O1162 Mg1151 1.942 . S
O1162 C1167 1.244 . S
O1163 Mg1151 1.955 . S
O1163 C1176 1.273 . S
O1164 Mg1153 2.114 . S
O1164 Mg1155 2.291 . S
O1164 C1166 1.312 . S
O1165 Mg1150 2.031 . S
O1165 C1166 1.208 . S
C1166 O1164 1.312 . S
C1166 O1165 1.208 . S
C1167 O1159 1.331 . S
C1167 O1162 1.244 . S
O1168 Mg1153 2.013 . S
O1168 C1157 1.191 . S
O1169 C1148 1.331 . S
O1169 Mg1155 2.081 . S
O1170 Mg1151 1.986 . S
O1170 C1157 1.307 . S
O1171 C1149 1.264 . S
O1171 Mg1155 2.023 . S
O1172 C1148 1.244 . S
O1172 Mg1156 1.942 . S
O1173 C1149 1.273 . S
O1173 Mg1156 1.955 . S
O1174 C1147 1.312 . S
O1174 Mg1150 2.291 . S
O1174 Mg1153 2.114 . S
O1175 C1147 1.208 . S
O1175 Mg1155 2.031 . S
C1176 O1161 1.264 . S
C1176 O1163 1.273 . S
C1177 O1158 1.191 . S
C1177 O1160 1.307 . S
C1178 O1205 1.312 . S
C1178 O1206 1.208 . S
C1179 O1200 1.331 . S
C1179 O1203 1.244 . S
C1180 O1202 1.264 . S
C1180 O1204 1.273 . S
Mg1181 O1183 1.936 . S
Mg1181 O1190 2.081 . S
Mg1181 O1192 2.023 . S
Mg1181 O1196 2.031 . S
Mg1181 O1205 2.291 . S
Mg1182 O1183 1.963 . S
Mg1182 O1193 1.942 . S
Mg1182 O1194 1.955 . S
Mg1182 O1201 1.986 . S
O1183 Mg1181 1.936 . S
O1183 Mg1182 1.963 . S
O1183 Mg1184 1.915 . S
Mg1184 O1183 1.915 . S
Mg1184 O1185 1.915 . S
Mg1184 O1189 2.013 . S
Mg1184 O1195 2.114 . S
Mg1184 O1199 2.013 . S
Mg1184 O1205 2.114 . S
O1185 Mg1184 1.915 . S
O1185 Mg1186 1.936 . S
O1185 Mg1187 1.963 . S
Mg1186 O1185 1.936 . S
Mg1186 O1195 2.291 . S
Mg1186 O1200 2.081 . S
Mg1186 O1202 2.023 . S
Mg1186 O1206 2.031 . S
Mg1187 O1185 1.963 . S
Mg1187 O1191 1.986 . S
Mg1187 O1203 1.942 . S
Mg1187 O1204 1.955 . S
C1188 O1199 1.191 . S
C1188 O1201 1.307 . S
O1189 Mg1184 2.013 . S
O1189 C1208 1.191 . S
O1190 Mg1181 2.081 . S
O1190 C1198 1.331 . S
O1191 Mg1187 1.986 . S
O1191 C1208 1.307 . S
O1192 Mg1181 2.023 . S
O1192 C1207 1.264 . S
O1193 Mg1182 1.942 . S
O1193 C1198 1.244 . S
O1194 Mg1182 1.955 . S
O1194 C1207 1.273 . S
O1195 Mg1184 2.114 . S
O1195 Mg1186 2.291 . S
O1195 C1197 1.312 . S
O1196 Mg1181 2.031 . S
O1196 C1197 1.208 . S
C1197 O1195 1.312 . S
C1197 O1196 1.208 . S
C1198 O1190 1.331 . S
C1198 O1193 1.244 . S
O1199 Mg1184 2.013 . S
O1199 C1188 1.191 . S
O1200 C1179 1.331 . S
O1200 Mg1186 2.081 . S
O1201 Mg1182 1.986 . S
O1201 C1188 1.307 . S
O1202 C1180 1.264 . S
O1202 Mg1186 2.023 . S
O1203 C1179 1.244 . S
O1203 Mg1187 1.942 . S
O1204 C1180 1.273 . S
O1204 Mg1187 1.955 . S
O1205 C1178 1.312 . S
O1205 Mg1181 2.291 . S
O1205 Mg1184 2.114 . S
O1206 C1178 1.208 . S
O1206 Mg1186 2.031 . S
C1207 O1192 1.264 . S
C1207 O1194 1.273 . S
C1208 O1189 1.191 . S
C1208 O1191 1.307 . S
C1209 O1236 1.312 . S
C1209 O1237 1.208 . S
C1210 O1231 1.331 . S
C1210 O1234 1.269 . S
C1211 O1233 1.264 . S
C1211 O1235 1.273 . S
Mg1212 O1214 1.936 . S
Mg1212 O1221 2.081 . S
Mg1212 O1223 2.023 . S
Mg1212 O1227 2.031 . S
Mg1212 O1236 2.291 . S
Mg1213 O1214 1.963 . S
Mg1213 O1224 1.942 . S
Mg1213 O1225 1.955 . S
Mg1213 O1232 1.986 . S
O1214 Mg1212 1.936 . S
O1214 Mg1213 1.963 . S
O1214 Mg1215 1.915 . S
Mg1215 O1214 1.915 . S
Mg1215 O1216 1.915 . S
Mg1215 O1220 2.013 . S
Mg1215 O1226 2.114 . S
Mg1215 O1230 2.013 . S
Mg1215 O1236 2.114 . S
O1216 Mg1215 1.915 . S
O1216 Mg1217 1.936 . S
O1216 Mg1218 1.963 . S
Mg1217 O1216 1.936 . S
Mg1217 O1226 2.291 . S
Mg1217 O1231 2.081 . S
Mg1217 O1233 2.023 . S
Mg1217 O1237 2.031 . S
Mg1218 O1216 1.963 . S
Mg1218 O1222 1.986 . S
Mg1218 O1234 1.958 . S
Mg1218 O1235 1.955 . S
C1219 O1230 1.191 . S
C1219 O1232 1.307 . S
O1220 Mg1215 2.013 . S
O1220 C1239 1.191 . S
O1221 Mg1212 2.081 . S
O1221 C1229 1.331 . S
O1222 Mg1218 1.986 . S
O1222 C1239 1.307 . S
O1223 Mg1212 2.023 . S
O1223 C1238 1.264 . S
O1224 Mg1213 1.942 . S
O1224 C1229 1.244 . S
O1225 Mg1213 1.955 . S
O1225 C1238 1.273 . S
O1226 Mg1215 2.114 . S
O1226 Mg1217 2.291 . S
O1226 C1228 1.312 . S
O1227 Mg1212 2.031 . S
O1227 C1228 1.208 . S
C1228 O1226 1.312 . S
C1228 O1227 1.208 . S
C1229 O1221 1.331 . S
C1229 O1224 1.244 . S
O1230 Mg1215 2.013 . S
O1230 C1219 1.191 . S
O1231 C1210 1.331 . S
O1231 Mg1217 2.081 . S
O1232 Mg1213 1.986 . S
O1232 C1219 1.307 . S
O1233 C1211 1.264 . S
O1233 Mg1217 2.023 . S
O1234 C1210 1.269 . S
O1234 Mg1218 1.958 . S
O1235 C1211 1.273 . S
O1235 Mg1218 1.955 . S
O1236 C1209 1.312 . S
O1236 Mg1212 2.291 . S
O1236 Mg1215 2.114 . S
O1237 C1209 1.208 . S
O1237 Mg1217 2.031 . S
C1238 O1223 1.264 . S
C1238 O1225 1.273 . S
C1239 O1220 1.191 . S
C1239 O1222 1.307 . S
C1240 O1267 1.312 . S
C1240 O1268 1.208 . S
C1241 O1262 1.331 . S
C1241 O1265 1.244 . S
C1242 O1264 1.264 . S
C1242 O1266 1.273 . S
Mg1243 O1245 1.936 . S
Mg1243 O1252 2.081 . S
Mg1243 O1254 2.023 . S
Mg1243 O1258 2.031 . S
Mg1243 O1267 2.291 . S
Mg1244 O1245 1.963 . S
Mg1244 O1255 1.942 . S
Mg1244 O1256 1.955 . S
Mg1244 O1263 1.986 . S
O1245 Mg1243 1.936 . S
O1245 Mg1244 1.963 . S
O1245 Mg1246 1.915 . S
Mg1246 O1245 1.915 . S
Mg1246 O1247 1.915 . S
Mg1246 O1251 2.013 . S
Mg1246 O1257 2.114 . S
Mg1246 O1261 2.013 . S
Mg1246 O1267 2.114 . S
O1247 Mg1246 1.915 . S
O1247 Mg1248 1.936 . S
O1247 Mg1249 1.963 . S
Mg1248 O1247 1.936 . S
Mg1248 O1257 2.291 . S
Mg1248 O1262 2.081 . S
Mg1248 O1264 2.023 . S
Mg1248 O1268 2.031 . S
Mg1249 O1247 1.963 . S
Mg1249 O1253 1.986 . S
Mg1249 O1265 1.942 . S
Mg1249 O1266 1.955 . S
C1250 O1261 1.191 . S
C1250 O1263 1.307 . S
O1251 Mg1246 2.013 . S
O1251 C1270 1.191 . S
O1252 Mg1243 2.081 . S
O1252 C1260 1.331 . S
O1253 Mg1249 1.986 . S
O1253 C1270 1.307 . S
O1254 Mg1243 2.023 . S
O1254 C1269 1.264 . S
O1255 Mg1244 1.942 . S
O1255 C1260 1.244 . S
O1256 Mg1244 1.955 . S
O1256 C1269 1.273 . S
O1257 Mg1246 2.114 . S
O1257 Mg1248 2.291 . S
O1257 C1259 1.312 . S
O1258 Mg1243 2.031 . S
O1258 C1259 1.208 . S
C1259 O1257 1.312 . S
C1259 O1258 1.208 . S
C1260 O1252 1.331 . S
C1260 O1255 1.244 . S
O1261 Mg1246 2.013 . S
O1261 C1250 1.191 . S
O1262 C1241 1.331 . S
O1262 Mg1248 2.081 . S
O1263 Mg1244 1.986 . S
O1263 C1250 1.307 . S
O1264 C1242 1.264 . S
O1264 Mg1248 2.023 . S
O1265 C1241 1.244 . S
O1265 Mg1249 1.942 . S
O1266 C1242 1.273 . S
O1266 Mg1249 1.955 . S
O1267 C1240 1.312 . S
O1267 Mg1243 2.291 . S
O1267 Mg1246 2.114 . S
O1268 C1240 1.208 . S
O1268 Mg1248 2.031 . S
C1269 O1254 1.264 . S
C1269 O1256 1.273 . S
C1270 O1251 1.191 . S
C1270 O1253 1.307 . S
C1271 O1298 1.312 . S
C1271 O1299 1.208 . S
C1272 O1293 1.331 . S
C1272 O1296 1.244 . S
C1273 O1295 1.264 . S
C1273 O1297 1.273 . S
Mg1274 O1276 1.936 . S
Mg1274 O1283 2.081 . S
Mg1274 O1285 2.023 . S
Mg1274 O1289 2.031 . S
Mg1274 O1298 2.291 . S
Mg1275 O1276 1.963 . S
Mg1275 O1286 1.942 . S
Mg1275 O1287 1.955 . S
Mg1275 O1294 1.986 . S
O1276 Mg1274 1.936 . S
O1276 Mg1275 1.963 . S
O1276 Mg1277 1.915 . S
Mg1277 O1276 1.915 . S
Mg1277 O1278 1.915 . S
Mg1277 O1282 2.013 . S
Mg1277 O1288 2.114 . S
Mg1277 O1292 2.013 . S
Mg1277 O1298 2.114 . S
O1278 Mg1277 1.915 . S
O1278 Mg1279 1.936 . S
O1278 Mg1280 1.963 . S
Mg1279 O1278 1.936 . S
Mg1279 O1288 2.291 . S
Mg1279 O1293 2.081 . S
Mg1279 O1295 2.023 . S
Mg1279 O1299 2.031 . S
Mg1280 O1278 1.963 . S
Mg1280 O1284 1.986 . S
Mg1280 O1296 1.942 . S
Mg1280 O1297 1.955 . S
C1281 O1292 1.191 . S
C1281 O1294 1.307 . S
O1282 Mg1277 2.013 . S
O1282 C1301 1.191 . S
O1283 Mg1274 2.081 . S
O1283 C1291 1.331 . S
O1284 Mg1280 1.986 . S
O1284 C1301 1.307 . S
O1285 Mg1274 2.023 . S
O1285 C1300 1.264 . S
O1286 Mg1275 1.942 . S
O1286 C1291 1.244 . S
O1287 Mg1275 1.955 . S
O1287 C1300 1.273 . S
O1288 Mg1277 2.114 . S
O1288 Mg1279 2.291 . S
O1288 C1290 1.312 . S
O1289 Mg1274 2.031 . S
O1289 C1290 1.208 . S
C1290 O1288 1.312 . S
C1290 O1289 1.208 . S
C1291 O1283 1.331 . S
C1291 O1286 1.244 . S
O1292 Mg1277 2.013 . S
O1292 C1281 1.191 . S
O1293 C1272 1.331 . S
O1293 Mg1279 2.081 . S
O1294 Mg1275 1.986 . S
O1294 C1281 1.307 . S
O1295 C1273 1.264 . S
O1295 Mg1279 2.023 . S
O1296 C1272 1.244 . S
O1296 Mg1280 1.942 . S
O1297 C1273 1.273 . S
O1297 Mg1280 1.955 . S
O1298 C1271 1.312 . S
O1298 Mg1274 2.291 . S
O1298 Mg1277 2.114 . S
O1299 C1271 1.208 . S
O1299 Mg1279 2.031 . S
C1300 O1285 1.264 . S
C1300 O1287 1.273 . S
C1301 O1282 1.191 . S
C1301 O1284 1.307 . S
C1302 O1329 1.312 . S
C1302 O1330 1.208 . S
C1303 O1324 1.331 . S
C1303 O1327 1.244 . S
C1304 O1326 1.264 . S
C1304 O1328 1.273 . S
Mg1305 O1307 1.936 . S
Mg1305 O1314 2.081 . S
Mg1305 O1316 2.023 . S
Mg1305 O1320 2.031 . S
Mg1305 O1329 2.291 . S
Mg1306 O1307 1.963 . S
Mg1306 O1317 1.942 . S
Mg1306 O1318 1.955 . S
Mg1306 O1325 1.986 . S
O1307 Mg1305 1.936 . S
O1307 Mg1306 1.963 . S
O1307 Mg1308 1.915 . S
Mg1308 O1307 1.915 . S
Mg1308 O1309 1.915 . S
Mg1308 O1313 2.013 . S
Mg1308 O1319 2.114 . S
Mg1308 O1323 2.013 . S
Mg1308 O1329 2.114 . S
O1309 Mg1308 1.915 . S
O1309 Mg1310 1.936 . S
O1309 Mg1311 1.963 . S
Mg1310 O1309 1.936 . S
Mg1310 O1319 2.291 . S
Mg1310 O1324 2.081 . S
Mg1310 O1326 2.023 . S
Mg1310 O1330 2.031 . S
Mg1311 O1309 1.963 . S
Mg1311 O1315 1.986 . S
Mg1311 O1327 1.942 . S
Mg1311 O1328 1.955 . S
C1312 O1323 1.191 . S
C1312 O1325 1.307 . S
O1313 Mg1308 2.013 . S
O1313 C1332 1.191 . S
O1314 Mg1305 2.081 . S
O1314 C1322 1.331 . S
O1315 Mg1311 1.986 . S
O1315 C1332 1.307 . S
O1316 Mg1305 2.023 . S
O1316 C1331 1.264 . S
O1317 Mg1306 1.942 . S
O1317 C1322 1.244 . S
O1318 Mg1306 1.955 . S
O1318 C1331 1.273 . S
O1319 Mg1308 2.114 . S
O1319 Mg1310 2.291 . S
O1319 C1321 1.312 . S
O1320 Mg1305 2.031 . S
O1320 C1321 1.208 . S
C1321 O1319 1.312 . S
C1321 O1320 1.208 . S
C1322 O1314 1.331 . S
C1322 O1317 1.244 . S
O1323 Mg1308 2.013 . S
O1323 C1312 1.191 . S
O1324 C1303 1.331 . S
O1324 Mg1310 2.081 . S
O1325 Mg1306 1.986 . S
O1325 C1312 1.307 . S
O1326 C1304 1.264 . S
O1326 Mg1310 2.023 . S
O1327 C1303 1.244 . S
O1327 Mg1311 1.942 . S
O1328 C1304 1.273 . S
O1328 Mg1311 1.955 . S
O1329 C1302 1.312 . S
O1329 Mg1305 2.291 . S
O1329 Mg1308 2.114 . S
O1330 C1302 1.208 . S
O1330 Mg1310 2.031 . S
C1331 O1316 1.264 . S
C1331 O1318 1.273 . S
C1332 O1313 1.191 . S
C1332 O1315 1.307 . S
C1333 O1360 1.312 . S
C1333 O1361 1.208 . S
C1334 O1355 1.331 . S
C1334 O1358 1.244 . S
C1335 O1357 1.264 . S
C1335 O1359 1.273 . S
Mg1336 O1338 1.936 . S
Mg1336 O1345 2.081 . S
Mg1336 O1347 2.023 . S
Mg1336 O1351 2.031 . S
Mg1336 O1360 2.291 . S
Mg1337 O1338 1.963 . S
Mg1337 O1348 1.942 . S
Mg1337 O1349 1.955 . S
Mg1337 O1356 1.986 . S
O1338 Mg1336 1.936 . S
O1338 Mg1337 1.963 . S
O1338 Mg1339 1.915 . S
Mg1339 O1338 1.915 . S
Mg1339 O1340 1.915 . S
Mg1339 O1344 2.013 . S
Mg1339 O1350 2.114 . S
Mg1339 O1354 2.013 . S
Mg1339 O1360 2.114 . S
O1340 Mg1339 1.915 . S
O1340 Mg1341 1.936 . S
O1340 Mg1342 1.963 . S
Mg1341 O1340 1.936 . S
Mg1341 O1350 2.291 . S
Mg1341 O1355 2.081 . S
Mg1341 O1357 2.023 . S
Mg1341 O1361 2.031 . S
Mg1342 O1340 1.963 . S
Mg1342 O1346 1.986 . S
Mg1342 O1358 1.942 . S
Mg1342 O1359 1.955 . S
C1343 O1354 1.191 . S
C1343 O1356 1.307 . S
O1344 Mg1339 2.013 . S
O1344 C1363 1.191 . S
O1345 Mg1336 2.081 . S
O1345 C1353 1.331 . S
O1346 Mg1342 1.986 . S
O1346 C1363 1.307 . S
O1347 Mg1336 2.023 . S
O1347 C1362 1.264 . S
O1348 Mg1337 1.942 . S
O1348 C1353 1.244 . S
O1349 Mg1337 1.955 . S
O1349 C1362 1.273 . S
O1350 Mg1339 2.114 . S
O1350 Mg1341 2.291 . S
O1350 C1352 1.312 . S
O1351 Mg1336 2.031 . S
O1351 C1352 1.208 . S
C1352 O1350 1.312 . S
C1352 O1351 1.208 . S
C1353 O1345 1.331 . S
C1353 O1348 1.244 . S
O1354 Mg1339 2.013 . S
O1354 C1343 1.191 . S
O1355 C1334 1.331 . S
O1355 Mg1341 2.081 . S
O1356 Mg1337 1.986 . S
O1356 C1343 1.307 . S
O1357 C1335 1.264 . S
O1357 Mg1341 2.023 . S
O1358 C1334 1.244 . S
O1358 Mg1342 1.942 . S
O1359 C1335 1.273 . S
O1359 Mg1342 1.955 . S
O1360 C1333 1.312 . S
O1360 Mg1336 2.291 . S
O1360 Mg1339 2.114 . S
O1361 C1333 1.208 . S
O1361 Mg1341 2.031 . S
C1362 O1347 1.264 . S
C1362 O1349 1.273 . S
C1363 O1344 1.191 . S
C1363 O1346 1.307 . S
C1364 O1391 1.312 . S
C1364 O1392 1.208 . S
C1365 O1386 1.331 . S
C1365 O1389 1.244 . S
C1366 O1388 1.264 . S
C1366 O1390 1.273 . S
Mg1367 O1369 1.936 . S
Mg1367 O1376 2.081 . S
Mg1367 O1378 2.023 . S
Mg1367 O1382 2.031 . S
Mg1367 O1391 2.291 . S
Mg1368 O1369 1.963 . S
Mg1368 O1379 1.942 . S
Mg1368 O1380 1.955 . S
Mg1368 O1387 1.986 . S
O1369 Mg1367 1.936 . S
O1369 Mg1368 1.963 . S
O1369 Mg1370 1.915 . S
Mg1370 O1369 1.915 . S
Mg1370 O1371 1.915 . S
Mg1370 O1375 2.013 . S
Mg1370 O1381 2.114 . S
Mg1370 O1385 2.013 . S
Mg1370 O1391 2.114 . S
O1371 Mg1370 1.915 . S
O1371 Mg1372 1.936 . S
O1371 Mg1373 1.963 . S
Mg1372 O1371 1.936 . S
Mg1372 O1381 2.291 . S
Mg1372 O1386 2.081 . S
Mg1372 O1388 2.023 . S
Mg1372 O1392 2.031 . S
Mg1373 O1371 1.963 . S
Mg1373 O1377 1.986 . S
Mg1373 O1389 1.942 . S
Mg1373 O1390 1.955 . S
C1374 O1385 1.191 . S
C1374 O1387 1.307 . S
O1375 Mg1370 2.013 . S
O1375 C1394 1.191 . S
O1376 Mg1367 2.081 . S
O1376 C1384 1.331 . S
O1377 Mg1373 1.986 . S
O1377 C1394 1.307 . S
O1378 Mg1367 2.023 . S
O1378 C1393 1.264 . S
O1379 Mg1368 1.942 . S
O1379 C1384 1.244 . S
O1380 Mg1368 1.955 . S
O1380 C1393 1.273 . S
O1381 Mg1370 2.114 . S
O1381 Mg1372 2.291 . S
O1381 C1383 1.312 . S
O1382 Mg1367 2.031 . S
O1382 C1383 1.208 . S
C1383 O1381 1.312 . S
C1383 O1382 1.208 . S
C1384 O1376 1.331 . S
C1384 O1379 1.244 . S
O1385 Mg1370 2.013 . S
O1385 C1374 1.191 . S
O1386 C1365 1.331 . S
O1386 Mg1372 2.081 . S
O1387 Mg1368 1.986 . S
O1387 C1374 1.307 . S
O1388 C1366 1.264 . S
O1388 Mg1372 2.023 . S
O1389 C1365 1.244 . S
O1389 Mg1373 1.942 . S
O1390 C1366 1.273 . S
O1390 Mg1373 1.955 . S
O1391 C1364 1.312 . S
O1391 Mg1367 2.291 . S
O1391 Mg1370 2.114 . S
O1392 C1364 1.208 . S
O1392 Mg1372 2.031 . S
C1393 O1378 1.264 . S
C1393 O1380 1.273 . S
C1394 O1375 1.191 . S
C1394 O1377 1.307 . S
C1395 O1422 1.312 . S
C1395 O1423 1.208 . S
C1396 O1417 1.331 . S
C1396 O1420 1.269 . S
C1397 O1419 1.264 . S
C1397 O1421 1.273 . S
Mg1398 O1400 1.936 . S
Mg1398 O1407 2.081 . S
Mg1398 O1409 2.023 . S
Mg1398 O1413 2.031 . S
Mg1398 O1422 2.291 . S
Mg1399 O1400 1.963 . S
Mg1399 O1410 1.942 . S
Mg1399 O1411 1.955 . S
Mg1399 O1418 1.986 . S
O1400 Mg1398 1.936 . S
O1400 Mg1399 1.963 . S
O1400 Mg1401 1.915 . S
Mg1401 O1400 1.915 . S
Mg1401 O1402 1.915 . S
Mg1401 O1406 2.013 . S
Mg1401 O1412 2.114 . S
Mg1401 O1416 2.013 . S
Mg1401 O1422 2.114 . S
O1402 Mg1401 1.915 . S
O1402 Mg1403 1.936 . S
O1402 Mg1404 1.963 . S
Mg1403 O1402 1.936 . S
Mg1403 O1412 2.291 . S
Mg1403 O1417 2.081 . S
Mg1403 O1419 2.023 . S
Mg1403 O1423 2.031 . S
Mg1404 O1402 1.963 . S
Mg1404 O1408 1.986 . S
Mg1404 O1420 1.958 . S
Mg1404 O1421 1.955 . S
C1405 O1416 1.191 . S
C1405 O1418 1.307 . S
O1406 Mg1401 2.013 . S
O1406 C1425 1.191 . S
O1407 Mg1398 2.081 . S
O1407 C1415 1.331 . S
O1408 Mg1404 1.986 . S
O1408 C1425 1.307 . S
O1409 Mg1398 2.023 . S
O1409 C1424 1.264 . S
O1410 Mg1399 1.942 . S
O1410 C1415 1.244 . S
O1411 Mg1399 1.955 . S
O1411 C1424 1.273 . S
O1412 Mg1401 2.114 . S
O1412 Mg1403 2.291 . S
O1412 C1414 1.312 . S
O1413 Mg1398 2.031 . S
O1413 C1414 1.208 . S
C1414 O1412 1.312 . S
C1414 O1413 1.208 . S
C1415 O1407 1.331 . S
C1415 O1410 1.244 . S
O1416 Mg1401 2.013 . S
O1416 C1405 1.191 . S
O1417 C1396 1.331 . S
O1417 Mg1403 2.081 . S
O1418 Mg1399 1.986 . S
O1418 C1405 1.307 . S
O1419 C1397 1.264 . S
O1419 Mg1403 2.023 . S
O1420 C1396 1.269 . S
O1420 Mg1404 1.958 . S
O1421 C1397 1.273 . S
O1421 Mg1404 1.955 . S
O1422 C1395 1.312 . S
O1422 Mg1398 2.291 . S
O1422 Mg1401 2.114 . S
O1423 C1395 1.208 . S
O1423 Mg1403 2.031 . S
C1424 O1409 1.264 . S
C1424 O1411 1.273 . S
C1425 O1406 1.191 . S
C1425 O1408 1.307 . S
C1426 O1453 1.312 . S
C1426 O1454 1.208 . S
C1427 O1448 1.331 . S
C1427 O1451 1.244 . S
C1428 O1450 1.264 . S
C1428 O1452 1.273 . S
Mg1429 O1431 1.936 . S
Mg1429 O1438 2.081 . S
Mg1429 O1440 2.023 . S
Mg1429 O1444 2.031 . S
Mg1429 O1453 2.291 . S
Mg1430 O1431 1.963 . S
Mg1430 O1441 1.942 . S
Mg1430 O1442 1.955 . S
Mg1430 O1449 1.986 . S
O1431 Mg1429 1.936 . S
O1431 Mg1430 1.963 . S
O1431 Mg1432 1.915 . S
Mg1432 O1431 1.915 . S
Mg1432 O1433 1.915 . S
Mg1432 O1437 2.013 . S
Mg1432 O1443 2.114 . S
Mg1432 O1447 2.013 . S
Mg1432 O1453 2.114 . S
O1433 Mg1432 1.915 . S
O1433 Mg1434 1.936 . S
O1433 Mg1435 1.963 . S
Mg1434 O1433 1.936 . S
Mg1434 O1443 2.291 . S
Mg1434 O1448 2.081 . S
Mg1434 O1450 2.023 . S
Mg1434 O1454 2.031 . S
Mg1435 O1433 1.963 . S
Mg1435 O1439 1.986 . S
Mg1435 O1451 1.942 . S
Mg1435 O1452 1.955 . S
C1436 O1447 1.191 . S
C1436 O1449 1.307 . S
O1437 Mg1432 2.013 . S
O1437 C1456 1.191 . S
O1438 Mg1429 2.081 . S
O1438 C1446 1.331 . S
O1439 Mg1435 1.986 . S
O1439 C1456 1.307 . S
O1440 Mg1429 2.023 . S
O1440 C1455 1.264 . S
O1441 Mg1430 1.942 . S
O1441 C1446 1.244 . S
O1442 Mg1430 1.955 . S
O1442 C1455 1.273 . S
O1443 Mg1432 2.114 . S
O1443 Mg1434 2.291 . S
O1443 C1445 1.312 . S
O1444 Mg1429 2.031 . S
O1444 C1445 1.208 . S
C1445 O1443 1.312 . S
C1445 O1444 1.208 . S
C1446 O1438 1.331 . S
C1446 O1441 1.244 . S
O1447 Mg1432 2.013 . S
O1447 C1436 1.191 . S
O1448 C1427 1.331 . S
O1448 Mg1434 2.081 . S
O1449 Mg1430 1.986 . S
O1449 C1436 1.307 . S
O1450 C1428 1.264 . S
O1450 Mg1434 2.023 . S
O1451 C1427 1.244 . S
O1451 Mg1435 1.942 . S
O1452 C1428 1.273 . S
O1452 Mg1435 1.955 . S
O1453 C1426 1.312 . S
O1453 Mg1429 2.291 . S
O1453 Mg1432 2.114 . S
O1454 C1426 1.208 . S
O1454 Mg1434 2.031 . S
C1455 O1440 1.264 . S
C1455 O1442 1.273 . S
C1456 O1437 1.191 . S
C1456 O1439 1.307 . S
C1457 O1484 1.312 . S
C1457 O1485 1.208 . S
C1458 O1479 1.331 . S
C1458 O1482 1.244 . S
C1459 O1481 1.264 . S
C1459 O1483 1.273 . S
Mg1460 O1462 1.936 . S
Mg1460 O1469 2.081 . S
Mg1460 O1471 2.023 . S
Mg1460 O1475 2.031 . S
Mg1460 O1484 2.291 . S
Mg1461 O1462 1.963 . S
Mg1461 O1472 1.942 . S
Mg1461 O1473 1.955 . S
Mg1461 O1480 1.986 . S
O1462 Mg1460 1.936 . S
O1462 Mg1461 1.963 . S
O1462 Mg1463 1.915 . S
Mg1463 O1462 1.915 . S
Mg1463 O1464 1.915 . S
Mg1463 O1468 2.013 . S
Mg1463 O1474 2.114 . S
Mg1463 O1478 2.013 . S
Mg1463 O1484 2.114 . S
O1464 Mg1463 1.915 . S
O1464 Mg1465 1.936 . S
O1464 Mg1466 1.963 . S
Mg1465 O1464 1.936 . S
Mg1465 O1474 2.291 . S
Mg1465 O1479 2.081 . S
Mg1465 O1481 2.023 . S
Mg1465 O1485 2.031 . S
Mg1466 O1464 1.963 . S
Mg1466 O1470 1.986 . S
Mg1466 O1482 1.942 . S
Mg1466 O1483 1.955 . S
C1467 O1478 1.191 . S
C1467 O1480 1.307 . S
O1468 Mg1463 2.013 . S
O1468 C1487 1.191 . S
O1469 Mg1460 2.081 . S
O1469 C1477 1.331 . S
O1470 Mg1466 1.986 . S
O1470 C1487 1.307 . S
O1471 Mg1460 2.023 . S
O1471 C1486 1.264 . S
O1472 Mg1461 1.942 . S
O1472 C1477 1.244 . S
O1473 Mg1461 1.955 . S
O1473 C1486 1.273 . S
O1474 Mg1463 2.114 . S
O1474 Mg1465 2.291 . S
O1474 C1476 1.312 . S
O1475 Mg1460 2.031 . S
O1475 C1476 1.208 . S
C1476 O1474 1.312 . S
C1476 O1475 1.208 . S
C1477 O1469 1.331 . S
C1477 O1472 1.244 . S
O1478 Mg1463 2.013 . S
O1478 C1467 1.191 . S
O1479 C1458 1.331 . S
O1479 Mg1465 2.081 . S
O1480 Mg1461 1.986 . S
O1480 C1467 1.307 . S
O1481 C1459 1.264 . S
O1481 Mg1465 2.023 . S
O1482 C1458 1.244 . S
O1482 Mg1466 1.942 . S
O1483 C1459 1.273 . S
O1483 Mg1466 1.955 . S
O1484 C1457 1.312 . S
O1484 Mg1460 2.291 . S
O1484 Mg1463 2.114 . S
O1485 C1457 1.208 . S
O1485 Mg1465 2.031 . S
C1486 O1471 1.264 . S
C1486 O1473 1.273 . S
C1487 O1468 1.191 . S
C1487 O1470 1.307 . S
H1488 C1494 0.930 . S
H1489 C1498 0.930 . S
H1490 C1503 0.929 . S
H1491 C1501 0.929 . S
H1492 C1496 0.929 . S
H1493 C1502 0.929 . S
C1494 H1488 0.930 . S
C1494 C1495 1.367 1_545 S
C1494 C1502 1.378 . S
C1495 C1494 1.367 1_565 S
C1495 C1503 1.433 . S
C1496 H1492 0.929 . S
C1496 C1498 1.378 . S
C1496 C1500 1.350 . S
C1497 C1500 1.463 . S
C1497 C1502 1.350 . S
C1497 N1505 1.427 1_545 S
C1498 H1489 0.930 . S
C1498 C1496 1.378 . S
C1498 C1499 1.367 . S
C1499 C1498 1.367 . S
C1499 C1501 1.433 . S
C1500 C1496 1.350 . S
C1500 C1497 1.463 . S
C1500 N1504 1.427 . S
C1501 H1491 0.929 . S
C1501 C1499 1.433 . S
C1501 N1504 1.384 . S
C1502 H1493 0.929 . S
C1502 C1494 1.378 . S
C1502 C1497 1.350 . S
C1503 H1490 0.929 . S
C1503 C1495 1.433 . S
C1503 N1505 1.384 . S
N1504 C1500 1.427 . S
N1504 C1501 1.384 . S
N1505 C1497 1.427 1_565 S
N1505 C1503 1.384 . S
H1506 C1512 0.930 . S
H1507 C1516 0.930 . S
H1508 C1521 0.925 1_455 S
H1509 C1519 0.929 . S
H1510 C1514 0.929 . S
H1511 C1520 0.929 . S
C1512 H1506 0.930 . S
C1512 C1513 1.367 1_655 S
C1512 C1520 1.378 . S
C1513 C1512 1.367 1_455 S
C1513 C1521 1.433 1_455 S
C1514 H1510 0.929 . S
C1514 C1516 1.378 . S
C1514 C1518 1.350 . S
C1515 C1518 1.463 . S
C1515 C1520 1.350 . S
C1515 N1523 1.427 . S
C1516 H1507 0.930 . S
C1516 C1514 1.378 . S
C1516 C1517 1.367 . S
C1517 C1516 1.367 . S
C1517 C1519 1.433 . S
C1518 C1514 1.350 . S
C1518 C1515 1.463 . S
C1518 N1522 1.427 . S
C1519 H1509 0.929 . S
C1519 C1517 1.433 . S
C1519 N1522 1.384 . S
C1520 H1511 0.929 . S
C1520 C1512 1.378 . S
C1520 C1515 1.350 . S
C1521 H1508 0.925 1_655 S
C1521 C1513 1.433 1_655 S
C1521 N1523 1.388 . S
N1522 C1518 1.427 . S
N1522 C1519 1.384 . S
N1523 C1515 1.427 . S
N1523 C1521 1.388 . S
H1524 C1530 0.930 1_556 S
H1525 C1534 0.930 . S
H1526 C1539 0.929 . S
H1527 C1537 0.929 . S
H1528 C1532 0.929 . S
H1529 C1538 0.929 . S
C1530 H1524 0.930 1_554 S
C1530 C1531 1.367 . S
C1530 C1538 1.378 . S
C1531 C1530 1.367 . S
C1531 C1539 1.433 . S
C1532 H1528 0.929 . S
C1532 C1534 1.378 . S
C1532 C1536 1.350 . S
C1533 C1536 1.463 . S
C1533 C1538 1.350 . S
C1533 N1541 1.427 . S
C1534 H1525 0.930 . S
C1534 C1532 1.378 . S
C1534 C1535 1.367 . S
C1535 C1534 1.367 . S
C1535 C1537 1.433 . S
C1536 C1532 1.350 . S
C1536 C1533 1.463 . S
C1536 N1540 1.427 . S
C1537 H1527 0.929 . S
C1537 C1535 1.433 . S
C1537 N1540 1.384 . S
C1538 H1529 0.929 . S
C1538 C1530 1.378 . S
C1538 C1533 1.350 . S
C1539 H1526 0.929 . S
C1539 C1531 1.433 . S
C1539 N1541 1.384 . S
N1540 C1536 1.427 . S
N1540 C1537 1.384 . S
N1541 C1533 1.427 . S
N1541 C1539 1.384 . S
H1542 C1548 0.930 . S
H1543 C1552 0.930 . S
H1544 C1557 0.929 . S
H1545 C1555 0.929 . S
H1546 C1550 0.929 . S
H1547 C1556 0.929 . S
C1548 H1542 0.930 . S
C1548 C1549 1.367 . S
C1548 C1556 1.378 . S
C1549 C1548 1.367 . S
C1549 C1557 1.433 . S
C1550 H1546 0.929 . S
C1550 C1552 1.378 . S
C1550 C1554 1.350 . S
C1551 C1554 1.463 . S
C1551 C1556 1.350 . S
C1551 N1559 1.427 . S
C1552 H1543 0.930 . S
C1552 C1550 1.378 . S
C1552 C1553 1.367 . S
C1553 C1552 1.367 . S
C1553 C1555 1.433 . S
C1554 C1550 1.350 . S
C1554 C1551 1.463 . S
C1554 N1558 1.427 . S
C1555 H1545 0.929 . S
C1555 C1553 1.433 . S
C1555 N1558 1.384 . S
C1556 H1547 0.929 . S
C1556 C1548 1.378 . S
C1556 C1551 1.350 . S
C1557 H1544 0.929 . S
C1557 C1549 1.433 . S
C1557 N1559 1.384 . S
N1558 C1554 1.427 . S
N1558 C1555 1.384 . S
N1559 C1551 1.427 . S
N1559 C1557 1.384 . S
H1560 C1566 0.930 . S
H1561 C1570 0.930 . S
H1562 C1575 0.929 . S
H1563 C1573 0.929 . S
H1564 C1568 0.929 . S
H1565 C1574 0.929 . S
C1566 H1560 0.930 . S
C1566 C1567 1.367 . S
C1566 C1574 1.378 . S
C1567 C1566 1.367 . S
C1567 C1575 1.433 . S
C1568 H1564 0.929 . S
C1568 C1570 1.378 . S
C1568 C1572 1.350 . S
C1569 C1572 1.463 . S
C1569 C1574 1.350 . S
C1569 N1577 1.427 . S
C1570 H1561 0.930 . S
C1570 C1568 1.378 . S
C1570 C1571 1.367 . S
C1571 C1570 1.367 . S
C1571 C1573 1.433 . S
C1572 C1568 1.350 . S
C1572 C1569 1.463 . S
C1572 N1576 1.427 . S
C1573 H1563 0.929 . S
C1573 C1571 1.433 . S
C1573 N1576 1.384 . S
C1574 H1565 0.929 . S
C1574 C1566 1.378 . S
C1574 C1569 1.350 . S
C1575 H1562 0.929 . S
C1575 C1567 1.433 . S
C1575 N1577 1.384 . S
N1576 C1572 1.427 . S
N1576 C1573 1.384 . S
N1577 C1569 1.427 . S
N1577 C1575 1.384 . S
H1578 C1584 0.930 . S
H1579 C1588 0.930 . S
H1580 C1593 0.929 . S
H1581 C1591 0.929 . S
H1582 C1586 0.929 . S
H1583 C1592 0.929 . S
C1584 H1578 0.930 . S
C1584 C1585 1.367 . S
C1584 C1592 1.378 . S
C1585 C1584 1.367 . S
C1585 C1593 1.433 . S
C1586 H1582 0.929 . S
C1586 C1588 1.378 . S
C1586 C1590 1.350 . S
C1587 C1590 1.463 . S
C1587 C1592 1.350 . S
C1587 N1595 1.427 . S
C1588 H1579 0.930 . S
C1588 C1586 1.378 . S
C1588 C1589 1.367 . S
C1589 C1588 1.367 . S
C1589 C1591 1.433 . S
C1590 C1586 1.350 . S
C1590 C1587 1.463 . S
C1590 N1594 1.427 . S
C1591 H1581 0.929 . S
C1591 C1589 1.433 . S
C1591 N1594 1.384 . S
C1592 H1583 0.929 . S
C1592 C1584 1.378 . S
C1592 C1587 1.350 . S
C1593 H1580 0.929 . S
C1593 C1585 1.433 . S
C1593 N1595 1.384 . S
N1594 C1590 1.427 . S
N1594 C1591 1.384 . S
N1595 C1587 1.427 . S
N1595 C1593 1.384 . S
H1596 C1602 0.930 . S
H1597 C1606 0.930 . S
H1598 C1611 0.929 . S
H1599 C1609 0.929 . S
H1600 C1604 0.929 . S
H1601 C1610 0.929 . S
C1602 H1596 0.930 . S
C1602 C1603 1.367 . S
C1602 C1610 1.378 . S
C1603 C1602 1.367 . S
C1603 C1611 1.433 . S
C1604 H1600 0.929 . S
C1604 C1606 1.378 . S
C1604 C1608 1.350 . S
C1605 C1608 1.463 . S
C1605 C1610 1.350 . S
C1605 N1613 1.427 . S
C1606 H1597 0.930 . S
C1606 C1604 1.378 . S
C1606 C1607 1.367 1_545 S
C1607 C1606 1.367 1_565 S
C1607 C1609 1.433 . S
C1608 C1604 1.350 . S
C1608 C1605 1.463 . S
C1608 N1612 1.427 . S
C1609 H1599 0.929 . S
C1609 C1607 1.433 . S
C1609 N1612 1.384 1_565 S
C1610 H1601 0.929 . S
C1610 C1602 1.378 . S
C1610 C1605 1.350 . S
C1611 H1598 0.929 . S
C1611 C1603 1.433 . S
C1611 N1613 1.384 . S
N1612 C1608 1.427 . S
N1612 C1609 1.384 1_545 S
N1613 C1605 1.427 . S
N1613 C1611 1.384 . S
H1614 C1620 0.930 . S
H1615 C1624 0.930 . S
H1616 C1629 0.929 . S
H1617 C1627 0.929 . S
H1618 C1622 0.929 . S
H1619 C1628 0.929 . S
C1620 H1614 0.930 . S
C1620 C1621 1.367 . S
C1620 C1628 1.378 1_455 S
C1621 C1620 1.367 . S
C1621 C1629 1.433 1_455 S
C1622 H1618 0.929 . S
C1622 C1624 1.378 . S
C1622 C1626 1.350 . S
C1623 C1626 1.463 . S
C1623 C1628 1.350 . S
C1623 N1631 1.427 . S
C1624 H1615 0.930 . S
C1624 C1622 1.378 . S
C1624 C1625 1.367 . S
C1625 C1624 1.367 . S
C1625 C1627 1.433 . S
C1626 C1622 1.350 . S
C1626 C1623 1.463 . S
C1626 N1630 1.427 . S
C1627 H1617 0.929 . S
C1627 C1625 1.433 . S
C1627 N1630 1.384 . S
C1628 H1619 0.929 . S
C1628 C1620 1.378 1_655 S
C1628 C1623 1.350 . S
C1629 H1616 0.929 . S
C1629 C1621 1.433 1_655 S
C1629 N1631 1.384 . S
N1630 C1626 1.427 . S
N1630 C1627 1.384 . S
N1631 C1623 1.427 . S
N1631 C1629 1.384 . S
H1632 C1638 0.930 . S
H1633 C1642 0.930 1_556 S
H1634 C1647 0.929 . S
H1635 C1645 0.929 . S
H1636 C1640 0.929 . S
H1637 C1646 0.929 . S
C1638 H1632 0.930 . S
C1638 C1639 1.367 . S
C1638 C1646 1.378 . S
C1639 C1638 1.367 . S
C1639 C1647 1.433 . S
C1640 H1636 0.929 . S
C1640 C1642 1.378 . S
C1640 C1644 1.350 . S
C1641 C1644 1.463 . S
C1641 C1646 1.350 . S
C1641 N1649 1.427 . S
C1642 H1633 0.930 1_554 S
C1642 C1640 1.378 . S
C1642 C1643 1.367 . S
C1643 C1642 1.367 . S
C1643 C1645 1.433 . S
C1644 C1640 1.350 . S
C1644 C1641 1.463 . S
C1644 N1648 1.427 . S
C1645 H1635 0.929 . S
C1645 C1643 1.433 . S
C1645 N1648 1.384 . S
C1646 H1637 0.929 . S
C1646 C1638 1.378 . S
C1646 C1641 1.350 . S
C1647 H1634 0.929 . S
C1647 C1639 1.433 . S
C1647 N1649 1.384 . S
N1648 C1644 1.427 . S
N1648 C1645 1.384 . S
N1649 C1641 1.427 . S
N1649 C1647 1.384 . S
H1650 C1656 0.930 . S
H1651 C1660 0.930 . S
H1652 C1665 0.929 . S
H1653 C1663 0.929 . S
H1654 C1658 0.929 . S
H1655 C1664 0.929 . S
C1656 H1650 0.930 . S
C1656 C1657 1.367 . S
C1656 C1664 1.378 . S
C1657 C1656 1.367 . S
C1657 C1665 1.433 . S
C1658 H1654 0.929 . S
C1658 C1660 1.378 . S
C1658 C1662 1.350 . S
C1659 C1662 1.463 . S
C1659 C1664 1.350 . S
C1659 N1667 1.427 . S
C1660 H1651 0.930 . S
C1660 C1658 1.378 . S
C1660 C1661 1.367 . S
C1661 C1660 1.367 . S
C1661 C1663 1.433 . S
C1662 C1658 1.350 . S
C1662 C1659 1.463 . S
C1662 N1666 1.427 . S
C1663 H1653 0.929 . S
C1663 C1661 1.433 . S
C1663 N1666 1.384 . S
C1664 H1655 0.929 . S
C1664 C1656 1.378 . S
C1664 C1659 1.350 . S
C1665 H1652 0.929 . S
C1665 C1657 1.433 . S
C1665 N1667 1.384 . S
N1666 C1662 1.427 . S
N1666 C1663 1.384 . S
N1667 C1659 1.427 . S
N1667 C1665 1.384 . S
H1668 C1674 0.930 . S
H1669 C1678 0.930 . S
H1670 C1683 0.929 . S
H1671 C1681 0.929 . S
H1672 C1676 0.929 . S
H1673 C1682 0.929 . S
C1674 H1668 0.930 . S
C1674 C1675 1.367 . S
C1674 C1682 1.378 . S
C1675 C1674 1.367 . S
C1675 C1683 1.433 . S
C1676 H1672 0.929 . S
C1676 C1678 1.378 . S
C1676 C1680 1.350 . S
C1677 C1680 1.463 . S
C1677 C1682 1.350 . S
C1677 N1685 1.427 . S
C1678 H1669 0.930 . S
C1678 C1676 1.378 . S
C1678 C1679 1.367 . S
C1679 C1678 1.367 . S
C1679 C1681 1.433 . S
C1680 C1676 1.350 . S
C1680 C1677 1.463 . S
C1680 N1684 1.427 . S
C1681 H1671 0.929 . S
C1681 C1679 1.433 . S
C1681 N1684 1.384 . S
C1682 H1673 0.929 . S
C1682 C1674 1.378 . S
C1682 C1677 1.350 . S
C1683 H1670 0.929 . S
C1683 C1675 1.433 . S
C1683 N1685 1.384 . S
N1684 C1680 1.427 . S
N1684 C1681 1.384 . S
N1685 C1677 1.427 . S
N1685 C1683 1.384 . S
H1686 C1692 0.930 . S
H1687 C1696 0.930 . S
H1688 C1701 0.929 . S
H1689 C1699 0.929 . S
H1690 C1694 0.929 . S
H1691 C1700 0.929 . S
C1692 H1686 0.930 . S
C1692 C1693 1.367 . S
C1692 C1700 1.378 . S
C1693 C1692 1.367 . S
C1693 C1701 1.433 . S
C1694 H1690 0.929 . S
C1694 C1696 1.378 . S
C1694 C1698 1.350 . S
C1695 C1698 1.463 . S
C1695 C1700 1.350 . S
C1695 N1703 1.427 . S
C1696 H1687 0.930 . S
C1696 C1694 1.378 . S
C1696 C1697 1.367 . S
C1697 C1696 1.367 . S
C1697 C1699 1.433 . S
C1698 C1694 1.350 . S
C1698 C1695 1.463 . S
C1698 N1702 1.427 . S
C1699 H1689 0.929 . S
C1699 C1697 1.433 . S
C1699 N1702 1.384 . S
C1700 H1691 0.929 . S
C1700 C1692 1.378 . S
C1700 C1695 1.350 . S
C1701 H1688 0.929 . S
C1701 C1693 1.433 . S
C1701 N1703 1.384 . S
N1702 C1698 1.427 . S
N1702 C1699 1.384 . S
N1703 C1695 1.427 . S
N1703 C1701 1.384 . S
H1704 C1710 0.930 . S
H1705 C1714 0.930 . S
H1706 C1719 0.929 . S
H1707 C1717 0.929 . S
H1708 C1712 0.929 . S
H1709 C1718 0.929 . S
C1710 H1704 0.930 . S
C1710 C1711 1.367 . S
C1710 C1718 1.378 . S
C1711 C1710 1.367 . S
C1711 C1719 1.433 . S
C1712 H1708 0.929 . S
C1712 C1714 1.378 . S
C1712 C1716 1.350 . S
C1713 C1716 1.463 . S
C1713 C1718 1.350 . S
C1713 N1721 1.427 . S
C1714 H1705 0.930 . S
C1714 C1712 1.378 . S
C1714 C1715 1.367 . S
C1715 C1714 1.367 . S
C1715 C1717 1.433 . S
C1716 C1712 1.350 . S
C1716 C1713 1.463 . S
C1716 N1720 1.427 . S
C1717 H1707 0.929 . S
C1717 C1715 1.433 . S
C1717 N1720 1.384 . S
C1718 H1709 0.929 . S
C1718 C1710 1.378 . S
C1718 C1713 1.350 . S
C1719 H1706 0.929 . S
C1719 C1711 1.433 . S
C1719 N1721 1.384 . S
N1720 C1716 1.427 . S
N1720 C1717 1.384 . S
N1721 C1713 1.427 . S
N1721 C1719 1.384 . S
H1722 C1728 0.930 . S
H1723 C1732 0.930 . S
H1724 C1737 0.929 . S
H1725 C1735 0.929 . S
H1726 C1730 0.929 . S
H1727 C1736 0.929 . S
C1728 H1722 0.930 . S
C1728 C1729 1.367 . S
C1728 C1736 1.378 . S
C1729 C1728 1.367 . S
C1729 C1737 1.433 . S
C1730 H1726 0.929 . S
C1730 C1732 1.378 . S
C1730 C1734 1.350 . S
C1731 C1734 1.463 . S
C1731 C1736 1.350 . S
C1731 N1739 1.427 . S
C1732 H1723 0.930 . S
C1732 C1730 1.378 . S
C1732 C1733 1.367 . S
C1733 C1732 1.367 . S
C1733 C1735 1.433 . S
C1734 C1730 1.350 . S
C1734 C1731 1.463 . S
C1734 N1738 1.427 . S
C1735 H1725 0.929 . S
C1735 C1733 1.433 . S
C1735 N1738 1.384 . S
C1736 H1727 0.929 . S
C1736 C1728 1.378 . S
C1736 C1731 1.350 . S
C1737 H1724 0.929 . S
C1737 C1729 1.433 . S
C1737 N1739 1.384 . S
N1738 C1734 1.427 . S
N1738 C1735 1.384 . S
N1739 C1731 1.427 . S
N1739 C1737 1.384 . S
H1740 C1746 0.930 . S
H1741 C1750 0.930 . S
H1742 C1755 0.929 . S
H1743 C1753 0.929 . S
H1744 C1748 0.929 . S
H1745 C1754 0.929 . S
C1746 H1740 0.930 . S
C1746 C1747 1.367 . S
C1746 C1754 1.378 . S
C1747 C1746 1.367 . S
C1747 C1755 1.433 . S
C1748 H1744 0.929 . S
C1748 C1750 1.378 . S
C1748 C1752 1.350 . S
C1749 C1752 1.463 . S
C1749 C1754 1.350 . S
C1749 N1757 1.427 . S
C1750 H1741 0.930 . S
C1750 C1748 1.378 . S
C1750 C1751 1.367 . S
C1751 C1750 1.367 . S
C1751 C1753 1.433 . S
C1752 C1748 1.350 . S
C1752 C1749 1.463 . S
C1752 N1756 1.427 . S
C1753 H1743 0.929 . S
C1753 C1751 1.433 . S
C1753 N1756 1.384 . S
C1754 H1745 0.929 . S
C1754 C1746 1.378 . S
C1754 C1749 1.350 . S
C1755 H1742 0.929 . S
C1755 C1747 1.433 . S
C1755 N1757 1.384 . S
N1756 C1752 1.427 . S
N1756 C1753 1.384 . S
N1757 C1749 1.427 . S
N1757 C1755 1.384 . S
H1758 C1764 0.930 . S
H1759 C1768 0.930 . S
H1760 C1773 0.929 1_554 S
H1761 C1771 0.929 . S
H1762 C1766 0.929 . S
H1763 C1772 0.929 . S
C1764 H1758 0.930 . S
C1764 C1765 1.367 . S
C1764 C1772 1.378 . S
C1765 C1764 1.367 . S
C1765 C1773 1.433 . S
C1766 H1762 0.929 . S
C1766 C1768 1.378 . S
C1766 C1770 1.350 . S
C1767 C1770 1.463 . S
C1767 C1772 1.350 . S
C1767 N1775 1.427 . S
C1768 H1759 0.930 . S
C1768 C1766 1.378 . S
C1768 C1769 1.367 . S
C1769 C1768 1.367 . S
C1769 C1771 1.433 . S
C1770 C1766 1.350 . S
C1770 C1767 1.463 . S
C1770 N1774 1.427 . S
C1771 H1761 0.929 . S
C1771 C1769 1.433 . S
C1771 N1774 1.384 . S
C1772 H1763 0.929 . S
C1772 C1764 1.378 . S
C1772 C1767 1.350 . S
C1773 H1760 0.929 1_556 S
C1773 C1765 1.433 . S
C1773 N1775 1.384 . S
N1774 C1770 1.427 . S
N1774 C1771 1.384 . S
N1775 C1767 1.427 . S
N1775 C1773 1.384 . S
H1776 C1782 0.930 . S
H1777 C1786 0.930 . S
H1778 C1791 0.929 . S
H1779 C1789 0.929 . S
H1780 C1784 0.929 . S
H1781 C1790 0.929 . S
C1782 H1776 0.930 . S
C1782 C1783 1.367 . S
C1782 C1790 1.378 . S
C1783 C1782 1.367 . S
C1783 C1791 1.433 . S
C1784 H1780 0.929 . S
C1784 C1786 1.378 . S
C1784 C1788 1.350 . S
C1785 C1788 1.463 . S
C1785 C1790 1.350 . S
C1785 N1793 1.427 . S
C1786 H1777 0.930 . S
C1786 C1784 1.378 . S
C1786 C1787 1.367 1_455 S
C1787 C1786 1.367 1_655 S
C1787 C1789 1.433 . S
C1788 C1784 1.350 . S
C1788 C1785 1.463 . S
C1788 N1792 1.427 . S
C1789 H1779 0.929 . S
C1789 C1787 1.433 . S
C1789 N1792 1.384 1_655 S
C1790 H1781 0.929 . S
C1790 C1782 1.378 . S
C1790 C1785 1.350 . S
C1791 H1778 0.929 . S
C1791 C1783 1.433 . S
C1791 N1793 1.384 . S
N1792 C1788 1.427 . S
N1792 C1789 1.384 1_455 S
N1793 C1785 1.427 . S
N1793 C1791 1.384 . S
H1794 C1800 0.930 . S
H1795 C1804 0.930 . S
H1796 C1809 0.929 . S
H1797 C1807 0.929 . S
H1798 C1802 0.929 . S
H1799 C1808 0.929 . S
C1800 H1794 0.930 . S
C1800 C1801 1.367 . S
C1800 C1808 1.378 . S
C1801 C1800 1.367 . S
C1801 C1809 1.433 . S
C1802 H1798 0.929 . S
C1802 C1804 1.378 . S
C1802 C1806 1.350 . S
C1803 C1806 1.463 . S
C1803 C1808 1.350 . S
C1803 N1811 1.427 . S
C1804 H1795 0.930 . S
C1804 C1802 1.378 . S
C1804 C1805 1.367 . S
C1805 C1804 1.367 . S
C1805 C1807 1.433 . S
C1806 C1802 1.350 . S
C1806 C1803 1.463 . S
C1806 N1810 1.427 . S
C1807 H1797 0.929 . S
C1807 C1805 1.433 . S
C1807 N1810 1.384 . S
C1808 H1799 0.929 . S
C1808 C1800 1.378 . S
C1808 C1803 1.350 . S
C1809 H1796 0.929 . S
C1809 C1801 1.433 . S
C1809 N1811 1.384 . S
N1810 C1806 1.427 . S
N1810 C1807 1.384 . S
N1811 C1803 1.427 . S
N1811 C1809 1.384 . S
H1812 C1818 0.930 . S
H1813 C1822 0.930 . S
H1814 C1827 0.929 . S
H1815 C1825 0.929 . S
H1816 C1820 0.929 . S
H1817 C1826 0.929 . S
C1818 H1812 0.930 . S
C1818 C1819 1.367 . S
C1818 C1826 1.378 . S
C1819 C1818 1.367 . S
C1819 C1827 1.433 . S
C1820 H1816 0.929 . S
C1820 C1822 1.378 . S
C1820 C1824 1.350 . S
C1821 C1824 1.463 . S
C1821 C1826 1.350 . S
C1821 N1829 1.427 . S
C1822 H1813 0.930 . S
C1822 C1820 1.378 . S
C1822 C1823 1.367 . S
C1823 C1822 1.367 . S
C1823 C1825 1.433 . S
C1824 C1820 1.350 . S
C1824 C1821 1.463 . S
C1824 N1828 1.427 . S
C1825 H1815 0.929 . S
C1825 C1823 1.433 . S
C1825 N1828 1.384 . S
C1826 H1817 0.929 . S
C1826 C1818 1.378 . S
C1826 C1821 1.350 . S
C1827 H1814 0.929 . S
C1827 C1819 1.433 . S
C1827 N1829 1.384 . S
N1828 C1824 1.427 . S
N1828 C1825 1.384 . S
N1829 C1821 1.427 . S
N1829 C1827 1.384 . S
H1830 C1836 0.930 . S
H1831 C1840 0.930 . S
H1832 C1845 0.929 . S
H1833 C1843 0.929 . S
H1834 C1838 0.929 . S
H1835 C1844 0.929 . S
C1836 H1830 0.930 . S
C1836 C1837 1.367 . S
C1836 C1844 1.378 . S
C1837 C1836 1.367 . S
C1837 C1845 1.433 . S
C1838 H1834 0.929 . S
C1838 C1840 1.378 . S
C1838 C1842 1.350 . S
C1839 C1842 1.463 . S
C1839 C1844 1.350 . S
C1839 N1847 1.427 . S
C1840 H1831 0.930 . S
C1840 C1838 1.378 . S
C1840 C1841 1.367 1_545 S
C1841 C1840 1.367 1_565 S
C1841 C1843 1.433 . S
C1842 C1838 1.350 . S
C1842 C1839 1.463 . S
C1842 N1846 1.427 . S
C1843 H1833 0.929 . S
C1843 C1841 1.433 . S
C1843 N1846 1.384 1_565 S
C1844 H1835 0.929 . S
C1844 C1836 1.378 . S
C1844 C1839 1.350 . S
C1845 H1832 0.929 . S
C1845 C1837 1.433 . S
C1845 N1847 1.384 . S
N1846 C1842 1.427 . S
N1846 C1843 1.384 1_545 S
N1847 C1839 1.427 . S
N1847 C1845 1.384 . S
H1848 C1854 0.930 . S
H1849 C1858 0.930 . S
H1850 C1863 0.929 . S
H1851 C1861 0.929 . S
H1852 C1856 0.929 . S
H1853 C1862 0.929 . S
C1854 H1848 0.930 . S
C1854 C1855 1.367 . S
C1854 C1862 1.378 . S
C1855 C1854 1.367 . S
C1855 C1863 1.433 . S
C1856 H1852 0.929 . S
C1856 C1858 1.378 . S
C1856 C1860 1.350 . S
C1857 C1860 1.463 . S
C1857 C1862 1.350 . S
C1857 N1865 1.427 . S
C1858 H1849 0.930 . S
C1858 C1856 1.378 . S
C1858 C1859 1.367 . S
C1859 C1858 1.367 . S
C1859 C1861 1.433 . S
C1860 C1856 1.350 . S
C1860 C1857 1.463 . S
C1860 N1864 1.427 . S
C1861 H1851 0.929 . S
C1861 C1859 1.433 . S
C1861 N1864 1.384 . S
C1862 H1853 0.929 . S
C1862 C1854 1.378 . S
C1862 C1857 1.350 . S
C1863 H1850 0.929 . S
C1863 C1855 1.433 . S
C1863 N1865 1.384 . S
N1864 C1860 1.427 . S
N1864 C1861 1.384 . S
N1865 C1857 1.427 . S
N1865 C1863 1.384 . S
H1866 C1872 0.930 . S
H1867 C1876 0.930 . S
H1868 C1881 0.929 . S
H1869 C1879 0.929 . S
H1870 C1874 0.929 . S
H1871 C1880 0.929 . S
C1872 H1866 0.930 . S
C1872 C1873 1.367 . S
C1872 C1880 1.378 . S
C1873 C1872 1.367 . S
C1873 C1881 1.433 . S
C1874 H1870 0.929 . S
C1874 C1876 1.378 . S
C1874 C1878 1.350 . S
C1875 C1878 1.463 . S
C1875 C1880 1.350 . S
C1875 N1883 1.427 . S
C1876 H1867 0.930 . S
C1876 C1874 1.378 . S
C1876 C1877 1.367 . S
C1877 C1876 1.367 . S
C1877 C1879 1.433 . S
C1878 C1874 1.350 . S
C1878 C1875 1.463 . S
C1878 N1882 1.427 . S
C1879 H1869 0.929 . S
C1879 C1877 1.433 . S
C1879 N1882 1.384 . S
C1880 H1871 0.929 . S
C1880 C1872 1.378 . S
C1880 C1875 1.350 . S
C1881 H1868 0.929 . S
C1881 C1873 1.433 . S
C1881 N1883 1.384 . S
N1882 C1878 1.427 . S
N1882 C1879 1.384 . S
N1883 C1875 1.427 . S
N1883 C1881 1.384 . S
H1884 C1890 0.930 . S
H1885 C1894 0.930 . S
H1886 C1899 0.929 . S
H1887 C1897 0.929 . S
H1888 C1892 0.929 . S
H1889 C1898 0.929 . S
C1890 H1884 0.930 . S
C1890 C1891 1.367 1_565 S
C1890 C1898 1.378 . S
C1891 C1890 1.367 1_545 S
C1891 C1899 1.433 . S
C1892 H1888 0.929 . S
C1892 C1894 1.378 . S
C1892 C1896 1.350 . S
C1893 C1896 1.463 . S
C1893 C1898 1.350 . S
C1893 N1901 1.427 . S
C1894 H1885 0.930 . S
C1894 C1892 1.378 . S
C1894 C1895 1.367 . S
C1895 C1894 1.367 . S
C1895 C1897 1.433 . S
C1896 C1892 1.350 . S
C1896 C1893 1.463 . S
C1896 N1900 1.427 . S
C1897 H1887 0.929 . S
C1897 C1895 1.433 . S
C1897 N1900 1.384 . S
C1898 H1889 0.929 . S
C1898 C1890 1.378 . S
C1898 C1893 1.350 . S
C1899 H1886 0.929 . S
C1899 C1891 1.433 . S
C1899 N1901 1.384 1_545 S
N1900 C1896 1.427 . S
N1900 C1897 1.384 . S
N1901 C1893 1.427 . S
N1901 C1899 1.384 1_565 S
H1902 C1908 0.930 . S
H1903 C1912 0.928 1_455 S
H1904 C1917 0.929 . S
H1905 C1915 0.929 . S
H1906 C1910 0.929 . S
H1907 C1916 0.929 . S
C1908 H1902 0.930 . S
C1908 C1909 1.367 . S
C1908 C1916 1.378 . S
C1909 C1908 1.367 . S
C1909 C1917 1.433 . S
C1910 H1906 0.929 . S
C1910 C1912 1.378 . S
C1910 C1914 1.350 . S
C1911 C1914 1.463 . S
C1911 C1916 1.350 . S
C1911 N1919 1.427 . S
C1912 H1903 0.928 1_655 S
C1912 C1910 1.378 . S
C1912 C1913 1.367 1_655 S
C1913 C1912 1.367 1_455 S
C1913 C1915 1.433 . S
C1914 C1910 1.350 . S
C1914 C1911 1.463 . S
C1914 N1918 1.427 . S
C1915 H1905 0.929 . S
C1915 C1913 1.433 . S
C1915 N1918 1.384 1_455 S
C1916 H1907 0.929 . S
C1916 C1908 1.378 . S
C1916 C1911 1.350 . S
C1917 H1904 0.929 . S
C1917 C1909 1.433 . S
C1917 N1919 1.384 . S
N1918 C1914 1.427 . S
N1918 C1915 1.384 1_655 S
N1919 C1911 1.427 . S
N1919 C1917 1.384 . S
H1920 C1926 0.930 . S
H1921 C1930 0.930 . S
H1922 C1935 0.929 . S
H1923 C1933 0.929 . S
H1924 C1928 0.929 . S
H1925 C1934 0.929 . S
C1926 H1920 0.930 . S
C1926 C1927 1.367 . S
C1926 C1934 1.378 . S
C1927 C1926 1.367 . S
C1927 C1935 1.433 . S
C1928 H1924 0.929 . S
C1928 C1930 1.378 . S
C1928 C1932 1.350 . S
C1929 C1932 1.463 . S
C1929 C1934 1.350 1_565 S
C1929 N1937 1.427 . S
C1930 H1921 0.930 . S
C1930 C1928 1.378 . S
C1930 C1931 1.367 . S
C1931 C1930 1.367 . S
C1931 C1933 1.433 . S
C1932 C1928 1.350 . S
C1932 C1929 1.463 . S
C1932 N1936 1.427 . S
C1933 H1923 0.929 . S
C1933 C1931 1.433 . S
C1933 N1936 1.384 . S
C1934 H1925 0.929 . S
C1934 C1926 1.378 . S
C1934 C1929 1.350 1_545 S
C1935 H1922 0.929 . S
C1935 C1927 1.433 . S
C1935 N1937 1.384 1_545 S
N1936 C1932 1.427 . S
N1936 C1933 1.384 . S
N1937 C1929 1.427 . S
N1937 C1935 1.384 1_565 S
H1938 C1944 0.930 1_655 S
H1939 C1948 0.930 . S
H1940 C1953 0.929 . S
H1941 C1951 0.929 . S
H1942 C1946 0.929 . S
H1943 C1952 0.929 . S
C1944 H1938 0.930 1_455 S
C1944 C1945 1.371 . S
C1944 C1952 1.378 . S
C1945 C1944 1.371 . S
C1945 C1953 1.438 . S
C1946 H1942 0.929 . S
C1946 C1948 1.378 . S
C1946 C1950 1.350 . S
C1947 C1950 1.463 . S
C1947 C1952 1.350 . S
C1947 N1955 1.427 . S
C1948 H1939 0.930 . S
C1948 C1946 1.378 . S
C1948 C1949 1.367 . S
C1949 C1948 1.367 . S
C1949 C1951 1.433 . S
C1950 C1946 1.350 . S
C1950 C1947 1.463 . S
C1950 N1954 1.427 . S
C1951 H1941 0.929 . S
C1951 C1949 1.433 . S
C1951 N1954 1.384 . S
C1952 H1943 0.929 . S
C1952 C1944 1.378 . S
C1952 C1947 1.350 . S
C1953 H1940 0.929 . S
C1953 C1945 1.438 . S
C1953 N1955 1.384 . S
N1954 C1950 1.427 . S
N1954 C1951 1.384 . S
N1955 C1947 1.427 . S
N1955 C1953 1.384 . S
H1956 C1962 0.930 . S
H1957 C1966 0.930 . S
H1958 C1971 0.929 . S
H1959 C1969 0.929 . S
H1960 C1964 0.929 . S
H1961 C1970 0.929 . S
C1962 H1956 0.930 . S
C1962 C1963 1.367 . S
C1962 C1970 1.378 . S
C1963 C1962 1.367 . S
C1963 C1971 1.433 . S
C1964 H1960 0.929 . S
C1964 C1966 1.378 1_556 S
C1964 C1968 1.350 . S
C1965 C1968 1.463 . S
C1965 C1970 1.350 . S
C1965 N1973 1.427 . S
C1966 H1957 0.930 . S
C1966 C1964 1.378 1_554 S
C1966 C1967 1.367 1_554 S
C1967 C1966 1.367 1_556 S
C1967 C1969 1.433 . S
C1968 C1964 1.350 . S
C1968 C1965 1.463 . S
C1968 N1972 1.427 . S
C1969 H1959 0.929 . S
C1969 C1967 1.433 . S
C1969 N1972 1.384 . S
C1970 H1961 0.929 . S
C1970 C1962 1.378 . S
C1970 C1965 1.350 . S
C1971 H1958 0.929 . S
C1971 C1963 1.433 . S
C1971 N1973 1.384 . S
N1972 C1968 1.427 . S
N1972 C1969 1.384 . S
N1973 C1965 1.427 . S
N1973 C1971 1.384 . S
H1974 C1980 0.930 . S
H1975 C1984 0.930 . S
H1976 C1989 0.929 . S
H1977 C1987 0.929 . S
H1978 C1982 0.929 . S
H1979 C1988 0.929 . S
C1980 H1974 0.930 . S
C1980 C1981 1.367 . S
C1980 C1988 1.378 . S
C1981 C1980 1.367 . S
C1981 C1989 1.433 1_554 S
C1982 H1978 0.929 . S
C1982 C1984 1.378 . S
C1982 C1986 1.350 . S
C1983 C1986 1.463 . S
C1983 C1988 1.350 . S
C1983 N1991 1.427 . S
C1984 H1975 0.930 . S
C1984 C1982 1.378 . S
C1984 C1985 1.367 . S
C1985 C1984 1.367 . S
C1985 C1987 1.433 . S
C1986 C1982 1.350 . S
C1986 C1983 1.463 . S
C1986 N1990 1.427 . S
C1987 H1977 0.929 . S
C1987 C1985 1.433 . S
C1987 N1990 1.384 . S
C1988 H1979 0.929 . S
C1988 C1980 1.378 . S
C1988 C1983 1.350 . S
C1989 H1976 0.929 . S
C1989 C1981 1.433 1_556 S
C1989 N1991 1.384 1_556 S
N1990 C1986 1.427 . S
N1990 C1987 1.384 . S
N1991 C1983 1.427 . S
N1991 C1989 1.384 1_554 S
H1992 C1998 0.930 . S
H1993 C2002 0.930 . S
H1994 C2007 0.929 . S
H1995 C2005 0.929 . S
H1996 C2000 0.929 . S
H1997 C2006 0.929 . S
C1998 H1992 0.930 . S
C1998 C1999 1.367 1_545 S
C1998 C2006 1.378 1_545 S
C1999 C1998 1.367 1_565 S
C1999 C2007 1.433 . S
C2000 H1996 0.929 . S
C2000 C2002 1.378 . S
C2000 C2004 1.350 . S
C2001 C2004 1.463 . S
C2001 C2006 1.350 . S
C2001 N2009 1.427 . S
C2002 H1993 0.930 . S
C2002 C2000 1.378 . S
C2002 C2003 1.367 . S
C2003 C2002 1.367 . S
C2003 C2005 1.433 . S
C2004 C2000 1.350 . S
C2004 C2001 1.463 . S
C2004 N2008 1.427 . S
C2005 H1995 0.929 . S
C2005 C2003 1.433 . S
C2005 N2008 1.384 . S
C2006 H1997 0.929 . S
C2006 C1998 1.378 1_565 S
C2006 C2001 1.350 . S
C2007 H1994 0.929 . S
C2007 C1999 1.433 . S
C2007 N2009 1.384 . S
N2008 C2004 1.427 . S
N2008 C2005 1.384 . S
N2009 C2001 1.427 . S
N2009 C2007 1.384 . S
H2010 C2016 0.930 . S
H2011 C2020 0.930 . S
H2012 C2025 0.929 . S
H2013 C2023 0.929 . S
H2014 C2018 0.929 . S
H2015 C2024 0.929 . S
C2016 H2010 0.930 . S
C2016 C2017 1.367 . S
C2016 C2024 1.378 . S
C2017 C2016 1.367 . S
C2017 C2025 1.433 . S
C2018 H2014 0.929 . S
C2018 C2020 1.378 . S
C2018 C2022 1.350 . S
C2019 C2022 1.463 . S
C2019 C2024 1.350 1_455 S
C2019 N2027 1.427 . S
C2020 H2011 0.930 . S
C2020 C2018 1.378 . S
C2020 C2021 1.367 . S
C2021 C2020 1.367 . S
C2021 C2023 1.433 . S
C2022 C2018 1.350 . S
C2022 C2019 1.463 . S
C2022 N2026 1.427 . S
C2023 H2013 0.929 . S
C2023 C2021 1.433 . S
C2023 N2026 1.384 . S
C2024 H2015 0.929 . S
C2024 C2016 1.378 . S
C2024 C2019 1.350 1_655 S
C2025 H2012 0.929 . S
C2025 C2017 1.433 . S
C2025 N2027 1.384 1_655 S
N2026 C2022 1.427 . S
N2026 C2023 1.384 . S
N2027 C2019 1.427 . S
N2027 C2025 1.384 1_455 S
H2028 C2034 0.930 . S
H2029 C2038 0.927 1_554 S
H2030 C2043 0.929 . S
H2031 C2041 0.929 . S
H2032 C2036 0.929 . S
H2033 C2042 0.929 . S
C2034 H2028 0.930 . S
C2034 C2035 1.367 . S
C2034 C2042 1.378 . S
C2035 C2034 1.367 . S
C2035 C2043 1.433 . S
C2036 H2032 0.929 . S
C2036 C2038 1.378 . S
C2036 C2040 1.350 . S
C2037 C2040 1.463 . S
C2037 C2042 1.350 . S
C2037 N2045 1.427 . S
C2038 H2029 0.927 1_556 S
C2038 C2036 1.378 . S
C2038 C2039 1.367 . S
C2039 C2038 1.367 . S
C2039 C2041 1.433 . S
C2040 C2036 1.350 . S
C2040 C2037 1.463 . S
C2040 N2044 1.427 . S
C2041 H2031 0.929 . S
C2041 C2039 1.433 . S
C2041 N2044 1.384 . S
C2042 H2033 0.929 . S
C2042 C2034 1.378 . S
C2042 C2037 1.350 . S
C2043 H2030 0.929 . S
C2043 C2035 1.433 . S
C2043 N2045 1.384 . S
N2044 C2040 1.427 . S
N2044 C2041 1.384 . S
N2045 C2037 1.427 . S
N2045 C2043 1.384 . S
H2046 C2052 0.930 . S
H2047 C2056 0.930 . S
H2048 C2061 0.929 . S
H2049 C2059 0.929 . S
H2050 C2054 0.929 . S
H2051 C2060 0.929 . S
C2052 H2046 0.930 . S
C2052 C2053 1.367 . S
C2052 C2060 1.378 . S
C2053 C2052 1.367 . S
C2053 C2061 1.433 . S
C2054 H2050 0.929 . S
C2054 C2056 1.378 . S
C2054 C2058 1.350 . S
C2055 C2058 1.463 . S
C2055 C2060 1.350 . S
C2055 N2063 1.427 . S
C2056 H2047 0.930 . S
C2056 C2054 1.378 . S
C2056 C2057 1.367 . S
C2057 C2056 1.367 . S
C2057 C2059 1.433 . S
C2058 C2054 1.350 . S
C2058 C2055 1.463 . S
C2058 N2062 1.427 . S
C2059 H2049 0.929 . S
C2059 C2057 1.433 . S
C2059 N2062 1.384 . S
C2060 H2051 0.929 . S
C2060 C2052 1.378 . S
C2060 C2055 1.350 . S
C2061 H2048 0.929 . S
C2061 C2053 1.433 . S
C2061 N2063 1.384 . S
N2062 C2058 1.427 . S
N2062 C2059 1.384 . S
N2063 C2055 1.427 . S
N2063 C2061 1.384 . S
H2064 C2070 0.930 . S
H2065 C2074 0.930 . S
H2066 C2079 0.929 . S
H2067 C2077 0.929 . S
H2068 C2072 0.929 . S
H2069 C2078 0.929 . S
C2070 H2064 0.930 . S
C2070 C2071 1.367 . S
C2070 C2078 1.378 . S
C2071 C2070 1.367 . S
C2071 C2079 1.433 . S
C2072 H2068 0.929 . S
C2072 C2074 1.378 . S
C2072 C2076 1.350 . S
C2073 C2076 1.463 . S
C2073 C2078 1.350 . S
C2073 N2081 1.427 . S
C2074 H2065 0.930 . S
C2074 C2072 1.378 . S
C2074 C2075 1.367 . S
C2075 C2074 1.367 . S
C2075 C2077 1.433 . S
C2076 C2072 1.350 . S
C2076 C2073 1.463 . S
C2076 N2080 1.427 . S
C2077 H2067 0.929 . S
C2077 C2075 1.433 . S
C2077 N2080 1.384 . S
C2078 H2069 0.929 . S
C2078 C2070 1.378 . S
C2078 C2073 1.350 . S
C2079 H2066 0.929 . S
C2079 C2071 1.433 . S
C2079 N2081 1.384 . S
N2080 C2076 1.427 . S
N2080 C2077 1.384 . S
N2081 C2073 1.427 . S
N2081 C2079 1.384 . S
H2082 C2088 0.930 . S
H2083 C2092 0.930 . S
H2084 C2097 0.929 . S
H2085 C2095 0.929 . S
H2086 C2090 0.929 . S
H2087 C2096 0.929 . S
C2088 H2082 0.930 . S
C2088 C2089 1.367 . S
C2088 C2096 1.378 . S
C2089 C2088 1.367 . S
C2089 C2097 1.433 . S
C2090 H2086 0.929 . S
C2090 C2092 1.378 . S
C2090 C2094 1.350 . S
C2091 C2094 1.463 . S
C2091 C2096 1.350 . S
C2091 N2099 1.427 . S
C2092 H2083 0.930 . S
C2092 C2090 1.378 . S
C2092 C2093 1.367 . S
C2093 C2092 1.367 . S
C2093 C2095 1.433 . S
C2094 C2090 1.350 . S
C2094 C2091 1.463 . S
C2094 N2098 1.427 . S
C2095 H2085 0.929 . S
C2095 C2093 1.433 . S
C2095 N2098 1.384 . S
C2096 H2087 0.929 . S
C2096 C2088 1.378 . S
C2096 C2091 1.350 . S
C2097 H2084 0.929 . S
C2097 C2089 1.433 . S
C2097 N2099 1.384 . S
N2098 C2094 1.427 . S
N2098 C2095 1.384 . S
N2099 C2091 1.427 . S
N2099 C2097 1.384 . S
H2100 C2106 0.930 . S
H2101 C2110 0.930 . S
H2102 C2115 0.929 . S
H2103 C2113 0.929 . S
H2104 C2108 0.929 . S
H2105 C2114 0.929 . S
C2106 H2100 0.930 . S
C2106 C2107 1.367 . S
C2106 C2114 1.378 . S
C2107 C2106 1.367 . S
C2107 C2115 1.433 . S
C2108 H2104 0.929 . S
C2108 C2110 1.378 . S
C2108 C2112 1.350 . S
C2109 C2112 1.463 . S
C2109 C2114 1.350 . S
C2109 N2117 1.427 . S
C2110 H2101 0.930 . S
C2110 C2108 1.378 . S
C2110 C2111 1.367 . S
C2111 C2110 1.367 . S
C2111 C2113 1.433 . S
C2112 C2108 1.350 . S
C2112 C2109 1.463 . S
C2112 N2116 1.427 . S
C2113 H2103 0.929 . S
C2113 C2111 1.433 . S
C2113 N2116 1.384 . S
C2114 H2105 0.929 . S
C2114 C2106 1.378 . S
C2114 C2109 1.350 . S
C2115 H2102 0.929 . S
C2115 C2107 1.433 . S
C2115 N2117 1.384 . S
N2116 C2112 1.427 . S
N2116 C2113 1.384 . S
N2117 C2109 1.427 . S
N2117 C2115 1.384 . S
H2118 C2124 0.930 . S
H2119 C2128 0.930 1_556 S
H2120 C2133 0.929 . S
H2121 C2131 0.929 . S
H2122 C2126 0.929 . S
H2123 C2132 0.929 . S
C2124 H2118 0.930 . S
C2124 C2125 1.367 . S
C2124 C2132 1.378 . S
C2125 C2124 1.367 . S
C2125 C2133 1.433 . S
C2126 H2122 0.929 . S
C2126 C2128 1.378 . S
C2126 C2130 1.350 . S
C2127 C2130 1.463 . S
C2127 C2132 1.350 . S
C2127 N2135 1.427 . S
C2128 H2119 0.930 1_554 S
C2128 C2126 1.378 . S
C2128 C2129 1.367 . S
C2129 C2128 1.367 . S
C2129 C2131 1.433 . S
C2130 C2126 1.350 . S
C2130 C2127 1.463 . S
C2130 N2134 1.427 . S
C2131 H2121 0.929 . S
C2131 C2129 1.433 . S
C2131 N2134 1.384 . S
C2132 H2123 0.929 . S
C2132 C2124 1.378 . S
C2132 C2127 1.350 . S
C2133 H2120 0.929 . S
C2133 C2125 1.433 . S
C2133 N2135 1.384 . S
N2134 C2130 1.427 . S
N2134 C2131 1.384 . S
N2135 C2127 1.427 . S
N2135 C2133 1.384 . S
H2136 C2142 0.930 . S
H2137 C2146 0.930 . S
H2138 C2151 0.929 . S
H2139 C2149 0.929 . S
H2140 C2144 0.929 . S
H2141 C2150 0.929 . S
C2142 H2136 0.930 . S
C2142 C2143 1.367 . S
C2142 C2150 1.378 1_455 S
C2143 C2142 1.367 . S
C2143 C2151 1.433 1_455 S
C2144 H2140 0.929 . S
C2144 C2146 1.378 . S
C2144 C2148 1.350 . S
C2145 C2148 1.463 . S
C2145 C2150 1.350 . S
C2145 N2153 1.427 . S
C2146 H2137 0.930 . S
C2146 C2144 1.378 . S
C2146 C2147 1.367 . S
C2147 C2146 1.367 . S
C2147 C2149 1.433 . S
C2148 C2144 1.350 . S
C2148 C2145 1.463 . S
C2148 N2152 1.427 . S
C2149 H2139 0.929 . S
C2149 C2147 1.433 . S
C2149 N2152 1.384 . S
C2150 H2141 0.929 . S
C2150 C2142 1.378 1_655 S
C2150 C2145 1.350 . S
C2151 H2138 0.929 . S
C2151 C2143 1.433 1_655 S
C2151 N2153 1.384 . S
N2152 C2148 1.427 . S
N2152 C2149 1.384 . S
N2153 C2145 1.427 . S
N2153 C2151 1.384 . S
H2154 C2160 0.930 . S
H2155 C2164 0.930 . S
H2156 C2169 0.929 . S
H2157 C2167 0.929 . S
H2158 C2162 0.929 . S
H2159 C2168 0.929 . S
C2160 H2154 0.930 . S
C2160 C2161 1.367 . S
C2160 C2168 1.378 . S
C2161 C2160 1.367 . S
C2161 C2169 1.433 . S
C2162 H2158 0.929 . S
C2162 C2164 1.378 . S
C2162 C2166 1.350 . S
C2163 C2166 1.463 . S
C2163 C2168 1.350 . S
C2163 N2171 1.427 . S
C2164 H2155 0.930 . S
C2164 C2162 1.378 . S
C2164 C2165 1.367 . S
C2165 C2164 1.367 . S
C2165 C2167 1.433 . S
C2166 C2162 1.350 . S
C2166 C2163 1.463 . S
C2166 N2170 1.427 . S
C2167 H2157 0.929 . S
C2167 C2165 1.433 . S
C2167 N2170 1.384 . S
C2168 H2159 0.929 . S
C2168 C2160 1.378 . S
C2168 C2163 1.350 . S
C2169 H2156 0.929 . S
C2169 C2161 1.433 . S
C2169 N2171 1.384 . S
N2170 C2166 1.427 . S
N2170 C2167 1.384 . S
N2171 C2163 1.427 . S
N2171 C2169 1.384 . S
H2172 C2178 0.930 . S
H2173 C2182 0.930 . S
H2174 C2187 0.929 . S
H2175 C2185 0.929 . S
H2176 C2180 0.929 . S
H2177 C2186 0.929 . S
C2178 H2172 0.930 . S
C2178 C2179 1.367 . S
C2178 C2186 1.378 . S
C2179 C2178 1.367 . S
C2179 C2187 1.433 . S
C2180 H2176 0.929 . S
C2180 C2182 1.378 . S
C2180 C2184 1.350 . S
C2181 C2184 1.463 . S
C2181 C2186 1.350 . S
C2181 N2189 1.427 . S
C2182 H2173 0.930 . S
C2182 C2180 1.378 . S
C2182 C2183 1.367 . S
C2183 C2182 1.367 . S
C2183 C2185 1.433 . S
C2184 C2180 1.350 . S
C2184 C2181 1.463 . S
C2184 N2188 1.427 . S
C2185 H2175 0.929 . S
C2185 C2183 1.433 . S
C2185 N2188 1.384 . S
C2186 H2177 0.929 . S
C2186 C2178 1.378 . S
C2186 C2181 1.350 . S
C2187 H2174 0.929 . S
C2187 C2179 1.433 . S
C2187 N2189 1.384 . S
N2188 C2184 1.427 . S
N2188 C2185 1.384 . S
N2189 C2181 1.427 . S
N2189 C2187 1.384 . S
H2190 C2196 0.930 . S
H2191 C2200 0.930 . S
H2192 C2205 0.929 . S
H2193 C2203 0.929 . S
H2194 C2198 0.929 . S
H2195 C2204 0.929 . S
C2196 H2190 0.930 . S
C2196 C2197 1.367 . S
C2196 C2204 1.378 . S
C2197 C2196 1.367 . S
C2197 C2205 1.433 . S
C2198 H2194 0.929 . S
C2198 C2200 1.378 . S
C2198 C2202 1.350 . S
C2199 C2202 1.463 . S
C2199 C2204 1.350 . S
C2199 N2207 1.427 . S
C2200 H2191 0.930 . S
C2200 C2198 1.378 . S
C2200 C2201 1.367 . S
C2201 C2200 1.367 . S
C2201 C2203 1.433 . S
C2202 C2198 1.350 . S
C2202 C2199 1.463 . S
C2202 N2206 1.427 . S
C2203 H2193 0.929 . S
C2203 C2201 1.433 . S
C2203 N2206 1.384 . S
C2204 H2195 0.929 . S
C2204 C2196 1.378 . S
C2204 C2199 1.350 . S
C2205 H2192 0.929 . S
C2205 C2197 1.433 . S
C2205 N2207 1.384 . S
N2206 C2202 1.427 . S
N2206 C2203 1.384 . S
N2207 C2199 1.427 . S
N2207 C2205 1.384 . S
H2208 C2214 0.930 . S
H2209 C2218 0.930 . S
H2210 C2223 0.929 . S
H2211 C2221 0.929 . S
H2212 C2216 0.929 . S
H2213 C2222 0.929 . S
C2214 H2208 0.930 . S
C2214 C2215 1.367 . S
C2214 C2222 1.378 . S
C2215 C2214 1.367 . S
C2215 C2223 1.433 . S
C2216 H2212 0.929 . S
C2216 C2218 1.378 . S
C2216 C2220 1.350 . S
C2217 C2220 1.463 . S
C2217 C2222 1.350 . S
C2217 N2225 1.427 . S
C2218 H2209 0.930 . S
C2218 C2216 1.378 . S
C2218 C2219 1.367 . S
C2219 C2218 1.367 . S
C2219 C2221 1.433 . S
C2220 C2216 1.350 . S
C2220 C2217 1.463 . S
C2220 N2224 1.427 . S
C2221 H2211 0.929 . S
C2221 C2219 1.433 . S
C2221 N2224 1.384 . S
C2222 H2213 0.929 . S
C2222 C2214 1.378 . S
C2222 C2217 1.350 . S
C2223 H2210 0.929 . S
C2223 C2215 1.433 . S
C2223 N2225 1.384 . S
N2224 C2220 1.427 . S
N2224 C2221 1.384 . S
N2225 C2217 1.427 . S
N2225 C2223 1.384 . S
H2226 C2232 0.930 . S
H2227 C2236 0.927 1_655 S
H2228 C2241 0.929 . S
H2229 C2239 0.929 . S
H2230 C2234 0.929 . S
H2231 C2240 0.929 . S
C2232 H2226 0.930 . S
C2232 C2233 1.367 . S
C2232 C2240 1.378 . S
C2233 C2232 1.367 . S
C2233 C2241 1.433 . S
C2234 H2230 0.929 . S
C2234 C2236 1.402 . S
C2234 C2238 1.350 . S
C2235 C2238 1.463 . S
C2235 C2240 1.350 . S
C2235 N2243 1.427 . S
C2236 H2227 0.927 1_455 S
C2236 C2234 1.402 . S
C2236 C2237 1.347 1_455 S
C2237 C2236 1.347 1_655 S
C2237 C2239 1.433 . S
C2238 C2234 1.350 . S
C2238 C2235 1.463 . S
C2238 N2242 1.427 . S
C2239 H2229 0.929 . S
C2239 C2237 1.433 . S
C2239 N2242 1.384 1_655 S
C2240 H2231 0.929 . S
C2240 C2232 1.378 . S
C2240 C2235 1.350 . S
C2241 H2228 0.929 . S
C2241 C2233 1.433 . S
C2241 N2243 1.384 . S
N2242 C2238 1.427 . S
N2242 C2239 1.384 1_455 S
N2243 C2235 1.427 . S
N2243 C2241 1.384 . S
H2244 C2250 0.930 . S
H2245 C2254 0.930 . S
H2246 C2259 0.929 . S
H2247 C2257 0.929 1_455 S
H2248 C2252 0.929 . S
H2249 C2258 0.929 . S
C2250 H2244 0.930 . S
C2250 C2251 1.367 . S
C2250 C2258 1.378 . S
C2251 C2250 1.367 . S
C2251 C2259 1.433 . S
C2252 H2248 0.929 . S
C2252 C2254 1.378 . S
C2252 C2256 1.350 . S
C2253 C2256 1.463 . S
C2253 C2258 1.350 . S
C2253 N2261 1.427 . S
C2254 H2245 0.930 . S
C2254 C2252 1.378 . S
C2254 C2255 1.367 1_655 S
C2255 C2254 1.367 1_455 S
C2255 C2257 1.433 1_455 S
C2256 C2252 1.350 . S
C2256 C2253 1.463 . S
C2256 N2260 1.427 . S
C2257 H2247 0.929 1_655 S
C2257 C2255 1.433 1_655 S
C2257 N2260 1.384 . S
C2258 H2249 0.929 . S
C2258 C2250 1.378 . S
C2258 C2253 1.350 . S
C2259 H2246 0.929 . S
C2259 C2251 1.433 . S
C2259 N2261 1.384 . S
N2260 C2256 1.427 . S
N2260 C2257 1.384 . S
N2261 C2253 1.427 . S
N2261 C2259 1.384 . S
H2262 C2268 0.930 . S
H2263 C2272 0.930 . S
H2264 C2277 0.929 . S
H2265 C2275 0.929 . S
H2266 C2270 0.929 . S
H2267 C2276 0.929 . S
C2268 H2262 0.930 . S
C2268 C2269 1.367 . S
C2268 C2276 1.378 . S
C2269 C2268 1.367 . S
C2269 C2277 1.433 . S
C2270 H2266 0.929 . S
C2270 C2272 1.378 . S
C2270 C2274 1.350 . S
C2271 C2274 1.463 . S
C2271 C2276 1.350 . S
C2271 N2279 1.427 . S
C2272 H2263 0.930 . S
C2272 C2270 1.378 . S
C2272 C2273 1.367 . S
C2273 C2272 1.367 . S
C2273 C2275 1.433 . S
C2274 C2270 1.350 . S
C2274 C2271 1.463 . S
C2274 N2278 1.427 . S
C2275 H2265 0.929 . S
C2275 C2273 1.433 . S
C2275 N2278 1.384 . S
C2276 H2267 0.929 . S
C2276 C2268 1.378 . S
C2276 C2271 1.350 . S
C2277 H2264 0.929 . S
C2277 C2269 1.433 . S
C2277 N2279 1.384 . S
N2278 C2274 1.427 . S
N2278 C2275 1.384 . S
N2279 C2271 1.427 . S
N2279 C2277 1.384 . S
H2280 C2286 0.930 . S
H2281 C2290 0.930 . S
H2282 C2295 0.929 . S
H2283 C2293 0.929 . S
H2284 C2288 0.929 . S
H2285 C2294 0.929 . S
C2286 H2280 0.930 . S
C2286 C2287 1.367 . S
C2286 C2294 1.378 . S
C2287 C2286 1.367 . S
C2287 C2295 1.433 . S
C2288 H2284 0.929 . S
C2288 C2290 1.378 . S
C2288 C2292 1.350 . S
C2289 C2292 1.463 . S
C2289 C2294 1.350 . S
C2289 N2297 1.427 . S
C2290 H2281 0.930 . S
C2290 C2288 1.378 . S
C2290 C2291 1.367 . S
C2291 C2290 1.367 . S
C2291 C2293 1.433 . S
C2292 C2288 1.350 . S
C2292 C2289 1.463 . S
C2292 N2296 1.427 . S
C2293 H2283 0.929 . S
C2293 C2291 1.433 . S
C2293 N2296 1.384 . S
C2294 H2285 0.929 . S
C2294 C2286 1.378 . S
C2294 C2289 1.350 . S
C2295 H2282 0.929 . S
C2295 C2287 1.433 . S
C2295 N2297 1.384 . S
N2296 C2292 1.427 . S
N2296 C2293 1.384 . S
N2297 C2289 1.427 . S
N2297 C2295 1.384 . S
H2298 C2304 0.930 . S
H2299 C2308 0.930 . S
H2300 C2313 0.929 . S
H2301 C2311 0.929 . S
H2302 C2306 0.929 . S
H2303 C2312 0.929 . S
C2304 H2298 0.930 . S
C2304 C2305 1.367 . S
C2304 C2312 1.378 . S
C2305 C2304 1.367 . S
C2305 C2313 1.433 . S
C2306 H2302 0.929 . S
C2306 C2308 1.378 . S
C2306 C2310 1.350 . S
C2307 C2310 1.463 . S
C2307 C2312 1.350 . S
C2307 N2315 1.427 . S
C2308 H2299 0.930 . S
C2308 C2306 1.378 . S
C2308 C2309 1.367 . S
C2309 C2308 1.367 . S
C2309 C2311 1.433 . S
C2310 C2306 1.350 . S
C2310 C2307 1.463 . S
C2310 N2314 1.427 . S
C2311 H2301 0.929 . S
C2311 C2309 1.433 . S
C2311 N2314 1.384 . S
C2312 H2303 0.929 . S
C2312 C2304 1.378 . S
C2312 C2307 1.350 . S
C2313 H2300 0.929 . S
C2313 C2305 1.433 . S
C2313 N2315 1.384 . S
N2314 C2310 1.427 . S
N2314 C2311 1.384 . S
N2315 C2307 1.427 . S
N2315 C2313 1.384 . S
H2316 C2322 0.930 . S
H2317 C2326 0.930 . S
H2318 C2331 0.929 . S
H2319 C2329 0.929 . S
H2320 C2324 0.929 . S
H2321 C2330 0.929 . S
C2322 H2316 0.930 . S
C2322 C2323 1.367 . S
C2322 C2330 1.378 . S
C2323 C2322 1.367 . S
C2323 C2331 1.433 . S
C2324 H2320 0.929 . S
C2324 C2326 1.378 . S
C2324 C2328 1.350 . S
C2325 C2328 1.463 . S
C2325 C2330 1.350 . S
C2325 N2333 1.427 . S
C2326 H2317 0.930 . S
C2326 C2324 1.378 . S
C2326 C2327 1.367 . S
C2327 C2326 1.367 . S
C2327 C2329 1.433 . S
C2328 C2324 1.350 . S
C2328 C2325 1.463 . S
C2328 N2332 1.427 . S
C2329 H2319 0.929 . S
C2329 C2327 1.433 . S
C2329 N2332 1.384 . S
C2330 H2321 0.929 . S
C2330 C2322 1.378 . S
C2330 C2325 1.350 . S
C2331 H2318 0.929 . S
C2331 C2323 1.433 . S
C2331 N2333 1.384 . S
N2332 C2328 1.427 . S
N2332 C2329 1.384 . S
N2333 C2325 1.427 . S
N2333 C2331 1.384 . S
H2334 C2340 0.930 . S
H2335 C2344 0.930 1_554 S
H2336 C2349 0.929 . S
H2337 C2347 0.929 . S
H2338 C2342 0.929 . S
H2339 C2348 0.929 . S
C2340 H2334 0.930 . S
C2340 C2341 1.367 1_655 S
C2340 C2348 1.378 . S
C2341 C2340 1.367 1_455 S
C2341 C2349 1.433 . S
C2342 H2338 0.929 . S
C2342 C2344 1.378 . S
C2342 C2346 1.350 . S
C2343 C2346 1.463 . S
C2343 C2348 1.350 . S
C2343 N2351 1.427 1_655 S
C2344 H2335 0.930 1_556 S
C2344 C2342 1.378 . S
C2344 C2345 1.367 . S
C2345 C2344 1.367 . S
C2345 C2347 1.433 . S
C2346 C2342 1.350 . S
C2346 C2343 1.463 . S
C2346 N2350 1.427 . S
C2347 H2337 0.929 . S
C2347 C2345 1.433 . S
C2347 N2350 1.384 . S
C2348 H2339 0.929 . S
C2348 C2340 1.378 . S
C2348 C2343 1.350 . S
C2349 H2336 0.929 . S
C2349 C2341 1.433 . S
C2349 N2351 1.384 . S
N2350 C2346 1.427 . S
N2350 C2347 1.384 . S
N2351 C2343 1.427 1_455 S
N2351 C2349 1.384 . S
H2352 C2358 0.930 . S
H2353 C2362 0.930 . S
H2354 C2367 0.929 . S
H2355 C2365 0.929 . S
H2356 C2360 0.929 . S
H2357 C2366 0.929 . S
C2358 H2352 0.930 . S
C2358 C2359 1.367 . S
C2358 C2366 1.378 . S
C2359 C2358 1.367 . S
C2359 C2367 1.433 . S
C2360 H2356 0.929 . S
C2360 C2362 1.378 . S
C2360 C2364 1.350 . S
C2361 C2364 1.463 . S
C2361 C2366 1.350 . S
C2361 N2369 1.427 . S
C2362 H2353 0.930 . S
C2362 C2360 1.378 . S
C2362 C2363 1.367 . S
C2363 C2362 1.367 . S
C2363 C2365 1.433 . S
C2364 C2360 1.350 . S
C2364 C2361 1.463 . S
C2364 N2368 1.427 . S
C2365 H2355 0.929 . S
C2365 C2363 1.433 . S
C2365 N2368 1.384 . S
C2366 H2357 0.929 . S
C2366 C2358 1.378 . S
C2366 C2361 1.350 . S
C2367 H2354 0.929 . S
C2367 C2359 1.433 . S
C2367 N2369 1.384 . S
N2368 C2364 1.427 . S
N2368 C2365 1.384 . S
N2369 C2361 1.427 . S
N2369 C2367 1.384 . S
H2370 C2376 0.930 . S
H2371 C2380 0.930 . S
H2372 C2385 0.929 . S
H2373 C2383 0.929 . S
H2374 C2378 0.929 . S
H2375 C2384 0.929 . S
C2376 H2370 0.930 . S
C2376 C2377 1.367 . S
C2376 C2384 1.378 . S
C2377 C2376 1.367 . S
C2377 C2385 1.433 . S
C2378 H2374 0.929 . S
C2378 C2380 1.378 . S
C2378 C2382 1.350 . S
C2379 C2382 1.463 . S
C2379 C2384 1.350 . S
C2379 N2387 1.427 . S
C2380 H2371 0.930 . S
C2380 C2378 1.378 . S
C2380 C2381 1.367 . S
C2381 C2380 1.367 . S
C2381 C2383 1.433 . S
C2382 C2378 1.350 . S
C2382 C2379 1.463 . S
C2382 N2386 1.427 . S
C2383 H2373 0.929 . S
C2383 C2381 1.433 . S
C2383 N2386 1.384 . S
C2384 H2375 0.929 . S
C2384 C2376 1.378 . S
C2384 C2379 1.350 . S
C2385 H2372 0.929 . S
C2385 C2377 1.433 . S
C2385 N2387 1.384 . S
N2386 C2382 1.427 . S
N2386 C2383 1.384 . S
N2387 C2379 1.427 . S
N2387 C2385 1.384 . S
H2388 C2394 0.930 . S
H2389 C2398 0.930 . S
H2390 C2403 0.929 . S
H2391 C2401 0.929 . S
H2392 C2396 0.929 . S
H2393 C2402 0.929 . S
C2394 H2388 0.930 . S
C2394 C2395 1.401 . S
C2394 C2402 1.378 . S
C2395 C2394 1.401 . S
C2395 C2403 1.424 1_565 S
C2396 H2392 0.929 . S
C2396 C2398 1.378 . S
C2396 C2400 1.350 . S
C2397 C2400 1.463 . S
C2397 C2402 1.350 . S
C2397 N2405 1.427 . S
C2398 H2389 0.930 . S
C2398 C2396 1.378 . S
C2398 C2399 1.367 . S
C2399 C2398 1.367 . S
C2399 C2401 1.433 . S
C2400 C2396 1.350 . S
C2400 C2397 1.463 . S
C2400 N2404 1.427 . S
C2401 H2391 0.929 . S
C2401 C2399 1.433 . S
C2401 N2404 1.384 . S
C2402 H2393 0.929 . S
C2402 C2394 1.378 . S
C2402 C2397 1.350 . S
C2403 H2390 0.929 . S
C2403 C2395 1.424 1_545 S
C2403 N2405 1.384 1_545 S
N2404 C2400 1.427 . S
N2404 C2401 1.384 . S
N2405 C2397 1.427 . S
N2405 C2403 1.384 1_565 S
H2406 C2412 0.930 . S
H2407 C2416 0.930 . S
H2408 C2421 0.929 . S
H2409 C2419 0.929 . S
H2410 C2414 0.929 . S
H2411 C2420 0.929 . S
C2412 H2406 0.930 . S
C2412 C2413 1.367 . S
C2412 C2420 1.378 . S
C2413 C2412 1.367 . S
C2413 C2421 1.433 . S
C2414 H2410 0.929 . S
C2414 C2416 1.378 . S
C2414 C2418 1.350 . S
C2415 C2418 1.463 . S
C2415 C2420 1.350 . S
C2415 N2423 1.427 . S
C2416 H2407 0.930 . S
C2416 C2414 1.378 . S
C2416 C2417 1.367 . S
C2417 C2416 1.367 . S
C2417 C2419 1.433 . S
C2418 C2414 1.350 . S
C2418 C2415 1.463 . S
C2418 N2422 1.427 . S
C2419 H2409 0.929 . S
C2419 C2417 1.433 . S
C2419 N2422 1.384 . S
C2420 H2411 0.929 . S
C2420 C2412 1.378 . S
C2420 C2415 1.350 . S
C2421 H2408 0.929 . S
C2421 C2413 1.433 . S
C2421 N2423 1.384 . S
N2422 C2418 1.427 . S
N2422 C2419 1.384 . S
N2423 C2415 1.427 . S
N2423 C2421 1.384 . S
H2424 C2430 0.930 . S
H2425 C2434 0.930 . S
H2426 C2439 0.929 . S
H2427 C2437 0.929 . S
H2428 C2432 0.929 . S
H2429 C2438 0.929 . S
C2430 H2424 0.930 . S
C2430 C2431 1.367 1_554 S
C2430 C2438 1.378 1_554 S
C2431 C2430 1.367 1_556 S
C2431 C2439 1.433 . S
C2432 H2428 0.929 . S
C2432 C2434 1.378 . S
C2432 C2436 1.350 . S
C2433 C2436 1.463 . S
C2433 C2438 1.350 . S
C2433 N2441 1.427 . S
C2434 H2425 0.930 . S
C2434 C2432 1.378 . S
C2434 C2435 1.367 . S
C2435 C2434 1.367 . S
C2435 C2437 1.433 . S
C2436 C2432 1.350 . S
C2436 C2433 1.463 . S
C2436 N2440 1.427 . S
C2437 H2427 0.929 . S
C2437 C2435 1.433 . S
C2437 N2440 1.384 . S
C2438 H2429 0.929 . S
C2438 C2430 1.378 1_556 S
C2438 C2433 1.350 . S
C2439 H2426 0.929 . S
C2439 C2431 1.433 . S
C2439 N2441 1.384 . S
N2440 C2436 1.427 . S
N2440 C2437 1.384 . S
N2441 C2433 1.427 . S
N2441 C2439 1.384 . S
H2442 C2448 0.930 . S
H2443 C2452 0.930 . S
H2444 C2457 0.929 . S
H2445 C2455 0.929 . S
H2446 C2450 0.929 . S
H2447 C2456 0.929 . S
C2448 H2442 0.930 . S
C2448 C2449 1.367 . S
C2448 C2456 1.378 . S
C2449 C2448 1.367 . S
C2449 C2457 1.433 . S
C2450 H2446 0.929 . S
C2450 C2452 1.378 . S
C2450 C2454 1.350 . S
C2451 C2454 1.463 . S
C2451 C2456 1.350 . S
C2451 N2459 1.427 . S
C2452 H2443 0.930 . S
C2452 C2450 1.378 . S
C2452 C2453 1.367 . S
C2453 C2452 1.367 . S
C2453 C2455 1.433 . S
C2454 C2450 1.350 . S
C2454 C2451 1.463 . S
C2454 N2458 1.427 . S
C2455 H2445 0.929 . S
C2455 C2453 1.433 . S
C2455 N2458 1.384 . S
C2456 H2447 0.929 . S
C2456 C2448 1.378 . S
C2456 C2451 1.350 . S
C2457 H2444 0.929 . S
C2457 C2449 1.433 . S
C2457 N2459 1.384 . S
N2458 C2454 1.427 . S
N2458 C2455 1.384 . S
N2459 C2451 1.427 . S
N2459 C2457 1.384 . S
H2460 C2466 0.930 . S
H2461 C2470 0.930 . S
H2462 C2475 0.929 . S
H2463 C2473 0.929 . S
H2464 C2468 0.929 . S
H2465 C2474 0.928 . S
C2466 H2460 0.930 . S
C2466 C2467 1.367 . S
C2466 C2474 1.378 1_655 S
C2467 C2466 1.367 . S
C2467 C2475 1.433 1_655 S
C2468 H2464 0.929 . S
C2468 C2470 1.378 . S
C2468 C2472 1.350 . S
C2469 C2472 1.463 . S
C2469 C2474 1.350 . S
C2469 N2477 1.427 . S
C2470 H2461 0.930 . S
C2470 C2468 1.378 . S
C2470 C2471 1.367 1_545 S
C2471 C2470 1.367 1_565 S
C2471 C2473 1.433 . S
C2472 C2468 1.350 . S
C2472 C2469 1.463 . S
C2472 N2476 1.427 1_545 S
C2473 H2463 0.929 . S
C2473 C2471 1.433 . S
C2473 N2476 1.384 . S
C2474 H2465 0.928 . S
C2474 C2466 1.378 1_455 S
C2474 C2469 1.350 . S
C2475 H2462 0.929 . S
C2475 C2467 1.433 1_455 S
C2475 N2477 1.384 . S
N2476 C2472 1.427 1_565 S
N2476 C2473 1.384 . S
N2477 C2469 1.427 . S
N2477 C2475 1.384 . S
H2478 C2484 0.930 . S
H2479 C2488 0.930 . S
H2480 C2493 0.929 . S
H2481 C2491 0.929 . S
H2482 C2486 0.929 . S
H2483 C2492 0.929 . S
C2484 H2478 0.930 . S
C2484 C2485 1.367 . S
C2484 C2492 1.378 . S
C2485 C2484 1.367 . S
C2485 C2493 1.433 . S
C2486 H2482 0.929 . S
C2486 C2488 1.378 . S
C2486 C2490 1.350 . S
C2487 C2490 1.463 . S
C2487 C2492 1.350 . S
C2487 N2495 1.427 . S
C2488 H2479 0.930 . S
C2488 C2486 1.378 . S
C2488 C2489 1.367 . S
C2489 C2488 1.367 . S
C2489 C2491 1.433 . S
C2490 C2486 1.350 . S
C2490 C2487 1.463 . S
C2490 N2494 1.427 . S
C2491 H2481 0.929 . S
C2491 C2489 1.433 . S
C2491 N2494 1.384 . S
C2492 H2483 0.929 . S
C2492 C2484 1.378 . S
C2492 C2487 1.350 . S
C2493 H2480 0.929 . S
C2493 C2485 1.433 . S
C2493 N2495 1.384 . S
N2494 C2490 1.427 . S
N2494 C2491 1.384 . S
N2495 C2487 1.427 . S
N2495 C2493 1.384 . S
H2496 C2502 0.930 . S
H2497 C2506 0.930 . S
H2498 C2511 0.929 . S
H2499 C2509 0.929 . S
H2500 C2504 0.929 . S
H2501 C2510 0.929 . S
C2502 H2496 0.930 . S
C2502 C2503 1.367 . S
C2502 C2510 1.378 . S
C2503 C2502 1.367 . S
C2503 C2511 1.433 . S
C2504 H2500 0.929 . S
C2504 C2506 1.378 . S
C2504 C2508 1.350 . S
C2505 C2508 1.463 . S
C2505 C2510 1.350 . S
C2505 N2513 1.427 . S
C2506 H2497 0.930 . S
C2506 C2504 1.378 . S
C2506 C2507 1.367 . S
C2507 C2506 1.367 . S
C2507 C2509 1.433 . S
C2508 C2504 1.350 . S
C2508 C2505 1.463 . S
C2508 N2512 1.427 . S
C2509 H2499 0.929 . S
C2509 C2507 1.433 . S
C2509 N2512 1.384 . S
C2510 H2501 0.929 . S
C2510 C2502 1.378 . S
C2510 C2505 1.350 . S
C2511 H2498 0.929 . S
C2511 C2503 1.433 . S
C2511 N2513 1.384 . S
N2512 C2508 1.427 . S
N2512 C2509 1.384 . S
N2513 C2505 1.427 . S
N2513 C2511 1.384 . S
H2514 C2520 0.930 . S
H2515 C2524 0.930 . S
H2516 C2529 0.929 . S
H2517 C2527 0.929 . S
H2518 C2522 0.929 . S
H2519 C2528 0.929 . S
C2520 H2514 0.930 . S
C2520 C2521 1.367 1_565 S
C2520 C2528 1.378 . S
C2521 C2520 1.367 1_545 S
C2521 C2529 1.433 . S
C2522 H2518 0.929 . S
C2522 C2524 1.378 . S
C2522 C2526 1.350 . S
C2523 C2526 1.463 . S
C2523 C2528 1.350 . S
C2523 N2531 1.427 . S
C2524 H2515 0.930 . S
C2524 C2522 1.378 . S
C2524 C2525 1.367 . S
C2525 C2524 1.367 . S
C2525 C2527 1.433 . S
C2526 C2522 1.350 . S
C2526 C2523 1.463 . S
C2526 N2530 1.427 . S
C2527 H2517 0.929 . S
C2527 C2525 1.433 . S
C2527 N2530 1.384 . S
C2528 H2519 0.929 . S
C2528 C2520 1.378 . S
C2528 C2523 1.350 . S
C2529 H2516 0.929 . S
C2529 C2521 1.433 . S
C2529 N2531 1.384 1_545 S
N2530 C2526 1.427 . S
N2530 C2527 1.384 . S
N2531 C2523 1.427 . S
N2531 C2529 1.384 1_565 S
H2532 C2538 0.930 . S
H2533 C2542 0.930 . S
H2534 C2547 0.929 . S
H2535 C2545 0.929 . S
H2536 C2540 0.929 . S
H2537 C2546 0.929 . S
C2538 H2532 0.930 . S
C2538 C2539 1.367 . S
C2538 C2546 1.378 . S
C2539 C2538 1.367 . S
C2539 C2547 1.433 . S
C2540 H2536 0.929 . S
C2540 C2542 1.378 . S
C2540 C2544 1.350 . S
C2541 C2544 1.463 . S
C2541 C2546 1.350 . S
C2541 N2549 1.427 . S
C2542 H2533 0.930 . S
C2542 C2540 1.378 . S
C2542 C2543 1.367 . S
C2543 C2542 1.367 . S
C2543 C2545 1.433 . S
C2544 C2540 1.350 . S
C2544 C2541 1.463 . S
C2544 N2548 1.427 . S
C2545 H2535 0.929 . S
C2545 C2543 1.433 . S
C2545 N2548 1.384 . S
C2546 H2537 0.929 . S
C2546 C2538 1.378 . S
C2546 C2541 1.350 . S
C2547 H2534 0.929 . S
C2547 C2539 1.433 . S
C2547 N2549 1.384 . S
N2548 C2544 1.427 . S
N2548 C2545 1.384 . S
N2549 C2541 1.427 . S
N2549 C2547 1.384 . S
H2550 C2556 0.935 . S
H2551 C2560 0.930 . S
H2552 C2565 0.929 . S
H2553 C2563 0.929 . S
H2554 C2558 0.929 . S
H2555 C2564 0.929 . S
C2556 H2550 0.935 . S
C2556 C2557 1.388 . S
C2556 C2564 1.354 1_455 S
C2557 C2556 1.388 . S
C2557 C2565 1.433 . S
C2558 H2554 0.929 . S
C2558 C2560 1.378 . S
C2558 C2562 1.350 . S
C2559 C2562 1.463 . S
C2559 C2564 1.350 . S
C2559 N2567 1.427 . S
C2560 H2551 0.930 . S
C2560 C2558 1.378 . S
C2560 C2561 1.367 . S
C2561 C2560 1.367 . S
C2561 C2563 1.433 . S
C2562 C2558 1.350 . S
C2562 C2559 1.463 . S
C2562 N2566 1.427 . S
C2563 H2553 0.929 . S
C2563 C2561 1.433 . S
C2563 N2566 1.384 . S
C2564 H2555 0.929 . S
C2564 C2556 1.354 1_655 S
C2564 C2559 1.350 . S
C2565 H2552 0.929 . S
C2565 C2557 1.433 . S
C2565 N2567 1.384 1_455 S
N2566 C2562 1.427 . S
N2566 C2563 1.384 . S
N2567 C2559 1.427 . S
N2567 C2565 1.384 1_655 S
H2568 C2574 0.930 . S
H2569 C2578 0.930 . S
H2570 C2583 0.929 . S
H2571 C2581 0.929 . S
H2572 C2576 0.929 . S
H2573 C2582 0.929 . S
C2574 H2568 0.930 . S
C2574 C2575 1.370 . S
C2574 C2582 1.378 . S
C2575 C2574 1.370 . S
C2575 C2583 1.443 . S
C2576 H2572 0.929 . S
C2576 C2578 1.378 . S
C2576 C2580 1.350 . S
C2577 C2580 1.463 . S
C2577 C2582 1.350 . S
C2577 N2585 1.427 . S
C2578 H2569 0.930 . S
C2578 C2576 1.378 . S
C2578 C2579 1.367 . S
C2579 C2578 1.367 . S
C2579 C2581 1.433 . S
C2580 C2576 1.350 . S
C2580 C2577 1.463 . S
C2580 N2584 1.427 . S
C2581 H2571 0.929 . S
C2581 C2579 1.433 . S
C2581 N2584 1.384 . S
C2582 H2573 0.929 . S
C2582 C2574 1.378 . S
C2582 C2577 1.350 . S
C2583 H2570 0.929 . S
C2583 C2575 1.443 . S
C2583 N2585 1.384 . S
N2584 C2580 1.427 . S
N2584 C2581 1.384 . S
N2585 C2577 1.427 . S
N2585 C2583 1.384 . S
H2586 C2592 0.930 . S
H2587 C2596 0.930 . S
H2588 C2601 0.929 . S
H2589 C2599 0.929 . S
H2590 C2594 0.929 . S
H2591 C2600 0.929 . S
C2592 H2586 0.930 . S
C2592 C2593 1.367 . S
C2592 C2600 1.378 . S
C2593 C2592 1.367 . S
C2593 C2601 1.433 . S
C2594 H2590 0.929 . S
C2594 C2596 1.378 . S
C2594 C2598 1.350 . S
C2595 C2598 1.463 . S
C2595 C2600 1.350 . S
C2595 N2603 1.427 . S
C2596 H2587 0.930 . S
C2596 C2594 1.378 . S
C2596 C2597 1.367 . S
C2597 C2596 1.367 . S
C2597 C2599 1.433 . S
C2598 C2594 1.350 . S
C2598 C2595 1.463 . S
C2598 N2602 1.427 . S
C2599 H2589 0.929 . S
C2599 C2597 1.433 . S
C2599 N2602 1.384 . S
C2600 H2591 0.929 . S
C2600 C2592 1.378 . S
C2600 C2595 1.350 . S
C2601 H2588 0.929 . S
C2601 C2593 1.433 . S
C2601 N2603 1.384 . S
N2602 C2598 1.427 . S
N2602 C2599 1.384 . S
N2603 C2595 1.427 . S
N2603 C2601 1.384 . S
H2604 C2610 0.930 . S
H2605 C2614 0.930 . S
H2606 C2619 0.929 . S
H2607 C2617 0.929 . S
H2608 C2612 0.929 . S
H2609 C2618 0.929 . S
C2610 H2604 0.930 . S
C2610 C2611 1.367 . S
C2610 C2618 1.378 . S
C2611 C2610 1.367 . S
C2611 C2619 1.433 . S
C2612 H2608 0.929 . S
C2612 C2614 1.378 . S
C2612 C2616 1.350 . S
C2613 C2616 1.463 . S
C2613 C2618 1.350 . S
C2613 N2621 1.427 . S
C2614 H2605 0.930 . S
C2614 C2612 1.378 . S
C2614 C2615 1.367 . S
C2615 C2614 1.367 . S
C2615 C2617 1.433 . S
C2616 C2612 1.350 . S
C2616 C2613 1.463 . S
C2616 N2620 1.427 . S
C2617 H2607 0.929 . S
C2617 C2615 1.433 . S
C2617 N2620 1.384 . S
C2618 H2609 0.929 . S
C2618 C2610 1.378 . S
C2618 C2613 1.350 . S
C2619 H2606 0.929 . S
C2619 C2611 1.433 . S
C2619 N2621 1.384 . S
N2620 C2616 1.427 . S
N2620 C2617 1.384 . S
N2621 C2613 1.427 . S
N2621 C2619 1.384 . S
H2622 C2628 0.930 . S
H2623 C2632 0.930 . S
H2624 C2637 0.929 . S
H2625 C2635 0.929 . S
H2626 C2630 0.929 . S
H2627 C2636 0.929 . S
C2628 H2622 0.930 . S
C2628 C2629 1.367 . S
C2628 C2636 1.378 1_655 S
C2629 C2628 1.367 . S
C2629 C2637 1.433 . S
C2630 H2626 0.929 . S
C2630 C2632 1.378 . S
C2630 C2634 1.350 . S
C2631 C2634 1.463 . S
C2631 C2636 1.350 . S
C2631 N2639 1.427 1_455 S
C2632 H2623 0.930 . S
C2632 C2630 1.378 . S
C2632 C2633 1.367 . S
C2633 C2632 1.367 . S
C2633 C2635 1.433 . S
C2634 C2630 1.350 . S
C2634 C2631 1.463 . S
C2634 N2638 1.427 . S
C2635 H2625 0.929 . S
C2635 C2633 1.433 . S
C2635 N2638 1.384 . S
C2636 H2627 0.929 . S
C2636 C2628 1.378 1_455 S
C2636 C2631 1.350 . S
C2637 H2624 0.929 . S
C2637 C2629 1.433 . S
C2637 N2639 1.384 . S
N2638 C2634 1.427 . S
N2638 C2635 1.384 . S
N2639 C2631 1.427 1_655 S
N2639 C2637 1.384 . S
H2640 C2646 0.930 . S
H2641 C2650 0.930 . S
H2642 C2655 0.929 . S
H2643 C2653 0.929 . S
H2644 C2648 0.929 . S
H2645 C2654 0.929 . S
C2646 H2640 0.930 . S
C2646 C2647 1.367 . S
C2646 C2654 1.378 . S
C2647 C2646 1.367 . S
C2647 C2655 1.433 . S
C2648 H2644 0.929 . S
C2648 C2650 1.378 . S
C2648 C2652 1.350 . S
C2649 C2652 1.463 . S
C2649 C2654 1.350 . S
C2649 N2657 1.427 . S
C2650 H2641 0.930 . S
C2650 C2648 1.378 . S
C2650 C2651 1.367 . S
C2651 C2650 1.367 . S
C2651 C2653 1.433 . S
C2652 C2648 1.350 . S
C2652 C2649 1.463 . S
C2652 N2656 1.427 . S
C2653 H2643 0.929 . S
C2653 C2651 1.433 . S
C2653 N2656 1.384 . S
C2654 H2645 0.929 . S
C2654 C2646 1.378 . S
C2654 C2649 1.350 . S
C2655 H2642 0.929 . S
C2655 C2647 1.433 . S
C2655 N2657 1.384 . S
N2656 C2652 1.427 . S
N2656 C2653 1.384 . S
N2657 C2649 1.427 . S
N2657 C2655 1.384 . S
H2658 C2664 0.930 . S
H2659 C2668 0.930 . S
H2660 C2673 0.929 . S
H2661 C2671 0.929 . S
H2662 C2666 0.929 . S
H2663 C2672 0.929 . S
C2664 H2658 0.930 . S
C2664 C2665 1.367 . S
C2664 C2672 1.378 . S
C2665 C2664 1.367 . S
C2665 C2673 1.433 . S
C2666 H2662 0.929 . S
C2666 C2668 1.378 1_545 S
C2666 C2670 1.350 . S
C2667 C2670 1.463 . S
C2667 C2672 1.350 . S
C2667 N2675 1.427 . S
C2668 H2659 0.930 . S
C2668 C2666 1.378 1_565 S
C2668 C2669 1.367 . S
C2669 C2668 1.367 . S
C2669 C2671 1.433 1_565 S
C2670 C2666 1.350 . S
C2670 C2667 1.463 . S
C2670 N2674 1.427 . S
C2671 H2661 0.929 . S
C2671 C2669 1.433 1_545 S
C2671 N2674 1.384 . S
C2672 H2663 0.929 . S
C2672 C2664 1.378 . S
C2672 C2667 1.350 . S
C2673 H2660 0.929 . S
C2673 C2665 1.433 . S
C2673 N2675 1.384 . S
N2674 C2670 1.427 . S
N2674 C2671 1.384 . S
N2675 C2667 1.427 . S
N2675 C2673 1.384 . S
H2676 C2682 0.930 . S
H2677 C2686 0.930 . S
H2678 C2691 0.929 . S
H2679 C2689 0.929 . S
H2680 C2684 0.929 . S
H2681 C2690 0.929 . S
C2682 H2676 0.930 . S
C2682 C2683 1.367 . S
C2682 C2690 1.378 . S
C2683 C2682 1.367 . S
C2683 C2691 1.433 . S
C2684 H2680 0.929 . S
C2684 C2686 1.378 . S
C2684 C2688 1.350 . S
C2685 C2688 1.463 . S
C2685 C2690 1.350 . S
C2685 N2693 1.427 . S
C2686 H2677 0.930 . S
C2686 C2684 1.378 . S
C2686 C2687 1.367 . S
C2687 C2686 1.367 . S
C2687 C2689 1.433 . S
C2688 C2684 1.350 . S
C2688 C2685 1.463 . S
C2688 N2692 1.427 . S
C2689 H2679 0.929 . S
C2689 C2687 1.433 . S
C2689 N2692 1.384 . S
C2690 H2681 0.929 . S
C2690 C2682 1.378 . S
C2690 C2685 1.350 . S
C2691 H2678 0.929 . S
C2691 C2683 1.433 . S
C2691 N2693 1.384 . S
N2692 C2688 1.427 . S
N2692 C2689 1.384 . S
N2693 C2685 1.427 . S
N2693 C2691 1.384 . S
H2694 C2700 0.930 1_556 S
H2695 C2704 0.930 . S
H2696 C2709 0.929 . S
H2697 C2707 0.929 . S
H2698 C2702 0.929 . S
H2699 C2708 0.929 . S
C2700 H2694 0.930 1_554 S
C2700 C2701 1.367 . S
C2700 C2708 1.378 . S
C2701 C2700 1.367 . S
C2701 C2709 1.433 . S
C2702 H2698 0.929 . S
C2702 C2704 1.378 . S
C2702 C2706 1.350 . S
C2703 C2706 1.463 . S
C2703 C2708 1.350 . S
C2703 N2711 1.427 . S
C2704 H2695 0.930 . S
C2704 C2702 1.378 . S
C2704 C2705 1.367 . S
C2705 C2704 1.367 . S
C2705 C2707 1.433 . S
C2706 C2702 1.350 . S
C2706 C2703 1.463 . S
C2706 N2710 1.427 . S
C2707 H2697 0.929 . S
C2707 C2705 1.433 . S
C2707 N2710 1.384 . S
C2708 H2699 0.929 . S
C2708 C2700 1.378 . S
C2708 C2703 1.350 . S
C2709 H2696 0.929 . S
C2709 C2701 1.433 . S
C2709 N2711 1.384 . S
N2710 C2706 1.427 . S
N2710 C2707 1.384 . S
N2711 C2703 1.427 . S
N2711 C2709 1.384 . S
H2712 C2718 0.930 . S
H2713 C2722 0.930 . S
H2714 C2727 0.929 . S
H2715 C2725 0.929 . S
H2716 C2720 0.929 . S
H2717 C2726 0.929 . S
C2718 H2712 0.930 . S
C2718 C2719 1.367 . S
C2718 C2726 1.378 1_545 S
C2719 C2718 1.367 . S
C2719 C2727 1.433 1_545 S
C2720 H2716 0.929 . S
C2720 C2722 1.378 . S
C2720 C2724 1.350 . S
C2721 C2724 1.463 . S
C2721 C2726 1.350 . S
C2721 N2729 1.427 . S
C2722 H2713 0.930 . S
C2722 C2720 1.378 . S
C2722 C2723 1.367 1_655 S
C2723 C2722 1.367 1_455 S
C2723 C2725 1.433 . S
C2724 C2720 1.350 . S
C2724 C2721 1.463 . S
C2724 N2728 1.427 . S
C2725 H2715 0.929 . S
C2725 C2723 1.433 . S
C2725 N2728 1.384 1_455 S
C2726 H2717 0.929 . S
C2726 C2718 1.378 1_565 S
C2726 C2721 1.350 . S
C2727 H2714 0.929 . S
C2727 C2719 1.433 1_565 S
C2727 N2729 1.384 . S
N2728 C2724 1.427 . S
N2728 C2725 1.384 1_655 S
N2729 C2721 1.427 . S
N2729 C2727 1.384 . S
H2730 C2736 0.930 . S
H2731 C2740 0.930 . S
H2732 C2745 0.929 . S
H2733 C2743 0.929 . S
H2734 C2738 0.929 . S
H2735 C2744 0.929 . S
C2736 H2730 0.930 . S
C2736 C2737 1.367 . S
C2736 C2744 1.378 . S
C2737 C2736 1.367 . S
C2737 C2745 1.433 . S
C2738 H2734 0.929 . S
C2738 C2740 1.378 . S
C2738 C2742 1.350 . S
C2739 C2742 1.463 . S
C2739 C2744 1.350 . S
C2739 N2747 1.427 . S
C2740 H2731 0.930 . S
C2740 C2738 1.378 . S
C2740 C2741 1.367 . S
C2741 C2740 1.367 . S
C2741 C2743 1.433 . S
C2742 C2738 1.350 . S
C2742 C2739 1.463 . S
C2742 N2746 1.427 . S
C2743 H2733 0.929 . S
C2743 C2741 1.433 . S
C2743 N2746 1.384 . S
C2744 H2735 0.929 . S
C2744 C2736 1.378 . S
C2744 C2739 1.350 . S
C2745 H2732 0.929 . S
C2745 C2737 1.433 . S
C2745 N2747 1.384 . S
N2746 C2742 1.427 . S
N2746 C2743 1.384 . S
N2747 C2739 1.427 . S
N2747 C2745 1.384 . S
H2748 C2754 0.930 . S
H2749 C2758 0.930 . S
H2750 C2763 0.929 . S
H2751 C2761 0.929 . S
H2752 C2756 0.929 . S
H2753 C2762 0.929 . S
C2754 H2748 0.930 . S
C2754 C2755 1.367 1_545 S
C2754 C2762 1.378 . S
C2755 C2754 1.367 1_565 S
C2755 C2763 1.433 . S
C2756 H2752 0.929 . S
C2756 C2758 1.378 . S
C2756 C2760 1.350 . S
C2757 C2760 1.463 . S
C2757 C2762 1.350 . S
C2757 N2765 1.386 1_545 S
C2758 H2749 0.930 . S
C2758 C2756 1.378 . S
C2758 C2759 1.367 . S
C2759 C2758 1.367 . S
C2759 C2761 1.433 . S
C2760 C2756 1.350 . S
C2760 C2757 1.463 . S
C2760 N2764 1.427 . S
C2761 H2751 0.929 . S
C2761 C2759 1.433 . S
C2761 N2764 1.384 . S
C2762 H2753 0.929 . S
C2762 C2754 1.378 . S
C2762 C2757 1.350 . S
C2763 H2750 0.929 . S
C2763 C2755 1.433 . S
C2763 N2765 1.416 . S
N2764 C2760 1.427 . S
N2764 C2761 1.384 . S
N2765 C2757 1.386 1_565 S
N2765 C2763 1.416 . S
H2766 C2772 0.930 . S
H2767 C2776 0.930 . S
H2768 C2781 0.929 . S
H2769 C2779 0.929 . S
H2770 C2774 0.929 . S
H2771 C2780 0.929 . S
C2772 H2766 0.930 . S
C2772 C2773 1.367 . S
C2772 C2780 1.378 . S
C2773 C2772 1.367 . S
C2773 C2781 1.433 . S
C2774 H2770 0.929 . S
C2774 C2776 1.378 . S
C2774 C2778 1.350 . S
C2775 C2778 1.463 . S
C2775 C2780 1.350 . S
C2775 N2783 1.427 . S
C2776 H2767 0.930 . S
C2776 C2774 1.378 . S
C2776 C2777 1.367 1_455 S
C2777 C2776 1.367 1_655 S
C2777 C2779 1.433 . S
C2778 C2774 1.350 . S
C2778 C2775 1.463 . S
C2778 N2782 1.427 1_455 S
C2779 H2769 0.929 . S
C2779 C2777 1.433 . S
C2779 N2782 1.384 . S
C2780 H2771 0.929 . S
C2780 C2772 1.378 . S
C2780 C2775 1.350 . S
C2781 H2768 0.929 . S
C2781 C2773 1.433 . S
C2781 N2783 1.384 . S
N2782 C2778 1.427 1_655 S
N2782 C2779 1.384 . S
N2783 C2775 1.427 . S
N2783 C2781 1.384 . S
H2784 C2790 0.930 . S
H2785 C2794 0.930 . S
H2786 C2799 0.929 . S
H2787 C2797 0.938 . S
H2788 C2792 0.929 . S
H2789 C2798 0.929 . S
C2790 H2784 0.930 . S
C2790 C2791 1.367 . S
C2790 C2798 1.378 . S
C2791 C2790 1.367 . S
C2791 C2799 1.433 1_565 S
C2792 H2788 0.929 . S
C2792 C2794 1.378 . S
C2792 C2796 1.350 . S
C2793 C2796 1.463 . S
C2793 C2798 1.350 1_545 S
C2793 N2801 1.427 . S
C2794 H2785 0.930 . S
C2794 C2792 1.378 . S
C2794 C2795 1.367 . S
C2795 C2794 1.367 . S
C2795 C2797 1.432 1_554 S
C2796 C2792 1.350 . S
C2796 C2793 1.463 . S
C2796 N2800 1.427 . S
C2797 H2787 0.938 . S
C2797 C2795 1.432 1_556 S
C2797 N2800 1.376 1_556 S
C2798 H2789 0.929 . S
C2798 C2790 1.378 . S
C2798 C2793 1.350 1_565 S
C2799 H2786 0.929 . S
C2799 C2791 1.433 1_545 S
C2799 N2801 1.384 . S
N2800 C2796 1.427 . S
N2800 C2797 1.376 1_554 S
N2801 C2793 1.427 . S
N2801 C2799 1.384 . S
H2802 C2808 0.930 . S
H2803 C2812 0.930 . S
H2804 C2817 0.929 . S
H2805 C2815 0.929 . S
H2806 C2810 0.929 . S
H2807 C2816 0.929 . S
C2808 H2802 0.930 . S
C2808 C2809 1.367 . S
C2808 C2816 1.378 . S
C2809 C2808 1.367 . S
C2809 C2817 1.433 . S
C2810 H2806 0.929 . S
C2810 C2812 1.378 . S
C2810 C2814 1.350 . S
C2811 C2814 1.463 . S
C2811 C2816 1.350 . S
C2811 N2819 1.427 . S
C2812 H2803 0.930 . S
C2812 C2810 1.378 . S
C2812 C2813 1.367 . S
C2813 C2812 1.367 . S
C2813 C2815 1.433 . S
C2814 C2810 1.350 . S
C2814 C2811 1.463 . S
C2814 N2818 1.427 . S
C2815 H2805 0.929 . S
C2815 C2813 1.433 . S
C2815 N2818 1.384 . S
C2816 H2807 0.929 . S
C2816 C2808 1.378 . S
C2816 C2811 1.350 . S
C2817 H2804 0.929 . S
C2817 C2809 1.433 . S
C2817 N2819 1.384 . S
N2818 C2814 1.427 . S
N2818 C2815 1.384 . S
N2819 C2811 1.427 . S
N2819 C2817 1.384 . S
H2820 C2826 0.930 . S
H2821 C2830 0.930 . S
H2822 C2835 0.929 . S
H2823 C2833 0.929 . S
H2824 C2828 0.929 . S
H2825 C2834 0.929 . S
C2826 H2820 0.930 . S
C2826 C2827 1.367 . S
C2826 C2834 1.378 . S
C2827 C2826 1.367 . S
C2827 C2835 1.433 . S
C2828 H2824 0.929 . S
C2828 C2830 1.378 . S
C2828 C2832 1.350 . S
C2829 C2832 1.463 . S
C2829 C2834 1.350 . S
C2829 N2837 1.427 . S
C2830 H2821 0.930 . S
C2830 C2828 1.378 . S
C2830 C2831 1.367 . S
C2831 C2830 1.367 . S
C2831 C2833 1.433 . S
C2832 C2828 1.350 . S
C2832 C2829 1.463 . S
C2832 N2836 1.427 . S
C2833 H2823 0.929 . S
C2833 C2831 1.433 . S
C2833 N2836 1.384 . S
C2834 H2825 0.929 . S
C2834 C2826 1.378 . S
C2834 C2829 1.350 . S
C2835 H2822 0.929 . S
C2835 C2827 1.433 . S
C2835 N2837 1.384 . S
N2836 C2832 1.427 . S
N2836 C2833 1.384 . S
N2837 C2829 1.427 . S
N2837 C2835 1.384 . S
H2838 C2844 0.930 . S
H2839 C2848 0.930 . S
H2840 C2853 0.929 . S
H2841 C2851 0.929 . S
H2842 C2846 0.929 . S
H2843 C2852 0.929 . S
C2844 H2838 0.930 . S
C2844 C2845 1.367 . S
C2844 C2852 1.378 . S
C2845 C2844 1.367 . S
C2845 C2853 1.433 . S
C2846 H2842 0.929 . S
C2846 C2848 1.378 . S
C2846 C2850 1.350 . S
C2847 C2850 1.463 . S
C2847 C2852 1.350 . S
C2847 N2855 1.427 . S
C2848 H2839 0.930 . S
C2848 C2846 1.378 . S
C2848 C2849 1.367 . S
C2849 C2848 1.367 . S
C2849 C2851 1.433 . S
C2850 C2846 1.350 . S
C2850 C2847 1.463 . S
C2850 N2854 1.427 . S
C2851 H2841 0.929 . S
C2851 C2849 1.433 . S
C2851 N2854 1.384 . S
C2852 H2843 0.929 . S
C2852 C2844 1.378 . S
C2852 C2847 1.350 . S
C2853 H2840 0.929 . S
C2853 C2845 1.433 . S
C2853 N2855 1.384 . S
N2854 C2850 1.427 . S
N2854 C2851 1.384 . S
N2855 C2847 1.427 . S
N2855 C2853 1.384 . S
H2856 C2862 0.930 . S
H2857 C2866 0.930 . S
H2858 C2871 0.929 . S
H2859 C2869 0.929 . S
H2860 C2864 0.929 . S
H2861 C2870 0.929 . S
C2862 H2856 0.930 . S
C2862 C2863 1.367 . S
C2862 C2870 1.378 . S
C2863 C2862 1.367 . S
C2863 C2871 1.433 . S
C2864 H2860 0.929 . S
C2864 C2866 1.378 . S
C2864 C2868 1.350 . S
C2865 C2868 1.463 . S
C2865 C2870 1.350 . S
C2865 N2873 1.427 . S
C2866 H2857 0.930 . S
C2866 C2864 1.378 . S
C2866 C2867 1.367 . S
C2867 C2866 1.367 . S
C2867 C2869 1.433 . S
C2868 C2864 1.350 . S
C2868 C2865 1.463 . S
C2868 N2872 1.427 . S
C2869 H2859 0.929 . S
C2869 C2867 1.433 . S
C2869 N2872 1.384 . S
C2870 H2861 0.929 . S
C2870 C2862 1.378 . S
C2870 C2865 1.350 . S
C2871 H2858 0.929 . S
C2871 C2863 1.433 . S
C2871 N2873 1.384 . S
N2872 C2868 1.427 . S
N2872 C2869 1.384 . S
N2873 C2865 1.427 . S
N2873 C2871 1.384 . S
H2874 C2880 0.930 . S
H2875 C2884 0.930 . S
H2876 C2889 0.929 . S
H2877 C2887 0.929 . S
H2878 C2882 0.929 . S
H2879 C2888 0.929 . S
C2880 H2874 0.930 . S
C2880 C2881 1.367 . S
C2880 C2888 1.378 . S
C2881 C2880 1.367 . S
C2881 C2889 1.433 . S
C2882 H2878 0.929 . S
C2882 C2884 1.378 . S
C2882 C2886 1.350 . S
C2883 C2886 1.463 . S
C2883 C2888 1.350 . S
C2883 N2891 1.427 . S
C2884 H2875 0.930 . S
C2884 C2882 1.378 . S
C2884 C2885 1.367 . S
C2885 C2884 1.367 . S
C2885 C2887 1.433 . S
C2886 C2882 1.350 . S
C2886 C2883 1.463 . S
C2886 N2890 1.427 . S
C2887 H2877 0.929 . S
C2887 C2885 1.433 . S
C2887 N2890 1.384 . S
C2888 H2879 0.929 . S
C2888 C2880 1.378 . S
C2888 C2883 1.350 . S
C2889 H2876 0.929 . S
C2889 C2881 1.433 . S
C2889 N2891 1.384 . S
N2890 C2886 1.427 . S
N2890 C2887 1.384 . S
N2891 C2883 1.427 . S
N2891 C2889 1.384 . S
H2892 C2898 0.930 . S
H2893 C2902 0.930 . S
H2894 C2907 0.929 . S
H2895 C2905 0.929 . S
H2896 C2900 0.929 . S
H2897 C2906 0.929 . S
C2898 H2892 0.930 . S
C2898 C2899 1.367 . S
C2898 C2906 1.378 . S
C2899 C2898 1.367 . S
C2899 C2907 1.433 . S
C2900 H2896 0.929 . S
C2900 C2902 1.378 . S
C2900 C2904 1.350 . S
C2901 C2904 1.463 . S
C2901 C2906 1.350 . S
C2901 N2909 1.427 . S
C2902 H2893 0.930 . S
C2902 C2900 1.378 . S
C2902 C2903 1.367 . S
C2903 C2902 1.367 . S
C2903 C2905 1.433 . S
C2904 C2900 1.350 . S
C2904 C2901 1.463 . S
C2904 N2908 1.427 . S
C2905 H2895 0.929 . S
C2905 C2903 1.433 . S
C2905 N2908 1.384 . S
C2906 H2897 0.929 . S
C2906 C2898 1.378 . S
C2906 C2901 1.350 . S
C2907 H2894 0.929 . S
C2907 C2899 1.433 . S
C2907 N2909 1.384 . S
N2908 C2904 1.427 . S
N2908 C2905 1.384 . S
N2909 C2901 1.427 . S
N2909 C2907 1.384 . S
H2910 C2916 0.930 . S
H2911 C2920 0.930 . S
H2912 C2925 0.929 . S
H2913 C2923 0.929 . S
H2914 C2918 0.929 . S
H2915 C2924 0.929 . S
C2916 H2910 0.930 . S
C2916 C2917 1.367 . S
C2916 C2924 1.378 . S
C2917 C2916 1.367 . S
C2917 C2925 1.433 . S
C2918 H2914 0.929 . S
C2918 C2920 1.378 . S
C2918 C2922 1.350 . S
C2919 C2922 1.463 . S
C2919 C2924 1.350 . S
C2919 N2927 1.427 . S
C2920 H2911 0.930 . S
C2920 C2918 1.378 . S
C2920 C2921 1.367 . S
C2921 C2920 1.367 . S
C2921 C2923 1.433 . S
C2922 C2918 1.350 . S
C2922 C2919 1.463 . S
C2922 N2926 1.427 . S
C2923 H2913 0.929 . S
C2923 C2921 1.433 . S
C2923 N2926 1.384 . S
C2924 H2915 0.929 . S
C2924 C2916 1.378 . S
C2924 C2919 1.350 . S
C2925 H2912 0.929 . S
C2925 C2917 1.433 . S
C2925 N2927 1.384 . S
N2926 C2922 1.427 . S
N2926 C2923 1.384 . S
N2927 C2919 1.427 . S
N2927 C2925 1.384 . S
H2928 C2934 0.930 . S
H2929 C2938 0.930 . S
H2930 C2943 0.929 . S
H2931 C2941 0.929 . S
H2932 C2936 0.929 . S
H2933 C2942 0.929 . S
C2934 H2928 0.930 . S
C2934 C2935 1.367 . S
C2934 C2942 1.378 . S
C2935 C2934 1.367 . S
C2935 C2943 1.433 . S
C2936 H2932 0.929 . S
C2936 C2938 1.378 . S
C2936 C2940 1.350 . S
C2937 C2940 1.463 . S
C2937 C2942 1.350 . S
C2937 N2945 1.427 . S
C2938 H2929 0.930 . S
C2938 C2936 1.378 . S
C2938 C2939 1.367 . S
C2939 C2938 1.367 . S
C2939 C2941 1.433 . S
C2940 C2936 1.350 . S
C2940 C2937 1.463 . S
C2940 N2944 1.427 . S
C2941 H2931 0.929 . S
C2941 C2939 1.433 . S
C2941 N2944 1.384 . S
C2942 H2933 0.929 . S
C2942 C2934 1.378 . S
C2942 C2937 1.350 . S
C2943 H2930 0.929 . S
C2943 C2935 1.433 . S
C2943 N2945 1.384 . S
N2944 C2940 1.427 . S
N2944 C2941 1.384 . S
N2945 C2937 1.427 . S
N2945 C2943 1.384 . S
H2946 C2952 0.930 . S
H2947 C2956 0.930 . S
H2948 C2961 0.929 . S
H2949 C2959 0.929 . S
H2950 C2954 0.929 . S
H2951 C2960 0.929 . S
C2952 H2946 0.930 . S
C2952 C2953 1.367 1_545 S
C2952 C2960 1.378 . S
C2953 C2952 1.367 1_565 S
C2953 C2961 1.433 . S
C2954 H2950 0.929 . S
C2954 C2956 1.378 . S
C2954 C2958 1.350 . S
C2955 C2958 1.463 . S
C2955 C2960 1.350 . S
C2955 N2963 1.427 . S
C2956 H2947 0.930 . S
C2956 C2954 1.378 . S
C2956 C2957 1.367 . S
C2957 C2956 1.367 . S
C2957 C2959 1.433 . S
C2958 C2954 1.350 . S
C2958 C2955 1.463 . S
C2958 N2962 1.427 . S
C2959 H2949 0.929 . S
C2959 C2957 1.433 . S
C2959 N2962 1.384 . S
C2960 H2951 0.929 . S
C2960 C2952 1.378 . S
C2960 C2955 1.350 . S
C2961 H2948 0.929 . S
C2961 C2953 1.433 . S
C2961 N2963 1.384 1_565 S
N2962 C2958 1.427 . S
N2962 C2959 1.384 . S
N2963 C2955 1.427 . S
N2963 C2961 1.384 1_545 S
H2964 C2970 0.930 . S
H2965 C2974 0.930 . S
H2966 C2979 0.929 . S
H2967 C2977 0.929 . S
H2968 C2972 0.929 . S
H2969 C2978 0.929 . S
C2970 H2964 0.930 . S
C2970 C2971 1.367 . S
C2970 C2978 1.378 . S
C2971 C2970 1.367 . S
C2971 C2979 1.433 . S
C2972 H2968 0.929 . S
C2972 C2974 1.378 . S
C2972 C2976 1.350 . S
C2973 C2976 1.463 . S
C2973 C2978 1.350 . S
C2973 N2981 1.427 . S
C2974 H2965 0.930 . S
C2974 C2972 1.378 . S
C2974 C2975 1.367 . S
C2975 C2974 1.367 . S
C2975 C2977 1.433 . S
C2976 C2972 1.350 . S
C2976 C2973 1.463 . S
C2976 N2980 1.427 . S
C2977 H2967 0.929 . S
C2977 C2975 1.433 . S
C2977 N2980 1.384 . S
C2978 H2969 0.929 . S
C2978 C2970 1.378 . S
C2978 C2973 1.350 . S
C2979 H2966 0.929 . S
C2979 C2971 1.433 . S
C2979 N2981 1.384 . S
N2980 C2976 1.427 . S
N2980 C2977 1.384 . S
N2981 C2973 1.427 . S
N2981 C2979 1.384 . S
H2982 C2988 0.930 . S
H2983 C2992 0.930 . S
H2984 C2997 0.929 . S
H2985 C2995 0.929 . S
H2986 C2990 0.929 . S
H2987 C2996 0.924 1_545 S
C2988 H2982 0.930 . S
C2988 C2989 1.367 . S
C2988 C2996 1.365 1_545 S
C2989 C2988 1.367 . S
C2989 C2997 1.433 1_545 S
C2990 H2986 0.929 . S
C2990 C2992 1.378 . S
C2990 C2994 1.350 . S
C2991 C2994 1.463 . S
C2991 C2996 1.367 . S
C2991 N2999 1.427 . S
C2992 H2983 0.930 . S
C2992 C2990 1.378 . S
C2992 C2993 1.367 . S
C2993 C2992 1.367 . S
C2993 C2995 1.433 . S
C2994 C2990 1.350 . S
C2994 C2991 1.463 . S
C2994 N2998 1.427 . S
C2995 H2985 0.929 . S
C2995 C2993 1.433 . S
C2995 N2998 1.384 . S
C2996 H2987 0.924 1_565 S
C2996 C2988 1.365 1_565 S
C2996 C2991 1.367 . S
C2997 H2984 0.929 . S
C2997 C2989 1.433 1_565 S
C2997 N2999 1.384 . S
N2998 C2994 1.427 . S
N2998 C2995 1.384 . S
N2999 C2991 1.427 . S
N2999 C2997 1.384 . S
H3000 C3006 0.930 . S
H3001 C3010 0.930 . S
H3002 C3015 0.929 . S
H3003 C3013 0.929 . S
H3004 C3008 0.935 . S
H3005 C3014 0.929 . S
C3006 H3000 0.930 . S
C3006 C3007 1.367 . S
C3006 C3014 1.378 . S
C3007 C3006 1.367 . S
C3007 C3015 1.433 . S
C3008 H3004 0.935 . S
C3008 C3010 1.354 1_565 S
C3008 C3012 1.368 . S
C3009 C3012 1.463 . S
C3009 C3014 1.350 . S
C3009 N3017 1.427 . S
C3010 H3001 0.930 . S
C3010 C3008 1.354 1_545 S
C3010 C3011 1.367 . S
C3011 C3010 1.367 . S
C3011 C3013 1.433 . S
C3012 C3008 1.368 . S
C3012 C3009 1.463 . S
C3012 N3016 1.427 . S
C3013 H3003 0.929 . S
C3013 C3011 1.433 . S
C3013 N3016 1.384 1_545 S
C3014 H3005 0.929 . S
C3014 C3006 1.378 . S
C3014 C3009 1.350 . S
C3015 H3002 0.929 . S
C3015 C3007 1.433 . S
C3015 N3017 1.384 . S
N3016 C3012 1.427 . S
N3016 C3013 1.384 1_565 S
N3017 C3009 1.427 . S
N3017 C3015 1.384 . S
H3018 C3024 0.930 . S
H3019 C3028 0.930 . S
H3020 C3033 0.929 . S
H3021 C3031 0.929 . S
H3022 C3026 0.929 . S
H3023 C3032 0.929 . S
C3024 H3018 0.930 . S
C3024 C3025 1.367 . S
C3024 C3032 1.378 . S
C3025 C3024 1.367 . S
C3025 C3033 1.433 . S
C3026 H3022 0.929 . S
C3026 C3028 1.378 . S
C3026 C3030 1.350 . S
C3027 C3030 1.463 . S
C3027 C3032 1.350 . S
C3027 N3035 1.427 . S
C3028 H3019 0.930 . S
C3028 C3026 1.378 . S
C3028 C3029 1.367 . S
C3029 C3028 1.367 . S
C3029 C3031 1.433 . S
C3030 C3026 1.350 . S
C3030 C3027 1.463 . S
C3030 N3034 1.427 . S
C3031 H3021 0.929 . S
C3031 C3029 1.433 . S
C3031 N3034 1.384 . S
C3032 H3023 0.929 . S
C3032 C3024 1.378 . S
C3032 C3027 1.350 . S
C3033 H3020 0.929 . S
C3033 C3025 1.433 . S
C3033 N3035 1.384 . S
N3034 C3030 1.427 . S
N3034 C3031 1.384 . S
N3035 C3027 1.427 . S
N3035 C3033 1.384 . S
H3036 C3042 0.930 1_554 S
H3037 C3046 0.930 . S
H3038 C3051 0.929 . S
H3039 C3049 0.929 . S
H3040 C3044 0.929 . S
H3041 C3050 0.929 . S
C3042 H3036 0.930 1_556 S
C3042 C3043 1.367 . S
C3042 C3050 1.378 . S
C3043 C3042 1.367 . S
C3043 C3051 1.433 . S
C3044 H3040 0.929 . S
C3044 C3046 1.378 . S
C3044 C3048 1.350 . S
C3045 C3048 1.463 . S
C3045 C3050 1.350 . S
C3045 N3053 1.427 . S
C3046 H3037 0.930 . S
C3046 C3044 1.378 . S
C3046 C3047 1.367 . S
C3047 C3046 1.367 . S
C3047 C3049 1.433 . S
C3048 C3044 1.350 . S
C3048 C3045 1.463 . S
C3048 N3052 1.427 . S
C3049 H3039 0.929 . S
C3049 C3047 1.433 . S
C3049 N3052 1.384 . S
C3050 H3041 0.929 . S
C3050 C3042 1.378 . S
C3050 C3045 1.350 . S
C3051 H3038 0.929 . S
C3051 C3043 1.433 . S
C3051 N3053 1.384 . S
N3052 C3048 1.427 . S
N3052 C3049 1.384 . S
N3053 C3045 1.427 . S
N3053 C3051 1.384 . S
H3054 C3060 0.930 . S
H3055 C3064 0.930 . S
H3056 C3069 0.929 . S
H3057 C3067 0.929 . S
H3058 C3062 0.929 . S
H3059 C3068 0.929 . S
C3060 H3054 0.930 . S
C3060 C3061 1.367 . S
C3060 C3068 1.378 . S
C3061 C3060 1.367 . S
C3061 C3069 1.433 . S
C3062 H3058 0.929 . S
C3062 C3064 1.378 . S
C3062 C3066 1.350 . S
C3063 C3066 1.463 . S
C3063 C3068 1.350 . S
C3063 N3071 1.427 . S
C3064 H3055 0.930 . S
C3064 C3062 1.378 . S
C3064 C3065 1.367 . S
C3065 C3064 1.367 . S
C3065 C3067 1.433 . S
C3066 C3062 1.350 . S
C3066 C3063 1.463 . S
C3066 N3070 1.427 . S
C3067 H3057 0.929 . S
C3067 C3065 1.433 . S
C3067 N3070 1.384 . S
C3068 H3059 0.929 . S
C3068 C3060 1.378 . S
C3068 C3063 1.350 . S
C3069 H3056 0.929 . S
C3069 C3061 1.433 . S
C3069 N3071 1.384 . S
N3070 C3066 1.427 . S
N3070 C3067 1.384 . S
N3071 C3063 1.427 . S
N3071 C3069 1.384 . S
H3072 C3078 0.930 . S
H3073 C3082 0.930 . S
H3074 C3087 0.929 . S
H3075 C3085 0.929 . S
H3076 C3080 0.929 . S
H3077 C3086 0.929 . S
C3078 H3072 0.930 . S
C3078 C3079 1.367 . S
C3078 C3086 1.378 . S
C3079 C3078 1.367 . S
C3079 C3087 1.433 . S
C3080 H3076 0.929 . S
C3080 C3082 1.378 . S
C3080 C3084 1.350 . S
C3081 C3084 1.463 . S
C3081 C3086 1.350 . S
C3081 N3089 1.427 . S
C3082 H3073 0.930 . S
C3082 C3080 1.378 . S
C3082 C3083 1.367 . S
C3083 C3082 1.367 . S
C3083 C3085 1.433 . S
C3084 C3080 1.350 . S
C3084 C3081 1.463 . S
C3084 N3088 1.427 . S
C3085 H3075 0.929 . S
C3085 C3083 1.433 . S
C3085 N3088 1.384 . S
C3086 H3077 0.929 . S
C3086 C3078 1.378 . S
C3086 C3081 1.350 . S
C3087 H3074 0.929 . S
C3087 C3079 1.433 . S
C3087 N3089 1.384 . S
N3088 C3084 1.427 . S
N3088 C3085 1.384 . S
N3089 C3081 1.427 . S
N3089 C3087 1.384 . S
H3090 C3096 0.930 . S
H3091 C3100 0.930 . S
H3092 C3105 0.929 . S
H3093 C3103 0.929 . S
H3094 C3098 0.929 . S
H3095 C3104 0.929 . S
C3096 H3090 0.930 . S
C3096 C3097 1.367 . S
C3096 C3104 1.378 . S
C3097 C3096 1.367 . S
C3097 C3105 1.433 . S
C3098 H3094 0.929 . S
C3098 C3100 1.378 . S
C3098 C3102 1.350 . S
C3099 C3102 1.463 . S
C3099 C3104 1.350 . S
C3099 N3107 1.427 . S
C3100 H3091 0.930 . S
C3100 C3098 1.378 . S
C3100 C3101 1.367 . S
C3101 C3100 1.367 . S
C3101 C3103 1.433 . S
C3102 C3098 1.350 . S
C3102 C3099 1.463 . S
C3102 N3106 1.427 . S
C3103 H3093 0.929 . S
C3103 C3101 1.433 . S
C3103 N3106 1.384 . S
C3104 H3095 0.929 . S
C3104 C3096 1.378 . S
C3104 C3099 1.350 . S
C3105 H3092 0.929 . S
C3105 C3097 1.433 . S
C3105 N3107 1.384 . S
N3106 C3102 1.427 . S
N3106 C3103 1.384 . S
N3107 C3099 1.427 . S
N3107 C3105 1.384 . S
H3108 C3114 0.930 . S
H3109 C3118 0.930 . S
H3110 C3123 0.929 . S
H3111 C3121 0.929 . S
H3112 C3116 0.929 . S
H3113 C3122 0.929 . S
C3114 H3108 0.930 . S
C3114 C3115 1.367 . S
C3114 C3122 1.378 . S
C3115 C3114 1.367 . S
C3115 C3123 1.433 . S
C3116 H3112 0.929 . S
C3116 C3118 1.378 . S
C3116 C3120 1.350 . S
C3117 C3120 1.463 . S
C3117 C3122 1.350 . S
C3117 N3125 1.427 . S
C3118 H3109 0.930 . S
C3118 C3116 1.378 . S
C3118 C3119 1.367 . S
C3119 C3118 1.367 . S
C3119 C3121 1.433 . S
C3120 C3116 1.350 . S
C3120 C3117 1.463 . S
C3120 N3124 1.427 . S
C3121 H3111 0.929 . S
C3121 C3119 1.433 . S
C3121 N3124 1.384 . S
C3122 H3113 0.929 . S
C3122 C3114 1.378 . S
C3122 C3117 1.350 . S
C3123 H3110 0.929 . S
C3123 C3115 1.433 . S
C3123 N3125 1.384 . S
N3124 C3120 1.427 . S
N3124 C3121 1.384 . S
N3125 C3117 1.427 . S
N3125 C3123 1.384 . S
H3126 C3132 0.930 . S
H3127 C3136 0.930 . S
H3128 C3141 0.929 . S
H3129 C3139 0.929 . S
H3130 C3134 0.929 . S
H3131 C3140 0.929 . S
C3132 H3126 0.930 . S
C3132 C3133 1.367 . S
C3132 C3140 1.378 . S
C3133 C3132 1.367 . S
C3133 C3141 1.433 . S
C3134 H3130 0.929 . S
C3134 C3136 1.378 . S
C3134 C3138 1.350 . S
C3135 C3138 1.463 . S
C3135 C3140 1.350 . S
C3135 N3143 1.427 . S
C3136 H3127 0.930 . S
C3136 C3134 1.378 . S
C3136 C3137 1.367 . S
C3137 C3136 1.367 . S
C3137 C3139 1.433 . S
C3138 C3134 1.350 . S
C3138 C3135 1.463 . S
C3138 N3142 1.427 . S
C3139 H3129 0.929 . S
C3139 C3137 1.433 . S
C3139 N3142 1.384 . S
C3140 H3131 0.929 . S
C3140 C3132 1.378 . S
C3140 C3135 1.350 . S
C3141 H3128 0.929 . S
C3141 C3133 1.433 . S
C3141 N3143 1.384 . S
N3142 C3138 1.427 . S
N3142 C3139 1.384 . S
N3143 C3135 1.427 . S
N3143 C3141 1.384 . S
H3144 C3150 0.930 . S
H3145 C3154 0.930 . S
H3146 C3159 0.929 . S
H3147 C3157 0.929 . S
H3148 C3152 0.929 . S
H3149 C3158 0.929 . S
C3150 H3144 0.930 . S
C3150 C3151 1.367 . S
C3150 C3158 1.378 . S
C3151 C3150 1.367 . S
C3151 C3159 1.433 . S
C3152 H3148 0.929 . S
C3152 C3154 1.378 . S
C3152 C3156 1.350 . S
C3153 C3156 1.463 . S
C3153 C3158 1.350 . S
C3153 N3161 1.427 . S
C3154 H3145 0.930 . S
C3154 C3152 1.378 . S
C3154 C3155 1.367 . S
C3155 C3154 1.367 . S
C3155 C3157 1.433 . S
C3156 C3152 1.350 . S
C3156 C3153 1.463 . S
C3156 N3160 1.427 . S
C3157 H3147 0.929 . S
C3157 C3155 1.433 . S
C3157 N3160 1.384 . S
C3158 H3149 0.929 . S
C3158 C3150 1.378 . S
C3158 C3153 1.350 . S
C3159 H3146 0.929 . S
C3159 C3151 1.433 . S
C3159 N3161 1.384 . S
N3160 C3156 1.427 . S
N3160 C3157 1.384 . S
N3161 C3153 1.427 . S
N3161 C3159 1.384 . S
H3162 C3168 0.930 . S
H3163 C3172 0.930 . S
H3164 C3177 0.929 . S
H3165 C3175 0.929 . S
H3166 C3170 0.929 . S
H3167 C3176 0.929 . S
C3168 H3162 0.930 . S
C3168 C3169 1.367 . S
C3168 C3176 1.378 . S
C3169 C3168 1.367 . S
C3169 C3177 1.433 . S
C3170 H3166 0.929 . S
C3170 C3172 1.378 . S
C3170 C3174 1.350 . S
C3171 C3174 1.463 . S
C3171 C3176 1.350 . S
C3171 N3179 1.427 . S
C3172 H3163 0.930 . S
C3172 C3170 1.378 . S
C3172 C3173 1.367 . S
C3173 C3172 1.367 . S
C3173 C3175 1.433 . S
C3174 C3170 1.350 . S
C3174 C3171 1.463 . S
C3174 N3178 1.427 . S
C3175 H3165 0.929 . S
C3175 C3173 1.433 . S
C3175 N3178 1.384 . S
C3176 H3167 0.929 . S
C3176 C3168 1.378 . S
C3176 C3171 1.350 . S
C3177 H3164 0.929 . S
C3177 C3169 1.433 . S
C3177 N3179 1.384 . S
N3178 C3174 1.427 . S
N3178 C3175 1.384 . S
N3179 C3171 1.427 . S
N3179 C3177 1.384 . S
H3180 C3186 0.930 . S
H3181 C3190 0.930 . S
H3182 C3195 0.929 . S
H3183 C3193 0.929 . S
H3184 C3188 0.929 . S
H3185 C3194 0.929 . S
C3186 H3180 0.930 . S
C3186 C3187 1.367 . S
C3186 C3194 1.378 . S
C3187 C3186 1.367 . S
C3187 C3195 1.433 . S
C3188 H3184 0.929 . S
C3188 C3190 1.378 . S
C3188 C3192 1.350 . S
C3189 C3192 1.463 . S
C3189 C3194 1.350 . S
C3189 N3197 1.427 . S
C3190 H3181 0.930 . S
C3190 C3188 1.378 . S
C3190 C3191 1.367 . S
C3191 C3190 1.367 . S
C3191 C3193 1.433 . S
C3192 C3188 1.350 . S
C3192 C3189 1.463 . S
C3192 N3196 1.427 . S
C3193 H3183 0.929 . S
C3193 C3191 1.433 . S
C3193 N3196 1.384 . S
C3194 H3185 0.929 . S
C3194 C3186 1.378 . S
C3194 C3189 1.350 . S
C3195 H3182 0.929 . S
C3195 C3187 1.433 . S
C3195 N3197 1.384 . S
N3196 C3192 1.427 . S
N3196 C3193 1.384 . S
N3197 C3189 1.427 . S
N3197 C3195 1.384 . S
H3198 C3204 0.930 . S
H3199 C3208 0.930 . S
H3200 C3213 0.929 . S
H3201 C3211 0.929 . S
H3202 C3206 0.929 . S
H3203 C3212 0.929 . S
C3204 H3198 0.930 . S
C3204 C3205 1.367 . S
C3204 C3212 1.378 . S
C3205 C3204 1.367 . S
C3205 C3213 1.433 . S
C3206 H3202 0.929 . S
C3206 C3208 1.378 . S
C3206 C3210 1.350 . S
C3207 C3210 1.463 . S
C3207 C3212 1.350 . S
C3207 N3215 1.427 . S
C3208 H3199 0.930 . S
C3208 C3206 1.378 . S
C3208 C3209 1.367 . S
C3209 C3208 1.367 . S
C3209 C3211 1.433 . S
C3210 C3206 1.350 . S
C3210 C3207 1.463 . S
C3210 N3214 1.427 . S
C3211 H3201 0.929 . S
C3211 C3209 1.433 . S
C3211 N3214 1.384 . S
C3212 H3203 0.929 . S
C3212 C3204 1.378 . S
C3212 C3207 1.350 . S
C3213 H3200 0.929 . S
C3213 C3205 1.433 . S
C3213 N3215 1.384 . S
N3214 C3210 1.427 . S
N3214 C3211 1.384 . S
N3215 C3207 1.427 . S
N3215 C3213 1.384 . S
H3216 C3222 0.930 . S
H3217 C3226 0.930 . S
H3218 C3231 0.929 . S
H3219 C3229 0.929 . S
H3220 C3224 0.929 . S
H3221 C3230 0.929 . S
C3222 H3216 0.930 . S
C3222 C3223 1.367 . S
C3222 C3230 1.378 . S
C3223 C3222 1.367 . S
C3223 C3231 1.433 . S
C3224 H3220 0.929 . S
C3224 C3226 1.378 . S
C3224 C3228 1.378 . S
C3225 C3228 1.430 1_565 S
C3225 C3230 1.350 . S
C3225 N3233 1.427 . S
C3226 H3217 0.930 . S
C3226 C3224 1.378 . S
C3226 C3227 1.367 . S
C3227 C3226 1.367 . S
C3227 C3229 1.433 . S
C3228 C3224 1.378 . S
C3228 C3225 1.430 1_545 S
C3228 N3232 1.431 . S
C3229 H3219 0.929 . S
C3229 C3227 1.433 . S
C3229 N3232 1.384 . S
C3230 H3221 0.929 . S
C3230 C3222 1.378 . S
C3230 C3225 1.350 . S
C3231 H3218 0.929 . S
C3231 C3223 1.433 . S
C3231 N3233 1.384 . S
N3232 C3228 1.431 . S
N3232 C3229 1.384 . S
N3233 C3225 1.427 . S
N3233 C3231 1.384 . S
H3234 C3240 0.930 . S
H3235 C3244 0.930 . S
H3236 C3249 0.929 . S
H3237 C3247 0.929 . S
H3238 C3242 0.929 . S
H3239 C3248 0.929 . S
C3240 H3234 0.930 . S
C3240 C3241 1.367 . S
C3240 C3248 1.378 . S
C3241 C3240 1.367 . S
C3241 C3249 1.433 . S
C3242 H3238 0.929 . S
C3242 C3244 1.378 . S
C3242 C3246 1.350 . S
C3243 C3246 1.463 1_455 S
C3243 C3248 1.350 . S
C3243 N3251 1.427 . S
C3244 H3235 0.930 . S
C3244 C3242 1.378 . S
C3244 C3245 1.367 . S
C3245 C3244 1.367 . S
C3245 C3247 1.433 . S
C3246 C3242 1.350 . S
C3246 C3243 1.463 1_655 S
C3246 N3250 1.427 . S
C3247 H3237 0.929 . S
C3247 C3245 1.433 . S
C3247 N3250 1.384 . S
C3248 H3239 0.929 . S
C3248 C3240 1.378 . S
C3248 C3243 1.350 . S
C3249 H3236 0.929 . S
C3249 C3241 1.433 . S
C3249 N3251 1.384 . S
N3250 C3246 1.427 . S
N3250 C3247 1.384 . S
N3251 C3243 1.427 . S
N3251 C3249 1.384 . S
H3252 C3258 0.930 . S
H3253 C3262 0.930 . S
H3254 C3267 0.929 . S
H3255 C3265 0.929 . S
H3256 C3260 0.929 . S
H3257 C3266 0.929 . S
C3258 H3252 0.930 . S
C3258 C3259 1.367 . S
C3258 C3266 1.378 . S
C3259 C3258 1.367 . S
C3259 C3267 1.433 . S
C3260 H3256 0.929 . S
C3260 C3262 1.378 . S
C3260 C3264 1.350 . S
C3261 C3264 1.463 . S
C3261 C3266 1.350 . S
C3261 N3269 1.427 . S
C3262 H3253 0.930 . S
C3262 C3260 1.378 . S
C3262 C3263 1.367 . S
C3263 C3262 1.367 . S
C3263 C3265 1.433 . S
C3264 C3260 1.350 . S
C3264 C3261 1.463 . S
C3264 N3268 1.427 . S
C3265 H3255 0.929 . S
C3265 C3263 1.433 . S
C3265 N3268 1.384 . S
C3266 H3257 0.929 . S
C3266 C3258 1.378 . S
C3266 C3261 1.350 . S
C3267 H3254 0.929 . S
C3267 C3259 1.433 . S
C3267 N3269 1.384 . S
N3268 C3264 1.427 . S
N3268 C3265 1.384 . S
N3269 C3261 1.427 . S
N3269 C3267 1.384 . S
H3270 C3276 0.930 . S
H3271 C3280 0.930 . S
H3272 C3285 0.929 . S
H3273 C3283 0.929 . S
H3274 C3278 0.929 . S
H3275 C3284 0.929 . S
C3276 H3270 0.930 . S
C3276 C3277 1.367 . S
C3276 C3284 1.378 . S
C3277 C3276 1.367 . S
C3277 C3285 1.433 . S
C3278 H3274 0.929 . S
C3278 C3280 1.378 . S
C3278 C3282 1.350 . S
C3279 C3282 1.463 . S
C3279 C3284 1.350 . S
C3279 N3287 1.427 . S
C3280 H3271 0.930 . S
C3280 C3278 1.378 . S
C3280 C3281 1.367 . S
C3281 C3280 1.367 . S
C3281 C3283 1.433 . S
C3282 C3278 1.350 . S
C3282 C3279 1.463 . S
C3282 N3286 1.427 . S
C3283 H3273 0.929 . S
C3283 C3281 1.433 . S
C3283 N3286 1.384 . S
C3284 H3275 0.929 . S
C3284 C3276 1.378 . S
C3284 C3279 1.350 . S
C3285 H3272 0.929 . S
C3285 C3277 1.433 . S
C3285 N3287 1.384 . S
N3286 C3282 1.427 . S
N3286 C3283 1.384 . S
N3287 C3279 1.427 . S
N3287 C3285 1.384 . S
H3288 C3294 0.930 . S
H3289 C3298 0.930 . S
H3290 C3303 0.929 . S
H3291 C3301 0.929 . S
H3292 C3296 0.929 . S
H3293 C3302 0.929 . S
C3294 H3288 0.930 . S
C3294 C3295 1.367 . S
C3294 C3302 1.378 . S
C3295 C3294 1.367 . S
C3295 C3303 1.433 . S
C3296 H3292 0.929 . S
C3296 C3298 1.378 . S
C3296 C3300 1.350 . S
C3297 C3300 1.463 . S
C3297 C3302 1.350 . S
C3297 N3305 1.427 . S
C3298 H3289 0.930 . S
C3298 C3296 1.378 . S
C3298 C3299 1.367 . S
C3299 C3298 1.367 . S
C3299 C3301 1.433 . S
C3300 C3296 1.350 . S
C3300 C3297 1.463 . S
C3300 N3304 1.427 . S
C3301 H3291 0.929 . S
C3301 C3299 1.433 . S
C3301 N3304 1.384 . S
C3302 H3293 0.929 . S
C3302 C3294 1.378 . S
C3302 C3297 1.350 . S
C3303 H3290 0.929 . S
C3303 C3295 1.433 . S
C3303 N3305 1.384 . S
N3304 C3300 1.427 . S
N3304 C3301 1.384 . S
N3305 C3297 1.427 . S
N3305 C3303 1.384 . S
H3306 C3312 0.930 . S
H3307 C3316 0.930 . S
H3308 C3321 0.929 . S
H3309 C3319 0.929 . S
H3310 C3314 0.929 . S
H3311 C3320 0.929 . S
C3312 H3306 0.930 . S
C3312 C3313 1.367 . S
C3312 C3320 1.378 . S
C3313 C3312 1.367 . S
C3313 C3321 1.433 . S
C3314 H3310 0.929 . S
C3314 C3316 1.378 . S
C3314 C3318 1.350 . S
C3315 C3318 1.463 . S
C3315 C3320 1.350 . S
C3315 N3323 1.427 . S
C3316 H3307 0.930 . S
C3316 C3314 1.378 . S
C3316 C3317 1.367 . S
C3317 C3316 1.367 . S
C3317 C3319 1.433 . S
C3318 C3314 1.350 . S
C3318 C3315 1.463 . S
C3318 N3322 1.427 . S
C3319 H3309 0.929 . S
C3319 C3317 1.433 . S
C3319 N3322 1.384 . S
C3320 H3311 0.929 . S
C3320 C3312 1.378 . S
C3320 C3315 1.350 . S
C3321 H3308 0.929 . S
C3321 C3313 1.433 . S
C3321 N3323 1.384 . S
N3322 C3318 1.427 . S
N3322 C3319 1.384 . S
N3323 C3315 1.427 . S
N3323 C3321 1.384 . S
H3324 C3330 0.930 . S
H3325 C3334 0.930 . S
H3326 C3339 0.929 . S
H3327 C3337 0.929 . S
H3328 C3332 0.929 . S
H3329 C3338 0.929 . S
C3330 H3324 0.930 . S
C3330 C3331 1.367 . S
C3330 C3338 1.378 . S
C3331 C3330 1.367 . S
C3331 C3339 1.433 . S
C3332 H3328 0.929 . S
C3332 C3334 1.378 . S
C3332 C3336 1.350 . S
C3333 C3336 1.463 1_545 S
C3333 C3338 1.350 . S
C3333 N3341 1.427 . S
C3334 H3325 0.930 . S
C3334 C3332 1.378 . S
C3334 C3335 1.367 . S
C3335 C3334 1.367 . S
C3335 C3337 1.433 . S
C3336 C3332 1.350 . S
C3336 C3333 1.463 1_565 S
C3336 N3340 1.427 . S
C3337 H3327 0.929 . S
C3337 C3335 1.433 . S
C3337 N3340 1.384 . S
C3338 H3329 0.929 . S
C3338 C3330 1.378 . S
C3338 C3333 1.350 . S
C3339 H3326 0.929 . S
C3339 C3331 1.433 . S
C3339 N3341 1.384 . S
N3340 C3336 1.427 . S
N3340 C3337 1.384 . S
N3341 C3333 1.427 . S
N3341 C3339 1.384 . S
H3342 C3348 0.930 . S
H3343 C3352 0.930 . S
H3344 C3357 0.929 . S
H3345 C3355 0.929 . S
H3346 C3350 0.929 . S
H3347 C3356 0.962 . S
C3348 H3342 0.930 . S
C3348 C3349 1.367 . S
C3348 C3356 1.378 . S
C3349 C3348 1.367 . S
C3349 C3357 1.433 . S
C3350 H3346 0.929 . S
C3350 C3352 1.378 . S
C3350 C3354 1.350 . S
C3351 C3354 1.442 1_655 S
C3351 C3356 1.355 . S
C3351 N3359 1.442 . S
C3352 H3343 0.930 . S
C3352 C3350 1.378 . S
C3352 C3353 1.367 . S
C3353 C3352 1.367 . S
C3353 C3355 1.433 . S
C3354 C3350 1.350 . S
C3354 C3351 1.442 1_455 S
C3354 N3358 1.427 . S
C3355 H3345 0.929 . S
C3355 C3353 1.433 . S
C3355 N3358 1.384 . S
C3356 H3347 0.962 . S
C3356 C3348 1.378 . S
C3356 C3351 1.355 . S
C3357 H3344 0.929 . S
C3357 C3349 1.433 . S
C3357 N3359 1.384 . S
N3358 C3354 1.427 . S
N3358 C3355 1.384 . S
N3359 C3351 1.442 . S
N3359 C3357 1.384 . S
H3360 C3366 0.930 . S
H3361 C3370 0.930 . S
H3362 C3375 0.929 . S
H3363 C3373 0.929 . S
H3364 C3368 0.929 . S
H3365 C3374 0.929 . S
C3366 H3360 0.930 . S
C3366 C3367 1.367 . S
C3366 C3374 1.378 . S
C3367 C3366 1.367 . S
C3367 C3375 1.433 . S
C3368 H3364 0.929 . S
C3368 C3370 1.378 . S
C3368 C3372 1.350 . S
C3369 C3372 1.463 1_554 S
C3369 C3374 1.350 . S
C3369 N3377 1.427 . S
C3370 H3361 0.930 . S
C3370 C3368 1.378 . S
C3370 C3371 1.367 . S
C3371 C3370 1.367 . S
C3371 C3373 1.433 . S
C3372 C3368 1.350 . S
C3372 C3369 1.463 1_556 S
C3372 N3376 1.427 . S
C3373 H3363 0.929 . S
C3373 C3371 1.433 . S
C3373 N3376 1.384 . S
C3374 H3365 0.929 . S
C3374 C3366 1.378 . S
C3374 C3369 1.350 . S
C3375 H3362 0.929 . S
C3375 C3367 1.433 . S
C3375 N3377 1.384 . S
N3376 C3372 1.427 . S
N3376 C3373 1.384 . S
N3377 C3369 1.427 . S
N3377 C3375 1.384 . S
H3378 C3384 0.930 . S
H3379 C3388 0.930 . S
H3380 C3393 0.929 . S
H3381 C3391 0.929 . S
H3382 C3386 0.929 . S
H3383 C3392 0.929 . S
C3384 H3378 0.930 . S
C3384 C3385 1.367 . S
C3384 C3392 1.378 . S
C3385 C3384 1.367 . S
C3385 C3393 1.433 . S
C3386 H3382 0.929 . S
C3386 C3388 1.378 . S
C3386 C3390 1.350 . S
C3387 C3390 1.463 . S
C3387 C3392 1.350 . S
C3387 N3395 1.427 . S
C3388 H3379 0.930 . S
C3388 C3386 1.378 . S
C3388 C3389 1.367 . S
C3389 C3388 1.367 . S
C3389 C3391 1.433 . S
C3390 C3386 1.350 . S
C3390 C3387 1.463 . S
C3390 N3394 1.427 . S
C3391 H3381 0.929 . S
C3391 C3389 1.433 . S
C3391 N3394 1.384 . S
C3392 H3383 0.929 . S
C3392 C3384 1.378 . S
C3392 C3387 1.350 . S
C3393 H3380 0.929 . S
C3393 C3385 1.433 . S
C3393 N3395 1.384 . S
N3394 C3390 1.427 . S
N3394 C3391 1.384 . S
N3395 C3387 1.427 . S
N3395 C3393 1.384 . S
H3396 C3402 0.930 . S
H3397 C3406 0.930 . S
H3398 C3411 0.929 . S
H3399 C3409 0.929 . S
H3400 C3404 0.929 . S
H3401 C3410 0.929 . S
C3402 H3396 0.930 . S
C3402 C3403 1.367 . S
C3402 C3410 1.378 . S
C3403 C3402 1.367 . S
C3403 C3411 1.433 . S
C3404 H3400 0.929 . S
C3404 C3406 1.378 . S
C3404 C3408 1.350 . S
C3405 C3408 1.463 . S
C3405 C3410 1.350 . S
C3405 N3413 1.427 . S
C3406 H3397 0.930 . S
C3406 C3404 1.378 . S
C3406 C3407 1.367 . S
C3407 C3406 1.367 . S
C3407 C3409 1.433 . S
C3408 C3404 1.350 . S
C3408 C3405 1.463 . S
C3408 N3412 1.427 . S
C3409 H3399 0.929 . S
C3409 C3407 1.433 . S
C3409 N3412 1.384 . S
C3410 H3401 0.929 . S
C3410 C3402 1.378 . S
C3410 C3405 1.350 . S
C3411 H3398 0.929 . S
C3411 C3403 1.433 . S
C3411 N3413 1.384 . S
N3412 C3408 1.427 . S
N3412 C3409 1.384 . S
N3413 C3405 1.427 . S
N3413 C3411 1.384 . S
H3414 C3420 0.930 . S
H3415 C3424 0.930 . S
H3416 C3429 0.929 . S
H3417 C3427 0.929 . S
H3418 C3422 0.929 . S
H3419 C3428 0.929 . S
C3420 H3414 0.930 . S
C3420 C3421 1.367 . S
C3420 C3428 1.378 . S
C3421 C3420 1.367 . S
C3421 C3429 1.433 . S
C3422 H3418 0.929 . S
C3422 C3424 1.378 . S
C3422 C3426 1.350 . S
C3423 C3426 1.463 . S
C3423 C3428 1.350 . S
C3423 N3431 1.427 . S
C3424 H3415 0.930 . S
C3424 C3422 1.378 . S
C3424 C3425 1.367 . S
C3425 C3424 1.367 . S
C3425 C3427 1.433 . S
C3426 C3422 1.350 . S
C3426 C3423 1.463 . S
C3426 N3430 1.427 . S
C3427 H3417 0.929 . S
C3427 C3425 1.433 . S
C3427 N3430 1.384 . S
C3428 H3419 0.929 . S
C3428 C3420 1.378 . S
C3428 C3423 1.350 . S
C3429 H3416 0.929 . S
C3429 C3421 1.433 . S
C3429 N3431 1.384 . S
N3430 C3426 1.427 . S
N3430 C3427 1.384 . S
N3431 C3423 1.427 . S
N3431 C3429 1.384 . S
H3432 C3438 0.930 . S
H3433 C3442 0.930 . S
H3434 C3447 0.929 . S
H3435 C3445 0.929 . S
H3436 C3440 0.929 . S
H3437 C3446 0.929 . S
C3438 H3432 0.930 . S
C3438 C3439 1.367 . S
C3438 C3446 1.378 . S
C3439 C3438 1.367 . S
C3439 C3447 1.433 . S
C3440 H3436 0.929 . S
C3440 C3442 1.378 . S
C3440 C3444 1.350 . S
C3441 C3444 1.463 . S
C3441 C3446 1.350 . S
C3441 N3449 1.427 . S
C3442 H3433 0.930 . S
C3442 C3440 1.378 . S
C3442 C3443 1.367 . S
C3443 C3442 1.367 . S
C3443 C3445 1.433 . S
C3444 C3440 1.350 . S
C3444 C3441 1.463 . S
C3444 N3448 1.427 . S
C3445 H3435 0.929 . S
C3445 C3443 1.433 . S
C3445 N3448 1.384 . S
C3446 H3437 0.929 . S
C3446 C3438 1.378 . S
C3446 C3441 1.350 . S
C3447 H3434 0.929 . S
C3447 C3439 1.433 . S
C3447 N3449 1.384 . S
N3448 C3444 1.427 . S
N3448 C3445 1.384 . S
N3449 C3441 1.427 . S
N3449 C3447 1.384 . S
H3450 C3456 0.930 . S
H3451 C3460 0.930 . S
H3452 C3465 0.929 . S
H3453 C3463 0.929 . S
H3454 C3458 0.929 . S
H3455 C3464 0.929 . S
C3456 H3450 0.930 . S
C3456 C3457 1.367 . S
C3456 C3464 1.378 . S
C3457 C3456 1.367 . S
C3457 C3465 1.433 . S
C3458 H3454 0.929 . S
C3458 C3460 1.378 . S
C3458 C3462 1.350 . S
C3459 C3462 1.463 . S
C3459 C3464 1.350 . S
C3459 N3467 1.427 . S
C3460 H3451 0.930 . S
C3460 C3458 1.378 . S
C3460 C3461 1.367 . S
C3461 C3460 1.367 . S
C3461 C3463 1.433 . S
C3462 C3458 1.350 . S
C3462 C3459 1.463 . S
C3462 N3466 1.427 . S
C3463 H3453 0.929 . S
C3463 C3461 1.433 . S
C3463 N3466 1.384 . S
C3464 H3455 0.929 . S
C3464 C3456 1.378 . S
C3464 C3459 1.350 . S
C3465 H3452 0.929 . S
C3465 C3457 1.433 . S
C3465 N3467 1.384 . S
N3466 C3462 1.427 . S
N3466 C3463 1.384 . S
N3467 C3459 1.427 . S
N3467 C3465 1.384 . S
H3468 C3474 0.930 . S
H3469 C3478 0.930 . S
H3470 C3483 0.929 . S
H3471 C3481 0.929 . S
H3472 C3476 0.929 . S
H3473 C3482 0.929 . S
C3474 H3468 0.930 . S
C3474 C3475 1.367 . S
C3474 C3482 1.378 . S
C3475 C3474 1.367 . S
C3475 C3483 1.433 . S
C3476 H3472 0.929 . S
C3476 C3478 1.378 . S
C3476 C3480 1.350 . S
C3477 C3480 1.463 . S
C3477 C3482 1.350 . S
C3477 N3485 1.427 . S
C3478 H3469 0.930 . S
C3478 C3476 1.378 . S
C3478 C3479 1.367 . S
C3479 C3478 1.367 . S
C3479 C3481 1.433 . S
C3480 C3476 1.350 . S
C3480 C3477 1.463 . S
C3480 N3484 1.427 . S
C3481 H3471 0.929 . S
C3481 C3479 1.433 . S
C3481 N3484 1.384 . S
C3482 H3473 0.929 . S
C3482 C3474 1.378 . S
C3482 C3477 1.350 . S
C3483 H3470 0.929 . S
C3483 C3475 1.433 . S
C3483 N3485 1.384 . S
N3484 C3480 1.427 . S
N3484 C3481 1.384 . S
N3485 C3477 1.427 . S
N3485 C3483 1.384 . S
H3486 C3492 0.930 . S
H3487 C3496 0.930 . S
H3488 C3501 0.929 . S
H3489 C3499 0.929 . S
H3490 C3494 0.929 . S
H3491 C3500 0.929 . S
C3492 H3486 0.930 . S
C3492 C3493 1.367 . S
C3492 C3500 1.378 . S
C3493 C3492 1.367 . S
C3493 C3501 1.433 . S
C3494 H3490 0.929 . S
C3494 C3496 1.378 . S
C3494 C3498 1.350 . S
C3495 C3498 1.463 1_554 S
C3495 C3500 1.350 . S
C3495 N3503 1.427 . S
C3496 H3487 0.930 . S
C3496 C3494 1.378 . S
C3496 C3497 1.367 . S
C3497 C3496 1.367 . S
C3497 C3499 1.433 . S
C3498 C3494 1.350 . S
C3498 C3495 1.463 1_556 S
C3498 N3502 1.427 . S
C3499 H3489 0.929 . S
C3499 C3497 1.433 . S
C3499 N3502 1.384 . S
C3500 H3491 0.929 . S
C3500 C3492 1.378 . S
C3500 C3495 1.350 . S
C3501 H3488 0.929 . S
C3501 C3493 1.433 . S
C3501 N3503 1.384 . S
N3502 C3498 1.427 . S
N3502 C3499 1.384 . S
N3503 C3495 1.427 . S
N3503 C3501 1.384 . S
H3504 C3510 0.930 . S
H3505 C3514 0.930 . S
H3506 C3519 0.929 . S
H3507 C3517 0.929 . S
H3508 C3512 0.929 . S
H3509 C3518 0.928 1_455 S
C3510 H3504 0.930 . S
C3510 C3511 1.367 . S
C3510 C3518 1.378 . S
C3511 C3510 1.367 . S
C3511 C3519 1.433 . S
C3512 H3508 0.929 . S
C3512 C3514 1.378 . S
C3512 C3516 1.350 . S
C3513 C3516 1.443 1_655 S
C3513 C3518 1.359 . S
C3513 N3521 1.437 . S
C3514 H3505 0.930 . S
C3514 C3512 1.378 . S
C3514 C3515 1.367 . S
C3515 C3514 1.367 . S
C3515 C3517 1.433 . S
C3516 C3512 1.350 . S
C3516 C3513 1.443 1_455 S
C3516 N3520 1.427 . S
C3517 H3507 0.929 . S
C3517 C3515 1.433 . S
C3517 N3520 1.384 . S
C3518 H3509 0.928 1_655 S
C3518 C3510 1.378 . S
C3518 C3513 1.359 . S
C3519 H3506 0.929 . S
C3519 C3511 1.433 . S
C3519 N3521 1.384 . S
N3520 C3516 1.427 . S
N3520 C3517 1.384 . S
N3521 C3513 1.437 . S
N3521 C3519 1.384 . S
H3522 C3528 0.930 . S
H3523 C3532 0.930 . S
H3524 C3537 0.929 . S
H3525 C3535 0.929 . S
H3526 C3530 0.929 . S
H3527 C3536 0.929 . S
C3528 H3522 0.930 . S
C3528 C3529 1.367 . S
C3528 C3536 1.378 . S
C3529 C3528 1.367 . S
C3529 C3537 1.433 . S
C3530 H3526 0.929 . S
C3530 C3532 1.378 . S
C3530 C3534 1.350 . S
C3531 C3534 1.463 . S
C3531 C3536 1.350 . S
C3531 N3539 1.427 . S
C3532 H3523 0.930 . S
C3532 C3530 1.378 . S
C3532 C3533 1.367 . S
C3533 C3532 1.367 . S
C3533 C3535 1.433 . S
C3534 C3530 1.350 . S
C3534 C3531 1.463 . S
C3534 N3538 1.427 . S
C3535 H3525 0.929 . S
C3535 C3533 1.433 . S
C3535 N3538 1.384 . S
C3536 H3527 0.929 . S
C3536 C3528 1.378 . S
C3536 C3531 1.350 . S
C3537 H3524 0.929 . S
C3537 C3529 1.433 . S
C3537 N3539 1.384 . S
N3538 C3534 1.427 . S
N3538 C3535 1.384 . S
N3539 C3531 1.427 . S
N3539 C3537 1.384 . S
H3540 C3546 0.930 . S
H3541 C3550 0.930 . S
H3542 C3555 0.929 . S
H3543 C3553 0.929 . S
H3544 C3548 0.929 . S
H3545 C3554 0.929 . S
C3546 H3540 0.930 . S
C3546 C3547 1.367 . S
C3546 C3554 1.378 . S
C3547 C3546 1.367 . S
C3547 C3555 1.433 . S
C3548 H3544 0.929 . S
C3548 C3550 1.378 . S
C3548 C3552 1.350 . S
C3549 C3552 1.463 . S
C3549 C3554 1.350 . S
C3549 N3557 1.427 . S
C3550 H3541 0.930 . S
C3550 C3548 1.378 . S
C3550 C3551 1.367 . S
C3551 C3550 1.367 . S
C3551 C3553 1.433 . S
C3552 C3548 1.350 . S
C3552 C3549 1.463 . S
C3552 N3556 1.427 . S
C3553 H3543 0.929 . S
C3553 C3551 1.433 . S
C3553 N3556 1.384 . S
C3554 H3545 0.929 . S
C3554 C3546 1.378 . S
C3554 C3549 1.350 . S
C3555 H3542 0.929 . S
C3555 C3547 1.433 . S
C3555 N3557 1.384 . S
N3556 C3552 1.427 . S
N3556 C3553 1.384 . S
N3557 C3549 1.427 . S
N3557 C3555 1.384 . S
H3558 C3564 0.930 . S
H3559 C3568 0.930 . S
H3560 C3573 0.929 . S
H3561 C3571 0.929 . S
H3562 C3566 0.929 . S
H3563 C3572 0.929 . S
C3564 H3558 0.930 . S
C3564 C3565 1.367 . S
C3564 C3572 1.378 . S
C3565 C3564 1.367 . S
C3565 C3573 1.433 . S
C3566 H3562 0.929 . S
C3566 C3568 1.378 . S
C3566 C3570 1.350 . S
C3567 C3570 1.463 . S
C3567 C3572 1.350 . S
C3567 N3575 1.427 . S
C3568 H3559 0.930 . S
C3568 C3566 1.378 . S
C3568 C3569 1.367 . S
C3569 C3568 1.367 . S
C3569 C3571 1.433 . S
C3570 C3566 1.350 . S
C3570 C3567 1.463 . S
C3570 N3574 1.427 . S
C3571 H3561 0.929 . S
C3571 C3569 1.433 . S
C3571 N3574 1.384 . S
C3572 H3563 0.929 . S
C3572 C3564 1.378 . S
C3572 C3567 1.350 . S
C3573 H3560 0.929 . S
C3573 C3565 1.433 . S
C3573 N3575 1.384 . S
N3574 C3570 1.427 . S
N3574 C3571 1.384 . S
N3575 C3567 1.427 . S
N3575 C3573 1.384 . S
H3576 C3582 0.930 . S
H3577 C3586 0.930 . S
H3578 C3591 0.929 . S
H3579 C3589 0.929 . S
H3580 C3584 0.929 . S
H3581 C3590 0.929 . S
C3582 H3576 0.930 . S
C3582 C3583 1.367 . S
C3582 C3590 1.378 . S
C3583 C3582 1.367 . S
C3583 C3591 1.433 . S
C3584 H3580 0.929 . S
C3584 C3586 1.378 . S
C3584 C3588 1.350 . S
C3585 C3588 1.463 . S
C3585 C3590 1.350 . S
C3585 N3593 1.427 . S
C3586 H3577 0.930 . S
C3586 C3584 1.378 . S
C3586 C3587 1.367 . S
C3587 C3586 1.367 . S
C3587 C3589 1.433 . S
C3588 C3584 1.350 . S
C3588 C3585 1.463 . S
C3588 N3592 1.427 . S
C3589 H3579 0.929 . S
C3589 C3587 1.433 . S
C3589 N3592 1.384 . S
C3590 H3581 0.929 . S
C3590 C3582 1.378 . S
C3590 C3585 1.350 . S
C3591 H3578 0.929 . S
C3591 C3583 1.433 . S
C3591 N3593 1.384 . S
N3592 C3588 1.427 . S
N3592 C3589 1.384 . S
N3593 C3585 1.427 . S
N3593 C3591 1.384 . S
H3594 C3600 0.930 . S
H3595 C3604 0.930 . S
H3596 C3609 0.929 . S
H3597 C3607 0.929 . S
H3598 C3602 0.929 . S
H3599 C3608 0.929 . S
C3600 H3594 0.930 . S
C3600 C3601 1.367 . S
C3600 C3608 1.378 . S
C3601 C3600 1.367 . S
C3601 C3609 1.433 . S
C3602 H3598 0.929 . S
C3602 C3604 1.378 . S
C3602 C3606 1.350 . S
C3603 C3606 1.463 . S
C3603 C3608 1.350 . S
C3603 N3611 1.427 . S
C3604 H3595 0.930 . S
C3604 C3602 1.378 . S
C3604 C3605 1.367 . S
C3605 C3604 1.367 . S
C3605 C3607 1.433 . S
C3606 C3602 1.350 . S
C3606 C3603 1.463 . S
C3606 N3610 1.427 . S
C3607 H3597 0.929 . S
C3607 C3605 1.433 . S
C3607 N3610 1.384 . S
C3608 H3599 0.929 . S
C3608 C3600 1.378 . S
C3608 C3603 1.350 . S
C3609 H3596 0.929 . S
C3609 C3601 1.433 . S
C3609 N3611 1.384 . S
N3610 C3606 1.427 . S
N3610 C3607 1.384 . S
N3611 C3603 1.427 . S
N3611 C3609 1.384 . S
H3612 C3618 0.930 . S
H3613 C3622 0.930 . S
H3614 C3627 0.929 . S
H3615 C3625 0.929 . S
H3616 C3620 0.929 . S
H3617 C3626 0.929 . S
C3618 H3612 0.930 . S
C3618 C3619 1.367 . S
C3618 C3626 1.378 . S
C3619 C3618 1.367 . S
C3619 C3627 1.433 . S
C3620 H3616 0.929 . S
C3620 C3622 1.378 . S
C3620 C3624 1.350 . S
C3621 C3624 1.463 1_545 S
C3621 C3626 1.350 . S
C3621 N3629 1.427 . S
C3622 H3613 0.930 . S
C3622 C3620 1.378 . S
C3622 C3623 1.367 . S
C3623 C3622 1.367 . S
C3623 C3625 1.433 . S
C3624 C3620 1.350 . S
C3624 C3621 1.463 1_565 S
C3624 N3628 1.427 . S
C3625 H3615 0.929 . S
C3625 C3623 1.433 . S
C3625 N3628 1.384 . S
C3626 H3617 0.929 . S
C3626 C3618 1.378 . S
C3626 C3621 1.350 . S
C3627 H3614 0.929 . S
C3627 C3619 1.433 . S
C3627 N3629 1.384 . S
N3628 C3624 1.427 . S
N3628 C3625 1.384 . S
N3629 C3621 1.427 . S
N3629 C3627 1.384 . S
H3630 C3636 0.930 . S
H3631 C3640 0.930 . S
H3632 C3645 0.929 . S
H3633 C3643 0.929 . S
H3634 C3638 0.929 . S
H3635 C3644 0.929 . S
C3636 H3630 0.930 . S
C3636 C3637 1.367 . S
C3636 C3644 1.378 . S
C3637 C3636 1.367 . S
C3637 C3645 1.433 . S
C3638 H3634 0.929 . S
C3638 C3640 1.378 . S
C3638 C3642 1.350 . S
C3639 C3642 1.463 1_655 S
C3639 C3644 1.350 . S
C3639 N3647 1.427 . S
C3640 H3631 0.930 . S
C3640 C3638 1.378 . S
C3640 C3641 1.367 . S
C3641 C3640 1.367 . S
C3641 C3643 1.433 . S
C3642 C3638 1.350 . S
C3642 C3639 1.463 1_455 S
C3642 N3646 1.427 . S
C3643 H3633 0.929 . S
C3643 C3641 1.433 . S
C3643 N3646 1.384 . S
C3644 H3635 0.929 . S
C3644 C3636 1.378 . S
C3644 C3639 1.350 . S
C3645 H3632 0.929 . S
C3645 C3637 1.433 . S
C3645 N3647 1.384 . S
N3646 C3642 1.427 . S
N3646 C3643 1.384 . S
N3647 C3639 1.427 . S
N3647 C3645 1.384 . S
H3648 C3654 0.930 . S
H3649 C3658 0.930 . S
H3650 C3663 0.929 . S
H3651 C3661 0.929 . S
H3652 C3656 0.929 . S
H3653 C3662 0.929 . S
C3654 H3648 0.930 . S
C3654 C3655 1.367 . S
C3654 C3662 1.378 . S
C3655 C3654 1.367 . S
C3655 C3663 1.433 . S
C3656 H3652 0.929 . S
C3656 C3658 1.378 . S
C3656 C3660 1.350 . S
C3657 C3660 1.463 . S
C3657 C3662 1.350 . S
C3657 N3665 1.427 . S
C3658 H3649 0.930 . S
C3658 C3656 1.378 . S
C3658 C3659 1.367 . S
C3659 C3658 1.367 . S
C3659 C3661 1.433 . S
C3660 C3656 1.350 . S
C3660 C3657 1.463 . S
C3660 N3664 1.427 . S
C3661 H3651 0.929 . S
C3661 C3659 1.433 . S
C3661 N3664 1.384 . S
C3662 H3653 0.929 . S
C3662 C3654 1.378 . S
C3662 C3657 1.350 . S
C3663 H3650 0.929 . S
C3663 C3655 1.433 . S
C3663 N3665 1.384 . S
N3664 C3660 1.427 . S
N3664 C3661 1.384 . S
N3665 C3657 1.427 . S
N3665 C3663 1.384 . S
H3666 C3672 0.930 . S
H3667 C3676 0.930 . S
H3668 C3681 0.929 . S
H3669 C3679 0.929 . S
H3670 C3674 0.929 . S
H3671 C3680 0.929 . S
C3672 H3666 0.930 . S
C3672 C3673 1.367 . S
C3672 C3680 1.378 . S
C3673 C3672 1.367 . S
C3673 C3681 1.433 . S
C3674 H3670 0.929 . S
C3674 C3676 1.378 . S
C3674 C3678 1.350 . S
C3675 C3678 1.463 . S
C3675 C3680 1.350 . S
C3675 N3683 1.427 . S
C3676 H3667 0.930 . S
C3676 C3674 1.378 . S
C3676 C3677 1.367 . S
C3677 C3676 1.367 . S
C3677 C3679 1.433 . S
C3678 C3674 1.350 . S
C3678 C3675 1.463 . S
C3678 N3682 1.427 . S
C3679 H3669 0.929 . S
C3679 C3677 1.433 . S
C3679 N3682 1.384 . S
C3680 H3671 0.929 . S
C3680 C3672 1.378 . S
C3680 C3675 1.350 . S
C3681 H3668 0.929 . S
C3681 C3673 1.433 . S
C3681 N3683 1.384 . S
N3682 C3678 1.427 . S
N3682 C3679 1.384 . S
N3683 C3675 1.427 . S
N3683 C3681 1.384 . S
H3684 C3690 0.930 . S
H3685 C3694 0.930 . S
H3686 C3699 0.929 . S
H3687 C3697 0.929 . S
H3688 C3692 0.929 . S
H3689 C3698 0.929 . S
C3690 H3684 0.930 . S
C3690 C3691 1.367 . S
C3690 C3698 1.378 . S
C3691 C3690 1.367 . S
C3691 C3699 1.433 . S
C3692 H3688 0.929 . S
C3692 C3694 1.378 . S
C3692 C3696 1.350 . S
C3693 C3696 1.463 . S
C3693 C3698 1.350 . S
C3693 N3701 1.427 . S
C3694 H3685 0.930 . S
C3694 C3692 1.378 . S
C3694 C3695 1.367 . S
C3695 C3694 1.367 . S
C3695 C3697 1.433 . S
C3696 C3692 1.350 . S
C3696 C3693 1.463 . S
C3696 N3700 1.427 . S
C3697 H3687 0.929 . S
C3697 C3695 1.433 . S
C3697 N3700 1.384 . S
C3698 H3689 0.929 . S
C3698 C3690 1.378 . S
C3698 C3693 1.350 . S
C3699 H3686 0.929 . S
C3699 C3691 1.433 . S
C3699 N3701 1.384 . S
N3700 C3696 1.427 . S
N3700 C3697 1.384 . S
N3701 C3693 1.427 . S
N3701 C3699 1.384 . S
H3702 C3708 0.930 . S
H3703 C3712 0.930 . S
H3704 C3717 0.929 . S
H3705 C3715 0.929 . S
H3706 C3710 0.929 . S
H3707 C3716 0.929 . S
C3708 H3702 0.930 . S
C3708 C3709 1.367 . S
C3708 C3716 1.378 . S
C3709 C3708 1.367 . S
C3709 C3717 1.433 . S
C3710 H3706 0.929 . S
C3710 C3712 1.378 . S
C3710 C3714 1.350 . S
C3711 C3714 1.463 . S
C3711 C3716 1.350 . S
C3711 N3719 1.427 . S
C3712 H3703 0.930 . S
C3712 C3710 1.378 . S
C3712 C3713 1.367 . S
C3713 C3712 1.367 . S
C3713 C3715 1.433 . S
C3714 C3710 1.350 . S
C3714 C3711 1.463 . S
C3714 N3718 1.427 . S
C3715 H3705 0.929 . S
C3715 C3713 1.433 . S
C3715 N3718 1.384 . S
C3716 H3707 0.929 . S
C3716 C3708 1.378 . S
C3716 C3711 1.350 . S
C3717 H3704 0.929 . S
C3717 C3709 1.433 . S
C3717 N3719 1.384 . S
N3718 C3714 1.427 . S
N3718 C3715 1.384 . S
N3719 C3711 1.427 . S
N3719 C3717 1.384 . S
H3720 C3726 0.930 . S
H3721 C3730 0.930 . S
H3722 C3735 0.929 . S
H3723 C3733 0.929 . S
H3724 C3728 0.929 . S
H3725 C3734 0.929 . S
C3726 H3720 0.930 . S
C3726 C3727 1.367 . S
C3726 C3734 1.378 . S
C3727 C3726 1.367 . S
C3727 C3735 1.433 . S
C3728 H3724 0.929 . S
C3728 C3730 1.378 . S
C3728 C3732 1.350 . S
C3729 C3732 1.463 1_565 S
C3729 C3734 1.350 . S
C3729 N3737 1.427 . S
C3730 H3721 0.930 . S
C3730 C3728 1.378 . S
C3730 C3731 1.367 . S
C3731 C3730 1.367 . S
C3731 C3733 1.433 . S
C3732 C3728 1.350 . S
C3732 C3729 1.463 1_545 S
C3732 N3736 1.427 . S
C3733 H3723 0.929 . S
C3733 C3731 1.433 . S
C3733 N3736 1.384 . S
C3734 H3725 0.929 . S
C3734 C3726 1.378 . S
C3734 C3729 1.350 . S
C3735 H3722 0.929 . S
C3735 C3727 1.433 . S
C3735 N3737 1.384 . S
N3736 C3732 1.427 . S
N3736 C3733 1.384 . S
N3737 C3729 1.427 . S
N3737 C3735 1.384 . S
H3738 C3744 0.930 . S
H3739 C3748 0.930 . S
H3740 C3753 0.929 . S
H3741 C3751 0.929 . S
H3742 C3746 0.929 . S
H3743 C3752 0.929 . S
C3744 H3738 0.930 . S
C3744 C3745 1.367 . S
C3744 C3752 1.378 . S
C3745 C3744 1.367 . S
C3745 C3753 1.433 . S
C3746 H3742 0.929 . S
C3746 C3748 1.378 . S
C3746 C3750 1.350 . S
C3747 C3750 1.463 1_455 S
C3747 C3752 1.350 . S
C3747 N3755 1.427 . S
C3748 H3739 0.930 . S
C3748 C3746 1.378 . S
C3748 C3749 1.367 . S
C3749 C3748 1.367 . S
C3749 C3751 1.433 . S
C3750 C3746 1.350 . S
C3750 C3747 1.463 1_655 S
C3750 N3754 1.427 . S
C3751 H3741 0.929 . S
C3751 C3749 1.433 . S
C3751 N3754 1.384 . S
C3752 H3743 0.929 . S
C3752 C3744 1.378 . S
C3752 C3747 1.350 . S
C3753 H3740 0.929 . S
C3753 C3745 1.433 . S
C3753 N3755 1.384 . S
N3754 C3750 1.427 . S
N3754 C3751 1.384 . S
N3755 C3747 1.427 . S
N3755 C3753 1.384 . S
H3756 C3762 0.930 . S
H3757 C3766 0.930 . S
H3758 C3771 0.929 . S
H3759 C3769 0.929 . S
H3760 C3764 0.929 . S
H3761 C3770 0.929 . S
C3762 H3756 0.930 . S
C3762 C3763 1.367 . S
C3762 C3770 1.378 . S
C3763 C3762 1.367 . S
C3763 C3771 1.433 . S
C3764 H3760 0.929 . S
C3764 C3766 1.378 . S
C3764 C3768 1.350 . S
C3765 C3768 1.463 1_554 S
C3765 C3770 1.350 . S
C3765 N3773 1.427 . S
C3766 H3757 0.930 . S
C3766 C3764 1.378 . S
C3766 C3767 1.367 . S
C3767 C3766 1.367 . S
C3767 C3769 1.433 . S
C3768 C3764 1.350 . S
C3768 C3765 1.463 1_556 S
C3768 N3772 1.427 . S
C3769 H3759 0.929 . S
C3769 C3767 1.433 . S
C3769 N3772 1.384 . S
C3770 H3761 0.929 . S
C3770 C3762 1.378 . S
C3770 C3765 1.350 . S
C3771 H3758 0.929 . S
C3771 C3763 1.433 . S
C3771 N3773 1.384 . S
N3772 C3768 1.427 . S
N3772 C3769 1.384 . S
N3773 C3765 1.427 . S
N3773 C3771 1.384 . S
H3774 C3780 0.930 . S
H3775 C3784 0.930 . S
H3776 C3789 0.929 . S
H3777 C3787 0.929 . S
H3778 C3782 0.929 . S
H3779 C3788 0.929 . S
C3780 H3774 0.930 . S
C3780 C3781 1.367 . S
C3780 C3788 1.378 . S
C3781 C3780 1.367 . S
C3781 C3789 1.433 . S
C3782 H3778 0.929 . S
C3782 C3784 1.378 . S
C3782 C3786 1.350 . S
C3783 C3786 1.463 . S
C3783 C3788 1.350 . S
C3783 N3791 1.427 . S
C3784 H3775 0.930 . S
C3784 C3782 1.378 . S
C3784 C3785 1.367 . S
C3785 C3784 1.367 . S
C3785 C3787 1.433 . S
C3786 C3782 1.350 . S
C3786 C3783 1.463 . S
C3786 N3790 1.427 . S
C3787 H3777 0.929 . S
C3787 C3785 1.433 . S
C3787 N3790 1.384 . S
C3788 H3779 0.929 . S
C3788 C3780 1.378 . S
C3788 C3783 1.350 . S
C3789 H3776 0.929 . S
C3789 C3781 1.433 . S
C3789 N3791 1.384 . S
N3790 C3786 1.427 . S
N3790 C3787 1.384 . S
N3791 C3783 1.427 . S
N3791 C3789 1.384 . S
H3792 C3798 0.930 . S
H3793 C3802 0.930 . S
H3794 C3807 0.929 . S
H3795 C3805 0.929 . S
H3796 C3800 0.929 . S
H3797 C3806 0.929 . S
C3798 H3792 0.930 . S
C3798 C3799 1.367 . S
C3798 C3806 1.378 . S
C3799 C3798 1.367 . S
C3799 C3807 1.433 . S
C3800 H3796 0.929 . S
C3800 C3802 1.378 . S
C3800 C3804 1.350 . S
C3801 C3804 1.463 . S
C3801 C3806 1.350 . S
C3801 N3809 1.427 . S
C3802 H3793 0.930 . S
C3802 C3800 1.378 . S
C3802 C3803 1.367 . S
C3803 C3802 1.367 . S
C3803 C3805 1.433 . S
C3804 C3800 1.350 . S
C3804 C3801 1.463 . S
C3804 N3808 1.427 . S
C3805 H3795 0.929 . S
C3805 C3803 1.433 . S
C3805 N3808 1.384 . S
C3806 H3797 0.929 . S
C3806 C3798 1.378 . S
C3806 C3801 1.350 . S
C3807 H3794 0.929 . S
C3807 C3799 1.433 . S
C3807 N3809 1.384 . S
N3808 C3804 1.427 . S
N3808 C3805 1.384 . S
N3809 C3801 1.427 . S
N3809 C3807 1.384 . S
H3810 C3816 0.930 . S
H3811 C3820 0.930 . S
H3812 C3825 0.929 . S
H3813 C3823 0.929 . S
H3814 C3818 0.929 . S
H3815 C3824 0.929 . S
C3816 H3810 0.930 . S
C3816 C3817 1.367 . S
C3816 C3824 1.378 . S
C3817 C3816 1.367 . S
C3817 C3825 1.433 . S
C3818 H3814 0.929 . S
C3818 C3820 1.378 . S
C3818 C3822 1.350 . S
C3819 C3822 1.463 . S
C3819 C3824 1.350 . S
C3819 N3827 1.427 . S
C3820 H3811 0.930 . S
C3820 C3818 1.378 . S
C3820 C3821 1.367 . S
C3821 C3820 1.367 . S
C3821 C3823 1.433 . S
C3822 C3818 1.350 . S
C3822 C3819 1.463 . S
C3822 N3826 1.427 . S
C3823 H3813 0.929 . S
C3823 C3821 1.433 . S
C3823 N3826 1.384 . S
C3824 H3815 0.929 . S
C3824 C3816 1.378 . S
C3824 C3819 1.350 . S
C3825 H3812 0.929 . S
C3825 C3817 1.433 . S
C3825 N3827 1.384 . S
N3826 C3822 1.427 . S
N3826 C3823 1.384 . S
N3827 C3819 1.427 . S
N3827 C3825 1.384 . S
H3828 C3834 0.930 . S
H3829 C3838 0.930 . S
H3830 C3843 0.929 . S
H3831 C3841 0.929 . S
H3832 C3836 0.929 . S
H3833 C3842 0.929 . S
C3834 H3828 0.930 . S
C3834 C3835 1.367 . S
C3834 C3842 1.378 . S
C3835 C3834 1.367 . S
C3835 C3843 1.433 . S
C3836 H3832 0.929 . S
C3836 C3838 1.378 . S
C3836 C3840 1.350 . S
C3837 C3840 1.463 . S
C3837 C3842 1.350 . S
C3837 N3845 1.427 . S
C3838 H3829 0.930 . S
C3838 C3836 1.378 . S
C3838 C3839 1.367 . S
C3839 C3838 1.367 . S
C3839 C3841 1.433 . S
C3840 C3836 1.350 . S
C3840 C3837 1.463 . S
C3840 N3844 1.427 . S
C3841 H3831 0.929 . S
C3841 C3839 1.433 . S
C3841 N3844 1.384 . S
C3842 H3833 0.929 . S
C3842 C3834 1.378 . S
C3842 C3837 1.350 . S
C3843 H3830 0.929 . S
C3843 C3835 1.433 . S
C3843 N3845 1.384 . S
N3844 C3840 1.427 . S
N3844 C3841 1.384 . S
N3845 C3837 1.427 . S
N3845 C3843 1.384 . S
H3846 C3852 0.930 . S
H3847 C3856 0.930 . S
H3848 C3861 0.929 . S
H3849 C3859 0.929 . S
H3850 C3854 0.929 . S
H3851 C3860 0.929 . S
C3852 H3846 0.930 . S
C3852 C3853 1.367 . S
C3852 C3860 1.378 . S
C3853 C3852 1.367 . S
C3853 C3861 1.433 . S
C3854 H3850 0.929 . S
C3854 C3856 1.378 . S
C3854 C3858 1.350 . S
C3855 C3858 1.463 . S
C3855 C3860 1.350 . S
C3855 N3863 1.427 . S
C3856 H3847 0.930 . S
C3856 C3854 1.378 . S
C3856 C3857 1.367 . S
C3857 C3856 1.367 . S
C3857 C3859 1.433 . S
C3858 C3854 1.350 . S
C3858 C3855 1.463 . S
C3858 N3862 1.427 . S
C3859 H3849 0.929 . S
C3859 C3857 1.433 . S
C3859 N3862 1.384 . S
C3860 H3851 0.929 . S
C3860 C3852 1.378 . S
C3860 C3855 1.350 . S
C3861 H3848 0.929 . S
C3861 C3853 1.433 . S
C3861 N3863 1.384 . S
N3862 C3858 1.427 . S
N3862 C3859 1.384 . S
N3863 C3855 1.427 . S
N3863 C3861 1.384 . S
H3864 C3870 0.930 . S
H3865 C3874 0.930 . S
H3866 C3879 0.929 . S
H3867 C3877 0.929 . S
H3868 C3872 0.929 . S
H3869 C3878 0.929 . S
C3870 H3864 0.930 . S
C3870 C3871 1.367 . S
C3870 C3878 1.378 . S
C3871 C3870 1.367 . S
C3871 C3879 1.433 . S
C3872 H3868 0.929 . S
C3872 C3874 1.378 . S
C3872 C3876 1.350 . S
C3873 C3876 1.463 . S
C3873 C3878 1.350 . S
C3873 N3881 1.427 . S
C3874 H3865 0.930 . S
C3874 C3872 1.378 . S
C3874 C3875 1.367 . S
C3875 C3874 1.367 . S
C3875 C3877 1.433 . S
C3876 C3872 1.350 . S
C3876 C3873 1.463 . S
C3876 N3880 1.427 . S
C3877 H3867 0.929 . S
C3877 C3875 1.433 . S
C3877 N3880 1.384 . S
C3878 H3869 0.929 . S
C3878 C3870 1.378 . S
C3878 C3873 1.350 . S
C3879 H3866 0.929 . S
C3879 C3871 1.433 . S
C3879 N3881 1.384 . S
N3880 C3876 1.427 . S
N3880 C3877 1.384 . S
N3881 C3873 1.427 . S
N3881 C3879 1.384 . S
H3882 C3888 0.930 . S
H3883 C3892 0.930 . S
H3884 C3897 0.929 . S
H3885 C3895 0.929 . S
H3886 C3890 0.929 . S
H3887 C3896 0.929 . S
C3888 H3882 0.930 . S
C3888 C3889 1.367 . S
C3888 C3896 1.378 . S
C3889 C3888 1.367 . S
C3889 C3897 1.433 . S
C3890 H3886 0.929 . S
C3890 C3892 1.378 . S
C3890 C3894 1.350 . S
C3891 C3894 1.463 1_554 S
C3891 C3896 1.350 . S
C3891 N3899 1.427 . S
C3892 H3883 0.930 . S
C3892 C3890 1.378 . S
C3892 C3893 1.367 . S
C3893 C3892 1.367 . S
C3893 C3895 1.433 . S
C3894 C3890 1.350 . S
C3894 C3891 1.463 1_556 S
C3894 N3898 1.427 . S
C3895 H3885 0.929 . S
C3895 C3893 1.433 . S
C3895 N3898 1.384 . S
C3896 H3887 0.929 . S
C3896 C3888 1.378 . S
C3896 C3891 1.350 . S
C3897 H3884 0.929 . S
C3897 C3889 1.433 . S
C3897 N3899 1.384 . S
N3898 C3894 1.427 . S
N3898 C3895 1.384 . S
N3899 C3891 1.427 . S
N3899 C3897 1.384 . S
H3900 C3906 0.930 . S
H3901 C3910 0.930 . S
H3902 C3915 0.929 . S
H3903 C3913 0.929 . S
H3904 C3908 0.929 . S
H3905 C3914 0.929 . S
C3906 H3900 0.930 . S
C3906 C3907 1.367 . S
C3906 C3914 1.378 . S
C3907 C3906 1.367 . S
C3907 C3915 1.433 . S
C3908 H3904 0.929 . S
C3908 C3910 1.378 . S
C3908 C3912 1.350 . S
C3909 C3912 1.463 1_455 S
C3909 C3914 1.350 . S
C3909 N3917 1.427 . S
C3910 H3901 0.930 . S
C3910 C3908 1.378 . S
C3910 C3911 1.367 . S
C3911 C3910 1.367 . S
C3911 C3913 1.433 . S
C3912 C3908 1.350 . S
C3912 C3909 1.463 1_655 S
C3912 N3916 1.427 . S
C3913 H3903 0.929 . S
C3913 C3911 1.433 . S
C3913 N3916 1.384 . S
C3914 H3905 0.929 . S
C3914 C3906 1.378 . S
C3914 C3909 1.350 . S
C3915 H3902 0.929 . S
C3915 C3907 1.433 . S
C3915 N3917 1.384 . S
N3916 C3912 1.427 . S
N3916 C3913 1.384 . S
N3917 C3909 1.427 . S
N3917 C3915 1.384 . S
H3918 C3924 0.930 . S
H3919 C3928 0.930 . S
H3920 C3933 0.929 . S
H3921 C3931 0.929 . S
H3922 C3926 0.929 . S
H3923 C3932 0.929 . S
C3924 H3918 0.930 . S
C3924 C3925 1.367 . S
C3924 C3932 1.378 . S
C3925 C3924 1.367 . S
C3925 C3933 1.433 . S
C3926 H3922 0.929 . S
C3926 C3928 1.378 . S
C3926 C3930 1.350 . S
C3927 C3930 1.463 . S
C3927 C3932 1.350 . S
C3927 N3935 1.427 . S
C3928 H3919 0.930 . S
C3928 C3926 1.378 . S
C3928 C3929 1.367 . S
C3929 C3928 1.367 . S
C3929 C3931 1.433 . S
C3930 C3926 1.350 . S
C3930 C3927 1.463 . S
C3930 N3934 1.427 . S
C3931 H3921 0.929 . S
C3931 C3929 1.433 . S
C3931 N3934 1.384 . S
C3932 H3923 0.929 . S
C3932 C3924 1.378 . S
C3932 C3927 1.350 . S
C3933 H3920 0.929 . S
C3933 C3925 1.433 . S
C3933 N3935 1.384 . S
N3934 C3930 1.427 . S
N3934 C3931 1.384 . S
N3935 C3927 1.427 . S
N3935 C3933 1.384 . S
H3936 C3942 0.930 . S
H3937 C3946 0.930 . S
H3938 C3951 0.929 . S
H3939 C3949 0.929 . S
H3940 C3944 0.929 . S
H3941 C3950 0.929 . S
C3942 H3936 0.930 . S
C3942 C3943 1.367 . S
C3942 C3950 1.378 . S
C3943 C3942 1.367 . S
C3943 C3951 1.433 . S
C3944 H3940 0.929 . S
C3944 C3946 1.378 . S
C3944 C3948 1.350 . S
C3945 C3948 1.463 . S
C3945 C3950 1.350 . S
C3945 N3953 1.427 . S
C3946 H3937 0.930 . S
C3946 C3944 1.378 . S
C3946 C3947 1.367 . S
C3947 C3946 1.367 . S
C3947 C3949 1.433 . S
C3948 C3944 1.350 . S
C3948 C3945 1.463 . S
C3948 N3952 1.427 . S
C3949 H3939 0.929 . S
C3949 C3947 1.433 . S
C3949 N3952 1.384 . S
C3950 H3941 0.929 . S
C3950 C3942 1.378 . S
C3950 C3945 1.350 . S
C3951 H3938 0.929 . S
C3951 C3943 1.433 . S
C3951 N3953 1.384 . S
N3952 C3948 1.427 . S
N3952 C3949 1.384 . S
N3953 C3945 1.427 . S
N3953 C3951 1.384 . S
H3954 C3960 0.930 . S
H3955 C3964 0.930 . S
H3956 C3969 0.929 . S
H3957 C3967 0.929 . S
H3958 C3962 0.929 . S
H3959 C3968 0.929 . S
C3960 H3954 0.930 . S
C3960 C3961 1.367 . S
C3960 C3968 1.378 . S
C3961 C3960 1.367 . S
C3961 C3969 1.433 . S
C3962 H3958 0.929 . S
C3962 C3964 1.378 . S
C3962 C3966 1.350 . S
C3963 C3966 1.463 . S
C3963 C3968 1.350 . S
C3963 N3971 1.427 . S
C3964 H3955 0.930 . S
C3964 C3962 1.378 . S
C3964 C3965 1.367 . S
C3965 C3964 1.367 . S
C3965 C3967 1.433 . S
C3966 C3962 1.350 . S
C3966 C3963 1.463 . S
C3966 N3970 1.427 . S
C3967 H3957 0.929 . S
C3967 C3965 1.433 . S
C3967 N3970 1.384 . S
C3968 H3959 0.929 . S
C3968 C3960 1.378 . S
C3968 C3963 1.350 . S
C3969 H3956 0.929 . S
C3969 C3961 1.433 . S
C3969 N3971 1.384 . S
N3970 C3966 1.427 . S
N3970 C3967 1.384 . S
N3971 C3963 1.427 . S
N3971 C3969 1.384 . S
H3972 C3978 0.930 . S
H3973 C3982 0.930 . S
H3974 C3987 0.929 . S
H3975 C3985 0.929 . S
H3976 C3980 0.929 . S
H3977 C3986 0.929 . S
C3978 H3972 0.930 . S
C3978 C3979 1.367 . S
C3978 C3986 1.378 . S
C3979 C3978 1.367 . S
C3979 C3987 1.433 . S
C3980 H3976 0.929 . S
C3980 C3982 1.378 . S
C3980 C3984 1.350 . S
C3981 C3984 1.463 . S
C3981 C3986 1.350 . S
C3981 N3989 1.427 . S
C3982 H3973 0.930 . S
C3982 C3980 1.378 . S
C3982 C3983 1.367 . S
C3983 C3982 1.367 . S
C3983 C3985 1.433 . S
C3984 C3980 1.350 . S
C3984 C3981 1.463 . S
C3984 N3988 1.427 . S
C3985 H3975 0.929 . S
C3985 C3983 1.433 . S
C3985 N3988 1.384 . S
C3986 H3977 0.929 . S
C3986 C3978 1.378 . S
C3986 C3981 1.350 . S
C3987 H3974 0.929 . S
C3987 C3979 1.433 . S
C3987 N3989 1.384 . S
N3988 C3984 1.427 . S
N3988 C3985 1.384 . S
N3989 C3981 1.427 . S
N3989 C3987 1.384 . S
H3990 C3996 0.930 . S
H3991 C4000 0.930 . S
H3992 C4005 0.929 . S
H3993 C4003 0.929 . S
H3994 C3998 0.929 . S
H3995 C4004 0.929 . S
C3996 H3990 0.930 . S
C3996 C3997 1.367 . S
C3996 C4004 1.378 . S
C3997 C3996 1.367 . S
C3997 C4005 1.433 . S
C3998 H3994 0.929 . S
C3998 C4000 1.378 . S
C3998 C4002 1.350 . S
C3999 C4002 1.463 . S
C3999 C4004 1.350 . S
C3999 N4007 1.427 . S
C4000 H3991 0.930 . S
C4000 C3998 1.378 . S
C4000 C4001 1.367 . S
C4001 C4000 1.367 . S
C4001 C4003 1.433 . S
C4002 C3998 1.350 . S
C4002 C3999 1.463 . S
C4002 N4006 1.427 . S
C4003 H3993 0.929 . S
C4003 C4001 1.433 . S
C4003 N4006 1.384 . S
C4004 H3995 0.929 . S
C4004 C3996 1.378 . S
C4004 C3999 1.350 . S
C4005 H3992 0.929 . S
C4005 C3997 1.433 . S
C4005 N4007 1.384 . S
N4006 C4002 1.427 . S
N4006 C4003 1.384 . S
N4007 C3999 1.427 . S
N4007 C4005 1.384 . S
H4008 C4014 0.930 . S
H4009 C4018 0.930 . S
H4010 C4023 0.929 . S
H4011 C4021 0.929 . S
H4012 C4016 0.929 . S
H4013 C4022 0.929 . S
C4014 H4008 0.930 . S
C4014 C4015 1.367 . S
C4014 C4022 1.378 . S
C4015 C4014 1.367 . S
C4015 C4023 1.433 . S
C4016 H4012 0.929 . S
C4016 C4018 1.378 . S
C4016 C4020 1.350 . S
C4017 C4020 1.463 . S
C4017 C4022 1.350 . S
C4017 N4025 1.427 . S
C4018 H4009 0.930 . S
C4018 C4016 1.378 . S
C4018 C4019 1.367 . S
C4019 C4018 1.367 . S
C4019 C4021 1.433 . S
C4020 C4016 1.350 . S
C4020 C4017 1.463 . S
C4020 N4024 1.427 . S
C4021 H4011 0.929 . S
C4021 C4019 1.433 . S
C4021 N4024 1.384 . S
C4022 H4013 0.929 . S
C4022 C4014 1.378 . S
C4022 C4017 1.350 . S
C4023 H4010 0.929 . S
C4023 C4015 1.433 . S
C4023 N4025 1.384 . S
N4024 C4020 1.427 . S
N4024 C4021 1.384 . S
N4025 C4017 1.427 . S
N4025 C4023 1.384 . S
H4026 C4032 0.930 . S
H4027 C4036 0.930 . S
H4028 C4041 0.929 . S
H4029 C4039 0.929 . S
H4030 C4034 0.929 . S
H4031 C4040 0.929 . S
C4032 H4026 0.930 . S
C4032 C4033 1.367 . S
C4032 C4040 1.378 . S
C4033 C4032 1.367 . S
C4033 C4041 1.433 . S
C4034 H4030 0.929 . S
C4034 C4036 1.378 . S
C4034 C4038 1.350 . S
C4035 C4038 1.463 1_455 S
C4035 C4040 1.350 . S
C4035 N4043 1.427 . S
C4036 H4027 0.930 . S
C4036 C4034 1.378 . S
C4036 C4037 1.367 . S
C4037 C4036 1.367 . S
C4037 C4039 1.433 . S
C4038 C4034 1.350 . S
C4038 C4035 1.463 1_655 S
C4038 N4042 1.427 . S
C4039 H4029 0.929 . S
C4039 C4037 1.433 . S
C4039 N4042 1.384 . S
C4040 H4031 0.929 . S
C4040 C4032 1.378 . S
C4040 C4035 1.350 . S
C4041 H4028 0.929 . S
C4041 C4033 1.433 . S
C4041 N4043 1.384 . S
N4042 C4038 1.427 . S
N4042 C4039 1.384 . S
N4043 C4035 1.427 . S
N4043 C4041 1.384 . S
H4044 C4050 0.930 . S
H4045 C4054 0.930 . S
H4046 C4059 0.929 . S
H4047 C4057 0.929 . S
H4048 C4052 0.929 . S
H4049 C4058 0.929 . S
C4050 H4044 0.930 . S
C4050 C4051 1.367 . S
C4050 C4058 1.378 . S
C4051 C4050 1.367 . S
C4051 C4059 1.433 . S
C4052 H4048 0.929 . S
C4052 C4054 1.378 . S
C4052 C4056 1.350 . S
C4053 C4056 1.463 . S
C4053 C4058 1.350 . S
C4053 N4061 1.427 . S
C4054 H4045 0.930 . S
C4054 C4052 1.378 . S
C4054 C4055 1.367 . S
C4055 C4054 1.367 . S
C4055 C4057 1.433 . S
C4056 C4052 1.350 . S
C4056 C4053 1.463 . S
C4056 N4060 1.427 . S
C4057 H4047 0.929 . S
C4057 C4055 1.433 . S
C4057 N4060 1.384 . S
C4058 H4049 0.929 . S
C4058 C4050 1.378 . S
C4058 C4053 1.350 . S
C4059 H4046 0.929 . S
C4059 C4051 1.433 . S
C4059 N4061 1.384 . S
N4060 C4056 1.427 . S
N4060 C4057 1.384 . S
N4061 C4053 1.427 . S
N4061 C4059 1.384 . S
H4062 C4068 0.930 . S
H4063 C4072 0.930 . S
H4064 C4077 0.929 . S
H4065 C4075 0.929 . S
H4066 C4070 0.929 . S
H4067 C4076 0.929 . S
C4068 H4062 0.930 . S
C4068 C4069 1.367 . S
C4068 C4076 1.378 . S
C4069 C4068 1.367 . S
C4069 C4077 1.433 . S
C4070 H4066 0.929 . S
C4070 C4072 1.378 . S
C4070 C4074 1.350 . S
C4071 C4074 1.463 . S
C4071 C4076 1.350 . S
C4071 N4079 1.427 . S
C4072 H4063 0.930 . S
C4072 C4070 1.378 . S
C4072 C4073 1.367 . S
C4073 C4072 1.367 . S
C4073 C4075 1.433 . S
C4074 C4070 1.350 . S
C4074 C4071 1.463 . S
C4074 N4078 1.427 . S
C4075 H4065 0.929 . S
C4075 C4073 1.433 . S
C4075 N4078 1.384 . S
C4076 H4067 0.929 . S
C4076 C4068 1.378 . S
C4076 C4071 1.350 . S
C4077 H4064 0.929 . S
C4077 C4069 1.433 . S
C4077 N4079 1.384 . S
N4078 C4074 1.427 . S
N4078 C4075 1.384 . S
N4079 C4071 1.427 . S
N4079 C4077 1.384 . S
H4080 C4086 0.930 . S
H4081 C4090 0.930 . S
H4082 C4095 0.929 . S
H4083 C4093 0.929 . S
H4084 C4088 0.929 . S
H4085 C4094 0.929 . S
C4086 H4080 0.930 . S
C4086 C4087 1.367 . S
C4086 C4094 1.378 . S
C4087 C4086 1.367 . S
C4087 C4095 1.433 . S
C4088 H4084 0.929 . S
C4088 C4090 1.378 . S
C4088 C4092 1.350 . S
C4089 C4092 1.463 . S
C4089 C4094 1.350 . S
C4089 N4097 1.427 . S
C4090 H4081 0.930 . S
C4090 C4088 1.378 . S
C4090 C4091 1.367 . S
C4091 C4090 1.367 . S
C4091 C4093 1.433 . S
C4092 C4088 1.350 . S
C4092 C4089 1.463 . S
C4092 N4096 1.427 . S
C4093 H4083 0.929 . S
C4093 C4091 1.433 . S
C4093 N4096 1.384 . S
C4094 H4085 0.929 . S
C4094 C4086 1.378 . S
C4094 C4089 1.350 . S
C4095 H4082 0.929 . S
C4095 C4087 1.433 . S
C4095 N4097 1.384 . S
N4096 C4092 1.427 . S
N4096 C4093 1.384 . S
N4097 C4089 1.427 . S
N4097 C4095 1.384 . S
H4098 C4104 0.930 . S
H4099 C4108 0.930 . S
H4100 C4113 0.929 . S
H4101 C4111 0.929 . S
H4102 C4106 0.929 . S
H4103 C4112 0.929 . S
C4104 H4098 0.930 . S
C4104 C4105 1.367 . S
C4104 C4112 1.378 . S
C4105 C4104 1.367 . S
C4105 C4113 1.433 . S
C4106 H4102 0.929 . S
C4106 C4108 1.378 . S
C4106 C4110 1.350 . S
C4107 C4110 1.463 . S
C4107 C4112 1.350 . S
C4107 N4115 1.427 . S
C4108 H4099 0.930 . S
C4108 C4106 1.378 . S
C4108 C4109 1.367 . S
C4109 C4108 1.367 . S
C4109 C4111 1.433 . S
C4110 C4106 1.350 . S
C4110 C4107 1.463 . S
C4110 N4114 1.427 . S
C4111 H4101 0.929 . S
C4111 C4109 1.433 . S
C4111 N4114 1.384 . S
C4112 H4103 0.929 . S
C4112 C4104 1.378 . S
C4112 C4107 1.350 . S
C4113 H4100 0.929 . S
C4113 C4105 1.433 . S
C4113 N4115 1.384 . S
N4114 C4110 1.427 . S
N4114 C4111 1.384 . S
N4115 C4107 1.427 . S
N4115 C4113 1.384 . S
H4116 C4122 0.930 . S
H4117 C4126 0.930 . S
H4118 C4131 0.929 . S
H4119 C4129 0.929 . S
H4120 C4124 0.929 . S
H4121 C4130 0.929 . S
C4122 H4116 0.930 . S
C4122 C4123 1.367 . S
C4122 C4130 1.378 . S
C4123 C4122 1.367 . S
C4123 C4131 1.433 . S
C4124 H4120 0.929 . S
C4124 C4126 1.378 . S
C4124 C4128 1.350 . S
C4125 C4128 1.463 . S
C4125 C4130 1.350 . S
C4125 N4133 1.427 . S
C4126 H4117 0.930 . S
C4126 C4124 1.378 . S
C4126 C4127 1.367 . S
C4127 C4126 1.367 . S
C4127 C4129 1.433 . S
C4128 C4124 1.350 . S
C4128 C4125 1.463 . S
C4128 N4132 1.427 . S
C4129 H4119 0.929 . S
C4129 C4127 1.433 . S
C4129 N4132 1.384 . S
C4130 H4121 0.929 . S
C4130 C4122 1.378 . S
C4130 C4125 1.350 . S
C4131 H4118 0.929 . S
C4131 C4123 1.433 . S
C4131 N4133 1.384 . S
N4132 C4128 1.427 . S
N4132 C4129 1.384 . S
N4133 C4125 1.427 . S
N4133 C4131 1.384 . S
H4134 C4140 0.930 . S
H4135 C4144 0.930 . S
H4136 C4149 0.929 . S
H4137 C4147 0.929 . S
H4138 C4142 0.929 . S
H4139 C4148 0.929 . S
C4140 H4134 0.930 . S
C4140 C4141 1.367 . S
C4140 C4148 1.378 . S
C4141 C4140 1.367 . S
C4141 C4149 1.433 . S
C4142 H4138 0.929 . S
C4142 C4144 1.378 . S
C4142 C4146 1.350 . S
C4143 C4146 1.463 . S
C4143 C4148 1.350 . S
C4143 N4151 1.427 . S
C4144 H4135 0.930 . S
C4144 C4142 1.378 . S
C4144 C4145 1.367 . S
C4145 C4144 1.367 . S
C4145 C4147 1.433 . S
C4146 C4142 1.350 . S
C4146 C4143 1.463 . S
C4146 N4150 1.427 . S
C4147 H4137 0.929 . S
C4147 C4145 1.433 . S
C4147 N4150 1.384 . S
C4148 H4139 0.929 . S
C4148 C4140 1.378 . S
C4148 C4143 1.350 . S
C4149 H4136 0.929 . S
C4149 C4141 1.433 . S
C4149 N4151 1.384 . S
N4150 C4146 1.427 . S
N4150 C4147 1.384 . S
N4151 C4143 1.427 . S
N4151 C4149 1.384 . S
H4152 C4158 0.930 . S
H4153 C4162 0.930 . S
H4154 C4167 0.929 . S
H4155 C4165 0.929 . S
H4156 C4160 0.929 . S
H4157 C4166 0.929 . S
C4158 H4152 0.930 . S
C4158 C4159 1.367 . S
C4158 C4166 1.378 . S
C4159 C4158 1.367 . S
C4159 C4167 1.433 . S
C4160 H4156 0.929 . S
C4160 C4162 1.378 . S
C4160 C4164 1.350 . S
C4161 C4164 1.463 1_554 S
C4161 C4166 1.350 . S
C4161 N4169 1.427 . S
C4162 H4153 0.930 . S
C4162 C4160 1.378 . S
C4162 C4163 1.367 . S
C4163 C4162 1.367 . S
C4163 C4165 1.433 . S
C4164 C4160 1.350 . S
C4164 C4161 1.463 1_556 S
C4164 N4168 1.427 . S
C4165 H4155 0.929 . S
C4165 C4163 1.433 . S
C4165 N4168 1.384 . S
C4166 H4157 0.929 . S
C4166 C4158 1.378 . S
C4166 C4161 1.350 . S
C4167 H4154 0.929 . S
C4167 C4159 1.433 . S
C4167 N4169 1.384 . S
N4168 C4164 1.427 . S
N4168 C4165 1.384 . S
N4169 C4161 1.427 . S
N4169 C4167 1.384 . S
H4170 C4176 0.930 . S
H4171 C4180 0.930 . S
H4172 C4185 0.929 . S
H4173 C4183 0.929 . S
H4174 C4178 0.929 . S
H4175 C4184 0.929 . S
C4176 H4170 0.930 . S
C4176 C4177 1.367 . S
C4176 C4184 1.378 . S
C4177 C4176 1.367 . S
C4177 C4185 1.433 . S
C4178 H4174 0.929 . S
C4178 C4180 1.378 . S
C4178 C4182 1.350 . S
C4179 C4182 1.463 . S
C4179 C4184 1.350 . S
C4179 N4187 1.427 . S
C4180 H4171 0.930 . S
C4180 C4178 1.378 . S
C4180 C4181 1.367 . S
C4181 C4180 1.367 . S
C4181 C4183 1.433 . S
C4182 C4178 1.350 . S
C4182 C4179 1.463 . S
C4182 N4186 1.427 . S
C4183 H4173 0.929 . S
C4183 C4181 1.433 . S
C4183 N4186 1.384 . S
C4184 H4175 0.929 . S
C4184 C4176 1.378 . S
C4184 C4179 1.350 . S
C4185 H4172 0.929 . S
C4185 C4177 1.433 . S
C4185 N4187 1.384 . S
N4186 C4182 1.427 . S
N4186 C4183 1.384 . S
N4187 C4179 1.427 . S
N4187 C4185 1.384 . S
H4188 C4194 0.930 . S
H4189 C4198 0.930 . S
H4190 C4203 0.929 . S
H4191 C4201 0.929 . S
H4192 C4196 0.929 . S
H4193 C4202 0.929 . S
C4194 H4188 0.930 . S
C4194 C4195 1.367 . S
C4194 C4202 1.378 . S
C4195 C4194 1.367 . S
C4195 C4203 1.433 . S
C4196 H4192 0.929 . S
C4196 C4198 1.378 . S
C4196 C4200 1.350 . S
C4197 C4200 1.463 . S
C4197 C4202 1.350 . S
C4197 N4205 1.427 . S
C4198 H4189 0.930 . S
C4198 C4196 1.378 . S
C4198 C4199 1.367 . S
C4199 C4198 1.367 . S
C4199 C4201 1.433 . S
C4200 C4196 1.350 . S
C4200 C4197 1.463 . S
C4200 N4204 1.427 . S
C4201 H4191 0.929 . S
C4201 C4199 1.433 . S
C4201 N4204 1.384 . S
C4202 H4193 0.929 . S
C4202 C4194 1.378 . S
C4202 C4197 1.350 . S
C4203 H4190 0.929 . S
C4203 C4195 1.433 . S
C4203 N4205 1.384 . S
N4204 C4200 1.427 . S
N4204 C4201 1.384 . S
N4205 C4197 1.427 . S
N4205 C4203 1.384 . S
H4206 C4212 0.930 . S
H4207 C4216 0.930 . S
H4208 C4221 0.929 . S
H4209 C4219 0.929 . S
H4210 C4214 0.929 . S
H4211 C4220 0.929 . S
C4212 H4206 0.930 . S
C4212 C4213 1.367 . S
C4212 C4220 1.378 . S
C4213 C4212 1.367 . S
C4213 C4221 1.433 . S
C4214 H4210 0.929 . S
C4214 C4216 1.378 . S
C4214 C4218 1.350 . S
C4215 C4218 1.463 1_556 S
C4215 C4220 1.350 . S
C4215 N4223 1.427 . S
C4216 H4207 0.930 . S
C4216 C4214 1.378 . S
C4216 C4217 1.367 . S
C4217 C4216 1.367 . S
C4217 C4219 1.433 . S
C4218 C4214 1.350 . S
C4218 C4215 1.463 1_554 S
C4218 N4222 1.427 . S
C4219 H4209 0.929 . S
C4219 C4217 1.433 . S
C4219 N4222 1.384 . S
C4220 H4211 0.929 . S
C4220 C4212 1.378 . S
C4220 C4215 1.350 . S
C4221 H4208 0.929 . S
C4221 C4213 1.433 . S
C4221 N4223 1.384 . S
N4222 C4218 1.427 . S
N4222 C4219 1.384 . S
N4223 C4215 1.427 . S
N4223 C4221 1.384 . S
H4224 C4230 0.930 . S
H4225 C4234 0.930 . S
H4226 C4239 0.929 . S
H4227 C4237 0.929 . S
H4228 C4232 0.929 . S
H4229 C4238 0.929 . S
C4230 H4224 0.930 . S
C4230 C4231 1.367 . S
C4230 C4238 1.378 . S
C4231 C4230 1.367 . S
C4231 C4239 1.433 . S
C4232 H4228 0.929 . S
C4232 C4234 1.378 . S
C4232 C4236 1.350 . S
C4233 C4236 1.463 . S
C4233 C4238 1.350 . S
C4233 N4241 1.427 . S
C4234 H4225 0.930 . S
C4234 C4232 1.378 . S
C4234 C4235 1.367 . S
C4235 C4234 1.367 . S
C4235 C4237 1.433 . S
C4236 C4232 1.350 . S
C4236 C4233 1.463 . S
C4236 N4240 1.427 . S
C4237 H4227 0.929 . S
C4237 C4235 1.433 . S
C4237 N4240 1.384 . S
C4238 H4229 0.929 . S
C4238 C4230 1.378 . S
C4238 C4233 1.350 . S
C4239 H4226 0.929 . S
C4239 C4231 1.433 . S
C4239 N4241 1.384 . S
N4240 C4236 1.427 . S
N4240 C4237 1.384 . S
N4241 C4233 1.427 . S
N4241 C4239 1.384 . S
H4242 C4248 0.930 . S
H4243 C4252 0.930 . S
H4244 C4257 0.929 . S
H4245 C4255 0.929 . S
H4246 C4250 0.929 . S
H4247 C4256 0.929 . S
C4248 H4242 0.930 . S
C4248 C4249 1.367 . S
C4248 C4256 1.378 . S
C4249 C4248 1.367 . S
C4249 C4257 1.433 . S
C4250 H4246 0.929 . S
C4250 C4252 1.378 . S
C4250 C4254 1.350 . S
C4251 C4254 1.463 . S
C4251 C4256 1.350 . S
C4251 N4259 1.427 . S
C4252 H4243 0.930 . S
C4252 C4250 1.378 . S
C4252 C4253 1.367 . S
C4253 C4252 1.367 . S
C4253 C4255 1.433 . S
C4254 C4250 1.350 . S
C4254 C4251 1.463 . S
C4254 N4258 1.427 . S
C4255 H4245 0.929 . S
C4255 C4253 1.433 . S
C4255 N4258 1.384 . S
C4256 H4247 0.929 . S
C4256 C4248 1.378 . S
C4256 C4251 1.350 . S
C4257 H4244 0.929 . S
C4257 C4249 1.433 . S
C4257 N4259 1.384 . S
N4258 C4254 1.427 . S
N4258 C4255 1.384 . S
N4259 C4251 1.427 . S
N4259 C4257 1.384 . S
H4260 C4266 0.930 . S
H4261 C4270 0.930 . S
H4262 C4275 0.929 . S
H4263 C4273 0.929 . S
H4264 C4268 0.929 . S
H4265 C4274 0.929 . S
C4266 H4260 0.930 . S
C4266 C4267 1.367 . S
C4266 C4274 1.378 . S
C4267 C4266 1.367 . S
C4267 C4275 1.433 . S
C4268 H4264 0.929 . S
C4268 C4270 1.378 . S
C4268 C4272 1.350 . S
C4269 C4272 1.463 . S
C4269 C4274 1.350 . S
C4269 N4277 1.427 . S
C4270 H4261 0.930 . S
C4270 C4268 1.378 . S
C4270 C4271 1.367 . S
C4271 C4270 1.367 . S
C4271 C4273 1.433 . S
C4272 C4268 1.350 . S
C4272 C4269 1.463 . S
C4272 N4276 1.427 . S
C4273 H4263 0.929 . S
C4273 C4271 1.433 . S
C4273 N4276 1.384 . S
C4274 H4265 0.929 . S
C4274 C4266 1.378 . S
C4274 C4269 1.350 . S
C4275 H4262 0.929 . S
C4275 C4267 1.433 . S
C4275 N4277 1.384 . S
N4276 C4272 1.427 . S
N4276 C4273 1.384 . S
N4277 C4269 1.427 . S
N4277 C4275 1.384 . S
H4278 C4284 0.930 . S
H4279 C4288 0.930 . S
H4280 C4293 0.929 . S
H4281 C4291 0.929 . S
H4282 C4286 0.929 . S
H4283 C4292 0.929 . S
C4284 H4278 0.930 . S
C4284 C4285 1.367 . S
C4284 C4292 1.378 . S
C4285 C4284 1.367 . S
C4285 C4293 1.433 . S
C4286 H4282 0.929 . S
C4286 C4288 1.378 . S
C4286 C4290 1.350 . S
C4287 C4290 1.463 . S
C4287 C4292 1.350 . S
C4287 N4295 1.427 . S
C4288 H4279 0.930 . S
C4288 C4286 1.378 . S
C4288 C4289 1.367 . S
C4289 C4288 1.367 . S
C4289 C4291 1.433 . S
C4290 C4286 1.350 . S
C4290 C4287 1.463 . S
C4290 N4294 1.427 . S
C4291 H4281 0.929 . S
C4291 C4289 1.433 . S
C4291 N4294 1.384 . S
C4292 H4283 0.929 . S
C4292 C4284 1.378 . S
C4292 C4287 1.350 . S
C4293 H4280 0.929 . S
C4293 C4285 1.433 . S
C4293 N4295 1.384 . S
N4294 C4290 1.427 . S
N4294 C4291 1.384 . S
N4295 C4287 1.427 . S
N4295 C4293 1.384 . S
H4296 C4302 0.930 . S
H4297 C4306 0.930 . S
H4298 C4311 0.929 . S
H4299 C4309 0.929 . S
H4300 C4304 0.929 . S
H4301 C4310 0.929 . S
C4302 H4296 0.930 . S
C4302 C4303 1.367 . S
C4302 C4310 1.378 . S
C4303 C4302 1.367 . S
C4303 C4311 1.433 . S
C4304 H4300 0.929 . S
C4304 C4306 1.378 . S
C4304 C4308 1.377 . S
C4305 C4308 1.430 1_565 S
C4305 C4310 1.350 . S
C4305 N4313 1.427 . S
C4306 H4297 0.930 . S
C4306 C4304 1.378 . S
C4306 C4307 1.367 . S
C4307 C4306 1.367 . S
C4307 C4309 1.433 . S
C4308 C4304 1.377 . S
C4308 C4305 1.430 1_545 S
C4308 N4312 1.431 . S
C4309 H4299 0.929 . S
C4309 C4307 1.433 . S
C4309 N4312 1.384 . S
C4310 H4301 0.929 . S
C4310 C4302 1.378 . S
C4310 C4305 1.350 . S
C4311 H4298 0.929 . S
C4311 C4303 1.433 . S
C4311 N4313 1.384 . S
N4312 C4308 1.431 . S
N4312 C4309 1.384 . S
N4313 C4305 1.427 . S
N4313 C4311 1.384 . S
H4314 C4320 0.930 . S
H4315 C4324 0.930 . S
H4316 C4329 0.929 . S
H4317 C4327 0.929 . S
H4318 C4322 0.929 . S
H4319 C4328 0.929 . S
C4320 H4314 0.930 . S
C4320 C4321 1.367 . S
C4320 C4328 1.378 . S
C4321 C4320 1.367 . S
C4321 C4329 1.433 . S
C4322 H4318 0.929 . S
C4322 C4324 1.378 . S
C4322 C4326 1.350 . S
C4323 C4326 1.463 . S
C4323 C4328 1.350 . S
C4323 N4331 1.427 . S
C4324 H4315 0.930 . S
C4324 C4322 1.378 . S
C4324 C4325 1.367 . S
C4325 C4324 1.367 . S
C4325 C4327 1.433 . S
C4326 C4322 1.350 . S
C4326 C4323 1.463 . S
C4326 N4330 1.427 . S
C4327 H4317 0.929 . S
C4327 C4325 1.433 . S
C4327 N4330 1.384 . S
C4328 H4319 0.929 . S
C4328 C4320 1.378 . S
C4328 C4323 1.350 . S
C4329 H4316 0.929 . S
C4329 C4321 1.433 . S
C4329 N4331 1.384 . S
N4330 C4326 1.427 . S
N4330 C4327 1.384 . S
N4331 C4323 1.427 . S
N4331 C4329 1.384 . S
H4332 C4338 0.930 . S
H4333 C4342 0.930 . S
H4334 C4347 0.929 . S
H4335 C4345 0.929 . S
H4336 C4340 0.929 . S
H4337 C4346 0.929 . S
C4338 H4332 0.930 . S
C4338 C4339 1.367 . S
C4338 C4346 1.378 . S
C4339 C4338 1.367 . S
C4339 C4347 1.433 . S
C4340 H4336 0.929 . S
C4340 C4342 1.378 . S
C4340 C4344 1.350 . S
C4341 C4344 1.463 . S
C4341 C4346 1.350 . S
C4341 N4349 1.427 . S
C4342 H4333 0.930 . S
C4342 C4340 1.378 . S
C4342 C4343 1.367 . S
C4343 C4342 1.367 . S
C4343 C4345 1.433 . S
C4344 C4340 1.350 . S
C4344 C4341 1.463 . S
C4344 N4348 1.427 . S
C4345 H4335 0.929 . S
C4345 C4343 1.433 . S
C4345 N4348 1.384 . S
C4346 H4337 0.929 . S
C4346 C4338 1.378 . S
C4346 C4341 1.350 . S
C4347 H4334 0.929 . S
C4347 C4339 1.433 . S
C4347 N4349 1.384 . S
N4348 C4344 1.427 . S
N4348 C4345 1.384 . S
N4349 C4341 1.427 . S
N4349 C4347 1.384 . S
H4350 C4356 0.930 . S
H4351 C4360 0.930 . S
H4352 C4365 0.929 . S
H4353 C4363 0.929 . S
H4354 C4358 0.929 . S
H4355 C4364 0.929 . S
C4356 H4350 0.930 . S
C4356 C4357 1.367 . S
C4356 C4364 1.378 . S
C4357 C4356 1.367 . S
C4357 C4365 1.433 . S
C4358 H4354 0.929 . S
C4358 C4360 1.378 . S
C4358 C4362 1.350 . S
C4359 C4362 1.463 1_455 S
C4359 C4364 1.350 . S
C4359 N4367 1.427 . S
C4360 H4351 0.930 . S
C4360 C4358 1.378 . S
C4360 C4361 1.367 . S
C4361 C4360 1.367 . S
C4361 C4363 1.433 . S
C4362 C4358 1.350 . S
C4362 C4359 1.463 1_655 S
C4362 N4366 1.427 . S
C4363 H4353 0.929 . S
C4363 C4361 1.433 . S
C4363 N4366 1.384 . S
C4364 H4355 0.929 . S
C4364 C4356 1.378 . S
C4364 C4359 1.350 . S
C4365 H4352 0.929 . S
C4365 C4357 1.433 . S
C4365 N4367 1.384 . S
N4366 C4362 1.427 . S
N4366 C4363 1.384 . S
N4367 C4359 1.427 . S
N4367 C4365 1.384 . S
H4368 C4374 0.930 . S
H4369 C4378 0.930 . S
H4370 C4383 0.929 . S
H4371 C4381 0.929 . S
H4372 C4376 0.929 . S
H4373 C4382 0.929 . S
C4374 H4368 0.930 . S
C4374 C4375 1.367 . S
C4374 C4382 1.378 . S
C4375 C4374 1.367 . S
C4375 C4383 1.433 . S
C4376 H4372 0.929 . S
C4376 C4378 1.378 . S
C4376 C4380 1.350 . S
C4377 C4380 1.463 . S
C4377 C4382 1.350 . S
C4377 N4385 1.427 . S
C4378 H4369 0.930 . S
C4378 C4376 1.378 . S
C4378 C4379 1.367 . S
C4379 C4378 1.367 . S
C4379 C4381 1.433 . S
C4380 C4376 1.350 . S
C4380 C4377 1.463 . S
C4380 N4384 1.427 . S
C4381 H4371 0.929 . S
C4381 C4379 1.433 . S
C4381 N4384 1.384 . S
C4382 H4373 0.929 . S
C4382 C4374 1.378 . S
C4382 C4377 1.350 . S
C4383 H4370 0.929 . S
C4383 C4375 1.433 . S
C4383 N4385 1.384 . S
N4384 C4380 1.427 . S
N4384 C4381 1.384 . S
N4385 C4377 1.427 . S
N4385 C4383 1.384 . S
H4386 C4392 0.930 . S
H4387 C4396 0.930 . S
H4388 C4401 0.929 . S
H4389 C4399 0.929 . S
H4390 C4394 0.929 . S
H4391 C4400 0.929 . S
C4392 H4386 0.930 . S
C4392 C4393 1.367 . S
C4392 C4400 1.378 . S
C4393 C4392 1.367 . S
C4393 C4401 1.433 . S
C4394 H4390 0.929 . S
C4394 C4396 1.378 . S
C4394 C4398 1.350 . S
C4395 C4398 1.463 . S
C4395 C4400 1.350 . S
C4395 N4403 1.427 . S
C4396 H4387 0.930 . S
C4396 C4394 1.378 . S
C4396 C4397 1.367 . S
C4397 C4396 1.367 . S
C4397 C4399 1.433 . S
C4398 C4394 1.350 . S
C4398 C4395 1.463 . S
C4398 N4402 1.427 . S
C4399 H4389 0.929 . S
C4399 C4397 1.433 . S
C4399 N4402 1.384 . S
C4400 H4391 0.929 . S
C4400 C4392 1.378 . S
C4400 C4395 1.350 . S
C4401 H4388 0.929 . S
C4401 C4393 1.433 . S
C4401 N4403 1.384 . S
N4402 C4398 1.427 . S
N4402 C4399 1.384 . S
N4403 C4395 1.427 . S
N4403 C4401 1.384 . S
H4404 C4410 0.930 . S
H4405 C4414 0.930 . S
H4406 C4419 0.929 . S
H4407 C4417 0.929 . S
H4408 C4412 0.929 . S
H4409 C4418 0.929 . S
C4410 H4404 0.930 . S
C4410 C4411 1.367 . S
C4410 C4418 1.378 . S
C4411 C4410 1.367 . S
C4411 C4419 1.433 . S
C4412 H4408 0.929 . S
C4412 C4414 1.378 . S
C4412 C4416 1.350 . S
C4413 C4416 1.463 . S
C4413 C4418 1.350 . S
C4413 N4421 1.427 . S
C4414 H4405 0.930 . S
C4414 C4412 1.378 . S
C4414 C4415 1.367 . S
C4415 C4414 1.367 . S
C4415 C4417 1.433 . S
C4416 C4412 1.350 . S
C4416 C4413 1.463 . S
C4416 N4420 1.427 . S
C4417 H4407 0.929 . S
C4417 C4415 1.433 . S
C4417 N4420 1.384 . S
C4418 H4409 0.929 . S
C4418 C4410 1.378 . S
C4418 C4413 1.350 . S
C4419 H4406 0.929 . S
C4419 C4411 1.433 . S
C4419 N4421 1.384 . S
N4420 C4416 1.427 . S
N4420 C4417 1.384 . S
N4421 C4413 1.427 . S
N4421 C4419 1.384 . S
H4422 C4428 0.930 . S
H4423 C4432 0.930 . S
H4424 C4437 0.929 . S
H4425 C4435 0.929 . S
H4426 C4430 0.929 . S
H4427 C4436 0.929 . S
C4428 H4422 0.930 . S
C4428 C4429 1.367 . S
C4428 C4436 1.378 . S
C4429 C4428 1.367 . S
C4429 C4437 1.433 . S
C4430 H4426 0.929 . S
C4430 C4432 1.378 . S
C4430 C4434 1.350 . S
C4431 C4434 1.463 . S
C4431 C4436 1.350 . S
C4431 N4439 1.427 . S
C4432 H4423 0.930 . S
C4432 C4430 1.378 . S
C4432 C4433 1.367 . S
C4433 C4432 1.367 . S
C4433 C4435 1.433 . S
C4434 C4430 1.350 . S
C4434 C4431 1.463 . S
C4434 N4438 1.427 . S
C4435 H4425 0.929 . S
C4435 C4433 1.433 . S
C4435 N4438 1.384 . S
C4436 H4427 0.929 . S
C4436 C4428 1.378 . S
C4436 C4431 1.350 . S
C4437 H4424 0.929 . S
C4437 C4429 1.433 . S
C4437 N4439 1.384 . S
N4438 C4434 1.427 . S
N4438 C4435 1.384 . S
N4439 C4431 1.427 . S
N4439 C4437 1.384 . S
H4440 C4446 0.930 . S
H4441 C4450 0.930 . S
H4442 C4455 0.929 . S
H4443 C4453 0.929 . S
H4444 C4448 0.929 . S
H4445 C4454 0.929 . S
C4446 H4440 0.930 . S
C4446 C4447 1.367 . S
C4446 C4454 1.378 . S
C4447 C4446 1.367 . S
C4447 C4455 1.433 . S
C4448 H4444 0.929 . S
C4448 C4450 1.378 . S
C4448 C4452 1.350 . S
C4449 C4452 1.463 . S
C4449 C4454 1.350 . S
C4449 N4457 1.427 . S
C4450 H4441 0.930 . S
C4450 C4448 1.378 . S
C4450 C4451 1.367 . S
C4451 C4450 1.367 . S
C4451 C4453 1.433 . S
C4452 C4448 1.350 . S
C4452 C4449 1.463 . S
C4452 N4456 1.427 . S
C4453 H4443 0.929 . S
C4453 C4451 1.433 . S
C4453 N4456 1.384 . S
C4454 H4445 0.929 . S
C4454 C4446 1.378 . S
C4454 C4449 1.350 . S
C4455 H4442 0.929 . S
C4455 C4447 1.433 . S
C4455 N4457 1.384 . S
N4456 C4452 1.427 . S
N4456 C4453 1.384 . S
N4457 C4449 1.427 . S
N4457 C4455 1.384 . S
H4458 C4464 0.930 . S
H4459 C4468 0.930 . S
H4460 C4473 0.929 . S
H4461 C4471 0.929 . S
H4462 C4466 0.929 . S
H4463 C4472 0.929 . S
C4464 H4458 0.930 . S
C4464 C4465 1.367 . S
C4464 C4472 1.378 . S
C4465 C4464 1.367 . S
C4465 C4473 1.433 . S
C4466 H4462 0.929 . S
C4466 C4468 1.378 . S
C4466 C4470 1.350 . S
C4467 C4470 1.463 . S
C4467 C4472 1.350 . S
C4467 N4475 1.427 . S
C4468 H4459 0.930 . S
C4468 C4466 1.378 . S
C4468 C4469 1.367 . S
C4469 C4468 1.367 . S
C4469 C4471 1.433 . S
C4470 C4466 1.350 . S
C4470 C4467 1.463 . S
C4470 N4474 1.427 . S
C4471 H4461 0.929 . S
C4471 C4469 1.433 . S
C4471 N4474 1.384 . S
C4472 H4463 0.929 . S
C4472 C4464 1.378 . S
C4472 C4467 1.350 . S
C4473 H4460 0.929 . S
C4473 C4465 1.433 . S
C4473 N4475 1.384 . S
N4474 C4470 1.427 . S
N4474 C4471 1.384 . S
N4475 C4467 1.427 . S
N4475 C4473 1.384 . S
H4476 C4482 0.930 . S
H4477 C4486 0.930 . S
H4478 C4491 0.929 . S
H4479 C4489 0.929 . S
H4480 C4484 0.929 . S
H4481 C4490 0.929 . S
C4482 H4476 0.930 . S
C4482 C4483 1.367 . S
C4482 C4490 1.378 . S
C4483 C4482 1.367 . S
C4483 C4491 1.433 . S
C4484 H4480 0.929 . S
C4484 C4486 1.378 . S
C4484 C4488 1.350 . S
C4485 C4488 1.463 1_554 S
C4485 C4490 1.350 . S
C4485 N4493 1.427 . S
C4486 H4477 0.930 . S
C4486 C4484 1.378 . S
C4486 C4487 1.367 . S
C4487 C4486 1.367 . S
C4487 C4489 1.433 . S
C4488 C4484 1.350 . S
C4488 C4485 1.463 1_556 S
C4488 N4492 1.427 . S
C4489 H4479 0.929 . S
C4489 C4487 1.433 . S
C4489 N4492 1.384 . S
C4490 H4481 0.929 . S
C4490 C4482 1.378 . S
C4490 C4485 1.350 . S
C4491 H4478 0.929 . S
C4491 C4483 1.433 . S
C4491 N4493 1.384 . S
N4492 C4488 1.427 . S
N4492 C4489 1.384 . S
N4493 C4485 1.427 . S
N4493 C4491 1.384 . S
H4494 C4500 0.930 . S
H4495 C4504 0.930 . S
H4496 C4509 0.929 . S
H4497 C4507 0.929 . S
H4498 C4502 0.929 . S
H4499 C4508 0.929 . S
C4500 H4494 0.930 . S
C4500 C4501 1.367 . S
C4500 C4508 1.378 . S
C4501 C4500 1.367 . S
C4501 C4509 1.433 . S
C4502 H4498 0.929 . S
C4502 C4504 1.378 . S
C4502 C4506 1.350 . S
C4503 C4506 1.463 . S
C4503 C4508 1.350 . S
C4503 N4511 1.427 . S
C4504 H4495 0.930 . S
C4504 C4502 1.378 . S
C4504 C4505 1.367 . S
C4505 C4504 1.367 . S
C4505 C4507 1.433 . S
C4506 C4502 1.350 . S
C4506 C4503 1.463 . S
C4506 N4510 1.427 . S
C4507 H4497 0.929 . S
C4507 C4505 1.433 . S
C4507 N4510 1.384 . S
C4508 H4499 0.929 . S
C4508 C4500 1.378 . S
C4508 C4503 1.350 . S
C4509 H4496 0.929 . S
C4509 C4501 1.433 . S
C4509 N4511 1.384 . S
N4510 C4506 1.427 . S
N4510 C4507 1.384 . S
N4511 C4503 1.427 . S
N4511 C4509 1.384 . S
H4512 C4518 0.930 . S
H4513 C4522 0.930 . S
H4514 C4527 0.929 . S
H4515 C4525 0.929 . S
H4516 C4520 0.929 . S
H4517 C4526 0.929 . S
C4518 H4512 0.930 . S
C4518 C4519 1.367 . S
C4518 C4526 1.378 . S
C4519 C4518 1.367 . S
C4519 C4527 1.433 . S
C4520 H4516 0.929 . S
C4520 C4522 1.378 . S
C4520 C4524 1.350 . S
C4521 C4524 1.463 . S
C4521 C4526 1.350 . S
C4521 N4529 1.427 . S
C4522 H4513 0.930 . S
C4522 C4520 1.378 . S
C4522 C4523 1.367 . S
C4523 C4522 1.367 . S
C4523 C4525 1.433 . S
C4524 C4520 1.350 . S
C4524 C4521 1.463 . S
C4524 N4528 1.427 . S
C4525 H4515 0.929 . S
C4525 C4523 1.433 . S
C4525 N4528 1.384 . S
C4526 H4517 0.929 . S
C4526 C4518 1.378 . S
C4526 C4521 1.350 . S
C4527 H4514 0.929 . S
C4527 C4519 1.433 . S
C4527 N4529 1.384 . S
N4528 C4524 1.427 . S
N4528 C4525 1.384 . S
N4529 C4521 1.427 . S
N4529 C4527 1.384 . S
H4530 C4536 0.930 . S
H4531 C4540 0.930 . S
H4532 C4545 0.929 . S
H4533 C4543 0.929 . S
H4534 C4538 0.929 . S
H4535 C4544 0.929 . S
C4536 H4530 0.930 . S
C4536 C4537 1.367 . S
C4536 C4544 1.378 . S
C4537 C4536 1.367 . S
C4537 C4545 1.433 . S
C4538 H4534 0.929 . S
C4538 C4540 1.378 . S
C4538 C4542 1.350 . S
C4539 C4542 1.463 1_554 S
C4539 C4544 1.350 . S
C4539 N4547 1.427 . S
C4540 H4531 0.930 . S
C4540 C4538 1.378 . S
C4540 C4541 1.367 . S
C4541 C4540 1.367 . S
C4541 C4543 1.433 . S
C4542 C4538 1.350 . S
C4542 C4539 1.463 1_556 S
C4542 N4546 1.427 . S
C4543 H4533 0.929 . S
C4543 C4541 1.433 . S
C4543 N4546 1.384 . S
C4544 H4535 0.929 . S
C4544 C4536 1.378 . S
C4544 C4539 1.350 . S
C4545 H4532 0.929 . S
C4545 C4537 1.433 . S
C4545 N4547 1.384 . S
N4546 C4542 1.427 . S
N4546 C4543 1.384 . S
N4547 C4539 1.427 . S
N4547 C4545 1.384 . S
H4548 C4554 0.930 . S
H4549 C4558 0.930 . S
H4550 C4563 0.929 . S
H4551 C4561 0.929 . S
H4552 C4556 0.929 . S
H4553 C4562 0.929 . S
C4554 H4548 0.930 . S
C4554 C4555 1.367 . S
C4554 C4562 1.378 . S
C4555 C4554 1.367 . S
C4555 C4563 1.433 . S
C4556 H4552 0.929 . S
C4556 C4558 1.378 . S
C4556 C4560 1.350 . S
C4557 C4560 1.463 . S
C4557 C4562 1.350 . S
C4557 N4565 1.427 . S
C4558 H4549 0.930 . S
C4558 C4556 1.378 . S
C4558 C4559 1.367 . S
C4559 C4558 1.367 . S
C4559 C4561 1.433 . S
C4560 C4556 1.350 . S
C4560 C4557 1.463 . S
C4560 N4564 1.427 . S
C4561 H4551 0.929 . S
C4561 C4559 1.433 . S
C4561 N4564 1.384 . S
C4562 H4553 0.929 . S
C4562 C4554 1.378 . S
C4562 C4557 1.350 . S
C4563 H4550 0.929 . S
C4563 C4555 1.433 . S
C4563 N4565 1.384 . S
N4564 C4560 1.427 . S
N4564 C4561 1.384 . S
N4565 C4557 1.427 . S
N4565 C4563 1.384 . S
H4566 C4572 0.930 . S
H4567 C4576 0.930 . S
H4568 C4581 0.929 . S
H4569 C4579 0.929 . S
H4570 C4574 0.929 . S
H4571 C4580 0.929 . S
C4572 H4566 0.930 . S
C4572 C4573 1.367 . S
C4572 C4580 1.378 . S
C4573 C4572 1.367 . S
C4573 C4581 1.433 . S
C4574 H4570 0.929 . S
C4574 C4576 1.378 . S
C4574 C4578 1.350 . S
C4575 C4578 1.463 . S
C4575 C4580 1.350 . S
C4575 N4583 1.427 . S
C4576 H4567 0.930 . S
C4576 C4574 1.378 . S
C4576 C4577 1.367 . S
C4577 C4576 1.367 . S
C4577 C4579 1.433 . S
C4578 C4574 1.350 . S
C4578 C4575 1.463 . S
C4578 N4582 1.427 . S
C4579 H4569 0.929 . S
C4579 C4577 1.433 . S
C4579 N4582 1.384 . S
C4580 H4571 0.929 . S
C4580 C4572 1.378 . S
C4580 C4575 1.350 . S
C4581 H4568 0.929 . S
C4581 C4573 1.433 . S
C4581 N4583 1.384 . S
N4582 C4578 1.427 . S
N4582 C4579 1.384 . S
N4583 C4575 1.427 . S
N4583 C4581 1.384 . S
H4584 C4590 0.930 . S
H4585 C4594 0.930 . S
H4586 C4599 0.929 . S
H4587 C4597 0.929 . S
H4588 C4592 0.929 . S
H4589 C4598 0.929 . S
C4590 H4584 0.930 . S
C4590 C4591 1.367 . S
C4590 C4598 1.378 . S
C4591 C4590 1.367 . S
C4591 C4599 1.433 . S
C4592 H4588 0.929 . S
C4592 C4594 1.378 . S
C4592 C4596 1.350 . S
C4593 C4596 1.463 . S
C4593 C4598 1.350 . S
C4593 N4601 1.427 . S
C4594 H4585 0.930 . S
C4594 C4592 1.378 . S
C4594 C4595 1.367 . S
C4595 C4594 1.367 . S
C4595 C4597 1.433 . S
C4596 C4592 1.350 . S
C4596 C4593 1.463 . S
C4596 N4600 1.427 . S
C4597 H4587 0.929 . S
C4597 C4595 1.433 . S
C4597 N4600 1.384 . S
C4598 H4589 0.929 . S
C4598 C4590 1.378 . S
C4598 C4593 1.350 . S
C4599 H4586 0.929 . S
C4599 C4591 1.433 . S
C4599 N4601 1.384 . S
N4600 C4596 1.427 . S
N4600 C4597 1.384 . S
N4601 C4593 1.427 . S
N4601 C4599 1.384 . S
H4602 C4608 0.930 . S
H4603 C4612 0.930 . S
H4604 C4617 0.929 . S
H4605 C4615 0.929 . S
H4606 C4610 0.929 . S
H4607 C4616 0.929 . S
C4608 H4602 0.930 . S
C4608 C4609 1.367 . S
C4608 C4616 1.378 . S
C4609 C4608 1.367 . S
C4609 C4617 1.433 . S
C4610 H4606 0.929 . S
C4610 C4612 1.378 . S
C4610 C4614 1.350 . S
C4611 C4614 1.463 . S
C4611 C4616 1.350 . S
C4611 N4619 1.427 . S
C4612 H4603 0.930 . S
C4612 C4610 1.378 . S
C4612 C4613 1.367 . S
C4613 C4612 1.367 . S
C4613 C4615 1.433 . S
C4614 C4610 1.350 . S
C4614 C4611 1.463 . S
C4614 N4618 1.427 . S
C4615 H4605 0.929 . S
C4615 C4613 1.433 . S
C4615 N4618 1.384 . S
C4616 H4607 0.929 . S
C4616 C4608 1.378 . S
C4616 C4611 1.350 . S
C4617 H4604 0.929 . S
C4617 C4609 1.433 . S
C4617 N4619 1.384 . S
N4618 C4614 1.427 . S
N4618 C4615 1.384 . S
N4619 C4611 1.427 . S
N4619 C4617 1.384 . S
H4620 C4626 0.930 . S
H4621 C4630 0.930 . S
H4622 C4635 0.929 . S
H4623 C4633 0.929 . S
H4624 C4628 0.929 . S
H4625 C4634 0.929 . S
C4626 H4620 0.930 . S
C4626 C4627 1.367 . S
C4626 C4634 1.378 . S
C4627 C4626 1.367 . S
C4627 C4635 1.433 . S
C4628 H4624 0.929 . S
C4628 C4630 1.378 . S
C4628 C4632 1.350 . S
C4629 C4632 1.463 1_565 S
C4629 C4634 1.350 . S
C4629 N4637 1.427 . S
C4630 H4621 0.930 . S
C4630 C4628 1.378 . S
C4630 C4631 1.367 . S
C4631 C4630 1.367 . S
C4631 C4633 1.433 . S
C4632 C4628 1.350 . S
C4632 C4629 1.463 1_545 S
C4632 N4636 1.427 . S
C4633 H4623 0.929 . S
C4633 C4631 1.433 . S
C4633 N4636 1.384 . S
C4634 H4625 0.929 . S
C4634 C4626 1.378 . S
C4634 C4629 1.350 . S
C4635 H4622 0.929 . S
C4635 C4627 1.433 . S
C4635 N4637 1.384 . S
N4636 C4632 1.427 . S
N4636 C4633 1.384 . S
N4637 C4629 1.427 . S
N4637 C4635 1.384 . S
H4638 C4644 0.930 . S
H4639 C4648 0.930 . S
H4640 C4653 0.929 . S
H4641 C4651 0.929 . S
H4642 C4646 0.929 . S
H4643 C4652 0.929 . S
C4644 H4638 0.930 . S
C4644 C4645 1.367 . S
C4644 C4652 1.378 . S
C4645 C4644 1.367 . S
C4645 C4653 1.433 . S
C4646 H4642 0.929 . S
C4646 C4648 1.378 . S
C4646 C4650 1.350 . S
C4647 C4650 1.463 . S
C4647 C4652 1.350 . S
C4647 N4655 1.427 . S
C4648 H4639 0.930 . S
C4648 C4646 1.378 . S
C4648 C4649 1.367 . S
C4649 C4648 1.367 . S
C4649 C4651 1.433 . S
C4650 C4646 1.350 . S
C4650 C4647 1.463 . S
C4650 N4654 1.427 . S
C4651 H4641 0.929 . S
C4651 C4649 1.433 . S
C4651 N4654 1.384 . S
C4652 H4643 0.929 . S
C4652 C4644 1.378 . S
C4652 C4647 1.350 . S
C4653 H4640 0.929 . S
C4653 C4645 1.433 . S
C4653 N4655 1.384 . S
N4654 C4650 1.427 . S
N4654 C4651 1.384 . S
N4655 C4647 1.427 . S
N4655 C4653 1.384 . S
H4656 C4662 0.930 . S
H4657 C4666 0.930 . S
H4658 C4671 0.929 . S
H4659 C4669 0.929 . S
H4660 C4664 0.929 . S
H4661 C4670 0.929 . S
C4662 H4656 0.930 . S
C4662 C4663 1.367 . S
C4662 C4670 1.378 . S
C4663 C4662 1.367 . S
C4663 C4671 1.433 . S
C4664 H4660 0.929 . S
C4664 C4666 1.378 . S
C4664 C4668 1.350 . S
C4665 C4668 1.463 . S
C4665 C4670 1.350 . S
C4665 N4673 1.427 . S
C4666 H4657 0.930 . S
C4666 C4664 1.378 . S
C4666 C4667 1.367 . S
C4667 C4666 1.367 . S
C4667 C4669 1.433 . S
C4668 C4664 1.350 . S
C4668 C4665 1.463 . S
C4668 N4672 1.427 . S
C4669 H4659 0.929 . S
C4669 C4667 1.433 . S
C4669 N4672 1.384 . S
C4670 H4661 0.929 . S
C4670 C4662 1.378 . S
C4670 C4665 1.350 . S
C4671 H4658 0.929 . S
C4671 C4663 1.433 . S
C4671 N4673 1.384 . S
N4672 C4668 1.427 . S
N4672 C4669 1.384 . S
N4673 C4665 1.427 . S
N4673 C4671 1.384 . S
H4674 C4680 0.930 . S
H4675 C4684 0.930 . S
H4676 C4689 0.929 . S
H4677 C4687 0.929 . S
H4678 C4682 0.929 . S
H4679 C4688 0.929 . S
C4680 H4674 0.930 . S
C4680 C4681 1.367 . S
C4680 C4688 1.378 . S
C4681 C4680 1.367 . S
C4681 C4689 1.433 . S
C4682 H4678 0.929 . S
C4682 C4684 1.378 . S
C4682 C4686 1.350 . S
C4683 C4686 1.463 . S
C4683 C4688 1.350 . S
C4683 N4691 1.427 . S
C4684 H4675 0.930 . S
C4684 C4682 1.378 . S
C4684 C4685 1.367 . S
C4685 C4684 1.367 . S
C4685 C4687 1.433 . S
C4686 C4682 1.350 . S
C4686 C4683 1.463 . S
C4686 N4690 1.427 . S
C4687 H4677 0.929 . S
C4687 C4685 1.433 . S
C4687 N4690 1.384 . S
C4688 H4679 0.929 . S
C4688 C4680 1.378 . S
C4688 C4683 1.350 . S
C4689 H4676 0.929 . S
C4689 C4681 1.433 . S
C4689 N4691 1.384 . S
N4690 C4686 1.427 . S
N4690 C4687 1.384 . S
N4691 C4683 1.427 . S
N4691 C4689 1.384 . S
H4692 C4698 0.930 . S
H4693 C4702 0.930 . S
H4694 C4707 0.929 . S
H4695 C4705 0.929 . S
H4696 C4700 0.929 . S
H4697 C4706 0.929 . S
C4698 H4692 0.930 . S
C4698 C4699 1.367 . S
C4698 C4706 1.378 . S
C4699 C4698 1.367 . S
C4699 C4707 1.433 . S
C4700 H4696 0.929 . S
C4700 C4702 1.378 . S
C4700 C4704 1.350 . S
C4701 C4704 1.463 1_545 S
C4701 C4706 1.350 . S
C4701 N4709 1.427 . S
C4702 H4693 0.930 . S
C4702 C4700 1.378 . S
C4702 C4703 1.367 . S
C4703 C4702 1.367 . S
C4703 C4705 1.433 . S
C4704 C4700 1.350 . S
C4704 C4701 1.463 1_565 S
C4704 N4708 1.427 . S
C4705 H4695 0.929 . S
C4705 C4703 1.433 . S
C4705 N4708 1.384 . S
C4706 H4697 0.929 . S
C4706 C4698 1.378 . S
C4706 C4701 1.350 . S
C4707 H4694 0.929 . S
C4707 C4699 1.433 . S
C4707 N4709 1.384 . S
N4708 C4704 1.427 . S
N4708 C4705 1.384 . S
N4709 C4701 1.427 . S
N4709 C4707 1.384 . S
H4710 C4716 0.930 . S
H4711 C4720 0.930 . S
H4712 C4725 0.929 . S
H4713 C4723 0.929 . S
H4714 C4718 0.929 . S
H4715 C4724 0.929 . S
C4716 H4710 0.930 . S
C4716 C4717 1.367 . S
C4716 C4724 1.378 . S
C4717 C4716 1.367 . S
C4717 C4725 1.433 . S
C4718 H4714 0.929 . S
C4718 C4720 1.378 . S
C4718 C4722 1.350 . S
C4719 C4722 1.463 . S
C4719 C4724 1.350 . S
C4719 N4727 1.427 . S
C4720 H4711 0.930 . S
C4720 C4718 1.378 . S
C4720 C4721 1.367 . S
C4721 C4720 1.367 . S
C4721 C4723 1.433 . S
C4722 C4718 1.350 . S
C4722 C4719 1.463 . S
C4722 N4726 1.427 . S
C4723 H4713 0.929 . S
C4723 C4721 1.433 . S
C4723 N4726 1.384 . S
C4724 H4715 0.929 . S
C4724 C4716 1.378 . S
C4724 C4719 1.350 . S
C4725 H4712 0.929 . S
C4725 C4717 1.433 . S
C4725 N4727 1.384 . S
N4726 C4722 1.427 . S
N4726 C4723 1.384 . S
N4727 C4719 1.427 . S
N4727 C4725 1.384 . S
H4728 C4734 0.930 . S
H4729 C4738 0.930 . S
H4730 C4743 0.929 . S
H4731 C4741 0.929 . S
H4732 C4736 0.929 . S
H4733 C4742 0.929 . S
C4734 H4728 0.930 . S
C4734 C4735 1.367 . S
C4734 C4742 1.378 . S
C4735 C4734 1.367 . S
C4735 C4743 1.433 . S
C4736 H4732 0.929 . S
C4736 C4738 1.378 . S
C4736 C4740 1.350 . S
C4737 C4740 1.463 . S
C4737 C4742 1.350 . S
C4737 N4745 1.427 . S
C4738 H4729 0.930 . S
C4738 C4736 1.378 . S
C4738 C4739 1.367 . S
C4739 C4738 1.367 . S
C4739 C4741 1.433 . S
C4740 C4736 1.350 . S
C4740 C4737 1.463 . S
C4740 N4744 1.427 . S
C4741 H4731 0.929 . S
C4741 C4739 1.433 . S
C4741 N4744 1.384 . S
C4742 H4733 0.929 . S
C4742 C4734 1.378 . S
C4742 C4737 1.350 . S
C4743 H4730 0.929 . S
C4743 C4735 1.433 . S
C4743 N4745 1.384 . S
N4744 C4740 1.427 . S
N4744 C4741 1.384 . S
N4745 C4737 1.427 . S
N4745 C4743 1.384 . S
H4746 C4752 0.930 . S
H4747 C4756 0.930 . S
H4748 C4761 0.929 . S
H4749 C4759 0.929 . S
H4750 C4754 0.929 . S
H4751 C4760 0.929 . S
C4752 H4746 0.930 . S
C4752 C4753 1.367 . S
C4752 C4760 1.378 . S
C4753 C4752 1.367 . S
C4753 C4761 1.433 . S
C4754 H4750 0.929 . S
C4754 C4756 1.378 . S
C4754 C4758 1.350 . S
C4755 C4758 1.463 . S
C4755 C4760 1.350 . S
C4755 N4763 1.427 . S
C4756 H4747 0.930 . S
C4756 C4754 1.378 . S
C4756 C4757 1.367 . S
C4757 C4756 1.367 . S
C4757 C4759 1.433 . S
C4758 C4754 1.350 . S
C4758 C4755 1.463 . S
C4758 N4762 1.427 . S
C4759 H4749 0.929 . S
C4759 C4757 1.433 . S
C4759 N4762 1.384 . S
C4760 H4751 0.929 . S
C4760 C4752 1.378 . S
C4760 C4755 1.350 . S
C4761 H4748 0.929 . S
C4761 C4753 1.433 . S
C4761 N4763 1.384 . S
N4762 C4758 1.427 . S
N4762 C4759 1.384 . S
N4763 C4755 1.427 . S
N4763 C4761 1.384 . S
H4764 C4770 0.930 . S
H4765 C4774 0.930 . S
H4766 C4779 0.929 . S
H4767 C4777 0.929 . S
H4768 C4772 0.929 . S
H4769 C4778 0.929 . S
C4770 H4764 0.930 . S
C4770 C4771 1.367 . S
C4770 C4778 1.378 . S
C4771 C4770 1.367 . S
C4771 C4779 1.433 . S
C4772 H4768 0.929 . S
C4772 C4774 1.378 . S
C4772 C4776 1.350 . S
C4773 C4776 1.463 . S
C4773 C4778 1.350 . S
C4773 N4781 1.427 . S
C4774 H4765 0.930 . S
C4774 C4772 1.378 . S
C4774 C4775 1.367 . S
C4775 C4774 1.367 . S
C4775 C4777 1.433 . S
C4776 C4772 1.350 . S
C4776 C4773 1.463 . S
C4776 N4780 1.427 . S
C4777 H4767 0.929 . S
C4777 C4775 1.433 . S
C4777 N4780 1.384 . S
C4778 H4769 0.929 . S
C4778 C4770 1.378 . S
C4778 C4773 1.350 . S
C4779 H4766 0.929 . S
C4779 C4771 1.433 . S
C4779 N4781 1.384 . S
N4780 C4776 1.427 . S
N4780 C4777 1.384 . S
N4781 C4773 1.427 . S
N4781 C4779 1.384 . S
H4782 C4788 0.930 . S
H4783 C4792 0.930 . S
H4784 C4797 0.929 . S
H4785 C4795 0.929 . S
H4786 C4790 0.929 . S
H4787 C4796 0.929 . S
C4788 H4782 0.930 . S
C4788 C4789 1.367 . S
C4788 C4796 1.378 . S
C4789 C4788 1.367 . S
C4789 C4797 1.433 . S
C4790 H4786 0.929 . S
C4790 C4792 1.378 . S
C4790 C4794 1.350 . S
C4791 C4794 1.463 . S
C4791 C4796 1.350 . S
C4791 N4799 1.427 . S
C4792 H4783 0.930 . S
C4792 C4790 1.378 . S
C4792 C4793 1.367 . S
C4793 C4792 1.367 . S
C4793 C4795 1.433 . S
C4794 C4790 1.350 . S
C4794 C4791 1.463 . S
C4794 N4798 1.427 . S
C4795 H4785 0.929 . S
C4795 C4793 1.433 . S
C4795 N4798 1.384 . S
C4796 H4787 0.929 . S
C4796 C4788 1.378 . S
C4796 C4791 1.350 . S
C4797 H4784 0.929 . S
C4797 C4789 1.433 . S
C4797 N4799 1.384 . S
N4798 C4794 1.427 . S
N4798 C4795 1.384 . S
N4799 C4791 1.427 . S
N4799 C4797 1.384 . S
H4800 C4806 0.930 . S
H4801 C4810 0.930 . S
H4802 C4815 0.929 . S
H4803 C4813 0.929 . S
H4804 C4808 0.929 . S
H4805 C4814 0.929 . S
C4806 H4800 0.930 . S
C4806 C4807 1.367 . S
C4806 C4814 1.378 . S
C4807 C4806 1.367 . S
C4807 C4815 1.433 . S
C4808 H4804 0.929 . S
C4808 C4810 1.378 . S
C4808 C4812 1.350 . S
C4809 C4812 1.463 1_565 S
C4809 C4814 1.350 . S
C4809 N4817 1.427 . S
C4810 H4801 0.930 . S
C4810 C4808 1.378 . S
C4810 C4811 1.367 . S
C4811 C4810 1.367 . S
C4811 C4813 1.433 . S
C4812 C4808 1.350 . S
C4812 C4809 1.463 1_545 S
C4812 N4816 1.427 . S
C4813 H4803 0.929 . S
C4813 C4811 1.433 . S
C4813 N4816 1.384 . S
C4814 H4805 0.929 . S
C4814 C4806 1.378 . S
C4814 C4809 1.350 . S
C4815 H4802 0.929 . S
C4815 C4807 1.433 . S
C4815 N4817 1.384 . S
N4816 C4812 1.427 . S
N4816 C4813 1.384 . S
N4817 C4809 1.427 . S
N4817 C4815 1.384 . S
H4818 C4824 0.930 . S
H4819 C4828 0.930 . S
H4820 C4833 0.929 . S
H4821 C4831 0.929 . S
H4822 C4826 0.929 . S
H4823 C4832 0.929 . S
C4824 H4818 0.930 . S
C4824 C4825 1.367 . S
C4824 C4832 1.378 . S
C4825 C4824 1.367 . S
C4825 C4833 1.433 . S
C4826 H4822 0.929 . S
C4826 C4828 1.378 . S
C4826 C4830 1.350 . S
C4827 C4830 1.463 . S
C4827 C4832 1.350 . S
C4827 N4835 1.427 . S
C4828 H4819 0.930 . S
C4828 C4826 1.378 . S
C4828 C4829 1.367 . S
C4829 C4828 1.367 . S
C4829 C4831 1.433 . S
C4830 C4826 1.350 . S
C4830 C4827 1.463 . S
C4830 N4834 1.427 . S
C4831 H4821 0.929 . S
C4831 C4829 1.433 . S
C4831 N4834 1.384 . S
C4832 H4823 0.929 . S
C4832 C4824 1.378 . S
C4832 C4827 1.350 . S
C4833 H4820 0.929 . S
C4833 C4825 1.433 . S
C4833 N4835 1.384 . S
N4834 C4830 1.427 . S
N4834 C4831 1.384 . S
N4835 C4827 1.427 . S
N4835 C4833 1.384 . S
H4836 C4842 0.930 . S
H4837 C4846 0.930 . S
H4838 C4851 0.929 . S
H4839 C4849 0.929 . S
H4840 C4844 0.929 . S
H4841 C4850 0.929 . S
C4842 H4836 0.930 . S
C4842 C4843 1.367 . S
C4842 C4850 1.378 . S
C4843 C4842 1.367 . S
C4843 C4851 1.433 . S
C4844 H4840 0.929 . S
C4844 C4846 1.378 . S
C4844 C4848 1.350 . S
C4845 C4848 1.463 . S
C4845 C4850 1.350 . S
C4845 N4853 1.427 . S
C4846 H4837 0.930 . S
C4846 C4844 1.378 . S
C4846 C4847 1.367 . S
C4847 C4846 1.367 . S
C4847 C4849 1.433 . S
C4848 C4844 1.350 . S
C4848 C4845 1.463 . S
C4848 N4852 1.427 . S
C4849 H4839 0.929 . S
C4849 C4847 1.433 . S
C4849 N4852 1.384 . S
C4850 H4841 0.929 . S
C4850 C4842 1.378 . S
C4850 C4845 1.350 . S
C4851 H4838 0.929 . S
C4851 C4843 1.433 . S
C4851 N4853 1.384 . S
N4852 C4848 1.427 . S
N4852 C4849 1.384 . S
N4853 C4845 1.427 . S
N4853 C4851 1.384 . S
H4854 C4860 0.930 . S
H4855 C4864 0.930 . S
H4856 C4869 0.929 . S
H4857 C4867 0.929 . S
H4858 C4862 0.929 . S
H4859 C4868 0.929 . S
C4860 H4854 0.930 . S
C4860 C4861 1.367 . S
C4860 C4868 1.378 . S
C4861 C4860 1.367 . S
C4861 C4869 1.433 . S
C4862 H4858 0.929 . S
C4862 C4864 1.378 . S
C4862 C4866 1.350 . S
C4863 C4866 1.463 . S
C4863 C4868 1.350 . S
C4863 N4871 1.427 . S
C4864 H4855 0.930 . S
C4864 C4862 1.378 . S
C4864 C4865 1.367 . S
C4865 C4864 1.367 . S
C4865 C4867 1.433 . S
C4866 C4862 1.350 . S
C4866 C4863 1.463 . S
C4866 N4870 1.427 . S
C4867 H4857 0.929 . S
C4867 C4865 1.433 . S
C4867 N4870 1.384 . S
C4868 H4859 0.929 . S
C4868 C4860 1.378 . S
C4868 C4863 1.350 . S
C4869 H4856 0.929 . S
C4869 C4861 1.433 . S
C4869 N4871 1.384 . S
N4870 C4866 1.427 . S
N4870 C4867 1.384 . S
N4871 C4863 1.427 . S
N4871 C4869 1.384 . S
H4872 C4878 0.930 . S
H4873 C4882 0.930 . S
H4874 C4887 0.929 . S
H4875 C4885 0.929 . S
H4876 C4880 0.929 . S
H4877 C4886 0.929 . S
C4878 H4872 0.930 . S
C4878 C4879 1.367 . S
C4878 C4886 1.378 . S
C4879 C4878 1.367 . S
C4879 C4887 1.433 . S
C4880 H4876 0.929 . S
C4880 C4882 1.378 . S
C4880 C4884 1.350 . S
C4881 C4884 1.463 . S
C4881 C4886 1.350 . S
C4881 N4889 1.427 . S
C4882 H4873 0.930 . S
C4882 C4880 1.378 . S
C4882 C4883 1.367 . S
C4883 C4882 1.367 . S
C4883 C4885 1.433 . S
C4884 C4880 1.350 . S
C4884 C4881 1.463 . S
C4884 N4888 1.427 . S
C4885 H4875 0.929 . S
C4885 C4883 1.433 . S
C4885 N4888 1.384 . S
C4886 H4877 0.929 . S
C4886 C4878 1.378 . S
C4886 C4881 1.350 . S
C4887 H4874 0.929 . S
C4887 C4879 1.433 . S
C4887 N4889 1.384 . S
N4888 C4884 1.427 . S
N4888 C4885 1.384 . S
N4889 C4881 1.427 . S
N4889 C4887 1.384 . S
H4890 C4896 0.930 . S
H4891 C4900 0.930 . S
H4892 C4905 0.929 . S
H4893 C4903 0.929 . S
H4894 C4898 0.929 . S
H4895 C4904 0.929 . S
C4896 H4890 0.930 . S
C4896 C4897 1.367 . S
C4896 C4904 1.378 . S
C4897 C4896 1.367 . S
C4897 C4905 1.433 . S
C4898 H4894 0.929 . S
C4898 C4900 1.378 . S
C4898 C4902 1.350 . S
C4899 C4902 1.463 . S
C4899 C4904 1.350 . S
C4899 N4907 1.427 . S
C4900 H4891 0.930 . S
C4900 C4898 1.378 . S
C4900 C4901 1.367 . S
C4901 C4900 1.367 . S
C4901 C4903 1.433 . S
C4902 C4898 1.350 . S
C4902 C4899 1.463 . S
C4902 N4906 1.427 . S
C4903 H4893 0.929 . S
C4903 C4901 1.433 . S
C4903 N4906 1.384 . S
C4904 H4895 0.929 . S
C4904 C4896 1.378 . S
C4904 C4899 1.350 . S
C4905 H4892 0.929 . S
C4905 C4897 1.433 . S
C4905 N4907 1.384 . S
N4906 C4902 1.427 . S
N4906 C4903 1.384 . S
N4907 C4899 1.427 . S
N4907 C4905 1.384 . S
H4908 C4914 0.930 . S
H4909 C4918 0.930 . S
H4910 C4923 0.929 . S
H4911 C4921 0.929 . S
H4912 C4916 0.929 . S
H4913 C4922 0.929 . S
C4914 H4908 0.930 . S
C4914 C4915 1.367 . S
C4914 C4922 1.378 . S
C4915 C4914 1.367 . S
C4915 C4923 1.433 . S
C4916 H4912 0.929 . S
C4916 C4918 1.378 . S
C4916 C4920 1.350 . S
C4917 C4920 1.463 . S
C4917 C4922 1.350 . S
C4917 N4925 1.427 . S
C4918 H4909 0.930 . S
C4918 C4916 1.378 . S
C4918 C4919 1.367 . S
C4919 C4918 1.367 . S
C4919 C4921 1.433 . S
C4920 C4916 1.350 . S
C4920 C4917 1.463 . S
C4920 N4924 1.427 . S
C4921 H4911 0.929 . S
C4921 C4919 1.433 . S
C4921 N4924 1.384 . S
C4922 H4913 0.929 . S
C4922 C4914 1.378 . S
C4922 C4917 1.350 . S
C4923 H4910 0.929 . S
C4923 C4915 1.433 . S
C4923 N4925 1.384 . S
N4924 C4920 1.427 . S
N4924 C4921 1.384 . S
N4925 C4917 1.427 . S
N4925 C4923 1.384 . S
H4926 C4932 0.930 . S
H4927 C4936 0.930 . S
H4928 C4941 0.929 . S
H4929 C4939 0.929 . S
H4930 C4934 0.929 . S
H4931 C4940 0.929 . S
C4932 H4926 0.930 . S
C4932 C4933 1.367 . S
C4932 C4940 1.378 . S
C4933 C4932 1.367 . S
C4933 C4941 1.433 . S
C4934 H4930 0.929 . S
C4934 C4936 1.378 . S
C4934 C4938 1.350 . S
C4935 C4938 1.463 . S
C4935 C4940 1.350 . S
C4935 N4943 1.427 . S
C4936 H4927 0.930 . S
C4936 C4934 1.378 . S
C4936 C4937 1.367 . S
C4937 C4936 1.367 . S
C4937 C4939 1.433 . S
C4938 C4934 1.350 . S
C4938 C4935 1.463 . S
C4938 N4942 1.427 . S
C4939 H4929 0.929 . S
C4939 C4937 1.433 . S
C4939 N4942 1.384 . S
C4940 H4931 0.929 . S
C4940 C4932 1.378 . S
C4940 C4935 1.350 . S
C4941 H4928 0.929 . S
C4941 C4933 1.433 . S
C4941 N4943 1.384 . S
N4942 C4938 1.427 . S
N4942 C4939 1.384 . S
N4943 C4935 1.427 . S
N4943 C4941 1.384 . S
C1495 C495 1.940 . S
C1499 C10 1.876 . S
C1513 C578 1.198 . S
C1517 C61 1.233 . S
C1531 C91 1.202 . S
C1535 C413 1.198 . S
C1549 C435 1.130 . S
C1553 C95 1.191 . S
C1567 C745 1.126 . S
C1571 C153 1.190 . S
C1585 C1064 1.204 . S
C1589 C184 1.194 . S
C1603 C196 1.236 . S
C1607 C1384 1.196 . S
C1621 C1115 1.945 . S
C1625 C227 1.864 . S
C1639 C278 0.973 . S
C1643 C82 0.995 . S
C1657 C308 1.230 . S
C1661 C94 1.213 . S
C1675 C320 1.846 . S
C1679 C30 1.859 . S
C1693 C370 1.423 . S
C1697 C41 1.449 . S
C1711 C216 1.438 . S
C1715 C250 1.429 . S
C1729 C247 1.847 . S
C1733 C289 1.852 . S
C1747 C339 1.236 . S
C1751 C144 1.202 . S
C1765 C175 0.975 . S
C1769 C351 0.994 . S
C1783 C401 1.044 . S
C1787 C900 1.037 . S
C1801 C258 1.612 . S
C1805 C433 1.612 . S
C1819 C299 1.293 . S
C1823 C436 1.315 . S
C1837 C340 1.693 . S
C1841 C475 1.619 . S
C1855 C1272 1.035 . S
C1859 C525 1.058 . S
C1873 C529 1.320 . S
C1877 C1012 1.278 . S
C1891 C816 1.616 . S
C1895 C464 1.622 . S
C1909 C898 1.692 . S
C1913 C568 1.620 . S
C1927 C836 0.986 . S
C1931 C237 0.983 . S
C1945 C901 1.411 1_455 S
C1949 C619 1.452 . S
C1963 C785 1.844 . S
C1967 C650 1.850 1_556 S
C1981 C681 1.856 1_554 S
C1985 C1002 1.853 . S
C1999 C1397 1.429 1_565 S
C2003 C692 1.444 . S
C2017 C1239 0.993 . S
C2021 C20 0.976 . S
C2035 C743 1.938 . S
C2039 C630 1.874 1_556 S
C2053 C444 1.204 . S
C2057 C246 1.195 . S
C2071 C392 1.207 . S
C2075 C599 1.225 . S
C2089 C712 1.218 . S
C2093 C733 1.217 . S
C2107 C754 1.203 . S
C2111 C29 1.193 . S
C2125 C402 1.939 . S
C2129 C661 1.875 1_554 S
C2143 C587 1.059 . S
C2147 C361 1.030 . S
C2161 C723 1.611 . S
C2165 C805 1.702 . S
C2179 C330 1.282 . S
C2183 C746 1.317 . S
C2197 C838 1.031 . S
C2201 C1331 1.059 . S
C2215 C888 1.285 . S
C2219 C1056 1.316 . S
C2233 C557 1.620 . S
C2237 C909 1.618 . S
C2251 C123 1.225 . S
C2255 C1105 1.210 . S
C2269 C1033 1.197 . S
C2273 C959 1.196 . S
C2287 C33 1.191 . S
C2291 C1055 1.129 . S
C2305 C618 1.188 . S
C2309 C528 1.127 . S
C2323 C1322 1.216 . S
C2327 C971 1.219 . S
C2341 C588 1.939 . S
C2345 C165 1.876 1_556 S
C2359 C867 0.994 . S
C2363 C950 0.975 . S
C2377 C897 1.234 . S
C2381 C32 1.199 . S
C2395 C808 1.405 1_565 S
C2399 C103 1.442 . S
C2413 C991 1.439 . S
C2417 C839 1.429 . S
C2431 C185 1.851 1_556 S
C2435 C878 1.844 . S
C2449 C609 1.203 . S
C2453 C1021 1.236 . S
C2467 C1210 1.046 . S
C2471 C494 1.049 . S
C2485 C847 1.619 . S
C2489 C1053 1.614 . S
C2503 C1022 1.694 . S
C2507 C382 1.616 . S
C2521 C1396 1.027 . S
C2525 C742 1.058 . S
C2539 C1084 1.621 . S
C2543 C371 1.604 . S
C2557 C1095 1.613 . S
C2561 C309 1.703 . S
C2575 C1211 1.422 1_455 S
C2579 C154 1.438 . S
C2593 C1188 1.846 . S
C2597 C1146 1.849 . S
C2611 C1273 1.419 . S
C2615 C1157 1.445 . S
C2629 C929 0.984 . S
C2633 C671 0.984 . S
C2647 C1126 1.866 . S
C2651 C526 1.945 . S
C2665 C134 1.218 . S
C2669 C485 1.216 . S
C2683 C516 1.199 . S
C2687 C1177 1.234 . S
C2701 C680 1.206 . S
C2705 C537 1.193 . S
C2719 C807 1.044 . S
C2723 C1114 1.042 . S
C2737 C506 1.628 . S
C2741 C1208 1.694 . S
C2755 C1393 1.051 . S
C2759 C249 1.045 . S
C2773 C774 1.625 . S
C2777 C1219 1.612 . S
C2791 C1394 1.943 . S
C2795 C72 1.862 1_554 S
C2809 C1334 1.127 . S
C2813 C684 1.188 . S
C2827 C215 1.175 . S
C2831 C404 1.149 . S
C2845 C1467 1.187 . S
C2849 C1145 1.208 . S
C2863 C683 1.220 . S
C2867 C804 1.220 . S
C2881 C92 1.859 1_554 S
C2885 C1250 1.846 . S
C2899 C206 1.219 . S
C2903 C1269 1.224 . S
C2917 C1136 0.982 . S
C2921 C1301 0.987 . S
C2935 C795 1.282 . S
C2939 C1335 1.318 . S
C2953 C1374 1.611 . S
C2957 C1270 1.698 . S
C2971 C1446 1.280 . S
C2975 C1025 1.327 . S
C2989 C1405 1.609 . S
C2993 C1363 1.613 . S
C3007 C640 0.989 . S
C3011 C1425 0.980 . S
C3025 C960 1.847 . S
C3029 C1436 1.851 . S
C3043 C649 1.205 . S
C3047 C1343 1.194 . S
C3061 C940 1.870 . S
C3065 C1332 1.945 . S
C3079 C405 1.315 . S
C3083 C1260 1.293 . S
C3097 C1459 1.328 . S
C3101 C1198 1.276 . S
C3115 C1458 1.151 . S
C3119 C1149 1.176 . S
C3133 C990 1.179 . S
C3137 C1024 1.149 . S
C3151 C1148 1.220 . S
C3155 C1207 1.219 . S
C3169 C981 1.202 . S
C3173 C1455 1.228 . S
C3187 C1312 1.618 . S
C3191 C1456 1.703 . S
C3205 C1281 1.619 . S
C3209 C1487 1.616 . S
C3223 C1085 1.412 . S
C3227 C2 1.416 . S
C3241 C773 1.668 . S
C3245 C60 1.669 . S
C3259 C1073 1.882 . S
C3263 C62 1.827 . S
C3277 C1366 1.128 . S
C3281 C112 1.151 . S
C3295 C124 1.159 . S
C3299 C560 1.137 . S
C3313 C155 1.821 . S
C3317 C422 1.880 . S
C3331 C188 1.672 . S
C3335 C463 1.671 . S
C3349 C219 1.412 . S
C3353 C465 1.416 . S
C3367 C277 1.683 . S
C3371 C1424 1.683 . S
C3385 C918 1.003 . S
C3389 C279 1.022 . S
C3403 C1180 1.679 . S
C3407 C312 1.678 . S
C3421 C1426 1.027 . S
C3425 C341 1.011 . S
C3439 C267 1.013 . S
C3443 C1178 1.028 . S
C3457 C281 1.684 . S
C3461 C1428 1.685 . S
C3475 C310 1.026 . S
C3479 C1414 1.010 . S
C3493 C928 1.678 . S
C3497 C343 1.678 . S
C3511 C157 1.416 . S
C3515 C372 1.411 . S
C3529 C432 1.679 . S
C3533 C1176 1.680 . S
C3547 C453 1.883 . S
C3551 C930 1.828 . S
C3565 C467 1.137 . S
C3569 C701 1.159 . S
C3583 C496 1.416 . S
C3587 C932 1.412 . S
C3601 C546 1.879 . S
C3605 C620 1.821 . S
C3619 C1209 1.911 . S
C3623 C236 1.881 . S
C3637 C280 1.639 . S
C3641 C590 1.631 . S
C3655 C1011 0.882 . S
C3659 C621 0.893 . S
C3673 C1415 1.063 . S
C3677 C143 1.021 . S
C3691 C919 1.066 . S
C3695 C93 1.027 . S
C3709 C794 0.884 . S
C3713 C652 0.897 . S
C3727 C702 1.643 . S
C3731 C311 1.652 . S
C3745 C19 1.886 . S
C3749 C806 1.919 . S
C3763 C1365 1.333 . S
C3767 C714 1.332 . S
C3781 C744 0.909 . S
C3785 C577 0.904 . S
C3799 C454 1.599 . S
C3803 C1043 1.599 . S
C3817 C1457 0.909 . S
C3821 C391 0.904 . S
C3835 C732 0.930 . S
C3839 C1023 0.933 . S
C3853 C764 1.605 . S
C3857 C1477 1.605 . S
C3871 C434 0.919 . S
C3875 C1383 0.916 . S
C3889 C373 1.333 . S
C3893 C559 1.334 . S
C3907 C670 1.873 . S
C3911 C360 1.908 . S
C3925 C776 1.648 . S
C3929 C962 1.636 . S
C3943 C1117 0.877 . S
C3947 C329 0.859 . S
C3961 C205 1.021 . S
C3965 C826 1.062 . S
C3979 C1135 1.884 . S
C3983 C837 1.918 . S
C3997 C63 0.890 . S
C4001 C887 0.880 . S
C4015 C558 1.412 . S
C4019 C653 1.416 . S
C4033 C556 1.668 . S
C4037 C122 1.669 . S
C4051 C1304 1.135 . S
C4055 C50 1.155 . S
C4069 C589 1.149 . S
C4073 C1087 1.123 . S
C4087 C1042 1.879 . S
C4091 C217 1.820 . S
C4105 C1083 1.679 . S
C4109 C963 1.680 . S
C4123 C866 1.683 . S
C4127 C1300 1.683 . S
C4141 C868 1.033 . S
C4145 C1228 1.022 . S
C4159 C994 1.676 . S
C4163 C777 1.676 . S
C4177 C825 1.018 . S
C4181 C1240 1.031 . S
C4195 C856 1.009 . S
C4199 C775 1.025 . S
C4213 C870 1.680 . S
C4217 C1242 1.679 . S
C4231 C1290 1.022 . S
C4235 C992 1.033 . S
C4249 C1238 1.678 . S
C4253 C835 1.679 . S
C4267 C711 1.670 . S
C4271 C1052 1.669 . S
C4285 C1166 1.158 . S
C4289 C374 1.139 . S
C4303 C713 1.412 . S
C4307 C64 1.416 . S
C4321 C763 1.881 . S
C4325 C1116 1.825 . S
C4339 C899 1.912 . S
C4343 C174 1.875 . S
C4357 C125 1.642 . S
C4361 C869 1.650 . S
C4375 C608 1.009 . S
C4379 C1291 1.053 . S
C4393 C31 0.996 . S
C4397 C1229 1.042 . S
C4411 C1 0.877 . S
C4415 C1197 0.861 . S
C4429 C1167 1.627 . S
C4433 C993 1.636 . S
C4447 C497 1.327 . S
C4451 C1303 1.326 . S
C4465 C527 0.941 . S
C4469 C1104 0.938 . S
C4483 C423 1.604 . S
C4487 C1074 1.605 . S
C4501 C484 0.937 . S
C4505 C1333 0.941 . S
C4519 C403 0.921 . S
C4523 C515 0.916 . S
C4537 C547 1.608 . S
C4541 C1353 1.608 . S
C4555 C1054 0.915 . S
C4559 C1321 0.910 . S
C4573 C1086 1.327 . S
C4577 C466 1.328 . S
C4591 C187 1.642 . S
C4595 C1179 1.652 . S
C4609 C980 1.006 . S
C4613 C342 1.050 . S
C4627 C639 1.873 . S
C4631 C248 1.908 . S
C4645 C931 0.875 . S
C4649 C298 0.858 . S
C4663 C1476 1.879 . S
C4667 C0 1.820 . S
C4681 C498 1.124 . S
C4685 C186 1.151 . S
C4699 C126 1.680 . S
C4703 C1362 1.679 . S
C4717 C1364 1.415 . S
C4721 C622 1.413 . S
C4735 C1118 1.412 . S
C4739 C1302 1.416 . S
C4753 C651 1.820 . S
C4757 C1352 1.879 . S
C4771 C218 0.900 . S
C4775 C1445 0.889 . S
C4789 C857 1.065 . S
C4793 C682 1.024 . S
C4807 C113 1.624 . S
C4811 C1241 1.634 . S
C4825 C81 1.881 . S
C4829 C1395 1.911 . S
C4843 C949 1.874 . S
C4847 C1271 1.910 . S
C4861 C156 0.881 . S
C4865 C1259 0.868 . S
C4879 C715 1.139 . S
C4883 C961 1.158 . S
C4897 C1486 1.666 . S
C4901 C591 1.667 . S
C4915 C1147 1.029 . S
C4919 C268 1.068 . S
C4933 C1427 1.634 . S
C4937 C51 1.624 . S
