# Generated by pormake.
# Topology ure, (4)-cn, num edge types: 1
# Building blocks:
#     Node 0, Type 0, BuildingBlock: QUQFOY_clean_sbu_1, # of connection points: 4
#     Node 1, Type 0, BuildingBlock: QUQFOY_clean_sbu_1, # of connection points: 4
#     Node 2, Type 0, BuildingBlock: QUQFOY_clean_sbu_1, # of connection points: 4
#     Node 3, Type 0, BuildingBlock: QUQFOY_clean_sbu_1, # of connection points: 4
#     Node 4, Type 0, BuildingBlock: QUQFOY_clean_sbu_1, # of connection points: 4
#     Node 5, Type 0, BuildingBlock: QUQFOY_clean_sbu_1, # of connection points: 4
#     Node 6, Type 0, BuildingBlock: QUQFOY_clean_sbu_1, # of connection points: 4
#     Node 7, Type 0, BuildingBlock: QUQFOY_clean_sbu_1, # of connection points: 4
#     Node 8, Type 0, BuildingBlock: QUQFOY_clean_sbu_1, # of connection points: 4
#     Node 9, Type 0, BuildingBlock: QUQFOY_clean_sbu_1, # of connection points: 4
#     Node 10, Type 0, BuildingBlock: QUQFOY_clean_sbu_1, # of connection points: 4
#     Node 11, Type 0, BuildingBlock: QUQFOY_clean_sbu_1, # of connection points: 4
#     Node 12, Type 0, BuildingBlock: QUQFOY_clean_sbu_1, # of connection points: 4
#     Node 13, Type 0, BuildingBlock: QUQFOY_clean_sbu_1, # of connection points: 4
#     Node 14, Type 0, BuildingBlock: QUQFOY_clean_sbu_1, # of connection points: 4
#     Node 15, Type 0, BuildingBlock: QUQFOY_clean_sbu_1, # of connection points: 4
#     Edge 16, Type (0, 0), BuildingBlock: ZUJKAS_clean_linker_0, # of connection points: 2
#     Edge 17, Type (0, 0), BuildingBlock: ZUJKAS_clean_linker_0, # of connection points: 2
#     Edge 18, Type (0, 0), BuildingBlock: ZUJKAS_clean_linker_0, # of connection points: 2
#     Edge 19, Type (0, 0), BuildingBlock: ZUJKAS_clean_linker_0, # of connection points: 2
#     Edge 20, Type (0, 0), BuildingBlock: ZUJKAS_clean_linker_0, # of connection points: 2
#     Edge 21, Type (0, 0), BuildingBlock: ZUJKAS_clean_linker_0, # of connection points: 2
#     Edge 22, Type (0, 0), BuildingBlock: ZUJKAS_clean_linker_0, # of connection points: 2
#     Edge 23, Type (0, 0), BuildingBlock: ZUJKAS_clean_linker_0, # of connection points: 2
#     Edge 24, Type (0, 0), BuildingBlock: ZUJKAS_clean_linker_0, # of connection points: 2
#     Edge 25, Type (0, 0), BuildingBlock: ZUJKAS_clean_linker_0, # of connection points: 2
#     Edge 26, Type (0, 0), BuildingBlock: ZUJKAS_clean_linker_0, # of connection points: 2
#     Edge 27, Type (0, 0), BuildingBlock: ZUJKAS_clean_linker_0, # of connection points: 2
#     Edge 28, Type (0, 0), BuildingBlock: ZUJKAS_clean_linker_0, # of connection points: 2
#     Edge 29, Type (0, 0), BuildingBlock: ZUJKAS_clean_linker_0, # of connection points: 2
#     Edge 30, Type (0, 0), BuildingBlock: ZUJKAS_clean_linker_0, # of connection points: 2
#     Edge 31, Type (0, 0), BuildingBlock: ZUJKAS_clean_linker_0, # of connection points: 2
#     Edge 32, Type (0, 0), BuildingBlock: ZUJKAS_clean_linker_0, # of connection points: 2
#     Edge 33, Type (0, 0), BuildingBlock: ZUJKAS_clean_linker_0, # of connection points: 2
#     Edge 34, Type (0, 0), BuildingBlock: ZUJKAS_clean_linker_0, # of connection points: 2
#     Edge 35, Type (0, 0), BuildingBlock: ZUJKAS_clean_linker_0, # of connection points: 2
#     Edge 36, Type (0, 0), BuildingBlock: ZUJKAS_clean_linker_0, # of connection points: 2
#     Edge 37, Type (0, 0), BuildingBlock: ZUJKAS_clean_linker_0, # of connection points: 2
#     Edge 38, Type (0, 0), BuildingBlock: ZUJKAS_clean_linker_0, # of connection points: 2
#     Edge 39, Type (0, 0), BuildingBlock: ZUJKAS_clean_linker_0, # of connection points: 2
#     Edge 40, Type (0, 0), BuildingBlock: ZUJKAS_clean_linker_0, # of connection points: 2
#     Edge 41, Type (0, 0), BuildingBlock: ZUJKAS_clean_linker_0, # of connection points: 2
#     Edge 42, Type (0, 0), BuildingBlock: ZUJKAS_clean_linker_0, # of connection points: 2
#     Edge 43, Type (0, 0), BuildingBlock: ZUJKAS_clean_linker_0, # of connection points: 2
#     Edge 44, Type (0, 0), BuildingBlock: ZUJKAS_clean_linker_0, # of connection points: 2
#     Edge 45, Type (0, 0), BuildingBlock: ZUJKAS_clean_linker_0, # of connection points: 2
#     Edge 46, Type (0, 0), BuildingBlock: ZUJKAS_clean_linker_0, # of connection points: 2
#     Edge 47, Type (0, 0), BuildingBlock: ZUJKAS_clean_linker_0, # of connection points: 2
# Relax obj value: 0.283
# Max RMSD: 0.316
# Mean RMSD: 0.224
data_MOF--net-ure--node1-QUQFOY_clean_sbu_1--edge1-ZUJKAS_clean_linker_0
_symmetry_space_group_name_H-M    P1
_symmetry_Int_Tables_number       1
_symmetry_cell_setting            triclinic
loop_
_symmetry_equiv_pos_as_xyz
'x, y, z'
_cell_length_a     40.221192
_cell_length_b     43.945274
_cell_length_c     41.569796
_cell_angle_alpha  94.313106
_cell_angle_beta   94.335751
_cell_angle_gamma 97.6669
loop_
_atom_site_label
_atom_site_type_symbol
_atom_site_fract_x
_atom_site_fract_y
_atom_site_fract_z
_atom_type_partial_charge
O0 O 0.34776 0.24156 0.28413 0.0
Cd1 Cd 0.29927 0.23577 0.29791 0.0
Cd2 Cd 0.31707 0.30025 0.31489 0.0
O3 O 0.35667 0.29252 0.28774 0.0
O4 O 0.27722 0.19539 0.2759 0.0
O5 O 0.26024 0.23982 0.26582 0.0
C6 C 0.25692 0.21022 0.25981 0.0
C7 C 0.30038 0.34958 0.31535 0.0
C8 C 0.36597 0.26664 0.27992 0.0
C9 C 0.30515 0.25591 0.36794 0.0
O10 O 0.31556 0.28247 0.35945 0.0
O11 O 0.29475 0.23363 0.34676 0.0
O12 O 0.32858 0.34499 0.32953 0.0
O13 O 0.28155 0.32611 0.29996 0.0
O14 O 0.998 0.97086 0.53378 0.0
Cd15 Cd 0.98423 0.9649 0.48462 0.0
Cd16 Cd 0.97307 0.03033 0.49778 0.0
O17 O 0.99323 0.02032 0.54244 0.0
O18 O -0.0003 0.92572 0.46893 0.0
O19 O 0.02047 0.97113 0.45382 0.0
C20 C 0.02033 0.94163 0.45229 0.0
C21 C 0.97708 0.08292 0.48948 0.0
C22 C 0.00081 0.99536 0.55271 0.0
C23 C 0.91518 0.98024 0.46821 0.0
O24 O 0.92699 0.00783 0.47827 0.0
O25 O 0.93375 0.95906 0.46877 0.0
O26 O 0.95784 0.07063 0.50967 0.0
O27 O 0.99553 0.06559 0.47454 0.0
O28 O 0.2246 0.78791 0.78051 0.0
Cd29 Cd 0.27517 0.78723 0.79341 0.0
Cd30 Cd 0.25255 0.72768 0.79202 0.0
O31 O 0.21435 0.7392 0.76133 0.0
O32 O 0.29988 0.82506 0.77824 0.0
O33 O 0.30432 0.77784 0.75789 0.0
C34 C 0.31193 0.80733 0.75724 0.0
C35 C 0.27032 0.67919 0.78433 0.0
C36 C 0.20522 0.76575 0.76463 0.0
C37 C 0.27183 0.76429 0.85659 0.0
O38 O 0.2529 0.74195 0.84054 0.0
O39 O 0.28879 0.78457 0.84193 0.0
O40 O 0.24086 0.68234 0.79303 0.0
O41 O 0.28954 0.70369 0.77829 0.0
O42 O 0.54865 0.97007 0.93247 0.0
Cd43 Cd 0.49742 0.95775 0.93054 0.0
Cd44 Cd 0.50949 0.95142 0.99553 0.0
O45 O 0.5571 0.97063 0.98556 0.0
O46 O 0.47647 0.97909 0.8954 0.0
O47 O 0.4702 0.98944 0.94747 0.0
C48 C 0.46461 0.99554 0.91773 0.0
C49 C 0.49493 0.96269 0.04839 0.0
C50 C 0.56831 0.97509 0.95825 0.0
C51 C 0.48167 0.89442 0.94944 0.0
O52 O 0.4925 0.90645 0.97769 0.0
O53 O 0.48016 0.9111 0.92583 0.0
O54 O 0.51758 0.94553 0.04234 0.0
O55 O 0.48056 0.97427 0.02428 0.0
O56 O 0.28479 0.68546 0.31411 0.0
Cd57 Cd 0.30068 0.73206 0.31129 0.0
Cd58 Cd 0.30954 0.71274 0.24908 0.0
O59 O 0.2842 0.67229 0.26181 0.0
O60 O 0.2819 0.75556 0.34669 0.0
O61 O 0.26724 0.75855 0.29466 0.0
C62 C 0.26416 0.76697 0.32465 0.0
C63 C 0.29965 0.7249 0.19564 0.0
C64 C 0.27835 0.66521 0.29012 0.0
C65 C 0.37113 0.73943 0.2937 0.0
O66 O 0.35899 0.72441 0.26722 0.0
O67 O 0.35185 0.74724 0.31473 0.0
O68 O 0.31583 0.70263 0.20276 0.0
O69 O 0.28796 0.74013 0.219 0.0
O70 O 0.46605 0.96564 0.40048 0.0
Cd71 Cd 0.4894 0.9627 0.44594 0.0
Cd72 Cd 0.5117 0.02597 0.44326 0.0
O73 O 0.48471 0.01501 0.39874 0.0
O74 O 0.46778 0.92498 0.46399 0.0
O75 O 0.46833 0.97209 0.48724 0.0
C76 C 0.46022 0.94265 0.48778 0.0
C77 C 0.51156 0.07758 0.46322 0.0
C78 C 0.46833 0.98991 0.38547 0.0
C79 C 0.56383 0.98198 0.44968 0.0
O80 O 0.55741 0.00954 0.44959 0.0
O81 O 0.54009 0.95959 0.44795 0.0
O82 O 0.52789 0.07022 0.43909 0.0
O83 O 0.49538 0.05543 0.47691 0.0
O84 O 0.31899 0.35443 0.8229 0.0
Cd85 Cd 0.29865 0.30837 0.82155 0.0
Cd86 Cd 0.28592 0.31282 0.75674 0.0
O87 O 0.31233 0.35593 0.76988 0.0
O88 O 0.31996 0.28721 0.85667 0.0
O89 O 0.32279 0.27444 0.8044 0.0
C90 C 0.32958 0.26921 0.83424 0.0
C91 C 0.29279 0.29203 0.70435 0.0
C92 C 0.32237 0.3691 0.79784 0.0
C93 C 0.22666 0.29903 0.79728 0.0
O94 O 0.23727 0.30442 0.76997 0.0
O95 O 0.24722 0.29871 0.82193 0.0
O96 O 0.27662 0.31502 0.70939 0.0
O97 O 0.30563 0.28056 0.72932 0.0
O98 O 0.01619 0.01353 0.91096 0.0
Cd99 Cd 0.99776 0.01676 0.95609 0.0
Cd100 Cd 0.98137 0.95242 0.94223 0.0
O101 O 0.00804 0.96274 0.90311 0.0
O102 O 0.01832 0.05746 0.97844 0.0
O103 O 0.02714 0.01295 0.99666 0.0
C104 C 0.03259 0.04274 1.00006 0.0
C105 C 0.98524 0.9037 0.96091 0.0
C106 C 0.01859 0.98888 0.89371 0.0
C107 C 0.9246 0.99128 0.94902 0.0
O108 O 0.9339 0.96522 0.94218 0.0
O109 O 0.94624 0.01503 0.95682 0.0
O110 O 0.96985 0.9069 0.93339 0.0
O111 O 0.99897 0.92841 0.97825 0.0
O112 O 0.78122 0.18467 0.81193 0.0
Cd113 Cd 0.79741 0.23091 0.80738 0.0
Cd114 Cd 0.80409 0.2094 0.74686 0.0
O115 O 0.77429 0.17107 0.75949 0.0
O116 O 0.77862 0.2557 0.84181 0.0
O117 O 0.76534 0.25803 0.78944 0.0
C118 C 0.76183 0.2672 0.81913 0.0
C119 C 0.79634 0.22468 0.69439 0.0
C120 C 0.77119 0.16447 0.78845 0.0
C121 C 0.86712 0.2329 0.79019 0.0
O122 O 0.85391 0.21603 0.76512 0.0
O123 O 0.8487 0.24459 0.80986 0.0
O124 O 0.80784 0.19945 0.69992 0.0
O125 O 0.78789 0.24107 0.71876 0.0
O126 O 0.97474 0.48046 0.90191 0.0
Cd127 Cd 0.99688 0.47677 0.94784 0.0
Cd128 Cd 0.01977 0.53956 0.94679 0.0
O129 O 0.99662 0.52907 0.90062 0.0
O130 O 0.97461 0.43883 0.96504 0.0
O131 O 0.97455 0.48575 0.9885 0.0
C132 C 0.96645 0.45628 0.9887 0.0
C133 C 0.01639 0.59023 0.96765 0.0
C134 C 0.97953 0.50455 0.88677 0.0
C135 C 0.0716 0.49625 0.9557 0.0
O136 O 0.06529 0.52385 0.95622 0.0
O137 O 0.04779 0.47383 0.95171 0.0
O138 O -0.00026 0.56714 0.9795 0.0
O139 O 0.03507 0.58431 0.94488 0.0
O140 O 0.82378 0.85908 0.32411 0.0
Cd141 Cd 0.80207 0.81335 0.32289 0.0
Cd142 Cd 0.78783 0.81912 0.25828 0.0
O143 O 0.81698 0.86099 0.27115 0.0
O144 O 0.82348 0.79215 0.35797 0.0
O145 O 0.82506 0.77853 0.30572 0.0
C146 C 0.83245 0.7737 0.33558 0.0
C147 C 0.79175 0.79832 0.20516 0.0
C148 C 0.82771 0.87374 0.29912 0.0
C149 C 0.72971 0.80771 0.30074 0.0
O150 O 0.73975 0.81353 0.27331 0.0
O151 O 0.75064 0.80528 0.32452 0.0
O152 O 0.77723 0.8222 0.2112 0.0
O153 O 0.80448 0.78587 0.2295 0.0
O154 O 0.05903 0.47735 0.43366 0.0
Cd155 Cd 0.00813 0.46807 0.43916 0.0
Cd156 Cd 0.0295 0.47064 0.50142 0.0
O157 O 0.07365 0.49109 0.48537 0.0
O158 O 0.98278 0.48598 0.4039 0.0
O159 O 0.9851 0.50302 0.45572 0.0
C160 C 0.97506 0.50561 0.42587 0.0
C161 C 0.01434 0.48643 0.55279 0.0
C162 C 0.08142 0.48824 0.45632 0.0
C163 C 0.00031 0.40857 0.46686 0.0
O164 O 0.01829 0.42374 0.49071 0.0
O165 O 0.98942 0.42244 0.44333 0.0
O166 O 0.04072 0.47335 0.54914 0.0
O167 O 0.99695 0.49197 0.52703 0.0
O168 O 0.50638 0.46977 0.03262 0.0
Cd169 Cd 0.49223 0.46854 0.98362 0.0
Cd170 Cd 0.4906 0.53025 0.00167 0.0
O171 O 0.5205 0.52017 0.04106 0.0
O172 O 0.50551 0.42967 0.96419 0.0
O173 O 0.52759 0.47583 0.95215 0.0
C174 C 0.52649 0.44623 0.94843 0.0
C175 C 0.4978 0.58085 0.98622 0.0
C176 C 0.51984 0.49341 0.05082 0.0
C177 C 0.42501 0.48749 0.98167 0.0
O178 O 0.44014 0.51214 0.99708 0.0
O179 O 0.4417 0.46721 0.97033 0.0
O180 O 0.4867 0.5743 0.01342 0.0
O181 O 0.50659 0.55873 0.96798 0.0
O182 O 0.84151 0.739 0.7824 0.0
Cd183 Cd 0.79328 0.73586 0.79677 0.0
Cd184 Cd 0.81204 0.79966 0.81045 0.0
O185 O 0.85022 0.78977 0.78242 0.0
O186 O 0.76767 0.69609 0.77673 0.0
O187 O 0.75634 0.74174 0.76331 0.0
C188 C 0.75001 0.71203 0.75913 0.0
C189 C 0.79471 0.84838 0.80782 0.0
C190 C 0.85932 0.76355 0.77592 0.0
C191 C 0.79993 0.75897 0.8661 0.0
O192 O 0.81151 0.78469 0.85639 0.0
O193 O 0.7884 0.73626 0.84581 0.0
O194 O 0.82332 0.84492 0.82202 0.0
O195 O 0.7759 0.82409 0.79406 0.0
O196 O 0.73785 0.29522 0.28821 0.0
Cd197 Cd 0.78909 0.29837 0.29818 0.0
Cd198 Cd 0.7732 0.23489 0.29753 0.0
O199 O 0.72925 0.2452 0.27383 0.0
O200 O 0.80991 0.33668 0.28069 0.0
O201 O 0.81701 0.2898 0.26139 0.0
C202 C 0.82238 0.3193 0.25965 0.0
C203 C 0.78782 0.18538 0.28656 0.0
C204 C 0.71862 0.27119 0.27604 0.0
C205 C 0.79849 0.27413 0.36131 0.0
O206 O 0.78422 0.24898 0.34622 0.0
O207 O 0.80582 0.29781 0.34613 0.0
O208 O 0.76128 0.18977 0.30063 0.0
O209 O 0.80563 0.20914 0.27701 0.0
O210 O 0.52239 0.5077 0.40843 0.0
Cd211 Cd 0.50496 0.50635 0.45385 0.0
Cd212 Cd 0.49262 0.44295 0.43491 0.0
O213 O 0.52184 0.45746 0.3986 0.0
O214 O 0.52058 0.54713 0.47853 0.0
O215 O 0.53713 0.50359 0.49281 0.0
C216 C 0.53807 0.53304 0.49833 0.0
C217 C 0.49777 0.3941 0.45245 0.0
C218 C 0.5289 0.48479 0.39063 0.0
C219 C 0.433 0.47741 0.44354 0.0
O220 O 0.44377 0.45295 0.43312 0.0
O221 O 0.45352 0.50085 0.45512 0.0
O222 O 0.4844 0.39753 0.42409 0.0
O223 O 0.50922 0.41869 0.47107 0.0
H224 H 0.24245 0.14807 0.24467 0.0
H225 H 0.20271 0.12061 0.2014 0.0
H226 H 0.17382 0.20689 0.17458 0.0
H227 H 0.21378 0.2347 0.21781 0.0
H228 H 0.13188 0.12027 0.19015 0.0
H229 H 0.2013 0.16613 0.08949 0.0
H230 H 0.22014 0.16876 0.1306 0.0
H231 H 0.19125 0.19467 0.11911 0.0
C232 C 0.22761 0.16128 0.22966 0.0
C233 C 0.23145 0.19364 0.23461 0.0
C234 C 0.20487 0.1455 0.20495 0.0
C235 C 0.18566 0.16172 0.18449 0.0
C236 C 0.18882 0.19397 0.18976 0.0
H237 H 0.04569 0.10504 0.01453 0.0
H238 H 0.08162 0.13337 0.06 0.0
C239 C 0.21153 0.2098 0.21459 0.0
C240 C 0.16255 0.14474 0.15756 0.0
H241 H 0.1491 0.1348 0.07509 0.0
C242 C 0.13561 0.1234 0.16498 0.0
C243 C 0.16752 0.14886 0.12476 0.0
C244 C 0.19675 0.17064 0.11534 0.0
C245 C 0.11319 0.10638 0.14047 0.0
C246 C 0.11831 0.11033 0.10762 0.0
C247 C 0.1452 0.13176 0.10025 0.0
C248 C 0.09594 0.0927 0.08047 0.0
C249 C 0.08383 0.08485 0.15 0.0
C250 C 0.09222 0.06034 0.07662 0.0
C251 C 0.07153 0.044 0.05062 0.0
C252 C 0.05442 0.05974 0.02782 0.0
C253 C 0.05845 0.09215 0.03164 0.0
C254 C 0.07901 0.10842 0.05764 0.0
H255 H 0.07821 0.09072 0.17531 0.0
H256 H 0.06083 0.08543 0.13363 0.0
H257 H 0.09002 0.06095 0.1483 0.0
H258 H 0.10563 0.04771 0.0935 0.0
H259 H 0.06915 0.01907 0.04828 0.0
H260 H 0.08079 0.96669 0.43277 0.0
H261 H 0.12175 0.93921 0.4061 0.0
H262 H 0.0527 0.85455 0.40079 0.0
H263 H 0.01255 0.88157 0.4287 0.0
H264 H 0.1112 0.84542 0.42464 0.0
H265 H 0.12984 0.90749 0.31497 0.0
H266 H 0.13803 0.93286 0.35138 0.0
H267 H 0.09618 0.91292 0.34023 0.0
C268 C 0.07423 0.94231 0.42544 0.0
C269 C 0.04359 0.92622 0.43292 0.0
C270 C 0.09755 0.92665 0.40998 0.0
C271 C 0.09021 0.89481 0.40101 0.0
C272 C 0.05901 0.87907 0.40746 0.0
H273 H 0.21081 0.78261 0.28749 0.0
H274 H 0.16871 0.81443 0.30509 0.0
C275 C 0.03606 0.89454 0.42342 0.0
C276 C 0.11593 0.87719 0.38766 0.0
H277 H 0.17018 0.87395 0.32843 0.0
C278 C 0.12385 0.85159 0.40343 0.0
C279 C 0.13226 0.88493 0.35977 0.0
C280 C 0.1234 0.91085 0.34041 0.0
C281 C 0.14774 0.83373 0.3924 0.0
C282 C 0.16531 0.84235 0.36552 0.0
C283 C 0.15707 0.86763 0.34933 0.0
C284 C 0.19216 0.82521 0.35396 0.0
C285 C 0.15333 0.80539 0.40937 0.0
C286 C 0.21984 0.82151 0.37523 0.0
C287 C 0.2435 0.803 0.36544 0.0
C288 C 0.24042 0.78839 0.33389 0.0
C289 C 0.21375 0.79349 0.31199 0.0
C290 C 0.18973 0.81168 0.322 0.0
H291 H 0.13114 0.79683 0.4222 0.0
H292 H 0.15852 0.78648 0.39203 0.0
H293 H 0.17522 0.81123 0.42771 0.0
H294 H 0.22283 0.83249 0.39969 0.0
H295 H 0.26408 0.79992 0.38271 0.0
H296 H 0.44252 0.97302 0.54265 0.0
H297 H 0.41871 0.95018 0.58933 0.0
H298 H 0.41851 0.85923 0.54242 0.0
H299 H 0.44175 0.88177 0.49558 0.0
H300 H 0.35923 0.86602 0.56996 0.0
H301 H 0.4697 0.90788 0.65784 0.0
H302 H 0.4528 0.93765 0.63723 0.0
H303 H 0.47147 0.90882 0.61466 0.0
C304 C 0.43729 0.94816 0.54223 0.0
C305 C 0.44416 0.92923 0.51543 0.0
C306 C 0.42394 0.93514 0.56903 0.0
C307 C 0.41745 0.90298 0.56962 0.0
C308 C 0.42354 0.88409 0.54259 0.0
H309 H 0.33572 0.77674 0.70576 0.0
H310 H 0.36287 0.79939 0.66062 0.0
C311 C 0.43682 0.89705 0.51581 0.0
C312 C 0.40391 0.88886 0.59814 0.0
H313 H 0.42095 0.88341 0.67915 0.0
C314 C 0.37278 0.8697 0.5938 0.0
C315 C 0.42167 0.89367 0.62923 0.0
C316 C 0.45591 0.91289 0.63509 0.0
C317 C 0.35862 0.85568 0.61981 0.0
C318 C 0.37635 0.86053 0.65089 0.0
C319 C 0.40747 0.87967 0.65527 0.0
C320 C 0.36244 0.84663 0.67934 0.0
C321 C 0.32442 0.83638 0.61395 0.0
C322 C 0.35448 0.86566 0.70544 0.0
C323 C 0.33918 0.85282 0.73133 0.0
C324 C 0.33169 0.82064 0.7317 0.0
C325 C 0.34103 0.8016 0.70617 0.0
C326 C 0.35631 0.81449 0.68024 0.0
H327 H 0.31089 0.84078 0.59082 0.0
H328 H 0.32753 0.81162 0.61269 0.0
H329 H 0.30859 0.84101 0.63403 0.0
H330 H 0.3592 0.8905 0.70533 0.0
H331 H 0.33243 0.86817 0.75063 0.0
H332 H 0.44914 0.01352 0.85755 0.0
H333 H 0.42576 0.05999 0.84411 0.0
H334 H 0.41738 0.08401 0.94537 0.0
H335 H 0.44113 0.03766 0.95916 0.0
H336 H 0.36424 0.08048 0.85711 0.0
H337 H 0.47395 0.16068 0.91648 0.0
H338 H 0.47522 0.11999 0.90788 0.0
H339 H 0.45468 0.13346 0.94203 0.0
C340 C 0.44212 0.02854 0.877 0.0
C341 C 0.44722 0.02197 0.90947 0.0
C342 C 0.42877 0.05511 0.86924 0.0
C343 C 0.42043 0.07572 0.89377 0.0
C344 C 0.4243 0.0687 0.92612 0.0
H345 H 0.34522 0.25162 0.89456 0.0
H346 H 0.36747 0.2047 0.90832 0.0
C347 C 0.43764 0.04208 0.93393 0.0
C348 C 0.40814 0.10474 0.88538 0.0
H349 H 0.42748 0.18315 0.89558 0.0
C350 C 0.37807 0.10294 0.86544 0.0
C351 C 0.42631 0.13399 0.89624 0.0
C352 C 0.45949 0.13731 0.91661 0.0
C353 C 0.36533 0.12964 0.85653 0.0
C354 C 0.38355 0.1589 0.86732 0.0
C355 C 0.41361 0.16069 0.88729 0.0
C356 C 0.37148 0.18796 0.85868 0.0
C357 C 0.3321 0.12628 0.83625 0.0
C358 C 0.36719 0.19455 0.82621 0.0
C359 C 0.35444 0.2214 0.81822 0.0
C360 C 0.34596 0.24223 0.84261 0.0
C361 C 0.35142 0.23605 0.87516 0.0
C362 C 0.36411 0.20922 0.8831 0.0
H363 H 0.31742 0.10309 0.83696 0.0
H364 H 0.3166 0.14395 0.84461 0.0
H365 H 0.33684 0.12947 0.81069 0.0
H366 H 0.37344 0.1788 0.80702 0.0
H367 H 0.35069 0.22553 0.79293 0.0
H368 H 0.72451 0.2978 0.77754 0.0
H369 H 0.68615 0.33471 0.79174 0.0
H370 H 0.70859 0.32405 0.89304 0.0
H371 H 0.74724 0.28786 0.8792 0.0
H372 H 0.62957 0.32588 0.82297 0.0
H373 H 0.72028 0.41666 0.8931 0.0
H374 H 0.73351 0.38625 0.86753 0.0
H375 H 0.72295 0.37977 0.90805 0.0
C376 C 0.72148 0.30356 0.80285 0.0
C377 C 0.73905 0.28998 0.82725 0.0
C378 C 0.69958 0.32466 0.81091 0.0
C379 C 0.69501 0.33264 0.84348 0.0
C380 C 0.71241 0.31896 0.86779 0.0
H381 H 0.53036 0.38492 0.93811 0.0
H382 H 0.57039 0.36036 0.90767 0.0
C383 C 0.73433 0.29803 0.8598 0.0
C384 C 0.67059 0.35375 0.85232 0.0
H385 H 0.66193 0.41595 0.90379 0.0
C386 C 0.63674 0.34589 0.84022 0.0
C387 C 0.67997 0.38028 0.87426 0.0
C388 C 0.71624 0.39143 0.88619 0.0
C389 C 0.61176 0.36266 0.85106 0.0
C390 C 0.62077 0.38752 0.87518 0.0
C391 C 0.65489 0.39661 0.88568 0.0
C392 C 0.59511 0.40272 0.89172 0.0
C393 C 0.57589 0.35328 0.83686 0.0
C394 C 0.59605 0.43489 0.89354 0.0
C395 C 0.57328 0.44915 0.91135 0.0
C396 C 0.54934 0.43146 0.92779 0.0
C397 C 0.54829 0.39925 0.92558 0.0
C398 C 0.57103 0.38509 0.90792 0.0
H399 H 0.57494 0.34215 0.81184 0.0
H400 H 0.56294 0.33627 0.85181 0.0
H401 H 0.56185 0.37338 0.83633 0.0
H402 H 0.61462 0.44898 0.88147 0.0
H403 H 0.57481 0.47401 0.91266 0.0
H404 H 0.94699 0.48621 0.04298 0.0
H405 H 0.92303 0.46302 0.08939 0.0
H406 H 0.92542 0.37233 0.04295 0.0
H407 H 0.94877 0.39522 0.99633 0.0
H408 H 0.8659 0.37737 0.07027 0.0
H409 H 0.97513 0.42259 0.15838 0.0
H410 H 0.95723 0.45176 0.13763 0.0
H411 H 0.97693 0.42355 0.11521 0.0
C412 C 0.94225 0.46134 0.04258 0.0
C413 C 0.94994 0.44259 0.016 0.0
C414 C 0.92881 0.44811 0.06924 0.0
C415 C 0.92307 0.41593 0.06993 0.0
C416 C 0.92986 0.3972 0.04305 0.0
H417 H 0.84639 0.28916 0.208 0.0
H418 H 0.87187 0.31203 0.16211 0.0
C419 C 0.9432 0.41037 0.01639 0.0
C420 C 0.90984 0.40164 0.09851 0.0
H421 H 0.92679 0.39735 0.17973 0.0
C422 C 0.87927 0.38163 0.09418 0.0
C423 C 0.9274 0.40714 0.12968 0.0
C424 C 0.96114 0.42719 0.13557 0.0
C425 C 0.86544 0.36746 0.12027 0.0
C426 C 0.88291 0.37309 0.15144 0.0
C427 C 0.91349 0.39305 0.15579 0.0
C428 C 0.86935 0.35912 0.18001 0.0
C429 C 0.83185 0.34714 0.1144 0.0
C430 C 0.8606 0.37805 0.20581 0.0
C431 C 0.84621 0.36509 0.23209 0.0
C432 C 0.84048 0.33291 0.23321 0.0
C433 C 0.85037 0.31402 0.20785 0.0
C434 C 0.86471 0.32703 0.1815 0.0
H435 H 0.81825 0.35076 0.09103 0.0
H436 H 0.83593 0.32263 0.11369 0.0
H437 H 0.81564 0.35152 0.13424 0.0
H438 H 0.86416 0.40288 0.20524 0.0
H439 H 0.83899 0.38033 0.25124 0.0
H440 H 0.95715 0.55204 0.46587 0.0
H441 H 0.9318 0.59693 0.45009 0.0
H442 H 0.92722 0.5628 0.34963 0.0
H443 H 0.95282 0.51801 0.36511 0.0
H444 H 0.95624 0.62458 0.36212 0.0
H445 H 0.83449 0.60318 0.41683 0.0
H446 H 0.87093 0.6021 0.44427 0.0
H447 H 0.86096 0.57355 0.41041 0.0
C448 C 0.95036 0.55386 0.44044 0.0
C449 C 0.95697 0.53139 0.41676 0.0
C450 C 0.93575 0.5795 0.43148 0.0
C451 C 0.92731 0.58306 0.3987 0.0
C452 C 0.93343 0.56045 0.37506 0.0
H453 H 0.84988 0.72775 0.29456 0.0
H454 H 0.87374 0.68174 0.30924 0.0
C455 C 0.94799 0.53482 0.38399 0.0
C456 C 0.91371 0.61109 0.38891 0.0
H457 H 0.84798 0.65211 0.39684 0.0
C458 C 0.93248 0.63054 0.36954 0.0
C459 C 0.88276 0.61884 0.39871 0.0
C460 C 0.86091 0.59822 0.41846 0.0
C461 C 0.92147 0.65788 0.36024 0.0
C462 C 0.89055 0.66567 0.37009 0.0
C463 C 0.87172 0.64614 0.38936 0.0
C464 C 0.8773 0.69409 0.36092 0.0
C465 C 0.94349 0.67856 0.34066 0.0
C466 C 0.87097 0.71614 0.38505 0.0
C467 C 0.85717 0.74233 0.37675 0.0
C468 C 0.84925 0.74698 0.34409 0.0
C469 C 0.85593 0.72501 0.31991 0.0
C470 C 0.86969 0.69874 0.32827 0.0
H471 H 0.9699 0.67358 0.34242 0.0
H472 H 0.93363 0.67475 0.31481 0.0
H473 H 0.94344 0.70321 0.34878 0.0
H474 H 0.87656 0.71298 0.41039 0.0
H475 H 0.85228 0.75874 0.396 0.0
H476 H 0.60155 0.52654 0.52223 0.0
H477 H 0.63597 0.55789 0.56703 0.0
H478 H 0.55316 0.6086 0.58406 0.0
H479 H 0.52006 0.5791 0.53748 0.0
H480 H 0.60447 0.64681 0.59022 0.0
H481 H 0.63795 0.55172 0.65998 0.0
H482 H 0.65275 0.54803 0.62055 0.0
H483 H 0.6081 0.54503 0.62482 0.0
C484 C 0.59078 0.5443 0.53575 0.0
C485 C 0.55819 0.55038 0.52662 0.0
C486 C 0.61032 0.56205 0.5616 0.0
C487 C 0.59704 0.58524 0.57976 0.0
C488 C 0.56418 0.59094 0.57066 0.0
H489 H 0.70255 0.66319 0.76504 0.0
H490 H 0.66266 0.63465 0.72238 0.0
C491 C 0.54517 0.57399 0.54411 0.0
C492 C 0.61763 0.60446 0.6073 0.0
H493 H 0.67084 0.60101 0.67452 0.0
C494 C 0.61859 0.63667 0.60888 0.0
C495 C 0.63571 0.59152 0.63221 0.0
C496 C 0.63325 0.55718 0.6345 0.0
C497 C 0.63714 0.65614 0.63425 0.0
C498 C 0.65715 0.64334 0.65783 0.0
C499 C 0.65595 0.61112 0.6564 0.0
C500 C 0.67939 0.66262 0.68428 0.0
C501 C 0.63398 0.69006 0.63582 0.0
C502 C 0.70193 0.68826 0.67753 0.0
C503 C 0.72366 0.70538 0.70228 0.0
C504 C 0.72438 0.69636 0.73395 0.0
C505 C 0.70227 0.67064 0.74077 0.0
C506 C 0.67965 0.65424 0.71631 0.0
H507 H 0.60922 0.69398 0.62435 0.0
H508 H 0.63671 0.7006 0.66117 0.0
H509 H 0.65374 0.7021 0.62225 0.0
H510 H 0.70346 0.69463 0.653 0.0
H511 H 0.74104 0.72477 0.69637 0.0
H512 H 0.32878 0.29814 0.41865 0.0
H513 H 0.33094 0.29098 0.47616 0.0
H514 H 0.28702 0.19592 0.45466 0.0
H515 H 0.28442 0.20294 0.39655 0.0
H516 H 0.25565 0.22578 0.50076 0.0
H517 H 0.3928 0.24719 0.53269 0.0
H518 H 0.37952 0.27789 0.51108 0.0
H519 H 0.3747 0.23945 0.49131 0.0
C520 C 0.31971 0.2756 0.42598 0.0
C521 C 0.30636 0.25111 0.40291 0.0
C522 C 0.32135 0.27146 0.45895 0.0
C523 C 0.3099 0.24273 0.46969 0.0
C524 C 0.29643 0.21818 0.44683 0.0
H525 H 0.32763 0.2453 0.68372 0.0
H526 H 0.33216 0.22567 0.62739 0.0
C527 C 0.29483 0.22227 0.41368 0.0
C528 C 0.30936 0.23961 0.5049 0.0
H529 H 0.35771 0.25865 0.57649 0.0
C530 C 0.27809 0.23221 0.51731 0.0
C531 C 0.33871 0.24733 0.52654 0.0
C532 C 0.37335 0.25306 0.51466 0.0
C533 C 0.275 0.23502 0.55073 0.0
C534 C 0.30382 0.24602 0.57217 0.0
C535 C 0.33553 0.25072 0.55998 0.0
C536 C 0.30081 0.25668 0.60635 0.0
C537 C 0.24064 0.2274 0.56271 0.0
C538 C 0.28227 0.28089 0.61302 0.0
C539 C 0.27976 0.29212 0.64483 0.0
C540 C 0.29593 0.27953 0.67082 0.0
C541 C 0.31479 0.25538 0.6642 0.0
C542 C 0.31738 0.24415 0.63211 0.0
H543 H 0.22431 0.20989 0.54575 0.0
H544 H 0.24241 0.21865 0.58707 0.0
H545 H 0.2283 0.24853 0.56432 0.0
H546 H 0.26998 0.29141 0.59348 0.0
H547 H 0.26517 0.31083 0.64897 0.0
H548 H 0.02687 0.03914 0.85839 0.0
H549 H 0.03384 0.03896 0.80042 0.0
H550 H 0.04239 0.942 0.79601 0.0
H551 H 0.03474 0.94177 0.85375 0.0
H552 H 0.08167 0.02156 0.75863 0.0
H553 H 0.95874 0.94564 0.73477 0.0
H554 H 0.9733 0.96471 0.77422 0.0
H555 H 0.98976 0.93055 0.75998 0.0
C556 C 0.0309 0.0179 0.84526 0.0
C557 C 0.02967 0.99035 0.8606 0.0
C558 C 0.03486 0.01784 0.8121 0.0
C559 C 0.03779 0.99031 0.79381 0.0
C560 C 0.03934 0.96334 0.80956 0.0
H561 H 0.01566 0.9457 0.58447 0.0
H562 H 0.02952 0.94403 0.64257 0.0
C563 C 0.03511 0.9633 0.84261 0.0
C564 C 0.03632 0.9893 0.75799 0.0
H565 H 0.98752 0.95862 0.68945 0.0
C566 C 0.0612 0.00771 0.74345 0.0
C567 C 0.00948 0.97127 0.73827 0.0
C568 C 0.98112 0.95211 0.75251 0.0
C569 C 0.05995 0.00854 0.70964 0.0
C570 C 0.03286 0.99083 0.69002 0.0
C571 C 0.00836 0.97203 0.70455 0.0
C572 C 0.02818 0.9926 0.65452 0.0
C573 C 0.0877 0.02822 0.6952 0.0
C574 C 0.0229 0.02048 0.64196 0.0
C575 C 0.01488 0.02152 0.60879 0.0
C576 C 0.01177 0.99463 0.58751 0.0
C577 C 0.01783 0.96685 0.60011 0.0
C578 C 0.0258 0.96584 0.63332 0.0
H579 H 0.11099 0.03296 0.71198 0.0
H580 H 0.09374 0.01699 0.67194 0.0
H581 H 0.07935 0.05064 0.6904 0.0
H582 H 0.02385 0.04126 0.65795 0.0
H583 H 0.01034 0.04331 0.59998 0.0
H584 H 0.22232 0.74283 0.89304 0.0
H585 H 0.22476 0.74246 0.95175 0.0
H586 H 0.32726 0.78825 0.95956 0.0
H587 H 0.3243 0.78996 0.90053 0.0
H588 H 0.26304 0.71265 0.98683 0.0
H589 H 0.29036 0.83617 0.03124 0.0
H590 H 0.27731 0.82345 0.98935 0.0
H591 H 0.32053 0.8246 0.00483 0.0
C592 C 0.24524 0.75324 0.9073 0.0
C593 C 0.27317 0.76637 0.89227 0.0
C594 C 0.24659 0.75305 0.94087 0.0
C595 C 0.27605 0.76558 0.9602 0.0
C596 C 0.30392 0.77917 0.94529 0.0
H597 H 0.33146 0.70354 0.14509 0.0
H598 H 0.32497 0.71527 0.08887 0.0
C599 C 0.30233 0.77994 0.91156 0.0
C600 C 0.27822 0.7617 0.99544 0.0
H601 H 0.29757 0.7999 0.07061 0.0
C602 C 0.27031 0.73183 0.00509 0.0
C603 C 0.28728 0.78673 0.01937 0.0
C604 C 0.29401 0.81958 0.01072 0.0
C605 C 0.27173 0.72617 0.03783 0.0
C606 C 0.2825 0.75091 0.06169 0.0
C607 C 0.28968 0.78093 0.05223 0.0
C608 C 0.28759 0.74562 0.09639 0.0
C609 C 0.26134 0.69371 0.04648 0.0
C610 C 0.2697 0.75981 0.11963 0.0
C611 C 0.27366 0.75341 0.15212 0.0
C612 C 0.29554 0.73269 0.16171 0.0
C613 C 0.31399 0.71922 0.13844 0.0
C614 C 0.31027 0.72583 0.10623 0.0
H615 H 0.24405 0.67999 0.02696 0.0
H616 H 0.28405 0.68206 0.04981 0.0
H617 H 0.24868 0.69359 0.06931 0.0
H618 H 0.25224 0.77534 0.11252 0.0
H619 H 0.25929 0.76428 0.16956 0.0
H620 H 0.45181 0.93865 0.34257 0.0
H621 H 0.44579 0.93768 0.28344 0.0
H622 H 0.45192 0.03667 0.29054 0.0
H623 H 0.45856 0.03796 0.34956 0.0
H624 H 0.40386 0.96131 0.23429 0.0
H625 H 0.53671 0.01867 0.24654 0.0
H626 H 0.51685 0.00207 0.27985 0.0
H627 H 0.50784 0.03876 0.26786 0.0
C628 C 0.45095 0.96015 0.33159 0.0
C629 C 0.45629 0.98843 0.35074 0.0
C630 C 0.44752 0.95955 0.29778 0.0
C631 C 0.44917 0.98717 0.28268 0.0
C632 C 0.45123 0.01516 0.30176 0.0
H633 H 0.44618 0.99555 0.0704 0.0
H634 H 0.43172 0.00345 0.1266 0.0
C635 C 0.45494 0.01582 0.33549 0.0
C636 C 0.45304 0.98694 0.24749 0.0
H637 H 0.51054 0.00737 0.19383 0.0
C638 C 0.427 0.97162 0.22533 0.0
C639 C 0.48349 1.00011 0.23599 0.0
C640 C 0.51298 0.01562 0.25872 0.0
C641 C 0.43082 0.96882 0.19191 0.0
C642 C 0.46135 0.98187 0.18054 0.0
C643 C 0.48706 0.99765 0.20266 0.0
C644 C 0.46875 0.97682 0.14632 0.0
C645 C 0.40284 0.95092 0.16912 0.0
C646 C 0.49458 0.95968 0.13898 0.0
C647 C 0.50296 0.9553 0.10721 0.0
C648 C 0.48577 0.9681 0.08198 0.0
C649 C 0.45987 0.9854 0.08931 0.0
C650 C 0.45143 0.98975 0.12132 0.0
H651 H 0.38287 0.93853 0.18226 0.0
H652 H 0.39121 0.96701 0.15387 0.0
H653 H 0.41295 0.93393 0.15274 0.0
H654 H 0.50832 0.9496 0.15795 0.0
H655 H 0.52301 0.94184 0.10249 0.0
H656 H 0.41044 0.22986 0.30032 0.0
H657 H 0.46941 0.2324 0.28957 0.0
H658 H 0.45688 0.3024 0.22378 0.0
H659 H 0.39838 0.30181 0.23708 0.0
H660 H 0.50184 0.2212 0.24263 0.0
H661 H 0.53515 0.34683 0.2763 0.0
H662 H 0.49429 0.32659 0.2816 0.0
H663 H 0.50434 0.3381 0.24233 0.0
C664 C 0.4203 0.24571 0.28348 0.0
C665 C 0.4001 0.2658 0.26969 0.0
C666 C 0.45404 0.24717 0.27728 0.0
C667 C 0.46812 0.26816 0.25641 0.0
C668 C 0.44721 0.28692 0.24098 0.0
H669 H 0.67815 0.24233 0.22375 0.0
H670 H 0.61764 0.24359 0.21211 0.0
C671 C 0.41368 0.2863 0.24821 0.0
C672 C 0.50476 0.27042 0.25184 0.0
H673 H 0.57813 0.32039 0.25822 0.0
C674 C 0.51852 0.24294 0.24615 0.0
C675 C 0.52669 0.29877 0.25636 0.0
C676 C 0.51445 0.32918 0.26479 0.0
C677 C 0.55343 0.24268 0.24689 0.0
C678 C 0.57535 0.27102 0.25125 0.0
C679 C 0.56145 0.29865 0.25491 0.0
C680 C 0.61269 0.27258 0.25559 0.0
C681 C 0.56621 0.21184 0.24515 0.0
C682 C 0.63069 0.29016 0.28258 0.0
C683 C 0.66539 0.29066 0.28829 0.0
C684 C 0.68273 0.27293 0.26763 0.0
C685 C 0.66512 0.25588 0.24022 0.0
C686 C 0.6305 0.25632 0.2338 0.0
H687 H 0.5469 0.19308 0.25116 0.0
H688 H 0.57255 0.20598 0.22013 0.0
H689 H 0.58904 0.21227 0.26202 0.0
H690 H 0.61777 0.30295 0.29983 0.0
H691 H 0.67842 0.30389 0.30969 0.0
H692 H 0.95287 0.36778 0.42842 0.0
H693 H 0.94297 0.31138 0.42924 0.0
H694 H 0.02458 0.31662 0.50388 0.0
H695 H 0.03373 0.37238 0.50408 0.0
H696 H 0.98398 0.26772 0.41748 0.0
H697 H 0.9511 0.26619 0.54434 0.0
H698 H 0.95142 0.30014 0.52238 0.0
H699 H 0.99003 0.29024 0.54096 0.0
C700 C 0.96846 0.35683 0.44515 0.0
C701 C 0.99375 0.37458 0.4665 0.0
C702 C 0.96283 0.32467 0.44557 0.0
C703 C 0.98251 0.30988 0.46721 0.0
C704 C 0.00832 0.32757 0.48778 0.0
H705 H 0.02407 0.1213 0.46145 0.0
H706 H 0.02313 0.17597 0.45351 0.0
C707 C 0.01363 0.35952 0.48771 0.0
C708 C 0.97702 0.27592 0.46811 0.0
H709 H 0.96719 0.21987 0.52041 0.0
C710 C 0.97984 0.25716 0.43986 0.0
C711 C 0.9711 0.26212 0.49719 0.0
C712 C 0.96537 0.2807 0.52783 0.0
C713 C 0.97828 0.22504 0.44025 0.0
C714 C 0.97465 0.21151 0.46987 0.0
C715 C 0.97051 0.23022 0.49778 0.0
C716 C 0.97481 0.17803 0.47278 0.0
C717 C 0.98028 0.20599 0.40889 0.0
C718 C 0.94848 0.16119 0.48696 0.0
C719 C 0.94945 0.13037 0.49227 0.0
C720 C 0.97662 0.11553 0.48324 0.0
C721 C 0.00276 0.13213 0.46851 0.0
C722 C 0.00205 0.16327 0.46367 0.0
H723 H 0.97213 0.21796 0.38765 0.0
H724 H 0.00676 0.20221 0.40665 0.0
H725 H 0.96442 0.18319 0.40804 0.0
H726 H 0.92723 0.17202 0.49424 0.0
H727 H 0.92875 0.11813 0.50343 0.0
H728 H 0.8885 0.79861 0.73148 0.0
H729 H 0.94497 0.79822 0.71321 0.0
H730 H 0.96165 0.72694 0.77627 0.0
H731 H 0.90448 0.72558 0.79222 0.0
H732 H 0.00079 0.81416 0.74188 0.0
H733 H 0.00207 0.69259 0.70236 0.0
H734 H 0.96343 0.70702 0.71071 0.0
H735 H 0.98956 0.69395 0.74273 0.0
C736 C 0.90408 0.78237 0.74071 0.0
C737 C 0.89217 0.7619 0.76295 0.0
C738 C 0.93635 0.78218 0.73036 0.0
C739 C 0.95761 0.76208 0.74275 0.0
C740 C 0.94552 0.74172 0.76512 0.0
H741 H 0.16578 0.80254 0.79418 0.0
H742 H 0.10592 0.80348 0.78181 0.0
C743 C 0.91289 0.74117 0.77456 0.0
C744 C 0.99341 0.76443 0.73507 0.0
H745 H 0.05663 0.72102 0.72497 0.0
C746 C 0.01276 0.79374 0.73738 0.0
C747 C 0.00929 0.73812 0.72792 0.0
C748 C 0.98977 0.70627 0.72039 0.0
C749 C 0.0477 0.79725 0.73527 0.0
C750 C 0.06413 0.7707 0.73277 0.0
C751 C 0.04446 0.74152 0.72785 0.0
C752 C 0.1014 0.77236 0.73815 0.0
C753 C 0.06638 0.82947 0.73589 0.0
C754 C 0.11906 0.7538 0.71847 0.0
C755 C 0.15319 0.75222 0.72644 0.0
C756 C 0.17046 0.76977 0.75374 0.0
C757 C 0.15323 0.78924 0.77262 0.0
C758 C 0.11895 0.79003 0.76531 0.0
H759 H 0.05057 0.84463 0.72336 0.0
H760 H 0.072 0.83941 0.76137 0.0
H761 H 0.09029 0.82982 0.72413 0.0
H762 H 0.10623 0.73983 0.69745 0.0
H763 H 0.16596 0.73695 0.71156 0.0
H764 H 0.50749 0.60085 0.92602 0.0
H765 H 0.5005 0.65189 0.90823 0.0
H766 H 0.48047 0.6825 0.00497 0.0
H767 H 0.48701 0.63192 0.02275 0.0
H768 H 0.4319 0.69389 0.95554 0.0
H769 H 0.56333 0.73493 0.92882 0.0
H770 H 0.54406 0.69781 0.91032 0.0
H771 H 0.55356 0.70329 0.95339 0.0
C772 C 0.50212 0.61864 0.94356 0.0
C773 C 0.4978 0.61234 0.97579 0.0
C774 C 0.49811 0.64775 0.93336 0.0
C775 C 0.48998 0.67096 0.95532 0.0
C776 C 0.48658 0.66487 0.98761 0.0
H777 H 0.4652 0.85442 0.99435 0.0
H778 H 0.46187 0.79847 0.98854 0.0
C779 C 0.49047 0.63594 0.99775 0.0
C780 C 0.48386 0.70146 0.94504 0.0
H781 H 0.52411 0.7698 0.92468 0.0
C782 C 0.45192 0.71036 0.94831 0.0
C783 C 0.50991 0.72277 0.9353 0.0
C784 C 0.54475 0.71448 0.93186 0.0
C785 C 0.4458 0.74047 0.94363 0.0
C786 C 0.47242 0.76232 0.93588 0.0
C787 C 0.50376 0.75294 0.93062 0.0
C788 C 0.46975 0.79569 0.93754 0.0
C789 C 0.41117 0.74893 0.94796 0.0
C790 C 0.47498 0.81273 0.91068 0.0
C791 C 0.47669 0.8449 0.91389 0.0
C792 C 0.47391 0.86046 0.9442 0.0
C793 C 0.46746 0.84313 0.97069 0.0
C794 C 0.46536 0.81111 0.96737 0.0
H795 H 0.39155 0.72838 0.94357 0.0
H796 H 0.41042 0.75878 0.97323 0.0
H797 H 0.40491 0.76641 0.93138 0.0
H798 H 0.47869 0.80123 0.88751 0.0
H799 H 0.48196 0.85764 0.89312 0.0
H800 H 0.68297 0.83707 0.27014 0.0
H801 H 0.62239 0.83057 0.2749 0.0
H802 H 0.63349 0.76264 0.34336 0.0
H803 H 0.69456 0.77067 0.34015 0.0
H804 H 0.57958 0.78403 0.25757 0.0
H805 H 0.5709 0.80927 0.38859 0.0
H806 H 0.60992 0.81738 0.37013 0.0
H807 H 0.59615 0.77921 0.38146 0.0
C808 C 0.67249 0.82106 0.28654 0.0
C809 C 0.69334 0.80434 0.30478 0.0
C810 C 0.63787 0.81737 0.28929 0.0
C811 C 0.62323 0.7964 0.30983 0.0
C812 C 0.64414 0.77969 0.32815 0.0
H813 H 0.4187 0.70761 0.2705 0.0
H814 H 0.47963 0.72219 0.27671 0.0
C815 C 0.679 0.78403 0.32606 0.0
C816 C 0.58596 0.79025 0.30974 0.0
H817 H 0.52116 0.78155 0.35839 0.0
C818 C 0.56689 0.7839 0.27969 0.0
C819 C 0.56912 0.79055 0.33847 0.0
C820 C 0.5876 0.79982 0.37142 0.0
C821 C 0.53173 0.77721 0.27752 0.0
C822 C 0.51511 0.77524 0.30627 0.0
C823 C 0.53396 0.78246 0.33636 0.0
C824 C 0.4783 0.76519 0.30538 0.0
C825 C 0.51286 0.77285 0.24431 0.0
C826 C 0.45735 0.78349 0.32123 0.0
C827 C 0.4224 0.77469 0.31849 0.0
C828 C 0.40798 0.74767 0.29951 0.0
C829 C 0.42911 0.72886 0.28476 0.0
C830 C 0.46393 0.73728 0.28811 0.0
H831 H 0.52734 0.78545 0.2265 0.0
H832 H 0.50901 0.74802 0.23566 0.0
H833 H 0.4879 0.78097 0.24468 0.0
H834 H 0.46793 0.80497 0.33497 0.0
H835 H 0.40664 0.78953 0.33018 0.0
H836 H 0.47703 0.10256 0.51125 0.0
H837 H 0.4736 0.15749 0.5246 0.0
H838 H 0.54012 0.18132 0.45092 0.0
H839 H 0.54425 0.1272 0.43809 0.0
H840 H 0.55587 0.21955 0.50636 0.0
H841 H 0.41873 0.20774 0.46785 0.0
H842 H 0.43094 0.18556 0.50025 0.0
H843 H 0.44313 0.17681 0.46028 0.0
C844 C 0.49112 0.11959 0.49816 0.0
C845 C 0.51072 0.11048 0.47346 0.0
C846 C 0.489 0.15093 0.50568 0.0
C847 C 0.50627 0.1735 0.48846 0.0
C848 C 0.52658 0.16437 0.46456 0.0
H849 H 0.48003 0.33967 0.41585 0.0
H850 H 0.481 0.28781 0.43228 0.0
C851 C 0.5288 0.13331 0.45716 0.0
C852 C 0.5027 0.20667 0.49375 0.0
H853 H 0.44753 0.25774 0.47911 0.0
C854 C 0.53209 0.22799 0.50102 0.0
C855 C 0.47161 0.21757 0.48674 0.0
C856 C 0.43927 0.19584 0.47813 0.0
C857 C 0.53169 0.25973 0.49921 0.0
C858 C 0.50089 0.27047 0.49062 0.0
C859 C 0.47111 0.24938 0.48563 0.0
C860 C 0.4997 0.30249 0.48196 0.0
C861 C 0.56459 0.28118 0.50423 0.0
C862 C 0.50988 0.32814 0.50448 0.0
C863 C 0.50968 0.3581 0.49501 0.0
C864 C 0.49901 0.36278 0.46296 0.0
C865 C 0.48849 0.33697 0.44071 0.0
C866 C 0.48885 0.30723 0.4501 0.0
H867 H 0.58669 0.26849 0.5056 0.0
H868 H 0.56698 0.29654 0.48426 0.0
H869 H 0.56528 0.29588 0.52724 0.0
H870 H 0.51788 0.32501 0.52933 0.0
H871 H 0.51763 0.37752 0.51278 0.0
H872 H 0.1935 0.26514 0.84063 0.0
H873 H 0.13242 0.25293 0.84251 0.0
H874 H 0.11659 0.30915 0.76348 0.0
H875 H 0.17732 0.32 0.76039 0.0
H876 H 0.08354 0.28518 0.85353 0.0
H877 H 0.06007 0.23119 0.72799 0.0
H878 H 0.10197 0.24179 0.74756 0.0
H879 H 0.08024 0.27016 0.72893 0.0
C880 C 0.1769 0.2748 0.82365 0.0
C881 C 0.19005 0.2931 0.80004 0.0
C882 C 0.14205 0.26786 0.82475 0.0
C883 C 0.11986 0.27945 0.80256 0.0
C884 C 0.13312 0.299 0.78006 0.0
H885 H 0.90604 0.28452 0.82006 0.0
H886 H 0.96763 0.29544 0.82514 0.0
C887 C 0.16784 0.30535 0.77845 0.0
C888 C 0.08289 0.27102 0.80271 0.0
H889 H 0.01187 0.24361 0.7535 0.0
C890 C 0.06785 0.27581 0.83174 0.0
C891 C 0.06248 0.25819 0.77443 0.0
C892 C 0.07708 0.24971 0.7431 0.0
C893 C 0.0329 0.26871 0.83312 0.0
C894 C 0.01231 0.25761 0.80438 0.0
C895 C 0.0275 0.25241 0.77551 0.0
C896 C 0.97504 0.2507 0.8034 0.0
C897 C 0.01868 0.27253 0.86552 0.0
C898 C 0.95855 0.22228 0.78878 0.0
C899 C 0.92348 0.21648 0.78486 0.0
C900 C 0.90411 0.23875 0.79606 0.0
C901 C 0.92045 0.26685 0.81155 0.0
C902 C 0.95565 0.27299 0.81471 0.0
H903 H 0.03789 0.27096 0.88576 0.0
H904 H 0.01057 0.29566 0.86862 0.0
H905 H 0.99664 0.25483 0.8674 0.0
H906 H 0.97285 0.20469 0.77986 0.0
H907 H 0.91148 0.19455 0.77299 0.0
H908 H 0.00825 0.88765 0.02054 0.0
H909 H 0.01083 0.83536 0.03686 0.0
H910 H 0.96918 0.79742 0.94131 0.0
H911 H 0.96559 0.84903 0.92531 0.0
H912 H 0.94089 0.76542 0.98761 0.0
H913 H 0.08063 0.78243 0.01056 0.0
H914 H 0.05867 0.80786 0.03421 0.0
H915 H 0.05845 0.81009 0.99121 0.0
C916 C -0.00037 0.8681 0.0031 0.0
C917 C 0.98696 0.8725 0.97157 0.0
C918 C 0.00121 0.83826 0.01241 0.0
C919 C 0.9906 0.81244 0.99017 0.0
C920 C 0.97745 0.81692 0.95893 0.0
H921 H 0.0465 0.64167 0.94367 0.0
H922 H 0.03906 0.69487 0.95732 0.0
C923 C 0.97557 0.84654 0.94976 0.0
C924 C 0.99397 0.78059 0.99831 0.0
H925 H 0.05257 0.73254 0.01224 0.0
C926 C 0.96523 0.75821 0.99352 0.0
C927 C 0.02577 0.7713 0.00607 0.0
C928 C 0.05773 0.79404 0.01062 0.0
C929 C 0.96767 0.72665 0.99394 0.0
C930 C -0.00031 0.71728 1.00025 0.0
C931 C 0.02807 0.73981 0.00741 0.0
C932 C 0.00521 0.68463 0.99437 0.0
C933 C 0.93631 0.70363 0.98531 0.0
C934 C 0.98904 0.66097 0.01101 0.0
C935 C 0.99299 0.63014 0.00293 0.0
C936 C 0.01346 0.62262 0.97834 0.0
C937 C 0.03047 0.64653 0.96267 0.0
C938 C 0.02634 0.67709 0.97054 0.0
H939 H 0.91495 0.71456 0.97512 0.0
H940 H 0.9411 0.68504 0.96737 0.0
H941 H 0.92861 0.69293 0.00742 0.0
H942 H 0.97309 0.66629 0.02991 0.0
H943 H 0.97972 0.61224 0.01558 0.0
H944 H 0.24689 0.36951 0.28199 0.0
H945 H 0.23411 0.42264 0.28184 0.0
H946 H 0.3184 0.45327 0.3523 0.0
H947 H 0.33157 0.40064 0.35245 0.0
H948 H 0.22327 0.46976 0.33443 0.0
H949 H 0.33836 0.49977 0.27066 0.0
H950 H 0.32004 0.46042 0.27368 0.0
H951 H 0.34486 0.48199 0.30772 0.0
C952 C 0.26249 0.38753 0.29766 0.0
C953 C 0.29057 0.38094 0.31679 0.0
C954 C 0.25504 0.41779 0.29769 0.0
C955 C 0.27552 0.44182 0.31687 0.0
C956 C 0.3025 0.43504 0.33715 0.0
H957 H 0.27301 0.63873 0.34767 0.0
H958 H 0.2656 0.5836 0.3551 0.0
C959 C 0.31004 0.40495 0.33705 0.0
C960 C 0.27087 0.47431 0.31348 0.0
H961 H 0.30915 0.54063 0.28688 0.0
C962 C 0.2419 0.4853 0.32392 0.0
C963 C 0.29521 0.4944 0.29964 0.0
C964 C 0.32626 0.4836 0.28701 0.0
C965 C 0.23691 0.51614 0.32112 0.0
C966 C 0.26156 0.53622 0.30772 0.0
C967 C 0.29033 0.52511 0.29718 0.0
C968 C 0.25846 0.56895 0.30387 0.0
C969 C 0.20533 0.5271 0.33208 0.0
C970 C 0.25606 0.57898 0.27267 0.0
C971 C 0.26036 0.61039 0.26833 0.0
C972 C 0.26746 0.63246 0.29516 0.0
C973 C 0.26764 0.62237 0.3265 0.0
C974 C 0.26327 0.59082 0.33081 0.0
H975 H 0.18738 0.50803 0.3396 0.0
H976 H 0.21195 0.54481 0.35284 0.0
H977 H 0.1927 0.5381 0.31224 0.0
H978 H 0.25252 0.56244 0.25159 0.0
H979 H 0.25976 0.61729 0.24385 0.0
H980 H 0.78745 0.13563 0.84222 0.0
H981 H 0.78105 0.08005 0.84687 0.0
H982 H 0.72409 0.06431 0.75355 0.0
H983 H 0.73183 0.1198 0.74806 0.0
H984 H 0.73143 0.03168 0.84571 0.0
H985 H 0.80277 0.01964 0.73726 0.0
H986 H 0.79813 0.05665 0.7568 0.0
H987 H 0.76453 0.03566 0.72951 0.0
C988 C 0.77296 0.12037 0.82298 0.0
C989 C 0.76061 0.13201 0.79453 0.0
C990 C 0.76934 0.08858 0.82566 0.0
C991 C 0.75295 0.06795 0.80013 0.0
C992 C 0.7378 0.07974 0.77308 0.0
H993 H 0.74489 0.86737 0.76858 0.0
H994 H 0.73005 0.9198 0.76758 0.0
C995 C 0.742 0.11146 0.77008 0.0
C996 C 0.75436 0.03437 0.80062 0.0
H997 H 0.78279 0.97383 0.75984 0.0
C998 C 0.74256 0.01903 0.82689 0.0
C999 C 0.7692 0.01786 0.77616 0.0
C1000 C 0.78469 0.03332 0.74852 0.0
C1001 C 0.74524 0.98769 0.82931 0.0
C1002 C 0.75991 0.97136 0.8048 0.0
C1003 C 0.77114 0.98645 0.77832 0.0
C1004 C 0.7664 0.93925 0.80727 0.0
C1005 C 0.73265 0.97223 0.8581 0.0
C1006 C 0.79178 0.93304 0.82981 0.0
C1007 C 0.80066 0.90341 0.83006 0.0
C1008 C 0.7841 0.87935 0.80794 0.0
C1009 C 0.75804 0.88544 0.78591 0.0
C1010 C 0.74951 0.91529 0.78536 0.0
H1011 H 0.7155 0.98575 0.87094 0.0
H1012 H 0.71918 0.94876 0.85051 0.0
H1013 H 0.75444 0.96987 0.87532 0.0
H1014 H 0.80538 0.95133 0.84663 0.0
H1015 H 0.8207 0.89942 0.84748 0.0
H1016 H 0.38236 0.52076 0.0122 0.0
H1017 H 0.32102 0.51338 0.00562 0.0
H1018 H 0.32148 0.43627 0.93519 0.0
H1019 H 0.38332 0.44334 0.94173 0.0
H1020 H 0.27941 0.48327 0.91713 0.0
H1021 H 0.25604 0.44114 0.03702 0.0
H1022 H 0.28673 0.47506 0.0387 0.0
H1023 H 0.29535 0.43947 0.01901 0.0
C1024 C 0.36954 0.50212 0.99537 0.0
C1025 C 0.38776 0.48257 0.97754 0.0
C1026 C 0.33445 0.49784 0.99181 0.0
C1027 C 0.31682 0.47402 0.97032 0.0
C1028 C 0.33475 0.45459 0.95216 0.0
H1029 H 0.09543 0.44093 0.9607 0.0
H1030 H 0.15423 0.43142 0.96201 0.0
C1031 C 0.37001 0.45867 0.95593 0.0
C1032 C 0.27967 0.47058 0.96617 0.0
H1033 H 0.21016 0.46021 0.00853 0.0
C1034 C 0.26414 0.47772 0.93688 0.0
C1035 C 0.25987 0.46304 0.9919 0.0
C1036 C 0.27525 0.45395 0.02336 0.0
C1037 C 0.22944 0.47925 0.93331 0.0
C1038 C 0.21003 0.47367 0.95979 0.0
C1039 C 0.22522 0.46476 0.9884 0.0
C1040 C 0.17452 0.47913 0.95901 0.0
C1041 C 0.21392 0.48755 0.90155 0.0
C1042 C 0.16672 0.50917 0.95762 0.0
C1043 C 0.13335 0.51475 0.95718 0.0
C1044 C 0.10707 0.49032 0.95805 0.0
C1045 C 0.11505 0.46024 0.95992 0.0
C1046 C 0.14857 0.45473 0.96061 0.0
H1047 H 0.2299 0.4834 0.88144 0.0
H1048 H 0.18854 0.47412 0.89535 0.0
H1049 H 0.2111 0.51239 0.90364 0.0
H1050 H 0.18652 0.52836 0.95695 0.0
H1051 H 0.12817 0.53819 0.95575 0.0
H1052 H 0.84943 0.16947 0.27309 0.0
H1053 H 0.86732 0.11813 0.27433 0.0
H1054 H 0.76786 0.08026 0.29603 0.0
H1055 H 0.74988 0.13106 0.29497 0.0
H1056 H 0.86164 0.07819 0.3307 0.0
H1057 H 0.79132 0.02537 0.21553 0.0
H1058 H 0.80213 0.06656 0.2243 0.0
H1059 H 0.76728 0.04622 0.24202 0.0
C1060 C 0.8313 0.15009 0.27768 0.0
C1061 C 0.79821 0.15428 0.2838 0.0
C1062 C 0.84162 0.12089 0.27861 0.0
C1063 C 0.81886 0.09549 0.28521 0.0
C1064 C 0.78573 0.09956 0.29071 0.0
H1065 H 0.82299 0.91604 0.34976 0.0
H1066 H 0.8286 0.97195 0.34777 0.0
C1067 C 0.77551 0.12863 0.29006 0.0
C1068 C 0.82932 0.06456 0.28688 0.0
H1069 H 0.81125 0.99109 0.25163 0.0
C1070 C 0.85113 0.05914 0.31319 0.0
C1071 C 0.81568 0.03992 0.26392 0.0
C1072 C 0.79301 0.04472 0.23466 0.0
C1073 C 0.85859 0.0293 0.3178 0.0
C1074 C 0.84357 0.00434 0.29563 0.0
C1075 C 0.82281 0.01015 0.26868 0.0
C1076 C 0.84737 0.97172 0.30024 0.0
C1077 C 0.88227 0.0248 0.34641 0.0
C1078 C 0.8568 0.95295 0.27462 0.0
C1079 C 0.85305 0.921 0.2755 0.0
C1080 C 0.84006 0.90716 0.30215 0.0
C1081 C 0.8334 0.92608 0.32904 0.0
C1082 C 0.83669 0.95812 0.32794 0.0
H1083 H 0.89971 0.04627 0.35441 0.0
H1084 H 0.8674 0.01861 0.36699 0.0
H1085 H 0.89734 0.006 0.34066 0.0
H1086 H 0.86517 0.9629 0.25304 0.0
H1087 H 0.8585 0.907 0.25448 0.0
H1088 H 0.87294 0.94887 0.92085 0.0
H1089 H 0.81272 0.95187 0.91909 0.0
H1090 H 0.83321 0.0416 0.9719 0.0
H1091 H 0.89378 0.03919 0.97302 0.0
H1092 H 0.7775 0.95616 0.97227 0.0
H1093 H 0.76366 0.0555 0.89953 0.0
H1094 H 0.79911 0.03432 0.89795 0.0
H1095 H 0.79709 0.06212 0.93148 0.0
C1096 C 0.86472 0.96939 0.93191 0.0
C1097 C 0.88817 0.99374 0.94727 0.0
C1098 C 0.83028 0.97109 0.93076 0.0
C1099 C 0.8185 0.99708 0.94505 0.0
C1100 C 0.84178 0.02163 0.96007 0.0
H1101 H 0.61717 0.99084 0.0084 0.0
H1102 H 0.67808 0.99951 0.00527 0.0
C1103 C 0.87637 0.02009 0.96095 0.0
C1104 C 0.78184 0.99709 0.94662 0.0
H1105 H 0.71602 0.03528 0.92523 0.0
C1106 C 0.76406 0.97345 0.96195 0.0
C1107 C 0.76436 0.01948 0.93282 0.0
C1108 C 0.78187 0.04417 0.91424 0.0
C1109 C 0.72929 0.97163 0.96407 0.0
C1110 C 0.71193 0.99456 0.95123 0.0
C1111 C 0.72958 0.01809 0.93559 0.0
C1112 C 0.67519 0.99359 0.95295 0.0
C1113 C 0.71132 0.94476 0.97944 0.0
C1114 C 0.65343 0.98886 0.9245 0.0
C1115 C 0.61856 0.9841 0.92616 0.0
C1116 C 0.6049 0.98399 0.95635 0.0
C1117 C 0.62683 0.99041 0.98477 0.0
C1118 C 0.66165 0.9953 0.98305 0.0
H1119 H 0.72658 0.92552 0.98076 0.0
H1120 H 0.70648 0.95243 0.00449 0.0
H1121 H 0.68674 0.9359 0.96571 0.0
H1122 H 0.6634 0.9876 0.90103 0.0
H1123 H 0.6024 0.97939 0.9038 0.0
H1124 H 0.23377 0.62452 0.79403 0.0
H1125 H 0.25314 0.57455 0.79698 0.0
H1126 H 0.35235 0.6139 0.77589 0.0
H1127 H 0.33317 0.66454 0.77333 0.0
H1128 H 0.27936 0.54003 0.74954 0.0
H1129 H 0.37068 0.56957 0.85828 0.0
H1130 H 0.3394 0.59367 0.84711 0.0
H1131 H 0.37644 0.59379 0.82556 0.0
C1132 C 0.25972 0.62266 0.7899 0.0
C1133 C 0.28195 0.64857 0.78347 0.0
C1134 C 0.27076 0.59404 0.79167 0.0
C1135 C 0.30429 0.59059 0.78715 0.0
C1136 C 0.32652 0.6162 0.78008 0.0
H1137 H 0.3508 0.40371 0.75285 0.0
H1138 H 0.35392 0.4595 0.75138 0.0
C1139 C 0.31544 0.64502 0.7783 0.0
C1140 C 0.31516 0.55977 0.7891 0.0
H1141 H 0.36501 0.51855 0.83401 0.0
C1142 C 0.29831 0.53538 0.7678 0.0
C1143 C 0.33957 0.55375 0.81328 0.0
C1144 C 0.35747 0.57896 0.83759 0.0
C1145 C 0.30469 0.50503 0.7703 0.0
C1146 C 0.32931 0.49895 0.79427 0.0
C1147 C 0.34649 0.52337 0.81542 0.0
C1148 C 0.33572 0.46697 0.79858 0.0
C1149 C 0.28392 0.47958 0.74803 0.0
C1150 C 0.32706 0.45308 0.82671 0.0
C1151 C 0.32586 0.42118 0.82787 0.0
C1152 C 0.33299 0.40281 0.80077 0.0
C1153 C 0.34476 0.41725 0.77394 0.0
C1154 C 0.34641 0.4491 0.77299 0.0
H1155 H 0.26099 0.48722 0.73646 0.0
H1156 H 0.29924 0.47227 0.7285 0.0
H1157 H 0.27607 0.45924 0.76139 0.0
H1158 H 0.31893 0.46653 0.84683 0.0
H1159 H 0.31668 0.41071 0.84887 0.0
H1160 H 0.10874 0.47822 0.39854 0.0
H1161 H 0.16847 0.47811 0.39048 0.0
H1162 H 0.195 0.50986 0.49093 0.0
H1163 H 0.13563 0.51003 0.49935 0.0
H1164 H 0.22968 0.52575 0.40582 0.0
H1165 H 0.22774 0.4228 0.47582 0.0
H1166 H 0.18985 0.43544 0.45865 0.0
H1167 H 0.21148 0.45487 0.49542 0.0
C1168 C 0.1273 0.48579 0.41878 0.0
C1169 C 0.11734 0.49373 0.44972 0.0
C1170 C 0.16139 0.48569 0.4141 0.0
C1171 C 0.18592 0.49345 0.44026 0.0
C1172 C 0.17629 0.50339 0.47057 0.0
H1173 H 0.40109 0.52577 0.46356 0.0
H1174 H 0.34073 0.5285 0.45906 0.0
C1175 C 0.14232 0.50354 0.47528 0.0
C1176 C 0.22128 0.48891 0.43681 0.0
H1177 H 0.28136 0.44674 0.46393 0.0
C1178 C 0.24099 0.50834 0.41823 0.0
C1179 C 0.23567 0.46578 0.4526 0.0
C1180 C 0.21509 0.44329 0.47153 0.0
C1181 C 0.27531 0.50608 0.41624 0.0
C1182 C 0.29011 0.48409 0.43357 0.0
C1183 C 0.26999 0.46379 0.45094 0.0
C1184 C 0.32672 0.48258 0.43523 0.0
C1185 C 0.29555 0.52715 0.39569 0.0
C1186 C 0.33875 0.45547 0.42427 0.0
C1187 C 0.37327 0.4537 0.42706 0.0
C1188 C 0.39635 0.47894 0.44118 0.0
C1189 C 0.38408 0.50595 0.45244 0.0
C1190 C 0.34959 0.50768 0.4496 0.0
H1191 H 0.27912 0.53814 0.37885 0.0
H1192 H 0.31156 0.54574 0.41151 0.0
H1193 H 0.31226 0.51424 0.38146 0.0
H1194 H 0.32141 0.43571 0.41349 0.0
H1195 H 0.38183 0.43255 0.41811 0.0
H1196 H 0.82448 0.8026 0.91538 0.0
H1197 H 0.82617 0.79757 0.97337 0.0
H1198 H 0.77976 0.70292 0.95531 0.0
H1199 H 0.77758 0.70779 0.89683 0.0
H1200 H 0.7495 0.73503 1.00048 0.0
H1201 H 0.88694 0.75396 0.03125 0.0
H1202 H 0.8741 0.78464 0.00933 0.0
H1203 H 0.86841 0.746 0.99003 0.0
C1204 C 0.81475 0.7806 0.92359 0.0
C1205 C 0.80086 0.75558 0.90137 0.0
C1206 C 0.81609 0.77769 0.95683 0.0
C1207 C 0.8038 0.74968 0.96867 0.0
C1208 C 0.78976 0.72464 0.94665 0.0
H1209 H 0.82438 0.75081 0.18241 0.0
H1210 H 0.82718 0.7321 0.1255 0.0
C1211 C 0.78844 0.72751 0.91326 0.0
C1212 C 0.80337 0.74767 0.00408 0.0
H1213 H 0.85263 0.76586 0.07529 0.0
C1214 C 0.77214 0.74111 0.01683 0.0
C1215 C 0.83297 0.75497 0.02546 0.0
C1216 C 0.86751 0.75994 0.01327 0.0
C1217 C 0.76944 0.74404 0.05033 0.0
C1218 C 0.79863 0.75429 0.07153 0.0
C1219 C 0.83018 0.75845 0.05897 0.0
C1220 C 0.79637 0.76431 0.10604 0.0
C1221 C 0.73514 0.73712 0.06265 0.0
C1222 C 0.77859 0.78882 0.11381 0.0
C1223 C 0.77705 0.79953 0.14598 0.0
C1224 C 0.79343 0.78609 0.17123 0.0
C1225 C 0.81139 0.76154 0.1635 0.0
C1226 C 0.81302 0.75085 0.13107 0.0
H1227 H 0.71814 0.72018 0.04561 0.0
H1228 H 0.73689 0.72794 0.0868 0.0
H1229 H 0.72357 0.75865 0.06488 0.0
H1230 H 0.76623 0.80003 0.09487 0.0
H1231 H 0.76311 0.81856 0.151 0.0
H1232 H 0.50774 0.52391 0.34887 0.0
H1233 H 0.51723 0.52477 0.29172 0.0
H1234 H 0.58619 0.45804 0.30223 0.0
H1235 H 0.57413 0.45514 0.35896 0.0
H1236 H 0.56387 0.53899 0.25729 0.0
H1237 H 0.52729 0.41284 0.23065 0.0
H1238 H 0.52391 0.43199 0.2698 0.0
H1239 H 0.56394 0.42232 0.25864 0.0
C1240 C 0.52519 0.50966 0.33903 0.0
C1241 C 0.54001 0.48929 0.35814 0.0
C1242 C 0.53062 0.51011 0.30629 0.0
C1243 C 0.5517 0.49076 0.29215 0.0
C1244 C 0.56868 0.47219 0.31202 0.0
H1245 H 0.57604 0.52316 0.08696 0.0
H1246 H 0.59071 0.5207 0.14499 0.0
C1247 C 0.56221 0.47087 0.34456 0.0
C1248 C 0.55446 0.48953 0.25651 0.0
H1249 H 0.54455 0.44078 0.18742 0.0
C1250 C 0.55955 0.51747 0.24202 0.0
C1251 C 0.54869 0.46147 0.23639 0.0
C1252 C 0.54032 0.43051 0.2496 0.0
C1253 C 0.55721 0.51834 0.20823 0.0
C1254 C 0.55191 0.49029 0.18812 0.0
C1255 C 0.54868 0.46231 0.20268 0.0
C1256 C 0.54608 0.48922 0.15216 0.0
C1257 C 0.55827 0.54941 0.19477 0.0
C1258 C 0.5176 0.47055 0.13617 0.0
C1259 C 0.51025 0.47074 0.10284 0.0
C1260 C 0.53069 0.49022 0.08489 0.0
C1261 C 0.55973 0.5082 0.10046 0.0
C1262 C 0.56783 0.50709 0.13368 0.0
H1263 H 0.55259 0.56736 0.21304 0.0
H1264 H 0.58392 0.55681 0.18759 0.0
H1265 H 0.53993 0.5485 0.17327 0.0
H1266 H 0.50034 0.45648 0.14962 0.0
H1267 H 0.48758 0.4568 0.09139 0.0
H1268 H 0.809 0.32529 0.40507 0.0
H1269 H 0.81366 0.32609 0.4645 0.0
H1270 H 0.80684 0.22704 0.45701 0.0
H1271 H 0.80194 0.22594 0.39812 0.0
H1272 H 0.76116 0.28969 0.50034 0.0
H1273 H 0.89002 0.2595 0.52408 0.0
H1274 H 0.87775 0.27892 0.48915 0.0
H1275 H 0.86512 0.23824 0.48994 0.0
C1276 C 0.80904 0.30376 0.41616 0.0
C1277 C 0.80501 0.27555 0.39693 0.0
C1278 C 0.8116 0.30427 0.45002 0.0
C1279 C 0.81084 0.27664 0.465 0.0
C1280 C 0.80786 0.24862 0.44586 0.0
H1281 H 0.80237 0.19057 0.63842 0.0
H1282 H 0.80571 0.20796 0.58434 0.0
C1283 C 0.80491 0.24805 0.4122 0.0
C1284 C 0.81069 0.27627 0.50052 0.0
H1285 H 0.85332 0.25248 0.56588 0.0
C1286 C 0.78153 0.28219 0.51498 0.0
C1287 C 0.83728 0.26635 0.51928 0.0
C1288 C 0.86948 0.26059 0.50499 0.0
C1289 C 0.77736 0.27651 0.54736 0.0
C1290 C 0.8034 0.26522 0.56577 0.0
C1291 C 0.8333 0.26095 0.55168 0.0
C1292 C 0.7992 0.25503 0.59863 0.0
C1293 C 0.74439 0.28082 0.56094 0.0
C1294 C 0.79388 0.27562 0.62465 0.0
C1295 C 0.79156 0.26559 0.65574 0.0
C1296 C 0.79497 0.23493 0.66128 0.0
C1297 C 0.7997 0.21435 0.63502 0.0
C1298 C 0.80174 0.22428 0.60407 0.0
H1299 H 0.72458 0.2836 0.54169 0.0
H1300 H 0.73524 0.2609 0.57439 0.0
H1301 H 0.74816 0.30183 0.57809 0.0
H1302 H 0.79238 0.29958 0.62112 0.0
H1303 H 0.78822 0.28205 0.67557 0.0
H1304 H 0.05285 0.49139 0.60993 0.0
H1305 H 0.03412 0.49402 0.66436 0.0
H1306 H 0.93229 0.4961 0.62466 0.0
H1307 H 0.95122 0.49441 0.56977 0.0
H1308 H 0.94779 0.53436 0.67982 0.0
H1309 H 0.98429 0.4204 0.70093 0.0
H1310 H 0.01942 0.44572 0.6897 0.0
H1311 H 0.98282 0.43472 0.66136 0.0
C1312 C 0.02652 0.49275 0.61275 0.0
C1313 C 0.00344 0.4924 0.58558 0.0
C1314 C 0.01578 0.49397 0.64387 0.0
C1315 C 0.98162 0.4942 0.64852 0.0
C1316 C 0.95871 0.49552 0.62158 0.0
H1317 H 0.94251 0.45675 0.84739 0.0
H1318 H 0.93265 0.45331 0.78824 0.0
C1319 C 0.96957 0.49469 0.59028 0.0
C1320 C 0.97025 0.49261 0.6816 0.0
H1321 H 0.97859 0.45332 0.74877 0.0
C1322 C 0.95398 0.51638 0.69478 0.0
C1323 C 0.97718 0.46858 0.70085 0.0
C1324 C 0.99152 0.44074 0.68733 0.0
C1325 C 0.94685 0.51798 0.72741 0.0
C1326 C 0.95717 0.49572 0.74756 0.0
C1327 C 0.9711 0.47073 0.73365 0.0
C1328 C 0.95736 0.49946 0.78346 0.0
C1329 C 0.92867 0.54372 0.73993 0.0
C1330 C 0.97386 0.52669 0.80061 0.0
C1331 C 0.97909 0.52884 0.8343 0.0
C1332 C 0.96864 0.50355 0.85174 0.0
C1333 C 0.95092 0.47665 0.83473 0.0
C1334 C 0.9453 0.47465 0.8009 0.0
H1335 H 0.91085 0.55001 0.7206 0.0
H1336 H 0.91446 0.53735 0.76088 0.0
H1337 H 0.94727 0.56448 0.74756 0.0
H1338 H 0.9844 0.54583 0.78789 0.0
H1339 H 0.99296 0.54991 0.84648 0.0
H1340 H 0.87201 0.02089 0.45385 0.0
H1341 H 0.81103 0.01051 0.44362 0.0
H1342 H 0.81447 0.91322 0.44785 0.0
H1343 H 0.87601 0.92345 0.4586 0.0
H1344 H 0.76716 0.97263 0.39587 0.0
H1345 H 0.75422 0.93516 0.52008 0.0
H1346 H 0.79327 0.95476 0.50853 0.0
H1347 H 0.77988 0.91505 0.49462 0.0
C1348 C 0.85995 0.9972 0.45236 0.0
C1349 C 0.87883 0.97303 0.45761 0.0
C1350 C 0.82506 0.99132 0.44636 0.0
C1351 C 0.80824 0.96119 0.44557 0.0
C1352 C 0.82702 0.93671 0.44894 0.0
H1353 H 0.58773 0.92635 0.45096 0.0
H1354 H 0.64597 0.91655 0.44723 0.0
C1355 C 0.86214 0.94258 0.45489 0.0
C1356 C 0.77099 0.95634 0.44339 0.0
H1357 H 0.70479 0.94188 0.48949 0.0
C1358 C 0.75341 0.96541 0.41609 0.0
C1359 C 0.75317 0.94686 0.46984 0.0
C1360 C 0.77095 0.93755 0.50008 0.0
C1361 C 0.71867 0.96654 0.41511 0.0
C1362 C 0.70124 0.95877 0.44229 0.0
C1363 C 0.71837 0.94795 0.46879 0.0
C1364 C 0.66605 0.96441 0.44484 0.0
C1365 C 0.70105 0.97679 0.38532 0.0
C1366 C 0.65834 0.99463 0.44562 0.0
C1367 C 0.62528 1.00036 0.44798 0.0
C1368 C 0.59921 0.97594 0.44965 0.0
C1369 C 0.60717 0.94568 0.44963 0.0
C1370 C 0.64038 0.94 0.44742 0.0
H1371 H 0.71516 0.97329 0.36368 0.0
H1372 H 0.67515 0.96413 0.3803 0.0
H1373 H 0.69921 0.00175 0.38928 0.0
H1374 H 0.67797 0.01385 0.44438 0.0
H1375 H 0.62013 0.02394 0.44803 0.0
loop_
_geom_bond_atom_site_label_1
_geom_bond_atom_site_label_2
_geom_bond_distance
_geom_bond_site_symmetry_2
_ccdc_geom_bond_type
O0 Cd1 2.223 . S
O0 C8 1.315 . S
Cd1 O0 2.223 . S
Cd1 O4 2.297 . S
Cd1 O5 2.439 . S
Cd1 O11 2.240 . S
Cd2 O3 2.240 . S
Cd2 O10 2.223 . S
Cd2 O12 2.297 . S
Cd2 O13 2.439 . S
O3 Cd2 2.240 . S
O3 C8 1.279 . S
O4 Cd1 2.297 . S
O4 C6 1.247 . S
O5 Cd1 2.439 . S
O5 C6 1.208 . S
C6 O4 1.247 . S
C6 O5 1.208 . S
C7 O12 1.247 . S
C7 O13 1.208 . S
C8 O0 1.315 . S
C8 O3 1.279 . S
C9 O10 1.315 . S
C9 O11 1.279 . S
O10 Cd2 2.223 . S
O10 C9 1.315 . S
O11 Cd1 2.240 . S
O11 C9 1.279 . S
O12 Cd2 2.297 . S
O12 C7 1.247 . S
O13 Cd2 2.439 . S
O13 C7 1.208 . S
O14 Cd15 2.223 . S
O14 C22 1.315 1_565 S
Cd15 O14 2.223 . S
Cd15 O18 2.297 1_655 S
Cd15 O19 2.439 1_665 S
Cd15 O25 2.240 1_565 S
Cd16 O17 2.240 1_655 S
Cd16 O24 2.223 . S
Cd16 O26 2.297 . S
Cd16 O27 2.439 1_655 S
O17 Cd16 2.240 1_455 S
O17 C22 1.279 1_455 S
O18 Cd15 2.297 1_455 S
O18 C20 1.247 . S
O19 Cd15 2.439 1_445 S
O19 C20 1.208 1_545 S
C20 O18 1.247 . S
C20 O19 1.208 1_565 S
C21 O26 1.247 . S
C21 O27 1.208 1_655 S
C22 O14 1.315 1_545 S
C22 O17 1.279 1_655 S
C23 O24 1.315 . S
C23 O25 1.279 . S
O24 Cd16 2.223 . S
O24 C23 1.315 . S
O25 Cd15 2.240 1_545 S
O25 C23 1.279 . S
O26 Cd16 2.297 . S
O26 C21 1.247 . S
O27 Cd16 2.439 1_455 S
O27 C21 1.208 1_455 S
O28 Cd29 2.223 . S
O28 C36 1.315 . S
Cd29 O28 2.223 . S
Cd29 O32 2.297 . S
Cd29 O33 2.439 . S
Cd29 O39 2.240 . S
Cd30 O31 2.240 . S
Cd30 O38 2.223 . S
Cd30 O40 2.297 . S
Cd30 O41 2.439 . S
O31 Cd30 2.240 . S
O31 C36 1.279 . S
O32 Cd29 2.297 . S
O32 C34 1.247 . S
O33 Cd29 2.439 . S
O33 C34 1.208 . S
C34 O32 1.247 . S
C34 O33 1.208 . S
C35 O40 1.247 . S
C35 O41 1.208 . S
C36 O28 1.315 . S
C36 O31 1.279 . S
C37 O38 1.315 . S
C37 O39 1.279 . S
O38 Cd30 2.223 . S
O38 C37 1.315 . S
O39 Cd29 2.240 . S
O39 C37 1.279 . S
O40 Cd30 2.297 . S
O40 C35 1.247 . S
O41 Cd30 2.439 . S
O41 C35 1.208 . S
O42 Cd43 2.223 . S
O42 C50 1.315 . S
Cd43 O42 2.223 . S
Cd43 O46 2.297 . S
Cd43 O47 2.439 . S
Cd43 O53 2.240 . S
Cd44 O45 2.240 1_554 S
Cd44 O52 2.223 . S
Cd44 O54 2.297 . S
Cd44 O55 2.439 . S
O45 Cd44 2.240 1_556 S
O45 C50 1.279 . S
O46 Cd43 2.297 . S
O46 C48 1.261 . S
O47 Cd43 2.439 . S
O47 C48 1.215 . S
C48 O46 1.261 . S
C48 O47 1.215 . S
C49 O54 1.247 . S
C49 O55 1.208 . S
C50 O42 1.315 . S
C50 O45 1.279 . S
C51 O52 1.315 . S
C51 O53 1.279 1_554 S
O52 Cd44 2.223 . S
O52 C51 1.315 . S
O53 Cd43 2.240 . S
O53 C51 1.279 1_556 S
O54 Cd44 2.297 . S
O54 C49 1.247 . S
O55 Cd44 2.439 . S
O55 C49 1.208 . S
O56 Cd57 2.223 . S
O56 C64 1.315 . S
Cd57 O56 2.223 . S
Cd57 O60 2.297 . S
Cd57 O61 2.439 . S
Cd57 O67 2.240 . S
Cd58 O59 2.240 . S
Cd58 O66 2.223 . S
Cd58 O68 2.297 . S
Cd58 O69 2.439 . S
O59 Cd58 2.240 . S
O59 C64 1.279 . S
O60 Cd57 2.297 . S
O60 C62 1.247 . S
O61 Cd57 2.439 . S
O61 C62 1.208 . S
C62 O60 1.247 . S
C62 O61 1.208 . S
C63 O68 1.247 . S
C63 O69 1.208 . S
C64 O56 1.315 . S
C64 O59 1.279 . S
C65 O66 1.315 . S
C65 O67 1.279 . S
O66 Cd58 2.223 . S
O66 C65 1.315 . S
O67 Cd57 2.240 . S
O67 C65 1.279 . S
O68 Cd58 2.297 . S
O68 C63 1.247 . S
O69 Cd58 2.439 . S
O69 C63 1.208 . S
O70 Cd71 2.223 . S
O70 C78 1.315 . S
Cd71 O70 2.223 . S
Cd71 O74 2.297 . S
Cd71 O75 2.439 . S
Cd71 O81 2.240 1_565 S
Cd72 O73 2.240 . S
Cd72 O80 2.223 . S
Cd72 O82 2.297 . S
Cd72 O83 2.439 . S
O73 Cd72 2.240 . S
O73 C78 1.279 1_545 S
O74 Cd71 2.297 . S
O74 C76 1.247 . S
O75 Cd71 2.439 . S
O75 C76 1.208 . S
C76 O74 1.247 . S
C76 O75 1.208 . S
C77 O82 1.247 . S
C77 O83 1.208 . S
C78 O70 1.315 . S
C78 O73 1.279 1_565 S
C79 O80 1.315 . S
C79 O81 1.279 . S
O80 Cd72 2.223 . S
O80 C79 1.315 . S
O81 Cd71 2.240 1_545 S
O81 C79 1.279 . S
O82 Cd72 2.297 . S
O82 C77 1.247 . S
O83 Cd72 2.439 . S
O83 C77 1.208 . S
O84 Cd85 2.223 . S
O84 C92 1.315 . S
Cd85 O84 2.223 . S
Cd85 O88 2.297 . S
Cd85 O89 2.439 . S
Cd85 O95 2.240 . S
Cd86 O87 2.240 . S
Cd86 O94 2.223 . S
Cd86 O96 2.297 . S
Cd86 O97 2.439 . S
O87 Cd86 2.240 . S
O87 C92 1.279 . S
O88 Cd85 2.297 . S
O88 C90 1.247 . S
O89 Cd85 2.439 . S
O89 C90 1.208 . S
C90 O88 1.247 . S
C90 O89 1.208 . S
C91 O96 1.247 . S
C91 O97 1.208 . S
C92 O84 1.315 . S
C92 O87 1.279 . S
C93 O94 1.315 . S
C93 O95 1.279 . S
O94 Cd86 2.223 . S
O94 C93 1.315 . S
O95 Cd85 2.240 . S
O95 C93 1.279 . S
O96 Cd86 2.297 . S
O96 C91 1.247 . S
O97 Cd86 2.439 . S
O97 C91 1.208 . S
O98 Cd99 2.223 1_545 S
O98 C106 1.315 1_545 S
Cd99 O98 2.223 1_565 S
Cd99 O102 2.297 1_665 S
Cd99 O103 2.439 1_655 S
Cd99 O109 2.240 . S
Cd100 O101 2.240 1_655 S
Cd100 O108 2.223 . S
Cd100 O110 2.297 . S
Cd100 O111 2.439 1_655 S
O101 Cd100 2.240 1_455 S
O101 C106 1.279 1_455 S
O102 Cd99 2.297 1_445 S
O102 C104 1.247 . S
O103 Cd99 2.439 1_455 S
O103 C104 1.208 1_565 S
C104 O102 1.247 . S
C104 O103 1.208 1_545 S
C105 O110 1.247 . S
C105 O111 1.208 1_655 S
C106 O98 1.315 1_565 S
C106 O101 1.279 1_655 S
C107 O108 1.315 . S
C107 O109 1.279 . S
O108 Cd100 2.223 . S
O108 C107 1.315 . S
O109 Cd99 2.240 . S
O109 C107 1.279 . S
O110 Cd100 2.297 . S
O110 C105 1.247 . S
O111 Cd100 2.439 1_455 S
O111 C105 1.208 1_455 S
O112 Cd113 2.223 . S
O112 C120 1.315 . S
Cd113 O112 2.223 . S
Cd113 O116 2.297 . S
Cd113 O117 2.439 . S
Cd113 O123 2.240 . S
Cd114 O115 2.240 . S
Cd114 O122 2.223 . S
Cd114 O124 2.297 . S
Cd114 O125 2.439 . S
O115 Cd114 2.240 . S
O115 C120 1.279 . S
O116 Cd113 2.297 . S
O116 C118 1.247 . S
O117 Cd113 2.439 . S
O117 C118 1.208 . S
C118 O116 1.247 . S
C118 O117 1.208 . S
C119 O124 1.247 . S
C119 O125 1.208 . S
C120 O112 1.315 . S
C120 O115 1.279 . S
C121 O122 1.315 . S
C121 O123 1.279 . S
O122 Cd114 2.223 . S
O122 C121 1.315 . S
O123 Cd113 2.240 . S
O123 C121 1.279 . S
O124 Cd114 2.297 . S
O124 C119 1.247 . S
O125 Cd114 2.439 . S
O125 C119 1.208 . S
O126 Cd127 2.223 1_556 S
O126 C134 1.315 1_455 S
Cd127 O126 2.223 1_554 S
Cd127 O130 2.297 1_455 S
Cd127 O131 2.439 1_455 S
Cd127 O137 2.242 . S
Cd128 O129 2.240 1_455 S
Cd128 O136 2.223 . S
Cd128 O138 2.297 . S
Cd128 O139 2.439 1_456 S
O129 Cd128 2.240 1_655 S
O129 C134 1.279 . S
O130 Cd127 2.297 1_655 S
O130 C132 1.247 . S
O131 Cd127 2.439 1_655 S
O131 C132 1.208 . S
C132 O130 1.247 . S
C132 O131 1.208 . S
C133 O138 1.247 1_654 S
C133 O139 1.208 . S
C134 O126 1.315 1_655 S
C134 O129 1.279 . S
C135 O136 1.315 . S
C135 O137 1.271 1_556 S
O136 Cd128 2.223 . S
O136 C135 1.315 . S
O137 Cd127 2.242 . S
O137 C135 1.271 1_554 S
O138 Cd128 2.297 . S
O138 C133 1.247 1_456 S
O139 Cd128 2.439 1_654 S
O139 C133 1.208 . S
O140 Cd141 2.223 . S
O140 C148 1.315 . S
Cd141 O140 2.223 . S
Cd141 O144 2.297 . S
Cd141 O145 2.439 . S
Cd141 O151 2.240 . S
Cd142 O143 2.240 . S
Cd142 O150 2.223 . S
Cd142 O152 2.297 . S
Cd142 O153 2.439 . S
O143 Cd142 2.240 . S
O143 C148 1.279 . S
O144 Cd141 2.297 . S
O144 C146 1.247 . S
O145 Cd141 2.439 . S
O145 C146 1.208 . S
C146 O144 1.247 . S
C146 O145 1.208 . S
C147 O152 1.247 . S
C147 O153 1.208 . S
C148 O140 1.315 . S
C148 O143 1.279 . S
C149 O150 1.315 . S
C149 O151 1.279 . S
O150 Cd142 2.223 . S
O150 C149 1.315 . S
O151 Cd141 2.240 . S
O151 C149 1.279 . S
O152 Cd142 2.297 . S
O152 C147 1.247 . S
O153 Cd142 2.439 . S
O153 C147 1.208 . S
O154 Cd155 2.223 . S
O154 C162 1.315 . S
Cd155 O154 2.223 . S
Cd155 O158 2.297 . S
Cd155 O159 2.439 1_455 S
Cd155 O165 2.240 . S
Cd156 O157 2.240 . S
Cd156 O164 2.223 . S
Cd156 O166 2.297 . S
Cd156 O167 2.439 . S
O157 Cd156 2.240 . S
O157 C162 1.279 . S
O158 Cd155 2.297 . S
O158 C160 1.247 1_455 S
O159 Cd155 2.439 1_655 S
O159 C160 1.208 . S
C160 O158 1.247 1_655 S
C160 O159 1.208 . S
C161 O166 1.247 . S
C161 O167 1.208 . S
C162 O154 1.315 . S
C162 O157 1.279 . S
C163 O164 1.315 . S
C163 O165 1.279 . S
O164 Cd156 2.223 . S
O164 C163 1.315 . S
O165 Cd155 2.240 . S
O165 C163 1.279 . S
O166 Cd156 2.297 . S
O166 C161 1.247 . S
O167 Cd156 2.439 . S
O167 C161 1.208 . S
O168 Cd169 2.223 1_554 S
O168 C176 1.315 . S
Cd169 O168 2.223 1_556 S
Cd169 O172 2.297 . S
Cd169 O173 2.439 . S
Cd169 O179 2.240 . S
Cd170 O171 2.240 . S
Cd170 O178 2.223 . S
Cd170 O180 2.297 . S
Cd170 O181 2.439 1_554 S
O171 Cd170 2.240 . S
O171 C176 1.279 . S
O172 Cd169 2.297 . S
O172 C174 1.247 . S
O173 Cd169 2.439 . S
O173 C174 1.208 . S
C174 O172 1.247 . S
C174 O173 1.208 . S
C175 O180 1.247 1_556 S
C175 O181 1.208 . S
C176 O168 1.315 . S
C176 O171 1.279 . S
C177 O178 1.315 . S
C177 O179 1.279 1_554 S
O178 Cd170 2.223 . S
O178 C177 1.315 . S
O179 Cd169 2.240 . S
O179 C177 1.279 1_556 S
O180 Cd170 2.297 . S
O180 C175 1.247 1_554 S
O181 Cd170 2.439 1_556 S
O181 C175 1.208 . S
O182 Cd183 2.223 . S
O182 C190 1.315 . S
Cd183 O182 2.223 . S
Cd183 O186 2.297 . S
Cd183 O187 2.439 . S
Cd183 O193 2.240 . S
Cd184 O185 2.240 . S
Cd184 O192 2.223 . S
Cd184 O194 2.297 . S
Cd184 O195 2.439 . S
O185 Cd184 2.240 . S
O185 C190 1.279 . S
O186 Cd183 2.297 . S
O186 C188 1.247 . S
O187 Cd183 2.439 . S
O187 C188 1.208 . S
C188 O186 1.247 . S
C188 O187 1.208 . S
C189 O194 1.247 . S
C189 O195 1.208 . S
C190 O182 1.315 . S
C190 O185 1.279 . S
C191 O192 1.315 . S
C191 O193 1.279 . S
O192 Cd184 2.223 . S
O192 C191 1.315 . S
O193 Cd183 2.240 . S
O193 C191 1.279 . S
O194 Cd184 2.297 . S
O194 C189 1.247 . S
O195 Cd184 2.439 . S
O195 C189 1.208 . S
O196 Cd197 2.223 . S
O196 C204 1.315 . S
Cd197 O196 2.223 . S
Cd197 O200 2.297 . S
Cd197 O201 2.439 . S
Cd197 O207 2.240 . S
Cd198 O199 2.240 . S
Cd198 O206 2.223 . S
Cd198 O208 2.297 . S
Cd198 O209 2.439 . S
O199 Cd198 2.240 . S
O199 C204 1.279 . S
O200 Cd197 2.297 . S
O200 C202 1.247 . S
O201 Cd197 2.439 . S
O201 C202 1.208 . S
C202 O200 1.247 . S
C202 O201 1.208 . S
C203 O208 1.247 . S
C203 O209 1.208 . S
C204 O196 1.315 . S
C204 O199 1.279 . S
C205 O206 1.315 . S
C205 O207 1.279 . S
O206 Cd198 2.223 . S
O206 C205 1.315 . S
O207 Cd197 2.240 . S
O207 C205 1.279 . S
O208 Cd198 2.297 . S
O208 C203 1.247 . S
O209 Cd198 2.439 . S
O209 C203 1.208 . S
O210 Cd211 2.223 . S
O210 C218 1.315 . S
Cd211 O210 2.223 . S
Cd211 O214 2.297 . S
Cd211 O215 2.439 . S
Cd211 O221 2.240 . S
Cd212 O213 2.240 . S
Cd212 O220 2.223 . S
Cd212 O222 2.297 . S
Cd212 O223 2.439 . S
O213 Cd212 2.240 . S
O213 C218 1.279 . S
O214 Cd211 2.297 . S
O214 C216 1.247 . S
O215 Cd211 2.439 . S
O215 C216 1.208 . S
C216 O214 1.247 . S
C216 O215 1.208 . S
C217 O222 1.247 . S
C217 O223 1.208 . S
C218 O210 1.315 . S
C218 O213 1.279 . S
C219 O220 1.315 . S
C219 O221 1.279 . S
O220 Cd212 2.223 . S
O220 C219 1.315 . S
O221 Cd211 2.240 . S
O221 C219 1.279 . S
O222 Cd212 2.297 . S
O222 C217 1.247 . S
O223 Cd212 2.439 . S
O223 C217 1.208 . S
H224 C232 0.929 . S
H225 C234 0.930 . S
H226 C236 0.930 . S
H227 C239 0.929 . S
H228 C242 0.930 . S
H229 C244 0.960 . S
H230 C244 0.960 . S
H231 C244 0.960 . S
C232 H224 0.929 . S
C232 C233 1.377 . S
C232 C234 1.384 . S
C233 C232 1.377 . S
C233 C239 1.390 . S
C234 H225 0.930 . S
C234 C232 1.384 . S
C234 C235 1.372 . S
C235 C234 1.372 . S
C235 C236 1.400 . S
C235 C240 1.490 . S
C236 H226 0.930 . S
C236 C235 1.400 . S
C236 C239 1.386 . S
H237 C253 0.930 . S
H238 C254 0.931 . S
C239 H227 0.929 . S
C239 C233 1.390 . S
C239 C236 1.386 . S
C240 C235 1.490 . S
C240 C242 1.395 . S
C240 C243 1.403 . S
H241 C247 0.930 . S
C242 H228 0.930 . S
C242 C240 1.395 . S
C242 C245 1.403 . S
C243 C240 1.403 . S
C243 C244 1.524 . S
C243 C247 1.400 . S
C244 H229 0.960 . S
C244 H230 0.960 . S
C244 H231 0.960 . S
C244 C243 1.524 . S
C245 C242 1.403 . S
C245 C246 1.392 . S
C245 C249 1.495 . S
C246 C245 1.392 . S
C246 C247 1.385 . S
C246 C248 1.478 . S
C247 H241 0.930 . S
C247 C243 1.400 . S
C247 C246 1.385 . S
C248 C246 1.478 . S
C248 C250 1.381 . S
C248 C254 1.383 . S
C249 C245 1.495 . S
C249 H255 0.959 . S
C249 H256 0.961 . S
C249 H257 0.960 . S
C250 C248 1.381 . S
C250 C251 1.394 . S
C250 H258 0.930 . S
C251 C250 1.394 . S
C251 C252 1.383 . S
C251 H259 0.929 . S
C252 C251 1.383 . S
C252 C253 1.377 . S
C253 H237 0.930 . S
C253 C252 1.377 . S
C253 C254 1.379 . S
C254 H238 0.931 . S
C254 C248 1.383 . S
C254 C253 1.379 . S
H255 C249 0.959 . S
H256 C249 0.961 . S
H257 C249 0.960 . S
H258 C250 0.930 . S
H259 C251 0.929 . S
H260 C268 0.929 . S
H261 C270 0.930 . S
H262 C272 0.930 . S
H263 C275 0.929 . S
H264 C278 0.930 . S
H265 C280 0.960 . S
H266 C280 0.960 . S
H267 C280 0.960 . S
C268 H260 0.929 . S
C268 C269 1.377 . S
C268 C270 1.384 . S
C269 C268 1.377 . S
C269 C275 1.390 . S
C270 H261 0.930 . S
C270 C268 1.384 . S
C270 C271 1.372 . S
C271 C270 1.372 . S
C271 C272 1.400 . S
C271 C276 1.490 . S
C272 H262 0.930 . S
C272 C271 1.400 . S
C272 C275 1.386 . S
H273 C289 0.930 . S
H274 C290 0.931 . S
C275 H263 0.929 . S
C275 C269 1.390 . S
C275 C272 1.386 . S
C276 C271 1.490 . S
C276 C278 1.395 . S
C276 C279 1.403 . S
H277 C283 0.930 . S
C278 H264 0.930 . S
C278 C276 1.395 . S
C278 C281 1.403 . S
C279 C276 1.403 . S
C279 C280 1.524 . S
C279 C283 1.400 . S
C280 H265 0.960 . S
C280 H266 0.960 . S
C280 H267 0.960 . S
C280 C279 1.524 . S
C281 C278 1.403 . S
C281 C282 1.392 . S
C281 C285 1.495 . S
C282 C281 1.392 . S
C282 C283 1.385 . S
C282 C284 1.478 . S
C283 H277 0.930 . S
C283 C279 1.400 . S
C283 C282 1.385 . S
C284 C282 1.478 . S
C284 C286 1.381 . S
C284 C290 1.383 . S
C285 C281 1.495 . S
C285 H291 0.959 . S
C285 H292 0.961 . S
C285 H293 0.960 . S
C286 C284 1.381 . S
C286 C287 1.394 . S
C286 H294 0.930 . S
C287 C286 1.394 . S
C287 C288 1.383 . S
C287 H295 0.929 . S
C288 C287 1.383 . S
C288 C289 1.377 . S
C289 H273 0.930 . S
C289 C288 1.377 . S
C289 C290 1.379 . S
C290 H274 0.931 . S
C290 C284 1.383 . S
C290 C289 1.379 . S
H291 C285 0.959 . S
H292 C285 0.961 . S
H293 C285 0.960 . S
H294 C286 0.930 . S
H295 C287 0.929 . S
H296 C304 0.929 . S
H297 C306 0.930 . S
H298 C308 0.930 . S
H299 C311 0.929 . S
H300 C314 0.930 . S
H301 C316 0.960 . S
H302 C316 0.960 . S
H303 C316 0.960 . S
C304 H296 0.929 . S
C304 C305 1.377 . S
C304 C306 1.384 . S
C305 C304 1.377 . S
C305 C311 1.390 . S
C306 H297 0.930 . S
C306 C304 1.384 . S
C306 C307 1.372 . S
C307 C306 1.372 . S
C307 C308 1.400 . S
C307 C312 1.490 . S
C308 H298 0.930 . S
C308 C307 1.400 . S
C308 C311 1.386 . S
H309 C325 0.930 . S
H310 C326 0.931 . S
C311 H299 0.929 . S
C311 C305 1.390 . S
C311 C308 1.386 . S
C312 C307 1.490 . S
C312 C314 1.395 . S
C312 C315 1.403 . S
H313 C319 0.930 . S
C314 H300 0.930 . S
C314 C312 1.395 . S
C314 C317 1.403 . S
C315 C312 1.403 . S
C315 C316 1.524 . S
C315 C319 1.400 . S
C316 H301 0.960 . S
C316 H302 0.960 . S
C316 H303 0.960 . S
C316 C315 1.524 . S
C317 C314 1.403 . S
C317 C318 1.392 . S
C317 C321 1.495 . S
C318 C317 1.392 . S
C318 C319 1.385 . S
C318 C320 1.478 . S
C319 H313 0.930 . S
C319 C315 1.400 . S
C319 C318 1.385 . S
C320 C318 1.478 . S
C320 C322 1.381 . S
C320 C326 1.383 . S
C321 C317 1.495 . S
C321 H327 0.959 . S
C321 H328 0.961 . S
C321 H329 0.960 . S
C322 C320 1.381 . S
C322 C323 1.394 . S
C322 H330 0.930 . S
C323 C322 1.394 . S
C323 C324 1.383 . S
C323 H331 0.929 . S
C324 C323 1.383 . S
C324 C325 1.377 . S
C325 H309 0.930 . S
C325 C324 1.377 . S
C325 C326 1.379 . S
C326 H310 0.931 . S
C326 C320 1.383 . S
C326 C325 1.379 . S
H327 C321 0.959 . S
H328 C321 0.961 . S
H329 C321 0.960 . S
H330 C322 0.930 . S
H331 C323 0.929 . S
H332 C340 0.929 . S
H333 C342 0.930 . S
H334 C344 0.930 . S
H335 C347 0.929 . S
H336 C350 0.930 . S
H337 C352 0.960 . S
H338 C352 0.960 . S
H339 C352 0.960 . S
C340 H332 0.929 . S
C340 C341 1.377 . S
C340 C342 1.384 . S
C341 C340 1.377 . S
C341 C347 1.390 . S
C342 H333 0.930 . S
C342 C340 1.384 . S
C342 C343 1.372 . S
C343 C342 1.372 . S
C343 C344 1.400 . S
C343 C348 1.490 . S
C344 H334 0.930 . S
C344 C343 1.400 . S
C344 C347 1.386 . S
H345 C361 0.930 . S
H346 C362 0.931 . S
C347 H335 0.929 . S
C347 C341 1.390 . S
C347 C344 1.386 . S
C348 C343 1.490 . S
C348 C350 1.395 . S
C348 C351 1.403 . S
H349 C355 0.930 . S
C350 H336 0.930 . S
C350 C348 1.395 . S
C350 C353 1.403 . S
C351 C348 1.403 . S
C351 C352 1.524 . S
C351 C355 1.400 . S
C352 H337 0.960 . S
C352 H338 0.960 . S
C352 H339 0.960 . S
C352 C351 1.524 . S
C353 C350 1.403 . S
C353 C354 1.392 . S
C353 C357 1.495 . S
C354 C353 1.392 . S
C354 C355 1.385 . S
C354 C356 1.478 . S
C355 H349 0.930 . S
C355 C351 1.400 . S
C355 C354 1.385 . S
C356 C354 1.478 . S
C356 C358 1.381 . S
C356 C362 1.383 . S
C357 C353 1.495 . S
C357 H363 0.959 . S
C357 H364 0.961 . S
C357 H365 0.960 . S
C358 C356 1.381 . S
C358 C359 1.394 . S
C358 H366 0.930 . S
C359 C358 1.394 . S
C359 C360 1.383 . S
C359 H367 0.929 . S
C360 C359 1.383 . S
C360 C361 1.377 . S
C361 H345 0.930 . S
C361 C360 1.377 . S
C361 C362 1.379 . S
C362 H346 0.931 . S
C362 C356 1.383 . S
C362 C361 1.379 . S
H363 C357 0.959 . S
H364 C357 0.961 . S
H365 C357 0.960 . S
H366 C358 0.930 . S
H367 C359 0.929 . S
H368 C376 0.929 . S
H369 C378 0.930 . S
H370 C380 0.930 . S
H371 C383 0.929 . S
H372 C386 0.930 . S
H373 C388 0.960 . S
H374 C388 0.960 . S
H375 C388 0.960 . S
C376 H368 0.929 . S
C376 C377 1.377 . S
C376 C378 1.384 . S
C377 C376 1.377 . S
C377 C383 1.390 . S
C378 H369 0.930 . S
C378 C376 1.384 . S
C378 C379 1.372 . S
C379 C378 1.372 . S
C379 C380 1.400 . S
C379 C384 1.490 . S
C380 H370 0.930 . S
C380 C379 1.400 . S
C380 C383 1.386 . S
H381 C397 0.930 . S
H382 C398 0.931 . S
C383 H371 0.929 . S
C383 C377 1.390 . S
C383 C380 1.386 . S
C384 C379 1.490 . S
C384 C386 1.395 . S
C384 C387 1.403 . S
H385 C391 0.930 . S
C386 H372 0.930 . S
C386 C384 1.395 . S
C386 C389 1.403 . S
C387 C384 1.403 . S
C387 C388 1.524 . S
C387 C391 1.400 . S
C388 H373 0.960 . S
C388 H374 0.960 . S
C388 H375 0.960 . S
C388 C387 1.524 . S
C389 C386 1.403 . S
C389 C390 1.392 . S
C389 C393 1.495 . S
C390 C389 1.392 . S
C390 C391 1.385 . S
C390 C392 1.478 . S
C391 H385 0.930 . S
C391 C387 1.400 . S
C391 C390 1.385 . S
C392 C390 1.478 . S
C392 C394 1.381 . S
C392 C398 1.383 . S
C393 C389 1.495 . S
C393 H399 0.959 . S
C393 H400 0.961 . S
C393 H401 0.960 . S
C394 C392 1.381 . S
C394 C395 1.394 . S
C394 H402 0.930 . S
C395 C394 1.394 . S
C395 C396 1.383 . S
C395 H403 0.929 . S
C396 C395 1.383 . S
C396 C397 1.377 . S
C397 H381 0.930 . S
C397 C396 1.377 . S
C397 C398 1.379 . S
C398 H382 0.931 . S
C398 C392 1.383 . S
C398 C397 1.379 . S
H399 C393 0.959 . S
H400 C393 0.961 . S
H401 C393 0.960 . S
H402 C394 0.930 . S
H403 C395 0.929 . S
H404 C412 0.929 . S
H405 C414 0.930 . S
H406 C416 0.930 . S
H407 C419 0.929 . S
H408 C422 0.930 . S
H409 C424 0.960 . S
H410 C424 0.960 . S
H411 C424 0.960 . S
C412 H404 0.929 . S
C412 C413 1.377 . S
C412 C414 1.384 . S
C413 C412 1.377 . S
C413 C419 1.390 . S
C414 H405 0.930 . S
C414 C412 1.384 . S
C414 C415 1.372 . S
C415 C414 1.372 . S
C415 C416 1.400 . S
C415 C420 1.490 . S
C416 H406 0.930 . S
C416 C415 1.400 . S
C416 C419 1.386 . S
H417 C433 0.930 . S
H418 C434 0.931 . S
C419 H407 0.929 . S
C419 C413 1.390 . S
C419 C416 1.386 . S
C420 C415 1.490 . S
C420 C422 1.395 . S
C420 C423 1.403 . S
H421 C427 0.930 . S
C422 H408 0.930 . S
C422 C420 1.395 . S
C422 C425 1.403 . S
C423 C420 1.403 . S
C423 C424 1.524 . S
C423 C427 1.400 . S
C424 H409 0.960 . S
C424 H410 0.960 . S
C424 H411 0.960 . S
C424 C423 1.524 . S
C425 C422 1.403 . S
C425 C426 1.392 . S
C425 C429 1.495 . S
C426 C425 1.392 . S
C426 C427 1.385 . S
C426 C428 1.478 . S
C427 H421 0.930 . S
C427 C423 1.400 . S
C427 C426 1.385 . S
C428 C426 1.478 . S
C428 C430 1.381 . S
C428 C434 1.383 . S
C429 C425 1.495 . S
C429 H435 0.959 . S
C429 H436 0.961 . S
C429 H437 0.960 . S
C430 C428 1.381 . S
C430 C431 1.394 . S
C430 H438 0.930 . S
C431 C430 1.394 . S
C431 C432 1.383 . S
C431 H439 0.929 . S
C432 C431 1.383 . S
C432 C433 1.377 . S
C433 H417 0.930 . S
C433 C432 1.377 . S
C433 C434 1.379 . S
C434 H418 0.931 . S
C434 C428 1.383 . S
C434 C433 1.379 . S
H435 C429 0.959 . S
H436 C429 0.961 . S
H437 C429 0.960 . S
H438 C430 0.930 . S
H439 C431 0.929 . S
H440 C448 0.929 1_455 S
H441 C450 0.930 . S
H442 C452 0.930 . S
H443 C455 0.929 . S
H444 C458 0.930 . S
H445 C460 0.960 . S
H446 C460 0.960 . S
H447 C460 0.960 . S
C448 H440 0.929 1_655 S
C448 C449 1.377 . S
C448 C450 1.384 . S
C449 C448 1.377 . S
C449 C455 1.390 . S
C450 H441 0.930 . S
C450 C448 1.384 . S
C450 C451 1.372 . S
C451 C450 1.372 . S
C451 C452 1.400 . S
C451 C456 1.490 . S
C452 H442 0.930 . S
C452 C451 1.400 . S
C452 C455 1.386 . S
H453 C469 0.930 . S
H454 C470 0.931 . S
C455 H443 0.929 . S
C455 C449 1.390 . S
C455 C452 1.386 . S
C456 C451 1.490 . S
C456 C458 1.395 . S
C456 C459 1.403 . S
H457 C463 0.930 . S
C458 H444 0.930 . S
C458 C456 1.395 . S
C458 C461 1.403 . S
C459 C456 1.403 . S
C459 C460 1.524 . S
C459 C463 1.400 . S
C460 H445 0.960 . S
C460 H446 0.960 . S
C460 H447 0.960 . S
C460 C459 1.524 . S
C461 C458 1.403 . S
C461 C462 1.392 . S
C461 C465 1.495 . S
C462 C461 1.392 . S
C462 C463 1.385 . S
C462 C464 1.478 . S
C463 H457 0.930 . S
C463 C459 1.400 . S
C463 C462 1.385 . S
C464 C462 1.478 . S
C464 C466 1.381 . S
C464 C470 1.383 . S
C465 C461 1.495 . S
C465 H471 0.959 1_655 S
C465 H472 0.961 . S
C465 H473 0.960 . S
C466 C464 1.381 . S
C466 C467 1.394 . S
C466 H474 0.930 . S
C467 C466 1.394 . S
C467 C468 1.383 . S
C467 H475 0.929 . S
C468 C467 1.383 . S
C468 C469 1.377 . S
C469 H453 0.930 . S
C469 C468 1.377 . S
C469 C470 1.379 . S
C470 H454 0.931 . S
C470 C464 1.383 . S
C470 C469 1.379 . S
H471 C465 0.959 1_455 S
H472 C465 0.961 . S
H473 C465 0.960 . S
H474 C466 0.930 . S
H475 C467 0.929 . S
H476 C484 0.929 . S
H477 C486 0.930 . S
H478 C488 0.930 . S
H479 C491 0.929 . S
H480 C494 0.930 . S
H481 C496 0.960 . S
H482 C496 0.960 . S
H483 C496 0.960 . S
C484 H476 0.929 . S
C484 C485 1.377 . S
C484 C486 1.384 . S
C485 C484 1.377 . S
C485 C491 1.390 . S
C486 H477 0.930 . S
C486 C484 1.384 . S
C486 C487 1.372 . S
C487 C486 1.372 . S
C487 C488 1.400 . S
C487 C492 1.490 . S
C488 H478 0.930 . S
C488 C487 1.400 . S
C488 C491 1.386 . S
H489 C505 0.930 . S
H490 C506 0.931 . S
C491 H479 0.929 . S
C491 C485 1.390 . S
C491 C488 1.386 . S
C492 C487 1.490 . S
C492 C494 1.395 . S
C492 C495 1.403 . S
H493 C499 0.930 . S
C494 H480 0.930 . S
C494 C492 1.395 . S
C494 C497 1.403 . S
C495 C492 1.403 . S
C495 C496 1.524 . S
C495 C499 1.400 . S
C496 H481 0.960 . S
C496 H482 0.960 . S
C496 H483 0.960 . S
C496 C495 1.524 . S
C497 C494 1.403 . S
C497 C498 1.392 . S
C497 C501 1.495 . S
C498 C497 1.392 . S
C498 C499 1.385 . S
C498 C500 1.478 . S
C499 H493 0.930 . S
C499 C495 1.400 . S
C499 C498 1.385 . S
C500 C498 1.478 . S
C500 C502 1.381 . S
C500 C506 1.383 . S
C501 C497 1.495 . S
C501 H507 0.959 . S
C501 H508 0.961 . S
C501 H509 0.960 . S
C502 C500 1.381 . S
C502 C503 1.394 . S
C502 H510 0.930 . S
C503 C502 1.394 . S
C503 C504 1.383 . S
C503 H511 0.929 . S
C504 C503 1.383 . S
C504 C505 1.377 . S
C505 H489 0.930 . S
C505 C504 1.377 . S
C505 C506 1.379 . S
C506 H490 0.931 . S
C506 C500 1.383 . S
C506 C505 1.379 . S
H507 C501 0.959 . S
H508 C501 0.961 . S
H509 C501 0.960 . S
H510 C502 0.930 . S
H511 C503 0.929 . S
H512 C520 0.929 . S
H513 C522 0.930 . S
H514 C524 0.930 . S
H515 C527 0.929 . S
H516 C530 0.930 . S
H517 C532 0.960 . S
H518 C532 0.960 . S
H519 C532 0.960 . S
C520 H512 0.929 . S
C520 C521 1.377 . S
C520 C522 1.384 . S
C521 C520 1.377 . S
C521 C527 1.390 . S
C522 H513 0.930 . S
C522 C520 1.384 . S
C522 C523 1.372 . S
C523 C522 1.372 . S
C523 C524 1.400 . S
C523 C528 1.490 . S
C524 H514 0.930 . S
C524 C523 1.400 . S
C524 C527 1.386 . S
H525 C541 0.930 . S
H526 C542 0.931 . S
C527 H515 0.929 . S
C527 C521 1.390 . S
C527 C524 1.386 . S
C528 C523 1.490 . S
C528 C530 1.395 . S
C528 C531 1.403 . S
H529 C535 0.930 . S
C530 H516 0.930 . S
C530 C528 1.395 . S
C530 C533 1.403 . S
C531 C528 1.403 . S
C531 C532 1.524 . S
C531 C535 1.400 . S
C532 H517 0.960 . S
C532 H518 0.960 . S
C532 H519 0.960 . S
C532 C531 1.524 . S
C533 C530 1.403 . S
C533 C534 1.392 . S
C533 C537 1.495 . S
C534 C533 1.392 . S
C534 C535 1.385 . S
C534 C536 1.478 . S
C535 H529 0.930 . S
C535 C531 1.400 . S
C535 C534 1.385 . S
C536 C534 1.478 . S
C536 C538 1.381 . S
C536 C542 1.383 . S
C537 C533 1.495 . S
C537 H543 0.959 . S
C537 H544 0.961 . S
C537 H545 0.960 . S
C538 C536 1.381 . S
C538 C539 1.394 . S
C538 H546 0.930 . S
C539 C538 1.394 . S
C539 C540 1.383 . S
C539 H547 0.929 . S
C540 C539 1.383 . S
C540 C541 1.377 . S
C541 H525 0.930 . S
C541 C540 1.377 . S
C541 C542 1.379 . S
C542 H526 0.931 . S
C542 C536 1.383 . S
C542 C541 1.379 . S
H543 C537 0.959 . S
H544 C537 0.961 . S
H545 C537 0.960 . S
H546 C538 0.930 . S
H547 C539 0.929 . S
H548 C556 0.929 . S
H549 C558 0.930 . S
H550 C560 0.929 1_455 S
H551 C563 0.929 1_455 S
H552 C566 0.930 . S
H553 C568 0.960 . S
H554 C568 0.960 . S
H555 C568 0.960 . S
C556 H548 0.929 . S
C556 C557 1.377 1_545 S
C556 C558 1.384 . S
C557 C556 1.377 1_565 S
C557 C563 1.390 . S
C558 H549 0.930 . S
C558 C556 1.384 . S
C558 C559 1.372 1_545 S
C559 C558 1.372 1_565 S
C559 C560 1.400 . S
C559 C564 1.490 . S
C560 H550 0.929 1_655 S
C560 C559 1.400 . S
C560 C563 1.386 . S
H561 C577 0.936 . S
H562 C578 0.931 . S
C563 H551 0.929 1_655 S
C563 C557 1.390 . S
C563 C560 1.386 . S
C564 C559 1.490 . S
C564 C566 1.395 1_665 S
C564 C567 1.403 . S
H565 C571 0.930 . S
C566 H552 0.930 . S
C566 C564 1.395 1_445 S
C566 C569 1.403 . S
C567 C564 1.403 . S
C567 C568 1.524 . S
C567 C571 1.400 . S
C568 H553 0.960 . S
C568 H554 0.960 . S
C568 H555 0.960 . S
C568 C567 1.524 . S
C569 C566 1.403 . S
C569 C570 1.392 1_455 S
C569 C573 1.495 . S
C570 C569 1.392 1_655 S
C570 C571 1.385 1_545 S
C570 C572 1.478 . S
C571 H565 0.930 . S
C571 C567 1.400 . S
C571 C570 1.385 1_565 S
C572 C570 1.478 . S
C572 C574 1.381 . S
C572 C578 1.383 1_645 S
C573 C569 1.495 . S
C573 H579 0.959 . S
C573 H580 0.961 . S
C573 H581 0.960 . S
C574 C572 1.381 . S
C574 C575 1.394 . S
C574 H582 0.930 . S
C575 C574 1.394 . S
C575 C576 1.383 . S
C575 H583 0.929 . S
C576 C575 1.383 . S
C576 C577 1.371 1_645 S
C577 H561 0.936 . S
C577 C576 1.371 1_465 S
C577 C578 1.379 . S
C578 H562 0.931 . S
C578 C572 1.383 1_465 S
C578 C577 1.379 . S
H579 C573 0.959 . S
H580 C573 0.961 . S
H581 C573 0.960 . S
H582 C574 0.930 . S
H583 C575 0.929 . S
H584 C592 0.929 . S
H585 C594 0.930 . S
H586 C596 0.930 . S
H587 C599 0.929 . S
H588 C602 0.930 . S
H589 C604 0.960 . S
H590 C604 0.960 . S
H591 C604 0.960 . S
C592 H584 0.929 . S
C592 C593 1.377 . S
C592 C594 1.384 . S
C593 C592 1.377 . S
C593 C599 1.390 . S
C594 H585 0.930 . S
C594 C592 1.384 . S
C594 C595 1.372 . S
C595 C594 1.372 . S
C595 C596 1.400 . S
C595 C600 1.490 . S
C596 H586 0.930 . S
C596 C595 1.400 . S
C596 C599 1.386 . S
H597 C613 0.930 . S
H598 C614 0.931 . S
C599 H587 0.929 . S
C599 C593 1.390 . S
C599 C596 1.386 . S
C600 C595 1.490 . S
C600 C602 1.395 . S
C600 C603 1.403 . S
H601 C607 0.930 . S
C602 H588 0.930 . S
C602 C600 1.395 . S
C602 C605 1.403 1_556 S
C603 C600 1.403 . S
C603 C604 1.524 . S
C603 C607 1.400 1_556 S
C604 H589 0.960 . S
C604 H590 0.960 . S
C604 H591 0.960 . S
C604 C603 1.524 . S
C605 C602 1.403 1_554 S
C605 C606 1.392 . S
C605 C609 1.495 . S
C606 C605 1.392 . S
C606 C607 1.385 . S
C606 C608 1.478 . S
C607 H601 0.930 . S
C607 C603 1.400 1_554 S
C607 C606 1.385 . S
C608 C606 1.478 . S
C608 C610 1.381 . S
C608 C614 1.383 . S
C609 C605 1.495 . S
C609 H615 0.959 . S
C609 H616 0.961 . S
C609 H617 0.960 . S
C610 C608 1.381 . S
C610 C611 1.394 . S
C610 H618 0.930 . S
C611 C610 1.394 . S
C611 C612 1.383 . S
C611 H619 0.929 . S
C612 C611 1.383 . S
C612 C613 1.377 . S
C613 H597 0.930 . S
C613 C612 1.377 . S
C613 C614 1.379 . S
C614 H598 0.931 . S
C614 C608 1.383 . S
C614 C613 1.379 . S
H615 C609 0.959 . S
H616 C609 0.961 . S
H617 C609 0.960 . S
H618 C610 0.930 . S
H619 C611 0.929 . S
H620 C628 0.929 . S
H621 C630 0.930 . S
H622 C632 0.930 1_545 S
H623 C635 0.929 1_545 S
H624 C638 0.930 . S
H625 C640 0.960 . S
H626 C640 0.960 . S
H627 C640 0.960 . S
C628 H620 0.929 . S
C628 C629 1.377 . S
C628 C630 1.384 . S
C629 C628 1.377 . S
C629 C635 1.390 . S
C630 H621 0.930 . S
C630 C628 1.384 . S
C630 C631 1.372 . S
C631 C630 1.372 . S
C631 C632 1.400 . S
C631 C636 1.490 . S
C632 H622 0.930 1_565 S
C632 C631 1.400 . S
C632 C635 1.386 . S
H633 C649 0.930 1_545 S
H634 C650 0.931 1_545 S
C635 H623 0.929 1_565 S
C635 C629 1.390 . S
C635 C632 1.386 . S
C636 C631 1.490 . S
C636 C638 1.395 . S
C636 C639 1.403 . S
H637 C643 0.930 . S
C638 H624 0.930 . S
C638 C636 1.395 . S
C638 C641 1.403 . S
C639 C636 1.403 . S
C639 C640 1.524 . S
C639 C643 1.400 . S
C640 H625 0.960 . S
C640 H626 0.960 . S
C640 H627 0.960 . S
C640 C639 1.524 . S
C641 C638 1.403 . S
C641 C642 1.392 . S
C641 C645 1.495 . S
C642 C641 1.392 . S
C642 C643 1.385 . S
C642 C644 1.478 . S
C643 H637 0.930 . S
C643 C639 1.400 . S
C643 C642 1.385 . S
C644 C642 1.478 . S
C644 C646 1.381 . S
C644 C650 1.383 . S
C645 C641 1.495 . S
C645 H651 0.959 . S
C645 H652 0.961 . S
C645 H653 0.960 . S
C646 C644 1.381 . S
C646 C647 1.394 . S
C646 H654 0.930 . S
C647 C646 1.394 . S
C647 C648 1.383 . S
C647 H655 0.929 . S
C648 C647 1.383 . S
C648 C649 1.377 . S
C649 H633 0.930 1_565 S
C649 C648 1.377 . S
C649 C650 1.379 . S
C650 H634 0.931 1_565 S
C650 C644 1.383 . S
C650 C649 1.379 . S
H651 C645 0.959 . S
H652 C645 0.961 . S
H653 C645 0.960 . S
H654 C646 0.930 . S
H655 C647 0.929 . S
H656 C664 0.929 . S
H657 C666 0.930 . S
H658 C668 0.930 . S
H659 C671 0.929 . S
H660 C674 0.930 . S
H661 C676 0.960 . S
H662 C676 0.960 . S
H663 C676 0.960 . S
C664 H656 0.929 . S
C664 C665 1.377 . S
C664 C666 1.384 . S
C665 C664 1.377 . S
C665 C671 1.390 . S
C666 H657 0.930 . S
C666 C664 1.384 . S
C666 C667 1.372 . S
C667 C666 1.372 . S
C667 C668 1.400 . S
C667 C672 1.490 . S
C668 H658 0.930 . S
C668 C667 1.400 . S
C668 C671 1.386 . S
H669 C685 0.930 . S
H670 C686 0.931 . S
C671 H659 0.929 . S
C671 C665 1.390 . S
C671 C668 1.386 . S
C672 C667 1.490 . S
C672 C674 1.395 . S
C672 C675 1.403 . S
H673 C679 0.930 . S
C674 H660 0.930 . S
C674 C672 1.395 . S
C674 C677 1.403 . S
C675 C672 1.403 . S
C675 C676 1.524 . S
C675 C679 1.400 . S
C676 H661 0.960 . S
C676 H662 0.960 . S
C676 H663 0.960 . S
C676 C675 1.524 . S
C677 C674 1.403 . S
C677 C678 1.392 . S
C677 C681 1.495 . S
C678 C677 1.392 . S
C678 C679 1.385 . S
C678 C680 1.478 . S
C679 H673 0.930 . S
C679 C675 1.400 . S
C679 C678 1.385 . S
C680 C678 1.478 . S
C680 C682 1.381 . S
C680 C686 1.383 . S
C681 C677 1.495 . S
C681 H687 0.959 . S
C681 H688 0.961 . S
C681 H689 0.960 . S
C682 C680 1.381 . S
C682 C683 1.394 . S
C682 H690 0.930 . S
C683 C682 1.394 . S
C683 C684 1.383 . S
C683 H691 0.929 . S
C684 C683 1.383 . S
C684 C685 1.377 . S
C685 H669 0.930 . S
C685 C684 1.377 . S
C685 C686 1.379 . S
C686 H670 0.931 . S
C686 C680 1.383 . S
C686 C685 1.379 . S
H687 C681 0.959 . S
H688 C681 0.961 . S
H689 C681 0.960 . S
H690 C682 0.930 . S
H691 C683 0.929 . S
H692 C700 0.929 . S
H693 C702 0.930 . S
H694 C704 0.930 . S
H695 C707 0.929 . S
H696 C710 0.930 . S
H697 C712 0.960 . S
H698 C712 0.960 . S
H699 C712 0.960 . S
C700 H692 0.929 . S
C700 C701 1.377 1_655 S
C700 C702 1.384 . S
C701 C700 1.377 1_455 S
C701 C707 1.390 . S
C702 H693 0.930 . S
C702 C700 1.384 . S
C702 C703 1.372 1_655 S
C703 C702 1.372 1_455 S
C703 C704 1.400 . S
C703 C708 1.490 . S
C704 H694 0.930 . S
C704 C703 1.400 . S
C704 C707 1.386 . S
H705 C721 0.930 . S
H706 C722 0.931 . S
C707 H695 0.929 . S
C707 C701 1.390 . S
C707 C704 1.386 . S
C708 C703 1.490 . S
C708 C710 1.395 1_455 S
C708 C711 1.403 . S
H709 C715 0.930 . S
C710 H696 0.930 . S
C710 C708 1.395 1_655 S
C710 C713 1.403 . S
C711 C708 1.403 . S
C711 C712 1.524 . S
C711 C715 1.400 . S
C712 H697 0.960 . S
C712 H698 0.960 . S
C712 H699 0.960 . S
C712 C711 1.524 . S
C713 C710 1.403 . S
C713 C714 1.392 1_655 S
C713 C717 1.495 . S
C714 C713 1.392 1_455 S
C714 C715 1.385 . S
C714 C716 1.478 . S
C715 H709 0.930 . S
C715 C711 1.400 . S
C715 C714 1.385 . S
C716 C714 1.478 . S
C716 C718 1.381 1_455 S
C716 C722 1.383 . S
C717 C713 1.495 . S
C717 H723 0.959 . S
C717 H724 0.961 . S
C717 H725 0.960 . S
C718 C716 1.381 1_655 S
C718 C719 1.394 . S
C718 H726 0.930 . S
C719 C718 1.394 . S
C719 C720 1.353 1_655 S
C719 H727 0.929 . S
C720 C719 1.353 1_455 S
C720 C721 1.404 . S
C721 H705 0.930 . S
C721 C720 1.404 . S
C721 C722 1.379 . S
C722 H706 0.931 . S
C722 C716 1.383 . S
C722 C721 1.379 . S
H723 C717 0.959 . S
H724 C717 0.961 . S
H725 C717 0.960 . S
H726 C718 0.930 . S
H727 C719 0.929 . S
H728 C736 0.929 . S
H729 C738 0.930 . S
H730 C740 0.930 . S
H731 C743 0.929 . S
H732 C746 0.930 . S
H733 C748 0.960 . S
H734 C748 0.960 . S
H735 C748 0.960 . S
C736 H728 0.929 . S
C736 C737 1.377 . S
C736 C738 1.384 . S
C737 C736 1.377 . S
C737 C743 1.390 . S
C738 H729 0.930 . S
C738 C736 1.384 . S
C738 C739 1.372 . S
C739 C738 1.372 . S
C739 C740 1.400 . S
C739 C744 1.490 . S
C740 H730 0.930 . S
C740 C739 1.400 . S
C740 C743 1.386 . S
H741 C757 0.930 . S
H742 C758 0.931 . S
C743 H731 0.929 . S
C743 C737 1.390 . S
C743 C740 1.386 . S
C744 C739 1.490 . S
C744 C746 1.395 1_655 S
C744 C747 1.403 1_655 S
H745 C751 0.930 . S
C746 H732 0.930 . S
C746 C744 1.395 1_455 S
C746 C749 1.403 . S
C747 C744 1.403 1_455 S
C747 C748 1.524 1_455 S
C747 C751 1.400 . S
C748 H733 0.960 . S
C748 H734 0.960 . S
C748 H735 0.960 . S
C748 C747 1.524 1_655 S
C749 C746 1.403 . S
C749 C750 1.392 . S
C749 C753 1.495 . S
C750 C749 1.392 . S
C750 C751 1.385 . S
C750 C752 1.478 . S
C751 H745 0.930 . S
C751 C747 1.400 . S
C751 C750 1.385 . S
C752 C750 1.478 . S
C752 C754 1.381 . S
C752 C758 1.383 . S
C753 C749 1.495 . S
C753 H759 0.959 . S
C753 H760 0.961 . S
C753 H761 0.960 . S
C754 C752 1.381 . S
C754 C755 1.394 . S
C754 H762 0.930 . S
C755 C754 1.394 . S
C755 C756 1.383 . S
C755 H763 0.929 . S
C756 C755 1.383 . S
C756 C757 1.377 . S
C757 H741 0.930 . S
C757 C756 1.377 . S
C757 C758 1.379 . S
C758 H742 0.931 . S
C758 C752 1.383 . S
C758 C757 1.379 . S
H759 C753 0.959 . S
H760 C753 0.961 . S
H761 C753 0.960 . S
H762 C754 0.930 . S
H763 C755 0.929 . S
H764 C772 0.929 . S
H765 C774 0.930 . S
H766 C776 0.930 . S
H767 C779 0.929 . S
H768 C782 0.930 . S
H769 C784 0.960 . S
H770 C784 0.960 1_556 S
H771 C784 0.960 . S
C772 H764 0.929 . S
C772 C773 1.377 . S
C772 C774 1.384 . S
C773 C772 1.377 . S
C773 C779 1.390 1_556 S
C774 H765 0.930 . S
C774 C772 1.384 . S
C774 C775 1.372 . S
C775 C774 1.372 . S
C775 C776 1.400 1_556 S
C775 C780 1.490 . S
C776 H766 0.930 . S
C776 C775 1.400 1_554 S
C776 C779 1.386 . S
H777 C793 0.930 . S
H778 C794 0.931 . S
C779 H767 0.929 . S
C779 C773 1.390 1_554 S
C779 C776 1.386 . S
C780 C775 1.490 . S
C780 C782 1.395 . S
C780 C783 1.396 1_556 S
H781 C787 0.930 . S
C782 H768 0.930 . S
C782 C780 1.395 . S
C782 C785 1.403 . S
C783 C780 1.396 1_554 S
C783 C784 1.531 . S
C783 C787 1.399 . S
C784 H769 0.960 . S
C784 H770 0.960 1_554 S
C784 H771 0.960 . S
C784 C783 1.531 . S
C785 C782 1.403 . S
C785 C786 1.392 . S
C785 C789 1.495 . S
C786 C785 1.392 . S
C786 C787 1.385 1_556 S
C786 C788 1.478 . S
C787 H781 0.930 . S
C787 C783 1.399 . S
C787 C786 1.385 1_554 S
C788 C786 1.478 . S
C788 C790 1.381 . S
C788 C794 1.383 1_556 S
C789 C785 1.495 . S
C789 H795 0.959 . S
C789 H796 0.961 . S
C789 H797 0.960 . S
C790 C788 1.381 . S
C790 C791 1.394 . S
C790 H798 0.930 . S
C791 C790 1.394 . S
C791 C792 1.383 . S
C791 H799 0.929 . S
C792 C791 1.383 . S
C792 C793 1.377 1_556 S
C793 H777 0.930 . S
C793 C792 1.377 1_554 S
C793 C794 1.379 . S
C794 H778 0.931 . S
C794 C788 1.383 1_554 S
C794 C793 1.379 . S
H795 C789 0.959 . S
H796 C789 0.961 . S
H797 C789 0.960 . S
H798 C790 0.930 . S
H799 C791 0.929 . S
H800 C808 0.929 . S
H801 C810 0.930 . S
H802 C812 0.930 . S
H803 C815 0.929 . S
H804 C818 0.930 . S
H805 C820 0.960 . S
H806 C820 0.960 . S
H807 C820 0.960 . S
C808 H800 0.929 . S
C808 C809 1.377 . S
C808 C810 1.384 . S
C809 C808 1.377 . S
C809 C815 1.390 . S
C810 H801 0.930 . S
C810 C808 1.384 . S
C810 C811 1.372 . S
C811 C810 1.372 . S
C811 C812 1.400 . S
C811 C816 1.490 . S
C812 H802 0.930 . S
C812 C811 1.400 . S
C812 C815 1.386 . S
H813 C829 0.930 . S
H814 C830 0.931 . S
C815 H803 0.929 . S
C815 C809 1.390 . S
C815 C812 1.386 . S
C816 C811 1.490 . S
C816 C818 1.395 . S
C816 C819 1.403 . S
H817 C823 0.930 . S
C818 H804 0.930 . S
C818 C816 1.395 . S
C818 C821 1.403 . S
C819 C816 1.403 . S
C819 C820 1.524 . S
C819 C823 1.400 . S
C820 H805 0.960 . S
C820 H806 0.960 . S
C820 H807 0.960 . S
C820 C819 1.524 . S
C821 C818 1.403 . S
C821 C822 1.392 . S
C821 C825 1.495 . S
C822 C821 1.392 . S
C822 C823 1.385 . S
C822 C824 1.478 . S
C823 H817 0.930 . S
C823 C819 1.400 . S
C823 C822 1.385 . S
C824 C822 1.478 . S
C824 C826 1.381 . S
C824 C830 1.383 . S
C825 C821 1.495 . S
C825 H831 0.959 . S
C825 H832 0.961 . S
C825 H833 0.960 . S
C826 C824 1.381 . S
C826 C827 1.394 . S
C826 H834 0.930 . S
C827 C826 1.394 . S
C827 C828 1.383 . S
C827 H835 0.929 . S
C828 C827 1.383 . S
C828 C829 1.377 . S
C829 H813 0.930 . S
C829 C828 1.377 . S
C829 C830 1.379 . S
C830 H814 0.931 . S
C830 C824 1.383 . S
C830 C829 1.379 . S
H831 C825 0.959 . S
H832 C825 0.961 . S
H833 C825 0.960 . S
H834 C826 0.930 . S
H835 C827 0.929 . S
H836 C844 0.929 . S
H837 C846 0.930 . S
H838 C848 0.930 . S
H839 C851 0.929 . S
H840 C854 0.930 . S
H841 C856 0.960 . S
H842 C856 0.960 . S
H843 C856 0.960 . S
C844 H836 0.929 . S
C844 C845 1.377 . S
C844 C846 1.384 . S
C845 C844 1.377 . S
C845 C851 1.390 . S
C846 H837 0.930 . S
C846 C844 1.384 . S
C846 C847 1.372 . S
C847 C846 1.372 . S
C847 C848 1.400 . S
C847 C852 1.490 . S
C848 H838 0.930 . S
C848 C847 1.400 . S
C848 C851 1.386 . S
H849 C865 0.930 . S
H850 C866 0.931 . S
C851 H839 0.929 . S
C851 C845 1.390 . S
C851 C848 1.386 . S
C852 C847 1.490 . S
C852 C854 1.395 . S
C852 C855 1.403 . S
H853 C859 0.930 . S
C854 H840 0.930 . S
C854 C852 1.395 . S
C854 C857 1.403 . S
C855 C852 1.403 . S
C855 C856 1.524 . S
C855 C859 1.400 . S
C856 H841 0.960 . S
C856 H842 0.960 . S
C856 H843 0.960 . S
C856 C855 1.524 . S
C857 C854 1.403 . S
C857 C858 1.392 . S
C857 C861 1.495 . S
C858 C857 1.392 . S
C858 C859 1.385 . S
C858 C860 1.478 . S
C859 H853 0.930 . S
C859 C855 1.400 . S
C859 C858 1.385 . S
C860 C858 1.478 . S
C860 C862 1.381 . S
C860 C866 1.383 . S
C861 C857 1.495 . S
C861 H867 0.959 . S
C861 H868 0.961 . S
C861 H869 0.960 . S
C862 C860 1.381 . S
C862 C863 1.394 . S
C862 H870 0.930 . S
C863 C862 1.394 . S
C863 C864 1.383 . S
C863 H871 0.929 . S
C864 C863 1.383 . S
C864 C865 1.377 . S
C865 H849 0.930 . S
C865 C864 1.377 . S
C865 C866 1.379 . S
C866 H850 0.931 . S
C866 C860 1.383 . S
C866 C865 1.379 . S
H867 C861 0.959 . S
H868 C861 0.961 . S
H869 C861 0.960 . S
H870 C862 0.930 . S
H871 C863 0.929 . S
H872 C880 0.929 . S
H873 C882 0.930 . S
H874 C884 0.930 . S
H875 C887 0.929 . S
H876 C890 0.930 . S
H877 C892 0.960 . S
H878 C892 0.960 . S
H879 C892 0.960 . S
C880 H872 0.929 . S
C880 C881 1.377 . S
C880 C882 1.384 . S
C881 C880 1.377 . S
C881 C887 1.390 . S
C882 H873 0.930 . S
C882 C880 1.384 . S
C882 C883 1.372 . S
C883 C882 1.372 . S
C883 C884 1.400 . S
C883 C888 1.490 . S
C884 H874 0.930 . S
C884 C883 1.400 . S
C884 C887 1.386 . S
H885 C901 0.930 . S
H886 C902 0.931 . S
C887 H875 0.929 . S
C887 C881 1.390 . S
C887 C884 1.386 . S
C888 C883 1.490 . S
C888 C890 1.395 . S
C888 C891 1.403 . S
H889 C895 0.930 . S
C890 H876 0.930 . S
C890 C888 1.395 . S
C890 C893 1.403 . S
C891 C888 1.403 . S
C891 C892 1.524 . S
C891 C895 1.400 . S
C892 H877 0.960 . S
C892 H878 0.960 . S
C892 H879 0.960 . S
C892 C891 1.524 . S
C893 C890 1.403 . S
C893 C894 1.392 . S
C893 C897 1.495 . S
C894 C893 1.392 . S
C894 C895 1.385 . S
C894 C896 1.478 1_455 S
C895 H889 0.930 . S
C895 C891 1.400 . S
C895 C894 1.385 . S
C896 C894 1.478 1_655 S
C896 C898 1.381 . S
C896 C902 1.383 . S
C897 C893 1.495 . S
C897 H903 0.959 . S
C897 H904 0.961 . S
C897 H905 0.960 . S
C898 C896 1.381 . S
C898 C899 1.394 . S
C898 H906 0.930 . S
C899 C898 1.394 . S
C899 C900 1.383 . S
C899 H907 0.929 . S
C900 C899 1.383 . S
C900 C901 1.377 . S
C901 H885 0.930 . S
C901 C900 1.377 . S
C901 C902 1.379 . S
C902 H886 0.931 . S
C902 C896 1.383 . S
C902 C901 1.379 . S
H903 C897 0.959 . S
H904 C897 0.961 . S
H905 C897 0.960 . S
H906 C898 0.930 . S
H907 C899 0.929 . S
H908 C916 0.929 . S
H909 C918 0.930 . S
H910 C920 0.930 . S
H911 C923 0.929 . S
H912 C926 0.930 . S
H913 C928 0.960 . S
H914 C928 0.960 . S
H915 C928 0.960 1_556 S
C916 H908 0.929 . S
C916 C917 1.377 1_554 S
C916 C918 1.384 . S
C917 C916 1.377 1_556 S
C917 C923 1.390 1_655 S
C918 H909 0.930 . S
C918 C916 1.384 . S
C918 C919 1.372 1_554 S
C919 C918 1.372 1_556 S
C919 C920 1.400 1_655 S
C919 C924 1.490 . S
C920 H910 0.930 . S
C920 C919 1.400 1_455 S
C920 C923 1.386 . S
H921 C937 0.930 . S
H922 C938 0.931 . S
C923 H911 0.929 . S
C923 C917 1.390 1_455 S
C923 C920 1.386 . S
C924 C919 1.490 . S
C924 C926 1.395 . S
C924 C927 1.403 1_656 S
H925 C931 0.930 . S
C926 H912 0.930 . S
C926 C924 1.395 . S
C926 C929 1.403 . S
C927 C924 1.403 1_454 S
C927 C928 1.524 . S
C927 C931 1.400 . S
C928 H913 0.960 . S
C928 H914 0.960 . S
C928 H915 0.960 1_554 S
C928 C927 1.524 . S
C929 C926 1.403 . S
C929 C930 1.392 1_556 S
C929 C933 1.495 . S
C930 C929 1.392 1_554 S
C930 C931 1.385 1_655 S
C930 C932 1.478 . S
C931 H925 0.930 . S
C931 C927 1.400 . S
C931 C930 1.385 1_455 S
C932 C930 1.478 . S
C932 C934 1.381 . S
C932 C938 1.383 1_654 S
C933 C929 1.495 . S
C933 H939 0.959 . S
C933 H940 0.961 . S
C933 H941 0.960 1_556 S
C934 C932 1.381 . S
C934 C935 1.394 . S
C934 H942 0.930 . S
C935 C934 1.394 . S
C935 C936 1.383 . S
C935 H943 0.929 . S
C936 C935 1.383 . S
C936 C937 1.377 1_654 S
C937 H921 0.930 . S
C937 C936 1.377 1_456 S
C937 C938 1.379 . S
C938 H922 0.931 . S
C938 C932 1.383 1_456 S
C938 C937 1.379 . S
H939 C933 0.959 . S
H940 C933 0.961 . S
H941 C933 0.960 1_554 S
H942 C934 0.930 . S
H943 C935 0.929 . S
H944 C952 0.929 . S
H945 C954 0.930 . S
H946 C956 0.930 . S
H947 C959 0.929 . S
H948 C962 0.930 . S
H949 C964 0.960 . S
H950 C964 0.960 . S
H951 C964 0.960 . S
C952 H944 0.929 . S
C952 C953 1.377 . S
C952 C954 1.384 . S
C953 C952 1.377 . S
C953 C959 1.390 . S
C954 H945 0.930 . S
C954 C952 1.384 . S
C954 C955 1.372 . S
C955 C954 1.372 . S
C955 C956 1.400 . S
C955 C960 1.490 . S
C956 H946 0.930 . S
C956 C955 1.400 . S
C956 C959 1.386 . S
H957 C973 0.930 . S
H958 C974 0.931 . S
C959 H947 0.929 . S
C959 C953 1.390 . S
C959 C956 1.386 . S
C960 C955 1.490 . S
C960 C962 1.395 . S
C960 C963 1.403 . S
H961 C967 0.930 . S
C962 H948 0.930 . S
C962 C960 1.395 . S
C962 C965 1.403 . S
C963 C960 1.403 . S
C963 C964 1.524 . S
C963 C967 1.400 . S
C964 H949 0.960 . S
C964 H950 0.960 . S
C964 H951 0.960 . S
C964 C963 1.524 . S
C965 C962 1.403 . S
C965 C966 1.392 . S
C965 C969 1.495 . S
C966 C965 1.392 . S
C966 C967 1.385 . S
C966 C968 1.478 . S
C967 H961 0.930 . S
C967 C963 1.400 . S
C967 C966 1.385 . S
C968 C966 1.478 . S
C968 C970 1.381 . S
C968 C974 1.383 . S
C969 C965 1.495 . S
C969 H975 0.959 . S
C969 H976 0.961 . S
C969 H977 0.960 . S
C970 C968 1.381 . S
C970 C971 1.394 . S
C970 H978 0.930 . S
C971 C970 1.394 . S
C971 C972 1.383 . S
C971 H979 0.929 . S
C972 C971 1.383 . S
C972 C973 1.377 . S
C973 H957 0.930 . S
C973 C972 1.377 . S
C973 C974 1.379 . S
C974 H958 0.931 . S
C974 C968 1.383 . S
C974 C973 1.379 . S
H975 C969 0.959 . S
H976 C969 0.961 . S
H977 C969 0.960 . S
H978 C970 0.930 . S
H979 C971 0.929 . S
H980 C988 0.929 . S
H981 C990 0.930 . S
H982 C992 0.930 . S
H983 C995 0.929 . S
H984 C998 0.930 . S
H985 C1000 0.960 . S
H986 C1000 0.960 . S
H987 C1000 0.960 . S
C988 H980 0.929 . S
C988 C989 1.377 . S
C988 C990 1.384 . S
C989 C988 1.377 . S
C989 C995 1.390 . S
C990 H981 0.930 . S
C990 C988 1.384 . S
C990 C991 1.372 . S
C991 C990 1.372 . S
C991 C992 1.400 . S
C991 C996 1.490 . S
C992 H982 0.930 . S
C992 C991 1.400 . S
C992 C995 1.386 . S
H993 C1009 0.930 . S
H994 C1010 0.931 . S
C995 H983 0.929 . S
C995 C989 1.390 . S
C995 C992 1.386 . S
C996 C991 1.490 . S
C996 C998 1.395 . S
C996 C999 1.403 . S
H997 C1003 0.930 . S
C998 H984 0.930 . S
C998 C996 1.395 . S
C998 C1001 1.403 . S
C999 C996 1.403 . S
C999 C1000 1.524 . S
C999 C1003 1.400 . S
C1000 H985 0.960 . S
C1000 H986 0.960 . S
C1000 H987 0.960 . S
C1000 C999 1.524 . S
C1001 C998 1.403 . S
C1001 C1002 1.392 . S
C1001 C1005 1.495 . S
C1002 C1001 1.392 . S
C1002 C1003 1.385 . S
C1002 C1004 1.478 1_545 S
C1003 H997 0.930 . S
C1003 C999 1.400 . S
C1003 C1002 1.385 . S
C1004 C1002 1.478 1_565 S
C1004 C1006 1.381 . S
C1004 C1010 1.383 . S
C1005 C1001 1.495 . S
C1005 H1011 0.959 . S
C1005 H1012 0.961 . S
C1005 H1013 0.960 . S
C1006 C1004 1.381 . S
C1006 C1007 1.394 . S
C1006 H1014 0.930 . S
C1007 C1006 1.394 . S
C1007 C1008 1.383 . S
C1007 H1015 0.929 . S
C1008 C1007 1.383 . S
C1008 C1009 1.377 . S
C1009 H993 0.930 . S
C1009 C1008 1.377 . S
C1009 C1010 1.379 . S
C1010 H994 0.931 . S
C1010 C1004 1.383 . S
C1010 C1009 1.379 . S
H1011 C1005 0.959 . S
H1012 C1005 0.961 . S
H1013 C1005 0.960 . S
H1014 C1006 0.930 . S
H1015 C1007 0.929 . S
H1016 C1024 0.929 . S
H1017 C1026 0.930 . S
H1018 C1028 0.930 . S
H1019 C1031 0.929 . S
H1020 C1034 0.930 . S
H1021 C1036 0.960 . S
H1022 C1036 0.960 . S
H1023 C1036 0.960 . S
C1024 H1016 0.929 . S
C1024 C1025 1.377 1_556 S
C1024 C1026 1.384 . S
C1025 C1024 1.377 1_554 S
C1025 C1031 1.390 . S
C1026 H1017 0.930 . S
C1026 C1024 1.384 . S
C1026 C1027 1.372 1_556 S
C1027 C1026 1.372 1_554 S
C1027 C1028 1.400 . S
C1027 C1032 1.490 1_554 S
C1028 H1018 0.930 . S
C1028 C1027 1.400 . S
C1028 C1031 1.386 . S
H1029 C1045 0.930 1_554 S
H1030 C1046 0.931 1_554 S
C1031 H1019 0.929 . S
C1031 C1025 1.390 . S
C1031 C1028 1.386 . S
C1032 C1027 1.490 1_556 S
C1032 C1034 1.400 . S
C1032 C1035 1.398 1_556 S
H1033 C1039 0.930 . S
C1034 H1020 0.930 . S
C1034 C1032 1.400 . S
C1034 C1037 1.403 . S
C1035 C1032 1.398 1_554 S
C1035 C1036 1.524 . S
C1035 C1039 1.400 . S
C1036 H1021 0.960 . S
C1036 H1022 0.960 . S
C1036 H1023 0.960 . S
C1036 C1035 1.524 . S
C1037 C1034 1.403 . S
C1037 C1038 1.392 . S
C1037 C1041 1.495 . S
C1038 C1037 1.392 . S
C1038 C1039 1.385 1_556 S
C1038 C1040 1.478 . S
C1039 H1033 0.930 . S
C1039 C1035 1.400 . S
C1039 C1038 1.385 1_554 S
C1040 C1038 1.478 . S
C1040 C1042 1.381 . S
C1040 C1046 1.383 . S
C1041 C1037 1.495 . S
C1041 H1047 0.959 . S
C1041 H1048 0.961 . S
C1041 H1049 0.960 . S
C1042 C1040 1.381 . S
C1042 C1043 1.394 . S
C1042 H1050 0.930 . S
C1043 C1042 1.394 . S
C1043 C1044 1.383 . S
C1043 H1051 0.929 . S
C1044 C1043 1.383 . S
C1044 C1045 1.377 . S
C1045 H1029 0.930 1_556 S
C1045 C1044 1.377 . S
C1045 C1046 1.379 . S
C1046 H1030 0.931 1_556 S
C1046 C1040 1.383 . S
C1046 C1045 1.379 . S
H1047 C1041 0.959 . S
H1048 C1041 0.961 . S
H1049 C1041 0.960 . S
H1050 C1042 0.930 . S
H1051 C1043 0.929 . S
H1052 C1060 0.929 . S
H1053 C1062 0.930 . S
H1054 C1064 0.930 . S
H1055 C1067 0.929 . S
H1056 C1070 0.930 . S
H1057 C1072 0.960 1_565 S
H1058 C1072 0.960 . S
H1059 C1072 0.960 . S
C1060 H1052 0.929 . S
C1060 C1061 1.377 . S
C1060 C1062 1.384 . S
C1061 C1060 1.377 . S
C1061 C1067 1.390 . S
C1062 H1053 0.930 . S
C1062 C1060 1.384 . S
C1062 C1063 1.372 . S
C1063 C1062 1.372 . S
C1063 C1064 1.400 . S
C1063 C1068 1.490 . S
C1064 H1054 0.930 . S
C1064 C1063 1.400 . S
C1064 C1067 1.386 . S
H1065 C1081 0.930 . S
H1066 C1082 0.931 . S
C1067 H1055 0.929 . S
C1067 C1061 1.390 . S
C1067 C1064 1.386 . S
C1068 C1063 1.490 . S
C1068 C1070 1.395 . S
C1068 C1071 1.403 1_545 S
H1069 C1075 0.930 . S
C1070 H1056 0.930 . S
C1070 C1068 1.395 . S
C1070 C1073 1.403 1_545 S
C1071 C1068 1.403 1_565 S
C1071 C1072 1.524 1_565 S
C1071 C1075 1.400 . S
C1072 H1057 0.960 1_545 S
C1072 H1058 0.960 . S
C1072 H1059 0.960 . S
C1072 C1071 1.524 1_545 S
C1073 C1070 1.403 1_565 S
C1073 C1074 1.392 . S
C1073 C1077 1.495 . S
C1074 C1073 1.392 . S
C1074 C1075 1.385 . S
C1074 C1076 1.478 . S
C1075 H1069 0.930 . S
C1075 C1071 1.400 . S
C1075 C1074 1.385 . S
C1076 C1074 1.478 . S
C1076 C1078 1.381 . S
C1076 C1082 1.383 . S
C1077 C1073 1.495 . S
C1077 H1083 0.959 . S
C1077 H1084 0.961 . S
C1077 H1085 0.960 . S
C1078 C1076 1.381 . S
C1078 C1079 1.394 . S
C1078 H1086 0.930 . S
C1079 C1078 1.394 . S
C1079 C1080 1.383 . S
C1079 H1087 0.929 . S
C1080 C1079 1.383 . S
C1080 C1081 1.377 . S
C1081 H1065 0.930 . S
C1081 C1080 1.377 . S
C1081 C1082 1.379 . S
C1082 H1066 0.931 . S
C1082 C1076 1.383 . S
C1082 C1081 1.379 . S
H1083 C1077 0.959 . S
H1084 C1077 0.961 . S
H1085 C1077 0.960 . S
H1086 C1078 0.930 . S
H1087 C1079 0.929 . S
H1088 C1096 0.929 . S
H1089 C1098 0.930 . S
H1090 C1100 0.955 . S
H1091 C1103 0.929 . S
H1092 C1106 0.930 . S
H1093 C1108 0.960 1_544 S
H1094 C1108 0.960 1_545 S
H1095 C1108 0.960 1_554 S
C1096 H1088 0.929 . S
C1096 C1097 1.377 . S
C1096 C1098 1.384 . S
C1097 C1096 1.377 . S
C1097 C1103 1.390 . S
C1098 H1089 0.930 . S
C1098 C1096 1.384 . S
C1098 C1099 1.372 . S
C1099 C1098 1.372 . S
C1099 C1100 1.400 . S
C1099 C1104 1.490 . S
C1100 H1090 0.955 . S
C1100 C1099 1.400 . S
C1100 C1103 1.386 . S
H1101 C1117 0.930 1_554 S
H1102 C1118 0.931 1_554 S
C1103 H1091 0.929 . S
C1103 C1097 1.390 . S
C1103 C1100 1.386 . S
C1104 C1099 1.490 . S
C1104 C1106 1.395 . S
C1104 C1107 1.403 . S
H1105 C1111 0.930 . S
C1106 H1092 0.930 . S
C1106 C1104 1.395 . S
C1106 C1109 1.403 . S
C1107 C1104 1.403 . S
C1107 C1108 1.524 . S
C1107 C1111 1.400 . S
C1108 H1093 0.960 1_566 S
C1108 H1094 0.960 1_565 S
C1108 H1095 0.960 1_556 S
C1108 C1107 1.524 . S
C1109 C1106 1.403 . S
C1109 C1110 1.392 . S
C1109 C1113 1.495 . S
C1110 C1109 1.392 . S
C1110 C1111 1.385 . S
C1110 C1112 1.478 . S
C1111 H1105 0.930 . S
C1111 C1107 1.400 . S
C1111 C1110 1.385 . S
C1112 C1110 1.478 . S
C1112 C1114 1.381 . S
C1112 C1118 1.383 . S
C1113 C1109 1.495 . S
C1113 H1119 0.959 . S
C1113 H1120 0.961 . S
C1113 H1121 0.960 . S
C1114 C1112 1.381 . S
C1114 C1115 1.394 . S
C1114 H1122 0.930 . S
C1115 C1114 1.394 . S
C1115 C1116 1.383 . S
C1115 H1123 0.929 . S
C1116 C1115 1.383 . S
C1116 C1117 1.377 . S
C1117 H1101 0.930 1_556 S
C1117 C1116 1.377 . S
C1117 C1118 1.379 . S
C1118 H1102 0.931 1_556 S
C1118 C1112 1.383 . S
C1118 C1117 1.379 . S
H1119 C1113 0.959 . S
H1120 C1113 0.961 . S
H1121 C1113 0.960 . S
H1122 C1114 0.930 . S
H1123 C1115 0.929 . S
H1124 C1132 0.929 . S
H1125 C1134 0.930 . S
H1126 C1136 0.930 . S
H1127 C1139 0.929 . S
H1128 C1142 0.930 . S
H1129 C1144 0.960 . S
H1130 C1144 0.960 . S
H1131 C1144 0.960 . S
C1132 H1124 0.929 . S
C1132 C1133 1.377 . S
C1132 C1134 1.384 . S
C1133 C1132 1.377 . S
C1133 C1139 1.390 . S
C1134 H1125 0.930 . S
C1134 C1132 1.384 . S
C1134 C1135 1.372 . S
C1135 C1134 1.372 . S
C1135 C1136 1.400 . S
C1135 C1140 1.490 . S
C1136 H1126 0.930 . S
C1136 C1135 1.400 . S
C1136 C1139 1.386 . S
H1137 C1153 0.930 . S
H1138 C1154 0.931 . S
C1139 H1127 0.929 . S
C1139 C1133 1.390 . S
C1139 C1136 1.386 . S
C1140 C1135 1.490 . S
C1140 C1142 1.395 . S
C1140 C1143 1.403 . S
H1141 C1147 0.930 . S
C1142 H1128 0.930 . S
C1142 C1140 1.395 . S
C1142 C1145 1.403 . S
C1143 C1140 1.403 . S
C1143 C1144 1.524 . S
C1143 C1147 1.400 . S
C1144 H1129 0.960 . S
C1144 H1130 0.960 . S
C1144 H1131 0.960 . S
C1144 C1143 1.524 . S
C1145 C1142 1.403 . S
C1145 C1146 1.392 . S
C1145 C1149 1.495 . S
C1146 C1145 1.392 . S
C1146 C1147 1.385 . S
C1146 C1148 1.478 . S
C1147 H1141 0.930 . S
C1147 C1143 1.400 . S
C1147 C1146 1.385 . S
C1148 C1146 1.478 . S
C1148 C1150 1.381 . S
C1148 C1154 1.383 . S
C1149 C1145 1.495 . S
C1149 H1155 0.959 . S
C1149 H1156 0.961 . S
C1149 H1157 0.960 . S
C1150 C1148 1.381 . S
C1150 C1151 1.394 . S
C1150 H1158 0.930 . S
C1151 C1150 1.394 . S
C1151 C1152 1.383 . S
C1151 H1159 0.929 . S
C1152 C1151 1.383 . S
C1152 C1153 1.377 . S
C1153 H1137 0.930 . S
C1153 C1152 1.377 . S
C1153 C1154 1.379 . S
C1154 H1138 0.931 . S
C1154 C1148 1.383 . S
C1154 C1153 1.379 . S
H1155 C1149 0.959 . S
H1156 C1149 0.961 . S
H1157 C1149 0.960 . S
H1158 C1150 0.930 . S
H1159 C1151 0.929 . S
H1160 C1168 0.929 . S
H1161 C1170 0.930 . S
H1162 C1172 0.930 . S
H1163 C1175 0.929 . S
H1164 C1178 0.930 . S
H1165 C1180 0.960 . S
H1166 C1180 0.960 . S
H1167 C1180 0.960 . S
C1168 H1160 0.929 . S
C1168 C1169 1.377 . S
C1168 C1170 1.384 . S
C1169 C1168 1.377 . S
C1169 C1175 1.390 . S
C1170 H1161 0.930 . S
C1170 C1168 1.384 . S
C1170 C1171 1.372 . S
C1171 C1170 1.372 . S
C1171 C1172 1.400 . S
C1171 C1176 1.490 . S
C1172 H1162 0.930 . S
C1172 C1171 1.400 . S
C1172 C1175 1.386 . S
H1173 C1189 0.930 . S
H1174 C1190 0.931 . S
C1175 H1163 0.929 . S
C1175 C1169 1.390 . S
C1175 C1172 1.386 . S
C1176 C1171 1.490 . S
C1176 C1178 1.395 . S
C1176 C1179 1.403 . S
H1177 C1183 0.930 . S
C1178 H1164 0.930 . S
C1178 C1176 1.395 . S
C1178 C1181 1.403 . S
C1179 C1176 1.403 . S
C1179 C1180 1.524 . S
C1179 C1183 1.400 . S
C1180 H1165 0.960 . S
C1180 H1166 0.960 . S
C1180 H1167 0.960 . S
C1180 C1179 1.524 . S
C1181 C1178 1.403 . S
C1181 C1182 1.392 . S
C1181 C1185 1.495 . S
C1182 C1181 1.392 . S
C1182 C1183 1.385 . S
C1182 C1184 1.478 . S
C1183 H1177 0.930 . S
C1183 C1179 1.400 . S
C1183 C1182 1.385 . S
C1184 C1182 1.478 . S
C1184 C1186 1.381 . S
C1184 C1190 1.383 . S
C1185 C1181 1.495 . S
C1185 H1191 0.959 . S
C1185 H1192 0.961 . S
C1185 H1193 0.960 . S
C1186 C1184 1.381 . S
C1186 C1187 1.394 . S
C1186 H1194 0.930 . S
C1187 C1186 1.394 . S
C1187 C1188 1.383 . S
C1187 H1195 0.929 . S
C1188 C1187 1.383 . S
C1188 C1189 1.377 . S
C1189 H1173 0.930 . S
C1189 C1188 1.377 . S
C1189 C1190 1.379 . S
C1190 H1174 0.931 . S
C1190 C1184 1.383 . S
C1190 C1189 1.379 . S
H1191 C1185 0.959 . S
H1192 C1185 0.961 . S
H1193 C1185 0.960 . S
H1194 C1186 0.930 . S
H1195 C1187 0.929 . S
H1196 C1204 0.929 . S
H1197 C1206 0.930 . S
H1198 C1208 0.930 . S
H1199 C1211 0.929 . S
H1200 C1214 0.930 . S
H1201 C1216 0.978 . S
H1202 C1216 0.960 . S
H1203 C1216 0.960 . S
C1204 H1196 0.929 . S
C1204 C1205 1.377 . S
C1204 C1206 1.384 . S
C1205 C1204 1.377 . S
C1205 C1211 1.390 . S
C1206 H1197 0.930 . S
C1206 C1204 1.384 . S
C1206 C1207 1.372 . S
C1207 C1206 1.372 . S
C1207 C1208 1.400 . S
C1207 C1212 1.490 . S
C1208 H1198 0.930 . S
C1208 C1207 1.400 . S
C1208 C1211 1.386 . S
H1209 C1225 0.930 . S
H1210 C1226 0.931 . S
C1211 H1199 0.929 . S
C1211 C1205 1.390 . S
C1211 C1208 1.386 . S
C1212 C1207 1.490 . S
C1212 C1214 1.395 . S
C1212 C1215 1.403 . S
H1213 C1219 0.930 . S
C1214 H1200 0.930 . S
C1214 C1212 1.395 . S
C1214 C1217 1.403 1_556 S
C1215 C1212 1.403 . S
C1215 C1216 1.524 . S
C1215 C1219 1.400 1_556 S
C1216 H1201 0.978 . S
C1216 H1202 0.960 . S
C1216 H1203 0.960 . S
C1216 C1215 1.524 . S
C1217 C1214 1.403 1_554 S
C1217 C1218 1.392 . S
C1217 C1221 1.495 . S
C1218 C1217 1.392 . S
C1218 C1219 1.385 . S
C1218 C1220 1.478 . S
C1219 H1213 0.930 . S
C1219 C1215 1.400 1_554 S
C1219 C1218 1.385 . S
C1220 C1218 1.478 . S
C1220 C1222 1.381 . S
C1220 C1226 1.383 . S
C1221 C1217 1.495 . S
C1221 H1227 0.959 . S
C1221 H1228 0.961 . S
C1221 H1229 0.960 . S
C1222 C1220 1.381 . S
C1222 C1223 1.394 . S
C1222 H1230 0.930 . S
C1223 C1222 1.394 . S
C1223 C1224 1.383 . S
C1223 H1231 0.929 . S
C1224 C1223 1.383 . S
C1224 C1225 1.377 . S
C1225 H1209 0.930 . S
C1225 C1224 1.377 . S
C1225 C1226 1.379 . S
C1226 H1210 0.931 . S
C1226 C1220 1.383 . S
C1226 C1225 1.379 . S
H1227 C1221 0.959 . S
H1228 C1221 0.961 . S
H1229 C1221 0.960 . S
H1230 C1222 0.930 . S
H1231 C1223 0.929 . S
H1232 C1240 0.929 . S
H1233 C1242 0.930 . S
H1234 C1244 0.930 . S
H1235 C1247 0.929 . S
H1236 C1250 0.930 . S
H1237 C1252 0.960 . S
H1238 C1252 0.960 . S
H1239 C1252 0.960 . S
C1240 H1232 0.929 . S
C1240 C1241 1.377 . S
C1240 C1242 1.384 . S
C1241 C1240 1.377 . S
C1241 C1247 1.390 . S
C1242 H1233 0.930 . S
C1242 C1240 1.384 . S
C1242 C1243 1.372 . S
C1243 C1242 1.372 . S
C1243 C1244 1.400 . S
C1243 C1248 1.490 . S
C1244 H1234 0.930 . S
C1244 C1243 1.400 . S
C1244 C1247 1.386 . S
H1245 C1261 0.930 . S
H1246 C1262 0.931 . S
C1247 H1235 0.929 . S
C1247 C1241 1.390 . S
C1247 C1244 1.386 . S
C1248 C1243 1.490 . S
C1248 C1250 1.395 . S
C1248 C1251 1.403 . S
H1249 C1255 0.930 . S
C1250 H1236 0.930 . S
C1250 C1248 1.395 . S
C1250 C1253 1.403 . S
C1251 C1248 1.403 . S
C1251 C1252 1.524 . S
C1251 C1255 1.400 . S
C1252 H1237 0.960 . S
C1252 H1238 0.960 . S
C1252 H1239 0.960 . S
C1252 C1251 1.524 . S
C1253 C1250 1.403 . S
C1253 C1254 1.392 . S
C1253 C1257 1.495 . S
C1254 C1253 1.392 . S
C1254 C1255 1.385 . S
C1254 C1256 1.478 . S
C1255 H1249 0.930 . S
C1255 C1251 1.400 . S
C1255 C1254 1.385 . S
C1256 C1254 1.478 . S
C1256 C1258 1.381 . S
C1256 C1262 1.383 . S
C1257 C1253 1.495 . S
C1257 H1263 0.959 . S
C1257 H1264 0.961 . S
C1257 H1265 0.960 . S
C1258 C1256 1.381 . S
C1258 C1259 1.394 . S
C1258 H1266 0.930 . S
C1259 C1258 1.394 . S
C1259 C1260 1.383 . S
C1259 H1267 0.929 . S
C1260 C1259 1.383 . S
C1260 C1261 1.377 . S
C1261 H1245 0.930 . S
C1261 C1260 1.377 . S
C1261 C1262 1.379 . S
C1262 H1246 0.931 . S
C1262 C1256 1.383 . S
C1262 C1261 1.379 . S
H1263 C1257 0.959 . S
H1264 C1257 0.961 . S
H1265 C1257 0.960 . S
H1266 C1258 0.930 . S
H1267 C1259 0.929 . S
H1268 C1276 0.929 . S
H1269 C1278 0.930 . S
H1270 C1280 0.930 . S
H1271 C1283 0.929 . S
H1272 C1286 0.930 . S
H1273 C1288 0.960 . S
H1274 C1288 0.960 . S
H1275 C1288 0.960 . S
C1276 H1268 0.929 . S
C1276 C1277 1.377 . S
C1276 C1278 1.384 . S
C1277 C1276 1.377 . S
C1277 C1283 1.390 . S
C1278 H1269 0.930 . S
C1278 C1276 1.384 . S
C1278 C1279 1.372 . S
C1279 C1278 1.372 . S
C1279 C1280 1.400 . S
C1279 C1284 1.490 . S
C1280 H1270 0.930 . S
C1280 C1279 1.400 . S
C1280 C1283 1.386 . S
H1281 C1297 0.930 . S
H1282 C1298 0.931 . S
C1283 H1271 0.929 . S
C1283 C1277 1.390 . S
C1283 C1280 1.386 . S
C1284 C1279 1.490 . S
C1284 C1286 1.395 . S
C1284 C1287 1.403 . S
H1285 C1291 0.930 . S
C1286 H1272 0.930 . S
C1286 C1284 1.395 . S
C1286 C1289 1.403 . S
C1287 C1284 1.403 . S
C1287 C1288 1.524 . S
C1287 C1291 1.400 . S
C1288 H1273 0.960 . S
C1288 H1274 0.960 . S
C1288 H1275 0.960 . S
C1288 C1287 1.524 . S
C1289 C1286 1.403 . S
C1289 C1290 1.392 . S
C1289 C1293 1.495 . S
C1290 C1289 1.392 . S
C1290 C1291 1.385 . S
C1290 C1292 1.478 . S
C1291 H1285 0.930 . S
C1291 C1287 1.400 . S
C1291 C1290 1.385 . S
C1292 C1290 1.478 . S
C1292 C1294 1.381 . S
C1292 C1298 1.383 . S
C1293 C1289 1.495 . S
C1293 H1299 0.959 . S
C1293 H1300 0.961 . S
C1293 H1301 0.960 . S
C1294 C1292 1.381 . S
C1294 C1295 1.394 . S
C1294 H1302 0.930 . S
C1295 C1294 1.394 . S
C1295 C1296 1.383 . S
C1295 H1303 0.929 . S
C1296 C1295 1.383 . S
C1296 C1297 1.377 . S
C1297 H1281 0.930 . S
C1297 C1296 1.377 . S
C1297 C1298 1.379 . S
C1298 H1282 0.931 . S
C1298 C1292 1.383 . S
C1298 C1297 1.379 . S
H1299 C1293 0.959 . S
H1300 C1293 0.961 . S
H1301 C1293 0.960 . S
H1302 C1294 0.930 . S
H1303 C1295 0.929 . S
H1304 C1312 0.929 . S
H1305 C1314 0.930 . S
H1306 C1316 0.930 . S
H1307 C1319 0.929 . S
H1308 C1322 0.930 . S
H1309 C1324 0.960 . S
H1310 C1324 0.960 . S
H1311 C1324 0.960 . S
C1312 H1304 0.929 . S
C1312 C1313 1.377 1_455 S
C1312 C1314 1.384 . S
C1313 C1312 1.377 1_655 S
C1313 C1319 1.390 . S
C1314 H1305 0.930 . S
C1314 C1312 1.384 . S
C1314 C1315 1.372 1_455 S
C1315 C1314 1.372 1_655 S
C1315 C1316 1.400 . S
C1315 C1320 1.490 . S
C1316 H1306 0.930 . S
C1316 C1315 1.400 . S
C1316 C1319 1.386 . S
H1317 C1333 0.930 . S
H1318 C1334 0.931 . S
C1319 H1307 0.929 . S
C1319 C1313 1.390 . S
C1319 C1316 1.386 . S
C1320 C1315 1.490 . S
C1320 C1322 1.395 . S
C1320 C1323 1.403 1_655 S
H1321 C1327 0.930 . S
C1322 H1308 0.930 . S
C1322 C1320 1.395 . S
C1322 C1325 1.403 . S
C1323 C1320 1.403 1_455 S
C1323 C1324 1.524 . S
C1323 C1327 1.400 . S
C1324 H1309 0.960 . S
C1324 H1310 0.960 . S
C1324 H1311 0.960 . S
C1324 C1323 1.524 . S
C1325 C1322 1.403 . S
C1325 C1326 1.392 . S
C1325 C1329 1.495 . S
C1326 C1325 1.392 . S
C1326 C1327 1.385 1_655 S
C1326 C1328 1.478 . S
C1327 H1321 0.930 . S
C1327 C1323 1.400 . S
C1327 C1326 1.385 1_455 S
C1328 C1326 1.478 . S
C1328 C1330 1.381 1_655 S
C1328 C1334 1.383 . S
C1329 C1325 1.495 . S
C1329 H1335 0.959 . S
C1329 H1336 0.961 . S
C1329 H1337 0.960 . S
C1330 C1328 1.381 1_455 S
C1330 C1331 1.394 . S
C1330 H1338 0.930 . S
C1331 C1330 1.394 . S
C1331 C1332 1.383 1_455 S
C1331 H1339 0.929 . S
C1332 C1331 1.383 1_655 S
C1332 C1333 1.377 . S
C1333 H1317 0.930 . S
C1333 C1332 1.377 . S
C1333 C1334 1.379 . S
C1334 H1318 0.931 . S
C1334 C1328 1.383 . S
C1334 C1333 1.379 . S
H1335 C1329 0.959 . S
H1336 C1329 0.961 . S
H1337 C1329 0.960 . S
H1338 C1330 0.930 . S
H1339 C1331 0.929 . S
H1340 C1348 0.929 . S
H1341 C1350 0.930 . S
H1342 C1352 0.930 1_565 S
H1343 C1355 0.929 1_565 S
H1344 C1358 0.930 . S
H1345 C1360 0.960 . S
H1346 C1360 0.960 . S
H1347 C1360 0.960 . S
C1348 H1340 0.929 . S
C1348 C1349 1.377 . S
C1348 C1350 1.384 . S
C1349 C1348 1.377 . S
C1349 C1355 1.390 . S
C1350 H1341 0.930 . S
C1350 C1348 1.384 . S
C1350 C1351 1.372 . S
C1351 C1350 1.372 . S
C1351 C1352 1.400 . S
C1351 C1356 1.490 . S
C1352 H1342 0.930 1_545 S
C1352 C1351 1.400 . S
C1352 C1355 1.386 . S
H1353 C1369 0.930 1_565 S
H1354 C1370 0.931 1_565 S
C1355 H1343 0.929 1_545 S
C1355 C1349 1.390 . S
C1355 C1352 1.386 . S
C1356 C1351 1.490 . S
C1356 C1358 1.395 . S
C1356 C1359 1.403 . S
H1357 C1363 0.930 . S
C1358 H1344 0.930 . S
C1358 C1356 1.395 . S
C1358 C1361 1.403 . S
C1359 C1356 1.403 . S
C1359 C1360 1.524 . S
C1359 C1363 1.400 . S
C1360 H1345 0.960 . S
C1360 H1346 0.960 . S
C1360 H1347 0.960 . S
C1360 C1359 1.524 . S
C1361 C1358 1.403 . S
C1361 C1362 1.392 . S
C1361 C1365 1.495 . S
C1362 C1361 1.392 . S
C1362 C1363 1.385 . S
C1362 C1364 1.478 . S
C1363 H1357 0.930 . S
C1363 C1359 1.400 . S
C1363 C1362 1.385 . S
C1364 C1362 1.478 . S
C1364 C1366 1.381 . S
C1364 C1370 1.383 . S
C1365 C1361 1.495 . S
C1365 H1371 0.959 . S
C1365 H1372 0.961 . S
C1365 H1373 0.960 . S
C1366 C1364 1.381 . S
C1366 C1367 1.394 . S
C1366 H1374 0.930 . S
C1367 C1366 1.394 . S
C1367 C1368 1.383 . S
C1367 H1375 0.929 . S
C1368 C1367 1.383 . S
C1368 C1369 1.377 . S
C1369 H1353 0.930 1_545 S
C1369 C1368 1.377 . S
C1369 C1370 1.379 . S
C1370 H1354 0.931 1_545 S
C1370 C1364 1.383 . S
C1370 C1369 1.379 . S
H1371 C1365 0.959 . S
H1372 C1365 0.961 . S
H1373 C1365 0.960 . S
H1374 C1366 0.930 . S
H1375 C1367 0.929 . S
C233 C6 1.769 . S
C252 C104 1.746 1_554 S
C269 C20 1.944 . S
C288 C62 1.942 . S
C305 C76 1.625 . S
C324 C34 1.683 . S
C341 C48 1.909 1_545 S
C360 C90 1.822 . S
C377 C118 1.940 . S
C396 C174 1.924 . S
C413 C132 1.626 . S
C432 C202 1.687 . S
C449 C160 1.928 . S
C468 C146 1.852 . S
C485 C216 1.742 . S
C504 C188 1.780 . S
C521 C9 0.904 . S
C540 C91 0.801 . S
C557 C106 1.594 . S
C576 C22 1.589 . S
C593 C37 0.907 . S
C612 C63 0.807 . S
C629 C78 1.758 . S
C648 C49 1.688 . S
C665 C8 1.246 . S
C684 C204 1.247 . S
C701 C163 0.556 . S
C720 C21 0.673 1_455 S
C737 C190 1.245 . S
C756 C36 1.238 . S
C773 C175 0.621 . S
C792 C51 0.594 1_556 S
C809 C149 2.024 . S
C828 C65 1.984 . S
C845 C77 0.769 . S
C864 C217 0.825 . S
C881 C93 2.022 . S
C900 C121 2.007 . S
C917 C105 0.787 . S
C936 C133 0.773 . S
C953 C7 1.486 . S
C972 C64 1.563 . S
C989 C120 1.558 . S
C1008 C189 1.454 . S
C1025 C177 1.616 . S
C1044 C135 1.631 . S
C1061 C203 1.049 . S
C1080 C148 1.084 . S
C1097 C107 1.508 . S
C1116 C50 1.513 . S
C1133 C35 1.048 . S
C1152 C92 1.057 . S
C1169 C162 1.516 . S
C1188 C219 1.497 . S
C1205 C191 0.903 . S
C1224 C147 0.870 . S
C1241 C218 1.593 . S
C1260 C176 1.587 . S
C1277 C205 0.907 . S
C1296 C119 0.929 . S
C1313 C161 1.657 1_655 S
C1332 C134 1.747 . S
C1349 C23 1.616 . S
C1368 C79 1.634 . S
