# Generated by pormake.
# Topology uoz, (4)-cn, num edge types: 1
# Building blocks:
#     Node 0, Type 0, BuildingBlock: UXUYUI_clean_sbu_0, # of connection points: 4
#     Node 1, Type 0, BuildingBlock: UXUYUI_clean_sbu_0, # of connection points: 4
#     Node 2, Type 0, BuildingBlock: UXUYUI_clean_sbu_0, # of connection points: 4
#     Node 3, Type 0, BuildingBlock: UXUYUI_clean_sbu_0, # of connection points: 4
#     Node 4, Type 0, BuildingBlock: UXUYUI_clean_sbu_0, # of connection points: 4
#     Node 5, Type 0, BuildingBlock: UXUYUI_clean_sbu_0, # of connection points: 4
#     Node 6, Type 0, BuildingBlock: UXUYUI_clean_sbu_0, # of connection points: 4
#     Node 7, Type 0, BuildingBlock: UXUYUI_clean_sbu_0, # of connection points: 4
#     Node 8, Type 0, BuildingBlock: UXUYUI_clean_sbu_0, # of connection points: 4
#     Node 9, Type 0, BuildingBlock: UXUYUI_clean_sbu_0, # of connection points: 4
#     Node 10, Type 0, BuildingBlock: UXUYUI_clean_sbu_0, # of connection points: 4
#     Node 11, Type 0, BuildingBlock: UXUYUI_clean_sbu_0, # of connection points: 4
#     Node 12, Type 0, BuildingBlock: UXUYUI_clean_sbu_0, # of connection points: 4
#     Node 13, Type 0, BuildingBlock: UXUYUI_clean_sbu_0, # of connection points: 4
#     Node 14, Type 0, BuildingBlock: UXUYUI_clean_sbu_0, # of connection points: 4
#     Node 15, Type 0, BuildingBlock: UXUYUI_clean_sbu_0, # of connection points: 4
#     Edge 16, Type (0, 0), BuildingBlock: MIFKUJ_clean_linker_0, # of connection points: 2
#     Edge 17, Type (0, 0), BuildingBlock: MIFKUJ_clean_linker_0, # of connection points: 2
#     Edge 18, Type (0, 0), BuildingBlock: MIFKUJ_clean_linker_0, # of connection points: 2
#     Edge 19, Type (0, 0), BuildingBlock: MIFKUJ_clean_linker_0, # of connection points: 2
#     Edge 20, Type (0, 0), BuildingBlock: MIFKUJ_clean_linker_0, # of connection points: 2
#     Edge 21, Type (0, 0), BuildingBlock: MIFKUJ_clean_linker_0, # of connection points: 2
#     Edge 22, Type (0, 0), BuildingBlock: MIFKUJ_clean_linker_0, # of connection points: 2
#     Edge 23, Type (0, 0), BuildingBlock: MIFKUJ_clean_linker_0, # of connection points: 2
#     Edge 24, Type (0, 0), BuildingBlock: MIFKUJ_clean_linker_0, # of connection points: 2
#     Edge 25, Type (0, 0), BuildingBlock: MIFKUJ_clean_linker_0, # of connection points: 2
#     Edge 26, Type (0, 0), BuildingBlock: MIFKUJ_clean_linker_0, # of connection points: 2
#     Edge 27, Type (0, 0), BuildingBlock: MIFKUJ_clean_linker_0, # of connection points: 2
#     Edge 28, Type (0, 0), BuildingBlock: MIFKUJ_clean_linker_0, # of connection points: 2
#     Edge 29, Type (0, 0), BuildingBlock: MIFKUJ_clean_linker_0, # of connection points: 2
#     Edge 30, Type (0, 0), BuildingBlock: MIFKUJ_clean_linker_0, # of connection points: 2
#     Edge 31, Type (0, 0), BuildingBlock: MIFKUJ_clean_linker_0, # of connection points: 2
#     Edge 32, Type (0, 0), BuildingBlock: MIFKUJ_clean_linker_0, # of connection points: 2
#     Edge 33, Type (0, 0), BuildingBlock: MIFKUJ_clean_linker_0, # of connection points: 2
#     Edge 34, Type (0, 0), BuildingBlock: MIFKUJ_clean_linker_0, # of connection points: 2
#     Edge 35, Type (0, 0), BuildingBlock: MIFKUJ_clean_linker_0, # of connection points: 2
#     Edge 36, Type (0, 0), BuildingBlock: MIFKUJ_clean_linker_0, # of connection points: 2
#     Edge 37, Type (0, 0), BuildingBlock: MIFKUJ_clean_linker_0, # of connection points: 2
#     Edge 38, Type (0, 0), BuildingBlock: MIFKUJ_clean_linker_0, # of connection points: 2
#     Edge 39, Type (0, 0), BuildingBlock: MIFKUJ_clean_linker_0, # of connection points: 2
#     Edge 40, Type (0, 0), BuildingBlock: MIFKUJ_clean_linker_0, # of connection points: 2
#     Edge 41, Type (0, 0), BuildingBlock: MIFKUJ_clean_linker_0, # of connection points: 2
#     Edge 42, Type (0, 0), BuildingBlock: MIFKUJ_clean_linker_0, # of connection points: 2
#     Edge 43, Type (0, 0), BuildingBlock: MIFKUJ_clean_linker_0, # of connection points: 2
#     Edge 44, Type (0, 0), BuildingBlock: MIFKUJ_clean_linker_0, # of connection points: 2
#     Edge 45, Type (0, 0), BuildingBlock: MIFKUJ_clean_linker_0, # of connection points: 2
#     Edge 46, Type (0, 0), BuildingBlock: MIFKUJ_clean_linker_0, # of connection points: 2
#     Edge 47, Type (0, 0), BuildingBlock: MIFKUJ_clean_linker_0, # of connection points: 2
# Relax obj value: 0.206
# Max RMSD: 0.135
# Mean RMSD: 0.135
data_MOF--net-uoz--node1-UXUYUI_clean_sbu_0--edge1-MIFKUJ_clean_linker_0
_symmetry_space_group_name_H-M    P1
_symmetry_Int_Tables_number       1
_symmetry_cell_setting            triclinic
loop_
_symmetry_equiv_pos_as_xyz
'x, y, z'
_cell_length_a     103.97476
_cell_length_b     103.74584
_cell_length_c     39.851135
_cell_angle_alpha  89.996067
_cell_angle_beta   89.997726
_cell_angle_gamma 89.995102
loop_
_atom_site_label
_atom_site_type_symbol
_atom_site_fract_x
_atom_site_fract_y
_atom_site_fract_z
_atom_type_partial_charge
Li0 Li 0.98747 0.59368 0.31966 0.0
Li1 Li 0.01047 0.59307 0.31839 0.0
Li2 Li 0.99828 0.57506 0.29603 0.0
Li3 Li 0.99977 0.57862 0.35812 0.0
C4 C 0.99312 0.60112 0.258 0.0
N5 N 0.98117 0.61826 0.21503 0.0
C6 C 0.99708 0.61399 0.25682 0.0
C7 C 0.98316 0.59695 0.23712 0.0
C8 C 0.99091 0.62251 0.23493 0.0
C9 C 0.9772 0.60577 0.21566 0.0
C10 C 0.00684 0.60589 0.37736 0.0
C11 C 0.02084 0.60907 0.42493 0.0
N12 N 0.02147 0.62186 0.41768 0.0
C13 C 0.00762 0.61908 0.37041 0.0
C14 C 0.01349 0.60084 0.40488 0.0
C15 C 0.01507 0.62699 0.39108 0.0
C16 C 0.96125 0.59941 0.30449 0.0
N17 N 0.97278 0.60457 0.31342 0.0
C18 C 0.96536 0.62573 0.29993 0.0
C19 C 0.97479 0.6175 0.31263 0.0
C20 C 0.95371 0.62058 0.28817 0.0
C21 C 0.9515 0.6073 0.29175 0.0
H22 H 0.95986 0.58912 0.30547 0.0
H23 H 0.98404 0.62136 0.31955 0.0
C24 C 0.02808 0.60247 0.27313 0.0
N25 N 0.02574 0.60265 0.3067 0.0
C26 C 0.03847 0.60918 0.25969 0.0
C27 C 0.04431 0.61585 0.3157 0.0
C28 C 0.03382 0.60887 0.32815 0.0
C29 C 0.04665 0.61615 0.28096 0.0
H30 H 0.02179 0.59715 0.25658 0.0
H31 H 0.03223 0.60841 0.35485 0.0
C32 C 0.97684 0.56461 0.32236 0.0
N33 N 0.96258 0.54295 0.30654 0.0
C34 C 0.9766 0.55407 0.34421 0.0
C35 C 0.96978 0.56414 0.29252 0.0
C36 C 0.96934 0.54321 0.33576 0.0
C37 C 0.96266 0.5531 0.28495 0.0
C38 C 0.02645 0.57378 0.32228 0.0
C39 C 0.03187 0.57073 0.29119 0.0
C40 C 0.03443 0.57687 0.34933 0.0
C41 C 0.04524 0.57093 0.28761 0.0
C42 C 0.04774 0.57695 0.34473 0.0
N43 N 0.05283 0.57402 0.31422 0.0
C44 C 0.00098 0.56635 0.23017 0.0
C45 C 0.99672 0.54965 0.26933 0.0
C46 C 0.00161 0.55745 0.20403 0.0
N47 N 0.99842 0.56234 0.26195 0.0
C48 C 0.99696 0.54045 0.24381 0.0
C49 C 0.99946 0.54439 0.21084 0.0
H50 H 0.00271 0.57644 0.2252 0.0
H51 H 0.9952 0.54668 0.295 0.0
C52 C 0.99073 0.57054 0.42257 0.0
N53 N 6e-05 0.56911 0.39896 0.0
C54 C 0.99013 0.56208 0.44992 0.0
C55 C 0.00899 0.55119 0.42854 0.0
C56 C 0.00915 0.55976 0.40159 0.0
C57 C 0.99927 0.55214 0.4529 0.0
H58 H 0.98349 0.57793 0.41951 0.0
H59 H 0.01626 0.55863 0.38205 0.0
O60 O 0.99884 0.5927 0.27984 0.0
O61 O 0.99936 0.59802 0.35788 0.0
O62 O 0.98393 0.57532 0.33019 0.0
O63 O 0.01338 0.57406 0.32597 0.0
H64 H 0.00468 0.61744 0.27307 0.0
H65 H 0.97999 0.58703 0.23764 0.0
H66 H 0.99381 0.63251 0.23395 0.0
H67 H 0.96942 0.60269 0.19955 0.0
H68 H 0.02605 0.60528 0.44626 0.0
H69 H 0.00268 0.62316 0.34908 0.0
H70 H 0.01301 0.59069 0.41074 0.0
H71 H 0.0158 0.6372 0.38589 0.0
H72 H 0.96738 0.63594 0.29803 0.0
H73 H 0.94266 0.60295 0.28292 0.0
H74 H 0.03987 0.60917 0.23276 0.0
H75 H 0.05056 0.62091 0.33301 0.0
H76 H 0.98199 0.55421 0.36739 0.0
H77 H 0.96995 0.57213 0.27513 0.0
H78 H 0.96909 0.53498 0.35241 0.0
H79 H 0.95722 0.55259 0.26184 0.0
H80 H 0.02582 0.56839 0.26996 0.0
H81 H 0.03036 0.57933 0.37349 0.0
H82 H 0.04957 0.56867 0.26365 0.0
H83 H 0.05404 0.57941 0.36538 0.0
H84 H 0.00365 0.56071 0.17876 0.0
H85 H 0.99543 0.53038 0.24974 0.0
H86 H 0.98252 0.56318 0.46823 0.0
H87 H 0.01608 0.54355 0.42947 0.0
Li88 Li 0.6727 0.75031 0.60547 0.0
Li89 Li 0.65714 0.76231 0.56959 0.0
Li90 Li 0.65841 0.73833 0.56872 0.0
Li91 Li 0.67581 0.75146 0.54637 0.0
C92 C 0.64952 0.74244 0.63375 0.0
N93 N 0.64188 0.72766 0.68786 0.0
C94 C 0.63981 0.74683 0.65511 0.0
C95 C 0.65534 0.73052 0.63986 0.0
C96 C 0.63608 0.73922 0.68235 0.0
C97 C 0.65134 0.72319 0.66736 0.0
C98 C 0.68638 0.77236 0.56846 0.0
C99 C 0.69713 0.78779 0.53293 0.0
N100 N 0.70863 0.78408 0.54599 0.0
C101 C 0.69831 0.7687 0.58156 0.0
C102 C 0.68576 0.78199 0.54397 0.0
C103 C 0.70945 0.77475 0.56988 0.0
C104 C 0.6881 0.73964 0.65624 0.0
N105 N 0.68168 0.75046 0.6469 0.0
C106 C 0.69118 0.76237 0.69185 0.0
C107 C 0.68287 0.76165 0.66433 0.0
C108 C 0.69839 0.75148 0.70128 0.0
C109 C 0.69655 0.73993 0.68343 0.0
H110 H 0.68705 0.73092 0.64173 0.0
H111 H 0.67773 0.77015 0.65605 0.0
C112 C 0.63341 0.77263 0.55327 0.0
N113 N 0.64545 0.77608 0.56297 0.0
C114 C 0.62497 0.78185 0.5405 0.0
C115 C 0.64121 0.79814 0.54978 0.0
C116 C 0.64936 0.78858 0.56245 0.0
C117 C 0.62899 0.79473 0.53757 0.0
H118 H 0.63065 0.76257 0.55366 0.0
H119 H 0.65903 0.79101 0.57013 0.0
C120 C 0.68126 0.72535 0.5567 0.0
N121 N 0.68913 0.70429 0.51941 0.0
C122 C 0.67746 0.72406 0.5232 0.0
C123 C 0.68913 0.71593 0.57114 0.0
C124 C 0.68153 0.71335 0.50479 0.0
C125 C 0.69299 0.70535 0.5519 0.0
C126 C 0.65331 0.75269 0.49981 0.0
C127 C 0.64899 0.74236 0.4803 0.0
C128 C 0.65247 0.76523 0.48711 0.0
C129 C 0.64399 0.74474 0.44836 0.0
C130 C 0.64739 0.76721 0.45507 0.0
N131 N 0.6433 0.75701 0.43652 0.0
C132 C 0.63542 0.72682 0.55072 0.0
C133 C 0.65182 0.7114 0.56071 0.0
C134 C 0.62722 0.71724 0.53859 0.0
N135 N 0.64758 0.72381 0.56054 0.0
C136 C 0.64403 0.70156 0.54812 0.0
C137 C 0.63167 0.70451 0.53625 0.0
H138 H 0.63232 0.73677 0.55081 0.0
H139 H 0.66138 0.70916 0.56942 0.0
C140 C 0.69997 0.74622 0.51679 0.0
N141 N 0.68869 0.75263 0.51212 0.0
C142 C 0.70936 0.74624 0.49182 0.0
C143 C 0.6958 0.76026 0.45871 0.0
C144 C 0.68658 0.75977 0.48406 0.0
C145 C 0.70724 0.75324 0.46226 0.0
H146 H 0.70165 0.741 0.53984 0.0
H147 H 0.6778 0.76516 0.48137 0.0
O148 O 0.65326 0.74982 0.60704 0.0
O149 O 0.67542 0.76627 0.57885 0.0
O150 O 0.67743 0.73576 0.57536 0.0
O151 O 0.65788 0.75056 0.53158 0.0
H152 H 0.63521 0.75604 0.65067 0.0
H153 H 0.66285 0.72693 0.62361 0.0
H154 H 0.62858 0.7425 0.69911 0.0
H155 H 0.65576 0.71395 0.6724 0.0
H156 H 0.6968 0.79519 0.51383 0.0
H157 H 0.69898 0.76115 0.60021 0.0
H158 H 0.67664 0.78478 0.53314 0.0
H159 H 0.71875 0.77197 0.57967 0.0
H160 H 0.69215 0.77143 0.7051 0.0
H161 H 0.702 0.73134 0.68934 0.0
H162 H 0.61555 0.77883 0.53195 0.0
H163 H 0.64472 0.80794 0.54784 0.0
H164 H 0.67152 0.73126 0.5114 0.0
H165 H 0.69223 0.71675 0.59694 0.0
H166 H 0.67865 0.71226 0.47886 0.0
H167 H 0.69905 0.69799 0.56281 0.0
H168 H 0.64947 0.73259 0.48969 0.0
H169 H 0.65585 0.77335 0.50163 0.0
H170 H 0.64063 0.73682 0.43302 0.0
H171 H 0.64673 0.77687 0.44495 0.0
H172 H 0.61776 0.71987 0.52951 0.0
H173 H 0.64769 0.69179 0.54703 0.0
H174 H 0.71819 0.7409 0.49559 0.0
H175 H 0.69389 0.76583 0.43625 0.0
Li176 Li 0.50121 0.4261 0.79722 0.0
Li177 Li 0.50072 0.42214 0.85674 0.0
Li178 Li 0.5126 0.40789 0.81793 0.0
Li179 Li 0.48914 0.40723 0.81757 0.0
C180 C 0.52296 0.43671 0.81886 0.0
N181 N 0.5368 0.45804 0.79818 0.0
C182 C 0.52339 0.44778 0.83887 0.0
C183 C 0.52964 0.43649 0.78842 0.0
C184 C 0.53044 0.45846 0.82797 0.0
C185 C 0.53655 0.44737 0.77836 0.0
C186 C 0.47983 0.43746 0.82382 0.0
C187 C 0.46237 0.4504 0.80246 0.0
N188 N 0.46782 0.46107 0.81627 0.0
C189 C 0.48523 0.44855 0.8379 0.0
C190 C 0.46827 0.43838 0.80607 0.0
C191 C 0.47903 0.46039 0.83379 0.0
C192 C 0.49757 0.43454 0.7314 0.0
N193 N 0.50043 0.43888 0.76271 0.0
C194 C 0.50122 0.46061 0.7429 0.0
C195 C 0.5022 0.45166 0.76886 0.0
C196 C 0.49841 0.45636 0.7103 0.0
C197 C 0.49659 0.44314 0.70465 0.0
H198 H 0.49594 0.42439 0.7272 0.0
H199 H 0.50437 0.45496 0.79386 0.0
C200 C 0.51197 0.4324 0.91521 0.0
N201 N 0.50053 0.43015 0.89977 0.0
C202 C 0.51257 0.44053 0.94309 0.0
C203 C 0.48948 0.44307 0.94017 0.0
C204 C 0.48934 0.43489 0.91235 0.0
C205 C 0.50127 0.44634 0.95523 0.0
H206 H 0.52071 0.42846 0.90467 0.0
H207 H 0.48037 0.43294 0.89959 0.0
C208 C 0.50582 0.40003 0.75667 0.0
N209 N 0.51657 0.38246 0.71268 0.0
C210 C 0.50105 0.38744 0.75495 0.0
C211 C 0.51592 0.40372 0.73562 0.0
C212 C 0.50663 0.3787 0.7326 0.0
C213 C 0.52128 0.39468 0.7137 0.0
C214 C 0.49412 0.39803 0.88241 0.0
C215 C 0.49936 0.38851 0.90309 0.0
C216 C 0.48188 0.40293 0.8894 0.0
C217 C 0.49226 0.38403 0.93049 0.0
C218 C 0.47509 0.39822 0.91704 0.0
N219 N 0.48038 0.38894 0.93685 0.0
C220 C 0.53889 0.4023 0.80423 0.0
C221 C 0.5251 0.3842 0.8085 0.0
C222 C 0.54885 0.39454 0.79222 0.0
N223 N 0.52718 0.39709 0.81093 0.0
C224 C 0.53473 0.3761 0.79629 0.0
C225 C 0.5467 0.38131 0.78699 0.0
H226 H 0.54038 0.41254 0.80698 0.0
H227 H 0.51568 0.38033 0.81414 0.0
C228 C 0.46721 0.40114 0.7819 0.0
N229 N 0.47466 0.39674 0.80743 0.0
C230 C 0.45737 0.39351 0.76887 0.0
C231 C 0.46311 0.37682 0.80846 0.0
C232 C 0.47278 0.38485 0.82101 0.0
C233 C 0.45536 0.38109 0.78176 0.0
H234 H 0.46934 0.41035 0.77054 0.0
H235 H 0.47912 0.38138 0.8405 0.0
O236 O 0.51614 0.42612 0.82916 0.0
O237 O 0.48579 0.42577 0.82748 0.0
O238 O 0.50069 0.40866 0.77897 0.0
O239 O 0.50103 0.40251 0.85563 0.0
H240 H 0.51826 0.44822 0.86239 0.0
H241 H 0.52939 0.42807 0.77254 0.0
H242 H 0.5308 0.46709 0.84314 0.0
H243 H 0.54169 0.44734 0.75477 0.0
H244 H 0.45343 0.45125 0.78873 0.0
H245 H 0.49424 0.44809 0.85131 0.0
H246 H 0.46385 0.42992 0.79528 0.0
H247 H 0.48316 0.46905 0.84438 0.0
H248 H 0.50278 0.47073 0.7482 0.0
H249 H 0.49423 0.43951 0.67992 0.0
H250 H 0.52183 0.44259 0.95431 0.0
H251 H 0.48054 0.44737 0.9485 0.0
H252 H 0.49326 0.38438 0.77101 0.0
H253 H 0.51964 0.41344 0.73628 0.0
H254 H 0.50311 0.3689 0.73123 0.0
H255 H 0.52918 0.39739 0.6975 0.0
H256 H 0.50883 0.38462 0.898 0.0
H257 H 0.47762 0.41025 0.87362 0.0
H258 H 0.49621 0.37667 0.94672 0.0
H259 H 0.46562 0.40192 0.92273 0.0
H260 H 0.55802 0.39892 0.78619 0.0
H261 H 0.53256 0.366 0.79246 0.0
H262 H 0.45184 0.39704 0.74775 0.0
H263 H 0.46189 0.36726 0.81895 0.0
Li264 Li 0.8281 0.25007 0.10154 0.0
Li265 Li 0.84315 0.23774 0.06647 0.0
Li266 Li 0.84188 0.26135 0.06226 0.0
Li267 Li 0.82449 0.24752 0.04097 0.0
C268 C 0.85036 0.25016 0.1344 0.0
N269 N 0.85568 0.24847 0.20214 0.0
C270 C 0.85428 0.23844 0.1483 0.0
C271 C 0.84925 0.26105 0.15483 0.0
C272 C 0.85692 0.23778 0.18264 0.0
C273 C 0.85194 0.25998 0.18906 0.0
C274 C 0.81435 0.2267 0.06848 0.0
C275 C 0.80306 0.21219 0.03146 0.0
N276 N 0.79258 0.21282 0.0518 0.0
C277 C 0.80348 0.22717 0.08909 0.0
C278 C 0.81417 0.2191 0.03951 0.0
C279 C 0.79256 0.22009 0.0802 0.0
C280 C 0.80872 0.25947 0.14316 0.0
N281 N 0.81864 0.25094 0.14265 0.0
C282 C 0.81178 0.24194 0.19501 0.0
C283 C 0.82037 0.24229 0.16795 0.0
C284 C 0.80118 0.25033 0.19541 0.0
C285 C 0.79984 0.25933 0.16937 0.0
H286 H 0.80731 0.266 0.12241 0.0
H287 H 0.82803 0.23528 0.1664 0.0
C288 C 0.86742 0.22596 0.06028 0.0
N289 N 0.8546 0.22352 0.06214 0.0
C290 C 0.87586 0.21642 0.04906 0.0
C291 C 0.85787 0.20174 0.04473 0.0
C292 C 0.84977 0.2116 0.0558 0.0
C293 C 0.87103 0.20425 0.04009 0.0
H294 H 0.87097 0.23555 0.06547 0.0
H295 H 0.83955 0.20992 0.05755 0.0
C296 C 0.82075 0.27602 0.06473 0.0
N297 N 0.81678 0.30213 0.05616 0.0
C298 C 0.81466 0.28058 0.03581 0.0
C299 C 0.82471 0.28471 0.08944 0.0
C300 C 0.81277 0.29383 0.03192 0.0
C301 C 0.82265 0.29788 0.08459 0.0
C302 C 0.8514 0.24356 0.00491 0.0
C303 C 0.86353 0.24932 0.00283 0.0
C304 C 0.84889 0.23232 0.98671 0.0
C305 C 0.873 0.24365 0.98281 0.0
C306 C 0.85863 0.22692 0.96707 0.0
N307 N 0.87038 0.23264 0.96555 0.0
C308 C 0.86175 0.28044 0.06791 0.0
C309 C 0.84762 0.2822 0.0215 0.0
C310 C 0.86927 0.29058 0.05555 0.0
N311 N 0.85125 0.27641 0.05056 0.0
C312 C 0.85466 0.2925 0.00866 0.0
C313 C 0.86586 0.29665 0.02519 0.0
H314 H 0.86457 0.27545 0.0906 0.0
H315 H 0.83944 0.27855 0.00774 0.0
C316 C 0.79923 0.24663 0.01465 0.0
N317 N 0.81194 0.24664 0.00672 0.0
C318 C 0.78998 0.24663 0.98931 0.0
C319 C 0.80709 0.24712 0.94824 0.0
C320 C 0.816 0.24695 0.97435 0.0
C321 C 0.79387 0.24696 0.95552 0.0
H322 H 0.79629 0.24674 0.04067 0.0
H323 H 0.82616 0.24738 0.9688 0.0
O324 O 0.8477 0.251 0.10091 0.0
O325 O 0.82511 0.23363 0.07663 0.0
O326 O 0.82282 0.2631 0.06886 0.0
O327 O 0.8421 0.24878 0.02509 0.0
H328 H 0.8552 0.22993 0.13278 0.0
H329 H 0.8463 0.27021 0.14435 0.0
H330 H 0.85991 0.22876 0.1938 0.0
H331 H 0.85106 0.26831 0.20522 0.0
H332 H 0.80276 0.20635 0.00898 0.0
H333 H 0.80342 0.23296 0.11163 0.0
H334 H 0.82245 0.2187 0.02311 0.0
H335 H 0.78407 0.2204 0.09587 0.0
H336 H 0.81303 0.23476 0.21447 0.0
H337 H 0.79181 0.26598 0.16886 0.0
H338 H 0.88597 0.21868 0.04624 0.0
H339 H 0.85375 0.19252 0.03796 0.0
H340 H 0.81152 0.27397 0.01647 0.0
H341 H 0.82939 0.28131 0.11202 0.0
H342 H 0.80812 0.29751 0.00959 0.0
H343 H 0.82573 0.30473 0.10342 0.0
H344 H 0.86567 0.25799 0.01684 0.0
H345 H 0.83957 0.22772 0.98809 0.0
H346 H 0.88245 0.24795 0.98112 0.0
H347 H 0.85686 0.21815 0.95313 0.0
H348 H 0.87792 0.29325 0.06897 0.0
H349 H 0.85144 0.29698 0.98561 0.0
H350 H 0.7799 0.24641 0.99615 0.0
H351 H 0.81056 0.24771 0.92266 0.0
Li352 Li 0.00156 0.42172 0.78474 0.0
Li353 Li 0.00026 0.42632 0.84668 0.0
Li354 Li 0.01246 0.4081 0.82542 0.0
Li355 Li 0.98921 0.40692 0.82518 0.0
C356 C 0.02843 0.42706 0.81687 0.0
N357 N 0.05497 0.42653 0.81875 0.0
C358 C 0.03496 0.43152 0.84521 0.0
C359 C 0.03537 0.42244 0.78936 0.0
C360 C 0.0484 0.43115 0.8457 0.0
C361 C 0.04879 0.42222 0.79083 0.0
C362 C 0.97707 0.43498 0.81552 0.0
C363 C 0.95817 0.44437 0.84077 0.0
N364 N 0.95932 0.45475 0.82014 0.0
C365 C 0.97802 0.44571 0.79442 0.0
C366 C 0.96702 0.43426 0.83874 0.0
C367 C 0.96897 0.45561 0.79719 0.0
C368 C 0.99331 0.42834 0.71789 0.0
N369 N 0.00188 0.4306 0.74298 0.0
C370 C 0.01017 0.44899 0.71413 0.0
C371 C 0.01031 0.44058 0.74136 0.0
C372 C 0.00123 0.44718 0.68812 0.0
C373 C 0.99283 0.43655 0.68999 0.0
H374 H 0.98657 0.42044 0.7201 0.0
H375 H 0.0168 0.44237 0.76201 0.0
C376 C 0.00671 0.4363 0.90897 0.0
N377 N 0.0002 0.43925 0.88039 0.0
C378 C 0.00724 0.44509 0.93538 0.0
C379 C 0.99443 0.45986 0.90243 0.0
C380 C 0.9943 0.45084 0.87646 0.0
C381 C 0.00095 0.45699 0.93232 0.0
H382 H 0.0115 0.42709 0.91121 0.0
H383 H 0.98955 0.45318 0.85324 0.0
C384 C 0.00691 0.39294 0.76945 0.0
N385 N 0.01847 0.37357 0.73273 0.0
C386 C 0.00546 0.38008 0.77916 0.0
C387 C 0.0141 0.39596 0.74086 0.0
C388 C 0.01143 0.37042 0.76031 0.0
C389 C 0.0199 0.38602 0.72269 0.0
C390 C 0.99528 0.40482 0.89315 0.0
C391 C 0.99977 0.39382 0.90966 0.0
C392 C 0.98493 0.41169 0.90653 0.0
C393 C 0.99371 0.38979 0.93913 0.0
C394 C 0.97912 0.40736 0.93606 0.0
N395 N 0.98359 0.39658 0.9516 0.0
C396 C 0.03097 0.40076 0.87022 0.0
C397 C 0.03394 0.38967 0.8189 0.0
C398 C 0.04092 0.39384 0.8851 0.0
N399 N 0.02747 0.39842 0.83795 0.0
C400 C 0.04386 0.38233 0.833 0.0
C401 C 0.04729 0.38417 0.86684 0.0
H402 H 0.02584 0.40792 0.88469 0.0
H403 H 0.03131 0.38815 0.79306 0.0
C404 C 0.9626 0.39937 0.82828 0.0
N405 N 0.97502 0.3958 0.83376 0.0
C406 C 0.95253 0.39193 0.8413 0.0
C407 C 0.96825 0.37712 0.86396 0.0
C408 C 0.97795 0.38467 0.85002 0.0
C409 C 0.95539 0.38091 0.86035 0.0
H410 H 0.96053 0.40822 0.81507 0.0
H411 H 0.9879 0.38201 0.85367 0.0
O412 O 0.01528 0.42699 0.81625 0.0
O413 O 0.98582 0.42516 0.81301 0.0
O414 O 0.00099 0.40251 0.78718 0.0
O415 O 0.00093 0.40872 0.86384 0.0
H416 H 0.02972 0.43513 0.86669 0.0
H417 H 0.03044 0.41895 0.76726 0.0
H418 H 0.05359 0.4345 0.86754 0.0
H419 H 0.0543 0.4186 0.76981 0.0
H420 H 0.95038 0.44394 0.85871 0.0
H421 H 0.98571 0.44648 0.77631 0.0
H422 H 0.966 0.42598 0.85499 0.0
H423 H 0.96962 0.46399 0.78113 0.0
H424 H 0.01663 0.45717 0.71431 0.0
H425 H 0.98583 0.43474 0.67044 0.0
H426 H 0.01234 0.44253 0.95813 0.0
H427 H 0.98963 0.46904 0.89904 0.0
H428 H 0.99985 0.37759 0.80106 0.0
H429 H 0.01515 0.40586 0.73278 0.0
H430 H 0.01046 0.36043 0.76761 0.0
H431 H 0.02553 0.3882 0.70058 0.0
H432 H 0.00775 0.38835 0.89957 0.0
H433 H 0.98144 0.42029 0.8943 0.0
H434 H 0.99702 0.38124 0.95205 0.0
H435 H 0.97108 0.41257 0.94663 0.0
H436 H 0.04345 0.39595 0.91087 0.0
H437 H 0.04845 0.37501 0.81782 0.0
H438 H 0.94268 0.39509 0.83801 0.0
H439 H 0.97078 0.36859 0.87818 0.0
Li440 Li 0.84304 0.73859 0.07337 0.0
Li441 Li 0.82575 0.75074 0.09896 0.0
Li442 Li 0.82731 0.74996 0.03896 0.0
Li443 Li 0.84316 0.76263 0.07288 0.0
C444 C 0.82074 0.72435 0.08631 0.0
N445 N 0.81392 0.70203 0.1197 0.0
C446 C 0.82439 0.72251 0.11972 0.0
C447 C 0.8136 0.71484 0.0699 0.0
C448 C 0.82085 0.71117 0.13617 0.0
C449 C 0.81026 0.70362 0.0872 0.0
C450 C 0.84876 0.75229 0.14254 0.0
C451 C 0.85546 0.76601 0.18822 0.0
N452 N 0.8589 0.75541 0.20618 0.0
C453 C 0.85244 0.74154 0.16142 0.0
C454 C 0.85035 0.76464 0.156 0.0
C455 C 0.85751 0.74332 0.19355 0.0
C456 C 0.86619 0.7273 0.0913 0.0
N457 N 0.85432 0.7243 0.07935 0.0
C458 C 0.85844 0.7018 0.08669 0.0
C459 C 0.85051 0.71183 0.07571 0.0
C460 C 0.87047 0.70467 0.10089 0.0
C461 C 0.87447 0.71758 0.10221 0.0
H462 H 0.86895 0.7373 0.09393 0.0
H463 H 0.84115 0.70965 0.06546 0.0
C464 C 0.80193 0.74544 0.12959 0.0
N465 N 0.81356 0.75109 0.13488 0.0
C466 C 0.79259 0.74553 0.15473 0.0
C467 C 0.8072 0.75762 0.18987 0.0
C468 C 0.81629 0.75717 0.16424 0.0
C469 C 0.79521 0.7517 0.1853 0.0
H470 H 0.79988 0.74094 0.10571 0.0
H471 H 0.8254 0.76189 0.16762 0.0
C472 C 0.85032 0.74309 0.00739 0.0
N473 N 0.85765 0.72845 0.95274 0.0
C474 C 0.8604 0.74719 0.98681 0.0
C475 C 0.84397 0.73154 0.00021 0.0
C476 C 0.86396 0.73965 0.95928 0.0
C477 C 0.84782 0.72428 0.97246 0.0
C478 C 0.81412 0.77176 0.0805 0.0
C479 C 0.80181 0.76967 0.06753 0.0
C480 C 0.81571 0.77993 0.10809 0.0
C481 C 0.79127 0.77573 0.08252 0.0
C482 C 0.80494 0.7858 0.1224 0.0
N483 N 0.79304 0.78359 0.10944 0.0
C484 C 0.80601 0.74287 0.00145 0.0
C485 C 0.82064 0.75587 0.97085 0.0
C486 C 0.79748 0.74271 0.9745 0.0
N487 N 0.81726 0.74946 0.99927 0.0
C488 C 0.81237 0.75595 0.94314 0.0
C489 C 0.80054 0.74938 0.94487 0.0
H490 H 0.80349 0.73806 0.0246 0.0
H491 H 0.82965 0.76108 0.96993 0.0
C492 C 0.86658 0.77518 0.08423 0.0
N493 N 0.85391 0.77725 0.07781 0.0
C494 C 0.87432 0.78526 0.09567 0.0
C495 C 0.8559 0.79946 0.0926 0.0
C496 C 0.84858 0.78917 0.08059 0.0
C497 C 0.86885 0.79745 0.10105 0.0
H498 H 0.87047 0.76553 0.08235 0.0
H499 H 0.83849 0.79053 0.07523 0.0
O500 O 0.82412 0.73535 0.06955 0.0
O501 O 0.84407 0.75075 0.11065 0.0
O502 O 0.84676 0.7504 0.03442 0.0
O503 O 0.82451 0.76565 0.06667 0.0
H504 H 0.82981 0.7298 0.13286 0.0
H505 H 0.81074 0.71608 0.04398 0.0
H506 H 0.82361 0.70964 0.16204 0.0
H507 H 0.80476 0.69616 0.07478 0.0
H508 H 0.85666 0.77551 0.19896 0.0
H509 H 0.85145 0.7319 0.15141 0.0
H510 H 0.84747 0.77308 0.14201 0.0
H511 H 0.86037 0.73508 0.20842 0.0
H512 H 0.85509 0.69194 0.08481 0.0
H513 H 0.88363 0.72021 0.11323 0.0
H514 H 0.78337 0.741 0.15016 0.0
H515 H 0.80957 0.76245 0.21316 0.0
H516 H 0.86542 0.75611 0.99207 0.0
H517 H 0.83615 0.72819 0.0158 0.0
H518 H 0.87175 0.74271 0.94312 0.0
H519 H 0.84298 0.71532 0.9666 0.0
H520 H 0.80038 0.76338 0.04625 0.0
H521 H 0.82513 0.78149 0.11887 0.0
H522 H 0.78168 0.77415 0.07281 0.0
H523 H 0.80602 0.79205 0.14395 0.0
H524 H 0.78838 0.73774 0.97731 0.0
H525 H 0.81517 0.76112 0.9207 0.0
H526 H 0.88426 0.78337 0.10221 0.0
H527 H 0.85142 0.80878 0.09628 0.0
Li528 Li 0.48795 0.59285 0.32381 0.0
Li529 Li 0.51219 0.59371 0.32508 0.0
Li530 Li 0.49978 0.57711 0.28951 0.0
Li531 Li 0.50013 0.57584 0.34934 0.0
C532 C 0.4963 0.60626 0.26544 0.0
N533 N 0.48841 0.62627 0.22448 0.0
C534 C 0.50023 0.61889 0.27213 0.0
C535 C 0.48861 0.60378 0.23738 0.0
C536 C 0.49606 0.62888 0.2513 0.0
C537 C 0.48465 0.61403 0.21712 0.0
C538 C 0.49952 0.59363 0.39605 0.0
C539 C 0.51051 0.59322 0.4493 0.0
N540 N 0.49903 0.59158 0.46512 0.0
C541 C 0.48783 0.592 0.4128 0.0
C542 C 0.51096 0.59429 0.41438 0.0
C543 C 0.48779 0.59095 0.44775 0.0
C544 C 0.46197 0.59895 0.34082 0.0
N545 N 0.47358 0.60389 0.33177 0.0
C546 C 0.46677 0.6251 0.34702 0.0
C547 C 0.47609 0.6167 0.33451 0.0
C548 C 0.45482 0.62023 0.35748 0.0
C549 C 0.45235 0.60701 0.35348 0.0
H550 H 0.4604 0.58866 0.3402 0.0
H551 H 0.48558 0.62031 0.3289 0.0
C552 C 0.53849 0.60307 0.32379 0.0
N553 N 0.526 0.6054 0.33197 0.0
C554 C 0.54823 0.6111 0.33616 0.0
C555 C 0.53193 0.62428 0.36246 0.0
C556 C 0.52258 0.61595 0.35006 0.0
C557 C 0.545 0.62165 0.35674 0.0
H558 H 0.54093 0.59464 0.30917 0.0
H559 H 0.51257 0.6176 0.35603 0.0
C560 C 0.47454 0.57003 0.30195 0.0
N561 N 0.45392 0.56165 0.264 0.0
C562 C 0.46971 0.55756 0.30619 0.0
C563 C 0.46882 0.57825 0.27853 0.0
C564 C 0.4593 0.55349 0.28671 0.0
C565 C 0.45841 0.57384 0.25958 0.0
C566 C 0.52327 0.56559 0.33161 0.0
C567 C 0.52019 0.55257 0.32762 0.0
C568 C 0.5345 0.56901 0.34872 0.0
C569 C 0.52837 0.54319 0.34092 0.0
C570 C 0.54245 0.55935 0.36161 0.0
N571 N 0.53925 0.54674 0.35748 0.0
C572 C 0.50312 0.57088 0.21901 0.0
C573 C 0.49619 0.55424 0.25546 0.0
C574 C 0.50288 0.56238 0.19165 0.0
N575 N 0.49974 0.56667 0.25012 0.0
C576 C 0.4958 0.54548 0.22907 0.0
C577 C 0.49912 0.54948 0.19656 0.0
H578 H 0.50603 0.5808 0.21546 0.0
H579 H 0.49371 0.55108 0.28043 0.0
C580 C 0.4881 0.55849 0.39284 0.0
N581 N 0.49961 0.56421 0.38646 0.0
C582 C 0.48688 0.54977 0.41928 0.0
C583 C 0.50933 0.55313 0.43247 0.0
C584 C 0.51004 0.56198 0.40622 0.0
C585 C 0.49765 0.54688 0.43903 0.0
H586 H 0.47985 0.56076 0.37751 0.0
H587 H 0.51889 0.56713 0.40189 0.0
O588 O 0.50037 0.59635 0.28546 0.0
O589 O 0.4998 0.59431 0.36181 0.0
O590 O 0.48496 0.57404 0.32025 0.0
O591 O 0.51543 0.57494 0.31852 0.0
H592 H 0.50637 0.62097 0.29333 0.0
H593 H 0.4858 0.59404 0.23112 0.0
H594 H 0.49894 0.6387 0.25642 0.0
H595 H 0.47864 0.61225 0.19547 0.0
H596 H 0.51929 0.59364 0.46382 0.0
H597 H 0.47891 0.59139 0.39891 0.0
H598 H 0.52011 0.59543 0.40173 0.0
H599 H 0.47882 0.58961 0.46105 0.0
H600 H 0.46908 0.63523 0.34963 0.0
H601 H 0.44338 0.6028 0.36192 0.0
H602 H 0.55817 0.60869 0.33106 0.0
H603 H 0.52893 0.6325 0.37727 0.0
H604 H 0.47408 0.551 0.32397 0.0
H605 H 0.47228 0.58797 0.27533 0.0
H606 H 0.45553 0.54384 0.28959 0.0
H607 H 0.4539 0.58013 0.2414 0.0
H608 H 0.51153 0.54971 0.31475 0.0
H609 H 0.53694 0.579 0.35273 0.0
H610 H 0.52607 0.53307 0.33812 0.0
H611 H 0.55113 0.56187 0.37507 0.0
H612 H 0.5055 0.56588 0.16698 0.0
H613 H 0.49314 0.53559 0.23427 0.0
H614 H 0.47769 0.54517 0.42392 0.0
H615 H 0.51775 0.55132 0.44777 0.0
Li616 Li 0.65701 0.26364 0.56791 0.0
Li617 Li 0.67394 0.25093 0.59474 0.0
Li618 Li 0.67272 0.2516 0.5359 0.0
Li619 Li 0.65661 0.23903 0.5673 0.0
C620 C 0.67876 0.27709 0.58546 0.0
N621 N 0.68427 0.29836 0.62483 0.0
C622 C 0.67385 0.27802 0.61805 0.0
C623 C 0.68653 0.28701 0.57301 0.0
C624 C 0.67673 0.28883 0.63753 0.0
C625 C 0.68919 0.29767 0.59326 0.0
C626 C 0.64992 0.24878 0.6355 0.0
C627 C 0.64321 0.23398 0.67883 0.0
N628 N 0.63796 0.24395 0.69619 0.0
C629 C 0.64446 0.25889 0.65384 0.0
C630 C 0.64932 0.23622 0.64815 0.0
C631 C 0.63846 0.25625 0.68445 0.0
C632 C 0.63321 0.27394 0.58147 0.0
N633 N 0.64539 0.27764 0.5739 0.0
C634 C 0.64046 0.29951 0.58765 0.0
C635 C 0.649 0.29023 0.57537 0.0
C636 C 0.62807 0.29579 0.59807 0.0
C637 C 0.62434 0.28289 0.59353 0.0
H638 H 0.63061 0.26385 0.57995 0.0
H639 H 0.65867 0.29301 0.56869 0.0
C640 C 0.69798 0.25468 0.62465 0.0
N641 N 0.68579 0.25073 0.63147 0.0
C642 C 0.70721 0.25508 0.65004 0.0
C643 C 0.69112 0.24751 0.68913 0.0
C644 C 0.68225 0.24713 0.66294 0.0
C645 C 0.70376 0.25154 0.6828 0.0
H646 H 0.70051 0.25757 0.59942 0.0
H647 H 0.67258 0.24399 0.6679 0.0
C648 C 0.65278 0.25356 0.49634 0.0
N649 N 0.65247 0.25727 0.42775 0.0
C650 C 0.65015 0.24324 0.47491 0.0
C651 C 0.65518 0.26578 0.483 0.0
C652 C 0.65005 0.24531 0.44026 0.0
C653 C 0.65501 0.26746 0.44822 0.0
C654 C 0.68556 0.22979 0.57691 0.0
C655 C 0.6979 0.232 0.56422 0.0
C656 C 0.68391 0.22154 0.6043 0.0
C657 C 0.70842 0.22599 0.5794 0.0
C658 C 0.69469 0.21574 0.61881 0.0
N659 N 0.70661 0.21807 0.60618 0.0
C660 C 0.69147 0.26138 0.49211 0.0
C661 C 0.68328 0.241 0.47584 0.0
C662 C 0.70061 0.26098 0.46649 0.0
N663 N 0.68317 0.25142 0.49655 0.0
C664 C 0.69216 0.24028 0.44952 0.0
C665 C 0.70114 0.25025 0.4451 0.0
H666 H 0.69128 0.26945 0.50916 0.0
H667 H 0.67676 0.23307 0.48044 0.0
C668 C 0.6329 0.22767 0.57922 0.0
N669 N 0.64532 0.22482 0.57173 0.0
C670 C 0.62456 0.21801 0.59016 0.0
C671 C 0.64177 0.20253 0.5836 0.0
C672 C 0.64981 0.21252 0.57289 0.0
C673 C 0.62905 0.20528 0.59333 0.0
H674 H 0.62971 0.23759 0.57871 0.0
H675 H 0.65979 0.21058 0.56712 0.0
O676 O 0.67613 0.26658 0.56578 0.0
O677 O 0.65556 0.25116 0.60504 0.0
O678 O 0.65322 0.25169 0.53023 0.0
O679 O 0.67519 0.23587 0.56299 0.0
H680 H 0.6679 0.2705 0.62833 0.0
H681 H 0.69043 0.28653 0.5479 0.0
H682 H 0.67297 0.28964 0.66275 0.0
H683 H 0.69516 0.30541 0.58386 0.0
H684 H 0.64269 0.2243 0.68886 0.0
H685 H 0.64486 0.26869 0.64464 0.0
H686 H 0.65364 0.22829 0.63467 0.0
H687 H 0.6342 0.26399 0.69886 0.0
H688 H 0.64379 0.30933 0.59068 0.0
H689 H 0.6148 0.27962 0.60038 0.0
H690 H 0.71686 0.25833 0.64425 0.0
H691 H 0.68815 0.24454 0.71402 0.0
H692 H 0.64832 0.23372 0.48495 0.0
H693 H 0.65728 0.27385 0.49937 0.0
H694 H 0.64809 0.23741 0.42332 0.0
H695 H 0.65691 0.27684 0.43749 0.0
H696 H 0.69935 0.23841 0.54312 0.0
H697 H 0.67444 0.21978 0.61452 0.0
H698 H 0.71803 0.22768 0.56998 0.0
H699 H 0.69357 0.20941 0.64019 0.0
H700 H 0.70731 0.2689 0.46371 0.0
H701 H 0.69235 0.23179 0.4337 0.0
H702 H 0.61494 0.22066 0.59789 0.0
H703 H 0.64559 0.19284 0.58525 0.0
Li704 Li 0.32645 0.25181 0.60001 0.0
Li705 Li 0.34255 0.23755 0.57642 0.0
Li706 Li 0.34533 0.26129 0.57312 0.0
Li707 Li 0.3283 0.24982 0.53934 0.0
C708 C 0.34695 0.24437 0.64357 0.0
N709 N 0.35183 0.23217 0.7039 0.0
C710 C 0.33939 0.23396 0.65375 0.0
C711 C 0.35696 0.24864 0.6642 0.0
C712 C 0.34202 0.22789 0.68428 0.0
C713 C 0.35927 0.24234 0.69459 0.0
C714 C 0.31683 0.22548 0.5689 0.0
C715 C 0.30885 0.20804 0.5347 0.0
N716 N 0.30264 0.20311 0.56185 0.0
C717 C 0.31024 0.22032 0.59638 0.0
C718 C 0.31603 0.21936 0.53772 0.0
C719 C 0.30318 0.20897 0.59235 0.0
C720 C 0.3016 0.25198 0.6263 0.0
N721 N 0.31411 0.25401 0.6345 0.0
C722 C 0.3084 0.25866 0.6912 0.0
C723 C 0.31764 0.25755 0.666 0.0
C724 C 0.29538 0.25637 0.68373 0.0
C725 C 0.29202 0.25318 0.65057 0.0
H726 H 0.29909 0.24938 0.60084 0.0
H727 H 0.32762 0.25941 0.67167 0.0
C728 C 0.36521 0.2237 0.58379 0.0
N729 N 0.35224 0.22234 0.58538 0.0
C730 C 0.37326 0.21407 0.59632 0.0
C731 C 0.35443 0.20159 0.61076 0.0
C732 C 0.34675 0.21143 0.5977 0.0
C733 C 0.36789 0.203 0.61106 0.0
H734 H 0.36929 0.23256 0.57421 0.0
H735 H 0.33641 0.21068 0.59933 0.0
C736 C 0.31983 0.27514 0.582 0.0
N737 N 0.30485 0.29273 0.61634 0.0
C738 C 0.3072 0.27752 0.57174 0.0
C739 C 0.32486 0.28173 0.60963 0.0
C740 C 0.29977 0.28645 0.58946 0.0
C741 C 0.31713 0.29058 0.62668 0.0
C742 C 0.35144 0.2419 0.50799 0.0
C743 C 0.35841 0.24851 0.48345 0.0
C744 C 0.34836 0.22892 0.50314 0.0
C745 C 0.36204 0.24205 0.45416 0.0
C746 C 0.35214 0.22281 0.47352 0.0
N747 N 0.35884 0.22945 0.44983 0.0
C748 C 0.36853 0.27156 0.59358 0.0
C749 C 0.35485 0.28713 0.56873 0.0
C750 C 0.37705 0.28114 0.60391 0.0
N751 N 0.35753 0.27473 0.57722 0.0
C752 C 0.36321 0.29705 0.57822 0.0
C753 C 0.37433 0.29416 0.59696 0.0
H754 H 0.37036 0.2616 0.60006 0.0
H755 H 0.34596 0.28937 0.55588 0.0
C756 C 0.30486 0.24904 0.50826 0.0
N757 N 0.31757 0.24955 0.50055 0.0
C758 C 0.29561 0.24865 0.48296 0.0
C759 C 0.31269 0.24925 0.44187 0.0
C760 C 0.32165 0.24971 0.46812 0.0
C761 C 0.29945 0.24869 0.44915 0.0
H762 H 0.3019 0.24891 0.53428 0.0
H763 H 0.3318 0.25014 0.46253 0.0
O764 O 0.34464 0.25036 0.61354 0.0
O765 O 0.32365 0.2367 0.57236 0.0
O766 O 0.32714 0.26615 0.56569 0.0
O767 O 0.34781 0.24812 0.53672 0.0
H768 H 0.3316 0.23058 0.63819 0.0
H769 H 0.36285 0.25676 0.65691 0.0
H770 H 0.33626 0.21978 0.69236 0.0
H771 H 0.36699 0.24554 0.71078 0.0
H772 H 0.30817 0.20321 0.51071 0.0
H773 H 0.31054 0.22501 0.6206 0.0
H774 H 0.32076 0.22336 0.51593 0.0
H775 H 0.29809 0.20484 0.61344 0.0
H776 H 0.31151 0.26102 0.71639 0.0
H777 H 0.2821 0.25162 0.64337 0.0
H778 H 0.38357 0.21549 0.59545 0.0
H779 H 0.34984 0.19332 0.62221 0.0
H780 H 0.30316 0.2725 0.55043 0.0
H781 H 0.33457 0.27986 0.61817 0.0
H782 H 0.28997 0.28836 0.58188 0.0
H783 H 0.32087 0.29569 0.64824 0.0
H784 H 0.36093 0.25855 0.48694 0.0
H785 H 0.34318 0.2236 0.52209 0.0
H786 H 0.36738 0.24707 0.43487 0.0
H787 H 0.34979 0.21278 0.4694 0.0
H788 H 0.38533 0.27836 0.61869 0.0
H789 H 0.36079 0.30689 0.57172 0.0
H790 H 0.28555 0.24849 0.48993 0.0
H791 H 0.31612 0.24918 0.41622 0.0
Li792 Li 0.15767 0.76265 0.07922 0.0
Li793 Li 0.17471 0.74957 0.10047 0.0
Li794 Li 0.17259 0.75097 0.04224 0.0
Li795 Li 0.15685 0.73807 0.07694 0.0
C796 C 0.1776 0.77679 0.05586 0.0
N797 N 0.17991 0.79958 0.02039 0.0
C798 C 0.18577 0.78655 0.06737 0.0
C799 C 0.17057 0.77868 0.02638 0.0
C800 C 0.18681 0.79799 0.04908 0.0
C801 C 0.17189 0.79025 0.00876 0.0
C802 C 0.15695 0.74947 0.14968 0.0
C803 C 0.15392 0.73806 0.20181 0.0
N804 N 0.15792 0.74867 0.21891 0.0
C805 C 0.16094 0.7603 0.16777 0.0
C806 C 0.15334 0.73828 0.16679 0.0
C807 C 0.16141 0.75969 0.20277 0.0
C808 C 0.13463 0.77714 0.07881 0.0
N809 N 0.14725 0.77727 0.08767 0.0
C810 C 0.14448 0.79706 0.11745 0.0
C811 C 0.15232 0.78706 0.10607 0.0
C812 C 0.13128 0.79696 0.10992 0.0
C813 C 0.12643 0.78698 0.08963 0.0
H814 H 0.13086 0.76915 0.06442 0.0
H815 H 0.16235 0.7868 0.11318 0.0
C816 C 0.19637 0.75801 0.13612 0.0
N817 N 0.1871 0.74879 0.13574 0.0
C818 C 0.2056 0.75816 0.16149 0.0
C819 C 0.19576 0.73911 0.1852 0.0
C820 C 0.18667 0.73939 0.15952 0.0
C821 C 0.20533 0.74864 0.18647 0.0
H822 H 0.1966 0.76525 0.11667 0.0
H823 H 0.17926 0.73212 0.15862 0.0
C824 C 0.14808 0.74746 0.01051 0.0
N825 N 0.13764 0.7399 0.94989 0.0
C826 C 0.14814 0.73447 0.0013 0.0
C827 C 0.14257 0.7566 0.98909 0.0
C828 C 0.14284 0.73084 0.9705 0.0
C829 C 0.1374 0.75258 0.95848 0.0
C830 C 0.18583 0.72837 0.07988 0.0
C831 C 0.19819 0.73255 0.07145 0.0
C832 C 0.18434 0.71765 0.10078 0.0
C833 C 0.20885 0.72597 0.08413 0.0
C834 C 0.19524 0.7113 0.11292 0.0
N835 N 0.20717 0.71556 0.10442 0.0
C836 C 0.19416 0.75781 0.00445 0.0
C837 C 0.17972 0.74484 0.97334 0.0
C838 C 0.20302 0.75764 0.97824 0.0
N839 N 0.18278 0.75142 0.00178 0.0
C840 C 0.18836 0.74439 0.94639 0.0
C841 C 0.2003 0.75068 0.9489 0.0
H842 H 0.19663 0.76267 0.02753 0.0
H843 H 0.17083 0.73956 0.97184 0.0
C844 C 0.13342 0.72733 0.09421 0.0
N845 N 0.1453 0.72408 0.08287 0.0
C846 C 0.12507 0.71785 0.10606 0.0
C847 C 0.14109 0.70176 0.09276 0.0
C848 C 0.14908 0.71157 0.08073 0.0
C849 C 0.12905 0.70489 0.10672 0.0
H850 H 0.1307 0.73738 0.09561 0.0
H851 H 0.15852 0.70924 0.07113 0.0
O852 O 0.17636 0.76562 0.07396 0.0
O853 O 0.15655 0.74982 0.1154 0.0
O854 O 0.15299 0.75121 0.0408 0.0
O855 O 0.17527 0.73481 0.06798 0.0
H856 H 0.19118 0.78535 0.09033 0.0
H857 H 0.16422 0.7713 0.01701 0.0
H858 H 0.19308 0.80561 0.05774 0.0
H859 H 0.16653 0.7918 0.98585 0.0
H860 H 0.15123 0.72944 0.21537 0.0
H861 H 0.16384 0.769 0.1549 0.0
H862 H 0.15028 0.72979 0.15318 0.0
H863 H 0.16458 0.76795 0.21709 0.0
H864 H 0.14862 0.80442 0.1334 0.0
H865 H 0.11635 0.7866 0.08289 0.0
H866 H 0.21294 0.76557 0.1614 0.0
H867 H 0.19518 0.73166 0.20418 0.0
H868 H 0.15242 0.72728 0.01748 0.0
H869 H 0.14227 0.76668 0.99608 0.0
H870 H 0.1429 0.72082 0.96293 0.0
H871 H 0.13315 0.75955 0.94159 0.0
H872 H 0.19956 0.74088 0.05563 0.0
H873 H 0.17489 0.71443 0.10832 0.0
H874 H 0.21847 0.72915 0.0779 0.0
H875 H 0.19422 0.70306 0.12931 0.0
H876 H 0.21203 0.76277 0.98119 0.0
H877 H 0.18591 0.73878 0.92439 0.0
H878 H 0.11576 0.72072 0.11566 0.0
H879 H 0.14461 0.69194 0.09271 0.0
Li880 Li 0.17289 0.24943 0.10168 0.0
Li881 Li 0.15633 0.26025 0.06675 0.0
Li882 Li 0.15889 0.23685 0.06591 0.0
Li883 Li 0.17493 0.25039 0.04228 0.0
C884 C 0.1487 0.25396 0.13219 0.0
N885 N 0.13896 0.26653 0.18778 0.0
C886 C 0.15307 0.2663 0.14047 0.0
C887 C 0.13938 0.24802 0.15215 0.0
C888 C 0.14802 0.2725 0.16867 0.0
C889 C 0.13458 0.25452 0.18018 0.0
C890 C 0.18193 0.27389 0.05732 0.0
C891 C 0.18486 0.28925 0.01254 0.0
N892 N 0.19732 0.29085 0.02204 0.0
C893 C 0.19474 0.27573 0.06675 0.0
C894 C 0.17692 0.28073 0.03008 0.0
C895 C 0.20237 0.28433 0.04855 0.0
C896 C 0.19611 0.24897 0.134 0.0
N897 N 0.18335 0.24954 0.14117 0.0
C898 C 0.18791 0.2499 0.20004 0.0
C899 C 0.17909 0.2498 0.17346 0.0
C900 C 0.20119 0.24962 0.19326 0.0
C901 C 0.20521 0.24901 0.15965 0.0
H902 H 0.1992 0.2484 0.10813 0.0
H903 H 0.16891 0.24989 0.17874 0.0
C904 C 0.13404 0.27093 0.04109 0.0
N905 N 0.1444 0.27389 0.06035 0.0
C906 C 0.12618 0.2807 0.02852 0.0
C907 C 0.13922 0.29633 0.05803 0.0
C908 C 0.14699 0.28625 0.0696 0.0
C909 C 0.12895 0.29356 0.03643 0.0
H910 H 0.13227 0.26102 0.03411 0.0
H911 H 0.15546 0.28836 0.08436 0.0
C912 C 0.18059 0.22453 0.08976 0.0
N913 N 0.1863 0.20301 0.12777 0.0
C914 C 0.19128 0.21695 0.08188 0.0
C915 C 0.17281 0.22119 0.11703 0.0
C916 C 0.194 0.2061 0.10138 0.0
C917 C 0.17586 0.21026 0.13592 0.0
C918 C 0.15582 0.24174 0.99854 0.0
C919 C 0.16436 0.23166 0.99168 0.0
C920 C 0.146 0.24455 0.97572 0.0
C921 C 0.16289 0.22453 0.9622 0.0
C922 C 0.14486 0.2372 0.9465 0.0
N923 N 0.15325 0.22742 0.94041 0.0
C924 C 0.13624 0.22284 0.0584 0.0
C925 C 0.15495 0.21044 0.04775 0.0
C926 C 0.12842 0.21293 0.04635 0.0
N927 N 0.14923 0.22152 0.05829 0.0
C928 C 0.14749 0.20028 0.03548 0.0
C929 C 0.13405 0.20158 0.03387 0.0
H930 H 0.13199 0.23189 0.06614 0.0
H931 H 0.16531 0.20973 0.04704 0.0
C932 C 0.19945 0.24878 0.01264 0.0
N933 N 0.18703 0.25223 0.007 0.0
C934 C 0.20852 0.24979 0.98694 0.0
C935 C 0.19179 0.25784 0.95029 0.0
C936 C 0.18312 0.2569 0.97681 0.0
C937 C 0.20463 0.25419 0.95523 0.0
H938 H 0.20227 0.2452 0.03705 0.0
H939 H 0.17324 0.25984 0.97326 0.0
O940 O 0.15342 0.24765 0.10468 0.0
O941 O 0.17438 0.26526 0.07427 0.0
O942 O 0.17793 0.23522 0.07087 0.0
O943 O 0.15696 0.24881 0.02742 0.0
H944 H 0.16037 0.271 0.12558 0.0
H945 H 0.13591 0.23846 0.14604 0.0
H946 H 0.15133 0.28203 0.17541 0.0
H947 H 0.12738 0.25003 0.19588 0.0
H948 H 0.18113 0.29453 0.99125 0.0
H949 H 0.19877 0.27057 0.08783 0.0
H950 H 0.16707 0.27929 0.02212 0.0
H951 H 0.21232 0.28581 0.0555 0.0
H952 H 0.18436 0.25036 0.22556 0.0
H953 H 0.21531 0.24843 0.15316 0.0
H954 H 0.11831 0.27829 0.01186 0.0
H955 H 0.14164 0.3062 0.06428 0.0
H956 H 0.19741 0.21944 0.06089 0.0
H957 H 0.16451 0.22692 0.12362 0.0
H958 H 0.20224 0.20014 0.09555 0.0
H959 H 0.16992 0.20756 0.15707 0.0
H960 H 0.17205 0.22934 0.0089 0.0
H961 H 0.13934 0.25235 0.98045 0.0
H962 H 0.16942 0.2167 0.95666 0.0
H963 H 0.1373 0.23927 0.92865 0.0
H964 H 0.11812 0.21444 0.0451 0.0
H965 H 0.15223 0.19167 0.02635 0.0
H966 H 0.21837 0.24687 0.99151 0.0
H967 H 0.18853 0.26143 0.92622 0.0
Li968 Li 0.34354 0.73664 0.57214 0.0
Li969 Li 0.32752 0.74965 0.60464 0.0
Li970 Li 0.32621 0.74829 0.54504 0.0
Li971 Li 0.34349 0.76056 0.56993 0.0
C972 C 0.3145 0.72749 0.5647 0.0
N973 N 0.29339 0.71556 0.53631 0.0
C974 C 0.30212 0.73041 0.57605 0.0
C975 C 0.31616 0.71845 0.53907 0.0
C976 C 0.29156 0.72428 0.56134 0.0
C977 C 0.30536 0.71254 0.52499 0.0
C978 C 0.35046 0.75679 0.63645 0.0
C979 C 0.34761 0.7757 0.67085 0.0
N980 N 0.3578 0.77203 0.68998 0.0
C981 C 0.36091 0.7532 0.65643 0.0
C982 C 0.34375 0.76813 0.64368 0.0
C983 C 0.36447 0.76104 0.68339 0.0
C984 C 0.36699 0.72491 0.56029 0.0
N985 N 0.35462 0.72223 0.56873 0.0
C986 C 0.3579 0.69981 0.55804 0.0
C987 C 0.35005 0.70995 0.56878 0.0
C988 C 0.37052 0.70239 0.54726 0.0
C989 C 0.37516 0.71509 0.54947 0.0
H990 H 0.37024 0.73482 0.55986 0.0
H991 H 0.34013 0.70813 0.57539 0.0
C992 C 0.30684 0.75846 0.64232 0.0
N993 N 0.31705 0.75032 0.64363 0.0
C994 C 0.29769 0.75848 0.66788 0.0
C995 C 0.30986 0.74187 0.69622 0.0
C996 C 0.31882 0.74219 0.67 0.0
C997 C 0.29898 0.74992 0.69501 0.0
H998 H 0.30555 0.76464 0.62077 0.0
H999 H 0.32695 0.73568 0.67009 0.0
C1000 C 0.34873 0.74533 0.5014 0.0
N1001 N 0.35794 0.73982 0.43787 0.0
C1002 C 0.35259 0.7553 0.48001 0.0
C1003 C 0.34963 0.73255 0.49044 0.0
C1004 C 0.35718 0.75232 0.44799 0.0
C1005 C 0.35429 0.72997 0.45826 0.0
C1006 C 0.32196 0.77495 0.55479 0.0
C1007 C 0.32581 0.77591 0.5213 0.0
C1008 C 0.31546 0.78525 0.56979 0.0
C1009 C 0.32309 0.78714 0.50331 0.0
C1010 C 0.31292 0.79632 0.55098 0.0
N1011 N 0.31675 0.79703 0.5184 0.0
C1012 C 0.30241 0.75367 0.51495 0.0
C1013 C 0.31625 0.74137 0.48024 0.0
C1014 C 0.29293 0.75369 0.49021 0.0
N1015 N 0.31387 0.7477 0.50943 0.0
C1016 C 0.30704 0.74109 0.45488 0.0
C1017 C 0.29522 0.74737 0.45965 0.0
H1018 H 0.30063 0.75838 0.5387 0.0
H1019 H 0.32521 0.73639 0.47662 0.0
C1020 C 0.36604 0.77164 0.5475 0.0
N1021 N 0.35484 0.77469 0.56306 0.0
C1022 C 0.37418 0.78133 0.53586 0.0
C1023 C 0.35954 0.79718 0.55859 0.0
C1024 C 0.35163 0.78714 0.56969 0.0
C1025 C 0.37085 0.79433 0.54065 0.0
H1026 H 0.36835 0.76165 0.54266 0.0
H1027 H 0.34275 0.78932 0.58258 0.0
O1028 O 0.32491 0.73368 0.5781 0.0
O1029 O 0.34693 0.74922 0.6099 0.0
O1030 O 0.34456 0.74806 0.53328 0.0
O1031 O 0.32467 0.76412 0.57315 0.0
H1032 H 0.30066 0.73743 0.59575 0.0
H1033 H 0.32566 0.71618 0.52973 0.0
H1034 H 0.28192 0.7265 0.56974 0.0
H1035 H 0.30648 0.70559 0.50495 0.0
H1036 H 0.3425 0.7845 0.67672 0.0
H1037 H 0.36622 0.74446 0.6511 0.0
H1038 H 0.33565 0.77109 0.62854 0.0
H1039 H 0.37254 0.75838 0.69906 0.0
H1040 H 0.35399 0.69014 0.55706 0.0
H1041 H 0.38473 0.71757 0.54095 0.0
H1042 H 0.28958 0.76499 0.66612 0.0
H1043 H 0.31118 0.73504 0.71649 0.0
H1044 H 0.35209 0.76525 0.48799 0.0
H1045 H 0.34655 0.7247 0.50629 0.0
H1046 H 0.36017 0.75995 0.43121 0.0
H1047 H 0.35498 0.72013 0.44947 0.0
H1048 H 0.33079 0.76806 0.50924 0.0
H1049 H 0.31253 0.78476 0.59581 0.0
H1050 H 0.32601 0.78798 0.47735 0.0
H1051 H 0.30793 0.80437 0.56231 0.0
H1052 H 0.28385 0.75846 0.49508 0.0
H1053 H 0.30921 0.73616 0.43162 0.0
H1054 H 0.38269 0.77862 0.52187 0.0
H1055 H 0.35671 0.80705 0.56344 0.0
Li1056 Li 0.51232 0.09313 0.81555 0.0
Li1057 Li 0.48892 0.09372 0.81735 0.0
Li1058 Li 0.50209 0.07758 0.8534 0.0
Li1059 Li 0.5005 0.07564 0.79231 0.0
C1060 C 0.50678 0.10666 0.87335 0.0
N1061 N 0.51821 0.12635 0.90928 0.0
C1062 C 0.50377 0.11949 0.86622 0.0
C1063 C 0.51531 0.10382 0.89941 0.0
C1064 C 0.50974 0.12932 0.88445 0.0
C1065 C 0.52107 0.11391 0.91712 0.0
C1066 C 0.506 0.09574 0.74772 0.0
C1067 C 0.50741 0.10687 0.69472 0.0
N1068 N 0.51829 0.10016 0.68734 0.0
C1069 C 0.51718 0.08895 0.73958 0.0
C1070 C 0.50106 0.10476 0.72512 0.0
C1071 C 0.52326 0.09133 0.70896 0.0
C1072 C 0.5387 0.10118 0.80155 0.0
N1073 N 0.52624 0.10487 0.8058 0.0
C1074 C 0.53108 0.12586 0.78423 0.0
C1075 C 0.52238 0.11699 0.79755 0.0
C1076 C 0.54389 0.12217 0.77835 0.0
C1077 C 0.54769 0.10969 0.78784 0.0
H1078 H 0.54164 0.09148 0.80692 0.0
H1079 H 0.51235 0.11957 0.7997 0.0
C1080 C 0.4622 0.10079 0.81896 0.0
N1081 N 0.47442 0.10456 0.81186 0.0
C1082 C 0.45179 0.10849 0.80917 0.0
C1083 C 0.46683 0.12387 0.786 0.0
C1084 C 0.47689 0.1159 0.79612 0.0
C1085 C 0.45405 0.12012 0.79195 0.0
H1086 H 0.46052 0.09162 0.83112 0.0
H1087 H 0.48671 0.1185 0.79023 0.0
C1088 C 0.52844 0.0712 0.82638 0.0
N1089 N 0.55384 0.06486 0.83861 0.0
C1090 C 0.53567 0.06478 0.80193 0.0
C1091 C 0.53414 0.07433 0.85708 0.0
C1092 C 0.5485 0.06168 0.80858 0.0
C1093 C 0.54699 0.07105 0.86278 0.0
C1094 C 0.47937 0.06469 0.81395 0.0
C1095 C 0.48241 0.05224 0.82477 0.0
C1096 C 0.46966 0.06649 0.79016 0.0
C1097 C 0.4757 0.04176 0.81141 0.0
C1098 C 0.46318 0.05576 0.7774 0.0
N1099 N 0.46632 0.04372 0.78819 0.0
C1100 C 0.49374 0.06917 0.91824 0.0
C1101 C 0.5101 0.05671 0.89267 0.0
C1102 C 0.49274 0.06025 0.94453 0.0
N1103 N 0.50226 0.06718 0.89287 0.0
C1104 C 0.50962 0.04773 0.91861 0.0
C1105 C 0.50063 0.04921 0.94468 0.0
H1106 H 0.48737 0.07742 0.91736 0.0
H1107 H 0.51643 0.055 0.87168 0.0
C1108 C 0.49221 0.06583 0.72997 0.0
N1109 N 0.49939 0.06328 0.75766 0.0
C1110 C 0.49115 0.05668 0.7045 0.0
C1111 C 0.50499 0.04252 0.73654 0.0
C1112 C 0.50563 0.05187 0.76158 0.0
C1113 C 0.49769 0.0449 0.70759 0.0
H1114 H 0.48724 0.07496 0.72781 0.0
H1115 H 0.51102 0.05004 0.78428 0.0
O1116 O 0.501 0.0969 0.85583 0.0
O1117 O 0.49996 0.09369 0.77776 0.0
O1118 O 0.51585 0.07427 0.8203 0.0
O1119 O 0.48607 0.07503 0.82604 0.0
H1120 H 0.49693 0.12186 0.84674 0.0
H1121 H 0.51733 0.09395 0.90626 0.0
H1122 H 0.5076 0.1393 0.87894 0.0
H1123 H 0.52775 0.11186 0.93724 0.0
H1124 H 0.50369 0.11383 0.677 0.0
H1125 H 0.52115 0.08196 0.75676 0.0
H1126 H 0.4924 0.1101 0.73101 0.0
H1127 H 0.53194 0.08615 0.70239 0.0
H1128 H 0.52767 0.1354 0.77774 0.0
H1129 H 0.55736 0.10624 0.78319 0.0
H1130 H 0.44209 0.10526 0.81445 0.0
H1131 H 0.46906 0.1326 0.77227 0.0
H1132 H 0.53147 0.06227 0.77799 0.0
H1133 H 0.52869 0.07918 0.87633 0.0
H1134 H 0.5542 0.05675 0.78985 0.0
H1135 H 0.5515 0.07343 0.88644 0.0
H1136 H 0.48995 0.05068 0.843 0.0
H1137 H 0.46729 0.07606 0.78129 0.0
H1138 H 0.47799 0.03207 0.81942 0.0
H1139 H 0.4557 0.057 0.75882 0.0
H1140 H 0.48554 0.06176 0.96373 0.0
H1141 H 0.51609 0.03956 0.91777 0.0
H1142 H 0.48547 0.05884 0.68243 0.0
H1143 H 0.51002 0.03346 0.7399 0.0
Li1144 Li 0.0017 0.92552 0.29394 0.0
Li1145 Li 0.99892 0.92213 0.35529 0.0
Li1146 Li 0.01194 0.90692 0.31883 0.0
Li1147 Li 0.98886 0.9076 0.3144 0.0
C1148 C 0.02139 0.93653 0.32069 0.0
N1149 N 0.03286 0.95929 0.30066 0.0
C1150 C 0.01771 0.94821 0.33526 0.0
C1151 C 0.03093 0.93642 0.29597 0.0
C1152 C 0.02362 0.95962 0.3248 0.0
C1153 C 0.03661 0.94803 0.28617 0.0
C1154 C 0.97288 0.92726 0.31713 0.0
C1155 C 0.95131 0.9244 0.33818 0.0
N1156 N 0.94655 0.92796 0.30777 0.0
C1157 C 0.96777 0.93093 0.28612 0.0
C1158 C 0.96459 0.924 0.34342 0.0
C1159 C 0.95443 0.93121 0.28188 0.0
C1160 C 0.00935 0.93683 0.23221 0.0
N1161 N 0.00259 0.93873 0.26095 0.0
C1162 C 0.99576 0.9595 0.24207 0.0
C1163 C 0.99599 0.94985 0.2665 0.0
C1164 C 0.00263 0.95772 0.21215 0.0
C1165 C 0.00962 0.94631 0.20748 0.0
H1166 H 0.01442 0.92792 0.22822 0.0
H1167 H 0.99073 0.95112 0.28968 0.0
C1168 C 0.00719 0.92995 0.42025 0.0
N1169 N 0.99798 0.93145 0.39634 0.0
C1170 C 0.00751 0.93817 0.44808 0.0
C1171 C 0.98871 0.94906 0.42646 0.0
C1172 C 0.98877 0.94069 0.39908 0.0
C1173 C 0.99829 0.94802 0.45119 0.0
H1174 H 0.01451 0.92264 0.41711 0.0
H1175 H 0.98179 0.94191 0.37927 0.0
C1176 C 0.00712 0.8991 0.25626 0.0
N1177 N 0.01894 0.88132 0.21468 0.0
C1178 C 0.00107 0.88738 0.24893 0.0
C1179 C 0.01924 0.90169 0.24256 0.0
C1180 C 0.00718 0.87855 0.22778 0.0
C1181 C 0.02504 0.89259 0.22162 0.0
C1182 C 0.99242 0.89479 0.37552 0.0
C1183 C 0.99375 0.88143 0.37254 0.0
C1184 C 0.98434 0.89988 0.40022 0.0
C1185 C 0.9868 0.87337 0.39401 0.0
C1186 C 0.97755 0.8915 0.4212 0.0
N1187 N 0.9789 0.87853 0.41766 0.0
C1188 C 0.03866 0.90042 0.31571 0.0
C1189 C 0.02406 0.88311 0.3089 0.0
C1190 C 0.04891 0.89259 0.30563 0.0
N1191 N 0.02648 0.89569 0.31595 0.0
C1192 C 0.03394 0.87502 0.29818 0.0
C1193 C 0.04655 0.87982 0.29536 0.0
H1194 H 0.04035 0.91043 0.32178 0.0
H1195 H 0.01428 0.87962 0.30891 0.0
C1196 C 0.97066 0.90015 0.26875 0.0
N1197 N 0.97382 0.89804 0.30139 0.0
C1198 C 0.96063 0.89337 0.2538 0.0
C1199 C 0.95686 0.88257 0.30656 0.0
C1200 C 0.96694 0.8897 0.32067 0.0
C1201 C 0.95377 0.88418 0.27244 0.0
H1202 H 0.97618 0.90692 0.25402 0.0
H1203 H 0.96932 0.88835 0.34672 0.0
O1204 O 0.0154 0.92532 0.3298 0.0
O1205 O 0.98592 0.92662 0.32155 0.0
O1206 O 0.00131 0.90785 0.27715 0.0
O1207 O 0.99929 0.90283 0.35506 0.0
H1208 H 0.01026 0.94851 0.35417 0.0
H1209 H 0.03379 0.92751 0.28407 0.0
H1210 H 0.02082 0.96873 0.33578 0.0
H1211 H 0.04394 0.9481 0.26692 0.0
H1212 H 0.9448 0.92185 0.35826 0.0
H1213 H 0.97402 0.93332 0.26535 0.0
H1214 H 0.96836 0.92112 0.36754 0.0
H1215 H 0.95035 0.93396 0.25796 0.0
H1216 H 0.9903 0.96823 0.24644 0.0
H1217 H 0.01493 0.9446 0.18451 0.0
H1218 H 0.01502 0.93696 0.46666 0.0
H1219 H 0.98156 0.95664 0.42743 0.0
H1220 H 0.99186 0.88499 0.25979 0.0
H1221 H 0.02434 0.91042 0.24894 0.0
H1222 H 0.00261 0.86946 0.22197 0.0
H1223 H 0.03447 0.89444 0.21117 0.0
H1224 H 2e-05 0.8773 0.35378 0.0
H1225 H 0.98332 0.91017 0.40326 0.0
H1226 H 0.98768 0.86301 0.39185 0.0
H1227 H 0.97122 0.89532 0.44033 0.0
H1228 H 0.05849 0.89666 0.30479 0.0
H1229 H 0.03149 0.86536 0.29014 0.0
H1230 H 0.95839 0.89523 0.2277 0.0
H1231 H 0.95185 0.87559 0.32195 0.0
Li1232 Li 0.49959 0.92216 0.28954 0.0
Li1233 Li 0.49867 0.92399 0.35 0.0
Li1234 Li 0.5115 0.90765 0.32536 0.0
Li1235 Li 0.48831 0.90507 0.32585 0.0
C1236 C 0.52527 0.93071 0.30986 0.0
N1237 N 0.54901 0.93921 0.28787 0.0
C1238 C 0.53348 0.93729 0.33174 0.0
C1239 C 0.52909 0.92857 0.2767 0.0
C1240 C 0.54546 0.94147 0.32018 0.0
C1241 C 0.54114 0.93291 0.26608 0.0
C1242 C 0.47566 0.93183 0.33414 0.0
C1243 C 0.45917 0.93606 0.37527 0.0
N1244 N 0.45985 0.94884 0.36795 0.0
C1245 C 0.47615 0.945 0.32692 0.0
C1246 C 0.46708 0.9273 0.35844 0.0
C1247 C 0.4681 0.95345 0.34433 0.0
C1248 C 0.4949 0.92863 0.21996 0.0
N1249 N 0.49873 0.93277 0.25075 0.0
C1250 C 0.5011 0.95431 0.23062 0.0
C1251 C 0.50187 0.94529 0.25639 0.0
C1252 C 0.49698 0.95047 0.19859 0.0
C1253 C 0.49398 0.93739 0.19327 0.0
H1254 H 0.4924 0.91861 0.21625 0.0
H1255 H 0.50489 0.94828 0.28116 0.0
C1256 C 0.49071 0.93334 0.41332 0.0
N1257 N 0.49739 0.9362 0.38498 0.0
C1258 C 0.48987 0.94233 0.43924 0.0
C1259 C 0.50289 0.95696 0.40629 0.0
C1260 C 0.50333 0.94775 0.38086 0.0
C1261 C 0.49612 0.95425 0.43594 0.0
H1262 H 0.48605 0.92407 0.41576 0.0
H1263 H 0.50842 0.94979 0.35779 0.0
C1264 C 0.50613 0.8918 0.27501 0.0
N1265 N 0.5185 0.86966 0.25379 0.0
C1266 C 0.50064 0.87971 0.28092 0.0
C1267 C 0.51781 0.89262 0.25775 0.0
C1268 C 0.50706 0.86863 0.27012 0.0
C1269 C 0.52395 0.88132 0.24741 0.0
C1270 C 0.50639 0.90527 0.39439 0.0
C1271 C 0.51778 0.9122 0.39912 0.0
C1272 C 0.50157 0.89769 0.42049 0.0
C1273 C 0.52422 0.91132 0.42978 0.0
C1274 C 0.50828 0.89707 0.45082 0.0
N1275 N 0.51938 0.90383 0.45479 0.0
C1276 C 0.5388 0.90142 0.33318 0.0
C1277 C 0.52352 0.88499 0.34391 0.0
C1278 C 0.54872 0.89358 0.34517 0.0
N1279 N 0.52643 0.8971 0.33331 0.0
C1280 C 0.53314 0.87677 0.35551 0.0
C1281 C 0.54589 0.88114 0.35694 0.0
H1282 H 0.54099 0.91108 0.32515 0.0
H1283 H 0.51359 0.88191 0.34472 0.0
C1284 C 0.46252 0.89491 0.32153 0.0
N1285 N 0.47471 0.89323 0.33305 0.0
C1286 C 0.45265 0.88672 0.33244 0.0
C1287 C 0.46822 0.87517 0.366 0.0
C1288 C 0.47773 0.88347 0.3543 0.0
C1289 C 0.45541 0.87682 0.35555 0.0
H1290 H 0.46038 0.90286 0.30489 0.0
H1291 H 0.48752 0.88239 0.36302 0.0
O1292 O 0.51348 0.92665 0.32083 0.0
O1293 O 0.48372 0.92344 0.31806 0.0
O1294 O 0.50006 0.90274 0.28597 0.0
O1295 O 0.49986 0.90601 0.36459 0.0
H1296 H 0.53066 0.9391 0.35746 0.0
H1297 H 0.5228 0.92372 0.25926 0.0
H1298 H 0.55193 0.94652 0.33689 0.0
H1299 H 0.54422 0.93131 0.24049 0.0
H1300 H 0.45255 0.9327 0.39429 0.0
H1301 H 0.48276 0.94868 0.30829 0.0
H1302 H 0.46669 0.91716 0.36467 0.0
H1303 H 0.46843 0.96368 0.33912 0.0
H1304 H 0.50376 0.96421 0.23575 0.0
H1305 H 0.49071 0.93403 0.16901 0.0
H1306 H 0.48464 0.93989 0.46186 0.0
H1307 H 0.5077 0.96612 0.40278 0.0
H1308 H 0.49153 0.87887 0.29377 0.0
H1309 H 0.52219 0.90185 0.25268 0.0
H1310 H 0.50295 0.85922 0.27474 0.0
H1311 H 0.53305 0.88182 0.23432 0.0
H1312 H 0.52162 0.91819 0.37939 0.0
H1313 H 0.49269 0.89237 0.41746 0.0
H1314 H 0.53307 0.91661 0.43371 0.0
H1315 H 0.50466 0.89123 0.47122 0.0
H1316 H 0.55846 0.89726 0.34587 0.0
H1317 H 0.53054 0.86731 0.36485 0.0
H1318 H 0.44297 0.88828 0.32337 0.0
H1319 H 0.47086 0.86789 0.38422 0.0
Li1320 Li 0.01255 0.09389 0.82257 0.0
Li1321 Li 0.98947 0.09334 0.82597 0.0
Li1322 Li 0.00213 0.07576 0.84862 0.0
Li1323 Li 0.99978 0.07827 0.78681 0.0
C1324 C 0.00716 0.10306 0.88311 0.0
N1325 N 0.01837 0.12216 0.9217 0.0
C1326 C 0.00148 0.11525 0.88528 0.0
C1327 C 0.01862 0.10065 0.90042 0.0
C1328 C 0.00726 0.12476 0.905 0.0
C1329 C 0.02413 0.11042 0.91978 0.0
C1330 C 0.99291 0.10514 0.76424 0.0
C1331 C 0.97801 0.10729 0.71814 0.0
N1332 N 0.97867 0.12033 0.721 0.0
C1333 C 0.99348 0.11857 0.76661 0.0
C1334 C 0.98515 0.09944 0.73972 0.0
C1335 C 0.98619 0.12608 0.74457 0.0
C1336 C 0.03918 0.09986 0.83074 0.0
N1337 N 0.02726 0.10493 0.82577 0.0
C1338 C 0.03475 0.12593 0.84059 0.0
C1339 C 0.02506 0.11778 0.82898 0.0
C1340 C 0.04687 0.12081 0.8484 0.0
C1341 C 0.04923 0.10771 0.84201 0.0
H1342 H 0.04069 0.08962 0.82797 0.0
H1343 H 0.01549 0.12154 0.82523 0.0
C1344 C 0.97129 0.10202 0.87055 0.0
N1345 N 0.97417 0.10287 0.83734 0.0
C1346 C 0.96089 0.10875 0.88389 0.0
C1347 C 0.9562 0.11687 0.82843 0.0
C1348 C 0.96667 0.10985 0.81606 0.0
C1349 C 0.9533 0.11647 0.86286 0.0
H1350 H 0.97727 0.09626 0.88692 0.0
H1351 H 0.96876 0.11008 0.78961 0.0
C1352 C 0.0221 0.06435 0.82379 0.0
N1353 N 0.03368 0.04195 0.84611 0.0
C1354 C 0.01993 0.0527 0.80709 0.0
C1355 C 0.03023 0.06461 0.85174 0.0
C1356 C 0.02587 0.04148 0.81877 0.0
C1357 C 0.03596 0.05318 0.86268 0.0
C1358 C 0.97366 0.07351 0.82552 0.0
C1359 C 0.96884 0.07053 0.85733 0.0
C1360 C 0.96516 0.07595 0.79912 0.0
C1361 C 0.95554 0.07015 0.86225 0.0
C1362 C 0.95193 0.07548 0.80507 0.0
N1363 N 0.94743 0.07262 0.83625 0.0
C1364 C 0.00689 0.06605 0.9139 0.0
C1365 C 0.99818 0.05103 0.87522 0.0
C1366 C 0.00707 0.05673 0.93907 0.0
N1367 N 0.00259 0.06303 0.8827 0.0
C1368 C 0.99799 0.04145 0.89981 0.0
C1369 C 0.00252 0.04429 0.93214 0.0
H1370 H 0.01004 0.07571 0.9194 0.0
H1371 H 0.99472 0.04895 0.85019 0.0
C1372 C 0.00714 0.07005 0.72095 0.0
N1373 N 0.99881 0.06827 0.74683 0.0
C1374 C 0.00718 0.06149 0.6938 0.0
C1375 C 0.98995 0.04963 0.72033 0.0
C1376 C 0.99024 0.05839 0.74684 0.0
C1377 C 0.9986 0.05099 0.69347 0.0
H1378 H 0.01397 0.07792 0.72183 0.0
H1379 H 0.98393 0.05703 0.76811 0.0
O1380 O 0.00166 0.09362 0.86378 0.0
O1381 O 0.00014 0.09763 0.78524 0.0
O1382 O 0.01607 0.07537 0.81332 0.0
O1383 O 0.98664 0.07428 0.82042 0.0
H1384 H 0.99281 0.11747 0.87148 0.0
H1385 H 0.0234 0.09144 0.89833 0.0
H1386 H 0.00297 0.13423 0.90683 0.0
H1387 H 0.03304 0.1087 0.93305 0.0
H1388 H 0.97194 0.103 0.69913 0.0
H1389 H 0.99941 0.12317 0.78535 0.0
H1390 H 0.98458 0.08909 0.73739 0.0
H1391 H 0.98651 0.13649 0.74623 0.0
H1392 H 0.03261 0.13601 0.84501 0.0
H1393 H 0.05847 0.10343 0.84783 0.0
H1394 H 0.95908 0.10824 0.91062 0.0
H1395 H 0.95044 0.12256 0.81129 0.0
H1396 H 0.01366 0.05228 0.78549 0.0
H1397 H 0.0319 0.07349 0.86524 0.0
H1398 H 0.02424 0.0324 0.80615 0.0
H1399 H 0.04218 0.05323 0.88445 0.0
H1400 H 0.97529 0.06871 0.87809 0.0
H1401 H 0.96874 0.0783 0.77438 0.0
H1402 H 0.95167 0.06794 0.88678 0.0
H1403 H 0.94523 0.07742 0.78492 0.0
H1404 H 0.01045 0.0593 0.9639 0.0
H1405 H 0.99443 0.03193 0.89364 0.0
H1406 H 0.01396 0.06297 0.67352 0.0
H1407 H 0.98334 0.04158 0.72158 0.0
H1408 H 0.12565 0.67934 0.08975 0.0
H1409 H 0.11342 0.66301 0.12037 0.0
H1410 H 0.10191 0.69164 0.1929 0.0
H1411 H 0.1147 0.70777 0.16383 0.0
H1412 H 0.10827 0.67057 0.22412 0.0
H1413 H 0.08155 0.68044 0.12824 0.0
H1414 H 0.07672 0.68267 0.06792 0.0
H1415 H 0.0851 0.64256 0.05272 0.0
H1416 H 0.09013 0.64013 0.11291 0.0
H1417 H 0.05337 0.64084 0.29711 0.0
H1418 H 0.06904 0.65462 0.26864 0.0
H1419 H 0.07928 0.6231 0.20324 0.0
H1420 H 0.06355 0.60932 0.23148 0.0
H1421 H 0.07487 0.64417 0.16785 0.0
H1422 H 0.09993 0.63403 0.26506 0.0
H1423 H 0.1044 0.63191 0.32558 0.0
H1424 H 0.09886 0.67262 0.33862 0.0
H1425 H 0.09419 0.67497 0.27824 0.0
C1426 C 0.1206 0.68215 0.11235 0.0
C1427 C 0.1211 0.69495 0.12405 0.0
C1428 C 0.1135 0.67282 0.12967 0.0
C1429 C 0.10659 0.67612 0.15875 0.0
C1430 C 0.10711 0.68885 0.1705 0.0
C1431 C 0.11431 0.69813 0.15347 0.0
C1432 C 0.09883 0.66638 0.17722 0.0
C1433 C 0.10087 0.66489 0.21186 0.0
C1434 C 0.08943 0.65869 0.16113 0.0
C1435 C 0.08635 0.66014 0.12499 0.0
C1436 C 0.08245 0.67212 0.11198 0.0
C1437 C 0.07966 0.67341 0.07783 0.0
C1438 C 0.08064 0.66277 0.05648 0.0
C1439 C 0.08437 0.6508 0.06927 0.0
C1440 C 0.08718 0.64945 0.1034 0.0
C1441 C 0.05916 0.63678 0.27713 0.0
C1442 C 0.05721 0.62401 0.26647 0.0
C1443 C 0.0681 0.64466 0.26084 0.0
C1444 C 0.0754 0.63988 0.23387 0.0
C1445 C 0.07373 0.62702 0.22388 0.0
C1446 C 0.06474 0.61916 0.24002 0.0
C1447 C 0.08417 0.6485 0.21484 0.0
C1448 C 0.08233 0.64978 0.18008 0.0
C1449 C 0.09372 0.65602 0.23085 0.0
C1450 C 0.09661 0.65465 0.26715 0.0
C1451 C 0.09957 0.64252 0.28087 0.0
C1452 C 0.10216 0.64128 0.31514 0.0
C1453 C 0.10189 0.65212 0.33594 0.0
C1454 C 0.09906 0.66423 0.32248 0.0
C1455 C 0.09646 0.66552 0.28823 0.0
H1456 H 0.10389 0.65114 0.36247 0.0
H1457 H 0.07848 0.6638 0.03005 0.0
H1458 H 0.56279 0.88815 0.4059 0.0
H1459 H 0.57773 0.87424 0.43654 0.0
H1460 H 0.5665 0.84201 0.37457 0.0
H1461 H 0.55124 0.85584 0.34469 0.0
H1462 H 0.56643 0.83493 0.43646 0.0
H1463 H 0.59668 0.85802 0.36784 0.0
H1464 H 0.60722 0.87728 0.34415 0.0
H1465 H 0.6185 0.88928 0.44298 0.0
H1466 H 0.60788 0.87017 0.46731 0.0
H1467 H 0.61527 0.79101 0.48007 0.0
H1468 H 0.60189 0.80649 0.45008 0.0
H1469 H 0.61116 0.83568 0.52325 0.0
H1470 H 0.62457 0.82013 0.55375 0.0
H1471 H 0.61234 0.84486 0.45829 0.0
H1472 H 0.58239 0.82119 0.52616 0.0
H1473 H 0.57219 0.80159 0.5489 0.0
H1474 H 0.5606 0.7904 0.44967 0.0
H1475 H 0.5709 0.80984 0.42627 0.0
C1476 C 0.5637 0.87814 0.39849 0.0
C1477 C 0.55591 0.87306 0.37288 0.0
C1478 C 0.57224 0.8702 0.41597 0.0
C1479 C 0.57336 0.85707 0.40769 0.0
C1480 C 0.5658 0.85208 0.38151 0.0
C1481 C 0.55711 0.85998 0.36439 0.0
C1482 C 0.58186 0.84836 0.42741 0.0
C1483 C 0.57651 0.83704 0.44075 0.0
C1484 C 0.59494 0.85127 0.43402 0.0
C1485 C 0.60138 0.86273 0.41941 0.0
C1486 C 0.60133 0.86482 0.38454 0.0
C1487 C 0.60733 0.8757 0.371 0.0
C1488 C 0.61349 0.88451 0.39206 0.0
C1489 C 0.6137 0.88245 0.4267 0.0
C1490 C 0.60771 0.87159 0.44038 0.0
C1491 C 0.61433 0.80066 0.49012 0.0
C1492 C 0.62083 0.80428 0.51963 0.0
C1493 C 0.60673 0.80952 0.47282 0.0
C1494 C 0.60539 0.82218 0.48468 0.0
C1495 C 0.61205 0.82594 0.51372 0.0
C1496 C 0.6197 0.81705 0.5311 0.0
C1497 C 0.59692 0.8314 0.46671 0.0
C1498 C 0.60225 0.84281 0.45389 0.0
C1499 C 0.58384 0.82855 0.46037 0.0
C1500 C 0.57751 0.81692 0.47444 0.0
C1501 C 0.57774 0.8145 0.50916 0.0
C1502 C 0.57193 0.80343 0.52218 0.0
C1503 C 0.56577 0.79474 0.50074 0.0
C1504 C 0.56538 0.79713 0.46625 0.0
C1505 C 0.57119 0.80818 0.4531 0.0
H1506 H 0.56128 0.78617 0.51086 0.0
H1507 H 0.61813 0.89293 0.38152 0.0
H1508 H 0.45904 0.35604 0.7633 0.0
H1509 H 0.44445 0.3423 0.73102 0.0
H1510 H 0.41612 0.37266 0.72998 0.0
H1511 H 0.43068 0.38648 0.76245 0.0
H1512 H 0.40588 0.34763 0.74284 0.0
H1513 H 0.43329 0.36916 0.66339 0.0
H1514 H 0.45416 0.37612 0.64029 0.0
H1515 H 0.46549 0.33661 0.62773 0.0
H1516 H 0.44475 0.32941 0.65126 0.0
H1517 H 0.36681 0.31792 0.62054 0.0
H1518 H 0.37993 0.33397 0.64915 0.0
H1519 H 0.41333 0.30968 0.63766 0.0
H1520 H 0.40053 0.29407 0.6066 0.0
H1521 H 0.42039 0.3331 0.63039 0.0
H1522 H 0.39426 0.3112 0.71247 0.0
H1523 H 0.374 0.30355 0.73778 0.0
H1524 H 0.36089 0.34261 0.74775 0.0
H1525 H 0.38102 0.35048 0.7221 0.0
C1526 C 0.44961 0.35971 0.75673 0.0
C1527 C 0.44599 0.37234 0.76536 0.0
C1528 C 0.44134 0.35189 0.73807 0.0
C1529 C 0.42928 0.35654 0.72783 0.0
C1530 C 0.42541 0.36894 0.73757 0.0
C1531 C 0.43374 0.37682 0.75596 0.0
C1532 C 0.42094 0.34858 0.70593 0.0
C1533 C 0.40894 0.34458 0.71804 0.0
C1534 C 0.42509 0.34444 0.6739 0.0
C1535 C 0.43751 0.34875 0.65936 0.0
C1536 C 0.44027 0.36196 0.65594 0.0
C1537 C 0.45207 0.36595 0.64273 0.0
C1538 C 0.46116 0.35682 0.63262 0.0
C1539 C 0.45845 0.34368 0.63561 0.0
C1540 C 0.44666 0.33963 0.64885 0.0
C1541 C 0.37701 0.3161 0.62323 0.0
C1542 C 0.38254 0.30456 0.61147 0.0
C1543 C 0.38448 0.32523 0.64018 0.0
C1544 C 0.39756 0.32289 0.6465 0.0
C1545 C 0.40323 0.31167 0.63348 0.0
C1546 C 0.39583 0.30266 0.616 0.0
C1547 C 0.40532 0.33189 0.66741 0.0
C1548 C 0.41724 0.33614 0.6551 0.0
C1549 C 0.40115 0.33613 0.69946 0.0
C1550 C 0.38908 0.33142 0.71505 0.0
C1551 C 0.38702 0.31815 0.71986 0.0
C1552 C 0.37557 0.31377 0.73429 0.0
C1553 C 0.36615 0.32258 0.74428 0.0
C1554 C 0.36818 0.33579 0.73995 0.0
C1555 C 0.37961 0.34022 0.72549 0.0
H1556 H 0.35729 0.31918 0.75544 0.0
H1557 H 0.47029 0.35993 0.62241 0.0
H1558 H 0.88837 0.20857 0.99008 0.0
H1559 H 0.90116 0.19268 0.95953 0.0
H1560 H 0.88506 0.16227 0.02023 0.0
H1561 H 0.87234 0.1782 0.05138 0.0
H1562 H 0.91132 0.15974 0.01132 0.0
H1563 H 0.87404 0.16652 0.94321 0.0
H1564 H 0.85799 0.17941 0.91241 0.0
H1565 H 0.88765 0.19425 0.84815 0.0
H1566 H 0.90392 0.1816 0.87893 0.0
H1567 H 0.93535 0.10946 0.90964 0.0
H1568 H 0.92001 0.12346 0.93859 0.0
H1569 H 0.93257 0.15569 0.8785 0.0
H1570 H 0.94786 0.14171 0.84929 0.0
H1571 H 0.90697 0.15634 0.88758 0.0
H1572 H 0.94433 0.15082 0.95752 0.0
H1573 H 0.96063 0.13835 0.98863 0.0
H1574 H 0.93101 0.12153 0.04965 0.0
H1575 H 0.91451 0.13377 0.01854 0.0
C1576 C 0.8877 0.19852 0.99731 0.0
C1577 C 0.87938 0.19463 0.02323 0.0
C1578 C 0.89491 0.18944 0.97958 0.0
C1579 C 0.89393 0.17629 0.98734 0.0
C1580 C 0.8859 0.17238 0.01376 0.0
C1581 C 0.87861 0.18147 0.03142 0.0
C1582 C 0.90127 0.16664 0.96765 0.0
C1583 C 0.91022 0.15884 0.98434 0.0
C1584 C 0.9 0.16567 0.93236 0.0
C1585 C 0.89022 0.1732 0.91359 0.0
C1586 C 0.87716 0.17261 0.92268 0.0
C1587 C 0.86802 0.17986 0.90521 0.0
C1588 C 0.8718 0.18767 0.87839 0.0
C1589 C 0.88474 0.18821 0.86895 0.0
C1590 C 0.89392 0.18099 0.88639 0.0
C1591 C 0.93477 0.11952 0.90245 0.0
C1592 C 0.9429 0.12452 0.87741 0.0
C1593 C 0.92602 0.1275 0.91901 0.0
C1594 C 0.92532 0.14068 0.91116 0.0
C1595 C 0.93296 0.14556 0.88503 0.0
C1596 C 0.94167 0.13755 0.86829 0.0
C1597 C 0.91712 0.1495 0.93121 0.0
C1598 C 0.908 0.15717 0.91459 0.0
C1599 C 0.91827 0.15039 0.96657 0.0
C1600 C 0.92818 0.1431 0.98547 0.0
C1601 C 0.94129 0.14439 0.97741 0.0
C1602 C 0.95056 0.13737 0.99506 0.0
C1603 C 0.94686 0.12913 0.02104 0.0
C1604 C 0.93387 0.12791 0.02948 0.0
C1605 C 0.92455 0.13488 0.01186 0.0
H1606 H 0.95405 0.1237 0.03468 0.0
H1607 H 0.86471 0.19328 0.86489 0.0
H1608 H 0.04708 0.37532 0.93164 0.0
H1609 H 0.06272 0.36145 0.95923 0.0
H1610 H 0.08475 0.35924 0.8678 0.0
H1611 H 0.06942 0.37368 0.84011 0.0
H1612 H 0.07915 0.33494 0.89903 0.0
H1613 H 0.09672 0.37631 0.92718 0.0
H1614 H 0.09601 0.39856 0.94878 0.0
H1615 H 0.08453 0.38456 0.04564 0.0
H1616 H 0.08498 0.36221 0.02448 0.0
H1617 H 0.13007 0.29978 0.97075 0.0
H1618 H 0.11784 0.31643 0.9412 0.0
H1619 H 0.09928 0.32703 0.03415 0.0
H1620 H 0.11209 0.31073 0.06399 0.0
H1621 H 0.10398 0.34778 -1e-05 0.0
H1622 H 0.08466 0.3071 0.973 0.0
H1623 H 0.08418 0.28463 0.95286 0.0
H1624 H 0.09732 0.29694 0.85587 0.0
H1625 H 0.09805 0.31948 0.87558 0.0
C1626 C 0.05538 0.37217 0.91744 0.0
C1627 C 0.057 0.37577 0.88359 0.0
C1628 C 0.06427 0.36415 0.93328 0.0
C1629 C 0.07492 0.35941 0.91562 0.0
C1630 C 0.07657 0.36283 0.88183 0.0
C1631 C 0.06775 0.37102 0.86601 0.0
C1632 C 0.08401 0.35051 0.93235 0.0
C1633 C 0.08478 0.33778 0.92073 0.0
C1634 C 0.09099 0.35416 0.96129 0.0
C1635 C 0.09077 0.36759 0.97414 0.0
C1636 C 0.09393 0.37797 0.95301 0.0
C1637 C 0.0936 0.39061 0.96519 0.0
C1638 C 0.0902 0.39297 0.99854 0.0
C1639 C 0.08715 0.38271 0.0198 0.0
C1640 C 0.08746 0.37006 0.00774 0.0
C1641 C 0.12342 0.30576 0.98478 0.0
C1642 C 0.12187 0.304 0.01943 0.0
C1643 C 0.11639 0.3152 0.96792 0.0
C1644 C 0.10738 0.3228 0.98525 0.0
C1645 C 0.10611 0.32126 0.02018 0.0
C1646 C 0.11337 0.31195 0.0372 0.0
C1647 C 0.09912 0.33212 0.96682 0.0
C1648 C 0.09845 0.34492 0.97815 0.0
C1649 C 0.09206 0.32849 0.93786 0.0
C1650 C 0.09153 0.31496 0.92587 0.0
C1651 C 0.08753 0.305 0.94744 0.0
C1652 C 0.0872 0.29226 0.9361 0.0
C1653 C 0.09075 0.28935 0.90314 0.0
C1654 C 0.0946 0.2992 0.88141 0.0
C1655 C 0.09496 0.31196 0.89264 0.0
H1656 H 0.09049 0.27948 0.8944 0.0
H1657 H 0.08995 0.40276 0.00793 0.0
H1658 H 0.93064 0.87567 0.29786 0.0
H1659 H 0.9148 0.86182 0.27011 0.0
H1660 H 0.93862 0.86047 0.18161 0.0
H1661 H 0.95461 0.87394 0.20925 0.0
H1662 H 0.91324 0.86477 0.16624 0.0
H1663 H 0.93841 0.83566 0.23349 0.0
H1664 H 0.94818 0.82755 0.28575 0.0
H1665 H 0.9107 0.82318 0.32952 0.0
H1666 H 0.9007 0.83146 0.27762 0.0
H1667 H 0.89222 0.80728 0.08321 0.0
H1668 H 0.90497 0.82342 0.11372 0.0
H1669 H 0.87522 0.82615 0.18881 0.0
H1670 H 0.86232 0.81027 0.15796 0.0
H1671 H 0.90177 0.82199 0.21326 0.0
H1672 H 0.8766 0.84982 0.14383 0.0
H1673 H 0.86712 0.85763 0.09092 0.0
H1674 H 0.90488 0.86411 0.0507 0.0
H1675 H 0.9146 0.85613 0.10323 0.0
C1676 C 0.93256 0.87235 0.27259 0.0
C1677 C 0.9439 0.87598 0.25579 0.0
C1678 C 0.92346 0.86449 0.25672 0.0
C1679 C 0.92555 0.86012 0.22381 0.0
C1680 C 0.93678 0.86382 0.20691 0.0
C1681 C 0.94588 0.87159 0.22276 0.0
C1682 C 0.91623 0.85145 0.207 0.0
C1683 C 0.9108 0.85538 0.17641 0.0
C1684 C 0.91285 0.83932 0.22064 0.0
C1685 C 0.91882 0.83433 0.25184 0.0
C1686 C 0.93226 0.83308 0.25437 0.0
C1687 C 0.93783 0.82844 0.2839 0.0
C1688 C 0.93007 0.82489 0.31098 0.0
C1689 C 0.9167 0.82596 0.30854 0.0
C1690 C 0.91107 0.83062 0.27907 0.0
C1691 C 0.88839 0.81144 0.10605 0.0
C1692 C 0.87629 0.80765 0.11818 0.0
C1693 C 0.89563 0.82063 0.12339 0.0
C1694 C 0.89099 0.82596 0.15342 0.0
C1695 C 0.87893 0.82215 0.16564 0.0
C1696 C 0.87157 0.81317 0.14794 0.0
C1697 C 0.89892 0.83527 0.17242 0.0
C1698 C 0.9041 0.83144 0.20334 0.0
C1699 C 0.90211 0.84747 0.15903 0.0
C1700 C 0.89633 0.85223 0.12734 0.0
C1701 C 0.88289 0.85277 0.12358 0.0
C1702 C 0.87747 0.85726 0.09368 0.0
C1703 C 0.88539 0.86132 0.06742 0.0
C1704 C 0.89875 0.86093 0.07104 0.0
C1705 C 0.90422 0.85644 0.10088 0.0
H1706 H 0.88117 0.86481 0.0443 0.0
H1707 H 0.9344 0.82129 0.33382 0.0
H1708 H 0.39634 0.69791 0.55468 0.0
H1709 H 0.40976 0.68318 0.522 0.0
H1710 H 0.37615 0.66934 0.4698 0.0
H1711 H 0.36267 0.68414 0.50214 0.0
H1712 H 0.39291 0.64971 0.48489 0.0
H1713 H 0.39457 0.69133 0.43329 0.0
H1714 H 0.39766 0.71488 0.43152 0.0
H1715 H 0.43691 0.71026 0.4628 0.0
H1716 H 0.43399 0.68668 0.46529 0.0
H1717 H 0.42853 0.62099 0.3507 0.0
H1718 H 0.41328 0.6343 0.38235 0.0
H1719 H 0.4448 0.65157 0.43654 0.0
H1720 H 0.46002 0.63838 0.40512 0.0
H1721 H 0.42796 0.66946 0.41779 0.0
H1722 H 0.4259 0.62774 0.4713 0.0
H1723 H 0.42261 0.6042 0.47305 0.0
H1724 H 0.38394 0.60904 0.43737 0.0
H1725 H 0.38707 0.6326 0.43499 0.0
C1726 C 0.39179 0.69168 0.53639 0.0
C1727 C 0.37845 0.69227 0.53087 0.0
C1728 C 0.39946 0.68326 0.51776 0.0
C1729 C 0.39396 0.67532 0.49311 0.0
C1730 C 0.38058 0.6754 0.48868 0.0
C1731 C 0.37289 0.68382 0.50732 0.0
C1732 C 0.40226 0.66743 0.47087 0.0
C1733 C 0.40047 0.65403 0.46987 0.0
C1734 C 0.4122 0.67307 0.45152 0.0
C1735 C 0.41402 0.68724 0.44977 0.0
C1736 C 0.40383 0.69534 0.44003 0.0
C1737 C 0.40556 0.7087 0.43887 0.0
C1738 C 0.41747 0.71407 0.44711 0.0
C1739 C 0.42769 0.70609 0.45646 0.0
C1740 C 0.426 0.69272 0.45773 0.0
C1741 C 0.43219 0.62762 0.36938 0.0
C1742 C 0.44549 0.62866 0.37528 0.0
C1743 C 0.42348 0.63521 0.38747 0.0
C1744 C 0.4279 0.64385 0.41206 0.0
C1745 C 0.44117 0.64501 0.41762 0.0
C1746 C 0.44986 0.6375 0.39949 0.0
C1747 C 0.41879 0.65169 0.43224 0.0
C1748 C 0.42039 0.66512 0.43273 0.0
C1749 C 0.40867 0.64607 0.45103 0.0
C1750 C 0.40676 0.63191 0.45263 0.0
C1751 C 0.41673 0.62377 0.46359 0.0
C1752 C 0.41489 0.61043 0.46474 0.0
C1753 C 0.40308 0.60513 0.45524 0.0
C1754 C 0.39308 0.61316 0.44467 0.0
C1755 C 0.39488 0.62651 0.44344 0.0
H1756 H 0.40168 0.5948 0.45615 0.0
H1757 H 0.41879 0.72441 0.44619 0.0
H1758 H 0.60312 0.20148 0.58533 0.0
H1759 H 0.58926 0.18682 0.61691 0.0
H1760 H 0.62236 0.17171 0.6689 0.0
H1761 H 0.63627 0.18654 0.63803 0.0
H1762 H 0.60502 0.15256 0.65068 0.0
H1763 H 0.60479 0.19308 0.70736 0.0
H1764 H 0.6026 0.21665 0.71252 0.0
H1765 H 0.56318 0.21421 0.68109 0.0
H1766 H 0.56519 0.19062 0.67518 0.0
H1767 H 0.56999 0.12491 0.78791 0.0
H1768 H 0.58492 0.13829 0.75574 0.0
H1769 H 0.5534 0.15291 0.69672 0.0
H1770 H 0.53847 0.13919 0.72751 0.0
H1771 H 0.57058 0.17219 0.7202 0.0
H1772 H 0.57133 0.13132 0.66296 0.0
H1773 H 0.57391 0.10775 0.65883 0.0
H1774 H 0.6129 0.11092 0.69344 0.0
H1775 H 0.61048 0.13452 0.69829 0.0
C1776 C 0.60747 0.19503 0.60343 0.0
C1777 C 0.62081 0.19528 0.60929 0.0
C1778 C 0.59954 0.18663 0.62138 0.0
C1779 C 0.60477 0.1783 0.64554 0.0
C1780 C 0.61813 0.17806 0.65035 0.0
C1781 C 0.62608 0.18651 0.63252 0.0
C1782 C 0.59622 0.1703 0.66682 0.0
C1783 C 0.5976 0.15685 0.66622 0.0
C1784 C 0.58646 0.17591 0.68683 0.0
C1785 C 0.58518 0.19009 0.69048 0.0
C1786 C 0.59568 0.19758 0.70126 0.0
C1787 C 0.59447 0.21094 0.70437 0.0
C1788 C 0.58277 0.21693 0.69706 0.0
C1789 C 0.57224 0.20956 0.68669 0.0
C1790 C 0.57341 0.19619 0.68347 0.0
C1791 C 0.56621 0.13087 0.76792 0.0
C1792 C 0.55297 0.13092 0.76042 0.0
C1793 C 0.57477 0.13856 0.74968 0.0
C1794 C 0.57025 0.14653 0.7238 0.0
C1795 C 0.55706 0.14686 0.71672 0.0
C1796 C 0.54852 0.13906 0.73461 0.0
C1797 C 0.57928 0.15446 0.70376 0.0
C1798 C 0.57802 0.16791 0.70469 0.0
C1799 C 0.58919 0.14884 0.68429 0.0
C1800 C 0.59067 0.13467 0.68137 0.0
C1801 C 0.58041 0.12698 0.67001 0.0
C1802 C 0.58186 0.11362 0.66747 0.0
C1803 C 0.59355 0.10784 0.67596 0.0
C1804 C 0.60384 0.11541 0.68693 0.0
C1805 C 0.60244 0.12878 0.68957 0.0
H1806 H 0.59465 0.09749 0.67396 0.0
H1807 H 0.58184 0.22728 0.6995 0.0
H1808 H 0.9338 0.36976 0.83414 0.0
H1809 H 0.91771 0.35687 0.86412 0.0
H1810 H 0.93778 0.36377 0.95732 0.0
H1811 H 0.95415 0.37605 0.92704 0.0
H1812 H 0.93192 0.34029 0.9558 0.0
H1813 H 0.90777 0.37853 0.93532 0.0
H1814 H 0.89841 0.3963 0.9023 0.0
H1815 H 0.87687 0.36912 0.84363 0.0
H1816 H 0.88624 0.35116 0.876 0.0
H1817 H 0.88038 0.31531 0.05684 0.0
H1818 H 0.89486 0.33102 0.03086 0.0
H1819 H 0.8845 0.31691 0.93284 0.0
H1820 H 0.87059 0.30078 0.95827 0.0
H1821 H 0.88482 0.34499 0.94018 0.0
H1822 H 0.91083 0.30687 0.96148 0.0
H1823 H 0.91987 0.28992 0.99788 0.0
H1824 H 0.93755 0.31875 0.05992 0.0
H1825 H 0.92844 0.33589 0.02413 0.0
C1826 C 0.93467 0.36855 0.86105 0.0
C1827 C 0.94519 0.3738 0.87834 0.0
C1828 C 0.92545 0.36126 0.87824 0.0
C1829 C 0.9264 0.35944 0.91317 0.0
C1830 C 0.93682 0.36496 0.93043 0.0
C1831 C 0.94615 0.37199 0.91316 0.0
C1832 C 0.91694 0.35129 0.93155 0.0
C1833 C 0.92163 0.34153 0.95275 0.0
C1834 C 0.90347 0.35271 0.92745 0.0
C1835 C 0.8978 0.36349 0.9079 0.0
C1836 C 0.90111 0.37633 0.91521 0.0
C1837 C 0.89579 0.38644 0.89663 0.0
C1838 C 0.88707 0.38384 0.87083 0.0
C1839 C 0.88364 0.37112 0.8636 0.0
C1840 C 0.88894 0.36097 0.88208 0.0
C1841 C 0.88123 0.31545 0.02977 0.0
C1842 C 0.87423 0.30672 0.00977 0.0
C1843 C 0.88943 0.32452 0.01499 0.0
C1844 C 0.89068 0.32512 0.97996 0.0
C1845 C 0.88354 0.31667 0.95991 0.0
C1846 C 0.87552 0.30749 0.9746 0.0
C1847 C 0.89988 0.33413 0.96406 0.0
C1848 C 0.89514 0.34397 0.94333 0.0
C1849 C 0.91328 0.33296 0.96905 0.0
C1850 C 0.91884 0.32266 0.99037 0.0
C1851 C 0.91655 0.3096 0.98306 0.0
C1852 C 0.9217 0.29995 0.00354 0.0
C1853 C 0.92925 0.30325 0.03126 0.0
C1854 C 0.93169 0.31621 0.03848 0.0
C1855 C 0.92654 0.32589 0.0181 0.0
H1856 H 0.93323 0.29577 0.04709 0.0
H1857 H 0.88296 0.39168 0.85648 0.0
H1858 H 0.43197 0.11155 0.76159 0.0
H1859 H 0.41549 0.12449 0.73359 0.0
H1860 H 0.43561 0.15924 0.76153 0.0
H1861 H 0.45181 0.14641 0.7907 0.0
H1862 H 0.41031 0.16255 0.76731 0.0
H1863 H 0.43915 0.14535 0.68324 0.0
H1864 H 0.45044 0.12803 0.65274 0.0
H1865 H 0.41422 0.11146 0.62414 0.0
H1866 H 0.40271 0.1286 0.65487 0.0
H1867 H 0.38891 0.20803 0.65013 0.0
H1868 H 0.40197 0.19282 0.68178 0.0
H1869 H 0.3784 0.16141 0.64648 0.0
H1870 H 0.36556 0.17658 0.61331 0.0
H1871 H 0.40342 0.15494 0.64568 0.0
H1872 H 0.37457 0.17348 0.72562 0.0
H1873 H 0.36347 0.19116 0.75516 0.0
H1874 H 0.3997 0.20538 0.79129 0.0
H1875 H 0.41104 0.18791 0.76153 0.0
C1876 C 0.43273 0.12196 0.76244 0.0
C1877 C 0.44328 0.12794 0.77817 0.0
C1878 C 0.42338 0.12934 0.74608 0.0
C1879 C 0.42444 0.14283 0.74489 0.0
C1880 C 0.43462 0.14884 0.76191 0.0
C1881 C 0.44394 0.14149 0.77836 0.0
C1882 C 0.41531 0.15072 0.72487 0.0
C1883 C 0.40887 0.16094 0.74067 0.0
C1884 C 0.41317 0.14843 0.69027 0.0
C1885 C 0.42008 0.13817 0.67166 0.0
C1886 C 0.4336 0.13796 0.67066 0.0
C1887 C 0.44004 0.12819 0.6533 0.0
C1888 C 0.43305 0.11863 0.6366 0.0
C1889 C 0.41962 0.11885 0.63714 0.0
C1890 C 0.41313 0.1286 0.65451 0.0
C1891 C 0.38661 0.19787 0.64849 0.0
C1892 C 0.37617 0.19354 0.62904 0.0
C1893 C 0.394 0.18919 0.66705 0.0
C1894 C 0.39102 0.176 0.66704 0.0
C1895 C 0.38081 0.17157 0.64707 0.0
C1896 C 0.37343 0.18026 0.62831 0.0
C1897 C 0.39859 0.16691 0.688 0.0
C1898 C 0.40473 0.15647 0.6724 0.0
C1899 C 0.40047 0.16901 0.72279 0.0
C1900 C 0.39366 0.17943 0.74114 0.0
C1901 C 0.38018 0.18042 0.7397 0.0
C1902 C 0.37384 0.1904 0.7565 0.0
C1903 C 0.38088 0.1994 0.77504 0.0
C1904 C 0.39426 0.19841 0.77691 0.0
C1905 C 0.40065 0.18846 0.76011 0.0
H1906 H 0.37595 0.20713 0.78801 0.0
H1907 H 0.43805 0.11107 0.62317 0.0
H1908 H 0.54432 0.63121 0.42055 0.0
H1909 H 0.56019 0.6447 0.44855 0.0
H1910 H 0.58474 0.64271 0.36155 0.0
H1911 H 0.56862 0.62948 0.33253 0.0
H1912 H 0.59736 0.63883 0.42709 0.0
H1913 H 0.56958 0.66877 0.3698 0.0
H1914 H 0.54856 0.67782 0.35349 0.0
H1915 H 0.53985 0.68557 0.45686 0.0
H1916 H 0.56074 0.67638 0.47385 0.0
H1917 H 0.63864 0.68929 0.48383 0.0
H1918 H 0.62501 0.67449 0.45191 0.0
H1919 H 0.59334 0.68256 0.51887 0.0
H1920 H 0.60684 0.69785 0.54973 0.0
H1921 H 0.58496 0.68334 0.4592 0.0
H1922 H 0.61142 0.65292 0.51825 0.0
H1923 H 0.6317 0.64301 0.5373 0.0
H1924 H 0.64226 0.63521 0.43513 0.0
H1925 H 0.6221 0.64523 0.41543 0.0
C1926 C 0.55299 0.63376 0.40701 0.0
C1927 C 0.55506 0.62944 0.37395 0.0
C1928 C 0.5621 0.64138 0.42325 0.0
C1929 C 0.57355 0.64478 0.40698 0.0
C1930 C 0.57593 0.64017 0.37446 0.0
C1931 C 0.56672 0.6326 0.35798 0.0
C1932 C 0.58277 0.65347 0.42398 0.0
C1933 C 0.59479 0.64864 0.43369 0.0
C1934 C 0.5792 0.66612 0.4333 0.0
C1935 C 0.56669 0.67179 0.42311 0.0
C1936 C 0.56314 0.67231 0.38908 0.0
C1937 C 0.55126 0.67748 0.37971 0.0
C1938 C 0.54286 0.68224 0.40413 0.0
C1939 C 0.54635 0.68187 0.43797 0.0
C1940 C 0.55822 0.6767 0.44748 0.0
C1941 C 0.62881 0.68773 0.49193 0.0
C1942 C 0.62377 0.69462 0.51927 0.0
C1943 C 0.62103 0.67925 0.47376 0.0
C1944 C 0.60816 0.67724 0.48316 0.0
C1945 C 0.60322 0.68394 0.51101 0.0
C1946 C 0.61093 0.69263 0.52873 0.0
C1947 C 0.59961 0.66869 0.46309 0.0
C1948 C 0.58766 0.67355 0.45264 0.0
C1949 C 0.60321 0.65601 0.45356 0.0
C1950 C 0.61531 0.64995 0.46536 0.0
C1951 C 0.61811 0.64918 0.49983 0.0
C1952 C 0.62957 0.64353 0.51075 0.0
C1953 C 0.63828 0.63852 0.48744 0.0
C1954 C 0.63552 0.63912 0.45316 0.0
C1955 C 0.62407 0.64477 0.4421 0.0
H1956 H 0.64715 0.63415 0.49594 0.0
H1957 H 0.53366 0.68623 0.39682 0.0
H1958 H 0.1074 0.79285 0.13647 0.0
H1959 H 0.09368 0.80823 0.16575 0.0
H1960 H 0.12167 0.83824 0.14894 0.0
H1961 H 0.13547 0.82287 0.11927 0.0
H1962 H 0.11383 0.83844 0.21258 0.0
H1963 H 0.09351 0.83833 0.1063 0.0
H1964 H 0.08374 0.82929 0.05511 0.0
H1965 H 0.05394 0.81176 0.11412 0.0
H1966 H 0.06364 0.82054 0.16578 0.0
H1967 H 0.06632 0.88807 0.25479 0.0
H1968 H 0.08173 0.87489 0.22379 0.0
H1969 H 0.06488 0.84046 0.26517 0.0
H1970 H 0.04996 0.8535 0.29814 0.0
H1971 H 0.06749 0.84421 0.18678 0.0
H1972 H 0.09 0.84393 0.29393 0.0
H1973 H 0.09999 0.85445 0.3429 0.0
H1974 H 0.12593 0.87479 0.27789 0.0
H1975 H 0.11594 0.86452 0.22847 0.0
C1976 C 0.11054 0.80278 0.13832 0.0
C1977 C 0.12252 0.80663 0.12535 0.0
C1978 C 0.10269 0.81156 0.15521 0.0
C1979 C 0.1066 0.82442 0.15933 0.0
C1980 C 0.11848 0.82836 0.14612 0.0
C1981 C 0.12635 0.81956 0.1292 0.0
C1982 C 0.09844 0.83355 0.17859 0.0
C1983 C 0.10375 0.83984 0.20657 0.0
C1984 C 0.08526 0.83535 0.17094 0.0
C1985 C 0.07938 0.83 0.13997 0.0
C1986 C 0.08494 0.83245 0.10842 0.0
C1987 C 0.0794 0.82739 0.0793 0.0
C1988 C 0.06824 0.81993 0.08137 0.0
C1989 C 0.06259 0.81753 0.11256 0.0
C1990 C 0.0681 0.82256 0.14177 0.0
C1991 C 0.06609 0.87773 0.25825 0.0
C1992 C 0.05679 0.8719 0.27907 0.0
C1993 C 0.07484 0.87021 0.24016 0.0
C1994 C 0.07434 0.85675 0.24211 0.0
C1995 C 0.06532 0.85087 0.26324 0.0
C1996 C 0.05674 0.85836 0.2819 0.0
C1997 C 0.08285 0.84876 0.22093 0.0
C1998 C 0.07759 0.84279 0.19254 0.0
C1999 C 0.0961 0.84743 0.22785 0.0
C2000 C 0.10211 0.8536 0.2575 0.0
C2001 C 0.09773 0.85076 0.29005 0.0
C2002 C 0.10341 0.85665 0.3179 0.0
C2003 C 0.11356 0.86532 0.3135 0.0
C2004 C 0.11806 0.86809 0.28125 0.0
C2005 C 0.11239 0.86224 0.25332 0.0
H2006 H 0.11795 0.86986 0.33509 0.0
H2007 H 0.06396 0.81602 0.05879 0.0
H2008 H 0.9274 0.6214 0.294 0.0
H2009 H 0.91239 0.63488 0.262 0.0
H2010 H 0.94426 0.65154 0.20783 0.0
H2011 H 0.95923 0.63826 0.23986 0.0
H2012 H 0.9281 0.66973 0.22681 0.0
H2013 H 0.92421 0.62805 0.17326 0.0
H2014 H 0.91993 0.60467 0.17179 0.0
H2015 H 0.88165 0.61116 0.2086 0.0
H2016 H 0.88577 0.63457 0.2107 0.0
H2017 H 0.89635 0.70077 0.09443 0.0
H2018 H 0.90971 0.68544 0.12541 0.0
H2019 H 0.87593 0.6705 0.17484 0.0
H2020 H 0.8625 0.68565 0.14337 0.0
H2021 H 0.89206 0.65138 0.16065 0.0
H2022 H 0.89546 0.69274 0.21338 0.0
H2023 H 0.89938 0.71617 0.21563 0.0
H2024 H 0.93821 0.71033 0.1822 0.0
H2025 H 0.93446 0.68687 0.17927 0.0
C2026 C 0.93117 0.62793 0.27522 0.0
C2027 C 0.94449 0.62885 0.26963 0.0
C2028 C 0.92259 0.6356 0.25689 0.0
C2029 C 0.92719 0.64415 0.23228 0.0
C2030 C 0.94048 0.64507 0.22677 0.0
C2031 C 0.94904 0.63751 0.24521 0.0
C2032 C 0.91826 0.65232 0.2124 0.0
C2033 C 0.92032 0.66568 0.21204 0.0
C2034 C 0.90785 0.6471 0.19393 0.0
C2035 C 0.90535 0.63304 0.19245 0.0
C2036 C 0.91491 0.62448 0.18126 0.0
C2037 C 0.91251 0.61123 0.18028 0.0
C2038 C 0.90054 0.60643 0.19018 0.0
C2039 C 0.89093 0.61488 0.20099 0.0
C2040 C 0.89329 0.62814 0.20205 0.0
C2041 C 0.89178 0.69413 0.11168 0.0
C2042 C 0.8784 0.69445 0.11664 0.0
C2043 C 0.89941 0.6854 0.12944 0.0
C2044 C 0.89385 0.677 0.15299 0.0
C2045 C 0.88043 0.67691 0.15688 0.0
C2046 C 0.87277 0.68555 0.13883 0.0
C2047 C 0.90209 0.66874 0.17459 0.0
C2048 C 0.89985 0.6554 0.17544 0.0
C2049 C 0.91231 0.67397 0.19371 0.0
C2050 C 0.91464 0.68806 0.19584 0.0
C2051 C 0.90481 0.69646 0.20631 0.0
C2052 C 0.907 0.70974 0.20773 0.0
C2053 C 0.91903 0.71474 0.199 0.0
C2054 C 0.92889 0.70645 0.18892 0.0
C2055 C 0.92674 0.69316 0.18741 0.0
H2056 H 0.92071 0.72502 0.2001 0.0
H2057 H 0.8987 0.59617 0.18941 0.0
H2058 H 0.07239 0.12436 0.83356 0.0
H2059 H 0.08801 0.13747 0.86465 0.0
H2060 H 0.05852 0.14756 0.93631 0.0
H2061 H 0.04288 0.135 0.90452 0.0
H2062 H 0.07129 0.16778 0.92299 0.0
H2063 H 0.08343 0.12434 0.95143 0.0
H2064 H 0.09005 0.10194 0.93998 0.0
H2065 H 0.12405 0.11557 0.89017 0.0
H2066 H 0.11755 0.13806 0.90097 0.0
H2067 H 0.11037 0.19246 0.05273 0.0
H2068 H 0.09634 0.17785 0.02137 0.0
H2069 H 0.12546 0.17379 0.94502 0.0
H2070 H 0.13949 0.18846 0.976 0.0
H2071 H 0.11358 0.15066 0.95951 0.0
H2072 H 0.10109 0.19428 0.93299 0.0
H2073 H 0.09435 0.21645 0.94671 0.0
H2074 H 0.06056 0.2019 0.99574 0.0
H2075 H 0.0672 0.17962 0.98273 0.0
C2076 C 0.0693 0.12943 0.85591 0.0
C2077 C 0.05644 0.12876 0.86654 0.0
C2078 C 0.07822 0.13684 0.87381 0.0
C2079 C 0.07451 0.1434 0.90317 0.0
C2080 C 0.06165 0.14266 0.91372 0.0
C2081 C 0.0527 0.13549 0.89552 0.0
C2082 C 0.08386 0.15124 0.92278 0.0
C2083 C 0.08045 0.16393 0.93131 0.0
C2084 C 0.09598 0.1464 0.93309 0.0
C2085 C 0.09993 0.13288 0.92672 0.0
C2086 C 0.09227 0.12256 0.93784 0.0
C2087 C 0.09601 0.10985 0.93149 0.0
C2088 C 0.10745 0.10733 0.91428 0.0
C2089 C 0.11519 0.11753 0.90346 0.0
C2090 C 0.11149 0.13026 0.90971 0.0
C2091 C 0.1138 0.18843 0.02932 0.0
C2092 C 0.12603 0.19169 0.01681 0.0
C2093 C 0.10579 0.18006 0.01147 0.0
C2094 C 0.1098 0.17487 0.98065 0.0
C2095 C 0.12219 0.17767 0.96877 0.0
C2096 C 0.13021 0.18603 0.9866 0.0
C2097 C 0.10086 0.16703 0.96003 0.0
C2098 C 0.10438 0.15442 0.95119 0.0
C2099 C 0.08878 0.17188 0.9497 0.0
C2100 C 0.08469 0.18528 0.95713 0.0
C2101 C 0.09226 0.1958 0.94688 0.0
C2102 C 0.08846 0.20839 0.95451 0.0
C2103 C 0.07705 0.21058 0.97215 0.0
C2104 C 0.0694 0.20019 0.98211 0.0
C2105 C 0.07317 0.18758 0.97459 0.0
H2106 H 0.07412 0.22034 0.97804 0.0
H2107 H 0.11033 0.09748 0.90939 0.0
H2108 H 0.6244 0.32164 0.58556 0.0
H2109 H 0.61115 0.3368 0.61758 0.0
H2110 H 0.59909 0.30596 0.68293 0.0
H2111 H 0.61248 0.29085 0.6518 0.0
H2112 H 0.5789 0.32117 0.66342 0.0
H2113 H 0.6214 0.32651 0.7088 0.0
H2114 H 0.64471 0.33079 0.7064 0.0
H2115 H 0.63743 0.3684 0.66561 0.0
H2116 H 0.61407 0.36427 0.6673 0.0
H2117 H 0.55302 0.35606 0.79966 0.0
H2118 H 0.56734 0.3422 0.76701 0.0
H2119 H 0.57691 0.37423 0.70276 0.0
H2120 H 0.56236 0.38808 0.73457 0.0
H2121 H 0.59831 0.35908 0.72006 0.0
H2122 H 0.55578 0.35389 0.67585 0.0
H2123 H 0.53247 0.34971 0.67911 0.0
H2124 H 0.53984 0.31179 0.71779 0.0
H2125 H 0.56321 0.31584 0.71534 0.0
C2126 C 0.61898 0.31809 0.60682 0.0
C2127 C 0.61949 0.305 0.61596 0.0
C2128 C 0.61139 0.32676 0.62504 0.0
C2129 C 0.6042 0.3225 0.65273 0.0
C2130 C 0.60451 0.30943 0.66153 0.0
C2131 C 0.61212 0.30079 0.64351 0.0
C2132 C 0.59642 0.33164 0.67289 0.0
C2133 C 0.58317 0.32938 0.67608 0.0
C2134 C 0.60196 0.3425 0.68881 0.0
C2135 C 0.61599 0.34502 0.6878 0.0
C2136 C 0.62478 0.33565 0.69902 0.0
C2137 C 0.638 0.33806 0.69785 0.0
C2138 C 0.64255 0.34984 0.68576 0.0
C2139 C 0.63389 0.35926 0.6749 0.0
C2140 C 0.62066 0.3569 0.67598 0.0
C2141 C 0.55816 0.36017 0.7786 0.0
C2142 C 0.55646 0.37318 0.76967 0.0
C2143 C 0.56638 0.35225 0.76007 0.0
C2144 C 0.57308 0.35718 0.73231 0.0
C2145 C 0.57185 0.37026 0.72416 0.0
C2146 C 0.56356 0.37818 0.74253 0.0
C2147 C 0.58085 0.34852 0.71079 0.0
C2148 C 0.59406 0.35088 0.7073 0.0
C2149 C 0.57529 0.33774 0.69456 0.0
C2150 C 0.56125 0.33522 0.69573 0.0
C2151 C 0.55243 0.3447 0.68532 0.0
C2152 C 0.53921 0.34235 0.68698 0.0
C2153 C 0.53468 0.3305 0.69873 0.0
C2154 C 0.54337 0.32097 0.70875 0.0
C2155 C 0.5566 0.32328 0.70721 0.0
H2156 H 0.52444 0.32869 0.69999 0.0
H2157 H 0.65279 0.35169 0.68489 0.0
H2158 H 0.3971 0.79548 0.53508 0.0
H2159 H 0.40983 0.81115 0.50406 0.0
H2160 H 0.37544 0.83272 0.48109 0.0
H2161 H 0.36251 0.8166 0.51048 0.0
H2162 H 0.38913 0.83075 0.42714 0.0
H2163 H 0.39832 0.84394 0.53814 0.0
H2164 H 0.40439 0.84184 0.59768 0.0
H2165 H 0.44165 0.82779 0.56908 0.0
H2166 H 0.43574 0.82963 0.50933 0.0
H2167 H 0.43075 0.88402 0.37246 0.0
H2168 H 0.41473 0.87131 0.40299 0.0
H2169 H 0.44073 0.83899 0.40527 0.0
H2170 H 0.45652 0.85126 0.37318 0.0
H2171 H 0.4298 0.8491 0.47128 0.0
H2172 H 0.41843 0.83481 0.35858 0.0
H2173 H 0.4116 0.83849 0.30011 0.0
H2174 H 0.37724 0.8572 0.33482 0.0
H2175 H 0.38398 0.8538 0.39355 0.0
C2176 C 0.39221 0.80354 0.52343 0.0
C2177 C 0.37875 0.80472 0.52522 0.0
C2178 C 0.39954 0.81261 0.506 0.0
C2179 C 0.39363 0.82323 0.49051 0.0
C2180 C 0.38023 0.82463 0.49289 0.0
C2181 C 0.37286 0.81547 0.51007 0.0
C2182 C 0.40144 0.83246 0.47051 0.0
C2183 C 0.39789 0.83495 0.43708 0.0
C2184 C 0.41291 0.83796 0.48329 0.0
C2185 C 0.41654 0.83683 0.51922 0.0
C2186 C 0.40777 0.84031 0.54453 0.0
C2187 C 0.41119 0.83918 0.57833 0.0
C2188 C 0.42339 0.83466 0.58716 0.0
C2189 C 0.4322 0.83129 0.5622 0.0
C2190 C 0.42883 0.83238 0.52835 0.0
C2191 C 0.43296 0.8741 0.37857 0.0
C2192 C 0.44504 0.86874 0.37057 0.0
C2193 C 0.42382 0.8669 0.3963 0.0
C2194 C 0.42665 0.8543 0.40659 0.0
C2195 C 0.43846 0.84877 0.39777 0.0
C2196 C 0.44749 0.85584 0.37959 0.0
C2197 C 0.41761 0.84702 0.42803 0.0
C2198 C 0.42095 0.84498 0.46169 0.0
C2199 C 0.40583 0.84218 0.4157 0.0
C2200 C 0.40179 0.84421 0.38043 0.0
C2201 C 0.40949 0.83984 0.35375 0.0
C2202 C 0.40562 0.84184 0.32056 0.0
C2203 C 0.39402 0.84812 0.31375 0.0
C2204 C 0.38624 0.85237 0.34013 0.0
C2205 C 0.39008 0.8504 0.37336 0.0
H2206 H 0.39103 0.84966 0.28804 0.0
H2207 H 0.42601 0.8338 0.61334 0.0
H2208 H 0.02049 0.5363 0.17672 0.0
H2209 H 0.02116 0.52101 0.12985 0.0
H2210 H 0.9799 0.51663 0.13574 0.0
H2211 H 0.9794 0.53139 0.18383 0.0
H2212 H 0.9898 0.49451 0.12451 0.0
H2213 H 0.99558 0.53621 0.07509 0.0
H2214 H 0.00556 0.55756 0.06734 0.0
H2215 H 0.04155 0.53959 0.0428 0.0
H2216 H 0.03183 0.51812 0.05086 0.0
H2217 H 0.98055 0.46969 0.9595 0.0
H2218 H 0.98071 0.48455 0.00734 0.0
H2219 H 0.02183 0.48012 0.01592 0.0
H2220 H 0.02172 0.46518 0.9682 0.0
H2221 H 0.01227 0.50645 0.0191 0.0
H2222 H 0.00522 0.46444 0.06818 0.0
H2223 H 0.99406 0.44358 0.07369 0.0
H2224 H 0.95872 0.4632 0.09608 0.0
H2225 H 0.96964 0.4842 0.09019 0.0
C2226 C 0.01162 0.53196 0.16799 0.0
C2227 C 0.99989 0.53493 0.18347 0.0
C2228 C 0.01197 0.52333 0.14114 0.0
C2229 C 0.00054 0.51788 0.12876 0.0
C2230 C 0.98883 0.52073 0.14477 0.0
C2231 C 0.98853 0.52915 0.17209 0.0
C2232 C 0.00075 0.50924 0.0991 0.0
C2233 C 0.99458 0.49723 0.10136 0.0
C2234 C 0.00715 0.51266 0.06896 0.0
C2235 C 0.013 0.52556 0.06389 0.0
C2236 C 0.00564 0.53681 0.06826 0.0
C2237 C 0.01125 0.54893 0.06378 0.0
C2238 C 0.02419 0.54993 0.05466 0.0
C2239 C 0.03154 0.5388 0.04991 0.0
C2240 C 0.02598 0.52665 0.0544 0.0
C2241 C 0.98962 0.47198 0.97147 0.0
C2242 C 0.00112 0.4663 0.96034 0.0
C2243 C 0.98969 0.48039 0.99879 0.0
C2244 C 0.00128 0.48333 0.01512 0.0
C2245 C 0.01281 0.47792 0.00357 0.0
C2246 C 0.01272 0.46937 0.97653 0.0
C2247 C 0.0013 0.49188 0.0447 0.0
C2248 C 0.00751 0.50382 0.04236 0.0
C2249 C 0.99476 0.48851 0.07452 0.0
C2250 C 0.98822 0.47589 0.07843 0.0
C2251 C 0.99505 0.46431 0.07401 0.0
C2252 C 0.98877 0.45246 0.07725 0.0
C2253 C 0.97568 0.45207 0.08514 0.0
C2254 C 0.96886 0.46352 0.08992 0.0
C2255 C 0.97509 0.4754 0.08667 0.0
H2256 H 0.97084 0.44288 0.08763 0.0
H2257 H 0.02852 0.55933 0.05122 0.0
H2258 H 0.78116 0.73156 0.20942 0.0
H2259 H 0.76597 0.73177 0.25632 0.0
H2260 H 0.77221 0.77263 0.26891 0.0
H2261 H 0.78762 0.77237 0.2225 0.0
H2262 H 0.77299 0.76125 0.32719 0.0
H2263 H 0.74422 0.76028 0.23353 0.0
H2264 H 0.73514 0.75228 0.18031 0.0
H2265 H 0.7266 0.7159 0.22665 0.0
H2266 H 0.7358 0.72363 0.28006 0.0
H2267 H 0.7177 0.77374 0.42938 0.0
H2268 H 0.73294 0.77318 0.38237 0.0
H2269 H 0.73313 0.73163 0.38595 0.0
H2270 H 0.71803 0.73214 0.43326 0.0
H2271 H 0.72892 0.74313 0.32012 0.0
H2272 H 0.75783 0.7449 0.41435 0.0
H2273 H 0.76639 0.75375 0.46724 0.0
H2274 H 0.77395 0.78989 0.41858 0.0
H2275 H 0.76524 0.78131 0.36548 0.0
C2276 C 0.77917 0.74059 0.22202 0.0
C2277 C 0.78554 0.75194 0.21244 0.0
C2278 C 0.77049 0.74072 0.24874 0.0
C2279 C 0.76786 0.75224 0.26592 0.0
C2280 C 0.77412 0.76362 0.25608 0.0
C2281 C 0.78291 0.76347 0.22962 0.0
C2282 C 0.75891 0.75238 0.29484 0.0
C2283 C 0.7633 0.75745 0.32545 0.0
C2284 C 0.74634 0.74718 0.2928 0.0
C2285 C 0.74082 0.7425 0.26071 0.0
C2286 C 0.7405 0.75054 0.23231 0.0
C2287 C 0.73532 0.74606 0.20212 0.0
C2288 C 0.73033 0.73358 0.20008 0.0
C2289 C 0.73049 0.72556 0.22826 0.0
C2290 C 0.73567 0.72999 0.2585 0.0
C2291 C 0.72105 0.76451 0.42014 0.0
C2292 C 0.71676 0.75298 0.43483 0.0
C2293 C 0.72974 0.7642 0.39347 0.0
C2294 C 0.73412 0.75236 0.38088 0.0
C2295 C 0.72983 0.74084 0.39544 0.0
C2296 C 0.7213 0.74114 0.42247 0.0
C2297 C 0.74303 0.75203 0.35211 0.0
C2298 C 0.73863 0.74692 0.32165 0.0
C2299 C 0.75551 0.75733 0.35414 0.0
C2300 C 0.76075 0.76251 0.38604 0.0
C2301 C 0.76119 0.75478 0.41501 0.0
C2302 C 0.7661 0.75973 0.44501 0.0
C2303 C 0.77068 0.77239 0.4463 0.0
C2304 C 0.77038 0.7801 0.41756 0.0
C2305 C 0.76547 0.77519 0.3875 0.0
H2306 H 0.77448 0.7762 0.46954 0.0
H2307 H 0.72631 0.73013 0.17669 0.0
H2308 H 0.48075 0.54677 0.49118 0.0
H2309 H 0.47971 0.53118 0.53755 0.0
H2310 H 0.51125 0.50994 0.49408 0.0
H2311 H 0.51251 0.52566 0.44813 0.0
H2312 H 0.48815 0.49488 0.5168 0.0
H2313 H 0.5193 0.52687 0.55274 0.0
H2314 H 0.52643 0.5491 0.56431 0.0
H2315 H 0.49585 0.55368 0.63577 0.0
H2316 H 0.48841 0.53153 0.6242 0.0
H2317 H 0.50888 0.4543 0.64784 0.0
H2318 H 0.50731 0.46968 0.6016 0.0
H2319 H 0.48398 0.4947 0.66317 0.0
H2320 H 0.48571 0.47939 0.70973 0.0
H2321 H 0.50135 0.50827 0.6313 0.0
H2322 H 0.4707 0.47647 0.59981 0.0
H2323 H 0.46239 0.45466 0.58835 0.0
H2324 H 0.48998 0.45 0.50912 0.0
H2325 H 0.4986 0.47173 0.52043 0.0
C2326 C 0.4874 0.53873 0.49157 0.0
C2327 C 0.49674 0.53737 0.46637 0.0
C2328 C 0.48681 0.52989 0.51793 0.0
C2329 C 0.49541 0.51948 0.51904 0.0
C2330 C 0.50453 0.51793 0.49347 0.0
C2331 C 0.50529 0.52691 0.46748 0.0
C2332 C 0.49517 0.51041 0.5475 0.0
C2333 C 0.49114 0.49771 0.54181 0.0
C2334 C 0.49869 0.51433 0.58016 0.0
C2335 C 0.50321 0.52761 0.5873 0.0
C2336 C 0.51402 0.53266 0.57067 0.0
C2337 C 0.51813 0.54524 0.57728 0.0
C2338 C 0.51157 0.55281 0.60068 0.0
C2339 C 0.50091 0.54781 0.6176 0.0
C2340 C 0.49674 0.53525 0.61104 0.0
C2341 C 0.50334 0.46303 0.65139 0.0
C2342 C 0.49738 0.46565 0.68229 0.0
C2343 C 0.50242 0.4718 0.62497 0.0
C2344 C 0.49536 0.48325 0.62878 0.0
C2345 C 0.48946 0.48592 0.65969 0.0
C2346 C 0.49048 0.47719 0.68625 0.0
C2347 C 0.49444 0.49257 0.60073 0.0
C2348 C 0.49826 0.50537 0.60642 0.0
C2349 C 0.49053 0.48877 0.56815 0.0
C2350 C 0.48537 0.4757 0.56118 0.0
C2351 C 0.47507 0.47076 0.58011 0.0
C2352 C 0.47029 0.45842 0.57362 0.0
C2353 C 0.47567 0.45094 0.54808 0.0
C2354 C 0.48583 0.4558 0.52892 0.0
C2355 C 0.49066 0.46814 0.53534 0.0
H2356 H 0.47196 0.44138 0.54308 0.0
H2357 H 0.51477 0.56254 0.60577 0.0
H2358 H 0.79502 0.2352 0.89402 0.0
H2359 H 0.77971 0.23703 0.8478 0.0
H2360 H 0.75544 0.26134 0.90853 0.0
H2361 H 0.77092 0.26001 0.95455 0.0
H2362 H 0.74229 0.24117 0.87412 0.0
H2363 H 0.77223 0.27537 0.85225 0.0
H2364 H 0.79374 0.28488 0.84415 0.0
H2365 H 0.80021 0.2601 0.75952 0.0
H2366 H 0.7788 0.25029 0.76744 0.0
H2367 H 0.70053 0.26173 0.74523 0.0
H2368 H 0.71592 0.26176 0.79161 0.0
H2369 H 0.74373 0.24235 0.72903 0.0
H2370 H 0.72841 0.24251 0.68234 0.0
H2371 H 0.75506 0.26058 0.76525 0.0
H2372 H 0.72578 0.22585 0.78733 0.0
H2373 H 0.70452 0.21577 0.79522 0.0
H2374 H 0.6971 0.24066 0.8791 0.0
H2375 H 0.71825 0.25102 0.8714 0.0
C2376 C 0.78651 0.24106 0.8975 0.0
C2377 C 0.78425 0.24751 0.928 0.0
C2378 C 0.77775 0.24203 0.87111 0.0
C2379 C 0.76653 0.24939 0.87479 0.0
C2380 C 0.76406 0.2556 0.90534 0.0
C2381 C 0.77288 0.25475 0.93165 0.0
C2382 C 0.7574 0.25061 0.8466 0.0
C2383 C 0.74499 0.24557 0.85045 0.0
C2384 C 0.76111 0.25608 0.81558 0.0
C2385 C 0.77396 0.262 0.81066 0.0
C2386 C 0.77829 0.27187 0.8321 0.0
C2387 C 0.79045 0.27733 0.8275 0.0
C2388 C 0.79835 0.27308 0.80139 0.0
C2389 C 0.79408 0.26337 0.77977 0.0
C2390 C 0.78193 0.25787 0.78428 0.0
C2391 C 0.70993 0.25746 0.74143 0.0
C2392 C 0.71327 0.25202 0.71035 0.0
C2393 C 0.7187 0.25748 0.7679 0.0
C2394 C 0.73089 0.25185 0.76393 0.0
C2395 C 0.73437 0.24672 0.73263 0.0
C2396 C 0.72563 0.24682 0.70602 0.0
C2397 C 0.7399 0.25109 0.79263 0.0
C2398 C 0.75232 0.2562 0.78891 0.0
C2399 C 0.73623 0.24558 0.82372 0.0
C2400 C 0.72355 0.23929 0.82858 0.0
C2401 C 0.71958 0.22923 0.80731 0.0
C2402 C 0.70755 0.22346 0.81177 0.0
C2403 C 0.69945 0.22759 0.83759 0.0
C2404 C 0.70338 0.23748 0.85908 0.0
C2405 C 0.71539 0.2433 0.8547 0.0
H2406 H 0.69014 0.22311 0.841 0.0
H2407 H 0.80776 0.27732 0.79787 0.0
H2408 H 0.22808 0.2659 0.95388 0.0
H2409 H 0.24322 0.26682 0.90657 0.0
H2410 H 0.21704 0.2443 0.84647 0.0
H2411 H 0.2018 0.24356 0.89343 0.0
H2412 H 0.24416 0.23584 0.84798 0.0
H2413 H 0.21748 0.27323 0.82879 0.0
H2414 H 0.20708 0.29366 0.84497 0.0
H2415 H 0.24406 0.31063 0.86364 0.0
H2416 H 0.25468 0.29021 0.84806 0.0
H2417 H 0.27401 0.24111 0.69077 0.0
H2418 H 0.25814 0.24153 0.73561 0.0
H2419 H 0.27875 0.27253 0.78374 0.0
H2420 H 0.29415 0.27287 0.73758 0.0
H2421 H 0.25435 0.27676 0.78922 0.0
H2422 H 0.2814 0.24026 0.80961 0.0
H2423 H 0.29256 0.21993 0.79612 0.0
H2424 H 0.25626 0.20134 0.77895 0.0
H2425 H 0.24488 0.22161 0.7919 0.0
C2426 C 0.22561 0.26115 0.93055 0.0
C2427 C 0.21382 0.25469 0.92709 0.0
C2428 C 0.2342 0.26172 0.90363 0.0
C2429 C 0.23117 0.25566 0.87317 0.0
C2430 C 0.21949 0.24904 0.86985 0.0
C2431 C 0.21081 0.24867 0.89652 0.0
C2432 C 0.24023 0.25616 0.84474 0.0
C2433 C 0.2463 0.24473 0.83478 0.0
C2434 C 0.24323 0.26786 0.8284 0.0
C2435 C 0.23686 0.28015 0.83763 0.0
C2436 C 0.22339 0.28128 0.83667 0.0
C2437 C 0.21745 0.29286 0.84566 0.0
C2438 C 0.2249 0.30343 0.85543 0.0
C2439 C 0.2383 0.30243 0.85613 0.0
C2440 C 0.24428 0.29086 0.8472 0.0
C2441 C 0.27506 0.24822 0.71046 0.0
C2442 C 0.28545 0.25691 0.71055 0.0
C2443 C 0.26606 0.24831 0.73641 0.0
C2444 C 0.26742 0.25686 0.76347 0.0
C2445 C 0.27757 0.26577 0.76326 0.0
C2446 C 0.28646 0.26584 0.73701 0.0
C2447 C 0.25836 0.25639 0.79217 0.0
C2448 C 0.25227 0.26783 0.80231 0.0
C2449 C 0.25549 0.24471 0.80905 0.0
C2450 C 0.2623 0.23249 0.80142 0.0
C2451 C 0.2758 0.23186 0.80273 0.0
C2452 C 0.28217 0.22034 0.79521 0.0
C2453 C 0.27513 0.20936 0.7866 0.0
C2454 C 0.2617 0.20986 0.78558 0.0
C2455 C 0.25529 0.22135 0.79304 0.0
H2456 H 0.28007 0.20046 0.78078 0.0
H2457 H 0.22029 0.31239 0.86237 0.0
H2458 H 0.28063 0.76765 0.43826 0.0
H2459 H 0.26507 0.76791 0.39224 0.0
H2460 H 0.27226 0.72755 0.37398 0.0
H2461 H 0.28782 0.72723 0.41999 0.0
H2462 H 0.27264 0.7411 0.31672 0.0
H2463 H 0.24471 0.73743 0.41209 0.0
H2464 H 0.23579 0.74345 0.46724 0.0
H2465 H 0.22475 0.78043 0.42835 0.0
H2466 H 0.23377 0.7747 0.37307 0.0
H2467 H 0.21898 0.72827 0.21115 0.0
H2468 H 0.23439 0.72841 0.25762 0.0
H2469 H 0.2286 0.7693 0.27014 0.0
H2470 H 0.21308 0.76921 0.22391 0.0
H2471 H 0.22752 0.75581 0.33 0.0
H2472 H 0.25527 0.75931 0.23445 0.0
H2473 H 0.26414 0.75322 0.17933 0.0
H2474 H 0.27544 0.71639 0.21867 0.0
H2475 H 0.26646 0.72219 0.27395 0.0
C2476 C 0.27876 0.7588 0.42471 0.0
C2477 C 0.28543 0.74742 0.43268 0.0
C2478 C 0.2699 0.75896 0.39842 0.0
C2479 C 0.26746 0.74772 0.37988 0.0
C2480 C 0.27404 0.73633 0.38793 0.0
C2481 C 0.28294 0.73617 0.41414 0.0
C2482 C 0.25829 0.74791 0.35149 0.0
C2483 C 0.26272 0.74414 0.3197 0.0
C2484 C 0.24546 0.7522 0.3553 0.0
C2485 C 0.24003 0.75568 0.38853 0.0
C2486 C 0.24048 0.74689 0.41537 0.0
C2487 C 0.23538 0.75024 0.44665 0.0
C2488 C 0.22974 0.76233 0.45132 0.0
C2489 C 0.22914 0.77108 0.42471 0.0
C2490 C 0.23423 0.76778 0.39339 0.0
C2491 C 0.22098 0.73728 0.2239 0.0
C2492 C 0.21486 0.74873 0.21398 0.0
C2493 C 0.22983 0.73736 0.25023 0.0
C2494 C 0.23267 0.74888 0.26708 0.0
C2495 C 0.22654 0.76033 0.25733 0.0
C2496 C 0.21776 0.76027 0.23084 0.0
C2497 C 0.24186 0.74894 0.29535 0.0
C2498 C 0.23744 0.75277 0.32707 0.0
C2499 C 0.25469 0.74468 0.2915 0.0
C2500 C 0.26006 0.74114 0.25825 0.0
C2501 C 0.25953 0.74987 0.23128 0.0
C2502 C 0.26461 0.74647 0.20001 0.0
C2503 C 0.27032 0.73441 0.19547 0.0
C2504 C 0.271 0.72572 0.22221 0.0
C2505 C 0.26592 0.72906 0.25352 0.0
H2506 H 0.27425 0.7318 0.17126 0.0
H2507 H 0.22579 0.76491 0.47555 0.0
H2508 H 0.47523 0.96256 0.47126 0.0
H2509 H 0.47493 0.97801 0.5179 0.0
H2510 H 0.51606 0.98252 0.50965 0.0
H2511 H 0.5164 0.96714 0.46301 0.0
H2512 H 0.50691 0.97801 0.57598 0.0
H2513 H 0.49841 0.00538 0.48056 0.0
H2514 H 0.48672 0.01211 0.42965 0.0
H2515 H 0.45189 0.01582 0.48672 0.0
H2516 H 0.46333 0.00892 0.53791 0.0
H2517 H 0.51768 0.03246 0.67788 0.0
H2518 H 0.51675 0.01676 0.63222 0.0
H2519 H 0.47532 0.01962 0.63121 0.0
H2520 H 0.47629 0.03569 0.67622 0.0
H2521 H 0.48375 0.01977 0.57012 0.0
H2522 H 0.49161 0.99306 0.66561 0.0
H2523 H 0.50259 0.98581 0.71711 0.0
H2524 H 0.5375 0.97999 0.66157 0.0
H2525 H 0.52677 0.98737 0.6098 0.0
C2526 C 0.48418 0.96686 0.47948 0.0
C2527 C 0.49583 0.96371 0.46361 0.0
C2528 C 0.484 0.97569 0.50592 0.0
C2529 C 0.49547 0.98139 0.51701 0.0
C2530 C 0.50712 0.9782 0.50134 0.0
C2531 C 0.50729 0.96951 0.47465 0.0
C2532 C 0.49538 0.99057 0.5453 0.0
C2533 C 0.50198 0.98722 0.57469 0.0
C2534 C 0.48858 0.00234 0.54374 0.0
C2535 C 0.48169 0.00649 0.51298 0.0
C2536 C 0.48823 0.00751 0.48219 0.0
C2537 C 0.48165 0.01138 0.4533 0.0
C2538 C 0.46856 0.01435 0.45493 0.0
C2539 C 0.46202 0.01349 0.48548 0.0
C2540 C 0.46855 0.00961 0.51445 0.0
C2541 C 0.50839 0.02965 0.66801 0.0
C2542 C 0.49705 0.03521 0.68053 0.0
C2543 C 0.50785 0.02066 0.64204 0.0
C2544 C 0.49594 0.01684 0.62866 0.0
C2545 C 0.4846 0.02241 0.64117 0.0
C2546 C 0.48516 0.03157 0.66682 0.0
C2547 C 0.49537 0.00729 0.60103 0.0
C2548 C 0.48864 0.01055 0.57168 0.0
C2549 C 0.50193 0.99534 0.60279 0.0
C2550 C 0.50841 0.99088 0.63388 0.0
C2551 C 0.50165 0.99033 0.66442 0.0
C2552 C 0.50783 0.98618 0.69366 0.0
C2553 C 0.52074 0.98247 0.69262 0.0
C2554 C 0.5275 0.98287 0.66234 0.0
C2555 C 0.52137 0.98703 0.63303 0.0
H2556 H 0.5255 0.97926 0.71528 0.0
H2557 H 0.46349 0.01735 0.43253 0.0
H2558 H 0.02209 0.03732 0.97363 0.0
H2559 H 0.02129 0.0219 0.02019 0.0
H2560 H 0.98145 0.01401 0.99807 0.0
H2561 H 0.98224 0.02935 0.95117 0.0
H2562 H 0.98717 0.01997 0.06743 0.0
H2563 H 0.00107 0.99201 0.97853 0.0
H2564 H 0.01478 0.98536 0.9311 0.0
H2565 H 0.04789 0.98539 0.99547 0.0
H2566 H 0.03441 0.99223 0.0432 0.0
H2567 H 0.98137 0.96762 0.18202 0.0
H2568 H 0.98062 0.98212 0.1336 0.0
H2569 H 0.02211 0.98427 0.13372 0.0
H2570 H 0.02284 0.96927 0.18112 0.0
H2571 H 0.01447 0.98082 0.07347 0.0
H2572 H 0.00156 0.0097 0.16156 0.0
H2573 H 0.98855 0.01716 0.20952 0.0
H2574 H 0.95458 0.01647 0.14824 0.0
H2575 H 0.96737 0.00885 0.10001 0.0
C2576 C 0.0132 0.03223 0.97864 0.0
C2577 C 0.00223 0.03447 0.95893 0.0
C2578 C 0.01276 0.02343 0.00508 0.0
C2579 C 0.00132 0.01684 0.01239 0.0
C2580 C 0.99036 0.01902 0.99268 0.0
C2581 C 0.99084 0.02768 0.96588 0.0
C2582 C 0.00077 0.00798 0.04132 0.0
C2583 C 0.99297 0.01129 0.06868 0.0
C2584 C 0.00862 0.99689 0.04303 0.0
C2585 C 0.01675 0.99275 0.01437 0.0
C2586 C 0.0113 0.99072 0.98251 0.0
C2587 C 0.01902 0.98689 0.95558 0.0
C2588 C 0.0322 0.98499 0.96025 0.0
C2589 C 0.03768 0.98688 0.99188 0.0
C2590 C 0.03 0.99072 0.01889 0.0
C2591 C 0.99029 0.97134 0.17186 0.0
C2592 C 0.00216 0.96742 0.18516 0.0
C2593 C 0.98987 0.97965 0.1443 0.0
C2594 C 0.00131 0.98443 0.1302 0.0
C2595 C 0.01317 0.98069 0.14406 0.0
C2596 C 0.01359 0.97218 0.17116 0.0
C2597 C 0.00101 0.99288 0.10016 0.0
C2598 C 0.00863 0.98948 0.07242 0.0
C2599 C 0.99311 0.00399 0.09831 0.0
C2600 C 0.98541 0.00858 0.12727 0.0
C2601 C 0.9913 0.01105 0.15838 0.0
C2602 C 0.98397 0.01532 0.1856 0.0
C2603 C 0.97074 0.01725 0.18196 0.0
C2604 C 0.96483 0.01495 0.15105 0.0
C2605 C 0.97212 0.01067 0.12375 0.0
H2606 H 0.96508 0.02056 0.20306 0.0
H2607 H 0.03817 0.98202 0.93937 0.0
H2608 H 0.97941 0.45669 0.65805 0.0
H2609 H 0.97789 0.47434 0.61748 0.0
H2610 H 0.01922 0.47768 0.6165 0.0
H2611 H 0.02087 0.45983 0.6562 0.0
H2612 H 0.00679 0.50102 0.62813 0.0
H2613 H 0.00448 0.46541 0.55062 0.0
H2614 H 0.99569 0.44515 0.52786 0.0
H2615 H 0.95892 0.46323 0.51388 0.0
H2616 H 0.96745 0.48357 0.53702 0.0
H2617 H 0.01885 0.54197 0.4903 0.0
H2618 H 0.01768 0.52435 0.53082 0.0
H2619 H 0.97655 0.52245 0.51758 0.0
H2620 H 0.9777 0.5399 0.47623 0.0
H2621 H 0.98705 0.49882 0.51495 0.0
H2622 H 0.98916 0.53459 0.58934 0.0
H2623 H 0.99741 0.55498 0.61271 0.0
H2624 H 0.03366 0.5369 0.63397 0.0
H2625 H 0.02569 0.51644 0.61026 0.0
C2626 C 0.9882 0.46095 0.64862 0.0
C2627 C 0.00027 0.45687 0.66062 0.0
C2628 C 0.9873 0.4711 0.62558 0.0
C2629 C 0.99845 0.47736 0.61414 0.0
C2630 C 0.0105 0.47306 0.62526 0.0
C2631 C 0.01141 0.46287 0.64803 0.0
C2632 C 0.99759 0.48876 0.59176 0.0
C2633 C 0.00261 0.50052 0.60322 0.0
C2634 C 0.99171 0.48819 0.55979 0.0
C2635 C 0.98656 0.47597 0.54593 0.0
C2636 C 0.99448 0.46503 0.543 0.0
C2637 C 0.98956 0.45354 0.52996 0.0
C2638 C 0.97674 0.45289 0.51953 0.0
C2639 C 0.96884 0.46374 0.52203 0.0
C2640 C 0.97372 0.47526 0.53509 0.0
C2641 C 0.00955 0.53784 0.49608 0.0
C2642 C 0.99837 0.54234 0.48002 0.0
C2643 C 0.00888 0.52783 0.51945 0.0
C2644 C 0.99701 0.52213 0.52744 0.0
C2645 C 0.9858 0.52672 0.51185 0.0
C2646 C 0.98646 0.53677 0.48848 0.0
C2647 C 0.99647 0.51106 0.55108 0.0
C2648 C 0.99116 0.49937 0.53993 0.0
C2649 C 0.002 0.51171 0.58349 0.0
C2650 C 0.00686 0.524 0.59774 0.0
C2651 C 0.99893 0.53499 0.59873 0.0
C2652 C 0.00355 0.54655 0.61209 0.0
C2653 C 0.01606 0.54724 0.62475 0.0
C2654 C 0.02397 0.53635 0.62412 0.0
C2655 C 0.0194 0.52476 0.61076 0.0
H2656 H 0.01962 0.5562 0.63509 0.0
H2657 H 0.97295 0.44398 0.50942 0.0
H2658 H 0.79444 0.76999 0.9047 0.0
H2659 H 0.77779 0.77108 0.86146 0.0
H2660 H 0.76832 0.73118 0.87922 0.0
H2661 H 0.7853 0.72984 0.92134 0.0
H2662 H 0.76775 0.7361 0.81428 0.0
H2663 H 0.75056 0.75614 0.91358 0.0
H2664 H 0.75024 0.77166 0.96043 0.0
H2665 H 0.74983 0.80314 0.89046 0.0
H2666 H 0.75032 0.78779 0.84316 0.0
H2667 H 0.70477 0.7332 0.74825 0.0
H2668 H 0.72264 0.73373 0.78806 0.0
H2669 H 0.7324 0.77211 0.75536 0.0
H2670 H 0.7148 0.77155 0.71471 0.0
H2671 H 0.73331 0.76895 0.82559 0.0
H2672 H 0.74948 0.74849 0.72625 0.0
H2673 H 0.7493 0.7327 0.68003 0.0
H2674 H 0.75121 0.70166 0.75114 0.0
H2675 H 0.75119 0.71728 0.79784 0.0
C2676 C 0.78898 0.76137 0.89897 0.0
C2677 C 0.79114 0.74985 0.91673 0.0
C2678 C 0.77936 0.76206 0.8745 0.0
C2679 C 0.77163 0.75128 0.86754 0.0
C2680 C 0.77409 0.73965 0.88431 0.0
C2681 C 0.78374 0.73893 0.90862 0.0
C2682 C 0.76076 0.75213 0.84342 0.0
C2683 C 0.76017 0.74321 0.81699 0.0
C2684 C 0.75098 0.76158 0.84646 0.0
C2685 C 0.75062 0.77082 0.87485 0.0
C2686 C 0.7505 0.76637 0.90819 0.0
C2687 C 0.75027 0.77514 0.93483 0.0
C2688 C 0.75005 0.78838 0.92843 0.0
C2689 C 0.75002 0.79288 0.89538 0.0
C2690 C 0.75027 0.78415 0.86865 0.0
C2691 C 0.71072 0.74175 0.74939 0.0
C2692 C 0.70838 0.75229 0.72801 0.0
C2693 C 0.7209 0.74205 0.77227 0.0
C2694 C 0.72891 0.7529 0.77435 0.0
C2695 C 0.72631 0.76364 0.75412 0.0
C2696 C 0.71619 0.76332 0.73103 0.0
C2697 C 0.74026 0.75282 0.79686 0.0
C2698 C 0.74095 0.76189 0.82288 0.0
C2699 C 0.75009 0.74347 0.79358 0.0
C2700 C 0.75021 0.73406 0.76555 0.0
C2701 C 0.74975 0.7383 0.73204 0.0
C2702 C 0.7497 0.72938 0.70576 0.0
C2703 C 0.75021 0.71618 0.71265 0.0
C2704 C 0.7508 0.71188 0.74585 0.0
C2705 C 0.75083 0.72077 0.77223 0.0
H2706 H 0.75017 0.70929 0.69226 0.0
H2707 H 0.74988 0.79515 0.94908 0.0
H2708 H 0.51667 0.5465 0.14562 0.0
H2709 H 0.51721 0.52944 0.10311 0.0
H2710 H 0.48178 0.51387 0.14219 0.0
H2711 H 0.48106 0.53095 0.18426 0.0
H2712 H 0.50021 0.49542 0.13546 0.0
H2713 H 0.48206 0.52938 0.06835 0.0
H2714 H 0.48113 0.55106 0.04314 0.0
H2715 H 0.51692 0.54416 0.99249 0.0
H2716 H 0.51816 0.52248 0.01779 0.0
H2717 H 0.48468 0.45032 0.00784 0.0
H2718 H 0.48479 0.46816 0.04793 0.0
H2719 H 0.51928 0.48321 0.00227 0.0
H2720 H 0.51899 0.46566 0.96142 0.0
H2721 H 0.5022 0.50202 0.01229 0.0
H2722 H 0.52034 0.46807 0.07824 0.0
H2723 H 0.52157 0.44641 0.10354 0.0
H2724 H 0.48631 0.45332 0.15666 0.0
H2725 H 0.48477 0.47496 0.13131 0.0
C2726 C 0.50887 0.53959 0.14473 0.0
C2727 C 0.49888 0.54002 0.16852 0.0
C2728 C 0.50921 0.52982 0.12051 0.0
C2729 C 0.49955 0.52036 0.11958 0.0
C2730 C 0.48939 0.521 0.14265 0.0
C2731 C 0.48902 0.53076 0.16673 0.0
C2732 C 0.50026 0.50944 0.09559 0.0
C2733 C 0.50048 0.49685 0.10849 0.0
C2734 C 0.501 0.51133 0.0605 0.0
C2735 C 0.50027 0.52436 0.04527 0.0
C2736 C 0.48979 0.53253 0.05209 0.0
C2737 C 0.4892 0.54481 0.03773 0.0
C2738 C 0.49898 0.549 0.01631 0.0
C2739 C 0.50936 0.54091 0.00913 0.0
C2740 C 0.51001 0.52862 0.02346 0.0
C2741 C 0.4923 0.45742 0.00635 0.0
C2742 C 0.50186 0.45652 0.98149 0.0
C2743 C 0.4924 0.46756 0.02944 0.0
C2744 C 0.50211 0.47697 0.02828 0.0
C2745 C 0.51172 0.47604 0.00369 0.0
C2746 C 0.51162 0.46591 0.98059 0.0
C2747 C 0.50204 0.48797 0.05215 0.0
C2748 C 0.50196 0.50058 0.03925 0.0
C2749 C 0.50149 0.4861 0.08729 0.0
C2750 C 0.50238 0.47309 0.10261 0.0
C2751 C 0.51279 0.46493 0.0951 0.0
C2752 C 0.51356 0.45267 0.10949 0.0
C2753 C 0.50401 0.44848 0.13163 0.0
C2754 C 0.49369 0.45657 0.13948 0.0
C2755 C 0.49288 0.46884 0.12513 0.0
H2756 H 0.50462 0.43898 0.14275 0.0
H2757 H 0.4985 0.55851 0.0052 0.0
H2758 H 0.80418 0.24956 0.26366 0.0
H2759 H 0.7872 0.24855 0.3063 0.0
H2760 H 0.75848 0.24711 0.22814 0.0
H2761 H 0.77537 0.2486 0.18572 0.0
H2762 H 0.7508 0.26288 0.27271 0.0
H2763 H 0.76758 0.22003 0.27727 0.0
H2764 H 0.78415 0.20316 0.28269 0.0
H2765 H 0.79327 0.21655 0.38182 0.0
H2766 H 0.77687 0.23363 0.37681 0.0
H2767 H 0.69866 0.24376 0.37882 0.0
H2768 H 0.71575 0.24271 0.33632 0.0
H2769 H 0.74381 0.25325 0.41113 0.0
H2770 H 0.7268 0.25439 0.45357 0.0
H2771 H 0.75145 0.23235 0.36849 0.0
H2772 H 0.7342 0.27558 0.36125 0.0
H2773 H 0.71682 0.29155 0.35455 0.0
H2774 H 0.70764 0.27584 0.25779 0.0
H2775 H 0.72485 0.25964 0.26415 0.0
C2776 C 0.79423 0.24896 0.25572 0.0
C2777 C 0.79107 0.24923 0.22147 0.0
C2778 C 0.78453 0.24832 0.28005 0.0
C2779 C 0.77152 0.24761 0.27052 0.0
C2780 C 0.76841 0.24771 0.23622 0.0
C2781 C 0.77807 0.24856 0.21199 0.0
C2782 C 0.76108 0.24721 0.2961 0.0
C2783 C 0.75089 0.25605 0.29331 0.0
C2784 C 0.76121 0.23845 0.32341 0.0
C2785 C 0.77108 0.22819 0.32653 0.0
C2786 C 0.77318 0.21944 0.30012 0.0
C2787 C 0.78254 0.20983 0.30314 0.0
C2788 C 0.78978 0.2088 0.33255 0.0
C2789 C 0.78767 0.21737 0.35904 0.0
C2790 C 0.77833 0.22701 0.35614 0.0
C2791 C 0.70849 0.24578 0.38616 0.0
C2792 C 0.71141 0.24926 0.41938 0.0
C2793 C 0.71821 0.24521 0.36191 0.0
C2794 C 0.73102 0.24796 0.37061 0.0
C2795 C 0.73399 0.2511 0.40394 0.0
C2796 C 0.72426 0.25185 0.42805 0.0
C2797 C 0.74129 0.24796 0.3448 0.0
C2798 C 0.75141 0.23909 0.34767 0.0
C2799 C 0.74101 0.25653 0.31726 0.0
C2800 C 0.73072 0.26632 0.31334 0.0
C2801 C 0.7284 0.27546 0.33867 0.0
C2802 C 0.7186 0.28457 0.33491 0.0
C2803 C 0.71111 0.28469 0.3058 0.0
C2804 C 0.71343 0.27572 0.28035 0.0
C2805 C 0.72322 0.26658 0.28401 0.0
H2806 H 0.70352 0.29174 0.30293 0.0
H2807 H 0.79702 0.20135 0.33483 0.0
H2808 H 0.27688 0.235 0.44795 0.0
H2809 H 0.26016 0.23532 0.40514 0.0
H2810 H 0.2831 0.26115 0.34503 0.0
H2811 H 0.29961 0.26146 0.38869 0.0
H2812 H 0.25905 0.26907 0.34612 0.0
H2813 H 0.27969 0.22839 0.32591 0.0
H2814 H 0.28817 0.20695 0.34088 0.0
H2815 H 0.2504 0.19479 0.37081 0.0
H2816 H 0.24172 0.21623 0.35643 0.0
H2817 H 0.2241 0.2626 0.19463 0.0
H2818 H 0.24052 0.26224 0.23829 0.0
H2819 H 0.21661 0.23735 0.29851 0.0
H2820 H 0.2003 0.23723 0.25419 0.0
H2821 H 0.2409 0.22893 0.29781 0.0
H2822 H 0.22026 0.26958 0.31733 0.0
H2823 H 0.21183 0.29102 0.30209 0.0
H2824 H 0.2497 0.30318 0.27311 0.0
H2825 H 0.25834 0.28176 0.28776 0.0
C2826 C 0.27836 0.24085 0.42578 0.0
C2827 C 0.28962 0.24825 0.42193 0.0
C2828 C 0.26883 0.24088 0.40107 0.0
C2829 C 0.27041 0.24813 0.3716 0.0
C2830 C 0.28167 0.25545 0.3675 0.0
C2831 C 0.29118 0.2555 0.39236 0.0
C2832 C 0.26017 0.24833 0.34551 0.0
C2833 C 0.25522 0.26029 0.3352 0.0
C2834 C 0.2549 0.23688 0.33189 0.0
C2835 C 0.26008 0.22396 0.34037 0.0
C2836 C 0.27321 0.22118 0.33591 0.0
C2837 C 0.27805 0.20902 0.34425 0.0
C2838 C 0.26983 0.19952 0.35686 0.0
C2839 C 0.25675 0.20216 0.36107 0.0
C2840 C 0.25187 0.21431 0.35279 0.0
C2841 C 0.22234 0.25697 0.21704 0.0
C2842 C 0.21088 0.2499 0.2208 0.0
C2843 C 0.2317 0.2569 0.24219 0.0
C2844 C 0.22976 0.24989 0.27189 0.0
C2845 C 0.21831 0.24287 0.27585 0.0
C2846 C 0.20894 0.2429 0.25062 0.0
C2847 C 0.23983 0.24965 0.29837 0.0
C2848 C 0.24474 0.2377 0.30876 0.0
C2849 C 0.24508 0.26111 0.31202 0.0
C2850 C 0.23992 0.27402 0.30337 0.0
C2851 C 0.22677 0.2768 0.30748 0.0
C2852 C 0.22196 0.28895 0.29899 0.0
C2853 C 0.23022 0.29844 0.28657 0.0
C2854 C 0.24332 0.29582 0.2827 0.0
C2855 C 0.24818 0.28367 0.29113 0.0
H2856 H 0.22647 0.30785 0.28 0.0
H2857 H 0.2736 0.19012 0.36332 0.0
H2858 H 0.30173 0.74727 0.76324 0.0
H2859 H 0.28468 0.74632 0.80557 0.0
H2860 H 0.25603 0.7498 0.72779 0.0
H2861 H 0.27296 0.75065 0.68545 0.0
H2862 H 0.25095 0.76582 0.77882 0.0
H2863 H 0.26152 0.72108 0.76622 0.0
H2864 H 0.27579 0.70211 0.76477 0.0
H2865 H 0.28639 0.70868 0.86749 0.0
H2866 H 0.27232 0.72782 0.86941 0.0
H2867 H 0.19664 0.75159 0.88065 0.0
H2868 H 0.21305 0.75035 0.83668 0.0
H2869 H 0.24254 0.74642 0.91214 0.0
H2870 H 0.2262 0.74719 0.95603 0.0
H2871 H 0.24685 0.73023 0.86131 0.0
H2872 H 0.23692 0.77531 0.87336 0.0
H2873 H 0.22275 0.79436 0.87498 0.0
H2874 H 0.21107 0.78717 0.77333 0.0
H2875 H 0.22506 0.76797 0.77126 0.0
C2876 C 0.2918 0.7477 0.75514 0.0
C2877 C 0.28872 0.74911 0.72097 0.0
C2878 C 0.28206 0.74717 0.77935 0.0
C2879 C 0.26907 0.74792 0.76982 0.0
C2880 C 0.26599 0.74926 0.73574 0.0
C2881 C 0.27569 0.74981 0.71158 0.0
C2882 C 0.25866 0.74761 0.79534 0.0
C2883 C 0.24995 0.75794 0.79655 0.0
C2884 C 0.2575 0.73747 0.81892 0.0
C2885 C 0.26596 0.72596 0.81785 0.0
C2886 C 0.26698 0.71855 0.78841 0.0
C2887 C 0.27501 0.70775 0.78752 0.0
C2888 C 0.28202 0.70421 0.81599 0.0
C2889 C 0.28097 0.71144 0.84544 0.0
C2890 C 0.27296 0.72226 0.84645 0.0
C2891 C 0.2066 0.75033 0.88785 0.0
C2892 C 0.21012 0.74964 0.92188 0.0
C2893 C 0.21599 0.74972 0.86271 0.0
C2894 C 0.22905 0.74847 0.87114 0.0
C2895 C 0.23254 0.74745 0.90503 0.0
C2896 C 0.22318 0.74803 0.93012 0.0
C2897 C 0.23917 0.74845 0.84482 0.0
C2898 C 0.24783 0.73808 0.84348 0.0
C2899 C 0.2403 0.75856 0.82113 0.0
C2900 C 0.23193 0.77013 0.82228 0.0
C2901 C 0.23126 0.77773 0.85144 0.0
C2902 C 0.22327 0.78857 0.85243 0.0
C2903 C 0.21599 0.79195 0.82431 0.0
C2904 C 0.2167 0.78453 0.79511 0.0
C2905 C 0.22467 0.77367 0.79401 0.0
H2906 H 0.20981 0.80034 0.82512 0.0
H2907 H 0.28823 0.69584 0.81525 0.0
H2908 H 0.50385 0.94786 0.13241 0.0
H2909 H 0.50324 0.96438 0.08859 0.0
H2910 H 0.48741 0.99158 0.1593 0.0
H2911 H 0.48754 0.97501 0.20279 0.0
H2912 H 0.47598 0.99423 0.10024 0.0
H2913 H 0.51936 0.99184 0.13968 0.0
H2914 H 0.5399 0.98131 0.15403 0.0
H2915 H 0.54471 0.96962 0.05143 0.0
H2916 H 0.52409 0.97992 0.03656 0.0
H2917 H 0.49468 0.05202 0.01179 0.0
H2918 H 0.49267 0.03503 0.05414 0.0
H2919 H 0.50181 0.00636 0.97962 0.0
H2920 H 0.50318 0.02305 0.93685 0.0
H2921 H 0.51654 0.00471 0.04057 0.0
H2922 H 0.47274 0.0079 0.00211 0.0
H2923 H 0.45246 0.0192 0.98935 0.0
H2924 H 0.44894 0.0305 0.0926 0.0
H2925 H 0.46932 0.01942 0.10588 0.0
C2926 C 0.50006 0.9573 0.13849 0.0
C2927 C 0.49588 0.96015 0.17121 0.0
C2928 C 0.49982 0.96677 0.1135 0.0
C2929 C 0.49549 0.9793 0.12081 0.0
C2930 C 0.49087 0.98202 0.15311 0.0
C2931 C 0.49107 0.97256 0.17803 0.0
C2932 C 0.49612 0.98968 0.09518 0.0
C2933 C 0.48489 0.99661 0.08748 0.0
C2934 C 0.5077 0.99273 0.07825 0.0
C2935 C 0.52011 0.98653 0.08708 0.0
C2936 C 0.52474 0.98693 0.12023 0.0
C2937 C 0.53641 0.98102 0.12845 0.0
C2938 C 0.54359 0.97477 0.10368 0.0
C2939 C 0.53913 0.97444 0.07061 0.0
C2940 C 0.52746 0.98032 0.06226 0.0
C2941 C 0.49607 0.0421 0.00422 0.0
C2942 C 0.49923 0.03899 0.9708 0.0
C2943 C 0.49499 0.03241 0.02853 0.0
C2944 C 0.49714 0.01946 0.01996 0.0
C2945 C 0.50022 0.01631 0.98676 0.0
C2946 C 0.50111 0.02593 0.96239 0.0
C2947 C 0.49642 0.00916 0.04563 0.0
C2948 C 0.50765 0.00229 0.05336 0.0
C2949 C 0.48488 0.00629 0.06283 0.0
C2950 C 0.47264 0.01296 0.0549 0.0
C2951 C 0.46772 0.01291 0.02203 0.0
C2952 C 0.45619 0.01924 0.01472 0.0
C2953 C 0.44944 0.0256 0.04013 0.0
C2954 C 0.45419 0.02559 0.07293 0.0
C2955 C 0.46573 0.01928 0.08037 0.0
H2956 H 0.44051 0.03049 0.03442 0.0
H2957 H 0.55262 0.9702 0.11009 0.0
H2958 H 0.01985 0.04069 0.66263 0.0
H2959 H 0.02052 0.02324 0.62141 0.0
H2960 H 0.9791 0.02114 0.62256 0.0
H2961 H 0.97832 0.03871 0.66333 0.0
H2962 H 0.99012 0.99747 0.62973 0.0
H2963 H 0.99469 0.03409 0.55637 0.0
H2964 H 0.00454 0.05426 0.5361 0.0
H2965 H 0.0405 0.03471 0.52149 0.0
H2966 H 0.03091 0.01445 0.54213 0.0
H2967 H 0.97842 0.95829 0.48759 0.0
H2968 H 0.97944 0.97549 0.52934 0.0
H2969 H 0.02074 0.97669 0.51949 0.0
H2970 H 0.01975 0.95976 0.47683 0.0
H2971 H 0.01094 0.00045 0.51799 0.0
H2972 H 0.00661 0.96378 0.58922 0.0
H2973 H 0.9972 0.94348 0.61 0.0
H2974 H 0.96148 0.96283 0.62966 0.0
H2975 H 0.97062 0.98322 0.60854 0.0
C2976 C 0.01086 0.0367 0.65364 0.0
C2977 C 0.99902 0.04111 0.66638 0.0
C2978 C 0.01127 0.02668 0.63017 0.0
C2979 C 0.99985 0.02089 0.61889 0.0
C2980 C 0.98803 0.02541 0.63109 0.0
C2981 C 0.98761 0.03544 0.65445 0.0
C2982 C 0.00021 0.00984 0.59521 0.0
C2983 C 0.99453 0.99816 0.60512 0.0
C2984 C 0.00634 0.01062 0.56357 0.0
C2985 C 0.01212 0.02279 0.55114 0.0
C2986 C 0.00473 0.03412 0.54912 0.0
C2987 C 0.01026 0.04556 0.5375 0.0
C2988 C 0.02315 0.04577 0.52761 0.0
C2989 C 0.03053 0.03453 0.52922 0.0
C2990 C 0.02505 0.02306 0.54085 0.0
C2991 C 0.98773 0.9622 0.49432 0.0
C2992 C 0.999 0.95764 0.47883 0.0
C2993 C 0.98831 0.97196 0.51842 0.0
C2994 C 0.00018 0.97733 0.52778 0.0
C2995 C 0.01148 0.97268 0.51273 0.0
C2996 C 0.0109 0.96291 0.48859 0.0
C2997 C 0.00072 0.9881 0.55234 0.0
C2998 C 0.00657 0.99972 0.54265 0.0
C2999 C 0.99482 0.98725 0.58429 0.0
C3000 C 0.98927 0.97501 0.59699 0.0
C3001 C 0.99672 0.96369 0.59771 0.0
C3002 C 0.99143 0.95217 0.6096 0.0
C3003 C 0.97874 0.95186 0.62107 0.0
C3004 C 0.97131 0.96308 0.62073 0.0
C3005 C 0.97654 0.97463 0.60883 0.0
H3006 H 0.97467 0.94293 0.63028 0.0
H3007 H 0.02741 0.05464 0.51861 0.0
loop_
_geom_bond_atom_site_label_1
_geom_bond_atom_site_label_2
_geom_bond_distance
_geom_bond_site_symmetry_2
_ccdc_geom_bond_type
Li0 N17 1.990 . S
Li0 O60 1.919 1_655 S
Li0 O61 1.992 . S
Li0 O62 1.961 . S
Li1 N25 1.990 . S
Li1 O60 2.005 . S
Li1 O61 1.933 1_455 S
Li1 O63 1.961 . S
Li2 N47 1.992 . S
Li2 O60 1.958 1_655 S
Li2 O62 1.983 . S
Li2 O63 1.941 1_655 S
Li3 N53 1.994 . S
Li3 O61 1.958 1_455 S
Li3 O62 1.926 1_455 S
Li3 O63 1.998 . S
C4 C6 1.348 . S
C4 C7 1.356 1_455 S
C4 O60 1.324 . S
N5 C8 1.314 1_655 S
N5 C9 1.279 . S
C6 C4 1.348 . S
C6 C8 1.353 . S
C6 H64 0.929 . S
C7 C4 1.356 1_655 S
C7 C9 1.358 . S
C7 H65 0.930 . S
C8 N5 1.314 1_455 S
C8 C6 1.353 . S
C8 H66 0.930 . S
C9 N5 1.279 . S
C9 C7 1.358 . S
C9 H67 0.930 . S
C10 C13 1.348 1_455 S
C10 C14 1.356 . S
C10 O61 1.324 1_455 S
C11 N12 1.279 . S
C11 C14 1.358 . S
C11 H68 0.930 . S
N12 C11 1.279 . S
N12 C15 1.314 1_455 S
C13 C10 1.348 1_655 S
C13 C15 1.353 . S
C13 H69 0.929 . S
C14 C10 1.356 . S
C14 C11 1.358 . S
C14 H70 0.930 . S
C15 N12 1.314 1_655 S
C15 C13 1.353 . S
C15 H71 0.930 . S
C16 N17 1.314 . S
C16 C21 1.353 . S
C16 H22 0.930 . S
N17 Li0 1.990 . S
N17 C16 1.314 . S
N17 C19 1.279 . S
C18 C19 1.358 . S
C18 C20 1.356 . S
C18 H72 0.930 . S
C19 N17 1.279 . S
C19 C18 1.358 . S
C19 H23 0.930 . S
C20 C18 1.356 . S
C20 C21 1.348 . S
C21 C16 1.353 . S
C21 C20 1.348 . S
C21 H73 0.929 . S
H22 C16 0.930 . S
H23 C19 0.930 . S
C24 N25 1.314 . S
C24 C26 1.353 . S
C24 H30 0.930 . S
N25 Li1 1.990 . S
N25 C24 1.314 . S
N25 C28 1.279 . S
C26 C24 1.353 . S
C26 C29 1.348 . S
C26 H74 0.929 . S
C27 C28 1.358 . S
C27 C29 1.356 . S
C27 H75 0.930 . S
C28 N25 1.279 . S
C28 C27 1.358 . S
C28 H31 0.930 . S
C29 C26 1.348 . S
C29 C27 1.356 . S
H30 C24 0.930 . S
H31 C28 0.930 . S
C32 C34 1.348 . S
C32 C35 1.356 . S
C32 O62 1.325 . S
N33 C36 1.314 . S
N33 C37 1.279 . S
C34 C32 1.348 . S
C34 C36 1.353 . S
C34 H76 0.929 . S
C35 C32 1.356 . S
C35 C37 1.358 . S
C35 H77 0.930 . S
C36 N33 1.314 . S
C36 C34 1.353 . S
C36 H78 0.930 . S
C37 N33 1.279 . S
C37 C35 1.358 . S
C37 H79 0.930 . S
C38 C39 1.348 . S
C38 C40 1.356 . S
C38 O63 1.325 . S
C39 C38 1.348 . S
C39 C41 1.353 . S
C39 H80 0.929 . S
C40 C38 1.356 . S
C40 C42 1.358 . S
C40 H81 0.930 . S
C41 C39 1.353 . S
C41 N43 1.314 . S
C41 H82 0.930 . S
C42 C40 1.358 . S
C42 N43 1.279 . S
C42 H83 0.930 . S
N43 C41 1.314 . S
N43 C42 1.279 . S
C44 C46 1.353 . S
C44 N47 1.314 1_455 S
C44 H50 0.930 . S
C45 N47 1.279 . S
C45 C48 1.358 . S
C45 H51 0.930 . S
C46 C44 1.353 . S
C46 C49 1.348 . S
C46 H84 0.929 . S
N47 Li2 1.992 . S
N47 C44 1.314 1_655 S
N47 C45 1.279 . S
C48 C45 1.358 . S
C48 C49 1.356 1_655 S
C48 H85 0.930 . S
C49 C46 1.348 . S
C49 C48 1.356 1_455 S
H50 C44 0.930 . S
H51 C45 0.930 . S
C52 N53 1.314 1_655 S
C52 C54 1.353 . S
C52 H58 0.930 . S
N53 Li3 1.994 . S
N53 C52 1.314 1_455 S
N53 C56 1.279 . S
C54 C52 1.353 . S
C54 C57 1.348 1_655 S
C54 H86 0.929 . S
C55 C56 1.358 . S
C55 C57 1.356 . S
C55 H87 0.930 . S
C56 N53 1.279 . S
C56 C55 1.358 . S
C56 H59 0.930 . S
C57 C54 1.348 1_455 S
C57 C55 1.356 . S
H58 C52 0.930 . S
H59 C56 0.930 . S
O60 Li0 1.919 1_455 S
O60 Li1 2.005 . S
O60 Li2 1.958 1_455 S
O60 C4 1.324 . S
O61 Li0 1.992 . S
O61 Li1 1.933 1_655 S
O61 Li3 1.958 1_655 S
O61 C10 1.324 1_655 S
O62 Li0 1.961 . S
O62 Li2 1.983 . S
O62 Li3 1.926 1_655 S
O62 C32 1.325 . S
O63 Li1 1.961 . S
O63 Li2 1.941 1_455 S
O63 Li3 1.998 . S
O63 C38 1.325 . S
H64 C6 0.929 . S
H65 C7 0.930 . S
H66 C8 0.930 . S
H67 C9 0.930 . S
H68 C11 0.930 . S
H69 C13 0.929 . S
H70 C14 0.930 . S
H71 C15 0.930 . S
H72 C18 0.930 . S
H73 C21 0.929 . S
H74 C26 0.929 . S
H75 C27 0.930 . S
H76 C34 0.929 . S
H77 C35 0.930 . S
H78 C36 0.930 . S
H79 C37 0.930 . S
H80 C39 0.929 . S
H81 C40 0.930 . S
H82 C41 0.930 . S
H83 C42 0.930 . S
H84 C46 0.929 . S
H85 C48 0.930 . S
H86 C54 0.929 . S
H87 C55 0.930 . S
Li88 N105 1.990 . S
Li88 O148 1.956 . S
Li88 O149 1.970 . S
Li88 O150 1.961 . S
Li89 N113 1.990 . S
Li89 O148 1.970 . S
Li89 O149 1.956 . S
Li89 O151 1.961 . S
Li90 N135 1.990 . S
Li90 O148 1.961 . S
Li90 O150 1.956 . S
Li90 O151 1.970 . S
Li91 N141 1.990 . S
Li91 O149 1.961 . S
Li91 O150 1.970 . S
Li91 O151 1.956 . S
C92 C94 1.348 . S
C92 C95 1.356 . S
C92 O148 1.325 . S
N93 C96 1.314 . S
N93 C97 1.279 . S
C94 C92 1.348 . S
C94 C96 1.353 . S
C94 H152 0.929 . S
C95 C92 1.356 . S
C95 C97 1.358 . S
C95 H153 0.930 . S
C96 N93 1.314 . S
C96 C94 1.353 . S
C96 H154 0.930 . S
C97 N93 1.279 . S
C97 C95 1.358 . S
C97 H155 0.930 . S
C98 C101 1.348 . S
C98 C102 1.356 . S
C98 O149 1.325 . S
C99 N100 1.279 . S
C99 C102 1.358 . S
C99 H156 0.930 . S
N100 C99 1.279 . S
N100 C103 1.314 . S
C101 C98 1.348 . S
C101 C103 1.353 . S
C101 H157 0.929 . S
C102 C98 1.356 . S
C102 C99 1.358 . S
C102 H158 0.930 . S
C103 N100 1.314 . S
C103 C101 1.353 . S
C103 H159 0.930 . S
C104 N105 1.314 . S
C104 C109 1.353 . S
C104 H110 0.930 . S
N105 Li88 1.990 . S
N105 C104 1.314 . S
N105 C107 1.279 . S
C106 C107 1.358 . S
C106 C108 1.356 . S
C106 H160 0.930 . S
C107 N105 1.279 . S
C107 C106 1.358 . S
C107 H111 0.930 . S
C108 C106 1.356 . S
C108 C109 1.348 . S
C109 C104 1.353 . S
C109 C108 1.348 . S
C109 H161 0.929 . S
H110 C104 0.930 . S
H111 C107 0.930 . S
C112 N113 1.314 . S
C112 C114 1.353 . S
C112 H118 0.930 . S
N113 Li89 1.990 . S
N113 C112 1.314 . S
N113 C116 1.279 . S
C114 C112 1.353 . S
C114 C117 1.348 . S
C114 H162 0.929 . S
C115 C116 1.358 . S
C115 C117 1.356 . S
C115 H163 0.930 . S
C116 N113 1.279 . S
C116 C115 1.358 . S
C116 H119 0.930 . S
C117 C114 1.348 . S
C117 C115 1.356 . S
H118 C112 0.930 . S
H119 C116 0.930 . S
C120 C122 1.348 . S
C120 C123 1.356 . S
C120 O150 1.325 . S
N121 C124 1.314 . S
N121 C125 1.279 . S
C122 C120 1.348 . S
C122 C124 1.353 . S
C122 H164 0.929 . S
C123 C120 1.356 . S
C123 C125 1.358 . S
C123 H165 0.930 . S
C124 N121 1.314 . S
C124 C122 1.353 . S
C124 H166 0.930 . S
C125 N121 1.279 . S
C125 C123 1.358 . S
C125 H167 0.930 . S
C126 C127 1.348 . S
C126 C128 1.356 . S
C126 O151 1.325 . S
C127 C126 1.348 . S
C127 C129 1.353 . S
C127 H168 0.929 . S
C128 C126 1.356 . S
C128 C130 1.358 . S
C128 H169 0.930 . S
C129 C127 1.353 . S
C129 N131 1.314 . S
C129 H170 0.930 . S
C130 C128 1.358 . S
C130 N131 1.279 . S
C130 H171 0.930 . S
N131 C129 1.314 . S
N131 C130 1.279 . S
C132 C134 1.353 . S
C132 N135 1.314 . S
C132 H138 0.930 . S
C133 N135 1.279 . S
C133 C136 1.358 . S
C133 H139 0.930 . S
C134 C132 1.353 . S
C134 C137 1.348 . S
C134 H172 0.929 . S
N135 Li90 1.990 . S
N135 C132 1.314 . S
N135 C133 1.279 . S
C136 C133 1.358 . S
C136 C137 1.356 . S
C136 H173 0.930 . S
C137 C134 1.348 . S
C137 C136 1.356 . S
H138 C132 0.930 . S
H139 C133 0.930 . S
C140 N141 1.314 . S
C140 C142 1.353 . S
C140 H146 0.930 . S
N141 Li91 1.990 . S
N141 C140 1.314 . S
N141 C144 1.279 . S
C142 C140 1.353 . S
C142 C145 1.348 . S
C142 H174 0.929 . S
C143 C144 1.358 . S
C143 C145 1.356 . S
C143 H175 0.930 . S
C144 N141 1.279 . S
C144 C143 1.358 . S
C144 H147 0.930 . S
C145 C142 1.348 . S
C145 C143 1.356 . S
H146 C140 0.930 . S
H147 C144 0.930 . S
O148 Li88 1.956 . S
O148 Li89 1.970 . S
O148 Li90 1.961 . S
O148 C92 1.325 . S
O149 Li88 1.970 . S
O149 Li89 1.956 . S
O149 Li91 1.961 . S
O149 C98 1.325 . S
O150 Li88 1.961 . S
O150 Li90 1.956 . S
O150 Li91 1.970 . S
O150 C120 1.325 . S
O151 Li89 1.961 . S
O151 Li90 1.970 . S
O151 Li91 1.956 . S
O151 C126 1.325 . S
H152 C94 0.929 . S
H153 C95 0.930 . S
H154 C96 0.930 . S
H155 C97 0.930 . S
H156 C99 0.930 . S
H157 C101 0.929 . S
H158 C102 0.930 . S
H159 C103 0.930 . S
H160 C106 0.930 . S
H161 C109 0.929 . S
H162 C114 0.929 . S
H163 C115 0.930 . S
H164 C122 0.929 . S
H165 C123 0.930 . S
H166 C124 0.930 . S
H167 C125 0.930 . S
H168 C127 0.929 . S
H169 C128 0.930 . S
H170 C129 0.930 . S
H171 C130 0.930 . S
H172 C134 0.929 . S
H173 C136 0.930 . S
H174 C142 0.929 . S
H175 C143 0.930 . S
Li176 N193 1.990 . S
Li176 O236 1.956 . S
Li176 O237 1.970 . S
Li176 O238 1.961 . S
Li177 N201 1.990 . S
Li177 O236 1.970 . S
Li177 O237 1.956 . S
Li177 O239 1.961 . S
Li178 N223 1.990 . S
Li178 O236 1.961 . S
Li178 O238 1.956 . S
Li178 O239 1.970 . S
Li179 N229 1.990 . S
Li179 O237 1.961 . S
Li179 O238 1.970 . S
Li179 O239 1.956 . S
C180 C182 1.348 . S
C180 C183 1.356 . S
C180 O236 1.325 . S
N181 C184 1.314 . S
N181 C185 1.279 . S
C182 C180 1.348 . S
C182 C184 1.353 . S
C182 H240 0.929 . S
C183 C180 1.356 . S
C183 C185 1.358 . S
C183 H241 0.930 . S
C184 N181 1.314 . S
C184 C182 1.353 . S
C184 H242 0.930 . S
C185 N181 1.279 . S
C185 C183 1.358 . S
C185 H243 0.930 . S
C186 C189 1.348 . S
C186 C190 1.356 . S
C186 O237 1.325 . S
C187 N188 1.279 . S
C187 C190 1.358 . S
C187 H244 0.930 . S
N188 C187 1.279 . S
N188 C191 1.314 . S
C189 C186 1.348 . S
C189 C191 1.353 . S
C189 H245 0.929 . S
C190 C186 1.356 . S
C190 C187 1.358 . S
C190 H246 0.930 . S
C191 N188 1.314 . S
C191 C189 1.353 . S
C191 H247 0.930 . S
C192 N193 1.314 . S
C192 C197 1.353 . S
C192 H198 0.930 . S
N193 Li176 1.990 . S
N193 C192 1.314 . S
N193 C195 1.279 . S
C194 C195 1.358 . S
C194 C196 1.356 . S
C194 H248 0.930 . S
C195 N193 1.279 . S
C195 C194 1.358 . S
C195 H199 0.930 . S
C196 C194 1.356 . S
C196 C197 1.348 . S
C197 C192 1.353 . S
C197 C196 1.348 . S
C197 H249 0.929 . S
H198 C192 0.930 . S
H199 C195 0.930 . S
C200 N201 1.314 . S
C200 C202 1.353 . S
C200 H206 0.930 . S
N201 Li177 1.990 . S
N201 C200 1.314 . S
N201 C204 1.279 . S
C202 C200 1.353 . S
C202 C205 1.348 . S
C202 H250 0.929 . S
C203 C204 1.358 . S
C203 C205 1.356 . S
C203 H251 0.930 . S
C204 N201 1.279 . S
C204 C203 1.358 . S
C204 H207 0.930 . S
C205 C202 1.348 . S
C205 C203 1.356 . S
H206 C200 0.930 . S
H207 C204 0.930 . S
C208 C210 1.348 . S
C208 C211 1.356 . S
C208 O238 1.325 . S
N209 C212 1.314 . S
N209 C213 1.279 . S
C210 C208 1.348 . S
C210 C212 1.353 . S
C210 H252 0.929 . S
C211 C208 1.356 . S
C211 C213 1.358 . S
C211 H253 0.930 . S
C212 N209 1.314 . S
C212 C210 1.353 . S
C212 H254 0.930 . S
C213 N209 1.279 . S
C213 C211 1.358 . S
C213 H255 0.930 . S
C214 C215 1.348 . S
C214 C216 1.356 . S
C214 O239 1.325 . S
C215 C214 1.348 . S
C215 C217 1.353 . S
C215 H256 0.929 . S
C216 C214 1.356 . S
C216 C218 1.358 . S
C216 H257 0.930 . S
C217 C215 1.353 . S
C217 N219 1.314 . S
C217 H258 0.930 . S
C218 C216 1.358 . S
C218 N219 1.279 . S
C218 H259 0.930 . S
N219 C217 1.314 . S
N219 C218 1.279 . S
C220 C222 1.353 . S
C220 N223 1.314 . S
C220 H226 0.930 . S
C221 N223 1.279 . S
C221 C224 1.358 . S
C221 H227 0.930 . S
C222 C220 1.353 . S
C222 C225 1.348 . S
C222 H260 0.929 . S
N223 Li178 1.990 . S
N223 C220 1.314 . S
N223 C221 1.279 . S
C224 C221 1.358 . S
C224 C225 1.356 . S
C224 H261 0.930 . S
C225 C222 1.348 . S
C225 C224 1.356 . S
H226 C220 0.930 . S
H227 C221 0.930 . S
C228 N229 1.314 . S
C228 C230 1.353 . S
C228 H234 0.930 . S
N229 Li179 1.990 . S
N229 C228 1.314 . S
N229 C232 1.279 . S
C230 C228 1.353 . S
C230 C233 1.348 . S
C230 H262 0.929 . S
C231 C232 1.358 . S
C231 C233 1.356 . S
C231 H263 0.930 . S
C232 N229 1.279 . S
C232 C231 1.358 . S
C232 H235 0.930 . S
C233 C230 1.348 . S
C233 C231 1.356 . S
H234 C228 0.930 . S
H235 C232 0.930 . S
O236 Li176 1.956 . S
O236 Li177 1.970 . S
O236 Li178 1.961 . S
O236 C180 1.325 . S
O237 Li176 1.970 . S
O237 Li177 1.956 . S
O237 Li179 1.961 . S
O237 C186 1.325 . S
O238 Li176 1.961 . S
O238 Li178 1.956 . S
O238 Li179 1.970 . S
O238 C208 1.325 . S
O239 Li177 1.961 . S
O239 Li178 1.970 . S
O239 Li179 1.956 . S
O239 C214 1.325 . S
H240 C182 0.929 . S
H241 C183 0.930 . S
H242 C184 0.930 . S
H243 C185 0.930 . S
H244 C187 0.930 . S
H245 C189 0.929 . S
H246 C190 0.930 . S
H247 C191 0.930 . S
H248 C194 0.930 . S
H249 C197 0.929 . S
H250 C202 0.929 . S
H251 C203 0.930 . S
H252 C210 0.929 . S
H253 C211 0.930 . S
H254 C212 0.930 . S
H255 C213 0.930 . S
H256 C215 0.929 . S
H257 C216 0.930 . S
H258 C217 0.930 . S
H259 C218 0.930 . S
H260 C222 0.929 . S
H261 C224 0.930 . S
H262 C230 0.929 . S
H263 C231 0.930 . S
Li264 N281 1.990 . S
Li264 O324 1.956 . S
Li264 O325 1.970 . S
Li264 O326 1.961 . S
Li265 N289 1.990 . S
Li265 O324 1.970 . S
Li265 O325 1.956 . S
Li265 O327 1.961 1_554 S
Li266 N311 1.990 . S
Li266 O324 1.961 . S
Li266 O326 1.956 . S
Li266 O327 1.970 1_554 S
Li267 N317 1.990 . S
Li267 O325 1.961 1_556 S
Li267 O326 1.970 1_556 S
Li267 O327 1.956 . S
C268 C270 1.348 . S
C268 C271 1.356 . S
C268 O324 1.325 . S
N269 C272 1.314 . S
N269 C273 1.279 . S
C270 C268 1.348 . S
C270 C272 1.353 . S
C270 H328 0.929 . S
C271 C268 1.356 . S
C271 C273 1.358 . S
C271 H329 0.930 . S
C272 N269 1.314 . S
C272 C270 1.353 . S
C272 H330 0.930 . S
C273 N269 1.279 . S
C273 C271 1.358 . S
C273 H331 0.930 . S
C274 C277 1.348 . S
C274 C278 1.356 . S
C274 O325 1.325 . S
C275 N276 1.279 . S
C275 C278 1.358 . S
C275 H332 0.930 1_554 S
N276 C275 1.279 . S
N276 C279 1.314 . S
C277 C274 1.348 . S
C277 C279 1.353 . S
C277 H333 0.929 . S
C278 C274 1.356 . S
C278 C275 1.358 . S
C278 H334 0.930 1_554 S
C279 N276 1.314 . S
C279 C277 1.353 . S
C279 H335 0.930 . S
C280 N281 1.314 . S
C280 C285 1.353 . S
C280 H286 0.930 . S
N281 Li264 1.990 . S
N281 C280 1.314 . S
N281 C283 1.279 . S
C282 C283 1.358 . S
C282 C284 1.356 . S
C282 H336 0.930 . S
C283 N281 1.279 . S
C283 C282 1.358 . S
C283 H287 0.930 . S
C284 C282 1.356 . S
C284 C285 1.348 . S
C285 C280 1.353 . S
C285 C284 1.348 . S
C285 H337 0.929 . S
H286 C280 0.930 . S
H287 C283 0.930 . S
C288 N289 1.314 1_556 S
C288 C290 1.353 . S
C288 H294 0.930 . S
N289 Li265 1.990 . S
N289 C288 1.314 1_554 S
N289 C292 1.279 . S
C290 C288 1.353 . S
C290 C293 1.348 1_556 S
C290 H338 0.929 . S
C291 C292 1.358 . S
C291 C293 1.356 . S
C291 H339 0.930 . S
C292 N289 1.279 . S
C292 C291 1.358 . S
C292 H295 0.930 . S
C293 C290 1.348 1_554 S
C293 C291 1.356 . S
H294 C288 0.930 . S
H295 C292 0.930 . S
C296 C298 1.348 . S
C296 C299 1.356 . S
C296 O326 1.325 . S
N297 C300 1.314 . S
N297 C301 1.279 . S
C298 C296 1.348 . S
C298 C300 1.353 . S
C298 H340 0.929 1_554 S
C299 C296 1.356 . S
C299 C301 1.358 . S
C299 H341 0.930 . S
C300 N297 1.314 . S
C300 C298 1.353 . S
C300 H342 0.930 1_554 S
C301 N297 1.279 . S
C301 C299 1.358 . S
C301 H343 0.930 . S
C302 C303 1.348 . S
C302 C304 1.356 . S
C302 O327 1.325 . S
C303 C302 1.348 . S
C303 C305 1.353 . S
C303 H344 0.929 . S
C304 C302 1.356 . S
C304 C306 1.358 . S
C304 H345 0.930 . S
C305 C303 1.353 . S
C305 N307 1.314 . S
C305 H346 0.930 . S
C306 C304 1.358 . S
C306 N307 1.279 . S
C306 H347 0.930 . S
N307 C305 1.314 . S
N307 C306 1.279 . S
C308 C310 1.353 . S
C308 N311 1.314 . S
C308 H314 0.930 . S
C309 N311 1.279 . S
C309 C312 1.358 . S
C309 H315 0.930 . S
C310 C308 1.353 . S
C310 C313 1.348 . S
C310 H348 0.929 . S
N311 Li266 1.990 . S
N311 C308 1.314 . S
N311 C309 1.279 . S
C312 C309 1.358 . S
C312 C313 1.356 . S
C312 H349 0.930 . S
C313 C310 1.348 . S
C313 C312 1.356 . S
H314 C308 0.930 . S
H315 C309 0.930 . S
C316 N317 1.314 . S
C316 C318 1.353 . S
C316 H322 0.930 . S
N317 Li267 1.990 . S
N317 C316 1.314 . S
N317 C320 1.279 . S
C318 C316 1.353 . S
C318 C321 1.348 . S
C318 H350 0.929 . S
C319 C320 1.358 . S
C319 C321 1.356 . S
C319 H351 0.930 . S
C320 N317 1.279 . S
C320 C319 1.358 . S
C320 H323 0.930 . S
C321 C318 1.348 . S
C321 C319 1.356 . S
H322 C316 0.930 . S
H323 C320 0.930 . S
O324 Li264 1.956 . S
O324 Li265 1.970 . S
O324 Li266 1.961 . S
O324 C268 1.325 . S
O325 Li264 1.970 . S
O325 Li265 1.956 . S
O325 Li267 1.961 1_554 S
O325 C274 1.325 . S
O326 Li264 1.961 . S
O326 Li266 1.956 . S
O326 Li267 1.970 1_554 S
O326 C296 1.325 . S
O327 Li265 1.961 1_556 S
O327 Li266 1.970 1_556 S
O327 Li267 1.956 . S
O327 C302 1.325 . S
H328 C270 0.929 . S
H329 C271 0.930 . S
H330 C272 0.930 . S
H331 C273 0.930 . S
H332 C275 0.930 1_556 S
H333 C277 0.929 . S
H334 C278 0.930 1_556 S
H335 C279 0.930 . S
H336 C282 0.930 . S
H337 C285 0.929 . S
H338 C290 0.929 . S
H339 C291 0.930 . S
H340 C298 0.929 1_556 S
H341 C299 0.930 . S
H342 C300 0.930 1_556 S
H343 C301 0.930 . S
H344 C303 0.929 . S
H345 C304 0.930 . S
H346 C305 0.930 . S
H347 C306 0.930 . S
H348 C310 0.929 . S
H349 C312 0.930 . S
H350 C318 0.929 . S
H351 C319 0.930 . S
Li352 N369 1.994 . S
Li352 O412 1.998 . S
Li352 O413 1.926 1_455 S
Li352 O414 1.958 1_455 S
Li353 N377 1.992 . S
Li353 O412 1.941 1_655 S
Li353 O413 1.983 . S
Li353 O415 1.958 1_655 S
Li354 N399 1.990 . S
Li354 O412 1.961 . S
Li354 O414 1.933 1_455 S
Li354 O415 2.005 . S
Li355 N405 1.990 . S
Li355 O413 1.961 . S
Li355 O414 1.992 . S
Li355 O415 1.919 1_655 S
C356 C358 1.348 . S
C356 C359 1.356 . S
C356 O412 1.325 . S
N357 C360 1.314 . S
N357 C361 1.279 . S
C358 C356 1.348 . S
C358 C360 1.353 . S
C358 H416 0.929 . S
C359 C356 1.356 . S
C359 C361 1.358 . S
C359 H417 0.930 . S
C360 N357 1.314 . S
C360 C358 1.353 . S
C360 H418 0.930 . S
C361 N357 1.279 . S
C361 C359 1.358 . S
C361 H419 0.930 . S
C362 C365 1.348 . S
C362 C366 1.356 . S
C362 O413 1.325 . S
C363 N364 1.279 . S
C363 C366 1.358 . S
C363 H420 0.930 . S
N364 C363 1.279 . S
N364 C367 1.314 . S
C365 C362 1.348 . S
C365 C367 1.353 . S
C365 H421 0.929 . S
C366 C362 1.356 . S
C366 C363 1.358 . S
C366 H422 0.930 . S
C367 N364 1.314 . S
C367 C365 1.353 . S
C367 H423 0.930 . S
C368 N369 1.314 1_655 S
C368 C373 1.353 . S
C368 H374 0.930 . S
N369 Li352 1.994 . S
N369 C368 1.314 1_455 S
N369 C371 1.279 . S
C370 C371 1.358 . S
C370 C372 1.356 . S
C370 H424 0.930 . S
C371 N369 1.279 . S
C371 C370 1.358 . S
C371 H375 0.930 . S
C372 C370 1.356 . S
C372 C373 1.348 1_455 S
C373 C368 1.353 . S
C373 C372 1.348 1_655 S
C373 H425 0.929 . S
H374 C368 0.930 . S
H375 C371 0.930 . S
C376 N377 1.314 1_455 S
C376 C378 1.353 . S
C376 H382 0.930 . S
N377 Li353 1.992 . S
N377 C376 1.314 1_655 S
N377 C380 1.279 . S
C378 C376 1.353 . S
C378 C381 1.348 . S
C378 H426 0.929 1_556 S
C379 C380 1.358 . S
C379 C381 1.356 1_655 S
C379 H427 0.930 . S
C380 N377 1.279 . S
C380 C379 1.358 . S
C380 H383 0.930 . S
C381 C378 1.348 . S
C381 C379 1.356 1_455 S
H382 C376 0.930 . S
H383 C380 0.930 . S
C384 C386 1.348 1_455 S
C384 C387 1.356 . S
C384 O414 1.324 1_455 S
N385 C388 1.314 1_455 S
N385 C389 1.279 . S
C386 C384 1.348 1_655 S
C386 C388 1.353 . S
C386 H428 0.929 . S
C387 C384 1.356 . S
C387 C389 1.358 . S
C387 H429 0.930 . S
C388 N385 1.314 1_655 S
C388 C386 1.353 . S
C388 H430 0.930 . S
C389 N385 1.279 . S
C389 C387 1.358 . S
C389 H431 0.930 . S
C390 C391 1.348 . S
C390 C392 1.356 1_455 S
C390 O415 1.324 . S
C391 C390 1.348 . S
C391 C393 1.353 . S
C391 H432 0.929 . S
C392 C390 1.356 1_655 S
C392 C394 1.358 . S
C392 H433 0.930 . S
C393 C391 1.353 . S
C393 N395 1.314 1_456 S
C393 H434 0.930 . S
C394 C392 1.358 . S
C394 N395 1.279 1_556 S
C394 H435 0.930 1_556 S
N395 C393 1.314 1_654 S
N395 C394 1.279 1_554 S
C396 C398 1.353 . S
C396 N399 1.314 . S
C396 H402 0.930 . S
C397 N399 1.279 . S
C397 C400 1.358 . S
C397 H403 0.930 . S
C398 C396 1.353 . S
C398 C401 1.348 . S
C398 H436 0.929 . S
N399 Li354 1.990 . S
N399 C396 1.314 . S
N399 C397 1.279 . S
C400 C397 1.358 . S
C400 C401 1.356 . S
C400 H437 0.930 . S
C401 C398 1.348 . S
C401 C400 1.356 . S
H402 C396 0.930 . S
H403 C397 0.930 . S
C404 N405 1.314 . S
C404 C406 1.353 . S
C404 H410 0.930 . S
N405 Li355 1.990 . S
N405 C404 1.314 . S
N405 C408 1.279 . S
C406 C404 1.353 . S
C406 C409 1.348 . S
C406 H438 0.929 . S
C407 C408 1.358 . S
C407 C409 1.356 . S
C407 H439 0.930 . S
C408 N405 1.279 . S
C408 C407 1.358 . S
C408 H411 0.930 . S
C409 C406 1.348 . S
C409 C407 1.356 . S
H410 C404 0.930 . S
H411 C408 0.930 . S
O412 Li352 1.998 . S
O412 Li353 1.941 1_455 S
O412 Li354 1.961 . S
O412 C356 1.325 . S
O413 Li352 1.926 1_655 S
O413 Li353 1.983 . S
O413 Li355 1.961 . S
O413 C362 1.325 . S
O414 Li352 1.958 1_655 S
O414 Li354 1.933 1_655 S
O414 Li355 1.992 . S
O414 C384 1.324 1_655 S
O415 Li353 1.958 1_455 S
O415 Li354 2.005 . S
O415 Li355 1.919 1_455 S
O415 C390 1.324 . S
H416 C358 0.929 . S
H417 C359 0.930 . S
H418 C360 0.930 . S
H419 C361 0.930 . S
H420 C363 0.930 . S
H421 C365 0.929 . S
H422 C366 0.930 . S
H423 C367 0.930 . S
H424 C370 0.930 . S
H425 C373 0.929 . S
H426 C378 0.929 1_554 S
H427 C379 0.930 . S
H428 C386 0.929 . S
H429 C387 0.930 . S
H430 C388 0.930 . S
H431 C389 0.930 . S
H432 C391 0.929 . S
H433 C392 0.930 . S
H434 C393 0.930 . S
H435 C394 0.930 1_554 S
H436 C398 0.929 . S
H437 C400 0.930 . S
H438 C406 0.929 . S
H439 C407 0.930 . S
Li440 N457 1.990 . S
Li440 O500 1.956 . S
Li440 O501 1.970 . S
Li440 O502 1.961 . S
Li441 N465 1.990 . S
Li441 O500 1.970 . S
Li441 O501 1.956 . S
Li441 O503 1.961 . S
Li442 N487 1.990 . S
Li442 O500 1.961 . S
Li442 O502 1.956 . S
Li442 O503 1.970 . S
Li443 N493 1.990 . S
Li443 O501 1.961 . S
Li443 O502 1.970 . S
Li443 O503 1.956 . S
C444 C446 1.348 . S
C444 C447 1.356 . S
C444 O500 1.325 . S
N445 C448 1.314 . S
N445 C449 1.279 . S
C446 C444 1.348 . S
C446 C448 1.353 . S
C446 H504 0.929 . S
C447 C444 1.356 . S
C447 C449 1.358 . S
C447 H505 0.930 . S
C448 N445 1.314 . S
C448 C446 1.353 . S
C448 H506 0.930 . S
C449 N445 1.279 . S
C449 C447 1.358 . S
C449 H507 0.930 . S
C450 C453 1.348 . S
C450 C454 1.356 . S
C450 O501 1.325 . S
C451 N452 1.279 . S
C451 C454 1.358 . S
C451 H508 0.930 . S
N452 C451 1.279 . S
N452 C455 1.314 . S
C453 C450 1.348 . S
C453 C455 1.353 . S
C453 H509 0.929 . S
C454 C450 1.356 . S
C454 C451 1.358 . S
C454 H510 0.930 . S
C455 N452 1.314 . S
C455 C453 1.353 . S
C455 H511 0.930 . S
C456 N457 1.314 . S
C456 C461 1.353 . S
C456 H462 0.930 . S
N457 Li440 1.990 . S
N457 C456 1.314 . S
N457 C459 1.279 . S
C458 C459 1.358 . S
C458 C460 1.356 . S
C458 H512 0.930 . S
C459 N457 1.279 . S
C459 C458 1.358 . S
C459 H463 0.930 . S
C460 C458 1.356 . S
C460 C461 1.348 . S
C461 C456 1.353 . S
C461 C460 1.348 . S
C461 H513 0.929 . S
H462 C456 0.930 . S
H463 C459 0.930 . S
C464 N465 1.314 . S
C464 C466 1.353 . S
C464 H470 0.930 . S
N465 Li441 1.990 . S
N465 C464 1.314 . S
N465 C468 1.279 . S
C466 C464 1.353 . S
C466 C469 1.348 . S
C466 H514 0.929 . S
C467 C468 1.358 . S
C467 C469 1.356 . S
C467 H515 0.930 . S
C468 N465 1.279 . S
C468 C467 1.358 . S
C468 H471 0.930 . S
C469 C466 1.348 . S
C469 C467 1.356 . S
H470 C464 0.930 . S
H471 C468 0.930 . S
C472 C474 1.348 . S
C472 C475 1.356 . S
C472 O502 1.325 . S
N473 C476 1.314 . S
N473 C477 1.279 . S
C474 C472 1.348 . S
C474 C476 1.353 . S
C474 H516 0.929 . S
C475 C472 1.356 . S
C475 C477 1.358 . S
C475 H517 0.930 . S
C476 N473 1.314 . S
C476 C474 1.353 . S
C476 H518 0.930 . S
C477 N473 1.279 . S
C477 C475 1.358 . S
C477 H519 0.930 . S
C478 C479 1.348 . S
C478 C480 1.356 . S
C478 O503 1.325 . S
C479 C478 1.348 . S
C479 C481 1.353 . S
C479 H520 0.929 . S
C480 C478 1.356 . S
C480 C482 1.358 . S
C480 H521 0.930 . S
C481 C479 1.353 . S
C481 N483 1.314 . S
C481 H522 0.930 . S
C482 C480 1.358 . S
C482 N483 1.279 . S
C482 H523 0.930 . S
N483 C481 1.314 . S
N483 C482 1.279 . S
C484 C486 1.353 . S
C484 N487 1.314 . S
C484 H490 0.930 . S
C485 N487 1.279 . S
C485 C488 1.358 1_554 S
C485 H491 0.930 . S
C486 C484 1.353 . S
C486 C489 1.348 1_554 S
C486 H524 0.929 . S
N487 Li442 1.990 . S
N487 C484 1.314 . S
N487 C485 1.279 . S
C488 C485 1.358 1_556 S
C488 C489 1.356 . S
C488 H525 0.930 . S
C489 C486 1.348 1_556 S
C489 C488 1.356 . S
H490 C484 0.930 . S
H491 C485 0.930 . S
C492 N493 1.314 . S
C492 C494 1.353 . S
C492 H498 0.930 . S
N493 Li443 1.990 . S
N493 C492 1.314 . S
N493 C496 1.279 . S
C494 C492 1.353 . S
C494 C497 1.348 . S
C494 H526 0.929 . S
C495 C496 1.358 . S
C495 C497 1.356 . S
C495 H527 0.930 . S
C496 N493 1.279 . S
C496 C495 1.358 . S
C496 H499 0.930 . S
C497 C494 1.348 . S
C497 C495 1.356 . S
H498 C492 0.930 . S
H499 C496 0.930 . S
O500 Li440 1.956 . S
O500 Li441 1.970 . S
O500 Li442 1.961 . S
O500 C444 1.325 . S
O501 Li440 1.970 . S
O501 Li441 1.956 . S
O501 Li443 1.961 . S
O501 C450 1.325 . S
O502 Li440 1.961 . S
O502 Li442 1.956 . S
O502 Li443 1.970 . S
O502 C472 1.325 . S
O503 Li441 1.961 . S
O503 Li442 1.970 . S
O503 Li443 1.956 . S
O503 C478 1.325 . S
H504 C446 0.929 . S
H505 C447 0.930 . S
H506 C448 0.930 . S
H507 C449 0.930 . S
H508 C451 0.930 . S
H509 C453 0.929 . S
H510 C454 0.930 . S
H511 C455 0.930 . S
H512 C458 0.930 . S
H513 C461 0.929 . S
H514 C466 0.929 . S
H515 C467 0.930 . S
H516 C474 0.929 . S
H517 C475 0.930 . S
H518 C476 0.930 . S
H519 C477 0.930 . S
H520 C479 0.929 . S
H521 C480 0.930 . S
H522 C481 0.930 . S
H523 C482 0.930 . S
H524 C486 0.929 . S
H525 C488 0.930 . S
H526 C494 0.929 . S
H527 C495 0.930 . S
Li528 N545 1.990 . S
Li528 O588 1.956 . S
Li528 O589 1.970 . S
Li528 O590 1.961 . S
Li529 N553 1.990 . S
Li529 O588 1.970 . S
Li529 O589 1.956 . S
Li529 O591 1.961 . S
Li530 N575 1.990 . S
Li530 O588 1.961 . S
Li530 O590 1.956 . S
Li530 O591 1.970 . S
Li531 N581 1.990 . S
Li531 O589 1.961 . S
Li531 O590 1.970 . S
Li531 O591 1.956 . S
C532 C534 1.348 . S
C532 C535 1.356 . S
C532 O588 1.325 . S
N533 C536 1.314 . S
N533 C537 1.279 . S
C534 C532 1.348 . S
C534 C536 1.353 . S
C534 H592 0.929 . S
C535 C532 1.356 . S
C535 C537 1.358 . S
C535 H593 0.930 . S
C536 N533 1.314 . S
C536 C534 1.353 . S
C536 H594 0.930 . S
C537 N533 1.279 . S
C537 C535 1.358 . S
C537 H595 0.930 . S
C538 C541 1.348 . S
C538 C542 1.356 . S
C538 O589 1.325 . S
C539 N540 1.279 . S
C539 C542 1.358 . S
C539 H596 0.930 . S
N540 C539 1.279 . S
N540 C543 1.314 . S
C541 C538 1.348 . S
C541 C543 1.353 . S
C541 H597 0.929 . S
C542 C538 1.356 . S
C542 C539 1.358 . S
C542 H598 0.930 . S
C543 N540 1.314 . S
C543 C541 1.353 . S
C543 H599 0.930 . S
C544 N545 1.314 . S
C544 C549 1.353 . S
C544 H550 0.930 . S
N545 Li528 1.990 . S
N545 C544 1.314 . S
N545 C547 1.279 . S
C546 C547 1.358 . S
C546 C548 1.356 . S
C546 H600 0.930 . S
C547 N545 1.279 . S
C547 C546 1.358 . S
C547 H551 0.930 . S
C548 C546 1.356 . S
C548 C549 1.348 . S
C549 C544 1.353 . S
C549 C548 1.348 . S
C549 H601 0.929 . S
H550 C544 0.930 . S
H551 C547 0.930 . S
C552 N553 1.314 . S
C552 C554 1.353 . S
C552 H558 0.930 . S
N553 Li529 1.990 . S
N553 C552 1.314 . S
N553 C556 1.279 . S
C554 C552 1.353 . S
C554 C557 1.348 . S
C554 H602 0.929 . S
C555 C556 1.358 . S
C555 C557 1.356 . S
C555 H603 0.930 . S
C556 N553 1.279 . S
C556 C555 1.358 . S
C556 H559 0.930 . S
C557 C554 1.348 . S
C557 C555 1.356 . S
H558 C552 0.930 . S
H559 C556 0.930 . S
C560 C562 1.348 . S
C560 C563 1.356 . S
C560 O590 1.325 . S
N561 C564 1.314 . S
N561 C565 1.279 . S
C562 C560 1.348 . S
C562 C564 1.353 . S
C562 H604 0.929 . S
C563 C560 1.356 . S
C563 C565 1.358 . S
C563 H605 0.930 . S
C564 N561 1.314 . S
C564 C562 1.353 . S
C564 H606 0.930 . S
C565 N561 1.279 . S
C565 C563 1.358 . S
C565 H607 0.930 . S
C566 C567 1.348 . S
C566 C568 1.356 . S
C566 O591 1.325 . S
C567 C566 1.348 . S
C567 C569 1.353 . S
C567 H608 0.929 . S
C568 C566 1.356 . S
C568 C570 1.358 . S
C568 H609 0.930 . S
C569 C567 1.353 . S
C569 N571 1.314 . S
C569 H610 0.930 . S
C570 C568 1.358 . S
C570 N571 1.279 . S
C570 H611 0.930 . S
N571 C569 1.314 . S
N571 C570 1.279 . S
C572 C574 1.353 . S
C572 N575 1.314 . S
C572 H578 0.930 . S
C573 N575 1.279 . S
C573 C576 1.358 . S
C573 H579 0.930 . S
C574 C572 1.353 . S
C574 C577 1.348 . S
C574 H612 0.929 . S
N575 Li530 1.990 . S
N575 C572 1.314 . S
N575 C573 1.279 . S
C576 C573 1.358 . S
C576 C577 1.356 . S
C576 H613 0.930 . S
C577 C574 1.348 . S
C577 C576 1.356 . S
H578 C572 0.930 . S
H579 C573 0.930 . S
C580 N581 1.314 . S
C580 C582 1.353 . S
C580 H586 0.930 . S
N581 Li531 1.990 . S
N581 C580 1.314 . S
N581 C584 1.279 . S
C582 C580 1.353 . S
C582 C585 1.348 . S
C582 H614 0.929 . S
C583 C584 1.358 . S
C583 C585 1.356 . S
C583 H615 0.930 . S
C584 N581 1.279 . S
C584 C583 1.358 . S
C584 H587 0.930 . S
C585 C582 1.348 . S
C585 C583 1.356 . S
H586 C580 0.930 . S
H587 C584 0.930 . S
O588 Li528 1.956 . S
O588 Li529 1.970 . S
O588 Li530 1.961 . S
O588 C532 1.325 . S
O589 Li528 1.970 . S
O589 Li529 1.956 . S
O589 Li531 1.961 . S
O589 C538 1.325 . S
O590 Li528 1.961 . S
O590 Li530 1.956 . S
O590 Li531 1.970 . S
O590 C560 1.325 . S
O591 Li529 1.961 . S
O591 Li530 1.970 . S
O591 Li531 1.956 . S
O591 C566 1.325 . S
H592 C534 0.929 . S
H593 C535 0.930 . S
H594 C536 0.930 . S
H595 C537 0.930 . S
H596 C539 0.930 . S
H597 C541 0.929 . S
H598 C542 0.930 . S
H599 C543 0.930 . S
H600 C546 0.930 . S
H601 C549 0.929 . S
H602 C554 0.929 . S
H603 C555 0.930 . S
H604 C562 0.929 . S
H605 C563 0.930 . S
H606 C564 0.930 . S
H607 C565 0.930 . S
H608 C567 0.929 . S
H609 C568 0.930 . S
H610 C569 0.930 . S
H611 C570 0.930 . S
H612 C574 0.929 . S
H613 C576 0.930 . S
H614 C582 0.929 . S
H615 C583 0.930 . S
Li616 N633 1.990 . S
Li616 O676 1.956 . S
Li616 O677 1.970 . S
Li616 O678 1.961 . S
Li617 N641 1.990 . S
Li617 O676 1.970 . S
Li617 O677 1.956 . S
Li617 O679 1.961 . S
Li618 N663 1.990 . S
Li618 O676 1.961 . S
Li618 O678 1.956 . S
Li618 O679 1.970 . S
Li619 N669 1.990 . S
Li619 O677 1.961 . S
Li619 O678 1.970 . S
Li619 O679 1.956 . S
C620 C622 1.348 . S
C620 C623 1.356 . S
C620 O676 1.325 . S
N621 C624 1.314 . S
N621 C625 1.279 . S
C622 C620 1.348 . S
C622 C624 1.353 . S
C622 H680 0.929 . S
C623 C620 1.356 . S
C623 C625 1.358 . S
C623 H681 0.930 . S
C624 N621 1.314 . S
C624 C622 1.353 . S
C624 H682 0.930 . S
C625 N621 1.279 . S
C625 C623 1.358 . S
C625 H683 0.930 . S
C626 C629 1.348 . S
C626 C630 1.356 . S
C626 O677 1.325 . S
C627 N628 1.279 . S
C627 C630 1.358 . S
C627 H684 0.930 . S
N628 C627 1.279 . S
N628 C631 1.314 . S
C629 C626 1.348 . S
C629 C631 1.353 . S
C629 H685 0.929 . S
C630 C626 1.356 . S
C630 C627 1.358 . S
C630 H686 0.930 . S
C631 N628 1.314 . S
C631 C629 1.353 . S
C631 H687 0.930 . S
C632 N633 1.314 . S
C632 C637 1.353 . S
C632 H638 0.930 . S
N633 Li616 1.990 . S
N633 C632 1.314 . S
N633 C635 1.279 . S
C634 C635 1.358 . S
C634 C636 1.356 . S
C634 H688 0.930 . S
C635 N633 1.279 . S
C635 C634 1.358 . S
C635 H639 0.930 . S
C636 C634 1.356 . S
C636 C637 1.348 . S
C637 C632 1.353 . S
C637 C636 1.348 . S
C637 H689 0.929 . S
H638 C632 0.930 . S
H639 C635 0.930 . S
C640 N641 1.314 . S
C640 C642 1.353 . S
C640 H646 0.930 . S
N641 Li617 1.990 . S
N641 C640 1.314 . S
N641 C644 1.279 . S
C642 C640 1.353 . S
C642 C645 1.348 . S
C642 H690 0.929 . S
C643 C644 1.358 . S
C643 C645 1.356 . S
C643 H691 0.930 . S
C644 N641 1.279 . S
C644 C643 1.358 . S
C644 H647 0.930 . S
C645 C642 1.348 . S
C645 C643 1.356 . S
H646 C640 0.930 . S
H647 C644 0.930 . S
C648 C650 1.348 . S
C648 C651 1.356 . S
C648 O678 1.325 . S
N649 C652 1.314 . S
N649 C653 1.279 . S
C650 C648 1.348 . S
C650 C652 1.353 . S
C650 H692 0.929 . S
C651 C648 1.356 . S
C651 C653 1.358 . S
C651 H693 0.930 . S
C652 N649 1.314 . S
C652 C650 1.353 . S
C652 H694 0.930 . S
C653 N649 1.279 . S
C653 C651 1.358 . S
C653 H695 0.930 . S
C654 C655 1.348 . S
C654 C656 1.356 . S
C654 O679 1.325 . S
C655 C654 1.348 . S
C655 C657 1.353 . S
C655 H696 0.929 . S
C656 C654 1.356 . S
C656 C658 1.358 . S
C656 H697 0.930 . S
C657 C655 1.353 . S
C657 N659 1.314 . S
C657 H698 0.930 . S
C658 C656 1.358 . S
C658 N659 1.279 . S
C658 H699 0.930 . S
N659 C657 1.314 . S
N659 C658 1.279 . S
C660 C662 1.353 . S
C660 N663 1.314 . S
C660 H666 0.930 . S
C661 N663 1.279 . S
C661 C664 1.358 . S
C661 H667 0.930 . S
C662 C660 1.353 . S
C662 C665 1.348 . S
C662 H700 0.929 . S
N663 Li618 1.990 . S
N663 C660 1.314 . S
N663 C661 1.279 . S
C664 C661 1.358 . S
C664 C665 1.356 . S
C664 H701 0.930 . S
C665 C662 1.348 . S
C665 C664 1.356 . S
H666 C660 0.930 . S
H667 C661 0.930 . S
C668 N669 1.314 . S
C668 C670 1.353 . S
C668 H674 0.930 . S
N669 Li619 1.990 . S
N669 C668 1.314 . S
N669 C672 1.279 . S
C670 C668 1.353 . S
C670 C673 1.348 . S
C670 H702 0.929 . S
C671 C672 1.358 . S
C671 C673 1.356 . S
C671 H703 0.930 . S
C672 N669 1.279 . S
C672 C671 1.358 . S
C672 H675 0.930 . S
C673 C670 1.348 . S
C673 C671 1.356 . S
H674 C668 0.930 . S
H675 C672 0.930 . S
O676 Li616 1.956 . S
O676 Li617 1.970 . S
O676 Li618 1.961 . S
O676 C620 1.325 . S
O677 Li616 1.970 . S
O677 Li617 1.956 . S
O677 Li619 1.961 . S
O677 C626 1.325 . S
O678 Li616 1.961 . S
O678 Li618 1.956 . S
O678 Li619 1.970 . S
O678 C648 1.325 . S
O679 Li617 1.961 . S
O679 Li618 1.970 . S
O679 Li619 1.956 . S
O679 C654 1.325 . S
H680 C622 0.929 . S
H681 C623 0.930 . S
H682 C624 0.930 . S
H683 C625 0.930 . S
H684 C627 0.930 . S
H685 C629 0.929 . S
H686 C630 0.930 . S
H687 C631 0.930 . S
H688 C634 0.930 . S
H689 C637 0.929 . S
H690 C642 0.929 . S
H691 C643 0.930 . S
H692 C650 0.929 . S
H693 C651 0.930 . S
H694 C652 0.930 . S
H695 C653 0.930 . S
H696 C655 0.929 . S
H697 C656 0.930 . S
H698 C657 0.930 . S
H699 C658 0.930 . S
H700 C662 0.929 . S
H701 C664 0.930 . S
H702 C670 0.929 . S
H703 C671 0.930 . S
Li704 N721 1.990 . S
Li704 O764 1.956 . S
Li704 O765 1.970 . S
Li704 O766 1.961 . S
Li705 N729 1.990 . S
Li705 O764 1.970 . S
Li705 O765 1.956 . S
Li705 O767 1.961 . S
Li706 N751 1.990 . S
Li706 O764 1.961 . S
Li706 O766 1.956 . S
Li706 O767 1.970 . S
Li707 N757 1.990 . S
Li707 O765 1.961 . S
Li707 O766 1.970 . S
Li707 O767 1.956 . S
C708 C710 1.348 . S
C708 C711 1.356 . S
C708 O764 1.325 . S
N709 C712 1.314 . S
N709 C713 1.279 . S
C710 C708 1.348 . S
C710 C712 1.353 . S
C710 H768 0.929 . S
C711 C708 1.356 . S
C711 C713 1.358 . S
C711 H769 0.930 . S
C712 N709 1.314 . S
C712 C710 1.353 . S
C712 H770 0.930 . S
C713 N709 1.279 . S
C713 C711 1.358 . S
C713 H771 0.930 . S
C714 C717 1.348 . S
C714 C718 1.356 . S
C714 O765 1.325 . S
C715 N716 1.279 . S
C715 C718 1.358 . S
C715 H772 0.930 . S
N716 C715 1.279 . S
N716 C719 1.314 . S
C717 C714 1.348 . S
C717 C719 1.353 . S
C717 H773 0.929 . S
C718 C714 1.356 . S
C718 C715 1.358 . S
C718 H774 0.930 . S
C719 N716 1.314 . S
C719 C717 1.353 . S
C719 H775 0.930 . S
C720 N721 1.314 . S
C720 C725 1.353 . S
C720 H726 0.930 . S
N721 Li704 1.990 . S
N721 C720 1.314 . S
N721 C723 1.279 . S
C722 C723 1.358 . S
C722 C724 1.356 . S
C722 H776 0.930 . S
C723 N721 1.279 . S
C723 C722 1.358 . S
C723 H727 0.930 . S
C724 C722 1.356 . S
C724 C725 1.348 . S
C725 C720 1.353 . S
C725 C724 1.348 . S
C725 H777 0.929 . S
H726 C720 0.930 . S
H727 C723 0.930 . S
C728 N729 1.314 . S
C728 C730 1.353 . S
C728 H734 0.930 . S
N729 Li705 1.990 . S
N729 C728 1.314 . S
N729 C732 1.279 . S
C730 C728 1.353 . S
C730 C733 1.348 . S
C730 H778 0.929 . S
C731 C732 1.358 . S
C731 C733 1.356 . S
C731 H779 0.930 . S
C732 N729 1.279 . S
C732 C731 1.358 . S
C732 H735 0.930 . S
C733 C730 1.348 . S
C733 C731 1.356 . S
H734 C728 0.930 . S
H735 C732 0.930 . S
C736 C738 1.348 . S
C736 C739 1.356 . S
C736 O766 1.325 . S
N737 C740 1.314 . S
N737 C741 1.279 . S
C738 C736 1.348 . S
C738 C740 1.353 . S
C738 H780 0.929 . S
C739 C736 1.356 . S
C739 C741 1.358 . S
C739 H781 0.930 . S
C740 N737 1.314 . S
C740 C738 1.353 . S
C740 H782 0.930 . S
C741 N737 1.279 . S
C741 C739 1.358 . S
C741 H783 0.930 . S
C742 C743 1.348 . S
C742 C744 1.356 . S
C742 O767 1.325 . S
C743 C742 1.348 . S
C743 C745 1.353 . S
C743 H784 0.929 . S
C744 C742 1.356 . S
C744 C746 1.358 . S
C744 H785 0.930 . S
C745 C743 1.353 . S
C745 N747 1.314 . S
C745 H786 0.930 . S
C746 C744 1.358 . S
C746 N747 1.279 . S
C746 H787 0.930 . S
N747 C745 1.314 . S
N747 C746 1.279 . S
C748 C750 1.353 . S
C748 N751 1.314 . S
C748 H754 0.930 . S
C749 N751 1.279 . S
C749 C752 1.358 . S
C749 H755 0.930 . S
C750 C748 1.353 . S
C750 C753 1.348 . S
C750 H788 0.929 . S
N751 Li706 1.990 . S
N751 C748 1.314 . S
N751 C749 1.279 . S
C752 C749 1.358 . S
C752 C753 1.356 . S
C752 H789 0.930 . S
C753 C750 1.348 . S
C753 C752 1.356 . S
H754 C748 0.930 . S
H755 C749 0.930 . S
C756 N757 1.314 . S
C756 C758 1.353 . S
C756 H762 0.930 . S
N757 Li707 1.990 . S
N757 C756 1.314 . S
N757 C760 1.279 . S
C758 C756 1.353 . S
C758 C761 1.348 . S
C758 H790 0.929 . S
C759 C760 1.358 . S
C759 C761 1.356 . S
C759 H791 0.930 . S
C760 N757 1.279 . S
C760 C759 1.358 . S
C760 H763 0.930 . S
C761 C758 1.348 . S
C761 C759 1.356 . S
H762 C756 0.930 . S
H763 C760 0.930 . S
O764 Li704 1.956 . S
O764 Li705 1.970 . S
O764 Li706 1.961 . S
O764 C708 1.325 . S
O765 Li704 1.970 . S
O765 Li705 1.956 . S
O765 Li707 1.961 . S
O765 C714 1.325 . S
O766 Li704 1.961 . S
O766 Li706 1.956 . S
O766 Li707 1.970 . S
O766 C736 1.325 . S
O767 Li705 1.961 . S
O767 Li706 1.970 . S
O767 Li707 1.956 . S
O767 C742 1.325 . S
H768 C710 0.929 . S
H769 C711 0.930 . S
H770 C712 0.930 . S
H771 C713 0.930 . S
H772 C715 0.930 . S
H773 C717 0.929 . S
H774 C718 0.930 . S
H775 C719 0.930 . S
H776 C722 0.930 . S
H777 C725 0.929 . S
H778 C730 0.929 . S
H779 C731 0.930 . S
H780 C738 0.929 . S
H781 C739 0.930 . S
H782 C740 0.930 . S
H783 C741 0.930 . S
H784 C743 0.929 . S
H785 C744 0.930 . S
H786 C745 0.930 . S
H787 C746 0.930 . S
H788 C750 0.929 . S
H789 C752 0.930 . S
H790 C758 0.929 . S
H791 C759 0.930 . S
Li792 N809 1.990 . S
Li792 O852 1.956 . S
Li792 O853 1.970 . S
Li792 O854 1.961 . S
Li793 N817 1.990 . S
Li793 O852 1.970 . S
Li793 O853 1.956 . S
Li793 O855 1.961 . S
Li794 N839 1.990 . S
Li794 O852 1.961 . S
Li794 O854 1.956 . S
Li794 O855 1.970 . S
Li795 N845 1.990 . S
Li795 O853 1.961 . S
Li795 O854 1.970 . S
Li795 O855 1.956 . S
C796 C798 1.348 . S
C796 C799 1.356 . S
C796 O852 1.325 . S
N797 C800 1.314 . S
N797 C801 1.279 . S
C798 C796 1.348 . S
C798 C800 1.353 . S
C798 H856 0.929 . S
C799 C796 1.356 . S
C799 C801 1.358 . S
C799 H857 0.930 . S
C800 N797 1.314 . S
C800 C798 1.353 . S
C800 H858 0.930 . S
C801 N797 1.279 . S
C801 C799 1.358 . S
C801 H859 0.930 . S
C802 C805 1.348 . S
C802 C806 1.356 . S
C802 O853 1.325 . S
C803 N804 1.279 . S
C803 C806 1.358 . S
C803 H860 0.930 . S
N804 C803 1.279 . S
N804 C807 1.314 . S
C805 C802 1.348 . S
C805 C807 1.353 . S
C805 H861 0.929 . S
C806 C802 1.356 . S
C806 C803 1.358 . S
C806 H862 0.930 . S
C807 N804 1.314 . S
C807 C805 1.353 . S
C807 H863 0.930 . S
C808 N809 1.314 . S
C808 C813 1.353 . S
C808 H814 0.930 . S
N809 Li792 1.990 . S
N809 C808 1.314 . S
N809 C811 1.279 . S
C810 C811 1.358 . S
C810 C812 1.356 . S
C810 H864 0.930 . S
C811 N809 1.279 . S
C811 C810 1.358 . S
C811 H815 0.930 . S
C812 C810 1.356 . S
C812 C813 1.348 . S
C813 C808 1.353 . S
C813 C812 1.348 . S
C813 H865 0.929 . S
H814 C808 0.930 . S
H815 C811 0.930 . S
C816 N817 1.314 . S
C816 C818 1.353 . S
C816 H822 0.930 . S
N817 Li793 1.990 . S
N817 C816 1.314 . S
N817 C820 1.279 . S
C818 C816 1.353 . S
C818 C821 1.348 . S
C818 H866 0.929 . S
C819 C820 1.358 . S
C819 C821 1.356 . S
C819 H867 0.930 . S
C820 N817 1.279 . S
C820 C819 1.358 . S
C820 H823 0.930 . S
C821 C818 1.348 . S
C821 C819 1.356 . S
H822 C816 0.930 . S
H823 C820 0.930 . S
C824 C826 1.348 . S
C824 C827 1.356 . S
C824 O854 1.325 . S
N825 C828 1.314 . S
N825 C829 1.279 . S
C826 C824 1.348 . S
C826 C828 1.353 . S
C826 H868 0.929 . S
C827 C824 1.356 . S
C827 C829 1.358 . S
C827 H869 0.930 . S
C828 N825 1.314 . S
C828 C826 1.353 . S
C828 H870 0.930 . S
C829 N825 1.279 . S
C829 C827 1.358 . S
C829 H871 0.930 . S
C830 C831 1.348 . S
C830 C832 1.356 . S
C830 O855 1.325 . S
C831 C830 1.348 . S
C831 C833 1.353 . S
C831 H872 0.929 . S
C832 C830 1.356 . S
C832 C834 1.358 . S
C832 H873 0.930 . S
C833 C831 1.353 . S
C833 N835 1.314 . S
C833 H874 0.930 . S
C834 C832 1.358 . S
C834 N835 1.279 . S
C834 H875 0.930 . S
N835 C833 1.314 . S
N835 C834 1.279 . S
C836 C838 1.353 . S
C836 N839 1.314 . S
C836 H842 0.930 . S
C837 N839 1.279 . S
C837 C840 1.358 1_554 S
C837 H843 0.930 . S
C838 C836 1.353 . S
C838 C841 1.348 1_554 S
C838 H876 0.929 . S
N839 Li794 1.990 . S
N839 C836 1.314 . S
N839 C837 1.279 . S
C840 C837 1.358 1_556 S
C840 C841 1.356 . S
C840 H877 0.930 . S
C841 C838 1.348 1_556 S
C841 C840 1.356 . S
H842 C836 0.930 . S
H843 C837 0.930 . S
C844 N845 1.314 . S
C844 C846 1.353 . S
C844 H850 0.930 . S
N845 Li795 1.990 . S
N845 C844 1.314 . S
N845 C848 1.279 . S
C846 C844 1.353 . S
C846 C849 1.348 . S
C846 H878 0.929 . S
C847 C848 1.358 . S
C847 C849 1.356 . S
C847 H879 0.930 . S
C848 N845 1.279 . S
C848 C847 1.358 . S
C848 H851 0.930 . S
C849 C846 1.348 . S
C849 C847 1.356 . S
H850 C844 0.930 . S
H851 C848 0.930 . S
O852 Li792 1.956 . S
O852 Li793 1.970 . S
O852 Li794 1.961 . S
O852 C796 1.325 . S
O853 Li792 1.970 . S
O853 Li793 1.956 . S
O853 Li795 1.961 . S
O853 C802 1.325 . S
O854 Li792 1.961 . S
O854 Li794 1.956 . S
O854 Li795 1.970 . S
O854 C824 1.325 . S
O855 Li793 1.961 . S
O855 Li794 1.970 . S
O855 Li795 1.956 . S
O855 C830 1.325 . S
H856 C798 0.929 . S
H857 C799 0.930 . S
H858 C800 0.930 . S
H859 C801 0.930 . S
H860 C803 0.930 . S
H861 C805 0.929 . S
H862 C806 0.930 . S
H863 C807 0.930 . S
H864 C810 0.930 . S
H865 C813 0.929 . S
H866 C818 0.929 . S
H867 C819 0.930 . S
H868 C826 0.929 . S
H869 C827 0.930 . S
H870 C828 0.930 . S
H871 C829 0.930 . S
H872 C831 0.929 . S
H873 C832 0.930 . S
H874 C833 0.930 . S
H875 C834 0.930 . S
H876 C838 0.929 . S
H877 C840 0.930 . S
H878 C846 0.929 . S
H879 C847 0.930 . S
Li880 N897 1.990 . S
Li880 O940 1.956 . S
Li880 O941 1.970 . S
Li880 O942 1.961 . S
Li881 N905 1.990 . S
Li881 O940 1.970 . S
Li881 O941 1.956 . S
Li881 O943 1.961 1_554 S
Li882 N927 1.990 . S
Li882 O940 1.961 . S
Li882 O942 1.956 . S
Li882 O943 1.970 1_554 S
Li883 N933 1.990 . S
Li883 O941 1.961 1_556 S
Li883 O942 1.970 1_556 S
Li883 O943 1.956 . S
C884 C886 1.348 . S
C884 C887 1.356 . S
C884 O940 1.325 . S
N885 C888 1.314 . S
N885 C889 1.279 . S
C886 C884 1.348 . S
C886 C888 1.353 . S
C886 H944 0.929 . S
C887 C884 1.356 . S
C887 C889 1.358 . S
C887 H945 0.930 . S
C888 N885 1.314 . S
C888 C886 1.353 . S
C888 H946 0.930 . S
C889 N885 1.279 . S
C889 C887 1.358 . S
C889 H947 0.930 . S
C890 C893 1.348 . S
C890 C894 1.356 . S
C890 O941 1.325 . S
C891 N892 1.279 . S
C891 C894 1.358 . S
C891 H948 0.930 1_554 S
N892 C891 1.279 . S
N892 C895 1.314 . S
C893 C890 1.348 . S
C893 C895 1.353 . S
C893 H949 0.929 . S
C894 C890 1.356 . S
C894 C891 1.358 . S
C894 H950 0.930 1_554 S
C895 N892 1.314 . S
C895 C893 1.353 . S
C895 H951 0.930 . S
C896 N897 1.314 . S
C896 C901 1.353 . S
C896 H902 0.930 . S
N897 Li880 1.990 . S
N897 C896 1.314 . S
N897 C899 1.279 . S
C898 C899 1.358 . S
C898 C900 1.356 . S
C898 H952 0.930 . S
C899 N897 1.279 . S
C899 C898 1.358 . S
C899 H903 0.930 . S
C900 C898 1.356 . S
C900 C901 1.348 . S
C901 C896 1.353 . S
C901 C900 1.348 . S
C901 H953 0.929 . S
H902 C896 0.930 . S
H903 C899 0.930 . S
C904 N905 1.314 1_556 S
C904 C906 1.353 . S
C904 H910 0.930 . S
N905 Li881 1.990 . S
N905 C904 1.314 1_554 S
N905 C908 1.279 . S
C906 C904 1.353 . S
C906 C909 1.348 1_556 S
C906 H954 0.929 . S
C907 C908 1.358 . S
C907 C909 1.356 . S
C907 H955 0.930 . S
C908 N905 1.279 . S
C908 C907 1.358 . S
C908 H911 0.930 . S
C909 C906 1.348 1_554 S
C909 C907 1.356 . S
H910 C904 0.930 . S
H911 C908 0.930 . S
C912 C914 1.348 . S
C912 C915 1.356 . S
C912 O942 1.325 . S
N913 C916 1.314 . S
N913 C917 1.279 . S
C914 C912 1.348 . S
C914 C916 1.353 . S
C914 H956 0.929 1_554 S
C915 C912 1.356 . S
C915 C917 1.358 . S
C915 H957 0.930 . S
C916 N913 1.314 . S
C916 C914 1.353 . S
C916 H958 0.930 1_554 S
C917 N913 1.279 . S
C917 C915 1.358 . S
C917 H959 0.930 . S
C918 C919 1.348 . S
C918 C920 1.356 . S
C918 O943 1.325 . S
C919 C918 1.348 . S
C919 C921 1.353 . S
C919 H960 0.929 . S
C920 C918 1.356 . S
C920 C922 1.358 . S
C920 H961 0.930 . S
C921 C919 1.353 . S
C921 N923 1.314 . S
C921 H962 0.930 . S
C922 C920 1.358 . S
C922 N923 1.279 . S
C922 H963 0.930 . S
N923 C921 1.314 . S
N923 C922 1.279 . S
C924 C926 1.353 . S
C924 N927 1.314 . S
C924 H930 0.930 . S
C925 N927 1.279 . S
C925 C928 1.358 . S
C925 H931 0.930 . S
C926 C924 1.353 . S
C926 C929 1.348 . S
C926 H964 0.929 . S
N927 Li882 1.990 . S
N927 C924 1.314 . S
N927 C925 1.279 . S
C928 C925 1.358 . S
C928 C929 1.356 . S
C928 H965 0.930 . S
C929 C926 1.348 . S
C929 C928 1.356 . S
H930 C924 0.930 . S
H931 C925 0.930 . S
C932 N933 1.314 . S
C932 C934 1.353 . S
C932 H938 0.930 . S
N933 Li883 1.990 . S
N933 C932 1.314 . S
N933 C936 1.279 . S
C934 C932 1.353 . S
C934 C937 1.348 . S
C934 H966 0.929 . S
C935 C936 1.358 . S
C935 C937 1.356 . S
C935 H967 0.930 . S
C936 N933 1.279 . S
C936 C935 1.358 . S
C936 H939 0.930 . S
C937 C934 1.348 . S
C937 C935 1.356 . S
H938 C932 0.930 . S
H939 C936 0.930 . S
O940 Li880 1.956 . S
O940 Li881 1.970 . S
O940 Li882 1.961 . S
O940 C884 1.325 . S
O941 Li880 1.970 . S
O941 Li881 1.956 . S
O941 Li883 1.961 1_554 S
O941 C890 1.325 . S
O942 Li880 1.961 . S
O942 Li882 1.956 . S
O942 Li883 1.970 1_554 S
O942 C912 1.325 . S
O943 Li881 1.961 1_556 S
O943 Li882 1.970 1_556 S
O943 Li883 1.956 . S
O943 C918 1.325 . S
H944 C886 0.929 . S
H945 C887 0.930 . S
H946 C888 0.930 . S
H947 C889 0.930 . S
H948 C891 0.930 1_556 S
H949 C893 0.929 . S
H950 C894 0.930 1_556 S
H951 C895 0.930 . S
H952 C898 0.930 . S
H953 C901 0.929 . S
H954 C906 0.929 . S
H955 C907 0.930 . S
H956 C914 0.929 1_556 S
H957 C915 0.930 . S
H958 C916 0.930 1_556 S
H959 C917 0.930 . S
H960 C919 0.929 . S
H961 C920 0.930 . S
H962 C921 0.930 . S
H963 C922 0.930 . S
H964 C926 0.929 . S
H965 C928 0.930 . S
H966 C934 0.929 . S
H967 C935 0.930 . S
Li968 N985 1.990 . S
Li968 O1028 1.956 . S
Li968 O1029 1.970 . S
Li968 O1030 1.961 . S
Li969 N993 1.990 . S
Li969 O1028 1.970 . S
Li969 O1029 1.956 . S
Li969 O1031 1.961 . S
Li970 N1015 1.990 . S
Li970 O1028 1.961 . S
Li970 O1030 1.956 . S
Li970 O1031 1.970 . S
Li971 N1021 1.990 . S
Li971 O1029 1.961 . S
Li971 O1030 1.970 . S
Li971 O1031 1.956 . S
C972 C974 1.348 . S
C972 C975 1.356 . S
C972 O1028 1.325 . S
N973 C976 1.314 . S
N973 C977 1.279 . S
C974 C972 1.348 . S
C974 C976 1.353 . S
C974 H1032 0.929 . S
C975 C972 1.356 . S
C975 C977 1.358 . S
C975 H1033 0.930 . S
C976 N973 1.314 . S
C976 C974 1.353 . S
C976 H1034 0.930 . S
C977 N973 1.279 . S
C977 C975 1.358 . S
C977 H1035 0.930 . S
C978 C981 1.348 . S
C978 C982 1.356 . S
C978 O1029 1.325 . S
C979 N980 1.279 . S
C979 C982 1.358 . S
C979 H1036 0.930 . S
N980 C979 1.279 . S
N980 C983 1.314 . S
C981 C978 1.348 . S
C981 C983 1.353 . S
C981 H1037 0.929 . S
C982 C978 1.356 . S
C982 C979 1.358 . S
C982 H1038 0.930 . S
C983 N980 1.314 . S
C983 C981 1.353 . S
C983 H1039 0.930 . S
C984 N985 1.314 . S
C984 C989 1.353 . S
C984 H990 0.930 . S
N985 Li968 1.990 . S
N985 C984 1.314 . S
N985 C987 1.279 . S
C986 C987 1.358 . S
C986 C988 1.356 . S
C986 H1040 0.930 . S
C987 N985 1.279 . S
C987 C986 1.358 . S
C987 H991 0.930 . S
C988 C986 1.356 . S
C988 C989 1.348 . S
C989 C984 1.353 . S
C989 C988 1.348 . S
C989 H1041 0.929 . S
H990 C984 0.930 . S
H991 C987 0.930 . S
C992 N993 1.314 . S
C992 C994 1.353 . S
C992 H998 0.930 . S
N993 Li969 1.990 . S
N993 C992 1.314 . S
N993 C996 1.279 . S
C994 C992 1.353 . S
C994 C997 1.348 . S
C994 H1042 0.929 . S
C995 C996 1.358 . S
C995 C997 1.356 . S
C995 H1043 0.930 . S
C996 N993 1.279 . S
C996 C995 1.358 . S
C996 H999 0.930 . S
C997 C994 1.348 . S
C997 C995 1.356 . S
H998 C992 0.930 . S
H999 C996 0.930 . S
C1000 C1002 1.348 . S
C1000 C1003 1.356 . S
C1000 O1030 1.325 . S
N1001 C1004 1.314 . S
N1001 C1005 1.279 . S
C1002 C1000 1.348 . S
C1002 C1004 1.353 . S
C1002 H1044 0.929 . S
C1003 C1000 1.356 . S
C1003 C1005 1.358 . S
C1003 H1045 0.930 . S
C1004 N1001 1.314 . S
C1004 C1002 1.353 . S
C1004 H1046 0.930 . S
C1005 N1001 1.279 . S
C1005 C1003 1.358 . S
C1005 H1047 0.930 . S
C1006 C1007 1.348 . S
C1006 C1008 1.356 . S
C1006 O1031 1.325 . S
C1007 C1006 1.348 . S
C1007 C1009 1.353 . S
C1007 H1048 0.929 . S
C1008 C1006 1.356 . S
C1008 C1010 1.358 . S
C1008 H1049 0.930 . S
C1009 C1007 1.353 . S
C1009 N1011 1.314 . S
C1009 H1050 0.930 . S
C1010 C1008 1.358 . S
C1010 N1011 1.279 . S
C1010 H1051 0.930 . S
N1011 C1009 1.314 . S
N1011 C1010 1.279 . S
C1012 C1014 1.353 . S
C1012 N1015 1.314 . S
C1012 H1018 0.930 . S
C1013 N1015 1.279 . S
C1013 C1016 1.358 . S
C1013 H1019 0.930 . S
C1014 C1012 1.353 . S
C1014 C1017 1.348 . S
C1014 H1052 0.929 . S
N1015 Li970 1.990 . S
N1015 C1012 1.314 . S
N1015 C1013 1.279 . S
C1016 C1013 1.358 . S
C1016 C1017 1.356 . S
C1016 H1053 0.930 . S
C1017 C1014 1.348 . S
C1017 C1016 1.356 . S
H1018 C1012 0.930 . S
H1019 C1013 0.930 . S
C1020 N1021 1.314 . S
C1020 C1022 1.353 . S
C1020 H1026 0.930 . S
N1021 Li971 1.990 . S
N1021 C1020 1.314 . S
N1021 C1024 1.279 . S
C1022 C1020 1.353 . S
C1022 C1025 1.348 . S
C1022 H1054 0.929 . S
C1023 C1024 1.358 . S
C1023 C1025 1.356 . S
C1023 H1055 0.930 . S
C1024 N1021 1.279 . S
C1024 C1023 1.358 . S
C1024 H1027 0.930 . S
C1025 C1022 1.348 . S
C1025 C1023 1.356 . S
H1026 C1020 0.930 . S
H1027 C1024 0.930 . S
O1028 Li968 1.956 . S
O1028 Li969 1.970 . S
O1028 Li970 1.961 . S
O1028 C972 1.325 . S
O1029 Li968 1.970 . S
O1029 Li969 1.956 . S
O1029 Li971 1.961 . S
O1029 C978 1.325 . S
O1030 Li968 1.961 . S
O1030 Li970 1.956 . S
O1030 Li971 1.970 . S
O1030 C1000 1.325 . S
O1031 Li969 1.961 . S
O1031 Li970 1.970 . S
O1031 Li971 1.956 . S
O1031 C1006 1.325 . S
H1032 C974 0.929 . S
H1033 C975 0.930 . S
H1034 C976 0.930 . S
H1035 C977 0.930 . S
H1036 C979 0.930 . S
H1037 C981 0.929 . S
H1038 C982 0.930 . S
H1039 C983 0.930 . S
H1040 C986 0.930 . S
H1041 C989 0.929 . S
H1042 C994 0.929 . S
H1043 C995 0.930 . S
H1044 C1002 0.929 . S
H1045 C1003 0.930 . S
H1046 C1004 0.930 . S
H1047 C1005 0.930 . S
H1048 C1007 0.929 . S
H1049 C1008 0.930 . S
H1050 C1009 0.930 . S
H1051 C1010 0.930 . S
H1052 C1014 0.929 . S
H1053 C1016 0.930 . S
H1054 C1022 0.929 . S
H1055 C1023 0.930 . S
Li1056 N1073 1.990 . S
Li1056 O1116 1.956 . S
Li1056 O1117 1.970 . S
Li1056 O1118 1.961 . S
Li1057 N1081 1.990 . S
Li1057 O1116 1.970 . S
Li1057 O1117 1.956 . S
Li1057 O1119 1.961 . S
Li1058 N1103 1.990 . S
Li1058 O1116 1.961 . S
Li1058 O1118 1.956 . S
Li1058 O1119 1.970 . S
Li1059 N1109 1.990 . S
Li1059 O1117 1.961 . S
Li1059 O1118 1.970 . S
Li1059 O1119 1.956 . S
C1060 C1062 1.348 . S
C1060 C1063 1.356 . S
C1060 O1116 1.325 . S
N1061 C1064 1.314 . S
N1061 C1065 1.279 . S
C1062 C1060 1.348 . S
C1062 C1064 1.353 . S
C1062 H1120 0.929 . S
C1063 C1060 1.356 . S
C1063 C1065 1.358 . S
C1063 H1121 0.930 . S
C1064 N1061 1.314 . S
C1064 C1062 1.353 . S
C1064 H1122 0.930 . S
C1065 N1061 1.279 . S
C1065 C1063 1.358 . S
C1065 H1123 0.930 . S
C1066 C1069 1.348 . S
C1066 C1070 1.356 . S
C1066 O1117 1.325 . S
C1067 N1068 1.279 . S
C1067 C1070 1.358 . S
C1067 H1124 0.930 . S
N1068 C1067 1.279 . S
N1068 C1071 1.314 . S
C1069 C1066 1.348 . S
C1069 C1071 1.353 . S
C1069 H1125 0.929 . S
C1070 C1066 1.356 . S
C1070 C1067 1.358 . S
C1070 H1126 0.930 . S
C1071 N1068 1.314 . S
C1071 C1069 1.353 . S
C1071 H1127 0.930 . S
C1072 N1073 1.314 . S
C1072 C1077 1.353 . S
C1072 H1078 0.930 . S
N1073 Li1056 1.990 . S
N1073 C1072 1.314 . S
N1073 C1075 1.279 . S
C1074 C1075 1.358 . S
C1074 C1076 1.356 . S
C1074 H1128 0.930 . S
C1075 N1073 1.279 . S
C1075 C1074 1.358 . S
C1075 H1079 0.930 . S
C1076 C1074 1.356 . S
C1076 C1077 1.348 . S
C1077 C1072 1.353 . S
C1077 C1076 1.348 . S
C1077 H1129 0.929 . S
H1078 C1072 0.930 . S
H1079 C1075 0.930 . S
C1080 N1081 1.314 . S
C1080 C1082 1.353 . S
C1080 H1086 0.930 . S
N1081 Li1057 1.990 . S
N1081 C1080 1.314 . S
N1081 C1084 1.279 . S
C1082 C1080 1.353 . S
C1082 C1085 1.348 . S
C1082 H1130 0.929 . S
C1083 C1084 1.358 . S
C1083 C1085 1.356 . S
C1083 H1131 0.930 . S
C1084 N1081 1.279 . S
C1084 C1083 1.358 . S
C1084 H1087 0.930 . S
C1085 C1082 1.348 . S
C1085 C1083 1.356 . S
H1086 C1080 0.930 . S
H1087 C1084 0.930 . S
C1088 C1090 1.348 . S
C1088 C1091 1.356 . S
C1088 O1118 1.325 . S
N1089 C1092 1.314 . S
N1089 C1093 1.279 . S
C1090 C1088 1.348 . S
C1090 C1092 1.353 . S
C1090 H1132 0.929 . S
C1091 C1088 1.356 . S
C1091 C1093 1.358 . S
C1091 H1133 0.930 . S
C1092 N1089 1.314 . S
C1092 C1090 1.353 . S
C1092 H1134 0.930 . S
C1093 N1089 1.279 . S
C1093 C1091 1.358 . S
C1093 H1135 0.930 . S
C1094 C1095 1.348 . S
C1094 C1096 1.356 . S
C1094 O1119 1.325 . S
C1095 C1094 1.348 . S
C1095 C1097 1.353 . S
C1095 H1136 0.929 . S
C1096 C1094 1.356 . S
C1096 C1098 1.358 . S
C1096 H1137 0.930 . S
C1097 C1095 1.353 . S
C1097 N1099 1.314 . S
C1097 H1138 0.930 . S
C1098 C1096 1.358 . S
C1098 N1099 1.279 . S
C1098 H1139 0.930 . S
N1099 C1097 1.314 . S
N1099 C1098 1.279 . S
C1100 C1102 1.353 . S
C1100 N1103 1.314 . S
C1100 H1106 0.930 . S
C1101 N1103 1.279 . S
C1101 C1104 1.358 . S
C1101 H1107 0.930 . S
C1102 C1100 1.353 . S
C1102 C1105 1.348 . S
C1102 H1140 0.929 . S
N1103 Li1058 1.990 . S
N1103 C1100 1.314 . S
N1103 C1101 1.279 . S
C1104 C1101 1.358 . S
C1104 C1105 1.356 . S
C1104 H1141 0.930 . S
C1105 C1102 1.348 . S
C1105 C1104 1.356 . S
H1106 C1100 0.930 . S
H1107 C1101 0.930 . S
C1108 N1109 1.314 . S
C1108 C1110 1.353 . S
C1108 H1114 0.930 . S
N1109 Li1059 1.990 . S
N1109 C1108 1.314 . S
N1109 C1112 1.279 . S
C1110 C1108 1.353 . S
C1110 C1113 1.348 . S
C1110 H1142 0.929 . S
C1111 C1112 1.358 . S
C1111 C1113 1.356 . S
C1111 H1143 0.930 . S
C1112 N1109 1.279 . S
C1112 C1111 1.358 . S
C1112 H1115 0.930 . S
C1113 C1110 1.348 . S
C1113 C1111 1.356 . S
H1114 C1108 0.930 . S
H1115 C1112 0.930 . S
O1116 Li1056 1.956 . S
O1116 Li1057 1.970 . S
O1116 Li1058 1.961 . S
O1116 C1060 1.325 . S
O1117 Li1056 1.970 . S
O1117 Li1057 1.956 . S
O1117 Li1059 1.961 . S
O1117 C1066 1.325 . S
O1118 Li1056 1.961 . S
O1118 Li1058 1.956 . S
O1118 Li1059 1.970 . S
O1118 C1088 1.325 . S
O1119 Li1057 1.961 . S
O1119 Li1058 1.970 . S
O1119 Li1059 1.956 . S
O1119 C1094 1.325 . S
H1120 C1062 0.929 . S
H1121 C1063 0.930 . S
H1122 C1064 0.930 . S
H1123 C1065 0.930 . S
H1124 C1067 0.930 . S
H1125 C1069 0.929 . S
H1126 C1070 0.930 . S
H1127 C1071 0.930 . S
H1128 C1074 0.930 . S
H1129 C1077 0.929 . S
H1130 C1082 0.929 . S
H1131 C1083 0.930 . S
H1132 C1090 0.929 . S
H1133 C1091 0.930 . S
H1134 C1092 0.930 . S
H1135 C1093 0.930 . S
H1136 C1095 0.929 . S
H1137 C1096 0.930 . S
H1138 C1097 0.930 . S
H1139 C1098 0.930 . S
H1140 C1102 0.929 . S
H1141 C1104 0.930 . S
H1142 C1110 0.929 . S
H1143 C1111 0.930 . S
Li1144 N1161 1.994 . S
Li1144 O1204 1.998 . S
Li1144 O1205 1.926 1_455 S
Li1144 O1206 1.958 1_455 S
Li1145 N1169 1.992 . S
Li1145 O1204 1.941 1_655 S
Li1145 O1205 1.983 . S
Li1145 O1207 1.958 1_655 S
Li1146 N1191 1.990 . S
Li1146 O1204 1.961 . S
Li1146 O1206 1.933 1_455 S
Li1146 O1207 2.005 . S
Li1147 N1197 1.990 . S
Li1147 O1205 1.961 . S
Li1147 O1206 1.992 . S
Li1147 O1207 1.919 1_655 S
C1148 C1150 1.348 . S
C1148 C1151 1.356 . S
C1148 O1204 1.325 . S
N1149 C1152 1.314 . S
N1149 C1153 1.279 . S
C1150 C1148 1.348 . S
C1150 C1152 1.353 . S
C1150 H1208 0.929 . S
C1151 C1148 1.356 . S
C1151 C1153 1.358 . S
C1151 H1209 0.930 . S
C1152 N1149 1.314 . S
C1152 C1150 1.353 . S
C1152 H1210 0.930 . S
C1153 N1149 1.279 . S
C1153 C1151 1.358 . S
C1153 H1211 0.930 . S
C1154 C1157 1.348 . S
C1154 C1158 1.356 . S
C1154 O1205 1.325 . S
C1155 N1156 1.279 . S
C1155 C1158 1.358 . S
C1155 H1212 0.930 . S
N1156 C1155 1.279 . S
N1156 C1159 1.314 . S
C1157 C1154 1.348 . S
C1157 C1159 1.353 . S
C1157 H1213 0.929 . S
C1158 C1154 1.356 . S
C1158 C1155 1.358 . S
C1158 H1214 0.930 . S
C1159 N1156 1.314 . S
C1159 C1157 1.353 . S
C1159 H1215 0.930 . S
C1160 N1161 1.314 1_655 S
C1160 C1165 1.353 . S
C1160 H1166 0.930 . S
N1161 Li1144 1.994 . S
N1161 C1160 1.314 1_455 S
N1161 C1163 1.279 . S
C1162 C1163 1.358 . S
C1162 C1164 1.356 . S
C1162 H1216 0.930 . S
C1163 N1161 1.279 . S
C1163 C1162 1.358 . S
C1163 H1167 0.930 . S
C1164 C1162 1.356 . S
C1164 C1165 1.348 1_455 S
C1165 C1160 1.353 . S
C1165 C1164 1.348 1_655 S
C1165 H1217 0.929 . S
H1166 C1160 0.930 . S
H1167 C1163 0.930 . S
C1168 N1169 1.314 1_455 S
C1168 C1170 1.353 . S
C1168 H1174 0.930 . S
N1169 Li1145 1.992 . S
N1169 C1168 1.314 1_655 S
N1169 C1172 1.279 . S
C1170 C1168 1.353 . S
C1170 C1173 1.348 . S
C1170 H1218 0.929 . S
C1171 C1172 1.358 . S
C1171 C1173 1.356 1_655 S
C1171 H1219 0.930 . S
C1172 N1169 1.279 . S
C1172 C1171 1.358 . S
C1172 H1175 0.930 . S
C1173 C1170 1.348 . S
C1173 C1171 1.356 1_455 S
H1174 C1168 0.930 . S
H1175 C1172 0.930 . S
C1176 C1178 1.348 1_455 S
C1176 C1179 1.356 . S
C1176 O1206 1.324 1_455 S
N1177 C1180 1.314 1_455 S
N1177 C1181 1.279 . S
C1178 C1176 1.348 1_655 S
C1178 C1180 1.353 . S
C1178 H1220 0.929 . S
C1179 C1176 1.356 . S
C1179 C1181 1.358 . S
C1179 H1221 0.930 . S
C1180 N1177 1.314 1_655 S
C1180 C1178 1.353 . S
C1180 H1222 0.930 . S
C1181 N1177 1.279 . S
C1181 C1179 1.358 . S
C1181 H1223 0.930 . S
C1182 C1183 1.348 . S
C1182 C1184 1.356 1_455 S
C1182 O1207 1.324 . S
C1183 C1182 1.348 . S
C1183 C1185 1.353 . S
C1183 H1224 0.929 . S
C1184 C1182 1.356 1_655 S
C1184 C1186 1.358 . S
C1184 H1225 0.930 . S
C1185 C1183 1.353 . S
C1185 N1187 1.314 1_455 S
C1185 H1226 0.930 . S
C1186 C1184 1.358 . S
C1186 N1187 1.279 . S
C1186 H1227 0.930 . S
N1187 C1185 1.314 1_655 S
N1187 C1186 1.279 . S
C1188 C1190 1.353 . S
C1188 N1191 1.314 . S
C1188 H1194 0.930 . S
C1189 N1191 1.279 . S
C1189 C1192 1.358 . S
C1189 H1195 0.930 . S
C1190 C1188 1.353 . S
C1190 C1193 1.348 . S
C1190 H1228 0.929 . S
N1191 Li1146 1.990 . S
N1191 C1188 1.314 . S
N1191 C1189 1.279 . S
C1192 C1189 1.358 . S
C1192 C1193 1.356 . S
C1192 H1229 0.930 . S
C1193 C1190 1.348 . S
C1193 C1192 1.356 . S
H1194 C1188 0.930 . S
H1195 C1189 0.930 . S
C1196 N1197 1.314 . S
C1196 C1198 1.353 . S
C1196 H1202 0.930 . S
N1197 Li1147 1.990 . S
N1197 C1196 1.314 . S
N1197 C1200 1.279 . S
C1198 C1196 1.353 . S
C1198 C1201 1.348 . S
C1198 H1230 0.929 . S
C1199 C1200 1.358 . S
C1199 C1201 1.356 . S
C1199 H1231 0.930 . S
C1200 N1197 1.279 . S
C1200 C1199 1.358 . S
C1200 H1203 0.930 . S
C1201 C1198 1.348 . S
C1201 C1199 1.356 . S
H1202 C1196 0.930 . S
H1203 C1200 0.930 . S
O1204 Li1144 1.998 . S
O1204 Li1145 1.941 1_455 S
O1204 Li1146 1.961 . S
O1204 C1148 1.325 . S
O1205 Li1144 1.926 1_655 S
O1205 Li1145 1.983 . S
O1205 Li1147 1.961 . S
O1205 C1154 1.325 . S
O1206 Li1144 1.958 1_655 S
O1206 Li1146 1.933 1_655 S
O1206 Li1147 1.992 . S
O1206 C1176 1.324 1_655 S
O1207 Li1145 1.958 1_455 S
O1207 Li1146 2.005 . S
O1207 Li1147 1.919 1_455 S
O1207 C1182 1.324 . S
H1208 C1150 0.929 . S
H1209 C1151 0.930 . S
H1210 C1152 0.930 . S
H1211 C1153 0.930 . S
H1212 C1155 0.930 . S
H1213 C1157 0.929 . S
H1214 C1158 0.930 . S
H1215 C1159 0.930 . S
H1216 C1162 0.930 . S
H1217 C1165 0.929 . S
H1218 C1170 0.929 . S
H1219 C1171 0.930 . S
H1220 C1178 0.929 . S
H1221 C1179 0.930 . S
H1222 C1180 0.930 . S
H1223 C1181 0.930 . S
H1224 C1183 0.929 . S
H1225 C1184 0.930 . S
H1226 C1185 0.930 . S
H1227 C1186 0.930 . S
H1228 C1190 0.929 . S
H1229 C1192 0.930 . S
H1230 C1198 0.929 . S
H1231 C1199 0.930 . S
Li1232 N1249 1.990 . S
Li1232 O1292 1.956 . S
Li1232 O1293 1.970 . S
Li1232 O1294 1.961 . S
Li1233 N1257 1.990 . S
Li1233 O1292 1.970 . S
Li1233 O1293 1.956 . S
Li1233 O1295 1.961 . S
Li1234 N1279 1.990 . S
Li1234 O1292 1.961 . S
Li1234 O1294 1.956 . S
Li1234 O1295 1.970 . S
Li1235 N1285 1.990 . S
Li1235 O1293 1.961 . S
Li1235 O1294 1.970 . S
Li1235 O1295 1.956 . S
C1236 C1238 1.348 . S
C1236 C1239 1.356 . S
C1236 O1292 1.325 . S
N1237 C1240 1.314 . S
N1237 C1241 1.279 . S
C1238 C1236 1.348 . S
C1238 C1240 1.353 . S
C1238 H1296 0.929 . S
C1239 C1236 1.356 . S
C1239 C1241 1.358 . S
C1239 H1297 0.930 . S
C1240 N1237 1.314 . S
C1240 C1238 1.353 . S
C1240 H1298 0.930 . S
C1241 N1237 1.279 . S
C1241 C1239 1.358 . S
C1241 H1299 0.930 . S
C1242 C1245 1.348 . S
C1242 C1246 1.356 . S
C1242 O1293 1.325 . S
C1243 N1244 1.279 . S
C1243 C1246 1.358 . S
C1243 H1300 0.930 . S
N1244 C1243 1.279 . S
N1244 C1247 1.314 . S
C1245 C1242 1.348 . S
C1245 C1247 1.353 . S
C1245 H1301 0.929 . S
C1246 C1242 1.356 . S
C1246 C1243 1.358 . S
C1246 H1302 0.930 . S
C1247 N1244 1.314 . S
C1247 C1245 1.353 . S
C1247 H1303 0.930 . S
C1248 N1249 1.314 . S
C1248 C1253 1.353 . S
C1248 H1254 0.930 . S
N1249 Li1232 1.990 . S
N1249 C1248 1.314 . S
N1249 C1251 1.279 . S
C1250 C1251 1.358 . S
C1250 C1252 1.356 . S
C1250 H1304 0.930 . S
C1251 N1249 1.279 . S
C1251 C1250 1.358 . S
C1251 H1255 0.930 . S
C1252 C1250 1.356 . S
C1252 C1253 1.348 . S
C1253 C1248 1.353 . S
C1253 C1252 1.348 . S
C1253 H1305 0.929 . S
H1254 C1248 0.930 . S
H1255 C1251 0.930 . S
C1256 N1257 1.314 . S
C1256 C1258 1.353 . S
C1256 H1262 0.930 . S
N1257 Li1233 1.990 . S
N1257 C1256 1.314 . S
N1257 C1260 1.279 . S
C1258 C1256 1.353 . S
C1258 C1261 1.348 . S
C1258 H1306 0.929 . S
C1259 C1260 1.358 . S
C1259 C1261 1.356 . S
C1259 H1307 0.930 . S
C1260 N1257 1.279 . S
C1260 C1259 1.358 . S
C1260 H1263 0.930 . S
C1261 C1258 1.348 . S
C1261 C1259 1.356 . S
H1262 C1256 0.930 . S
H1263 C1260 0.930 . S
C1264 C1266 1.348 . S
C1264 C1267 1.356 . S
C1264 O1294 1.325 . S
N1265 C1268 1.314 . S
N1265 C1269 1.279 . S
C1266 C1264 1.348 . S
C1266 C1268 1.353 . S
C1266 H1308 0.929 . S
C1267 C1264 1.356 . S
C1267 C1269 1.358 . S
C1267 H1309 0.930 . S
C1268 N1265 1.314 . S
C1268 C1266 1.353 . S
C1268 H1310 0.930 . S
C1269 N1265 1.279 . S
C1269 C1267 1.358 . S
C1269 H1311 0.930 . S
C1270 C1271 1.348 . S
C1270 C1272 1.356 . S
C1270 O1295 1.325 . S
C1271 C1270 1.348 . S
C1271 C1273 1.353 . S
C1271 H1312 0.929 . S
C1272 C1270 1.356 . S
C1272 C1274 1.358 . S
C1272 H1313 0.930 . S
C1273 C1271 1.353 . S
C1273 N1275 1.314 . S
C1273 H1314 0.930 . S
C1274 C1272 1.358 . S
C1274 N1275 1.279 . S
C1274 H1315 0.930 . S
N1275 C1273 1.314 . S
N1275 C1274 1.279 . S
C1276 C1278 1.353 . S
C1276 N1279 1.314 . S
C1276 H1282 0.930 . S
C1277 N1279 1.279 . S
C1277 C1280 1.358 . S
C1277 H1283 0.930 . S
C1278 C1276 1.353 . S
C1278 C1281 1.348 . S
C1278 H1316 0.929 . S
N1279 Li1234 1.990 . S
N1279 C1276 1.314 . S
N1279 C1277 1.279 . S
C1280 C1277 1.358 . S
C1280 C1281 1.356 . S
C1280 H1317 0.930 . S
C1281 C1278 1.348 . S
C1281 C1280 1.356 . S
H1282 C1276 0.930 . S
H1283 C1277 0.930 . S
C1284 N1285 1.314 . S
C1284 C1286 1.353 . S
C1284 H1290 0.930 . S
N1285 Li1235 1.990 . S
N1285 C1284 1.314 . S
N1285 C1288 1.279 . S
C1286 C1284 1.353 . S
C1286 C1289 1.348 . S
C1286 H1318 0.929 . S
C1287 C1288 1.358 . S
C1287 C1289 1.356 . S
C1287 H1319 0.930 . S
C1288 N1285 1.279 . S
C1288 C1287 1.358 . S
C1288 H1291 0.930 . S
C1289 C1286 1.348 . S
C1289 C1287 1.356 . S
H1290 C1284 0.930 . S
H1291 C1288 0.930 . S
O1292 Li1232 1.956 . S
O1292 Li1233 1.970 . S
O1292 Li1234 1.961 . S
O1292 C1236 1.325 . S
O1293 Li1232 1.970 . S
O1293 Li1233 1.956 . S
O1293 Li1235 1.961 . S
O1293 C1242 1.325 . S
O1294 Li1232 1.961 . S
O1294 Li1234 1.956 . S
O1294 Li1235 1.970 . S
O1294 C1264 1.325 . S
O1295 Li1233 1.961 . S
O1295 Li1234 1.970 . S
O1295 Li1235 1.956 . S
O1295 C1270 1.325 . S
H1296 C1238 0.929 . S
H1297 C1239 0.930 . S
H1298 C1240 0.930 . S
H1299 C1241 0.930 . S
H1300 C1243 0.930 . S
H1301 C1245 0.929 . S
H1302 C1246 0.930 . S
H1303 C1247 0.930 . S
H1304 C1250 0.930 . S
H1305 C1253 0.929 . S
H1306 C1258 0.929 . S
H1307 C1259 0.930 . S
H1308 C1266 0.929 . S
H1309 C1267 0.930 . S
H1310 C1268 0.930 . S
H1311 C1269 0.930 . S
H1312 C1271 0.929 . S
H1313 C1272 0.930 . S
H1314 C1273 0.930 . S
H1315 C1274 0.930 . S
H1316 C1278 0.929 . S
H1317 C1280 0.930 . S
H1318 C1286 0.929 . S
H1319 C1287 0.930 . S
Li1320 N1337 1.990 . S
Li1320 O1380 1.933 1_455 S
Li1320 O1381 2.005 . S
Li1320 O1382 1.961 . S
Li1321 N1345 1.990 . S
Li1321 O1380 1.992 . S
Li1321 O1381 1.919 1_655 S
Li1321 O1383 1.961 . S
Li1322 N1367 1.994 . S
Li1322 O1380 1.958 1_455 S
Li1322 O1382 1.998 . S
Li1322 O1383 1.926 1_455 S
Li1323 N1373 1.992 . S
Li1323 O1381 1.958 1_655 S
Li1323 O1382 1.941 1_655 S
Li1323 O1383 1.983 . S
C1324 C1326 1.348 1_455 S
C1324 C1327 1.356 . S
C1324 O1380 1.324 1_455 S
N1325 C1328 1.314 1_454 S
N1325 C1329 1.279 1_554 S
C1326 C1324 1.348 1_655 S
C1326 C1328 1.353 . S
C1326 H1384 0.929 . S
C1327 C1324 1.356 . S
C1327 C1329 1.358 . S
C1327 H1385 0.930 . S
C1328 N1325 1.314 1_656 S
C1328 C1326 1.353 . S
C1328 H1386 0.930 . S
C1329 N1325 1.279 1_556 S
C1329 C1327 1.358 . S
C1329 H1387 0.930 1_556 S
C1330 C1333 1.348 . S
C1330 C1334 1.356 1_455 S
C1330 O1381 1.324 . S
C1331 N1332 1.279 . S
C1331 C1334 1.358 . S
C1331 H1388 0.930 . S
N1332 C1331 1.279 . S
N1332 C1335 1.314 1_655 S
C1333 C1330 1.348 . S
C1333 C1335 1.353 . S
C1333 H1389 0.929 . S
C1334 C1330 1.356 1_655 S
C1334 C1331 1.358 . S
C1334 H1390 0.930 . S
C1335 N1332 1.314 1_455 S
C1335 C1333 1.353 . S
C1335 H1391 0.930 . S
C1336 N1337 1.314 . S
C1336 C1341 1.353 . S
C1336 H1342 0.930 . S
N1337 Li1320 1.990 . S
N1337 C1336 1.314 . S
N1337 C1339 1.279 . S
C1338 C1339 1.358 . S
C1338 C1340 1.356 . S
C1338 H1392 0.930 . S
C1339 N1337 1.279 . S
C1339 C1338 1.358 . S
C1339 H1343 0.930 . S
C1340 C1338 1.356 . S
C1340 C1341 1.348 . S
C1341 C1336 1.353 . S
C1341 C1340 1.348 . S
C1341 H1393 0.929 . S
H1342 C1336 0.930 . S
H1343 C1339 0.930 . S
C1344 N1345 1.314 . S
C1344 C1346 1.353 . S
C1344 H1350 0.930 . S
N1345 Li1321 1.990 . S
N1345 C1344 1.314 . S
N1345 C1348 1.279 . S
C1346 C1344 1.353 . S
C1346 C1349 1.348 . S
C1346 H1394 0.929 . S
C1347 C1348 1.358 . S
C1347 C1349 1.356 . S
C1347 H1395 0.930 . S
C1348 N1345 1.279 . S
C1348 C1347 1.358 . S
C1348 H1351 0.930 . S
C1349 C1346 1.348 . S
C1349 C1347 1.356 . S
H1350 C1344 0.930 . S
H1351 C1348 0.930 . S
C1352 C1354 1.348 . S
C1352 C1355 1.356 . S
C1352 O1382 1.325 . S
N1353 C1356 1.314 . S
N1353 C1357 1.279 . S
C1354 C1352 1.348 . S
C1354 C1356 1.353 . S
C1354 H1396 0.929 . S
C1355 C1352 1.356 . S
C1355 C1357 1.358 . S
C1355 H1397 0.930 . S
C1356 N1353 1.314 . S
C1356 C1354 1.353 . S
C1356 H1398 0.930 . S
C1357 N1353 1.279 . S
C1357 C1355 1.358 . S
C1357 H1399 0.930 . S
C1358 C1359 1.348 . S
C1358 C1360 1.356 . S
C1358 O1383 1.325 . S
C1359 C1358 1.348 . S
C1359 C1361 1.353 . S
C1359 H1400 0.929 . S
C1360 C1358 1.356 . S
C1360 C1362 1.358 . S
C1360 H1401 0.930 . S
C1361 C1359 1.353 . S
C1361 N1363 1.314 . S
C1361 H1402 0.930 . S
C1362 C1360 1.358 . S
C1362 N1363 1.279 . S
C1362 H1403 0.930 . S
N1363 C1361 1.314 . S
N1363 C1362 1.279 . S
C1364 C1366 1.353 . S
C1364 N1367 1.314 1_655 S
C1364 H1370 0.930 . S
C1365 N1367 1.279 . S
C1365 C1368 1.358 . S
C1365 H1371 0.930 . S
C1366 C1364 1.353 . S
C1366 C1369 1.348 1_655 S
C1366 H1404 0.929 1_556 S
N1367 Li1322 1.994 . S
N1367 C1364 1.314 1_455 S
N1367 C1365 1.279 . S
C1368 C1365 1.358 . S
C1368 C1369 1.356 . S
C1368 H1405 0.930 . S
C1369 C1366 1.348 1_455 S
C1369 C1368 1.356 . S
H1370 C1364 0.930 . S
H1371 C1365 0.930 . S
C1372 N1373 1.314 1_455 S
C1372 C1374 1.353 . S
C1372 H1378 0.930 . S
N1373 Li1323 1.992 . S
N1373 C1372 1.314 1_655 S
N1373 C1376 1.279 . S
C1374 C1372 1.353 . S
C1374 C1377 1.348 . S
C1374 H1406 0.929 . S
C1375 C1376 1.358 . S
C1375 C1377 1.356 1_655 S
C1375 H1407 0.930 . S
C1376 N1373 1.279 . S
C1376 C1375 1.358 . S
C1376 H1379 0.930 . S
C1377 C1374 1.348 . S
C1377 C1375 1.356 1_455 S
H1378 C1372 0.930 . S
H1379 C1376 0.930 . S
O1380 Li1320 1.933 1_655 S
O1380 Li1321 1.992 . S
O1380 Li1322 1.958 1_655 S
O1380 C1324 1.324 1_655 S
O1381 Li1320 2.005 . S
O1381 Li1321 1.919 1_455 S
O1381 Li1323 1.958 1_455 S
O1381 C1330 1.324 . S
O1382 Li1320 1.961 . S
O1382 Li1322 1.998 . S
O1382 Li1323 1.941 1_455 S
O1382 C1352 1.325 . S
O1383 Li1321 1.961 . S
O1383 Li1322 1.926 1_655 S
O1383 Li1323 1.983 . S
O1383 C1358 1.325 . S
H1384 C1326 0.929 . S
H1385 C1327 0.930 . S
H1386 C1328 0.930 . S
H1387 C1329 0.930 1_554 S
H1388 C1331 0.930 . S
H1389 C1333 0.929 . S
H1390 C1334 0.930 . S
H1391 C1335 0.930 . S
H1392 C1338 0.930 . S
H1393 C1341 0.929 . S
H1394 C1346 0.929 . S
H1395 C1347 0.930 . S
H1396 C1354 0.929 . S
H1397 C1355 0.930 . S
H1398 C1356 0.930 . S
H1399 C1357 0.930 . S
H1400 C1359 0.929 . S
H1401 C1360 0.930 . S
H1402 C1361 0.930 . S
H1403 C1362 0.930 . S
H1404 C1366 0.929 1_554 S
H1405 C1368 0.930 . S
H1406 C1374 0.929 . S
H1407 C1375 0.930 . S
H1408 C1426 0.951 . S
H1409 C1428 0.951 . S
H1410 C1430 0.950 . S
H1411 C1431 0.950 . S
H1412 C1433 0.950 . S
H1413 C1436 0.950 . S
H1414 C1437 0.950 . S
H1415 C1439 0.950 . S
H1416 C1440 0.950 . S
H1417 C1441 0.951 . S
H1418 C1443 0.951 . S
H1419 C1445 0.950 . S
H1420 C1446 0.950 . S
H1421 C1448 0.950 . S
H1422 C1451 0.950 . S
H1423 C1452 0.950 . S
H1424 C1454 0.950 . S
H1425 C1455 0.950 . S
C1426 H1408 0.951 . S
C1426 C1427 1.366 . S
C1426 C1428 1.388 . S
C1427 C1426 1.366 . S
C1427 C1431 1.385 . S
C1428 H1409 0.951 . S
C1428 C1426 1.388 . S
C1428 C1429 1.366 . S
C1429 C1428 1.366 . S
C1429 C1430 1.414 . S
C1429 C1432 1.499 . S
C1430 H1410 0.950 . S
C1430 C1429 1.414 . S
C1430 C1431 1.374 . S
C1431 H1411 0.950 . S
C1431 C1427 1.385 . S
C1431 C1430 1.374 . S
C1432 C1429 1.499 . S
C1432 C1433 1.373 . S
C1432 C1434 1.389 . S
C1433 H1412 0.950 . S
C1433 C1432 1.373 . S
C1433 C1449 1.377 . S
C1434 C1432 1.389 . S
C1434 C1435 1.524 . S
C1434 C1448 1.377 . S
C1435 C1434 1.524 . S
C1435 C1436 1.397 . S
C1435 C1440 1.363 . S
C1436 H1413 0.950 . S
C1436 C1435 1.397 . S
C1436 C1437 1.334 . S
C1437 H1414 0.950 . S
C1437 C1436 1.334 . S
C1437 C1438 1.287 . S
C1438 C1437 1.287 . S
C1438 C1439 1.524 . S
C1438 H1457 0.913 . S
C1439 H1415 0.950 . S
C1439 C1438 1.524 . S
C1439 C1440 1.415 . S
C1440 H1416 0.950 . S
C1440 C1435 1.363 . S
C1440 C1439 1.415 . S
C1441 H1417 0.951 . S
C1441 C1442 1.366 . S
C1441 C1443 1.388 . S
C1442 C1441 1.366 . S
C1442 C1446 1.385 . S
C1443 H1418 0.951 . S
C1443 C1441 1.388 . S
C1443 C1444 1.366 . S
C1444 C1443 1.366 . S
C1444 C1445 1.414 . S
C1444 C1447 1.499 . S
C1445 H1419 0.950 . S
C1445 C1444 1.414 . S
C1445 C1446 1.374 . S
C1446 H1420 0.950 . S
C1446 C1442 1.385 . S
C1446 C1445 1.374 . S
C1447 C1444 1.499 . S
C1447 C1448 1.373 . S
C1447 C1449 1.389 . S
C1448 H1421 0.950 . S
C1448 C1434 1.377 . S
C1448 C1447 1.373 . S
C1449 C1433 1.377 . S
C1449 C1447 1.389 . S
C1449 C1450 1.524 . S
C1450 C1449 1.524 . S
C1450 C1451 1.397 . S
C1450 C1455 1.363 . S
C1451 H1422 0.950 . S
C1451 C1450 1.397 . S
C1451 C1452 1.334 . S
C1452 H1423 0.950 . S
C1452 C1451 1.334 . S
C1452 C1453 1.287 . S
C1453 C1452 1.287 . S
C1453 C1454 1.524 . S
C1453 H1456 0.999 . S
C1454 H1424 0.950 . S
C1454 C1453 1.524 . S
C1454 C1455 1.415 . S
C1455 H1425 0.950 . S
C1455 C1450 1.363 . S
C1455 C1454 1.415 . S
H1456 C1453 0.999 . S
H1457 C1438 0.913 . S
H1458 C1476 0.951 . S
H1459 C1478 0.951 . S
H1460 C1480 0.950 . S
H1461 C1481 0.950 . S
H1462 C1483 0.950 . S
H1463 C1486 0.950 . S
H1464 C1487 0.950 . S
H1465 C1489 0.950 . S
H1466 C1490 0.950 . S
H1467 C1491 0.951 . S
H1468 C1493 0.951 . S
H1469 C1495 0.950 . S
H1470 C1496 0.950 . S
H1471 C1498 0.950 . S
H1472 C1501 0.950 . S
H1473 C1502 0.950 . S
H1474 C1504 0.950 . S
H1475 C1505 0.950 . S
C1476 H1458 0.951 . S
C1476 C1477 1.366 . S
C1476 C1478 1.388 . S
C1477 C1476 1.366 . S
C1477 C1481 1.385 . S
C1478 H1459 0.951 . S
C1478 C1476 1.388 . S
C1478 C1479 1.366 . S
C1479 C1478 1.366 . S
C1479 C1480 1.414 . S
C1479 C1482 1.499 . S
C1480 H1460 0.950 . S
C1480 C1479 1.414 . S
C1480 C1481 1.374 . S
C1481 H1461 0.950 . S
C1481 C1477 1.385 . S
C1481 C1480 1.374 . S
C1482 C1479 1.499 . S
C1482 C1483 1.373 . S
C1482 C1484 1.389 . S
C1483 H1462 0.950 . S
C1483 C1482 1.373 . S
C1483 C1499 1.377 . S
C1484 C1482 1.389 . S
C1484 C1485 1.524 . S
C1484 C1498 1.377 . S
C1485 C1484 1.524 . S
C1485 C1486 1.397 . S
C1485 C1490 1.363 . S
C1486 H1463 0.950 . S
C1486 C1485 1.397 . S
C1486 C1487 1.334 . S
C1487 H1464 0.950 . S
C1487 C1486 1.334 . S
C1487 C1488 1.287 . S
C1488 C1487 1.287 . S
C1488 C1489 1.524 . S
C1488 H1507 0.913 . S
C1489 H1465 0.950 . S
C1489 C1488 1.524 . S
C1489 C1490 1.415 . S
C1490 H1466 0.950 . S
C1490 C1485 1.363 . S
C1490 C1489 1.415 . S
C1491 H1467 0.951 . S
C1491 C1492 1.366 . S
C1491 C1493 1.388 . S
C1492 C1491 1.366 . S
C1492 C1496 1.385 . S
C1493 H1468 0.951 . S
C1493 C1491 1.388 . S
C1493 C1494 1.366 . S
C1494 C1493 1.366 . S
C1494 C1495 1.414 . S
C1494 C1497 1.499 . S
C1495 H1469 0.950 . S
C1495 C1494 1.414 . S
C1495 C1496 1.374 . S
C1496 H1470 0.950 . S
C1496 C1492 1.385 . S
C1496 C1495 1.374 . S
C1497 C1494 1.499 . S
C1497 C1498 1.373 . S
C1497 C1499 1.389 . S
C1498 H1471 0.950 . S
C1498 C1484 1.377 . S
C1498 C1497 1.373 . S
C1499 C1483 1.377 . S
C1499 C1497 1.389 . S
C1499 C1500 1.524 . S
C1500 C1499 1.524 . S
C1500 C1501 1.397 . S
C1500 C1505 1.363 . S
C1501 H1472 0.950 . S
C1501 C1500 1.397 . S
C1501 C1502 1.334 . S
C1502 H1473 0.950 . S
C1502 C1501 1.334 . S
C1502 C1503 1.287 . S
C1503 C1502 1.287 . S
C1503 C1504 1.524 . S
C1503 H1506 0.999 . S
C1504 H1474 0.950 . S
C1504 C1503 1.524 . S
C1504 C1505 1.415 . S
C1505 H1475 0.950 . S
C1505 C1500 1.363 . S
C1505 C1504 1.415 . S
H1506 C1503 0.999 . S
H1507 C1488 0.913 . S
H1508 C1526 0.951 . S
H1509 C1528 0.951 . S
H1510 C1530 0.950 . S
H1511 C1531 0.950 . S
H1512 C1533 0.950 . S
H1513 C1536 0.950 . S
H1514 C1537 0.950 . S
H1515 C1539 0.950 . S
H1516 C1540 0.950 . S
H1517 C1541 0.951 . S
H1518 C1543 0.951 . S
H1519 C1545 0.950 . S
H1520 C1546 0.950 . S
H1521 C1548 0.950 . S
H1522 C1551 0.950 . S
H1523 C1552 0.950 . S
H1524 C1554 0.950 . S
H1525 C1555 0.950 . S
C1526 H1508 0.951 . S
C1526 C1527 1.366 . S
C1526 C1528 1.388 . S
C1527 C1526 1.366 . S
C1527 C1531 1.385 . S
C1528 H1509 0.951 . S
C1528 C1526 1.388 . S
C1528 C1529 1.366 . S
C1529 C1528 1.366 . S
C1529 C1530 1.414 . S
C1529 C1532 1.499 . S
C1530 H1510 0.950 . S
C1530 C1529 1.414 . S
C1530 C1531 1.374 . S
C1531 H1511 0.950 . S
C1531 C1527 1.385 . S
C1531 C1530 1.374 . S
C1532 C1529 1.499 . S
C1532 C1533 1.373 . S
C1532 C1534 1.389 . S
C1533 H1512 0.950 . S
C1533 C1532 1.373 . S
C1533 C1549 1.377 . S
C1534 C1532 1.389 . S
C1534 C1535 1.524 . S
C1534 C1548 1.377 . S
C1535 C1534 1.524 . S
C1535 C1536 1.397 . S
C1535 C1540 1.363 . S
C1536 H1513 0.950 . S
C1536 C1535 1.397 . S
C1536 C1537 1.334 . S
C1537 H1514 0.950 . S
C1537 C1536 1.334 . S
C1537 C1538 1.287 . S
C1538 C1537 1.287 . S
C1538 C1539 1.524 . S
C1538 H1557 0.913 . S
C1539 H1515 0.950 . S
C1539 C1538 1.524 . S
C1539 C1540 1.415 . S
C1540 H1516 0.950 . S
C1540 C1535 1.363 . S
C1540 C1539 1.415 . S
C1541 H1517 0.951 . S
C1541 C1542 1.366 . S
C1541 C1543 1.388 . S
C1542 C1541 1.366 . S
C1542 C1546 1.385 . S
C1543 H1518 0.951 . S
C1543 C1541 1.388 . S
C1543 C1544 1.366 . S
C1544 C1543 1.366 . S
C1544 C1545 1.414 . S
C1544 C1547 1.499 . S
C1545 H1519 0.950 . S
C1545 C1544 1.414 . S
C1545 C1546 1.374 . S
C1546 H1520 0.950 . S
C1546 C1542 1.385 . S
C1546 C1545 1.374 . S
C1547 C1544 1.499 . S
C1547 C1548 1.373 . S
C1547 C1549 1.389 . S
C1548 H1521 0.950 . S
C1548 C1534 1.377 . S
C1548 C1547 1.373 . S
C1549 C1533 1.377 . S
C1549 C1547 1.389 . S
C1549 C1550 1.524 . S
C1550 C1549 1.524 . S
C1550 C1551 1.397 . S
C1550 C1555 1.363 . S
C1551 H1522 0.950 . S
C1551 C1550 1.397 . S
C1551 C1552 1.334 . S
C1552 H1523 0.950 . S
C1552 C1551 1.334 . S
C1552 C1553 1.287 . S
C1553 C1552 1.287 . S
C1553 C1554 1.524 . S
C1553 H1556 0.999 . S
C1554 H1524 0.950 . S
C1554 C1553 1.524 . S
C1554 C1555 1.415 . S
C1555 H1525 0.950 . S
C1555 C1550 1.363 . S
C1555 C1554 1.415 . S
H1556 C1553 0.999 . S
H1557 C1538 0.913 . S
H1558 C1576 0.951 . S
H1559 C1578 0.951 . S
H1560 C1580 0.950 1_554 S
H1561 C1581 0.950 . S
H1562 C1583 0.950 1_554 S
H1563 C1586 0.950 . S
H1564 C1587 0.950 . S
H1565 C1589 0.950 . S
H1566 C1590 0.950 . S
H1567 C1591 0.951 . S
H1568 C1593 0.951 . S
H1569 C1595 0.950 . S
H1570 C1596 0.950 . S
H1571 C1598 0.950 . S
H1572 C1601 0.950 . S
H1573 C1602 0.950 . S
H1574 C1604 0.950 . S
H1575 C1605 0.950 . S
C1576 H1558 0.951 . S
C1576 C1577 1.366 . S
C1576 C1578 1.388 . S
C1577 C1576 1.366 . S
C1577 C1581 1.385 1_556 S
C1578 H1559 0.951 . S
C1578 C1576 1.388 . S
C1578 C1579 1.366 . S
C1579 C1578 1.366 . S
C1579 C1580 1.414 . S
C1579 C1582 1.499 . S
C1580 H1560 0.950 1_556 S
C1580 C1579 1.414 . S
C1580 C1581 1.374 1_556 S
C1581 H1561 0.950 . S
C1581 C1577 1.385 1_554 S
C1581 C1580 1.374 1_554 S
C1582 C1579 1.499 . S
C1582 C1583 1.373 . S
C1582 C1584 1.389 . S
C1583 H1562 0.950 1_556 S
C1583 C1582 1.373 . S
C1583 C1599 1.377 . S
C1584 C1582 1.389 . S
C1584 C1585 1.524 . S
C1584 C1598 1.377 . S
C1585 C1584 1.524 . S
C1585 C1586 1.397 . S
C1585 C1590 1.363 . S
C1586 H1563 0.950 . S
C1586 C1585 1.397 . S
C1586 C1587 1.334 . S
C1587 H1564 0.950 . S
C1587 C1586 1.334 . S
C1587 C1588 1.287 . S
C1588 C1587 1.287 . S
C1588 C1589 1.524 . S
C1588 H1607 0.913 . S
C1589 H1565 0.950 . S
C1589 C1588 1.524 . S
C1589 C1590 1.415 . S
C1590 H1566 0.950 . S
C1590 C1585 1.363 . S
C1590 C1589 1.415 . S
C1591 H1567 0.951 . S
C1591 C1592 1.366 . S
C1591 C1593 1.388 . S
C1592 C1591 1.366 . S
C1592 C1596 1.385 . S
C1593 H1568 0.951 . S
C1593 C1591 1.388 . S
C1593 C1594 1.366 . S
C1594 C1593 1.366 . S
C1594 C1595 1.414 . S
C1594 C1597 1.499 . S
C1595 H1569 0.950 . S
C1595 C1594 1.414 . S
C1595 C1596 1.374 . S
C1596 H1570 0.950 . S
C1596 C1592 1.385 . S
C1596 C1595 1.374 . S
C1597 C1594 1.499 . S
C1597 C1598 1.373 . S
C1597 C1599 1.389 . S
C1598 H1571 0.950 . S
C1598 C1584 1.377 . S
C1598 C1597 1.373 . S
C1599 C1583 1.377 . S
C1599 C1597 1.389 . S
C1599 C1600 1.524 . S
C1600 C1599 1.524 . S
C1600 C1601 1.397 . S
C1600 C1605 1.363 1_556 S
C1601 H1572 0.950 . S
C1601 C1600 1.397 . S
C1601 C1602 1.334 1_556 S
C1602 H1573 0.950 . S
C1602 C1601 1.334 1_554 S
C1602 C1603 1.287 . S
C1603 C1602 1.287 . S
C1603 C1604 1.524 . S
C1603 H1606 0.999 . S
C1604 H1574 0.950 . S
C1604 C1603 1.524 . S
C1604 C1605 1.415 . S
C1605 H1575 0.950 . S
C1605 C1600 1.363 1_554 S
C1605 C1604 1.415 . S
H1606 C1603 0.999 . S
H1607 C1588 0.913 . S
H1608 C1626 0.951 . S
H1609 C1628 0.951 . S
H1610 C1630 0.950 . S
H1611 C1631 0.950 . S
H1612 C1633 0.950 . S
H1613 C1636 0.950 . S
H1614 C1637 0.950 . S
H1615 C1639 0.950 . S
H1616 C1640 0.950 . S
H1617 C1641 0.951 . S
H1618 C1643 0.951 . S
H1619 C1645 0.950 . S
H1620 C1646 0.950 . S
H1621 C1648 0.950 . S
H1622 C1651 0.950 . S
H1623 C1652 0.950 . S
H1624 C1654 0.950 . S
H1625 C1655 0.950 . S
C1626 H1608 0.951 . S
C1626 C1627 1.366 . S
C1626 C1628 1.388 . S
C1627 C1626 1.366 . S
C1627 C1631 1.385 . S
C1628 H1609 0.951 . S
C1628 C1626 1.388 . S
C1628 C1629 1.366 . S
C1629 C1628 1.366 . S
C1629 C1630 1.414 . S
C1629 C1632 1.499 . S
C1630 H1610 0.950 . S
C1630 C1629 1.414 . S
C1630 C1631 1.374 . S
C1631 H1611 0.950 . S
C1631 C1627 1.385 . S
C1631 C1630 1.374 . S
C1632 C1629 1.499 . S
C1632 C1633 1.373 . S
C1632 C1634 1.389 . S
C1633 H1612 0.950 . S
C1633 C1632 1.373 . S
C1633 C1649 1.377 . S
C1634 C1632 1.389 . S
C1634 C1635 1.524 . S
C1634 C1648 1.377 . S
C1635 C1634 1.524 . S
C1635 C1636 1.397 . S
C1635 C1640 1.363 1_556 S
C1636 H1613 0.950 . S
C1636 C1635 1.397 . S
C1636 C1637 1.334 . S
C1637 H1614 0.950 . S
C1637 C1636 1.334 . S
C1637 C1638 1.287 1_556 S
C1638 C1637 1.287 1_554 S
C1638 C1639 1.524 . S
C1638 H1657 0.913 . S
C1639 H1615 0.950 . S
C1639 C1638 1.524 . S
C1639 C1640 1.415 . S
C1640 H1616 0.950 . S
C1640 C1635 1.363 1_554 S
C1640 C1639 1.415 . S
C1641 H1617 0.951 . S
C1641 C1642 1.366 . S
C1641 C1643 1.388 . S
C1642 C1641 1.366 . S
C1642 C1646 1.385 1_556 S
C1643 H1618 0.951 . S
C1643 C1641 1.388 . S
C1643 C1644 1.366 . S
C1644 C1643 1.366 . S
C1644 C1645 1.414 1_556 S
C1644 C1647 1.499 . S
C1645 H1619 0.950 . S
C1645 C1644 1.414 1_554 S
C1645 C1646 1.374 . S
C1646 H1620 0.950 . S
C1646 C1642 1.385 1_554 S
C1646 C1645 1.374 . S
C1647 C1644 1.499 . S
C1647 C1648 1.373 . S
C1647 C1649 1.389 . S
C1648 H1621 0.950 . S
C1648 C1634 1.377 . S
C1648 C1647 1.373 . S
C1649 C1633 1.377 . S
C1649 C1647 1.389 . S
C1649 C1650 1.524 . S
C1650 C1649 1.524 . S
C1650 C1651 1.397 . S
C1650 C1655 1.363 . S
C1651 H1622 0.950 . S
C1651 C1650 1.397 . S
C1651 C1652 1.334 . S
C1652 H1623 0.950 . S
C1652 C1651 1.334 . S
C1652 C1653 1.287 . S
C1653 C1652 1.287 . S
C1653 C1654 1.524 . S
C1653 H1656 0.999 . S
C1654 H1624 0.950 . S
C1654 C1653 1.524 . S
C1654 C1655 1.415 . S
C1655 H1625 0.950 . S
C1655 C1650 1.363 . S
C1655 C1654 1.415 . S
H1656 C1653 0.999 . S
H1657 C1638 0.913 . S
H1658 C1676 0.951 . S
H1659 C1678 0.951 . S
H1660 C1680 0.950 . S
H1661 C1681 0.950 . S
H1662 C1683 0.950 . S
H1663 C1686 0.950 . S
H1664 C1687 0.950 . S
H1665 C1689 0.950 . S
H1666 C1690 0.950 . S
H1667 C1691 0.951 . S
H1668 C1693 0.951 . S
H1669 C1695 0.950 . S
H1670 C1696 0.950 . S
H1671 C1698 0.950 . S
H1672 C1701 0.950 . S
H1673 C1702 0.950 . S
H1674 C1704 0.950 . S
H1675 C1705 0.950 . S
C1676 H1658 0.951 . S
C1676 C1677 1.366 . S
C1676 C1678 1.388 . S
C1677 C1676 1.366 . S
C1677 C1681 1.385 . S
C1678 H1659 0.951 . S
C1678 C1676 1.388 . S
C1678 C1679 1.366 . S
C1679 C1678 1.366 . S
C1679 C1680 1.414 . S
C1679 C1682 1.499 . S
C1680 H1660 0.950 . S
C1680 C1679 1.414 . S
C1680 C1681 1.374 . S
C1681 H1661 0.950 . S
C1681 C1677 1.385 . S
C1681 C1680 1.374 . S
C1682 C1679 1.499 . S
C1682 C1683 1.373 . S
C1682 C1684 1.389 . S
C1683 H1662 0.950 . S
C1683 C1682 1.373 . S
C1683 C1699 1.377 . S
C1684 C1682 1.389 . S
C1684 C1685 1.524 . S
C1684 C1698 1.377 . S
C1685 C1684 1.524 . S
C1685 C1686 1.397 . S
C1685 C1690 1.363 . S
C1686 H1663 0.950 . S
C1686 C1685 1.397 . S
C1686 C1687 1.334 . S
C1687 H1664 0.950 . S
C1687 C1686 1.334 . S
C1687 C1688 1.287 . S
C1688 C1687 1.287 . S
C1688 C1689 1.524 . S
C1688 H1707 0.913 . S
C1689 H1665 0.950 . S
C1689 C1688 1.524 . S
C1689 C1690 1.415 . S
C1690 H1666 0.950 . S
C1690 C1685 1.363 . S
C1690 C1689 1.415 . S
C1691 H1667 0.951 . S
C1691 C1692 1.366 . S
C1691 C1693 1.388 . S
C1692 C1691 1.366 . S
C1692 C1696 1.385 . S
C1693 H1668 0.951 . S
C1693 C1691 1.388 . S
C1693 C1694 1.366 . S
C1694 C1693 1.366 . S
C1694 C1695 1.414 . S
C1694 C1697 1.499 . S
C1695 H1669 0.950 . S
C1695 C1694 1.414 . S
C1695 C1696 1.374 . S
C1696 H1670 0.950 . S
C1696 C1692 1.385 . S
C1696 C1695 1.374 . S
C1697 C1694 1.499 . S
C1697 C1698 1.373 . S
C1697 C1699 1.389 . S
C1698 H1671 0.950 . S
C1698 C1684 1.377 . S
C1698 C1697 1.373 . S
C1699 C1683 1.377 . S
C1699 C1697 1.389 . S
C1699 C1700 1.524 . S
C1700 C1699 1.524 . S
C1700 C1701 1.397 . S
C1700 C1705 1.363 . S
C1701 H1672 0.950 . S
C1701 C1700 1.397 . S
C1701 C1702 1.334 . S
C1702 H1673 0.950 . S
C1702 C1701 1.334 . S
C1702 C1703 1.287 . S
C1703 C1702 1.287 . S
C1703 C1704 1.524 . S
C1703 H1706 0.999 . S
C1704 H1674 0.950 . S
C1704 C1703 1.524 . S
C1704 C1705 1.415 . S
C1705 H1675 0.950 . S
C1705 C1700 1.363 . S
C1705 C1704 1.415 . S
H1706 C1703 0.999 . S
H1707 C1688 0.913 . S
H1708 C1726 0.951 . S
H1709 C1728 0.951 . S
H1710 C1730 0.950 . S
H1711 C1731 0.950 . S
H1712 C1733 0.950 . S
H1713 C1736 0.950 . S
H1714 C1737 0.950 . S
H1715 C1739 0.950 . S
H1716 C1740 0.950 . S
H1717 C1741 0.951 . S
H1718 C1743 0.951 . S
H1719 C1745 0.950 . S
H1720 C1746 0.950 . S
H1721 C1748 0.950 . S
H1722 C1751 0.950 . S
H1723 C1752 0.950 . S
H1724 C1754 0.950 . S
H1725 C1755 0.950 . S
C1726 H1708 0.951 . S
C1726 C1727 1.366 . S
C1726 C1728 1.388 . S
C1727 C1726 1.366 . S
C1727 C1731 1.385 . S
C1728 H1709 0.951 . S
C1728 C1726 1.388 . S
C1728 C1729 1.366 . S
C1729 C1728 1.366 . S
C1729 C1730 1.414 . S
C1729 C1732 1.499 . S
C1730 H1710 0.950 . S
C1730 C1729 1.414 . S
C1730 C1731 1.374 . S
C1731 H1711 0.950 . S
C1731 C1727 1.385 . S
C1731 C1730 1.374 . S
C1732 C1729 1.499 . S
C1732 C1733 1.373 . S
C1732 C1734 1.389 . S
C1733 H1712 0.950 . S
C1733 C1732 1.373 . S
C1733 C1749 1.377 . S
C1734 C1732 1.389 . S
C1734 C1735 1.524 . S
C1734 C1748 1.377 . S
C1735 C1734 1.524 . S
C1735 C1736 1.397 . S
C1735 C1740 1.363 . S
C1736 H1713 0.950 . S
C1736 C1735 1.397 . S
C1736 C1737 1.334 . S
C1737 H1714 0.950 . S
C1737 C1736 1.334 . S
C1737 C1738 1.287 . S
C1738 C1737 1.287 . S
C1738 C1739 1.524 . S
C1738 H1757 0.913 . S
C1739 H1715 0.950 . S
C1739 C1738 1.524 . S
C1739 C1740 1.415 . S
C1740 H1716 0.950 . S
C1740 C1735 1.363 . S
C1740 C1739 1.415 . S
C1741 H1717 0.951 . S
C1741 C1742 1.366 . S
C1741 C1743 1.388 . S
C1742 C1741 1.366 . S
C1742 C1746 1.385 . S
C1743 H1718 0.951 . S
C1743 C1741 1.388 . S
C1743 C1744 1.366 . S
C1744 C1743 1.366 . S
C1744 C1745 1.414 . S
C1744 C1747 1.499 . S
C1745 H1719 0.950 . S
C1745 C1744 1.414 . S
C1745 C1746 1.374 . S
C1746 H1720 0.950 . S
C1746 C1742 1.385 . S
C1746 C1745 1.374 . S
C1747 C1744 1.499 . S
C1747 C1748 1.373 . S
C1747 C1749 1.389 . S
C1748 H1721 0.950 . S
C1748 C1734 1.377 . S
C1748 C1747 1.373 . S
C1749 C1733 1.377 . S
C1749 C1747 1.389 . S
C1749 C1750 1.524 . S
C1750 C1749 1.524 . S
C1750 C1751 1.397 . S
C1750 C1755 1.363 . S
C1751 H1722 0.950 . S
C1751 C1750 1.397 . S
C1751 C1752 1.334 . S
C1752 H1723 0.950 . S
C1752 C1751 1.334 . S
C1752 C1753 1.287 . S
C1753 C1752 1.287 . S
C1753 C1754 1.524 . S
C1753 H1756 0.999 . S
C1754 H1724 0.950 . S
C1754 C1753 1.524 . S
C1754 C1755 1.415 . S
C1755 H1725 0.950 . S
C1755 C1750 1.363 . S
C1755 C1754 1.415 . S
H1756 C1753 0.999 . S
H1757 C1738 0.913 . S
H1758 C1776 0.951 . S
H1759 C1778 0.951 . S
H1760 C1780 0.950 . S
H1761 C1781 0.950 . S
H1762 C1783 0.950 . S
H1763 C1786 0.950 . S
H1764 C1787 0.950 . S
H1765 C1789 0.950 . S
H1766 C1790 0.950 . S
H1767 C1791 0.951 . S
H1768 C1793 0.951 . S
H1769 C1795 0.950 . S
H1770 C1796 0.950 . S
H1771 C1798 0.950 . S
H1772 C1801 0.950 . S
H1773 C1802 0.950 . S
H1774 C1804 0.950 . S
H1775 C1805 0.950 . S
C1776 H1758 0.951 . S
C1776 C1777 1.366 . S
C1776 C1778 1.388 . S
C1777 C1776 1.366 . S
C1777 C1781 1.385 . S
C1778 H1759 0.951 . S
C1778 C1776 1.388 . S
C1778 C1779 1.366 . S
C1779 C1778 1.366 . S
C1779 C1780 1.414 . S
C1779 C1782 1.499 . S
C1780 H1760 0.950 . S
C1780 C1779 1.414 . S
C1780 C1781 1.374 . S
C1781 H1761 0.950 . S
C1781 C1777 1.385 . S
C1781 C1780 1.374 . S
C1782 C1779 1.499 . S
C1782 C1783 1.373 . S
C1782 C1784 1.389 . S
C1783 H1762 0.950 . S
C1783 C1782 1.373 . S
C1783 C1799 1.377 . S
C1784 C1782 1.389 . S
C1784 C1785 1.524 . S
C1784 C1798 1.377 . S
C1785 C1784 1.524 . S
C1785 C1786 1.397 . S
C1785 C1790 1.363 . S
C1786 H1763 0.950 . S
C1786 C1785 1.397 . S
C1786 C1787 1.334 . S
C1787 H1764 0.950 . S
C1787 C1786 1.334 . S
C1787 C1788 1.287 . S
C1788 C1787 1.287 . S
C1788 C1789 1.524 . S
C1788 H1807 0.913 . S
C1789 H1765 0.950 . S
C1789 C1788 1.524 . S
C1789 C1790 1.415 . S
C1790 H1766 0.950 . S
C1790 C1785 1.363 . S
C1790 C1789 1.415 . S
C1791 H1767 0.951 . S
C1791 C1792 1.366 . S
C1791 C1793 1.388 . S
C1792 C1791 1.366 . S
C1792 C1796 1.385 . S
C1793 H1768 0.951 . S
C1793 C1791 1.388 . S
C1793 C1794 1.366 . S
C1794 C1793 1.366 . S
C1794 C1795 1.414 . S
C1794 C1797 1.499 . S
C1795 H1769 0.950 . S
C1795 C1794 1.414 . S
C1795 C1796 1.374 . S
C1796 H1770 0.950 . S
C1796 C1792 1.385 . S
C1796 C1795 1.374 . S
C1797 C1794 1.499 . S
C1797 C1798 1.373 . S
C1797 C1799 1.389 . S
C1798 H1771 0.950 . S
C1798 C1784 1.377 . S
C1798 C1797 1.373 . S
C1799 C1783 1.377 . S
C1799 C1797 1.389 . S
C1799 C1800 1.524 . S
C1800 C1799 1.524 . S
C1800 C1801 1.397 . S
C1800 C1805 1.363 . S
C1801 H1772 0.950 . S
C1801 C1800 1.397 . S
C1801 C1802 1.334 . S
C1802 H1773 0.950 . S
C1802 C1801 1.334 . S
C1802 C1803 1.287 . S
C1803 C1802 1.287 . S
C1803 C1804 1.524 . S
C1803 H1806 0.999 . S
C1804 H1774 0.950 . S
C1804 C1803 1.524 . S
C1804 C1805 1.415 . S
C1805 H1775 0.950 . S
C1805 C1800 1.363 . S
C1805 C1804 1.415 . S
H1806 C1803 0.999 . S
H1807 C1788 0.913 . S
H1808 C1826 0.951 . S
H1809 C1828 0.951 . S
H1810 C1830 0.950 . S
H1811 C1831 0.950 . S
H1812 C1833 0.950 . S
H1813 C1836 0.950 . S
H1814 C1837 0.950 . S
H1815 C1839 0.950 . S
H1816 C1840 0.950 . S
H1817 C1841 0.951 . S
H1818 C1843 0.951 . S
H1819 C1845 0.950 . S
H1820 C1846 0.950 . S
H1821 C1848 0.950 . S
H1822 C1851 0.950 . S
H1823 C1852 0.950 . S
H1824 C1854 0.950 . S
H1825 C1855 0.950 . S
C1826 H1808 0.951 . S
C1826 C1827 1.366 . S
C1826 C1828 1.388 . S
C1827 C1826 1.366 . S
C1827 C1831 1.385 . S
C1828 H1809 0.951 . S
C1828 C1826 1.388 . S
C1828 C1829 1.366 . S
C1829 C1828 1.366 . S
C1829 C1830 1.414 . S
C1829 C1832 1.499 . S
C1830 H1810 0.950 . S
C1830 C1829 1.414 . S
C1830 C1831 1.374 . S
C1831 H1811 0.950 . S
C1831 C1827 1.385 . S
C1831 C1830 1.374 . S
C1832 C1829 1.499 . S
C1832 C1833 1.373 . S
C1832 C1834 1.389 . S
C1833 H1812 0.950 . S
C1833 C1832 1.373 . S
C1833 C1849 1.377 . S
C1834 C1832 1.389 . S
C1834 C1835 1.524 . S
C1834 C1848 1.377 . S
C1835 C1834 1.524 . S
C1835 C1836 1.397 . S
C1835 C1840 1.363 . S
C1836 H1813 0.950 . S
C1836 C1835 1.397 . S
C1836 C1837 1.334 . S
C1837 H1814 0.950 . S
C1837 C1836 1.334 . S
C1837 C1838 1.287 . S
C1838 C1837 1.287 . S
C1838 C1839 1.524 . S
C1838 H1857 0.913 . S
C1839 H1815 0.950 . S
C1839 C1838 1.524 . S
C1839 C1840 1.415 . S
C1840 H1816 0.950 . S
C1840 C1835 1.363 . S
C1840 C1839 1.415 . S
C1841 H1817 0.951 . S
C1841 C1842 1.366 1_554 S
C1841 C1843 1.388 . S
C1842 C1841 1.366 1_556 S
C1842 C1846 1.385 . S
C1843 H1818 0.951 . S
C1843 C1841 1.388 . S
C1843 C1844 1.366 1_554 S
C1844 C1843 1.366 1_556 S
C1844 C1845 1.414 . S
C1844 C1847 1.499 . S
C1845 H1819 0.950 . S
C1845 C1844 1.414 . S
C1845 C1846 1.374 . S
C1846 H1820 0.950 . S
C1846 C1842 1.385 . S
C1846 C1845 1.374 . S
C1847 C1844 1.499 . S
C1847 C1848 1.373 . S
C1847 C1849 1.389 . S
C1848 H1821 0.950 . S
C1848 C1834 1.377 . S
C1848 C1847 1.373 . S
C1849 C1833 1.377 . S
C1849 C1847 1.389 . S
C1849 C1850 1.548 . S
C1850 C1849 1.548 . S
C1850 C1851 1.404 . S
C1850 C1855 1.336 1_556 S
C1851 H1822 0.950 . S
C1851 C1850 1.404 . S
C1851 C1852 1.334 1_556 S
C1852 H1823 0.950 . S
C1852 C1851 1.334 1_554 S
C1852 C1853 1.287 . S
C1853 C1852 1.287 . S
C1853 C1854 1.524 . S
C1853 H1856 0.999 . S
C1854 H1824 0.950 . S
C1854 C1853 1.524 . S
C1854 C1855 1.415 . S
C1855 H1825 0.950 . S
C1855 C1850 1.336 1_554 S
C1855 C1854 1.415 . S
H1856 C1853 0.999 . S
H1857 C1838 0.913 . S
H1858 C1876 0.951 . S
H1859 C1878 0.951 . S
H1860 C1880 0.950 . S
H1861 C1881 0.950 . S
H1862 C1883 0.950 . S
H1863 C1886 0.950 . S
H1864 C1887 0.950 . S
H1865 C1889 0.950 . S
H1866 C1890 0.950 . S
H1867 C1891 0.951 . S
H1868 C1893 0.951 . S
H1869 C1895 0.950 . S
H1870 C1896 0.950 . S
H1871 C1898 0.950 . S
H1872 C1901 0.950 . S
H1873 C1902 0.950 . S
H1874 C1904 0.950 . S
H1875 C1905 0.950 . S
C1876 H1858 0.951 . S
C1876 C1877 1.366 . S
C1876 C1878 1.388 . S
C1877 C1876 1.366 . S
C1877 C1881 1.385 . S
C1878 H1859 0.951 . S
C1878 C1876 1.388 . S
C1878 C1879 1.366 . S
C1879 C1878 1.366 . S
C1879 C1880 1.414 . S
C1879 C1882 1.499 . S
C1880 H1860 0.950 . S
C1880 C1879 1.414 . S
C1880 C1881 1.374 . S
C1881 H1861 0.950 . S
C1881 C1877 1.385 . S
C1881 C1880 1.374 . S
C1882 C1879 1.499 . S
C1882 C1883 1.373 . S
C1882 C1884 1.389 . S
C1883 H1862 0.950 . S
C1883 C1882 1.373 . S
C1883 C1899 1.377 . S
C1884 C1882 1.389 . S
C1884 C1885 1.524 . S
C1884 C1898 1.377 . S
C1885 C1884 1.524 . S
C1885 C1886 1.397 . S
C1885 C1890 1.363 . S
C1886 H1863 0.950 . S
C1886 C1885 1.397 . S
C1886 C1887 1.334 . S
C1887 H1864 0.950 . S
C1887 C1886 1.334 . S
C1887 C1888 1.287 . S
C1888 C1887 1.287 . S
C1888 C1889 1.524 . S
C1888 H1907 0.913 . S
C1889 H1865 0.950 . S
C1889 C1888 1.524 . S
C1889 C1890 1.415 . S
C1890 H1866 0.950 . S
C1890 C1885 1.363 . S
C1890 C1889 1.415 . S
C1891 H1867 0.951 . S
C1891 C1892 1.366 . S
C1891 C1893 1.388 . S
C1892 C1891 1.366 . S
C1892 C1896 1.385 . S
C1893 H1868 0.951 . S
C1893 C1891 1.388 . S
C1893 C1894 1.366 . S
C1894 C1893 1.366 . S
C1894 C1895 1.414 . S
C1894 C1897 1.499 . S
C1895 H1869 0.950 . S
C1895 C1894 1.414 . S
C1895 C1896 1.374 . S
C1896 H1870 0.950 . S
C1896 C1892 1.385 . S
C1896 C1895 1.374 . S
C1897 C1894 1.499 . S
C1897 C1898 1.373 . S
C1897 C1899 1.389 . S
C1898 H1871 0.950 . S
C1898 C1884 1.377 . S
C1898 C1897 1.373 . S
C1899 C1883 1.377 . S
C1899 C1897 1.389 . S
C1899 C1900 1.524 . S
C1900 C1899 1.524 . S
C1900 C1901 1.397 . S
C1900 C1905 1.363 . S
C1901 H1872 0.950 . S
C1901 C1900 1.397 . S
C1901 C1902 1.334 . S
C1902 H1873 0.950 . S
C1902 C1901 1.334 . S
C1902 C1903 1.287 . S
C1903 C1902 1.287 . S
C1903 C1904 1.524 . S
C1903 H1906 0.999 . S
C1904 H1874 0.950 . S
C1904 C1903 1.524 . S
C1904 C1905 1.415 . S
C1905 H1875 0.950 . S
C1905 C1900 1.363 . S
C1905 C1904 1.415 . S
H1906 C1903 0.999 . S
H1907 C1888 0.913 . S
H1908 C1926 0.951 . S
H1909 C1928 0.951 . S
H1910 C1930 0.950 . S
H1911 C1931 0.950 . S
H1912 C1933 0.950 . S
H1913 C1936 0.950 . S
H1914 C1937 0.950 . S
H1915 C1939 0.950 . S
H1916 C1940 0.950 . S
H1917 C1941 0.951 . S
H1918 C1943 0.951 . S
H1919 C1945 0.950 . S
H1920 C1946 0.950 . S
H1921 C1948 0.950 . S
H1922 C1951 0.950 . S
H1923 C1952 0.950 . S
H1924 C1954 0.950 . S
H1925 C1955 0.950 . S
C1926 H1908 0.951 . S
C1926 C1927 1.366 . S
C1926 C1928 1.388 . S
C1927 C1926 1.366 . S
C1927 C1931 1.385 . S
C1928 H1909 0.951 . S
C1928 C1926 1.388 . S
C1928 C1929 1.366 . S
C1929 C1928 1.366 . S
C1929 C1930 1.414 . S
C1929 C1932 1.499 . S
C1930 H1910 0.950 . S
C1930 C1929 1.414 . S
C1930 C1931 1.374 . S
C1931 H1911 0.950 . S
C1931 C1927 1.385 . S
C1931 C1930 1.374 . S
C1932 C1929 1.499 . S
C1932 C1933 1.373 . S
C1932 C1934 1.389 . S
C1933 H1912 0.950 . S
C1933 C1932 1.373 . S
C1933 C1949 1.377 . S
C1934 C1932 1.389 . S
C1934 C1935 1.524 . S
C1934 C1948 1.377 . S
C1935 C1934 1.524 . S
C1935 C1936 1.397 . S
C1935 C1940 1.363 . S
C1936 H1913 0.950 . S
C1936 C1935 1.397 . S
C1936 C1937 1.334 . S
C1937 H1914 0.950 . S
C1937 C1936 1.334 . S
C1937 C1938 1.287 . S
C1938 C1937 1.287 . S
C1938 C1939 1.524 . S
C1938 H1957 0.913 . S
C1939 H1915 0.950 . S
C1939 C1938 1.524 . S
C1939 C1940 1.415 . S
C1940 H1916 0.950 . S
C1940 C1935 1.363 . S
C1940 C1939 1.415 . S
C1941 H1917 0.951 . S
C1941 C1942 1.366 . S
C1941 C1943 1.388 . S
C1942 C1941 1.366 . S
C1942 C1946 1.385 . S
C1943 H1918 0.951 . S
C1943 C1941 1.388 . S
C1943 C1944 1.366 . S
C1944 C1943 1.366 . S
C1944 C1945 1.414 . S
C1944 C1947 1.499 . S
C1945 H1919 0.950 . S
C1945 C1944 1.414 . S
C1945 C1946 1.374 . S
C1946 H1920 0.950 . S
C1946 C1942 1.385 . S
C1946 C1945 1.374 . S
C1947 C1944 1.499 . S
C1947 C1948 1.373 . S
C1947 C1949 1.389 . S
C1948 H1921 0.950 . S
C1948 C1934 1.377 . S
C1948 C1947 1.373 . S
C1949 C1933 1.377 . S
C1949 C1947 1.389 . S
C1949 C1950 1.524 . S
C1950 C1949 1.524 . S
C1950 C1951 1.397 . S
C1950 C1955 1.363 . S
C1951 H1922 0.950 . S
C1951 C1950 1.397 . S
C1951 C1952 1.334 . S
C1952 H1923 0.950 . S
C1952 C1951 1.334 . S
C1952 C1953 1.287 . S
C1953 C1952 1.287 . S
C1953 C1954 1.524 . S
C1953 H1956 0.999 . S
C1954 H1924 0.950 . S
C1954 C1953 1.524 . S
C1954 C1955 1.415 . S
C1955 H1925 0.950 . S
C1955 C1950 1.363 . S
C1955 C1954 1.415 . S
H1956 C1953 0.999 . S
H1957 C1938 0.913 . S
H1958 C1976 0.951 . S
H1959 C1978 0.951 . S
H1960 C1980 0.950 . S
H1961 C1981 0.950 . S
H1962 C1983 0.950 . S
H1963 C1986 0.950 . S
H1964 C1987 0.950 . S
H1965 C1989 0.950 . S
H1966 C1990 0.950 . S
H1967 C1991 0.951 . S
H1968 C1993 0.951 . S
H1969 C1995 0.950 . S
H1970 C1996 0.950 . S
H1971 C1998 0.950 . S
H1972 C2001 0.950 . S
H1973 C2002 0.950 . S
H1974 C2004 0.950 . S
H1975 C2005 0.950 . S
C1976 H1958 0.951 . S
C1976 C1977 1.366 . S
C1976 C1978 1.388 . S
C1977 C1976 1.366 . S
C1977 C1981 1.385 . S
C1978 H1959 0.951 . S
C1978 C1976 1.388 . S
C1978 C1979 1.366 . S
C1979 C1978 1.366 . S
C1979 C1980 1.414 . S
C1979 C1982 1.499 . S
C1980 H1960 0.950 . S
C1980 C1979 1.414 . S
C1980 C1981 1.374 . S
C1981 H1961 0.950 . S
C1981 C1977 1.385 . S
C1981 C1980 1.374 . S
C1982 C1979 1.499 . S
C1982 C1983 1.373 . S
C1982 C1984 1.389 . S
C1983 H1962 0.950 . S
C1983 C1982 1.373 . S
C1983 C1999 1.377 . S
C1984 C1982 1.389 . S
C1984 C1985 1.524 . S
C1984 C1998 1.377 . S
C1985 C1984 1.524 . S
C1985 C1986 1.397 . S
C1985 C1990 1.363 . S
C1986 H1963 0.950 . S
C1986 C1985 1.397 . S
C1986 C1987 1.334 . S
C1987 H1964 0.950 . S
C1987 C1986 1.334 . S
C1987 C1988 1.287 . S
C1988 C1987 1.287 . S
C1988 C1989 1.524 . S
C1988 H2007 0.913 . S
C1989 H1965 0.950 . S
C1989 C1988 1.524 . S
C1989 C1990 1.415 . S
C1990 H1966 0.950 . S
C1990 C1985 1.363 . S
C1990 C1989 1.415 . S
C1991 H1967 0.951 . S
C1991 C1992 1.366 . S
C1991 C1993 1.388 . S
C1992 C1991 1.366 . S
C1992 C1996 1.385 . S
C1993 H1968 0.951 . S
C1993 C1991 1.388 . S
C1993 C1994 1.366 . S
C1994 C1993 1.366 . S
C1994 C1995 1.414 . S
C1994 C1997 1.499 . S
C1995 H1969 0.950 . S
C1995 C1994 1.414 . S
C1995 C1996 1.374 . S
C1996 H1970 0.950 . S
C1996 C1992 1.385 . S
C1996 C1995 1.374 . S
C1997 C1994 1.499 . S
C1997 C1998 1.373 . S
C1997 C1999 1.389 . S
C1998 H1971 0.950 . S
C1998 C1984 1.377 . S
C1998 C1997 1.373 . S
C1999 C1983 1.377 . S
C1999 C1997 1.389 . S
C1999 C2000 1.524 . S
C2000 C1999 1.524 . S
C2000 C2001 1.397 . S
C2000 C2005 1.363 . S
C2001 H1972 0.950 . S
C2001 C2000 1.397 . S
C2001 C2002 1.334 . S
C2002 H1973 0.950 . S
C2002 C2001 1.334 . S
C2002 C2003 1.287 . S
C2003 C2002 1.287 . S
C2003 C2004 1.524 . S
C2003 H2006 0.999 . S
C2004 H1974 0.950 . S
C2004 C2003 1.524 . S
C2004 C2005 1.415 . S
C2005 H1975 0.950 . S
C2005 C2000 1.363 . S
C2005 C2004 1.415 . S
H2006 C2003 0.999 . S
H2007 C1988 0.913 . S
H2008 C2026 0.951 . S
H2009 C2028 0.951 . S
H2010 C2030 0.950 . S
H2011 C2031 0.950 . S
H2012 C2033 0.950 . S
H2013 C2036 0.950 . S
H2014 C2037 0.950 . S
H2015 C2039 0.950 . S
H2016 C2040 0.950 . S
H2017 C2041 0.951 . S
H2018 C2043 0.951 . S
H2019 C2045 0.950 . S
H2020 C2046 0.950 . S
H2021 C2048 0.950 . S
H2022 C2051 0.950 . S
H2023 C2052 0.950 . S
H2024 C2054 0.950 . S
H2025 C2055 0.950 . S
C2026 H2008 0.951 . S
C2026 C2027 1.366 . S
C2026 C2028 1.388 . S
C2027 C2026 1.366 . S
C2027 C2031 1.385 . S
C2028 H2009 0.951 . S
C2028 C2026 1.388 . S
C2028 C2029 1.366 . S
C2029 C2028 1.366 . S
C2029 C2030 1.414 . S
C2029 C2032 1.499 . S
C2030 H2010 0.950 . S
C2030 C2029 1.414 . S
C2030 C2031 1.374 . S
C2031 H2011 0.950 . S
C2031 C2027 1.385 . S
C2031 C2030 1.374 . S
C2032 C2029 1.499 . S
C2032 C2033 1.373 . S
C2032 C2034 1.389 . S
C2033 H2012 0.950 . S
C2033 C2032 1.373 . S
C2033 C2049 1.377 . S
C2034 C2032 1.389 . S
C2034 C2035 1.524 . S
C2034 C2048 1.377 . S
C2035 C2034 1.524 . S
C2035 C2036 1.397 . S
C2035 C2040 1.363 . S
C2036 H2013 0.950 . S
C2036 C2035 1.397 . S
C2036 C2037 1.334 . S
C2037 H2014 0.950 . S
C2037 C2036 1.334 . S
C2037 C2038 1.287 . S
C2038 C2037 1.287 . S
C2038 C2039 1.524 . S
C2038 H2057 0.913 . S
C2039 H2015 0.950 . S
C2039 C2038 1.524 . S
C2039 C2040 1.415 . S
C2040 H2016 0.950 . S
C2040 C2035 1.363 . S
C2040 C2039 1.415 . S
C2041 H2017 0.951 . S
C2041 C2042 1.366 . S
C2041 C2043 1.388 . S
C2042 C2041 1.366 . S
C2042 C2046 1.385 . S
C2043 H2018 0.951 . S
C2043 C2041 1.388 . S
C2043 C2044 1.366 . S
C2044 C2043 1.366 . S
C2044 C2045 1.414 . S
C2044 C2047 1.499 . S
C2045 H2019 0.950 . S
C2045 C2044 1.414 . S
C2045 C2046 1.374 . S
C2046 H2020 0.950 . S
C2046 C2042 1.385 . S
C2046 C2045 1.374 . S
C2047 C2044 1.499 . S
C2047 C2048 1.373 . S
C2047 C2049 1.389 . S
C2048 H2021 0.950 . S
C2048 C2034 1.377 . S
C2048 C2047 1.373 . S
C2049 C2033 1.377 . S
C2049 C2047 1.389 . S
C2049 C2050 1.524 . S
C2050 C2049 1.524 . S
C2050 C2051 1.397 . S
C2050 C2055 1.363 . S
C2051 H2022 0.950 . S
C2051 C2050 1.397 . S
C2051 C2052 1.334 . S
C2052 H2023 0.950 . S
C2052 C2051 1.334 . S
C2052 C2053 1.287 . S
C2053 C2052 1.287 . S
C2053 C2054 1.524 . S
C2053 H2056 0.999 . S
C2054 H2024 0.950 . S
C2054 C2053 1.524 . S
C2054 C2055 1.415 . S
C2055 H2025 0.950 . S
C2055 C2050 1.363 . S
C2055 C2054 1.415 . S
H2056 C2053 0.999 . S
H2057 C2038 0.913 . S
H2058 C2076 0.951 . S
H2059 C2078 0.951 . S
H2060 C2080 0.950 . S
H2061 C2081 0.950 . S
H2062 C2083 0.950 . S
H2063 C2086 0.950 . S
H2064 C2087 0.950 . S
H2065 C2089 0.950 . S
H2066 C2090 0.950 . S
H2067 C2091 0.951 . S
H2068 C2093 0.951 . S
H2069 C2095 0.950 . S
H2070 C2096 0.950 . S
H2071 C2098 0.950 . S
H2072 C2101 0.950 . S
H2073 C2102 0.950 . S
H2074 C2104 0.950 . S
H2075 C2105 0.949 1_554 S
C2076 H2058 0.951 . S
C2076 C2077 1.366 . S
C2076 C2078 1.388 . S
C2077 C2076 1.366 . S
C2077 C2081 1.385 . S
C2078 H2059 0.951 . S
C2078 C2076 1.388 . S
C2078 C2079 1.366 . S
C2079 C2078 1.366 . S
C2079 C2080 1.414 . S
C2079 C2082 1.499 . S
C2080 H2060 0.950 . S
C2080 C2079 1.414 . S
C2080 C2081 1.374 . S
C2081 H2061 0.950 . S
C2081 C2077 1.385 . S
C2081 C2080 1.374 . S
C2082 C2079 1.499 . S
C2082 C2083 1.373 . S
C2082 C2084 1.389 . S
C2083 H2062 0.950 . S
C2083 C2082 1.373 . S
C2083 C2099 1.377 . S
C2084 C2082 1.389 . S
C2084 C2085 1.524 . S
C2084 C2098 1.377 . S
C2085 C2084 1.524 . S
C2085 C2086 1.397 . S
C2085 C2090 1.363 . S
C2086 H2063 0.950 . S
C2086 C2085 1.397 . S
C2086 C2087 1.334 . S
C2087 H2064 0.950 . S
C2087 C2086 1.334 . S
C2087 C2088 1.287 . S
C2088 C2087 1.287 . S
C2088 C2089 1.524 . S
C2088 H2107 0.913 . S
C2089 H2065 0.950 . S
C2089 C2088 1.524 . S
C2089 C2090 1.415 . S
C2090 H2066 0.950 . S
C2090 C2085 1.363 . S
C2090 C2089 1.415 . S
C2091 H2067 0.951 . S
C2091 C2092 1.366 1_554 S
C2091 C2093 1.388 . S
C2092 C2091 1.366 1_556 S
C2092 C2096 1.385 . S
C2093 H2068 0.951 . S
C2093 C2091 1.388 . S
C2093 C2094 1.366 1_554 S
C2094 C2093 1.366 1_556 S
C2094 C2095 1.414 . S
C2094 C2097 1.499 . S
C2095 H2069 0.950 . S
C2095 C2094 1.414 . S
C2095 C2096 1.374 . S
C2096 H2070 0.950 . S
C2096 C2092 1.385 . S
C2096 C2095 1.374 . S
C2097 C2094 1.499 . S
C2097 C2098 1.373 . S
C2097 C2099 1.389 . S
C2098 H2071 0.950 . S
C2098 C2084 1.377 . S
C2098 C2097 1.373 . S
C2099 C2083 1.377 . S
C2099 C2097 1.389 . S
C2099 C2100 1.524 . S
C2100 C2099 1.524 . S
C2100 C2101 1.397 . S
C2100 C2105 1.366 . S
C2101 H2072 0.950 . S
C2101 C2100 1.397 . S
C2101 C2102 1.334 . S
C2102 H2073 0.950 . S
C2102 C2101 1.334 . S
C2102 C2103 1.287 . S
C2103 C2102 1.287 . S
C2103 C2104 1.524 1_556 S
C2103 H2106 0.999 1_556 S
C2104 H2074 0.950 . S
C2104 C2103 1.524 1_554 S
C2104 C2105 1.413 1_554 S
C2105 H2075 0.949 1_556 S
C2105 C2100 1.366 . S
C2105 C2104 1.413 1_556 S
H2106 C2103 0.999 1_554 S
H2107 C2088 0.913 . S
H2108 C2126 0.951 . S
H2109 C2128 0.951 . S
H2110 C2130 0.950 . S
H2111 C2131 0.950 . S
H2112 C2133 0.950 . S
H2113 C2136 0.950 . S
H2114 C2137 0.950 . S
H2115 C2139 0.950 . S
H2116 C2140 0.950 . S
H2117 C2141 0.951 . S
H2118 C2143 0.951 . S
H2119 C2145 0.950 . S
H2120 C2146 0.950 . S
H2121 C2148 0.950 . S
H2122 C2151 0.950 . S
H2123 C2152 0.950 . S
H2124 C2154 0.950 . S
H2125 C2155 0.950 . S
C2126 H2108 0.951 . S
C2126 C2127 1.366 . S
C2126 C2128 1.388 . S
C2127 C2126 1.366 . S
C2127 C2131 1.385 . S
C2128 H2109 0.951 . S
C2128 C2126 1.388 . S
C2128 C2129 1.366 . S
C2129 C2128 1.366 . S
C2129 C2130 1.414 . S
C2129 C2132 1.499 . S
C2130 H2110 0.950 . S
C2130 C2129 1.414 . S
C2130 C2131 1.374 . S
C2131 H2111 0.950 . S
C2131 C2127 1.385 . S
C2131 C2130 1.374 . S
C2132 C2129 1.499 . S
C2132 C2133 1.373 . S
C2132 C2134 1.389 . S
C2133 H2112 0.950 . S
C2133 C2132 1.373 . S
C2133 C2149 1.377 . S
C2134 C2132 1.389 . S
C2134 C2135 1.524 . S
C2134 C2148 1.377 . S
C2135 C2134 1.524 . S
C2135 C2136 1.397 . S
C2135 C2140 1.363 . S
C2136 H2113 0.950 . S
C2136 C2135 1.397 . S
C2136 C2137 1.334 . S
C2137 H2114 0.950 . S
C2137 C2136 1.334 . S
C2137 C2138 1.287 . S
C2138 C2137 1.287 . S
C2138 C2139 1.524 . S
C2138 H2157 0.913 . S
C2139 H2115 0.950 . S
C2139 C2138 1.524 . S
C2139 C2140 1.415 . S
C2140 H2116 0.950 . S
C2140 C2135 1.363 . S
C2140 C2139 1.415 . S
C2141 H2117 0.951 . S
C2141 C2142 1.366 . S
C2141 C2143 1.388 . S
C2142 C2141 1.366 . S
C2142 C2146 1.385 . S
C2143 H2118 0.951 . S
C2143 C2141 1.388 . S
C2143 C2144 1.366 . S
C2144 C2143 1.366 . S
C2144 C2145 1.414 . S
C2144 C2147 1.499 . S
C2145 H2119 0.950 . S
C2145 C2144 1.414 . S
C2145 C2146 1.374 . S
C2146 H2120 0.950 . S
C2146 C2142 1.385 . S
C2146 C2145 1.374 . S
C2147 C2144 1.499 . S
C2147 C2148 1.373 . S
C2147 C2149 1.389 . S
C2148 H2121 0.950 . S
C2148 C2134 1.377 . S
C2148 C2147 1.373 . S
C2149 C2133 1.377 . S
C2149 C2147 1.389 . S
C2149 C2150 1.524 . S
C2150 C2149 1.524 . S
C2150 C2151 1.397 . S
C2150 C2155 1.363 . S
C2151 H2122 0.950 . S
C2151 C2150 1.397 . S
C2151 C2152 1.334 . S
C2152 H2123 0.950 . S
C2152 C2151 1.334 . S
C2152 C2153 1.287 . S
C2153 C2152 1.287 . S
C2153 C2154 1.524 . S
C2153 H2156 0.999 . S
C2154 H2124 0.950 . S
C2154 C2153 1.524 . S
C2154 C2155 1.415 . S
C2155 H2125 0.950 . S
C2155 C2150 1.363 . S
C2155 C2154 1.415 . S
H2156 C2153 0.999 . S
H2157 C2138 0.913 . S
H2158 C2176 0.951 . S
H2159 C2178 0.951 . S
H2160 C2180 0.950 . S
H2161 C2181 0.950 . S
H2162 C2183 0.950 . S
H2163 C2186 0.950 . S
H2164 C2187 0.950 . S
H2165 C2189 0.950 . S
H2166 C2190 0.950 . S
H2167 C2191 0.951 . S
H2168 C2193 0.951 . S
H2169 C2195 0.950 . S
H2170 C2196 0.950 . S
H2171 C2198 0.950 . S
H2172 C2201 0.950 . S
H2173 C2202 0.950 . S
H2174 C2204 0.950 . S
H2175 C2205 0.950 . S
C2176 H2158 0.951 . S
C2176 C2177 1.366 . S
C2176 C2178 1.388 . S
C2177 C2176 1.366 . S
C2177 C2181 1.385 . S
C2178 H2159 0.951 . S
C2178 C2176 1.388 . S
C2178 C2179 1.366 . S
C2179 C2178 1.366 . S
C2179 C2180 1.414 . S
C2179 C2182 1.499 . S
C2180 H2160 0.950 . S
C2180 C2179 1.414 . S
C2180 C2181 1.374 . S
C2181 H2161 0.950 . S
C2181 C2177 1.385 . S
C2181 C2180 1.374 . S
C2182 C2179 1.499 . S
C2182 C2183 1.373 . S
C2182 C2184 1.389 . S
C2183 H2162 0.950 . S
C2183 C2182 1.373 . S
C2183 C2199 1.377 . S
C2184 C2182 1.389 . S
C2184 C2185 1.524 . S
C2184 C2198 1.377 . S
C2185 C2184 1.524 . S
C2185 C2186 1.397 . S
C2185 C2190 1.363 . S
C2186 H2163 0.950 . S
C2186 C2185 1.397 . S
C2186 C2187 1.334 . S
C2187 H2164 0.950 . S
C2187 C2186 1.334 . S
C2187 C2188 1.287 . S
C2188 C2187 1.287 . S
C2188 C2189 1.524 . S
C2188 H2207 0.913 . S
C2189 H2165 0.950 . S
C2189 C2188 1.524 . S
C2189 C2190 1.415 . S
C2190 H2166 0.950 . S
C2190 C2185 1.363 . S
C2190 C2189 1.415 . S
C2191 H2167 0.951 . S
C2191 C2192 1.366 . S
C2191 C2193 1.388 . S
C2192 C2191 1.366 . S
C2192 C2196 1.385 . S
C2193 H2168 0.951 . S
C2193 C2191 1.388 . S
C2193 C2194 1.366 . S
C2194 C2193 1.366 . S
C2194 C2195 1.414 . S
C2194 C2197 1.499 . S
C2195 H2169 0.950 . S
C2195 C2194 1.414 . S
C2195 C2196 1.374 . S
C2196 H2170 0.950 . S
C2196 C2192 1.385 . S
C2196 C2195 1.374 . S
C2197 C2194 1.499 . S
C2197 C2198 1.373 . S
C2197 C2199 1.389 . S
C2198 H2171 0.950 . S
C2198 C2184 1.377 . S
C2198 C2197 1.373 . S
C2199 C2183 1.377 . S
C2199 C2197 1.389 . S
C2199 C2200 1.524 . S
C2200 C2199 1.524 . S
C2200 C2201 1.397 . S
C2200 C2205 1.363 . S
C2201 H2172 0.950 . S
C2201 C2200 1.397 . S
C2201 C2202 1.334 . S
C2202 H2173 0.950 . S
C2202 C2201 1.334 . S
C2202 C2203 1.287 . S
C2203 C2202 1.287 . S
C2203 C2204 1.524 . S
C2203 H2206 0.999 . S
C2204 H2174 0.950 . S
C2204 C2203 1.524 . S
C2204 C2205 1.415 . S
C2205 H2175 0.950 . S
C2205 C2200 1.363 . S
C2205 C2204 1.415 . S
H2206 C2203 0.999 . S
H2207 C2188 0.913 . S
H2208 C2226 0.951 . S
H2209 C2228 0.951 . S
H2210 C2230 0.950 . S
H2211 C2231 0.950 . S
H2212 C2233 0.950 . S
H2213 C2236 0.950 . S
H2214 C2237 0.950 . S
H2215 C2239 0.950 . S
H2216 C2240 0.950 . S
H2217 C2241 0.951 . S
H2218 C2243 0.961 . S
H2219 C2245 0.950 . S
H2220 C2246 0.950 . S
H2221 C2248 0.950 . S
H2222 C2251 0.950 . S
H2223 C2252 0.950 . S
H2224 C2254 0.950 . S
H2225 C2255 0.950 . S
C2226 H2208 0.951 . S
C2226 C2227 1.391 . S
C2226 C2228 1.388 . S
C2227 C2226 1.391 . S
C2227 C2231 1.359 1_455 S
C2228 H2209 0.951 . S
C2228 C2226 1.388 . S
C2228 C2229 1.394 . S
C2229 C2228 1.394 . S
C2229 C2230 1.386 1_455 S
C2229 C2232 1.498 . S
C2230 H2210 0.950 . S
C2230 C2229 1.386 1_655 S
C2230 C2231 1.374 . S
C2231 H2211 0.950 . S
C2231 C2227 1.359 1_655 S
C2231 C2230 1.374 . S
C2232 C2229 1.498 . S
C2232 C2233 1.377 1_455 S
C2232 C2234 1.385 . S
C2233 H2212 0.950 . S
C2233 C2232 1.377 1_655 S
C2233 C2249 1.377 . S
C2234 C2232 1.385 . S
C2234 C2235 1.524 . S
C2234 C2248 1.377 . S
C2235 C2234 1.524 . S
C2235 C2236 1.397 . S
C2235 C2240 1.363 . S
C2236 H2213 0.950 . S
C2236 C2235 1.397 . S
C2236 C2237 1.334 . S
C2237 H2214 0.950 . S
C2237 C2236 1.334 . S
C2237 C2238 1.287 . S
C2238 C2237 1.287 . S
C2238 C2239 1.524 . S
C2238 H2257 0.913 . S
C2239 H2215 0.950 . S
C2239 C2238 1.524 . S
C2239 C2240 1.415 . S
C2240 H2216 0.950 . S
C2240 C2235 1.363 . S
C2240 C2239 1.415 . S
C2241 H2217 0.951 . S
C2241 C2242 1.339 1_655 S
C2241 C2243 1.365 1_556 S
C2242 C2241 1.339 1_455 S
C2242 C2246 1.412 . S
C2243 H2218 0.961 . S
C2243 C2241 1.365 1_554 S
C2243 C2244 1.355 1_655 S
C2244 C2243 1.355 1_455 S
C2244 C2245 1.438 . S
C2244 C2247 1.498 . S
C2245 H2219 0.950 . S
C2245 C2244 1.438 . S
C2245 C2246 1.374 1_554 S
C2246 H2220 0.950 . S
C2246 C2242 1.412 . S
C2246 C2245 1.374 1_556 S
C2247 C2244 1.498 . S
C2247 C2248 1.416 . S
C2247 C2249 1.348 1_455 S
C2248 H2221 0.950 . S
C2248 C2234 1.377 . S
C2248 C2247 1.416 . S
C2249 C2233 1.377 . S
C2249 C2247 1.348 1_655 S
C2249 C2250 1.524 . S
C2250 C2249 1.524 . S
C2250 C2251 1.397 . S
C2250 C2255 1.363 . S
C2251 H2222 0.950 . S
C2251 C2250 1.397 . S
C2251 C2252 1.334 . S
C2252 H2223 0.950 . S
C2252 C2251 1.334 . S
C2252 C2253 1.287 . S
C2253 C2252 1.287 . S
C2253 C2254 1.524 . S
C2253 H2256 0.999 . S
C2254 H2224 0.950 . S
C2254 C2253 1.524 . S
C2254 C2255 1.415 . S
C2255 H2225 0.950 . S
C2255 C2250 1.363 . S
C2255 C2254 1.415 . S
H2256 C2253 0.999 . S
H2257 C2238 0.913 . S
H2258 C2276 0.951 . S
H2259 C2278 0.951 . S
H2260 C2280 0.950 . S
H2261 C2281 0.950 . S
H2262 C2283 0.950 . S
H2263 C2286 0.950 . S
H2264 C2287 0.950 . S
H2265 C2289 0.950 . S
H2266 C2290 0.950 . S
H2267 C2291 0.951 . S
H2268 C2293 0.951 . S
H2269 C2295 0.950 . S
H2270 C2296 0.950 . S
H2271 C2298 0.950 . S
H2272 C2301 0.950 . S
H2273 C2302 0.950 . S
H2274 C2304 0.950 . S
H2275 C2305 0.950 . S
C2276 H2258 0.951 . S
C2276 C2277 1.366 . S
C2276 C2278 1.388 . S
C2277 C2276 1.366 . S
C2277 C2281 1.385 . S
C2278 H2259 0.951 . S
C2278 C2276 1.388 . S
C2278 C2279 1.366 . S
C2279 C2278 1.366 . S
C2279 C2280 1.414 . S
C2279 C2282 1.499 . S
C2280 H2260 0.950 . S
C2280 C2279 1.414 . S
C2280 C2281 1.374 . S
C2281 H2261 0.950 . S
C2281 C2277 1.385 . S
C2281 C2280 1.374 . S
C2282 C2279 1.499 . S
C2282 C2283 1.373 . S
C2282 C2284 1.389 . S
C2283 H2262 0.950 . S
C2283 C2282 1.373 . S
C2283 C2299 1.377 . S
C2284 C2282 1.389 . S
C2284 C2285 1.524 . S
C2284 C2298 1.377 . S
C2285 C2284 1.524 . S
C2285 C2286 1.397 . S
C2285 C2290 1.363 . S
C2286 H2263 0.950 . S
C2286 C2285 1.397 . S
C2286 C2287 1.334 . S
C2287 H2264 0.950 . S
C2287 C2286 1.334 . S
C2287 C2288 1.287 . S
C2288 C2287 1.287 . S
C2288 C2289 1.524 . S
C2288 H2307 0.913 . S
C2289 H2265 0.950 . S
C2289 C2288 1.524 . S
C2289 C2290 1.415 . S
C2290 H2266 0.950 . S
C2290 C2285 1.363 . S
C2290 C2289 1.415 . S
C2291 H2267 0.951 . S
C2291 C2292 1.366 . S
C2291 C2293 1.388 . S
C2292 C2291 1.366 . S
C2292 C2296 1.385 . S
C2293 H2268 0.951 . S
C2293 C2291 1.388 . S
C2293 C2294 1.366 . S
C2294 C2293 1.366 . S
C2294 C2295 1.414 . S
C2294 C2297 1.499 . S
C2295 H2269 0.950 . S
C2295 C2294 1.414 . S
C2295 C2296 1.374 . S
C2296 H2270 0.950 . S
C2296 C2292 1.385 . S
C2296 C2295 1.374 . S
C2297 C2294 1.499 . S
C2297 C2298 1.373 . S
C2297 C2299 1.389 . S
C2298 H2271 0.950 . S
C2298 C2284 1.377 . S
C2298 C2297 1.373 . S
C2299 C2283 1.377 . S
C2299 C2297 1.389 . S
C2299 C2300 1.524 . S
C2300 C2299 1.524 . S
C2300 C2301 1.397 . S
C2300 C2305 1.363 . S
C2301 H2272 0.950 . S
C2301 C2300 1.397 . S
C2301 C2302 1.334 . S
C2302 H2273 0.950 . S
C2302 C2301 1.334 . S
C2302 C2303 1.287 . S
C2303 C2302 1.287 . S
C2303 C2304 1.524 . S
C2303 H2306 0.999 . S
C2304 H2274 0.950 . S
C2304 C2303 1.524 . S
C2304 C2305 1.415 . S
C2305 H2275 0.950 . S
C2305 C2300 1.363 . S
C2305 C2304 1.415 . S
H2306 C2303 0.999 . S
H2307 C2288 0.913 . S
H2308 C2326 0.951 . S
H2309 C2328 0.951 . S
H2310 C2330 0.950 . S
H2311 C2331 0.950 . S
H2312 C2333 0.950 . S
H2313 C2336 0.950 . S
H2314 C2337 0.950 . S
H2315 C2339 0.950 . S
H2316 C2340 0.950 . S
H2317 C2341 0.951 . S
H2318 C2343 0.951 . S
H2319 C2345 0.950 . S
H2320 C2346 0.950 . S
H2321 C2348 0.950 . S
H2322 C2351 0.950 . S
H2323 C2352 0.950 . S
H2324 C2354 0.950 . S
H2325 C2355 0.950 . S
C2326 H2308 0.951 . S
C2326 C2327 1.366 . S
C2326 C2328 1.388 . S
C2327 C2326 1.366 . S
C2327 C2331 1.385 . S
C2328 H2309 0.951 . S
C2328 C2326 1.388 . S
C2328 C2329 1.366 . S
C2329 C2328 1.366 . S
C2329 C2330 1.414 . S
C2329 C2332 1.499 . S
C2330 H2310 0.950 . S
C2330 C2329 1.414 . S
C2330 C2331 1.374 . S
C2331 H2311 0.950 . S
C2331 C2327 1.385 . S
C2331 C2330 1.374 . S
C2332 C2329 1.499 . S
C2332 C2333 1.373 . S
C2332 C2334 1.389 . S
C2333 H2312 0.950 . S
C2333 C2332 1.373 . S
C2333 C2349 1.377 . S
C2334 C2332 1.389 . S
C2334 C2335 1.524 . S
C2334 C2348 1.377 . S
C2335 C2334 1.524 . S
C2335 C2336 1.397 . S
C2335 C2340 1.363 . S
C2336 H2313 0.950 . S
C2336 C2335 1.397 . S
C2336 C2337 1.334 . S
C2337 H2314 0.950 . S
C2337 C2336 1.334 . S
C2337 C2338 1.287 . S
C2338 C2337 1.287 . S
C2338 C2339 1.524 . S
C2338 H2357 0.913 . S
C2339 H2315 0.950 . S
C2339 C2338 1.524 . S
C2339 C2340 1.415 . S
C2340 H2316 0.950 . S
C2340 C2335 1.363 . S
C2340 C2339 1.415 . S
C2341 H2317 0.951 . S
C2341 C2342 1.366 . S
C2341 C2343 1.388 . S
C2342 C2341 1.366 . S
C2342 C2346 1.385 . S
C2343 H2318 0.951 . S
C2343 C2341 1.388 . S
C2343 C2344 1.366 . S
C2344 C2343 1.366 . S
C2344 C2345 1.414 . S
C2344 C2347 1.499 . S
C2345 H2319 0.950 . S
C2345 C2344 1.414 . S
C2345 C2346 1.374 . S
C2346 H2320 0.950 . S
C2346 C2342 1.385 . S
C2346 C2345 1.374 . S
C2347 C2344 1.499 . S
C2347 C2348 1.373 . S
C2347 C2349 1.389 . S
C2348 H2321 0.950 . S
C2348 C2334 1.377 . S
C2348 C2347 1.373 . S
C2349 C2333 1.377 . S
C2349 C2347 1.389 . S
C2349 C2350 1.524 . S
C2350 C2349 1.524 . S
C2350 C2351 1.397 . S
C2350 C2355 1.363 . S
C2351 H2322 0.950 . S
C2351 C2350 1.397 . S
C2351 C2352 1.334 . S
C2352 H2323 0.950 . S
C2352 C2351 1.334 . S
C2352 C2353 1.287 . S
C2353 C2352 1.287 . S
C2353 C2354 1.524 . S
C2353 H2356 0.999 . S
C2354 H2324 0.950 . S
C2354 C2353 1.524 . S
C2354 C2355 1.415 . S
C2355 H2325 0.950 . S
C2355 C2350 1.363 . S
C2355 C2354 1.415 . S
H2356 C2353 0.999 . S
H2357 C2338 0.913 . S
H2358 C2376 0.951 . S
H2359 C2378 0.951 . S
H2360 C2380 0.950 . S
H2361 C2381 0.950 . S
H2362 C2383 0.950 . S
H2363 C2386 0.950 . S
H2364 C2387 0.950 . S
H2365 C2389 0.950 . S
H2366 C2390 0.950 . S
H2367 C2391 0.951 . S
H2368 C2393 0.951 . S
H2369 C2395 0.950 . S
H2370 C2396 0.950 . S
H2371 C2398 0.950 . S
H2372 C2401 0.950 . S
H2373 C2402 0.950 . S
H2374 C2404 0.950 . S
H2375 C2405 0.950 . S
C2376 H2358 0.951 . S
C2376 C2377 1.366 . S
C2376 C2378 1.388 . S
C2377 C2376 1.366 . S
C2377 C2381 1.385 . S
C2378 H2359 0.951 . S
C2378 C2376 1.388 . S
C2378 C2379 1.366 . S
C2379 C2378 1.366 . S
C2379 C2380 1.414 . S
C2379 C2382 1.499 . S
C2380 H2360 0.950 . S
C2380 C2379 1.414 . S
C2380 C2381 1.374 . S
C2381 H2361 0.950 . S
C2381 C2377 1.385 . S
C2381 C2380 1.374 . S
C2382 C2379 1.499 . S
C2382 C2383 1.373 . S
C2382 C2384 1.389 . S
C2383 H2362 0.950 . S
C2383 C2382 1.373 . S
C2383 C2399 1.377 . S
C2384 C2382 1.389 . S
C2384 C2385 1.524 . S
C2384 C2398 1.377 . S
C2385 C2384 1.524 . S
C2385 C2386 1.397 . S
C2385 C2390 1.363 . S
C2386 H2363 0.950 . S
C2386 C2385 1.397 . S
C2386 C2387 1.334 . S
C2387 H2364 0.950 . S
C2387 C2386 1.334 . S
C2387 C2388 1.287 . S
C2388 C2387 1.287 . S
C2388 C2389 1.524 . S
C2388 H2407 0.913 . S
C2389 H2365 0.950 . S
C2389 C2388 1.524 . S
C2389 C2390 1.415 . S
C2390 H2366 0.950 . S
C2390 C2385 1.363 . S
C2390 C2389 1.415 . S
C2391 H2367 0.951 . S
C2391 C2392 1.366 . S
C2391 C2393 1.388 . S
C2392 C2391 1.366 . S
C2392 C2396 1.385 . S
C2393 H2368 0.951 . S
C2393 C2391 1.388 . S
C2393 C2394 1.366 . S
C2394 C2393 1.366 . S
C2394 C2395 1.414 . S
C2394 C2397 1.499 . S
C2395 H2369 0.950 . S
C2395 C2394 1.414 . S
C2395 C2396 1.374 . S
C2396 H2370 0.950 . S
C2396 C2392 1.385 . S
C2396 C2395 1.374 . S
C2397 C2394 1.499 . S
C2397 C2398 1.373 . S
C2397 C2399 1.389 . S
C2398 H2371 0.950 . S
C2398 C2384 1.377 . S
C2398 C2397 1.373 . S
C2399 C2383 1.377 . S
C2399 C2397 1.389 . S
C2399 C2400 1.524 . S
C2400 C2399 1.524 . S
C2400 C2401 1.397 . S
C2400 C2405 1.363 . S
C2401 H2372 0.950 . S
C2401 C2400 1.397 . S
C2401 C2402 1.334 . S
C2402 H2373 0.950 . S
C2402 C2401 1.334 . S
C2402 C2403 1.287 . S
C2403 C2402 1.287 . S
C2403 C2404 1.524 . S
C2403 H2406 0.999 . S
C2404 H2374 0.950 . S
C2404 C2403 1.524 . S
C2404 C2405 1.415 . S
C2405 H2375 0.950 . S
C2405 C2400 1.363 . S
C2405 C2404 1.415 . S
H2406 C2403 0.999 . S
H2407 C2388 0.913 . S
H2408 C2426 0.951 . S
H2409 C2428 0.951 . S
H2410 C2430 0.950 . S
H2411 C2431 0.950 . S
H2412 C2433 0.950 . S
H2413 C2436 0.950 . S
H2414 C2437 0.950 . S
H2415 C2439 0.950 . S
H2416 C2440 0.950 . S
H2417 C2441 0.951 . S
H2418 C2443 0.951 . S
H2419 C2445 0.950 . S
H2420 C2446 0.950 . S
H2421 C2448 0.950 . S
H2422 C2451 0.950 . S
H2423 C2452 0.950 . S
H2424 C2454 0.950 . S
H2425 C2455 0.950 . S
C2426 H2408 0.951 . S
C2426 C2427 1.366 . S
C2426 C2428 1.388 . S
C2427 C2426 1.366 . S
C2427 C2431 1.385 . S
C2428 H2409 0.951 . S
C2428 C2426 1.388 . S
C2428 C2429 1.366 . S
C2429 C2428 1.366 . S
C2429 C2430 1.414 . S
C2429 C2432 1.499 . S
C2430 H2410 0.950 . S
C2430 C2429 1.414 . S
C2430 C2431 1.374 . S
C2431 H2411 0.950 . S
C2431 C2427 1.385 . S
C2431 C2430 1.374 . S
C2432 C2429 1.499 . S
C2432 C2433 1.373 . S
C2432 C2434 1.389 . S
C2433 H2412 0.950 . S
C2433 C2432 1.373 . S
C2433 C2449 1.377 . S
C2434 C2432 1.389 . S
C2434 C2435 1.524 . S
C2434 C2448 1.377 . S
C2435 C2434 1.524 . S
C2435 C2436 1.397 . S
C2435 C2440 1.363 . S
C2436 H2413 0.950 . S
C2436 C2435 1.397 . S
C2436 C2437 1.334 . S
C2437 H2414 0.950 . S
C2437 C2436 1.334 . S
C2437 C2438 1.287 . S
C2438 C2437 1.287 . S
C2438 C2439 1.524 . S
C2438 H2457 0.913 . S
C2439 H2415 0.950 . S
C2439 C2438 1.524 . S
C2439 C2440 1.415 . S
C2440 H2416 0.950 . S
C2440 C2435 1.363 . S
C2440 C2439 1.415 . S
C2441 H2417 0.951 . S
C2441 C2442 1.366 . S
C2441 C2443 1.388 . S
C2442 C2441 1.366 . S
C2442 C2446 1.385 . S
C2443 H2418 0.951 . S
C2443 C2441 1.388 . S
C2443 C2444 1.366 . S
C2444 C2443 1.366 . S
C2444 C2445 1.414 . S
C2444 C2447 1.499 . S
C2445 H2419 0.950 . S
C2445 C2444 1.414 . S
C2445 C2446 1.374 . S
C2446 H2420 0.950 . S
C2446 C2442 1.385 . S
C2446 C2445 1.374 . S
C2447 C2444 1.499 . S
C2447 C2448 1.373 . S
C2447 C2449 1.389 . S
C2448 H2421 0.950 . S
C2448 C2434 1.377 . S
C2448 C2447 1.373 . S
C2449 C2433 1.377 . S
C2449 C2447 1.389 . S
C2449 C2450 1.524 . S
C2450 C2449 1.524 . S
C2450 C2451 1.397 . S
C2450 C2455 1.363 . S
C2451 H2422 0.950 . S
C2451 C2450 1.397 . S
C2451 C2452 1.334 . S
C2452 H2423 0.950 . S
C2452 C2451 1.334 . S
C2452 C2453 1.287 . S
C2453 C2452 1.287 . S
C2453 C2454 1.524 . S
C2453 H2456 0.999 . S
C2454 H2424 0.950 . S
C2454 C2453 1.524 . S
C2454 C2455 1.415 . S
C2455 H2425 0.950 . S
C2455 C2450 1.363 . S
C2455 C2454 1.415 . S
H2456 C2453 0.999 . S
H2457 C2438 0.913 . S
H2458 C2476 0.951 . S
H2459 C2478 0.951 . S
H2460 C2480 0.950 . S
H2461 C2481 0.950 . S
H2462 C2483 0.950 . S
H2463 C2486 0.950 . S
H2464 C2487 0.950 . S
H2465 C2489 0.950 . S
H2466 C2490 0.950 . S
H2467 C2491 0.951 . S
H2468 C2493 0.951 . S
H2469 C2495 0.950 . S
H2470 C2496 0.950 . S
H2471 C2498 0.950 . S
H2472 C2501 0.950 . S
H2473 C2502 0.950 . S
H2474 C2504 0.950 . S
H2475 C2505 0.950 . S
C2476 H2458 0.951 . S
C2476 C2477 1.366 . S
C2476 C2478 1.388 . S
C2477 C2476 1.366 . S
C2477 C2481 1.385 . S
C2478 H2459 0.951 . S
C2478 C2476 1.388 . S
C2478 C2479 1.366 . S
C2479 C2478 1.366 . S
C2479 C2480 1.414 . S
C2479 C2482 1.499 . S
C2480 H2460 0.950 . S
C2480 C2479 1.414 . S
C2480 C2481 1.374 . S
C2481 H2461 0.950 . S
C2481 C2477 1.385 . S
C2481 C2480 1.374 . S
C2482 C2479 1.499 . S
C2482 C2483 1.373 . S
C2482 C2484 1.389 . S
C2483 H2462 0.950 . S
C2483 C2482 1.373 . S
C2483 C2499 1.377 . S
C2484 C2482 1.389 . S
C2484 C2485 1.524 . S
C2484 C2498 1.377 . S
C2485 C2484 1.524 . S
C2485 C2486 1.397 . S
C2485 C2490 1.363 . S
C2486 H2463 0.950 . S
C2486 C2485 1.397 . S
C2486 C2487 1.334 . S
C2487 H2464 0.950 . S
C2487 C2486 1.334 . S
C2487 C2488 1.287 . S
C2488 C2487 1.287 . S
C2488 C2489 1.524 . S
C2488 H2507 0.913 . S
C2489 H2465 0.950 . S
C2489 C2488 1.524 . S
C2489 C2490 1.415 . S
C2490 H2466 0.950 . S
C2490 C2485 1.363 . S
C2490 C2489 1.415 . S
C2491 H2467 0.951 . S
C2491 C2492 1.366 . S
C2491 C2493 1.388 . S
C2492 C2491 1.366 . S
C2492 C2496 1.385 . S
C2493 H2468 0.951 . S
C2493 C2491 1.388 . S
C2493 C2494 1.366 . S
C2494 C2493 1.366 . S
C2494 C2495 1.414 . S
C2494 C2497 1.499 . S
C2495 H2469 0.950 . S
C2495 C2494 1.414 . S
C2495 C2496 1.374 . S
C2496 H2470 0.950 . S
C2496 C2492 1.385 . S
C2496 C2495 1.374 . S
C2497 C2494 1.499 . S
C2497 C2498 1.373 . S
C2497 C2499 1.389 . S
C2498 H2471 0.950 . S
C2498 C2484 1.377 . S
C2498 C2497 1.373 . S
C2499 C2483 1.377 . S
C2499 C2497 1.389 . S
C2499 C2500 1.524 . S
C2500 C2499 1.524 . S
C2500 C2501 1.397 . S
C2500 C2505 1.363 . S
C2501 H2472 0.950 . S
C2501 C2500 1.397 . S
C2501 C2502 1.334 . S
C2502 H2473 0.950 . S
C2502 C2501 1.334 . S
C2502 C2503 1.287 . S
C2503 C2502 1.287 . S
C2503 C2504 1.524 . S
C2503 H2506 0.999 . S
C2504 H2474 0.950 . S
C2504 C2503 1.524 . S
C2504 C2505 1.415 . S
C2505 H2475 0.950 . S
C2505 C2500 1.363 . S
C2505 C2504 1.415 . S
H2506 C2503 0.999 . S
H2507 C2488 0.913 . S
H2508 C2526 0.951 . S
H2509 C2528 0.951 . S
H2510 C2530 0.950 . S
H2511 C2531 0.950 . S
H2512 C2533 0.950 . S
H2513 C2536 0.950 . S
H2514 C2537 0.950 . S
H2515 C2539 0.950 . S
H2516 C2540 0.950 . S
H2517 C2541 0.951 . S
H2518 C2543 0.951 . S
H2519 C2545 0.950 . S
H2520 C2546 0.950 . S
H2521 C2548 0.950 . S
H2522 C2551 0.950 . S
H2523 C2552 0.950 . S
H2524 C2554 0.950 . S
H2525 C2555 0.950 . S
C2526 H2508 0.951 . S
C2526 C2527 1.366 . S
C2526 C2528 1.388 . S
C2527 C2526 1.366 . S
C2527 C2531 1.385 . S
C2528 H2509 0.951 . S
C2528 C2526 1.388 . S
C2528 C2529 1.366 . S
C2529 C2528 1.366 . S
C2529 C2530 1.414 . S
C2529 C2532 1.499 . S
C2530 H2510 0.950 . S
C2530 C2529 1.414 . S
C2530 C2531 1.374 . S
C2531 H2511 0.950 . S
C2531 C2527 1.385 . S
C2531 C2530 1.374 . S
C2532 C2529 1.499 . S
C2532 C2533 1.373 . S
C2532 C2534 1.389 1_565 S
C2533 H2512 0.950 . S
C2533 C2532 1.373 . S
C2533 C2549 1.377 . S
C2534 C2532 1.389 1_545 S
C2534 C2535 1.524 . S
C2534 C2548 1.377 . S
C2535 C2534 1.524 . S
C2535 C2536 1.397 . S
C2535 C2540 1.363 . S
C2536 H2513 0.950 . S
C2536 C2535 1.397 . S
C2536 C2537 1.334 . S
C2537 H2514 0.950 . S
C2537 C2536 1.334 . S
C2537 C2538 1.287 . S
C2538 C2537 1.287 . S
C2538 C2539 1.524 . S
C2538 H2557 0.913 . S
C2539 H2515 0.950 . S
C2539 C2538 1.524 . S
C2539 C2540 1.415 . S
C2540 H2516 0.950 . S
C2540 C2535 1.363 . S
C2540 C2539 1.415 . S
C2541 H2517 0.951 . S
C2541 C2542 1.366 . S
C2541 C2543 1.388 . S
C2542 C2541 1.366 . S
C2542 C2546 1.385 . S
C2543 H2518 0.951 . S
C2543 C2541 1.388 . S
C2543 C2544 1.366 . S
C2544 C2543 1.366 . S
C2544 C2545 1.414 . S
C2544 C2547 1.499 . S
C2545 H2519 0.950 . S
C2545 C2544 1.414 . S
C2545 C2546 1.374 . S
C2546 H2520 0.950 . S
C2546 C2542 1.385 . S
C2546 C2545 1.374 . S
C2547 C2544 1.499 . S
C2547 C2548 1.373 . S
C2547 C2549 1.389 1_545 S
C2548 H2521 0.950 . S
C2548 C2534 1.377 . S
C2548 C2547 1.373 . S
C2549 C2533 1.377 . S
C2549 C2547 1.389 1_565 S
C2549 C2550 1.524 . S
C2550 C2549 1.524 . S
C2550 C2551 1.397 . S
C2550 C2555 1.363 . S
C2551 H2522 0.950 . S
C2551 C2550 1.397 . S
C2551 C2552 1.334 . S
C2552 H2523 0.950 . S
C2552 C2551 1.334 . S
C2552 C2553 1.287 . S
C2553 C2552 1.287 . S
C2553 C2554 1.524 . S
C2553 H2556 0.999 . S
C2554 H2524 0.950 . S
C2554 C2553 1.524 . S
C2554 C2555 1.415 . S
C2555 H2525 0.950 . S
C2555 C2550 1.363 . S
C2555 C2554 1.415 . S
H2556 C2553 0.999 . S
H2557 C2538 0.913 . S
H2558 C2576 0.951 . S
H2559 C2578 0.951 . S
H2560 C2580 0.950 1_554 S
H2561 C2581 0.950 . S
H2562 C2583 0.950 . S
H2563 C2586 0.950 . S
H2564 C2587 0.950 . S
H2565 C2589 0.950 . S
H2566 C2590 0.950 . S
H2567 C2591 0.951 . S
H2568 C2593 0.951 . S
H2569 C2595 0.950 . S
H2570 C2596 0.950 . S
H2571 C2598 0.950 . S
H2572 C2601 0.950 . S
H2573 C2602 0.950 . S
H2574 C2604 0.950 . S
H2575 C2605 0.950 . S
C2576 H2558 0.951 . S
C2576 C2577 1.357 1_455 S
C2576 C2578 1.388 1_556 S
C2577 C2576 1.357 1_655 S
C2577 C2581 1.394 . S
C2578 H2559 0.951 . S
C2578 C2576 1.388 1_554 S
C2578 C2579 1.366 1_455 S
C2579 C2578 1.366 1_655 S
C2579 C2580 1.414 1_554 S
C2579 C2582 1.498 . S
C2580 H2560 0.950 1_556 S
C2580 C2579 1.414 1_556 S
C2580 C2581 1.374 . S
C2581 H2561 0.950 . S
C2581 C2577 1.394 . S
C2581 C2580 1.374 . S
C2582 C2579 1.498 . S
C2582 C2583 1.400 . S
C2582 C2584 1.363 1_645 S
C2583 H2562 0.950 . S
C2583 C2582 1.400 . S
C2583 C2599 1.377 . S
C2584 C2582 1.363 1_465 S
C2584 C2585 1.524 . S
C2584 C2598 1.377 . S
C2585 C2584 1.524 . S
C2585 C2586 1.397 1_554 S
C2585 C2590 1.363 . S
C2586 H2563 0.950 . S
C2586 C2585 1.397 1_556 S
C2586 C2587 1.334 . S
C2587 H2564 0.950 . S
C2587 C2586 1.334 . S
C2587 C2588 1.287 . S
C2588 C2587 1.287 . S
C2588 C2589 1.524 1_556 S
C2588 H2607 0.913 . S
C2589 H2565 0.950 . S
C2589 C2588 1.524 1_554 S
C2589 C2590 1.415 . S
C2590 H2566 0.950 . S
C2590 C2585 1.363 . S
C2590 C2589 1.415 . S
C2591 H2567 0.951 . S
C2591 C2592 1.373 . S
C2591 C2593 1.388 . S
C2592 C2591 1.373 . S
C2592 C2596 1.377 1_655 S
C2593 H2568 0.951 . S
C2593 C2591 1.388 . S
C2593 C2594 1.382 . S
C2594 C2593 1.382 . S
C2594 C2595 1.397 1_655 S
C2594 C2597 1.498 1_655 S
C2595 H2569 0.950 . S
C2595 C2594 1.397 1_455 S
C2595 C2596 1.374 . S
C2596 H2570 0.950 . S
C2596 C2592 1.377 1_455 S
C2596 C2595 1.374 . S
C2597 C2594 1.498 1_455 S
C2597 C2598 1.372 . S
C2597 C2599 1.391 1_465 S
C2598 H2571 0.950 . S
C2598 C2584 1.377 . S
C2598 C2597 1.372 . S
C2599 C2583 1.377 . S
C2599 C2597 1.391 1_645 S
C2599 C2600 1.524 . S
C2600 C2599 1.524 . S
C2600 C2601 1.397 . S
C2600 C2605 1.363 . S
C2601 H2572 0.950 . S
C2601 C2600 1.397 . S
C2601 C2602 1.334 . S
C2602 H2573 0.950 . S
C2602 C2601 1.334 . S
C2602 C2603 1.287 . S
C2603 C2602 1.287 . S
C2603 C2604 1.524 . S
C2603 H2606 0.999 . S
C2604 H2574 0.950 . S
C2604 C2603 1.524 . S
C2604 C2605 1.415 . S
C2605 H2575 0.950 . S
C2605 C2600 1.363 . S
C2605 C2604 1.415 . S
H2606 C2603 0.999 . S
H2607 C2588 0.913 . S
H2608 C2626 0.951 . S
H2609 C2628 0.951 . S
H2610 C2630 0.950 . S
H2611 C2631 0.950 . S
H2612 C2633 0.950 . S
H2613 C2636 0.946 . S
H2614 C2637 0.950 1_455 S
H2615 C2639 0.950 . S
H2616 C2640 0.950 . S
H2617 C2641 0.951 . S
H2618 C2643 0.951 . S
H2619 C2645 0.950 . S
H2620 C2646 0.950 . S
H2621 C2648 0.950 . S
H2622 C2651 0.981 . S
H2623 C2652 0.950 1_655 S
H2624 C2654 0.950 . S
H2625 C2655 0.950 . S
C2626 H2608 0.951 . S
C2626 C2627 1.373 . S
C2626 C2628 1.388 . S
C2627 C2626 1.373 . S
C2627 C2631 1.377 1_655 S
C2628 H2609 0.951 . S
C2628 C2626 1.388 . S
C2628 C2629 1.371 1_655 S
C2629 C2628 1.371 1_455 S
C2629 C2630 1.409 . S
C2629 C2632 1.498 . S
C2630 H2610 0.950 . S
C2630 C2629 1.409 . S
C2630 C2631 1.374 . S
C2631 H2611 0.950 . S
C2631 C2627 1.377 1_455 S
C2631 C2630 1.374 . S
C2632 C2629 1.498 . S
C2632 C2633 1.385 . S
C2632 C2634 1.377 1_455 S
C2633 H2612 0.950 . S
C2633 C2632 1.385 . S
C2633 C2649 1.377 . S
C2634 C2632 1.377 1_655 S
C2634 C2635 1.524 . S
C2634 C2648 1.377 . S
C2635 C2634 1.524 . S
C2635 C2636 1.399 1_655 S
C2635 C2640 1.363 . S
C2636 H2613 0.946 . S
C2636 C2635 1.399 1_455 S
C2636 C2637 1.335 1_455 S
C2637 H2614 0.950 1_655 S
C2637 C2636 1.335 1_655 S
C2637 C2638 1.287 . S
C2638 C2637 1.287 . S
C2638 C2639 1.524 . S
C2638 H2657 0.913 . S
C2639 H2615 0.950 . S
C2639 C2638 1.524 . S
C2639 C2640 1.415 . S
C2640 H2616 0.950 . S
C2640 C2635 1.363 . S
C2640 C2639 1.415 . S
C2641 H2617 0.951 . S
C2641 C2642 1.358 1_455 S
C2641 C2643 1.388 . S
C2642 C2641 1.358 1_655 S
C2642 C2646 1.392 . S
C2643 H2618 0.951 . S
C2643 C2641 1.388 . S
C2643 C2644 1.339 1_455 S
C2644 C2643 1.339 1_655 S
C2644 C2645 1.441 . S
C2644 C2647 1.498 . S
C2645 H2619 0.950 . S
C2645 C2644 1.441 . S
C2645 C2646 1.374 . S
C2646 H2620 0.950 . S
C2646 C2642 1.392 . S
C2646 C2645 1.374 . S
C2647 C2644 1.498 . S
C2647 C2648 1.400 . S
C2647 C2649 1.363 1_655 S
C2648 H2621 0.950 . S
C2648 C2634 1.377 . S
C2648 C2647 1.400 . S
C2649 C2633 1.377 . S
C2649 C2647 1.363 1_455 S
C2649 C2650 1.524 . S
C2650 C2649 1.524 . S
C2650 C2651 1.373 1_455 S
C2650 C2655 1.363 . S
C2651 H2622 0.981 . S
C2651 C2650 1.373 1_655 S
C2651 C2652 1.327 1_655 S
C2652 H2623 0.950 1_455 S
C2652 C2651 1.327 1_455 S
C2652 C2653 1.287 . S
C2653 C2652 1.287 . S
C2653 C2654 1.524 . S
C2653 H2656 0.999 . S
C2654 H2624 0.950 . S
C2654 C2653 1.524 . S
C2654 C2655 1.415 . S
C2655 H2625 0.950 . S
C2655 C2650 1.363 . S
C2655 C2654 1.415 . S
H2656 C2653 0.999 . S
H2657 C2638 0.913 . S
H2658 C2676 0.951 . S
H2659 C2678 0.951 . S
H2660 C2680 0.950 . S
H2661 C2681 0.950 . S
H2662 C2683 0.950 . S
H2663 C2686 0.950 . S
H2664 C2687 0.950 . S
H2665 C2689 0.950 . S
H2666 C2690 0.950 . S
H2667 C2691 0.951 . S
H2668 C2693 0.951 . S
H2669 C2695 0.950 . S
H2670 C2696 0.950 . S
H2671 C2698 0.950 . S
H2672 C2701 0.950 . S
H2673 C2702 0.950 . S
H2674 C2704 0.950 . S
H2675 C2705 0.950 . S
C2676 H2658 0.951 . S
C2676 C2677 1.366 . S
C2676 C2678 1.388 . S
C2677 C2676 1.366 . S
C2677 C2681 1.385 . S
C2678 H2659 0.951 . S
C2678 C2676 1.388 . S
C2678 C2679 1.366 . S
C2679 C2678 1.366 . S
C2679 C2680 1.414 . S
C2679 C2682 1.499 . S
C2680 H2660 0.950 . S
C2680 C2679 1.414 . S
C2680 C2681 1.374 . S
C2681 H2661 0.950 . S
C2681 C2677 1.385 . S
C2681 C2680 1.374 . S
C2682 C2679 1.499 . S
C2682 C2683 1.373 . S
C2682 C2684 1.389 . S
C2683 H2662 0.950 . S
C2683 C2682 1.373 . S
C2683 C2699 1.377 . S
C2684 C2682 1.389 . S
C2684 C2685 1.524 . S
C2684 C2698 1.377 . S
C2685 C2684 1.524 . S
C2685 C2686 1.397 . S
C2685 C2690 1.363 . S
C2686 H2663 0.950 . S
C2686 C2685 1.397 . S
C2686 C2687 1.334 . S
C2687 H2664 0.950 . S
C2687 C2686 1.334 . S
C2687 C2688 1.287 . S
C2688 C2687 1.287 . S
C2688 C2689 1.524 . S
C2688 H2707 0.913 . S
C2689 H2665 0.950 . S
C2689 C2688 1.524 . S
C2689 C2690 1.415 . S
C2690 H2666 0.950 . S
C2690 C2685 1.363 . S
C2690 C2689 1.415 . S
C2691 H2667 0.951 . S
C2691 C2692 1.366 . S
C2691 C2693 1.388 . S
C2692 C2691 1.366 . S
C2692 C2696 1.385 . S
C2693 H2668 0.951 . S
C2693 C2691 1.388 . S
C2693 C2694 1.366 . S
C2694 C2693 1.366 . S
C2694 C2695 1.414 . S
C2694 C2697 1.499 . S
C2695 H2669 0.950 . S
C2695 C2694 1.414 . S
C2695 C2696 1.374 . S
C2696 H2670 0.950 . S
C2696 C2692 1.385 . S
C2696 C2695 1.374 . S
C2697 C2694 1.499 . S
C2697 C2698 1.373 . S
C2697 C2699 1.389 . S
C2698 H2671 0.950 . S
C2698 C2684 1.377 . S
C2698 C2697 1.373 . S
C2699 C2683 1.377 . S
C2699 C2697 1.389 . S
C2699 C2700 1.524 . S
C2700 C2699 1.524 . S
C2700 C2701 1.397 . S
C2700 C2705 1.363 . S
C2701 H2672 0.950 . S
C2701 C2700 1.397 . S
C2701 C2702 1.334 . S
C2702 H2673 0.950 . S
C2702 C2701 1.334 . S
C2702 C2703 1.287 . S
C2703 C2702 1.287 . S
C2703 C2704 1.524 . S
C2703 H2706 0.999 . S
C2704 H2674 0.950 . S
C2704 C2703 1.524 . S
C2704 C2705 1.415 . S
C2705 H2675 0.950 . S
C2705 C2700 1.363 . S
C2705 C2704 1.415 . S
H2706 C2703 0.999 . S
H2707 C2688 0.913 . S
H2708 C2726 0.951 . S
H2709 C2728 0.951 . S
H2710 C2730 0.950 . S
H2711 C2731 0.950 . S
H2712 C2733 0.950 . S
H2713 C2736 0.950 . S
H2714 C2737 0.950 . S
H2715 C2739 0.950 . S
H2716 C2740 0.950 . S
H2717 C2741 0.951 . S
H2718 C2743 0.951 . S
H2719 C2745 0.950 . S
H2720 C2746 0.950 . S
H2721 C2748 0.950 . S
H2722 C2751 0.950 . S
H2723 C2752 0.950 . S
H2724 C2754 0.950 . S
H2725 C2755 0.950 . S
C2726 H2708 0.951 . S
C2726 C2727 1.366 . S
C2726 C2728 1.388 . S
C2727 C2726 1.366 . S
C2727 C2731 1.385 . S
C2728 H2709 0.951 . S
C2728 C2726 1.388 . S
C2728 C2729 1.366 . S
C2729 C2728 1.366 . S
C2729 C2730 1.414 . S
C2729 C2732 1.499 . S
C2730 H2710 0.950 . S
C2730 C2729 1.414 . S
C2730 C2731 1.374 . S
C2731 H2711 0.950 . S
C2731 C2727 1.385 . S
C2731 C2730 1.374 . S
C2732 C2729 1.499 . S
C2732 C2733 1.373 . S
C2732 C2734 1.389 . S
C2733 H2712 0.950 . S
C2733 C2732 1.373 . S
C2733 C2749 1.377 . S
C2734 C2732 1.389 . S
C2734 C2735 1.524 . S
C2734 C2748 1.377 . S
C2735 C2734 1.524 . S
C2735 C2736 1.397 . S
C2735 C2740 1.363 . S
C2736 H2713 0.950 . S
C2736 C2735 1.397 . S
C2736 C2737 1.334 . S
C2737 H2714 0.950 . S
C2737 C2736 1.334 . S
C2737 C2738 1.287 . S
C2738 C2737 1.287 . S
C2738 C2739 1.524 . S
C2738 H2757 0.913 . S
C2739 H2715 0.950 . S
C2739 C2738 1.524 . S
C2739 C2740 1.415 . S
C2740 H2716 0.950 . S
C2740 C2735 1.363 . S
C2740 C2739 1.415 . S
C2741 H2717 0.951 . S
C2741 C2742 1.366 . S
C2741 C2743 1.388 1_556 S
C2742 C2741 1.366 . S
C2742 C2746 1.385 . S
C2743 H2718 0.951 . S
C2743 C2741 1.388 1_554 S
C2743 C2744 1.366 . S
C2744 C2743 1.366 . S
C2744 C2745 1.414 1_554 S
C2744 C2747 1.499 . S
C2745 H2719 0.950 . S
C2745 C2744 1.414 1_556 S
C2745 C2746 1.374 . S
C2746 H2720 0.950 . S
C2746 C2742 1.385 . S
C2746 C2745 1.374 . S
C2747 C2744 1.499 . S
C2747 C2748 1.373 . S
C2747 C2749 1.389 . S
C2748 H2721 0.950 . S
C2748 C2734 1.377 . S
C2748 C2747 1.373 . S
C2749 C2733 1.377 . S
C2749 C2747 1.389 . S
C2749 C2750 1.524 . S
C2750 C2749 1.524 . S
C2750 C2751 1.397 . S
C2750 C2755 1.363 . S
C2751 H2722 0.950 . S
C2751 C2750 1.397 . S
C2751 C2752 1.334 . S
C2752 H2723 0.950 . S
C2752 C2751 1.334 . S
C2752 C2753 1.287 . S
C2753 C2752 1.287 . S
C2753 C2754 1.524 . S
C2753 H2756 0.999 . S
C2754 H2724 0.950 . S
C2754 C2753 1.524 . S
C2754 C2755 1.415 . S
C2755 H2725 0.950 . S
C2755 C2750 1.363 . S
C2755 C2754 1.415 . S
H2756 C2753 0.999 . S
H2757 C2738 0.913 . S
H2758 C2776 0.951 . S
H2759 C2778 0.951 . S
H2760 C2780 0.950 . S
H2761 C2781 0.950 . S
H2762 C2783 0.950 . S
H2763 C2786 0.950 . S
H2764 C2787 0.950 . S
H2765 C2789 0.950 . S
H2766 C2790 0.950 . S
H2767 C2791 0.951 . S
H2768 C2793 0.951 . S
H2769 C2795 0.950 . S
H2770 C2796 0.950 . S
H2771 C2798 0.950 . S
H2772 C2801 0.950 . S
H2773 C2802 0.950 . S
H2774 C2804 0.950 . S
H2775 C2805 0.950 . S
C2776 H2758 0.951 . S
C2776 C2777 1.366 . S
C2776 C2778 1.388 . S
C2777 C2776 1.366 . S
C2777 C2781 1.385 . S
C2778 H2759 0.951 . S
C2778 C2776 1.388 . S
C2778 C2779 1.366 . S
C2779 C2778 1.366 . S
C2779 C2780 1.414 . S
C2779 C2782 1.499 . S
C2780 H2760 0.950 . S
C2780 C2779 1.414 . S
C2780 C2781 1.374 . S
C2781 H2761 0.950 . S
C2781 C2777 1.385 . S
C2781 C2780 1.374 . S
C2782 C2779 1.499 . S
C2782 C2783 1.373 . S
C2782 C2784 1.389 . S
C2783 H2762 0.950 . S
C2783 C2782 1.373 . S
C2783 C2799 1.377 . S
C2784 C2782 1.389 . S
C2784 C2785 1.524 . S
C2784 C2798 1.377 . S
C2785 C2784 1.524 . S
C2785 C2786 1.397 . S
C2785 C2790 1.363 . S
C2786 H2763 0.950 . S
C2786 C2785 1.397 . S
C2786 C2787 1.334 . S
C2787 H2764 0.950 . S
C2787 C2786 1.334 . S
C2787 C2788 1.287 . S
C2788 C2787 1.287 . S
C2788 C2789 1.524 . S
C2788 H2807 0.913 . S
C2789 H2765 0.950 . S
C2789 C2788 1.524 . S
C2789 C2790 1.415 . S
C2790 H2766 0.950 . S
C2790 C2785 1.363 . S
C2790 C2789 1.415 . S
C2791 H2767 0.951 . S
C2791 C2792 1.366 . S
C2791 C2793 1.388 . S
C2792 C2791 1.366 . S
C2792 C2796 1.385 . S
C2793 H2768 0.951 . S
C2793 C2791 1.388 . S
C2793 C2794 1.366 . S
C2794 C2793 1.366 . S
C2794 C2795 1.414 . S
C2794 C2797 1.499 . S
C2795 H2769 0.950 . S
C2795 C2794 1.414 . S
C2795 C2796 1.374 . S
C2796 H2770 0.950 . S
C2796 C2792 1.385 . S
C2796 C2795 1.374 . S
C2797 C2794 1.499 . S
C2797 C2798 1.373 . S
C2797 C2799 1.389 . S
C2798 H2771 0.950 . S
C2798 C2784 1.377 . S
C2798 C2797 1.373 . S
C2799 C2783 1.377 . S
C2799 C2797 1.389 . S
C2799 C2800 1.524 . S
C2800 C2799 1.524 . S
C2800 C2801 1.397 . S
C2800 C2805 1.363 . S
C2801 H2772 0.950 . S
C2801 C2800 1.397 . S
C2801 C2802 1.334 . S
C2802 H2773 0.950 . S
C2802 C2801 1.334 . S
C2802 C2803 1.287 . S
C2803 C2802 1.287 . S
C2803 C2804 1.524 . S
C2803 H2806 0.999 . S
C2804 H2774 0.950 . S
C2804 C2803 1.524 . S
C2804 C2805 1.415 . S
C2805 H2775 0.950 . S
C2805 C2800 1.363 . S
C2805 C2804 1.415 . S
H2806 C2803 0.999 . S
H2807 C2788 0.913 . S
H2808 C2826 0.951 . S
H2809 C2828 0.951 . S
H2810 C2830 0.950 . S
H2811 C2831 0.950 . S
H2812 C2833 0.950 . S
H2813 C2836 0.950 . S
H2814 C2837 0.950 . S
H2815 C2839 0.950 . S
H2816 C2840 0.950 . S
H2817 C2841 0.951 . S
H2818 C2843 0.951 . S
H2819 C2845 0.950 . S
H2820 C2846 0.950 . S
H2821 C2848 0.950 . S
H2822 C2851 0.950 . S
H2823 C2852 0.950 . S
H2824 C2854 0.950 . S
H2825 C2855 0.950 . S
C2826 H2808 0.951 . S
C2826 C2827 1.366 . S
C2826 C2828 1.388 . S
C2827 C2826 1.366 . S
C2827 C2831 1.385 . S
C2828 H2809 0.951 . S
C2828 C2826 1.388 . S
C2828 C2829 1.366 . S
C2829 C2828 1.366 . S
C2829 C2830 1.414 . S
C2829 C2832 1.499 . S
C2830 H2810 0.950 . S
C2830 C2829 1.414 . S
C2830 C2831 1.374 . S
C2831 H2811 0.950 . S
C2831 C2827 1.385 . S
C2831 C2830 1.374 . S
C2832 C2829 1.499 . S
C2832 C2833 1.373 . S
C2832 C2834 1.389 . S
C2833 H2812 0.950 . S
C2833 C2832 1.373 . S
C2833 C2849 1.377 . S
C2834 C2832 1.389 . S
C2834 C2835 1.524 . S
C2834 C2848 1.377 . S
C2835 C2834 1.524 . S
C2835 C2836 1.397 . S
C2835 C2840 1.363 . S
C2836 H2813 0.950 . S
C2836 C2835 1.397 . S
C2836 C2837 1.334 . S
C2837 H2814 0.950 . S
C2837 C2836 1.334 . S
C2837 C2838 1.287 . S
C2838 C2837 1.287 . S
C2838 C2839 1.524 . S
C2838 H2857 0.913 . S
C2839 H2815 0.950 . S
C2839 C2838 1.524 . S
C2839 C2840 1.415 . S
C2840 H2816 0.950 . S
C2840 C2835 1.363 . S
C2840 C2839 1.415 . S
C2841 H2817 0.951 . S
C2841 C2842 1.366 . S
C2841 C2843 1.388 . S
C2842 C2841 1.366 . S
C2842 C2846 1.385 . S
C2843 H2818 0.951 . S
C2843 C2841 1.388 . S
C2843 C2844 1.366 . S
C2844 C2843 1.366 . S
C2844 C2845 1.414 . S
C2844 C2847 1.499 . S
C2845 H2819 0.950 . S
C2845 C2844 1.414 . S
C2845 C2846 1.374 . S
C2846 H2820 0.950 . S
C2846 C2842 1.385 . S
C2846 C2845 1.374 . S
C2847 C2844 1.499 . S
C2847 C2848 1.373 . S
C2847 C2849 1.389 . S
C2848 H2821 0.950 . S
C2848 C2834 1.377 . S
C2848 C2847 1.373 . S
C2849 C2833 1.377 . S
C2849 C2847 1.389 . S
C2849 C2850 1.524 . S
C2850 C2849 1.524 . S
C2850 C2851 1.397 . S
C2850 C2855 1.363 . S
C2851 H2822 0.950 . S
C2851 C2850 1.397 . S
C2851 C2852 1.334 . S
C2852 H2823 0.950 . S
C2852 C2851 1.334 . S
C2852 C2853 1.287 . S
C2853 C2852 1.287 . S
C2853 C2854 1.524 . S
C2853 H2856 0.999 . S
C2854 H2824 0.950 . S
C2854 C2853 1.524 . S
C2854 C2855 1.415 . S
C2855 H2825 0.950 . S
C2855 C2850 1.363 . S
C2855 C2854 1.415 . S
H2856 C2853 0.999 . S
H2857 C2838 0.913 . S
H2858 C2876 0.951 . S
H2859 C2878 0.951 . S
H2860 C2880 0.950 . S
H2861 C2881 0.950 . S
H2862 C2883 0.950 . S
H2863 C2886 0.950 . S
H2864 C2887 0.950 . S
H2865 C2889 0.950 . S
H2866 C2890 0.950 . S
H2867 C2891 0.951 . S
H2868 C2893 0.951 . S
H2869 C2895 0.950 . S
H2870 C2896 0.950 . S
H2871 C2898 0.950 . S
H2872 C2901 0.950 . S
H2873 C2902 0.950 . S
H2874 C2904 0.950 . S
H2875 C2905 0.950 . S
C2876 H2858 0.951 . S
C2876 C2877 1.366 . S
C2876 C2878 1.388 . S
C2877 C2876 1.366 . S
C2877 C2881 1.385 . S
C2878 H2859 0.951 . S
C2878 C2876 1.388 . S
C2878 C2879 1.366 . S
C2879 C2878 1.366 . S
C2879 C2880 1.414 . S
C2879 C2882 1.499 . S
C2880 H2860 0.950 . S
C2880 C2879 1.414 . S
C2880 C2881 1.374 . S
C2881 H2861 0.950 . S
C2881 C2877 1.385 . S
C2881 C2880 1.374 . S
C2882 C2879 1.499 . S
C2882 C2883 1.373 . S
C2882 C2884 1.389 . S
C2883 H2862 0.950 . S
C2883 C2882 1.373 . S
C2883 C2899 1.377 . S
C2884 C2882 1.389 . S
C2884 C2885 1.524 . S
C2884 C2898 1.377 . S
C2885 C2884 1.524 . S
C2885 C2886 1.397 . S
C2885 C2890 1.363 . S
C2886 H2863 0.950 . S
C2886 C2885 1.397 . S
C2886 C2887 1.334 . S
C2887 H2864 0.950 . S
C2887 C2886 1.334 . S
C2887 C2888 1.287 . S
C2888 C2887 1.287 . S
C2888 C2889 1.524 . S
C2888 H2907 0.913 . S
C2889 H2865 0.950 . S
C2889 C2888 1.524 . S
C2889 C2890 1.415 . S
C2890 H2866 0.950 . S
C2890 C2885 1.363 . S
C2890 C2889 1.415 . S
C2891 H2867 0.951 . S
C2891 C2892 1.366 . S
C2891 C2893 1.388 . S
C2892 C2891 1.366 . S
C2892 C2896 1.385 . S
C2893 H2868 0.951 . S
C2893 C2891 1.388 . S
C2893 C2894 1.366 . S
C2894 C2893 1.366 . S
C2894 C2895 1.414 . S
C2894 C2897 1.499 . S
C2895 H2869 0.950 . S
C2895 C2894 1.414 . S
C2895 C2896 1.374 . S
C2896 H2870 0.950 . S
C2896 C2892 1.385 . S
C2896 C2895 1.374 . S
C2897 C2894 1.499 . S
C2897 C2898 1.373 . S
C2897 C2899 1.389 . S
C2898 H2871 0.950 . S
C2898 C2884 1.377 . S
C2898 C2897 1.373 . S
C2899 C2883 1.377 . S
C2899 C2897 1.389 . S
C2899 C2900 1.524 . S
C2900 C2899 1.524 . S
C2900 C2901 1.397 . S
C2900 C2905 1.363 . S
C2901 H2872 0.950 . S
C2901 C2900 1.397 . S
C2901 C2902 1.334 . S
C2902 H2873 0.950 . S
C2902 C2901 1.334 . S
C2902 C2903 1.287 . S
C2903 C2902 1.287 . S
C2903 C2904 1.524 . S
C2903 H2906 0.999 . S
C2904 H2874 0.950 . S
C2904 C2903 1.524 . S
C2904 C2905 1.415 . S
C2905 H2875 0.950 . S
C2905 C2900 1.363 . S
C2905 C2904 1.415 . S
H2906 C2903 0.999 . S
H2907 C2888 0.913 . S
H2908 C2926 0.951 . S
H2909 C2928 0.951 . S
H2910 C2930 0.950 . S
H2911 C2931 0.950 . S
H2912 C2933 0.950 . S
H2913 C2936 0.950 . S
H2914 C2937 0.950 . S
H2915 C2939 0.950 . S
H2916 C2940 0.950 . S
H2917 C2941 0.951 . S
H2918 C2943 0.951 . S
H2919 C2945 0.950 . S
H2920 C2946 0.950 . S
H2921 C2948 0.950 . S
H2922 C2951 0.950 . S
H2923 C2952 0.950 1_556 S
H2924 C2954 0.950 . S
H2925 C2955 0.950 . S
C2926 H2908 0.951 . S
C2926 C2927 1.366 . S
C2926 C2928 1.388 . S
C2927 C2926 1.366 . S
C2927 C2931 1.385 . S
C2928 H2909 0.951 . S
C2928 C2926 1.388 . S
C2928 C2929 1.366 . S
C2929 C2928 1.366 . S
C2929 C2930 1.414 . S
C2929 C2932 1.499 . S
C2930 H2910 0.950 . S
C2930 C2929 1.414 . S
C2930 C2931 1.374 . S
C2931 H2911 0.950 . S
C2931 C2927 1.385 . S
C2931 C2930 1.374 . S
C2932 C2929 1.499 . S
C2932 C2933 1.373 . S
C2932 C2934 1.389 . S
C2933 H2912 0.950 . S
C2933 C2932 1.373 . S
C2933 C2949 1.377 1_565 S
C2934 C2932 1.389 . S
C2934 C2935 1.524 . S
C2934 C2948 1.377 1_565 S
C2935 C2934 1.524 . S
C2935 C2936 1.397 . S
C2935 C2940 1.363 . S
C2936 H2913 0.950 . S
C2936 C2935 1.397 . S
C2936 C2937 1.334 . S
C2937 H2914 0.950 . S
C2937 C2936 1.334 . S
C2937 C2938 1.287 . S
C2938 C2937 1.287 . S
C2938 C2939 1.524 . S
C2938 H2957 0.913 . S
C2939 H2915 0.950 . S
C2939 C2938 1.524 . S
C2939 C2940 1.415 . S
C2940 H2916 0.950 . S
C2940 C2935 1.363 . S
C2940 C2939 1.415 . S
C2941 H2917 0.951 . S
C2941 C2942 1.366 . S
C2941 C2943 1.388 1_556 S
C2942 C2941 1.366 . S
C2942 C2946 1.385 . S
C2943 H2918 0.951 . S
C2943 C2941 1.388 1_554 S
C2943 C2944 1.366 . S
C2944 C2943 1.366 . S
C2944 C2945 1.414 1_554 S
C2944 C2947 1.499 . S
C2945 H2919 0.950 . S
C2945 C2944 1.414 1_556 S
C2945 C2946 1.374 . S
C2946 H2920 0.950 . S
C2946 C2942 1.385 . S
C2946 C2945 1.374 . S
C2947 C2944 1.499 . S
C2947 C2948 1.373 . S
C2947 C2949 1.389 . S
C2948 H2921 0.950 . S
C2948 C2934 1.377 1_545 S
C2948 C2947 1.373 . S
C2949 C2933 1.377 1_545 S
C2949 C2947 1.389 . S
C2949 C2950 1.524 . S
C2950 C2949 1.524 . S
C2950 C2951 1.397 . S
C2950 C2955 1.363 . S
C2951 H2922 0.950 . S
C2951 C2950 1.397 . S
C2951 C2952 1.334 . S
C2952 H2923 0.950 1_554 S
C2952 C2951 1.334 . S
C2952 C2953 1.287 . S
C2953 C2952 1.287 . S
C2953 C2954 1.524 . S
C2953 H2956 0.999 . S
C2954 H2924 0.950 . S
C2954 C2953 1.524 . S
C2954 C2955 1.415 . S
C2955 H2925 0.950 . S
C2955 C2950 1.363 . S
C2955 C2954 1.415 . S
H2956 C2953 0.999 . S
H2957 C2938 0.913 . S
H2958 C2976 0.951 . S
H2959 C2978 0.951 . S
H2960 C2980 0.950 . S
H2961 C2981 0.950 . S
H2962 C2983 0.950 . S
H2963 C2986 0.950 1_655 S
H2964 C2987 0.950 . S
H2965 C2989 0.950 . S
H2966 C2990 0.950 . S
H2967 C2991 0.951 . S
H2968 C2993 0.951 . S
H2969 C2995 0.950 . S
H2970 C2996 0.950 . S
H2971 C2998 0.950 . S
H2972 C3001 0.950 1_455 S
H2973 C3002 0.976 . S
H2974 C3004 0.950 . S
H2975 C3005 0.950 . S
C2976 H2958 0.951 . S
C2976 C2977 1.391 . S
C2976 C2978 1.388 . S
C2977 C2976 1.391 . S
C2977 C2981 1.359 1_455 S
C2978 H2959 0.951 . S
C2978 C2976 1.388 . S
C2978 C2979 1.377 . S
C2979 C2978 1.377 . S
C2979 C2980 1.403 1_455 S
C2979 C2982 1.498 1_455 S
C2980 H2960 0.950 . S
C2980 C2979 1.403 1_655 S
C2980 C2981 1.374 . S
C2981 H2961 0.950 . S
C2981 C2977 1.359 1_655 S
C2981 C2980 1.374 . S
C2982 C2979 1.498 1_655 S
C2982 C2983 1.376 1_545 S
C2982 C2984 1.386 1_655 S
C2983 H2962 0.950 . S
C2983 C2982 1.376 1_565 S
C2983 C2999 1.377 . S
C2984 C2982 1.386 1_455 S
C2984 C2985 1.524 . S
C2984 C2998 1.377 . S
C2985 C2984 1.524 . S
C2985 C2986 1.397 . S
C2985 C2990 1.363 . S
C2986 H2963 0.950 1_455 S
C2986 C2985 1.397 . S
C2986 C2987 1.334 . S
C2987 H2964 0.950 . S
C2987 C2986 1.334 . S
C2987 C2988 1.287 . S
C2988 C2987 1.287 . S
C2988 C2989 1.524 . S
C2988 H3007 0.913 . S
C2989 H2965 0.950 . S
C2989 C2988 1.524 . S
C2989 C2990 1.415 . S
C2990 H2966 0.950 . S
C2990 C2985 1.363 . S
C2990 C2989 1.415 . S
C2991 H2967 0.951 . S
C2991 C2992 1.341 1_655 S
C2991 C2993 1.388 . S
C2992 C2991 1.341 1_455 S
C2992 C2996 1.410 . S
C2993 H2968 0.951 . S
C2993 C2991 1.388 . S
C2993 C2994 1.326 1_655 S
C2994 C2993 1.326 1_455 S
C2994 C2995 1.453 . S
C2994 C2997 1.498 . S
C2995 H2969 0.950 . S
C2995 C2994 1.453 . S
C2995 C2996 1.374 . S
C2996 H2970 0.950 . S
C2996 C2992 1.410 . S
C2996 C2995 1.374 . S
C2997 C2994 1.498 . S
C2997 C2998 1.412 1_565 S
C2997 C2999 1.352 1_455 S
C2998 H2971 0.950 . S
C2998 C2984 1.377 . S
C2998 C2997 1.412 1_545 S
C2999 C2983 1.377 . S
C2999 C2997 1.352 1_655 S
C2999 C3000 1.524 . S
C3000 C2999 1.524 . S
C3000 C3001 1.397 . S
C3000 C3005 1.363 . S
C3001 H2972 0.950 1_655 S
C3001 C3000 1.397 . S
C3001 C3002 1.334 . S
C3002 H2973 0.976 . S
C3002 C3001 1.334 . S
C3002 C3003 1.287 . S
C3003 C3002 1.287 . S
C3003 C3004 1.524 . S
C3003 H3006 0.999 . S
C3004 H2974 0.950 . S
C3004 C3003 1.524 . S
C3004 C3005 1.415 . S
C3005 H2975 0.950 . S
C3005 C3000 1.363 . S
C3005 C3004 1.415 . S
H3006 C3003 0.999 . S
H3007 C2988 0.913 . S
C1427 C849 1.508 . S
C1442 C29 1.506 . S
C1477 C1281 1.512 . S
C1492 C117 1.508 . S
C1527 C233 1.512 . S
C1542 C753 1.508 . S
C1577 C293 1.508 1_556 S
C1592 C1349 1.518 . S
C1627 C401 1.512 . S
C1642 C909 1.503 1_556 S
C1677 C1201 1.512 . S
C1692 C497 1.513 . S
C1727 C988 1.508 . S
C1742 C548 1.512 . S
C1777 C673 1.508 . S
C1792 C1076 1.512 . S
C1827 C409 1.506 . S
C1842 C313 1.519 1_556 S
C1877 C1085 1.507 . S
C1892 C733 1.515 . S
C1927 C557 1.507 . S
C1942 C137 1.514 . S
C1977 C812 1.514 . S
C1992 C1193 1.500 . S
C2027 C20 1.506 . S
C2042 C460 1.519 . S
C2077 C1340 1.507 . S
C2092 C929 1.509 1_556 S
C2127 C636 1.514 . S
C2142 C225 1.507 . S
C2177 C1025 1.514 . S
C2192 C1289 1.506 . S
C2227 C49 1.232 . S
C2242 C381 1.232 . S
C2277 C469 1.224 . S
C2292 C145 1.224 . S
C2327 C585 1.232 . S
C2342 C196 1.232 . S
C2377 C321 1.224 . S
C2392 C645 1.224 . S
C2427 C937 1.224 . S
C2442 C724 1.224 . S
C2477 C1017 1.224 . S
C2492 C821 1.224 . S
C2527 C1261 1.232 . S
C2542 C1113 1.232 . S
C2577 C1369 1.232 1_655 S
C2592 C1164 1.232 1_655 S
C2627 C372 2.066 1_655 S
C2642 C57 2.066 1_655 S
C2677 C489 2.076 . S
C2692 C108 2.076 . S
C2727 C577 2.066 . S
C2742 C205 2.066 . S
C2777 C284 2.076 . S
C2792 C665 2.076 . S
C2827 C761 2.076 . S
C2842 C900 2.076 . S
C2877 C997 2.076 . S
C2892 C841 2.076 . S
C2927 C1252 2.066 . S
C2942 C1105 2.066 . S
C2977 C1377 2.066 . S
C2992 C1173 2.066 . S
