# Generated by pormake.
# Topology fob, (5)-cn, num edge types: 1
# Building blocks:
#     Node 0, Type 0, BuildingBlock: BEQFEK_clean_sbu_0, # of connection points: 5
#     Node 1, Type 0, BuildingBlock: BEQFEK_clean_sbu_0, # of connection points: 5
#     Node 2, Type 0, BuildingBlock: BEQFEK_clean_sbu_0, # of connection points: 5
#     Node 3, Type 0, BuildingBlock: BEQFEK_clean_sbu_0, # of connection points: 5
#     Node 4, Type 0, BuildingBlock: BEQFEK_clean_sbu_0, # of connection points: 5
#     Node 5, Type 0, BuildingBlock: BEQFEK_clean_sbu_0, # of connection points: 5
#     Node 6, Type 0, BuildingBlock: BEQFEK_clean_sbu_0, # of connection points: 5
#     Node 7, Type 0, BuildingBlock: BEQFEK_clean_sbu_0, # of connection points: 5
#     Node 8, Type 0, BuildingBlock: BEQFEK_clean_sbu_0, # of connection points: 5
#     Node 9, Type 0, BuildingBlock: BEQFEK_clean_sbu_0, # of connection points: 5
#     Node 10, Type 0, BuildingBlock: BEQFEK_clean_sbu_0, # of connection points: 5
#     Node 11, Type 0, BuildingBlock: BEQFEK_clean_sbu_0, # of connection points: 5
#     Node 12, Type 0, BuildingBlock: BEQFEK_clean_sbu_0, # of connection points: 5
#     Node 13, Type 0, BuildingBlock: BEQFEK_clean_sbu_0, # of connection points: 5
#     Node 14, Type 0, BuildingBlock: BEQFEK_clean_sbu_0, # of connection points: 5
#     Node 15, Type 0, BuildingBlock: BEQFEK_clean_sbu_0, # of connection points: 5
#     Edge 16, Type (0, 0), BuildingBlock: OJICUG_clean_linker_0, # of connection points: 2
#     Edge 17, Type (0, 0), BuildingBlock: OJICUG_clean_linker_0, # of connection points: 2
#     Edge 18, Type (0, 0), BuildingBlock: OJICUG_clean_linker_0, # of connection points: 2
#     Edge 19, Type (0, 0), BuildingBlock: OJICUG_clean_linker_0, # of connection points: 2
#     Edge 20, Type (0, 0), BuildingBlock: OJICUG_clean_linker_0, # of connection points: 2
#     Edge 21, Type (0, 0), BuildingBlock: OJICUG_clean_linker_0, # of connection points: 2
#     Edge 22, Type (0, 0), BuildingBlock: OJICUG_clean_linker_0, # of connection points: 2
#     Edge 23, Type (0, 0), BuildingBlock: OJICUG_clean_linker_0, # of connection points: 2
#     Edge 24, Type (0, 0), BuildingBlock: OJICUG_clean_linker_0, # of connection points: 2
#     Edge 25, Type (0, 0), BuildingBlock: OJICUG_clean_linker_0, # of connection points: 2
#     Edge 26, Type (0, 0), BuildingBlock: OJICUG_clean_linker_0, # of connection points: 2
#     Edge 27, Type (0, 0), BuildingBlock: OJICUG_clean_linker_0, # of connection points: 2
#     Edge 28, Type (0, 0), BuildingBlock: OJICUG_clean_linker_0, # of connection points: 2
#     Edge 29, Type (0, 0), BuildingBlock: OJICUG_clean_linker_0, # of connection points: 2
#     Edge 30, Type (0, 0), BuildingBlock: OJICUG_clean_linker_0, # of connection points: 2
#     Edge 31, Type (0, 0), BuildingBlock: OJICUG_clean_linker_0, # of connection points: 2
#     Edge 32, Type (0, 0), BuildingBlock: OJICUG_clean_linker_0, # of connection points: 2
#     Edge 33, Type (0, 0), BuildingBlock: OJICUG_clean_linker_0, # of connection points: 2
#     Edge 34, Type (0, 0), BuildingBlock: OJICUG_clean_linker_0, # of connection points: 2
#     Edge 35, Type (0, 0), BuildingBlock: OJICUG_clean_linker_0, # of connection points: 2
#     Edge 36, Type (0, 0), BuildingBlock: OJICUG_clean_linker_0, # of connection points: 2
#     Edge 37, Type (0, 0), BuildingBlock: OJICUG_clean_linker_0, # of connection points: 2
#     Edge 38, Type (0, 0), BuildingBlock: OJICUG_clean_linker_0, # of connection points: 2
#     Edge 39, Type (0, 0), BuildingBlock: OJICUG_clean_linker_0, # of connection points: 2
#     Edge 40, Type (0, 0), BuildingBlock: OJICUG_clean_linker_0, # of connection points: 2
#     Edge 41, Type (0, 0), BuildingBlock: OJICUG_clean_linker_0, # of connection points: 2
#     Edge 42, Type (0, 0), BuildingBlock: OJICUG_clean_linker_0, # of connection points: 2
#     Edge 43, Type (0, 0), BuildingBlock: OJICUG_clean_linker_0, # of connection points: 2
#     Edge 44, Type (0, 0), BuildingBlock: OJICUG_clean_linker_0, # of connection points: 2
#     Edge 45, Type (0, 0), BuildingBlock: OJICUG_clean_linker_0, # of connection points: 2
#     Edge 46, Type (0, 0), BuildingBlock: OJICUG_clean_linker_0, # of connection points: 2
#     Edge 47, Type (0, 0), BuildingBlock: OJICUG_clean_linker_0, # of connection points: 2
#     Edge 48, Type (0, 0), BuildingBlock: OJICUG_clean_linker_0, # of connection points: 2
#     Edge 49, Type (0, 0), BuildingBlock: OJICUG_clean_linker_0, # of connection points: 2
#     Edge 50, Type (0, 0), BuildingBlock: OJICUG_clean_linker_0, # of connection points: 2
#     Edge 51, Type (0, 0), BuildingBlock: OJICUG_clean_linker_0, # of connection points: 2
#     Edge 52, Type (0, 0), BuildingBlock: OJICUG_clean_linker_0, # of connection points: 2
#     Edge 53, Type (0, 0), BuildingBlock: OJICUG_clean_linker_0, # of connection points: 2
#     Edge 54, Type (0, 0), BuildingBlock: OJICUG_clean_linker_0, # of connection points: 2
#     Edge 55, Type (0, 0), BuildingBlock: OJICUG_clean_linker_0, # of connection points: 2
# Relax obj value: 0.081
# Max RMSD: 0.159
# Mean RMSD: 0.159
data_MOF--net-fob--node1-BEQFEK_clean_sbu_0--edge1-OJICUG_clean_linker_0
_symmetry_space_group_name_H-M    P1
_symmetry_Int_Tables_number       1
_symmetry_cell_setting            triclinic
loop_
_symmetry_equiv_pos_as_xyz
'x, y, z'
_cell_length_a     15.595785
_cell_length_b     59.102789
_cell_length_c     40.723578
_cell_angle_alpha  90.51622
_cell_angle_beta   87.125499
_cell_angle_gamma 89.895455
loop_
_atom_site_label
_atom_site_type_symbol
_atom_site_fract_x
_atom_site_fract_y
_atom_site_fract_z
_atom_type_partial_charge
Co0 Co 0.0401 0.09699 0.47093 0.0
Co1 Co 0.07989 0.14915 0.4732 0.0
C2 C 0.17542 0.11918 0.42574 0.0
O3 O 0.13735 0.10137 0.43668 0.0
O4 O 0.15994 0.13872 0.43819 0.0
C5 C 0.05686 0.04887 0.48675 0.0
O6 O 0.13781 0.05307 0.49191 0.0
C7 C 0.15212 0.19562 0.47856 0.0
C8 C 0.05015 0.2114 0.51091 0.0
C9 C 0.1286 0.21567 0.49482 0.0
N10 N 0.09065 0.18017 0.4853 0.0
N11 N 0.02987 0.18979 0.50446 0.0
C12 C 0.22899 0.19139 0.45585 0.0
H13 H 0.21231 0.17967 0.43578 0.0
H14 H 0.28017 0.18337 0.46975 0.0
H15 H 0.25379 0.2074 0.44502 0.0
C16 C 0.0654 0.10291 0.54259 0.0
N17 N 0.06353 0.11067 0.51165 0.0
N18 N 0.09284 0.13141 0.51088 0.0
C19 C 0.12331 0.13678 0.5402 0.0
C20 C 0.1051 0.1191 0.56203 0.0
C21 C 0.01985 0.08181 0.55365 0.0
H22 H -0.03097 0.0774 0.53664 0.0
H23 H 0.06638 0.06761 0.55398 0.0
H24 H -0.0106 0.08412 0.57867 0.0
O25 O 0.93911 0.11052 0.4533 0.0
O26 O -0.0348 0.14729 0.45469 0.0
H27 H 0.13839 0.17169 0.5533 0.0
H28 H 0.22704 0.1537 0.5637 0.0
C29 C 0.17893 0.15705 0.54516 0.0
H30 H 0.21363 0.16149 0.52168 0.0
H31 H -0.02533 0.18147 0.5134 0.0
O32 O 0.00929 0.0647 0.47714 0.0
C33 C 0.91756 0.13075 0.44755 0.0
Co34 Co 0.10661 0.09247 0.7972 0.0
Co35 Co 0.06422 0.14495 0.79474 0.0
C36 C 0.93632 0.11252 0.82343 0.0
O37 O -0.01482 0.09535 0.81717 0.0
O38 O 0.9586 0.13256 0.81518 0.0
C39 C 0.11819 0.04488 0.77459 0.0
O40 O 0.04453 0.04806 0.761 0.0
C41 C 0.00018 0.1918 0.78081 0.0
C42 C 0.1251 0.20804 0.76837 0.0
C43 C 0.03756 0.21202 0.77008 0.0
N44 N 0.06321 0.17655 0.78453 0.0
N45 N 0.13747 0.18652 0.77734 0.0
C46 C 0.90708 0.18718 0.7885 0.0
H47 H 0.89969 0.17412 0.80777 0.0
H48 H 0.87729 0.18075 0.76609 0.0
H49 H 0.87307 0.20287 0.79688 0.0
C50 C 0.1466 0.10138 0.7259 0.0
N51 N 0.12224 0.10808 0.75674 0.0
N52 N 0.09207 0.12875 0.75577 0.0
C53 C 0.08737 0.13508 0.72435 0.0
C54 C 0.12401 0.11819 0.70396 0.0
C55 C 0.19715 0.08028 0.71818 0.0
H56 H 0.2348 0.07551 0.73944 0.0
H57 H 0.15279 0.06628 0.71267 0.0
H58 H 0.24204 0.0828 0.69651 0.0
O59 O 0.17678 0.10555 0.83033 0.0
O60 O 0.15172 0.14245 0.8282 0.0
H61 H 0.07512 0.17016 0.71251 0.0
H62 H 0.004 0.15166 0.69094 0.0
C63 C 0.03425 0.15484 0.71461 0.0
H64 H -0.01782 0.15799 0.73357 0.0
H65 H 0.19687 0.17841 0.77791 0.0
O66 O 0.14959 0.06078 0.7914 0.0
C67 C 0.18805 0.12557 0.84072 0.0
Co68 Co 0.91405 0.91573 0.54234 0.0
Co69 Co 0.87051 0.8634 0.54208 0.0
C70 C 0.76965 0.89559 0.5852 0.0
O71 O 0.81111 0.9128 0.57406 0.0
O72 O 0.78533 0.87555 0.57451 0.0
C73 C 0.90132 0.96342 0.52459 0.0
O74 O 0.82044 0.95924 0.51926 0.0
C75 C 0.79038 0.81771 0.53269 0.0
C76 C 0.9008 0.80009 0.50766 0.0
C77 C 0.81525 0.79732 0.51745 0.0
N78 N 0.85794 0.83192 0.53111 0.0
N79 N 0.92373 0.8211 0.51647 0.0
C80 C 0.70517 0.82343 0.54927 0.0
H81 H 0.71329 0.83584 0.56943 0.0
H82 H 0.66313 0.83113 0.53123 0.0
H83 H 0.67342 0.80799 0.55926 0.0
C84 C 0.90309 0.9082 0.47073 0.0
N85 N 0.89843 0.90097 0.502 0.0
N86 N 0.86789 0.88033 0.5028 0.0
C87 C 0.84325 0.87457 0.4727 0.0
C88 C 0.86645 0.89185 0.45081 0.0
C89 C 0.95072 0.9291 0.46016 0.0
H90 H 0.00065 0.9332 0.47771 0.0
H91 H 0.90532 0.94353 0.45954 0.0
H92 H -0.0176 0.92672 0.43536 0.0
O93 O 0.0092 0.90221 0.56332 0.0
O94 O -0.01798 0.86542 0.56387 0.0
H95 H 0.82711 0.83956 0.46044 0.0
H96 H 0.74294 0.85789 0.44674 0.0
C97 C 0.78682 0.85462 0.46677 0.0
H98 H 0.74691 0.85102 0.48932 0.0
H99 H -0.01601 0.82834 0.51167 0.0
O100 O 0.9481 0.9477 0.53502 0.0
C101 C 0.02888 0.88218 0.57098 0.0
Co102 Co 0.74285 0.91998 0.22246 0.0
Co103 Co 0.78027 0.86758 0.21935 0.0
C104 C 0.87608 0.89888 0.17466 0.0
O105 O 0.83894 0.91637 0.18761 0.0
O106 O 0.86009 0.87895 0.18504 0.0
C107 C 0.75927 0.96787 0.24181 0.0
O108 O 0.84016 0.96377 0.24722 0.0
C109 C 0.85273 0.8208 0.22225 0.0
C110 C 0.74455 0.80408 0.24953 0.0
C111 C 0.82648 0.8003 0.23598 0.0
N112 N 0.78939 0.83602 0.22806 0.0
N113 N 0.72488 0.82581 0.2441 0.0
C114 C 0.93475 0.82568 0.20298 0.0
H115 H 0.92385 0.83857 0.18403 0.0
H116 H -0.01751 0.83249 0.21976 0.0
H117 H 0.96126 0.81007 0.19097 0.0
C118 C 0.76763 0.91144 0.29324 0.0
N119 N 0.76583 0.90478 0.2616 0.0
N120 N 0.79374 0.88389 0.25882 0.0
C121 C 0.82294 0.87729 0.28768 0.0
C122 C 0.80556 0.89431 0.31112 0.0
C123 C 0.7243 0.93256 0.3062 0.0
H124 H 0.67298 0.93771 0.28992 0.0
H125 H 0.77196 0.94643 0.30713 0.0
H126 H 0.69503 0.92989 0.33126 0.0
O127 O 0.64113 0.90765 0.20416 0.0
O128 O 0.66502 0.87075 0.20181 0.0
H129 H 0.83541 0.84188 0.29725 0.0
H130 H 0.92493 0.85887 0.30983 0.0
C131 C 0.8771 0.85654 0.29083 0.0
H132 H 0.91236 0.85283 0.26712 0.0
H133 H 0.66768 0.83386 0.25186 0.0
O134 O 0.71268 0.95209 0.23123 0.0
C135 C 0.61799 0.88779 0.1967 0.0
Co136 Co 0.10791 0.59368 0.95035 0.0
Co137 Co 0.14327 0.64628 0.95337 0.0
C138 C 0.27758 0.61489 0.92666 0.0
O139 O 0.23003 0.59749 0.93222 0.0
O140 O 0.25264 0.63492 0.93455 0.0
C141 C 0.10083 0.54598 0.97141 0.0
O142 O 0.17452 0.54917 0.98503 0.0
C143 C 0.19216 0.69445 0.96758 0.0
C144 C 0.06175 0.70786 0.97985 0.0
C145 C 0.14751 0.71386 0.97827 0.0
N146 N 0.1347 0.67782 0.96345 0.0
N147 N 0.05713 0.68611 0.97046 0.0
C148 C 0.2873 0.69109 0.96404 0.0
H149 H 0.30374 0.67284 0.9647 0.0
H150 H 0.31949 0.70029 0.98385 0.0
H151 H 0.31142 0.69786 0.94 0.0
C152 C 0.06344 0.60282 0.02129 0.0
N153 N 0.08711 0.60953 0.99061 0.0
N154 N 0.11481 0.6304 0.99193 0.0
C155 C 0.11846 0.63697 0.02343 0.0
C156 C 0.08392 0.61992 0.0435 0.0
C157 C 0.01618 0.58128 0.02856 0.0
H158 H -0.02066 0.57607 0.00717 0.0
H159 H 0.0627 0.56772 0.03373 0.0
H160 H -0.02913 0.58344 0.05026 0.0
O161 O 0.03906 0.60542 0.91627 0.0
O162 O 0.06088 0.6424 0.91859 0.0
H163 H 0.12583 0.6722 0.0359 0.0
H164 H 0.19961 0.65443 0.05709 0.0
C165 C 0.16884 0.65724 0.0335 0.0
H166 H 0.22033 0.66078 0.01457 0.0
H167 H 0.00087 0.67662 0.9697 0.0
O168 O 0.06842 0.56193 0.9554 0.0
C169 C 0.02735 0.6252 0.90559 0.0
Co170 Co 0.09337 0.5978 0.27964 0.0
Co171 Co 0.05123 0.65015 0.27713 0.0
C172 C 0.92743 0.61798 0.30896 0.0
O173 O -0.02549 0.60061 0.30186 0.0
O174 O 0.94979 0.63792 0.30031 0.0
C175 C 0.10173 0.54981 0.25885 0.0
O176 O 0.02515 0.55261 0.24742 0.0
C177 C -0.01949 0.69652 0.26879 0.0
C178 C 0.09251 0.71264 0.24312 0.0
C179 C 0.00851 0.71662 0.25428 0.0
N180 N 0.04478 0.68133 0.26567 0.0
N181 N 0.11157 0.69117 0.25056 0.0
C182 C 0.8965 0.69199 0.28684 0.0
H183 H 0.90651 0.68064 0.30783 0.0
H184 H 0.85297 0.68338 0.27001 0.0
H185 H 0.86595 0.70792 0.29617 0.0
C186 C 0.11488 0.60547 0.20747 0.0
N187 N 0.10088 0.6129 0.23867 0.0
N188 N 0.06955 0.63345 0.23817 0.0
C189 C 0.05281 0.63888 0.20723 0.0
C190 C 0.08321 0.62158 0.18616 0.0
C191 C 0.16484 0.58445 0.19863 0.0
H192 H 0.20776 0.58008 0.21853 0.0
H193 H 0.12003 0.5702 0.19503 0.0
H194 H 0.20469 0.58686 0.17558 0.0
O195 O 0.16774 0.61151 0.31087 0.0
O196 O 0.14508 0.64848 0.30808 0.0
H197 H 0.03213 0.67344 0.19403 0.0
H198 H 0.95498 0.65379 0.17827 0.0
C199 C -0.00609 0.658 0.19955 0.0
H200 H 0.94926 0.66165 0.22099 0.0
H201 H 0.16997 0.68305 0.24486 0.0
O202 O 0.13638 0.56613 0.27376 0.0
C203 C 0.18191 0.6316 0.32037 0.0
Co204 Co 0.88636 0.4193 0.02495 0.0
Co205 Co 0.84387 0.36711 0.02715 0.0
C206 C 0.74528 0.39975 0.07031 0.0
O207 O 0.78523 0.41691 0.05807 0.0
O208 O 0.76091 0.37959 0.06012 0.0
C209 C 0.89146 0.46762 0.00411 0.0
O210 O 0.81195 0.46603 0.99512 0.0
C211 C 0.7708 0.32032 0.02185 0.0
C212 C 0.8818 0.30363 0.99569 0.0
C213 C 0.79877 0.29981 0.00787 0.0
N214 N 0.83437 0.33555 0.01748 0.0
N215 N 0.90045 0.32535 0.00206 0.0
C216 C 0.68698 0.32527 0.04 0.0
H217 H 0.6949 0.33889 0.05849 0.0
H218 H 0.63993 0.33112 0.02236 0.0
H219 H 0.66134 0.30987 0.05237 0.0
C220 C 0.8699 0.41008 0.95342 0.0
N221 N 0.86718 0.4038 0.98516 0.0
N222 N 0.83689 0.38318 0.98741 0.0
C223 C 0.81028 0.37651 0.95798 0.0
C224 C 0.83203 0.39311 0.93482 0.0
C225 C 0.91826 0.43043 0.94112 0.0
H226 H -0.03195 0.43521 0.95837 0.0
H227 H 0.87331 0.44485 0.93904 0.0
H228 H 0.95036 0.42697 0.91665 0.0
O229 O -0.01729 0.40609 0.04559 0.0
O230 O 0.95665 0.36939 0.04742 0.0
H231 H 0.79547 0.34114 0.94788 0.0
H232 H 0.70926 0.35872 0.93405 0.0
C233 C 0.75464 0.35616 0.95382 0.0
H234 H 0.71663 0.3529 0.97699 0.0
H235 H 0.95818 0.33338 0.99542 0.0
O236 O 0.92677 0.45071 0.01694 0.0
C237 C 0.00358 0.38626 0.05362 0.0
Co238 Co 0.82855 0.41509 0.70009 0.0
Co239 Co 0.86659 0.3626 0.70145 0.0
C240 C -0.00092 0.39479 0.67575 0.0
O241 O 0.95037 0.41191 0.68213 0.0
O242 O -0.02461 0.37462 0.68273 0.0
C243 C 0.83265 0.46229 0.72099 0.0
O244 O 0.90885 0.45767 0.73161 0.0
C245 C 0.92729 0.31543 0.71467 0.0
C246 C 0.80172 0.29956 0.72718 0.0
C247 C 0.8891 0.29532 0.7254 0.0
N248 N 0.86495 0.33089 0.71107 0.0
N249 N 0.79026 0.32114 0.71826 0.0
C250 C 0.02056 0.31979 0.70694 0.0
H251 H 0.02839 0.33249 0.68717 0.0
H252 H 0.05029 0.3266 0.72913 0.0
H253 H 0.05433 0.30393 0.69915 0.0
C254 C 0.78626 0.40636 0.77055 0.0
N255 N 0.80851 0.39923 0.73979 0.0
N256 N 0.8371 0.37842 0.74084 0.0
C257 C 0.84264 0.37233 0.77238 0.0
C258 C 0.8088 0.38969 0.79271 0.0
C259 C 0.73917 0.42806 0.77791 0.0
H260 H 0.70057 0.43278 0.75686 0.0
H261 H 0.78592 0.44177 0.78212 0.0
H262 H 0.69553 0.4264 0.80013 0.0
O263 O 0.76046 0.40327 0.6657 0.0
O264 O 0.78238 0.3662 0.66657 0.0
H265 H 0.85219 0.33738 0.78525 0.0
H266 H 0.92729 0.35566 0.80521 0.0
C267 C 0.89457 0.35234 0.78211 0.0
H268 H 0.94471 0.34852 0.76267 0.0
H269 H 0.73124 0.32945 0.71782 0.0
O270 O 0.7918 0.44697 0.70639 0.0
C271 C 0.74882 0.38358 0.6542 0.0
Co272 Co 0.53383 0.09565 0.97336 0.0
Co273 Co 0.57668 0.1478 0.97067 0.0
C274 C 0.67357 0.11504 0.92717 0.0
O275 O 0.63393 0.09792 0.9397 0.0
O276 O 0.65838 0.13524 0.93732 0.0
C277 C 0.52807 0.04731 0.99439 0.0
O278 O 0.60782 0.04871 0.00318 0.0
C279 C 0.64995 0.19461 0.97546 0.0
C280 C 0.53945 0.21135 0.00188 0.0
C281 C 0.6222 0.21515 0.98939 0.0
N282 N 0.58651 0.17938 0.98014 0.0
N283 N 0.52073 0.18961 0.99571 0.0
C284 C 0.73341 0.18964 0.95706 0.0
H285 H 0.72516 0.17594 0.93873 0.0
H286 H 0.78098 0.1839 0.97457 0.0
H287 H 0.7586 0.20502 0.94448 0.0
C288 C 0.55324 0.10502 0.04472 0.0
N289 N 0.55468 0.11121 0.01295 0.0
N290 N 0.5851 0.1318 0.0104 0.0
C291 C 0.61303 0.13854 0.03959 0.0
C292 C 0.59206 0.12203 0.06297 0.0
C293 C 0.50531 0.08472 0.05743 0.0
H294 H 0.45481 0.07988 0.04051 0.0
H295 H 0.55037 0.07031 0.05934 0.0
H296 H 0.47418 0.08826 0.08204 0.0
O297 O 0.43669 0.10887 0.95325 0.0
O298 O 0.46306 0.14555 0.95114 0.0
H299 H 0.62889 0.17393 0.04931 0.0
H300 H 0.71548 0.1563 0.06271 0.0
C301 C 0.66923 0.15884 0.04324 0.0
H302 H 0.7063 0.16197 0.01981 0.0
H303 H 0.46315 0.18158 0.0026 0.0
O304 O 0.49309 0.0643 0.98165 0.0
C305 C 0.41564 0.1287 0.94531 0.0
Co306 Co 0.60886 0.101 0.2975 0.0
Co307 Co 0.57135 0.1535 0.29614 0.0
C308 C 0.43962 0.12144 0.32283 0.0
O309 O 0.48786 0.10428 0.31621 0.0
O310 O 0.4633 0.14157 0.31564 0.0
C311 C 0.60031 0.05382 0.27748 0.0
O312 O 0.5231 0.05877 0.26815 0.0
C313 C 0.50836 0.20045 0.2835 0.0
C314 C 0.6321 0.21657 0.26888 0.0
C315 C 0.54464 0.22059 0.27197 0.0
N316 N 0.57172 0.18517 0.28629 0.0
N317 N 0.64538 0.19507 0.27786 0.0
C318 C 0.41598 0.1959 0.29274 0.0
H319 H 0.41091 0.18373 0.31328 0.0
H320 H 0.38467 0.1883 0.27141 0.0
H321 H 0.38179 0.21177 0.30012 0.0
C322 C 0.64712 0.10941 0.22677 0.0
N323 N 0.62707 0.11671 0.25762 0.0
N324 N 0.59874 0.13755 0.25666 0.0
C325 C 0.59117 0.1435 0.22516 0.0
C326 C 0.62337 0.12601 0.2047 0.0
C327 C 0.69296 0.08756 0.21921 0.0
H328 H 0.73292 0.08286 0.23988 0.0
H329 H 0.64537 0.07395 0.21569 0.0
H330 H 0.73513 0.08899 0.19656 0.0
O331 O 0.67875 0.11286 0.33133 0.0
O332 O 0.65726 0.14996 0.33046 0.0
H333 H 0.58097 0.1784 0.21205 0.0
H334 H 0.50439 0.16006 0.19302 0.0
C335 C 0.53866 0.16347 0.21574 0.0
H336 H 0.48975 0.16741 0.23559 0.0
H337 H 0.70482 0.18691 0.27744 0.0
O338 O 0.64405 0.06902 0.29108 0.0
C339 C 0.69116 0.13256 0.34267 0.0
Co340 Co 0.30951 0.92155 0.04803 0.0
Co341 Co 0.27427 0.86898 0.0446 0.0
C342 C 0.14 0.90028 0.07173 0.0
O343 O 0.18746 0.91769 0.06623 0.0
O344 O 0.16497 0.88028 0.06365 0.0
C345 C 0.31694 0.96929 0.0272 0.0
O346 O 0.24343 0.96615 0.01343 0.0
C347 C 0.22479 0.82092 0.02997 0.0
C348 C 0.35505 0.80742 0.0177 0.0
C349 C 0.2692 0.8015 0.01917 0.0
N350 N 0.28248 0.83748 0.03427 0.0
N351 N 0.35995 0.82913 0.02725 0.0
C352 C 0.12969 0.82438 0.03346 0.0
H353 H 0.11353 0.84265 0.0328 0.0
H354 H 0.09745 0.81522 0.01363 0.0
H355 H 0.10539 0.81763 0.05748 0.0
C356 C 0.35432 0.91267 0.97702 0.0
N357 N 0.33019 0.90586 0.00761 0.0
N358 N 0.30249 0.885 0.00607 0.0
C359 C 0.29932 0.87854 0.97449 0.0
C360 C 0.33413 0.89566 0.95461 0.0
C361 C 0.40215 0.93417 0.97004 0.0
H362 H 0.43855 0.93927 0.99159 0.0
H363 H 0.35605 0.9478 0.96477 0.0
H364 H 0.44797 0.93201 0.94849 0.0
O365 O 0.37854 0.90968 0.08199 0.0
O366 O 0.35704 0.8727 0.0794 0.0
H367 H 0.2928 0.84333 0.96183 0.0
H368 H 0.21933 0.86108 0.94045 0.0
C369 C 0.24952 0.85824 0.96415 0.0
H370 H 0.19766 0.8546 0.98288 0.0
H371 H 0.41635 0.83855 0.02812 0.0
O372 O 0.34904 0.9533 0.04323 0.0
C373 C 0.39048 0.88988 0.09252 0.0
Co374 Co 0.34073 0.91865 0.71797 0.0
Co375 Co 0.38269 0.86632 0.72071 0.0
C376 C 0.50758 0.89839 0.68933 0.0
O377 O 0.46022 0.91576 0.6962 0.0
O378 O 0.48513 0.87846 0.69801 0.0
C379 C 0.32977 0.96655 0.73942 0.0
O380 O 0.40502 0.96378 0.75199 0.0
C381 C 0.45095 0.81967 0.72959 0.0
C382 C 0.33637 0.80391 0.75402 0.0
C383 C 0.42074 0.79962 0.74367 0.0
N384 N 0.38746 0.83511 0.73218 0.0
N385 N 0.31917 0.82549 0.74656 0.0
C386 C 0.53634 0.82391 0.71242 0.0
H387 H 0.5288 0.8357 0.69174 0.0
H388 H 0.5796 0.83191 0.72995 0.0
H389 H 0.56587 0.80793 0.70282 0.0
C390 C 0.31474 0.91079 0.7901 0.0
N391 N 0.33148 0.90353 0.75896 0.0
N392 N 0.36279 0.88299 0.75964 0.0
C393 C 0.37675 0.87739 0.79078 0.0
C394 C 0.34453 0.89458 0.81168 0.0
C395 C 0.26345 0.93166 0.79858 0.0
H396 H 0.22222 0.93606 0.77817 0.0
H397 H 0.30737 0.94598 0.80297 0.0
H398 H 0.22176 0.92903 0.82111 0.0
O399 O 0.26721 0.90503 0.68637 0.0
O400 O 0.29009 0.86808 0.68919 0.0
H401 H 0.39514 0.84275 0.80402 0.0
H402 H 0.47143 0.86217 0.82086 0.0
C403 C 0.43425 0.85811 0.79906 0.0
H404 H 0.48045 0.85442 0.7781 0.0
H405 H 0.26092 0.83382 0.75169 0.0
O406 O 0.29726 0.9503 0.72365 0.0
C407 C 0.2535 0.88495 0.67675 0.0
Co408 Co 0.51967 0.60031 0.45496 0.0
Co409 Co 0.56365 0.65263 0.456 0.0
C410 C 0.66538 0.62058 0.41303 0.0
O411 O 0.62343 0.60335 0.42379 0.0
O412 O 0.64961 0.64058 0.42386 0.0
C413 C 0.53301 0.55274 0.47261 0.0
O414 O 0.61347 0.5572 0.4783 0.0
C415 C 0.64415 0.69819 0.46622 0.0
C416 C 0.5333 0.71584 0.4909 0.0
C417 C 0.61915 0.71855 0.48152 0.0
N418 N 0.57634 0.68405 0.46737 0.0
N419 N 0.51032 0.69489 0.48181 0.0
C420 C 0.72972 0.69241 0.45 0.0
H421 H 0.72205 0.68007 0.4297 0.0
H422 H 0.771 0.6846 0.46819 0.0
H423 H 0.76203 0.70785 0.44023 0.0
C424 C 0.52723 0.60755 0.52667 0.0
N425 N 0.53387 0.6149 0.49549 0.0
N426 N 0.56471 0.6355 0.4951 0.0
C427 C 0.58765 0.64112 0.52548 0.0
C428 C 0.56291 0.62378 0.54702 0.0
C429 C 0.47832 0.58673 0.5367 0.0
H430 H 0.4294 0.58279 0.51867 0.0
H431 H 0.52313 0.57219 0.53765 0.0
H432 H 0.44524 0.58911 0.56126 0.0
O433 O 0.42534 0.61398 0.43374 0.0
O434 O 0.45283 0.65078 0.4337 0.0
H435 H 0.60306 0.67608 0.53822 0.0
H436 H 0.68622 0.65767 0.55251 0.0
C437 C 0.64366 0.66104 0.53209 0.0
H438 H 0.68489 0.66475 0.50991 0.0
H439 H 0.44983 0.6877 0.48627 0.0
O440 O 0.48589 0.5683 0.46193 0.0
C441 C 0.40606 0.63407 0.42623 0.0
Co442 Co 0.67489 0.59489 0.77613 0.0
Co443 Co 0.63736 0.64732 0.77909 0.0
C444 C 0.54161 0.6161 0.82387 0.0
O445 O 0.5788 0.59859 0.81096 0.0
O446 O 0.55752 0.63603 0.81344 0.0
C447 C 0.66207 0.54682 0.75618 0.0
O448 O 0.58162 0.55047 0.74962 0.0
C449 C 0.56676 0.69437 0.77568 0.0
C450 C 0.67712 0.7107 0.74921 0.0
C451 C 0.59493 0.71479 0.76225 0.0
N452 N 0.62939 0.67889 0.77022 0.0
N453 N 0.69514 0.68887 0.75463 0.0
C454 C 0.48365 0.68978 0.79438 0.0
H455 H 0.49235 0.67642 0.81286 0.0
H456 H 0.43572 0.68374 0.77711 0.0
H457 H 0.45857 0.70538 0.80686 0.0
C458 C 0.65168 0.60351 0.70527 0.0
N459 N 0.65216 0.61008 0.73698 0.0
N460 N 0.62405 0.63094 0.73972 0.0
C461 C 0.59596 0.63763 0.71074 0.0
C462 C 0.61438 0.62069 0.68729 0.0
C463 C 0.69623 0.58254 0.69235 0.0
H464 H 0.74683 0.5774 0.70896 0.0
H465 H 0.64907 0.56859 0.69088 0.0
H466 H 0.72663 0.58542 0.66753 0.0
O467 O 0.77646 0.60726 0.79433 0.0
O468 O 0.75251 0.64414 0.79658 0.0
H469 H 0.58437 0.67308 0.70131 0.0
H470 H 0.49529 0.65621 0.68803 0.0
C471 C 0.54225 0.65844 0.70737 0.0
H472 H 0.50608 0.66211 0.73092 0.0
H473 H 0.75219 0.68061 0.74724 0.0
O474 O 0.70625 0.56283 0.76754 0.0
C475 C 0.79962 0.62712 0.80167 0.0
Co476 Co 0.39765 0.4191 0.52715 0.0
Co477 Co 0.35775 0.36696 0.5254 0.0
C478 C 0.26389 0.39701 0.57321 0.0
O479 O 0.30156 0.41479 0.56195 0.0
O480 O 0.279 0.37743 0.56082 0.0
C481 C 0.37989 0.46712 0.51104 0.0
O482 O 0.2989 0.4628 0.50612 0.0
C483 C 0.28559 0.32045 0.52058 0.0
C484 C 0.38708 0.30461 0.48807 0.0
C485 C 0.30895 0.30036 0.50441 0.0
N486 N 0.34684 0.3359 0.51357 0.0
N487 N 0.40734 0.32625 0.49431 0.0
C488 C 0.20905 0.32471 0.54346 0.0
H489 H 0.22602 0.3365 0.5634 0.0
H490 H 0.15757 0.33267 0.52964 0.0
H491 H 0.18453 0.30872 0.55444 0.0
C492 C 0.36963 0.41297 0.45569 0.0
N493 N 0.37264 0.40532 0.48666 0.0
N494 N 0.34324 0.38459 0.48775 0.0
C495 C 0.3116 0.37913 0.45867 0.0
C496 C 0.32907 0.39672 0.43662 0.0
C497 C 0.41486 0.43402 0.44422 0.0
H498 H 0.46627 0.4385 0.46094 0.0
H499 H 0.36833 0.44822 0.44399 0.0
H500 H 0.4445 0.43159 0.4191 0.0
O501 O 0.49958 0.40566 0.54423 0.0
O502 O 0.47325 0.3689 0.54312 0.0
H503 H 0.29578 0.34417 0.44596 0.0
H504 H 0.20668 0.36215 0.43598 0.0
C505 C 0.25562 0.35886 0.45422 0.0
H506 H 0.22189 0.35452 0.47793 0.0
H507 H 0.46233 0.33457 0.48516 0.0
O508 O 0.42794 0.45139 0.52063 0.0
C509 C 0.52133 0.38543 0.54988 0.0
Co510 Co 0.31424 0.42245 0.20156 0.0
Co511 Co 0.35599 0.36994 0.20391 0.0
C512 C 0.48315 0.40229 0.17439 0.0
O513 O 0.43486 0.41952 0.18092 0.0
O514 O 0.46077 0.38228 0.18276 0.0
C515 C 0.3058 0.47019 0.22345 0.0
O516 O 0.38078 0.46695 0.23602 0.0
C517 C 0.42249 0.32331 0.2172 0.0
C518 C 0.2994 0.3068 0.23168 0.0
C519 C 0.38704 0.30306 0.22869 0.0
N520 N 0.35842 0.33837 0.21431 0.0
N521 N 0.2852 0.32823 0.22269 0.0
C522 C 0.51469 0.32813 0.20803 0.0
H523 H 0.51938 0.34067 0.18797 0.0
H524 H 0.54605 0.33535 0.22961 0.0
H525 H 0.54909 0.31241 0.20006 0.0
C526 C 0.27832 0.41382 0.27312 0.0
N527 N 0.3004 0.40695 0.24215 0.0
N528 N 0.33016 0.38623 0.243 0.0
C529 C 0.3369 0.38003 0.27439 0.0
C530 C 0.30202 0.39707 0.29495 0.0
C531 C 0.22921 0.43511 0.28111 0.0
H532 H 0.19013 0.43988 0.26024 0.0
H533 H 0.27465 0.44901 0.28591 0.0
H534 H 0.18578 0.43285 0.30326 0.0
O535 O 0.24256 0.40931 0.16894 0.0
O536 O 0.26683 0.37237 0.17105 0.0
H537 H 0.34968 0.34499 0.28641 0.0
H538 H 0.42246 0.36354 0.30708 0.0
C539 C 0.39057 0.36028 0.28378 0.0
H540 H 0.44144 0.35702 0.26438 0.0
H541 H 0.22536 0.33618 0.22296 0.0
O542 O 0.27215 0.45421 0.20748 0.0
C543 C 0.23038 0.3893 0.15869 0.0
C544 C 0.12956 0.25777 0.49805 0.0
C545 C 0.17544 0.23728 0.49655 0.0
H546 H 0.13575 0.29388 0.50084 0.0
C547 C 0.26498 0.23768 0.49855 0.0
H548 H 0.06039 0.25791 0.49659 0.0
C549 C 0.30796 0.25825 0.50141 0.0
C550 C 0.26209 0.27874 0.50288 0.0
H551 H 0.30177 0.22215 0.49863 0.0
H552 H 0.37714 0.25811 0.50286 0.0
C553 C 0.17254 0.27834 0.50092 0.0
C554 C 0.02874 0.98923 0.51922 0.0
C555 C 0.94073 0.98541 0.51531 0.0
H556 H 0.1346 0.01211 0.51306 0.0
C557 C 0.89184 1.00247 0.50137 0.0
H558 H 0.06849 0.97641 0.52974 0.0
C559 C 0.92996 0.0229 0.49165 0.0
C560 C 0.01791 0.02675 0.49563 0.0
H561 H 0.82408 1.00005 0.49785 0.0
H562 H 0.89015 0.03572 0.48117 0.0
C563 C 0.06688 0.00967 0.50949 0.0
C564 C 0.25393 0.02223 0.77829 0.0
C565 C 0.17116 0.02448 0.76634 0.0
H566 H 0.36912 1.00246 0.77893 0.0
C567 C 0.1419 1.00772 0.74496 0.0
H568 H 0.27889 0.03489 0.79465 0.0
C569 C 0.19402 0.98918 0.73577 0.0
C570 C 0.2768 0.98694 0.7477 0.0
H571 H 0.07886 0.00896 0.7351 0.0
H572 H 0.16907 0.97652 0.7194 0.0
C573 C 0.30608 1.0037 0.76907 0.0
C574 C 0.00519 0.27417 0.75287 0.0
C575 C 0.92891 0.274 0.73599 0.0
H576 H 0.09838 0.25467 0.77722 0.0
C577 C 0.88666 0.2533 0.73139 0.0
H578 H 0.03765 0.28987 0.75799 0.0
C579 C 0.92071 0.23314 0.74291 0.0
C580 C -0.00286 0.23331 0.75971 0.0
H581 H 0.82753 0.25267 0.71855 0.0
H582 H 0.88826 0.21744 0.73781 0.0
C583 C 0.03924 0.25402 0.76438 0.0
C584 C 0.80226 0.75564 0.50813 0.0
C585 C 0.76352 0.77716 0.5095 0.0
H586 H 0.7872 0.72022 0.49904 0.0
C587 C 0.67802 0.77925 0.50066 0.0
H588 H 0.8682 0.7535 0.51473 0.0
C589 C 0.63203 0.76021 0.49109 0.0
C590 C 0.67079 0.73869 0.48968 0.0
H591 H 0.64709 0.79563 0.5002 0.0
H592 H 0.56612 0.76236 0.48446 0.0
C593 C 0.75626 0.73659 0.49858 0.0
C594 C 0.76598 1.00692 0.26629 0.0
C595 C 0.71943 0.99002 0.25059 0.0
H596 H 0.76475 0.0402 0.28738 0.0
C597 C 0.63291 0.99417 0.24425 0.0
H598 H 0.83252 1.00424 0.27168 0.0
C599 C 0.5939 0.01475 0.25332 0.0
C600 C 0.64038 0.03164 0.26903 0.0
H601 H 0.59499 0.9815 0.23225 0.0
H602 H 0.52738 0.01742 0.24789 0.0
C603 C 0.72686 0.02749 0.27545 0.0
C604 C 0.83086 0.75819 0.23781 0.0
C605 C 0.87457 0.77893 0.23884 0.0
H606 H 0.83911 0.72216 0.24085 0.0
C607 C 0.96217 0.779 0.24521 0.0
H608 H 0.76323 0.75767 0.23293 0.0
C609 C 0.00523 0.75869 0.25035 0.0
C610 C 0.96131 0.73797 0.24966 0.0
H611 H -0.00301 0.79472 0.24725 0.0
H612 H 0.07273 0.75924 0.25543 0.0
C613 C 0.87397 0.73788 0.24285 0.0
C614 C 0.16342 0.76955 0.02408 0.0
C615 C 0.23639 0.77929 0.00852 0.0
H616 H 0.07893 0.74111 0.02679 0.0
C617 C 0.28112 0.76718 0.98312 0.0
H618 H 0.12908 0.77805 0.04437 0.0
C619 C 0.25299 0.74588 0.97324 0.0
C620 C 0.18007 0.73612 0.98882 0.0
H621 H 0.3375 0.77432 0.97054 0.0
H622 H 0.28734 0.73738 0.95295 0.0
C623 C 0.13529 0.74824 0.01419 0.0
C624 C 0.02863 0.48954 0.00667 0.0
C625 C 0.9442 0.48789 0.99611 0.0
H626 H 0.14442 0.50896 0.00701 0.0
C627 C 0.91269 0.50524 0.9767 0.0
H628 H 0.05519 0.47642 0.02158 0.0
C629 C -0.03567 0.52381 0.96808 0.0
C630 C 0.04861 0.52552 0.9788 0.0
H631 H 0.84832 0.50444 0.96794 0.0
H632 H 0.93766 0.53695 0.95326 0.0
C633 C 0.08013 0.50814 0.99818 0.0
C634 C 0.12046 0.51211 0.23028 0.0
C635 C 0.15295 0.52914 0.25047 0.0
H636 H 0.14327 0.48039 0.20561 0.0
C637 C 0.23695 0.5268 0.26118 0.0
H638 H 0.05636 0.51341 0.22139 0.0
C639 C 0.28713 0.50791 0.25197 0.0
C640 C 0.25465 0.49088 0.23177 0.0
H641 H 0.26433 0.53964 0.27662 0.0
H642 H 0.35123 0.50661 0.26086 0.0
C643 C 0.17068 0.49323 0.22104 0.0
C644 C 0.62314 0.25731 0.99268 0.0
C645 C 0.66866 0.23676 0.99294 0.0
H646 H 0.62839 0.29337 0.9964 0.0
C647 C 0.7564 0.23713 0.99903 0.0
H648 H 0.55532 0.25752 0.98808 0.0
C649 C 0.79793 0.25766 0.00433 0.0
C650 C 0.7524 0.27821 0.00411 0.0
H651 H 0.79267 0.2216 0.0006 0.0
H652 H 0.86573 0.25744 0.00895 0.0
C653 C 0.66468 0.27784 0.99797 0.0
C654 C 0.66182 0.50801 0.73059 0.0
C655 C 0.70474 0.52498 0.7476 0.0
H656 H 0.66873 0.47504 0.70853 0.0
C657 C 0.79059 0.52129 0.75536 0.0
H658 H 0.59592 0.51036 0.72409 0.0
C659 C 0.83251 0.50108 0.74636 0.0
C660 C 0.7897 0.48412 0.72931 0.0
H661 H 0.82575 0.53403 0.76839 0.0
H662 H 0.8984 0.49875 0.7529 0.0
C663 C 0.70387 0.48782 0.7215 0.0
C664 C 0.50593 0.00975 0.02191 0.0
C665 C 0.47481 0.02715 0.00248 0.0
H666 H 0.48025 0.97809 0.04538 0.0
C667 C 0.39031 0.02564 0.99195 0.0
H668 H 0.57034 0.01045 0.03065 0.0
C669 C 0.33838 1.00712 0.00047 0.0
C670 C 0.36952 0.9897 0.01986 0.0
H671 H 0.36404 0.03879 0.97703 0.0
H672 H 0.27406 1.0064 0.99165 0.0
C673 C 0.45385 0.99128 0.03056 0.0
C674 C 0.5077 0.28255 0.25441 0.0
C675 C 0.42963 0.28198 0.2387 0.0
H676 H 0.60448 0.26351 0.27758 0.0
C677 C 0.3883 0.26108 0.23477 0.0
H678 H 0.5397 0.29841 0.25893 0.0
C679 C 0.42472 0.24113 0.24593 0.0
C680 C 0.50265 0.24169 0.26173 0.0
H681 H 0.32794 0.26013 0.22278 0.0
H682 H 0.39271 0.22526 0.2414 0.0
C683 C 0.54412 0.26258 0.26558 0.0
C684 C 0.42036 0.75751 0.74732 0.0
C685 C 0.46596 0.77798 0.74843 0.0
H686 H 0.42541 0.72143 0.75019 0.0
C687 C 0.55291 0.77752 0.75575 0.0
H688 H 0.3531 0.75738 0.74184 0.0
C689 C 0.59406 0.75693 0.76087 0.0
C690 C 0.5487 0.73646 0.75939 0.0
H691 H 0.589 0.79301 0.7581 0.0
H692 H 0.66147 0.75703 0.76614 0.0
C693 C 0.46144 0.73693 0.75255 0.0
C694 C 0.40643 0.52665 0.47798 0.0
C695 C 0.49427 0.53069 0.48194 0.0
H696 H 0.30123 0.50358 0.48427 0.0
C697 C 0.5436 0.51379 0.49606 0.0
H698 H 0.36636 0.53934 0.46732 0.0
C699 C 0.50606 0.49333 0.50593 0.0
C700 C 0.41825 0.48927 0.50193 0.0
H701 H 0.61125 0.51638 0.49963 0.0
H702 H 0.54618 0.48064 0.51657 0.0
C703 C 0.36886 0.50618 0.48787 0.0
C704 C 0.28348 0.09841 0.38847 0.0
C705 C 0.23526 0.11794 0.39652 0.0
H706 H 0.38658 0.08403 0.35823 0.0
C707 C 0.24592 0.13717 0.37671 0.0
H708 H 0.27568 0.08328 0.40312 0.0
C709 C 0.30753 0.1375 0.35085 0.0
C710 C 0.36106 0.11871 0.34434 0.0
H711 H 0.20792 0.15229 0.38168 0.0
H712 H 0.31595 0.15297 0.33702 0.0
C713 C 0.34639 0.09882 0.36262 0.0
C714 C 0.78841 0.15362 0.37955 0.0
C715 C 0.7392 0.13447 0.37266 0.0
H716 H 0.8842 0.16766 0.40967 0.0
C717 C 0.73715 0.11623 0.39453 0.0
H718 H 0.78966 0.16803 0.36329 0.0
C719 C 0.78907 0.11619 0.4212 0.0
C720 C 0.84513 0.13425 0.42633 0.0
H721 H 0.69738 0.10156 0.39041 0.0
H722 H 0.78932 0.1013 0.43654 0.0
C723 C 0.84159 0.15347 0.40625 0.0
C724 C 0.23671 0.11121 0.89334 0.0
C725 C 0.23744 0.1286 0.87013 0.0
H726 H 0.28951 0.09825 0.93651 0.0
C727 C 0.28572 0.1482 0.87537 0.0
H728 H 0.19766 0.09625 0.89044 0.0
C729 C 0.33917 0.14935 0.90195 0.0
C730 C 0.34364 0.131 0.92359 0.0
H731 H 0.28583 0.16198 0.85802 0.0
H732 H 0.38096 0.16384 0.9042 0.0
C733 C 0.2886 0.11249 0.91995 0.0
C734 C 0.84712 0.09183 0.86696 0.0
C735 C 0.85831 0.11028 0.84549 0.0
H736 H 0.77931 0.07876 0.91009 0.0
C737 C 0.80188 0.12878 0.84921 0.0
H738 H 0.88974 0.07735 0.86481 0.0
C739 C 0.741 0.12979 0.87531 0.0
C740 C 0.73357 0.11217 0.89816 0.0
H741 H 0.80754 0.14313 0.8329 0.0
H742 H 0.70085 0.14474 0.87802 0.0
C743 C 0.78461 0.09271 0.89304 0.0
C744 C 0.63894 0.88141 0.6623 0.0
C745 C 0.58436 0.90025 0.66662 0.0
H746 H 0.73824 0.86514 0.633 0.0
C747 C 0.59655 0.91884 0.6455 0.0
H748 H 0.63266 0.86696 0.6784 0.0
C749 C 0.6587 0.91786 0.61932 0.0
C750 C 0.70812 0.89816 0.61373 0.0
H751 H 0.55538 0.93359 0.64813 0.0
H752 H 0.6654 0.93202 0.60268 0.0
C753 C 0.69921 0.88028 0.63605 0.0
C754 C 0.20755 0.89883 0.62355 0.0
C755 C 0.20347 0.88191 0.64749 0.0
H756 H 0.15863 0.91146 0.57948 0.0
C757 C 0.15242 0.86272 0.6428 0.0
H758 H 0.24882 0.91342 0.62599 0.0
C759 C 0.09984 0.86161 0.61591 0.0
C760 C 0.09918 0.87955 0.59342 0.0
H761 H 0.14977 0.84927 0.66071 0.0
H762 H 0.05597 0.84753 0.61398 0.0
C763 C 0.15664 0.89756 0.59668 0.0
C764 C 0.49183 0.9044 0.17142 0.0
C765 C 0.54457 0.8855 0.17569 0.0
H766 H 0.40299 0.92062 0.14126 0.0
C767 C 0.53731 0.86653 0.1549 0.0
H768 H 0.49487 0.91913 0.18736 0.0
C769 C 0.48414 0.86741 0.12831 0.0
C770 C 0.43867 0.88732 0.12223 0.0
H771 H 0.5771 0.8517 0.15769 0.0
H772 H 0.48252 0.85311 0.11152 0.0
C773 C 0.44 0.90538 0.14478 0.0
C774 C -0.01719 0.92098 0.13929 0.0
C775 C 0.93567 0.90112 0.14554 0.0
H776 H 0.08498 0.93652 0.11038 0.0
C777 C 0.94695 0.88262 0.12386 0.0
H778 H -0.02556 0.93559 0.15539 0.0
C779 C 0.00822 0.88328 0.09789 0.0
C780 C 0.06087 0.90235 0.09317 0.0
H781 H 0.90983 0.86728 0.12744 0.0
H782 H 0.01742 0.86828 0.08262 0.0
C783 C 0.04542 0.92156 0.11334 0.0
C784 C 0.40974 0.63175 0.90064 0.0
C785 C 0.35682 0.61273 0.90532 0.0
H786 H 0.50835 0.64769 0.87113 0.0
C787 C 0.37207 0.59351 0.88514 0.0
H788 H 0.40068 0.64675 0.91593 0.0
C789 C 0.43473 0.59405 0.85921 0.0
C790 C 0.48208 0.61388 0.85299 0.0
H791 H 0.33229 0.57859 0.88807 0.0
H792 H 0.44292 0.57944 0.84309 0.0
C793 C 0.47105 0.63237 0.8747 0.0
C794 C 0.92604 0.61057 0.82679 0.0
C795 C 0.87325 0.62946 0.82253 0.0
H796 H 0.01493 0.59438 0.85695 0.0
C797 C 0.8806 0.64846 0.84323 0.0
H798 H 0.92291 0.59583 0.81088 0.0
C799 C 0.93383 0.64762 0.86978 0.0
C800 C -0.02075 0.62771 0.87589 0.0
H801 H 0.84078 0.66329 0.84043 0.0
H802 H 0.93549 0.66194 0.88653 0.0
C803 C -0.02208 0.60963 0.8534 0.0
C804 C 0.28408 0.65364 0.35409 0.0
C805 C 0.23212 0.63461 0.34958 0.0
H806 H 0.38113 0.66863 0.38284 0.0
C807 C 0.22704 0.61781 0.37368 0.0
H808 H 0.28747 0.66699 0.33603 0.0
C809 C 0.27781 0.61903 0.40059 0.0
C810 C 0.33611 0.63687 0.40371 0.0
H811 H 0.18504 0.60335 0.37138 0.0
H812 H 0.27503 0.60522 0.41795 0.0
C813 C 0.33654 0.6547 0.38102 0.0
C814 C 0.73611 0.63602 0.36238 0.0
C815 C 0.72725 0.6181 0.38463 0.0
H816 H 0.80246 0.64939 0.32005 0.0
C817 C 0.77674 0.59842 0.37901 0.0
H818 H 0.69697 0.65114 0.36546 0.0
C819 C 0.83889 0.59749 0.35284 0.0
C820 C 0.85093 0.6161 0.33176 0.0
H821 H 0.77004 0.58423 0.3956 0.0
H822 H 0.8801 0.58275 0.35015 0.0
C823 C 0.79632 0.63493 0.33613 0.0
C824 C 0.61667 0.38587 0.14813 0.0
C825 C 0.56064 0.40443 0.15204 0.0
H826 H 0.71724 0.36986 0.11915 0.0
C827 C 0.57182 0.42291 0.13063 0.0
H828 H 0.61107 0.3715 0.16441 0.0
C829 C 0.63411 0.42202 0.10446 0.0
C830 C 0.68487 0.40253 0.09921 0.0
H831 H 0.52949 0.43745 0.13292 0.0
H832 H 0.63958 0.43602 0.08751 0.0
C833 C 0.67727 0.38484 0.12195 0.0
C834 C 0.07887 0.36566 0.09739 0.0
C835 C 0.07485 0.384 0.07571 0.0
H836 H 0.13179 0.35298 0.14139 0.0
C837 C 0.12978 0.40252 0.0795 0.0
H838 H 0.03711 0.35118 0.09503 0.0
C839 C 0.18136 0.40377 0.1062 0.0
C840 C 0.18047 0.38636 0.12938 0.0
H841 H 0.1292 0.41675 0.06293 0.0
H842 H 0.2205 0.41872 0.10913 0.0
C843 C 0.13205 0.36679 0.12406 0.0
C844 C 0.65236 0.36245 0.61718 0.0
C845 C 0.70126 0.38164 0.6241 0.0
H846 H 0.55635 0.34839 0.58721 0.0
C847 C 0.70287 0.39993 0.60233 0.0
H848 H 0.65146 0.348 0.63337 0.0
C849 C 0.65052 0.4 0.57578 0.0
C850 C 0.59453 0.38191 0.57071 0.0
H851 H 0.7424 0.41464 0.6065 0.0
H852 H 0.64975 0.41494 0.56056 0.0
C853 C 0.59881 0.36261 0.5906 0.0
C854 C 0.13223 0.37888 0.64832 0.0
C855 C 0.07821 0.39761 0.65457 0.0
H856 H 0.23233 0.36409 0.61768 0.0
C857 C 0.09283 0.41746 0.63621 0.0
H858 H 0.12383 0.36343 0.66222 0.0
C859 C 0.15596 0.41786 0.61043 0.0
C860 C 0.2045 0.39835 0.60256 0.0
H861 H 0.0523 0.43221 0.64041 0.0
H862 H 0.16354 0.43294 0.59565 0.0
C863 C 0.19411 0.3792 0.62254 0.0
C864 C 0.12657 0.09761 0.64915 0.0
C865 C 0.13021 0.1179 0.66732 0.0
H866 H 0.12651 0.08192 0.6019 0.0
C867 C 0.13422 0.13834 0.65005 0.0
H868 H 0.12244 0.08141 0.6611 0.0
C869 C 0.12362 0.13872 0.61634 0.0
C870 C 0.11904 0.11852 0.59804 0.0
H871 H 0.14208 0.15432 0.66262 0.0
H872 H 0.11666 0.15505 0.60523 0.0
C873 C 0.12503 0.09793 0.61486 0.0
C874 C 0.84451 0.91341 0.39862 0.0
C875 C 0.85313 0.8927 0.41485 0.0
H876 H 0.83379 0.93029 0.35315 0.0
C877 C 0.84733 0.87265 0.39636 0.0
H878 H 0.84553 0.92934 0.41171 0.0
C879 C 0.82713 0.87324 0.36348 0.0
C880 C 0.82227 0.89389 0.34685 0.0
H881 H 0.85744 0.85629 0.40711 0.0
H882 H 0.81521 0.8573 0.35143 0.0
C883 C 0.83355 0.91398 0.36483 0.0
C884 C 0.08245 0.59961 0.0979 0.0
C885 C 0.07743 0.6198 0.0801 0.0
H886 H 0.07838 0.58404 0.1448 0.0
C887 C 0.07053 0.64028 0.09771 0.0
H888 H 0.08972 0.58341 0.08566 0.0
C889 C 0.07736 0.64081 0.1316 0.0
C890 C 0.08031 0.6207 0.14962 0.0
H891 H 0.06201 0.65618 0.0854 0.0
H892 H 0.08098 0.6572 0.14333 0.0
C893 C 0.07996 0.60003 0.13225 0.0
C894 C 0.81504 0.41242 0.88043 0.0
C895 C 0.82023 0.39241 0.89864 0.0
H896 H 0.8174 0.42748 0.83332 0.0
C897 C 0.81551 0.37166 0.88169 0.0
H898 H 0.81413 0.42883 0.89226 0.0
C899 C 0.80402 0.37098 0.84797 0.0
C900 C 0.80697 0.39088 0.82938 0.0
H901 H 0.82215 0.35572 0.89399 0.0
H902 H 0.79535 0.35464 0.83652 0.0
C903 C 0.8127 0.41165 0.84621 0.0
C904 C 0.62484 0.14447 0.14931 0.0
C905 C 0.62272 0.12465 0.16809 0.0
H906 H 0.60423 0.15956 0.10338 0.0
C907 C 0.61555 0.10381 0.15152 0.0
H908 H 0.63448 0.16085 0.16051 0.0
C909 C 0.61124 0.10291 0.11737 0.0
C910 C 0.60547 0.12284 0.09903 0.0
H911 H 0.61129 0.08805 0.16459 0.0
H912 H 0.61119 0.08645 0.10571 0.0
C913 C 0.61137 0.14366 0.11575 0.0
C914 C 0.3453 0.87508 0.86622 0.0
C915 C 0.34405 0.89528 0.84833 0.0
H916 H 0.35705 0.85949 0.91249 0.0
C917 C 0.34303 0.91587 0.86593 0.0
H918 H 0.3425 0.85876 0.85428 0.0
C919 C 0.33811 0.91613 0.90029 0.0
C920 C 0.34192 0.89588 0.918 0.0
H921 H 0.34559 0.93191 0.85353 0.0
H922 H 0.33016 0.93229 0.91261 0.0
C923 C 0.34954 0.87545 0.90025 0.0
C924 C 0.57837 0.64276 0.60183 0.0
C925 C 0.57378 0.62279 0.58311 0.0
H926 H 0.60738 0.6579 0.64726 0.0
C927 C 0.58114 0.602 0.59924 0.0
H928 H 0.56912 0.65917 0.59111 0.0
C929 C 0.58971 0.60128 0.63315 0.0
C930 C 0.59985 0.62129 0.65142 0.0
H931 H 0.58097 0.58612 0.58597 0.0
H932 H 0.58863 0.58492 0.64469 0.0
C933 C 0.59621 0.64202 0.63494 0.0
C934 C 0.29512 0.37717 0.34908 0.0
C935 C 0.29838 0.39753 0.33161 0.0
H936 H 0.31512 0.36062 0.39383 0.0
C937 C 0.30356 0.41788 0.34953 0.0
H938 H 0.28622 0.36114 0.33675 0.0
C939 C 0.30707 0.4177 0.38376 0.0
C940 C 0.31356 0.39718 0.40072 0.0
H941 H 0.30732 0.43403 0.33741 0.0
H942 H 0.30657 0.43376 0.39656 0.0
C943 C 0.30773 0.37692 0.38265 0.0
loop_
_geom_bond_atom_site_label_1
_geom_bond_atom_site_label_2
_geom_bond_distance
_geom_bond_site_symmetry_2
_ccdc_geom_bond_type
Co0 O3 1.970 . S
Co0 N17 1.989 . S
Co0 O25 1.967 . S
Co0 O32 1.920 . S
Co1 O4 1.966 . S
Co1 N10 2.022 . S
Co1 N18 1.993 . S
Co1 O26 1.941 . S
C2 O3 1.258 . S
C2 O4 1.263 . S
O3 Co0 1.970 . S
O3 C2 1.258 . S
O4 Co1 1.966 . S
O4 C2 1.263 . S
C5 O6 1.235 . S
C5 O32 1.289 . S
O6 C5 1.235 . S
C7 C9 1.400 . S
C7 N10 1.351 . S
C7 C12 1.501 . S
C8 C9 1.387 . S
C8 N11 1.341 . S
C9 C7 1.400 . S
C9 C8 1.387 . S
N10 Co1 2.022 . S
N10 C7 1.351 . S
N10 N11 1.365 . S
N11 C8 1.341 . S
N11 N10 1.365 . S
N11 H31 0.862 . S
C12 C7 1.501 . S
C12 H13 0.961 . S
C12 H14 0.961 . S
C12 H15 0.960 . S
H13 C12 0.961 . S
H14 C12 0.961 . S
H15 C12 0.960 . S
C16 N17 1.342 . S
C16 C20 1.401 . S
C16 C21 1.499 . S
N17 Co0 1.989 . S
N17 C16 1.342 . S
N17 N18 1.388 . S
N18 Co1 1.993 . S
N18 N17 1.388 . S
N18 C19 1.346 . S
C19 N18 1.346 . S
C19 C20 1.396 . S
C19 C29 1.510 . S
C20 C16 1.401 . S
C20 C19 1.396 . S
C21 C16 1.499 . S
C21 H22 0.959 . S
C21 H23 0.960 . S
C21 H24 0.961 . S
H22 C21 0.959 . S
H23 C21 0.960 . S
H24 C21 0.961 . S
O25 Co0 1.967 . S
O25 C33 1.258 1_455 S
O26 Co1 1.941 . S
O26 C33 1.266 1_455 S
H27 C29 0.959 . S
H28 C29 0.961 . S
C29 C19 1.510 . S
C29 H27 0.959 . S
C29 H28 0.961 . S
C29 H30 0.960 . S
H30 C29 0.960 . S
H31 N11 0.862 . S
O32 Co0 1.920 . S
O32 C5 1.289 . S
C33 O25 1.258 1_655 S
C33 O26 1.266 1_655 S
Co34 O37 1.970 . S
Co34 N51 1.989 . S
Co34 O59 1.967 . S
Co34 O66 1.920 . S
Co35 O38 1.966 . S
Co35 N44 2.022 . S
Co35 N52 1.993 . S
Co35 O60 1.941 . S
C36 O37 1.258 1_655 S
C36 O38 1.263 1_655 S
O37 Co34 1.970 . S
O37 C36 1.258 1_455 S
O38 Co35 1.966 . S
O38 C36 1.263 1_455 S
C39 O40 1.235 . S
C39 O66 1.289 . S
O40 C39 1.235 . S
C41 C43 1.400 . S
C41 N44 1.351 . S
C41 C46 1.501 1_455 S
C42 C43 1.387 . S
C42 N45 1.341 . S
C43 C41 1.400 . S
C43 C42 1.387 . S
N44 Co35 2.022 . S
N44 C41 1.351 . S
N44 N45 1.365 . S
N45 C42 1.341 . S
N45 N44 1.365 . S
N45 H65 0.862 . S
C46 C41 1.501 1_655 S
C46 H47 0.961 . S
C46 H48 0.961 . S
C46 H49 0.960 . S
H47 C46 0.961 . S
H48 C46 0.961 . S
H49 C46 0.960 . S
C50 N51 1.342 . S
C50 C54 1.401 . S
C50 C55 1.499 . S
N51 Co34 1.989 . S
N51 C50 1.342 . S
N51 N52 1.388 . S
N52 Co35 1.993 . S
N52 N51 1.388 . S
N52 C53 1.346 . S
C53 N52 1.346 . S
C53 C54 1.396 . S
C53 C63 1.510 . S
C54 C50 1.401 . S
C54 C53 1.396 . S
C55 C50 1.499 . S
C55 H56 0.959 . S
C55 H57 0.960 . S
C55 H58 0.961 . S
H56 C55 0.959 . S
H57 C55 0.960 . S
H58 C55 0.961 . S
O59 Co34 1.967 . S
O59 C67 1.258 . S
O60 Co35 1.941 . S
O60 C67 1.266 . S
H61 C63 0.959 . S
H62 C63 0.961 . S
C63 C53 1.510 . S
C63 H61 0.959 . S
C63 H62 0.961 . S
C63 H64 0.960 . S
H64 C63 0.960 . S
H65 N45 0.862 . S
O66 Co34 1.920 . S
O66 C39 1.289 . S
C67 O59 1.258 . S
C67 O60 1.266 . S
Co68 O71 1.970 . S
Co68 N85 1.989 . S
Co68 O93 1.967 . S
Co68 O100 1.920 . S
Co69 O72 1.966 . S
Co69 N78 2.022 . S
Co69 N86 1.993 . S
Co69 O94 1.941 . S
C70 O71 1.258 . S
C70 O72 1.263 . S
O71 Co68 1.970 . S
O71 C70 1.258 . S
O72 Co69 1.966 . S
O72 C70 1.263 . S
C73 O74 1.235 . S
C73 O100 1.289 . S
O74 C73 1.235 . S
C75 C77 1.400 . S
C75 N78 1.351 . S
C75 C80 1.501 . S
C76 C77 1.387 . S
C76 N79 1.341 . S
C77 C75 1.400 . S
C77 C76 1.387 . S
N78 Co69 2.022 . S
N78 C75 1.351 . S
N78 N79 1.365 . S
N79 C76 1.341 . S
N79 N78 1.365 . S
N79 H99 0.862 . S
C80 C75 1.501 . S
C80 H81 0.961 . S
C80 H82 0.961 . S
C80 H83 0.960 . S
H81 C80 0.961 . S
H82 C80 0.961 . S
H83 C80 0.960 . S
C84 N85 1.342 . S
C84 C88 1.401 . S
C84 C89 1.499 . S
N85 Co68 1.989 . S
N85 C84 1.342 . S
N85 N86 1.388 . S
N86 Co69 1.993 . S
N86 N85 1.388 . S
N86 C87 1.346 . S
C87 N86 1.346 . S
C87 C88 1.396 . S
C87 C97 1.510 . S
C88 C84 1.401 . S
C88 C87 1.396 . S
C89 C84 1.499 . S
C89 H90 0.959 . S
C89 H91 0.960 . S
C89 H92 0.961 . S
H90 C89 0.959 . S
H91 C89 0.960 . S
H92 C89 0.961 . S
O93 Co68 1.967 . S
O93 C101 1.258 1_655 S
O94 Co69 1.941 . S
O94 C101 1.266 1_655 S
H95 C97 0.959 . S
H96 C97 0.961 . S
C97 C87 1.510 . S
C97 H95 0.959 . S
C97 H96 0.961 . S
C97 H98 0.960 . S
H98 C97 0.960 . S
H99 N79 0.862 . S
O100 Co68 1.920 . S
O100 C73 1.289 . S
C101 O93 1.258 1_455 S
C101 O94 1.266 1_455 S
Co102 O105 1.970 . S
Co102 N119 1.989 . S
Co102 O127 1.967 . S
Co102 O134 1.920 . S
Co103 O106 1.966 . S
Co103 N112 2.022 . S
Co103 N120 1.993 . S
Co103 O128 1.941 . S
C104 O105 1.258 1_455 S
C104 O106 1.263 1_455 S
O105 Co102 1.970 . S
O105 C104 1.258 1_655 S
O106 Co103 1.966 . S
O106 C104 1.263 1_655 S
C107 O108 1.235 . S
C107 O134 1.289 . S
O108 C107 1.235 . S
C109 C111 1.400 . S
C109 N112 1.351 . S
C109 C114 1.501 1_655 S
C110 C111 1.387 . S
C110 N113 1.341 . S
C111 C109 1.400 . S
C111 C110 1.387 . S
N112 Co103 2.022 . S
N112 C109 1.351 . S
N112 N113 1.365 . S
N113 C110 1.341 . S
N113 N112 1.365 . S
N113 H133 0.862 . S
C114 C109 1.501 1_455 S
C114 H115 0.961 . S
C114 H116 0.961 . S
C114 H117 0.960 . S
H115 C114 0.961 . S
H116 C114 0.961 . S
H117 C114 0.960 . S
C118 N119 1.342 . S
C118 C122 1.401 . S
C118 C123 1.499 . S
N119 Co102 1.989 . S
N119 C118 1.342 . S
N119 N120 1.388 . S
N120 Co103 1.993 . S
N120 N119 1.388 . S
N120 C121 1.346 . S
C121 N120 1.346 . S
C121 C122 1.396 . S
C121 C131 1.510 . S
C122 C118 1.401 . S
C122 C121 1.396 . S
C123 C118 1.499 . S
C123 H124 0.959 . S
C123 H125 0.960 . S
C123 H126 0.961 . S
H124 C123 0.959 . S
H125 C123 0.960 . S
H126 C123 0.961 . S
O127 Co102 1.967 . S
O127 C135 1.258 . S
O128 Co103 1.941 . S
O128 C135 1.266 . S
H129 C131 0.959 . S
H130 C131 0.961 . S
C131 C121 1.510 . S
C131 H129 0.959 . S
C131 H130 0.961 . S
C131 H132 0.960 . S
H132 C131 0.960 . S
H133 N113 0.862 . S
O134 Co102 1.920 . S
O134 C107 1.289 . S
C135 O127 1.258 . S
C135 O128 1.266 . S
Co136 O139 1.970 . S
Co136 N153 1.989 1_556 S
Co136 O161 1.967 . S
Co136 O168 1.920 . S
Co137 O140 1.966 . S
Co137 N146 2.022 . S
Co137 N154 1.993 1_556 S
Co137 O162 1.941 . S
C138 O139 1.258 . S
C138 O140 1.263 . S
O139 Co136 1.970 . S
O139 C138 1.258 . S
O140 Co137 1.966 . S
O140 C138 1.263 . S
C141 O142 1.235 . S
C141 O168 1.289 . S
O142 C141 1.235 . S
C143 C145 1.400 . S
C143 N146 1.351 . S
C143 C148 1.501 . S
C144 C145 1.387 . S
C144 N147 1.341 . S
C145 C143 1.400 . S
C145 C144 1.387 . S
N146 Co137 2.022 . S
N146 C143 1.351 . S
N146 N147 1.365 . S
N147 C144 1.341 . S
N147 N146 1.365 . S
N147 H167 0.862 . S
C148 C143 1.501 . S
C148 H149 0.961 . S
C148 H150 0.961 . S
C148 H151 0.960 . S
H149 C148 0.961 . S
H150 C148 0.961 . S
H151 C148 0.960 . S
C152 N153 1.342 . S
C152 C156 1.401 . S
C152 C157 1.499 . S
N153 Co136 1.989 1_554 S
N153 C152 1.342 . S
N153 N154 1.388 . S
N154 Co137 1.993 1_554 S
N154 N153 1.388 . S
N154 C155 1.346 . S
C155 N154 1.346 . S
C155 C156 1.396 . S
C155 C165 1.510 . S
C156 C152 1.401 . S
C156 C155 1.396 . S
C157 C152 1.499 . S
C157 H158 0.959 . S
C157 H159 0.960 . S
C157 H160 0.961 . S
H158 C157 0.959 . S
H159 C157 0.960 . S
H160 C157 0.961 . S
O161 Co136 1.967 . S
O161 C169 1.258 1_455 S
O162 Co137 1.941 . S
O162 C169 1.266 1_455 S
H163 C165 0.959 . S
H164 C165 0.961 . S
C165 C155 1.510 . S
C165 H163 0.959 . S
C165 H164 0.961 . S
C165 H166 0.960 . S
H166 C165 0.960 . S
H167 N147 0.862 . S
O168 Co136 1.920 . S
O168 C141 1.289 . S
C169 O161 1.258 1_655 S
C169 O162 1.266 1_655 S
Co170 O173 1.970 . S
Co170 N187 1.989 . S
Co170 O195 1.967 . S
Co170 O202 1.920 . S
Co171 O174 1.966 . S
Co171 N180 2.022 . S
Co171 N188 1.993 . S
Co171 O196 1.941 . S
C172 O173 1.258 1_655 S
C172 O174 1.263 1_655 S
O173 Co170 1.970 . S
O173 C172 1.258 1_455 S
O174 Co171 1.966 . S
O174 C172 1.263 1_455 S
C175 O176 1.235 . S
C175 O202 1.289 . S
O176 C175 1.235 . S
C177 C179 1.400 . S
C177 N180 1.351 . S
C177 C182 1.501 1_455 S
C178 C179 1.387 . S
C178 N181 1.341 . S
C179 C177 1.400 . S
C179 C178 1.387 . S
N180 Co171 2.022 . S
N180 C177 1.351 . S
N180 N181 1.365 . S
N181 C178 1.341 . S
N181 N180 1.365 . S
N181 H201 0.862 . S
C182 C177 1.501 1_655 S
C182 H183 0.961 . S
C182 H184 0.961 . S
C182 H185 0.960 . S
H183 C182 0.961 . S
H184 C182 0.961 . S
H185 C182 0.960 . S
C186 N187 1.342 . S
C186 C190 1.401 . S
C186 C191 1.499 . S
N187 Co170 1.989 . S
N187 C186 1.342 . S
N187 N188 1.388 . S
N188 Co171 1.993 . S
N188 N187 1.388 . S
N188 C189 1.346 . S
C189 N188 1.346 . S
C189 C190 1.396 . S
C189 C199 1.510 . S
C190 C186 1.401 . S
C190 C189 1.396 . S
C191 C186 1.499 . S
C191 H192 0.959 . S
C191 H193 0.960 . S
C191 H194 0.961 . S
H192 C191 0.959 . S
H193 C191 0.960 . S
H194 C191 0.961 . S
O195 Co170 1.967 . S
O195 C203 1.258 . S
O196 Co171 1.941 . S
O196 C203 1.266 . S
H197 C199 0.959 . S
H198 C199 0.961 . S
C199 C189 1.510 . S
C199 H197 0.959 . S
C199 H198 0.961 . S
C199 H200 0.960 . S
H200 C199 0.960 . S
H201 N181 0.862 . S
O202 Co170 1.920 . S
O202 C175 1.289 . S
C203 O195 1.258 . S
C203 O196 1.266 . S
Co204 O207 1.970 . S
Co204 N221 1.989 1_554 S
Co204 O229 1.967 . S
Co204 O236 1.920 . S
Co205 O208 1.966 . S
Co205 N214 2.022 . S
Co205 N222 1.993 1_554 S
Co205 O230 1.941 . S
C206 O207 1.258 . S
C206 O208 1.263 . S
O207 Co204 1.970 . S
O207 C206 1.258 . S
O208 Co205 1.966 . S
O208 C206 1.263 . S
C209 O210 1.235 . S
C209 O236 1.289 . S
O210 C209 1.235 . S
C211 C213 1.400 . S
C211 N214 1.351 . S
C211 C216 1.501 . S
C212 C213 1.387 . S
C212 N215 1.341 . S
C213 C211 1.400 . S
C213 C212 1.387 . S
N214 Co205 2.022 . S
N214 C211 1.351 . S
N214 N215 1.365 . S
N215 C212 1.341 . S
N215 N214 1.365 . S
N215 H235 0.862 . S
C216 C211 1.501 . S
C216 H217 0.961 . S
C216 H218 0.961 . S
C216 H219 0.960 . S
H217 C216 0.961 . S
H218 C216 0.961 . S
H219 C216 0.960 . S
C220 N221 1.342 . S
C220 C224 1.401 . S
C220 C225 1.499 . S
N221 Co204 1.989 1_556 S
N221 C220 1.342 . S
N221 N222 1.388 . S
N222 Co205 1.993 1_556 S
N222 N221 1.388 . S
N222 C223 1.346 . S
C223 N222 1.346 . S
C223 C224 1.396 . S
C223 C233 1.510 . S
C224 C220 1.401 . S
C224 C223 1.396 . S
C225 C220 1.499 . S
C225 H226 0.959 . S
C225 H227 0.960 . S
C225 H228 0.961 . S
H226 C225 0.959 . S
H227 C225 0.960 . S
H228 C225 0.961 . S
O229 Co204 1.967 . S
O229 C237 1.258 1_655 S
O230 Co205 1.941 . S
O230 C237 1.266 1_655 S
H231 C233 0.959 . S
H232 C233 0.961 . S
C233 C223 1.510 . S
C233 H231 0.959 . S
C233 H232 0.961 . S
C233 H234 0.960 . S
H234 C233 0.960 . S
H235 N215 0.862 . S
O236 Co204 1.920 . S
O236 C209 1.289 . S
C237 O229 1.258 1_455 S
C237 O230 1.266 1_455 S
Co238 O241 1.970 . S
Co238 N255 1.989 . S
Co238 O263 1.967 . S
Co238 O270 1.920 . S
Co239 O242 1.966 . S
Co239 N248 2.022 . S
Co239 N256 1.993 . S
Co239 O264 1.941 . S
C240 O241 1.258 1_455 S
C240 O242 1.263 1_455 S
O241 Co238 1.970 . S
O241 C240 1.258 1_655 S
O242 Co239 1.966 . S
O242 C240 1.263 1_655 S
C243 O244 1.235 . S
C243 O270 1.289 . S
O244 C243 1.235 . S
C245 C247 1.400 . S
C245 N248 1.351 . S
C245 C250 1.501 1_655 S
C246 C247 1.387 . S
C246 N249 1.341 . S
C247 C245 1.400 . S
C247 C246 1.387 . S
N248 Co239 2.022 . S
N248 C245 1.351 . S
N248 N249 1.365 . S
N249 C246 1.341 . S
N249 N248 1.365 . S
N249 H269 0.862 . S
C250 C245 1.501 1_455 S
C250 H251 0.961 . S
C250 H252 0.961 . S
C250 H253 0.960 . S
H251 C250 0.961 . S
H252 C250 0.961 . S
H253 C250 0.960 . S
C254 N255 1.342 . S
C254 C258 1.401 . S
C254 C259 1.499 . S
N255 Co238 1.989 . S
N255 C254 1.342 . S
N255 N256 1.388 . S
N256 Co239 1.993 . S
N256 N255 1.388 . S
N256 C257 1.346 . S
C257 N256 1.346 . S
C257 C258 1.396 . S
C257 C267 1.510 . S
C258 C254 1.401 . S
C258 C257 1.396 . S
C259 C254 1.499 . S
C259 H260 0.959 . S
C259 H261 0.960 . S
C259 H262 0.961 . S
H260 C259 0.959 . S
H261 C259 0.960 . S
H262 C259 0.961 . S
O263 Co238 1.967 . S
O263 C271 1.258 . S
O264 Co239 1.941 . S
O264 C271 1.266 . S
H265 C267 0.959 . S
H266 C267 0.961 . S
C267 C257 1.510 . S
C267 H265 0.959 . S
C267 H266 0.961 . S
C267 H268 0.960 . S
H268 C267 0.960 . S
H269 N249 0.862 . S
O270 Co238 1.920 . S
O270 C243 1.289 . S
C271 O263 1.258 . S
C271 O264 1.266 . S
Co272 O275 1.970 . S
Co272 N289 1.989 1_556 S
Co272 O297 1.967 . S
Co272 O304 1.920 . S
Co273 O276 1.966 . S
Co273 N282 2.022 . S
Co273 N290 1.993 1_556 S
Co273 O298 1.941 . S
C274 O275 1.258 . S
C274 O276 1.263 . S
O275 Co272 1.970 . S
O275 C274 1.258 . S
O276 Co273 1.966 . S
O276 C274 1.263 . S
C277 O278 1.235 . S
C277 O304 1.289 . S
O278 C277 1.235 . S
C279 C281 1.400 . S
C279 N282 1.351 . S
C279 C284 1.501 . S
C280 C281 1.387 . S
C280 N283 1.341 . S
C281 C279 1.400 . S
C281 C280 1.387 . S
N282 Co273 2.022 . S
N282 C279 1.351 . S
N282 N283 1.365 . S
N283 C280 1.341 . S
N283 N282 1.365 . S
N283 H303 0.862 . S
C284 C279 1.501 . S
C284 H285 0.961 . S
C284 H286 0.961 . S
C284 H287 0.960 . S
H285 C284 0.961 . S
H286 C284 0.961 . S
H287 C284 0.960 . S
C288 N289 1.342 . S
C288 C292 1.401 . S
C288 C293 1.499 . S
N289 Co272 1.989 1_554 S
N289 C288 1.342 . S
N289 N290 1.388 . S
N290 Co273 1.993 1_554 S
N290 N289 1.388 . S
N290 C291 1.346 . S
C291 N290 1.346 . S
C291 C292 1.396 . S
C291 C301 1.510 . S
C292 C288 1.401 . S
C292 C291 1.396 . S
C293 C288 1.499 . S
C293 H294 0.959 . S
C293 H295 0.960 . S
C293 H296 0.961 . S
H294 C293 0.959 . S
H295 C293 0.960 . S
H296 C293 0.961 . S
O297 Co272 1.967 . S
O297 C305 1.258 . S
O298 Co273 1.941 . S
O298 C305 1.266 . S
H299 C301 0.959 . S
H300 C301 0.961 . S
C301 C291 1.510 . S
C301 H299 0.959 . S
C301 H300 0.961 . S
C301 H302 0.960 . S
H302 C301 0.960 . S
H303 N283 0.862 . S
O304 Co272 1.920 . S
O304 C277 1.289 . S
C305 O297 1.258 . S
C305 O298 1.266 . S
Co306 O309 1.970 . S
Co306 N323 1.989 . S
Co306 O331 1.967 . S
Co306 O338 1.920 . S
Co307 O310 1.966 . S
Co307 N316 2.022 . S
Co307 N324 1.993 . S
Co307 O332 1.941 . S
C308 O309 1.258 . S
C308 O310 1.263 . S
O309 Co306 1.970 . S
O309 C308 1.258 . S
O310 Co307 1.966 . S
O310 C308 1.263 . S
C311 O312 1.235 . S
C311 O338 1.289 . S
O312 C311 1.235 . S
C313 C315 1.400 . S
C313 N316 1.351 . S
C313 C318 1.501 . S
C314 C315 1.387 . S
C314 N317 1.341 . S
C315 C313 1.400 . S
C315 C314 1.387 . S
N316 Co307 2.022 . S
N316 C313 1.351 . S
N316 N317 1.365 . S
N317 C314 1.341 . S
N317 N316 1.365 . S
N317 H337 0.862 . S
C318 C313 1.501 . S
C318 H319 0.961 . S
C318 H320 0.961 . S
C318 H321 0.960 . S
H319 C318 0.961 . S
H320 C318 0.961 . S
H321 C318 0.960 . S
C322 N323 1.342 . S
C322 C326 1.401 . S
C322 C327 1.499 . S
N323 Co306 1.989 . S
N323 C322 1.342 . S
N323 N324 1.388 . S
N324 Co307 1.993 . S
N324 N323 1.388 . S
N324 C325 1.346 . S
C325 N324 1.346 . S
C325 C326 1.396 . S
C325 C335 1.510 . S
C326 C322 1.401 . S
C326 C325 1.396 . S
C327 C322 1.499 . S
C327 H328 0.959 . S
C327 H329 0.960 . S
C327 H330 0.961 . S
H328 C327 0.959 . S
H329 C327 0.960 . S
H330 C327 0.961 . S
O331 Co306 1.967 . S
O331 C339 1.258 . S
O332 Co307 1.941 . S
O332 C339 1.266 . S
H333 C335 0.959 . S
H334 C335 0.961 . S
C335 C325 1.510 . S
C335 H333 0.959 . S
C335 H334 0.961 . S
C335 H336 0.960 . S
H336 C335 0.960 . S
H337 N317 0.862 . S
O338 Co306 1.920 . S
O338 C311 1.289 . S
C339 O331 1.258 . S
C339 O332 1.266 . S
Co340 O343 1.970 . S
Co340 N357 1.989 1_554 S
Co340 O365 1.967 . S
Co340 O372 1.920 . S
Co341 O344 1.966 . S
Co341 N350 2.022 . S
Co341 N358 1.993 1_554 S
Co341 O366 1.941 . S
C342 O343 1.258 . S
C342 O344 1.263 . S
O343 Co340 1.970 . S
O343 C342 1.258 . S
O344 Co341 1.966 . S
O344 C342 1.263 . S
C345 O346 1.235 . S
C345 O372 1.289 . S
O346 C345 1.235 . S
C347 C349 1.400 . S
C347 N350 1.351 . S
C347 C352 1.501 . S
C348 C349 1.387 . S
C348 N351 1.341 . S
C349 C347 1.400 . S
C349 C348 1.387 . S
N350 Co341 2.022 . S
N350 C347 1.351 . S
N350 N351 1.365 . S
N351 C348 1.341 . S
N351 N350 1.365 . S
N351 H371 0.862 . S
C352 C347 1.501 . S
C352 H353 0.961 . S
C352 H354 0.961 . S
C352 H355 0.960 . S
H353 C352 0.961 . S
H354 C352 0.961 . S
H355 C352 0.960 . S
C356 N357 1.342 . S
C356 C360 1.401 . S
C356 C361 1.499 . S
N357 Co340 1.989 1_556 S
N357 C356 1.342 . S
N357 N358 1.388 . S
N358 Co341 1.993 1_556 S
N358 N357 1.388 . S
N358 C359 1.346 . S
C359 N358 1.346 . S
C359 C360 1.396 . S
C359 C369 1.510 . S
C360 C356 1.401 . S
C360 C359 1.396 . S
C361 C356 1.499 . S
C361 H362 0.959 . S
C361 H363 0.960 . S
C361 H364 0.961 . S
H362 C361 0.959 . S
H363 C361 0.960 . S
H364 C361 0.961 . S
O365 Co340 1.967 . S
O365 C373 1.258 . S
O366 Co341 1.941 . S
O366 C373 1.266 . S
H367 C369 0.959 . S
H368 C369 0.961 . S
C369 C359 1.510 . S
C369 H367 0.959 . S
C369 H368 0.961 . S
C369 H370 0.960 . S
H370 C369 0.960 . S
H371 N351 0.862 . S
O372 Co340 1.920 . S
O372 C345 1.289 . S
C373 O365 1.258 . S
C373 O366 1.266 . S
Co374 O377 1.970 . S
Co374 N391 1.989 . S
Co374 O399 1.967 . S
Co374 O406 1.920 . S
Co375 O378 1.966 . S
Co375 N384 2.022 . S
Co375 N392 1.993 . S
Co375 O400 1.941 . S
C376 O377 1.258 . S
C376 O378 1.263 . S
O377 Co374 1.970 . S
O377 C376 1.258 . S
O378 Co375 1.966 . S
O378 C376 1.263 . S
C379 O380 1.235 . S
C379 O406 1.289 . S
O380 C379 1.235 . S
C381 C383 1.400 . S
C381 N384 1.351 . S
C381 C386 1.501 . S
C382 C383 1.387 . S
C382 N385 1.341 . S
C383 C381 1.400 . S
C383 C382 1.387 . S
N384 Co375 2.022 . S
N384 C381 1.351 . S
N384 N385 1.365 . S
N385 C382 1.341 . S
N385 N384 1.365 . S
N385 H405 0.862 . S
C386 C381 1.501 . S
C386 H387 0.961 . S
C386 H388 0.961 . S
C386 H389 0.960 . S
H387 C386 0.961 . S
H388 C386 0.961 . S
H389 C386 0.960 . S
C390 N391 1.342 . S
C390 C394 1.401 . S
C390 C395 1.499 . S
N391 Co374 1.989 . S
N391 C390 1.342 . S
N391 N392 1.388 . S
N392 Co375 1.993 . S
N392 N391 1.388 . S
N392 C393 1.346 . S
C393 N392 1.346 . S
C393 C394 1.396 . S
C393 C403 1.510 . S
C394 C390 1.401 . S
C394 C393 1.396 . S
C395 C390 1.499 . S
C395 H396 0.959 . S
C395 H397 0.960 . S
C395 H398 0.961 . S
H396 C395 0.959 . S
H397 C395 0.960 . S
H398 C395 0.961 . S
O399 Co374 1.967 . S
O399 C407 1.258 . S
O400 Co375 1.941 . S
O400 C407 1.266 . S
H401 C403 0.959 . S
H402 C403 0.961 . S
C403 C393 1.510 . S
C403 H401 0.959 . S
C403 H402 0.961 . S
C403 H404 0.960 . S
H404 C403 0.960 . S
H405 N385 0.862 . S
O406 Co374 1.920 . S
O406 C379 1.289 . S
C407 O399 1.258 . S
C407 O400 1.266 . S
Co408 O411 1.970 . S
Co408 N425 1.989 . S
Co408 O433 1.967 . S
Co408 O440 1.920 . S
Co409 O412 1.966 . S
Co409 N418 2.022 . S
Co409 N426 1.993 . S
Co409 O434 1.941 . S
C410 O411 1.258 . S
C410 O412 1.263 . S
O411 Co408 1.970 . S
O411 C410 1.258 . S
O412 Co409 1.966 . S
O412 C410 1.263 . S
C413 O414 1.235 . S
C413 O440 1.289 . S
O414 C413 1.235 . S
C415 C417 1.400 . S
C415 N418 1.351 . S
C415 C420 1.501 . S
C416 C417 1.387 . S
C416 N419 1.341 . S
C417 C415 1.400 . S
C417 C416 1.387 . S
N418 Co409 2.022 . S
N418 C415 1.351 . S
N418 N419 1.365 . S
N419 C416 1.341 . S
N419 N418 1.365 . S
N419 H439 0.862 . S
C420 C415 1.501 . S
C420 H421 0.961 . S
C420 H422 0.961 . S
C420 H423 0.960 . S
H421 C420 0.961 . S
H422 C420 0.961 . S
H423 C420 0.960 . S
C424 N425 1.342 . S
C424 C428 1.401 . S
C424 C429 1.499 . S
N425 Co408 1.989 . S
N425 C424 1.342 . S
N425 N426 1.388 . S
N426 Co409 1.993 . S
N426 N425 1.388 . S
N426 C427 1.346 . S
C427 N426 1.346 . S
C427 C428 1.396 . S
C427 C437 1.510 . S
C428 C424 1.401 . S
C428 C427 1.396 . S
C429 C424 1.499 . S
C429 H430 0.959 . S
C429 H431 0.960 . S
C429 H432 0.961 . S
H430 C429 0.959 . S
H431 C429 0.960 . S
H432 C429 0.961 . S
O433 Co408 1.967 . S
O433 C441 1.258 . S
O434 Co409 1.941 . S
O434 C441 1.266 . S
H435 C437 0.959 . S
H436 C437 0.961 . S
C437 C427 1.510 . S
C437 H435 0.959 . S
C437 H436 0.961 . S
C437 H438 0.960 . S
H438 C437 0.960 . S
H439 N419 0.862 . S
O440 Co408 1.920 . S
O440 C413 1.289 . S
C441 O433 1.258 . S
C441 O434 1.266 . S
Co442 O445 1.970 . S
Co442 N459 1.989 . S
Co442 O467 1.967 . S
Co442 O474 1.920 . S
Co443 O446 1.966 . S
Co443 N452 2.022 . S
Co443 N460 1.993 . S
Co443 O468 1.941 . S
C444 O445 1.258 . S
C444 O446 1.263 . S
O445 Co442 1.970 . S
O445 C444 1.258 . S
O446 Co443 1.966 . S
O446 C444 1.263 . S
C447 O448 1.235 . S
C447 O474 1.289 . S
O448 C447 1.235 . S
C449 C451 1.400 . S
C449 N452 1.351 . S
C449 C454 1.501 . S
C450 C451 1.387 . S
C450 N453 1.341 . S
C451 C449 1.400 . S
C451 C450 1.387 . S
N452 Co443 2.022 . S
N452 C449 1.351 . S
N452 N453 1.365 . S
N453 C450 1.341 . S
N453 N452 1.365 . S
N453 H473 0.862 . S
C454 C449 1.501 . S
C454 H455 0.961 . S
C454 H456 0.961 . S
C454 H457 0.960 . S
H455 C454 0.961 . S
H456 C454 0.961 . S
H457 C454 0.960 . S
C458 N459 1.342 . S
C458 C462 1.401 . S
C458 C463 1.499 . S
N459 Co442 1.989 . S
N459 C458 1.342 . S
N459 N460 1.388 . S
N460 Co443 1.993 . S
N460 N459 1.388 . S
N460 C461 1.346 . S
C461 N460 1.346 . S
C461 C462 1.396 . S
C461 C471 1.510 . S
C462 C458 1.401 . S
C462 C461 1.396 . S
C463 C458 1.499 . S
C463 H464 0.959 . S
C463 H465 0.960 . S
C463 H466 0.961 . S
H464 C463 0.959 . S
H465 C463 0.960 . S
H466 C463 0.961 . S
O467 Co442 1.967 . S
O467 C475 1.258 . S
O468 Co443 1.941 . S
O468 C475 1.266 . S
H469 C471 0.959 . S
H470 C471 0.961 . S
C471 C461 1.510 . S
C471 H469 0.959 . S
C471 H470 0.961 . S
C471 H472 0.960 . S
H472 C471 0.960 . S
H473 N453 0.862 . S
O474 Co442 1.920 . S
O474 C447 1.289 . S
C475 O467 1.258 . S
C475 O468 1.266 . S
Co476 O479 1.970 . S
Co476 N493 1.989 . S
Co476 O501 1.967 . S
Co476 O508 1.920 . S
Co477 O480 1.966 . S
Co477 N486 2.022 . S
Co477 N494 1.993 . S
Co477 O502 1.941 . S
C478 O479 1.258 . S
C478 O480 1.263 . S
O479 Co476 1.970 . S
O479 C478 1.258 . S
O480 Co477 1.966 . S
O480 C478 1.263 . S
C481 O482 1.235 . S
C481 O508 1.289 . S
O482 C481 1.235 . S
C483 C485 1.400 . S
C483 N486 1.351 . S
C483 C488 1.501 . S
C484 C485 1.387 . S
C484 N487 1.341 . S
C485 C483 1.400 . S
C485 C484 1.387 . S
N486 Co477 2.022 . S
N486 C483 1.351 . S
N486 N487 1.365 . S
N487 C484 1.341 . S
N487 N486 1.365 . S
N487 H507 0.862 . S
C488 C483 1.501 . S
C488 H489 0.961 . S
C488 H490 0.961 . S
C488 H491 0.960 . S
H489 C488 0.961 . S
H490 C488 0.961 . S
H491 C488 0.960 . S
C492 N493 1.342 . S
C492 C496 1.401 . S
C492 C497 1.499 . S
N493 Co476 1.989 . S
N493 C492 1.342 . S
N493 N494 1.388 . S
N494 Co477 1.993 . S
N494 N493 1.388 . S
N494 C495 1.346 . S
C495 N494 1.346 . S
C495 C496 1.396 . S
C495 C505 1.510 . S
C496 C492 1.401 . S
C496 C495 1.396 . S
C497 C492 1.499 . S
C497 H498 0.959 . S
C497 H499 0.960 . S
C497 H500 0.961 . S
H498 C497 0.959 . S
H499 C497 0.960 . S
H500 C497 0.961 . S
O501 Co476 1.967 . S
O501 C509 1.258 . S
O502 Co477 1.941 . S
O502 C509 1.266 . S
H503 C505 0.959 . S
H504 C505 0.961 . S
C505 C495 1.510 . S
C505 H503 0.959 . S
C505 H504 0.961 . S
C505 H506 0.960 . S
H506 C505 0.960 . S
H507 N487 0.862 . S
O508 Co476 1.920 . S
O508 C481 1.289 . S
C509 O501 1.258 . S
C509 O502 1.266 . S
Co510 O513 1.970 . S
Co510 N527 1.989 . S
Co510 O535 1.967 . S
Co510 O542 1.920 . S
Co511 O514 1.966 . S
Co511 N520 2.022 . S
Co511 N528 1.993 . S
Co511 O536 1.941 . S
C512 O513 1.258 . S
C512 O514 1.263 . S
O513 Co510 1.970 . S
O513 C512 1.258 . S
O514 Co511 1.966 . S
O514 C512 1.263 . S
C515 O516 1.235 . S
C515 O542 1.289 . S
O516 C515 1.235 . S
C517 C519 1.400 . S
C517 N520 1.351 . S
C517 C522 1.501 . S
C518 C519 1.387 . S
C518 N521 1.341 . S
C519 C517 1.400 . S
C519 C518 1.387 . S
N520 Co511 2.022 . S
N520 C517 1.351 . S
N520 N521 1.365 . S
N521 C518 1.341 . S
N521 N520 1.365 . S
N521 H541 0.862 . S
C522 C517 1.501 . S
C522 H523 0.961 . S
C522 H524 0.961 . S
C522 H525 0.960 . S
H523 C522 0.961 . S
H524 C522 0.961 . S
H525 C522 0.960 . S
C526 N527 1.342 . S
C526 C530 1.401 . S
C526 C531 1.499 . S
N527 Co510 1.989 . S
N527 C526 1.342 . S
N527 N528 1.388 . S
N528 Co511 1.993 . S
N528 N527 1.388 . S
N528 C529 1.346 . S
C529 N528 1.346 . S
C529 C530 1.396 . S
C529 C539 1.510 . S
C530 C526 1.401 . S
C530 C529 1.396 . S
C531 C526 1.499 . S
C531 H532 0.959 . S
C531 H533 0.960 . S
C531 H534 0.961 . S
H532 C531 0.959 . S
H533 C531 0.960 . S
H534 C531 0.961 . S
O535 Co510 1.967 . S
O535 C543 1.258 . S
O536 Co511 1.941 . S
O536 C543 1.266 . S
H537 C539 0.959 . S
H538 C539 0.961 . S
C539 C529 1.510 . S
C539 H537 0.959 . S
C539 H538 0.961 . S
C539 H540 0.960 . S
H540 C539 0.960 . S
H541 N521 0.862 . S
O542 Co510 1.920 . S
O542 C515 1.289 . S
C543 O535 1.258 . S
C543 O536 1.266 . S
C544 C545 1.387 . S
C544 H548 0.950 . S
C544 C553 1.390 . S
C545 C544 1.387 . S
C545 C547 1.387 . S
H546 C553 0.950 . S
C547 C545 1.387 . S
C547 C549 1.390 . S
C547 H551 0.950 . S
H548 C544 0.950 . S
C549 C547 1.390 . S
C549 C550 1.387 . S
C549 H552 0.950 . S
C550 C549 1.387 . S
C550 C553 1.387 . S
H551 C547 0.950 . S
H552 C549 0.950 . S
C553 C544 1.390 . S
C553 H546 0.950 . S
C553 C550 1.387 . S
C554 C555 1.387 1_455 S
C554 H558 0.950 . S
C554 C563 1.390 . S
C555 C554 1.387 1_655 S
C555 C557 1.387 1_565 S
H556 C563 0.950 . S
C557 C555 1.387 1_545 S
C557 C559 1.390 . S
C557 H561 0.950 . S
H558 C554 0.950 . S
C559 C557 1.390 . S
C559 C560 1.387 1_655 S
C559 H562 0.950 . S
C560 C559 1.387 1_455 S
C560 C563 1.387 1_545 S
H561 C557 0.950 . S
H562 C559 0.950 . S
C563 C554 1.390 . S
C563 H556 0.950 . S
C563 C560 1.387 1_565 S
C564 C565 1.387 . S
C564 H568 0.950 . S
C564 C573 1.390 1_545 S
C565 C564 1.387 . S
C565 C567 1.387 . S
H566 C573 0.950 . S
C567 C565 1.387 . S
C567 C569 1.390 1_545 S
C567 H571 0.950 . S
H568 C564 0.950 . S
C569 C567 1.390 1_565 S
C569 C570 1.387 . S
C569 H572 0.950 . S
C570 C569 1.387 . S
C570 C573 1.387 . S
H571 C567 0.950 . S
H572 C569 0.950 . S
C573 C564 1.390 1_565 S
C573 H566 0.950 . S
C573 C570 1.387 . S
C574 C575 1.387 . S
C574 H578 0.950 . S
C574 C583 1.390 . S
C575 C574 1.387 . S
C575 C577 1.387 1_455 S
H576 C583 0.950 . S
C577 C575 1.387 1_655 S
C577 C579 1.390 . S
C577 H581 0.950 . S
H578 C574 0.950 . S
C579 C577 1.390 . S
C579 C580 1.387 . S
C579 H582 0.950 . S
C580 C579 1.387 . S
C580 C583 1.387 1_655 S
H581 C577 0.950 . S
H582 C579 0.950 . S
C583 C574 1.390 . S
C583 H576 0.950 . S
C583 C580 1.387 1_455 S
C584 C585 1.387 . S
C584 H588 0.950 . S
C584 C593 1.390 . S
C585 C584 1.387 . S
C585 C587 1.387 . S
H586 C593 0.950 . S
C587 C585 1.387 . S
C587 C589 1.390 . S
C587 H591 0.950 . S
H588 C584 0.950 . S
C589 C587 1.390 . S
C589 C590 1.387 . S
C589 H592 0.950 . S
C590 C589 1.387 . S
C590 C593 1.387 . S
H591 C587 0.950 . S
H592 C589 0.950 . S
C593 C584 1.390 . S
C593 H586 0.950 . S
C593 C590 1.387 . S
C594 C595 1.387 . S
C594 H598 0.950 . S
C594 C603 1.390 1_565 S
C595 C594 1.387 . S
C595 C597 1.387 . S
H596 C603 0.950 . S
C597 C595 1.387 . S
C597 C599 1.390 1_565 S
C597 H601 0.950 . S
H598 C594 0.950 . S
C599 C597 1.390 1_545 S
C599 C600 1.387 . S
C599 H602 0.950 . S
C600 C599 1.387 . S
C600 C603 1.387 . S
H601 C597 0.950 . S
H602 C599 0.950 . S
C603 C594 1.390 1_545 S
C603 H596 0.950 . S
C603 C600 1.387 . S
C604 C605 1.387 1_655 S
C604 H608 0.950 . S
C604 C613 1.390 . S
C605 C604 1.387 1_455 S
C605 C607 1.387 . S
H606 C613 0.950 . S
C607 C605 1.387 . S
C607 C609 1.390 . S
C607 H611 0.950 . S
H608 C604 0.950 . S
C609 C607 1.390 . S
C609 C610 1.387 1_455 S
C609 H612 0.950 . S
C610 C609 1.387 1_655 S
C610 C613 1.387 . S
H611 C607 0.950 . S
H612 C609 0.950 . S
C613 C604 1.390 . S
C613 H606 0.950 . S
C613 C610 1.387 . S
C614 C615 1.387 . S
C614 H618 0.950 . S
C614 C623 1.390 . S
C615 C614 1.387 . S
C615 C617 1.387 1_554 S
H616 C623 0.950 . S
C617 C615 1.387 1_556 S
C617 C619 1.390 . S
C617 H621 0.950 . S
H618 C614 0.950 . S
C619 C617 1.390 . S
C619 C620 1.387 . S
C619 H622 0.950 . S
C620 C619 1.387 . S
C620 C623 1.387 1_556 S
H621 C617 0.950 . S
H622 C619 0.950 . S
C623 C614 1.390 . S
C623 H616 0.950 . S
C623 C620 1.387 1_554 S
C624 C625 1.391 1_556 S
C624 H628 0.950 . S
C624 C633 1.387 1_655 S
C625 C624 1.391 1_554 S
C625 C627 1.387 . S
H626 C633 0.950 . S
C627 C625 1.387 . S
C627 C629 1.387 1_655 S
C627 H631 0.950 . S
H628 C624 0.950 . S
C629 C627 1.387 1_455 S
C629 C630 1.391 1_554 S
C629 H632 0.950 . S
C630 C629 1.391 1_556 S
C630 C633 1.387 . S
H631 C627 0.950 . S
H632 C629 0.950 . S
C633 C624 1.387 1_455 S
C633 H626 0.950 . S
C633 C630 1.387 . S
C634 C635 1.387 . S
C634 H638 0.950 . S
C634 C643 1.390 . S
C635 C634 1.387 . S
C635 C637 1.387 . S
H636 C643 0.950 . S
C637 C635 1.387 . S
C637 C639 1.390 . S
C637 H641 0.950 . S
H638 C634 0.950 . S
C639 C637 1.390 . S
C639 C640 1.387 . S
C639 H642 0.950 . S
C640 C639 1.387 . S
C640 C643 1.387 . S
H641 C637 0.950 . S
H642 C639 0.950 . S
C643 C634 1.390 . S
C643 H636 0.950 . S
C643 C640 1.387 . S
C644 C645 1.387 . S
C644 H648 0.950 . S
C644 C653 1.390 . S
C645 C644 1.387 . S
C645 C647 1.387 1_556 S
H646 C653 0.950 . S
C647 C645 1.387 1_554 S
C647 C649 1.390 . S
C647 H651 0.950 . S
H648 C644 0.950 . S
C649 C647 1.390 . S
C649 C650 1.387 . S
C649 H652 0.950 . S
C650 C649 1.387 . S
C650 C653 1.387 1_554 S
H651 C647 0.950 . S
H652 C649 0.950 . S
C653 C644 1.390 . S
C653 H646 0.950 . S
C653 C650 1.387 1_556 S
C654 C655 1.387 . S
C654 H658 0.950 . S
C654 C663 1.390 . S
C655 C654 1.387 . S
C655 C657 1.387 . S
H656 C663 0.950 . S
C657 C655 1.387 . S
C657 C659 1.390 . S
C657 H661 0.950 . S
H658 C654 0.950 . S
C659 C657 1.390 . S
C659 C660 1.387 . S
C659 H662 0.950 . S
C660 C659 1.387 . S
C660 C663 1.387 . S
H661 C657 0.950 . S
H662 C659 0.950 . S
C663 C654 1.390 . S
C663 H656 0.950 . S
C663 C660 1.387 . S
C664 C665 1.387 1_554 S
C664 H668 0.950 . S
C664 C673 1.392 . S
C665 C664 1.387 1_556 S
C665 C667 1.385 1_545 S
H666 C673 0.950 . S
C667 C665 1.385 1_565 S
C667 C669 1.392 . S
C667 H671 0.950 . S
H668 C664 0.950 . S
C669 C667 1.392 . S
C669 C670 1.387 1_556 S
C669 H672 0.950 . S
C670 C669 1.387 1_554 S
C670 C673 1.385 1_565 S
H671 C667 0.950 . S
H672 C669 0.950 . S
C673 C664 1.392 . S
C673 H666 0.950 . S
C673 C670 1.385 1_545 S
C674 C675 1.387 . S
C674 H678 0.950 . S
C674 C683 1.390 . S
C675 C674 1.387 . S
C675 C677 1.387 . S
H676 C683 0.950 . S
C677 C675 1.387 . S
C677 C679 1.390 . S
C677 H681 0.950 . S
H678 C674 0.950 . S
C679 C677 1.390 . S
C679 C680 1.387 . S
C679 H682 0.950 . S
C680 C679 1.387 . S
C680 C683 1.387 . S
H681 C677 0.950 . S
H682 C679 0.950 . S
C683 C674 1.390 . S
C683 H676 0.950 . S
C683 C680 1.387 . S
C684 C685 1.387 . S
C684 H688 0.950 . S
C684 C693 1.390 . S
C685 C684 1.387 . S
C685 C687 1.387 . S
H686 C693 0.950 . S
C687 C685 1.387 . S
C687 C689 1.390 . S
C687 H691 0.950 . S
H688 C684 0.950 . S
C689 C687 1.390 . S
C689 C690 1.387 . S
C689 H692 0.950 . S
C690 C689 1.387 . S
C690 C693 1.387 . S
H691 C687 0.950 . S
H692 C689 0.950 . S
C693 C684 1.390 . S
C693 H686 0.950 . S
C693 C690 1.387 . S
C694 C695 1.387 . S
C694 H698 0.950 . S
C694 C703 1.390 . S
C695 C694 1.387 . S
C695 C697 1.387 . S
H696 C703 0.950 . S
C697 C695 1.387 . S
C697 C699 1.390 . S
C697 H701 0.950 . S
H698 C694 0.950 . S
C699 C697 1.390 . S
C699 C700 1.387 . S
C699 H702 0.950 . S
C700 C699 1.387 . S
C700 C703 1.387 . S
H701 C697 0.950 . S
H702 C699 0.950 . S
C703 C694 1.390 . S
C703 H696 0.950 . S
C703 C700 1.387 . S
C704 C705 1.387 . S
C704 H708 0.950 . S
C704 C713 1.390 . S
C705 C704 1.387 . S
C705 C707 1.387 . S
H706 C713 0.950 . S
C707 C705 1.387 . S
C707 C709 1.390 . S
C707 H711 0.950 . S
H708 C704 0.950 . S
C709 C707 1.390 . S
C709 C710 1.387 . S
C709 H712 0.950 . S
C710 C709 1.387 . S
C710 C713 1.387 . S
H711 C707 0.950 . S
H712 C709 0.950 . S
C713 C704 1.390 . S
C713 H706 0.950 . S
C713 C710 1.387 . S
C714 C715 1.387 . S
C714 H718 0.950 . S
C714 C723 1.390 . S
C715 C714 1.387 . S
C715 C717 1.387 . S
H716 C723 0.950 . S
C717 C715 1.387 . S
C717 C719 1.390 . S
C717 H721 0.950 . S
H718 C714 0.950 . S
C719 C717 1.390 . S
C719 C720 1.387 . S
C719 H722 0.950 . S
C720 C719 1.387 . S
C720 C723 1.387 . S
H721 C717 0.950 . S
H722 C719 0.950 . S
C723 C714 1.390 . S
C723 H716 0.950 . S
C723 C720 1.387 . S
C724 C725 1.387 . S
C724 H728 0.950 . S
C724 C733 1.390 . S
C725 C724 1.387 . S
C725 C727 1.387 . S
H726 C733 0.950 . S
C727 C725 1.387 . S
C727 C729 1.390 . S
C727 H731 0.950 . S
H728 C724 0.950 . S
C729 C727 1.390 . S
C729 C730 1.387 . S
C729 H732 0.950 . S
C730 C729 1.387 . S
C730 C733 1.387 . S
H731 C727 0.950 . S
H732 C729 0.950 . S
C733 C724 1.390 . S
C733 H726 0.950 . S
C733 C730 1.387 . S
C734 C735 1.387 . S
C734 H738 0.950 . S
C734 C743 1.390 . S
C735 C734 1.387 . S
C735 C737 1.387 . S
H736 C743 0.950 . S
C737 C735 1.387 . S
C737 C739 1.390 . S
C737 H741 0.950 . S
H738 C734 0.950 . S
C739 C737 1.390 . S
C739 C740 1.387 . S
C739 H742 0.950 . S
C740 C739 1.387 . S
C740 C743 1.387 . S
H741 C737 0.950 . S
H742 C739 0.950 . S
C743 C734 1.390 . S
C743 H736 0.950 . S
C743 C740 1.387 . S
C744 C745 1.387 . S
C744 H748 0.950 . S
C744 C753 1.390 . S
C745 C744 1.387 . S
C745 C747 1.387 . S
H746 C753 0.950 . S
C747 C745 1.387 . S
C747 C749 1.390 . S
C747 H751 0.950 . S
H748 C744 0.950 . S
C749 C747 1.390 . S
C749 C750 1.387 . S
C749 H752 0.950 . S
C750 C749 1.387 . S
C750 C753 1.387 . S
H751 C747 0.950 . S
H752 C749 0.950 . S
C753 C744 1.390 . S
C753 H746 0.950 . S
C753 C750 1.387 . S
C754 C755 1.387 . S
C754 H758 0.950 . S
C754 C763 1.390 . S
C755 C754 1.387 . S
C755 C757 1.387 . S
H756 C763 0.950 . S
C757 C755 1.387 . S
C757 C759 1.390 . S
C757 H761 0.950 . S
H758 C754 0.950 . S
C759 C757 1.390 . S
C759 C760 1.387 . S
C759 H762 0.950 . S
C760 C759 1.387 . S
C760 C763 1.387 . S
H761 C757 0.950 . S
H762 C759 0.950 . S
C763 C754 1.390 . S
C763 H756 0.950 . S
C763 C760 1.387 . S
C764 C765 1.387 . S
C764 H768 0.950 . S
C764 C773 1.390 . S
C765 C764 1.387 . S
C765 C767 1.387 . S
H766 C773 0.950 . S
C767 C765 1.387 . S
C767 C769 1.390 . S
C767 H771 0.950 . S
H768 C764 0.950 . S
C769 C767 1.390 . S
C769 C770 1.387 . S
C769 H772 0.950 . S
C770 C769 1.387 . S
C770 C773 1.387 . S
H771 C767 0.950 . S
H772 C769 0.950 . S
C773 C764 1.390 . S
C773 H766 0.950 . S
C773 C770 1.387 . S
C774 C775 1.387 . S
C774 H778 0.950 . S
C774 C783 1.390 . S
C775 C774 1.387 . S
C775 C777 1.387 . S
H776 C783 0.950 . S
C777 C775 1.387 . S
C777 C779 1.390 . S
C777 H781 0.950 . S
H778 C774 0.950 . S
C779 C777 1.390 . S
C779 C780 1.387 . S
C779 H782 0.950 . S
C780 C779 1.387 . S
C780 C783 1.387 . S
H781 C777 0.950 . S
H782 C779 0.950 . S
C783 C774 1.390 . S
C783 H776 0.950 . S
C783 C780 1.387 . S
C784 C785 1.387 . S
C784 H788 0.950 . S
C784 C793 1.390 . S
C785 C784 1.387 . S
C785 C787 1.387 . S
H786 C793 0.950 . S
C787 C785 1.387 . S
C787 C789 1.390 . S
C787 H791 0.950 . S
H788 C784 0.950 . S
C789 C787 1.390 . S
C789 C790 1.387 . S
C789 H792 0.950 . S
C790 C789 1.387 . S
C790 C793 1.387 . S
H791 C787 0.950 . S
H792 C789 0.950 . S
C793 C784 1.390 . S
C793 H786 0.950 . S
C793 C790 1.387 . S
C794 C795 1.387 . S
C794 H798 0.950 . S
C794 C803 1.390 . S
C795 C794 1.387 . S
C795 C797 1.387 . S
H796 C803 0.950 . S
C797 C795 1.387 . S
C797 C799 1.390 . S
C797 H801 0.950 . S
H798 C794 0.950 . S
C799 C797 1.390 . S
C799 C800 1.387 . S
C799 H802 0.950 . S
C800 C799 1.387 . S
C800 C803 1.387 . S
H801 C797 0.950 . S
H802 C799 0.950 . S
C803 C794 1.390 . S
C803 H796 0.950 . S
C803 C800 1.387 . S
C804 C805 1.387 . S
C804 H808 0.950 . S
C804 C813 1.390 . S
C805 C804 1.387 . S
C805 C807 1.387 . S
H806 C813 0.950 . S
C807 C805 1.387 . S
C807 C809 1.390 . S
C807 H811 0.950 . S
H808 C804 0.950 . S
C809 C807 1.390 . S
C809 C810 1.387 . S
C809 H812 0.950 . S
C810 C809 1.387 . S
C810 C813 1.387 . S
H811 C807 0.950 . S
H812 C809 0.950 . S
C813 C804 1.390 . S
C813 H806 0.950 . S
C813 C810 1.387 . S
C814 C815 1.387 . S
C814 H818 0.950 . S
C814 C823 1.390 . S
C815 C814 1.387 . S
C815 C817 1.387 . S
H816 C823 0.950 . S
C817 C815 1.387 . S
C817 C819 1.390 . S
C817 H821 0.950 . S
H818 C814 0.950 . S
C819 C817 1.390 . S
C819 C820 1.387 . S
C819 H822 0.950 . S
C820 C819 1.387 . S
C820 C823 1.387 . S
H821 C817 0.950 . S
H822 C819 0.950 . S
C823 C814 1.390 . S
C823 H816 0.950 . S
C823 C820 1.387 . S
C824 C825 1.387 . S
C824 H828 0.950 . S
C824 C833 1.390 . S
C825 C824 1.387 . S
C825 C827 1.387 . S
H826 C833 0.950 . S
C827 C825 1.387 . S
C827 C829 1.390 . S
C827 H831 0.950 . S
H828 C824 0.950 . S
C829 C827 1.390 . S
C829 C830 1.387 . S
C829 H832 0.950 . S
C830 C829 1.387 . S
C830 C833 1.387 . S
H831 C827 0.950 . S
H832 C829 0.950 . S
C833 C824 1.390 . S
C833 H826 0.950 . S
C833 C830 1.387 . S
C834 C835 1.387 . S
C834 H838 0.950 . S
C834 C843 1.390 . S
C835 C834 1.387 . S
C835 C837 1.387 . S
H836 C843 0.950 . S
C837 C835 1.387 . S
C837 C839 1.390 . S
C837 H841 0.950 . S
H838 C834 0.950 . S
C839 C837 1.390 . S
C839 C840 1.387 . S
C839 H842 0.950 . S
C840 C839 1.387 . S
C840 C843 1.387 . S
H841 C837 0.950 . S
H842 C839 0.950 . S
C843 C834 1.390 . S
C843 H836 0.950 . S
C843 C840 1.387 . S
C844 C845 1.387 . S
C844 H848 0.950 . S
C844 C853 1.390 . S
C845 C844 1.387 . S
C845 C847 1.387 . S
H846 C853 0.950 . S
C847 C845 1.387 . S
C847 C849 1.390 . S
C847 H851 0.950 . S
H848 C844 0.950 . S
C849 C847 1.390 . S
C849 C850 1.387 . S
C849 H852 0.950 . S
C850 C849 1.387 . S
C850 C853 1.387 . S
H851 C847 0.950 . S
H852 C849 0.950 . S
C853 C844 1.390 . S
C853 H846 0.950 . S
C853 C850 1.387 . S
C854 C855 1.387 . S
C854 H858 0.950 . S
C854 C863 1.390 . S
C855 C854 1.387 . S
C855 C857 1.387 . S
H856 C863 0.950 . S
C857 C855 1.387 . S
C857 C859 1.390 . S
C857 H861 0.950 . S
H858 C854 0.950 . S
C859 C857 1.390 . S
C859 C860 1.387 . S
C859 H862 0.950 . S
C860 C859 1.387 . S
C860 C863 1.387 . S
H861 C857 0.950 . S
H862 C859 0.950 . S
C863 C854 1.390 . S
C863 H856 0.950 . S
C863 C860 1.387 . S
C864 C865 1.387 . S
C864 H868 0.950 . S
C864 C873 1.390 . S
C865 C864 1.387 . S
C865 C867 1.387 . S
H866 C873 0.950 . S
C867 C865 1.387 . S
C867 C869 1.390 . S
C867 H871 0.950 . S
H868 C864 0.950 . S
C869 C867 1.390 . S
C869 C870 1.387 . S
C869 H872 0.950 . S
C870 C869 1.387 . S
C870 C873 1.387 . S
H871 C867 0.950 . S
H872 C869 0.950 . S
C873 C864 1.390 . S
C873 H866 0.950 . S
C873 C870 1.387 . S
C874 C875 1.387 . S
C874 H878 0.950 . S
C874 C883 1.390 . S
C875 C874 1.387 . S
C875 C877 1.387 . S
H876 C883 0.950 . S
C877 C875 1.387 . S
C877 C879 1.390 . S
C877 H881 0.950 . S
H878 C874 0.950 . S
C879 C877 1.390 . S
C879 C880 1.387 . S
C879 H882 0.950 . S
C880 C879 1.387 . S
C880 C883 1.387 . S
H881 C877 0.950 . S
H882 C879 0.950 . S
C883 C874 1.390 . S
C883 H876 0.950 . S
C883 C880 1.387 . S
C884 C885 1.387 . S
C884 H888 0.950 . S
C884 C893 1.390 . S
C885 C884 1.387 . S
C885 C887 1.387 . S
H886 C893 0.950 . S
C887 C885 1.387 . S
C887 C889 1.390 . S
C887 H891 0.950 . S
H888 C884 0.950 . S
C889 C887 1.390 . S
C889 C890 1.387 . S
C889 H892 0.950 . S
C890 C889 1.387 . S
C890 C893 1.387 . S
H891 C887 0.950 . S
H892 C889 0.950 . S
C893 C884 1.390 . S
C893 H886 0.950 . S
C893 C890 1.387 . S
C894 C895 1.387 . S
C894 H898 0.950 . S
C894 C903 1.390 . S
C895 C894 1.387 . S
C895 C897 1.387 . S
H896 C903 0.950 . S
C897 C895 1.387 . S
C897 C899 1.390 . S
C897 H901 0.950 . S
H898 C894 0.950 . S
C899 C897 1.390 . S
C899 C900 1.387 . S
C899 H902 0.950 . S
C900 C899 1.387 . S
C900 C903 1.387 . S
H901 C897 0.950 . S
H902 C899 0.950 . S
C903 C894 1.390 . S
C903 H896 0.950 . S
C903 C900 1.387 . S
C904 C905 1.387 . S
C904 H908 0.950 . S
C904 C913 1.390 . S
C905 C904 1.387 . S
C905 C907 1.387 . S
H906 C913 0.950 . S
C907 C905 1.387 . S
C907 C909 1.390 . S
C907 H911 0.950 . S
H908 C904 0.950 . S
C909 C907 1.390 . S
C909 C910 1.387 . S
C909 H912 0.950 . S
C910 C909 1.387 . S
C910 C913 1.387 . S
H911 C907 0.950 . S
H912 C909 0.950 . S
C913 C904 1.390 . S
C913 H906 0.950 . S
C913 C910 1.387 . S
C914 C915 1.387 . S
C914 H918 0.950 . S
C914 C923 1.390 . S
C915 C914 1.387 . S
C915 C917 1.387 . S
H916 C923 0.950 . S
C917 C915 1.387 . S
C917 C919 1.390 . S
C917 H921 0.950 . S
H918 C914 0.950 . S
C919 C917 1.390 . S
C919 C920 1.387 . S
C919 H922 0.950 . S
C920 C919 1.387 . S
C920 C923 1.387 . S
H921 C917 0.950 . S
H922 C919 0.950 . S
C923 C914 1.390 . S
C923 H916 0.950 . S
C923 C920 1.387 . S
C924 C925 1.387 . S
C924 H928 0.950 . S
C924 C933 1.390 . S
C925 C924 1.387 . S
C925 C927 1.387 . S
H926 C933 0.950 . S
C927 C925 1.387 . S
C927 C929 1.390 . S
C927 H931 0.950 . S
H928 C924 0.950 . S
C929 C927 1.390 . S
C929 C930 1.387 . S
C929 H932 0.950 . S
C930 C929 1.387 . S
C930 C933 1.387 . S
H931 C927 0.950 . S
H932 C929 0.950 . S
C933 C924 1.390 . S
C933 H926 0.950 . S
C933 C930 1.387 . S
C934 C935 1.387 . S
C934 H938 0.950 . S
C934 C943 1.390 . S
C935 C934 1.387 . S
C935 C937 1.387 . S
H936 C943 0.950 . S
C937 C935 1.387 . S
C937 C939 1.390 . S
C937 H941 0.950 . S
H938 C934 0.950 . S
C939 C937 1.390 . S
C939 C940 1.387 . S
C939 H942 0.950 . S
C940 C939 1.387 . S
C940 C943 1.387 . S
H941 C937 0.950 . S
H942 C939 0.950 . S
C943 C934 1.390 . S
C943 H936 0.950 . S
C943 C940 1.387 . S
C545 C9 1.459 . S
C550 C485 1.459 . S
C555 C73 1.928 . S
C560 C5 1.928 . S
C565 C39 1.927 . S
C570 C379 1.927 . S
C575 C247 1.459 1_455 S
C580 C43 1.459 1_655 S
C585 C77 1.458 . S
C590 C417 1.458 . S
C595 C107 1.927 . S
C600 C311 1.927 . S
C605 C111 1.456 1_455 S
C610 C179 1.456 1_655 S
C615 C349 1.457 . S
C620 C145 1.457 . S
C625 C209 1.928 . S
C630 C141 1.928 . S
C635 C175 1.928 . S
C640 C515 1.928 . S
C645 C281 1.459 . S
C650 C213 1.459 . S
C655 C447 1.929 . S
C660 C243 1.929 . S
C665 C277 1.929 . S
C670 C345 1.929 . S
C675 C519 1.459 . S
C680 C315 1.459 . S
C685 C383 1.456 . S
C690 C451 1.456 . S
C695 C413 1.927 . S
C700 C481 1.927 . S
C705 C2 1.410 . S
C710 C308 1.410 . S
C715 C339 1.397 . S
C720 C33 1.397 . S
C725 C67 1.394 . S
C730 C305 1.394 . S
C735 C36 1.410 . S
C740 C274 1.410 . S
C745 C376 1.410 . S
C750 C70 1.410 . S
C755 C407 1.397 . S
C760 C101 1.397 . S
C765 C135 1.397 . S
C770 C373 1.397 . S
C775 C104 1.409 . S
C780 C342 1.409 . S
C785 C138 1.409 . S
C790 C444 1.409 . S
C795 C475 1.394 . S
C800 C169 1.394 . S
C805 C203 1.397 . S
C810 C441 1.397 . S
C815 C410 1.409 . S
C820 C172 1.409 . S
C825 C512 1.410 . S
C830 C206 1.410 . S
C835 C237 1.394 . S
C840 C543 1.394 . S
C845 C271 1.394 . S
C850 C509 1.394 . S
C855 C240 1.410 . S
C860 C478 1.410 . S
C865 C54 1.225 . S
C870 C20 1.225 . S
C875 C88 1.222 . S
C880 C122 1.222 . S
C885 C156 1.225 . S
C890 C190 1.225 . S
C895 C224 1.222 . S
C900 C258 1.222 . S
C905 C326 1.222 . S
C910 C292 1.222 . S
C915 C394 1.225 . S
C920 C360 1.225 . S
C925 C428 1.222 . S
C930 C462 1.222 . S
C935 C530 1.225 . S
C940 C496 1.225 . S
