# Generated by pormake.
# Topology utp, (3)-cn, num edge types: 1
# Building blocks:
#     Node 0, Type 0, BuildingBlock: OLANEW_clean_sbu_2, # of connection points: 3
#     Node 1, Type 0, BuildingBlock: OLANEW_clean_sbu_2, # of connection points: 3
#     Node 2, Type 0, BuildingBlock: OLANEW_clean_sbu_2, # of connection points: 3
#     Node 3, Type 0, BuildingBlock: OLANEW_clean_sbu_2, # of connection points: 3
#     Node 4, Type 0, BuildingBlock: OLANEW_clean_sbu_2, # of connection points: 3
#     Node 5, Type 0, BuildingBlock: OLANEW_clean_sbu_2, # of connection points: 3
#     Node 6, Type 0, BuildingBlock: OLANEW_clean_sbu_2, # of connection points: 3
#     Node 7, Type 0, BuildingBlock: OLANEW_clean_sbu_2, # of connection points: 3
#     Edge 8, Type (0, 0), BuildingBlock: EZIPEK_clean_linker_0, # of connection points: 2
#     Edge 9, Type (0, 0), BuildingBlock: EZIPEK_clean_linker_0, # of connection points: 2
#     Edge 10, Type (0, 0), BuildingBlock: EZIPEK_clean_linker_0, # of connection points: 2
#     Edge 11, Type (0, 0), BuildingBlock: EZIPEK_clean_linker_0, # of connection points: 2
#     Edge 12, Type (0, 0), BuildingBlock: EZIPEK_clean_linker_0, # of connection points: 2
#     Edge 13, Type (0, 0), BuildingBlock: EZIPEK_clean_linker_0, # of connection points: 2
#     Edge 14, Type (0, 0), BuildingBlock: EZIPEK_clean_linker_0, # of connection points: 2
#     Edge 15, Type (0, 0), BuildingBlock: EZIPEK_clean_linker_0, # of connection points: 2
#     Edge 16, Type (0, 0), BuildingBlock: EZIPEK_clean_linker_0, # of connection points: 2
#     Edge 17, Type (0, 0), BuildingBlock: EZIPEK_clean_linker_0, # of connection points: 2
#     Edge 18, Type (0, 0), BuildingBlock: EZIPEK_clean_linker_0, # of connection points: 2
#     Edge 19, Type (0, 0), BuildingBlock: EZIPEK_clean_linker_0, # of connection points: 2
# Relax obj value: 0.000
# Max RMSD: 0.031
# Mean RMSD: 0.031
data_MOF--net-utp--node1-OLANEW_clean_sbu_2--edge1-EZIPEK_clean_linker_0
_symmetry_space_group_name_H-M    P1
_symmetry_Int_Tables_number       1
_symmetry_cell_setting            triclinic
loop_
_symmetry_equiv_pos_as_xyz
'x, y, z'
_cell_length_a     30.902046
_cell_length_b     35.898807
_cell_length_c     30.870048
_cell_angle_alpha  89.143271
_cell_angle_beta   90.070535
_cell_angle_gamma 90.437148
loop_
_atom_site_label
_atom_site_type_symbol
_atom_site_fract_x
_atom_site_fract_y
_atom_site_fract_z
_atom_type_partial_charge
O0 O 0.13692 0.04814 0.26159 0.0
Cd1 Cd 0.08189 0.08838 0.29287 0.0
O2 O 0.09969 0.04494 0.20102 0.0
Cd3 Cd 0.09052 0.0238 0.13547 0.0
O4 O 0.06944 0.00707 0.07087 0.0
C5 C 0.05376 0.97473 0.06486 0.0
O6 O 0.05162 0.95078 0.0974 0.0
C7 C 0.13242 0.03571 0.22353 0.0
C8 C 0.09054 0.164 0.2724 0.0
O9 O 0.10925 0.15004 0.30591 0.0
O10 O 0.06859 0.14223 0.24808 0.0
O11 O 0.2921 0.92568 0.1771 0.0
Cd12 Cd 0.34815 0.88326 0.15193 0.0
O13 O 0.26009 0.92996 0.11332 0.0
Cd14 Cd 0.31376 0.90487 0.07891 0.0
O15 O 0.3681 0.91187 0.03435 0.0
C16 C 0.36015 0.92534 -0.00311 0.0
O17 O 0.31992 0.93232 0.98582 0.0
C18 C 0.26127 0.93751 0.1534 0.0
C19 C 0.34942 0.81589 0.19842 0.0
O20 O 0.37172 0.84399 0.21094 0.0
O21 O 0.32625 0.81955 0.16418 0.0
O22 O 0.14835 0.43911 0.2447 0.0
Cd23 Cd 0.09387 0.3981 0.21227 0.0
O24 O 0.10922 0.44262 0.3038 0.0
Cd25 Cd 0.09522 0.46488 0.3678 0.0
O26 O 0.06403 0.48007 0.42852 0.0
C27 C 0.05445 0.51362 0.43654 0.0
O28 O 0.06522 0.54024 0.40887 0.0
C29 C 0.14253 0.45226 0.28222 0.0
C30 C 0.09724 0.32272 0.2351 0.0
O31 O 0.11838 0.33546 0.20232 0.0
O32 O 0.07566 0.34565 0.25787 0.0
O33 O 0.30276 0.5637 0.32009 0.0
Cd34 Cd 0.36171 0.60706 0.33741 0.0
O35 O 0.26757 0.5727 0.38109 0.0
Cd36 Cd 0.32237 0.60297 0.40854 0.0
O37 O 0.38549 0.60436 0.44044 0.0
C38 C 0.39815 0.57293 0.45483 0.0
O39 O 0.37347 0.54343 0.44918 0.0
C40 C 0.27004 0.55758 0.3442 0.0
C41 C 0.35608 0.67471 0.29204 0.0
O42 O 0.37674 0.6472 0.27633 0.0
O43 O 0.33775 0.67032 0.32901 0.0
O44 O 0.84545 0.90362 0.83846 0.0
Cd45 Cd 0.90943 0.86399 0.84013 0.0
O46 O 0.87633 0.94861 0.7998 0.0
Cd47 Cd 0.94004 0.92621 0.81502 0.0
O48 O -0.01679 0.92583 0.87109 0.0
C49 C 0.97395 0.95077 0.8983 0.0
O50 O 0.94179 0.97348 0.88987 0.0
C51 C 0.84291 0.93432 0.81755 0.0
C52 C 0.89641 0.7991 0.79323 0.0
O53 O 0.88831 0.79976 0.83391 0.0
O54 O 0.91061 0.82892 0.77465 0.0
O55 O 0.67513 0.04346 0.83728 0.0
Cd56 Cd 0.60663 0.07536 0.84878 0.0
O57 O 0.64602 0.98769 0.82859 0.0
Cd58 Cd 0.58068 0.00346 0.84709 0.0
O59 O 0.52286 -0.00592 0.88648 0.0
C60 C 0.50052 0.96477 0.8802 0.0
O61 O 0.51126 0.94242 0.84873 0.0
C62 C 0.67897 0.00904 0.82911 0.0
C63 C 0.60682 0.14596 0.80997 0.0
O64 O 0.59201 0.11765 0.78977 0.0
O65 O 0.6215 0.14113 0.84846 0.0
O66 O 0.79898 0.56636 0.65094 0.0
Cd67 Cd 0.8662 0.60227 0.6417 0.0
O68 O 0.83264 0.5182 0.68028 0.0
Cd69 Cd 0.89672 0.5411 0.66584 0.0
O70 O 0.94952 0.54639 0.61914 0.0
C71 C 0.94219 0.52946 0.58399 0.0
O72 O 0.9051 0.51188 0.57906 0.0
C73 C 0.79785 0.53398 0.66826 0.0
C74 C 0.873 0.66521 0.69313 0.0
O75 O 0.88461 0.63318 0.70767 0.0
O76 O 0.85738 0.66751 0.65472 0.0
O77 O 0.65622 0.40366 0.69045 0.0
Cd78 Cd 0.59539 0.35991 0.68446 0.0
O79 O 0.61082 0.44396 0.66271 0.0
Cd80 Cd 0.59102 0.49685 0.63323 0.0
O81 O 0.5474 0.53483 0.59309 0.0
C82 C 0.54959 0.5332 0.55184 0.0
O83 O 0.5459 0.53608 0.59382 0.0
C84 C 0.64863 0.43638 0.67627 0.0
C85 C 0.60363 0.29184 0.72784 0.0
O86 O 0.61922 0.29658 0.68969 0.0
O87 O 0.5852 0.31939 0.74601 0.0
C88 C 0.0537 0.2253 0.26016 0.0
C89 C 0.09261 0.20464 0.26304 0.0
C90 C 0.13479 0.26229 0.25253 0.0
C91 C 0.09586 0.28214 0.24505 0.0
N92 N 0.01863 0.28081 0.23269 0.0
N93 N 0.17014 0.20224 0.25444 0.0
C94 C 0.05537 0.26319 0.2464 0.0
C95 C 0.13322 0.22279 0.25722 0.0
N96 N 0.01523 0.20924 0.27229 0.0
N97 N 0.17306 0.28123 0.2568 0.0
H98 H 0.17025 0.17324 0.25699 0.0
H99 H 0.20002 0.21361 0.24562 0.0
H100 H 0.17541 0.31018 0.25434 0.0
H101 H 0.20169 0.2686 0.2668 0.0
H102 H -0.01332 0.22422 0.27531 0.0
H103 H 0.01257 0.1818 0.2836 0.0
H104 H -0.01086 0.26705 0.22857 0.0
H105 H 0.0184 0.30826 0.22117 0.0
C106 C 0.31221 0.76312 0.23844 0.0
C107 C 0.35098 0.77982 0.22258 0.0
C108 C 0.39316 0.72972 0.25666 0.0
C109 C 0.35419 0.71096 0.26835 0.0
N110 N 0.27636 0.7065 0.26333 0.0
N111 N 0.42772 0.77512 0.20915 0.0
C112 C 0.31358 0.72676 0.25736 0.0
C113 C 0.39134 0.76208 0.22967 0.0
N114 N 0.27432 0.78252 0.23707 0.0
N115 N 0.43189 0.71756 0.27275 0.0
H116 H 0.42771 0.79817 0.1882 0.0
H117 H 0.45699 0.76091 0.20949 0.0
H118 H 0.43465 0.69449 0.29348 0.0
H119 H 0.46073 0.73249 0.26906 0.0
H120 H 0.24607 0.77329 0.2523 0.0
H121 H 0.27208 0.80952 0.22436 0.0
H122 H 0.24635 0.71504 0.25162 0.0
H123 H 0.27599 0.67951 0.2763 0.0
C124 C 0.92708 0.74573 0.7521 0.0
C125 C 0.8903 0.76445 0.76832 0.0
C126 C 0.84201 0.71844 0.73461 0.0
C127 C 0.87884 0.69906 0.71958 0.0
N128 N 0.9563 0.69176 0.71606 0.0
N129 N 0.81313 0.76805 0.77863 0.0
C130 C 0.92136 0.71198 0.72901 0.0
C131 C 0.84783 0.75057 0.76066 0.0
N132 N 0.9675 0.76058 0.75837 0.0
N133 N 0.80147 0.70625 0.72353 0.0
H134 H 0.81582 0.79288 0.79557 0.0
H135 H 0.78176 0.75737 0.77873 0.0
H136 H 0.79582 0.68155 0.70702 0.0
H137 H 0.77327 0.72113 0.72884 0.0
H138 H -0.00469 0.75128 0.74313 0.0
H139 H 0.97336 0.7837 0.77762 0.0
H140 H -0.0121 0.69673 0.72621 0.0
H141 H 0.95378 0.66849 0.69638 0.0
C142 C 0.64476 0.2393 0.7627 0.0
C143 C 0.60469 0.25477 0.74945 0.0
C144 C 0.56598 0.20048 0.7797 0.0
C145 C 0.60622 0.18355 0.78952 0.0
N146 N 0.68414 0.18399 0.78485 0.0
N147 N 0.52773 0.24781 0.73845 0.0
C148 C 0.64574 0.20222 0.77963 0.0
C149 C 0.56541 0.23477 0.75613 0.0
N150 N 0.68167 0.26049 0.76036 0.0
N151 N 0.52833 0.18447 0.79429 0.0
H152 H 0.52588 0.27277 0.72085 0.0
H153 H 0.49906 0.2324 0.73793 0.0
H154 H 0.52737 0.15944 0.81187 0.0
H155 H 0.49841 0.19756 0.7924 0.0
H156 H 0.71107 0.25234 0.77385 0.0
H157 H 0.68215 0.2877 0.74799 0.0
H158 H 0.71366 0.19454 0.77379 0.0
H159 H 0.68616 0.15681 0.79708 0.0
C160 C 0.19895 0.94886 0.20359 0.0
C161 C 0.22828 0.96256 0.17165 0.0
C162 C 0.19596 0.02479 0.17543 0.0
C163 C 0.16522 0.01052 0.20553 0.0
N164 N 0.13312 0.95879 0.24466 0.0
N165 N 0.25381 0.01253 0.12471 0.0
C166 C 0.16564 0.97251 0.21881 0.0
C167 C 0.22637 0.00022 0.15672 0.0
N168 N 0.20301 0.91324 0.21938 0.0
N169 N 0.19712 0.0622 0.16619 0.0
H170 H 0.27929 -0.00324 0.11294 0.0
H171 H 0.25039 0.03783 0.10824 0.0
H172 H 0.17495 0.08092 0.17881 0.0
H173 H 0.22156 0.07536 0.14844 0.0
H174 H 0.18629 0.9029 0.24627 0.0
H175 H 0.22499 0.89426 0.20702 0.0
H176 H 0.12855 0.93063 0.25184 0.0
H177 H 0.10848 0.9754 0.25675 0.0
C178 C 0.20946 0.54093 0.29366 0.0
C179 C 0.23569 0.53144 0.32991 0.0
C180 C 0.2008 0.46976 0.33496 0.0
C181 C 0.17358 0.47982 0.29974 0.0
N182 N 0.14605 0.52656 0.25034 0.0
N183 N 0.25372 0.4889 0.38847 0.0
C184 C 0.17633 0.51585 0.28032 0.0
C185 C 0.23032 0.49655 0.35179 0.0
N186 N 0.21641 0.57389 0.27185 0.0
N187 N 0.1999 0.43397 0.35085 0.0
H188 H 0.27811 0.50633 0.40005 0.0
H189 H 0.24751 0.46623 0.40899 0.0
H190 H 0.1785 0.41369 0.33958 0.0
H191 H 0.22221 0.42339 0.37301 0.0
H192 H 0.2024 0.58043 0.24205 0.0
H193 H 0.23811 0.59422 0.28241 0.0
H194 H 0.14321 0.55365 0.23826 0.0
H195 H 0.12117 0.50903 0.23996 0.0
C196 C 0.74935 0.98951 0.86191 0.0
C197 C 0.72245 -0.00735 0.82476 0.0
C198 C 0.77467 0.95732 0.78225 0.0
C199 C 0.80231 0.95569 0.81892 0.0
N200 N 0.82057 0.97614 0.89079 0.0
N201 N 0.7117 0.98533 0.74806 0.0
C202 C 0.79102 0.97361 0.8579 0.0
C203 C 0.73577 0.97822 0.7844 0.0
N204 N 0.73425 -0.0 0.90152 0.0
N205 N 0.78497 0.93788 0.74599 0.0
H206 H 0.68306 0.00053 0.74869 0.0
H207 H 0.72165 0.97884 0.71689 0.0
H208 H 0.81363 0.92293 0.74315 0.0
H209 H 0.76405 0.93448 0.71987 0.0
H210 H 0.75022 -0.0058 0.93054 0.0
H211 H 0.70395 0.01191 0.90605 0.0
H212 H 0.81614 -0.00749 0.91797 0.0
H213 H 0.8513 0.96441 0.88935 0.0
C214 C 0.69968 0.47717 0.63328 0.0
C215 C 0.68391 0.46461 0.67422 0.0
C216 C 0.73817 0.50337 0.711 0.0
C217 C 0.75667 0.51266 0.67023 0.0
N218 N 0.75867 0.50558 0.59264 0.0
N219 N 0.68811 0.46437 0.75227 0.0
C220 C 0.73807 0.49924 0.63132 0.0
C221 C 0.70315 0.47738 0.71318 0.0
N222 N 0.67835 0.46763 0.59616 0.0
N223 N 0.75338 0.52035 0.74742 0.0
H224 H 0.66058 0.44756 0.75536 0.0
H225 H 0.70386 0.46875 0.78159 0.0
H226 H 0.77885 0.5396 0.74671 0.0
H227 H 0.73883 0.51783 0.77771 0.0
H228 H 0.68471 0.47987 0.56603 0.0
H229 H 0.65221 0.44915 0.59557 0.0
H230 H 0.74995 0.49273 0.56389 0.0
H231 H 0.7868 0.52162 0.58956 0.0
C232 C 0.04079 0.96152 0.94338 0.0
C233 C -0.00395 0.9526 0.94083 0.0
C234 C -0.01084 0.95844 0.01949 0.0
C235 C 0.03432 0.96545 0.02243 0.0
N236 N 0.10469 0.96638 0.98881 0.0
N237 N 0.93009 0.93362 0.97684 0.0
C238 C 0.06066 0.96479 0.98481 0.0
C239 C 0.97098 0.94832 0.97906 0.0
N240 N 0.06384 0.96861 0.90636 0.0
N241 N 0.96317 0.96333 0.05475 0.0
H242 H 0.91597 0.92515 0.94785 0.0
H243 H 0.9119 0.92629 0.00409 0.0
H244 H 0.97493 0.97131 0.08492 0.0
H245 H 0.9295 0.96281 0.05315 0.0
H246 H 0.09521 0.97942 0.90627 0.0
H247 H 0.05054 0.96637 0.87545 0.0
H248 H 0.12582 0.96212 0.96313 0.0
H249 H 0.12028 0.96867 0.01866 0.0
C250 C 0.39938 0.97215 0.94972 0.0
C251 C 0.39605 0.93532 0.96694 0.0
C252 C 0.46406 0.91933 0.93129 0.0
C253 C 0.46443 0.95463 0.90986 0.0
N254 N 0.42756 0.01197 0.89228 0.0
N255 N 0.42079 0.87167 0.96719 0.0
C256 C 0.4307 0.98034 0.91726 0.0
C257 C 0.42716 0.90824 0.9558 0.0
N258 N 0.37409 -0.00018 0.96573 0.0
N259 N 0.4997 0.89703 0.93008 0.0
H260 H 0.39368 0.8622 0.98428 0.0
H261 H 0.44019 0.85027 0.95596 0.0
H262 H 0.52814 0.90462 0.91399 0.0
H263 H 0.50268 0.87281 0.94881 0.0
H264 H 0.37838 0.02784 0.95741 0.0
H265 H 0.35189 -0.00452 0.99075 0.0
H266 H 0.40103 0.02968 0.89334 0.0
H267 H 0.44924 0.01861 0.86743 0.0
C268 C 0.96036 0.54413 0.50684 0.0
C269 C 0.97379 0.53031 0.54792 0.0
C270 C 0.04393 0.51332 0.5171 0.0
C271 C 0.02787 0.52193 0.47508 0.0
N272 N 0.9684 0.54092 0.42909 0.0
N273 N 0.02682 0.49826 0.59195 0.0
C274 C -0.01443 0.53644 0.46967 0.0
C275 C 0.01539 0.51431 0.5532 0.0
N276 N 0.92392 0.56536 0.50352 0.0
N277 N 0.08668 0.50494 0.52257 0.0
H278 H 0.0069 0.49826 0.61918 0.0
H279 H 0.05462 0.48241 0.59623 0.0
H280 H 0.10849 0.50421 0.49681 0.0
H281 H 0.10135 0.50215 0.55282 0.0
H282 H 0.91487 0.57932 0.47515 0.0
H283 H 0.90513 0.57218 0.53028 0.0
H284 H 0.93602 0.54725 0.42349 0.0
H285 H -0.01467 0.53507 0.40084 0.0
C286 C 0.47083 0.54293 0.45805 0.0
C287 C 0.44111 0.56856 0.47561 0.0
C288 C 0.49202 0.58134 0.53449 0.0
C289 C 0.51651 0.54985 0.52248 0.0
N290 N 0.53125 0.50157 0.47115 0.0
N291 N 0.42211 0.61111 0.53238 0.0
C292 C 0.50694 0.53133 0.4833 0.0
C293 C 0.45153 0.5879 0.51406 0.0
N294 N 0.46503 0.53044 0.4168 0.0
N295 N 0.50839 0.60593 0.56369 0.0
H296 H 0.39189 0.61657 0.51878 0.0
H297 H 0.42639 0.62254 0.56294 0.0
H298 H 0.5397 0.60369 0.57607 0.0
H299 H 0.49339 0.63096 0.57101 0.0
H300 H 0.48767 0.51449 0.40057 0.0
H301 H 0.43947 0.53916 0.3971 0.0
H302 H 0.52253 0.48383 0.44618 0.0
H303 H 0.55925 0.4934 0.48754 0.0
loop_
_geom_bond_atom_site_label_1
_geom_bond_atom_site_label_2
_geom_bond_distance
_geom_bond_site_symmetry_2
_ccdc_geom_bond_type
O0 Cd1 2.300 . S
O0 C7 1.275 . S
Cd1 O0 2.300 . S
Cd1 O9 2.381 . S
Cd1 O10 2.378 . S
O2 Cd3 2.385 . S
O2 C7 1.255 . S
Cd3 O2 2.385 . S
Cd3 O4 2.317 . S
O4 Cd3 2.317 . S
O4 C5 1.232 . S
C5 O4 1.232 . S
C5 O6 1.218 . S
O6 C5 1.218 . S
C7 O0 1.275 . S
C7 O2 1.255 . S
C8 O9 1.258 . S
C8 O10 1.256 . S
O9 Cd1 2.381 . S
O9 C8 1.258 . S
O10 Cd1 2.378 . S
O10 C8 1.256 . S
O11 Cd12 2.300 . S
O11 C18 1.275 . S
Cd12 O11 2.300 . S
Cd12 O20 2.381 . S
Cd12 O21 2.378 . S
O13 Cd14 2.385 . S
O13 C18 1.255 . S
Cd14 O13 2.385 . S
Cd14 O15 2.317 . S
O15 Cd14 2.317 . S
O15 C16 1.232 . S
C16 O15 1.232 . S
C16 O17 1.218 . S
O17 C16 1.218 . S
C18 O11 1.275 . S
C18 O13 1.255 . S
C19 O20 1.258 . S
C19 O21 1.256 . S
O20 Cd12 2.381 . S
O20 C19 1.258 . S
O21 Cd12 2.378 . S
O21 C19 1.256 . S
O22 Cd23 2.300 . S
O22 C29 1.275 . S
Cd23 O22 2.300 . S
Cd23 O31 2.381 . S
Cd23 O32 2.378 . S
O24 Cd25 2.385 . S
O24 C29 1.255 . S
Cd25 O24 2.385 . S
Cd25 O26 2.317 . S
O26 Cd25 2.317 . S
O26 C27 1.232 . S
C27 O26 1.232 . S
C27 O28 1.218 . S
O28 C27 1.218 . S
C29 O22 1.275 . S
C29 O24 1.255 . S
C30 O31 1.258 . S
C30 O32 1.256 . S
O31 Cd23 2.381 . S
O31 C30 1.258 . S
O32 Cd23 2.378 . S
O32 C30 1.256 . S
O33 Cd34 2.300 . S
O33 C40 1.275 . S
Cd34 O33 2.300 . S
Cd34 O42 2.381 . S
Cd34 O43 2.378 . S
O35 Cd36 2.385 . S
O35 C40 1.255 . S
Cd36 O35 2.385 . S
Cd36 O37 2.317 . S
O37 Cd36 2.317 . S
O37 C38 1.232 . S
C38 O37 1.232 . S
C38 O39 1.218 . S
O39 C38 1.218 . S
C40 O33 1.275 . S
C40 O35 1.255 . S
C41 O42 1.258 . S
C41 O43 1.256 . S
O42 Cd34 2.381 . S
O42 C41 1.258 . S
O43 Cd34 2.378 . S
O43 C41 1.256 . S
O44 Cd45 2.300 . S
O44 C51 1.275 . S
Cd45 O44 2.300 . S
Cd45 O53 2.381 . S
Cd45 O54 2.378 . S
O46 Cd47 2.385 . S
O46 C51 1.255 . S
Cd47 O46 2.385 . S
Cd47 O48 2.317 . S
O48 Cd47 2.317 . S
O48 C49 1.232 . S
C49 O48 1.232 . S
C49 O50 1.218 1_565 S
O50 C49 1.218 1_545 S
C51 O44 1.275 . S
C51 O46 1.255 . S
C52 O53 1.258 . S
C52 O54 1.256 . S
O53 Cd45 2.381 . S
O53 C52 1.258 . S
O54 Cd45 2.378 . S
O54 C52 1.256 . S
O55 Cd56 2.300 . S
O55 C62 1.275 . S
Cd56 O55 2.300 . S
Cd56 O64 2.381 . S
Cd56 O65 2.378 . S
O57 Cd58 2.385 . S
O57 C62 1.255 . S
Cd58 O57 2.385 . S
Cd58 O59 2.317 . S
O59 Cd58 2.317 . S
O59 C60 1.232 . S
C60 O59 1.232 . S
C60 O61 1.218 1_545 S
O61 C60 1.218 1_565 S
C62 O55 1.275 . S
C62 O57 1.255 . S
C63 O64 1.258 . S
C63 O65 1.256 . S
O64 Cd56 2.381 . S
O64 C63 1.258 . S
O65 Cd56 2.378 . S
O65 C63 1.256 . S
O66 Cd67 2.300 . S
O66 C73 1.275 . S
Cd67 O66 2.300 . S
Cd67 O75 2.381 . S
Cd67 O76 2.378 . S
O68 Cd69 2.385 . S
O68 C73 1.255 . S
Cd69 O68 2.385 . S
Cd69 O70 2.317 . S
O70 Cd69 2.317 . S
O70 C71 1.232 . S
C71 O70 1.232 . S
C71 O72 1.218 . S
O72 C71 1.218 . S
C73 O66 1.275 . S
C73 O68 1.255 . S
C74 O75 1.258 . S
C74 O76 1.256 . S
O75 Cd67 2.381 . S
O75 C74 1.258 . S
O76 Cd67 2.378 . S
O76 C74 1.256 . S
O77 Cd78 2.300 . S
O77 C84 1.275 . S
Cd78 O77 2.300 . S
Cd78 O86 2.381 . S
Cd78 O87 2.378 . S
O79 Cd80 2.385 . S
O79 C84 1.255 . S
Cd80 O79 2.385 . S
Cd80 O81 2.317 . S
O81 Cd80 2.317 . S
O81 C82 1.232 . S
C82 O81 1.232 . S
C82 O83 1.218 . S
O83 C82 1.218 . S
C84 O77 1.275 . S
C84 O79 1.255 . S
C85 O86 1.258 . S
C85 O87 1.256 . S
O86 Cd78 2.381 . S
O86 C85 1.258 . S
O87 Cd78 2.378 . S
O87 C85 1.256 . S
C88 C89 1.363 . S
C88 C94 1.379 . S
C88 N96 1.356 . S
C89 C88 1.363 . S
C89 C95 1.363 . S
C90 C91 1.363 . S
C90 C95 1.379 . S
C90 N97 1.356 . S
C91 C90 1.363 . S
C91 C94 1.363 . S
N92 C94 1.356 . S
N92 H104 0.984 . S
N92 H105 0.985 . S
N93 C95 1.356 . S
N93 H98 0.984 . S
N93 H99 0.985 . S
C94 C88 1.379 . S
C94 C91 1.363 . S
C94 N92 1.356 . S
C95 C89 1.363 . S
C95 C90 1.379 . S
C95 N93 1.356 . S
N96 C88 1.356 . S
N96 H102 0.984 . S
N96 H103 0.984 . S
N97 C90 1.356 . S
N97 H100 0.984 . S
N97 H101 0.985 . S
H98 N93 0.984 . S
H99 N93 0.985 . S
H100 N97 0.984 . S
H101 N97 0.985 . S
H102 N96 0.984 . S
H103 N96 0.984 . S
H104 N92 0.984 . S
H105 N92 0.985 . S
C106 C107 1.363 . S
C106 C112 1.379 . S
C106 N114 1.356 . S
C107 C106 1.363 . S
C107 C113 1.363 . S
C108 C109 1.363 . S
C108 C113 1.379 . S
C108 N115 1.356 . S
C109 C108 1.363 . S
C109 C112 1.363 . S
N110 C112 1.356 . S
N110 H122 0.984 . S
N110 H123 0.985 . S
N111 C113 1.356 . S
N111 H116 0.984 . S
N111 H117 0.985 . S
C112 C106 1.379 . S
C112 C109 1.363 . S
C112 N110 1.356 . S
C113 C107 1.363 . S
C113 C108 1.379 . S
C113 N111 1.356 . S
N114 C106 1.356 . S
N114 H120 0.984 . S
N114 H121 0.984 . S
N115 C108 1.356 . S
N115 H118 0.984 . S
N115 H119 0.985 . S
H116 N111 0.984 . S
H117 N111 0.985 . S
H118 N115 0.984 . S
H119 N115 0.985 . S
H120 N114 0.984 . S
H121 N114 0.984 . S
H122 N110 0.984 . S
H123 N110 0.985 . S
C124 C125 1.363 . S
C124 C130 1.379 . S
C124 N132 1.356 . S
C125 C124 1.363 . S
C125 C131 1.363 . S
C126 C127 1.363 . S
C126 C131 1.379 . S
C126 N133 1.356 . S
C127 C126 1.363 . S
C127 C130 1.363 . S
N128 C130 1.356 . S
N128 H140 0.984 . S
N128 H141 0.985 . S
N129 C131 1.356 . S
N129 H134 0.984 . S
N129 H135 0.985 . S
C130 C124 1.379 . S
C130 C127 1.363 . S
C130 N128 1.356 . S
C131 C125 1.363 . S
C131 C126 1.379 . S
C131 N129 1.356 . S
N132 C124 1.356 . S
N132 H138 0.984 . S
N132 H139 0.984 . S
N133 C126 1.356 . S
N133 H136 0.984 . S
N133 H137 0.985 . S
H134 N129 0.984 . S
H135 N129 0.985 . S
H136 N133 0.984 . S
H137 N133 0.985 . S
H138 N132 0.984 . S
H139 N132 0.984 . S
H140 N128 0.984 . S
H141 N128 0.985 . S
C142 C143 1.363 . S
C142 C148 1.379 . S
C142 N150 1.356 . S
C143 C142 1.363 . S
C143 C149 1.363 . S
C144 C145 1.363 . S
C144 C149 1.379 . S
C144 N151 1.356 . S
C145 C144 1.363 . S
C145 C148 1.363 . S
N146 C148 1.356 . S
N146 H158 0.984 . S
N146 H159 0.985 . S
N147 C149 1.356 . S
N147 H152 0.984 . S
N147 H153 0.985 . S
C148 C142 1.379 . S
C148 C145 1.363 . S
C148 N146 1.356 . S
C149 C143 1.363 . S
C149 C144 1.379 . S
C149 N147 1.356 . S
N150 C142 1.356 . S
N150 H156 0.984 . S
N150 H157 0.984 . S
N151 C144 1.356 . S
N151 H154 0.984 . S
N151 H155 0.985 . S
H152 N147 0.984 . S
H153 N147 0.985 . S
H154 N151 0.984 . S
H155 N151 0.985 . S
H156 N150 0.984 . S
H157 N150 0.984 . S
H158 N146 0.984 . S
H159 N146 0.985 . S
C160 C161 1.363 . S
C160 C166 1.379 . S
C160 N168 1.356 . S
C161 C160 1.363 . S
C161 C167 1.363 1_565 S
C162 C163 1.363 . S
C162 C167 1.379 . S
C162 N169 1.356 . S
C163 C162 1.363 . S
C163 C166 1.363 1_545 S
N164 C166 1.356 1_545 S
N164 H176 0.984 1_545 S
N164 H177 0.985 . S
N165 C167 1.356 1_565 S
N165 H170 0.984 . S
N165 H171 0.985 1_565 S
C166 C160 1.379 . S
C166 C163 1.363 1_565 S
C166 N164 1.356 1_565 S
C167 C161 1.363 1_545 S
C167 C162 1.379 . S
C167 N165 1.356 1_545 S
N168 C160 1.356 . S
N168 H174 0.984 . S
N168 H175 0.984 . S
N169 C162 1.356 . S
N169 H172 0.984 . S
N169 H173 0.985 . S
H170 N165 0.984 . S
H171 N165 0.985 1_545 S
H172 N169 0.984 . S
H173 N169 0.985 . S
H174 N168 0.984 . S
H175 N168 0.984 . S
H176 N164 0.984 1_565 S
H177 N164 0.985 . S
C178 C179 1.363 . S
C178 C184 1.379 . S
C178 N186 1.356 . S
C179 C178 1.363 . S
C179 C185 1.363 . S
C180 C181 1.363 . S
C180 C185 1.379 . S
C180 N187 1.356 . S
C181 C180 1.363 . S
C181 C184 1.363 . S
N182 C184 1.356 . S
N182 H194 0.984 . S
N182 H195 0.985 . S
N183 C185 1.356 . S
N183 H188 0.984 . S
N183 H189 0.985 . S
C184 C178 1.379 . S
C184 C181 1.363 . S
C184 N182 1.356 . S
C185 C179 1.363 . S
C185 C180 1.379 . S
C185 N183 1.356 . S
N186 C178 1.356 . S
N186 H192 0.984 . S
N186 H193 0.984 . S
N187 C180 1.356 . S
N187 H190 0.984 . S
N187 H191 0.985 . S
H188 N183 0.984 . S
H189 N183 0.985 . S
H190 N187 0.984 . S
H191 N187 0.985 . S
H192 N186 0.984 . S
H193 N186 0.984 . S
H194 N182 0.984 . S
H195 N182 0.985 . S
C196 C197 1.363 . S
C196 C202 1.379 . S
C196 N204 1.356 . S
C197 C196 1.363 . S
C197 C203 1.363 1_545 S
C198 C199 1.363 . S
C198 C203 1.379 . S
C198 N205 1.356 . S
C199 C198 1.363 . S
C199 C202 1.363 1_565 S
N200 C202 1.356 1_565 S
N200 H212 0.984 1_565 S
N200 H213 0.985 . S
N201 C203 1.356 1_545 S
N201 H206 0.984 . S
N201 H207 0.985 1_545 S
C202 C196 1.379 . S
C202 C199 1.363 1_545 S
C202 N200 1.356 1_545 S
C203 C197 1.363 1_565 S
C203 C198 1.379 . S
C203 N201 1.356 1_565 S
N204 C196 1.356 . S
N204 H210 0.984 . S
N204 H211 0.984 . S
N205 C198 1.356 . S
N205 H208 0.984 . S
N205 H209 0.985 . S
H206 N201 0.984 . S
H207 N201 0.985 1_565 S
H208 N205 0.984 . S
H209 N205 0.985 . S
H210 N204 0.984 . S
H211 N204 0.984 . S
H212 N200 0.984 1_545 S
H213 N200 0.985 . S
C214 C215 1.363 . S
C214 C220 1.379 . S
C214 N222 1.356 . S
C215 C214 1.363 . S
C215 C221 1.363 . S
C216 C217 1.363 . S
C216 C221 1.379 . S
C216 N223 1.356 . S
C217 C216 1.363 . S
C217 C220 1.363 . S
N218 C220 1.356 . S
N218 H230 0.984 . S
N218 H231 0.985 . S
N219 C221 1.356 . S
N219 H224 0.984 . S
N219 H225 0.985 . S
C220 C214 1.379 . S
C220 C217 1.363 . S
C220 N218 1.356 . S
C221 C215 1.363 . S
C221 C216 1.379 . S
C221 N219 1.356 . S
N222 C214 1.356 . S
N222 H228 0.984 . S
N222 H229 0.984 . S
N223 C216 1.356 . S
N223 H226 0.984 . S
N223 H227 0.985 . S
H224 N219 0.984 . S
H225 N219 0.985 . S
H226 N223 0.984 . S
H227 N223 0.985 . S
H228 N222 0.984 . S
H229 N222 0.984 . S
H230 N218 0.984 . S
H231 N218 0.985 . S
C232 C233 1.363 1_455 S
C232 C238 1.379 1_565 S
C232 N240 1.356 . S
C233 C232 1.363 1_655 S
C233 C239 1.363 1_556 S
C234 C235 1.363 1_655 S
C234 C239 1.379 1_545 S
C234 N241 1.356 . S
C235 C234 1.363 1_455 S
C235 C238 1.363 1_554 S
N236 C238 1.356 1_554 S
N236 H248 0.982 1_554 S
N236 H249 0.987 . S
N237 C239 1.356 1_556 S
N237 H242 0.987 . S
N237 H243 0.982 1_556 S
C238 C232 1.379 1_545 S
C238 C235 1.363 1_556 S
C238 N236 1.356 1_556 S
C239 C233 1.363 1_554 S
C239 C234 1.379 1_565 S
C239 N237 1.356 1_554 S
N240 C232 1.356 . S
N240 H246 0.984 . S
N240 H247 0.992 . S
N241 C234 1.356 . S
N241 H244 0.992 . S
N241 H245 0.985 . S
H242 N237 0.987 . S
H243 N237 0.982 1_554 S
H244 N241 0.992 . S
H245 N241 0.985 . S
H246 N240 0.984 . S
H247 N240 0.992 . S
H248 N236 0.982 1_556 S
H249 N236 0.987 . S
C250 C251 1.363 1_545 S
C250 C256 1.379 1_554 S
C250 N258 1.356 . S
C251 C250 1.363 1_565 S
C251 C257 1.363 . S
C252 C253 1.363 1_565 S
C252 C257 1.379 1_556 S
C252 N259 1.356 . S
C253 C252 1.363 1_545 S
C253 C256 1.363 . S
N254 C256 1.356 . S
N254 H266 0.984 . S
N254 H267 0.985 . S
N255 C257 1.356 . S
N255 H260 0.984 . S
N255 H261 0.985 . S
C256 C250 1.379 1_556 S
C256 C253 1.363 . S
C256 N254 1.356 . S
C257 C251 1.363 . S
C257 C252 1.379 1_554 S
C257 N255 1.356 . S
N258 C250 1.356 . S
N258 H264 0.984 . S
N258 H265 0.984 . S
N259 C252 1.356 . S
N259 H262 0.984 . S
N259 H263 0.985 . S
H260 N255 0.984 . S
H261 N255 0.985 . S
H262 N259 0.984 . S
H263 N259 0.985 . S
H264 N258 0.984 . S
H265 N258 0.984 . S
H266 N254 0.984 . S
H267 N254 0.985 . S
C268 C269 1.363 . S
C268 C274 1.379 . S
C268 N276 1.356 . S
C269 C268 1.363 . S
C269 C275 1.363 1_655 S
C270 C271 1.363 . S
C270 C275 1.379 . S
C270 N277 1.356 . S
C271 C270 1.363 . S
C271 C274 1.363 1_455 S
N272 C274 1.356 . S
N272 H284 0.984 . S
N272 H285 0.985 1_655 S
N273 C275 1.356 . S
N273 H278 0.984 1_455 S
N273 H279 0.985 . S
C274 C268 1.379 . S
C274 C271 1.363 1_655 S
C274 N272 1.356 . S
C275 C269 1.363 1_455 S
C275 C270 1.379 . S
C275 N273 1.356 . S
N276 C268 1.356 . S
N276 H282 0.984 . S
N276 H283 0.984 . S
N277 C270 1.356 . S
N277 H280 0.984 . S
N277 H281 0.985 . S
H278 N273 0.984 1_655 S
H279 N273 0.985 . S
H280 N277 0.984 . S
H281 N277 0.985 . S
H282 N276 0.984 . S
H283 N276 0.984 . S
H284 N272 0.984 . S
H285 N272 0.985 1_455 S
C286 C287 1.363 . S
C286 C292 1.379 . S
C286 N294 1.356 . S
C287 C286 1.363 . S
C287 C293 1.363 . S
C288 C289 1.363 . S
C288 C293 1.379 . S
C288 N295 1.356 . S
C289 C288 1.363 . S
C289 C292 1.363 . S
N290 C292 1.356 . S
N290 H302 0.984 . S
N290 H303 0.985 . S
N291 C293 1.356 . S
N291 H296 0.984 . S
N291 H297 0.985 . S
C292 C286 1.379 . S
C292 C289 1.363 . S
C292 N290 1.356 . S
C293 C287 1.363 . S
C293 C288 1.379 . S
C293 N291 1.356 . S
N294 C286 1.356 . S
N294 H300 0.984 . S
N294 H301 0.984 . S
N295 C288 1.356 . S
N295 H298 0.984 . S
N295 H299 0.985 . S
H296 N291 0.984 . S
H297 N291 0.985 . S
H298 N295 0.984 . S
H299 N295 0.985 . S
H300 N294 0.984 . S
H301 N294 0.984 . S
H302 N290 0.984 . S
H303 N290 0.985 . S
C89 C8 1.489 . S
C91 C30 1.489 . S
C107 C19 1.489 . S
C109 C41 1.489 . S
C125 C52 1.494 . S
C127 C74 1.494 . S
C143 C85 1.494 . S
C145 C63 1.494 . S
C161 C18 1.455 . S
C163 C7 1.455 . S
C179 C40 1.455 . S
C181 C29 1.455 . S
C197 C62 1.461 . S
C199 C51 1.461 . S
C215 C84 1.461 . S
C217 C73 1.461 . S
C233 C49 1.312 . S
C235 C5 1.286 . S
C251 C16 1.286 . S
C253 C60 1.312 . S
C269 C71 1.312 . S
C271 C27 1.286 . S
C287 C38 1.286 . S
C289 C82 1.312 . S
