# Generated by pormake.
# Topology lvt, (4)-cn, num edge types: 1
# Building blocks:
#     Node 0, Type 0, BuildingBlock: ESEHIV_clean_sbu_0, # of connection points: 4
#     Node 1, Type 0, BuildingBlock: ESEHIV_clean_sbu_0, # of connection points: 4
#     Node 2, Type 0, BuildingBlock: ESEHIV_clean_sbu_0, # of connection points: 4
#     Node 3, Type 0, BuildingBlock: ESEHIV_clean_sbu_0, # of connection points: 4
#     Node 4, Type 0, BuildingBlock: ESEHIV_clean_sbu_0, # of connection points: 4
#     Node 5, Type 0, BuildingBlock: ESEHIV_clean_sbu_0, # of connection points: 4
#     Node 6, Type 0, BuildingBlock: ESEHIV_clean_sbu_0, # of connection points: 4
#     Node 7, Type 0, BuildingBlock: ESEHIV_clean_sbu_0, # of connection points: 4
#     Edge 8, Type (0, 0), BuildingBlock: CIFDUS_clean_linker_0, # of connection points: 2
#     Edge 9, Type (0, 0), BuildingBlock: CIFDUS_clean_linker_0, # of connection points: 2
#     Edge 10, Type (0, 0), BuildingBlock: CIFDUS_clean_linker_0, # of connection points: 2
#     Edge 11, Type (0, 0), BuildingBlock: CIFDUS_clean_linker_0, # of connection points: 2
#     Edge 12, Type (0, 0), BuildingBlock: CIFDUS_clean_linker_0, # of connection points: 2
#     Edge 13, Type (0, 0), BuildingBlock: CIFDUS_clean_linker_0, # of connection points: 2
#     Edge 14, Type (0, 0), BuildingBlock: CIFDUS_clean_linker_0, # of connection points: 2
#     Edge 15, Type (0, 0), BuildingBlock: CIFDUS_clean_linker_0, # of connection points: 2
#     Edge 16, Type (0, 0), BuildingBlock: CIFDUS_clean_linker_0, # of connection points: 2
#     Edge 17, Type (0, 0), BuildingBlock: CIFDUS_clean_linker_0, # of connection points: 2
#     Edge 18, Type (0, 0), BuildingBlock: CIFDUS_clean_linker_0, # of connection points: 2
#     Edge 19, Type (0, 0), BuildingBlock: CIFDUS_clean_linker_0, # of connection points: 2
#     Edge 20, Type (0, 0), BuildingBlock: CIFDUS_clean_linker_0, # of connection points: 2
#     Edge 21, Type (0, 0), BuildingBlock: CIFDUS_clean_linker_0, # of connection points: 2
#     Edge 22, Type (0, 0), BuildingBlock: CIFDUS_clean_linker_0, # of connection points: 2
#     Edge 23, Type (0, 0), BuildingBlock: CIFDUS_clean_linker_0, # of connection points: 2
# Relax obj value: 0.003
# Max RMSD: 0.100
# Mean RMSD: 0.094
data_MOF--net-lvt--node1-ESEHIV_clean_sbu_0--edge1-CIFDUS_clean_linker_0
_symmetry_space_group_name_H-M    P1
_symmetry_Int_Tables_number       1
_symmetry_cell_setting            triclinic
loop_
_symmetry_equiv_pos_as_xyz
'x, y, z'
_cell_length_a     33.940275
_cell_length_b     33.991494
_cell_length_c     28.813455
_cell_angle_alpha  97.249035
_cell_angle_beta   87.939698
_cell_angle_gamma 95.78561
loop_
_atom_site_label
_atom_site_type_symbol
_atom_site_fract_x
_atom_site_fract_y
_atom_site_fract_z
_atom_type_partial_charge
Cu0 Cu 0.06245 0.03969 0.55308 0.0
N1 N 0.08314 0.99101 0.55735 0.0
N2 N 0.10678 0.94716 0.59876 0.0
C3 C 0.10399 0.98597 0.59475 0.0
C4 C 0.08753 0.92691 0.56151 0.0
C5 C 0.07271 0.95396 0.53631 0.0
O6 O 0.04432 0.05316 0.61774 0.0
C7 C 0.11463 0.06277 0.48499 0.0
O8 O 0.10308 1.02549 0.4696 0.0
H9 H 0.11444 1.01052 0.62033 0.0
H10 H 0.05305 0.94674 0.50719 0.0
N11 N 1.01787 0.03613 0.5155 0.0
N12 N 0.96425 0.05652 0.48611 0.0
C13 C 0.99134 0.06337 0.52015 0.0
C14 C 1.00739 1.01108 0.47701 0.0
C15 C 0.97426 1.02349 0.45892 0.0
C16 C 1.01699 0.02702 0.62866 0.0
O17 O 1.00251 0.99985 0.59555 0.0
H18 H 0.99319 0.08886 0.54685 0.0
H19 H 1.02347 0.98654 0.46192 0.0
O20 O 0.10213 0.07668 0.52548 0.0
H21 H 0.08186 0.89483 0.55482 0.0
H22 H 0.95931 1.00964 0.4276 0.0
Cu23 Cu 0.2931 0.77667 0.81923 0.0
N24 N 0.24736 0.80299 0.81846 0.0
N25 N 0.20205 0.83248 0.78398 0.0
C26 C 0.23114 0.80792 0.77788 0.0
C27 C 0.19986 0.84357 0.83068 0.0
C28 C 0.22791 0.82528 0.85191 0.0
O29 O 0.29041 0.74082 0.76093 0.0
C30 C 0.34548 0.83464 0.86587 0.0
O31 O 0.32203 0.82511 0.90083 0.0
H32 H 0.24231 0.79559 0.74407 0.0
H33 H 0.23476 0.82936 0.88869 0.0
N34 N 0.29605 0.74487 0.86717 0.0
N35 N 0.32084 0.69885 0.90352 0.0
C36 C 0.32676 0.72328 0.87004 0.0
C37 C 0.26962 0.7341 0.90033 0.0
C38 C 0.28484 0.70543 0.92276 0.0
C39 C 0.26392 0.71136 0.7611 0.0
O40 O 0.24505 0.70564 0.80063 0.0
H41 H 0.35215 0.7241 0.84622 0.0
H42 H 0.24082 0.74506 0.90642 0.0
O43 O 0.33853 0.81675 0.82488 0.0
H44 H 0.18017 0.86415 0.84816 0.0
H45 H 0.27032 0.69021 0.95045 0.0
Cu46 Cu 0.56257 0.06876 0.99952 0.0
N47 N 0.59532 0.05939 0.94616 0.0
N48 N 0.63344 1.02434 0.89452 0.0
C49 C 0.61057 1.02441 0.93392 0.0
C50 C 0.6326 0.06114 0.88165 0.0
C51 C 0.60912 0.08268 0.91355 0.0
O52 O 0.52319 1.02267 0.99667 0.0
C53 C 0.62627 0.10194 0.05212 0.0
O54 O 0.63194 0.1209 0.01507 0.0
H55 H 0.60548 0.99979 0.95448 0.0
H56 H 0.60319 0.11328 0.91325 0.0
N57 N 0.53539 0.11445 1.00267 0.0
N58 N 0.49534 0.16083 0.03119 0.0
C59 C 0.51513 0.13028 0.0406 0.0
C60 C 0.5283 0.13578 0.96816 0.0
C61 C 0.5038 0.16439 0.98562 0.0
C62 C 0.5058 1.01359 0.95767 0.0
O63 O 0.5144 0.03631 0.92432 0.0
H64 H 0.51325 0.11818 0.0737 0.0
H65 H 0.5387 0.12994 0.93233 0.0
O66 O 0.59651 0.07597 0.05343 0.0
H67 H 0.64783 0.07195 0.85144 0.0
H68 H 0.49217 0.18545 0.96578 0.0
Cu69 Cu 0.30004 0.30549 0.27991 0.0
N70 N 0.25904 0.26529 0.28925 0.0
N71 N 0.22017 0.22098 0.326 0.0
C72 C 0.24924 0.25138 0.33048 0.0
C73 C 0.21121 0.21572 0.28023 0.0
C74 C 0.23501 0.24317 0.25774 0.0
O75 O 0.29828 0.347 0.33324 0.0
C76 C 0.34645 0.26065 0.22077 0.0
O77 O 0.31217 0.25707 0.20016 0.0
H78 H 0.26391 0.26264 0.3629 0.0
H79 H 0.23508 0.24633 0.22087 0.0
N80 N 0.29346 0.33496 0.23057 0.0
N81 N 0.31156 0.38203 0.18417 0.0
C82 C 0.32165 0.36337 0.21991 0.0
C83 C 0.26403 0.33557 0.20068 0.0
C84 C 0.2753 0.36448 0.17169 0.0
C85 C 0.26447 0.36074 0.33544 0.0
O86 O 0.23682 0.34314 0.3071 0.0
H87 H 0.34963 0.36941 0.23754 0.0
H88 H 0.23651 0.31651 0.19998 0.0
O89 O 0.34915 0.28051 0.26153 0.0
H90 H 0.18899 0.19361 0.26414 0.0
H91 H 0.25816 0.3719 0.14362 0.0
Cu92 Cu 0.79757 0.27676 0.31174 0.0
N93 N 0.75456 0.30655 0.30892 0.0
N94 N 0.71439 0.33878 0.27013 0.0
C95 C 0.75036 0.3253 0.27124 0.0
C96 C 0.69524 0.32856 0.30946 0.0
C97 C 0.72002 0.30831 0.33317 0.0
O98 O 0.79347 0.24087 0.25353 0.0
C99 C 0.85029 0.33341 0.35903 0.0
O100 O 0.82345 0.32739 0.39202 0.0
H101 H 0.77298 0.32729 0.24399 0.0
H102 H 0.71244 0.29391 0.36411 0.0
N103 N 0.79702 0.24448 0.35993 0.0
N104 N 0.81802 0.19702 0.39749 0.0
C105 C 0.82066 0.21485 0.35812 0.0
C106 C 0.77846 0.24563 0.40211 0.0
C107 C 0.79154 0.21638 0.42551 0.0
C108 C 0.76397 0.21439 0.25335 0.0
O109 O 0.74276 0.21207 0.29213 0.0
H110 H 0.84063 0.20758 0.32885 0.0
H111 H 0.75786 0.26684 0.41544 0.0
O112 O 0.8453 0.31393 0.31846 0.0
H113 H 0.66476 0.33316 0.31898 0.0
H114 H 0.78253 0.21013 0.46045 0.0
Cu115 Cu 0.83294 0.81949 0.81957 0.0
N116 N 0.81688 0.79099 0.86998 0.0
N117 N 0.78086 0.74858 0.91233 0.0
C118 C 0.78896 0.75971 0.8692 0.0
C119 C 0.80471 0.77392 0.94132 0.0
C120 C 0.82682 0.79998 0.91517 0.0
O121 O 0.78795 0.8475 0.80637 0.0
C122 C 0.84577 0.78433 0.72409 0.0
O123 O 0.82096 0.80862 0.71278 0.0
H124 H 0.77391 0.74629 0.83776 0.0
H125 H 0.84804 0.82435 0.92838 0.0
N126 N 0.87413 0.85922 0.83602 0.0
N127 N 0.92337 0.90535 0.82149 0.0
C128 C 0.90515 0.86875 0.80771 0.0
C129 C 0.87291 0.89075 0.86923 0.0
C130 C 0.90323 0.9193 0.86031 0.0
C131 C 0.79243 0.87979 0.78775 0.0
O132 O 0.82706 0.89065 0.76905 0.0
H133 H 0.91143 0.85113 0.77477 0.0
H134 H 0.84945 0.89429 0.89539 0.0
O135 O 0.85276 0.78361 0.76712 0.0
H136 H 0.80615 0.77365 0.97874 0.0
H137 H 0.9084 0.94895 0.87905 0.0
Cu138 Cu 0.55942 0.54285 0.04622 0.0
N139 N 0.53291 0.54184 0.99009 0.0
N140 N 0.49101 0.56553 0.94506 0.0
C141 C 0.51657 0.57419 0.98033 0.0
C142 C 0.49126 0.52611 0.93156 0.0
C143 C 0.51764 0.51154 0.95913 0.0
O144 O 0.59823 0.58992 0.04803 0.0
C145 C 0.49303 0.50935 0.08507 0.0
O146 O 0.50145 0.48325 0.04947 0.0
H147 H 0.52078 0.60294 1.00142 0.0
H148 H 0.52288 0.48066 0.95893 0.0
N149 N 0.58647 0.49839 0.05204 0.0
N150 N 0.6135 0.45435 0.08982 0.0
C151 C 0.5959 0.48857 0.09381 0.0
C152 C 0.59855 0.46947 0.02007 0.0
C153 C 0.61538 0.44229 0.04329 0.0
C154 C 0.62171 0.58869 0.01225 0.0
O155 O 0.61859 0.55648 0.98166 0.0
H156 H 0.5898 0.50646 0.12658 0.0
H157 H 0.59488 0.46792 0.98274 0.0
O158 O 0.51662 0.54103 0.09377 0.0
H159 H 0.47247 0.50891 0.90522 0.0
H160 H 0.62719 0.41533 0.02712 0.0
Cu161 Cu 0.05925 0.56848 0.50997 0.0
N162 N 1.02815 0.61159 0.51644 0.0
N163 N 0.9887 0.65585 0.55257 0.0
C164 C 1.01244 0.62705 0.55758 0.0
C165 C 0.98961 0.65848 0.50608 0.0
C166 C 1.01383 0.63111 0.48393 0.0
O167 O 0.0916 0.57499 0.56514 0.0
C168 C 1.011 0.50847 0.45967 0.0
O169 O 1.02212 0.53061 0.42641 0.0
H170 H 1.01743 0.61623 0.59041 0.0
H171 H 1.01983 0.6253 0.44672 0.0
N172 N 0.09615 0.56672 0.46005 0.0
N173 N 0.14679 0.5441 0.41609 0.0
C174 C 0.12149 0.53842 0.45237 0.0
C175 C 0.10567 0.59149 0.42761 0.0
C176 C 0.13679 0.57745 0.40021 0.0
C177 C 0.11771 0.60484 0.56645 0.0
O178 O 0.1187 0.62784 0.53296 0.0
H179 H 0.12085 0.51378 0.47286 0.0
H180 H 0.09143 0.61805 0.42446 0.0
O181 O 1.0239 0.51934 0.50085 0.0
H182 H 0.97386 0.67859 0.48907 0.0
H183 H 0.15111 0.59099 0.37118 0.0
H184 H 0.14173 0.14314 0.49928 0.0
H185 H 0.13948 0.03872 0.39655 0.0
H186 H 0.1716 0.07815 0.33906 0.0
H187 H 0.19854 0.14235 0.31589 0.0
H188 H 0.20427 0.24725 0.417 0.0
H189 H 0.17314 0.20788 0.47677 0.0
C190 C 0.1486 0.12901 0.46447 0.0
C191 C 0.13774 0.08787 0.45254 0.0
C192 C 0.16764 0.15204 0.43093 0.0
C193 C 0.14712 0.07021 0.4071 0.0
C194 C 0.16554 0.09278 0.37387 0.0
C195 C 0.19284 0.1566 0.35098 0.0
C196 C 0.20329 0.1977 0.36182 0.0
C197 C 0.17548 0.13373 0.38511 0.0
C198 C 0.19654 0.21561 0.40779 0.0
C199 C 0.17862 0.1931 0.44191 0.0
H200 H 0.13137 0.87383 0.59928 0.0
H201 H 0.11563 0.98353 0.68811 0.0
H202 H 0.14203 0.95711 0.75381 0.0
H203 H 0.17198 0.90363 0.78608 0.0
H204 H 0.18596 0.79326 0.69804 0.0
H205 H 0.15759 0.81894 0.63272 0.0
C206 C 0.13338 0.8919 0.63304 0.0
C207 C 0.12193 0.93096 0.63804 0.0
C208 C 0.14838 0.87636 0.67118 0.0
C209 C 0.12505 0.95382 0.68236 0.0
C210 C 0.13987 0.93857 0.72035 0.0
C211 C 0.16828 0.88496 0.75286 0.0
C212 C 0.18154 0.84665 0.74709 0.0
C213 C 0.15197 0.89999 0.71515 0.0
C214 C 0.17674 0.8231 0.70343 0.0
C215 C 0.16037 0.83773 0.66597 0.0
H216 H 0.47993 0.97778 0.87342 0.0
H217 H 0.46681 0.96916 0.02143 0.0
H218 H 0.41673 0.9123 1.00567 0.0
H219 H 0.37525 0.8667 0.95 0.0
H220 H 0.3897 0.87449 0.80187 0.0
H221 H 0.44103 0.93007 0.81758 0.0
C222 C 0.46616 0.9635 0.90232 0.0
C223 C 0.47682 0.97798 0.94865 0.0
C224 C 0.43769 0.93073 0.89294 0.0
C225 C 0.45909 0.95869 0.98553 0.0
C226 C 0.43042 0.92624 0.9765 0.0
C227 C 0.38967 0.88046 0.92107 0.0
C228 C 0.37839 0.86662 0.87477 0.0
C229 C 0.41925 0.91226 0.93038 0.0
C230 C 0.39776 0.88452 0.83777 0.0
C231 C 0.42703 0.91639 0.84677 0.0
H232 H 0.35291 0.24556 0.12744 0.0
H233 H 0.41671 0.23901 0.25249 0.0
H234 H 0.46925 0.20732 0.20459 0.0
H235 H 0.49556 0.17932 0.12612 0.0
H236 H 0.42951 0.18822 1.00321 0.0
H237 H 0.37942 0.22114 0.05138 0.0
C238 C 0.37825 0.23724 0.14454 0.0
C239 C 0.38057 0.24424 0.19364 0.0
C240 C 0.40799 0.21936 0.11696 0.0
C241 C 0.41411 0.23393 0.21481 0.0
C242 C 0.44404 0.21566 0.18738 0.0
C243 C 0.47016 0.18849 0.11005 0.0
C244 C 0.46653 0.18131 0.06085 0.0
C245 C 0.44108 0.2078 0.1383 0.0
C246 C 0.43357 0.19378 0.04062 0.0
C247 C 0.40467 0.21244 0.06824 0.0
H248 H 0.03712 0.96432 0.66533 0.0
H249 H 0.97507 0.06905 0.69772 0.0
H250 H 0.94357 0.04191 0.76664 0.0
H251 H 0.92541 0.98306 0.80864 0.0
H252 H 0.98478 0.87687 0.77125 0.0
H253 H 1.02613 0.90985 0.71354 0.0
C254 C 1.01794 0.98186 0.68869 0.0
C255 C 1.00876 1.01878 0.67716 0.0
C256 C 0.99889 0.96528 0.72666 0.0
C257 C 0.98312 0.04094 0.70665 0.0
C258 C 0.96472 1.02509 0.74557 0.0
C259 C 0.94815 0.9676 0.78875 0.0
C260 C 0.95188 0.92741 0.79387 0.0
C261 C 0.97109 0.98651 0.75467 0.0
C262 C 0.98114 0.90757 0.76745 0.0
C263 C 1.00473 0.92643 0.73452 0.0
H264 H 0.93133 0.06322 0.40369 0.0
H265 H 0.92825 0.10701 0.55086 0.0
H266 H 0.8808 0.15337 0.53693 0.0
H267 H 0.84274 0.18415 0.4821 0.0
H268 H 0.84559 0.13938 0.33528 0.0
H269 H 0.89007 0.09055 0.35004 0.0
C270 C 0.91988 0.08236 0.43292 0.0
C271 C 0.9338 0.08168 0.47823 0.0
C272 C 0.89256 0.10904 0.42468 0.0
C273 C 0.91875 0.10727 0.51547 0.0
C274 C 0.89139 0.13372 0.50758 0.0
C275 C 0.85259 0.1633 0.4535 0.0
C276 C 0.84112 0.16579 0.40757 0.0
C277 C 0.87847 0.13529 0.46221 0.0
C278 C 0.85451 0.13868 0.37083 0.0
C279 C 0.87986 0.1106 0.37926 0.0
H280 H 0.70862 0.15108 0.24588 0.0
H281 H 0.78447 0.22592 0.16263 0.0
H282 H 0.75019 0.19482 0.09196 0.0
H283 H 0.69427 0.15164 0.05562 0.0
H284 H 0.61722 0.07849 0.13972 0.0
H285 H 0.65658 0.10372 0.20848 0.0
C286 C 0.71807 0.16029 0.2122 0.0
C287 C 0.74883 0.1911 0.20959 0.0
C288 C 0.69771 0.14291 0.17204 0.0
C289 C 0.76095 0.20229 0.16562 0.0
C290 C 0.74113 0.18472 0.12528 0.0
C291 C 0.68623 0.1409 0.08889 0.0
C292 C 0.65247 0.11356 0.09263 0.0
C293 C 0.70875 0.15584 0.12834 0.0
C294 C 0.64286 0.09964 0.13589 0.0
C295 C 0.66532 0.11413 0.17523 0.0
H296 H 0.69654 0.02964 0.83416 0.0
H297 H 0.62008 0.94563 0.90503 0.0
H298 H 0.66072 0.89268 0.87511 0.0
H299 H 0.72074 0.87092 0.83353 0.0
H300 H 0.79644 0.95453 0.76135 0.0
H301 H 0.75266 1.0063 0.78594 0.0
C302 C 0.68824 0.99972 0.84258 0.0
C303 C 0.65551 0.99223 0.87284 0.0
C304 C 0.71165 0.96904 0.82486 0.0
C305 C 0.64561 0.95293 0.88308 0.0
C306 C 0.66872 0.92235 0.86563 0.0
C307 C 0.72738 0.90026 0.8225 0.0
C308 C 0.76214 0.90876 0.79593 0.0
C309 C 0.70228 0.9302 0.83725 0.0
C310 C 0.77004 0.94702 0.78192 0.0
C311 C 0.74508 0.97682 0.79619 0.0
H312 H 0.66466 0.59566 0.93237 0.0
H313 H 0.64391 0.65865 0.06927 0.0
H314 H 0.69194 0.71385 0.05066 0.0
H315 H 0.73973 0.7442 0.99462 0.0
H316 H 0.75819 0.68014 0.85774 0.0
H317 H 0.71089 0.6255 0.87719 0.0
C318 C 0.67058 0.62134 0.95843 0.0
C319 C 0.65071 0.62277 1.00238 0.0
C320 C 0.69779 0.65291 0.94731 0.0
C321 C 0.65873 0.65663 0.03526 0.0
C322 C 0.68622 0.6882 0.02457 0.0
C323 C 0.73358 0.71817 0.9692 0.0
C324 C 0.75263 0.71644 0.92461 0.0
C325 C 0.70598 0.68666 0.98063 0.0
C326 C 0.74377 0.68263 0.89195 0.0
C327 C 0.71682 0.65121 0.90318 0.0
H328 H 0.65606 0.38817 0.27484 0.0
H329 H 0.7371 0.32787 0.1785 0.0
H330 H 0.71301 0.3582 0.11436 0.0
H331 H 0.66982 0.40285 0.08516 0.0
H332 H 0.58702 0.46165 0.18043 0.0
H333 H 0.6108 0.43107 0.24479 0.0
C334 C 0.66824 0.38145 0.23978 0.0
C335 C 0.69883 0.35612 0.23202 0.0
C336 C 0.654 0.3989 0.20256 0.0
C337 C 0.7143 0.34795 0.18614 0.0
C338 C 0.70028 0.36508 0.14913 0.0
C339 C 0.65663 0.40871 0.11983 0.0
C340 C 0.62681 0.43492 0.1276 0.0
C341 C 0.67031 0.3908 0.1569 0.0
C342 C 0.6105 0.44231 0.17319 0.0
C343 C 0.62393 0.42458 0.21017 0.0
H344 H 0.87645 0.36529 0.44469 0.0
H345 H 0.90123 0.36918 0.2973 0.0
H346 H 0.95426 0.42273 0.31579 0.0
H347 H 0.99104 0.47064 0.3738 0.0
H348 H 0.96691 0.46577 0.52119 0.0
H349 H 0.91617 0.41008 0.50265 0.0
C350 C 0.89353 0.37771 0.41652 0.0
C351 C 0.8846 0.3635 0.3696 0.0
C352 C 0.92397 0.40834 0.42745 0.0
C353 C 0.90743 0.37957 0.33364 0.0
C354 C 0.93766 0.41028 0.34423 0.0
C355 C 0.97481 0.45731 0.40194 0.0
C356 C 0.98252 0.47265 0.44889 0.0
C357 C 0.94579 0.42525 0.391 0.0
C358 C 0.96156 0.45464 0.48483 0.0
C359 C 0.93246 0.42287 0.47422 0.0
H360 H 0.90996 0.74346 0.73326 0.0
H361 H 0.83096 0.77103 0.63045 0.0
H362 H 0.86801 0.73384 0.56839 0.0
H363 H 0.92316 0.69375 0.54295 0.0
H364 H 1.00352 0.66835 0.64562 0.0
H365 H 0.96552 0.70397 0.70765 0.0
C366 C 0.90063 0.74113 0.69733 0.0
C367 C 0.8675 0.76001 0.68677 0.0
C368 C 0.92242 0.72003 0.66155 0.0
C369 C 0.85624 0.75688 0.63981 0.0
C370 C 0.87749 0.73561 0.60417 0.0
C371 C 0.93268 0.69621 0.57875 0.0
C372 C 0.96632 0.67795 0.58916 0.0
C373 C 0.91079 0.71722 0.61455 0.0
C374 C 0.97758 0.68133 0.6362 0.0
C375 C 0.9559 0.70198 0.67189 0.0
H376 H 0.42327 0.47682 0.05166 0.0
H377 H 0.48272 0.51804 0.18089 0.0
H378 H 0.4283 0.48467 0.22456 0.0
H379 H 0.36851 0.43619 0.22388 0.0
H380 H 0.31145 0.39373 0.09309 0.0
H381 H 0.35988 0.43569 0.0521 0.0
C382 C 0.42382 0.4793 0.08957 0.0
C383 C 0.45691 0.49962 0.11314 0.0
C384 C 0.3931 0.45935 0.11394 0.0
C385 C 0.45734 0.50287 0.16213 0.0
C386 C 0.42647 0.48336 0.18692 0.0
C387 C 0.36654 0.43633 0.18645 0.0
C388 C 0.33667 0.4112 0.16148 0.0
C389 C 0.39497 0.46024 0.16292 0.0
C390 C 0.33395 0.41263 0.1132 0.0
C391 C 0.36184 0.43648 0.08967 0.0
H392 H 0.40031 0.70638 0.89805 0.0
H393 H 0.2996 0.62603 0.93073 0.0
H394 H 0.34366 0.57569 0.94326 0.0
H395 H 0.41149 0.55477 0.94544 0.0
H396 H 0.51172 0.63693 0.91701 0.0
H397 H 0.46744 0.68613 0.90115 0.0
C398 C 0.38802 0.67776 0.90766 0.0
C399 C 0.34674 0.66991 0.9133 0.0
C400 C 0.41352 0.64918 0.915 0.0
C401 C 0.33127 0.63295 0.92663 0.0
C402 C 0.35644 0.60406 0.93341 0.0
C403 C 0.42333 0.58324 0.93497 0.0
C404 C 0.4646 0.59224 0.93142 0.0
C405 C 0.39764 0.61179 0.92756 0.0
C406 C 0.47998 0.62951 0.91927 0.0
C407 C 0.45471 0.65758 0.91052 0.0
H408 H 0.21286 0.64461 0.75262 0.0
H409 H 0.27742 0.72938 0.6714 0.0
H410 H 0.23937 0.70108 0.60253 0.0
H411 H 0.18291 0.65773 0.56847 0.0
H412 H 0.11659 0.57467 0.65047 0.0
H413 H 0.16038 0.59698 0.71632 0.0
C414 C 0.2191 0.65654 0.71965 0.0
C415 C 0.24767 0.68936 0.71726 0.0
C416 C 0.19641 0.64084 0.68069 0.0
C417 C 0.25567 0.70413 0.67419 0.0
C418 C 0.23365 0.68819 0.63494 0.0
C419 C 0.17811 0.64426 0.60064 0.0
C420 C 0.14611 0.61501 0.60488 0.0
C421 C 0.20312 0.65746 0.63829 0.0
C422 C 0.14079 0.59741 0.64646 0.0
C423 C 0.16579 0.6102 0.68408 0.0
H424 H 0.24974 0.42448 0.29659 0.0
H425 H 0.25913 0.38247 0.43018 0.0
H426 H 0.22584 0.43933 0.46863 0.0
H427 H 0.18585 0.4953 0.46176 0.0
H428 H 0.17403 0.53409 0.32638 0.0
H429 H 0.21697 0.48466 0.29112 0.0
C430 C 0.24566 0.42865 0.33438 0.0
C431 C 0.25713 0.39981 0.36076 0.0
C432 C 0.22538 0.46041 0.35565 0.0
C433 C 0.25123 0.40484 0.40946 0.0
C434 C 0.23166 0.43699 0.43121 0.0
C435 C 0.1928 0.49307 0.42459 0.0
C436 C 0.17605 0.51809 0.39667 0.0
C437 C 0.21718 0.46401 0.40432 0.0
C438 C 0.18635 0.51541 0.34877 0.0
C439 C 0.21081 0.48695 0.32849 0.0
loop_
_geom_bond_atom_site_label_1
_geom_bond_atom_site_label_2
_geom_bond_distance
_geom_bond_site_symmetry_2
_ccdc_geom_bond_type
Cu0 N1 1.999 1_545 S
Cu0 O6 1.974 1_445 S
Cu0 N11 1.985 1_455 S
Cu0 O20 1.959 . S
N1 Cu0 1.999 1_565 S
N1 C3 1.263 . S
N1 C5 1.389 1_565 S
N2 C3 1.358 . S
N2 C4 1.400 . S
C3 N1 1.263 . S
C3 N2 1.358 . S
C3 H9 0.930 . S
C4 N2 1.400 . S
C4 C5 1.351 1_565 S
C4 H21 0.930 . S
C5 N1 1.389 1_545 S
C5 C4 1.351 1_545 S
C5 H10 0.930 . S
O6 Cu0 1.974 1_665 S
O6 C16 1.282 . S
C7 O8 1.261 . S
C7 O20 1.251 . S
O8 C7 1.261 . S
H9 C3 0.930 . S
H10 C5 0.930 . S
N11 Cu0 1.985 1_655 S
N11 C13 1.335 . S
N11 C14 1.390 . S
N12 C13 1.345 . S
N12 C15 1.336 . S
C13 N11 1.335 . S
C13 N12 1.345 . S
C13 H18 0.930 1_655 S
C14 N11 1.390 . S
C14 C15 1.346 . S
C14 H19 0.930 1_545 S
C15 N12 1.336 . S
C15 C14 1.346 . S
C15 H22 0.929 . S
C16 O6 1.282 . S
C16 O17 1.216 . S
O17 C16 1.216 . S
H18 C13 0.930 1_455 S
H19 C14 0.930 1_565 S
O20 Cu0 1.959 . S
O20 C7 1.251 . S
H21 C4 0.930 . S
H22 C15 0.929 . S
Cu23 N24 1.999 . S
Cu23 O29 1.974 . S
Cu23 N34 1.985 . S
Cu23 O43 1.959 . S
N24 Cu23 1.999 . S
N24 C26 1.263 . S
N24 C28 1.389 . S
N25 C26 1.358 . S
N25 C27 1.400 . S
C26 N24 1.263 . S
C26 N25 1.358 . S
C26 H32 0.930 . S
C27 N25 1.400 . S
C27 C28 1.351 . S
C27 H44 0.930 . S
C28 N24 1.389 . S
C28 C27 1.351 . S
C28 H33 0.930 . S
O29 Cu23 1.974 . S
O29 C39 1.282 . S
C30 O31 1.261 . S
C30 O43 1.251 . S
O31 C30 1.261 . S
H32 C26 0.930 . S
H33 C28 0.930 . S
N34 Cu23 1.985 . S
N34 C36 1.335 . S
N34 C37 1.390 . S
N35 C36 1.345 . S
N35 C38 1.336 . S
C36 N34 1.335 . S
C36 N35 1.345 . S
C36 H41 0.930 . S
C37 N34 1.390 . S
C37 C38 1.346 . S
C37 H42 0.930 . S
C38 N35 1.336 . S
C38 C37 1.346 . S
C38 H45 0.929 . S
C39 O29 1.282 . S
C39 O40 1.216 . S
O40 C39 1.216 . S
H41 C36 0.930 . S
H42 C37 0.930 . S
O43 Cu23 1.959 . S
O43 C30 1.251 . S
H44 C27 0.930 . S
H45 C38 0.929 . S
Cu46 N47 1.999 1_544 S
Cu46 O52 1.974 1_544 S
Cu46 N57 1.985 . S
Cu46 O66 1.959 . S
N47 Cu46 1.999 1_566 S
N47 C49 1.263 . S
N47 C51 1.389 1_556 S
N48 C49 1.358 . S
N48 C50 1.400 . S
C49 N47 1.263 . S
C49 N48 1.358 . S
C49 H55 0.930 . S
C50 N48 1.400 . S
C50 C51 1.351 1_556 S
C50 H67 0.930 . S
C51 N47 1.389 1_554 S
C51 C50 1.351 1_554 S
C51 H56 0.923 1_565 S
O52 Cu46 1.974 1_566 S
O52 C62 1.282 . S
C53 O54 1.261 1_554 S
C53 O66 1.251 . S
O54 C53 1.261 1_556 S
H55 C49 0.930 . S
H56 C51 0.923 1_545 S
N57 Cu46 1.985 . S
N57 C59 1.335 . S
N57 C60 1.390 . S
N58 C59 1.345 . S
N58 C61 1.336 . S
C59 N57 1.335 . S
C59 N58 1.345 . S
C59 H64 0.930 . S
C60 N57 1.390 . S
C60 C61 1.346 . S
C60 H65 0.930 1_554 S
C61 N58 1.336 . S
C61 C60 1.346 . S
C61 H68 0.929 . S
C62 O52 1.282 . S
C62 O63 1.216 1_565 S
O63 C62 1.216 1_545 S
H64 C59 0.930 . S
H65 C60 0.930 1_556 S
O66 Cu46 1.959 . S
O66 C53 1.251 . S
H67 C50 0.930 . S
H68 C61 0.929 . S
Cu69 N70 1.999 . S
Cu69 O75 1.974 . S
Cu69 N80 1.985 . S
Cu69 O89 1.959 . S
N70 Cu69 1.999 . S
N70 C72 1.263 . S
N70 C74 1.389 . S
N71 C72 1.358 . S
N71 C73 1.400 . S
C72 N70 1.263 . S
C72 N71 1.358 . S
C72 H78 0.930 . S
C73 N71 1.400 . S
C73 C74 1.351 . S
C73 H90 0.930 . S
C74 N70 1.389 . S
C74 C73 1.351 . S
C74 H79 0.930 . S
O75 Cu69 1.974 . S
O75 C85 1.282 . S
C76 O77 1.261 . S
C76 O89 1.251 . S
O77 C76 1.261 . S
H78 C72 0.930 . S
H79 C74 0.930 . S
N80 Cu69 1.985 . S
N80 C82 1.335 . S
N80 C83 1.390 . S
N81 C82 1.345 . S
N81 C84 1.336 . S
C82 N80 1.335 . S
C82 N81 1.345 . S
C82 H87 0.930 . S
C83 N80 1.390 . S
C83 C84 1.346 . S
C83 H88 0.930 . S
C84 N81 1.336 . S
C84 C83 1.346 . S
C84 H91 0.929 . S
C85 O75 1.282 . S
C85 O86 1.216 . S
O86 C85 1.216 . S
H87 C82 0.930 . S
H88 C83 0.930 . S
O89 Cu69 1.959 . S
O89 C76 1.251 . S
H90 C73 0.930 . S
H91 C84 0.929 . S
Cu92 N93 1.999 . S
Cu92 O98 1.974 . S
Cu92 N103 1.985 . S
Cu92 O112 1.959 . S
N93 Cu92 1.999 . S
N93 C95 1.263 . S
N93 C97 1.389 . S
N94 C95 1.358 . S
N94 C96 1.400 . S
C95 N93 1.263 . S
C95 N94 1.358 . S
C95 H101 0.930 . S
C96 N94 1.400 . S
C96 C97 1.351 . S
C96 H113 0.930 . S
C97 N93 1.389 . S
C97 C96 1.351 . S
C97 H102 0.930 . S
O98 Cu92 1.974 . S
O98 C108 1.282 . S
C99 O100 1.261 . S
C99 O112 1.251 . S
O100 C99 1.261 . S
H101 C95 0.930 . S
H102 C97 0.930 . S
N103 Cu92 1.985 . S
N103 C105 1.335 . S
N103 C106 1.390 . S
N104 C105 1.345 . S
N104 C107 1.336 . S
C105 N103 1.335 . S
C105 N104 1.345 . S
C105 H110 0.930 . S
C106 N103 1.390 . S
C106 C107 1.346 . S
C106 H111 0.930 . S
C107 N104 1.336 . S
C107 C106 1.346 . S
C107 H114 0.929 . S
C108 O98 1.282 . S
C108 O109 1.216 . S
O109 C108 1.216 . S
H110 C105 0.930 . S
H111 C106 0.930 . S
O112 Cu92 1.959 . S
O112 C99 1.251 . S
H113 C96 0.930 . S
H114 C107 0.929 . S
Cu115 N116 1.999 . S
Cu115 O121 1.974 . S
Cu115 N126 1.985 . S
Cu115 O135 1.959 . S
N116 Cu115 1.999 . S
N116 C118 1.263 . S
N116 C120 1.389 . S
N117 C118 1.358 . S
N117 C119 1.400 . S
C118 N116 1.263 . S
C118 N117 1.358 . S
C118 H124 0.930 . S
C119 N117 1.400 . S
C119 C120 1.351 . S
C119 H136 0.930 . S
C120 N116 1.389 . S
C120 C119 1.351 . S
C120 H125 0.930 . S
O121 Cu115 1.974 . S
O121 C131 1.282 . S
C122 O123 1.261 . S
C122 O135 1.251 . S
O123 C122 1.261 . S
H124 C118 0.930 . S
H125 C120 0.930 . S
N126 Cu115 1.985 . S
N126 C128 1.335 . S
N126 C129 1.390 . S
N127 C128 1.345 . S
N127 C130 1.336 . S
C128 N126 1.335 . S
C128 N127 1.345 . S
C128 H133 0.930 . S
C129 N126 1.390 . S
C129 C130 1.346 . S
C129 H134 0.930 . S
C130 N127 1.336 . S
C130 C129 1.346 . S
C130 H137 0.929 . S
C131 O121 1.282 . S
C131 O132 1.216 . S
O132 C131 1.216 . S
H133 C128 0.930 . S
H134 C129 0.930 . S
O135 Cu115 1.959 . S
O135 C122 1.251 . S
H136 C119 0.930 . S
H137 C130 0.929 . S
Cu138 N139 1.999 . S
Cu138 O144 1.974 . S
Cu138 N149 1.985 . S
Cu138 O158 1.959 . S
N139 Cu138 1.999 . S
N139 C141 1.263 . S
N139 C143 1.389 . S
N140 C141 1.358 . S
N140 C142 1.400 . S
C141 N139 1.263 . S
C141 N140 1.358 . S
C141 H147 0.930 1_554 S
C142 N140 1.400 . S
C142 C143 1.351 . S
C142 H159 0.930 . S
C143 N139 1.389 . S
C143 C142 1.351 . S
C143 H148 0.930 . S
O144 Cu138 1.974 . S
O144 C154 1.282 1_554 S
C145 O146 1.261 . S
C145 O158 1.251 . S
O146 C145 1.261 . S
H147 C141 0.930 1_556 S
H148 C143 0.930 . S
N149 Cu138 1.985 . S
N149 C151 1.335 . S
N149 C152 1.390 . S
N150 C151 1.345 . S
N150 C153 1.336 . S
C151 N149 1.335 . S
C151 N150 1.345 . S
C151 H156 0.930 . S
C152 N149 1.390 . S
C152 C153 1.346 . S
C152 H157 0.930 . S
C153 N150 1.336 . S
C153 C152 1.346 . S
C153 H160 0.929 . S
C154 O144 1.282 1_556 S
C154 O155 1.216 . S
O155 C154 1.216 . S
H156 C151 0.930 . S
H157 C152 0.930 . S
O158 Cu138 1.959 . S
O158 C145 1.251 . S
H159 C142 0.930 . S
H160 C153 0.929 . S
Cu161 N162 1.999 1_455 S
Cu161 O167 1.974 . S
Cu161 N172 1.985 . S
Cu161 O181 1.959 1_455 S
N162 Cu161 1.999 1_655 S
N162 C164 1.263 . S
N162 C166 1.389 . S
N163 C164 1.358 . S
N163 C165 1.400 . S
C164 N162 1.263 . S
C164 N163 1.358 . S
C164 H170 0.930 . S
C165 N163 1.400 . S
C165 C166 1.351 . S
C165 H182 0.930 . S
C166 N162 1.389 . S
C166 C165 1.351 . S
C166 H171 0.930 . S
O167 Cu161 1.974 . S
O167 C177 1.282 . S
C168 O169 1.261 . S
C168 O181 1.251 . S
O169 C168 1.261 . S
H170 C164 0.930 . S
H171 C166 0.930 . S
N172 Cu161 1.985 . S
N172 C174 1.335 . S
N172 C175 1.390 . S
N173 C174 1.345 . S
N173 C176 1.336 . S
C174 N172 1.335 . S
C174 N173 1.345 . S
C174 H179 0.930 . S
C175 N172 1.390 . S
C175 C176 1.346 . S
C175 H180 0.930 . S
C176 N173 1.336 . S
C176 C175 1.346 . S
C176 H183 0.929 . S
C177 O167 1.282 . S
C177 O178 1.216 . S
O178 C177 1.216 . S
H179 C174 0.930 . S
H180 C175 0.930 . S
O181 Cu161 1.959 1_655 S
O181 C168 1.251 . S
H182 C165 0.930 . S
H183 C176 0.929 . S
H184 C190 0.930 . S
H185 C193 0.930 . S
H186 C194 0.930 . S
H187 C195 0.930 . S
H188 C198 0.930 . S
H189 C199 0.930 . S
C190 H184 0.930 . S
C190 C191 1.355 . S
C190 C192 1.415 . S
C191 C190 1.355 . S
C191 C193 1.419 . S
C192 C190 1.415 . S
C192 C197 1.425 . S
C192 C199 1.409 . S
C193 H185 0.930 . S
C193 C191 1.419 . S
C193 C194 1.362 . S
C194 H186 0.930 . S
C194 C193 1.362 . S
C194 C197 1.409 . S
C195 H187 0.930 . S
C195 C196 1.355 . S
C195 C197 1.415 . S
C196 C195 1.355 . S
C196 C198 1.419 . S
C197 C192 1.425 . S
C197 C194 1.409 . S
C197 C195 1.415 . S
C198 H188 0.930 . S
C198 C196 1.419 . S
C198 C199 1.362 . S
C199 H189 0.930 . S
C199 C192 1.409 . S
C199 C198 1.362 . S
H200 C206 0.930 . S
H201 C209 0.930 . S
H202 C210 0.930 . S
H203 C211 0.930 . S
H204 C214 0.930 . S
H205 C215 0.930 . S
C206 H200 0.930 . S
C206 C207 1.355 . S
C206 C208 1.415 . S
C207 C206 1.355 . S
C207 C209 1.419 . S
C208 C206 1.415 . S
C208 C213 1.425 . S
C208 C215 1.409 . S
C209 H201 0.930 . S
C209 C207 1.419 . S
C209 C210 1.362 . S
C210 H202 0.930 . S
C210 C209 1.362 . S
C210 C213 1.409 . S
C211 H203 0.930 . S
C211 C212 1.355 . S
C211 C213 1.415 . S
C212 C211 1.355 . S
C212 C214 1.419 . S
C213 C208 1.425 . S
C213 C210 1.409 . S
C213 C211 1.415 . S
C214 H204 0.930 . S
C214 C212 1.419 . S
C214 C215 1.362 . S
C215 H205 0.930 . S
C215 C208 1.409 . S
C215 C214 1.362 . S
H216 C222 0.930 . S
H217 C225 0.930 . S
H218 C226 0.930 . S
H219 C227 0.930 . S
H220 C230 0.930 . S
H221 C231 0.930 . S
C222 H216 0.930 . S
C222 C223 1.355 . S
C222 C224 1.415 . S
C223 C222 1.355 . S
C223 C225 1.419 . S
C224 C222 1.415 . S
C224 C229 1.425 . S
C224 C231 1.409 . S
C225 H217 0.930 . S
C225 C223 1.419 . S
C225 C226 1.362 . S
C226 H218 0.930 . S
C226 C225 1.362 . S
C226 C229 1.409 . S
C227 H219 0.930 . S
C227 C228 1.355 . S
C227 C229 1.415 . S
C228 C227 1.355 . S
C228 C230 1.419 . S
C229 C224 1.425 . S
C229 C226 1.409 . S
C229 C227 1.415 . S
C230 H220 0.930 . S
C230 C228 1.419 . S
C230 C231 1.362 . S
C231 H221 0.930 . S
C231 C224 1.409 . S
C231 C230 1.362 . S
H232 C238 0.930 . S
H233 C241 0.930 . S
H234 C242 0.930 . S
H235 C243 0.930 . S
H236 C246 0.930 . S
H237 C247 0.930 . S
C238 H232 0.930 . S
C238 C239 1.355 . S
C238 C240 1.415 . S
C239 C238 1.355 . S
C239 C241 1.419 . S
C240 C238 1.415 . S
C240 C245 1.425 . S
C240 C247 1.409 . S
C241 H233 0.930 . S
C241 C239 1.419 . S
C241 C242 1.362 . S
C242 H234 0.930 . S
C242 C241 1.362 . S
C242 C245 1.409 . S
C243 H235 0.930 . S
C243 C244 1.355 . S
C243 C245 1.415 . S
C244 C243 1.355 . S
C244 C246 1.419 . S
C245 C240 1.425 . S
C245 C242 1.409 . S
C245 C243 1.415 . S
C246 H236 0.930 . S
C246 C244 1.419 . S
C246 C247 1.362 . S
C247 H237 0.930 . S
C247 C240 1.409 . S
C247 C246 1.362 . S
H248 C254 0.930 . S
H249 C257 0.930 . S
H250 C258 0.930 . S
H251 C259 0.930 . S
H252 C262 0.930 . S
H253 C263 0.930 . S
C254 H248 0.930 . S
C254 C255 1.355 . S
C254 C256 1.415 . S
C255 C254 1.355 . S
C255 C257 1.419 . S
C256 C254 1.415 . S
C256 C261 1.425 . S
C256 C263 1.409 . S
C257 H249 0.930 . S
C257 C255 1.419 . S
C257 C258 1.362 . S
C258 H250 0.930 . S
C258 C257 1.362 . S
C258 C261 1.409 . S
C259 H251 0.930 . S
C259 C260 1.355 . S
C259 C261 1.415 . S
C260 C259 1.355 . S
C260 C262 1.419 . S
C261 C256 1.425 . S
C261 C258 1.409 . S
C261 C259 1.415 . S
C262 H252 0.930 . S
C262 C260 1.419 . S
C262 C263 1.362 . S
C263 H253 0.930 . S
C263 C256 1.409 . S
C263 C262 1.362 . S
H264 C270 0.930 . S
H265 C273 0.930 . S
H266 C274 0.930 . S
H267 C275 0.930 . S
H268 C278 0.930 . S
H269 C279 0.930 . S
C270 H264 0.930 . S
C270 C271 1.355 . S
C270 C272 1.415 . S
C271 C270 1.355 . S
C271 C273 1.419 . S
C272 C270 1.415 . S
C272 C277 1.425 . S
C272 C279 1.409 . S
C273 H265 0.930 . S
C273 C271 1.419 . S
C273 C274 1.362 . S
C274 H266 0.930 . S
C274 C273 1.362 . S
C274 C277 1.409 . S
C275 H267 0.930 . S
C275 C276 1.355 . S
C275 C277 1.415 . S
C276 C275 1.355 . S
C276 C278 1.419 . S
C277 C272 1.425 . S
C277 C274 1.409 . S
C277 C275 1.415 . S
C278 H268 0.930 . S
C278 C276 1.419 . S
C278 C279 1.362 . S
C279 H269 0.930 . S
C279 C272 1.409 . S
C279 C278 1.362 . S
H280 C286 0.930 . S
H281 C289 0.930 . S
H282 C290 0.930 . S
H283 C291 0.930 . S
H284 C294 0.930 . S
H285 C295 0.930 . S
C286 H280 0.930 . S
C286 C287 1.355 . S
C286 C288 1.415 . S
C287 C286 1.355 . S
C287 C289 1.419 . S
C288 C286 1.415 . S
C288 C293 1.425 . S
C288 C295 1.409 . S
C289 H281 0.930 . S
C289 C287 1.419 . S
C289 C290 1.362 . S
C290 H282 0.930 . S
C290 C289 1.362 . S
C290 C293 1.409 . S
C291 H283 0.930 . S
C291 C292 1.355 . S
C291 C293 1.415 . S
C292 C291 1.355 . S
C292 C294 1.419 . S
C293 C288 1.425 . S
C293 C290 1.409 . S
C293 C291 1.415 . S
C294 H284 0.930 . S
C294 C292 1.419 . S
C294 C295 1.362 . S
C295 H285 0.930 . S
C295 C288 1.409 . S
C295 C294 1.362 . S
H296 C302 0.930 . S
H297 C305 0.930 . S
H298 C306 0.930 . S
H299 C307 0.930 . S
H300 C310 0.930 . S
H301 C311 0.930 . S
C302 H296 0.930 . S
C302 C303 1.355 . S
C302 C304 1.415 . S
C303 C302 1.355 . S
C303 C305 1.419 . S
C304 C302 1.415 . S
C304 C309 1.425 . S
C304 C311 1.409 . S
C305 H297 0.930 . S
C305 C303 1.419 . S
C305 C306 1.362 . S
C306 H298 0.930 . S
C306 C305 1.362 . S
C306 C309 1.409 . S
C307 H299 0.930 . S
C307 C308 1.355 . S
C307 C309 1.415 . S
C308 C307 1.355 . S
C308 C310 1.419 . S
C309 C304 1.425 . S
C309 C306 1.409 . S
C309 C307 1.415 . S
C310 H300 0.930 . S
C310 C308 1.419 . S
C310 C311 1.362 . S
C311 H301 0.930 . S
C311 C304 1.409 . S
C311 C310 1.362 . S
H312 C318 0.930 . S
H313 C321 0.930 1_554 S
H314 C322 0.930 . S
H315 C323 0.930 . S
H316 C326 0.930 . S
H317 C327 0.930 . S
C318 H312 0.930 . S
C318 C319 1.355 . S
C318 C320 1.415 . S
C319 C318 1.355 . S
C319 C321 1.419 . S
C320 C318 1.415 . S
C320 C325 1.425 . S
C320 C327 1.409 . S
C321 H313 0.930 1_556 S
C321 C319 1.419 . S
C321 C322 1.362 . S
C322 H314 0.930 . S
C322 C321 1.362 . S
C322 C325 1.409 . S
C323 H315 0.930 . S
C323 C324 1.355 . S
C323 C325 1.415 . S
C324 C323 1.355 . S
C324 C326 1.419 . S
C325 C320 1.425 . S
C325 C322 1.409 . S
C325 C323 1.415 . S
C326 H316 0.930 . S
C326 C324 1.419 . S
C326 C327 1.362 . S
C327 H317 0.930 . S
C327 C320 1.409 . S
C327 C326 1.362 . S
H328 C334 0.930 . S
H329 C337 0.930 . S
H330 C338 0.930 . S
H331 C339 0.930 . S
H332 C342 0.930 . S
H333 C343 0.930 . S
C334 H328 0.930 . S
C334 C335 1.355 . S
C334 C336 1.415 . S
C335 C334 1.355 . S
C335 C337 1.419 . S
C336 C334 1.415 . S
C336 C341 1.425 . S
C336 C343 1.409 . S
C337 H329 0.930 . S
C337 C335 1.419 . S
C337 C338 1.362 . S
C338 H330 0.930 . S
C338 C337 1.362 . S
C338 C341 1.409 . S
C339 H331 0.930 . S
C339 C340 1.355 . S
C339 C341 1.415 . S
C340 C339 1.355 . S
C340 C342 1.419 . S
C341 C336 1.425 . S
C341 C338 1.409 . S
C341 C339 1.415 . S
C342 H332 0.930 . S
C342 C340 1.419 . S
C342 C343 1.362 . S
C343 H333 0.930 . S
C343 C336 1.409 . S
C343 C342 1.362 . S
H344 C350 0.930 . S
H345 C353 0.930 . S
H346 C354 0.930 . S
H347 C355 0.930 . S
H348 C358 0.930 . S
H349 C359 0.930 . S
C350 H344 0.930 . S
C350 C351 1.355 . S
C350 C352 1.415 . S
C351 C350 1.355 . S
C351 C353 1.419 . S
C352 C350 1.415 . S
C352 C357 1.425 . S
C352 C359 1.409 . S
C353 H345 0.930 . S
C353 C351 1.419 . S
C353 C354 1.362 . S
C354 H346 0.930 . S
C354 C353 1.362 . S
C354 C357 1.409 . S
C355 H347 0.930 . S
C355 C356 1.355 . S
C355 C357 1.415 . S
C356 C355 1.355 . S
C356 C358 1.419 . S
C357 C352 1.425 . S
C357 C354 1.409 . S
C357 C355 1.415 . S
C358 H348 0.930 . S
C358 C356 1.419 . S
C358 C359 1.362 . S
C359 H349 0.930 . S
C359 C352 1.409 . S
C359 C358 1.362 . S
H360 C366 0.930 . S
H361 C369 0.930 . S
H362 C370 0.930 . S
H363 C371 0.930 . S
H364 C374 0.930 . S
H365 C375 0.930 . S
C366 H360 0.930 . S
C366 C367 1.355 . S
C366 C368 1.415 . S
C367 C366 1.355 . S
C367 C369 1.419 . S
C368 C366 1.415 . S
C368 C373 1.425 . S
C368 C375 1.409 . S
C369 H361 0.930 . S
C369 C367 1.419 . S
C369 C370 1.362 . S
C370 H362 0.930 . S
C370 C369 1.362 . S
C370 C373 1.409 . S
C371 H363 0.930 . S
C371 C372 1.355 . S
C371 C373 1.415 . S
C372 C371 1.355 . S
C372 C374 1.419 . S
C373 C368 1.425 . S
C373 C370 1.409 . S
C373 C371 1.415 . S
C374 H364 0.930 . S
C374 C372 1.419 . S
C374 C375 1.362 . S
C375 H365 0.930 . S
C375 C368 1.409 . S
C375 C374 1.362 . S
H376 C382 0.930 . S
H377 C385 0.930 . S
H378 C386 0.930 . S
H379 C387 0.930 . S
H380 C390 0.930 . S
H381 C391 0.930 . S
C382 H376 0.930 . S
C382 C383 1.355 . S
C382 C384 1.415 . S
C383 C382 1.355 . S
C383 C385 1.419 . S
C384 C382 1.415 . S
C384 C389 1.425 . S
C384 C391 1.409 . S
C385 H377 0.930 . S
C385 C383 1.419 . S
C385 C386 1.362 . S
C386 H378 0.930 . S
C386 C385 1.362 . S
C386 C389 1.409 . S
C387 H379 0.930 . S
C387 C388 1.355 . S
C387 C389 1.415 . S
C388 C387 1.355 . S
C388 C390 1.419 . S
C389 C384 1.425 . S
C389 C386 1.409 . S
C389 C387 1.415 . S
C390 H380 0.930 . S
C390 C388 1.419 . S
C390 C391 1.362 . S
C391 H381 0.930 . S
C391 C384 1.409 . S
C391 C390 1.362 . S
H392 C398 0.930 . S
H393 C401 0.930 . S
H394 C402 0.930 . S
H395 C403 0.930 . S
H396 C406 0.930 1_554 S
H397 C407 0.930 . S
C398 H392 0.930 . S
C398 C399 1.355 . S
C398 C400 1.415 . S
C399 C398 1.355 . S
C399 C401 1.419 . S
C400 C398 1.415 . S
C400 C405 1.425 . S
C400 C407 1.409 . S
C401 H393 0.930 . S
C401 C399 1.419 . S
C401 C402 1.362 . S
C402 H394 0.930 . S
C402 C401 1.362 . S
C402 C405 1.409 . S
C403 H395 0.930 . S
C403 C404 1.355 . S
C403 C405 1.415 . S
C404 C403 1.355 . S
C404 C406 1.419 . S
C405 C400 1.425 . S
C405 C402 1.409 . S
C405 C403 1.415 . S
C406 H396 0.930 1_556 S
C406 C404 1.419 . S
C406 C407 1.362 . S
C407 H397 0.930 . S
C407 C400 1.409 . S
C407 C406 1.362 . S
H408 C414 0.930 . S
H409 C417 0.930 . S
H410 C418 0.930 . S
H411 C419 0.930 . S
H412 C422 0.930 . S
H413 C423 0.930 . S
C414 H408 0.930 . S
C414 C415 1.355 . S
C414 C416 1.415 . S
C415 C414 1.355 . S
C415 C417 1.419 . S
C416 C414 1.415 . S
C416 C421 1.425 . S
C416 C423 1.409 . S
C417 H409 0.930 . S
C417 C415 1.419 . S
C417 C418 1.362 . S
C418 H410 0.930 . S
C418 C417 1.362 . S
C418 C421 1.409 . S
C419 H411 0.930 . S
C419 C420 1.355 . S
C419 C421 1.415 . S
C420 C419 1.355 . S
C420 C422 1.419 . S
C421 C416 1.425 . S
C421 C418 1.409 . S
C421 C419 1.415 . S
C422 H412 0.930 . S
C422 C420 1.419 . S
C422 C423 1.362 . S
C423 H413 0.930 . S
C423 C416 1.409 . S
C423 C422 1.362 . S
H424 C430 0.930 . S
H425 C433 0.930 . S
H426 C434 0.930 . S
H427 C435 0.930 . S
H428 C438 0.930 . S
H429 C439 0.930 . S
C430 H424 0.930 . S
C430 C431 1.355 . S
C430 C432 1.415 . S
C431 C430 1.355 . S
C431 C433 1.419 . S
C432 C430 1.415 . S
C432 C437 1.425 . S
C432 C439 1.409 . S
C433 H425 0.930 . S
C433 C431 1.419 . S
C433 C434 1.362 . S
C434 H426 0.930 . S
C434 C433 1.362 . S
C434 C437 1.409 . S
C435 H427 0.930 . S
C435 C436 1.355 . S
C435 C437 1.415 . S
C436 C435 1.355 . S
C436 C438 1.419 . S
C437 C432 1.425 . S
C437 C434 1.409 . S
C437 C435 1.415 . S
C438 H428 0.930 . S
C438 C436 1.419 . S
C438 C439 1.362 . S
C439 H429 0.930 . S
C439 C432 1.409 . S
C439 C438 1.362 . S
C191 C7 1.531 . S
C196 N71 1.506 . S
C207 N2 1.389 . S
C212 N25 1.379 . S
C223 C62 1.620 . S
C228 C30 1.603 . S
C239 C76 1.546 . S
C244 N58 1.472 . S
C255 C16 1.449 . S
C260 N127 1.452 . S
C271 N12 1.417 . S
C276 N104 1.413 . S
C287 C108 1.592 . S
C292 C53 1.584 . S
C303 N48 1.536 . S
C308 C131 1.588 . S
C319 C154 1.414 . S
C324 N117 1.372 . S
C335 N94 1.435 . S
C340 N150 1.464 . S
C351 C99 1.563 . S
C356 C168 1.573 . S
C367 C122 1.643 . S
C372 N163 1.587 . S
C383 C145 1.484 . S
C388 N81 1.409 . S
C399 N35 1.447 . S
C404 N140 1.468 1_556 S
C415 C39 1.565 . S
C420 C177 1.568 . S
C431 C85 1.575 . S
C436 N173 1.491 . S
