# Generated by pormake.
# Topology umj, (4)-cn, num edge types: 1
# Building blocks:
#     Node 0, Type 0, BuildingBlock: KOZSID_clean_sbu_0, # of connection points: 4
#     Node 1, Type 0, BuildingBlock: KOZSID_clean_sbu_0, # of connection points: 4
#     Node 2, Type 0, BuildingBlock: KOZSID_clean_sbu_0, # of connection points: 4
#     Node 3, Type 0, BuildingBlock: KOZSID_clean_sbu_0, # of connection points: 4
#     Node 4, Type 0, BuildingBlock: KOZSID_clean_sbu_0, # of connection points: 4
#     Node 5, Type 0, BuildingBlock: KOZSID_clean_sbu_0, # of connection points: 4
#     Node 6, Type 0, BuildingBlock: KOZSID_clean_sbu_0, # of connection points: 4
#     Node 7, Type 0, BuildingBlock: KOZSID_clean_sbu_0, # of connection points: 4
#     Node 8, Type 0, BuildingBlock: KOZSID_clean_sbu_0, # of connection points: 4
#     Node 9, Type 0, BuildingBlock: KOZSID_clean_sbu_0, # of connection points: 4
#     Node 10, Type 0, BuildingBlock: KOZSID_clean_sbu_0, # of connection points: 4
#     Node 11, Type 0, BuildingBlock: KOZSID_clean_sbu_0, # of connection points: 4
#     Edge 12, Type (0, 0), BuildingBlock: TEMPAE_clean_linker_10, # of connection points: 2
#     Edge 13, Type (0, 0), BuildingBlock: TEMPAE_clean_linker_10, # of connection points: 2
#     Edge 14, Type (0, 0), BuildingBlock: TEMPAE_clean_linker_10, # of connection points: 2
#     Edge 15, Type (0, 0), BuildingBlock: TEMPAE_clean_linker_10, # of connection points: 2
#     Edge 16, Type (0, 0), BuildingBlock: TEMPAE_clean_linker_10, # of connection points: 2
#     Edge 17, Type (0, 0), BuildingBlock: TEMPAE_clean_linker_10, # of connection points: 2
#     Edge 18, Type (0, 0), BuildingBlock: TEMPAE_clean_linker_10, # of connection points: 2
#     Edge 19, Type (0, 0), BuildingBlock: TEMPAE_clean_linker_10, # of connection points: 2
#     Edge 20, Type (0, 0), BuildingBlock: TEMPAE_clean_linker_10, # of connection points: 2
#     Edge 21, Type (0, 0), BuildingBlock: TEMPAE_clean_linker_10, # of connection points: 2
#     Edge 22, Type (0, 0), BuildingBlock: TEMPAE_clean_linker_10, # of connection points: 2
#     Edge 23, Type (0, 0), BuildingBlock: TEMPAE_clean_linker_10, # of connection points: 2
#     Edge 24, Type (0, 0), BuildingBlock: TEMPAE_clean_linker_10, # of connection points: 2
#     Edge 25, Type (0, 0), BuildingBlock: TEMPAE_clean_linker_10, # of connection points: 2
#     Edge 26, Type (0, 0), BuildingBlock: TEMPAE_clean_linker_10, # of connection points: 2
#     Edge 27, Type (0, 0), BuildingBlock: TEMPAE_clean_linker_10, # of connection points: 2
#     Edge 28, Type (0, 0), BuildingBlock: TEMPAE_clean_linker_10, # of connection points: 2
#     Edge 29, Type (0, 0), BuildingBlock: TEMPAE_clean_linker_10, # of connection points: 2
#     Edge 30, Type (0, 0), BuildingBlock: TEMPAE_clean_linker_10, # of connection points: 2
#     Edge 31, Type (0, 0), BuildingBlock: TEMPAE_clean_linker_10, # of connection points: 2
#     Edge 32, Type (0, 0), BuildingBlock: TEMPAE_clean_linker_10, # of connection points: 2
#     Edge 33, Type (0, 0), BuildingBlock: TEMPAE_clean_linker_10, # of connection points: 2
#     Edge 34, Type (0, 0), BuildingBlock: TEMPAE_clean_linker_10, # of connection points: 2
#     Edge 35, Type (0, 0), BuildingBlock: TEMPAE_clean_linker_10, # of connection points: 2
# Relax obj value: 0.054
# Max RMSD: 0.159
# Mean RMSD: 0.159
data_MOF--net-umj--node1-KOZSID_clean_sbu_0--edge1-TEMPAE_clean_linker_10
_symmetry_space_group_name_H-M    P1
_symmetry_Int_Tables_number       1
_symmetry_cell_setting            triclinic
loop_
_symmetry_equiv_pos_as_xyz
'x, y, z'
_cell_length_a     39.530831
_cell_length_b     39.48891
_cell_length_c     94.927466
_cell_angle_alpha  90.015027
_cell_angle_beta   89.959423
_cell_angle_gamma 120.13763
loop_
_atom_site_label
_atom_site_type_symbol
_atom_site_fract_x
_atom_site_fract_y
_atom_site_fract_z
_atom_type_partial_charge
C0 C 0.03605 0.25607 0.04872 0.0
C1 C 1.00595 0.24484 0.03909 0.0
C2 C 0.97505 0.24331 0.04636 0.0
C3 C 0.98799 0.25364 0.05999 0.0
N4 N 0.02498 0.26154 0.06167 0.0
Co5 Co 0.05464 0.27586 0.07962 0.0
N6 N 1.00635 0.25517 0.09118 0.0
C7 C 0.97139 0.24833 0.08638 0.0
C8 C 0.94377 0.23675 0.09684 0.0
C9 C 0.96269 0.23688 0.10898 0.0
C10 C 1.00097 0.24837 0.10526 0.0
N11 N 0.08512 0.29001 0.09739 0.0
C12 C 0.07329 0.27722 0.1107 0.0
C13 C 0.10529 0.29104 0.11971 0.0
C14 C 0.13772 0.31516 0.11194 0.0
C15 C 0.12409 0.31399 0.09858 0.0
N16 N 0.10292 0.29714 0.0681 0.0
C17 C 0.13943 0.32295 0.07235 0.0
C18 C 0.16692 0.33218 0.06197 0.0
C19 C 0.1464 0.31067 0.05049 0.0
C20 C 0.10745 0.28941 0.05458 0.0
N21 N 0.05754 0.32769 0.07935 0.0
C22 C 0.04827 0.39489 0.0786 0.0
C23 C 0.04427 0.37427 0.09118 0.0
C24 C 0.04958 0.34166 0.09136 0.0
C25 C 0.05885 0.3815 0.06649 0.0
C26 C 0.06313 0.34806 0.06707 0.0
N27 N 0.05006 0.22351 0.07995 0.0
C28 C 0.07738 0.18087 0.08235 0.0
C29 C 0.04028 0.14708 0.08059 0.0
C30 C 1.0085 0.1531 0.07854 0.0
C31 C 1.014 0.19099 0.0781 0.0
C32 C 0.08159 0.21859 0.08206 0.0
H33 H 0.98864 0.19377 0.07631 0.0
H34 H 0.11035 0.24375 0.08351 0.0
H35 H 0.04563 0.32685 0.10126 0.0
H36 H 0.06999 0.3381 0.05746 0.0
C37 C 0.96474 0.24899 0.07185 0.0
C38 C 0.07539 0.26309 0.04532 0.0
C39 C 0.03231 0.25691 0.11553 0.0
C40 C 0.1476 0.33011 0.08668 0.0
H41 H 1.00624 0.23825 0.02804 0.0
H42 H 0.94605 0.23388 0.04232 0.0
H43 H 0.9134 0.22877 0.09577 0.0
H44 H 0.94994 0.23025 0.11941 0.0
H45 H 0.10528 0.28512 0.13084 0.0
H46 H 0.16777 0.33064 0.11552 0.0
H47 H 0.19836 0.35036 0.06289 0.0
H48 H 0.15876 0.31021 0.04036 0.0
H49 H 0.0357 0.38212 0.1009 0.0
H50 H 0.0636 0.39642 0.05651 0.0
H51 H 0.10323 0.17843 0.08378 0.0
H52 H 0.97902 0.12867 0.07746 0.0
C53 C 0.77986 0.02888 0.38189 0.0
C54 C 0.76364 0.99873 0.37214 0.0
C55 C 0.73421 0.96674 0.37903 0.0
C56 C 0.73406 0.9791 0.39258 0.0
N57 N 0.76152 0.01676 0.39452 0.0
Co58 Co 0.77338 0.04606 0.41246 0.0
N59 N 0.74735 0.99759 0.42387 0.0
C60 C 0.72183 0.96166 0.41893 0.0
C61 C 0.71065 0.93331 0.42912 0.0
C62 C 0.72998 0.95277 0.44115 0.0
C63 C 0.75158 0.99229 0.43775 0.0
N64 N 0.78582 0.07626 0.43017 0.0
C65 C 0.785 0.06456 0.44362 0.0
C66 C 0.79177 0.0945 0.45297 0.0
C67 C 0.79737 0.12586 0.44502 0.0
C68 C 0.79332 0.11341 0.43133 0.0
N69 N 0.79903 0.09458 0.40116 0.0
C70 C 0.8055 0.12997 0.4052 0.0
C71 C 0.82406 0.1581 0.39501 0.0
C72 C 0.8295 0.13904 0.38391 0.0
C73 C 0.8139 0.10027 0.38801 0.0
N74 N 0.72262 0.04525 0.41139 0.0
C75 C 0.64611 0.0356 0.40999 0.0
C76 C 0.6627 0.03336 0.42282 0.0
C77 C 0.70026 0.0378 0.42327 0.0
C78 C 0.6699 0.04421 0.3979 0.0
C79 C 0.70785 0.0492 0.39883 0.0
N80 N 0.82301 0.04518 0.41359 0.0
C81 C 0.89313 0.07607 0.41704 0.0
C82 C 0.89181 0.03995 0.41539 0.0
C83 C 0.85537 1.00699 0.41259 0.0
C84 C 0.82183 1.01024 0.41163 0.0
C85 C 0.85837 0.07799 0.41624 0.0
H86 H 0.79475 0.98402 0.40927 0.0
H87 H 0.85999 0.10588 0.4178 0.0
H88 H 0.71079 0.03438 0.43333 0.0
H89 H 0.72489 0.05532 0.3893 0.0
C90 C 0.7157 0.95497 0.40432 0.0
C91 C 0.81162 0.0691 0.379 0.0
C92 C 0.77397 0.02446 0.4479 0.0
C93 C 0.80107 0.13694 0.41935 0.0
H94 H 0.77247 0.99962 0.36129 0.0
H95 H 0.7167 0.93742 0.37487 0.0
H96 H 0.69237 0.90197 0.42779 0.0
H97 H 0.72851 0.93912 0.45118 0.0
H98 H 0.79167 0.09363 0.46436 0.0
H99 H 0.80412 0.15445 0.4488 0.0
H100 H 0.8342 0.18909 0.3958 0.0
H101 H 0.84339 0.15214 0.37398 0.0
H102 H 0.6469 0.02808 0.43264 0.0
H103 H 0.65912 0.04614 0.38764 0.0
H104 H 0.92063 0.10245 0.41921 0.0
H105 H 0.85273 0.9786 0.41097 0.0
C106 C 0.76753 0.78068 0.71354 0.0
C107 C 0.78015 0.76174 0.7045 0.0
C108 C 0.78027 0.73223 0.71219 0.0
C109 C 0.76776 0.73482 0.72548 0.0
N110 N 0.75981 0.76402 0.72653 0.0
Co111 Co 0.74303 0.77976 0.74383 0.0
N112 N 0.76162 0.75215 0.7563 0.0
C113 C 0.76873 0.72369 0.75211 0.0
C114 C 0.77826 0.70747 0.7631 0.0
C115 C 0.77648 0.72651 0.77494 0.0
C116 C 0.76615 0.75364 0.77052 0.0
N117 N 0.72673 0.79675 0.76095 0.0
C118 C 0.73774 0.79811 0.77454 0.0
C119 C 0.72307 0.81679 0.78288 0.0
C120 C 0.70013 0.82493 0.7744 0.0
C121 C 0.70286 0.81192 0.7613 0.0
N122 N 0.72353 0.8065 0.7314 0.0
C123 C 0.69722 0.81725 0.7348 0.0
C124 C 0.68955 0.83527 0.72391 0.0
C125 C 0.71265 0.83607 0.713 0.0
C126 C 0.73321 0.8185 0.71793 0.0
N127 N 0.69118 0.73077 0.74299 0.0
C128 C 0.62433 0.65444 0.74181 0.0
C129 C 0.64059 0.6727 0.75472 0.0
C130 C 0.67382 0.7104 0.75508 0.0
C131 C 0.64144 0.67625 0.7295 0.0
C132 C 0.67424 0.71435 0.73032 0.0
N133 N 0.79536 0.82759 0.74467 0.0
C134 C 0.8379 0.89793 0.74642 0.0
C135 C 0.87155 0.89453 0.74485 0.0
C136 C 0.86571 0.8566 0.74339 0.0
C137 C 0.8279 0.82397 0.7433 0.0
C138 C 0.80023 0.86424 0.74628 0.0
H139 H 0.82516 0.79564 0.74202 0.0
H140 H 0.77505 0.86787 0.74737 0.0
H141 H 0.68621 0.72234 0.76523 0.0
H142 H 0.68665 0.73002 0.72062 0.0
C143 C 0.77031 0.71618 0.7377 0.0
C144 C 0.76116 0.81304 0.70956 0.0
C145 C 0.75696 0.77724 0.78018 0.0
C146 C 0.68829 0.81884 0.74891 0.0
H147 H 0.78853 0.76867 0.69356 0.0
H148 H 0.79019 0.71258 0.70869 0.0
H149 H 0.786 0.68481 0.76259 0.0
H150 H 0.78134 0.72038 0.78561 0.0
H151 H 0.72761 0.82314 0.79403 0.0
H152 H 0.68441 0.83975 0.77735 0.0
H153 H 0.67141 0.84861 0.72414 0.0
H154 H 0.71468 0.8488 0.70272 0.0
H155 H 0.62869 0.65731 0.76454 0.0
H156 H 0.62966 0.66388 0.71925 0.0
H157 H 0.8405 0.92643 0.74749 0.0
H158 H 0.89032 0.85185 0.74244 0.0
C159 C 0.98352 0.74716 0.05094 0.0
C160 C 1.00775 0.75203 0.03958 0.0
C161 C 0.04223 0.75715 0.04502 0.0
C162 C 0.03719 0.75459 0.05937 0.0
N163 N 1.00174 0.74833 0.06323 0.0
Co164 Co 0.98155 0.73842 0.08278 0.0
N165 N 0.03476 0.76271 0.09105 0.0
C166 C 0.06732 0.76943 0.0842 0.0
C167 C 0.10018 0.78856 0.09247 0.0
C168 C 0.08723 0.79376 0.10532 0.0
C169 C 0.04697 0.7771 0.10423 0.0
N170 N 0.9607 0.72735 0.1022 0.0
C171 C 0.97918 0.74178 0.11456 0.0
C172 C 0.95444 0.7224 0.12585 0.0
C173 C 0.91911 0.69558 0.12025 0.0
C174 C 0.92436 0.69964 0.10595 0.0
N175 N 0.92823 0.71473 0.07469 0.0
C176 C 0.89448 0.69235 0.08168 0.0
C177 C 0.86243 0.68813 0.0746 0.0
C178 C 0.8768 0.70853 0.06234 0.0
C179 C 0.91691 0.72255 0.06221 0.0
N180 N 0.9795 0.687 0.08238 0.0
C181 C 0.9888 0.62046 0.0803 0.0
C182 C 0.96986 0.62944 0.06966 0.0
C183 C 0.96564 0.66281 0.07086 0.0
C184 C 1.00134 0.64454 0.09224 0.0
C185 C 0.99597 0.67706 0.09316 0.0
N186 N 0.9854 0.79043 0.08308 0.0
C187 C 0.9598 0.83359 0.08805 0.0
C188 C 0.99428 0.8665 0.08301 0.0
C189 C 0.02408 0.85987 0.07822 0.0
C190 C 0.01896 0.82214 0.07821 0.0
C191 C 0.95605 0.79602 0.08806 0.0
H192 H 0.04266 0.81884 0.07426 0.0
H193 H 0.92937 0.7715 0.09203 0.0
H194 H 0.9523 0.66974 0.06226 0.0
H195 H 1.00653 0.69498 0.10248 0.0
C196 C 0.06641 0.76362 0.06954 0.0
C197 C 0.9427 0.73911 0.04972 0.0
C198 C 0.02035 0.77236 0.11596 0.0
C199 C 0.89456 0.68404 0.09596 0.0
H200 H 1.00127 0.75157 0.02849 0.0
H201 H 0.06818 0.76304 0.0392 0.0
H202 H 0.13019 0.79906 0.08937 0.0
H203 H 0.10543 0.80816 0.11437 0.0
H204 H 0.9611 0.727 0.13698 0.0
H205 H 0.89242 0.6766 0.12594 0.0
H206 H 0.83258 0.67448 0.07837 0.0
H207 H 0.8593 0.71271 0.05456 0.0
H208 H 0.9595 0.61153 0.06027 0.0
H209 H 0.01573 0.63854 0.10078 0.0
H210 H 0.93554 0.83653 0.0918 0.0
H211 H 0.0518 0.88376 0.07461 0.0
C212 C 0.23982 0.99646 0.38044 0.0
C213 C 0.2483 0.02753 0.37152 0.0
C214 C 0.25947 0.0596 0.3799 0.0
C215 C 0.25725 0.04636 0.39342 0.0
N216 N 0.24609 1.00808 0.39418 0.0
Co217 Co 0.23678 0.97719 0.41196 0.0
N218 N 0.25988 0.02528 0.42405 0.0
C219 C 0.26836 0.06127 0.41979 0.0
C220 C 0.28131 0.08836 0.43044 0.0
C221 C 0.28054 0.06826 0.44226 0.0
C222 C 0.26737 0.02988 0.43814 0.0
N223 N 0.22765 0.94603 0.4296 0.0
C224 C 0.24128 0.95782 0.44286 0.0
C225 C 0.23193 0.92601 0.45158 0.0
C226 C 0.20998 0.89318 0.44377 0.0
C227 C 0.20792 0.90666 0.43069 0.0
N228 N 0.21308 0.92882 0.39999 0.0
C229 C 0.19378 0.89153 0.40467 0.0
C230 C 0.18029 0.86404 0.39418 0.0
C231 C 0.19106 0.88501 0.38198 0.0
C232 C 0.21059 0.92435 0.38577 0.0
N233 N 0.28953 0.98241 0.41008 0.0
C234 C 0.36607 0.99224 0.40904 0.0
C235 C 0.33262 0.95509 0.4108 0.0
C236 C 0.29496 0.95086 0.41137 0.0
C237 C 0.35989 0.02409 0.40751 0.0
C238 C 0.32185 0.01857 0.40794 0.0
N239 N 0.18476 0.97342 0.4139 0.0
C240 C 0.13008 0.9744 0.40273 0.0
C241 C 0.11882 0.98424 0.41544 0.0
C242 C 0.14019 0.98591 0.42755 0.0
C243 C 0.17268 0.9804 0.42656 0.0
C244 C 0.16235 0.96861 0.40226 0.0
H245 H 0.18861 0.98303 0.43606 0.0
H246 H 0.16982 0.96168 0.39227 0.0
H247 H 0.27041 0.92197 0.41302 0.0
H248 H 0.31892 0.044 0.40665 0.0
C249 C 0.2661 0.06902 0.40559 0.0
C250 C 0.22139 0.9558 0.37551 0.0
C251 C 0.25866 0.99806 0.44813 0.0
C252 C 0.19195 0.88318 0.41892 0.0
H253 H 0.24531 0.02668 0.36017 0.0
H254 H 0.2677 0.08894 0.37654 0.0
H255 H 0.29019 0.11907 0.4297 0.0
H256 H 0.2879 0.08041 0.45277 0.0
H257 H 0.23943 0.92644 0.46257 0.0
H258 H 0.19787 0.86308 0.44711 0.0
H259 H 0.16472 0.83249 0.39527 0.0
H260 H 0.18423 0.87263 0.3715 0.0
H261 H 0.33549 0.9294 0.4121 0.0
H262 H 0.38437 0.05335 0.40587 0.0
H263 H 0.11514 0.97251 0.39297 0.0
H264 H 0.13229 0.99186 0.43779 0.0
C265 C 0.2585 0.24123 0.71385 0.0
C266 C 0.24656 0.25981 0.70437 0.0
C267 C 0.24572 0.28951 0.71169 0.0
C268 C 0.25714 0.28737 0.7252 0.0
N269 N 0.26505 0.25825 0.72676 0.0
Co270 Co 0.28066 0.24336 0.74453 0.0
N271 N 0.26122 0.27153 0.75633 0.0
C272 C 0.25436 0.29975 0.75165 0.0
C273 C 0.24398 0.31638 0.76225 0.0
C274 C 0.24489 0.29786 0.77437 0.0
C275 C 0.2556 0.27061 0.77048 0.0
N276 N 0.29581 0.22727 0.76213 0.0
C277 C 0.28385 0.22652 0.77556 0.0
C278 C 0.298 0.20831 0.78439 0.0
C279 C 0.32156 0.19984 0.77638 0.0
C280 C 0.31969 0.2122 0.76307 0.0
N281 N 0.30099 0.21604 0.73277 0.0
C282 C 0.32706 0.20549 0.73675 0.0
C283 C 0.33569 0.18716 0.72623 0.0
C284 C 0.31352 0.18596 0.71495 0.0
C285 C 0.29248 0.2036 0.71931 0.0
N286 N 0.33254 0.29232 0.74377 0.0
C287 C 0.39947 0.36857 0.74244 0.0
C288 C 0.38238 0.3511 0.75537 0.0
C289 C 0.34911 0.31341 0.7558 0.0
C290 C 0.38317 0.34602 0.73021 0.0
C291 C 0.35032 0.30798 0.73112 0.0
N292 N 0.22829 0.19556 0.74524 0.0
C293 C 0.18568 0.12531 0.74737 0.0
C294 C 0.15212 0.12859 0.74525 0.0
C295 C 0.15804 0.16641 0.74333 0.0
C296 C 0.19585 0.19906 0.74334 0.0
C297 C 0.22334 0.15901 0.74731 0.0
H298 H 0.19866 0.22731 0.74169 0.0
H299 H 0.24845 0.15547 0.74883 0.0
H300 H 0.33604 0.30206 0.76594 0.0
H301 H 0.33857 0.29173 0.72148 0.0
C302 C 0.25375 0.30655 0.73712 0.0
C303 C 0.2654 0.20889 0.71035 0.0
C304 C 0.26403 0.24742 0.78062 0.0
C305 C 0.33506 0.20466 0.751 0.0
H306 H 0.23913 0.25257 0.69339 0.0
H307 H 0.2361 0.30903 0.70778 0.0
H308 H 0.23621 0.33894 0.7613 0.0
H309 H 0.23918 0.30439 0.78487 0.0
H310 H 0.29268 0.20244 0.79554 0.0
H311 H 0.33708 0.1852 0.77977 0.0
H312 H 0.35393 0.17399 0.72693 0.0
H313 H 0.31248 0.17301 0.7048 0.0
H314 H 0.39367 0.36709 0.76513 0.0
H315 H 0.3956 0.35777 0.71997 0.0
H316 H 0.18302 0.09688 0.74881 0.0
H317 H 0.1335 0.17109 0.74195 0.0
C318 C 0.78174 1.0029 0.62056 0.0
C319 C 0.80208 0.03326 0.63001 0.0
C320 C 0.81216 0.0672 0.6229 0.0
C321 C 0.79758 0.0557 0.60954 0.0
N322 N 0.77799 0.01641 0.6078 0.0
Co323 Co 0.75648 0.98731 0.58965 0.0
N324 N 0.77713 0.03705 0.5785 0.0
C325 C 0.79392 0.0738 0.58381 0.0
C326 C 0.80772 0.10219 0.57359 0.0
C327 C 0.79949 0.08246 0.56108 0.0
C328 C 0.78063 0.04283 0.56431 0.0
N329 N 0.73661 0.95782 0.57156 0.0
C330 C 0.74209 0.97096 0.5581 0.0
C331 C 0.72149 0.94043 0.54865 0.0
C332 C 0.70402 0.90677 0.55635 0.0
C333 C 0.71437 0.91859 0.57 0.0
N334 N 0.73477 0.93749 0.60071 0.0
C335 C 0.71108 0.90077 0.59589 0.0
C336 C 0.70125 0.87229 0.60589 0.0
C337 C 0.72035 0.89193 0.61777 0.0
C338 C 0.7409 0.93143 0.61429 0.0
N339 N 0.70605 0.98777 0.59235 0.0
C340 C 0.63727 0.99429 0.59359 0.0
C341 C 0.63605 0.96023 0.58857 0.0
C342 C 0.67034 0.95762 0.58805 0.0
C343 C 0.67348 0.02423 0.59836 0.0
C344 C 0.70658 0.02013 0.59789 0.0
N345 N 0.80686 0.98814 0.58702 0.0
C346 C 0.8458 0.95641 0.58548 0.0
C347 C 0.88068 0.99278 0.5862 0.0
C348 C 0.87748 0.02634 0.58655 0.0
C349 C 0.84102 0.02342 0.58709 0.0
C350 C 0.80924 0.95475 0.58582 0.0
H351 H 0.84152 0.05047 0.58786 0.0
H352 H 0.7832 0.92643 0.58537 0.0
H353 H 0.66702 0.93093 0.58406 0.0
H354 H 0.7323 0.04417 0.60196 0.0
C355 C 0.80348 0.08082 0.59817 0.0
C356 C 0.76759 0.96176 0.62396 0.0
C357 C 0.76776 0.01159 0.55372 0.0
C358 C 0.7032 0.89365 0.58158 0.0
H359 H 0.80955 0.03105 0.6408 0.0
H360 H 0.82921 0.0968 0.62687 0.0
H361 H 0.82425 0.1336 0.57508 0.0
H362 H 0.80794 0.09603 0.55082 0.0
H363 H 0.71961 0.94215 0.53733 0.0
H364 H 0.68607 0.8772 0.55245 0.0
H365 H 0.68393 0.84088 0.60451 0.0
H366 H 0.72025 0.87856 0.62774 0.0
H367 H 0.60878 0.93544 0.58507 0.0
H368 H 0.67694 0.05158 0.60223 0.0
H369 H 0.84663 0.92943 0.58503 0.0
H370 H 0.90324 0.05527 0.58658 0.0
C371 C 0.78822 0.75072 0.95273 0.0
C372 C 0.76683 0.75517 0.96346 0.0
C373 C 0.73735 0.75837 0.95716 0.0
C374 C 0.74191 0.75525 0.94298 0.0
N375 N 0.77249 0.75044 0.93993 0.0
Co376 Co 0.78626 0.74072 0.92075 0.0
N377 N 0.75434 0.76024 0.9113 0.0
C378 C 0.72619 0.7646 0.91756 0.0
C379 C 0.70703 0.7761 0.90838 0.0
C380 C 0.72378 0.77861 0.89548 0.0
C381 C 0.75241 0.76855 0.89752 0.0
N382 N 0.80073 0.73119 0.90166 0.0
C383 C 0.79796 0.74514 0.88895 0.0
C384 C 0.81598 0.73494 0.87852 0.0
C385 C 0.82838 0.71201 0.88477 0.0
C386 C 0.81823 0.71027 0.89866 0.0
N387 N 0.81813 0.72104 0.93013 0.0
C388 C 0.83432 0.70193 0.92383 0.0
C389 C 0.86191 0.70004 0.93194 0.0
C390 C 0.86309 0.71875 0.94414 0.0
C391 C 0.8345 0.72936 0.94315 0.0
N392 N 0.73907 0.68725 0.92093 0.0
C393 C 0.66313 0.61973 0.92236 0.0
C394 C 0.67851 0.6396 0.90961 0.0
C395 C 0.71607 0.67308 0.90913 0.0
C396 C 0.68782 0.63322 0.9342 0.0
C397 C 0.72572 0.66632 0.93321 0.0
N398 N 0.8322 0.79458 0.92061 0.0
C399 C 0.90115 0.84034 0.91675 0.0
C400 C 0.89695 0.87242 0.92074 0.0
C401 C 0.85917 0.8641 0.92459 0.0
C402 C 0.82763 0.82544 0.92451 0.0
C403 C 0.86866 0.802 0.9167 0.0
H404 H 0.79936 0.82066 0.92762 0.0
H405 H 0.87322 0.77839 0.91355 0.0
H406 H 0.72561 0.68843 0.89926 0.0
H407 H 0.74358 0.67584 0.94257 0.0
C408 C 0.72102 0.76081 0.93219 0.0
C409 C 0.82114 0.74362 0.95512 0.0
C410 C 0.77398 0.76308 0.88594 0.0
C411 C 0.83184 0.69637 0.90935 0.0
H412 H 0.77138 0.75534 0.9747 0.0
H413 H 0.71553 0.76295 0.96231 0.0
H414 H 0.68381 0.78215 0.91078 0.0
H415 H 0.7152 0.78599 0.88565 0.0
H416 H 0.81926 0.74262 0.86746 0.0
H417 H 0.84455 0.69968 0.8799 0.0
H418 H 0.88141 0.68953 0.92887 0.0
H419 H 0.88332 0.72424 0.95266 0.0
H420 H 0.66091 0.63046 0.90013 0.0
H421 H 0.67779 0.61849 0.94425 0.0
H422 H 0.92949 0.84455 0.91384 0.0
H423 H 0.85359 0.88735 0.9275 0.0
C424 C 0.03443 0.77918 0.2863 0.0
C425 C 1.0039 0.76289 0.2959 0.0
C426 C 0.97202 0.73389 0.28883 0.0
C427 C 0.98475 0.7341 0.2753 0.0
N428 N 0.02253 0.76143 0.27356 0.0
Co429 Co 0.05225 0.77394 0.2557 0.0
N430 N 1.00419 0.74864 0.24412 0.0
C431 C 0.96815 0.72285 0.24886 0.0
C432 C 0.94019 0.71234 0.23857 0.0
C433 C 0.96007 0.7325 0.22668 0.0
C434 C 0.99939 0.75394 0.23028 0.0
N435 N 0.08284 0.78698 0.23808 0.0
C436 C 0.07161 0.78724 0.22467 0.0
C437 C 0.10153 0.79405 0.21532 0.0
C438 C 0.13245 0.79855 0.22325 0.0
C439 C 0.11974 0.79387 0.23693 0.0
N440 N 0.10047 0.79878 0.26708 0.0
C441 C 0.13566 0.80465 0.2631 0.0
C442 C 0.16345 0.82172 0.27346 0.0
C443 C 0.14437 0.82675 0.28464 0.0
C444 C 0.10594 0.8125 0.28039 0.0
N445 N 0.05109 0.72295 0.2566 0.0
C446 C 0.04056 0.64632 0.25808 0.0
C447 C 0.03923 0.66294 0.24517 0.0
C448 C 0.04406 0.70076 0.24467 0.0
C449 C 0.04834 0.66955 0.2702 0.0
C450 C 0.05408 0.70776 0.26922 0.0
N451 N 0.0515 0.82381 0.2549 0.0
C452 C 0.08222 0.8944 0.25256 0.0
C453 C 0.04635 0.89308 0.25511 0.0
C454 C 1.0134 0.85604 0.2572 0.0
C455 C 0.01657 0.82239 0.25713 0.0
C456 C 0.08417 0.8595 0.25252 0.0
H457 H 0.99028 0.79501 0.25902 0.0
H458 H 0.11204 0.86132 0.2507 0.0
H459 H 0.04107 0.71156 0.2346 0.0
H460 H 0.06008 0.7247 0.27877 0.0
C461 C 0.96099 0.71618 0.26344 0.0
C462 C 0.07484 0.8103 0.2894 0.0
C463 C 0.03195 0.77745 0.2204 0.0
C464 C 0.14289 0.80064 0.24893 0.0
H465 H 1.00442 0.77132 0.30678 0.0
H466 H 0.94256 0.71645 0.29286 0.0
H467 H 0.90884 0.69406 0.23974 0.0
H468 H 0.94681 0.73175 0.21665 0.0
H469 H 0.10091 0.79476 0.20393 0.0
H470 H 0.16096 0.80508 0.21949 0.0
H471 H 0.19423 0.83097 0.27279 0.0
H472 H 0.15722 0.83937 0.29474 0.0
H473 H 0.03312 0.64627 0.23551 0.0
H474 H 0.05009 0.6583 0.28041 0.0
H475 H 0.10872 0.92217 0.25089 0.0
H476 H 0.98477 0.85272 0.25882 0.0
C477 C 0.25731 0.02315 0.62162 0.0
C478 C 0.23901 0.99271 0.63118 0.0
C479 C 0.22949 0.95904 0.62398 0.0
C480 C 0.24246 0.97074 0.61046 0.0
N481 N 0.2604 1.01 0.6087 0.0
Co482 Co 0.28035 0.03957 0.59055 0.0
N483 N 0.25763 0.98999 0.57915 0.0
C484 C 0.23868 0.95291 0.58424 0.0
C485 C 0.22341 0.92494 0.5739 0.0
C486 C 0.23291 0.94529 0.5615 0.0
C487 C 0.25399 0.98478 0.56494 0.0
N488 N 0.30034 0.06953 0.57256 0.0
C489 C 0.29561 0.05677 0.55907 0.0
C490 C 0.31762 0.0874 0.5498 0.0
C491 C 0.33544 0.12075 0.55765 0.0
C492 C 0.32398 0.10867 0.5712 0.0
N493 N 0.30233 0.08915 0.6018 0.0
C494 C 0.32483 0.12614 0.59702 0.0
C495 C 0.33377 0.15434 0.60705 0.0
C496 C 0.31505 0.13422 0.61892 0.0
C497 C 0.29568 0.09476 0.61537 0.0
N498 N 0.33066 0.03853 0.59265 0.0
C499 C 0.4003 0.03351 0.5938 0.0
C500 C 0.40181 0.06952 0.59191 0.0
C501 C 0.36705 0.07135 0.59137 0.0
C502 C 0.36322 1.00049 0.59528 0.0
C503 C 0.32965 1.00372 0.5949 0.0
N504 N 0.23023 0.03952 0.58849 0.0
C505 C 0.19222 0.07168 0.58495 0.0
C506 C 0.15712 0.0364 0.58746 0.0
C507 C 0.15966 1.00297 0.58992 0.0
C508 C 0.19579 1.00522 0.59052 0.0
C509 C 0.22842 0.07257 0.58548 0.0
H510 H 0.19492 0.97856 0.59284 0.0
H511 H 0.2547 0.10006 0.58363 0.0
H512 H 0.37056 0.09965 0.58988 0.0
H513 H 0.30327 0.9771 0.59635 0.0
C514 C 0.23269 0.94558 0.5988 0.0
C515 C 0.26958 0.0639 0.62501 0.0
C516 C 0.2695 0.01646 0.55445 0.0
C517 C 0.33393 0.13351 0.58278 0.0
H518 H 0.23204 0.99459 0.64208 0.0
H519 H 0.21298 0.92937 0.62793 0.0
H520 H 0.20614 0.89351 0.57522 0.0
H521 H 0.22442 0.93233 0.55114 0.0
H522 H 0.32025 0.08598 0.5385 0.0
H523 H 0.35419 0.15034 0.55389 0.0
H524 H 0.35046 0.18581 0.60573 0.0
H525 H 0.31464 0.1472 0.62891 0.0
H526 H 0.42963 0.09639 0.59094 0.0
H527 H 0.35958 0.97159 0.5965 0.0
H528 H 0.19188 0.09846 0.58289 0.0
H529 H 0.13365 0.97466 0.59145 0.0
C530 C 0.24743 0.25698 0.95374 0.0
C531 C 0.26572 0.24405 0.96296 0.0
C532 C 0.29467 0.24258 0.95536 0.0
C533 C 0.29242 0.25466 0.94197 0.0
N534 N 0.26395 0.26358 0.94074 0.0
Co535 Co 0.2491 0.28037 0.92324 0.0
N536 N 0.27583 0.2602 0.91103 0.0
C537 C 0.30366 0.25242 0.9154 0.0
C538 C 0.31939 0.24178 0.90456 0.0
C539 C 0.30067 0.24348 0.89263 0.0
C540 C 0.2742 0.25488 0.89685 0.0
N541 N 0.23292 0.29658 0.90591 0.0
C542 C 0.23122 0.28472 0.89241 0.0
C543 C 0.21325 0.29973 0.88387 0.0
C544 C 0.20592 0.32368 0.89213 0.0
C545 C 0.21866 0.32121 0.9053 0.0
N546 N 0.2233 0.3015 0.93542 0.0
C547 C 0.21344 0.3283 0.93174 0.0
C548 C 0.19591 0.33717 0.94248 0.0
C549 C 0.19449 0.31435 0.95359 0.0
C550 C 0.21123 0.29275 0.94893 0.0
N551 N 0.29891 0.33169 0.92389 0.0
C552 C 0.37595 0.39762 0.92473 0.0
C553 C 0.35714 0.38136 0.9119 0.0
C554 C 0.31915 0.34851 0.91171 0.0
C555 C 0.35446 0.38101 0.93714 0.0
C556 C 0.31596 0.34874 0.93648 0.0
N557 N 0.20047 0.22856 0.92257 0.0
C558 C 0.12999 0.18736 0.92082 0.0
C559 C 0.13232 0.15303 0.92231 0.0
C560 C 0.16987 0.15794 0.92376 0.0
C561 C 0.20307 0.19542 0.92395 0.0
C562 C 0.16424 0.22464 0.92096 0.0
H563 H 0.23103 0.1974 0.92527 0.0
H564 H 0.16138 0.2503 0.91986 0.0
H565 H 0.30684 0.33596 0.90161 0.0
H566 H 0.30048 0.33685 0.94625 0.0
C567 C 0.31083 0.25112 0.92985 0.0
C568 C 0.21593 0.2648 0.95761 0.0
C569 C 0.25098 0.26407 0.88701 0.0
C570 C 0.21219 0.33673 0.91755 0.0
H571 H 0.25877 0.2364 0.97394 0.0
H572 H 0.31375 0.23217 0.95902 0.0
H573 H 0.34147 0.2333 0.90524 0.0
H574 H 0.30655 0.2378 0.88202 0.0
H575 H 0.20675 0.29467 0.87274 0.0
H576 H 0.19173 0.33987 0.889 0.0
H577 H 0.18329 0.35594 0.94203 0.0
H578 H 0.18193 0.31322 0.96384 0.0
H579 H 0.37232 0.39297 0.90202 0.0
H580 H 0.36735 0.39281 0.94731 0.0
H581 H 0.10191 0.18563 0.91978 0.0
H582 H 0.17397 0.1329 0.92462 0.0
C583 C 1.00053 0.23821 0.28866 0.0
C584 C 0.03084 0.25793 0.29817 0.0
C585 C 0.06122 0.28758 0.29075 0.0
C586 C 0.0478 0.28429 0.27717 0.0
N587 N 1.011 0.25445 0.27563 0.0
Co588 Co 0.9807 0.23843 0.25779 0.0
N589 N 0.02841 0.26747 0.24604 0.0
C590 C 0.0632 0.29637 0.25073 0.0
C591 C 0.09032 0.31337 0.24016 0.0
C592 C 0.07125 0.29436 0.22805 0.0
C593 C 0.0334 0.26649 0.23191 0.0
N594 N 0.94968 0.22122 0.24012 0.0
C595 C 0.9613 0.22065 0.22675 0.0
C596 C 0.92913 0.2015 0.21786 0.0
C597 C 0.8967 0.19214 0.22577 0.0
C598 C 0.91056 0.20497 0.23908 0.0
N599 N 0.93285 0.21018 0.26949 0.0
C600 C 0.896 0.19831 0.26535 0.0
C601 C 0.86891 0.17979 0.27583 0.0
C602 C 0.89001 0.17991 0.28727 0.0
C603 C 0.92893 0.1985 0.28306 0.0
N604 N 0.97631 0.28655 0.2583 0.0
C605 C 0.98414 0.36218 0.25921 0.0
C606 C 0.9841 0.34446 0.24638 0.0
C607 C 0.98043 0.30712 0.24615 0.0
C608 C 0.97826 0.34013 0.27154 0.0
C609 C 0.97378 0.30238 0.27084 0.0
N610 N 0.98681 0.19154 0.25727 0.0
C611 C 0.96117 0.12168 0.25477 0.0
C612 C 0.99861 0.12618 0.2567 0.0
C613 C 0.02973 0.16445 0.25883 0.0
C614 C 0.02326 0.19623 0.25914 0.0
C615 C 0.95592 0.15455 0.25508 0.0
H616 H 0.04818 0.22483 0.26091 0.0
H617 H 0.92687 0.15004 0.2536 0.0
H618 H 0.98246 0.29566 0.23609 0.0
H619 H 0.96956 0.28654 0.28056 0.0
C620 C 0.07033 0.30355 0.26525 0.0
C621 C 0.96144 0.20565 0.29232 0.0
C622 C 1.0021 0.24258 0.22176 0.0
C623 C 0.88731 0.1969 0.25107 0.0
H624 H 0.03095 0.25155 0.30925 0.0
H625 H 0.09015 0.30798 0.29469 0.0
H626 H 0.12049 0.3365 0.24113 0.0
H627 H 0.08362 0.30095 0.21756 0.0
H628 H 0.92897 0.19561 0.20672 0.0
H629 H 0.86654 0.17663 0.22232 0.0
H630 H 0.8374 0.16579 0.27503 0.0
H631 H 0.87804 0.16729 0.29747 0.0
H632 H 0.98854 0.36004 0.23654 0.0
H633 H 0.9773 0.35205 0.28171 0.0
H634 H 0.93588 0.09291 0.25321 0.0
H635 H 0.05937 0.17021 0.26009 0.0
C636 C 0.98979 0.2637 0.19828 0.0
C637 C 1.00948 0.24899 0.20624 0.0
C638 C 0.99121 0.26423 0.1835 0.0
C639 C 0.01569 0.25302 0.17649 0.0
C640 C 0.03845 0.24149 0.18457 0.0
C641 C 0.03424 0.23857 0.19934 0.0
C642 C 0.96582 0.27612 0.17549 0.0
C643 C 0.06743 0.23254 0.17763 0.0
C644 C 1.00056 0.2205 0.13799 0.0
C645 C 0.0245 0.25591 0.13102 0.0
C646 C 0.99621 0.21937 0.15275 0.0
C647 C 0.01806 0.25412 0.16076 0.0
C648 C 0.04173 0.29003 0.15367 0.0
C649 C 0.04317 0.29065 0.1389 0.0
C650 C 0.96812 0.18106 0.15975 0.0
C651 C 0.06624 0.32796 0.16153 0.0
H652 H 0.97162 0.27306 0.20362 0.0
H653 H 0.05012 0.22795 0.20549 0.0
H654 H 0.98381 0.30691 0.17196 0.0
H655 H 0.95287 0.25755 0.16602 0.0
H656 H 0.94171 0.27405 0.18215 0.0
H657 H 0.08603 0.22853 0.18545 0.0
H658 H 0.05173 0.20545 0.17127 0.0
H659 H 0.08662 0.25666 0.17036 0.0
H660 H 0.98546 0.19372 0.1319 0.0
H661 H 0.0607 0.31832 0.13351 0.0
H662 H 0.94852 0.18521 0.16705 0.0
H663 H 0.98454 0.17055 0.1661 0.0
H664 H 0.9499 0.15802 0.15197 0.0
H665 H 0.04846 0.34195 0.16362 0.0
H666 H 0.09203 0.34885 0.15521 0.0
H667 H 0.07678 0.3232 0.17177 0.0
C668 C 0.8139 0.03973 0.46993 0.0
C669 C 0.77764 0.01747 0.46319 0.0
C670 C 0.81685 0.04123 0.48471 0.0
C671 C 0.78313 0.01793 0.49298 0.0
C672 C 0.74703 0.99309 0.48618 0.0
C673 C 0.74441 0.99437 0.47144 0.0
C674 C 0.85536 0.06996 0.49144 0.0
C675 C 0.71067 0.96621 0.49448 0.0
C676 C 0.79458 0.99933 0.53159 0.0
C677 C 0.77859 0.01961 0.53845 0.0
C678 C 0.79658 0.99869 0.51681 0.0
C679 C 0.78482 0.02107 0.50869 0.0
C680 C 0.77189 0.04435 0.51564 0.0
C681 C 0.76757 0.04222 0.53039 0.0
C682 C 0.80832 0.97165 0.50992 0.0
C683 C 0.76107 0.07037 0.5075 0.0
H684 H 0.83951 0.05829 0.46361 0.0
H685 H 0.71596 0.97846 0.46647 0.0
H686 H 0.85223 0.09315 0.49686 0.0
H687 H 0.86381 0.05537 0.49953 0.0
H688 H 0.87937 0.08407 0.48359 0.0
H689 H 0.68748 0.9436 0.48766 0.0
H690 H 0.71751 0.9513 0.50299 0.0
H691 H 0.69888 0.98349 0.49949 0.0
H692 H 0.8028 0.98153 0.53779 0.0
H693 H 0.75424 0.05714 0.53553 0.0
H694 H 0.83153 0.98752 0.50196 0.0
H695 H 0.7827 0.94798 0.50432 0.0
H696 H 0.81891 0.95805 0.51769 0.0
H697 H 0.78259 0.08607 0.49898 0.0
H698 H 0.75958 0.09228 0.51442 0.0
H699 H 0.73203 0.05229 0.50252 0.0
C700 C 0.72159 0.7565 0.80338 0.0
C701 C 0.75672 0.77148 0.79579 0.0
C702 C 0.72123 0.75607 0.81816 0.0
C703 C 0.75642 0.76756 0.82559 0.0
C704 C 0.79148 0.77947 0.81791 0.0
C705 C 0.79143 0.7824 0.80312 0.0
C706 C 0.68302 0.74365 0.82563 0.0
C707 C 0.82897 0.78869 0.82529 0.0
C708 C 0.77371 0.79934 0.86413 0.0
C709 C 0.76294 0.7639 0.87093 0.0
C710 C 0.76956 0.80059 0.84943 0.0
C711 C 0.75646 0.76598 0.84132 0.0
C712 C 0.74401 0.72991 0.8483 0.0
C713 C 0.74584 0.72917 0.86304 0.0
C714 C 0.77972 0.83901 0.84257 0.0
C715 C 0.73011 0.69216 0.84028 0.0
H716 H 0.69439 0.74666 0.79773 0.0
H717 H 0.81849 0.79323 0.79727 0.0
H718 H 0.66734 0.7115 0.82724 0.0
H719 H 0.68744 0.75802 0.83605 0.0
H720 H 0.66378 0.75056 0.8192 0.0
H721 H 0.85209 0.79238 0.81775 0.0
H722 H 0.84006 0.81608 0.83145 0.0
H723 H 0.82353 0.76491 0.8328 0.0
H724 H 0.78627 0.82612 0.87025 0.0
H725 H 0.73661 0.70158 0.86837 0.0
H726 H 0.75685 0.83472 0.83482 0.0
H727 H 0.80774 0.8507 0.83677 0.0
H728 H 0.78279 0.86124 0.85042 0.0
H729 H 0.69914 0.68021 0.83719 0.0
H730 H 0.73183 0.66969 0.84679 0.0
H731 H 0.74754 0.69693 0.83055 0.0
C732 C 0.05703 0.77994 0.13848 0.0
C733 C 0.03362 0.78964 0.1303 0.0
C734 C 0.05924 0.78503 0.15319 0.0
C735 C 0.03549 0.79766 0.15997 0.0
C736 C 1.0136 0.80964 0.15167 0.0
C737 C 1.01393 0.8066 0.13693 0.0
C738 C 0.08481 0.77408 0.16154 0.0
C739 C 0.98643 0.82153 0.15833 0.0
C740 C 1.00359 0.75186 0.19633 0.0
C741 C 0.02597 0.7837 0.20525 0.0
C742 C 1.00426 0.75678 0.18164 0.0
C743 C 0.03015 0.79384 0.17561 0.0
C744 C 0.05241 0.82624 0.18457 0.0
C745 C 0.04917 0.82096 0.19927 0.0
C746 C 0.97837 0.72181 0.17255 0.0
C747 C 0.08192 0.86574 0.17868 0.0
H748 H 0.07136 0.76568 0.13358 0.0
H749 H 0.99523 0.81345 0.13064 0.0
H750 H 0.09983 0.79532 0.1702 0.0
H751 H 0.0665 0.74478 0.16636 0.0
H752 H 0.1072 0.77296 0.15479 0.0
H753 H 0.97598 0.83535 0.1506 0.0
H754 H 0.96061 0.7951 0.16269 0.0
H755 H 1.00081 0.84213 0.16719 0.0
H756 H 0.98696 0.72268 0.20072 0.0
H757 H 0.06719 0.8455 0.20612 0.0
H758 H 0.99643 0.71216 0.16676 0.0
H759 H 0.96295 0.72978 0.16461 0.0
H760 H 0.95625 0.69674 0.17886 0.0
H761 H 0.10644 0.8637 0.17388 0.0
H762 H 0.09399 0.88879 0.18694 0.0
H763 H 0.06879 0.87488 0.17026 0.0
C764 C 0.24615 0.02981 0.5317 0.0
C765 C 0.26069 1.00895 0.53904 0.0
C766 C 0.24512 0.02987 0.51691 0.0
C767 C 0.2566 1.00652 0.50923 0.0
C768 C 0.26871 0.98323 0.51664 0.0
C769 C 0.27179 0.98568 0.53142 0.0
C770 C 0.23396 0.05669 0.5095 0.0
C771 C 0.27931 0.95637 0.50895 0.0
C772 C 0.22261 0.98264 0.47116 0.0
C773 C 0.2578 1.00415 0.46368 0.0
C774 C 0.22187 0.98268 0.48594 0.0
C775 C 0.2567 1.00702 0.49348 0.0
C776 C 0.29178 0.03113 0.48594 0.0
C777 C 0.29214 0.0286 0.47114 0.0
C778 C 0.18424 0.95515 0.49348 0.0
C779 C 0.32911 0.05913 0.4935 0.0
H780 H 0.23786 0.0481 0.53757 0.0
H781 H 0.28385 0.97018 0.53699 0.0
H782 H 0.259 0.07827 0.50306 0.0
H783 H 0.2092 0.03983 0.5022 0.0
H784 H 0.22563 0.07286 0.51701 0.0
H785 H 0.28252 0.93617 0.51625 0.0
H786 H 0.25664 0.93873 0.501 0.0
H787 H 0.30735 0.97397 0.50327 0.0
H788 H 0.19588 0.96409 0.4654 0.0
H789 H 0.31935 0.04532 0.46541 0.0
H790 H 0.17541 0.97171 0.50054 0.0
H791 H 0.18876 0.93472 0.50018 0.0
H792 H 0.15987 0.9377 0.48605 0.0
H793 H 0.32345 0.07636 0.50143 0.0
H794 H 0.35208 0.07969 0.48612 0.0
H795 H 0.34052 0.04246 0.4992 0.0
C796 C 0.29736 0.26904 0.80413 0.0
C797 C 0.26288 0.25366 0.79615 0.0
C798 C 0.29645 0.2698 0.8189 0.0
C799 C 0.26061 0.25822 0.8259 0.0
C800 C 0.22619 0.24597 0.8178 0.0
C801 C 0.22753 0.24276 0.80304 0.0
C802 C 0.33391 0.2824 0.82692 0.0
C803 C 0.18807 0.23662 0.8247 0.0
C804 C 0.24438 0.22695 0.86456 0.0
C805 C 0.25605 0.26255 0.87141 0.0
C806 C 0.24698 0.22532 0.84979 0.0
C807 C 0.25938 0.25973 0.84163 0.0
C808 C 0.27154 0.29579 0.84858 0.0
C809 C 0.27142 0.29695 0.86335 0.0
C810 C 0.23693 0.1869 0.84293 0.0
C811 C 0.28436 0.33336 0.84056 0.0
H812 H 0.32503 0.27886 0.7988 0.0
H813 H 0.20095 0.23166 0.79689 0.0
H814 H 0.34668 0.3134 0.83017 0.0
H815 H 0.3285 0.26448 0.83656 0.0
H816 H 0.35593 0.28008 0.82035 0.0
H817 H 0.16536 0.23218 0.81685 0.0
H818 H 0.17688 0.20966 0.83112 0.0
H819 H 0.19272 0.26074 0.83191 0.0
H820 H 0.23327 0.20042 0.87076 0.0
H821 H 0.2819 0.32482 0.86863 0.0
H822 H 0.26073 0.19109 0.83565 0.0
H823 H 0.20989 0.17597 0.8366 0.0
H824 H 0.23234 0.16415 0.8508 0.0
H825 H 0.31611 0.34759 0.83832 0.0
H826 H 0.27948 0.35427 0.84685 0.0
H827 H 0.2686 0.32805 0.83041 0.0
C828 C 0.09074 0.2749 0.01955 0.0
C829 C 0.0856 0.2522 0.03156 0.0
C830 C 0.10992 0.27178 0.00752 0.0
C831 C 0.12427 0.24524 0.00749 0.0
C832 C 0.11725 0.22082 0.01937 0.0
C833 C 0.09837 0.2249 0.0313 0.0
C834 C 0.1169 0.29859 0.99517 0.0
C835 C 0.13148 0.19183 0.01977 0.0
C836 C 0.15436 0.22621 0.97141 0.0
C837 C 0.1947 0.25284 0.97134 0.0
C838 C 0.13133 0.22181 0.98336 0.0
C839 C 0.14893 0.24523 0.99544 0.0
C840 C 0.19005 0.27093 0.9956 0.0
C841 C 0.21243 0.27437 0.98355 0.0
C842 C 0.08783 0.1937 0.98274 0.0
C843 C 0.21013 0.29666 0.00818 0.0
H844 H 0.08185 0.29677 0.01989 0.0
H845 H 0.09517 0.20798 0.04072 0.0
H846 H 0.14873 0.31936 0.99401 0.0
H847 H 0.1067 0.28144 0.98527 0.0
H848 H 0.10175 0.31568 0.99643 0.0
H849 H 0.11981 0.17195 0.02901 0.0
H850 H 0.12283 0.17392 0.01002 0.0
H851 H 0.1639 0.2078 0.0203 0.0
H852 H 0.14053 0.21023 0.96184 0.0
H853 H 0.24342 0.29576 0.98336 0.0
H854 H 0.07217 0.21042 0.9823 0.0
H855 H 0.07781 0.17529 0.99236 0.0
H856 H 0.0794 0.17428 0.97336 0.0
H857 H 0.20008 0.31815 0.00949 0.0
H858 H 0.24248 0.31294 0.00706 0.0
H859 H 0.20225 0.27884 0.01793 0.0
C860 C 0.8759 0.0949 0.36675 0.0
C861 C 0.83554 0.08046 0.36586 0.0
C862 C 0.90073 0.11358 0.35518 0.0
C863 C 0.88491 0.11871 0.3425 0.0
C864 C 0.84386 0.10293 0.34144 0.0
C865 C 0.81969 0.08396 0.35313 0.0
C866 C 0.94409 0.12938 0.35676 0.0
C867 C 0.82566 0.10791 0.3282 0.0
C868 C 0.94557 0.20483 0.3179 0.0
C869 C 0.95162 0.18625 0.3064 0.0
C870 C 0.92549 0.18352 0.32999 0.0
C871 C 0.9112 0.14262 0.33063 0.0
C872 C 0.91945 0.1243 0.31936 0.0
C873 C 0.9392 0.14626 0.30733 0.0
C874 C 0.91724 0.20431 0.34167 0.0
C875 C 0.90534 0.08101 0.31962 0.0
H876 H 0.88822 0.09288 0.3767 0.0
H877 H 0.78863 0.07371 0.35257 0.0
H878 H 0.9554 0.12023 0.3477 0.0
H879 H 0.95968 0.16185 0.35679 0.0
H880 H 0.95123 0.11931 0.36666 0.0
H881 H 0.7932 0.09215 0.32877 0.0
H882 H 0.83636 0.13948 0.32642 0.0
H883 H 0.83448 0.09703 0.31894 0.0
H884 H 0.95418 0.2355 0.31701 0.0
H885 H 0.94308 0.13171 0.2983 0.0
H886 H 0.92585 0.19785 0.352 0.0
H887 H 0.88537 0.19353 0.34214 0.0
H888 H 0.93293 0.23656 0.34013 0.0
H889 H 0.91259 0.07258 0.32984 0.0
H890 H 0.91833 0.07224 0.31097 0.0
H891 H 0.87305 0.06428 0.31849 0.0
C892 C 0.75398 0.81802 0.68358 0.0
C893 C 0.77478 0.83481 0.69601 0.0
C894 C 0.75834 0.84134 0.67173 0.0
C895 C 0.7842 0.88243 0.67232 0.0
C896 C 0.80714 0.89902 0.68457 0.0
C897 C 0.80186 0.87505 0.69631 0.0
C898 C 0.73314 0.82234 0.65895 0.0
C899 C 0.83539 0.94245 0.68565 0.0
C900 C 0.80524 0.93675 0.63723 0.0
C901 C 0.77785 0.94938 0.63738 0.0
C902 C 0.80904 0.91654 0.6488 0.0
C903 C 0.78434 0.90818 0.66068 0.0
C904 C 0.75773 0.9224 0.66105 0.0
C905 C 0.75487 0.94288 0.6494 0.0
C906 C 0.83807 0.90244 0.64798 0.0
C907 C 0.73069 0.91408 0.67344 0.0
H908 H 0.73226 0.7871 0.68349 0.0
H909 H 0.81728 0.88814 0.70605 0.0
H910 H 0.7114 0.83213 0.65789 0.0
H911 H 0.75123 0.83142 0.64924 0.0
H912 H 0.7172 0.78987 0.65963 0.0
H913 H 0.85478 0.94994 0.69499 0.0
H914 H 0.85377 0.95332 0.67604 0.0
H915 H 0.81879 0.95817 0.6865 0.0
H916 H 0.82244 0.94115 0.6278 0.0
H917 H 0.7331 0.95191 0.64935 0.0
H918 H 0.82219 0.87006 0.64703 0.0
H919 H 0.85577 0.91013 0.65776 0.0
H920 H 0.8581 0.91508 0.63882 0.0
H921 H 0.71015 0.88208 0.67426 0.0
H922 H 0.71338 0.92908 0.67249 0.0
H923 H 0.74767 0.92355 0.68339 0.0
C924 C 0.88971 0.70857 0.03113 0.0
C925 C 0.92572 0.74001 0.03555 0.0
C926 C 0.87003 0.71158 0.01934 0.0
C927 C 0.89002 0.74334 0.00982 0.0
C928 C 0.92876 0.77319 0.01333 0.0
C929 C 0.94492 0.77233 0.0265 0.0
C930 C 0.82754 0.68055 0.0176 0.0
C931 C 0.95401 0.80616 0.00338 0.0
C932 C 0.83874 0.71054 0.9742 0.0
C933 C 0.83529 0.7426 0.96982 0.0
C934 C 0.85997 0.71241 0.98629 0.0
C935 C 0.87117 0.74359 0.99603 0.0
C936 C 0.86273 0.77373 0.99258 0.0
C937 C 0.84724 0.77405 0.9792 0.0
C938 C 0.87107 0.68116 0.98797 0.0
C939 C 0.8697 0.80597 0.00275 0.0
H940 H 0.87559 0.68186 0.03727 0.0
H941 H 0.97315 0.79666 0.02954 0.0
H942 H 0.81177 0.68851 0.00983 0.0
H943 H 0.82546 0.65248 0.0145 0.0
H944 H 0.81218 0.67517 0.02788 0.0
H945 H 0.98469 0.81235 0.00377 0.0
H946 H 0.94386 0.79979 0.9923 0.0
H947 H 0.95446 0.8332 0.00686 0.0
H948 H 0.82734 0.68471 0.9676 0.0
H949 H 0.84408 0.79879 0.97618 0.0
H950 H 0.84483 0.65312 0.99097 0.0
H951 H 0.89461 0.6888 0.99581 0.0
H952 H 0.88125 0.67592 0.97772 0.0
H953 H 0.84488 0.81164 0.00235 0.0
H954 H 0.8962 0.83346 0.99947 0.0
H955 H 0.87325 0.79913 0.01379 0.0
C956 C 0.08575 0.81686 0.31554 0.0
C957 C 0.08674 0.83414 0.30255 0.0
C958 C 0.10625 0.83996 0.32726 0.0
C959 C 0.12875 0.88131 0.32589 0.0
C960 C 0.12823 0.89889 0.31294 0.0
C961 C 0.1073 0.87509 0.30145 0.0
C962 C 0.10567 0.81996 0.34088 0.0
C963 C 0.15175 0.94269 0.31095 0.0
C964 C 0.16423 0.9402 0.35996 0.0
C965 C 0.20148 0.94451 0.3615 0.0
C966 C 0.14071 0.92092 0.3482 0.0
C967 C 0.15484 0.90571 0.33767 0.0
C968 C 0.19339 0.912 0.33882 0.0
C969 C 0.21617 0.93117 0.35076 0.0
C970 C 0.09993 0.91495 0.34745 0.0
C971 C 0.20986 0.89672 0.32779 0.0
H972 H 0.07094 0.78521 0.3163 0.0
H973 H 0.10879 0.8884 0.2913 0.0
H974 H 0.13508 0.8239 0.34289 0.0
H975 H 0.09861 0.8334 0.34984 0.0
H976 H 0.08405 0.7881 0.34066 0.0
H977 H 0.14498 0.95204 0.30081 0.0
H978 H 0.14615 0.95788 0.3197 0.0
H979 H 0.1834 0.95239 0.31113 0.0
H980 H 0.15264 0.95012 0.36831 0.0
H981 H 0.24473 0.934 0.35207 0.0
H982 H 0.07822 0.88336 0.34867 0.0
H983 H 0.0948 0.92421 0.33702 0.0
H984 H 0.09457 0.93146 0.35578 0.0
H985 H 0.1932 0.86423 0.32783 0.0
H986 H 0.24124 0.90668 0.32963 0.0
H987 H 0.20668 0.90642 0.31715 0.0
C988 C 0.28037 0.08232 0.65053 0.0
C989 C 0.25798 0.07546 0.63833 0.0
C990 C 0.27613 0.10216 0.66212 0.0
C991 C 0.24877 0.11542 0.6615 0.0
C992 C 0.22471 0.1067 0.64942 0.0
C993 C 0.22985 0.08711 0.63794 0.0
C994 C 0.30251 0.11086 0.67473 0.0
C995 C 0.19494 0.11981 0.64832 0.0
C996 C 0.22734 0.14678 0.69685 0.0
C997 C 0.2536 0.18724 0.69672 0.0
C998 C 0.22368 0.12326 0.68514 0.0
C999 C 0.2474 0.14053 0.67309 0.0
C1000 C 0.27246 0.18178 0.67266 0.0
C1001 C 0.27525 0.20463 0.68449 0.0
C1002 C 0.19628 0.07962 0.68605 0.0
C1003 C 0.29838 0.20152 0.66009 0.0
H1004 H 0.30272 0.07407 0.65068 0.0
H1005 H 0.21311 0.08247 0.62836 0.0
H1006 H 0.32241 0.14296 0.67565 0.0
H1007 H 0.28493 0.10089 0.68454 0.0
H1008 H 0.32051 0.09655 0.67397 0.0
H1009 H 0.1756 0.107 0.63901 0.0
H1010 H 0.17657 0.11151 0.65795 0.0
H1011 H 0.2102 0.15219 0.64745 0.0
H1012 H 0.21126 0.13324 0.70643 0.0
H1013 H 0.29635 0.23573 0.68453 0.0
H1014 H 0.21355 0.06463 0.68703 0.0
H1015 H 0.17853 0.0686 0.6763 0.0
H1016 H 0.17627 0.07142 0.69524 0.0
H1017 H 0.32074 0.19248 0.65926 0.0
H1018 H 0.3136 0.23395 0.66086 0.0
H1019 H 0.28098 0.19231 0.65024 0.0
C1020 C 0.03509 0.59478 0.07646 0.0
C1021 C 0.99688 0.58723 0.07891 0.0
C1022 C 0.04376 0.56413 0.0757 0.0
C1023 C 1.01375 0.52467 0.07781 0.0
C1024 C 0.97502 0.51698 0.08029 0.0
C1025 C 0.96703 0.54818 0.08066 0.0
C1026 C 0.08525 0.57409 0.07271 0.0
C1027 C 0.9421 0.4758 0.08292 0.0
C1028 C 0.02799 0.4392 0.0658 0.0
C1029 C 0.04061 0.42913 0.0782 0.0
C1030 C 0.01981 0.47029 0.06546 0.0
C1031 C 0.0231 0.49176 0.07788 0.0
C1032 C 0.03563 0.48183 0.09042 0.0
C1033 C 0.04477 0.45147 0.09038 0.0
C1034 C 1.00753 0.48013 0.05172 0.0
C1035 C 0.03913 0.50319 0.10402 0.0
H1036 H 0.05832 0.62486 0.07512 0.0
H1037 H 0.93751 0.54213 0.08267 0.0
H1038 H 0.09717 0.56614 0.0819 0.0
H1039 H 0.08587 0.55684 0.06358 0.0
H1040 H 0.10473 0.60572 0.07043 0.0
H1041 H 0.91364 0.47447 0.08459 0.0
H1042 H 0.93918 0.45674 0.07387 0.0
H1043 H 0.94878 0.46359 0.09235 0.0
H1044 H 0.0238 0.42244 0.05629 0.0
H1045 H 0.05543 0.44556 0.10002 0.0
H1046 H 0.02712 0.51154 0.04918 0.0
H1047 H 0.97746 0.4753 0.0527 0.0
H1048 H 1.00818 0.4622 0.04282 0.0
H1049 H 0.06151 0.53458 0.1029 0.0
H1050 H 0.04735 0.49089 0.11305 0.0
H1051 H 1.01094 0.50164 0.10649 0.0
C1052 C 0.59287 0.04633 0.39904 0.0
C1053 C 0.6045 0.02855 0.40937 0.0
C1054 C 0.55427 0.04006 0.39852 0.0
C1055 C 0.52607 0.01589 0.4087 0.0
C1056 C 0.53745 0.99785 0.41913 0.0
C1057 C 0.57591 1.00392 0.41923 0.0
C1058 C 0.54372 0.05957 0.38706 0.0
C1059 C 0.50895 0.97218 0.43033 0.0
C1060 C 0.43795 0.03004 0.41594 0.0
C1061 C 0.40701 0.99806 0.40893 0.0
C1062 C 0.47641 0.03607 0.41596 0.0
C1063 C 0.48496 1.00991 0.40862 0.0
C1064 C 0.45395 0.97771 0.40144 0.0
C1065 C 0.41557 0.97202 0.40178 0.0
C1066 C 0.50791 0.07035 0.42403 0.0
C1067 C 0.46136 0.94928 0.39328 0.0
H1068 H 0.61408 0.06581 0.39141 0.0
H1069 H 0.58331 0.98883 0.42707 0.0
H1070 H 0.51777 0.03733 0.38118 0.0
H1071 H 0.53576 0.08032 0.3918 0.0
H1072 H 0.56808 0.07585 0.3795 0.0
H1073 H 0.52232 0.96088 0.43791 0.0
H1074 H 0.49793 0.98892 0.43625 0.0
H1075 H 0.48331 0.94691 0.42536 0.0
H1076 H 0.43195 0.05018 0.42168 0.0
H1077 H 0.3923 0.94744 0.39619 0.0
H1078 H 0.53207 0.08967 0.41682 0.0
H1079 H 0.52046 0.0597 0.43218 0.0
H1080 H 0.49675 0.08799 0.42926 0.0
H1081 H 0.4843 0.96525 0.38521 0.0
H1082 H 0.4346 0.92633 0.38795 0.0
H1083 H 0.47239 0.93483 0.40045 0.0
C1084 C 0.43296 0.4372 0.73211 0.0
C1085 C 0.43316 0.41025 0.74175 0.0
C1086 C 0.46335 0.47685 0.73182 0.0
C1087 C 0.4956 0.49023 0.74118 0.0
C1088 C 0.4963 0.46293 0.75075 0.0
C1089 C 0.46507 0.42368 0.75104 0.0
C1090 C 0.46052 0.50467 0.72165 0.0
C1091 C 0.5302 0.47517 0.76072 0.0
C1092 C 0.59126 0.58521 0.73201 0.0
C1093 C 0.59065 0.61272 0.74127 0.0
C1094 C 0.5609 0.54554 0.73192 0.0
C1095 C 0.52827 0.5327 0.74108 0.0
C1096 C 0.52716 0.56055 0.75025 0.0
C1097 C 0.55835 0.59982 0.75036 0.0
C1098 C 0.56415 0.51712 0.72217 0.0
C1099 C 0.49286 0.54889 0.76 0.0
H1100 H 0.40836 0.42749 0.725 0.0
H1101 H 0.46585 0.40326 0.75847 0.0
H1102 H 0.46086 0.52912 0.72754 0.0
H1103 H 0.48622 0.51768 0.71451 0.0
H1104 H 0.43352 0.49005 0.71516 0.0
H1105 H 0.52733 0.45029 0.76711 0.0
H1106 H 0.55802 0.48794 0.75471 0.0
H1107 H 0.5323 0.49819 0.76796 0.0
H1108 H 0.61616 0.59449 0.72507 0.0
H1109 H 0.55723 0.62067 0.75749 0.0
H1110 H 0.53874 0.50365 0.71492 0.0
H1111 H 0.5636 0.49305 0.72839 0.0
H1112 H 0.59141 0.53137 0.7158 0.0
H1113 H 0.46529 0.53574 0.75384 0.0
H1114 H 0.49547 0.57413 0.76608 0.0
H1115 H 0.49048 0.52631 0.76752 0.0
C1116 C 0.43707 1.0002 0.60232 0.0
C1117 C 0.43634 0.02959 0.59414 0.0
C1118 C 0.46906 0.99384 0.602 0.0
C1119 C 0.5022 0.01821 0.59365 0.0
C1120 C 0.5024 0.04873 0.58569 0.0
C1121 C 0.46948 0.05381 0.58592 0.0
C1122 C 0.46716 0.96066 0.61054 0.0
C1123 C 0.53743 0.07601 0.57689 0.0
C1124 C 0.59782 0.02276 0.60406 0.0
C1125 C 0.60179 0.99923 0.59378 0.0
C1126 C 0.5663 0.02988 0.60391 0.0
C1127 C 0.53682 0.01208 0.59351 0.0
C1128 C 0.53991 0.98752 0.58331 0.0
C1129 C 0.5724 0.98176 0.58346 0.0
C1130 C 0.56464 0.05665 0.61491 0.0
C1131 C 0.50876 0.96719 0.57221 0.0
H1132 H 0.4125 0.98187 0.60908 0.0
H1133 H 0.46952 0.07637 0.57942 0.0
H1134 H 0.47194 0.94083 0.60359 0.0
H1135 H 0.49074 0.97236 0.61856 0.0
H1136 H 0.43864 0.94322 0.616 0.0
H1137 H 0.53369 0.09912 0.57169 0.0
H1138 H 0.56401 0.09026 0.58358 0.0
H1139 H 0.54255 0.05915 0.56865 0.0
H1140 H 0.61934 0.03571 0.61237 0.0
H1141 H 0.57494 0.96396 0.57532 0.0
H1142 H 0.53841 0.04008 0.62164 0.0
H1143 H 0.56201 0.08043 0.60974 0.0
H1144 H 0.59094 0.07006 0.62178 0.0
H1145 H 0.47989 0.9488 0.57732 0.0
H1146 H 0.51487 0.94835 0.56521 0.0
H1147 H 0.50648 0.9892 0.56565 0.0
C1148 C 0.43023 0.46452 0.91679 0.0
C1149 C 0.4179 0.43078 0.92507 0.0
C1150 C 0.46968 0.49536 0.91672 0.0
C1151 C 0.49833 0.4923 0.92478 0.0
C1152 C 0.48602 0.45811 0.93308 0.0
C1153 C 0.44614 0.42824 0.93328 0.0
C1154 C 0.48068 0.5314 0.90801 0.0
C1155 C 0.51521 0.45263 0.94155 0.0
C1156 C 0.60604 0.55602 0.91323 0.0
C1157 C 0.62137 0.58622 0.9233 0.0
C1158 C 0.56665 0.52513 0.91375 0.0
C1159 C 0.54103 0.52454 0.92439 0.0
C1160 C 0.55632 0.55512 0.93454 0.0
C1161 C 0.59613 0.58507 0.93399 0.0
C1162 C 0.55244 0.49296 0.90289 0.0
C1163 C 0.53034 0.5567 0.94586 0.0
H1164 H 0.40879 0.467 0.91045 0.0
H1165 H 0.43719 0.40222 0.93959 0.0
H1166 H 0.49532 0.55791 0.91475 0.0
H1167 H 0.50181 0.53458 0.8997 0.0
H1168 H 0.45489 0.53034 0.90291 0.0
H1169 H 0.50135 0.42423 0.94725 0.0
H1170 H 0.53824 0.45402 0.93448 0.0
H1171 H 0.5299 0.47665 0.94933 0.0
H1172 H 0.62511 0.5563 0.90496 0.0
H1173 H 0.60729 0.60838 0.94174 0.0
H1174 H 0.5289 0.49268 0.89646 0.0
H1175 H 0.53979 0.46407 0.90819 0.0
H1176 H 0.57623 0.49644 0.89573 0.0
H1177 H 0.50541 0.55776 0.94096 0.0
H1178 H 0.54627 0.58256 0.95286 0.0
H1179 H 0.5179 0.52982 0.95241 0.0
C1180 C 1.0054 0.57758 0.26828 0.0
C1181 C 0.03303 0.60489 0.25883 0.0
C1182 C 0.99666 0.53812 0.26861 0.0
C1183 C 0.01674 0.52539 0.25956 0.0
C1184 C 0.04532 0.55315 0.25021 0.0
C1185 C 0.05263 0.59211 0.24982 0.0
C1186 C 0.96528 0.50978 0.27849 0.0
C1187 C 0.06838 0.54171 0.24062 0.0
C1188 C 0.01829 0.43124 0.26921 0.0
C1189 C 0.99139 0.40361 0.25966 0.0
C1190 C 0.02693 0.47068 0.26925 0.0
C1191 C 1.00762 0.48315 0.25973 0.0
C1192 C 0.97983 0.45514 0.25026 0.0
C1193 C 0.97248 0.41615 0.25022 0.0
C1194 C 0.05743 0.49928 0.27932 0.0
C1195 C 0.95769 0.46636 0.24014 0.0
H1196 H 0.98974 0.58686 0.27519 0.0
H1197 H 0.07419 0.61288 0.24253 0.0
H1198 H 0.94197 0.4851 0.2724 0.0
H1199 H 0.9777 0.49717 0.2859 0.0
H1200 H 0.95183 0.52385 0.28469 0.0
H1201 H 0.09085 0.56694 0.23447 0.0
H1202 H 0.08312 0.52916 0.24691 0.0
H1203 H 0.04838 0.51873 0.23316 0.0
H1204 H 0.03351 0.42225 0.27645 0.0
H1205 H 0.95146 0.39521 0.24285 0.0
H1206 H 0.04439 0.51216 0.28633 0.0
H1207 H 0.08132 0.52374 0.27333 0.0
H1208 H 0.07023 0.48535 0.28594 0.0
H1209 H 0.94237 0.47903 0.24601 0.0
H1210 H 0.93582 0.44099 0.23388 0.0
H1211 H 0.97839 0.48919 0.23277 0.0
C1212 C 1.00391 0.07549 0.07305 0.0
C1213 C 0.03419 0.10595 0.0809 0.0
C1214 C 0.99642 0.03659 0.07368 0.0
C1215 C 0.0203 0.02731 0.08207 0.0
C1216 C 0.05141 0.05785 0.0898 0.0
C1217 C 0.05774 0.09644 0.08923 0.0
C1218 C 0.96271 1.00528 0.06532 0.0
C1219 C 0.0782 0.04974 0.09869 0.0
C1220 C 0.98252 0.92007 0.09282 0.0
C1221 C 0.99979 0.90741 0.08267 0.0
C1222 C 0.98871 0.95865 0.09272 0.0
C1223 C 1.01335 0.98597 0.0824 0.0
C1224 C 0.03079 0.97346 0.07214 0.0
C1225 C 0.02343 0.93458 0.07228 0.0
C1226 C 0.9688 0.97021 0.10372 0.0
C1227 C 0.0575 1.00128 0.06097 0.0
H1228 H 0.98593 0.08193 0.06623 0.0
H1229 H 0.08093 0.11905 0.09552 0.0
H1230 H 0.97382 0.99283 0.0573 0.0
H1231 H 0.9428 0.98096 0.07238 0.0
H1232 H 0.94557 0.01666 0.05988 0.0
H1233 H 0.10147 0.07657 0.10389 0.0
H1234 H 0.06105 0.02783 0.10693 0.0
H1235 H 0.0922 0.03709 0.09205 0.0
H1236 H 0.96454 0.90004 0.10102 0.0
H1237 H 0.03623 0.92553 0.06408 0.0
H1238 H 0.95068 0.9808 0.09853 0.0
H1239 H 0.99103 0.99469 0.11017 0.0
H1240 H 0.94979 0.94553 0.11083 0.0
H1241 H 0.04113 0.01112 0.05425 0.0
H1242 H 0.07026 0.98773 0.05412 0.0
H1243 H 0.08173 0.02776 0.06599 0.0
C1244 C 0.96191 0.06011 0.40903 0.0
C1245 C 0.92745 0.03561 0.41653 0.0
C1246 C 0.99387 0.05334 0.40898 0.0
C1247 C 0.99184 0.02167 0.4168 0.0
C1248 C 0.9576 0.99774 0.42476 0.0
C1249 C 0.92596 1.00478 0.42445 0.0
C1250 C 0.02937 0.07937 0.40017 0.0
C1251 C 0.95405 0.96414 0.43348 0.0
C1252 C 0.05437 0.97613 0.4064 0.0
C1253 C 0.0859 0.99347 0.41594 0.0
C1254 C 0.02432 0.98562 0.40638 0.0
C1255 C 0.02478 0.01263 0.41635 0.0
C1256 C 0.05611 0.02994 0.42612 0.0
C1257 C 0.08623 0.02053 0.42572 0.0
C1258 C 0.99186 0.96651 0.39567 0.0
C1259 C 0.05778 0.05844 0.43707 0.0
H1260 H 0.96332 0.08374 0.40277 0.0
H1261 H 0.89969 0.98584 0.43039 0.0
H1262 H 0.05608 0.09234 0.4068 0.0
H1263 H 0.03311 0.06169 0.39188 0.0
H1264 H 0.02711 0.10343 0.39504 0.0
H1265 H 0.9265 0.94958 0.43969 0.0
H1266 H 0.9549 0.94202 0.42651 0.0
H1267 H 0.97916 0.97472 0.44084 0.0
H1268 H 0.05274 0.95463 0.39893 0.0
H1269 H 0.11041 0.03497 0.43302 0.0
H1270 H 0.98941 0.98923 0.38962 0.0
H1271 H 0.96352 0.94822 0.40111 0.0
H1272 H 0.99662 0.94773 0.38815 0.0
H1273 H 0.05868 0.08402 0.43187 0.0
H1274 H 0.08371 0.06909 0.44405 0.0
H1275 H 0.03099 0.04429 0.44367 0.0
C1276 C 0.08271 0.09224 0.73577 0.0
C1277 C 0.11122 0.09341 0.74497 0.0
C1278 C 0.04384 0.06059 0.73573 0.0
C1279 C 0.0326 0.02863 0.74506 0.0
C1280 C 0.06125 0.02926 0.75425 0.0
C1281 C 0.09998 0.06142 0.7541 0.0
C1282 C 0.01472 0.06141 0.72566 0.0
C1283 C 0.05089 0.99594 0.76435 0.0
C1284 C 0.92319 0.9621 0.75353 0.0
C1285 C 0.91248 0.92967 0.74468 0.0
C1286 C 0.96193 0.99426 0.75379 0.0
C1287 C 0.99111 0.99442 0.745 0.0
C1288 C 0.98039 0.96202 0.73595 0.0
C1289 C 0.94152 0.93038 0.73587 0.0
C1290 C 0.97171 0.02806 0.76358 0.0
C1291 C 1.0101 0.96071 0.72631 0.0
H1292 H 0.09081 0.11612 0.72843 0.0
H1293 H 0.12129 0.06183 0.76137 0.0
H1294 H 1.00305 0.03577 0.71851 0.0
H1295 H 0.98955 0.05929 0.73161 0.0
H1296 H 0.02777 0.08849 0.71919 0.0
H1297 H 0.07633 1.00053 0.77078 0.0
H1298 H 0.02724 0.99252 0.77154 0.0
H1299 H 0.03963 0.9681 0.75843 0.0
H1300 H 0.90146 0.96205 0.7605 0.0
H1301 H 0.93384 0.90614 0.72875 0.0
H1302 H 0.98332 0.0556 0.75745 0.0
H1303 H 0.99494 0.03183 0.77105 0.0
H1304 H 0.94591 0.02377 0.76972 0.0
H1305 H 0.0222 0.98598 0.71897 0.0
H1306 H 0.99742 0.9333 0.72002 0.0
H1307 H 0.0349 0.96312 0.73257 0.0
C1308 C 0.94958 0.02634 0.59538 0.0
C1309 C 0.92054 0.99708 0.58683 0.0
C1310 C 0.98836 0.03416 0.59523 0.0
C1311 C 0.99863 0.01152 0.58659 0.0
C1312 C 0.96932 0.981 0.57827 0.0
C1313 C 0.93067 0.97424 0.57844 0.0
C1314 C 0.01844 0.06693 0.60428 0.0
C1315 C 0.97886 0.95563 0.56915 0.0
C1316 C 0.10683 0.05212 0.57772 0.0
C1317 C 0.11764 0.03308 0.58771 0.0
C1318 C 0.06825 0.04546 0.57721 0.0
C1319 C 0.03968 0.01887 0.58681 0.0
C1320 C 0.05069 1.00025 0.59707 0.0
C1321 C 0.08942 1.00799 0.59751 0.0
C1322 C 0.05793 0.06661 0.56632 0.0
C1323 C 0.02141 0.97172 0.60752 0.0
H1324 H 0.94204 0.04356 0.60221 0.0
H1325 H 0.90867 0.9517 0.57176 0.0
H1326 H 0.0305 0.05506 0.61215 0.0
H1327 H 0.04321 0.08816 0.59767 0.0
H1328 H 1.00608 0.08287 0.60997 0.0
H1329 H 0.95283 0.93288 0.56342 0.0
H1330 H 1.00167 0.97403 0.56135 0.0
H1331 H 0.99094 0.94097 0.57573 0.0
H1332 H 0.12821 0.0714 0.57008 0.0
H1333 H 0.09754 0.99385 0.60554 0.0
H1334 H 0.04621 0.08369 0.57157 0.0
H1335 H 0.03463 0.04508 0.55929 0.0
H1336 H 0.08351 0.08684 0.55978 0.0
H1337 H 1.00986 0.98672 0.61418 0.0
H1338 H 0.03429 0.95859 0.61451 0.0
H1339 H 0.99618 0.94778 0.60185 0.0
C1340 C 0.93331 0.94151 0.93088 0.0
C1341 C 0.9313 0.91401 0.92094 0.0
C1342 C 0.96479 0.98056 0.93109 0.0
C1343 C 0.99585 0.99298 0.92126 0.0
C1344 C 0.99426 0.96548 0.91127 0.0
C1345 C 0.96217 0.92669 0.91118 0.0
C1346 C 0.96486 1.00855 0.94194 0.0
C1347 C 0.02666 0.97699 0.90064 0.0
C1348 C 0.06355 0.1031 0.91397 0.0
C1349 C 0.09647 0.11239 0.92235 0.0
C1350 C 0.0307 0.06473 0.91359 0.0
C1351 C 0.0304 0.03434 0.92169 0.0
C1352 C 0.06328 0.04357 0.93027 0.0
C1353 C 0.09547 0.08217 0.93057 0.0
C1354 C 0.99632 0.05663 0.90439 0.0
C1355 C 0.06465 0.01249 0.9391 0.0
H1356 H 0.91044 0.93247 0.93871 0.0
H1357 H 0.96116 0.90643 0.90327 0.0
H1358 H 0.99056 0.01868 0.94897 0.0
H1359 H 0.96747 0.03483 0.93666 0.0
H1360 H 0.93794 0.99501 0.9485 0.0
H1361 H 0.02133 0.95239 0.89357 0.0
H1362 H 0.02979 1.00171 0.89412 0.0
H1363 H 0.05488 0.98723 0.90618 0.0
H1364 H 0.06367 0.12564 0.90744 0.0
H1365 H 0.11994 0.08863 0.93739 0.0
H1366 H 0.96925 0.04421 0.91083 0.0
H1367 H 0.99185 0.03452 0.89629 0.0
H1368 H 1.0004 0.08341 0.89901 0.0
H1369 H 0.03996 0.99992 0.94668 0.0
H1370 H 0.09244 0.02407 0.94507 0.0
H1371 H 0.06129 0.9882 0.93225 0.0
C1372 C 0.06287 0.96097 0.24645 0.0
C1373 C 0.04223 0.92919 0.25568 0.0
C1374 C 0.05667 0.99337 0.24638 0.0
C1375 C 0.02907 0.99436 0.25573 0.0
C1376 C 1.00875 0.96276 0.26523 0.0
C1377 C 0.01573 0.93104 0.26516 0.0
C1378 C 0.0794 0.02644 0.23616 0.0
C1379 C 0.97918 0.96219 0.27545 0.0
C1380 C 0.03473 0.09177 0.26515 0.0
C1381 C 1.00574 0.09186 0.25653 0.0
C1382 C 0.04298 0.06086 0.26481 0.0
C1383 C 0.02155 0.0284 0.25575 0.0
C1384 C 0.99197 0.02795 0.24712 0.0
C1385 C 0.98453 0.05949 0.24758 0.0
C1386 C 0.07468 0.06292 0.27425 0.0
C1387 C 0.96802 0.99398 0.23738 0.0
H1388 H 0.08322 0.96014 0.239 0.0
H1389 H 1.00016 0.90743 0.27262 0.0
H1390 H 0.05894 0.02925 0.22891 0.0
H1391 H 0.09576 0.05452 0.24195 0.0
H1392 H 0.10043 0.02195 0.2298 0.0
H1393 H 0.96549 0.93539 0.28208 0.0
H1394 H 0.99339 0.98814 0.28245 0.0
H1395 H 0.95577 0.96386 0.26959 0.0
H1396 H 0.05094 0.11584 0.27238 0.0
H1397 H 0.9624 0.05899 0.24072 0.0
H1398 H 0.09669 0.06012 0.26788 0.0
H1399 H 0.06193 0.03816 0.28181 0.0
H1400 H 0.08981 0.09074 0.28029 0.0
H1401 H 0.98754 0.99034 0.2299 0.0
H1402 H 0.94629 0.99793 0.23127 0.0
H1403 H 0.95227 0.96649 0.24356 0.0
loop_
_geom_bond_atom_site_label_1
_geom_bond_atom_site_label_2
_geom_bond_distance
_geom_bond_site_symmetry_2
_ccdc_geom_bond_type
C0 C1 1.443 1_455 S
C0 N4 1.376 1_455 S
C0 C38 1.389 . S
C1 C0 1.443 1_655 S
C1 C2 1.340 . S
C1 H41 0.951 . S
C2 C1 1.340 . S
C2 C3 1.439 . S
C2 H42 0.950 . S
C3 C2 1.439 . S
C3 N4 1.374 . S
C3 C37 1.395 . S
N4 C0 1.376 1_655 S
N4 C3 1.374 . S
N4 Co5 2.008 1_655 S
Co5 N4 2.008 1_455 S
Co5 N6 1.995 1_455 S
Co5 N11 2.008 . S
Co5 N16 1.995 . S
Co5 N21 2.282 . S
Co5 N27 2.282 . S
N6 Co5 1.995 1_655 S
N6 C7 1.376 . S
N6 C10 1.383 . S
C7 N6 1.376 . S
C7 C8 1.446 . S
C7 C37 1.391 . S
C8 C7 1.446 . S
C8 C9 1.339 . S
C8 H43 0.949 . S
C9 C8 1.339 . S
C9 C10 1.439 . S
C9 H44 0.950 . S
C10 N6 1.383 . S
C10 C9 1.439 . S
C10 C39 1.392 . S
N11 Co5 2.008 . S
N11 C12 1.376 . S
N11 C15 1.374 . S
C12 N11 1.376 . S
C12 C13 1.443 . S
C12 C39 1.389 1_455 S
C13 C12 1.443 . S
C13 C14 1.340 . S
C13 H45 0.951 . S
C14 C13 1.340 . S
C14 C15 1.439 . S
C14 H46 0.950 . S
C15 N11 1.374 . S
C15 C14 1.439 . S
C15 C40 1.395 . S
N16 Co5 1.995 . S
N16 C17 1.376 . S
N16 C20 1.383 . S
C17 N16 1.376 . S
C17 C18 1.446 . S
C17 C40 1.391 . S
C18 C17 1.446 . S
C18 C19 1.339 . S
C18 H47 0.949 . S
C19 C18 1.339 . S
C19 C20 1.439 . S
C19 H48 0.950 . S
C20 N16 1.383 . S
C20 C19 1.439 . S
C20 C38 1.392 . S
N21 Co5 2.282 . S
N21 C24 1.332 . S
N21 C26 1.332 1_455 S
C22 C23 1.386 . S
C22 C25 1.388 1_455 S
C23 C22 1.386 . S
C23 C24 1.382 . S
C23 H49 0.950 . S
C24 N21 1.332 . S
C24 C23 1.382 . S
C24 H35 0.952 . S
C25 C22 1.388 1_655 S
C25 C26 1.382 . S
C25 H50 0.950 . S
C26 N21 1.332 1_655 S
C26 C25 1.382 . S
C26 H36 0.948 . S
N27 Co5 2.282 . S
N27 C31 1.332 1_455 S
N27 C32 1.332 . S
C28 C29 1.388 . S
C28 C32 1.382 . S
C28 H51 0.950 . S
C29 C28 1.388 . S
C29 C30 1.386 1_455 S
C30 C29 1.386 1_655 S
C30 C31 1.382 . S
C30 H52 0.950 . S
C31 N27 1.332 1_655 S
C31 C30 1.382 . S
C31 H33 0.952 . S
C32 N27 1.332 . S
C32 C28 1.382 . S
C32 H34 0.948 . S
H33 C31 0.952 . S
H34 C32 0.948 . S
H35 C24 0.952 . S
H36 C26 0.948 . S
C37 C3 1.395 . S
C37 C7 1.391 . S
C38 C0 1.389 . S
C38 C20 1.392 . S
C39 C10 1.392 . S
C39 C12 1.389 1_655 S
C40 C15 1.395 . S
C40 C17 1.391 . S
H41 C1 0.951 . S
H42 C2 0.950 . S
H43 C8 0.949 . S
H44 C9 0.950 . S
H45 C13 0.951 . S
H46 C14 0.950 . S
H47 C18 0.949 . S
H48 C19 0.950 . S
H49 C23 0.950 . S
H50 C25 0.950 . S
H51 C28 0.950 . S
H52 C30 0.950 . S
C53 C54 1.443 1_545 S
C53 N57 1.376 1_545 S
C53 C91 1.389 . S
C54 C53 1.443 1_565 S
C54 C55 1.340 . S
C54 H94 0.951 . S
C55 C54 1.340 . S
C55 C56 1.439 . S
C55 H95 0.950 . S
C56 C55 1.439 . S
C56 N57 1.374 . S
C56 C90 1.395 . S
N57 C53 1.376 1_565 S
N57 C56 1.374 . S
N57 Co58 2.008 1_565 S
Co58 N57 2.008 1_545 S
Co58 N59 1.995 1_545 S
Co58 N64 2.008 . S
Co58 N69 1.995 . S
Co58 N74 2.282 . S
Co58 N80 2.282 . S
N59 Co58 1.995 1_565 S
N59 C60 1.376 . S
N59 C63 1.383 . S
C60 N59 1.376 . S
C60 C61 1.446 . S
C60 C90 1.391 . S
C61 C60 1.446 . S
C61 C62 1.339 . S
C61 H96 0.949 . S
C62 C61 1.339 . S
C62 C63 1.439 . S
C62 H97 0.950 . S
C63 N59 1.383 . S
C63 C62 1.439 . S
C63 C92 1.392 . S
N64 Co58 2.008 . S
N64 C65 1.376 . S
N64 C68 1.374 . S
C65 N64 1.376 . S
C65 C66 1.443 . S
C65 C92 1.389 1_545 S
C66 C65 1.443 . S
C66 C67 1.340 . S
C66 H98 0.951 . S
C67 C66 1.340 . S
C67 C68 1.439 . S
C67 H99 0.950 . S
C68 N64 1.374 . S
C68 C67 1.439 . S
C68 C93 1.395 . S
N69 Co58 1.995 . S
N69 C70 1.376 . S
N69 C73 1.383 . S
C70 N69 1.376 . S
C70 C71 1.446 . S
C70 C93 1.391 . S
C71 C70 1.446 . S
C71 C72 1.339 . S
C71 H100 0.949 . S
C72 C71 1.339 . S
C72 C73 1.439 . S
C72 H101 0.950 . S
C73 N69 1.383 . S
C73 C72 1.439 . S
C73 C91 1.392 . S
N74 Co58 2.282 . S
N74 C77 1.332 . S
N74 C79 1.332 1_545 S
C75 C76 1.386 . S
C75 C78 1.388 1_545 S
C76 C75 1.386 . S
C76 C77 1.382 . S
C76 H102 0.950 . S
C77 N74 1.332 . S
C77 C76 1.382 . S
C77 H88 0.952 . S
C78 C75 1.388 1_565 S
C78 C79 1.382 . S
C78 H103 0.950 . S
C79 N74 1.332 1_565 S
C79 C78 1.382 . S
C79 H89 0.948 . S
N80 Co58 2.282 . S
N80 C84 1.332 1_545 S
N80 C85 1.332 . S
C81 C82 1.388 . S
C81 C85 1.382 . S
C81 H104 0.950 . S
C82 C81 1.388 . S
C82 C83 1.386 1_545 S
C83 C82 1.386 1_565 S
C83 C84 1.382 . S
C83 H105 0.950 . S
C84 N80 1.332 1_565 S
C84 C83 1.382 . S
C84 H86 0.952 . S
C85 N80 1.332 . S
C85 C81 1.382 . S
C85 H87 0.948 . S
H86 C84 0.952 . S
H87 C85 0.948 . S
H88 C77 0.952 . S
H89 C79 0.948 . S
C90 C56 1.395 . S
C90 C60 1.391 . S
C91 C53 1.389 . S
C91 C73 1.392 . S
C92 C63 1.392 . S
C92 C65 1.389 1_565 S
C93 C68 1.395 . S
C93 C70 1.391 . S
H94 C54 0.951 . S
H95 C55 0.950 . S
H96 C61 0.949 . S
H97 C62 0.950 . S
H98 C66 0.951 . S
H99 C67 0.950 . S
H100 C71 0.949 . S
H101 C72 0.950 . S
H102 C76 0.950 . S
H103 C78 0.950 . S
H104 C81 0.950 . S
H105 C83 0.950 . S
C106 C107 1.443 . S
C106 N110 1.376 . S
C106 C144 1.389 . S
C107 C106 1.443 . S
C107 C108 1.340 . S
C107 H147 0.951 . S
C108 C107 1.340 . S
C108 C109 1.439 . S
C108 H148 0.950 . S
C109 C108 1.439 . S
C109 N110 1.374 . S
C109 C143 1.395 . S
N110 C106 1.376 . S
N110 C109 1.374 . S
N110 Co111 2.008 . S
Co111 N110 2.008 . S
Co111 N112 1.995 . S
Co111 N117 2.008 . S
Co111 N122 1.995 . S
Co111 N127 2.282 . S
Co111 N133 2.282 . S
N112 Co111 1.995 . S
N112 C113 1.376 . S
N112 C116 1.383 . S
C113 N112 1.376 . S
C113 C114 1.446 . S
C113 C143 1.391 . S
C114 C113 1.446 . S
C114 C115 1.339 . S
C114 H149 0.949 . S
C115 C114 1.339 . S
C115 C116 1.439 . S
C115 H150 0.950 . S
C116 N112 1.383 . S
C116 C115 1.439 . S
C116 C145 1.392 . S
N117 Co111 2.008 . S
N117 C118 1.376 . S
N117 C121 1.374 . S
C118 N117 1.376 . S
C118 C119 1.443 . S
C118 C145 1.389 . S
C119 C118 1.443 . S
C119 C120 1.340 . S
C119 H151 0.951 . S
C120 C119 1.340 . S
C120 C121 1.439 . S
C120 H152 0.950 . S
C121 N117 1.374 . S
C121 C120 1.439 . S
C121 C146 1.395 . S
N122 Co111 1.995 . S
N122 C123 1.376 . S
N122 C126 1.383 . S
C123 N122 1.376 . S
C123 C124 1.446 . S
C123 C146 1.391 . S
C124 C123 1.446 . S
C124 C125 1.339 . S
C124 H153 0.949 . S
C125 C124 1.339 . S
C125 C126 1.439 . S
C125 H154 0.950 . S
C126 N122 1.383 . S
C126 C125 1.439 . S
C126 C144 1.392 . S
N127 Co111 2.282 . S
N127 C130 1.332 . S
N127 C132 1.332 . S
C128 C129 1.386 . S
C128 C131 1.388 . S
C129 C128 1.386 . S
C129 C130 1.382 . S
C129 H155 0.950 . S
C130 N127 1.332 . S
C130 C129 1.382 . S
C130 H141 0.952 . S
C131 C128 1.388 . S
C131 C132 1.382 . S
C131 H156 0.950 . S
C132 N127 1.332 . S
C132 C131 1.382 . S
C132 H142 0.948 . S
N133 Co111 2.282 . S
N133 C137 1.332 . S
N133 C138 1.332 . S
C134 C135 1.388 . S
C134 C138 1.382 . S
C134 H157 0.950 . S
C135 C134 1.388 . S
C135 C136 1.386 . S
C136 C135 1.386 . S
C136 C137 1.382 . S
C136 H158 0.950 . S
C137 N133 1.332 . S
C137 C136 1.382 . S
C137 H139 0.952 . S
C138 N133 1.332 . S
C138 C134 1.382 . S
C138 H140 0.948 . S
H139 C137 0.952 . S
H140 C138 0.948 . S
H141 C130 0.952 . S
H142 C132 0.948 . S
C143 C109 1.395 . S
C143 C113 1.391 . S
C144 C106 1.389 . S
C144 C126 1.392 . S
C145 C116 1.392 . S
C145 C118 1.389 . S
C146 C121 1.395 . S
C146 C123 1.391 . S
H147 C107 0.951 . S
H148 C108 0.950 . S
H149 C114 0.949 . S
H150 C115 0.950 . S
H151 C119 0.951 . S
H152 C120 0.950 . S
H153 C124 0.949 . S
H154 C125 0.950 . S
H155 C129 0.950 . S
H156 C131 0.950 . S
H157 C134 0.950 . S
H158 C136 0.950 . S
C159 C160 1.443 1_655 S
C159 N163 1.376 1_655 S
C159 C197 1.389 . S
C160 C159 1.443 1_455 S
C160 C161 1.340 . S
C160 H200 0.951 . S
C161 C160 1.340 . S
C161 C162 1.439 . S
C161 H201 0.950 . S
C162 C161 1.439 . S
C162 N163 1.374 . S
C162 C196 1.395 . S
N163 C159 1.376 1_455 S
N163 C162 1.374 . S
N163 Co164 2.008 1_455 S
Co164 N163 2.008 1_655 S
Co164 N165 1.995 1_655 S
Co164 N170 2.008 . S
Co164 N175 1.995 . S
Co164 N180 2.282 . S
Co164 N186 2.282 . S
N165 Co164 1.995 1_455 S
N165 C166 1.376 . S
N165 C169 1.383 . S
C166 N165 1.376 . S
C166 C167 1.446 . S
C166 C196 1.391 . S
C167 C166 1.446 . S
C167 C168 1.339 . S
C167 H202 0.949 . S
C168 C167 1.339 . S
C168 C169 1.439 . S
C168 H203 0.950 . S
C169 N165 1.383 . S
C169 C168 1.439 . S
C169 C198 1.392 . S
N170 Co164 2.008 . S
N170 C171 1.376 . S
N170 C174 1.374 . S
C171 N170 1.376 . S
C171 C172 1.443 . S
C171 C198 1.389 1_655 S
C172 C171 1.443 . S
C172 C173 1.340 . S
C172 H204 0.951 . S
C173 C172 1.340 . S
C173 C174 1.439 . S
C173 H205 0.950 . S
C174 N170 1.374 . S
C174 C173 1.439 . S
C174 C199 1.395 . S
N175 Co164 1.995 . S
N175 C176 1.376 . S
N175 C179 1.383 . S
C176 N175 1.376 . S
C176 C177 1.446 . S
C176 C199 1.391 . S
C177 C176 1.446 . S
C177 C178 1.339 . S
C177 H206 0.949 . S
C178 C177 1.339 . S
C178 C179 1.439 . S
C178 H207 0.950 . S
C179 N175 1.383 . S
C179 C178 1.439 . S
C179 C197 1.392 . S
N180 Co164 2.282 . S
N180 C183 1.332 . S
N180 C185 1.332 1_655 S
C181 C182 1.386 . S
C181 C184 1.388 1_655 S
C182 C181 1.386 . S
C182 C183 1.382 . S
C182 H208 0.950 . S
C183 N180 1.332 . S
C183 C182 1.382 . S
C183 H194 0.952 . S
C184 C181 1.388 1_455 S
C184 C185 1.382 . S
C184 H209 0.950 . S
C185 N180 1.332 1_455 S
C185 C184 1.382 . S
C185 H195 0.948 . S
N186 Co164 2.282 . S
N186 C190 1.332 1_655 S
N186 C191 1.332 . S
C187 C188 1.388 . S
C187 C191 1.382 . S
C187 H210 0.950 . S
C188 C187 1.388 . S
C188 C189 1.386 1_655 S
C189 C188 1.386 1_455 S
C189 C190 1.382 . S
C189 H211 0.950 . S
C190 N186 1.332 1_455 S
C190 C189 1.382 . S
C190 H192 0.952 . S
C191 N186 1.332 . S
C191 C187 1.382 . S
C191 H193 0.948 . S
H192 C190 0.952 . S
H193 C191 0.948 . S
H194 C183 0.952 . S
H195 C185 0.948 . S
C196 C162 1.395 . S
C196 C166 1.391 . S
C197 C159 1.389 . S
C197 C179 1.392 . S
C198 C169 1.392 . S
C198 C171 1.389 1_455 S
C199 C174 1.395 . S
C199 C176 1.391 . S
H200 C160 0.951 . S
H201 C161 0.950 . S
H202 C167 0.949 . S
H203 C168 0.950 . S
H204 C172 0.951 . S
H205 C173 0.950 . S
H206 C177 0.949 . S
H207 C178 0.950 . S
H208 C182 0.950 . S
H209 C184 0.950 . S
H210 C187 0.950 . S
H211 C189 0.950 . S
C212 C213 1.443 1_565 S
C212 N216 1.376 1_565 S
C212 C250 1.389 . S
C213 C212 1.443 1_545 S
C213 C214 1.340 . S
C213 H253 0.951 . S
C214 C213 1.340 . S
C214 C215 1.439 . S
C214 H254 0.950 . S
C215 C214 1.439 . S
C215 N216 1.374 . S
C215 C249 1.395 . S
N216 C212 1.376 1_545 S
N216 C215 1.374 . S
N216 Co217 2.008 1_545 S
Co217 N216 2.008 1_565 S
Co217 N218 1.995 1_565 S
Co217 N223 2.008 . S
Co217 N228 1.995 . S
Co217 N233 2.282 . S
Co217 N239 2.282 . S
N218 Co217 1.995 1_545 S
N218 C219 1.376 . S
N218 C222 1.383 . S
C219 N218 1.376 . S
C219 C220 1.446 . S
C219 C249 1.391 . S
C220 C219 1.446 . S
C220 C221 1.339 . S
C220 H255 0.949 . S
C221 C220 1.339 . S
C221 C222 1.439 . S
C221 H256 0.950 . S
C222 N218 1.383 . S
C222 C221 1.439 . S
C222 C251 1.392 . S
N223 Co217 2.008 . S
N223 C224 1.376 . S
N223 C227 1.374 . S
C224 N223 1.376 . S
C224 C225 1.443 . S
C224 C251 1.389 1_565 S
C225 C224 1.443 . S
C225 C226 1.340 . S
C225 H257 0.951 . S
C226 C225 1.340 . S
C226 C227 1.439 . S
C226 H258 0.950 . S
C227 N223 1.374 . S
C227 C226 1.439 . S
C227 C252 1.395 . S
N228 Co217 1.995 . S
N228 C229 1.376 . S
N228 C232 1.383 . S
C229 N228 1.376 . S
C229 C230 1.446 . S
C229 C252 1.391 . S
C230 C229 1.446 . S
C230 C231 1.339 . S
C230 H259 0.949 . S
C231 C230 1.339 . S
C231 C232 1.439 . S
C231 H260 0.950 . S
C232 N228 1.383 . S
C232 C231 1.439 . S
C232 C250 1.392 . S
N233 Co217 2.282 . S
N233 C236 1.332 . S
N233 C238 1.332 1_565 S
C234 C235 1.386 . S
C234 C237 1.388 1_565 S
C235 C234 1.386 . S
C235 C236 1.382 . S
C235 H261 0.950 . S
C236 N233 1.332 . S
C236 C235 1.382 . S
C236 H247 0.952 . S
C237 C234 1.388 1_545 S
C237 C238 1.382 . S
C237 H262 0.950 . S
C238 N233 1.332 1_545 S
C238 C237 1.382 . S
C238 H248 0.948 . S
N239 Co217 2.282 . S
N239 C243 1.332 1_565 S
N239 C244 1.332 . S
C240 C241 1.388 . S
C240 C244 1.382 . S
C240 H263 0.950 . S
C241 C240 1.388 . S
C241 C242 1.386 1_565 S
C242 C241 1.386 1_545 S
C242 C243 1.382 . S
C242 H264 0.950 . S
C243 N239 1.332 1_545 S
C243 C242 1.382 . S
C243 H245 0.952 . S
C244 N239 1.332 . S
C244 C240 1.382 . S
C244 H246 0.948 . S
H245 C243 0.952 . S
H246 C244 0.948 . S
H247 C236 0.952 . S
H248 C238 0.948 . S
C249 C215 1.395 . S
C249 C219 1.391 . S
C250 C212 1.389 . S
C250 C232 1.392 . S
C251 C222 1.392 . S
C251 C224 1.389 1_545 S
C252 C227 1.395 . S
C252 C229 1.391 . S
H253 C213 0.951 . S
H254 C214 0.950 . S
H255 C220 0.949 . S
H256 C221 0.950 . S
H257 C225 0.951 . S
H258 C226 0.950 . S
H259 C230 0.949 . S
H260 C231 0.950 . S
H261 C235 0.950 . S
H262 C237 0.950 . S
H263 C240 0.950 . S
H264 C242 0.950 . S
C265 C266 1.443 . S
C265 N269 1.376 . S
C265 C303 1.389 . S
C266 C265 1.443 . S
C266 C267 1.340 . S
C266 H306 0.951 . S
C267 C266 1.340 . S
C267 C268 1.439 . S
C267 H307 0.950 . S
C268 C267 1.439 . S
C268 N269 1.374 . S
C268 C302 1.395 . S
N269 C265 1.376 . S
N269 C268 1.374 . S
N269 Co270 2.008 . S
Co270 N269 2.008 . S
Co270 N271 1.995 . S
Co270 N276 2.008 . S
Co270 N281 1.995 . S
Co270 N286 2.282 . S
Co270 N292 2.282 . S
N271 Co270 1.995 . S
N271 C272 1.376 . S
N271 C275 1.383 . S
C272 N271 1.376 . S
C272 C273 1.446 . S
C272 C302 1.391 . S
C273 C272 1.446 . S
C273 C274 1.339 . S
C273 H308 0.949 . S
C274 C273 1.339 . S
C274 C275 1.439 . S
C274 H309 0.950 . S
C275 N271 1.383 . S
C275 C274 1.439 . S
C275 C304 1.392 . S
N276 Co270 2.008 . S
N276 C277 1.376 . S
N276 C280 1.374 . S
C277 N276 1.376 . S
C277 C278 1.443 . S
C277 C304 1.389 . S
C278 C277 1.443 . S
C278 C279 1.340 . S
C278 H310 0.951 . S
C279 C278 1.340 . S
C279 C280 1.439 . S
C279 H311 0.950 . S
C280 N276 1.374 . S
C280 C279 1.439 . S
C280 C305 1.395 . S
N281 Co270 1.995 . S
N281 C282 1.376 . S
N281 C285 1.383 . S
C282 N281 1.376 . S
C282 C283 1.446 . S
C282 C305 1.391 . S
C283 C282 1.446 . S
C283 C284 1.339 . S
C283 H312 0.949 . S
C284 C283 1.339 . S
C284 C285 1.439 . S
C284 H313 0.950 . S
C285 N281 1.383 . S
C285 C284 1.439 . S
C285 C303 1.392 . S
N286 Co270 2.282 . S
N286 C289 1.332 . S
N286 C291 1.332 . S
C287 C288 1.386 . S
C287 C290 1.388 . S
C288 C287 1.386 . S
C288 C289 1.382 . S
C288 H314 0.950 . S
C289 N286 1.332 . S
C289 C288 1.382 . S
C289 H300 0.952 . S
C290 C287 1.388 . S
C290 C291 1.382 . S
C290 H315 0.950 . S
C291 N286 1.332 . S
C291 C290 1.382 . S
C291 H301 0.948 . S
N292 Co270 2.282 . S
N292 C296 1.332 . S
N292 C297 1.332 . S
C293 C294 1.388 . S
C293 C297 1.382 . S
C293 H316 0.950 . S
C294 C293 1.388 . S
C294 C295 1.386 . S
C295 C294 1.386 . S
C295 C296 1.382 . S
C295 H317 0.950 . S
C296 N292 1.332 . S
C296 C295 1.382 . S
C296 H298 0.952 . S
C297 N292 1.332 . S
C297 C293 1.382 . S
C297 H299 0.948 . S
H298 C296 0.952 . S
H299 C297 0.948 . S
H300 C289 0.952 . S
H301 C291 0.948 . S
C302 C268 1.395 . S
C302 C272 1.391 . S
C303 C265 1.389 . S
C303 C285 1.392 . S
C304 C275 1.392 . S
C304 C277 1.389 . S
C305 C280 1.395 . S
C305 C282 1.391 . S
H306 C266 0.951 . S
H307 C267 0.950 . S
H308 C273 0.949 . S
H309 C274 0.950 . S
H310 C278 0.951 . S
H311 C279 0.950 . S
H312 C283 0.949 . S
H313 C284 0.950 . S
H314 C288 0.950 . S
H315 C290 0.950 . S
H316 C293 0.950 . S
H317 C295 0.950 . S
C318 C319 1.443 1_565 S
C318 N322 1.376 1_565 S
C318 C356 1.389 . S
C319 C318 1.443 1_545 S
C319 C320 1.340 . S
C319 H359 0.951 . S
C320 C319 1.340 . S
C320 C321 1.439 . S
C320 H360 0.950 . S
C321 C320 1.439 . S
C321 N322 1.374 . S
C321 C355 1.395 . S
N322 C318 1.376 1_545 S
N322 C321 1.374 . S
N322 Co323 2.008 1_545 S
Co323 N322 2.008 1_565 S
Co323 N324 1.995 1_565 S
Co323 N329 2.008 . S
Co323 N334 1.995 . S
Co323 N339 2.282 . S
Co323 N345 2.282 . S
N324 Co323 1.995 1_545 S
N324 C325 1.376 . S
N324 C328 1.383 . S
C325 N324 1.376 . S
C325 C326 1.446 . S
C325 C355 1.391 . S
C326 C325 1.446 . S
C326 C327 1.339 . S
C326 H361 0.949 . S
C327 C326 1.339 . S
C327 C328 1.439 . S
C327 H362 0.950 . S
C328 N324 1.383 . S
C328 C327 1.439 . S
C328 C357 1.392 . S
N329 Co323 2.008 . S
N329 C330 1.376 . S
N329 C333 1.374 . S
C330 N329 1.376 . S
C330 C331 1.443 . S
C330 C357 1.389 1_565 S
C331 C330 1.443 . S
C331 C332 1.340 . S
C331 H363 0.951 . S
C332 C331 1.340 . S
C332 C333 1.439 . S
C332 H364 0.950 . S
C333 N329 1.374 . S
C333 C332 1.439 . S
C333 C358 1.395 . S
N334 Co323 1.995 . S
N334 C335 1.376 . S
N334 C338 1.383 . S
C335 N334 1.376 . S
C335 C336 1.446 . S
C335 C358 1.391 . S
C336 C335 1.446 . S
C336 C337 1.339 . S
C336 H365 0.949 . S
C337 C336 1.339 . S
C337 C338 1.439 . S
C337 H366 0.950 . S
C338 N334 1.383 . S
C338 C337 1.439 . S
C338 C356 1.392 . S
N339 Co323 2.282 . S
N339 C342 1.332 . S
N339 C344 1.332 1_565 S
C340 C341 1.386 . S
C340 C343 1.388 1_565 S
C341 C340 1.386 . S
C341 C342 1.382 . S
C341 H367 0.950 . S
C342 N339 1.332 . S
C342 C341 1.382 . S
C342 H353 0.952 . S
C343 C340 1.388 1_545 S
C343 C344 1.382 . S
C343 H368 0.950 . S
C344 N339 1.332 1_545 S
C344 C343 1.382 . S
C344 H354 0.948 . S
N345 Co323 2.282 . S
N345 C349 1.332 1_565 S
N345 C350 1.332 . S
C346 C347 1.388 . S
C346 C350 1.382 . S
C346 H369 0.950 . S
C347 C346 1.388 . S
C347 C348 1.386 1_565 S
C348 C347 1.386 1_545 S
C348 C349 1.382 . S
C348 H370 0.950 . S
C349 N345 1.332 1_545 S
C349 C348 1.382 . S
C349 H351 0.952 . S
C350 N345 1.332 . S
C350 C346 1.382 . S
C350 H352 0.948 . S
H351 C349 0.952 . S
H352 C350 0.948 . S
H353 C342 0.952 . S
H354 C344 0.948 . S
C355 C321 1.395 . S
C355 C325 1.391 . S
C356 C318 1.389 . S
C356 C338 1.392 . S
C357 C328 1.392 . S
C357 C330 1.389 1_545 S
C358 C333 1.395 . S
C358 C335 1.391 . S
H359 C319 0.951 . S
H360 C320 0.950 . S
H361 C326 0.949 . S
H362 C327 0.950 . S
H363 C331 0.951 . S
H364 C332 0.950 . S
H365 C336 0.949 . S
H366 C337 0.950 . S
H367 C341 0.950 . S
H368 C343 0.950 . S
H369 C346 0.950 . S
H370 C348 0.950 . S
C371 C372 1.443 . S
C371 N375 1.376 . S
C371 C409 1.389 . S
C372 C371 1.443 . S
C372 C373 1.340 . S
C372 H412 0.951 . S
C373 C372 1.340 . S
C373 C374 1.439 . S
C373 H413 0.950 . S
C374 C373 1.439 . S
C374 N375 1.374 . S
C374 C408 1.395 . S
N375 C371 1.376 . S
N375 C374 1.374 . S
N375 Co376 2.008 . S
Co376 N375 2.008 . S
Co376 N377 1.995 . S
Co376 N382 2.008 . S
Co376 N387 1.995 . S
Co376 N392 2.282 . S
Co376 N398 2.282 . S
N377 Co376 1.995 . S
N377 C378 1.376 . S
N377 C381 1.383 . S
C378 N377 1.376 . S
C378 C379 1.446 . S
C378 C408 1.391 . S
C379 C378 1.446 . S
C379 C380 1.339 . S
C379 H414 0.949 . S
C380 C379 1.339 . S
C380 C381 1.439 . S
C380 H415 0.950 . S
C381 N377 1.383 . S
C381 C380 1.439 . S
C381 C410 1.392 . S
N382 Co376 2.008 . S
N382 C383 1.376 . S
N382 C386 1.374 . S
C383 N382 1.376 . S
C383 C384 1.443 . S
C383 C410 1.389 . S
C384 C383 1.443 . S
C384 C385 1.340 . S
C384 H416 0.951 . S
C385 C384 1.340 . S
C385 C386 1.439 . S
C385 H417 0.950 . S
C386 N382 1.374 . S
C386 C385 1.439 . S
C386 C411 1.395 . S
N387 Co376 1.995 . S
N387 C388 1.376 . S
N387 C391 1.383 . S
C388 N387 1.376 . S
C388 C389 1.446 . S
C388 C411 1.391 . S
C389 C388 1.446 . S
C389 C390 1.339 . S
C389 H418 0.949 . S
C390 C389 1.339 . S
C390 C391 1.439 . S
C390 H419 0.950 . S
C391 N387 1.383 . S
C391 C390 1.439 . S
C391 C409 1.392 . S
N392 Co376 2.282 . S
N392 C395 1.332 . S
N392 C397 1.332 . S
C393 C394 1.386 . S
C393 C396 1.388 . S
C394 C393 1.386 . S
C394 C395 1.382 . S
C394 H420 0.950 . S
C395 N392 1.332 . S
C395 C394 1.382 . S
C395 H406 0.952 . S
C396 C393 1.388 . S
C396 C397 1.382 . S
C396 H421 0.950 . S
C397 N392 1.332 . S
C397 C396 1.382 . S
C397 H407 0.948 . S
N398 Co376 2.282 . S
N398 C402 1.332 . S
N398 C403 1.332 . S
C399 C400 1.388 . S
C399 C403 1.382 . S
C399 H422 0.950 . S
C400 C399 1.388 . S
C400 C401 1.386 . S
C401 C400 1.386 . S
C401 C402 1.382 . S
C401 H423 0.950 . S
C402 N398 1.332 . S
C402 C401 1.382 . S
C402 H404 0.952 . S
C403 N398 1.332 . S
C403 C399 1.382 . S
C403 H405 0.948 . S
H404 C402 0.952 . S
H405 C403 0.948 . S
H406 C395 0.952 . S
H407 C397 0.948 . S
C408 C374 1.395 . S
C408 C378 1.391 . S
C409 C371 1.389 . S
C409 C391 1.392 . S
C410 C381 1.392 . S
C410 C383 1.389 . S
C411 C386 1.395 . S
C411 C388 1.391 . S
H412 C372 0.951 . S
H413 C373 0.950 . S
H414 C379 0.949 . S
H415 C380 0.950 . S
H416 C384 0.951 . S
H417 C385 0.950 . S
H418 C389 0.949 . S
H419 C390 0.950 . S
H420 C394 0.950 . S
H421 C396 0.950 . S
H422 C399 0.950 . S
H423 C401 0.950 . S
C424 C425 1.443 1_455 S
C424 N428 1.376 1_455 S
C424 C462 1.389 . S
C425 C424 1.443 1_655 S
C425 C426 1.340 . S
C425 H465 0.951 . S
C426 C425 1.340 . S
C426 C427 1.439 . S
C426 H466 0.950 . S
C427 C426 1.439 . S
C427 N428 1.374 . S
C427 C461 1.395 . S
N428 C424 1.376 1_655 S
N428 C427 1.374 . S
N428 Co429 2.008 1_655 S
Co429 N428 2.008 1_455 S
Co429 N430 1.995 1_455 S
Co429 N435 2.008 . S
Co429 N440 1.995 . S
Co429 N445 2.282 . S
Co429 N451 2.282 . S
N430 Co429 1.995 1_655 S
N430 C431 1.376 . S
N430 C434 1.383 . S
C431 N430 1.376 . S
C431 C432 1.446 . S
C431 C461 1.391 . S
C432 C431 1.446 . S
C432 C433 1.339 . S
C432 H467 0.949 . S
C433 C432 1.339 . S
C433 C434 1.439 . S
C433 H468 0.950 . S
C434 N430 1.383 . S
C434 C433 1.439 . S
C434 C463 1.392 . S
N435 Co429 2.008 . S
N435 C436 1.376 . S
N435 C439 1.374 . S
C436 N435 1.376 . S
C436 C437 1.443 . S
C436 C463 1.389 1_455 S
C437 C436 1.443 . S
C437 C438 1.340 . S
C437 H469 0.951 . S
C438 C437 1.340 . S
C438 C439 1.439 . S
C438 H470 0.950 . S
C439 N435 1.374 . S
C439 C438 1.439 . S
C439 C464 1.395 . S
N440 Co429 1.995 . S
N440 C441 1.376 . S
N440 C444 1.383 . S
C441 N440 1.376 . S
C441 C442 1.446 . S
C441 C464 1.391 . S
C442 C441 1.446 . S
C442 C443 1.339 . S
C442 H471 0.949 . S
C443 C442 1.339 . S
C443 C444 1.439 . S
C443 H472 0.950 . S
C444 N440 1.383 . S
C444 C443 1.439 . S
C444 C462 1.392 . S
N445 Co429 2.282 . S
N445 C448 1.332 . S
N445 C450 1.332 1_455 S
C446 C447 1.386 . S
C446 C449 1.388 1_455 S
C447 C446 1.386 . S
C447 C448 1.382 . S
C447 H473 0.950 . S
C448 N445 1.332 . S
C448 C447 1.382 . S
C448 H459 0.952 . S
C449 C446 1.388 1_655 S
C449 C450 1.382 . S
C449 H474 0.950 . S
C450 N445 1.332 1_655 S
C450 C449 1.382 . S
C450 H460 0.948 . S
N451 Co429 2.282 . S
N451 C455 1.332 1_455 S
N451 C456 1.332 . S
C452 C453 1.388 . S
C452 C456 1.382 . S
C452 H475 0.950 . S
C453 C452 1.388 . S
C453 C454 1.386 1_455 S
C454 C453 1.386 1_655 S
C454 C455 1.382 . S
C454 H476 0.950 . S
C455 N451 1.332 1_655 S
C455 C454 1.382 . S
C455 H457 0.952 . S
C456 N451 1.332 . S
C456 C452 1.382 . S
C456 H458 0.948 . S
H457 C455 0.952 . S
H458 C456 0.948 . S
H459 C448 0.952 . S
H460 C450 0.948 . S
C461 C427 1.395 . S
C461 C431 1.391 . S
C462 C424 1.389 . S
C462 C444 1.392 . S
C463 C434 1.392 . S
C463 C436 1.389 1_655 S
C464 C439 1.395 . S
C464 C441 1.391 . S
H465 C425 0.951 . S
H466 C426 0.950 . S
H467 C432 0.949 . S
H468 C433 0.950 . S
H469 C437 0.951 . S
H470 C438 0.950 . S
H471 C442 0.949 . S
H472 C443 0.950 . S
H473 C447 0.950 . S
H474 C449 0.950 . S
H475 C452 0.950 . S
H476 C454 0.950 . S
C477 C478 1.443 1_545 S
C477 N481 1.376 1_545 S
C477 C515 1.389 . S
C478 C477 1.443 1_565 S
C478 C479 1.340 . S
C478 H518 0.951 . S
C479 C478 1.340 . S
C479 C480 1.439 . S
C479 H519 0.950 . S
C480 C479 1.439 . S
C480 N481 1.374 . S
C480 C514 1.395 . S
N481 C477 1.376 1_565 S
N481 C480 1.374 . S
N481 Co482 2.008 1_565 S
Co482 N481 2.008 1_545 S
Co482 N483 1.995 1_545 S
Co482 N488 2.008 . S
Co482 N493 1.995 . S
Co482 N498 2.282 . S
Co482 N504 2.282 . S
N483 Co482 1.995 1_565 S
N483 C484 1.376 . S
N483 C487 1.383 . S
C484 N483 1.376 . S
C484 C485 1.446 . S
C484 C514 1.391 . S
C485 C484 1.446 . S
C485 C486 1.339 . S
C485 H520 0.949 . S
C486 C485 1.339 . S
C486 C487 1.439 . S
C486 H521 0.950 . S
C487 N483 1.383 . S
C487 C486 1.439 . S
C487 C516 1.392 . S
N488 Co482 2.008 . S
N488 C489 1.376 . S
N488 C492 1.374 . S
C489 N488 1.376 . S
C489 C490 1.443 . S
C489 C516 1.389 1_545 S
C490 C489 1.443 . S
C490 C491 1.340 . S
C490 H522 0.951 . S
C491 C490 1.340 . S
C491 C492 1.439 . S
C491 H523 0.950 . S
C492 N488 1.374 . S
C492 C491 1.439 . S
C492 C517 1.395 . S
N493 Co482 1.995 . S
N493 C494 1.376 . S
N493 C497 1.383 . S
C494 N493 1.376 . S
C494 C495 1.446 . S
C494 C517 1.391 . S
C495 C494 1.446 . S
C495 C496 1.339 . S
C495 H524 0.949 . S
C496 C495 1.339 . S
C496 C497 1.439 . S
C496 H525 0.950 . S
C497 N493 1.383 . S
C497 C496 1.439 . S
C497 C515 1.392 . S
N498 Co482 2.282 . S
N498 C501 1.332 . S
N498 C503 1.332 1_545 S
C499 C500 1.386 . S
C499 C502 1.388 1_545 S
C500 C499 1.386 . S
C500 C501 1.382 . S
C500 H526 0.950 . S
C501 N498 1.332 . S
C501 C500 1.382 . S
C501 H512 0.952 . S
C502 C499 1.388 1_565 S
C502 C503 1.382 . S
C502 H527 0.950 . S
C503 N498 1.332 1_565 S
C503 C502 1.382 . S
C503 H513 0.948 . S
N504 Co482 2.282 . S
N504 C508 1.332 1_545 S
N504 C509 1.332 . S
C505 C506 1.388 . S
C505 C509 1.382 . S
C505 H528 0.950 . S
C506 C505 1.388 . S
C506 C507 1.386 1_545 S
C507 C506 1.386 1_565 S
C507 C508 1.382 . S
C507 H529 0.950 . S
C508 N504 1.332 1_565 S
C508 C507 1.382 . S
C508 H510 0.952 . S
C509 N504 1.332 . S
C509 C505 1.382 . S
C509 H511 0.948 . S
H510 C508 0.952 . S
H511 C509 0.948 . S
H512 C501 0.952 . S
H513 C503 0.948 . S
C514 C480 1.395 . S
C514 C484 1.391 . S
C515 C477 1.389 . S
C515 C497 1.392 . S
C516 C487 1.392 . S
C516 C489 1.389 1_565 S
C517 C492 1.395 . S
C517 C494 1.391 . S
H518 C478 0.951 . S
H519 C479 0.950 . S
H520 C485 0.949 . S
H521 C486 0.950 . S
H522 C490 0.951 . S
H523 C491 0.950 . S
H524 C495 0.949 . S
H525 C496 0.950 . S
H526 C500 0.950 . S
H527 C502 0.950 . S
H528 C505 0.950 . S
H529 C507 0.950 . S
C530 C531 1.443 . S
C530 N534 1.376 . S
C530 C568 1.389 . S
C531 C530 1.443 . S
C531 C532 1.340 . S
C531 H571 0.951 . S
C532 C531 1.340 . S
C532 C533 1.439 . S
C532 H572 0.950 . S
C533 C532 1.439 . S
C533 N534 1.374 . S
C533 C567 1.395 . S
N534 C530 1.376 . S
N534 C533 1.374 . S
N534 Co535 2.008 . S
Co535 N534 2.008 . S
Co535 N536 1.995 . S
Co535 N541 2.008 . S
Co535 N546 1.995 . S
Co535 N551 2.282 . S
Co535 N557 2.282 . S
N536 Co535 1.995 . S
N536 C537 1.376 . S
N536 C540 1.383 . S
C537 N536 1.376 . S
C537 C538 1.446 . S
C537 C567 1.391 . S
C538 C537 1.446 . S
C538 C539 1.339 . S
C538 H573 0.949 . S
C539 C538 1.339 . S
C539 C540 1.439 . S
C539 H574 0.950 . S
C540 N536 1.383 . S
C540 C539 1.439 . S
C540 C569 1.392 . S
N541 Co535 2.008 . S
N541 C542 1.376 . S
N541 C545 1.374 . S
C542 N541 1.376 . S
C542 C543 1.443 . S
C542 C569 1.389 . S
C543 C542 1.443 . S
C543 C544 1.340 . S
C543 H575 0.951 . S
C544 C543 1.340 . S
C544 C545 1.439 . S
C544 H576 0.950 . S
C545 N541 1.374 . S
C545 C544 1.439 . S
C545 C570 1.395 . S
N546 Co535 1.995 . S
N546 C547 1.376 . S
N546 C550 1.383 . S
C547 N546 1.376 . S
C547 C548 1.446 . S
C547 C570 1.391 . S
C548 C547 1.446 . S
C548 C549 1.339 . S
C548 H577 0.949 . S
C549 C548 1.339 . S
C549 C550 1.439 . S
C549 H578 0.950 . S
C550 N546 1.383 . S
C550 C549 1.439 . S
C550 C568 1.392 . S
N551 Co535 2.282 . S
N551 C554 1.332 . S
N551 C556 1.332 . S
C552 C553 1.386 . S
C552 C555 1.388 . S
C553 C552 1.386 . S
C553 C554 1.382 . S
C553 H579 0.950 . S
C554 N551 1.332 . S
C554 C553 1.382 . S
C554 H565 0.952 . S
C555 C552 1.388 . S
C555 C556 1.382 . S
C555 H580 0.950 . S
C556 N551 1.332 . S
C556 C555 1.382 . S
C556 H566 0.948 . S
N557 Co535 2.282 . S
N557 C561 1.332 . S
N557 C562 1.332 . S
C558 C559 1.388 . S
C558 C562 1.382 . S
C558 H581 0.950 . S
C559 C558 1.388 . S
C559 C560 1.386 . S
C560 C559 1.386 . S
C560 C561 1.382 . S
C560 H582 0.950 . S
C561 N557 1.332 . S
C561 C560 1.382 . S
C561 H563 0.952 . S
C562 N557 1.332 . S
C562 C558 1.382 . S
C562 H564 0.948 . S
H563 C561 0.952 . S
H564 C562 0.948 . S
H565 C554 0.952 . S
H566 C556 0.948 . S
C567 C533 1.395 . S
C567 C537 1.391 . S
C568 C530 1.389 . S
C568 C550 1.392 . S
C569 C540 1.392 . S
C569 C542 1.389 . S
C570 C545 1.395 . S
C570 C547 1.391 . S
H571 C531 0.951 . S
H572 C532 0.950 . S
H573 C538 0.949 . S
H574 C539 0.950 . S
H575 C543 0.951 . S
H576 C544 0.950 . S
H577 C548 0.949 . S
H578 C549 0.950 . S
H579 C553 0.950 . S
H580 C555 0.950 . S
H581 C558 0.950 . S
H582 C560 0.950 . S
C583 C584 1.443 1_655 S
C583 N587 1.376 1_655 S
C583 C621 1.389 . S
C584 C583 1.443 1_455 S
C584 C585 1.340 . S
C584 H624 0.951 . S
C585 C584 1.340 . S
C585 C586 1.439 . S
C585 H625 0.950 . S
C586 C585 1.439 . S
C586 N587 1.374 . S
C586 C620 1.395 . S
N587 C583 1.376 1_455 S
N587 C586 1.374 . S
N587 Co588 2.008 1_455 S
Co588 N587 2.008 1_655 S
Co588 N589 1.995 1_655 S
Co588 N594 2.008 . S
Co588 N599 1.995 . S
Co588 N604 2.282 . S
Co588 N610 2.282 . S
N589 Co588 1.995 1_455 S
N589 C590 1.376 . S
N589 C593 1.383 . S
C590 N589 1.376 . S
C590 C591 1.446 . S
C590 C620 1.391 . S
C591 C590 1.446 . S
C591 C592 1.339 . S
C591 H626 0.949 . S
C592 C591 1.339 . S
C592 C593 1.439 . S
C592 H627 0.950 . S
C593 N589 1.383 . S
C593 C592 1.439 . S
C593 C622 1.392 . S
N594 Co588 2.008 . S
N594 C595 1.376 . S
N594 C598 1.374 . S
C595 N594 1.376 . S
C595 C596 1.443 . S
C595 C622 1.389 1_655 S
C596 C595 1.443 . S
C596 C597 1.340 . S
C596 H628 0.951 . S
C597 C596 1.340 . S
C597 C598 1.439 . S
C597 H629 0.950 . S
C598 N594 1.374 . S
C598 C597 1.439 . S
C598 C623 1.395 . S
N599 Co588 1.995 . S
N599 C600 1.376 . S
N599 C603 1.383 . S
C600 N599 1.376 . S
C600 C601 1.446 . S
C600 C623 1.391 . S
C601 C600 1.446 . S
C601 C602 1.339 . S
C601 H630 0.949 . S
C602 C601 1.339 . S
C602 C603 1.439 . S
C602 H631 0.950 . S
C603 N599 1.383 . S
C603 C602 1.439 . S
C603 C621 1.392 . S
N604 Co588 2.282 . S
N604 C607 1.332 . S
N604 C609 1.332 1_655 S
C605 C606 1.386 . S
C605 C608 1.388 1_655 S
C606 C605 1.386 . S
C606 C607 1.382 . S
C606 H632 0.950 . S
C607 N604 1.332 . S
C607 C606 1.382 . S
C607 H618 0.952 . S
C608 C605 1.388 1_455 S
C608 C609 1.382 . S
C608 H633 0.950 . S
C609 N604 1.332 1_455 S
C609 C608 1.382 . S
C609 H619 0.948 . S
N610 Co588 2.282 . S
N610 C614 1.332 1_655 S
N610 C615 1.332 . S
C611 C612 1.388 . S
C611 C615 1.382 . S
C611 H634 0.950 . S
C612 C611 1.388 . S
C612 C613 1.386 1_655 S
C613 C612 1.386 1_455 S
C613 C614 1.382 . S
C613 H635 0.950 . S
C614 N610 1.332 1_455 S
C614 C613 1.382 . S
C614 H616 0.952 . S
C615 N610 1.332 . S
C615 C611 1.382 . S
C615 H617 0.948 . S
H616 C614 0.952 . S
H617 C615 0.948 . S
H618 C607 0.952 . S
H619 C609 0.948 . S
C620 C586 1.395 . S
C620 C590 1.391 . S
C621 C583 1.389 . S
C621 C603 1.392 . S
C622 C593 1.392 . S
C622 C595 1.389 1_455 S
C623 C598 1.395 . S
C623 C600 1.391 . S
H624 C584 0.951 . S
H625 C585 0.950 . S
H626 C591 0.949 . S
H627 C592 0.950 . S
H628 C596 0.951 . S
H629 C597 0.950 . S
H630 C601 0.949 . S
H631 C602 0.950 . S
H632 C606 0.950 . S
H633 C608 0.950 . S
H634 C611 0.950 . S
H635 C613 0.950 . S
C636 C637 1.391 1_655 S
C636 C638 1.394 . S
C636 H652 0.931 . S
C637 C636 1.391 1_455 S
C637 C641 1.376 . S
C638 C636 1.394 . S
C638 C639 1.369 1_655 S
C638 C642 1.531 . S
C639 C638 1.369 1_455 S
C639 C640 1.410 . S
C639 C647 1.503 . S
C640 C639 1.410 . S
C640 C641 1.392 . S
C640 C643 1.511 . S
C641 C637 1.376 . S
C641 C640 1.392 . S
C641 H653 0.929 . S
C642 C638 1.531 . S
C642 H654 0.960 . S
C642 H655 0.962 . S
C642 H656 0.960 . S
C643 C640 1.511 . S
C643 H657 0.961 . S
C643 H658 0.961 . S
C643 H659 0.961 . S
C644 C645 1.370 . S
C644 C646 1.363 . S
C644 H660 0.931 . S
C645 C644 1.370 . S
C645 C649 1.408 1_655 S
C646 C644 1.363 . S
C646 C647 1.370 1_655 S
C646 C650 1.524 . S
C647 C639 1.503 . S
C647 C646 1.370 1_455 S
C647 C648 1.403 . S
C648 C647 1.403 . S
C648 C649 1.404 . S
C648 C651 1.539 . S
C649 C645 1.408 1_455 S
C649 C648 1.404 . S
C649 H661 0.930 . S
C650 C646 1.524 . S
C650 H662 0.956 . S
C650 H663 0.961 . S
C650 H664 0.961 . S
C651 C648 1.539 . S
C651 H665 0.958 . S
C651 H666 0.961 . S
C651 H667 0.960 . S
H652 C636 0.931 . S
H653 C641 0.929 . S
H654 C642 0.960 . S
H655 C642 0.962 . S
H656 C642 0.960 . S
H657 C643 0.961 . S
H658 C643 0.961 . S
H659 C643 0.961 . S
H660 C644 0.931 . S
H661 C649 0.930 . S
H662 C650 0.956 . S
H663 C650 0.961 . S
H664 C650 0.961 . S
H665 C651 0.958 . S
H666 C651 0.961 . S
H667 C651 0.960 . S
C668 C669 1.391 1_545 S
C668 C670 1.394 . S
C668 H684 0.931 . S
C669 C668 1.391 1_565 S
C669 C673 1.376 . S
C670 C668 1.394 . S
C670 C671 1.369 . S
C670 C674 1.531 . S
C671 C670 1.369 . S
C671 C672 1.410 1_545 S
C671 C679 1.503 . S
C672 C671 1.410 1_565 S
C672 C673 1.392 . S
C672 C675 1.511 . S
C673 C669 1.376 . S
C673 C672 1.392 . S
C673 H685 0.929 . S
C674 C670 1.531 . S
C674 H686 0.960 . S
C674 H687 0.962 . S
C674 H688 0.960 . S
C675 C672 1.511 . S
C675 H689 0.961 . S
C675 H690 0.961 . S
C675 H691 0.961 . S
C676 C677 1.370 1_565 S
C676 C678 1.363 . S
C676 H692 0.931 . S
C677 C676 1.370 1_545 S
C677 C681 1.408 . S
C678 C676 1.363 . S
C678 C679 1.370 1_565 S
C678 C682 1.524 . S
C679 C671 1.503 . S
C679 C678 1.370 1_545 S
C679 C680 1.403 . S
C680 C679 1.403 . S
C680 C681 1.404 . S
C680 C683 1.539 . S
C681 C677 1.408 . S
C681 C680 1.404 . S
C681 H693 0.930 . S
C682 C678 1.524 . S
C682 H694 0.956 . S
C682 H695 0.961 . S
C682 H696 0.961 . S
C683 C680 1.539 . S
C683 H697 0.958 . S
C683 H698 0.961 . S
C683 H699 0.960 . S
H684 C668 0.931 . S
H685 C673 0.929 . S
H686 C674 0.960 . S
H687 C674 0.962 . S
H688 C674 0.960 . S
H689 C675 0.961 . S
H690 C675 0.961 . S
H691 C675 0.961 . S
H692 C676 0.931 . S
H693 C681 0.930 . S
H694 C682 0.956 . S
H695 C682 0.961 . S
H696 C682 0.961 . S
H697 C683 0.958 . S
H698 C683 0.961 . S
H699 C683 0.960 . S
C700 C701 1.391 . S
C700 C702 1.394 . S
C700 H716 0.931 . S
C701 C700 1.391 . S
C701 C705 1.376 . S
C702 C700 1.394 . S
C702 C703 1.369 . S
C702 C706 1.531 . S
C703 C702 1.369 . S
C703 C704 1.410 . S
C703 C711 1.503 . S
C704 C703 1.410 . S
C704 C705 1.392 . S
C704 C707 1.511 . S
C705 C701 1.376 . S
C705 C704 1.392 . S
C705 H717 0.929 . S
C706 C702 1.531 . S
C706 H718 0.960 . S
C706 H719 0.962 . S
C706 H720 0.960 . S
C707 C704 1.511 . S
C707 H721 0.961 . S
C707 H722 0.961 . S
C707 H723 0.961 . S
C708 C709 1.370 . S
C708 C710 1.363 . S
C708 H724 0.931 . S
C709 C708 1.370 . S
C709 C713 1.408 . S
C710 C708 1.363 . S
C710 C711 1.370 . S
C710 C714 1.524 . S
C711 C703 1.503 . S
C711 C710 1.370 . S
C711 C712 1.403 . S
C712 C711 1.403 . S
C712 C713 1.404 . S
C712 C715 1.539 . S
C713 C709 1.408 . S
C713 C712 1.404 . S
C713 H725 0.930 . S
C714 C710 1.524 . S
C714 H726 0.956 . S
C714 H727 0.961 . S
C714 H728 0.961 . S
C715 C712 1.539 . S
C715 H729 0.958 . S
C715 H730 0.961 . S
C715 H731 0.960 . S
H716 C700 0.931 . S
H717 C705 0.929 . S
H718 C706 0.960 . S
H719 C706 0.962 . S
H720 C706 0.960 . S
H721 C707 0.961 . S
H722 C707 0.961 . S
H723 C707 0.961 . S
H724 C708 0.931 . S
H725 C713 0.930 . S
H726 C714 0.956 . S
H727 C714 0.961 . S
H728 C714 0.961 . S
H729 C715 0.958 . S
H730 C715 0.961 . S
H731 C715 0.960 . S
C732 C733 1.391 . S
C732 C734 1.394 . S
C732 H748 0.931 . S
C733 C732 1.391 . S
C733 C737 1.376 1_455 S
C734 C732 1.394 . S
C734 C735 1.369 . S
C734 C738 1.531 . S
C735 C734 1.369 . S
C735 C736 1.410 1_455 S
C735 C743 1.504 . S
C736 C735 1.410 1_655 S
C736 C737 1.392 . S
C736 C739 1.511 . S
C737 C733 1.376 1_655 S
C737 C736 1.392 . S
C737 H749 0.929 . S
C738 C734 1.531 . S
C738 H750 0.960 . S
C738 H751 0.962 . S
C738 H752 0.960 . S
C739 C736 1.511 . S
C739 H753 0.961 . S
C739 H754 0.961 . S
C739 H755 0.961 . S
C740 C741 1.370 . S
C740 C742 1.363 . S
C740 H756 0.931 . S
C741 C740 1.370 . S
C741 C745 1.408 1_655 S
C742 C740 1.363 . S
C742 C743 1.371 1_655 S
C742 C746 1.524 . S
C743 C735 1.504 . S
C743 C742 1.371 1_455 S
C743 C744 1.401 . S
C744 C743 1.401 . S
C744 C745 1.404 . S
C744 C747 1.539 . S
C745 C741 1.408 1_455 S
C745 C744 1.404 . S
C745 H757 0.930 . S
C746 C742 1.524 . S
C746 H758 0.956 1_655 S
C746 H759 0.961 . S
C746 H760 0.961 . S
C747 C744 1.539 . S
C747 H761 0.958 . S
C747 H762 0.961 . S
C747 H763 0.960 . S
H748 C732 0.931 . S
H749 C737 0.929 . S
H750 C738 0.960 . S
H751 C738 0.962 . S
H752 C738 0.960 . S
H753 C739 0.961 . S
H754 C739 0.961 . S
H755 C739 0.961 . S
H756 C740 0.931 . S
H757 C745 0.930 . S
H758 C746 0.956 1_455 S
H759 C746 0.961 . S
H760 C746 0.961 . S
H761 C747 0.958 . S
H762 C747 0.961 . S
H763 C747 0.960 . S
C764 C765 1.391 1_545 S
C764 C766 1.394 . S
C764 H780 0.931 . S
C765 C764 1.391 1_565 S
C765 C769 1.376 . S
C766 C764 1.394 . S
C766 C767 1.369 . S
C766 C770 1.531 . S
C767 C766 1.369 . S
C767 C768 1.410 1_545 S
C767 C775 1.503 . S
C768 C767 1.410 1_565 S
C768 C769 1.392 . S
C768 C771 1.511 . S
C769 C765 1.376 . S
C769 C768 1.392 . S
C769 H781 0.929 . S
C770 C766 1.531 . S
C770 H782 0.960 . S
C770 H783 0.962 . S
C770 H784 0.960 . S
C771 C768 1.511 . S
C771 H785 0.961 . S
C771 H786 0.961 . S
C771 H787 0.961 . S
C772 C773 1.370 1_565 S
C772 C774 1.363 . S
C772 H788 0.931 . S
C773 C772 1.370 1_545 S
C773 C777 1.408 . S
C774 C772 1.363 . S
C774 C775 1.370 1_565 S
C774 C778 1.524 . S
C775 C767 1.503 . S
C775 C774 1.370 1_545 S
C775 C776 1.403 . S
C776 C775 1.403 . S
C776 C777 1.404 . S
C776 C779 1.539 . S
C777 C773 1.408 . S
C777 C776 1.404 . S
C777 H789 0.930 . S
C778 C774 1.524 . S
C778 H790 0.956 . S
C778 H791 0.961 . S
C778 H792 0.961 . S
C779 C776 1.539 . S
C779 H793 0.958 . S
C779 H794 0.961 . S
C779 H795 0.960 . S
H780 C764 0.931 . S
H781 C769 0.929 . S
H782 C770 0.960 . S
H783 C770 0.962 . S
H784 C770 0.960 . S
H785 C771 0.961 . S
H786 C771 0.961 . S
H787 C771 0.961 . S
H788 C772 0.931 . S
H789 C777 0.930 . S
H790 C778 0.956 . S
H791 C778 0.961 . S
H792 C778 0.961 . S
H793 C779 0.958 . S
H794 C779 0.961 . S
H795 C779 0.960 . S
C796 C797 1.391 . S
C796 C798 1.394 . S
C796 H812 0.931 . S
C797 C796 1.391 . S
C797 C801 1.376 . S
C798 C796 1.394 . S
C798 C799 1.369 . S
C798 C802 1.531 . S
C799 C798 1.369 . S
C799 C800 1.410 . S
C799 C807 1.503 . S
C800 C799 1.410 . S
C800 C801 1.392 . S
C800 C803 1.511 . S
C801 C797 1.376 . S
C801 C800 1.392 . S
C801 H813 0.929 . S
C802 C798 1.531 . S
C802 H814 0.960 . S
C802 H815 0.962 . S
C802 H816 0.960 . S
C803 C800 1.511 . S
C803 H817 0.961 . S
C803 H818 0.961 . S
C803 H819 0.961 . S
C804 C805 1.370 . S
C804 C806 1.363 . S
C804 H820 0.931 . S
C805 C804 1.370 . S
C805 C809 1.408 . S
C806 C804 1.363 . S
C806 C807 1.370 . S
C806 C810 1.524 . S
C807 C799 1.503 . S
C807 C806 1.370 . S
C807 C808 1.403 . S
C808 C807 1.403 . S
C808 C809 1.404 . S
C808 C811 1.539 . S
C809 C805 1.408 . S
C809 C808 1.404 . S
C809 H821 0.930 . S
C810 C806 1.524 . S
C810 H822 0.956 . S
C810 H823 0.961 . S
C810 H824 0.961 . S
C811 C808 1.539 . S
C811 H825 0.958 . S
C811 H826 0.961 . S
C811 H827 0.960 . S
H812 C796 0.931 . S
H813 C801 0.929 . S
H814 C802 0.960 . S
H815 C802 0.962 . S
H816 C802 0.960 . S
H817 C803 0.961 . S
H818 C803 0.961 . S
H819 C803 0.961 . S
H820 C804 0.931 . S
H821 C809 0.930 . S
H822 C810 0.956 . S
H823 C810 0.961 . S
H824 C810 0.961 . S
H825 C811 0.958 . S
H826 C811 0.961 . S
H827 C811 0.960 . S
C828 C829 1.391 . S
C828 C830 1.394 . S
C828 H844 0.931 . S
C829 C828 1.391 . S
C829 C833 1.376 . S
C830 C828 1.394 . S
C830 C831 1.369 . S
C830 C834 1.531 1_554 S
C831 C830 1.369 . S
C831 C832 1.410 . S
C831 C839 1.503 1_554 S
C832 C831 1.410 . S
C832 C833 1.392 . S
C832 C835 1.511 . S
C833 C829 1.376 . S
C833 C832 1.392 . S
C833 H845 0.929 . S
C834 C830 1.531 1_556 S
C834 H846 0.960 . S
C834 H847 0.962 . S
C834 H848 0.960 . S
C835 C832 1.511 . S
C835 H849 0.961 . S
C835 H850 0.961 . S
C835 H851 0.961 . S
C836 C837 1.370 . S
C836 C838 1.363 . S
C836 H852 0.931 . S
C837 C836 1.370 . S
C837 C841 1.408 . S
C838 C836 1.363 . S
C838 C839 1.370 . S
C838 C842 1.524 . S
C839 C831 1.503 1_556 S
C839 C838 1.370 . S
C839 C840 1.403 . S
C840 C839 1.403 . S
C840 C841 1.404 . S
C840 C843 1.539 1_556 S
C841 C837 1.408 . S
C841 C840 1.404 . S
C841 H853 0.930 . S
C842 C838 1.524 . S
C842 H854 0.956 . S
C842 H855 0.961 . S
C842 H856 0.961 . S
C843 C840 1.539 1_554 S
C843 H857 0.958 . S
C843 H858 0.961 . S
C843 H859 0.960 . S
H844 C828 0.931 . S
H845 C833 0.929 . S
H846 C834 0.960 . S
H847 C834 0.962 . S
H848 C834 0.960 . S
H849 C835 0.961 . S
H850 C835 0.961 . S
H851 C835 0.961 . S
H852 C836 0.931 . S
H853 C841 0.930 . S
H854 C842 0.956 . S
H855 C842 0.961 . S
H856 C842 0.961 . S
H857 C843 0.958 . S
H858 C843 0.961 . S
H859 C843 0.960 . S
C860 C861 1.391 . S
C860 C862 1.394 . S
C860 H876 0.931 . S
C861 C860 1.391 . S
C861 C865 1.376 . S
C862 C860 1.394 . S
C862 C863 1.369 . S
C862 C866 1.531 . S
C863 C862 1.369 . S
C863 C864 1.410 . S
C863 C871 1.503 . S
C864 C863 1.410 . S
C864 C865 1.392 . S
C864 C867 1.511 . S
C865 C861 1.376 . S
C865 C864 1.392 . S
C865 H877 0.929 . S
C866 C862 1.531 . S
C866 H878 0.960 . S
C866 H879 0.962 . S
C866 H880 0.960 . S
C867 C864 1.511 . S
C867 H881 0.961 . S
C867 H882 0.961 . S
C867 H883 0.961 . S
C868 C869 1.370 . S
C868 C870 1.363 . S
C868 H884 0.931 . S
C869 C868 1.370 . S
C869 C873 1.408 . S
C870 C868 1.363 . S
C870 C871 1.370 . S
C870 C874 1.524 . S
C871 C863 1.503 . S
C871 C870 1.370 . S
C871 C872 1.403 . S
C872 C871 1.403 . S
C872 C873 1.404 . S
C872 C875 1.539 . S
C873 C869 1.408 . S
C873 C872 1.404 . S
C873 H885 0.930 . S
C874 C870 1.524 . S
C874 H886 0.956 . S
C874 H887 0.961 . S
C874 H888 0.961 . S
C875 C872 1.539 . S
C875 H889 0.958 . S
C875 H890 0.961 . S
C875 H891 0.960 . S
H876 C860 0.931 . S
H877 C865 0.929 . S
H878 C866 0.960 . S
H879 C866 0.962 . S
H880 C866 0.960 . S
H881 C867 0.961 . S
H882 C867 0.961 . S
H883 C867 0.961 . S
H884 C868 0.931 . S
H885 C873 0.930 . S
H886 C874 0.956 . S
H887 C874 0.961 . S
H888 C874 0.961 . S
H889 C875 0.958 . S
H890 C875 0.961 . S
H891 C875 0.960 . S
C892 C893 1.391 . S
C892 C894 1.394 . S
C892 H908 0.931 . S
C893 C892 1.391 . S
C893 C897 1.376 . S
C894 C892 1.394 . S
C894 C895 1.369 . S
C894 C898 1.531 . S
C895 C894 1.369 . S
C895 C896 1.410 . S
C895 C903 1.503 . S
C896 C895 1.410 . S
C896 C897 1.392 . S
C896 C899 1.511 . S
C897 C893 1.376 . S
C897 C896 1.392 . S
C897 H909 0.929 . S
C898 C894 1.531 . S
C898 H910 0.960 . S
C898 H911 0.962 . S
C898 H912 0.960 . S
C899 C896 1.511 . S
C899 H913 0.961 . S
C899 H914 0.961 . S
C899 H915 0.961 . S
C900 C901 1.370 . S
C900 C902 1.363 . S
C900 H916 0.931 . S
C901 C900 1.370 . S
C901 C905 1.408 . S
C902 C900 1.363 . S
C902 C903 1.370 . S
C902 C906 1.524 . S
C903 C895 1.503 . S
C903 C902 1.370 . S
C903 C904 1.403 . S
C904 C903 1.403 . S
C904 C905 1.404 . S
C904 C907 1.539 . S
C905 C901 1.408 . S
C905 C904 1.404 . S
C905 H917 0.930 . S
C906 C902 1.524 . S
C906 H918 0.956 . S
C906 H919 0.961 . S
C906 H920 0.961 . S
C907 C904 1.539 . S
C907 H921 0.958 . S
C907 H922 0.961 . S
C907 H923 0.960 . S
H908 C892 0.931 . S
H909 C897 0.929 . S
H910 C898 0.960 . S
H911 C898 0.962 . S
H912 C898 0.960 . S
H913 C899 0.961 . S
H914 C899 0.961 . S
H915 C899 0.961 . S
H916 C900 0.931 . S
H917 C905 0.930 . S
H918 C906 0.956 . S
H919 C906 0.961 . S
H920 C906 0.961 . S
H921 C907 0.958 . S
H922 C907 0.961 . S
H923 C907 0.960 . S
C924 C925 1.391 . S
C924 C926 1.394 . S
C924 H940 0.931 . S
C925 C924 1.391 . S
C925 C929 1.376 . S
C926 C924 1.394 . S
C926 C927 1.369 . S
C926 C930 1.531 . S
C927 C926 1.369 . S
C927 C928 1.410 . S
C927 C935 1.503 1_554 S
C928 C927 1.410 . S
C928 C929 1.392 . S
C928 C931 1.511 1_554 S
C929 C925 1.376 . S
C929 C928 1.392 . S
C929 H941 0.929 . S
C930 C926 1.531 . S
C930 H942 0.960 . S
C930 H943 0.962 . S
C930 H944 0.960 . S
C931 C928 1.511 1_556 S
C931 H945 0.961 . S
C931 H946 0.961 . S
C931 H947 0.961 . S
C932 C933 1.370 . S
C932 C934 1.363 . S
C932 H948 0.931 . S
C933 C932 1.370 . S
C933 C937 1.408 . S
C934 C932 1.363 . S
C934 C935 1.370 . S
C934 C938 1.524 . S
C935 C927 1.503 1_556 S
C935 C934 1.370 . S
C935 C936 1.403 . S
C936 C935 1.403 . S
C936 C937 1.404 . S
C936 C939 1.539 1_556 S
C937 C933 1.408 . S
C937 C936 1.404 . S
C937 H949 0.930 . S
C938 C934 1.524 . S
C938 H950 0.956 . S
C938 H951 0.961 . S
C938 H952 0.961 . S
C939 C936 1.539 1_554 S
C939 H953 0.958 . S
C939 H954 0.961 . S
C939 H955 0.960 . S
H940 C924 0.931 . S
H941 C929 0.929 . S
H942 C930 0.960 . S
H943 C930 0.962 . S
H944 C930 0.960 . S
H945 C931 0.961 . S
H946 C931 0.961 . S
H947 C931 0.961 . S
H948 C932 0.931 . S
H949 C937 0.930 . S
H950 C938 0.956 . S
H951 C938 0.961 . S
H952 C938 0.961 . S
H953 C939 0.958 . S
H954 C939 0.961 . S
H955 C939 0.960 . S
C956 C957 1.391 . S
C956 C958 1.394 . S
C956 H972 0.931 . S
C957 C956 1.391 . S
C957 C961 1.376 . S
C958 C956 1.394 . S
C958 C959 1.369 . S
C958 C962 1.531 . S
C959 C958 1.369 . S
C959 C960 1.410 . S
C959 C967 1.503 . S
C960 C959 1.410 . S
C960 C961 1.392 . S
C960 C963 1.511 . S
C961 C957 1.376 . S
C961 C960 1.392 . S
C961 H973 0.929 . S
C962 C958 1.531 . S
C962 H974 0.960 . S
C962 H975 0.962 . S
C962 H976 0.960 . S
C963 C960 1.511 . S
C963 H977 0.961 . S
C963 H978 0.961 . S
C963 H979 0.961 . S
C964 C965 1.370 . S
C964 C966 1.363 . S
C964 H980 0.931 . S
C965 C964 1.370 . S
C965 C969 1.408 . S
C966 C964 1.363 . S
C966 C967 1.370 . S
C966 C970 1.524 . S
C967 C959 1.503 . S
C967 C966 1.370 . S
C967 C968 1.403 . S
C968 C967 1.403 . S
C968 C969 1.404 . S
C968 C971 1.539 . S
C969 C965 1.408 . S
C969 C968 1.404 . S
C969 H981 0.930 . S
C970 C966 1.524 . S
C970 H982 0.956 . S
C970 H983 0.961 . S
C970 H984 0.961 . S
C971 C968 1.539 . S
C971 H985 0.958 . S
C971 H986 0.961 . S
C971 H987 0.960 . S
H972 C956 0.931 . S
H973 C961 0.929 . S
H974 C962 0.960 . S
H975 C962 0.962 . S
H976 C962 0.960 . S
H977 C963 0.961 . S
H978 C963 0.961 . S
H979 C963 0.961 . S
H980 C964 0.931 . S
H981 C969 0.930 . S
H982 C970 0.956 . S
H983 C970 0.961 . S
H984 C970 0.961 . S
H985 C971 0.958 . S
H986 C971 0.961 . S
H987 C971 0.960 . S
C988 C989 1.391 . S
C988 C990 1.394 . S
C988 H1004 0.931 . S
C989 C988 1.391 . S
C989 C993 1.376 . S
C990 C988 1.394 . S
C990 C991 1.369 . S
C990 C994 1.531 . S
C991 C990 1.369 . S
C991 C992 1.410 . S
C991 C999 1.503 . S
C992 C991 1.410 . S
C992 C993 1.392 . S
C992 C995 1.511 . S
C993 C989 1.376 . S
C993 C992 1.392 . S
C993 H1005 0.929 . S
C994 C990 1.531 . S
C994 H1006 0.960 . S
C994 H1007 0.962 . S
C994 H1008 0.960 . S
C995 C992 1.511 . S
C995 H1009 0.961 . S
C995 H1010 0.961 . S
C995 H1011 0.961 . S
C996 C997 1.370 . S
C996 C998 1.363 . S
C996 H1012 0.931 . S
C997 C996 1.370 . S
C997 C1001 1.408 . S
C998 C996 1.363 . S
C998 C999 1.370 . S
C998 C1002 1.524 . S
C999 C991 1.503 . S
C999 C998 1.370 . S
C999 C1000 1.403 . S
C1000 C999 1.403 . S
C1000 C1001 1.404 . S
C1000 C1003 1.539 . S
C1001 C997 1.408 . S
C1001 C1000 1.404 . S
C1001 H1013 0.930 . S
C1002 C998 1.524 . S
C1002 H1014 0.956 . S
C1002 H1015 0.961 . S
C1002 H1016 0.961 . S
C1003 C1000 1.539 . S
C1003 H1017 0.958 . S
C1003 H1018 0.961 . S
C1003 H1019 0.960 . S
H1004 C988 0.931 . S
H1005 C993 0.929 . S
H1006 C994 0.960 . S
H1007 C994 0.962 . S
H1008 C994 0.960 . S
H1009 C995 0.961 . S
H1010 C995 0.961 . S
H1011 C995 0.961 . S
H1012 C996 0.931 . S
H1013 C1001 0.930 . S
H1014 C1002 0.956 . S
H1015 C1002 0.961 . S
H1016 C1002 0.961 . S
H1017 C1003 0.958 . S
H1018 C1003 0.961 . S
H1019 C1003 0.960 . S
C1020 C1021 1.391 1_455 S
C1020 C1022 1.394 . S
C1020 H1036 0.931 . S
C1021 C1020 1.391 1_655 S
C1021 C1025 1.376 . S
C1022 C1020 1.394 . S
C1022 C1023 1.376 . S
C1022 C1026 1.531 . S
C1023 C1022 1.376 . S
C1023 C1024 1.389 1_455 S
C1023 C1031 1.516 . S
C1024 C1023 1.389 1_655 S
C1024 C1025 1.392 . S
C1024 C1027 1.511 . S
C1025 C1021 1.376 . S
C1025 C1024 1.392 . S
C1025 H1037 0.929 . S
C1026 C1022 1.531 . S
C1026 H1038 0.960 . S
C1026 H1039 0.962 . S
C1026 H1040 0.960 . S
C1027 C1024 1.511 . S
C1027 H1041 0.961 . S
C1027 H1042 0.961 . S
C1027 H1043 0.961 . S
C1028 C1029 1.370 . S
C1028 C1030 1.363 1_455 S
C1028 H1044 0.931 1_455 S
C1029 C1028 1.370 . S
C1029 C1033 1.408 . S
C1030 C1028 1.363 1_655 S
C1030 C1031 1.370 1_655 S
C1030 C1034 1.524 . S
C1031 C1023 1.516 . S
C1031 C1030 1.370 1_455 S
C1031 C1032 1.403 . S
C1032 C1031 1.403 . S
C1032 C1033 1.404 . S
C1032 C1035 1.539 . S
C1033 C1029 1.408 . S
C1033 C1032 1.404 . S
C1033 H1045 0.930 . S
C1034 C1030 1.524 . S
C1034 H1046 0.956 1_655 S
C1034 H1047 0.961 . S
C1034 H1048 0.961 . S
C1035 C1032 1.539 . S
C1035 H1049 0.958 . S
C1035 H1050 0.961 . S
C1035 H1051 0.960 . S
H1036 C1020 0.931 . S
H1037 C1025 0.929 . S
H1038 C1026 0.960 . S
H1039 C1026 0.962 . S
H1040 C1026 0.960 . S
H1041 C1027 0.961 . S
H1042 C1027 0.961 . S
H1043 C1027 0.961 . S
H1044 C1028 0.931 1_655 S
H1045 C1033 0.930 . S
H1046 C1034 0.956 1_455 S
H1047 C1034 0.961 . S
H1048 C1034 0.961 . S
H1049 C1035 0.958 . S
H1050 C1035 0.961 . S
H1051 C1035 0.960 . S
C1052 C1053 1.391 . S
C1052 C1054 1.394 . S
C1052 H1068 0.931 . S
C1053 C1052 1.391 . S
C1053 C1057 1.376 1_545 S
C1054 C1052 1.394 . S
C1054 C1055 1.369 1_545 S
C1054 C1058 1.531 . S
C1055 C1054 1.369 1_565 S
C1055 C1056 1.410 . S
C1055 C1063 1.503 . S
C1056 C1055 1.410 . S
C1056 C1057 1.392 . S
C1056 C1059 1.511 . S
C1057 C1053 1.376 1_565 S
C1057 C1056 1.392 . S
C1057 H1069 0.929 . S
C1058 C1054 1.531 . S
C1058 H1070 0.960 1_545 S
C1058 H1071 0.962 . S
C1058 H1072 0.960 . S
C1059 C1056 1.511 . S
C1059 H1073 0.961 . S
C1059 H1074 0.961 . S
C1059 H1075 0.961 . S
C1060 C1061 1.370 1_545 S
C1060 C1062 1.363 . S
C1060 H1076 0.931 . S
C1061 C1060 1.370 1_565 S
C1061 C1065 1.408 . S
C1062 C1060 1.363 . S
C1062 C1063 1.370 1_545 S
C1062 C1066 1.524 . S
C1063 C1055 1.503 . S
C1063 C1062 1.370 1_565 S
C1063 C1064 1.403 . S
C1064 C1063 1.403 . S
C1064 C1065 1.404 . S
C1064 C1067 1.539 . S
C1065 C1061 1.408 . S
C1065 C1064 1.404 . S
C1065 H1077 0.930 . S
C1066 C1062 1.524 . S
C1066 H1078 0.956 . S
C1066 H1079 0.961 . S
C1066 H1080 0.961 . S
C1067 C1064 1.539 . S
C1067 H1081 0.958 . S
C1067 H1082 0.961 . S
C1067 H1083 0.960 . S
H1068 C1052 0.931 . S
H1069 C1057 0.929 . S
H1070 C1058 0.960 1_565 S
H1071 C1058 0.962 . S
H1072 C1058 0.960 . S
H1073 C1059 0.961 . S
H1074 C1059 0.961 . S
H1075 C1059 0.961 . S
H1076 C1060 0.931 . S
H1077 C1065 0.930 . S
H1078 C1066 0.956 . S
H1079 C1066 0.961 . S
H1080 C1066 0.961 . S
H1081 C1067 0.958 . S
H1082 C1067 0.961 . S
H1083 C1067 0.960 . S
C1084 C1085 1.391 . S
C1084 C1086 1.394 . S
C1084 H1100 0.931 . S
C1085 C1084 1.391 . S
C1085 C1089 1.376 . S
C1086 C1084 1.394 . S
C1086 C1087 1.369 . S
C1086 C1090 1.531 . S
C1087 C1086 1.369 . S
C1087 C1088 1.410 . S
C1087 C1095 1.503 . S
C1088 C1087 1.410 . S
C1088 C1089 1.392 . S
C1088 C1091 1.511 . S
C1089 C1085 1.376 . S
C1089 C1088 1.392 . S
C1089 H1101 0.929 . S
C1090 C1086 1.531 . S
C1090 H1102 0.960 . S
C1090 H1103 0.962 . S
C1090 H1104 0.960 . S
C1091 C1088 1.511 . S
C1091 H1105 0.961 . S
C1091 H1106 0.961 . S
C1091 H1107 0.961 . S
C1092 C1093 1.370 . S
C1092 C1094 1.363 . S
C1092 H1108 0.931 . S
C1093 C1092 1.370 . S
C1093 C1097 1.408 . S
C1094 C1092 1.363 . S
C1094 C1095 1.370 . S
C1094 C1098 1.524 . S
C1095 C1087 1.503 . S
C1095 C1094 1.370 . S
C1095 C1096 1.403 . S
C1096 C1095 1.403 . S
C1096 C1097 1.404 . S
C1096 C1099 1.539 . S
C1097 C1093 1.408 . S
C1097 C1096 1.404 . S
C1097 H1109 0.930 . S
C1098 C1094 1.524 . S
C1098 H1110 0.956 . S
C1098 H1111 0.961 . S
C1098 H1112 0.961 . S
C1099 C1096 1.539 . S
C1099 H1113 0.958 . S
C1099 H1114 0.961 . S
C1099 H1115 0.960 . S
H1100 C1084 0.931 . S
H1101 C1089 0.929 . S
H1102 C1090 0.960 . S
H1103 C1090 0.962 . S
H1104 C1090 0.960 . S
H1105 C1091 0.961 . S
H1106 C1091 0.961 . S
H1107 C1091 0.961 . S
H1108 C1092 0.931 . S
H1109 C1097 0.930 . S
H1110 C1098 0.956 . S
H1111 C1098 0.961 . S
H1112 C1098 0.961 . S
H1113 C1099 0.958 . S
H1114 C1099 0.961 . S
H1115 C1099 0.960 . S
C1116 C1117 1.391 1_565 S
C1116 C1118 1.394 . S
C1116 H1132 0.931 . S
C1117 C1116 1.391 1_545 S
C1117 C1121 1.376 . S
C1118 C1116 1.394 . S
C1118 C1119 1.369 . S
C1118 C1122 1.531 . S
C1119 C1118 1.369 . S
C1119 C1120 1.410 1_565 S
C1119 C1127 1.503 . S
C1120 C1119 1.410 1_545 S
C1120 C1121 1.392 . S
C1120 C1123 1.511 . S
C1121 C1117 1.376 . S
C1121 C1120 1.392 . S
C1121 H1133 0.929 . S
C1122 C1118 1.531 . S
C1122 H1134 0.960 . S
C1122 H1135 0.962 . S
C1122 H1136 0.960 . S
C1123 C1120 1.511 . S
C1123 H1137 0.961 . S
C1123 H1138 0.961 . S
C1123 H1139 0.961 . S
C1124 C1125 1.370 1_545 S
C1124 C1126 1.363 . S
C1124 H1140 0.931 . S
C1125 C1124 1.370 1_565 S
C1125 C1129 1.408 . S
C1126 C1124 1.363 . S
C1126 C1127 1.370 1_545 S
C1126 C1130 1.524 . S
C1127 C1119 1.503 . S
C1127 C1126 1.370 1_565 S
C1127 C1128 1.403 . S
C1128 C1127 1.403 . S
C1128 C1129 1.404 . S
C1128 C1131 1.539 . S
C1129 C1125 1.408 . S
C1129 C1128 1.404 . S
C1129 H1141 0.930 . S
C1130 C1126 1.524 . S
C1130 H1142 0.956 . S
C1130 H1143 0.961 . S
C1130 H1144 0.961 . S
C1131 C1128 1.539 . S
C1131 H1145 0.958 . S
C1131 H1146 0.961 . S
C1131 H1147 0.960 . S
H1132 C1116 0.931 . S
H1133 C1121 0.929 . S
H1134 C1122 0.960 . S
H1135 C1122 0.962 . S
H1136 C1122 0.960 . S
H1137 C1123 0.961 . S
H1138 C1123 0.961 . S
H1139 C1123 0.961 . S
H1140 C1124 0.931 . S
H1141 C1129 0.930 . S
H1142 C1130 0.956 . S
H1143 C1130 0.961 . S
H1144 C1130 0.961 . S
H1145 C1131 0.958 . S
H1146 C1131 0.961 . S
H1147 C1131 0.960 . S
C1148 C1149 1.391 . S
C1148 C1150 1.394 . S
C1148 H1164 0.931 . S
C1149 C1148 1.391 . S
C1149 C1153 1.376 . S
C1150 C1148 1.394 . S
C1150 C1151 1.369 . S
C1150 C1154 1.531 . S
C1151 C1150 1.369 . S
C1151 C1152 1.410 . S
C1151 C1159 1.503 . S
C1152 C1151 1.410 . S
C1152 C1153 1.392 . S
C1152 C1155 1.511 . S
C1153 C1149 1.376 . S
C1153 C1152 1.392 . S
C1153 H1165 0.929 . S
C1154 C1150 1.531 . S
C1154 H1166 0.960 . S
C1154 H1167 0.962 . S
C1154 H1168 0.960 . S
C1155 C1152 1.511 . S
C1155 H1169 0.961 . S
C1155 H1170 0.961 . S
C1155 H1171 0.961 . S
C1156 C1157 1.370 . S
C1156 C1158 1.363 . S
C1156 H1172 0.931 . S
C1157 C1156 1.370 . S
C1157 C1161 1.408 . S
C1158 C1156 1.363 . S
C1158 C1159 1.370 . S
C1158 C1162 1.524 . S
C1159 C1151 1.503 . S
C1159 C1158 1.370 . S
C1159 C1160 1.403 . S
C1160 C1159 1.403 . S
C1160 C1161 1.404 . S
C1160 C1163 1.539 . S
C1161 C1157 1.408 . S
C1161 C1160 1.404 . S
C1161 H1173 0.930 . S
C1162 C1158 1.524 . S
C1162 H1174 0.956 . S
C1162 H1175 0.961 . S
C1162 H1176 0.961 . S
C1163 C1160 1.539 . S
C1163 H1177 0.958 . S
C1163 H1178 0.961 . S
C1163 H1179 0.960 . S
H1164 C1148 0.931 . S
H1165 C1153 0.929 . S
H1166 C1154 0.960 . S
H1167 C1154 0.962 . S
H1168 C1154 0.960 . S
H1169 C1155 0.961 . S
H1170 C1155 0.961 . S
H1171 C1155 0.961 . S
H1172 C1156 0.931 . S
H1173 C1161 0.930 . S
H1174 C1162 0.956 . S
H1175 C1162 0.961 . S
H1176 C1162 0.961 . S
H1177 C1163 0.958 . S
H1178 C1163 0.961 . S
H1179 C1163 0.960 . S
C1180 C1181 1.391 1_655 S
C1180 C1182 1.394 . S
C1180 H1196 0.931 . S
C1181 C1180 1.391 1_455 S
C1181 C1185 1.376 . S
C1182 C1180 1.394 . S
C1182 C1183 1.369 1_655 S
C1182 C1186 1.531 . S
C1183 C1182 1.369 1_455 S
C1183 C1184 1.410 . S
C1183 C1191 1.503 1_455 S
C1184 C1183 1.410 . S
C1184 C1185 1.392 . S
C1184 C1187 1.511 . S
C1185 C1181 1.376 . S
C1185 C1184 1.392 . S
C1185 H1197 0.929 . S
C1186 C1182 1.531 . S
C1186 H1198 0.960 . S
C1186 H1199 0.962 . S
C1186 H1200 0.960 . S
C1187 C1184 1.511 . S
C1187 H1201 0.961 . S
C1187 H1202 0.961 . S
C1187 H1203 0.961 . S
C1188 C1189 1.370 . S
C1188 C1190 1.363 . S
C1188 H1204 0.931 . S
C1189 C1188 1.370 . S
C1189 C1193 1.408 . S
C1190 C1188 1.363 . S
C1190 C1191 1.370 . S
C1190 C1194 1.524 . S
C1191 C1183 1.503 1_655 S
C1191 C1190 1.370 . S
C1191 C1192 1.403 . S
C1192 C1191 1.403 . S
C1192 C1193 1.404 . S
C1192 C1195 1.539 1_655 S
C1193 C1189 1.408 . S
C1193 C1192 1.404 . S
C1193 H1205 0.930 . S
C1194 C1190 1.524 . S
C1194 H1206 0.956 . S
C1194 H1207 0.961 1_655 S
C1194 H1208 0.961 . S
C1195 C1192 1.539 1_455 S
C1195 H1209 0.958 1_455 S
C1195 H1210 0.961 . S
C1195 H1211 0.960 . S
H1196 C1180 0.931 . S
H1197 C1185 0.929 . S
H1198 C1186 0.960 . S
H1199 C1186 0.962 . S
H1200 C1186 0.960 . S
H1201 C1187 0.961 . S
H1202 C1187 0.961 . S
H1203 C1187 0.961 . S
H1204 C1188 0.931 . S
H1205 C1193 0.930 . S
H1206 C1194 0.956 . S
H1207 C1194 0.961 1_455 S
H1208 C1194 0.961 . S
H1209 C1195 0.958 1_655 S
H1210 C1195 0.961 . S
H1211 C1195 0.960 . S
C1212 C1213 1.391 1_655 S
C1212 C1214 1.394 . S
C1212 H1228 0.931 . S
C1213 C1212 1.391 1_455 S
C1213 C1217 1.376 . S
C1214 C1212 1.394 . S
C1214 C1215 1.369 1_655 S
C1214 C1218 1.531 . S
C1215 C1214 1.369 1_455 S
C1215 C1216 1.410 . S
C1215 C1223 1.493 1_545 S
C1216 C1215 1.410 . S
C1216 C1217 1.392 . S
C1216 C1219 1.511 . S
C1217 C1213 1.376 . S
C1217 C1216 1.392 . S
C1217 H1229 0.929 . S
C1218 C1214 1.531 . S
C1218 H1230 0.960 1_545 S
C1218 H1231 0.962 1_545 S
C1218 H1232 0.960 . S
C1219 C1216 1.511 . S
C1219 H1233 0.961 . S
C1219 H1234 0.961 . S
C1219 H1235 0.961 . S
C1220 C1221 1.370 . S
C1220 C1222 1.363 . S
C1220 H1236 0.931 . S
C1221 C1220 1.370 . S
C1221 C1225 1.408 1_655 S
C1222 C1220 1.363 . S
C1222 C1223 1.356 1_655 S
C1222 C1226 1.524 . S
C1223 C1215 1.493 1_565 S
C1223 C1222 1.356 1_455 S
C1223 C1224 1.427 . S
C1224 C1223 1.427 . S
C1224 C1225 1.404 . S
C1224 C1227 1.539 . S
C1225 C1221 1.408 1_455 S
C1225 C1224 1.404 . S
C1225 H1237 0.930 . S
C1226 C1222 1.524 . S
C1226 H1238 0.956 . S
C1226 H1239 0.961 . S
C1226 H1240 0.961 . S
C1227 C1224 1.539 . S
C1227 H1241 0.958 . S
C1227 H1242 0.961 . S
C1227 H1243 0.960 1_565 S
H1228 C1212 0.931 . S
H1229 C1217 0.929 . S
H1230 C1218 0.960 1_565 S
H1231 C1218 0.962 1_565 S
H1232 C1218 0.960 . S
H1233 C1219 0.961 . S
H1234 C1219 0.961 . S
H1235 C1219 0.961 . S
H1236 C1220 0.931 . S
H1237 C1225 0.930 . S
H1238 C1226 0.956 . S
H1239 C1226 0.961 . S
H1240 C1226 0.961 . S
H1241 C1227 0.958 . S
H1242 C1227 0.961 . S
H1243 C1227 0.960 1_545 S
C1244 C1245 1.391 . S
C1244 C1246 1.394 . S
C1244 H1260 0.931 . S
C1245 C1244 1.391 . S
C1245 C1249 1.376 1_545 S
C1246 C1244 1.394 . S
C1246 C1247 1.369 . S
C1246 C1250 1.531 1_655 S
C1247 C1246 1.369 . S
C1247 C1248 1.410 1_545 S
C1247 C1255 1.503 1_645 S
C1248 C1247 1.410 1_565 S
C1248 C1249 1.392 . S
C1248 C1251 1.511 . S
C1249 C1245 1.376 1_565 S
C1249 C1248 1.392 . S
C1249 H1261 0.929 . S
C1250 C1246 1.531 1_455 S
C1250 H1262 0.960 . S
C1250 H1263 0.962 . S
C1250 H1264 0.960 . S
C1251 C1248 1.511 . S
C1251 H1265 0.961 . S
C1251 H1266 0.961 . S
C1251 H1267 0.961 . S
C1252 C1253 1.370 . S
C1252 C1254 1.363 . S
C1252 H1268 0.931 . S
C1253 C1252 1.370 . S
C1253 C1257 1.408 . S
C1254 C1252 1.363 . S
C1254 C1255 1.370 . S
C1254 C1258 1.524 . S
C1255 C1247 1.503 1_465 S
C1255 C1254 1.370 . S
C1255 C1256 1.403 1_565 S
C1256 C1255 1.403 1_545 S
C1256 C1257 1.404 1_545 S
C1256 C1259 1.539 . S
C1257 C1253 1.408 . S
C1257 C1256 1.404 1_565 S
C1257 H1269 0.930 . S
C1258 C1254 1.524 . S
C1258 H1270 0.956 1_565 S
C1258 H1271 0.961 1_455 S
C1258 H1272 0.961 . S
C1259 C1256 1.539 . S
C1259 H1273 0.958 . S
C1259 H1274 0.961 . S
C1259 H1275 0.960 . S
H1260 C1244 0.931 . S
H1261 C1249 0.929 . S
H1262 C1250 0.960 . S
H1263 C1250 0.962 . S
H1264 C1250 0.960 . S
H1265 C1251 0.961 . S
H1266 C1251 0.961 . S
H1267 C1251 0.961 . S
H1268 C1252 0.931 . S
H1269 C1257 0.930 . S
H1270 C1258 0.956 1_545 S
H1271 C1258 0.961 1_655 S
H1272 C1258 0.961 . S
H1273 C1259 0.958 . S
H1274 C1259 0.961 . S
H1275 C1259 0.960 . S
C1276 C1277 1.391 . S
C1276 C1278 1.394 . S
C1276 H1292 0.931 . S
C1277 C1276 1.391 . S
C1277 C1281 1.376 . S
C1278 C1276 1.394 . S
C1278 C1279 1.369 . S
C1278 C1282 1.531 1_455 S
C1279 C1278 1.369 . S
C1279 C1280 1.410 . S
C1279 C1287 1.503 1_445 S
C1280 C1279 1.410 . S
C1280 C1281 1.392 . S
C1280 C1283 1.511 1_545 S
C1281 C1277 1.376 . S
C1281 C1280 1.392 . S
C1281 H1293 0.929 . S
C1282 C1278 1.531 1_655 S
C1282 H1294 0.960 . S
C1282 H1295 0.962 . S
C1282 H1296 0.960 1_655 S
C1283 C1280 1.511 1_565 S
C1283 H1297 0.961 . S
C1283 H1298 0.961 . S
C1283 H1299 0.961 . S
C1284 C1285 1.370 . S
C1284 C1286 1.363 . S
C1284 H1300 0.931 . S
C1285 C1284 1.370 . S
C1285 C1289 1.408 . S
C1286 C1284 1.363 . S
C1286 C1287 1.370 . S
C1286 C1290 1.524 1_565 S
C1287 C1279 1.503 1_665 S
C1287 C1286 1.370 . S
C1287 C1288 1.403 . S
C1288 C1287 1.403 . S
C1288 C1289 1.404 . S
C1288 C1291 1.539 . S
C1289 C1285 1.408 . S
C1289 C1288 1.404 . S
C1289 H1301 0.930 . S
C1290 C1286 1.524 1_545 S
C1290 H1302 0.956 . S
C1290 H1303 0.961 . S
C1290 H1304 0.961 1_545 S
C1291 C1288 1.539 . S
C1291 H1305 0.958 . S
C1291 H1306 0.961 . S
C1291 H1307 0.960 1_655 S
H1292 C1276 0.931 . S
H1293 C1281 0.929 . S
H1294 C1282 0.960 . S
H1295 C1282 0.962 . S
H1296 C1282 0.960 1_455 S
H1297 C1283 0.961 . S
H1298 C1283 0.961 . S
H1299 C1283 0.961 . S
H1300 C1284 0.931 . S
H1301 C1289 0.930 . S
H1302 C1290 0.956 . S
H1303 C1290 0.961 . S
H1304 C1290 0.961 1_565 S
H1305 C1291 0.958 . S
H1306 C1291 0.961 . S
H1307 C1291 0.960 1_455 S
C1308 C1309 1.391 1_545 S
C1308 C1310 1.394 . S
C1308 H1324 0.931 . S
C1309 C1308 1.391 1_565 S
C1309 C1313 1.376 . S
C1310 C1308 1.394 . S
C1310 C1311 1.369 1_545 S
C1310 C1314 1.531 . S
C1311 C1310 1.369 1_565 S
C1311 C1312 1.410 . S
C1311 C1319 1.503 1_655 S
C1312 C1311 1.410 . S
C1312 C1313 1.392 . S
C1312 C1315 1.511 . S
C1313 C1309 1.376 . S
C1313 C1312 1.392 . S
C1313 H1325 0.929 . S
C1314 C1310 1.531 . S
C1314 H1326 0.960 1_655 S
C1314 H1327 0.962 1_655 S
C1314 H1328 0.960 . S
C1315 C1312 1.511 . S
C1315 H1329 0.961 . S
C1315 H1330 0.961 . S
C1315 H1331 0.961 . S
C1316 C1317 1.370 . S
C1316 C1318 1.363 . S
C1316 H1332 0.931 . S
C1317 C1316 1.370 . S
C1317 C1321 1.408 1_545 S
C1318 C1316 1.363 . S
C1318 C1319 1.370 1_545 S
C1318 C1322 1.524 . S
C1319 C1311 1.503 1_455 S
C1319 C1318 1.370 1_565 S
C1319 C1320 1.403 . S
C1320 C1319 1.403 . S
C1320 C1321 1.404 . S
C1320 C1323 1.539 . S
C1321 C1317 1.408 1_565 S
C1321 C1320 1.404 . S
C1321 H1333 0.930 . S
C1322 C1318 1.524 . S
C1322 H1334 0.956 . S
C1322 H1335 0.961 . S
C1322 H1336 0.961 . S
C1323 C1320 1.539 . S
C1323 H1337 0.958 . S
C1323 H1338 0.961 . S
C1323 H1339 0.960 1_455 S
H1324 C1308 0.931 . S
H1325 C1313 0.929 . S
H1326 C1314 0.960 1_455 S
H1327 C1314 0.962 1_455 S
H1328 C1314 0.960 . S
H1329 C1315 0.961 . S
H1330 C1315 0.961 . S
H1331 C1315 0.961 . S
H1332 C1316 0.931 . S
H1333 C1321 0.930 . S
H1334 C1322 0.956 . S
H1335 C1322 0.961 . S
H1336 C1322 0.961 . S
H1337 C1323 0.958 . S
H1338 C1323 0.961 . S
H1339 C1323 0.960 1_655 S
C1340 C1341 1.391 . S
C1340 C1342 1.394 . S
C1340 H1356 0.931 . S
C1341 C1340 1.391 . S
C1341 C1345 1.376 . S
C1342 C1340 1.394 . S
C1342 C1343 1.369 . S
C1342 C1346 1.531 . S
C1343 C1342 1.369 . S
C1343 C1344 1.410 . S
C1343 C1351 1.503 1_665 S
C1344 C1343 1.410 . S
C1344 C1345 1.392 . S
C1344 C1347 1.511 1_655 S
C1345 C1341 1.376 . S
C1345 C1344 1.392 . S
C1345 H1357 0.929 . S
C1346 C1342 1.531 . S
C1346 H1358 0.960 1_565 S
C1346 H1359 0.962 1_565 S
C1346 H1360 0.960 . S
C1347 C1344 1.511 1_455 S
C1347 H1361 0.961 . S
C1347 H1362 0.961 . S
C1347 H1363 0.961 . S
C1348 C1349 1.370 . S
C1348 C1350 1.363 . S
C1348 H1364 0.931 . S
C1349 C1348 1.370 . S
C1349 C1353 1.408 . S
C1350 C1348 1.363 . S
C1350 C1351 1.370 . S
C1350 C1354 1.524 1_455 S
C1351 C1343 1.503 1_445 S
C1351 C1350 1.370 . S
C1351 C1352 1.403 . S
C1352 C1351 1.403 . S
C1352 C1353 1.404 . S
C1352 C1355 1.522 1_545 S
C1353 C1349 1.408 . S
C1353 C1352 1.404 . S
C1353 H1365 0.930 . S
C1354 C1350 1.524 1_655 S
C1354 H1366 0.956 . S
C1354 H1367 0.961 . S
C1354 H1368 0.961 . S
C1355 C1352 1.522 1_565 S
C1355 H1369 0.957 . S
C1355 H1370 0.966 1_565 S
C1355 H1371 0.974 . S
H1356 C1340 0.931 . S
H1357 C1345 0.929 . S
H1358 C1346 0.960 1_545 S
H1359 C1346 0.962 1_545 S
H1360 C1346 0.960 . S
H1361 C1347 0.961 . S
H1362 C1347 0.961 . S
H1363 C1347 0.961 . S
H1364 C1348 0.931 . S
H1365 C1353 0.930 . S
H1366 C1354 0.956 . S
H1367 C1354 0.961 . S
H1368 C1354 0.961 . S
H1369 C1355 0.957 . S
H1370 C1355 0.966 1_545 S
H1371 C1355 0.974 . S
C1372 C1373 1.391 . S
C1372 C1374 1.394 . S
C1372 H1388 0.931 . S
C1373 C1372 1.391 . S
C1373 C1377 1.376 1_455 S
C1374 C1372 1.394 . S
C1374 C1375 1.369 1_455 S
C1374 C1378 1.531 1_565 S
C1375 C1374 1.369 1_655 S
C1375 C1376 1.410 . S
C1375 C1383 1.503 1_565 S
C1376 C1375 1.410 . S
C1376 C1377 1.392 . S
C1376 C1379 1.511 . S
C1377 C1373 1.376 1_655 S
C1377 C1376 1.392 . S
C1377 H1389 0.929 . S
C1378 C1374 1.531 1_545 S
C1378 H1390 0.960 . S
C1378 H1391 0.962 . S
C1378 H1392 0.960 . S
C1379 C1376 1.511 . S
C1379 H1393 0.961 . S
C1379 H1394 0.961 . S
C1379 H1395 0.961 . S
C1380 C1381 1.370 1_455 S
C1380 C1382 1.363 . S
C1380 H1396 0.931 . S
C1381 C1380 1.370 1_655 S
C1381 C1385 1.408 . S
C1382 C1380 1.363 . S
C1382 C1383 1.370 1_455 S
C1382 C1386 1.524 . S
C1383 C1375 1.503 1_545 S
C1383 C1382 1.370 1_655 S
C1383 C1384 1.403 . S
C1384 C1383 1.403 . S
C1384 C1385 1.404 . S
C1384 C1387 1.539 1_545 S
C1385 C1381 1.408 . S
C1385 C1384 1.404 . S
C1385 H1397 0.930 . S
C1386 C1382 1.524 . S
C1386 H1398 0.956 . S
C1386 H1399 0.961 . S
C1386 H1400 0.961 . S
C1387 C1384 1.539 1_565 S
C1387 H1401 0.958 . S
C1387 H1402 0.961 . S
C1387 H1403 0.960 . S
H1388 C1372 0.931 . S
H1389 C1377 0.929 . S
H1390 C1378 0.960 . S
H1391 C1378 0.962 . S
H1392 C1378 0.960 . S
H1393 C1379 0.961 . S
H1394 C1379 0.961 . S
H1395 C1379 0.961 . S
H1396 C1380 0.931 . S
H1397 C1385 0.930 . S
H1398 C1386 0.956 . S
H1399 C1386 0.961 . S
H1400 C1386 0.961 . S
H1401 C1387 0.958 . S
H1402 C1387 0.961 . S
H1403 C1387 0.960 . S
C637 C622 1.856 . S
C645 C39 1.836 . S
C669 C92 1.829 . S
C677 C357 1.847 . S
C701 C145 1.856 . S
C709 C410 1.836 . S
C733 C198 1.826 . S
C741 C463 1.832 . S
C765 C516 1.827 . S
C773 C251 1.848 . S
C797 C304 1.856 . S
C805 C569 1.833 . S
C829 C38 1.811 . S
C837 C568 1.834 . S
C861 C91 1.827 . S
C869 C621 1.831 . S
C893 C144 1.812 . S
C901 C356 1.833 . S
C925 C197 1.816 . S
C933 C409 1.835 . S
C957 C462 1.810 . S
C965 C250 1.836 . S
C989 C515 1.811 . S
C997 C303 1.836 . S
C1021 C181 1.539 . S
C1029 C22 1.541 . S
C1053 C75 1.525 . S
C1061 C234 1.540 . S
C1085 C287 1.542 . S
C1093 C128 1.540 . S
C1117 C499 1.538 . S
C1125 C340 1.542 . S
C1149 C552 1.525 . S
C1157 C393 1.537 . S
C1181 C446 1.542 . S
C1189 C605 1.540 . S
C1213 C29 1.593 . S
C1221 C188 1.583 . S
C1245 C82 1.577 . S
C1253 C241 1.582 . S
C1277 C294 1.592 . S
C1285 C135 1.585 . S
C1309 C347 1.593 . S
C1317 C506 1.583 . S
C1341 C400 1.593 . S
C1349 C559 1.582 . S
C1373 C453 1.569 . S
C1381 C612 1.586 . S
