# Generated by pormake.
# Topology upa, (4)-cn, num edge types: 1
# Building blocks:
#     Node 0, Type 0, BuildingBlock: GALJAG_clean_sbu_0, # of connection points: 4
#     Node 1, Type 0, BuildingBlock: GALJAG_clean_sbu_0, # of connection points: 4
#     Node 2, Type 0, BuildingBlock: GALJAG_clean_sbu_0, # of connection points: 4
#     Node 3, Type 0, BuildingBlock: GALJAG_clean_sbu_0, # of connection points: 4
#     Node 4, Type 0, BuildingBlock: GALJAG_clean_sbu_0, # of connection points: 4
#     Node 5, Type 0, BuildingBlock: GALJAG_clean_sbu_0, # of connection points: 4
#     Node 6, Type 0, BuildingBlock: GALJAG_clean_sbu_0, # of connection points: 4
#     Node 7, Type 0, BuildingBlock: GALJAG_clean_sbu_0, # of connection points: 4
#     Edge 8, Type (0, 0), BuildingBlock: CIFDUS_clean_linker_0, # of connection points: 2
#     Edge 9, Type (0, 0), BuildingBlock: CIFDUS_clean_linker_0, # of connection points: 2
#     Edge 10, Type (0, 0), BuildingBlock: CIFDUS_clean_linker_0, # of connection points: 2
#     Edge 11, Type (0, 0), BuildingBlock: CIFDUS_clean_linker_0, # of connection points: 2
#     Edge 12, Type (0, 0), BuildingBlock: CIFDUS_clean_linker_0, # of connection points: 2
#     Edge 13, Type (0, 0), BuildingBlock: CIFDUS_clean_linker_0, # of connection points: 2
#     Edge 14, Type (0, 0), BuildingBlock: CIFDUS_clean_linker_0, # of connection points: 2
#     Edge 15, Type (0, 0), BuildingBlock: CIFDUS_clean_linker_0, # of connection points: 2
#     Edge 16, Type (0, 0), BuildingBlock: CIFDUS_clean_linker_0, # of connection points: 2
#     Edge 17, Type (0, 0), BuildingBlock: CIFDUS_clean_linker_0, # of connection points: 2
#     Edge 18, Type (0, 0), BuildingBlock: CIFDUS_clean_linker_0, # of connection points: 2
#     Edge 19, Type (0, 0), BuildingBlock: CIFDUS_clean_linker_0, # of connection points: 2
#     Edge 20, Type (0, 0), BuildingBlock: CIFDUS_clean_linker_0, # of connection points: 2
#     Edge 21, Type (0, 0), BuildingBlock: CIFDUS_clean_linker_0, # of connection points: 2
#     Edge 22, Type (0, 0), BuildingBlock: CIFDUS_clean_linker_0, # of connection points: 2
#     Edge 23, Type (0, 0), BuildingBlock: CIFDUS_clean_linker_0, # of connection points: 2
# Relax obj value: 0.230
# Max RMSD: 0.125
# Mean RMSD: 0.125
data_MOF--net-upa--node1-GALJAG_clean_sbu_0--edge1-CIFDUS_clean_linker_0
_symmetry_space_group_name_H-M    P1
_symmetry_Int_Tables_number       1
_symmetry_cell_setting            triclinic
loop_
_symmetry_equiv_pos_as_xyz
'x, y, z'
_cell_length_a     23.392881
_cell_length_b     23.36203
_cell_length_c     37.368348
_cell_angle_alpha  89.781261
_cell_angle_beta   90.118609
_cell_angle_gamma 89.957176
loop_
_atom_site_label
_atom_site_type_symbol
_atom_site_fract_x
_atom_site_fract_y
_atom_site_fract_z
_atom_type_partial_charge
In0 In 0.20385 0.20419 0.33145 0.0
O1 O 0.20229 0.25249 0.38463 0.0
O2 O 0.24831 0.17403 0.38219 0.0
C3 C 0.12081 0.25553 0.29259 0.0
C4 C 0.30559 0.22426 0.29923 0.0
C5 C 0.14002 0.10945 0.33829 0.0
O6 O 0.13906 0.27668 0.32157 0.0
O7 O 0.1483 0.2124 0.28185 0.0
O8 O 0.18717 0.10876 0.32166 0.0
O9 O 0.12718 0.15666 0.35234 0.0
C10 C 0.23212 0.21561 0.40106 0.0
O11 O 0.28279 0.17525 0.29971 0.0
O12 O 0.27593 0.26312 0.31354 0.0
In13 In 0.29693 0.69623 0.8271 0.0
O14 O 0.3362 0.76517 0.791 0.0
O15 O 0.25278 0.78 0.81169 0.0
C16 C 0.37916 0.6173 0.83559 0.0
C17 C 0.28967 0.72691 0.89629 0.0
C18 C 0.23736 0.62198 0.78659 0.0
O19 O 0.38995 0.66602 0.82218 0.0
O20 O 0.32848 0.61029 0.84598 0.0
O21 O 0.21808 0.63992 0.81616 0.0
O22 O 0.28218 0.64688 0.77609 0.0
C23 C 0.29411 0.79889 0.7934 0.0
O24 O 0.24841 0.70332 0.88007 0.0
O25 O 0.33349 0.73568 0.87742 0.0
In26 In 0.81355 0.79786 0.32442 0.0
O27 O 0.74561 0.83656 0.28709 0.0
O28 O 0.72863 0.75493 0.30979 0.0
C29 C 0.88167 0.88856 0.33637 0.0
C30 C 0.78998 0.77448 0.39357 0.0
C31 C 0.89089 0.74451 0.28245 0.0
O32 O 0.83032 0.89471 0.32635 0.0
O33 O 0.89709 0.83757 0.34149 0.0
O34 O 0.87117 0.72116 0.31041 0.0
O35 O 0.86706 0.79111 0.27407 0.0
C36 C 0.71091 0.79558 0.29038 0.0
O37 O 0.81517 0.73909 0.37351 0.0
O38 O 0.77569 0.82076 0.3785 0.0
In39 In 0.72263 0.32071 0.82892 0.0
O40 O 0.68808 0.24242 0.79899 0.0
O41 O 0.77756 0.24698 0.80945 0.0
C42 C 0.63727 0.39509 0.8388 0.0
C43 C 0.73317 0.28782 0.89764 0.0
C44 C 0.77164 0.39998 0.7866 0.0
O45 O 0.62927 0.34871 0.82193 0.0
O46 O 0.68649 0.40134 0.85199 0.0
O47 O 0.79522 0.38351 0.81547 0.0
O48 O 0.72794 0.37168 0.77763 0.0
C49 C 0.73638 0.21819 0.79692 0.0
O50 O 0.77187 0.3164 0.88199 0.0
O51 O 0.69047 0.27563 0.87845 0.0
In52 In 0.70308 0.29353 0.17938 0.0
O53 O 0.78137 0.32141 0.21215 0.0
O54 O 0.77526 0.23413 0.19668 0.0
C55 C 0.63745 0.38718 0.17362 0.0
C56 C 0.73365 0.28606 0.11 0.0
C57 C 0.62093 0.24079 0.21781 0.0
O58 O 0.68544 0.38871 0.18938 0.0
O59 O 0.62461 0.33976 0.15982 0.0
O60 O 0.63843 0.22076 0.18835 0.0
O61 O 0.64886 0.28328 0.22914 0.0
C62 C 0.80456 0.27252 0.21181 0.0
O63 O 0.7032 0.24824 0.12502 0.0
O64 O 0.7488 0.32661 0.13007 0.0
In65 In 0.19718 0.19948 0.68218 0.0
O66 O 0.16794 0.2806 0.7114 0.0
O67 O 0.2562 0.27197 0.69871 0.0
C68 C 0.10241 0.1366 0.67325 0.0
C69 C 0.21413 0.22664 0.61291 0.0
C70 C 0.24334 0.1194 0.72586 0.0
O71 O 0.10072 0.18483 0.6886 0.0
O72 O 0.1508 0.12204 0.6617 0.0
O73 O 0.26337 0.1296 0.69504 0.0
O74 O 0.2042 0.15323 0.73552 0.0
C75 C 0.21715 0.30298 0.71172 0.0
O76 O 0.24956 0.19644 0.63037 0.0
O77 O 0.17135 0.24323 0.63056 0.0
In78 In 0.31285 0.70098 0.17815 0.0
O79 O 0.23113 0.67267 0.20702 0.0
O80 O 0.24065 0.76094 0.19386 0.0
C81 C 0.37796 0.60697 0.17254 0.0
C82 C 0.28594 0.71493 0.10853 0.0
C83 C 0.39122 0.74918 0.22171 0.0
O84 O 0.32891 0.60488 0.18681 0.0
O85 O 0.39201 0.65508 0.16008 0.0
O86 O 0.38236 0.76758 0.19025 0.0
O87 O 0.35674 0.71091 0.23193 0.0
C88 C 0.20919 0.72219 0.20695 0.0
O89 O 0.31589 0.75121 0.12527 0.0
O90 O 0.26981 0.67261 0.12696 0.0
In91 In 0.78095 0.82094 0.6738 0.0
O92 O 0.81604 0.74101 0.70238 0.0
O93 O 0.72663 0.74567 0.69297 0.0
C94 C 0.87541 0.88425 0.66443 0.0
C95 C 0.75735 0.80131 0.60412 0.0
C96 C 0.73583 0.90114 0.71736 0.0
O97 O 0.87789 0.83424 0.67751 0.0
O98 O 0.82634 0.9004 0.65483 0.0
O99 O 0.70986 0.88397 0.68969 0.0
O100 O 0.78072 0.87352 0.72478 0.0
C101 C 0.76811 0.71656 0.70486 0.0
O102 O 0.72418 0.82952 0.62405 0.0
O103 O 0.80133 0.78202 0.61957 0.0
H104 H 0.02622 0.11498 0.34807 0.0
H105 H 0.16363 0.99597 0.32849 0.0
H106 H 0.09519 0.91652 0.32786 0.0
H107 H 0.99633 0.8818 0.33173 0.0
H108 H 0.8583 1.00188 0.34661 0.0
H109 H 0.92721 0.08065 0.35028 0.0
C110 C 0.04123 0.07154 0.34399 0.0
C111 C 0.09983 0.06098 0.33875 0.0
C112 C 1.00161 0.02666 0.34274 0.0
C113 C 0.1187 0.00486 0.33273 0.0
C114 C 0.07964 0.9596 0.33237 0.0
C115 C 0.9814 0.9252 0.33608 0.0
C116 C 0.92251 0.93623 0.3393 0.0
C117 C 0.02103 0.97011 0.33723 0.0
C118 C 0.9035 0.99258 0.34418 0.0
C119 C 0.94283 0.03745 0.34629 0.0
H120 H 0.49487 0.62407 0.83951 0.0
H121 H 0.35518 0.50419 0.83338 0.0
H122 H 0.4223 0.4241 0.83316 0.0
H123 H 0.52131 0.38794 0.83436 0.0
H124 H 0.66041 0.50784 0.84473 0.0
H125 H 0.59337 0.58779 0.84374 0.0
C126 C 0.47937 0.58037 0.83819 0.0
C127 C 0.4205 0.56986 0.83647 0.0
C128 C 0.51812 0.53446 0.8389 0.0
C129 C 0.40055 0.51315 0.83502 0.0
C130 C 0.43883 0.46735 0.83476 0.0
C131 C 0.53666 0.4316 0.83653 0.0
C132 C 0.59541 0.4421 0.8397 0.0
C133 C 0.49776 0.47745 0.83669 0.0
C134 C 0.6151 0.49875 0.84265 0.0
C135 C 0.57689 0.54454 0.84191 0.0
H136 H 0.52281 0.37954 0.17214 0.0
H137 H 0.66095 0.50154 0.17582 0.0
H138 H 0.59188 0.58059 0.17475 0.0
H139 H 0.49253 0.61428 0.17252 0.0
H140 H 0.35416 0.49239 0.17382 0.0
H141 H 0.42323 0.41328 0.17327 0.0
C142 C 0.5377 0.42352 0.1725 0.0
C143 C 0.59668 0.43511 0.17351 0.0
C144 C 0.49785 0.46831 0.17282 0.0
C145 C 0.61568 0.49194 0.17487 0.0
C146 C 0.57627 0.53693 0.17421 0.0
C147 C 0.47754 0.57033 0.17248 0.0
C148 C 0.41853 0.55882 0.17268 0.0
C149 C 0.51734 0.52552 0.17309 0.0
C150 C 0.39946 0.50197 0.17349 0.0
C151 C 0.43887 0.45694 0.17314 0.0
H152 H 0.10619 0.02235 0.66498 0.0
H153 H 0.9888 0.16345 0.67703 0.0
H154 H 0.90779 0.09714 0.67348 0.0
H155 H 0.8711 0.99909 0.66787 0.0
H156 H 0.98883 0.85743 0.66078 0.0
H157 H 0.06967 0.92419 0.66135 0.0
C158 C 0.06281 0.03862 0.66657 0.0
C159 C 0.05317 0.09763 0.67087 0.0
C160 C 0.01691 1.00025 0.66539 0.0
C161 C 0.99701 0.11816 0.67361 0.0
C162 C 0.95087 0.08033 0.67154 0.0
C163 C 0.9145 0.98294 0.66609 0.0
C164 C 0.92435 0.92368 0.66378 0.0
C165 C 0.96041 0.02133 0.66749 0.0
C166 C 0.98054 0.90298 0.66238 0.0
C167 C 0.02656 0.94106 0.66272 0.0
H168 H 0.18294 0.28613 0.44972 0.0
H169 H 0.30517 0.1488 0.43976 0.0
H170 H 0.31509 0.14392 0.50479 0.0
H171 H 0.28241 0.1728 0.56467 0.0
H172 H 0.15604 0.3064 0.57429 0.0
H173 H 0.15477 0.31899 0.50944 0.0
C174 C 0.21237 0.25574 0.46179 0.0
C175 C 0.24304 0.21773 0.44 0.0
C176 C 0.21684 0.25223 0.49922 0.0
C177 C 0.28084 0.17837 0.45599 0.0
C178 C 0.28648 0.17547 0.49319 0.0
C179 C 0.25531 0.20524 0.55255 0.0
C180 C 0.2192 0.23841 0.57418 0.0
C181 C 0.25372 0.2113 0.51511 0.0
C182 C 0.184 0.28007 0.55816 0.0
C183 C 0.18317 0.28727 0.52107 0.0
H184 H 0.21883 0.68228 0.94664 0.0
H185 H 0.36103 0.79759 0.93287 0.0
H186 H 0.36883 0.80896 0.99767 0.0
H187 H 0.34077 0.77933 0.05844 0.0
H188 H 0.20306 0.65856 0.07196 0.0
H189 H 0.18766 0.65644 0.00734 0.0
C190 C 0.25088 0.71059 0.95785 0.0
C191 C 0.28933 0.73896 0.93508 0.0
C192 C 0.25623 0.71558 0.99518 0.0
C193 C 0.33105 0.77511 0.94992 0.0
C194 C 0.33562 0.78156 0.98697 0.0
C195 C 0.30689 0.75325 0.04721 0.0
C196 C 0.27325 0.71903 0.06986 0.0
C197 C 0.29929 0.75099 0.0099 0.0
C198 C 0.22976 0.68505 0.055 0.0
C199 C 0.22093 0.68377 0.01805 0.0
H200 H 0.81052 0.72789 0.55903 0.0
H201 H 0.68564 0.86376 0.56165 0.0
H202 H 0.68166 0.86474 0.49625 0.0
H203 H 0.72032 0.83291 0.43844 0.0
H204 H 0.84347 0.69547 0.43581 0.0
H205 H 0.8411 0.68873 0.5011 0.0
C206 C 0.7819 0.7572 0.54526 0.0
C207 C 0.74888 0.79612 0.56507 0.0
C208 C 0.7798 0.75745 0.50769 0.0
C209 C 0.71153 0.83343 0.54697 0.0
C210 C 0.70945 0.8342 0.50958 0.0
C211 C 0.74609 0.80103 0.45217 0.0
C212 C 0.78249 0.76517 0.43242 0.0
C213 C 0.7444 0.79733 0.48968 0.0
C214 C 0.81517 0.72362 0.45045 0.0
C215 C 0.81403 0.71992 0.48779 0.0
H216 H 0.79943 0.33561 0.94944 0.0
H217 H 0.66872 0.20849 0.9322 0.0
H218 H 0.66125 0.19238 0.9966 0.0
H219 H 0.68554 0.22062 0.05805 0.0
H220 H 0.81196 0.35198 0.07541 0.0
H221 H 0.82774 0.3599 0.01101 0.0
C222 C 0.77004 0.30374 0.95981 0.0
C223 C 0.73458 0.27344 0.93616 0.0
C224 C 0.76483 0.29579 0.99698 0.0
C225 C 0.69631 0.23259 0.94993 0.0
C226 C 0.69191 0.2234 0.98676 0.0
C227 C 0.7171 0.25035 0.04772 0.0
C228 C 0.74732 0.2858 0.07141 0.0
C229 C 0.72498 0.2557 0.01058 0.0
C230 C 0.78789 0.3244 0.05767 0.0
C231 C 0.79693 0.32902 0.02084 0.0
H232 H 0.55345 0.30755 0.25829 0.0
H233 H 0.56171 0.13982 0.21093 0.0
H234 H 0.46448 0.11927 0.2321 0.0
H235 H 0.37583 0.15081 0.26277 0.0
H236 H 0.36754 0.32182 0.30585 0.0
H237 H 0.4657 0.33951 0.28722 0.0
C238 C 0.53442 0.26606 0.25311 0.0
C239 C 0.56514 0.2248 0.23367 0.0
C240 C 0.47805 0.25555 0.26411 0.0
C241 C 0.53918 0.17195 0.22626 0.0
C242 C 0.48349 0.1604 0.23816 0.0
C243 C 0.39553 0.19196 0.26795 0.0
C244 C 0.36425 0.23493 0.2857 0.0
C245 C 0.45223 0.20217 0.25681 0.0
C246 C 0.39039 0.28807 0.29213 0.0
C247 C 0.44671 0.29818 0.28165 0.0
H248 H 0.23401 0.8911 0.81568 0.0
H249 H 0.3558 0.83747 0.73617 0.0
H250 H 0.35487 0.9336 0.70962 0.0
H251 H 0.31538 0.03191 0.70739 0.0
H252 H 0.19666 0.08543 0.78898 0.0
H253 H 0.20141 0.99098 0.81669 0.0
C254 C 0.26028 0.90049 0.7925 0.0
C255 C 0.29421 0.85709 0.77753 0.0
C256 C 0.26051 0.95609 0.77795 0.0
C257 C 0.32898 0.87012 0.74799 0.0
C258 C 0.32853 0.92509 0.73286 0.0
C259 C 0.29145 0.02322 0.73162 0.0
C260 C 0.25558 0.06581 0.74596 0.0
C261 C 0.29411 0.96839 0.74746 0.0
C262 C 0.2247 0.05365 0.77734 0.0
C263 C 0.22701 0.99941 0.79311 0.0
H264 H 0.61672 0.73952 0.31373 0.0
H265 H 0.67522 0.85462 0.2312 0.0
H266 H 0.57979 0.85479 0.20399 0.0
H267 H 0.48068 0.81794 0.20208 0.0
H268 H 0.42221 0.70603 0.28656 0.0
H269 H 0.516 0.70995 0.31492 0.0
C270 C 0.60853 0.76457 0.28975 0.0
C271 C 0.65309 0.79626 0.27414 0.0
C272 C 0.55331 0.76551 0.27479 0.0
C273 C 0.64165 0.82951 0.24354 0.0
C274 C 0.58707 0.82971 0.22803 0.0
C275 C 0.48814 0.79538 0.22708 0.0
C276 C 0.44435 0.7616 0.24205 0.0
C277 C 0.5426 0.7975 0.24327 0.0
C278 C 0.45494 0.73245 0.27441 0.0
C279 C 0.50881 0.73427 0.29056 0.0
H280 H 0.65626 0.14757 0.76669 0.0
H281 H 0.83402 0.15527 0.79756 0.0
H282 H 0.84749 0.0564 0.77889 0.0
H283 H 0.80992 0.96831 0.75299 0.0
H284 H 0.63445 0.96053 0.71792 0.0
H285 H 0.61857 0.05833 0.73964 0.0
C286 C 0.69793 0.12759 0.76921 0.0
C287 C 0.74408 0.15896 0.78349 0.0
C288 C 0.70559 0.07044 0.75814 0.0
C289 C 0.79782 0.13239 0.78656 0.0
C290 C 0.80554 0.07565 0.77605 0.0
C291 C 0.76783 0.98754 0.7507 0.0
C292 C 0.72309 0.95682 0.73448 0.0
C293 C 0.75978 0.04426 0.76191 0.0
C294 C 0.66933 0.98304 0.73076 0.0
C295 C 0.66042 0.03908 0.74293 0.0
H296 H 0.05306 0.18891 0.25196 0.0
H297 H 0.06169 0.35653 0.29947 0.0
H298 H 0.96418 0.37713 0.27861 0.0
H299 H 0.87513 0.34564 0.24831 0.0
H300 H 0.86653 0.17494 0.20479 0.0
H301 H 0.96498 0.15714 0.22309 0.0
C302 C 0.03404 0.23038 0.25725 0.0
C303 C 0.06493 0.27156 0.27668 0.0
C304 C 0.97751 0.24095 0.24639 0.0
C305 C 0.03902 0.32444 0.28416 0.0
C306 C 0.98316 0.33602 0.27244 0.0
C307 C 0.89481 0.30452 0.24298 0.0
C308 C 0.86335 0.26166 0.22522 0.0
C309 C 0.95169 0.29429 0.25388 0.0
C310 C 0.8895 0.20859 0.21854 0.0
C311 C 0.946 0.19843 0.22883 0.0
H312 H 0.14371 0.37641 0.74577 0.0
H313 H 0.31497 0.36376 0.70364 0.0
H314 H 0.33326 0.463 0.71964 0.0
H315 H 0.30224 0.55243 0.7465 0.0
H316 H 0.13463 0.56547 0.79352 0.0
H317 H 0.11275 0.46749 0.77406 0.0
C318 C 0.18502 0.39543 0.74021 0.0
C319 C 0.22794 0.36255 0.72355 0.0
C320 C 0.19562 0.45279 0.74989 0.0
C321 C 0.28128 0.38782 0.71658 0.0
C322 C 0.29172 0.44476 0.72554 0.0
C323 C 0.26039 0.53439 0.75192 0.0
C324 C 0.21964 0.56662 0.77082 0.0
C325 C 0.24927 0.4776 0.74212 0.0
C326 C 0.16636 0.54183 0.77854 0.0
C327 C 0.1541 0.48568 0.76767 0.0
H328 H 0.13408 0.64842 0.23929 0.0
H329 H 0.15045 0.82196 0.20054 0.0
H330 H 0.05171 0.8416 0.21704 0.0
H331 H 0.96166 0.81099 0.24367 0.0
H332 H 0.94515 0.64029 0.28665 0.0
H333 H 0.04247 0.6176 0.26665 0.0
C334 C 0.11599 0.69053 0.23455 0.0
C335 C 0.14978 0.7337 0.21877 0.0
C336 C 0.05892 0.70181 0.24443 0.0
C337 C 0.12567 0.78803 0.21281 0.0
C338 C 0.06902 0.79927 0.22207 0.0
C339 C 0.97885 0.76839 0.2481 0.0
C340 C 0.94587 0.72705 0.26612 0.0
C341 C 0.03531 0.75656 0.23786 0.0
C342 C 0.96943 0.6726 0.27244 0.0
C343 C 0.02521 0.65982 0.26126 0.0
H344 H 0.69896 0.46488 0.74812 0.0
H345 H 0.87136 0.46238 0.78907 0.0
H346 H 0.88615 0.56043 0.76691 0.0
H347 H 0.84802 0.64833 0.73775 0.0
H348 H 0.67271 0.65071 0.70145 0.0
H349 H 0.66087 0.55151 0.7204 0.0
C350 C 0.74023 0.48528 0.75164 0.0
C351 C 0.78443 0.45596 0.7696 0.0
C352 C 0.74747 0.54209 0.7402 0.0
C353 C 0.83698 0.48376 0.77487 0.0
C354 C 0.84523 0.53993 0.76244 0.0
C355 C 0.80725 0.62709 0.73408 0.0
C356 C 0.76128 0.65703 0.7182 0.0
C357 C 0.80046 0.56983 0.74545 0.0
C358 C 0.70869 0.62892 0.71372 0.0
C359 C 0.70194 0.57202 0.72438 0.0
loop_
_geom_bond_atom_site_label_1
_geom_bond_atom_site_label_2
_geom_bond_distance
_geom_bond_site_symmetry_2
_ccdc_geom_bond_type
In0 O1 2.294 . S
In0 O2 2.326 . S
In0 O6 2.266 . S
In0 O7 2.326 . S
In0 O8 2.266 . S
In0 O9 2.326 . S
In0 O11 2.294 . S
In0 O12 2.326 . S
O1 In0 2.294 . S
O1 C10 1.240 . S
O2 In0 2.326 . S
O2 C10 1.252 . S
C3 O6 1.252 . S
C3 O7 1.260 . S
C4 O11 1.240 . S
C4 O12 1.252 . S
C5 O8 1.252 . S
C5 O9 1.260 . S
O6 In0 2.266 . S
O6 C3 1.252 . S
O7 In0 2.326 . S
O7 C3 1.260 . S
O8 In0 2.266 . S
O8 C5 1.252 . S
O9 In0 2.326 . S
O9 C5 1.260 . S
C10 O1 1.240 . S
C10 O2 1.252 . S
O11 In0 2.294 . S
O11 C4 1.240 . S
O12 In0 2.326 . S
O12 C4 1.252 . S
In13 O14 2.294 . S
In13 O15 2.326 . S
In13 O19 2.266 . S
In13 O20 2.326 . S
In13 O21 2.266 . S
In13 O22 2.326 . S
In13 O24 2.294 . S
In13 O25 2.326 . S
O14 In13 2.294 . S
O14 C23 1.240 . S
O15 In13 2.326 . S
O15 C23 1.252 . S
C16 O19 1.252 . S
C16 O20 1.260 . S
C17 O24 1.240 . S
C17 O25 1.252 . S
C18 O21 1.252 . S
C18 O22 1.260 . S
O19 In13 2.266 . S
O19 C16 1.252 . S
O20 In13 2.326 . S
O20 C16 1.260 . S
O21 In13 2.266 . S
O21 C18 1.252 . S
O22 In13 2.326 . S
O22 C18 1.260 . S
C23 O14 1.240 . S
C23 O15 1.252 . S
O24 In13 2.294 . S
O24 C17 1.240 . S
O25 In13 2.326 . S
O25 C17 1.252 . S
In26 O27 2.294 . S
In26 O28 2.326 . S
In26 O32 2.266 . S
In26 O33 2.326 . S
In26 O34 2.266 . S
In26 O35 2.326 . S
In26 O37 2.294 . S
In26 O38 2.326 . S
O27 In26 2.294 . S
O27 C36 1.240 . S
O28 In26 2.326 . S
O28 C36 1.252 . S
C29 O32 1.252 . S
C29 O33 1.260 . S
C30 O37 1.240 . S
C30 O38 1.252 . S
C31 O34 1.252 . S
C31 O35 1.260 . S
O32 In26 2.266 . S
O32 C29 1.252 . S
O33 In26 2.326 . S
O33 C29 1.260 . S
O34 In26 2.266 . S
O34 C31 1.252 . S
O35 In26 2.326 . S
O35 C31 1.260 . S
C36 O27 1.240 . S
C36 O28 1.252 . S
O37 In26 2.294 . S
O37 C30 1.240 . S
O38 In26 2.326 . S
O38 C30 1.252 . S
In39 O40 2.294 . S
In39 O41 2.326 . S
In39 O45 2.266 . S
In39 O46 2.326 . S
In39 O47 2.266 . S
In39 O48 2.326 . S
In39 O50 2.294 . S
In39 O51 2.326 . S
O40 In39 2.294 . S
O40 C49 1.240 . S
O41 In39 2.326 . S
O41 C49 1.252 . S
C42 O45 1.252 . S
C42 O46 1.260 . S
C43 O50 1.240 . S
C43 O51 1.252 . S
C44 O47 1.252 . S
C44 O48 1.260 . S
O45 In39 2.266 . S
O45 C42 1.252 . S
O46 In39 2.326 . S
O46 C42 1.260 . S
O47 In39 2.266 . S
O47 C44 1.252 . S
O48 In39 2.326 . S
O48 C44 1.260 . S
C49 O40 1.240 . S
C49 O41 1.252 . S
O50 In39 2.294 . S
O50 C43 1.240 . S
O51 In39 2.326 . S
O51 C43 1.252 . S
In52 O53 2.294 . S
In52 O54 2.326 . S
In52 O58 2.266 . S
In52 O59 2.326 . S
In52 O60 2.266 . S
In52 O61 2.326 . S
In52 O63 2.294 . S
In52 O64 2.326 . S
O53 In52 2.294 . S
O53 C62 1.240 . S
O54 In52 2.326 . S
O54 C62 1.252 . S
C55 O58 1.252 . S
C55 O59 1.260 . S
C56 O63 1.240 . S
C56 O64 1.252 . S
C57 O60 1.252 . S
C57 O61 1.260 . S
O58 In52 2.266 . S
O58 C55 1.252 . S
O59 In52 2.326 . S
O59 C55 1.260 . S
O60 In52 2.266 . S
O60 C57 1.252 . S
O61 In52 2.326 . S
O61 C57 1.260 . S
C62 O53 1.240 . S
C62 O54 1.252 . S
O63 In52 2.294 . S
O63 C56 1.240 . S
O64 In52 2.326 . S
O64 C56 1.252 . S
In65 O66 2.294 . S
In65 O67 2.326 . S
In65 O71 2.266 . S
In65 O72 2.326 . S
In65 O73 2.266 . S
In65 O74 2.326 . S
In65 O76 2.294 . S
In65 O77 2.326 . S
O66 In65 2.294 . S
O66 C75 1.240 . S
O67 In65 2.326 . S
O67 C75 1.252 . S
C68 O71 1.252 . S
C68 O72 1.260 . S
C69 O76 1.240 . S
C69 O77 1.252 . S
C70 O73 1.252 . S
C70 O74 1.260 . S
O71 In65 2.266 . S
O71 C68 1.252 . S
O72 In65 2.326 . S
O72 C68 1.260 . S
O73 In65 2.266 . S
O73 C70 1.252 . S
O74 In65 2.326 . S
O74 C70 1.260 . S
C75 O66 1.240 . S
C75 O67 1.252 . S
O76 In65 2.294 . S
O76 C69 1.240 . S
O77 In65 2.326 . S
O77 C69 1.252 . S
In78 O79 2.294 . S
In78 O80 2.326 . S
In78 O84 2.266 . S
In78 O85 2.326 . S
In78 O86 2.266 . S
In78 O87 2.326 . S
In78 O89 2.294 . S
In78 O90 2.326 . S
O79 In78 2.294 . S
O79 C88 1.240 . S
O80 In78 2.326 . S
O80 C88 1.252 . S
C81 O84 1.252 . S
C81 O85 1.260 . S
C82 O89 1.240 . S
C82 O90 1.252 . S
C83 O86 1.252 . S
C83 O87 1.260 . S
O84 In78 2.266 . S
O84 C81 1.252 . S
O85 In78 2.326 . S
O85 C81 1.260 . S
O86 In78 2.266 . S
O86 C83 1.252 . S
O87 In78 2.326 . S
O87 C83 1.260 . S
C88 O79 1.240 . S
C88 O80 1.252 . S
O89 In78 2.294 . S
O89 C82 1.240 . S
O90 In78 2.326 . S
O90 C82 1.252 . S
In91 O92 2.294 . S
In91 O93 2.326 . S
In91 O97 2.266 . S
In91 O98 2.326 . S
In91 O99 2.266 . S
In91 O100 2.326 . S
In91 O102 2.294 . S
In91 O103 2.326 . S
O92 In91 2.294 . S
O92 C101 1.240 . S
O93 In91 2.326 . S
O93 C101 1.252 . S
C94 O97 1.252 . S
C94 O98 1.260 . S
C95 O102 1.240 . S
C95 O103 1.252 . S
C96 O99 1.252 . S
C96 O100 1.260 . S
O97 In91 2.266 . S
O97 C94 1.252 . S
O98 In91 2.326 . S
O98 C94 1.260 . S
O99 In91 2.266 . S
O99 C96 1.252 . S
O100 In91 2.326 . S
O100 C96 1.260 . S
C101 O92 1.240 . S
C101 O93 1.252 . S
O102 In91 2.294 . S
O102 C95 1.240 . S
O103 In91 2.326 . S
O103 C95 1.252 . S
H104 C110 0.930 1_655 S
H105 C113 0.930 . S
H106 C114 0.930 . S
H107 C115 0.930 1_455 S
H108 C118 0.930 . S
H109 C119 0.930 . S
C110 H104 0.930 1_455 S
C110 C111 1.355 . S
C110 C112 1.415 1_455 S
C111 C110 1.355 . S
C111 C113 1.419 . S
C112 C110 1.415 1_655 S
C112 C117 1.425 1_645 S
C112 C119 1.409 . S
C113 H105 0.930 . S
C113 C111 1.419 . S
C113 C114 1.362 1_545 S
C114 H106 0.930 . S
C114 C113 1.362 1_565 S
C114 C117 1.409 . S
C115 H107 0.930 1_655 S
C115 C116 1.355 . S
C115 C117 1.415 1_655 S
C116 C115 1.355 . S
C116 C118 1.419 . S
C117 C112 1.425 1_465 S
C117 C114 1.409 . S
C117 C115 1.415 1_455 S
C118 H108 0.930 . S
C118 C116 1.419 . S
C118 C119 1.362 1_565 S
C119 H109 0.930 . S
C119 C112 1.409 . S
C119 C118 1.362 1_545 S
H120 C126 0.930 . S
H121 C129 0.930 . S
H122 C130 0.930 . S
H123 C131 0.930 . S
H124 C134 0.930 . S
H125 C135 0.930 . S
C126 H120 0.930 . S
C126 C127 1.355 . S
C126 C128 1.415 . S
C127 C126 1.355 . S
C127 C129 1.419 . S
C128 C126 1.415 . S
C128 C133 1.425 . S
C128 C135 1.409 . S
C129 H121 0.930 . S
C129 C127 1.419 . S
C129 C130 1.362 . S
C130 H122 0.930 . S
C130 C129 1.362 . S
C130 C133 1.409 . S
C131 H123 0.930 . S
C131 C132 1.355 . S
C131 C133 1.415 . S
C132 C131 1.355 . S
C132 C134 1.419 . S
C133 C128 1.425 . S
C133 C130 1.409 . S
C133 C131 1.415 . S
C134 H124 0.930 . S
C134 C132 1.419 . S
C134 C135 1.362 . S
C135 H125 0.930 . S
C135 C128 1.409 . S
C135 C134 1.362 . S
H136 C142 0.930 . S
H137 C145 0.930 . S
H138 C146 0.930 . S
H139 C147 0.930 . S
H140 C150 0.930 . S
H141 C151 0.930 . S
C142 H136 0.930 . S
C142 C143 1.355 . S
C142 C144 1.415 . S
C143 C142 1.355 . S
C143 C145 1.419 . S
C144 C142 1.415 . S
C144 C149 1.425 . S
C144 C151 1.409 . S
C145 H137 0.930 . S
C145 C143 1.419 . S
C145 C146 1.362 . S
C146 H138 0.930 . S
C146 C145 1.362 . S
C146 C149 1.409 . S
C147 H139 0.930 . S
C147 C148 1.355 . S
C147 C149 1.415 . S
C148 C147 1.355 . S
C148 C150 1.419 . S
C149 C144 1.425 . S
C149 C146 1.409 . S
C149 C147 1.415 . S
C150 H140 0.930 . S
C150 C148 1.419 . S
C150 C151 1.362 . S
C151 H141 0.930 . S
C151 C144 1.409 . S
C151 C150 1.362 . S
H152 C158 0.930 1_565 S
H153 C161 0.930 . S
H154 C162 0.930 . S
H155 C163 0.930 1_545 S
H156 C166 0.930 . S
H157 C167 0.930 . S
C158 H152 0.930 1_545 S
C158 C159 1.355 . S
C158 C160 1.415 1_545 S
C159 C158 1.355 . S
C159 C161 1.419 . S
C160 C158 1.415 1_565 S
C160 C165 1.425 1_465 S
C160 C167 1.409 . S
C161 H153 0.930 . S
C161 C159 1.419 . S
C161 C162 1.362 1_455 S
C162 H154 0.930 . S
C162 C161 1.362 1_655 S
C162 C165 1.409 . S
C163 H155 0.930 1_565 S
C163 C164 1.355 . S
C163 C165 1.415 1_565 S
C164 C163 1.355 . S
C164 C166 1.419 . S
C165 C160 1.425 1_645 S
C165 C162 1.409 . S
C165 C163 1.415 1_545 S
C166 H156 0.930 . S
C166 C164 1.419 . S
C166 C167 1.362 1_655 S
C167 H157 0.930 . S
C167 C160 1.409 . S
C167 C166 1.362 1_455 S
H168 C174 0.930 . S
H169 C177 0.930 . S
H170 C178 0.930 . S
H171 C179 0.930 . S
H172 C182 0.930 . S
H173 C183 0.930 . S
C174 H168 0.930 . S
C174 C175 1.355 . S
C174 C176 1.415 . S
C175 C174 1.355 . S
C175 C177 1.419 . S
C176 C174 1.415 . S
C176 C181 1.425 . S
C176 C183 1.409 . S
C177 H169 0.930 . S
C177 C175 1.419 . S
C177 C178 1.362 . S
C178 H170 0.930 . S
C178 C177 1.362 . S
C178 C181 1.409 . S
C179 H171 0.930 . S
C179 C180 1.355 . S
C179 C181 1.415 . S
C180 C179 1.355 . S
C180 C182 1.419 . S
C181 C176 1.425 . S
C181 C178 1.409 . S
C181 C179 1.415 . S
C182 H172 0.930 . S
C182 C180 1.419 . S
C182 C183 1.362 . S
C183 H173 0.930 . S
C183 C176 1.409 . S
C183 C182 1.362 . S
H184 C190 0.930 . S
H185 C193 0.930 . S
H186 C194 0.930 . S
H187 C195 0.930 . S
H188 C198 0.930 . S
H189 C199 0.930 . S
C190 H184 0.930 . S
C190 C191 1.355 . S
C190 C192 1.415 . S
C191 C190 1.355 . S
C191 C193 1.419 . S
C192 C190 1.415 . S
C192 C197 1.425 1_556 S
C192 C199 1.409 1_556 S
C193 H185 0.930 . S
C193 C191 1.419 . S
C193 C194 1.362 . S
C194 H186 0.930 . S
C194 C193 1.362 . S
C194 C197 1.409 1_556 S
C195 H187 0.930 . S
C195 C196 1.355 . S
C195 C197 1.415 . S
C196 C195 1.355 . S
C196 C198 1.419 . S
C197 C192 1.425 1_554 S
C197 C194 1.409 1_554 S
C197 C195 1.415 . S
C198 H188 0.930 . S
C198 C196 1.419 . S
C198 C199 1.362 . S
C199 H189 0.930 . S
C199 C192 1.409 1_554 S
C199 C198 1.362 . S
H200 C206 0.930 . S
H201 C209 0.930 . S
H202 C210 0.930 . S
H203 C211 0.930 . S
H204 C214 0.930 . S
H205 C215 0.930 . S
C206 H200 0.930 . S
C206 C207 1.355 . S
C206 C208 1.415 . S
C207 C206 1.355 . S
C207 C209 1.419 . S
C208 C206 1.415 . S
C208 C213 1.425 . S
C208 C215 1.409 . S
C209 H201 0.930 . S
C209 C207 1.419 . S
C209 C210 1.362 . S
C210 H202 0.930 . S
C210 C209 1.362 . S
C210 C213 1.409 . S
C211 H203 0.930 . S
C211 C212 1.355 . S
C211 C213 1.415 . S
C212 C211 1.355 . S
C212 C214 1.419 . S
C213 C208 1.425 . S
C213 C210 1.409 . S
C213 C211 1.415 . S
C214 H204 0.930 . S
C214 C212 1.419 . S
C214 C215 1.362 . S
C215 H205 0.930 . S
C215 C208 1.409 . S
C215 C214 1.362 . S
H216 C222 0.930 . S
H217 C225 0.930 . S
H218 C226 0.930 . S
H219 C227 0.930 . S
H220 C230 0.930 . S
H221 C231 0.930 . S
C222 H216 0.930 . S
C222 C223 1.355 . S
C222 C224 1.415 . S
C223 C222 1.355 . S
C223 C225 1.419 . S
C224 C222 1.415 . S
C224 C229 1.425 1_556 S
C224 C231 1.409 1_556 S
C225 H217 0.930 . S
C225 C223 1.419 . S
C225 C226 1.362 . S
C226 H218 0.930 . S
C226 C225 1.362 . S
C226 C229 1.409 1_556 S
C227 H219 0.930 . S
C227 C228 1.355 . S
C227 C229 1.415 . S
C228 C227 1.355 . S
C228 C230 1.419 . S
C229 C224 1.425 1_554 S
C229 C226 1.409 1_554 S
C229 C227 1.415 . S
C230 H220 0.930 . S
C230 C228 1.419 . S
C230 C231 1.362 . S
C231 H221 0.930 . S
C231 C224 1.409 1_554 S
C231 C230 1.362 . S
H232 C238 0.930 . S
H233 C241 0.930 . S
H234 C242 0.930 . S
H235 C243 0.930 . S
H236 C246 0.930 . S
H237 C247 0.930 . S
C238 H232 0.930 . S
C238 C239 1.355 . S
C238 C240 1.415 . S
C239 C238 1.355 . S
C239 C241 1.419 . S
C240 C238 1.415 . S
C240 C245 1.425 . S
C240 C247 1.409 . S
C241 H233 0.930 . S
C241 C239 1.419 . S
C241 C242 1.362 . S
C242 H234 0.930 . S
C242 C241 1.362 . S
C242 C245 1.409 . S
C243 H235 0.930 . S
C243 C244 1.355 . S
C243 C245 1.415 . S
C244 C243 1.355 . S
C244 C246 1.419 . S
C245 C240 1.425 . S
C245 C242 1.409 . S
C245 C243 1.415 . S
C246 H236 0.930 . S
C246 C244 1.419 . S
C246 C247 1.362 . S
C247 H237 0.930 . S
C247 C240 1.409 . S
C247 C246 1.362 . S
H248 C254 0.930 . S
H249 C257 0.930 . S
H250 C258 0.930 . S
H251 C259 0.930 . S
H252 C262 0.930 1_545 S
H253 C263 0.930 . S
C254 H248 0.930 . S
C254 C255 1.355 . S
C254 C256 1.415 . S
C255 C254 1.355 . S
C255 C257 1.419 . S
C256 C254 1.415 . S
C256 C261 1.425 . S
C256 C263 1.409 . S
C257 H249 0.930 . S
C257 C255 1.419 . S
C257 C258 1.362 . S
C258 H250 0.930 . S
C258 C257 1.362 . S
C258 C261 1.409 . S
C259 H251 0.930 . S
C259 C260 1.355 . S
C259 C261 1.415 . S
C260 C259 1.355 . S
C260 C262 1.419 . S
C261 C256 1.425 . S
C261 C258 1.409 . S
C261 C259 1.415 . S
C262 H252 0.930 1_565 S
C262 C260 1.419 . S
C262 C263 1.362 . S
C263 H253 0.930 . S
C263 C256 1.409 . S
C263 C262 1.362 . S
H264 C270 0.930 . S
H265 C273 0.930 . S
H266 C274 0.930 . S
H267 C275 0.930 . S
H268 C278 0.930 . S
H269 C279 0.930 . S
C270 H264 0.930 . S
C270 C271 1.355 . S
C270 C272 1.415 . S
C271 C270 1.355 . S
C271 C273 1.419 . S
C272 C270 1.415 . S
C272 C277 1.425 . S
C272 C279 1.409 . S
C273 H265 0.930 . S
C273 C271 1.419 . S
C273 C274 1.362 . S
C274 H266 0.930 . S
C274 C273 1.362 . S
C274 C277 1.409 . S
C275 H267 0.930 . S
C275 C276 1.355 . S
C275 C277 1.415 . S
C276 C275 1.355 . S
C276 C278 1.419 . S
C277 C272 1.425 . S
C277 C274 1.409 . S
C277 C275 1.415 . S
C278 H268 0.930 . S
C278 C276 1.419 . S
C278 C279 1.362 . S
C279 H269 0.930 . S
C279 C272 1.409 . S
C279 C278 1.362 . S
H280 C286 0.930 . S
H281 C289 0.930 . S
H282 C290 0.930 . S
H283 C291 0.930 . S
H284 C294 0.924 1_565 S
H285 C295 0.930 . S
C286 H280 0.930 . S
C286 C287 1.355 . S
C286 C288 1.415 . S
C287 C286 1.355 . S
C287 C289 1.419 . S
C288 C286 1.415 . S
C288 C293 1.425 . S
C288 C295 1.409 . S
C289 H281 0.930 . S
C289 C287 1.419 . S
C289 C290 1.362 . S
C290 H282 0.930 . S
C290 C289 1.362 . S
C290 C293 1.409 . S
C291 H283 0.930 . S
C291 C292 1.355 . S
C291 C293 1.415 . S
C292 C291 1.355 . S
C292 C294 1.419 . S
C293 C288 1.425 . S
C293 C290 1.409 . S
C293 C291 1.415 . S
C294 H284 0.924 1_545 S
C294 C292 1.419 . S
C294 C295 1.362 . S
C295 H285 0.930 . S
C295 C288 1.409 . S
C295 C294 1.362 . S
H296 C302 0.930 . S
H297 C305 0.930 . S
H298 C306 0.930 . S
H299 C307 0.930 . S
H300 C310 0.930 . S
H301 C311 0.930 . S
C302 H296 0.930 . S
C302 C303 1.355 . S
C302 C304 1.415 . S
C303 C302 1.355 . S
C303 C305 1.419 . S
C304 C302 1.415 . S
C304 C309 1.425 . S
C304 C311 1.409 . S
C305 H297 0.930 . S
C305 C303 1.419 . S
C305 C306 1.362 . S
C306 H298 0.930 . S
C306 C305 1.362 . S
C306 C309 1.409 . S
C307 H299 0.930 . S
C307 C308 1.355 . S
C307 C309 1.415 . S
C308 C307 1.355 . S
C308 C310 1.419 . S
C309 C304 1.425 . S
C309 C306 1.409 . S
C309 C307 1.415 . S
C310 H300 0.930 . S
C310 C308 1.419 . S
C310 C311 1.362 . S
C311 H301 0.930 . S
C311 C304 1.409 . S
C311 C310 1.362 . S
H312 C318 0.930 . S
H313 C321 0.930 . S
H314 C322 0.930 . S
H315 C323 0.930 . S
H316 C326 0.930 . S
H317 C327 0.930 . S
C318 H312 0.930 . S
C318 C319 1.355 . S
C318 C320 1.415 . S
C319 C318 1.355 . S
C319 C321 1.419 . S
C320 C318 1.415 . S
C320 C325 1.425 . S
C320 C327 1.409 . S
C321 H313 0.930 . S
C321 C319 1.419 . S
C321 C322 1.362 . S
C322 H314 0.930 . S
C322 C321 1.362 . S
C322 C325 1.409 . S
C323 H315 0.930 . S
C323 C324 1.355 . S
C323 C325 1.415 . S
C324 C323 1.355 . S
C324 C326 1.419 . S
C325 C320 1.425 . S
C325 C322 1.409 . S
C325 C323 1.415 . S
C326 H316 0.930 . S
C326 C324 1.419 . S
C326 C327 1.362 . S
C327 H317 0.930 . S
C327 C320 1.409 . S
C327 C326 1.362 . S
H328 C334 0.930 . S
H329 C337 0.930 . S
H330 C338 0.930 . S
H331 C339 0.930 . S
H332 C342 0.930 . S
H333 C343 0.930 . S
C334 H328 0.930 . S
C334 C335 1.355 . S
C334 C336 1.415 . S
C335 C334 1.355 . S
C335 C337 1.419 . S
C336 C334 1.415 . S
C336 C341 1.425 . S
C336 C343 1.409 . S
C337 H329 0.930 . S
C337 C335 1.419 . S
C337 C338 1.362 . S
C338 H330 0.930 . S
C338 C337 1.362 . S
C338 C341 1.409 . S
C339 H331 0.930 . S
C339 C340 1.355 . S
C339 C341 1.415 . S
C340 C339 1.355 . S
C340 C342 1.419 . S
C341 C336 1.425 . S
C341 C338 1.409 . S
C341 C339 1.415 . S
C342 H332 0.930 . S
C342 C340 1.419 . S
C342 C343 1.362 . S
C343 H333 0.930 . S
C343 C336 1.409 . S
C343 C342 1.362 . S
H344 C350 0.930 . S
H345 C353 0.930 . S
H346 C354 0.930 . S
H347 C355 0.930 . S
H348 C358 0.930 . S
H349 C359 0.930 . S
C350 H344 0.930 . S
C350 C351 1.355 . S
C350 C352 1.415 . S
C351 C350 1.355 . S
C351 C353 1.419 . S
C352 C350 1.415 . S
C352 C357 1.425 . S
C352 C359 1.409 . S
C353 H345 0.930 . S
C353 C351 1.419 . S
C353 C354 1.362 . S
C354 H346 0.930 . S
C354 C353 1.362 . S
C354 C357 1.409 . S
C355 H347 0.930 . S
C355 C356 1.355 . S
C355 C357 1.415 . S
C356 C355 1.355 . S
C356 C358 1.419 . S
C357 C352 1.425 . S
C357 C354 1.409 . S
C357 C355 1.415 . S
C358 H348 0.930 . S
C358 C356 1.419 . S
C358 C359 1.362 . S
C359 H349 0.930 . S
C359 C352 1.409 . S
C359 C358 1.362 . S
C111 C5 0.919 . S
C116 C29 0.917 . S
C127 C16 0.911 . S
C132 C42 0.907 . S
C143 C55 0.917 . S
C148 C81 0.918 . S
C159 C68 0.914 . S
C164 C94 0.919 . S
C175 C10 1.509 . S
C180 C69 1.510 . S
C191 C17 1.512 . S
C196 C82 1.508 . S
C207 C95 1.511 . S
C212 C30 1.531 . S
C223 C43 1.501 . S
C228 C56 1.521 . S
C239 C57 1.720 . S
C244 C4 1.757 . S
C255 C23 1.720 . S
C260 C70 1.684 1_565 S
C271 C36 1.727 . S
C276 C83 1.695 . S
C287 C49 1.770 . S
C292 C96 1.744 1_545 S
C303 C3 1.731 1_655 S
C308 C62 1.764 . S
C319 C75 1.770 . S
C324 C18 1.740 . S
C335 C88 1.724 . S
C340 C31 1.680 1_455 S
C351 C44 1.743 . S
C356 C101 1.767 . S
