# Generated by pormake.
# Topology sxa, (6)-cn, num edge types: 1
# Building blocks:
#     Node 0, Type 0, BuildingBlock: LEVNOQ01_clean_sbu_1, # of connection points: 6
#     Node 1, Type 0, BuildingBlock: LEVNOQ01_clean_sbu_1, # of connection points: 6
#     Node 2, Type 0, BuildingBlock: LEVNOQ01_clean_sbu_1, # of connection points: 6
#     Node 3, Type 0, BuildingBlock: LEVNOQ01_clean_sbu_1, # of connection points: 6
#     Edge 4, Type (0, 0), BuildingBlock: XUDNAN_clean_linker_2, # of connection points: 2
#     Edge 5, Type (0, 0), BuildingBlock: XUDNAN_clean_linker_2, # of connection points: 2
#     Edge 6, Type (0, 0), BuildingBlock: XUDNAN_clean_linker_2, # of connection points: 2
#     Edge 7, Type (0, 0), BuildingBlock: XUDNAN_clean_linker_2, # of connection points: 2
#     Edge 8, Type (0, 0), BuildingBlock: XUDNAN_clean_linker_2, # of connection points: 2
#     Edge 9, Type (0, 0), BuildingBlock: XUDNAN_clean_linker_2, # of connection points: 2
#     Edge 10, Type (0, 0), BuildingBlock: XUDNAN_clean_linker_2, # of connection points: 2
#     Edge 11, Type (0, 0), BuildingBlock: XUDNAN_clean_linker_2, # of connection points: 2
#     Edge 12, Type (0, 0), BuildingBlock: XUDNAN_clean_linker_2, # of connection points: 2
#     Edge 13, Type (0, 0), BuildingBlock: XUDNAN_clean_linker_2, # of connection points: 2
#     Edge 14, Type (0, 0), BuildingBlock: XUDNAN_clean_linker_2, # of connection points: 2
#     Edge 15, Type (0, 0), BuildingBlock: XUDNAN_clean_linker_2, # of connection points: 2
# Relax obj value: 0.188
# Max RMSD: 0.231
# Mean RMSD: 0.231
data_MOF--net-sxa--node1-LEVNOQ01_clean_sbu_1--edge1-XUDNAN_clean_linker_2
_symmetry_space_group_name_H-M    P1
_symmetry_Int_Tables_number       1
_symmetry_cell_setting            triclinic
loop_
_symmetry_equiv_pos_as_xyz
'x, y, z'
_cell_length_a     25.741629
_cell_length_b     29.342215
_cell_length_c     15.617374
_cell_angle_alpha  90.012764
_cell_angle_beta   89.985644
_cell_angle_gamma 89.828978
loop_
_atom_site_label
_atom_site_type_symbol
_atom_site_fract_x
_atom_site_fract_y
_atom_site_fract_z
_atom_type_partial_charge
O0 O 0.00292 0.7714 0.01692 0.0
Mg1 Mg 0.0295 0.7374 0.13037 0.0
O2 O 0.04639 0.8121 0.10453 0.0
Mg3 Mg -0.00551 0.78242 0.21743 0.0
O4 O 0.97872 0.69821 0.19272 0.0
O5 O 0.03295 0.67301 0.08981 0.0
O6 O 0.93608 0.76777 0.33549 0.0
O7 O 0.92196 0.79183 0.13804 0.0
Mg8 Mg 0.93658 0.86618 0.29407 0.0
O9 O 0.00379 0.861 0.22819 0.0
O10 O 0.93522 0.83096 0.41108 0.0
O11 O 0.87749 0.84562 0.20662 0.0
O12 O 0.97602 0.92698 0.28097 0.0
C13 C 0.11146 0.76064 0.25845 0.0
C14 C 0.03302 0.80444 0.02803 0.0
C15 C -0.00479 0.66572 0.14177 0.0
C16 C 0.92032 0.79023 0.40118 0.0
C17 C 0.8807 0.81505 0.14893 0.0
C18 C 0.00893 0.90494 0.23431 0.0
O19 O 0.10628 0.74799 0.18137 0.0
O20 O 0.07068 0.7724 0.29959 0.0
O21 O 0.54702 0.21246 0.04435 0.0
Mg22 Mg 0.53101 0.20078 0.17572 0.0
O23 O 0.54919 0.27398 0.11881 0.0
Mg24 Mg 0.47567 0.2652 0.2015 0.0
O25 O 0.45712 0.18156 0.19986 0.0
O26 O 0.52523 0.13356 0.18748 0.0
O27 O 0.39938 0.26724 0.28815 0.0
O28 O 0.43153 0.25096 0.07355 0.0
Mg29 Mg 0.42466 0.32735 0.13647 0.0
O30 O 0.49216 0.34754 0.19286 0.0
O31 O 0.35508 0.31013 0.19993 0.0
O32 O 0.43342 0.31483 1.00459 0.0
O33 O 0.42813 0.39479 0.1501 0.0
C34 C 0.57329 0.24918 0.3291 0.0
C35 C 0.56626 0.25124 0.05616 0.0
C36 C 0.47583 0.14004 0.19202 0.0
C37 C 0.35656 0.28635 0.26726 0.0
C38 C 0.42707 0.27241 1.00326 0.0
C39 C 0.47502 0.38863 0.17596 0.0
O40 O 0.58513 0.22101 0.27091 0.0
O41 O 0.52903 0.26923 0.3259 0.0
O42 O 0.0687 0.28007 1.00071 0.0
Mg43 Mg 0.05172 0.30487 0.87579 0.0
O44 O 0.06326 0.22825 0.90462 0.0
Mg45 Mg 0.9874 0.25235 0.83514 0.0
O46 O 0.98131 0.33624 0.86408 0.0
O47 O 0.05753 0.37147 0.88974 0.0
O48 O 0.90811 0.2666 0.7527 0.0
O49 O 0.94358 0.24852 0.96062 0.0
Mg50 Mg 0.91523 0.16919 0.82389 0.0
O51 O -0.0076 0.17157 0.83188 0.0
O52 O 0.88261 0.19772 0.71543 0.0
O53 O 0.89 0.19001 0.94714 0.0
O54 O 0.94941 0.10704 0.80714 0.0
C55 C 0.08222 0.2705 0.70536 0.0
C56 C 0.08506 0.24282 0.97171 0.0
C57 C 0.00757 0.37261 0.88703 0.0
C58 C 0.87881 0.24039 0.70774 0.0
C59 C 0.90844 0.22288 0.99078 0.0
C60 C -0.00782 0.12706 0.82769 0.0
O61 O 0.10225 0.28786 0.77154 0.0
O62 O 0.03475 0.25809 0.70713 0.0
O63 O 0.35882 0.69433 0.76573 0.0
Mg64 Mg 0.42882 0.6691 0.70853 0.0
O65 O 0.38843 0.74486 0.86083 0.0
Mg66 Mg 0.4704 0.75316 0.8083 0.0
O67 O 0.48033 0.67464 0.80491 0.0
O68 O 0.46346 0.60787 0.74545 0.0
O69 O 0.55525 0.75068 0.73513 0.0
O70 O 0.50589 0.7418 0.94019 0.0
Mg71 Mg 0.5249 0.81656 0.80692 0.0
O72 O 0.45116 0.83433 0.84138 0.0
O73 O 0.55841 0.81965 0.68408 0.0
O74 O 0.57152 0.78371 0.89953 0.0
O75 O 0.52087 0.87978 0.85543 0.0
C76 C 0.42968 0.7445 0.60228 0.0
C77 C 0.35105 0.72327 0.82545 0.0
C78 C 0.4865 0.63071 0.8048 0.0
C79 C 0.57691 0.77975 0.68542 0.0
C80 C 0.55146 0.75619 0.95202 0.0
C81 C 0.47215 0.87255 0.86719 0.0
O82 O 0.45027 0.70536 0.59683 0.0
O83 O 0.42876 0.76463 0.67479 0.0
H84 H 0.04248 0.41331 0.02869 0.0
H85 H 0.91858 0.42291 0.84194 0.0
H86 H 0.88972 0.49596 0.90931 0.0
H87 H 0.97251 0.46615 0.21188 0.0
H88 H 0.03094 0.49376 0.24824 0.0
H89 H 0.03482 0.43955 0.19422 0.0
H90 H 0.09825 0.47405 0.0828 0.0
H91 H 0.09485 0.52797 0.13664 0.0
H92 H 0.07916 0.52437 0.02435 0.0
H93 H 0.88405 0.57451 0.98797 0.0
H94 H 0.90476 0.64791 0.0587 0.0
H95 H 0.03337 0.58409 0.1902 0.0
C96 C 0.00861 0.43029 1.00242 0.0
C97 C 0.983 0.41266 0.9295 0.0
C98 C 0.93867 0.43571 0.89786 0.0
C99 C 0.92214 0.47717 0.93597 0.0
C100 C 0.94977 0.49434 1.00649 0.0
C101 C -0.00811 0.47098 0.03947 0.0
C102 C 0.01875 0.49747 0.10975 0.0
C103 C 0.01395 0.47274 0.19613 0.0
C104 C 0.07609 0.50652 0.08695 0.0
C105 C 0.98692 0.54077 0.10939 0.0
C106 C 0.94642 0.53825 0.05109 0.0
C107 C 0.91477 0.5761 0.03518 0.0
C108 C 0.92627 0.61759 0.07675 0.0
C109 C 0.96933 0.62113 0.13289 0.0
C110 C -0.00127 0.58176 0.15111 0.0
H111 H 0.52983 0.39768 0.03247 0.0
H112 H 0.48948 0.46696 0.26719 0.0
H113 H 0.51023 0.54097 0.19998 0.0
H114 H 0.62836 0.48535 0.94191 0.0
H115 H 0.60188 0.47734 0.83616 0.0
H116 H 0.60421 0.43024 0.91029 0.0
H117 H 0.5055 0.41837 0.88982 0.0
H118 H 0.50234 0.4657 0.81752 0.0
H119 H 0.4615 0.46494 0.91127 0.0
H120 H 0.51188 0.60714 0.09767 0.0
H121 H 0.49345 0.65689 0.97382 0.0
H122 H 0.52728 0.54498 0.80188 0.0
C123 C 0.52956 0.42823 0.07151 0.0
C124 C 0.51053 0.42651 0.15636 0.0
C125 C 0.50638 0.46739 0.20367 0.0
C126 C 0.51752 0.50966 0.1653 0.0
C127 C 0.53213 0.51058 0.07905 0.0
C128 C 0.53873 0.47065 0.03289 0.0
C129 C 0.54341 0.48046 0.93768 0.0
C130 C 0.59771 0.46758 0.90458 0.0
C131 C 0.50064 0.45594 0.88618 0.0
C132 C 0.53561 0.53168 0.93683 0.0
C133 C 0.53068 0.54873 0.01898 0.0
C134 C 0.51732 0.59432 0.0333 0.0
C135 C 0.50726 0.62263 0.9623 0.0
C136 C 0.51011 0.60531 0.87778 0.0
C137 C 0.526 0.55957 0.86555 0.0
H138 H 0.49436 0.89289 0.02997 0.0
H139 H 0.39135 0.93077 0.82323 0.0
H140 H 0.36445 0.99985 0.90477 0.0
H141 H 0.41312 0.94241 0.2127 0.0
H142 H 0.47123 0.95981 0.26797 0.0
H143 H 0.47168 0.90893 0.20316 0.0
H144 H 0.5496 0.94046 0.11672 0.0
H145 H 0.5494 0.99117 0.18066 0.0
H146 H 0.544 0.99543 0.06585 0.0
H147 H 0.36258 0.07265 0.99982 0.0
H148 H 0.38884 0.13864 0.08917 0.0
H149 H 0.49366 0.05151 0.23097 0.0
C150 C 0.46425 0.91468 1.00375 0.0
C151 C 0.44401 0.90609 0.92131 0.0
C152 C 0.40621 0.9361 0.88731 0.0
C153 C 0.39097 0.97553 0.93326 0.0
C154 C 0.41346 0.98405 0.01347 0.0
C155 C 0.44879 0.95375 0.04873 0.0
C156 C 0.47271 0.97254 0.12997 0.0
C157 C 0.45619 0.94422 0.20807 0.0
C158 C 0.5324 0.97508 0.12275 0.0
C159 C 0.44814 0.01945 0.13261 0.0
C160 C 0.41291 0.02537 0.06656 0.0
C161 C 0.38932 0.06779 0.05251 0.0
C162 C 0.40414 0.1052 0.10408 0.0
C163 C 0.44321 0.10029 0.16734 0.0
C164 C 0.46296 0.05621 0.18434 0.0
H165 H 0.01544 0.89915 0.05967 0.0
H166 H 0.06943 0.97629 0.27774 0.0
H167 H 0.09451 0.03923 0.18231 0.0
H168 H 0.11626 0.95116 0.89653 0.0
H169 H 0.06898 0.95464 0.8116 0.0
H170 H 0.06767 0.90747 0.88452 0.0
H171 H 0.97409 0.92187 0.92998 0.0
H172 H 0.97063 0.96669 0.85239 0.0
H173 H 0.95432 0.97832 0.96256 0.0
H174 H 0.08434 0.10058 0.07695 0.0
H175 H 0.04838 0.15177 0.96801 0.0
H176 H 0.01109 0.03635 0.80823 0.0
C177 C 0.03663 0.9276 0.08611 0.0
C178 C 0.0422 0.9321 0.17596 0.0
C179 C 0.0662 0.9716 0.20913 0.0
C180 C 0.08047 1.00765 0.15516 0.0
C181 C 0.07141 1.00359 0.06742 0.0
C182 C 0.05169 0.96386 0.03229 0.0
C183 C 0.03799 0.97117 0.93833 0.0
C184 C 0.07502 0.94452 0.87946 0.0
C185 C 0.98088 0.95884 0.91988 0.0
C186 C 0.04758 0.02196 0.92939 0.0
C187 C 0.06822 0.03979 1.00378 0.0
C188 C 0.07139 0.08678 0.01637 0.0
C189 C 0.05179 0.11607 0.95283 0.0
C190 C 0.02991 0.09869 0.87657 0.0
C191 C 0.02998 0.05089 0.86379 0.0
H192 H 0.332 0.78129 0.62199 0.0
H193 H 0.44107 0.73333 0.43034 0.0
H194 H 0.37258 0.73889 0.32001 0.0
H195 H 0.22778 0.71745 0.54945 0.0
H196 H 0.17847 0.75959 0.57268 0.0
H197 H 0.23867 0.75961 0.63114 0.0
H198 H 0.25316 0.84341 0.59098 0.0
H199 H 0.19385 0.84358 0.52963 0.0
H200 H 0.25427 0.85935 0.47947 0.0
H201 H 0.2907 0.73889 0.23571 0.0
H202 H 0.20186 0.73706 0.17953 0.0
H203 H 0.1427 0.78543 0.42369 0.0
C204 C 0.34202 0.77399 0.55601 0.0
C205 C 0.3924 0.75797 0.53417 0.0
C206 C 0.40319 0.74649 0.44803 0.0
C207 C 0.36442 0.74942 0.38504 0.0
C208 C 0.31475 0.7637 0.40907 0.0
C209 C 0.30342 0.77629 0.49222 0.0
C210 C 0.24556 0.78605 0.50223 0.0
C211 C 0.22101 0.75362 0.56766 0.0
C212 C 0.23617 0.83609 0.52701 0.0
C213 C 0.226 0.77608 0.41247 0.0
C214 C 0.26682 0.7635 0.35989 0.0
C215 C 0.25865 0.7496 0.27588 0.0
C216 C 0.20769 0.74873 0.24452 0.0
C217 C 0.16482 0.76192 0.29631 0.0
C218 C 0.1744 0.77578 0.38181 0.0
H219 H 0.17624 0.22878 0.67578 0.0
H220 H 0.05852 0.31396 0.5578 0.0
H221 H 0.11542 0.32486 0.43178 0.0
H222 H 0.28749 0.28488 0.61105 0.0
H223 H 0.32625 0.23609 0.58163 0.0
H224 H 0.27644 0.23023 0.6613 0.0
H225 H 0.23182 0.16632 0.57719 0.0
H226 H 0.28268 0.16951 0.49798 0.0
H227 H 0.21566 0.1748 0.46605 0.0
H228 H 0.18666 0.33202 0.32609 0.0
H229 H 0.26557 0.331 0.23869 0.0
H230 H 0.33843 0.23751 0.41844 0.0
C231 C 0.16225 0.24885 0.62229 0.0
C232 C 0.11281 0.27018 0.62544 0.0
C233 C 0.09574 0.29665 0.55537 0.0
C234 C 0.12796 0.30324 0.48402 0.0
C235 C 0.17665 0.28219 0.48293 0.0
C236 C 0.19345 0.25468 0.54918 0.0
C237 C 0.24721 0.23527 0.52999 0.0
C238 C 0.28661 0.24745 0.60024 0.0
C239 C 0.24417 0.1834 0.51704 0.0
C240 C 0.25958 0.25915 0.44605 0.0
C241 C 0.21774 0.28532 0.41978 0.0
C242 C 0.21939 0.3112 0.3454 0.0
C243 C 0.26476 0.31035 0.29614 0.0
C244 C 0.30867 0.28403 0.3211 0.0
C245 C 0.30573 0.25787 0.39727 0.0
H246 H 0.83119 0.19169 0.58394 0.0
H247 H 0.82752 0.325 0.70357 0.0
H248 H 0.7472 0.34347 0.6209 0.0
H249 H 0.78174 0.22067 0.37346 0.0
H250 H 0.7479 0.1668 0.37113 0.0
H251 H 0.80651 0.17232 0.43209 0.0
H252 H 0.75221 0.14115 0.56145 0.0
H253 H 0.69356 0.14121 0.49876 0.0
H254 H 0.69626 0.17292 0.59745 0.0
H255 H 0.66083 0.34312 0.52723 0.0
H256 H 0.58686 0.3268 0.42912 0.0
H257 H 0.6513 0.19274 0.37954 0.0
C258 C 0.8143 0.22524 0.59245 0.0
C259 C 0.83617 0.25696 0.65037 0.0
C260 C 0.81211 0.30026 0.65894 0.0
C261 C 0.76613 0.31078 0.61271 0.0
C262 C 0.74472 0.27762 0.5585 0.0
C263 C 0.76875 0.23583 0.54835 0.0
C264 C 0.7382 0.20456 0.4905 0.0
C265 C 0.77053 0.19041 0.41205 0.0
C266 C 0.71893 0.1625 0.54003 0.0
C267 C 0.69348 0.23546 0.46654 0.0
C268 C 0.69693 0.27732 0.50696 0.0
C269 C 0.65827 0.31046 0.49533 0.0
C270 C 0.61606 0.30081 0.44007 0.0
C271 C 0.61301 0.25849 0.39656 0.0
C272 C 0.65226 0.22555 0.41133 0.0
H273 H 0.84468 0.84644 0.46215 0.0
H274 H 0.88378 0.70315 0.43972 0.0
H275 H 0.79966 0.68338 0.50931 0.0
H276 H 0.77942 0.8443 0.66298 0.0
H277 H 0.73041 0.88479 0.63064 0.0
H278 H 0.79396 0.88654 0.58268 0.0
H279 H 0.75283 0.87906 0.43105 0.0
H280 H 0.68934 0.87818 0.47963 0.0
H281 H 0.70923 0.83239 0.41014 0.0
H282 H 0.70935 0.68109 0.58809 0.0
H283 H 0.62386 0.69603 0.65666 0.0
H284 H 0.64445 0.84082 0.61383 0.0
C285 C 0.83634 0.81077 0.47316 0.0
C286 C 0.87195 0.77634 0.44768 0.0
C287 C 0.85786 0.73016 0.4602 0.0
C288 C 0.81 0.71871 0.49942 0.0
C289 C 0.77594 0.75378 0.52378 0.0
C290 C 0.7886 0.79888 0.50981 0.0
C291 C 0.74502 0.83056 0.53714 0.0
C292 C 0.76331 0.86347 0.60756 0.0
C293 C 0.72284 0.85663 0.45988 0.0
C294 C 0.70603 0.79659 0.5712 0.0
C295 C 0.72422 0.75237 0.56338 0.0
C296 C 0.69485 0.71563 0.59336 0.0
C297 C 0.64618 0.72441 0.63219 0.0
C298 C 0.6268 0.76955 0.63987 0.0
C299 C 0.65742 0.80581 0.6081 0.0
H300 H 0.31652 0.79146 0.93294 0.0
H301 H 0.26334 0.68982 0.75083 0.0
H302 H 0.17679 0.72465 0.75124 0.0
H303 H 0.20724 0.78518 0.0583 0.0
H304 H 0.20691 0.84458 0.088 0.0
H305 H 0.2667 0.81749 0.05812 0.0
H306 H 0.27888 0.88051 0.94239 0.0
H307 H 0.21696 0.90567 0.96951 0.0
H308 H 0.23002 0.88822 0.86096 0.0
H309 H 0.0974 0.76757 0.7686 0.0
H310 H 0.02189 0.78454 0.85854 0.0
H311 H 0.12132 0.85486 0.03901 0.0
C312 C 0.2868 0.77689 0.89231 0.0
C313 C 0.29729 0.73878 0.83981 0.0
C314 C 0.25674 0.71956 0.7905 0.0
C315 C 0.20764 0.73976 0.78865 0.0
C316 C 0.19964 0.77939 0.83564 0.0
C317 C 0.23719 0.79639 0.89013 0.0
C318 C 0.21464 0.83191 0.94978 0.0
C319 C 0.22442 0.81901 0.04412 0.0
C320 C 0.23643 0.87939 0.92941 0.0
C321 C 0.15769 0.8288 0.92535 0.0
C322 C 0.15093 0.80146 0.85399 0.0
C323 C 0.10196 0.78891 0.82461 0.0
C324 C 0.05915 0.79886 0.87607 0.0
C325 C 0.06665 0.81899 0.95728 0.0
C326 C 0.11508 0.83878 0.97749 0.0
H327 H 0.15603 0.30484 0.93458 0.0
H328 H 0.13873 0.1632 1.006 0.0
H329 H 0.23071 0.1489 0.96723 0.0
H330 H 0.23964 0.28544 0.754 0.0
H331 H 0.27986 0.33473 0.77223 0.0
H332 H 0.21209 0.33556 0.80184 0.0
H333 H 0.22993 0.35392 0.96015 0.0
H334 H 0.29674 0.36016 0.93127 0.0
H335 H 0.27893 0.32196 0.01686 0.0
H336 H 0.32558 0.15389 0.94093 0.0
H337 H 0.41419 0.18176 0.96717 0.0
H338 H 0.36791 0.31684 0.88779 0.0
C339 C 0.17186 0.27089 0.94351 0.0
C340 C 0.14088 0.23506 0.9739 0.0
C341 C 0.16214 0.19093 0.98264 0.0
C342 C 0.21392 0.18249 0.9593 0.0
C343 C 0.24268 0.21834 0.92477 0.0
C344 C 0.22237 0.26179 0.91825 0.0
C345 C 0.2618 0.29577 0.88785 0.0
C346 C 0.24759 0.31395 0.79863 0.0
C347 C 0.26722 0.33517 0.95293 0.0
C348 C 0.30938 0.26549 0.8849 0.0
C349 C 0.29722 0.22043 0.90364 0.0
C350 C 0.3355 0.18864 0.92466 0.0
C351 C 0.38589 0.20463 0.93899 0.0
C352 C 0.39605 0.25185 0.9345 0.0
C353 C 0.36027 0.2807 0.8933 0.0
H354 H 0.63826 0.18568 0.05835 0.0
H355 H 0.61721 0.33135 0.02619 0.0
H356 H 0.71109 0.34296 0.05493 0.0
H357 H 0.72294 0.19823 0.23694 0.0
H358 H 0.76209 0.14879 0.2116 0.0
H359 H 0.69421 0.15034 0.18301 0.0
H360 H 0.71263 0.13741 0.02178 0.0
H361 H 0.77937 0.12961 0.05044 0.0
H362 H 0.76197 0.17108 0.96998 0.0
H363 H 0.8069 0.33645 0.07608 0.0
H364 H 0.89557 0.31066 0.04556 0.0
H365 H 0.85096 0.17151 0.09708 0.0
C366 C 0.65362 0.21995 0.05397 0.0
C367 C 0.62117 0.25759 0.03809 0.0
C368 C 0.64221 0.30206 0.03629 0.0
C369 C 0.69487 0.30898 0.05504 0.0
C370 C 0.72472 0.27119 0.07826 0.0
C371 C 0.70486 0.22759 0.07628 0.0
C372 C 0.74433 0.19237 0.10187 0.0
C373 C 0.73008 0.17113 0.18855 0.0
C374 C 0.74996 0.15554 0.03182 0.0
C375 C 0.79167 0.22232 0.10962 0.0
C376 C 0.77915 0.26811 0.09935 0.0
C377 C 0.81717 0.30102 0.08581 0.0
C378 C 0.86786 0.28606 0.06967 0.0
C379 C 0.87834 0.23877 0.06469 0.0
C380 C 0.8427 0.20772 0.09925 0.0
H381 H 0.78398 0.85211 0.16356 0.0
H382 H 0.86811 0.73872 0.0494 0.0
H383 H 0.78515 0.69985 0.02092 0.0
H384 H 0.68561 0.78727 0.26689 0.0
H385 H 0.63414 0.82726 0.2439 0.0
H386 H 0.6999 0.84714 0.25584 0.0
H387 H 0.69958 0.88442 0.10542 0.0
H388 H 0.63259 0.86841 0.09654 0.0
H389 H 0.67818 0.85134 0.01485 0.0
H390 H 0.69394 0.67459 1.0019 0.0
H391 H 0.60287 0.6763 0.95442 0.0
H392 H 0.5784 0.8025 0.0911 0.0
C393 C 0.7851 0.81935 0.13161 0.0
C394 C 0.83248 0.79818 0.11008 0.0
C395 C 0.83217 0.75558 0.06705 0.0
C396 C 0.78535 0.73279 0.05209 0.0
C397 C 0.73957 0.75312 0.08061 0.0
C398 C 0.73904 0.79608 0.11676 0.0
C399 C 0.68459 0.81242 0.13465 0.0
C400 C 0.67554 0.81885 0.23111 0.0
C401 C 0.67305 0.8567 0.08485 0.0
C402 C 0.65418 0.77243 0.10048 0.0
C403 C 0.68666 0.73793 0.07172 0.0
C404 C 0.66796 0.70073 0.02576 0.0
C405 C 0.61583 0.70137 1.00058 0.0
C406 C 0.58425 0.73934 0.02046 0.0
C407 C 0.60189 0.77257 0.07806 0.0
loop_
_geom_bond_atom_site_label_1
_geom_bond_atom_site_label_2
_geom_bond_distance
_geom_bond_site_symmetry_2
_ccdc_geom_bond_type
O0 Mg1 1.990 . S
O0 C14 1.253 . S
Mg1 O0 1.990 . S
Mg1 O4 2.180 . S
Mg1 O5 2.117 . S
Mg1 O19 2.030 . S
O2 Mg3 2.072 . S
O2 C14 1.260 . S
Mg3 O2 2.072 . S
Mg3 O4 2.099 . S
Mg3 O6 2.079 1_455 S
Mg3 O7 2.072 1_455 S
Mg3 O9 2.099 1_455 S
Mg3 O20 2.079 . S
O4 Mg1 2.180 . S
O4 Mg3 2.099 . S
O4 C15 1.279 . S
O5 Mg1 2.117 . S
O5 C15 1.250 . S
O6 Mg3 2.079 1_655 S
O6 C16 1.264 . S
O7 Mg3 2.072 1_655 S
O7 C17 1.260 . S
Mg8 O9 2.180 . S
Mg8 O10 2.030 . S
Mg8 O11 1.990 . S
Mg8 O12 2.117 . S
O9 Mg3 2.099 1_655 S
O9 Mg8 2.180 . S
O9 C18 1.279 . S
O10 Mg8 2.030 . S
O10 C16 1.248 . S
O11 Mg8 1.990 . S
O11 C17 1.253 . S
O12 Mg8 2.117 . S
O12 C18 1.250 . S
C13 O19 1.248 . S
C13 O20 1.264 . S
C14 O0 1.253 . S
C14 O2 1.260 . S
C15 O4 1.279 . S
C15 O5 1.250 . S
C16 O6 1.264 . S
C16 O10 1.248 . S
C17 O7 1.260 . S
C17 O11 1.253 . S
C18 O9 1.279 . S
C18 O12 1.250 . S
O19 Mg1 2.030 . S
O19 C13 1.248 . S
O20 Mg3 2.079 . S
O20 C13 1.264 . S
O21 Mg22 1.990 . S
O21 C35 1.253 . S
Mg22 O21 1.990 . S
Mg22 O25 2.180 . S
Mg22 O26 2.117 . S
Mg22 O40 2.030 . S
O23 Mg24 2.072 . S
O23 C35 1.260 . S
Mg24 O23 2.072 . S
Mg24 O25 2.099 . S
Mg24 O27 2.079 . S
Mg24 O28 2.072 . S
Mg24 O30 2.099 . S
Mg24 O41 2.079 . S
O25 Mg22 2.180 . S
O25 Mg24 2.099 . S
O25 C36 1.279 . S
O26 Mg22 2.117 . S
O26 C36 1.250 . S
O27 Mg24 2.079 . S
O27 C37 1.264 . S
O28 Mg24 2.072 . S
O28 C38 1.260 . S
Mg29 O30 2.180 . S
Mg29 O31 2.030 . S
Mg29 O32 1.990 . S
Mg29 O33 2.117 . S
O30 Mg24 2.099 . S
O30 Mg29 2.180 . S
O30 C39 1.279 . S
O31 Mg29 2.030 . S
O31 C37 1.248 . S
O32 Mg29 1.990 . S
O32 C38 1.253 . S
O33 Mg29 2.117 . S
O33 C39 1.250 . S
C34 O40 1.248 . S
C34 O41 1.264 . S
C35 O21 1.253 . S
C35 O23 1.260 . S
C36 O25 1.279 . S
C36 O26 1.250 . S
C37 O27 1.264 . S
C37 O31 1.248 . S
C38 O28 1.260 . S
C38 O32 1.253 . S
C39 O30 1.279 . S
C39 O33 1.250 . S
O40 Mg22 2.030 . S
O40 C34 1.248 . S
O41 Mg24 2.079 . S
O41 C34 1.264 . S
O42 Mg43 1.990 . S
O42 C56 1.253 . S
Mg43 O42 1.990 . S
Mg43 O46 2.180 . S
Mg43 O47 2.117 . S
Mg43 O61 2.030 . S
O44 Mg45 2.072 . S
O44 C56 1.260 . S
Mg45 O44 2.072 . S
Mg45 O46 2.099 . S
Mg45 O48 2.079 1_455 S
Mg45 O49 2.072 1_455 S
Mg45 O51 2.099 1_455 S
Mg45 O62 2.079 . S
O46 Mg43 2.180 . S
O46 Mg45 2.099 . S
O46 C57 1.279 . S
O47 Mg43 2.117 . S
O47 C57 1.250 . S
O48 Mg45 2.079 1_655 S
O48 C58 1.264 . S
O49 Mg45 2.072 1_655 S
O49 C59 1.260 . S
Mg50 O51 2.180 . S
Mg50 O52 2.030 . S
Mg50 O53 1.990 . S
Mg50 O54 2.117 . S
O51 Mg45 2.099 1_655 S
O51 Mg50 2.180 . S
O51 C60 1.279 . S
O52 Mg50 2.030 . S
O52 C58 1.248 . S
O53 Mg50 1.990 . S
O53 C59 1.253 . S
O54 Mg50 2.117 . S
O54 C60 1.250 . S
C55 O61 1.248 . S
C55 O62 1.264 . S
C56 O42 1.253 . S
C56 O44 1.260 . S
C57 O46 1.279 . S
C57 O47 1.250 . S
C58 O48 1.264 . S
C58 O52 1.248 . S
C59 O49 1.260 . S
C59 O53 1.253 . S
C60 O51 1.279 . S
C60 O54 1.250 . S
O61 Mg43 2.030 . S
O61 C55 1.248 . S
O62 Mg45 2.079 . S
O62 C55 1.264 . S
O63 Mg64 1.990 . S
O63 C77 1.253 . S
Mg64 O63 1.990 . S
Mg64 O67 2.180 . S
Mg64 O68 2.117 . S
Mg64 O82 2.030 . S
O65 Mg66 2.072 . S
O65 C77 1.260 . S
Mg66 O65 2.072 . S
Mg66 O67 2.099 . S
Mg66 O69 2.079 . S
Mg66 O70 2.072 . S
Mg66 O72 2.099 . S
Mg66 O83 2.079 . S
O67 Mg64 2.180 . S
O67 Mg66 2.099 . S
O67 C78 1.279 . S
O68 Mg64 2.117 . S
O68 C78 1.250 . S
O69 Mg66 2.079 . S
O69 C79 1.264 . S
O70 Mg66 2.072 . S
O70 C80 1.260 . S
Mg71 O72 2.180 . S
Mg71 O73 2.030 . S
Mg71 O74 1.990 . S
Mg71 O75 2.117 . S
O72 Mg66 2.099 . S
O72 Mg71 2.180 . S
O72 C81 1.279 . S
O73 Mg71 2.030 . S
O73 C79 1.248 . S
O74 Mg71 1.990 . S
O74 C80 1.253 . S
O75 Mg71 2.117 . S
O75 C81 1.250 . S
C76 O82 1.248 . S
C76 O83 1.264 . S
C77 O63 1.253 . S
C77 O65 1.260 . S
C78 O67 1.279 . S
C78 O68 1.250 . S
C79 O69 1.264 . S
C79 O73 1.248 . S
C80 O70 1.260 . S
C80 O74 1.253 . S
C81 O72 1.279 . S
C81 O75 1.250 . S
O82 Mg64 2.030 . S
O82 C76 1.248 . S
O83 Mg66 2.079 . S
O83 C76 1.264 . S
H84 C96 0.930 . S
H85 C98 0.930 . S
H86 C99 0.930 . S
H87 C103 0.959 1_655 S
H88 C103 0.959 . S
H89 C103 0.961 . S
H90 C104 0.960 . S
H91 C104 0.961 . S
H92 C104 0.959 . S
H93 C107 0.929 . S
H94 C108 0.931 . S
H95 C110 0.930 . S
C96 H84 0.930 . S
C96 C97 1.399 1_455 S
C96 C101 1.399 . S
C97 C96 1.399 1_655 S
C97 C98 1.376 . S
C98 H85 0.930 . S
C98 C97 1.376 . S
C98 C99 1.388 . S
C99 H86 0.930 . S
C99 C98 1.388 . S
C99 C100 1.390 . S
C100 C99 1.390 . S
C100 C101 1.394 1_655 S
C100 C106 1.465 . S
C101 C96 1.399 . S
C101 C100 1.394 1_455 S
C101 C102 1.516 1_556 S
C102 C101 1.516 1_554 S
C102 C103 1.502 . S
C102 C104 1.561 . S
C102 C105 1.535 . S
C103 H87 0.959 1_455 S
C103 H88 0.959 . S
C103 H89 0.961 . S
C103 C102 1.502 . S
C104 H90 0.960 . S
C104 H91 0.961 . S
C104 H92 0.959 . S
C104 C102 1.561 . S
C105 C102 1.535 . S
C105 C106 1.385 1_454 S
C105 C110 1.391 . S
C106 C100 1.465 . S
C106 C105 1.385 1_656 S
C106 C107 1.399 . S
C107 H93 0.929 . S
C107 C106 1.399 . S
C107 C108 1.385 1_556 S
C108 H94 0.931 . S
C108 C107 1.385 1_554 S
C108 C109 1.389 . S
C109 C108 1.389 . S
C109 C110 1.387 1_655 S
C110 H95 0.930 . S
C110 C105 1.391 . S
C110 C109 1.387 1_455 S
H111 C123 0.925 1_556 S
H112 C125 0.930 . S
H113 C126 0.930 . S
H114 C130 0.959 . S
H115 C130 0.959 . S
H116 C130 0.961 . S
H117 C131 0.960 . S
H118 C131 0.961 . S
H119 C131 0.959 . S
H120 C134 0.929 . S
H121 C135 0.931 . S
H122 C137 0.930 . S
C123 H111 0.925 1_554 S
C123 C124 1.399 . S
C123 C128 1.399 . S
C124 C123 1.399 . S
C124 C125 1.376 . S
C125 H112 0.930 . S
C125 C124 1.376 . S
C125 C126 1.388 . S
C126 H113 0.930 . S
C126 C125 1.388 . S
C126 C127 1.390 . S
C127 C126 1.390 . S
C127 C128 1.394 . S
C127 C133 1.465 . S
C128 C123 1.399 . S
C128 C127 1.394 . S
C128 C129 1.516 1_554 S
C129 C128 1.516 1_556 S
C129 C130 1.502 . S
C129 C131 1.561 . S
C129 C132 1.526 . S
C130 H114 0.959 . S
C130 H115 0.959 . S
C130 H116 0.961 . S
C130 C129 1.502 . S
C131 H117 0.960 . S
C131 H118 0.961 . S
C131 H119 0.959 . S
C131 C129 1.561 . S
C132 C129 1.526 . S
C132 C133 1.396 1_556 S
C132 C137 1.390 . S
C133 C127 1.465 . S
C133 C132 1.396 1_554 S
C133 C134 1.399 . S
C134 H120 0.929 . S
C134 C133 1.399 . S
C134 C135 1.385 1_554 S
C135 H121 0.931 . S
C135 C134 1.385 1_556 S
C135 C136 1.389 . S
C136 C135 1.389 . S
C136 C137 1.387 . S
C137 H122 0.930 . S
C137 C132 1.390 . S
C137 C136 1.387 . S
H138 C150 0.923 1_554 S
H139 C152 0.930 . S
H140 C153 0.930 1_545 S
H141 C157 0.959 . S
H142 C157 0.959 . S
H143 C157 0.961 . S
H144 C158 0.960 . S
H145 C158 0.961 . S
H146 C158 0.959 . S
H147 C161 0.929 . S
H148 C162 0.931 . S
H149 C164 0.930 . S
C150 H138 0.923 1_556 S
C150 C151 1.399 . S
C150 C155 1.399 . S
C151 C150 1.399 . S
C151 C152 1.376 . S
C152 H139 0.930 . S
C152 C151 1.376 . S
C152 C153 1.388 . S
C153 H140 0.930 1_565 S
C153 C152 1.388 . S
C153 C154 1.390 . S
C154 C153 1.390 . S
C154 C155 1.394 . S
C154 C160 1.465 1_565 S
C155 C150 1.399 . S
C155 C154 1.394 . S
C155 C156 1.516 1_556 S
C156 C155 1.516 1_554 S
C156 C157 1.502 . S
C156 C158 1.561 . S
C156 C159 1.526 1_565 S
C157 H141 0.959 . S
C157 H142 0.959 . S
C157 H143 0.961 . S
C157 C156 1.502 . S
C158 H144 0.960 . S
C158 H145 0.961 . S
C158 H146 0.959 . S
C158 C156 1.561 . S
C159 C156 1.526 1_545 S
C159 C160 1.396 1_554 S
C159 C164 1.390 . S
C160 C154 1.465 1_545 S
C160 C159 1.396 1_556 S
C160 C161 1.399 . S
C161 H147 0.929 . S
C161 C160 1.399 . S
C161 C162 1.385 1_556 S
C162 H148 0.931 . S
C162 C161 1.385 1_554 S
C162 C163 1.389 . S
C163 C162 1.389 . S
C163 C164 1.387 . S
C164 H149 0.930 . S
C164 C159 1.390 . S
C164 C163 1.387 . S
H165 C177 0.930 1_556 S
H166 C179 0.930 . S
H167 C180 0.930 1_545 S
H168 C184 0.959 . S
H169 C184 0.959 . S
H170 C184 0.961 . S
H171 C185 0.960 . S
H172 C185 0.961 . S
H173 C185 0.959 . S
H174 C188 0.929 . S
H175 C189 0.931 . S
H176 C191 0.930 . S
C177 H165 0.930 1_554 S
C177 C178 1.399 . S
C177 C182 1.399 . S
C178 C177 1.399 . S
C178 C179 1.376 . S
C179 H166 0.930 . S
C179 C178 1.376 . S
C179 C180 1.388 . S
C180 H167 0.930 1_565 S
C180 C179 1.388 . S
C180 C181 1.390 . S
C181 C180 1.390 . S
C181 C182 1.394 . S
C181 C187 1.465 1_565 S
C182 C177 1.399 . S
C182 C181 1.394 . S
C182 C183 1.516 1_554 S
C183 C182 1.516 1_556 S
C183 C184 1.502 . S
C183 C185 1.561 1_455 S
C183 C186 1.526 1_565 S
C184 H168 0.959 . S
C184 H169 0.959 . S
C184 H170 0.961 . S
C184 C183 1.502 . S
C185 H171 0.960 . S
C185 H172 0.961 . S
C185 H173 0.959 . S
C185 C183 1.561 1_655 S
C186 C183 1.526 1_545 S
C186 C187 1.396 1_556 S
C186 C191 1.390 . S
C187 C181 1.465 1_545 S
C187 C186 1.396 1_554 S
C187 C188 1.399 . S
C188 H174 0.929 . S
C188 C187 1.399 . S
C188 C189 1.385 1_554 S
C189 H175 0.931 . S
C189 C188 1.385 1_556 S
C189 C190 1.389 . S
C190 C189 1.389 . S
C190 C191 1.387 . S
C191 H176 0.930 . S
C191 C186 1.390 . S
C191 C190 1.387 . S
H192 C204 0.930 . S
H193 C206 0.930 . S
H194 C207 0.930 . S
H195 C211 0.959 . S
H196 C211 0.959 . S
H197 C211 0.961 . S
H198 C212 0.960 . S
H199 C212 0.961 . S
H200 C212 0.959 . S
H201 C215 0.929 . S
H202 C216 0.931 . S
H203 C218 0.930 . S
C204 H192 0.930 . S
C204 C205 1.399 . S
C204 C209 1.399 . S
C205 C204 1.399 . S
C205 C206 1.376 . S
C206 H193 0.930 . S
C206 C205 1.376 . S
C206 C207 1.388 . S
C207 H194 0.930 . S
C207 C206 1.388 . S
C207 C208 1.390 . S
C208 C207 1.390 . S
C208 C209 1.394 . S
C208 C214 1.465 . S
C209 C204 1.399 . S
C209 C208 1.394 . S
C209 C210 1.516 . S
C210 C209 1.516 . S
C210 C211 1.502 . S
C210 C212 1.561 . S
C210 C213 1.526 . S
C211 H195 0.959 . S
C211 H196 0.959 . S
C211 H197 0.961 . S
C211 C210 1.502 . S
C212 H198 0.960 . S
C212 H199 0.961 . S
C212 H200 0.959 . S
C212 C210 1.561 . S
C213 C210 1.526 . S
C213 C214 1.396 . S
C213 C218 1.390 . S
C214 C208 1.465 . S
C214 C213 1.396 . S
C214 C215 1.399 . S
C215 H201 0.929 . S
C215 C214 1.399 . S
C215 C216 1.385 . S
C216 H202 0.931 . S
C216 C215 1.385 . S
C216 C217 1.389 . S
C217 C216 1.389 . S
C217 C218 1.387 . S
C218 H203 0.930 . S
C218 C213 1.390 . S
C218 C217 1.387 . S
H219 C231 0.930 . S
H220 C233 0.930 . S
H221 C234 0.930 . S
H222 C238 0.959 . S
H223 C238 0.959 . S
H224 C238 0.961 . S
H225 C239 0.960 . S
H226 C239 0.961 . S
H227 C239 0.959 . S
H228 C242 0.929 . S
H229 C243 0.931 . S
H230 C245 0.930 . S
C231 H219 0.930 . S
C231 C232 1.399 . S
C231 C236 1.399 . S
C232 C231 1.399 . S
C232 C233 1.376 . S
C233 H220 0.930 . S
C233 C232 1.376 . S
C233 C234 1.388 . S
C234 H221 0.930 . S
C234 C233 1.388 . S
C234 C235 1.390 . S
C235 C234 1.390 . S
C235 C236 1.394 . S
C235 C241 1.465 . S
C236 C231 1.399 . S
C236 C235 1.394 . S
C236 C237 1.516 . S
C237 C236 1.516 . S
C237 C238 1.502 . S
C237 C239 1.561 . S
C237 C240 1.526 . S
C238 H222 0.959 . S
C238 H223 0.959 . S
C238 H224 0.961 . S
C238 C237 1.502 . S
C239 H225 0.960 . S
C239 H226 0.961 . S
C239 H227 0.959 . S
C239 C237 1.561 . S
C240 C237 1.526 . S
C240 C241 1.396 . S
C240 C245 1.390 . S
C241 C235 1.465 . S
C241 C240 1.396 . S
C241 C242 1.399 . S
C242 H228 0.929 . S
C242 C241 1.399 . S
C242 C243 1.385 . S
C243 H229 0.931 . S
C243 C242 1.385 . S
C243 C244 1.389 . S
C244 C243 1.389 . S
C244 C245 1.387 . S
C245 H230 0.930 . S
C245 C240 1.390 . S
C245 C244 1.387 . S
H246 C258 0.930 . S
H247 C260 0.930 . S
H248 C261 0.930 . S
H249 C265 0.959 . S
H250 C265 0.959 . S
H251 C265 0.961 . S
H252 C266 0.960 . S
H253 C266 0.961 . S
H254 C266 0.959 . S
H255 C269 0.929 . S
H256 C270 0.931 . S
H257 C272 0.930 . S
C258 H246 0.930 . S
C258 C259 1.399 . S
C258 C263 1.399 . S
C259 C258 1.399 . S
C259 C260 1.376 . S
C260 H247 0.930 . S
C260 C259 1.376 . S
C260 C261 1.388 . S
C261 H248 0.930 . S
C261 C260 1.388 . S
C261 C262 1.390 . S
C262 C261 1.390 . S
C262 C263 1.394 . S
C262 C268 1.465 . S
C263 C258 1.399 . S
C263 C262 1.394 . S
C263 C264 1.516 . S
C264 C263 1.516 . S
C264 C265 1.502 . S
C264 C266 1.561 . S
C264 C267 1.526 . S
C265 H249 0.959 . S
C265 H250 0.959 . S
C265 H251 0.961 . S
C265 C264 1.502 . S
C266 H252 0.960 . S
C266 H253 0.961 . S
C266 H254 0.959 . S
C266 C264 1.561 . S
C267 C264 1.526 . S
C267 C268 1.396 . S
C267 C272 1.390 . S
C268 C262 1.465 . S
C268 C267 1.396 . S
C268 C269 1.399 . S
C269 H255 0.929 . S
C269 C268 1.399 . S
C269 C270 1.385 . S
C270 H256 0.931 . S
C270 C269 1.385 . S
C270 C271 1.389 . S
C271 C270 1.389 . S
C271 C272 1.387 . S
C272 H257 0.930 . S
C272 C267 1.390 . S
C272 C271 1.387 . S
H273 C285 0.930 . S
H274 C287 0.930 . S
H275 C288 0.930 . S
H276 C292 0.959 . S
H277 C292 0.959 . S
H278 C292 0.961 . S
H279 C293 0.960 . S
H280 C293 0.961 . S
H281 C293 0.959 . S
H282 C296 0.929 . S
H283 C297 0.931 . S
H284 C299 0.930 . S
C285 H273 0.930 . S
C285 C286 1.399 . S
C285 C290 1.399 . S
C286 C285 1.399 . S
C286 C287 1.376 . S
C287 H274 0.930 . S
C287 C286 1.376 . S
C287 C288 1.388 . S
C288 H275 0.930 . S
C288 C287 1.388 . S
C288 C289 1.390 . S
C289 C288 1.390 . S
C289 C290 1.394 . S
C289 C295 1.465 . S
C290 C285 1.399 . S
C290 C289 1.394 . S
C290 C291 1.516 . S
C291 C290 1.516 . S
C291 C292 1.502 . S
C291 C293 1.561 . S
C291 C294 1.526 . S
C292 H276 0.959 . S
C292 H277 0.959 . S
C292 H278 0.961 . S
C292 C291 1.502 . S
C293 H279 0.960 . S
C293 H280 0.961 . S
C293 H281 0.959 . S
C293 C291 1.561 . S
C294 C291 1.526 . S
C294 C295 1.396 . S
C294 C299 1.390 . S
C295 C289 1.465 . S
C295 C294 1.396 . S
C295 C296 1.399 . S
C296 H282 0.929 . S
C296 C295 1.399 . S
C296 C297 1.385 . S
C297 H283 0.931 . S
C297 C296 1.385 . S
C297 C298 1.389 . S
C298 C297 1.389 . S
C298 C299 1.387 . S
C299 H284 0.930 . S
C299 C294 1.390 . S
C299 C298 1.387 . S
H300 C312 0.930 . S
H301 C314 0.930 . S
H302 C315 0.930 . S
H303 C319 0.959 . S
H304 C319 0.959 . S
H305 C319 0.961 . S
H306 C320 0.960 . S
H307 C320 0.961 . S
H308 C320 0.959 . S
H309 C323 0.929 . S
H310 C324 0.931 . S
H311 C326 0.930 . S
C312 H300 0.930 . S
C312 C313 1.399 . S
C312 C317 1.399 . S
C313 C312 1.399 . S
C313 C314 1.376 . S
C314 H301 0.930 . S
C314 C313 1.376 . S
C314 C315 1.388 . S
C315 H302 0.930 . S
C315 C314 1.388 . S
C315 C316 1.390 . S
C316 C315 1.390 . S
C316 C317 1.394 . S
C316 C322 1.465 . S
C317 C312 1.399 . S
C317 C316 1.394 . S
C317 C318 1.516 1_556 S
C318 C317 1.516 1_554 S
C318 C319 1.502 . S
C318 C320 1.561 1_554 S
C318 C321 1.526 . S
C319 H303 0.959 . S
C319 H304 0.959 . S
C319 H305 0.961 . S
C319 C318 1.502 . S
C320 H306 0.960 . S
C320 H307 0.961 . S
C320 H308 0.959 . S
C320 C318 1.561 1_556 S
C321 C318 1.526 . S
C321 C322 1.396 1_554 S
C321 C326 1.390 . S
C322 C316 1.465 . S
C322 C321 1.396 1_556 S
C322 C323 1.399 . S
C323 H309 0.929 . S
C323 C322 1.399 . S
C323 C324 1.385 1_556 S
C324 H310 0.931 . S
C324 C323 1.385 1_554 S
C324 C325 1.389 . S
C325 C324 1.389 . S
C325 C326 1.387 . S
C326 H311 0.930 . S
C326 C321 1.390 . S
C326 C325 1.387 . S
H327 C339 0.930 . S
H328 C341 0.929 1_554 S
H329 C342 0.930 . S
H330 C346 0.959 . S
H331 C346 0.959 . S
H332 C346 0.961 . S
H333 C347 0.960 . S
H334 C347 0.961 . S
H335 C347 0.959 . S
H336 C350 0.929 . S
H337 C351 0.931 . S
H338 C353 0.930 . S
C339 H327 0.930 . S
C339 C340 1.399 . S
C339 C344 1.399 . S
C340 C339 1.399 . S
C340 C341 1.379 . S
C341 H328 0.929 1_556 S
C341 C340 1.379 . S
C341 C342 1.386 1_556 S
C342 H329 0.930 . S
C342 C341 1.386 1_554 S
C342 C343 1.390 . S
C343 C342 1.390 . S
C343 C344 1.394 1_554 S
C343 C349 1.465 . S
C344 C339 1.399 . S
C344 C343 1.394 1_556 S
C344 C345 1.516 . S
C345 C344 1.516 . S
C345 C346 1.502 . S
C345 C347 1.561 1_556 S
C345 C348 1.526 1_556 S
C346 H330 0.959 . S
C346 H331 0.959 . S
C346 H332 0.961 . S
C346 C345 1.502 . S
C347 H333 0.960 . S
C347 H334 0.961 . S
C347 H335 0.959 . S
C347 C345 1.561 1_554 S
C348 C345 1.526 1_554 S
C348 C349 1.396 . S
C348 C353 1.390 . S
C349 C343 1.465 . S
C349 C348 1.396 . S
C349 C350 1.399 . S
C350 H336 0.929 . S
C350 C349 1.399 . S
C350 C351 1.385 . S
C351 H337 0.931 . S
C351 C350 1.385 . S
C351 C352 1.389 . S
C352 C351 1.389 . S
C352 C353 1.387 . S
C353 H338 0.930 . S
C353 C348 1.390 . S
C353 C352 1.387 . S
H354 C366 0.930 . S
H355 C368 0.930 1_556 S
H356 C369 0.930 . S
H357 C373 0.959 . S
H358 C373 0.959 . S
H359 C373 0.961 . S
H360 C374 0.960 . S
H361 C374 0.961 . S
H362 C374 0.959 . S
H363 C377 0.929 . S
H364 C378 0.931 . S
H365 C380 0.930 . S
C366 H354 0.930 . S
C366 C367 1.399 . S
C366 C371 1.399 . S
C367 C366 1.399 . S
C367 C368 1.378 . S
C368 H355 0.930 1_554 S
C368 C367 1.378 . S
C368 C369 1.387 1_554 S
C369 H356 0.930 . S
C369 C368 1.387 1_556 S
C369 C370 1.390 . S
C370 C369 1.390 . S
C370 C371 1.394 1_556 S
C370 C376 1.465 . S
C371 C366 1.399 . S
C371 C370 1.394 1_554 S
C371 C372 1.516 . S
C372 C371 1.516 . S
C372 C373 1.502 . S
C372 C374 1.561 1_554 S
C372 C375 1.526 1_554 S
C373 H357 0.959 . S
C373 H358 0.959 . S
C373 H359 0.961 . S
C373 C372 1.502 . S
C374 H360 0.960 . S
C374 H361 0.961 . S
C374 H362 0.959 . S
C374 C372 1.561 1_556 S
C375 C372 1.526 1_556 S
C375 C376 1.396 . S
C375 C380 1.390 . S
C376 C370 1.465 . S
C376 C375 1.396 . S
C376 C377 1.399 . S
C377 H363 0.929 . S
C377 C376 1.399 . S
C377 C378 1.385 . S
C378 H364 0.931 . S
C378 C377 1.385 . S
C378 C379 1.389 . S
C379 C378 1.389 . S
C379 C380 1.387 . S
C380 H365 0.930 . S
C380 C375 1.390 . S
C380 C379 1.387 . S
H381 C393 0.930 . S
H382 C395 0.930 . S
H383 C396 0.930 . S
H384 C400 0.959 . S
H385 C400 0.959 . S
H386 C400 0.961 . S
H387 C401 0.960 . S
H388 C401 0.961 . S
H389 C401 0.959 . S
H390 C404 0.929 . S
H391 C405 0.931 . S
H392 C407 0.930 1_554 S
C393 H381 0.930 . S
C393 C394 1.399 . S
C393 C398 1.399 . S
C394 C393 1.399 . S
C394 C395 1.376 1_554 S
C395 H382 0.930 . S
C395 C394 1.376 1_556 S
C395 C396 1.388 . S
C396 H383 0.930 . S
C396 C395 1.388 . S
C396 C397 1.390 . S
C397 C396 1.390 . S
C397 C398 1.394 1_556 S
C397 C403 1.465 . S
C398 C393 1.399 . S
C398 C397 1.394 1_554 S
C398 C399 1.516 . S
C399 C398 1.516 . S
C399 C400 1.502 . S
C399 C401 1.561 1_554 S
C399 C402 1.526 1_554 S
C400 H384 0.959 . S
C400 H385 0.959 . S
C400 H386 0.961 . S
C400 C399 1.502 . S
C401 H387 0.960 . S
C401 H388 0.961 . S
C401 H389 0.959 . S
C401 C399 1.561 1_556 S
C402 C399 1.526 1_556 S
C402 C403 1.396 . S
C402 C407 1.390 . S
C403 C397 1.465 . S
C403 C402 1.396 . S
C403 C404 1.399 . S
C404 H390 0.929 . S
C404 C403 1.399 . S
C404 C405 1.385 . S
C405 H391 0.931 . S
C405 C404 1.385 . S
C405 C406 1.389 . S
C406 C405 1.389 . S
C406 C407 1.387 . S
C407 H392 0.930 1_556 S
C407 C402 1.390 . S
C407 C406 1.387 . S
C97 C57 1.754 1_655 S
C109 C15 1.745 1_655 S
C124 C39 1.712 . S
C136 C78 1.704 . S
C151 C81 1.724 . S
C163 C36 1.715 . S
C178 C18 1.721 1_455 S
C190 C60 1.713 1_455 S
C205 C76 1.472 . S
C217 C13 1.430 . S
C232 C55 1.453 . S
C244 C37 1.433 . S
C259 C58 1.486 . S
C271 C34 1.508 . S
C286 C16 1.484 . S
C298 C79 1.509 . S
C313 C77 0.699 . S
C325 C14 0.764 . S
C340 C56 0.905 . S
C352 C38 0.849 . S
C367 C35 0.905 . S
C379 C59 0.849 . S
C394 C17 0.905 . S
C406 C80 0.835 . S
