# Generated by pormake.
# Topology ske, (6)-cn, num edge types: 1
# Building blocks:
#     Node 0, Type 0, BuildingBlock: VOLQOD_clean_sbu_1, # of connection points: 6
#     Node 1, Type 0, BuildingBlock: VOLQOD_clean_sbu_1, # of connection points: 6
#     Node 2, Type 0, BuildingBlock: VOLQOD_clean_sbu_1, # of connection points: 6
#     Node 3, Type 0, BuildingBlock: VOLQOD_clean_sbu_1, # of connection points: 6
#     Node 4, Type 0, BuildingBlock: VOLQOD_clean_sbu_1, # of connection points: 6
#     Node 5, Type 0, BuildingBlock: VOLQOD_clean_sbu_1, # of connection points: 6
#     Node 6, Type 0, BuildingBlock: VOLQOD_clean_sbu_1, # of connection points: 6
#     Node 7, Type 0, BuildingBlock: VOLQOD_clean_sbu_1, # of connection points: 6
#     Edge 8, Type (0, 0), BuildingBlock: XUDNAN_clean_linker_2, # of connection points: 2
#     Edge 9, Type (0, 0), BuildingBlock: XUDNAN_clean_linker_2, # of connection points: 2
#     Edge 10, Type (0, 0), BuildingBlock: XUDNAN_clean_linker_2, # of connection points: 2
#     Edge 11, Type (0, 0), BuildingBlock: XUDNAN_clean_linker_2, # of connection points: 2
#     Edge 12, Type (0, 0), BuildingBlock: XUDNAN_clean_linker_2, # of connection points: 2
#     Edge 13, Type (0, 0), BuildingBlock: XUDNAN_clean_linker_2, # of connection points: 2
#     Edge 14, Type (0, 0), BuildingBlock: XUDNAN_clean_linker_2, # of connection points: 2
#     Edge 15, Type (0, 0), BuildingBlock: XUDNAN_clean_linker_2, # of connection points: 2
#     Edge 16, Type (0, 0), BuildingBlock: XUDNAN_clean_linker_2, # of connection points: 2
#     Edge 17, Type (0, 0), BuildingBlock: XUDNAN_clean_linker_2, # of connection points: 2
#     Edge 18, Type (0, 0), BuildingBlock: XUDNAN_clean_linker_2, # of connection points: 2
#     Edge 19, Type (0, 0), BuildingBlock: XUDNAN_clean_linker_2, # of connection points: 2
#     Edge 20, Type (0, 0), BuildingBlock: XUDNAN_clean_linker_2, # of connection points: 2
#     Edge 21, Type (0, 0), BuildingBlock: XUDNAN_clean_linker_2, # of connection points: 2
#     Edge 22, Type (0, 0), BuildingBlock: XUDNAN_clean_linker_2, # of connection points: 2
#     Edge 23, Type (0, 0), BuildingBlock: XUDNAN_clean_linker_2, # of connection points: 2
#     Edge 24, Type (0, 0), BuildingBlock: XUDNAN_clean_linker_2, # of connection points: 2
#     Edge 25, Type (0, 0), BuildingBlock: XUDNAN_clean_linker_2, # of connection points: 2
#     Edge 26, Type (0, 0), BuildingBlock: XUDNAN_clean_linker_2, # of connection points: 2
#     Edge 27, Type (0, 0), BuildingBlock: XUDNAN_clean_linker_2, # of connection points: 2
#     Edge 28, Type (0, 0), BuildingBlock: XUDNAN_clean_linker_2, # of connection points: 2
#     Edge 29, Type (0, 0), BuildingBlock: XUDNAN_clean_linker_2, # of connection points: 2
#     Edge 30, Type (0, 0), BuildingBlock: XUDNAN_clean_linker_2, # of connection points: 2
#     Edge 31, Type (0, 0), BuildingBlock: XUDNAN_clean_linker_2, # of connection points: 2
# Relax obj value: 0.030
# Max RMSD: 0.058
# Mean RMSD: 0.058
data_MOF--net-ske--node1-VOLQOD_clean_sbu_1--edge1-XUDNAN_clean_linker_2
_symmetry_space_group_name_H-M    P1
_symmetry_Int_Tables_number       1
_symmetry_cell_setting            triclinic
loop_
_symmetry_equiv_pos_as_xyz
'x, y, z'
_cell_length_a     65.786791
_cell_length_b     33.22891
_cell_length_c     16.963882
_cell_angle_alpha  90.109233
_cell_angle_beta   90.145121
_cell_angle_gamma 89.968219
loop_
_atom_site_label
_atom_site_type_symbol
_atom_site_fract_x
_atom_site_fract_y
_atom_site_fract_z
_atom_type_partial_charge
O0 O 0.11973 0.284 0.76258 0.0
Zn1 Zn 0.11296 0.30091 0.65207 0.0
O2 O 0.12484 0.26323 0.57818 0.0
Zn3 Zn 0.14758 0.2885 0.52663 0.0
Zn4 Zn 0.13484 0.2154 0.6313 0.0
Zn5 Zn 0.10479 0.24862 0.49932 0.0
O6 O 0.14682 0.27445 0.41163 0.0
O7 O 0.11352 0.26728 0.39191 0.0
O8 O 0.12306 0.35777 0.63179 0.0
O9 O 0.14538 0.34872 0.53487 0.0
O10 O 0.17434 0.27022 0.5745 0.0
O11 O 0.16519 0.21077 0.62244 0.0
O12 O 0.12244 0.16438 0.58752 0.0
O13 O 0.08246 0.30011 0.64162 0.0
O14 O 0.1033 0.18823 0.49018 0.0
O15 O 0.07665 0.26841 0.52833 0.0
C16 C 0.12585 0.2507 0.79126 0.0
C17 C 0.13157 0.2709 0.36569 0.0
C18 C 0.17882 0.23653 0.60587 0.0
C19 C 0.13543 0.37169 0.58089 0.0
C20 C 0.11065 0.15875 0.52881 0.0
C21 C 0.07022 0.28709 0.58911 0.0
O22 O 0.13066 0.22091 0.74773 0.0
O23 O 0.87373 0.23743 0.76977 0.0
Zn24 Zn 0.8832 0.22433 0.66038 0.0
O25 O 0.8659 0.25069 0.58414 0.0
Zn26 Zn 0.85013 0.21113 0.52821 0.0
Zn27 Zn 0.84661 0.28626 0.63489 0.0
Zn28 Zn 0.88264 0.27975 0.50947 0.0
O29 O 0.84811 0.22672 0.41444 0.0
O30 O 0.87709 0.26045 0.39894 0.0
O31 O 0.88353 0.16397 0.64146 0.0
O32 O 0.86386 0.15772 0.53519 0.0
O33 O 0.8221 0.20484 0.5754 0.0
O34 O 0.81819 0.26464 0.63128 0.0
O35 O 0.84705 0.3412 0.58606 0.0
O36 O 0.91191 0.24463 0.6511 0.0
O37 O 0.87432 0.33812 0.50872 0.0
O38 O 0.91266 0.27681 0.53633 0.0
C39 C 0.86215 0.26503 0.79637 0.0
C40 C 0.86129 0.24354 0.3706 0.0
C41 C 0.81117 0.23038 0.61197 0.0
C42 C 0.87596 0.14275 0.5859 0.0
C43 C 0.85948 0.35753 0.53843 0.0
C44 C 0.92158 0.26351 0.59778 0.0
O45 O 0.85219 0.28836 0.75097 0.0
O46 O 0.12567 0.71981 0.23038 0.0
Zn47 Zn 0.11966 0.71746 0.34649 0.0
O48 O 0.13164 0.76353 0.39953 0.0
Zn49 Zn 0.15579 0.74474 0.45402 0.0
Zn50 Zn 0.1383 0.80397 0.32183 0.0
Zn51 Zn 0.11277 0.78772 0.47325 0.0
O52 O 0.15444 0.75971 0.56844 0.0
O53 O 0.1217 0.77529 0.58387 0.0
O54 O 0.12963 0.66458 0.3909 0.0
O55 O 0.1563 0.6843 0.4611 0.0
O56 O 0.18127 0.76524 0.40032 0.0
O57 O 0.16856 0.81113 0.31824 0.0
O58 O 0.12568 0.85797 0.34502 0.0
O59 O 0.08949 0.71898 0.36155 0.0
O60 O 0.11185 0.84819 0.4627 0.0
O61 O 0.08441 0.76677 0.4517 0.0
C62 C 0.12815 0.75013 0.18558 0.0
C63 C 0.13917 0.76705 0.6123 0.0
C64 C 0.18363 0.79289 0.34902 0.0
C65 C 0.14462 0.65662 0.4358 0.0
C66 C 0.11663 0.8713 0.40597 0.0
C67 C 0.07767 0.73969 0.40509 0.0
O68 O 0.13068 0.78546 0.21305 0.0
O69 O 0.88791 0.78642 0.23852 0.0
Zn70 Zn 0.8914 0.78854 0.35676 0.0
O71 O 0.87278 0.75028 0.40584 0.0
Zn72 Zn 0.85514 0.77575 0.48297 0.0
Zn73 Zn 0.85585 0.72384 0.32843 0.0
Zn74 Zn 0.88902 0.7105 0.45872 0.0
O75 O 0.85981 0.75368 0.59224 0.0
O76 O 0.88914 0.72168 0.57439 0.0
O77 O 0.88713 0.84457 0.40139 0.0
O78 O 0.86356 0.83339 0.49299 0.0
O79 O 0.82525 0.7734 0.45104 0.0
O80 O 0.82735 0.74381 0.33386 0.0
O81 O 0.85464 0.66378 0.34748 0.0
O82 O 0.92092 0.77296 0.37509 0.0
O83 O 0.87815 0.65541 0.44037 0.0
O84 O 0.91777 0.71121 0.42314 0.0
C85 C 0.87797 0.76274 0.19345 0.0
C86 C 0.87572 0.73675 0.61953 0.0
C87 C 0.81702 0.76138 0.38699 0.0
C88 C 0.87595 0.85668 0.45799 0.0
C89 C 0.86458 0.6413 0.39456 0.0
C90 C 0.92867 0.7395 0.39607 0.0
O91 O 0.8659 0.73618 0.22034 0.0
O92 O 0.60766 0.75135 0.29926 0.0
Zn93 Zn 0.60311 0.7507 0.18136 0.0
O94 O 0.62473 0.72045 0.13052 0.0
Zn95 Zn 0.64437 0.75718 0.08209 0.0
Zn96 Zn 0.63758 0.68753 0.21081 0.0
Zn97 Zn 0.61334 0.68572 0.05054 0.0
O98 O 0.64616 0.74826 0.96358 0.0
O99 O 0.62171 0.70323 0.94303 0.0
O100 O 0.60324 0.80793 0.14315 0.0
O101 O 0.63389 0.81383 0.08969 0.0
O102 O 0.67185 0.75479 0.138 0.0
O103 O 0.66568 0.70826 0.22914 0.0
O104 O 0.63895 0.62884 0.17898 0.0
O105 O 0.57544 0.72763 0.15429 0.0
O106 O 0.62286 0.62909 0.06377 0.0
O107 O 0.58291 0.68648 0.05509 0.0
C108 C 0.61541 0.72501 0.34486 0.0
C109 C 0.63519 0.72718 0.91711 0.0
C110 C 0.67734 0.73425 0.19792 0.0
C111 C 0.61697 0.82908 0.11053 0.0
C112 C 0.63265 0.61063 0.11735 0.0
C113 C 0.56995 0.70347 0.09976 0.0
O114 O 0.62464 0.69431 0.31761 0.0
O115 O 0.37482 0.73204 0.23225 0.0
Zn116 Zn 0.3813 0.71775 0.11923 0.0
O117 O 0.36861 0.75689 0.04953 0.0
Zn118 Zn 0.34436 0.73449 0.0019 0.0
Zn119 Zn 0.36062 0.80486 0.107 0.0
Zn120 Zn 0.38767 0.77024 0.96768 0.0
O121 O 0.34395 0.74547 0.88458 0.0
O122 O 0.37695 0.75431 0.86182 0.0
O123 O 0.37086 0.66171 0.09271 0.0
O124 O 0.34436 0.6748 0.01504 0.0
O125 O 0.31911 0.75616 0.05351 0.0
O126 O 0.33038 0.81397 0.10259 0.0
O127 O 0.37454 0.85471 0.06587 0.0
O128 O 0.41179 0.71657 0.10469 0.0
O129 O 0.39162 0.83028 0.96355 0.0
O130 O 0.41483 0.74415 0.98589 0.0
C131 C 0.36911 0.76508 0.26359 0.0
C132 C 0.35885 0.74905 0.8372 0.0
C133 C 0.31591 0.78977 0.08738 0.0
C134 C 0.35581 0.64999 0.05102 0.0
C135 C 0.38588 0.85987 0.00591 0.0
C136 C 0.42246 0.72596 0.04495 0.0
O137 O 0.365 0.7961 0.22247 0.0
O138 O 0.61689 0.18915 0.75707 0.0
Zn139 Zn 0.60689 0.18933 0.86766 0.0
O140 O 0.62565 0.21952 0.9298 0.0
Zn141 Zn 0.64464 0.18248 0.97772 0.0
Zn142 Zn 0.63935 0.2575 0.86091 0.0
Zn143 Zn 0.61041 0.24726 0.00927 0.0
O144 O 0.64578 0.19213 0.09527 0.0
O145 O 0.61675 0.22522 0.11587 0.0
O146 O 0.60468 0.13231 0.90673 0.0
O147 O 0.63441 0.12588 0.96771 0.0
O148 O 0.67224 0.18649 0.9258 0.0
O149 O 0.66886 0.24207 0.85399 0.0
O150 O 0.63789 0.31479 0.90428 0.0
O151 O 0.57945 0.21545 0.87055 0.0
O152 O 0.62044 0.3035 0.01436 0.0
O153 O 0.58015 0.24856 0.9847 0.0
C154 C 0.62405 0.21786 0.71609 0.0
C155 C 0.63245 0.20695 0.14155 0.0
C156 C 0.67955 0.21273 0.87897 0.0
C157 C 0.61778 0.11091 0.94284 0.0
C158 C 0.63059 0.32674 0.96994 0.0
C159 C 0.57071 0.23649 0.92331 0.0
O160 O 0.62972 0.25098 0.7475 0.0
O161 O 0.37615 0.29868 0.71952 0.0
Zn162 Zn 0.38222 0.29979 0.83603 0.0
O163 O 0.36827 0.25569 0.88714 0.0
Zn164 Zn 0.34406 0.27749 0.93682 0.0
Zn165 Zn 0.36106 0.21568 0.80862 0.0
Zn166 Zn 0.38613 0.23074 0.96417 0.0
O167 O 0.34538 0.26858 0.05434 0.0
O168 O 0.37649 0.24365 0.07323 0.0
O169 O 0.37339 0.35368 0.87971 0.0
O170 O 0.34317 0.33763 0.92814 0.0
O171 O 0.31843 0.25531 0.88671 0.0
O172 O 0.33062 0.20948 0.80354 0.0
O173 O 0.37338 0.16149 0.83208 0.0
O174 O 0.41234 0.29382 0.85113 0.0
O175 O 0.38643 0.17033 0.95188 0.0
O176 O 0.41516 0.24964 0.94885 0.0
C177 C 0.37252 0.26909 0.67375 0.0
C178 C 0.35973 0.2572 0.09986 0.0
C179 C 0.31571 0.22792 0.83499 0.0
C180 C 0.3565 0.36379 0.91047 0.0
C181 C 0.38195 0.14767 0.89377 0.0
C182 C 0.42318 0.27368 0.89935 0.0
O183 O 0.36886 0.23401 0.70019 0.0
H184 H 0.20604 0.28869 0.67231 0.0
H185 H 0.19854 0.16458 0.59855 0.0
H186 H 0.23268 0.14833 0.6513 0.0
H187 H 0.26021 0.29767 0.63602 0.0
H188 H 0.26471 0.32751 0.72317 0.0
H189 H 0.2404 0.32966 0.67433 0.0
H190 H 0.22268 0.31059 0.80533 0.0
H191 H 0.24697 0.30781 0.8543 0.0
H192 H 0.23008 0.26513 0.85568 0.0
H193 H 0.26776 0.146 0.71053 0.0
H194 H 0.30101 0.15729 0.77534 0.0
H195 H 0.2843 0.28144 0.82121 0.0
C196 C 0.21181 0.25832 0.66592 0.0
C197 C 0.19992 0.22797 0.63016 0.0
C198 C 0.20759 0.18825 0.62507 0.0
C199 C 0.2269 0.17877 0.65499 0.0
C200 C 0.23813 0.20919 0.69125 0.0
C201 C 0.23084 0.24811 0.69729 0.0
C202 C 0.24549 0.27467 0.74271 0.0
C203 C 0.25316 0.30943 0.69095 0.0
C204 C 0.23572 0.29047 0.81903 0.0
C205 C 0.26227 0.24476 0.76035 0.0
C206 C 0.25778 0.20722 0.72971 0.0
C207 C 0.27136 0.17515 0.73546 0.0
C208 C 0.29016 0.18179 0.77246 0.0
C209 C 0.29506 0.22001 0.80431 0.0
C210 C 0.28077 0.25166 0.79904 0.0
H211 H 0.70441 0.27052 0.81731 0.0
H212 H 0.70091 0.14235 0.86388 0.0
H213 H 0.73339 0.13219 0.79334 0.0
H214 H 0.72525 0.26448 0.6247 0.0
H215 H 0.74187 0.30715 0.63693 0.0
H216 H 0.71848 0.30448 0.69163 0.0
H217 H 0.73831 0.31248 0.82305 0.0
H218 H 0.7617 0.31594 0.76865 0.0
H219 H 0.75898 0.27862 0.84485 0.0
H220 H 0.76538 0.1359 0.71057 0.0
H221 H 0.79694 0.15431 0.64044 0.0
H222 H 0.77999 0.28036 0.65416 0.0
C223 C 0.71057 0.24034 0.8133 0.0
C224 C 0.70014 0.2072 0.84592 0.0
C225 C 0.70874 0.16822 0.83983 0.0
C226 C 0.72707 0.16211 0.79927 0.0
C227 C 0.73671 0.19537 0.76612 0.0
C228 C 0.72895 0.23381 0.77417 0.0
C229 C 0.74255 0.26467 0.73544 0.0
C230 C 0.73136 0.28646 0.66819 0.0
C231 C 0.75088 0.29468 0.79665 0.0
C232 C 0.75915 0.23758 0.70395 0.0
C233 C 0.75538 0.19765 0.72117 0.0
C234 C 0.76854 0.1671 0.69719 0.0
C235 C 0.78634 0.17781 0.65679 0.0
C236 C 0.79092 0.21875 0.64189 0.0
C237 C 0.77692 0.24881 0.66474 0.0
H238 H 0.2888 0.7363 0.14765 0.0
H239 H 0.29789 0.8635 0.10328 0.0
H240 H 0.26522 0.87871 0.1693 0.0
H241 H 0.23415 0.73369 0.12405 0.0
H242 H 0.23059 0.69863 0.20377 0.0
H243 H 0.25389 0.69811 0.1483 0.0
H244 H 0.27433 0.70705 0.27799 0.0
H245 H 0.25108 0.70828 0.33377 0.0
H246 H 0.26891 0.74928 0.34143 0.0
H247 H 0.23117 0.87942 0.23734 0.0
H248 H 0.1987 0.8659 0.30578 0.0
H249 H 0.21376 0.739 0.31689 0.0
C250 C 0.28369 0.76727 0.15045 0.0
C251 C 0.29558 0.79874 0.11917 0.0
C252 C 0.28881 0.83901 0.12618 0.0
C253 C 0.27035 0.84789 0.16372 0.0
C254 C 0.25914 0.81619 0.19527 0.0
C255 C 0.26561 0.77672 0.18943 0.0
C256 C 0.25128 0.74838 0.23148 0.0
C257 C 0.24192 0.71792 0.17343 0.0
C258 C 0.26205 0.727 0.30025 0.0
C259 C 0.23556 0.77799 0.26108 0.0
C260 C 0.24029 0.81692 0.23909 0.0
C261 C 0.22744 0.84915 0.25578 0.0
C262 C 0.2091 0.84125 0.29475 0.0
C263 C 0.20402 0.80159 0.3178 0.0
C264 C 0.21759 0.76974 0.30184 0.0
H265 H 0.71506 0.74865 0.1333 0.0
H266 H 0.68284 0.73989 0.35532 0.0
H267 H 0.71467 0.75348 0.42779 0.0
H268 H 0.75846 0.69564 0.19881 0.0
H269 H 0.77646 0.72503 0.14342 0.0
H270 H 0.75075 0.71983 0.1085 0.0
H271 H 0.74701 0.79747 0.10519 0.0
H272 H 0.77273 0.80286 0.1405 0.0
H273 H 0.75211 0.82632 0.19316 0.0
H274 H 0.75003 0.76548 0.47681 0.0
H275 H 0.78721 0.76745 0.49899 0.0
H276 H 0.79689 0.76374 0.2461 0.0
C277 C 0.71474 0.75028 0.19705 0.0
C278 C 0.69656 0.74355 0.23888 0.0
C279 C 0.69669 0.74494 0.32235 0.0
C280 C 0.71464 0.75293 0.364 0.0
C281 C 0.7324 0.75901 0.32137 0.0
C282 C 0.73268 0.75732 0.23981 0.0
C283 C 0.75419 0.76094 0.20892 0.0
C284 C 0.76032 0.72311 0.16219 0.0
C285 C 0.75665 0.79918 0.159 0.0
C286 C 0.76588 0.76418 0.28579 0.0
C287 C 0.753 0.76395 0.34988 0.0
C288 C 0.76031 0.76585 0.4271 0.0
C289 C 0.78142 0.7671 0.43918 0.0
C290 C 0.79489 0.76562 0.37438 0.0
C291 C 0.78694 0.76482 0.29683 0.0
H292 H 0.11856 0.91903 0.53713 0.0
H293 H 0.10513 0.92129 0.2868 0.0
H294 H 0.09876 0.99458 0.29467 0.0
H295 H 0.08269 0.99755 0.59992 0.0
H296 H 0.1002 0.01876 0.67051 0.0
H297 H 0.10126 0.96583 0.6474 0.0
H298 H 0.13929 0.97281 0.61037 0.0
H299 H 0.13835 0.02566 0.63345 0.0
H300 H 0.1467 0.00933 0.53744 0.0
H301 H 0.09488 0.06745 0.3288 0.0
H302 H 0.09739 0.1362 0.38264 0.0
H303 H 0.11598 0.08753 0.60905 0.0
C304 C 0.11389 0.93492 0.48441 0.0
C305 C 0.11202 0.91463 0.41153 0.0
C306 C 0.10651 0.93642 0.34318 0.0
C307 C 0.10277 0.97792 0.34721 0.0
C308 C 0.10491 0.99718 0.41984 0.0
C309 C 0.11058 0.97653 0.48705 0.0
C310 C 0.11377 0.005 0.55589 0.0
C311 C 0.09857 0.99626 0.62235 0.0
C312 C 0.13584 0.00308 0.58601 0.0
C313 C 0.10926 0.04494 0.51661 0.0
C314 C 0.10376 0.03962 0.43861 0.0
C315 C 0.09912 0.07201 0.38984 0.0
C316 C 0.10053 0.11097 0.42113 0.0
C317 C 0.1069 0.11729 0.50009 0.0
C318 C 0.11107 0.08369 0.54853 0.0
H319 H 0.88815 0.41419 0.50551 0.0
H320 H 0.82303 0.39476 0.51525 0.0
H321 H 0.8172 0.46406 0.46675 0.0
H322 H 0.8863 0.51461 0.57952 0.0
H323 H 0.90706 0.53207 0.51944 0.0
H324 H 0.90588 0.48008 0.54855 0.0
H325 H 0.90778 0.45852 0.40174 0.0
H326 H 0.90873 0.51054 0.37215 0.0
H327 H 0.88934 0.47784 0.33269 0.0
H328 H 0.81867 0.53524 0.41511 0.0
H329 H 0.82713 0.60622 0.38481 0.0
H330 H 0.89108 0.57999 0.42004 0.0
C331 C 0.87268 0.42454 0.49695 0.0
C332 C 0.85602 0.39932 0.51338 0.0
C333 C 0.83597 0.41389 0.50304 0.0
C334 C 0.83253 0.45297 0.47492 0.0
C335 C 0.84932 0.47709 0.4587 0.0
C336 C 0.86898 0.46369 0.47078 0.0
C337 C 0.88433 0.49654 0.45522 0.0
C338 C 0.89661 0.50641 0.53014 0.0
C339 C 0.89837 0.48517 0.38634 0.0
C340 C 0.87022 0.53063 0.43302 0.0
C341 C 0.85011 0.51862 0.43351 0.0
C342 C 0.83435 0.54504 0.41471 0.0
C343 C 0.83928 0.58511 0.39714 0.0
C344 C 0.8597 0.59828 0.40041 0.0
C345 C 0.87533 0.57054 0.41736 0.0
H346 H 0.87775 0.92804 0.37719 0.0
H347 H 0.88006 0.8765 0.6116 0.0
H348 H 0.88423 0.94437 0.66909 0.0
H349 H 0.91301 0.01241 0.4111 0.0
H350 H 0.89804 0.0471 0.35358 0.0
H351 H 0.8979 0.99422 0.32971 0.0
H352 H 0.85863 0.99297 0.34187 0.0
H353 H 0.85866 0.04578 0.36538 0.0
H354 H 0.84691 0.01044 0.43161 0.0
H355 H 0.88719 0.01755 0.7015 0.0
H356 H 0.88424 0.09173 0.70801 0.0
H357 H 0.87704 0.09591 0.45384 0.0
C358 C 0.87947 0.93121 0.44041 0.0
C359 C 0.8788 0.89735 0.49019 0.0
C360 C 0.88057 0.90234 0.57279 0.0
C361 C 0.8831 0.94064 0.60584 0.0
C362 C 0.88353 0.97362 0.55544 0.0
C363 C 0.88147 0.96941 0.47461 0.0
C364 C 0.88026 0.01004 0.43464 0.0
C365 C 0.89838 0.0163 0.37897 0.0
C366 C 0.8599 0.01509 0.39083 0.0
C367 C 0.8816 0.03757 0.5057 0.0
C368 C 0.884 0.016 0.5746 0.0
C369 C 0.88536 0.03485 0.64796 0.0
C370 C 0.88374 0.07691 0.65111 0.0
C371 C 0.88034 0.09933 0.58153 0.0
C372 C 0.87958 0.07939 0.50797 0.0
H373 H 0.13589 0.58448 0.36322 0.0
H374 H 0.15784 0.63641 0.58229 0.0
H375 H 0.1579 0.5691 0.64358 0.0
H376 H 0.10332 0.51113 0.44456 0.0
H377 H 0.10946 0.47219 0.37443 0.0
H378 H 0.11154 0.52429 0.34663 0.0
H379 H 0.14919 0.51339 0.30753 0.0
H380 H 0.14717 0.46112 0.33441 0.0
H381 H 0.16664 0.49214 0.37823 0.0
H382 H 0.15196 0.49741 0.6852 0.0
H383 H 0.14572 0.42408 0.69789 0.0
H384 H 0.13129 0.41742 0.44884 0.0
C385 C 0.14096 0.58149 0.42373 0.0
C386 C 0.14687 0.61557 0.46806 0.0
C387 C 0.15345 0.6106 0.54705 0.0
C388 C 0.1534 0.57255 0.58256 0.0
C389 C 0.14716 0.53962 0.53776 0.0
C390 C 0.14155 0.5435 0.45952 0.0
C391 C 0.13599 0.50305 0.42415 0.0
C392 C 0.11376 0.50267 0.39579 0.0
C393 C 0.15063 0.49176 0.35712 0.0
C394 C 0.13895 0.47603 0.49514 0.0
C395 C 0.1451 0.49782 0.56043 0.0
C396 C 0.14752 0.47988 0.63417 0.0
C397 C 0.14385 0.43841 0.64102 0.0
C398 C 0.13829 0.41544 0.5742 0.0
C399 C 0.13584 0.43446 0.50046 0.0
H400 H 0.62832 0.56579 0.98272 0.0
H401 H 0.64541 0.55693 0.2296 0.0
H402 H 0.64962 0.48349 0.21432 0.0
H403 H 0.59916 0.47816 0.9733 0.0
H404 H 0.60709 0.46379 0.87558 0.0
H405 H 0.60713 0.51599 0.9039 0.0
H406 H 0.64521 0.52139 0.86686 0.0
H407 H 0.6453 0.46912 0.83824 0.0
H408 H 0.66327 0.48716 0.91048 0.0
H409 H 0.64816 0.41128 0.17674 0.0
H410 H 0.64278 0.34427 0.11763 0.0
H411 H 0.62841 0.39951 0.89289 0.0
C412 C 0.63317 0.54851 0.03346 0.0
C413 C 0.63648 0.56707 0.10753 0.0
C414 C 0.64284 0.54338 0.17231 0.0
C415 C 0.6453 0.50168 0.16417 0.0
C416 C 0.64163 0.48433 0.09062 0.0
C417 C 0.63591 0.50697 0.02615 0.0
C418 C 0.63212 0.48067 0.95446 0.0
C419 C 0.61007 0.48491 0.92514 0.0
C420 C 0.64739 0.49015 0.88862 0.0
C421 C 0.63597 0.43947 0.9894 0.0
C422 C 0.64149 0.44241 0.06802 0.0
C423 C 0.64425 0.40858 0.11496 0.0
C424 C 0.64107 0.37074 0.08098 0.0
C425 C 0.63541 0.367 0.00072 0.0
C426 C 0.63318 0.40172 0.95391 0.0
H427 H 0.38184 0.93044 0.08966 0.0
H428 H 0.40015 0.88304 0.86185 0.0
H429 H 0.40355 0.95209 0.81118 0.0
H430 H 0.35189 0.00865 0.02084 0.0
H431 H 0.35923 0.04482 0.09491 0.0
H432 H 0.3603 0.99189 0.11656 0.0
H433 H 0.39836 -0.0017 0.1542 0.0
H434 H 0.39737 0.05144 0.13337 0.0
H435 H 0.41591 0.02009 0.08491 0.0
H436 H 0.40001 0.02512 0.77948 0.0
H437 H 0.39353 0.09838 0.77349 0.0
H438 H 0.37996 0.09922 0.02353 0.0
C439 C 0.38699 0.9346 0.02964 0.0
C440 C 0.39071 0.90127 0.97978 0.0
C441 C 0.39732 0.90802 0.90144 0.0
C442 C 0.39926 0.94717 0.87195 0.0
C443 C 0.39491 0.9793 0.92192 0.0
C444 C 0.38932 0.97353 -0.00044 0.0
C445 C 0.38481 0.01327 0.0399 0.0
C446 C 0.36275 0.01472 0.06977 0.0
C447 C 0.40002 0.02124 0.10707 0.0
C448 C 0.38804 0.04208 0.972 0.0
C449 C 0.39383 0.02183 0.90442 0.0
C450 C 0.39595 0.04147 0.83239 0.0
C451 C 0.39213 0.08295 0.82941 0.0
C452 C 0.38653 0.10433 0.89822 0.0
C453 C 0.38468 0.08365 0.97048 0.0
H454 H 0.38431 0.42344 0.9413 0.0
H455 H 0.31952 0.39984 0.92602 0.0
H456 H 0.31239 0.46989 0.96588 0.0
H457 H 0.38155 0.48627 0.11445 0.0
H458 H 0.40131 0.52007 0.08273 0.0
H459 H 0.40151 0.46833 0.05077 0.0
H460 H 0.40231 0.49121 0.90484 0.0
H461 H 0.40233 0.54298 0.93637 0.0
H462 H 0.38305 0.52527 0.86908 0.0
H463 H 0.31221 0.54257 0.00242 0.0
H464 H 0.31904 0.61369 0.03585 0.0
H465 H 0.38383 0.58938 0.03671 0.0
C466 C 0.36863 0.43318 0.9456 0.0
C467 C 0.35245 0.40636 0.92999 0.0
C468 C 0.33213 0.41995 0.93761 0.0
C469 C 0.32793 0.45963 0.96029 0.0
C470 C 0.34421 0.48516 0.97624 0.0
C471 C 0.36415 0.47254 0.96956 0.0
C472 C 0.3788 0.50597 0.99153 0.0
C473 C 0.39154 0.49446 0.0642 0.0
C474 C 0.39242 0.51701 0.92126 0.0
C475 C 0.36395 0.53946 0.01057 0.0
C476 C 0.34408 0.52678 0.00103 0.0
C477 C 0.32768 0.55278 0.01097 0.0
C478 C 0.3317 0.59303 0.02996 0.0
C479 C 0.35191 0.6067 0.03986 0.0
C480 C 0.36822 0.5794 0.03126 0.0
H481 H 0.645 0.05127 0.97564 0.0
H482 H 0.58037 0.07508 0.95305 0.0
H483 H 0.57295 0.00566 -0.00303 0.0
H484 H 0.64286 0.94825 0.9043 0.0
H485 H 0.66245 0.93137 0.97096 0.0
H486 H 0.6624 0.98261 0.93658 0.0
H487 H 0.66252 0.0078 0.08135 0.0
H488 H 0.6623 0.95665 0.11618 0.0
H489 H 0.64282 0.9913 0.14754 0.0
H490 H 0.57275 0.93489 0.05154 0.0
H491 H 0.57978 0.86561 0.09699 0.0
H492 H 0.64458 0.88813 0.07785 0.0
C493 C 0.62928 0.04182 0.9794 0.0
C494 C 0.61324 0.06851 0.96129 0.0
C495 C 0.59288 0.05497 0.9663 0.0
C496 C 0.58852 0.01573 0.99164 0.0
C497 C 0.60471 0.99044 0.01061 0.0
C498 C 0.62468 0.00274 0.00343 0.0
C499 C 0.63934 0.96963 0.02598 0.0
C500 C 0.65254 0.95723 0.95523 0.0
C501 C 0.65252 0.98211 0.09698 0.0
C502 C 0.62451 0.93683 0.04787 0.0
C503 C 0.6046 0.94947 0.03937 0.0
C504 C 0.58827 0.92455 0.05782 0.0
C505 C 0.59242 0.88538 0.08408 0.0
C506 C 0.61272 0.87149 0.09069 0.0
C507 C 0.6289 0.8978 0.07296 0.0
H508 H 0.10667 0.29611 0.2464 0.0
H509 H 0.16402 0.23617 0.29377 0.0
H510 H 0.16832 0.22304 0.15137 0.0
H511 H 0.08958 0.23296 0.09139 0.0
H512 H 0.07901 0.27304 0.03271 0.0
H513 H 0.0804 0.27816 0.13828 0.0
H514 H 0.10076 0.34447 0.12349 0.0
H515 H 0.09921 0.33984 0.01783 0.0
H516 H 0.12364 0.34478 0.06519 0.0
H517 H 0.16489 0.21145 0.00649 0.0
H518 H 0.15678 0.21145 0.86419 0.0
H519 H 0.10324 0.28414 0.90951 0.0
C520 C 0.12019 0.28053 0.2265 0.0
C521 C 0.135 0.26697 0.28054 0.0
C522 C 0.15259 0.24697 0.25287 0.0
C523 C 0.15509 0.23916 0.17236 0.0
C524 C 0.14003 0.25228 0.12061 0.0
C525 C 0.12317 0.27335 0.14621 0.0
C526 C 0.1096 0.28527 0.07794 0.0
C527 C 0.0884 0.2662 0.08557 0.0
C528 C 0.10824 0.33133 0.07069 0.0
C529 C 0.12134 0.26704 0.01013 0.0
C530 C 0.13868 0.24763 0.03624 0.0
C531 C 0.1515 0.22696 0.98509 0.0
C532 C 0.1467 0.22685 0.90468 0.0
C533 C 0.12945 0.24789 0.87647 0.0
C534 C 0.1166 0.2681 0.92986 0.0
H535 H 0.88904 0.23929 0.25152 0.0
H536 H 0.82477 0.25508 0.29913 0.0
H537 H 0.81833 0.26592 0.15707 0.0
H538 H 0.8937 0.31141 0.09644 0.0
H539 H 0.91063 0.28102 0.03782 0.0
H540 H 0.91037 0.27563 0.14346 0.0
H541 H 0.9031 0.1993 0.12892 0.0
H542 H 0.90357 0.20437 0.02328 0.0
H543 H 0.88165 0.18291 0.07083 0.0
H544 H 0.81928 0.27894 0.01201 0.0
H545 H 0.82651 0.28239 0.86929 0.0
H546 H 0.88959 0.25188 0.91473 0.0
C547 C 0.87363 0.24492 0.23173 0.0
C548 C 0.85738 0.2466 0.28565 0.0
C549 C 0.83736 0.25352 0.2582 0.0
C550 C 0.8336 0.26 0.17796 0.0
C551 C 0.84999 0.25867 0.12625 0.0
C552 C 0.86953 0.25041 0.15166 0.0
C553 C 0.88423 0.24844 0.08333 0.0
C554 C 0.9007 0.28108 0.09074 0.0
C555 C 0.89369 0.20624 0.07617 0.0
C556 C 0.86991 0.25714 0.01559 0.0
C557 C 0.85031 0.26373 0.04184 0.0
C558 C 0.83452 0.27351 0.99055 0.0
C559 C 0.83879 0.27568 0.90988 0.0
C560 C 0.85857 0.26729 0.88161 0.0
C561 C 0.87433 0.2582 0.93515 0.0
H562 H 0.11446 0.7991 0.06788 0.0
H563 H 0.14708 0.68791 0.11204 0.0
H564 H 0.15455 0.68169 0.96971 0.0
H565 H 0.09142 0.76517 0.88274 0.0
H566 H 0.09288 0.8143 0.83825 0.0
H567 H 0.09019 0.80968 0.94348 0.0
H568 H 0.12254 0.85309 0.96307 0.0
H569 H 0.12553 0.85728 0.8579 0.0
H570 H 0.14601 0.8377 0.91731 0.0
H571 H 0.16101 0.69098 0.82564 0.0
H572 H 0.16089 0.70821 0.68404 0.0
H573 H 0.12129 0.80981 0.73154 0.0
C574 C 0.12298 0.77327 0.04719 0.0
C575 C 0.13028 0.74399 0.1003 0.0
C576 C 0.14126 0.71042 0.07175 0.0
C577 C 0.14571 0.70684 0.99134 0.0
C578 C 0.13865 0.73667 0.94056 0.0
C579 C 0.12708 0.76867 0.96693 0.0
C580 C 0.12068 0.79569 0.89954 0.0
C581 C 0.09741 0.79622 0.89046 0.0
C582 C 0.12921 0.83847 0.91012 0.0
C583 C 0.13075 0.77421 0.83131 0.0
C584 C 0.14134 0.74064 0.85654 0.0
C585 C 0.15259 0.71688 0.80494 0.0
C586 C 0.15258 0.72711 0.72494 0.0
C587 C 0.14108 0.76028 0.69748 0.0
C588 C 0.13013 0.78422 0.75136 0.0
H589 H 0.84835 0.73552 0.7411 0.0
H590 H 0.91273 0.74448 0.68885 0.0
H591 H 0.9201 0.75568 0.82991 0.0
H592 H 0.84635 0.80942 0.89394 0.0
H593 H 0.82897 0.78153 0.95497 0.0
H594 H 0.82854 0.77489 0.84957 0.0
H595 H 0.83393 0.69808 0.86644 0.0
H596 H 0.83409 0.70444 0.97188 0.0
H597 H 0.85521 0.68017 0.9237 0.0
H598 H 0.92024 0.77036 0.97463 0.0
H599 H 0.91378 0.77608 0.11791 0.0
H600 H 0.84984 0.75157 0.07742 0.0
C601 C 0.86398 0.7396 0.75966 0.0
C602 C 0.87998 0.73926 0.7045 0.0
C603 C 0.90029 0.74435 0.73056 0.0
C604 C 0.90461 0.75108 0.81031 0.0
C605 C 0.88848 0.75188 0.86317 0.0
C606 C 0.86863 0.74536 0.83934 0.0
C607 C 0.85425 0.74572 0.9088 0.0
C608 C 0.83861 0.77993 0.90134 0.0
C609 C 0.84376 0.70466 0.91826 0.0
C610 C 0.86912 0.75371 0.97517 0.0
C611 C 0.88873 0.75796 0.9474 0.0
C612 C 0.905 0.76672 -0.00268 0.0
C613 C 0.90118 0.7702 0.07828 0.0
C614 C 0.88137 0.76408 0.10805 0.0
C615 C 0.86515 0.75611 0.05581 0.0
H616 H 0.61601 0.67049 0.46619 0.0
H617 H 0.61889 0.79827 0.41549 0.0
H618 H 0.62673 0.81222 0.5554 0.0
H619 H 0.59114 0.68259 0.65724 0.0
H620 H 0.60443 0.64057 0.70041 0.0
H621 H 0.59918 0.64109 0.59619 0.0
H622 H 0.63756 0.63096 0.56826 0.0
H623 H 0.64297 0.6313 0.6724 0.0
H624 H 0.6557 0.66626 0.60813 0.0
H625 H 0.63694 0.81165 0.69874 0.0
H626 H 0.64188 0.79813 0.84094 0.0
H627 H 0.62948 0.67158 0.80033 0.0
C628 C 0.61803 0.70142 0.48491 0.0
C629 C 0.61684 0.73333 0.43022 0.0
C630 C 0.61951 0.77344 0.45669 0.0
C631 C 0.6242 0.78162 0.53581 0.0
C632 C 0.62577 0.74941 0.58791 0.0
C633 C 0.62221 0.71022 0.56406 0.0
C634 C 0.62386 0.68132 0.63271 0.0
C635 C 0.60343 0.66016 0.64752 0.0
C636 C 0.64105 0.65066 0.61955 0.0
C637 C 0.62907 0.71033 0.69867 0.0
C638 C 0.63053 0.74936 0.67131 0.0
C639 C 0.63566 0.78127 0.72103 0.0
C640 C 0.63865 0.77327 0.80145 0.0
C641 C 0.63608 0.73386 0.83127 0.0
C642 C 0.63155 0.70199 0.77889 0.0
H643 H 0.38385 0.72082 0.72187 0.0
H644 H 0.326 0.78031 0.76033 0.0
H645 H 0.32221 0.79011 0.61643 0.0
H646 H 0.40148 0.78126 0.56836 0.0
H647 H 0.41276 0.74103 0.51203 0.0
H648 H 0.41046 0.73653 0.61735 0.0
H649 H 0.39053 0.66979 0.60081 0.0
H650 H 0.39303 0.67373 0.49536 0.0
H651 H 0.36821 0.66863 0.53899 0.0
H652 H 0.32689 0.80062 0.47156 0.0
H653 H 0.33687 0.80188 0.33139 0.0
H654 H 0.39024 0.73024 0.38547 0.0
C655 C 0.37025 0.73536 0.69972 0.0
C656 C 0.35522 0.74999 0.75167 0.0
C657 C 0.33758 0.76869 0.7211 0.0
C658 C 0.33538 0.77456 0.6397 0.0
C659 C 0.35074 0.76069 0.59012 0.0
C660 C 0.36759 0.74058 0.61869 0.0
C661 C 0.38183 0.72848 0.55276 0.0
C662 C 0.40287 0.74801 0.56329 0.0
C663 C 0.38349 0.68242 0.54662 0.0
C664 C 0.37065 0.74596 0.48273 0.0
C665 C 0.35286 0.76477 0.50579 0.0
C666 C 0.34059 0.78542 0.45256 0.0
C667 C 0.34648 0.78628 0.37337 0.0
C668 C 0.36428 0.76609 0.34812 0.0
C669 C 0.37647 0.74558 0.40344 0.0
H670 H 0.62179 0.26123 0.25446 0.0
H671 H 0.64872 0.14327 0.22097 0.0
H672 H 0.65043 0.13426 0.36569 0.0
H673 H 0.65256 0.28782 0.42818 0.0
H674 H 0.63203 0.31493 0.47428 0.0
H675 H 0.63359 0.31241 0.36835 0.0
H676 H 0.59708 0.28332 0.36254 0.0
H677 H 0.59544 0.28545 0.46836 0.0
H678 H 0.59115 0.2385 0.4176 0.0
H679 H 0.64571 0.13537 0.51167 0.0
H680 H 0.63881 0.14942 0.65202 0.0
H681 H 0.61779 0.26923 0.59172 0.0
C682 C 0.62818 0.23366 0.27781 0.0
C683 C 0.63501 0.20275 0.22719 0.0
C684 C 0.64349 0.16725 0.25923 0.0
C685 C 0.64446 0.16188 0.34108 0.0
C686 C 0.63731 0.19272 0.38949 0.0
C687 C 0.62972 0.22825 0.35919 0.0
C688 C 0.62316 0.25675 0.42412 0.0
C689 C 0.63611 0.29525 0.4237 0.0
C690 C 0.60035 0.26656 0.41775 0.0
C691 C 0.62769 0.23121 0.49577 0.0
C692 C 0.63571 0.19428 0.47427 0.0
C693 C 0.6398 0.1644 0.52939 0.0
C694 C 0.6357 0.17255 0.60869 0.0
C695 C 0.62791 0.21044 0.6321 0.0
C696 C 0.62403 0.24027 0.57509 0.0
H697 H 0.37521 0.21071 0.2183 0.0
H698 H 0.34056 0.3194 0.17315 0.0
H699 H 0.34125 0.33571 0.31544 0.0
H700 H 0.34953 0.18644 0.40317 0.0
H701 H 0.37228 0.16646 0.44782 0.0
H702 H 0.36886 0.16362 0.34259 0.0
H703 H 0.40322 0.20037 0.32315 0.0
H704 H 0.40658 0.20395 0.42832 0.0
H705 H 0.40718 0.2488 0.36877 0.0
H706 H 0.34845 0.34303 0.46037 0.0
H707 H 0.35619 0.33487 0.60227 0.0
H708 H 0.38342 0.21851 0.55414 0.0
C709 C 0.36758 0.23767 0.2387 0.0
C710 C 0.35786 0.26389 0.18524 0.0
C711 C 0.34793 0.2988 0.21361 0.0
C712 C 0.3484 0.30847 0.29404 0.0
C713 C 0.35851 0.28244 0.34513 0.0
C714 C 0.36746 0.24724 0.31893 0.0
C715 C 0.37669 0.22372 0.38643 0.0
C716 C 0.36621 0.18264 0.39554 0.0
C717 C 0.39979 0.21895 0.37601 0.0
C718 C 0.37177 0.25148 0.45455 0.0
C719 C 0.3616 0.28552 0.42928 0.0
C720 C 0.35618 0.31629 0.48106 0.0
C721 C 0.36078 0.31158 0.56124 0.0
C722 C 0.37032 0.27606 0.58862 0.0
C723 C 0.37601 0.24585 0.53448 0.0
H724 H 0.03905 0.2778 0.48149 0.0
H725 H 0.05122 0.30367 0.72823 0.0
H726 H 0.01448 0.30298 0.75542 0.0
H727 H 0.9925 0.33972 0.46858 0.0
H728 H 0.98002 0.3049 0.4028 0.0
H729 H 0.00731 0.30953 0.40151 0.0
H730 H 0.01071 0.23286 0.42576 0.0
H731 H 0.98346 0.22804 0.42773 0.0
H732 H -0.00157 0.21071 0.51008 0.0
H733 H 0.97706 0.29208 0.75931 0.0
H734 H 0.94056 0.27906 0.73673 0.0
H735 H 0.95185 0.26518 0.48629 0.0
C736 C 0.03396 0.28386 0.541 0.0
C737 C 0.04805 0.29073 0.60273 0.0
C738 C 0.04076 0.29855 0.67982 0.0
C739 C 0.0199 0.2981 0.69599 0.0
C740 C 0.00646 0.29048 0.63425 0.0
C741 C 0.01312 0.28421 0.55801 0.0
C742 C 0.99538 0.27634 0.50275 0.0
C743 C 0.99371 0.30961 0.44022 0.0
C744 C 0.99711 0.2345 0.46435 0.0
C745 C 0.9778 0.27817 0.5603 0.0
C746 C 0.9846 0.28611 0.63591 0.0
C747 C 0.97149 0.28656 0.7002 0.0
C748 C 0.95083 0.2789 0.68689 0.0
C749 C 0.94344 0.27151 0.60978 0.0
C750 C 0.95709 0.27144 0.54563 0.0
H751 H 0.95937 0.79444 0.41678 0.0
H752 H 0.94753 0.669 0.3621 0.0
H753 H 0.98442 0.65586 0.35624 0.0
H754 H 0.00461 0.80637 0.29629 0.0
H755 H 0.0175 0.83752 0.36772 0.0
H756 H 0.99015 0.83776 0.36239 0.0
H757 H 0.9883 0.81928 0.51055 0.0
H758 H 0.01564 0.81874 0.51621 0.0
H759 H 0.00134 0.77503 0.54559 0.0
H760 H 0.02223 0.65623 0.35522 0.0
H761 H 0.05907 0.66922 0.36639 0.0
H762 H 0.04664 0.79319 0.43158 0.0
C763 C 0.96461 0.76439 0.40253 0.0
C764 C 0.95071 0.73276 0.38914 0.0
C765 C 0.95801 0.69359 0.3724 0.0
C766 C 0.9789 0.68587 0.36879 0.0
C767 C 0.99224 0.71753 0.38323 0.0
C768 C 0.98546 0.75594 0.40038 0.0
C769 C 0.00308 0.78397 0.41768 0.0
C770 C 0.00388 0.81844 0.35741 0.0
C771 C 0.00202 0.80019 0.50256 0.0
C772 C 0.02079 0.75528 0.40737 0.0
C773 C 0.01417 0.71724 0.38662 0.0
C774 C 0.02764 0.68582 0.37183 0.0
C775 C 0.0485 0.69349 0.37822 0.0
C776 C 0.05563 0.73208 0.4004 0.0
C777 C 0.04157 0.76327 0.41556 0.0
H778 H 0.53729 0.7218 0.19493 0.0
H779 H 0.5531 0.67247 0.96577 0.0
H780 H 0.51684 0.66896 0.93065 0.0
H781 H 0.49048 0.66083 0.22013 0.0
H782 H 0.47711 0.7013 0.2683 0.0
H783 H 0.50432 0.69721 0.27815 0.0
H784 H 0.50829 0.77008 0.22635 0.0
H785 H 0.48114 0.77431 0.21584 0.0
H786 H 0.49738 0.78338 0.13231 0.0
H787 H 0.4797 0.67905 0.91326 0.0
H788 H 0.44309 0.69544 0.92036 0.0
H789 H 0.45054 0.73306 0.1636 0.0
C790 C 0.5331 0.70966 0.13788 0.0
C791 C 0.54807 0.69748 0.0831 0.0
C792 C 0.54195 0.68181 0.00897 0.0
C793 C 0.52137 0.67974 0.98831 0.0
C794 C 0.50704 0.69275 0.04291 0.0
C795 C 0.51255 0.70671 0.11671 0.0
C796 C 0.49405 0.71967 0.16348 0.0
C797 C 0.49133 0.69316 0.23686 0.0
C798 C 0.4953 0.76452 0.18577 0.0
C799 C 0.4774 0.712 0.1034 0.0
C800 C 0.48529 0.6966 0.03416 0.0
C801 C 0.47324 0.69024 0.96766 0.0
C802 C 0.45254 0.69981 0.97206 0.0
C803 C 0.4441 0.71491 0.04275 0.0
C804 C 0.45663 0.72067 0.10948 0.0
H805 H 0.45176 0.25088 0.00974 0.0
H806 H 0.44528 0.30173 0.77531 0.0
H807 H 0.48248 0.30091 0.75959 0.0
H808 H 0.49857 0.3066 0.06095 0.0
H809 H 0.50919 0.26495 0.11512 0.0
H810 H 0.48202 0.27148 0.11006 0.0
H811 H 0.47824 0.1991 0.05494 0.0
H812 H 0.50537 0.19241 0.05942 0.0
H813 H 0.49206 0.18484 0.96758 0.0
H814 H 0.51961 0.28735 0.76246 0.0
H815 H 0.55525 0.26824 0.78954 0.0
H816 H 0.53858 0.23139 0.0257 0.0
C817 C 0.45819 0.26229 0.95552 0.0
C818 C 0.44559 0.2763 0.89368 0.0
C819 C 0.4546 0.29105 0.82367 0.0
C820 C 0.47573 0.29064 0.81406 0.0
C821 C 0.48768 0.27606 0.8755 0.0
C822 C 0.47933 0.26279 0.94542 0.0
C823 C 0.4957 0.24817 0.00163 0.0
C824 C 0.49641 0.27437 0.07636 0.0
C825 C 0.49266 0.20348 0.02206 0.0
C826 C 0.51448 0.25432 0.95145 0.0
C827 C 0.50943 0.27024 0.87872 0.0
C828 C 0.52384 0.27567 0.8197 0.0
C829 C 0.54397 0.26459 0.83541 0.0
C830 C 0.54954 0.24896 0.90986 0.0
C831 C 0.53468 0.24413 0.96892 0.0
loop_
_geom_bond_atom_site_label_1
_geom_bond_atom_site_label_2
_geom_bond_distance
_geom_bond_site_symmetry_2
_ccdc_geom_bond_type
O0 Zn1 1.953 . S
O0 C16 1.225 . S
Zn1 O0 1.953 . S
Zn1 O2 1.949 . S
Zn1 O8 1.919 . S
Zn1 O13 1.924 . S
O2 Zn1 1.949 . S
O2 Zn3 1.923 . S
O2 Zn4 1.950 . S
O2 Zn5 1.945 . S
Zn3 O2 1.923 . S
Zn3 O6 1.933 . S
Zn3 O9 1.941 . S
Zn3 O10 1.965 . S
Zn4 O2 1.950 . S
Zn4 O11 1.938 . S
Zn4 O12 1.906 . S
Zn4 O22 1.953 . S
Zn5 O2 1.945 . S
Zn5 O7 1.932 . S
Zn5 O14 1.977 . S
Zn5 O15 1.910 . S
O6 Zn3 1.933 . S
O6 C17 1.226 . S
O7 Zn5 1.932 . S
O7 C17 1.307 . S
O8 Zn1 1.919 . S
O8 C19 1.253 . S
O9 Zn3 1.941 . S
O9 C19 1.283 . S
O10 Zn3 1.965 . S
O10 C18 1.303 . S
O11 Zn4 1.938 . S
O11 C18 1.247 . S
O12 Zn4 1.906 . S
O12 C20 1.304 . S
O13 Zn1 1.924 . S
O13 C21 1.311 . S
O14 Zn5 1.977 . S
O14 C20 1.272 . S
O15 Zn5 1.910 . S
O15 C21 1.231 . S
C16 O0 1.225 . S
C16 O22 1.298 . S
C17 O6 1.226 . S
C17 O7 1.307 . S
C18 O10 1.303 . S
C18 O11 1.247 . S
C19 O8 1.253 . S
C19 O9 1.283 . S
C20 O12 1.304 . S
C20 O14 1.272 . S
C21 O13 1.311 . S
C21 O15 1.231 . S
O22 Zn4 1.953 . S
O22 C16 1.298 . S
O23 Zn24 1.953 . S
O23 C39 1.225 . S
Zn24 O23 1.953 . S
Zn24 O25 1.949 . S
Zn24 O31 1.919 . S
Zn24 O36 1.924 . S
O25 Zn24 1.949 . S
O25 Zn26 1.923 . S
O25 Zn27 1.950 . S
O25 Zn28 1.945 . S
Zn26 O25 1.923 . S
Zn26 O29 1.933 . S
Zn26 O32 1.941 . S
Zn26 O33 1.965 . S
Zn27 O25 1.950 . S
Zn27 O34 1.938 . S
Zn27 O35 1.906 . S
Zn27 O45 1.953 . S
Zn28 O25 1.945 . S
Zn28 O30 1.932 . S
Zn28 O37 1.977 . S
Zn28 O38 1.910 . S
O29 Zn26 1.933 . S
O29 C40 1.226 . S
O30 Zn28 1.932 . S
O30 C40 1.307 . S
O31 Zn24 1.919 . S
O31 C42 1.253 . S
O32 Zn26 1.941 . S
O32 C42 1.283 . S
O33 Zn26 1.965 . S
O33 C41 1.303 . S
O34 Zn27 1.938 . S
O34 C41 1.247 . S
O35 Zn27 1.906 . S
O35 C43 1.304 . S
O36 Zn24 1.924 . S
O36 C44 1.311 . S
O37 Zn28 1.977 . S
O37 C43 1.272 . S
O38 Zn28 1.910 . S
O38 C44 1.231 . S
C39 O23 1.225 . S
C39 O45 1.298 . S
C40 O29 1.226 . S
C40 O30 1.307 . S
C41 O33 1.303 . S
C41 O34 1.247 . S
C42 O31 1.253 . S
C42 O32 1.283 . S
C43 O35 1.304 . S
C43 O37 1.272 . S
C44 O36 1.311 . S
C44 O38 1.231 . S
O45 Zn27 1.953 . S
O45 C39 1.298 . S
O46 Zn47 1.953 . S
O46 C62 1.225 . S
Zn47 O46 1.953 . S
Zn47 O48 1.949 . S
Zn47 O54 1.919 . S
Zn47 O59 1.924 . S
O48 Zn47 1.949 . S
O48 Zn49 1.923 . S
O48 Zn50 1.950 . S
O48 Zn51 1.945 . S
Zn49 O48 1.923 . S
Zn49 O52 1.933 . S
Zn49 O55 1.941 . S
Zn49 O56 1.965 . S
Zn50 O48 1.950 . S
Zn50 O57 1.938 . S
Zn50 O58 1.906 . S
Zn50 O68 1.953 . S
Zn51 O48 1.945 . S
Zn51 O53 1.932 . S
Zn51 O60 1.977 . S
Zn51 O61 1.910 . S
O52 Zn49 1.933 . S
O52 C63 1.226 . S
O53 Zn51 1.932 . S
O53 C63 1.307 . S
O54 Zn47 1.919 . S
O54 C65 1.253 . S
O55 Zn49 1.941 . S
O55 C65 1.283 . S
O56 Zn49 1.965 . S
O56 C64 1.303 . S
O57 Zn50 1.938 . S
O57 C64 1.247 . S
O58 Zn50 1.906 . S
O58 C66 1.304 . S
O59 Zn47 1.924 . S
O59 C67 1.311 . S
O60 Zn51 1.977 . S
O60 C66 1.272 . S
O61 Zn51 1.910 . S
O61 C67 1.231 . S
C62 O46 1.225 . S
C62 O68 1.298 . S
C63 O52 1.226 . S
C63 O53 1.307 . S
C64 O56 1.303 . S
C64 O57 1.247 . S
C65 O54 1.253 . S
C65 O55 1.283 . S
C66 O58 1.304 . S
C66 O60 1.272 . S
C67 O59 1.311 . S
C67 O61 1.231 . S
O68 Zn50 1.953 . S
O68 C62 1.298 . S
O69 Zn70 1.953 . S
O69 C85 1.225 . S
Zn70 O69 1.953 . S
Zn70 O71 1.949 . S
Zn70 O77 1.919 . S
Zn70 O82 1.924 . S
O71 Zn70 1.949 . S
O71 Zn72 1.923 . S
O71 Zn73 1.950 . S
O71 Zn74 1.945 . S
Zn72 O71 1.923 . S
Zn72 O75 1.933 . S
Zn72 O78 1.941 . S
Zn72 O79 1.965 . S
Zn73 O71 1.950 . S
Zn73 O80 1.938 . S
Zn73 O81 1.906 . S
Zn73 O91 1.953 . S
Zn74 O71 1.945 . S
Zn74 O76 1.932 . S
Zn74 O83 1.977 . S
Zn74 O84 1.910 . S
O75 Zn72 1.933 . S
O75 C86 1.226 . S
O76 Zn74 1.932 . S
O76 C86 1.307 . S
O77 Zn70 1.919 . S
O77 C88 1.253 . S
O78 Zn72 1.941 . S
O78 C88 1.283 . S
O79 Zn72 1.965 . S
O79 C87 1.303 . S
O80 Zn73 1.938 . S
O80 C87 1.247 . S
O81 Zn73 1.906 . S
O81 C89 1.304 . S
O82 Zn70 1.924 . S
O82 C90 1.311 . S
O83 Zn74 1.977 . S
O83 C89 1.272 . S
O84 Zn74 1.910 . S
O84 C90 1.231 . S
C85 O69 1.225 . S
C85 O91 1.298 . S
C86 O75 1.226 . S
C86 O76 1.307 . S
C87 O79 1.303 . S
C87 O80 1.247 . S
C88 O77 1.253 . S
C88 O78 1.283 . S
C89 O81 1.304 . S
C89 O83 1.272 . S
C90 O82 1.311 . S
C90 O84 1.231 . S
O91 Zn73 1.953 . S
O91 C85 1.298 . S
O92 Zn93 1.953 . S
O92 C108 1.225 . S
Zn93 O92 1.953 . S
Zn93 O94 1.949 . S
Zn93 O100 1.919 . S
Zn93 O105 1.924 . S
O94 Zn93 1.949 . S
O94 Zn95 1.923 . S
O94 Zn96 1.950 . S
O94 Zn97 1.945 . S
Zn95 O94 1.923 . S
Zn95 O98 1.933 1_554 S
Zn95 O101 1.941 . S
Zn95 O102 1.965 . S
Zn96 O94 1.950 . S
Zn96 O103 1.938 . S
Zn96 O104 1.906 . S
Zn96 O114 1.953 . S
Zn97 O94 1.945 . S
Zn97 O99 1.932 1_554 S
Zn97 O106 1.977 . S
Zn97 O107 1.910 . S
O98 Zn95 1.933 1_556 S
O98 C109 1.226 . S
O99 Zn97 1.932 1_556 S
O99 C109 1.307 . S
O100 Zn93 1.919 . S
O100 C111 1.253 . S
O101 Zn95 1.941 . S
O101 C111 1.283 . S
O102 Zn95 1.965 . S
O102 C110 1.303 . S
O103 Zn96 1.938 . S
O103 C110 1.247 . S
O104 Zn96 1.906 . S
O104 C112 1.304 . S
O105 Zn93 1.924 . S
O105 C113 1.311 . S
O106 Zn97 1.977 . S
O106 C112 1.272 . S
O107 Zn97 1.910 . S
O107 C113 1.231 . S
C108 O92 1.225 . S
C108 O114 1.298 . S
C109 O98 1.226 . S
C109 O99 1.307 . S
C110 O102 1.303 . S
C110 O103 1.247 . S
C111 O100 1.253 . S
C111 O101 1.283 . S
C112 O104 1.304 . S
C112 O106 1.272 . S
C113 O105 1.311 . S
C113 O107 1.231 . S
O114 Zn96 1.953 . S
O114 C108 1.298 . S
O115 Zn116 1.953 . S
O115 C131 1.225 . S
Zn116 O115 1.953 . S
Zn116 O117 1.949 . S
Zn116 O123 1.919 . S
Zn116 O128 1.924 . S
O117 Zn116 1.949 . S
O117 Zn118 1.923 . S
O117 Zn119 1.950 . S
O117 Zn120 1.945 . S
Zn118 O117 1.923 . S
Zn118 O121 1.933 1_554 S
Zn118 O124 1.941 . S
Zn118 O125 1.965 . S
Zn119 O117 1.950 . S
Zn119 O126 1.938 . S
Zn119 O127 1.906 . S
Zn119 O137 1.953 . S
Zn120 O117 1.945 . S
Zn120 O122 1.932 1_554 S
Zn120 O129 1.977 . S
Zn120 O130 1.910 . S
O121 Zn118 1.933 1_556 S
O121 C132 1.226 . S
O122 Zn120 1.932 1_556 S
O122 C132 1.307 . S
O123 Zn116 1.919 . S
O123 C134 1.253 . S
O124 Zn118 1.941 . S
O124 C134 1.283 . S
O125 Zn118 1.965 . S
O125 C133 1.303 . S
O126 Zn119 1.938 . S
O126 C133 1.247 . S
O127 Zn119 1.906 . S
O127 C135 1.304 . S
O128 Zn116 1.924 . S
O128 C136 1.311 . S
O129 Zn120 1.977 . S
O129 C135 1.272 . S
O130 Zn120 1.910 . S
O130 C136 1.231 . S
C131 O115 1.225 . S
C131 O137 1.298 . S
C132 O121 1.226 . S
C132 O122 1.307 . S
C133 O125 1.303 . S
C133 O126 1.247 . S
C134 O123 1.253 . S
C134 O124 1.283 . S
C135 O127 1.304 . S
C135 O129 1.272 . S
C136 O128 1.311 . S
C136 O130 1.231 . S
O137 Zn119 1.953 . S
O137 C131 1.298 . S
O138 Zn139 1.953 . S
O138 C154 1.225 . S
Zn139 O138 1.953 . S
Zn139 O140 1.949 . S
Zn139 O146 1.919 . S
Zn139 O151 1.924 . S
O140 Zn139 1.949 . S
O140 Zn141 1.923 . S
O140 Zn142 1.950 . S
O140 Zn143 1.945 . S
Zn141 O140 1.923 . S
Zn141 O144 1.933 1_556 S
Zn141 O147 1.941 . S
Zn141 O148 1.965 . S
Zn142 O140 1.950 . S
Zn142 O149 1.938 . S
Zn142 O150 1.906 . S
Zn142 O160 1.953 . S
Zn143 O140 1.945 . S
Zn143 O145 1.932 1_556 S
Zn143 O152 1.977 . S
Zn143 O153 1.910 . S
O144 Zn141 1.933 1_554 S
O144 C155 1.226 . S
O145 Zn143 1.932 1_554 S
O145 C155 1.307 . S
O146 Zn139 1.919 . S
O146 C157 1.253 . S
O147 Zn141 1.941 . S
O147 C157 1.283 . S
O148 Zn141 1.965 . S
O148 C156 1.303 . S
O149 Zn142 1.938 . S
O149 C156 1.247 . S
O150 Zn142 1.906 . S
O150 C158 1.304 . S
O151 Zn139 1.924 . S
O151 C159 1.311 . S
O152 Zn143 1.977 . S
O152 C158 1.272 . S
O153 Zn143 1.910 . S
O153 C159 1.231 . S
C154 O138 1.225 . S
C154 O160 1.298 . S
C155 O144 1.226 . S
C155 O145 1.307 . S
C156 O148 1.303 . S
C156 O149 1.247 . S
C157 O146 1.253 . S
C157 O147 1.283 . S
C158 O150 1.304 . S
C158 O152 1.272 . S
C159 O151 1.311 . S
C159 O153 1.231 . S
O160 Zn142 1.953 . S
O160 C154 1.298 . S
O161 Zn162 1.953 . S
O161 C177 1.225 . S
Zn162 O161 1.953 . S
Zn162 O163 1.949 . S
Zn162 O169 1.919 . S
Zn162 O174 1.924 . S
O163 Zn162 1.949 . S
O163 Zn164 1.923 . S
O163 Zn165 1.950 . S
O163 Zn166 1.945 . S
Zn164 O163 1.923 . S
Zn164 O167 1.933 1_556 S
Zn164 O170 1.941 . S
Zn164 O171 1.965 . S
Zn165 O163 1.950 . S
Zn165 O172 1.938 . S
Zn165 O173 1.906 . S
Zn165 O183 1.953 . S
Zn166 O163 1.945 . S
Zn166 O168 1.932 1_556 S
Zn166 O175 1.977 . S
Zn166 O176 1.910 . S
O167 Zn164 1.933 1_554 S
O167 C178 1.226 . S
O168 Zn166 1.932 1_554 S
O168 C178 1.307 . S
O169 Zn162 1.919 . S
O169 C180 1.253 . S
O170 Zn164 1.941 . S
O170 C180 1.283 . S
O171 Zn164 1.965 . S
O171 C179 1.303 . S
O172 Zn165 1.938 . S
O172 C179 1.247 . S
O173 Zn165 1.906 . S
O173 C181 1.304 . S
O174 Zn162 1.924 . S
O174 C182 1.311 . S
O175 Zn166 1.977 . S
O175 C181 1.272 . S
O176 Zn166 1.910 . S
O176 C182 1.231 . S
C177 O161 1.225 . S
C177 O183 1.298 . S
C178 O167 1.226 . S
C178 O168 1.307 . S
C179 O171 1.303 . S
C179 O172 1.247 . S
C180 O169 1.253 . S
C180 O170 1.283 . S
C181 O173 1.304 . S
C181 O175 1.272 . S
C182 O174 1.311 . S
C182 O176 1.231 . S
O183 Zn165 1.953 . S
O183 C177 1.298 . S
H184 C196 0.930 . S
H185 C198 0.930 . S
H186 C199 0.930 . S
H187 C203 0.959 . S
H188 C203 0.959 . S
H189 C203 0.961 . S
H190 C204 0.960 . S
H191 C204 0.961 . S
H192 C204 0.959 . S
H193 C207 0.929 . S
H194 C208 0.931 . S
H195 C210 0.930 . S
C196 H184 0.930 . S
C196 C197 1.399 . S
C196 C201 1.399 . S
C197 C196 1.399 . S
C197 C198 1.376 . S
C198 H185 0.930 . S
C198 C197 1.376 . S
C198 C199 1.388 . S
C199 H186 0.930 . S
C199 C198 1.388 . S
C199 C200 1.390 . S
C200 C199 1.390 . S
C200 C201 1.394 . S
C200 C206 1.465 . S
C201 C196 1.399 . S
C201 C200 1.394 . S
C201 C202 1.516 . S
C202 C201 1.516 . S
C202 C203 1.502 . S
C202 C204 1.561 . S
C202 C205 1.526 . S
C203 H187 0.959 . S
C203 H188 0.959 . S
C203 H189 0.961 . S
C203 C202 1.502 . S
C204 H190 0.960 . S
C204 H191 0.961 . S
C204 H192 0.959 . S
C204 C202 1.561 . S
C205 C202 1.526 . S
C205 C206 1.396 . S
C205 C210 1.390 . S
C206 C200 1.465 . S
C206 C205 1.396 . S
C206 C207 1.399 . S
C207 H193 0.929 . S
C207 C206 1.399 . S
C207 C208 1.385 . S
C208 H194 0.931 . S
C208 C207 1.385 . S
C208 C209 1.389 . S
C209 C208 1.389 . S
C209 C210 1.387 . S
C210 H195 0.930 . S
C210 C205 1.390 . S
C210 C209 1.387 . S
H211 C223 0.930 . S
H212 C225 0.930 . S
H213 C226 0.930 . S
H214 C230 0.959 . S
H215 C230 0.959 . S
H216 C230 0.961 . S
H217 C231 0.960 . S
H218 C231 0.961 . S
H219 C231 0.959 . S
H220 C234 0.929 . S
H221 C235 0.931 . S
H222 C237 0.930 . S
C223 H211 0.930 . S
C223 C224 1.399 . S
C223 C228 1.399 . S
C224 C223 1.399 . S
C224 C225 1.376 . S
C225 H212 0.930 . S
C225 C224 1.376 . S
C225 C226 1.388 . S
C226 H213 0.930 . S
C226 C225 1.388 . S
C226 C227 1.390 . S
C227 C226 1.390 . S
C227 C228 1.394 . S
C227 C233 1.465 . S
C228 C223 1.399 . S
C228 C227 1.394 . S
C228 C229 1.516 . S
C229 C228 1.516 . S
C229 C230 1.502 . S
C229 C231 1.561 . S
C229 C232 1.526 . S
C230 H214 0.959 . S
C230 H215 0.959 . S
C230 H216 0.961 . S
C230 C229 1.502 . S
C231 H217 0.960 . S
C231 H218 0.961 . S
C231 H219 0.959 . S
C231 C229 1.561 . S
C232 C229 1.526 . S
C232 C233 1.396 . S
C232 C237 1.390 . S
C233 C227 1.465 . S
C233 C232 1.396 . S
C233 C234 1.399 . S
C234 H220 0.929 . S
C234 C233 1.399 . S
C234 C235 1.385 . S
C235 H221 0.931 . S
C235 C234 1.385 . S
C235 C236 1.389 . S
C236 C235 1.389 . S
C236 C237 1.387 . S
C237 H222 0.930 . S
C237 C232 1.390 . S
C237 C236 1.387 . S
H238 C250 0.930 . S
H239 C252 0.930 . S
H240 C253 0.930 . S
H241 C257 0.959 . S
H242 C257 0.959 . S
H243 C257 0.961 . S
H244 C258 0.960 . S
H245 C258 0.961 . S
H246 C258 0.959 . S
H247 C261 0.929 . S
H248 C262 0.931 . S
H249 C264 0.930 . S
C250 H238 0.930 . S
C250 C251 1.399 . S
C250 C255 1.399 . S
C251 C250 1.399 . S
C251 C252 1.376 . S
C252 H239 0.930 . S
C252 C251 1.376 . S
C252 C253 1.388 . S
C253 H240 0.930 . S
C253 C252 1.388 . S
C253 C254 1.390 . S
C254 C253 1.390 . S
C254 C255 1.394 . S
C254 C260 1.465 . S
C255 C250 1.399 . S
C255 C254 1.394 . S
C255 C256 1.516 . S
C256 C255 1.516 . S
C256 C257 1.502 . S
C256 C258 1.561 . S
C256 C259 1.526 . S
C257 H241 0.959 . S
C257 H242 0.959 . S
C257 H243 0.961 . S
C257 C256 1.502 . S
C258 H244 0.960 . S
C258 H245 0.961 . S
C258 H246 0.959 . S
C258 C256 1.561 . S
C259 C256 1.526 . S
C259 C260 1.396 . S
C259 C264 1.390 . S
C260 C254 1.465 . S
C260 C259 1.396 . S
C260 C261 1.399 . S
C261 H247 0.929 . S
C261 C260 1.399 . S
C261 C262 1.385 . S
C262 H248 0.931 . S
C262 C261 1.385 . S
C262 C263 1.389 . S
C263 C262 1.389 . S
C263 C264 1.387 . S
C264 H249 0.930 . S
C264 C259 1.390 . S
C264 C263 1.387 . S
H265 C277 0.930 . S
H266 C279 0.930 . S
H267 C280 0.930 . S
H268 C284 0.959 . S
H269 C284 0.959 . S
H270 C284 0.961 . S
H271 C285 0.960 . S
H272 C285 0.961 . S
H273 C285 0.959 . S
H274 C288 0.929 . S
H275 C289 0.931 . S
H276 C291 0.930 . S
C277 H265 0.930 . S
C277 C278 1.399 . S
C277 C282 1.399 . S
C278 C277 1.399 . S
C278 C279 1.376 . S
C279 H266 0.930 . S
C279 C278 1.376 . S
C279 C280 1.388 . S
C280 H267 0.930 . S
C280 C279 1.388 . S
C280 C281 1.390 . S
C281 C280 1.390 . S
C281 C282 1.394 . S
C281 C287 1.465 . S
C282 C277 1.399 . S
C282 C281 1.394 . S
C282 C283 1.516 . S
C283 C282 1.516 . S
C283 C284 1.502 . S
C283 C285 1.561 . S
C283 C286 1.526 . S
C284 H268 0.959 . S
C284 H269 0.959 . S
C284 H270 0.961 . S
C284 C283 1.502 . S
C285 H271 0.960 . S
C285 H272 0.961 . S
C285 H273 0.959 . S
C285 C283 1.561 . S
C286 C283 1.526 . S
C286 C287 1.396 . S
C286 C291 1.390 . S
C287 C281 1.465 . S
C287 C286 1.396 . S
C287 C288 1.399 . S
C288 H274 0.929 . S
C288 C287 1.399 . S
C288 C289 1.385 . S
C289 H275 0.931 . S
C289 C288 1.385 . S
C289 C290 1.389 . S
C290 C289 1.389 . S
C290 C291 1.387 . S
C291 H276 0.930 . S
C291 C286 1.390 . S
C291 C290 1.387 . S
H292 C304 0.930 . S
H293 C306 0.930 . S
H294 C307 0.930 . S
H295 C311 0.959 . S
H296 C311 0.959 . S
H297 C311 0.961 . S
H298 C312 0.960 . S
H299 C312 0.961 1_545 S
H300 C312 0.959 . S
H301 C315 0.929 . S
H302 C316 0.931 . S
H303 C318 0.930 . S
C304 H292 0.930 . S
C304 C305 1.399 . S
C304 C309 1.399 . S
C305 C304 1.399 . S
C305 C306 1.376 . S
C306 H293 0.930 . S
C306 C305 1.376 . S
C306 C307 1.388 . S
C307 H294 0.930 . S
C307 C306 1.388 . S
C307 C308 1.390 . S
C308 C307 1.390 . S
C308 C309 1.394 . S
C308 C314 1.465 1_565 S
C309 C304 1.399 . S
C309 C308 1.394 . S
C309 C310 1.516 . S
C310 C309 1.516 . S
C310 C311 1.502 . S
C310 C312 1.561 . S
C310 C313 1.526 1_565 S
C311 H295 0.959 . S
C311 H296 0.959 . S
C311 H297 0.961 . S
C311 C310 1.502 . S
C312 H298 0.960 . S
C312 H299 0.961 1_565 S
C312 H300 0.959 . S
C312 C310 1.561 . S
C313 C310 1.526 1_545 S
C313 C314 1.396 . S
C313 C318 1.390 . S
C314 C308 1.465 1_545 S
C314 C313 1.396 . S
C314 C315 1.399 . S
C315 H301 0.929 . S
C315 C314 1.399 . S
C315 C316 1.385 . S
C316 H302 0.931 . S
C316 C315 1.385 . S
C316 C317 1.389 . S
C317 C316 1.389 . S
C317 C318 1.387 . S
C318 H303 0.930 . S
C318 C313 1.390 . S
C318 C317 1.387 . S
H319 C331 0.930 . S
H320 C333 0.930 . S
H321 C334 0.930 . S
H322 C338 0.959 . S
H323 C338 0.959 . S
H324 C338 0.961 . S
H325 C339 0.960 . S
H326 C339 0.961 . S
H327 C339 0.959 . S
H328 C342 0.929 . S
H329 C343 0.931 . S
H330 C345 0.930 . S
C331 H319 0.930 . S
C331 C332 1.399 . S
C331 C336 1.399 . S
C332 C331 1.399 . S
C332 C333 1.376 . S
C333 H320 0.930 . S
C333 C332 1.376 . S
C333 C334 1.388 . S
C334 H321 0.930 . S
C334 C333 1.388 . S
C334 C335 1.390 . S
C335 C334 1.390 . S
C335 C336 1.394 . S
C335 C341 1.465 . S
C336 C331 1.399 . S
C336 C335 1.394 . S
C336 C337 1.516 . S
C337 C336 1.516 . S
C337 C338 1.502 . S
C337 C339 1.561 . S
C337 C340 1.526 . S
C338 H322 0.959 . S
C338 H323 0.959 . S
C338 H324 0.961 . S
C338 C337 1.502 . S
C339 H325 0.960 . S
C339 H326 0.961 . S
C339 H327 0.959 . S
C339 C337 1.561 . S
C340 C337 1.526 . S
C340 C341 1.396 . S
C340 C345 1.390 . S
C341 C335 1.465 . S
C341 C340 1.396 . S
C341 C342 1.399 . S
C342 H328 0.929 . S
C342 C341 1.399 . S
C342 C343 1.385 . S
C343 H329 0.931 . S
C343 C342 1.385 . S
C343 C344 1.389 . S
C344 C343 1.389 . S
C344 C345 1.387 . S
C345 H330 0.930 . S
C345 C340 1.390 . S
C345 C344 1.387 . S
H346 C358 0.930 . S
H347 C360 0.930 . S
H348 C361 0.930 . S
H349 C365 0.959 . S
H350 C365 0.959 . S
H351 C365 0.961 1_565 S
H352 C366 0.960 . S
H353 C366 0.961 . S
H354 C366 0.959 . S
H355 C369 0.929 . S
H356 C370 0.931 . S
H357 C372 0.930 . S
C358 H346 0.930 . S
C358 C359 1.399 . S
C358 C363 1.399 . S
C359 C358 1.399 . S
C359 C360 1.376 . S
C360 H347 0.930 . S
C360 C359 1.376 . S
C360 C361 1.388 . S
C361 H348 0.930 . S
C361 C360 1.388 . S
C361 C362 1.390 . S
C362 C361 1.390 . S
C362 C363 1.394 . S
C362 C368 1.465 1_565 S
C363 C358 1.399 . S
C363 C362 1.394 . S
C363 C364 1.516 1_565 S
C364 C363 1.516 1_545 S
C364 C365 1.502 . S
C364 C366 1.561 . S
C364 C367 1.526 . S
C365 H349 0.959 . S
C365 H350 0.959 . S
C365 H351 0.961 1_545 S
C365 C364 1.502 . S
C366 H352 0.960 . S
C366 H353 0.961 . S
C366 H354 0.959 . S
C366 C364 1.561 . S
C367 C364 1.526 . S
C367 C368 1.396 . S
C367 C372 1.390 . S
C368 C362 1.465 1_545 S
C368 C367 1.396 . S
C368 C369 1.399 . S
C369 H355 0.929 . S
C369 C368 1.399 . S
C369 C370 1.385 . S
C370 H356 0.931 . S
C370 C369 1.385 . S
C370 C371 1.389 . S
C371 C370 1.389 . S
C371 C372 1.387 . S
C372 H357 0.930 . S
C372 C367 1.390 . S
C372 C371 1.387 . S
H373 C385 0.930 . S
H374 C387 0.930 . S
H375 C388 0.930 . S
H376 C392 0.959 . S
H377 C392 0.959 . S
H378 C392 0.961 . S
H379 C393 0.960 . S
H380 C393 0.961 . S
H381 C393 0.959 . S
H382 C396 0.929 . S
H383 C397 0.931 . S
H384 C399 0.930 . S
C385 H373 0.930 . S
C385 C386 1.399 . S
C385 C390 1.399 . S
C386 C385 1.399 . S
C386 C387 1.376 . S
C387 H374 0.930 . S
C387 C386 1.376 . S
C387 C388 1.388 . S
C388 H375 0.930 . S
C388 C387 1.388 . S
C388 C389 1.390 . S
C389 C388 1.390 . S
C389 C390 1.394 . S
C389 C395 1.465 . S
C390 C385 1.399 . S
C390 C389 1.394 . S
C390 C391 1.516 . S
C391 C390 1.516 . S
C391 C392 1.502 . S
C391 C393 1.561 . S
C391 C394 1.526 . S
C392 H376 0.959 . S
C392 H377 0.959 . S
C392 H378 0.961 . S
C392 C391 1.502 . S
C393 H379 0.960 . S
C393 H380 0.961 . S
C393 H381 0.959 . S
C393 C391 1.561 . S
C394 C391 1.526 . S
C394 C395 1.396 . S
C394 C399 1.390 . S
C395 C389 1.465 . S
C395 C394 1.396 . S
C395 C396 1.399 . S
C396 H382 0.929 . S
C396 C395 1.399 . S
C396 C397 1.385 . S
C397 H383 0.931 . S
C397 C396 1.385 . S
C397 C398 1.389 . S
C398 C397 1.389 . S
C398 C399 1.387 . S
C399 H384 0.930 . S
C399 C394 1.390 . S
C399 C398 1.387 . S
H400 C412 0.930 . S
H401 C414 0.930 . S
H402 C415 0.930 . S
H403 C419 0.959 . S
H404 C419 0.959 . S
H405 C419 0.961 . S
H406 C420 0.960 . S
H407 C420 0.961 . S
H408 C420 0.959 . S
H409 C423 0.929 . S
H410 C424 0.931 . S
H411 C426 0.930 . S
C412 H400 0.930 . S
C412 C413 1.399 1_556 S
C412 C417 1.399 . S
C413 C412 1.399 1_554 S
C413 C414 1.376 . S
C414 H401 0.930 . S
C414 C413 1.376 . S
C414 C415 1.388 . S
C415 H402 0.930 . S
C415 C414 1.388 . S
C415 C416 1.390 . S
C416 C415 1.390 . S
C416 C417 1.394 1_554 S
C416 C422 1.465 . S
C417 C412 1.399 . S
C417 C416 1.394 1_556 S
C417 C418 1.516 . S
C418 C417 1.516 . S
C418 C419 1.502 . S
C418 C420 1.561 . S
C418 C421 1.526 . S
C419 H403 0.959 . S
C419 H404 0.959 . S
C419 H405 0.961 . S
C419 C418 1.502 . S
C420 H406 0.960 . S
C420 H407 0.961 . S
C420 H408 0.959 . S
C420 C418 1.561 . S
C421 C418 1.526 . S
C421 C422 1.396 1_556 S
C421 C426 1.390 . S
C422 C416 1.465 . S
C422 C421 1.396 1_554 S
C422 C423 1.399 . S
C423 H409 0.929 . S
C423 C422 1.399 . S
C423 C424 1.385 . S
C424 H410 0.931 . S
C424 C423 1.385 . S
C424 C425 1.389 1_554 S
C425 C424 1.389 1_556 S
C425 C426 1.387 . S
C426 H411 0.930 . S
C426 C421 1.390 . S
C426 C425 1.387 . S
H427 C439 0.930 . S
H428 C441 0.930 . S
H429 C442 0.930 . S
H430 C446 0.959 . S
H431 C446 0.959 . S
H432 C446 0.961 1_565 S
H433 C447 0.965 . S
H434 C447 0.961 . S
H435 C447 0.959 . S
H436 C450 0.929 . S
H437 C451 0.931 . S
H438 C453 0.930 . S
C439 H427 0.930 . S
C439 C440 1.399 . S
C439 C444 1.399 . S
C440 C439 1.399 . S
C440 C441 1.376 1_554 S
C441 H428 0.930 . S
C441 C440 1.376 1_556 S
C441 C442 1.388 . S
C442 H429 0.930 . S
C442 C441 1.388 . S
C442 C443 1.390 . S
C443 C442 1.390 . S
C443 C444 1.394 1_556 S
C443 C449 1.465 1_565 S
C444 C439 1.399 . S
C444 C443 1.394 1_554 S
C444 C445 1.516 1_565 S
C445 C444 1.516 1_545 S
C445 C446 1.502 . S
C445 C447 1.561 . S
C445 C448 1.526 . S
C446 H430 0.959 . S
C446 H431 0.959 . S
C446 H432 0.961 1_545 S
C446 C445 1.502 . S
C447 H433 0.965 . S
C447 H434 0.961 . S
C447 H435 0.959 . S
C447 C445 1.561 . S
C448 C445 1.526 . S
C448 C449 1.396 1_554 S
C448 C453 1.390 . S
C449 C443 1.465 1_545 S
C449 C448 1.396 1_556 S
C449 C450 1.399 . S
C450 H436 0.929 . S
C450 C449 1.399 . S
C450 C451 1.385 . S
C451 H437 0.931 . S
C451 C450 1.385 . S
C451 C452 1.389 . S
C452 C451 1.389 . S
C452 C453 1.387 1_556 S
C453 H438 0.930 . S
C453 C448 1.390 . S
C453 C452 1.387 1_554 S
H454 C466 0.930 . S
H455 C468 0.930 . S
H456 C469 0.930 . S
H457 C473 0.959 . S
H458 C473 0.959 . S
H459 C473 0.961 . S
H460 C474 0.960 . S
H461 C474 0.961 . S
H462 C474 0.959 . S
H463 C477 0.929 . S
H464 C478 0.931 . S
H465 C480 0.930 . S
C466 H454 0.930 . S
C466 C467 1.399 . S
C466 C471 1.399 . S
C467 C466 1.399 . S
C467 C468 1.376 . S
C468 H455 0.930 . S
C468 C467 1.376 . S
C468 C469 1.388 . S
C469 H456 0.930 . S
C469 C468 1.388 . S
C469 C470 1.390 . S
C470 C469 1.390 . S
C470 C471 1.394 . S
C470 C476 1.465 . S
C471 C466 1.399 . S
C471 C470 1.394 . S
C471 C472 1.516 1_556 S
C472 C471 1.516 1_554 S
C472 C473 1.502 . S
C472 C474 1.561 1_554 S
C472 C475 1.526 . S
C473 H457 0.959 . S
C473 H458 0.959 . S
C473 H459 0.961 . S
C473 C472 1.502 . S
C474 H460 0.960 . S
C474 H461 0.961 . S
C474 H462 0.959 . S
C474 C472 1.561 1_556 S
C475 C472 1.526 . S
C475 C476 1.396 1_554 S
C475 C480 1.390 . S
C476 C470 1.465 . S
C476 C475 1.396 1_556 S
C476 C477 1.399 . S
C477 H463 0.929 . S
C477 C476 1.399 . S
C477 C478 1.385 1_556 S
C478 H464 0.931 . S
C478 C477 1.385 1_554 S
C478 C479 1.389 . S
C479 C478 1.389 . S
C479 C480 1.387 . S
C480 H465 0.930 . S
C480 C475 1.390 . S
C480 C479 1.387 . S
H481 C493 0.930 . S
H482 C495 0.930 . S
H483 C496 0.930 . S
H484 C500 0.959 . S
H485 C500 0.959 1_565 S
H486 C500 0.961 . S
H487 C501 0.960 . S
H488 C501 0.961 . S
H489 C501 0.959 . S
H490 C504 0.929 . S
H491 C505 0.931 . S
H492 C507 0.930 . S
C493 H481 0.930 . S
C493 C494 1.399 1_554 S
C493 C498 1.399 . S
C494 C493 1.399 1_556 S
C494 C495 1.376 . S
C495 H482 0.930 . S
C495 C494 1.376 . S
C495 C496 1.388 . S
C496 H483 0.930 . S
C496 C495 1.388 . S
C496 C497 1.390 . S
C497 C496 1.390 . S
C497 C498 1.394 1_556 S
C497 C503 1.465 1_545 S
C498 C493 1.399 . S
C498 C497 1.394 1_554 S
C498 C499 1.516 . S
C499 C498 1.516 . S
C499 C500 1.502 . S
C499 C501 1.561 . S
C499 C502 1.526 1_545 S
C500 H484 0.959 . S
C500 H485 0.959 1_545 S
C500 H486 0.961 . S
C500 C499 1.502 . S
C501 H487 0.960 . S
C501 H488 0.961 . S
C501 H489 0.959 . S
C501 C499 1.561 . S
C502 C499 1.526 1_565 S
C502 C503 1.396 1_554 S
C502 C507 1.390 . S
C503 C497 1.465 1_565 S
C503 C502 1.396 1_556 S
C503 C504 1.399 . S
C504 H490 0.929 . S
C504 C503 1.399 . S
C504 C505 1.385 . S
C505 H491 0.931 . S
C505 C504 1.385 . S
C505 C506 1.389 1_556 S
C506 C505 1.389 1_554 S
C506 C507 1.387 . S
C507 H492 0.930 . S
C507 C502 1.390 . S
C507 C506 1.387 . S
H508 C520 0.930 . S
H509 C522 0.930 . S
H510 C523 0.930 . S
H511 C527 0.959 . S
H512 C527 0.959 . S
H513 C527 0.961 . S
H514 C528 0.960 . S
H515 C528 0.961 . S
H516 C528 0.959 . S
H517 C531 0.929 . S
H518 C532 0.931 . S
H519 C534 0.930 . S
C520 H508 0.930 . S
C520 C521 1.399 . S
C520 C525 1.399 . S
C521 C520 1.399 . S
C521 C522 1.376 . S
C522 H509 0.930 . S
C522 C521 1.376 . S
C522 C523 1.388 . S
C523 H510 0.930 . S
C523 C522 1.388 . S
C523 C524 1.390 . S
C524 C523 1.390 . S
C524 C525 1.394 . S
C524 C530 1.465 . S
C525 C520 1.399 . S
C525 C524 1.394 . S
C525 C526 1.516 . S
C526 C525 1.516 . S
C526 C527 1.502 . S
C526 C528 1.561 . S
C526 C529 1.526 . S
C527 H511 0.959 . S
C527 H512 0.959 . S
C527 H513 0.961 . S
C527 C526 1.502 . S
C528 H514 0.960 . S
C528 H515 0.961 . S
C528 H516 0.959 . S
C528 C526 1.561 . S
C529 C526 1.526 . S
C529 C530 1.396 . S
C529 C534 1.390 1_554 S
C530 C524 1.465 . S
C530 C529 1.396 . S
C530 C531 1.399 . S
C531 H517 0.929 . S
C531 C530 1.399 . S
C531 C532 1.385 1_554 S
C532 H518 0.931 . S
C532 C531 1.385 1_556 S
C532 C533 1.389 . S
C533 C532 1.389 . S
C533 C534 1.387 . S
C534 H519 0.930 . S
C534 C529 1.390 1_556 S
C534 C533 1.387 . S
H535 C547 0.930 . S
H536 C549 0.930 . S
H537 C550 0.930 . S
H538 C554 0.959 . S
H539 C554 0.959 . S
H540 C554 0.961 . S
H541 C555 0.960 . S
H542 C555 0.961 . S
H543 C555 0.959 . S
H544 C558 0.929 . S
H545 C559 0.931 . S
H546 C561 0.930 . S
C547 H535 0.930 . S
C547 C548 1.399 . S
C547 C552 1.399 . S
C548 C547 1.399 . S
C548 C549 1.376 . S
C549 H536 0.930 . S
C549 C548 1.376 . S
C549 C550 1.388 . S
C550 H537 0.930 . S
C550 C549 1.388 . S
C550 C551 1.390 . S
C551 C550 1.390 . S
C551 C552 1.394 . S
C551 C557 1.465 . S
C552 C547 1.399 . S
C552 C551 1.394 . S
C552 C553 1.516 . S
C553 C552 1.516 . S
C553 C554 1.502 . S
C553 C555 1.561 . S
C553 C556 1.526 . S
C554 H538 0.959 . S
C554 H539 0.959 . S
C554 H540 0.961 . S
C554 C553 1.502 . S
C555 H541 0.960 . S
C555 H542 0.961 . S
C555 H543 0.959 . S
C555 C553 1.561 . S
C556 C553 1.526 . S
C556 C557 1.396 . S
C556 C561 1.390 1_554 S
C557 C551 1.465 . S
C557 C556 1.396 . S
C557 C558 1.399 . S
C558 H544 0.929 . S
C558 C557 1.399 . S
C558 C559 1.385 1_554 S
C559 H545 0.931 . S
C559 C558 1.385 1_556 S
C559 C560 1.389 . S
C560 C559 1.389 . S
C560 C561 1.387 . S
C561 H546 0.930 . S
C561 C556 1.390 1_556 S
C561 C560 1.387 . S
H562 C574 0.930 . S
H563 C576 0.930 . S
H564 C577 0.930 . S
H565 C581 0.959 . S
H566 C581 0.959 . S
H567 C581 0.961 . S
H568 C582 0.960 . S
H569 C582 0.961 . S
H570 C582 0.959 . S
H571 C585 0.929 . S
H572 C586 0.931 . S
H573 C588 0.930 . S
C574 H562 0.930 . S
C574 C575 1.399 . S
C574 C579 1.399 1_554 S
C575 C574 1.399 . S
C575 C576 1.376 . S
C576 H563 0.930 . S
C576 C575 1.376 . S
C576 C577 1.388 1_554 S
C577 H564 0.930 . S
C577 C576 1.388 1_556 S
C577 C578 1.390 . S
C578 C577 1.390 . S
C578 C579 1.394 . S
C578 C584 1.465 . S
C579 C574 1.399 1_556 S
C579 C578 1.394 . S
C579 C580 1.516 . S
C580 C579 1.516 . S
C580 C581 1.502 . S
C580 C582 1.561 . S
C580 C583 1.526 . S
C581 H565 0.959 . S
C581 H566 0.959 . S
C581 H567 0.961 . S
C581 C580 1.502 . S
C582 H568 0.960 . S
C582 H569 0.961 . S
C582 H570 0.959 . S
C582 C580 1.561 . S
C583 C580 1.526 . S
C583 C584 1.396 . S
C583 C588 1.390 . S
C584 C578 1.465 . S
C584 C583 1.396 . S
C584 C585 1.399 . S
C585 H571 0.929 . S
C585 C584 1.399 . S
C585 C586 1.385 . S
C586 H572 0.931 . S
C586 C585 1.385 . S
C586 C587 1.389 . S
C587 C586 1.389 . S
C587 C588 1.387 . S
C588 H573 0.930 . S
C588 C583 1.390 . S
C588 C587 1.387 . S
H589 C601 0.930 . S
H590 C603 0.930 . S
H591 C604 0.930 . S
H592 C608 0.959 . S
H593 C608 0.959 . S
H594 C608 0.961 . S
H595 C609 0.960 . S
H596 C609 0.961 . S
H597 C609 0.959 . S
H598 C612 0.929 . S
H599 C613 0.931 . S
H600 C615 0.930 . S
C601 H589 0.930 . S
C601 C602 1.399 . S
C601 C606 1.399 . S
C602 C601 1.399 . S
C602 C603 1.376 . S
C603 H590 0.930 . S
C603 C602 1.376 . S
C603 C604 1.388 . S
C604 H591 0.930 . S
C604 C603 1.388 . S
C604 C605 1.390 . S
C605 C604 1.390 . S
C605 C606 1.394 . S
C605 C611 1.465 . S
C606 C601 1.399 . S
C606 C605 1.394 . S
C606 C607 1.516 . S
C607 C606 1.516 . S
C607 C608 1.502 . S
C607 C609 1.561 . S
C607 C610 1.526 . S
C608 H592 0.959 . S
C608 H593 0.959 . S
C608 H594 0.961 . S
C608 C607 1.502 . S
C609 H595 0.960 . S
C609 H596 0.961 . S
C609 H597 0.959 . S
C609 C607 1.561 . S
C610 C607 1.526 . S
C610 C611 1.396 . S
C610 C615 1.390 1_556 S
C611 C605 1.465 . S
C611 C610 1.396 . S
C611 C612 1.399 . S
C612 H598 0.929 . S
C612 C611 1.399 . S
C612 C613 1.385 1_556 S
C613 H599 0.931 . S
C613 C612 1.385 1_554 S
C613 C614 1.389 . S
C614 C613 1.389 . S
C614 C615 1.387 . S
C615 H600 0.930 . S
C615 C610 1.390 1_554 S
C615 C614 1.387 . S
H616 C628 0.930 . S
H617 C630 0.930 . S
H618 C631 0.930 . S
H619 C635 0.959 . S
H620 C635 0.959 . S
H621 C635 0.961 . S
H622 C636 0.960 . S
H623 C636 0.961 . S
H624 C636 0.959 . S
H625 C639 0.929 . S
H626 C640 0.931 . S
H627 C642 0.930 . S
C628 H616 0.930 . S
C628 C629 1.399 . S
C628 C633 1.399 . S
C629 C628 1.399 . S
C629 C630 1.376 . S
C630 H617 0.930 . S
C630 C629 1.376 . S
C630 C631 1.388 . S
C631 H618 0.930 . S
C631 C630 1.388 . S
C631 C632 1.390 . S
C632 C631 1.390 . S
C632 C633 1.394 . S
C632 C638 1.465 . S
C633 C628 1.399 . S
C633 C632 1.394 . S
C633 C634 1.516 . S
C634 C633 1.516 . S
C634 C635 1.502 . S
C634 C636 1.561 . S
C634 C637 1.526 . S
C635 H619 0.959 . S
C635 H620 0.959 . S
C635 H621 0.961 . S
C635 C634 1.502 . S
C636 H622 0.960 . S
C636 H623 0.961 . S
C636 H624 0.959 . S
C636 C634 1.561 . S
C637 C634 1.526 . S
C637 C638 1.396 . S
C637 C642 1.390 . S
C638 C632 1.465 . S
C638 C637 1.396 . S
C638 C639 1.399 . S
C639 H625 0.929 . S
C639 C638 1.399 . S
C639 C640 1.385 . S
C640 H626 0.931 . S
C640 C639 1.385 . S
C640 C641 1.389 . S
C641 C640 1.389 . S
C641 C642 1.387 . S
C642 H627 0.930 . S
C642 C637 1.390 . S
C642 C641 1.387 . S
H643 C655 0.930 . S
H644 C657 0.930 . S
H645 C658 0.930 . S
H646 C662 0.959 . S
H647 C662 0.959 . S
H648 C662 0.961 . S
H649 C663 0.960 . S
H650 C663 0.961 . S
H651 C663 0.959 . S
H652 C666 0.929 . S
H653 C667 0.931 . S
H654 C669 0.930 . S
C655 H643 0.930 . S
C655 C656 1.399 . S
C655 C660 1.399 . S
C656 C655 1.399 . S
C656 C657 1.376 . S
C657 H644 0.930 . S
C657 C656 1.376 . S
C657 C658 1.388 . S
C658 H645 0.930 . S
C658 C657 1.388 . S
C658 C659 1.390 . S
C659 C658 1.390 . S
C659 C660 1.394 . S
C659 C665 1.465 . S
C660 C655 1.399 . S
C660 C659 1.394 . S
C660 C661 1.516 . S
C661 C660 1.516 . S
C661 C662 1.502 . S
C661 C663 1.561 . S
C661 C664 1.526 . S
C662 H646 0.959 . S
C662 H647 0.959 . S
C662 H648 0.961 . S
C662 C661 1.502 . S
C663 H649 0.960 . S
C663 H650 0.961 . S
C663 H651 0.959 . S
C663 C661 1.561 . S
C664 C661 1.526 . S
C664 C665 1.396 . S
C664 C669 1.390 . S
C665 C659 1.465 . S
C665 C664 1.396 . S
C665 C666 1.399 . S
C666 H652 0.929 . S
C666 C665 1.399 . S
C666 C667 1.385 . S
C667 H653 0.931 . S
C667 C666 1.385 . S
C667 C668 1.389 . S
C668 C667 1.389 . S
C668 C669 1.387 . S
C669 H654 0.930 . S
C669 C664 1.390 . S
C669 C668 1.387 . S
H670 C682 0.930 . S
H671 C684 0.930 . S
H672 C685 0.930 . S
H673 C689 0.959 . S
H674 C689 0.959 . S
H675 C689 0.961 . S
H676 C690 0.960 . S
H677 C690 0.961 . S
H678 C690 0.959 . S
H679 C693 0.929 . S
H680 C694 0.931 . S
H681 C696 0.930 . S
C682 H670 0.930 . S
C682 C683 1.399 . S
C682 C687 1.399 . S
C683 C682 1.399 . S
C683 C684 1.376 . S
C684 H671 0.930 . S
C684 C683 1.376 . S
C684 C685 1.388 . S
C685 H672 0.930 . S
C685 C684 1.388 . S
C685 C686 1.390 . S
C686 C685 1.390 . S
C686 C687 1.394 . S
C686 C692 1.465 . S
C687 C682 1.399 . S
C687 C686 1.394 . S
C687 C688 1.516 . S
C688 C687 1.516 . S
C688 C689 1.502 . S
C688 C690 1.561 . S
C688 C691 1.526 . S
C689 H673 0.959 . S
C689 H674 0.959 . S
C689 H675 0.961 . S
C689 C688 1.502 . S
C690 H676 0.960 . S
C690 H677 0.961 . S
C690 H678 0.959 . S
C690 C688 1.561 . S
C691 C688 1.526 . S
C691 C692 1.396 . S
C691 C696 1.390 . S
C692 C686 1.465 . S
C692 C691 1.396 . S
C692 C693 1.399 . S
C693 H679 0.929 . S
C693 C692 1.399 . S
C693 C694 1.385 . S
C694 H680 0.931 . S
C694 C693 1.385 . S
C694 C695 1.389 . S
C695 C694 1.389 . S
C695 C696 1.387 . S
C696 H681 0.930 . S
C696 C691 1.390 . S
C696 C695 1.387 . S
H697 C709 0.930 . S
H698 C711 0.930 . S
H699 C712 0.930 . S
H700 C716 0.959 . S
H701 C716 0.959 . S
H702 C716 0.961 . S
H703 C717 0.960 . S
H704 C717 0.961 . S
H705 C717 0.959 . S
H706 C720 0.929 . S
H707 C721 0.931 . S
H708 C723 0.930 . S
C709 H697 0.930 . S
C709 C710 1.399 . S
C709 C714 1.399 . S
C710 C709 1.399 . S
C710 C711 1.376 . S
C711 H698 0.930 . S
C711 C710 1.376 . S
C711 C712 1.388 . S
C712 H699 0.930 . S
C712 C711 1.388 . S
C712 C713 1.390 . S
C713 C712 1.390 . S
C713 C714 1.394 . S
C713 C719 1.465 . S
C714 C709 1.399 . S
C714 C713 1.394 . S
C714 C715 1.516 . S
C715 C714 1.516 . S
C715 C716 1.502 . S
C715 C717 1.561 . S
C715 C718 1.526 . S
C716 H700 0.959 . S
C716 H701 0.959 . S
C716 H702 0.961 . S
C716 C715 1.502 . S
C717 H703 0.960 . S
C717 H704 0.961 . S
C717 H705 0.959 . S
C717 C715 1.561 . S
C718 C715 1.526 . S
C718 C719 1.396 . S
C718 C723 1.390 . S
C719 C713 1.465 . S
C719 C718 1.396 . S
C719 C720 1.399 . S
C720 H706 0.929 . S
C720 C719 1.399 . S
C720 C721 1.385 . S
C721 H707 0.931 . S
C721 C720 1.385 . S
C721 C722 1.389 . S
C722 C721 1.389 . S
C722 C723 1.387 . S
C723 H708 0.930 . S
C723 C718 1.390 . S
C723 C722 1.387 . S
H724 C736 0.930 . S
H725 C738 0.930 . S
H726 C739 0.930 . S
H727 C743 0.964 . S
H728 C743 0.992 . S
H729 C743 0.926 1_455 S
H730 C744 0.962 1_455 S
H731 C744 0.959 . S
H732 C744 0.959 . S
H733 C747 0.929 . S
H734 C748 0.931 . S
H735 C750 0.930 . S
C736 H724 0.930 . S
C736 C737 1.399 . S
C736 C741 1.399 . S
C737 C736 1.399 . S
C737 C738 1.376 . S
C738 H725 0.930 . S
C738 C737 1.376 . S
C738 C739 1.388 . S
C739 H726 0.930 . S
C739 C738 1.388 . S
C739 C740 1.390 . S
C740 C739 1.390 . S
C740 C741 1.394 . S
C740 C746 1.465 1_455 S
C741 C736 1.399 . S
C741 C740 1.394 . S
C741 C742 1.514 1_455 S
C742 C741 1.514 1_655 S
C742 C743 1.501 . S
C742 C744 1.561 . S
C742 C745 1.528 . S
C743 H727 0.964 . S
C743 H728 0.992 . S
C743 H729 0.926 1_655 S
C743 C742 1.501 . S
C744 H730 0.962 1_655 S
C744 H731 0.959 . S
C744 H732 0.959 . S
C744 C742 1.561 . S
C745 C742 1.528 . S
C745 C746 1.396 . S
C745 C750 1.390 . S
C746 C740 1.465 1_655 S
C746 C745 1.396 . S
C746 C747 1.399 . S
C747 H733 0.929 . S
C747 C746 1.399 . S
C747 C748 1.385 . S
C748 H734 0.931 . S
C748 C747 1.385 . S
C748 C749 1.389 . S
C749 C748 1.389 . S
C749 C750 1.387 . S
C750 H735 0.930 . S
C750 C745 1.390 . S
C750 C749 1.387 . S
H751 C763 0.930 . S
H752 C765 0.930 . S
H753 C766 0.930 . S
H754 C770 0.965 . S
H755 C770 0.996 . S
H756 C770 0.921 1_655 S
H757 C771 0.954 1_655 S
H758 C771 0.966 . S
H759 C771 0.959 . S
H760 C774 0.929 . S
H761 C775 0.931 . S
H762 C777 0.930 . S
C763 H751 0.930 . S
C763 C764 1.399 . S
C763 C768 1.399 . S
C764 C763 1.399 . S
C764 C765 1.376 . S
C765 H752 0.930 . S
C765 C764 1.376 . S
C765 C766 1.388 . S
C766 H753 0.930 . S
C766 C765 1.388 . S
C766 C767 1.390 . S
C767 C766 1.390 . S
C767 C768 1.394 . S
C767 C773 1.465 1_655 S
C768 C763 1.399 . S
C768 C767 1.394 . S
C768 C769 1.511 1_655 S
C769 C768 1.511 1_455 S
C769 C770 1.501 . S
C769 C771 1.561 . S
C769 C772 1.531 . S
C770 H754 0.965 . S
C770 H755 0.996 . S
C770 H756 0.921 1_455 S
C770 C769 1.501 . S
C771 H757 0.954 1_455 S
C771 H758 0.966 . S
C771 H759 0.959 . S
C771 C769 1.561 . S
C772 C769 1.531 . S
C772 C773 1.396 . S
C772 C777 1.390 . S
C773 C767 1.465 1_455 S
C773 C772 1.396 . S
C773 C774 1.399 . S
C774 H760 0.929 . S
C774 C773 1.399 . S
C774 C775 1.385 . S
C775 H761 0.931 . S
C775 C774 1.385 . S
C775 C776 1.389 . S
C776 C775 1.389 . S
C776 C777 1.387 . S
C777 H762 0.930 . S
C777 C772 1.390 . S
C777 C776 1.387 . S
H778 C790 0.930 . S
H779 C792 0.930 . S
H780 C793 0.930 1_556 S
H781 C797 0.959 . S
H782 C797 0.959 . S
H783 C797 0.961 . S
H784 C798 0.960 . S
H785 C798 0.961 . S
H786 C798 0.959 . S
H787 C801 0.929 1_556 S
H788 C802 0.931 . S
H789 C804 0.930 . S
C790 H778 0.930 . S
C790 C791 1.399 . S
C790 C795 1.399 . S
C791 C790 1.399 . S
C791 C792 1.376 . S
C792 H779 0.930 . S
C792 C791 1.376 . S
C792 C793 1.388 . S
C793 H780 0.930 1_554 S
C793 C792 1.388 . S
C793 C794 1.390 . S
C794 C793 1.390 . S
C794 C795 1.394 . S
C794 C800 1.465 . S
C795 C790 1.399 . S
C795 C794 1.394 . S
C795 C796 1.516 . S
C796 C795 1.516 . S
C796 C797 1.502 . S
C796 C798 1.561 . S
C796 C799 1.526 . S
C797 H781 0.959 . S
C797 H782 0.959 . S
C797 H783 0.961 . S
C797 C796 1.502 . S
C798 H784 0.960 . S
C798 H785 0.961 . S
C798 H786 0.959 . S
C798 C796 1.561 . S
C799 C796 1.526 . S
C799 C800 1.396 . S
C799 C804 1.390 . S
C800 C794 1.465 . S
C800 C799 1.396 . S
C800 C801 1.399 . S
C801 H787 0.929 1_554 S
C801 C800 1.399 . S
C801 C802 1.385 . S
C802 H788 0.931 . S
C802 C801 1.385 . S
C802 C803 1.389 . S
C803 C802 1.389 . S
C803 C804 1.387 . S
C804 H789 0.930 . S
C804 C799 1.390 . S
C804 C803 1.387 . S
H805 C817 0.930 . S
H806 C819 0.930 . S
H807 C820 0.930 . S
H808 C824 0.959 . S
H809 C824 0.959 1_554 S
H810 C824 0.961 . S
H811 C825 0.960 . S
H812 C825 0.961 . S
H813 C825 0.959 . S
H814 C828 0.929 . S
H815 C829 0.931 . S
H816 C831 0.930 . S
C817 H805 0.930 . S
C817 C818 1.399 . S
C817 C822 1.399 . S
C818 C817 1.399 . S
C818 C819 1.376 . S
C819 H806 0.930 . S
C819 C818 1.376 . S
C819 C820 1.388 . S
C820 H807 0.930 . S
C820 C819 1.388 . S
C820 C821 1.390 . S
C821 C820 1.390 . S
C821 C822 1.394 . S
C821 C827 1.465 . S
C822 C817 1.399 . S
C822 C821 1.394 . S
C822 C823 1.516 . S
C823 C822 1.516 . S
C823 C824 1.502 . S
C823 C825 1.561 1_556 S
C823 C826 1.526 . S
C824 H808 0.959 . S
C824 H809 0.959 1_556 S
C824 H810 0.961 . S
C824 C823 1.502 . S
C825 H811 0.960 . S
C825 H812 0.961 . S
C825 H813 0.959 . S
C825 C823 1.561 1_554 S
C826 C823 1.526 . S
C826 C827 1.396 . S
C826 C831 1.390 . S
C827 C821 1.465 . S
C827 C826 1.396 . S
C827 C828 1.399 . S
C828 H814 0.929 . S
C828 C827 1.399 . S
C828 C829 1.385 . S
C829 H815 0.931 . S
C829 C828 1.385 . S
C829 C830 1.389 . S
C830 C829 1.389 . S
C830 C831 1.387 . S
C831 H816 0.930 . S
C831 C826 1.390 . S
C831 C830 1.387 . S
C197 C18 1.448 . S
C209 C179 1.470 . S
C224 C156 1.455 . S
C236 C41 1.473 . S
C251 C133 1.444 . S
C263 C64 1.424 . S
C278 C110 1.431 . S
C290 C87 1.423 . S
C305 C66 1.556 . S
C317 C20 1.566 . S
C332 C43 1.574 . S
C344 C89 1.576 . S
C359 C88 1.514 . S
C371 C42 1.496 . S
C386 C65 1.518 . S
C398 C19 1.496 . S
C413 C112 1.564 . S
C425 C158 1.572 . S
C440 C135 1.554 . S
C452 C181 1.547 . S
C467 C180 1.496 . S
C479 C134 1.513 . S
C494 C157 1.511 . S
C506 C111 1.528 . S
C521 C17 1.380 . S
C533 C16 1.377 . S
C548 C40 1.382 . S
C560 C39 1.374 . S
C575 C62 1.368 . S
C587 C63 1.385 . S
C602 C86 1.376 . S
C614 C85 1.381 . S
C629 C108 1.386 . S
C641 C109 1.373 . S
C656 C132 1.381 . S
C668 C131 1.376 . S
C683 C155 1.375 . S
C695 C154 1.382 . S
C710 C178 1.376 . S
C722 C177 1.381 . S
C737 C21 1.485 . S
C749 C44 1.477 . S
C764 C90 1.479 . S
C776 C67 1.468 . S
C791 C113 1.434 . S
C803 C136 1.442 . S
C818 C182 1.483 . S
C830 C159 1.473 . S
