# Generated by pormake.
# Topology und, (4)-cn, num edge types: 1
# Building blocks:
#     Node 0, Type 0, BuildingBlock: CEKHIL_clean_sbu_0, # of connection points: 4
#     Node 1, Type 0, BuildingBlock: CEKHIL_clean_sbu_0, # of connection points: 4
#     Node 2, Type 0, BuildingBlock: CEKHIL_clean_sbu_0, # of connection points: 4
#     Node 3, Type 0, BuildingBlock: CEKHIL_clean_sbu_0, # of connection points: 4
#     Node 4, Type 0, BuildingBlock: CEKHIL_clean_sbu_0, # of connection points: 4
#     Node 5, Type 0, BuildingBlock: CEKHIL_clean_sbu_0, # of connection points: 4
#     Node 6, Type 0, BuildingBlock: CEKHIL_clean_sbu_0, # of connection points: 4
#     Node 7, Type 0, BuildingBlock: CEKHIL_clean_sbu_0, # of connection points: 4
#     Node 8, Type 0, BuildingBlock: CEKHIL_clean_sbu_0, # of connection points: 4
#     Node 9, Type 0, BuildingBlock: CEKHIL_clean_sbu_0, # of connection points: 4
#     Node 10, Type 0, BuildingBlock: CEKHIL_clean_sbu_0, # of connection points: 4
#     Node 11, Type 0, BuildingBlock: CEKHIL_clean_sbu_0, # of connection points: 4
#     Node 12, Type 0, BuildingBlock: CEKHIL_clean_sbu_0, # of connection points: 4
#     Node 13, Type 0, BuildingBlock: CEKHIL_clean_sbu_0, # of connection points: 4
#     Node 14, Type 0, BuildingBlock: CEKHIL_clean_sbu_0, # of connection points: 4
#     Node 15, Type 0, BuildingBlock: CEKHIL_clean_sbu_0, # of connection points: 4
#     Edge 16, Type (0, 0), BuildingBlock: OJICUG_clean_linker_0, # of connection points: 2
#     Edge 17, Type (0, 0), BuildingBlock: OJICUG_clean_linker_0, # of connection points: 2
#     Edge 18, Type (0, 0), BuildingBlock: OJICUG_clean_linker_0, # of connection points: 2
#     Edge 19, Type (0, 0), BuildingBlock: OJICUG_clean_linker_0, # of connection points: 2
#     Edge 20, Type (0, 0), BuildingBlock: OJICUG_clean_linker_0, # of connection points: 2
#     Edge 21, Type (0, 0), BuildingBlock: OJICUG_clean_linker_0, # of connection points: 2
#     Edge 22, Type (0, 0), BuildingBlock: OJICUG_clean_linker_0, # of connection points: 2
#     Edge 23, Type (0, 0), BuildingBlock: OJICUG_clean_linker_0, # of connection points: 2
#     Edge 24, Type (0, 0), BuildingBlock: OJICUG_clean_linker_0, # of connection points: 2
#     Edge 25, Type (0, 0), BuildingBlock: OJICUG_clean_linker_0, # of connection points: 2
#     Edge 26, Type (0, 0), BuildingBlock: OJICUG_clean_linker_0, # of connection points: 2
#     Edge 27, Type (0, 0), BuildingBlock: OJICUG_clean_linker_0, # of connection points: 2
#     Edge 28, Type (0, 0), BuildingBlock: OJICUG_clean_linker_0, # of connection points: 2
#     Edge 29, Type (0, 0), BuildingBlock: OJICUG_clean_linker_0, # of connection points: 2
#     Edge 30, Type (0, 0), BuildingBlock: OJICUG_clean_linker_0, # of connection points: 2
#     Edge 31, Type (0, 0), BuildingBlock: OJICUG_clean_linker_0, # of connection points: 2
#     Edge 32, Type (0, 0), BuildingBlock: OJICUG_clean_linker_0, # of connection points: 2
#     Edge 33, Type (0, 0), BuildingBlock: OJICUG_clean_linker_0, # of connection points: 2
#     Edge 34, Type (0, 0), BuildingBlock: OJICUG_clean_linker_0, # of connection points: 2
#     Edge 35, Type (0, 0), BuildingBlock: OJICUG_clean_linker_0, # of connection points: 2
#     Edge 36, Type (0, 0), BuildingBlock: OJICUG_clean_linker_0, # of connection points: 2
#     Edge 37, Type (0, 0), BuildingBlock: OJICUG_clean_linker_0, # of connection points: 2
#     Edge 38, Type (0, 0), BuildingBlock: OJICUG_clean_linker_0, # of connection points: 2
#     Edge 39, Type (0, 0), BuildingBlock: OJICUG_clean_linker_0, # of connection points: 2
#     Edge 40, Type (0, 0), BuildingBlock: OJICUG_clean_linker_0, # of connection points: 2
#     Edge 41, Type (0, 0), BuildingBlock: OJICUG_clean_linker_0, # of connection points: 2
#     Edge 42, Type (0, 0), BuildingBlock: OJICUG_clean_linker_0, # of connection points: 2
#     Edge 43, Type (0, 0), BuildingBlock: OJICUG_clean_linker_0, # of connection points: 2
#     Edge 44, Type (0, 0), BuildingBlock: OJICUG_clean_linker_0, # of connection points: 2
#     Edge 45, Type (0, 0), BuildingBlock: OJICUG_clean_linker_0, # of connection points: 2
#     Edge 46, Type (0, 0), BuildingBlock: OJICUG_clean_linker_0, # of connection points: 2
#     Edge 47, Type (0, 0), BuildingBlock: OJICUG_clean_linker_0, # of connection points: 2
# Relax obj value: 0.007
# Max RMSD: 0.041
# Mean RMSD: 0.041
data_MOF--net-und--node1-CEKHIL_clean_sbu_0--edge1-OJICUG_clean_linker_0
_symmetry_space_group_name_H-M    P1
_symmetry_Int_Tables_number       1
_symmetry_cell_setting            triclinic
loop_
_symmetry_equiv_pos_as_xyz
'x, y, z'
_cell_length_a     43.872607
_cell_length_b     43.586558
_cell_length_c     15.510809
_cell_angle_alpha  89.981398
_cell_angle_beta   89.971803
_cell_angle_gamma 92.989657
loop_
_atom_site_label
_atom_site_type_symbol
_atom_site_fract_x
_atom_site_fract_y
_atom_site_fract_z
_atom_type_partial_charge
Co0 Co 0.23846 0.35739 0.07548 0.0
O1 O 0.22854 0.38724 0.16107 0.0
O2 O 0.20429 0.38077 0.03708 0.0
C3 C 0.24162 0.31884 0.17097 0.0
O4 O 0.24229 0.32744 0.97356 0.0
Co5 Co 0.30066 0.32606 0.08621 0.0
O6 O 0.28294 0.29883 0.99516 0.0
C7 C 0.29758 0.38811 1.00981 0.0
C8 C 0.2066 0.39488 0.1111 0.0
C9 C 0.25945 0.30537 0.95193 0.0
O10 O 0.26844 0.38752 1.01851 0.0
O11 O 0.31435 0.3669 0.03647 0.0
O12 O 0.21534 0.32574 0.14018 0.0
O13 O 0.2646 0.33666 0.14806 0.0
Co14 Co 0.91069 0.02609 0.26482 0.0
O15 O 0.88095 0.03558 0.17888 0.0
O16 O 0.88591 0.05912 0.30461 0.0
C17 C 0.94928 0.02514 0.16952 0.0
O18 O 0.94034 0.02294 0.36726 0.0
Co19 Co 0.94513 0.96547 0.25155 0.0
O20 O 0.97101 0.98385 0.34442 0.0
C21 C 0.88097 0.96432 0.31222 0.0
C22 C 0.87239 0.05698 0.22985 0.0
C23 C 0.96325 0.00691 0.38831 0.0
O24 O 0.88169 0.99383 0.31743 0.0
O25 O 0.90269 0.9495 0.27983 0.0
O26 O 0.94154 0.05109 0.20192 0.0
O27 O 0.93253 0.00132 0.19168 0.0
Co28 Co 0.25391 0.6834 0.57583 0.0
O29 O 0.26317 0.65292 0.66037 0.0
O30 O 0.28759 0.65953 0.53656 0.0
C31 C 0.25169 0.72151 0.67311 0.0
O32 O 0.2509 0.71391 0.47488 0.0
Co33 Co 0.19297 0.71702 0.58782 0.0
O34 O 0.21167 0.74423 0.49821 0.0
C35 C 0.19428 0.65553 0.50554 0.0
C36 C 0.28512 0.64527 0.61034 0.0
C37 C 0.23469 0.73681 0.45424 0.0
O38 O 0.22318 0.65426 0.5177 0.0
O39 O 0.17845 0.67754 0.53192 0.0
O40 O 0.27775 0.71419 0.64171 0.0
O41 O 0.2283 0.70446 0.64935 0.0
Co42 Co 0.58458 0.01418 0.76439 0.0
O43 O 0.6143 0.00464 0.67839 0.0
O44 O 0.60924 0.98105 0.80411 0.0
C45 C 0.54602 0.01535 0.66926 0.0
O46 O 0.55496 0.01743 0.86688 0.0
Co47 Co 0.5505 0.07503 0.75131 0.0
O48 O 0.52455 0.05674 0.8443 0.0
C49 C 0.61464 0.07577 0.81157 0.0
C50 C 0.62281 0.98321 0.72937 0.0
C51 C 0.53216 0.0336 0.88807 0.0
O52 O 0.6137 0.04626 0.81699 0.0
O53 O 0.59305 0.09075 0.77913 0.0
O54 O 0.55365 0.98934 0.70153 0.0
O55 O 0.56287 0.0391 0.69138 0.0
Co56 Co 0.75373 0.68269 1.01575 0.0
O57 O 0.76281 0.65213 0.93126 0.0
O58 O 0.78729 0.65864 0.05491 0.0
C59 C 0.75164 0.72083 0.9184 0.0
O60 O 0.75089 0.71324 0.11667 0.0
Co61 Co 0.69293 0.71654 1.00404 0.0
O62 O 0.71178 0.74371 0.09339 0.0
C63 C 0.69403 0.65505 0.08642 0.0
C64 C 0.78469 0.64434 0.98125 0.0
C65 C 0.73478 0.73622 0.13729 0.0
O66 O 0.72291 0.65368 0.0741 0.0
O67 O 0.67827 0.67711 0.06009 0.0
O68 O 0.77768 0.71339 0.94964 0.0
O69 O 0.72819 0.70386 0.94233 0.0
Co70 Co 0.08451 0.01485 0.82668 0.0
O71 O 0.11414 0.00526 0.91277 0.0
O72 O 0.10912 0.98167 0.78711 0.0
C73 C 0.04586 0.01607 0.92167 0.0
O74 O 0.05495 0.01811 0.72412 0.0
Co75 Co 0.05058 0.07576 0.8393 0.0
O76 O 0.02458 0.05746 0.74651 0.0
C77 C 0.11476 0.07636 0.77928 0.0
C78 C 0.12265 0.98381 0.86186 0.0
C79 C 0.03216 0.03428 0.70288 0.0
O80 O 0.11373 0.04686 0.77402 0.0
O81 O 0.09318 0.09142 0.81151 0.0
O82 O 0.05351 0.99006 0.88946 0.0
O83 O 0.06276 0.03981 0.8996 0.0
Co84 Co 0.7393 0.35717 0.51527 0.0
O85 O 0.72994 0.38762 0.43072 0.0
O86 O 0.7055 0.38093 0.55441 0.0
C87 C 0.7418 0.31908 0.41805 0.0
O88 O 0.74248 0.32667 0.61626 0.0
Co89 Co 0.80054 0.324 0.50324 0.0
O90 O 0.78205 0.29675 0.59307 0.0
C91 C 0.79877 0.38546 0.58531 0.0
C92 C 0.708 0.39526 0.48075 0.0
C93 C 0.75893 0.30395 0.637 0.0
O94 O 0.76984 0.38645 0.57345 0.0
O95 O 0.81479 0.36362 0.55883 0.0
O96 O 0.71565 0.32625 0.44926 0.0
O97 O 0.76506 0.33629 0.44189 0.0
Co98 Co 0.41087 0.02598 0.32678 0.0
O99 O 0.38119 0.03562 0.4128 0.0
O100 O 0.38628 0.05915 0.28702 0.0
C101 C 0.44943 0.02479 0.42191 0.0
O102 O 0.44047 0.02267 0.22426 0.0
Co103 Co 0.44494 0.96513 0.33991 0.0
O104 O 0.47092 0.98339 0.24696 0.0
C105 C 0.3808 0.96438 0.27947 0.0
C106 C 0.37275 0.05708 0.36181 0.0
C107 C 0.46329 0.00651 0.20311 0.0
O108 O 0.38169 0.9939 0.27426 0.0
O109 O 0.40242 0.94941 0.3118 0.0
O110 O 0.44184 0.05079 0.38954 0.0
O111 O 0.43256 0.00105 0.39984 0.0
Co112 Co 0.73986 0.85755 0.5776 0.0
O113 O 0.7311 0.88843 0.66145 0.0
O114 O 0.70657 0.88187 0.53791 0.0
C115 C 0.74158 0.81965 0.67584 0.0
O116 O 0.74242 0.82672 0.47728 0.0
Co117 Co 0.80026 0.82297 0.59039 0.0
O118 O 0.78119 0.79587 0.50121 0.0
C119 C 0.79989 0.88431 0.50669 0.0
C120 C 0.7093 0.89633 0.6113 0.0
C121 C 0.75832 0.80353 0.45705 0.0
O122 O 0.77102 0.88609 0.51878 0.0
O123 O 0.81534 0.86212 0.53372 0.0
O124 O 0.71562 0.82723 0.64441 0.0
O125 O 0.76515 0.83632 0.65146 0.0
Co126 Co 0.40993 0.52783 0.76576 0.0
O127 O 0.38037 0.53764 0.67977 0.0
O128 O 0.38615 0.5618 0.80437 0.0
C129 C 0.44837 0.52523 0.67064 0.0
O130 O 0.43956 0.52422 0.86783 0.0
Co131 Co 0.44159 0.46561 0.75454 0.0
O132 O 0.46817 0.48339 0.84696 0.0
C133 C 0.3779 0.46744 0.81569 0.0
C134 C 0.37239 0.5595 0.72998 0.0
C135 C 0.46163 0.50718 0.8896 0.0
O136 O 0.38015 0.49693 0.82049 0.0
O137 O 0.39856 0.45133 0.78279 0.0
O138 O 0.4413 0.55158 0.70186 0.0
O139 O 0.43089 0.50195 0.69333 0.0
Co140 Co 0.75527 0.1826 0.07771 0.0
O141 O 0.76417 0.15174 0.16154 0.0
O142 O 0.7888 0.15854 0.03818 0.0
C143 C 0.75313 0.22039 0.17604 0.0
O144 O 0.7525 0.21347 0.97745 0.0
Co145 Co 0.69449 0.21661 0.09062 0.0
O146 O 0.71334 0.24385 1.00136 0.0
C147 C 0.69551 0.15539 1.0066 0.0
C148 C 0.78607 0.14401 0.11151 0.0
C149 C 0.73634 0.23646 0.9572 0.0
O150 O 0.72439 0.15388 1.01866 0.0
O151 O 0.67982 0.17738 0.03374 0.0
O152 O 0.77921 0.21306 0.14475 0.0
O153 O 0.72972 0.20354 0.15149 0.0
Co154 Co 0.08315 0.51403 0.26449 0.0
O155 O 0.11275 0.50409 0.17859 0.0
O156 O 0.10744 0.48065 0.30444 0.0
C157 C 0.04463 0.51545 0.16927 0.0
O158 O 0.05357 0.51761 0.36692 0.0
Co159 Co 0.04952 0.57513 0.25104 0.0
O160 O 0.02343 0.55712 0.34412 0.0
C161 C 0.11367 0.57545 0.31127 0.0
C162 C 0.12097 0.48255 0.22962 0.0
C163 C 0.03089 0.53396 0.38802 0.0
O164 O 0.11254 0.54594 0.31692 0.0
O165 O 0.09218 0.59055 0.2787 0.0
O166 O 0.05202 0.4894 0.20179 0.0
O167 O 0.06166 0.53908 0.19127 0.0
Co168 Co 0.25586 0.18302 0.51335 0.0
O169 O 0.26473 0.15204 0.42995 0.0
O170 O 0.28946 0.15906 0.55299 0.0
C171 C 0.25363 0.22061 0.41432 0.0
O172 O 0.25314 0.2141 0.61314 0.0
Co173 Co 0.19501 0.21687 0.50022 0.0
O174 O 0.21383 0.24426 0.58909 0.0
C175 C 0.19612 0.15577 0.58486 0.0
C176 C 0.28668 0.1444 0.4799 0.0
C177 C 0.23689 0.23706 0.63316 0.0
O178 O 0.22503 0.15436 0.57304 0.0
O179 O 0.18037 0.17766 0.55732 0.0
O180 O 0.27973 0.2134 0.44561 0.0
O181 O 0.23027 0.20378 0.43938 0.0
Co182 Co 0.58325 0.51308 0.32746 0.0
O183 O 0.61286 0.5033 0.41339 0.0
O184 O 0.60779 0.47987 0.28753 0.0
C185 C 0.54465 0.51431 0.42271 0.0
O186 O 0.55369 0.51666 0.22501 0.0
Co187 Co 0.5495 0.57415 0.34167 0.0
O188 O 0.52365 0.55625 0.24805 0.0
C189 C 0.61361 0.57468 0.28108 0.0
C190 C 0.62131 0.48189 0.36232 0.0
C191 C 0.53109 0.53312 0.20396 0.0
O192 O 0.61253 0.54518 0.27512 0.0
O193 O 0.59212 0.58967 0.31405 0.0
O194 O 0.55213 0.48829 0.39023 0.0
O195 O 0.56165 0.53797 0.40067 0.0
Co196 Co 0.23961 0.85812 1.01375 0.0
O197 O 0.23086 0.88902 0.92993 0.0
O198 O 0.20629 0.88241 0.05348 0.0
C199 C 0.24137 0.82027 0.9155 0.0
O200 O 0.24216 0.82726 0.11402 0.0
Co201 Co 0.30004 0.82358 1.00077 0.0
O202 O 0.28099 0.79648 0.09005 0.0
C203 C 0.29959 0.88487 0.08465 0.0
C204 C 0.20904 0.89689 0.98009 0.0
C205 C 0.25809 0.8041 0.13424 0.0
O206 O 0.27073 0.88664 0.07259 0.0
O207 O 0.31507 0.86271 0.05754 0.0
O208 O 0.21539 0.82782 0.94693 0.0
O209 O 0.26492 0.83694 0.93987 0.0
Co210 Co 0.9096 0.5269 0.82674 0.0
O211 O 0.87997 0.53648 0.91287 0.0
O212 O 0.88508 0.56018 0.78734 0.0
C213 C 0.94819 0.52547 0.92174 0.0
O214 O 0.93918 0.52357 0.72421 0.0
Co215 Co 0.94328 0.46579 0.83955 0.0
O216 O 0.96929 0.48399 0.74654 0.0
C217 C 0.87915 0.4655 0.7796 0.0
C218 C 0.87152 0.55799 0.86209 0.0
C219 C 0.96185 0.50723 0.70292 0.0
O220 O 0.88034 0.495 0.77395 0.0
O221 O 0.9006 0.45035 0.81217 0.0
O222 O 0.94066 0.55154 0.88968 0.0
O223 O 0.93121 0.50182 0.89955 0.0
C224 C 0.27366 0.28706 0.26498 0.0
C225 C 0.24487 0.29326 0.23152 0.0
H226 H 0.299 0.25919 0.34981 0.0
C227 C 0.21906 0.27551 0.25878 0.0
H228 H 0.29394 0.30046 0.24517 0.0
C229 C 0.22194 0.25204 0.31886 0.0
C230 C 0.25069 0.24589 0.35259 0.0
H231 H 0.19658 0.27985 0.2342 0.0
H232 H 0.20162 0.23869 0.3387 0.0
C233 C 0.27655 0.26354 0.32506 0.0
C234 C 0.97335 0.03852 0.52268 0.0
C235 C 0.981 0.01431 0.46842 0.0
H236 H 0.98315 0.06364 0.63859 0.0
C237 C 0.00558 0.99649 0.49254 0.0
H238 H 0.95461 0.05268 0.50668 0.0
C239 C 0.02201 0.00266 0.56859 0.0
C240 C 0.01437 0.02688 0.62284 0.0
H241 H 0.01222 0.97754 0.4527 0.0
H242 H 0.04075 0.98849 0.58459 0.0
C243 C 0.98979 0.0447 0.59873 0.0
C244 C 0.27507 0.76439 0.7611 0.0
C245 C 0.24897 0.74708 0.73395 0.0
H246 H 0.2931 0.80105 0.84053 0.0
C247 C 0.22032 0.75382 0.76743 0.0
H248 H 0.29745 0.75961 0.73652 0.0
C249 C 0.21783 0.77747 0.8272 0.0
C250 C 0.24395 0.79475 0.8544 0.0
H251 H 0.19982 0.74076 0.74775 0.0
H252 H 0.19547 0.78226 0.85185 0.0
C253 C 0.27258 0.78801 0.82086 0.0
C254 C 0.47345 0.03805 0.06857 0.0
C255 C 0.48105 0.01385 0.12292 0.0
H256 H 0.48326 0.06309 0.9525 0.0
C257 C 0.50558 0.99594 0.09876 0.0
H258 H 0.45474 0.05227 0.0846 0.0
C259 C 0.52199 0.00205 1.02259 0.0
C260 C 0.51439 0.02625 0.96825 0.0
H261 H 0.51218 0.97701 0.13866 0.0
H262 H 0.54071 0.98783 1.00656 0.0
C263 C 0.48986 0.04416 0.9924 0.0
C264 C 0.26919 0.7617 0.23831 0.0
C265 C 0.25138 0.78648 0.21515 0.0
H266 H 0.27829 0.72692 0.33126 0.0
C267 C 0.22844 0.79496 0.27217 0.0
H268 H 0.28722 0.75445 0.19641 0.0
C269 C 0.22348 0.77916 0.35003 0.0
C270 C 0.24131 0.75439 0.37322 0.0
H271 H 0.2144 0.81396 0.25709 0.0
H272 H 0.20547 0.7864 0.39197 0.0
C273 C 0.26425 0.74591 0.31618 0.0
C274 C 0.49143 0.04878 0.51133 0.0
C275 C 0.47456 0.0224 0.48376 0.0
H276 H 0.52718 0.0672 0.59262 0.0
C277 C 0.48103 0.99367 0.51848 0.0
H278 H 0.4868 0.07122 0.4859 0.0
C279 C 0.50401 0.99135 0.57986 0.0
C280 C 0.52089 0.01773 0.60742 0.0
H281 H 0.46826 0.97294 0.49857 0.0
H282 H 0.50864 0.96892 0.60528 0.0
C283 C 0.51441 0.04647 0.57271 0.0
C284 C 0.26715 0.24759 0.76945 0.0
C285 C 0.24343 0.25497 0.71368 0.0
H286 H 0.29058 0.25728 0.8879 0.0
C287 C 0.22472 0.27897 0.73768 0.0
H288 H 0.28191 0.22924 0.75368 0.0
C289 C 0.22952 0.29502 0.81516 0.0
C290 C 0.2532 0.28761 0.871 0.0
H291 H 0.20608 0.28536 0.6968 0.0
H292 H 0.21472 0.31334 0.83095 0.0
C293 C 0.27197 0.26367 0.84692 0.0
C294 C 0.00392 0.99198 1.01121 0.0
C295 C 0.02073 0.01841 0.98361 0.0
H296 H 0.96825 0.97342 0.09263 0.0
C297 C 0.01419 0.0471 1.01841 0.0
H298 H 0.0086 0.96957 0.98573 0.0
C299 C 0.99121 0.04933 0.07992 0.0
C300 C 0.97441 0.02289 0.10752 0.0
H301 H 0.02691 0.06787 0.99847 0.0
H302 H 0.98652 0.07173 0.10542 0.0
C303 C 0.98096 0.9942 0.07271 0.0
C304 C 0.72037 0.75324 0.82412 0.0
C305 C 0.749 0.74642 0.85753 0.0
H306 H 0.69559 0.78175 0.73974 0.0
C307 C 0.77514 0.76366 0.83026 0.0
H308 H 0.69984 0.74024 0.84389 0.0
C309 C 0.77271 0.7873 0.77046 0.0
C310 C 0.7441 0.79412 0.73699 0.0
H311 H 0.7975 0.75882 0.85478 0.0
H312 H 0.79326 0.80029 0.75071 0.0
C313 C 0.71794 0.77691 0.76431 0.0
C314 C 0.71881 0.27599 0.33009 0.0
C315 C 0.74476 0.29351 0.35735 0.0
H316 H 0.70115 0.23916 0.25065 0.0
C317 C 0.7735 0.287 0.32411 0.0
H318 H 0.69637 0.28059 0.35451 0.0
C319 C 0.77625 0.26336 0.26443 0.0
C320 C 0.75029 0.24587 0.2371 0.0
H321 H 0.79389 0.30023 0.34389 0.0
H322 H 0.79868 0.25876 0.23996 0.0
C323 C 0.72155 0.25237 0.27042 0.0
C324 C 0.72472 0.27869 0.85302 0.0
C325 C 0.74286 0.25416 0.87627 0.0
H326 H 0.71517 0.3133 0.75998 0.0
C327 C 0.76593 0.24597 0.81928 0.0
H328 H 0.70658 0.2857 0.89489 0.0
C329 C 0.77068 0.26181 0.74138 0.0
C330 C 0.75252 0.28632 0.7181 0.0
H331 H 0.78022 0.22718 0.83441 0.0
H332 H 0.78881 0.2548 0.69948 0.0
C333 C 0.72946 0.29452 0.77512 0.0
C334 C 0.72378 0.77873 0.24117 0.0
C335 C 0.74146 0.75381 0.21823 0.0
H336 H 0.71485 0.81365 0.33386 0.0
C337 C 0.76427 0.74519 0.27545 0.0
H338 H 0.70588 0.78608 0.19909 0.0
C339 C 0.76924 0.76099 0.35326 0.0
C340 C 0.75158 0.78592 0.37619 0.0
H341 H 0.77819 0.72608 0.26056 0.0
H342 H 0.78716 0.75363 0.39532 0.0
C343 C 0.72877 0.79453 0.31898 0.0
C344 C 0.48937 0.54472 0.09903 0.0
C345 C 0.51331 0.52614 0.12365 0.0
H346 H 0.45457 0.55363 1.00671 0.0
C347 C 0.52026 0.50157 0.06979 0.0
H348 H 0.48329 0.56397 0.1385 0.0
C349 C 0.5037 0.49573 0.99375 0.0
C350 C 0.47972 0.51428 0.96927 0.0
H351 H 0.53851 0.48684 0.08618 0.0
H352 H 0.50974 0.47647 0.95425 0.0
C353 C 0.47284 0.5389 0.023 0.0
C354 C 0.98872 0.54485 0.49244 0.0
C355 C 0.01309 0.52674 0.4682 0.0
H356 H 0.95368 0.55319 0.5847 0.0
C357 C 0.02049 0.50244 0.52242 0.0
H358 H 0.98228 0.56386 0.45263 0.0
C359 C 0.00404 0.49641 0.59856 0.0
C360 C 0.97966 0.51451 0.6228 0.0
H361 H 0.03908 0.48806 0.50632 0.0
H362 H 0.01049 0.47739 0.63835 0.0
C363 C 0.97226 0.53882 0.56859 0.0
C364 C 0.01327 0.54676 0.07255 0.0
C365 C 0.01955 0.51798 0.10732 0.0
H366 H 0.98584 0.57168 0.98567 0.0
C367 C 0.00253 0.49169 0.07973 0.0
H368 H 0.02616 0.56742 0.09246 0.0
C369 C 0.97959 0.49414 1.0183 0.0
C370 C 0.9733 0.52292 0.98356 0.0
H371 H 0.00702 0.46923 0.10519 0.0
H372 H 0.9667 0.47348 0.99838 0.0
C373 C 0.99033 0.54921 1.01112 0.0
C374 C 0.4794 0.49337 0.574 0.0
C375 C 0.47337 0.52224 0.6086 0.0
H376 H 0.50667 0.46821 0.48705 0.0
C377 C 0.49059 0.54837 0.58074 0.0
H378 H 0.46634 0.47284 0.59417 0.0
C379 C 0.51346 0.54572 0.51926 0.0
C380 C 0.51954 0.51689 0.48464 0.0
H381 H 0.48632 0.57091 0.60603 0.0
H382 H 0.52647 0.56631 0.49923 0.0
C383 C 0.50234 0.49072 0.51244 0.0
C384 C 0.15972 0.44337 0.25899 0.0
C385 C 0.14314 0.46027 0.20004 0.0
H386 H 0.1932 0.40986 0.27668 0.0
C387 C 0.14747 0.45545 0.11111 0.0
H388 H 0.15684 0.44654 0.32772 0.0
C389 C 0.16774 0.43395 0.08172 0.0
C390 C 0.18469 0.41741 0.14065 0.0
H391 H 0.13479 0.46799 0.064 0.0
H392 H 0.17042 0.43057 1.013 0.0
C393 C 0.18058 0.42245 0.22957 0.0
C394 C 0.8331 0.8948 0.38159 0.0
C395 C 0.816 0.90643 0.44924 0.0
H396 H 0.86606 0.90413 0.28327 0.0
C397 C 0.81683 0.93822 0.46404 0.0
H398 H 0.83231 0.87036 0.36812 0.0
C399 C 0.83666 0.95785 0.41566 0.0
C400 C 0.85549 0.94574 0.35185 0.0
H401 H 0.80361 0.94757 0.51589 0.0
H402 H 0.83847 0.98208 0.43145 0.0
C403 C 0.85241 0.91421 0.33302 0.0
C404 C 0.32454 0.60674 0.58148 0.0
C405 C 0.30725 0.62302 0.64019 0.0
H406 H 0.35826 0.57345 0.56424 0.0
C407 C 0.31157 0.61834 0.72919 0.0
H408 H 0.32175 0.6099 0.51271 0.0
C409 C 0.33297 0.59805 0.7589 0.0
C410 C 0.34991 0.5814 0.70017 0.0
H411 H 0.29872 0.63079 0.77613 0.0
H412 H 0.33598 0.59511 0.82767 0.0
C413 C 0.34535 0.58584 0.61117 0.0
C414 C 0.66317 0.14489 0.87994 0.0
C415 C 0.67967 0.13327 0.94879 0.0
H416 H 0.63061 0.1356 0.7806 0.0
C417 C 0.67833 0.10154 0.96471 0.0
H418 H 0.66436 0.16928 0.86576 0.0
C419 C 0.65853 0.08199 0.91615 0.0
C420 C 0.64022 0.09413 0.85116 0.0
H421 H 0.69108 0.09223 1.01756 0.0
H422 H 0.65626 0.05784 0.93278 0.0
C423 C 0.64387 0.12555 0.83124 0.0
C424 C 0.14341 0.62501 0.32926 0.0
C425 C 0.13933 0.59375 0.35071 0.0
H426 H 0.16413 0.66879 0.36243 0.0
C427 C 0.15716 0.58185 0.41717 0.0
H428 H 0.13053 0.63486 0.27749 0.0
C429 C 0.17687 0.60154 0.46562 0.0
C430 C 0.17862 0.63316 0.44807 0.0
H431 H 0.15452 0.55783 0.43503 0.0
H432 H 0.1892 0.59245 0.5196 0.0
C433 C 0.16264 0.64449 0.37782 0.0
C434 C 0.66236 0.94486 0.75889 0.0
C435 C 0.6454 0.96135 0.69988 0.0
H436 H 0.69634 0.91188 0.77673 0.0
C437 C 0.64977 0.95652 0.61096 0.0
H438 H 0.65949 0.94809 0.8276 0.0
C439 C 0.67034 0.9353 0.58167 0.0
C440 C 0.68757 0.91908 0.64067 0.0
H441 H 0.63683 0.96876 0.56381 0.0
H442 H 0.67294 0.93178 0.51298 0.0
C443 C 0.68353 0.92425 0.72956 0.0
C444 C 0.33945 0.46088 0.93465 0.0
C445 C 0.35186 0.45053 0.85685 0.0
H446 H 0.31203 0.44866 0.04589 0.0
C447 C 0.34243 0.42143 0.82513 0.0
H448 H 0.34659 0.48316 0.96071 0.0
C449 C 0.32288 0.40204 0.87335 0.0
C450 C 0.31239 0.4114 0.95391 0.0
H451 H 0.35145 0.41302 0.76505 0.0
H452 H 0.31722 0.37903 0.84977 0.0
C453 C 0.31983 0.44126 0.98336 0.0
C454 C 0.8251 0.10508 0.08197 0.0
C455 C 0.80783 0.12129 0.14091 0.0
H456 H 0.85857 0.07155 0.06422 0.0
C457 C 0.81178 0.11606 0.22981 0.0
H458 H 0.82258 0.10863 1.01328 0.0
C459 C 0.83287 0.09539 0.25921 0.0
C460 C 0.84986 0.07888 0.20026 0.0
H461 H 0.79893 0.12841 0.27695 0.0
H462 H 0.83567 0.09212 0.32794 0.0
C463 C 0.8456 0.08379 0.11133 0.0
C464 C 0.8107 0.61684 0.86257 0.0
C465 C 0.8066 0.62182 0.95153 0.0
H466 H 0.83483 0.59325 0.76423 0.0
C467 C 0.82391 0.6056 1.01032 0.0
H468 H 0.79783 0.62922 0.81557 0.0
C469 C 0.84457 0.58452 0.98077 0.0
C470 C 0.84895 0.57983 0.8918 0.0
H471 H 0.82128 0.60898 0.07906 0.0
H472 H 0.85754 0.57224 0.02777 0.0
C473 C 0.83195 0.59636 0.83298 0.0
C474 C 0.16386 0.14526 0.71181 0.0
C475 C 0.18026 0.13365 0.64272 0.0
H476 H 0.1312 0.13603 0.81107 0.0
C477 C 0.17864 0.10196 0.62631 0.0
H478 H 0.16523 0.16963 0.72629 0.0
C479 C 0.15868 0.08246 0.67465 0.0
C480 C 0.14047 0.09462 0.73987 0.0
H481 H 0.19127 0.09265 0.5732 0.0
H482 H 0.15621 0.05836 0.65765 0.0
C483 C 0.14438 0.12597 0.76025 0.0
C484 C 0.68199 0.42286 0.36229 0.0
C485 C 0.68603 0.41775 0.45121 0.0
H486 H 0.65796 0.44666 0.26414 0.0
C487 C 0.66871 0.43391 0.51013 0.0
H488 H 0.69487 0.41054 0.31518 0.0
C489 C 0.6481 0.45507 0.48075 0.0
C490 C 0.6438 0.45992 0.39182 0.0
H491 H 0.67131 0.43043 0.57884 0.0
H492 H 0.63514 0.46731 0.52787 0.0
C493 C 0.66079 0.44343 0.33286 0.0
C494 C 0.33665 0.95821 0.17561 0.0
C495 C 0.35523 0.94599 0.23985 0.0
H496 H 0.30379 0.94809 0.07491 0.0
C497 C 0.35183 0.91449 0.25903 0.0
H498 H 0.33872 0.98241 0.15956 0.0
C499 C 0.33247 0.8952 0.21037 0.0
C500 C 0.31566 0.90691 0.14228 0.0
H501 H 0.36528 0.90436 0.3091 0.0
H502 H 0.33144 0.87077 0.22406 0.0
C503 C 0.31678 0.93869 0.12712 0.0
C504 C 0.82961 0.39675 0.71433 0.0
C505 C 0.81422 0.40792 0.64278 0.0
H506 H 0.86131 0.40652 0.81566 0.0
C507 C 0.81652 0.43942 0.62378 0.0
H508 H 0.8277 0.37253 0.73068 0.0
C509 C 0.8362 0.45911 0.67228 0.0
C510 C 0.85346 0.44732 0.7401 0.0
H511 H 0.80468 0.44836 0.5687 0.0
H512 H 0.83929 0.48299 0.65337 0.0
C513 C 0.84883 0.41624 0.76287 0.0
C514 C 0.31237 0.11639 0.36172 0.0
C515 C 0.30842 0.12165 0.4506 0.0
H516 H 0.33618 0.09233 0.26366 0.0
C517 C 0.32564 0.10542 0.50959 0.0
H518 H 0.29955 0.12875 0.31455 0.0
C519 C 0.34607 0.08405 0.48029 0.0
C520 C 0.35031 0.07909 0.39137 0.0
H521 H 0.32311 0.109 0.57828 0.0
H522 H 0.35899 0.07178 0.52742 0.0
C523 C 0.33339 0.09563 0.33238 0.0
C524 C 0.65715 0.58125 0.17524 0.0
C525 C 0.63918 0.59311 0.24146 0.0
H526 H 0.68928 0.59194 0.07295 0.0
C527 C 0.64302 0.62442 0.26252 0.0
H528 H 0.65471 0.5572 0.15768 0.0
C529 C 0.66216 0.64396 0.21382 0.0
C530 C 0.67831 0.63266 0.14384 0.0
H531 H 0.63003 0.63425 0.3141 0.0
H532 H 0.66348 0.66828 0.22895 0.0
C533 C 0.6768 0.60101 0.12669 0.0
C534 C 0.17012 0.9359 1.00968 0.0
C535 C 0.18731 0.91963 0.9507 0.0
H536 H 0.13666 0.96943 0.02748 0.0
C537 C 0.18325 0.92475 0.8618 0.0
H538 H 0.17273 0.93242 0.07838 0.0
C539 C 0.16212 0.94538 0.83243 0.0
C540 C 0.1452 0.96193 0.89142 0.0
H541 H 0.19604 0.91234 0.81465 0.0
H542 H 0.15923 0.94857 0.76371 0.0
C543 C 0.14957 0.95714 0.98035 0.0
loop_
_geom_bond_atom_site_label_1
_geom_bond_atom_site_label_2
_geom_bond_distance
_geom_bond_site_symmetry_2
_ccdc_geom_bond_type
Co0 O1 2.216 . S
Co0 O2 2.091 . S
Co0 O4 2.004 1_554 S
Co0 O10 2.021 1_554 S
Co0 O12 2.137 . S
Co0 O13 2.244 . S
O1 Co0 2.216 . S
O1 C8 1.247 . S
O2 Co0 2.091 . S
O2 C8 1.261 . S
C3 O12 1.247 . S
C3 O13 1.272 . S
O4 Co0 2.004 1_556 S
O4 C9 1.259 . S
Co5 O6 2.061 1_554 S
Co5 O11 2.053 . S
Co5 O13 2.135 . S
O6 Co5 2.061 1_556 S
O6 C9 1.235 . S
C7 O10 1.238 . S
C7 O11 1.240 1_556 S
C8 O1 1.247 . S
C8 O2 1.261 . S
C9 O4 1.259 . S
C9 O6 1.235 . S
O10 Co0 2.021 1_556 S
O10 C7 1.238 . S
O11 Co5 2.053 . S
O11 C7 1.240 1_554 S
O12 Co0 2.137 . S
O12 C3 1.247 . S
O13 Co0 2.244 . S
O13 C3 1.272 . S
O13 Co5 2.135 . S
Co14 O15 2.216 . S
Co14 O16 2.091 . S
Co14 O18 2.004 . S
Co14 O24 2.021 . S
Co14 O26 2.137 . S
Co14 O27 2.244 1_545 S
O15 Co14 2.216 . S
O15 C22 1.247 . S
O16 Co14 2.091 . S
O16 C22 1.261 . S
C17 O26 1.247 . S
C17 O27 1.272 1_545 S
O18 Co14 2.004 . S
O18 C23 1.259 . S
Co19 O20 2.061 . S
Co19 O25 2.052 . S
Co19 O27 2.135 . S
O20 Co19 2.061 . S
O20 C23 1.235 1_565 S
C21 O24 1.238 1_565 S
C21 O25 1.241 . S
C22 O15 1.247 . S
C22 O16 1.261 . S
C23 O18 1.259 . S
C23 O20 1.235 1_545 S
O24 Co14 2.021 . S
O24 C21 1.238 1_545 S
O25 Co19 2.052 . S
O25 C21 1.241 . S
O26 Co14 2.137 . S
O26 C17 1.247 . S
O27 Co14 2.244 1_565 S
O27 C17 1.272 1_565 S
O27 Co19 2.135 . S
Co28 O29 2.216 . S
Co28 O30 2.091 . S
Co28 O32 2.004 . S
Co28 O38 2.021 . S
Co28 O40 2.137 . S
Co28 O41 2.244 . S
O29 Co28 2.216 . S
O29 C36 1.247 . S
O30 Co28 2.091 . S
O30 C36 1.261 . S
C31 O40 1.247 . S
C31 O41 1.272 . S
O32 Co28 2.004 . S
O32 C37 1.259 . S
Co33 O34 2.061 . S
Co33 O39 2.052 . S
Co33 O41 2.135 . S
O34 Co33 2.061 . S
O34 C37 1.235 . S
C35 O38 1.238 . S
C35 O39 1.241 . S
C36 O29 1.247 . S
C36 O30 1.261 . S
C37 O32 1.259 . S
C37 O34 1.235 . S
O38 Co28 2.021 . S
O38 C35 1.238 . S
O39 Co33 2.052 . S
O39 C35 1.241 . S
O40 Co28 2.137 . S
O40 C31 1.247 . S
O41 Co28 2.244 . S
O41 C31 1.272 . S
O41 Co33 2.135 . S
Co42 O43 2.216 . S
Co42 O44 2.091 1_545 S
Co42 O46 2.004 . S
Co42 O52 2.021 . S
Co42 O54 2.137 1_545 S
Co42 O55 2.244 . S
O43 Co42 2.216 . S
O43 C50 1.247 1_545 S
O44 Co42 2.091 1_565 S
O44 C50 1.261 . S
C45 O54 1.247 1_545 S
C45 O55 1.272 . S
O46 Co42 2.004 . S
O46 C51 1.259 . S
Co47 O48 2.061 . S
Co47 O53 2.052 . S
Co47 O55 2.135 . S
O48 Co47 2.061 . S
O48 C51 1.235 . S
C49 O52 1.238 . S
C49 O53 1.241 . S
C50 O43 1.247 1_565 S
C50 O44 1.261 . S
C51 O46 1.259 . S
C51 O48 1.235 . S
O52 Co42 2.021 . S
O52 C49 1.238 . S
O53 Co47 2.052 . S
O53 C49 1.241 . S
O54 Co42 2.137 1_565 S
O54 C45 1.247 1_565 S
O55 Co42 2.244 . S
O55 C45 1.272 . S
O55 Co47 2.135 . S
Co56 O57 2.216 1_554 S
Co56 O58 2.091 . S
Co56 O60 2.004 . S
Co56 O66 2.021 . S
Co56 O68 2.137 1_554 S
Co56 O69 2.244 1_554 S
O57 Co56 2.216 1_556 S
O57 C64 1.247 . S
O58 Co56 2.091 . S
O58 C64 1.261 1_554 S
C59 O68 1.247 . S
C59 O69 1.272 . S
O60 Co56 2.004 . S
O60 C65 1.259 . S
Co61 O62 2.061 . S
Co61 O67 2.052 . S
Co61 O69 2.135 1_554 S
O62 Co61 2.061 . S
O62 C65 1.235 . S
C63 O66 1.238 . S
C63 O67 1.241 . S
C64 O57 1.247 . S
C64 O58 1.261 1_556 S
C65 O60 1.259 . S
C65 O62 1.235 . S
O66 Co56 2.021 . S
O66 C63 1.238 . S
O67 Co61 2.052 . S
O67 C63 1.241 . S
O68 Co56 2.137 1_556 S
O68 C59 1.247 . S
O69 Co56 2.244 1_556 S
O69 C59 1.272 . S
O69 Co61 2.135 1_556 S
Co70 O71 2.216 . S
Co70 O72 2.091 1_545 S
Co70 O74 2.004 . S
Co70 O80 2.021 . S
Co70 O82 2.137 1_545 S
Co70 O83 2.244 . S
O71 Co70 2.216 . S
O71 C78 1.247 1_545 S
O72 Co70 2.091 1_565 S
O72 C78 1.261 . S
C73 O82 1.247 1_545 S
C73 O83 1.272 . S
O74 Co70 2.004 . S
O74 C79 1.259 . S
Co75 O76 2.061 . S
Co75 O81 2.052 . S
Co75 O83 2.135 . S
O76 Co75 2.061 . S
O76 C79 1.235 . S
C77 O80 1.238 . S
C77 O81 1.241 . S
C78 O71 1.247 1_565 S
C78 O72 1.261 . S
C79 O74 1.259 . S
C79 O76 1.235 . S
O80 Co70 2.021 . S
O80 C77 1.238 . S
O81 Co75 2.052 . S
O81 C77 1.241 . S
O82 Co70 2.137 1_565 S
O82 C73 1.247 1_565 S
O83 Co70 2.244 . S
O83 C73 1.272 . S
O83 Co75 2.135 . S
Co84 O85 2.216 . S
Co84 O86 2.091 . S
Co84 O88 2.004 . S
Co84 O94 2.021 . S
Co84 O96 2.137 . S
Co84 O97 2.244 . S
O85 Co84 2.216 . S
O85 C92 1.247 . S
O86 Co84 2.091 . S
O86 C92 1.261 . S
C87 O96 1.247 . S
C87 O97 1.272 . S
O88 Co84 2.004 . S
O88 C93 1.259 . S
Co89 O90 2.061 . S
Co89 O95 2.052 . S
Co89 O97 2.135 . S
O90 Co89 2.061 . S
O90 C93 1.235 . S
C91 O94 1.238 . S
C91 O95 1.241 . S
C92 O85 1.247 . S
C92 O86 1.261 . S
C93 O88 1.259 . S
C93 O90 1.235 . S
O94 Co84 2.021 . S
O94 C91 1.238 . S
O95 Co89 2.052 . S
O95 C91 1.241 . S
O96 Co84 2.137 . S
O96 C87 1.247 . S
O97 Co84 2.244 . S
O97 C87 1.272 . S
O97 Co89 2.135 . S
Co98 O99 2.216 . S
Co98 O100 2.091 . S
Co98 O102 2.004 . S
Co98 O108 2.021 . S
Co98 O110 2.137 . S
Co98 O111 2.244 1_545 S
O99 Co98 2.216 . S
O99 C106 1.247 . S
O100 Co98 2.091 . S
O100 C106 1.261 . S
C101 O110 1.247 . S
C101 O111 1.272 1_545 S
O102 Co98 2.004 . S
O102 C107 1.259 . S
Co103 O104 2.061 . S
Co103 O109 2.052 . S
Co103 O111 2.135 . S
O104 Co103 2.061 . S
O104 C107 1.235 1_565 S
C105 O108 1.238 1_565 S
C105 O109 1.241 . S
C106 O99 1.247 . S
C106 O100 1.261 . S
C107 O102 1.259 . S
C107 O104 1.235 1_545 S
O108 Co98 2.021 . S
O108 C105 1.238 1_545 S
O109 Co103 2.052 . S
O109 C105 1.241 . S
O110 Co98 2.137 . S
O110 C101 1.247 . S
O111 Co98 2.244 1_565 S
O111 C101 1.272 1_565 S
O111 Co103 2.135 . S
Co112 O113 2.216 . S
Co112 O114 2.091 . S
Co112 O116 2.004 . S
Co112 O122 2.021 . S
Co112 O124 2.137 . S
Co112 O125 2.244 . S
O113 Co112 2.216 . S
O113 C120 1.247 . S
O114 Co112 2.091 . S
O114 C120 1.261 . S
C115 O124 1.247 . S
C115 O125 1.272 . S
O116 Co112 2.004 . S
O116 C121 1.259 . S
Co117 O118 2.061 . S
Co117 O123 2.052 . S
Co117 O125 2.135 . S
O118 Co117 2.061 . S
O118 C121 1.235 . S
C119 O122 1.238 . S
C119 O123 1.241 . S
C120 O113 1.247 . S
C120 O114 1.261 . S
C121 O116 1.259 . S
C121 O118 1.235 . S
O122 Co112 2.021 . S
O122 C119 1.238 . S
O123 Co117 2.052 . S
O123 C119 1.241 . S
O124 Co112 2.137 . S
O124 C115 1.247 . S
O125 Co112 2.244 . S
O125 C115 1.272 . S
O125 Co117 2.135 . S
Co126 O127 2.216 . S
Co126 O128 2.091 . S
Co126 O130 2.004 . S
Co126 O136 2.021 . S
Co126 O138 2.137 . S
Co126 O139 2.244 . S
O127 Co126 2.216 . S
O127 C134 1.247 . S
O128 Co126 2.091 . S
O128 C134 1.261 . S
C129 O138 1.247 . S
C129 O139 1.272 . S
O130 Co126 2.004 . S
O130 C135 1.259 . S
Co131 O132 2.061 . S
Co131 O137 2.052 . S
Co131 O139 2.135 . S
O132 Co131 2.061 . S
O132 C135 1.235 . S
C133 O136 1.238 . S
C133 O137 1.241 . S
C134 O127 1.247 . S
C134 O128 1.261 . S
C135 O130 1.259 . S
C135 O132 1.235 . S
O136 Co126 2.021 . S
O136 C133 1.238 . S
O137 Co131 2.052 . S
O137 C133 1.241 . S
O138 Co126 2.137 . S
O138 C129 1.247 . S
O139 Co126 2.244 . S
O139 C129 1.272 . S
O139 Co131 2.135 . S
Co140 O141 2.216 . S
Co140 O142 2.091 . S
Co140 O144 2.004 1_554 S
Co140 O150 2.021 1_554 S
Co140 O152 2.137 . S
Co140 O153 2.244 . S
O141 Co140 2.216 . S
O141 C148 1.247 . S
O142 Co140 2.091 . S
O142 C148 1.261 . S
C143 O152 1.247 . S
C143 O153 1.272 . S
O144 Co140 2.004 1_556 S
O144 C149 1.259 . S
Co145 O146 2.061 1_554 S
Co145 O151 2.053 . S
Co145 O153 2.135 . S
O146 Co145 2.061 1_556 S
O146 C149 1.235 . S
C147 O150 1.238 . S
C147 O151 1.240 1_556 S
C148 O141 1.247 . S
C148 O142 1.261 . S
C149 O144 1.259 . S
C149 O146 1.235 . S
O150 Co140 2.021 1_556 S
O150 C147 1.238 . S
O151 Co145 2.053 . S
O151 C147 1.240 1_554 S
O152 Co140 2.137 . S
O152 C143 1.247 . S
O153 Co140 2.244 . S
O153 C143 1.272 . S
O153 Co145 2.135 . S
Co154 O155 2.216 . S
Co154 O156 2.091 . S
Co154 O158 2.004 . S
Co154 O164 2.021 . S
Co154 O166 2.137 . S
Co154 O167 2.244 . S
O155 Co154 2.216 . S
O155 C162 1.247 . S
O156 Co154 2.091 . S
O156 C162 1.261 . S
C157 O166 1.247 . S
C157 O167 1.272 . S
O158 Co154 2.004 . S
O158 C163 1.259 . S
Co159 O160 2.061 . S
Co159 O165 2.052 . S
Co159 O167 2.135 . S
O160 Co159 2.061 . S
O160 C163 1.235 . S
C161 O164 1.238 . S
C161 O165 1.241 . S
C162 O155 1.247 . S
C162 O156 1.261 . S
C163 O158 1.259 . S
C163 O160 1.235 . S
O164 Co154 2.021 . S
O164 C161 1.238 . S
O165 Co159 2.052 . S
O165 C161 1.241 . S
O166 Co154 2.137 . S
O166 C157 1.247 . S
O167 Co154 2.244 . S
O167 C157 1.272 . S
O167 Co159 2.135 . S
Co168 O169 2.216 . S
Co168 O170 2.091 . S
Co168 O172 2.004 . S
Co168 O178 2.021 . S
Co168 O180 2.137 . S
Co168 O181 2.244 . S
O169 Co168 2.216 . S
O169 C176 1.247 . S
O170 Co168 2.091 . S
O170 C176 1.261 . S
C171 O180 1.247 . S
C171 O181 1.272 . S
O172 Co168 2.004 . S
O172 C177 1.259 . S
Co173 O174 2.061 . S
Co173 O179 2.052 . S
Co173 O181 2.135 . S
O174 Co173 2.061 . S
O174 C177 1.235 . S
C175 O178 1.238 . S
C175 O179 1.241 . S
C176 O169 1.247 . S
C176 O170 1.261 . S
C177 O172 1.259 . S
C177 O174 1.235 . S
O178 Co168 2.021 . S
O178 C175 1.238 . S
O179 Co173 2.052 . S
O179 C175 1.241 . S
O180 Co168 2.137 . S
O180 C171 1.247 . S
O181 Co168 2.244 . S
O181 C171 1.272 . S
O181 Co173 2.135 . S
Co182 O183 2.216 . S
Co182 O184 2.091 . S
Co182 O186 2.004 . S
Co182 O192 2.021 . S
Co182 O194 2.137 . S
Co182 O195 2.244 . S
O183 Co182 2.216 . S
O183 C190 1.247 . S
O184 Co182 2.091 . S
O184 C190 1.261 . S
C185 O194 1.247 . S
C185 O195 1.272 . S
O186 Co182 2.004 . S
O186 C191 1.259 . S
Co187 O188 2.061 . S
Co187 O193 2.052 . S
Co187 O195 2.135 . S
O188 Co187 2.061 . S
O188 C191 1.235 . S
C189 O192 1.238 . S
C189 O193 1.241 . S
C190 O183 1.247 . S
C190 O184 1.261 . S
C191 O186 1.259 . S
C191 O188 1.235 . S
O192 Co182 2.021 . S
O192 C189 1.238 . S
O193 Co187 2.052 . S
O193 C189 1.241 . S
O194 Co182 2.137 . S
O194 C185 1.247 . S
O195 Co182 2.244 . S
O195 C185 1.272 . S
O195 Co187 2.135 . S
Co196 O197 2.216 1_554 S
Co196 O198 2.091 . S
Co196 O200 2.004 . S
Co196 O206 2.021 . S
Co196 O208 2.137 1_554 S
Co196 O209 2.244 1_554 S
O197 Co196 2.216 1_556 S
O197 C204 1.247 . S
O198 Co196 2.091 . S
O198 C204 1.261 1_554 S
C199 O208 1.247 . S
C199 O209 1.272 . S
O200 Co196 2.004 . S
O200 C205 1.259 . S
Co201 O202 2.061 . S
Co201 O207 2.052 . S
Co201 O209 2.135 1_554 S
O202 Co201 2.061 . S
O202 C205 1.235 . S
C203 O206 1.238 . S
C203 O207 1.241 . S
C204 O197 1.247 . S
C204 O198 1.261 1_556 S
C205 O200 1.259 . S
C205 O202 1.235 . S
O206 Co196 2.021 . S
O206 C203 1.238 . S
O207 Co201 2.052 . S
O207 C203 1.241 . S
O208 Co196 2.137 1_556 S
O208 C199 1.247 . S
O209 Co196 2.244 1_556 S
O209 C199 1.272 . S
O209 Co201 2.135 1_556 S
Co210 O211 2.216 . S
Co210 O212 2.091 . S
Co210 O214 2.004 . S
Co210 O220 2.021 . S
Co210 O222 2.137 . S
Co210 O223 2.244 . S
O211 Co210 2.216 . S
O211 C218 1.247 . S
O212 Co210 2.091 . S
O212 C218 1.261 . S
C213 O222 1.247 . S
C213 O223 1.272 . S
O214 Co210 2.004 . S
O214 C219 1.259 . S
Co215 O216 2.061 . S
Co215 O221 2.052 . S
Co215 O223 2.135 . S
O216 Co215 2.061 . S
O216 C219 1.235 . S
C217 O220 1.238 . S
C217 O221 1.241 . S
C218 O211 1.247 . S
C218 O212 1.261 . S
C219 O214 1.259 . S
C219 O216 1.235 . S
O220 Co210 2.021 . S
O220 C217 1.238 . S
O221 Co215 2.052 . S
O221 C217 1.241 . S
O222 Co210 2.137 . S
O222 C213 1.247 . S
O223 Co210 2.244 . S
O223 C213 1.272 . S
O223 Co215 2.135 . S
C224 C225 1.387 . S
C224 H228 0.950 . S
C224 C233 1.390 . S
C225 C224 1.387 . S
C225 C227 1.387 . S
H226 C233 0.950 . S
C227 C225 1.387 . S
C227 C229 1.390 . S
C227 H231 0.950 . S
H228 C224 0.950 . S
C229 C227 1.390 . S
C229 C230 1.387 . S
C229 H232 0.950 . S
C230 C229 1.387 . S
C230 C233 1.387 . S
H231 C227 0.950 . S
H232 C229 0.950 . S
C233 C224 1.390 . S
C233 H226 0.950 . S
C233 C230 1.387 . S
C234 C235 1.387 . S
C234 H238 0.950 . S
C234 C243 1.390 1_655 S
C235 C234 1.387 . S
C235 C237 1.387 1_545 S
H236 C243 0.950 . S
C237 C235 1.387 1_565 S
C237 C239 1.390 1_655 S
C237 H241 0.950 . S
H238 C234 0.950 . S
C239 C237 1.390 1_455 S
C239 C240 1.387 1_565 S
C239 H242 0.950 . S
C240 C239 1.387 1_545 S
C240 C243 1.387 . S
H241 C237 0.950 . S
H242 C239 0.950 . S
C243 C234 1.390 1_455 S
C243 H236 0.950 . S
C243 C240 1.387 . S
C244 C245 1.387 . S
C244 H248 0.950 . S
C244 C253 1.390 . S
C245 C244 1.387 . S
C245 C247 1.387 . S
H246 C253 0.950 . S
C247 C245 1.387 . S
C247 C249 1.390 . S
C247 H251 0.950 . S
H248 C244 0.950 . S
C249 C247 1.390 . S
C249 C250 1.387 . S
C249 H252 0.950 . S
C250 C249 1.387 . S
C250 C253 1.387 . S
H251 C247 0.950 . S
H252 C249 0.950 . S
C253 C244 1.390 . S
C253 H246 0.950 . S
C253 C250 1.387 . S
C254 C255 1.387 . S
C254 H258 0.950 . S
C254 C263 1.381 1_554 S
C255 C254 1.387 . S
C255 C257 1.387 1_545 S
H256 C263 0.953 . S
C257 C255 1.387 1_565 S
C257 C259 1.390 1_554 S
C257 H261 0.950 . S
H258 C254 0.950 . S
C259 C257 1.390 1_556 S
C259 C260 1.387 1_565 S
C259 H262 0.950 . S
C260 C259 1.387 1_545 S
C260 C263 1.393 . S
H261 C257 0.950 . S
H262 C259 0.950 . S
C263 C254 1.381 1_556 S
C263 H256 0.953 . S
C263 C260 1.393 . S
C264 C265 1.387 . S
C264 H268 0.950 . S
C264 C273 1.390 . S
C265 C264 1.387 . S
C265 C267 1.387 . S
H266 C273 0.950 . S
C267 C265 1.387 . S
C267 C269 1.390 . S
C267 H271 0.950 . S
H268 C264 0.950 . S
C269 C267 1.390 . S
C269 C270 1.387 . S
C269 H272 0.950 . S
C270 C269 1.387 . S
C270 C273 1.387 . S
H271 C267 0.950 . S
H272 C269 0.950 . S
C273 C264 1.390 . S
C273 H266 0.950 . S
C273 C270 1.387 . S
C274 C275 1.387 . S
C274 H278 0.950 . S
C274 C283 1.390 . S
C275 C274 1.387 . S
C275 C277 1.387 1_545 S
H276 C283 0.950 . S
C277 C275 1.387 1_565 S
C277 C279 1.390 . S
C277 H281 0.950 . S
H278 C274 0.950 . S
C279 C277 1.390 . S
C279 C280 1.387 1_565 S
C279 H282 0.950 . S
C280 C279 1.387 1_545 S
C280 C283 1.387 . S
H281 C277 0.950 . S
H282 C279 0.950 . S
C283 C274 1.390 . S
C283 H276 0.950 . S
C283 C280 1.387 . S
C284 C285 1.387 . S
C284 H288 0.950 . S
C284 C293 1.390 . S
C285 C284 1.387 . S
C285 C287 1.387 . S
H286 C293 0.950 . S
C287 C285 1.387 . S
C287 C289 1.390 . S
C287 H291 0.950 . S
H288 C284 0.950 . S
C289 C287 1.390 . S
C289 C290 1.387 . S
C289 H292 0.950 . S
C290 C289 1.387 . S
C290 C293 1.387 . S
H291 C287 0.950 . S
H292 C289 0.950 . S
C293 C284 1.390 . S
C293 H286 0.950 . S
C293 C290 1.387 . S
C294 C295 1.387 1_565 S
C294 H298 0.950 . S
C294 C303 1.390 1_456 S
C295 C294 1.387 1_545 S
C295 C297 1.387 . S
H296 C303 0.950 . S
C297 C295 1.387 . S
C297 C299 1.390 1_456 S
C297 H301 0.950 . S
H298 C294 0.950 . S
C299 C297 1.390 1_654 S
C299 C300 1.387 . S
C299 H302 0.950 . S
C300 C299 1.387 . S
C300 C303 1.387 1_545 S
H301 C297 0.950 . S
H302 C299 0.950 . S
C303 C294 1.390 1_654 S
C303 H296 0.950 . S
C303 C300 1.387 1_565 S
C304 C305 1.387 . S
C304 H308 0.950 . S
C304 C313 1.390 . S
C305 C304 1.387 . S
C305 C307 1.387 . S
H306 C313 0.950 . S
C307 C305 1.387 . S
C307 C309 1.390 . S
C307 H311 0.950 . S
H308 C304 0.950 . S
C309 C307 1.390 . S
C309 C310 1.387 . S
C309 H312 0.950 . S
C310 C309 1.387 . S
C310 C313 1.387 . S
H311 C307 0.950 . S
H312 C309 0.950 . S
C313 C304 1.390 . S
C313 H306 0.950 . S
C313 C310 1.387 . S
C314 C315 1.387 . S
C314 H318 0.950 . S
C314 C323 1.390 . S
C315 C314 1.387 . S
C315 C317 1.387 . S
H316 C323 0.950 . S
C317 C315 1.387 . S
C317 C319 1.390 . S
C317 H321 0.950 . S
H318 C314 0.950 . S
C319 C317 1.390 . S
C319 C320 1.387 . S
C319 H322 0.950 . S
C320 C319 1.387 . S
C320 C323 1.387 . S
H321 C317 0.950 . S
H322 C319 0.950 . S
C323 C314 1.390 . S
C323 H316 0.950 . S
C323 C320 1.387 . S
C324 C325 1.387 . S
C324 H328 0.950 . S
C324 C333 1.390 . S
C325 C324 1.387 . S
C325 C327 1.387 . S
H326 C333 0.950 . S
C327 C325 1.387 . S
C327 C329 1.390 . S
C327 H331 0.950 . S
H328 C324 0.950 . S
C329 C327 1.390 . S
C329 C330 1.387 . S
C329 H332 0.950 . S
C330 C329 1.387 . S
C330 C333 1.387 . S
H331 C327 0.950 . S
H332 C329 0.950 . S
C333 C324 1.390 . S
C333 H326 0.950 . S
C333 C330 1.387 . S
C334 C335 1.387 . S
C334 H338 0.950 . S
C334 C343 1.390 . S
C335 C334 1.387 . S
C335 C337 1.387 . S
H336 C343 0.950 . S
C337 C335 1.387 . S
C337 C339 1.390 . S
C337 H341 0.950 . S
H338 C334 0.950 . S
C339 C337 1.390 . S
C339 C340 1.387 . S
C339 H342 0.950 . S
C340 C339 1.387 . S
C340 C343 1.387 . S
H341 C337 0.950 . S
H342 C339 0.950 . S
C343 C334 1.390 . S
C343 H336 0.950 . S
C343 C340 1.387 . S
C344 C345 1.387 . S
C344 H348 0.950 . S
C344 C353 1.390 . S
C345 C344 1.387 . S
C345 C347 1.387 . S
H346 C353 0.950 1_556 S
C347 C345 1.387 . S
C347 C349 1.390 1_554 S
C347 H351 0.950 . S
H348 C344 0.950 . S
C349 C347 1.390 1_556 S
C349 C350 1.387 . S
C349 H352 0.950 . S
C350 C349 1.387 . S
C350 C353 1.387 1_556 S
H351 C347 0.950 . S
H352 C349 0.950 . S
C353 C344 1.390 . S
C353 H346 0.950 1_554 S
C353 C350 1.387 1_554 S
C354 C355 1.387 . S
C354 H358 0.950 . S
C354 C363 1.390 1_455 S
C355 C354 1.387 . S
C355 C357 1.387 . S
H356 C363 0.950 . S
C357 C355 1.387 . S
C357 C359 1.390 1_455 S
C357 H361 0.950 . S
H358 C354 0.950 . S
C359 C357 1.390 1_655 S
C359 C360 1.387 . S
C359 H362 0.950 . S
C360 C359 1.387 . S
C360 C363 1.387 . S
H361 C357 0.950 . S
H362 C359 0.950 . S
C363 C354 1.390 1_655 S
C363 H356 0.950 . S
C363 C360 1.387 . S
C364 C365 1.387 . S
C364 H368 0.950 . S
C364 C373 1.390 1_454 S
C365 C364 1.387 . S
C365 C367 1.387 . S
H366 C373 0.950 . S
C367 C365 1.387 . S
C367 C369 1.390 1_454 S
C367 H371 0.950 . S
H368 C364 0.950 . S
C369 C367 1.390 1_656 S
C369 C370 1.387 . S
C369 H372 0.950 . S
C370 C369 1.387 . S
C370 C373 1.387 . S
H371 C367 0.950 . S
H372 C369 0.950 . S
C373 C364 1.390 1_656 S
C373 H366 0.950 . S
C373 C370 1.387 . S
C374 C375 1.387 . S
C374 H378 0.950 . S
C374 C383 1.390 . S
C375 C374 1.387 . S
C375 C377 1.387 . S
H376 C383 0.950 . S
C377 C375 1.387 . S
C377 C379 1.390 . S
C377 H381 0.950 . S
H378 C374 0.950 . S
C379 C377 1.390 . S
C379 C380 1.387 . S
C379 H382 0.950 . S
C380 C379 1.387 . S
C380 C383 1.387 . S
H381 C377 0.950 . S
H382 C379 0.950 . S
C383 C374 1.390 . S
C383 H376 0.950 . S
C383 C380 1.387 . S
C384 C385 1.387 . S
C384 H388 0.950 . S
C384 C393 1.390 . S
C385 C384 1.387 . S
C385 C387 1.387 . S
H386 C393 0.950 . S
C387 C385 1.387 . S
C387 C389 1.390 . S
C387 H391 0.950 . S
H388 C384 0.950 . S
C389 C387 1.390 . S
C389 C390 1.387 . S
C389 H392 0.950 . S
C390 C389 1.387 . S
C390 C393 1.387 . S
H391 C387 0.950 . S
H392 C389 0.950 . S
C393 C384 1.390 . S
C393 H386 0.950 . S
C393 C390 1.387 . S
C394 C395 1.387 . S
C394 H398 0.950 . S
C394 C403 1.390 . S
C395 C394 1.387 . S
C395 C397 1.387 . S
H396 C403 0.950 . S
C397 C395 1.387 . S
C397 C399 1.390 . S
C397 H401 0.950 . S
H398 C394 0.950 . S
C399 C397 1.390 . S
C399 C400 1.387 . S
C399 H402 0.950 . S
C400 C399 1.387 . S
C400 C403 1.387 . S
H401 C397 0.950 . S
H402 C399 0.950 . S
C403 C394 1.390 . S
C403 H396 0.950 . S
C403 C400 1.387 . S
C404 C405 1.387 . S
C404 H408 0.950 . S
C404 C413 1.390 . S
C405 C404 1.387 . S
C405 C407 1.387 . S
H406 C413 0.950 . S
C407 C405 1.387 . S
C407 C409 1.390 . S
C407 H411 0.950 . S
H408 C404 0.950 . S
C409 C407 1.390 . S
C409 C410 1.387 . S
C409 H412 0.950 . S
C410 C409 1.387 . S
C410 C413 1.387 . S
H411 C407 0.950 . S
H412 C409 0.950 . S
C413 C404 1.390 . S
C413 H406 0.950 . S
C413 C410 1.387 . S
C414 C415 1.387 . S
C414 H418 0.950 . S
C414 C423 1.390 . S
C415 C414 1.387 . S
C415 C417 1.387 . S
H416 C423 0.950 . S
C417 C415 1.387 . S
C417 C419 1.390 . S
C417 H421 0.950 1_556 S
H418 C414 0.950 . S
C419 C417 1.390 . S
C419 C420 1.387 . S
C419 H422 0.950 . S
C420 C419 1.387 . S
C420 C423 1.387 . S
H421 C417 0.950 1_554 S
H422 C419 0.950 . S
C423 C414 1.390 . S
C423 H416 0.950 . S
C423 C420 1.387 . S
C424 C425 1.387 . S
C424 H428 0.950 . S
C424 C433 1.390 . S
C425 C424 1.387 . S
C425 C427 1.387 . S
H426 C433 0.950 . S
C427 C425 1.387 . S
C427 C429 1.390 . S
C427 H431 0.950 . S
H428 C424 0.950 . S
C429 C427 1.390 . S
C429 C430 1.387 . S
C429 H432 0.950 . S
C430 C429 1.387 . S
C430 C433 1.387 . S
H431 C427 0.950 . S
H432 C429 0.950 . S
C433 C424 1.390 . S
C433 H426 0.950 . S
C433 C430 1.387 . S
C434 C435 1.387 . S
C434 H438 0.950 . S
C434 C443 1.390 . S
C435 C434 1.387 . S
C435 C437 1.387 . S
H436 C443 0.950 . S
C437 C435 1.387 . S
C437 C439 1.390 . S
C437 H441 0.950 . S
H438 C434 0.950 . S
C439 C437 1.390 . S
C439 C440 1.387 . S
C439 H442 0.950 . S
C440 C439 1.387 . S
C440 C443 1.387 . S
H441 C437 0.950 . S
H442 C439 0.950 . S
C443 C434 1.390 . S
C443 H436 0.950 . S
C443 C440 1.387 . S
C444 C445 1.387 . S
C444 H448 0.950 . S
C444 C453 1.390 . S
C445 C444 1.387 . S
C445 C447 1.387 . S
H446 C453 0.950 1_554 S
C447 C445 1.387 . S
C447 C449 1.390 . S
C447 H451 0.950 . S
H448 C444 0.950 . S
C449 C447 1.390 . S
C449 C450 1.387 . S
C449 H452 0.950 . S
C450 C449 1.387 . S
C450 C453 1.387 . S
H451 C447 0.950 . S
H452 C449 0.950 . S
C453 C444 1.390 . S
C453 H446 0.950 1_556 S
C453 C450 1.387 . S
C454 C455 1.387 . S
C454 H458 0.950 . S
C454 C463 1.390 . S
C455 C454 1.387 . S
C455 C457 1.387 . S
H456 C463 0.950 . S
C457 C455 1.387 . S
C457 C459 1.390 . S
C457 H461 0.950 . S
H458 C454 0.950 . S
C459 C457 1.390 . S
C459 C460 1.387 . S
C459 H462 0.950 . S
C460 C459 1.387 . S
C460 C463 1.387 . S
H461 C457 0.950 . S
H462 C459 0.950 . S
C463 C454 1.390 . S
C463 H456 0.950 . S
C463 C460 1.387 . S
C464 C465 1.387 . S
C464 H468 0.950 . S
C464 C473 1.390 . S
C465 C464 1.387 . S
C465 C467 1.387 . S
H466 C473 0.950 . S
C467 C465 1.387 . S
C467 C469 1.390 . S
C467 H471 0.950 1_556 S
H468 C464 0.950 . S
C469 C467 1.390 . S
C469 C470 1.387 . S
C469 H472 0.950 . S
C470 C469 1.387 . S
C470 C473 1.387 . S
H471 C467 0.950 1_554 S
H472 C469 0.950 . S
C473 C464 1.390 . S
C473 H466 0.950 . S
C473 C470 1.387 . S
C474 C475 1.387 . S
C474 H478 0.950 . S
C474 C483 1.390 . S
C475 C474 1.387 . S
C475 C477 1.387 . S
H476 C483 0.950 . S
C477 C475 1.387 . S
C477 C479 1.390 . S
C477 H481 0.950 . S
H478 C474 0.950 . S
C479 C477 1.390 . S
C479 C480 1.387 . S
C479 H482 0.950 . S
C480 C479 1.387 . S
C480 C483 1.387 . S
H481 C477 0.950 . S
H482 C479 0.950 . S
C483 C474 1.390 . S
C483 H476 0.950 . S
C483 C480 1.387 . S
C484 C485 1.387 . S
C484 H488 0.950 . S
C484 C493 1.390 . S
C485 C484 1.387 . S
C485 C487 1.387 . S
H486 C493 0.950 . S
C487 C485 1.387 . S
C487 C489 1.390 . S
C487 H491 0.950 . S
H488 C484 0.950 . S
C489 C487 1.390 . S
C489 C490 1.387 . S
C489 H492 0.950 . S
C490 C489 1.387 . S
C490 C493 1.387 . S
H491 C487 0.950 . S
H492 C489 0.950 . S
C493 C484 1.390 . S
C493 H486 0.950 . S
C493 C490 1.387 . S
C494 C495 1.387 . S
C494 H498 0.950 . S
C494 C503 1.390 . S
C495 C494 1.387 . S
C495 C497 1.387 . S
H496 C503 0.950 . S
C497 C495 1.387 . S
C497 C499 1.390 . S
C497 H501 0.950 . S
H498 C494 0.950 . S
C499 C497 1.390 . S
C499 C500 1.387 . S
C499 H502 0.950 . S
C500 C499 1.387 . S
C500 C503 1.387 . S
H501 C497 0.950 . S
H502 C499 0.950 . S
C503 C494 1.390 . S
C503 H496 0.950 . S
C503 C500 1.387 . S
C504 C505 1.387 . S
C504 H508 0.950 . S
C504 C513 1.390 . S
C505 C504 1.387 . S
C505 C507 1.387 . S
H506 C513 0.950 . S
C507 C505 1.387 . S
C507 C509 1.390 . S
C507 H511 0.950 . S
H508 C504 0.950 . S
C509 C507 1.390 . S
C509 C510 1.387 . S
C509 H512 0.950 . S
C510 C509 1.387 . S
C510 C513 1.387 . S
H511 C507 0.950 . S
H512 C509 0.950 . S
C513 C504 1.390 . S
C513 H506 0.950 . S
C513 C510 1.387 . S
C514 C515 1.387 . S
C514 H518 0.950 . S
C514 C523 1.390 . S
C515 C514 1.387 . S
C515 C517 1.387 . S
H516 C523 0.950 . S
C517 C515 1.387 . S
C517 C519 1.390 . S
C517 H521 0.950 . S
H518 C514 0.950 . S
C519 C517 1.390 . S
C519 C520 1.387 . S
C519 H522 0.950 . S
C520 C519 1.387 . S
C520 C523 1.387 . S
H521 C517 0.950 . S
H522 C519 0.950 . S
C523 C514 1.390 . S
C523 H516 0.950 . S
C523 C520 1.387 . S
C524 C525 1.387 . S
C524 H528 0.950 . S
C524 C533 1.390 . S
C525 C524 1.387 . S
C525 C527 1.387 . S
H526 C533 0.950 . S
C527 C525 1.387 . S
C527 C529 1.390 . S
C527 H531 0.950 . S
H528 C524 0.950 . S
C529 C527 1.390 . S
C529 C530 1.387 . S
C529 H532 0.950 . S
C530 C529 1.387 . S
C530 C533 1.387 . S
H531 C527 0.950 . S
H532 C529 0.950 . S
C533 C524 1.390 . S
C533 H526 0.950 . S
C533 C530 1.387 . S
C534 C535 1.387 . S
C534 H538 0.950 . S
C534 C543 1.390 . S
C535 C534 1.387 . S
C535 C537 1.387 . S
H536 C543 0.950 . S
C537 C535 1.387 . S
C537 C539 1.390 . S
C537 H541 0.950 . S
H538 C534 0.950 . S
C539 C537 1.390 . S
C539 C540 1.387 . S
C539 H542 0.950 . S
C540 C539 1.387 . S
C540 C543 1.387 . S
H541 C537 0.950 . S
H542 C539 0.950 . S
C543 C534 1.390 . S
C543 H536 0.950 . S
C543 C540 1.387 . S
C225 C3 1.520 . S
C230 C171 1.520 . S
C235 C23 1.349 . S
C240 C79 1.349 . S
C245 C31 1.521 . S
C250 C199 1.521 . S
C255 C107 1.350 . S
C260 C51 1.350 . S
C265 C205 1.349 . S
C270 C37 1.349 . S
C275 C101 1.520 . S
C280 C45 1.520 . S
C285 C177 1.351 . S
C290 C9 1.351 . S
C295 C73 1.520 . S
C300 C17 1.520 . S
C305 C59 1.521 . S
C310 C115 1.521 . S
C315 C87 1.520 . S
C320 C143 1.520 . S
C325 C149 1.350 . S
C330 C93 1.350 . S
C335 C65 1.350 . S
C340 C121 1.350 . S
C345 C191 1.349 . S
C350 C135 1.349 . S
C355 C163 1.350 . S
C360 C219 1.350 . S
C365 C157 1.520 . S
C370 C213 1.520 . S
C375 C129 1.520 . S
C380 C185 1.520 . S
C385 C162 1.491 . S
C390 C8 1.491 . S
C395 C119 1.474 . S
C400 C21 1.475 . S
C405 C36 1.491 . S
C410 C134 1.491 . S
C415 C147 1.474 . S
C420 C49 1.475 . S
C425 C161 1.475 . S
C430 C35 1.474 . S
C435 C50 1.491 . S
C440 C120 1.491 . S
C445 C133 1.473 . S
C450 C7 1.475 . S
C455 C148 1.491 . S
C460 C22 1.491 . S
C465 C64 1.491 . S
C470 C218 1.491 . S
C475 C175 1.475 . S
C480 C77 1.473 . S
C485 C92 1.491 . S
C490 C190 1.491 . S
C495 C105 1.475 . S
C500 C203 1.474 . S
C505 C91 1.475 . S
C510 C217 1.473 . S
C515 C176 1.491 . S
C520 C106 1.491 . S
C525 C189 1.476 . S
C530 C63 1.474 . S
C535 C204 1.491 . S
C540 C78 1.491 . S
