# Generated by pormake.
# Topology wkl, (6)-cn, num edge types: 1
# Building blocks:
#     Node 0, Type 0, BuildingBlock: IZENUY_clean_sbu_0, # of connection points: 6
#     Node 1, Type 0, BuildingBlock: IZENUY_clean_sbu_0, # of connection points: 6
#     Node 2, Type 0, BuildingBlock: IZENUY_clean_sbu_0, # of connection points: 6
#     Node 3, Type 0, BuildingBlock: IZENUY_clean_sbu_0, # of connection points: 6
#     Node 4, Type 0, BuildingBlock: IZENUY_clean_sbu_0, # of connection points: 6
#     Node 5, Type 0, BuildingBlock: IZENUY_clean_sbu_0, # of connection points: 6
#     Node 6, Type 0, BuildingBlock: IZENUY_clean_sbu_0, # of connection points: 6
#     Node 7, Type 0, BuildingBlock: IZENUY_clean_sbu_0, # of connection points: 6
#     Node 8, Type 0, BuildingBlock: IZENUY_clean_sbu_0, # of connection points: 6
#     Node 9, Type 0, BuildingBlock: IZENUY_clean_sbu_0, # of connection points: 6
#     Node 10, Type 0, BuildingBlock: IZENUY_clean_sbu_0, # of connection points: 6
#     Node 11, Type 0, BuildingBlock: IZENUY_clean_sbu_0, # of connection points: 6
#     Edge 12, Type (0, 0), BuildingBlock: EYOCIG_clean_linker_4, # of connection points: 2
#     Edge 13, Type (0, 0), BuildingBlock: EYOCIG_clean_linker_4, # of connection points: 2
#     Edge 14, Type (0, 0), BuildingBlock: EYOCIG_clean_linker_4, # of connection points: 2
#     Edge 15, Type (0, 0), BuildingBlock: EYOCIG_clean_linker_4, # of connection points: 2
#     Edge 16, Type (0, 0), BuildingBlock: EYOCIG_clean_linker_4, # of connection points: 2
#     Edge 17, Type (0, 0), BuildingBlock: EYOCIG_clean_linker_4, # of connection points: 2
#     Edge 18, Type (0, 0), BuildingBlock: EYOCIG_clean_linker_4, # of connection points: 2
#     Edge 19, Type (0, 0), BuildingBlock: EYOCIG_clean_linker_4, # of connection points: 2
#     Edge 20, Type (0, 0), BuildingBlock: EYOCIG_clean_linker_4, # of connection points: 2
#     Edge 21, Type (0, 0), BuildingBlock: EYOCIG_clean_linker_4, # of connection points: 2
#     Edge 22, Type (0, 0), BuildingBlock: EYOCIG_clean_linker_4, # of connection points: 2
#     Edge 23, Type (0, 0), BuildingBlock: EYOCIG_clean_linker_4, # of connection points: 2
#     Edge 24, Type (0, 0), BuildingBlock: EYOCIG_clean_linker_4, # of connection points: 2
#     Edge 25, Type (0, 0), BuildingBlock: EYOCIG_clean_linker_4, # of connection points: 2
#     Edge 26, Type (0, 0), BuildingBlock: EYOCIG_clean_linker_4, # of connection points: 2
#     Edge 27, Type (0, 0), BuildingBlock: EYOCIG_clean_linker_4, # of connection points: 2
#     Edge 28, Type (0, 0), BuildingBlock: EYOCIG_clean_linker_4, # of connection points: 2
#     Edge 29, Type (0, 0), BuildingBlock: EYOCIG_clean_linker_4, # of connection points: 2
#     Edge 30, Type (0, 0), BuildingBlock: EYOCIG_clean_linker_4, # of connection points: 2
#     Edge 31, Type (0, 0), BuildingBlock: EYOCIG_clean_linker_4, # of connection points: 2
#     Edge 32, Type (0, 0), BuildingBlock: EYOCIG_clean_linker_4, # of connection points: 2
#     Edge 33, Type (0, 0), BuildingBlock: EYOCIG_clean_linker_4, # of connection points: 2
#     Edge 34, Type (0, 0), BuildingBlock: EYOCIG_clean_linker_4, # of connection points: 2
#     Edge 35, Type (0, 0), BuildingBlock: EYOCIG_clean_linker_4, # of connection points: 2
#     Edge 36, Type (0, 0), BuildingBlock: EYOCIG_clean_linker_4, # of connection points: 2
#     Edge 37, Type (0, 0), BuildingBlock: EYOCIG_clean_linker_4, # of connection points: 2
#     Edge 38, Type (0, 0), BuildingBlock: EYOCIG_clean_linker_4, # of connection points: 2
#     Edge 39, Type (0, 0), BuildingBlock: EYOCIG_clean_linker_4, # of connection points: 2
#     Edge 40, Type (0, 0), BuildingBlock: EYOCIG_clean_linker_4, # of connection points: 2
#     Edge 41, Type (0, 0), BuildingBlock: EYOCIG_clean_linker_4, # of connection points: 2
#     Edge 42, Type (0, 0), BuildingBlock: EYOCIG_clean_linker_4, # of connection points: 2
#     Edge 43, Type (0, 0), BuildingBlock: EYOCIG_clean_linker_4, # of connection points: 2
#     Edge 44, Type (0, 0), BuildingBlock: EYOCIG_clean_linker_4, # of connection points: 2
#     Edge 45, Type (0, 0), BuildingBlock: EYOCIG_clean_linker_4, # of connection points: 2
#     Edge 46, Type (0, 0), BuildingBlock: EYOCIG_clean_linker_4, # of connection points: 2
#     Edge 47, Type (0, 0), BuildingBlock: EYOCIG_clean_linker_4, # of connection points: 2
# Relax obj value: 0.387
# Max RMSD: 0.287
# Mean RMSD: 0.287
data_MOF--net-wkl--node1-IZENUY_clean_sbu_0--edge1-EYOCIG_clean_linker_4
_symmetry_space_group_name_H-M    P1
_symmetry_Int_Tables_number       1
_symmetry_cell_setting            triclinic
loop_
_symmetry_equiv_pos_as_xyz
'x, y, z'
_cell_length_a     57.460951
_cell_length_b     57.459121
_cell_length_c     11.94039
_cell_angle_alpha  89.943491
_cell_angle_beta   90.02323
_cell_angle_gamma 120.00037
loop_
_atom_site_label
_atom_site_type_symbol
_atom_site_fract_x
_atom_site_fract_y
_atom_site_fract_z
_atom_type_partial_charge
Fe0 Fe 0.48205 0.10674 0.12032 0.0
Fe1 Fe 0.50111 0.15717 0.96292 0.0
O2 O 0.47449 0.12896 0.03975 0.0
Fe3 Fe 0.44018 0.12307 0.03621 0.0
O4 O 0.43726 0.12211 0.18835 0.0
O5 O 0.46666 0.1104 0.24665 0.0
O6 O 0.51382 0.13249 0.17591 0.0
C7 C 0.53066 0.15613 0.14981 0.0
C8 C 0.42961 0.06918 0.04467 0.0
O9 O 0.52681 0.1681 0.0706 0.0
C10 C 0.45658 0.13674 0.81261 0.0
O11 O 0.49878 0.10082 1.00528 0.0
O12 O 0.51322 0.13696 0.89751 0.0
O13 O 0.42295 0.08649 0.02477 0.0
O14 O 0.45239 0.07561 0.08151 0.0
C15 C 0.47177 0.18006 0.04596 0.0
O16 O 0.48089 0.15186 0.83791 0.0
O17 O 0.43886 0.1233 0.8844 0.0
C18 C 0.51149 0.11485 0.92205 0.0
O19 O 0.49354 0.18162 0.01948 0.0
O20 O 0.44985 0.15831 0.0462 0.0
C21 C 0.4493 0.11722 0.26532 0.0
Fe22 Fe 0.31951 0.4395 0.20388 0.0
Fe23 Fe 0.37765 0.48155 0.28727 0.0
O24 O 0.34777 0.47386 0.20748 0.0
Fe25 Fe 0.3459 0.50038 0.13135 0.0
O26 O 0.31395 0.4926 0.18899 0.0
O27 O 0.29362 0.4488 0.21063 0.0
O28 O 0.31726 0.43694 0.35608 0.0
C29 C 0.33442 0.44865 0.4326 0.0
C30 C 0.32244 0.45591 0.9806 0.0
O31 O 0.35872 0.46564 0.41337 0.0
C32 C 0.39868 0.51128 0.08929 0.0
O33 O 0.33891 0.4223 0.19563 0.0
O34 O 0.37952 0.45229 0.24626 0.0
O35 O 0.3309 0.48008 1.00653 0.0
O36 O 0.31859 0.43821 0.05199 0.0
C37 C 0.37634 0.52978 0.31878 0.0
O38 O 0.40022 0.49874 0.17258 0.0
O39 O 0.37813 0.51273 0.06495 0.0
C40 C 0.36305 0.42927 0.21266 0.0
O41 O 0.38325 0.513 0.34452 0.0
O42 O 0.36066 0.52603 0.23918 0.0
C43 C 0.29366 0.47064 0.21227 0.0
Fe44 Fe 0.89852 0.37678 0.45299 0.0
Fe45 Fe 0.84789 0.34488 0.29761 0.0
O46 O 0.87625 0.34675 0.37426 0.0
Fe47 Fe 0.88225 0.31842 0.37219 0.0
O48 O 0.88306 0.31671 0.52444 0.0
O49 O 0.89496 0.35807 0.58044 0.0
O50 O 0.87282 0.38301 0.50737 0.0
C51 C 0.84899 0.37577 0.48287 0.0
C52 C 0.93609 0.36171 0.38064 0.0
O53 O 0.83681 0.35944 0.40551 0.0
C54 C 0.8689 0.32121 0.14817 0.0
O55 O 0.90441 0.39903 0.33629 0.0
O56 O 0.86779 0.37722 0.23163 0.0
O57 O 0.91882 0.3377 0.36179 0.0
O58 O 0.92962 0.37818 0.41505 0.0
C59 C 0.82527 0.2927 0.38125 0.0
O60 O 0.8535 0.33011 0.17294 0.0
O61 O 0.88225 0.31689 0.2204 0.0
C62 C 0.8901 0.39756 0.25395 0.0
O63 O 0.82359 0.31281 0.35442 0.0
O64 O 0.84708 0.29268 0.38169 0.0
C65 C 0.88818 0.33391 0.60041 0.0
Fe66 Fe 0.56555 0.88124 0.53762 0.0
Fe67 Fe 0.52331 0.8972 0.6195 0.0
O68 O 0.53117 0.87508 0.54034 0.0
Fe69 Fe 0.50478 0.84671 0.46374 0.0
O70 O 0.5126 0.8225 0.52101 0.0
O71 O 0.55634 0.84606 0.54406 0.0
O72 O 0.56787 0.88147 0.68987 0.0
C73 C 0.55597 0.88679 0.76603 0.0
C74 C 0.54947 0.86805 0.31402 0.0
O75 O 0.53881 0.89387 0.74637 0.0
C76 C 0.49408 0.88874 0.42037 0.0
O77 O 0.58276 0.91785 0.52971 0.0
O78 O 0.55274 0.92839 0.58048 0.0
O79 O 0.52527 0.85227 0.33934 0.0
O80 O 0.56708 0.88178 0.38581 0.0
C81 C 0.47495 0.84762 0.64951 0.0
O82 O 0.50662 0.90288 0.50352 0.0
O83 O 0.4924 0.8666 0.39727 0.0
C84 C 0.57581 0.935 0.54735 0.0
O85 O 0.49159 0.87136 0.6749 0.0
O86 O 0.47902 0.83561 0.57124 0.0
C87 C 0.53456 0.82419 0.54439 0.0
Fe88 Fe 0.66042 0.50436 0.62988 0.0
Fe89 Fe 0.68691 0.56506 0.70359 0.0
O90 O 0.65858 0.53076 0.70675 0.0
Fe91 Fe 0.62871 0.52304 0.78656 0.0
O92 O 0.6237 0.49199 0.84651 0.0
O93 O 0.64456 0.4781 0.73511 0.0
O94 O 0.69193 0.51158 0.69085 0.0
C95 C 0.7124 0.53354 0.71272 0.0
C96 C 0.60782 0.49341 0.58748 0.0
O97 O 0.71269 0.55552 0.70895 0.0
C98 C 0.64324 0.57521 0.71075 0.0
O99 O 0.67636 0.52504 0.50653 0.0
O100 O 0.68763 0.5666 0.55177 0.0
O101 O 0.60597 0.50509 0.67315 0.0
O102 O 0.62869 0.49285 0.56058 0.0
C103 C 0.67196 0.55618 0.93192 0.0
O104 O 0.66755 0.58237 0.69692 0.0
O105 O 0.62658 0.55199 0.74206 0.0
C106 C 0.68431 0.54912 0.48039 0.0
O107 O 0.68931 0.56738 0.85568 0.0
O108 O 0.64757 0.53959 0.91218 0.0
C109 C 0.62956 0.47465 0.81711 0.0
Fe110 Fe 0.12385 0.68564 0.8711 0.0
Fe111 Fe 0.10748 0.62723 0.952 0.0
O112 O 0.12986 0.65732 0.87373 0.0
Fe113 Fe 0.15834 0.6593 0.79798 0.0
O114 O 0.1825 0.69128 0.85509 0.0
O115 O 0.15904 0.71154 0.87789 0.0
O116 O 0.12355 0.68758 0.02339 0.0
C117 C 0.11791 0.67018 0.09923 0.0
C118 C 0.1371 0.68268 0.64754 0.0
O119 O 0.11056 0.6459 0.07907 0.0
C120 C 0.11649 0.60658 0.75409 0.0
O121 O 0.08722 0.66641 0.86299 0.0
O122 O 0.07641 0.62564 0.91161 0.0
O123 O 0.15283 0.67418 0.67311 0.0
O124 O 0.12344 0.6867 0.71923 0.0
C125 C 0.157 0.62833 0.98379 0.0
O126 O 0.10202 0.60499 0.83596 0.0
O127 O 0.13867 0.62705 0.73171 0.0
C128 C 0.06995 0.64227 0.87923 0.0
O129 O 0.13318 0.62117 1.00818 0.0
O130 O 0.16926 0.64465 0.90635 0.0
C131 C 0.18087 0.71156 0.87848 0.0
Fe132 Fe 0.88174 0.56464 0.85119 0.0
Fe133 Fe 0.89836 0.52297 0.76803 0.0
O134 O 0.87597 0.5304 0.84774 0.0
Fe135 Fe 0.84771 0.50369 0.92383 0.0
O136 O 0.82328 0.5112 0.86674 0.0
O137 O 0.84647 0.55496 0.84306 0.0
O138 O 0.88227 0.56729 0.69897 0.0
C139 C 0.88749 0.55543 0.62236 0.0
C140 C 0.86823 0.54815 0.07456 0.0
O141 O 0.89473 0.53837 0.64147 0.0
C142 C 0.89016 0.49357 0.96657 0.0
O143 O 0.91837 0.58215 0.86074 0.0
O144 O 0.92937 0.55264 0.8071 0.0
O145 O 0.85291 0.52388 0.04884 0.0
O146 O 0.88185 0.56592 1.00308 0.0
C147 C 0.84906 0.47438 0.73692 0.0
O148 O 0.90429 0.50636 0.88369 0.0
O149 O 0.86788 0.49157 0.98979 0.0
C150 C 0.93573 0.57552 0.84187 0.0
O151 O 0.87279 0.49118 0.71216 0.0
O152 O 0.83693 0.47813 0.81567 0.0
C153 C 0.82476 0.53302 0.84215 0.0
Fe154 Fe 0.31896 0.88082 0.01728 0.0
Fe155 Fe 0.37731 0.89757 0.93455 0.0
O156 O 0.34746 0.87509 1.01385 0.0
Fe157 Fe 0.3459 0.84675 0.08943 0.0
O158 O 0.31389 0.82236 0.03309 0.0
O159 O 0.2934 0.84558 1.00849 0.0
O160 O 0.31699 0.88151 0.86499 0.0
C161 C 0.33405 0.88647 0.78843 0.0
C162 C 0.32204 0.86725 0.24065 0.0
O163 O 0.35832 0.89354 0.80757 0.0
C164 C 0.39846 0.88936 0.13277 0.0
O165 O 0.33798 0.91745 0.02737 0.0
O166 O 0.37836 0.92853 0.97171 0.0
O167 O 0.33112 0.85205 0.21489 0.0
O168 O 0.31769 0.88075 0.16921 0.0
C169 C 0.37672 0.84829 0.90328 0.0
O170 O 0.39966 0.9038 0.05121 0.0
O171 O 0.37832 0.86683 0.15453 0.0
C172 C 0.36186 0.93487 1.00698 0.0
O173 O 0.38401 0.87219 0.8802 0.0
O174 O 0.3604 0.83591 0.98041 0.0
C175 C 0.29362 0.82388 1.00774 0.0
Fe176 Fe 0.44011 0.31836 0.18271 0.0
Fe177 Fe 0.48219 0.37661 0.10134 0.0
O178 O 0.47441 0.34659 0.18002 0.0
Fe179 Fe 0.50069 0.34445 0.25643 0.0
O180 O 0.4934 0.31309 0.19387 0.0
O181 O 0.44941 0.29234 0.18071 0.0
O182 O 0.43828 0.31579 0.03062 0.0
C183 C 0.44906 0.33345 0.95507 0.0
C184 C 0.4559 0.32109 0.40581 0.0
O185 O 0.46513 0.35795 0.97582 0.0
C186 C 0.5119 0.397 0.30089 0.0
O187 O 0.42274 0.3377 0.1857 0.0
O188 O 0.45358 0.379 0.14832 0.0
O189 O 0.4798 0.32822 0.37925 0.0
O190 O 0.4385 0.31818 0.33454 0.0
C191 C 0.53025 0.37533 0.06867 0.0
O192 O 0.50057 0.39918 0.21465 0.0
O193 O 0.51222 0.37598 0.3273 0.0
C194 C 0.43009 0.36214 0.17533 0.0
O195 O 0.51291 0.38123 0.0396 0.0
O196 O 0.52697 0.36053 0.15137 0.0
C197 C 0.47132 0.29252 0.17483 0.0
Fe198 Fe 0.12417 0.43906 0.35116 0.0
Fe199 Fe 0.10767 0.48085 0.26828 0.0
O200 O 0.13002 0.47331 0.34768 0.0
Fe201 Fe 0.15836 0.49986 0.42367 0.0
O202 O 0.18262 0.49257 0.36328 0.0
O203 O 0.15947 0.44866 0.34542 0.0
O204 O 0.12416 0.4367 0.19902 0.0
C205 C 0.11812 0.448 0.12271 0.0
C206 C 0.13766 0.45527 0.57418 0.0
O207 O 0.11025 0.46455 0.14237 0.0
C208 C 0.11645 0.51046 0.46725 0.0
O209 O 0.0875 0.42158 0.35821 0.0
O210 O 0.07668 0.4517 0.31191 0.0
O211 O 0.15364 0.47937 0.5477 0.0
O212 O 0.12352 0.43766 0.50307 0.0
C213 C 0.15692 0.52922 0.23599 0.0
O214 O 0.10266 0.49846 0.38249 0.0
O215 O 0.13822 0.51153 0.49242 0.0
C216 C 0.07025 0.42855 0.34356 0.0
O217 O 0.13348 0.51207 0.2088 0.0
O218 O 0.16871 0.52582 0.31719 0.0
C219 C 0.18113 0.47063 0.34131 0.0
Fe220 Fe 0.68648 0.12294 0.51816 0.0
Fe221 Fe 0.62829 0.10687 0.4354 0.0
O222 O 0.65828 0.12911 0.51446 0.0
Fe223 Fe 0.66027 0.15761 0.58987 0.0
O224 O 0.69231 0.18172 0.53251 0.0
O225 O 0.71246 0.1581 0.51086 0.0
O226 O 0.68855 0.12247 0.36586 0.0
C227 C 0.67142 0.11732 0.28937 0.0
C228 C 0.68362 0.13654 0.74122 0.0
O229 O 0.64716 0.11025 0.30865 0.0
C230 C 0.6076 0.1155 0.63416 0.0
O231 O 0.66705 0.08634 0.52742 0.0
O232 O 0.6266 0.07573 0.47469 0.0
O233 O 0.67516 0.15225 0.71501 0.0
O234 O 0.68749 0.12267 0.67006 0.0
C235 C 0.62951 0.15641 0.40348 0.0
O236 O 0.60599 0.10122 0.55154 0.0
O237 O 0.62799 0.1378 0.65625 0.0
C238 C 0.64298 0.06917 0.50936 0.0
O239 O 0.62225 0.13257 0.37949 0.0
O240 O 0.64567 0.16857 0.48136 0.0
C241 C 0.71258 0.17998 0.50973 0.0
Fe242 Fe 0.5657 0.68574 0.68402 0.0
Fe243 Fe 0.52355 0.62761 0.60133 0.0
O244 O 0.53135 0.65754 0.68072 0.0
Fe245 Fe 0.50495 0.65957 0.75685 0.0
O246 O 0.51244 0.69117 0.69597 0.0
O247 O 0.55634 0.71162 0.67743 0.0
O248 O 0.56812 0.68795 0.53177 0.0
C249 C 0.55622 0.67082 0.4553 0.0
C250 C 0.54953 0.68328 0.90698 0.0
O251 O 0.53914 0.64652 0.47464 0.0
C252 C 0.49462 0.6071 0.8018 0.0
O253 O 0.58295 0.66637 0.69192 0.0
O254 O 0.55297 0.62583 0.64066 0.0
O255 O 0.52548 0.67529 0.88054 0.0
O256 O 0.56709 0.68658 0.83594 0.0
C257 C 0.47503 0.62842 0.57168 0.0
O258 O 0.50671 0.60526 0.71735 0.0
O259 O 0.49317 0.62767 0.82566 0.0
C260 C 0.57604 0.64228 0.67386 0.0
O261 O 0.49191 0.62176 0.54506 0.0
O262 O 0.47888 0.64414 0.65106 0.0
C263 C 0.53445 0.71147 0.67309 0.0
C264 C 0.44554 0.12968 0.596 0.0
C265 C 0.44965 0.13231 0.69567 0.0
C266 C 0.44366 0.12535 0.47884 0.0
C267 C 0.44511 0.12201 0.37979 0.0
C268 C 0.31878 0.44516 0.76381 0.0
C269 C 0.32017 0.44919 0.86351 0.0
C270 C 0.32111 0.44325 0.6466 0.0
C271 C 0.32568 0.44462 0.54737 0.0
C272 C 0.88091 0.32067 0.81459 0.0
C273 C 0.88387 0.32533 0.71539 0.0
C274 C 0.87667 0.31804 0.93176 0.0
C275 C 0.87378 0.31913 0.03143 0.0
C276 C 0.56024 0.87539 0.09743 0.0
C277 C 0.55631 0.8727 0.19716 0.0
C278 C 0.56184 0.87946 0.98018 0.0
C279 C 0.56021 0.88242 0.88095 0.0
C280 C 0.68522 0.5618 0.14625 0.0
C281 C 0.68056 0.56021 0.04699 0.0
C282 C 0.68775 0.55998 0.2635 0.0
C283 C 0.68643 0.55586 0.36321 0.0
C284 C 0.12954 0.68579 0.43081 0.0
C285 C 0.13235 0.68469 0.53056 0.0
C286 C 0.12532 0.68321 0.3136 0.0
C287 C 0.12232 0.67864 0.21435 0.0
C288 C 0.8751 0.55896 0.29134 0.0
C289 C 0.87256 0.55494 0.19162 0.0
C290 C 0.87934 0.56083 0.40856 0.0
C291 C 0.88266 0.55945 0.5077 0.0
C292 C 0.32057 0.87833 0.57467 0.0
C293 C 0.32523 0.88165 0.6738 0.0
C294 C 0.31821 0.87412 0.45746 0.0
C295 C 0.31963 0.87158 0.35771 0.0
C296 C 0.44356 0.32072 0.74016 0.0
C297 C 0.44518 0.3252 0.83957 0.0
C298 C 0.4453 0.31819 0.62286 0.0
C299 C 0.44935 0.31929 0.52313 0.0
C300 C 0.12611 0.44267 0.90851 0.0
C301 C 0.12288 0.44412 1.00771 0.0
C302 C 0.13048 0.44454 0.79125 0.0
C303 C 0.13319 0.44862 0.69149 0.0
C304 C 0.68724 0.1295 0.95816 0.0
C305 C 0.68588 0.13212 0.85839 0.0
C306 C 0.68482 0.12527 0.07541 0.0
C307 C 0.68018 0.12203 0.17459 0.0
C308 C 0.56175 0.68438 0.24139 0.0
C309 C 0.56027 0.67962 0.34053 0.0
C310 C 0.56005 0.68689 0.12411 0.0
C311 C 0.55613 0.68551 0.02428 0.0
C312 C 0.39627 0.01642 0.02536 0.0
C313 C 0.4103 0.04073 0.03186 0.0
C314 C 0.38156 0.98769 0.02274 0.0
C315 C 0.3709 0.96332 0.01819 0.0
C316 C 0.39708 0.38189 0.19212 0.0
C317 C 0.41084 0.37135 0.18615 0.0
C318 C 0.38278 0.39627 0.19488 0.0
C319 C 0.37227 0.41007 0.20082 0.0
C320 C 0.01752 0.39541 0.36186 0.0
C321 C 0.04183 0.40921 0.35562 0.0
C322 C 0.98883 0.38114 0.36444 0.0
C323 C 0.96451 0.37077 0.36956 0.0
C324 C 0.60879 0.98776 0.53087 0.0
C325 C 0.59501 0.96344 0.53622 0.0
C326 C 0.62314 0.01643 0.52802 0.0
C327 C 0.6337 0.04074 0.52178 0.0
C328 C 0.62348 0.60821 0.69166 0.0
C329 C 0.63401 0.59443 0.69837 0.0
C330 C 0.60912 0.62256 0.68907 0.0
C331 C 0.5953 0.63307 0.68433 0.0
C332 C 0.0172 0.62289 0.86182 0.0
C333 C 0.04151 0.63323 0.86769 0.0
C334 C 0.98849 0.60869 0.85913 0.0
C335 C 0.96415 0.5949 0.8537 0.0
C336 C 0.54385 0.10387 0.81057 0.0
C337 C 0.52862 0.10782 0.86427 0.0
C338 C 0.56479 0.1041 0.75064 0.0
C339 C 0.58379 0.10834 0.69496 0.0
C340 C 0.44199 0.5436 0.97758 0.0
C341 C 0.42272 0.52847 0.03102 0.0
C342 C 0.46292 0.56437 0.91794 0.0
C343 C 0.47781 0.58329 0.86222 0.0
C344 C 0.90139 0.46164 0.08032 0.0
C345 C 0.89734 0.47668 0.02563 0.0
C346 C 0.90128 0.4407 0.13999 0.0
C347 C 0.89714 0.42155 0.19452 0.0
C348 C 0.46232 0.90006 0.30574 0.0
C349 C 0.47721 0.8958 0.3605 0.0
C350 C 0.4416 0.90038 0.24602 0.0
C351 C 0.42255 0.89652 0.1915 0.0
C352 C 0.56471 0.46069 0.47569 0.0
C353 C 0.58384 0.47598 0.52939 0.0
C354 C 0.54396 0.43975 0.41606 0.0
C355 C 0.52902 0.42072 0.36109 0.0
C356 C 0.10584 0.54266 0.58171 0.0
C357 C 0.10967 0.52755 0.52667 0.0
C358 C 0.10597 0.56355 0.64143 0.0
C359 C 0.10981 0.58265 0.69535 0.0
C360 C 0.47211 0.22456 0.09963 0.0
C361 C 0.47192 0.2042 0.07513 0.0
C362 C 0.47174 0.24815 0.12628 0.0
C363 C 0.47118 0.26825 0.14835 0.0
C364 C 0.22567 0.47102 0.28935 0.0
C365 C 0.20523 0.47068 0.31303 0.0
C366 C 0.24938 0.47093 0.2627 0.0
C367 C 0.2695 0.47055 0.23978 0.0
C368 C 0.75714 0.22466 0.46209 0.0
C369 C 0.73692 0.20408 0.48371 0.0
C370 C 0.78085 0.24853 0.4356 0.0
C371 C 0.80121 0.26866 0.41084 0.0
C372 C 0.53446 0.77953 0.59195 0.0
C373 C 0.53476 0.80007 0.57035 0.0
C374 C 0.53437 0.7557 0.61852 0.0
C375 C 0.53459 0.73558 0.64338 0.0
C376 C 0.78017 0.53262 0.79015 0.0
C377 C 0.80059 0.53288 0.81387 0.0
C378 C 0.75654 0.5329 0.76341 0.0
C379 C 0.73651 0.53347 0.74036 0.0
C380 C 0.22569 0.75581 0.92691 0.0
C381 C 0.20503 0.73575 0.90497 0.0
C382 C 0.2496 0.7794 0.95365 0.0
C383 C 0.26968 0.79977 0.97833 0.0
C384 C 0.57749 0.17279 0.24831 0.0
C385 C 0.55704 0.16748 0.19884 0.0
C386 C 0.59946 0.17296 0.30336 0.0
C387 C 0.61467 0.16787 0.35352 0.0
C388 C 0.40629 0.57638 0.41866 0.0
C389 C 0.39121 0.55607 0.36851 0.0
C390 C 0.42819 0.59823 0.47359 0.0
C391 C 0.44863 0.61337 0.52294 0.0
C392 C 0.83239 0.40598 0.58091 0.0
C393 C 0.83754 0.39072 0.53167 0.0
C394 C 0.83246 0.42786 0.63608 0.0
C395 C 0.8377 0.44815 0.68655 0.0
C396 C 0.40645 0.83146 0.80239 0.0
C397 C 0.39148 0.83684 0.85267 0.0
C398 C 0.42816 0.83116 0.74732 0.0
C399 C 0.44853 0.8362 0.69804 0.0
C400 C 0.59882 0.42767 0.91418 0.0
C401 C 0.61408 0.44817 0.86519 0.0
C402 C 0.5769 0.40569 0.96883 0.0
C403 C 0.55658 0.39057 0.01913 0.0
C404 C 0.17334 0.57582 0.1355 0.0
C405 C 0.16808 0.55549 0.18592 0.0
C406 C 0.1734 0.5978 0.08094 0.0
C407 C 0.16829 0.61317 0.03222 0.0
loop_
_geom_bond_atom_site_label_1
_geom_bond_atom_site_label_2
_geom_bond_distance
_geom_bond_site_symmetry_2
_ccdc_geom_bond_type
Fe0 O2 1.918 . S
Fe0 O5 1.997 . S
Fe0 O6 2.002 . S
Fe0 O11 1.976 1_554 S
Fe0 O14 1.996 . S
Fe1 O2 1.918 1_556 S
Fe1 O9 1.997 1_556 S
Fe1 O12 1.996 . S
Fe1 O16 1.976 . S
Fe1 O19 2.002 . S
O2 Fe0 1.918 . S
O2 Fe1 1.918 1_554 S
O2 Fe3 1.918 . S
Fe3 O2 1.918 . S
Fe3 O4 2.002 . S
Fe3 O13 1.976 1_554 S
Fe3 O17 1.996 1_554 S
Fe3 O20 1.997 . S
O4 Fe3 2.002 . S
O4 C21 1.295 . S
O5 Fe0 1.997 . S
O5 C21 1.235 . S
O6 Fe0 2.002 . S
O6 C7 1.295 . S
C7 O6 1.295 . S
C7 O9 1.235 . S
C8 O13 1.287 1_554 S
C8 O14 1.255 . S
O9 Fe1 1.997 1_554 S
O9 C7 1.235 . S
C10 O16 1.287 . S
C10 O17 1.255 . S
O11 Fe0 1.976 1_556 S
O11 C18 1.287 . S
O12 Fe1 1.996 . S
O12 C18 1.255 . S
O13 Fe3 1.976 1_556 S
O13 C8 1.287 1_556 S
O14 Fe0 1.996 . S
O14 C8 1.255 . S
C15 O19 1.295 1_554 S
C15 O20 1.235 . S
O16 Fe1 1.976 . S
O16 C10 1.287 . S
O17 Fe3 1.996 1_556 S
O17 C10 1.255 . S
C18 O11 1.287 . S
C18 O12 1.255 . S
O19 Fe1 2.002 . S
O19 C15 1.295 1_556 S
O20 Fe3 1.997 . S
O20 C15 1.235 . S
C21 O4 1.295 . S
C21 O5 1.235 . S
Fe22 O24 1.918 . S
Fe22 O27 1.997 . S
Fe22 O28 2.002 . S
Fe22 O33 1.976 . S
Fe22 O36 1.996 . S
Fe23 O24 1.918 . S
Fe23 O31 1.997 . S
Fe23 O34 1.996 . S
Fe23 O38 1.976 . S
Fe23 O41 2.002 . S
O24 Fe22 1.918 . S
O24 Fe23 1.918 . S
O24 Fe25 1.918 . S
Fe25 O24 1.918 . S
Fe25 O26 2.002 . S
Fe25 O35 1.976 1_554 S
Fe25 O39 1.996 . S
Fe25 O42 1.997 . S
O26 Fe25 2.002 . S
O26 C43 1.295 . S
O27 Fe22 1.997 . S
O27 C43 1.235 . S
O28 Fe22 2.002 . S
O28 C29 1.295 . S
C29 O28 1.295 . S
C29 O31 1.235 . S
C30 O35 1.287 . S
C30 O36 1.255 1_556 S
O31 Fe23 1.997 . S
O31 C29 1.235 . S
C32 O38 1.287 . S
C32 O39 1.255 . S
O33 Fe22 1.976 . S
O33 C40 1.287 . S
O34 Fe23 1.996 . S
O34 C40 1.255 . S
O35 Fe25 1.976 1_556 S
O35 C30 1.287 . S
O36 Fe22 1.996 . S
O36 C30 1.255 1_554 S
C37 O41 1.295 . S
C37 O42 1.235 . S
O38 Fe23 1.976 . S
O38 C32 1.287 . S
O39 Fe25 1.996 . S
O39 C32 1.255 . S
C40 O33 1.287 . S
C40 O34 1.255 . S
O41 Fe23 2.002 . S
O41 C37 1.295 . S
O42 Fe25 1.997 . S
O42 C37 1.235 . S
C43 O26 1.295 . S
C43 O27 1.235 . S
Fe44 O46 1.918 . S
Fe44 O49 1.997 . S
Fe44 O50 2.002 . S
Fe44 O55 1.976 . S
Fe44 O58 1.996 . S
Fe45 O46 1.918 . S
Fe45 O53 1.997 . S
Fe45 O56 1.996 . S
Fe45 O60 1.976 . S
Fe45 O63 2.002 . S
O46 Fe44 1.918 . S
O46 Fe45 1.918 . S
O46 Fe47 1.918 . S
Fe47 O46 1.918 . S
Fe47 O48 2.002 . S
Fe47 O57 1.976 . S
Fe47 O61 1.996 . S
Fe47 O64 1.997 . S
O48 Fe47 2.002 . S
O48 C65 1.295 . S
O49 Fe44 1.997 . S
O49 C65 1.235 . S
O50 Fe44 2.002 . S
O50 C51 1.295 . S
C51 O50 1.295 . S
C51 O53 1.235 . S
C52 O57 1.287 . S
C52 O58 1.255 . S
O53 Fe45 1.997 . S
O53 C51 1.235 . S
C54 O60 1.287 . S
C54 O61 1.255 . S
O55 Fe44 1.976 . S
O55 C62 1.287 . S
O56 Fe45 1.996 . S
O56 C62 1.255 . S
O57 Fe47 1.976 . S
O57 C52 1.287 . S
O58 Fe44 1.996 . S
O58 C52 1.255 . S
C59 O63 1.295 . S
C59 O64 1.235 . S
O60 Fe45 1.976 . S
O60 C54 1.287 . S
O61 Fe47 1.996 . S
O61 C54 1.255 . S
C62 O55 1.287 . S
C62 O56 1.255 . S
O63 Fe45 2.002 . S
O63 C59 1.295 . S
O64 Fe47 1.997 . S
O64 C59 1.235 . S
C65 O48 1.295 . S
C65 O49 1.235 . S
Fe66 O68 1.918 . S
Fe66 O71 1.997 . S
Fe66 O72 2.002 . S
Fe66 O77 1.976 . S
Fe66 O80 1.996 . S
Fe67 O68 1.918 . S
Fe67 O75 1.997 . S
Fe67 O78 1.996 . S
Fe67 O82 1.976 . S
Fe67 O85 2.002 . S
O68 Fe66 1.918 . S
O68 Fe67 1.918 . S
O68 Fe69 1.918 . S
Fe69 O68 1.918 . S
Fe69 O70 2.002 . S
Fe69 O79 1.976 . S
Fe69 O83 1.996 . S
Fe69 O86 1.997 . S
O70 Fe69 2.002 . S
O70 C87 1.295 . S
O71 Fe66 1.997 . S
O71 C87 1.235 . S
O72 Fe66 2.002 . S
O72 C73 1.295 . S
C73 O72 1.295 . S
C73 O75 1.235 . S
C74 O79 1.287 . S
C74 O80 1.255 . S
O75 Fe67 1.997 . S
O75 C73 1.235 . S
C76 O82 1.287 . S
C76 O83 1.255 . S
O77 Fe66 1.976 . S
O77 C84 1.287 . S
O78 Fe67 1.996 . S
O78 C84 1.255 . S
O79 Fe69 1.976 . S
O79 C74 1.287 . S
O80 Fe66 1.996 . S
O80 C74 1.255 . S
C81 O85 1.295 . S
C81 O86 1.235 . S
O82 Fe67 1.976 . S
O82 C76 1.287 . S
O83 Fe69 1.996 . S
O83 C76 1.255 . S
C84 O77 1.287 . S
C84 O78 1.255 . S
O85 Fe67 2.002 . S
O85 C81 1.295 . S
O86 Fe69 1.997 . S
O86 C81 1.235 . S
C87 O70 1.295 . S
C87 O71 1.235 . S
Fe88 O90 1.918 . S
Fe88 O93 1.997 . S
Fe88 O94 2.002 . S
Fe88 O99 1.976 . S
Fe88 O102 1.996 . S
Fe89 O90 1.918 . S
Fe89 O97 1.997 . S
Fe89 O100 1.996 . S
Fe89 O104 1.976 . S
Fe89 O107 2.002 . S
O90 Fe88 1.918 . S
O90 Fe89 1.918 . S
O90 Fe91 1.918 . S
Fe91 O90 1.918 . S
Fe91 O92 2.002 . S
Fe91 O101 1.976 . S
Fe91 O105 1.996 . S
Fe91 O108 1.997 . S
O92 Fe91 2.002 . S
O92 C109 1.295 . S
O93 Fe88 1.997 . S
O93 C109 1.235 . S
O94 Fe88 2.002 . S
O94 C95 1.295 . S
C95 O94 1.295 . S
C95 O97 1.235 . S
C96 O101 1.287 . S
C96 O102 1.255 . S
O97 Fe89 1.997 . S
O97 C95 1.235 . S
C98 O104 1.287 . S
C98 O105 1.255 . S
O99 Fe88 1.976 . S
O99 C106 1.287 . S
O100 Fe89 1.996 . S
O100 C106 1.255 . S
O101 Fe91 1.976 . S
O101 C96 1.287 . S
O102 Fe88 1.996 . S
O102 C96 1.255 . S
C103 O107 1.295 . S
C103 O108 1.235 . S
O104 Fe89 1.976 . S
O104 C98 1.287 . S
O105 Fe91 1.996 . S
O105 C98 1.255 . S
C106 O99 1.287 . S
C106 O100 1.255 . S
O107 Fe89 2.002 . S
O107 C103 1.295 . S
O108 Fe91 1.997 . S
O108 C103 1.235 . S
C109 O92 1.295 . S
C109 O93 1.235 . S
Fe110 O112 1.918 . S
Fe110 O115 1.997 . S
Fe110 O116 2.002 1_556 S
Fe110 O121 1.976 . S
Fe110 O124 1.996 . S
Fe111 O112 1.918 . S
Fe111 O119 1.997 1_556 S
Fe111 O122 1.996 . S
Fe111 O126 1.976 . S
Fe111 O129 1.998 1_556 S
O112 Fe110 1.918 . S
O112 Fe111 1.918 . S
O112 Fe113 1.918 . S
Fe113 O112 1.918 . S
Fe113 O114 2.002 . S
Fe113 O123 1.976 . S
Fe113 O127 1.996 . S
Fe113 O130 1.997 . S
O114 Fe113 2.002 . S
O114 C131 1.295 . S
O115 Fe110 1.997 . S
O115 C131 1.235 . S
O116 Fe110 2.002 1_554 S
O116 C117 1.295 . S
C117 O116 1.295 . S
C117 O119 1.235 . S
C118 O123 1.287 . S
C118 O124 1.255 . S
O119 Fe111 1.997 1_554 S
O119 C117 1.235 . S
C120 O126 1.287 . S
C120 O127 1.255 . S
O121 Fe110 1.976 . S
O121 C128 1.287 . S
O122 Fe111 1.996 . S
O122 C128 1.255 . S
O123 Fe113 1.976 . S
O123 C118 1.287 . S
O124 Fe110 1.996 . S
O124 C118 1.255 . S
C125 O129 1.293 1_556 S
C125 O130 1.235 . S
O126 Fe111 1.976 . S
O126 C120 1.287 . S
O127 Fe113 1.996 . S
O127 C120 1.255 . S
C128 O121 1.287 . S
C128 O122 1.255 . S
O129 Fe111 1.998 1_554 S
O129 C125 1.293 1_554 S
O130 Fe113 1.997 . S
O130 C125 1.235 . S
C131 O114 1.295 . S
C131 O115 1.235 . S
Fe132 O134 1.918 . S
Fe132 O137 1.997 . S
Fe132 O138 2.002 . S
Fe132 O143 1.976 . S
Fe132 O146 1.996 . S
Fe133 O134 1.918 . S
Fe133 O141 1.997 . S
Fe133 O144 1.996 . S
Fe133 O148 1.976 . S
Fe133 O151 2.002 . S
O134 Fe132 1.918 . S
O134 Fe133 1.918 . S
O134 Fe135 1.918 . S
Fe135 O134 1.918 . S
Fe135 O136 2.002 . S
Fe135 O145 1.976 1_556 S
Fe135 O149 1.996 . S
Fe135 O152 1.997 . S
O136 Fe135 2.002 . S
O136 C153 1.295 . S
O137 Fe132 1.997 . S
O137 C153 1.235 . S
O138 Fe132 2.002 . S
O138 C139 1.295 . S
C139 O138 1.295 . S
C139 O141 1.235 . S
C140 O145 1.287 . S
C140 O146 1.255 1_554 S
O141 Fe133 1.997 . S
O141 C139 1.235 . S
C142 O148 1.287 . S
C142 O149 1.255 . S
O143 Fe132 1.976 . S
O143 C150 1.287 . S
O144 Fe133 1.996 . S
O144 C150 1.255 . S
O145 Fe135 1.976 1_554 S
O145 C140 1.287 . S
O146 Fe132 1.996 . S
O146 C140 1.255 1_556 S
C147 O151 1.295 . S
C147 O152 1.235 . S
O148 Fe133 1.976 . S
O148 C142 1.287 . S
O149 Fe135 1.996 . S
O149 C142 1.255 . S
C150 O143 1.287 . S
C150 O144 1.255 . S
O151 Fe133 2.002 . S
O151 C147 1.295 . S
O152 Fe135 1.997 . S
O152 C147 1.235 . S
C153 O136 1.295 . S
C153 O137 1.235 . S
Fe154 O156 1.918 . S
Fe154 O159 1.997 1_554 S
Fe154 O160 2.002 1_554 S
Fe154 O165 1.976 . S
Fe154 O168 1.996 . S
Fe155 O156 1.918 1_556 S
Fe155 O163 1.997 . S
Fe155 O166 1.996 . S
Fe155 O170 1.976 1_556 S
Fe155 O173 2.002 . S
O156 Fe154 1.918 . S
O156 Fe155 1.918 1_554 S
O156 Fe157 1.918 . S
Fe157 O156 1.918 . S
Fe157 O158 2.002 . S
Fe157 O167 1.976 . S
Fe157 O171 1.996 . S
Fe157 O174 1.997 1_554 S
O158 Fe157 2.002 . S
O158 C175 1.295 1_554 S
O159 Fe154 1.997 1_556 S
O159 C175 1.235 . S
O160 Fe154 2.002 1_556 S
O160 C161 1.295 . S
C161 O160 1.295 . S
C161 O163 1.235 . S
C162 O167 1.287 . S
C162 O168 1.255 . S
O163 Fe155 1.997 . S
O163 C161 1.235 . S
C164 O170 1.287 . S
C164 O171 1.255 . S
O165 Fe154 1.976 . S
O165 C172 1.287 . S
O166 Fe155 1.996 . S
O166 C172 1.255 1_556 S
O167 Fe157 1.976 . S
O167 C162 1.287 . S
O168 Fe154 1.996 . S
O168 C162 1.255 . S
C169 O173 1.295 . S
C169 O174 1.235 . S
O170 Fe155 1.976 1_554 S
O170 C164 1.287 . S
O171 Fe157 1.996 . S
O171 C164 1.255 . S
C172 O165 1.287 . S
C172 O166 1.255 1_554 S
O173 Fe155 2.002 . S
O173 C169 1.295 . S
O174 Fe157 1.997 1_556 S
O174 C169 1.235 . S
C175 O158 1.295 1_556 S
C175 O159 1.235 . S
Fe176 O178 1.918 . S
Fe176 O181 1.997 . S
Fe176 O182 2.002 . S
Fe176 O187 1.976 . S
Fe176 O190 1.996 . S
Fe177 O178 1.918 . S
Fe177 O185 1.997 1_554 S
Fe177 O188 1.996 . S
Fe177 O192 1.976 . S
Fe177 O195 2.002 . S
O178 Fe176 1.918 . S
O178 Fe177 1.918 . S
O178 Fe179 1.918 . S
Fe179 O178 1.918 . S
Fe179 O180 2.002 . S
Fe179 O189 1.976 . S
Fe179 O193 1.996 . S
Fe179 O196 1.997 . S
O180 Fe179 2.002 . S
O180 C197 1.295 . S
O181 Fe176 1.997 . S
O181 C197 1.235 . S
O182 Fe176 2.002 . S
O182 C183 1.295 1_554 S
C183 O182 1.295 1_556 S
C183 O185 1.235 . S
C184 O189 1.287 . S
C184 O190 1.255 . S
O185 Fe177 1.997 1_556 S
O185 C183 1.235 . S
C186 O192 1.287 . S
C186 O193 1.255 . S
O187 Fe176 1.976 . S
O187 C194 1.287 . S
O188 Fe177 1.996 . S
O188 C194 1.255 . S
O189 Fe179 1.976 . S
O189 C184 1.287 . S
O190 Fe176 1.996 . S
O190 C184 1.255 . S
C191 O195 1.295 . S
C191 O196 1.235 . S
O192 Fe177 1.976 . S
O192 C186 1.287 . S
O193 Fe179 1.996 . S
O193 C186 1.255 . S
C194 O187 1.287 . S
C194 O188 1.255 . S
O195 Fe177 2.002 . S
O195 C191 1.295 . S
O196 Fe179 1.997 . S
O196 C191 1.235 . S
C197 O180 1.295 . S
C197 O181 1.235 . S
Fe198 O200 1.918 . S
Fe198 O203 1.997 . S
Fe198 O204 2.002 . S
Fe198 O209 1.976 . S
Fe198 O212 1.996 . S
Fe199 O200 1.918 . S
Fe199 O207 1.997 . S
Fe199 O210 1.996 . S
Fe199 O214 1.976 . S
Fe199 O217 2.002 . S
O200 Fe198 1.918 . S
O200 Fe199 1.918 . S
O200 Fe201 1.918 . S
Fe201 O200 1.918 . S
Fe201 O202 2.002 . S
Fe201 O211 1.976 . S
Fe201 O215 1.996 . S
Fe201 O218 1.997 . S
O202 Fe201 2.002 . S
O202 C219 1.295 . S
O203 Fe198 1.997 . S
O203 C219 1.235 . S
O204 Fe198 2.002 . S
O204 C205 1.295 . S
C205 O204 1.295 . S
C205 O207 1.235 . S
C206 O211 1.287 . S
C206 O212 1.255 . S
O207 Fe199 1.997 . S
O207 C205 1.235 . S
C208 O214 1.287 . S
C208 O215 1.255 . S
O209 Fe198 1.976 . S
O209 C216 1.287 . S
O210 Fe199 1.996 . S
O210 C216 1.255 . S
O211 Fe201 1.976 . S
O211 C206 1.287 . S
O212 Fe198 1.996 . S
O212 C206 1.255 . S
C213 O217 1.295 . S
C213 O218 1.235 . S
O214 Fe199 1.976 . S
O214 C208 1.287 . S
O215 Fe201 1.996 . S
O215 C208 1.255 . S
C216 O209 1.287 . S
C216 O210 1.255 . S
O217 Fe199 2.002 . S
O217 C213 1.295 . S
O218 Fe201 1.997 . S
O218 C213 1.235 . S
C219 O202 1.295 . S
C219 O203 1.235 . S
Fe220 O222 1.918 . S
Fe220 O225 1.997 . S
Fe220 O226 2.002 . S
Fe220 O231 1.976 . S
Fe220 O234 1.996 . S
Fe221 O222 1.918 . S
Fe221 O229 1.997 . S
Fe221 O232 1.996 . S
Fe221 O236 1.976 . S
Fe221 O239 2.002 . S
O222 Fe220 1.918 . S
O222 Fe221 1.918 . S
O222 Fe223 1.918 . S
Fe223 O222 1.918 . S
Fe223 O224 2.002 . S
Fe223 O233 1.976 . S
Fe223 O237 1.996 . S
Fe223 O240 1.997 . S
O224 Fe223 2.002 . S
O224 C241 1.295 . S
O225 Fe220 1.997 . S
O225 C241 1.235 . S
O226 Fe220 2.002 . S
O226 C227 1.295 . S
C227 O226 1.295 . S
C227 O229 1.235 . S
C228 O233 1.287 . S
C228 O234 1.255 . S
O229 Fe221 1.997 . S
O229 C227 1.235 . S
C230 O236 1.287 . S
C230 O237 1.255 . S
O231 Fe220 1.976 . S
O231 C238 1.287 . S
O232 Fe221 1.996 . S
O232 C238 1.255 . S
O233 Fe223 1.976 . S
O233 C228 1.287 . S
O234 Fe220 1.996 . S
O234 C228 1.255 . S
C235 O239 1.295 . S
C235 O240 1.235 . S
O236 Fe221 1.976 . S
O236 C230 1.287 . S
O237 Fe223 1.996 . S
O237 C230 1.255 . S
C238 O231 1.287 . S
C238 O232 1.255 . S
O239 Fe221 2.002 . S
O239 C235 1.295 . S
O240 Fe223 1.997 . S
O240 C235 1.235 . S
C241 O224 1.295 . S
C241 O225 1.235 . S
Fe242 O244 1.918 . S
Fe242 O247 1.997 . S
Fe242 O248 2.002 . S
Fe242 O253 1.976 . S
Fe242 O256 1.996 . S
Fe243 O244 1.918 . S
Fe243 O251 1.997 . S
Fe243 O254 1.996 . S
Fe243 O258 1.976 . S
Fe243 O261 2.002 . S
O244 Fe242 1.918 . S
O244 Fe243 1.918 . S
O244 Fe245 1.918 . S
Fe245 O244 1.918 . S
Fe245 O246 2.002 . S
Fe245 O255 1.976 . S
Fe245 O259 1.996 . S
Fe245 O262 1.997 . S
O246 Fe245 2.002 . S
O246 C263 1.295 . S
O247 Fe242 1.997 . S
O247 C263 1.235 . S
O248 Fe242 2.002 . S
O248 C249 1.295 . S
C249 O248 1.295 . S
C249 O251 1.235 . S
C250 O255 1.287 . S
C250 O256 1.255 . S
O251 Fe243 1.997 . S
O251 C249 1.235 . S
C252 O258 1.287 . S
C252 O259 1.255 . S
O253 Fe242 1.976 . S
O253 C260 1.287 . S
O254 Fe243 1.996 . S
O254 C260 1.255 . S
O255 Fe245 1.976 . S
O255 C250 1.287 . S
O256 Fe242 1.996 . S
O256 C250 1.255 . S
C257 O261 1.295 . S
C257 O262 1.235 . S
O258 Fe243 1.976 . S
O258 C252 1.287 . S
O259 Fe245 1.996 . S
O259 C252 1.255 . S
C260 O253 1.287 . S
C260 O254 1.255 . S
O261 Fe243 2.002 . S
O261 C257 1.295 . S
O262 Fe245 1.997 . S
O262 C257 1.235 . S
C263 O246 1.295 . S
C263 O247 1.235 . S
C264 C265 1.170 . S
C264 C266 1.380 . S
C265 C264 1.170 . S
C266 C264 1.380 . S
C266 C267 1.170 . S
C267 C266 1.170 . S
C268 C269 1.170 . S
C268 C270 1.380 . S
C269 C268 1.170 . S
C270 C268 1.380 . S
C270 C271 1.170 . S
C271 C270 1.170 . S
C272 C273 1.170 . S
C272 C274 1.380 . S
C273 C272 1.170 . S
C274 C272 1.380 . S
C274 C275 1.170 1_556 S
C275 C274 1.170 1_554 S
C276 C277 1.170 . S
C276 C278 1.380 1_554 S
C277 C276 1.170 . S
C278 C276 1.380 1_556 S
C278 C279 1.170 . S
C279 C278 1.170 . S
C280 C281 1.170 . S
C280 C282 1.380 . S
C281 C280 1.170 . S
C282 C280 1.380 . S
C282 C283 1.170 . S
C283 C282 1.170 . S
C284 C285 1.170 . S
C284 C286 1.380 . S
C285 C284 1.170 . S
C286 C284 1.380 . S
C286 C287 1.170 . S
C287 C286 1.170 . S
C288 C289 1.170 . S
C288 C290 1.380 . S
C289 C288 1.170 . S
C290 C288 1.380 . S
C290 C291 1.170 . S
C291 C290 1.170 . S
C292 C293 1.170 . S
C292 C294 1.380 . S
C293 C292 1.170 . S
C294 C292 1.380 . S
C294 C295 1.170 . S
C295 C294 1.170 . S
C296 C297 1.170 . S
C296 C298 1.380 . S
C297 C296 1.170 . S
C298 C296 1.380 . S
C298 C299 1.170 . S
C299 C298 1.170 . S
C300 C301 1.170 . S
C300 C302 1.380 . S
C301 C300 1.170 . S
C302 C300 1.380 . S
C302 C303 1.170 . S
C303 C302 1.170 . S
C304 C305 1.170 . S
C304 C306 1.380 1_556 S
C305 C304 1.170 . S
C306 C304 1.380 1_554 S
C306 C307 1.170 . S
C307 C306 1.170 . S
C308 C309 1.170 . S
C308 C310 1.380 . S
C309 C308 1.170 . S
C310 C308 1.380 . S
C310 C311 1.170 . S
C311 C310 1.170 . S
C312 C313 1.170 . S
C312 C314 1.380 1_546 S
C313 C312 1.170 . S
C314 C312 1.380 1_564 S
C314 C315 1.170 . S
C315 C314 1.170 . S
C316 C317 1.170 . S
C316 C318 1.380 . S
C317 C316 1.170 . S
C318 C316 1.380 . S
C318 C319 1.170 . S
C319 C318 1.170 . S
C320 C321 1.170 . S
C320 C322 1.380 1_455 S
C321 C320 1.170 . S
C322 C320 1.380 1_655 S
C322 C323 1.170 . S
C323 C322 1.170 . S
C324 C325 1.170 . S
C324 C326 1.380 1_565 S
C325 C324 1.170 . S
C326 C324 1.380 1_545 S
C326 C327 1.170 . S
C327 C326 1.170 . S
C328 C329 1.170 . S
C328 C330 1.380 . S
C329 C328 1.170 . S
C330 C328 1.380 . S
C330 C331 1.170 . S
C331 C330 1.170 . S
C332 C333 1.170 . S
C332 C334 1.380 1_455 S
C333 C332 1.170 . S
C334 C332 1.380 1_655 S
C334 C335 1.170 . S
C335 C334 1.170 . S
C336 C337 1.170 . S
C336 C338 1.380 . S
C337 C336 1.170 . S
C338 C336 1.380 . S
C338 C339 1.170 . S
C339 C338 1.170 . S
C340 C341 1.170 1_556 S
C340 C342 1.380 . S
C341 C340 1.170 1_554 S
C342 C340 1.380 . S
C342 C343 1.170 . S
C343 C342 1.170 . S
C344 C345 1.170 . S
C344 C346 1.380 . S
C345 C344 1.170 . S
C346 C344 1.380 . S
C346 C347 1.170 . S
C347 C346 1.170 . S
C348 C349 1.170 . S
C348 C350 1.380 . S
C349 C348 1.170 . S
C350 C348 1.380 . S
C350 C351 1.170 . S
C351 C350 1.170 . S
C352 C353 1.170 . S
C352 C354 1.380 . S
C353 C352 1.170 . S
C354 C352 1.380 . S
C354 C355 1.170 . S
C355 C354 1.170 . S
C356 C357 1.170 . S
C356 C358 1.380 . S
C357 C356 1.170 . S
C358 C356 1.380 . S
C358 C359 1.170 . S
C359 C358 1.170 . S
C360 C361 1.170 . S
C360 C362 1.380 . S
C361 C360 1.170 . S
C362 C360 1.380 . S
C362 C363 1.170 . S
C363 C362 1.170 . S
C364 C365 1.170 . S
C364 C366 1.380 . S
C365 C364 1.170 . S
C366 C364 1.380 . S
C366 C367 1.170 . S
C367 C366 1.170 . S
C368 C369 1.170 . S
C368 C370 1.380 . S
C369 C368 1.170 . S
C370 C368 1.380 . S
C370 C371 1.170 . S
C371 C370 1.170 . S
C372 C373 1.170 . S
C372 C374 1.380 . S
C373 C372 1.170 . S
C374 C372 1.380 . S
C374 C375 1.170 . S
C375 C374 1.170 . S
C376 C377 1.170 . S
C376 C378 1.380 . S
C377 C376 1.170 . S
C378 C376 1.380 . S
C378 C379 1.170 . S
C379 C378 1.170 . S
C380 C381 1.170 . S
C380 C382 1.380 . S
C381 C380 1.170 . S
C382 C380 1.380 . S
C382 C383 1.170 . S
C383 C382 1.170 . S
C384 C385 1.170 . S
C384 C386 1.380 . S
C385 C384 1.170 . S
C386 C384 1.380 . S
C386 C387 1.170 . S
C387 C386 1.170 . S
C388 C389 1.170 . S
C388 C390 1.380 . S
C389 C388 1.170 . S
C390 C388 1.380 . S
C390 C391 1.170 . S
C391 C390 1.170 . S
C392 C393 1.170 . S
C392 C394 1.380 . S
C393 C392 1.170 . S
C394 C392 1.380 . S
C394 C395 1.170 . S
C395 C394 1.170 . S
C396 C397 1.170 . S
C396 C398 1.380 . S
C397 C396 1.170 . S
C398 C396 1.380 . S
C398 C399 1.170 . S
C399 C398 1.170 . S
C400 C401 1.170 . S
C400 C402 1.380 . S
C401 C400 1.170 . S
C402 C400 1.380 . S
C402 C403 1.170 . S
C403 C402 1.170 . S
C404 C405 1.170 . S
C404 C406 1.380 . S
C405 C404 1.170 . S
C406 C404 1.380 . S
C406 C407 1.170 . S
C407 C406 1.170 . S
C265 C10 1.578 . S
C267 C21 1.603 . S
C269 C30 1.549 . S
C271 C29 1.591 . S
C273 C65 1.606 . S
C275 C54 1.547 . S
C277 C74 1.541 . S
C279 C73 1.596 . S
C281 C103 1.614 1_554 S
C283 C106 1.577 . S
C285 C118 1.541 . S
C287 C117 1.598 . S
C289 C140 1.569 . S
C291 C139 1.596 . S
C293 C161 1.592 . S
C295 C162 1.560 . S
C297 C183 1.610 . S
C299 C184 1.553 . S
C301 C205 1.607 1_556 S
C303 C206 1.580 . S
C305 C228 1.554 . S
C307 C227 1.591 . S
C309 C249 1.596 . S
C311 C250 1.569 1_554 S
C313 C8 1.486 1_556 S
C315 C172 1.475 . S
C317 C194 1.464 . S
C319 C40 1.466 . S
C321 C216 1.490 . S
C323 C52 1.483 . S
C325 C84 1.464 . S
C327 C238 1.471 . S
C329 C98 1.483 . S
C331 C260 1.471 . S
C333 C128 1.490 . S
C335 C150 1.488 . S
C337 C18 1.226 . S
C339 C230 1.225 . S
C341 C32 1.216 . S
C343 C252 1.214 . S
C345 C142 1.230 1_554 S
C347 C62 1.230 . S
C349 C76 1.230 . S
C351 C164 1.231 . S
C353 C96 1.202 . S
C355 C186 1.201 . S
C357 C208 1.202 . S
C359 C120 1.203 . S
C361 C15 1.210 . S
C363 C197 1.203 . S
C365 C219 1.207 . S
C367 C43 1.206 . S
C369 C241 1.199 . S
C371 C59 1.215 . S
C373 C87 1.200 . S
C375 C263 1.214 . S
C377 C153 1.208 . S
C379 C95 1.206 . S
C381 C131 1.201 . S
C383 C175 1.212 . S
C385 C7 1.480 . S
C387 C235 1.485 . S
C389 C37 1.484 . S
C391 C257 1.478 . S
C393 C51 1.474 . S
C395 C147 1.483 . S
C397 C169 1.480 . S
C399 C81 1.470 . S
C401 C109 1.437 . S
C403 C191 1.447 1_556 S
C405 C213 1.475 . S
C407 C125 1.463 1_554 S
