# Generated by pormake.
# Topology kag, (6)-cn, num edge types: 1
# Building blocks:
#     Node 0, Type 0, BuildingBlock: KUMJIN_clean_sbu_0, # of connection points: 6
#     Node 1, Type 0, BuildingBlock: KUMJIN_clean_sbu_0, # of connection points: 6
#     Node 2, Type 0, BuildingBlock: KUMJIN_clean_sbu_0, # of connection points: 6
#     Edge 3, Type (0, 0), BuildingBlock: KIFKEQ_clean_linker_1, # of connection points: 2
#     Edge 4, Type (0, 0), BuildingBlock: KIFKEQ_clean_linker_1, # of connection points: 2
#     Edge 5, Type (0, 0), BuildingBlock: KIFKEQ_clean_linker_1, # of connection points: 2
#     Edge 6, Type (0, 0), BuildingBlock: KIFKEQ_clean_linker_1, # of connection points: 2
#     Edge 7, Type (0, 0), BuildingBlock: KIFKEQ_clean_linker_1, # of connection points: 2
#     Edge 8, Type (0, 0), BuildingBlock: KIFKEQ_clean_linker_1, # of connection points: 2
#     Edge 9, Type (0, 0), BuildingBlock: KIFKEQ_clean_linker_1, # of connection points: 2
#     Edge 10, Type (0, 0), BuildingBlock: KIFKEQ_clean_linker_1, # of connection points: 2
#     Edge 11, Type (0, 0), BuildingBlock: KIFKEQ_clean_linker_1, # of connection points: 2
# Relax obj value: 0.070
# Max RMSD: 0.189
# Mean RMSD: 0.140
data_MOF--net-kag--node1-KUMJIN_clean_sbu_0--edge1-KIFKEQ_clean_linker_1
_symmetry_space_group_name_H-M    P1
_symmetry_Int_Tables_number       1
_symmetry_cell_setting            triclinic
loop_
_symmetry_equiv_pos_as_xyz
'x, y, z'
_cell_length_a     40.394905
_cell_length_b     31.144965
_cell_length_c     15.633363
_cell_angle_alpha  94.283522
_cell_angle_beta   114.3788
_cell_angle_gamma 98.506644
loop_
_atom_site_label
_atom_site_type_symbol
_atom_site_fract_x
_atom_site_fract_y
_atom_site_fract_z
_atom_type_partial_charge
Eu0 Eu 1.00116 0.47753 0.97467 0.0
C1 C 0.99696 0.66438 0.1265 0.0
C2 C 0.9347 0.67222 0.02349 0.0
C3 C 0.96567 0.71187 0.18461 0.0
C4 C 0.96613 0.65358 0.03963 0.0
C5 C 0.99751 0.69475 0.19883 0.0
C6 C 0.93427 0.7005 0.09722 0.0
C7 C 0.06217 0.69254 0.28982 0.0
N8 N 0.02735 0.64747 0.13793 0.0
C9 C 0.0602 0.6623 0.21625 0.0
C10 C 0.03051 0.70825 0.28183 0.0
Eu11 Eu 0.02188 0.59708 0.01015 0.0
N12 N 0.96766 0.6268 0.96927 0.0
C13 C 0.93986 0.61981 0.87932 0.0
C14 C 0.90508 0.66294 0.93287 0.0
C15 C 0.90792 0.63713 0.86014 0.0
H16 H 0.08465 0.65003 0.22263 0.0
H17 H 0.88551 0.63052 0.78932 0.0
H18 H 0.91023 0.71479 0.08643 0.0
H19 H 0.08803 0.70356 0.35271 0.0
H20 H 0.94175 0.59986 0.82266 0.0
H21 H 0.13604 0.44362 0.20561 0.0
H22 H 0.88037 0.67646 0.9177 0.0
H23 H 0.94195 0.42889 0.75432 0.0
H24 H 0.07955 0.47437 0.16715 0.0
H25 H 0.9418 0.37877 0.62338 0.0
H26 H 0.96539 0.73484 0.23977 0.0
H27 H 0.14332 0.39849 0.07976 0.0
H28 H 0.11619 0.36198 0.91008 0.0
H29 H 0.03211 0.73168 0.3389 0.0
H30 H 0.06348 0.3444 0.75187 0.0
N31 N 0.05543 0.44774 0.02054 0.0
C32 C 0.08231 0.4546 0.11167 0.0
C33 C 0.11844 0.41189 0.06243 0.0
C34 C 0.08993 0.4032 0.97012 0.0
C35 C 0.1144 0.43727 0.13372 0.0
C36 C 0.05821 0.42164 0.95118 0.0
H37 H 0.99822 0.35005 0.64469 0.0
N38 N 0.99808 0.42916 0.84673 0.0
C39 C 0.96648 0.38808 0.68982 0.0
C40 C 0.02868 0.41204 0.8617 0.0
C41 C 0.96658 0.41629 0.76388 0.0
C42 C 0.99841 0.37199 0.70211 0.0
C43 C 0.02985 0.38336 0.78929 0.0
O44 O 0.94962 0.4331 0.94653 0.0
O45 O 0.9797 0.53787 -0.00675 0.0
O46 O 0.01765 0.57869 0.14318 0.0
O47 O 0.0231 0.50501 0.13321 0.0
O48 O 0.9434 0.48943 0.88459 0.0
O49 O 1.00044 0.42743 0.06525 0.0
O50 O 0.0729 0.64023 0.02937 0.0
O51 O 0.04345 0.5367 -0.00705 0.0
O52 O 1.00821 0.49741 0.84658 0.0
O53 O 0.99784 0.56893 0.85084 0.0
O54 O 0.07986 0.58551 0.09996 0.0
O55 O 0.02068 0.64643 0.91689 0.0
C56 C 0.94634 0.52678 0.93164 0.0
C57 C 0.95378 0.36304 0.98984 0.0
C58 C 0.90948 0.29661 0.97259 0.0
C59 C 0.9233 0.34206 0.00257 0.0
C60 C 0.92692 0.27259 0.92944 0.0
C61 C 0.97111 0.33841 0.94821 0.0
C62 C 0.95762 0.2934 0.91794 0.0
C63 C 0.02164 0.54173 0.1798 0.0
C64 C 0.9652 0.41099 0.01487 0.0
C65 C 0.0619 0.36615 0.80691 0.0
C66 C 0.0919 0.37613 0.89705 0.0
C67 C 0.07684 0.54772 0.05447 0.0
C68 C 0.06755 0.71071 0.98997 0.0
C69 C 0.09945 0.73191 0.98377 0.0
C70 C 0.11304 0.77728 0.01563 0.0
C71 C 0.09407 0.80097 0.05441 0.0
C72 C 0.04862 0.73512 0.02683 0.0
C73 C 0.06199 0.77998 0.05935 0.0
C74 C 1.00184 0.53314 0.80693 0.0
C75 C 0.05611 0.66278 0.96325 0.0
H76 H 0.9106 0.36133 0.03657 0.0
H77 H 0.91673 0.23778 0.90386 0.0
H78 H 0.99478 0.35389 0.93844 0.0
H79 H 0.97086 0.27459 0.88489 0.0
H80 H 0.11337 0.71289 0.95316 0.0
H81 H 0.10404 0.83569 0.08136 0.0
H82 H 0.02374 0.71957 0.03106 0.0
H83 H 0.04751 0.79855 0.08884 0.0
Eu84 Eu 0.56252 0.04876 0.04785 0.0
C85 C 0.43571 0.11223 0.84358 0.0
C86 C 0.42518 0.15698 0.96045 0.0
C87 C 0.41641 0.18222 0.81097 0.0
C88 C 0.43564 0.11882 0.93249 0.0
C89 C 0.42509 0.14354 0.78122 0.0
C90 C 0.41643 0.18891 0.90028 0.0
C91 C 0.42773 0.09408 0.65937 0.0
N92 N 0.44416 0.07448 0.8159 0.0
C93 C 0.43737 0.06383 0.72264 0.0
C94 C 0.42238 0.13457 0.68941 0.0
Eu95 Eu 0.46183 1.02588 0.93129 0.0
N96 N 0.44484 0.0878 0.99064 0.0
C97 C 0.44028 0.09125 0.07281 0.0
C98 C 0.42353 0.16197 0.04804 0.0
C99 C 0.43053 0.12861 0.10367 0.0
H100 H 0.43834 1.03155 0.69484 0.0
H101 H 0.42772 0.13123 0.16969 0.0
H102 H 0.40901 0.21862 0.92156 0.0
H103 H 0.42358 0.08567 0.58673 0.0
H104 H 0.44267 0.06493 0.11426 0.0
H105 H 0.60268 0.96829 0.78904 0.0
H106 H 0.4158 0.19081 0.072 0.0
H107 H 0.58078 1.02377 0.27065 0.0
H108 H 0.58772 1.02892 0.86508 0.0
H109 H 0.59481 0.96222 0.35781 0.0
H110 H 0.40878 0.20676 0.76448 0.0
H111 H 0.61119 0.90034 0.86032 0.0
H112 H 0.61575 0.86011 -0.0046 0.0
H113 H 0.41443 0.15779 0.6398 0.0
H114 H 0.61416 0.85871 0.15032 0.0
N115 N 0.58113 0.99386 0.97163 0.0
C116 C 0.58833 0.99859 0.89411 0.0
C117 C 0.60314 0.92645 0.89261 0.0
C118 C 0.59982 0.9235 0.97752 0.0
C119 C 0.59813 0.96459 0.85187 0.0
C120 C 0.58898 0.95834 0.01659 0.0
H121 H 0.60656 0.89638 0.28547 0.0
N122 N 0.57858 0.99176 0.14225 0.0
C123 C 0.59221 0.95992 0.28579 0.0
C124 C 0.58807 0.9575 0.10438 0.0
C125 C 0.58291 0.99447 0.23421 0.0
C126 C 0.59912 0.92305 0.24508 0.0
C127 C 0.59804 0.92189 0.15446 0.0
O128 O 0.60898 0.08029 0.18167 0.0
O129 O 0.51231 0.08154 -0.00721 0.0
O130 O 0.48544 1.01196 0.82488 0.0
O131 O 0.54306 0.05839 0.89335 0.0
O132 O 0.56282 0.12263 0.04519 0.0
O133 O 0.61576 0.07681 0.0488 0.0
O134 O 0.41357 0.99146 0.80588 0.0
O135 O 0.51197 0.99315 0.98989 0.0
O136 O 0.54062 0.05962 0.15892 0.0
O137 O 0.47969 1.02058 0.08765 0.0
O138 O 0.46138 0.95206 0.93441 0.0
O139 O 0.40992 1.00111 0.94245 0.0
C140 C 0.52783 0.1228 0.0083 0.0
C141 C 0.66961 0.11336 0.19363 0.0
C142 C 0.7257 0.15717 0.19724 0.0
C143 C 0.6897 0.13198 0.14576 0.0
C144 C 0.7417 0.16273 0.29701 0.0
C145 C 0.68624 0.11915 0.29338 0.0
C146 C 0.72214 0.14356 0.34457 0.0
C147 C 0.51428 1.0352 0.81861 0.0
C148 C 0.6308 0.08998 0.14035 0.0
C149 C 0.6071 0.88651 0.11348 0.0
C150 C 0.60796 0.88729 0.02524 0.0
C151 C 0.49635 0.95189 0.97375 0.0
C152 C 0.3541 0.96234 0.80307 0.0
C153 C 0.33552 0.9435 0.85413 0.0
C154 C 0.2993 0.91852 0.80555 0.0
C155 C 0.28155 0.91357 0.70589 0.0
C156 C 0.33572 0.95719 0.70345 0.0
C157 C 0.2996 0.93311 0.65537 0.0
C158 C 0.50992 0.04062 0.1634 0.0
C159 C 0.39316 0.98518 0.85196 0.0
H160 H 0.677 0.12812 0.06881 0.0
H161 H 0.76953 0.1816 0.33819 0.0
H162 H 0.67141 0.10509 0.33193 0.0
H163 H 0.73475 0.14789 0.42143 0.0
H164 H 0.34954 0.94692 0.93094 0.0
H165 H 0.25352 0.89487 0.66715 0.0
H166 H 0.34936 0.97154 0.66251 0.0
H167 H 0.28566 0.92928 0.57863 0.0
Eu168 Eu 0.46222 0.52553 0.94515 0.0
C169 C 0.60009 0.6439 0.17795 0.0
C170 C 0.60039 0.69896 0.07648 0.0
C171 C 0.62565 0.72089 0.24694 0.0
C172 C 0.59097 0.65492 0.08808 0.0
C173 C 0.61868 0.67671 0.25863 0.0
C174 C 0.61667 0.73198 0.156 0.0
C175 C 0.62826 0.61945 0.35682 0.0
N176 N 0.59441 0.60076 0.18699 0.0
C177 C 0.61058 0.58821 0.27483 0.0
C178 C 0.63163 0.66398 0.34881 0.0
Eu179 Eu 0.5618 0.54962 0.04323 0.0
N180 N 0.57514 0.6223 0.01244 0.0
C181 C 0.5706 0.63119 0.92438 0.0
C182 C 0.59389 0.70842 0.98554 0.0
C183 C 0.5795 0.67424 0.90945 0.0
H184 H 0.60961 0.55384 0.28218 0.0
H185 H 0.5752 0.68101 0.83912 0.0
H186 H 0.62338 0.76603 0.14815 0.0
H187 H 0.63981 0.60912 0.42603 0.0
H188 H 0.56023 0.60539 0.86493 0.0
H189 H 0.45286 0.39809 0.16168 0.0
H190 H 0.60064 0.74177 0.97373 0.0
H191 H 0.41006 0.51829 0.70857 0.0
H192 H 0.46613 0.47293 0.12949 0.0
H193 H 0.37821 0.46146 0.56703 0.0
H194 H 0.63943 0.74651 0.30802 0.0
H195 H 0.42658 0.33565 0.03046 0.0
H196 H 0.40182 0.30897 0.85626 0.0
H197 H 0.64595 0.68815 0.41239 0.0
H198 H 0.38314 0.32615 0.69385 0.0
N199 N 0.45008 0.45383 0.98216 0.0
C200 C 0.45577 0.44632 0.07174 0.0
C201 C 0.43277 0.36863 0.01598 0.0
C202 C 0.42494 0.37668 0.92348 0.0
C203 C 0.44767 0.40375 0.09018 0.0
C204 C 0.43366 0.42028 0.9084 0.0
H205 H 0.37389 0.38292 0.58511 0.0
N206 N 0.42809 0.47273 0.80508 0.0
C207 C 0.39131 0.45204 0.63674 0.0
C208 C 0.42322 0.42993 0.81712 0.0
C209 C 0.40993 0.48414 0.71705 0.0
C210 C 0.38897 0.40779 0.64726 0.0
C211 C 0.40374 0.39624 0.73845 0.0
O212 O 0.40697 0.54191 0.87472 0.0
O213 O 0.51164 0.58403 0.01313 0.0
O214 O 0.54644 0.53561 0.16369 0.0
O215 O 0.48668 0.54858 0.10401 0.0
O216 O 0.46561 0.59205 0.89442 0.0
O217 O 0.42637 0.53075 0.01894 0.0
O218 O 0.61767 0.53542 0.1162 0.0
O219 O 0.51236 0.49129 0.97347 0.0
O220 O 0.47603 0.53501 0.8197 0.0
O221 O 0.53844 0.53149 0.88377 0.0
O222 O 0.55862 0.48203 0.08945 0.0
O223 O 0.59749 0.54268 0.96962 0.0
C224 C 0.49773 0.61248 0.9583 0.0
C225 C 0.36087 0.51177 0.92403 0.0
C226 C 0.29959 0.50237 0.92837 0.0
C227 C 0.33555 0.52798 0.95423 0.0
C228 C 0.28996 0.46068 0.87409 0.0
C229 C 0.3498 0.46985 0.87014 0.0
C230 C 0.31486 0.44458 0.84583 0.0
C231 C 0.51723 0.54334 0.17495 0.0
C232 C 0.39834 0.53815 0.94577 0.0
C233 C 0.39753 0.35246 0.75339 0.0
C234 C 0.40799 0.34271 0.8458 0.0
C235 C 0.52635 0.46203 0.02579 0.0
C236 C 0.66295 0.5642 0.06345 0.0
C237 C 0.68837 0.54772 0.03414 0.0
C238 C 0.724 0.57368 0.05805 0.0
C239 C 0.73322 0.61598 0.10952 0.0
C240 C 0.67355 0.6067 0.1146 0.0
C241 C 0.70819 0.63233 0.13695 0.0
C242 C 0.50689 0.53253 0.81109 0.0
C243 C 0.62598 0.53736 0.04431 0.0
H244 H 0.34343 0.56034 -0.00442 0.0
H245 H 0.26289 0.44034 0.85345 0.0
H246 H 0.36805 0.45665 0.84569 0.0
H247 H 0.30689 0.41234 0.80401 0.0
H248 H 0.68085 0.51488 -0.00494 0.0
H249 H 0.76006 0.63658 0.12864 0.0
H250 H 0.65521 0.62004 0.13861 0.0
H251 H 0.71584 0.66502 0.17669 0.0
H252 H 0.97763 0.59075 0.67897 0.0
H253 H 0.02912 0.47727 0.72205 0.0
H254 H 0.98171 0.592 0.52749 0.0
H255 H 0.03498 0.4797 0.57483 0.0
H256 H 0.01362 0.46954 0.26553 0.0
H257 H 1.00617 0.46684 0.41171 0.0
H258 H 0.02093 0.60841 0.45554 0.0
H259 H 0.02578 0.61052 0.3066 0.0
C260 C 0.98985 0.56613 0.6563 0.0
C261 C 1.00269 0.53374 0.71265 0.0
C262 C 0.99257 0.56701 0.56964 0.0
C263 C 1.0088 0.53596 0.53781 0.0
C264 C 0.02156 0.50365 0.59476 0.0
C265 C 0.01832 0.50237 0.68019 0.0
C266 C 0.0156 0.50015 0.3067 0.0
C267 C 0.02087 0.54036 0.2742 0.0
C268 C 1.01141 0.49867 0.39124 0.0
C269 C 0.01295 0.53744 0.44679 0.0
C270 C 0.01883 0.57766 0.41471 0.0
C271 C 0.02232 0.57901 0.32943 0.0
H272 H 0.56259 0.08623 0.33482 0.0
H273 H 0.45647 0.99713 0.20933 0.0
H274 H 0.56428 0.08377 0.49124 0.0
H275 H 0.4568 0.99707 0.36522 0.0
H276 H 0.48247 0.96979 0.6656 0.0
H277 H 0.48147 0.97139 0.50884 0.0
H278 H 0.54245 0.10554 0.59838 0.0
H279 H 0.5451 0.10257 0.75626 0.0
C280 C 0.53939 0.0663 0.34031 0.0
C281 C 0.50962 0.04143 0.25886 0.0
C282 C 0.54014 0.06529 0.43056 0.0
C283 C 0.51073 0.0401 0.44236 0.0
C284 C 0.48046 1.01613 0.36032 0.0
C285 C 0.48003 1.01657 0.27017 0.0
C286 C 0.4958 0.99948 0.65157 0.0
C287 C 0.51406 1.03593 0.7234 0.0
C288 C 0.49497 1.00065 0.56119 0.0
C289 C 0.51179 0.03867 0.53946 0.0
C290 C 0.52984 0.07525 0.61189 0.0
C291 C 0.53127 0.07371 0.70272 0.0
H292 H 0.45038 0.5389 0.63868 0.0
H293 H 0.56551 0.52768 0.76832 0.0
H294 H 0.45285 0.54016 0.48614 0.0
H295 H 0.5688 0.53228 0.61847 0.0
H296 H 0.55716 0.50109 0.31867 0.0
H297 H 0.55327 0.49627 0.46904 0.0
H298 H 0.4743 0.58272 0.39711 0.0
H299 H 0.47682 0.58527 0.24461 0.0
C300 C 0.47615 0.53644 0.63496 0.0
C301 C 0.50748 0.53247 0.71631 0.0
C302 C 0.47781 0.53793 0.54734 0.0
C303 C 0.51109 0.53638 0.53898 0.0
C304 C 0.54241 0.53262 0.62067 0.0
C305 C 0.54055 0.53035 0.70753 0.0
C306 C 0.53923 0.51933 0.33553 0.0
C307 C 0.51741 0.54366 0.26998 0.0
C308 C 0.53699 0.5167 0.42207 0.0
C309 C 0.51339 0.53906 0.44619 0.0
C310 C 0.49217 0.56418 0.38087 0.0
C311 C 0.49389 0.56608 0.29361 0.0
H312 H 0.07915 0.50496 0.89537 0.0
H313 H 0.14978 0.5697 0.18059 0.0
H314 H 0.1334 0.49571 0.87015 0.0
H315 H 0.2044 0.56303 0.15438 0.0
H316 H 0.29827 0.51341 0.10342 0.0
H317 H 0.24506 0.52152 0.13645 0.0
H318 H 0.18119 0.53119 0.841 0.0
H319 H 0.2339 0.52121 0.80869 0.0
C320 C 0.10625 0.5168 0.95332 0.0
C321 C 0.10975 0.53738 0.0407 0.0
C322 C 0.13775 0.51228 0.93835 0.0
C323 C 0.17406 0.52909 0.00957 0.0
C324 C 0.17739 0.54907 0.09757 0.0
C325 C 0.14585 0.5531 0.11271 0.0
C326 C 0.2731 0.51837 0.04626 0.0
C327 C 0.27065 0.51742 0.95373 0.0
C328 C 0.24228 0.52281 0.06487 0.0
C329 C 0.20797 0.52652 0.99144 0.0
C330 C 0.20634 0.5273 0.8996 0.0
C331 C 0.23695 0.52244 0.88107 0.0
H332 H 0.73806 0.1187 0.05309 0.0
H333 H 0.76095 0.24239 0.23063 0.0
H334 H 0.77817 0.15164 0.98303 0.0
H335 H 0.80076 0.27532 0.16054 0.0
H336 H 0.84784 0.32829 0.96072 0.0
H337 H 0.79892 0.29447 0.00173 0.0
H338 H 0.84881 0.18023 0.05744 0.0
H339 H 0.89857 0.21443 0.0205 0.0
C340 C 0.75122 0.15306 0.07595 0.0
C341 C 0.74677 0.17794 0.14782 0.0
C342 C 0.77424 0.17181 0.03631 0.0
C343 C 0.79264 0.21595 0.06671 0.0
C344 C 0.78675 0.24131 0.13537 0.0
C345 C 0.76424 0.22241 0.17599 0.0
C346 C 0.8486 0.29607 0.98224 0.0
C347 C 0.87757 0.2744 0.98837 0.0
C348 C 0.82038 0.27662 0.00499 0.0
C349 C 0.82014 0.23479 0.03283 0.0
C350 C 0.84808 0.2123 0.03506 0.0
C351 C 0.87658 0.23196 0.01366 0.0
H352 H 0.50464 0.90199 0.12014 0.0
H353 H 0.51086 0.89529 0.85237 0.0
H354 H 0.50848 0.82413 0.12309 0.0
H355 H 0.51546 0.81796 0.85489 0.0
H356 H 0.48623 0.66676 0.82293 0.0
H357 H 0.49044 0.74574 0.83224 0.0
H358 H 0.52989 0.75772 0.13624 0.0
H359 H 0.5247 0.67732 0.1254 0.0
C360 C 0.50831 0.88457 0.06308 0.0
C361 C 0.50951 0.90735 0.98859 0.0
C362 C 0.5102 0.83883 0.06418 0.0
C363 C 0.51212 0.81205 0.989 0.0
C364 C 0.51349 0.83519 0.91471 0.0
C365 C 0.51168 0.88086 0.91395 0.0
C366 C 0.49646 0.68596 0.89262 0.0
C367 C 0.50621 0.66392 0.97328 0.0
C368 C 0.49907 0.73246 0.89828 0.0
C369 C 0.51096 0.7609 0.9853 0.0
C370 C 0.52042 0.73878 0.06674 0.0
C371 C 0.51792 0.69181 0.0609 0.0
H372 H 0.94439 0.56924 0.09141 0.0
H373 H 0.87328 0.50406 0.8067 0.0
H374 H 0.89025 0.57877 0.11716 0.0
H375 H 0.81885 0.51097 0.83355 0.0
H376 H 0.72542 0.56181 0.88342 0.0
H377 H 0.77856 0.55298 0.85081 0.0
H378 H 0.84231 0.54431 0.14692 0.0
H379 H 0.78965 0.55509 0.1788 0.0
C380 C 0.91719 0.55729 0.03375 0.0
C381 C 0.91348 0.53656 0.94625 0.0
C382 C 0.88579 0.56199 0.04903 0.0
C383 C 0.84941 0.54525 0.97804 0.0
C384 C 0.84592 0.52494 0.89012 0.0
C385 C 0.87733 0.52074 0.87463 0.0
C386 C 0.75055 0.55692 0.94084 0.0
C387 C 0.75298 0.55835 0.03338 0.0
C388 C 0.78134 0.55205 0.92247 0.0
C389 C 0.81558 0.54835 -0.00385 0.0
C390 C 0.8172 0.54813 0.0881 0.0
C391 C 0.78663 0.55345 0.1064 0.0
H392 H 0.12538 0.85978 0.97084 0.0
H393 H 0.17593 0.74612 0.0371 0.0
H394 H 0.17694 0.89441 0.94137 0.0
H395 H 0.22678 0.78041 0.00346 0.0
H396 H 0.26629 0.83276 0.77575 0.0
H397 H 0.22672 0.79935 0.84599 0.0
H398 H 0.24766 0.92325 0.02113 0.0
H399 H 0.28762 0.95665 0.95098 0.0
C400 C 0.14774 0.84242 0.98092 0.0
C401 C 0.14617 0.79988 0.00559 0.0
C402 C 0.17729 0.86234 0.96385 0.0
C403 C 0.20575 0.84002 0.9699 0.0
C404 C 0.20497 0.79815 -0.00249 0.0
C405 C 0.17567 0.77843 0.01595 0.0
C406 C 0.26285 0.8526 0.83034 0.0
C407 C 0.27962 0.89729 0.8575 0.0
C408 C 0.24047 0.83346 0.87098 0.0
C409 C 0.23402 0.85882 0.93857 0.0
C410 C 0.25206 0.9031 0.9687 0.0
C411 C 0.27497 0.9221 0.92905 0.0
H412 H 0.4977 0.39724 0.85763 0.0
H413 H 0.53871 0.40774 0.16074 0.0
H414 H 0.49247 0.3168 0.84638 0.0
H415 H 0.53455 0.32887 0.15105 0.0
H416 H 0.5153 0.17974 0.13262 0.0
H417 H 0.51035 0.2569 0.13036 0.0
H418 H 0.51314 0.25001 0.85711 0.0
H419 H 0.51716 0.17216 0.85971 0.0
C420 C 0.50501 0.38274 0.9222 0.0
C421 C 0.51746 0.41062 0.0102 0.0
C422 C 0.5025 0.33575 0.91611 0.0
C423 C 0.5127 0.31363 -0.00237 0.0
C424 C 0.5253 0.34208 0.08495 0.0
C425 C 0.52788 0.38855 0.09083 0.0
C426 C 0.51349 0.19397 0.07009 0.0
C427 C 0.51452 0.16726 -0.00598 0.0
C428 C 0.51147 0.23956 0.0694 0.0
C429 C 0.51162 0.26248 -0.0062 0.0
C430 C 0.51243 0.23549 0.91718 0.0
C431 C 0.51441 0.18976 0.91808 0.0
loop_
_geom_bond_atom_site_label_1
_geom_bond_atom_site_label_2
_geom_bond_distance
_geom_bond_site_symmetry_2
_ccdc_geom_bond_type
Eu0 N31 2.657 1_656 S
Eu0 N38 2.609 . S
Eu0 O44 2.558 . S
Eu0 O45 2.615 . S
Eu0 O47 2.337 1_556 S
Eu0 O48 2.563 . S
Eu0 O49 2.419 1_556 S
Eu0 O51 2.380 1_656 S
Eu0 O52 2.432 . S
Eu0 C64 2.848 . S
C1 C4 1.429 . S
C1 C5 1.411 . S
C1 N8 1.377 1_655 S
C2 C4 1.420 1_556 S
C2 C6 1.423 1_556 S
C2 C14 1.392 . S
C3 C5 1.420 . S
C3 C6 1.351 . S
C3 H26 0.931 . S
C4 C1 1.429 . S
C4 C2 1.420 1_554 S
C4 N12 1.362 1_554 S
C5 C1 1.411 . S
C5 C3 1.420 . S
C5 C10 1.395 1_655 S
C6 C2 1.423 1_554 S
C6 C3 1.351 . S
C6 H18 0.930 1_554 S
C7 C9 1.400 . S
C7 C10 1.386 . S
C7 H19 0.930 . S
N8 C1 1.377 1_455 S
N8 C9 1.321 . S
N8 Eu11 2.609 . S
C9 C7 1.400 . S
C9 N8 1.321 . S
C9 H16 0.930 . S
C10 C5 1.395 1_455 S
C10 C7 1.386 . S
C10 H29 0.930 . S
Eu11 N8 2.609 . S
Eu11 N12 2.657 1_454 S
Eu11 O45 2.383 1_454 S
Eu11 O46 2.432 . S
Eu11 O50 2.558 . S
Eu11 O51 2.612 . S
Eu11 O53 2.336 1_554 S
Eu11 O54 2.563 . S
Eu11 O55 2.419 1_554 S
Eu11 C75 2.848 . S
N12 C4 1.362 1_556 S
N12 Eu11 2.657 1_656 S
N12 C13 1.334 . S
C13 N12 1.334 . S
C13 C15 1.413 . S
C13 H20 0.929 . S
C14 C2 1.392 . S
C14 C15 1.367 . S
C14 H22 0.930 . S
C15 C13 1.413 . S
C15 C14 1.367 . S
C15 H17 0.930 . S
H16 C9 0.930 . S
H17 C15 0.930 . S
H18 C6 0.930 1_556 S
H19 C7 0.930 . S
H20 C13 0.929 . S
H21 C35 0.930 . S
H22 C14 0.930 . S
H23 C41 0.930 . S
H24 C32 0.929 . S
H25 C39 0.930 . S
H26 C3 0.931 . S
H27 C33 0.930 . S
H28 C66 0.930 1_554 S
H29 C10 0.930 . S
H30 C65 0.931 . S
N31 Eu0 2.657 1_454 S
N31 C32 1.334 . S
N31 C36 1.358 1_554 S
C32 H24 0.929 . S
C32 N31 1.334 . S
C32 C35 1.413 . S
C33 H27 0.930 . S
C33 C34 1.392 . S
C33 C35 1.367 . S
C34 C33 1.392 . S
C34 C36 1.419 1_554 S
C34 C66 1.423 1_554 S
C35 H21 0.930 . S
C35 C32 1.413 . S
C35 C33 1.367 . S
C36 N31 1.358 1_556 S
C36 C34 1.419 1_556 S
C36 C40 1.434 . S
H37 C42 0.930 . S
N38 Eu0 2.609 . S
N38 C40 1.377 1_655 S
N38 C41 1.321 . S
C39 H25 0.930 . S
C39 C41 1.400 . S
C39 C42 1.386 . S
C40 C36 1.434 . S
C40 N38 1.377 1_455 S
C40 C43 1.411 . S
C41 H23 0.930 . S
C41 N38 1.321 . S
C41 C39 1.400 . S
C42 H37 0.930 . S
C42 C39 1.386 . S
C42 C43 1.395 1_655 S
C43 C40 1.411 . S
C43 C42 1.395 1_455 S
C43 C65 1.420 . S
O44 Eu0 2.558 . S
O44 C64 1.257 . S
O45 Eu0 2.615 . S
O45 Eu11 2.383 1_656 S
O45 C56 1.273 . S
O46 Eu11 2.432 . S
O46 C63 1.264 . S
O47 Eu0 2.337 1_554 S
O47 C63 1.256 1_655 S
O48 Eu0 2.563 . S
O48 C56 1.235 . S
O49 Eu0 2.419 1_554 S
O49 C64 1.249 1_554 S
O50 Eu11 2.558 . S
O50 C75 1.257 . S
O51 Eu0 2.380 1_454 S
O51 Eu11 2.612 . S
O51 C67 1.276 . S
O52 Eu0 2.432 . S
O52 C74 1.264 . S
O53 Eu11 2.336 1_556 S
O53 C74 1.257 1_455 S
O54 Eu11 2.563 . S
O54 C67 1.235 . S
O55 Eu11 2.419 1_556 S
O55 C75 1.249 1_556 S
C56 O45 1.273 . S
C56 O48 1.235 . S
C57 C59 1.394 . S
C57 C61 1.395 . S
C57 C64 1.492 . S
C58 C59 1.392 . S
C58 C60 1.386 . S
C59 C57 1.394 . S
C59 C58 1.392 . S
C59 H76 0.929 1_556 S
C60 C58 1.386 . S
C60 C62 1.395 . S
C60 H77 0.930 . S
C61 C57 1.395 . S
C61 C62 1.379 . S
C61 H78 0.930 . S
C62 C60 1.395 . S
C62 C61 1.379 . S
C62 H79 0.930 . S
C63 O46 1.264 . S
C63 O47 1.256 1_455 S
C64 Eu0 2.848 . S
C64 O44 1.257 . S
C64 O49 1.249 1_556 S
C64 C57 1.492 . S
C65 H30 0.931 . S
C65 C43 1.420 . S
C65 C66 1.351 . S
C66 H28 0.930 1_556 S
C66 C34 1.423 1_556 S
C66 C65 1.351 . S
C67 O51 1.276 . S
C67 O54 1.235 . S
C68 C69 1.393 . S
C68 C72 1.395 . S
C68 C75 1.492 . S
C69 C68 1.393 . S
C69 C70 1.392 . S
C69 H80 0.930 1_554 S
C70 C69 1.392 . S
C70 C71 1.386 . S
C71 C70 1.386 . S
C71 C73 1.395 . S
C71 H81 0.930 . S
C72 C68 1.395 . S
C72 C73 1.379 . S
C72 H82 0.930 . S
C73 C71 1.395 . S
C73 C72 1.379 . S
C73 H83 0.930 . S
C74 O52 1.264 . S
C74 O53 1.257 1_655 S
C75 Eu11 2.848 . S
C75 O50 1.257 . S
C75 O55 1.249 1_554 S
C75 C68 1.492 . S
H76 C59 0.929 1_554 S
H77 C60 0.930 . S
H78 C61 0.930 . S
H79 C62 0.930 . S
H80 C69 0.930 1_556 S
H81 C71 0.930 . S
H82 C72 0.930 . S
H83 C73 0.930 . S
Eu84 N115 2.657 1_545 S
Eu84 N122 2.609 1_545 S
Eu84 O128 2.558 . S
Eu84 O129 2.612 1_554 S
Eu84 O131 2.339 1_554 S
Eu84 O132 2.563 . S
Eu84 O133 2.419 . S
Eu84 O135 2.380 1_545 S
Eu84 O136 2.432 . S
Eu84 C148 2.848 . S
C85 C88 1.429 . S
C85 C89 1.411 . S
C85 N92 1.377 . S
C86 C88 1.420 . S
C86 C90 1.423 . S
C86 C98 1.392 1_556 S
C87 C89 1.420 . S
C87 C90 1.351 . S
C87 H110 0.931 . S
C88 C85 1.429 . S
C88 C86 1.420 . S
C88 N96 1.362 . S
C89 C85 1.411 . S
C89 C87 1.420 . S
C89 C94 1.395 . S
C90 C86 1.423 . S
C90 C87 1.351 . S
C90 H102 0.930 . S
C91 C93 1.400 1_545 S
C91 C94 1.386 . S
C91 H103 0.930 1_545 S
N92 C85 1.377 . S
N92 C93 1.321 1_545 S
N92 Eu95 2.609 1_545 S
C93 C91 1.400 1_565 S
C93 N92 1.321 1_565 S
C93 H100 0.930 . S
C94 C89 1.395 . S
C94 C91 1.386 . S
C94 H113 0.930 . S
Eu95 N92 2.609 1_565 S
Eu95 N96 2.657 1_565 S
Eu95 O129 2.380 1_565 S
Eu95 O130 2.432 . S
Eu95 O134 2.558 . S
Eu95 O135 2.612 1_556 S
Eu95 O137 2.339 1_556 S
Eu95 O138 2.563 . S
Eu95 O139 2.419 . S
Eu95 C159 2.848 . S
N96 C88 1.362 . S
N96 Eu95 2.657 1_545 S
N96 C97 1.334 1_556 S
C97 N96 1.334 1_554 S
C97 C99 1.413 . S
C97 H104 0.929 . S
C98 C86 1.392 1_554 S
C98 C99 1.367 . S
C98 H106 0.930 . S
C99 C97 1.413 . S
C99 C98 1.367 . S
C99 H101 0.930 . S
H100 C93 0.930 . S
H101 C99 0.930 . S
H102 C90 0.930 . S
H103 C91 0.930 1_565 S
H104 C97 0.929 . S
H105 C119 0.930 . S
H106 C98 0.930 . S
H107 C125 0.930 . S
H108 C116 0.929 . S
H109 C123 0.929 1_545 S
H110 C87 0.931 . S
H111 C117 0.930 . S
H112 C150 0.930 . S
H113 C94 0.930 . S
H114 C149 0.931 . S
N115 Eu84 2.657 1_565 S
N115 C116 1.334 1_554 S
N115 C120 1.362 . S
C116 H108 0.929 . S
C116 N115 1.334 1_556 S
C116 C119 1.413 . S
C117 H111 0.930 . S
C117 C118 1.392 1_556 S
C117 C119 1.367 . S
C118 C117 1.392 1_554 S
C118 C120 1.420 . S
C118 C150 1.423 . S
C119 H105 0.930 . S
C119 C116 1.413 . S
C119 C117 1.367 . S
C120 N115 1.362 . S
C120 C118 1.420 . S
C120 C124 1.429 . S
H121 C126 0.930 . S
N122 Eu84 2.609 1_565 S
N122 C124 1.377 . S
N122 C125 1.321 1_565 S
C123 H109 0.929 1_565 S
C123 C125 1.399 1_565 S
C123 C126 1.387 . S
C124 C120 1.429 . S
C124 N122 1.377 . S
C124 C127 1.411 . S
C125 H107 0.930 . S
C125 N122 1.321 1_545 S
C125 C123 1.399 1_545 S
C126 H121 0.930 . S
C126 C123 1.387 . S
C126 C127 1.395 . S
C127 C124 1.411 . S
C127 C126 1.395 . S
C127 C149 1.420 . S
O128 Eu84 2.558 . S
O128 C148 1.257 . S
O129 Eu84 2.612 1_556 S
O129 Eu95 2.380 1_545 S
O129 C140 1.276 . S
O130 Eu95 2.432 . S
O130 C147 1.264 1_565 S
O131 Eu84 2.339 1_556 S
O131 C147 1.254 . S
O132 Eu84 2.563 . S
O132 C140 1.235 1_554 S
O133 Eu84 2.419 . S
O133 C148 1.249 . S
O134 Eu95 2.558 . S
O134 C159 1.257 . S
O135 Eu84 2.380 1_565 S
O135 Eu95 2.612 1_554 S
O135 C151 1.276 . S
O136 Eu84 2.432 . S
O136 C158 1.271 . S
O137 Eu95 2.339 1_554 S
O137 C158 1.255 1_565 S
O138 Eu95 2.563 . S
O138 C151 1.235 1_556 S
O139 Eu95 2.419 . S
O139 C159 1.249 . S
C140 O129 1.276 . S
C140 O132 1.235 1_556 S
C141 C143 1.393 . S
C141 C145 1.395 . S
C141 C148 1.492 . S
C142 C143 1.392 . S
C142 C144 1.386 . S
C143 C141 1.393 . S
C143 C142 1.392 . S
C143 H160 0.930 1_554 S
C144 C142 1.386 . S
C144 C146 1.395 . S
C144 H161 0.930 . S
C145 C141 1.395 . S
C145 C146 1.379 . S
C145 H162 0.930 . S
C146 C144 1.395 . S
C146 C145 1.379 . S
C146 H163 0.930 . S
C147 O130 1.264 1_545 S
C147 O131 1.254 . S
C148 Eu84 2.848 . S
C148 O128 1.257 . S
C148 O133 1.249 . S
C148 C141 1.492 . S
C149 H114 0.931 . S
C149 C127 1.420 . S
C149 C150 1.351 . S
C150 H112 0.930 . S
C150 C118 1.423 . S
C150 C149 1.351 . S
C151 O135 1.276 . S
C151 O138 1.235 1_554 S
C152 C153 1.393 . S
C152 C156 1.395 . S
C152 C159 1.492 . S
C153 C152 1.393 . S
C153 C154 1.392 . S
C153 H164 0.930 1_556 S
C154 C153 1.392 . S
C154 C155 1.386 . S
C155 C154 1.386 . S
C155 C157 1.395 . S
C155 H165 0.930 . S
C156 C152 1.395 . S
C156 C157 1.379 . S
C156 H166 0.930 . S
C157 C155 1.395 . S
C157 C156 1.379 . S
C157 H167 0.930 . S
C158 O136 1.271 . S
C158 O137 1.255 1_545 S
C159 Eu95 2.848 . S
C159 O134 1.257 . S
C159 O139 1.249 . S
C159 C152 1.492 . S
H160 C143 0.930 1_556 S
H161 C144 0.930 . S
H162 C145 0.930 . S
H163 C146 0.930 . S
H164 C153 0.930 1_554 S
H165 C155 0.930 . S
H166 C156 0.930 . S
H167 C157 0.930 . S
Eu168 N199 2.657 . S
Eu168 N206 2.609 . S
Eu168 O212 2.558 . S
Eu168 O213 2.612 1_556 S
Eu168 O215 2.339 1_556 S
Eu168 O216 2.563 . S
Eu168 O217 2.419 . S
Eu168 O219 2.380 . S
Eu168 O220 2.432 . S
Eu168 C232 2.848 . S
C169 C172 1.429 . S
C169 C173 1.411 . S
C169 N176 1.377 . S
C170 C172 1.420 . S
C170 C174 1.423 . S
C170 C182 1.392 1_554 S
C171 C173 1.420 . S
C171 C174 1.351 . S
C171 H194 0.931 . S
C172 C169 1.429 . S
C172 C170 1.420 . S
C172 N180 1.362 . S
C173 C169 1.411 . S
C173 C171 1.420 . S
C173 C178 1.395 . S
C174 C170 1.423 . S
C174 C171 1.351 . S
C174 H186 0.930 . S
C175 C177 1.400 . S
C175 C178 1.386 . S
C175 H187 0.930 . S
N176 C169 1.377 . S
N176 C177 1.321 . S
N176 Eu179 2.609 . S
C177 C175 1.400 . S
C177 N176 1.321 . S
C177 H184 0.930 . S
C178 C173 1.395 . S
C178 C175 1.386 . S
C178 H197 0.930 . S
Eu179 N176 2.609 . S
Eu179 N180 2.657 . S
Eu179 O213 2.380 . S
Eu179 O214 2.432 . S
Eu179 O218 2.558 . S
Eu179 O219 2.612 1_554 S
Eu179 O221 2.339 1_554 S
Eu179 O222 2.563 . S
Eu179 O223 2.419 . S
Eu179 C243 2.848 . S
N180 C172 1.362 . S
N180 Eu179 2.657 . S
N180 C181 1.334 1_554 S
C181 N180 1.334 1_556 S
C181 C183 1.413 . S
C181 H188 0.929 . S
C182 C170 1.392 1_556 S
C182 C183 1.367 . S
C182 H190 0.930 . S
C183 C181 1.413 . S
C183 C182 1.367 . S
C183 H185 0.930 . S
H184 C177 0.930 . S
H185 C183 0.930 . S
H186 C174 0.930 . S
H187 C175 0.930 . S
H188 C181 0.929 . S
H189 C203 0.930 . S
H190 C182 0.930 . S
H191 C209 0.930 . S
H192 C200 0.929 . S
H193 C207 0.930 . S
H194 C171 0.931 . S
H195 C201 0.930 . S
H196 C234 0.930 . S
H197 C178 0.930 . S
H198 C233 0.931 . S
N199 Eu168 2.657 . S
N199 C200 1.334 1_556 S
N199 C204 1.362 . S
C200 H192 0.929 . S
C200 N199 1.334 1_554 S
C200 C203 1.413 . S
C201 H195 0.930 . S
C201 C202 1.392 1_554 S
C201 C203 1.367 . S
C202 C201 1.392 1_556 S
C202 C204 1.420 . S
C202 C234 1.423 . S
C203 H189 0.930 . S
C203 C200 1.413 . S
C203 C201 1.367 . S
C204 N199 1.362 . S
C204 C202 1.420 . S
C204 C208 1.429 . S
H205 C210 0.930 . S
N206 Eu168 2.609 . S
N206 C208 1.377 . S
N206 C209 1.321 . S
C207 H193 0.930 . S
C207 C209 1.400 . S
C207 C210 1.386 . S
C208 C204 1.429 . S
C208 N206 1.377 . S
C208 C211 1.411 . S
C209 H191 0.930 . S
C209 N206 1.321 . S
C209 C207 1.400 . S
C210 H205 0.930 . S
C210 C207 1.386 . S
C210 C211 1.395 . S
C211 C208 1.411 . S
C211 C210 1.395 . S
C211 C233 1.420 . S
O212 Eu168 2.558 . S
O212 C232 1.257 . S
O213 Eu168 2.612 1_554 S
O213 Eu179 2.380 . S
O213 C224 1.276 . S
O214 Eu179 2.432 . S
O214 C231 1.264 . S
O215 Eu168 2.339 1_554 S
O215 C231 1.254 . S
O216 Eu168 2.563 . S
O216 C224 1.235 1_556 S
O217 Eu168 2.419 . S
O217 C232 1.249 . S
O218 Eu179 2.558 . S
O218 C243 1.257 . S
O219 Eu168 2.380 . S
O219 Eu179 2.612 1_556 S
O219 C235 1.276 . S
O220 Eu168 2.432 . S
O220 C242 1.264 . S
O221 Eu179 2.339 1_556 S
O221 C242 1.254 . S
O222 Eu179 2.563 . S
O222 C235 1.235 1_554 S
O223 Eu179 2.419 . S
O223 C243 1.249 . S
C224 O213 1.276 . S
C224 O216 1.235 1_554 S
C225 C227 1.393 . S
C225 C229 1.395 . S
C225 C232 1.492 . S
C226 C227 1.392 . S
C226 C228 1.386 . S
C227 C225 1.393 . S
C227 C226 1.392 . S
C227 H244 0.930 1_556 S
C228 C226 1.386 . S
C228 C230 1.395 . S
C228 H245 0.930 . S
C229 C225 1.395 . S
C229 C230 1.379 . S
C229 H246 0.930 . S
C230 C228 1.395 . S
C230 C229 1.379 . S
C230 H247 0.930 . S
C231 O214 1.264 . S
C231 O215 1.254 . S
C232 Eu168 2.848 . S
C232 O212 1.257 . S
C232 O217 1.249 . S
C232 C225 1.492 . S
C233 H198 0.931 . S
C233 C211 1.420 . S
C233 C234 1.351 . S
C234 H196 0.930 . S
C234 C202 1.423 . S
C234 C233 1.351 . S
C235 O219 1.276 . S
C235 O222 1.235 1_556 S
C236 C237 1.393 . S
C236 C240 1.395 . S
C236 C243 1.492 . S
C237 C236 1.393 . S
C237 C238 1.392 . S
C237 H248 0.930 1_554 S
C238 C237 1.392 . S
C238 C239 1.386 . S
C239 C238 1.386 . S
C239 C241 1.395 . S
C239 H249 0.930 . S
C240 C236 1.395 . S
C240 C241 1.379 . S
C240 H250 0.930 . S
C241 C239 1.395 . S
C241 C240 1.379 . S
C241 H251 0.930 . S
C242 O220 1.264 . S
C242 O221 1.254 . S
C243 Eu179 2.848 . S
C243 O218 1.257 . S
C243 O223 1.249 . S
C243 C236 1.492 . S
H244 C227 0.930 1_554 S
H245 C228 0.930 . S
H246 C229 0.930 . S
H247 C230 0.930 . S
H248 C237 0.930 1_556 S
H249 C239 0.930 . S
H250 C240 0.930 . S
H251 C241 0.930 . S
H252 C260 0.950 . S
H253 C265 0.950 . S
H254 C262 0.950 . S
H255 C264 0.950 . S
H256 C266 0.950 . S
H257 C268 0.950 . S
H258 C270 0.950 . S
H259 C271 0.950 . S
C260 H252 0.950 . S
C260 C261 1.377 1_455 S
C260 C262 1.391 . S
C261 C260 1.377 1_655 S
C261 C265 1.390 . S
C262 H254 0.950 . S
C262 C260 1.391 . S
C262 C263 1.399 . S
C263 C262 1.399 . S
C263 C264 1.396 1_455 S
C263 C269 1.494 1_455 S
C264 H255 0.950 . S
C264 C263 1.396 1_655 S
C264 C265 1.391 . S
C265 H253 0.950 . S
C265 C261 1.390 . S
C265 C264 1.391 . S
C266 H256 0.950 . S
C266 C267 1.374 1_655 S
C266 C268 1.391 . S
C267 C266 1.374 1_455 S
C267 C271 1.389 . S
C268 H257 0.950 . S
C268 C266 1.391 . S
C268 C269 1.400 . S
C269 C263 1.494 1_655 S
C269 C268 1.400 . S
C269 C270 1.398 1_655 S
C270 H258 0.950 . S
C270 C269 1.398 1_455 S
C270 C271 1.391 . S
C271 H259 0.950 . S
C271 C267 1.389 . S
C271 C270 1.391 . S
H272 C280 0.950 . S
H273 C285 0.950 . S
H274 C282 0.950 . S
H275 C284 0.950 . S
H276 C286 0.950 . S
H277 C288 0.950 . S
H278 C290 0.950 . S
H279 C291 0.950 . S
C280 H272 0.950 . S
C280 C281 1.386 1_545 S
C280 C282 1.391 . S
C281 C280 1.386 1_565 S
C281 C285 1.393 . S
C282 H274 0.950 . S
C282 C280 1.391 . S
C282 C283 1.400 1_545 S
C283 C282 1.400 1_565 S
C283 C284 1.398 . S
C283 C289 1.491 1_565 S
C284 H275 0.950 . S
C284 C283 1.398 . S
C284 C285 1.391 . S
C285 H273 0.950 . S
C285 C281 1.393 . S
C285 C284 1.391 . S
C286 H276 0.950 . S
C286 C287 1.386 1_565 S
C286 C288 1.391 . S
C287 C286 1.386 1_545 S
C287 C291 1.393 . S
C288 H277 0.950 . S
C288 C286 1.391 . S
C288 C289 1.400 1_565 S
C289 C283 1.491 1_545 S
C289 C288 1.400 1_545 S
C289 C290 1.398 . S
C290 H278 0.950 . S
C290 C289 1.398 . S
C290 C291 1.391 . S
C291 H279 0.950 . S
C291 C287 1.393 . S
C291 C290 1.391 . S
H292 C300 0.950 . S
H293 C305 0.950 . S
H294 C302 0.950 . S
H295 C304 0.950 . S
H296 C306 0.950 . S
H297 C308 0.950 . S
H298 C310 0.950 . S
H299 C311 0.950 . S
C300 H292 0.950 . S
C300 C301 1.386 . S
C300 C302 1.391 . S
C301 C300 1.386 . S
C301 C305 1.393 . S
C302 H294 0.950 . S
C302 C300 1.391 . S
C302 C303 1.400 . S
C303 C302 1.400 . S
C303 C304 1.398 . S
C303 C309 1.491 . S
C304 H295 0.950 . S
C304 C303 1.398 . S
C304 C305 1.391 . S
C305 H293 0.950 . S
C305 C301 1.393 . S
C305 C304 1.391 . S
C306 H296 0.950 . S
C306 C307 1.386 . S
C306 C308 1.391 . S
C307 C306 1.386 . S
C307 C311 1.393 . S
C308 H297 0.950 . S
C308 C306 1.391 . S
C308 C309 1.400 . S
C309 C303 1.491 . S
C309 C308 1.400 . S
C309 C310 1.398 . S
C310 H298 0.950 . S
C310 C309 1.398 . S
C310 C311 1.391 . S
C311 H299 0.950 . S
C311 C307 1.393 . S
C311 C310 1.391 . S
H312 C320 0.950 . S
H313 C325 0.950 . S
H314 C322 0.950 . S
H315 C324 0.950 . S
H316 C326 0.950 . S
H317 C328 0.950 . S
H318 C330 0.950 . S
H319 C331 0.950 . S
C320 H312 0.950 . S
C320 C321 1.386 1_556 S
C320 C322 1.391 . S
C321 C320 1.386 1_554 S
C321 C325 1.393 . S
C322 H314 0.950 . S
C322 C320 1.391 . S
C322 C323 1.400 1_556 S
C323 C322 1.400 1_554 S
C323 C324 1.398 . S
C323 C329 1.491 . S
C324 H315 0.950 . S
C324 C323 1.398 . S
C324 C325 1.391 . S
C325 H313 0.950 . S
C325 C321 1.393 . S
C325 C324 1.391 . S
C326 H316 0.950 . S
C326 C327 1.386 1_554 S
C326 C328 1.391 . S
C327 C326 1.386 1_556 S
C327 C331 1.393 . S
C328 H317 0.950 . S
C328 C326 1.391 . S
C328 C329 1.400 . S
C329 C323 1.491 . S
C329 C328 1.400 . S
C329 C330 1.398 1_554 S
C330 H318 0.950 . S
C330 C329 1.398 1_556 S
C330 C331 1.391 . S
C331 H319 0.950 . S
C331 C327 1.393 . S
C331 C330 1.391 . S
H332 C340 0.950 . S
H333 C345 0.950 . S
H334 C342 0.950 . S
H335 C344 0.950 . S
H336 C346 0.950 . S
H337 C348 0.950 . S
H338 C350 0.950 . S
H339 C351 0.950 . S
C340 H332 0.950 . S
C340 C341 1.386 1_556 S
C340 C342 1.391 . S
C341 C340 1.386 1_554 S
C341 C345 1.393 . S
C342 H334 0.950 . S
C342 C340 1.391 . S
C342 C343 1.400 1_556 S
C343 C342 1.400 1_554 S
C343 C344 1.398 . S
C343 C349 1.491 . S
C344 H335 0.950 . S
C344 C343 1.398 . S
C344 C345 1.391 . S
C345 H333 0.950 . S
C345 C341 1.393 . S
C345 C344 1.391 . S
C346 H336 0.950 . S
C346 C347 1.386 . S
C346 C348 1.391 . S
C347 C346 1.386 . S
C347 C351 1.393 1_554 S
C348 H337 0.950 . S
C348 C346 1.391 . S
C348 C349 1.400 . S
C349 C343 1.491 . S
C349 C348 1.400 . S
C349 C350 1.398 1_554 S
C350 H338 0.950 . S
C350 C349 1.398 1_556 S
C350 C351 1.391 . S
C351 H339 0.950 . S
C351 C347 1.393 1_556 S
C351 C350 1.391 . S
H352 C360 0.950 . S
H353 C365 0.950 . S
H354 C362 0.950 . S
H355 C364 0.950 . S
H356 C366 0.950 . S
H357 C368 0.950 . S
H358 C370 0.950 . S
H359 C371 0.950 . S
C360 H352 0.950 . S
C360 C361 1.386 . S
C360 C362 1.391 . S
C361 C360 1.386 . S
C361 C365 1.393 1_554 S
C362 H354 0.950 . S
C362 C360 1.391 . S
C362 C363 1.400 . S
C363 C362 1.400 . S
C363 C364 1.398 1_554 S
C363 C369 1.491 . S
C364 H355 0.950 . S
C364 C363 1.398 1_556 S
C364 C365 1.391 . S
C365 H353 0.950 . S
C365 C361 1.393 1_556 S
C365 C364 1.391 . S
C366 H356 0.950 . S
C366 C367 1.386 1_556 S
C366 C368 1.391 . S
C367 C366 1.386 1_554 S
C367 C371 1.393 . S
C368 H357 0.950 . S
C368 C366 1.391 . S
C368 C369 1.400 1_556 S
C369 C363 1.491 . S
C369 C368 1.400 1_554 S
C369 C370 1.398 . S
C370 H358 0.950 . S
C370 C369 1.398 . S
C370 C371 1.391 . S
C371 H359 0.950 . S
C371 C367 1.393 . S
C371 C370 1.391 . S
H372 C380 0.950 . S
H373 C385 0.950 . S
H374 C382 0.950 . S
H375 C384 0.950 . S
H376 C386 0.950 . S
H377 C388 0.950 . S
H378 C390 0.950 . S
H379 C391 0.950 . S
C380 H372 0.950 . S
C380 C381 1.386 1_554 S
C380 C382 1.391 . S
C381 C380 1.386 1_556 S
C381 C385 1.393 . S
C382 H374 0.950 . S
C382 C380 1.391 . S
C382 C383 1.400 1_554 S
C383 C382 1.400 1_556 S
C383 C384 1.398 . S
C383 C389 1.491 . S
C384 H375 0.950 . S
C384 C383 1.398 . S
C384 C385 1.391 . S
C385 H373 0.950 . S
C385 C381 1.393 . S
C385 C384 1.391 . S
C386 H376 0.950 . S
C386 C387 1.394 . S
C386 C388 1.391 . S
C387 C386 1.394 . S
C387 C391 1.390 1_556 S
C388 H377 0.950 . S
C388 C386 1.391 . S
C388 C389 1.400 . S
C389 C383 1.491 . S
C389 C388 1.400 . S
C389 C390 1.398 1_556 S
C390 H378 0.950 . S
C390 C389 1.398 1_554 S
C390 C391 1.391 . S
C391 H379 0.950 . S
C391 C387 1.390 1_554 S
C391 C390 1.391 . S
H392 C400 0.950 . S
H393 C405 0.950 . S
H394 C402 0.950 . S
H395 C404 0.950 . S
H396 C406 0.950 . S
H397 C408 0.950 . S
H398 C410 0.950 . S
H399 C411 0.950 . S
C400 H392 0.950 . S
C400 C401 1.386 1_554 S
C400 C402 1.391 . S
C401 C400 1.386 1_556 S
C401 C405 1.393 . S
C402 H394 0.950 . S
C402 C400 1.391 . S
C402 C403 1.400 1_554 S
C403 C402 1.400 1_556 S
C403 C404 1.398 . S
C403 C409 1.491 . S
C404 H395 0.950 . S
C404 C403 1.398 . S
C404 C405 1.391 . S
C405 H393 0.950 . S
C405 C401 1.393 . S
C405 C404 1.391 . S
C406 H396 0.950 . S
C406 C407 1.386 . S
C406 C408 1.391 . S
C407 C406 1.386 . S
C407 C411 1.393 1_556 S
C408 H397 0.950 . S
C408 C406 1.391 . S
C408 C409 1.400 . S
C409 C403 1.491 . S
C409 C408 1.400 . S
C409 C410 1.398 1_556 S
C410 H398 0.950 . S
C410 C409 1.398 1_554 S
C410 C411 1.391 . S
C411 H399 0.950 . S
C411 C407 1.393 1_554 S
C411 C410 1.391 . S
H412 C420 0.950 . S
H413 C425 0.950 . S
H414 C422 0.950 . S
H415 C424 0.950 . S
H416 C426 0.950 . S
H417 C428 0.950 . S
H418 C430 0.950 . S
H419 C431 0.950 . S
C420 H412 0.950 . S
C420 C421 1.386 . S
C420 C422 1.391 . S
C421 C420 1.386 . S
C421 C425 1.393 1_556 S
C422 H414 0.950 . S
C422 C420 1.391 . S
C422 C423 1.400 . S
C423 C422 1.400 . S
C423 C424 1.398 1_556 S
C423 C429 1.491 . S
C424 H415 0.950 . S
C424 C423 1.398 1_554 S
C424 C425 1.391 . S
C425 H413 0.950 . S
C425 C421 1.393 1_554 S
C425 C424 1.391 . S
C426 H416 0.950 . S
C426 C427 1.386 1_554 S
C426 C428 1.391 . S
C427 C426 1.386 1_556 S
C427 C431 1.393 . S
C428 H417 0.950 . S
C428 C426 1.391 . S
C428 C429 1.400 1_554 S
C429 C423 1.491 . S
C429 C428 1.400 1_556 S
C429 C430 1.398 . S
C430 H418 0.950 . S
C430 C429 1.398 . S
C430 C431 1.391 . S
C431 H419 0.950 . S
C431 C427 1.393 . S
C431 C430 1.391 . S
C261 C74 1.511 . S
C267 C63 1.516 . S
C281 C158 1.475 1_565 S
C287 C147 1.480 . S
C301 C242 1.476 . S
C307 C231 1.476 . S
C321 C67 1.558 . S
C327 C226 1.468 . S
C341 C142 0.822 . S
C347 C58 0.801 1_554 S
C361 C151 2.311 . S
C367 C224 2.373 . S
C381 C56 1.590 . S
C387 C238 1.501 1_556 S
C401 C70 0.783 1_556 S
C407 C154 0.753 . S
C421 C235 2.369 . S
C427 C140 2.324 . S
