# Generated by pormake.
# Topology zni, (4)-cn, num edge types: 1
# Building blocks:
#     Node 0, Type 0, BuildingBlock: NAHDIM_clean_sbu_0, # of connection points: 4
#     Node 1, Type 0, BuildingBlock: NAHDIM_clean_sbu_0, # of connection points: 4
#     Node 2, Type 0, BuildingBlock: NAHDIM_clean_sbu_0, # of connection points: 4
#     Node 3, Type 0, BuildingBlock: NAHDIM_clean_sbu_0, # of connection points: 4
#     Node 4, Type 0, BuildingBlock: NAHDIM_clean_sbu_0, # of connection points: 4
#     Node 5, Type 0, BuildingBlock: NAHDIM_clean_sbu_0, # of connection points: 4
#     Node 6, Type 0, BuildingBlock: NAHDIM_clean_sbu_0, # of connection points: 4
#     Node 7, Type 0, BuildingBlock: NAHDIM_clean_sbu_0, # of connection points: 4
#     Node 8, Type 0, BuildingBlock: NAHDIM_clean_sbu_0, # of connection points: 4
#     Node 9, Type 0, BuildingBlock: NAHDIM_clean_sbu_0, # of connection points: 4
#     Node 10, Type 0, BuildingBlock: NAHDIM_clean_sbu_0, # of connection points: 4
#     Node 11, Type 0, BuildingBlock: NAHDIM_clean_sbu_0, # of connection points: 4
#     Node 12, Type 0, BuildingBlock: NAHDIM_clean_sbu_0, # of connection points: 4
#     Node 13, Type 0, BuildingBlock: NAHDIM_clean_sbu_0, # of connection points: 4
#     Node 14, Type 0, BuildingBlock: NAHDIM_clean_sbu_0, # of connection points: 4
#     Node 15, Type 0, BuildingBlock: NAHDIM_clean_sbu_0, # of connection points: 4
#     Node 16, Type 0, BuildingBlock: NAHDIM_clean_sbu_0, # of connection points: 4
#     Node 17, Type 0, BuildingBlock: NAHDIM_clean_sbu_0, # of connection points: 4
#     Node 18, Type 0, BuildingBlock: NAHDIM_clean_sbu_0, # of connection points: 4
#     Node 19, Type 0, BuildingBlock: NAHDIM_clean_sbu_0, # of connection points: 4
#     Node 20, Type 0, BuildingBlock: NAHDIM_clean_sbu_0, # of connection points: 4
#     Node 21, Type 0, BuildingBlock: NAHDIM_clean_sbu_0, # of connection points: 4
#     Node 22, Type 0, BuildingBlock: NAHDIM_clean_sbu_0, # of connection points: 4
#     Node 23, Type 0, BuildingBlock: NAHDIM_clean_sbu_0, # of connection points: 4
#     Node 24, Type 0, BuildingBlock: NAHDIM_clean_sbu_0, # of connection points: 4
#     Node 25, Type 0, BuildingBlock: NAHDIM_clean_sbu_0, # of connection points: 4
#     Node 26, Type 0, BuildingBlock: NAHDIM_clean_sbu_0, # of connection points: 4
#     Node 27, Type 0, BuildingBlock: NAHDIM_clean_sbu_0, # of connection points: 4
#     Node 28, Type 0, BuildingBlock: NAHDIM_clean_sbu_0, # of connection points: 4
#     Node 29, Type 0, BuildingBlock: NAHDIM_clean_sbu_0, # of connection points: 4
#     Node 30, Type 0, BuildingBlock: NAHDIM_clean_sbu_0, # of connection points: 4
#     Node 31, Type 0, BuildingBlock: NAHDIM_clean_sbu_0, # of connection points: 4
#     Edge 32, Type (0, 0), None
#     Edge 33, Type (0, 0), None
#     Edge 34, Type (0, 0), None
#     Edge 35, Type (0, 0), None
#     Edge 36, Type (0, 0), None
#     Edge 37, Type (0, 0), None
#     Edge 38, Type (0, 0), None
#     Edge 39, Type (0, 0), None
#     Edge 40, Type (0, 0), None
#     Edge 41, Type (0, 0), None
#     Edge 42, Type (0, 0), None
#     Edge 43, Type (0, 0), None
#     Edge 44, Type (0, 0), None
#     Edge 45, Type (0, 0), None
#     Edge 46, Type (0, 0), None
#     Edge 47, Type (0, 0), None
#     Edge 48, Type (0, 0), None
#     Edge 49, Type (0, 0), None
#     Edge 50, Type (0, 0), None
#     Edge 51, Type (0, 0), None
#     Edge 52, Type (0, 0), None
#     Edge 53, Type (0, 0), None
#     Edge 54, Type (0, 0), None
#     Edge 55, Type (0, 0), None
#     Edge 56, Type (0, 0), None
#     Edge 57, Type (0, 0), None
#     Edge 58, Type (0, 0), None
#     Edge 59, Type (0, 0), None
#     Edge 60, Type (0, 0), None
#     Edge 61, Type (0, 0), None
#     Edge 62, Type (0, 0), None
#     Edge 63, Type (0, 0), None
#     Edge 64, Type (0, 0), None
#     Edge 65, Type (0, 0), None
#     Edge 66, Type (0, 0), None
#     Edge 67, Type (0, 0), None
#     Edge 68, Type (0, 0), None
#     Edge 69, Type (0, 0), None
#     Edge 70, Type (0, 0), None
#     Edge 71, Type (0, 0), None
#     Edge 72, Type (0, 0), None
#     Edge 73, Type (0, 0), None
#     Edge 74, Type (0, 0), None
#     Edge 75, Type (0, 0), None
#     Edge 76, Type (0, 0), None
#     Edge 77, Type (0, 0), None
#     Edge 78, Type (0, 0), None
#     Edge 79, Type (0, 0), None
#     Edge 80, Type (0, 0), None
#     Edge 81, Type (0, 0), None
#     Edge 82, Type (0, 0), None
#     Edge 83, Type (0, 0), None
#     Edge 84, Type (0, 0), None
#     Edge 85, Type (0, 0), None
#     Edge 86, Type (0, 0), None
#     Edge 87, Type (0, 0), None
#     Edge 88, Type (0, 0), None
#     Edge 89, Type (0, 0), None
#     Edge 90, Type (0, 0), None
#     Edge 91, Type (0, 0), None
#     Edge 92, Type (0, 0), None
#     Edge 93, Type (0, 0), None
#     Edge 94, Type (0, 0), None
#     Edge 95, Type (0, 0), None
# Relax obj value: 0.181
# Max RMSD: 0.108
# Mean RMSD: 0.108
data_MOF--net-zni--node1-NAHDIM_clean_sbu_0--edge1-none
_symmetry_space_group_name_H-M    P1
_symmetry_Int_Tables_number       1
_symmetry_cell_setting            triclinic
loop_
_symmetry_equiv_pos_as_xyz
'x, y, z'
_cell_length_a     25.579904
_cell_length_b     25.584777
_cell_length_c     13.96287
_cell_angle_alpha  89.999997
_cell_angle_beta   90.000002
_cell_angle_gamma 89.99998
loop_
_atom_site_label
_atom_site_type_symbol
_atom_site_fract_x
_atom_site_fract_y
_atom_site_fract_z
_atom_type_partial_charge
C0 C 0.17241 0.01518 0.29673 0.0
O1 O 0.16232 0.99698 0.38265 0.0
O2 O 0.16548 0.10765 0.51169 0.0
Zn3 Zn 0.13085 0.10655 0.38119 0.0
O4 O 0.05788 0.07724 0.38923 0.0
C5 C 0.1547 0.21669 0.35399 0.0
O6 O 0.19783 0.20564 0.40083 0.0
O7 O 0.16717 0.06374 0.2812 0.0
C8 C 0.02125 0.10475 0.42412 0.0
O9 O 0.03212 0.15051 0.46179 0.0
C10 C 0.1485 0.08101 0.58198 0.0
O11 O 0.11033 0.0475 0.56847 0.0
O12 O 0.12225 0.1806 0.33522 0.0
C13 C 0.22916 0.92237 0.54674 0.0
O14 O 0.24737 0.91227 0.63264 0.0
O15 O 0.13671 0.91544 0.76173 0.0
Zn16 Zn 0.13779 0.8808 0.63123 0.0
O17 O 0.16713 0.80786 0.63927 0.0
C18 C 0.02763 0.90466 0.60404 0.0
O19 O 0.03869 0.9478 0.65081 0.0
O20 O 0.18059 0.91713 0.53123 0.0
C21 C 0.13964 0.77123 0.67419 0.0
O22 O 0.09387 0.78208 0.71191 0.0
C23 C 0.16336 0.89846 0.83202 0.0
O24 O 0.19688 0.8603 0.81851 0.0
O25 O 0.06372 0.8722 0.5853 0.0
C26 C 0.32192 0.97916 0.79673 0.0
O27 O 0.33202 -0.00264 0.88265 0.0
O28 O 0.32885 0.88669 0.01169 0.0
Zn29 Zn 0.36349 0.88779 0.88119 0.0
O30 O 0.43646 0.9171 0.88923 0.0
C31 C 0.33963 0.77765 0.85399 0.0
O32 O 0.2965 0.7887 0.90083 0.0
O33 O 0.32717 0.9306 0.7812 0.0
C34 C 0.47308 0.88959 0.92412 0.0
O35 O 0.46222 0.84383 0.96179 0.0
C36 C 0.34584 0.91333 0.08198 0.0
O37 O 0.38401 0.94685 0.06847 0.0
O38 O 0.37208 0.81374 0.83522 0.0
C39 C 0.26518 0.07197 0.04674 0.0
O40 O 0.24697 0.08208 0.13264 0.0
O41 O 0.35763 0.07891 0.26173 0.0
Zn42 Zn 0.35654 0.11354 0.13123 0.0
O43 O 0.32721 0.18649 0.13927 0.0
C44 C 0.4667 0.08968 0.10404 0.0
O45 O 0.45564 0.04654 0.15081 0.0
O46 O 0.31374 0.07721 0.03123 0.0
C47 C 0.3547 0.22311 0.17419 0.0
O48 O 0.40047 0.21226 0.21191 0.0
C49 C 0.33097 0.09588 0.33202 0.0
O50 O 0.29745 0.13404 0.31851 0.0
O51 O 0.43061 0.12214 0.0853 0.0
C52 C 0.17242 0.97917 0.21507 0.0
O53 O 0.16236 -0.00261 0.12916 0.0
O54 O 0.16547 0.88671 1.00014 0.0
Zn55 Zn 0.13083 0.8878 0.13065 0.0
O56 O 0.05786 0.91711 0.1226 0.0
C57 C 0.1547 0.77766 0.15784 0.0
O58 O 0.19783 0.78872 0.111 0.0
O59 O 0.16715 0.93062 0.23063 0.0
C60 C 0.02124 0.8896 0.0877 0.0
O61 O 0.03211 0.84383 0.05003 0.0
C62 C 0.14848 0.91335 0.92986 0.0
O63 O 0.11031 0.94687 0.94336 0.0
O64 O 0.12225 0.81375 0.17662 0.0
C65 C 0.26517 0.92237 0.46506 0.0
O66 O 0.24694 0.9123 0.37916 0.0
O67 O 0.35762 0.91542 0.2501 0.0
Zn68 Zn 0.35653 0.88079 0.3806 0.0
O69 O 0.3272 0.80784 0.37256 0.0
C70 C 0.46669 0.90465 0.40779 0.0
O71 O 0.45562 0.94779 0.36102 0.0
O72 O 0.31373 0.91711 0.4806 0.0
C73 C 0.3547 0.77122 0.33764 0.0
O74 O 0.40046 0.78208 0.29991 0.0
C75 C 0.33095 0.89845 0.17982 0.0
O76 O 0.29743 0.86029 0.19332 0.0
O77 O 0.4306 0.87219 0.42653 0.0
C78 C 0.32192 0.01517 0.71507 0.0
O79 O 0.33198 0.99696 0.62916 0.0
O80 O 0.32887 0.10764 0.50014 0.0
Zn81 Zn 0.3635 0.10654 0.63065 0.0
O82 O 0.43647 0.07723 0.6226 0.0
C83 C 0.33964 0.21668 0.65784 0.0
O84 O 0.29651 0.20563 0.611 0.0
O85 O 0.32719 0.06372 0.73063 0.0
C86 C 0.47309 0.10474 0.5877 0.0
O87 O 0.46222 0.15051 0.55003 0.0
C88 C 0.34585 0.08099 0.42986 0.0
O89 O 0.38402 0.04747 0.44336 0.0
O90 O 0.37209 0.18059 0.67662 0.0
C91 C 0.22917 0.07197 0.96506 0.0
O92 O 0.2474 0.08204 0.87916 0.0
O93 O 0.13672 0.07892 0.7501 0.0
Zn94 Zn 0.1378 0.11355 0.8806 0.0
O95 O 0.16713 0.1865 0.87256 0.0
C96 C 0.02765 0.08969 0.90779 0.0
O97 O 0.03871 0.04655 0.86102 0.0
O98 O 0.18061 0.07723 0.9806 0.0
C99 C 0.13964 0.22312 0.83764 0.0
O100 O 0.09387 0.21226 0.79991 0.0
C101 C 0.16338 0.09589 0.67982 0.0
O102 O 0.19691 0.13405 0.69332 0.0
O103 O 0.06373 0.12215 0.92653 0.0
C104 C 0.82192 0.97916 0.71509 0.0
O105 O 0.83202 -0.00264 0.62918 0.0
O106 O 0.82885 0.88669 0.50014 0.0
Zn107 Zn 0.86349 0.88779 0.63064 0.0
O108 O 0.93646 0.9171 0.62259 0.0
C109 C 0.83963 0.77765 0.65784 0.0
O110 O 0.7965 0.7887 0.611 0.0
O111 O 0.82717 0.9306 0.73063 0.0
C112 C 0.97308 0.88959 0.5877 0.0
O113 O 0.96222 0.84382 0.55002 0.0
C114 C 0.84584 0.91333 0.42985 0.0
O115 O 0.88401 0.94684 0.44336 0.0
O116 O 0.87208 0.81374 0.67661 0.0
C117 C 0.76518 0.07198 0.46508 0.0
O118 O 0.74696 0.08208 0.37918 0.0
O119 O 0.85763 0.07891 0.25009 0.0
Zn120 Zn 0.85654 0.11354 0.38059 0.0
O121 O 0.82721 0.18649 0.37256 0.0
C122 C 0.9667 0.08968 0.40779 0.0
O123 O 0.95564 0.04654 0.36102 0.0
O124 O 0.81374 0.07722 0.4806 0.0
C125 C 0.8547 0.22311 0.33764 0.0
O126 O 0.90047 0.21226 0.29992 0.0
C127 C 0.83097 0.09588 0.1798 0.0
O128 O 0.79745 0.13404 0.19331 0.0
O129 O 0.93061 0.12214 0.42652 0.0
C130 C 0.67241 0.01518 0.21509 0.0
O131 O 0.66232 0.99698 0.12918 0.0
O132 O 0.66548 0.10765 1.00014 0.0
Zn133 Zn 0.63085 0.10655 0.13064 0.0
O134 O 0.55788 0.07724 0.12259 0.0
C135 C 0.65471 0.21669 0.15784 0.0
O136 O 0.69783 0.20565 0.111 0.0
O137 O 0.66717 0.06374 0.23063 0.0
C138 C 0.52126 0.10475 0.0877 0.0
O139 O 0.53212 0.15052 0.05002 0.0
C140 C 0.6485 0.08101 0.92985 0.0
O141 O 0.61033 0.0475 0.94336 0.0
O142 O 0.62225 0.18061 0.17661 0.0
C143 C 0.72916 0.92237 0.96508 0.0
O144 O 0.74737 0.91226 0.87918 0.0
O145 O 0.63671 0.91544 0.75009 0.0
Zn146 Zn 0.63779 0.8808 0.88059 0.0
O147 O 0.66713 0.80785 0.87256 0.0
C148 C 0.52764 0.90466 0.90779 0.0
O149 O 0.53869 0.94781 0.86102 0.0
O150 O 0.68059 0.91713 0.9806 0.0
C151 C 0.63963 0.77123 0.83764 0.0
O152 O 0.59387 0.78208 0.79992 0.0
C153 C 0.66336 0.89846 0.6798 0.0
O154 O 0.69688 0.8603 0.69331 0.0
O155 O 0.56372 0.8722 0.92652 0.0
C156 C 0.82192 0.01517 0.79676 0.0
O157 O 0.83198 0.99696 0.88267 0.0
O158 O 0.82887 0.10764 0.01168 0.0
Zn159 Zn 0.8635 0.10654 0.88118 0.0
O160 O 0.93647 0.07724 0.88923 0.0
C161 C 0.83963 0.21668 0.85399 0.0
O162 O 0.79651 0.20563 0.90083 0.0
O163 O 0.82719 0.06372 0.7812 0.0
C164 C 0.97309 0.10475 0.92413 0.0
O165 O 0.96223 0.15051 0.96181 0.0
C166 C 0.84585 0.08099 0.08197 0.0
O167 O 0.88402 0.04747 0.06847 0.0
O168 O 0.87209 0.18059 0.83521 0.0
C169 C 0.72917 0.07197 0.54676 0.0
O170 O 0.7474 0.08204 0.63266 0.0
O171 O 0.63672 0.07892 0.76173 0.0
Zn172 Zn 0.6378 0.11355 0.63123 0.0
O173 O 0.66713 0.1865 0.63926 0.0
C174 C 0.52765 0.08968 0.60403 0.0
O175 O 0.53871 0.04654 0.65081 0.0
O176 O 0.68061 0.07724 0.53123 0.0
C177 C 0.63963 0.22312 0.67419 0.0
O178 O 0.59387 0.21227 0.71191 0.0
C179 C 0.66338 0.0959 0.83201 0.0
O180 O 0.69691 0.13405 0.81851 0.0
O181 O 0.56373 0.12215 0.5853 0.0
C182 C 0.67242 0.97917 0.29676 0.0
O183 O 0.66236 -0.00261 0.38267 0.0
O184 O 0.66547 0.88671 0.51168 0.0
Zn185 Zn 0.63083 0.8878 0.38118 0.0
O186 O 0.55786 0.9171 0.38923 0.0
C187 C 0.6547 0.77766 0.35399 0.0
O188 O 0.69783 0.78871 0.40083 0.0
O189 O 0.66715 0.93062 0.2812 0.0
C190 C 0.52124 0.88959 0.42413 0.0
O191 O 0.53211 0.84383 0.46181 0.0
C192 C 0.64848 0.91335 0.58197 0.0
O193 O 0.61031 0.94687 0.56847 0.0
O194 O 0.62225 0.81375 0.33521 0.0
C195 C 0.76517 0.92237 0.04676 0.0
O196 O 0.74694 0.9123 0.13266 0.0
O197 O 0.85761 0.91542 0.26173 0.0
Zn198 Zn 0.85653 0.88079 0.13123 0.0
O199 O 0.8272 0.80784 0.13926 0.0
C200 C 0.96669 0.90466 0.10403 0.0
O201 O 0.95563 0.9478 0.15081 0.0
O202 O 0.81373 0.91711 0.03123 0.0
C203 C 0.8547 0.77122 0.17419 0.0
O204 O 0.90046 0.78208 0.21191 0.0
C205 C 0.83095 0.89845 0.33201 0.0
O206 O 0.79743 0.86029 0.31851 0.0
O207 O 0.9306 0.87219 0.0853 0.0
C208 C 0.67241 0.51518 0.79673 0.0
O209 O 0.66232 0.49698 0.88265 0.0
O210 O 0.66548 0.60765 0.01169 0.0
Zn211 Zn 0.63085 0.60655 0.88119 0.0
O212 O 0.55788 0.57724 0.88923 0.0
C213 C 0.65471 0.71669 0.85399 0.0
O214 O 0.69784 0.70565 0.90083 0.0
O215 O 0.66717 0.56374 0.7812 0.0
C216 C 0.52125 0.60475 0.92412 0.0
O217 O 0.53212 0.65051 0.9618 0.0
C218 C 0.6485 0.58101 0.08198 0.0
O219 O 0.61033 0.5475 0.06847 0.0
O220 O 0.62226 0.6806 0.83522 0.0
C221 C 0.72916 0.42237 0.04674 0.0
O222 O 0.74737 0.41226 0.13264 0.0
O223 O 0.63671 0.41544 0.26173 0.0
Zn224 Zn 0.63779 0.38081 0.13123 0.0
O225 O 0.66712 0.30786 0.13926 0.0
C226 C 0.52763 0.40466 0.10404 0.0
O227 O 0.53869 0.4478 0.15081 0.0
O228 O 0.68059 0.41713 0.03123 0.0
C229 C 0.63963 0.27123 0.17419 0.0
O230 O 0.59387 0.28208 0.21192 0.0
C231 C 0.66336 0.39846 0.33202 0.0
O232 O 0.69688 0.3603 0.31851 0.0
O233 O 0.56372 0.3722 0.0853 0.0
C234 C 0.82192 0.47916 0.29673 0.0
O235 O 0.83202 0.49736 0.38265 0.0
O236 O 0.82885 0.3867 0.51169 0.0
Zn237 Zn 0.86349 0.38779 0.38119 0.0
O238 O 0.93645 0.4171 0.38923 0.0
C239 C 0.83962 0.27765 0.35399 0.0
O240 O 0.79649 0.28869 0.40083 0.0
O241 O 0.82717 0.4306 0.2812 0.0
C242 C 0.97308 0.3896 0.42412 0.0
O243 O 0.96222 0.34383 0.4618 0.0
C244 C 0.84584 0.41334 0.58198 0.0
O245 O 0.88401 0.44685 0.56847 0.0
O246 O 0.87208 0.31374 0.33522 0.0
C247 C 0.76518 0.57198 0.54674 0.0
O248 O 0.74697 0.58208 0.63264 0.0
O249 O 0.85763 0.5789 0.76173 0.0
Zn250 Zn 0.85655 0.61354 0.63123 0.0
O251 O 0.82721 0.68649 0.63926 0.0
C252 C 0.9667 0.58968 0.60404 0.0
O253 O 0.95564 0.54654 0.65081 0.0
O254 O 0.81374 0.57722 0.53123 0.0
C255 C 0.85471 0.72311 0.67419 0.0
O256 O 0.90047 0.71226 0.71192 0.0
C257 C 0.83097 0.59588 0.83202 0.0
O258 O 0.79745 0.63404 0.81851 0.0
O259 O 0.93061 0.62214 0.5853 0.0
C260 C 0.67242 0.47917 0.71507 0.0
O261 O 0.66236 0.49739 0.62916 0.0
O262 O 0.66547 0.38671 0.50014 0.0
Zn263 Zn 0.63084 0.3878 0.63064 0.0
O264 O 0.55786 0.41711 0.6226 0.0
C265 C 0.65471 0.27766 0.65784 0.0
O266 O 0.69783 0.28871 0.611 0.0
O267 O 0.66715 0.43062 0.73063 0.0
C268 C 0.52124 0.3896 0.5877 0.0
O269 O 0.53211 0.34383 0.55002 0.0
C270 C 0.64848 0.41335 0.42986 0.0
O271 O 0.61031 0.44687 0.44335 0.0
O272 O 0.62225 0.31375 0.67661 0.0
C273 C 0.76517 0.42237 0.96506 0.0
O274 O 0.74694 0.4123 0.87916 0.0
O275 O 0.85762 0.41542 0.7501 0.0
Zn276 Zn 0.85654 0.38079 0.8806 0.0
O277 O 0.82721 0.30784 0.87257 0.0
C278 C 0.96669 0.40465 0.90779 0.0
O279 O 0.95563 0.44779 0.86101 0.0
O280 O 0.81373 0.41711 0.9806 0.0
C281 C 0.8547 0.27122 0.83763 0.0
O282 O 0.90047 0.28208 0.7999 0.0
C283 C 0.83095 0.39845 0.67982 0.0
O284 O 0.79743 0.36029 0.69332 0.0
O285 O 0.9306 0.37219 0.92653 0.0
C286 C 0.82191 0.51517 0.21507 0.0
O287 O 0.83198 0.49695 0.12916 0.0
O288 O 0.82887 0.60763 1.00014 0.0
Zn289 Zn 0.8635 0.60654 0.13064 0.0
O290 O 0.93647 0.57723 0.1226 0.0
C291 C 0.83963 0.71668 0.15784 0.0
O292 O 0.7965 0.70563 0.111 0.0
O293 O 0.82719 0.56372 0.23063 0.0
C294 C 0.97309 0.60474 0.0877 0.0
O295 O 0.96222 0.65051 0.05002 0.0
C296 C 0.84585 0.58099 0.92986 0.0
O297 O 0.88402 0.54747 0.94335 0.0
O298 O 0.87209 0.68059 0.17661 0.0
C299 C 0.72917 0.57197 0.46506 0.0
O300 O 0.7474 0.58204 0.37916 0.0
O301 O 0.63672 0.57892 0.2501 0.0
Zn302 Zn 0.6378 0.61355 0.3806 0.0
O303 O 0.66713 0.6865 0.37257 0.0
C304 C 0.52765 0.58969 0.40779 0.0
O305 O 0.53871 0.54655 0.36101 0.0
O306 O 0.68061 0.57723 0.4806 0.0
C307 C 0.63963 0.72312 0.33763 0.0
O308 O 0.59387 0.71227 0.2999 0.0
C309 C 0.66338 0.59589 0.17982 0.0
O310 O 0.69691 0.63405 0.19332 0.0
O311 O 0.56373 0.62215 0.42653 0.0
C312 C 0.32192 0.47916 0.21509 0.0
O313 O 0.33202 0.49736 0.12918 0.0
O314 O 0.32885 0.38669 1.00014 0.0
Zn315 Zn 0.36348 0.38779 0.13064 0.0
O316 O 0.43645 0.4171 0.12259 0.0
C317 C 0.33962 0.27765 0.15783 0.0
O318 O 0.29649 0.28869 0.111 0.0
O319 O 0.32717 0.4306 0.23062 0.0
C320 C 0.47308 0.38959 0.0877 0.0
O321 O 0.46222 0.34382 0.05002 0.0
C322 C 0.34584 0.41333 0.92984 0.0
O323 O 0.38401 0.44685 0.94336 0.0
O324 O 0.37208 0.31374 0.17661 0.0
C325 C 0.26518 0.57198 0.96509 0.0
O326 O 0.24697 0.58208 0.87918 0.0
O327 O 0.35763 0.5789 0.75009 0.0
Zn328 Zn 0.35655 0.61354 0.88059 0.0
O329 O 0.32721 0.68649 0.87256 0.0
C330 C 0.4667 0.58968 0.90779 0.0
O331 O 0.45565 0.54654 0.86102 0.0
O332 O 0.31374 0.57722 0.9806 0.0
C333 C 0.35471 0.72311 0.83764 0.0
O334 O 0.40047 0.71226 0.79991 0.0
C335 C 0.33097 0.59588 0.67981 0.0
O336 O 0.29745 0.63404 0.69332 0.0
O337 O 0.43062 0.62214 0.92652 0.0
C338 C 0.17241 0.51518 0.71509 0.0
O339 O 0.16232 0.49698 0.62918 0.0
O340 O 0.16548 0.60765 0.50014 0.0
Zn341 Zn 0.13085 0.60655 0.63064 0.0
O342 O 0.05788 0.57724 0.62259 0.0
C343 C 0.15471 0.71669 0.65783 0.0
O344 O 0.19784 0.70565 0.611 0.0
O345 O 0.16717 0.56374 0.73063 0.0
C346 C 0.02126 0.60475 0.5877 0.0
O347 O 0.03212 0.65052 0.55002 0.0
C348 C 0.1485 0.58101 0.42984 0.0
O349 O 0.11033 0.5475 0.44336 0.0
O350 O 0.12226 0.68061 0.67661 0.0
C351 C 0.22916 0.42236 0.46509 0.0
O352 O 0.24737 0.41226 0.37918 0.0
O353 O 0.13671 0.41544 0.25009 0.0
Zn354 Zn 0.13779 0.3808 0.38059 0.0
O355 O 0.16712 0.30785 0.37256 0.0
C356 C 0.02763 0.40466 0.40779 0.0
O357 O 0.03869 0.44781 0.36102 0.0
O358 O 0.18059 0.41713 0.4806 0.0
C359 C 0.13963 0.27123 0.33764 0.0
O360 O 0.09386 0.28208 0.29991 0.0
C361 C 0.16336 0.39846 0.17981 0.0
O362 O 0.19688 0.3603 0.19332 0.0
O363 O 0.06372 0.3722 0.42652 0.0
C364 C 0.32191 0.51517 0.29676 0.0
O365 O 0.33198 0.49695 0.38267 0.0
O366 O 0.32887 0.60763 0.51169 0.0
Zn367 Zn 0.3635 0.60654 0.38118 0.0
O368 O 0.43647 0.57724 0.38923 0.0
C369 C 0.33963 0.71668 0.35399 0.0
O370 O 0.2965 0.70563 0.40083 0.0
O371 O 0.32719 0.56372 0.2812 0.0
C372 C 0.47309 0.60475 0.42413 0.0
O373 O 0.46223 0.65051 0.46181 0.0
C374 C 0.34585 0.58099 0.58197 0.0
O375 O 0.38402 0.54747 0.56847 0.0
O376 O 0.37208 0.68059 0.33521 0.0
C377 C 0.22917 0.57197 0.04676 0.0
O378 O 0.2474 0.58204 0.13266 0.0
O379 O 0.13672 0.57892 0.26173 0.0
Zn380 Zn 0.1378 0.61355 0.13123 0.0
O381 O 0.16713 0.6865 0.13926 0.0
C382 C 0.02765 0.58968 0.10403 0.0
O383 O 0.03871 0.54654 0.15081 0.0
O384 O 0.18061 0.57724 0.03122 0.0
C385 C 0.13963 0.72312 0.17419 0.0
O386 O 0.09387 0.71227 0.21192 0.0
C387 C 0.16338 0.59589 0.33201 0.0
O388 O 0.19691 0.63405 0.31851 0.0
O389 O 0.06373 0.62215 0.0853 0.0
C390 C 0.17242 0.47917 0.79676 0.0
O391 O 0.16236 0.49739 0.88267 0.0
O392 O 0.16547 0.38671 0.01169 0.0
Zn393 Zn 0.13084 0.3878 0.88118 0.0
O394 O 0.05787 0.4171 0.88923 0.0
C395 C 0.15471 0.27766 0.85399 0.0
O396 O 0.19784 0.28871 0.90083 0.0
O397 O 0.16715 0.43062 0.7812 0.0
C398 C 0.02124 0.38959 0.92413 0.0
O399 O 0.03211 0.34383 0.96181 0.0
C400 C 0.14848 0.41335 0.08197 0.0
O401 O 0.11031 0.44687 0.06847 0.0
O402 O 0.12225 0.31375 0.83521 0.0
C403 C 0.26517 0.42237 0.54676 0.0
O404 O 0.24694 0.4123 0.63266 0.0
O405 O 0.35762 0.41542 0.76173 0.0
Zn406 Zn 0.35654 0.38079 0.63123 0.0
O407 O 0.32721 0.30784 0.63926 0.0
C408 C 0.46669 0.40466 0.60403 0.0
O409 O 0.45563 0.4478 0.65081 0.0
O410 O 0.31373 0.41711 0.53122 0.0
C411 C 0.35471 0.27122 0.67419 0.0
O412 O 0.40047 0.28207 0.71192 0.0
C413 C 0.33095 0.39845 0.83201 0.0
O414 O 0.29743 0.36029 0.81851 0.0
O415 O 0.4306 0.37219 0.5853 0.0
loop_
_geom_bond_atom_site_label_1
_geom_bond_atom_site_label_2
_geom_bond_distance
_geom_bond_site_symmetry_2
_ccdc_geom_bond_type
C0 O1 1.160 1_545 S
C0 O7 1.185 . S
O1 C0 1.160 1_565 S
O2 Zn3 1.899 . S
O2 C10 1.284 . S
Zn3 O2 1.899 . S
Zn3 O4 2.032 . S
Zn3 O7 2.086 . S
Zn3 O12 1.977 . S
O4 Zn3 2.032 . S
O4 C8 1.278 . S
C5 O6 1.203 . S
C5 O12 1.267 . S
O6 C5 1.203 . S
O7 C0 1.185 . S
O7 Zn3 2.086 . S
C8 O4 1.278 . S
C8 O9 1.211 . S
O9 C8 1.211 . S
C10 O2 1.284 . S
C10 O11 1.273 . S
O11 C10 1.273 . S
O12 Zn3 1.977 . S
O12 C5 1.267 . S
C13 O14 1.160 . S
C13 O20 1.185 . S
O14 C13 1.160 . S
O15 Zn16 1.899 . S
O15 C23 1.284 . S
Zn16 O15 1.899 . S
Zn16 O17 2.032 . S
Zn16 O20 2.086 . S
Zn16 O25 1.977 . S
O17 Zn16 2.032 . S
O17 C21 1.278 . S
C18 O19 1.203 . S
C18 O25 1.267 . S
O19 C18 1.203 . S
O20 C13 1.185 . S
O20 Zn16 2.086 . S
C21 O17 1.278 . S
C21 O22 1.211 . S
O22 C21 1.211 . S
C23 O15 1.284 . S
C23 O24 1.273 . S
O24 C23 1.273 . S
O25 Zn16 1.977 . S
O25 C18 1.267 . S
C26 O27 1.160 1_565 S
C26 O33 1.185 . S
O27 C26 1.160 1_545 S
O28 Zn29 1.899 1_554 S
O28 C36 1.284 . S
Zn29 O28 1.899 1_556 S
Zn29 O30 2.032 . S
Zn29 O33 2.086 . S
Zn29 O38 1.977 . S
O30 Zn29 2.032 . S
O30 C34 1.278 . S
C31 O32 1.203 . S
C31 O38 1.267 . S
O32 C31 1.203 . S
O33 C26 1.185 . S
O33 Zn29 2.086 . S
C34 O30 1.278 . S
C34 O35 1.211 . S
O35 C34 1.211 . S
C36 O28 1.284 . S
C36 O37 1.273 . S
O37 C36 1.273 . S
O38 Zn29 1.977 . S
O38 C31 1.267 . S
C39 O40 1.160 . S
C39 O46 1.185 . S
O40 C39 1.160 . S
O41 Zn42 1.899 . S
O41 C49 1.284 . S
Zn42 O41 1.899 . S
Zn42 O43 2.032 . S
Zn42 O46 2.086 . S
Zn42 O51 1.977 . S
O43 Zn42 2.032 . S
O43 C47 1.278 . S
C44 O45 1.203 . S
C44 O51 1.267 . S
O45 C44 1.203 . S
O46 C39 1.185 . S
O46 Zn42 2.086 . S
C47 O43 1.278 . S
C47 O48 1.211 . S
O48 C47 1.211 . S
C49 O41 1.284 . S
C49 O50 1.273 . S
O50 C49 1.273 . S
O51 Zn42 1.977 . S
O51 C44 1.267 . S
C52 O53 1.160 1_565 S
C52 O59 1.185 . S
O53 C52 1.160 1_545 S
O54 Zn55 1.899 1_556 S
O54 C62 1.284 . S
Zn55 O54 1.899 1_554 S
Zn55 O56 2.032 . S
Zn55 O59 2.086 . S
Zn55 O64 1.977 . S
O56 Zn55 2.032 . S
O56 C60 1.278 . S
C57 O58 1.203 . S
C57 O64 1.267 . S
O58 C57 1.203 . S
O59 C52 1.185 . S
O59 Zn55 2.086 . S
C60 O56 1.278 . S
C60 O61 1.211 . S
O61 C60 1.211 . S
C62 O54 1.284 . S
C62 O63 1.273 . S
O63 C62 1.273 . S
O64 Zn55 1.977 . S
O64 C57 1.267 . S
C65 O66 1.160 . S
C65 O72 1.185 . S
O66 C65 1.160 . S
O67 Zn68 1.899 . S
O67 C75 1.284 . S
Zn68 O67 1.899 . S
Zn68 O69 2.032 . S
Zn68 O72 2.086 . S
Zn68 O77 1.977 . S
O69 Zn68 2.032 . S
O69 C73 1.278 . S
C70 O71 1.203 . S
C70 O77 1.267 . S
O71 C70 1.203 . S
O72 C65 1.185 . S
O72 Zn68 2.086 . S
C73 O69 1.278 . S
C73 O74 1.211 . S
O74 C73 1.211 . S
C75 O67 1.284 . S
C75 O76 1.273 . S
O76 C75 1.273 . S
O77 Zn68 1.977 . S
O77 C70 1.267 . S
C78 O79 1.160 1_545 S
C78 O85 1.185 . S
O79 C78 1.160 1_565 S
O80 Zn81 1.899 . S
O80 C88 1.284 . S
Zn81 O80 1.899 . S
Zn81 O82 2.032 . S
Zn81 O85 2.086 . S
Zn81 O90 1.977 . S
O82 Zn81 2.032 . S
O82 C86 1.278 . S
C83 O84 1.203 . S
C83 O90 1.267 . S
O84 C83 1.203 . S
O85 C78 1.185 . S
O85 Zn81 2.086 . S
C86 O82 1.278 . S
C86 O87 1.211 . S
O87 C86 1.211 . S
C88 O80 1.284 . S
C88 O89 1.273 . S
O89 C88 1.273 . S
O90 Zn81 1.977 . S
O90 C83 1.267 . S
C91 O92 1.160 . S
C91 O98 1.185 . S
O92 C91 1.160 . S
O93 Zn94 1.899 . S
O93 C101 1.284 . S
Zn94 O93 1.899 . S
Zn94 O95 2.032 . S
Zn94 O98 2.086 . S
Zn94 O103 1.977 . S
O95 Zn94 2.032 . S
O95 C99 1.278 . S
C96 O97 1.203 . S
C96 O103 1.267 . S
O97 C96 1.203 . S
O98 C91 1.185 . S
O98 Zn94 2.086 . S
C99 O95 1.278 . S
C99 O100 1.211 . S
O100 C99 1.211 . S
C101 O93 1.284 . S
C101 O102 1.273 . S
O102 C101 1.273 . S
O103 Zn94 1.977 . S
O103 C96 1.267 . S
C104 O105 1.160 1_565 S
C104 O111 1.185 . S
O105 C104 1.160 1_545 S
O106 Zn107 1.899 . S
O106 C114 1.284 . S
Zn107 O106 1.899 . S
Zn107 O108 2.032 . S
Zn107 O111 2.086 . S
Zn107 O116 1.977 . S
O108 Zn107 2.032 . S
O108 C112 1.278 . S
C109 O110 1.203 . S
C109 O116 1.267 . S
O110 C109 1.203 . S
O111 C104 1.185 . S
O111 Zn107 2.086 . S
C112 O108 1.278 . S
C112 O113 1.211 . S
O113 C112 1.211 . S
C114 O106 1.284 . S
C114 O115 1.273 . S
O115 C114 1.273 . S
O116 Zn107 1.977 . S
O116 C109 1.267 . S
C117 O118 1.160 . S
C117 O124 1.185 . S
O118 C117 1.160 . S
O119 Zn120 1.899 . S
O119 C127 1.284 . S
Zn120 O119 1.899 . S
Zn120 O121 2.032 . S
Zn120 O124 2.086 . S
Zn120 O129 1.977 . S
O121 Zn120 2.032 . S
O121 C125 1.278 . S
C122 O123 1.203 . S
C122 O129 1.267 . S
O123 C122 1.203 . S
O124 C117 1.185 . S
O124 Zn120 2.086 . S
C125 O121 1.278 . S
C125 O126 1.211 . S
O126 C125 1.211 . S
C127 O119 1.284 . S
C127 O128 1.273 . S
O128 C127 1.273 . S
O129 Zn120 1.977 . S
O129 C122 1.267 . S
C130 O131 1.160 1_545 S
C130 O137 1.185 . S
O131 C130 1.160 1_565 S
O132 Zn133 1.899 1_556 S
O132 C140 1.284 . S
Zn133 O132 1.899 1_554 S
Zn133 O134 2.032 . S
Zn133 O137 2.086 . S
Zn133 O142 1.977 . S
O134 Zn133 2.032 . S
O134 C138 1.278 . S
C135 O136 1.203 . S
C135 O142 1.267 . S
O136 C135 1.203 . S
O137 C130 1.185 . S
O137 Zn133 2.086 . S
C138 O134 1.278 . S
C138 O139 1.211 . S
O139 C138 1.211 . S
C140 O132 1.284 . S
C140 O141 1.273 . S
O141 C140 1.273 . S
O142 Zn133 1.977 . S
O142 C135 1.267 . S
C143 O144 1.160 . S
C143 O150 1.185 . S
O144 C143 1.160 . S
O145 Zn146 1.899 . S
O145 C153 1.284 . S
Zn146 O145 1.899 . S
Zn146 O147 2.032 . S
Zn146 O150 2.086 . S
Zn146 O155 1.977 . S
O147 Zn146 2.032 . S
O147 C151 1.278 . S
C148 O149 1.203 . S
C148 O155 1.267 . S
O149 C148 1.203 . S
O150 C143 1.185 . S
O150 Zn146 2.086 . S
C151 O147 1.278 . S
C151 O152 1.211 . S
O152 C151 1.211 . S
C153 O145 1.284 . S
C153 O154 1.273 . S
O154 C153 1.273 . S
O155 Zn146 1.977 . S
O155 C148 1.267 . S
C156 O157 1.160 1_545 S
C156 O163 1.185 . S
O157 C156 1.160 1_565 S
O158 Zn159 1.899 1_554 S
O158 C166 1.284 . S
Zn159 O158 1.899 1_556 S
Zn159 O160 2.032 . S
Zn159 O163 2.086 . S
Zn159 O168 1.977 . S
O160 Zn159 2.032 . S
O160 C164 1.278 . S
C161 O162 1.203 . S
C161 O168 1.267 . S
O162 C161 1.203 . S
O163 C156 1.185 . S
O163 Zn159 2.086 . S
C164 O160 1.278 . S
C164 O165 1.211 . S
O165 C164 1.211 . S
C166 O158 1.284 . S
C166 O167 1.273 . S
O167 C166 1.273 . S
O168 Zn159 1.977 . S
O168 C161 1.267 . S
C169 O170 1.160 . S
C169 O176 1.185 . S
O170 C169 1.160 . S
O171 Zn172 1.899 . S
O171 C179 1.284 . S
Zn172 O171 1.899 . S
Zn172 O173 2.032 . S
Zn172 O176 2.086 . S
Zn172 O181 1.977 . S
O173 Zn172 2.032 . S
O173 C177 1.278 . S
C174 O175 1.203 . S
C174 O181 1.267 . S
O175 C174 1.203 . S
O176 C169 1.185 . S
O176 Zn172 2.086 . S
C177 O173 1.278 . S
C177 O178 1.211 . S
O178 C177 1.211 . S
C179 O171 1.284 . S
C179 O180 1.273 . S
O180 C179 1.273 . S
O181 Zn172 1.977 . S
O181 C174 1.267 . S
C182 O183 1.160 1_565 S
C182 O189 1.185 . S
O183 C182 1.160 1_545 S
O184 Zn185 1.899 . S
O184 C192 1.284 . S
Zn185 O184 1.899 . S
Zn185 O186 2.032 . S
Zn185 O189 2.086 . S
Zn185 O194 1.977 . S
O186 Zn185 2.032 . S
O186 C190 1.278 . S
C187 O188 1.203 . S
C187 O194 1.267 . S
O188 C187 1.203 . S
O189 C182 1.185 . S
O189 Zn185 2.086 . S
C190 O186 1.278 . S
C190 O191 1.211 . S
O191 C190 1.211 . S
C192 O184 1.284 . S
C192 O193 1.273 . S
O193 C192 1.273 . S
O194 Zn185 1.977 . S
O194 C187 1.267 . S
C195 O196 1.160 . S
C195 O202 1.185 . S
O196 C195 1.160 . S
O197 Zn198 1.899 . S
O197 C205 1.284 . S
Zn198 O197 1.899 . S
Zn198 O199 2.032 . S
Zn198 O202 2.086 . S
Zn198 O207 1.977 . S
O199 Zn198 2.032 . S
O199 C203 1.278 . S
C200 O201 1.203 . S
C200 O207 1.267 . S
O201 C200 1.203 . S
O202 C195 1.185 . S
O202 Zn198 2.086 . S
C203 O199 1.278 . S
C203 O204 1.211 . S
O204 C203 1.211 . S
C205 O197 1.284 . S
C205 O206 1.273 . S
O206 C205 1.273 . S
O207 Zn198 1.977 . S
O207 C200 1.267 . S
C208 O209 1.160 . S
C208 O215 1.185 . S
O209 C208 1.160 . S
O210 Zn211 1.899 1_554 S
O210 C218 1.284 . S
Zn211 O210 1.899 1_556 S
Zn211 O212 2.032 . S
Zn211 O215 2.086 . S
Zn211 O220 1.977 . S
O212 Zn211 2.032 . S
O212 C216 1.278 . S
C213 O214 1.203 . S
C213 O220 1.267 . S
O214 C213 1.203 . S
O215 C208 1.185 . S
O215 Zn211 2.086 . S
C216 O212 1.278 . S
C216 O217 1.211 . S
O217 C216 1.211 . S
C218 O210 1.284 . S
C218 O219 1.273 . S
O219 C218 1.273 . S
O220 Zn211 1.977 . S
O220 C213 1.267 . S
C221 O222 1.160 . S
C221 O228 1.185 . S
O222 C221 1.160 . S
O223 Zn224 1.899 . S
O223 C231 1.284 . S
Zn224 O223 1.899 . S
Zn224 O225 2.032 . S
Zn224 O228 2.086 . S
Zn224 O233 1.977 . S
O225 Zn224 2.032 . S
O225 C229 1.278 . S
C226 O227 1.203 . S
C226 O233 1.267 . S
O227 C226 1.203 . S
O228 C221 1.185 . S
O228 Zn224 2.086 . S
C229 O225 1.278 . S
C229 O230 1.211 . S
O230 C229 1.211 . S
C231 O223 1.284 . S
C231 O232 1.273 . S
O232 C231 1.273 . S
O233 Zn224 1.977 . S
O233 C226 1.267 . S
C234 O235 1.160 . S
C234 O241 1.185 . S
O235 C234 1.160 . S
O236 Zn237 1.899 . S
O236 C244 1.284 . S
Zn237 O236 1.899 . S
Zn237 O238 2.032 . S
Zn237 O241 2.086 . S
Zn237 O246 1.977 . S
O238 Zn237 2.032 . S
O238 C242 1.278 . S
C239 O240 1.203 . S
C239 O246 1.267 . S
O240 C239 1.203 . S
O241 C234 1.185 . S
O241 Zn237 2.086 . S
C242 O238 1.278 . S
C242 O243 1.211 . S
O243 C242 1.211 . S
C244 O236 1.284 . S
C244 O245 1.273 . S
O245 C244 1.273 . S
O246 Zn237 1.977 . S
O246 C239 1.267 . S
C247 O248 1.160 . S
C247 O254 1.185 . S
O248 C247 1.160 . S
O249 Zn250 1.899 . S
O249 C257 1.284 . S
Zn250 O249 1.899 . S
Zn250 O251 2.032 . S
Zn250 O254 2.086 . S
Zn250 O259 1.977 . S
O251 Zn250 2.032 . S
O251 C255 1.278 . S
C252 O253 1.203 . S
C252 O259 1.267 . S
O253 C252 1.203 . S
O254 C247 1.185 . S
O254 Zn250 2.086 . S
C255 O251 1.278 . S
C255 O256 1.211 . S
O256 C255 1.211 . S
C257 O249 1.284 . S
C257 O258 1.273 . S
O258 C257 1.273 . S
O259 Zn250 1.977 . S
O259 C252 1.267 . S
C260 O261 1.160 . S
C260 O267 1.185 . S
O261 C260 1.160 . S
O262 Zn263 1.899 . S
O262 C270 1.284 . S
Zn263 O262 1.899 . S
Zn263 O264 2.032 . S
Zn263 O267 2.086 . S
Zn263 O272 1.977 . S
O264 Zn263 2.032 . S
O264 C268 1.278 . S
C265 O266 1.203 . S
C265 O272 1.267 . S
O266 C265 1.203 . S
O267 C260 1.185 . S
O267 Zn263 2.086 . S
C268 O264 1.278 . S
C268 O269 1.211 . S
O269 C268 1.211 . S
C270 O262 1.284 . S
C270 O271 1.273 . S
O271 C270 1.273 . S
O272 Zn263 1.977 . S
O272 C265 1.267 . S
C273 O274 1.160 . S
C273 O280 1.185 . S
O274 C273 1.160 . S
O275 Zn276 1.899 . S
O275 C283 1.284 . S
Zn276 O275 1.899 . S
Zn276 O277 2.032 . S
Zn276 O280 2.086 . S
Zn276 O285 1.977 . S
O277 Zn276 2.032 . S
O277 C281 1.278 . S
C278 O279 1.203 . S
C278 O285 1.267 . S
O279 C278 1.203 . S
O280 C273 1.185 . S
O280 Zn276 2.086 . S
C281 O277 1.278 . S
C281 O282 1.211 . S
O282 C281 1.211 . S
C283 O275 1.284 . S
C283 O284 1.273 . S
O284 C283 1.273 . S
O285 Zn276 1.977 . S
O285 C278 1.267 . S
C286 O287 1.160 . S
C286 O293 1.185 . S
O287 C286 1.160 . S
O288 Zn289 1.899 1_556 S
O288 C296 1.284 . S
Zn289 O288 1.899 1_554 S
Zn289 O290 2.032 . S
Zn289 O293 2.086 . S
Zn289 O298 1.977 . S
O290 Zn289 2.032 . S
O290 C294 1.278 . S
C291 O292 1.203 . S
C291 O298 1.267 . S
O292 C291 1.203 . S
O293 C286 1.185 . S
O293 Zn289 2.086 . S
C294 O290 1.278 . S
C294 O295 1.211 . S
O295 C294 1.211 . S
C296 O288 1.284 . S
C296 O297 1.273 . S
O297 C296 1.273 . S
O298 Zn289 1.977 . S
O298 C291 1.267 . S
C299 O300 1.160 . S
C299 O306 1.185 . S
O300 C299 1.160 . S
O301 Zn302 1.899 . S
O301 C309 1.284 . S
Zn302 O301 1.899 . S
Zn302 O303 2.032 . S
Zn302 O306 2.086 . S
Zn302 O311 1.977 . S
O303 Zn302 2.032 . S
O303 C307 1.278 . S
C304 O305 1.203 . S
C304 O311 1.267 . S
O305 C304 1.203 . S
O306 C299 1.185 . S
O306 Zn302 2.086 . S
C307 O303 1.278 . S
C307 O308 1.211 . S
O308 C307 1.211 . S
C309 O301 1.284 . S
C309 O310 1.273 . S
O310 C309 1.273 . S
O311 Zn302 1.977 . S
O311 C304 1.267 . S
C312 O313 1.160 . S
C312 O319 1.185 . S
O313 C312 1.160 . S
O314 Zn315 1.899 1_556 S
O314 C322 1.284 . S
Zn315 O314 1.899 1_554 S
Zn315 O316 2.032 . S
Zn315 O319 2.086 . S
Zn315 O324 1.977 . S
O316 Zn315 2.032 . S
O316 C320 1.278 . S
C317 O318 1.203 . S
C317 O324 1.267 . S
O318 C317 1.203 . S
O319 C312 1.185 . S
O319 Zn315 2.086 . S
C320 O316 1.278 . S
C320 O321 1.211 . S
O321 C320 1.211 . S
C322 O314 1.284 . S
C322 O323 1.273 . S
O323 C322 1.273 . S
O324 Zn315 1.977 . S
O324 C317 1.267 . S
C325 O326 1.160 . S
C325 O332 1.185 . S
O326 C325 1.160 . S
O327 Zn328 1.899 . S
O327 C335 1.284 . S
Zn328 O327 1.899 . S
Zn328 O329 2.032 . S
Zn328 O332 2.086 . S
Zn328 O337 1.977 . S
O329 Zn328 2.032 . S
O329 C333 1.278 . S
C330 O331 1.203 . S
C330 O337 1.267 . S
O331 C330 1.203 . S
O332 C325 1.185 . S
O332 Zn328 2.086 . S
C333 O329 1.278 . S
C333 O334 1.211 . S
O334 C333 1.211 . S
C335 O327 1.284 . S
C335 O336 1.273 . S
O336 C335 1.273 . S
O337 Zn328 1.977 . S
O337 C330 1.267 . S
C338 O339 1.160 . S
C338 O345 1.185 . S
O339 C338 1.160 . S
O340 Zn341 1.899 . S
O340 C348 1.284 . S
Zn341 O340 1.899 . S
Zn341 O342 2.032 . S
Zn341 O345 2.086 . S
Zn341 O350 1.977 . S
O342 Zn341 2.032 . S
O342 C346 1.278 . S
C343 O344 1.203 . S
C343 O350 1.267 . S
O344 C343 1.203 . S
O345 C338 1.185 . S
O345 Zn341 2.086 . S
C346 O342 1.278 . S
C346 O347 1.211 . S
O347 C346 1.211 . S
C348 O340 1.284 . S
C348 O349 1.273 . S
O349 C348 1.273 . S
O350 Zn341 1.977 . S
O350 C343 1.267 . S
C351 O352 1.160 . S
C351 O358 1.185 . S
O352 C351 1.160 . S
O353 Zn354 1.899 . S
O353 C361 1.284 . S
Zn354 O353 1.899 . S
Zn354 O355 2.032 . S
Zn354 O358 2.086 . S
Zn354 O363 1.977 . S
O355 Zn354 2.032 . S
O355 C359 1.278 . S
C356 O357 1.203 . S
C356 O363 1.267 . S
O357 C356 1.203 . S
O358 C351 1.185 . S
O358 Zn354 2.086 . S
C359 O355 1.278 . S
C359 O360 1.211 . S
O360 C359 1.211 . S
C361 O353 1.284 . S
C361 O362 1.273 . S
O362 C361 1.273 . S
O363 Zn354 1.977 . S
O363 C356 1.267 . S
C364 O365 1.160 . S
C364 O371 1.185 . S
O365 C364 1.160 . S
O366 Zn367 1.899 . S
O366 C374 1.284 . S
Zn367 O366 1.899 . S
Zn367 O368 2.032 . S
Zn367 O371 2.086 . S
Zn367 O376 1.977 . S
O368 Zn367 2.032 . S
O368 C372 1.278 . S
C369 O370 1.203 . S
C369 O376 1.267 . S
O370 C369 1.203 . S
O371 C364 1.185 . S
O371 Zn367 2.086 . S
C372 O368 1.278 . S
C372 O373 1.211 . S
O373 C372 1.211 . S
C374 O366 1.284 . S
C374 O375 1.273 . S
O375 C374 1.273 . S
O376 Zn367 1.977 . S
O376 C369 1.267 . S
C377 O378 1.160 . S
C377 O384 1.185 . S
O378 C377 1.160 . S
O379 Zn380 1.899 . S
O379 C387 1.284 . S
Zn380 O379 1.899 . S
Zn380 O381 2.032 . S
Zn380 O384 2.086 . S
Zn380 O389 1.977 . S
O381 Zn380 2.032 . S
O381 C385 1.278 . S
C382 O383 1.203 . S
C382 O389 1.267 . S
O383 C382 1.203 . S
O384 C377 1.185 . S
O384 Zn380 2.086 . S
C385 O381 1.278 . S
C385 O386 1.211 . S
O386 C385 1.211 . S
C387 O379 1.284 . S
C387 O388 1.273 . S
O388 C387 1.273 . S
O389 Zn380 1.977 . S
O389 C382 1.267 . S
C390 O391 1.160 . S
C390 O397 1.185 . S
O391 C390 1.160 . S
O392 Zn393 1.899 1_554 S
O392 C400 1.284 . S
Zn393 O392 1.899 1_556 S
Zn393 O394 2.032 . S
Zn393 O397 2.086 . S
Zn393 O402 1.977 . S
O394 Zn393 2.032 . S
O394 C398 1.278 . S
C395 O396 1.203 . S
C395 O402 1.267 . S
O396 C395 1.203 . S
O397 C390 1.185 . S
O397 Zn393 2.086 . S
C398 O394 1.278 . S
C398 O399 1.211 . S
O399 C398 1.211 . S
C400 O392 1.284 . S
C400 O401 1.273 . S
O401 C400 1.273 . S
O402 Zn393 1.977 . S
O402 C395 1.267 . S
C403 O404 1.160 . S
C403 O410 1.185 . S
O404 C403 1.160 . S
O405 Zn406 1.899 . S
O405 C413 1.284 . S
Zn406 O405 1.899 . S
Zn406 O407 2.032 . S
Zn406 O410 2.086 . S
Zn406 O415 1.977 . S
O407 Zn406 2.032 . S
O407 C411 1.278 . S
C408 O409 1.203 . S
C408 O415 1.267 . S
O409 C408 1.203 . S
O410 C403 1.185 . S
O410 Zn406 2.086 . S
C411 O407 1.278 . S
C411 O412 1.211 . S
O412 C411 1.211 . S
C413 O405 1.284 . S
C413 O414 1.273 . S
O414 C413 1.273 . S
O415 Zn406 1.977 . S
O415 C408 1.267 . S
C0 C52 1.651 1_545 S
C13 C65 1.651 . S
C78 C26 1.651 1_545 S
C91 C39 1.651 1_556 S
C104 C156 1.651 1_565 S
C117 C169 1.651 . S
C182 C130 1.651 1_565 S
C143 C195 1.651 1_556 S
C260 C208 1.651 . S
C273 C221 1.651 1_556 S
C234 C286 1.651 . S
C299 C247 1.651 . S
C312 C364 1.651 . S
C377 C325 1.651 1_554 S
C390 C338 1.651 . S
C351 C403 1.651 . S
C5 C359 1.572 . S
C112 C18 1.572 1_655 S
C31 C333 1.572 . S
C44 C138 1.572 . S
C385 C57 1.572 . S
C190 C70 1.572 . S
C83 C411 1.572 . S
C96 C164 1.572 1_455 S
C255 C109 1.572 . S
C122 C8 1.572 1_655 S
C229 C135 1.572 . S
C148 C34 1.572 . S
C281 C161 1.572 . S
C174 C86 1.572 . S
C307 C187 1.572 . S
C200 C60 1.572 1_655 S
C151 C213 1.572 . S
C320 C226 1.572 . S
C125 C239 1.572 . S
C252 C346 1.572 1_655 S
C177 C265 1.572 . S
C398 C278 1.572 1_455 S
C203 C291 1.572 . S
C304 C372 1.572 . S
C317 C47 1.572 . S
C330 C216 1.572 . S
C343 C21 1.572 . S
C356 C242 1.572 1_455 S
C369 C73 1.572 . S
C294 C382 1.572 1_655 S
C99 C395 1.572 . S
C408 C268 1.572 . S
C10 C101 1.212 . S
C23 C62 1.212 . S
C36 C75 1.212 . S
C88 C49 1.212 . S
C205 C114 1.212 . S
C166 C127 1.212 . S
C179 C140 1.212 . S
C192 C153 1.212 . S
C218 C309 1.212 . S
C270 C231 1.212 . S
C283 C244 1.211 . S
C296 C257 1.211 . S
C413 C322 1.212 . S
C335 C374 1.212 . S
C348 C387 1.211 . S
C361 C400 1.211 . S
