# Generated by pormake.
# Topology sxb, (6)-cn, num edge types: 1
# Building blocks:
#     Node 0, Type 0, BuildingBlock: BETDAH_clean_sbu_0, # of connection points: 6
#     Node 1, Type 0, BuildingBlock: BETDAH_clean_sbu_0, # of connection points: 6
#     Node 2, Type 0, BuildingBlock: BETDAH_clean_sbu_0, # of connection points: 6
#     Node 3, Type 0, BuildingBlock: BETDAH_clean_sbu_0, # of connection points: 6
#     Edge 4, Type (0, 0), BuildingBlock: XUDNAN_clean_linker_2, # of connection points: 2
#     Edge 5, Type (0, 0), BuildingBlock: XUDNAN_clean_linker_2, # of connection points: 2
#     Edge 6, Type (0, 0), BuildingBlock: XUDNAN_clean_linker_2, # of connection points: 2
#     Edge 7, Type (0, 0), BuildingBlock: XUDNAN_clean_linker_2, # of connection points: 2
#     Edge 8, Type (0, 0), BuildingBlock: XUDNAN_clean_linker_2, # of connection points: 2
#     Edge 9, Type (0, 0), BuildingBlock: XUDNAN_clean_linker_2, # of connection points: 2
#     Edge 10, Type (0, 0), BuildingBlock: XUDNAN_clean_linker_2, # of connection points: 2
#     Edge 11, Type (0, 0), BuildingBlock: XUDNAN_clean_linker_2, # of connection points: 2
#     Edge 12, Type (0, 0), BuildingBlock: XUDNAN_clean_linker_2, # of connection points: 2
#     Edge 13, Type (0, 0), BuildingBlock: XUDNAN_clean_linker_2, # of connection points: 2
#     Edge 14, Type (0, 0), BuildingBlock: XUDNAN_clean_linker_2, # of connection points: 2
#     Edge 15, Type (0, 0), BuildingBlock: XUDNAN_clean_linker_2, # of connection points: 2
# Relax obj value: 0.419
# Max RMSD: 0.130
# Mean RMSD: 0.083
data_MOF--net-sxb--node1-BETDAH_clean_sbu_0--edge1-XUDNAN_clean_linker_2
_symmetry_space_group_name_H-M    P1
_symmetry_Int_Tables_number       1
_symmetry_cell_setting            triclinic
loop_
_symmetry_equiv_pos_as_xyz
'x, y, z'
_cell_length_a     16.214334
_cell_length_b     34.751122
_cell_length_c     29.778759
_cell_angle_alpha  92.012968
_cell_angle_beta   93.648806
_cell_angle_gamma 66.087442
loop_
_atom_site_label
_atom_site_type_symbol
_atom_site_fract_x
_atom_site_fract_y
_atom_site_fract_z
_atom_type_partial_charge
Ho0 Ho 1.01558 0.08665 0.02689 0.0
Ho1 Ho 0.18399 0.09111 0.04305 0.0
C2 C 1.01598 0.18033 0.0422 0.0
C3 C 0.86058 0.08523 0.00869 0.0
C4 C 0.84506 1.06026 0.97066 0.0
C5 C 0.77091 0.0786 0.94014 0.0
C6 C 0.76504 1.05798 0.89966 0.0
C7 C 0.83402 1.01883 0.88856 0.0
C8 C 0.90862 1.00081 0.91911 0.0
C9 C 0.91371 1.02111 0.95978 0.0
C10 C 1.10468 1.0773 0.94921 0.0
C11 C 0.18094 0.99794 0.03089 0.0
C12 C 0.3479 0.07838 0.03066 0.0
C13 C 0.39898 1.05262 0.99302 0.0
C14 C 0.41056 1.07269 0.95537 0.0
C15 C 0.43896 1.05029 0.91543 0.0
C16 C 0.45655 1.00712 0.91198 0.0
C17 C 0.44834 0.98673 0.95029 0.0
C18 C 0.42045 1.00912 0.99038 0.0
C19 C 1.10443 0.0974 0.12258 0.0
O20 O 0.9685 0.15724 0.04657 0.0
O21 O 1.10325 0.1609 0.03571 0.0
O22 O 0.91389 1.06408 0.04223 0.0
O23 O 0.88005 0.11609 -0.00355 0.0
O24 O 1.0622 1.05505 0.95986 0.0
O25 O 1.09824 0.10364 0.98051 0.0
O26 O 0.2233 1.02217 0.0225 0.0
O27 O 1.09539 1.01649 0.04083 0.0
O28 O 0.32688 1.05844 0.0614 0.0
O29 O 0.27979 0.11303 0.01837 0.0
O30 O 0.15422 0.11702 0.11336 0.0
O31 O 1.10289 1.07331 0.0898 0.0
H32 H 0.71831 0.10917 0.94727 0.0
H33 H 0.70507 1.07229 0.87764 0.0
H34 H 0.9627 0.97075 0.9118 0.0
H35 H 0.97292 1.00654 0.98217 0.0
H36 H 0.39448 0.10615 0.95627 0.0
H37 H 0.44827 1.06694 0.88746 0.0
H38 H 0.4626 0.95347 0.94926 0.0
H39 H 0.41248 0.99252 0.01876 0.0
Ho40 Ho 0.15085 1.03514 0.53737 0.0
Ho41 Ho 1.07755 0.12144 0.53406 0.0
C42 C 0.93453 1.07478 0.53881 0.0
C43 C 0.23746 0.95447 0.54401 0.0
C44 C 0.2206 0.92101 0.51891 0.0
C45 C 0.22634 0.88501 0.5411 0.0
C46 C 0.19334 0.85735 0.51937 0.0
C47 C 0.15352 0.86588 0.47555 0.0
C48 C 0.15334 0.90031 0.45245 0.0
C49 C 0.18711 0.92753 0.47385 0.0
C50 C 1.08832 1.06264 0.45169 0.0
C51 C 0.29631 0.0791 0.53772 0.0
C52 C 0.9997 0.20119 0.5185 0.0
C53 C 1.03764 0.23312 0.52537 0.0
C54 C 1.05163 0.25278 0.48792 0.0
C55 C 0.11139 0.27269 0.49179 0.0
C56 C 0.15761 0.27309 0.53318 0.0
C57 C 0.13574 0.25764 0.57154 0.0
C58 C 1.07631 0.23779 0.56772 0.0
C59 C 0.14125 0.09507 0.61961 0.0
O60 O 1.00887 1.04084 0.54837 0.0
O61 O 0.94431 0.10972 0.5284 0.0
O62 O 0.26366 0.97783 0.52023 0.0
O63 O 0.17486 0.97687 0.57106 0.0
O64 O 1.07497 1.03364 0.47186 0.0
O65 O 0.13383 1.07661 0.47831 0.0
O66 O 0.2249 0.11372 0.52546 0.0
O67 O 0.2807 1.04647 0.55016 0.0
O68 O 0.98822 0.18418 0.55468 0.0
O69 O 1.03687 0.1731 0.4874 0.0
O70 O 0.15252 0.1246 0.59905 0.0
O71 O 1.09635 0.08006 0.59358 0.0
H72 H 0.25162 0.87959 0.57589 0.0
H73 H 0.19304 0.83109 0.53782 0.0
H74 H 0.12266 0.90737 0.41866 0.0
H75 H 0.18243 0.9549 0.4558 0.0
H76 H 1.0224 0.24965 0.45497 0.0
H77 H 0.12718 0.28448 0.46174 0.0
H78 H 0.16953 0.25828 0.60397 0.0
H79 H 1.06653 0.2233 0.59739 0.0
Ho80 Ho 0.5154 0.58736 0.02671 0.0
Ho81 Ho 0.67986 0.59416 0.03917 0.0
C82 C 0.50384 0.68033 0.03227 0.0
C83 C 0.37162 0.57411 0.01073 0.0
C84 C 0.32185 0.5808 0.96654 0.0
C85 C 0.30965 0.61595 0.94048 0.0
C86 C 0.28876 0.61617 0.89412 0.0
C87 C 0.27887 0.58139 0.87298 0.0
C88 C 0.28581 0.54744 0.89983 0.0
C89 C 0.30745 0.54709 0.94593 0.0
C90 C 0.5736 0.60137 0.94658 0.0
C91 C 0.69428 0.49875 0.03811 0.0
C92 C 0.83348 0.59469 0.02359 0.0
C93 C 0.87897 0.58219 0.98098 0.0
C94 C 0.87412 0.5483 0.95534 0.0
C95 C 0.89441 0.54349 0.90995 0.0
C96 C 0.91809 0.57295 0.88922 0.0
C97 C 0.92889 0.60507 0.91603 0.0
C98 C 0.90917 0.60971 0.96129 0.0
C99 C 0.601 0.60471 0.12019 0.0
O100 O 0.46433 0.65719 0.04787 0.0
O101 O 0.58574 0.66015 0.01765 0.0
O102 O 0.45242 0.54431 0.0099 0.0
O103 O 0.37089 0.60733 0.03308 0.0
O104 O 0.49364 0.62056 0.96023 0.0
O105 O 0.62071 0.57636 0.97699 0.0
O106 O 0.73845 0.52322 0.03633 0.0
O107 O 0.60462 0.51651 0.03785 0.0
O108 O 0.82637 0.56505 0.0468 0.0
O109 O 0.7578 0.62802 0.01997 0.0
O110 O 0.65016 0.62371 0.10853 0.0
O111 O 0.60074 0.57872 0.08954 0.0
H112 H 0.32028 0.64252 0.95547 0.0
H113 H 0.28182 0.64323 0.8748 0.0
H114 H 0.27439 0.52089 0.88531 0.0
H115 H 0.31733 0.51949 0.96512 0.0
H116 H 0.84986 0.52682 0.96957 0.0
H117 H 0.88762 0.51783 0.8907 0.0
H118 H 0.95177 0.62711 0.90201 0.0
H119 H 0.91293 0.63618 0.98031 0.0
Ho120 Ho 0.64554 0.55585 0.53586 0.0
Ho121 Ho 0.56529 0.64482 0.52814 0.0
C122 C 0.42604 0.59907 0.53712 0.0
C123 C 0.72812 0.47657 0.552 0.0
C124 C 0.70343 0.441 0.54149 0.0
C125 C 0.71791 0.41099 0.57457 0.0
C126 C 0.67971 0.3816 0.56855 0.0
C127 C 0.62661 0.38179 0.52922 0.0
C128 C 0.61719 0.41024 0.49491 0.0
C129 C 0.65481 0.43982 0.5011 0.0
C130 C 0.58027 0.58127 0.45022 0.0
C131 C 0.78911 0.60061 0.53379 0.0
C132 C 0.51234 0.7217 0.50288 0.0
C133 C 0.55718 0.74159 0.47616 0.0
C134 C 0.60208 0.72131 0.43764 0.0
C135 C 0.66202 0.73483 0.41863 0.0
C136 C 0.6789 0.76851 0.43814 0.0
C137 C 0.6283 0.79079 0.47448 0.0
C138 C 0.56777 0.77746 0.49324 0.0
C139 C 0.57704 0.61879 0.61485 0.0
O140 O 0.50086 0.56783 0.55313 0.0
O141 O 0.43513 0.63161 0.519 0.0
O142 O 0.74439 0.49451 0.51774 0.0
O143 O 0.67725 0.50379 0.58083 0.0
O144 O 0.56869 0.55217 0.47133 0.0
O145 O 0.62504 0.59634 0.47593 0.0
O146 O 0.71596 0.63616 0.52594 0.0
O147 O 0.77709 0.56572 0.54047 0.0
O148 O 0.55241 0.70837 0.54227 0.0
O149 O 0.48673 0.69442 0.48167 0.0
O150 O 0.50785 0.6494 0.59677 0.0
O151 O 0.6369 0.60439 0.58647 0.0
H152 H 0.75459 0.41174 0.60607 0.0
H153 H 0.68734 0.36048 0.5959 0.0
H154 H 0.57787 0.41071 0.46397 0.0
H155 H 0.64242 0.46286 0.47513 0.0
H156 H 0.5951 0.69351 0.42375 0.0
H157 H 0.69884 0.71747 0.39021 0.0
H158 H 0.64025 0.81658 0.49071 0.0
H159 H 0.53407 0.79337 0.52305 0.0
H160 H 0.34543 0.74274 0.07071 0.0
H161 H 0.55854 0.72809 0.98167 0.0
H162 H 0.49584 0.80432 0.97116 0.0
H163 H 0.16616 0.83152 0.00957 0.0
H164 H 0.1151 0.85952 0.05954 0.0
H165 H 0.1733 0.80294 0.06006 0.0
H166 H 0.27566 0.80804 0.12809 0.0
H167 H 0.2177 0.8646 0.1278 0.0
H168 H 0.33868 0.84016 0.12427 0.0
H169 H 0.41328 0.88211 0.96855 0.0
H170 H 0.31865 0.95745 0.97702 0.0
H171 H 0.15593 0.92918 0.06981 0.0
C172 C 0.37855 0.75556 0.04881 0.0
C173 C 0.45815 0.72817 0.02706 0.0
C174 C 0.49852 0.74722 -0.00094 0.0
C175 C 0.46299 0.791 0.99263 0.0
C176 C 0.38591 0.81685 0.01442 0.0
C177 C 0.34379 0.80017 0.04214 0.0
C178 C 0.26254 0.83638 0.06206 0.0
C179 C 0.174 0.83234 0.04692 0.0
C180 C 0.27436 0.83734 0.11363 0.0
C181 C 0.26665 0.87557 0.04145 0.0
C182 C 0.33849 0.86293 0.01382 0.0
C183 C 0.35752 0.89224 0.99054 0.0
C184 C 0.30348 0.93541 -0.00405 0.0
C185 C 0.23048 0.95035 0.02485 0.0
C186 C 0.21108 0.91945 0.04748 0.0
H187 H 0.64262 0.42831 0.03238 0.0
H188 H 0.87669 0.45939 0.0512 0.0
H189 H 0.97572 0.38463 0.05568 0.0
H190 H 0.73021 0.33656 0.10803 0.0
H191 H 0.68691 0.30477 0.07313 0.0
H192 H 0.62997 0.36138 0.07188 0.0
H193 H 0.64366 0.35987 0.98583 0.0
H194 H 0.70056 0.30326 0.98683 0.0
H195 H 0.75332 0.33398 0.96293 0.0
H196 H 1.05424 0.30695 0.05747 0.0
H197 H 1.10811 0.23022 0.05556 0.0
H198 H 0.83148 0.2415 0.0356 0.0
C199 C 0.71463 0.4194 0.03767 0.0
C200 C 0.75028 0.45114 0.04143 0.0
C201 C 0.84568 0.43701 0.04804 0.0
C202 C 0.90349 0.39405 0.05075 0.0
C203 C 0.86695 0.36398 0.04679 0.0
C204 C 0.77487 0.37567 0.04034 0.0
C205 C 0.75578 0.33562 0.03658 0.0
C206 C 0.6972 0.33453 0.07467 0.0
C207 C 0.71062 0.33304 0.99029 0.0
C208 C 0.85125 0.30012 0.04189 0.0
C209 C 0.91359 0.31786 0.04777 0.0
C210 C 1.00584 0.29279 0.0529 0.0
C211 C 1.03599 0.24869 0.05169 0.0
C212 C 0.97532 0.22851 0.04544 0.0
C213 C 0.88064 0.25517 0.04078 0.0
H214 H 0.17412 0.34265 0.5002 0.0
H215 H 0.32318 0.22488 0.56996 0.0
H216 H 0.4615 0.23833 0.57113 0.0
H217 H 0.35396 0.33881 0.43093 0.0
H218 H 0.32784 0.39429 0.43664 0.0
H219 H 0.2396 0.37559 0.4394 0.0
H220 H 0.19878 0.41176 0.51736 0.0
H221 H 0.28596 0.43102 0.51449 0.0
H222 H 0.28575 0.40023 0.56192 0.0
H223 H 0.58435 0.26117 0.56272 0.0
H224 H 0.68054 0.30032 0.55683 0.0
H225 H 0.45163 0.40481 0.49637 0.0
C226 C 0.23619 0.3196 0.51538 0.0
C227 C 0.23824 0.28284 0.53507 0.0
C228 C 0.32013 0.2535 0.55517 0.0
C229 C 0.39921 0.26037 0.55542 0.0
C230 C 0.39559 0.29639 0.53519 0.0
C231 C 0.31615 0.326 0.51626 0.0
C232 C 0.33025 0.36353 0.49989 0.0
C233 C 0.31182 0.36832 0.44867 0.0
C234 C 0.27174 0.40402 0.52492 0.0
C235 C 0.42984 0.35018 0.51285 0.0
C236 C 0.46638 0.31099 0.53241 0.0
C237 C 0.55664 0.29209 0.54775 0.0
C238 C 0.61059 0.31457 0.54439 0.0
C239 C 0.57361 0.35565 0.52637 0.0
C240 C 0.48246 0.37319 0.50959 0.0
H241 H 0.9745 0.90058 0.45578 0.0
H242 H 0.2082 0.78158 0.45691 0.0
H243 H 1.10956 0.74496 0.43185 0.0
H244 H 0.83859 0.8633 0.50599 0.0
H245 H 0.73495 0.89586 0.47581 0.0
H246 H 0.82508 0.91329 0.4839 0.0
H247 H 0.82499 0.92153 0.39775 0.0
H248 H 0.73462 0.90396 0.38932 0.0
H249 H 0.83797 0.87742 0.36086 0.0
H250 H 0.98512 0.72155 0.41421 0.0
H251 H 0.84601 0.70982 0.41891 0.0
H252 H 0.69152 0.84462 0.43154 0.0
C253 C 1.00496 0.867 0.44914 0.0
C254 C 1.09856 0.84374 0.45693 0.0
C255 C 0.13652 0.79969 0.45018 0.0
C256 C 1.08119 0.77888 0.43567 0.0
C257 C 0.98854 0.80276 0.42854 0.0
C258 C 0.95064 0.84583 0.43555 0.0
C259 C 0.84851 0.86337 0.43277 0.0
C260 C 0.80957 0.8852 0.47725 0.0
C261 C 0.80923 0.89334 0.39277 0.0
C262 C 0.83462 0.82317 0.42484 0.0
C263 C 0.91603 0.78883 0.42105 0.0
C264 C 0.92088 0.74803 0.41686 0.0
C265 C 0.84119 0.74181 0.4191 0.0
C266 C 0.75769 0.77635 0.42556 0.0
C267 C 0.75429 0.81761 0.42666 0.0
H268 H 0.58729 0.92802 0.90686 0.0
H269 H 0.4149 1.03186 0.82341 0.0
H270 H 0.52924 1.01112 0.76755 0.0
H271 H 0.74177 0.92753 0.92393 0.0
H272 H 0.83832 0.88075 0.90911 0.0
H273 H 0.73301 0.87747 0.91649 0.0
H274 H 0.73815 0.84484 0.838 0.0
H275 H 0.84427 0.84848 0.8305 0.0
H276 H 0.75155 0.87085 0.78954 0.0
H277 H 0.66743 1.01783 0.75997 0.0
H278 H 0.76333 1.0463 0.80318 0.0
H279 H 0.8691 0.9361 0.88637 0.0
C280 C 0.57151 0.94421 0.87512 0.0
C281 C 0.49594 0.98295 0.87065 0.0
C282 C 0.47524 1.00323 0.82866 0.0
C283 C 0.53987 0.99105 0.79623 0.0
C284 C 0.62431 0.95849 0.80626 0.0
C285 C 0.6372 0.93225 0.84283 0.0
C286 C 0.73732 0.90718 0.85304 0.0
C287 C 0.76396 0.89791 0.90368 0.0
C288 C 0.76964 0.86545 0.82613 0.0
C289 C 0.77249 0.9368 0.83315 0.0
C290 C 0.71021 0.96174 0.80033 0.0
C291 C 0.71555 0.99841 0.78539 0.0
C292 C 0.7698 1.01486 0.81052 0.0
C293 C 0.81932 0.99407 0.8495 0.0
C294 C 0.83029 0.95242 0.85682 0.0
H295 H 0.37811 0.14011 0.54057 0.0
H296 H 0.44656 1.0058 0.53266 0.0
H297 H 0.60729 0.99213 0.531 0.0
H298 H 0.55324 0.14329 0.46977 0.0
H299 H 0.57807 0.18079 0.50527 0.0
H300 H 0.46753 0.17986 0.50399 0.0
H301 H 0.48563 0.16925 0.59208 0.0
H302 H 0.59478 0.17173 0.59075 0.0
H303 H 0.58499 0.12714 0.61506 0.0
H304 H 0.76559 0.99104 0.53086 0.0
H305 H 0.90545 1.00259 0.53287 0.0
H306 H 0.74901 0.13752 0.54144 0.0
C307 C 0.42667 0.10779 0.53817 0.0
C308 C 0.39606 1.07409 0.53649 0.0
C309 C 0.46481 1.03256 0.53411 0.0
C310 C 0.55777 1.02429 0.53303 0.0
C311 C 0.58533 1.05764 0.53486 0.0
C312 C 0.52207 0.09868 0.53774 0.0
C313 C 0.57262 0.12816 0.54142 0.0
C314 C 0.54098 0.15995 0.50284 0.0
C315 C 0.55862 0.15051 0.5875 0.0
C316 C 0.6729 0.09764 0.5379 0.0
C317 C 0.67776 1.057 0.53494 0.0
C318 C 0.76171 1.02288 0.53309 0.0
C319 C 0.84205 1.02993 0.53438 0.0
C320 C 0.84184 1.07099 0.53717 0.0
C321 C 0.75413 0.1055 0.53881 0.0
H322 H 0.87755 0.63613 0.82975 0.0
H323 H 1.00419 0.50095 0.83931 0.0
H324 H 1.09364 0.49742 0.77565 0.0
H325 H 0.99989 0.6309 0.70053 0.0
H326 H 1.00999 0.67871 0.71907 0.0
H327 H 0.90516 0.67305 0.72399 0.0
H328 H 0.90751 0.69256 0.80689 0.0
H329 H 1.01244 0.69746 0.80289 0.0
H330 H 1.00287 0.66287 0.84415 0.0
H331 H 0.22565 0.50596 0.75737 0.0
H332 H 0.33437 0.51638 0.81127 0.0
H333 H 0.15729 0.64721 0.82501 0.0
C334 C 0.92201 0.60591 0.81655 0.0
C335 C 0.93817 0.56924 0.84077 0.0
C336 C 0.9921 0.52985 0.82216 0.0
C337 C 1.04331 0.52773 0.78537 0.0
C338 C 1.04381 0.56509 0.76924 0.0
C339 C 0.97925 0.6041 0.78237 0.0
C340 C 1.0119 0.63829 0.77437 0.0
C341 C 0.97997 0.6562 0.72669 0.0
C342 C 0.98207 0.67482 0.8093 0.0
C343 C 0.11267 0.61139 0.77608 0.0
C344 C 0.12753 0.57029 0.76253 0.0
C345 C 0.21301 0.53756 0.7692 0.0
C346 C 0.27456 0.54355 0.80054 0.0
C347 C 0.24948 0.58195 0.82452 0.0
C348 C 0.1753 0.61738 0.80752 0.0
H349 H 0.24575 0.64969 0.4988 0.0
H350 H 0.39071 0.54125 0.58362 0.0
H351 H 0.24971 0.53229 0.59165 0.0
H352 H 1.03395 0.69107 0.55643 0.0
H353 H 0.95935 0.7048 0.50663 0.0
H354 H 1.07066 0.70454 0.50563 0.0
H355 H 1.10749 0.6531 0.43859 0.0
H356 H 0.99706 0.65189 0.43813 0.0
H357 H 1.09684 0.60373 0.44261 0.0
H358 H 1.09169 0.5328 0.59063 0.0
H359 H 0.93283 0.54282 0.58103 0.0
H360 H 0.87504 0.65152 0.49745 0.0
C361 C 0.24806 0.62418 0.51938 0.0
C362 C 0.33296 0.59633 0.54077 0.0
C363 C 0.32961 0.56335 0.56669 0.0
C364 C 0.24854 0.5579 0.57159 0.0
C365 C 0.1674 0.58543 0.55039 0.0
C366 C 0.16606 0.61799 0.5246 0.0
C367 C 1.06857 0.64188 0.50436 0.0
C368 C 1.03093 0.68835 0.51911 0.0
C369 C 1.06738 0.63748 0.45285 0.0
C370 C 1.01522 0.61876 0.52406 0.0
C371 C 1.07503 0.58586 0.54999 0.0
C372 C 1.04487 0.55868 0.57049 0.0
C373 C 0.95297 0.56473 0.56463 0.0
C374 C 0.88756 0.59814 0.53866 0.0
C375 C 0.92071 0.62581 0.51816 0.0
H376 H 0.14958 0.10715 0.39478 0.0
H377 H 0.99976 1.02821 0.39449 0.0
H378 H 0.98335 1.03063 0.31176 0.0
H379 H 1.0189 0.17299 0.29928 0.0
H380 H 0.11604 0.17649 0.27659 0.0
H381 H 0.11361 0.17017 0.33625 0.0
H382 H 0.26361 0.10382 0.33447 0.0
H383 H 0.2664 0.10989 0.27484 0.0
H384 H 0.27149 1.06111 0.2964 0.0
H385 H 0.98824 1.03842 0.22831 0.0
H386 H 1.01252 1.05237 0.15039 0.0
H387 H 0.15665 0.12729 0.20225 0.0
C388 C 0.11259 0.09077 0.37726 0.0
C389 C 1.07591 1.06746 0.40153 0.0
C390 C 1.02856 1.04627 0.37703 0.0
C391 C 1.01876 1.04745 0.32982 0.0
C392 C 1.05631 1.07014 0.30685 0.0
C393 C 1.10196 0.09164 0.32963 0.0
C394 C 0.13714 0.11292 0.29625 0.0
C395 C 1.09383 0.16101 0.30247 0.0
C396 C 0.24082 0.09591 0.30077 0.0
C397 C 1.105 0.09962 0.25144 0.0
C398 C 1.05836 1.07498 0.25846 0.0
C399 C 1.02416 1.05793 0.22245 0.0
C400 C 1.03827 1.06602 0.17819 0.0
C401 C 1.08605 0.09105 0.16986 0.0
C402 C 0.11916 0.10829 0.20726 0.0
H403 H 1.05281 1.04574 0.8713 0.0
H404 H 0.20726 0.11685 0.9202 0.0
H405 H 0.24124 0.12444 0.84183 0.0
H406 H 0.19429 0.99147 0.77795 0.0
H407 H 1.09947 0.99505 0.74065 0.0
H408 H 1.09293 0.99245 0.8006 0.0
H409 H 0.94836 1.0614 0.79845 0.0
H410 H 0.95418 1.06437 0.73856 0.0
H411 H 0.95049 0.10787 0.77439 0.0
H412 H 0.25264 0.12705 0.75784 0.0
H413 H 0.23804 0.12668 0.675 0.0
H414 H 1.0722 1.05543 0.67844 0.0
C415 C 1.09459 1.06257 0.86554 0.0
C416 C 0.12779 0.08064 0.9021 0.0
C417 C 0.18116 0.1028 0.89293 0.0
C418 C 0.20087 0.10716 0.84845 0.0
C419 C 0.1661 0.08952 0.81317 0.0
C420 C 0.11385 1.06772 0.82117 0.0
C421 C 1.08124 1.05354 0.77703 0.0
C422 C 0.11927 1.00525 0.77388 0.0
C423 C 0.97741 1.07296 0.77181 0.0
C424 C 0.12205 1.07134 0.74278 0.0
C425 C 0.17152 0.09155 0.76458 0.0
C426 C 0.21429 0.11121 0.74056 0.0
C427 C 0.20549 0.11081 0.69331 0.0
C428 C 0.15402 0.09105 0.66983 0.0
C429 C 0.11257 1.07056 0.69516 0.0
H430 H 0.64822 0.62122 0.3916 0.0
H431 H 0.48195 0.55022 0.39516 0.0
H432 H 0.46436 0.55131 0.31236 0.0
H433 H 0.52237 0.68748 0.29463 0.0
H434 H 0.62277 0.68698 0.27137 0.0
H435 H 0.61881 0.68268 0.33127 0.0
H436 H 0.76299 0.61355 0.33097 0.0
H437 H 0.76714 0.61741 0.27107 0.0
H438 H 0.76507 0.57069 0.29447 0.0
H439 H 0.4715 0.55591 0.22889 0.0
H440 H 0.49997 0.56554 0.15037 0.0
H441 H 0.65829 0.6352 0.19827 0.0
C442 C 0.60681 0.60662 0.37492 0.0
C443 C 0.56604 0.58578 0.40019 0.0
C444 C 0.51381 0.56639 0.37683 0.0
C445 C 0.50331 0.56686 0.32964 0.0
C446 C 0.54507 0.58705 0.30568 0.0
C447 C 0.59534 0.60686 0.32739 0.0
C448 C 0.63484 0.62529 0.29309 0.0
C449 C 0.59745 0.67348 0.29787 0.0
C450 C 0.73868 0.60554 0.29769 0.0
C451 C 0.60013 0.61211 0.24892 0.0
C452 C 0.54829 0.59015 0.25715 0.0
C453 C 0.51133 0.57339 0.22207 0.0
C454 C 0.52794 0.57897 0.17747 0.0
C455 C 0.58087 0.60127 0.16788 0.0
C456 C 0.61674 0.61835 0.20432 0.0
H457 H 0.46324 0.65695 0.68352 0.0
H458 H 0.72581 0.55893 0.65766 0.0
H459 H 0.75432 0.54369 0.73914 0.0
H460 H 0.53089 0.69536 0.78664 0.0
H461 H 0.42765 0.70548 0.8137 0.0
H462 H 0.42665 0.70783 0.75333 0.0
H463 H 0.35615 0.65269 0.74505 0.0
H464 H 0.35585 0.65101 0.80539 0.0
H465 H 0.41117 0.60316 0.77376 0.0
H466 H 0.75249 0.53804 0.82452 0.0
H467 H 0.72137 0.54424 0.9056 0.0
H468 H 0.46492 0.64855 0.87658 0.0
C469 C 0.52656 0.63215 0.69499 0.0
C470 C 0.59231 0.6091 0.664 0.0
C471 C 0.67437 0.577 0.68058 0.0
C472 C 0.69115 0.5681 0.7269 0.0
C473 C 0.62525 0.59153 0.75659 0.0
C474 C 0.54452 0.62293 0.74125 0.0
C475 C 0.48541 0.64388 0.78025 0.0
C476 C 0.46657 0.69093 0.78367 0.0
C477 C 0.39695 0.63727 0.77583 0.0
C478 C 0.54564 0.61971 0.81991 0.0
C479 C 0.62574 0.58936 0.80556 0.0
C480 C 0.69056 0.56221 0.83605 0.0
C481 C 0.67315 0.56626 0.88216 0.0
C482 C 0.59275 0.59776 0.89781 0.0
C483 C 0.5281 0.62463 0.86594 0.0
loop_
_geom_bond_atom_site_label_1
_geom_bond_atom_site_label_2
_geom_bond_distance
_geom_bond_site_symmetry_2
_ccdc_geom_bond_type
Ho0 C3 2.811 1_565 S
Ho0 O20 2.322 1_565 S
Ho0 O22 2.378 . S
Ho0 O23 2.524 1_566 S
Ho0 O24 2.381 . S
Ho0 O25 2.678 1_655 S
Ho0 O27 2.346 1_655 S
Ho0 O31 2.290 1_566 S
Ho1 C12 2.811 . S
Ho1 O21 2.346 1_455 S
Ho1 O25 2.296 1_544 S
Ho1 O26 2.322 1_545 S
Ho1 O28 2.378 . S
Ho1 O29 2.524 1_544 S
Ho1 O30 2.381 . S
Ho1 O31 2.686 1_455 S
C2 O20 1.259 . S
C2 O21 1.268 1_556 S
C3 Ho0 2.811 1_545 S
C3 C4 1.488 . S
C3 O22 1.216 1_545 S
C3 O23 1.289 1_556 S
C4 C3 1.488 . S
C4 C5 1.348 1_556 S
C4 C9 1.413 . S
C5 C4 1.348 1_554 S
C5 C6 1.442 . S
C5 H32 0.930 . S
C6 C5 1.442 . S
C6 C7 1.381 1_554 S
C6 H33 0.931 . S
C7 C6 1.381 1_556 S
C7 C8 1.321 . S
C8 C7 1.321 . S
C8 C9 1.403 . S
C8 H34 0.934 . S
C9 C4 1.413 . S
C9 C8 1.403 . S
C9 H35 0.930 . S
C10 O24 1.275 . S
C10 O25 1.260 1_655 S
C11 O26 1.259 . S
C11 O27 1.268 1_554 S
C12 Ho1 2.811 . S
C12 C13 1.488 1_545 S
C12 O28 1.217 . S
C12 O29 1.287 1_544 S
C13 C12 1.488 1_565 S
C13 C14 1.348 1_554 S
C13 C18 1.413 . S
C14 C13 1.348 1_556 S
C14 C15 1.442 . S
C14 H36 0.930 . S
C15 C14 1.442 . S
C15 C16 1.381 1_556 S
C15 H37 0.931 . S
C16 C15 1.381 1_554 S
C16 C17 1.321 . S
C17 C16 1.321 . S
C17 C18 1.403 . S
C17 H38 0.934 . S
C18 C13 1.413 . S
C18 C17 1.403 . S
C18 H39 0.930 . S
C19 O30 1.275 . S
C19 O31 1.264 1_455 S
O20 Ho0 2.322 1_545 S
O20 C2 1.259 . S
O21 Ho1 2.346 1_655 S
O21 C2 1.268 1_554 S
O22 Ho0 2.378 . S
O22 C3 1.216 1_565 S
O23 Ho0 2.524 1_544 S
O23 C3 1.289 1_554 S
O24 Ho0 2.381 . S
O24 C10 1.275 . S
O25 Ho0 2.678 1_455 S
O25 Ho1 2.296 1_566 S
O25 C10 1.260 1_455 S
O26 Ho1 2.322 1_565 S
O26 C11 1.259 . S
O27 Ho0 2.346 1_455 S
O27 C11 1.268 1_556 S
O28 Ho1 2.378 . S
O28 C12 1.217 . S
O29 Ho1 2.524 1_566 S
O29 C12 1.287 1_566 S
O30 Ho1 2.381 . S
O30 C19 1.275 . S
O31 Ho0 2.290 1_544 S
O31 Ho1 2.686 1_655 S
O31 C19 1.264 1_655 S
H32 C5 0.930 . S
H33 C6 0.931 . S
H34 C8 0.934 . S
H35 C9 0.930 . S
H36 C14 0.930 . S
H37 C15 0.931 . S
H38 C17 0.934 . S
H39 C18 0.930 . S
Ho40 C43 2.811 1_455 S
Ho40 O60 2.322 1_455 S
Ho40 O62 2.378 1_455 S
Ho40 O63 2.524 1_455 S
Ho40 O64 2.381 . S
Ho40 O65 2.669 1_565 S
Ho40 O67 2.346 . S
Ho40 O71 2.305 1_455 S
Ho41 C52 2.811 1_655 S
Ho41 O61 2.346 . S
Ho41 O65 2.305 1_655 S
Ho41 O66 2.322 1_655 S
Ho41 O68 2.378 1_655 S
Ho41 O69 2.524 1_655 S
Ho41 O70 2.381 . S
Ho41 O71 2.669 1_545 S
C42 O60 1.259 1_545 S
C42 O61 1.268 . S
C43 Ho40 2.811 1_655 S
C43 C44 1.488 . S
C43 O62 1.215 . S
C43 O63 1.289 . S
C44 C43 1.488 . S
C44 C45 1.348 . S
C44 C49 1.413 . S
C45 C44 1.348 . S
C45 C46 1.442 . S
C45 H72 0.930 . S
C46 C45 1.442 . S
C46 C47 1.381 . S
C46 H73 0.931 . S
C47 C46 1.381 . S
C47 C48 1.321 . S
C48 C47 1.321 . S
C48 C49 1.403 . S
C48 H74 0.934 . S
C49 C44 1.413 . S
C49 C48 1.403 . S
C49 H75 0.930 . S
C50 O64 1.275 . S
C50 O65 1.256 1_565 S
C51 O66 1.259 1_565 S
C51 O67 1.268 . S
C52 Ho41 2.811 1_455 S
C52 C53 1.488 . S
C52 O68 1.215 . S
C52 O69 1.289 . S
C53 C52 1.488 . S
C53 C54 1.348 . S
C53 C58 1.413 . S
C54 C53 1.348 . S
C54 C55 1.442 . S
C54 H76 0.930 . S
C55 C54 1.442 . S
C55 C56 1.381 . S
C55 H77 0.931 . S
C56 C55 1.381 . S
C56 C57 1.321 . S
C57 C56 1.321 . S
C57 C58 1.403 . S
C57 H78 0.934 . S
C58 C53 1.413 . S
C58 C57 1.403 . S
C58 H79 0.930 . S
C59 O70 1.271 . S
C59 O71 1.258 1_545 S
O60 Ho40 2.322 1_655 S
O60 C42 1.259 1_565 S
O61 Ho41 2.346 . S
O61 C42 1.268 . S
O62 Ho40 2.378 1_655 S
O62 C43 1.215 . S
O63 Ho40 2.524 1_655 S
O63 C43 1.289 . S
O64 Ho40 2.381 . S
O64 C50 1.275 . S
O65 Ho40 2.669 1_545 S
O65 Ho41 2.305 1_455 S
O65 C50 1.256 1_545 S
O66 Ho41 2.322 1_455 S
O66 C51 1.259 1_545 S
O67 Ho40 2.346 . S
O67 C51 1.268 . S
O68 Ho41 2.378 1_455 S
O68 C52 1.215 . S
O69 Ho41 2.524 1_455 S
O69 C52 1.289 . S
O70 Ho41 2.381 . S
O70 C59 1.271 . S
O71 Ho40 2.305 1_655 S
O71 Ho41 2.669 1_565 S
O71 C59 1.258 1_565 S
H72 C45 0.930 . S
H73 C46 0.931 . S
H74 C48 0.934 . S
H75 C49 0.930 . S
H76 C54 0.930 . S
H77 C55 0.931 . S
H78 C57 0.934 . S
H79 C58 0.930 . S
Ho80 C83 2.811 . S
Ho80 O100 2.322 . S
Ho80 O102 2.378 . S
Ho80 O103 2.524 1_556 S
Ho80 O104 2.381 . S
Ho80 O105 2.669 . S
Ho80 O107 2.346 . S
Ho80 O111 2.305 1_556 S
Ho81 C92 2.811 . S
Ho81 O101 2.346 . S
Ho81 O105 2.305 1_554 S
Ho81 O106 2.322 . S
Ho81 O108 2.378 . S
Ho81 O109 2.524 1_554 S
Ho81 O110 2.381 . S
Ho81 O111 2.669 . S
C82 O100 1.259 . S
C82 O101 1.268 1_556 S
C83 Ho80 2.811 . S
C83 C84 1.488 . S
C83 O102 1.215 . S
C83 O103 1.289 1_556 S
C84 C83 1.488 . S
C84 C85 1.348 1_556 S
C84 C89 1.413 . S
C85 C84 1.348 1_554 S
C85 C86 1.442 . S
C85 H112 0.930 . S
C86 C85 1.442 . S
C86 C87 1.381 1_554 S
C86 H113 0.931 . S
C87 C86 1.381 1_556 S
C87 C88 1.321 . S
C88 C87 1.321 . S
C88 C89 1.403 . S
C88 H114 0.934 . S
C89 C84 1.413 . S
C89 C88 1.403 . S
C89 H115 0.930 . S
C90 O104 1.275 . S
C90 O105 1.256 . S
C91 O106 1.259 . S
C91 O107 1.268 1_554 S
C92 Ho81 2.811 . S
C92 C93 1.488 . S
C92 O108 1.215 . S
C92 O109 1.289 1_554 S
C93 C92 1.488 . S
C93 C94 1.348 1_554 S
C93 C98 1.413 . S
C94 C93 1.348 1_556 S
C94 C95 1.442 . S
C94 H116 0.930 . S
C95 C94 1.442 . S
C95 C96 1.381 1_556 S
C95 H117 0.931 . S
C96 C95 1.381 1_554 S
C96 C97 1.321 . S
C97 C96 1.321 . S
C97 C98 1.403 . S
C97 H118 0.934 . S
C98 C93 1.413 . S
C98 C97 1.403 . S
C98 H119 0.930 . S
C99 O110 1.275 . S
C99 O111 1.256 . S
O100 Ho80 2.322 . S
O100 C82 1.259 . S
O101 Ho81 2.346 . S
O101 C82 1.268 1_554 S
O102 Ho80 2.378 . S
O102 C83 1.215 . S
O103 Ho80 2.524 1_554 S
O103 C83 1.289 1_554 S
O104 Ho80 2.381 . S
O104 C90 1.275 . S
O105 Ho80 2.669 . S
O105 Ho81 2.305 1_556 S
O105 C90 1.256 . S
O106 Ho81 2.322 . S
O106 C91 1.259 . S
O107 Ho80 2.346 . S
O107 C91 1.268 1_556 S
O108 Ho81 2.378 . S
O108 C92 1.215 . S
O109 Ho81 2.524 1_556 S
O109 C92 1.289 1_556 S
O110 Ho81 2.381 . S
O110 C99 1.275 . S
O111 Ho80 2.305 1_554 S
O111 Ho81 2.669 . S
O111 C99 1.256 . S
H112 C85 0.930 . S
H113 C86 0.931 . S
H114 C88 0.934 . S
H115 C89 0.930 . S
H116 C94 0.930 . S
H117 C95 0.931 . S
H118 C97 0.934 . S
H119 C98 0.930 . S
Ho120 C123 2.811 . S
Ho120 O140 2.322 . S
Ho120 O142 2.378 . S
Ho120 O143 2.524 . S
Ho120 O144 2.381 . S
Ho120 O145 2.669 . S
Ho120 O147 2.346 . S
Ho120 O151 2.305 . S
Ho121 C132 2.811 . S
Ho121 O141 2.346 . S
Ho121 O145 2.305 . S
Ho121 O146 2.322 . S
Ho121 O148 2.378 . S
Ho121 O149 2.524 . S
Ho121 O150 2.381 . S
Ho121 O151 2.669 . S
C122 O140 1.259 . S
C122 O141 1.268 . S
C123 Ho120 2.811 . S
C123 C124 1.488 . S
C123 O142 1.215 . S
C123 O143 1.289 . S
C124 C123 1.488 . S
C124 C125 1.348 . S
C124 C129 1.413 . S
C125 C124 1.348 . S
C125 C126 1.442 . S
C125 H152 0.930 . S
C126 C125 1.442 . S
C126 C127 1.381 . S
C126 H153 0.931 . S
C127 C126 1.381 . S
C127 C128 1.321 . S
C128 C127 1.321 . S
C128 C129 1.403 . S
C128 H154 0.934 . S
C129 C124 1.413 . S
C129 C128 1.403 . S
C129 H155 0.930 . S
C130 O144 1.275 . S
C130 O145 1.256 . S
C131 O146 1.259 . S
C131 O147 1.268 . S
C132 Ho121 2.811 . S
C132 C133 1.488 . S
C132 O148 1.215 . S
C132 O149 1.289 . S
C133 C132 1.488 . S
C133 C134 1.348 . S
C133 C138 1.413 . S
C134 C133 1.348 . S
C134 C135 1.442 . S
C134 H156 0.930 . S
C135 C134 1.442 . S
C135 C136 1.381 . S
C135 H157 0.931 . S
C136 C135 1.381 . S
C136 C137 1.321 . S
C137 C136 1.321 . S
C137 C138 1.403 . S
C137 H158 0.934 . S
C138 C133 1.413 . S
C138 C137 1.403 . S
C138 H159 0.930 . S
C139 O150 1.275 . S
C139 O151 1.256 . S
O140 Ho120 2.322 . S
O140 C122 1.259 . S
O141 Ho121 2.346 . S
O141 C122 1.268 . S
O142 Ho120 2.378 . S
O142 C123 1.215 . S
O143 Ho120 2.524 . S
O143 C123 1.289 . S
O144 Ho120 2.381 . S
O144 C130 1.275 . S
O145 Ho120 2.669 . S
O145 Ho121 2.305 . S
O145 C130 1.256 . S
O146 Ho121 2.322 . S
O146 C131 1.259 . S
O147 Ho120 2.346 . S
O147 C131 1.268 . S
O148 Ho121 2.378 . S
O148 C132 1.215 . S
O149 Ho121 2.524 . S
O149 C132 1.289 . S
O150 Ho121 2.381 . S
O150 C139 1.275 . S
O151 Ho120 2.305 . S
O151 Ho121 2.669 . S
O151 C139 1.256 . S
H152 C125 0.930 . S
H153 C126 0.931 . S
H154 C128 0.934 . S
H155 C129 0.930 . S
H156 C134 0.930 . S
H157 C135 0.931 . S
H158 C137 0.934 . S
H159 C138 0.930 . S
H160 C172 0.930 . S
H161 C174 0.930 . S
H162 C175 0.930 . S
H163 C179 0.959 . S
H164 C179 0.959 . S
H165 C179 0.961 . S
H166 C180 0.960 . S
H167 C180 0.961 . S
H168 C180 0.959 . S
H169 C183 0.929 . S
H170 C184 0.931 . S
H171 C186 0.930 . S
C172 H160 0.930 . S
C172 C173 1.399 1_554 S
C172 C177 1.399 . S
C173 C172 1.399 1_556 S
C173 C174 1.376 . S
C174 H161 0.930 . S
C174 C173 1.376 . S
C174 C175 1.388 . S
C175 H162 0.930 . S
C175 C174 1.388 . S
C175 C176 1.390 . S
C176 C175 1.390 . S
C176 C177 1.394 1_556 S
C176 C182 1.465 . S
C177 C172 1.399 . S
C177 C176 1.394 1_554 S
C177 C178 1.516 . S
C178 C177 1.516 . S
C178 C179 1.502 . S
C178 C180 1.561 . S
C178 C181 1.526 . S
C179 H163 0.959 . S
C179 H164 0.959 . S
C179 H165 0.961 . S
C179 C178 1.502 . S
C180 H166 0.960 . S
C180 H167 0.961 . S
C180 H168 0.959 . S
C180 C178 1.561 . S
C181 C178 1.526 . S
C181 C182 1.396 1_554 S
C181 C186 1.390 . S
C182 C176 1.465 . S
C182 C181 1.396 1_556 S
C182 C183 1.399 . S
C183 H169 0.929 . S
C183 C182 1.399 . S
C183 C184 1.385 . S
C184 H170 0.931 . S
C184 C183 1.385 . S
C184 C185 1.389 . S
C185 C184 1.389 . S
C185 C186 1.387 1_556 S
C186 H171 0.930 . S
C186 C181 1.390 . S
C186 C185 1.387 1_554 S
H187 C199 0.930 . S
H188 C201 0.930 . S
H189 C202 0.930 . S
H190 C206 0.959 . S
H191 C206 0.959 . S
H192 C206 0.961 . S
H193 C207 0.960 . S
H194 C207 0.961 . S
H195 C207 0.959 . S
H196 C210 0.929 . S
H197 C211 0.931 . S
H198 C213 0.930 . S
C199 H187 0.930 . S
C199 C200 1.399 1_556 S
C199 C204 1.399 . S
C200 C199 1.399 1_554 S
C200 C201 1.376 . S
C201 H188 0.930 . S
C201 C200 1.376 . S
C201 C202 1.388 . S
C202 H189 0.930 . S
C202 C201 1.388 . S
C202 C203 1.390 . S
C203 C202 1.390 . S
C203 C204 1.394 1_554 S
C203 C209 1.465 . S
C204 C199 1.399 . S
C204 C203 1.394 1_556 S
C204 C205 1.516 . S
C205 C204 1.516 . S
C205 C206 1.502 . S
C205 C207 1.561 . S
C205 C208 1.526 . S
C206 H190 0.959 . S
C206 H191 0.959 . S
C206 H192 0.961 . S
C206 C205 1.502 . S
C207 H193 0.960 . S
C207 H194 0.961 . S
C207 H195 0.959 . S
C207 C205 1.561 . S
C208 C205 1.526 . S
C208 C209 1.396 1_556 S
C208 C213 1.390 . S
C209 C203 1.465 . S
C209 C208 1.396 1_554 S
C209 C210 1.399 . S
C210 H196 0.929 . S
C210 C209 1.399 . S
C210 C211 1.385 . S
C211 H197 0.931 . S
C211 C210 1.385 . S
C211 C212 1.389 . S
C212 C211 1.389 . S
C212 C213 1.387 1_554 S
C213 H198 0.930 . S
C213 C208 1.390 . S
C213 C212 1.387 1_556 S
H214 C226 0.930 . S
H215 C228 0.930 . S
H216 C229 0.930 . S
H217 C233 0.959 . S
H218 C233 0.959 . S
H219 C233 0.961 . S
H220 C234 0.960 . S
H221 C234 0.961 . S
H222 C234 0.959 . S
H223 C237 0.929 . S
H224 C238 0.931 . S
H225 C240 0.930 . S
C226 H214 0.930 . S
C226 C227 1.399 . S
C226 C231 1.399 . S
C227 C226 1.399 . S
C227 C228 1.376 . S
C228 H215 0.930 . S
C228 C227 1.376 . S
C228 C229 1.388 . S
C229 H216 0.930 . S
C229 C228 1.388 . S
C229 C230 1.390 . S
C230 C229 1.390 . S
C230 C231 1.394 . S
C230 C236 1.465 . S
C231 C226 1.399 . S
C231 C230 1.394 . S
C231 C232 1.516 . S
C232 C231 1.516 . S
C232 C233 1.502 . S
C232 C234 1.561 . S
C232 C235 1.526 . S
C233 H217 0.959 . S
C233 H218 0.959 . S
C233 H219 0.961 . S
C233 C232 1.502 . S
C234 H220 0.960 . S
C234 H221 0.961 . S
C234 H222 0.959 . S
C234 C232 1.561 . S
C235 C232 1.526 . S
C235 C236 1.396 . S
C235 C240 1.390 . S
C236 C230 1.465 . S
C236 C235 1.396 . S
C236 C237 1.399 . S
C237 H223 0.929 . S
C237 C236 1.399 . S
C237 C238 1.385 . S
C238 H224 0.931 . S
C238 C237 1.385 . S
C238 C239 1.389 . S
C239 C238 1.389 . S
C239 C240 1.387 . S
C240 H225 0.930 . S
C240 C235 1.390 . S
C240 C239 1.387 . S
H241 C253 0.930 . S
H242 C255 0.930 . S
H243 C256 0.930 . S
H244 C260 0.959 . S
H245 C260 0.959 . S
H246 C260 0.961 . S
H247 C261 0.960 . S
H248 C261 0.961 . S
H249 C261 0.959 . S
H250 C264 0.929 . S
H251 C265 0.931 . S
H252 C267 0.930 . S
C253 H241 0.930 . S
C253 C254 1.399 . S
C253 C258 1.399 . S
C254 C253 1.399 . S
C254 C255 1.376 . S
C255 H242 0.930 . S
C255 C254 1.376 . S
C255 C256 1.388 . S
C256 H243 0.930 . S
C256 C255 1.388 . S
C256 C257 1.390 . S
C257 C256 1.390 . S
C257 C258 1.394 . S
C257 C263 1.465 . S
C258 C253 1.399 . S
C258 C257 1.394 . S
C258 C259 1.516 . S
C259 C258 1.516 . S
C259 C260 1.502 . S
C259 C261 1.561 . S
C259 C262 1.526 . S
C260 H244 0.959 . S
C260 H245 0.959 . S
C260 H246 0.961 . S
C260 C259 1.502 . S
C261 H247 0.960 . S
C261 H248 0.961 . S
C261 H249 0.959 . S
C261 C259 1.561 . S
C262 C259 1.526 . S
C262 C263 1.396 . S
C262 C267 1.390 . S
C263 C257 1.465 . S
C263 C262 1.396 . S
C263 C264 1.399 . S
C264 H250 0.929 . S
C264 C263 1.399 . S
C264 C265 1.385 . S
C265 H251 0.931 . S
C265 C264 1.385 . S
C265 C266 1.389 . S
C266 C265 1.389 . S
C266 C267 1.387 . S
C267 H252 0.930 . S
C267 C262 1.390 . S
C267 C266 1.387 . S
H268 C280 0.930 . S
H269 C282 0.930 . S
H270 C283 0.930 . S
H271 C287 0.959 . S
H272 C287 0.959 . S
H273 C287 0.961 . S
H274 C288 0.960 . S
H275 C288 0.961 1_545 S
H276 C288 0.959 . S
H277 C291 0.929 1_565 S
H278 C292 0.931 . S
H279 C294 0.930 . S
C280 H268 0.930 . S
C280 C281 1.399 1_554 S
C280 C285 1.399 . S
C281 C280 1.399 1_556 S
C281 C282 1.377 . S
C282 H269 0.930 . S
C282 C281 1.377 . S
C282 C283 1.388 . S
C283 H270 0.930 . S
C283 C282 1.388 . S
C283 C284 1.390 . S
C284 C283 1.390 . S
C284 C285 1.394 1_556 S
C284 C290 1.465 1_565 S
C285 C280 1.399 . S
C285 C284 1.394 1_554 S
C285 C286 1.516 1_565 S
C286 C285 1.516 1_545 S
C286 C287 1.502 . S
C286 C288 1.561 1_545 S
C286 C289 1.526 . S
C287 H271 0.959 . S
C287 H272 0.959 . S
C287 H273 0.961 . S
C287 C286 1.502 . S
C288 H274 0.960 . S
C288 H275 0.961 1_565 S
C288 H276 0.959 . S
C288 C286 1.561 1_565 S
C289 C286 1.526 . S
C289 C290 1.396 1_554 S
C289 C294 1.390 . S
C290 C284 1.465 1_545 S
C290 C289 1.396 1_556 S
C290 C291 1.399 . S
C291 H277 0.929 1_545 S
C291 C290 1.399 . S
C291 C292 1.385 . S
C292 H278 0.931 . S
C292 C291 1.385 . S
C292 C293 1.389 . S
C293 C292 1.389 . S
C293 C294 1.387 1_556 S
C294 H279 0.930 . S
C294 C289 1.390 . S
C294 C293 1.387 1_554 S
H295 C307 0.930 . S
H296 C309 0.930 . S
H297 C310 0.930 . S
H298 C314 0.959 . S
H299 C314 0.959 . S
H300 C314 0.961 . S
H301 C315 0.960 . S
H302 C315 0.961 . S
H303 C315 0.959 . S
H304 C318 0.929 . S
H305 C319 0.931 . S
H306 C321 0.930 . S
C307 H295 0.930 . S
C307 C308 1.399 1_545 S
C307 C312 1.399 . S
C308 C307 1.399 1_565 S
C308 C309 1.376 . S
C309 H296 0.930 . S
C309 C308 1.376 . S
C309 C310 1.388 . S
C310 H297 0.930 . S
C310 C309 1.388 . S
C310 C311 1.390 . S
C311 C310 1.390 . S
C311 C312 1.394 1_565 S
C311 C317 1.465 . S
C312 C307 1.399 . S
C312 C311 1.394 1_545 S
C312 C313 1.516 . S
C313 C312 1.516 . S
C313 C314 1.502 . S
C313 C315 1.561 . S
C313 C316 1.526 . S
C314 H298 0.959 . S
C314 H299 0.959 . S
C314 H300 0.961 . S
C314 C313 1.502 . S
C315 H301 0.960 . S
C315 H302 0.961 . S
C315 H303 0.959 . S
C315 C313 1.561 . S
C316 C313 1.526 . S
C316 C317 1.396 1_545 S
C316 C321 1.390 . S
C317 C311 1.465 . S
C317 C316 1.396 1_565 S
C317 C318 1.399 . S
C318 H304 0.929 . S
C318 C317 1.399 . S
C318 C319 1.385 . S
C319 H305 0.931 . S
C319 C318 1.385 . S
C319 C320 1.389 . S
C320 C319 1.389 . S
C320 C321 1.387 1_565 S
C321 H306 0.930 . S
C321 C316 1.390 . S
C321 C320 1.387 1_545 S
H322 C334 0.930 . S
H323 C336 0.930 . S
H324 C337 0.930 . S
H325 C341 0.959 . S
H326 C341 0.959 1_455 S
H327 C341 0.961 . S
H328 C342 0.960 . S
H329 C342 0.961 . S
H330 C342 0.959 . S
H331 C345 0.929 . S
H332 C346 0.931 . S
H333 C348 0.930 . S
C334 H322 0.930 . S
C334 C335 1.399 1_554 S
C334 C339 1.399 . S
C335 C334 1.399 1_556 S
C335 C336 1.376 . S
C336 H323 0.930 . S
C336 C335 1.376 . S
C336 C337 1.388 . S
C337 H324 0.930 . S
C337 C336 1.388 . S
C337 C338 1.390 . S
C338 C337 1.390 . S
C338 C339 1.394 1_556 S
C338 C344 1.465 1_655 S
C339 C334 1.399 . S
C339 C338 1.394 1_554 S
C339 C340 1.516 1_655 S
C340 C339 1.516 1_455 S
C340 C341 1.502 1_455 S
C340 C342 1.561 . S
C340 C343 1.526 . S
C341 H325 0.959 . S
C341 H326 0.959 1_655 S
C341 H327 0.961 . S
C341 C340 1.502 1_655 S
C342 H328 0.960 . S
C342 H329 0.961 . S
C342 H330 0.959 . S
C342 C340 1.561 . S
C343 C340 1.526 . S
C343 C344 1.396 1_554 S
C343 C348 1.390 . S
C344 C338 1.465 1_455 S
C344 C343 1.396 1_556 S
C344 C345 1.399 . S
C345 H331 0.929 . S
C345 C344 1.399 . S
C345 C346 1.385 . S
C346 H332 0.931 . S
C346 C345 1.385 . S
C346 C347 1.389 . S
C347 C346 1.389 . S
C347 C348 1.387 1_556 S
C348 H333 0.930 . S
C348 C343 1.390 . S
C348 C347 1.387 1_554 S
H349 C361 0.930 . S
H350 C363 0.930 . S
H351 C364 0.930 . S
H352 C368 0.959 . S
H353 C368 0.959 . S
H354 C368 0.961 . S
H355 C369 0.960 1_455 S
H356 C369 0.961 . S
H357 C369 0.959 . S
H358 C372 0.929 . S
H359 C373 0.931 . S
H360 C375 0.930 . S
C361 H349 0.930 . S
C361 C362 1.399 . S
C361 C366 1.399 . S
C362 C361 1.399 . S
C362 C363 1.376 . S
C363 H350 0.930 . S
C363 C362 1.376 . S
C363 C364 1.388 . S
C364 H351 0.930 . S
C364 C363 1.388 . S
C364 C365 1.390 . S
C365 C364 1.390 . S
C365 C366 1.394 . S
C365 C371 1.465 1_455 S
C366 C361 1.399 . S
C366 C365 1.394 . S
C366 C367 1.516 1_455 S
C367 C366 1.516 1_655 S
C367 C368 1.502 . S
C367 C369 1.561 . S
C367 C370 1.526 . S
C368 H352 0.959 . S
C368 H353 0.959 . S
C368 H354 0.961 . S
C368 C367 1.502 . S
C369 H355 0.960 1_655 S
C369 H356 0.961 . S
C369 H357 0.959 . S
C369 C367 1.561 . S
C370 C367 1.526 . S
C370 C371 1.396 . S
C370 C375 1.390 . S
C371 C365 1.465 1_655 S
C371 C370 1.396 . S
C371 C372 1.399 . S
C372 H358 0.929 . S
C372 C371 1.399 . S
C372 C373 1.385 . S
C373 H359 0.931 . S
C373 C372 1.385 . S
C373 C374 1.389 . S
C374 C373 1.389 . S
C374 C375 1.387 . S
C375 H360 0.930 . S
C375 C370 1.390 . S
C375 C374 1.387 . S
H376 C388 0.930 . S
H377 C390 0.930 . S
H378 C391 0.930 . S
H379 C395 0.959 . S
H380 C395 0.959 . S
H381 C395 0.961 . S
H382 C396 0.960 1_655 S
H383 C396 0.961 1_655 S
H384 C396 0.959 . S
H385 C399 0.929 . S
H386 C400 0.931 . S
H387 C402 0.930 . S
C388 H376 0.930 . S
C388 C389 1.399 1_645 S
C388 C393 1.399 . S
C389 C388 1.399 1_465 S
C389 C390 1.376 . S
C390 H377 0.930 . S
C390 C389 1.376 . S
C390 C391 1.388 . S
C391 H378 0.930 . S
C391 C390 1.388 . S
C391 C392 1.390 . S
C392 C391 1.390 . S
C392 C393 1.394 1_465 S
C392 C398 1.465 . S
C393 C388 1.399 . S
C393 C392 1.394 1_645 S
C393 C394 1.516 . S
C394 C393 1.516 . S
C394 C395 1.502 . S
C394 C396 1.561 1_655 S
C394 C397 1.526 . S
C395 H379 0.959 . S
C395 H380 0.959 . S
C395 H381 0.961 . S
C395 C394 1.502 . S
C396 H382 0.960 1_455 S
C396 H383 0.961 1_455 S
C396 H384 0.959 . S
C396 C394 1.561 1_455 S
C397 C394 1.526 . S
C397 C398 1.396 1_645 S
C397 C402 1.390 . S
C398 C392 1.465 . S
C398 C397 1.396 1_465 S
C398 C399 1.399 . S
C399 H385 0.929 . S
C399 C398 1.399 . S
C399 C400 1.385 . S
C400 H386 0.931 . S
C400 C399 1.385 . S
C400 C401 1.389 . S
C401 C400 1.389 . S
C401 C402 1.387 1_465 S
C402 H387 0.930 . S
C402 C397 1.390 . S
C402 C401 1.387 1_645 S
H403 C415 0.930 . S
H404 C417 0.930 . S
H405 C418 0.930 . S
H406 C422 0.959 . S
H407 C422 0.959 . S
H408 C422 0.961 . S
H409 C423 0.960 . S
H410 C423 0.961 . S
H411 C423 0.959 . S
H412 C426 0.929 . S
H413 C427 0.931 . S
H414 C429 0.930 . S
C415 H403 0.930 . S
C415 C416 1.399 1_465 S
C415 C420 1.399 . S
C416 C415 1.399 1_645 S
C416 C417 1.376 . S
C417 H404 0.930 . S
C417 C416 1.376 . S
C417 C418 1.388 . S
C418 H405 0.930 . S
C418 C417 1.388 . S
C418 C419 1.390 . S
C419 C418 1.390 . S
C419 C420 1.394 1_645 S
C419 C425 1.465 . S
C420 C415 1.399 . S
C420 C419 1.394 1_465 S
C420 C421 1.516 . S
C421 C420 1.516 . S
C421 C422 1.502 . S
C421 C423 1.561 1_455 S
C421 C424 1.526 . S
C422 H406 0.959 . S
C422 H407 0.959 . S
C422 H408 0.961 . S
C422 C421 1.502 . S
C423 H409 0.960 . S
C423 H410 0.961 . S
C423 H411 0.959 . S
C423 C421 1.561 1_655 S
C424 C421 1.526 . S
C424 C425 1.396 1_465 S
C424 C429 1.390 . S
C425 C419 1.465 . S
C425 C424 1.396 1_645 S
C425 C426 1.399 . S
C426 H412 0.929 . S
C426 C425 1.399 . S
C426 C427 1.385 . S
C427 H413 0.931 . S
C427 C426 1.385 . S
C427 C428 1.389 . S
C428 C427 1.389 . S
C428 C429 1.387 1_645 S
C429 H414 0.930 . S
C429 C424 1.390 . S
C429 C428 1.387 1_465 S
H430 C442 0.930 . S
H431 C444 0.930 . S
H432 C445 0.930 . S
H433 C449 0.959 . S
H434 C449 0.959 . S
H435 C449 0.961 . S
H436 C450 0.960 . S
H437 C450 0.961 . S
H438 C450 0.959 . S
H439 C453 0.929 . S
H440 C454 0.931 . S
H441 C456 0.930 . S
C442 H430 0.930 . S
C442 C443 1.399 . S
C442 C447 1.399 . S
C443 C442 1.399 . S
C443 C444 1.376 . S
C444 H431 0.930 . S
C444 C443 1.376 . S
C444 C445 1.388 . S
C445 H432 0.930 . S
C445 C444 1.388 . S
C445 C446 1.390 . S
C446 C445 1.390 . S
C446 C447 1.394 . S
C446 C452 1.465 . S
C447 C442 1.399 . S
C447 C446 1.394 . S
C447 C448 1.516 . S
C448 C447 1.516 . S
C448 C449 1.502 . S
C448 C450 1.561 . S
C448 C451 1.526 . S
C449 H433 0.959 . S
C449 H434 0.959 . S
C449 H435 0.961 . S
C449 C448 1.502 . S
C450 H436 0.960 . S
C450 H437 0.961 . S
C450 H438 0.959 . S
C450 C448 1.561 . S
C451 C448 1.526 . S
C451 C452 1.396 . S
C451 C456 1.390 . S
C452 C446 1.465 . S
C452 C451 1.396 . S
C452 C453 1.399 . S
C453 H439 0.929 . S
C453 C452 1.399 . S
C453 C454 1.385 . S
C454 H440 0.931 . S
C454 C453 1.385 . S
C454 C455 1.389 . S
C455 C454 1.389 . S
C455 C456 1.387 . S
C456 H441 0.930 . S
C456 C451 1.390 . S
C456 C455 1.387 . S
H457 C469 0.930 . S
H458 C471 0.930 . S
H459 C472 0.930 . S
H460 C476 0.959 . S
H461 C476 0.959 . S
H462 C476 0.961 . S
H463 C477 0.960 . S
H464 C477 0.961 . S
H465 C477 0.959 . S
H466 C480 0.929 . S
H467 C481 0.931 . S
H468 C483 0.930 . S
C469 H457 0.930 . S
C469 C470 1.399 . S
C469 C474 1.399 . S
C470 C469 1.399 . S
C470 C471 1.376 . S
C471 H458 0.930 . S
C471 C470 1.376 . S
C471 C472 1.388 . S
C472 H459 0.930 . S
C472 C471 1.388 . S
C472 C473 1.390 . S
C473 C472 1.390 . S
C473 C474 1.394 . S
C473 C479 1.465 . S
C474 C469 1.399 . S
C474 C473 1.394 . S
C474 C475 1.516 . S
C475 C474 1.516 . S
C475 C476 1.502 . S
C475 C477 1.561 . S
C475 C478 1.526 . S
C476 H460 0.959 . S
C476 H461 0.959 . S
C476 H462 0.961 . S
C476 C475 1.502 . S
C477 H463 0.960 . S
C477 H464 0.961 . S
C477 H465 0.959 . S
C477 C475 1.561 . S
C478 C475 1.526 . S
C478 C479 1.396 . S
C478 C483 1.390 . S
C479 C473 1.465 . S
C479 C478 1.396 . S
C479 C480 1.399 . S
C480 H466 0.929 . S
C480 C479 1.399 . S
C480 C481 1.385 . S
C481 H467 0.931 . S
C481 C480 1.385 . S
C481 C482 1.389 . S
C482 C481 1.389 . S
C482 C483 1.387 . S
C483 H468 0.930 . S
C483 C478 1.390 . S
C483 C482 1.387 . S
C173 C82 3.565 . S
C185 C11 3.589 1_556 S
C200 C91 3.579 . S
C212 C2 3.580 1_554 S
C227 C56 0.173 . S
C239 C127 0.268 . S
C254 C47 0.282 . S
C266 C136 0.124 . S
C281 C16 0.997 1_556 S
C293 C7 0.867 . S
C308 C51 4.875 . S
C320 C42 4.875 1_565 S
C335 C96 0.956 1_556 S
C347 C87 0.920 . S
C362 C122 4.877 . S
C374 C131 4.873 . S
C389 C50 1.429 . S
C401 C19 1.454 1_565 S
C416 C10 1.447 1_545 S
C428 C59 1.428 . S
C443 C130 1.428 . S
C455 C99 1.456 . S
C470 C139 1.472 . S
C482 C90 1.430 . S
