# Generated by pormake.
# Topology wiv, (6)-cn, num edge types: 1
# Building blocks:
#     Node 0, Type 0, BuildingBlock: UKALOJ_clean_sbu_0, # of connection points: 6
#     Node 1, Type 0, BuildingBlock: UKALOJ_clean_sbu_0, # of connection points: 6
#     Node 2, Type 0, BuildingBlock: UKALOJ_clean_sbu_0, # of connection points: 6
#     Node 3, Type 0, BuildingBlock: UKALOJ_clean_sbu_0, # of connection points: 6
#     Node 4, Type 0, BuildingBlock: UKALOJ_clean_sbu_0, # of connection points: 6
#     Node 5, Type 0, BuildingBlock: UKALOJ_clean_sbu_0, # of connection points: 6
#     Node 6, Type 0, BuildingBlock: UKALOJ_clean_sbu_0, # of connection points: 6
#     Node 7, Type 0, BuildingBlock: UKALOJ_clean_sbu_0, # of connection points: 6
#     Node 8, Type 0, BuildingBlock: UKALOJ_clean_sbu_0, # of connection points: 6
#     Node 9, Type 0, BuildingBlock: UKALOJ_clean_sbu_0, # of connection points: 6
#     Node 10, Type 0, BuildingBlock: UKALOJ_clean_sbu_0, # of connection points: 6
#     Node 11, Type 0, BuildingBlock: UKALOJ_clean_sbu_0, # of connection points: 6
#     Node 12, Type 0, BuildingBlock: UKALOJ_clean_sbu_0, # of connection points: 6
#     Node 13, Type 0, BuildingBlock: UKALOJ_clean_sbu_0, # of connection points: 6
#     Node 14, Type 0, BuildingBlock: UKALOJ_clean_sbu_0, # of connection points: 6
#     Node 15, Type 0, BuildingBlock: UKALOJ_clean_sbu_0, # of connection points: 6
#     Edge 16, Type (0, 0), BuildingBlock: TEMPAE_clean_linker_10, # of connection points: 2
#     Edge 17, Type (0, 0), BuildingBlock: TEMPAE_clean_linker_10, # of connection points: 2
#     Edge 18, Type (0, 0), BuildingBlock: TEMPAE_clean_linker_10, # of connection points: 2
#     Edge 19, Type (0, 0), BuildingBlock: TEMPAE_clean_linker_10, # of connection points: 2
#     Edge 20, Type (0, 0), BuildingBlock: TEMPAE_clean_linker_10, # of connection points: 2
#     Edge 21, Type (0, 0), BuildingBlock: TEMPAE_clean_linker_10, # of connection points: 2
#     Edge 22, Type (0, 0), BuildingBlock: TEMPAE_clean_linker_10, # of connection points: 2
#     Edge 23, Type (0, 0), BuildingBlock: TEMPAE_clean_linker_10, # of connection points: 2
#     Edge 24, Type (0, 0), BuildingBlock: TEMPAE_clean_linker_10, # of connection points: 2
#     Edge 25, Type (0, 0), BuildingBlock: TEMPAE_clean_linker_10, # of connection points: 2
#     Edge 26, Type (0, 0), BuildingBlock: TEMPAE_clean_linker_10, # of connection points: 2
#     Edge 27, Type (0, 0), BuildingBlock: TEMPAE_clean_linker_10, # of connection points: 2
#     Edge 28, Type (0, 0), BuildingBlock: TEMPAE_clean_linker_10, # of connection points: 2
#     Edge 29, Type (0, 0), BuildingBlock: TEMPAE_clean_linker_10, # of connection points: 2
#     Edge 30, Type (0, 0), BuildingBlock: TEMPAE_clean_linker_10, # of connection points: 2
#     Edge 31, Type (0, 0), BuildingBlock: TEMPAE_clean_linker_10, # of connection points: 2
#     Edge 32, Type (0, 0), BuildingBlock: TEMPAE_clean_linker_10, # of connection points: 2
#     Edge 33, Type (0, 0), BuildingBlock: TEMPAE_clean_linker_10, # of connection points: 2
#     Edge 34, Type (0, 0), BuildingBlock: TEMPAE_clean_linker_10, # of connection points: 2
#     Edge 35, Type (0, 0), BuildingBlock: TEMPAE_clean_linker_10, # of connection points: 2
#     Edge 36, Type (0, 0), BuildingBlock: TEMPAE_clean_linker_10, # of connection points: 2
#     Edge 37, Type (0, 0), BuildingBlock: TEMPAE_clean_linker_10, # of connection points: 2
#     Edge 38, Type (0, 0), BuildingBlock: TEMPAE_clean_linker_10, # of connection points: 2
#     Edge 39, Type (0, 0), BuildingBlock: TEMPAE_clean_linker_10, # of connection points: 2
#     Edge 40, Type (0, 0), BuildingBlock: TEMPAE_clean_linker_10, # of connection points: 2
#     Edge 41, Type (0, 0), BuildingBlock: TEMPAE_clean_linker_10, # of connection points: 2
#     Edge 42, Type (0, 0), BuildingBlock: TEMPAE_clean_linker_10, # of connection points: 2
#     Edge 43, Type (0, 0), BuildingBlock: TEMPAE_clean_linker_10, # of connection points: 2
#     Edge 44, Type (0, 0), BuildingBlock: TEMPAE_clean_linker_10, # of connection points: 2
#     Edge 45, Type (0, 0), BuildingBlock: TEMPAE_clean_linker_10, # of connection points: 2
#     Edge 46, Type (0, 0), BuildingBlock: TEMPAE_clean_linker_10, # of connection points: 2
#     Edge 47, Type (0, 0), BuildingBlock: TEMPAE_clean_linker_10, # of connection points: 2
#     Edge 48, Type (0, 0), BuildingBlock: TEMPAE_clean_linker_10, # of connection points: 2
#     Edge 49, Type (0, 0), BuildingBlock: TEMPAE_clean_linker_10, # of connection points: 2
#     Edge 50, Type (0, 0), BuildingBlock: TEMPAE_clean_linker_10, # of connection points: 2
#     Edge 51, Type (0, 0), BuildingBlock: TEMPAE_clean_linker_10, # of connection points: 2
#     Edge 52, Type (0, 0), BuildingBlock: TEMPAE_clean_linker_10, # of connection points: 2
#     Edge 53, Type (0, 0), BuildingBlock: TEMPAE_clean_linker_10, # of connection points: 2
#     Edge 54, Type (0, 0), BuildingBlock: TEMPAE_clean_linker_10, # of connection points: 2
#     Edge 55, Type (0, 0), BuildingBlock: TEMPAE_clean_linker_10, # of connection points: 2
#     Edge 56, Type (0, 0), BuildingBlock: TEMPAE_clean_linker_10, # of connection points: 2
#     Edge 57, Type (0, 0), BuildingBlock: TEMPAE_clean_linker_10, # of connection points: 2
#     Edge 58, Type (0, 0), BuildingBlock: TEMPAE_clean_linker_10, # of connection points: 2
#     Edge 59, Type (0, 0), BuildingBlock: TEMPAE_clean_linker_10, # of connection points: 2
#     Edge 60, Type (0, 0), BuildingBlock: TEMPAE_clean_linker_10, # of connection points: 2
#     Edge 61, Type (0, 0), BuildingBlock: TEMPAE_clean_linker_10, # of connection points: 2
#     Edge 62, Type (0, 0), BuildingBlock: TEMPAE_clean_linker_10, # of connection points: 2
#     Edge 63, Type (0, 0), BuildingBlock: TEMPAE_clean_linker_10, # of connection points: 2
# Relax obj value: 0.115
# Max RMSD: 0.126
# Mean RMSD: 0.126
data_MOF--net-wiv--node1-UKALOJ_clean_sbu_0--edge1-TEMPAE_clean_linker_10
_symmetry_space_group_name_H-M    P1
_symmetry_Int_Tables_number       1
_symmetry_cell_setting            triclinic
loop_
_symmetry_equiv_pos_as_xyz
'x, y, z'
_cell_length_a     68.885981
_cell_length_b     68.928312
_cell_length_c     14.663986
_cell_angle_alpha  89.993615
_cell_angle_beta   90.071958
_cell_angle_gamma 89.974778
loop_
_atom_site_label
_atom_site_type_symbol
_atom_site_fract_x
_atom_site_fract_y
_atom_site_fract_z
_atom_type_partial_charge
Zn0 Zn 0.35331 0.1272 0.09992 0.0
O1 O 0.36203 0.13234 0.96685 0.0
C2 C 0.31954 0.10479 0.02833 0.0
Zn3 Zn 0.36005 0.09536 0.09066 0.0
C4 C 0.36871 0.11782 0.92368 0.0
O5 O 0.36931 0.10123 0.96108 0.0
C6 C 0.34625 0.10494 0.26966 0.0
O7 O 0.38871 0.101 0.13841 0.0
O8 O 0.38216 0.13214 0.1471 0.0
N9 N 0.36634 0.06622 0.0729 0.0
C10 C 0.37313 0.0524 0.13014 0.0
C11 C 0.36795 0.03883 0.00195 0.0
N12 N 0.36318 0.05771 -0.00665 0.0
N13 N 0.37416 0.03499 0.08732 0.0
C14 C 0.35393 0.17311 0.1002 0.0
C15 C 0.32979 0.17885 0.18696 0.0
N16 N 0.34598 0.15581 0.1222 0.0
N17 N 0.33095 0.15951 0.17572 0.0
N18 N 0.34403 0.18778 0.14024 0.0
H19 H 0.38075 0.1621 0.04432 0.0
H20 H 0.38067 0.18787 0.06929 0.0
H21 H 0.36761 0.17862 0.9724 0.0
C22 C 0.37189 0.1755 0.04387 0.0
C23 C 0.37962 0.05626 0.2261 0.0
H24 H 0.38464 0.07141 0.23413 0.0
H25 H 0.39154 0.04627 0.24589 0.0
H26 H 0.36721 0.054 0.27303 0.0
O27 O 0.35106 0.09022 0.22328 0.0
O28 O 0.34512 0.12143 0.23205 0.0
C29 C 0.39415 0.11822 0.15661 0.0
O30 O 0.32474 0.12173 0.05247 0.0
O31 O 0.33129 0.09066 0.03803 0.0
Zn32 Zn 0.12772 0.65995 0.86078 0.0
O33 O 0.13273 0.65126 -0.00769 0.0
C34 C 0.10802 0.69519 0.92909 0.0
Zn35 Zn 0.09559 0.65483 0.8685 0.0
C36 C 0.1179 0.64641 0.03821 0.0
O37 O 0.10125 0.64574 0.00103 0.0
C38 C 0.10573 0.6698 0.69287 0.0
O39 O 0.09891 0.62574 0.82114 0.0
O40 O 0.13029 0.63085 0.81443 0.0
N41 N 0.0661 0.65097 0.88801 0.0
C42 C 0.05231 0.64192 0.83801 0.0
C43 C 0.03821 0.65453 0.95295 0.0
N44 N 0.05727 0.65876 0.95933 0.0
N45 N 0.03464 0.64403 0.87728 0.0
C46 C 0.17296 0.66816 0.87923 0.0
C47 C 0.18122 0.66439 0.74026 0.0
N48 N 0.15672 0.66368 0.83201 0.0
N49 N 0.162 0.66133 0.74589 0.0
N50 N 0.18854 0.6687 0.82289 0.0
H51 H 0.15937 0.67983 -0.0008 0.0
H52 H 0.17488 0.65924 0.01825 0.0
H53 H 0.18556 0.68263 -0.00446 0.0
C54 C 0.17324 0.67289 0.97883 0.0
C55 C 0.0566 0.6295 0.7564 0.0
H56 H 0.06425 0.61622 0.77942 0.0
H57 H 0.04331 0.62479 0.72025 0.0
H58 H 0.06626 0.63728 0.70848 0.0
O59 O 0.09059 0.66451 0.73516 0.0
O60 O 0.12204 0.66896 0.73206 0.0
C61 C 0.1159 0.61954 0.80349 0.0
O62 O 0.12479 0.68898 0.9071 0.0
O63 O 0.09332 0.68413 0.91921 0.0
Zn64 Zn 0.65777 0.92432 0.0994 0.0
O65 O 0.62851 0.92133 0.14736 0.0
C66 C 0.67217 0.91375 0.27513 0.0
Zn67 Zn 0.66174 0.89204 0.10468 0.0
C68 C 0.62215 0.90456 0.16793 0.0
O69 O 0.63324 0.88995 0.15853 0.0
C70 C 0.69695 0.9111 0.03004 0.0
O71 O 0.65088 0.88737 0.97453 0.0
O72 O 0.64819 0.91918 0.96886 0.0
N73 N 0.66542 0.86294 0.13152 0.0
C74 C 0.66843 0.84661 0.08259 0.0
C75 C 0.66764 0.83844 0.22281 0.0
N76 N 0.66491 0.85771 0.21839 0.0
N77 N 0.66989 0.83104 0.13861 0.0
C78 C 0.64457 0.96765 0.12969 0.0
C79 C 0.65579 0.9813 0.0107 0.0
N80 N 0.65363 0.9538 0.08006 0.0
N81 N 0.66051 0.96236 0.00612 0.0
N82 N 0.64568 0.98516 0.08737 0.0
H83 H 0.6404 0.95037 0.25178 0.0
H84 H 0.61933 0.96255 0.21094 0.0
H85 H 0.63816 0.97617 0.26795 0.0
C86 C 0.63525 0.96398 0.2205 0.0
C87 C 0.67084 0.8462 0.98121 0.0
H88 H 0.67785 0.85977 0.95735 0.0
H89 H 0.65631 0.84515 0.94886 0.0
H90 H 0.67964 0.8335 0.95985 0.0
O91 O 0.68988 0.89448 0.04797 0.0
O92 O 0.68718 0.92634 0.04843 0.0
C93 C 0.6465 0.9027 0.93098 0.0
O94 O 0.66732 0.92877 0.23114 0.0
O95 O 0.67236 0.89743 0.23552 0.0
Zn96 Zn 0.92668 0.3655 0.88867 0.0
O97 O 0.92684 0.39476 0.83916 0.0
C98 C 0.91264 0.35393 0.71432 0.0
Zn99 Zn 0.89414 0.36477 0.88945 0.0
C100 C 0.91061 0.40327 0.82987 0.0
O101 O 0.89511 0.39411 0.84727 0.0
C102 C 0.90964 0.32716 0.95362 0.0
O103 O 0.89213 0.37402 0.02039 0.0
O104 O 0.92408 0.37583 0.02126 0.0
N105 N 0.86464 0.36615 0.87095 0.0
C106 C 0.84867 0.35872 0.91121 0.0
C107 C 0.83902 0.37743 0.80445 0.0
N108 N 0.85851 0.37767 0.80456 0.0
N109 N 0.83242 0.36566 0.87063 0.0
C110 C 0.97056 0.37385 0.84735 0.0
C111 C 0.98476 0.35963 0.95797 0.0
N112 N 0.95661 0.36564 0.89949 0.0
N113 N 0.96552 0.3568 0.96796 0.0
N114 N 0.98836 0.37024 0.88268 0.0
H115 H 0.96273 0.40166 0.79491 0.0
H116 H 0.97916 0.38884 0.72289 0.0
H117 H 0.95401 0.38167 0.72783 0.0
C118 C 0.96648 0.38708 0.76822 0.0
C119 C 0.8491 0.34552 -0.00779 0.0
H120 H 0.86226 0.34824 0.03392 0.0
H121 H 0.83589 0.3475 0.03449 0.0
H122 H 0.84954 0.33027 0.96814 0.0
O123 O 0.89359 0.33557 0.93564 0.0
O124 O 0.92556 0.33609 0.93898 0.0
C125 C 0.90786 0.3781 0.06112 0.0
O126 O 0.92854 0.35561 0.75684 0.0
O127 O 0.89666 0.35602 0.75582 0.0
Zn128 Zn 0.3621 0.39321 0.13069 0.0
O129 O 0.37131 0.38965 0.26216 0.0
C130 C 0.32644 0.41186 0.19954 0.0
Zn131 Zn 0.36627 0.42549 0.13585 0.0
C132 C 0.37573 0.40476 0.3069 0.0
O133 O 0.37592 0.42127 0.2685 0.0
C134 C 0.35119 0.41341 0.96137 0.0
O135 O 0.39546 0.42323 0.08769 0.0
O136 O 0.39119 0.39177 0.08328 0.0
N137 N 0.36911 0.45523 0.15045 0.0
C138 C 0.37482 0.46935 0.09231 0.0
C139 C 0.3685 0.48289 0.21937 0.0
N140 N 0.36519 0.46374 0.22923 0.0
N141 N 0.37449 0.48691 0.13391 0.0
C142 C 0.35517 0.34792 0.15622 0.0
C143 C 0.36642 0.33805 0.02892 0.0
N144 N 0.36044 0.3638 0.10822 0.0
N145 N 0.36731 0.35753 0.02917 0.0
N146 N 0.35886 0.33163 0.10777 0.0
H147 H 0.34216 0.36292 0.26982 0.0
H148 H 0.35985 0.34463 0.29909 0.0
H149 H 0.3362 0.33731 0.2611 0.0
C150 C 0.34778 0.34833 0.25204 0.0
C151 C 0.38158 0.46573 -0.00339 0.0
H152 H 0.39321 0.4761 0.97759 0.0
H153 H 0.36918 0.46771 0.94917 0.0
H154 H 0.38703 0.45076 -0.01183 0.0
O155 O 0.356 0.42887 0.00245 0.0
O156 O 0.35257 0.39725 0.00164 0.0
C157 C 0.40206 0.4064 0.0706 0.0
O158 O 0.333 0.39519 0.17806 0.0
O159 O 0.33706 0.42683 0.18798 0.0
Zn160 Zn 0.42552 0.65697 0.84533 0.0
O161 O 0.42084 0.62794 0.89166 0.0
C162 C 0.41643 0.6707 0.02446 0.0
Zn163 Zn 0.39354 0.66325 0.85523 0.0
C164 C 0.40372 0.62237 0.91098 0.0
O165 O 0.38972 0.63428 0.90247 0.0
C166 C 0.41456 0.69761 0.78368 0.0
O167 O 0.3881 0.65404 0.72258 0.0
O168 O 0.41945 0.64793 0.71569 0.0
N169 N 0.36463 0.66863 0.8841 0.0
C170 C 0.34795 0.67036 0.83615 0.0
C171 C 0.34073 0.6735 0.97672 0.0
N172 N 0.35998 0.6706 0.97123 0.0
N173 N 0.33274 0.67338 0.893 0.0
C174 C 0.46879 0.64424 0.88019 0.0
C175 C 0.48188 0.65008 0.75162 0.0
N176 N 0.45475 0.6514 0.82497 0.0
N177 N 0.46298 0.65499 0.7452 0.0
N178 N 0.48602 0.64336 0.8358 0.0
H179 H 0.45013 0.63254 -0.01475 0.0
H180 H 0.47517 0.62506 -0.00728 0.0
H181 H 0.46812 0.64936 0.02393 0.0
C182 C 0.46532 0.63728 0.97573 0.0
C183 C 0.34685 0.6702 0.73422 0.0
H184 H 0.35938 0.67822 0.70535 0.0
H185 H 0.34754 0.65498 0.70978 0.0
H186 H 0.33317 0.67692 0.70964 0.0
O187 O 0.39769 0.69198 0.80718 0.0
O188 O 0.42901 0.68619 0.794 0.0
C189 C 0.40279 0.64797 0.6787 0.0
O190 O 0.43106 0.66569 0.97799 0.0
O191 O 0.39993 0.67186 -0.01305 0.0
Zn192 Zn 0.66272 0.62607 0.09603 0.0
O193 O 0.65276 0.6306 0.22771 0.0
C194 C 0.69836 0.60753 0.16819 0.0
Zn195 Zn 0.65895 0.59374 0.10146 0.0
C196 C 0.64967 0.61518 0.2728 0.0
O197 O 0.64999 0.59877 0.23349 0.0
C198 C 0.6742 0.60433 0.92775 0.0
O199 O 0.62948 0.59635 0.05413 0.0
O200 O 0.63403 0.62778 0.04404 0.0
N201 N 0.65549 0.56415 0.12126 0.0
C202 C 0.6473 0.54987 0.07078 0.0
C203 C 0.65855 0.53681 0.19124 0.0
N204 N 0.66236 0.55594 0.19614 0.0
N205 N 0.64905 0.5324 0.11334 0.0
C206 C 0.66913 0.67153 0.11734 0.0
C207 C 0.66734 0.67973 0.97733 0.0
N208 N 0.6659 0.6552 0.06877 0.0
N209 N 0.66477 0.66044 0.98202 0.0
N210 N 0.6701 0.68712 0.06122 0.0
H211 H 0.67972 0.65847 0.24084 0.0
H212 H 0.65797 0.67266 0.25287 0.0
H213 H 0.68098 0.68477 0.23861 0.0
C214 C 0.67228 0.67193 0.21831 0.0
C215 C 0.63814 0.55323 0.9793 0.0
H216 H 0.64196 0.56753 0.95098 0.0
H217 H 0.62212 0.553 -0.01327 0.0
H218 H 0.64258 0.54175 0.93057 0.0
O219 O 0.66872 0.58933 0.97025 0.0
O220 O 0.67326 0.62078 0.96592 0.0
C221 C 0.62301 0.61314 0.03408 0.0
O222 O 0.69106 0.62405 0.15013 0.0
O223 O 0.68861 0.5922 0.15116 0.0
Zn224 Zn 0.62852 0.35498 0.84953 0.0
O225 O 0.63304 0.36292 0.71596 0.0
C226 C 0.60583 0.32109 0.78049 0.0
Zn227 Zn 0.59672 0.36141 0.84528 0.0
C228 C 0.61848 0.37037 0.6758 0.0
O229 O 0.60225 0.37163 0.71633 0.0
C230 C 0.60681 0.34761 0.02165 0.0
O231 O 0.60254 0.38961 0.89855 0.0
O232 O 0.63395 0.38416 0.89115 0.0
N233 N 0.56759 0.3677 0.83036 0.0
C234 C 0.55485 0.3775 0.88322 0.0
C235 C 0.53904 0.36621 0.77001 0.0
N236 N 0.5577 0.36077 0.76008 0.0
N237 N 0.53678 0.37668 0.8469 0.0
C238 C 0.67441 0.35514 0.8476 0.0
C239 C 0.67996 0.33086 0.93396 0.0
N240 N 0.65704 0.34741 0.87003 0.0
N241 N 0.66062 0.33228 0.92318 0.0
N242 N 0.68899 0.345 0.88714 0.0
H243 H 0.66339 0.38163 0.78785 0.0
H244 H 0.68885 0.38216 0.81976 0.0
H245 H 0.68109 0.36884 0.72101 0.0
C246 C 0.67698 0.37309 0.79136 0.0
C247 C 0.56063 0.38936 0.96473 0.0
H248 H 0.56927 0.40197 0.94131 0.0
H249 H 0.548 0.39518 0.00241 0.0
H250 H 0.56984 0.38067 0.01135 0.0
O251 O 0.59173 0.35142 0.97573 0.0
O252 O 0.6233 0.34763 -0.01641 0.0
C253 C 0.6199 0.39558 0.90827 0.0
O254 O 0.62273 0.32612 0.80608 0.0
O255 O 0.59184 0.33304 0.78873 0.0
Zn256 Zn 0.85838 0.62753 0.60669 0.0
O257 O 0.86899 0.63267 0.47735 0.0
C258 C 0.82347 0.60791 0.53084 0.0
Zn259 Zn 0.8628 0.59533 0.60046 0.0
C260 C 0.87366 0.61756 0.43294 0.0
O261 O 0.87234 0.60092 0.46964 0.0
C262 C 0.84843 0.60544 0.77648 0.0
O263 O 0.89193 0.59885 0.64901 0.0
O264 O 0.88688 0.63015 0.66047 0.0
N265 N 0.86772 0.56602 0.58071 0.0
C266 C 0.87757 0.55264 0.62997 0.0
C267 C 0.86652 0.53837 0.51209 0.0
N268 N 0.86095 0.55709 0.50743 0.0
N269 N 0.87712 0.53509 0.58802 0.0
C270 C 0.85143 0.67298 0.58692 0.0
C271 C 0.85089 0.68061 0.72784 0.0
N272 N 0.85405 0.65647 0.63503 0.0
N273 N 0.85373 0.66137 0.72236 0.0
N274 N 0.8494 0.68832 0.64389 0.0
H275 H 0.86472 0.67416 0.45573 0.0
H276 H 0.84189 0.68691 0.4628 0.0
H277 H 0.84244 0.66061 0.45935 0.0
C278 C 0.8499 0.67378 0.4852 0.0
C279 C 0.88696 0.55672 0.72039 0.0
H280 H 0.88103 0.56987 0.75281 0.0
H281 H 0.90272 0.55917 0.70993 0.0
H282 H 0.88502 0.54426 0.76742 0.0
O283 O 0.85331 0.59043 0.73253 0.0
O284 O 0.84799 0.62171 0.73663 0.0
C285 C 0.89813 0.61566 0.66985 0.0
O286 O 0.83029 0.62459 0.54986 0.0
O287 O 0.83345 0.59277 0.54876 0.0
Zn288 Zn 0.62382 0.16033 0.35647 0.0
O289 O 0.62883 0.15216 0.48932 0.0
C290 C 0.6041 0.19567 0.42364 0.0
Zn291 Zn 0.59167 0.15556 0.36162 0.0
C292 C 0.61395 0.1458 0.53074 0.0
O293 O 0.59752 0.1456 0.4914 0.0
C294 C 0.60158 0.16831 0.18463 0.0
O295 O 0.59495 0.12664 0.31104 0.0
O296 O 0.62656 0.13076 0.31676 0.0
N297 N 0.56231 0.15146 0.38252 0.0
C298 C 0.5478 0.14569 0.32665 0.0
C299 C 0.53518 0.15187 0.45596 0.0
N300 N 0.55439 0.15527 0.46277 0.0
N301 N 0.53055 0.14595 0.37104 0.0
C302 C 0.66913 0.16801 0.3751 0.0
C303 C 0.6772 0.16567 0.23517 0.0
N304 N 0.65281 0.16414 0.32736 0.0
N305 N 0.65797 0.16267 0.24064 0.0
N306 N 0.68463 0.16905 0.31851 0.0
H307 H 0.67034 0.15761 0.51201 0.0
H308 H 0.68243 0.18053 0.49479 0.0
H309 H 0.65614 0.17927 0.4972 0.0
C310 C 0.66959 0.1717 0.47564 0.0
C311 C 0.55076 0.13895 0.23036 0.0
H312 H 0.56552 0.13305 0.22044 0.0
H313 H 0.53998 0.12765 0.21197 0.0
H314 H 0.54896 0.15146 0.18346 0.0
O315 O 0.58638 0.1652 0.2306 0.0
O316 O 0.61802 0.16788 0.22302 0.0
C317 C 0.61202 0.11993 0.30097 0.0
O318 O 0.62076 0.18966 0.39881 0.0
O319 O 0.58943 0.18452 0.41519 0.0
Zn320 Zn 0.15887 0.42281 0.60709 0.0
O321 O 0.12988 0.41877 0.65535 0.0
C322 C 0.17424 0.41275 0.78256 0.0
Zn323 Zn 0.16456 0.39082 0.61464 0.0
C324 C 0.12406 0.40168 0.67353 0.0
O325 O 0.13565 0.38752 0.66239 0.0
C326 C 0.19935 0.41119 0.54509 0.0
O327 O 0.15561 0.38592 0.48334 0.0
O328 O 0.14966 0.41729 0.47472 0.0
N329 N 0.16917 0.36188 0.64184 0.0
C330 C 0.1723 0.34568 0.59223 0.0
C331 C 0.1721 0.3373 0.73223 0.0
N332 N 0.16906 0.35654 0.72861 0.0
N333 N 0.17417 0.33007 0.64763 0.0
C334 C 0.14495 0.46564 0.63918 0.0
C335 C 0.15745 0.48029 0.52548 0.0
N336 N 0.15439 0.45218 0.58884 0.0
N337 N 0.1621 0.46136 0.5183 0.0
N338 N 0.14674 0.48343 0.60089 0.0
H339 H 0.11925 0.45329 0.69565 0.0
H340 H 0.12764 0.47391 0.75745 0.0
H341 H 0.14026 0.45098 0.76699 0.0
C342 C 0.13247 0.46086 0.71995 0.0
C343 C 0.1745 0.34545 0.49071 0.0
H344 H 0.1822 0.35871 0.46771 0.0
H345 H 0.15989 0.34531 0.4588 0.0
H346 H 0.18263 0.33242 0.46795 0.0
O347 O 0.19338 0.39436 0.56706 0.0
O348 O 0.18811 0.42574 0.55543 0.0
C349 C 0.15049 0.40068 0.43751 0.0
O350 O 0.16863 0.42779 0.74036 0.0
O351 O 0.17375 0.39647 0.7432 0.0
Zn352 Zn 0.393 0.85809 0.35708 0.0
O353 O 0.38745 0.86727 0.48953 0.0
C354 C 0.41376 0.82352 0.42842 0.0
Zn355 Zn 0.42501 0.86414 0.36765 0.0
C356 C 0.40217 0.87318 0.53388 0.0
O357 O 0.41886 0.87308 0.49742 0.0
C358 C 0.41591 0.85061 0.18823 0.0
O359 O 0.42069 0.89325 0.32207 0.0
O360 O 0.38953 0.8872 0.31004 0.0
N361 N 0.45426 0.86934 0.38909 0.0
C362 C 0.46843 0.87614 0.3339 0.0
C363 C 0.48141 0.87014 0.46273 0.0
N364 N 0.46241 0.86566 0.46906 0.0
N365 N 0.48568 0.87668 0.37843 0.0
C366 C 0.3474 0.85069 0.37397 0.0
C367 C 0.34023 0.84914 0.23267 0.0
N368 N 0.36408 0.85309 0.32681 0.0
N369 N 0.35945 0.85212 0.23923 0.0
N370 N 0.33223 0.8482 0.31615 0.0
H371 H 0.35914 0.84199 0.50322 0.0
H372 H 0.34634 0.86473 0.5036 0.0
H373 H 0.33287 0.84228 0.49835 0.0
C374 C 0.34629 0.84976 0.47578 0.0
C375 C 0.4651 0.88313 0.23825 0.0
H376 H 0.45007 0.88839 0.22889 0.0
H377 H 0.47534 0.89499 0.22085 0.0
H378 H 0.46744 0.87091 0.19025 0.0
O379 O 0.43056 0.85553 0.23487 0.0
O380 O 0.39942 0.84948 0.2256 0.0
C381 C 0.40364 0.89899 0.3023 0.0
O382 O 0.39688 0.82924 0.40507 0.0
O383 O 0.42822 0.83487 0.41809 0.0
Zn384 Zn 0.86321 0.92563 0.61813 0.0
O385 O 0.89242 0.92323 0.56873 0.0
C386 C 0.85063 0.91463 0.44279 0.0
Zn387 Zn 0.86034 0.8932 0.61589 0.0
C388 C 0.89976 0.90649 0.55673 0.0
O389 O 0.88951 0.89152 0.57154 0.0
C390 C 0.82404 0.91148 0.68384 0.0
O391 O 0.86969 0.88876 0.74662 0.0
O392 O 0.8731 0.92058 0.7497 0.0
N393 N 0.85755 0.86412 0.58793 0.0
C394 C 0.85338 0.84782 0.63506 0.0
C395 C 0.85715 0.83966 0.49589 0.0
N396 N 0.85994 0.8589 0.50174 0.0
N397 N 0.853 0.83228 0.57849 0.0
C398 C 0.87537 0.96899 0.58615 0.0
C399 C 0.86222 0.98325 0.69932 0.0
N400 N 0.86629 0.95524 0.63619 0.0
N401 N 0.85816 0.96418 0.7064 0.0
N402 N 0.87296 0.98671 0.62433 0.0
H403 H 0.90204 0.95841 0.53139 0.0
H404 H 0.89188 0.97776 0.46624 0.0
H405 H 0.8813 0.95381 0.46063 0.0
C406 C 0.88821 0.96464 0.506 0.0
C407 C 0.84883 0.84739 0.7348 0.0
H408 H 0.86257 0.84576 0.77364 0.0
H409 H 0.83921 0.83498 0.75142 0.0
H410 H 0.84185 0.86118 0.75596 0.0
O411 O 0.83148 0.89508 0.66454 0.0
O412 O 0.83374 0.92693 0.66888 0.0
C413 C 0.8745 0.90414 0.78856 0.0
O414 O 0.85372 0.93009 0.48679 0.0
O415 O 0.85144 0.8984 0.48298 0.0
Zn416 Zn 0.88949 0.16278 0.35619 0.0
O417 O 0.88436 0.15227 0.22662 0.0
C418 C 0.9086 0.19817 0.2846 0.0
Zn419 Zn 0.9217 0.15857 0.34941 0.0
C420 C 0.89952 0.14806 0.18158 0.0
O421 O 0.9162 0.14986 0.21752 0.0
C422 C 0.91157 0.17205 0.52654 0.0
O423 O 0.91845 0.12903 0.39286 0.0
O424 O 0.88724 0.13422 0.40866 0.0
N425 N 0.95114 0.15456 0.32943 0.0
C426 C 0.96539 0.14764 0.38401 0.0
C427 C 0.97834 0.15471 0.25646 0.0
N428 N 0.95927 0.15893 0.2503 0.0
N429 N 0.98267 0.14767 0.33984 0.0
C430 C 0.84407 0.16957 0.33622 0.0
C431 C 0.83616 0.16903 0.47675 0.0
N432 N 0.8605 0.16665 0.38467 0.0
N433 N 0.85544 0.16631 0.47177 0.0
N434 N 0.8286 0.17111 0.39271 0.0
H435 H 0.8428 0.15726 0.20288 0.0
H436 H 0.83051 0.18026 0.21329 0.0
H437 H 0.85681 0.17921 0.21052 0.0
C438 C 0.84346 0.17184 0.23477 0.0
C439 C 0.96214 0.14002 0.47861 0.0
H440 H 0.9723 0.12794 0.49387 0.0
H441 H 0.96469 0.15187 0.52838 0.0
H442 H 0.9471 0.13486 0.4878 0.0
O443 O 0.92651 0.16692 0.4827 0.0
O444 O 0.89532 0.173 0.48649 0.0
C445 C 0.90171 0.12286 0.41528 0.0
O446 O 0.89196 0.19097 0.30098 0.0
O447 O 0.92385 0.18835 0.30267 0.0
Zn448 Zn 0.15966 0.12617 0.59858 0.0
O449 O 0.15097 0.13137 0.73033 0.0
C450 C 0.1943 0.10562 0.66937 0.0
Zn451 Zn 0.15384 0.09426 0.60678 0.0
C452 C 0.1455 0.11674 0.77604 0.0
O453 O 0.14428 0.10018 0.73853 0.0
C454 C 0.1695 0.10401 0.43133 0.0
O455 O 0.12496 0.09817 0.55637 0.0
O456 O 0.13064 0.12946 0.55133 0.0
N457 N 0.14881 0.06508 0.62789 0.0
C458 C 0.1404 0.05103 0.57699 0.0
C459 C 0.15025 0.03787 0.69997 0.0
N460 N 0.1548 0.05683 0.70434 0.0
N461 N 0.14113 0.03366 0.62087 0.0
C462 C 0.16875 0.17102 0.61922 0.0
C463 C 0.16642 0.17961 0.47991 0.0
N464 N 0.16429 0.155 0.57054 0.0
N465 N 0.16284 0.16047 0.4842 0.0
N466 N 0.17017 0.18664 0.56364 0.0
H467 H 0.15865 0.17229 0.75658 0.0
H468 H 0.18206 0.18341 0.73916 0.0
H469 H 0.17966 0.1572 0.74028 0.0
C470 C 0.17265 0.17102 0.71966 0.0
C471 C 0.13204 0.05441 0.4838 0.0
H472 H 0.13669 0.0684 0.45475 0.0
H473 H 0.11598 0.05491 0.48873 0.0
H474 H 0.13627 0.04252 0.43685 0.0
O475 O 0.1642 0.089 0.47455 0.0
O476 O 0.16865 0.1204 0.46956 0.0
C477 C 0.1191 0.1153 0.53912 0.0
O478 O 0.18857 0.12246 0.64588 0.0
O479 O 0.18284 0.09122 0.66014 0.0
Zn480 Zn 0.09452 0.862 0.3389 0.0
O481 O 0.09741 0.89045 0.39445 0.0
C482 C 0.10543 0.84702 0.51231 0.0
Zn483 Zn 0.12678 0.85793 0.34308 0.0
C484 C 0.11429 0.89762 0.40418 0.0
O485 O 0.12908 0.88737 0.38523 0.0
C486 C 0.10734 0.82243 0.2734 0.0
O487 O 0.13126 0.86608 0.21152 0.0
O488 O 0.09993 0.87265 0.20764 0.0
N489 N 0.15595 0.85456 0.37096 0.0
C490 C 0.17227 0.85051 0.32354 0.0
C491 C 0.18049 0.85389 0.46289 0.0
N492 N 0.16123 0.85669 0.45727 0.0
N493 N 0.18786 0.84999 0.38001 0.0
C494 C 0.05128 0.87507 0.3718 0.0
C495 C 0.03751 0.86529 0.25019 0.0
N496 N 0.06505 0.8664 0.32011 0.0
N497 N 0.05641 0.86041 0.24458 0.0
N498 N 0.03377 0.87463 0.32912 0.0
H499 H 0.0684 0.87741 0.49559 0.0
H500 H 0.05686 0.89922 0.45953 0.0
H501 H 0.04263 0.88017 0.5111 0.0
C502 C 0.055 0.88328 0.46499 0.0
C503 C 0.17262 0.84618 0.22358 0.0
H504 H 0.17362 0.86003 0.18531 0.0
H505 H 0.18532 0.83702 0.20582 0.0
H506 H 0.15903 0.83875 0.20289 0.0
O507 O 0.12393 0.82859 0.29894 0.0
O508 O 0.09253 0.83341 0.28139 0.0
C509 C 0.11629 0.87151 0.16799 0.0
O510 O 0.08988 0.85061 0.46924 0.0
O511 O 0.1216 0.84947 0.47354 0.0
C512 C 0.41421 0.93362 0.28176 0.0
C513 C 0.40016 0.91911 0.26955 0.0
C514 C 0.41077 0.95282 0.25331 0.0
C515 C 0.39296 0.9576 0.21023 0.0
C516 C 0.37889 0.94292 0.19615 0.0
C517 C 0.38259 0.92393 0.22653 0.0
C518 C 0.42608 0.96806 0.27036 0.0
C519 C 0.35988 0.94726 0.14899 0.0
C520 C 0.37455 1.00981 0.20842 0.0
C521 C 0.37985 0.01608 0.12089 0.0
C522 C 0.3792 0.99103 0.23922 0.0
C523 C 0.38895 0.97796 0.18032 0.0
C524 C 0.39422 0.98416 0.09166 0.0
C525 C 0.38964 1.00311 0.06321 0.0
C526 C 0.37331 0.98503 0.33426 0.0
C527 C 0.40439 0.97065 0.02618 0.0
H528 H 0.42781 0.93004 0.31502 0.0
H529 H 0.37173 0.91278 0.21589 0.0
H530 H 0.43055 0.97478 0.20494 0.0
H531 H 0.42002 0.97978 0.31369 0.0
H532 H 0.43916 0.96201 0.30449 0.0
H533 H 0.35066 0.93414 0.14141 0.0
H534 H 0.35167 0.9583 0.18821 0.0
H535 H 0.36265 0.9534 0.0803 0.0
H536 H 0.36625 0.01934 0.25207 0.0
H537 H 0.39359 1.00781 -0.00479 0.0
H538 H 0.38607 0.97937 0.37209 0.0
H539 H 0.36248 0.97315 0.3305 0.0
H540 H 0.36692 0.99724 0.37359 0.0
H541 H 0.41814 0.96534 0.05671 0.0
H542 H 0.40773 0.97776 0.96005 0.0
H543 H 0.39516 0.95776 0.01288 0.0
C544 C 0.93214 0.60374 0.6975 0.0
C545 C 0.9182 0.61851 0.70461 0.0
C546 C 0.95141 0.60675 0.72628 0.0
C547 C 0.95683 0.62488 0.76407 0.0
C548 C 0.94268 0.63965 0.77359 0.0
C549 C 0.92361 0.63633 0.74339 0.0
C550 C 0.96607 0.59066 0.71461 0.0
C551 C 0.94772 0.65909 0.81476 0.0
C552 C 1.00268 0.62945 0.90835 0.0
C553 C 0.0157 0.6379 0.84668 0.0
C554 C 0.98361 0.62473 0.882 0.0
C555 C 0.97738 0.62867 0.79175 0.0
C556 C 0.99054 0.63713 0.72905 0.0
C557 C 1.00945 0.64185 0.75762 0.0
C558 C 0.97001 0.61596 0.9513 0.0
C559 C 0.9845 0.64163 0.63234 0.0
H560 H 0.9281 0.58993 0.66768 0.0
H561 H 0.9129 0.64777 0.75011 0.0
H562 H 0.97779 0.59548 0.66802 0.0
H563 H 0.97293 0.58717 0.7811 0.0
H564 H 0.95945 0.57723 0.68647 0.0
H565 H 0.93489 0.66878 0.82043 0.0
H566 H 0.95405 0.65707 0.88372 0.0
H567 H 0.95884 0.66642 0.77235 0.0
H568 H 1.00744 0.62669 0.97761 0.0
H569 H 0.01923 0.64912 0.711 0.0
H570 H 0.96408 0.60205 0.92531 0.0
H571 H 0.9575 0.62581 0.96273 0.0
H572 H 0.97726 0.61323 0.01778 0.0
H573 H 0.97848 0.62846 0.59932 0.0
H574 H 0.99678 0.64708 0.59052 0.0
H575 H 0.97286 0.65277 0.63256 0.0
C576 C 0.62255 1.00709 0.16845 0.0
C577 C 0.63934 1.00432 0.11569 0.0
C578 C 0.61708 0.02568 0.19888 0.0
C579 C 0.62801 0.0421 0.17193 0.0
C580 C 0.64427 0.03956 0.11417 0.0
C581 C 0.64984 0.02076 0.08786 0.0
C582 C 0.5998 0.02769 0.26143 0.0
C583 C 0.65596 0.0567 0.08103 0.0
C584 C 0.60523 0.09239 0.19462 0.0
C585 C 0.61516 0.09977 0.27045 0.0
C586 C 0.60934 0.07369 0.16111 0.0
C587 C 0.62305 0.06183 0.20715 0.0
C588 C 0.63257 0.06909 0.28581 0.0
C589 C 0.62882 0.08811 0.31525 0.0
C590 C 0.59953 0.06691 0.07473 0.0
C591 C 0.64683 0.05679 0.33865 0.0
H592 H 0.61351 0.99486 0.18572 0.0
H593 H 0.66264 0.0189 0.04586 0.0
H594 H 0.60434 0.03469 0.32618 0.0
H595 H 0.58868 0.03717 0.22971 0.0
H596 H 0.59303 0.01347 0.2776 0.0
H597 H 0.66698 0.05246 0.0295 0.0
H598 H 0.64622 0.06779 0.05059 0.0
H599 H 0.66353 0.0636 0.13938 0.0
H600 H 0.59484 0.10155 0.15939 0.0
H601 H 0.63642 0.09384 0.37417 0.0
H602 H 0.59155 0.05321 0.08729 0.0
H603 H 0.61064 0.06385 0.02192 0.0
H604 H 0.5892 0.07786 0.04732 0.0
H605 H 0.64006 0.04272 0.35712 0.0
H606 H 0.65187 0.06405 0.40203 0.0
H607 H 0.65966 0.05355 0.29569 0.0
C608 C 0.02043 0.38465 0.91266 0.0
C609 C 1.00728 0.3762 0.85151 0.0
C610 C 0.03933 0.38966 0.88514 0.0
C611 C 0.04523 0.38607 0.79414 0.0
C612 C 0.03195 0.37753 0.73207 0.0
C613 C 0.01323 0.37247 0.76189 0.0
C614 C 0.05308 0.39845 0.95386 0.0
C615 C 0.03763 0.37342 0.63457 0.0
C616 C 0.08964 0.41246 0.7005 0.0
C617 C 0.10399 0.39805 0.70649 0.0
C618 C 0.07046 0.4088 0.72883 0.0
C619 C 0.06556 0.39037 0.765 0.0
C620 C 0.08007 0.3759 0.77255 0.0
C621 C 0.09903 0.37987 0.7428 0.0
C622 C 0.05539 0.42455 0.71891 0.0
C623 C 0.07555 0.35615 0.81177 0.0
H624 H 0.01588 0.38725 0.98231 0.0
H625 H 1.00334 0.3652 0.71569 0.0
H626 H 0.06583 0.38881 0.96328 0.0
H627 H 0.05859 0.41258 0.92847 0.0
H628 H 0.0461 0.40078 0.02123 0.0
H629 H 0.02527 0.36783 0.59354 0.0
H630 H 0.04322 0.38681 0.60186 0.0
H631 H 0.0495 0.36254 0.63302 0.0
H632 H 0.0933 0.42651 0.67217 0.0
H633 H 0.11002 0.36867 0.74828 0.0
H634 H 0.0488 0.42783 0.78618 0.0
H635 H 0.04352 0.41951 0.67347 0.0
H636 H 0.06155 0.43815 0.69038 0.0
H637 H 0.06952 0.3577 0.8815 0.0
H638 H 0.08858 0.34666 0.81512 0.0
H639 H 0.06436 0.34884 0.76956 0.0
C640 C 0.38897 0.51927 0.15741 0.0
C641 C 0.37958 0.50595 0.09996 0.0
C642 C 0.3934 0.53815 0.12773 0.0
C643 C 0.38836 0.54393 0.03807 0.0
C644 C 0.37888 0.53056 0.97965 0.0
C645 C 0.37439 0.51184 0.01165 0.0
C646 C 0.40326 0.55201 0.19272 0.0
C647 C 0.37323 0.53612 0.88364 0.0
C648 C 0.38229 0.59777 -0.01368 0.0
C649 C 0.40003 0.60236 0.94459 0.0
C650 C 0.37841 0.57891 0.01785 0.0
C651 C 0.39249 0.56413 0.00635 0.0
C652 C 0.41046 0.56868 0.96447 0.0
C653 C 0.41407 0.58776 0.93476 0.0
C654 C 0.35922 0.57482 0.06363 0.0
C655 C 0.42579 0.55333 0.95023 0.0
H656 H 0.39285 0.51485 0.22597 0.0
H657 H 0.3664 0.50202 0.96813 0.0
H658 H 0.41719 0.55707 0.16324 0.0
H659 H 0.39403 0.56502 0.20317 0.0
H660 H 0.40623 0.54527 0.26015 0.0
H661 H 0.36686 0.52376 0.84525 0.0
H662 H 0.36248 0.5481 0.88539 0.0
H663 H 0.38611 0.5415 0.84601 0.0
H664 H 0.37142 0.609 -0.00488 0.0
H665 H 0.4278 0.59117 0.90253 0.0
H666 H 0.36173 0.56905 0.13331 0.0
H667 H 0.35118 0.56355 0.025 0.0
H668 H 0.34995 0.58797 0.06871 0.0
H669 H 0.43008 0.54694 0.01671 0.0
H670 H 0.43897 0.55917 0.91636 0.0
H671 H 0.41984 0.54139 0.90782 0.0
C672 C 0.58859 0.60158 0.01317 0.0
C673 C 0.60275 0.616 0.00142 0.0
C674 C 0.56915 0.60483 -0.01281 0.0
C675 C 0.5638 0.62278 0.94715 0.0
C676 C 0.57816 0.63716 0.93308 0.0
C677 C 0.59736 0.63366 0.9609 0.0
C678 C 0.55425 0.5892 0.00424 0.0
C679 C 0.57323 0.65638 0.88923 0.0
C680 C 0.51746 0.62736 0.80634 0.0
C681 C 0.50496 0.63704 0.86668 0.0
C682 C 0.53644 0.62221 0.8322 0.0
C683 C 0.54318 0.62678 0.92093 0.0
C684 C 0.53055 0.63631 0.98269 0.0
C685 C 0.51173 0.64155 0.95444 0.0
C686 C 0.54947 0.61235 0.76365 0.0
C687 C 0.5371 0.64145 0.07794 0.0
H688 H 0.5926 0.58792 0.04467 0.0
H689 H 0.60821 0.64484 0.95085 0.0
H690 H 0.54289 0.59475 0.05107 0.0
H691 H 0.54694 0.5852 0.93947 0.0
H692 H 0.56076 0.57594 0.03457 0.0
H693 H 0.5862 0.66575 0.88009 0.0
H694 H 0.56642 0.65395 0.82157 0.0
H695 H 0.56253 0.66428 0.9318 0.0
H696 H 0.51237 0.62399 0.73821 0.0
H697 H 0.50258 0.64975 0.00028 0.0
H698 H 0.55527 0.59863 0.79231 0.0
H699 H 0.56208 0.62181 0.74832 0.0
H700 H 0.5418 0.60906 0.69879 0.0
H701 H 0.54318 0.62847 0.11251 0.0
H702 H 0.52507 0.64733 0.12011 0.0
H703 H 0.54881 0.65247 0.07462 0.0
C704 C 0.65448 0.49694 0.11958 0.0
C705 C 0.64398 0.51283 0.08481 0.0
C706 C 0.65003 0.47777 0.09448 0.0
C707 C 0.63507 0.47422 0.03044 0.0
C708 C 0.62425 0.49005 -0.00442 0.0
C709 C 0.62843 0.50903 0.02524 0.0
C710 C 0.66141 0.46129 0.13649 0.0
C711 C 0.60837 0.48698 0.926 0.0
C712 C 0.63845 0.42661 0.89913 0.0
C713 C 0.62371 0.4156 0.93964 0.0
C714 C 0.64193 0.44586 0.92642 0.0
C715 C 0.63101 0.45399 -0.00113 0.0
C716 C 0.61641 0.44268 0.0415 0.0
C717 C 0.6126 0.4238 0.00974 0.0
C718 C 0.65715 0.45757 0.87694 0.0
C719 C 0.60507 0.45036 0.12178 0.0
H720 H 0.66632 0.4995 0.16673 0.0
H721 H 0.61923 0.52068 0.0022 0.0
H722 H 0.65136 0.45039 0.16596 0.0
H723 H 0.67007 0.45384 0.08326 0.0
H724 H 0.67143 0.46634 0.19094 0.0
H725 H 0.60211 0.50088 0.90129 0.0
H726 H 0.61414 0.47884 0.86663 0.0
H727 H 0.59654 0.47815 0.95595 0.0
H728 H 0.64692 0.42031 0.84435 0.0
H729 H 0.6013 0.4152 0.04156 0.0
H730 H 0.66895 0.46166 0.92469 0.0
H731 H 0.65066 0.47122 0.85073 0.0
H732 H 0.66361 0.44949 0.81886 0.0
H733 H 0.61518 0.4551 0.17635 0.0
H734 H 0.59502 0.43934 0.15048 0.0
H735 H 0.59648 0.46323 0.101 0.0
C736 C 0.4276 0.38564 -0.00106 0.0
C737 C 0.42214 0.40357 0.03629 0.0
C738 C 0.44656 0.38238 0.96752 0.0
C739 C 0.46058 0.39732 0.97464 0.0
C740 C 0.45517 0.41551 0.01188 0.0
C741 C 0.43596 0.41848 0.04163 0.0
C742 C 0.45159 0.36287 0.92695 0.0
C743 C 0.46974 0.43172 0.02153 0.0
C744 C 0.51302 0.37991 0.97211 0.0
C745 C 0.51847 0.38359 0.88169 0.0
C746 C 0.49453 0.38512 0.00439 0.0
C747 C 0.48092 0.39368 0.94398 0.0
C748 C 0.48637 0.39744 0.85254 0.0
C749 C 0.50507 0.39234 0.8226 0.0
C750 C 0.48935 0.38087 0.10237 0.0
C751 C 0.47223 0.40622 0.78547 0.0
H752 H 0.41699 0.37408 -0.0062 0.0
H753 H 0.43187 0.43236 0.07055 0.0
H754 H 0.4574 0.36478 0.85699 0.0
H755 H 0.46311 0.3558 0.96817 0.0
H756 H 0.43887 0.353 0.92374 0.0
H757 H 0.46322 0.44505 0.0511 0.0
H758 H 0.4819 0.42696 0.06594 0.0
H759 H 0.47601 0.43534 0.954 0.0
H760 H 0.52302 0.37236 0.01682 0.0
H761 H 0.50919 0.39488 0.75231 0.0
H762 H 0.478 0.36947 0.10488 0.0
H763 H 0.48327 0.39402 0.13535 0.0
H764 H 0.50208 0.37585 0.14255 0.0
H765 H 0.45982 0.3962 0.77507 0.0
H766 H 0.47904 0.40918 0.71825 0.0
H767 H 0.46626 0.41999 0.81283 0.0
C768 C 0.89654 0.43633 0.84003 0.0
C769 C 0.90927 0.42344 0.79694 0.0
C770 C 0.8933 0.45498 0.80495 0.0
C771 C 0.90242 0.46062 0.72256 0.0
C772 C 0.91552 0.44768 0.67926 0.0
C773 C 0.91907 0.42932 0.71804 0.0
C774 C 0.87967 0.46846 0.85483 0.0
C775 C 0.92495 0.45278 0.58959 0.0
C776 C 0.87415 0.49944 0.59486 0.0
C777 C 0.88444 0.51637 0.61709 0.0
C778 C 0.88043 0.4811 0.62471 0.0
C779 C 0.89723 0.47961 0.67997 0.0
C780 C 0.90812 0.49651 0.69983 0.0
C781 C 0.90186 0.51459 0.66628 0.0
C782 C 0.86872 0.46338 0.59924 0.0
C783 C 0.92603 0.4956 0.75915 0.0
H784 H 0.88897 0.43172 0.90113 0.0
H785 H 0.92866 0.41916 0.68399 0.0
H786 H 0.88666 0.48279 0.86545 0.0
H787 H 0.86643 0.47089 0.81323 0.0
H788 H 0.87522 0.46258 0.92217 0.0
H789 H 0.93586 0.44179 0.56837 0.0
H790 H 0.91365 0.45377 0.53578 0.0
H791 H 0.93212 0.46715 0.59382 0.0
H792 H 0.86089 0.50057 0.55542 0.0
H793 H 0.91065 0.52727 0.67896 0.0
H794 H 0.86156 0.45741 0.66086 0.0
H795 H 0.87836 0.45189 0.5717 0.0
H796 H 0.85735 0.4667 0.54774 0.0
H797 H 0.92202 0.49035 0.82817 0.0
H798 H 0.93323 0.50994 0.76604 0.0
H799 H 0.93661 0.48511 0.73063 0.0
C800 C 0.49794 0.13235 0.39814 0.0
C801 C 0.51121 0.14138 0.33927 0.0
C802 C 0.4788 0.12842 0.37043 0.0
C803 C 0.47274 0.13354 0.28129 0.0
C804 C 0.48603 0.14273 0.2216 0.0
C805 C 0.50498 0.1468 0.25177 0.0
C806 C 0.46501 0.11891 0.43676 0.0
C807 C 0.48018 0.14841 0.12598 0.0
C808 C 0.4287 0.10789 0.18034 0.0
C809 C 0.41416 0.12201 0.18976 0.0
C810 C 0.44781 0.11146 0.2096 0.0
C811 C 0.45246 0.12947 0.25071 0.0
C812 C 0.43776 0.14365 0.26189 0.0
C813 C 0.41884 0.13981 0.23064 0.0
C814 C 0.46309 0.09605 0.19552 0.0
C815 C 0.44199 0.16288 0.30697 0.0
H816 H 0.50261 0.12836 0.46619 0.0
H817 H 0.51476 0.1546 0.20736 0.0
H818 H 0.45206 0.12823 0.44693 0.0
H819 H 0.45983 0.1049 0.4086 0.0
H820 H 0.47187 0.11616 0.50415 0.0
H821 H 0.49244 0.15472 0.08679 0.0
H822 H 0.47464 0.13554 0.08869 0.0
H823 H 0.46824 0.15919 0.12849 0.0
H824 H 0.42522 0.09411 0.14869 0.0
H825 H 0.40766 0.15074 0.23899 0.0
H826 H 0.46956 0.09186 0.26197 0.0
H827 H 0.47499 0.10187 0.15255 0.0
H828 H 0.45715 0.08283 0.16231 0.0
H829 H 0.44792 0.16046 0.37644 0.0
H830 H 0.42886 0.17217 0.31238 0.0
H831 H 0.45319 0.17084 0.26761 0.0
C832 C 0.10446 0.58529 0.77842 0.0
C833 C 0.11913 0.59934 0.77153 0.0
C834 C 0.10777 0.56598 0.75128 0.0
C835 C 0.1261 0.56063 0.71538 0.0
C836 C 0.14082 0.57484 0.70681 0.0
C837 C 0.1372 0.59394 0.73541 0.0
C838 C 0.09175 0.55123 0.76228 0.0
C839 C 0.16048 0.56985 0.66778 0.0
C840 C 0.14371 0.50826 0.72155 0.0
C841 C 0.14011 0.50213 0.632 0.0
C842 C 0.13855 0.52701 0.75054 0.0
C843 C 0.13008 0.54015 0.6877 0.0
C844 C 0.12646 0.53403 0.59701 0.0
C845 C 0.13155 0.51511 0.57032 0.0
C846 C 0.14268 0.53292 0.84778 0.0
C847 C 0.11771 0.54764 0.5275 0.0
H848 H 0.09048 0.5893 0.80658 0.0
H849 H 0.1486 0.60471 0.72923 0.0
H850 H 0.08837 0.54445 0.69553 0.0
H851 H 0.09661 0.53947 0.80868 0.0
H852 H 0.07825 0.55773 0.79022 0.0
H853 H 0.17018 0.58269 0.66336 0.0
H854 H 0.16764 0.5587 0.7108 0.0
H855 H 0.15879 0.56359 0.59853 0.0
H856 H 0.15108 0.49854 0.76822 0.0
H857 H 0.12907 0.51045 0.5007 0.0
H858 H 0.12938 0.53893 0.87971 0.0
H859 H 0.15384 0.54451 0.84883 0.0
H860 H 0.14794 0.52057 0.88982 0.0
H861 H 0.10377 0.55356 0.55307 0.0
H862 H 0.11507 0.5404 0.46095 0.0
H863 H 0.12759 0.56012 0.51633 0.0
C864 C 0.59699 0.88443 0.24648 0.0
C865 C 0.60211 0.90183 0.2031 0.0
C866 C 0.57796 0.88115 0.27721 0.0
C867 C 0.56355 0.8955 0.26318 0.0
C868 C 0.56868 0.91324 0.22064 0.0
C869 C 0.58794 0.91626 0.19178 0.0
C870 C 0.57326 0.86219 0.32384 0.0
C871 C 0.55373 0.92885 0.20381 0.0
C872 C 0.51131 0.87731 0.25971 0.0
C873 C 0.50475 0.88235 0.34709 0.0
C874 C 0.53017 0.88206 0.2306 0.0
C875 C 0.54304 0.89165 0.29109 0.0
C876 C 0.53656 0.89667 0.37964 0.0
C877 C 0.51752 0.89199 0.40641 0.0
C878 C 0.53646 0.8764 0.13566 0.0
C879 C 0.54987 0.90664 0.44677 0.0
H880 H 0.60789 0.87328 0.25657 0.0
H881 H 0.59178 0.92975 0.15836 0.0
H882 H 0.56675 0.86499 0.39175 0.0
H883 H 0.56239 0.85405 0.28315 0.0
H884 H 0.58629 0.85288 0.33301 0.0
H885 H 0.56012 0.94201 0.17208 0.0
H886 H 0.54217 0.92319 0.15825 0.0
H887 H 0.5467 0.93305 0.26889 0.0
H888 H 0.50191 0.86913 0.21482 0.0
H889 H 0.5126 0.89574 0.4743 0.0
H890 H 0.54826 0.86548 0.13968 0.0
H891 H 0.54234 0.88922 0.0992 0.0
H892 H 0.52435 0.87022 0.09487 0.0
H893 H 0.56263 0.89728 0.46107 0.0
H894 H 0.5425 0.90996 0.51227 0.0
H895 H 0.55543 0.92036 0.41722 0.0
C896 C 0.88786 0.01856 0.65454 0.0
C897 C 0.87917 1.00557 0.59338 0.0
C898 C 0.89273 0.03753 0.62762 0.0
C899 C 0.88869 0.0437 0.53737 0.0
C900 C 0.87999 0.03056 0.47521 0.0
C901 C 0.87514 0.01174 0.50431 0.0
C902 C 0.90178 0.05112 0.69632 0.0
C903 C 0.87534 0.03654 0.37857 0.0
C904 C 0.88114 0.09743 0.48924 0.0
C905 C 0.89888 0.10276 0.44947 0.0
C906 C 0.87781 0.07839 0.51957 0.0
C907 C 0.89251 0.06419 0.50931 0.0
C908 C 0.91056 0.06952 0.47044 0.0
C909 C 0.91358 0.08876 0.44143 0.0
C910 C 0.85844 0.07345 0.56175 0.0
C911 C 0.92657 0.0548 0.45807 0.0
H912 H 0.89068 0.01385 0.7238 0.0
H913 H 0.86771 1.00197 0.45812 0.0
H914 H 0.91566 0.05694 0.66953 0.0
H915 H 0.89202 0.06368 0.70818 0.0
H916 H 0.90464 0.04389 0.76271 0.0
H917 H 0.86973 0.02426 0.33714 0.0
H918 H 0.86427 0.04823 0.37905 0.0
H919 H 0.8885 0.04244 0.34498 0.0
H920 H 0.86975 0.10817 0.49672 0.0
H921 H 0.92733 0.09275 0.41093 0.0
H922 H 0.86061 0.06721 0.63076 0.0
H923 H 0.85098 0.06229 0.51994 0.0
H924 H 0.84878 0.0863 0.56757 0.0
H925 H 0.93025 0.04802 0.5245 0.0
H926 H 0.93994 0.06134 0.4289 0.0
H927 H 0.92156 0.04304 0.41208 0.0
C928 C 0.08453 0.10473 0.51509 0.0
C929 C 0.09898 0.11897 0.50677 0.0
C930 C 0.06524 0.10852 0.48852 0.0
C931 C 0.06035 0.12687 0.45134 0.0
C932 C 0.07498 0.14112 0.44095 0.0
C933 C 0.09404 0.13706 0.46937 0.0
C934 C 0.05004 0.09302 0.50169 0.0
C935 C 0.0705 0.16074 0.40016 0.0
C936 C 0.01442 0.13252 0.30862 0.0
C937 C 1.00174 0.14163 0.36998 0.0
C938 C 0.0334 0.12736 0.33444 0.0
C939 C 0.03991 0.13134 0.42417 0.0
C940 C 0.02713 0.1404 0.48673 0.0
C941 C 1.00833 0.14569 0.4585 0.0
C942 C 0.04662 0.11802 0.2651 0.0
C943 C 0.03345 0.14488 0.58307 0.0
H944 H 0.0882 0.09074 0.54416 0.0
H945 H 0.10512 0.14811 0.46202 0.0
H946 H 0.03852 0.09842 0.54804 0.0
H947 H 0.04301 0.08955 0.43558 0.0
H948 H 0.0562 0.07946 0.53077 0.0
H949 H 0.08364 0.16999 0.39397 0.0
H950 H 0.06397 0.15895 0.33148 0.0
H951 H 0.05972 0.16844 0.44307 0.0
H952 H 1.00947 0.12951 0.2399 0.0
H953 H 0.99901 0.15347 0.50517 0.0
H954 H 0.05206 0.10393 0.29128 0.0
H955 H 0.05946 0.12741 0.25327 0.0
H956 H 0.03923 0.1155 0.19879 0.0
H957 H 0.03918 0.1316 0.61631 0.0
H958 H 0.02138 0.15072 0.62516 0.0
H959 H 0.04536 0.1557 0.58209 0.0
C960 C 0.13104 0.92957 0.39583 0.0
C961 C 0.11682 0.91781 0.43571 0.0
C962 C 0.13384 0.94878 0.42496 0.0
C963 C 0.12268 0.95614 0.49833 0.0
C964 C 0.10838 0.9442 0.53942 0.0
C965 C 0.10535 0.92528 0.50628 0.0
C966 C 0.14877 0.96118 0.37723 0.0
C967 C 0.09673 0.95118 0.62012 0.0
C968 C 0.14609 0.9982 0.62504 0.0
C969 C 0.13574 0.01429 0.59163 0.0
C970 C 0.14151 0.9792 0.59792 0.0
C971 C 0.12651 0.9761 0.53358 0.0
C972 C 0.11573 0.99214 0.50067 0.0
C973 C 0.12011 0.01093 0.53205 0.0
C974 C 0.15292 0.96247 0.63742 0.0
C975 C 0.09982 0.98951 0.43082 0.0
H976 H 0.13979 0.92382 0.34067 0.0
H977 H 0.09445 0.91609 0.53754 0.0
H978 H 0.14206 0.97499 0.35427 0.0
H979 H 0.16063 0.96495 0.42526 0.0
H980 H 0.1552 0.95376 0.31718 0.0
H981 H 0.08616 0.94014 0.64414 0.0
H982 H 0.10666 0.95483 0.67726 0.0
H983 H 0.08871 0.96461 0.60229 0.0
H984 H 0.158 1.00048 0.67215 0.0
H985 H 0.11109 0.02284 0.5101 0.0
H986 H 0.16167 0.95548 0.58312 0.0
H987 H 0.1429 0.9513 0.66487 0.0
H988 H 0.16288 0.96715 0.69285 0.0
H989 H 0.10576 0.9823 0.36918 0.0
H990 H 0.09315 1.00351 0.41014 0.0
H991 H 0.08829 0.97996 0.45839 0.0
C992 C 0.01229 0.89748 0.41417 0.0
C993 C 0.01473 0.88103 0.35884 0.0
C994 C 0.99384 0.90297 0.44628 0.0
C995 C 0.97723 0.89237 0.41873 0.0
C996 C 0.97943 0.87652 0.35827 0.0
C997 C 0.99811 0.87093 0.33005 0.0
C998 C 0.99218 0.91984 0.5115 0.0
C999 C 0.96208 0.86519 0.32464 0.0
C1000 C 0.93196 0.89032 0.56653 0.0
C1001 C 0.91995 0.90413 0.52494 0.0
C1002 C 0.95088 0.88697 0.53476 0.0
C1003 C 0.95768 0.89709 0.457 0.0
C1004 C 0.94552 0.91105 0.41453 0.0
C1005 C 0.92691 0.9147 0.45028 0.0
C1006 C 0.9635 0.87239 0.58383 0.0
C1007 C 0.95184 0.92154 0.32926 0.0
H1008 H 0.0247 0.90622 0.43232 0.0
H1009 H 0.99973 0.85841 0.28604 0.0
H1010 H 0.98239 0.93108 0.48289 0.0
H1011 H 0.98567 0.91484 0.5766 0.0
H1012 H 1.00647 0.92659 0.52647 0.0
H1013 H 0.96603 0.85458 0.27074 0.0
H1014 H 0.9554 0.85718 0.38223 0.0
H1015 H 0.95089 0.87519 0.29709 0.0
H1016 H 0.92654 0.8822 0.62452 0.0
H1017 H 0.91746 0.92518 0.41741 0.0
H1018 H 0.97768 0.87903 0.6016 0.0
H1019 H 0.96648 0.85986 0.5385 0.0
H1020 H 0.95661 0.86691 0.64727 0.0
H1021 H 0.96591 0.92895 0.34072 0.0
H1022 H 0.94098 0.93245 0.30646 0.0
H1023 H 0.95404 0.9109 0.27346 0.0
C1024 C 0.34998 0.21859 0.05895 0.0
C1025 C 0.34766 0.20835 0.14065 0.0
C1026 C 0.35183 0.23892 0.05894 0.0
C1027 C 0.35159 0.2492 0.1428 0.0
C1028 C 0.34962 0.23881 0.22557 0.0
C1029 C 0.34746 0.21856 0.22332 0.0
C1030 C 0.35363 0.24945 0.96909 0.0
C1031 C 0.34967 0.24911 0.31644 0.0
C1032 C 0.37343 0.29986 0.13765 0.0
C1033 C 0.35686 0.31155 0.13176 0.0
C1034 C 0.37192 0.2796 0.14482 0.0
C1035 C 0.35335 0.2708 0.14375 0.0
C1036 C 0.33651 0.28265 0.14019 0.0
C1037 C 0.33849 0.30295 0.13468 0.0
C1038 C 0.39022 0.2676 0.15027 0.0
C1039 C 0.31646 0.27387 0.13787 0.0
H1040 H 0.3497 0.21072 -0.00498 0.0
H1041 H 0.34562 0.21058 0.28641 0.0
H1042 H 0.34145 0.25986 0.96124 0.0
H1043 H 0.36729 0.25796 0.96758 0.0
H1044 H 0.35354 0.23936 0.90999 0.0
H1045 H 0.34865 0.23885 0.37469 0.0
H1046 H 0.36314 0.25778 0.32392 0.0
H1047 H 0.33727 0.25935 0.32004 0.0
H1048 H 0.3876 0.30666 0.13406 0.0
H1049 H 0.32576 0.31207 0.12798 0.0
H1050 H 0.39171 0.2587 0.08763 0.0
H1051 H 0.38946 0.25745 0.20891 0.0
H1052 H 0.40342 0.27672 0.15766 0.0
H1053 H 0.31475 0.26504 0.07508 0.0
H1054 H 0.30486 0.28508 0.13912 0.0
H1055 H 0.3144 0.264 0.19681 0.0
C1056 C 0.30116 0.68864 0.92275 0.0
C1057 C 0.31223 0.67489 0.87529 0.0
C1058 C 0.28082 0.68893 0.91614 0.0
C1059 C 0.27128 0.6749 0.86174 0.0
C1060 C 0.28243 0.66112 0.81253 0.0
C1061 C 0.30279 0.6613 0.81988 0.0
C1062 C 0.26955 0.704 0.9688 0.0
C1063 C 0.27281 0.64584 0.75422 0.0
C1064 C 0.21842 0.66232 0.91126 0.0
C1065 C 0.2088 0.67213 0.84083 0.0
C1066 C 0.23875 0.66336 0.91999 0.0
C1067 C 0.24964 0.67452 0.85686 0.0
C1068 C 0.23986 0.68494 0.78747 0.0
C1069 C 0.21961 0.68349 0.78 0.0
C1070 C 0.24863 0.65195 -0.00536 0.0
C1071 C 0.25084 0.69719 0.7195 0.0
H1072 H 0.3085 0.69903 0.96622 0.0
H1073 H 0.31131 0.65032 0.78533 0.0
H1074 H 0.25997 0.71228 0.92199 0.0
H1075 H 0.26007 0.69678 0.01962 0.0
H1076 H 0.27919 0.71436 0.00509 0.0
H1077 H 0.28353 0.63647 0.71876 0.0
H1078 H 0.26339 0.63655 0.79727 0.0
H1079 H 0.26336 0.6528 0.70235 0.0
H1080 H 0.21015 0.65313 0.95678 0.0
H1081 H 0.21213 0.69097 0.72522 0.0
H1082 H 0.25798 0.66164 0.03615 0.0
H1083 H 0.25819 0.64075 0.96403 0.0
H1084 H 0.23807 0.64467 0.04046 0.0
H1085 H 0.26021 0.70779 0.75563 0.0
H1086 H 0.24099 0.70522 0.67282 0.0
H1087 H 0.26049 0.68781 0.67798 0.0
C1088 C 0.66054 0.80129 0.05582 0.0
C1089 C 0.67243 0.81073 0.1193 0.0
C1090 C 0.66098 0.78096 0.04697 0.0
C1091 C 0.67371 0.7699 0.10259 0.0
C1092 C 0.68618 0.77948 0.1647 0.0
C1093 C 0.68525 0.79975 0.1728 0.0
C1094 C 0.64735 0.77128 0.9804 0.0
C1095 C 0.70017 0.76831 0.22419 0.0
C1096 C 0.66111 0.71681 0.1453 0.0
C1097 C 0.67265 0.70744 0.08028 0.0
C1098 C 0.66147 0.73714 0.15416 0.0
C1099 C 0.67377 0.74828 0.09694 0.0
C1100 C 0.6859 0.73877 0.03323 0.0
C1101 C 0.68504 0.7185 0.02519 0.0
C1102 C 0.6482 0.74674 0.22246 0.0
C1103 C 0.69943 0.75002 0.97201 0.0
H1104 H 0.65029 0.80974 0.01621 0.0
H1105 H 0.69433 0.80711 0.22229 0.0
H1106 H 0.65565 0.76202 0.93241 0.0
H1107 H 0.63718 0.76168 0.01785 0.0
H1108 H 0.63876 0.78196 0.94039 0.0
H1109 H 0.70957 0.77802 0.26551 0.0
H1110 H 0.69199 0.7587 0.27109 0.0
H1111 H 0.70955 0.75889 0.18153 0.0
H1112 H 0.65117 0.7083 0.1862 0.0
H1113 H 0.69386 0.7112 0.97453 0.0
H1114 H 0.63773 0.75627 0.18636 0.0
H1115 H 0.65674 0.75605 0.26938 0.0
H1116 H 0.63995 0.73601 0.26356 0.0
H1117 H 0.6909 0.75959 0.92619 0.0
H1118 H 0.70864 0.74037 0.9295 0.0
H1119 H 0.70902 0.75949 0.01348 0.0
C1120 C 0.80472 0.34342 0.89123 0.0
C1121 C 0.81222 0.36228 0.88924 0.0
C1122 C 0.78454 0.34024 0.8941 0.0
C1123 C 0.77169 0.35633 0.89599 0.0
C1124 C 0.77933 0.37538 0.89775 0.0
C1125 C 0.79948 0.3781 0.89342 0.0
C1126 C 0.77696 0.31971 0.89123 0.0
C1127 C 0.76621 0.39292 0.90146 0.0
C1128 C 0.71994 0.35099 0.8075 0.0
C1129 C 0.70954 0.34865 0.88863 0.0
C1130 C 0.74024 0.35323 0.80879 0.0
C1131 C 0.75026 0.35336 0.89338 0.0
C1132 C 0.73971 0.35117 0.97551 0.0
C1133 C 0.71951 0.34864 0.97198 0.0
C1134 C 0.75098 0.35527 0.71964 0.0
C1135 C 0.74975 0.35161 0.06709 0.0
H1136 H 0.8146 0.33124 0.88597 0.0
H1137 H 0.80538 0.39267 0.89139 0.0
H1138 H 0.76694 0.31711 0.94908 0.0
H1139 H 0.76855 0.31746 0.82751 0.0
H1140 H 0.78883 0.3088 0.89403 0.0
H1141 H 0.7745 0.40667 0.90836 0.0
H1142 H 0.75733 0.3937 0.83841 0.0
H1143 H 0.75604 0.39169 0.95977 0.0
H1144 H 0.71224 0.35053 0.7431 0.0
H1145 H 0.71138 0.34677 0.03458 0.0
H1146 H 0.7621 0.3437 0.71373 0.0
H1147 H 0.7587 0.36938 0.71759 0.0
H1148 H 0.74112 0.3544 0.65977 0.0
H1149 H 0.76077 0.33989 0.07086 0.0
H1150 H 0.73942 0.34981 0.12459 0.0
H1151 H 0.75753 0.36558 0.07576 0.0
C1152 C 0.83408 0.71966 0.67707 0.0
C1153 C 0.8473 0.70872 0.62579 0.0
C1154 C 0.83357 0.73997 0.6709 0.0
C1155 C 0.84688 0.74962 0.61319 0.0
C1156 C 0.86004 0.7386 0.55976 0.0
C1157 C 0.86004 0.71825 0.56652 0.0
C1158 C 0.81911 0.7511 0.72784 0.0
C1159 C 0.87456 0.74836 0.49791 0.0
C1160 C 0.83756 0.80148 0.53716 0.0
C1161 C 0.8496 0.81205 0.59607 0.0
C1162 C 0.83609 0.78123 0.54367 0.0
C1163 C 0.84725 0.77124 0.60976 0.0
C1164 C 0.85911 0.7819 0.67102 0.0
C1165 C 0.86008 0.80223 0.66363 0.0
C1166 C 0.82302 0.77049 0.47813 0.0
C1167 C 0.87135 0.77177 0.74199 0.0
H1168 H 0.82435 0.71222 0.72339 0.0
H1169 H 0.8706 0.70981 0.52878 0.0
H1170 H 0.8269 0.76032 0.77792 0.0
H1171 H 0.8104 0.7609 0.68384 0.0
H1172 H 0.80907 0.74136 0.76549 0.0
H1173 H 0.88344 0.73773 0.45918 0.0
H1174 H 0.86697 0.75796 0.4487 0.0
H1175 H 0.88442 0.75763 0.53894 0.0
H1176 H 0.82956 0.80914 0.48463 0.0
H1177 H 0.86974 0.81038 0.70765 0.0
H1178 H 0.81287 0.76099 0.51622 0.0
H1179 H 0.83187 0.76102 0.43335 0.0
H1180 H 0.81442 0.7805 0.43455 0.0
H1181 H 0.86211 0.7624 0.78543 0.0
H1182 H 0.87925 0.78217 0.78643 0.0
H1183 H 0.8821 0.76223 0.70792 0.0
C1184 C 0.79884 0.16122 0.3114 0.0
C1185 C 0.80824 0.17339 0.37379 0.0
C1186 C 0.7785 0.16141 0.30295 0.0
C1187 C 0.76737 0.17419 0.35787 0.0
C1188 C 0.7769 0.18694 0.41884 0.0
C1189 C 0.79719 0.18624 0.4266 0.0
C1190 C 0.76888 0.14747 0.23766 0.0
C1191 C 0.76564 0.20098 0.47752 0.0
C1192 C 0.71569 0.18443 0.28071 0.0
C1193 C 0.70492 0.17204 0.33698 0.0
C1194 C 0.73596 0.18568 0.28838 0.0
C1195 C 0.74575 0.17393 0.35288 0.0
C1196 C 0.73488 0.16164 0.41128 0.0
C1197 C 0.71455 0.1609 0.40279 0.0
C1198 C 0.74692 0.19919 0.22588 0.0
C1199 C 0.74478 0.14877 0.48042 0.0
H1200 H 0.80736 0.15094 0.27238 0.0
H1201 H 0.80452 0.19555 0.47526 0.0
H1202 H 0.75946 0.1373 0.27611 0.0
H1203 H 0.75944 0.1555 0.18931 0.0
H1204 H 0.7796 0.13889 0.19798 0.0
H1205 H 0.77531 0.21065 0.51772 0.0
H1206 H 0.75602 0.21008 0.4344 0.0
H1207 H 0.75622 0.19284 0.52542 0.0
H1208 H 0.70817 0.19293 0.22944 0.0
H1209 H 0.70625 0.15096 0.44462 0.0
H1210 H 0.75652 0.19066 0.18029 0.0
H1211 H 0.75635 0.209 0.26637 0.0
H1212 H 0.73706 0.20814 0.1831 0.0
H1213 H 0.75442 0.13832 0.44492 0.0
H1214 H 0.73424 0.14051 0.52252 0.0
H1215 H 0.75405 0.1576 0.52634 0.0
C1216 C 0.18929 0.29852 0.67858 0.0
C1217 C 0.17636 0.30979 0.6271 0.0
C1218 C 0.18985 0.27826 0.66943 0.0
C1219 C 0.17688 0.26902 0.60844 0.0
C1220 C 0.16404 0.28039 0.55479 0.0
C1221 C 0.16399 0.30068 0.56463 0.0
C1222 C 0.20394 0.26673 0.72681 0.0
C1223 C 0.14988 0.27108 0.48953 0.0
C1224 C 0.18614 0.21749 0.52761 0.0
C1225 C 0.17364 0.20677 0.58357 0.0
C1226 C 0.1878 0.23768 0.53675 0.0
C1227 C 0.17636 0.24744 0.60244 0.0
C1228 C 0.16401 0.23661 0.66065 0.0
C1229 C 0.16285 0.21635 0.65065 0.0
C1230 C 0.20135 0.24862 0.47438 0.0
C1231 C 0.15146 0.24649 0.73103 0.0
H1232 H 0.19873 0.30564 0.72736 0.0
H1233 H 0.15365 0.30937 0.52671 0.0
H1234 H 0.19583 0.25731 0.77482 0.0
H1235 H 0.2128 0.2571 0.6828 0.0
H1236 H 0.21384 0.2762 0.76681 0.0
H1237 H 0.14133 0.28198 0.45068 0.0
H1238 H 0.15772 0.26168 0.44044 0.0
H1239 H 0.13968 0.26168 0.5279 0.0
H1240 H 0.19437 0.21001 0.47538 0.0
H1241 H 0.15282 0.2081 0.69224 0.0
H1242 H 0.21134 0.25784 0.51497 0.0
H1243 H 0.19286 0.25841 0.4294 0.0
H1244 H 0.21013 0.23875 0.43096 0.0
H1245 H 0.16053 0.25554 0.77685 0.0
H1246 H 0.14319 0.23595 0.77312 0.0
H1247 H 0.14101 0.25633 0.69661 0.0
C1248 C 0.30097 0.83271 0.28195 0.0
C1249 C 0.31174 0.84613 0.33296 0.0
C1250 C 0.28063 0.83202 0.28753 0.0
C1251 C 0.27076 0.84534 0.3445 0.0
C1252 C 0.2816 0.85875 0.39738 0.0
C1253 C 0.30199 0.85896 0.39108 0.0
C1254 C 0.2697 0.81732 0.23104 0.0
C1255 C 0.27164 0.87328 0.45849 0.0
C1256 C 0.21777 0.85751 0.29432 0.0
C1257 C 0.20818 0.84693 0.36217 0.0
C1258 C 0.23814 0.8569 0.28672 0.0
C1259 C 0.2491 0.84534 0.34818 0.0
C1260 C 0.23935 0.83411 0.41468 0.0
C1261 C 0.21905 0.83518 0.42127 0.0
C1262 C 0.24798 0.86919 0.21525 0.0
C1263 C 0.25039 0.82138 0.48062 0.0
H1264 H 0.30855 0.82291 0.23646 0.0
H1265 H 0.31027 0.86969 0.42854 0.0
H1266 H 0.26014 0.80847 0.27543 0.0
H1267 H 0.26023 0.82489 0.18116 0.0
H1268 H 0.27958 0.80745 0.19323 0.0
H1269 H 0.28214 0.88244 0.49659 0.0
H1270 H 0.26215 0.88286 0.41704 0.0
H1271 H 0.26221 0.86566 0.50824 0.0
H1272 H 0.20941 0.86696 0.25018 0.0
H1273 H 0.21159 0.82711 0.47409 0.0
H1274 H 0.25754 0.86006 0.17215 0.0
H1275 H 0.2573 0.8802 0.24885 0.0
H1276 H 0.23739 0.87677 0.17052 0.0
H1277 H 0.26004 0.81132 0.44282 0.0
H1278 H 0.24058 0.81272 0.52478 0.0
H1279 H 0.25977 0.83049 0.52482 0.0
C1280 C 0.22826 0.11677 0.70196 0.0
C1281 C 0.21336 0.10322 0.7157 0.0
C1282 C 0.24574 0.11568 0.75138 0.0
C1283 C 0.24822 0.10104 0.81837 0.0
C1284 C 0.23328 0.08721 0.83189 0.0
C1285 C 0.21617 0.08829 0.77947 0.0
C1286 C 0.26138 0.13054 0.73371 0.0
C1287 C 0.23503 0.07176 0.90438 0.0
C1288 C 0.29945 0.09011 0.90404 0.0
C1289 C 0.30073 0.10216 0.98084 0.0
C1290 C 0.28244 0.08951 0.85073 0.0
C1291 C 0.26611 0.10077 0.87649 0.0
C1292 C 0.26717 0.11244 0.95607 0.0
C1293 C 0.28454 0.11317 0.00644 0.0
C1294 C 0.28225 0.07748 0.76472 0.0
C1295 C 0.24996 0.12406 -0.01118 0.0
H1296 H 0.22619 0.12834 0.65281 0.0
H1297 H 0.2046 0.07796 0.79156 0.0
H1298 H 0.26327 0.13983 0.7949 0.0
H1299 H 0.27547 0.12322 0.72076 0.0
H1300 H 0.25789 0.14 0.67457 0.0
H1301 H 0.2222 0.06202 0.90608 0.0
H1302 H 0.24822 0.06288 0.89261 0.0
H1303 H 0.23664 0.0787 0.97227 0.0
H1304 H 0.31208 0.08185 0.8831 0.0
H1305 H 0.2855 0.12246 0.06599 0.0
H1306 H 0.28019 0.0871 0.70475 0.0
H1307 H 0.2699 0.06717 0.76579 0.0
H1308 H 0.29592 0.06916 0.75541 0.0
H1309 H 0.24287 0.13191 0.93176 0.0
H1310 H 0.25407 0.13475 0.04215 0.0
H1311 H 0.23912 0.11399 0.01838 0.0
C1312 C 0.09215 0.71713 0.04303 0.0
C1313 C 0.106 0.71438 0.97412 0.0
C1314 C 0.0915 0.73448 0.09366 0.0
C1315 C 0.10454 0.74974 0.07275 0.0
C1316 C 0.11802 0.74729 0.00062 0.0
C1317 C 0.11882 0.72953 0.95339 0.0
C1318 C 0.07738 0.73616 0.1719 0.0
C1319 C 0.13164 0.76342 0.97333 0.0
C1320 C 0.09227 0.80081 0.15576 0.0
C1321 C 0.10565 0.80336 0.22699 0.0
C1322 C 0.09178 0.78351 0.10478 0.0
C1323 C 0.10449 0.76807 0.12766 0.0
C1324 C 0.11754 0.77036 0.20182 0.0
C1325 C 0.1182 0.78808 0.24944 0.0
C1326 C 0.07816 0.78203 0.02438 0.0
C1327 C 0.13077 0.75404 0.2312 0.0
H1328 H 0.08243 0.70534 0.0604 0.0
H1329 H 0.12948 0.72749 0.8999 0.0
H1330 H 0.08545 0.73871 0.23634 0.0
H1331 H 0.06763 0.74877 0.16148 0.0
H1332 H 0.06835 0.72292 0.17999 0.0
H1333 H 0.14145 0.75912 0.91678 0.0
H1334 H 0.12307 0.77622 0.95127 0.0
H1335 H 0.14061 0.76798 0.03242 0.0
H1336 H 0.08276 0.81271 0.13713 0.0
H1337 H 0.12849 0.78995 0.30475 0.0
H1338 H 0.06793 0.7698 0.03428 0.0
H1339 H 0.08655 0.77896 0.96144 0.0
H1340 H 0.06963 0.79553 0.01386 0.0
H1341 H 0.12188 0.74152 0.25382 0.0
H1342 H 0.14054 0.75834 0.28803 0.0
H1343 H 0.13978 0.74906 0.1731 0.0
C1344 C 0.73067 0.92423 0.00867 0.0
C1345 C 0.71539 0.91244 0.97871 0.0
C1346 C 0.7484 0.92484 0.9607 0.0
C1347 C 0.75056 0.91403 0.87889 0.0
C1348 C 0.73479 0.9027 0.84686 0.0
C1349 C 0.71758 0.90175 0.89806 0.0
C1350 C 0.765 0.93659 -0.00108 0.0
C1351 C 0.73609 0.89153 0.7585 0.0
C1352 C 0.79183 0.92736 0.71593 0.0
C1353 C 0.80509 0.91229 0.7318 0.0
C1354 C 0.77392 0.92803 0.76242 0.0
C1355 C 0.76954 0.91375 0.82902 0.0
C1356 C 0.78317 0.8988 0.84667 0.0
C1357 C 0.80056 0.89807 0.79678 0.0
C1358 C 0.75956 0.94383 0.73925 0.0
C1359 C 0.77945 0.88363 0.91885 0.0
H1360 H 0.72895 0.93248 0.07108 0.0
H1361 H 0.70561 0.89286 0.87417 0.0
H1362 H 0.77753 0.92693 0.01331 0.0
H1363 H 0.7699 0.94746 0.94818 0.0
H1364 H 0.76098 0.94427 0.06278 0.0
H1365 H 0.7222 0.88428 0.74063 0.0
H1366 H 0.74016 0.90145 0.70207 0.0
H1367 H 0.7476 0.88032 0.76355 0.0
H1368 H 0.79529 0.93837 0.66576 0.0
H1369 H 0.81092 0.88657 0.81039 0.0
H1370 H 0.75633 0.95262 0.8007 0.0
H1371 H 0.74568 0.93727 0.71629 0.0
H1372 H 0.76499 0.95362 0.6848 0.0
H1373 H 0.77628 0.89073 -0.01489 0.0
H1374 H 0.792 0.87368 0.92805 0.0
H1375 H 0.76654 0.87487 0.90018 0.0
C1376 C 0.92532 0.2949 -0.01466 0.0
C1377 C 0.90974 0.30775 -0.00223 0.0
C1378 C 0.92577 0.27676 0.02964 0.0
C1379 C 0.91063 0.27161 0.09047 0.0
C1380 C 0.89499 0.28467 0.10397 0.0
C1381 C 0.89458 0.3024 0.05641 0.0
C1382 C 0.94237 0.26304 0.01079 0.0
C1383 C 0.87881 0.28006 0.16985 0.0
C1384 C 0.90024 0.21884 0.15136 0.0
C1385 C 0.90991 0.2168 0.23496 0.0
C1386 C 0.90096 0.23633 0.10219 0.0
C1387 C 0.91095 0.25249 0.13923 0.0
C1388 C 0.92071 0.25048 0.22409 0.0
C1389 C 0.92039 0.23251 0.27013 0.0
C1390 C 0.89097 0.2375 0.01062 0.0
C1391 C 0.93106 0.26744 0.26734 0.0
H1392 H 0.93705 0.29895 0.93999 0.0
H1393 H 0.88263 0.31237 0.06733 0.0
H1394 H 0.95051 0.2601 0.07461 0.0
H1395 H 0.93666 0.24894 -0.01406 0.0
H1396 H 0.95262 0.2689 0.95927 0.0
H1397 H 0.86811 0.29206 0.17538 0.0
H1398 H 0.87107 0.26676 0.14769 0.0
H1399 H 0.88492 0.27712 0.23856 0.0
H1400 H 0.89231 0.20657 0.12375 0.0
H1401 H 0.92781 0.23091 0.33494 0.0
H1402 H 0.9013 0.24275 0.95809 0.0
H1403 H 0.87886 0.24808 0.01378 0.0
H1404 H 0.88507 0.22326 -0.01154 0.0
H1405 H 0.94252 0.27295 0.22101 0.0
H1406 H 0.93784 0.26356 0.33366 0.0
H1407 H 0.92065 0.27949 0.27866 0.0
C1408 C 0.30481 0.42713 0.31634 0.0
C1409 C 0.30737 0.4136 0.24589 0.0
C1410 C 0.28752 0.42767 0.36749 0.0
C1411 C 0.2721 0.41489 0.34542 0.0
C1412 C 0.27441 0.40167 0.27204 0.0
C1413 C 0.29212 0.40094 0.22438 0.0
C1414 C 0.28605 0.44147 0.44713 0.0
C1415 C 0.25813 0.38831 0.24368 0.0
C1416 C 0.2338 0.40075 0.52112 0.0
C1417 C 0.21851 0.4134 0.49993 0.0
C1418 C 0.25151 0.40154 0.47354 0.0
C1419 C 0.25381 0.41487 0.40066 0.0
C1420 C 0.23841 0.42777 0.37936 0.0
C1421 C 0.22109 0.42711 0.43028 0.0
C1422 C 0.26778 0.38811 0.50144 0.0
C1423 C 0.23992 0.44173 0.30037 0.0
H1424 H 0.31669 0.43671 0.33428 0.0
H1425 H 0.29403 0.39051 0.16976 0.0
H1426 H 0.27394 0.45181 0.43609 0.0
H1427 H 0.28278 0.43326 0.51039 0.0
H1428 H 0.29963 0.44986 0.45781 0.0
H1429 H 0.26241 0.37849 0.18711 0.0
H1430 H 0.25332 0.37936 0.30231 0.0
H1431 H 0.2455 0.39708 0.22114 0.0
H1432 H 0.2319 0.39019 0.57521 0.0
H1433 H 0.20919 0.4367 0.41257 0.0
H1434 H 0.28032 0.39683 0.52527 0.0
H1435 H 0.27275 0.37939 0.44234 0.0
H1436 H 0.26344 0.37807 0.55704 0.0
H1437 H 0.25246 0.45159 0.31022 0.0
H1438 H 0.22659 0.45063 0.29192 0.0
H1439 H 0.24251 0.43355 0.23634 0.0
C1440 C 0.43012 0.71864 0.66489 0.0
C1441 C 0.41688 0.7166 0.73692 0.0
C1442 C 0.43078 0.73577 0.61243 0.0
C1443 C 0.41834 0.75149 0.63423 0.0
C1444 C 0.4055 0.74974 0.7093 0.0
C1445 C 0.40468 0.73222 0.75857 0.0
C1446 C 0.44426 0.73672 0.53148 0.0
C1447 C 0.39235 0.76627 0.73669 0.0
C1448 C 0.43002 0.80223 0.54432 0.0
C1449 C 0.41614 0.80449 0.47496 0.0
C1450 C 0.431 0.78507 0.59634 0.0
C1451 C 0.41818 0.76951 0.57683 0.0
C1452 C 0.40465 0.77147 0.50442 0.0
C1453 C 0.40357 0.78903 0.45553 0.0
C1454 C 0.44523 0.78388 0.67447 0.0
C1455 C 0.39107 0.75513 0.4795 0.0
H1456 H 0.43935 0.7065 0.64684 0.0
H1457 H 0.39442 0.73071 0.81411 0.0
H1458 H 0.43563 0.73839 0.46798 0.0
H1459 H 0.45387 0.74958 0.53691 0.0
H1460 H 0.45342 0.72353 0.52518 0.0
H1461 H 0.3843 0.76315 0.80065 0.0
H1462 H 0.40095 0.77972 0.74637 0.0
H1463 H 0.38167 0.76914 0.68167 0.0
H1464 H 0.43958 0.81423 0.56066 0.0
H1465 H 0.39282 0.79069 0.40201 0.0
H1466 H 0.45462 0.77091 0.66695 0.0
H1467 H 0.43721 0.78229 0.73964 0.0
H1468 H 0.45461 0.79695 0.67906 0.0
H1469 H 0.39941 0.74156 0.46809 0.0
H1470 H 0.38247 0.75837 0.41717 0.0
H1471 H 0.38087 0.75237 0.53653 0.0
C1472 C 0.72017 0.61959 0.29124 0.0
C1473 C 0.71684 0.60645 0.2199 0.0
C1474 C 0.7371 0.61859 0.34459 0.0
C1475 C 0.75154 0.60464 0.32375 0.0
C1476 C 0.74831 0.5914 0.25118 0.0
C1477 C 0.73078 0.59218 0.20139 0.0
C1478 C 0.73948 0.63247 0.42347 0.0
C1479 C 0.76353 0.57669 0.22488 0.0
C1480 C 0.80253 0.6183 0.40148 0.0
C1481 C 0.80514 0.60648 0.4783 0.0
C1482 C 0.78552 0.61726 0.34876 0.0
C1483 C 0.77033 0.60461 0.3754 0.0
C1484 C 0.77289 0.59264 0.45331 0.0
C1485 C 0.79046 0.59344 0.50283 0.0
C1486 C 0.78379 0.62978 0.26464 0.0
C1487 C 0.75686 0.57946 0.48602 0.0
H1488 H 0.70922 0.63038 0.30702 0.0
H1489 H 0.72819 0.58198 0.14647 0.0
H1490 H 0.7429 0.62434 0.48679 0.0
H1491 H 0.75179 0.64243 0.41006 0.0
H1492 H 0.72622 0.64129 0.43543 0.0
H1493 H 0.7588 0.56739 0.16711 0.0
H1494 H 0.77712 0.58425 0.20525 0.0
H1495 H 0.76702 0.56725 0.28394 0.0
H1496 H 0.81404 0.62818 0.3816 0.0
H1497 H 0.79248 0.58431 0.56229 0.0
H1498 H 0.77209 0.64064 0.27424 0.0
H1499 H 0.77979 0.62075 0.20486 0.0
H1500 H 0.7975 0.63758 0.249 0.0
H1501 H 0.74423 0.58833 0.50757 0.0
H1502 H 0.76149 0.57028 0.54442 0.0
H1503 H 0.75185 0.56989 0.42994 0.0
C1504 C 0.61525 0.22981 0.45174 0.0
C1505 C 0.60218 0.21472 0.47012 0.0
C1506 C 0.61452 0.24735 0.50073 0.0
C1507 C 0.60082 0.24966 0.57201 0.0
C1508 C 0.58749 0.23449 0.59036 0.0
C1509 C 0.58816 0.21734 0.53837 0.0
C1510 C 0.62867 0.26331 0.47722 0.0
C1511 C 0.57302 0.23608 0.66722 0.0
C1512 C 0.61472 0.28625 0.75584 0.0
C1513 C 0.60307 0.30224 0.73333 0.0
C1514 C 0.61359 0.26885 0.70598 0.0
C1515 C 0.601 0.26759 0.62963 0.0
C1516 C 0.58911 0.28369 0.60703 0.0
C1517 C 0.59007 0.3007 0.65998 0.0
C1518 C 0.62616 0.25191 0.73408 0.0
C1519 C 0.57592 0.28321 0.52478 0.0
H1520 H 0.6261 0.22786 0.39906 0.0
H1521 H 0.5782 0.20562 0.55385 0.0
H1522 H 0.62077 0.27712 0.46523 0.0
H1523 H 0.63873 0.26574 0.5352 0.0
H1524 H 0.63738 0.25985 0.41565 0.0
H1525 H 0.56327 0.22327 0.67097 0.0
H1526 H 0.58085 0.23745 0.7331 0.0
H1527 H 0.56403 0.24931 0.65887 0.0
H1528 H 0.6248 0.28739 0.81242 0.0
H1529 H 0.58128 0.31314 0.64136 0.0
H1530 H 0.63693 0.24878 0.67989 0.0
H1531 H 0.61713 0.23871 0.74274 0.0
H1532 H 0.63408 0.25472 0.79877 0.0
H1533 H 0.58473 0.28138 0.46206 0.0
H1534 H 0.56716 0.29668 0.51797 0.0
H1535 H 0.56592 0.27064 0.52894 0.0
C1536 C 0.36981 0.11329 0.38489 0.0
C1537 C 0.35169 0.10522 0.36459 0.0
C1538 C 0.37558 0.11617 0.4744 0.0
C1539 C 0.36279 0.1107 0.5446 0.0
C1540 C 0.34465 0.10187 0.52472 0.0
C1541 C 0.33921 0.09924 0.43355 0.0
C1542 C 0.39495 0.12569 0.49342 0.0
C1543 C 0.33091 0.0957 0.59948 0.0
C1544 C 0.38063 0.10285 0.78236 0.0
C1545 C 0.37247 0.11897 0.82615 0.0
C1546 C 0.37841 0.10036 0.68885 0.0
C1547 C 0.36823 0.11462 0.63906 0.0
C1548 C 0.36215 0.13205 0.68094 0.0
C1549 C 0.36436 0.13406 0.77499 0.0
C1550 C 0.38532 0.08173 0.64526 0.0
C1551 C 0.35183 0.14779 0.62803 0.0
H1552 H 0.3793 0.1179 0.33024 0.0
H1553 H 0.3252 0.09307 0.41629 0.0
H1554 H 0.39257 0.14008 0.52547 0.0
H1555 H 0.40355 0.11687 0.54214 0.0
H1556 H 0.40366 0.12778 0.43044 0.0
H1557 H 0.31781 0.08828 0.57232 0.0
H1558 H 0.33841 0.08576 0.64754 0.0
H1559 H 0.3262 0.10858 0.63909 0.0
H1560 H 0.38732 0.09138 0.82211 0.0
H1561 H 0.35829 0.14665 0.80897 0.0
H1562 H 0.39328 0.08474 0.58113 0.0
H1563 H 0.37257 0.07263 0.62747 0.0
H1564 H 0.39492 0.07325 0.69138 0.0
H1565 H 0.35977 0.15117 0.56422 0.0
H1566 H 0.35025 0.16134 0.66841 0.0
H1567 H 0.33713 0.14266 0.60848 0.0
C1568 C 0.12346 0.67614 0.55112 0.0
C1569 C 0.10557 0.67332 0.59476 0.0
C1570 C 0.12532 0.67297 0.45818 0.0
C1571 C 0.1086 0.66823 0.40741 0.0
C1572 C 0.09005 0.66814 0.44858 0.0
C1573 C 0.08875 0.67032 0.54316 0.0
C1574 C 0.14537 0.67313 0.41602 0.0
C1575 C 0.07184 0.66456 0.39379 0.0
C1576 C 0.11673 0.67068 0.15603 0.0
C1577 C 0.11802 0.65101 0.13393 0.0
C1578 C 0.1128 0.67652 0.24459 0.0
C1579 C 0.11095 0.66222 0.31259 0.0
C1580 C 0.11296 0.64224 0.29121 0.0
C1581 C 0.11598 0.63677 0.20048 0.0
C1582 C 0.1099 0.69787 0.26412 0.0
C1583 C 0.11205 0.62676 0.36399 0.0
H1584 H 0.13645 0.67907 0.59062 0.0
H1585 H 0.07486 0.66855 0.5768 0.0
H1586 H 0.14869 0.65861 0.38722 0.0
H1587 H 0.14598 0.68371 0.35915 0.0
H1588 H 0.15687 0.67692 0.46612 0.0
H1589 H 0.05853 0.66797 0.43338 0.0
H1590 H 0.07192 0.67345 0.33068 0.0
H1591 H 0.07122 0.6491 0.37294 0.0
H1592 H 0.11792 0.68152 0.10284 0.0
H1593 H 0.11664 0.62158 0.18153 0.0
H1594 H 0.1175 0.70241 0.32725 0.0
H1595 H 0.0942 0.70068 0.2744 0.0
H1596 H 0.11511 0.70709 0.20713 0.0
H1597 H 0.12304 0.62976 0.4176 0.0
H1598 H 0.1147 0.61201 0.33607 0.0
H1599 H 0.09761 0.62692 0.39726 0.0
C1600 C 0.64796 0.90949 0.39209 0.0
C1601 C 0.66738 0.91322 0.37093 0.0
C1602 C 0.64222 0.90612 0.4813 0.0
C1603 C 0.65629 0.90718 0.55085 0.0
C1604 C 0.676 0.91133 0.53025 0.0
C1605 C 0.68144 0.91405 0.4391 0.0
C1606 C 0.62122 0.90122 0.50073 0.0
C1607 C 0.69118 0.91291 0.60428 0.0
C1608 C 0.63997 0.91973 0.7868 0.0
C1609 C 0.64347 0.9022 0.83241 0.0
C1610 C 0.64363 0.92141 0.69392 0.0
C1611 C 0.65013 0.90494 0.64572 0.0
C1612 C 0.6514 0.88666 0.68895 0.0
C1613 C 0.64816 0.8855 0.78279 0.0
C1614 C 0.64211 0.94115 0.64934 0.0
C1615 C 0.6575 0.86867 0.63763 0.0
H1616 H 0.63728 0.90865 0.33807 0.0
H1617 H 0.69647 0.91667 0.42116 0.0
H1618 H 0.62031 0.88715 0.5372 0.0
H1619 H 0.61472 0.91238 0.54581 0.0
H1620 H 0.61235 0.90027 0.43755 0.0
H1621 H 0.7058 0.91629 0.57659 0.0
H1622 H 0.68702 0.92445 0.65331 0.0
H1623 H 0.69204 0.89911 0.64301 0.0
H1624 H 0.63595 0.93259 0.82496 0.0
H1625 H 0.65065 0.87188 0.81789 0.0
H1626 H 0.63295 0.9404 0.58721 0.0
H1627 H 0.65676 0.94603 0.62785 0.0
H1628 H 0.63589 0.95225 0.69585 0.0
H1629 H 0.64942 0.86747 0.57237 0.0
H1630 H 0.65507 0.85527 0.6781 0.0
H1631 H 0.67317 0.86962 0.62082 0.0
C1632 C 0.92472 0.38729 0.20321 0.0
C1633 C 0.90754 0.38208 0.15844 0.0
C1634 C 0.92614 0.38555 0.29761 0.0
C1635 C 0.91005 0.37829 0.3462 0.0
C1636 C 0.89206 0.37505 0.3025 0.0
C1637 C 0.89095 0.37726 0.20847 0.0
C1638 C 0.94527 0.38982 0.34383 0.0
C1639 C 0.87456 0.36749 0.35349 0.0
C1640 C 0.91858 0.34674 0.5513 0.0
C1641 C 0.91262 0.35936 0.61964 0.0
C1642 C 0.91826 0.35295 0.46059 0.0
C1643 C 0.91236 0.37224 0.44077 0.0
C1644 C 0.90716 0.38519 0.51074 0.0
C1645 C 0.90717 0.37845 0.59975 0.0
C1646 C 0.92359 0.33881 0.386 0.0
C1647 C 0.90132 0.40596 0.49165 0.0
H1648 H 0.93742 0.39144 0.16418 0.0
H1649 H 0.87756 0.37351 0.17373 0.0
H1650 H 0.94297 0.39777 0.4087 0.0
H1651 H 0.95266 0.37596 0.36063 0.0
H1652 H 0.95506 0.39849 0.29954 0.0
H1653 H 0.86129 0.36729 0.31033 0.0
H1654 H 0.87748 0.35249 0.37731 0.0
H1655 H 0.87165 0.37649 0.41465 0.0
H1656 H 0.92301 0.33209 0.56856 0.0
H1657 H 0.90291 0.38816 0.65429 0.0
H1658 H 0.93543 0.34487 0.34348 0.0
H1659 H 0.9109 0.33644 0.34065 0.0
H1660 H 0.92835 0.32455 0.4135 0.0
H1661 H 0.91367 0.41383 0.46028 0.0
H1662 H 0.89687 0.4138 0.55441 0.0
H1663 H 0.88911 0.40644 0.44233 0.0
C1664 C 0.3849 0.40941 0.46845 0.0
C1665 C 0.37113 0.40475 0.40253 0.0
C1666 C 0.37908 0.41195 0.55894 0.0
C1667 C 0.35904 0.4108 0.58057 0.0
C1668 C 0.34513 0.40664 0.51294 0.0
C1669 C 0.35147 0.4032 0.42472 0.0
C1670 C 0.39428 0.41547 0.63135 0.0
C1671 C 0.32362 0.40616 0.53323 0.0
C1672 C 0.3481 0.39529 0.81828 0.0
C1673 C 0.3478 0.41324 0.86323 0.0
C1674 C 0.35125 0.39433 0.72506 0.0
C1675 C 0.35287 0.41179 0.67558 0.0
C1676 C 0.34993 0.42993 0.71832 0.0
C1677 C 0.34778 0.4305 0.81301 0.0
C1678 C 0.35455 0.37471 0.68132 0.0
C1679 C 0.3503 0.44867 0.66513 0.0
H1680 H 0.40001 0.41097 0.44928 0.0
H1681 H 0.34091 0.40005 0.3719 0.0
H1682 H 0.3916 0.42957 0.66551 0.0
H1683 H 0.39339 0.40401 0.68437 0.0
H1684 H 0.40923 0.41557 0.60293 0.0
H1685 H 0.31494 0.40153 0.47323 0.0
H1686 H 0.32042 0.39618 0.59052 0.0
H1687 H 0.31877 0.42084 0.55435 0.0
H1688 H 0.34768 0.38186 0.85675 0.0
H1689 H 0.34713 0.44436 0.84779 0.0
H1690 H 0.36951 0.37399 0.65344 0.0
H1691 H 0.34439 0.37251 0.62358 0.0
H1692 H 0.35263 0.36255 0.73023 0.0
H1693 H 0.36545 0.45213 0.64546 0.0
H1694 H 0.34449 0.461 0.70559 0.0
H1695 H 0.3417 0.44727 0.60141 0.0
C1696 C 0.40887 0.64694 0.13977 0.0
C1697 C 0.41614 0.66539 0.11957 0.0
C1698 C 0.40543 0.64137 0.22912 0.0
C1699 C 0.40973 0.6546 0.29941 0.0
C1700 C 0.41773 0.67312 0.27973 0.0
C1701 C 0.42072 0.67844 0.18867 0.0
C1702 C 0.39664 0.62166 0.2478 0.0
C1703 C 0.42275 0.68732 0.35457 0.0
C1704 C 0.38633 0.65185 0.5298 0.0
C1705 C 0.40173 0.6443 0.58092 0.0
C1706 C 0.38826 0.65421 0.43571 0.0
C1707 C 0.40598 0.64898 0.39386 0.0
C1708 C 0.42068 0.63945 0.44366 0.0
C1709 C 0.41821 0.63691 0.53697 0.0
C1710 C 0.37203 0.66372 0.38271 0.0
C1711 C 0.43971 0.63359 0.4004 0.0
H1712 H 0.40523 0.63707 0.085 0.0
H1713 H 0.42617 0.69273 0.1715 0.0
H1714 H 0.3822 0.62346 0.28021 0.0
H1715 H 0.39482 0.61292 0.18468 0.0
H1716 H 0.40584 0.61338 0.29617 0.0
H1717 H 0.42955 0.70077 0.32767 0.0
H1718 H 0.40944 0.69136 0.39262 0.0
H1719 H 0.43288 0.68048 0.40395 0.0
H1720 H 0.37349 0.65733 0.5638 0.0
H1721 H 0.42995 0.63064 0.57659 0.0
H1722 H 0.36923 0.65577 0.31824 0.0
H1723 H 0.37631 0.67874 0.36435 0.0
H1724 H 0.35834 0.66438 0.42262 0.0
H1725 H 0.43717 0.62526 0.33683 0.0
H1726 H 0.44881 0.62469 0.447 0.0
H1727 H 0.44799 0.64681 0.38166 0.0
C1728 C 0.68599 0.61965 0.78635 0.0
C1729 C 0.67761 0.60361 0.82983 0.0
C1730 C 0.6838 0.62224 0.69262 0.0
C1731 C 0.67281 0.60856 0.64302 0.0
C1732 C 0.66597 0.59143 0.68508 0.0
C1733 C 0.66872 0.58901 0.77851 0.0
C1734 C 0.69194 0.64028 0.64833 0.0
C1735 C 0.6544 0.57643 0.63307 0.0
C1736 C 0.64421 0.62382 0.43572 0.0
C1737 C 0.65524 0.615 0.36796 0.0
C1738 C 0.65012 0.62236 0.52692 0.0
C1739 C 0.66762 0.61242 0.54798 0.0
C1740 C 0.6793 0.60457 0.47851 0.0
C1741 C 0.67274 0.60569 0.38929 0.0
C1742 C 0.63737 0.63071 0.6008 0.0
C1743 C 0.69833 0.59446 0.49852 0.0
H1744 H 0.69312 0.63079 0.82644 0.0
H1745 H 0.66235 0.57656 0.81226 0.0
H1746 H 0.6991 0.6367 0.58271 0.0
H1747 H 0.67992 0.65051 0.63317 0.0
H1748 H 0.70259 0.64776 0.6931 0.0
H1749 H 0.65098 0.56349 0.67533 0.0
H1750 H 0.64055 0.58294 0.60925 0.0
H1751 H 0.66249 0.5716 0.5718 0.0
H1752 H 0.63081 0.63117 0.41782 0.0
H1753 H 0.68127 0.59905 0.33578 0.0
H1754 H 0.64589 0.64066 0.64476 0.0
H1755 H 0.6319 0.61882 0.64491 0.0
H1756 H 0.62474 0.63876 0.57255 0.0
H1757 H 0.708 0.60417 0.5382 0.0
H1758 H 0.70603 0.58997 0.43541 0.0
H1759 H 0.69572 0.58136 0.54071 0.0
C1760 C 0.60225 0.38109 0.53496 0.0
C1761 C 0.61904 0.37416 0.57814 0.0
C1762 C 0.5998 0.37878 0.44148 0.0
C1763 C 0.61472 0.36978 0.39121 0.0
C1764 C 0.63264 0.365 0.43245 0.0
C1765 C 0.63463 0.36728 0.52638 0.0
C1766 C 0.58061 0.38426 0.3985 0.0
C1767 C 0.64907 0.35601 0.37888 0.0
C1768 C 0.60164 0.33996 0.18515 0.0
C1769 C 0.6068 0.3529 0.1166 0.0
C1770 C 0.60374 0.34549 0.27642 0.0
C1771 C 0.61116 0.36422 0.29673 0.0
C1772 C 0.61581 0.37741 0.22692 0.0
C1773 C 0.61347 0.37154 0.13729 0.0
C1774 C 0.59857 0.33125 0.35083 0.0
C1775 C 0.62371 0.39746 0.24663 0.0
H1776 H 0.59034 0.38684 0.57502 0.0
H1777 H 0.64776 0.36225 0.55977 0.0
H1778 H 0.58287 0.39225 0.33377 0.0
H1779 H 0.57238 0.37087 0.38194 0.0
H1780 H 0.57159 0.39333 0.44458 0.0
H1781 H 0.6627 0.35519 0.41926 0.0
H1782 H 0.64496 0.3411 0.35787 0.0
H1783 H 0.65191 0.36445 0.31587 0.0
H1784 H 0.59651 0.32557 0.1675 0.0
H1785 H 0.61739 0.38138 0.08286 0.0
H1786 H 0.58808 0.33793 0.39889 0.0
H1787 H 0.61177 0.32747 0.39052 0.0
H1788 H 0.59215 0.31767 0.3233 0.0
H1789 H 0.61282 0.40605 0.28495 0.0
H1790 H 0.62749 0.40551 0.18346 0.0
H1791 H 0.63688 0.39645 0.28998 0.0
C1792 C 0.84051 0.60048 0.94056 0.0
C1793 C 0.85332 0.60617 0.87227 0.0
C1794 C 0.84577 0.60296 0.0322 0.0
C1795 C 0.86413 0.61118 0.05336 0.0
C1796 C 0.87714 0.61653 -0.01618 0.0
C1797 C 0.87151 0.61394 0.89389 0.0
C1798 C 0.8317 0.5971 0.10613 0.0
C1799 C 0.89678 0.62536 0.0041 0.0
C1800 C 0.86839 0.63387 0.28525 0.0
C1801 C 0.87646 0.61845 0.33452 0.0
C1802 C 0.8649 0.63197 0.19196 0.0
C1803 C 0.86979 0.61435 0.14839 0.0
C1804 C 0.8797 0.59955 0.19597 0.0
C1805 C 0.88307 0.60187 0.28897 0.0
C1806 C 0.8547 0.64818 0.14178 0.0
C1807 C 0.88541 0.58073 0.15042 0.0
H1808 H 0.82645 0.59455 0.92241 0.0
H1809 H 0.88126 0.61834 0.83991 0.0
H1810 H 0.83868 0.58653 0.1529 0.0
H1811 H 0.82766 0.60998 0.1474 0.0
H1812 H 0.81824 0.59052 0.07803 0.0
H1813 H 0.90535 0.62811 0.94124 0.0
H1814 H 0.89489 0.6393 0.04081 0.0
H1815 H 0.9053 0.61564 0.04923 0.0
H1816 H 0.86333 0.64672 0.32054 0.0
H1817 H 0.88956 0.59006 0.32728 0.0
H1818 H 0.83979 0.64351 0.12337 0.0
H1819 H 0.8624 0.65164 0.0774 0.0
H1820 H 0.85367 0.6616 0.18351 0.0
H1821 H 0.87214 0.57257 0.13113 0.0
H1822 H 0.8944 0.5714 0.19559 0.0
H1823 H 0.89363 0.5836 0.08686 0.0
C1824 C 0.59816 0.13413 0.67073 0.0
C1825 C 0.61459 0.142 0.62835 0.0
C1826 C 0.59548 0.13618 0.76424 0.0
C1827 C 0.60977 0.14602 0.81526 0.0
C1828 C 0.6274 0.15193 0.77465 0.0
C1829 C 0.62966 0.14978 0.68078 0.0
C1830 C 0.57666 0.12944 0.80649 0.0
C1831 C 0.64313 0.16198 0.82877 0.0
C1832 C 0.5951 0.17515 0.02114 0.0
C1833 C 0.60149 0.16278 0.08984 0.0
C1834 C 0.59722 0.16957 0.92993 0.0
C1835 C 0.60578 0.15133 0.90975 0.0
C1836 C 0.61143 0.13856 0.97978 0.0
C1837 C 0.6092 0.14452 0.06937 0.0
C1838 C 0.59098 0.18336 0.85538 0.0
C1839 C 0.62046 0.11898 0.96028 0.0
H1840 H 0.58668 0.12773 0.62995 0.0
H1841 H 0.64246 0.15566 0.64791 0.0
H1842 H 0.57936 0.12171 0.87162 0.0
H1843 H 0.56747 0.14224 0.82215 0.0
H1844 H 0.56839 0.1197 0.76024 0.0
H1845 H 0.6567 0.16376 0.78876 0.0
H1846 H 0.63798 0.17657 0.84987 0.0
H1847 H 0.64651 0.15372 0.89174 0.0
H1848 H 0.58912 0.18922 0.03856 0.0
H1849 H 0.61401 0.13506 0.12392 0.0
H1850 H 0.58095 0.17593 0.8075 0.0
H1851 H 0.60384 0.18803 0.81555 0.0
H1852 H 0.58364 0.19647 0.88281 0.0
H1853 H 0.61058 0.11015 0.91729 0.0
H1854 H 0.62373 0.11073 0.02357 0.0
H1855 H 0.63415 0.12089 0.92159 0.0
C1856 C 0.14071 0.40281 0.27537 0.0
C1857 C 0.155 0.40063 0.34171 0.0
C1858 C 0.14612 0.40584 0.18457 0.0
C1859 C 0.1661 0.40772 0.16293 0.0
C1860 C 0.18046 0.40577 0.23075 0.0
C1861 C 0.17468 0.40181 0.31936 0.0
C1862 C 0.13058 0.40684 0.11197 0.0
C1863 C 0.20181 0.40854 0.21088 0.0
C1864 C 0.18014 0.39501 0.92485 0.0
C1865 C 0.17757 0.4129 0.88085 0.0
C1866 C 0.17675 0.39321 0.01764 0.0
C1867 C 0.17208 0.40998 0.06802 0.0
C1868 C 0.17217 0.4285 0.02659 0.0
C1869 C 0.17454 0.42975 0.9321 0.0
C1870 C 0.17667 0.37318 0.06003 0.0
C1871 C 0.16863 0.44674 0.08099 0.0
H1872 H 0.12552 0.40222 0.29453 0.0
H1873 H 0.18556 0.40052 0.37238 0.0
H1874 H 0.13083 0.42126 0.07841 0.0
H1875 H 0.13345 0.3958 0.05853 0.0
H1876 H 0.11582 0.40435 0.14013 0.0
H1877 H 0.21107 0.40361 0.26841 0.0
H1878 H 0.20631 0.4006 0.14867 0.0
H1879 H 0.20464 0.42416 0.19863 0.0
H1880 H 0.18306 0.38199 0.88569 0.0
H1881 H 0.17294 0.44364 0.89819 0.0
H1882 H 0.16211 0.37005 0.08878 0.0
H1883 H 0.18725 0.37244 0.11697 0.0
H1884 H 0.18033 0.36162 0.0101 0.0
H1885 H 0.15316 0.44747 0.10142 0.0
H1886 H 0.17216 0.46001 0.04127 0.0
H1887 H 0.17748 0.44664 0.14433 0.0
C1888 C 0.40792 0.87425 0.07288 0.0
C1889 C 0.4156 0.85597 0.09316 0.0
C1890 C 0.40455 0.87983 -0.01657 0.0
C1891 C 0.40929 0.86675 0.91317 0.0
C1892 C 0.41772 0.84842 0.93297 0.0
C1893 C 0.42069 0.84311 0.0241 0.0
C1894 C 0.39535 0.89936 0.96458 0.0
C1895 C 0.42318 0.83438 0.85819 0.0
C1896 C 0.38582 0.869 0.68255 0.0
C1897 C 0.40105 0.87686 0.63158 0.0
C1898 C 0.38781 0.86667 0.77664 0.0
C1899 C 0.40542 0.87228 0.81867 0.0
C1900 C 0.41989 0.88213 0.76899 0.0
C1901 C 0.41737 0.88458 0.67562 0.0
C1902 C 0.37182 0.85678 0.82945 0.0
C1903 C 0.43878 0.88843 0.81248 0.0
H1904 H 0.40391 0.88399 0.12763 0.0
H1905 H 0.42649 0.82895 0.04132 0.0
H1906 H 0.38095 0.89726 0.93204 0.0
H1907 H 0.39335 0.90807 0.02765 0.0
H1908 H 0.40437 0.90782 0.91628 0.0
H1909 H 0.43029 0.8211 0.8852 0.0
H1910 H 0.41001 0.83004 0.81965 0.0
H1911 H 0.43318 0.84149 0.80922 0.0
H1912 H 0.3731 0.86323 0.64841 0.0
H1913 H 0.42897 0.89107 0.63603 0.0
H1914 H 0.36879 0.86469 0.89376 0.0
H1915 H 0.3765 0.84189 0.84811 0.0
H1916 H 0.35817 0.85574 0.7893 0.0
H1917 H 0.43604 0.89665 0.87618 0.0
H1918 H 0.44762 0.8976 0.76608 0.0
H1919 H 0.44741 0.87541 0.83103 0.0
C1920 C 0.87463 0.9076 0.32766 0.0
C1921 C 0.85598 0.91437 0.34782 0.0
C1922 C 0.88082 0.90583 0.23818 0.0
C1923 C 0.86784 0.91088 0.16792 0.0
C1924 C 0.84906 0.91825 0.18779 0.0
C1925 C 0.8433 0.92003 0.27889 0.0
C1926 C 0.90099 0.89815 0.21903 0.0
C1927 C 0.83499 0.92371 0.11301 0.0
C1928 C 0.88467 0.92052 0.92993 0.0
C1929 C 0.87818 0.90365 0.88629 0.0
C1930 C 0.88238 0.92272 0.02366 0.0
C1931 C 0.87358 0.90759 0.07338 0.0
C1932 C 0.86903 0.88971 0.03136 0.0
C1933 C 0.87152 0.88789 0.93751 0.0
C1934 C 0.88777 0.9418 0.06762 0.0
C1935 C 0.86001 0.87315 0.08389 0.0
H1936 H 0.88432 0.90336 0.38235 0.0
H1937 H 0.82894 0.92531 0.29609 0.0
H1938 H 0.90011 0.88482 0.17687 0.0
H1939 H 0.9094 0.909 0.17961 0.0
H1940 H 0.90913 0.89471 0.28247 0.0
H1941 H 0.82126 0.92984 0.1403 0.0
H1942 H 0.84172 0.93452 0.06676 0.0
H1943 H 0.83147 0.91072 0.07146 0.0
H1944 H 0.89018 0.93257 0.89005 0.0
H1945 H 0.86668 0.87477 0.90365 0.0
H1946 H 0.89567 0.93939 0.13257 0.0
H1947 H 0.87434 0.94999 0.08397 0.0
H1948 H 0.8969 0.9509 0.02221 0.0
H1949 H 0.86842 0.87013 0.14687 0.0
H1950 H 0.8592 0.85964 0.04278 0.0
H1951 H 0.84508 0.87723 0.10487 0.0
C1952 C 0.91505 0.13802 0.03844 0.0
C1953 C 0.89847 0.14475 0.08368 0.0
C1954 C 0.91714 0.14084 0.94503 0.0
C1955 C 0.90212 0.15029 0.89689 0.0
C1956 C 0.88446 0.15511 0.9403 0.0
C1957 C 0.8828 0.15221 0.03408 0.0
C1958 C 0.93603 0.13524 0.89972 0.0
C1959 C 0.86801 0.16478 0.88944 0.0
C1960 C 0.91592 0.1799 0.69074 0.0
C1961 C 0.91073 0.16701 0.62191 0.0
C1962 C 0.91328 0.17454 0.782 0.0
C1963 C 0.90532 0.15604 0.8022 0.0
C1964 C 0.90041 0.14297 0.73213 0.0
C1965 C 0.90322 0.14868 0.64251 0.0
C1966 C 0.91871 0.18865 0.85657 0.0
C1967 C 0.89184 0.12319 0.7515 0.0
H1968 H 0.92702 0.13194 0.07713 0.0
H1969 H 0.86994 0.15731 0.06925 0.0
H1970 H 0.93326 0.12702 0.83603 0.0
H1971 H 0.94412 0.14857 0.88077 0.0
H1972 H 0.94539 0.12632 0.94504 0.0
H1973 H 0.85451 0.16541 0.93075 0.0
H1974 H 0.87226 0.17981 0.87127 0.0
H1975 H 0.86487 0.15697 0.82494 0.0
H1976 H 0.92162 0.19408 0.67325 0.0
H1977 H 0.89918 0.1389 0.58798 0.0
H1978 H 0.9294 0.18187 0.90345 0.0
H1979 H 0.90569 0.19235 0.89754 0.0
H1980 H 0.92502 0.20228 0.82912 0.0
H1981 H 0.90158 0.11481 0.79709 0.0
H1982 H 0.88938 0.11463 0.68831 0.0
H1983 H 0.87777 0.12484 0.78737 0.0
C1984 C 0.13595 0.11552 0.93897 0.0
C1985 C 0.15018 0.11657 0.87189 0.0
C1986 C 0.14139 0.11239 0.02982 0.0
C1987 C 0.16127 0.10929 0.05092 0.0
C1988 C 0.17554 0.11013 0.98237 0.0
C1989 C 0.16979 0.11418 0.89372 0.0
C1990 C 0.12599 0.11252 0.10303 0.0
C1991 C 0.19673 0.10604 0.00119 0.0
C1992 C 0.17647 0.12127 0.28877 0.0
C1993 C 0.1729 0.1036 0.33307 0.0
C1994 C 0.17312 0.12321 0.19587 0.0
C1995 C 0.16731 0.10674 0.14582 0.0
C1996 C 0.16638 0.08827 0.18756 0.0
C1997 C 0.16887 0.08693 0.28202 0.0
C1998 C 0.17439 0.14313 0.15289 0.0
C1999 C 0.16165 0.07025 0.13351 0.0
H2000 H 0.12079 0.11707 0.92039 0.0
H2001 H 0.18061 0.11464 0.84033 0.0
H2002 H 0.12546 0.0982 0.13742 0.0
H2003 H 0.12966 0.12349 0.1557 0.0
H2004 H 0.11135 0.11584 0.07528 0.0
H2005 H 0.20616 0.11133 0.94509 0.0
H2006 H 0.20169 0.11279 0.06573 0.0
H2007 H 0.19881 0.09014 0.00786 0.0
H2008 H 0.18019 0.1341 0.32784 0.0
H2009 H 0.16648 0.07318 0.31611 0.0
H2010 H 0.16007 0.14722 0.12387 0.0
H2011 H 0.18499 0.14303 0.09605 0.0
H2012 H 0.17884 0.15447 0.20251 0.0
H2013 H 0.14619 0.07058 0.11247 0.0
H2014 H 0.16423 0.05682 0.17363 0.0
H2015 H 0.17056 0.06969 0.07051 0.0
C2016 C 0.12347 0.84366 0.65562 0.0
C2017 C 0.10548 0.84389 0.61074 0.0
C2018 C 0.12464 0.84723 0.74849 0.0
C2019 C 0.1073 0.84967 0.79816 0.0
C2020 C 0.08902 0.8473 0.75574 0.0
C2021 C 0.08828 0.84481 0.66116 0.0
C2022 C 0.14444 0.84989 0.79173 0.0
C2023 C 0.07035 0.8485 0.80917 0.0
C2024 C 0.11643 0.84745 0.04867 0.0
C2025 C 0.11572 0.8671 0.07199 0.0
C2026 C 0.11249 0.84144 0.9603 0.0
C2027 C 0.10866 0.85563 0.89353 0.0
C2028 C 0.10832 0.87563 0.91629 0.0
C2029 C 0.11135 0.88116 0.00698 0.0
C2030 C 0.11212 0.81999 0.93893 0.0
C2031 C 0.10521 0.8911 0.84479 0.0
H2032 H 0.13684 0.84243 0.61712 0.0
H2033 H 0.07436 0.84465 0.62655 0.0
H2034 H 0.14559 0.8647 0.82102 0.0
H2035 H 0.14649 0.83944 0.84838 0.0
H2036 H 0.15646 0.84786 0.7422 0.0
H2037 H 0.05775 0.84316 0.76902 0.0
H2038 H 0.07147 0.83992 0.87301 0.0
H2039 H 0.06753 0.86379 0.82868 0.0
H2040 H 0.11934 0.83667 0.10073 0.0
H2041 H 0.11044 0.89628 0.02696 0.0
H2042 H 0.1217 0.81654 0.88046 0.0
H2043 H 0.09717 0.81572 0.91917 0.0
H2044 H 0.11676 0.81103 -0.00202 0.0
H2045 H 0.11658 0.88993 0.79149 0.0
H2046 H 0.10565 0.90597 0.87402 0.0
H2047 H 0.09099 0.88898 0.81076 0.0
loop_
_geom_bond_atom_site_label_1
_geom_bond_atom_site_label_2
_geom_bond_distance
_geom_bond_site_symmetry_2
_ccdc_geom_bond_type
Zn0 O1 2.055 1_554 S
Zn0 O8 2.046 . S
Zn0 N16 2.036 . S
Zn0 O28 2.053 . S
Zn0 O30 2.066 . S
O1 Zn0 2.055 1_556 S
O1 C4 1.259 . S
C2 O30 1.256 . S
C2 O31 1.244 . S
Zn3 O5 2.046 1_554 S
Zn3 O7 2.055 . S
Zn3 N9 2.036 . S
Zn3 O27 2.066 . S
Zn3 O31 2.053 . S
C4 O1 1.259 . S
C4 O5 1.254 . S
O5 Zn3 2.046 1_556 S
O5 C4 1.254 . S
C6 O27 1.256 . S
C6 O28 1.244 . S
O7 Zn3 2.055 . S
O7 C29 1.259 . S
O8 Zn0 2.046 . S
O8 C29 1.254 . S
N9 Zn3 2.036 . S
N9 C10 1.298 . S
N9 N12 1.398 . S
C10 N9 1.298 . S
C10 N13 1.367 . S
C10 C23 1.481 . S
C11 N12 1.299 . S
C11 N13 1.379 . S
N12 N9 1.398 . S
N12 C11 1.299 . S
N13 C10 1.367 . S
N13 C11 1.379 . S
C14 N16 1.298 . S
C14 N18 1.367 . S
C14 C22 1.481 1_554 S
C15 N17 1.299 . S
C15 N18 1.379 . S
N16 Zn0 2.036 . S
N16 C14 1.298 . S
N16 N17 1.398 . S
N17 C15 1.299 . S
N17 N16 1.398 . S
N18 C14 1.367 . S
N18 C15 1.379 . S
H19 C22 0.980 . S
H20 C22 0.981 . S
H21 C22 0.981 . S
C22 C14 1.481 1_556 S
C22 H19 0.980 . S
C22 H20 0.981 . S
C22 H21 0.981 . S
C23 C10 1.481 . S
C23 H24 0.980 . S
C23 H25 0.981 . S
C23 H26 0.981 . S
H24 C23 0.980 . S
H25 C23 0.981 . S
H26 C23 0.981 . S
O27 Zn3 2.066 . S
O27 C6 1.256 . S
O28 Zn0 2.053 . S
O28 C6 1.244 . S
C29 O7 1.259 . S
C29 O8 1.254 . S
O30 Zn0 2.066 . S
O30 C2 1.256 . S
O31 C2 1.244 . S
O31 Zn3 2.053 . S
Zn32 O33 2.055 1_556 S
Zn32 O40 2.046 . S
Zn32 N48 2.036 . S
Zn32 O60 2.053 . S
Zn32 O62 2.066 . S
O33 Zn32 2.055 1_554 S
O33 C36 1.259 . S
C34 O62 1.256 . S
C34 O63 1.244 . S
Zn35 O37 2.046 1_556 S
Zn35 O39 2.055 . S
Zn35 N41 2.036 . S
Zn35 O59 2.066 . S
Zn35 O63 2.053 . S
C36 O33 1.259 . S
C36 O37 1.254 . S
O37 Zn35 2.046 1_554 S
O37 C36 1.254 . S
C38 O59 1.256 . S
C38 O60 1.244 . S
O39 Zn35 2.055 . S
O39 C61 1.259 . S
O40 Zn32 2.046 . S
O40 C61 1.254 . S
N41 Zn35 2.036 . S
N41 C42 1.298 . S
N41 N44 1.398 . S
C42 N41 1.298 . S
C42 N45 1.367 . S
C42 C55 1.481 . S
C43 N44 1.299 . S
C43 N45 1.379 . S
N44 N41 1.398 . S
N44 C43 1.299 . S
N45 C42 1.367 . S
N45 C43 1.379 . S
C46 N48 1.298 . S
C46 N50 1.367 . S
C46 C54 1.481 1_556 S
C47 N49 1.299 . S
C47 N50 1.379 . S
N48 Zn32 2.036 . S
N48 C46 1.298 . S
N48 N49 1.398 . S
N49 C47 1.299 . S
N49 N48 1.398 . S
N50 C46 1.367 . S
N50 C47 1.379 . S
H51 C54 0.980 . S
H52 C54 0.981 . S
H53 C54 0.981 . S
C54 C46 1.481 1_554 S
C54 H51 0.980 . S
C54 H52 0.981 . S
C54 H53 0.981 . S
C55 C42 1.481 . S
C55 H56 0.980 . S
C55 H57 0.981 . S
C55 H58 0.981 . S
H56 C55 0.980 . S
H57 C55 0.981 . S
H58 C55 0.981 . S
O59 Zn35 2.066 . S
O59 C38 1.256 . S
O60 Zn32 2.053 . S
O60 C38 1.244 . S
C61 O39 1.259 . S
C61 O40 1.254 . S
O62 Zn32 2.066 . S
O62 C34 1.256 . S
O63 C34 1.244 . S
O63 Zn35 2.053 . S
Zn64 O65 2.055 . S
Zn64 O72 2.046 1_554 S
Zn64 N80 2.036 . S
Zn64 O92 2.053 . S
Zn64 O94 2.066 . S
O65 Zn64 2.055 . S
O65 C68 1.259 . S
C66 O94 1.256 . S
C66 O95 1.244 . S
Zn67 O69 2.046 . S
Zn67 O71 2.055 1_554 S
Zn67 N73 2.036 . S
Zn67 O91 2.066 . S
Zn67 O95 2.053 . S
C68 O65 1.259 . S
C68 O69 1.254 . S
O69 Zn67 2.046 . S
O69 C68 1.254 . S
C70 O91 1.256 . S
C70 O92 1.244 . S
O71 Zn67 2.055 1_556 S
O71 C93 1.259 . S
O72 Zn64 2.046 1_556 S
O72 C93 1.254 . S
N73 Zn67 2.036 . S
N73 C74 1.298 . S
N73 N76 1.398 . S
C74 N73 1.298 . S
C74 N77 1.367 . S
C74 C87 1.481 1_554 S
C75 N76 1.299 . S
C75 N77 1.379 . S
N76 N73 1.398 . S
N76 C75 1.299 . S
N77 C74 1.367 . S
N77 C75 1.379 . S
C78 N80 1.298 . S
C78 N82 1.367 . S
C78 C86 1.481 . S
C79 N81 1.299 . S
C79 N82 1.379 . S
N80 Zn64 2.036 . S
N80 C78 1.298 . S
N80 N81 1.398 . S
N81 C79 1.299 . S
N81 N80 1.398 . S
N82 C78 1.367 . S
N82 C79 1.379 . S
H83 C86 0.980 . S
H84 C86 0.981 . S
H85 C86 0.981 . S
C86 C78 1.481 . S
C86 H83 0.980 . S
C86 H84 0.981 . S
C86 H85 0.981 . S
C87 C74 1.481 1_556 S
C87 H88 0.980 . S
C87 H89 0.981 . S
C87 H90 0.981 . S
H88 C87 0.980 . S
H89 C87 0.981 . S
H90 C87 0.981 . S
O91 Zn67 2.066 . S
O91 C70 1.256 . S
O92 Zn64 2.053 . S
O92 C70 1.244 . S
C93 O71 1.259 . S
C93 O72 1.254 . S
O94 Zn64 2.066 . S
O94 C66 1.256 . S
O95 C66 1.244 . S
O95 Zn67 2.053 . S
Zn96 O97 2.055 . S
Zn96 O104 2.046 1_556 S
Zn96 N112 2.036 . S
Zn96 O124 2.053 . S
Zn96 O126 2.066 . S
O97 Zn96 2.055 . S
O97 C100 1.259 . S
C98 O126 1.256 . S
C98 O127 1.244 . S
Zn99 O101 2.046 . S
Zn99 O103 2.055 1_556 S
Zn99 N105 2.036 . S
Zn99 O123 2.066 . S
Zn99 O127 2.053 . S
C100 O97 1.259 . S
C100 O101 1.254 . S
O101 Zn99 2.046 . S
O101 C100 1.254 . S
C102 O123 1.256 . S
C102 O124 1.244 . S
O103 Zn99 2.055 1_554 S
O103 C125 1.259 . S
O104 Zn96 2.046 1_554 S
O104 C125 1.254 . S
N105 Zn99 2.036 . S
N105 C106 1.298 . S
N105 N108 1.398 . S
C106 N105 1.298 . S
C106 N109 1.367 . S
C106 C119 1.481 1_556 S
C107 N108 1.299 . S
C107 N109 1.379 . S
N108 N105 1.398 . S
N108 C107 1.299 . S
N109 C106 1.367 . S
N109 C107 1.379 . S
C110 N112 1.298 . S
C110 N114 1.367 . S
C110 C118 1.481 . S
C111 N113 1.299 . S
C111 N114 1.379 . S
N112 Zn96 2.036 . S
N112 C110 1.298 . S
N112 N113 1.398 . S
N113 C111 1.299 . S
N113 N112 1.398 . S
N114 C110 1.367 . S
N114 C111 1.379 . S
H115 C118 0.980 . S
H116 C118 0.981 . S
H117 C118 0.981 . S
C118 C110 1.481 . S
C118 H115 0.980 . S
C118 H116 0.981 . S
C118 H117 0.981 . S
C119 C106 1.481 1_554 S
C119 H120 0.980 . S
C119 H121 0.981 . S
C119 H122 0.981 . S
H120 C119 0.980 . S
H121 C119 0.981 . S
H122 C119 0.981 . S
O123 Zn99 2.066 . S
O123 C102 1.256 . S
O124 Zn96 2.053 . S
O124 C102 1.244 . S
C125 O103 1.259 . S
C125 O104 1.254 . S
O126 Zn96 2.066 . S
O126 C98 1.256 . S
O127 C98 1.244 . S
O127 Zn99 2.053 . S
Zn128 O129 2.055 . S
Zn128 O136 2.046 . S
Zn128 N144 2.036 . S
Zn128 O156 2.053 1_554 S
Zn128 O158 2.066 . S
O129 Zn128 2.055 . S
O129 C132 1.259 . S
C130 O158 1.256 . S
C130 O159 1.244 . S
Zn131 O133 2.046 . S
Zn131 O135 2.055 . S
Zn131 N137 2.036 . S
Zn131 O155 2.066 1_554 S
Zn131 O159 2.053 . S
C132 O129 1.259 . S
C132 O133 1.254 . S
O133 Zn131 2.046 . S
O133 C132 1.254 . S
C134 O155 1.256 . S
C134 O156 1.244 . S
O135 Zn131 2.055 . S
O135 C157 1.259 . S
O136 Zn128 2.046 . S
O136 C157 1.254 . S
N137 Zn131 2.036 . S
N137 C138 1.298 . S
N137 N140 1.398 . S
C138 N137 1.298 . S
C138 N141 1.367 . S
C138 C151 1.481 . S
C139 N140 1.299 . S
C139 N141 1.379 . S
N140 N137 1.398 . S
N140 C139 1.299 . S
N141 C138 1.367 . S
N141 C139 1.379 . S
C142 N144 1.298 . S
C142 N146 1.367 . S
C142 C150 1.481 . S
C143 N145 1.299 . S
C143 N146 1.379 . S
N144 Zn128 2.036 . S
N144 C142 1.298 . S
N144 N145 1.398 . S
N145 C143 1.299 . S
N145 N144 1.398 . S
N146 C142 1.367 . S
N146 C143 1.379 . S
H147 C150 0.980 . S
H148 C150 0.981 . S
H149 C150 0.981 . S
C150 C142 1.481 . S
C150 H147 0.980 . S
C150 H148 0.981 . S
C150 H149 0.981 . S
C151 C138 1.481 . S
C151 H152 0.980 . S
C151 H153 0.981 . S
C151 H154 0.981 1_554 S
H152 C151 0.980 . S
H153 C151 0.981 . S
H154 C151 0.981 1_556 S
O155 Zn131 2.066 1_556 S
O155 C134 1.256 . S
O156 Zn128 2.053 1_556 S
O156 C134 1.244 . S
C157 O135 1.259 . S
C157 O136 1.254 . S
O158 Zn128 2.066 . S
O158 C130 1.256 . S
O159 C130 1.244 . S
O159 Zn131 2.053 . S
Zn160 O161 2.055 . S
Zn160 O168 2.046 . S
Zn160 N176 2.036 . S
Zn160 O188 2.053 . S
Zn160 O190 2.066 1_556 S
O161 Zn160 2.055 . S
O161 C164 1.259 . S
C162 O190 1.256 . S
C162 O191 1.244 . S
Zn163 O165 2.046 . S
Zn163 O167 2.055 . S
Zn163 N169 2.036 . S
Zn163 O187 2.066 . S
Zn163 O191 2.053 1_556 S
C164 O161 1.259 . S
C164 O165 1.254 . S
O165 Zn163 2.046 . S
O165 C164 1.254 . S
C166 O187 1.256 . S
C166 O188 1.244 . S
O167 Zn163 2.055 . S
O167 C189 1.259 . S
O168 Zn160 2.046 . S
O168 C189 1.254 . S
N169 Zn163 2.036 . S
N169 C170 1.298 . S
N169 N172 1.398 . S
C170 N169 1.298 . S
C170 N173 1.367 . S
C170 C183 1.481 . S
C171 N172 1.299 . S
C171 N173 1.379 . S
N172 N169 1.398 . S
N172 C171 1.299 . S
N173 C170 1.367 . S
N173 C171 1.379 . S
C174 N176 1.298 . S
C174 N178 1.367 . S
C174 C182 1.481 . S
C175 N177 1.299 . S
C175 N178 1.379 . S
N176 Zn160 2.036 . S
N176 C174 1.298 . S
N176 N177 1.398 . S
N177 C175 1.299 . S
N177 N176 1.398 . S
N178 C174 1.367 . S
N178 C175 1.379 . S
H179 C182 0.980 . S
H180 C182 0.981 . S
H181 C182 0.981 1_554 S
C182 C174 1.481 . S
C182 H179 0.980 . S
C182 H180 0.981 . S
C182 H181 0.981 1_556 S
C183 C170 1.481 . S
C183 H184 0.980 . S
C183 H185 0.981 . S
C183 H186 0.981 . S
H184 C183 0.980 . S
H185 C183 0.981 . S
H186 C183 0.981 . S
O187 Zn163 2.066 . S
O187 C166 1.256 . S
O188 Zn160 2.053 . S
O188 C166 1.244 . S
C189 O167 1.259 . S
C189 O168 1.254 . S
O190 Zn160 2.066 1_554 S
O190 C162 1.256 . S
O191 C162 1.244 . S
O191 Zn163 2.053 1_554 S
Zn192 O193 2.055 . S
Zn192 O200 2.046 . S
Zn192 N208 2.036 . S
Zn192 O220 2.053 1_554 S
Zn192 O222 2.066 . S
O193 Zn192 2.055 . S
O193 C196 1.259 . S
C194 O222 1.256 . S
C194 O223 1.244 . S
Zn195 O197 2.046 . S
Zn195 O199 2.055 . S
Zn195 N201 2.036 . S
Zn195 O219 2.066 1_554 S
Zn195 O223 2.053 . S
C196 O193 1.259 . S
C196 O197 1.254 . S
O197 Zn195 2.046 . S
O197 C196 1.254 . S
C198 O219 1.256 . S
C198 O220 1.244 . S
O199 Zn195 2.055 . S
O199 C221 1.259 . S
O200 Zn192 2.046 . S
O200 C221 1.254 . S
N201 Zn195 2.036 . S
N201 C202 1.298 . S
N201 N204 1.398 . S
C202 N201 1.298 . S
C202 N205 1.367 . S
C202 C215 1.481 . S
C203 N204 1.299 . S
C203 N205 1.379 . S
N204 N201 1.398 . S
N204 C203 1.299 . S
N205 C202 1.367 . S
N205 C203 1.379 . S
C206 N208 1.298 . S
C206 N210 1.367 . S
C206 C214 1.481 . S
C207 N209 1.299 . S
C207 N210 1.379 . S
N208 Zn192 2.036 . S
N208 C206 1.298 . S
N208 N209 1.398 . S
N209 C207 1.299 . S
N209 N208 1.398 . S
N210 C206 1.367 . S
N210 C207 1.379 . S
H211 C214 0.980 . S
H212 C214 0.981 . S
H213 C214 0.981 . S
C214 C206 1.481 . S
C214 H211 0.980 . S
C214 H212 0.981 . S
C214 H213 0.981 . S
C215 C202 1.481 . S
C215 H216 0.980 . S
C215 H217 0.981 . S
C215 H218 0.981 1_554 S
H216 C215 0.980 . S
H217 C215 0.981 . S
H218 C215 0.981 1_556 S
O219 Zn195 2.066 1_556 S
O219 C198 1.256 . S
O220 Zn192 2.053 1_556 S
O220 C198 1.244 . S
C221 O199 1.259 . S
C221 O200 1.254 . S
O222 Zn192 2.066 . S
O222 C194 1.256 . S
O223 C194 1.244 . S
O223 Zn195 2.053 . S
Zn224 O225 2.055 . S
Zn224 O232 2.046 . S
Zn224 N240 2.036 . S
Zn224 O252 2.053 1_556 S
Zn224 O254 2.066 . S
O225 Zn224 2.055 . S
O225 C228 1.259 . S
C226 O254 1.256 . S
C226 O255 1.244 . S
Zn227 O229 2.046 . S
Zn227 O231 2.055 . S
Zn227 N233 2.036 . S
Zn227 O251 2.066 1_556 S
Zn227 O255 2.053 . S
C228 O225 1.259 . S
C228 O229 1.254 . S
O229 Zn227 2.046 . S
O229 C228 1.254 . S
C230 O251 1.256 . S
C230 O252 1.244 . S
O231 Zn227 2.055 . S
O231 C253 1.259 . S
O232 Zn224 2.046 . S
O232 C253 1.254 . S
N233 Zn227 2.036 . S
N233 C234 1.298 . S
N233 N236 1.398 . S
C234 N233 1.298 . S
C234 N237 1.367 . S
C234 C247 1.481 . S
C235 N236 1.299 . S
C235 N237 1.379 . S
N236 N233 1.398 . S
N236 C235 1.299 . S
N237 C234 1.367 . S
N237 C235 1.379 . S
C238 N240 1.298 . S
C238 N242 1.367 . S
C238 C246 1.481 . S
C239 N241 1.299 . S
C239 N242 1.379 . S
N240 Zn224 2.036 . S
N240 C238 1.298 . S
N240 N241 1.398 . S
N241 C239 1.299 . S
N241 N240 1.398 . S
N242 C238 1.367 . S
N242 C239 1.379 . S
H243 C246 0.980 . S
H244 C246 0.981 . S
H245 C246 0.981 . S
C246 C238 1.481 . S
C246 H243 0.980 . S
C246 H244 0.981 . S
C246 H245 0.981 . S
C247 C234 1.481 . S
C247 H248 0.980 . S
C247 H249 0.981 . S
C247 H250 0.981 1_556 S
H248 C247 0.980 . S
H249 C247 0.981 . S
H250 C247 0.981 1_554 S
O251 Zn227 2.066 1_554 S
O251 C230 1.256 . S
O252 Zn224 2.053 1_554 S
O252 C230 1.244 . S
C253 O231 1.259 . S
C253 O232 1.254 . S
O254 Zn224 2.066 . S
O254 C226 1.256 . S
O255 C226 1.244 . S
O255 Zn227 2.053 . S
Zn256 O257 2.055 . S
Zn256 O264 2.046 . S
Zn256 N272 2.036 . S
Zn256 O284 2.053 . S
Zn256 O286 2.066 . S
O257 Zn256 2.055 . S
O257 C260 1.259 . S
C258 O286 1.256 . S
C258 O287 1.244 . S
Zn259 O261 2.046 . S
Zn259 O263 2.055 . S
Zn259 N265 2.036 . S
Zn259 O283 2.066 . S
Zn259 O287 2.053 . S
C260 O257 1.259 . S
C260 O261 1.254 . S
O261 Zn259 2.046 . S
O261 C260 1.254 . S
C262 O283 1.256 . S
C262 O284 1.244 . S
O263 Zn259 2.055 . S
O263 C285 1.259 . S
O264 Zn256 2.046 . S
O264 C285 1.254 . S
N265 Zn259 2.036 . S
N265 C266 1.298 . S
N265 N268 1.398 . S
C266 N265 1.298 . S
C266 N269 1.367 . S
C266 C279 1.481 . S
C267 N268 1.299 . S
C267 N269 1.379 . S
N268 N265 1.398 . S
N268 C267 1.299 . S
N269 C266 1.367 . S
N269 C267 1.379 . S
C270 N272 1.298 . S
C270 N274 1.367 . S
C270 C278 1.481 . S
C271 N273 1.299 . S
C271 N274 1.379 . S
N272 Zn256 2.036 . S
N272 C270 1.298 . S
N272 N273 1.398 . S
N273 C271 1.299 . S
N273 N272 1.398 . S
N274 C270 1.367 . S
N274 C271 1.379 . S
H275 C278 0.980 . S
H276 C278 0.981 . S
H277 C278 0.981 . S
C278 C270 1.481 . S
C278 H275 0.980 . S
C278 H276 0.981 . S
C278 H277 0.981 . S
C279 C266 1.481 . S
C279 H280 0.980 . S
C279 H281 0.981 . S
C279 H282 0.981 . S
H280 C279 0.980 . S
H281 C279 0.981 . S
H282 C279 0.981 . S
O283 Zn259 2.066 . S
O283 C262 1.256 . S
O284 Zn256 2.053 . S
O284 C262 1.244 . S
C285 O263 1.259 . S
C285 O264 1.254 . S
O286 Zn256 2.066 . S
O286 C258 1.256 . S
O287 C258 1.244 . S
O287 Zn259 2.053 . S
Zn288 O289 2.055 . S
Zn288 O296 2.046 . S
Zn288 N304 2.036 . S
Zn288 O316 2.053 . S
Zn288 O318 2.066 . S
O289 Zn288 2.055 . S
O289 C292 1.259 . S
C290 O318 1.256 . S
C290 O319 1.244 . S
Zn291 O293 2.046 . S
Zn291 O295 2.055 . S
Zn291 N297 2.036 . S
Zn291 O315 2.066 . S
Zn291 O319 2.053 . S
C292 O289 1.259 . S
C292 O293 1.254 . S
O293 Zn291 2.046 . S
O293 C292 1.254 . S
C294 O315 1.256 . S
C294 O316 1.244 . S
O295 Zn291 2.055 . S
O295 C317 1.259 . S
O296 Zn288 2.046 . S
O296 C317 1.254 . S
N297 Zn291 2.036 . S
N297 C298 1.298 . S
N297 N300 1.398 . S
C298 N297 1.298 . S
C298 N301 1.367 . S
C298 C311 1.481 . S
C299 N300 1.299 . S
C299 N301 1.379 . S
N300 N297 1.398 . S
N300 C299 1.299 . S
N301 C298 1.367 . S
N301 C299 1.379 . S
C302 N304 1.298 . S
C302 N306 1.367 . S
C302 C310 1.481 . S
C303 N305 1.299 . S
C303 N306 1.379 . S
N304 Zn288 2.036 . S
N304 C302 1.298 . S
N304 N305 1.398 . S
N305 C303 1.299 . S
N305 N304 1.398 . S
N306 C302 1.367 . S
N306 C303 1.379 . S
H307 C310 0.980 . S
H308 C310 0.981 . S
H309 C310 0.981 . S
C310 C302 1.481 . S
C310 H307 0.980 . S
C310 H308 0.981 . S
C310 H309 0.981 . S
C311 C298 1.481 . S
C311 H312 0.980 . S
C311 H313 0.981 . S
C311 H314 0.981 . S
H312 C311 0.980 . S
H313 C311 0.981 . S
H314 C311 0.981 . S
O315 Zn291 2.066 . S
O315 C294 1.256 . S
O316 Zn288 2.053 . S
O316 C294 1.244 . S
C317 O295 1.259 . S
C317 O296 1.254 . S
O318 Zn288 2.066 . S
O318 C290 1.256 . S
O319 C290 1.244 . S
O319 Zn291 2.053 . S
Zn320 O321 2.055 . S
Zn320 O328 2.046 . S
Zn320 N336 2.036 . S
Zn320 O348 2.053 . S
Zn320 O350 2.066 . S
O321 Zn320 2.055 . S
O321 C324 1.259 . S
C322 O350 1.256 . S
C322 O351 1.244 . S
Zn323 O325 2.046 . S
Zn323 O327 2.055 . S
Zn323 N329 2.036 . S
Zn323 O347 2.066 . S
Zn323 O351 2.053 . S
C324 O321 1.259 . S
C324 O325 1.254 . S
O325 Zn323 2.046 . S
O325 C324 1.254 . S
C326 O347 1.256 . S
C326 O348 1.244 . S
O327 Zn323 2.055 . S
O327 C349 1.259 . S
O328 Zn320 2.046 . S
O328 C349 1.254 . S
N329 Zn323 2.036 . S
N329 C330 1.298 . S
N329 N332 1.398 . S
C330 N329 1.298 . S
C330 N333 1.367 . S
C330 C343 1.481 . S
C331 N332 1.299 . S
C331 N333 1.379 . S
N332 N329 1.398 . S
N332 C331 1.299 . S
N333 C330 1.367 . S
N333 C331 1.379 . S
C334 N336 1.298 . S
C334 N338 1.367 . S
C334 C342 1.481 . S
C335 N337 1.299 . S
C335 N338 1.379 . S
N336 Zn320 2.036 . S
N336 C334 1.298 . S
N336 N337 1.398 . S
N337 C335 1.299 . S
N337 N336 1.398 . S
N338 C334 1.367 . S
N338 C335 1.379 . S
H339 C342 0.980 . S
H340 C342 0.981 . S
H341 C342 0.981 . S
C342 C334 1.481 . S
C342 H339 0.980 . S
C342 H340 0.981 . S
C342 H341 0.981 . S
C343 C330 1.481 . S
C343 H344 0.980 . S
C343 H345 0.981 . S
C343 H346 0.981 . S
H344 C343 0.980 . S
H345 C343 0.981 . S
H346 C343 0.981 . S
O347 Zn323 2.066 . S
O347 C326 1.256 . S
O348 Zn320 2.053 . S
O348 C326 1.244 . S
C349 O327 1.259 . S
C349 O328 1.254 . S
O350 Zn320 2.066 . S
O350 C322 1.256 . S
O351 C322 1.244 . S
O351 Zn323 2.053 . S
Zn352 O353 2.055 . S
Zn352 O360 2.046 . S
Zn352 N368 2.036 . S
Zn352 O380 2.053 . S
Zn352 O382 2.066 . S
O353 Zn352 2.055 . S
O353 C356 1.259 . S
C354 O382 1.256 . S
C354 O383 1.244 . S
Zn355 O357 2.046 . S
Zn355 O359 2.055 . S
Zn355 N361 2.036 . S
Zn355 O379 2.066 . S
Zn355 O383 2.053 . S
C356 O353 1.259 . S
C356 O357 1.254 . S
O357 Zn355 2.046 . S
O357 C356 1.254 . S
C358 O379 1.256 . S
C358 O380 1.244 . S
O359 Zn355 2.055 . S
O359 C381 1.259 . S
O360 Zn352 2.046 . S
O360 C381 1.254 . S
N361 Zn355 2.036 . S
N361 C362 1.298 . S
N361 N364 1.398 . S
C362 N361 1.298 . S
C362 N365 1.367 . S
C362 C375 1.481 . S
C363 N364 1.299 . S
C363 N365 1.379 . S
N364 N361 1.398 . S
N364 C363 1.299 . S
N365 C362 1.367 . S
N365 C363 1.379 . S
C366 N368 1.298 . S
C366 N370 1.367 . S
C366 C374 1.481 . S
C367 N369 1.299 . S
C367 N370 1.379 . S
N368 Zn352 2.036 . S
N368 C366 1.298 . S
N368 N369 1.398 . S
N369 C367 1.299 . S
N369 N368 1.398 . S
N370 C366 1.367 . S
N370 C367 1.379 . S
H371 C374 0.980 . S
H372 C374 0.981 . S
H373 C374 0.981 . S
C374 C366 1.481 . S
C374 H371 0.980 . S
C374 H372 0.981 . S
C374 H373 0.981 . S
C375 C362 1.481 . S
C375 H376 0.980 . S
C375 H377 0.981 . S
C375 H378 0.981 . S
H376 C375 0.980 . S
H377 C375 0.981 . S
H378 C375 0.981 . S
O379 Zn355 2.066 . S
O379 C358 1.256 . S
O380 Zn352 2.053 . S
O380 C358 1.244 . S
C381 O359 1.259 . S
C381 O360 1.254 . S
O382 Zn352 2.066 . S
O382 C354 1.256 . S
O383 C354 1.244 . S
O383 Zn355 2.053 . S
Zn384 O385 2.055 . S
Zn384 O392 2.046 . S
Zn384 N400 2.036 . S
Zn384 O412 2.053 . S
Zn384 O414 2.066 . S
O385 Zn384 2.055 . S
O385 C388 1.259 . S
C386 O414 1.256 . S
C386 O415 1.244 . S
Zn387 O389 2.046 . S
Zn387 O391 2.055 . S
Zn387 N393 2.036 . S
Zn387 O411 2.066 . S
Zn387 O415 2.053 . S
C388 O385 1.259 . S
C388 O389 1.254 . S
O389 Zn387 2.046 . S
O389 C388 1.254 . S
C390 O411 1.256 . S
C390 O412 1.244 . S
O391 Zn387 2.055 . S
O391 C413 1.259 . S
O392 Zn384 2.046 . S
O392 C413 1.254 . S
N393 Zn387 2.036 . S
N393 C394 1.298 . S
N393 N396 1.398 . S
C394 N393 1.298 . S
C394 N397 1.367 . S
C394 C407 1.481 . S
C395 N396 1.299 . S
C395 N397 1.379 . S
N396 N393 1.398 . S
N396 C395 1.299 . S
N397 C394 1.367 . S
N397 C395 1.379 . S
C398 N400 1.298 . S
C398 N402 1.367 . S
C398 C406 1.481 . S
C399 N401 1.299 . S
C399 N402 1.379 . S
N400 Zn384 2.036 . S
N400 C398 1.298 . S
N400 N401 1.398 . S
N401 C399 1.299 . S
N401 N400 1.398 . S
N402 C398 1.367 . S
N402 C399 1.379 . S
H403 C406 0.980 . S
H404 C406 0.981 . S
H405 C406 0.981 . S
C406 C398 1.481 . S
C406 H403 0.980 . S
C406 H404 0.981 . S
C406 H405 0.981 . S
C407 C394 1.481 . S
C407 H408 0.980 . S
C407 H409 0.981 . S
C407 H410 0.981 . S
H408 C407 0.980 . S
H409 C407 0.981 . S
H410 C407 0.981 . S
O411 Zn387 2.066 . S
O411 C390 1.256 . S
O412 Zn384 2.053 . S
O412 C390 1.244 . S
C413 O391 1.259 . S
C413 O392 1.254 . S
O414 Zn384 2.066 . S
O414 C386 1.256 . S
O415 C386 1.244 . S
O415 Zn387 2.053 . S
Zn416 O417 2.055 . S
Zn416 O424 2.046 . S
Zn416 N432 2.036 . S
Zn416 O444 2.053 . S
Zn416 O446 2.066 . S
O417 Zn416 2.055 . S
O417 C420 1.259 . S
C418 O446 1.256 . S
C418 O447 1.244 . S
Zn419 O421 2.046 . S
Zn419 O423 2.055 . S
Zn419 N425 2.036 . S
Zn419 O443 2.066 . S
Zn419 O447 2.053 . S
C420 O417 1.259 . S
C420 O421 1.254 . S
O421 Zn419 2.046 . S
O421 C420 1.254 . S
C422 O443 1.256 . S
C422 O444 1.244 . S
O423 Zn419 2.055 . S
O423 C445 1.259 . S
O424 Zn416 2.046 . S
O424 C445 1.254 . S
N425 Zn419 2.036 . S
N425 C426 1.298 . S
N425 N428 1.398 . S
C426 N425 1.298 . S
C426 N429 1.367 . S
C426 C439 1.481 . S
C427 N428 1.299 . S
C427 N429 1.379 . S
N428 N425 1.398 . S
N428 C427 1.299 . S
N429 C426 1.367 . S
N429 C427 1.379 . S
C430 N432 1.298 . S
C430 N434 1.367 . S
C430 C438 1.481 . S
C431 N433 1.299 . S
C431 N434 1.379 . S
N432 Zn416 2.036 . S
N432 C430 1.298 . S
N432 N433 1.398 . S
N433 C431 1.299 . S
N433 N432 1.398 . S
N434 C430 1.367 . S
N434 C431 1.379 . S
H435 C438 0.980 . S
H436 C438 0.981 . S
H437 C438 0.981 . S
C438 C430 1.481 . S
C438 H435 0.980 . S
C438 H436 0.981 . S
C438 H437 0.981 . S
C439 C426 1.481 . S
C439 H440 0.980 . S
C439 H441 0.981 . S
C439 H442 0.981 . S
H440 C439 0.980 . S
H441 C439 0.981 . S
H442 C439 0.981 . S
O443 Zn419 2.066 . S
O443 C422 1.256 . S
O444 Zn416 2.053 . S
O444 C422 1.244 . S
C445 O423 1.259 . S
C445 O424 1.254 . S
O446 Zn416 2.066 . S
O446 C418 1.256 . S
O447 C418 1.244 . S
O447 Zn419 2.053 . S
Zn448 O449 2.055 . S
Zn448 O456 2.046 . S
Zn448 N464 2.036 . S
Zn448 O476 2.053 . S
Zn448 O478 2.066 . S
O449 Zn448 2.055 . S
O449 C452 1.259 . S
C450 O478 1.256 . S
C450 O479 1.244 . S
Zn451 O453 2.046 . S
Zn451 O455 2.055 . S
Zn451 N457 2.036 . S
Zn451 O475 2.066 . S
Zn451 O479 2.053 . S
C452 O449 1.259 . S
C452 O453 1.254 . S
O453 Zn451 2.046 . S
O453 C452 1.254 . S
C454 O475 1.256 . S
C454 O476 1.244 . S
O455 Zn451 2.055 . S
O455 C477 1.259 . S
O456 Zn448 2.046 . S
O456 C477 1.254 . S
N457 Zn451 2.036 . S
N457 C458 1.298 . S
N457 N460 1.398 . S
C458 N457 1.298 . S
C458 N461 1.367 . S
C458 C471 1.481 . S
C459 N460 1.299 . S
C459 N461 1.379 . S
N460 N457 1.398 . S
N460 C459 1.299 . S
N461 C458 1.367 . S
N461 C459 1.379 . S
C462 N464 1.298 . S
C462 N466 1.367 . S
C462 C470 1.481 . S
C463 N465 1.299 . S
C463 N466 1.379 . S
N464 Zn448 2.036 . S
N464 C462 1.298 . S
N464 N465 1.398 . S
N465 C463 1.299 . S
N465 N464 1.398 . S
N466 C462 1.367 . S
N466 C463 1.379 . S
H467 C470 0.980 . S
H468 C470 0.981 . S
H469 C470 0.981 . S
C470 C462 1.481 . S
C470 H467 0.980 . S
C470 H468 0.981 . S
C470 H469 0.981 . S
C471 C458 1.481 . S
C471 H472 0.980 . S
C471 H473 0.981 . S
C471 H474 0.981 . S
H472 C471 0.980 . S
H473 C471 0.981 . S
H474 C471 0.981 . S
O475 Zn451 2.066 . S
O475 C454 1.256 . S
O476 Zn448 2.053 . S
O476 C454 1.244 . S
C477 O455 1.259 . S
C477 O456 1.254 . S
O478 Zn448 2.066 . S
O478 C450 1.256 . S
O479 C450 1.244 . S
O479 Zn451 2.053 . S
Zn480 O481 2.055 . S
Zn480 O488 2.046 . S
Zn480 N496 2.036 . S
Zn480 O508 2.053 . S
Zn480 O510 2.066 . S
O481 Zn480 2.055 . S
O481 C484 1.259 . S
C482 O510 1.256 . S
C482 O511 1.244 . S
Zn483 O485 2.046 . S
Zn483 O487 2.055 . S
Zn483 N489 2.036 . S
Zn483 O507 2.066 . S
Zn483 O511 2.053 . S
C484 O481 1.259 . S
C484 O485 1.254 . S
O485 Zn483 2.046 . S
O485 C484 1.254 . S
C486 O507 1.256 . S
C486 O508 1.244 . S
O487 Zn483 2.055 . S
O487 C509 1.259 . S
O488 Zn480 2.046 . S
O488 C509 1.254 . S
N489 Zn483 2.036 . S
N489 C490 1.298 . S
N489 N492 1.398 . S
C490 N489 1.298 . S
C490 N493 1.367 . S
C490 C503 1.481 . S
C491 N492 1.299 . S
C491 N493 1.379 . S
N492 N489 1.398 . S
N492 C491 1.299 . S
N493 C490 1.367 . S
N493 C491 1.379 . S
C494 N496 1.298 . S
C494 N498 1.367 . S
C494 C502 1.481 . S
C495 N497 1.299 . S
C495 N498 1.379 . S
N496 Zn480 2.036 . S
N496 C494 1.298 . S
N496 N497 1.398 . S
N497 C495 1.299 . S
N497 N496 1.398 . S
N498 C494 1.367 . S
N498 C495 1.379 . S
H499 C502 0.980 . S
H500 C502 0.981 . S
H501 C502 0.981 . S
C502 C494 1.481 . S
C502 H499 0.980 . S
C502 H500 0.981 . S
C502 H501 0.981 . S
C503 C490 1.481 . S
C503 H504 0.980 . S
C503 H505 0.981 . S
C503 H506 0.981 . S
H504 C503 0.980 . S
H505 C503 0.981 . S
H506 C503 0.981 . S
O507 Zn483 2.066 . S
O507 C486 1.256 . S
O508 Zn480 2.053 . S
O508 C486 1.244 . S
C509 O487 1.259 . S
C509 O488 1.254 . S
O510 Zn480 2.066 . S
O510 C482 1.256 . S
O511 C482 1.244 . S
O511 Zn483 2.053 . S
C512 C513 1.391 . S
C512 C514 1.394 . S
C512 H528 0.931 . S
C513 C512 1.391 . S
C513 C517 1.376 . S
C514 C512 1.394 . S
C514 C515 1.369 . S
C514 C518 1.531 . S
C515 C514 1.369 . S
C515 C516 1.410 . S
C515 C523 1.503 . S
C516 C515 1.410 . S
C516 C517 1.392 . S
C516 C519 1.511 . S
C517 C513 1.376 . S
C517 C516 1.392 . S
C517 H529 0.929 . S
C518 C514 1.531 . S
C518 H530 0.960 . S
C518 H531 0.962 . S
C518 H532 0.960 . S
C519 C516 1.511 . S
C519 H533 0.961 . S
C519 H534 0.961 . S
C519 H535 0.961 . S
C520 C521 1.370 1_565 S
C520 C522 1.363 . S
C520 H536 0.931 1_565 S
C521 C520 1.370 1_545 S
C521 C525 1.408 1_545 S
C522 C520 1.363 . S
C522 C523 1.370 . S
C522 C526 1.524 . S
C523 C515 1.503 . S
C523 C522 1.370 . S
C523 C524 1.403 . S
C524 C523 1.403 . S
C524 C525 1.404 . S
C524 C527 1.539 . S
C525 C521 1.408 1_565 S
C525 C524 1.404 . S
C525 H537 0.927 1_565 S
C526 C522 1.524 . S
C526 H538 0.956 . S
C526 H539 0.961 . S
C526 H540 0.961 . S
C527 C524 1.539 . S
C527 H541 0.958 . S
C527 H542 0.961 . S
C527 H543 0.960 . S
H528 C512 0.931 . S
H529 C517 0.929 . S
H530 C518 0.960 . S
H531 C518 0.962 . S
H532 C518 0.960 . S
H533 C519 0.961 . S
H534 C519 0.961 . S
H535 C519 0.961 . S
H536 C520 0.931 1_545 S
H537 C525 0.927 1_545 S
H538 C526 0.956 . S
H539 C526 0.961 . S
H540 C526 0.961 . S
H541 C527 0.958 . S
H542 C527 0.961 . S
H543 C527 0.960 . S
C544 C545 1.391 . S
C544 C546 1.394 . S
C544 H560 0.931 . S
C545 C544 1.391 . S
C545 C549 1.376 . S
C546 C544 1.394 . S
C546 C547 1.369 . S
C546 C550 1.531 . S
C547 C546 1.369 . S
C547 C548 1.410 . S
C547 C555 1.503 . S
C548 C547 1.410 . S
C548 C549 1.392 . S
C548 C551 1.511 . S
C549 C545 1.376 . S
C549 C548 1.392 . S
C549 H561 0.929 . S
C550 C546 1.531 . S
C550 H562 0.960 . S
C550 H563 0.962 . S
C550 H564 0.960 . S
C551 C548 1.511 . S
C551 H565 0.961 . S
C551 H566 0.961 . S
C551 H567 0.961 . S
C552 C553 1.370 1_655 S
C552 C554 1.363 . S
C552 H568 0.931 . S
C553 C552 1.370 1_455 S
C553 C557 1.423 . S
C554 C552 1.363 . S
C554 C555 1.370 . S
C554 C558 1.524 . S
C555 C547 1.503 . S
C555 C554 1.370 . S
C555 C556 1.403 . S
C556 C555 1.403 . S
C556 C557 1.352 1_655 S
C556 C559 1.539 . S
C557 C553 1.423 . S
C557 C556 1.352 1_455 S
C557 H569 0.968 . S
C558 C554 1.524 . S
C558 H570 0.956 . S
C558 H571 0.961 . S
C558 H572 0.961 . S
C559 C556 1.539 . S
C559 H573 0.958 . S
C559 H574 0.961 . S
C559 H575 0.960 . S
H560 C544 0.931 . S
H561 C549 0.929 . S
H562 C550 0.960 . S
H563 C550 0.962 . S
H564 C550 0.960 . S
H565 C551 0.961 . S
H566 C551 0.961 . S
H567 C551 0.961 . S
H568 C552 0.931 . S
H569 C557 0.968 . S
H570 C558 0.956 . S
H571 C558 0.961 . S
H572 C558 0.961 . S
H573 C559 0.958 . S
H574 C559 0.961 . S
H575 C559 0.960 . S
C576 C577 1.391 . S
C576 C578 1.394 1_565 S
C576 H592 0.931 . S
C577 C576 1.391 . S
C577 C581 1.376 1_565 S
C578 C576 1.394 1_545 S
C578 C579 1.369 . S
C578 C582 1.531 . S
C579 C578 1.369 . S
C579 C580 1.410 . S
C579 C587 1.503 . S
C580 C579 1.410 . S
C580 C581 1.392 . S
C580 C583 1.511 . S
C581 C577 1.376 1_545 S
C581 C580 1.392 . S
C581 H593 0.929 . S
C582 C578 1.531 . S
C582 H594 0.960 . S
C582 H595 0.962 . S
C582 H596 0.960 . S
C583 C580 1.511 . S
C583 H597 0.961 . S
C583 H598 0.961 . S
C583 H599 0.961 . S
C584 C585 1.370 . S
C584 C586 1.363 . S
C584 H600 0.931 . S
C585 C584 1.370 . S
C585 C589 1.408 . S
C586 C584 1.363 . S
C586 C587 1.370 . S
C586 C590 1.524 . S
C587 C579 1.503 . S
C587 C586 1.370 . S
C587 C588 1.403 . S
C588 C587 1.403 . S
C588 C589 1.404 . S
C588 C591 1.539 . S
C589 C585 1.408 . S
C589 C588 1.404 . S
C589 H601 0.930 . S
C590 C586 1.524 . S
C590 H602 0.956 . S
C590 H603 0.961 . S
C590 H604 0.961 . S
C591 C588 1.539 . S
C591 H605 0.958 . S
C591 H606 0.961 . S
C591 H607 0.960 . S
H592 C576 0.931 . S
H593 C581 0.929 . S
H594 C582 0.960 . S
H595 C582 0.962 . S
H596 C582 0.960 . S
H597 C583 0.961 . S
H598 C583 0.961 . S
H599 C583 0.961 . S
H600 C584 0.931 . S
H601 C589 0.930 . S
H602 C590 0.956 . S
H603 C590 0.961 . S
H604 C590 0.961 . S
H605 C591 0.958 . S
H606 C591 0.961 . S
H607 C591 0.960 . S
C608 C609 1.391 1_455 S
C608 C610 1.394 . S
C608 H624 0.931 . S
C609 C608 1.391 1_655 S
C609 C613 1.376 . S
C610 C608 1.394 . S
C610 C611 1.369 . S
C610 C614 1.531 . S
C611 C610 1.369 . S
C611 C612 1.410 . S
C611 C619 1.503 . S
C612 C611 1.410 . S
C612 C613 1.392 1_455 S
C612 C615 1.511 . S
C613 C609 1.376 . S
C613 C612 1.392 1_655 S
C613 H625 0.929 . S
C614 C610 1.531 . S
C614 H626 0.960 . S
C614 H627 0.962 . S
C614 H628 0.960 . S
C615 C612 1.511 . S
C615 H629 0.961 . S
C615 H630 0.961 . S
C615 H631 0.961 . S
C616 C617 1.370 . S
C616 C618 1.363 . S
C616 H632 0.931 . S
C617 C616 1.370 . S
C617 C621 1.408 . S
C618 C616 1.363 . S
C618 C619 1.370 . S
C618 C622 1.524 . S
C619 C611 1.503 . S
C619 C618 1.370 . S
C619 C620 1.403 . S
C620 C619 1.403 . S
C620 C621 1.404 . S
C620 C623 1.539 . S
C621 C617 1.408 . S
C621 C620 1.404 . S
C621 H633 0.930 . S
C622 C618 1.524 . S
C622 H634 0.956 . S
C622 H635 0.961 . S
C622 H636 0.961 . S
C623 C620 1.539 . S
C623 H637 0.958 . S
C623 H638 0.961 . S
C623 H639 0.960 . S
H624 C608 0.931 . S
H625 C613 0.929 . S
H626 C614 0.960 . S
H627 C614 0.962 . S
H628 C614 0.960 . S
H629 C615 0.961 . S
H630 C615 0.961 . S
H631 C615 0.961 . S
H632 C616 0.931 . S
H633 C621 0.930 . S
H634 C622 0.956 . S
H635 C622 0.961 . S
H636 C622 0.961 . S
H637 C623 0.958 . S
H638 C623 0.961 . S
H639 C623 0.960 . S
C640 C641 1.391 . S
C640 C642 1.394 . S
C640 H656 0.931 . S
C641 C640 1.391 . S
C641 C645 1.376 1_554 S
C642 C640 1.394 . S
C642 C643 1.369 1_554 S
C642 C646 1.531 . S
C643 C642 1.369 1_556 S
C643 C644 1.410 . S
C643 C651 1.503 . S
C644 C643 1.410 . S
C644 C645 1.392 . S
C644 C647 1.511 . S
C645 C641 1.376 1_556 S
C645 C644 1.392 . S
C645 H657 0.929 . S
C646 C642 1.531 . S
C646 H658 0.960 1_554 S
C646 H659 0.962 . S
C646 H660 0.960 . S
C647 C644 1.511 . S
C647 H661 0.961 . S
C647 H662 0.961 . S
C647 H663 0.961 . S
C648 C649 1.370 1_554 S
C648 C650 1.363 . S
C648 H664 0.931 . S
C649 C648 1.370 1_556 S
C649 C653 1.408 . S
C650 C648 1.363 . S
C650 C651 1.370 1_554 S
C650 C654 1.524 . S
C651 C643 1.503 . S
C651 C650 1.370 1_556 S
C651 C652 1.403 . S
C652 C651 1.403 . S
C652 C653 1.404 . S
C652 C655 1.539 . S
C653 C649 1.408 . S
C653 C652 1.404 . S
C653 H665 0.930 . S
C654 C650 1.524 . S
C654 H666 0.956 . S
C654 H667 0.961 . S
C654 H668 0.961 . S
C655 C652 1.539 . S
C655 H669 0.958 . S
C655 H670 0.961 . S
C655 H671 0.960 . S
H656 C640 0.931 . S
H657 C645 0.929 . S
H658 C646 0.960 1_556 S
H659 C646 0.962 . S
H660 C646 0.960 . S
H661 C647 0.961 . S
H662 C647 0.961 . S
H663 C647 0.961 . S
H664 C648 0.931 . S
H665 C653 0.930 . S
H666 C654 0.956 . S
H667 C654 0.961 . S
H668 C654 0.961 . S
H669 C655 0.958 . S
H670 C655 0.961 . S
H671 C655 0.960 . S
C672 C673 1.391 . S
C672 C674 1.394 . S
C672 H688 0.931 . S
C673 C672 1.391 . S
C673 C677 1.376 1_554 S
C674 C672 1.394 . S
C674 C675 1.369 . S
C674 C678 1.531 . S
C675 C674 1.369 . S
C675 C676 1.410 1_554 S
C675 C683 1.503 . S
C676 C675 1.410 1_556 S
C676 C677 1.392 . S
C676 C679 1.511 . S
C677 C673 1.376 1_556 S
C677 C676 1.392 . S
C677 H689 0.929 . S
C678 C674 1.531 . S
C678 H690 0.960 . S
C678 H691 0.962 . S
C678 H692 0.960 . S
C679 C676 1.511 . S
C679 H693 0.961 . S
C679 H694 0.961 . S
C679 H695 0.961 . S
C680 C681 1.370 . S
C680 C682 1.363 . S
C680 H696 0.931 . S
C681 C680 1.370 . S
C681 C685 1.408 1_556 S
C682 C680 1.363 . S
C682 C683 1.370 1_556 S
C682 C686 1.524 . S
C683 C675 1.503 . S
C683 C682 1.370 1_554 S
C683 C684 1.403 . S
C684 C683 1.403 . S
C684 C685 1.404 . S
C684 C687 1.539 . S
C685 C681 1.408 1_554 S
C685 C684 1.404 . S
C685 H697 0.930 . S
C686 C682 1.524 . S
C686 H698 0.956 . S
C686 H699 0.961 . S
C686 H700 0.961 . S
C687 C684 1.539 . S
C687 H701 0.958 . S
C687 H702 0.961 . S
C687 H703 0.960 . S
H688 C672 0.931 . S
H689 C677 0.929 . S
H690 C678 0.960 . S
H691 C678 0.962 . S
H692 C678 0.960 . S
H693 C679 0.961 . S
H694 C679 0.961 . S
H695 C679 0.961 . S
H696 C680 0.931 . S
H697 C685 0.930 . S
H698 C686 0.956 . S
H699 C686 0.961 . S
H700 C686 0.961 . S
H701 C687 0.958 . S
H702 C687 0.961 . S
H703 C687 0.960 . S
C704 C705 1.391 . S
C704 C706 1.394 . S
C704 H720 0.931 . S
C705 C704 1.391 . S
C705 C709 1.376 . S
C706 C704 1.394 . S
C706 C707 1.369 . S
C706 C710 1.531 . S
C707 C706 1.369 . S
C707 C708 1.410 . S
C707 C715 1.503 1_554 S
C708 C707 1.410 . S
C708 C709 1.392 . S
C708 C711 1.511 1_554 S
C709 C705 1.376 . S
C709 C708 1.392 . S
C709 H721 0.929 . S
C710 C706 1.531 . S
C710 H722 0.960 . S
C710 H723 0.962 . S
C710 H724 0.960 . S
C711 C708 1.511 1_556 S
C711 H725 0.961 . S
C711 H726 0.961 . S
C711 H727 0.961 1_556 S
C712 C713 1.370 . S
C712 C714 1.363 . S
C712 H728 0.931 . S
C713 C712 1.370 . S
C713 C717 1.408 1_556 S
C714 C712 1.363 . S
C714 C715 1.370 . S
C714 C718 1.524 . S
C715 C707 1.503 1_556 S
C715 C714 1.370 . S
C715 C716 1.403 1_556 S
C716 C715 1.403 1_554 S
C716 C717 1.404 . S
C716 C719 1.539 . S
C717 C713 1.408 1_554 S
C717 C716 1.404 . S
C717 H729 0.930 . S
C718 C714 1.524 . S
C718 H730 0.956 . S
C718 H731 0.961 . S
C718 H732 0.961 . S
C719 C716 1.539 . S
C719 H733 0.958 . S
C719 H734 0.961 . S
C719 H735 0.960 . S
H720 C704 0.931 . S
H721 C709 0.929 . S
H722 C710 0.960 . S
H723 C710 0.962 . S
H724 C710 0.960 . S
H725 C711 0.961 . S
H726 C711 0.961 . S
H727 C711 0.961 1_554 S
H728 C712 0.931 . S
H729 C717 0.930 . S
H730 C718 0.956 . S
H731 C718 0.961 . S
H732 C718 0.961 . S
H733 C719 0.958 . S
H734 C719 0.961 . S
H735 C719 0.960 . S
C736 C737 1.391 . S
C736 C738 1.394 . S
C736 H752 0.931 . S
C737 C736 1.391 . S
C737 C741 1.376 1_554 S
C738 C736 1.394 . S
C738 C739 1.369 . S
C738 C742 1.531 . S
C739 C738 1.369 . S
C739 C740 1.410 1_554 S
C739 C747 1.503 1_554 S
C740 C739 1.410 1_556 S
C740 C741 1.392 . S
C740 C743 1.511 . S
C741 C737 1.376 1_556 S
C741 C740 1.392 . S
C741 H753 0.929 . S
C742 C738 1.531 . S
C742 H754 0.960 . S
C742 H755 0.962 . S
C742 H756 0.960 . S
C743 C740 1.511 . S
C743 H757 0.961 . S
C743 H758 0.961 . S
C743 H759 0.961 . S
C744 C745 1.370 1_554 S
C744 C746 1.363 . S
C744 H760 0.931 . S
C745 C744 1.370 1_556 S
C745 C749 1.408 . S
C746 C744 1.363 . S
C746 C747 1.370 1_554 S
C746 C750 1.524 . S
C747 C739 1.503 1_556 S
C747 C746 1.370 1_556 S
C747 C748 1.403 . S
C748 C747 1.403 . S
C748 C749 1.404 . S
C748 C751 1.539 . S
C749 C745 1.408 . S
C749 C748 1.404 . S
C749 H761 0.930 . S
C750 C746 1.524 . S
C750 H762 0.956 . S
C750 H763 0.961 . S
C750 H764 0.961 . S
C751 C748 1.539 . S
C751 H765 0.958 . S
C751 H766 0.961 . S
C751 H767 0.960 . S
H752 C736 0.931 . S
H753 C741 0.929 . S
H754 C742 0.960 . S
H755 C742 0.962 . S
H756 C742 0.960 . S
H757 C743 0.961 . S
H758 C743 0.961 . S
H759 C743 0.961 . S
H760 C744 0.931 . S
H761 C749 0.930 . S
H762 C750 0.956 . S
H763 C750 0.961 . S
H764 C750 0.961 . S
H765 C751 0.958 . S
H766 C751 0.961 . S
H767 C751 0.960 . S
C768 C769 1.391 . S
C768 C770 1.394 . S
C768 H784 0.931 . S
C769 C768 1.391 . S
C769 C773 1.376 . S
C770 C768 1.394 . S
C770 C771 1.369 . S
C770 C774 1.531 . S
C771 C770 1.369 . S
C771 C772 1.410 . S
C771 C779 1.503 . S
C772 C771 1.410 . S
C772 C773 1.392 . S
C772 C775 1.511 . S
C773 C769 1.376 . S
C773 C772 1.392 . S
C773 H785 0.929 . S
C774 C770 1.531 . S
C774 H786 0.960 . S
C774 H787 0.962 . S
C774 H788 0.960 1_556 S
C775 C772 1.511 . S
C775 H789 0.961 . S
C775 H790 0.961 . S
C775 H791 0.961 . S
C776 C777 1.370 . S
C776 C778 1.363 . S
C776 H792 0.931 . S
C777 C776 1.370 . S
C777 C781 1.408 . S
C778 C776 1.363 . S
C778 C779 1.370 . S
C778 C782 1.524 . S
C779 C771 1.503 . S
C779 C778 1.370 . S
C779 C780 1.403 . S
C780 C779 1.403 . S
C780 C781 1.404 . S
C780 C783 1.539 . S
C781 C777 1.408 . S
C781 C780 1.404 . S
C781 H793 0.930 . S
C782 C778 1.524 . S
C782 H794 0.956 . S
C782 H795 0.961 . S
C782 H796 0.961 . S
C783 C780 1.539 . S
C783 H797 0.958 . S
C783 H798 0.961 . S
C783 H799 0.960 . S
H784 C768 0.931 . S
H785 C773 0.929 . S
H786 C774 0.960 . S
H787 C774 0.962 . S
H788 C774 0.960 1_554 S
H789 C775 0.961 . S
H790 C775 0.961 . S
H791 C775 0.961 . S
H792 C776 0.931 . S
H793 C781 0.930 . S
H794 C782 0.956 . S
H795 C782 0.961 . S
H796 C782 0.961 . S
H797 C783 0.958 . S
H798 C783 0.961 . S
H799 C783 0.960 . S
C800 C801 1.391 . S
C800 C802 1.394 . S
C800 H816 0.931 . S
C801 C800 1.391 . S
C801 C805 1.376 . S
C802 C800 1.394 . S
C802 C803 1.369 . S
C802 C806 1.531 . S
C803 C802 1.369 . S
C803 C804 1.410 . S
C803 C811 1.503 . S
C804 C803 1.410 . S
C804 C805 1.392 . S
C804 C807 1.511 . S
C805 C801 1.376 . S
C805 C804 1.392 . S
C805 H817 0.929 . S
C806 C802 1.531 . S
C806 H818 0.960 . S
C806 H819 0.962 . S
C806 H820 0.960 . S
C807 C804 1.511 . S
C807 H821 0.961 . S
C807 H822 0.961 . S
C807 H823 0.961 . S
C808 C809 1.370 . S
C808 C810 1.363 . S
C808 H824 0.931 . S
C809 C808 1.370 . S
C809 C813 1.408 . S
C810 C808 1.363 . S
C810 C811 1.370 . S
C810 C814 1.524 . S
C811 C803 1.503 . S
C811 C810 1.370 . S
C811 C812 1.403 . S
C812 C811 1.403 . S
C812 C813 1.404 . S
C812 C815 1.539 . S
C813 C809 1.408 . S
C813 C812 1.404 . S
C813 H825 0.930 . S
C814 C810 1.524 . S
C814 H826 0.956 . S
C814 H827 0.961 . S
C814 H828 0.961 . S
C815 C812 1.539 . S
C815 H829 0.958 . S
C815 H830 0.961 . S
C815 H831 0.960 . S
H816 C800 0.931 . S
H817 C805 0.929 . S
H818 C806 0.960 . S
H819 C806 0.962 . S
H820 C806 0.960 . S
H821 C807 0.961 . S
H822 C807 0.961 . S
H823 C807 0.961 . S
H824 C808 0.931 . S
H825 C813 0.930 . S
H826 C814 0.956 . S
H827 C814 0.961 . S
H828 C814 0.961 . S
H829 C815 0.958 . S
H830 C815 0.961 . S
H831 C815 0.960 . S
C832 C833 1.391 . S
C832 C834 1.394 . S
C832 H848 0.931 . S
C833 C832 1.391 . S
C833 C837 1.376 . S
C834 C832 1.394 . S
C834 C835 1.369 . S
C834 C838 1.531 . S
C835 C834 1.369 . S
C835 C836 1.410 . S
C835 C843 1.503 . S
C836 C835 1.410 . S
C836 C837 1.392 . S
C836 C839 1.511 . S
C837 C833 1.376 . S
C837 C836 1.392 . S
C837 H849 0.929 . S
C838 C834 1.531 . S
C838 H850 0.960 . S
C838 H851 0.962 . S
C838 H852 0.960 . S
C839 C836 1.511 . S
C839 H853 0.961 . S
C839 H854 0.961 . S
C839 H855 0.961 . S
C840 C841 1.370 . S
C840 C842 1.363 . S
C840 H856 0.931 . S
C841 C840 1.370 . S
C841 C845 1.408 . S
C842 C840 1.363 . S
C842 C843 1.370 . S
C842 C846 1.524 . S
C843 C835 1.503 . S
C843 C842 1.370 . S
C843 C844 1.403 . S
C844 C843 1.403 . S
C844 C845 1.404 . S
C844 C847 1.539 . S
C845 C841 1.408 . S
C845 C844 1.404 . S
C845 H857 0.930 . S
C846 C842 1.524 . S
C846 H858 0.956 . S
C846 H859 0.961 . S
C846 H860 0.961 . S
C847 C844 1.539 . S
C847 H861 0.958 . S
C847 H862 0.961 . S
C847 H863 0.960 . S
H848 C832 0.931 . S
H849 C837 0.929 . S
H850 C838 0.960 . S
H851 C838 0.962 . S
H852 C838 0.960 . S
H853 C839 0.961 . S
H854 C839 0.961 . S
H855 C839 0.961 . S
H856 C840 0.931 . S
H857 C845 0.930 . S
H858 C846 0.956 . S
H859 C846 0.961 . S
H860 C846 0.961 . S
H861 C847 0.958 . S
H862 C847 0.961 . S
H863 C847 0.960 . S
C864 C865 1.391 . S
C864 C866 1.394 . S
C864 H880 0.931 . S
C865 C864 1.391 . S
C865 C869 1.376 . S
C866 C864 1.394 . S
C866 C867 1.369 . S
C866 C870 1.531 . S
C867 C866 1.369 . S
C867 C868 1.410 . S
C867 C875 1.503 . S
C868 C867 1.410 . S
C868 C869 1.392 . S
C868 C871 1.511 . S
C869 C865 1.376 . S
C869 C868 1.392 . S
C869 H881 0.929 . S
C870 C866 1.531 . S
C870 H882 0.960 . S
C870 H883 0.962 . S
C870 H884 0.960 . S
C871 C868 1.511 . S
C871 H885 0.961 . S
C871 H886 0.961 . S
C871 H887 0.961 . S
C872 C873 1.370 . S
C872 C874 1.363 . S
C872 H888 0.931 . S
C873 C872 1.370 . S
C873 C877 1.408 . S
C874 C872 1.363 . S
C874 C875 1.370 . S
C874 C878 1.524 . S
C875 C867 1.503 . S
C875 C874 1.370 . S
C875 C876 1.403 . S
C876 C875 1.403 . S
C876 C877 1.404 . S
C876 C879 1.539 . S
C877 C873 1.408 . S
C877 C876 1.404 . S
C877 H889 0.930 . S
C878 C874 1.524 . S
C878 H890 0.956 . S
C878 H891 0.961 . S
C878 H892 0.961 . S
C879 C876 1.539 . S
C879 H893 0.958 . S
C879 H894 0.961 . S
C879 H895 0.960 . S
H880 C864 0.931 . S
H881 C869 0.929 . S
H882 C870 0.960 . S
H883 C870 0.962 . S
H884 C870 0.960 . S
H885 C871 0.961 . S
H886 C871 0.961 . S
H887 C871 0.961 . S
H888 C872 0.931 . S
H889 C877 0.930 . S
H890 C878 0.956 . S
H891 C878 0.961 . S
H892 C878 0.961 . S
H893 C879 0.958 . S
H894 C879 0.961 . S
H895 C879 0.960 . S
C896 C897 1.391 1_545 S
C896 C898 1.394 . S
C896 H912 0.931 . S
C897 C896 1.391 1_565 S
C897 C901 1.376 . S
C898 C896 1.394 . S
C898 C899 1.369 . S
C898 C902 1.531 . S
C899 C898 1.369 . S
C899 C900 1.410 . S
C899 C907 1.503 . S
C900 C899 1.410 . S
C900 C901 1.392 1_545 S
C900 C903 1.511 . S
C901 C897 1.376 . S
C901 C900 1.392 1_565 S
C901 H913 0.929 . S
C902 C898 1.531 . S
C902 H914 0.960 . S
C902 H915 0.962 . S
C902 H916 0.960 . S
C903 C900 1.511 . S
C903 H917 0.961 . S
C903 H918 0.961 . S
C903 H919 0.961 . S
C904 C905 1.370 . S
C904 C906 1.363 . S
C904 H920 0.931 . S
C905 C904 1.370 . S
C905 C909 1.408 . S
C906 C904 1.363 . S
C906 C907 1.370 . S
C906 C910 1.524 . S
C907 C899 1.503 . S
C907 C906 1.370 . S
C907 C908 1.403 . S
C908 C907 1.403 . S
C908 C909 1.404 . S
C908 C911 1.539 . S
C909 C905 1.408 . S
C909 C908 1.404 . S
C909 H921 0.930 . S
C910 C906 1.524 . S
C910 H922 0.956 . S
C910 H923 0.961 . S
C910 H924 0.961 . S
C911 C908 1.539 . S
C911 H925 0.958 . S
C911 H926 0.961 . S
C911 H927 0.960 . S
H912 C896 0.931 . S
H913 C901 0.929 . S
H914 C902 0.960 . S
H915 C902 0.962 . S
H916 C902 0.960 . S
H917 C903 0.961 . S
H918 C903 0.961 . S
H919 C903 0.961 . S
H920 C904 0.931 . S
H921 C909 0.930 . S
H922 C910 0.956 . S
H923 C910 0.961 . S
H924 C910 0.961 . S
H925 C911 0.958 . S
H926 C911 0.961 . S
H927 C911 0.960 . S
C928 C929 1.391 . S
C928 C930 1.394 . S
C928 H944 0.931 . S
C929 C928 1.391 . S
C929 C933 1.376 . S
C930 C928 1.394 . S
C930 C931 1.369 . S
C930 C934 1.531 . S
C931 C930 1.369 . S
C931 C932 1.410 . S
C931 C939 1.503 . S
C932 C931 1.410 . S
C932 C933 1.392 . S
C932 C935 1.511 . S
C933 C929 1.376 . S
C933 C932 1.392 . S
C933 H945 0.929 . S
C934 C930 1.531 . S
C934 H946 0.960 . S
C934 H947 0.962 . S
C934 H948 0.960 . S
C935 C932 1.511 . S
C935 H949 0.961 . S
C935 H950 0.961 . S
C935 H951 0.961 . S
C936 C937 1.370 1_455 S
C936 C938 1.363 . S
C936 H952 0.931 1_455 S
C937 C936 1.370 1_655 S
C937 C941 1.408 1_655 S
C938 C936 1.363 . S
C938 C939 1.370 . S
C938 C942 1.524 . S
C939 C931 1.503 . S
C939 C938 1.370 . S
C939 C940 1.403 . S
C940 C939 1.403 . S
C940 C941 1.404 . S
C940 C943 1.539 . S
C941 C937 1.408 1_455 S
C941 C940 1.404 . S
C941 H953 0.934 . S
C942 C938 1.524 . S
C942 H954 0.956 . S
C942 H955 0.961 . S
C942 H956 0.961 . S
C943 C940 1.539 . S
C943 H957 0.958 . S
C943 H958 0.961 . S
C943 H959 0.960 . S
H944 C928 0.931 . S
H945 C933 0.929 . S
H946 C934 0.960 . S
H947 C934 0.962 . S
H948 C934 0.960 . S
H949 C935 0.961 . S
H950 C935 0.961 . S
H951 C935 0.961 . S
H952 C936 0.931 1_655 S
H953 C941 0.934 . S
H954 C942 0.956 . S
H955 C942 0.961 . S
H956 C942 0.961 . S
H957 C943 0.958 . S
H958 C943 0.961 . S
H959 C943 0.960 . S
C960 C961 1.391 . S
C960 C962 1.394 . S
C960 H976 0.931 . S
C961 C960 1.391 . S
C961 C965 1.376 . S
C962 C960 1.394 . S
C962 C963 1.369 . S
C962 C966 1.531 . S
C963 C962 1.369 . S
C963 C964 1.410 . S
C963 C971 1.503 . S
C964 C963 1.410 . S
C964 C965 1.392 . S
C964 C967 1.511 . S
C965 C961 1.376 . S
C965 C964 1.392 . S
C965 H977 0.929 . S
C966 C962 1.531 . S
C966 H978 0.960 . S
C966 H979 0.962 . S
C966 H980 0.960 . S
C967 C964 1.511 . S
C967 H981 0.961 . S
C967 H982 0.961 . S
C967 H983 0.961 . S
C968 C969 1.370 1_565 S
C968 C970 1.363 . S
C968 H984 0.931 . S
C969 C968 1.370 1_545 S
C969 C973 1.408 . S
C970 C968 1.363 . S
C970 C971 1.370 . S
C970 C974 1.524 . S
C971 C963 1.503 . S
C971 C970 1.370 . S
C971 C972 1.403 . S
C972 C971 1.403 . S
C972 C973 1.404 1_565 S
C972 C975 1.539 . S
C973 C969 1.408 . S
C973 C972 1.404 1_545 S
C973 H985 0.930 . S
C974 C970 1.524 . S
C974 H986 0.956 . S
C974 H987 0.961 . S
C974 H988 0.961 . S
C975 C972 1.539 . S
C975 H989 0.958 . S
C975 H990 0.961 . S
C975 H991 0.960 . S
H976 C960 0.931 . S
H977 C965 0.929 . S
H978 C966 0.960 . S
H979 C966 0.962 . S
H980 C966 0.960 . S
H981 C967 0.961 . S
H982 C967 0.961 . S
H983 C967 0.961 . S
H984 C968 0.931 . S
H985 C973 0.930 . S
H986 C974 0.956 . S
H987 C974 0.961 . S
H988 C974 0.961 . S
H989 C975 0.958 . S
H990 C975 0.961 . S
H991 C975 0.960 . S
C992 C993 1.391 . S
C992 C994 1.394 1_455 S
C992 H1008 0.931 . S
C993 C992 1.391 . S
C993 C997 1.376 1_455 S
C994 C992 1.394 1_655 S
C994 C995 1.369 . S
C994 C998 1.531 . S
C995 C994 1.369 . S
C995 C996 1.410 . S
C995 C1003 1.503 . S
C996 C995 1.410 . S
C996 C997 1.392 . S
C996 C999 1.511 . S
C997 C993 1.376 1_655 S
C997 C996 1.392 . S
C997 H1009 0.929 . S
C998 C994 1.531 . S
C998 H1010 0.960 . S
C998 H1011 0.962 . S
C998 H1012 0.960 . S
C999 C996 1.511 . S
C999 H1013 0.961 . S
C999 H1014 0.961 . S
C999 H1015 0.961 . S
C1000 C1001 1.370 . S
C1000 C1002 1.363 . S
C1000 H1016 0.931 . S
C1001 C1000 1.370 . S
C1001 C1005 1.408 . S
C1002 C1000 1.363 . S
C1002 C1003 1.370 . S
C1002 C1006 1.524 . S
C1003 C995 1.503 . S
C1003 C1002 1.370 . S
C1003 C1004 1.403 . S
C1004 C1003 1.403 . S
C1004 C1005 1.404 . S
C1004 C1007 1.539 . S
C1005 C1001 1.408 . S
C1005 C1004 1.404 . S
C1005 H1017 0.930 . S
C1006 C1002 1.524 . S
C1006 H1018 0.956 . S
C1006 H1019 0.961 . S
C1006 H1020 0.961 . S
C1007 C1004 1.539 . S
C1007 H1021 0.958 . S
C1007 H1022 0.961 . S
C1007 H1023 0.960 . S
H1008 C992 0.931 . S
H1009 C997 0.929 . S
H1010 C998 0.960 . S
H1011 C998 0.962 . S
H1012 C998 0.960 . S
H1013 C999 0.961 . S
H1014 C999 0.961 . S
H1015 C999 0.961 . S
H1016 C1000 0.931 . S
H1017 C1005 0.930 . S
H1018 C1006 0.956 . S
H1019 C1006 0.961 . S
H1020 C1006 0.961 . S
H1021 C1007 0.958 . S
H1022 C1007 0.961 . S
H1023 C1007 0.960 . S
C1024 C1025 1.391 . S
C1024 C1026 1.394 . S
C1024 H1040 0.931 . S
C1025 C1024 1.391 . S
C1025 C1029 1.376 . S
C1026 C1024 1.394 . S
C1026 C1027 1.369 . S
C1026 C1030 1.531 . S
C1027 C1026 1.369 . S
C1027 C1028 1.410 . S
C1027 C1035 1.503 . S
C1028 C1027 1.410 . S
C1028 C1029 1.392 . S
C1028 C1031 1.511 . S
C1029 C1025 1.376 . S
C1029 C1028 1.392 . S
C1029 H1041 0.929 . S
C1030 C1026 1.531 . S
C1030 H1042 0.960 . S
C1030 H1043 0.962 1_554 S
C1030 H1044 0.960 . S
C1031 C1028 1.511 . S
C1031 H1045 0.961 . S
C1031 H1046 0.961 . S
C1031 H1047 0.961 . S
C1032 C1033 1.370 . S
C1032 C1034 1.363 . S
C1032 H1048 0.931 . S
C1033 C1032 1.370 . S
C1033 C1037 1.408 . S
C1034 C1032 1.363 . S
C1034 C1035 1.370 . S
C1034 C1038 1.524 1_554 S
C1035 C1027 1.503 . S
C1035 C1034 1.370 . S
C1035 C1036 1.403 . S
C1036 C1035 1.403 . S
C1036 C1037 1.404 . S
C1036 C1039 1.539 . S
C1037 C1033 1.408 . S
C1037 C1036 1.404 . S
C1037 H1049 0.930 . S
C1038 C1034 1.524 1_556 S
C1038 H1050 0.956 . S
C1038 H1051 0.961 1_556 S
C1038 H1052 0.961 . S
C1039 C1036 1.539 . S
C1039 H1053 0.958 . S
C1039 H1054 0.961 . S
C1039 H1055 0.960 . S
H1040 C1024 0.931 . S
H1041 C1029 0.929 . S
H1042 C1030 0.960 . S
H1043 C1030 0.962 1_556 S
H1044 C1030 0.960 . S
H1045 C1031 0.961 . S
H1046 C1031 0.961 . S
H1047 C1031 0.961 . S
H1048 C1032 0.931 . S
H1049 C1037 0.930 . S
H1050 C1038 0.956 . S
H1051 C1038 0.961 1_554 S
H1052 C1038 0.961 . S
H1053 C1039 0.958 . S
H1054 C1039 0.961 . S
H1055 C1039 0.960 . S
C1056 C1057 1.391 . S
C1056 C1058 1.394 . S
C1056 H1072 0.931 . S
C1057 C1056 1.391 . S
C1057 C1061 1.376 . S
C1058 C1056 1.394 . S
C1058 C1059 1.369 . S
C1058 C1062 1.531 . S
C1059 C1058 1.369 . S
C1059 C1060 1.410 . S
C1059 C1067 1.503 . S
C1060 C1059 1.410 . S
C1060 C1061 1.392 . S
C1060 C1063 1.511 . S
C1061 C1057 1.376 . S
C1061 C1060 1.392 . S
C1061 H1073 0.929 . S
C1062 C1058 1.531 . S
C1062 H1074 0.960 . S
C1062 H1075 0.962 . S
C1062 H1076 0.960 . S
C1063 C1060 1.511 . S
C1063 H1077 0.961 . S
C1063 H1078 0.961 . S
C1063 H1079 0.961 . S
C1064 C1065 1.370 . S
C1064 C1066 1.363 . S
C1064 H1080 0.931 1_556 S
C1065 C1064 1.370 . S
C1065 C1069 1.408 . S
C1066 C1064 1.363 . S
C1066 C1067 1.370 . S
C1066 C1070 1.524 1_556 S
C1067 C1059 1.503 . S
C1067 C1066 1.370 . S
C1067 C1068 1.403 . S
C1068 C1067 1.403 . S
C1068 C1069 1.404 . S
C1068 C1071 1.539 . S
C1069 C1065 1.408 . S
C1069 C1068 1.404 . S
C1069 H1081 0.930 . S
C1070 C1066 1.524 1_554 S
C1070 H1082 0.956 . S
C1070 H1083 0.961 . S
C1070 H1084 0.961 . S
C1071 C1068 1.539 . S
C1071 H1085 0.958 . S
C1071 H1086 0.961 . S
C1071 H1087 0.960 . S
H1072 C1056 0.931 . S
H1073 C1061 0.929 . S
H1074 C1062 0.960 . S
H1075 C1062 0.962 . S
H1076 C1062 0.960 . S
H1077 C1063 0.961 . S
H1078 C1063 0.961 . S
H1079 C1063 0.961 . S
H1080 C1064 0.931 1_554 S
H1081 C1069 0.930 . S
H1082 C1070 0.956 . S
H1083 C1070 0.961 . S
H1084 C1070 0.961 . S
H1085 C1071 0.958 . S
H1086 C1071 0.961 . S
H1087 C1071 0.960 . S
C1088 C1089 1.391 . S
C1088 C1090 1.394 . S
C1088 H1104 0.931 1_554 S
C1089 C1088 1.391 . S
C1089 C1093 1.376 . S
C1090 C1088 1.394 . S
C1090 C1091 1.369 . S
C1090 C1094 1.531 1_554 S
C1091 C1090 1.369 . S
C1091 C1092 1.410 . S
C1091 C1099 1.503 . S
C1092 C1091 1.410 . S
C1092 C1093 1.392 . S
C1092 C1095 1.511 . S
C1093 C1089 1.376 . S
C1093 C1092 1.392 . S
C1093 H1105 0.929 . S
C1094 C1090 1.531 1_556 S
C1094 H1106 0.960 . S
C1094 H1107 0.962 . S
C1094 H1108 0.960 . S
C1095 C1092 1.511 . S
C1095 H1109 0.961 . S
C1095 H1110 0.961 . S
C1095 H1111 0.961 . S
C1096 C1097 1.370 . S
C1096 C1098 1.363 . S
C1096 H1112 0.931 . S
C1097 C1096 1.370 . S
C1097 C1101 1.408 . S
C1098 C1096 1.363 . S
C1098 C1099 1.370 . S
C1098 C1102 1.524 . S
C1099 C1091 1.503 . S
C1099 C1098 1.370 . S
C1099 C1100 1.403 . S
C1100 C1099 1.403 . S
C1100 C1101 1.404 . S
C1100 C1103 1.539 . S
C1101 C1097 1.408 . S
C1101 C1100 1.404 . S
C1101 H1113 0.930 . S
C1102 C1098 1.524 . S
C1102 H1114 0.956 . S
C1102 H1115 0.961 . S
C1102 H1116 0.961 . S
C1103 C1100 1.539 . S
C1103 H1117 0.958 1_554 S
C1103 H1118 0.961 . S
C1103 H1119 0.960 . S
H1104 C1088 0.931 1_556 S
H1105 C1093 0.929 . S
H1106 C1094 0.960 . S
H1107 C1094 0.962 . S
H1108 C1094 0.960 . S
H1109 C1095 0.961 . S
H1110 C1095 0.961 . S
H1111 C1095 0.961 . S
H1112 C1096 0.931 . S
H1113 C1101 0.930 . S
H1114 C1102 0.956 . S
H1115 C1102 0.961 . S
H1116 C1102 0.961 . S
H1117 C1103 0.958 1_556 S
H1118 C1103 0.961 . S
H1119 C1103 0.960 . S
C1120 C1121 1.391 . S
C1120 C1122 1.394 . S
C1120 H1136 0.931 1_556 S
C1121 C1120 1.391 . S
C1121 C1125 1.376 . S
C1122 C1120 1.394 . S
C1122 C1123 1.369 . S
C1122 C1126 1.531 1_556 S
C1123 C1122 1.369 . S
C1123 C1124 1.410 . S
C1123 C1131 1.503 . S
C1124 C1123 1.410 . S
C1124 C1125 1.392 . S
C1124 C1127 1.511 . S
C1125 C1121 1.376 . S
C1125 C1124 1.392 . S
C1125 H1137 0.929 . S
C1126 C1122 1.531 1_554 S
C1126 H1138 0.960 . S
C1126 H1139 0.962 . S
C1126 H1140 0.960 . S
C1127 C1124 1.511 . S
C1127 H1141 0.961 . S
C1127 H1142 0.961 . S
C1127 H1143 0.961 . S
C1128 C1129 1.370 . S
C1128 C1130 1.363 . S
C1128 H1144 0.931 . S
C1129 C1128 1.370 . S
C1129 C1133 1.408 . S
C1130 C1128 1.363 . S
C1130 C1131 1.370 . S
C1130 C1134 1.524 . S
C1131 C1123 1.503 . S
C1131 C1130 1.370 . S
C1131 C1132 1.403 . S
C1132 C1131 1.403 . S
C1132 C1133 1.404 . S
C1132 C1135 1.539 . S
C1133 C1129 1.408 . S
C1133 C1132 1.404 . S
C1133 H1145 0.930 . S
C1134 C1130 1.524 . S
C1134 H1146 0.956 . S
C1134 H1147 0.961 . S
C1134 H1148 0.961 . S
C1135 C1132 1.539 . S
C1135 H1149 0.958 1_556 S
C1135 H1150 0.961 . S
C1135 H1151 0.960 . S
H1136 C1120 0.931 1_554 S
H1137 C1125 0.929 . S
H1138 C1126 0.960 . S
H1139 C1126 0.962 . S
H1140 C1126 0.960 . S
H1141 C1127 0.961 . S
H1142 C1127 0.961 . S
H1143 C1127 0.961 . S
H1144 C1128 0.931 . S
H1145 C1133 0.930 . S
H1146 C1134 0.956 . S
H1147 C1134 0.961 . S
H1148 C1134 0.961 . S
H1149 C1135 0.958 1_554 S
H1150 C1135 0.961 . S
H1151 C1135 0.960 . S
C1152 C1153 1.391 . S
C1152 C1154 1.394 . S
C1152 H1168 0.931 . S
C1153 C1152 1.391 . S
C1153 C1157 1.376 . S
C1154 C1152 1.394 . S
C1154 C1155 1.369 . S
C1154 C1158 1.531 . S
C1155 C1154 1.369 . S
C1155 C1156 1.410 . S
C1155 C1163 1.503 . S
C1156 C1155 1.410 . S
C1156 C1157 1.392 . S
C1156 C1159 1.511 . S
C1157 C1153 1.376 . S
C1157 C1156 1.392 . S
C1157 H1169 0.929 . S
C1158 C1154 1.531 . S
C1158 H1170 0.960 . S
C1158 H1171 0.962 . S
C1158 H1172 0.960 . S
C1159 C1156 1.511 . S
C1159 H1173 0.961 . S
C1159 H1174 0.961 . S
C1159 H1175 0.961 . S
C1160 C1161 1.370 . S
C1160 C1162 1.363 . S
C1160 H1176 0.931 . S
C1161 C1160 1.370 . S
C1161 C1165 1.408 . S
C1162 C1160 1.363 . S
C1162 C1163 1.370 . S
C1162 C1166 1.524 . S
C1163 C1155 1.503 . S
C1163 C1162 1.370 . S
C1163 C1164 1.403 . S
C1164 C1163 1.403 . S
C1164 C1165 1.404 . S
C1164 C1167 1.539 . S
C1165 C1161 1.408 . S
C1165 C1164 1.404 . S
C1165 H1177 0.930 . S
C1166 C1162 1.524 . S
C1166 H1178 0.956 . S
C1166 H1179 0.961 . S
C1166 H1180 0.961 . S
C1167 C1164 1.539 . S
C1167 H1181 0.958 . S
C1167 H1182 0.961 . S
C1167 H1183 0.960 . S
H1168 C1152 0.931 . S
H1169 C1157 0.929 . S
H1170 C1158 0.960 . S
H1171 C1158 0.962 . S
H1172 C1158 0.960 . S
H1173 C1159 0.961 . S
H1174 C1159 0.961 . S
H1175 C1159 0.961 . S
H1176 C1160 0.931 . S
H1177 C1165 0.930 . S
H1178 C1166 0.956 . S
H1179 C1166 0.961 . S
H1180 C1166 0.961 . S
H1181 C1167 0.958 . S
H1182 C1167 0.961 . S
H1183 C1167 0.960 . S
C1184 C1185 1.391 . S
C1184 C1186 1.394 . S
C1184 H1200 0.931 . S
C1185 C1184 1.391 . S
C1185 C1189 1.376 . S
C1186 C1184 1.394 . S
C1186 C1187 1.369 . S
C1186 C1190 1.531 . S
C1187 C1186 1.369 . S
C1187 C1188 1.410 . S
C1187 C1195 1.503 . S
C1188 C1187 1.410 . S
C1188 C1189 1.392 . S
C1188 C1191 1.511 . S
C1189 C1185 1.376 . S
C1189 C1188 1.392 . S
C1189 H1201 0.929 . S
C1190 C1186 1.531 . S
C1190 H1202 0.960 . S
C1190 H1203 0.962 . S
C1190 H1204 0.960 . S
C1191 C1188 1.511 . S
C1191 H1205 0.961 . S
C1191 H1206 0.961 . S
C1191 H1207 0.961 . S
C1192 C1193 1.370 . S
C1192 C1194 1.363 . S
C1192 H1208 0.931 . S
C1193 C1192 1.370 . S
C1193 C1197 1.408 . S
C1194 C1192 1.363 . S
C1194 C1195 1.370 . S
C1194 C1198 1.524 . S
C1195 C1187 1.503 . S
C1195 C1194 1.370 . S
C1195 C1196 1.403 . S
C1196 C1195 1.403 . S
C1196 C1197 1.404 . S
C1196 C1199 1.539 . S
C1197 C1193 1.408 . S
C1197 C1196 1.404 . S
C1197 H1209 0.930 . S
C1198 C1194 1.524 . S
C1198 H1210 0.956 . S
C1198 H1211 0.961 . S
C1198 H1212 0.961 . S
C1199 C1196 1.539 . S
C1199 H1213 0.958 . S
C1199 H1214 0.961 . S
C1199 H1215 0.960 . S
H1200 C1184 0.931 . S
H1201 C1189 0.929 . S
H1202 C1190 0.960 . S
H1203 C1190 0.962 . S
H1204 C1190 0.960 . S
H1205 C1191 0.961 . S
H1206 C1191 0.961 . S
H1207 C1191 0.961 . S
H1208 C1192 0.931 . S
H1209 C1197 0.930 . S
H1210 C1198 0.956 . S
H1211 C1198 0.961 . S
H1212 C1198 0.961 . S
H1213 C1199 0.958 . S
H1214 C1199 0.961 . S
H1215 C1199 0.960 . S
C1216 C1217 1.391 . S
C1216 C1218 1.394 . S
C1216 H1232 0.931 . S
C1217 C1216 1.391 . S
C1217 C1221 1.376 . S
C1218 C1216 1.394 . S
C1218 C1219 1.369 . S
C1218 C1222 1.531 . S
C1219 C1218 1.369 . S
C1219 C1220 1.410 . S
C1219 C1227 1.503 . S
C1220 C1219 1.410 . S
C1220 C1221 1.392 . S
C1220 C1223 1.511 . S
C1221 C1217 1.376 . S
C1221 C1220 1.392 . S
C1221 H1233 0.929 . S
C1222 C1218 1.531 . S
C1222 H1234 0.960 . S
C1222 H1235 0.962 . S
C1222 H1236 0.960 . S
C1223 C1220 1.511 . S
C1223 H1237 0.961 . S
C1223 H1238 0.961 . S
C1223 H1239 0.961 . S
C1224 C1225 1.370 . S
C1224 C1226 1.363 . S
C1224 H1240 0.931 . S
C1225 C1224 1.370 . S
C1225 C1229 1.408 . S
C1226 C1224 1.363 . S
C1226 C1227 1.370 . S
C1226 C1230 1.524 . S
C1227 C1219 1.503 . S
C1227 C1226 1.370 . S
C1227 C1228 1.403 . S
C1228 C1227 1.403 . S
C1228 C1229 1.404 . S
C1228 C1231 1.539 . S
C1229 C1225 1.408 . S
C1229 C1228 1.404 . S
C1229 H1241 0.930 . S
C1230 C1226 1.524 . S
C1230 H1242 0.956 . S
C1230 H1243 0.961 . S
C1230 H1244 0.961 . S
C1231 C1228 1.539 . S
C1231 H1245 0.958 . S
C1231 H1246 0.961 . S
C1231 H1247 0.960 . S
H1232 C1216 0.931 . S
H1233 C1221 0.929 . S
H1234 C1222 0.960 . S
H1235 C1222 0.962 . S
H1236 C1222 0.960 . S
H1237 C1223 0.961 . S
H1238 C1223 0.961 . S
H1239 C1223 0.961 . S
H1240 C1224 0.931 . S
H1241 C1229 0.930 . S
H1242 C1230 0.956 . S
H1243 C1230 0.961 . S
H1244 C1230 0.961 . S
H1245 C1231 0.958 . S
H1246 C1231 0.961 . S
H1247 C1231 0.960 . S
C1248 C1249 1.391 . S
C1248 C1250 1.394 . S
C1248 H1264 0.931 . S
C1249 C1248 1.391 . S
C1249 C1253 1.376 . S
C1250 C1248 1.394 . S
C1250 C1251 1.369 . S
C1250 C1254 1.531 . S
C1251 C1250 1.369 . S
C1251 C1252 1.410 . S
C1251 C1259 1.503 . S
C1252 C1251 1.410 . S
C1252 C1253 1.392 . S
C1252 C1255 1.511 . S
C1253 C1249 1.376 . S
C1253 C1252 1.392 . S
C1253 H1265 0.929 . S
C1254 C1250 1.531 . S
C1254 H1266 0.960 . S
C1254 H1267 0.962 . S
C1254 H1268 0.960 . S
C1255 C1252 1.511 . S
C1255 H1269 0.961 . S
C1255 H1270 0.961 . S
C1255 H1271 0.961 . S
C1256 C1257 1.370 . S
C1256 C1258 1.363 . S
C1256 H1272 0.931 . S
C1257 C1256 1.370 . S
C1257 C1261 1.408 . S
C1258 C1256 1.363 . S
C1258 C1259 1.370 . S
C1258 C1262 1.524 . S
C1259 C1251 1.503 . S
C1259 C1258 1.370 . S
C1259 C1260 1.403 . S
C1260 C1259 1.403 . S
C1260 C1261 1.404 . S
C1260 C1263 1.539 . S
C1261 C1257 1.408 . S
C1261 C1260 1.404 . S
C1261 H1273 0.930 . S
C1262 C1258 1.524 . S
C1262 H1274 0.956 . S
C1262 H1275 0.961 . S
C1262 H1276 0.961 . S
C1263 C1260 1.539 . S
C1263 H1277 0.958 . S
C1263 H1278 0.961 . S
C1263 H1279 0.960 . S
H1264 C1248 0.931 . S
H1265 C1253 0.929 . S
H1266 C1254 0.960 . S
H1267 C1254 0.962 . S
H1268 C1254 0.960 . S
H1269 C1255 0.961 . S
H1270 C1255 0.961 . S
H1271 C1255 0.961 . S
H1272 C1256 0.931 . S
H1273 C1261 0.930 . S
H1274 C1262 0.956 . S
H1275 C1262 0.961 . S
H1276 C1262 0.961 . S
H1277 C1263 0.958 . S
H1278 C1263 0.961 . S
H1279 C1263 0.960 . S
C1280 C1281 1.391 . S
C1280 C1282 1.394 . S
C1280 H1296 0.931 . S
C1281 C1280 1.391 . S
C1281 C1285 1.376 . S
C1282 C1280 1.394 . S
C1282 C1283 1.369 . S
C1282 C1286 1.531 . S
C1283 C1282 1.369 . S
C1283 C1284 1.410 . S
C1283 C1291 1.503 . S
C1284 C1283 1.410 . S
C1284 C1285 1.392 . S
C1284 C1287 1.511 . S
C1285 C1281 1.376 . S
C1285 C1284 1.392 . S
C1285 H1297 0.929 . S
C1286 C1282 1.531 . S
C1286 H1298 0.960 . S
C1286 H1299 0.962 . S
C1286 H1300 0.960 . S
C1287 C1284 1.511 . S
C1287 H1301 0.961 . S
C1287 H1302 0.961 . S
C1287 H1303 0.961 . S
C1288 C1289 1.370 1_556 S
C1288 C1290 1.363 . S
C1288 H1304 0.931 . S
C1289 C1288 1.370 1_554 S
C1289 C1293 1.408 . S
C1290 C1288 1.363 . S
C1290 C1291 1.370 . S
C1290 C1294 1.524 . S
C1291 C1283 1.503 . S
C1291 C1290 1.370 . S
C1291 C1292 1.403 1_556 S
C1292 C1291 1.403 1_554 S
C1292 C1293 1.404 . S
C1292 C1295 1.539 . S
C1293 C1289 1.408 . S
C1293 C1292 1.404 . S
C1293 H1305 0.930 . S
C1294 C1290 1.524 . S
C1294 H1306 0.956 . S
C1294 H1307 0.961 . S
C1294 H1308 0.961 . S
C1295 C1292 1.539 . S
C1295 H1309 0.958 . S
C1295 H1310 0.961 . S
C1295 H1311 0.960 . S
H1296 C1280 0.931 . S
H1297 C1285 0.929 . S
H1298 C1286 0.960 . S
H1299 C1286 0.962 . S
H1300 C1286 0.960 . S
H1301 C1287 0.961 . S
H1302 C1287 0.961 . S
H1303 C1287 0.961 . S
H1304 C1288 0.931 . S
H1305 C1293 0.930 . S
H1306 C1294 0.956 . S
H1307 C1294 0.961 . S
H1308 C1294 0.961 . S
H1309 C1295 0.958 . S
H1310 C1295 0.961 . S
H1311 C1295 0.960 . S
C1312 C1313 1.391 1_554 S
C1312 C1314 1.394 . S
C1312 H1328 0.931 . S
C1313 C1312 1.391 1_556 S
C1313 C1317 1.376 . S
C1314 C1312 1.394 . S
C1314 C1315 1.369 . S
C1314 C1318 1.531 . S
C1315 C1314 1.369 . S
C1315 C1316 1.410 . S
C1315 C1323 1.503 . S
C1316 C1315 1.410 . S
C1316 C1317 1.392 1_554 S
C1316 C1319 1.511 . S
C1317 C1313 1.376 . S
C1317 C1316 1.392 1_556 S
C1317 H1329 0.929 . S
C1318 C1314 1.531 . S
C1318 H1330 0.960 . S
C1318 H1331 0.962 . S
C1318 H1332 0.960 . S
C1319 C1316 1.511 . S
C1319 H1333 0.961 1_554 S
C1319 H1334 0.961 . S
C1319 H1335 0.961 . S
C1320 C1321 1.370 . S
C1320 C1322 1.363 . S
C1320 H1336 0.931 . S
C1321 C1320 1.370 . S
C1321 C1325 1.408 . S
C1322 C1320 1.363 . S
C1322 C1323 1.370 . S
C1322 C1326 1.524 . S
C1323 C1315 1.503 . S
C1323 C1322 1.370 . S
C1323 C1324 1.403 . S
C1324 C1323 1.403 . S
C1324 C1325 1.404 . S
C1324 C1327 1.539 . S
C1325 C1321 1.408 . S
C1325 C1324 1.404 . S
C1325 H1337 0.930 . S
C1326 C1322 1.524 . S
C1326 H1338 0.956 . S
C1326 H1339 0.961 1_554 S
C1326 H1340 0.961 . S
C1327 C1324 1.539 . S
C1327 H1341 0.958 . S
C1327 H1342 0.961 . S
C1327 H1343 0.960 . S
H1328 C1312 0.931 . S
H1329 C1317 0.929 . S
H1330 C1318 0.960 . S
H1331 C1318 0.962 . S
H1332 C1318 0.960 . S
H1333 C1319 0.961 1_556 S
H1334 C1319 0.961 . S
H1335 C1319 0.961 . S
H1336 C1320 0.931 . S
H1337 C1325 0.930 . S
H1338 C1326 0.956 . S
H1339 C1326 0.961 1_556 S
H1340 C1326 0.961 . S
H1341 C1327 0.958 . S
H1342 C1327 0.961 . S
H1343 C1327 0.960 . S
C1344 C1345 1.391 . S
C1344 C1346 1.394 1_554 S
C1344 H1360 0.931 . S
C1345 C1344 1.391 . S
C1345 C1349 1.376 1_554 S
C1346 C1344 1.394 1_556 S
C1346 C1347 1.369 . S
C1346 C1350 1.531 . S
C1347 C1346 1.369 . S
C1347 C1348 1.410 . S
C1347 C1355 1.503 . S
C1348 C1347 1.410 . S
C1348 C1349 1.392 . S
C1348 C1351 1.511 . S
C1349 C1345 1.376 1_556 S
C1349 C1348 1.392 . S
C1349 H1361 0.929 . S
C1350 C1346 1.531 . S
C1350 H1362 0.960 . S
C1350 H1363 0.962 . S
C1350 H1364 0.960 1_556 S
C1351 C1348 1.511 . S
C1351 H1365 0.961 . S
C1351 H1366 0.961 . S
C1351 H1367 0.961 . S
C1352 C1353 1.370 . S
C1352 C1354 1.363 . S
C1352 H1368 0.931 . S
C1353 C1352 1.370 . S
C1353 C1357 1.408 . S
C1354 C1352 1.363 . S
C1354 C1355 1.370 . S
C1354 C1358 1.524 . S
C1355 C1347 1.503 . S
C1355 C1354 1.370 . S
C1355 C1356 1.403 . S
C1356 C1355 1.403 . S
C1356 C1357 1.404 . S
C1356 C1359 1.539 . S
C1357 C1353 1.408 . S
C1357 C1356 1.404 . S
C1357 H1369 0.930 . S
C1358 C1354 1.524 . S
C1358 H1370 0.956 . S
C1358 H1371 0.961 . S
C1358 H1372 0.961 . S
C1359 C1356 1.539 . S
C1359 H1373 0.958 1_556 S
C1359 H1374 0.961 . S
C1359 H1375 0.960 1_556 S
H1360 C1344 0.931 . S
H1361 C1349 0.929 . S
H1362 C1350 0.960 . S
H1363 C1350 0.962 . S
H1364 C1350 0.960 1_554 S
H1365 C1351 0.961 . S
H1366 C1351 0.961 . S
H1367 C1351 0.961 . S
H1368 C1352 0.931 . S
H1369 C1357 0.930 . S
H1370 C1358 0.956 . S
H1371 C1358 0.961 . S
H1372 C1358 0.961 . S
H1373 C1359 0.958 1_554 S
H1374 C1359 0.961 . S
H1375 C1359 0.960 1_554 S
C1376 C1377 1.391 . S
C1376 C1378 1.394 1_556 S
C1376 H1392 0.931 . S
C1377 C1376 1.391 . S
C1377 C1381 1.376 1_556 S
C1378 C1376 1.394 1_554 S
C1378 C1379 1.369 . S
C1378 C1382 1.531 . S
C1379 C1378 1.369 . S
C1379 C1380 1.410 . S
C1379 C1387 1.503 . S
C1380 C1379 1.410 . S
C1380 C1381 1.392 . S
C1380 C1383 1.511 . S
C1381 C1377 1.376 1_554 S
C1381 C1380 1.392 . S
C1381 H1393 0.929 . S
C1382 C1378 1.531 . S
C1382 H1394 0.960 . S
C1382 H1395 0.962 1_554 S
C1382 H1396 0.960 . S
C1383 C1380 1.511 . S
C1383 H1397 0.961 . S
C1383 H1398 0.961 . S
C1383 H1399 0.961 . S
C1384 C1385 1.370 . S
C1384 C1386 1.363 . S
C1384 H1400 0.931 . S
C1385 C1384 1.370 . S
C1385 C1389 1.408 . S
C1386 C1384 1.363 . S
C1386 C1387 1.370 . S
C1386 C1390 1.524 . S
C1387 C1379 1.503 . S
C1387 C1386 1.370 . S
C1387 C1388 1.403 . S
C1388 C1387 1.403 . S
C1388 C1389 1.404 . S
C1388 C1391 1.539 . S
C1389 C1385 1.408 . S
C1389 C1388 1.404 . S
C1389 H1401 0.930 . S
C1390 C1386 1.524 . S
C1390 H1402 0.956 1_554 S
C1390 H1403 0.961 . S
C1390 H1404 0.961 . S
C1391 C1388 1.539 . S
C1391 H1405 0.958 . S
C1391 H1406 0.961 . S
C1391 H1407 0.960 . S
H1392 C1376 0.931 . S
H1393 C1381 0.929 . S
H1394 C1382 0.960 . S
H1395 C1382 0.962 1_556 S
H1396 C1382 0.960 . S
H1397 C1383 0.961 . S
H1398 C1383 0.961 . S
H1399 C1383 0.961 . S
H1400 C1384 0.931 . S
H1401 C1389 0.930 . S
H1402 C1390 0.956 1_556 S
H1403 C1390 0.961 . S
H1404 C1390 0.961 . S
H1405 C1391 0.958 . S
H1406 C1391 0.961 . S
H1407 C1391 0.960 . S
C1408 C1409 1.391 . S
C1408 C1410 1.394 . S
C1408 H1424 0.931 . S
C1409 C1408 1.391 . S
C1409 C1413 1.376 . S
C1410 C1408 1.394 . S
C1410 C1411 1.369 . S
C1410 C1414 1.531 . S
C1411 C1410 1.369 . S
C1411 C1412 1.410 . S
C1411 C1419 1.503 . S
C1412 C1411 1.410 . S
C1412 C1413 1.392 . S
C1412 C1415 1.511 . S
C1413 C1409 1.376 . S
C1413 C1412 1.392 . S
C1413 H1425 0.929 . S
C1414 C1410 1.531 . S
C1414 H1426 0.960 . S
C1414 H1427 0.962 . S
C1414 H1428 0.960 . S
C1415 C1412 1.511 . S
C1415 H1429 0.961 . S
C1415 H1430 0.961 . S
C1415 H1431 0.961 . S
C1416 C1417 1.370 . S
C1416 C1418 1.363 . S
C1416 H1432 0.931 . S
C1417 C1416 1.370 . S
C1417 C1421 1.408 . S
C1418 C1416 1.363 . S
C1418 C1419 1.370 . S
C1418 C1422 1.524 . S
C1419 C1411 1.503 . S
C1419 C1418 1.370 . S
C1419 C1420 1.403 . S
C1420 C1419 1.403 . S
C1420 C1421 1.404 . S
C1420 C1423 1.539 . S
C1421 C1417 1.408 . S
C1421 C1420 1.404 . S
C1421 H1433 0.930 . S
C1422 C1418 1.524 . S
C1422 H1434 0.956 . S
C1422 H1435 0.961 . S
C1422 H1436 0.961 . S
C1423 C1420 1.539 . S
C1423 H1437 0.958 . S
C1423 H1438 0.961 . S
C1423 H1439 0.960 . S
H1424 C1408 0.931 . S
H1425 C1413 0.929 . S
H1426 C1414 0.960 . S
H1427 C1414 0.962 . S
H1428 C1414 0.960 . S
H1429 C1415 0.961 . S
H1430 C1415 0.961 . S
H1431 C1415 0.961 . S
H1432 C1416 0.931 . S
H1433 C1421 0.930 . S
H1434 C1422 0.956 . S
H1435 C1422 0.961 . S
H1436 C1422 0.961 . S
H1437 C1423 0.958 . S
H1438 C1423 0.961 . S
H1439 C1423 0.960 . S
C1440 C1441 1.391 . S
C1440 C1442 1.394 . S
C1440 H1456 0.931 . S
C1441 C1440 1.391 . S
C1441 C1445 1.376 . S
C1442 C1440 1.394 . S
C1442 C1443 1.369 . S
C1442 C1446 1.531 . S
C1443 C1442 1.369 . S
C1443 C1444 1.410 . S
C1443 C1451 1.503 . S
C1444 C1443 1.410 . S
C1444 C1445 1.392 . S
C1444 C1447 1.511 . S
C1445 C1441 1.376 . S
C1445 C1444 1.392 . S
C1445 H1457 0.929 . S
C1446 C1442 1.531 . S
C1446 H1458 0.960 . S
C1446 H1459 0.962 . S
C1446 H1460 0.960 . S
C1447 C1444 1.511 . S
C1447 H1461 0.961 . S
C1447 H1462 0.961 . S
C1447 H1463 0.961 . S
C1448 C1449 1.370 . S
C1448 C1450 1.363 . S
C1448 H1464 0.931 . S
C1449 C1448 1.370 . S
C1449 C1453 1.408 . S
C1450 C1448 1.363 . S
C1450 C1451 1.370 . S
C1450 C1454 1.524 . S
C1451 C1443 1.503 . S
C1451 C1450 1.370 . S
C1451 C1452 1.403 . S
C1452 C1451 1.403 . S
C1452 C1453 1.404 . S
C1452 C1455 1.539 . S
C1453 C1449 1.408 . S
C1453 C1452 1.404 . S
C1453 H1465 0.930 . S
C1454 C1450 1.524 . S
C1454 H1466 0.956 . S
C1454 H1467 0.961 . S
C1454 H1468 0.961 . S
C1455 C1452 1.539 . S
C1455 H1469 0.958 . S
C1455 H1470 0.961 . S
C1455 H1471 0.960 . S
H1456 C1440 0.931 . S
H1457 C1445 0.929 . S
H1458 C1446 0.960 . S
H1459 C1446 0.962 . S
H1460 C1446 0.960 . S
H1461 C1447 0.961 . S
H1462 C1447 0.961 . S
H1463 C1447 0.961 . S
H1464 C1448 0.931 . S
H1465 C1453 0.930 . S
H1466 C1454 0.956 . S
H1467 C1454 0.961 . S
H1468 C1454 0.961 . S
H1469 C1455 0.958 . S
H1470 C1455 0.961 . S
H1471 C1455 0.960 . S
C1472 C1473 1.391 . S
C1472 C1474 1.394 . S
C1472 H1488 0.931 . S
C1473 C1472 1.391 . S
C1473 C1477 1.376 . S
C1474 C1472 1.394 . S
C1474 C1475 1.369 . S
C1474 C1478 1.531 . S
C1475 C1474 1.369 . S
C1475 C1476 1.410 . S
C1475 C1483 1.503 . S
C1476 C1475 1.410 . S
C1476 C1477 1.392 . S
C1476 C1479 1.511 . S
C1477 C1473 1.376 . S
C1477 C1476 1.392 . S
C1477 H1489 0.929 . S
C1478 C1474 1.531 . S
C1478 H1490 0.960 . S
C1478 H1491 0.962 . S
C1478 H1492 0.960 . S
C1479 C1476 1.511 . S
C1479 H1493 0.961 . S
C1479 H1494 0.961 . S
C1479 H1495 0.961 . S
C1480 C1481 1.370 . S
C1480 C1482 1.363 . S
C1480 H1496 0.931 . S
C1481 C1480 1.370 . S
C1481 C1485 1.408 . S
C1482 C1480 1.363 . S
C1482 C1483 1.370 . S
C1482 C1486 1.524 . S
C1483 C1475 1.503 . S
C1483 C1482 1.370 . S
C1483 C1484 1.403 . S
C1484 C1483 1.403 . S
C1484 C1485 1.404 . S
C1484 C1487 1.539 . S
C1485 C1481 1.408 . S
C1485 C1484 1.404 . S
C1485 H1497 0.930 . S
C1486 C1482 1.524 . S
C1486 H1498 0.956 . S
C1486 H1499 0.961 . S
C1486 H1500 0.961 . S
C1487 C1484 1.539 . S
C1487 H1501 0.958 . S
C1487 H1502 0.961 . S
C1487 H1503 0.960 . S
H1488 C1472 0.931 . S
H1489 C1477 0.929 . S
H1490 C1478 0.960 . S
H1491 C1478 0.962 . S
H1492 C1478 0.960 . S
H1493 C1479 0.961 . S
H1494 C1479 0.961 . S
H1495 C1479 0.961 . S
H1496 C1480 0.931 . S
H1497 C1485 0.930 . S
H1498 C1486 0.956 . S
H1499 C1486 0.961 . S
H1500 C1486 0.961 . S
H1501 C1487 0.958 . S
H1502 C1487 0.961 . S
H1503 C1487 0.960 . S
C1504 C1505 1.391 . S
C1504 C1506 1.394 . S
C1504 H1520 0.931 . S
C1505 C1504 1.391 . S
C1505 C1509 1.376 . S
C1506 C1504 1.394 . S
C1506 C1507 1.369 . S
C1506 C1510 1.531 . S
C1507 C1506 1.369 . S
C1507 C1508 1.410 . S
C1507 C1515 1.503 . S
C1508 C1507 1.410 . S
C1508 C1509 1.392 . S
C1508 C1511 1.511 . S
C1509 C1505 1.376 . S
C1509 C1508 1.392 . S
C1509 H1521 0.929 . S
C1510 C1506 1.531 . S
C1510 H1522 0.960 . S
C1510 H1523 0.962 . S
C1510 H1524 0.960 . S
C1511 C1508 1.511 . S
C1511 H1525 0.961 . S
C1511 H1526 0.961 . S
C1511 H1527 0.961 . S
C1512 C1513 1.370 . S
C1512 C1514 1.363 . S
C1512 H1528 0.931 . S
C1513 C1512 1.370 . S
C1513 C1517 1.408 . S
C1514 C1512 1.363 . S
C1514 C1515 1.370 . S
C1514 C1518 1.524 . S
C1515 C1507 1.503 . S
C1515 C1514 1.370 . S
C1515 C1516 1.403 . S
C1516 C1515 1.403 . S
C1516 C1517 1.404 . S
C1516 C1519 1.539 . S
C1517 C1513 1.408 . S
C1517 C1516 1.404 . S
C1517 H1529 0.930 . S
C1518 C1514 1.524 . S
C1518 H1530 0.956 . S
C1518 H1531 0.961 . S
C1518 H1532 0.961 . S
C1519 C1516 1.539 . S
C1519 H1533 0.958 . S
C1519 H1534 0.961 . S
C1519 H1535 0.960 . S
H1520 C1504 0.931 . S
H1521 C1509 0.929 . S
H1522 C1510 0.960 . S
H1523 C1510 0.962 . S
H1524 C1510 0.960 . S
H1525 C1511 0.961 . S
H1526 C1511 0.961 . S
H1527 C1511 0.961 . S
H1528 C1512 0.931 . S
H1529 C1517 0.930 . S
H1530 C1518 0.956 . S
H1531 C1518 0.961 . S
H1532 C1518 0.961 . S
H1533 C1519 0.958 . S
H1534 C1519 0.961 . S
H1535 C1519 0.960 . S
C1536 C1537 1.391 . S
C1536 C1538 1.394 . S
C1536 H1552 0.931 . S
C1537 C1536 1.391 . S
C1537 C1541 1.376 . S
C1538 C1536 1.394 . S
C1538 C1539 1.369 . S
C1538 C1542 1.531 . S
C1539 C1538 1.369 . S
C1539 C1540 1.410 . S
C1539 C1547 1.503 . S
C1540 C1539 1.410 . S
C1540 C1541 1.392 . S
C1540 C1543 1.511 . S
C1541 C1537 1.376 . S
C1541 C1540 1.392 . S
C1541 H1553 0.929 . S
C1542 C1538 1.531 . S
C1542 H1554 0.960 . S
C1542 H1555 0.962 . S
C1542 H1556 0.960 . S
C1543 C1540 1.511 . S
C1543 H1557 0.961 . S
C1543 H1558 0.961 . S
C1543 H1559 0.961 . S
C1544 C1545 1.370 . S
C1544 C1546 1.363 . S
C1544 H1560 0.931 . S
C1545 C1544 1.370 . S
C1545 C1549 1.408 . S
C1546 C1544 1.363 . S
C1546 C1547 1.370 . S
C1546 C1550 1.524 . S
C1547 C1539 1.503 . S
C1547 C1546 1.370 . S
C1547 C1548 1.403 . S
C1548 C1547 1.403 . S
C1548 C1549 1.404 . S
C1548 C1551 1.539 . S
C1549 C1545 1.408 . S
C1549 C1548 1.404 . S
C1549 H1561 0.930 . S
C1550 C1546 1.524 . S
C1550 H1562 0.956 . S
C1550 H1563 0.961 . S
C1550 H1564 0.961 . S
C1551 C1548 1.539 . S
C1551 H1565 0.958 . S
C1551 H1566 0.961 . S
C1551 H1567 0.960 . S
H1552 C1536 0.931 . S
H1553 C1541 0.929 . S
H1554 C1542 0.960 . S
H1555 C1542 0.962 . S
H1556 C1542 0.960 . S
H1557 C1543 0.961 . S
H1558 C1543 0.961 . S
H1559 C1543 0.961 . S
H1560 C1544 0.931 . S
H1561 C1549 0.930 . S
H1562 C1550 0.956 . S
H1563 C1550 0.961 . S
H1564 C1550 0.961 . S
H1565 C1551 0.958 . S
H1566 C1551 0.961 . S
H1567 C1551 0.960 . S
C1568 C1569 1.391 . S
C1568 C1570 1.394 . S
C1568 H1584 0.931 . S
C1569 C1568 1.391 . S
C1569 C1573 1.376 . S
C1570 C1568 1.394 . S
C1570 C1571 1.369 . S
C1570 C1574 1.531 . S
C1571 C1570 1.369 . S
C1571 C1572 1.410 . S
C1571 C1579 1.503 . S
C1572 C1571 1.410 . S
C1572 C1573 1.392 . S
C1572 C1575 1.511 . S
C1573 C1569 1.376 . S
C1573 C1572 1.392 . S
C1573 H1585 0.929 . S
C1574 C1570 1.531 . S
C1574 H1586 0.960 . S
C1574 H1587 0.962 . S
C1574 H1588 0.960 . S
C1575 C1572 1.511 . S
C1575 H1589 0.961 . S
C1575 H1590 0.961 . S
C1575 H1591 0.961 . S
C1576 C1577 1.370 . S
C1576 C1578 1.363 . S
C1576 H1592 0.931 . S
C1577 C1576 1.370 . S
C1577 C1581 1.408 . S
C1578 C1576 1.363 . S
C1578 C1579 1.370 . S
C1578 C1582 1.524 . S
C1579 C1571 1.503 . S
C1579 C1578 1.370 . S
C1579 C1580 1.403 . S
C1580 C1579 1.403 . S
C1580 C1581 1.404 . S
C1580 C1583 1.539 . S
C1581 C1577 1.408 . S
C1581 C1580 1.404 . S
C1581 H1593 0.930 . S
C1582 C1578 1.524 . S
C1582 H1594 0.956 . S
C1582 H1595 0.961 . S
C1582 H1596 0.961 . S
C1583 C1580 1.539 . S
C1583 H1597 0.958 . S
C1583 H1598 0.961 . S
C1583 H1599 0.960 . S
H1584 C1568 0.931 . S
H1585 C1573 0.929 . S
H1586 C1574 0.960 . S
H1587 C1574 0.962 . S
H1588 C1574 0.960 . S
H1589 C1575 0.961 . S
H1590 C1575 0.961 . S
H1591 C1575 0.961 . S
H1592 C1576 0.931 . S
H1593 C1581 0.930 . S
H1594 C1582 0.956 . S
H1595 C1582 0.961 . S
H1596 C1582 0.961 . S
H1597 C1583 0.958 . S
H1598 C1583 0.961 . S
H1599 C1583 0.960 . S
C1600 C1601 1.391 . S
C1600 C1602 1.394 . S
C1600 H1616 0.931 . S
C1601 C1600 1.391 . S
C1601 C1605 1.376 . S
C1602 C1600 1.394 . S
C1602 C1603 1.369 . S
C1602 C1606 1.531 . S
C1603 C1602 1.369 . S
C1603 C1604 1.410 . S
C1603 C1611 1.503 . S
C1604 C1603 1.410 . S
C1604 C1605 1.392 . S
C1604 C1607 1.511 . S
C1605 C1601 1.376 . S
C1605 C1604 1.392 . S
C1605 H1617 0.929 . S
C1606 C1602 1.531 . S
C1606 H1618 0.960 . S
C1606 H1619 0.962 . S
C1606 H1620 0.960 . S
C1607 C1604 1.511 . S
C1607 H1621 0.961 . S
C1607 H1622 0.961 . S
C1607 H1623 0.961 . S
C1608 C1609 1.370 . S
C1608 C1610 1.363 . S
C1608 H1624 0.931 . S
C1609 C1608 1.370 . S
C1609 C1613 1.408 . S
C1610 C1608 1.363 . S
C1610 C1611 1.370 . S
C1610 C1614 1.524 . S
C1611 C1603 1.503 . S
C1611 C1610 1.370 . S
C1611 C1612 1.403 . S
C1612 C1611 1.403 . S
C1612 C1613 1.404 . S
C1612 C1615 1.539 . S
C1613 C1609 1.408 . S
C1613 C1612 1.404 . S
C1613 H1625 0.930 . S
C1614 C1610 1.524 . S
C1614 H1626 0.956 . S
C1614 H1627 0.961 . S
C1614 H1628 0.961 . S
C1615 C1612 1.539 . S
C1615 H1629 0.958 . S
C1615 H1630 0.961 . S
C1615 H1631 0.960 . S
H1616 C1600 0.931 . S
H1617 C1605 0.929 . S
H1618 C1606 0.960 . S
H1619 C1606 0.962 . S
H1620 C1606 0.960 . S
H1621 C1607 0.961 . S
H1622 C1607 0.961 . S
H1623 C1607 0.961 . S
H1624 C1608 0.931 . S
H1625 C1613 0.930 . S
H1626 C1614 0.956 . S
H1627 C1614 0.961 . S
H1628 C1614 0.961 . S
H1629 C1615 0.958 . S
H1630 C1615 0.961 . S
H1631 C1615 0.960 . S
C1632 C1633 1.391 . S
C1632 C1634 1.394 . S
C1632 H1648 0.931 . S
C1633 C1632 1.391 . S
C1633 C1637 1.376 . S
C1634 C1632 1.394 . S
C1634 C1635 1.369 . S
C1634 C1638 1.531 . S
C1635 C1634 1.369 . S
C1635 C1636 1.410 . S
C1635 C1643 1.503 . S
C1636 C1635 1.410 . S
C1636 C1637 1.392 . S
C1636 C1639 1.511 . S
C1637 C1633 1.376 . S
C1637 C1636 1.392 . S
C1637 H1649 0.929 . S
C1638 C1634 1.531 . S
C1638 H1650 0.960 . S
C1638 H1651 0.962 . S
C1638 H1652 0.960 . S
C1639 C1636 1.511 . S
C1639 H1653 0.961 . S
C1639 H1654 0.961 . S
C1639 H1655 0.961 . S
C1640 C1641 1.370 . S
C1640 C1642 1.363 . S
C1640 H1656 0.931 . S
C1641 C1640 1.370 . S
C1641 C1645 1.408 . S
C1642 C1640 1.363 . S
C1642 C1643 1.370 . S
C1642 C1646 1.524 . S
C1643 C1635 1.503 . S
C1643 C1642 1.370 . S
C1643 C1644 1.403 . S
C1644 C1643 1.403 . S
C1644 C1645 1.404 . S
C1644 C1647 1.539 . S
C1645 C1641 1.408 . S
C1645 C1644 1.404 . S
C1645 H1657 0.930 . S
C1646 C1642 1.524 . S
C1646 H1658 0.956 . S
C1646 H1659 0.961 . S
C1646 H1660 0.961 . S
C1647 C1644 1.539 . S
C1647 H1661 0.958 . S
C1647 H1662 0.961 . S
C1647 H1663 0.960 . S
H1648 C1632 0.931 . S
H1649 C1637 0.929 . S
H1650 C1638 0.960 . S
H1651 C1638 0.962 . S
H1652 C1638 0.960 . S
H1653 C1639 0.961 . S
H1654 C1639 0.961 . S
H1655 C1639 0.961 . S
H1656 C1640 0.931 . S
H1657 C1645 0.930 . S
H1658 C1646 0.956 . S
H1659 C1646 0.961 . S
H1660 C1646 0.961 . S
H1661 C1647 0.958 . S
H1662 C1647 0.961 . S
H1663 C1647 0.960 . S
C1664 C1665 1.391 . S
C1664 C1666 1.394 . S
C1664 H1680 0.931 . S
C1665 C1664 1.391 . S
C1665 C1669 1.376 . S
C1666 C1664 1.394 . S
C1666 C1667 1.369 . S
C1666 C1670 1.531 . S
C1667 C1666 1.369 . S
C1667 C1668 1.410 . S
C1667 C1675 1.503 . S
C1668 C1667 1.410 . S
C1668 C1669 1.392 . S
C1668 C1671 1.511 . S
C1669 C1665 1.376 . S
C1669 C1668 1.392 . S
C1669 H1681 0.929 . S
C1670 C1666 1.531 . S
C1670 H1682 0.960 . S
C1670 H1683 0.962 . S
C1670 H1684 0.960 . S
C1671 C1668 1.511 . S
C1671 H1685 0.961 . S
C1671 H1686 0.961 . S
C1671 H1687 0.961 . S
C1672 C1673 1.370 . S
C1672 C1674 1.363 . S
C1672 H1688 0.931 . S
C1673 C1672 1.370 . S
C1673 C1677 1.408 . S
C1674 C1672 1.363 . S
C1674 C1675 1.370 . S
C1674 C1678 1.524 . S
C1675 C1667 1.503 . S
C1675 C1674 1.370 . S
C1675 C1676 1.403 . S
C1676 C1675 1.403 . S
C1676 C1677 1.404 . S
C1676 C1679 1.539 . S
C1677 C1673 1.408 . S
C1677 C1676 1.404 . S
C1677 H1689 0.930 . S
C1678 C1674 1.524 . S
C1678 H1690 0.956 . S
C1678 H1691 0.961 . S
C1678 H1692 0.961 . S
C1679 C1676 1.539 . S
C1679 H1693 0.958 . S
C1679 H1694 0.961 . S
C1679 H1695 0.960 . S
H1680 C1664 0.931 . S
H1681 C1669 0.929 . S
H1682 C1670 0.960 . S
H1683 C1670 0.962 . S
H1684 C1670 0.960 . S
H1685 C1671 0.961 . S
H1686 C1671 0.961 . S
H1687 C1671 0.961 . S
H1688 C1672 0.931 . S
H1689 C1677 0.930 . S
H1690 C1678 0.956 . S
H1691 C1678 0.961 . S
H1692 C1678 0.961 . S
H1693 C1679 0.958 . S
H1694 C1679 0.961 . S
H1695 C1679 0.960 . S
C1696 C1697 1.391 . S
C1696 C1698 1.394 . S
C1696 H1712 0.931 . S
C1697 C1696 1.391 . S
C1697 C1701 1.376 . S
C1698 C1696 1.394 . S
C1698 C1699 1.369 . S
C1698 C1702 1.531 . S
C1699 C1698 1.369 . S
C1699 C1700 1.410 . S
C1699 C1707 1.503 . S
C1700 C1699 1.410 . S
C1700 C1701 1.392 . S
C1700 C1703 1.511 . S
C1701 C1697 1.376 . S
C1701 C1700 1.392 . S
C1701 H1713 0.929 . S
C1702 C1698 1.531 . S
C1702 H1714 0.960 . S
C1702 H1715 0.962 . S
C1702 H1716 0.960 . S
C1703 C1700 1.511 . S
C1703 H1717 0.961 . S
C1703 H1718 0.961 . S
C1703 H1719 0.961 . S
C1704 C1705 1.370 . S
C1704 C1706 1.363 . S
C1704 H1720 0.931 . S
C1705 C1704 1.370 . S
C1705 C1709 1.408 . S
C1706 C1704 1.363 . S
C1706 C1707 1.370 . S
C1706 C1710 1.524 . S
C1707 C1699 1.503 . S
C1707 C1706 1.370 . S
C1707 C1708 1.403 . S
C1708 C1707 1.403 . S
C1708 C1709 1.404 . S
C1708 C1711 1.539 . S
C1709 C1705 1.408 . S
C1709 C1708 1.404 . S
C1709 H1721 0.930 . S
C1710 C1706 1.524 . S
C1710 H1722 0.956 . S
C1710 H1723 0.961 . S
C1710 H1724 0.961 . S
C1711 C1708 1.539 . S
C1711 H1725 0.958 . S
C1711 H1726 0.961 . S
C1711 H1727 0.960 . S
H1712 C1696 0.931 . S
H1713 C1701 0.929 . S
H1714 C1702 0.960 . S
H1715 C1702 0.962 . S
H1716 C1702 0.960 . S
H1717 C1703 0.961 . S
H1718 C1703 0.961 . S
H1719 C1703 0.961 . S
H1720 C1704 0.931 . S
H1721 C1709 0.930 . S
H1722 C1710 0.956 . S
H1723 C1710 0.961 . S
H1724 C1710 0.961 . S
H1725 C1711 0.958 . S
H1726 C1711 0.961 . S
H1727 C1711 0.960 . S
C1728 C1729 1.391 . S
C1728 C1730 1.394 . S
C1728 H1744 0.931 . S
C1729 C1728 1.391 . S
C1729 C1733 1.376 . S
C1730 C1728 1.394 . S
C1730 C1731 1.369 . S
C1730 C1734 1.531 . S
C1731 C1730 1.369 . S
C1731 C1732 1.410 . S
C1731 C1739 1.503 . S
C1732 C1731 1.410 . S
C1732 C1733 1.392 . S
C1732 C1735 1.511 . S
C1733 C1729 1.376 . S
C1733 C1732 1.392 . S
C1733 H1745 0.929 . S
C1734 C1730 1.531 . S
C1734 H1746 0.960 . S
C1734 H1747 0.962 . S
C1734 H1748 0.960 . S
C1735 C1732 1.511 . S
C1735 H1749 0.961 . S
C1735 H1750 0.961 . S
C1735 H1751 0.961 . S
C1736 C1737 1.370 . S
C1736 C1738 1.363 . S
C1736 H1752 0.931 . S
C1737 C1736 1.370 . S
C1737 C1741 1.408 . S
C1738 C1736 1.363 . S
C1738 C1739 1.370 . S
C1738 C1742 1.524 . S
C1739 C1731 1.503 . S
C1739 C1738 1.370 . S
C1739 C1740 1.403 . S
C1740 C1739 1.403 . S
C1740 C1741 1.404 . S
C1740 C1743 1.539 . S
C1741 C1737 1.408 . S
C1741 C1740 1.404 . S
C1741 H1753 0.930 . S
C1742 C1738 1.524 . S
C1742 H1754 0.956 . S
C1742 H1755 0.961 . S
C1742 H1756 0.961 . S
C1743 C1740 1.539 . S
C1743 H1757 0.958 . S
C1743 H1758 0.961 . S
C1743 H1759 0.960 . S
H1744 C1728 0.931 . S
H1745 C1733 0.929 . S
H1746 C1734 0.960 . S
H1747 C1734 0.962 . S
H1748 C1734 0.960 . S
H1749 C1735 0.961 . S
H1750 C1735 0.961 . S
H1751 C1735 0.961 . S
H1752 C1736 0.931 . S
H1753 C1741 0.930 . S
H1754 C1742 0.956 . S
H1755 C1742 0.961 . S
H1756 C1742 0.961 . S
H1757 C1743 0.958 . S
H1758 C1743 0.961 . S
H1759 C1743 0.960 . S
C1760 C1761 1.391 . S
C1760 C1762 1.394 . S
C1760 H1776 0.931 . S
C1761 C1760 1.391 . S
C1761 C1765 1.376 . S
C1762 C1760 1.394 . S
C1762 C1763 1.369 . S
C1762 C1766 1.531 . S
C1763 C1762 1.369 . S
C1763 C1764 1.410 . S
C1763 C1771 1.503 . S
C1764 C1763 1.410 . S
C1764 C1765 1.392 . S
C1764 C1767 1.511 . S
C1765 C1761 1.376 . S
C1765 C1764 1.392 . S
C1765 H1777 0.929 . S
C1766 C1762 1.531 . S
C1766 H1778 0.960 . S
C1766 H1779 0.962 . S
C1766 H1780 0.960 . S
C1767 C1764 1.511 . S
C1767 H1781 0.961 . S
C1767 H1782 0.961 . S
C1767 H1783 0.961 . S
C1768 C1769 1.370 . S
C1768 C1770 1.363 . S
C1768 H1784 0.931 . S
C1769 C1768 1.370 . S
C1769 C1773 1.408 . S
C1770 C1768 1.363 . S
C1770 C1771 1.370 . S
C1770 C1774 1.524 . S
C1771 C1763 1.503 . S
C1771 C1770 1.370 . S
C1771 C1772 1.403 . S
C1772 C1771 1.403 . S
C1772 C1773 1.404 . S
C1772 C1775 1.539 . S
C1773 C1769 1.408 . S
C1773 C1772 1.404 . S
C1773 H1785 0.930 . S
C1774 C1770 1.524 . S
C1774 H1786 0.956 . S
C1774 H1787 0.961 . S
C1774 H1788 0.961 . S
C1775 C1772 1.539 . S
C1775 H1789 0.958 . S
C1775 H1790 0.961 . S
C1775 H1791 0.960 . S
H1776 C1760 0.931 . S
H1777 C1765 0.929 . S
H1778 C1766 0.960 . S
H1779 C1766 0.962 . S
H1780 C1766 0.960 . S
H1781 C1767 0.961 . S
H1782 C1767 0.961 . S
H1783 C1767 0.961 . S
H1784 C1768 0.931 . S
H1785 C1773 0.930 . S
H1786 C1774 0.956 . S
H1787 C1774 0.961 . S
H1788 C1774 0.961 . S
H1789 C1775 0.958 . S
H1790 C1775 0.961 . S
H1791 C1775 0.960 . S
C1792 C1793 1.391 . S
C1792 C1794 1.394 1_556 S
C1792 H1808 0.931 . S
C1793 C1792 1.391 . S
C1793 C1797 1.376 . S
C1794 C1792 1.394 1_554 S
C1794 C1795 1.369 . S
C1794 C1798 1.531 . S
C1795 C1794 1.369 . S
C1795 C1796 1.410 . S
C1795 C1803 1.503 . S
C1796 C1795 1.410 . S
C1796 C1797 1.392 1_554 S
C1796 C1799 1.511 . S
C1797 C1793 1.376 . S
C1797 C1796 1.392 1_556 S
C1797 H1809 0.929 . S
C1798 C1794 1.531 . S
C1798 H1810 0.960 . S
C1798 H1811 0.962 . S
C1798 H1812 0.960 . S
C1799 C1796 1.511 . S
C1799 H1813 0.961 . S
C1799 H1814 0.961 . S
C1799 H1815 0.961 . S
C1800 C1801 1.370 . S
C1800 C1802 1.363 . S
C1800 H1816 0.931 . S
C1801 C1800 1.370 . S
C1801 C1805 1.408 . S
C1802 C1800 1.363 . S
C1802 C1803 1.370 . S
C1802 C1806 1.524 . S
C1803 C1795 1.503 . S
C1803 C1802 1.370 . S
C1803 C1804 1.403 . S
C1804 C1803 1.403 . S
C1804 C1805 1.404 . S
C1804 C1807 1.539 . S
C1805 C1801 1.408 . S
C1805 C1804 1.404 . S
C1805 H1817 0.930 . S
C1806 C1802 1.524 . S
C1806 H1818 0.956 . S
C1806 H1819 0.961 . S
C1806 H1820 0.961 . S
C1807 C1804 1.539 . S
C1807 H1821 0.958 . S
C1807 H1822 0.961 . S
C1807 H1823 0.960 . S
H1808 C1792 0.931 . S
H1809 C1797 0.929 . S
H1810 C1798 0.960 . S
H1811 C1798 0.962 . S
H1812 C1798 0.960 . S
H1813 C1799 0.961 . S
H1814 C1799 0.961 . S
H1815 C1799 0.961 . S
H1816 C1800 0.931 . S
H1817 C1805 0.930 . S
H1818 C1806 0.956 . S
H1819 C1806 0.961 . S
H1820 C1806 0.961 . S
H1821 C1807 0.958 . S
H1822 C1807 0.961 . S
H1823 C1807 0.960 . S
C1824 C1825 1.391 . S
C1824 C1826 1.394 . S
C1824 H1840 0.931 . S
C1825 C1824 1.391 . S
C1825 C1829 1.376 . S
C1826 C1824 1.394 . S
C1826 C1827 1.369 . S
C1826 C1830 1.531 . S
C1827 C1826 1.369 . S
C1827 C1828 1.410 . S
C1827 C1835 1.503 . S
C1828 C1827 1.410 . S
C1828 C1829 1.392 . S
C1828 C1831 1.511 . S
C1829 C1825 1.376 . S
C1829 C1828 1.392 . S
C1829 H1841 0.929 . S
C1830 C1826 1.531 . S
C1830 H1842 0.960 . S
C1830 H1843 0.962 . S
C1830 H1844 0.960 . S
C1831 C1828 1.511 . S
C1831 H1845 0.961 . S
C1831 H1846 0.961 . S
C1831 H1847 0.961 . S
C1832 C1833 1.370 . S
C1832 C1834 1.363 1_554 S
C1832 H1848 0.931 . S
C1833 C1832 1.370 . S
C1833 C1837 1.408 . S
C1834 C1832 1.363 1_556 S
C1834 C1835 1.370 . S
C1834 C1838 1.524 . S
C1835 C1827 1.503 . S
C1835 C1834 1.370 . S
C1835 C1836 1.403 . S
C1836 C1835 1.403 . S
C1836 C1837 1.404 1_556 S
C1836 C1839 1.539 . S
C1837 C1833 1.408 . S
C1837 C1836 1.404 1_554 S
C1837 H1849 0.930 . S
C1838 C1834 1.524 . S
C1838 H1850 0.956 . S
C1838 H1851 0.961 . S
C1838 H1852 0.961 . S
C1839 C1836 1.539 . S
C1839 H1853 0.958 . S
C1839 H1854 0.961 . S
C1839 H1855 0.960 . S
H1840 C1824 0.931 . S
H1841 C1829 0.929 . S
H1842 C1830 0.960 . S
H1843 C1830 0.962 . S
H1844 C1830 0.960 . S
H1845 C1831 0.961 . S
H1846 C1831 0.961 . S
H1847 C1831 0.961 . S
H1848 C1832 0.931 . S
H1849 C1837 0.930 . S
H1850 C1838 0.956 . S
H1851 C1838 0.961 . S
H1852 C1838 0.961 . S
H1853 C1839 0.958 . S
H1854 C1839 0.961 . S
H1855 C1839 0.960 . S
C1856 C1857 1.391 . S
C1856 C1858 1.394 . S
C1856 H1872 0.931 . S
C1857 C1856 1.391 . S
C1857 C1861 1.376 . S
C1858 C1856 1.394 . S
C1858 C1859 1.369 . S
C1858 C1862 1.531 . S
C1859 C1858 1.369 . S
C1859 C1860 1.410 . S
C1859 C1867 1.503 . S
C1860 C1859 1.410 . S
C1860 C1861 1.392 . S
C1860 C1863 1.511 . S
C1861 C1857 1.376 . S
C1861 C1860 1.392 . S
C1861 H1873 0.929 . S
C1862 C1858 1.531 . S
C1862 H1874 0.960 . S
C1862 H1875 0.962 . S
C1862 H1876 0.960 . S
C1863 C1860 1.511 . S
C1863 H1877 0.961 . S
C1863 H1878 0.961 . S
C1863 H1879 0.961 . S
C1864 C1865 1.370 . S
C1864 C1866 1.363 1_556 S
C1864 H1880 0.931 . S
C1865 C1864 1.370 . S
C1865 C1869 1.408 . S
C1866 C1864 1.363 1_554 S
C1866 C1867 1.370 . S
C1866 C1870 1.524 . S
C1867 C1859 1.503 . S
C1867 C1866 1.370 . S
C1867 C1868 1.403 . S
C1868 C1867 1.403 . S
C1868 C1869 1.404 1_554 S
C1868 C1871 1.539 . S
C1869 C1865 1.408 . S
C1869 C1868 1.404 1_556 S
C1869 H1881 0.930 . S
C1870 C1866 1.524 . S
C1870 H1882 0.956 . S
C1870 H1883 0.961 . S
C1870 H1884 0.961 . S
C1871 C1868 1.539 . S
C1871 H1885 0.958 . S
C1871 H1886 0.961 . S
C1871 H1887 0.960 . S
H1872 C1856 0.931 . S
H1873 C1861 0.929 . S
H1874 C1862 0.960 . S
H1875 C1862 0.962 . S
H1876 C1862 0.960 . S
H1877 C1863 0.961 . S
H1878 C1863 0.961 . S
H1879 C1863 0.961 . S
H1880 C1864 0.931 . S
H1881 C1869 0.930 . S
H1882 C1870 0.956 . S
H1883 C1870 0.961 . S
H1884 C1870 0.961 . S
H1885 C1871 0.958 . S
H1886 C1871 0.961 . S
H1887 C1871 0.960 . S
C1888 C1889 1.391 . S
C1888 C1890 1.394 1_554 S
C1888 H1904 0.931 . S
C1889 C1888 1.391 . S
C1889 C1893 1.376 . S
C1890 C1888 1.394 1_556 S
C1890 C1891 1.369 . S
C1890 C1894 1.531 . S
C1891 C1890 1.369 . S
C1891 C1892 1.410 . S
C1891 C1899 1.503 . S
C1892 C1891 1.410 . S
C1892 C1893 1.392 1_556 S
C1892 C1895 1.511 . S
C1893 C1889 1.376 . S
C1893 C1892 1.392 1_554 S
C1893 H1905 0.929 . S
C1894 C1890 1.531 . S
C1894 H1906 0.960 . S
C1894 H1907 0.962 . S
C1894 H1908 0.960 . S
C1895 C1892 1.511 . S
C1895 H1909 0.961 . S
C1895 H1910 0.961 . S
C1895 H1911 0.961 . S
C1896 C1897 1.370 . S
C1896 C1898 1.363 . S
C1896 H1912 0.931 . S
C1897 C1896 1.370 . S
C1897 C1901 1.408 . S
C1898 C1896 1.363 . S
C1898 C1899 1.370 . S
C1898 C1902 1.524 . S
C1899 C1891 1.503 . S
C1899 C1898 1.370 . S
C1899 C1900 1.403 . S
C1900 C1899 1.403 . S
C1900 C1901 1.404 . S
C1900 C1903 1.539 . S
C1901 C1897 1.408 . S
C1901 C1900 1.404 . S
C1901 H1913 0.930 . S
C1902 C1898 1.524 . S
C1902 H1914 0.956 . S
C1902 H1915 0.961 . S
C1902 H1916 0.961 . S
C1903 C1900 1.539 . S
C1903 H1917 0.958 . S
C1903 H1918 0.961 . S
C1903 H1919 0.960 . S
H1904 C1888 0.931 . S
H1905 C1893 0.929 . S
H1906 C1894 0.960 . S
H1907 C1894 0.962 . S
H1908 C1894 0.960 . S
H1909 C1895 0.961 . S
H1910 C1895 0.961 . S
H1911 C1895 0.961 . S
H1912 C1896 0.931 . S
H1913 C1901 0.930 . S
H1914 C1902 0.956 . S
H1915 C1902 0.961 . S
H1916 C1902 0.961 . S
H1917 C1903 0.958 . S
H1918 C1903 0.961 . S
H1919 C1903 0.960 . S
C1920 C1921 1.391 . S
C1920 C1922 1.394 . S
C1920 H1936 0.931 . S
C1921 C1920 1.391 . S
C1921 C1925 1.376 . S
C1922 C1920 1.394 . S
C1922 C1923 1.369 . S
C1922 C1926 1.531 . S
C1923 C1922 1.369 . S
C1923 C1924 1.410 . S
C1923 C1931 1.503 . S
C1924 C1923 1.410 . S
C1924 C1925 1.392 . S
C1924 C1927 1.511 . S
C1925 C1921 1.376 . S
C1925 C1924 1.392 . S
C1925 H1937 0.929 . S
C1926 C1922 1.531 . S
C1926 H1938 0.960 . S
C1926 H1939 0.962 . S
C1926 H1940 0.960 . S
C1927 C1924 1.511 . S
C1927 H1941 0.961 . S
C1927 H1942 0.961 . S
C1927 H1943 0.961 . S
C1928 C1929 1.370 . S
C1928 C1930 1.363 1_556 S
C1928 H1944 0.931 . S
C1929 C1928 1.370 . S
C1929 C1933 1.408 . S
C1930 C1928 1.363 1_554 S
C1930 C1931 1.370 . S
C1930 C1934 1.524 . S
C1931 C1923 1.503 . S
C1931 C1930 1.370 . S
C1931 C1932 1.403 . S
C1932 C1931 1.403 . S
C1932 C1933 1.404 1_554 S
C1932 C1935 1.539 . S
C1933 C1929 1.408 . S
C1933 C1932 1.404 1_556 S
C1933 H1945 0.930 . S
C1934 C1930 1.524 . S
C1934 H1946 0.956 . S
C1934 H1947 0.961 . S
C1934 H1948 0.961 . S
C1935 C1932 1.539 . S
C1935 H1949 0.958 . S
C1935 H1950 0.961 . S
C1935 H1951 0.960 . S
H1936 C1920 0.931 . S
H1937 C1925 0.929 . S
H1938 C1926 0.960 . S
H1939 C1926 0.962 . S
H1940 C1926 0.960 . S
H1941 C1927 0.961 . S
H1942 C1927 0.961 . S
H1943 C1927 0.961 . S
H1944 C1928 0.931 . S
H1945 C1933 0.930 . S
H1946 C1934 0.956 . S
H1947 C1934 0.961 . S
H1948 C1934 0.961 . S
H1949 C1935 0.958 . S
H1950 C1935 0.961 . S
H1951 C1935 0.960 . S
C1952 C1953 1.391 . S
C1952 C1954 1.394 1_554 S
C1952 H1968 0.931 . S
C1953 C1952 1.391 . S
C1953 C1957 1.376 . S
C1954 C1952 1.394 1_556 S
C1954 C1955 1.369 . S
C1954 C1958 1.531 . S
C1955 C1954 1.369 . S
C1955 C1956 1.410 . S
C1955 C1963 1.503 . S
C1956 C1955 1.410 . S
C1956 C1957 1.392 1_556 S
C1956 C1959 1.511 . S
C1957 C1953 1.376 . S
C1957 C1956 1.392 1_554 S
C1957 H1969 0.929 . S
C1958 C1954 1.531 . S
C1958 H1970 0.960 . S
C1958 H1971 0.962 . S
C1958 H1972 0.960 . S
C1959 C1956 1.511 . S
C1959 H1973 0.961 . S
C1959 H1974 0.961 . S
C1959 H1975 0.961 . S
C1960 C1961 1.370 . S
C1960 C1962 1.363 . S
C1960 H1976 0.931 . S
C1961 C1960 1.370 . S
C1961 C1965 1.408 . S
C1962 C1960 1.363 . S
C1962 C1963 1.370 . S
C1962 C1966 1.524 . S
C1963 C1955 1.503 . S
C1963 C1962 1.370 . S
C1963 C1964 1.403 . S
C1964 C1963 1.403 . S
C1964 C1965 1.404 . S
C1964 C1967 1.539 . S
C1965 C1961 1.408 . S
C1965 C1964 1.404 . S
C1965 H1977 0.930 . S
C1966 C1962 1.524 . S
C1966 H1978 0.956 . S
C1966 H1979 0.961 . S
C1966 H1980 0.961 . S
C1967 C1964 1.539 . S
C1967 H1981 0.958 . S
C1967 H1982 0.961 . S
C1967 H1983 0.960 . S
H1968 C1952 0.931 . S
H1969 C1957 0.929 . S
H1970 C1958 0.960 . S
H1971 C1958 0.962 . S
H1972 C1958 0.960 . S
H1973 C1959 0.961 . S
H1974 C1959 0.961 . S
H1975 C1959 0.961 . S
H1976 C1960 0.931 . S
H1977 C1965 0.930 . S
H1978 C1966 0.956 . S
H1979 C1966 0.961 . S
H1980 C1966 0.961 . S
H1981 C1967 0.958 . S
H1982 C1967 0.961 . S
H1983 C1967 0.960 . S
C1984 C1985 1.391 . S
C1984 C1986 1.394 1_556 S
C1984 H2000 0.931 . S
C1985 C1984 1.391 . S
C1985 C1989 1.376 . S
C1986 C1984 1.394 1_554 S
C1986 C1987 1.369 . S
C1986 C1990 1.531 . S
C1987 C1986 1.369 . S
C1987 C1988 1.410 . S
C1987 C1995 1.503 . S
C1988 C1987 1.410 . S
C1988 C1989 1.392 1_554 S
C1988 C1991 1.511 . S
C1989 C1985 1.376 . S
C1989 C1988 1.392 1_556 S
C1989 H2001 0.929 . S
C1990 C1986 1.531 . S
C1990 H2002 0.960 . S
C1990 H2003 0.962 . S
C1990 H2004 0.960 . S
C1991 C1988 1.511 . S
C1991 H2005 0.961 . S
C1991 H2006 0.961 . S
C1991 H2007 0.961 . S
C1992 C1993 1.370 . S
C1992 C1994 1.363 . S
C1992 H2008 0.931 . S
C1993 C1992 1.370 . S
C1993 C1997 1.408 . S
C1994 C1992 1.363 . S
C1994 C1995 1.370 . S
C1994 C1998 1.524 . S
C1995 C1987 1.503 . S
C1995 C1994 1.370 . S
C1995 C1996 1.403 . S
C1996 C1995 1.403 . S
C1996 C1997 1.404 . S
C1996 C1999 1.539 . S
C1997 C1993 1.408 . S
C1997 C1996 1.404 . S
C1997 H2009 0.930 . S
C1998 C1994 1.524 . S
C1998 H2010 0.956 . S
C1998 H2011 0.961 . S
C1998 H2012 0.961 . S
C1999 C1996 1.539 . S
C1999 H2013 0.958 . S
C1999 H2014 0.961 . S
C1999 H2015 0.960 . S
H2000 C1984 0.931 . S
H2001 C1989 0.929 . S
H2002 C1990 0.960 . S
H2003 C1990 0.962 . S
H2004 C1990 0.960 . S
H2005 C1991 0.961 . S
H2006 C1991 0.961 . S
H2007 C1991 0.961 . S
H2008 C1992 0.931 . S
H2009 C1997 0.930 . S
H2010 C1998 0.956 . S
H2011 C1998 0.961 . S
H2012 C1998 0.961 . S
H2013 C1999 0.958 . S
H2014 C1999 0.961 . S
H2015 C1999 0.960 . S
C2016 C2017 1.391 . S
C2016 C2018 1.394 . S
C2016 H2032 0.931 . S
C2017 C2016 1.391 . S
C2017 C2021 1.376 . S
C2018 C2016 1.394 . S
C2018 C2019 1.369 . S
C2018 C2022 1.531 . S
C2019 C2018 1.369 . S
C2019 C2020 1.410 . S
C2019 C2027 1.503 . S
C2020 C2019 1.410 . S
C2020 C2021 1.392 . S
C2020 C2023 1.511 . S
C2021 C2017 1.376 . S
C2021 C2020 1.392 . S
C2021 H2033 0.929 . S
C2022 C2018 1.531 . S
C2022 H2034 0.960 . S
C2022 H2035 0.962 . S
C2022 H2036 0.960 . S
C2023 C2020 1.511 . S
C2023 H2037 0.961 . S
C2023 H2038 0.961 . S
C2023 H2039 0.961 . S
C2024 C2025 1.370 . S
C2024 C2026 1.363 1_554 S
C2024 H2040 0.931 . S
C2025 C2024 1.370 . S
C2025 C2029 1.408 . S
C2026 C2024 1.363 1_556 S
C2026 C2027 1.370 . S
C2026 C2030 1.524 . S
C2027 C2019 1.503 . S
C2027 C2026 1.370 . S
C2027 C2028 1.403 . S
C2028 C2027 1.403 . S
C2028 C2029 1.404 1_556 S
C2028 C2031 1.539 . S
C2029 C2025 1.408 . S
C2029 C2028 1.404 1_554 S
C2029 H2041 0.930 . S
C2030 C2026 1.524 . S
C2030 H2042 0.956 . S
C2030 H2043 0.961 . S
C2030 H2044 0.961 . S
C2031 C2028 1.539 . S
C2031 H2045 0.958 . S
C2031 H2046 0.961 . S
C2031 H2047 0.960 . S
H2032 C2016 0.931 . S
H2033 C2021 0.929 . S
H2034 C2022 0.960 . S
H2035 C2022 0.962 . S
H2036 C2022 0.960 . S
H2037 C2023 0.961 . S
H2038 C2023 0.961 . S
H2039 C2023 0.961 . S
H2040 C2024 0.931 . S
H2041 C2029 0.930 . S
H2042 C2030 0.956 . S
H2043 C2030 0.961 . S
H2044 C2030 0.961 . S
H2045 C2031 0.958 . S
H2046 C2031 0.961 . S
H2047 C2031 0.960 . S
C513 C381 1.587 . S
C521 N13 1.564 . S
C545 C285 1.563 . S
C553 N45 1.580 . S
C577 N82 1.585 . S
C585 C317 1.572 . S
C609 N114 1.580 . S
C617 C324 1.572 . S
C641 N141 1.587 . S
C649 C164 1.575 . S
C673 C221 1.559 . S
C681 N178 1.573 . S
C705 N205 1.550 . S
C713 C253 1.585 . S
C737 C157 1.574 . S
C745 N237 1.565 . S
C769 C100 1.586 . S
C777 N269 1.573 . S
C801 N301 1.573 . S
C809 C29 1.572 . S
C833 C61 1.574 . S
C841 N338 1.567 . S
C865 C68 1.591 . S
C873 N365 1.568 . S
C897 N402 1.557 . S
C905 C445 1.586 . S
C929 C477 1.559 . S
C937 N429 1.573 . S
C961 C484 1.579 . S
C969 N461 1.577 . S
C993 N498 1.549 . S
C1001 C388 1.583 . S
C1025 N18 1.149 . S
C1033 N146 1.186 . S
C1057 N173 1.188 . S
C1065 N50 1.146 . S
C1089 N77 1.213 . S
C1097 N210 1.171 . S
C1121 N109 1.147 . S
C1129 N242 1.149 . S
C1153 N274 1.114 . S
C1161 N397 1.170 . S
C1185 N434 1.118 . S
C1193 N306 1.163 . S
C1217 N333 1.114 . S
C1225 N466 1.162 . S
C1249 N370 1.212 . S
C1257 N493 1.167 . S
C1281 C450 2.184 . S
C1289 C2 2.205 . S
C1313 C34 2.185 . S
C1321 C486 2.204 . S
C1345 C70 2.206 . S
C1353 C390 2.196 . S
C1377 C102 2.187 . S
C1385 C418 2.206 . S
C1409 C130 2.202 . S
C1417 C326 2.200 . S
C1441 C166 2.185 . S
C1449 C354 2.204 . S
C1473 C194 2.199 . S
C1481 C258 2.201 . S
C1505 C290 2.204 . S
C1513 C226 2.200 . S
C1537 C6 1.052 . S
C1545 C4 1.049 . S
C1569 C38 1.037 . S
C1577 C36 1.048 . S
C1601 C66 1.048 . S
C1609 C93 1.049 . S
C1633 C125 1.046 . S
C1641 C98 1.044 . S
C1665 C132 1.045 . S
C1673 C134 1.049 . S
C1697 C162 1.045 . S
C1705 C189 1.048 . S
C1729 C198 1.051 . S
C1737 C196 1.048 . S
C1761 C228 1.046 . S
C1769 C230 1.044 . S
C1793 C262 1.039 . S
C1801 C260 1.048 . S
C1825 C292 1.046 . S
C1833 C294 1.045 . S
C1857 C349 1.045 . S
C1865 C322 1.048 . S
C1889 C358 1.045 . S
C1897 C356 1.048 . S
C1921 C386 1.051 . S
C1929 C413 1.049 . S
C1953 C420 1.047 . S
C1961 C422 1.045 . S
C1985 C452 1.046 . S
C1993 C454 1.049 . S
C2017 C482 1.037 . S
C2025 C509 1.048 . S
