# Generated by pormake.
# Topology why, (6)-cn, num edge types: 1
# Building blocks:
#     Node 0, Type 0, BuildingBlock: UKALOJ_clean_sbu_0, # of connection points: 6
#     Node 1, Type 0, BuildingBlock: UKALOJ_clean_sbu_0, # of connection points: 6
#     Node 2, Type 0, BuildingBlock: UKALOJ_clean_sbu_0, # of connection points: 6
#     Node 3, Type 0, BuildingBlock: UKALOJ_clean_sbu_0, # of connection points: 6
#     Node 4, Type 0, BuildingBlock: UKALOJ_clean_sbu_0, # of connection points: 6
#     Node 5, Type 0, BuildingBlock: UKALOJ_clean_sbu_0, # of connection points: 6
#     Node 6, Type 0, BuildingBlock: UKALOJ_clean_sbu_0, # of connection points: 6
#     Node 7, Type 0, BuildingBlock: UKALOJ_clean_sbu_0, # of connection points: 6
#     Node 8, Type 0, BuildingBlock: UKALOJ_clean_sbu_0, # of connection points: 6
#     Node 9, Type 0, BuildingBlock: UKALOJ_clean_sbu_0, # of connection points: 6
#     Node 10, Type 0, BuildingBlock: UKALOJ_clean_sbu_0, # of connection points: 6
#     Node 11, Type 0, BuildingBlock: UKALOJ_clean_sbu_0, # of connection points: 6
#     Node 12, Type 0, BuildingBlock: UKALOJ_clean_sbu_0, # of connection points: 6
#     Node 13, Type 0, BuildingBlock: UKALOJ_clean_sbu_0, # of connection points: 6
#     Node 14, Type 0, BuildingBlock: UKALOJ_clean_sbu_0, # of connection points: 6
#     Node 15, Type 0, BuildingBlock: UKALOJ_clean_sbu_0, # of connection points: 6
#     Edge 16, Type (0, 0), BuildingBlock: UVAHIK_clean_linker_0, # of connection points: 2
#     Edge 17, Type (0, 0), BuildingBlock: UVAHIK_clean_linker_0, # of connection points: 2
#     Edge 18, Type (0, 0), BuildingBlock: UVAHIK_clean_linker_0, # of connection points: 2
#     Edge 19, Type (0, 0), BuildingBlock: UVAHIK_clean_linker_0, # of connection points: 2
#     Edge 20, Type (0, 0), BuildingBlock: UVAHIK_clean_linker_0, # of connection points: 2
#     Edge 21, Type (0, 0), BuildingBlock: UVAHIK_clean_linker_0, # of connection points: 2
#     Edge 22, Type (0, 0), BuildingBlock: UVAHIK_clean_linker_0, # of connection points: 2
#     Edge 23, Type (0, 0), BuildingBlock: UVAHIK_clean_linker_0, # of connection points: 2
#     Edge 24, Type (0, 0), BuildingBlock: UVAHIK_clean_linker_0, # of connection points: 2
#     Edge 25, Type (0, 0), BuildingBlock: UVAHIK_clean_linker_0, # of connection points: 2
#     Edge 26, Type (0, 0), BuildingBlock: UVAHIK_clean_linker_0, # of connection points: 2
#     Edge 27, Type (0, 0), BuildingBlock: UVAHIK_clean_linker_0, # of connection points: 2
#     Edge 28, Type (0, 0), BuildingBlock: UVAHIK_clean_linker_0, # of connection points: 2
#     Edge 29, Type (0, 0), BuildingBlock: UVAHIK_clean_linker_0, # of connection points: 2
#     Edge 30, Type (0, 0), BuildingBlock: UVAHIK_clean_linker_0, # of connection points: 2
#     Edge 31, Type (0, 0), BuildingBlock: UVAHIK_clean_linker_0, # of connection points: 2
#     Edge 32, Type (0, 0), BuildingBlock: UVAHIK_clean_linker_0, # of connection points: 2
#     Edge 33, Type (0, 0), BuildingBlock: UVAHIK_clean_linker_0, # of connection points: 2
#     Edge 34, Type (0, 0), BuildingBlock: UVAHIK_clean_linker_0, # of connection points: 2
#     Edge 35, Type (0, 0), BuildingBlock: UVAHIK_clean_linker_0, # of connection points: 2
#     Edge 36, Type (0, 0), BuildingBlock: UVAHIK_clean_linker_0, # of connection points: 2
#     Edge 37, Type (0, 0), BuildingBlock: UVAHIK_clean_linker_0, # of connection points: 2
#     Edge 38, Type (0, 0), BuildingBlock: UVAHIK_clean_linker_0, # of connection points: 2
#     Edge 39, Type (0, 0), BuildingBlock: UVAHIK_clean_linker_0, # of connection points: 2
#     Edge 40, Type (0, 0), BuildingBlock: UVAHIK_clean_linker_0, # of connection points: 2
#     Edge 41, Type (0, 0), BuildingBlock: UVAHIK_clean_linker_0, # of connection points: 2
#     Edge 42, Type (0, 0), BuildingBlock: UVAHIK_clean_linker_0, # of connection points: 2
#     Edge 43, Type (0, 0), BuildingBlock: UVAHIK_clean_linker_0, # of connection points: 2
#     Edge 44, Type (0, 0), BuildingBlock: UVAHIK_clean_linker_0, # of connection points: 2
#     Edge 45, Type (0, 0), BuildingBlock: UVAHIK_clean_linker_0, # of connection points: 2
#     Edge 46, Type (0, 0), BuildingBlock: UVAHIK_clean_linker_0, # of connection points: 2
#     Edge 47, Type (0, 0), BuildingBlock: UVAHIK_clean_linker_0, # of connection points: 2
#     Edge 48, Type (0, 0), BuildingBlock: UVAHIK_clean_linker_0, # of connection points: 2
#     Edge 49, Type (0, 0), BuildingBlock: UVAHIK_clean_linker_0, # of connection points: 2
#     Edge 50, Type (0, 0), BuildingBlock: UVAHIK_clean_linker_0, # of connection points: 2
#     Edge 51, Type (0, 0), BuildingBlock: UVAHIK_clean_linker_0, # of connection points: 2
#     Edge 52, Type (0, 0), BuildingBlock: UVAHIK_clean_linker_0, # of connection points: 2
#     Edge 53, Type (0, 0), BuildingBlock: UVAHIK_clean_linker_0, # of connection points: 2
#     Edge 54, Type (0, 0), BuildingBlock: UVAHIK_clean_linker_0, # of connection points: 2
#     Edge 55, Type (0, 0), BuildingBlock: UVAHIK_clean_linker_0, # of connection points: 2
#     Edge 56, Type (0, 0), BuildingBlock: UVAHIK_clean_linker_0, # of connection points: 2
#     Edge 57, Type (0, 0), BuildingBlock: UVAHIK_clean_linker_0, # of connection points: 2
#     Edge 58, Type (0, 0), BuildingBlock: UVAHIK_clean_linker_0, # of connection points: 2
#     Edge 59, Type (0, 0), BuildingBlock: UVAHIK_clean_linker_0, # of connection points: 2
#     Edge 60, Type (0, 0), BuildingBlock: UVAHIK_clean_linker_0, # of connection points: 2
#     Edge 61, Type (0, 0), BuildingBlock: UVAHIK_clean_linker_0, # of connection points: 2
#     Edge 62, Type (0, 0), BuildingBlock: UVAHIK_clean_linker_0, # of connection points: 2
#     Edge 63, Type (0, 0), BuildingBlock: UVAHIK_clean_linker_0, # of connection points: 2
# Relax obj value: 0.335
# Max RMSD: 0.156
# Mean RMSD: 0.156
data_MOF--net-why--node1-UKALOJ_clean_sbu_0--edge1-UVAHIK_clean_linker_0
_symmetry_space_group_name_H-M    P1
_symmetry_Int_Tables_number       1
_symmetry_cell_setting            triclinic
loop_
_symmetry_equiv_pos_as_xyz
'x, y, z'
_cell_length_a     65.463669
_cell_length_b     65.507948
_cell_length_c     35.151692
_cell_angle_alpha  90.006319
_cell_angle_beta   89.977132
_cell_angle_gamma 89.999451
loop_
_atom_site_label
_atom_site_type_symbol
_atom_site_fract_x
_atom_site_fract_y
_atom_site_fract_z
_atom_type_partial_charge
Zn0 Zn 0.32357 0.18752 0.03351 0.0
O1 O 0.32072 0.15931 0.06328 0.0
C2 C 0.30886 0.21033 0.10137 0.0
Zn3 Zn 0.34929 0.1969 0.07047 0.0
C4 C 0.33289 0.15579 0.09063 0.0
O5 O 0.34607 0.16915 0.09952 0.0
C6 C 0.34118 0.22848 0.0125 0.0
O7 O 0.37089 0.18296 0.03369 0.0
O8 O 0.34551 0.17341 0.99702 0.0
N9 N 0.37116 0.20485 0.10833 0.0
C10 C 0.3877 0.2169 0.10551 0.0
C11 C 0.38533 0.20753 0.1635 0.0
N12 N 0.36971 0.19902 0.14433 0.0
N13 N 0.39669 0.21899 0.13981 0.0
C14 C 0.28431 0.16754 1.00037 0.0
C15 C 0.28572 0.17688 0.94232 0.0
N16 N 0.30108 0.17928 0.99641 0.0
N17 N 0.30192 0.18506 0.96034 0.0
N18 N 0.27452 0.16568 0.96675 0.0
H19 H 0.28342 0.14339 0.04121 0.0
H20 H 0.26006 0.15775 0.03775 0.0
H21 H 0.28199 0.16853 0.06159 0.0
C22 C 0.27696 0.15892 0.03744 0.0
C23 C 0.39562 0.22565 0.06893 0.0
H24 H 0.4125 0.22704 0.06971 0.0
H25 H 0.38904 0.2411 0.06476 0.0
H26 H 0.39118 0.21599 0.04445 0.0
O27 O 0.35239 0.22474 0.04111 0.0
O28 O 0.3275 0.21566 1.00296 0.0
C29 C 0.36457 0.17377 1.00407 0.0
O30 O 0.30179 0.20176 0.07161 0.0
O31 O 0.328 0.21041 0.10681 0.0
Zn32 Zn 0.54728 0.59711 0.31885 0.0
O33 O 0.56095 0.61882 0.2821 0.0
C34 C 0.5158 0.58848 0.26095 0.0
Zn35 Zn 0.55705 0.57151 0.28194 0.0
C36 C 0.56994 0.61266 0.25214 0.0
O37 O 0.57049 0.59362 0.24501 0.0
C38 C 0.53453 0.55655 0.34991 0.0
O39 O 0.58546 0.56931 0.31134 0.0
O40 O 0.57507 0.59427 0.34797 0.0
N41 N 0.56558 0.54913 0.24485 0.0
C42 C 0.57779 0.53268 0.24864 0.0
C43 C 0.56798 0.53367 0.19084 0.0
N44 N 0.55951 0.5497 0.20893 0.0
N45 N 0.57965 0.52285 0.21507 0.0
C46 C 0.52698 0.63541 0.35378 0.0
C47 C 0.53625 0.63306 0.41183 0.0
N48 N 0.53903 0.61888 0.35669 0.0
N49 N 0.54479 0.61743 0.39272 0.0
N50 N 0.52483 0.64441 0.38807 0.0
H51 H 0.51702 0.66018 0.31781 0.0
H52 H 0.50279 0.63682 0.31301 0.0
H53 H 0.52792 0.63875 0.29269 0.0
C54 C 0.51829 0.6433 0.31715 0.0
C55 C 0.58687 0.52567 0.28553 0.0
H56 H 0.57725 0.53044 0.30988 0.0
H57 H 0.60223 0.53258 0.28891 0.0
H58 H 0.58855 0.50881 0.28589 0.0
O59 O 0.54339 0.54956 0.32036 0.0
O60 O 0.53399 0.57569 0.35512 0.0
C61 C 0.58874 0.58146 0.33884 0.0
O62 O 0.51941 0.59989 0.28935 0.0
O63 O 0.52875 0.57485 0.25178 0.0
Zn64 Zn 0.14651 0.79865 0.57205 0.0
O65 O 0.12514 0.81364 0.5367 0.0
C66 C 0.15372 0.76615 0.51457 0.0
Zn67 Zn 0.17216 0.80682 0.53396 0.0
C68 C 0.13118 0.82124 0.50538 0.0
O69 O 0.14999 0.82006 0.49648 0.0
C70 C 0.1868 0.78437 0.60209 0.0
O71 O 0.175 0.8357 0.56195 0.0
O72 O 0.15103 0.82603 0.6014 0.0
N73 N 0.19456 0.81462 0.49617 0.0
C74 C 0.21116 0.82668 0.49943 0.0
C75 C 0.20919 0.81738 0.44145 0.0
N76 N 0.1934 0.80883 0.46015 0.0
N77 N 0.2205 0.82882 0.46536 0.0
C78 C 0.10742 0.78058 0.60845 0.0
C79 C 0.11122 0.78911 0.66662 0.0
N80 N 0.12477 0.79145 0.61079 0.0
N81 N 0.12709 0.79679 0.64691 0.0
N82 N 0.0988 0.77873 0.6431 0.0
H83 H 0.10399 0.78143 0.54729 0.0
H84 H 0.08144 0.77361 0.57321 0.0
H85 H 0.10266 0.75648 0.56858 0.0
C86 C 0.09836 0.77272 0.57214 0.0
C87 C 0.21872 0.83539 0.53628 0.0
H88 H 0.21202 0.85078 0.54045 0.0
H89 H 0.23561 0.83683 0.53599 0.0
H90 H 0.21409 0.82568 0.56056 0.0
O91 O 0.19398 0.79327 0.57274 0.0
O92 O 0.16765 0.78416 0.60727 0.0
C93 C 0.16376 0.8394 0.59061 0.0
O94 O 0.14203 0.77102 0.542 0.0
O95 O 0.16831 0.77806 0.50557 0.0
Zn96 Zn 0.948 0.39769 0.81988 0.0
O97 O 0.93424 0.37584 0.78347 0.0
C98 C 0.97943 0.40616 0.76153 0.0
Zn99 Zn 0.93825 0.42317 0.78263 0.0
C100 C 0.92513 0.38191 0.75358 0.0
O101 O 0.92462 0.40092 0.74616 0.0
C102 C 0.96089 0.43833 0.85037 0.0
O103 O 0.90993 0.42532 0.81249 0.0
O104 O 0.92032 0.40049 0.84931 0.0
N105 N 0.92934 0.44555 0.74566 0.0
C106 C 0.9178 0.46243 0.75033 0.0
C107 C 0.9238 0.45938 0.69095 0.0
N108 N 0.93315 0.44378 0.7088 0.0
N109 N 0.9141 0.47133 0.71636 0.0
C110 C 0.96829 0.3594 0.85502 0.0
C111 C 0.95896 0.3619 0.91302 0.0
N112 N 0.95637 0.37603 0.85783 0.0
N113 N 0.95059 0.37758 0.89384 0.0
N114 N 0.97031 0.35042 0.88934 0.0
H115 H 0.9781 0.33452 0.81911 0.0
H116 H 0.99252 0.35777 0.81435 0.0
H117 H 0.96741 0.35604 0.79393 0.0
C118 C 0.97697 0.35142 0.81843 0.0
C119 C 0.90834 0.46872 0.7874 0.0
H120 H 0.89297 0.46169 0.78969 0.0
H121 H 0.90641 0.48546 0.78926 0.0
H122 H 0.91776 0.46355 0.81171 0.0
O123 O 0.95207 0.44524 0.82073 0.0
O124 O 0.96133 0.41921 0.85584 0.0
C125 C 0.90666 0.41327 0.84012 0.0
O126 O 0.97576 0.39493 0.79015 0.0
O127 O 0.96651 0.41976 0.75197 0.0
Zn128 Zn 0.64605 0.79892 0.94418 0.0
O129 O 0.62583 0.81516 0.98039 0.0
C130 C 0.65152 0.76605 1.00097 0.0
Zn131 Zn 0.67189 0.8059 0.98238 0.0
C132 C 0.63212 0.82184 0.01224 0.0
O133 O 0.6508 0.8195 0.02114 0.0
C134 C 0.68549 0.78323 0.91333 0.0
O135 O 0.67563 0.83498 0.95536 0.0
O136 O 0.65197 0.82594 0.91478 0.0
N137 N 0.69495 0.81222 0.01963 0.0
C138 C 0.71187 0.8238 0.01624 0.0
C139 C 0.71067 0.81318 0.07352 0.0
N140 N 0.69425 0.80561 0.05521 0.0
N141 N 0.72187 0.8248 0.04976 0.0
C142 C 0.60326 0.79126 0.90965 0.0
C143 C 0.61018 0.78946 0.8504 0.0
N144 N 0.6236 0.7932 0.90602 0.0
N145 N 0.6279 0.79204 0.86923 0.0
N146 N 0.59453 0.78912 0.87517 0.0
H147 H 0.6021 0.78405 0.96949 0.0
H148 H 0.58746 0.80603 0.95522 0.0
H149 H 0.5782 0.78082 0.9445 0.0
C150 C 0.59214 0.79037 0.94691 0.0
C151 C 0.71914 0.83314 0.97972 0.0
H152 H 0.71392 0.8241 0.95495 0.0
H153 H 0.71284 0.8488 0.97717 0.0
H154 H 0.73606 0.83413 0.97923 0.0
O155 O 0.69286 0.79203 0.94258 0.0
O156 O 0.6663 0.78327 0.90842 0.0
C157 C 0.66489 0.83897 0.92619 0.0
O158 O 0.6399 0.7717 0.97399 0.0
O159 O 0.6669 0.77702 0.00963 0.0
Zn160 Zn 0.4471 0.39622 0.69599 0.0
O161 O 0.43151 0.37542 0.73209 0.0
C162 C 0.47911 0.4032 0.75392 0.0
Zn163 Zn 0.43862 0.42187 0.73374 0.0
C164 C 0.42387 0.3816 0.76326 0.0
O165 O 0.42512 0.40042 0.77181 0.0
C166 C 0.46162 0.43612 0.6654 0.0
O167 O 0.40983 0.42454 0.70531 0.0
O168 O 0.41995 0.40074 0.66591 0.0
N169 N 0.43096 0.44473 0.77057 0.0
C170 C 0.41968 0.46179 0.76614 0.0
C171 C 0.42647 0.45899 0.82525 0.0
N172 N 0.43527 0.44311 0.80726 0.0
N173 N 0.41664 0.47096 0.80009 0.0
C174 C 0.4568 0.35377 0.66197 0.0
C175 C 0.45892 0.36066 0.60274 0.0
N176 N 0.45415 0.374 0.65818 0.0
N177 N 0.45552 0.37828 0.62141 0.0
N178 N 0.45961 0.34508 0.62761 0.0
H179 H 0.46355 0.3529 0.72198 0.0
H180 H 0.4421 0.33762 0.70717 0.0
H181 H 0.46766 0.32907 0.6972 0.0
C182 C 0.45769 0.34273 0.69928 0.0
C183 C 0.40981 0.46807 0.72945 0.0
H184 H 0.39421 0.46146 0.7282 0.0
H185 H 0.40832 0.48484 0.72731 0.0
H186 H 0.4187 0.46248 0.70476 0.0
O187 O 0.45244 0.4433 0.69445 0.0
O188 O 0.46205 0.41697 0.66047 0.0
C189 C 0.40639 0.41331 0.67653 0.0
O190 O 0.47449 0.39152 0.72634 0.0
O191 O 0.46718 0.41783 0.76265 0.0
Zn192 Zn 0.84798 0.19709 0.44501 0.0
O193 O 0.86918 0.18092 0.47962 0.0
C194 C 0.84204 0.22835 0.50439 0.0
Zn195 Zn 0.82251 0.18824 0.48295 0.0
C196 C 0.86307 0.17268 0.51035 0.0
O197 O 0.84427 0.17388 0.5192 0.0
C198 C 0.80774 0.21221 0.41657 0.0
O199 O 0.81921 0.15988 0.45331 0.0
O200 O 0.84273 0.17052 0.41373 0.0
N201 N 0.8 0.18034 0.52043 0.0
C202 C 0.78282 0.1692 0.51625 0.0
C203 C 0.78627 0.17543 0.57546 0.0
N204 N 0.80203 0.1843 0.55718 0.0
N205 N 0.77397 0.16591 0.55041 0.0
C206 C 0.8899 0.20766 0.40918 0.0
C207 C 0.88217 0.20982 0.35033 0.0
N208 N 0.86968 0.20452 0.40634 0.0
N209 N 0.86488 0.20593 0.36979 0.0
N210 N 0.89805 0.2108 0.37447 0.0
H211 H 0.89137 0.213 0.46974 0.0
H212 H 0.90808 0.19334 0.45185 0.0
H213 H 0.91427 0.21967 0.44373 0.0
C214 C 0.9015 0.20858 0.44587 0.0
C215 C 0.77613 0.15971 0.47946 0.0
H216 H 0.78295 0.14425 0.47716 0.0
H217 H 0.75935 0.158 0.47805 0.0
H218 H 0.78125 0.16899 0.45492 0.0
O219 O 0.80076 0.20266 0.44532 0.0
O220 O 0.82688 0.21269 0.41117 0.0
C221 C 0.83006 0.15695 0.42385 0.0
O222 O 0.85339 0.22377 0.47633 0.0
O223 O 0.8272 0.21661 0.51299 0.0
Zn224 Zn 0.04943 0.5983 0.19657 0.0
O225 O 0.06487 0.6191 0.23292 0.0
C226 C 0.01718 0.5917 0.25388 0.0
Zn227 Zn 0.0576 0.57236 0.23393 0.0
C228 C 0.07278 0.6127 0.26373 0.0
O229 O 0.0716 0.59379 0.27173 0.0
C230 C 0.03459 0.55838 0.16576 0.0
O231 O 0.08631 0.56916 0.2056 0.0
O232 O 0.07669 0.59348 0.1669 0.0
N233 N 0.06489 0.54951 0.27114 0.0
C234 C 0.07619 0.53242 0.26718 0.0
C235 C 0.06909 0.53552 0.32612 0.0
N236 N 0.06038 0.55131 0.30771 0.0
N237 N 0.07906 0.52342 0.30134 0.0
C238 C 0.0397 0.64062 0.16166 0.0
C239 C 0.03899 0.63358 0.10239 0.0
N240 N 0.04273 0.62041 0.15827 0.0
N241 N 0.0422 0.61605 0.12145 0.0
N242 N 0.03753 0.64919 0.12707 0.0
H243 H 0.05307 0.65834 0.206 0.0
H244 H 0.02693 0.66459 0.19615 0.0
H245 H 0.03304 0.64145 0.22183 0.0
C246 C 0.03797 0.65181 0.19868 0.0
C247 C 0.08621 0.52598 0.23073 0.0
H248 H 0.10177 0.53266 0.22947 0.0
H249 H 0.0878 0.5092 0.2289 0.0
H250 H 0.07735 0.53136 0.20586 0.0
O251 O 0.04355 0.55104 0.19487 0.0
O252 O 0.03447 0.57755 0.16091 0.0
C253 C 0.08997 0.58052 0.17712 0.0
O254 O 0.02212 0.60333 0.22645 0.0
O255 O 0.02887 0.57685 0.2626 0.0
Zn256 Zn 0.82255 0.68776 0.53222 0.0
O257 O 0.81916 0.65924 0.56121 0.0
C258 C 0.80788 0.71102 0.59954 0.0
Zn259 Zn 0.84815 0.69613 0.57023 0.0
C260 C 0.83035 0.65572 0.58999 0.0
O261 O 0.84324 0.66905 0.6003 0.0
C262 C 0.84205 0.72798 0.51181 0.0
O263 O 0.86934 0.68057 0.53476 0.0
O264 O 0.84429 0.67357 0.49547 0.0
N265 N 0.86991 0.70324 0.60897 0.0
C266 C 0.8901 0.70659 0.60609 0.0
C267 C 0.88246 0.70805 0.66507 0.0
N268 N 0.86517 0.70422 0.6456 0.0
N269 N 0.89828 0.70944 0.64084 0.0
C270 C 0.78267 0.66919 0.49889 0.0
C271 C 0.78621 0.67536 0.43968 0.0
N272 N 0.79998 0.68012 0.4947 0.0
N273 N 0.80207 0.68405 0.45794 0.0
N274 N 0.7738 0.666 0.46474 0.0
H275 H 0.78209 0.64404 0.53752 0.0
H276 H 0.75901 0.65867 0.53732 0.0
H277 H 0.7814 0.66869 0.56029 0.0
C278 C 0.77585 0.65975 0.53565 0.0
C279 C 0.90161 0.70801 0.56934 0.0
H280 H 0.8914 0.71265 0.54575 0.0
H281 H 0.90826 0.69288 0.56266 0.0
H282 H 0.91432 0.71914 0.57182 0.0
O283 O 0.85332 0.72327 0.53989 0.0
O284 O 0.82729 0.71623 0.50279 0.0
C285 C 0.86315 0.67247 0.50397 0.0
O286 O 0.80087 0.70202 0.5702 0.0
O287 O 0.82701 0.71118 0.60507 0.0
Zn288 Zn 0.0476 0.09847 0.81973 0.0
O289 O 0.06307 0.11961 0.78391 0.0
C290 C 0.01635 0.09154 0.7611 0.0
Zn291 Zn 0.05699 0.07284 0.78253 0.0
C292 C 0.07159 0.11344 0.7535 0.0
O293 O 0.07113 0.09451 0.74542 0.0
C294 C 0.03328 0.05827 0.84969 0.0
O295 O 0.08541 0.07009 0.812 0.0
O296 O 0.07451 0.09398 0.85053 0.0
N297 N 0.06506 0.05013 0.74555 0.0
C298 C 0.0765 0.03316 0.74994 0.0
C299 C 0.06981 0.03603 0.6908 0.0
N300 N 0.06082 0.05179 0.70885 0.0
N301 N 0.07971 0.0241 0.71595 0.0
C302 C 0.03728 0.14064 0.85481 0.0
C303 C 0.0353 0.13328 0.91383 0.0
N304 N 0.04009 0.1204 0.85798 0.0
N305 N 0.03875 0.11583 0.89464 0.0
N306 N 0.03448 0.14904 0.8894 0.0
H307 H 0.03138 0.14197 0.79448 0.0
H308 H 0.05195 0.15795 0.81136 0.0
H309 H 0.02594 0.16528 0.82016 0.0
C310 C 0.03647 0.15206 0.81794 0.0
C311 C 0.08632 0.02693 0.78671 0.0
H312 H 0.10159 0.0342 0.78869 0.0
H313 H 0.08851 0.01022 0.78842 0.0
H314 H 0.07697 0.03193 0.81126 0.0
O315 O 0.04284 0.05121 0.82098 0.0
O316 O 0.03258 0.07743 0.85459 0.0
C317 C 0.08824 0.08135 0.84093 0.0
O318 O 0.02067 0.10313 0.78892 0.0
O319 O 0.02846 0.07697 0.75266 0.0
Zn320 Zn 0.64752 0.29818 0.07012 0.0
O321 O 0.62706 0.31486 0.03498 0.0
C322 C 0.6532 0.26601 0.01209 0.0
Zn323 Zn 0.67309 0.30591 0.03188 0.0
C324 C 0.63311 0.32171 1.00309 0.0
O325 O 0.65173 0.31943 0.99366 0.0
C326 C 0.68713 0.28265 0.09991 0.0
O327 O 0.67625 0.3349 0.05969 0.0
O328 O 0.65342 0.32466 0.10098 0.0
N329 N 0.69602 0.31299 0.99474 0.0
C330 C 0.71324 0.32406 0.99896 0.0
C331 C 0.71026 0.31711 0.93994 0.0
N332 N 0.69429 0.30857 0.95812 0.0
N333 N 0.7224 0.32687 0.96495 0.0
C334 C 0.6049 0.28984 0.10484 0.0
C335 C 0.61206 0.28719 0.16387 0.0
N336 N 0.62525 0.29175 0.10825 0.0
N337 N 0.62969 0.29005 0.1449 0.0
N338 N 0.59631 0.28719 0.13933 0.0
H339 H 0.6035 0.28348 0.04469 0.0
H340 H 0.58892 0.30524 0.06026 0.0
H341 H 0.5797 0.2799 0.06987 0.0
C342 C 0.59363 0.28948 0.06772 0.0
C343 C 0.71969 0.334 0.03549 0.0
H344 H 0.71333 0.34969 0.03653 0.0
H345 H 0.73651 0.33522 0.03755 0.0
H346 H 0.714 0.32532 0.06033 0.0
O347 O 0.69436 0.29211 0.07125 0.0
O348 O 0.66795 0.28214 0.10469 0.0
C349 C 0.6659 0.33813 0.08967 0.0
O350 O 0.64148 0.27144 0.03909 0.0
O351 O 0.66858 0.2771 1.00381 0.0
Zn352 Zn 0.44595 0.89604 0.32047 0.0
O353 O 0.43015 0.8755 0.2842 0.0
C354 C 0.47838 0.90255 0.26293 0.0
Zn355 Zn 0.43812 0.92175 0.2824 0.0
C356 C 0.42289 0.88171 0.25276 0.0
O357 O 0.42458 0.90047 0.24402 0.0
C358 C 0.46095 0.93568 0.35118 0.0
O359 O 0.40924 0.92475 0.31015 0.0
O360 O 0.41871 0.90105 0.35029 0.0
N361 N 0.43093 0.94472 0.24551 0.0
C362 C 0.41983 0.9619 0.24991 0.0
C363 C 0.42666 0.95901 0.19082 0.0
N364 N 0.43528 0.94304 0.20884 0.0
N365 N 0.41693 0.97109 0.21597 0.0
C366 C 0.45484 0.8534 0.35444 0.0
C367 C 0.45673 0.86017 0.41373 0.0
N368 N 0.45247 0.87367 0.3583 0.0
N369 N 0.4537 0.87788 0.39512 0.0
N370 N 0.45732 0.84462 0.38879 0.0
H371 H 0.46186 0.85255 0.29452 0.0
H372 H 0.44018 0.83749 0.30892 0.0
H373 H 0.46559 0.82864 0.31923 0.0
C374 C 0.45579 0.84241 0.31707 0.0
C375 C 0.40997 0.96829 0.28655 0.0
H376 H 0.39424 0.962 0.2876 0.0
H377 H 0.40883 0.9851 0.28878 0.0
H378 H 0.41866 0.9625 0.3113 0.0
O379 O 0.452 0.94297 0.322 0.0
O380 O 0.46109 0.91652 0.35614 0.0
C381 C 0.40543 0.91377 0.33906 0.0
O382 O 0.47343 0.8909 0.29034 0.0
O383 O 0.46673 0.91739 0.2541 0.0
Zn384 Zn 0.14689 0.2988 0.44559 0.0
O385 O 0.12569 0.31366 0.48177 0.0
C386 C 0.15408 0.26589 0.50241 0.0
Zn387 Zn 0.17262 0.30656 0.48378 0.0
C388 C 0.13185 0.32097 0.51325 0.0
O389 O 0.15069 0.31962 0.52186 0.0
C390 C 0.18705 0.28461 0.41471 0.0
O391 O 0.17529 0.33568 0.45627 0.0
O392 O 0.1513 0.32626 0.4167 0.0
N393 N 0.19535 0.3141 0.52114 0.0
C394 C 0.21244 0.3254 0.51709 0.0
C395 C 0.20949 0.31824 0.57602 0.0
N396 N 0.19364 0.30956 0.55772 0.0
N397 N 0.22154 0.32822 0.55116 0.0
C398 C 0.10756 0.28107 0.40952 0.0
C399 C 0.11121 0.28984 0.35143 0.0
N400 N 0.12496 0.29186 0.4071 0.0
N401 N 0.12719 0.29734 0.37104 0.0
N402 N 0.09881 0.27943 0.37495 0.0
H403 H 0.10439 0.28164 0.47074 0.0
H404 H 0.08167 0.27415 0.44503 0.0
H405 H 0.10275 0.25681 0.44906 0.0
C406 C 0.09858 0.2731 0.44583 0.0
C407 C 0.21878 0.33552 0.48066 0.0
H408 H 0.2122 0.35112 0.47977 0.0
H409 H 0.23557 0.33699 0.47859 0.0
H410 H 0.21321 0.32683 0.45573 0.0
O411 O 0.19426 0.29322 0.44432 0.0
O412 O 0.16788 0.28448 0.40964 0.0
C413 C 0.16405 0.33954 0.42771 0.0
O414 O 0.14249 0.27107 0.47507 0.0
O415 O 0.16878 0.2776 0.51177 0.0
Zn416 Zn 0.94883 0.89722 0.19634 0.0
O417 O 0.93472 0.8753 0.23236 0.0
C418 C 0.97963 0.90584 0.25525 0.0
Zn419 Zn 0.93832 0.92257 0.23312 0.0
C420 C 0.92543 0.88131 0.26212 0.0
O421 O 0.92477 0.90031 0.26953 0.0
C422 C 0.96149 0.93789 0.16599 0.0
O423 O 0.91005 0.92453 0.20307 0.0
O424 O 0.92145 0.90015 0.1661 0.0
N425 N 0.92935 0.94487 0.27007 0.0
C426 C 0.91721 0.96134 0.26591 0.0
C427 C 0.92659 0.96037 0.32396 0.0
N428 N 0.93515 0.9443 0.30614 0.0
N429 N 0.91512 0.97121 0.29941 0.0
C430 C 0.9694 0.85899 0.16153 0.0
C431 C 0.9606 0.86161 0.10327 0.0
N432 N 0.95748 0.87562 0.15851 0.0
N433 N 0.95202 0.87723 0.12233 0.0
N434 N 0.97174 0.8501 0.1272 0.0
H435 H 0.97889 0.83403 0.19751 0.0
H436 H 0.99326 0.85728 0.2029 0.0
H437 H 0.96797 0.85549 0.22256 0.0
C438 C 0.97774 0.85093 0.1983 0.0
C439 C 0.90841 0.96832 0.22876 0.0
H440 H 0.89305 0.96144 0.22505 0.0
H441 H 0.90679 0.98518 0.22825 0.0
H442 H 0.91817 0.96347 0.20467 0.0
O443 O 0.95207 0.94471 0.19507 0.0
O444 O 0.96249 0.91877 0.16086 0.0
C445 C 0.90743 0.91262 0.17499 0.0
O446 O 0.97632 0.89437 0.22681 0.0
O447 O 0.96651 0.91941 0.26399 0.0
Zn448 Zn 0.32279 0.68757 0.98394 0.0
O449 O 0.32087 0.65899 0.95476 0.0
C450 C 0.30765 0.70995 0.91591 0.0
Zn451 Zn 0.34822 0.69676 0.94605 0.0
C452 C 0.33245 0.65566 0.92642 0.0
O453 O 0.345 0.66934 0.91623 0.0
C454 C 0.33983 0.7285 1.00442 0.0
O455 O 0.36997 0.68248 0.98179 0.0
O456 O 0.34511 0.67452 0.02106 0.0
N457 N 0.3699 0.70516 0.9081 0.0
C458 C 0.38642 0.71723 0.91108 0.0
C459 C 0.38384 0.70842 0.85282 0.0
N460 N 0.36832 0.69967 0.87194 0.0
N461 N 0.39526 0.71968 0.87672 0.0
C462 C 0.28355 0.6672 0.0165 0.0
C463 C 0.28652 0.67352 0.07578 0.0
N464 N 0.3004 0.6788 0.02101 0.0
N465 N 0.30213 0.68281 0.0578 0.0
N466 N 0.27462 0.66366 0.05051 0.0
H467 H 0.28428 0.6421 0.97779 0.0
H468 H 0.26057 0.65568 0.97764 0.0
H469 H 0.28263 0.66671 0.95511 0.0
C470 C 0.27733 0.65752 0.97961 0.0
C471 C 0.39446 0.72564 0.94782 0.0
H472 H 0.39011 0.71575 0.97204 0.0
H473 H 0.41134 0.72705 0.94686 0.0
H474 H 0.3879 0.74104 0.95259 0.0
O475 O 0.35133 0.7244 0.97634 0.0
O476 O 0.32588 0.71593 0.01376 0.0
C477 C 0.36402 0.67424 0.01262 0.0
O478 O 0.3007 0.70098 0.94537 0.0
O479 O 0.32678 0.7105 0.9106 0.0
Zn480 Zn 0.54833 0.09677 0.69649 0.0
O481 O 0.56243 0.11836 0.73272 0.0
C482 C 0.51643 0.0885 0.75438 0.0
Zn483 Zn 0.55749 0.07107 0.7337 0.0
C484 C 0.57093 0.11219 0.76314 0.0
O485 O 0.57085 0.0932 0.77083 0.0
C486 C 0.5351 0.05626 0.66566 0.0
O487 O 0.5861 0.06896 0.7046 0.0
O488 O 0.57589 0.09352 0.66699 0.0
N489 N 0.56603 0.0486 0.77077 0.0
C490 C 0.57775 0.03182 0.76643 0.0
C491 C 0.57108 0.0347 0.82558 0.0
N492 N 0.5618 0.05027 0.80748 0.0
N493 N 0.58115 0.02288 0.80048 0.0
C494 C 0.52887 0.1355 0.66132 0.0
C495 C 0.53734 0.13231 0.60296 0.0
N496 N 0.54028 0.11852 0.65844 0.0
N497 N 0.54555 0.11657 0.62221 0.0
N498 N 0.52664 0.14426 0.62686 0.0
H499 H 0.52994 0.13862 0.72253 0.0
H500 H 0.52124 0.16102 0.69726 0.0
H501 H 0.50484 0.13921 0.70182 0.0
C502 C 0.5209 0.14409 0.69797 0.0
C503 C 0.58764 0.02567 0.72966 0.0
H504 H 0.60296 0.03285 0.72794 0.0
H505 H 0.58974 0.00896 0.72776 0.0
H506 H 0.5784 0.03079 0.70507 0.0
O507 O 0.54398 0.04918 0.69508 0.0
O508 O 0.53462 0.07541 0.6606 0.0
C509 C 0.58949 0.08079 0.67667 0.0
O510 O 0.52066 0.10005 0.72645 0.0
O511 O 0.52891 0.07439 0.76344 0.0
C512 C 0.4297 0.222 0.17221 0.0
C513 C 0.41427 0.23075 0.14995 0.0
C514 C 0.44765 0.23279 0.17944 0.0
C515 C 0.47876 0.27152 0.13391 0.0
H516 H 0.51163 0.26693 0.22528 0.0
C517 C 0.56109 0.29973 0.13463 0.0
C518 C 0.57516 0.28557 0.14896 0.0
C519 C 0.54031 0.29738 0.14194 0.0
C520 C 0.50259 0.26835 0.19962 0.0
H521 H 0.40421 0.25817 0.12126 0.0
H522 H 0.43569 0.27715 0.13357 0.0
H523 H 0.47627 0.25486 0.22575 0.0
H524 H 0.57917 0.25878 0.18396 0.0
H525 H 0.54265 0.25412 0.19599 0.0
H526 H 0.50513 0.28402 0.1071 0.0
C527 C 0.43421 0.26177 0.14457 0.0
C528 C 0.48239 0.26149 0.19992 0.0
C529 C 0.41632 0.25093 0.13728 0.0
C530 C 0.5684 0.2697 0.17247 0.0
C531 C 0.54758 0.26721 0.17955 0.0
C532 C 0.49889 0.27829 0.13357 0.0
C533 C 0.45027 0.25258 0.16476 0.0
C534 C 0.47047 0.26257 0.16676 0.0
C535 C 0.53329 0.28076 0.16357 0.0
C536 C 0.51118 0.27632 0.16612 0.0
H537 H 0.42822 0.20648 0.1825 0.0
H538 H 0.45983 0.22525 0.19481 0.0
H539 H 0.47007 0.27224 0.10773 0.0
H540 H 0.5662 0.31245 0.11742 0.0
H541 H 0.5297 0.30832 0.12995 0.0
C542 C 0.52211 0.67744 0.42046 0.0
C543 C 0.51324 0.66212 0.39809 0.0
C544 C 0.51152 0.69551 0.42756 0.0
C545 C 0.47339 0.72711 0.38158 0.0
H546 H 0.47763 0.7597 0.47336 0.0
C547 C 0.4451 0.80938 0.38295 0.0
C548 C 0.45907 0.82344 0.39792 0.0
C549 C 0.44754 0.78859 0.38986 0.0
C550 C 0.47633 0.75075 0.44757 0.0
H551 H 0.48578 0.65242 0.36905 0.0
H552 H 0.46716 0.68413 0.38109 0.0
H553 H 0.48949 0.72429 0.47371 0.0
H554 H 0.48564 0.82742 0.43355 0.0
H555 H 0.49047 0.79088 0.44487 0.0
H556 H 0.46119 0.75361 0.35478 0.0
C557 C 0.48249 0.68245 0.39229 0.0
C558 C 0.48306 0.73052 0.44781 0.0
C559 C 0.49312 0.66443 0.38516 0.0
C560 C 0.47486 0.81665 0.42158 0.0
C561 C 0.47746 0.79582 0.42824 0.0
C562 C 0.46674 0.74728 0.38129 0.0
C563 C 0.49181 0.69839 0.41261 0.0
C564 C 0.48206 0.71869 0.41454 0.0
C565 C 0.46408 0.78155 0.4117 0.0
C566 C 0.46856 0.75946 0.41401 0.0
H567 H 0.53757 0.67576 0.43094 0.0
H568 H 0.51915 0.70759 0.44304 0.0
H569 H 0.47275 0.71849 0.35531 0.0
H570 H 0.43245 0.81451 0.36559 0.0
H571 H 0.43673 0.778 0.37744 0.0
C572 C 0.07815 0.74752 0.6416 0.0
C573 C 0.08081 0.76774 0.6536 0.0
C574 C 0.05984 0.73741 0.6487 0.0
C575 C 0.01114 0.73968 0.7021 0.0
H576 H 0.98921 0.71606 0.60957 0.0
C577 C 0.92521 0.72853 0.67372 0.0
C578 C 0.91926 0.71208 0.65085 0.0
C579 C 0.94588 0.73204 0.68088 0.0
C580 C 0.9952 0.72213 0.63596 0.0
H581 H 0.0675 0.79286 0.68476 0.0
H582 H 0.03503 0.77537 0.69669 0.0
H583 H 0.02421 0.72794 0.61066 0.0
H584 H 0.92948 0.68526 0.62054 0.0
H585 H 0.96569 0.69108 0.63336 0.0
H586 H 0.98173 0.73434 0.72695 0.0
C587 C 0.0471 0.76724 0.68203 0.0
C588 C 0.0153 0.72897 0.63657 0.0
C589 C 0.06552 0.7773 0.67505 0.0
C590 C 0.93397 0.69839 0.63727 0.0
C591 C 0.95458 0.70171 0.64472 0.0
C592 C 0.99096 0.73275 0.70154 0.0
C593 C 0.0439 0.74741 0.6679 0.0
C594 C 0.02337 0.73812 0.66939 0.0
C595 C 0.9608 0.71891 0.66562 0.0
C596 C 0.98271 0.72422 0.66821 0.0
H597 H 0.09014 0.73971 0.62617 0.0
H598 H 0.05793 0.72198 0.63823 0.0
H599 H 0.01707 0.74653 0.72787 0.0
H600 H 0.91392 0.73911 0.68459 0.0
H601 H 0.95019 0.74551 0.6968 0.0
C602 C 0.00157 0.32969 0.88669 0.0
C603 C 0.98146 0.33244 0.89939 0.0
C604 C 0.01178 0.31144 0.89396 0.0
C605 C 0.0097 0.26327 0.94933 0.0
H606 H 0.03228 0.24001 0.85701 0.0
C607 C 0.01682 0.17702 0.92205 0.0
C608 C 0.03292 0.17015 0.89918 0.0
C609 C 0.01441 0.19786 0.92902 0.0
C610 C 0.0265 0.24638 0.88334 0.0
H611 H 0.95669 0.31931 0.93186 0.0
H612 H 0.97432 0.28708 0.94409 0.0
H613 H 0.02134 0.27532 0.85737 0.0
H614 H 0.06025 0.17888 0.86874 0.0
H615 H 0.05629 0.21537 0.88107 0.0
H616 H 0.01423 0.23391 0.97479 0.0
C617 C 0.98231 0.299 0.92876 0.0
C618 C 0.02023 0.26666 0.88353 0.0
C619 C 0.97215 0.3173 0.92158 0.0
C620 C 0.04737 0.18409 0.88543 0.0
C621 C 0.04511 0.20486 0.89263 0.0
C622 C 0.01603 0.24291 0.94916 0.0
C623 C 0.00202 0.29569 0.91412 0.0
C624 C 0.01133 0.27518 0.91622 0.0
C625 C 0.02828 0.21202 0.91355 0.0
C626 C 0.02406 0.23416 0.91587 0.0
H627 H 0.00923 0.34154 0.87068 0.0
H628 H 0.02712 0.30944 0.883 0.0
H629 H 0.00309 0.26956 0.97505 0.0
H630 H 0.00568 0.16634 0.93309 0.0
H631 H 0.00119 0.20291 0.94496 0.0
C632 C 0.55926 0.80139 0.88103 0.0
C633 C 0.57335 0.78751 0.86583 0.0
C634 C 0.53846 0.79897 0.87411 0.0
C635 C 0.50057 0.77021 0.81633 0.0
H636 H 0.46866 0.77292 0.90916 0.0
C637 C 0.42812 0.72313 0.84383 0.0
C638 C 0.41277 0.73159 0.8667 0.0
C639 C 0.44597 0.73408 0.83661 0.0
C640 C 0.47718 0.77252 0.88274 0.0
H641 H 0.57733 0.76114 0.8297 0.0
H642 H 0.54079 0.75633 0.81833 0.0
H643 H 0.50363 0.78497 0.90931 0.0
H644 H 0.40275 0.75869 0.89654 0.0
H645 H 0.43408 0.77791 0.88428 0.0
H646 H 0.47417 0.75678 0.7904 0.0
C647 C 0.54571 0.76928 0.83516 0.0
C648 C 0.49726 0.77945 0.8828 0.0
C649 C 0.56655 0.77186 0.84184 0.0
C650 C 0.41481 0.75165 0.88004 0.0
C651 C 0.43261 0.76264 0.87278 0.0
C652 C 0.48043 0.76319 0.81631 0.0
C653 C 0.53142 0.78253 0.85201 0.0
C654 C 0.50933 0.77792 0.84988 0.0
C655 C 0.4486 0.75373 0.85192 0.0
C656 C 0.46873 0.76385 0.84979 0.0
H657 H 0.56439 0.81394 0.89865 0.0
H658 H 0.52784 0.80968 0.88679 0.0
H659 H 0.50944 0.76912 0.79039 0.0
H660 H 0.42663 0.70772 0.83301 0.0
H661 H 0.45811 0.72675 0.82072 0.0
C662 C 0.44771 0.30972 0.63296 0.0
C663 C 0.46163 0.32394 0.61837 0.0
C664 C 0.45037 0.28898 0.62593 0.0
C665 C 0.47966 0.25149 0.56836 0.0
H666 H 0.47573 0.21896 0.66024 0.0
C667 C 0.52454 0.17738 0.59464 0.0
C668 C 0.51538 0.16217 0.61686 0.0
C669 C 0.51426 0.19567 0.58775 0.0
C670 C 0.47648 0.22767 0.63407 0.0
H671 H 0.48836 0.32825 0.58324 0.0
H672 H 0.49359 0.29177 0.57171 0.0
H673 H 0.46425 0.2541 0.66104 0.0
H674 H 0.48776 0.15286 0.64581 0.0
H675 H 0.46968 0.18489 0.63404 0.0
H676 H 0.4928 0.22506 0.54202 0.0
C677 C 0.48045 0.29656 0.58815 0.0
C678 C 0.46988 0.24784 0.63452 0.0
C679 C 0.47762 0.31735 0.59494 0.0
C680 C 0.49531 0.16479 0.62982 0.0
C681 C 0.48499 0.183 0.62285 0.0
C682 C 0.48634 0.23124 0.56795 0.0
C683 C 0.46711 0.28214 0.60434 0.0
C684 C 0.47177 0.26009 0.60192 0.0
C685 C 0.4946 0.19884 0.60273 0.0
C686 C 0.48517 0.21929 0.60106 0.0
H687 H 0.4349 0.31469 0.65013 0.0
H688 H 0.43959 0.27826 0.63807 0.0
H689 H 0.48105 0.26051 0.54268 0.0
H690 H 0.53998 0.17545 0.58415 0.0
H691 H 0.52212 0.20767 0.5724 0.0
C692 C 0.93364 0.19941 0.37745 0.0
C693 C 0.91903 0.21336 0.36442 0.0
C694 C 0.95429 0.20269 0.37018 0.0
C695 C 0.99095 0.23414 0.31485 0.0
H696 H 0.02382 0.22851 0.406 0.0
C697 C 0.06551 0.27831 0.3431 0.0
C698 C 0.08072 0.26859 0.36446 0.0
C699 C 0.04707 0.26835 0.33585 0.0
C700 C 0.01502 0.22977 0.38001 0.0
H701 H 0.91389 0.24079 0.33172 0.0
H702 H 0.95023 0.24709 0.3198 0.0
H703 H 0.98881 0.21665 0.40626 0.0
H704 H 0.08988 0.24041 0.39152 0.0
H705 H 0.05765 0.22285 0.37897 0.0
H706 H 0.01719 0.24809 0.28925 0.0
C707 C 0.94581 0.23346 0.33518 0.0
C708 C 0.99492 0.22295 0.38014 0.0
C709 C 0.92511 0.23001 0.34218 0.0
C710 C 0.07796 0.24835 0.37618 0.0
C711 C 0.05963 0.23833 0.36879 0.0
C712 C 0.01114 0.24104 0.31475 0.0
C713 C 0.96063 0.22009 0.34999 0.0
C714 C 0.98256 0.22534 0.34781 0.0
C715 C 0.04377 0.24846 0.34959 0.0
C716 C 0.02324 0.23919 0.34757 0.0
H717 H 0.92906 0.18614 0.39368 0.0
H718 H 0.96532 0.19188 0.38119 0.0
H719 H 0.98182 0.23597 0.28939 0.0
H720 H 0.06757 0.29389 0.3336 0.0
H721 H 0.03508 0.27658 0.32121 0.0
C722 C 0.02005 0.67713 0.09404 0.0
C723 C 0.03586 0.67032 0.11764 0.0
C724 C 0.01751 0.69797 0.0873 0.0
C725 C 0.02847 0.74644 0.13425 0.0
H726 H 0.00609 0.76973 0.04179 0.0
C727 C 0.00311 0.82959 0.13062 0.0
C728 C 0.98311 0.83222 0.11731 0.0
C729 C 0.01352 0.81143 0.12353 0.0
C730 C 0.01241 0.76341 0.06772 0.0
H731 H 0.0626 0.6792 0.14968 0.0
H732 H 0.05843 0.7157 0.13772 0.0
H733 H 0.01754 0.73418 0.04213 0.0
H734 H 0.95875 0.81902 0.08392 0.0
H735 H 0.97673 0.78693 0.07196 0.0
H736 H 0.02275 0.77526 0.16029 0.0
C737 C 0.04756 0.70513 0.12542 0.0
C738 C 0.01891 0.74311 0.06794 0.0
C739 C 0.04992 0.68435 0.1324 0.0
C740 C 0.97413 0.81708 0.09468 0.0
C741 C 0.98448 0.79887 0.08765 0.0
C742 C 0.02204 0.76667 0.134 0.0
C743 C 0.03098 0.71221 0.10372 0.0
C744 C 0.02658 0.73431 0.10148 0.0
C745 C 0.00406 0.79566 0.10292 0.0
C746 C 0.01352 0.77522 0.10101 0.0
H747 H 0.00921 0.66637 0.08223 0.0
H748 H 0.00449 0.70295 0.07075 0.0
H749 H 0.03394 0.74004 0.16076 0.0
H750 H 0.01054 0.84145 0.14697 0.0
H751 H 0.02876 0.8095 0.13498 0.0
C752 C 0.10892 0.09034 0.89771 0.0
C753 C 0.10798 0.08187 0.86106 0.0
C754 C 0.12767 0.09538 0.91389 0.0
C755 C 0.18396 0.09161 0.90447 0.0
H756 H 0.18191 0.14731 0.94187 0.0
C757 C 0.25358 0.13434 0.96992 0.0
C758 C 0.25629 0.15454 0.95751 0.0
C759 C 0.23593 0.12352 0.96015 0.0
C760 C 0.18275 0.13176 0.93148 0.0
H761 H 0.12593 0.07038 0.81388 0.0
H762 H 0.15888 0.07954 0.842 0.0
H763 H 0.15055 0.13037 0.92279 0.0
H764 H 0.24325 0.17907 0.92437 0.0
H765 H 0.21231 0.16029 0.90732 0.0
H766 H 0.21642 0.0934 0.91239 0.0
C767 C 0.14509 0.08214 0.85832 0.0
C768 C 0.16475 0.12194 0.921 0.0
C769 C 0.12624 0.0769 0.8422 0.0
C770 C 0.24132 0.1636 0.93457 0.0
C771 C 0.22364 0.15288 0.92503 0.0
C772 C 0.20205 0.10145 0.91524 0.0
C773 C 0.14589 0.09227 0.8936 0.0
C774 C 0.16513 0.10181 0.90712 0.0
C775 C 0.2207 0.13277 0.93789 0.0
C776 C 0.20161 0.12173 0.92836 0.0
H777 H 0.09508 0.09406 0.91315 0.0
H778 H 0.12784 0.10268 0.94154 0.0
H779 H 0.18471 0.07609 0.89394 0.0
H780 H 0.26523 0.12685 0.98672 0.0
H781 H 0.23406 0.10804 0.97042 0.0
C782 C 0.65902 0.35931 0.14678 0.0
C783 C 0.66606 0.35806 0.10912 0.0
C784 C 0.6541 0.37814 0.16274 0.0
C785 C 0.65554 0.43429 0.15047 0.0
H786 H 0.60088 0.43083 0.19277 0.0
C787 C 0.58236 0.48952 0.18358 0.0
C788 C 0.59125 0.50494 0.20571 0.0
C789 C 0.59351 0.47213 0.17394 0.0
C790 C 0.61614 0.43205 0.18105 0.0
H791 H 0.6753 0.37559 0.05976 0.0
H792 H 0.66636 0.40869 0.08757 0.0
H793 H 0.61848 0.39982 0.17368 0.0
H794 H 0.61902 0.51497 0.23338 0.0
H795 H 0.63866 0.48435 0.21672 0.0
H796 H 0.65278 0.46675 0.15719 0.0
C797 C 0.66478 0.39508 0.10481 0.0
C798 C 0.62634 0.41428 0.17053 0.0
C799 C 0.6699 0.37615 0.08888 0.0
C800 C 0.6117 0.50298 0.21718 0.0
C801 C 0.62298 0.48564 0.20723 0.0
C802 C 0.64533 0.45216 0.16135 0.0
C803 C 0.65592 0.39611 0.14124 0.0
C804 C 0.64609 0.41517 0.15485 0.0
C805 C 0.61391 0.46997 0.18581 0.0
C806 C 0.62541 0.45118 0.17623 0.0
H807 H 0.65621 0.34561 0.16324 0.0
H808 H 0.64779 0.37852 0.19123 0.0
H809 H 0.67074 0.43542 0.13848 0.0
H810 H 0.56667 0.49088 0.17413 0.0
H811 H 0.58623 0.46042 0.15693 0.0
C812 C 0.36781 0.92069 0.33692 0.0
C813 C 0.38501 0.91369 0.35693 0.0
C814 C 0.34814 0.91663 0.3506 0.0
C815 C 0.31236 0.88853 0.36884 0.0
H816 H 0.29698 0.88766 0.4754 0.0
C817 C 0.25186 0.8335 0.42784 0.0
C818 C 0.23791 0.84097 0.45476 0.0
C819 C 0.26835 0.84545 0.41604 0.0
C820 C 0.30094 0.88802 0.44549 0.0
H821 H 0.3952 0.89856 0.40842 0.0
H822 H 0.36104 0.89164 0.43228 0.0
H823 H 0.32815 0.90535 0.45581 0.0
H824 H 0.22957 0.86731 0.48869 0.0
H825 H 0.25878 0.88801 0.46901 0.0
H826 H 0.28547 0.87078 0.3586 0.0
C827 C 0.36263 0.90017 0.40605 0.0
C828 C 0.31882 0.89805 0.43431 0.0
C829 C 0.38223 0.90403 0.39225 0.0
C830 C 0.24056 0.8608 0.46919 0.0
C831 C 0.25715 0.87273 0.4576 0.0
C832 C 0.29458 0.8784 0.38004 0.0
C833 C 0.34538 0.90574 0.38471 0.0
C834 C 0.32493 0.89804 0.39596 0.0
C835 C 0.27119 0.86519 0.43082 0.0
C836 C 0.28893 0.87765 0.41857 0.0
H837 H 0.36949 0.92819 0.30963 0.0
H838 H 0.33509 0.9213 0.33377 0.0
H839 H 0.31676 0.88805 0.33914 0.0
H840 H 0.25004 0.81833 0.41609 0.0
H841 H 0.27904 0.83912 0.39569 0.0
C842 C 0.84125 0.63313 0.64321 0.0
C843 C 0.83032 0.63563 0.60914 0.0
C844 C 0.84468 0.61373 0.65812 0.0
C845 C 0.85055 0.56126 0.62483 0.0
H846 H 0.85822 0.55047 0.73238 0.0
C847 C 0.88549 0.4858 0.68005 0.0
C848 C 0.90095 0.48817 0.70733 0.0
C849 C 0.87305 0.50229 0.67006 0.0
C850 C 0.85614 0.55327 0.70225 0.0
H851 H 0.81311 0.61985 0.56542 0.0
H852 H 0.81896 0.58576 0.59179 0.0
H853 H 0.84133 0.58189 0.71226 0.0
H854 H 0.91631 0.50965 0.74419 0.0
H855 H 0.89438 0.53852 0.72737 0.0
H856 H 0.86581 0.53286 0.61484 0.0
C857 C 0.82514 0.59888 0.60661 0.0
C858 C 0.84645 0.57123 0.69072 0.0
C859 C 0.82165 0.61839 0.59167 0.0
C860 C 0.90396 0.50733 0.72419 0.0
C861 C 0.89146 0.5238 0.71443 0.0
C862 C 0.86014 0.54324 0.63639 0.0
C863 C 0.83725 0.59631 0.63936 0.0
C864 C 0.84409 0.57573 0.65184 0.0
C865 C 0.87591 0.52147 0.68714 0.0
C866 C 0.86354 0.53933 0.67518 0.0
H867 H 0.84803 0.64612 0.65751 0.0
H868 H 0.85422 0.61237 0.68315 0.0
H869 H 0.84926 0.56433 0.59466 0.0
H870 H 0.88307 0.47114 0.66654 0.0
H871 H 0.86118 0.50003 0.64901 0.0
C872 C 0.75503 0.82679 0.08225 0.0
C873 C 0.73997 0.83599 0.05969 0.0
C874 C 0.7726 0.83758 0.09233 0.0
C875 C 0.8133 0.85916 0.08743 0.0
H876 H 0.8108 0.9151 0.12348 0.0
C877 C 0.88674 0.90192 0.11921 0.0
C878 C 0.88763 0.9112 0.15518 0.0
C879 C 0.86804 0.8962 0.10362 0.0
C880 C 0.81171 0.89949 0.11343 0.0
H881 H 0.73073 0.86401 0.03195 0.0
H882 H 0.7617 0.88286 0.04888 0.0
H883 H 0.77928 0.89735 0.10564 0.0
H884 H 0.8696 0.92331 0.20171 0.0
H885 H 0.83675 0.91295 0.17468 0.0
H886 H 0.84549 0.86092 0.09607 0.0
C887 C 0.76001 0.86725 0.05851 0.0
C888 C 0.79371 0.88939 0.10298 0.0
C889 C 0.74246 0.85639 0.04831 0.0
C890 C 0.86934 0.91618 0.17391 0.0
C891 C 0.85054 0.91026 0.1584 0.0
C892 C 0.83121 0.86923 0.09769 0.0
C893 C 0.77535 0.85788 0.08035 0.0
C894 C 0.79433 0.86904 0.09024 0.0
C895 C 0.84981 0.89942 0.12385 0.0
C896 C 0.83065 0.88947 0.11097 0.0
H897 H 0.75325 0.81116 0.09173 0.0
H898 H 0.78398 0.83006 0.10975 0.0
H899 H 0.81431 0.84357 0.0773 0.0
H900 H 0.90061 0.89817 0.10388 0.0
H901 H 0.86793 0.88838 0.07646 0.0
C902 C 0.34439 0.6331 0.87389 0.0
C903 C 0.33302 0.63553 0.90751 0.0
C904 C 0.34802 0.61372 0.85903 0.0
C905 C 0.35364 0.56123 0.89195 0.0
H906 H 0.36144 0.55046 0.78442 0.0
C907 C 0.38836 0.48567 0.83694 0.0
C908 C 0.40371 0.48791 0.8094 0.0
C909 C 0.37602 0.50222 0.84697 0.0
C910 C 0.35934 0.55326 0.81454 0.0
H911 H 0.3154 0.61964 0.95053 0.0
H912 H 0.32167 0.58561 0.92429 0.0
H913 H 0.34468 0.58196 0.80453 0.0
H914 H 0.41898 0.50919 0.77201 0.0
H915 H 0.3973 0.53822 0.78905 0.0
H916 H 0.36878 0.53279 0.90199 0.0
C917 C 0.32798 0.59876 0.90978 0.0
C918 C 0.34971 0.57126 0.82606 0.0
C919 C 0.32426 0.61824 0.92464 0.0
C920 C 0.40674 0.507 0.79232 0.0
C921 C 0.39437 0.52355 0.80217 0.0
C922 C 0.36318 0.54319 0.88042 0.0
C923 C 0.3404 0.59627 0.87741 0.0
C924 C 0.34728 0.57572 0.86494 0.0
C925 C 0.37891 0.52136 0.8297 0.0
C926 C 0.36663 0.53928 0.84164 0.0
H927 H 0.35125 0.64613 0.85986 0.0
H928 H 0.35782 0.6124 0.83431 0.0
H929 H 0.35227 0.56429 0.92212 0.0
H930 H 0.38591 0.47104 0.85056 0.0
H931 H 0.36422 0.50005 0.86818 0.0
C932 C 0.62696 0.07268 0.67463 0.0
C933 C 0.60962 0.08146 0.6577 0.0
C934 C 0.64644 0.07653 0.65977 0.0
C935 C 0.67378 0.09883 0.57632 0.0
H936 H 0.71238 0.11749 0.65239 0.0
C937 C 0.73779 0.15627 0.54344 0.0
C938 C 0.757 0.15302 0.55991 0.0
C939 C 0.72126 0.14386 0.5533 0.0
C940 C 0.70194 0.11202 0.63078 0.0
H941 H 0.59892 0.09985 0.61038 0.0
H942 H 0.63262 0.10665 0.58486 0.0
H943 H 0.68094 0.10075 0.67238 0.0
H944 H 0.77411 0.13485 0.60013 0.0
H945 H 0.74512 0.11311 0.61782 0.0
H946 H 0.69444 0.11093 0.53481 0.0
C947 C 0.63136 0.09674 0.60941 0.0
C948 C 0.68394 0.10234 0.64222 0.0
C949 C 0.61199 0.09297 0.62426 0.0
C950 C 0.75938 0.13746 0.58696 0.0
C951 C 0.74285 0.1251 0.59702 0.0
C952 C 0.69172 0.10861 0.5649 0.0
C953 C 0.64887 0.08911 0.62761 0.0
C954 C 0.6694 0.09612 0.61517 0.0
C955 C 0.7236 0.12816 0.58025 0.0
C956 C 0.70574 0.11575 0.59206 0.0
H957 H 0.62561 0.06371 0.70039 0.0
H958 H 0.65963 0.07021 0.67415 0.0
H959 H 0.66305 0.0939 0.55474 0.0
H960 H 0.73549 0.16868 0.52357 0.0
H961 H 0.7065 0.14693 0.5406 0.0
C962 C 0.17208 0.37703 0.42792 0.0
C963 C 0.16397 0.35984 0.40941 0.0
C964 C 0.16847 0.39664 0.41349 0.0
C965 C 0.14801 0.42469 0.3291 0.0
H966 H 0.12666 0.46202 0.40493 0.0
C967 C 0.08961 0.4875 0.29419 0.0
C968 C 0.09214 0.50667 0.31126 0.0
C969 C 0.10222 0.4712 0.30444 0.0
C970 C 0.13288 0.45193 0.38343 0.0
H971 H 0.14716 0.34955 0.3598 0.0
H972 H 0.14077 0.38343 0.33501 0.0
H973 H 0.14357 0.43073 0.42515 0.0
H974 H 0.10923 0.52388 0.35297 0.0
H975 H 0.13125 0.49527 0.37142 0.0
H976 H 0.13641 0.44551 0.2874 0.0
C977 C 0.14996 0.38199 0.36048 0.0
C978 C 0.14268 0.43402 0.39501 0.0
C979 C 0.15349 0.3625 0.3749 0.0
C980 C 0.10717 0.5092 0.33932 0.0
C981 C 0.11971 0.49288 0.34981 0.0
C982 C 0.1381 0.44252 0.31754 0.0
C983 C 0.15683 0.39934 0.38019 0.0
C984 C 0.14985 0.41991 0.36797 0.0
C985 C 0.11738 0.47371 0.33242 0.0
C986 C 0.12997 0.45606 0.34459 0.0
H987 H 0.18026 0.37544 0.45454 0.0
H988 H 0.1742 0.40971 0.42906 0.0
H989 H 0.15369 0.41432 0.30755 0.0
H990 H 0.07759 0.48504 0.27357 0.0
H991 H 0.09973 0.45646 0.29123 0.0
C992 C 0.62617 0.57324 0.34163 0.0
C993 C 0.60882 0.58234 0.35796 0.0
C994 C 0.64561 0.57716 0.35655 0.0
C995 C 0.67278 0.6001 0.43945 0.0
H996 H 0.71187 0.61764 0.36327 0.0
C997 C 0.73749 0.65684 0.47169 0.0
C998 C 0.75668 0.6533 0.4553 0.0
C999 C 0.72082 0.6446 0.46195 0.0
C1000 C 0.70129 0.61248 0.38493 0.0
H1001 H 0.59806 0.60143 0.40427 0.0
H1002 H 0.63171 0.60833 0.42992 0.0
H1003 H 0.68033 0.60107 0.34344 0.0
H1004 H 0.77362 0.63476 0.4154 0.0
H1005 H 0.7444 0.61328 0.39797 0.0
H1006 H 0.69345 0.61229 0.48083 0.0
C1007 C 0.63047 0.59812 0.4058 0.0
C1008 C 0.68323 0.6029 0.37357 0.0
C1009 C 0.61114 0.59429 0.39087 0.0
C1010 C 0.75891 0.6376 0.42848 0.0
C1011 C 0.74224 0.62539 0.41856 0.0
C1012 C 0.69081 0.60975 0.45079 0.0
C1013 C 0.64799 0.59011 0.38818 0.0
C1014 C 0.66853 0.59708 0.40065 0.0
C1015 C 0.72301 0.62876 0.43523 0.0
C1016 C 0.70501 0.61649 0.42358 0.0
H1017 H 0.62485 0.56392 0.31629 0.0
H1018 H 0.65882 0.57055 0.34264 0.0
H1019 H 0.66192 0.59548 0.46105 0.0
H1020 H 0.73533 0.66935 0.49141 0.0
H1021 H 0.70609 0.6479 0.47457 0.0
C1022 C 0.08994 0.98813 0.72371 0.0
C1023 C 0.09276 0.00723 0.70654 0.0
C1024 C 0.10242 0.97166 0.71376 0.0
C1025 C 0.13327 0.95201 0.6352 0.0
H1026 H 0.15294 0.91394 0.71129 0.0
C1027 C 0.17206 0.87683 0.5911 0.0
C1028 C 0.16364 0.85964 0.60916 0.0
C1029 C 0.16848 0.89642 0.60563 0.0
C1030 C 0.14758 0.92443 0.68968 0.0
H1031 H 0.11023 0.02417 0.66499 0.0
H1032 H 0.13205 0.99529 0.64711 0.0
H1033 H 0.13598 0.94534 0.73126 0.0
H1034 H 0.14627 0.84934 0.65812 0.0
H1035 H 0.13994 0.88322 0.68309 0.0
H1036 H 0.14399 0.93075 0.59358 0.0
C1037 C 0.12037 0.99307 0.66855 0.0
C1038 C 0.13784 0.94239 0.70114 0.0
C1039 C 0.10796 0.00955 0.67873 0.0
C1040 C 0.15286 0.86229 0.64337 0.0
C1041 C 0.14936 0.88176 0.6579 0.0
C1042 C 0.1429 0.93399 0.62373 0.0
C1043 C 0.11773 0.97394 0.68599 0.0
C1044 C 0.13013 0.95611 0.674 0.0
C1045 C 0.15655 0.89911 0.6386 0.0
C1046 C 0.14967 0.91972 0.65083 0.0
H1047 H 0.07779 0.98585 0.74417 0.0
H1048 H 0.09968 0.95699 0.727 0.0
H1049 H 0.12736 0.96222 0.61361 0.0
H1050 H 0.18048 0.87526 0.56472 0.0
H1051 H 0.17447 0.90948 0.5904 0.0
C1052 C 0.7371 0.35517 0.92818 0.0
C1053 C 0.7394 0.33971 0.95545 0.0
C1054 C 0.75363 0.36759 0.91834 0.0
C1055 C 0.80457 0.38431 0.95136 0.0
H1056 H 0.81554 0.3926 0.84406 0.0
C1057 C 0.88429 0.40064 0.89237 0.0
C1058 C 0.88657 0.4124 0.85922 0.0
C1059 C 0.86495 0.39667 0.90718 0.0
C1060 C 0.81248 0.39089 0.87418 0.0
H1061 H 0.76074 0.32431 0.99251 0.0
H1062 H 0.78975 0.3461 0.97575 0.0
H1063 H 0.78418 0.37558 0.86359 0.0
H1064 H 0.87047 0.43039 0.81703 0.0
H1065 H 0.8365 0.42352 0.84317 0.0
H1066 H 0.83314 0.39914 0.9619 0.0
C1067 C 0.77505 0.34906 0.9627 0.0
C1068 C 0.79453 0.38104 0.88536 0.0
C1069 C 0.75852 0.33661 0.97237 0.0
C1070 C 0.86918 0.42123 0.84257 0.0
C1071 C 0.84974 0.41717 0.85736 0.0
C1072 C 0.82249 0.39422 0.94019 0.0
C1073 C 0.77279 0.36467 0.93554 0.0
C1074 C 0.79065 0.37717 0.92401 0.0
C1075 C 0.8474 0.40434 0.88919 0.0
C1076 C 0.82692 0.39712 0.90142 0.0
H1077 H 0.72244 0.35768 0.91471 0.0
H1078 H 0.7514 0.37951 0.89741 0.0
H1079 H 0.80179 0.38189 0.98141 0.0
H1080 H 0.89741 0.39371 0.90602 0.0
H1081 H 0.86374 0.38658 0.93148 0.0
C1082 C 0.40724 0.00718 0.22362 0.0
C1083 C 0.40407 0.98809 0.20667 0.0
C1084 C 0.39484 0.02375 0.214 0.0
C1085 C 0.36301 0.04331 0.13658 0.0
H1086 H 0.3454 0.08229 0.21288 0.0
C1087 C 0.32413 0.11852 0.09335 0.0
C1088 C 0.33337 0.13574 0.10983 0.0
C1089 C 0.32777 0.09904 0.10828 0.0
C1090 C 0.35017 0.07152 0.19124 0.0
H1091 H 0.386 0.9712 0.16599 0.0
H1092 H 0.36423 0.00022 0.14879 0.0
H1093 H 0.36221 0.05075 0.23258 0.0
H1094 H 0.35234 0.14628 0.15649 0.0
H1095 H 0.35874 0.11255 0.18221 0.0
H1096 H 0.35176 0.06439 0.09515 0.0
C1097 C 0.37618 0.0024 0.1697 0.0
C1098 C 0.35983 0.05351 0.20252 0.0
C1099 C 0.38856 0.98584 0.17947 0.0
C1100 C 0.34511 0.13329 0.14296 0.0
C1101 C 0.34865 0.11392 0.15792 0.0
C1102 C 0.35341 0.06136 0.12528 0.0
C1103 C 0.3792 0.02154 0.18687 0.0
C1104 C 0.36682 0.03946 0.17526 0.0
C1105 C 0.34057 0.09651 0.1401 0.0
C1106 C 0.34738 0.07593 0.15244 0.0
H1107 H 0.41959 0.00936 0.2437 0.0
H1108 H 0.39787 0.03842 0.22703 0.0
H1109 H 0.36836 0.03287 0.11487 0.0
H1110 H 0.31497 0.11995 0.06784 0.0
H1111 H 0.32113 0.08592 0.09421 0.0
C1112 C 0.23637 0.35609 0.58894 0.0
C1113 C 0.23855 0.34102 0.56087 0.0
C1114 C 0.25294 0.36836 0.59919 0.0
C1115 C 0.30365 0.38574 0.56623 0.0
H1116 H 0.3153 0.39222 0.67369 0.0
C1117 C 0.3837 0.40194 0.62378 0.0
C1118 C 0.38617 0.4129 0.65784 0.0
C1119 C 0.36427 0.39807 0.60931 0.0
C1120 C 0.31206 0.39102 0.64357 0.0
H1121 H 0.25981 0.3261 0.52291 0.0
H1122 H 0.28885 0.34771 0.54024 0.0
H1123 H 0.28389 0.37536 0.65389 0.0
H1124 H 0.37026 0.42963 0.70204 0.0
H1125 H 0.33612 0.423 0.67645 0.0
H1126 H 0.33203 0.40098 0.55588 0.0
C1127 C 0.2742 0.35047 0.55362 0.0
C1128 C 0.29408 0.38126 0.63222 0.0
C1129 C 0.25763 0.33815 0.54358 0.0
C1130 C 0.36883 0.4211 0.67578 0.0
C1131 C 0.34929 0.41715 0.6613 0.0
C1132 C 0.32157 0.39559 0.57755 0.0
C1133 C 0.27204 0.36569 0.58159 0.0
C1134 C 0.28995 0.37805 0.59345 0.0
C1135 C 0.34679 0.40506 0.62852 0.0
C1136 C 0.32627 0.39784 0.61637 0.0
H1137 H 0.22176 0.3584 0.60276 0.0
H1138 H 0.2508 0.37997 0.62076 0.0
H1139 H 0.30068 0.38382 0.53612 0.0
H1140 H 0.39676 0.3955 0.60914 0.0
H1141 H 0.36297 0.38854 0.58425 0.0
C1142 C 0.82555 0.11898 0.42301 0.0
C1143 C 0.83018 0.13719 0.40375 0.0
C1144 C 0.83067 0.10011 0.40684 0.0
C1145 C 0.86997 0.08061 0.34295 0.0
H1146 H 0.84222 0.02865 0.35371 0.0
C1147 C 0.91263 0.00458 0.33082 0.0
C1148 C 0.90372 0.98932 0.30835 0.0
C1149 C 0.90169 0.02217 0.34002 0.0
C1150 C 0.85004 0.0431 0.35025 0.0
H1151 H 0.84158 0.14997 0.35095 0.0
H1152 H 0.85 0.11717 0.32249 0.0
H1153 H 0.82463 0.06025 0.372 0.0
H1154 H 0.87608 0.97979 0.2796 0.0
H1155 H 0.85684 0.01078 0.29542 0.0
H1156 H 0.89542 0.06364 0.32173 0.0
C1157 C 0.84305 0.1174 0.35047 0.0
C1158 C 0.84004 0.06113 0.36091 0.0
C1159 C 0.83813 0.13617 0.36668 0.0
C1160 C 0.88344 0.99165 0.29608 0.0
C1161 C 0.87238 0.00921 0.30555 0.0
C1162 C 0.87996 0.06268 0.33259 0.0
C1163 C 0.84035 0.09924 0.37112 0.0
C1164 C 0.84998 0.08007 0.35753 0.0
C1165 C 0.88149 0.02473 0.32732 0.0
C1166 C 0.87022 0.04372 0.33651 0.0
H1167 H 0.81944 0.11935 0.45165 0.0
H1168 H 0.8284 0.08637 0.42345 0.0
H1169 H 0.87821 0.0949 0.34056 0.0
H1170 H 0.92818 0.00295 0.3409 0.0
H1171 H 0.90899 0.03373 0.35735 0.0
C1172 C 0.1273 0.57174 0.17566 0.0
C1173 C 0.11011 0.58049 0.15814 0.0
C1174 C 0.14686 0.57513 0.16078 0.0
C1175 C 0.1747 0.59613 0.07667 0.0
H1176 H 0.21302 0.61565 0.15247 0.0
C1177 C 0.23863 0.65347 0.04275 0.0
C1178 C 0.25778 0.65055 0.05971 0.0
C1179 C 0.22216 0.64099 0.05262 0.0
C1180 C 0.20267 0.60992 0.13095 0.0
H1181 H 0.09975 0.59826 0.10977 0.0
H1182 H 0.13358 0.60428 0.0842 0.0
H1183 H 0.18148 0.59921 0.17272 0.0
H1184 H 0.27481 0.63285 0.10077 0.0
H1185 H 0.24592 0.611 0.11849 0.0
H1186 H 0.19554 0.60772 0.03496 0.0
C1187 C 0.13214 0.59474 0.10923 0.0
C1188 C 0.18461 0.60041 0.14255 0.0
C1189 C 0.1127 0.59142 0.1241 0.0
C1190 C 0.26015 0.6352 0.0872 0.0
C1191 C 0.24367 0.62277 0.09728 0.0
C1192 C 0.19271 0.60574 0.06509 0.0
C1193 C 0.14952 0.58721 0.12802 0.0
C1194 C 0.17015 0.59391 0.11556 0.0
C1195 C 0.22448 0.62555 0.0801 0.0
C1196 C 0.20662 0.6132 0.09214 0.0
H1197 H 0.12577 0.5632 0.20189 0.0
H1198 H 0.15994 0.56889 0.17562 0.0
H1199 H 0.16404 0.59098 0.05515 0.0
H1200 H 0.23631 0.66573 0.02257 0.0
H1201 H 0.20744 0.64384 0.0396 0.0
C1202 C 0.60953 0.00879 0.83794 0.0
C1203 C 0.59446 0.00624 0.80995 0.0
C1204 C 0.62216 0.99252 0.84825 0.0
C1205 C 0.64071 0.94223 0.81586 0.0
H1206 H 0.64574 0.93019 0.92344 0.0
C1207 C 0.65535 0.86203 0.87287 0.0
C1208 C 0.66543 0.85923 0.90775 0.0
C1209 C 0.65217 0.88157 0.8584 0.0
C1210 C 0.64498 0.93355 0.89332 0.0
H1211 H 0.57997 0.98459 0.7722 0.0
H1212 H 0.60231 0.95612 0.7895 0.0
H1213 H 0.62899 0.96155 0.90325 0.0
H1214 H 0.68147 0.8746 0.95344 0.0
H1215 H 0.67607 0.90895 0.92786 0.0
H1216 H 0.65628 0.91402 0.80585 0.0
C1217 C 0.60475 0.97084 0.80278 0.0
C1218 C 0.63528 0.95151 0.88175 0.0
C1219 C 0.59203 0.98709 0.79273 0.0
C1220 C 0.67359 0.87631 0.92654 0.0
C1221 C 0.67035 0.89596 0.91205 0.0
C1222 C 0.65055 0.92435 0.82741 0.0
C1223 C 0.61991 0.97336 0.83074 0.0
C1224 C 0.63251 0.95572 0.8429 0.0
C1225 C 0.65901 0.89883 0.87843 0.0
C1226 C 0.65222 0.91948 0.86626 0.0
H1227 H 0.6115 0.02344 0.85174 0.0
H1228 H 0.63371 0.99491 0.86987 0.0
H1229 H 0.63912 0.94529 0.78572 0.0
H1230 H 0.64899 0.84917 0.85754 0.0
H1231 H 0.64322 0.88313 0.83267 0.0
C1232 C 0.37211 0.15025 0.94945 0.0
C1233 C 0.37919 0.16325 0.97841 0.0
C1234 C 0.38587 0.14006 0.9256 0.0
C1235 C 0.44066 0.12497 0.91753 0.0
H1236 H 0.42722 0.11877 0.81078 0.0
C1237 C 0.48419 0.108 0.76654 0.0
C1238 C 0.49815 0.0929 0.77803 0.0
C1239 C 0.46847 0.11432 0.7907 0.0
C1240 C 0.4313 0.12044 0.84047 0.0
H1241 H 0.40634 0.17587 1.00476 0.0
H1242 H 0.4303 0.1586 0.96259 0.0
H1243 H 0.40296 0.13511 0.85338 0.0
H1244 H 0.50582 0.07183 0.82339 0.0
H1245 H 0.47799 0.08248 0.86532 0.0
H1246 H 0.46941 0.11116 0.90422 0.0
C1247 C 0.41412 0.15583 0.95881 0.0
C1248 C 0.41723 0.12961 0.86509 0.0
C1249 C 0.40036 0.16589 0.98286 0.0
C1250 C 0.49538 0.08355 0.81366 0.0
C1251 C 0.47954 0.08982 0.83787 0.0
C1252 C 0.4548 0.11592 0.89284 0.0
C1253 C 0.40708 0.14274 0.92986 0.0
C1254 C 0.42178 0.1322 0.90392 0.0
C1255 C 0.46612 0.1056 0.82701 0.0
C1256 C 0.45041 0.11373 0.85387 0.0
H1257 H 0.3559 0.14774 0.9454 0.0
H1258 H 0.37984 0.12989 0.90409 0.0
H1259 H 0.44461 0.12635 0.94733 0.0
H1260 H 0.48572 0.11542 0.7392 0.0
H1261 H 0.45865 0.12663 0.78136 0.0
C1262 C 0.59071 0.62063 0.19392 0.0
C1263 C 0.57976 0.62746 0.22592 0.0
C1264 C 0.60002 0.63458 0.16925 0.0
C1265 C 0.61788 0.68831 0.16326 0.0
H1266 H 0.61519 0.67889 0.05449 0.0
C1267 C 0.6284 0.73656 0.0154 0.0
C1268 C 0.6461 0.74783 0.02396 0.0
C1269 C 0.62198 0.72068 0.03911 0.0
C1270 C 0.61603 0.6818 0.08477 0.0
H1271 H 0.57 0.65437 0.25696 0.0
H1272 H 0.58597 0.67867 0.2137 0.0
H1273 H 0.6002 0.65411 0.09799 0.0
H1274 H 0.6713 0.75072 0.06361 0.0
H1275 H 0.66024 0.72278 0.10475 0.0
H1276 H 0.63311 0.71633 0.15 0.0
C1277 C 0.58766 0.66252 0.20797 0.0
C1278 C 0.60762 0.66746 0.10977 0.0
C1279 C 0.57837 0.64857 0.23267 0.0
C1280 C 0.65758 0.74239 0.05619 0.0
C1281 C 0.65115 0.72647 0.07996 0.0
C1282 C 0.62629 0.70265 0.13826 0.0
C1283 C 0.59861 0.65571 0.17592 0.0
C1284 C 0.60826 0.67061 0.14935 0.0
C1285 C 0.63308 0.71561 0.07202 0.0
C1286 C 0.62531 0.69969 0.09867 0.0
H1287 H 0.59217 0.60448 0.18794 0.0
H1288 H 0.60854 0.62877 0.14515 0.0
H1289 H 0.61891 0.69111 0.19356 0.0
H1290 H 0.61912 0.74035 0.99089 0.0
H1291 H 0.60787 0.71285 0.03231 0.0
C1292 C 0.99695 0.90712 0.31877 0.0
C1293 C 0.99746 0.9018 0.28004 0.0
C1294 C 0.01236 0.9005 0.34346 0.0
C1295 C 0.06509 0.88216 0.34947 0.0
H1296 H 0.04614 0.85042 0.43559 0.0
C1297 C 0.12088 0.83436 0.4411 0.0
C1298 C 0.11646 0.83161 0.47986 0.0
C1299 C 0.10681 0.84399 0.41704 0.0
C1300 C 0.05182 0.85957 0.41224 0.0
H1301 H 0.01508 0.88635 0.23644 0.0
H1302 H 0.04232 0.87534 0.27943 0.0
H1303 H 0.02145 0.86674 0.39377 0.0
H1304 H 0.09409 0.83729 0.52405 0.0
H1305 H 0.07005 0.85488 0.4828 0.0
H1306 H 0.09544 0.87554 0.3682 0.0
C1307 C 0.02986 0.88441 0.29069 0.0
C1308 C 0.03759 0.86885 0.38815 0.0
C1309 C 0.01425 0.89067 0.26615 0.0
C1310 C 0.09784 0.83897 0.49419 0.0
C1311 C 0.08396 0.84896 0.47035 0.0
C1312 C 0.07937 0.87321 0.374 0.0
C1313 C 0.0288 0.88882 0.32974 0.0
C1314 C 0.04407 0.88009 0.35637 0.0
C1315 C 0.08813 0.85148 0.4313 0.0
C1316 C 0.07296 0.8616 0.40561 0.0
H1317 H 0.98415 0.91556 0.33037 0.0
H1318 H 0.01126 0.90419 0.37343 0.0
H1319 H 0.07047 0.89084 0.32523 0.0
H1320 H 0.13506 0.82874 0.42917 0.0
H1321 H 0.11052 0.84522 0.38712 0.0
C1322 C 0.83644 0.25069 0.56184 0.0
C1323 C 0.84724 0.24634 0.52822 0.0
C1324 C 0.84278 0.26657 0.58587 0.0
C1325 C 0.87598 0.31283 0.5892 0.0
H1326 H 0.87653 0.30244 0.69775 0.0
C1327 C 0.91683 0.34592 0.73429 0.0
C1328 C 0.91496 0.36703 0.72795 0.0
C1329 C 0.90715 0.33192 0.71023 0.0
C1330 C 0.8766 0.30555 0.66749 0.0
H1331 H 0.8729 0.25564 0.49311 0.0
H1332 H 0.88398 0.28295 0.5349 0.0
H1333 H 0.86201 0.27711 0.65476 0.0
H1334 H 0.90124 0.38995 0.69147 0.0
H1335 H 0.88413 0.36557 0.64993 0.0
H1336 H 0.89127 0.34089 0.60172 0.0
C1337 C 0.87046 0.27437 0.54263 0.0
C1338 C 0.868 0.29113 0.64285 0.0
C1339 C 0.86414 0.25858 0.51869 0.0
C1340 C 0.90311 0.37379 0.69706 0.0
C1341 C 0.89336 0.35979 0.67311 0.0
C1342 C 0.88463 0.32721 0.61381 0.0
C1343 C 0.86004 0.27845 0.57679 0.0
C1344 C 0.86778 0.29447 0.60331 0.0
C1345 C 0.89528 0.33865 0.6793 0.0
C1346 C 0.88525 0.32368 0.65327 0.0
H1347 H 0.82336 0.24158 0.57005 0.0
H1348 H 0.83423 0.26944 0.6117 0.0
H1349 H 0.87585 0.31606 0.55899 0.0
H1350 H 0.9259 0.34017 0.75772 0.0
H1351 H 0.90926 0.31577 0.71556 0.0
C1352 C 0.62224 0.83315 0.07787 0.0
C1353 C 0.61778 0.83197 0.03881 0.0
C1354 C 0.60836 0.84212 0.10314 0.0
C1355 C 0.567 0.87912 0.11027 0.0
H1356 H 0.54828 0.84711 0.19617 0.0
C1357 C 0.49765 0.90391 0.20139 0.0
C1358 C 0.49659 0.89772 0.23959 0.0
C1359 C 0.51361 0.89723 0.17798 0.0
C1360 C 0.5536 0.85654 0.17291 0.0
H1361 H 0.59551 0.83972 0.9955 0.0
H1362 H 0.57151 0.85588 0.03962 0.0
H1363 H 0.5741 0.83318 0.15365 0.0
H1364 H 0.51199 0.88059 0.28379 0.0
H1365 H 0.5404 0.86989 0.24379 0.0
H1366 H 0.54706 0.90274 0.1298 0.0
C1367 C 0.58566 0.84966 0.05062 0.0
C1368 C 0.56833 0.84842 0.14837 0.0
C1369 C 0.59934 0.84032 0.02545 0.0
C1370 C 0.51231 0.88548 0.25435 0.0
C1371 C 0.52851 0.87916 0.23119 0.0
C1372 C 0.55256 0.88744 0.13524 0.0
C1373 C 0.58996 0.85047 0.08974 0.0
C1374 C 0.57501 0.85954 0.11661 0.0
C1375 C 0.52916 0.88451 0.19238 0.0
C1376 C 0.54544 0.87618 0.16676 0.0
H1377 H 0.6363 0.82681 0.08903 0.0
H1378 H 0.61204 0.84261 0.13317 0.0
H1379 H 0.57206 0.88808 0.08613 0.0
H1380 H 0.48564 0.91317 0.18908 0.0
H1381 H 0.51326 0.90149 0.14824 0.0
C1382 C 0.41105 0.37189 0.82801 0.0
C1383 C 0.41368 0.36705 0.78935 0.0
C1384 C 0.40179 0.35796 0.8528 0.0
C1385 C 0.3662 0.31517 0.85711 0.0
H1386 H 0.39521 0.29964 0.94872 0.0
C1387 C 0.3409 0.24651 0.94965 0.0
C1388 C 0.34552 0.24659 0.98865 0.0
C1389 C 0.34766 0.26234 0.92604 0.0
C1390 C 0.38659 0.30406 0.92378 0.0
H1391 H 0.40825 0.34401 0.74621 0.0
H1392 H 0.39162 0.31989 0.78945 0.0
H1393 H 0.40982 0.32519 0.90649 0.0
H1394 H 0.35977 0.26389 0.03396 0.0
H1395 H 0.37059 0.29199 0.99343 0.0
H1396 H 0.34269 0.29453 0.87459 0.0
C1397 C 0.39691 0.33439 0.80053 0.0
C1398 C 0.39511 0.31863 0.89942 0.0
C1399 C 0.40654 0.34814 0.77588 0.0
C1400 C 0.35614 0.26332 1.00391 0.0
C1401 C 0.36254 0.27934 0.98049 0.0
C1402 C 0.35746 0.30085 0.88183 0.0
C1403 C 0.39459 0.33911 0.83928 0.0
C1404 C 0.3851 0.32419 0.86569 0.0
C1405 C 0.35891 0.27885 0.94099 0.0
C1406 C 0.36762 0.29492 0.91541 0.0
H1407 H 0.41643 0.38632 0.83925 0.0
H1408 H 0.40011 0.36199 0.88253 0.0
H1409 H 0.35808 0.31935 0.83142 0.0
H1410 H 0.33292 0.23371 0.937 0.0
H1411 H 0.34474 0.26114 0.89582 0.0
C1412 C 0.98598 0.11322 0.74573 0.0
C1413 C -0.00181 0.09613 0.7373 0.0
C1414 C 0.97001 0.11894 0.72169 0.0
C1415 C 0.9525 0.11388 0.62219 0.0
H1416 H 0.90359 0.13933 0.66244 0.0
C1417 C 0.87059 0.15098 0.56757 0.0
C1418 C 0.87763 0.16182 0.53562 0.0
C1419 C 0.88432 0.14093 0.59164 0.0
C1420 C 0.917 0.13203 0.65059 0.0
H1421 H 0.00268 0.07128 0.69743 0.0
H1422 H 0.97445 0.08107 0.6557 0.0
H1423 H 0.92837 0.12446 0.70585 0.0
H1424 H 0.9047 0.17043 0.50395 0.0
H1425 H 0.92864 0.15346 0.54629 0.0
H1426 H 0.94095 0.12115 0.56688 0.0
C1427 C 0.97751 0.09025 0.68066 0.0
C1428 C 0.93138 0.12372 0.67559 0.0
C1429 C 0.9936 0.08454 0.70474 0.0
C1430 C 0.89872 0.16223 0.52821 0.0
C1431 C 0.91247 0.15231 0.55241 0.0
C1432 C 0.93806 0.12211 0.59716 0.0
C1433 C 0.96568 0.1077 0.68857 0.0
C1434 C 0.9495 0.11484 0.66178 0.0
C1435 C 0.90548 0.14156 0.58455 0.0
C1436 C 0.92025 0.13158 0.61103 0.0
H1437 H 0.9891 0.12259 0.77045 0.0
H1438 H 0.9615 0.13264 0.72848 0.0
H1439 H 0.96633 0.10734 0.61046 0.0
H1440 H 0.85442 0.1502 0.574 0.0
H1441 H 0.87832 0.13255 0.61573 0.0
C1442 C 0.13271 0.73496 0.50122 0.0
C1443 C 0.14925 0.74763 0.4916 0.0
C1444 C 0.12693 0.71882 0.47755 0.0
C1445 C 0.12162 0.68039 0.43081 0.0
H1446 H 0.12331 0.69031 0.32218 0.0
C1447 C 0.09405 0.61989 0.32181 0.0
C1448 C 0.08327 0.62708 0.28991 0.0
C1449 C 0.10395 0.63353 0.34637 0.0
C1450 C 0.12257 0.68731 0.35244 0.0
H1451 H 0.17333 0.75259 0.45023 0.0
H1452 H 0.16358 0.72408 0.40935 0.0
H1453 H 0.13721 0.71562 0.3656 0.0
H1454 H 0.07446 0.65434 0.25907 0.0
H1455 H 0.0911 0.67804 0.30215 0.0
H1456 H 0.10607 0.65253 0.4177 0.0
C1457 C 0.15472 0.72695 0.43482 0.0
C1458 C 0.13088 0.70173 0.3774 0.0
C1459 C 0.16044 0.7432 0.45845 0.0
C1460 C 0.08264 0.64822 0.28321 0.0
C1461 C 0.09238 0.66185 0.30785 0.0
C1462 C 0.11318 0.66603 0.40584 0.0
C1463 C 0.13763 0.71476 0.44368 0.0
C1464 C 0.13029 0.6986 0.41699 0.0
C1465 C 0.10321 0.65472 0.33978 0.0
C1466 C 0.1133 0.66941 0.36631 0.0
H1467 H 0.12381 0.73779 0.52659 0.0
H1468 H 0.11356 0.71001 0.48524 0.0
H1469 H 0.12114 0.67726 0.46104 0.0
H1470 H 0.09496 0.60369 0.32775 0.0
H1471 H 0.11234 0.62741 0.37033 0.0
C1472 C 0.87073 0.65169 0.44553 0.0
C1473 C 0.87771 0.66189 0.47824 0.0
C1474 C 0.88449 0.64186 0.42114 0.0
C1475 C 0.93786 0.62213 0.41612 0.0
H1476 H 0.92937 0.62637 0.30729 0.0
C1477 C 0.9872 0.61403 0.26889 0.0
C1478 C -0.00117 0.59652 0.27703 0.0
C1479 C 0.97108 0.61988 0.29254 0.0
C1480 C 0.93204 0.62509 0.3376 0.0
H1481 H 0.90469 0.66962 0.51092 0.0
H1482 H 0.92867 0.65302 0.46812 0.0
H1483 H 0.90446 0.64113 0.35069 0.0
H1484 H 0.00211 0.57102 0.31588 0.0
H1485 H 0.97366 0.58103 0.35686 0.0
H1486 H 0.9659 0.6069 0.40299 0.0
C1487 C 0.91252 0.65222 0.46159 0.0
C1488 C 0.91758 0.63335 0.36256 0.0
C1489 C 0.89876 0.66193 0.48605 0.0
C1490 C 0.99351 0.58462 0.30882 0.0
C1491 C 0.97729 0.59046 0.33248 0.0
C1492 C 0.95237 0.61395 0.39114 0.0
C1493 C 0.9056 0.64207 0.42874 0.0
C1494 C 0.92042 0.63221 0.40217 0.0
C1495 C 0.96605 0.60834 0.32495 0.0
C1496 C 0.94979 0.61556 0.35153 0.0
H1497 H 0.8546 0.65123 0.43873 0.0
H1498 H 0.87854 0.63397 0.39645 0.0
H1499 H 0.94041 0.62065 0.44642 0.0
H1500 H 0.9909 0.62363 0.24475 0.0
H1501 H 0.96303 0.6339 0.28606 0.0
C1502 C 0.077 0.14906 0.72948 0.0
C1503 C 0.08173 0.12816 0.72756 0.0
C1504 C 0.08616 0.16297 0.70461 0.0
C1505 C 0.13083 0.17147 0.64346 0.0
H1506 H 0.09561 0.2103 0.59218 0.0
C1507 C 0.1592 0.2432 0.5596 0.0
C1508 C 0.14913 0.24739 0.5251 0.0
C1509 C 0.15251 0.22725 0.58316 0.0
C1510 C 0.10565 0.1995 0.60613 0.0
H1511 H 0.10006 0.10552 0.69824 0.0
H1512 H 0.11632 0.12995 0.65499 0.0
H1513 H 0.08083 0.18546 0.63594 0.0
H1514 H 0.12503 0.23714 0.4873 0.0
H1515 H 0.11329 0.20969 0.52845 0.0
H1516 H 0.15571 0.18577 0.61376 0.0
C1517 C 0.10546 0.13551 0.67582 0.0
C1518 C 0.0972 0.18538 0.63143 0.0
C1519 C 0.09606 0.12152 0.70041 0.0
C1520 C 0.13292 0.23464 0.51392 0.0
C1521 C 0.12615 0.21889 0.53754 0.0
C1522 C 0.13936 0.18583 0.61847 0.0
C1523 C 0.10047 0.15636 0.67745 0.0
C1524 C 0.10966 0.1712 0.65037 0.0
C1525 C 0.13555 0.21529 0.5728 0.0
C1526 C 0.12682 0.19994 0.59942 0.0
H1527 H 0.06592 0.15468 0.74975 0.0
H1528 H 0.0821 0.17896 0.70673 0.0
H1529 H 0.14082 0.16078 0.65783 0.0
H1530 H 0.17175 0.2527 0.56908 0.0
H1531 H 0.16005 0.22485 0.61022 0.0
C1532 C 0.5133 0.38674 0.76264 0.0
C1533 C 0.49727 0.39854 0.77749 0.0
C1534 C 0.5294 0.38039 0.78594 0.0
C1535 C 0.55262 0.3877 0.88281 0.0
H1536 H 0.57496 0.33398 0.8623 0.0
C1537 C 0.60011 0.34004 0.99085 0.0
C1538 C 0.61859 0.33197 0.97704 0.0
C1539 C 0.58629 0.34949 0.96612 0.0
C1540 C 0.56896 0.34907 0.86819 0.0
H1541 H 0.48569 0.41323 0.82832 0.0
H1542 H 0.5132 0.40149 0.8694 0.0
H1543 H 0.54916 0.3481 0.82005 0.0
H1544 H 0.63702 0.32744 0.92646 0.0
H1545 H 0.61254 0.34346 0.88311 0.0
H1546 H 0.57192 0.38798 0.9322 0.0
C1547 C 0.51383 0.3976 0.8395 0.0
C1548 C 0.55424 0.3573 0.8438 0.0
C1549 C 0.49794 0.40431 0.81595 0.0
C1550 C 0.62294 0.33355 0.93798 0.0
C1551 C 0.60892 0.34264 0.91315 0.0
C1552 C 0.56707 0.37926 0.90762 0.0
C1553 C 0.52966 0.38526 0.82499 0.0
C1554 C 0.54583 0.37677 0.85065 0.0
C1555 C 0.59047 0.35071 0.92698 0.0
C1556 C 0.57539 0.35987 0.9005 0.0
H1557 H 0.51328 0.38218 0.73301 0.0
H1558 H 0.54153 0.37145 0.77327 0.0
H1559 H 0.54689 0.40286 0.88884 0.0
H1560 H 0.59637 0.33912 0.02082 0.0
H1561 H 0.57211 0.35548 0.97745 0.0
C1562 C 0.3393 0.74691 0.06688 0.0
C1563 C 0.34416 0.74672 0.02797 0.0
C1564 C 0.34607 0.76282 0.09031 0.0
C1565 C 0.38542 0.80413 0.0925 0.0
H1566 H 0.35655 0.82021 0.18406 0.0
C1567 C 0.41032 0.87198 0.18785 0.0
C1568 C 0.41261 0.86725 0.22663 0.0
C1569 C 0.40099 0.85812 0.16304 0.0
C1570 C 0.36477 0.81581 0.15859 0.0
H1571 H 0.3588 0.76364 0.98259 0.0
H1572 H 0.36966 0.79187 0.02277 0.0
H1573 H 0.34112 0.79537 0.14101 0.0
H1574 H 0.40648 0.84448 0.26994 0.0
H1575 H 0.38975 0.82048 0.22665 0.0
H1576 H 0.4088 0.82506 0.10989 0.0
C1577 C 0.36141 0.77937 0.0358 0.0
C1578 C 0.35601 0.80148 0.13394 0.0
C1579 C 0.355 0.76327 0.01258 0.0
C1580 C 0.40504 0.84852 0.24018 0.0
C1581 C 0.39536 0.83484 0.2155 0.0
C1582 C 0.39397 0.81873 0.11677 0.0
C1583 C 0.35756 0.77913 0.07524 0.0
C1584 C 0.36629 0.79526 0.10067 0.0
C1585 C 0.39338 0.83944 0.17664 0.0
C1586 C 0.38383 0.82456 0.15022 0.0
H1587 H 0.33114 0.73425 0.07963 0.0
H1588 H 0.34297 0.76182 0.12049 0.0
H1589 H 0.39413 0.79949 0.0678 0.0
H1590 H 0.41602 0.88627 0.17654 0.0
H1591 H 0.39959 0.86205 0.13322 0.0
C1592 C 0.09834 0.33824 0.52593 0.0
C1593 C 0.11729 0.33118 0.53937 0.0
C1594 C 0.08468 0.34812 0.55045 0.0
C1595 C 0.06928 0.35112 0.64957 0.0
H1596 H 0.04516 0.40321 0.62269 0.0
C1597 C 0.01438 0.39141 0.75309 0.0
C1598 C 0.99756 0.40182 0.73766 0.0
C1599 C 0.03034 0.38477 0.72972 0.0
C1600 C 0.05148 0.38854 0.63052 0.0
H1601 H 0.1367 0.32878 0.58916 0.0
H1602 H 0.11252 0.34552 0.63222 0.0
H1603 H 0.06979 0.38722 0.57988 0.0
H1604 H 0.98449 0.41385 0.68571 0.0
H1605 H 0.01183 0.40161 0.64463 0.0
H1606 H 0.05047 0.35171 0.69913 0.0
C1607 C 0.10839 0.34359 0.60259 0.0
C1608 C 0.0657 0.37945 0.606 0.0
C1609 C 0.12223 0.33408 0.57793 0.0
C1610 C 0.99736 0.40604 0.6985 0.0
C1611 C 0.01314 0.39903 0.67494 0.0
C1612 C 0.05481 0.35999 0.67374 0.0
C1613 C 0.08952 0.35078 0.58906 0.0
C1614 C 0.07473 0.36066 0.6153 0.0
C1615 C 0.0297 0.38793 0.69009 0.0
C1616 C 0.04566 0.37886 0.66465 0.0
H1617 H 0.09411 0.33631 0.49636 0.0
H1618 H 0.07017 0.35338 0.53935 0.0
H1619 H 0.07583 0.3365 0.65721 0.0
H1620 H 0.01504 0.38807 0.78325 0.0
H1621 H 0.04304 0.37686 0.74281 0.0
C1622 C 0.90343 0.87313 0.31864 0.0
C1623 C 0.91528 0.86639 0.28771 0.0
C1624 C 0.89377 0.85911 0.3427 0.0
C1625 C 0.88525 0.82659 0.40221 0.0
H1626 H 0.8625 0.77648 0.3616 0.0
C1627 C 0.86428 0.75817 0.49777 0.0
C1628 C 0.84733 0.74602 0.48817 0.0
C1629 C 0.87074 0.77391 0.4738 0.0
C1630 C 0.86853 0.79051 0.37342 0.0
H1631 H 0.92629 0.83955 0.25796 0.0
H1632 H 0.90978 0.81512 0.30029 0.0
H1633 H 0.87706 0.8017 0.31843 0.0
H1634 H 0.8235 0.74138 0.44623 0.0
H1635 H 0.83461 0.76914 0.40458 0.0
H1636 H 0.87647 0.81555 0.45713 0.0
C1637 C 0.90761 0.83126 0.30558 0.0
C1638 C 0.87717 0.80486 0.34867 0.0
C1639 C 0.91722 0.84528 0.28142 0.0
C1640 C 0.83661 0.75043 0.45449 0.0
C1641 C 0.84309 0.76624 0.43045 0.0
C1642 C 0.87658 0.81227 0.42693 0.0
C1643 C 0.89577 0.83798 0.33658 0.0
C1644 C 0.88583 0.82301 0.36276 0.0
C1645 C 0.86042 0.778 0.43955 0.0
C1646 C 0.86831 0.79392 0.41294 0.0
H1647 H 0.9015 0.88928 0.32421 0.0
H1648 H 0.88455 0.86488 0.36592 0.0
H1649 H 0.89192 0.84028 0.4142 0.0
H1650 H 0.87298 0.75519 0.52338 0.0
H1651 H 0.8843 0.78242 0.48156 0.0
C1652 C 0.39775 0.65725 0.02382 0.0
C1653 C 0.37891 0.66408 0.03806 0.0
C1654 C 0.41168 0.64728 0.04757 0.0
C1655 C 0.41606 0.62203 0.14311 0.0
H1656 H 0.474 0.62915 0.12441 0.0
C1657 C 0.48122 0.60393 0.25076 0.0
C1658 C 0.49788 0.59274 0.23651 0.0
C1659 C 0.4656 0.61044 0.22646 0.0
C1660 C 0.45785 0.62688 0.12973 0.0
H1661 H 0.36 0.66611 0.0885 0.0
H1662 H 0.38464 0.64971 0.13043 0.0
H1663 H 0.44936 0.64577 0.0829 0.0
H1664 H 0.51097 0.57915 0.18579 0.0
H1665 H 0.48386 0.59099 0.14318 0.0
H1666 H 0.42491 0.60394 0.19133 0.0
C1667 C 0.38848 0.6513 0.10063 0.0
C1668 C 0.44365 0.63633 0.10581 0.0
C1669 C 0.37436 0.66089 0.07665 0.0
C1670 C 0.49826 0.58762 0.19767 0.0
C1671 C 0.48285 0.5945 0.17324 0.0
C1672 C 0.43031 0.61294 0.16751 0.0
C1673 C 0.40735 0.64426 0.08644 0.0
C1674 C 0.42251 0.63403 0.11203 0.0
C1675 C 0.46655 0.60624 0.18732 0.0
C1676 C 0.45133 0.61524 0.16095 0.0
H1677 H 0.4016 0.65928 0.99409 0.0
H1678 H 0.42576 0.64173 0.03516 0.0
H1679 H 0.39999 0.61949 0.14857 0.0
H1680 H 0.48051 0.60809 0.28055 0.0
H1681 H 0.45323 0.61953 0.23798 0.0
C1682 C 0.65944 0.24249 0.95663 0.0
C1683 C 0.64794 0.2478 0.98895 0.0
C1684 C 0.65316 0.22645 0.93298 0.0
C1685 C 0.61847 0.18138 0.92892 0.0
H1686 H 0.62093 0.19037 0.82002 0.0
C1687 C 0.59199 0.12008 0.82102 0.0
C1688 C 0.58101 0.12694 0.7891 0.0
C1689 C 0.60163 0.134 0.84531 0.0
C1690 C 0.62002 0.18765 0.85036 0.0
H1691 H 0.62111 0.24001 0.02223 0.0
H1692 H 0.61014 0.21237 0.98102 0.0
H1693 H 0.63524 0.21574 0.86311 0.0
H1694 H 0.57151 0.15385 0.75783 0.0
H1695 H 0.58798 0.1781 0.80048 0.0
H1696 H 0.60256 0.15367 0.91626 0.0
C1697 C 0.62414 0.22035 0.97407 0.0
C1698 C 0.6285 0.20208 0.87509 0.0
C1699 C 0.63039 0.23633 0.99765 0.0
C1700 C 0.5799 0.14803 0.78206 0.0
C1701 C 0.58949 0.16194 0.80641 0.0
C1702 C 0.60996 0.16697 0.9042 0.0
C1703 C 0.63526 0.21535 0.94114 0.0
C1704 C 0.62762 0.19925 0.91473 0.0
C1705 C 0.60049 0.15512 0.83836 0.0
C1706 C 0.61041 0.17002 0.8646 0.0
H1707 H 0.67304 0.25099 0.94911 0.0
H1708 H 0.66226 0.22284 0.90814 0.0
H1709 H 0.61774 0.17855 0.95925 0.0
H1710 H 0.59325 0.10393 0.82718 0.0
H1711 H 0.61017 0.12816 0.86933 0.0
C1712 C 0.27428 0.2157 0.13176 0.0
C1713 C 0.29543 0.21938 0.13096 0.0
C1714 C 0.26236 0.22287 0.1622 0.0
C1715 C 0.26735 0.2394 0.26287 0.0
H1716 H 0.21321 0.2619 0.24807 0.0
C1717 C 0.22152 0.27918 0.38399 0.0
C1718 C 0.20036 0.2756 0.3849 0.0
C1719 C 0.23336 0.272 0.35346 0.0
C1720 C 0.22823 0.25544 0.25279 0.0
H1721 H 0.32044 0.23422 0.16072 0.0
H1722 H 0.29976 0.24682 0.21288 0.0
H1723 H 0.23278 0.25019 0.1932 0.0
H1724 H 0.17523 0.26095 0.35518 0.0
H1725 H 0.19578 0.24829 0.30286 0.0
H1726 H 0.26281 0.24465 0.32245 0.0
C1727 C 0.29238 0.23803 0.1907 0.0
C1728 C 0.23944 0.24872 0.22127 0.0
C1729 C 0.30422 0.2309 0.16052 0.0
C1730 C 0.19146 0.26418 0.35531 0.0
C1731 C 0.20323 0.25703 0.32504 0.0
C1732 C 0.25614 0.24612 0.29439 0.0
C1733 C 0.27137 0.23383 0.19237 0.0
C1734 C 0.25917 0.24065 0.22588 0.0
C1735 C 0.22427 0.2611 0.32331 0.0
C1736 C 0.23642 0.25421 0.28978 0.0
H1737 H 0.26706 0.20682 0.10953 0.0
H1738 H 0.24621 0.21929 0.16267 0.0
H1739 H 0.28237 0.23296 0.26759 0.0
H1740 H 0.22882 0.288 0.40623 0.0
H1741 H 0.24953 0.2755 0.35295 0.0
C1742 C 0.51339 0.55165 0.40827 0.0
C1743 C 0.5256 0.54305 0.37947 0.0
C1744 C 0.50626 0.5398 0.43843 0.0
C1745 C 0.51777 0.49298 0.49208 0.0
H1746 H 0.46359 0.50149 0.53393 0.0
C1747 C 0.48311 0.44074 0.60737 0.0
C1748 C 0.47083 0.44947 0.63593 0.0
C1749 C 0.49036 0.45247 0.57712 0.0
C1750 C 0.47887 0.49914 0.52296 0.0
H1751 H 0.53949 0.51503 0.35942 0.0
H1752 H 0.52685 0.49411 0.41235 0.0
H1753 H 0.47409 0.52015 0.47718 0.0
H1754 H 0.45701 0.47762 0.65554 0.0
H1755 H 0.46987 0.49832 0.60255 0.0
H1756 H 0.52255 0.47197 0.53788 0.0
C1757 C 0.52299 0.51018 0.41157 0.0
C1758 C 0.48487 0.50977 0.49028 0.0
C1759 C 0.53008 0.52209 0.38109 0.0
C1760 C 0.46646 0.47045 0.63406 0.0
C1761 C 0.47368 0.48224 0.60352 0.0
C1762 C 0.51177 0.48235 0.52476 0.0
C1763 C 0.51115 0.51898 0.44081 0.0
C1764 C 0.50442 0.50686 0.47446 0.0
C1765 C 0.48552 0.4733 0.57444 0.0
C1766 C 0.49224 0.48529 0.54063 0.0
H1767 H 0.50959 0.56775 0.40798 0.0
H1768 H 0.49743 0.54718 0.46058 0.0
H1769 H 0.53306 0.49064 0.48111 0.0
H1770 H 0.48682 0.42462 0.60786 0.0
H1771 H 0.49921 0.445 0.55512 0.0
C1772 C 0.22114 0.77928 0.63339 0.0
C1773 C 0.20011 0.77512 0.63158 0.0
C1774 C 0.23287 0.77199 0.66395 0.0
C1775 C 0.22706 0.75399 0.76357 0.0
H1776 H 0.28209 0.7335 0.75014 0.0
C1777 C 0.27316 0.71447 0.88476 0.0
C1778 C 0.29414 0.71895 0.88647 0.0
C1779 C 0.26129 0.72156 0.85421 0.0
C1780 C 0.2668 0.73938 0.75447 0.0
H1781 H 0.17513 0.75924 0.65952 0.0
H1782 H 0.1955 0.74637 0.71186 0.0
H1783 H 0.2628 0.74515 0.69494 0.0
H1784 H 0.31884 0.73518 0.85837 0.0
H1785 H 0.29824 0.74765 0.80603 0.0
H1786 H 0.23107 0.74821 0.82312 0.0
C1787 C 0.20291 0.75566 0.69044 0.0
C1788 C 0.25576 0.74608 0.72277 0.0
C1789 C 0.19126 0.76295 0.66015 0.0
C1790 C 0.30277 0.73122 0.85781 0.0
C1791 C 0.29098 0.73828 0.82753 0.0
C1792 C 0.2381 0.74728 0.79528 0.0
C1793 C 0.22378 0.76038 0.69319 0.0
C1794 C 0.23573 0.75346 0.7269 0.0
C1795 C 0.27019 0.73325 0.82487 0.0
C1796 C 0.25814 0.73996 0.79115 0.0
H1797 H 0.22839 0.78868 0.61193 0.0
H1798 H 0.24891 0.77597 0.66527 0.0
H1799 H 0.21178 0.75989 0.76792 0.0
H1800 H 0.26608 0.705 0.9063 0.0
H1801 H 0.24531 0.71736 0.85296 0.0
C1802 C 0.02936 0.52416 0.13422 0.0
C1803 C 0.02528 0.5452 0.13612 0.0
C1804 C 0.02208 0.5125 0.10357 0.0
C1805 C 0.98422 0.5129 0.02452 0.0
H1806 H 0.02155 0.47463 0.97723 0.0
C1807 C 0.96555 0.47287 0.88118 0.0
C1808 C 0.9699 0.45188 0.87975 0.0
C1809 C 0.97273 0.48483 0.91153 0.0
C1810 C 0.01086 0.48514 0.99024 0.0
H1811 H 0.00973 0.57029 0.10799 0.0
H1812 H 0.99721 0.55012 0.05506 0.0
H1813 H 0.03216 0.49323 0.03395 0.0
H1814 H 0.98578 0.42718 0.90848 0.0
H1815 H -0.00194 0.44782 0.96083 0.0
H1816 H 0.9629 0.50477 0.98083 0.0
C1817 C 0.0059 0.54252 0.07711 0.0
C1818 C 0.01693 0.49574 0.0229 0.0
C1819 C 0.01322 0.55413 0.10747 0.0
C1820 C 0.98208 0.4433 0.90861 0.0
C1821 C 0.98928 0.45519 0.93864 0.0
C1822 C 0.97814 0.50229 0.99186 0.0
C1823 C 0.01046 0.52163 0.07441 0.0
C1824 C 0.00368 0.50974 0.0405 0.0
C1825 C 0.98453 0.47605 0.94083 0.0
C1826 C 0.99136 0.48822 0.97435 0.0
H1827 H 0.03864 0.51683 0.15576 0.0
H1828 H 0.02567 0.49637 0.10257 0.0
H1829 H 0.97354 0.52341 0.03755 0.0
H1830 H 0.95617 0.47993 0.85946 0.0
H1831 H 0.96897 0.50093 0.91215 0.0
C1832 C 0.71987 0.77779 0.88257 0.0
C1833 C 0.69873 0.77411 0.88357 0.0
C1834 C 0.7317 0.77074 0.85197 0.0
C1835 C 0.72654 0.75454 0.75117 0.0
H1836 H 0.78113 0.73304 0.76532 0.0
C1837 C 0.77325 0.71612 0.62962 0.0
C1838 C 0.79433 0.72013 0.62882 0.0
C1839 C 0.76121 0.72307 0.66004 0.0
C1840 C 0.76598 0.73922 0.7608 0.0
H1841 H 0.67362 0.7594 0.85395 0.0
H1842 H 0.69418 0.74691 0.8014 0.0
H1843 H 0.76139 0.74396 0.82048 0.0
H1844 H 0.8191 0.7354 0.6585 0.0
H1845 H 0.79819 0.74767 0.71072 0.0
H1846 H 0.73115 0.74977 0.69146 0.0
C1847 C 0.70161 0.75563 0.82362 0.0
C1848 C 0.75467 0.74549 0.79248 0.0
C1849 C 0.68984 0.76268 0.85401 0.0
C1850 C 0.80294 0.73184 0.6583 0.0
C1851 C 0.79097 0.73877 0.6885 0.0
C1852 C 0.73786 0.74825 0.71948 0.0
C1853 C 0.72262 0.75985 0.82179 0.0
C1854 C 0.73479 0.75323 0.7881 0.0
C1855 C 0.77004 0.73416 0.69021 0.0
C1856 C 0.75775 0.74057 0.72387 0.0
H1857 H 0.72717 0.78663 0.90478 0.0
H1858 H 0.74783 0.77437 0.85138 0.0
H1859 H 0.7114 0.76075 0.74664 0.0
H1860 H 0.76618 0.70707 0.60745 0.0
H1861 H 0.74513 0.71918 0.66055 0.0
C1862 C 0.72133 0.27841 0.13186 0.0
C1863 C 0.70048 0.27352 0.12943 0.0
C1864 C 0.73304 0.27157 0.16278 0.0
C1865 C 0.72693 0.25384 0.26238 0.0
H1866 H 0.78298 0.23582 0.25129 0.0
C1867 C 0.77336 0.21641 0.38522 0.0
C1868 C 0.79418 0.22145 0.38752 0.0
C1869 C 0.76152 0.22326 0.35448 0.0
C1870 C 0.7674 0.24103 0.25497 0.0
H1871 H 0.67582 0.25678 0.15656 0.0
H1872 H 0.6962 0.24465 0.20962 0.0
H1873 H 0.76373 0.2462 0.19518 0.0
H1874 H 0.81861 0.23855 0.36044 0.0
H1875 H 0.79801 0.25068 0.3077 0.0
H1876 H 0.73062 0.24865 0.32218 0.0
C1877 C 0.70346 0.25417 0.18836 0.0
C1878 C 0.75637 0.24698 0.22275 0.0
C1879 C 0.69181 0.26101 0.15768 0.0
C1880 C 0.80266 0.23418 0.3594 0.0
C1881 C 0.79088 0.24103 0.32891 0.0
C1882 C 0.73796 0.24788 0.2946 0.0
C1883 C 0.7241 0.25969 0.19178 0.0
C1884 C 0.73598 0.25344 0.22602 0.0
C1885 C 0.7703 0.2353 0.32554 0.0
C1886 C 0.75836 0.24145 0.29132 0.0
H1887 H 0.72843 0.28811 0.11068 0.0
H1888 H 0.74889 0.27619 0.16461 0.0
H1889 H 0.71136 0.25906 0.26606 0.0
H1890 H 0.76641 0.20654 0.4063 0.0
H1891 H 0.7457 0.21851 0.35268 0.0
C1892 C 0.01117 0.05337 0.90684 0.0
C1893 C 0.02403 0.04483 0.87898 0.0
C1894 C 0.00403 0.04165 0.9372 0.0
C1895 C 0.01678 0.99596 0.99324 0.0
H1896 H 0.96202 0.00284 0.03345 0.0
C1897 C 0.98332 0.94321 0.10865 0.0
C1898 C 0.97043 0.95154 0.13669 0.0
C1899 C 0.99032 0.95509 0.07842 0.0
C1900 C 0.97746 0.00097 0.02294 0.0
H1901 H 0.03897 0.017 0.86065 0.0
H1902 H 0.0263 0.99632 0.91383 0.0
H1903 H 0.97225 0.02135 0.97632 0.0
H1904 H 0.95524 0.97916 0.15539 0.0
H1905 H 0.96769 0.00014 0.10239 0.0
H1906 H 0.022 0.9756 0.03984 0.0
C1907 C 0.02195 0.01225 0.91223 0.0
C1908 C 0.9833 0.0115 0.99005 0.0
C1909 C 0.02906 0.02402 0.88158 0.0
C1910 C 0.96519 0.97231 0.13433 0.0
C1911 C 0.97217 0.98425 0.10379 0.0
C1912 C 0.01094 0.98544 0.02613 0.0
C1913 C 0.00957 0.02103 0.94069 0.0
C1914 C 0.00304 0.00913 0.97475 0.0
C1915 C 0.98464 0.97568 0.07522 0.0
C1916 C 0.99118 0.98776 0.04137 0.0
H1917 H 0.00696 0.06935 0.90576 0.0
H1918 H 0.99473 0.049 0.95869 0.0
H1919 H 0.03222 0.99407 0.98272 0.0
H1920 H 0.98771 0.92727 0.10952 0.0
H1921 H -0.00033 0.94788 0.05683 0.0
C1922 C 0.51415 0.05158 0.60703 0.0
C1923 C 0.52616 0.04286 0.63598 0.0
C1924 C 0.50714 0.03983 0.57666 0.0
C1925 C 0.49776 0.98697 0.54459 0.0
H1926 H 0.50055 0.01141 0.44413 0.0
C1927 C 0.48224 0.93999 0.40951 0.0
C1928 C 0.47025 0.94891 0.38074 0.0
C1929 C 0.48953 0.95163 0.43983 0.0
C1930 C 0.49944 0.00444 0.47199 0.0
H1931 H 0.53969 0.01469 0.65617 0.0
H1932 H 0.52743 0.994 0.60269 0.0
H1933 H 0.51209 0.03072 0.49937 0.0
H1934 H 0.457 0.97727 0.36082 0.0
H1935 H 0.46971 -0.00227 0.41419 0.0
H1936 H 0.48508 0.9607 0.51722 0.0
C1937 C 0.52338 0.01002 0.60378 0.0
C1938 C 0.50608 0.0155 0.50372 0.0
C1939 C 0.53042 0.02185 0.63441 0.0
C1940 C 0.46627 0.96997 0.38242 0.0
C1941 C 0.47357 0.98167 0.413 0.0
C1942 C 0.49112 0.97591 0.51286 0.0
C1943 C 0.51195 0.01899 0.5742 0.0
C1944 C 0.50527 0.00694 0.54045 0.0
C1945 C 0.48499 0.97253 0.44241 0.0
C1946 C 0.49189 0.98449 0.47614 0.0
H1947 H 0.51037 0.06768 0.60745 0.0
H1948 H 0.49797 0.04715 0.55494 0.0
H1949 H 0.49665 0.98002 0.57246 0.0
H1950 H 0.48579 0.92384 0.40899 0.0
H1951 H 0.49867 0.94418 0.46141 0.0
loop_
_geom_bond_atom_site_label_1
_geom_bond_atom_site_label_2
_geom_bond_distance
_geom_bond_site_symmetry_2
_ccdc_geom_bond_type
Zn0 O1 2.055 . S
Zn0 O8 2.046 1_554 S
Zn0 N16 2.036 . S
Zn0 O28 2.053 . S
Zn0 O30 2.066 . S
O1 Zn0 2.055 . S
O1 C4 1.259 . S
C2 O30 1.256 . S
C2 O31 1.244 . S
Zn3 O5 2.046 . S
Zn3 O7 2.055 . S
Zn3 N9 2.036 . S
Zn3 O27 2.066 . S
Zn3 O31 2.053 . S
C4 O1 1.259 . S
C4 O5 1.254 . S
O5 Zn3 2.046 . S
O5 C4 1.254 . S
C6 O27 1.256 . S
C6 O28 1.244 . S
O7 Zn3 2.055 . S
O7 C29 1.259 1_554 S
O8 Zn0 2.046 1_556 S
O8 C29 1.254 . S
N9 Zn3 2.036 . S
N9 C10 1.298 . S
N9 N12 1.398 . S
C10 N9 1.298 . S
C10 N13 1.367 . S
C10 C23 1.481 . S
C11 N12 1.299 . S
C11 N13 1.379 . S
N12 N9 1.398 . S
N12 C11 1.299 . S
N13 C10 1.367 . S
N13 C11 1.379 . S
C14 N16 1.298 . S
C14 N18 1.367 1_554 S
C14 C22 1.481 . S
C15 N17 1.299 . S
C15 N18 1.379 . S
N16 Zn0 2.036 . S
N16 C14 1.298 . S
N16 N17 1.398 1_554 S
N17 C15 1.299 . S
N17 N16 1.398 1_556 S
N18 C14 1.367 1_556 S
N18 C15 1.379 . S
H19 C22 0.980 . S
H20 C22 0.981 . S
H21 C22 0.981 . S
C22 C14 1.481 . S
C22 H19 0.980 . S
C22 H20 0.981 . S
C22 H21 0.981 . S
C23 C10 1.481 . S
C23 H24 0.980 . S
C23 H25 0.981 . S
C23 H26 0.981 . S
H24 C23 0.980 . S
H25 C23 0.981 . S
H26 C23 0.981 . S
O27 Zn3 2.066 . S
O27 C6 1.256 . S
O28 Zn0 2.053 . S
O28 C6 1.244 . S
C29 O7 1.259 1_556 S
C29 O8 1.254 . S
O30 Zn0 2.066 . S
O30 C2 1.256 . S
O31 C2 1.244 . S
O31 Zn3 2.053 . S
Zn32 O33 2.055 . S
Zn32 O40 2.046 . S
Zn32 N48 2.036 . S
Zn32 O60 2.053 . S
Zn32 O62 2.066 . S
O33 Zn32 2.055 . S
O33 C36 1.259 . S
C34 O62 1.256 . S
C34 O63 1.244 . S
Zn35 O37 2.046 . S
Zn35 O39 2.055 . S
Zn35 N41 2.036 . S
Zn35 O59 2.066 . S
Zn35 O63 2.053 . S
C36 O33 1.259 . S
C36 O37 1.254 . S
O37 Zn35 2.046 . S
O37 C36 1.254 . S
C38 O59 1.256 . S
C38 O60 1.244 . S
O39 Zn35 2.055 . S
O39 C61 1.259 . S
O40 Zn32 2.046 . S
O40 C61 1.254 . S
N41 Zn35 2.036 . S
N41 C42 1.298 . S
N41 N44 1.398 . S
C42 N41 1.298 . S
C42 N45 1.367 . S
C42 C55 1.481 . S
C43 N44 1.299 . S
C43 N45 1.379 . S
N44 N41 1.398 . S
N44 C43 1.299 . S
N45 C42 1.367 . S
N45 C43 1.379 . S
C46 N48 1.298 . S
C46 N50 1.367 . S
C46 C54 1.481 . S
C47 N49 1.299 . S
C47 N50 1.379 . S
N48 Zn32 2.036 . S
N48 C46 1.298 . S
N48 N49 1.398 . S
N49 C47 1.299 . S
N49 N48 1.398 . S
N50 C46 1.367 . S
N50 C47 1.379 . S
H51 C54 0.980 . S
H52 C54 0.981 . S
H53 C54 0.981 . S
C54 C46 1.481 . S
C54 H51 0.980 . S
C54 H52 0.981 . S
C54 H53 0.981 . S
C55 C42 1.481 . S
C55 H56 0.980 . S
C55 H57 0.981 . S
C55 H58 0.981 . S
H56 C55 0.980 . S
H57 C55 0.981 . S
H58 C55 0.981 . S
O59 Zn35 2.066 . S
O59 C38 1.256 . S
O60 Zn32 2.053 . S
O60 C38 1.244 . S
C61 O39 1.259 . S
C61 O40 1.254 . S
O62 Zn32 2.066 . S
O62 C34 1.256 . S
O63 C34 1.244 . S
O63 Zn35 2.053 . S
Zn64 O65 2.055 . S
Zn64 O72 2.046 . S
Zn64 N80 2.036 . S
Zn64 O92 2.053 . S
Zn64 O94 2.066 . S
O65 Zn64 2.055 . S
O65 C68 1.259 . S
C66 O94 1.256 . S
C66 O95 1.244 . S
Zn67 O69 2.046 . S
Zn67 O71 2.055 . S
Zn67 N73 2.036 . S
Zn67 O91 2.066 . S
Zn67 O95 2.053 . S
C68 O65 1.259 . S
C68 O69 1.254 . S
O69 Zn67 2.046 . S
O69 C68 1.254 . S
C70 O91 1.256 . S
C70 O92 1.244 . S
O71 Zn67 2.055 . S
O71 C93 1.259 . S
O72 Zn64 2.046 . S
O72 C93 1.254 . S
N73 Zn67 2.036 . S
N73 C74 1.298 . S
N73 N76 1.398 . S
C74 N73 1.298 . S
C74 N77 1.367 . S
C74 C87 1.481 . S
C75 N76 1.299 . S
C75 N77 1.379 . S
N76 N73 1.398 . S
N76 C75 1.299 . S
N77 C74 1.367 . S
N77 C75 1.379 . S
C78 N80 1.298 . S
C78 N82 1.367 . S
C78 C86 1.481 . S
C79 N81 1.299 . S
C79 N82 1.379 . S
N80 Zn64 2.036 . S
N80 C78 1.298 . S
N80 N81 1.398 . S
N81 C79 1.299 . S
N81 N80 1.398 . S
N82 C78 1.367 . S
N82 C79 1.379 . S
H83 C86 0.980 . S
H84 C86 0.981 . S
H85 C86 0.981 . S
C86 C78 1.481 . S
C86 H83 0.980 . S
C86 H84 0.981 . S
C86 H85 0.981 . S
C87 C74 1.481 . S
C87 H88 0.980 . S
C87 H89 0.981 . S
C87 H90 0.981 . S
H88 C87 0.980 . S
H89 C87 0.981 . S
H90 C87 0.981 . S
O91 Zn67 2.066 . S
O91 C70 1.256 . S
O92 Zn64 2.053 . S
O92 C70 1.244 . S
C93 O71 1.259 . S
C93 O72 1.254 . S
O94 Zn64 2.066 . S
O94 C66 1.256 . S
O95 C66 1.244 . S
O95 Zn67 2.053 . S
Zn96 O97 2.055 . S
Zn96 O104 2.046 . S
Zn96 N112 2.036 . S
Zn96 O124 2.053 . S
Zn96 O126 2.066 . S
O97 Zn96 2.055 . S
O97 C100 1.259 . S
C98 O126 1.256 . S
C98 O127 1.244 . S
Zn99 O101 2.046 . S
Zn99 O103 2.055 . S
Zn99 N105 2.036 . S
Zn99 O123 2.066 . S
Zn99 O127 2.053 . S
C100 O97 1.259 . S
C100 O101 1.254 . S
O101 Zn99 2.046 . S
O101 C100 1.254 . S
C102 O123 1.256 . S
C102 O124 1.244 . S
O103 Zn99 2.055 . S
O103 C125 1.259 . S
O104 Zn96 2.046 . S
O104 C125 1.254 . S
N105 Zn99 2.036 . S
N105 C106 1.298 . S
N105 N108 1.398 . S
C106 N105 1.298 . S
C106 N109 1.367 . S
C106 C119 1.481 . S
C107 N108 1.299 . S
C107 N109 1.379 . S
N108 N105 1.398 . S
N108 C107 1.299 . S
N109 C106 1.367 . S
N109 C107 1.379 . S
C110 N112 1.298 . S
C110 N114 1.367 . S
C110 C118 1.481 . S
C111 N113 1.299 . S
C111 N114 1.379 . S
N112 Zn96 2.036 . S
N112 C110 1.298 . S
N112 N113 1.398 . S
N113 C111 1.299 . S
N113 N112 1.398 . S
N114 C110 1.367 . S
N114 C111 1.379 . S
H115 C118 0.980 . S
H116 C118 0.981 . S
H117 C118 0.981 . S
C118 C110 1.481 . S
C118 H115 0.980 . S
C118 H116 0.981 . S
C118 H117 0.981 . S
C119 C106 1.481 . S
C119 H120 0.980 . S
C119 H121 0.981 . S
C119 H122 0.981 . S
H120 C119 0.980 . S
H121 C119 0.981 . S
H122 C119 0.981 . S
O123 Zn99 2.066 . S
O123 C102 1.256 . S
O124 Zn96 2.053 . S
O124 C102 1.244 . S
C125 O103 1.259 . S
C125 O104 1.254 . S
O126 Zn96 2.066 . S
O126 C98 1.256 . S
O127 C98 1.244 . S
O127 Zn99 2.053 . S
Zn128 O129 2.055 . S
Zn128 O136 2.046 . S
Zn128 N144 2.036 . S
Zn128 O156 2.053 . S
Zn128 O158 2.066 . S
O129 Zn128 2.055 . S
O129 C132 1.259 1_556 S
C130 O158 1.256 . S
C130 O159 1.244 . S
Zn131 O133 2.046 1_556 S
Zn131 O135 2.055 . S
Zn131 N137 2.036 . S
Zn131 O155 2.066 . S
Zn131 O159 2.053 . S
C132 O129 1.259 1_554 S
C132 O133 1.254 . S
O133 Zn131 2.046 1_554 S
O133 C132 1.254 . S
C134 O155 1.256 . S
C134 O156 1.244 . S
O135 Zn131 2.055 . S
O135 C157 1.259 . S
O136 Zn128 2.046 . S
O136 C157 1.254 . S
N137 Zn131 2.036 . S
N137 C138 1.298 . S
N137 N140 1.398 1_556 S
C138 N137 1.298 . S
C138 N141 1.367 1_556 S
C138 C151 1.481 . S
C139 N140 1.299 . S
C139 N141 1.379 . S
N140 N137 1.398 1_554 S
N140 C139 1.299 . S
N141 C138 1.367 1_554 S
N141 C139 1.379 . S
C142 N144 1.298 . S
C142 N146 1.367 . S
C142 C150 1.481 . S
C143 N145 1.299 . S
C143 N146 1.379 . S
N144 Zn128 2.036 . S
N144 C142 1.298 . S
N144 N145 1.398 . S
N145 C143 1.299 . S
N145 N144 1.398 . S
N146 C142 1.367 . S
N146 C143 1.379 . S
H147 C150 0.980 . S
H148 C150 0.981 . S
H149 C150 0.981 . S
C150 C142 1.481 . S
C150 H147 0.980 . S
C150 H148 0.981 . S
C150 H149 0.981 . S
C151 C138 1.481 . S
C151 H152 0.980 . S
C151 H153 0.981 . S
C151 H154 0.981 . S
H152 C151 0.980 . S
H153 C151 0.981 . S
H154 C151 0.981 . S
O155 Zn131 2.066 . S
O155 C134 1.256 . S
O156 Zn128 2.053 . S
O156 C134 1.244 . S
C157 O135 1.259 . S
C157 O136 1.254 . S
O158 Zn128 2.066 . S
O158 C130 1.256 . S
O159 C130 1.244 . S
O159 Zn131 2.053 . S
Zn160 O161 2.055 . S
Zn160 O168 2.046 . S
Zn160 N176 2.036 . S
Zn160 O188 2.053 . S
Zn160 O190 2.066 . S
O161 Zn160 2.055 . S
O161 C164 1.259 . S
C162 O190 1.256 . S
C162 O191 1.244 . S
Zn163 O165 2.046 . S
Zn163 O167 2.055 . S
Zn163 N169 2.036 . S
Zn163 O187 2.066 . S
Zn163 O191 2.053 . S
C164 O161 1.259 . S
C164 O165 1.254 . S
O165 Zn163 2.046 . S
O165 C164 1.254 . S
C166 O187 1.256 . S
C166 O188 1.244 . S
O167 Zn163 2.055 . S
O167 C189 1.259 . S
O168 Zn160 2.046 . S
O168 C189 1.254 . S
N169 Zn163 2.036 . S
N169 C170 1.298 . S
N169 N172 1.398 . S
C170 N169 1.298 . S
C170 N173 1.367 . S
C170 C183 1.481 . S
C171 N172 1.299 . S
C171 N173 1.379 . S
N172 N169 1.398 . S
N172 C171 1.299 . S
N173 C170 1.367 . S
N173 C171 1.379 . S
C174 N176 1.298 . S
C174 N178 1.367 . S
C174 C182 1.481 . S
C175 N177 1.299 . S
C175 N178 1.379 . S
N176 Zn160 2.036 . S
N176 C174 1.298 . S
N176 N177 1.398 . S
N177 C175 1.299 . S
N177 N176 1.398 . S
N178 C174 1.367 . S
N178 C175 1.379 . S
H179 C182 0.980 . S
H180 C182 0.981 . S
H181 C182 0.981 . S
C182 C174 1.481 . S
C182 H179 0.980 . S
C182 H180 0.981 . S
C182 H181 0.981 . S
C183 C170 1.481 . S
C183 H184 0.980 . S
C183 H185 0.981 . S
C183 H186 0.981 . S
H184 C183 0.980 . S
H185 C183 0.981 . S
H186 C183 0.981 . S
O187 Zn163 2.066 . S
O187 C166 1.256 . S
O188 Zn160 2.053 . S
O188 C166 1.244 . S
C189 O167 1.259 . S
C189 O168 1.254 . S
O190 Zn160 2.066 . S
O190 C162 1.256 . S
O191 C162 1.244 . S
O191 Zn163 2.053 . S
Zn192 O193 2.055 . S
Zn192 O200 2.046 . S
Zn192 N208 2.036 . S
Zn192 O220 2.053 . S
Zn192 O222 2.066 . S
O193 Zn192 2.055 . S
O193 C196 1.259 . S
C194 O222 1.256 . S
C194 O223 1.244 . S
Zn195 O197 2.046 . S
Zn195 O199 2.055 . S
Zn195 N201 2.036 . S
Zn195 O219 2.066 . S
Zn195 O223 2.053 . S
C196 O193 1.259 . S
C196 O197 1.254 . S
O197 Zn195 2.046 . S
O197 C196 1.254 . S
C198 O219 1.256 . S
C198 O220 1.244 . S
O199 Zn195 2.055 . S
O199 C221 1.259 . S
O200 Zn192 2.046 . S
O200 C221 1.254 . S
N201 Zn195 2.036 . S
N201 C202 1.298 . S
N201 N204 1.398 . S
C202 N201 1.298 . S
C202 N205 1.367 . S
C202 C215 1.481 . S
C203 N204 1.299 . S
C203 N205 1.379 . S
N204 N201 1.398 . S
N204 C203 1.299 . S
N205 C202 1.367 . S
N205 C203 1.379 . S
C206 N208 1.298 . S
C206 N210 1.367 . S
C206 C214 1.481 . S
C207 N209 1.299 . S
C207 N210 1.379 . S
N208 Zn192 2.036 . S
N208 C206 1.298 . S
N208 N209 1.398 . S
N209 C207 1.299 . S
N209 N208 1.398 . S
N210 C206 1.367 . S
N210 C207 1.379 . S
H211 C214 0.980 . S
H212 C214 0.981 . S
H213 C214 0.981 . S
C214 C206 1.481 . S
C214 H211 0.980 . S
C214 H212 0.981 . S
C214 H213 0.981 . S
C215 C202 1.481 . S
C215 H216 0.980 . S
C215 H217 0.981 . S
C215 H218 0.981 . S
H216 C215 0.980 . S
H217 C215 0.981 . S
H218 C215 0.981 . S
O219 Zn195 2.066 . S
O219 C198 1.256 . S
O220 Zn192 2.053 . S
O220 C198 1.244 . S
C221 O199 1.259 . S
C221 O200 1.254 . S
O222 Zn192 2.066 . S
O222 C194 1.256 . S
O223 C194 1.244 . S
O223 Zn195 2.053 . S
Zn224 O225 2.055 . S
Zn224 O232 2.046 . S
Zn224 N240 2.036 . S
Zn224 O252 2.053 . S
Zn224 O254 2.066 . S
O225 Zn224 2.055 . S
O225 C228 1.259 . S
C226 O254 1.256 . S
C226 O255 1.244 . S
Zn227 O229 2.046 . S
Zn227 O231 2.055 . S
Zn227 N233 2.036 . S
Zn227 O251 2.066 . S
Zn227 O255 2.053 . S
C228 O225 1.259 . S
C228 O229 1.254 . S
O229 Zn227 2.046 . S
O229 C228 1.254 . S
C230 O251 1.256 . S
C230 O252 1.244 . S
O231 Zn227 2.055 . S
O231 C253 1.259 . S
O232 Zn224 2.046 . S
O232 C253 1.254 . S
N233 Zn227 2.036 . S
N233 C234 1.298 . S
N233 N236 1.398 . S
C234 N233 1.298 . S
C234 N237 1.367 . S
C234 C247 1.481 . S
C235 N236 1.299 . S
C235 N237 1.379 . S
N236 N233 1.398 . S
N236 C235 1.299 . S
N237 C234 1.367 . S
N237 C235 1.379 . S
C238 N240 1.298 . S
C238 N242 1.367 . S
C238 C246 1.481 . S
C239 N241 1.299 . S
C239 N242 1.379 . S
N240 Zn224 2.036 . S
N240 C238 1.298 . S
N240 N241 1.398 . S
N241 C239 1.299 . S
N241 N240 1.398 . S
N242 C238 1.367 . S
N242 C239 1.379 . S
H243 C246 0.980 . S
H244 C246 0.981 . S
H245 C246 0.981 . S
C246 C238 1.481 . S
C246 H243 0.980 . S
C246 H244 0.981 . S
C246 H245 0.981 . S
C247 C234 1.481 . S
C247 H248 0.980 . S
C247 H249 0.981 . S
C247 H250 0.981 . S
H248 C247 0.980 . S
H249 C247 0.981 . S
H250 C247 0.981 . S
O251 Zn227 2.066 . S
O251 C230 1.256 . S
O252 Zn224 2.053 . S
O252 C230 1.244 . S
C253 O231 1.259 . S
C253 O232 1.254 . S
O254 Zn224 2.066 . S
O254 C226 1.256 . S
O255 C226 1.244 . S
O255 Zn227 2.053 . S
Zn256 O257 2.055 . S
Zn256 O264 2.046 . S
Zn256 N272 2.036 . S
Zn256 O284 2.053 . S
Zn256 O286 2.066 . S
O257 Zn256 2.055 . S
O257 C260 1.259 . S
C258 O286 1.256 . S
C258 O287 1.244 . S
Zn259 O261 2.046 . S
Zn259 O263 2.055 . S
Zn259 N265 2.036 . S
Zn259 O283 2.066 . S
Zn259 O287 2.053 . S
C260 O257 1.259 . S
C260 O261 1.254 . S
O261 Zn259 2.046 . S
O261 C260 1.254 . S
C262 O283 1.256 . S
C262 O284 1.244 . S
O263 Zn259 2.055 . S
O263 C285 1.259 . S
O264 Zn256 2.046 . S
O264 C285 1.254 . S
N265 Zn259 2.036 . S
N265 C266 1.298 . S
N265 N268 1.398 . S
C266 N265 1.298 . S
C266 N269 1.367 . S
C266 C279 1.481 . S
C267 N268 1.299 . S
C267 N269 1.379 . S
N268 N265 1.398 . S
N268 C267 1.299 . S
N269 C266 1.367 . S
N269 C267 1.379 . S
C270 N272 1.298 . S
C270 N274 1.367 . S
C270 C278 1.481 . S
C271 N273 1.299 . S
C271 N274 1.379 . S
N272 Zn256 2.036 . S
N272 C270 1.298 . S
N272 N273 1.398 . S
N273 C271 1.299 . S
N273 N272 1.398 . S
N274 C270 1.367 . S
N274 C271 1.379 . S
H275 C278 0.980 . S
H276 C278 0.981 . S
H277 C278 0.981 . S
C278 C270 1.481 . S
C278 H275 0.980 . S
C278 H276 0.981 . S
C278 H277 0.981 . S
C279 C266 1.481 . S
C279 H280 0.980 . S
C279 H281 0.981 . S
C279 H282 0.981 . S
H280 C279 0.980 . S
H281 C279 0.981 . S
H282 C279 0.981 . S
O283 Zn259 2.066 . S
O283 C262 1.256 . S
O284 Zn256 2.053 . S
O284 C262 1.244 . S
C285 O263 1.259 . S
C285 O264 1.254 . S
O286 Zn256 2.066 . S
O286 C258 1.256 . S
O287 C258 1.244 . S
O287 Zn259 2.053 . S
Zn288 O289 2.055 . S
Zn288 O296 2.046 . S
Zn288 N304 2.036 . S
Zn288 O316 2.053 . S
Zn288 O318 2.066 . S
O289 Zn288 2.055 . S
O289 C292 1.259 . S
C290 O318 1.256 . S
C290 O319 1.244 . S
Zn291 O293 2.046 . S
Zn291 O295 2.055 . S
Zn291 N297 2.036 . S
Zn291 O315 2.066 . S
Zn291 O319 2.053 . S
C292 O289 1.259 . S
C292 O293 1.254 . S
O293 Zn291 2.046 . S
O293 C292 1.254 . S
C294 O315 1.256 . S
C294 O316 1.244 . S
O295 Zn291 2.055 . S
O295 C317 1.259 . S
O296 Zn288 2.046 . S
O296 C317 1.254 . S
N297 Zn291 2.036 . S
N297 C298 1.298 . S
N297 N300 1.398 . S
C298 N297 1.298 . S
C298 N301 1.367 . S
C298 C311 1.481 . S
C299 N300 1.299 . S
C299 N301 1.379 . S
N300 N297 1.398 . S
N300 C299 1.299 . S
N301 C298 1.367 . S
N301 C299 1.379 . S
C302 N304 1.298 . S
C302 N306 1.367 . S
C302 C310 1.481 . S
C303 N305 1.299 . S
C303 N306 1.379 . S
N304 Zn288 2.036 . S
N304 C302 1.298 . S
N304 N305 1.398 . S
N305 C303 1.299 . S
N305 N304 1.398 . S
N306 C302 1.367 . S
N306 C303 1.379 . S
H307 C310 0.980 . S
H308 C310 0.981 . S
H309 C310 0.981 . S
C310 C302 1.481 . S
C310 H307 0.980 . S
C310 H308 0.981 . S
C310 H309 0.981 . S
C311 C298 1.481 . S
C311 H312 0.980 . S
C311 H313 0.981 . S
C311 H314 0.981 . S
H312 C311 0.980 . S
H313 C311 0.981 . S
H314 C311 0.981 . S
O315 Zn291 2.066 . S
O315 C294 1.256 . S
O316 Zn288 2.053 . S
O316 C294 1.244 . S
C317 O295 1.259 . S
C317 O296 1.254 . S
O318 Zn288 2.066 . S
O318 C290 1.256 . S
O319 C290 1.244 . S
O319 Zn291 2.053 . S
Zn320 O321 2.055 . S
Zn320 O328 2.046 . S
Zn320 N336 2.036 . S
Zn320 O348 2.053 . S
Zn320 O350 2.066 . S
O321 Zn320 2.055 . S
O321 C324 1.259 1_554 S
C322 O350 1.256 . S
C322 O351 1.244 . S
Zn323 O325 2.046 1_554 S
Zn323 O327 2.055 . S
Zn323 N329 2.036 . S
Zn323 O347 2.066 . S
Zn323 O351 2.053 . S
C324 O321 1.259 1_556 S
C324 O325 1.254 . S
O325 Zn323 2.046 1_556 S
O325 C324 1.254 . S
C326 O347 1.256 . S
C326 O348 1.244 . S
O327 Zn323 2.055 . S
O327 C349 1.259 . S
O328 Zn320 2.046 . S
O328 C349 1.254 . S
N329 Zn323 2.036 . S
N329 C330 1.298 . S
N329 N332 1.398 1_554 S
C330 N329 1.298 . S
C330 N333 1.367 1_554 S
C330 C343 1.481 . S
C331 N332 1.299 . S
C331 N333 1.379 . S
N332 N329 1.398 1_556 S
N332 C331 1.299 . S
N333 C330 1.367 1_556 S
N333 C331 1.379 . S
C334 N336 1.298 . S
C334 N338 1.367 . S
C334 C342 1.481 . S
C335 N337 1.299 . S
C335 N338 1.379 . S
N336 Zn320 2.036 . S
N336 C334 1.298 . S
N336 N337 1.398 . S
N337 C335 1.299 . S
N337 N336 1.398 . S
N338 C334 1.367 . S
N338 C335 1.379 . S
H339 C342 0.980 . S
H340 C342 0.981 . S
H341 C342 0.981 . S
C342 C334 1.481 . S
C342 H339 0.980 . S
C342 H340 0.981 . S
C342 H341 0.981 . S
C343 C330 1.481 . S
C343 H344 0.980 . S
C343 H345 0.981 . S
C343 H346 0.981 . S
H344 C343 0.980 . S
H345 C343 0.981 . S
H346 C343 0.981 . S
O347 Zn323 2.066 . S
O347 C326 1.256 . S
O348 Zn320 2.053 . S
O348 C326 1.244 . S
C349 O327 1.259 . S
C349 O328 1.254 . S
O350 Zn320 2.066 . S
O350 C322 1.256 . S
O351 C322 1.244 . S
O351 Zn323 2.053 . S
Zn352 O353 2.055 . S
Zn352 O360 2.046 . S
Zn352 N368 2.036 . S
Zn352 O380 2.053 . S
Zn352 O382 2.066 . S
O353 Zn352 2.055 . S
O353 C356 1.259 . S
C354 O382 1.256 . S
C354 O383 1.244 . S
Zn355 O357 2.046 . S
Zn355 O359 2.055 . S
Zn355 N361 2.036 . S
Zn355 O379 2.066 . S
Zn355 O383 2.053 . S
C356 O353 1.259 . S
C356 O357 1.254 . S
O357 Zn355 2.046 . S
O357 C356 1.254 . S
C358 O379 1.256 . S
C358 O380 1.244 . S
O359 Zn355 2.055 . S
O359 C381 1.259 . S
O360 Zn352 2.046 . S
O360 C381 1.254 . S
N361 Zn355 2.036 . S
N361 C362 1.298 . S
N361 N364 1.398 . S
C362 N361 1.298 . S
C362 N365 1.367 . S
C362 C375 1.481 . S
C363 N364 1.299 . S
C363 N365 1.379 . S
N364 N361 1.398 . S
N364 C363 1.299 . S
N365 C362 1.367 . S
N365 C363 1.379 . S
C366 N368 1.298 . S
C366 N370 1.367 . S
C366 C374 1.481 . S
C367 N369 1.299 . S
C367 N370 1.379 . S
N368 Zn352 2.036 . S
N368 C366 1.298 . S
N368 N369 1.398 . S
N369 C367 1.299 . S
N369 N368 1.398 . S
N370 C366 1.367 . S
N370 C367 1.379 . S
H371 C374 0.980 . S
H372 C374 0.981 . S
H373 C374 0.981 . S
C374 C366 1.481 . S
C374 H371 0.980 . S
C374 H372 0.981 . S
C374 H373 0.981 . S
C375 C362 1.481 . S
C375 H376 0.980 . S
C375 H377 0.981 . S
C375 H378 0.981 . S
H376 C375 0.980 . S
H377 C375 0.981 . S
H378 C375 0.981 . S
O379 Zn355 2.066 . S
O379 C358 1.256 . S
O380 Zn352 2.053 . S
O380 C358 1.244 . S
C381 O359 1.259 . S
C381 O360 1.254 . S
O382 Zn352 2.066 . S
O382 C354 1.256 . S
O383 C354 1.244 . S
O383 Zn355 2.053 . S
Zn384 O385 2.055 . S
Zn384 O392 2.046 . S
Zn384 N400 2.036 . S
Zn384 O412 2.053 . S
Zn384 O414 2.066 . S
O385 Zn384 2.055 . S
O385 C388 1.259 . S
C386 O414 1.256 . S
C386 O415 1.244 . S
Zn387 O389 2.046 . S
Zn387 O391 2.055 . S
Zn387 N393 2.036 . S
Zn387 O411 2.066 . S
Zn387 O415 2.053 . S
C388 O385 1.259 . S
C388 O389 1.254 . S
O389 Zn387 2.046 . S
O389 C388 1.254 . S
C390 O411 1.256 . S
C390 O412 1.244 . S
O391 Zn387 2.055 . S
O391 C413 1.259 . S
O392 Zn384 2.046 . S
O392 C413 1.254 . S
N393 Zn387 2.036 . S
N393 C394 1.298 . S
N393 N396 1.398 . S
C394 N393 1.298 . S
C394 N397 1.367 . S
C394 C407 1.481 . S
C395 N396 1.299 . S
C395 N397 1.379 . S
N396 N393 1.398 . S
N396 C395 1.299 . S
N397 C394 1.367 . S
N397 C395 1.379 . S
C398 N400 1.298 . S
C398 N402 1.367 . S
C398 C406 1.481 . S
C399 N401 1.299 . S
C399 N402 1.379 . S
N400 Zn384 2.036 . S
N400 C398 1.298 . S
N400 N401 1.398 . S
N401 C399 1.299 . S
N401 N400 1.398 . S
N402 C398 1.367 . S
N402 C399 1.379 . S
H403 C406 0.980 . S
H404 C406 0.981 . S
H405 C406 0.981 . S
C406 C398 1.481 . S
C406 H403 0.980 . S
C406 H404 0.981 . S
C406 H405 0.981 . S
C407 C394 1.481 . S
C407 H408 0.980 . S
C407 H409 0.981 . S
C407 H410 0.981 . S
H408 C407 0.980 . S
H409 C407 0.981 . S
H410 C407 0.981 . S
O411 Zn387 2.066 . S
O411 C390 1.256 . S
O412 Zn384 2.053 . S
O412 C390 1.244 . S
C413 O391 1.259 . S
C413 O392 1.254 . S
O414 Zn384 2.066 . S
O414 C386 1.256 . S
O415 C386 1.244 . S
O415 Zn387 2.053 . S
Zn416 O417 2.055 . S
Zn416 O424 2.046 . S
Zn416 N432 2.036 . S
Zn416 O444 2.053 . S
Zn416 O446 2.066 . S
O417 Zn416 2.055 . S
O417 C420 1.259 . S
C418 O446 1.256 . S
C418 O447 1.244 . S
Zn419 O421 2.046 . S
Zn419 O423 2.055 . S
Zn419 N425 2.036 . S
Zn419 O443 2.066 . S
Zn419 O447 2.053 . S
C420 O417 1.259 . S
C420 O421 1.254 . S
O421 Zn419 2.046 . S
O421 C420 1.254 . S
C422 O443 1.256 . S
C422 O444 1.244 . S
O423 Zn419 2.055 . S
O423 C445 1.259 . S
O424 Zn416 2.046 . S
O424 C445 1.254 . S
N425 Zn419 2.036 . S
N425 C426 1.298 . S
N425 N428 1.398 . S
C426 N425 1.298 . S
C426 N429 1.367 . S
C426 C439 1.481 . S
C427 N428 1.299 . S
C427 N429 1.379 . S
N428 N425 1.398 . S
N428 C427 1.299 . S
N429 C426 1.367 . S
N429 C427 1.379 . S
C430 N432 1.298 . S
C430 N434 1.367 . S
C430 C438 1.481 . S
C431 N433 1.299 . S
C431 N434 1.379 . S
N432 Zn416 2.036 . S
N432 C430 1.298 . S
N432 N433 1.398 . S
N433 C431 1.299 . S
N433 N432 1.398 . S
N434 C430 1.367 . S
N434 C431 1.379 . S
H435 C438 0.980 . S
H436 C438 0.981 . S
H437 C438 0.981 . S
C438 C430 1.481 . S
C438 H435 0.980 . S
C438 H436 0.981 . S
C438 H437 0.981 . S
C439 C426 1.481 . S
C439 H440 0.980 . S
C439 H441 0.981 . S
C439 H442 0.981 . S
H440 C439 0.980 . S
H441 C439 0.981 . S
H442 C439 0.981 . S
O443 Zn419 2.066 . S
O443 C422 1.256 . S
O444 Zn416 2.053 . S
O444 C422 1.244 . S
C445 O423 1.259 . S
C445 O424 1.254 . S
O446 Zn416 2.066 . S
O446 C418 1.256 . S
O447 C418 1.244 . S
O447 Zn419 2.053 . S
Zn448 O449 2.055 . S
Zn448 O456 2.046 1_556 S
Zn448 N464 2.036 . S
Zn448 O476 2.053 . S
Zn448 O478 2.066 . S
O449 Zn448 2.055 . S
O449 C452 1.259 . S
C450 O478 1.256 . S
C450 O479 1.244 . S
Zn451 O453 2.046 . S
Zn451 O455 2.055 . S
Zn451 N457 2.036 . S
Zn451 O475 2.066 . S
Zn451 O479 2.053 . S
C452 O449 1.259 . S
C452 O453 1.254 . S
O453 Zn451 2.046 . S
O453 C452 1.254 . S
C454 O475 1.256 . S
C454 O476 1.244 . S
O455 Zn451 2.055 . S
O455 C477 1.259 1_556 S
O456 Zn448 2.046 1_554 S
O456 C477 1.254 . S
N457 Zn451 2.036 . S
N457 C458 1.298 . S
N457 N460 1.398 . S
C458 N457 1.298 . S
C458 N461 1.367 . S
C458 C471 1.481 . S
C459 N460 1.299 . S
C459 N461 1.379 . S
N460 N457 1.398 . S
N460 C459 1.299 . S
N461 C458 1.367 . S
N461 C459 1.379 . S
C462 N464 1.298 . S
C462 N466 1.367 1_556 S
C462 C470 1.481 . S
C463 N465 1.299 . S
C463 N466 1.379 . S
N464 Zn448 2.036 . S
N464 C462 1.298 . S
N464 N465 1.398 1_556 S
N465 C463 1.299 . S
N465 N464 1.398 1_554 S
N466 C462 1.367 1_554 S
N466 C463 1.379 . S
H467 C470 0.980 . S
H468 C470 0.981 . S
H469 C470 0.981 . S
C470 C462 1.481 . S
C470 H467 0.980 . S
C470 H468 0.981 . S
C470 H469 0.981 . S
C471 C458 1.481 . S
C471 H472 0.980 . S
C471 H473 0.981 . S
C471 H474 0.981 . S
H472 C471 0.980 . S
H473 C471 0.981 . S
H474 C471 0.981 . S
O475 Zn451 2.066 . S
O475 C454 1.256 . S
O476 Zn448 2.053 . S
O476 C454 1.244 . S
C477 O455 1.259 1_554 S
C477 O456 1.254 . S
O478 Zn448 2.066 . S
O478 C450 1.256 . S
O479 C450 1.244 . S
O479 Zn451 2.053 . S
Zn480 O481 2.055 . S
Zn480 O488 2.046 . S
Zn480 N496 2.036 . S
Zn480 O508 2.053 . S
Zn480 O510 2.066 . S
O481 Zn480 2.055 . S
O481 C484 1.259 . S
C482 O510 1.256 . S
C482 O511 1.244 . S
Zn483 O485 2.046 . S
Zn483 O487 2.055 . S
Zn483 N489 2.036 . S
Zn483 O507 2.066 . S
Zn483 O511 2.053 . S
C484 O481 1.259 . S
C484 O485 1.254 . S
O485 Zn483 2.046 . S
O485 C484 1.254 . S
C486 O507 1.256 . S
C486 O508 1.244 . S
O487 Zn483 2.055 . S
O487 C509 1.259 . S
O488 Zn480 2.046 . S
O488 C509 1.254 . S
N489 Zn483 2.036 . S
N489 C490 1.298 . S
N489 N492 1.398 . S
C490 N489 1.298 . S
C490 N493 1.367 . S
C490 C503 1.481 . S
C491 N492 1.299 . S
C491 N493 1.379 . S
N492 N489 1.398 . S
N492 C491 1.299 . S
N493 C490 1.367 . S
N493 C491 1.379 . S
C494 N496 1.298 . S
C494 N498 1.367 . S
C494 C502 1.481 . S
C495 N497 1.299 . S
C495 N498 1.379 . S
N496 Zn480 2.036 . S
N496 C494 1.298 . S
N496 N497 1.398 . S
N497 C495 1.299 . S
N497 N496 1.398 . S
N498 C494 1.367 . S
N498 C495 1.379 . S
H499 C502 0.980 . S
H500 C502 0.981 . S
H501 C502 0.981 . S
C502 C494 1.481 . S
C502 H499 0.980 . S
C502 H500 0.981 . S
C502 H501 0.981 . S
C503 C490 1.481 . S
C503 H504 0.980 . S
C503 H505 0.981 . S
C503 H506 0.981 . S
H504 C503 0.980 . S
H505 C503 0.981 . S
H506 C503 0.981 . S
O507 Zn483 2.066 . S
O507 C486 1.256 . S
O508 Zn480 2.053 . S
O508 C486 1.244 . S
C509 O487 1.259 . S
C509 O488 1.254 . S
O510 Zn480 2.066 . S
O510 C482 1.256 . S
O511 C482 1.244 . S
O511 Zn483 2.053 . S
C512 C513 1.349 . S
C512 C514 1.327 . S
C512 H537 0.950 . S
C513 C512 1.349 . S
C513 C529 1.349 . S
C514 C512 1.327 . S
C514 C533 1.429 . S
C514 H538 0.950 . S
C515 C532 1.574 . S
C515 C534 1.368 . S
C515 H539 0.949 . S
H516 C520 0.949 . S
C517 C518 1.349 . S
C517 C519 1.327 . S
C517 H540 0.950 . S
C518 C517 1.349 . S
C518 C530 1.349 . S
C519 C517 1.327 . S
C519 C535 1.429 . S
C519 H541 0.950 . S
C520 H516 0.949 . S
C520 C528 1.574 . S
C520 C536 1.368 . S
H521 C529 0.950 . S
H522 C527 0.950 . S
H523 C528 0.949 . S
H524 C530 0.950 . S
H525 C531 0.950 . S
H526 C532 0.949 . S
C527 H522 0.950 . S
C527 C529 1.327 . S
C527 C533 1.429 . S
C528 C520 1.574 . S
C528 H523 0.949 . S
C528 C534 1.368 . S
C529 C513 1.349 . S
C529 H521 0.950 . S
C529 C527 1.327 . S
C530 C518 1.349 . S
C530 H524 0.950 . S
C530 C531 1.327 . S
C531 H525 0.950 . S
C531 C530 1.327 . S
C531 C535 1.429 . S
C532 C515 1.574 . S
C532 H526 0.949 . S
C532 C536 1.368 . S
C533 C514 1.429 . S
C533 C527 1.429 . S
C533 C534 1.523 . S
C534 C515 1.368 . S
C534 C528 1.368 . S
C534 C533 1.523 . S
C535 C519 1.429 . S
C535 C531 1.429 . S
C535 C536 1.523 . S
C536 C520 1.368 . S
C536 C532 1.368 . S
C536 C535 1.523 . S
H537 C512 0.950 . S
H538 C514 0.950 . S
H539 C515 0.949 . S
H540 C517 0.950 . S
H541 C519 0.950 . S
C542 C543 1.349 . S
C542 C544 1.327 . S
C542 H567 0.950 . S
C543 C542 1.349 . S
C543 C559 1.349 . S
C544 C542 1.327 . S
C544 C563 1.429 . S
C544 H568 0.950 . S
C545 C562 1.574 . S
C545 C564 1.368 . S
C545 H569 0.949 . S
H546 C550 0.949 . S
C547 C548 1.349 . S
C547 C549 1.327 . S
C547 H570 0.950 . S
C548 C547 1.349 . S
C548 C560 1.349 . S
C549 C547 1.327 . S
C549 C565 1.429 . S
C549 H571 0.950 . S
C550 H546 0.949 . S
C550 C558 1.574 . S
C550 C566 1.368 . S
H551 C559 0.950 . S
H552 C557 0.950 . S
H553 C558 0.949 . S
H554 C560 0.950 . S
H555 C561 0.950 . S
H556 C562 0.949 . S
C557 H552 0.950 . S
C557 C559 1.327 . S
C557 C563 1.429 . S
C558 C550 1.574 . S
C558 H553 0.949 . S
C558 C564 1.368 . S
C559 C543 1.349 . S
C559 H551 0.950 . S
C559 C557 1.327 . S
C560 C548 1.349 . S
C560 H554 0.950 . S
C560 C561 1.327 . S
C561 H555 0.950 . S
C561 C560 1.327 . S
C561 C565 1.429 . S
C562 C545 1.574 . S
C562 H556 0.949 . S
C562 C566 1.368 . S
C563 C544 1.429 . S
C563 C557 1.429 . S
C563 C564 1.523 . S
C564 C545 1.368 . S
C564 C558 1.368 . S
C564 C563 1.523 . S
C565 C549 1.429 . S
C565 C561 1.429 . S
C565 C566 1.523 . S
C566 C550 1.368 . S
C566 C562 1.368 . S
C566 C565 1.523 . S
H567 C542 0.950 . S
H568 C544 0.950 . S
H569 C545 0.949 . S
H570 C547 0.950 . S
H571 C549 0.950 . S
C572 C573 1.349 . S
C572 C574 1.327 . S
C572 H597 0.950 . S
C573 C572 1.349 . S
C573 C589 1.349 . S
C574 C572 1.327 . S
C574 C593 1.429 . S
C574 H598 0.950 . S
C575 C592 1.574 1_455 S
C575 C594 1.368 . S
C575 H599 0.949 . S
H576 C580 0.949 . S
C577 C578 1.349 . S
C577 C579 1.327 . S
C577 H600 0.950 . S
C578 C577 1.349 . S
C578 C590 1.349 . S
C579 C577 1.327 . S
C579 C595 1.429 . S
C579 H601 0.950 . S
C580 H576 0.949 . S
C580 C588 1.574 1_655 S
C580 C596 1.368 . S
H581 C589 0.950 . S
H582 C587 0.950 . S
H583 C588 0.949 . S
H584 C590 0.950 . S
H585 C591 0.950 . S
H586 C592 0.949 . S
C587 H582 0.950 . S
C587 C589 1.327 . S
C587 C593 1.429 . S
C588 C580 1.574 1_455 S
C588 H583 0.949 . S
C588 C594 1.368 . S
C589 C573 1.349 . S
C589 H581 0.950 . S
C589 C587 1.327 . S
C590 C578 1.349 . S
C590 H584 0.950 . S
C590 C591 1.327 . S
C591 H585 0.950 . S
C591 C590 1.327 . S
C591 C595 1.429 . S
C592 C575 1.574 1_655 S
C592 H586 0.949 . S
C592 C596 1.368 . S
C593 C574 1.429 . S
C593 C587 1.429 . S
C593 C594 1.523 . S
C594 C575 1.368 . S
C594 C588 1.368 . S
C594 C593 1.523 . S
C595 C579 1.429 . S
C595 C591 1.429 . S
C595 C596 1.523 . S
C596 C580 1.368 . S
C596 C592 1.368 . S
C596 C595 1.523 . S
H597 C572 0.950 . S
H598 C574 0.950 . S
H599 C575 0.949 . S
H600 C577 0.950 . S
H601 C579 0.950 . S
C602 C603 1.349 . S
C602 C604 1.327 . S
C602 H627 0.950 . S
C603 C602 1.349 . S
C603 C619 1.349 . S
C604 C602 1.327 . S
C604 C623 1.429 . S
C604 H628 0.950 1_655 S
C605 C622 1.574 . S
C605 C624 1.368 . S
C605 H629 0.949 . S
H606 C610 0.949 . S
C607 C608 1.349 . S
C607 C609 1.327 . S
C607 H630 0.950 . S
C608 C607 1.349 . S
C608 C620 1.349 . S
C609 C607 1.327 . S
C609 C625 1.429 . S
C609 H631 0.950 1_455 S
C610 H606 0.949 . S
C610 C618 1.574 . S
C610 C626 1.368 . S
H611 C619 0.950 . S
H612 C617 0.950 . S
H613 C618 0.949 . S
H614 C620 0.950 . S
H615 C621 0.950 . S
H616 C622 0.949 . S
C617 H612 0.950 . S
C617 C619 1.327 . S
C617 C623 1.429 . S
C618 C610 1.574 . S
C618 H613 0.949 . S
C618 C624 1.368 1_455 S
C619 C603 1.349 . S
C619 H611 0.950 . S
C619 C617 1.327 . S
C620 C608 1.349 . S
C620 H614 0.950 . S
C620 C621 1.327 . S
C621 H615 0.950 . S
C621 C620 1.327 . S
C621 C625 1.429 . S
C622 C605 1.574 . S
C622 H616 0.949 . S
C622 C626 1.368 1_655 S
C623 C604 1.429 . S
C623 C617 1.429 . S
C623 C624 1.523 . S
C624 C605 1.368 . S
C624 C618 1.368 1_655 S
C624 C623 1.523 . S
C625 C609 1.429 . S
C625 C621 1.429 . S
C625 C626 1.523 . S
C626 C610 1.368 . S
C626 C622 1.368 1_455 S
C626 C625 1.523 . S
H627 C602 0.950 . S
H628 C604 0.950 1_455 S
H629 C605 0.949 . S
H630 C607 0.950 . S
H631 C609 0.950 1_655 S
C632 C633 1.349 . S
C632 C634 1.327 . S
C632 H657 0.950 . S
C633 C632 1.349 . S
C633 C649 1.349 . S
C634 C632 1.327 . S
C634 C653 1.429 . S
C634 H658 0.950 . S
C635 C652 1.574 . S
C635 C654 1.368 . S
C635 H659 0.949 . S
H636 C640 0.949 . S
C637 C638 1.349 . S
C637 C639 1.327 . S
C637 H660 0.950 . S
C638 C637 1.349 . S
C638 C650 1.349 . S
C639 C637 1.327 . S
C639 C655 1.429 . S
C639 H661 0.950 . S
C640 H636 0.949 . S
C640 C648 1.574 . S
C640 C656 1.368 . S
H641 C649 0.950 . S
H642 C647 0.950 . S
H643 C648 0.949 . S
H644 C650 0.950 . S
H645 C651 0.950 . S
H646 C652 0.949 . S
C647 H642 0.950 . S
C647 C649 1.327 . S
C647 C653 1.429 . S
C648 C640 1.574 . S
C648 H643 0.949 . S
C648 C654 1.368 . S
C649 C633 1.349 . S
C649 H641 0.950 . S
C649 C647 1.327 . S
C650 C638 1.349 . S
C650 H644 0.950 . S
C650 C651 1.327 . S
C651 H645 0.950 . S
C651 C650 1.327 . S
C651 C655 1.429 . S
C652 C635 1.574 . S
C652 H646 0.949 . S
C652 C656 1.368 . S
C653 C634 1.429 . S
C653 C647 1.429 . S
C653 C654 1.523 . S
C654 C635 1.368 . S
C654 C648 1.368 . S
C654 C653 1.523 . S
C655 C639 1.429 . S
C655 C651 1.429 . S
C655 C656 1.523 . S
C656 C640 1.368 . S
C656 C652 1.368 . S
C656 C655 1.523 . S
H657 C632 0.950 . S
H658 C634 0.950 . S
H659 C635 0.949 . S
H660 C637 0.950 . S
H661 C639 0.950 . S
C662 C663 1.349 . S
C662 C664 1.327 . S
C662 H687 0.950 . S
C663 C662 1.349 . S
C663 C679 1.349 . S
C664 C662 1.327 . S
C664 C683 1.429 . S
C664 H688 0.950 . S
C665 C682 1.574 . S
C665 C684 1.368 . S
C665 H689 0.949 . S
H666 C670 0.949 . S
C667 C668 1.349 . S
C667 C669 1.327 . S
C667 H690 0.950 . S
C668 C667 1.349 . S
C668 C680 1.349 . S
C669 C667 1.327 . S
C669 C685 1.429 . S
C669 H691 0.950 . S
C670 H666 0.949 . S
C670 C678 1.574 . S
C670 C686 1.368 . S
H671 C679 0.950 . S
H672 C677 0.950 . S
H673 C678 0.949 . S
H674 C680 0.950 . S
H675 C681 0.950 . S
H676 C682 0.949 . S
C677 H672 0.950 . S
C677 C679 1.327 . S
C677 C683 1.429 . S
C678 C670 1.574 . S
C678 H673 0.949 . S
C678 C684 1.368 . S
C679 C663 1.349 . S
C679 H671 0.950 . S
C679 C677 1.327 . S
C680 C668 1.349 . S
C680 H674 0.950 . S
C680 C681 1.327 . S
C681 H675 0.950 . S
C681 C680 1.327 . S
C681 C685 1.429 . S
C682 C665 1.574 . S
C682 H676 0.949 . S
C682 C686 1.368 . S
C683 C664 1.429 . S
C683 C677 1.429 . S
C683 C684 1.523 . S
C684 C665 1.368 . S
C684 C678 1.368 . S
C684 C683 1.523 . S
C685 C669 1.429 . S
C685 C681 1.429 . S
C685 C686 1.523 . S
C686 C670 1.368 . S
C686 C682 1.368 . S
C686 C685 1.523 . S
H687 C662 0.950 . S
H688 C664 0.950 . S
H689 C665 0.949 . S
H690 C667 0.950 . S
H691 C669 0.950 . S
C692 C693 1.349 . S
C692 C694 1.327 . S
C692 H717 0.950 . S
C693 C692 1.349 . S
C693 C709 1.349 . S
C694 C692 1.327 . S
C694 C713 1.429 . S
C694 H718 0.950 . S
C695 C712 1.574 1_655 S
C695 C714 1.368 . S
C695 H719 0.949 . S
H696 C700 0.949 . S
C697 C698 1.349 . S
C697 C699 1.327 . S
C697 H720 0.950 . S
C698 C697 1.349 . S
C698 C710 1.349 . S
C699 C697 1.327 . S
C699 C715 1.429 . S
C699 H721 0.950 . S
C700 H696 0.949 . S
C700 C708 1.574 1_455 S
C700 C716 1.368 . S
H701 C709 0.950 . S
H702 C707 0.950 . S
H703 C708 0.949 . S
H704 C710 0.950 . S
H705 C711 0.950 . S
H706 C712 0.949 . S
C707 H702 0.950 . S
C707 C709 1.327 . S
C707 C713 1.429 . S
C708 C700 1.574 1_655 S
C708 H703 0.949 . S
C708 C714 1.368 . S
C709 C693 1.349 . S
C709 H701 0.950 . S
C709 C707 1.327 . S
C710 C698 1.349 . S
C710 H704 0.950 . S
C710 C711 1.327 . S
C711 H705 0.950 . S
C711 C710 1.327 . S
C711 C715 1.429 . S
C712 C695 1.574 1_455 S
C712 H706 0.949 . S
C712 C716 1.368 . S
C713 C694 1.429 . S
C713 C707 1.429 . S
C713 C714 1.523 . S
C714 C695 1.368 . S
C714 C708 1.368 . S
C714 C713 1.523 . S
C715 C699 1.429 . S
C715 C711 1.429 . S
C715 C716 1.523 . S
C716 C700 1.368 . S
C716 C712 1.368 . S
C716 C715 1.523 . S
H717 C692 0.950 . S
H718 C694 0.950 . S
H719 C695 0.949 . S
H720 C697 0.950 . S
H721 C699 0.950 . S
C722 C723 1.349 . S
C722 C724 1.327 . S
C722 H747 0.950 . S
C723 C722 1.349 . S
C723 C739 1.349 . S
C724 C722 1.327 . S
C724 C743 1.429 . S
C724 H748 0.950 1_455 S
C725 C742 1.574 . S
C725 C744 1.368 . S
C725 H749 0.949 . S
H726 C730 0.949 . S
C727 C728 1.349 . S
C727 C729 1.327 . S
C727 H750 0.950 . S
C728 C727 1.349 . S
C728 C740 1.349 . S
C729 C727 1.327 . S
C729 C745 1.429 . S
C729 H751 0.950 1_655 S
C730 H726 0.949 . S
C730 C738 1.574 . S
C730 C746 1.368 . S
H731 C739 0.950 . S
H732 C737 0.950 . S
H733 C738 0.949 . S
H734 C740 0.950 . S
H735 C741 0.950 . S
H736 C742 0.949 . S
C737 H732 0.950 . S
C737 C739 1.327 . S
C737 C743 1.429 . S
C738 C730 1.574 . S
C738 H733 0.949 . S
C738 C744 1.368 1_655 S
C739 C723 1.349 . S
C739 H731 0.950 . S
C739 C737 1.327 . S
C740 C728 1.349 . S
C740 H734 0.950 . S
C740 C741 1.327 . S
C741 H735 0.950 . S
C741 C740 1.327 . S
C741 C745 1.429 . S
C742 C725 1.574 . S
C742 H736 0.949 . S
C742 C746 1.368 1_455 S
C743 C724 1.429 . S
C743 C737 1.429 . S
C743 C744 1.523 . S
C744 C725 1.368 . S
C744 C738 1.368 1_455 S
C744 C743 1.523 . S
C745 C729 1.429 . S
C745 C741 1.429 . S
C745 C746 1.523 . S
C746 C730 1.368 . S
C746 C742 1.368 1_655 S
C746 C745 1.523 . S
H747 C722 0.950 . S
H748 C724 0.950 1_655 S
H749 C725 0.949 . S
H750 C727 0.950 . S
H751 C729 0.950 1_455 S
C752 C753 1.349 . S
C752 C754 1.327 . S
C752 H777 0.950 . S
C753 C752 1.349 . S
C753 C769 1.349 . S
C754 C752 1.327 . S
C754 C773 1.429 . S
C754 H778 0.950 . S
C755 C772 1.574 . S
C755 C774 1.368 . S
C755 H779 0.949 . S
H756 C760 0.949 . S
C757 C758 1.349 . S
C757 C759 1.327 . S
C757 H780 0.950 . S
C758 C757 1.349 . S
C758 C770 1.349 . S
C759 C757 1.327 . S
C759 C775 1.429 . S
C759 H781 0.950 . S
C760 H756 0.949 . S
C760 C768 1.574 . S
C760 C776 1.368 . S
H761 C769 0.950 . S
H762 C767 0.950 . S
H763 C768 0.949 . S
H764 C770 0.950 1_554 S
H765 C771 0.950 . S
H766 C772 0.949 . S
C767 H762 0.950 . S
C767 C769 1.327 . S
C767 C773 1.429 . S
C768 C760 1.574 . S
C768 H763 0.949 . S
C768 C774 1.368 . S
C769 C753 1.349 . S
C769 H761 0.950 . S
C769 C767 1.327 . S
C770 C758 1.349 . S
C770 H764 0.950 1_556 S
C770 C771 1.327 . S
C771 H765 0.950 . S
C771 C770 1.327 . S
C771 C775 1.429 . S
C772 C755 1.574 . S
C772 H766 0.949 . S
C772 C776 1.368 . S
C773 C754 1.429 . S
C773 C767 1.429 . S
C773 C774 1.523 . S
C774 C755 1.368 . S
C774 C768 1.368 . S
C774 C773 1.523 . S
C775 C759 1.429 . S
C775 C771 1.429 . S
C775 C776 1.523 . S
C776 C760 1.368 . S
C776 C772 1.368 . S
C776 C775 1.523 . S
H777 C752 0.950 . S
H778 C754 0.950 . S
H779 C755 0.949 . S
H780 C757 0.950 . S
H781 C759 0.950 . S
C782 C783 1.349 . S
C782 C784 1.327 . S
C782 H807 0.950 . S
C783 C782 1.349 . S
C783 C799 1.349 . S
C784 C782 1.327 . S
C784 C803 1.429 . S
C784 H808 0.950 . S
C785 C802 1.574 . S
C785 C804 1.368 . S
C785 H809 0.949 . S
H786 C790 0.949 . S
C787 C788 1.349 . S
C787 C789 1.327 . S
C787 H810 0.950 . S
C788 C787 1.349 . S
C788 C800 1.349 . S
C789 C787 1.327 . S
C789 C805 1.429 . S
C789 H811 0.950 . S
C790 H786 0.949 . S
C790 C798 1.574 . S
C790 C806 1.368 . S
H791 C799 0.950 . S
H792 C797 0.950 . S
H793 C798 0.949 . S
H794 C800 0.950 . S
H795 C801 0.950 . S
H796 C802 0.949 . S
C797 H792 0.950 . S
C797 C799 1.327 . S
C797 C803 1.429 . S
C798 C790 1.574 . S
C798 H793 0.949 . S
C798 C804 1.368 . S
C799 C783 1.349 . S
C799 H791 0.950 . S
C799 C797 1.327 . S
C800 C788 1.349 . S
C800 H794 0.950 . S
C800 C801 1.327 . S
C801 H795 0.950 . S
C801 C800 1.327 . S
C801 C805 1.429 . S
C802 C785 1.574 . S
C802 H796 0.949 . S
C802 C806 1.368 . S
C803 C784 1.429 . S
C803 C797 1.429 . S
C803 C804 1.523 . S
C804 C785 1.368 . S
C804 C798 1.368 . S
C804 C803 1.523 . S
C805 C789 1.429 . S
C805 C801 1.429 . S
C805 C806 1.523 . S
C806 C790 1.368 . S
C806 C802 1.368 . S
C806 C805 1.523 . S
H807 C782 0.950 . S
H808 C784 0.950 . S
H809 C785 0.949 . S
H810 C787 0.950 . S
H811 C789 0.950 . S
C812 C813 1.349 . S
C812 C814 1.327 . S
C812 H837 0.950 . S
C813 C812 1.349 . S
C813 C829 1.349 . S
C814 C812 1.327 . S
C814 C833 1.429 . S
C814 H838 0.950 . S
C815 C832 1.574 . S
C815 C834 1.368 . S
C815 H839 0.949 . S
H816 C820 0.949 . S
C817 C818 1.349 . S
C817 C819 1.327 . S
C817 H840 0.950 . S
C818 C817 1.349 . S
C818 C830 1.349 . S
C819 C817 1.327 . S
C819 C835 1.429 . S
C819 H841 0.950 . S
C820 H816 0.949 . S
C820 C828 1.574 . S
C820 C836 1.368 . S
H821 C829 0.950 . S
H822 C827 0.950 . S
H823 C828 0.949 . S
H824 C830 0.950 . S
H825 C831 0.950 . S
H826 C832 0.949 . S
C827 H822 0.950 . S
C827 C829 1.327 . S
C827 C833 1.429 . S
C828 C820 1.574 . S
C828 H823 0.949 . S
C828 C834 1.368 . S
C829 C813 1.349 . S
C829 H821 0.950 . S
C829 C827 1.327 . S
C830 C818 1.349 . S
C830 H824 0.950 . S
C830 C831 1.327 . S
C831 H825 0.950 . S
C831 C830 1.327 . S
C831 C835 1.429 . S
C832 C815 1.574 . S
C832 H826 0.949 . S
C832 C836 1.368 . S
C833 C814 1.429 . S
C833 C827 1.429 . S
C833 C834 1.523 . S
C834 C815 1.368 . S
C834 C828 1.368 . S
C834 C833 1.523 . S
C835 C819 1.429 . S
C835 C831 1.429 . S
C835 C836 1.523 . S
C836 C820 1.368 . S
C836 C832 1.368 . S
C836 C835 1.523 . S
H837 C812 0.950 . S
H838 C814 0.950 . S
H839 C815 0.949 . S
H840 C817 0.950 . S
H841 C819 0.950 . S
C842 C843 1.349 . S
C842 C844 1.327 . S
C842 H867 0.950 . S
C843 C842 1.349 . S
C843 C859 1.349 . S
C844 C842 1.327 . S
C844 C863 1.429 . S
C844 H868 0.950 . S
C845 C862 1.574 . S
C845 C864 1.368 . S
C845 H869 0.949 . S
H846 C850 0.949 . S
C847 C848 1.349 . S
C847 C849 1.327 . S
C847 H870 0.950 . S
C848 C847 1.349 . S
C848 C860 1.349 . S
C849 C847 1.327 . S
C849 C865 1.429 . S
C849 H871 0.950 . S
C850 H846 0.949 . S
C850 C858 1.574 . S
C850 C866 1.368 . S
H851 C859 0.950 . S
H852 C857 0.950 . S
H853 C858 0.949 . S
H854 C860 0.950 . S
H855 C861 0.950 . S
H856 C862 0.949 . S
C857 H852 0.950 . S
C857 C859 1.327 . S
C857 C863 1.429 . S
C858 C850 1.574 . S
C858 H853 0.949 . S
C858 C864 1.368 . S
C859 C843 1.349 . S
C859 H851 0.950 . S
C859 C857 1.327 . S
C860 C848 1.349 . S
C860 H854 0.950 . S
C860 C861 1.327 . S
C861 H855 0.950 . S
C861 C860 1.327 . S
C861 C865 1.429 . S
C862 C845 1.574 . S
C862 H856 0.949 . S
C862 C866 1.368 . S
C863 C844 1.429 . S
C863 C857 1.429 . S
C863 C864 1.523 . S
C864 C845 1.368 . S
C864 C858 1.368 . S
C864 C863 1.523 . S
C865 C849 1.429 . S
C865 C861 1.429 . S
C865 C866 1.523 . S
C866 C850 1.368 . S
C866 C862 1.368 . S
C866 C865 1.523 . S
H867 C842 0.950 . S
H868 C844 0.950 . S
H869 C845 0.949 . S
H870 C847 0.950 . S
H871 C849 0.950 . S
C872 C873 1.349 . S
C872 C874 1.327 . S
C872 H897 0.950 . S
C873 C872 1.349 . S
C873 C889 1.349 1_554 S
C874 C872 1.327 . S
C874 C893 1.429 . S
C874 H898 0.950 . S
C875 C892 1.574 . S
C875 C894 1.368 . S
C875 H899 0.949 . S
H876 C880 0.949 . S
C877 C878 1.349 . S
C877 C879 1.327 . S
C877 H900 0.950 . S
C878 C877 1.349 . S
C878 C890 1.349 . S
C879 C877 1.327 . S
C879 C895 1.429 . S
C879 H901 0.950 . S
C880 H876 0.949 . S
C880 C888 1.574 . S
C880 C896 1.368 . S
H881 C889 0.950 . S
H882 C887 0.950 1_556 S
H883 C888 0.949 . S
H884 C890 0.950 . S
H885 C891 0.950 . S
H886 C892 0.949 . S
C887 H882 0.950 1_554 S
C887 C889 1.327 1_554 S
C887 C893 1.429 . S
C888 C880 1.574 . S
C888 H883 0.949 . S
C888 C894 1.368 . S
C889 C873 1.349 1_556 S
C889 H881 0.950 . S
C889 C887 1.327 1_556 S
C890 C878 1.349 . S
C890 H884 0.950 . S
C890 C891 1.327 . S
C891 H885 0.950 . S
C891 C890 1.327 . S
C891 C895 1.429 . S
C892 C875 1.574 . S
C892 H886 0.949 . S
C892 C896 1.368 . S
C893 C874 1.429 . S
C893 C887 1.429 . S
C893 C894 1.523 . S
C894 C875 1.368 . S
C894 C888 1.368 . S
C894 C893 1.523 . S
C895 C879 1.429 . S
C895 C891 1.429 . S
C895 C896 1.523 . S
C896 C880 1.368 . S
C896 C892 1.368 . S
C896 C895 1.523 . S
H897 C872 0.950 . S
H898 C874 0.950 . S
H899 C875 0.949 . S
H900 C877 0.950 . S
H901 C879 0.950 . S
C902 C903 1.349 . S
C902 C904 1.327 . S
C902 H927 0.950 . S
C903 C902 1.349 . S
C903 C919 1.349 . S
C904 C902 1.327 . S
C904 C923 1.429 . S
C904 H928 0.950 . S
C905 C922 1.574 . S
C905 C924 1.368 . S
C905 H929 0.949 . S
H906 C910 0.949 . S
C907 C908 1.349 . S
C907 C909 1.327 . S
C907 H930 0.950 . S
C908 C907 1.349 . S
C908 C920 1.349 . S
C909 C907 1.327 . S
C909 C925 1.429 . S
C909 H931 0.950 . S
C910 H906 0.949 . S
C910 C918 1.574 . S
C910 C926 1.368 . S
H911 C919 0.950 . S
H912 C917 0.950 . S
H913 C918 0.949 . S
H914 C920 0.950 . S
H915 C921 0.950 . S
H916 C922 0.949 . S
C917 H912 0.950 . S
C917 C919 1.327 . S
C917 C923 1.429 . S
C918 C910 1.574 . S
C918 H913 0.949 . S
C918 C924 1.368 . S
C919 C903 1.349 . S
C919 H911 0.950 . S
C919 C917 1.327 . S
C920 C908 1.349 . S
C920 H914 0.950 . S
C920 C921 1.327 . S
C921 H915 0.950 . S
C921 C920 1.327 . S
C921 C925 1.429 . S
C922 C905 1.574 . S
C922 H916 0.949 . S
C922 C926 1.368 . S
C923 C904 1.429 . S
C923 C917 1.429 . S
C923 C924 1.523 . S
C924 C905 1.368 . S
C924 C918 1.368 . S
C924 C923 1.523 . S
C925 C909 1.429 . S
C925 C921 1.429 . S
C925 C926 1.523 . S
C926 C910 1.368 . S
C926 C922 1.368 . S
C926 C925 1.523 . S
H927 C902 0.950 . S
H928 C904 0.950 . S
H929 C905 0.949 . S
H930 C907 0.950 . S
H931 C909 0.950 . S
C932 C933 1.349 . S
C932 C934 1.327 . S
C932 H957 0.950 . S
C933 C932 1.349 . S
C933 C949 1.349 . S
C934 C932 1.327 . S
C934 C953 1.429 . S
C934 H958 0.950 . S
C935 C952 1.574 . S
C935 C954 1.368 . S
C935 H959 0.949 . S
H936 C940 0.949 . S
C937 C938 1.349 . S
C937 C939 1.327 . S
C937 H960 0.950 . S
C938 C937 1.349 . S
C938 C950 1.349 . S
C939 C937 1.327 . S
C939 C955 1.429 . S
C939 H961 0.950 . S
C940 H936 0.949 . S
C940 C948 1.574 . S
C940 C956 1.368 . S
H941 C949 0.950 . S
H942 C947 0.950 . S
H943 C948 0.949 . S
H944 C950 0.950 . S
H945 C951 0.950 . S
H946 C952 0.949 . S
C947 H942 0.950 . S
C947 C949 1.327 . S
C947 C953 1.429 . S
C948 C940 1.574 . S
C948 H943 0.949 . S
C948 C954 1.368 . S
C949 C933 1.349 . S
C949 H941 0.950 . S
C949 C947 1.327 . S
C950 C938 1.349 . S
C950 H944 0.950 . S
C950 C951 1.327 . S
C951 H945 0.950 . S
C951 C950 1.327 . S
C951 C955 1.429 . S
C952 C935 1.574 . S
C952 H946 0.949 . S
C952 C956 1.368 . S
C953 C934 1.429 . S
C953 C947 1.429 . S
C953 C954 1.523 . S
C954 C935 1.368 . S
C954 C948 1.368 . S
C954 C953 1.523 . S
C955 C939 1.429 . S
C955 C951 1.429 . S
C955 C956 1.523 . S
C956 C940 1.368 . S
C956 C952 1.368 . S
C956 C955 1.523 . S
H957 C932 0.950 . S
H958 C934 0.950 . S
H959 C935 0.949 . S
H960 C937 0.950 . S
H961 C939 0.950 . S
C962 C963 1.349 . S
C962 C964 1.327 . S
C962 H987 0.950 . S
C963 C962 1.349 . S
C963 C979 1.349 . S
C964 C962 1.327 . S
C964 C983 1.429 . S
C964 H988 0.950 . S
C965 C982 1.574 . S
C965 C984 1.368 . S
C965 H989 0.949 . S
H966 C970 0.949 . S
C967 C968 1.349 . S
C967 C969 1.327 . S
C967 H990 0.950 . S
C968 C967 1.349 . S
C968 C980 1.349 . S
C969 C967 1.327 . S
C969 C985 1.429 . S
C969 H991 0.950 . S
C970 H966 0.949 . S
C970 C978 1.574 . S
C970 C986 1.368 . S
H971 C979 0.950 . S
H972 C977 0.950 . S
H973 C978 0.949 . S
H974 C980 0.950 . S
H975 C981 0.950 . S
H976 C982 0.949 . S
C977 H972 0.950 . S
C977 C979 1.327 . S
C977 C983 1.429 . S
C978 C970 1.574 . S
C978 H973 0.949 . S
C978 C984 1.368 . S
C979 C963 1.349 . S
C979 H971 0.950 . S
C979 C977 1.327 . S
C980 C968 1.349 . S
C980 H974 0.950 . S
C980 C981 1.327 . S
C981 H975 0.950 . S
C981 C980 1.327 . S
C981 C985 1.429 . S
C982 C965 1.574 . S
C982 H976 0.949 . S
C982 C986 1.368 . S
C983 C964 1.429 . S
C983 C977 1.429 . S
C983 C984 1.523 . S
C984 C965 1.368 . S
C984 C978 1.368 . S
C984 C983 1.523 . S
C985 C969 1.429 . S
C985 C981 1.429 . S
C985 C986 1.523 . S
C986 C970 1.368 . S
C986 C982 1.368 . S
C986 C985 1.523 . S
H987 C962 0.950 . S
H988 C964 0.950 . S
H989 C965 0.949 . S
H990 C967 0.950 . S
H991 C969 0.950 . S
C992 C993 1.349 . S
C992 C994 1.327 . S
C992 H1017 0.950 . S
C993 C992 1.349 . S
C993 C1009 1.349 . S
C994 C992 1.327 . S
C994 C1013 1.429 . S
C994 H1018 0.950 . S
C995 C1012 1.574 . S
C995 C1014 1.368 . S
C995 H1019 0.949 . S
H996 C1000 0.949 . S
C997 C998 1.349 . S
C997 C999 1.327 . S
C997 H1020 0.950 . S
C998 C997 1.349 . S
C998 C1010 1.349 . S
C999 C997 1.327 . S
C999 C1015 1.429 . S
C999 H1021 0.950 . S
C1000 H996 0.949 . S
C1000 C1008 1.574 . S
C1000 C1016 1.368 . S
H1001 C1009 0.950 . S
H1002 C1007 0.950 . S
H1003 C1008 0.949 . S
H1004 C1010 0.950 . S
H1005 C1011 0.950 . S
H1006 C1012 0.949 . S
C1007 H1002 0.950 . S
C1007 C1009 1.327 . S
C1007 C1013 1.429 . S
C1008 C1000 1.574 . S
C1008 H1003 0.949 . S
C1008 C1014 1.368 . S
C1009 C993 1.349 . S
C1009 H1001 0.950 . S
C1009 C1007 1.327 . S
C1010 C998 1.349 . S
C1010 H1004 0.950 . S
C1010 C1011 1.327 . S
C1011 H1005 0.950 . S
C1011 C1010 1.327 . S
C1011 C1015 1.429 . S
C1012 C995 1.574 . S
C1012 H1006 0.949 . S
C1012 C1016 1.368 . S
C1013 C994 1.429 . S
C1013 C1007 1.429 . S
C1013 C1014 1.523 . S
C1014 C995 1.368 . S
C1014 C1008 1.368 . S
C1014 C1013 1.523 . S
C1015 C999 1.429 . S
C1015 C1011 1.429 . S
C1015 C1016 1.523 . S
C1016 C1000 1.368 . S
C1016 C1012 1.368 . S
C1016 C1015 1.523 . S
H1017 C992 0.950 . S
H1018 C994 0.950 . S
H1019 C995 0.949 . S
H1020 C997 0.950 . S
H1021 C999 0.950 . S
C1022 C1023 1.349 1_565 S
C1022 C1024 1.327 . S
C1022 H1047 0.950 . S
C1023 C1022 1.349 1_545 S
C1023 C1039 1.349 . S
C1024 C1022 1.327 . S
C1024 C1043 1.429 . S
C1024 H1048 0.950 . S
C1025 C1042 1.574 . S
C1025 C1044 1.368 . S
C1025 H1049 0.949 . S
H1026 C1030 0.949 . S
C1027 C1028 1.349 . S
C1027 C1029 1.327 . S
C1027 H1050 0.950 . S
C1028 C1027 1.349 . S
C1028 C1040 1.349 . S
C1029 C1027 1.327 . S
C1029 C1045 1.429 . S
C1029 H1051 0.950 . S
C1030 H1026 0.949 . S
C1030 C1038 1.574 . S
C1030 C1046 1.368 . S
H1031 C1039 0.950 . S
H1032 C1037 0.950 . S
H1033 C1038 0.949 . S
H1034 C1040 0.950 . S
H1035 C1041 0.950 . S
H1036 C1042 0.949 . S
C1037 H1032 0.950 . S
C1037 C1039 1.327 1_565 S
C1037 C1043 1.429 . S
C1038 C1030 1.574 . S
C1038 H1033 0.949 . S
C1038 C1044 1.368 . S
C1039 C1023 1.349 . S
C1039 H1031 0.950 . S
C1039 C1037 1.327 1_545 S
C1040 C1028 1.349 . S
C1040 H1034 0.950 . S
C1040 C1041 1.327 . S
C1041 H1035 0.950 . S
C1041 C1040 1.327 . S
C1041 C1045 1.429 . S
C1042 C1025 1.574 . S
C1042 H1036 0.949 . S
C1042 C1046 1.368 . S
C1043 C1024 1.429 . S
C1043 C1037 1.429 . S
C1043 C1044 1.523 . S
C1044 C1025 1.368 . S
C1044 C1038 1.368 . S
C1044 C1043 1.523 . S
C1045 C1029 1.429 . S
C1045 C1041 1.429 . S
C1045 C1046 1.523 . S
C1046 C1030 1.368 . S
C1046 C1042 1.368 . S
C1046 C1045 1.523 . S
H1047 C1022 0.950 . S
H1048 C1024 0.950 . S
H1049 C1025 0.949 . S
H1050 C1027 0.950 . S
H1051 C1029 0.950 . S
C1052 C1053 1.349 . S
C1052 C1054 1.327 . S
C1052 H1077 0.950 . S
C1053 C1052 1.349 . S
C1053 C1069 1.349 1_556 S
C1054 C1052 1.327 . S
C1054 C1073 1.429 . S
C1054 H1078 0.950 . S
C1055 C1072 1.574 . S
C1055 C1074 1.368 . S
C1055 H1079 0.949 . S
H1056 C1060 0.949 . S
C1057 C1058 1.349 . S
C1057 C1059 1.327 . S
C1057 H1080 0.950 . S
C1058 C1057 1.349 . S
C1058 C1070 1.349 . S
C1059 C1057 1.327 . S
C1059 C1075 1.429 . S
C1059 H1081 0.950 . S
C1060 H1056 0.949 . S
C1060 C1068 1.574 . S
C1060 C1076 1.368 . S
H1061 C1069 0.950 . S
H1062 C1067 0.950 1_554 S
H1063 C1068 0.949 . S
H1064 C1070 0.950 . S
H1065 C1071 0.950 . S
H1066 C1072 0.949 . S
C1067 H1062 0.950 1_556 S
C1067 C1069 1.327 1_556 S
C1067 C1073 1.429 . S
C1068 C1060 1.574 . S
C1068 H1063 0.949 . S
C1068 C1074 1.368 . S
C1069 C1053 1.349 1_554 S
C1069 H1061 0.950 . S
C1069 C1067 1.327 1_554 S
C1070 C1058 1.349 . S
C1070 H1064 0.950 . S
C1070 C1071 1.327 . S
C1071 H1065 0.950 . S
C1071 C1070 1.327 . S
C1071 C1075 1.429 . S
C1072 C1055 1.574 . S
C1072 H1066 0.949 . S
C1072 C1076 1.368 . S
C1073 C1054 1.429 . S
C1073 C1067 1.429 . S
C1073 C1074 1.523 . S
C1074 C1055 1.368 . S
C1074 C1068 1.368 . S
C1074 C1073 1.523 . S
C1075 C1059 1.429 . S
C1075 C1071 1.429 . S
C1075 C1076 1.523 . S
C1076 C1060 1.368 . S
C1076 C1072 1.368 . S
C1076 C1075 1.523 . S
H1077 C1052 0.950 . S
H1078 C1054 0.950 . S
H1079 C1055 0.949 . S
H1080 C1057 0.950 . S
H1081 C1059 0.950 . S
C1082 C1083 1.349 1_545 S
C1082 C1084 1.327 . S
C1082 H1107 0.950 . S
C1083 C1082 1.349 1_565 S
C1083 C1099 1.349 . S
C1084 C1082 1.327 . S
C1084 C1103 1.429 . S
C1084 H1108 0.950 . S
C1085 C1102 1.574 . S
C1085 C1104 1.368 . S
C1085 H1109 0.949 . S
H1086 C1090 0.949 . S
C1087 C1088 1.349 . S
C1087 C1089 1.327 . S
C1087 H1110 0.950 . S
C1088 C1087 1.349 . S
C1088 C1100 1.349 . S
C1089 C1087 1.327 . S
C1089 C1105 1.429 . S
C1089 H1111 0.950 . S
C1090 H1086 0.949 . S
C1090 C1098 1.574 . S
C1090 C1106 1.368 . S
H1091 C1099 0.950 . S
H1092 C1097 0.950 . S
H1093 C1098 0.949 . S
H1094 C1100 0.950 . S
H1095 C1101 0.950 . S
H1096 C1102 0.949 . S
C1097 H1092 0.950 . S
C1097 C1099 1.327 1_545 S
C1097 C1103 1.429 . S
C1098 C1090 1.574 . S
C1098 H1093 0.949 . S
C1098 C1104 1.368 . S
C1099 C1083 1.349 . S
C1099 H1091 0.950 . S
C1099 C1097 1.327 1_565 S
C1100 C1088 1.349 . S
C1100 H1094 0.950 . S
C1100 C1101 1.327 . S
C1101 H1095 0.950 . S
C1101 C1100 1.327 . S
C1101 C1105 1.429 . S
C1102 C1085 1.574 . S
C1102 H1096 0.949 . S
C1102 C1106 1.368 . S
C1103 C1084 1.429 . S
C1103 C1097 1.429 . S
C1103 C1104 1.523 . S
C1104 C1085 1.368 . S
C1104 C1098 1.368 . S
C1104 C1103 1.523 . S
C1105 C1089 1.429 . S
C1105 C1101 1.429 . S
C1105 C1106 1.523 . S
C1106 C1090 1.368 . S
C1106 C1102 1.368 . S
C1106 C1105 1.523 . S
H1107 C1082 0.950 . S
H1108 C1084 0.950 . S
H1109 C1085 0.949 . S
H1110 C1087 0.950 . S
H1111 C1089 0.950 . S
C1112 C1113 1.349 . S
C1112 C1114 1.327 . S
C1112 H1137 0.950 . S
C1113 C1112 1.349 . S
C1113 C1129 1.349 . S
C1114 C1112 1.327 . S
C1114 C1133 1.429 . S
C1114 H1138 0.950 . S
C1115 C1132 1.574 . S
C1115 C1134 1.368 . S
C1115 H1139 0.949 . S
H1116 C1120 0.949 . S
C1117 C1118 1.349 . S
C1117 C1119 1.327 . S
C1117 H1140 0.950 . S
C1118 C1117 1.349 . S
C1118 C1130 1.349 . S
C1119 C1117 1.327 . S
C1119 C1135 1.429 . S
C1119 H1141 0.950 . S
C1120 H1116 0.949 . S
C1120 C1128 1.574 . S
C1120 C1136 1.368 . S
H1121 C1129 0.950 . S
H1122 C1127 0.950 . S
H1123 C1128 0.949 . S
H1124 C1130 0.950 . S
H1125 C1131 0.950 . S
H1126 C1132 0.949 . S
C1127 H1122 0.950 . S
C1127 C1129 1.327 . S
C1127 C1133 1.429 . S
C1128 C1120 1.574 . S
C1128 H1123 0.949 . S
C1128 C1134 1.368 . S
C1129 C1113 1.349 . S
C1129 H1121 0.950 . S
C1129 C1127 1.327 . S
C1130 C1118 1.349 . S
C1130 H1124 0.950 . S
C1130 C1131 1.327 . S
C1131 H1125 0.950 . S
C1131 C1130 1.327 . S
C1131 C1135 1.429 . S
C1132 C1115 1.574 . S
C1132 H1126 0.949 . S
C1132 C1136 1.368 . S
C1133 C1114 1.429 . S
C1133 C1127 1.429 . S
C1133 C1134 1.523 . S
C1134 C1115 1.368 . S
C1134 C1128 1.368 . S
C1134 C1133 1.523 . S
C1135 C1119 1.429 . S
C1135 C1131 1.429 . S
C1135 C1136 1.523 . S
C1136 C1120 1.368 . S
C1136 C1132 1.368 . S
C1136 C1135 1.523 . S
H1137 C1112 0.950 . S
H1138 C1114 0.950 . S
H1139 C1115 0.949 . S
H1140 C1117 0.950 . S
H1141 C1119 0.950 . S
C1142 C1143 1.349 . S
C1142 C1144 1.327 . S
C1142 H1167 0.950 . S
C1143 C1142 1.349 . S
C1143 C1159 1.349 . S
C1144 C1142 1.327 . S
C1144 C1163 1.429 . S
C1144 H1168 0.950 . S
C1145 C1162 1.574 . S
C1145 C1164 1.368 . S
C1145 H1169 0.949 . S
H1146 C1150 0.949 . S
C1147 C1148 1.349 1_545 S
C1147 C1149 1.327 . S
C1147 H1170 0.950 . S
C1148 C1147 1.349 1_565 S
C1148 C1160 1.349 . S
C1149 C1147 1.327 . S
C1149 C1165 1.429 . S
C1149 H1171 0.950 . S
C1150 H1146 0.949 . S
C1150 C1158 1.574 . S
C1150 C1166 1.368 . S
H1151 C1159 0.950 . S
H1152 C1157 0.950 . S
H1153 C1158 0.949 . S
H1154 C1160 0.950 . S
H1155 C1161 0.950 . S
H1156 C1162 0.949 . S
C1157 H1152 0.950 . S
C1157 C1159 1.327 . S
C1157 C1163 1.429 . S
C1158 C1150 1.574 . S
C1158 H1153 0.949 . S
C1158 C1164 1.368 . S
C1159 C1143 1.349 . S
C1159 H1151 0.950 . S
C1159 C1157 1.327 . S
C1160 C1148 1.349 . S
C1160 H1154 0.950 . S
C1160 C1161 1.327 1_565 S
C1161 H1155 0.950 . S
C1161 C1160 1.327 1_545 S
C1161 C1165 1.429 . S
C1162 C1145 1.574 . S
C1162 H1156 0.949 . S
C1162 C1166 1.368 . S
C1163 C1144 1.429 . S
C1163 C1157 1.429 . S
C1163 C1164 1.523 . S
C1164 C1145 1.368 . S
C1164 C1158 1.368 . S
C1164 C1163 1.523 . S
C1165 C1149 1.429 . S
C1165 C1161 1.429 . S
C1165 C1166 1.523 . S
C1166 C1150 1.368 . S
C1166 C1162 1.368 . S
C1166 C1165 1.523 . S
H1167 C1142 0.950 . S
H1168 C1144 0.950 . S
H1169 C1145 0.949 . S
H1170 C1147 0.950 . S
H1171 C1149 0.950 . S
C1172 C1173 1.349 . S
C1172 C1174 1.327 . S
C1172 H1197 0.950 . S
C1173 C1172 1.349 . S
C1173 C1189 1.349 . S
C1174 C1172 1.327 . S
C1174 C1193 1.429 . S
C1174 H1198 0.950 . S
C1175 C1192 1.574 . S
C1175 C1194 1.368 . S
C1175 H1199 0.949 . S
H1176 C1180 0.949 . S
C1177 C1178 1.349 1_556 S
C1177 C1179 1.327 1_556 S
C1177 H1200 0.950 . S
C1178 C1177 1.349 1_554 S
C1178 C1190 1.349 . S
C1179 C1177 1.327 1_554 S
C1179 C1195 1.429 . S
C1179 H1201 0.950 1_554 S
C1180 H1176 0.949 . S
C1180 C1188 1.574 . S
C1180 C1196 1.368 . S
H1181 C1189 0.950 . S
H1182 C1187 0.950 . S
H1183 C1188 0.949 . S
H1184 C1190 0.950 . S
H1185 C1191 0.950 . S
H1186 C1192 0.949 . S
C1187 H1182 0.950 . S
C1187 C1189 1.327 . S
C1187 C1193 1.429 . S
C1188 C1180 1.574 . S
C1188 H1183 0.949 . S
C1188 C1194 1.368 . S
C1189 C1173 1.349 . S
C1189 H1181 0.950 . S
C1189 C1187 1.327 . S
C1190 C1178 1.349 . S
C1190 H1184 0.950 . S
C1190 C1191 1.327 . S
C1191 H1185 0.950 . S
C1191 C1190 1.327 . S
C1191 C1195 1.429 . S
C1192 C1175 1.574 . S
C1192 H1186 0.949 . S
C1192 C1196 1.368 . S
C1193 C1174 1.429 . S
C1193 C1187 1.429 . S
C1193 C1194 1.523 . S
C1194 C1175 1.368 . S
C1194 C1188 1.368 . S
C1194 C1193 1.523 . S
C1195 C1179 1.429 . S
C1195 C1191 1.429 . S
C1195 C1196 1.523 . S
C1196 C1180 1.368 . S
C1196 C1192 1.368 . S
C1196 C1195 1.523 . S
H1197 C1172 0.950 . S
H1198 C1174 0.950 . S
H1199 C1175 0.949 . S
H1200 C1177 0.950 . S
H1201 C1179 0.950 1_556 S
C1202 C1203 1.349 . S
C1202 C1204 1.327 1_545 S
C1202 H1227 0.950 . S
C1203 C1202 1.349 . S
C1203 C1219 1.349 1_545 S
C1204 C1202 1.327 1_565 S
C1204 C1223 1.429 . S
C1204 H1228 0.950 . S
C1205 C1222 1.574 . S
C1205 C1224 1.368 . S
C1205 H1229 0.949 . S
H1206 C1210 0.949 . S
C1207 C1208 1.349 . S
C1207 C1209 1.327 . S
C1207 H1230 0.950 . S
C1208 C1207 1.349 . S
C1208 C1220 1.349 . S
C1209 C1207 1.327 . S
C1209 C1225 1.429 . S
C1209 H1231 0.950 . S
C1210 H1206 0.949 . S
C1210 C1218 1.574 . S
C1210 C1226 1.368 . S
H1211 C1219 0.950 . S
H1212 C1217 0.950 . S
H1213 C1218 0.949 . S
H1214 C1220 0.950 . S
H1215 C1221 0.950 . S
H1216 C1222 0.949 . S
C1217 H1212 0.950 . S
C1217 C1219 1.327 . S
C1217 C1223 1.429 . S
C1218 C1210 1.574 . S
C1218 H1213 0.949 . S
C1218 C1224 1.368 . S
C1219 C1203 1.349 1_565 S
C1219 H1211 0.950 . S
C1219 C1217 1.327 . S
C1220 C1208 1.349 . S
C1220 H1214 0.950 . S
C1220 C1221 1.327 . S
C1221 H1215 0.950 . S
C1221 C1220 1.327 . S
C1221 C1225 1.429 . S
C1222 C1205 1.574 . S
C1222 H1216 0.949 . S
C1222 C1226 1.368 . S
C1223 C1204 1.429 . S
C1223 C1217 1.429 . S
C1223 C1224 1.523 . S
C1224 C1205 1.368 . S
C1224 C1218 1.368 . S
C1224 C1223 1.523 . S
C1225 C1209 1.429 . S
C1225 C1221 1.429 . S
C1225 C1226 1.523 . S
C1226 C1210 1.368 . S
C1226 C1222 1.368 . S
C1226 C1225 1.523 . S
H1227 C1202 0.950 . S
H1228 C1204 0.950 . S
H1229 C1205 0.949 . S
H1230 C1207 0.950 . S
H1231 C1209 0.950 . S
C1232 C1233 1.349 . S
C1232 C1234 1.327 . S
C1232 H1257 0.950 . S
C1233 C1232 1.349 . S
C1233 C1249 1.349 . S
C1234 C1232 1.327 . S
C1234 C1253 1.429 . S
C1234 H1258 0.950 . S
C1235 C1252 1.574 . S
C1235 C1254 1.368 . S
C1235 H1259 0.949 . S
H1236 C1240 0.949 . S
C1237 C1238 1.349 . S
C1237 C1239 1.327 . S
C1237 H1260 0.950 . S
C1238 C1237 1.349 . S
C1238 C1250 1.349 . S
C1239 C1237 1.327 . S
C1239 C1255 1.429 . S
C1239 H1261 0.950 . S
C1240 H1236 0.949 . S
C1240 C1248 1.574 . S
C1240 C1256 1.368 . S
H1241 C1249 0.950 . S
H1242 C1247 0.950 . S
H1243 C1248 0.949 . S
H1244 C1250 0.950 . S
H1245 C1251 0.950 . S
H1246 C1252 0.949 . S
C1247 H1242 0.950 . S
C1247 C1249 1.327 . S
C1247 C1253 1.429 . S
C1248 C1240 1.574 . S
C1248 H1243 0.949 . S
C1248 C1254 1.368 . S
C1249 C1233 1.349 . S
C1249 H1241 0.950 . S
C1249 C1247 1.327 . S
C1250 C1238 1.349 . S
C1250 H1244 0.950 . S
C1250 C1251 1.327 . S
C1251 H1245 0.950 . S
C1251 C1250 1.327 . S
C1251 C1255 1.429 . S
C1252 C1235 1.574 . S
C1252 H1246 0.949 . S
C1252 C1256 1.368 . S
C1253 C1234 1.429 . S
C1253 C1247 1.429 . S
C1253 C1254 1.523 . S
C1254 C1235 1.368 . S
C1254 C1248 1.368 . S
C1254 C1253 1.523 . S
C1255 C1239 1.429 . S
C1255 C1251 1.429 . S
C1255 C1256 1.523 . S
C1256 C1240 1.368 . S
C1256 C1252 1.368 . S
C1256 C1255 1.523 . S
H1257 C1232 0.950 . S
H1258 C1234 0.950 . S
H1259 C1235 0.949 . S
H1260 C1237 0.950 . S
H1261 C1239 0.950 . S
C1262 C1263 1.349 . S
C1262 C1264 1.327 . S
C1262 H1287 0.950 . S
C1263 C1262 1.349 . S
C1263 C1279 1.349 . S
C1264 C1262 1.327 . S
C1264 C1283 1.429 . S
C1264 H1288 0.950 . S
C1265 C1282 1.574 . S
C1265 C1284 1.368 . S
C1265 H1289 0.949 . S
H1266 C1270 0.949 . S
C1267 C1268 1.349 . S
C1267 C1269 1.327 . S
C1267 H1290 0.950 . S
C1268 C1267 1.349 . S
C1268 C1280 1.349 . S
C1269 C1267 1.327 . S
C1269 C1285 1.429 . S
C1269 H1291 0.950 . S
C1270 H1266 0.949 . S
C1270 C1278 1.574 . S
C1270 C1286 1.368 . S
H1271 C1279 0.950 . S
H1272 C1277 0.950 . S
H1273 C1278 0.949 . S
H1274 C1280 0.950 1_556 S
H1275 C1281 0.950 . S
H1276 C1282 0.949 . S
C1277 H1272 0.950 . S
C1277 C1279 1.327 . S
C1277 C1283 1.429 . S
C1278 C1270 1.574 . S
C1278 H1273 0.949 . S
C1278 C1284 1.368 . S
C1279 C1263 1.349 . S
C1279 H1271 0.950 . S
C1279 C1277 1.327 . S
C1280 C1268 1.349 . S
C1280 H1274 0.950 1_554 S
C1280 C1281 1.327 . S
C1281 H1275 0.950 . S
C1281 C1280 1.327 . S
C1281 C1285 1.429 . S
C1282 C1265 1.574 . S
C1282 H1276 0.949 . S
C1282 C1286 1.368 . S
C1283 C1264 1.429 . S
C1283 C1277 1.429 . S
C1283 C1284 1.523 . S
C1284 C1265 1.368 . S
C1284 C1278 1.368 . S
C1284 C1283 1.523 . S
C1285 C1269 1.429 . S
C1285 C1281 1.429 . S
C1285 C1286 1.523 . S
C1286 C1270 1.368 . S
C1286 C1282 1.368 . S
C1286 C1285 1.523 . S
H1287 C1262 0.950 . S
H1288 C1264 0.950 . S
H1289 C1265 0.949 . S
H1290 C1267 0.950 . S
H1291 C1269 0.950 . S
C1292 C1293 1.349 . S
C1292 C1294 1.327 . S
C1292 H1317 0.950 . S
C1293 C1292 1.349 . S
C1293 C1309 1.349 1_655 S
C1294 C1292 1.327 . S
C1294 C1313 1.429 1_655 S
C1294 H1318 0.950 . S
C1295 C1312 1.574 . S
C1295 C1314 1.368 . S
C1295 H1319 0.949 . S
H1296 C1300 0.949 . S
C1297 C1298 1.349 . S
C1297 C1299 1.327 . S
C1297 H1320 0.950 . S
C1298 C1297 1.349 . S
C1298 C1310 1.349 . S
C1299 C1297 1.327 . S
C1299 C1315 1.429 . S
C1299 H1321 0.950 . S
C1300 H1296 0.949 . S
C1300 C1308 1.574 . S
C1300 C1316 1.368 . S
H1301 C1309 0.950 . S
H1302 C1307 0.950 . S
H1303 C1308 0.949 . S
H1304 C1310 0.950 . S
H1305 C1311 0.950 . S
H1306 C1312 0.949 . S
C1307 H1302 0.950 . S
C1307 C1309 1.327 . S
C1307 C1313 1.429 . S
C1308 C1300 1.574 . S
C1308 H1303 0.949 . S
C1308 C1314 1.368 . S
C1309 C1293 1.349 1_455 S
C1309 H1301 0.950 . S
C1309 C1307 1.327 . S
C1310 C1298 1.349 . S
C1310 H1304 0.950 . S
C1310 C1311 1.327 . S
C1311 H1305 0.950 . S
C1311 C1310 1.327 . S
C1311 C1315 1.429 . S
C1312 C1295 1.574 . S
C1312 H1306 0.949 . S
C1312 C1316 1.368 . S
C1313 C1294 1.429 1_455 S
C1313 C1307 1.429 . S
C1313 C1314 1.523 . S
C1314 C1295 1.368 . S
C1314 C1308 1.368 . S
C1314 C1313 1.523 . S
C1315 C1299 1.429 . S
C1315 C1311 1.429 . S
C1315 C1316 1.523 . S
C1316 C1300 1.368 . S
C1316 C1312 1.368 . S
C1316 C1315 1.523 . S
H1317 C1292 0.950 . S
H1318 C1294 0.950 . S
H1319 C1295 0.949 . S
H1320 C1297 0.950 . S
H1321 C1299 0.950 . S
C1322 C1323 1.349 . S
C1322 C1324 1.327 . S
C1322 H1347 0.950 . S
C1323 C1322 1.349 . S
C1323 C1339 1.349 . S
C1324 C1322 1.327 . S
C1324 C1343 1.429 . S
C1324 H1348 0.950 . S
C1325 C1342 1.574 . S
C1325 C1344 1.368 . S
C1325 H1349 0.949 . S
H1326 C1330 0.949 . S
C1327 C1328 1.349 . S
C1327 C1329 1.327 . S
C1327 H1350 0.950 . S
C1328 C1327 1.349 . S
C1328 C1340 1.349 . S
C1329 C1327 1.327 . S
C1329 C1345 1.429 . S
C1329 H1351 0.950 . S
C1330 H1326 0.949 . S
C1330 C1338 1.574 . S
C1330 C1346 1.368 . S
H1331 C1339 0.950 . S
H1332 C1337 0.950 . S
H1333 C1338 0.949 . S
H1334 C1340 0.950 . S
H1335 C1341 0.950 . S
H1336 C1342 0.949 . S
C1337 H1332 0.950 . S
C1337 C1339 1.327 . S
C1337 C1343 1.429 . S
C1338 C1330 1.574 . S
C1338 H1333 0.949 . S
C1338 C1344 1.368 . S
C1339 C1323 1.349 . S
C1339 H1331 0.950 . S
C1339 C1337 1.327 . S
C1340 C1328 1.349 . S
C1340 H1334 0.950 . S
C1340 C1341 1.327 . S
C1341 H1335 0.950 . S
C1341 C1340 1.327 . S
C1341 C1345 1.429 . S
C1342 C1325 1.574 . S
C1342 H1336 0.949 . S
C1342 C1346 1.368 . S
C1343 C1324 1.429 . S
C1343 C1337 1.429 . S
C1343 C1344 1.523 . S
C1344 C1325 1.368 . S
C1344 C1338 1.368 . S
C1344 C1343 1.523 . S
C1345 C1329 1.429 . S
C1345 C1341 1.429 . S
C1345 C1346 1.523 . S
C1346 C1330 1.368 . S
C1346 C1342 1.368 . S
C1346 C1345 1.523 . S
H1347 C1322 0.950 . S
H1348 C1324 0.950 . S
H1349 C1325 0.949 . S
H1350 C1327 0.950 . S
H1351 C1329 0.950 . S
C1352 C1353 1.349 . S
C1352 C1354 1.327 . S
C1352 H1377 0.950 . S
C1353 C1352 1.349 . S
C1353 C1369 1.349 . S
C1354 C1352 1.327 . S
C1354 C1373 1.429 . S
C1354 H1378 0.950 . S
C1355 C1372 1.574 . S
C1355 C1374 1.368 . S
C1355 H1379 0.949 . S
H1356 C1360 0.949 . S
C1357 C1358 1.349 . S
C1357 C1359 1.327 . S
C1357 H1380 0.950 . S
C1358 C1357 1.349 . S
C1358 C1370 1.349 . S
C1359 C1357 1.327 . S
C1359 C1375 1.429 . S
C1359 H1381 0.950 . S
C1360 H1356 0.949 . S
C1360 C1368 1.574 . S
C1360 C1376 1.368 . S
H1361 C1369 0.950 . S
H1362 C1367 0.950 . S
H1363 C1368 0.949 . S
H1364 C1370 0.950 . S
H1365 C1371 0.950 . S
H1366 C1372 0.949 . S
C1367 H1362 0.950 . S
C1367 C1369 1.327 . S
C1367 C1373 1.429 . S
C1368 C1360 1.574 . S
C1368 H1363 0.949 . S
C1368 C1374 1.368 . S
C1369 C1353 1.349 . S
C1369 H1361 0.950 . S
C1369 C1367 1.327 . S
C1370 C1358 1.349 . S
C1370 H1364 0.950 . S
C1370 C1371 1.327 . S
C1371 H1365 0.950 . S
C1371 C1370 1.327 . S
C1371 C1375 1.429 . S
C1372 C1355 1.574 . S
C1372 H1366 0.949 . S
C1372 C1376 1.368 . S
C1373 C1354 1.429 . S
C1373 C1367 1.429 . S
C1373 C1374 1.523 . S
C1374 C1355 1.368 . S
C1374 C1368 1.368 . S
C1374 C1373 1.523 . S
C1375 C1359 1.429 . S
C1375 C1371 1.429 . S
C1375 C1376 1.523 . S
C1376 C1360 1.368 . S
C1376 C1372 1.368 . S
C1376 C1375 1.523 . S
H1377 C1352 0.950 . S
H1378 C1354 0.950 . S
H1379 C1355 0.949 . S
H1380 C1357 0.950 . S
H1381 C1359 0.950 . S
C1382 C1383 1.349 . S
C1382 C1384 1.327 . S
C1382 H1407 0.950 . S
C1383 C1382 1.349 . S
C1383 C1399 1.349 . S
C1384 C1382 1.327 . S
C1384 C1403 1.429 . S
C1384 H1408 0.950 . S
C1385 C1402 1.574 . S
C1385 C1404 1.368 . S
C1385 H1409 0.949 . S
H1386 C1390 0.949 . S
C1387 C1388 1.349 . S
C1387 C1389 1.327 . S
C1387 H1410 0.950 . S
C1388 C1387 1.349 . S
C1388 C1400 1.349 . S
C1389 C1387 1.327 . S
C1389 C1405 1.429 . S
C1389 H1411 0.950 . S
C1390 H1386 0.949 . S
C1390 C1398 1.574 . S
C1390 C1406 1.368 . S
H1391 C1399 0.950 . S
H1392 C1397 0.950 . S
H1393 C1398 0.949 . S
H1394 C1400 0.942 1_554 S
H1395 C1401 0.950 . S
H1396 C1402 0.949 . S
C1397 H1392 0.950 . S
C1397 C1399 1.327 . S
C1397 C1403 1.429 . S
C1398 C1390 1.574 . S
C1398 H1393 0.949 . S
C1398 C1404 1.368 . S
C1399 C1383 1.349 . S
C1399 H1391 0.950 . S
C1399 C1397 1.327 . S
C1400 C1388 1.349 . S
C1400 H1394 0.942 1_556 S
C1400 C1401 1.327 . S
C1401 H1395 0.950 . S
C1401 C1400 1.327 . S
C1401 C1405 1.429 . S
C1402 C1385 1.574 . S
C1402 H1396 0.949 . S
C1402 C1406 1.368 . S
C1403 C1384 1.429 . S
C1403 C1397 1.429 . S
C1403 C1404 1.523 . S
C1404 C1385 1.368 . S
C1404 C1398 1.368 . S
C1404 C1403 1.523 . S
C1405 C1389 1.429 . S
C1405 C1401 1.429 . S
C1405 C1406 1.523 . S
C1406 C1390 1.368 . S
C1406 C1402 1.368 . S
C1406 C1405 1.523 . S
H1407 C1382 0.950 . S
H1408 C1384 0.950 . S
H1409 C1385 0.949 . S
H1410 C1387 0.950 . S
H1411 C1389 0.950 . S
C1412 C1413 1.349 . S
C1412 C1414 1.327 1_455 S
C1412 H1437 0.950 . S
C1413 C1412 1.349 . S
C1413 C1429 1.349 . S
C1414 C1412 1.327 1_655 S
C1414 C1433 1.429 . S
C1414 H1438 0.950 . S
C1415 C1432 1.574 . S
C1415 C1434 1.368 . S
C1415 H1439 0.949 . S
H1416 C1420 0.949 . S
C1417 C1418 1.349 . S
C1417 C1419 1.327 . S
C1417 H1440 0.950 . S
C1418 C1417 1.349 . S
C1418 C1430 1.349 . S
C1419 C1417 1.327 . S
C1419 C1435 1.429 . S
C1419 H1441 0.950 . S
C1420 H1416 0.949 . S
C1420 C1428 1.574 . S
C1420 C1436 1.368 . S
H1421 C1429 0.950 . S
H1422 C1427 0.950 . S
H1423 C1428 0.949 . S
H1424 C1430 0.950 . S
H1425 C1431 0.950 . S
H1426 C1432 0.949 . S
C1427 H1422 0.950 . S
C1427 C1429 1.327 1_655 S
C1427 C1433 1.429 . S
C1428 C1420 1.574 . S
C1428 H1423 0.949 . S
C1428 C1434 1.368 . S
C1429 C1413 1.349 . S
C1429 H1421 0.950 . S
C1429 C1427 1.327 1_455 S
C1430 C1418 1.349 . S
C1430 H1424 0.950 . S
C1430 C1431 1.327 . S
C1431 H1425 0.950 . S
C1431 C1430 1.327 . S
C1431 C1435 1.429 . S
C1432 C1415 1.574 . S
C1432 H1426 0.949 . S
C1432 C1436 1.368 . S
C1433 C1414 1.429 . S
C1433 C1427 1.429 . S
C1433 C1434 1.523 . S
C1434 C1415 1.368 . S
C1434 C1428 1.368 . S
C1434 C1433 1.523 . S
C1435 C1419 1.429 . S
C1435 C1431 1.429 . S
C1435 C1436 1.523 . S
C1436 C1420 1.368 . S
C1436 C1432 1.368 . S
C1436 C1435 1.523 . S
H1437 C1412 0.950 . S
H1438 C1414 0.950 . S
H1439 C1415 0.949 . S
H1440 C1417 0.950 . S
H1441 C1419 0.950 . S
C1442 C1443 1.349 . S
C1442 C1444 1.327 . S
C1442 H1467 0.950 . S
C1443 C1442 1.349 . S
C1443 C1459 1.349 . S
C1444 C1442 1.327 . S
C1444 C1463 1.429 . S
C1444 H1468 0.950 . S
C1445 C1462 1.574 . S
C1445 C1464 1.368 . S
C1445 H1469 0.949 . S
H1446 C1450 0.949 . S
C1447 C1448 1.349 . S
C1447 C1449 1.327 . S
C1447 H1470 0.950 . S
C1448 C1447 1.349 . S
C1448 C1460 1.349 . S
C1449 C1447 1.327 . S
C1449 C1465 1.429 . S
C1449 H1471 0.950 . S
C1450 H1446 0.949 . S
C1450 C1458 1.574 . S
C1450 C1466 1.368 . S
H1451 C1459 0.950 . S
H1452 C1457 0.950 . S
H1453 C1458 0.949 . S
H1454 C1460 0.950 . S
H1455 C1461 0.950 . S
H1456 C1462 0.949 . S
C1457 H1452 0.950 . S
C1457 C1459 1.327 . S
C1457 C1463 1.429 . S
C1458 C1450 1.574 . S
C1458 H1453 0.949 . S
C1458 C1464 1.368 . S
C1459 C1443 1.349 . S
C1459 H1451 0.950 . S
C1459 C1457 1.327 . S
C1460 C1448 1.349 . S
C1460 H1454 0.950 . S
C1460 C1461 1.327 . S
C1461 H1455 0.950 . S
C1461 C1460 1.327 . S
C1461 C1465 1.429 . S
C1462 C1445 1.574 . S
C1462 H1456 0.949 . S
C1462 C1466 1.368 . S
C1463 C1444 1.429 . S
C1463 C1457 1.429 . S
C1463 C1464 1.523 . S
C1464 C1445 1.368 . S
C1464 C1458 1.368 . S
C1464 C1463 1.523 . S
C1465 C1449 1.429 . S
C1465 C1461 1.429 . S
C1465 C1466 1.523 . S
C1466 C1450 1.368 . S
C1466 C1462 1.368 . S
C1466 C1465 1.523 . S
H1467 C1442 0.950 . S
H1468 C1444 0.950 . S
H1469 C1445 0.949 . S
H1470 C1447 0.950 . S
H1471 C1449 0.950 . S
C1472 C1473 1.349 . S
C1472 C1474 1.327 . S
C1472 H1497 0.950 . S
C1473 C1472 1.349 . S
C1473 C1489 1.349 . S
C1474 C1472 1.327 . S
C1474 C1493 1.429 . S
C1474 H1498 0.950 . S
C1475 C1492 1.574 . S
C1475 C1494 1.368 . S
C1475 H1499 0.949 . S
H1476 C1480 0.949 . S
C1477 C1478 1.349 . S
C1477 C1479 1.327 . S
C1477 H1500 0.950 . S
C1478 C1477 1.349 . S
C1478 C1490 1.349 1_455 S
C1479 C1477 1.327 . S
C1479 C1495 1.429 1_455 S
C1479 H1501 0.950 . S
C1480 H1476 0.949 . S
C1480 C1488 1.574 . S
C1480 C1496 1.368 . S
H1481 C1489 0.950 . S
H1482 C1487 0.950 . S
H1483 C1488 0.949 . S
H1484 C1490 0.950 . S
H1485 C1491 0.950 . S
H1486 C1492 0.949 . S
C1487 H1482 0.950 . S
C1487 C1489 1.327 . S
C1487 C1493 1.429 . S
C1488 C1480 1.574 . S
C1488 H1483 0.949 . S
C1488 C1494 1.368 . S
C1489 C1473 1.349 . S
C1489 H1481 0.950 . S
C1489 C1487 1.327 . S
C1490 C1478 1.349 1_655 S
C1490 H1484 0.950 . S
C1490 C1491 1.327 . S
C1491 H1485 0.950 . S
C1491 C1490 1.327 . S
C1491 C1495 1.429 . S
C1492 C1475 1.574 . S
C1492 H1486 0.949 . S
C1492 C1496 1.368 . S
C1493 C1474 1.429 . S
C1493 C1487 1.429 . S
C1493 C1494 1.523 . S
C1494 C1475 1.368 . S
C1494 C1488 1.368 . S
C1494 C1493 1.523 . S
C1495 C1479 1.429 1_655 S
C1495 C1491 1.429 . S
C1495 C1496 1.523 . S
C1496 C1480 1.368 . S
C1496 C1492 1.368 . S
C1496 C1495 1.523 . S
H1497 C1472 0.950 . S
H1498 C1474 0.950 . S
H1499 C1475 0.949 . S
H1500 C1477 0.950 . S
H1501 C1479 0.950 . S
C1502 C1503 1.349 . S
C1502 C1504 1.327 . S
C1502 H1527 0.950 . S
C1503 C1502 1.349 . S
C1503 C1519 1.349 . S
C1504 C1502 1.327 . S
C1504 C1523 1.429 . S
C1504 H1528 0.950 . S
C1505 C1522 1.574 . S
C1505 C1524 1.368 . S
C1505 H1529 0.949 . S
H1506 C1510 0.949 . S
C1507 C1508 1.349 . S
C1507 C1509 1.327 . S
C1507 H1530 0.950 . S
C1508 C1507 1.349 . S
C1508 C1520 1.349 . S
C1509 C1507 1.327 . S
C1509 C1525 1.429 . S
C1509 H1531 0.950 . S
C1510 H1506 0.949 . S
C1510 C1518 1.574 . S
C1510 C1526 1.368 . S
H1511 C1519 0.950 . S
H1512 C1517 0.950 . S
H1513 C1518 0.949 . S
H1514 C1520 0.950 . S
H1515 C1521 0.950 . S
H1516 C1522 0.949 . S
C1517 H1512 0.950 . S
C1517 C1519 1.327 . S
C1517 C1523 1.429 . S
C1518 C1510 1.574 . S
C1518 H1513 0.949 . S
C1518 C1524 1.368 . S
C1519 C1503 1.349 . S
C1519 H1511 0.950 . S
C1519 C1517 1.327 . S
C1520 C1508 1.349 . S
C1520 H1514 0.950 . S
C1520 C1521 1.327 . S
C1521 H1515 0.950 . S
C1521 C1520 1.327 . S
C1521 C1525 1.429 . S
C1522 C1505 1.574 . S
C1522 H1516 0.949 . S
C1522 C1526 1.368 . S
C1523 C1504 1.429 . S
C1523 C1517 1.429 . S
C1523 C1524 1.523 . S
C1524 C1505 1.368 . S
C1524 C1518 1.368 . S
C1524 C1523 1.523 . S
C1525 C1509 1.429 . S
C1525 C1521 1.429 . S
C1525 C1526 1.523 . S
C1526 C1510 1.368 . S
C1526 C1522 1.368 . S
C1526 C1525 1.523 . S
H1527 C1502 0.950 . S
H1528 C1504 0.950 . S
H1529 C1505 0.949 . S
H1530 C1507 0.950 . S
H1531 C1509 0.950 . S
C1532 C1533 1.349 . S
C1532 C1534 1.327 . S
C1532 H1557 0.950 . S
C1533 C1532 1.349 . S
C1533 C1549 1.349 . S
C1534 C1532 1.327 . S
C1534 C1553 1.429 . S
C1534 H1558 0.950 . S
C1535 C1552 1.574 . S
C1535 C1554 1.368 . S
C1535 H1559 0.949 . S
H1536 C1540 0.949 . S
C1537 C1538 1.349 . S
C1537 C1539 1.327 . S
C1537 H1560 0.950 . S
C1538 C1537 1.349 . S
C1538 C1550 1.349 . S
C1539 C1537 1.327 . S
C1539 C1555 1.429 . S
C1539 H1561 0.950 . S
C1540 H1536 0.949 . S
C1540 C1548 1.574 . S
C1540 C1556 1.368 . S
H1541 C1549 0.950 . S
H1542 C1547 0.950 . S
H1543 C1548 0.949 . S
H1544 C1550 0.950 . S
H1545 C1551 0.950 . S
H1546 C1552 0.949 . S
C1547 H1542 0.950 . S
C1547 C1549 1.327 . S
C1547 C1553 1.429 . S
C1548 C1540 1.574 . S
C1548 H1543 0.949 . S
C1548 C1554 1.368 . S
C1549 C1533 1.349 . S
C1549 H1541 0.950 . S
C1549 C1547 1.327 . S
C1550 C1538 1.349 . S
C1550 H1544 0.950 . S
C1550 C1551 1.327 . S
C1551 H1545 0.950 . S
C1551 C1550 1.327 . S
C1551 C1555 1.429 . S
C1552 C1535 1.574 . S
C1552 H1546 0.949 . S
C1552 C1556 1.368 . S
C1553 C1534 1.429 . S
C1553 C1547 1.429 . S
C1553 C1554 1.523 . S
C1554 C1535 1.368 . S
C1554 C1548 1.368 . S
C1554 C1553 1.523 . S
C1555 C1539 1.429 . S
C1555 C1551 1.429 . S
C1555 C1556 1.523 . S
C1556 C1540 1.368 . S
C1556 C1552 1.368 . S
C1556 C1555 1.523 . S
H1557 C1532 0.950 . S
H1558 C1534 0.950 . S
H1559 C1535 0.949 . S
H1560 C1537 0.950 . S
H1561 C1539 0.950 . S
C1562 C1563 1.349 . S
C1562 C1564 1.327 . S
C1562 H1587 0.950 . S
C1563 C1562 1.349 . S
C1563 C1579 1.349 . S
C1564 C1562 1.327 . S
C1564 C1583 1.429 . S
C1564 H1588 0.950 . S
C1565 C1582 1.574 . S
C1565 C1584 1.368 . S
C1565 H1589 0.949 . S
H1566 C1570 0.949 . S
C1567 C1568 1.349 . S
C1567 C1569 1.327 . S
C1567 H1590 0.950 . S
C1568 C1567 1.349 . S
C1568 C1580 1.349 . S
C1569 C1567 1.327 . S
C1569 C1585 1.429 . S
C1569 H1591 0.950 . S
C1570 H1566 0.949 . S
C1570 C1578 1.574 . S
C1570 C1586 1.368 . S
H1571 C1579 0.950 1_556 S
H1572 C1577 0.950 . S
H1573 C1578 0.949 . S
H1574 C1580 0.950 . S
H1575 C1581 0.950 . S
H1576 C1582 0.949 . S
C1577 H1572 0.950 . S
C1577 C1579 1.327 . S
C1577 C1583 1.429 . S
C1578 C1570 1.574 . S
C1578 H1573 0.949 . S
C1578 C1584 1.368 . S
C1579 C1563 1.349 . S
C1579 H1571 0.950 1_554 S
C1579 C1577 1.327 . S
C1580 C1568 1.349 . S
C1580 H1574 0.950 . S
C1580 C1581 1.327 . S
C1581 H1575 0.950 . S
C1581 C1580 1.327 . S
C1581 C1585 1.429 . S
C1582 C1565 1.574 . S
C1582 H1576 0.949 . S
C1582 C1586 1.368 . S
C1583 C1564 1.429 . S
C1583 C1577 1.429 . S
C1583 C1584 1.523 . S
C1584 C1565 1.368 . S
C1584 C1578 1.368 . S
C1584 C1583 1.523 . S
C1585 C1569 1.429 . S
C1585 C1581 1.429 . S
C1585 C1586 1.523 . S
C1586 C1570 1.368 . S
C1586 C1582 1.368 . S
C1586 C1585 1.523 . S
H1587 C1562 0.950 . S
H1588 C1564 0.950 . S
H1589 C1565 0.949 . S
H1590 C1567 0.950 . S
H1591 C1569 0.950 . S
C1592 C1593 1.349 . S
C1592 C1594 1.327 . S
C1592 H1617 0.950 . S
C1593 C1592 1.349 . S
C1593 C1609 1.349 . S
C1594 C1592 1.327 . S
C1594 C1613 1.429 . S
C1594 H1618 0.950 . S
C1595 C1612 1.574 . S
C1595 C1614 1.368 . S
C1595 H1619 0.949 . S
H1596 C1600 0.949 . S
C1597 C1598 1.349 1_455 S
C1597 C1599 1.327 . S
C1597 H1620 0.950 . S
C1598 C1597 1.349 1_655 S
C1598 C1610 1.349 . S
C1599 C1597 1.327 . S
C1599 C1615 1.429 . S
C1599 H1621 0.950 . S
C1600 H1596 0.949 . S
C1600 C1608 1.574 . S
C1600 C1616 1.368 . S
H1601 C1609 0.950 . S
H1602 C1607 0.950 . S
H1603 C1608 0.949 . S
H1604 C1610 0.950 . S
H1605 C1611 0.949 . S
H1606 C1612 0.949 . S
C1607 H1602 0.950 . S
C1607 C1609 1.327 . S
C1607 C1613 1.429 . S
C1608 C1600 1.574 . S
C1608 H1603 0.949 . S
C1608 C1614 1.368 . S
C1609 C1593 1.349 . S
C1609 H1601 0.950 . S
C1609 C1607 1.327 . S
C1610 C1598 1.349 . S
C1610 H1604 0.950 . S
C1610 C1611 1.291 1_655 S
C1611 H1605 0.949 . S
C1611 C1610 1.291 1_455 S
C1611 C1615 1.467 . S
C1612 C1595 1.574 . S
C1612 H1606 0.949 . S
C1612 C1616 1.368 . S
C1613 C1594 1.429 . S
C1613 C1607 1.429 . S
C1613 C1614 1.523 . S
C1614 C1595 1.368 . S
C1614 C1608 1.368 . S
C1614 C1613 1.523 . S
C1615 C1599 1.429 . S
C1615 C1611 1.467 . S
C1615 C1616 1.523 . S
C1616 C1600 1.368 . S
C1616 C1612 1.368 . S
C1616 C1615 1.523 . S
H1617 C1592 0.950 . S
H1618 C1594 0.950 . S
H1619 C1595 0.949 . S
H1620 C1597 0.950 . S
H1621 C1599 0.950 . S
C1622 C1623 1.349 . S
C1622 C1624 1.327 . S
C1622 H1647 0.950 . S
C1623 C1622 1.349 . S
C1623 C1639 1.349 . S
C1624 C1622 1.327 . S
C1624 C1643 1.429 . S
C1624 H1648 0.950 . S
C1625 C1642 1.574 . S
C1625 C1644 1.368 . S
C1625 H1649 0.949 . S
H1626 C1630 0.949 . S
C1627 C1628 1.349 . S
C1627 C1629 1.327 . S
C1627 H1650 0.950 . S
C1628 C1627 1.349 . S
C1628 C1640 1.349 . S
C1629 C1627 1.327 . S
C1629 C1645 1.429 . S
C1629 H1651 0.950 . S
C1630 H1626 0.949 . S
C1630 C1638 1.574 . S
C1630 C1646 1.368 . S
H1631 C1639 0.950 . S
H1632 C1637 0.950 . S
H1633 C1638 0.949 . S
H1634 C1640 0.950 . S
H1635 C1641 0.950 . S
H1636 C1642 0.949 . S
C1637 H1632 0.950 . S
C1637 C1639 1.327 . S
C1637 C1643 1.429 . S
C1638 C1630 1.574 . S
C1638 H1633 0.949 . S
C1638 C1644 1.368 . S
C1639 C1623 1.349 . S
C1639 H1631 0.950 . S
C1639 C1637 1.327 . S
C1640 C1628 1.349 . S
C1640 H1634 0.950 . S
C1640 C1641 1.327 . S
C1641 H1635 0.950 . S
C1641 C1640 1.327 . S
C1641 C1645 1.429 . S
C1642 C1625 1.574 . S
C1642 H1636 0.949 . S
C1642 C1646 1.368 . S
C1643 C1624 1.429 . S
C1643 C1637 1.429 . S
C1643 C1644 1.523 . S
C1644 C1625 1.368 . S
C1644 C1638 1.368 . S
C1644 C1643 1.523 . S
C1645 C1629 1.429 . S
C1645 C1641 1.429 . S
C1645 C1646 1.523 . S
C1646 C1630 1.368 . S
C1646 C1642 1.368 . S
C1646 C1645 1.523 . S
H1647 C1622 0.950 . S
H1648 C1624 0.950 . S
H1649 C1625 0.949 . S
H1650 C1627 0.950 . S
H1651 C1629 0.950 . S
C1652 C1653 1.349 . S
C1652 C1654 1.327 . S
C1652 H1677 0.950 . S
C1653 C1652 1.349 . S
C1653 C1669 1.349 . S
C1654 C1652 1.327 . S
C1654 C1673 1.429 . S
C1654 H1678 0.950 . S
C1655 C1672 1.574 . S
C1655 C1674 1.368 . S
C1655 H1679 0.949 . S
H1656 C1660 0.949 . S
C1657 C1658 1.349 . S
C1657 C1659 1.327 . S
C1657 H1680 0.950 . S
C1658 C1657 1.349 . S
C1658 C1670 1.349 . S
C1659 C1657 1.327 . S
C1659 C1675 1.429 . S
C1659 H1681 0.950 . S
C1660 H1656 0.949 . S
C1660 C1668 1.574 . S
C1660 C1676 1.368 . S
H1661 C1669 0.950 . S
H1662 C1667 0.950 . S
H1663 C1668 0.949 . S
H1664 C1670 0.950 . S
H1665 C1671 0.950 . S
H1666 C1672 0.949 . S
C1667 H1662 0.950 . S
C1667 C1669 1.327 . S
C1667 C1673 1.429 . S
C1668 C1660 1.574 . S
C1668 H1663 0.949 . S
C1668 C1674 1.368 . S
C1669 C1653 1.349 . S
C1669 H1661 0.950 . S
C1669 C1667 1.327 . S
C1670 C1658 1.349 . S
C1670 H1664 0.950 . S
C1670 C1671 1.327 . S
C1671 H1665 0.950 . S
C1671 C1670 1.327 . S
C1671 C1675 1.429 . S
C1672 C1655 1.574 . S
C1672 H1666 0.949 . S
C1672 C1676 1.368 . S
C1673 C1654 1.429 . S
C1673 C1667 1.429 . S
C1673 C1674 1.523 . S
C1674 C1655 1.368 . S
C1674 C1668 1.368 . S
C1674 C1673 1.523 . S
C1675 C1659 1.429 . S
C1675 C1671 1.429 . S
C1675 C1676 1.523 . S
C1676 C1660 1.368 . S
C1676 C1672 1.368 . S
C1676 C1675 1.523 . S
H1677 C1652 0.950 . S
H1678 C1654 0.950 . S
H1679 C1655 0.949 . S
H1680 C1657 0.950 . S
H1681 C1659 0.950 . S
C1682 C1683 1.349 . S
C1682 C1684 1.327 . S
C1682 H1707 0.950 . S
C1683 C1682 1.349 . S
C1683 C1699 1.349 . S
C1684 C1682 1.327 . S
C1684 C1703 1.429 . S
C1684 H1708 0.950 . S
C1685 C1702 1.574 . S
C1685 C1704 1.368 . S
C1685 H1709 0.949 . S
H1686 C1690 0.949 . S
C1687 C1688 1.349 . S
C1687 C1689 1.327 . S
C1687 H1710 0.950 . S
C1688 C1687 1.349 . S
C1688 C1700 1.349 . S
C1689 C1687 1.327 . S
C1689 C1705 1.429 . S
C1689 H1711 0.950 . S
C1690 H1686 0.949 . S
C1690 C1698 1.574 . S
C1690 C1706 1.368 . S
H1691 C1699 0.950 1_554 S
H1692 C1697 0.950 . S
H1693 C1698 0.949 . S
H1694 C1700 0.950 . S
H1695 C1701 0.950 . S
H1696 C1702 0.949 . S
C1697 H1692 0.950 . S
C1697 C1699 1.327 . S
C1697 C1703 1.429 . S
C1698 C1690 1.574 . S
C1698 H1693 0.949 . S
C1698 C1704 1.368 . S
C1699 C1683 1.349 . S
C1699 H1691 0.950 1_556 S
C1699 C1697 1.327 . S
C1700 C1688 1.349 . S
C1700 H1694 0.950 . S
C1700 C1701 1.327 . S
C1701 H1695 0.950 . S
C1701 C1700 1.327 . S
C1701 C1705 1.429 . S
C1702 C1685 1.574 . S
C1702 H1696 0.949 . S
C1702 C1706 1.368 . S
C1703 C1684 1.429 . S
C1703 C1697 1.429 . S
C1703 C1704 1.523 . S
C1704 C1685 1.368 . S
C1704 C1698 1.368 . S
C1704 C1703 1.523 . S
C1705 C1689 1.429 . S
C1705 C1701 1.429 . S
C1705 C1706 1.523 . S
C1706 C1690 1.368 . S
C1706 C1702 1.368 . S
C1706 C1705 1.523 . S
H1707 C1682 0.950 . S
H1708 C1684 0.950 . S
H1709 C1685 0.949 . S
H1710 C1687 0.950 . S
H1711 C1689 0.950 . S
C1712 C1713 1.349 . S
C1712 C1714 1.327 . S
C1712 H1737 0.950 . S
C1713 C1712 1.349 . S
C1713 C1729 1.349 . S
C1714 C1712 1.327 . S
C1714 C1733 1.429 . S
C1714 H1738 0.950 . S
C1715 C1732 1.574 . S
C1715 C1734 1.368 . S
C1715 H1739 0.949 . S
H1716 C1720 0.949 . S
C1717 C1718 1.349 . S
C1717 C1719 1.327 . S
C1717 H1740 0.950 . S
C1718 C1717 1.349 . S
C1718 C1730 1.349 . S
C1719 C1717 1.327 . S
C1719 C1735 1.429 . S
C1719 H1741 0.950 . S
C1720 H1716 0.949 . S
C1720 C1728 1.574 . S
C1720 C1736 1.368 . S
H1721 C1729 0.950 . S
H1722 C1727 0.950 . S
H1723 C1728 0.949 . S
H1724 C1730 0.950 . S
H1725 C1731 0.950 . S
H1726 C1732 0.949 . S
C1727 H1722 0.950 . S
C1727 C1729 1.327 . S
C1727 C1733 1.429 . S
C1728 C1720 1.574 . S
C1728 H1723 0.949 . S
C1728 C1734 1.368 . S
C1729 C1713 1.349 . S
C1729 H1721 0.950 . S
C1729 C1727 1.327 . S
C1730 C1718 1.349 . S
C1730 H1724 0.950 . S
C1730 C1731 1.327 . S
C1731 H1725 0.950 . S
C1731 C1730 1.327 . S
C1731 C1735 1.429 . S
C1732 C1715 1.574 . S
C1732 H1726 0.949 . S
C1732 C1736 1.368 . S
C1733 C1714 1.429 . S
C1733 C1727 1.429 . S
C1733 C1734 1.523 . S
C1734 C1715 1.368 . S
C1734 C1728 1.368 . S
C1734 C1733 1.523 . S
C1735 C1719 1.429 . S
C1735 C1731 1.429 . S
C1735 C1736 1.523 . S
C1736 C1720 1.368 . S
C1736 C1732 1.368 . S
C1736 C1735 1.523 . S
H1737 C1712 0.950 . S
H1738 C1714 0.950 . S
H1739 C1715 0.949 . S
H1740 C1717 0.950 . S
H1741 C1719 0.950 . S
C1742 C1743 1.349 . S
C1742 C1744 1.327 . S
C1742 H1767 0.950 . S
C1743 C1742 1.349 . S
C1743 C1759 1.349 . S
C1744 C1742 1.327 . S
C1744 C1763 1.429 . S
C1744 H1768 0.950 . S
C1745 C1762 1.574 . S
C1745 C1764 1.368 . S
C1745 H1769 0.949 . S
H1746 C1750 0.949 . S
C1747 C1748 1.349 . S
C1747 C1749 1.327 . S
C1747 H1770 0.950 . S
C1748 C1747 1.349 . S
C1748 C1760 1.349 . S
C1749 C1747 1.327 . S
C1749 C1765 1.429 . S
C1749 H1771 0.950 . S
C1750 H1746 0.949 . S
C1750 C1758 1.574 . S
C1750 C1766 1.368 . S
H1751 C1759 0.950 . S
H1752 C1757 0.950 . S
H1753 C1758 0.949 . S
H1754 C1760 0.950 . S
H1755 C1761 0.950 . S
H1756 C1762 0.949 . S
C1757 H1752 0.950 . S
C1757 C1759 1.327 . S
C1757 C1763 1.429 . S
C1758 C1750 1.574 . S
C1758 H1753 0.949 . S
C1758 C1764 1.368 . S
C1759 C1743 1.349 . S
C1759 H1751 0.950 . S
C1759 C1757 1.327 . S
C1760 C1748 1.349 . S
C1760 H1754 0.950 . S
C1760 C1761 1.327 . S
C1761 H1755 0.950 . S
C1761 C1760 1.327 . S
C1761 C1765 1.429 . S
C1762 C1745 1.574 . S
C1762 H1756 0.949 . S
C1762 C1766 1.368 . S
C1763 C1744 1.429 . S
C1763 C1757 1.429 . S
C1763 C1764 1.523 . S
C1764 C1745 1.368 . S
C1764 C1758 1.368 . S
C1764 C1763 1.523 . S
C1765 C1749 1.429 . S
C1765 C1761 1.429 . S
C1765 C1766 1.523 . S
C1766 C1750 1.368 . S
C1766 C1762 1.368 . S
C1766 C1765 1.523 . S
H1767 C1742 0.950 . S
H1768 C1744 0.950 . S
H1769 C1745 0.949 . S
H1770 C1747 0.950 . S
H1771 C1749 0.950 . S
C1772 C1773 1.349 . S
C1772 C1774 1.327 . S
C1772 H1797 0.950 . S
C1773 C1772 1.349 . S
C1773 C1789 1.349 . S
C1774 C1772 1.327 . S
C1774 C1793 1.429 . S
C1774 H1798 0.950 . S
C1775 C1792 1.574 . S
C1775 C1794 1.368 . S
C1775 H1799 0.949 . S
H1776 C1780 0.949 . S
C1777 C1778 1.349 . S
C1777 C1779 1.327 . S
C1777 H1800 0.950 . S
C1778 C1777 1.349 . S
C1778 C1790 1.349 . S
C1779 C1777 1.327 . S
C1779 C1795 1.429 . S
C1779 H1801 0.950 . S
C1780 H1776 0.949 . S
C1780 C1788 1.574 . S
C1780 C1796 1.368 . S
H1781 C1789 0.950 . S
H1782 C1787 0.950 . S
H1783 C1788 0.949 . S
H1784 C1790 0.950 . S
H1785 C1791 0.950 . S
H1786 C1792 0.949 . S
C1787 H1782 0.950 . S
C1787 C1789 1.327 . S
C1787 C1793 1.429 . S
C1788 C1780 1.574 . S
C1788 H1783 0.949 . S
C1788 C1794 1.368 . S
C1789 C1773 1.349 . S
C1789 H1781 0.950 . S
C1789 C1787 1.327 . S
C1790 C1778 1.349 . S
C1790 H1784 0.950 . S
C1790 C1791 1.327 . S
C1791 H1785 0.950 . S
C1791 C1790 1.327 . S
C1791 C1795 1.429 . S
C1792 C1775 1.574 . S
C1792 H1786 0.949 . S
C1792 C1796 1.368 . S
C1793 C1774 1.429 . S
C1793 C1787 1.429 . S
C1793 C1794 1.523 . S
C1794 C1775 1.368 . S
C1794 C1788 1.368 . S
C1794 C1793 1.523 . S
C1795 C1779 1.429 . S
C1795 C1791 1.429 . S
C1795 C1796 1.523 . S
C1796 C1780 1.368 . S
C1796 C1792 1.368 . S
C1796 C1795 1.523 . S
H1797 C1772 0.950 . S
H1798 C1774 0.950 . S
H1799 C1775 0.949 . S
H1800 C1777 0.950 . S
H1801 C1779 0.950 . S
C1802 C1803 1.349 . S
C1802 C1804 1.327 . S
C1802 H1827 0.950 . S
C1803 C1802 1.349 . S
C1803 C1819 1.349 . S
C1804 C1802 1.327 . S
C1804 C1823 1.429 . S
C1804 H1828 0.950 . S
C1805 C1822 1.574 1_554 S
C1805 C1824 1.368 1_655 S
C1805 H1829 0.949 . S
H1806 C1810 0.949 . S
C1807 C1808 1.349 . S
C1807 C1809 1.327 . S
C1807 H1830 0.950 . S
C1808 C1807 1.349 . S
C1808 C1820 1.349 . S
C1809 C1807 1.327 . S
C1809 C1825 1.429 . S
C1809 H1831 0.950 . S
C1810 H1806 0.949 . S
C1810 C1818 1.574 1_556 S
C1810 C1826 1.368 1_455 S
H1811 C1819 0.950 . S
H1812 C1817 0.950 1_655 S
H1813 C1818 0.949 . S
H1814 C1820 0.950 . S
H1815 C1821 0.950 1_455 S
H1816 C1822 0.949 . S
C1817 H1812 0.950 1_455 S
C1817 C1819 1.327 . S
C1817 C1823 1.429 . S
C1818 C1810 1.574 1_554 S
C1818 H1813 0.949 . S
C1818 C1824 1.368 . S
C1819 C1803 1.349 . S
C1819 H1811 0.950 . S
C1819 C1817 1.327 . S
C1820 C1808 1.349 . S
C1820 H1814 0.950 . S
C1820 C1821 1.327 . S
C1821 H1815 0.950 1_655 S
C1821 C1820 1.327 . S
C1821 C1825 1.429 . S
C1822 C1805 1.574 1_556 S
C1822 H1816 0.949 . S
C1822 C1826 1.368 . S
C1823 C1804 1.429 . S
C1823 C1817 1.429 . S
C1823 C1824 1.523 . S
C1824 C1805 1.368 1_455 S
C1824 C1818 1.368 . S
C1824 C1823 1.523 . S
C1825 C1809 1.429 . S
C1825 C1821 1.429 . S
C1825 C1826 1.523 . S
C1826 C1810 1.368 1_655 S
C1826 C1822 1.368 . S
C1826 C1825 1.523 . S
H1827 C1802 0.950 . S
H1828 C1804 0.950 . S
H1829 C1805 0.949 . S
H1830 C1807 0.950 . S
H1831 C1809 0.950 . S
C1832 C1833 1.349 . S
C1832 C1834 1.327 . S
C1832 H1857 0.950 . S
C1833 C1832 1.349 . S
C1833 C1849 1.349 . S
C1834 C1832 1.327 . S
C1834 C1853 1.429 . S
C1834 H1858 0.950 . S
C1835 C1852 1.574 . S
C1835 C1854 1.368 . S
C1835 H1859 0.949 . S
H1836 C1840 0.949 . S
C1837 C1838 1.349 . S
C1837 C1839 1.327 . S
C1837 H1860 0.950 . S
C1838 C1837 1.349 . S
C1838 C1850 1.349 . S
C1839 C1837 1.327 . S
C1839 C1855 1.429 . S
C1839 H1861 0.950 . S
C1840 H1836 0.949 . S
C1840 C1848 1.574 . S
C1840 C1856 1.368 . S
H1841 C1849 0.950 . S
H1842 C1847 0.950 . S
H1843 C1848 0.949 . S
H1844 C1850 0.950 . S
H1845 C1851 0.950 . S
H1846 C1852 0.949 . S
C1847 H1842 0.950 . S
C1847 C1849 1.327 . S
C1847 C1853 1.429 . S
C1848 C1840 1.574 . S
C1848 H1843 0.949 . S
C1848 C1854 1.368 . S
C1849 C1833 1.349 . S
C1849 H1841 0.950 . S
C1849 C1847 1.327 . S
C1850 C1838 1.349 . S
C1850 H1844 0.950 . S
C1850 C1851 1.327 . S
C1851 H1845 0.950 . S
C1851 C1850 1.327 . S
C1851 C1855 1.429 . S
C1852 C1835 1.574 . S
C1852 H1846 0.949 . S
C1852 C1856 1.368 . S
C1853 C1834 1.429 . S
C1853 C1847 1.429 . S
C1853 C1854 1.523 . S
C1854 C1835 1.368 . S
C1854 C1848 1.368 . S
C1854 C1853 1.523 . S
C1855 C1839 1.429 . S
C1855 C1851 1.429 . S
C1855 C1856 1.523 . S
C1856 C1840 1.368 . S
C1856 C1852 1.368 . S
C1856 C1855 1.523 . S
H1857 C1832 0.950 . S
H1858 C1834 0.950 . S
H1859 C1835 0.949 . S
H1860 C1837 0.950 . S
H1861 C1839 0.950 . S
C1862 C1863 1.349 . S
C1862 C1864 1.327 . S
C1862 H1887 0.950 . S
C1863 C1862 1.349 . S
C1863 C1879 1.349 . S
C1864 C1862 1.327 . S
C1864 C1883 1.429 . S
C1864 H1888 0.950 . S
C1865 C1882 1.574 . S
C1865 C1884 1.368 . S
C1865 H1889 0.949 . S
H1866 C1870 0.949 . S
C1867 C1868 1.349 . S
C1867 C1869 1.327 . S
C1867 H1890 0.950 . S
C1868 C1867 1.349 . S
C1868 C1880 1.349 . S
C1869 C1867 1.327 . S
C1869 C1885 1.429 . S
C1869 H1891 0.950 . S
C1870 H1866 0.949 . S
C1870 C1878 1.574 . S
C1870 C1886 1.368 . S
H1871 C1879 0.950 . S
H1872 C1877 0.950 . S
H1873 C1878 0.949 . S
H1874 C1880 0.950 . S
H1875 C1881 0.950 . S
H1876 C1882 0.949 . S
C1877 H1872 0.950 . S
C1877 C1879 1.327 . S
C1877 C1883 1.429 . S
C1878 C1870 1.574 . S
C1878 H1873 0.949 . S
C1878 C1884 1.368 . S
C1879 C1863 1.349 . S
C1879 H1871 0.950 . S
C1879 C1877 1.327 . S
C1880 C1868 1.349 . S
C1880 H1874 0.950 . S
C1880 C1881 1.327 . S
C1881 H1875 0.950 . S
C1881 C1880 1.327 . S
C1881 C1885 1.429 . S
C1882 C1865 1.574 . S
C1882 H1876 0.949 . S
C1882 C1886 1.368 . S
C1883 C1864 1.429 . S
C1883 C1877 1.429 . S
C1883 C1884 1.523 . S
C1884 C1865 1.368 . S
C1884 C1878 1.368 . S
C1884 C1883 1.523 . S
C1885 C1869 1.429 . S
C1885 C1881 1.429 . S
C1885 C1886 1.523 . S
C1886 C1870 1.368 . S
C1886 C1882 1.368 . S
C1886 C1885 1.523 . S
H1887 C1862 0.950 . S
H1888 C1864 0.950 . S
H1889 C1865 0.949 . S
H1890 C1867 0.950 . S
H1891 C1869 0.950 . S
C1892 C1893 1.349 . S
C1892 C1894 1.327 . S
C1892 H1917 0.950 . S
C1893 C1892 1.349 . S
C1893 C1909 1.349 . S
C1894 C1892 1.327 . S
C1894 C1913 1.429 . S
C1894 H1918 0.950 . S
C1895 C1912 1.574 1_556 S
C1895 C1914 1.368 1_565 S
C1895 H1919 0.949 . S
H1896 C1900 0.949 . S
C1897 C1898 1.349 . S
C1897 C1899 1.327 . S
C1897 H1920 0.950 . S
C1898 C1897 1.349 . S
C1898 C1910 1.349 . S
C1899 C1897 1.327 . S
C1899 C1915 1.429 . S
C1899 H1921 0.950 . S
C1900 H1896 0.949 . S
C1900 C1908 1.574 1_554 S
C1900 C1916 1.368 1_545 S
H1901 C1909 0.950 . S
H1902 C1907 0.950 . S
H1903 C1908 0.949 . S
H1904 C1910 0.950 . S
H1905 C1911 0.950 . S
H1906 C1912 0.949 . S
C1907 H1902 0.950 . S
C1907 C1909 1.327 . S
C1907 C1913 1.429 . S
C1908 C1900 1.574 1_556 S
C1908 H1903 0.949 . S
C1908 C1914 1.368 1_655 S
C1909 C1893 1.349 . S
C1909 H1901 0.950 . S
C1909 C1907 1.327 . S
C1910 C1898 1.349 . S
C1910 H1904 0.950 . S
C1910 C1911 1.327 . S
C1911 H1905 0.950 . S
C1911 C1910 1.327 . S
C1911 C1915 1.429 . S
C1912 C1895 1.574 1_554 S
C1912 H1906 0.949 . S
C1912 C1916 1.368 1_455 S
C1913 C1894 1.429 . S
C1913 C1907 1.429 . S
C1913 C1914 1.523 . S
C1914 C1895 1.368 1_545 S
C1914 C1908 1.368 1_455 S
C1914 C1913 1.523 . S
C1915 C1899 1.429 . S
C1915 C1911 1.429 . S
C1915 C1916 1.523 . S
C1916 C1900 1.368 1_565 S
C1916 C1912 1.368 1_655 S
C1916 C1915 1.523 . S
H1917 C1892 0.950 . S
H1918 C1894 0.950 . S
H1919 C1895 0.949 . S
H1920 C1897 0.950 . S
H1921 C1899 0.950 . S
C1922 C1923 1.349 . S
C1922 C1924 1.327 . S
C1922 H1947 0.950 . S
C1923 C1922 1.349 . S
C1923 C1939 1.349 . S
C1924 C1922 1.327 . S
C1924 C1943 1.429 . S
C1924 H1948 0.950 . S
C1925 C1942 1.574 . S
C1925 C1944 1.368 1_565 S
C1925 H1949 0.949 . S
H1926 C1930 0.949 . S
C1927 C1928 1.349 . S
C1927 C1929 1.327 . S
C1927 H1950 0.950 . S
C1928 C1927 1.349 . S
C1928 C1940 1.349 . S
C1929 C1927 1.327 . S
C1929 C1945 1.429 . S
C1929 H1951 0.950 . S
C1930 H1926 0.949 . S
C1930 C1938 1.574 . S
C1930 C1946 1.368 1_545 S
H1931 C1939 0.950 . S
H1932 C1937 0.950 . S
H1933 C1938 0.949 . S
H1934 C1940 0.950 . S
H1935 C1941 0.950 . S
H1936 C1942 0.949 . S
C1937 H1932 0.950 . S
C1937 C1939 1.327 . S
C1937 C1943 1.429 . S
C1938 C1930 1.574 . S
C1938 H1933 0.949 . S
C1938 C1944 1.368 . S
C1939 C1923 1.349 . S
C1939 H1931 0.950 . S
C1939 C1937 1.327 . S
C1940 C1928 1.349 . S
C1940 H1934 0.950 . S
C1940 C1941 1.327 . S
C1941 H1935 0.950 . S
C1941 C1940 1.327 . S
C1941 C1945 1.429 . S
C1942 C1925 1.574 . S
C1942 H1936 0.949 . S
C1942 C1946 1.368 . S
C1943 C1924 1.429 . S
C1943 C1937 1.429 . S
C1943 C1944 1.523 . S
C1944 C1925 1.368 1_545 S
C1944 C1938 1.368 . S
C1944 C1943 1.523 . S
C1945 C1929 1.429 . S
C1945 C1941 1.429 . S
C1945 C1946 1.523 . S
C1946 C1930 1.368 1_565 S
C1946 C1942 1.368 . S
C1946 C1945 1.523 . S
H1947 C1922 0.950 . S
H1948 C1924 0.950 . S
H1949 C1925 0.949 . S
H1950 C1927 0.950 . S
H1951 C1929 0.950 . S
C513 N13 0.215 . S
C518 N338 0.215 . S
C543 N50 0.215 . S
C548 N370 0.215 . S
C573 N82 0.215 . S
C578 N269 0.215 . S
C603 N114 0.215 . S
C608 N306 0.215 . S
C633 N146 0.215 . S
C638 N461 0.215 . S
C663 N178 0.215 . S
C668 N498 0.215 . S
C693 N210 0.215 . S
C698 N402 0.215 . S
C723 N242 0.215 . S
C728 N434 0.215 . S
C753 C317 1.003 . S
C758 N18 0.999 . S
C783 C349 1.003 . S
C788 N45 0.999 . S
C813 C381 1.003 . S
C818 N77 0.999 . S
C843 C260 1.003 . S
C848 N109 0.999 . S
C873 N141 0.999 . S
C878 C445 1.003 . S
C903 C452 1.003 . S
C908 N173 0.999 . S
C933 C509 1.003 . S
C938 N205 0.999 . S
C963 C413 1.003 . S
C968 N237 0.999 . S
C993 C61 1.003 . S
C998 N274 0.999 . S
C1023 N301 0.999 . S
C1028 C93 1.003 . S
C1053 N333 0.999 . S
C1058 C125 1.003 . S
C1083 N365 0.999 . S
C1088 C4 1.003 . S
C1113 N397 0.999 . S
C1118 C189 1.003 . S
C1143 C221 1.003 . S
C1148 N429 0.999 . S
C1173 C253 1.003 . S
C1178 N466 0.999 . S
C1203 N493 0.999 . S
C1208 C157 1.003 . S
C1233 C29 1.773 . S
C1238 C482 1.770 . S
C1263 C36 1.773 . S
C1268 C130 1.770 1_554 S
C1293 C418 1.770 . S
C1298 C68 1.773 . S
C1323 C194 1.770 . S
C1328 C100 1.773 . S
C1353 C132 1.773 . S
C1358 C354 1.770 . S
C1383 C164 1.773 . S
C1388 C6 1.770 1_556 S
C1413 C290 1.770 . S
C1418 C196 1.773 . S
C1443 C66 1.770 . S
C1448 C228 1.773 . S
C1473 C285 1.773 . S
C1478 C226 1.770 . S
C1503 C292 1.773 . S
C1508 C386 1.770 . S
C1533 C162 1.770 . S
C1538 C324 1.773 . S
C1563 C454 1.770 1_554 S
C1568 C356 1.773 . S
C1593 C388 1.773 . S
C1598 C98 1.770 . S
C1623 C420 1.773 . S
C1628 C262 1.770 . S
C1653 C477 1.773 . S
C1658 C34 1.770 . S
C1683 C322 1.770 1_556 S
C1688 C484 1.773 . S
C1713 C2 2.408 . S
C1718 C390 2.408 . S
C1743 C38 2.408 . S
C1748 C166 2.408 . S
C1773 C70 2.408 . S
C1778 C450 2.408 . S
C1803 C230 2.408 . S
C1808 C102 2.408 . S
C1833 C134 2.408 . S
C1838 C258 2.408 . S
C1863 C326 2.408 . S
C1868 C198 2.408 . S
C1893 C294 2.408 . S
C1898 C422 2.408 . S
C1923 C486 2.408 . S
C1928 C358 2.408 . S
