# Generated by pormake.
# Topology uog, (4)-cn, num edge types: 1
# Building blocks:
#     Node 0, Type 0, BuildingBlock: KUFVIS_clean_sbu_0, # of connection points: 4
#     Node 1, Type 0, BuildingBlock: KUFVIS_clean_sbu_0, # of connection points: 4
#     Node 2, Type 0, BuildingBlock: KUFVIS_clean_sbu_0, # of connection points: 4
#     Node 3, Type 0, BuildingBlock: KUFVIS_clean_sbu_0, # of connection points: 4
#     Node 4, Type 0, BuildingBlock: KUFVIS_clean_sbu_0, # of connection points: 4
#     Node 5, Type 0, BuildingBlock: KUFVIS_clean_sbu_0, # of connection points: 4
#     Edge 6, Type (0, 0), BuildingBlock: MIFKUJ_clean_linker_0, # of connection points: 2
#     Edge 7, Type (0, 0), BuildingBlock: MIFKUJ_clean_linker_0, # of connection points: 2
#     Edge 8, Type (0, 0), BuildingBlock: MIFKUJ_clean_linker_0, # of connection points: 2
#     Edge 9, Type (0, 0), BuildingBlock: MIFKUJ_clean_linker_0, # of connection points: 2
#     Edge 10, Type (0, 0), BuildingBlock: MIFKUJ_clean_linker_0, # of connection points: 2
#     Edge 11, Type (0, 0), BuildingBlock: MIFKUJ_clean_linker_0, # of connection points: 2
#     Edge 12, Type (0, 0), BuildingBlock: MIFKUJ_clean_linker_0, # of connection points: 2
#     Edge 13, Type (0, 0), BuildingBlock: MIFKUJ_clean_linker_0, # of connection points: 2
#     Edge 14, Type (0, 0), BuildingBlock: MIFKUJ_clean_linker_0, # of connection points: 2
#     Edge 15, Type (0, 0), BuildingBlock: MIFKUJ_clean_linker_0, # of connection points: 2
#     Edge 16, Type (0, 0), BuildingBlock: MIFKUJ_clean_linker_0, # of connection points: 2
#     Edge 17, Type (0, 0), BuildingBlock: MIFKUJ_clean_linker_0, # of connection points: 2
# Relax obj value: 0.109
# Max RMSD: 0.207
# Mean RMSD: 0.206
data_MOF--net-uog--node1-KUFVIS_clean_sbu_0--edge1-MIFKUJ_clean_linker_0
_symmetry_space_group_name_H-M    P1
_symmetry_Int_Tables_number       1
_symmetry_cell_setting            triclinic
loop_
_symmetry_equiv_pos_as_xyz
'x, y, z'
_cell_length_a     37.027261
_cell_length_b     36.92634
_cell_length_c     53.962386
_cell_angle_alpha  89.854608
_cell_angle_beta   90.140224
_cell_angle_gamma 120.15785
loop_
_atom_site_label
_atom_site_type_symbol
_atom_site_fract_x
_atom_site_fract_y
_atom_site_fract_z
_atom_type_partial_charge
Mn0 Mn 0.6002 0.30132 0.15865 0.0
Mn1 Mn 0.67928 0.39886 0.14541 0.0
C2 C 0.61844 0.31956 0.11788 0.0
C3 C 0.57965 0.23202 0.16915 0.0
C4 C 0.59167 0.37971 0.15872 0.0
O5 O 0.62916 0.32205 0.19149 0.0
O6 O 0.68327 0.38484 0.18065 0.0
C7 C 0.7512 0.38521 0.15042 0.0
N8 N 0.72928 0.39885 0.13687 0.0
C9 C 0.78076 0.42414 0.10443 0.0
C10 C 0.80408 0.41063 0.11811 0.0
C11 C 0.78916 0.39095 0.14116 0.0
C12 C 0.74342 0.41799 0.11473 0.0
H13 H 0.73982 0.37015 0.16816 0.0
C14 C 0.66287 0.3557 0.19649 0.0
O15 O 0.55598 0.24775 0.17417 0.0
O16 O 0.61498 0.25664 0.1585 0.0
N17 N 0.68038 0.41737 0.11216 0.0
C18 C 0.6516 0.42354 0.10003 0.0
C19 C 0.66053 0.44094 0.07613 0.0
C20 C 0.69891 0.45182 0.06495 0.0
C21 C 0.72793 0.44491 0.07773 0.0
C22 C 0.71752 0.42796 0.10164 0.0
H23 H 0.62202 0.4151 0.1085 0.0
O24 O 0.58198 0.28861 0.12384 0.0
O25 O 0.64407 0.33927 0.1362 0.0
O26 O 0.57466 0.33997 0.16138 0.0
O27 O 0.63013 0.40335 0.15339 0.0
C28 C 0.7661 0.45278 0.06736 0.0
C29 C 0.79246 0.44233 0.08069 0.0
H30 H 0.83318 0.41466 0.11094 0.0
H31 H 0.80686 0.38022 0.15175 0.0
H32 H 0.63791 0.44599 0.06635 0.0
H33 H 0.70552 0.46489 0.04642 0.0
H34 H 0.77498 0.46585 0.0489 0.0
H35 H 0.82124 0.4476 0.07227 0.0
Mn36 Mn 0.30115 0.58014 0.49229 0.0
Mn37 Mn 0.29145 0.66572 0.48598 0.0
C38 C 0.29113 0.59935 0.45363 0.0
C39 C 0.34774 0.55531 0.49644 0.0
C40 C 0.22182 0.58183 0.50503 0.0
O41 O 0.32078 0.60988 0.525 0.0
O42 O 0.32177 0.6704 0.51749 0.0
C43 C 0.3804 0.73007 0.47939 0.0
N44 N 0.34037 0.71007 0.47083 0.0
C45 C 0.36062 0.75246 0.43392 0.0
C46 C 0.40201 0.77375 0.44244 0.0
C47 C 0.41194 0.76245 0.46525 0.0
C48 C 0.33045 0.72071 0.44891 0.0
H49 H 0.38819 0.72128 0.49684 0.0
C50 C 0.32975 0.64675 0.5311 0.0
O51 O 0.30955 0.53339 0.50448 0.0
O52 O 0.35809 0.59057 0.48571 0.0
N53 N 0.26313 0.66553 0.45619 0.0
C54 C 0.22225 0.64018 0.4499 0.0
C55 C 0.20754 0.64634 0.42717 0.0
C56 C 0.23489 0.6786 0.41122 0.0
C57 C 0.27669 0.7046 0.41822 0.0
C58 C 0.28949 0.69723 0.4412 0.0
H59 H 0.20108 0.61524 0.46202 0.0
O60 O 0.28443 0.56175 0.45745 0.0
O61 O 0.30487 0.62483 0.47238 0.0
O62 O 0.24004 0.56054 0.50158 0.0
O63 O 0.23932 0.62125 0.501 0.0
C64 C 0.30637 0.73691 0.40303 0.0
C65 C 0.3483 0.76081 0.41087 0.0
H66 H 0.4265 0.79851 0.4315 0.0
H67 H 0.44386 0.77855 0.47187 0.0
H68 H 0.17524 0.62611 0.4219 0.0
H69 H 0.22355 0.68291 0.39357 0.0
H70 H 0.29742 0.74319 0.3851 0.0
H71 H 0.37097 0.78514 0.39886 0.0
Mn72 Mn 0.70412 0.29824 0.81785 0.0
Mn73 Mn 0.7258 0.39696 0.83059 0.0
C74 C 0.71149 0.31951 0.85853 0.0
C75 C 0.65293 0.22831 0.81007 0.0
C76 C 0.79053 0.37623 0.8114 0.0
O77 O 0.6898 0.31711 0.78614 0.0
O78 O 0.70022 0.3807 0.79701 0.0
C79 C 0.64046 0.38461 0.83284 0.0
N80 N 0.67855 0.39836 0.84346 0.0
C81 C 0.66014 0.4256 0.87867 0.0
C82 C 0.62078 0.41198 0.86804 0.0
C83 C 0.61087 0.39128 0.84507 0.0
C84 C 0.68852 0.4185 0.8655 0.0
H85 H 0.63281 0.36873 0.81518 0.0
C86 C 0.68856 0.35033 0.78177 0.0
O87 O 0.69117 0.24332 0.80248 0.0
O88 O 0.6448 0.2539 0.8218 0.0
N89 N 0.75053 0.41721 0.86239 0.0
C90 C 0.78779 0.42377 0.87134 0.0
C91 C 0.8015 0.44216 0.89476 0.0
C92 C 0.7769 0.45377 0.90865 0.0
C93 C 0.73855 0.44647 0.89912 0.0
C94 C 0.72672 0.42846 0.87555 0.0
H95 H 0.80688 0.41507 0.86067 0.0
O96 O 0.71587 0.28806 0.85217 0.0
O97 O 0.70281 0.33796 0.84072 0.0
O98 O 0.76757 0.33625 0.81082 0.0
O99 O 0.77682 0.40025 0.81791 0.0
C100 C 0.71106 0.45523 0.91235 0.0
C101 C 0.67186 0.44475 0.90215 0.0
H102 H 0.59771 0.41671 0.87751 0.0
H103 H 0.58046 0.38047 0.83683 0.0
H104 H 0.83103 0.4475 0.90204 0.0
H105 H 0.78756 0.4679 0.92673 0.0
H106 H 0.71935 0.46912 0.93063 0.0
H107 H 0.6506 0.45073 0.91275 0.0
Mn108 Mn 0.40959 0.72166 0.15606 0.0
Mn109 Mn 0.32008 0.62988 0.14823 0.0
C110 C 0.38602 0.69858 0.11668 0.0
C111 C 0.4393 0.79319 0.16421 0.0
C112 C 0.40271 0.63629 0.16247 0.0
O113 O 0.38317 0.7079 0.18997 0.0
O114 O 0.32002 0.65208 0.18182 0.0
C115 C 0.26052 0.66115 0.14801 0.0
N116 N 0.27716 0.64002 0.13661 0.0
C117 C 0.232 0.62505 0.10131 0.0
C118 C 0.21415 0.64638 0.11275 0.0
C119 C 0.22855 0.66459 0.13618 0.0
C120 C 0.26368 0.62254 0.11404 0.0
H121 H 0.27165 0.67533 0.16597 0.0
C122 C 0.34633 0.68046 0.19643 0.0
O123 O 0.45947 0.77361 0.16923 0.0
O124 O 0.4027 0.77141 0.15429 0.0
N125 N 0.31561 0.60473 0.11653 0.0
C126 C 0.33727 0.58671 0.10759 0.0
C127 C 0.32712 0.56761 0.08416 0.0
C128 C 0.2946 0.56682 0.0703 0.0
C129 C 0.27254 0.58525 0.07995 0.0
C130 C 0.28377 0.60349 0.1035 0.0
H131 H 0.36219 0.58702 0.11819 0.0
O132 O 0.42452 0.72762 0.12028 0.0
O133 O 0.36227 0.68515 0.13617 0.0
O134 O 0.42587 0.67612 0.16032 0.0
O135 O 0.36303 0.61675 0.15955 0.0
C136 C 0.24028 0.5868 0.06697 0.0
C137 C 0.22011 0.6068 0.07761 0.0
H138 H 0.18961 0.64927 0.10364 0.0
H139 H 0.21508 0.6813 0.14506 0.0
H140 H 0.34435 0.55361 0.07674 0.0
H141 H 0.28695 0.55211 0.05223 0.0
H142 H 0.23113 0.57321 0.04865 0.0
H143 H 0.19574 0.60829 0.06732 0.0
Mn144 Mn 0.70332 0.40451 0.49024 0.0
Mn145 Mn 0.7089 0.31646 0.48431 0.0
C146 C 0.71977 0.38851 0.4525 0.0
C147 C 0.65974 0.43316 0.49198 0.0
C148 C 0.7794 0.39731 0.50559 0.0
O149 O 0.67658 0.37248 0.52141 0.0
O150 O 0.67885 0.31342 0.51557 0.0
C151 C 0.61863 0.25757 0.47671 0.0
N152 N 0.65881 0.27467 0.46874 0.0
C153 C 0.63696 0.23202 0.43203 0.0
C154 C 0.59537 0.21366 0.43994 0.0
C155 C 0.58617 0.22658 0.46235 0.0
C156 C 0.66798 0.26265 0.44716 0.0
H157 H 0.61142 0.26756 0.49386 0.0
C158 C 0.66845 0.33618 0.52804 0.0
O159 O 0.69646 0.45204 0.50237 0.0
O160 O 0.64935 0.39885 0.48014 0.0
N161 N 0.73682 0.31393 0.45519 0.0
C162 C 0.7784 0.33571 0.44981 0.0
C163 C 0.79275 0.32681 0.42789 0.0
C164 C 0.76431 0.29544 0.41192 0.0
C165 C 0.72179 0.27325 0.41789 0.0
C166 C 0.70935 0.28309 0.44013 0.0
H167 H 0.80044 0.35973 0.4621 0.0
O168 O 0.72721 0.42614 0.4571 0.0
O169 O 0.70055 0.36052 0.46977 0.0
O170 O 0.76185 0.41953 0.50328 0.0
O171 O 0.76169 0.35858 0.49965 0.0
C172 C 0.69122 0.24208 0.40253 0.0
C173 C 0.6488 0.22157 0.40955 0.0
H174 H 0.57023 0.18987 0.42887 0.0
H175 H 0.55412 0.21275 0.46851 0.0
H176 H 0.82562 0.34388 0.42337 0.0
H177 H 0.77541 0.28842 0.39518 0.0
H178 H 0.69994 0.23397 0.38515 0.0
H179 H 0.6255 0.19799 0.39746 0.0
Mn180 Mn 0.307 0.71664 0.82619 0.0
Mn181 Mn 0.30873 0.62622 0.82791 0.0
C182 C 0.29673 0.68208 0.86339 0.0
C183 C 0.34698 0.7899 0.82537 0.0
C184 C 0.23376 0.63193 0.80996 0.0
O185 O 0.33132 0.71498 0.79312 0.0
O186 O 0.33776 0.658 0.79752 0.0
C187 C 0.39974 0.66163 0.83454 0.0
N188 N 0.35989 0.63586 0.84245 0.0
C189 C 0.38379 0.6115 0.87666 0.0
C190 C 0.4251 0.63757 0.86882 0.0
C191 C 0.4331 0.66285 0.84771 0.0
C192 C 0.35186 0.61166 0.86281 0.0
H193 H 0.40599 0.68107 0.81832 0.0
C194 C 0.34341 0.69031 0.78545 0.0
O195 O 0.30945 0.77024 0.81609 0.0
O196 O 0.36038 0.76709 0.83558 0.0
N197 N 0.28221 0.59198 0.85624 0.0
C198 C 0.24078 0.57003 0.86195 0.0
C199 C 0.22749 0.54338 0.88265 0.0
C200 C 0.25686 0.53934 0.89707 0.0
C201 C 0.29932 0.56239 0.89096 0.0
C202 C 0.31068 0.58812 0.86998 0.0
H203 H 0.21801 0.57262 0.85072 0.0
O204 O 0.28624 0.71056 0.8608 0.0
O205 O 0.31479 0.67615 0.84443 0.0
O206 O 0.24842 0.67094 0.81446 0.0
O207 O 0.25459 0.61326 0.81335 0.0
C208 C 0.33083 0.56094 0.90485 0.0
C209 C 0.37307 0.58569 0.89782 0.0
H210 H 0.45091 0.63861 0.87893 0.0
H211 H 0.46489 0.68318 0.8416 0.0
H212 H 0.19466 0.52568 0.88733 0.0
H213 H 0.24644 0.51815 0.91265 0.0
H214 H 0.32299 0.54113 0.92108 0.0
H215 H 0.39705 0.58473 0.90884 0.0
H216 H 0.50247 0.16731 0.18294 0.0
H217 H 0.48119 0.09298 0.18671 0.0
H218 H 0.60712 0.12262 0.17026 0.0
H219 H 0.62822 0.19634 0.16598 0.0
H220 H 0.55506 0.05994 0.14291 0.0
H221 H 0.56425 0.09283 0.22911 0.0
H222 H 0.5502 0.11997 0.26738 0.0
H223 H 0.41922 0.03102 0.26051 0.0
H224 H 0.43242 1.00372 0.22199 0.0
H225 H 0.52137 0.85502 0.16952 0.0
H226 H 0.54814 0.9305 0.17483 0.0
H227 H 0.42197 0.90769 0.17656 0.0
H228 H 0.3952 0.83286 0.17076 0.0
H229 H 0.4768 0.96665 0.2132 0.0
H230 H 0.46842 0.93815 0.12535 0.0
H231 H 0.48314 0.91084 0.08738 0.0
H232 H 0.61483 0.9925 0.09839 0.0
H233 H 0.60086 0.01985 0.13667 0.0
C234 C 0.52567 0.15797 0.18044 0.0
C235 C 0.56695 0.18768 0.17405 0.0
C236 C 0.51353 0.11549 0.18267 0.0
C237 C 0.5426 0.1021 0.17884 0.0
C238 C 0.58406 0.13203 0.17318 0.0
C239 C 0.59609 0.17426 0.1708 0.0
C240 C 0.52959 0.05681 0.17928 0.0
C241 C 0.53861 0.03982 0.15852 0.0
C242 C 0.50738 0.03015 0.19938 0.0
C243 C 0.49929 0.04651 0.22252 0.0
C244 C 0.5324 0.07929 0.23564 0.0
C245 C 0.5246 0.09466 0.2574 0.0
C246 C 0.48383 0.0773 0.26634 0.0
C247 C 0.45078 0.04447 0.25355 0.0
C248 C 0.45841 0.02901 0.23176 0.0
C249 C 0.49945 0.86616 0.17129 0.0
C250 C 0.45626 0.83817 0.16953 0.0
C251 C 0.51471 0.90917 0.1743 0.0
C252 C 0.48697 0.92461 0.17603 0.0
C253 C 0.44387 0.89643 0.17533 0.0
C254 C 0.42868 0.85372 0.17186 0.0
C255 C 0.50254 0.97028 0.17695 0.0
C256 C 0.49374 0.98713 0.19782 0.0
C257 C 0.52517 0.99696 0.15704 0.0
C258 C 0.53362 0.98064 0.13403 0.0
C259 C 0.50053 0.94998 0.11981 0.0
C260 C 0.50873 0.93456 0.0982 0.0
C261 C 0.5499 0.94982 0.09052 0.0
C262 C 0.58296 0.98063 0.10439 0.0
C263 C 0.57492 0.99611 0.12604 0.0
H264 H 0.55619 0.93786 0.07378 0.0
H265 H 0.47785 0.08923 0.28319 0.0
H266 H 0.4315 0.6059 0.49882 0.0
H267 H 0.48493 0.58607 0.50143 0.0
H268 H 0.38927 0.45554 0.50297 0.0
H269 H 0.33521 0.47562 0.50155 0.0
H270 H 0.4501 0.46682 0.53245 0.0
H271 H 0.44432 0.50573 0.44884 0.0
H272 H 0.44403 0.55043 0.4149 0.0
H273 H 0.56775 0.64668 0.43506 0.0
H274 H 0.56854 0.60279 0.46938 0.0
H275 H 0.57623 0.38821 0.4839 0.0
H276 H 0.52508 0.41099 0.48812 0.0
H277 H 0.62285 0.53414 0.50951 0.0
H278 H 0.67463 0.51118 0.50585 0.0
H279 H 0.56284 0.52759 0.46942 0.0
H280 H 0.56671 0.48158 0.55261 0.0
H281 H 0.56435 0.43101 0.58341 0.0
H282 H 0.4402 0.34096 0.55999 0.0
H283 H 0.44205 0.39068 0.52869 0.0
C284 C 0.42176 0.57293 0.49984 0.0
C285 C 0.3792 0.54223 0.49965 0.0
C286 C 0.4524 0.56162 0.50123 0.0
C287 C 0.4413 0.51926 0.50168 0.0
C288 C 0.39868 0.48844 0.50245 0.0
C289 C 0.36781 0.49987 0.50159 0.0
C290 C 0.47433 0.50753 0.50065 0.0
C291 C 0.47446 0.47982 0.5185 0.0
C292 C 0.50653 0.52474 0.4826 0.0
C293 C 0.50632 0.55111 0.46183 0.0
C294 C 0.47136 0.53654 0.44614 0.0
C295 C 0.47112 0.56172 0.42682 0.0
C296 C 0.50582 0.60141 0.42287 0.0
C297 C 0.54088 0.61595 0.43817 0.0
C298 C 0.54125 0.59092 0.45755 0.0
C299 C 0.58701 0.42021 0.4895 0.0
C300 C 0.62953 0.44801 0.49446 0.0
C301 C 0.55766 0.43306 0.49199 0.0
C302 C 0.5702 0.47412 0.4992 0.0
C303 C 0.61265 0.50226 0.50395 0.0
C304 C 0.64211 0.48914 0.5019 0.0
C305 C 0.53863 0.48737 0.50128 0.0
C306 C 0.53865 0.51505 0.48348 0.0
C307 C 0.50614 0.46942 0.51899 0.0
C308 C 0.50467 0.43976 0.53814 0.0
C309 C 0.53902 0.45088 0.55388 0.0
C310 C 0.53777 0.42239 0.57145 0.0
C311 C 0.50221 0.38279 0.57362 0.0
C312 C 0.46775 0.37164 0.55827 0.0
C313 C 0.46887 0.39998 0.54062 0.0
H314 H 0.50133 0.36077 0.58723 0.0
H315 H 0.50558 0.62088 0.40791 0.0
H316 H 0.83931 0.34146 0.79822 0.0
H317 H 0.9151 0.37936 0.7904 0.0
H318 H 0.91958 0.49669 0.80374 0.0
H319 H 0.84529 0.46008 0.81075 0.0
H320 H 0.96703 0.50619 0.76631 0.0
H321 H 0.94657 0.44433 0.84864 0.0
H322 H 0.91925 0.38541 0.87824 0.0
H323 H 0.98311 0.33288 0.83921 0.0
H324 H 0.01041 0.39129 0.80921 0.0
H325 H 0.17092 0.65129 0.8104 0.0
H326 H 0.09627 0.60337 0.8034 0.0
H327 H 0.12115 0.50413 0.78576 0.0
H328 H 0.19541 0.55144 0.79283 0.0
H329 H 0.06009 0.47805 0.81901 0.0
H330 H 0.08989 0.548 0.74076 0.0
H331 H 0.11784 0.60851 0.71236 0.0
H332 H 0.03692 0.64749 0.74454 0.0
H333 H 0.00885 0.58751 0.77337 0.0
C334 C 0.85648 0.37533 0.79924 0.0
C335 C 0.83589 0.39745 0.80524 0.0
C336 C 0.89983 0.39698 0.79487 0.0
C337 C 0.92326 0.44102 0.79664 0.0
C338 C 0.90244 0.46287 0.80208 0.0
C339 C 0.8596 0.44155 0.80626 0.0
C340 C 0.96961 0.46524 0.79391 0.0
C341 C 0.98736 0.50004 0.77788 0.0
C342 C 0.9964 0.45682 0.80849 0.0
C343 C 0.98007 0.42183 0.82653 0.0
C344 C 0.95452 0.42004 0.84628 0.0
C345 C 0.93909 0.38678 0.86314 0.0
C346 C 0.94932 0.35535 0.86056 0.0
C347 C 0.97513 0.35719 0.84116 0.0
C348 C 0.99059 0.39036 0.82422 0.0
C349 C 0.16064 0.61952 0.80457 0.0
C350 C 0.18932 0.60532 0.80233 0.0
C351 C 0.11789 0.59209 0.80056 0.0
C352 C 0.10301 0.55004 0.79402 0.0
C353 C 0.13176 0.53629 0.7909 0.0
C354 C 0.17435 0.56356 0.79491 0.0
C355 C 0.05736 0.51975 0.79203 0.0
C356 C 0.03984 0.48382 0.80712 0.0
C357 C 0.03078 0.52735 0.77673 0.0
C358 C 0.04747 0.56339 0.75935 0.0
C359 C 0.07825 0.56963 0.7419 0.0
C360 C 0.09409 0.60382 0.7257 0.0
C361 C 0.07922 0.63187 0.72667 0.0
C362 C 0.04841 0.62574 0.74381 0.0
C363 C 0.03249 0.59162 0.76006 0.0
H364 H 0.09152 0.65832 0.71412 0.0
H365 H 0.93735 0.32962 0.87363 0.0
H366 H 0.17843 0.61729 0.52365 0.0
H367 H 0.10339 0.5846 0.52965 0.0
H368 H 0.08797 0.46501 0.50862 0.0
H369 H 0.16356 0.4978 0.50217 0.0
H370 H 0.03619 0.48249 0.483 0.0
H371 H 0.07151 0.4842 0.56832 0.0
H372 H 0.10927 0.51475 0.60735 0.0
H373 H 0.06322 0.60075 0.60822 0.0
H374 H 0.02563 0.57111 0.56898 0.0
H375 H 0.82514 0.359 0.51325 0.0
H376 H 0.90016 0.39167 0.51867 0.0
H377 H 0.91111 0.51342 0.52091 0.0
H378 H 0.83524 0.48096 0.51491 0.0
H379 H 0.96431 0.49511 0.55722 0.0
H380 H 0.93175 0.49518 0.47092 0.0
H381 H 0.89368 0.46409 0.43204 0.0
H382 H 0.93507 0.37437 0.43339 0.0
H383 H 0.97269 0.40438 0.47261 0.0
C384 C 0.15928 0.58387 0.52062 0.0
C385 C 0.17711 0.5602 0.51229 0.0
C386 C 0.11627 0.56517 0.52422 0.0
C387 C 0.08997 0.52231 0.5197 0.0
C388 C 0.10771 0.49818 0.51224 0.0
C389 C 0.15094 0.51689 0.50871 0.0
C390 C 0.04388 0.50371 0.52084 0.0
C391 C 0.02049 0.48467 0.4994 0.0
C392 C 0.02345 0.50772 0.54196 0.0
C393 C 0.04605 0.52567 0.56556 0.0
C394 C 0.06972 0.50987 0.57671 0.0
C395 C 0.09104 0.52698 0.5989 0.0
C396 C 0.08873 0.55974 0.61023 0.0
C397 C 0.06501 0.5754 0.59941 0.0
C398 C 0.04366 0.55842 0.5772 0.0
C399 C 0.84309 0.39273 0.51522 0.0
C400 C 0.82395 0.41737 0.51328 0.0
C401 C 0.88611 0.41129 0.51838 0.0
C402 C 0.9111 0.45486 0.51993 0.0
C403 C 0.89216 0.47964 0.51972 0.0
C404 C 0.84885 0.46104 0.51627 0.0
C405 C 0.95711 0.47403 0.51946 0.0
C406 C 0.98029 0.49305 0.54092 0.0
C407 C 0.97748 0.47009 0.49837 0.0
C408 C 0.9547 0.45177 0.47485 0.0
C409 C 0.93233 0.4685 0.4631 0.0
C410 C 0.91091 0.45114 0.44097 0.0
C411 C 0.912 0.41732 0.43024 0.0
C412 C 0.9343 0.40061 0.44171 0.0
C413 C 0.95567 0.41778 0.4639 0.0
H414 H 0.8957 0.40416 0.413 0.0
H415 H 0.10525 0.57293 0.62742 0.0
H416 H 0.41982 0.83823 0.85008 0.0
H417 H 0.46903 0.91293 0.84486 0.0
H418 H 0.38783 0.92062 0.79033 0.0
H419 H 0.33798 0.84539 0.79555 0.0
H420 H 0.47317 0.96083 0.77566 0.0
H421 H 0.39112 0.95869 0.84551 0.0
H422 H 0.35869 0.93553 0.88669 0.0
H423 H 0.47959 0.98087 0.91957 0.0
H424 H 0.51271 1.00379 0.87852 0.0
H425 H 0.57021 0.19362 0.8201 0.0
H426 H 0.51634 0.12001 0.81896 0.0
H427 H 0.60629 0.0879 0.79206 0.0
H428 H 0.66069 0.16226 0.79282 0.0
H429 H 0.51386 0.05971 0.84619 0.0
H430 H 0.5563 0.99631 0.76148 0.0
H431 H 0.58606 0.01787 0.71953 0.0
H432 H 0.53961 0.1033 0.7153 0.0
H433 H 0.5103 0.08292 0.75743 0.0
C434 C 0.41216 0.85579 0.83709 0.0
C435 C 0.37485 0.83589 0.8233 0.0
C436 C 0.4404 0.89853 0.83413 0.0
C437 C 0.43211 0.92239 0.81724 0.0
C438 C 0.39485 0.90274 0.80344 0.0
C439 C 0.36627 0.85988 0.80658 0.0
C440 C 0.46257 0.9678 0.81412 0.0
C441 C 0.48199 0.98253 0.79105 0.0
C442 C 0.47418 0.9961 0.83418 0.0
C443 C 0.45435 0.98264 0.85891 0.0
C444 C 0.41076 0.96345 0.8615 0.0
C445 C 0.39226 0.95041 0.88482 0.0
C446 C 0.41706 0.95664 0.90572 0.0
C447 C 0.46042 0.97603 0.90336 0.0
C448 C 0.47907 0.98909 0.88008 0.0
C449 C 0.5786 0.17107 0.81365 0.0
C450 C 0.61992 0.18384 0.80675 0.0
C451 C 0.54765 0.12887 0.81303 0.0
C452 C 0.55708 0.09823 0.80548 0.0
C453 C 0.59803 0.11094 0.79771 0.0
C454 C 0.62917 0.15343 0.79825 0.0
C455 C 0.52461 0.05308 0.80765 0.0
C456 C 0.50501 0.03821 0.8307 0.0
C457 C 0.51285 0.02476 0.78756 0.0
C458 C 0.53145 0.03833 0.76263 0.0
C459 C 0.55267 0.01988 0.75163 0.0
C460 C 0.56958 0.03202 0.72788 0.0
C461 C 0.56503 0.06224 0.71485 0.0
C462 C 0.5436 0.08039 0.72557 0.0
C463 C 0.52702 0.06872 0.74942 0.0
H464 H 0.57791 0.07143 0.69641 0.0
H465 H 0.40267 0.94652 0.92376 0.0
H466 H 0.48193 0.65364 0.15081 0.0
H467 H 0.50943 0.60555 0.15339 0.0
H468 H 0.39464 0.51186 0.18715 0.0
H469 H 0.3668 0.55939 0.1844 0.0
H470 H 0.4691 0.51742 0.20846 0.0
H471 H 0.40087 0.49952 0.12992 0.0
H472 H 0.38559 0.52338 0.09069 0.0
H473 H 0.51391 0.57771 0.06876 0.0
H474 H 0.53 0.55424 0.10802 0.0
H475 H 0.51342 0.35068 0.1798 0.0
H476 H 0.47521 0.38924 0.18336 0.0
H477 H 0.57556 0.49475 0.14559 0.0
H478 H 0.61346 0.4575 0.14215 0.0
H479 H 0.49931 0.47573 0.1272 0.0
H480 H 0.5685 0.49671 0.20622 0.0
H481 H 0.58458 0.47309 0.24526 0.0
H482 H 0.45555 0.41382 0.26658 0.0
H483 H 0.43857 0.43652 0.22732 0.0
C484 C 0.4629 0.62313 0.15922 0.0
C485 C 0.42211 0.61024 0.16723 0.0
C486 C 0.47854 0.59563 0.16061 0.0
C487 C 0.45389 0.55503 0.1703 0.0
C488 C 0.41415 0.543 0.17962 0.0
C489 C 0.39826 0.57018 0.17791 0.0
C490 C 0.46824 0.52408 0.16882 0.0
C491 C 0.47516 0.50779 0.19071 0.0
C492 C 0.4762 0.5116 0.14569 0.0
C493 C 0.4667 0.52549 0.12199 0.0
C494 C 0.42589 0.51682 0.11681 0.0
C495 C 0.41707 0.53025 0.09456 0.0
C496 C 0.44879 0.55228 0.07728 0.0
C497 C 0.48938 0.56072 0.08218 0.0
C498 C 0.49835 0.54727 0.10441 0.0
C499 C 0.52712 0.382 0.1722 0.0
C500 C 0.56658 0.40086 0.16076 0.0
C501 C 0.50537 0.40403 0.1743 0.0
C502 C 0.52263 0.44492 0.16472 0.0
C503 C 0.56154 0.46325 0.15302 0.0
C504 C 0.58328 0.44174 0.15118 0.0
C505 C 0.50121 0.46969 0.16684 0.0
C506 C 0.49281 0.48486 0.14499 0.0
C507 C 0.49205 0.48111 0.19002 0.0
C508 C 0.50218 0.4678 0.2137 0.0
C509 C 0.54348 0.4783 0.21913 0.0
C510 C 0.55277 0.46514 0.24132 0.0
C511 C 0.52109 0.44183 0.25839 0.0
C512 C 0.48005 0.43178 0.25331 0.0
C513 C 0.47057 0.44478 0.23108 0.0
H514 H 0.52836 0.43166 0.27557 0.0
H515 H 0.44189 0.56269 0.06007 0.0
H516 H 0.65851 0.34137 0.8789 0.0
H517 H 0.65404 0.35731 0.92162 0.0
H518 H 0.72899 0.30143 0.94124 0.0
H519 H 0.7451 0.3008 0.89788 0.0
H520 H 0.6258 0.33289 0.95656 0.0
H521 H 0.75726 0.30271 -0.00314 0.0
H522 H 0.83081 0.3247 0.98801 0.0
H523 H 0.84417 0.43011 0.94652 0.0
H524 H 0.77078 0.40891 0.95537 0.0
H525 H 0.56744 0.29716 0.07794 0.0
H526 H 0.58567 0.29679 0.03513 0.0
H527 H 0.71639 0.35778 0.05589 0.0
H528 H 0.69495 0.34286 0.09869 0.0
H529 H 0.72316 0.33675 0.02042 0.0
H530 H 0.64668 0.40534 0.02095 0.0
H531 H 0.59141 0.42253 0.02909 0.0
H532 H 0.50343 0.31387 0.98835 0.0
H533 H 0.55805 0.2959 0.9801 0.0
C534 C 0.67782 0.33745 0.89239 0.0
C535 C 0.70641 0.32555 0.88496 0.0
C536 C 0.67336 0.34394 0.91732 0.0
C537 C 0.69278 0.33265 0.9359 0.0
C538 C 0.71689 0.31486 0.92817 0.0
C539 C 0.72521 0.31323 0.9031 0.0
C540 C 0.68542 0.33667 0.96294 0.0
C541 C 0.6483 0.33542 0.97022 0.0
C542 C 0.71428 0.34135 0.9818 0.0
C543 C 0.75843 0.354 0.97652 0.0
C544 C 0.77594 0.33066 0.98593 0.0
C545 C 0.81757 0.34293 0.98088 0.0
C546 C 0.84209 0.37866 0.9666 0.0
C547 C 0.82507 0.40229 0.95742 0.0
C548 C 0.78347 0.39014 0.96241 0.0
C549 C 0.60011 0.31056 0.07316 0.0
C550 C 0.63084 0.32472 0.09164 0.0
C551 C 0.61087 0.3117 0.04833 0.0
C552 C 0.6531 0.33118 0.04098 0.0
C553 C 0.68348 0.34361 0.05988 0.0
C554 C 0.67186 0.3376 0.08479 0.0
C555 C 0.665 0.33608 0.01399 0.0
C556 C 0.70222 0.33747 0.00673 0.0
C557 C 0.63974 0.33891 -0.00492 0.0
C558 C 0.60642 0.34912 0.00014 0.0
C559 C 0.61547 0.38499 0.01391 0.0
C560 C 0.58428 0.39487 0.01851 0.0
C561 C 0.54392 0.36921 0.00935 0.0
C562 C 0.5347 0.33369 -0.00454 0.0
C563 C 0.56579 0.3237 0.99076 0.0
H564 H 0.51982 0.37691 0.01295 0.0
H565 H 0.8743 0.3881 0.96272 0.0
H566 H 0.27246 0.62548 0.21927 0.0
H567 H 0.25801 0.61919 0.26377 0.0
H568 H 0.37893 0.72759 0.27731 0.0
H569 H 0.39377 0.73437 0.2331 0.0
H570 H 0.36505 0.65553 0.30209 0.0
H571 H 0.29583 0.73449 0.28818 0.0
H572 H 0.24519 0.75018 0.26833 0.0
H573 H 0.1439 0.63268 0.29388 0.0
H574 H 0.19398 0.61599 0.31359 0.0
H575 H 0.35658 0.66348 0.43077 0.0
H576 H 0.36115 0.68432 0.38732 0.0
H577 H 0.23446 0.5843 0.37535 0.0
H578 H 0.22942 0.56468 0.4193 0.0
H579 H 0.24975 0.65365 0.34985 0.0
H580 H 0.31571 0.57129 0.36081 0.0
H581 H 0.36412 0.55189 0.38008 0.0
H582 H 0.46856 0.67038 0.35862 0.0
H583 H 0.42071 0.69074 0.33953 0.0
C584 C 0.29569 0.64847 0.23165 0.0
C585 C 0.33457 0.67999 0.22264 0.0
C586 C 0.28726 0.64493 0.25704 0.0
C587 C 0.31752 0.67287 0.2737 0.0
C588 C 0.35529 0.70571 0.26466 0.0
C589 C 0.36368 0.70941 0.23936 0.0
C590 C 0.31218 0.66494 0.30059 0.0
C591 C 0.34025 0.6558 0.31263 0.0
C592 C 0.27887 0.6638 0.31397 0.0
C593 C 0.24871 0.6738 0.30214 0.0
C594 C 0.26279 0.7118 0.28937 0.0
C595 C 0.23417 0.72092 0.27818 0.0
C596 C 0.19136 0.69239 0.27978 0.0
C597 C 0.17707 0.65473 0.29262 0.0
C598 C 0.20556 0.64544 0.30383 0.0
C599 C 0.32942 0.64683 0.41894 0.0
C600 C 0.29222 0.61354 0.42825 0.0
C601 C 0.33215 0.65836 0.39415 0.0
C602 C 0.29821 0.63563 0.37813 0.0
C603 C 0.26085 0.60239 0.38749 0.0
C604 C 0.25804 0.5911 0.41242 0.0
C605 C 0.30289 0.64466 0.35131 0.0
C606 C 0.27465 0.65366 0.33929 0.0
C607 C 0.33569 0.64503 0.33772 0.0
C608 C 0.3646 0.63268 0.34893 0.0
C609 C 0.34899 0.59331 0.36034 0.0
C610 C 0.37632 0.58214 0.37122 0.0
C611 C 0.41938 0.60992 0.37062 0.0
C612 C 0.4352 0.64891 0.35909 0.0
C613 C 0.40799 0.66027 0.34822 0.0
H614 H 0.44048 0.6012 0.37903 0.0
H615 H 0.16926 0.69952 0.27111 0.0
H616 H 0.60969 0.30452 0.76462 0.0
H617 H 0.58685 0.30009 0.72148 0.0
H618 H 0.71149 0.39631 0.70111 0.0
H619 H 0.73343 0.40237 0.7445 0.0
H620 H 0.65702 0.40117 0.67215 0.0
H621 H 0.68225 0.28967 0.69958 0.0
H622 H 0.66971 0.23351 0.72925 0.0
H623 H 0.53891 0.16941 0.71145 0.0
H624 H 0.55082 0.22514 0.68165 0.0
H625 H 0.68671 0.294 0.56251 0.0
H626 H 0.67003 0.28877 0.60663 0.0
H627 H 0.58975 0.34016 0.59279 0.0
H628 H 0.60811 0.34739 0.54883 0.0
H629 H 0.60931 0.25854 0.63935 0.0
H630 H 0.6097 0.4145 0.63574 0.0
H631 H 0.63234 0.47537 0.60797 0.0
H632 H 0.7289 0.45601 0.57843 0.0
H633 H 0.70749 0.39571 0.60644 0.0
C634 C 0.63161 0.32558 0.75094 0.0
C635 C 0.67317 0.35365 0.75747 0.0
C636 C 0.61871 0.32293 0.72639 0.0
C637 C 0.64776 0.34709 0.70802 0.0
C638 C 0.68858 0.37732 0.71497 0.0
C639 C 0.70116 0.38073 0.73965 0.0
C640 C 0.63771 0.33725 0.68146 0.0
C641 C 0.64593 0.36989 0.66499 0.0
C642 C 0.62404 0.29656 0.67209 0.0
C643 C 0.61737 0.26152 0.68851 0.0
C644 C 0.6509 0.26338 0.70189 0.0
C645 C 0.64391 0.23168 0.71874 0.0
C646 C 0.60356 0.19788 0.72224 0.0
C647 C 0.5702 0.19548 0.70867 0.0
C648 C 0.57705 0.22703 0.69173 0.0
C649 C 0.6645 0.30292 0.56881 0.0
C650 C 0.64931 0.32184 0.55254 0.0
C651 C 0.6549 0.29987 0.594 0.0
C652 C 0.62956 0.31518 0.60305 0.0
C653 C 0.61018 0.32914 0.58625 0.0
C654 C 0.62059 0.33316 0.56119 0.0
C655 C 0.62911 0.32263 0.62995 0.0
C656 C 0.6191 0.28957 0.6465 0.0
C657 C 0.64265 0.36334 0.63935 0.0
C658 C 0.6566 0.40029 0.62294 0.0
C659 C 0.63588 0.42339 0.6234 0.0
C660 C 0.6485 0.45777 0.60762 0.0
C661 C 0.68185 0.46937 0.59133 0.0
C662 C 0.70297 0.44689 0.59098 0.0
C663 C 0.69066 0.41268 0.60684 0.0
H664 H 0.69141 0.49585 0.57903 0.0
H665 H 0.59816 0.17365 0.73551 0.0
H666 H 0.36078 0.68245 0.88774 0.0
H667 H 0.36321 0.6672 0.93167 0.0
H668 H 0.235 0.63599 0.93994 0.0
H669 H 0.23174 0.64874 0.89551 0.0
H670 H 0.32528 0.71911 0.96433 0.0
H671 H 0.22019 0.57166 0.96454 0.0
H672 H 0.18409 0.49626 0.95478 0.0
H673 H 0.29692 0.49373 0.96919 0.0
H674 H 0.3336 0.56918 0.97911 0.0
H675 H 0.32494 0.70875 0.09645 0.0
H676 H 0.30048 0.69543 0.05333 0.0
H677 H 0.38906 0.65534 0.03687 0.0
H678 H 0.41335 0.66856 0.08006 0.0
H679 H 0.30918 0.60218 0.01746 0.0
H680 H 0.41112 0.75042 0.02107 0.0
H681 H 0.4405 0.82208 0.03747 0.0
H682 H 0.32778 0.82169 0.01801 0.0
H683 H 0.29751 0.74975 0.00181 0.0
C684 C 0.33245 0.66986 0.89862 0.0
C685 C 0.29563 0.66515 0.88819 0.0
C686 C 0.33389 0.66138 0.92369 0.0
C687 C 0.29896 0.64948 0.93883 0.0
C688 C 0.26178 0.64377 0.92835 0.0
C689 C 0.26009 0.65142 0.90311 0.0
C690 C 0.30499 0.6533 0.96587 0.0
C691 C 0.32103 0.69338 0.9761 0.0
C692 C 0.29996 0.61986 0.98097 0.0
C693 C 0.27983 0.57618 0.97201 0.0
C694 C 0.23753 0.55523 0.96507 0.0
C695 C 0.21679 0.51235 0.95989 0.0
C696 C 0.23818 0.49019 0.9614 0.0
C697 C 0.28038 0.51091 0.96803 0.0
C698 C 0.30114 0.55371 0.97344 0.0
C699 C 0.3386 0.6965 0.08361 0.0
C700 C 0.36989 0.68827 0.09142 0.0
C701 C 0.32495 0.68927 0.05906 0.0
C702 C 0.34297 0.67434 0.04204 0.0
C703 C 0.37459 0.66652 0.04985 0.0
C704 C 0.38844 0.67408 0.07436 0.0
C705 C 0.32977 0.66797 0.01586 0.0
C706 C 0.3129 0.62775 0.00577 0.0
C707 C 0.33353 0.70119 0.00094 0.0
C708 C 0.3519 0.74457 0.01047 0.0
C709 C 0.39248 0.7655 0.02046 0.0
C710 C 0.40932 0.80618 0.02969 0.0
C711 C 0.38598 0.82638 0.02885 0.0
C712 C 0.3458 0.80598 0.01869 0.0
C713 C 0.3288 0.76527 0.00947 0.0
H714 H 0.39906 0.85787 0.03601 0.0
H715 H 0.2221 0.45701 0.95734 0.0
H716 H 0.66337 0.32798 0.42235 0.0
H717 H 0.67065 0.32131 0.37777 0.0
H718 H 0.79641 0.42621 0.38052 0.0
H719 H 0.79022 0.43082 0.42545 0.0
H720 H 0.70125 0.41069 0.35203 0.0
H721 H 0.82511 0.39506 0.3545 0.0
H722 H 0.86768 0.36337 0.36582 0.0
H723 H 0.77074 0.24379 0.33974 0.0
H724 H 0.72716 0.27471 0.32886 0.0
H725 H 0.71777 0.42854 0.22014 0.0
H726 H 0.74161 0.43634 0.26326 0.0
H727 H 0.66958 0.30237 0.27307 0.0
H728 H 0.6454 0.29424 0.23027 0.0
H729 H 0.75055 0.34004 0.29459 0.0
H730 H 0.62836 0.35642 0.29093 0.0
H731 H 0.58725 0.38865 0.27726 0.0
H732 H 0.6822 0.50783 0.30504 0.0
H733 H 0.72417 0.47642 0.31854 0.0
C734 C 0.69336 0.34777 0.41365 0.0
C735 C 0.7268 0.37873 0.42731 0.0
C736 C 0.69746 0.34416 0.38823 0.0
C737 C 0.73452 0.37247 0.37603 0.0
C738 C 0.76828 0.40295 0.38974 0.0
C739 C 0.76451 0.40587 0.41529 0.0
C740 C 0.73365 0.37612 0.3489 0.0
C741 C 0.71283 0.39603 0.33939 0.0
C742 C 0.74834 0.35653 0.33264 0.0
C743 C 0.77253 0.33701 0.3414 0.0
C744 C 0.8124 0.3618 0.35182 0.0
C745 C 0.83693 0.34408 0.35789 0.0
C746 C 0.82203 0.30162 0.35339 0.0
C747 C 0.78232 0.2767 0.34313 0.0
C748 C 0.75763 0.29427 0.33712 0.0
C749 C 0.70733 0.40076 0.23144 0.0
C750 C 0.67934 0.36083 0.22194 0.0
C751 C 0.72098 0.40527 0.25599 0.0
C752 C 0.7072 0.3699 0.27122 0.0
C753 C 0.68061 0.32997 0.26151 0.0
C754 C 0.66655 0.32546 0.23714 0.0
C755 C 0.71782 0.3743 0.29781 0.0
C756 C 0.7399 0.35556 0.30721 0.0
C757 C 0.70448 0.39519 0.31405 0.0
C758 C 0.67966 0.41421 0.30543 0.0
C759 C 0.64071 0.38961 0.29383 0.0
C760 C 0.6172 0.4077 0.28618 0.0
C761 C 0.63216 0.45027 0.29023 0.0
C762 C 0.6707 0.47488 0.30187 0.0
C763 C 0.69436 0.45696 0.30952 0.0
H764 H 0.61381 0.46417 0.2845 0.0
H765 H 0.84112 0.28799 0.358 0.0
H766 H 0.34948 0.74749 0.75097 0.0
H767 H 0.36848 0.7507 0.70751 0.0
H768 H 0.40041 0.65474 0.72005 0.0
H769 H 0.38063 0.65054 0.76355 0.0
H770 H 0.43314 0.76144 0.6774 0.0
H771 H 0.35223 0.58152 0.67579 0.0
H772 H 0.30116 0.52071 0.7003 0.0
H773 H 0.24459 0.59091 0.72551 0.0
H774 H 0.29489 0.65182 0.70086 0.0
H775 H 0.36732 0.61468 0.56003 0.0
H776 H 0.39128 0.63342 0.6026 0.0
H777 H 0.36077 0.73181 0.60035 0.0
H778 H 0.33698 0.71353 0.55746 0.0
H779 H 0.33681 0.62485 0.63799 0.0
H780 H 0.42067 0.80611 0.64444 0.0
H781 H 0.46809 0.86785 0.61938 0.0
H782 H 0.51419 0.79633 0.58244 0.0
H783 H 0.46754 0.73435 0.60752 0.0
C784 C 0.36132 0.72759 0.74467 0.0
C785 C 0.36237 0.69784 0.76056 0.0
C786 C 0.37253 0.72979 0.71984 0.0
C787 C 0.38507 0.70243 0.71056 0.0
C788 C 0.39018 0.67569 0.72688 0.0
C789 C 0.37863 0.67318 0.75168 0.0
C790 C 0.38591 0.69707 0.68352 0.0
C791 C 0.4122 0.73166 0.66867 0.0
C792 C 0.35864 0.65809 0.6723 0.0
C793 C 0.32766 0.62133 0.68676 0.0
C794 C 0.32879 0.58388 0.68651 0.0
C795 C 0.29998 0.54941 0.70042 0.0
C796 C 0.26976 0.552 0.71453 0.0
C797 C 0.26811 0.58898 0.71465 0.0
C798 C 0.29676 0.62348 0.70072 0.0
C799 C 0.36622 0.64073 0.56841 0.0
C800 C 0.34944 0.66212 0.55555 0.0
C801 C 0.38019 0.65153 0.5927 0.0
C802 C 0.37774 0.6839 0.60458 0.0
C803 C 0.36338 0.70702 0.59136 0.0
C804 C 0.34952 0.69635 0.56693 0.0
C805 C 0.38421 0.68917 0.63163 0.0
C806 C 0.3587 0.65448 0.64657 0.0
C807 C 0.41173 0.72819 0.64274 0.0
C808 C 0.4403 0.76545 0.62774 0.0
C809 C 0.44106 0.80359 0.63106 0.0
C810 C 0.46779 0.83864 0.61683 0.0
C811 C 0.49404 0.83598 0.59928 0.0
C812 C 0.49372 0.7983 0.59597 0.0
C813 C 0.46708 0.76318 0.61016 0.0
H814 H 0.51469 0.86314 0.58828 0.0
H815 H 0.24755 0.52532 0.72532 0.0
loop_
_geom_bond_atom_site_label_1
_geom_bond_atom_site_label_2
_geom_bond_distance
_geom_bond_site_symmetry_2
_ccdc_geom_bond_type
Mn0 O5 2.095 . S
Mn0 O15 2.162 . S
Mn0 O16 2.297 . S
Mn0 O24 2.385 . S
Mn0 O25 2.209 . S
Mn0 O26 2.094 . S
Mn1 O6 2.121 . S
Mn1 N8 2.257 . S
Mn1 N17 2.282 . S
Mn1 O25 2.215 . S
Mn1 O27 2.117 . S
C2 O24 1.234 . S
C2 O25 1.283 . S
C3 O15 1.281 . S
C3 O16 1.236 . S
C4 O26 1.240 . S
C4 O27 1.264 . S
O5 Mn0 2.095 . S
O5 C14 1.250 . S
O6 Mn1 2.121 . S
O6 C14 1.258 . S
C7 N8 1.326 . S
C7 C11 1.460 . S
C7 H13 0.929 . S
N8 Mn1 2.257 . S
N8 C7 1.326 . S
N8 C12 1.362 . S
C9 C10 1.258 . S
C9 C12 1.431 . S
C9 C29 1.449 . S
C10 C9 1.258 . S
C10 C11 1.477 . S
C10 H30 0.931 . S
C11 C7 1.460 . S
C11 C10 1.477 . S
C11 H31 0.930 . S
C12 N8 1.362 . S
C12 C9 1.431 . S
C12 C22 1.476 . S
H13 C7 0.929 . S
C14 O5 1.250 . S
C14 O6 1.258 . S
O15 Mn0 2.162 . S
O15 C3 1.281 . S
O16 Mn0 2.297 . S
O16 C3 1.236 . S
N17 Mn1 2.282 . S
N17 C18 1.328 . S
N17 C22 1.318 . S
C18 N17 1.328 . S
C18 C19 1.457 . S
C18 H23 0.929 . S
C19 C18 1.457 . S
C19 C20 1.291 . S
C19 H32 0.931 . S
C20 C19 1.291 . S
C20 C21 1.373 . S
C20 H33 0.929 . S
C21 C20 1.373 . S
C21 C22 1.396 . S
C21 C28 1.403 . S
C22 C12 1.476 . S
C22 N17 1.318 . S
C22 C21 1.396 . S
H23 C18 0.929 . S
O24 Mn0 2.385 . S
O24 C2 1.234 . S
O25 Mn0 2.209 . S
O25 Mn1 2.215 . S
O25 C2 1.283 . S
O26 Mn0 2.094 . S
O26 C4 1.240 . S
O27 Mn1 2.117 . S
O27 C4 1.264 . S
C28 C21 1.403 . S
C28 C29 1.399 . S
C28 H34 0.929 . S
C29 C9 1.449 . S
C29 C28 1.399 . S
C29 H35 0.930 . S
H30 C10 0.931 . S
H31 C11 0.930 . S
H32 C19 0.931 . S
H33 C20 0.929 . S
H34 C28 0.929 . S
H35 C29 0.930 . S
Mn36 O41 2.095 . S
Mn36 O51 2.162 . S
Mn36 O52 2.297 . S
Mn36 O60 2.385 . S
Mn36 O61 2.209 . S
Mn36 O62 2.094 . S
Mn37 O42 2.121 . S
Mn37 N44 2.257 . S
Mn37 N53 2.282 . S
Mn37 O61 2.215 . S
Mn37 O63 2.117 . S
C38 O60 1.234 . S
C38 O61 1.283 . S
C39 O51 1.281 . S
C39 O52 1.236 . S
C40 O62 1.240 . S
C40 O63 1.264 . S
O41 Mn36 2.095 . S
O41 C50 1.250 . S
O42 Mn37 2.121 . S
O42 C50 1.258 . S
C43 N44 1.326 . S
C43 C47 1.460 . S
C43 H49 0.929 . S
N44 Mn37 2.257 . S
N44 C43 1.326 . S
N44 C48 1.362 . S
C45 C46 1.258 . S
C45 C48 1.431 . S
C45 C65 1.449 . S
C46 C45 1.258 . S
C46 C47 1.477 . S
C46 H66 0.931 . S
C47 C43 1.460 . S
C47 C46 1.477 . S
C47 H67 0.930 . S
C48 N44 1.362 . S
C48 C45 1.431 . S
C48 C58 1.476 . S
H49 C43 0.929 . S
C50 O41 1.250 . S
C50 O42 1.258 . S
O51 Mn36 2.162 . S
O51 C39 1.281 . S
O52 Mn36 2.297 . S
O52 C39 1.236 . S
N53 Mn37 2.282 . S
N53 C54 1.328 . S
N53 C58 1.318 . S
C54 N53 1.328 . S
C54 C55 1.457 . S
C54 H59 0.929 . S
C55 C54 1.457 . S
C55 C56 1.291 . S
C55 H68 0.931 . S
C56 C55 1.291 . S
C56 C57 1.373 . S
C56 H69 0.929 . S
C57 C56 1.373 . S
C57 C58 1.396 . S
C57 C64 1.403 . S
C58 C48 1.476 . S
C58 N53 1.318 . S
C58 C57 1.396 . S
H59 C54 0.929 . S
O60 Mn36 2.385 . S
O60 C38 1.234 . S
O61 Mn36 2.209 . S
O61 Mn37 2.215 . S
O61 C38 1.283 . S
O62 Mn36 2.094 . S
O62 C40 1.240 . S
O63 Mn37 2.117 . S
O63 C40 1.264 . S
C64 C57 1.403 . S
C64 C65 1.399 . S
C64 H70 0.929 . S
C65 C45 1.449 . S
C65 C64 1.399 . S
C65 H71 0.930 . S
H66 C46 0.931 . S
H67 C47 0.930 . S
H68 C55 0.931 . S
H69 C56 0.929 . S
H70 C64 0.929 . S
H71 C65 0.930 . S
Mn72 O77 2.095 . S
Mn72 O87 2.162 . S
Mn72 O88 2.297 . S
Mn72 O96 2.385 . S
Mn72 O97 2.209 . S
Mn72 O98 2.094 . S
Mn73 O78 2.121 . S
Mn73 N80 2.257 . S
Mn73 N89 2.282 . S
Mn73 O97 2.215 . S
Mn73 O99 2.117 . S
C74 O96 1.234 . S
C74 O97 1.283 . S
C75 O87 1.281 . S
C75 O88 1.236 . S
C76 O98 1.240 . S
C76 O99 1.264 . S
O77 Mn72 2.095 . S
O77 C86 1.250 . S
O78 Mn73 2.121 . S
O78 C86 1.258 . S
C79 N80 1.326 . S
C79 C83 1.460 . S
C79 H85 0.929 . S
N80 Mn73 2.257 . S
N80 C79 1.326 . S
N80 C84 1.362 . S
C81 C82 1.258 . S
C81 C84 1.431 . S
C81 C101 1.449 . S
C82 C81 1.258 . S
C82 C83 1.477 . S
C82 H102 0.931 . S
C83 C79 1.460 . S
C83 C82 1.477 . S
C83 H103 0.930 . S
C84 N80 1.362 . S
C84 C81 1.431 . S
C84 C94 1.476 . S
H85 C79 0.929 . S
C86 O77 1.250 . S
C86 O78 1.258 . S
O87 Mn72 2.162 . S
O87 C75 1.281 . S
O88 Mn72 2.297 . S
O88 C75 1.236 . S
N89 Mn73 2.282 . S
N89 C90 1.328 . S
N89 C94 1.318 . S
C90 N89 1.328 . S
C90 C91 1.457 . S
C90 H95 0.929 . S
C91 C90 1.457 . S
C91 C92 1.291 . S
C91 H104 0.931 . S
C92 C91 1.291 . S
C92 C93 1.373 . S
C92 H105 0.929 . S
C93 C92 1.373 . S
C93 C94 1.396 . S
C93 C100 1.403 . S
C94 C84 1.476 . S
C94 N89 1.318 . S
C94 C93 1.396 . S
H95 C90 0.929 . S
O96 Mn72 2.385 . S
O96 C74 1.234 . S
O97 Mn72 2.209 . S
O97 Mn73 2.215 . S
O97 C74 1.283 . S
O98 Mn72 2.094 . S
O98 C76 1.240 . S
O99 Mn73 2.117 . S
O99 C76 1.264 . S
C100 C93 1.403 . S
C100 C101 1.399 . S
C100 H106 0.929 . S
C101 C81 1.449 . S
C101 C100 1.399 . S
C101 H107 0.930 . S
H102 C82 0.931 . S
H103 C83 0.930 . S
H104 C91 0.931 . S
H105 C92 0.929 . S
H106 C100 0.929 . S
H107 C101 0.930 . S
Mn108 O113 2.095 . S
Mn108 O123 2.162 . S
Mn108 O124 2.297 . S
Mn108 O132 2.385 . S
Mn108 O133 2.209 . S
Mn108 O134 2.094 . S
Mn109 O114 2.121 . S
Mn109 N116 2.257 . S
Mn109 N125 2.282 . S
Mn109 O133 2.215 . S
Mn109 O135 2.117 . S
C110 O132 1.234 . S
C110 O133 1.283 . S
C111 O123 1.281 . S
C111 O124 1.236 . S
C112 O134 1.240 . S
C112 O135 1.264 . S
O113 Mn108 2.095 . S
O113 C122 1.250 . S
O114 Mn109 2.121 . S
O114 C122 1.258 . S
C115 N116 1.326 . S
C115 C119 1.460 . S
C115 H121 0.929 . S
N116 Mn109 2.257 . S
N116 C115 1.326 . S
N116 C120 1.362 . S
C117 C118 1.258 . S
C117 C120 1.431 . S
C117 C137 1.449 . S
C118 C117 1.258 . S
C118 C119 1.477 . S
C118 H138 0.931 . S
C119 C115 1.460 . S
C119 C118 1.477 . S
C119 H139 0.930 . S
C120 N116 1.362 . S
C120 C117 1.431 . S
C120 C130 1.476 . S
H121 C115 0.929 . S
C122 O113 1.250 . S
C122 O114 1.258 . S
O123 Mn108 2.162 . S
O123 C111 1.281 . S
O124 Mn108 2.297 . S
O124 C111 1.236 . S
N125 Mn109 2.282 . S
N125 C126 1.328 . S
N125 C130 1.318 . S
C126 N125 1.328 . S
C126 C127 1.457 . S
C126 H131 0.929 . S
C127 C126 1.457 . S
C127 C128 1.291 . S
C127 H140 0.931 . S
C128 C127 1.291 . S
C128 C129 1.373 . S
C128 H141 0.929 . S
C129 C128 1.373 . S
C129 C130 1.396 . S
C129 C136 1.403 . S
C130 C120 1.476 . S
C130 N125 1.318 . S
C130 C129 1.396 . S
H131 C126 0.929 . S
O132 Mn108 2.385 . S
O132 C110 1.234 . S
O133 Mn108 2.209 . S
O133 Mn109 2.215 . S
O133 C110 1.283 . S
O134 Mn108 2.094 . S
O134 C112 1.240 . S
O135 Mn109 2.117 . S
O135 C112 1.264 . S
C136 C129 1.403 . S
C136 C137 1.399 . S
C136 H142 0.929 . S
C137 C117 1.449 . S
C137 C136 1.399 . S
C137 H143 0.930 . S
H138 C118 0.931 . S
H139 C119 0.930 . S
H140 C127 0.931 . S
H141 C128 0.929 . S
H142 C136 0.929 . S
H143 C137 0.930 . S
Mn144 O149 2.095 . S
Mn144 O159 2.162 . S
Mn144 O160 2.297 . S
Mn144 O168 2.385 . S
Mn144 O169 2.209 . S
Mn144 O170 2.094 . S
Mn145 O150 2.121 . S
Mn145 N152 2.257 . S
Mn145 N161 2.282 . S
Mn145 O169 2.215 . S
Mn145 O171 2.117 . S
C146 O168 1.234 . S
C146 O169 1.283 . S
C147 O159 1.281 . S
C147 O160 1.236 . S
C148 O170 1.240 . S
C148 O171 1.264 . S
O149 Mn144 2.095 . S
O149 C158 1.250 . S
O150 Mn145 2.121 . S
O150 C158 1.258 . S
C151 N152 1.326 . S
C151 C155 1.460 . S
C151 H157 0.929 . S
N152 Mn145 2.257 . S
N152 C151 1.326 . S
N152 C156 1.362 . S
C153 C154 1.258 . S
C153 C156 1.431 . S
C153 C173 1.449 . S
C154 C153 1.258 . S
C154 C155 1.477 . S
C154 H174 0.931 . S
C155 C151 1.460 . S
C155 C154 1.477 . S
C155 H175 0.930 . S
C156 N152 1.362 . S
C156 C153 1.431 . S
C156 C166 1.476 . S
H157 C151 0.929 . S
C158 O149 1.250 . S
C158 O150 1.258 . S
O159 Mn144 2.162 . S
O159 C147 1.281 . S
O160 Mn144 2.297 . S
O160 C147 1.236 . S
N161 Mn145 2.282 . S
N161 C162 1.328 . S
N161 C166 1.318 . S
C162 N161 1.328 . S
C162 C163 1.457 . S
C162 H167 0.929 . S
C163 C162 1.457 . S
C163 C164 1.291 . S
C163 H176 0.931 . S
C164 C163 1.291 . S
C164 C165 1.373 . S
C164 H177 0.929 . S
C165 C164 1.373 . S
C165 C166 1.396 . S
C165 C172 1.403 . S
C166 C156 1.476 . S
C166 N161 1.318 . S
C166 C165 1.396 . S
H167 C162 0.929 . S
O168 Mn144 2.385 . S
O168 C146 1.234 . S
O169 Mn144 2.209 . S
O169 Mn145 2.215 . S
O169 C146 1.283 . S
O170 Mn144 2.094 . S
O170 C148 1.240 . S
O171 Mn145 2.117 . S
O171 C148 1.264 . S
C172 C165 1.403 . S
C172 C173 1.399 . S
C172 H178 0.929 . S
C173 C153 1.449 . S
C173 C172 1.399 . S
C173 H179 0.930 . S
H174 C154 0.931 . S
H175 C155 0.930 . S
H176 C163 0.931 . S
H177 C164 0.929 . S
H178 C172 0.929 . S
H179 C173 0.930 . S
Mn180 O185 2.095 . S
Mn180 O195 2.162 . S
Mn180 O196 2.297 . S
Mn180 O204 2.385 . S
Mn180 O205 2.209 . S
Mn180 O206 2.094 . S
Mn181 O186 2.121 . S
Mn181 N188 2.257 . S
Mn181 N197 2.282 . S
Mn181 O205 2.215 . S
Mn181 O207 2.117 . S
C182 O204 1.234 . S
C182 O205 1.283 . S
C183 O195 1.281 . S
C183 O196 1.236 . S
C184 O206 1.240 . S
C184 O207 1.264 . S
O185 Mn180 2.095 . S
O185 C194 1.250 . S
O186 Mn181 2.121 . S
O186 C194 1.258 . S
C187 N188 1.326 . S
C187 C191 1.460 . S
C187 H193 0.929 . S
N188 Mn181 2.257 . S
N188 C187 1.326 . S
N188 C192 1.362 . S
C189 C190 1.258 . S
C189 C192 1.431 . S
C189 C209 1.449 . S
C190 C189 1.258 . S
C190 C191 1.477 . S
C190 H210 0.931 . S
C191 C187 1.460 . S
C191 C190 1.477 . S
C191 H211 0.930 . S
C192 N188 1.362 . S
C192 C189 1.431 . S
C192 C202 1.476 . S
H193 C187 0.929 . S
C194 O185 1.250 . S
C194 O186 1.258 . S
O195 Mn180 2.162 . S
O195 C183 1.281 . S
O196 Mn180 2.297 . S
O196 C183 1.236 . S
N197 Mn181 2.282 . S
N197 C198 1.328 . S
N197 C202 1.318 . S
C198 N197 1.328 . S
C198 C199 1.457 . S
C198 H203 0.929 . S
C199 C198 1.457 . S
C199 C200 1.291 . S
C199 H212 0.931 . S
C200 C199 1.291 . S
C200 C201 1.373 . S
C200 H213 0.929 . S
C201 C200 1.373 . S
C201 C202 1.396 . S
C201 C208 1.403 . S
C202 C192 1.476 . S
C202 N197 1.318 . S
C202 C201 1.396 . S
H203 C198 0.929 . S
O204 Mn180 2.385 . S
O204 C182 1.234 . S
O205 Mn180 2.209 . S
O205 Mn181 2.215 . S
O205 C182 1.283 . S
O206 Mn180 2.094 . S
O206 C184 1.240 . S
O207 Mn181 2.117 . S
O207 C184 1.264 . S
C208 C201 1.403 . S
C208 C209 1.399 . S
C208 H214 0.929 . S
C209 C189 1.449 . S
C209 C208 1.399 . S
C209 H215 0.930 . S
H210 C190 0.931 . S
H211 C191 0.930 . S
H212 C199 0.931 . S
H213 C200 0.929 . S
H214 C208 0.929 . S
H215 C209 0.930 . S
H216 C234 0.951 . S
H217 C236 0.951 . S
H218 C238 0.950 . S
H219 C239 0.950 . S
H220 C241 0.950 . S
H221 C244 0.950 . S
H222 C245 0.950 . S
H223 C247 0.950 . S
H224 C248 0.950 . S
H225 C249 0.951 . S
H226 C251 0.951 . S
H227 C253 0.950 . S
H228 C254 0.950 . S
H229 C256 0.950 . S
H230 C259 0.950 . S
H231 C260 0.950 . S
H232 C262 0.950 . S
H233 C263 0.950 . S
C234 H216 0.951 . S
C234 C235 1.366 . S
C234 C236 1.388 . S
C235 C234 1.366 . S
C235 C239 1.385 . S
C236 H217 0.951 . S
C236 C234 1.388 . S
C236 C237 1.366 . S
C237 C236 1.366 . S
C237 C238 1.414 . S
C237 C240 1.499 . S
C238 H218 0.950 . S
C238 C237 1.414 . S
C238 C239 1.374 . S
C239 H219 0.950 . S
C239 C235 1.385 . S
C239 C238 1.374 . S
C240 C237 1.499 . S
C240 C241 1.373 . S
C240 C242 1.389 . S
C241 H220 0.950 . S
C241 C240 1.373 . S
C241 C257 1.377 1_545 S
C242 C240 1.389 . S
C242 C243 1.524 . S
C242 C256 1.377 1_545 S
C243 C242 1.524 . S
C243 C244 1.397 . S
C243 C248 1.363 . S
C244 H221 0.950 . S
C244 C243 1.397 . S
C244 C245 1.334 . S
C245 H222 0.950 . S
C245 C244 1.334 . S
C245 C246 1.287 . S
C246 C245 1.287 . S
C246 C247 1.524 . S
C246 H265 0.913 . S
C247 H223 0.950 . S
C247 C246 1.524 . S
C247 C248 1.415 . S
C248 H224 0.950 . S
C248 C243 1.363 . S
C248 C247 1.415 . S
C249 H225 0.951 . S
C249 C250 1.366 . S
C249 C251 1.388 . S
C250 C249 1.366 . S
C250 C254 1.385 . S
C251 H226 0.951 . S
C251 C249 1.388 . S
C251 C252 1.366 . S
C252 C251 1.366 . S
C252 C253 1.414 . S
C252 C255 1.499 . S
C253 H227 0.950 . S
C253 C252 1.414 . S
C253 C254 1.374 . S
C254 H228 0.950 . S
C254 C250 1.385 . S
C254 C253 1.374 . S
C255 C252 1.499 . S
C255 C256 1.373 . S
C255 C257 1.389 . S
C256 H229 0.950 . S
C256 C242 1.377 1_565 S
C256 C255 1.373 . S
C257 C241 1.377 1_565 S
C257 C255 1.389 . S
C257 C258 1.524 . S
C258 C257 1.524 . S
C258 C259 1.397 . S
C258 C263 1.363 . S
C259 H230 0.950 . S
C259 C258 1.397 . S
C259 C260 1.334 . S
C260 H231 0.950 . S
C260 C259 1.334 . S
C260 C261 1.287 . S
C261 C260 1.287 . S
C261 C262 1.524 . S
C261 H264 0.999 . S
C262 H232 0.950 . S
C262 C261 1.524 . S
C262 C263 1.415 . S
C263 H233 0.950 . S
C263 C258 1.363 . S
C263 C262 1.415 . S
H264 C261 0.999 . S
H265 C246 0.913 . S
H266 C284 0.951 . S
H267 C286 0.951 . S
H268 C288 0.950 . S
H269 C289 0.950 . S
H270 C291 0.950 . S
H271 C294 0.950 . S
H272 C295 0.950 . S
H273 C297 0.950 . S
H274 C298 0.950 . S
H275 C299 0.951 . S
H276 C301 0.951 . S
H277 C303 0.950 . S
H278 C304 0.950 . S
H279 C306 0.950 . S
H280 C309 0.950 . S
H281 C310 0.950 . S
H282 C312 0.950 . S
H283 C313 0.950 . S
C284 H266 0.951 . S
C284 C285 1.366 . S
C284 C286 1.388 . S
C285 C284 1.366 . S
C285 C289 1.385 . S
C286 H267 0.951 . S
C286 C284 1.388 . S
C286 C287 1.366 . S
C287 C286 1.366 . S
C287 C288 1.414 . S
C287 C290 1.499 . S
C288 H268 0.950 . S
C288 C287 1.414 . S
C288 C289 1.374 . S
C289 H269 0.950 . S
C289 C285 1.385 . S
C289 C288 1.374 . S
C290 C287 1.499 . S
C290 C291 1.373 . S
C290 C292 1.389 . S
C291 H270 0.950 . S
C291 C290 1.373 . S
C291 C307 1.377 . S
C292 C290 1.389 . S
C292 C293 1.524 . S
C292 C306 1.377 . S
C293 C292 1.524 . S
C293 C294 1.397 . S
C293 C298 1.363 . S
C294 H271 0.950 . S
C294 C293 1.397 . S
C294 C295 1.334 . S
C295 H272 0.950 . S
C295 C294 1.334 . S
C295 C296 1.287 . S
C296 C295 1.287 . S
C296 C297 1.524 . S
C296 H315 0.913 . S
C297 H273 0.950 . S
C297 C296 1.524 . S
C297 C298 1.415 . S
C298 H274 0.950 . S
C298 C293 1.363 . S
C298 C297 1.415 . S
C299 H275 0.951 . S
C299 C300 1.366 . S
C299 C301 1.388 . S
C300 C299 1.366 . S
C300 C304 1.385 . S
C301 H276 0.951 . S
C301 C299 1.388 . S
C301 C302 1.366 . S
C302 C301 1.366 . S
C302 C303 1.414 . S
C302 C305 1.499 . S
C303 H277 0.950 . S
C303 C302 1.414 . S
C303 C304 1.374 . S
C304 H278 0.950 . S
C304 C300 1.385 . S
C304 C303 1.374 . S
C305 C302 1.499 . S
C305 C306 1.373 . S
C305 C307 1.389 . S
C306 H279 0.950 . S
C306 C292 1.377 . S
C306 C305 1.373 . S
C307 C291 1.377 . S
C307 C305 1.389 . S
C307 C308 1.524 . S
C308 C307 1.524 . S
C308 C309 1.397 . S
C308 C313 1.363 . S
C309 H280 0.950 . S
C309 C308 1.397 . S
C309 C310 1.334 . S
C310 H281 0.950 . S
C310 C309 1.334 . S
C310 C311 1.287 . S
C311 C310 1.287 . S
C311 C312 1.524 . S
C311 H314 0.999 . S
C312 H282 0.950 . S
C312 C311 1.524 . S
C312 C313 1.415 . S
C313 H283 0.950 . S
C313 C308 1.363 . S
C313 C312 1.415 . S
H314 C311 0.999 . S
H315 C296 0.913 . S
H316 C334 0.951 . S
H317 C336 0.951 . S
H318 C338 0.950 . S
H319 C339 0.950 . S
H320 C341 0.950 . S
H321 C344 0.950 . S
H322 C345 0.950 . S
H323 C347 0.950 . S
H324 C348 0.950 1_455 S
H325 C349 0.951 . S
H326 C351 0.951 . S
H327 C353 0.950 . S
H328 C354 0.950 . S
H329 C356 0.950 . S
H330 C359 0.950 . S
H331 C360 0.950 . S
H332 C362 0.950 . S
H333 C363 0.950 1_655 S
C334 H316 0.951 . S
C334 C335 1.366 . S
C334 C336 1.388 . S
C335 C334 1.366 . S
C335 C339 1.385 . S
C336 H317 0.951 . S
C336 C334 1.388 . S
C336 C337 1.366 . S
C337 C336 1.366 . S
C337 C338 1.414 . S
C337 C340 1.499 . S
C338 H318 0.950 . S
C338 C337 1.414 . S
C338 C339 1.374 . S
C339 H319 0.950 . S
C339 C335 1.385 . S
C339 C338 1.374 . S
C340 C337 1.499 . S
C340 C341 1.373 . S
C340 C342 1.389 . S
C341 H320 0.950 . S
C341 C340 1.373 . S
C341 C357 1.377 1_655 S
C342 C340 1.389 . S
C342 C343 1.524 . S
C342 C356 1.377 1_655 S
C343 C342 1.524 . S
C343 C344 1.397 . S
C343 C348 1.363 . S
C344 H321 0.950 . S
C344 C343 1.397 . S
C344 C345 1.334 . S
C345 H322 0.950 . S
C345 C344 1.334 . S
C345 C346 1.287 . S
C346 C345 1.287 . S
C346 C347 1.524 . S
C346 H365 0.913 . S
C347 H323 0.950 . S
C347 C346 1.524 . S
C347 C348 1.415 . S
C348 H324 0.950 1_655 S
C348 C343 1.363 . S
C348 C347 1.415 . S
C349 H325 0.951 . S
C349 C350 1.366 . S
C349 C351 1.388 . S
C350 C349 1.366 . S
C350 C354 1.385 . S
C351 H326 0.951 . S
C351 C349 1.388 . S
C351 C352 1.366 . S
C352 C351 1.366 . S
C352 C353 1.414 . S
C352 C355 1.499 . S
C353 H327 0.950 . S
C353 C352 1.414 . S
C353 C354 1.374 . S
C354 H328 0.950 . S
C354 C350 1.385 . S
C354 C353 1.374 . S
C355 C352 1.499 . S
C355 C356 1.373 . S
C355 C357 1.389 . S
C356 H329 0.950 . S
C356 C342 1.377 1_455 S
C356 C355 1.373 . S
C357 C341 1.377 1_455 S
C357 C355 1.389 . S
C357 C358 1.524 . S
C358 C357 1.524 . S
C358 C359 1.397 . S
C358 C363 1.363 . S
C359 H330 0.950 . S
C359 C358 1.397 . S
C359 C360 1.334 . S
C360 H331 0.950 . S
C360 C359 1.334 . S
C360 C361 1.287 . S
C361 C360 1.287 . S
C361 C362 1.524 . S
C361 H364 0.999 . S
C362 H332 0.950 . S
C362 C361 1.524 . S
C362 C363 1.415 . S
C363 H333 0.950 1_455 S
C363 C358 1.363 . S
C363 C362 1.415 . S
H364 C361 0.999 . S
H365 C346 0.913 . S
H366 C384 0.951 . S
H367 C386 0.951 . S
H368 C388 0.950 . S
H369 C389 0.950 . S
H370 C391 0.950 . S
H371 C394 0.950 . S
H372 C395 0.950 . S
H373 C397 0.950 . S
H374 C398 0.950 . S
H375 C399 0.951 . S
H376 C401 0.951 . S
H377 C403 0.950 . S
H378 C404 0.950 . S
H379 C406 0.950 . S
H380 C409 0.950 . S
H381 C410 0.950 . S
H382 C412 0.950 . S
H383 C413 0.950 . S
C384 H366 0.951 . S
C384 C385 1.366 . S
C384 C386 1.388 . S
C385 C384 1.366 . S
C385 C389 1.385 . S
C386 H367 0.951 . S
C386 C384 1.388 . S
C386 C387 1.366 . S
C387 C386 1.366 . S
C387 C388 1.414 . S
C387 C390 1.499 . S
C388 H368 0.950 . S
C388 C387 1.414 . S
C388 C389 1.374 . S
C389 H369 0.950 . S
C389 C385 1.385 . S
C389 C388 1.374 . S
C390 C387 1.499 . S
C390 C391 1.373 . S
C390 C392 1.389 . S
C391 H370 0.950 . S
C391 C390 1.373 . S
C391 C407 1.377 1_455 S
C392 C390 1.389 . S
C392 C393 1.524 . S
C392 C406 1.377 1_455 S
C393 C392 1.524 . S
C393 C394 1.397 . S
C393 C398 1.363 . S
C394 H371 0.950 . S
C394 C393 1.397 . S
C394 C395 1.334 . S
C395 H372 0.950 . S
C395 C394 1.334 . S
C395 C396 1.287 . S
C396 C395 1.287 . S
C396 C397 1.524 . S
C396 H415 0.913 . S
C397 H373 0.950 . S
C397 C396 1.524 . S
C397 C398 1.415 . S
C398 H374 0.950 . S
C398 C393 1.363 . S
C398 C397 1.415 . S
C399 H375 0.951 . S
C399 C400 1.366 . S
C399 C401 1.388 . S
C400 C399 1.366 . S
C400 C404 1.385 . S
C401 H376 0.951 . S
C401 C399 1.388 . S
C401 C402 1.366 . S
C402 C401 1.366 . S
C402 C403 1.414 . S
C402 C405 1.499 . S
C403 H377 0.950 . S
C403 C402 1.414 . S
C403 C404 1.374 . S
C404 H378 0.950 . S
C404 C400 1.385 . S
C404 C403 1.374 . S
C405 C402 1.499 . S
C405 C406 1.373 . S
C405 C407 1.389 . S
C406 H379 0.950 . S
C406 C392 1.377 1_655 S
C406 C405 1.373 . S
C407 C391 1.377 1_655 S
C407 C405 1.389 . S
C407 C408 1.524 . S
C408 C407 1.524 . S
C408 C409 1.397 . S
C408 C413 1.363 . S
C409 H380 0.950 . S
C409 C408 1.397 . S
C409 C410 1.334 . S
C410 H381 0.950 . S
C410 C409 1.334 . S
C410 C411 1.287 . S
C411 C410 1.287 . S
C411 C412 1.524 . S
C411 H414 0.999 . S
C412 H382 0.950 . S
C412 C411 1.524 . S
C412 C413 1.415 . S
C413 H383 0.950 . S
C413 C408 1.363 . S
C413 C412 1.415 . S
H414 C411 0.999 . S
H415 C396 0.913 . S
H416 C434 0.951 . S
H417 C436 0.951 . S
H418 C438 0.950 . S
H419 C439 0.950 . S
H420 C441 0.950 . S
H421 C444 0.950 . S
H422 C445 0.950 . S
H423 C447 0.950 . S
H424 C448 0.950 . S
H425 C449 0.951 . S
H426 C451 0.951 . S
H427 C453 0.950 . S
H428 C454 0.950 . S
H429 C456 0.950 . S
H430 C459 0.950 . S
H431 C460 0.950 . S
H432 C462 0.950 . S
H433 C463 0.950 . S
C434 H416 0.951 . S
C434 C435 1.366 . S
C434 C436 1.388 . S
C435 C434 1.366 . S
C435 C439 1.385 . S
C436 H417 0.951 . S
C436 C434 1.388 . S
C436 C437 1.366 . S
C437 C436 1.366 . S
C437 C438 1.414 . S
C437 C440 1.499 . S
C438 H418 0.950 . S
C438 C437 1.414 . S
C438 C439 1.374 . S
C439 H419 0.950 . S
C439 C435 1.385 . S
C439 C438 1.374 . S
C440 C437 1.499 . S
C440 C441 1.373 . S
C440 C442 1.389 . S
C441 H420 0.950 . S
C441 C440 1.373 . S
C441 C457 1.377 1_565 S
C442 C440 1.389 . S
C442 C443 1.524 . S
C442 C456 1.377 1_565 S
C443 C442 1.524 . S
C443 C444 1.397 . S
C443 C448 1.363 . S
C444 H421 0.950 . S
C444 C443 1.397 . S
C444 C445 1.334 . S
C445 H422 0.950 . S
C445 C444 1.334 . S
C445 C446 1.287 . S
C446 C445 1.287 . S
C446 C447 1.524 . S
C446 H465 0.913 . S
C447 H423 0.950 . S
C447 C446 1.524 . S
C447 C448 1.415 . S
C448 H424 0.950 . S
C448 C443 1.363 . S
C448 C447 1.415 . S
C449 H425 0.951 . S
C449 C450 1.366 . S
C449 C451 1.388 . S
C450 C449 1.366 . S
C450 C454 1.385 . S
C451 H426 0.951 . S
C451 C449 1.388 . S
C451 C452 1.366 . S
C452 C451 1.366 . S
C452 C453 1.414 . S
C452 C455 1.499 . S
C453 H427 0.950 . S
C453 C452 1.414 . S
C453 C454 1.374 . S
C454 H428 0.950 . S
C454 C450 1.385 . S
C454 C453 1.374 . S
C455 C452 1.499 . S
C455 C456 1.373 . S
C455 C457 1.389 . S
C456 H429 0.950 . S
C456 C442 1.377 1_545 S
C456 C455 1.373 . S
C457 C441 1.377 1_545 S
C457 C455 1.389 . S
C457 C458 1.524 . S
C458 C457 1.524 . S
C458 C459 1.397 . S
C458 C463 1.363 . S
C459 H430 0.950 . S
C459 C458 1.397 . S
C459 C460 1.334 . S
C460 H431 0.950 . S
C460 C459 1.334 . S
C460 C461 1.287 . S
C461 C460 1.287 . S
C461 C462 1.524 . S
C461 H464 0.999 . S
C462 H432 0.950 . S
C462 C461 1.524 . S
C462 C463 1.415 . S
C463 H433 0.950 . S
C463 C458 1.363 . S
C463 C462 1.415 . S
H464 C461 0.999 . S
H465 C446 0.913 . S
H466 C484 0.951 . S
H467 C486 0.951 . S
H468 C488 0.950 . S
H469 C489 0.950 . S
H470 C491 0.950 . S
H471 C494 0.950 . S
H472 C495 0.950 . S
H473 C497 0.950 . S
H474 C498 0.950 . S
H475 C499 0.951 . S
H476 C501 0.951 . S
H477 C503 0.950 . S
H478 C504 0.950 . S
H479 C506 0.950 . S
H480 C509 0.950 . S
H481 C510 0.950 . S
H482 C512 0.950 . S
H483 C513 0.950 . S
C484 H466 0.951 . S
C484 C485 1.366 . S
C484 C486 1.388 . S
C485 C484 1.366 . S
C485 C489 1.385 . S
C486 H467 0.951 . S
C486 C484 1.388 . S
C486 C487 1.366 . S
C487 C486 1.366 . S
C487 C488 1.414 . S
C487 C490 1.499 . S
C488 H468 0.950 . S
C488 C487 1.414 . S
C488 C489 1.374 . S
C489 H469 0.950 . S
C489 C485 1.385 . S
C489 C488 1.374 . S
C490 C487 1.499 . S
C490 C491 1.373 . S
C490 C492 1.389 . S
C491 H470 0.950 . S
C491 C490 1.373 . S
C491 C507 1.377 . S
C492 C490 1.389 . S
C492 C493 1.524 . S
C492 C506 1.377 . S
C493 C492 1.524 . S
C493 C494 1.397 . S
C493 C498 1.363 . S
C494 H471 0.950 . S
C494 C493 1.397 . S
C494 C495 1.334 . S
C495 H472 0.950 . S
C495 C494 1.334 . S
C495 C496 1.287 . S
C496 C495 1.287 . S
C496 C497 1.524 . S
C496 H515 0.913 . S
C497 H473 0.950 . S
C497 C496 1.524 . S
C497 C498 1.415 . S
C498 H474 0.950 . S
C498 C493 1.363 . S
C498 C497 1.415 . S
C499 H475 0.951 . S
C499 C500 1.366 . S
C499 C501 1.388 . S
C500 C499 1.366 . S
C500 C504 1.385 . S
C501 H476 0.951 . S
C501 C499 1.388 . S
C501 C502 1.366 . S
C502 C501 1.366 . S
C502 C503 1.414 . S
C502 C505 1.499 . S
C503 H477 0.950 . S
C503 C502 1.414 . S
C503 C504 1.374 . S
C504 H478 0.950 . S
C504 C500 1.385 . S
C504 C503 1.374 . S
C505 C502 1.499 . S
C505 C506 1.373 . S
C505 C507 1.389 . S
C506 H479 0.950 . S
C506 C492 1.377 . S
C506 C505 1.373 . S
C507 C491 1.377 . S
C507 C505 1.389 . S
C507 C508 1.524 . S
C508 C507 1.524 . S
C508 C509 1.397 . S
C508 C513 1.363 . S
C509 H480 0.950 . S
C509 C508 1.397 . S
C509 C510 1.334 . S
C510 H481 0.950 . S
C510 C509 1.334 . S
C510 C511 1.287 . S
C511 C510 1.287 . S
C511 C512 1.524 . S
C511 H514 0.999 . S
C512 H482 0.950 . S
C512 C511 1.524 . S
C512 C513 1.415 . S
C513 H483 0.950 . S
C513 C508 1.363 . S
C513 C512 1.415 . S
H514 C511 0.999 . S
H515 C496 0.913 . S
H516 C534 0.951 . S
H517 C536 0.951 . S
H518 C538 0.950 . S
H519 C539 0.950 . S
H520 C541 0.950 . S
H521 C544 0.950 . S
H522 C545 0.950 . S
H523 C547 0.950 . S
H524 C548 0.950 . S
H525 C549 0.951 . S
H526 C551 0.951 . S
H527 C553 0.950 . S
H528 C554 0.950 . S
H529 C556 0.950 . S
H530 C559 0.950 . S
H531 C560 0.950 . S
H532 C562 0.950 . S
H533 C563 0.950 . S
C534 H516 0.951 . S
C534 C535 1.366 . S
C534 C536 1.388 . S
C535 C534 1.366 . S
C535 C539 1.385 . S
C536 H517 0.951 . S
C536 C534 1.388 . S
C536 C537 1.366 . S
C537 C536 1.366 . S
C537 C538 1.414 . S
C537 C540 1.499 . S
C538 H518 0.950 . S
C538 C537 1.414 . S
C538 C539 1.374 . S
C539 H519 0.950 . S
C539 C535 1.385 . S
C539 C538 1.374 . S
C540 C537 1.499 . S
C540 C541 1.373 . S
C540 C542 1.389 . S
C541 H520 0.950 . S
C541 C540 1.373 . S
C541 C557 1.377 1_556 S
C542 C540 1.389 . S
C542 C543 1.524 . S
C542 C556 1.377 1_556 S
C543 C542 1.524 . S
C543 C544 1.397 . S
C543 C548 1.363 . S
C544 H521 0.950 . S
C544 C543 1.397 . S
C544 C545 1.334 . S
C545 H522 0.950 . S
C545 C544 1.334 . S
C545 C546 1.287 . S
C546 C545 1.287 . S
C546 C547 1.524 . S
C546 H565 0.913 . S
C547 H523 0.950 . S
C547 C546 1.524 . S
C547 C548 1.415 . S
C548 H524 0.950 . S
C548 C543 1.363 . S
C548 C547 1.415 . S
C549 H525 0.951 . S
C549 C550 1.366 . S
C549 C551 1.388 . S
C550 C549 1.366 . S
C550 C554 1.385 . S
C551 H526 0.951 . S
C551 C549 1.388 . S
C551 C552 1.366 . S
C552 C551 1.366 . S
C552 C553 1.414 . S
C552 C555 1.499 . S
C553 H527 0.950 . S
C553 C552 1.414 . S
C553 C554 1.374 . S
C554 H528 0.950 . S
C554 C550 1.385 . S
C554 C553 1.374 . S
C555 C552 1.499 . S
C555 C556 1.373 . S
C555 C557 1.389 . S
C556 H529 0.950 . S
C556 C542 1.377 1_554 S
C556 C555 1.373 . S
C557 C541 1.377 1_554 S
C557 C555 1.389 . S
C557 C558 1.524 . S
C558 C557 1.524 . S
C558 C559 1.397 . S
C558 C563 1.363 . S
C559 H530 0.950 . S
C559 C558 1.397 . S
C559 C560 1.334 . S
C560 H531 0.950 . S
C560 C559 1.334 . S
C560 C561 1.287 . S
C561 C560 1.287 . S
C561 C562 1.524 . S
C561 H564 0.999 . S
C562 H532 0.950 . S
C562 C561 1.524 . S
C562 C563 1.415 . S
C563 H533 0.950 . S
C563 C558 1.363 . S
C563 C562 1.415 . S
H564 C561 0.999 . S
H565 C546 0.913 . S
H566 C584 0.951 . S
H567 C586 0.951 . S
H568 C588 0.950 . S
H569 C589 0.950 . S
H570 C591 0.950 . S
H571 C594 0.950 . S
H572 C595 0.950 . S
H573 C597 0.950 . S
H574 C598 0.950 . S
H575 C599 0.951 . S
H576 C601 0.951 . S
H577 C603 0.950 . S
H578 C604 0.950 . S
H579 C606 0.950 . S
H580 C609 0.950 . S
H581 C610 0.950 . S
H582 C612 0.950 . S
H583 C613 0.950 . S
C584 H566 0.951 . S
C584 C585 1.366 . S
C584 C586 1.388 . S
C585 C584 1.366 . S
C585 C589 1.385 . S
C586 H567 0.951 . S
C586 C584 1.388 . S
C586 C587 1.366 . S
C587 C586 1.366 . S
C587 C588 1.414 . S
C587 C590 1.499 . S
C588 H568 0.950 . S
C588 C587 1.414 . S
C588 C589 1.374 . S
C589 H569 0.950 . S
C589 C585 1.385 . S
C589 C588 1.374 . S
C590 C587 1.499 . S
C590 C591 1.373 . S
C590 C592 1.389 . S
C591 H570 0.950 . S
C591 C590 1.373 . S
C591 C607 1.377 . S
C592 C590 1.389 . S
C592 C593 1.524 . S
C592 C606 1.377 . S
C593 C592 1.524 . S
C593 C594 1.397 . S
C593 C598 1.363 . S
C594 H571 0.950 . S
C594 C593 1.397 . S
C594 C595 1.334 . S
C595 H572 0.950 . S
C595 C594 1.334 . S
C595 C596 1.287 . S
C596 C595 1.287 . S
C596 C597 1.524 . S
C596 H615 0.913 . S
C597 H573 0.950 . S
C597 C596 1.524 . S
C597 C598 1.415 . S
C598 H574 0.950 . S
C598 C593 1.363 . S
C598 C597 1.415 . S
C599 H575 0.951 . S
C599 C600 1.366 . S
C599 C601 1.388 . S
C600 C599 1.366 . S
C600 C604 1.385 . S
C601 H576 0.951 . S
C601 C599 1.388 . S
C601 C602 1.366 . S
C602 C601 1.366 . S
C602 C603 1.414 . S
C602 C605 1.499 . S
C603 H577 0.950 . S
C603 C602 1.414 . S
C603 C604 1.374 . S
C604 H578 0.950 . S
C604 C600 1.385 . S
C604 C603 1.374 . S
C605 C602 1.499 . S
C605 C606 1.373 . S
C605 C607 1.389 . S
C606 H579 0.950 . S
C606 C592 1.377 . S
C606 C605 1.373 . S
C607 C591 1.377 . S
C607 C605 1.389 . S
C607 C608 1.524 . S
C608 C607 1.524 . S
C608 C609 1.397 . S
C608 C613 1.363 . S
C609 H580 0.950 . S
C609 C608 1.397 . S
C609 C610 1.334 . S
C610 H581 0.950 . S
C610 C609 1.334 . S
C610 C611 1.287 . S
C611 C610 1.287 . S
C611 C612 1.524 . S
C611 H614 0.999 . S
C612 H582 0.950 . S
C612 C611 1.524 . S
C612 C613 1.415 . S
C613 H583 0.950 . S
C613 C608 1.363 . S
C613 C612 1.415 . S
H614 C611 0.999 . S
H615 C596 0.913 . S
H616 C634 0.951 . S
H617 C636 0.951 . S
H618 C638 0.950 . S
H619 C639 0.950 . S
H620 C641 0.950 . S
H621 C644 0.950 . S
H622 C645 0.950 . S
H623 C647 0.950 . S
H624 C648 0.950 . S
H625 C649 0.951 . S
H626 C651 0.951 . S
H627 C653 0.950 . S
H628 C654 0.950 . S
H629 C656 0.950 . S
H630 C659 0.950 . S
H631 C660 0.950 . S
H632 C662 0.950 . S
H633 C663 0.950 . S
C634 H616 0.951 . S
C634 C635 1.366 . S
C634 C636 1.388 . S
C635 C634 1.366 . S
C635 C639 1.385 . S
C636 H617 0.951 . S
C636 C634 1.388 . S
C636 C637 1.366 . S
C637 C636 1.366 . S
C637 C638 1.414 . S
C637 C640 1.499 . S
C638 H618 0.950 . S
C638 C637 1.414 . S
C638 C639 1.374 . S
C639 H619 0.950 . S
C639 C635 1.385 . S
C639 C638 1.374 . S
C640 C637 1.499 . S
C640 C641 1.373 . S
C640 C642 1.389 . S
C641 H620 0.950 . S
C641 C640 1.373 . S
C641 C657 1.377 . S
C642 C640 1.389 . S
C642 C643 1.524 . S
C642 C656 1.377 . S
C643 C642 1.524 . S
C643 C644 1.397 . S
C643 C648 1.363 . S
C644 H621 0.950 . S
C644 C643 1.397 . S
C644 C645 1.334 . S
C645 H622 0.950 . S
C645 C644 1.334 . S
C645 C646 1.287 . S
C646 C645 1.287 . S
C646 C647 1.524 . S
C646 H665 0.913 . S
C647 H623 0.950 . S
C647 C646 1.524 . S
C647 C648 1.415 . S
C648 H624 0.950 . S
C648 C643 1.363 . S
C648 C647 1.415 . S
C649 H625 0.951 . S
C649 C650 1.366 . S
C649 C651 1.388 . S
C650 C649 1.366 . S
C650 C654 1.385 . S
C651 H626 0.951 . S
C651 C649 1.388 . S
C651 C652 1.366 . S
C652 C651 1.366 . S
C652 C653 1.414 . S
C652 C655 1.499 . S
C653 H627 0.950 . S
C653 C652 1.414 . S
C653 C654 1.374 . S
C654 H628 0.950 . S
C654 C650 1.385 . S
C654 C653 1.374 . S
C655 C652 1.499 . S
C655 C656 1.373 . S
C655 C657 1.389 . S
C656 H629 0.950 . S
C656 C642 1.377 . S
C656 C655 1.373 . S
C657 C641 1.377 . S
C657 C655 1.389 . S
C657 C658 1.524 . S
C658 C657 1.524 . S
C658 C659 1.397 . S
C658 C663 1.363 . S
C659 H630 0.950 . S
C659 C658 1.397 . S
C659 C660 1.334 . S
C660 H631 0.950 . S
C660 C659 1.334 . S
C660 C661 1.287 . S
C661 C660 1.287 . S
C661 C662 1.524 . S
C661 H664 0.999 . S
C662 H632 0.950 . S
C662 C661 1.524 . S
C662 C663 1.415 . S
C663 H633 0.950 . S
C663 C658 1.363 . S
C663 C662 1.415 . S
H664 C661 0.999 . S
H665 C646 0.913 . S
H666 C684 0.951 . S
H667 C686 0.951 . S
H668 C688 0.950 . S
H669 C689 0.950 . S
H670 C691 0.950 . S
H671 C694 0.950 . S
H672 C695 0.950 . S
H673 C697 0.950 . S
H674 C698 0.950 . S
H675 C699 0.951 . S
H676 C701 0.951 . S
H677 C703 0.950 . S
H678 C704 0.950 . S
H679 C706 0.950 . S
H680 C709 0.950 . S
H681 C710 0.950 . S
H682 C712 0.950 . S
H683 C713 0.950 . S
C684 H666 0.951 . S
C684 C685 1.366 . S
C684 C686 1.388 . S
C685 C684 1.366 . S
C685 C689 1.385 . S
C686 H667 0.951 . S
C686 C684 1.388 . S
C686 C687 1.366 . S
C687 C686 1.366 . S
C687 C688 1.414 . S
C687 C690 1.499 . S
C688 H668 0.950 . S
C688 C687 1.414 . S
C688 C689 1.374 . S
C689 H669 0.950 . S
C689 C685 1.385 . S
C689 C688 1.374 . S
C690 C687 1.499 . S
C690 C691 1.373 . S
C690 C692 1.389 . S
C691 H670 0.950 . S
C691 C690 1.373 . S
C691 C707 1.377 1_556 S
C692 C690 1.389 . S
C692 C693 1.524 . S
C692 C706 1.377 1_556 S
C693 C692 1.524 . S
C693 C694 1.397 . S
C693 C698 1.363 . S
C694 H671 0.950 . S
C694 C693 1.397 . S
C694 C695 1.334 . S
C695 H672 0.950 . S
C695 C694 1.334 . S
C695 C696 1.287 . S
C696 C695 1.287 . S
C696 C697 1.524 . S
C696 H715 0.913 . S
C697 H673 0.950 . S
C697 C696 1.524 . S
C697 C698 1.415 . S
C698 H674 0.950 . S
C698 C693 1.363 . S
C698 C697 1.415 . S
C699 H675 0.951 . S
C699 C700 1.366 . S
C699 C701 1.388 . S
C700 C699 1.366 . S
C700 C704 1.385 . S
C701 H676 0.951 . S
C701 C699 1.388 . S
C701 C702 1.366 . S
C702 C701 1.366 . S
C702 C703 1.414 . S
C702 C705 1.499 . S
C703 H677 0.950 . S
C703 C702 1.414 . S
C703 C704 1.374 . S
C704 H678 0.950 . S
C704 C700 1.385 . S
C704 C703 1.374 . S
C705 C702 1.499 . S
C705 C706 1.373 . S
C705 C707 1.389 . S
C706 H679 0.950 . S
C706 C692 1.377 1_554 S
C706 C705 1.373 . S
C707 C691 1.377 1_554 S
C707 C705 1.389 . S
C707 C708 1.524 . S
C708 C707 1.524 . S
C708 C709 1.397 . S
C708 C713 1.363 . S
C709 H680 0.950 . S
C709 C708 1.397 . S
C709 C710 1.334 . S
C710 H681 0.950 . S
C710 C709 1.334 . S
C710 C711 1.287 . S
C711 C710 1.287 . S
C711 C712 1.524 . S
C711 H714 0.999 . S
C712 H682 0.950 . S
C712 C711 1.524 . S
C712 C713 1.415 . S
C713 H683 0.950 . S
C713 C708 1.363 . S
C713 C712 1.415 . S
H714 C711 0.999 . S
H715 C696 0.913 . S
H716 C734 0.951 . S
H717 C736 0.951 . S
H718 C738 0.950 . S
H719 C739 0.950 . S
H720 C741 0.950 . S
H721 C744 0.950 . S
H722 C745 0.950 . S
H723 C747 0.950 . S
H724 C748 0.950 . S
H725 C749 0.951 . S
H726 C751 0.951 . S
H727 C753 0.950 . S
H728 C754 0.950 . S
H729 C756 0.950 . S
H730 C759 0.950 . S
H731 C760 0.950 . S
H732 C762 0.950 . S
H733 C763 0.950 . S
C734 H716 0.951 . S
C734 C735 1.366 . S
C734 C736 1.388 . S
C735 C734 1.366 . S
C735 C739 1.385 . S
C736 H717 0.951 . S
C736 C734 1.388 . S
C736 C737 1.366 . S
C737 C736 1.366 . S
C737 C738 1.414 . S
C737 C740 1.499 . S
C738 H718 0.950 . S
C738 C737 1.414 . S
C738 C739 1.374 . S
C739 H719 0.950 . S
C739 C735 1.385 . S
C739 C738 1.374 . S
C740 C737 1.499 . S
C740 C741 1.373 . S
C740 C742 1.389 . S
C741 H720 0.950 . S
C741 C740 1.373 . S
C741 C757 1.377 . S
C742 C740 1.389 . S
C742 C743 1.524 . S
C742 C756 1.377 . S
C743 C742 1.524 . S
C743 C744 1.397 . S
C743 C748 1.363 . S
C744 H721 0.950 . S
C744 C743 1.397 . S
C744 C745 1.334 . S
C745 H722 0.950 . S
C745 C744 1.334 . S
C745 C746 1.287 . S
C746 C745 1.287 . S
C746 C747 1.524 . S
C746 H765 0.913 . S
C747 H723 0.950 . S
C747 C746 1.524 . S
C747 C748 1.415 . S
C748 H724 0.950 . S
C748 C743 1.363 . S
C748 C747 1.415 . S
C749 H725 0.951 . S
C749 C750 1.366 . S
C749 C751 1.388 . S
C750 C749 1.366 . S
C750 C754 1.385 . S
C751 H726 0.951 . S
C751 C749 1.388 . S
C751 C752 1.366 . S
C752 C751 1.366 . S
C752 C753 1.414 . S
C752 C755 1.499 . S
C753 H727 0.950 . S
C753 C752 1.414 . S
C753 C754 1.374 . S
C754 H728 0.950 . S
C754 C750 1.385 . S
C754 C753 1.374 . S
C755 C752 1.499 . S
C755 C756 1.373 . S
C755 C757 1.389 . S
C756 H729 0.950 . S
C756 C742 1.377 . S
C756 C755 1.373 . S
C757 C741 1.377 . S
C757 C755 1.389 . S
C757 C758 1.524 . S
C758 C757 1.524 . S
C758 C759 1.397 . S
C758 C763 1.363 . S
C759 H730 0.950 . S
C759 C758 1.397 . S
C759 C760 1.334 . S
C760 H731 0.950 . S
C760 C759 1.334 . S
C760 C761 1.287 . S
C761 C760 1.287 . S
C761 C762 1.524 . S
C761 H764 0.999 . S
C762 H732 0.950 . S
C762 C761 1.524 . S
C762 C763 1.415 . S
C763 H733 0.950 . S
C763 C758 1.363 . S
C763 C762 1.415 . S
H764 C761 0.999 . S
H765 C746 0.913 . S
H766 C784 0.951 . S
H767 C786 0.951 . S
H768 C788 0.950 . S
H769 C789 0.950 . S
H770 C791 0.950 . S
H771 C794 0.950 . S
H772 C795 0.950 . S
H773 C797 0.950 . S
H774 C798 0.950 . S
H775 C799 0.951 . S
H776 C801 0.951 . S
H777 C803 0.950 . S
H778 C804 0.950 . S
H779 C806 0.950 . S
H780 C809 0.950 . S
H781 C810 0.950 . S
H782 C812 0.950 . S
H783 C813 0.950 . S
C784 H766 0.951 . S
C784 C785 1.366 . S
C784 C786 1.388 . S
C785 C784 1.366 . S
C785 C789 1.385 . S
C786 H767 0.951 . S
C786 C784 1.388 . S
C786 C787 1.366 . S
C787 C786 1.366 . S
C787 C788 1.414 . S
C787 C790 1.499 . S
C788 H768 0.950 . S
C788 C787 1.414 . S
C788 C789 1.374 . S
C789 H769 0.950 . S
C789 C785 1.385 . S
C789 C788 1.374 . S
C790 C787 1.499 . S
C790 C791 1.373 . S
C790 C792 1.389 . S
C791 H770 0.950 . S
C791 C790 1.373 . S
C791 C807 1.377 . S
C792 C790 1.389 . S
C792 C793 1.524 . S
C792 C806 1.377 . S
C793 C792 1.524 . S
C793 C794 1.397 . S
C793 C798 1.363 . S
C794 H771 0.950 . S
C794 C793 1.397 . S
C794 C795 1.334 . S
C795 H772 0.950 . S
C795 C794 1.334 . S
C795 C796 1.287 . S
C796 C795 1.287 . S
C796 C797 1.524 . S
C796 H815 0.913 . S
C797 H773 0.950 . S
C797 C796 1.524 . S
C797 C798 1.415 . S
C798 H774 0.950 . S
C798 C793 1.363 . S
C798 C797 1.415 . S
C799 H775 0.951 . S
C799 C800 1.366 . S
C799 C801 1.388 . S
C800 C799 1.366 . S
C800 C804 1.385 . S
C801 H776 0.951 . S
C801 C799 1.388 . S
C801 C802 1.366 . S
C802 C801 1.366 . S
C802 C803 1.414 . S
C802 C805 1.499 . S
C803 H777 0.950 . S
C803 C802 1.414 . S
C803 C804 1.374 . S
C804 H778 0.950 . S
C804 C800 1.385 . S
C804 C803 1.374 . S
C805 C802 1.499 . S
C805 C806 1.373 . S
C805 C807 1.389 . S
C806 H779 0.950 . S
C806 C792 1.377 . S
C806 C805 1.373 . S
C807 C791 1.377 . S
C807 C805 1.389 . S
C807 C808 1.524 . S
C808 C807 1.524 . S
C808 C809 1.397 . S
C808 C813 1.363 . S
C809 H780 0.950 . S
C809 C808 1.397 . S
C809 C810 1.334 . S
C810 H781 0.950 . S
C810 C809 1.334 . S
C810 C811 1.287 . S
C811 C810 1.287 . S
C811 C812 1.524 . S
C811 H814 0.999 . S
C812 H782 0.950 . S
C812 C811 1.524 . S
C812 C813 1.415 . S
C813 H783 0.950 . S
C813 C808 1.363 . S
C813 C812 1.415 . S
H814 C811 0.999 . S
H815 C796 0.913 . S
C235 C3 1.417 . S
C250 C111 1.417 . S
C285 C39 1.400 . S
C300 C147 1.400 . S
C335 C76 1.392 . S
C350 C184 1.392 . S
C385 C40 1.374 . S
C400 C148 1.374 . S
C435 C183 1.399 . S
C450 C75 1.399 . S
C485 C112 1.392 . S
C500 C4 1.392 . S
C535 C74 0.995 . S
C550 C2 0.996 . S
C585 C122 1.042 . S
C600 C38 1.015 . S
C635 C86 1.065 . S
C650 C158 1.065 . S
C685 C182 0.993 . S
C700 C110 0.994 . S
C735 C146 1.015 . S
C750 C14 1.043 . S
C785 C194 1.065 . S
C800 C50 1.065 . S
