# Generated by pormake.
# Topology mmt, (4)-cn, num edge types: 1
# Building blocks:
#     Node 0, Type 0, BuildingBlock: TATPOV_clean_sbu_0, # of connection points: 4
#     Node 1, Type 0, BuildingBlock: TATPOV_clean_sbu_0, # of connection points: 4
#     Node 2, Type 0, BuildingBlock: TATPOV_clean_sbu_0, # of connection points: 4
#     Node 3, Type 0, BuildingBlock: TATPOV_clean_sbu_0, # of connection points: 4
#     Node 4, Type 0, BuildingBlock: TATPOV_clean_sbu_0, # of connection points: 4
#     Node 5, Type 0, BuildingBlock: TATPOV_clean_sbu_0, # of connection points: 4
#     Node 6, Type 0, BuildingBlock: TATPOV_clean_sbu_0, # of connection points: 4
#     Node 7, Type 0, BuildingBlock: TATPOV_clean_sbu_0, # of connection points: 4
#     Edge 8, Type (0, 0), BuildingBlock: XUDNAN_clean_linker_2, # of connection points: 2
#     Edge 9, Type (0, 0), BuildingBlock: XUDNAN_clean_linker_2, # of connection points: 2
#     Edge 10, Type (0, 0), BuildingBlock: XUDNAN_clean_linker_2, # of connection points: 2
#     Edge 11, Type (0, 0), BuildingBlock: XUDNAN_clean_linker_2, # of connection points: 2
#     Edge 12, Type (0, 0), BuildingBlock: XUDNAN_clean_linker_2, # of connection points: 2
#     Edge 13, Type (0, 0), BuildingBlock: XUDNAN_clean_linker_2, # of connection points: 2
#     Edge 14, Type (0, 0), BuildingBlock: XUDNAN_clean_linker_2, # of connection points: 2
#     Edge 15, Type (0, 0), BuildingBlock: XUDNAN_clean_linker_2, # of connection points: 2
#     Edge 16, Type (0, 0), BuildingBlock: XUDNAN_clean_linker_2, # of connection points: 2
#     Edge 17, Type (0, 0), BuildingBlock: XUDNAN_clean_linker_2, # of connection points: 2
#     Edge 18, Type (0, 0), BuildingBlock: XUDNAN_clean_linker_2, # of connection points: 2
#     Edge 19, Type (0, 0), BuildingBlock: XUDNAN_clean_linker_2, # of connection points: 2
#     Edge 20, Type (0, 0), BuildingBlock: XUDNAN_clean_linker_2, # of connection points: 2
#     Edge 21, Type (0, 0), BuildingBlock: XUDNAN_clean_linker_2, # of connection points: 2
#     Edge 22, Type (0, 0), BuildingBlock: XUDNAN_clean_linker_2, # of connection points: 2
#     Edge 23, Type (0, 0), BuildingBlock: XUDNAN_clean_linker_2, # of connection points: 2
# Relax obj value: 0.064
# Max RMSD: 0.111
# Mean RMSD: 0.111
data_MOF--net-mmt--node1-TATPOV_clean_sbu_0--edge1-XUDNAN_clean_linker_2
_symmetry_space_group_name_H-M    P1
_symmetry_Int_Tables_number       1
_symmetry_cell_setting            triclinic
loop_
_symmetry_equiv_pos_as_xyz
'x, y, z'
_cell_length_a     21.822485
_cell_length_b     39.011894
_cell_length_c     40.389481
_cell_angle_alpha  90.073245
_cell_angle_beta   89.814588
_cell_angle_gamma 90.053285
loop_
_atom_site_label
_atom_site_type_symbol
_atom_site_fract_x
_atom_site_fract_y
_atom_site_fract_z
_atom_type_partial_charge
Zn0 Zn 0.23717 0.51272 0.36118 0.0
Zn1 Zn 0.21438 0.57761 0.35694 0.0
O2 O 0.1708 0.56193 0.40119 0.0
O3 O 0.19551 0.50735 0.40426 0.0
O4 O 0.21072 0.63029 0.35727 0.0
O5 O 0.32739 0.51513 0.35846 0.0
O6 O 0.30841 0.56972 0.3502 0.0
C7 C 0.16819 0.53309 0.41623 0.0
C8 C 0.16425 0.53009 0.30394 0.0
O9 O 0.16725 0.56063 0.31536 0.0
O10 O 0.19031 0.50581 0.31914 0.0
C11 C 0.24626 0.64507 0.37784 0.0
O12 O 0.27881 0.62581 0.39782 0.0
C13 C 0.34634 0.54483 0.35144 0.0
Zn14 Zn 0.24322 0.03589 0.35994 0.0
Zn15 Zn 0.2742 0.97174 0.36069 0.0
O16 O 0.3171 0.99402 0.40224 0.0
O17 O 0.28708 0.04781 0.40108 0.0
O18 O 0.28919 0.92008 0.36617 0.0
O19 O 0.15361 0.02828 0.36004 0.0
O20 O 0.17918 0.97406 0.35547 0.0
C21 C 0.31794 1.02429 0.41452 0.0
C22 C 0.31585 1.01609 0.30305 0.0
O23 O 0.31712 0.98677 0.31714 0.0
O24 O 0.28682 0.04062 0.31635 0.0
C25 C 0.25878 0.89713 0.35075 0.0
O26 O 0.2178 0.90667 0.32887 0.0
C27 C 0.13816 0.99739 0.35578 0.0
Zn28 Zn 0.7326 0.53213 0.1292 0.0
Zn29 Zn 0.71928 0.4653 0.14415 0.0
O30 O 0.66901 0.47422 0.10149 0.0
O31 O 0.68532 0.52778 0.08681 0.0
O32 O 0.71745 0.41291 0.14959 0.0
O33 O 0.82402 0.53067 0.13176 0.0
O34 O 0.81186 0.47663 0.14602 0.0
C35 C 0.6594 0.49924 0.0818 0.0
C36 C 0.66745 0.51824 0.19136 0.0
O37 O 0.67571 0.48659 0.18452 0.0
O38 O 0.68667 0.54127 0.17179 0.0
C39 C 0.75 0.39839 0.17163 0.0
O40 O 0.7822 0.41773 0.19179 0.0
C41 C 0.84654 0.50254 0.14135 0.0
Zn42 Zn 0.75817 1.00449 0.13395 0.0
Zn43 Zn 0.77247 0.07146 0.15132 0.0
O44 O 0.82373 0.06433 0.1086 0.0
O45 O 0.80715 1.01129 0.09209 0.0
O46 O 0.78024 0.12276 0.16197 0.0
O47 O 0.6667 1.0088 0.13657 0.0
O48 O 0.67918 0.06282 0.15109 0.0
C49 C 0.83349 0.03992 0.08814 0.0
C50 C 0.82049 1.01487 0.19667 0.0
O51 O 0.81216 0.04666 0.1907 0.0
O52 O 0.80264 0.99237 0.17619 0.0
C53 C 0.75255 0.14612 0.14578 0.0
O54 O 0.71775 0.13725 0.1207 0.0
C55 C 0.64427 0.03718 0.14572 0.0
Zn56 Zn 0.77525 0.54937 0.6338 0.0
Zn57 Zn 0.78811 0.48186 0.65059 0.0
O58 O 0.83848 0.48865 0.60778 0.0
O59 O 0.82421 0.54199 0.59177 0.0
O60 O 0.79496 0.43062 0.66063 0.0
O61 O 0.68343 0.54504 0.63675 0.0
O62 O 0.69526 0.49084 0.65061 0.0
C63 C 0.84908 0.51301 0.58746 0.0
C64 C 0.83777 0.53767 0.6964 0.0
O65 O 0.82871 0.50603 0.68999 0.0
O66 O 0.82029 0.56055 0.67627 0.0
C67 C 0.76667 0.40784 0.64392 0.0
O68 O 0.73213 0.41752 0.61904 0.0
C69 C 0.66067 0.51662 0.64559 0.0
Zn70 Zn 0.70004 1.0216 0.63461 0.0
Zn71 Zn 0.70704 0.08997 0.64222 0.0
O72 O 0.65342 0.08122 0.60036 0.0
O73 O 0.65223 1.02532 0.59272 0.0
O74 O 0.71623 0.14219 0.64445 0.0
O75 O 0.79134 1.01684 0.63441 0.0
O76 O 0.79637 0.07229 0.6441 0.0
C77 C 0.63578 0.05499 0.58391 0.0
C78 C 0.64484 0.0472 0.69549 0.0
O79 O 0.66208 0.07646 0.6849 0.0
O80 O 0.65486 1.02042 0.67851 0.0
C81 C 0.74937 0.15574 0.66684 0.0
O82 O 0.77628 0.13561 0.68842 0.0
C83 C 0.82273 0.04329 0.6408 0.0
Zn84 Zn 0.26202 0.51669 0.86156 0.0
Zn85 Zn 0.29041 0.58196 0.8609 0.0
O86 O 0.33442 0.56334 0.90354 0.0
O87 O 0.30586 0.50918 0.90377 0.0
O88 O 0.29789 0.63442 0.86178 0.0
O89 O 0.17187 0.52248 0.86065 0.0
O90 O 0.19581 0.57693 0.8561 0.0
C91 C 0.3355 0.53355 0.91677 0.0
C92 C 0.33489 0.53604 0.80466 0.0
O93 O 0.33446 0.56571 0.81811 0.0
O94 O 0.30704 0.51134 0.81839 0.0
C95 C 0.2723 0.64972 0.83764 0.0
O96 O 0.2484 0.63096 0.81391 0.0
C97 C 0.15553 0.55319 0.85631 0.0
Zn98 Zn 0.20503 0.04255 0.85683 0.0
Zn99 Zn 0.2035 0.97443 0.85745 0.0
O100 O 0.1575 0.98772 0.90172 0.0
O101 O 0.16335 0.04417 0.90026 0.0
O102 O 0.20354 0.92205 0.85395 0.0
O103 O 0.29593 0.04385 0.85517 0.0
O104 O 0.29579 0.98741 0.85301 0.0
C105 C 0.14647 1.01704 0.91472 0.0
C106 C 0.14105 1.01589 0.80155 0.0
O107 O 0.15585 0.98763 0.81522 0.0
O108 O 0.15612 0.04407 0.81478 0.0
C109 C 0.23365 0.90018 0.87078 0.0
O110 O 0.26816 0.91077 0.89534 0.0
C111 C 0.32477 1.01588 0.85275 0.0
H112 H 0.42592 0.49385 0.33503 0.0
H113 H 0.40691 0.60457 0.33604 0.0
H114 H 0.50062 0.60961 0.30192 0.0
H115 H 0.59977 0.49003 0.32981 0.0
H116 H 0.59573 0.45402 0.30189 0.0
H117 H 0.53801 0.45954 0.33349 0.0
H118 H 0.45386 0.45734 0.28846 0.0
H119 H 0.51099 0.4525 0.25672 0.0
H120 H 0.45683 0.48728 0.25451 0.0
H121 H 0.58276 0.60224 0.25971 0.0
H122 H 0.64743 0.58362 0.21313 0.0
H123 H 0.6098 0.47722 0.23737 0.0
C124 C 0.44286 0.51928 0.32937 0.0
C125 C 0.40937 0.54887 0.33846 0.0
C126 C 0.43214 0.58159 0.32964 0.0
C127 C 0.48539 0.58467 0.31029 0.0
C128 C 0.51527 0.55481 0.30013 0.0
C129 C 0.49514 0.52271 0.30966 0.0
C130 C 0.52928 0.49454 0.29147 0.0
C131 C 0.56801 0.47328 0.31561 0.0
C132 C 0.48509 0.4716 0.27162 0.0
C133 C 0.56946 0.51579 0.26886 0.0
C134 C 0.56179 0.55045 0.27485 0.0
C135 C 0.59007 0.57518 0.25527 0.0
C136 C 0.62646 0.56427 0.22868 0.0
C137 C 0.63371 0.52887 0.22153 0.0
C138 C 0.60571 0.5044 0.24238 0.0
H139 H 0.86566 0.05531 0.2466 0.0
H140 H 0.85084 0.94939 0.21457 0.0
H141 H 0.91526 0.93142 0.26133 0.0
H142 H 0.01621 0.05377 0.26483 0.0
H143 H 0.01253 0.08119 0.30074 0.0
H144 H 0.95525 0.08464 0.26918 0.0
H145 H 0.87031 0.07434 0.31313 0.0
H146 H 0.92777 0.07056 0.3449 0.0
H147 H 0.87304 0.03654 0.33871 0.0
H148 H -0.00356 0.92624 0.30424 0.0
H149 H 0.08882 0.93501 0.33833 0.0
H150 H 0.04719 0.04359 0.3446 0.0
C151 C 0.87452 0.02824 0.24996 0.0
C152 C 0.8532 1.00383 0.22689 0.0
C153 C 0.86652 0.96865 0.23192 0.0
C154 C 0.90277 0.9581 0.2586 0.0
C155 C 0.92453 0.98292 0.2804 0.0
C156 C 0.91036 1.01725 0.27657 0.0
C157 C 0.94529 0.03925 0.30091 0.0
C158 C 0.98466 0.06626 0.28283 0.0
C159 C 0.90148 0.05616 0.3259 0.0
C160 C 0.98438 1.01222 0.31743 0.0
C161 C 0.97079 0.97976 0.30586 0.0
C162 C 0.00645 0.95138 0.31422 0.0
C163 C 0.05889 0.95659 0.33364 0.0
C164 C 0.07523 0.98996 0.34424 0.0
C165 C 0.03553 1.01766 0.33739 0.0
H166 H 0.9108 0.5565 0.16595 0.0
H167 H 0.9216 0.4469 0.14884 0.0
H168 H 0.01575 0.44445 0.18257 0.0
H169 H 0.08133 0.57439 0.17296 0.0
H170 H 0.06822 0.60463 0.20601 0.0
H171 H 0.01192 0.5994 0.1738 0.0
H172 H 0.9293 0.58689 0.21835 0.0
H173 H 0.98524 0.59138 0.2506 0.0
H174 H 0.94121 0.55242 0.24731 0.0
H175 H 0.09648 0.45196 0.2248 0.0
H176 H 0.1585 0.46815 0.27288 0.0
H177 H 0.09202 0.57282 0.26579 0.0
C178 C 0.93467 0.53227 0.16794 0.0
C179 C 0.90976 0.50196 0.1542 0.0
C180 C 0.94061 0.47046 0.15867 0.0
C181 C -0.00593 0.46887 0.17778 0.0
C182 C 0.01571 0.49898 0.19236 0.0
C183 C 0.98721 0.53017 0.18753 0.0
C184 C 0.01385 0.55764 0.20992 0.0
C185 C 0.04574 0.58567 0.18944 0.0
C186 C 0.96445 0.57295 0.2329 0.0
C187 C 0.05992 0.53669 0.22916 0.0
C188 C 0.06114 0.50314 0.21805 0.0
C189 C 0.0967 0.47827 0.23333 0.0
C190 C 0.13153 0.48778 0.26085 0.0
C191 C 0.13017 0.52185 0.27324 0.0
C192 C 0.09451 0.5467 0.25677 0.0
H193 H 0.57839 0.98432 0.17095 0.0
H194 H 0.56842 0.09302 0.1495 0.0
H195 H 0.47087 0.09654 0.18066 0.0
H196 H 0.40772 0.96581 0.17482 0.0
H197 H 0.41835 0.93726 0.20938 0.0
H198 H 0.47736 0.94127 0.17826 0.0
H199 H 0.55585 0.95639 0.22398 0.0
H200 H 0.49722 0.95304 0.25511 0.0
H201 H 0.54081 0.9921 0.2512 0.0
H202 H 0.38555 0.09037 0.22092 0.0
H203 H 0.32049 0.07617 0.26867 0.0
H204 H 0.39008 0.97189 0.26757 0.0
C205 C 0.55411 1.00851 0.17142 0.0
C206 C 0.58005 0.03829 0.15718 0.0
C207 C 0.54861 0.06985 0.15973 0.0
C208 C 0.49322 0.07202 0.17734 0.0
C209 C 0.47035 0.04246 0.19243 0.0
C210 C 0.49974 1.01124 0.18958 0.0
C211 C 0.47162 0.9847 0.21249 0.0
C212 C 0.44199 0.95553 0.19254 0.0
C213 C 0.51921 0.97077 0.23714 0.0
C214 C 0.42359 1.00625 0.22978 0.0
C215 C 0.4226 0.03921 0.21718 0.0
C216 C 0.38522 0.06452 0.23061 0.0
C217 C 0.3486 0.05615 0.25792 0.0
C218 C 0.35017 1.02284 0.272 0.0
C219 C 0.3874 0.99744 0.25724 0.0
H220 H 0.40789 0.58058 0.76897 0.0
H221 H 0.3405 0.47581 0.77039 0.0
H222 H 0.40463 0.46207 0.72212 0.0
H223 H 0.42381 0.58696 0.67611 0.0
H224 H 0.49298 0.61199 0.6795 0.0
H225 H 0.43429 0.61539 0.71087 0.0
H226 H 0.51376 0.60014 0.75609 0.0
H227 H 0.57246 0.59695 0.72498 0.0
H228 H 0.55772 0.56123 0.75213 0.0
H229 H 0.48831 0.4566 0.68083 0.0
H230 H 0.58507 0.46068 0.64909 0.0
H231 H 0.5946 0.56933 0.67125 0.0
C232 C 0.40549 0.55501 0.7586 0.0
C233 C 0.36914 0.52935 0.77358 0.0
C234 C 0.36794 0.49601 0.75948 0.0
C235 C 0.40397 0.48793 0.73184 0.0
C236 C 0.44039 0.51354 0.71813 0.0
C237 C 0.44101 0.54652 0.73078 0.0
C238 C 0.48861 0.56832 0.71336 0.0
C239 C 0.45808 0.59738 0.69379 0.0
C240 C 0.53592 0.58246 0.73811 0.0
C241 C 0.51675 0.54194 0.6903 0.0
C242 C 0.48768 0.51059 0.69309 0.0
C243 C 0.51039 0.48122 0.67759 0.0
C244 C 0.56531 0.48373 0.6596 0.0
C245 C 0.59649 0.51541 0.65713 0.0
C246 C 0.57056 0.54503 0.6717 0.0
H247 H 0.89169 0.08708 0.67821 0.0
H248 H 0.89669 0.98796 0.62949 0.0
H249 H 0.98952 0.97294 0.6608 0.0
H250 H 0.06506 0.09744 0.68829 0.0
H251 H 0.05426 0.11704 0.72832 0.0
H252 H -0.00191 0.12323 0.69624 0.0
H253 H 0.91383 0.10075 0.73591 0.0
H254 H 0.96954 0.09363 0.76779 0.0
H255 H 0.92175 0.05875 0.754 0.0
H256 H 0.06545 0.96355 0.70585 0.0
H257 H 0.12726 0.96334 0.75704 0.0
H258 H 0.07424 0.06874 0.77604 0.0
C259 C 0.91407 0.06293 0.67287 0.0
C260 C 0.88706 0.03876 0.65131 0.0
C261 C 0.91673 1.00695 0.64577 0.0
C262 C 0.96951 0.99816 0.66349 0.0
C263 C 0.99252 1.02162 0.68631 0.0
C264 C 0.96665 0.05371 0.6905 0.0
C265 C -0.00453 0.07254 0.71935 0.0
C266 C 0.03031 0.10445 0.70732 0.0
C267 C 0.94727 0.08194 0.7458 0.0
C268 C 0.0391 0.04534 0.73178 0.0
C269 C 0.03725 1.01629 0.71221 0.0
C270 C 0.06867 0.9865 0.72083 0.0
C271 C 0.10317 0.98649 0.75009 0.0
C272 C 0.10596 1.0161 0.77032 0.0
C273 C 0.07397 0.04593 0.76073 0.0
H274 H 0.06652 0.50624 0.843 0.0
H275 H 0.10436 0.61542 0.84067 0.0
H276 H 0.01206 0.62433 0.80666 0.0
H277 H 0.03669 0.49845 0.76346 0.0
H278 H 0.97647 0.46691 0.76618 0.0
H279 H 0.03273 0.46971 0.79835 0.0
H280 H 0.9476 0.47822 0.84241 0.0
H281 H 0.89053 0.47469 0.81039 0.0
H282 H 0.89171 0.51175 0.83708 0.0
H283 H 0.93123 0.61983 0.76351 0.0
H284 H 0.86694 0.60282 0.71625 0.0
H285 H 0.88472 0.49605 0.74477 0.0
C286 C 0.05393 0.53226 0.83669 0.0
C287 C 0.09257 0.56016 0.84464 0.0
C288 C 0.0752 0.59368 0.83516 0.0
C289 C 0.02276 0.59898 0.81581 0.0
C290 C 0.98805 0.57053 0.80644 0.0
C291 C 0.00244 0.53783 0.81701 0.0
C292 C 0.9643 0.511 0.79938 0.0
C293 C 0.00499 0.48503 0.78074 0.0
C294 C 0.92095 0.49285 0.82378 0.0
C295 C 0.92906 0.53349 0.7757 0.0
C296 C 0.94212 0.5678 0.78076 0.0
C297 C 0.91954 0.59313 0.75985 0.0
C298 C 0.88334 0.58315 0.7329 0.0
C299 C 0.87076 0.54804 0.72677 0.0
C300 C 0.89298 0.52308 0.74895 0.0
H301 H 0.38801 0.9724 0.81231 0.0
H302 H 0.40636 0.06518 0.87053 0.0
H303 H 0.50301 0.07869 0.84171 0.0
H304 H 0.56135 0.95521 0.80109 0.0
H305 H 0.54837 0.94075 0.75929 0.0
H306 H 0.49119 0.93328 0.7908 0.0
H307 H 0.41061 0.96348 0.75411 0.0
H308 H 0.46743 0.97186 0.72293 0.0
H309 H 0.42432 1.00685 0.74054 0.0
H310 H 0.58033 0.08972 0.798 0.0
H311 H 0.64038 0.09397 0.74618 0.0
H312 H 0.57346 0.99388 0.71626 0.0
C313 C 0.41433 0.99445 0.82028 0.0
C314 C 0.39024 1.01757 0.84381 0.0
C315 C 0.42448 0.047 0.85273 0.0
C316 C 0.47942 0.05489 0.83647 0.0
C317 C 0.4998 0.03292 0.81159 0.0
C318 C 0.46913 1.00282 0.80401 0.0
C319 C 0.49561 0.98625 0.77319 0.0
C320 C 0.52595 0.95183 0.78161 0.0
C321 C 0.44657 0.98189 0.74612 0.0
C322 C 0.54297 1.01281 0.7635 0.0
C323 C 0.54539 0.03927 0.78622 0.0
C324 C 0.58034 0.06866 0.78054 0.0
C325 C 0.6138 0.07102 0.75091 0.0
C326 C 0.61197 0.04414 0.72738 0.0
C327 C 0.57677 1.01453 0.73412 0.0
H328 H 0.07224 0.5729 0.4401 0.0
H329 H 0.17612 0.48014 0.45943 0.0
H330 H 0.10386 0.46453 0.50359 0.0
H331 H 0.03205 0.58995 0.52753 0.0
H332 H 0.95659 0.60545 0.51747 0.0
H333 H 0.0185 0.61049 0.48826 0.0
H334 H 0.95394 0.57916 0.4438 0.0
H335 H 0.89233 0.57343 0.47307 0.0
H336 H 0.9249 0.53678 0.45228 0.0
H337 H 0.01722 0.45596 0.54227 0.0
H338 H 0.92798 0.45926 0.57958 0.0
H339 H 0.88007 0.55812 0.53753 0.0
C340 C 0.08044 0.54973 0.45413 0.0
C341 C 0.1298 0.52771 0.44612 0.0
C342 C 0.13851 0.49738 0.46488 0.0
C343 C 0.09759 0.48816 0.49001 0.0
C344 C 0.04819 0.5096 0.49643 0.0
C345 C 0.03986 0.54008 0.47959 0.0
C346 C 0.98241 0.55819 0.49166 0.0
C347 C -0.00164 0.59309 0.50716 0.0
C348 C 0.93564 0.56211 0.46352 0.0
C349 C 0.95993 0.53296 0.51762 0.0
C350 C -0.00162 0.50498 0.51963 0.0
C351 C 0.98695 0.47789 0.54121 0.0
C352 C 0.93581 0.47989 0.56215 0.0
C353 C 0.89694 0.50895 0.56162 0.0
C354 C 0.90882 0.53554 0.53859 0.0
H355 H 0.40847 0.98525 0.44422 0.0
H356 H 0.32071 0.08514 0.44764 0.0
H357 H 0.39535 0.10448 0.48903 0.0
H358 H 0.44332 0.9812 0.5325 0.0
H359 H 0.51591 0.96019 0.52601 0.0
H360 H 0.45448 0.95385 0.49697 0.0
H361 H 0.52585 0.97392 0.44938 0.0
H362 H 0.58717 0.98088 0.47838 0.0
H363 H 0.56225 1.01534 0.45198 0.0
H364 H 0.48197 0.11442 0.52809 0.0
H365 H 0.56807 0.11166 0.56754 0.0
H366 H 0.59896 1.00537 0.54004 0.0
C367 C 0.40444 1.011 0.45402 0.0
C368 C 0.35869 0.03363 0.44247 0.0
C369 C 0.35535 0.06725 0.45588 0.0
C370 C 0.39773 0.07862 0.47939 0.0
C371 C 0.44323 0.05609 0.48951 0.0
C372 C 0.44643 1.02284 0.47771 0.0
C373 C 0.49973 1.00385 0.49314 0.0
C374 C 0.47699 0.97295 0.51336 0.0
C375 C 0.54651 0.99286 0.46663 0.0
C376 C 0.52569 0.03166 0.51535 0.0
C377 C 0.49277 0.06169 0.51261 0.0
C378 C 0.50805 0.091 0.5306 0.0
C379 C 0.55731 0.08927 0.55278 0.0
C380 C 0.59031 0.05835 0.55695 0.0
C381 C 0.57472 0.02943 0.53746 0.0
H382 H 0.62951 0.54688 0.03428 0.0
H383 H 0.57878 0.44645 0.07191 0.0
H384 H 0.48859 0.44609 0.03534 0.0
H385 H 0.47998 0.58087 0.02851 0.0
H386 H 0.49287 0.60371 0.99035 0.0
H387 H 0.5558 0.59582 0.01805 0.0
H388 H 0.61637 0.56576 0.97102 0.0
H389 H 0.55417 0.5742 0.94298 0.0
H390 H 0.58122 0.53096 0.94861 0.0
H391 H 0.40081 0.45804 0.99822 0.0
H392 H 0.32712 0.47767 0.95654 0.0
H393 H 0.43458 0.57015 0.94126 0.0
C394 C 0.60003 0.52454 0.03446 0.0
C395 C 0.61131 0.49667 0.05607 0.0
C396 C 0.57142 0.46801 0.05554 0.0
C397 C 0.51977 0.46768 0.03501 0.0
C398 C 0.50891 0.49604 0.01494 0.0
C399 C 0.54841 0.52366 0.01395 0.0
C400 C 0.52603 0.55076 0.98989 0.0
C401 C 0.5129 0.5848 0.00778 0.0
C402 C 0.57219 0.5557 0.96143 0.0
C403 C 0.46733 0.53417 0.9778 0.0
C404 C 0.45838 0.50273 0.99284 0.0
C405 C 0.40759 0.48245 0.98604 0.0
C406 C 0.36585 0.49396 0.96235 0.0
C407 C 0.37507 0.52544 0.94547 0.0
C408 C 0.42594 0.54615 0.95389 0.0
H409 H 0.05037 0.97773 0.93888 0.0
H410 H 0.16243 0.06702 0.96007 0.0
H411 H 0.09359 0.08271 0.00593 0.0
H412 H 0.90819 1.01719 0.95298 0.0
H413 H 0.87184 0.9811 0.97281 0.0
H414 H 0.93277 0.97419 0.94337 0.0
H415 H -0.00587 0.9398 0.98691 0.0
H416 H 0.93273 0.94592 0.01625 0.0
H417 H 0.00961 0.9588 0.02673 0.0
H418 H 0.00823 0.0926 0.04521 0.0
H419 H 0.91801 0.09131 0.08202 0.0
H420 H 0.86055 0.99524 0.03721 0.0
C421 C 0.06131 0.99991 0.9539 0.0
C422 C 0.11181 1.02112 0.94599 0.0
C423 C 0.12393 0.05044 0.96569 0.0
C424 C 0.08501 0.05966 0.99174 0.0
C425 C 0.03408 0.03925 0.99798 0.0
C426 C 0.02258 1.00961 0.98019 0.0
C427 C 0.96335 0.99299 0.99176 0.0
C428 C 0.91627 0.99128 0.96354 0.0
C429 C 0.97571 0.95726 0.00629 0.0
C430 C 0.94343 1.01816 0.01842 0.0
C431 C 0.98477 0.04476 0.02134 0.0
C432 C 0.97576 0.0717 0.04349 0.0
C433 C 0.92402 0.07089 0.06411 0.0
C434 C 0.88215 0.04318 0.06263 0.0
C435 C 0.8917 1.01678 0.03903 0.0
H436 H 0.1907 0.6947 0.33863 0.0
H437 H 0.32068 0.6817 0.41885 0.0
H438 H 0.33867 0.74392 0.41996 0.0
H439 H 0.27291 0.76202 0.29643 0.0
H440 H 0.20512 0.7855 0.28499 0.0
H441 H 0.20141 0.73971 0.29038 0.0
H442 H 0.11403 0.74707 0.33335 0.0
H443 H 0.11729 0.79287 0.32796 0.0
H444 H 0.1256 0.7746 0.36867 0.0
H445 H 0.34449 0.80755 0.41224 0.0
H446 H 0.33447 0.86862 0.39731 0.0
H447 H 0.20038 0.84154 0.32246 0.0
C448 C 0.22272 0.70496 0.35651 0.0
C449 C 0.25422 0.68305 0.37865 0.0
C450 C 0.29585 0.6977 0.4016 0.0
C451 C 0.30656 0.73313 0.40243 0.0
C452 C 0.27528 0.75393 0.38021 0.0
C453 C 0.23398 0.74051 0.35776 0.0
C454 C 0.20641 0.76882 0.33673 0.0
C455 C 0.22243 0.7637 0.29995 0.0
C456 C 0.1367 0.77096 0.342 0.0
C457 C 0.23872 0.80009 0.3509 0.0
C458 C 0.27839 0.79085 0.37589 0.0
C459 C 0.31348 0.81512 0.39272 0.0
C460 C 0.30755 0.84981 0.38401 0.0
C461 C 0.2667 0.86009 0.3587 0.0
C462 C 0.23211 0.83467 0.3419 0.0
H463 H 0.70134 0.20252 0.11537 0.0
H464 H 0.81765 0.17331 0.19764 0.0
H465 H 0.82745 0.2342 0.21359 0.0
H466 H 0.7827 0.27972 0.09404 0.0
H467 H 0.71454 0.3034 0.08366 0.0
H468 H 0.71591 0.2575 0.07893 0.0
H469 H 0.61998 0.25238 0.11652 0.0
H470 H 0.6184 0.29828 0.12144 0.0
H471 H 0.62118 0.27101 0.15739 0.0
H472 H 0.82529 0.29834 0.22051 0.0
H473 H 0.81305 0.36103 0.21745 0.0
H474 H 0.6981 0.34927 0.13061 0.0
C475 C 0.72886 0.20886 0.13678 0.0
C476 C 0.75871 0.18292 0.15526 0.0
C477 C 0.79433 0.19254 0.18305 0.0
C478 C 0.80011 0.22712 0.19235 0.0
C479 C 0.77006 0.25196 0.17364 0.0
C480 C 0.7352 0.24331 0.1464 0.0
C481 C 0.70817 0.27507 0.13033 0.0
C482 C 0.73175 0.27916 0.09462 0.0
C483 C 0.63775 0.27412 0.1315 0.0
C484 C 0.7334 0.30296 0.15274 0.0
C485 C 0.76886 0.289 0.1776 0.0
C486 C 0.79755 0.30952 0.20117 0.0
C487 C 0.79025 0.34521 0.1992 0.0
C488 C 0.75451 0.36031 0.17383 0.0
C489 C 0.72549 0.33867 0.15041 0.0
H490 H 0.70155 0.20605 0.62609 0.0
H491 H 0.8186 0.19121 0.71162 0.0
H492 H 0.83572 0.25356 0.71495 0.0
H493 H 0.78969 0.27439 0.58925 0.0
H494 H 0.72355 0.29772 0.57506 0.0
H495 H 0.71996 0.25182 0.57937 0.0
H496 H 0.62571 0.25782 0.61809 0.0
H497 H 0.62897 0.30375 0.61387 0.0
H498 H 0.63093 0.28456 0.65442 0.0
H499 H 0.84083 0.31775 0.70906 0.0
H500 H 0.83269 0.37903 0.69448 0.0
H501 H 0.7124 0.35268 0.61287 0.0
C502 C 0.73072 0.21589 0.64555 0.0
C503 C 0.75866 0.19354 0.66861 0.0
C504 C 0.79656 0.20763 0.69365 0.0
C505 C 0.80665 0.2431 0.69576 0.0
C506 C 0.77858 0.26438 0.67267 0.0
C507 C 0.74133 0.25136 0.64805 0.0
C508 C 0.71674 0.27993 0.62635 0.0
C509 C 0.73882 0.27571 0.59038 0.0
C510 C 0.64641 0.28161 0.62832 0.0
C511 C 0.74596 0.31098 0.64264 0.0
C512 C 0.78149 0.30142 0.6693 0.0
C513 C 0.81309 0.32553 0.68823 0.0
C514 C 0.8082 0.36034 0.67973 0.0
C515 C 0.77194 0.37085 0.65253 0.0
C516 C 0.74053 0.34563 0.63381 0.0
H517 H 0.30812 0.69834 0.88433 0.0
H518 H 0.21807 0.68727 0.78913 0.0
H519 H 0.19845 0.74925 0.78786 0.0
H520 H 0.20693 0.76276 0.91697 0.0
H521 H 0.26621 0.78671 0.93767 0.0
H522 H 0.27497 0.74126 0.93127 0.0
H523 H 0.37813 0.7517 0.90105 0.0
H524 H 0.36987 0.79717 0.90754 0.0
H525 H 0.3808 0.78059 0.86627 0.0
H526 H 0.18454 0.81181 0.7972 0.0
H527 H 0.18271 0.87211 0.81524 0.0
H528 H 0.28343 0.84463 0.90391 0.0
C529 C 0.28473 0.70901 0.86311 0.0
C530 C 0.26468 0.68768 0.83683 0.0
C531 C 0.23399 0.70281 0.80961 0.0
C532 C 0.22245 0.73811 0.80863 0.0
C533 C 0.242 0.75829 0.83499 0.0
C534 C 0.27291 0.74448 0.86164 0.0
C535 C 0.28874 0.77227 0.88666 0.0
C536 C 0.25733 0.76532 0.92012 0.0
C537 C 0.35854 0.77563 0.8906 0.0
C538 C 0.26173 0.80367 0.86987 0.0
C539 C 0.23474 0.79486 0.84018 0.0
C540 C 0.20579 0.81908 0.82034 0.0
C541 C 0.20482 0.85334 0.8309 0.0
C542 C 0.23295 0.86333 0.861 0.0
C543 C 0.26164 0.83796 0.88073 0.0
loop_
_geom_bond_atom_site_label_1
_geom_bond_atom_site_label_2
_geom_bond_distance
_geom_bond_site_symmetry_2
_ccdc_geom_bond_type
Zn0 O3 2.031 . S
Zn0 O5 2.049 . S
Zn0 O10 2.067 . S
Zn1 O2 1.962 . S
Zn1 O4 1.986 . S
Zn1 O6 1.996 . S
Zn1 O9 1.943 . S
O2 Zn1 1.962 . S
O2 C7 1.254 . S
O3 Zn0 2.031 . S
O3 C7 1.269 . S
O4 Zn1 1.986 . S
O4 C11 1.262 . S
O5 Zn0 2.049 . S
O5 C13 1.260 . S
O6 Zn1 1.996 . S
O6 C13 1.257 . S
C7 O2 1.254 . S
C7 O3 1.269 . S
C8 O9 1.249 . S
C8 O10 1.270 . S
O9 Zn1 1.943 . S
O9 C8 1.249 . S
O10 Zn0 2.067 . S
O10 C8 1.270 . S
C11 O4 1.262 . S
C11 O12 1.232 . S
O12 C11 1.232 . S
C13 O5 1.260 . S
C13 O6 1.257 . S
Zn14 O17 2.031 1_545 S
Zn14 O19 2.049 . S
Zn14 O24 2.067 1_545 S
Zn15 O16 1.962 . S
Zn15 O18 1.986 . S
Zn15 O20 1.996 . S
Zn15 O23 1.943 . S
O16 Zn15 1.962 . S
O16 C21 1.254 . S
O17 Zn14 2.031 1_565 S
O17 C21 1.269 . S
O18 Zn15 1.986 . S
O18 C25 1.262 . S
O19 Zn14 2.049 . S
O19 C27 1.260 1_545 S
O20 Zn15 1.996 . S
O20 C27 1.257 . S
C21 O16 1.254 . S
C21 O17 1.269 . S
C22 O23 1.249 . S
C22 O24 1.270 . S
O23 Zn15 1.943 . S
O23 C22 1.249 . S
O24 Zn14 2.067 1_565 S
O24 C22 1.270 . S
C25 O18 1.262 . S
C25 O26 1.232 . S
O26 C25 1.232 . S
C27 O19 1.260 1_565 S
C27 O20 1.257 . S
Zn28 O31 2.031 . S
Zn28 O33 2.049 . S
Zn28 O38 2.067 . S
Zn29 O30 1.962 . S
Zn29 O32 1.986 . S
Zn29 O34 1.996 . S
Zn29 O37 1.943 . S
O30 Zn29 1.962 . S
O30 C35 1.254 . S
O31 Zn28 2.031 . S
O31 C35 1.269 . S
O32 Zn29 1.986 . S
O32 C39 1.262 . S
O33 Zn28 2.049 . S
O33 C41 1.260 . S
O34 Zn29 1.996 . S
O34 C41 1.257 . S
C35 O30 1.254 . S
C35 O31 1.269 . S
C36 O37 1.249 . S
C36 O38 1.270 . S
O37 Zn29 1.943 . S
O37 C36 1.249 . S
O38 Zn28 2.067 . S
O38 C36 1.270 . S
C39 O32 1.262 . S
C39 O40 1.232 . S
O40 C39 1.232 . S
C41 O33 1.260 . S
C41 O34 1.257 . S
Zn42 O45 2.031 1_565 S
Zn42 O47 2.049 . S
Zn42 O52 2.067 1_565 S
Zn43 O44 1.962 . S
Zn43 O46 1.986 . S
Zn43 O48 1.996 . S
Zn43 O51 1.943 . S
O44 Zn43 1.962 . S
O44 C49 1.254 . S
O45 Zn42 2.031 1_545 S
O45 C49 1.269 . S
O46 Zn43 1.986 . S
O46 C53 1.262 . S
O47 Zn42 2.049 . S
O47 C55 1.260 1_565 S
O48 Zn43 1.996 . S
O48 C55 1.257 . S
C49 O44 1.254 . S
C49 O45 1.269 . S
C50 O51 1.249 . S
C50 O52 1.270 . S
O51 Zn43 1.943 . S
O51 C50 1.249 . S
O52 Zn42 2.067 1_545 S
O52 C50 1.270 . S
C53 O46 1.262 . S
C53 O54 1.232 . S
O54 C53 1.232 . S
C55 O47 1.260 1_545 S
C55 O48 1.257 . S
Zn56 O59 2.031 . S
Zn56 O61 2.049 . S
Zn56 O66 2.067 . S
Zn57 O58 1.962 . S
Zn57 O60 1.986 . S
Zn57 O62 1.996 . S
Zn57 O65 1.943 . S
O58 Zn57 1.962 . S
O58 C63 1.254 . S
O59 Zn56 2.031 . S
O59 C63 1.269 . S
O60 Zn57 1.986 . S
O60 C67 1.262 . S
O61 Zn56 2.049 . S
O61 C69 1.260 . S
O62 Zn57 1.996 . S
O62 C69 1.257 . S
C63 O58 1.254 . S
C63 O59 1.269 . S
C64 O65 1.249 . S
C64 O66 1.270 . S
O65 Zn57 1.943 . S
O65 C64 1.249 . S
O66 Zn56 2.067 . S
O66 C64 1.270 . S
C67 O60 1.262 . S
C67 O68 1.232 . S
O68 C67 1.232 . S
C69 O61 1.260 . S
C69 O62 1.257 . S
Zn70 O73 2.031 1_565 S
Zn70 O75 2.049 . S
Zn70 O80 2.067 1_565 S
Zn71 O72 1.962 . S
Zn71 O74 1.986 . S
Zn71 O76 1.996 . S
Zn71 O79 1.943 . S
O72 Zn71 1.962 . S
O72 C77 1.254 . S
O73 Zn70 2.031 1_545 S
O73 C77 1.269 . S
O74 Zn71 1.986 . S
O74 C81 1.262 . S
O75 Zn70 2.049 . S
O75 C83 1.260 1_565 S
O76 Zn71 1.996 . S
O76 C83 1.257 . S
C77 O72 1.254 . S
C77 O73 1.269 . S
C78 O79 1.249 . S
C78 O80 1.270 . S
O79 Zn71 1.943 . S
O79 C78 1.249 . S
O80 Zn70 2.067 1_545 S
O80 C78 1.270 . S
C81 O74 1.262 . S
C81 O82 1.232 . S
O82 C81 1.232 . S
C83 O75 1.260 1_545 S
C83 O76 1.257 . S
Zn84 O87 2.031 . S
Zn84 O89 2.049 . S
Zn84 O94 2.067 . S
Zn85 O86 1.962 . S
Zn85 O88 1.986 . S
Zn85 O90 1.996 . S
Zn85 O93 1.943 . S
O86 Zn85 1.962 . S
O86 C91 1.254 . S
O87 Zn84 2.031 . S
O87 C91 1.269 . S
O88 Zn85 1.986 . S
O88 C95 1.262 . S
O89 Zn84 2.049 . S
O89 C97 1.260 . S
O90 Zn85 1.996 . S
O90 C97 1.257 . S
C91 O86 1.254 . S
C91 O87 1.269 . S
C92 O93 1.249 . S
C92 O94 1.270 . S
O93 Zn85 1.943 . S
O93 C92 1.249 . S
O94 Zn84 2.067 . S
O94 C92 1.270 . S
C95 O88 1.262 . S
C95 O96 1.232 . S
O96 C95 1.232 . S
C97 O89 1.260 . S
C97 O90 1.257 . S
Zn98 O101 2.031 1_545 S
Zn98 O103 2.049 . S
Zn98 O108 2.067 1_545 S
Zn99 O100 1.962 . S
Zn99 O102 1.986 . S
Zn99 O104 1.996 . S
Zn99 O107 1.943 . S
O100 Zn99 1.962 . S
O100 C105 1.254 . S
O101 Zn98 2.031 1_565 S
O101 C105 1.269 . S
O102 Zn99 1.986 . S
O102 C109 1.262 . S
O103 Zn98 2.049 . S
O103 C111 1.260 1_545 S
O104 Zn99 1.996 . S
O104 C111 1.257 . S
C105 O100 1.254 . S
C105 O101 1.269 . S
C106 O107 1.249 . S
C106 O108 1.270 . S
O107 Zn99 1.943 . S
O107 C106 1.249 . S
O108 Zn98 2.067 1_565 S
O108 C106 1.270 . S
C109 O102 1.262 . S
C109 O110 1.232 . S
O110 C109 1.232 . S
C111 O103 1.260 1_565 S
C111 O104 1.257 . S
H112 C124 0.930 . S
H113 C126 0.930 . S
H114 C127 0.930 . S
H115 C131 0.959 . S
H116 C131 0.959 . S
H117 C131 0.961 . S
H118 C132 0.960 . S
H119 C132 0.961 . S
H120 C132 0.959 . S
H121 C135 0.929 . S
H122 C136 0.931 . S
H123 C138 0.930 . S
C124 H112 0.930 . S
C124 C125 1.399 . S
C124 C129 1.399 . S
C125 C124 1.399 . S
C125 C126 1.376 . S
C126 H113 0.930 . S
C126 C125 1.376 . S
C126 C127 1.388 . S
C127 H114 0.930 . S
C127 C126 1.388 . S
C127 C128 1.390 . S
C128 C127 1.390 . S
C128 C129 1.394 . S
C128 C134 1.465 . S
C129 C124 1.399 . S
C129 C128 1.394 . S
C129 C130 1.516 . S
C130 C129 1.516 . S
C130 C131 1.502 . S
C130 C132 1.561 . S
C130 C133 1.526 . S
C131 H115 0.959 . S
C131 H116 0.959 . S
C131 H117 0.961 . S
C131 C130 1.502 . S
C132 H118 0.960 . S
C132 H119 0.961 . S
C132 H120 0.959 . S
C132 C130 1.561 . S
C133 C130 1.526 . S
C133 C134 1.396 . S
C133 C138 1.390 . S
C134 C128 1.465 . S
C134 C133 1.396 . S
C134 C135 1.399 . S
C135 H121 0.929 . S
C135 C134 1.399 . S
C135 C136 1.385 . S
C136 H122 0.931 . S
C136 C135 1.385 . S
C136 C137 1.389 . S
C137 C136 1.389 . S
C137 C138 1.387 . S
C138 H123 0.930 . S
C138 C133 1.390 . S
C138 C137 1.387 . S
H139 C151 0.930 . S
H140 C153 0.930 1_565 S
H141 C154 0.930 . S
H142 C158 0.959 . S
H143 C158 0.959 . S
H144 C158 0.961 . S
H145 C159 0.960 . S
H146 C159 0.961 . S
H147 C159 0.959 . S
H148 C162 0.929 . S
H149 C163 0.931 . S
H150 C165 0.930 . S
C151 H139 0.930 . S
C151 C152 1.399 1_455 S
C151 C156 1.399 . S
C152 C151 1.399 1_655 S
C152 C153 1.376 . S
C153 H140 0.930 1_545 S
C153 C152 1.376 . S
C153 C154 1.388 1_645 S
C154 H141 0.930 . S
C154 C153 1.388 1_465 S
C154 C155 1.389 . S
C155 C154 1.389 . S
C155 C156 1.395 1_565 S
C155 C161 1.464 . S
C156 C151 1.399 . S
C156 C155 1.395 1_545 S
C156 C157 1.516 . S
C157 C156 1.516 . S
C157 C158 1.502 . S
C157 C159 1.561 . S
C157 C160 1.526 . S
C158 H142 0.959 . S
C158 H143 0.959 . S
C158 H144 0.961 . S
C158 C157 1.502 . S
C159 H145 0.960 . S
C159 H146 0.961 . S
C159 H147 0.959 . S
C159 C157 1.561 . S
C160 C157 1.526 . S
C160 C161 1.396 1_545 S
C160 C165 1.390 . S
C161 C155 1.464 . S
C161 C160 1.396 1_565 S
C161 C162 1.399 . S
C162 H148 0.929 . S
C162 C161 1.399 . S
C162 C163 1.385 . S
C163 H149 0.931 . S
C163 C162 1.385 . S
C163 C164 1.389 . S
C164 C163 1.389 . S
C164 C165 1.387 1_565 S
C165 H150 0.930 . S
C165 C160 1.390 . S
C165 C164 1.387 1_545 S
H166 C178 0.930 . S
H167 C180 0.930 . S
H168 C181 0.930 . S
H169 C185 0.962 . S
H170 C185 0.959 1_455 S
H171 C185 0.961 . S
H172 C186 0.960 . S
H173 C186 0.961 . S
H174 C186 0.959 . S
H175 C189 0.929 . S
H176 C190 0.931 . S
H177 C192 0.930 . S
C178 H166 0.930 . S
C178 C179 1.399 . S
C178 C183 1.399 . S
C179 C178 1.399 . S
C179 C180 1.376 . S
C180 H167 0.930 . S
C180 C179 1.376 . S
C180 C181 1.388 . S
C181 H168 0.930 . S
C181 C180 1.388 . S
C181 C182 1.390 . S
C182 C181 1.390 . S
C182 C183 1.394 . S
C182 C188 1.465 . S
C183 C178 1.399 . S
C183 C182 1.394 . S
C183 C184 1.516 . S
C184 C183 1.516 . S
C184 C185 1.502 . S
C184 C186 1.561 . S
C184 C187 1.526 . S
C185 H169 0.962 . S
C185 H170 0.959 1_655 S
C185 H171 0.961 . S
C185 C184 1.502 . S
C186 H172 0.960 . S
C186 H173 0.961 . S
C186 H174 0.959 . S
C186 C184 1.561 . S
C187 C184 1.526 . S
C187 C188 1.396 . S
C187 C192 1.390 1_655 S
C188 C182 1.465 . S
C188 C187 1.396 . S
C188 C189 1.399 . S
C189 H175 0.929 . S
C189 C188 1.399 . S
C189 C190 1.385 . S
C190 H176 0.931 . S
C190 C189 1.385 . S
C190 C191 1.389 1_655 S
C191 C190 1.389 1_455 S
C191 C192 1.387 . S
C192 H177 0.930 . S
C192 C187 1.390 1_455 S
C192 C191 1.387 . S
H193 C205 0.930 . S
H194 C207 0.930 . S
H195 C208 0.930 . S
H196 C212 0.959 . S
H197 C212 0.959 . S
H198 C212 0.961 . S
H199 C213 0.960 . S
H200 C213 0.961 . S
H201 C213 0.959 . S
H202 C216 0.929 . S
H203 C217 0.931 1_545 S
H204 C219 0.930 . S
C205 H193 0.930 . S
C205 C206 1.399 1_565 S
C205 C210 1.399 . S
C206 C205 1.399 1_545 S
C206 C207 1.376 . S
C207 H194 0.930 . S
C207 C206 1.376 . S
C207 C208 1.388 . S
C208 H195 0.930 . S
C208 C207 1.388 . S
C208 C209 1.390 . S
C209 C208 1.390 . S
C209 C210 1.394 1_545 S
C209 C215 1.465 1_545 S
C210 C205 1.399 . S
C210 C209 1.394 1_565 S
C210 C211 1.516 . S
C211 C210 1.516 . S
C211 C212 1.502 . S
C211 C213 1.561 . S
C211 C214 1.526 . S
C212 H196 0.959 . S
C212 H197 0.959 . S
C212 H198 0.961 . S
C212 C211 1.502 . S
C213 H199 0.960 . S
C213 H200 0.961 . S
C213 H201 0.959 . S
C213 C211 1.561 . S
C214 C211 1.526 . S
C214 C215 1.396 . S
C214 C219 1.390 . S
C215 C209 1.465 1_565 S
C215 C214 1.396 . S
C215 C216 1.399 1_565 S
C216 H202 0.929 . S
C216 C215 1.399 1_545 S
C216 C217 1.385 1_545 S
C217 H203 0.931 1_565 S
C217 C216 1.385 1_565 S
C217 C218 1.389 . S
C218 C217 1.389 . S
C218 C219 1.387 . S
C219 H204 0.930 . S
C219 C214 1.390 . S
C219 C218 1.387 . S
H220 C232 0.930 . S
H221 C234 0.930 . S
H222 C235 0.930 . S
H223 C239 0.959 . S
H224 C239 0.959 . S
H225 C239 0.961 . S
H226 C240 0.960 . S
H227 C240 0.961 . S
H228 C240 0.959 . S
H229 C243 0.929 . S
H230 C244 0.931 . S
H231 C246 0.930 . S
C232 H220 0.930 . S
C232 C233 1.399 . S
C232 C237 1.399 . S
C233 C232 1.399 . S
C233 C234 1.376 . S
C234 H221 0.930 . S
C234 C233 1.376 . S
C234 C235 1.388 . S
C235 H222 0.930 . S
C235 C234 1.388 . S
C235 C236 1.390 . S
C236 C235 1.390 . S
C236 C237 1.394 . S
C236 C242 1.465 . S
C237 C232 1.399 . S
C237 C236 1.394 . S
C237 C238 1.516 . S
C238 C237 1.516 . S
C238 C239 1.502 . S
C238 C240 1.561 . S
C238 C241 1.526 . S
C239 H223 0.959 . S
C239 H224 0.959 . S
C239 H225 0.961 . S
C239 C238 1.502 . S
C240 H226 0.960 . S
C240 H227 0.961 . S
C240 H228 0.959 . S
C240 C238 1.561 . S
C241 C238 1.526 . S
C241 C242 1.396 . S
C241 C246 1.390 . S
C242 C236 1.465 . S
C242 C241 1.396 . S
C242 C243 1.399 . S
C243 H229 0.929 . S
C243 C242 1.399 . S
C243 C244 1.385 . S
C244 H230 0.931 . S
C244 C243 1.385 . S
C244 C245 1.389 . S
C245 C244 1.389 . S
C245 C246 1.387 . S
C246 H231 0.930 . S
C246 C241 1.390 . S
C246 C245 1.387 . S
H247 C259 0.930 . S
H248 C261 0.930 . S
H249 C262 0.930 . S
H250 C266 0.959 . S
H251 C266 0.959 1_455 S
H252 C266 0.961 . S
H253 C267 0.960 . S
H254 C267 0.961 . S
H255 C267 0.959 . S
H256 C270 0.929 . S
H257 C271 0.931 . S
H258 C273 0.930 1_545 S
C259 H247 0.930 . S
C259 C260 1.399 . S
C259 C264 1.399 . S
C260 C259 1.399 . S
C260 C261 1.376 1_545 S
C261 H248 0.930 . S
C261 C260 1.376 1_565 S
C261 C262 1.388 . S
C262 H249 0.930 . S
C262 C261 1.388 . S
C262 C263 1.390 . S
C263 C262 1.390 . S
C263 C264 1.394 1_565 S
C263 C269 1.465 . S
C264 C259 1.399 . S
C264 C263 1.394 1_545 S
C264 C265 1.516 . S
C265 C264 1.516 . S
C265 C266 1.502 . S
C265 C267 1.561 . S
C265 C268 1.526 1_545 S
C266 H250 0.959 . S
C266 H251 0.959 1_655 S
C266 H252 0.961 . S
C266 C265 1.502 . S
C267 H253 0.960 . S
C267 H254 0.961 . S
C267 H255 0.959 . S
C267 C265 1.561 . S
C268 C265 1.526 1_565 S
C268 C269 1.396 . S
C268 C273 1.390 1_655 S
C269 C263 1.465 . S
C269 C268 1.396 . S
C269 C270 1.399 . S
C270 H256 0.929 . S
C270 C269 1.399 . S
C270 C271 1.385 . S
C271 H257 0.931 . S
C271 C270 1.385 . S
C271 C272 1.389 1_655 S
C272 C271 1.389 1_455 S
C272 C273 1.387 . S
C273 H258 0.930 1_565 S
C273 C268 1.390 1_455 S
C273 C272 1.387 . S
H274 C286 0.930 . S
H275 C288 0.930 . S
H276 C289 0.930 . S
H277 C293 0.959 . S
H278 C293 0.959 . S
H279 C293 0.961 . S
H280 C294 0.960 . S
H281 C294 0.961 1_655 S
H282 C294 0.959 . S
H283 C297 0.929 . S
H284 C298 0.931 . S
H285 C300 0.930 . S
C286 H274 0.930 . S
C286 C287 1.399 . S
C286 C291 1.399 . S
C287 C286 1.399 . S
C287 C288 1.376 . S
C288 H275 0.930 . S
C288 C287 1.376 . S
C288 C289 1.388 . S
C289 H276 0.930 . S
C289 C288 1.388 . S
C289 C290 1.390 . S
C290 C289 1.390 . S
C290 C291 1.394 . S
C290 C296 1.465 . S
C291 C286 1.399 . S
C291 C290 1.394 . S
C291 C292 1.516 . S
C292 C291 1.516 . S
C292 C293 1.502 . S
C292 C294 1.561 . S
C292 C295 1.526 . S
C293 H277 0.959 . S
C293 H278 0.959 . S
C293 H279 0.961 . S
C293 C292 1.502 . S
C294 H280 0.960 . S
C294 H281 0.961 1_455 S
C294 H282 0.959 . S
C294 C292 1.561 . S
C295 C292 1.526 . S
C295 C296 1.396 . S
C295 C300 1.390 1_455 S
C296 C290 1.465 . S
C296 C295 1.396 . S
C296 C297 1.399 . S
C297 H283 0.929 . S
C297 C296 1.399 . S
C297 C298 1.385 . S
C298 H284 0.931 . S
C298 C297 1.385 . S
C298 C299 1.389 1_455 S
C299 C298 1.389 1_655 S
C299 C300 1.387 . S
C300 H285 0.930 . S
C300 C295 1.390 1_655 S
C300 C299 1.387 . S
H301 C313 0.930 . S
H302 C315 0.930 . S
H303 C316 0.930 . S
H304 C320 0.959 . S
H305 C320 0.959 . S
H306 C320 0.961 . S
H307 C321 0.960 . S
H308 C321 0.961 . S
H309 C321 0.959 . S
H310 C324 0.929 . S
H311 C325 0.931 . S
H312 C327 0.930 1_565 S
C313 H301 0.930 . S
C313 C314 1.399 . S
C313 C318 1.399 . S
C314 C313 1.399 . S
C314 C315 1.376 1_565 S
C315 H302 0.930 . S
C315 C314 1.376 1_545 S
C315 C316 1.388 . S
C316 H303 0.930 . S
C316 C315 1.388 . S
C316 C317 1.390 . S
C317 C316 1.390 . S
C317 C318 1.394 1_545 S
C317 C323 1.465 . S
C318 C313 1.399 . S
C318 C317 1.394 1_565 S
C318 C319 1.516 . S
C319 C318 1.516 . S
C319 C320 1.502 . S
C319 C321 1.561 . S
C319 C322 1.526 1_565 S
C320 H304 0.959 . S
C320 H305 0.959 . S
C320 H306 0.961 . S
C320 C319 1.502 . S
C321 H307 0.960 . S
C321 H308 0.961 . S
C321 H309 0.959 . S
C321 C319 1.561 . S
C322 C319 1.526 1_545 S
C322 C323 1.396 . S
C322 C327 1.390 . S
C323 C317 1.465 . S
C323 C322 1.396 . S
C323 C324 1.399 . S
C324 H310 0.929 . S
C324 C323 1.399 . S
C324 C325 1.385 . S
C325 H311 0.931 . S
C325 C324 1.385 . S
C325 C326 1.389 . S
C326 C325 1.389 . S
C326 C327 1.387 . S
C327 H312 0.930 1_545 S
C327 C322 1.390 . S
C327 C326 1.387 . S
H328 C340 0.930 1_655 S
H329 C342 0.930 . S
H330 C343 0.930 . S
H331 C347 0.959 . S
H332 C347 0.959 . S
H333 C347 0.961 . S
H334 C348 0.960 . S
H335 C348 0.961 . S
H336 C348 0.959 . S
H337 C351 0.929 . S
H338 C352 0.931 1_455 S
H339 C354 0.930 . S
C340 H328 0.930 1_455 S
C340 C341 1.399 . S
C340 C345 1.399 . S
C341 C340 1.399 . S
C341 C342 1.376 . S
C342 H329 0.930 . S
C342 C341 1.376 . S
C342 C343 1.388 . S
C343 H330 0.930 . S
C343 C342 1.388 . S
C343 C344 1.390 . S
C344 C343 1.390 . S
C344 C345 1.394 . S
C344 C350 1.465 . S
C345 C340 1.399 . S
C345 C344 1.394 . S
C345 C346 1.516 1_455 S
C346 C345 1.516 1_655 S
C346 C347 1.502 . S
C346 C348 1.561 . S
C346 C349 1.526 . S
C347 H331 0.959 . S
C347 H332 0.959 . S
C347 H333 0.961 . S
C347 C346 1.502 . S
C348 H334 0.960 . S
C348 H335 0.961 . S
C348 H336 0.959 . S
C348 C346 1.561 . S
C349 C346 1.526 . S
C349 C350 1.396 1_655 S
C349 C354 1.390 . S
C350 C344 1.465 . S
C350 C349 1.396 1_455 S
C350 C351 1.399 . S
C351 H337 0.929 . S
C351 C350 1.399 . S
C351 C352 1.385 1_455 S
C352 H338 0.931 1_655 S
C352 C351 1.385 1_655 S
C352 C353 1.389 . S
C353 C352 1.389 . S
C353 C354 1.387 . S
C354 H339 0.930 . S
C354 C349 1.390 . S
C354 C353 1.387 . S
H355 C367 0.930 . S
H356 C369 0.930 . S
H357 C370 0.930 . S
H358 C374 0.959 . S
H359 C374 0.959 . S
H360 C374 0.961 . S
H361 C375 0.960 . S
H362 C375 0.961 . S
H363 C375 0.959 . S
H364 C378 0.929 . S
H365 C379 0.931 . S
H366 C381 0.930 1_565 S
C367 H355 0.930 . S
C367 C368 1.399 . S
C367 C372 1.399 . S
C368 C367 1.399 . S
C368 C369 1.376 1_565 S
C369 H356 0.930 . S
C369 C368 1.376 1_545 S
C369 C370 1.388 . S
C370 H357 0.930 . S
C370 C369 1.388 . S
C370 C371 1.390 . S
C371 C370 1.390 . S
C371 C372 1.394 1_545 S
C371 C377 1.465 . S
C372 C367 1.399 . S
C372 C371 1.394 1_565 S
C372 C373 1.516 . S
C373 C372 1.516 . S
C373 C374 1.502 . S
C373 C375 1.561 . S
C373 C376 1.545 . S
C374 H358 0.959 . S
C374 H359 0.959 . S
C374 H360 0.961 . S
C374 C373 1.502 . S
C375 H361 0.960 . S
C375 H362 0.961 . S
C375 H363 0.959 . S
C375 C373 1.561 . S
C376 C373 1.545 . S
C376 C377 1.380 1_565 S
C376 C381 1.385 1_565 S
C377 C371 1.465 . S
C377 C376 1.380 1_545 S
C377 C378 1.399 . S
C378 H364 0.929 . S
C378 C377 1.399 . S
C378 C379 1.385 . S
C379 H365 0.931 . S
C379 C378 1.385 . S
C379 C380 1.389 . S
C380 C379 1.389 . S
C380 C381 1.387 . S
C381 H366 0.930 1_545 S
C381 C376 1.385 1_545 S
C381 C380 1.387 . S
H382 C394 0.930 . S
H383 C396 0.930 . S
H384 C397 0.930 1_556 S
H385 C401 0.959 . S
H386 C401 0.959 . S
H387 C401 0.961 . S
H388 C402 0.960 . S
H389 C402 0.961 . S
H390 C402 0.959 . S
H391 C405 0.929 . S
H392 C406 0.931 . S
H393 C408 0.930 . S
C394 H382 0.930 . S
C394 C395 1.399 . S
C394 C399 1.399 . S
C395 C394 1.399 . S
C395 C396 1.376 . S
C396 H383 0.930 . S
C396 C395 1.376 . S
C396 C397 1.388 . S
C397 H384 0.930 1_554 S
C397 C396 1.388 . S
C397 C398 1.390 . S
C398 C397 1.390 . S
C398 C399 1.394 . S
C398 C404 1.465 1_554 S
C399 C394 1.399 . S
C399 C398 1.394 . S
C399 C400 1.516 . S
C400 C399 1.516 . S
C400 C401 1.502 . S
C400 C402 1.561 . S
C400 C403 1.526 1_554 S
C401 H385 0.959 . S
C401 H386 0.959 . S
C401 H387 0.961 . S
C401 C400 1.502 . S
C402 H388 0.960 . S
C402 H389 0.961 . S
C402 H390 0.959 . S
C402 C400 1.561 . S
C403 C400 1.526 1_556 S
C403 C404 1.396 . S
C403 C408 1.390 . S
C404 C398 1.465 1_556 S
C404 C403 1.396 . S
C404 C405 1.399 . S
C405 H391 0.929 . S
C405 C404 1.399 . S
C405 C406 1.385 . S
C406 H392 0.931 . S
C406 C405 1.385 . S
C406 C407 1.389 . S
C407 C406 1.389 . S
C407 C408 1.387 . S
C408 H393 0.930 . S
C408 C403 1.390 . S
C408 C407 1.387 . S
H409 C421 0.930 . S
H410 C423 0.930 . S
H411 C424 0.930 . S
H412 C428 0.959 . S
H413 C428 0.959 1_554 S
H414 C428 0.961 . S
H415 C429 0.960 . S
H416 C429 0.961 1_655 S
H417 C429 0.959 . S
H418 C432 0.934 . S
H419 C433 0.931 . S
H420 C435 0.930 1_565 S
C421 H409 0.930 . S
C421 C422 1.399 . S
C421 C426 1.399 . S
C422 C421 1.399 . S
C422 C423 1.376 1_565 S
C423 H410 0.930 . S
C423 C422 1.376 1_545 S
C423 C424 1.388 . S
C424 H411 0.930 . S
C424 C423 1.388 . S
C424 C425 1.390 . S
C425 C424 1.390 . S
C425 C426 1.394 1_545 S
C425 C431 1.475 1_556 S
C426 C421 1.399 . S
C426 C425 1.394 1_565 S
C426 C427 1.516 1_456 S
C427 C426 1.516 1_654 S
C427 C428 1.502 1_554 S
C427 C429 1.561 1_655 S
C427 C430 1.526 . S
C428 H412 0.959 . S
C428 H413 0.959 1_556 S
C428 H414 0.961 . S
C428 C427 1.502 1_556 S
C429 H415 0.960 . S
C429 H416 0.961 1_455 S
C429 H417 0.959 . S
C429 C427 1.561 1_455 S
C430 C427 1.526 . S
C430 C431 1.385 1_665 S
C430 C435 1.390 1_565 S
C431 C425 1.475 1_554 S
C431 C430 1.385 1_445 S
C431 C432 1.399 . S
C432 H418 0.934 . S
C432 C431 1.399 . S
C432 C433 1.381 1_455 S
C433 H419 0.931 . S
C433 C432 1.381 1_655 S
C433 C434 1.389 . S
C434 C433 1.389 . S
C434 C435 1.387 . S
C435 H420 0.930 1_545 S
C435 C430 1.390 1_545 S
C435 C434 1.387 . S
H436 C448 0.930 . S
H437 C450 0.930 . S
H438 C451 0.930 . S
H439 C455 0.959 . S
H440 C455 0.959 . S
H441 C455 0.961 . S
H442 C456 0.960 . S
H443 C456 0.961 . S
H444 C456 0.959 . S
H445 C459 0.929 . S
H446 C460 0.931 . S
H447 C462 0.930 . S
C448 H436 0.930 . S
C448 C449 1.399 . S
C448 C453 1.399 . S
C449 C448 1.399 . S
C449 C450 1.376 . S
C450 H437 0.930 . S
C450 C449 1.376 . S
C450 C451 1.388 . S
C451 H438 0.930 . S
C451 C450 1.388 . S
C451 C452 1.390 . S
C452 C451 1.390 . S
C452 C453 1.394 . S
C452 C458 1.465 . S
C453 C448 1.399 . S
C453 C452 1.394 . S
C453 C454 1.516 . S
C454 C453 1.516 . S
C454 C455 1.502 . S
C454 C456 1.561 . S
C454 C457 1.526 . S
C455 H439 0.959 . S
C455 H440 0.959 . S
C455 H441 0.961 . S
C455 C454 1.502 . S
C456 H442 0.960 . S
C456 H443 0.961 . S
C456 H444 0.959 . S
C456 C454 1.561 . S
C457 C454 1.526 . S
C457 C458 1.396 . S
C457 C462 1.390 . S
C458 C452 1.465 . S
C458 C457 1.396 . S
C458 C459 1.399 . S
C459 H445 0.929 . S
C459 C458 1.399 . S
C459 C460 1.385 . S
C460 H446 0.931 . S
C460 C459 1.385 . S
C460 C461 1.389 . S
C461 C460 1.389 . S
C461 C462 1.387 . S
C462 H447 0.930 . S
C462 C457 1.390 . S
C462 C461 1.387 . S
H463 C475 0.930 . S
H464 C477 0.930 . S
H465 C478 0.930 . S
H466 C482 0.959 . S
H467 C482 0.959 . S
H468 C482 0.961 . S
H469 C483 0.960 . S
H470 C483 0.961 . S
H471 C483 0.959 . S
H472 C486 0.929 . S
H473 C487 0.931 . S
H474 C489 0.930 . S
C475 H463 0.930 . S
C475 C476 1.399 . S
C475 C480 1.399 . S
C476 C475 1.399 . S
C476 C477 1.376 . S
C477 H464 0.930 . S
C477 C476 1.376 . S
C477 C478 1.388 . S
C478 H465 0.930 . S
C478 C477 1.388 . S
C478 C479 1.390 . S
C479 C478 1.390 . S
C479 C480 1.394 . S
C479 C485 1.465 . S
C480 C475 1.399 . S
C480 C479 1.394 . S
C480 C481 1.516 . S
C481 C480 1.516 . S
C481 C482 1.502 . S
C481 C483 1.561 . S
C481 C484 1.526 . S
C482 H466 0.959 . S
C482 H467 0.959 . S
C482 H468 0.961 . S
C482 C481 1.502 . S
C483 H469 0.960 . S
C483 H470 0.961 . S
C483 H471 0.959 . S
C483 C481 1.561 . S
C484 C481 1.526 . S
C484 C485 1.396 . S
C484 C489 1.390 . S
C485 C479 1.465 . S
C485 C484 1.396 . S
C485 C486 1.399 . S
C486 H472 0.929 . S
C486 C485 1.399 . S
C486 C487 1.385 . S
C487 H473 0.931 . S
C487 C486 1.385 . S
C487 C488 1.389 . S
C488 C487 1.389 . S
C488 C489 1.387 . S
C489 H474 0.930 . S
C489 C484 1.390 . S
C489 C488 1.387 . S
H490 C502 0.930 . S
H491 C504 0.930 . S
H492 C505 0.930 . S
H493 C509 0.959 . S
H494 C509 0.959 . S
H495 C509 0.961 . S
H496 C510 0.960 . S
H497 C510 0.961 . S
H498 C510 0.959 . S
H499 C513 0.929 . S
H500 C514 0.931 . S
H501 C516 0.930 . S
C502 H490 0.930 . S
C502 C503 1.399 . S
C502 C507 1.399 . S
C503 C502 1.399 . S
C503 C504 1.376 . S
C504 H491 0.930 . S
C504 C503 1.376 . S
C504 C505 1.388 . S
C505 H492 0.930 . S
C505 C504 1.388 . S
C505 C506 1.390 . S
C506 C505 1.390 . S
C506 C507 1.394 . S
C506 C512 1.465 . S
C507 C502 1.399 . S
C507 C506 1.394 . S
C507 C508 1.516 . S
C508 C507 1.516 . S
C508 C509 1.502 . S
C508 C510 1.561 . S
C508 C511 1.526 . S
C509 H493 0.959 . S
C509 H494 0.959 . S
C509 H495 0.961 . S
C509 C508 1.502 . S
C510 H496 0.960 . S
C510 H497 0.961 . S
C510 H498 0.959 . S
C510 C508 1.561 . S
C511 C508 1.526 . S
C511 C512 1.396 . S
C511 C516 1.390 . S
C512 C506 1.465 . S
C512 C511 1.396 . S
C512 C513 1.399 . S
C513 H499 0.929 . S
C513 C512 1.399 . S
C513 C514 1.385 . S
C514 H500 0.931 . S
C514 C513 1.385 . S
C514 C515 1.389 . S
C515 C514 1.389 . S
C515 C516 1.387 . S
C516 H501 0.930 . S
C516 C511 1.390 . S
C516 C515 1.387 . S
H517 C529 0.930 . S
H518 C531 0.930 . S
H519 C532 0.930 . S
H520 C536 0.959 . S
H521 C536 0.959 . S
H522 C536 0.961 . S
H523 C537 0.960 . S
H524 C537 0.961 . S
H525 C537 0.959 . S
H526 C540 0.929 . S
H527 C541 0.931 . S
H528 C543 0.930 . S
C529 H517 0.930 . S
C529 C530 1.399 . S
C529 C534 1.399 . S
C530 C529 1.399 . S
C530 C531 1.376 . S
C531 H518 0.930 . S
C531 C530 1.376 . S
C531 C532 1.388 . S
C532 H519 0.930 . S
C532 C531 1.388 . S
C532 C533 1.390 . S
C533 C532 1.390 . S
C533 C534 1.394 . S
C533 C539 1.465 . S
C534 C529 1.399 . S
C534 C533 1.394 . S
C534 C535 1.516 . S
C535 C534 1.516 . S
C535 C536 1.502 . S
C535 C537 1.561 . S
C535 C538 1.526 . S
C536 H520 0.959 . S
C536 H521 0.959 . S
C536 H522 0.961 . S
C536 C535 1.502 . S
C537 H523 0.960 . S
C537 H524 0.961 . S
C537 H525 0.959 . S
C537 C535 1.561 . S
C538 C535 1.526 . S
C538 C539 1.396 . S
C538 C543 1.390 . S
C539 C533 1.465 . S
C539 C538 1.396 . S
C539 C540 1.399 . S
C540 H526 0.929 . S
C540 C539 1.399 . S
C540 C541 1.385 . S
C541 H527 0.931 . S
C541 C540 1.385 . S
C541 C542 1.389 . S
C542 C541 1.389 . S
C542 C543 1.387 . S
C543 H528 0.930 . S
C543 C538 1.390 . S
C543 C542 1.387 . S
C125 C13 1.176 . S
C137 C36 1.146 . S
C152 C50 1.117 . S
C164 C27 1.203 . S
C179 C41 1.131 . S
C191 C8 1.185 . S
C206 C55 1.179 . S
C218 C22 1.144 . S
C233 C92 1.148 . S
C245 C69 1.199 . S
C260 C83 1.097 . S
C272 C106 1.214 . S
C287 C97 1.195 . S
C299 C64 1.156 . S
C314 C111 1.090 . S
C326 C78 1.200 . S
C341 C7 1.511 . S
C353 C63 1.497 . S
C368 C21 1.494 . S
C380 C77 1.514 . S
C395 C35 1.523 . S
C407 C91 1.488 . S
C422 C105 1.506 . S
C434 C49 1.514 . S
C449 C11 1.517 . S
C461 C25 1.496 . S
C476 C53 1.506 . S
C488 C39 1.518 . S
C503 C81 1.519 . S
C515 C67 1.510 . S
C530 C95 1.519 . S
C542 C109 1.510 . S
