# Generated by pormake.
# Topology yfl, (5)-cn, num edge types: 1
# Building blocks:
#     Node 0, Type 0, BuildingBlock: BEQFEK_clean_sbu_0, # of connection points: 5
#     Node 1, Type 0, BuildingBlock: BEQFEK_clean_sbu_0, # of connection points: 5
#     Node 2, Type 0, BuildingBlock: BEQFEK_clean_sbu_0, # of connection points: 5
#     Node 3, Type 0, BuildingBlock: BEQFEK_clean_sbu_0, # of connection points: 5
#     Node 4, Type 0, BuildingBlock: BEQFEK_clean_sbu_0, # of connection points: 5
#     Node 5, Type 0, BuildingBlock: BEQFEK_clean_sbu_0, # of connection points: 5
#     Node 6, Type 0, BuildingBlock: BEQFEK_clean_sbu_0, # of connection points: 5
#     Node 7, Type 0, BuildingBlock: BEQFEK_clean_sbu_0, # of connection points: 5
#     Node 8, Type 0, BuildingBlock: BEQFEK_clean_sbu_0, # of connection points: 5
#     Node 9, Type 0, BuildingBlock: BEQFEK_clean_sbu_0, # of connection points: 5
#     Node 10, Type 0, BuildingBlock: BEQFEK_clean_sbu_0, # of connection points: 5
#     Node 11, Type 0, BuildingBlock: BEQFEK_clean_sbu_0, # of connection points: 5
#     Node 12, Type 0, BuildingBlock: BEQFEK_clean_sbu_0, # of connection points: 5
#     Node 13, Type 0, BuildingBlock: BEQFEK_clean_sbu_0, # of connection points: 5
#     Node 14, Type 0, BuildingBlock: BEQFEK_clean_sbu_0, # of connection points: 5
#     Node 15, Type 0, BuildingBlock: BEQFEK_clean_sbu_0, # of connection points: 5
#     Edge 16, Type (0, 0), BuildingBlock: XIVTED_clean_linker_0, # of connection points: 2
#     Edge 17, Type (0, 0), BuildingBlock: XIVTED_clean_linker_0, # of connection points: 2
#     Edge 18, Type (0, 0), BuildingBlock: XIVTED_clean_linker_0, # of connection points: 2
#     Edge 19, Type (0, 0), BuildingBlock: XIVTED_clean_linker_0, # of connection points: 2
#     Edge 20, Type (0, 0), BuildingBlock: XIVTED_clean_linker_0, # of connection points: 2
#     Edge 21, Type (0, 0), BuildingBlock: XIVTED_clean_linker_0, # of connection points: 2
#     Edge 22, Type (0, 0), BuildingBlock: XIVTED_clean_linker_0, # of connection points: 2
#     Edge 23, Type (0, 0), BuildingBlock: XIVTED_clean_linker_0, # of connection points: 2
#     Edge 24, Type (0, 0), BuildingBlock: XIVTED_clean_linker_0, # of connection points: 2
#     Edge 25, Type (0, 0), BuildingBlock: XIVTED_clean_linker_0, # of connection points: 2
#     Edge 26, Type (0, 0), BuildingBlock: XIVTED_clean_linker_0, # of connection points: 2
#     Edge 27, Type (0, 0), BuildingBlock: XIVTED_clean_linker_0, # of connection points: 2
#     Edge 28, Type (0, 0), BuildingBlock: XIVTED_clean_linker_0, # of connection points: 2
#     Edge 29, Type (0, 0), BuildingBlock: XIVTED_clean_linker_0, # of connection points: 2
#     Edge 30, Type (0, 0), BuildingBlock: XIVTED_clean_linker_0, # of connection points: 2
#     Edge 31, Type (0, 0), BuildingBlock: XIVTED_clean_linker_0, # of connection points: 2
#     Edge 32, Type (0, 0), BuildingBlock: XIVTED_clean_linker_0, # of connection points: 2
#     Edge 33, Type (0, 0), BuildingBlock: XIVTED_clean_linker_0, # of connection points: 2
#     Edge 34, Type (0, 0), BuildingBlock: XIVTED_clean_linker_0, # of connection points: 2
#     Edge 35, Type (0, 0), BuildingBlock: XIVTED_clean_linker_0, # of connection points: 2
#     Edge 36, Type (0, 0), BuildingBlock: XIVTED_clean_linker_0, # of connection points: 2
#     Edge 37, Type (0, 0), BuildingBlock: XIVTED_clean_linker_0, # of connection points: 2
#     Edge 38, Type (0, 0), BuildingBlock: XIVTED_clean_linker_0, # of connection points: 2
#     Edge 39, Type (0, 0), BuildingBlock: XIVTED_clean_linker_0, # of connection points: 2
#     Edge 40, Type (0, 0), BuildingBlock: XIVTED_clean_linker_0, # of connection points: 2
#     Edge 41, Type (0, 0), BuildingBlock: XIVTED_clean_linker_0, # of connection points: 2
#     Edge 42, Type (0, 0), BuildingBlock: XIVTED_clean_linker_0, # of connection points: 2
#     Edge 43, Type (0, 0), BuildingBlock: XIVTED_clean_linker_0, # of connection points: 2
#     Edge 44, Type (0, 0), BuildingBlock: XIVTED_clean_linker_0, # of connection points: 2
#     Edge 45, Type (0, 0), BuildingBlock: XIVTED_clean_linker_0, # of connection points: 2
#     Edge 46, Type (0, 0), BuildingBlock: XIVTED_clean_linker_0, # of connection points: 2
#     Edge 47, Type (0, 0), BuildingBlock: XIVTED_clean_linker_0, # of connection points: 2
#     Edge 48, Type (0, 0), BuildingBlock: XIVTED_clean_linker_0, # of connection points: 2
#     Edge 49, Type (0, 0), BuildingBlock: XIVTED_clean_linker_0, # of connection points: 2
#     Edge 50, Type (0, 0), BuildingBlock: XIVTED_clean_linker_0, # of connection points: 2
#     Edge 51, Type (0, 0), BuildingBlock: XIVTED_clean_linker_0, # of connection points: 2
#     Edge 52, Type (0, 0), BuildingBlock: XIVTED_clean_linker_0, # of connection points: 2
#     Edge 53, Type (0, 0), BuildingBlock: XIVTED_clean_linker_0, # of connection points: 2
#     Edge 54, Type (0, 0), BuildingBlock: XIVTED_clean_linker_0, # of connection points: 2
#     Edge 55, Type (0, 0), BuildingBlock: XIVTED_clean_linker_0, # of connection points: 2
# Relax obj value: 0.265
# Max RMSD: 0.177
# Mean RMSD: 0.177
data_MOF--net-yfl--node1-BEQFEK_clean_sbu_0--edge1-XIVTED_clean_linker_0
_symmetry_space_group_name_H-M    P1
_symmetry_Int_Tables_number       1
_symmetry_cell_setting            triclinic
loop_
_symmetry_equiv_pos_as_xyz
'x, y, z'
_cell_length_a     30.289868
_cell_length_b     30.278473
_cell_length_c     114.56138
_cell_angle_alpha  90.026992
_cell_angle_beta   90.027126
_cell_angle_gamma 90.017264
loop_
_atom_site_label
_atom_site_type_symbol
_atom_site_fract_x
_atom_site_fract_y
_atom_site_fract_z
_atom_type_partial_charge
Co0 Co 0.01545 0.261 0.29066 0.0
Co1 Co 0.10058 0.26412 0.30615 0.0
C2 C 0.03534 0.33792 0.30635 0.0
O3 O 0.01074 0.31774 0.29909 0.0
O4 O 0.07159 0.32124 0.30986 0.0
C5 C 0.92399 0.26973 0.2844 0.0
O6 O 0.92053 0.28975 0.29454 0.0
C7 C 0.154 0.26988 0.32733 0.0
C8 C 0.21287 0.23072 0.32254 0.0
C9 C 0.19373 0.25407 0.33162 0.0
N10 N 0.14985 0.25649 0.31621 0.0
N11 N 0.18539 0.23363 0.31334 0.0
C12 C 0.11818 0.29278 0.33399 0.0
H13 H 0.12277 0.32902 0.3332 0.0
H14 H 0.08539 0.28409 0.33033 0.0
H15 H 0.1192 0.28377 0.34337 0.0
C16 C 0.00382 0.17622 0.30278 0.0
N17 N 0.02554 0.21438 0.30109 0.0
N18 N 0.06064 0.21565 0.30785 0.0
C19 C 0.06192 0.17831 0.31426 0.0
C20 C 0.02599 0.15207 0.31126 0.0
C21 C 0.96569 0.16152 0.29541 0.0
H22 H 0.97136 0.17119 0.2862 0.0
H23 H 0.93524 0.17824 0.29848 0.0
H24 H 0.96079 0.12527 0.29578 0.0
O25 O 0.06364 0.26461 0.27921 0.0
O26 O 0.12435 0.2676 0.29001 0.0
H27 H 0.12873 0.16259 0.31862 0.0
H28 H 0.08834 0.13836 0.32833 0.0
C29 C 0.09677 0.16803 0.32311 0.0
H30 H 0.10052 0.19636 0.32914 0.0
H31 H 0.1902 0.21881 0.30521 0.0
O32 O 0.96083 0.25314 0.28145 0.0
C33 C 0.1054 0.26734 0.28009 0.0
Co34 Co 0.26265 0.9749 0.70465 0.0
Co35 Co 0.26797 0.89034 0.68888 0.0
C36 C 0.34053 0.95705 0.68928 0.0
O37 O 0.31956 0.98127 0.69645 0.0
O38 O 0.32477 0.92051 0.68572 0.0
C39 C 0.26932 0.0664 0.71065 0.0
O40 O 0.28788 0.0697 0.70032 0.0
C41 C 0.27581 0.83934 0.6673 0.0
C42 C 0.23669 0.77964 0.67136 0.0
C43 C 0.2598 0.80043 0.66249 0.0
N44 N 0.26172 0.84195 0.6784 0.0
N45 N 0.23895 0.80589 0.68083 0.0
C46 C 0.30514 0.87309 0.6617 0.0
H47 H 0.33505 0.87761 0.66714 0.0
H48 H 0.28765 0.90525 0.6613 0.0
H49 H 0.31604 0.86306 0.65287 0.0
C50 C 0.17874 0.986 0.69207 0.0
N51 N 0.21692 0.96459 0.69396 0.0
N52 N 0.21921 0.92986 0.68708 0.0
C53 C 0.18258 0.9286 0.68038 0.0
C54 C 0.15571 0.96408 0.68334 0.0
C55 C 0.16298 0.02372 0.69944 0.0
H56 H 0.17247 0.01822 0.70867 0.0
H57 H 0.17904 0.0546 0.69641 0.0
H58 H 0.12665 0.02776 0.69896 0.0
O59 O 0.26649 0.92599 0.71593 0.0
O60 O 0.27039 0.86568 0.70495 0.0
H61 H 0.16842 0.86193 0.67549 0.0
H62 H 0.14432 0.90279 0.66589 0.0
C63 C 0.17367 0.8944 0.67124 0.0
H64 H 0.20255 0.8918 0.66537 0.0
H65 H 0.22385 0.79981 0.68886 0.0
O66 O 0.25389 0.02936 0.71388 0.0
C67 C 0.26956 0.88425 0.71493 0.0
Co68 Co 0.96676 0.72805 0.28858 0.0
Co69 Co 0.88271 0.72181 0.3044 0.0
C70 C 0.95109 0.65095 0.30452 0.0
O71 O 0.97442 0.67197 0.29714 0.0
O72 O 0.91417 0.66594 0.30806 0.0
C73 C 0.0584 0.72366 0.28245 0.0
O74 O 0.0626 0.70548 0.2928 0.0
C75 C 0.83129 0.71457 0.32587 0.0
C76 C 0.77086 0.75187 0.32142 0.0
C77 C 0.79158 0.72939 0.33041 0.0
N78 N 0.83393 0.72771 0.3147 0.0
N79 N 0.79744 0.7494 0.31203 0.0
C80 C 0.86846 0.69308 0.33234 0.0
H81 H 0.9006 0.70283 0.32849 0.0
H82 H 0.86795 0.70224 0.34172 0.0
H83 H 0.86508 0.65669 0.33161 0.0
C84 C 0.97645 0.8129 0.30082 0.0
N85 N 0.95552 0.77437 0.29902 0.0
N86 N 0.9209 0.77182 0.30592 0.0
C87 C 0.91912 0.80874 0.31251 0.0
C88 C 0.95429 0.83595 0.30949 0.0
C89 C 0.01425 0.82874 0.2935 0.0
H90 H 0.00888 0.81923 0.28427 0.0
H91 H 0.04509 0.81271 0.29657 0.0
H92 H 0.01821 0.86509 0.29399 0.0
O93 O 0.91803 0.72237 0.2773 0.0
O94 O 0.8581 0.71737 0.28834 0.0
H95 H 0.85224 0.82151 0.31741 0.0
H96 H 0.89262 0.84739 0.32684 0.0
C97 C 0.88491 0.81746 0.32165 0.0
H98 H 0.88314 0.78895 0.32767 0.0
H99 H 0.79143 0.76389 0.30392 0.0
O100 O 0.02079 0.7377 0.27924 0.0
C101 C 0.87643 0.71821 0.27835 0.0
Co102 Co 0.73331 0.01977 0.70531 0.0
Co103 Co 0.72698 0.10518 0.68996 0.0
C104 C 0.65516 0.03758 0.69005 0.0
O105 O 0.67635 0.01311 0.69712 0.0
O106 O 0.6706 0.07448 0.68667 0.0
C107 C 0.72781 0.92798 0.71092 0.0
O108 O 0.70903 0.92508 0.70061 0.0
C109 C 0.71843 0.15652 0.66851 0.0
C110 C 0.75681 0.21665 0.67263 0.0
C111 C 0.73403 0.19562 0.66373 0.0
N112 N 0.73245 0.15401 0.67961 0.0
N113 N 0.75477 0.19034 0.68209 0.0
C114 C 0.68963 0.12241 0.66286 0.0
H115 H 0.65949 0.11781 0.6682 0.0
H116 H 0.70737 0.09036 0.66256 0.0
H117 H 0.67903 0.13212 0.65397 0.0
C118 C 0.81705 0.01007 0.69261 0.0
N119 N 0.77882 0.03116 0.69466 0.0
N120 N 0.77618 0.06634 0.68795 0.0
C121 C 0.81265 0.06825 0.68121 0.0
C122 C 0.83975 0.03269 0.68395 0.0
C123 C 0.83314 0.97186 0.69973 0.0
H124 H 0.82415 0.9768 0.70902 0.0
H125 H 0.81686 0.9412 0.69662 0.0
H126 H 0.86944 0.9678 0.69912 0.0
O127 O 0.72909 0.06794 0.71681 0.0
O128 O 0.72435 0.12896 0.70614 0.0
H129 H 0.82575 0.13537 0.67657 0.0
H130 H 0.85064 0.09539 0.66686 0.0
C131 C 0.82111 0.10302 0.67221 0.0
H132 H 0.79227 0.1054 0.66631 0.0
H133 H 0.76978 0.19652 0.69013 0.0
O134 O 0.74293 0.96499 0.7143 0.0
C135 C 0.72552 0.10971 0.71603 0.0
Co136 Co 0.01896 0.23248 0.95502 0.0
Co137 Co 0.10331 0.22809 0.9393 0.0
C138 C 0.03738 0.15512 0.93931 0.0
O139 O 0.01335 0.17579 0.9466 0.0
O140 O 0.07383 0.17106 0.93572 0.0
C141 C 0.92687 0.22687 0.96062 0.0
O142 O 0.92368 0.20835 0.95028 0.0
C143 C 0.15646 0.22203 0.9181 0.0
C144 C 0.21482 0.26229 0.92273 0.0
C145 C 0.19577 0.23848 0.91371 0.0
N146 N 0.15242 0.23555 0.92921 0.0
N147 N 0.18769 0.25903 0.93199 0.0
C148 C 0.1208 0.1985 0.91151 0.0
H149 H 0.08796 0.20709 0.91515 0.0
H150 H 0.1217 0.20706 0.9021 0.0
H151 H 0.12568 0.16235 0.91243 0.0
C152 C 0.00749 0.31683 0.94272 0.0
N153 N 0.02912 0.2787 0.94449 0.0
N154 N 0.06372 0.27678 0.93758 0.0
C155 C 0.0647 0.31365 0.93097 0.0
C156 C 0.0291 0.34022 0.93401 0.0
C157 C 0.96989 0.33227 0.95017 0.0
H158 H 0.97565 0.32256 0.95937 0.0
H159 H 0.939 0.31621 0.94714 0.0
H160 H 0.96575 0.36861 0.94979 0.0
O161 O 0.06736 0.22871 0.96646 0.0
O162 O 0.12736 0.22489 0.95541 0.0
H163 H 0.13114 0.32886 0.92613 0.0
H164 H 0.08998 0.35237 0.91652 0.0
C165 C 0.09879 0.32311 0.92185 0.0
H166 H 0.10191 0.29429 0.91597 0.0
H167 H 0.19243 0.27417 0.94008 0.0
O168 O 0.96413 0.2411 0.96406 0.0
C169 C 0.10905 0.22559 0.96541 0.0
Co170 Co 0.22976 0.97431 0.038 0.0
Co171 Co 0.22622 0.89118 0.05434 0.0
C172 C 0.1528 0.95691 0.05389 0.0
O173 O 0.17291 0.98031 0.04635 0.0
O174 O 0.1695 0.92124 0.05777 0.0
C175 C 0.22423 0.06594 0.03201 0.0
O176 O 0.20655 0.06972 0.04243 0.0
C177 C 0.2212 0.83869 0.07593 0.0
C178 C 0.26424 0.7821 0.07157 0.0
C179 C 0.24008 0.80072 0.08057 0.0
N180 N 0.23478 0.8429 0.06481 0.0
N181 N 0.25988 0.80859 0.06221 0.0
C182 C 0.18982 0.86997 0.08173 0.0
H183 H 0.16149 0.87638 0.07587 0.0
H184 H 0.20677 0.90186 0.08338 0.0
H185 H 0.17668 0.85646 0.09002 0.0
C186 C 0.31415 0.9876 0.05022 0.0
N187 N 0.27625 0.96537 0.04855 0.0
N188 N 0.27467 0.93138 0.05569 0.0
C189 C 0.31142 0.93153 0.06235 0.0
C190 C 0.33767 0.9671 0.05909 0.0
C191 C 0.32919 0.02484 0.04259 0.0
H192 H 0.31965 0.01829 0.03341 0.0
H193 H 0.31275 0.05576 0.04545 0.0
H194 H 0.36547 0.02947 0.043 0.0
O195 O 0.22601 0.9248 0.02691 0.0
O196 O 0.22227 0.8657 0.03832 0.0
H197 H 0.32802 0.86623 0.0679 0.0
H198 H 0.34927 0.90926 0.0773 0.0
C199 C 0.32083 0.8989 0.07184 0.0
H200 H 0.2915 0.89567 0.07753 0.0
H201 H 0.27521 0.80403 0.05414 0.0
O202 O 0.23798 0.02843 0.02863 0.0
C203 C 0.22275 0.8832 0.02821 0.0
Co204 Co 0.96953 0.76422 0.95556 0.0
Co205 Co 0.88513 0.77003 0.93982 0.0
C206 C 0.95328 0.84138 0.93975 0.0
O207 O 0.97692 0.82055 0.94709 0.0
O208 O 0.91652 0.82597 0.9362 0.0
C209 C 0.06141 0.76826 0.96165 0.0
O210 O 0.06557 0.78668 0.95133 0.0
C211 C 0.83511 0.77404 0.91808 0.0
C212 C 0.77039 0.74689 0.92336 0.0
C213 C 0.7936 0.76285 0.91382 0.0
N214 N 0.83619 0.76487 0.92954 0.0
N215 N 0.7973 0.74917 0.93269 0.0
C216 C 0.87475 0.78891 0.91134 0.0
H217 H 0.90548 0.7812 0.91621 0.0
H218 H 0.87584 0.7727 0.90265 0.0
H219 H 0.87306 0.8252 0.91007 0.0
C220 C 0.97908 0.67935 0.94331 0.0
N221 N 0.95822 0.71792 0.94506 0.0
N222 N 0.92306 0.71997 0.93833 0.0
C223 C 0.92058 0.68249 0.93198 0.0
C224 C 0.95614 0.65565 0.9349 0.0
C225 C 0.01746 0.66399 0.95049 0.0
H226 H 0.01191 0.67253 0.95979 0.0
H227 H 0.04774 0.68129 0.94752 0.0
H228 H 0.02257 0.62784 0.94978 0.0
O229 O 0.92079 0.76963 0.9669 0.0
O230 O 0.86082 0.7741 0.95585 0.0
H231 H 0.85229 0.67389 0.92772 0.0
H232 H 0.88927 0.63998 0.91911 0.0
C233 C 0.88488 0.67263 0.92332 0.0
H234 H 0.88536 0.698 0.91638 0.0
H235 H 0.7895 0.73899 0.94114 0.0
O236 O 0.02373 0.75441 0.96487 0.0
C237 C 0.87914 0.77342 0.96585 0.0
Co238 Co 0.76095 0.02319 0.03811 0.0
Co239 Co 0.76685 0.10804 0.05363 0.0
C240 C 0.83901 0.04115 0.0536 0.0
O241 O 0.81776 0.01721 0.0464 0.0
O242 O 0.8237 0.07793 0.05716 0.0
C243 C 0.76529 0.93085 0.03286 0.0
O244 O 0.78302 0.92803 0.0433 0.0
C245 C 0.77388 0.16109 0.07482 0.0
C246 C 0.7349 0.22031 0.07022 0.0
C247 C 0.75818 0.20067 0.07923 0.0
N248 N 0.76045 0.15745 0.06369 0.0
N249 N 0.73777 0.19324 0.06092 0.0
C250 C 0.79647 0.12485 0.0814 0.0
H251 H 0.7873 0.09223 0.0777 0.0
H252 H 0.78772 0.12578 0.0908 0.0
H253 H 0.83273 0.129 0.08055 0.0
C254 C 0.67697 0.01287 0.05066 0.0
N255 N 0.71521 0.03413 0.04873 0.0
N256 N 0.7176 0.06913 0.05551 0.0
C257 C 0.68082 0.07088 0.06214 0.0
C258 C 0.65393 0.03526 0.0593 0.0
C259 C 0.66116 0.97472 0.04346 0.0
H260 H 0.6702 0.97994 0.03418 0.0
H261 H 0.67759 0.9441 0.04652 0.0
H262 H 0.62489 0.97041 0.04405 0.0
O263 O 0.76485 0.07124 0.02656 0.0
O264 O 0.76977 0.1316 0.03747 0.0
H265 H 0.66705 0.13801 0.06664 0.0
H266 H 0.64186 0.09807 0.07631 0.0
C267 C 0.67166 0.10578 0.07107 0.0
H268 H 0.70017 0.10854 0.07707 0.0
H269 H 0.72282 0.19836 0.05283 0.0
O270 O 0.75172 0.96808 0.02922 0.0
C271 C 0.76849 0.11295 0.02751 0.0
Co272 Co 0.51652 0.76773 0.78973 0.0
Co273 Co 0.60405 0.76546 0.8043 0.0
C274 C 0.53662 0.83815 0.8068 0.0
O275 O 0.51093 0.82058 0.79936 0.0
O276 O 0.5738 0.82099 0.80932 0.0
C277 C 0.42535 0.77843 0.78328 0.0
O278 O 0.42232 0.79928 0.79331 0.0
C279 C 0.65111 0.75583 0.82626 0.0
C280 C 0.72093 0.7552 0.82068 0.0
C281 C 0.69402 0.75421 0.83045 0.0
N282 N 0.6526 0.75744 0.81456 0.0
N283 N 0.69438 0.75673 0.81125 0.0
C284 C 0.60944 0.75995 0.83321 0.0
H285 H 0.58144 0.76984 0.82755 0.0
H286 H 0.60131 0.72764 0.83721 0.0
H287 H 0.61391 0.78434 0.84035 0.0
C288 C 0.50475 0.68116 0.80055 0.0
N289 N 0.52751 0.71879 0.79925 0.0
N290 N 0.56546 0.71574 0.80478 0.0
C291 C 0.56891 0.67484 0.80936 0.0
C292 C 0.53041 0.65163 0.80684 0.0
C293 C 0.45902 0.67433 0.79592 0.0
H294 H 0.43896 0.70425 0.79759 0.0
H295 H 0.44258 0.64568 0.8001 0.0
H296 H 0.46055 0.66908 0.78634 0.0
O297 O 0.56487 0.77507 0.7782 0.0
O298 O 0.62727 0.77356 0.78837 0.0
H299 H 0.61266 0.62042 0.81321 0.0
H300 H 0.60994 0.66277 0.82419 0.0
C301 C 0.61026 0.65658 0.81465 0.0
H302 H 0.63967 0.6728 0.81083 0.0
H303 H 0.70479 0.75855 0.80258 0.0
O304 O 0.46185 0.76082 0.7804 0.0
C305 C 0.60685 0.77673 0.7787 0.0
Co306 Co 0.76723 0.47123 0.20364 0.0
Co307 Co 0.77238 0.38467 0.18874 0.0
C308 C 0.84221 0.45469 0.18741 0.0
O309 O 0.82206 0.47896 0.19473 0.0
O310 O 0.82725 0.417 0.18444 0.0
C311 C 0.7711 0.56322 0.20976 0.0
O312 O 0.79085 0.5675 0.19962 0.0
C313 C 0.77661 0.33434 0.16719 0.0
C314 C 0.74676 0.27044 0.17216 0.0
C315 C 0.76447 0.29347 0.16283 0.0
N316 N 0.7667 0.33546 0.1786 0.0
N317 N 0.74936 0.29701 0.18157 0.0
C318 C 0.79285 0.37345 0.16046 0.0
H319 H 0.78174 0.40451 0.16468 0.0
H320 H 0.78087 0.37248 0.1513 0.0
H321 H 0.82948 0.3731 0.16038 0.0
C322 C 0.68205 0.47908 0.19162 0.0
N323 N 0.7208 0.45866 0.19339 0.0
N324 N 0.72194 0.42182 0.18729 0.0
C325 C 0.68328 0.41738 0.18157 0.0
C326 C 0.6571 0.45378 0.18401 0.0
C327 C 0.66745 0.51927 0.19817 0.0
H328 H 0.69021 0.54696 0.19619 0.0
H329 H 0.63327 0.52909 0.19585 0.0
H330 H 0.66935 0.51269 0.20769 0.0
O331 O 0.77419 0.42332 0.21524 0.0
O332 O 0.7781 0.36165 0.20484 0.0
H333 H 0.63548 0.3799 0.17157 0.0
H334 H 0.69222 0.37376 0.16711 0.0
C335 C 0.67002 0.37741 0.17474 0.0
H336 H 0.67345 0.3476 0.18028 0.0
H337 H 0.7381 0.28942 0.18994 0.0
O338 O 0.75659 0.52557 0.2128 0.0
C339 C 0.77815 0.38153 0.21463 0.0
Co340 Co 0.47614 0.22151 0.79055 0.0
Co341 Co 0.38944 0.2196 0.80543 0.0
C342 C 0.45646 0.14716 0.80683 0.0
O343 O 0.48138 0.1661 0.79942 0.0
O344 O 0.41964 0.1639 0.80985 0.0
C345 C 0.56796 0.21389 0.78437 0.0
O346 O 0.57133 0.19248 0.7943 0.0
C347 C 0.33704 0.21683 0.82668 0.0
C348 C 0.27518 0.24985 0.82132 0.0
C349 C 0.29632 0.23067 0.83077 0.0
N350 N 0.33985 0.22722 0.81532 0.0
N351 N 0.3026 0.24646 0.81211 0.0
C352 C 0.37459 0.19845 0.83364 0.0
H353 H 0.40656 0.20817 0.82968 0.0
H354 H 0.37328 0.21015 0.84282 0.0
H355 H 0.37242 0.16186 0.83362 0.0
C356 C 0.48712 0.30632 0.80268 0.0
N357 N 0.4652 0.2684 0.80083 0.0
N358 N 0.42842 0.26848 0.80694 0.0
C359 C 0.42556 0.30701 0.81278 0.0
C360 C 0.46284 0.33197 0.81036 0.0
C361 C 0.52765 0.31961 0.79609 0.0
H362 H 0.52099 0.31753 0.78658 0.0
H363 H 0.55469 0.29614 0.79812 0.0
H364 H 0.53846 0.35359 0.79831 0.0
O365 O 0.4283 0.21636 0.77884 0.0
O366 O 0.36676 0.2144 0.7893 0.0
H367 H 0.35644 0.32014 0.81432 0.0
H368 H 0.39081 0.35498 0.8234 0.0
C369 C 0.3865 0.32116 0.81984 0.0
H370 H 0.38189 0.29796 0.82721 0.0
H371 H 0.29643 0.2584 0.80373 0.0
O372 O 0.53101 0.23047 0.78149 0.0
C373 C 0.38644 0.21369 0.77949 0.0
Co374 Co 0.22136 0.51485 0.20471 0.0
Co375 Co 0.22694 0.60079 0.18951 0.0
C376 C 0.15135 0.53618 0.1876 0.0
O377 O 0.16806 0.5105 0.19517 0.0
O378 O 0.17009 0.57231 0.18478 0.0
C379 C 0.20832 0.42448 0.21159 0.0
O380 O 0.18768 0.42118 0.20154 0.0
C381 C 0.23757 0.64599 0.16717 0.0
C382 C 0.25027 0.71482 0.17262 0.0
C383 C 0.24553 0.68818 0.16284 0.0
N384 N 0.23789 0.64785 0.17889 0.0
N385 N 0.24566 0.68902 0.1821 0.0
C386 C 0.22744 0.60482 0.16043 0.0
H387 H 0.21261 0.57934 0.16613 0.0
H388 H 0.25851 0.59099 0.15685 0.0
H389 H 0.20481 0.61224 0.15307 0.0
C390 C 0.30754 0.49883 0.19404 0.0
N391 N 0.27069 0.52298 0.19515 0.0
N392 N 0.27498 0.5601 0.1893 0.0
C393 C 0.31584 0.56149 0.18462 0.0
C394 C 0.33777 0.52258 0.18746 0.0
C395 C 0.31312 0.45367 0.19915 0.0
H396 H 0.31758 0.4565 0.20874 0.0
H397 H 0.28298 0.43392 0.19748 0.0
H398 H 0.34176 0.43609 0.19531 0.0
O399 O 0.21577 0.56456 0.21586 0.0
O400 O 0.21933 0.62601 0.20532 0.0
H401 H 0.32215 0.63186 0.18295 0.0
H402 H 0.37179 0.6016 0.17955 0.0
C403 C 0.33526 0.6014 0.17886 0.0
H404 H 0.32609 0.6014 0.16949 0.0
H405 H 0.24727 0.69959 0.19076 0.0
O406 O 0.22643 0.46088 0.21436 0.0
C407 C 0.21536 0.60653 0.21512 0.0
Co408 Co 0.52134 0.72983 0.45534 0.0
Co409 Co 0.60587 0.7247 0.43968 0.0
C410 C 0.53922 0.65218 0.43974 0.0
O411 O 0.51519 0.67306 0.44699 0.0
O412 O 0.57582 0.66788 0.43618 0.0
C413 C 0.42918 0.72536 0.46093 0.0
O414 O 0.42582 0.707 0.45058 0.0
C415 C 0.65844 0.718 0.41839 0.0
C416 C 0.71816 0.75612 0.42306 0.0
C417 C 0.69822 0.7333 0.414 0.0
N418 N 0.65502 0.73122 0.42954 0.0
N419 N 0.69108 0.75341 0.43234 0.0
C420 C 0.62192 0.69589 0.41179 0.0
H421 H 0.58948 0.70461 0.41565 0.0
H422 H 0.6224 0.70555 0.40245 0.0
H423 H 0.62623 0.65957 0.41238 0.0
C424 C 0.51045 0.81399 0.44287 0.0
N425 N 0.53192 0.77583 0.44475 0.0
N426 N 0.56676 0.77372 0.43791 0.0
C427 C 0.56819 0.81057 0.4313 0.0
C428 C 0.53252 0.83724 0.43422 0.0
C429 C 0.47241 0.82954 0.45014 0.0
H430 H 0.478 0.82063 0.45941 0.0
H431 H 0.44184 0.81281 0.44714 0.0
H432 H 0.46778 0.86579 0.44954 0.0
O433 O 0.56979 0.72572 0.46679 0.0
O434 O 0.62987 0.72173 0.45578 0.0
H435 H 0.63519 0.8244 0.42672 0.0
H436 H 0.59503 0.84988 0.41716 0.0
C437 C 0.60285 0.81995 0.42234 0.0
H438 H 0.60541 0.79157 0.41628 0.0
H439 H 0.69647 0.76803 0.44047 0.0
O440 O 0.46659 0.73909 0.46439 0.0
C441 C 0.61149 0.72249 0.46577 0.0
Co442 Co 0.72956 0.47354 0.53849 0.0
Co443 Co 0.72483 0.38953 0.55442 0.0
C444 C 0.65107 0.45479 0.55361 0.0
O445 O 0.67181 0.47905 0.54639 0.0
O446 O 0.66763 0.41894 0.55739 0.0
C447 C 0.72448 0.56546 0.53293 0.0
O448 O 0.70676 0.56849 0.54337 0.0
C449 C 0.71728 0.33897 0.57606 0.0
C450 C 0.75691 0.27954 0.57209 0.0
C451 C 0.73364 0.30034 0.58093 0.0
N452 N 0.73133 0.34144 0.56496 0.0
N453 N 0.75441 0.30552 0.56258 0.0
C454 C 0.68772 0.37261 0.58162 0.0
H455 H 0.65796 0.3771 0.57613 0.0
H456 H 0.70514 0.40482 0.58208 0.0
H457 H 0.6766 0.36251 0.59043 0.0
C458 C 0.81306 0.48594 0.55123 0.0
N459 N 0.77501 0.46422 0.54935 0.0
N460 N 0.7729 0.4297 0.5563 0.0
C461 C 0.80944 0.42892 0.56304 0.0
C462 C 0.83613 0.46446 0.56003 0.0
C463 C 0.82891 0.52326 0.54374 0.0
H464 H 0.81962 0.51718 0.53452 0.0
H465 H 0.81275 0.55428 0.54663 0.0
H466 H 0.86522 0.52742 0.54425 0.0
O467 O 0.72716 0.4244 0.52721 0.0
O468 O 0.72331 0.36459 0.53837 0.0
H469 H 0.8241 0.36244 0.56798 0.0
H470 H 0.84789 0.40363 0.57754 0.0
C471 C 0.81861 0.39493 0.5722 0.0
H472 H 0.78976 0.3922 0.57808 0.0
H473 H 0.76957 0.2994 0.55456 0.0
O474 O 0.73831 0.5282 0.52938 0.0
C475 C 0.72445 0.38267 0.52833 0.0
Co476 Co 0.47373 0.26124 0.45593 0.0
Co477 Co 0.38989 0.26539 0.43996 0.0
C478 C 0.45596 0.33816 0.43998 0.0
O479 O 0.47961 0.31771 0.44741 0.0
O480 O 0.41965 0.32214 0.4363 0.0
C481 C 0.5657 0.26694 0.46171 0.0
O482 O 0.56911 0.28515 0.45134 0.0
C483 C 0.33652 0.2705 0.41871 0.0
C484 C 0.27796 0.23103 0.4236 0.0
C485 C 0.29695 0.25406 0.41445 0.0
N486 N 0.34074 0.25766 0.42987 0.0
N487 N 0.30535 0.23466 0.4328 0.0
C488 C 0.37215 0.29343 0.41198 0.0
H489 H 0.40497 0.2858 0.41578 0.0
H490 H 0.37162 0.28342 0.40266 0.0
H491 H 0.3668 0.32963 0.4125 0.0
C492 C 0.48566 0.17671 0.44364 0.0
N493 N 0.4638 0.21473 0.44543 0.0
N494 N 0.42938 0.21656 0.43844 0.0
C495 C 0.42867 0.17974 0.4318 0.0
C496 C 0.46432 0.15331 0.43488 0.0
C497 C 0.52352 0.16156 0.45104 0.0
H498 H 0.51774 0.17096 0.46027 0.0
H499 H 0.55417 0.17811 0.44804 0.0
H500 H 0.52813 0.12528 0.45056 0.0
O501 O 0.42497 0.2655 0.46728 0.0
O502 O 0.36554 0.26926 0.45601 0.0
H503 H 0.36235 0.16496 0.42673 0.0
H504 H 0.40378 0.14097 0.41729 0.0
C505 C 0.39495 0.17037 0.42257 0.0
H506 H 0.39235 0.19912 0.41665 0.0
H507 H 0.30066 0.22014 0.44097 0.0
O508 O 0.52836 0.25279 0.4651 0.0
C509 C 0.38335 0.26881 0.46607 0.0
Co510 Co 0.25778 0.52148 0.53715 0.0
Co511 Co 0.26548 0.605 0.55323 0.0
C512 C 0.3365 0.53694 0.5525 0.0
O513 O 0.31486 0.51376 0.54522 0.0
O514 O 0.32159 0.57351 0.55629 0.0
C515 C 0.26069 0.42965 0.53161 0.0
O516 O 0.27768 0.42644 0.54213 0.0
C517 C 0.27477 0.65557 0.57487 0.0
C518 C 0.23602 0.71563 0.57095 0.0
C519 C 0.25923 0.69452 0.57976 0.0
N520 N 0.2603 0.65324 0.5638 0.0
N521 N 0.23777 0.68953 0.56145 0.0
C522 C 0.30398 0.62151 0.58038 0.0
H523 H 0.33339 0.61634 0.5748 0.0
H524 H 0.28599 0.58964 0.58094 0.0
H525 H 0.31571 0.63162 0.58914 0.0
C526 C 0.1742 0.51135 0.54993 0.0
N527 N 0.21262 0.53224 0.54797 0.0
N528 N 0.21594 0.56648 0.555 0.0
C529 C 0.17974 0.56795 0.56185 0.0
C530 C 0.15212 0.53309 0.55886 0.0
C531 C 0.15733 0.47421 0.54253 0.0
H532 H 0.16669 0.47972 0.53329 0.0
H533 H 0.17266 0.44287 0.54548 0.0
H534 H 0.12092 0.47107 0.54306 0.0
O535 O 0.26218 0.57065 0.52595 0.0
O536 O 0.26816 0.63005 0.53721 0.0
H537 H 0.16706 0.63446 0.56714 0.0
H538 H 0.14292 0.59331 0.57663 0.0
C539 C 0.17204 0.6016 0.5712 0.0
H540 H 0.20136 0.60331 0.57695 0.0
H541 H 0.22244 0.69584 0.55346 0.0
O542 O 0.24769 0.4671 0.52798 0.0
C543 C 0.26644 0.61223 0.52714 0.0
H544 H 0.18952 0.30028 0.27831 0.0
H545 H 0.15908 0.34876 0.21038 0.0
H546 H 0.08026 0.25347 0.25748 0.0
H547 H 0.24994 0.41894 0.23275 0.0
H548 H 0.14375 0.29757 0.22635 0.0
H549 H 0.22519 0.32727 0.26052 0.0
C550 C 0.17347 0.2948 0.26998 0.0
C551 C 0.13141 0.27545 0.26939 0.0
C552 C 0.16756 0.32378 0.2277 0.0
C553 C 0.17191 0.30634 0.24907 0.0
C554 C 0.17641 0.35297 0.21858 0.0
C555 C 0.20507 0.38877 0.22033 0.0
C556 C 0.18754 0.33045 0.23863 0.0
C557 C 0.22694 0.39228 0.2311 0.0
C558 C 0.19377 0.31038 0.25984 0.0
C559 C 0.11229 0.269 0.25836 0.0
N560 N 0.21725 0.36387 0.2399 0.0
N561 N 0.13242 0.28493 0.24865 0.0
H562 H 0.34968 0.82765 0.78459 0.0
H563 H 0.30194 0.79984 0.71655 0.0
H564 H 0.41936 0.73694 0.76209 0.0
H565 H 0.25554 0.90865 0.7376 0.0
H566 H 0.32832 0.7633 0.73428 0.0
H567 H 0.29869 0.8437 0.76862 0.0
C568 C 0.35379 0.81045 0.77637 0.0
C569 C 0.38944 0.78167 0.77459 0.0
C570 C 0.31166 0.79482 0.73502 0.0
C571 C 0.33137 0.80007 0.75628 0.0
C572 C 0.29643 0.81563 0.72491 0.0
C573 C 0.27736 0.8578 0.72558 0.0
C574 C 0.30756 0.81629 0.74584 0.0
C575 C 0.27085 0.87654 0.73665 0.0
C576 C 0.32472 0.81974 0.76724 0.0
C577 C 0.39283 0.76002 0.76378 0.0
N578 N 0.28645 0.85593 0.74633 0.0
N579 N 0.36456 0.77015 0.75498 0.0
H580 H 0.81762 0.64067 0.2085 0.0
H581 H 0.79281 0.68373 0.27686 0.0
H582 H 0.73031 0.5671 0.23105 0.0
H583 H 0.89984 0.73293 0.25564 0.0
H584 H 0.75594 0.65745 0.25915 0.0
H585 H 0.8334 0.69105 0.22464 0.0
C586 C 0.80103 0.63562 0.21677 0.0
C587 C 0.77338 0.59903 0.21851 0.0
C588 C 0.78714 0.67468 0.25838 0.0
C589 C 0.79153 0.65636 0.23701 0.0
C590 C 0.80814 0.68982 0.26847 0.0
C591 C 0.84991 0.70973 0.26774 0.0
C592 C 0.80797 0.67974 0.2475 0.0
C593 C 0.86807 0.71697 0.25663 0.0
C594 C 0.8102 0.66431 0.22599 0.0
C595 C 0.75252 0.5944 0.22939 0.0
N596 N 0.84725 0.70151 0.24697 0.0
N597 N 0.76253 0.62233 0.23828 0.0
H598 H 0.57442 0.25894 0.76374 0.0
H599 H 0.74256 0.08474 0.73849 0.0
H600 H 0.64279 0.16319 0.785 0.0
H601 H 0.68975 0.19254 0.71818 0.0
H602 H 0.71605 0.12048 0.75622 0.0
H603 H 0.62533 0.24335 0.74776 0.0
C604 C 0.60064 0.23517 0.76512 0.0
C605 C 0.60378 0.21163 0.77564 0.0
C606 C 0.71088 0.13679 0.74792 0.0
C607 C 0.66186 0.19324 0.75732 0.0
C608 C 0.72599 0.11633 0.73778 0.0
C609 C 0.71761 0.13527 0.72682 0.0
C610 C 0.68654 0.17612 0.7471 0.0
C611 C 0.69656 0.17654 0.72644 0.0
C612 C 0.62975 0.2263 0.75598 0.0
C613 C 0.63876 0.18171 0.77699 0.0
N614 N 0.68095 0.19517 0.73642 0.0
N615 N 0.66592 0.17275 0.76786 0.0
H616 H 0.2653 0.07319 0.01085 0.0
H617 H 0.08569 0.23961 0.98817 0.0
H618 H 0.17441 0.1411 0.03364 0.0
H619 H 0.19323 0.1928 0.96677 0.0
H620 H 0.12432 0.21294 0.00546 0.0
H621 H 0.24701 0.12506 0.99529 0.0
C622 C 0.24206 0.09952 0.01264 0.0
C623 C 0.22062 0.10228 0.02347 0.0
C624 C 0.1399 0.20918 0.99701 0.0
C625 C 0.19906 0.16139 0.00566 0.0
C626 C 0.11779 0.22434 0.98712 0.0
C627 C 0.13585 0.2176 0.97598 0.0
C628 C 0.18002 0.18643 0.99574 0.0
C629 C 0.17783 0.19823 0.97517 0.0
C630 C 0.23165 0.12919 0.00375 0.0
C631 C 0.1913 0.13741 0.02537 0.0
N632 N 0.1981 0.1825 0.9849 0.0
N633 N 0.18069 0.16507 0.01647 0.0
H634 H 0.06666 0.72827 0.98303 0.0
H635 H 0.23867 0.90395 0.00539 0.0
H636 H 0.13792 0.81612 0.96012 0.0
H637 H 0.18654 0.80024 0.02724 0.0
H638 H 0.21096 0.86512 0.98824 0.0
H639 H 0.11831 0.74617 -0.0013 0.0
C640 C 0.09366 0.75074 0.98123 0.0
C641 C 0.09744 0.77145 0.97032 0.0
C642 C 0.20623 0.85037 0.99675 0.0
C643 C 0.15636 0.79253 0.98826 0.0
C644 C 0.22201 0.8726 0.00656 0.0
C645 C 0.21418 0.85572 0.01778 0.0
C646 C 0.18172 0.81136 -0.00183 0.0
C647 C 0.19295 0.81468 0.01877 0.0
C648 C 0.12319 0.76093 0.99019 0.0
C649 C 0.13339 0.7998 0.96843 0.0
N650 N 0.17665 0.79433 0.0091 0.0
N651 N 0.16095 0.81017 0.97739 0.0
H652 H 0.79353 0.80253 0.9671 0.0
H653 H 0.81485 0.85566 0.03503 0.0
H654 H 0.90367 0.76338 0.98869 0.0
H655 H 0.72521 0.92217 0.01159 0.0
H656 H 0.83346 0.80392 0.0194 0.0
H657 H 0.75504 0.82848 0.98456 0.0
C658 C 0.80931 0.79861 0.97552 0.0
C659 C 0.85232 0.78165 0.97641 0.0
C660 C 0.80911 0.82936 0.01775 0.0
C661 C 0.80844 0.81127 0.99638 0.0
C662 C 0.79831 0.85879 0.02668 0.0
C663 C 0.76919 0.89387 0.02451 0.0
C664 C 0.79051 0.83502 0.00662 0.0
C665 C 0.74852 0.89611 0.01356 0.0
C666 C 0.78733 0.81352 0.98548 0.0
C667 C 0.87092 0.77704 0.98757 0.0
N668 N 0.76006 0.86749 0.00496 0.0
N669 N 0.8491 0.79229 -0.0029 0.0
H670 H 0.7545 0.08847 0.00482 0.0
H671 H 0.91833 0.26958 0.98152 0.0
H672 H 0.80068 0.19736 0.02589 0.0
H673 H 0.85257 0.17567 0.95911 0.0
H674 H 0.8666 0.25139 -0.00288 0.0
H675 H 0.78057 0.12664 0.9874 0.0
C676 C 0.76951 0.12075 0.00577 0.0
C677 C 0.77625 0.13934 0.01685 0.0
C678 C 0.86289 0.23533 0.98873 0.0
C679 C 0.80671 0.18301 0.99694 0.0
C680 C 0.89247 0.24569 0.97982 0.0
C681 C 0.89032 0.22339 0.96909 0.0
C682 C 0.8314 0.20193 0.98695 0.0
C683 C 0.85578 0.19326 0.9673 0.0
C684 C 0.78433 0.14261 0.99581 0.0
C685 C 0.79528 0.18154 0.01753 0.0
N686 N 0.82823 0.18273 0.97623 0.0
N687 N 0.81065 0.20157 0.00773 0.0
H688 H 0.5781 0.7696 0.75614 0.0
H689 H 0.76977 0.91856 0.7319 0.0
H690 H 0.69273 0.80417 0.77662 0.0
H691 H 0.67266 0.85655 0.70971 0.0
H692 H 0.74787 0.8696 0.7478 0.0
H693 H 0.61654 0.79402 0.73859 0.0
C694 C 0.61157 0.78188 0.75693 0.0
C695 C 0.63195 0.78558 0.76789 0.0
C696 C 0.73193 0.86606 0.73939 0.0
C697 C 0.67606 0.81395 0.74783 0.0
C698 C 0.74444 0.89402 0.73031 0.0
C699 C 0.72238 0.8922 0.71955 0.0
C700 C 0.69663 0.83662 0.73775 0.0
C701 C 0.69021 0.85943 0.71791 0.0
C702 C 0.6336 0.79564 0.74689 0.0
C703 C 0.67558 0.80113 0.76836 0.0
N704 N 0.67763 0.83354 0.727 0.0
N705 N 0.69591 0.81549 0.7585 0.0
H706 H 0.80747 0.29618 0.2168 0.0
H707 H 0.85101 0.32309 0.28515 0.0
H708 H 0.76786 0.40943 0.23718 0.0
H709 H 0.91772 0.22813 0.26326 0.0
H710 H 0.80342 0.3425 0.2687 0.0
H711 H 0.83127 0.25949 0.23475 0.0
C712 C 0.8031 0.31307 0.22505 0.0
C713 C 0.78642 0.3563 0.22546 0.0
C714 C 0.828 0.31689 0.26757 0.0
C715 C 0.81351 0.31446 0.246 0.0
C716 C 0.85504 0.30561 0.27697 0.0
C717 C 0.88901 0.27462 0.2755 0.0
C718 C 0.83492 0.29691 0.25665 0.0
C719 C 0.89247 0.25283 0.26472 0.0
C720 C 0.81678 0.29211 0.23529 0.0
C721 C 0.78126 0.37641 0.23643 0.0
N722 N 0.86618 0.26483 0.25565 0.0
N723 N 0.79518 0.35551 0.24624 0.0
H724 H 0.323 0.13901 0.70935 0.0
H725 H 0.30006 0.18753 0.77755 0.0
H726 H 0.22919 0.07412 0.73193 0.0
H727 H 0.41421 0.22157 0.75684 0.0
H728 H 0.26218 0.16369 0.75978 0.0
H729 H 0.34398 0.18735 0.72553 0.0
C730 C 0.30607 0.13557 0.71762 0.0
C731 C 0.27495 0.10188 0.71937 0.0
C732 C 0.29528 0.177 0.75913 0.0
C733 C 0.29899 0.15687 0.73789 0.0
C734 C 0.31692 0.19071 0.76926 0.0
C735 C 0.36072 0.20578 0.76871 0.0
C736 C 0.31748 0.17864 0.74838 0.0
C737 C 0.38074 0.20943 0.7577 0.0
C738 C 0.31825 0.16304 0.72687 0.0
C739 C 0.25393 0.09915 0.73027 0.0
N740 N 0.35913 0.19551 0.74799 0.0
N741 N 0.26676 0.12588 0.73917 0.0
H742 H 0.22577 0.58093 0.2378 0.0
H743 H 0.06417 0.76374 0.2611 0.0
H744 H 0.18361 0.69113 0.21667 0.0
H745 H 0.13322 0.67323 0.28376 0.0
H746 H 0.11429 0.74394 0.24525 0.0
H747 H 0.19921 0.6193 0.25514 0.0
C748 C 0.21144 0.61351 0.23683 0.0
C749 C 0.20622 0.63256 0.22576 0.0
C750 C 0.11906 0.72903 0.25375 0.0
C751 C 0.17519 0.67649 0.24558 0.0
C752 C 0.09041 0.74031 0.2628 0.0
C753 C 0.09398 0.71944 0.2737 0.0
C754 C 0.15103 0.69616 0.25556 0.0
C755 C 0.12892 0.68976 0.27546 0.0
C756 C 0.1964 0.6355 0.24675 0.0
C757 C 0.18797 0.67508 0.22504 0.0
N758 N 0.15554 0.67833 0.26641 0.0
N759 N 0.17231 0.69528 0.23479 0.0
H760 H 0.675 0.64074 0.53502 0.0
H761 H 0.69716 0.69362 0.46712 0.0
H762 H 0.76444 0.57369 0.51165 0.0
H763 H 0.58683 0.73306 0.48858 0.0
H764 H 0.73539 0.66767 0.48462 0.0
H765 H 0.65666 0.69246 0.51937 0.0
C766 C 0.69154 0.63746 0.52669 0.0
C767 C 0.72054 0.60226 0.52454 0.0
C768 C 0.70312 0.68271 0.4855 0.0
C769 C 0.69956 0.66112 0.50663 0.0
C770 C 0.6813 0.69765 0.47552 0.0
C771 C 0.6383 0.71465 0.47636 0.0
C772 C 0.68186 0.68499 0.49637 0.0
C773 C 0.61959 0.71937 0.4875 0.0
C774 C 0.6809 0.6669 0.51775 0.0
C775 C 0.74122 0.59985 0.5136 0.0
N776 N 0.64125 0.70408 0.49706 0.0
N777 N 0.72986 0.62849 0.50499 0.0
H778 H 0.57356 0.22534 0.48279 0.0
H779 H 0.73936 0.40564 0.50559 0.0
H780 H 0.64053 0.31732 0.46011 0.0
H781 H 0.69212 0.29824 0.52698 0.0
H782 H 0.71306 0.36684 0.48828 0.0
H783 H 0.62547 0.24367 0.49835 0.0
C784 C 0.5997 0.24883 0.48102 0.0
C785 C 0.60216 0.27055 0.47022 0.0
C786 C 0.70914 0.35131 0.49673 0.0
C787 C 0.66133 0.29215 0.48804 0.0
C788 C 0.72412 0.37351 0.50663 0.0
C789 C 0.71712 0.35557 0.51777 0.0
C790 C 0.68632 0.31121 0.49798 0.0
C791 C 0.69776 0.31355 0.51857 0.0
C792 C 0.62939 0.25926 0.48991 0.0
C793 C 0.63706 0.30019 0.46835 0.0
N794 N 0.68221 0.2932 0.50882 0.0
N795 N 0.66474 0.3108 0.47726 0.0
H796 H 0.22159 0.42115 0.5102 0.0
H797 H 0.40594 0.25739 0.48901 0.0
H798 H 0.31079 0.35491 0.53379 0.0
H799 H 0.29845 0.29992 0.46695 0.0
H800 H 0.36562 0.28427 0.50601 0.0
H801 H 0.24212 0.36906 0.49488 0.0
C802 C 0.24488 0.39511 0.51222 0.0
C803 C 0.2652 0.39291 0.52321 0.0
C804 C 0.35045 0.28703 0.49748 0.0
C805 C 0.28939 0.33361 0.50567 0.0
C806 C 0.37353 0.27177 0.48776 0.0
C807 C 0.35593 0.27721 0.47651 0.0
C808 C 0.30981 0.30858 0.49594 0.0
C809 C 0.31354 0.2955 0.47544 0.0
C810 C 0.25659 0.36532 0.50346 0.0
C811 C 0.2947 0.35815 0.5254 0.0
N812 N 0.29229 0.31134 0.48501 0.0
N813 N 0.30662 0.33042 0.51662 0.0
H814 H 0.25125 0.59012 0.50434 0.0
H815 H 0.42148 0.76714 0.482 0.0
H816 H 0.3012 0.69573 0.52596 0.0
H817 H 0.35351 0.6763 0.45917 0.0
H818 H 0.36888 0.74974 0.49745 0.0
H819 H 0.27875 0.62857 0.48712 0.0
C820 C 0.26737 0.62178 0.50545 0.0
C821 C 0.27475 0.63929 0.51663 0.0
C822 C 0.3649 0.7342 0.489 0.0
C823 C 0.3069 0.68324 0.49695 0.0
C824 C 0.39499 0.7441 0.48017 0.0
C825 C 0.39243 0.7224 0.46937 0.0
C826 C 0.33245 0.70187 0.48706 0.0
C827 C 0.35707 0.69338 0.46742 0.0
C828 C 0.28303 0.64379 0.4956 0.0
C829 C 0.29524 0.68074 0.51752 0.0
N830 N 0.32898 0.68327 0.47627 0.0
N831 N 0.31141 0.70089 0.50783 0.0
H832 H 0.08394 0.08326 0.31168 0.0
H833 H 0.89622 0.90455 0.31083 0.0
H834 H 0.94776 0.11624 0.31827 0.0
H835 H 0.03271 0.8708 0.31666 0.0
H836 H 0.91374 0.982 0.3147 0.0
H837 H 0.06646 0.00533 0.31466 0.0
C838 C 0.05054 0.0741 0.31403 0.0
C839 C 0.01713 0.10597 0.31469 0.0
C840 C 0.93975 0.95759 0.31535 0.0
C841 C -0.0034 0.017 0.31776 0.0
C842 C 0.92971 0.91341 0.31319 0.0
C843 C 0.96319 0.88153 0.31339 0.0
C844 C 0.98373 0.96991 0.31749 0.0
C845 C 0.00616 0.89469 0.31629 0.0
C846 C 0.04051 0.02962 0.31567 0.0
C847 C 0.97426 0.09239 0.31755 0.0
N848 N 0.0154 0.93806 0.31805 0.0
N849 N 0.965 0.04877 0.3188 0.0
H850 H 0.08763 0.90542 0.68216 0.0
H851 H 0.90777 0.09144 0.68294 0.0
H852 H 0.11988 0.04235 0.67636 0.0
H853 H 0.87529 0.95501 0.67643 0.0
H854 H 0.98539 0.07486 0.67918 0.0
H855 H 0.00988 0.9223 0.6787 0.0
C856 C 0.07837 0.93887 0.67988 0.0
C857 C 0.10994 0.97266 0.67958 0.0
C858 C 0.96124 0.04867 0.67835 0.0
C859 C 0.02116 0.99248 0.67597 0.0
C860 C 0.91695 0.05819 0.68044 0.0
C861 C 0.88537 0.02442 0.68003 0.0
C862 C 0.97399 0.00492 0.67607 0.0
C863 C 0.89894 0.98175 0.67696 0.0
C864 C 0.034 0.94855 0.67796 0.0
C865 C 0.09625 0.01557 0.6768 0.0
N866 N 0.94243 0.973 0.67528 0.0
N867 N 0.05269 0.02445 0.67528 0.0
H868 H 0.89885 0.58627 0.93503 0.0
H869 H 0.0868 0.40916 0.93279 0.0
H870 H 0.03329 0.6211 0.92682 0.0
H871 H 0.95023 0.37498 0.92719 0.0
H872 H 0.06856 0.48682 0.92958 0.0
H873 H 0.9163 0.50876 0.93127 0.0
C874 C 0.93179 0.5776 0.93216 0.0
C875 C 0.96474 0.60983 0.9312 0.0
C876 C 0.0427 0.46229 0.92882 0.0
C877 C 0.98532 0.52143 0.92726 0.0
C878 C 0.05315 0.41798 0.93059 0.0
C879 C 0.01984 0.3859 0.9303 0.0
C880 C -0.00149 0.47449 0.92699 0.0
C881 C 0.97666 0.39901 0.92763 0.0
C882 C 0.94181 0.53341 0.93006 0.0
C883 C 0.00716 0.59694 0.92773 0.0
N884 N 0.96702 0.44249 0.92627 0.0
N885 N 0.01648 0.55355 0.92604 0.0
H886 H 0.61957 0.95742 0.06698 0.0
H887 H 0.3714 0.04709 0.06546 0.0
H888 H 0.58487 0.09291 0.05998 0.0
H889 H 0.40706 0.91029 0.06099 0.0
H890 H 0.44937 0.06503 0.06881 0.0
H891 H 0.54133 0.94059 0.07022 0.0
C892 C 0.59543 0.98371 0.06633 0.0
C893 C 0.60833 0.02644 0.06314 0.0
C894 C 0.43998 0.031 0.06728 0.0
C895 C 0.51937 0.00769 0.06682 0.0
C896 C 0.39566 0.02081 0.06536 0.0
C897 C 0.38312 0.97729 0.06286 0.0
C898 C 0.47173 -0.00271 0.06673 0.0
C899 C 0.41547 0.94423 0.06296 0.0
C900 C 0.55096 0.97415 0.06816 0.0
C901 C 0.57614 0.05957 0.0625 0.0
N902 N 0.45844 0.95497 0.06476 0.0
N903 N 0.53297 0.04941 0.06421 0.0
H904 H 0.41314 0.39657 0.80102 0.0
H905 H 0.54276 0.60195 0.82664 0.0
H906 H 0.52565 0.3743 0.82328 0.0
H907 H 0.49886 0.59354 0.79087 0.0
H908 H 0.5242 0.52315 0.82917 0.0
H909 H 0.42871 0.47597 0.8014 0.0
C910 C 0.44055 0.40875 0.80619 0.0
C911 C 0.46826 0.37955 0.81214 0.0
C912 C 0.51856 0.53897 0.82082 0.0
C913 C 0.48627 0.46932 0.81257 0.0
C914 C 0.52924 0.58355 0.81936 0.0
C915 C 0.52142 0.60426 0.8086 0.0
C916 C 0.49929 0.5158 0.81152 0.0
C917 C 0.50397 0.57921 0.79941 0.0
C918 C 0.44957 0.45371 0.80634 0.0
C919 C 0.5037 0.39634 0.81863 0.0
N920 N 0.493 0.5364 0.80112 0.0
N921 N 0.51192 0.44049 0.81867 0.0
H922 H 0.59432 0.40867 0.19556 0.0
H923 H 0.38689 0.52902 0.16741 0.0
H924 H 0.61267 0.50869 0.16927 0.0
H925 H 0.39547 0.49281 0.20375 0.0
H926 H 0.46523 0.50867 0.16503 0.0
H927 H 0.51476 0.42331 0.19532 0.0
C928 C 0.5812 0.43303 0.18956 0.0
C929 C 0.60933 0.45753 0.1824 0.0
C930 C 0.44959 0.50506 0.17347 0.0
C931 C 0.51939 0.47464 0.18213 0.0
C932 C 0.40525 0.51676 0.17484 0.0
C933 C 0.38477 0.51183 0.18574 0.0
C934 C 0.47282 0.48774 0.18303 0.0
C935 C 0.40971 0.49586 0.19513 0.0
C936 C 0.53614 0.44159 0.18948 0.0
C937 C 0.59144 0.48918 0.17486 0.0
N938 N 0.45234 0.484 0.19353 0.0
N939 N 0.54725 0.49704 0.17492 0.0
H940 H 0.45435 0.87138 0.4267 0.0
H941 H 0.54356 0.11983 0.4279 0.0
H942 H 0.58991 0.90652 0.43345 0.0
H943 H 0.40744 0.08379 0.4334 0.0
H944 H 0.56126 0.04189 0.42439 0.0
H945 H 0.4372 0.94964 0.42355 0.0
C946 C 0.48058 0.89561 0.42731 0.0
C947 C 0.52344 0.88285 0.43042 0.0
C948 C 0.5274 0.05121 0.42617 0.0
C949 C 0.50434 0.97177 0.4268 0.0
C950 C 0.51735 0.09549 0.42818 0.0
C951 C 0.47413 0.1079 0.43102 0.0
C952 C 0.49384 0.01936 0.42696 0.0
C953 C 0.44114 0.07547 0.43116 0.0
C954 C 0.47084 0.94008 0.42552 0.0
C955 C 0.55649 0.91515 0.43101 0.0
N956 N 0.45175 0.03252 0.42926 0.0
N957 N 0.54616 0.9583 0.42932 0.0
H958 H 0.08455 0.59209 0.56065 0.0
H959 H 0.9041 0.40577 0.5611 0.0
H960 H 0.11653 0.45477 0.56582 0.0
H961 H 0.87231 0.54283 0.56686 0.0
H962 H 0.98193 0.42251 0.56443 0.0
H963 H 0.00701 0.57543 0.56453 0.0
C964 C 0.07529 0.55859 0.56288 0.0
C965 C 0.10667 0.52463 0.56287 0.0
C966 C 0.95792 0.44884 0.56519 0.0
C967 C 0.01815 0.50508 0.56698 0.0
C968 C 0.91349 0.43923 0.56335 0.0
C969 C 0.88201 0.47307 0.56368 0.0
C970 C 0.97092 0.49276 0.56714 0.0
C971 C 0.89587 0.51599 0.56641 0.0
C972 C 0.03104 0.54903 0.56504 0.0
C973 C 0.09302 0.48168 0.56561 0.0
N974 N 0.93948 0.52481 0.56786 0.0
N975 N 0.04958 0.47294 0.56738 0.0
H976 H 0.03499 0.61818 0.30418 0.0
H977 H 0.08805 0.401 0.31644 0.0
H978 H 0.90122 0.5832 0.3133 0.0
H979 H 0.95496 0.37822 0.30431 0.0
H980 H 0.06994 0.47905 0.3193 0.0
H981 H 0.05767 0.5422 0.30788 0.0
C982 C 0.01054 0.59465 0.30717 0.0
C983 C 0.9661 0.60691 0.30836 0.0
C984 C 0.04475 0.45687 0.31604 0.0
C985 C 0.99188 0.51991 0.31268 0.0
C986 C 0.0549 0.41227 0.31451 0.0
C987 C 0.02322 0.38327 0.30989 0.0
C988 C 0.00259 0.47237 0.31299 0.0
C989 C 0.98065 0.3996 0.30767 0.0
C990 C 0.02361 0.55134 0.3094 0.0
C991 C 0.93582 0.57511 0.31228 0.0
N992 N 0.97166 0.44315 0.30917 0.0
N993 N 0.94911 0.53276 0.31406 0.0
H994 H 0.37612 0.03988 0.68938 0.0
H995 H 0.61954 0.95466 0.69022 0.0
H996 H 0.40756 0.90401 0.68156 0.0
H997 H 0.58853 0.09021 0.68191 0.0
H998 H 0.54233 0.93489 0.68686 0.0
H999 H 0.45358 0.05944 0.68643 0.0
C1000 C 0.39925 0.01427 0.6869 0.0
C1001 C 0.38557 0.97018 0.68584 0.0
C1002 C 0.5526 0.96881 0.68558 0.0
C1003 C 0.47418 0.99222 0.68263 0.0
C1004 C 0.59658 0.98016 0.68755 0.0
C1005 C 0.6103 0.02423 0.68647 0.0
C1006 C 0.52199 0.00194 0.68277 0.0
C1007 C 0.57928 0.05587 0.68288 0.0
C1008 C 0.44339 0.02548 0.68517 0.0
C1009 C 0.4168 0.93837 0.68251 0.0
N1010 N 0.53633 0.04425 0.68137 0.0
N1011 N 0.4599 0.94987 0.68124 0.0
H1012 H 0.95427 0.12036 0.9391 0.0
H1013 H 0.03659 0.87596 0.94009 0.0
H1014 H 0.09003 0.08759 0.93164 0.0
H1015 H 0.90187 0.90847 0.9313 0.0
H1016 H 0.05741 0.95294 0.93678 0.0
H1017 H 0.93401 0.04312 0.93601 0.0
C1018 C 0.97972 0.09697 0.93666 0.0
C1019 C 0.02397 0.11023 0.93574 0.0
C1020 C 0.02346 0.94306 0.93537 0.0
C1021 C 0.00111 0.02182 0.93238 0.0
C1022 C 0.0115 0.8992 0.93731 0.0
C1023 C 0.96734 0.88596 0.93609 0.0
C1024 C 0.99084 0.97406 0.93246 0.0
C1025 C 0.93626 0.91733 0.93238 0.0
C1026 C 0.9681 0.05296 0.93485 0.0
C1027 C 0.05555 0.07868 0.93247 0.0
N1028 N 0.94845 0.96017 0.93091 0.0
N1029 N 0.04365 0.03568 0.93113 0.0
H1030 H 0.87196 0.95741 0.05384 0.0
H1031 H 0.09036 0.90627 0.0649 0.0
H1032 H 0.90787 0.0926 0.0611 0.0
H1033 H 0.11215 0.03679 0.05084 0.0
H1034 H 0.01276 0.92515 0.06806 0.0
H1035 H 0.94848 0.93543 0.05695 0.0
C1036 C 0.89586 0.98235 0.05631 0.0
C1037 C 0.88364 0.02692 0.05716 0.0
C1038 C 0.03461 0.94961 0.0643 0.0
C1039 C 0.97132 0.00198 0.06079 0.0
C1040 C 0.07899 0.93904 0.0626 0.0
C1041 C 0.1076 0.96973 0.05739 0.0
C1042 C 0.01886 0.99119 0.06081 0.0
C1043 C 0.09107 0.01183 0.05468 0.0
C1044 C 0.9395 0.9697 0.0582 0.0
C1045 C 0.91593 0.05787 0.06038 0.0
N1046 N 0.0477 0.02124 0.05636 0.0
N1047 N 0.95857 0.04493 0.06184 0.0
H1048 H 0.40639 0.08863 0.81945 0.0
H1049 H 0.45363 0.87002 0.81003 0.0
H1050 H 0.53635 0.10604 0.80464 0.0
H1051 H 0.59085 0.90442 0.81448 0.0
H1052 H 0.43323 0.94601 0.81429 0.0
H1053 H 0.42536 0.01216 0.82413 0.0
C1054 C 0.43901 0.07652 0.81727 0.0
C1055 C 0.46939 0.10334 0.81133 0.0
C1056 C 0.46771 0.93683 0.81476 0.0
C1057 C 0.49092 0.01594 0.81647 0.0
C1058 C 0.4794 0.89346 0.8122 0.0
C1059 C 0.524 0.88118 0.81176 0.0
C1060 C 0.50095 0.96829 0.81672 0.0
C1061 C 0.55608 0.91267 0.8147 0.0
C1062 C 0.44968 0.03279 0.81987 0.0
C1063 C 0.51149 0.0862 0.80894 0.0
N1064 N 0.54398 0.95518 0.81676 0.0
N1065 N 0.52084 0.0434 0.81141 0.0
H1066 H 0.87419 0.53886 0.18689 0.0
H1067 H 0.09165 0.59138 0.177 0.0
H1068 H 0.90855 0.4047 0.17795 0.0
H1069 H 0.1112 0.45562 0.18728 0.0
H1070 H 0.01439 0.57434 0.17256 0.0
H1071 H 0.94959 0.56154 0.1827 0.0
C1072 C 0.89745 0.51432 0.18381 0.0
C1073 C 0.88533 0.46971 0.18294 0.0
C1074 C 0.03569 0.54831 0.17575 0.0
C1075 C 0.97172 0.49552 0.17798 0.0
C1076 C 0.07986 0.5579 0.17817 0.0
C1077 C 0.10747 0.52513 0.18283 0.0
C1078 C 0.01934 0.50571 0.178 0.0
C1079 C 0.09071 0.48215 0.184 0.0
C1080 C 0.94046 0.52741 0.18127 0.0
C1081 C 0.91664 0.43938 0.17881 0.0
N1082 N 0.04758 0.47379 0.18173 0.0
N1083 N 0.95877 0.45269 0.17675 0.0
H1084 H 0.4561 0.61727 0.43979 0.0
H1085 H 0.53904 0.37309 0.44015 0.0
H1086 H 0.59153 0.58483 0.43181 0.0
H1087 H 0.40385 0.40519 0.43179 0.0
H1088 H 0.55942 0.4502 0.4369 0.0
H1089 H 0.43579 0.54005 0.43666 0.0
C1090 C 0.48146 0.59398 0.43723 0.0
C1091 C 0.52565 0.60732 0.43618 0.0
C1092 C 0.52544 0.44022 0.43558 0.0
C1093 C 0.50273 0.51894 0.43277 0.0
C1094 C 0.51375 0.39628 0.43748 0.0
C1095 C 0.4696 0.38289 0.43636 0.0
C1096 C 0.49258 0.47115 0.43281 0.0
C1097 C 0.43823 0.4142 0.43279 0.0
C1098 C 0.46981 0.54997 0.4354 0.0
C1099 C 0.55711 0.57587 0.43275 0.0
N1100 N 0.45018 0.45714 0.43136 0.0
N1101 N 0.54518 0.53289 0.43139 0.0
H1102 H 0.37007 0.45337 0.55173 0.0
H1103 H 0.58807 0.4022 0.56367 0.0
H1104 H 0.40468 0.58741 0.56077 0.0
H1105 H 0.60997 0.5346 0.55091 0.0
H1106 H 0.51 0.41995 0.56645 0.0
H1107 H 0.44661 0.43137 0.55492 0.0
C1108 C 0.39366 0.47802 0.55459 0.0
C1109 C 0.38111 0.52231 0.55593 0.0
C1110 C 0.53198 0.44505 0.56306 0.0
C1111 C 0.46867 0.49735 0.55966 0.0
C1112 C 0.5766 0.43513 0.56157 0.0
C1113 C 0.60541 0.46675 0.55684 0.0
C1114 C 0.51622 0.48691 0.55983 0.0
C1115 C 0.58876 0.50899 0.55438 0.0
C1116 C 0.43727 0.46534 0.55652 0.0
C1117 C 0.41299 0.55289 0.55965 0.0
N1118 N 0.54515 0.51779 0.55585 0.0
N1119 N 0.45559 0.53999 0.56116 0.0
H1120 H 0.26356 0.18547 0.40204 0.0
H1121 H 0.19746 0.32585 0.3461 0.0
H1122 H 0.29299 0.32449 0.3995 0.0
H1123 H 0.22741 0.18677 0.34446 0.0
H1124 H 0.22242 0.32693 0.36651 0.0
H1125 H 0.2389 0.1861 0.38168 0.0
C1126 C 0.26461 0.21615 0.39718 0.0
C1127 C 0.28068 0.25489 0.40234 0.0
C1128 C 0.22359 0.29627 0.36165 0.0
C1129 C 0.25236 0.25596 0.3792 0.0
C1130 C 0.20919 0.29559 0.35008 0.0
C1131 C 0.21015 0.25608 0.3437 0.0
C1132 C 0.23829 0.25699 0.36687 0.0
C1133 C 0.22625 0.21787 0.34912 0.0
C1134 C 0.25086 0.21643 0.38558 0.0
C1135 C 0.28143 0.29382 0.39573 0.0
N1136 N 0.2393 0.21915 0.36045 0.0
N1137 N 0.26726 0.29346 0.38447 0.0
H1138 H 0.24921 0.85013 0.64275 0.0
H1139 H 0.24945 0.64453 0.5995 0.0
H1140 H 0.27071 0.7165 0.65446 0.0
H1141 H 0.27021 0.77834 0.58783 0.0
H1142 H 0.2517 0.67009 0.6197 0.0
H1143 H 0.25124 0.82445 0.62255 0.0
C1144 C 0.25546 0.81551 0.64105 0.0
C1145 C 0.26157 0.78557 0.65024 0.0
C1146 C 0.25635 0.69379 0.61273 0.0
C1147 C 0.26181 0.75568 0.6272 0.0
C1148 C 0.25561 0.67916 0.6012 0.0
C1149 C 0.26141 0.7092 0.59202 0.0
C1150 C 0.26184 0.73894 0.61508 0.0
C1151 C 0.26638 0.75408 0.5947 0.0
C1152 C 0.25609 0.80081 0.62953 0.0
C1153 C 0.26665 0.74069 0.64758 0.0
N1154 N 0.26653 0.76765 0.606 0.0
N1155 N 0.26673 0.72705 0.63628 0.0
H1156 H 0.79058 0.65836 0.34515 0.0
H1157 H 0.73169 0.80094 0.40126 0.0
H1158 H 0.75916 0.79707 0.34333 0.0
H1159 H 0.70032 0.66223 0.39924 0.0
H1160 H 0.75428 0.79928 0.38074 0.0
H1161 H 0.76852 0.65815 0.3658 0.0
C1162 C 0.77909 0.6887 0.34913 0.0
C1163 C 0.77682 0.72786 0.34264 0.0
C1164 C 0.74241 0.76924 0.38479 0.0
C1165 C 0.75214 0.72797 0.36607 0.0
C1166 C 0.72985 0.7701 0.39649 0.0
C1167 C 0.71378 0.73177 0.40183 0.0
C1168 C 0.73971 0.72953 0.37851 0.0
C1169 C 0.71195 0.69259 0.39532 0.0
C1170 C 0.76639 0.68853 0.36084 0.0
C1171 C 0.76124 0.76623 0.34808 0.0
N1172 N 0.72495 0.69239 0.38397 0.0
N1173 N 0.74988 0.76546 0.35954 0.0
H1174 H 0.74607 0.14585 0.64406 0.0
H1175 H 0.74346 0.35065 0.60062 0.0
H1176 H 0.72209 0.27927 0.65562 0.0
H1177 H 0.72387 0.21647 0.58907 0.0
H1178 H 0.74171 0.32535 0.62085 0.0
H1179 H 0.74411 0.17118 0.62384 0.0
C1180 C 0.73931 0.18034 0.64232 0.0
C1181 C 0.73244 0.21031 0.65148 0.0
C1182 C 0.73723 0.30151 0.6139 0.0
C1183 C 0.73229 0.23983 0.62841 0.0
C1184 C 0.73769 0.31598 0.60236 0.0
C1185 C 0.73202 0.28575 0.5932 0.0
C1186 C 0.73216 0.25635 0.61627 0.0
C1187 C 0.72756 0.24086 0.59591 0.0
C1188 C 0.73871 0.19484 0.63079 0.0
C1189 C 0.72672 0.25506 0.64877 0.0
N1190 N 0.72767 0.22746 0.60723 0.0
N1191 N 0.7267 0.26853 0.63746 0.0
H1192 H 0.22629 0.30665 0.90065 0.0
H1193 H 0.29734 0.16163 0.84609 0.0
H1194 H 0.20153 0.16648 0.8994 0.0
H1195 H 0.25864 0.29808 0.84279 0.0
H1196 H 0.27291 0.16263 0.86653 0.0
H1197 H 0.25007 0.30424 0.88021 0.0
C1198 C 0.22614 0.27536 0.89605 0.0
C1199 C 0.21168 0.23676 0.90159 0.0
C1200 C 0.2697 0.19225 0.8613 0.0
C1201 C 0.23899 0.23368 0.8784 0.0
C1202 C 0.28378 0.19176 0.84971 0.0
C1203 C 0.28018 0.22994 0.84287 0.0
C1204 C 0.25272 0.23142 0.86606 0.0
C1205 C 0.26184 0.268 0.84784 0.0
C1206 C 0.23935 0.27406 0.88441 0.0
C1207 C 0.21196 0.197 0.89532 0.0
N1208 N 0.24918 0.26797 0.8592 0.0
N1209 N 0.22564 0.19639 0.88403 0.0
H1210 H 0.27227 0.64386 0.14289 0.0
H1211 H 0.24311 0.84979 0.10072 0.0
H1212 H 0.22236 0.76953 0.15484 0.0
H1213 H 0.24052 0.71547 0.08815 0.0
H1214 H 0.24393 0.8223 0.12073 0.0
H1215 H 0.26947 0.67078 0.12288 0.0
C1216 C 0.25979 0.67672 0.14135 0.0
C1217 C 0.24598 0.70387 0.15059 0.0
C1218 C 0.24262 0.79886 0.1136 0.0
C1219 C 0.24479 0.73561 0.12767 0.0
C1220 C 0.2415 0.81451 0.10216 0.0
C1221 C 0.23981 0.78483 0.09277 0.0
C1222 C 0.24326 0.75319 0.11564 0.0
C1223 C 0.24098 0.73943 0.09517 0.0
C1224 C 0.25875 0.69226 0.12989 0.0
C1225 C 0.2329 0.74726 0.14799 0.0
N1226 N 0.24261 0.72493 0.10639 0.0
N1227 N 0.23259 0.76178 0.13678 0.0
H1228 H 0.73584 0.70513 0.90393 0.0
H1229 H 0.76167 0.80238 0.83949 0.0
H1230 H 0.81326 0.82098 0.89601 0.0
H1231 H 0.66149 0.70797 0.84911 0.0
H1232 H 0.78548 0.80569 0.85991 0.0
H1233 H 0.71109 0.70285 0.88365 0.0
C1234 C 0.74772 0.73007 0.89792 0.0
C1235 C 0.77763 0.7626 0.90161 0.0
C1236 C 0.75809 0.78448 0.85756 0.0
C1237 C 0.74953 0.7601 0.87839 0.0
C1238 C 0.74468 0.78241 0.84592 0.0
C1239 C 0.70904 0.75553 0.84269 0.0
C1240 C 0.7361 0.75891 0.86597 0.0
C1241 C 0.68822 0.73014 0.85131 0.0
C1242 C 0.73364 0.72868 0.88634 0.0
C1243 C 0.79166 0.79424 0.89347 0.0
N1244 N 0.70211 0.73239 0.86256 0.0
N1245 N 0.7777 0.79204 0.88222 0.0
H1246 H 0.68986 0.23058 0.09233 0.0
H1247 H 0.83314 0.29829 0.14747 0.0
H1248 H 0.82992 0.20573 0.09363 0.0
H1249 H 0.6979 0.2554 0.15054 0.0
H1250 H 0.83254 0.27617 0.12683 0.0
H1251 H 0.69188 0.25277 0.11292 0.0
C1252 C 0.72105 0.23014 0.09696 0.0
C1253 C 0.75973 0.21609 0.0914 0.0
C1254 C 0.8031 0.27154 0.13206 0.0
C1255 C 0.76237 0.24158 0.11475 0.0
C1256 C 0.80337 0.28427 0.14376 0.0
C1257 C 0.76543 0.27876 0.1506 0.0
C1258 C 0.76435 0.25406 0.12718 0.0
C1259 C 0.72779 0.26001 0.1455 0.0
C1260 C 0.72213 0.24244 0.10868 0.0
C1261 C 0.79936 0.21592 0.09772 0.0
N1262 N 0.72801 0.24873 0.13403 0.0
N1263 N 0.79976 0.22872 0.10909 0.0
loop_
_geom_bond_atom_site_label_1
_geom_bond_atom_site_label_2
_geom_bond_distance
_geom_bond_site_symmetry_2
_ccdc_geom_bond_type
Co0 O3 1.970 . S
Co0 N17 1.989 . S
Co0 O25 1.967 . S
Co0 O32 1.920 1_455 S
Co1 O4 1.966 . S
Co1 N10 2.022 . S
Co1 N18 1.993 . S
Co1 O26 1.941 . S
C2 O3 1.258 . S
C2 O4 1.263 . S
O3 Co0 1.970 . S
O3 C2 1.258 . S
O4 Co1 1.966 . S
O4 C2 1.263 . S
C5 O6 1.235 . S
C5 O32 1.289 . S
O6 C5 1.235 . S
C7 C9 1.400 . S
C7 N10 1.351 . S
C7 C12 1.501 . S
C8 C9 1.387 . S
C8 N11 1.341 . S
C9 C7 1.400 . S
C9 C8 1.387 . S
N10 Co1 2.022 . S
N10 C7 1.351 . S
N10 N11 1.365 . S
N11 C8 1.341 . S
N11 N10 1.365 . S
N11 H31 0.862 . S
C12 C7 1.501 . S
C12 H13 0.961 . S
C12 H14 0.961 . S
C12 H15 0.960 . S
H13 C12 0.961 . S
H14 C12 0.961 . S
H15 C12 0.960 . S
C16 N17 1.342 . S
C16 C20 1.401 . S
C16 C21 1.499 1_455 S
N17 Co0 1.989 . S
N17 C16 1.342 . S
N17 N18 1.388 . S
N18 Co1 1.993 . S
N18 N17 1.388 . S
N18 C19 1.346 . S
C19 N18 1.346 . S
C19 C20 1.396 . S
C19 C29 1.510 . S
C20 C16 1.401 . S
C20 C19 1.396 . S
C21 C16 1.499 1_655 S
C21 H22 0.959 . S
C21 H23 0.960 . S
C21 H24 0.961 . S
H22 C21 0.959 . S
H23 C21 0.960 . S
H24 C21 0.961 . S
O25 Co0 1.967 . S
O25 C33 1.258 . S
O26 Co1 1.941 . S
O26 C33 1.266 . S
H27 C29 0.959 . S
H28 C29 0.961 . S
C29 C19 1.510 . S
C29 H27 0.959 . S
C29 H28 0.961 . S
C29 H30 0.960 . S
H30 C29 0.960 . S
H31 N11 0.862 . S
O32 Co0 1.920 1_655 S
O32 C5 1.289 . S
C33 O25 1.258 . S
C33 O26 1.266 . S
Co34 O37 1.970 . S
Co34 N51 1.989 . S
Co34 O59 1.967 . S
Co34 O66 1.920 1_565 S
Co35 O38 1.966 . S
Co35 N44 2.022 . S
Co35 N52 1.993 . S
Co35 O60 1.941 . S
C36 O37 1.258 . S
C36 O38 1.263 . S
O37 Co34 1.970 . S
O37 C36 1.258 . S
O38 Co35 1.966 . S
O38 C36 1.263 . S
C39 O40 1.235 . S
C39 O66 1.289 . S
O40 C39 1.235 . S
C41 C43 1.400 . S
C41 N44 1.351 . S
C41 C46 1.501 . S
C42 C43 1.387 . S
C42 N45 1.341 . S
C43 C41 1.400 . S
C43 C42 1.387 . S
N44 Co35 2.022 . S
N44 C41 1.351 . S
N44 N45 1.365 . S
N45 C42 1.341 . S
N45 N44 1.365 . S
N45 H65 0.862 . S
C46 C41 1.501 . S
C46 H47 0.961 . S
C46 H48 0.961 . S
C46 H49 0.960 . S
H47 C46 0.961 . S
H48 C46 0.961 . S
H49 C46 0.960 . S
C50 N51 1.342 . S
C50 C54 1.401 . S
C50 C55 1.499 1_565 S
N51 Co34 1.989 . S
N51 C50 1.342 . S
N51 N52 1.388 . S
N52 Co35 1.993 . S
N52 N51 1.388 . S
N52 C53 1.346 . S
C53 N52 1.346 . S
C53 C54 1.396 . S
C53 C63 1.510 . S
C54 C50 1.401 . S
C54 C53 1.396 . S
C55 C50 1.499 1_545 S
C55 H56 0.959 . S
C55 H57 0.960 . S
C55 H58 0.961 . S
H56 C55 0.959 . S
H57 C55 0.960 . S
H58 C55 0.961 . S
O59 Co34 1.967 . S
O59 C67 1.258 . S
O60 Co35 1.941 . S
O60 C67 1.266 . S
H61 C63 0.959 . S
H62 C63 0.961 . S
C63 C53 1.510 . S
C63 H61 0.959 . S
C63 H62 0.961 . S
C63 H64 0.960 . S
H64 C63 0.960 . S
H65 N45 0.862 . S
O66 Co34 1.920 1_545 S
O66 C39 1.289 . S
C67 O59 1.258 . S
C67 O60 1.266 . S
Co68 O71 1.970 . S
Co68 N85 1.989 . S
Co68 O93 1.967 . S
Co68 O100 1.920 1_655 S
Co69 O72 1.966 . S
Co69 N78 2.022 . S
Co69 N86 1.993 . S
Co69 O94 1.941 . S
C70 O71 1.258 . S
C70 O72 1.263 . S
O71 Co68 1.970 . S
O71 C70 1.258 . S
O72 Co69 1.966 . S
O72 C70 1.263 . S
C73 O74 1.235 . S
C73 O100 1.289 . S
O74 C73 1.235 . S
C75 C77 1.400 . S
C75 N78 1.351 . S
C75 C80 1.501 . S
C76 C77 1.387 . S
C76 N79 1.341 . S
C77 C75 1.400 . S
C77 C76 1.387 . S
N78 Co69 2.022 . S
N78 C75 1.351 . S
N78 N79 1.365 . S
N79 C76 1.341 . S
N79 N78 1.365 . S
N79 H99 0.862 . S
C80 C75 1.501 . S
C80 H81 0.961 . S
C80 H82 0.961 . S
C80 H83 0.960 . S
H81 C80 0.961 . S
H82 C80 0.961 . S
H83 C80 0.960 . S
C84 N85 1.342 . S
C84 C88 1.401 . S
C84 C89 1.499 1_655 S
N85 Co68 1.989 . S
N85 C84 1.342 . S
N85 N86 1.388 . S
N86 Co69 1.993 . S
N86 N85 1.388 . S
N86 C87 1.346 . S
C87 N86 1.346 . S
C87 C88 1.396 . S
C87 C97 1.510 . S
C88 C84 1.401 . S
C88 C87 1.396 . S
C89 C84 1.499 1_455 S
C89 H90 0.959 . S
C89 H91 0.960 . S
C89 H92 0.961 . S
H90 C89 0.959 . S
H91 C89 0.960 . S
H92 C89 0.961 . S
O93 Co68 1.967 . S
O93 C101 1.258 . S
O94 Co69 1.941 . S
O94 C101 1.266 . S
H95 C97 0.959 . S
H96 C97 0.961 . S
C97 C87 1.510 . S
C97 H95 0.959 . S
C97 H96 0.961 . S
C97 H98 0.960 . S
H98 C97 0.960 . S
H99 N79 0.862 . S
O100 Co68 1.920 1_455 S
O100 C73 1.289 . S
C101 O93 1.258 . S
C101 O94 1.266 . S
Co102 O105 1.970 . S
Co102 N119 1.989 . S
Co102 O127 1.967 . S
Co102 O134 1.920 1_545 S
Co103 O106 1.966 . S
Co103 N112 2.022 . S
Co103 N120 1.993 . S
Co103 O128 1.941 . S
C104 O105 1.258 . S
C104 O106 1.263 . S
O105 Co102 1.970 . S
O105 C104 1.258 . S
O106 Co103 1.966 . S
O106 C104 1.263 . S
C107 O108 1.235 . S
C107 O134 1.289 . S
O108 C107 1.235 . S
C109 C111 1.400 . S
C109 N112 1.351 . S
C109 C114 1.501 . S
C110 C111 1.387 . S
C110 N113 1.341 . S
C111 C109 1.400 . S
C111 C110 1.387 . S
N112 Co103 2.022 . S
N112 C109 1.351 . S
N112 N113 1.365 . S
N113 C110 1.341 . S
N113 N112 1.365 . S
N113 H133 0.862 . S
C114 C109 1.501 . S
C114 H115 0.961 . S
C114 H116 0.961 . S
C114 H117 0.960 . S
H115 C114 0.961 . S
H116 C114 0.961 . S
H117 C114 0.960 . S
C118 N119 1.342 . S
C118 C122 1.401 . S
C118 C123 1.499 1_545 S
N119 Co102 1.989 . S
N119 C118 1.342 . S
N119 N120 1.388 . S
N120 Co103 1.993 . S
N120 N119 1.388 . S
N120 C121 1.346 . S
C121 N120 1.346 . S
C121 C122 1.396 . S
C121 C131 1.510 . S
C122 C118 1.401 . S
C122 C121 1.396 . S
C123 C118 1.499 1_565 S
C123 H124 0.959 . S
C123 H125 0.960 . S
C123 H126 0.961 . S
H124 C123 0.959 . S
H125 C123 0.960 . S
H126 C123 0.961 . S
O127 Co102 1.967 . S
O127 C135 1.258 . S
O128 Co103 1.941 . S
O128 C135 1.266 . S
H129 C131 0.959 . S
H130 C131 0.961 . S
C131 C121 1.510 . S
C131 H129 0.959 . S
C131 H130 0.961 . S
C131 H132 0.960 . S
H132 C131 0.960 . S
H133 N113 0.862 . S
O134 Co102 1.920 1_565 S
O134 C107 1.289 . S
C135 O127 1.258 . S
C135 O128 1.266 . S
Co136 O139 1.970 . S
Co136 N153 1.989 . S
Co136 O161 1.967 . S
Co136 O168 1.920 1_455 S
Co137 O140 1.966 . S
Co137 N146 2.022 . S
Co137 N154 1.993 . S
Co137 O162 1.941 . S
C138 O139 1.258 . S
C138 O140 1.263 . S
O139 Co136 1.970 . S
O139 C138 1.258 . S
O140 Co137 1.966 . S
O140 C138 1.263 . S
C141 O142 1.235 . S
C141 O168 1.289 . S
O142 C141 1.235 . S
C143 C145 1.400 . S
C143 N146 1.351 . S
C143 C148 1.501 . S
C144 C145 1.387 . S
C144 N147 1.341 . S
C145 C143 1.400 . S
C145 C144 1.387 . S
N146 Co137 2.022 . S
N146 C143 1.351 . S
N146 N147 1.365 . S
N147 C144 1.341 . S
N147 N146 1.365 . S
N147 H167 0.862 . S
C148 C143 1.501 . S
C148 H149 0.961 . S
C148 H150 0.961 . S
C148 H151 0.960 . S
H149 C148 0.961 . S
H150 C148 0.961 . S
H151 C148 0.960 . S
C152 N153 1.342 . S
C152 C156 1.401 . S
C152 C157 1.499 1_455 S
N153 Co136 1.989 . S
N153 C152 1.342 . S
N153 N154 1.388 . S
N154 Co137 1.993 . S
N154 N153 1.388 . S
N154 C155 1.346 . S
C155 N154 1.346 . S
C155 C156 1.396 . S
C155 C165 1.510 . S
C156 C152 1.401 . S
C156 C155 1.396 . S
C157 C152 1.499 1_655 S
C157 H158 0.959 . S
C157 H159 0.960 . S
C157 H160 0.961 . S
H158 C157 0.959 . S
H159 C157 0.960 . S
H160 C157 0.961 . S
O161 Co136 1.967 . S
O161 C169 1.258 . S
O162 Co137 1.941 . S
O162 C169 1.266 . S
H163 C165 0.959 . S
H164 C165 0.961 . S
C165 C155 1.510 . S
C165 H163 0.959 . S
C165 H164 0.961 . S
C165 H166 0.960 . S
H166 C165 0.960 . S
H167 N147 0.862 . S
O168 Co136 1.920 1_655 S
O168 C141 1.289 . S
C169 O161 1.258 . S
C169 O162 1.266 . S
Co170 O173 1.970 . S
Co170 N187 1.989 . S
Co170 O195 1.967 . S
Co170 O202 1.920 1_565 S
Co171 O174 1.966 . S
Co171 N180 2.022 . S
Co171 N188 1.993 . S
Co171 O196 1.941 . S
C172 O173 1.258 . S
C172 O174 1.263 . S
O173 Co170 1.970 . S
O173 C172 1.258 . S
O174 Co171 1.966 . S
O174 C172 1.263 . S
C175 O176 1.235 . S
C175 O202 1.289 . S
O176 C175 1.235 . S
C177 C179 1.400 . S
C177 N180 1.351 . S
C177 C182 1.501 . S
C178 C179 1.387 . S
C178 N181 1.341 . S
C179 C177 1.400 . S
C179 C178 1.387 . S
N180 Co171 2.022 . S
N180 C177 1.351 . S
N180 N181 1.365 . S
N181 C178 1.341 . S
N181 N180 1.365 . S
N181 H201 0.862 . S
C182 C177 1.501 . S
C182 H183 0.961 . S
C182 H184 0.961 . S
C182 H185 0.960 . S
H183 C182 0.961 . S
H184 C182 0.961 . S
H185 C182 0.960 . S
C186 N187 1.342 . S
C186 C190 1.401 . S
C186 C191 1.499 1_565 S
N187 Co170 1.989 . S
N187 C186 1.342 . S
N187 N188 1.388 . S
N188 Co171 1.993 . S
N188 N187 1.388 . S
N188 C189 1.346 . S
C189 N188 1.346 . S
C189 C190 1.396 . S
C189 C199 1.510 . S
C190 C186 1.401 . S
C190 C189 1.396 . S
C191 C186 1.499 1_545 S
C191 H192 0.959 . S
C191 H193 0.960 . S
C191 H194 0.961 . S
H192 C191 0.959 . S
H193 C191 0.960 . S
H194 C191 0.961 . S
O195 Co170 1.967 . S
O195 C203 1.258 . S
O196 Co171 1.941 . S
O196 C203 1.266 . S
H197 C199 0.959 . S
H198 C199 0.961 . S
C199 C189 1.510 . S
C199 H197 0.959 . S
C199 H198 0.961 . S
C199 H200 0.960 . S
H200 C199 0.960 . S
H201 N181 0.862 . S
O202 Co170 1.920 1_545 S
O202 C175 1.289 . S
C203 O195 1.258 . S
C203 O196 1.266 . S
Co204 O207 1.970 . S
Co204 N221 1.989 . S
Co204 O229 1.967 . S
Co204 O236 1.920 1_655 S
Co205 O208 1.966 . S
Co205 N214 2.022 . S
Co205 N222 1.993 . S
Co205 O230 1.941 . S
C206 O207 1.258 . S
C206 O208 1.263 . S
O207 Co204 1.970 . S
O207 C206 1.258 . S
O208 Co205 1.966 . S
O208 C206 1.263 . S
C209 O210 1.235 . S
C209 O236 1.289 . S
O210 C209 1.235 . S
C211 C213 1.400 . S
C211 N214 1.351 . S
C211 C216 1.501 . S
C212 C213 1.387 . S
C212 N215 1.341 . S
C213 C211 1.400 . S
C213 C212 1.387 . S
N214 Co205 2.022 . S
N214 C211 1.351 . S
N214 N215 1.365 . S
N215 C212 1.341 . S
N215 N214 1.365 . S
N215 H235 0.862 . S
C216 C211 1.501 . S
C216 H217 0.961 . S
C216 H218 0.961 . S
C216 H219 0.960 . S
H217 C216 0.961 . S
H218 C216 0.961 . S
H219 C216 0.960 . S
C220 N221 1.342 . S
C220 C224 1.401 . S
C220 C225 1.499 1_655 S
N221 Co204 1.989 . S
N221 C220 1.342 . S
N221 N222 1.388 . S
N222 Co205 1.993 . S
N222 N221 1.388 . S
N222 C223 1.346 . S
C223 N222 1.346 . S
C223 C224 1.396 . S
C223 C233 1.510 . S
C224 C220 1.401 . S
C224 C223 1.396 . S
C225 C220 1.499 1_455 S
C225 H226 0.959 . S
C225 H227 0.960 . S
C225 H228 0.961 . S
H226 C225 0.959 . S
H227 C225 0.960 . S
H228 C225 0.961 . S
O229 Co204 1.967 . S
O229 C237 1.258 . S
O230 Co205 1.941 . S
O230 C237 1.266 . S
H231 C233 0.959 . S
H232 C233 0.961 . S
C233 C223 1.510 . S
C233 H231 0.959 . S
C233 H232 0.961 . S
C233 H234 0.960 . S
H234 C233 0.960 . S
H235 N215 0.862 . S
O236 Co204 1.920 1_455 S
O236 C209 1.289 . S
C237 O229 1.258 . S
C237 O230 1.266 . S
Co238 O241 1.970 . S
Co238 N255 1.989 . S
Co238 O263 1.967 . S
Co238 O270 1.920 1_545 S
Co239 O242 1.966 . S
Co239 N248 2.022 . S
Co239 N256 1.993 . S
Co239 O264 1.941 . S
C240 O241 1.258 . S
C240 O242 1.263 . S
O241 Co238 1.970 . S
O241 C240 1.258 . S
O242 Co239 1.966 . S
O242 C240 1.263 . S
C243 O244 1.235 . S
C243 O270 1.289 . S
O244 C243 1.235 . S
C245 C247 1.400 . S
C245 N248 1.351 . S
C245 C250 1.501 . S
C246 C247 1.387 . S
C246 N249 1.341 . S
C247 C245 1.400 . S
C247 C246 1.387 . S
N248 Co239 2.022 . S
N248 C245 1.351 . S
N248 N249 1.365 . S
N249 C246 1.341 . S
N249 N248 1.365 . S
N249 H269 0.862 . S
C250 C245 1.501 . S
C250 H251 0.961 . S
C250 H252 0.961 . S
C250 H253 0.960 . S
H251 C250 0.961 . S
H252 C250 0.961 . S
H253 C250 0.960 . S
C254 N255 1.342 . S
C254 C258 1.401 . S
C254 C259 1.499 1_545 S
N255 Co238 1.989 . S
N255 C254 1.342 . S
N255 N256 1.388 . S
N256 Co239 1.993 . S
N256 N255 1.388 . S
N256 C257 1.346 . S
C257 N256 1.346 . S
C257 C258 1.396 . S
C257 C267 1.510 . S
C258 C254 1.401 . S
C258 C257 1.396 . S
C259 C254 1.499 1_565 S
C259 H260 0.959 . S
C259 H261 0.960 . S
C259 H262 0.961 . S
H260 C259 0.959 . S
H261 C259 0.960 . S
H262 C259 0.961 . S
O263 Co238 1.967 . S
O263 C271 1.258 . S
O264 Co239 1.941 . S
O264 C271 1.266 . S
H265 C267 0.959 . S
H266 C267 0.961 . S
C267 C257 1.510 . S
C267 H265 0.959 . S
C267 H266 0.961 . S
C267 H268 0.960 . S
H268 C267 0.960 . S
H269 N249 0.862 . S
O270 Co238 1.920 1_565 S
O270 C243 1.289 . S
C271 O263 1.258 . S
C271 O264 1.266 . S
Co272 O275 1.970 . S
Co272 N289 1.989 . S
Co272 O297 1.967 . S
Co272 O304 1.920 . S
Co273 O276 1.966 . S
Co273 N282 2.022 . S
Co273 N290 1.993 . S
Co273 O298 1.941 . S
C274 O275 1.258 . S
C274 O276 1.263 . S
O275 Co272 1.970 . S
O275 C274 1.258 . S
O276 Co273 1.966 . S
O276 C274 1.263 . S
C277 O278 1.235 . S
C277 O304 1.289 . S
O278 C277 1.235 . S
C279 C281 1.400 . S
C279 N282 1.351 . S
C279 C284 1.501 . S
C280 C281 1.387 . S
C280 N283 1.341 . S
C281 C279 1.400 . S
C281 C280 1.387 . S
N282 Co273 2.022 . S
N282 C279 1.351 . S
N282 N283 1.365 . S
N283 C280 1.341 . S
N283 N282 1.365 . S
N283 H303 0.862 . S
C284 C279 1.501 . S
C284 H285 0.961 . S
C284 H286 0.961 . S
C284 H287 0.960 . S
H285 C284 0.961 . S
H286 C284 0.961 . S
H287 C284 0.960 . S
C288 N289 1.342 . S
C288 C292 1.401 . S
C288 C293 1.499 . S
N289 Co272 1.989 . S
N289 C288 1.342 . S
N289 N290 1.388 . S
N290 Co273 1.993 . S
N290 N289 1.388 . S
N290 C291 1.346 . S
C291 N290 1.346 . S
C291 C292 1.396 . S
C291 C301 1.510 . S
C292 C288 1.401 . S
C292 C291 1.396 . S
C293 C288 1.499 . S
C293 H294 0.959 . S
C293 H295 0.960 . S
C293 H296 0.961 . S
H294 C293 0.959 . S
H295 C293 0.960 . S
H296 C293 0.961 . S
O297 Co272 1.967 . S
O297 C305 1.258 . S
O298 Co273 1.941 . S
O298 C305 1.266 . S
H299 C301 0.959 . S
H300 C301 0.961 . S
C301 C291 1.510 . S
C301 H299 0.959 . S
C301 H300 0.961 . S
C301 H302 0.960 . S
H302 C301 0.960 . S
H303 N283 0.862 . S
O304 Co272 1.920 . S
O304 C277 1.289 . S
C305 O297 1.258 . S
C305 O298 1.266 . S
Co306 O309 1.970 . S
Co306 N323 1.989 . S
Co306 O331 1.967 . S
Co306 O338 1.920 . S
Co307 O310 1.966 . S
Co307 N316 2.022 . S
Co307 N324 1.993 . S
Co307 O332 1.941 . S
C308 O309 1.258 . S
C308 O310 1.263 . S
O309 Co306 1.970 . S
O309 C308 1.258 . S
O310 Co307 1.966 . S
O310 C308 1.263 . S
C311 O312 1.235 . S
C311 O338 1.289 . S
O312 C311 1.235 . S
C313 C315 1.400 . S
C313 N316 1.351 . S
C313 C318 1.501 . S
C314 C315 1.387 . S
C314 N317 1.341 . S
C315 C313 1.400 . S
C315 C314 1.387 . S
N316 Co307 2.022 . S
N316 C313 1.351 . S
N316 N317 1.365 . S
N317 C314 1.341 . S
N317 N316 1.365 . S
N317 H337 0.862 . S
C318 C313 1.501 . S
C318 H319 0.961 . S
C318 H320 0.961 . S
C318 H321 0.960 . S
H319 C318 0.961 . S
H320 C318 0.961 . S
H321 C318 0.960 . S
C322 N323 1.342 . S
C322 C326 1.401 . S
C322 C327 1.499 . S
N323 Co306 1.989 . S
N323 C322 1.342 . S
N323 N324 1.388 . S
N324 Co307 1.993 . S
N324 N323 1.388 . S
N324 C325 1.346 . S
C325 N324 1.346 . S
C325 C326 1.396 . S
C325 C335 1.510 . S
C326 C322 1.401 . S
C326 C325 1.396 . S
C327 C322 1.499 . S
C327 H328 0.959 . S
C327 H329 0.960 . S
C327 H330 0.961 . S
H328 C327 0.959 . S
H329 C327 0.960 . S
H330 C327 0.961 . S
O331 Co306 1.967 . S
O331 C339 1.258 . S
O332 Co307 1.941 . S
O332 C339 1.266 . S
H333 C335 0.959 . S
H334 C335 0.961 . S
C335 C325 1.510 . S
C335 H333 0.959 . S
C335 H334 0.961 . S
C335 H336 0.960 . S
H336 C335 0.960 . S
H337 N317 0.862 . S
O338 Co306 1.920 . S
O338 C311 1.289 . S
C339 O331 1.258 . S
C339 O332 1.266 . S
Co340 O343 1.970 . S
Co340 N357 1.989 . S
Co340 O365 1.967 . S
Co340 O372 1.920 . S
Co341 O344 1.966 . S
Co341 N350 2.022 . S
Co341 N358 1.993 . S
Co341 O366 1.941 . S
C342 O343 1.258 . S
C342 O344 1.263 . S
O343 Co340 1.970 . S
O343 C342 1.258 . S
O344 Co341 1.966 . S
O344 C342 1.263 . S
C345 O346 1.235 . S
C345 O372 1.289 . S
O346 C345 1.235 . S
C347 C349 1.400 . S
C347 N350 1.351 . S
C347 C352 1.501 . S
C348 C349 1.387 . S
C348 N351 1.341 . S
C349 C347 1.400 . S
C349 C348 1.387 . S
N350 Co341 2.022 . S
N350 C347 1.351 . S
N350 N351 1.365 . S
N351 C348 1.341 . S
N351 N350 1.365 . S
N351 H371 0.862 . S
C352 C347 1.501 . S
C352 H353 0.961 . S
C352 H354 0.961 . S
C352 H355 0.960 . S
H353 C352 0.961 . S
H354 C352 0.961 . S
H355 C352 0.960 . S
C356 N357 1.342 . S
C356 C360 1.401 . S
C356 C361 1.499 . S
N357 Co340 1.989 . S
N357 C356 1.342 . S
N357 N358 1.388 . S
N358 Co341 1.993 . S
N358 N357 1.388 . S
N358 C359 1.346 . S
C359 N358 1.346 . S
C359 C360 1.396 . S
C359 C369 1.510 . S
C360 C356 1.401 . S
C360 C359 1.396 . S
C361 C356 1.499 . S
C361 H362 0.959 . S
C361 H363 0.960 . S
C361 H364 0.961 . S
H362 C361 0.959 . S
H363 C361 0.960 . S
H364 C361 0.961 . S
O365 Co340 1.967 . S
O365 C373 1.258 . S
O366 Co341 1.941 . S
O366 C373 1.266 . S
H367 C369 0.959 . S
H368 C369 0.961 . S
C369 C359 1.510 . S
C369 H367 0.959 . S
C369 H368 0.961 . S
C369 H370 0.960 . S
H370 C369 0.960 . S
H371 N351 0.862 . S
O372 Co340 1.920 . S
O372 C345 1.289 . S
C373 O365 1.258 . S
C373 O366 1.266 . S
Co374 O377 1.970 . S
Co374 N391 1.989 . S
Co374 O399 1.967 . S
Co374 O406 1.920 . S
Co375 O378 1.966 . S
Co375 N384 2.022 . S
Co375 N392 1.993 . S
Co375 O400 1.941 . S
C376 O377 1.258 . S
C376 O378 1.263 . S
O377 Co374 1.970 . S
O377 C376 1.258 . S
O378 Co375 1.966 . S
O378 C376 1.263 . S
C379 O380 1.235 . S
C379 O406 1.289 . S
O380 C379 1.235 . S
C381 C383 1.400 . S
C381 N384 1.351 . S
C381 C386 1.501 . S
C382 C383 1.387 . S
C382 N385 1.341 . S
C383 C381 1.400 . S
C383 C382 1.387 . S
N384 Co375 2.022 . S
N384 C381 1.351 . S
N384 N385 1.365 . S
N385 C382 1.341 . S
N385 N384 1.365 . S
N385 H405 0.862 . S
C386 C381 1.501 . S
C386 H387 0.961 . S
C386 H388 0.961 . S
C386 H389 0.960 . S
H387 C386 0.961 . S
H388 C386 0.961 . S
H389 C386 0.960 . S
C390 N391 1.342 . S
C390 C394 1.401 . S
C390 C395 1.499 . S
N391 Co374 1.989 . S
N391 C390 1.342 . S
N391 N392 1.388 . S
N392 Co375 1.993 . S
N392 N391 1.388 . S
N392 C393 1.346 . S
C393 N392 1.346 . S
C393 C394 1.396 . S
C393 C403 1.510 . S
C394 C390 1.401 . S
C394 C393 1.396 . S
C395 C390 1.499 . S
C395 H396 0.959 . S
C395 H397 0.960 . S
C395 H398 0.961 . S
H396 C395 0.959 . S
H397 C395 0.960 . S
H398 C395 0.961 . S
O399 Co374 1.967 . S
O399 C407 1.258 . S
O400 Co375 1.941 . S
O400 C407 1.266 . S
H401 C403 0.959 . S
H402 C403 0.961 . S
C403 C393 1.510 . S
C403 H401 0.959 . S
C403 H402 0.961 . S
C403 H404 0.960 . S
H404 C403 0.960 . S
H405 N385 0.862 . S
O406 Co374 1.920 . S
O406 C379 1.289 . S
C407 O399 1.258 . S
C407 O400 1.266 . S
Co408 O411 1.970 . S
Co408 N425 1.989 . S
Co408 O433 1.967 . S
Co408 O440 1.920 . S
Co409 O412 1.966 . S
Co409 N418 2.022 . S
Co409 N426 1.993 . S
Co409 O434 1.941 . S
C410 O411 1.258 . S
C410 O412 1.263 . S
O411 Co408 1.970 . S
O411 C410 1.258 . S
O412 Co409 1.966 . S
O412 C410 1.263 . S
C413 O414 1.235 . S
C413 O440 1.289 . S
O414 C413 1.235 . S
C415 C417 1.400 . S
C415 N418 1.351 . S
C415 C420 1.501 . S
C416 C417 1.387 . S
C416 N419 1.341 . S
C417 C415 1.400 . S
C417 C416 1.387 . S
N418 Co409 2.022 . S
N418 C415 1.351 . S
N418 N419 1.365 . S
N419 C416 1.341 . S
N419 N418 1.365 . S
N419 H439 0.862 . S
C420 C415 1.501 . S
C420 H421 0.961 . S
C420 H422 0.961 . S
C420 H423 0.960 . S
H421 C420 0.961 . S
H422 C420 0.961 . S
H423 C420 0.960 . S
C424 N425 1.342 . S
C424 C428 1.401 . S
C424 C429 1.499 . S
N425 Co408 1.989 . S
N425 C424 1.342 . S
N425 N426 1.388 . S
N426 Co409 1.993 . S
N426 N425 1.388 . S
N426 C427 1.346 . S
C427 N426 1.346 . S
C427 C428 1.396 . S
C427 C437 1.510 . S
C428 C424 1.401 . S
C428 C427 1.396 . S
C429 C424 1.499 . S
C429 H430 0.959 . S
C429 H431 0.960 . S
C429 H432 0.961 . S
H430 C429 0.959 . S
H431 C429 0.960 . S
H432 C429 0.961 . S
O433 Co408 1.967 . S
O433 C441 1.258 . S
O434 Co409 1.941 . S
O434 C441 1.266 . S
H435 C437 0.959 . S
H436 C437 0.961 . S
C437 C427 1.510 . S
C437 H435 0.959 . S
C437 H436 0.961 . S
C437 H438 0.960 . S
H438 C437 0.960 . S
H439 N419 0.862 . S
O440 Co408 1.920 . S
O440 C413 1.289 . S
C441 O433 1.258 . S
C441 O434 1.266 . S
Co442 O445 1.970 . S
Co442 N459 1.989 . S
Co442 O467 1.967 . S
Co442 O474 1.920 . S
Co443 O446 1.966 . S
Co443 N452 2.022 . S
Co443 N460 1.993 . S
Co443 O468 1.941 . S
C444 O445 1.258 . S
C444 O446 1.263 . S
O445 Co442 1.970 . S
O445 C444 1.258 . S
O446 Co443 1.966 . S
O446 C444 1.263 . S
C447 O448 1.235 . S
C447 O474 1.289 . S
O448 C447 1.235 . S
C449 C451 1.400 . S
C449 N452 1.351 . S
C449 C454 1.501 . S
C450 C451 1.387 . S
C450 N453 1.341 . S
C451 C449 1.400 . S
C451 C450 1.387 . S
N452 Co443 2.022 . S
N452 C449 1.351 . S
N452 N453 1.365 . S
N453 C450 1.341 . S
N453 N452 1.365 . S
N453 H473 0.862 . S
C454 C449 1.501 . S
C454 H455 0.961 . S
C454 H456 0.961 . S
C454 H457 0.960 . S
H455 C454 0.961 . S
H456 C454 0.961 . S
H457 C454 0.960 . S
C458 N459 1.342 . S
C458 C462 1.401 . S
C458 C463 1.499 . S
N459 Co442 1.989 . S
N459 C458 1.342 . S
N459 N460 1.388 . S
N460 Co443 1.993 . S
N460 N459 1.388 . S
N460 C461 1.346 . S
C461 N460 1.346 . S
C461 C462 1.396 . S
C461 C471 1.510 . S
C462 C458 1.401 . S
C462 C461 1.396 . S
C463 C458 1.499 . S
C463 H464 0.959 . S
C463 H465 0.960 . S
C463 H466 0.961 . S
H464 C463 0.959 . S
H465 C463 0.960 . S
H466 C463 0.961 . S
O467 Co442 1.967 . S
O467 C475 1.258 . S
O468 Co443 1.941 . S
O468 C475 1.266 . S
H469 C471 0.959 . S
H470 C471 0.961 . S
C471 C461 1.510 . S
C471 H469 0.959 . S
C471 H470 0.961 . S
C471 H472 0.960 . S
H472 C471 0.960 . S
H473 N453 0.862 . S
O474 Co442 1.920 . S
O474 C447 1.289 . S
C475 O467 1.258 . S
C475 O468 1.266 . S
Co476 O479 1.970 . S
Co476 N493 1.989 . S
Co476 O501 1.967 . S
Co476 O508 1.920 . S
Co477 O480 1.966 . S
Co477 N486 2.022 . S
Co477 N494 1.993 . S
Co477 O502 1.941 . S
C478 O479 1.258 . S
C478 O480 1.263 . S
O479 Co476 1.970 . S
O479 C478 1.258 . S
O480 Co477 1.966 . S
O480 C478 1.263 . S
C481 O482 1.235 . S
C481 O508 1.289 . S
O482 C481 1.235 . S
C483 C485 1.400 . S
C483 N486 1.351 . S
C483 C488 1.501 . S
C484 C485 1.387 . S
C484 N487 1.341 . S
C485 C483 1.400 . S
C485 C484 1.387 . S
N486 Co477 2.022 . S
N486 C483 1.351 . S
N486 N487 1.365 . S
N487 C484 1.341 . S
N487 N486 1.365 . S
N487 H507 0.862 . S
C488 C483 1.501 . S
C488 H489 0.961 . S
C488 H490 0.961 . S
C488 H491 0.960 . S
H489 C488 0.961 . S
H490 C488 0.961 . S
H491 C488 0.960 . S
C492 N493 1.342 . S
C492 C496 1.401 . S
C492 C497 1.499 . S
N493 Co476 1.989 . S
N493 C492 1.342 . S
N493 N494 1.388 . S
N494 Co477 1.993 . S
N494 N493 1.388 . S
N494 C495 1.346 . S
C495 N494 1.346 . S
C495 C496 1.396 . S
C495 C505 1.510 . S
C496 C492 1.401 . S
C496 C495 1.396 . S
C497 C492 1.499 . S
C497 H498 0.959 . S
C497 H499 0.960 . S
C497 H500 0.961 . S
H498 C497 0.959 . S
H499 C497 0.960 . S
H500 C497 0.961 . S
O501 Co476 1.967 . S
O501 C509 1.258 . S
O502 Co477 1.941 . S
O502 C509 1.266 . S
H503 C505 0.959 . S
H504 C505 0.961 . S
C505 C495 1.510 . S
C505 H503 0.959 . S
C505 H504 0.961 . S
C505 H506 0.960 . S
H506 C505 0.960 . S
H507 N487 0.862 . S
O508 Co476 1.920 . S
O508 C481 1.289 . S
C509 O501 1.258 . S
C509 O502 1.266 . S
Co510 O513 1.970 . S
Co510 N527 1.989 . S
Co510 O535 1.967 . S
Co510 O542 1.920 . S
Co511 O514 1.966 . S
Co511 N520 2.022 . S
Co511 N528 1.993 . S
Co511 O536 1.941 . S
C512 O513 1.258 . S
C512 O514 1.263 . S
O513 Co510 1.970 . S
O513 C512 1.258 . S
O514 Co511 1.966 . S
O514 C512 1.263 . S
C515 O516 1.235 . S
C515 O542 1.289 . S
O516 C515 1.235 . S
C517 C519 1.400 . S
C517 N520 1.351 . S
C517 C522 1.501 . S
C518 C519 1.387 . S
C518 N521 1.341 . S
C519 C517 1.400 . S
C519 C518 1.387 . S
N520 Co511 2.022 . S
N520 C517 1.351 . S
N520 N521 1.365 . S
N521 C518 1.341 . S
N521 N520 1.365 . S
N521 H541 0.862 . S
C522 C517 1.501 . S
C522 H523 0.961 . S
C522 H524 0.961 . S
C522 H525 0.960 . S
H523 C522 0.961 . S
H524 C522 0.961 . S
H525 C522 0.960 . S
C526 N527 1.342 . S
C526 C530 1.401 . S
C526 C531 1.499 . S
N527 Co510 1.989 . S
N527 C526 1.342 . S
N527 N528 1.388 . S
N528 Co511 1.993 . S
N528 N527 1.388 . S
N528 C529 1.346 . S
C529 N528 1.346 . S
C529 C530 1.396 . S
C529 C539 1.510 . S
C530 C526 1.401 . S
C530 C529 1.396 . S
C531 C526 1.499 . S
C531 H532 0.959 . S
C531 H533 0.960 . S
C531 H534 0.961 . S
H532 C531 0.959 . S
H533 C531 0.960 . S
H534 C531 0.961 . S
O535 Co510 1.967 . S
O535 C543 1.258 . S
O536 Co511 1.941 . S
O536 C543 1.266 . S
H537 C539 0.959 . S
H538 C539 0.961 . S
C539 C529 1.510 . S
C539 H537 0.959 . S
C539 H538 0.961 . S
C539 H540 0.960 . S
H540 C539 0.960 . S
H541 N521 0.862 . S
O542 Co510 1.920 . S
O542 C515 1.289 . S
C543 O535 1.258 . S
C543 O536 1.266 . S
H544 C550 0.930 . S
H545 C554 0.930 . S
H546 C559 0.929 . S
H547 C557 0.929 . S
H548 C552 0.929 . S
H549 C558 0.929 . S
C550 H544 0.930 . S
C550 C551 1.367 . S
C550 C558 1.378 . S
C551 C550 1.367 . S
C551 C559 1.433 . S
C552 H548 0.929 . S
C552 C554 1.378 . S
C552 C556 1.350 . S
C553 C556 1.463 . S
C553 C558 1.350 . S
C553 N561 1.427 . S
C554 H545 0.930 . S
C554 C552 1.378 . S
C554 C555 1.367 . S
C555 C554 1.367 . S
C555 C557 1.433 . S
C556 C552 1.350 . S
C556 C553 1.463 . S
C556 N560 1.427 . S
C557 H547 0.929 . S
C557 C555 1.433 . S
C557 N560 1.384 . S
C558 H549 0.929 . S
C558 C550 1.378 . S
C558 C553 1.350 . S
C559 H546 0.929 . S
C559 C551 1.433 . S
C559 N561 1.384 . S
N560 C556 1.427 . S
N560 C557 1.384 . S
N561 C553 1.427 . S
N561 C559 1.384 . S
H562 C568 0.930 . S
H563 C572 0.930 . S
H564 C577 0.929 . S
H565 C575 0.929 . S
H566 C570 0.929 . S
H567 C576 0.929 . S
C568 H562 0.930 . S
C568 C569 1.367 . S
C568 C576 1.378 . S
C569 C568 1.367 . S
C569 C577 1.433 . S
C570 H566 0.929 . S
C570 C572 1.378 . S
C570 C574 1.350 . S
C571 C574 1.463 . S
C571 C576 1.350 . S
C571 N579 1.427 . S
C572 H563 0.930 . S
C572 C570 1.378 . S
C572 C573 1.367 . S
C573 C572 1.367 . S
C573 C575 1.433 . S
C574 C570 1.350 . S
C574 C571 1.463 . S
C574 N578 1.427 . S
C575 H565 0.929 . S
C575 C573 1.433 . S
C575 N578 1.384 . S
C576 H567 0.929 . S
C576 C568 1.378 . S
C576 C571 1.350 . S
C577 H564 0.929 . S
C577 C569 1.433 . S
C577 N579 1.384 . S
N578 C574 1.427 . S
N578 C575 1.384 . S
N579 C571 1.427 . S
N579 C577 1.384 . S
H580 C586 0.930 . S
H581 C590 0.930 . S
H582 C595 0.929 . S
H583 C593 0.929 . S
H584 C588 0.929 . S
H585 C594 0.929 . S
C586 H580 0.930 . S
C586 C587 1.367 . S
C586 C594 1.378 . S
C587 C586 1.367 . S
C587 C595 1.433 . S
C588 H584 0.929 . S
C588 C590 1.378 . S
C588 C592 1.350 . S
C589 C592 1.463 . S
C589 C594 1.350 . S
C589 N597 1.427 . S
C590 H581 0.930 . S
C590 C588 1.378 . S
C590 C591 1.367 . S
C591 C590 1.367 . S
C591 C593 1.433 . S
C592 C588 1.350 . S
C592 C589 1.463 . S
C592 N596 1.427 . S
C593 H583 0.929 . S
C593 C591 1.433 . S
C593 N596 1.384 . S
C594 H585 0.929 . S
C594 C586 1.378 . S
C594 C589 1.350 . S
C595 H582 0.929 . S
C595 C587 1.433 . S
C595 N597 1.384 . S
N596 C592 1.427 . S
N596 C593 1.384 . S
N597 C589 1.427 . S
N597 C595 1.384 . S
H598 C604 0.930 . S
H599 C608 0.930 . S
H600 C613 0.929 . S
H601 C611 0.929 . S
H602 C606 0.929 . S
H603 C612 0.929 . S
C604 H598 0.930 . S
C604 C605 1.367 . S
C604 C612 1.378 . S
C605 C604 1.367 . S
C605 C613 1.433 . S
C606 H602 0.929 . S
C606 C608 1.378 . S
C606 C610 1.350 . S
C607 C610 1.463 . S
C607 C612 1.350 . S
C607 N615 1.427 . S
C608 H599 0.930 . S
C608 C606 1.378 . S
C608 C609 1.367 . S
C609 C608 1.367 . S
C609 C611 1.433 . S
C610 C606 1.350 . S
C610 C607 1.463 . S
C610 N614 1.427 . S
C611 H601 0.929 . S
C611 C609 1.433 . S
C611 N614 1.384 . S
C612 H603 0.929 . S
C612 C604 1.378 . S
C612 C607 1.350 . S
C613 H600 0.929 . S
C613 C605 1.433 . S
C613 N615 1.384 . S
N614 C610 1.427 . S
N614 C611 1.384 . S
N615 C607 1.427 . S
N615 C613 1.384 . S
H616 C622 0.930 . S
H617 C626 0.930 . S
H618 C631 0.929 . S
H619 C629 0.929 . S
H620 C624 0.929 . S
H621 C630 0.929 1_556 S
C622 H616 0.930 . S
C622 C623 1.367 . S
C622 C630 1.378 . S
C623 C622 1.367 . S
C623 C631 1.433 . S
C624 H620 0.929 . S
C624 C626 1.378 . S
C624 C628 1.350 . S
C625 C628 1.463 1_554 S
C625 C630 1.350 . S
C625 N633 1.427 . S
C626 H617 0.930 . S
C626 C624 1.378 . S
C626 C627 1.367 . S
C627 C626 1.367 . S
C627 C629 1.433 . S
C628 C624 1.350 . S
C628 C625 1.463 1_556 S
C628 N632 1.427 . S
C629 H619 0.929 . S
C629 C627 1.433 . S
C629 N632 1.384 . S
C630 H621 0.929 1_554 S
C630 C622 1.378 . S
C630 C625 1.350 . S
C631 H618 0.929 . S
C631 C623 1.433 . S
C631 N633 1.384 . S
N632 C628 1.427 . S
N632 C629 1.384 . S
N633 C625 1.427 . S
N633 C631 1.384 . S
H634 C640 0.930 . S
H635 C644 0.930 . S
H636 C649 0.929 . S
H637 C647 0.929 . S
H638 C642 0.896 1_556 S
H639 C648 0.940 . S
C640 H634 0.930 . S
C640 C641 1.367 . S
C640 C648 1.368 1_556 S
C641 C640 1.367 . S
C641 C649 1.433 . S
C642 H638 0.896 1_554 S
C642 C644 1.378 . S
C642 C646 1.350 . S
C643 C646 1.463 1_556 S
C643 C648 1.348 1_556 S
C643 N651 1.427 . S
C644 H635 0.930 . S
C644 C642 1.378 . S
C644 C645 1.367 . S
C645 C644 1.367 . S
C645 C647 1.433 . S
C646 C642 1.350 . S
C646 C643 1.463 1_554 S
C646 N650 1.427 . S
C647 H637 0.929 . S
C647 C645 1.433 . S
C647 N650 1.384 . S
C648 H639 0.940 . S
C648 C640 1.368 1_554 S
C648 C643 1.348 1_554 S
C649 H636 0.929 . S
C649 C641 1.433 . S
C649 N651 1.384 . S
N650 C646 1.427 . S
N650 C647 1.384 . S
N651 C643 1.427 . S
N651 C649 1.384 . S
H652 C658 0.930 . S
H653 C662 0.930 . S
H654 C667 0.929 . S
H655 C665 0.929 . S
H656 C660 0.929 . S
H657 C666 0.929 . S
C658 H652 0.930 . S
C658 C659 1.367 . S
C658 C666 1.378 . S
C659 C658 1.367 . S
C659 C667 1.433 . S
C660 H656 0.929 . S
C660 C662 1.378 . S
C660 C664 1.350 . S
C661 C664 1.463 1_556 S
C661 C666 1.350 . S
C661 N669 1.427 . S
C662 H653 0.930 . S
C662 C660 1.378 . S
C662 C663 1.367 . S
C663 C662 1.367 . S
C663 C665 1.433 . S
C664 C660 1.350 . S
C664 C661 1.463 1_554 S
C664 N668 1.425 1_554 S
C665 H655 0.929 . S
C665 C663 1.433 . S
C665 N668 1.371 1_554 S
C666 H657 0.929 . S
C666 C658 1.378 . S
C666 C661 1.350 . S
C667 H654 0.929 . S
C667 C659 1.433 . S
C667 N669 1.384 . S
N668 C664 1.425 1_556 S
N668 C665 1.371 1_556 S
N669 C661 1.427 . S
N669 C667 1.384 . S
H670 C676 0.930 . S
H671 C680 0.930 . S
H672 C685 0.929 . S
H673 C683 0.929 . S
H674 C678 0.914 1_554 S
H675 C684 0.952 . S
C676 H670 0.930 . S
C676 C677 1.367 . S
C676 C684 1.378 . S
C677 C676 1.367 . S
C677 C685 1.433 . S
C678 H674 0.914 1_556 S
C678 C680 1.391 . S
C678 C682 1.352 . S
C679 C682 1.463 1_554 S
C679 C684 1.350 . S
C679 N687 1.427 . S
C680 H671 0.930 . S
C680 C678 1.391 . S
C680 C681 1.367 . S
C681 C680 1.367 . S
C681 C683 1.433 . S
C682 C678 1.352 . S
C682 C679 1.463 1_556 S
C682 N686 1.427 . S
C683 H673 0.929 . S
C683 C681 1.433 . S
C683 N686 1.384 . S
C684 H675 0.952 . S
C684 C676 1.378 . S
C684 C679 1.350 . S
C685 H672 0.929 . S
C685 C677 1.433 . S
C685 N687 1.384 . S
N686 C682 1.427 . S
N686 C683 1.384 . S
N687 C679 1.427 . S
N687 C685 1.384 . S
H688 C694 0.930 . S
H689 C698 0.930 . S
H690 C703 0.929 . S
H691 C701 0.929 . S
H692 C696 0.929 . S
H693 C702 0.929 . S
C694 H688 0.930 . S
C694 C695 1.367 . S
C694 C702 1.378 . S
C695 C694 1.367 . S
C695 C703 1.433 . S
C696 H692 0.929 . S
C696 C698 1.378 . S
C696 C700 1.350 . S
C697 C700 1.463 . S
C697 C702 1.350 . S
C697 N705 1.427 . S
C698 H689 0.930 . S
C698 C696 1.378 . S
C698 C699 1.367 . S
C699 C698 1.367 . S
C699 C701 1.433 . S
C700 C696 1.350 . S
C700 C697 1.463 . S
C700 N704 1.427 . S
C701 H691 0.929 . S
C701 C699 1.433 . S
C701 N704 1.384 . S
C702 H693 0.929 . S
C702 C694 1.378 . S
C702 C697 1.350 . S
C703 H690 0.929 . S
C703 C695 1.433 . S
C703 N705 1.384 . S
N704 C700 1.427 . S
N704 C701 1.384 . S
N705 C697 1.427 . S
N705 C703 1.384 . S
H706 C712 0.930 . S
H707 C716 0.930 . S
H708 C721 0.929 . S
H709 C719 0.929 . S
H710 C714 0.929 . S
H711 C720 0.929 . S
C712 H706 0.930 . S
C712 C713 1.367 . S
C712 C720 1.378 . S
C713 C712 1.367 . S
C713 C721 1.433 . S
C714 H710 0.929 . S
C714 C716 1.378 . S
C714 C718 1.350 . S
C715 C718 1.463 . S
C715 C720 1.350 . S
C715 N723 1.427 . S
C716 H707 0.930 . S
C716 C714 1.378 . S
C716 C717 1.367 . S
C717 C716 1.367 . S
C717 C719 1.433 . S
C718 C714 1.350 . S
C718 C715 1.463 . S
C718 N722 1.427 . S
C719 H709 0.929 . S
C719 C717 1.433 . S
C719 N722 1.384 . S
C720 H711 0.929 . S
C720 C712 1.378 . S
C720 C715 1.350 . S
C721 H708 0.929 . S
C721 C713 1.433 . S
C721 N723 1.384 . S
N722 C718 1.427 . S
N722 C719 1.384 . S
N723 C715 1.427 . S
N723 C721 1.384 . S
H724 C730 0.930 . S
H725 C734 0.930 . S
H726 C739 0.929 . S
H727 C737 0.929 . S
H728 C732 0.929 . S
H729 C738 0.929 . S
C730 H724 0.930 . S
C730 C731 1.367 . S
C730 C738 1.378 . S
C731 C730 1.367 . S
C731 C739 1.433 . S
C732 H728 0.929 . S
C732 C734 1.378 . S
C732 C736 1.350 . S
C733 C736 1.463 . S
C733 C738 1.350 . S
C733 N741 1.427 . S
C734 H725 0.930 . S
C734 C732 1.378 . S
C734 C735 1.367 . S
C735 C734 1.367 . S
C735 C737 1.433 . S
C736 C732 1.350 . S
C736 C733 1.463 . S
C736 N740 1.427 . S
C737 H727 0.929 . S
C737 C735 1.433 . S
C737 N740 1.384 . S
C738 H729 0.929 . S
C738 C730 1.378 . S
C738 C733 1.350 . S
C739 H726 0.929 . S
C739 C731 1.433 . S
C739 N741 1.384 . S
N740 C736 1.427 . S
N740 C737 1.384 . S
N741 C733 1.427 . S
N741 C739 1.384 . S
H742 C748 0.930 . S
H743 C752 0.930 . S
H744 C757 0.929 . S
H745 C755 0.929 . S
H746 C750 0.929 . S
H747 C756 0.929 . S
C748 H742 0.930 . S
C748 C749 1.367 . S
C748 C756 1.378 . S
C749 C748 1.367 . S
C749 C757 1.433 . S
C750 H746 0.929 . S
C750 C752 1.378 . S
C750 C754 1.350 . S
C751 C754 1.463 . S
C751 C756 1.350 . S
C751 N759 1.427 . S
C752 H743 0.930 . S
C752 C750 1.378 . S
C752 C753 1.367 . S
C753 C752 1.367 . S
C753 C755 1.433 . S
C754 C750 1.350 . S
C754 C751 1.463 . S
C754 N758 1.427 . S
C755 H745 0.929 . S
C755 C753 1.433 . S
C755 N758 1.384 . S
C756 H747 0.929 . S
C756 C748 1.378 . S
C756 C751 1.350 . S
C757 H744 0.929 . S
C757 C749 1.433 . S
C757 N759 1.384 . S
N758 C754 1.427 . S
N758 C755 1.384 . S
N759 C751 1.427 . S
N759 C757 1.384 . S
H760 C766 0.930 . S
H761 C770 0.930 . S
H762 C775 0.929 . S
H763 C773 0.929 . S
H764 C768 0.929 . S
H765 C774 0.929 . S
C766 H760 0.930 . S
C766 C767 1.367 . S
C766 C774 1.378 . S
C767 C766 1.367 . S
C767 C775 1.433 . S
C768 H764 0.929 . S
C768 C770 1.378 . S
C768 C772 1.350 . S
C769 C772 1.463 . S
C769 C774 1.350 . S
C769 N777 1.427 . S
C770 H761 0.930 . S
C770 C768 1.378 . S
C770 C771 1.367 . S
C771 C770 1.367 . S
C771 C773 1.433 . S
C772 C768 1.350 . S
C772 C769 1.463 . S
C772 N776 1.427 . S
C773 H763 0.929 . S
C773 C771 1.433 . S
C773 N776 1.384 . S
C774 H765 0.929 . S
C774 C766 1.378 . S
C774 C769 1.350 . S
C775 H762 0.929 . S
C775 C767 1.433 . S
C775 N777 1.384 . S
N776 C772 1.427 . S
N776 C773 1.384 . S
N777 C769 1.427 . S
N777 C775 1.384 . S
H778 C784 0.930 . S
H779 C788 0.930 . S
H780 C793 0.929 . S
H781 C791 0.929 . S
H782 C786 0.929 . S
H783 C792 0.929 . S
C784 H778 0.930 . S
C784 C785 1.367 . S
C784 C792 1.378 . S
C785 C784 1.367 . S
C785 C793 1.433 . S
C786 H782 0.929 . S
C786 C788 1.378 . S
C786 C790 1.350 . S
C787 C790 1.463 . S
C787 C792 1.350 . S
C787 N795 1.427 . S
C788 H779 0.930 . S
C788 C786 1.378 . S
C788 C789 1.367 . S
C789 C788 1.367 . S
C789 C791 1.433 . S
C790 C786 1.350 . S
C790 C787 1.463 . S
C790 N794 1.427 . S
C791 H781 0.929 . S
C791 C789 1.433 . S
C791 N794 1.384 . S
C792 H783 0.929 . S
C792 C784 1.378 . S
C792 C787 1.350 . S
C793 H780 0.929 . S
C793 C785 1.433 . S
C793 N795 1.384 . S
N794 C790 1.427 . S
N794 C791 1.384 . S
N795 C787 1.427 . S
N795 C793 1.384 . S
H796 C802 0.930 . S
H797 C806 0.930 . S
H798 C811 0.929 . S
H799 C809 0.929 . S
H800 C804 0.929 . S
H801 C810 0.929 . S
C802 H796 0.930 . S
C802 C803 1.367 . S
C802 C810 1.378 . S
C803 C802 1.367 . S
C803 C811 1.433 . S
C804 H800 0.929 . S
C804 C806 1.378 . S
C804 C808 1.350 . S
C805 C808 1.463 . S
C805 C810 1.350 . S
C805 N813 1.427 . S
C806 H797 0.930 . S
C806 C804 1.378 . S
C806 C807 1.367 . S
C807 C806 1.367 . S
C807 C809 1.433 . S
C808 C804 1.350 . S
C808 C805 1.463 . S
C808 N812 1.427 . S
C809 H799 0.929 . S
C809 C807 1.433 . S
C809 N812 1.384 . S
C810 H801 0.929 . S
C810 C802 1.378 . S
C810 C805 1.350 . S
C811 H798 0.929 . S
C811 C803 1.433 . S
C811 N813 1.384 . S
N812 C808 1.427 . S
N812 C809 1.384 . S
N813 C805 1.427 . S
N813 C811 1.384 . S
H814 C820 0.930 . S
H815 C824 0.930 . S
H816 C829 0.929 . S
H817 C827 0.929 . S
H818 C822 0.929 . S
H819 C828 0.929 . S
C820 H814 0.930 . S
C820 C821 1.367 . S
C820 C828 1.378 . S
C821 C820 1.367 . S
C821 C829 1.433 . S
C822 H818 0.929 . S
C822 C824 1.378 . S
C822 C826 1.350 . S
C823 C826 1.463 . S
C823 C828 1.350 . S
C823 N831 1.427 . S
C824 H815 0.930 . S
C824 C822 1.378 . S
C824 C825 1.367 . S
C825 C824 1.367 . S
C825 C827 1.433 . S
C826 C822 1.350 . S
C826 C823 1.463 . S
C826 N830 1.427 . S
C827 H817 0.929 . S
C827 C825 1.433 . S
C827 N830 1.384 . S
C828 H819 0.929 . S
C828 C820 1.378 . S
C828 C823 1.350 . S
C829 H816 0.929 . S
C829 C821 1.433 . S
C829 N831 1.384 . S
N830 C826 1.427 . S
N830 C827 1.384 . S
N831 C823 1.427 . S
N831 C829 1.384 . S
H832 C838 0.930 . S
H833 C842 0.930 . S
H834 C847 0.929 . S
H835 C845 0.929 . S
H836 C840 0.929 . S
H837 C846 0.929 . S
C838 H832 0.930 . S
C838 C839 1.367 . S
C838 C846 1.378 . S
C839 C838 1.367 . S
C839 C847 1.433 1_455 S
C840 H836 0.929 . S
C840 C842 1.378 . S
C840 C844 1.350 . S
C841 C844 1.463 1_445 S
C841 C846 1.350 . S
C841 N849 1.427 1_455 S
C842 H833 0.930 . S
C842 C840 1.378 . S
C842 C843 1.367 . S
C843 C842 1.367 . S
C843 C845 1.433 1_655 S
C844 C840 1.350 . S
C844 C841 1.463 1_665 S
C844 N848 1.427 1_655 S
C845 H835 0.929 . S
C845 C843 1.433 1_455 S
C845 N848 1.384 . S
C846 H837 0.929 . S
C846 C838 1.378 . S
C846 C841 1.350 . S
C847 H834 0.929 . S
C847 C839 1.433 1_655 S
C847 N849 1.384 . S
N848 C844 1.427 1_455 S
N848 C845 1.384 . S
N849 C841 1.427 1_655 S
N849 C847 1.384 . S
H850 C856 0.930 . S
H851 C860 0.930 . S
H852 C865 0.929 . S
H853 C863 0.929 . S
H854 C858 0.929 . S
H855 C864 0.929 . S
C856 H850 0.930 . S
C856 C857 1.367 . S
C856 C864 1.378 . S
C857 C856 1.367 . S
C857 C865 1.433 1_565 S
C858 H854 0.929 . S
C858 C860 1.378 . S
C858 C862 1.350 . S
C859 C862 1.463 1_465 S
C859 C864 1.350 . S
C859 N867 1.427 1_565 S
C860 H851 0.930 . S
C860 C858 1.378 . S
C860 C861 1.367 . S
C861 C860 1.367 . S
C861 C863 1.433 1_545 S
C862 C858 1.350 . S
C862 C859 1.463 1_645 S
C862 N866 1.427 1_545 S
C863 H853 0.929 . S
C863 C861 1.433 1_565 S
C863 N866 1.384 . S
C864 H855 0.929 . S
C864 C856 1.378 . S
C864 C859 1.350 . S
C865 H852 0.929 . S
C865 C857 1.433 1_545 S
C865 N867 1.384 . S
N866 C862 1.427 1_565 S
N866 C863 1.384 . S
N867 C859 1.427 1_545 S
N867 C865 1.384 . S
H868 C874 0.930 . S
H869 C878 0.930 . S
H870 C883 0.929 . S
H871 C881 0.929 . S
H872 C876 0.929 . S
H873 C882 0.929 . S
C874 H868 0.930 . S
C874 C875 1.367 . S
C874 C882 1.378 . S
C875 C874 1.367 . S
C875 C883 1.433 1_655 S
C876 H872 0.929 . S
C876 C878 1.378 . S
C876 C880 1.350 . S
C877 C880 1.463 1_655 S
C877 C882 1.350 . S
C877 N885 1.427 1_655 S
C878 H869 0.930 . S
C878 C876 1.378 . S
C878 C879 1.367 . S
C879 C878 1.367 . S
C879 C881 1.433 1_455 S
C880 C876 1.350 . S
C880 C877 1.463 1_455 S
C880 N884 1.427 1_455 S
C881 H871 0.929 . S
C881 C879 1.433 1_655 S
C881 N884 1.384 . S
C882 H873 0.929 . S
C882 C874 1.378 . S
C882 C877 1.350 . S
C883 H870 0.929 . S
C883 C875 1.433 1_455 S
C883 N885 1.384 . S
N884 C880 1.427 1_655 S
N884 C881 1.384 . S
N885 C877 1.427 1_455 S
N885 C883 1.384 . S
H886 C892 0.930 . S
H887 C896 0.930 . S
H888 C901 0.929 . S
H889 C899 0.929 . S
H890 C894 0.929 . S
H891 C900 0.929 . S
C892 H886 0.930 . S
C892 C893 1.367 1_565 S
C892 C900 1.378 . S
C893 C892 1.367 1_545 S
C893 C901 1.433 . S
C894 H890 0.929 . S
C894 C896 1.378 . S
C894 C898 1.350 1_545 S
C895 C898 1.463 1_545 S
C895 C900 1.350 1_545 S
C895 N903 1.427 . S
C896 H887 0.930 . S
C896 C894 1.378 . S
C896 C897 1.367 1_545 S
C897 C896 1.367 1_565 S
C897 C899 1.433 . S
C898 C894 1.350 1_565 S
C898 C895 1.463 1_565 S
C898 N902 1.427 . S
C899 H889 0.929 . S
C899 C897 1.433 . S
C899 N902 1.384 . S
C900 H891 0.929 . S
C900 C892 1.378 . S
C900 C895 1.350 1_565 S
C901 H888 0.929 . S
C901 C893 1.433 . S
C901 N903 1.384 . S
N902 C898 1.427 . S
N902 C899 1.384 . S
N903 C895 1.427 . S
N903 C901 1.384 . S
H904 C910 0.930 . S
H905 C914 0.930 . S
H906 C919 0.929 . S
H907 C917 0.929 . S
H908 C912 0.929 . S
H909 C918 0.929 . S
C910 H904 0.930 . S
C910 C911 1.367 . S
C910 C918 1.378 . S
C911 C910 1.367 . S
C911 C919 1.433 . S
C912 H908 0.929 . S
C912 C914 1.378 . S
C912 C916 1.350 . S
C913 C916 1.463 . S
C913 C918 1.350 . S
C913 N921 1.427 . S
C914 H905 0.930 . S
C914 C912 1.378 . S
C914 C915 1.367 . S
C915 C914 1.367 . S
C915 C917 1.433 . S
C916 C912 1.350 . S
C916 C913 1.463 . S
C916 N920 1.427 . S
C917 H907 0.929 . S
C917 C915 1.433 . S
C917 N920 1.384 . S
C918 H909 0.929 . S
C918 C910 1.378 . S
C918 C913 1.350 . S
C919 H906 0.929 . S
C919 C911 1.433 . S
C919 N921 1.384 . S
N920 C916 1.427 . S
N920 C917 1.384 . S
N921 C913 1.427 . S
N921 C919 1.384 . S
H922 C928 0.930 . S
H923 C932 0.930 . S
H924 C937 0.929 . S
H925 C935 0.929 . S
H926 C930 0.929 . S
H927 C936 0.929 . S
C928 H922 0.930 . S
C928 C929 1.367 . S
C928 C936 1.378 . S
C929 C928 1.367 . S
C929 C937 1.433 . S
C930 H926 0.929 . S
C930 C932 1.378 . S
C930 C934 1.350 . S
C931 C934 1.463 . S
C931 C936 1.350 . S
C931 N939 1.427 . S
C932 H923 0.930 . S
C932 C930 1.378 . S
C932 C933 1.367 . S
C933 C932 1.367 . S
C933 C935 1.433 . S
C934 C930 1.350 . S
C934 C931 1.463 . S
C934 N938 1.427 . S
C935 H925 0.929 . S
C935 C933 1.433 . S
C935 N938 1.384 . S
C936 H927 0.929 . S
C936 C928 1.378 . S
C936 C931 1.350 . S
C937 H924 0.929 . S
C937 C929 1.433 . S
C937 N939 1.384 . S
N938 C934 1.427 . S
N938 C935 1.384 . S
N939 C931 1.427 . S
N939 C937 1.384 . S
H940 C946 0.930 . S
H941 C950 0.930 . S
H942 C955 0.929 . S
H943 C953 0.929 . S
H944 C948 0.929 . S
H945 C954 0.929 . S
C946 H940 0.930 . S
C946 C947 1.367 . S
C946 C954 1.378 . S
C947 C946 1.367 . S
C947 C955 1.433 . S
C948 H944 0.929 . S
C948 C950 1.378 . S
C948 C952 1.350 . S
C949 C952 1.463 1_565 S
C949 C954 1.350 . S
C949 N957 1.427 . S
C950 H941 0.930 . S
C950 C948 1.378 . S
C950 C951 1.367 . S
C951 C950 1.367 . S
C951 C953 1.433 . S
C952 C948 1.350 . S
C952 C949 1.463 1_545 S
C952 N956 1.427 . S
C953 H943 0.929 . S
C953 C951 1.433 . S
C953 N956 1.384 . S
C954 H945 0.929 . S
C954 C946 1.378 . S
C954 C949 1.350 . S
C955 H942 0.929 . S
C955 C947 1.433 . S
C955 N957 1.384 . S
N956 C952 1.427 . S
N956 C953 1.384 . S
N957 C949 1.427 . S
N957 C955 1.384 . S
H958 C964 0.930 . S
H959 C968 0.930 . S
H960 C973 0.929 . S
H961 C971 0.929 . S
H962 C966 0.929 . S
H963 C972 0.929 . S
C964 H958 0.930 . S
C964 C965 1.367 . S
C964 C972 1.378 . S
C965 C964 1.367 . S
C965 C973 1.433 . S
C966 H962 0.929 . S
C966 C968 1.378 . S
C966 C970 1.350 . S
C967 C970 1.463 1_455 S
C967 C972 1.350 . S
C967 N975 1.427 . S
C968 H959 0.930 . S
C968 C966 1.378 . S
C968 C969 1.367 . S
C969 C968 1.367 . S
C969 C971 1.433 . S
C970 C966 1.350 . S
C970 C967 1.463 1_655 S
C970 N974 1.427 . S
C971 H961 0.929 . S
C971 C969 1.433 . S
C971 N974 1.384 . S
C972 H963 0.929 . S
C972 C964 1.378 . S
C972 C967 1.350 . S
C973 H960 0.929 . S
C973 C965 1.433 . S
C973 N975 1.384 . S
N974 C970 1.427 . S
N974 C971 1.384 . S
N975 C967 1.427 . S
N975 C973 1.384 . S
H976 C982 0.930 . S
H977 C986 0.930 . S
H978 C991 0.929 . S
H979 C989 0.929 . S
H980 C984 0.929 . S
H981 C990 0.929 . S
C982 H976 0.930 . S
C982 C983 1.367 . S
C982 C990 1.378 . S
C983 C982 1.367 . S
C983 C991 1.433 . S
C984 H980 0.929 . S
C984 C986 1.378 . S
C984 C988 1.350 . S
C985 C988 1.463 1_655 S
C985 C990 1.350 . S
C985 N993 1.427 . S
C986 H977 0.930 . S
C986 C984 1.378 . S
C986 C987 1.367 . S
C987 C986 1.367 . S
C987 C989 1.433 . S
C988 C984 1.350 . S
C988 C985 1.463 1_455 S
C988 N992 1.427 . S
C989 H979 0.929 . S
C989 C987 1.433 . S
C989 N992 1.384 . S
C990 H981 0.929 . S
C990 C982 1.378 . S
C990 C985 1.350 . S
C991 H978 0.929 . S
C991 C983 1.433 . S
C991 N993 1.384 . S
N992 C988 1.427 . S
N992 C989 1.384 . S
N993 C985 1.427 . S
N993 C991 1.384 . S
H994 C1000 0.930 . S
H995 C1004 0.930 . S
H996 C1009 0.929 . S
H997 C1007 0.929 . S
H998 C1002 0.929 . S
H999 C1008 0.929 . S
C1000 H994 0.930 . S
C1000 C1001 1.367 1_545 S
C1000 C1008 1.378 . S
C1001 C1000 1.367 1_565 S
C1001 C1009 1.433 . S
C1002 H998 0.929 . S
C1002 C1004 1.378 . S
C1002 C1006 1.350 1_565 S
C1003 C1006 1.463 1_565 S
C1003 C1008 1.350 1_565 S
C1003 N1011 1.427 . S
C1004 H995 0.930 . S
C1004 C1002 1.378 . S
C1004 C1005 1.367 1_565 S
C1005 C1004 1.367 1_545 S
C1005 C1007 1.433 . S
C1006 C1002 1.350 1_545 S
C1006 C1003 1.463 1_545 S
C1006 N1010 1.427 . S
C1007 H997 0.929 . S
C1007 C1005 1.433 . S
C1007 N1010 1.384 . S
C1008 H999 0.929 . S
C1008 C1000 1.378 . S
C1008 C1003 1.350 1_545 S
C1009 H996 0.929 . S
C1009 C1001 1.433 . S
C1009 N1011 1.384 . S
N1010 C1006 1.427 . S
N1010 C1007 1.384 . S
N1011 C1003 1.427 . S
N1011 C1009 1.384 . S
H1012 C1018 0.930 . S
H1013 C1022 0.930 . S
H1014 C1027 0.929 . S
H1015 C1025 0.929 . S
H1016 C1020 0.929 . S
H1017 C1026 0.929 . S
C1018 H1012 0.930 . S
C1018 C1019 1.367 1_655 S
C1018 C1026 1.378 . S
C1019 C1018 1.367 1_455 S
C1019 C1027 1.433 . S
C1020 H1016 0.929 . S
C1020 C1022 1.378 . S
C1020 C1024 1.350 1_455 S
C1021 C1024 1.463 1_445 S
C1021 C1026 1.350 1_455 S
C1021 N1029 1.427 . S
C1022 H1013 0.930 . S
C1022 C1020 1.378 . S
C1022 C1023 1.367 1_455 S
C1023 C1022 1.367 1_655 S
C1023 C1025 1.433 . S
C1024 C1020 1.350 1_655 S
C1024 C1021 1.463 1_665 S
C1024 N1028 1.427 . S
C1025 H1015 0.929 . S
C1025 C1023 1.433 . S
C1025 N1028 1.384 . S
C1026 H1017 0.929 . S
C1026 C1018 1.378 . S
C1026 C1021 1.350 1_655 S
C1027 H1014 0.929 . S
C1027 C1019 1.433 . S
C1027 N1029 1.384 . S
N1028 C1024 1.427 . S
N1028 C1025 1.384 . S
N1029 C1021 1.427 . S
N1029 C1027 1.384 . S
H1030 C1036 0.930 . S
H1031 C1040 0.930 . S
H1032 C1045 0.929 . S
H1033 C1043 0.929 . S
H1034 C1038 0.929 . S
H1035 C1044 0.929 . S
C1036 H1030 0.930 . S
C1036 C1037 1.367 . S
C1036 C1044 1.378 . S
C1037 C1036 1.367 . S
C1037 C1045 1.433 1_545 S
C1038 H1034 0.929 . S
C1038 C1040 1.378 . S
C1038 C1042 1.350 . S
C1039 C1042 1.463 1_645 S
C1039 C1044 1.350 . S
C1039 N1047 1.427 1_545 S
C1040 H1031 0.930 . S
C1040 C1038 1.378 . S
C1040 C1041 1.367 . S
C1041 C1040 1.367 . S
C1041 C1043 1.433 1_565 S
C1042 C1038 1.350 . S
C1042 C1039 1.463 1_465 S
C1042 N1046 1.427 1_565 S
C1043 H1033 0.929 . S
C1043 C1041 1.433 1_545 S
C1043 N1046 1.384 . S
C1044 H1035 0.929 . S
C1044 C1036 1.378 . S
C1044 C1039 1.350 . S
C1045 H1032 0.929 . S
C1045 C1037 1.433 1_565 S
C1045 N1047 1.384 . S
N1046 C1042 1.427 1_545 S
N1046 C1043 1.384 . S
N1047 C1039 1.427 1_565 S
N1047 C1045 1.384 . S
H1048 C1054 0.930 . S
H1049 C1058 0.930 . S
H1050 C1063 0.929 . S
H1051 C1061 0.929 . S
H1052 C1056 0.929 . S
H1053 C1062 0.929 . S
C1054 H1048 0.930 . S
C1054 C1055 1.367 . S
C1054 C1062 1.378 . S
C1055 C1054 1.367 . S
C1055 C1063 1.433 . S
C1056 H1052 0.929 . S
C1056 C1058 1.378 . S
C1056 C1060 1.350 . S
C1057 C1060 1.463 1_545 S
C1057 C1062 1.350 . S
C1057 N1065 1.427 . S
C1058 H1049 0.930 . S
C1058 C1056 1.378 . S
C1058 C1059 1.367 . S
C1059 C1058 1.367 . S
C1059 C1061 1.433 . S
C1060 C1056 1.350 . S
C1060 C1057 1.463 1_565 S
C1060 N1064 1.427 . S
C1061 H1051 0.929 . S
C1061 C1059 1.433 . S
C1061 N1064 1.384 . S
C1062 H1053 0.929 . S
C1062 C1054 1.378 . S
C1062 C1057 1.350 . S
C1063 H1050 0.929 . S
C1063 C1055 1.433 . S
C1063 N1065 1.384 . S
N1064 C1060 1.427 . S
N1064 C1061 1.384 . S
N1065 C1057 1.427 . S
N1065 C1063 1.384 . S
H1066 C1072 0.930 . S
H1067 C1076 0.930 . S
H1068 C1081 0.929 . S
H1069 C1079 0.929 . S
H1070 C1074 0.929 . S
H1071 C1080 0.929 . S
C1072 H1066 0.930 . S
C1072 C1073 1.367 . S
C1072 C1080 1.378 . S
C1073 C1072 1.367 . S
C1073 C1081 1.433 . S
C1074 H1070 0.929 . S
C1074 C1076 1.378 . S
C1074 C1078 1.350 . S
C1075 C1078 1.463 1_655 S
C1075 C1080 1.350 . S
C1075 N1083 1.427 . S
C1076 H1067 0.930 . S
C1076 C1074 1.378 . S
C1076 C1077 1.367 . S
C1077 C1076 1.367 . S
C1077 C1079 1.433 . S
C1078 C1074 1.350 . S
C1078 C1075 1.463 1_455 S
C1078 N1082 1.427 . S
C1079 H1069 0.929 . S
C1079 C1077 1.433 . S
C1079 N1082 1.384 . S
C1080 H1071 0.929 . S
C1080 C1072 1.378 . S
C1080 C1075 1.350 . S
C1081 H1068 0.929 . S
C1081 C1073 1.433 . S
C1081 N1083 1.384 . S
N1082 C1078 1.427 . S
N1082 C1079 1.384 . S
N1083 C1075 1.427 . S
N1083 C1081 1.384 . S
H1084 C1090 0.930 . S
H1085 C1094 0.930 . S
H1086 C1099 0.929 . S
H1087 C1097 0.929 . S
H1088 C1092 0.929 . S
H1089 C1098 0.929 . S
C1090 H1084 0.930 . S
C1090 C1091 1.367 . S
C1090 C1098 1.378 . S
C1091 C1090 1.367 . S
C1091 C1099 1.433 . S
C1092 H1088 0.929 . S
C1092 C1094 1.378 . S
C1092 C1096 1.350 . S
C1093 C1096 1.463 . S
C1093 C1098 1.350 . S
C1093 N1101 1.427 . S
C1094 H1085 0.930 . S
C1094 C1092 1.378 . S
C1094 C1095 1.367 . S
C1095 C1094 1.367 . S
C1095 C1097 1.433 . S
C1096 C1092 1.350 . S
C1096 C1093 1.463 . S
C1096 N1100 1.427 . S
C1097 H1087 0.929 . S
C1097 C1095 1.433 . S
C1097 N1100 1.384 . S
C1098 H1089 0.929 . S
C1098 C1090 1.378 . S
C1098 C1093 1.350 . S
C1099 H1086 0.929 . S
C1099 C1091 1.433 . S
C1099 N1101 1.384 . S
N1100 C1096 1.427 . S
N1100 C1097 1.384 . S
N1101 C1093 1.427 . S
N1101 C1099 1.384 . S
H1102 C1108 0.930 . S
H1103 C1112 0.930 . S
H1104 C1117 0.929 . S
H1105 C1115 0.929 . S
H1106 C1110 0.929 . S
H1107 C1116 0.929 . S
C1108 H1102 0.930 . S
C1108 C1109 1.367 . S
C1108 C1116 1.378 . S
C1109 C1108 1.367 . S
C1109 C1117 1.433 . S
C1110 H1106 0.929 . S
C1110 C1112 1.378 . S
C1110 C1114 1.350 . S
C1111 C1114 1.463 . S
C1111 C1116 1.350 . S
C1111 N1119 1.427 . S
C1112 H1103 0.930 . S
C1112 C1110 1.378 . S
C1112 C1113 1.367 . S
C1113 C1112 1.367 . S
C1113 C1115 1.433 . S
C1114 C1110 1.350 . S
C1114 C1111 1.463 . S
C1114 N1118 1.427 . S
C1115 H1105 0.929 . S
C1115 C1113 1.433 . S
C1115 N1118 1.384 . S
C1116 H1107 0.929 . S
C1116 C1108 1.378 . S
C1116 C1111 1.350 . S
C1117 H1104 0.929 . S
C1117 C1109 1.433 . S
C1117 N1119 1.384 . S
N1118 C1114 1.427 . S
N1118 C1115 1.384 . S
N1119 C1111 1.427 . S
N1119 C1117 1.384 . S
H1120 C1126 0.930 . S
H1121 C1130 0.930 . S
H1122 C1135 0.929 . S
H1123 C1133 0.929 . S
H1124 C1128 0.929 . S
H1125 C1134 0.929 . S
C1126 H1120 0.930 . S
C1126 C1127 1.367 . S
C1126 C1134 1.378 . S
C1127 C1126 1.367 . S
C1127 C1135 1.433 . S
C1128 H1124 0.929 . S
C1128 C1130 1.378 . S
C1128 C1132 1.350 . S
C1129 C1132 1.463 . S
C1129 C1134 1.350 . S
C1129 N1137 1.427 . S
C1130 H1121 0.930 . S
C1130 C1128 1.378 . S
C1130 C1131 1.367 . S
C1131 C1130 1.367 . S
C1131 C1133 1.433 . S
C1132 C1128 1.350 . S
C1132 C1129 1.463 . S
C1132 N1136 1.427 . S
C1133 H1123 0.929 . S
C1133 C1131 1.433 . S
C1133 N1136 1.384 . S
C1134 H1125 0.929 . S
C1134 C1126 1.378 . S
C1134 C1129 1.350 . S
C1135 H1122 0.929 . S
C1135 C1127 1.433 . S
C1135 N1137 1.384 . S
N1136 C1132 1.427 . S
N1136 C1133 1.384 . S
N1137 C1129 1.427 . S
N1137 C1135 1.384 . S
H1138 C1144 0.930 . S
H1139 C1148 0.930 . S
H1140 C1153 0.929 . S
H1141 C1151 0.929 . S
H1142 C1146 0.929 . S
H1143 C1152 0.929 . S
C1144 H1138 0.930 . S
C1144 C1145 1.367 . S
C1144 C1152 1.378 . S
C1145 C1144 1.367 . S
C1145 C1153 1.433 . S
C1146 H1142 0.929 . S
C1146 C1148 1.378 . S
C1146 C1150 1.350 . S
C1147 C1150 1.463 . S
C1147 C1152 1.350 . S
C1147 N1155 1.427 . S
C1148 H1139 0.930 . S
C1148 C1146 1.378 . S
C1148 C1149 1.367 . S
C1149 C1148 1.367 . S
C1149 C1151 1.433 . S
C1150 C1146 1.350 . S
C1150 C1147 1.463 . S
C1150 N1154 1.427 . S
C1151 H1141 0.929 . S
C1151 C1149 1.433 . S
C1151 N1154 1.384 . S
C1152 H1143 0.929 . S
C1152 C1144 1.378 . S
C1152 C1147 1.350 . S
C1153 H1140 0.929 . S
C1153 C1145 1.433 . S
C1153 N1155 1.384 . S
N1154 C1150 1.427 . S
N1154 C1151 1.384 . S
N1155 C1147 1.427 . S
N1155 C1153 1.384 . S
H1156 C1162 0.930 . S
H1157 C1166 0.930 . S
H1158 C1171 0.929 . S
H1159 C1169 0.929 . S
H1160 C1164 0.929 . S
H1161 C1170 0.929 . S
C1162 H1156 0.930 . S
C1162 C1163 1.367 . S
C1162 C1170 1.378 . S
C1163 C1162 1.367 . S
C1163 C1171 1.433 . S
C1164 H1160 0.929 . S
C1164 C1166 1.378 . S
C1164 C1168 1.350 . S
C1165 C1168 1.463 . S
C1165 C1170 1.350 . S
C1165 N1173 1.427 . S
C1166 H1157 0.930 . S
C1166 C1164 1.378 . S
C1166 C1167 1.367 . S
C1167 C1166 1.367 . S
C1167 C1169 1.433 . S
C1168 C1164 1.350 . S
C1168 C1165 1.463 . S
C1168 N1172 1.427 . S
C1169 H1159 0.929 . S
C1169 C1167 1.433 . S
C1169 N1172 1.384 . S
C1170 H1161 0.929 . S
C1170 C1162 1.378 . S
C1170 C1165 1.350 . S
C1171 H1158 0.929 . S
C1171 C1163 1.433 . S
C1171 N1173 1.384 . S
N1172 C1168 1.427 . S
N1172 C1169 1.384 . S
N1173 C1165 1.427 . S
N1173 C1171 1.384 . S
H1174 C1180 0.930 . S
H1175 C1184 0.930 . S
H1176 C1189 0.929 . S
H1177 C1187 0.929 . S
H1178 C1182 0.929 . S
H1179 C1188 0.929 . S
C1180 H1174 0.930 . S
C1180 C1181 1.367 . S
C1180 C1188 1.378 . S
C1181 C1180 1.367 . S
C1181 C1189 1.433 . S
C1182 H1178 0.929 . S
C1182 C1184 1.378 . S
C1182 C1186 1.350 . S
C1183 C1186 1.463 . S
C1183 C1188 1.350 . S
C1183 N1191 1.427 . S
C1184 H1175 0.930 . S
C1184 C1182 1.378 . S
C1184 C1185 1.367 . S
C1185 C1184 1.367 . S
C1185 C1187 1.433 . S
C1186 C1182 1.350 . S
C1186 C1183 1.463 . S
C1186 N1190 1.427 . S
C1187 H1177 0.929 . S
C1187 C1185 1.433 . S
C1187 N1190 1.384 . S
C1188 H1179 0.929 . S
C1188 C1180 1.378 . S
C1188 C1183 1.350 . S
C1189 H1176 0.929 . S
C1189 C1181 1.433 . S
C1189 N1191 1.384 . S
N1190 C1186 1.427 . S
N1190 C1187 1.384 . S
N1191 C1183 1.427 . S
N1191 C1189 1.384 . S
H1192 C1198 0.930 . S
H1193 C1202 0.930 . S
H1194 C1207 0.929 . S
H1195 C1205 0.929 . S
H1196 C1200 0.929 . S
H1197 C1206 0.929 . S
C1198 H1192 0.930 . S
C1198 C1199 1.367 . S
C1198 C1206 1.378 . S
C1199 C1198 1.367 . S
C1199 C1207 1.433 . S
C1200 H1196 0.929 . S
C1200 C1202 1.378 . S
C1200 C1204 1.350 . S
C1201 C1204 1.463 . S
C1201 C1206 1.350 . S
C1201 N1209 1.427 . S
C1202 H1193 0.930 . S
C1202 C1200 1.378 . S
C1202 C1203 1.367 . S
C1203 C1202 1.367 . S
C1203 C1205 1.433 . S
C1204 C1200 1.350 . S
C1204 C1201 1.463 . S
C1204 N1208 1.427 . S
C1205 H1195 0.929 . S
C1205 C1203 1.433 . S
C1205 N1208 1.384 . S
C1206 H1197 0.929 . S
C1206 C1198 1.378 . S
C1206 C1201 1.350 . S
C1207 H1194 0.929 . S
C1207 C1199 1.433 . S
C1207 N1209 1.384 . S
N1208 C1204 1.427 . S
N1208 C1205 1.384 . S
N1209 C1201 1.427 . S
N1209 C1207 1.384 . S
H1210 C1216 0.930 . S
H1211 C1220 0.930 . S
H1212 C1225 0.929 . S
H1213 C1223 0.929 . S
H1214 C1218 0.929 . S
H1215 C1224 0.929 . S
C1216 H1210 0.930 . S
C1216 C1217 1.367 . S
C1216 C1224 1.378 . S
C1217 C1216 1.367 . S
C1217 C1225 1.433 . S
C1218 H1214 0.929 . S
C1218 C1220 1.378 . S
C1218 C1222 1.350 . S
C1219 C1222 1.463 . S
C1219 C1224 1.350 . S
C1219 N1227 1.427 . S
C1220 H1211 0.930 . S
C1220 C1218 1.378 . S
C1220 C1221 1.367 . S
C1221 C1220 1.367 . S
C1221 C1223 1.433 . S
C1222 C1218 1.350 . S
C1222 C1219 1.463 . S
C1222 N1226 1.427 . S
C1223 H1213 0.929 . S
C1223 C1221 1.433 . S
C1223 N1226 1.384 . S
C1224 H1215 0.929 . S
C1224 C1216 1.378 . S
C1224 C1219 1.350 . S
C1225 H1212 0.929 . S
C1225 C1217 1.433 . S
C1225 N1227 1.384 . S
N1226 C1222 1.427 . S
N1226 C1223 1.384 . S
N1227 C1219 1.427 . S
N1227 C1225 1.384 . S
H1228 C1234 0.930 . S
H1229 C1238 0.930 . S
H1230 C1243 0.929 . S
H1231 C1241 0.929 . S
H1232 C1236 0.929 . S
H1233 C1242 0.929 . S
C1234 H1228 0.930 . S
C1234 C1235 1.367 . S
C1234 C1242 1.378 . S
C1235 C1234 1.367 . S
C1235 C1243 1.433 . S
C1236 H1232 0.929 . S
C1236 C1238 1.378 . S
C1236 C1240 1.350 . S
C1237 C1240 1.463 . S
C1237 C1242 1.350 . S
C1237 N1245 1.427 . S
C1238 H1229 0.930 . S
C1238 C1236 1.378 . S
C1238 C1239 1.367 . S
C1239 C1238 1.367 . S
C1239 C1241 1.433 . S
C1240 C1236 1.350 . S
C1240 C1237 1.463 . S
C1240 N1244 1.427 . S
C1241 H1231 0.929 . S
C1241 C1239 1.433 . S
C1241 N1244 1.384 . S
C1242 H1233 0.929 . S
C1242 C1234 1.378 . S
C1242 C1237 1.350 . S
C1243 H1230 0.929 . S
C1243 C1235 1.433 . S
C1243 N1245 1.384 . S
N1244 C1240 1.427 . S
N1244 C1241 1.384 . S
N1245 C1237 1.427 . S
N1245 C1243 1.384 . S
H1246 C1252 0.930 . S
H1247 C1256 0.930 . S
H1248 C1261 0.929 . S
H1249 C1259 0.929 . S
H1250 C1254 0.929 . S
H1251 C1260 0.929 . S
C1252 H1246 0.930 . S
C1252 C1253 1.367 . S
C1252 C1260 1.378 . S
C1253 C1252 1.367 . S
C1253 C1261 1.433 . S
C1254 H1250 0.929 . S
C1254 C1256 1.378 . S
C1254 C1258 1.350 . S
C1255 C1258 1.463 . S
C1255 C1260 1.350 . S
C1255 N1263 1.427 . S
C1256 H1247 0.930 . S
C1256 C1254 1.378 . S
C1256 C1257 1.367 . S
C1257 C1256 1.367 . S
C1257 C1259 1.433 . S
C1258 C1254 1.350 . S
C1258 C1255 1.463 . S
C1258 N1262 1.427 . S
C1259 H1249 0.929 . S
C1259 C1257 1.433 . S
C1259 N1262 1.384 . S
C1260 H1251 0.929 . S
C1260 C1252 1.378 . S
C1260 C1255 1.350 . S
C1261 H1248 0.929 . S
C1261 C1253 1.433 . S
C1261 N1263 1.384 . S
N1262 C1258 1.427 . S
N1262 C1259 1.384 . S
N1263 C1255 1.427 . S
N1263 C1261 1.384 . S
C551 C33 0.829 . S
C555 C379 0.839 . S
C569 C277 0.824 . S
C573 C67 0.842 . S
C587 C311 0.835 . S
C591 C101 0.831 . S
C605 C345 0.841 . S
C609 C135 0.827 . S
C623 C175 0.827 . S
C627 C169 0.840 . S
C641 C209 0.837 . S
C645 C203 0.833 . S
C659 C237 0.836 . S
C663 C243 0.828 . S
C677 C271 0.831 . S
C681 C141 0.839 . S
C695 C305 0.832 . S
C699 C107 0.837 . S
C713 C339 0.839 . S
C717 C5 0.825 . S
C731 C39 0.824 . S
C735 C373 0.842 . S
C749 C407 0.840 . S
C753 C73 0.826 . S
C767 C447 0.825 . S
C771 C441 0.839 . S
C785 C481 0.842 . S
C789 C475 0.828 . S
C803 C515 0.827 . S
C807 C509 0.840 . S
C821 C543 0.828 . S
C825 C413 0.841 . S
C839 C20 1.353 . S
C843 C88 1.352 . S
C857 C54 1.352 . S
C861 C122 1.353 . S
C875 C224 1.353 . S
C879 C156 1.352 . S
C893 C258 1.348 . S
C897 C190 1.349 . S
C911 C360 1.351 . S
C915 C292 1.353 . S
C929 C326 1.349 . S
C933 C394 1.351 . S
C947 C428 1.350 . S
C951 C496 1.348 . S
C965 C530 1.353 . S
C969 C462 1.351 . S
C983 C70 1.151 . S
C987 C2 1.165 . S
C1001 C36 1.160 . S
C1005 C104 1.160 . S
C1019 C138 1.153 . S
C1023 C206 1.165 . S
C1037 C240 1.151 . S
C1041 C172 1.164 . S
C1055 C342 1.164 . S
C1059 C274 1.151 . S
C1073 C308 1.151 . S
C1077 C376 1.165 . S
C1091 C410 1.154 . S
C1095 C478 1.164 . S
C1109 C512 1.151 . S
C1113 C444 1.165 . S
C1127 C485 1.482 . S
C1131 C9 1.482 . S
C1145 C43 1.493 . S
C1149 C519 1.493 . S
C1163 C77 1.484 . S
C1167 C417 1.484 . S
C1181 C111 1.493 . S
C1185 C451 1.493 . S
C1199 C145 1.483 . S
C1203 C349 1.483 . S
C1217 C383 1.492 . S
C1221 C179 1.493 . S
C1235 C213 1.480 . S
C1239 C281 1.480 . S
C1253 C247 1.482 . S
C1257 C315 1.483 . S
