# Generated by pormake.
# Topology zfr, (5)-cn, num edge types: 1
# Building blocks:
#     Node 0, Type 0, BuildingBlock: BEQFEK_clean_sbu_0, # of connection points: 5
#     Node 1, Type 0, BuildingBlock: BEQFEK_clean_sbu_0, # of connection points: 5
#     Node 2, Type 0, BuildingBlock: BEQFEK_clean_sbu_0, # of connection points: 5
#     Node 3, Type 0, BuildingBlock: BEQFEK_clean_sbu_0, # of connection points: 5
#     Node 4, Type 0, BuildingBlock: BEQFEK_clean_sbu_0, # of connection points: 5
#     Node 5, Type 0, BuildingBlock: BEQFEK_clean_sbu_0, # of connection points: 5
#     Node 6, Type 0, BuildingBlock: BEQFEK_clean_sbu_0, # of connection points: 5
#     Node 7, Type 0, BuildingBlock: BEQFEK_clean_sbu_0, # of connection points: 5
#     Edge 8, Type (0, 0), BuildingBlock: UVAHIK_clean_linker_0, # of connection points: 2
#     Edge 9, Type (0, 0), BuildingBlock: UVAHIK_clean_linker_0, # of connection points: 2
#     Edge 10, Type (0, 0), BuildingBlock: UVAHIK_clean_linker_0, # of connection points: 2
#     Edge 11, Type (0, 0), BuildingBlock: UVAHIK_clean_linker_0, # of connection points: 2
#     Edge 12, Type (0, 0), BuildingBlock: UVAHIK_clean_linker_0, # of connection points: 2
#     Edge 13, Type (0, 0), BuildingBlock: UVAHIK_clean_linker_0, # of connection points: 2
#     Edge 14, Type (0, 0), BuildingBlock: UVAHIK_clean_linker_0, # of connection points: 2
#     Edge 15, Type (0, 0), BuildingBlock: UVAHIK_clean_linker_0, # of connection points: 2
#     Edge 16, Type (0, 0), BuildingBlock: UVAHIK_clean_linker_0, # of connection points: 2
#     Edge 17, Type (0, 0), BuildingBlock: UVAHIK_clean_linker_0, # of connection points: 2
#     Edge 18, Type (0, 0), BuildingBlock: UVAHIK_clean_linker_0, # of connection points: 2
#     Edge 19, Type (0, 0), BuildingBlock: UVAHIK_clean_linker_0, # of connection points: 2
#     Edge 20, Type (0, 0), BuildingBlock: UVAHIK_clean_linker_0, # of connection points: 2
#     Edge 21, Type (0, 0), BuildingBlock: UVAHIK_clean_linker_0, # of connection points: 2
#     Edge 22, Type (0, 0), BuildingBlock: UVAHIK_clean_linker_0, # of connection points: 2
#     Edge 23, Type (0, 0), BuildingBlock: UVAHIK_clean_linker_0, # of connection points: 2
#     Edge 24, Type (0, 0), BuildingBlock: UVAHIK_clean_linker_0, # of connection points: 2
#     Edge 25, Type (0, 0), BuildingBlock: UVAHIK_clean_linker_0, # of connection points: 2
#     Edge 26, Type (0, 0), BuildingBlock: UVAHIK_clean_linker_0, # of connection points: 2
#     Edge 27, Type (0, 0), BuildingBlock: UVAHIK_clean_linker_0, # of connection points: 2
# Relax obj value: 0.263
# Max RMSD: 0.225
# Mean RMSD: 0.224
data_MOF--net-zfr--node1-BEQFEK_clean_sbu_0--edge1-UVAHIK_clean_linker_0
_symmetry_space_group_name_H-M    P1
_symmetry_Int_Tables_number       1
_symmetry_cell_setting            triclinic
loop_
_symmetry_equiv_pos_as_xyz
'x, y, z'
_cell_length_a     64.87489
_cell_length_b     64.802376
_cell_length_c     22.436339
_cell_angle_alpha  90.028548
_cell_angle_beta   90.01955
_cell_angle_gamma 89.970541
loop_
_atom_site_label
_atom_site_type_symbol
_atom_site_fract_x
_atom_site_fract_y
_atom_site_fract_z
_atom_type_partial_charge
Co0 Co 0.1326 0.34934 0.14495 0.0
Co1 Co 0.11166 0.34663 0.26949 0.0
C2 C 0.12439 0.38718 0.2154 0.0
O3 O 0.13168 0.3786 0.16903 0.0
O4 O 0.11621 0.3766 0.25681 0.0
C5 C 0.15888 0.36143 0.04759 0.0
O6 O 0.16236 0.37821 0.07886 0.0
C7 C 0.11269 0.3532 0.39613 0.0
C8 C 0.08948 0.33138 0.43097 0.0
C9 C 0.1042 0.3457 0.44838 0.0
N10 N 0.10349 0.34377 0.35006 0.0
N11 N 0.08936 0.33099 0.3709 0.0
C12 C 0.13124 0.3668 0.38978 0.0
H13 H 0.1387 0.36442 0.34584 0.0
H14 H 0.14261 0.36359 0.42558 0.0
H15 H 0.12639 0.38316 0.3934 0.0
C16 C 0.16098 0.31941 0.20012 0.0
N17 N 0.14494 0.33253 0.20311 0.0
N18 N 0.13615 0.33105 0.25574 0.0
C19 C 0.14643 0.31689 0.28829 0.0
C20 C 0.1625 0.30903 0.25404 0.0
C21 C 0.17308 0.31549 0.14442 0.0
H22 H 0.16232 0.3123 0.1071 0.0
H23 H 0.18198 0.32955 0.13293 0.0
H24 H 0.18375 0.30223 0.14918 0.0
O25 O 0.10449 0.3394 0.12862 0.0
O26 O 0.08915 0.33671 0.21671 0.0
H27 H 0.12468 0.30637 0.35336 0.0
H28 H 0.15097 0.29875 0.36902 0.0
C29 C 0.14106 0.31119 0.35111 0.0
H30 H 0.14315 0.32482 0.38012 0.0
H31 H 0.08028 0.32141 0.34429 0.0
O32 O 0.14746 0.34735 0.06896 0.0
C33 C 0.08885 0.33483 0.16016 0.0
Co34 Co 0.64174 0.13407 0.41119 0.0
Co35 Co 0.64644 0.11037 0.531 0.0
C36 C 0.60508 0.12455 0.48249 0.0
O37 O 0.61292 0.13358 0.43766 0.0
O38 O 0.61631 0.11487 0.5197 0.0
C39 C 0.62932 0.15806 0.30894 0.0
O40 O 0.61068 0.15744 0.33171 0.0
C41 C 0.64208 0.11135 0.65814 0.0
C42 C 0.66443 0.08809 0.68989 0.0
C43 C 0.65119 0.10352 0.70913 0.0
N44 N 0.65006 0.10155 0.61086 0.0
N45 N 0.66307 0.08731 0.62995 0.0
C46 C 0.62625 0.12814 0.65348 0.0
H47 H 0.61262 0.12221 0.62919 0.0
H48 H 0.63263 0.14122 0.62743 0.0
H49 H 0.62094 0.13359 0.6977 0.0
C50 C 0.67072 0.16249 0.46958 0.0
N51 N 0.65887 0.14547 0.46966 0.0
N52 N 0.66182 0.13515 0.51936 0.0
C53 C 0.67621 0.14508 0.55203 0.0
C54 C 0.68212 0.16278 0.52173 0.0
C55 C 0.67203 0.17728 0.41852 0.0
H56 H 0.67815 0.16907 0.37888 0.0
H57 H 0.65635 0.18291 0.4073 0.0
H58 H 0.6822 0.19057 0.42869 0.0
O59 O 0.65111 0.10581 0.39056 0.0
O60 O 0.65596 0.08882 0.4753 0.0
H61 H 0.6873 0.12103 0.6092 0.0
H62 H 0.6984 0.14603 0.62446 0.0
C63 C 0.68417 0.13782 0.61102 0.0
H64 H 0.67235 0.14079 0.64552 0.0
H65 H 0.67183 0.07787 0.60203 0.0
O66 O 0.64419 0.14987 0.3371 0.0
C67 C 0.6565 0.08959 0.4186 0.0
Co68 Co 0.8609 0.64451 0.65278 0.0
Co69 Co 0.8839 0.64828 0.77438 0.0
C70 C 0.8723 0.60713 0.72064 0.0
O71 O 0.86387 0.61533 0.67534 0.0
O72 O 0.88048 0.61811 0.76129 0.0
C73 C 0.83592 0.63133 0.55373 0.0
O74 O 0.83452 0.61375 0.58251 0.0
C75 C 0.88349 0.64188 0.90087 0.0
C76 C 0.90697 0.66354 0.93505 0.0
C77 C 0.8922 0.64935 0.9529 0.0
N78 N 0.89263 0.65117 0.85453 0.0
N79 N 0.90692 0.66387 0.87496 0.0
C80 C 0.86488 0.62833 0.89499 0.0
H81 H 0.85739 0.63056 0.85103 0.0
H82 H 0.85359 0.63168 0.93086 0.0
H83 H 0.86969 0.61196 0.8989 0.0
C84 C 0.83115 0.67152 0.71397 0.0
N85 N 0.84844 0.66006 0.71336 0.0
N86 N 0.85853 0.6627 0.76365 0.0
C87 C 0.84811 0.67637 0.79759 0.0
C88 C 0.83039 0.68225 0.76734 0.0
C89 C 0.81677 0.67342 0.66213 0.0
H90 H 0.82524 0.67999 0.62361 0.0
H91 H 0.81128 0.65785 0.64904 0.0
H92 H 0.80338 0.68345 0.67248 0.0
O93 O 0.88822 0.65615 0.63427 0.0
O94 O 0.90529 0.65919 0.7196 0.0
H95 H 0.87177 0.68758 0.85596 0.0
H96 H 0.84641 0.69767 0.87225 0.0
C97 C 0.85511 0.68388 0.85742 0.0
H98 H 0.85261 0.67155 0.89082 0.0
H99 H 0.91597 0.67337 0.84809 0.0
O100 O 0.84532 0.64638 0.57776 0.0
C101 C 0.90428 0.66132 0.66321 0.0
Co102 Co 0.3482 0.86224 0.90868 0.0
Co103 Co 0.34687 0.88483 0.03127 0.0
C104 C 0.38672 0.87124 0.97668 0.0
O105 O 0.37764 0.86393 0.93109 0.0
O106 O 0.37665 0.8796 0.01889 0.0
C107 C 0.36051 0.83729 0.80828 0.0
O108 O 0.37876 0.83687 0.83361 0.0
C109 C 0.35253 0.88675 0.15884 0.0
C110 C 0.32938 0.90987 0.1866 0.0
C111 C 0.34369 0.89588 0.20849 0.0
N112 N 0.3437 0.89479 0.11004 0.0
N113 N 0.33023 0.90897 0.1267 0.0
C114 C 0.3668 0.86856 0.15747 0.0
H115 H 0.36546 0.8602 0.1145 0.0
H116 H 0.36338 0.85776 0.19454 0.0
H117 H 0.38289 0.87407 0.16258 0.0
C118 C 0.31937 0.83431 0.9695 0.0
N119 N 0.33209 0.85068 0.96949 0.0
N120 N 0.33101 0.86018 0.02122 0.0
C121 C 0.31747 0.85 0.0562 0.0
C122 C 0.30968 0.83327 0.02452 0.0
C123 C 0.31532 0.82123 0.91573 0.0
H124 H 0.31142 0.83131 0.87741 0.0
H125 H 0.32953 0.81258 0.90413 0.0
H126 H 0.30247 0.81024 0.92294 0.0
O127 O 0.33753 0.88985 0.88932 0.0
O128 O 0.33744 0.9067 0.97559 0.0
H129 H 0.30776 0.87232 0.12088 0.0
H130 H 0.30024 0.84621 0.13883 0.0
C131 C 0.3125 0.8559 0.11916 0.0
H132 H 0.32642 0.8539 0.147 0.0
H133 H 0.3208 0.91715 0.09733 0.0
O134 O 0.34566 0.84626 0.83455 0.0
C135 C 0.33415 0.90608 0.91966 0.0
Co136 Co 0.13106 0.64627 0.33933 0.0
Co137 Co 0.10951 0.64893 0.21557 0.0
C138 C 0.12255 0.60839 0.26997 0.0
O139 O 0.13004 0.61694 0.31613 0.0
O140 O 0.11419 0.61899 0.22883 0.0
C141 C 0.15735 0.63475 0.43719 0.0
O142 O 0.16068 0.61774 0.40682 0.0
C143 C 0.11145 0.64268 0.08928 0.0
C144 C 0.08702 0.66293 0.05343 0.0
C145 C 0.10275 0.64963 0.03667 0.0
N146 N 0.10139 0.65142 0.13492 0.0
N147 N 0.08656 0.66328 0.1135 0.0
C148 C 0.13069 0.63012 0.09649 0.0
H149 H 0.13764 0.63266 0.14105 0.0
H150 H 0.14212 0.6341 0.06155 0.0
H151 H 0.12681 0.61353 0.09204 0.0
C152 C 0.16018 0.67474 0.28097 0.0
N153 N 0.14336 0.66262 0.28015 0.0
N154 N 0.13413 0.66429 0.22813 0.0
C155 C 0.14485 0.67768 0.19414 0.0
C156 C 0.1617 0.68455 0.2264 0.0
C157 C 0.17434 0.67688 0.33321 0.0
H158 H 0.16579 0.68389 0.37096 0.0
H159 H 0.1796 0.66136 0.34748 0.0
H160 H 0.18793 0.68658 0.32244 0.0
O161 O 0.10295 0.65634 0.35592 0.0
O162 O 0.08718 0.65903 0.26845 0.0
H163 H 0.14598 0.69991 0.12234 0.0
H164 H 0.14284 0.67349 0.09985 0.0
C165 C 0.13838 0.6851 0.13378 0.0
H166 H 0.12145 0.68724 0.13238 0.0
H167 H 0.07672 0.67222 0.13972 0.0
O168 O 0.14607 0.6488 0.41499 0.0
C169 C 0.08715 0.66093 0.32499 0.0
Co170 Co 0.34425 0.12895 0.57375 0.0
Co171 Co 0.34558 0.10604 0.45169 0.0
C172 C 0.38409 0.12038 0.51491 0.0
O173 O 0.37412 0.12857 0.55755 0.0
O174 O 0.37481 0.11115 0.47267 0.0
C175 C 0.35234 0.15656 0.67119 0.0
O176 O 0.36986 0.16028 0.64389 0.0
C177 C 0.35332 0.10847 0.32579 0.0
C178 C 0.33453 0.08314 0.28853 0.0
C179 C 0.34645 0.10003 0.27266 0.0
N180 N 0.34526 0.09756 0.37088 0.0
N181 N 0.33442 0.08213 0.34853 0.0
C182 C 0.36706 0.12684 0.3343 0.0
H183 H 0.37914 0.12321 0.36752 0.0
H184 H 0.3579 0.13997 0.35182 0.0
H185 H 0.37473 0.1314 0.29216 0.0
C186 C 0.31679 0.15673 0.50749 0.0
N187 N 0.32946 0.14034 0.51031 0.0
N188 N 0.32911 0.13038 0.4592 0.0
C189 C 0.31582 0.1401 0.42231 0.0
C190 C 0.30786 0.15715 0.45156 0.0
C191 C 0.3131 0.17138 0.5579 0.0
H192 H 0.30518 0.16311 0.59462 0.0
H193 H 0.3281 0.177 0.57518 0.0
H194 H 0.30357 0.18475 0.54386 0.0
O195 O 0.33414 0.10068 0.58976 0.0
O196 O 0.33492 0.0838 0.50343 0.0
H197 H 0.30823 0.11515 0.36328 0.0
H198 H 0.2937 0.1385 0.35044 0.0
C199 C 0.30904 0.13221 0.36278 0.0
H200 H 0.32023 0.13717 0.32845 0.0
H201 H 0.32605 0.07163 0.37412 0.0
O202 O 0.33929 0.14454 0.6473 0.0
C203 C 0.33113 0.08441 0.5591 0.0
Co204 Co 0.86208 0.34821 0.83488 0.0
Co205 Co 0.8852 0.34478 0.71339 0.0
C206 C 0.87332 0.38577 0.76762 0.0
O207 O 0.86494 0.37742 0.81274 0.0
O208 O 0.88158 0.37493 0.72677 0.0
C209 C 0.83701 0.36116 0.93394 0.0
O210 O 0.83553 0.37877 0.90528 0.0
C211 C 0.88507 0.35127 0.58685 0.0
C212 C 0.90862 0.32958 0.55318 0.0
C213 C 0.89388 0.34377 0.535 0.0
N214 N 0.89411 0.34198 0.63339 0.0
N215 N 0.90844 0.32927 0.61326 0.0
C216 C 0.86646 0.36485 0.59236 0.0
H217 H 0.85888 0.36264 0.63618 0.0
H218 H 0.85523 0.36152 0.55628 0.0
H219 H 0.87128 0.38122 0.58854 0.0
C220 C 0.83244 0.32136 0.77286 0.0
N221 N 0.84976 0.33273 0.77392 0.0
N222 N 0.85986 0.33024 0.7236 0.0
C223 C 0.84941 0.31675 0.68917 0.0
C224 C 0.83166 0.31084 0.71914 0.0
C225 C 0.81798 0.3194 0.82449 0.0
H226 H 0.82645 0.31293 0.8632 0.0
H227 H 0.81235 0.33495 0.83737 0.0
H228 H 0.80469 0.30927 0.81405 0.0
O229 O 0.88942 0.33666 0.85355 0.0
O230 O 0.90658 0.33389 0.76834 0.0
H231 H 0.87301 0.30584 0.63013 0.0
H232 H 0.84766 0.2958 0.61372 0.0
C233 C 0.85634 0.30953 0.62899 0.0
H234 H 0.85376 0.322 0.59609 0.0
H235 H 0.91743 0.31975 0.64032 0.0
O236 O 0.84646 0.34617 0.90977 0.0
C237 C 0.90553 0.33163 0.82468 0.0
Co238 Co 0.64604 0.86309 0.08236 0.0
Co239 Co 0.64844 0.88578 0.96011 0.0
C240 C 0.60806 0.87228 0.01463 0.0
O241 O 0.61675 0.86451 0.06015 0.0
O242 O 0.61851 0.88085 0.97355 0.0
C243 C 0.63448 0.83709 0.18087 0.0
O244 O 0.61719 0.8343 0.15148 0.0
C245 C 0.64196 0.88473 0.83367 0.0
C246 C 0.66247 0.90912 0.799 0.0
C247 C 0.64901 0.89363 0.78145 0.0
N248 N 0.65081 0.89443 0.87981 0.0
N249 N 0.6628 0.90926 0.85908 0.0
C250 C 0.62926 0.86553 0.83998 0.0
H251 H 0.63188 0.85824 0.88404 0.0
H252 H 0.63305 0.85429 0.80428 0.0
H253 H 0.61271 0.86961 0.83617 0.0
C254 C 0.67374 0.83404 0.02102 0.0
N255 N 0.66199 0.85113 0.02186 0.0
N256 N 0.66411 0.86114 0.97124 0.0
C257 C 0.67778 0.85089 0.93688 0.0
C258 C 0.68414 0.83333 0.96717 0.0
C259 C 0.67591 0.81957 0.0726 0.0
H260 H 0.66049 0.81351 0.08489 0.0
H261 H 0.68642 0.80655 0.06236 0.0
H262 H 0.682 0.82817 0.11159 0.0
O263 O 0.65634 0.89105 0.1001 0.0
O264 O 0.65826 0.90794 0.01422 0.0
H265 H 0.69882 0.84967 0.86175 0.0
H266 H 0.67235 0.85408 0.84348 0.0
C267 C 0.6846 0.85769 0.87624 0.0
H268 H 0.68732 0.87457 0.87611 0.0
H269 H 0.67187 0.91883 0.88576 0.0
O270 O 0.64876 0.84777 0.15755 0.0
C271 C 0.66057 0.90727 0.07059 0.0
C272 C 0.27287 0.17276 0.45435 0.0
C273 C 0.29253 0.17185 0.4289 0.0
C274 C 0.2583 0.18673 0.43266 0.0
C275 C 0.24759 0.22174 0.30389 0.0
H276 H 0.20918 0.24646 0.41553 0.0
C277 C 0.19839 0.29548 0.26271 0.0
C278 C 0.17712 0.29249 0.26995 0.0
C279 C 0.21226 0.27998 0.27897 0.0
C280 C 0.21979 0.23956 0.38399 0.0
H281 H 0.31276 0.1844 0.36159 0.0
H282 H 0.28782 0.20968 0.32547 0.0
H283 H 0.23414 0.2212 0.45107 0.0
H284 H 0.15351 0.27084 0.29731 0.0
H285 H 0.17791 0.24408 0.32871 0.0
H286 H 0.23365 0.24111 0.23759 0.0
C287 C 0.28318 0.19926 0.36067 0.0
C288 C 0.234 0.22496 0.40408 0.0
C289 C 0.29756 0.18496 0.38158 0.0
C290 C 0.16989 0.27366 0.29272 0.0
C291 C 0.18376 0.25837 0.31025 0.0
C292 C 0.23367 0.23669 0.28416 0.0
C293 C 0.26333 0.20034 0.38592 0.0
C294 C 0.24807 0.21579 0.36428 0.0
C295 C 0.20502 0.26146 0.30362 0.0
C296 C 0.21966 0.24562 0.32407 0.0
H297 H 0.26873 0.16252 0.49058 0.0
H298 H 0.24308 0.1867 0.45236 0.0
H299 H 0.25784 0.21475 0.2716 0.0
H300 H 0.20428 0.3099 0.24525 0.0
H301 H 0.22865 0.28264 0.27376 0.0
C302 C 0.82177 0.27525 0.68883 0.0
C303 C 0.81609 0.29576 0.69985 0.0
C304 C 0.80708 0.26098 0.66981 0.0
C305 C 0.75641 0.25738 0.59709 0.0
H306 H 0.75619 0.20213 0.66341 0.0
C307 C 0.69146 0.19873 0.54972 0.0
C308 C 0.69745 0.17822 0.54023 0.0
C309 C 0.70588 0.2133 0.56878 0.0
C310 C 0.75621 0.21742 0.64397 0.0
H311 H 0.79091 0.31763 0.70099 0.0
H312 H 0.76498 0.2926 0.66809 0.0
H313 H 0.78142 0.22719 0.69853 0.0
H314 H 0.72294 0.1567 0.54104 0.0
H315 H 0.74832 0.18217 0.57407 0.0
H316 H 0.73123 0.24758 0.54237 0.0
C317 C 0.7808 0.28758 0.67327 0.0
C318 C 0.77064 0.23177 0.66413 0.0
C319 C 0.79553 0.30183 0.6924 0.0
C320 C 0.71804 0.17246 0.54896 0.0
C321 C 0.73247 0.18699 0.568 0.0
C322 C 0.74198 0.24301 0.57686 0.0
C323 C 0.78645 0.26701 0.66164 0.0
C324 C 0.77092 0.25189 0.64082 0.0
C325 C 0.72652 0.20755 0.57848 0.0
C326 C 0.74176 0.22286 0.6 0.0
H327 H 0.83758 0.27029 0.69488 0.0
H328 H 0.81192 0.2453 0.66069 0.0
H329 H 0.75645 0.27269 0.57771 0.0
H330 H 0.67558 0.20339 0.54322 0.0
H331 H 0.70078 0.22896 0.57704 0.0
C332 C 0.82102 0.71819 0.79537 0.0
C333 C 0.81505 0.69769 0.78578 0.0
C334 C 0.80663 0.73276 0.81444 0.0
C335 C 0.75073 0.74298 0.82281 0.0
H336 H 0.76703 0.7821 0.94494 0.0
C337 C 0.69275 0.79712 0.9399 0.0
C338 C 0.69901 0.81765 0.94722 0.0
C339 C 0.70678 0.78225 0.92028 0.0
C340 C 0.76231 0.7714 0.91043 0.0
H341 H 0.78962 0.67614 0.78709 0.0
H342 H 0.76429 0.70158 0.82118 0.0
H343 H 0.79173 0.75652 0.9097 0.0
H344 H 0.72459 0.83894 0.94143 0.0
H345 H 0.74924 0.81299 0.90657 0.0
H346 H 0.72126 0.75787 0.82384 0.0
C347 C 0.78002 0.70651 0.81354 0.0
C348 C 0.77646 0.75677 0.89018 0.0
C349 C 0.79445 0.69195 0.79435 0.0
C350 C 0.71949 0.82315 0.93551 0.0
C351 C 0.73356 0.8083 0.9161 0.0
C352 C 0.73655 0.7576 0.84321 0.0
C353 C 0.78599 0.72705 0.8242 0.0
C354 C 0.77085 0.74245 0.84598 0.0
C355 C 0.72733 0.7877 0.90811 0.0
C356 C 0.74224 0.77199 0.88707 0.0
H357 H 0.83685 0.72292 0.78813 0.0
H358 H 0.81163 0.74854 0.82116 0.0
H359 H 0.74602 0.73234 0.78816 0.0
H360 H 0.67697 0.79263 0.94899 0.0
H361 H 0.70162 0.76645 0.91522 0.0
C362 C 0.17819 0.71907 0.23388 0.0
C363 C 0.17725 0.69957 0.2072 0.0
C364 C 0.19238 0.73366 0.21367 0.0
C365 C 0.22693 0.74506 0.08481 0.0
H366 H 0.25092 0.78422 0.19568 0.0
C367 C 0.29824 0.79685 0.03857 0.0
C368 C 0.29421 0.81804 0.04415 0.0
C369 C 0.28367 0.78239 0.0573 0.0
C370 C 0.24423 0.77338 0.1644 0.0
H371 H 0.19018 0.67957 0.13981 0.0
H372 H 0.21584 0.70453 0.10636 0.0
H373 H 0.2266 0.75845 0.23207 0.0
H374 H 0.27173 0.84086 0.0717 0.0
H375 H 0.2466 0.81546 0.10743 0.0
H376 H 0.24548 0.75964 0.01782 0.0
C377 C 0.20526 0.70903 0.14132 0.0
C378 C 0.2302 0.7587 0.18497 0.0
C379 C 0.19076 0.69463 0.16074 0.0
C380 C 0.27535 0.82458 0.06831 0.0
C381 C 0.26099 0.81013 0.08833 0.0
C382 C 0.24132 0.75945 0.06459 0.0
C383 C 0.20616 0.72883 0.16714 0.0
C384 C 0.22128 0.74438 0.1454 0.0
C385 C 0.26506 0.78896 0.08286 0.0
C386 C 0.24997 0.77373 0.10421 0.0
H387 H 0.16765 0.72313 0.26946 0.0
H388 H 0.19226 0.74883 0.2339 0.0
H389 H 0.2201 0.73465 0.05265 0.0
H390 H 0.31272 0.79149 0.02015 0.0
H391 H 0.28707 0.76609 0.05289 0.0
C392 C 0.11795 0.36889 0.52799 0.0
C393 C 0.11188 0.34912 0.50937 0.0
C394 C 0.12742 0.37166 0.58325 0.0
C395 C 0.15587 0.34303 0.69915 0.0
H396 H 0.13914 0.38812 0.80194 0.0
C397 C 0.16203 0.3419 0.9526 0.0
C398 C 0.16415 0.36057 0.98378 0.0
C399 C 0.16181 0.34174 0.89053 0.0
C400 C 0.14441 0.37575 0.77325 0.0
H401 H 0.10996 0.31692 0.53458 0.0
H402 H 0.12607 0.3218 0.63194 0.0
H403 H 0.12474 0.38548 0.70216 0.0
H404 H 0.16998 0.39338 0.97476 0.0
H405 H 0.16966 0.39307 0.86589 0.0
H406 H 0.17498 0.3329 0.77126 0.0
C407 C 0.12405 0.33507 0.60318 0.0
C408 C 0.13605 0.37418 0.71617 0.0
C409 C 0.11457 0.33231 0.54793 0.0
C410 C 0.16814 0.37878 0.95187 0.0
C411 C 0.16783 0.37863 0.8896 0.0
C412 C 0.16424 0.34461 0.75628 0.0
C413 C 0.13088 0.35472 0.62097 0.0
C414 C 0.14128 0.3575 0.67916 0.0
C415 C 0.16369 0.36026 0.85849 0.0
C416 C 0.15817 0.36068 0.79447 0.0
H417 H 0.11563 0.38217 0.49952 0.0
H418 H 0.13244 0.387 0.59585 0.0
H419 H 0.16052 0.33026 0.67103 0.0
H420 H 0.15917 0.32758 0.97612 0.0
H421 H 0.15852 0.32733 0.86796 0.0
C422 C 0.61575 0.16338 0.20599 0.0
C423 C 0.63247 0.16332 0.24575 0.0
C424 C 0.61922 0.16239 0.14463 0.0
C425 C 0.65718 0.13876 0.04886 0.0
H426 H 0.62443 0.16144 0.92003 0.0
C427 C 0.64935 0.09942 0.81957 0.0
C428 C 0.65052 0.11232 0.76958 0.0
C429 C 0.64849 0.10795 0.87674 0.0
C430 C 0.6338 0.15512 0.95559 0.0
H431 H 0.66579 0.16507 0.25274 0.0
H432 H 0.6718 0.16351 0.14569 0.0
H433 H 0.62074 0.17549 0.02077 0.0
H434 H 0.65357 0.14406 0.74002 0.0
H435 H 0.65158 0.15891 0.83949 0.0
H436 H 0.66992 0.11811 0.98419 0.0
C437 C 0.65607 0.16375 0.16189 0.0
C438 C 0.63164 0.1631 0.01306 0.0
C439 C 0.65261 0.16471 0.22309 0.0
C440 C 0.65173 0.13379 0.77766 0.0
C441 C 0.65073 0.1423 0.83454 0.0
C442 C 0.65921 0.13068 0.99163 0.0
C443 C 0.63945 0.16142 0.12241 0.0
C444 C 0.6432 0.15486 0.06029 0.0
C445 C 0.64893 0.12949 0.88455 0.0
C446 C 0.64738 0.13862 0.94465 0.0
H447 H 0.60005 0.16243 0.22219 0.0
H448 H 0.60612 0.16065 0.11511 0.0
H449 H 0.66604 0.13186 0.08463 0.0
H450 H 0.64873 0.08281 0.81434 0.0
H451 H 0.64709 0.09774 0.91473 0.0
C452 C 0.88223 0.66268 0.05296 0.0
C453 C 0.88478 0.6459 0.01416 0.0
C454 C 0.87306 0.65986 0.10864 0.0
C455 C 0.86189 0.62066 0.222 0.0
H456 H 0.82213 0.66106 0.27756 0.0
C457 C 0.82856 0.61418 0.45617 0.0
C458 C 0.83134 0.63236 0.48937 0.0
C459 C 0.82961 0.61469 0.39399 0.0
C460 C 0.83315 0.64963 0.26256 0.0
H461 H 0.88111 0.61285 0.00426 0.0
H462 H 0.86492 0.60789 0.1014 0.0
H463 H 0.8367 0.66424 0.17763 0.0
H464 H 0.83498 0.66558 0.48357 0.0
H465 H 0.83699 0.66644 0.37562 0.0
H466 H 0.85895 0.60643 0.30738 0.0
C467 C 0.86979 0.62325 0.08865 0.0
C468 C 0.84157 0.6515 0.20555 0.0
C469 C 0.87889 0.6261 0.03293 0.0
C470 C 0.83304 0.65127 0.4592 0.0
C471 C 0.83406 0.65178 0.39717 0.0
C472 C 0.85351 0.61881 0.279 0.0
C473 C 0.86647 0.64016 0.12667 0.0
C474 C 0.85635 0.63729 0.18523 0.0
C475 C 0.83336 0.63338 0.36409 0.0
C476 C 0.8394 0.63352 0.30039 0.0
H477 H 0.88669 0.6781 0.03949 0.0
H478 H 0.8711 0.67311 0.13756 0.0
H479 H 0.87336 0.60956 0.20775 0.0
H480 H 0.82703 0.59939 0.47814 0.0
H481 H 0.8286 0.60032 0.3695 0.0
C482 C 0.36427 0.8834 0.29551 0.0
C483 C 0.34515 0.88864 0.27051 0.0
C484 C 0.36525 0.87443 0.35199 0.0
C485 C 0.33532 0.8678 0.49015 0.0
H486 H 0.37396 0.82324 0.51989 0.0
C487 C 0.33846 0.83165 0.71904 0.0
C488 C 0.35823 0.8325 0.74442 0.0
C489 C 0.33598 0.83318 0.65751 0.0
C490 C 0.36307 0.83562 0.51206 0.0
H491 H 0.31213 0.88918 0.28493 0.0
H492 H 0.31378 0.87344 0.38341 0.0
H493 H 0.37158 0.83833 0.42019 0.0
H494 H 0.391 0.83304 0.72517 0.0
H495 H 0.38665 0.83596 0.61767 0.0
H496 H 0.32703 0.86543 0.58184 0.0
C497 C 0.32804 0.87637 0.35983 0.0
C498 C 0.3618 0.84436 0.45523 0.0
C499 C 0.32709 0.88543 0.30354 0.0
C500 C 0.37555 0.83248 0.70686 0.0
C501 C 0.37306 0.83413 0.64521 0.0
C502 C 0.33653 0.85904 0.54667 0.0
C503 C 0.34712 0.87057 0.38441 0.0
C504 C 0.34806 0.8607 0.44391 0.0
C505 C 0.35323 0.83565 0.62039 0.0
C506 C 0.35054 0.843 0.55843 0.0
H507 H 0.37842 0.88607 0.27117 0.0
H508 H 0.38021 0.87058 0.37032 0.0
H509 H 0.32483 0.88058 0.48321 0.0
H510 H 0.32483 0.83128 0.74694 0.0
H511 H 0.32052 0.83378 0.63932 0.0
C512 C 0.11257 0.66329 0.93699 0.0
C513 C 0.11077 0.64648 0.97595 0.0
C514 C 0.12216 0.66086 0.88176 0.0
C515 C 0.1357 0.62204 0.76956 0.0
H516 H 0.17264 0.66476 0.71262 0.0
C517 C 0.16726 0.61798 0.53331 0.0
C518 C 0.16265 0.63595 0.50098 0.0
C519 C 0.16705 0.61831 0.59557 0.0
C520 C 0.16245 0.65266 0.72809 0.0
H521 H 0.11627 0.61371 0.98664 0.0
H522 H 0.13324 0.60945 0.89036 0.0
H523 H 0.15831 0.66711 0.81306 0.0
H524 H 0.15669 0.66881 0.50794 0.0
H525 H 0.15616 0.66936 0.61605 0.0
H526 H 0.13914 0.60798 0.6841 0.0
C527 C 0.12745 0.62455 0.90263 0.0
C528 C 0.15416 0.65407 0.78535 0.0
C529 C 0.1179 0.62701 0.95787 0.0
C530 C 0.16001 0.65465 0.53174 0.0
C531 C 0.15986 0.65499 0.59381 0.0
C532 C 0.14395 0.62066 0.71233 0.0
C533 C 0.12995 0.64152 0.8644 0.0
C534 C 0.14029 0.63904 0.80604 0.0
C535 C 0.16237 0.63663 0.6263 0.0
C536 C 0.15699 0.63622 0.69043 0.0
H537 H 0.10714 0.67846 0.94994 0.0
H538 H 0.12346 0.67411 0.85262 0.0
H539 H 0.12494 0.61031 0.78411 0.0
H540 H 0.16954 0.60337 0.51077 0.0
H541 H 0.16941 0.604 0.6196 0.0
C542 C 0.34505 0.13059 0.20496 0.0
C543 C 0.34747 0.1092 0.21263 0.0
C544 C 0.34495 0.13921 0.14813 0.0
C545 C 0.33412 0.12631 0.99294 0.0
H546 H 0.36539 0.1758 0.95688 0.0
C547 C 0.33021 0.15985 0.76105 0.0
C548 C 0.34972 0.16178 0.73458 0.0
C549 C 0.32836 0.15872 0.82281 0.0
C550 C 0.35651 0.16205 0.9665 0.0
H551 H 0.351 0.07996 0.16709 0.0
H552 H 0.35087 0.09506 0.06705 0.0
H553 H 0.36637 0.16134 0.0576 0.0
H554 H 0.38227 0.16657 0.75169 0.0
H555 H 0.37909 0.16428 0.85964 0.0
H556 H 0.32476 0.1265 0.90185 0.0
C557 C 0.3492 0.10515 0.10526 0.0
C558 C 0.35701 0.15383 0.02402 0.0
C559 C 0.34937 0.09652 0.1623 0.0
C560 C 0.36705 0.16496 0.77095 0.0
C561 C 0.36522 0.16368 0.83284 0.0
C562 C 0.33355 0.13455 0.93568 0.0
C563 C 0.34693 0.12658 0.09774 0.0
C564 C 0.34604 0.13571 0.03746 0.0
C565 C 0.34601 0.15937 0.85901 0.0
C566 C 0.34489 0.15238 0.92167 0.0
H567 H 0.34264 0.14071 0.24267 0.0
H568 H 0.34273 0.15571 0.14358 0.0
H569 H 0.32529 0.1125 0.0023 0.0
H570 H 0.31654 0.15775 0.73395 0.0
H571 H 0.31329 0.15596 0.842 0.0
C572 C 0.88408 0.33027 0.43499 0.0
C573 C 0.88653 0.34712 0.4736 0.0
C574 C 0.87495 0.33298 0.3792 0.0
C575 C 0.86353 0.37199 0.26534 0.0
H576 H 0.82396 0.33134 0.2103 0.0
C577 C 0.82972 0.37825 0.03161 0.0
C578 C 0.83255 0.36009 -0.00165 0.0
C579 C 0.83092 0.37774 0.09378 0.0
C580 C 0.83494 0.34284 0.22516 0.0
H581 H 0.88271 0.38018 0.48305 0.0
H582 H 0.86657 0.38493 0.38574 0.0
H583 H 0.83865 0.32832 0.31016 0.0
H584 H 0.83642 0.32689 0.00406 0.0
H585 H 0.83868 0.32604 0.11199 0.0
H586 H 0.86041 0.38614 0.1799 0.0
C587 C 0.87149 0.3696 0.3987 0.0
C588 C 0.84342 0.34105 0.28212 0.0
C589 C 0.88058 0.36687 0.45453 0.0
C590 C 0.83444 0.34118 0.02848 0.0
C591 C 0.8356 0.34068 0.09049 0.0
C592 C 0.85508 0.37376 0.20839 0.0
C593 C 0.86827 0.35263 0.36088 0.0
C594 C 0.85813 0.35537 0.30227 0.0
C595 C 0.83486 0.35907 0.12359 0.0
C596 C 0.84102 0.35896 0.1872 0.0
H597 H 0.88859 0.31489 0.44868 0.0
H598 H 0.87306 0.31968 0.35044 0.0
H599 H 0.87495 0.38316 0.27945 0.0
H600 H 0.82805 0.39304 0.00969 0.0
H601 H 0.82986 0.3921 0.1183 0.0
C602 C 0.61777 0.8282 0.2779 0.0
C603 C 0.63573 0.83231 0.24505 0.0
C604 C 0.61815 0.82901 0.34012 0.0
C605 C 0.65262 0.83428 0.47209 0.0
H606 H 0.61031 0.87208 0.52711 0.0
C607 C 0.66286 0.8841 0.68167 0.0
C608 C 0.64598 0.88584 0.72036 0.0
C609 C 0.66055 0.87467 0.62613 0.0
C610 C 0.62204 0.86126 0.51282 0.0
H611 H 0.66861 0.83805 0.25135 0.0
H612 H 0.66925 0.83961 0.3594 0.0
H613 H 0.60806 0.8576 0.42732 0.0
H614 H 0.6132 0.88043 0.73018 0.0
H615 H 0.60915 0.86376 0.63333 0.0
H616 H 0.66695 0.83858 0.55714 0.0
C617 C 0.65484 0.83584 0.33755 0.0
C618 C 0.6207 0.85285 0.45572 0.0
C619 C 0.65445 0.83508 0.27549 0.0
C620 C 0.62655 0.87885 0.70162 0.0
C621 C 0.62421 0.86946 0.64606 0.0
C622 C 0.65397 0.84272 0.52922 0.0
C623 C 0.63652 0.83381 0.37037 0.0
C624 C 0.63622 0.83965 0.43423 0.0
C625 C 0.64126 0.86698 0.60813 0.0
C626 C 0.63894 0.85667 0.5496 0.0
H627 H 0.60313 0.82584 0.25568 0.0
H628 H 0.60387 0.82699 0.36441 0.0
H629 H 0.66468 0.82397 0.45698 0.0
H630 H 0.678 0.88942 0.6951 0.0
H631 H 0.67387 0.87338 0.59727 0.0
C632 C 0.06946 0.32631 0.0671 0.0
C633 C 0.06986 0.32787 0.12962 0.0
C634 C 0.05129 0.32126 0.03733 0.0
C635 C 0.99546 0.3249 0.0563 0.0
H636 H 0.99456 0.2942 0.90779 0.0
C637 C 0.92148 0.31908 0.91921 0.0
C638 C 0.92362 0.3242 0.85861 0.0
C639 C 0.93875 0.31461 0.95385 0.0
C640 C 0.9946 0.30281 0.94919 0.0
H641 H 0.05163 0.32435 0.21004 0.0
H642 H 0.01984 0.31534 0.15785 0.0
H643 H 0.026 0.29494 0.9678 0.0
H644 H 0.94545 0.3274 0.78602 0.0
H645 H 0.97573 0.31987 0.84695 0.0
H646 H 0.96432 0.33325 0.03716 0.0
C647 C 0.03359 0.31836 0.13194 0.0
C648 C 0.01257 0.30324 0.98355 0.0
C649 C 0.05181 0.32346 0.16184 0.0
C650 C 0.9433 0.32357 0.8326 0.0
C651 C 0.96064 0.31916 0.86745 0.0
C652 C 0.97751 0.32441 0.02213 0.0
C653 C 0.03306 0.31758 0.06928 0.0
C654 C 0.01333 0.31468 0.03684 0.0
C655 C 0.95856 0.31522 0.92882 0.0
C656 C 0.977 0.3137 0.96764 0.0
H657 H 0.08308 0.32953 0.04077 0.0
H658 H 0.05139 0.3211 0.98906 0.0
H659 H 0.99559 0.33414 0.09653 0.0
H660 H 0.9065 0.3191 0.94048 0.0
H661 H 0.93662 0.31123 0.00073 0.0
C662 C 0.67305 0.92413 0.16385 0.0
C663 C 0.66714 0.92586 0.10376 0.0
C664 C 0.6768 0.94171 0.19797 0.0
C665 C 0.68508 -0.00174 0.19187 0.0
H666 H 0.65712 -0.00289 0.34463 0.0
C667 C 0.66235 0.07157 0.3214 0.0
C668 C 0.66278 0.07116 0.38407 0.0
C669 C 0.66682 0.05385 0.28849 0.0
C670 C 0.66538 -0.00239 0.30272 0.0
H671 H 0.66169 0.94737 0.03143 0.0
H672 H 0.66792 0.9782 0.09152 0.0
H673 H 0.65817 0.96616 0.28378 0.0
H674 H 0.6692 0.05201 0.4612 0.0
H675 H 0.6772 0.02109 0.40358 0.0
H676 H 0.69182 0.02997 0.21052 0.0
C677 C 0.66983 0.96319 0.11201 0.0
C678 C 0.66597 0.97984 0.26773 0.0
C679 C 0.66618 0.94554 0.07764 0.0
C680 C 0.66854 0.05281 0.41302 0.0
C681 C 0.67305 0.03508 0.38001 0.0
C682 C 0.68451 0.01609 0.22702 0.0
C683 C 0.67462 0.96145 0.17297 0.0
C684 C 0.67559 0.98002 0.21159 0.0
C685 C 0.67188 0.03531 0.31741 0.0
C686 C 0.67439 0.01602 0.28247 0.0
H687 H 0.67427 0.90918 0.18513 0.0
H688 H 0.68092 0.93984 0.24445 0.0
H689 H 0.69281 -0.0012 0.14913 0.0
H690 H 0.65803 0.08544 0.29756 0.0
H691 H 0.66552 0.05451 0.2404 0.0
C692 C 0.05005 0.67211 0.32467 0.0
C693 C 0.06825 0.66776 0.35626 0.0
C694 C 0.03187 0.67687 0.35521 0.0
C695 C 0.01103 0.69097 0.50465 0.0
H696 H 0.9631 0.66059 0.45049 0.0
C697 C 0.94201 0.66957 0.65539 0.0
C698 C 0.92232 0.66885 0.62934 0.0
C699 C 0.95931 0.67417 0.62062 0.0
C700 C 0.9762 0.66952 0.46571 0.0
H701 H 0.08181 0.66594 0.44469 0.0
H702 H 0.05018 0.67379 0.49752 0.0
H703 H 0.99428 0.66034 0.39076 0.0
H704 H 0.90516 0.67396 0.54752 0.0
H705 H 0.93521 0.68217 0.48745 0.0
H706 H 0.99301 0.69947 0.5809 0.0
C707 C 0.04993 0.67382 0.44925 0.0
C708 C 0.99409 0.6694 0.43132 0.0
C709 C 0.06806 0.66911 0.41883 0.0
C710 C 0.92015 0.67404 0.56881 0.0
C711 C 0.93737 0.6787 0.53426 0.0
C712 C 0.9931 0.69102 0.53922 0.0
C713 C 0.03153 0.67737 0.4179 0.0
C714 C 0.01184 0.67979 0.45089 0.0
C715 C 0.95719 0.6782 0.55931 0.0
C716 C 0.97561 0.68001 0.52054 0.0
H717 H 0.04971 0.67137 0.27645 0.0
H718 H 0.01799 0.67982 0.32975 0.0
H719 H 0.02437 0.69938 0.52052 0.0
H720 H 0.94418 0.6657 0.70193 0.0
H721 H 0.97441 0.67354 0.64114 0.0
C722 C 0.33402 0.94428 0.90576 0.0
C723 C 0.32713 0.92472 0.88812 0.0
C724 C 0.32955 0.9616 0.87103 0.0
C725 C 0.31421 0.97504 0.71598 0.0
H726 H 0.31428 0.03022 0.78222 0.0
C727 C 0.33161 0.0462 0.57221 0.0
C728 C 0.32437 0.06561 0.59025 0.0
C729 C 0.3277 0.02876 0.60695 0.0
C730 C 0.31375 0.01496 0.76265 0.0
H731 H 0.30894 0.90795 0.82323 0.0
H732 H 0.30001 0.93825 0.76461 0.0
H733 H 0.31384 0.00081 0.84854 0.0
H734 H 0.30607 0.08191 0.65589 0.0
H735 H 0.29813 0.05136 0.71463 0.0
H736 H 0.31319 0.98917 0.63014 0.0
C737 C 0.30973 0.94026 0.80342 0.0
C738 C 0.31392 -0.002 0.80098 0.0
C739 C 0.31467 0.92289 0.83726 0.0
C740 C 0.31206 0.06711 0.64148 0.0
C741 C 0.30768 0.0496 0.6754 0.0
C742 C 0.31354 0.99199 0.67768 0.0
C743 C 0.31764 0.95978 0.8187 0.0
C744 C 0.31478 0.9778 0.77822 0.0
C745 C 0.31602 0.03029 0.65976 0.0
C746 C 0.31393 0.01221 0.7004 0.0
H747 H 0.34377 0.94604 0.94465 0.0
H748 H 0.33624 0.97622 0.88401 0.0
H749 H 0.31507 0.95981 0.69635 0.0
H750 H 0.34127 0.04468 0.53307 0.0
H751 H 0.3347 0.01432 0.59366 0.0
C752 C 0.12244 0.41942 0.27669 0.0
C753 C 0.12516 0.40989 0.22093 0.0
C754 C 0.12294 0.44089 0.28179 0.0
C755 C 0.11285 0.48787 0.19954 0.0
H756 H 0.14846 0.51451 0.3151 0.0
C757 C 0.12097 0.57631 0.20809 0.0
C758 C 0.12346 0.5857 0.26405 0.0
C759 C 0.12178 0.55487 0.20244 0.0
C760 C 0.13816 0.50735 0.28324 0.0
H761 H 0.1304 0.41542 0.12674 0.0
H762 H 0.13076 0.45302 0.13566 0.0
H763 H 0.14846 0.47698 0.30674 0.0
H764 H 0.12853 0.57999 0.35814 0.0
H765 H 0.12908 0.54259 0.34883 0.0
H766 H 0.10191 0.51796 0.17726 0.0
C767 C 0.12844 0.44378 0.17533 0.0
C768 C 0.13829 0.48586 0.2783 0.0
C769 C 0.12833 0.42229 0.17035 0.0
C770 C 0.12671 0.5732 0.31432 0.0
C771 C 0.12716 0.55174 0.30884 0.0
C772 C 0.11245 0.50932 0.20513 0.0
C773 C 0.12578 0.45324 0.23109 0.0
C774 C 0.12569 0.47597 0.23628 0.0
C775 C 0.12474 0.54227 0.2528 0.0
C776 C 0.12515 0.51938 0.24694 0.0
H777 H 0.11999 0.41029 0.31646 0.0
H778 H 0.12073 0.44787 0.32521 0.0
H779 H 0.10282 0.48052 0.16727 0.0
H780 H 0.1186 0.58554 0.16844 0.0
H781 H 0.12027 0.54822 0.15838 0.0
C782 C 0.57301 0.11211 0.53326 0.0
C783 C 0.58248 0.12503 0.49104 0.0
C784 C 0.55159 0.11203 0.53968 0.0
C785 C 0.50507 0.14283 0.51259 0.0
H786 H 0.4769 0.09003 0.51179 0.0
C787 C 0.41748 0.13396 0.55531 0.0
C788 C 0.40686 0.12132 0.51463 0.0
C789 C 0.43901 0.13468 0.55508 0.0
C790 C 0.48458 0.10487 0.51203 0.0
H791 H 0.57691 0.14836 0.42349 0.0
H792 H 0.53954 0.14828 0.43517 0.0
H793 H 0.51453 0.09106 0.50736 0.0
H794 H 0.41055 0.0995 0.4419 0.0
H795 H 0.4481 0.10068 0.44202 0.0
H796 H 0.47508 0.15663 0.51675 0.0
C797 C 0.54872 0.13823 0.46319 0.0
C798 C 0.50608 0.10546 0.51002 0.0
C799 C 0.5701 0.13817 0.45628 0.0
C800 C 0.41823 0.1094 0.47385 0.0
C801 C 0.43974 0.10996 0.47409 0.0
C802 C 0.48357 0.14223 0.51528 0.0
C803 C 0.53925 0.12503 0.50455 0.0
C804 C 0.51652 0.12444 0.5097 0.0
C805 C 0.45032 0.12261 0.51466 0.0
C806 C 0.47313 0.12325 0.5144 0.0
H807 H 0.5821 0.10182 0.56078 0.0
H808 H 0.54467 0.10182 0.57224 0.0
H809 H 0.51276 0.15766 0.5128 0.0
H810 H 0.40918 0.14334 0.58726 0.0
H811 H 0.44682 0.14448 0.58705 0.0
C812 C 0.87606 0.57497 0.78145 0.0
C813 C 0.87274 0.58442 0.72588 0.0
C814 C 0.8763 0.55348 0.78634 0.0
C815 C 0.88671 0.50652 0.70371 0.0
H816 H 0.85066 0.47973 0.81764 0.0
C817 C 0.87669 0.41813 0.70756 0.0
C818 C 0.87358 0.40849 0.76287 0.0
C819 C 0.87671 0.43963 0.70316 0.0
C820 C 0.86111 0.48691 0.7863 0.0
H821 H 0.86741 0.57879 0.63176 0.0
H822 H 0.86833 0.5412 0.64031 0.0
H823 H 0.85102 0.51726 0.81077 0.0
H824 H 0.86853 0.41379 0.85719 0.0
H825 H 0.86944 0.4512 0.85007 0.0
H826 H 0.89737 0.47641 0.68028 0.0
C827 C 0.87055 0.55049 0.67997 0.0
C828 C 0.8612 0.50841 0.78223 0.0
C829 C 0.86991 0.57196 0.67522 0.0
C830 C 0.87075 0.42077 0.8138 0.0
C831 C 0.87114 0.44226 0.8096 0.0
C832 C 0.88692 0.48504 0.70845 0.0
C833 C 0.87363 0.54109 0.7356 0.0
C834 C 0.8739 0.51837 0.74069 0.0
C835 C 0.87399 0.452 0.75416 0.0
C836 C 0.87403 0.47492 0.7496 0.0
H837 H 0.87827 0.58416 0.82126 0.0
H838 H 0.8788 0.54653 0.82965 0.0
H839 H 0.89679 0.51392 0.67172 0.0
H840 H 0.87879 0.40906 0.66746 0.0
H841 H 0.87857 0.44651 0.65953 0.0
C842 C 0.57321 0.86801 0.06056 0.0
C843 C 0.58536 0.87151 0.00976 0.0
C844 C 0.55175 0.86761 0.05632 0.0
C845 C 0.50859 0.88295 0.95636 0.0
H846 H 0.47724 0.84623 0.05836 0.0
C847 C 0.42127 0.86761 0.92828 0.0
C848 C 0.40944 0.87034 0.98018 0.0
C849 C 0.44277 0.86743 0.93131 0.0
C850 C 0.48584 0.8566 0.02983 0.0
H851 H 0.58456 0.87698 0.91447 0.0
H852 H 0.54718 0.87545 0.90651 0.0
H853 H 0.51478 0.84611 0.06361 0.0
H854 H 0.41082 0.87458 0.07603 0.0
H855 H 0.44846 0.87376 0.08132 0.0
H856 H 0.47947 0.89292 0.92155 0.0
C857 C 0.55414 0.87365 0.95006 0.0
C858 C 0.50734 0.85665 0.03299 0.0
C859 C 0.57561 0.87439 0.9545 0.0
C860 C 0.41953 0.87252 0.03527 0.0
C861 C 0.44102 0.87196 0.03839 0.0
C862 C 0.4871 0.88263 0.95255 0.0
C863 C 0.54191 0.87036 0.00099 0.0
C864 C 0.51901 0.86994 -0.00341 0.0
C865 C 0.45281 0.86958 0.98638 0.0
C866 C 0.47556 0.86955 0.98952 0.0
H867 H 0.58027 0.86591 0.10391 0.0
H868 H 0.5429 0.86547 0.09674 0.0
H869 H 0.51697 0.89367 0.92844 0.0
H870 H 0.41394 0.86596 0.88516 0.0
H871 H 0.45157 0.86545 0.89066 0.0
loop_
_geom_bond_atom_site_label_1
_geom_bond_atom_site_label_2
_geom_bond_distance
_geom_bond_site_symmetry_2
_ccdc_geom_bond_type
Co0 O3 1.970 . S
Co0 N17 1.989 . S
Co0 O25 1.967 . S
Co0 O32 1.920 . S
Co1 O4 1.966 . S
Co1 N10 2.022 . S
Co1 N18 1.993 . S
Co1 O26 1.941 . S
C2 O3 1.258 . S
C2 O4 1.263 . S
O3 Co0 1.970 . S
O3 C2 1.258 . S
O4 Co1 1.966 . S
O4 C2 1.263 . S
C5 O6 1.235 . S
C5 O32 1.289 . S
O6 C5 1.235 . S
C7 C9 1.400 . S
C7 N10 1.351 . S
C7 C12 1.501 . S
C8 C9 1.387 . S
C8 N11 1.341 . S
C9 C7 1.400 . S
C9 C8 1.387 . S
N10 Co1 2.022 . S
N10 C7 1.351 . S
N10 N11 1.365 . S
N11 C8 1.341 . S
N11 N10 1.365 . S
N11 H31 0.862 . S
C12 C7 1.501 . S
C12 H13 0.961 . S
C12 H14 0.961 . S
C12 H15 0.960 . S
H13 C12 0.961 . S
H14 C12 0.961 . S
H15 C12 0.960 . S
C16 N17 1.342 . S
C16 C20 1.401 . S
C16 C21 1.499 . S
N17 Co0 1.989 . S
N17 C16 1.342 . S
N17 N18 1.388 . S
N18 Co1 1.993 . S
N18 N17 1.388 . S
N18 C19 1.346 . S
C19 N18 1.346 . S
C19 C20 1.396 . S
C19 C29 1.510 . S
C20 C16 1.401 . S
C20 C19 1.396 . S
C21 C16 1.499 . S
C21 H22 0.959 . S
C21 H23 0.960 . S
C21 H24 0.961 . S
H22 C21 0.959 . S
H23 C21 0.960 . S
H24 C21 0.961 . S
O25 Co0 1.967 . S
O25 C33 1.258 . S
O26 Co1 1.941 . S
O26 C33 1.266 . S
H27 C29 0.959 . S
H28 C29 0.961 . S
C29 C19 1.510 . S
C29 H27 0.959 . S
C29 H28 0.961 . S
C29 H30 0.960 . S
H30 C29 0.960 . S
H31 N11 0.862 . S
O32 Co0 1.920 . S
O32 C5 1.289 . S
C33 O25 1.258 . S
C33 O26 1.266 . S
Co34 O37 1.970 . S
Co34 N51 1.989 . S
Co34 O59 1.967 . S
Co34 O66 1.920 . S
Co35 O38 1.966 . S
Co35 N44 2.022 . S
Co35 N52 1.993 . S
Co35 O60 1.941 . S
C36 O37 1.258 . S
C36 O38 1.263 . S
O37 Co34 1.970 . S
O37 C36 1.258 . S
O38 Co35 1.966 . S
O38 C36 1.263 . S
C39 O40 1.235 . S
C39 O66 1.289 . S
O40 C39 1.235 . S
C41 C43 1.400 . S
C41 N44 1.351 . S
C41 C46 1.501 . S
C42 C43 1.387 . S
C42 N45 1.341 . S
C43 C41 1.400 . S
C43 C42 1.387 . S
N44 Co35 2.022 . S
N44 C41 1.351 . S
N44 N45 1.365 . S
N45 C42 1.341 . S
N45 N44 1.365 . S
N45 H65 0.862 . S
C46 C41 1.501 . S
C46 H47 0.961 . S
C46 H48 0.961 . S
C46 H49 0.960 . S
H47 C46 0.961 . S
H48 C46 0.961 . S
H49 C46 0.960 . S
C50 N51 1.342 . S
C50 C54 1.401 . S
C50 C55 1.499 . S
N51 Co34 1.989 . S
N51 C50 1.342 . S
N51 N52 1.388 . S
N52 Co35 1.993 . S
N52 N51 1.388 . S
N52 C53 1.346 . S
C53 N52 1.346 . S
C53 C54 1.396 . S
C53 C63 1.510 . S
C54 C50 1.401 . S
C54 C53 1.396 . S
C55 C50 1.499 . S
C55 H56 0.959 . S
C55 H57 0.960 . S
C55 H58 0.961 . S
H56 C55 0.959 . S
H57 C55 0.960 . S
H58 C55 0.961 . S
O59 Co34 1.967 . S
O59 C67 1.258 . S
O60 Co35 1.941 . S
O60 C67 1.266 . S
H61 C63 0.959 . S
H62 C63 0.961 . S
C63 C53 1.510 . S
C63 H61 0.959 . S
C63 H62 0.961 . S
C63 H64 0.960 . S
H64 C63 0.960 . S
H65 N45 0.862 . S
O66 Co34 1.920 . S
O66 C39 1.289 . S
C67 O59 1.258 . S
C67 O60 1.266 . S
Co68 O71 1.970 . S
Co68 N85 1.989 . S
Co68 O93 1.967 . S
Co68 O100 1.920 . S
Co69 O72 1.966 . S
Co69 N78 2.022 . S
Co69 N86 1.993 . S
Co69 O94 1.941 . S
C70 O71 1.258 . S
C70 O72 1.263 . S
O71 Co68 1.970 . S
O71 C70 1.258 . S
O72 Co69 1.966 . S
O72 C70 1.263 . S
C73 O74 1.235 . S
C73 O100 1.289 . S
O74 C73 1.235 . S
C75 C77 1.400 . S
C75 N78 1.351 . S
C75 C80 1.501 . S
C76 C77 1.387 . S
C76 N79 1.341 . S
C77 C75 1.400 . S
C77 C76 1.387 . S
N78 Co69 2.022 . S
N78 C75 1.351 . S
N78 N79 1.365 . S
N79 C76 1.341 . S
N79 N78 1.365 . S
N79 H99 0.862 . S
C80 C75 1.501 . S
C80 H81 0.961 . S
C80 H82 0.961 . S
C80 H83 0.960 . S
H81 C80 0.961 . S
H82 C80 0.961 . S
H83 C80 0.960 . S
C84 N85 1.342 . S
C84 C88 1.401 . S
C84 C89 1.499 . S
N85 Co68 1.989 . S
N85 C84 1.342 . S
N85 N86 1.388 . S
N86 Co69 1.993 . S
N86 N85 1.388 . S
N86 C87 1.346 . S
C87 N86 1.346 . S
C87 C88 1.396 . S
C87 C97 1.510 . S
C88 C84 1.401 . S
C88 C87 1.396 . S
C89 C84 1.499 . S
C89 H90 0.959 . S
C89 H91 0.960 . S
C89 H92 0.961 . S
H90 C89 0.959 . S
H91 C89 0.960 . S
H92 C89 0.961 . S
O93 Co68 1.967 . S
O93 C101 1.258 . S
O94 Co69 1.941 . S
O94 C101 1.266 . S
H95 C97 0.959 . S
H96 C97 0.961 . S
C97 C87 1.510 . S
C97 H95 0.959 . S
C97 H96 0.961 . S
C97 H98 0.960 . S
H98 C97 0.960 . S
H99 N79 0.862 . S
O100 Co68 1.920 . S
O100 C73 1.289 . S
C101 O93 1.258 . S
C101 O94 1.266 . S
Co102 O105 1.970 . S
Co102 N119 1.989 . S
Co102 O127 1.967 . S
Co102 O134 1.920 . S
Co103 O106 1.966 . S
Co103 N112 2.022 . S
Co103 N120 1.993 . S
Co103 O128 1.941 . S
C104 O105 1.258 . S
C104 O106 1.263 1_556 S
O105 Co102 1.970 . S
O105 C104 1.258 . S
O106 Co103 1.966 . S
O106 C104 1.263 1_554 S
C107 O108 1.235 . S
C107 O134 1.289 . S
O108 C107 1.235 . S
C109 C111 1.400 . S
C109 N112 1.351 . S
C109 C114 1.501 . S
C110 C111 1.387 . S
C110 N113 1.341 . S
C111 C109 1.400 . S
C111 C110 1.387 . S
N112 Co103 2.022 . S
N112 C109 1.351 . S
N112 N113 1.365 . S
N113 C110 1.341 . S
N113 N112 1.365 . S
N113 H133 0.862 . S
C114 C109 1.501 . S
C114 H115 0.961 . S
C114 H116 0.961 . S
C114 H117 0.960 . S
H115 C114 0.961 . S
H116 C114 0.961 . S
H117 C114 0.960 . S
C118 N119 1.342 . S
C118 C122 1.401 1_556 S
C118 C123 1.499 . S
N119 Co102 1.989 . S
N119 C118 1.342 . S
N119 N120 1.388 1_556 S
N120 Co103 1.993 . S
N120 N119 1.388 1_554 S
N120 C121 1.346 . S
C121 N120 1.346 . S
C121 C122 1.396 . S
C121 C131 1.510 . S
C122 C118 1.401 1_554 S
C122 C121 1.396 . S
C123 C118 1.499 . S
C123 H124 0.959 . S
C123 H125 0.960 . S
C123 H126 0.961 . S
H124 C123 0.959 . S
H125 C123 0.960 . S
H126 C123 0.961 . S
O127 Co102 1.967 . S
O127 C135 1.258 . S
O128 Co103 1.941 . S
O128 C135 1.266 1_554 S
H129 C131 0.959 . S
H130 C131 0.961 . S
C131 C121 1.510 . S
C131 H129 0.959 . S
C131 H130 0.961 . S
C131 H132 0.960 . S
H132 C131 0.960 . S
H133 N113 0.862 . S
O134 Co102 1.920 . S
O134 C107 1.289 . S
C135 O127 1.258 . S
C135 O128 1.266 1_556 S
Co136 O139 1.970 . S
Co136 N153 1.989 . S
Co136 O161 1.967 . S
Co136 O168 1.920 . S
Co137 O140 1.966 . S
Co137 N146 2.022 . S
Co137 N154 1.993 . S
Co137 O162 1.941 . S
C138 O139 1.258 . S
C138 O140 1.263 . S
O139 Co136 1.970 . S
O139 C138 1.258 . S
O140 Co137 1.966 . S
O140 C138 1.263 . S
C141 O142 1.235 . S
C141 O168 1.289 . S
O142 C141 1.235 . S
C143 C145 1.400 . S
C143 N146 1.351 . S
C143 C148 1.501 . S
C144 C145 1.387 . S
C144 N147 1.341 . S
C145 C143 1.400 . S
C145 C144 1.387 . S
N146 Co137 2.022 . S
N146 C143 1.351 . S
N146 N147 1.365 . S
N147 C144 1.341 . S
N147 N146 1.365 . S
N147 H167 0.862 . S
C148 C143 1.501 . S
C148 H149 0.961 . S
C148 H150 0.961 . S
C148 H151 0.960 . S
H149 C148 0.961 . S
H150 C148 0.961 . S
H151 C148 0.960 . S
C152 N153 1.342 . S
C152 C156 1.401 . S
C152 C157 1.499 . S
N153 Co136 1.989 . S
N153 C152 1.342 . S
N153 N154 1.388 . S
N154 Co137 1.993 . S
N154 N153 1.388 . S
N154 C155 1.346 . S
C155 N154 1.346 . S
C155 C156 1.396 . S
C155 C165 1.510 . S
C156 C152 1.401 . S
C156 C155 1.396 . S
C157 C152 1.499 . S
C157 H158 0.959 . S
C157 H159 0.960 . S
C157 H160 0.961 . S
H158 C157 0.959 . S
H159 C157 0.960 . S
H160 C157 0.961 . S
O161 Co136 1.967 . S
O161 C169 1.258 . S
O162 Co137 1.941 . S
O162 C169 1.266 . S
H163 C165 0.959 . S
H164 C165 0.961 . S
C165 C155 1.510 . S
C165 H163 0.959 . S
C165 H164 0.961 . S
C165 H166 0.960 . S
H166 C165 0.960 . S
H167 N147 0.862 . S
O168 Co136 1.920 . S
O168 C141 1.289 . S
C169 O161 1.258 . S
C169 O162 1.266 . S
Co170 O173 1.970 . S
Co170 N187 1.989 . S
Co170 O195 1.967 . S
Co170 O202 1.920 . S
Co171 O174 1.966 . S
Co171 N180 2.022 . S
Co171 N188 1.993 . S
Co171 O196 1.941 . S
C172 O173 1.258 . S
C172 O174 1.263 . S
O173 Co170 1.970 . S
O173 C172 1.258 . S
O174 Co171 1.966 . S
O174 C172 1.263 . S
C175 O176 1.235 . S
C175 O202 1.289 . S
O176 C175 1.235 . S
C177 C179 1.400 . S
C177 N180 1.351 . S
C177 C182 1.501 . S
C178 C179 1.387 . S
C178 N181 1.341 . S
C179 C177 1.400 . S
C179 C178 1.387 . S
N180 Co171 2.022 . S
N180 C177 1.351 . S
N180 N181 1.365 . S
N181 C178 1.341 . S
N181 N180 1.365 . S
N181 H201 0.862 . S
C182 C177 1.501 . S
C182 H183 0.961 . S
C182 H184 0.961 . S
C182 H185 0.960 . S
H183 C182 0.961 . S
H184 C182 0.961 . S
H185 C182 0.960 . S
C186 N187 1.342 . S
C186 C190 1.401 . S
C186 C191 1.499 . S
N187 Co170 1.989 . S
N187 C186 1.342 . S
N187 N188 1.388 . S
N188 Co171 1.993 . S
N188 N187 1.388 . S
N188 C189 1.346 . S
C189 N188 1.346 . S
C189 C190 1.396 . S
C189 C199 1.510 . S
C190 C186 1.401 . S
C190 C189 1.396 . S
C191 C186 1.499 . S
C191 H192 0.959 . S
C191 H193 0.960 . S
C191 H194 0.961 . S
H192 C191 0.959 . S
H193 C191 0.960 . S
H194 C191 0.961 . S
O195 Co170 1.967 . S
O195 C203 1.258 . S
O196 Co171 1.941 . S
O196 C203 1.266 . S
H197 C199 0.959 . S
H198 C199 0.961 . S
C199 C189 1.510 . S
C199 H197 0.959 . S
C199 H198 0.961 . S
C199 H200 0.960 . S
H200 C199 0.960 . S
H201 N181 0.862 . S
O202 Co170 1.920 . S
O202 C175 1.289 . S
C203 O195 1.258 . S
C203 O196 1.266 . S
Co204 O207 1.970 . S
Co204 N221 1.989 . S
Co204 O229 1.967 . S
Co204 O236 1.920 . S
Co205 O208 1.966 . S
Co205 N214 2.022 . S
Co205 N222 1.993 . S
Co205 O230 1.941 . S
C206 O207 1.258 . S
C206 O208 1.263 . S
O207 Co204 1.970 . S
O207 C206 1.258 . S
O208 Co205 1.966 . S
O208 C206 1.263 . S
C209 O210 1.235 . S
C209 O236 1.289 . S
O210 C209 1.235 . S
C211 C213 1.400 . S
C211 N214 1.351 . S
C211 C216 1.501 . S
C212 C213 1.387 . S
C212 N215 1.341 . S
C213 C211 1.400 . S
C213 C212 1.387 . S
N214 Co205 2.022 . S
N214 C211 1.351 . S
N214 N215 1.365 . S
N215 C212 1.341 . S
N215 N214 1.365 . S
N215 H235 0.862 . S
C216 C211 1.501 . S
C216 H217 0.961 . S
C216 H218 0.961 . S
C216 H219 0.960 . S
H217 C216 0.961 . S
H218 C216 0.961 . S
H219 C216 0.960 . S
C220 N221 1.342 . S
C220 C224 1.401 . S
C220 C225 1.499 . S
N221 Co204 1.989 . S
N221 C220 1.342 . S
N221 N222 1.388 . S
N222 Co205 1.993 . S
N222 N221 1.388 . S
N222 C223 1.346 . S
C223 N222 1.346 . S
C223 C224 1.396 . S
C223 C233 1.510 . S
C224 C220 1.401 . S
C224 C223 1.396 . S
C225 C220 1.499 . S
C225 H226 0.959 . S
C225 H227 0.960 . S
C225 H228 0.961 . S
H226 C225 0.959 . S
H227 C225 0.960 . S
H228 C225 0.961 . S
O229 Co204 1.967 . S
O229 C237 1.258 . S
O230 Co205 1.941 . S
O230 C237 1.266 . S
H231 C233 0.959 . S
H232 C233 0.961 . S
C233 C223 1.510 . S
C233 H231 0.959 . S
C233 H232 0.961 . S
C233 H234 0.960 . S
H234 C233 0.960 . S
H235 N215 0.862 . S
O236 Co204 1.920 . S
O236 C209 1.289 . S
C237 O229 1.258 . S
C237 O230 1.266 . S
Co238 O241 1.970 . S
Co238 N255 1.989 . S
Co238 O263 1.967 . S
Co238 O270 1.920 . S
Co239 O242 1.966 . S
Co239 N248 2.022 . S
Co239 N256 1.993 . S
Co239 O264 1.941 . S
C240 O241 1.258 . S
C240 O242 1.263 1_554 S
O241 Co238 1.970 . S
O241 C240 1.258 . S
O242 Co239 1.966 . S
O242 C240 1.263 1_556 S
C243 O244 1.235 . S
C243 O270 1.289 . S
O244 C243 1.235 . S
C245 C247 1.400 . S
C245 N248 1.351 . S
C245 C250 1.501 . S
C246 C247 1.387 . S
C246 N249 1.341 . S
C247 C245 1.400 . S
C247 C246 1.387 . S
N248 Co239 2.022 . S
N248 C245 1.351 . S
N248 N249 1.365 . S
N249 C246 1.341 . S
N249 N248 1.365 . S
N249 H269 0.862 . S
C250 C245 1.501 . S
C250 H251 0.961 . S
C250 H252 0.961 . S
C250 H253 0.960 . S
H251 C250 0.961 . S
H252 C250 0.961 . S
H253 C250 0.960 . S
C254 N255 1.342 . S
C254 C258 1.401 1_554 S
C254 C259 1.499 . S
N255 Co238 1.989 . S
N255 C254 1.342 . S
N255 N256 1.388 1_554 S
N256 Co239 1.993 . S
N256 N255 1.388 1_556 S
N256 C257 1.346 . S
C257 N256 1.346 . S
C257 C258 1.396 . S
C257 C267 1.510 . S
C258 C254 1.401 1_556 S
C258 C257 1.396 . S
C259 C254 1.499 . S
C259 H260 0.959 . S
C259 H261 0.960 . S
C259 H262 0.961 . S
H260 C259 0.959 . S
H261 C259 0.960 . S
H262 C259 0.961 . S
O263 Co238 1.967 . S
O263 C271 1.258 . S
O264 Co239 1.941 . S
O264 C271 1.266 1_556 S
H265 C267 0.959 . S
H266 C267 0.961 . S
C267 C257 1.510 . S
C267 H265 0.959 . S
C267 H266 0.961 . S
C267 H268 0.960 . S
H268 C267 0.960 . S
H269 N249 0.862 . S
O270 Co238 1.920 . S
O270 C243 1.289 . S
C271 O263 1.258 . S
C271 O264 1.266 1_554 S
C272 C273 1.349 . S
C272 C274 1.327 . S
C272 H297 0.950 . S
C273 C272 1.349 . S
C273 C289 1.349 . S
C274 C272 1.327 . S
C274 C293 1.429 . S
C274 H298 0.950 . S
C275 C292 1.574 . S
C275 C294 1.368 . S
C275 H299 0.949 . S
H276 C280 0.949 . S
C277 C278 1.349 . S
C277 C279 1.327 . S
C277 H300 0.950 . S
C278 C277 1.349 . S
C278 C290 1.349 . S
C279 C277 1.327 . S
C279 C295 1.429 . S
C279 H301 0.950 . S
C280 H276 0.949 . S
C280 C288 1.574 . S
C280 C296 1.368 . S
H281 C289 0.950 . S
H282 C287 0.950 . S
H283 C288 0.949 . S
H284 C290 0.950 . S
H285 C291 0.950 . S
H286 C292 0.949 . S
C287 H282 0.950 . S
C287 C289 1.327 . S
C287 C293 1.429 . S
C288 C280 1.574 . S
C288 H283 0.949 . S
C288 C294 1.368 . S
C289 C273 1.349 . S
C289 H281 0.950 . S
C289 C287 1.327 . S
C290 C278 1.349 . S
C290 H284 0.950 . S
C290 C291 1.327 . S
C291 H285 0.950 . S
C291 C290 1.327 . S
C291 C295 1.429 . S
C292 C275 1.574 . S
C292 H286 0.949 . S
C292 C296 1.368 . S
C293 C274 1.429 . S
C293 C287 1.429 . S
C293 C294 1.523 . S
C294 C275 1.368 . S
C294 C288 1.368 . S
C294 C293 1.523 . S
C295 C279 1.429 . S
C295 C291 1.429 . S
C295 C296 1.523 . S
C296 C280 1.368 . S
C296 C292 1.368 . S
C296 C295 1.523 . S
H297 C272 0.950 . S
H298 C274 0.950 . S
H299 C275 0.949 . S
H300 C277 0.950 . S
H301 C279 0.950 . S
C302 C303 1.349 . S
C302 C304 1.327 . S
C302 H327 0.950 . S
C303 C302 1.349 . S
C303 C319 1.349 . S
C304 C302 1.327 . S
C304 C323 1.429 . S
C304 H328 0.950 . S
C305 C322 1.574 . S
C305 C324 1.368 . S
C305 H329 0.949 . S
H306 C310 0.949 . S
C307 C308 1.349 . S
C307 C309 1.327 . S
C307 H330 0.950 . S
C308 C307 1.349 . S
C308 C320 1.349 . S
C309 C307 1.327 . S
C309 C325 1.429 . S
C309 H331 0.950 . S
C310 H306 0.949 . S
C310 C318 1.574 . S
C310 C326 1.368 . S
H311 C319 0.950 . S
H312 C317 0.950 . S
H313 C318 0.949 . S
H314 C320 0.950 . S
H315 C321 0.950 . S
H316 C322 0.949 . S
C317 H312 0.950 . S
C317 C319 1.327 . S
C317 C323 1.429 . S
C318 C310 1.574 . S
C318 H313 0.949 . S
C318 C324 1.368 . S
C319 C303 1.349 . S
C319 H311 0.950 . S
C319 C317 1.327 . S
C320 C308 1.349 . S
C320 H314 0.950 . S
C320 C321 1.327 . S
C321 H315 0.950 . S
C321 C320 1.327 . S
C321 C325 1.429 . S
C322 C305 1.574 . S
C322 H316 0.949 . S
C322 C326 1.368 . S
C323 C304 1.429 . S
C323 C317 1.429 . S
C323 C324 1.523 . S
C324 C305 1.368 . S
C324 C318 1.368 . S
C324 C323 1.523 . S
C325 C309 1.429 . S
C325 C321 1.429 . S
C325 C326 1.523 . S
C326 C310 1.368 . S
C326 C322 1.368 . S
C326 C325 1.523 . S
H327 C302 0.950 . S
H328 C304 0.950 . S
H329 C305 0.949 . S
H330 C307 0.950 . S
H331 C309 0.950 . S
C332 C333 1.349 . S
C332 C334 1.327 . S
C332 H357 0.950 . S
C333 C332 1.349 . S
C333 C349 1.349 . S
C334 C332 1.327 . S
C334 C353 1.429 . S
C334 H358 0.950 . S
C335 C352 1.574 . S
C335 C354 1.368 . S
C335 H359 0.949 . S
H336 C340 0.949 . S
C337 C338 1.349 . S
C337 C339 1.327 . S
C337 H360 0.950 . S
C338 C337 1.349 . S
C338 C350 1.349 1_556 S
C339 C337 1.327 . S
C339 C355 1.429 . S
C339 H361 0.950 . S
C340 H336 0.949 . S
C340 C348 1.574 . S
C340 C356 1.368 . S
H341 C349 0.950 . S
H342 C347 0.950 . S
H343 C348 0.949 . S
H344 C350 0.950 . S
H345 C351 0.950 1_554 S
H346 C352 0.949 . S
C347 H342 0.950 . S
C347 C349 1.327 . S
C347 C353 1.429 . S
C348 C340 1.574 . S
C348 H343 0.949 . S
C348 C354 1.368 . S
C349 C333 1.349 . S
C349 H341 0.950 . S
C349 C347 1.327 . S
C350 C338 1.349 1_554 S
C350 H344 0.950 . S
C350 C351 1.327 1_554 S
C351 H345 0.950 1_556 S
C351 C350 1.327 1_556 S
C351 C355 1.429 . S
C352 C335 1.574 . S
C352 H346 0.949 . S
C352 C356 1.368 . S
C353 C334 1.429 . S
C353 C347 1.429 . S
C353 C354 1.523 . S
C354 C335 1.368 . S
C354 C348 1.368 . S
C354 C353 1.523 . S
C355 C339 1.429 . S
C355 C351 1.429 . S
C355 C356 1.523 . S
C356 C340 1.368 . S
C356 C352 1.368 . S
C356 C355 1.523 . S
H357 C332 0.950 . S
H358 C334 0.950 . S
H359 C335 0.949 . S
H360 C337 0.950 . S
H361 C339 0.950 . S
C362 C363 1.349 . S
C362 C364 1.327 . S
C362 H387 0.950 . S
C363 C362 1.349 . S
C363 C379 1.349 . S
C364 C362 1.327 . S
C364 C383 1.429 . S
C364 H388 0.950 . S
C365 C382 1.574 . S
C365 C384 1.368 . S
C365 H389 0.949 . S
H366 C370 0.949 . S
C367 C368 1.349 . S
C367 C369 1.327 . S
C367 H390 0.950 1_554 S
C368 C367 1.349 . S
C368 C380 1.349 . S
C369 C367 1.327 . S
C369 C385 1.429 . S
C369 H391 0.950 1_554 S
C370 H366 0.949 . S
C370 C378 1.574 . S
C370 C386 1.368 . S
H371 C379 0.950 . S
H372 C377 0.950 . S
H373 C378 0.949 . S
H374 C380 0.950 . S
H375 C381 0.950 . S
H376 C382 0.949 . S
C377 H372 0.950 . S
C377 C379 1.327 . S
C377 C383 1.429 . S
C378 C370 1.574 . S
C378 H373 0.949 . S
C378 C384 1.368 . S
C379 C363 1.349 . S
C379 H371 0.950 . S
C379 C377 1.327 . S
C380 C368 1.349 . S
C380 H374 0.950 . S
C380 C381 1.327 . S
C381 H375 0.950 . S
C381 C380 1.327 . S
C381 C385 1.429 . S
C382 C365 1.574 . S
C382 H376 0.949 . S
C382 C386 1.368 . S
C383 C364 1.429 . S
C383 C377 1.429 . S
C383 C384 1.523 . S
C384 C365 1.368 . S
C384 C378 1.368 . S
C384 C383 1.523 . S
C385 C369 1.429 . S
C385 C381 1.429 . S
C385 C386 1.523 . S
C386 C370 1.368 . S
C386 C382 1.368 . S
C386 C385 1.523 . S
H387 C362 0.950 . S
H388 C364 0.950 . S
H389 C365 0.949 . S
H390 C367 0.950 1_556 S
H391 C369 0.950 1_556 S
C392 C393 1.349 . S
C392 C394 1.327 . S
C392 H417 0.950 . S
C393 C392 1.349 . S
C393 C409 1.349 . S
C394 C392 1.327 . S
C394 C413 1.429 . S
C394 H418 0.950 . S
C395 C412 1.574 . S
C395 C414 1.368 . S
C395 H419 0.949 . S
H396 C400 0.949 . S
C397 C398 1.349 1_556 S
C397 C399 1.327 . S
C397 H420 0.950 1_556 S
C398 C397 1.349 1_554 S
C398 C410 1.350 . S
C399 C397 1.327 . S
C399 C415 1.429 . S
C399 H421 0.950 . S
C400 H396 0.949 . S
C400 C408 1.574 . S
C400 C416 1.368 . S
H401 C409 0.950 . S
H402 C407 0.950 . S
H403 C408 0.949 . S
H404 C410 0.951 . S
H405 C411 0.950 . S
H406 C412 0.949 . S
C407 H402 0.950 . S
C407 C409 1.327 . S
C407 C413 1.429 . S
C408 C400 1.574 . S
C408 H403 0.949 . S
C408 C414 1.368 . S
C409 C393 1.349 . S
C409 H401 0.950 . S
C409 C407 1.327 . S
C410 C398 1.350 . S
C410 H404 0.951 . S
C410 C411 1.325 1_554 S
C411 H405 0.950 . S
C411 C410 1.325 1_556 S
C411 C415 1.429 . S
C412 C395 1.574 . S
C412 H406 0.949 . S
C412 C416 1.368 . S
C413 C394 1.429 . S
C413 C407 1.429 . S
C413 C414 1.523 . S
C414 C395 1.368 . S
C414 C408 1.368 . S
C414 C413 1.523 . S
C415 C399 1.429 . S
C415 C411 1.429 . S
C415 C416 1.523 . S
C416 C400 1.368 . S
C416 C412 1.368 . S
C416 C415 1.523 . S
H417 C392 0.950 . S
H418 C394 0.950 . S
H419 C395 0.949 . S
H420 C397 0.950 1_554 S
H421 C399 0.950 . S
C422 C423 1.349 . S
C422 C424 1.327 . S
C422 H447 0.950 . S
C423 C422 1.349 . S
C423 C439 1.349 . S
C424 C422 1.327 . S
C424 C443 1.429 . S
C424 H448 0.950 . S
C425 C442 1.573 1_554 S
C425 C444 1.368 . S
C425 H449 0.949 . S
H426 C430 0.949 . S
C427 C428 1.349 . S
C427 C429 1.327 . S
C427 H450 0.950 . S
C428 C427 1.349 . S
C428 C440 1.349 . S
C429 C427 1.327 . S
C429 C445 1.429 . S
C429 H451 0.950 . S
C430 H426 0.949 . S
C430 C438 1.574 1_556 S
C430 C446 1.368 . S
H431 C439 0.950 . S
H432 C437 0.950 . S
H433 C438 0.949 . S
H434 C440 0.950 . S
H435 C441 0.950 . S
H436 C442 0.949 . S
C437 H432 0.950 . S
C437 C439 1.327 . S
C437 C443 1.429 . S
C438 C430 1.574 1_554 S
C438 H433 0.949 . S
C438 C444 1.368 . S
C439 C423 1.349 . S
C439 H431 0.950 . S
C439 C437 1.327 . S
C440 C428 1.349 . S
C440 H434 0.950 . S
C440 C441 1.327 . S
C441 H435 0.950 . S
C441 C440 1.327 . S
C441 C445 1.429 . S
C442 C425 1.573 1_556 S
C442 H436 0.949 . S
C442 C446 1.368 . S
C443 C424 1.429 . S
C443 C437 1.429 . S
C443 C444 1.523 . S
C444 C425 1.368 . S
C444 C438 1.368 . S
C444 C443 1.523 . S
C445 C429 1.429 . S
C445 C441 1.429 . S
C445 C446 1.523 . S
C446 C430 1.368 . S
C446 C442 1.368 . S
C446 C445 1.523 . S
H447 C422 0.950 . S
H448 C424 0.950 . S
H449 C425 0.949 . S
H450 C427 0.950 . S
H451 C429 0.950 . S
C452 C453 1.349 . S
C452 C454 1.327 . S
C452 H477 0.950 . S
C453 C452 1.349 . S
C453 C469 1.349 . S
C454 C452 1.327 . S
C454 C473 1.429 . S
C454 H478 0.950 . S
C455 C472 1.574 . S
C455 C474 1.368 . S
C455 H479 0.949 . S
H456 C460 0.949 . S
C457 C458 1.349 . S
C457 C459 1.327 . S
C457 H480 0.950 . S
C458 C457 1.349 . S
C458 C470 1.349 . S
C459 C457 1.327 . S
C459 C475 1.429 . S
C459 H481 0.950 . S
C460 H456 0.949 . S
C460 C468 1.574 . S
C460 C476 1.368 . S
H461 C469 0.950 . S
H462 C467 0.950 . S
H463 C468 0.949 . S
H464 C470 0.950 . S
H465 C471 0.950 . S
H466 C472 0.949 . S
C467 H462 0.950 . S
C467 C469 1.327 . S
C467 C473 1.429 . S
C468 C460 1.574 . S
C468 H463 0.949 . S
C468 C474 1.368 . S
C469 C453 1.349 . S
C469 H461 0.950 . S
C469 C467 1.327 . S
C470 C458 1.349 . S
C470 H464 0.950 . S
C470 C471 1.327 . S
C471 H465 0.950 . S
C471 C470 1.327 . S
C471 C475 1.429 . S
C472 C455 1.574 . S
C472 H466 0.949 . S
C472 C476 1.368 . S
C473 C454 1.429 . S
C473 C467 1.429 . S
C473 C474 1.523 . S
C474 C455 1.368 . S
C474 C468 1.368 . S
C474 C473 1.523 . S
C475 C459 1.429 . S
C475 C471 1.429 . S
C475 C476 1.523 . S
C476 C460 1.368 . S
C476 C472 1.368 . S
C476 C475 1.523 . S
H477 C452 0.950 . S
H478 C454 0.950 . S
H479 C455 0.949 . S
H480 C457 0.950 . S
H481 C459 0.950 . S
C482 C483 1.349 . S
C482 C484 1.327 . S
C482 H507 0.950 . S
C483 C482 1.349 . S
C483 C499 1.349 . S
C484 C482 1.327 . S
C484 C503 1.429 . S
C484 H508 0.950 . S
C485 C502 1.574 . S
C485 C504 1.368 . S
C485 H509 0.949 . S
H486 C490 0.949 . S
C487 C488 1.349 . S
C487 C489 1.327 . S
C487 H510 0.950 . S
C488 C487 1.349 . S
C488 C500 1.349 . S
C489 C487 1.327 . S
C489 C505 1.429 . S
C489 H511 0.950 . S
C490 H486 0.949 . S
C490 C498 1.574 . S
C490 C506 1.368 . S
H491 C499 0.950 . S
H492 C497 0.950 . S
H493 C498 0.949 . S
H494 C500 0.950 . S
H495 C501 0.950 . S
H496 C502 0.949 . S
C497 H492 0.950 . S
C497 C499 1.327 . S
C497 C503 1.429 . S
C498 C490 1.574 . S
C498 H493 0.949 . S
C498 C504 1.368 . S
C499 C483 1.349 . S
C499 H491 0.950 . S
C499 C497 1.327 . S
C500 C488 1.349 . S
C500 H494 0.950 . S
C500 C501 1.327 . S
C501 H495 0.950 . S
C501 C500 1.327 . S
C501 C505 1.429 . S
C502 C485 1.574 . S
C502 H496 0.949 . S
C502 C506 1.368 . S
C503 C484 1.429 . S
C503 C497 1.429 . S
C503 C504 1.523 . S
C504 C485 1.368 . S
C504 C498 1.368 . S
C504 C503 1.523 . S
C505 C489 1.429 . S
C505 C501 1.429 . S
C505 C506 1.523 . S
C506 C490 1.368 . S
C506 C502 1.368 . S
C506 C505 1.523 . S
H507 C482 0.950 . S
H508 C484 0.950 . S
H509 C485 0.949 . S
H510 C487 0.950 . S
H511 C489 0.950 . S
C512 C513 1.349 . S
C512 C514 1.327 . S
C512 H537 0.950 . S
C513 C512 1.349 . S
C513 C529 1.349 . S
C514 C512 1.327 . S
C514 C533 1.429 . S
C514 H538 0.950 . S
C515 C532 1.574 . S
C515 C534 1.368 . S
C515 H539 0.949 . S
H516 C520 0.949 . S
C517 C518 1.349 . S
C517 C519 1.327 . S
C517 H540 0.950 . S
C518 C517 1.349 . S
C518 C530 1.349 . S
C519 C517 1.327 . S
C519 C535 1.429 . S
C519 H541 0.950 . S
C520 H516 0.949 . S
C520 C528 1.574 . S
C520 C536 1.368 . S
H521 C529 0.950 . S
H522 C527 0.950 . S
H523 C528 0.949 . S
H524 C530 0.950 . S
H525 C531 0.950 . S
H526 C532 0.949 . S
C527 H522 0.950 . S
C527 C529 1.327 . S
C527 C533 1.429 . S
C528 C520 1.574 . S
C528 H523 0.949 . S
C528 C534 1.368 . S
C529 C513 1.349 . S
C529 H521 0.950 . S
C529 C527 1.327 . S
C530 C518 1.349 . S
C530 H524 0.950 . S
C530 C531 1.327 . S
C531 H525 0.950 . S
C531 C530 1.327 . S
C531 C535 1.429 . S
C532 C515 1.574 . S
C532 H526 0.949 . S
C532 C536 1.368 . S
C533 C514 1.429 . S
C533 C527 1.429 . S
C533 C534 1.523 . S
C534 C515 1.368 . S
C534 C528 1.368 . S
C534 C533 1.523 . S
C535 C519 1.429 . S
C535 C531 1.429 . S
C535 C536 1.523 . S
C536 C520 1.368 . S
C536 C532 1.368 . S
C536 C535 1.523 . S
H537 C512 0.950 . S
H538 C514 0.950 . S
H539 C515 0.949 . S
H540 C517 0.950 . S
H541 C519 0.950 . S
C542 C543 1.349 . S
C542 C544 1.327 . S
C542 H567 0.950 . S
C543 C542 1.349 . S
C543 C559 1.349 . S
C544 C542 1.327 . S
C544 C563 1.429 . S
C544 H568 0.950 . S
C545 C562 1.574 1_554 S
C545 C564 1.368 . S
C545 H569 0.949 . S
H546 C550 0.949 . S
C547 C548 1.349 . S
C547 C549 1.327 . S
C547 H570 0.950 . S
C548 C547 1.349 . S
C548 C560 1.349 . S
C549 C547 1.327 . S
C549 C565 1.429 . S
C549 H571 0.950 . S
C550 H546 0.949 . S
C550 C558 1.574 1_556 S
C550 C566 1.368 . S
H551 C559 0.950 . S
H552 C557 0.950 . S
H553 C558 0.949 . S
H554 C560 0.950 . S
H555 C561 0.950 . S
H556 C562 0.949 . S
C557 H552 0.950 . S
C557 C559 1.327 . S
C557 C563 1.429 . S
C558 C550 1.574 1_554 S
C558 H553 0.949 . S
C558 C564 1.368 . S
C559 C543 1.349 . S
C559 H551 0.950 . S
C559 C557 1.327 . S
C560 C548 1.349 . S
C560 H554 0.950 . S
C560 C561 1.327 . S
C561 H555 0.950 . S
C561 C560 1.327 . S
C561 C565 1.429 . S
C562 C545 1.574 1_556 S
C562 H556 0.949 . S
C562 C566 1.368 . S
C563 C544 1.429 . S
C563 C557 1.429 . S
C563 C564 1.523 . S
C564 C545 1.368 . S
C564 C558 1.368 . S
C564 C563 1.523 . S
C565 C549 1.429 . S
C565 C561 1.429 . S
C565 C566 1.523 . S
C566 C550 1.368 . S
C566 C562 1.368 . S
C566 C565 1.523 . S
H567 C542 0.950 . S
H568 C544 0.950 . S
H569 C545 0.949 . S
H570 C547 0.950 . S
H571 C549 0.950 . S
C572 C573 1.349 . S
C572 C574 1.327 . S
C572 H597 0.950 . S
C573 C572 1.349 . S
C573 C589 1.349 . S
C574 C572 1.327 . S
C574 C593 1.429 . S
C574 H598 0.950 . S
C575 C592 1.574 . S
C575 C594 1.368 . S
C575 H599 0.949 . S
H576 C580 0.949 . S
C577 C578 1.355 . S
C577 C579 1.312 1_556 S
C577 H600 0.959 . S
C578 C577 1.355 . S
C578 C590 1.349 1_556 S
C579 C577 1.312 1_554 S
C579 C595 1.429 . S
C579 H601 0.950 . S
C580 H576 0.949 . S
C580 C588 1.574 . S
C580 C596 1.368 . S
H581 C589 0.950 . S
H582 C587 0.950 . S
H583 C588 0.949 . S
H584 C590 0.950 1_556 S
H585 C591 0.950 . S
H586 C592 0.949 . S
C587 H582 0.950 . S
C587 C589 1.327 . S
C587 C593 1.429 . S
C588 C580 1.574 . S
C588 H583 0.949 . S
C588 C594 1.368 . S
C589 C573 1.349 . S
C589 H581 0.950 . S
C589 C587 1.327 . S
C590 C578 1.349 1_554 S
C590 H584 0.950 1_554 S
C590 C591 1.327 . S
C591 H585 0.950 . S
C591 C590 1.327 . S
C591 C595 1.429 . S
C592 C575 1.574 . S
C592 H586 0.949 . S
C592 C596 1.368 . S
C593 C574 1.429 . S
C593 C587 1.429 . S
C593 C594 1.523 . S
C594 C575 1.368 . S
C594 C588 1.368 . S
C594 C593 1.523 . S
C595 C579 1.429 . S
C595 C591 1.429 . S
C595 C596 1.523 . S
C596 C580 1.368 . S
C596 C592 1.368 . S
C596 C595 1.523 . S
H597 C572 0.950 . S
H598 C574 0.950 . S
H599 C575 0.949 . S
H600 C577 0.959 . S
H601 C579 0.950 . S
C602 C603 1.349 . S
C602 C604 1.327 . S
C602 H627 0.950 . S
C603 C602 1.349 . S
C603 C619 1.349 . S
C604 C602 1.327 . S
C604 C623 1.429 . S
C604 H628 0.950 . S
C605 C622 1.574 . S
C605 C624 1.368 . S
C605 H629 0.949 . S
H606 C610 0.949 . S
C607 C608 1.349 . S
C607 C609 1.327 . S
C607 H630 0.950 . S
C608 C607 1.349 . S
C608 C620 1.349 . S
C609 C607 1.327 . S
C609 C625 1.429 . S
C609 H631 0.950 . S
C610 H606 0.949 . S
C610 C618 1.574 . S
C610 C626 1.368 . S
H611 C619 0.950 . S
H612 C617 0.950 . S
H613 C618 0.949 . S
H614 C620 0.950 . S
H615 C621 0.950 . S
H616 C622 0.949 . S
C617 H612 0.950 . S
C617 C619 1.327 . S
C617 C623 1.429 . S
C618 C610 1.574 . S
C618 H613 0.949 . S
C618 C624 1.368 . S
C619 C603 1.349 . S
C619 H611 0.950 . S
C619 C617 1.327 . S
C620 C608 1.349 . S
C620 H614 0.950 . S
C620 C621 1.327 . S
C621 H615 0.950 . S
C621 C620 1.327 . S
C621 C625 1.429 . S
C622 C605 1.574 . S
C622 H616 0.949 . S
C622 C626 1.368 . S
C623 C604 1.429 . S
C623 C617 1.429 . S
C623 C624 1.523 . S
C624 C605 1.368 . S
C624 C618 1.368 . S
C624 C623 1.523 . S
C625 C609 1.429 . S
C625 C621 1.429 . S
C625 C626 1.523 . S
C626 C610 1.368 . S
C626 C622 1.368 . S
C626 C625 1.523 . S
H627 C602 0.950 . S
H628 C604 0.950 . S
H629 C605 0.949 . S
H630 C607 0.950 . S
H631 C609 0.950 . S
C632 C633 1.349 . S
C632 C634 1.327 . S
C632 H657 0.950 . S
C633 C632 1.349 . S
C633 C649 1.349 . S
C634 C632 1.327 . S
C634 C653 1.429 . S
C634 H658 0.950 . S
C635 C652 1.560 1_454 S
C635 C654 1.381 . S
C635 H659 0.948 . S
H636 C640 0.948 . S
C637 C638 1.349 . S
C637 C639 1.327 . S
C637 H660 0.950 . S
C638 C637 1.349 . S
C638 C650 1.349 . S
C639 C637 1.327 . S
C639 C655 1.429 . S
C639 H661 0.950 . S
C640 H636 0.948 . S
C640 C648 1.560 1_656 S
C640 C656 1.381 . S
H641 C649 0.950 . S
H642 C647 0.950 . S
H643 C648 0.949 . S
H644 C650 0.950 . S
H645 C651 0.950 . S
H646 C652 0.949 . S
C647 H642 0.950 . S
C647 C649 1.327 . S
C647 C653 1.429 . S
C648 C640 1.560 1_454 S
C648 H643 0.949 . S
C648 C654 1.368 . S
C649 C633 1.349 . S
C649 H641 0.950 . S
C649 C647 1.327 . S
C650 C638 1.349 . S
C650 H644 0.950 . S
C650 C651 1.327 . S
C651 H645 0.950 . S
C651 C650 1.327 . S
C651 C655 1.429 . S
C652 C635 1.560 1_656 S
C652 H646 0.949 . S
C652 C656 1.368 . S
C653 C634 1.429 . S
C653 C647 1.429 . S
C653 C654 1.523 . S
C654 C635 1.381 . S
C654 C648 1.368 . S
C654 C653 1.523 . S
C655 C639 1.429 . S
C655 C651 1.429 . S
C655 C656 1.523 . S
C656 C640 1.381 . S
C656 C652 1.368 . S
C656 C655 1.523 . S
H657 C632 0.950 . S
H658 C634 0.950 . S
H659 C635 0.948 . S
H660 C637 0.950 . S
H661 C639 0.950 . S
C662 C663 1.349 . S
C662 C664 1.327 . S
C662 H687 0.950 . S
C663 C662 1.349 . S
C663 C679 1.349 . S
C664 C662 1.327 . S
C664 C683 1.429 . S
C664 H688 0.950 . S
C665 C682 1.574 . S
C665 C684 1.368 1_545 S
C665 H689 0.949 . S
H666 C670 0.949 . S
C667 C668 1.349 . S
C667 C669 1.327 . S
C667 H690 0.950 . S
C668 C667 1.349 . S
C668 C680 1.349 . S
C669 C667 1.327 . S
C669 C685 1.429 . S
C669 H691 0.950 . S
C670 H666 0.949 . S
C670 C678 1.574 . S
C670 C686 1.368 1_565 S
H671 C679 0.950 . S
H672 C677 0.950 . S
H673 C678 0.949 . S
H674 C680 0.950 . S
H675 C681 0.950 . S
H676 C682 0.949 . S
C677 H672 0.950 . S
C677 C679 1.327 . S
C677 C683 1.429 . S
C678 C670 1.574 . S
C678 H673 0.949 . S
C678 C684 1.368 . S
C679 C663 1.349 . S
C679 H671 0.950 . S
C679 C677 1.327 . S
C680 C668 1.349 . S
C680 H674 0.950 . S
C680 C681 1.327 . S
C681 H675 0.950 . S
C681 C680 1.327 . S
C681 C685 1.429 . S
C682 C665 1.574 . S
C682 H676 0.949 . S
C682 C686 1.368 . S
C683 C664 1.429 . S
C683 C677 1.429 . S
C683 C684 1.523 . S
C684 C665 1.368 1_565 S
C684 C678 1.368 . S
C684 C683 1.523 . S
C685 C669 1.429 . S
C685 C681 1.429 . S
C685 C686 1.523 . S
C686 C670 1.368 1_545 S
C686 C682 1.368 . S
C686 C685 1.523 . S
H687 C662 0.950 . S
H688 C664 0.950 . S
H689 C665 0.949 . S
H690 C667 0.950 . S
H691 C669 0.950 . S
C692 C693 1.349 . S
C692 C694 1.327 . S
C692 H717 0.950 . S
C693 C692 1.349 . S
C693 C709 1.349 . S
C694 C692 1.327 . S
C694 C713 1.429 . S
C694 H718 0.950 . S
C695 C712 1.563 1_455 S
C695 C714 1.368 . S
C695 H719 0.949 . S
H696 C700 0.949 . S
C697 C698 1.349 . S
C697 C699 1.327 . S
C697 H720 0.950 . S
C698 C697 1.349 . S
C698 C710 1.349 . S
C699 C697 1.327 . S
C699 C715 1.429 . S
C699 H721 0.950 . S
C700 H696 0.949 . S
C700 C708 1.563 1_655 S
C700 C716 1.368 . S
H701 C709 0.950 . S
H702 C707 0.950 . S
H703 C708 0.948 . S
H704 C710 0.950 . S
H705 C711 0.950 . S
H706 C712 0.948 . S
C707 H702 0.950 . S
C707 C709 1.327 . S
C707 C713 1.429 . S
C708 C700 1.563 1_455 S
C708 H703 0.948 . S
C708 C714 1.378 . S
C709 C693 1.349 . S
C709 H701 0.950 . S
C709 C707 1.327 . S
C710 C698 1.349 . S
C710 H704 0.950 . S
C710 C711 1.327 . S
C711 H705 0.950 . S
C711 C710 1.327 . S
C711 C715 1.429 . S
C712 C695 1.563 1_655 S
C712 H706 0.948 . S
C712 C716 1.378 . S
C713 C694 1.429 . S
C713 C707 1.429 . S
C713 C714 1.523 . S
C714 C695 1.368 . S
C714 C708 1.378 . S
C714 C713 1.523 . S
C715 C699 1.429 . S
C715 C711 1.429 . S
C715 C716 1.523 . S
C716 C700 1.368 . S
C716 C712 1.378 . S
C716 C715 1.523 . S
H717 C692 0.950 . S
H718 C694 0.950 . S
H719 C695 0.949 . S
H720 C697 0.950 . S
H721 C699 0.950 . S
C722 C723 1.349 . S
C722 C724 1.327 . S
C722 H747 0.950 . S
C723 C722 1.349 . S
C723 C739 1.349 . S
C724 C722 1.327 . S
C724 C743 1.429 . S
C724 H748 0.950 . S
C725 C742 1.574 . S
C725 C744 1.368 . S
C725 H749 0.949 . S
H726 C730 0.949 . S
C727 C728 1.349 . S
C727 C729 1.327 . S
C727 H750 0.950 . S
C728 C727 1.349 . S
C728 C740 1.349 . S
C729 C727 1.327 . S
C729 C745 1.429 . S
C729 H751 0.950 . S
C730 H726 0.949 . S
C730 C738 1.574 . S
C730 C746 1.368 . S
H731 C739 0.950 . S
H732 C737 0.950 . S
H733 C738 0.949 . S
H734 C740 0.950 . S
H735 C741 0.950 . S
H736 C742 0.949 . S
C737 H732 0.950 . S
C737 C739 1.327 . S
C737 C743 1.429 . S
C738 C730 1.574 . S
C738 H733 0.949 . S
C738 C744 1.368 1_545 S
C739 C723 1.349 . S
C739 H731 0.950 . S
C739 C737 1.327 . S
C740 C728 1.349 . S
C740 H734 0.950 . S
C740 C741 1.327 . S
C741 H735 0.950 . S
C741 C740 1.327 . S
C741 C745 1.429 . S
C742 C725 1.574 . S
C742 H736 0.949 . S
C742 C746 1.368 1_565 S
C743 C724 1.429 . S
C743 C737 1.429 . S
C743 C744 1.523 . S
C744 C725 1.368 . S
C744 C738 1.368 1_565 S
C744 C743 1.523 . S
C745 C729 1.429 . S
C745 C741 1.429 . S
C745 C746 1.523 . S
C746 C730 1.368 . S
C746 C742 1.368 1_545 S
C746 C745 1.523 . S
H747 C722 0.950 . S
H748 C724 0.950 . S
H749 C725 0.949 . S
H750 C727 0.950 . S
H751 C729 0.950 . S
C752 C753 1.349 . S
C752 C754 1.327 . S
C752 H777 0.950 . S
C753 C752 1.349 . S
C753 C769 1.349 . S
C754 C752 1.327 . S
C754 C773 1.429 . S
C754 H778 0.950 . S
C755 C772 1.574 . S
C755 C774 1.368 . S
C755 H779 0.949 . S
H756 C760 0.949 . S
C757 C758 1.349 . S
C757 C759 1.327 . S
C757 H780 0.950 . S
C758 C757 1.349 . S
C758 C770 1.349 . S
C759 C757 1.327 . S
C759 C775 1.429 . S
C759 H781 0.950 . S
C760 H756 0.949 . S
C760 C768 1.574 . S
C760 C776 1.368 . S
H761 C769 0.950 . S
H762 C767 0.950 . S
H763 C768 0.949 . S
H764 C770 0.950 . S
H765 C771 0.950 . S
H766 C772 0.949 . S
C767 H762 0.950 . S
C767 C769 1.327 . S
C767 C773 1.429 . S
C768 C760 1.574 . S
C768 H763 0.949 . S
C768 C774 1.368 . S
C769 C753 1.349 . S
C769 H761 0.950 . S
C769 C767 1.327 . S
C770 C758 1.349 . S
C770 H764 0.950 . S
C770 C771 1.327 . S
C771 H765 0.950 . S
C771 C770 1.327 . S
C771 C775 1.429 . S
C772 C755 1.574 . S
C772 H766 0.949 . S
C772 C776 1.368 . S
C773 C754 1.429 . S
C773 C767 1.429 . S
C773 C774 1.523 . S
C774 C755 1.368 . S
C774 C768 1.368 . S
C774 C773 1.523 . S
C775 C759 1.429 . S
C775 C771 1.429 . S
C775 C776 1.523 . S
C776 C760 1.368 . S
C776 C772 1.368 . S
C776 C775 1.523 . S
H777 C752 0.950 . S
H778 C754 0.950 . S
H779 C755 0.949 . S
H780 C757 0.950 . S
H781 C759 0.950 . S
C782 C783 1.349 . S
C782 C784 1.327 . S
C782 H807 0.950 . S
C783 C782 1.349 . S
C783 C799 1.349 . S
C784 C782 1.327 . S
C784 C803 1.429 . S
C784 H808 0.950 . S
C785 C802 1.574 . S
C785 C804 1.368 . S
C785 H809 0.949 . S
H786 C790 0.949 . S
C787 C788 1.349 . S
C787 C789 1.327 . S
C787 H810 0.950 . S
C788 C787 1.349 . S
C788 C800 1.349 . S
C789 C787 1.327 . S
C789 C805 1.429 . S
C789 H811 0.950 . S
C790 H786 0.949 . S
C790 C798 1.574 . S
C790 C806 1.368 . S
H791 C799 0.950 . S
H792 C797 0.950 . S
H793 C798 0.949 . S
H794 C800 0.950 . S
H795 C801 0.950 . S
H796 C802 0.949 . S
C797 H792 0.950 . S
C797 C799 1.327 . S
C797 C803 1.429 . S
C798 C790 1.574 . S
C798 H793 0.949 . S
C798 C804 1.368 . S
C799 C783 1.349 . S
C799 H791 0.950 . S
C799 C797 1.327 . S
C800 C788 1.349 . S
C800 H794 0.950 . S
C800 C801 1.327 . S
C801 H795 0.950 . S
C801 C800 1.327 . S
C801 C805 1.429 . S
C802 C785 1.574 . S
C802 H796 0.949 . S
C802 C806 1.368 . S
C803 C784 1.429 . S
C803 C797 1.429 . S
C803 C804 1.523 . S
C804 C785 1.368 . S
C804 C798 1.368 . S
C804 C803 1.523 . S
C805 C789 1.429 . S
C805 C801 1.429 . S
C805 C806 1.523 . S
C806 C790 1.368 . S
C806 C802 1.368 . S
C806 C805 1.523 . S
H807 C782 0.950 . S
H808 C784 0.950 . S
H809 C785 0.949 . S
H810 C787 0.950 . S
H811 C789 0.950 . S
C812 C813 1.349 . S
C812 C814 1.327 . S
C812 H837 0.950 . S
C813 C812 1.349 . S
C813 C829 1.349 . S
C814 C812 1.327 . S
C814 C833 1.429 . S
C814 H838 0.950 . S
C815 C832 1.574 . S
C815 C834 1.368 . S
C815 H839 0.949 . S
H816 C820 0.949 . S
C817 C818 1.349 . S
C817 C819 1.327 . S
C817 H840 0.950 . S
C818 C817 1.349 . S
C818 C830 1.349 . S
C819 C817 1.327 . S
C819 C835 1.429 . S
C819 H841 0.950 . S
C820 H816 0.949 . S
C820 C828 1.574 . S
C820 C836 1.368 . S
H821 C829 0.950 . S
H822 C827 0.950 . S
H823 C828 0.949 . S
H824 C830 0.950 . S
H825 C831 0.950 . S
H826 C832 0.949 . S
C827 H822 0.950 . S
C827 C829 1.327 . S
C827 C833 1.429 . S
C828 C820 1.574 . S
C828 H823 0.949 . S
C828 C834 1.368 . S
C829 C813 1.349 . S
C829 H821 0.950 . S
C829 C827 1.327 . S
C830 C818 1.349 . S
C830 H824 0.950 . S
C830 C831 1.327 . S
C831 H825 0.950 . S
C831 C830 1.327 . S
C831 C835 1.429 . S
C832 C815 1.574 . S
C832 H826 0.949 . S
C832 C836 1.368 . S
C833 C814 1.429 . S
C833 C827 1.429 . S
C833 C834 1.523 . S
C834 C815 1.368 . S
C834 C828 1.368 . S
C834 C833 1.523 . S
C835 C819 1.429 . S
C835 C831 1.429 . S
C835 C836 1.523 . S
C836 C820 1.368 . S
C836 C832 1.368 . S
C836 C835 1.523 . S
H837 C812 0.950 . S
H838 C814 0.950 . S
H839 C815 0.949 . S
H840 C817 0.950 . S
H841 C819 0.950 . S
C842 C843 1.349 . S
C842 C844 1.327 . S
C842 H867 0.950 . S
C843 C842 1.349 . S
C843 C859 1.349 1_554 S
C844 C842 1.327 . S
C844 C863 1.429 . S
C844 H868 0.950 . S
C845 C862 1.574 . S
C845 C864 1.368 1_556 S
C845 H869 0.949 . S
H846 C850 0.949 . S
C847 C848 1.349 . S
C847 C849 1.327 . S
C847 H870 0.950 . S
C848 C847 1.349 . S
C848 C860 1.349 1_556 S
C849 C847 1.327 . S
C849 C865 1.429 . S
C849 H871 0.950 . S
C850 H846 0.949 . S
C850 C858 1.574 . S
C850 C866 1.368 1_554 S
H851 C859 0.950 . S
H852 C857 0.950 . S
H853 C858 0.949 . S
H854 C860 0.950 . S
H855 C861 0.950 . S
H856 C862 0.949 . S
C857 H852 0.950 . S
C857 C859 1.327 . S
C857 C863 1.429 1_556 S
C858 C850 1.574 . S
C858 H853 0.949 . S
C858 C864 1.368 . S
C859 C843 1.349 1_556 S
C859 H851 0.950 . S
C859 C857 1.327 . S
C860 C848 1.349 1_554 S
C860 H854 0.950 . S
C860 C861 1.327 . S
C861 H855 0.950 . S
C861 C860 1.327 . S
C861 C865 1.429 1_554 S
C862 C845 1.574 . S
C862 H856 0.949 . S
C862 C866 1.368 . S
C863 C844 1.429 . S
C863 C857 1.429 1_554 S
C863 C864 1.523 . S
C864 C845 1.368 1_554 S
C864 C858 1.368 . S
C864 C863 1.523 . S
C865 C849 1.429 . S
C865 C861 1.429 1_556 S
C865 C866 1.523 . S
C866 C850 1.368 1_556 S
C866 C862 1.368 . S
C866 C865 1.523 . S
H867 C842 0.950 . S
H868 C844 0.950 . S
H869 C845 0.949 . S
H870 C847 0.950 . S
H871 C849 0.950 . S
C273 C190 1.605 . S
C278 C20 1.605 . S
C303 C224 1.605 . S
C308 C54 1.605 . S
C333 C88 1.610 . S
C338 C258 1.611 . S
C363 C156 1.610 . S
C368 C122 1.611 . S
C393 C9 0.767 . S
C398 C5 0.768 . S
C423 C39 0.766 . S
C428 C43 0.765 . S
C453 C77 0.769 1_554 S
C458 C73 0.770 . S
C483 C111 0.767 . S
C488 C107 0.768 . S
C513 C145 0.769 1_556 S
C518 C141 0.770 . S
C543 C179 0.765 . S
C548 C175 0.766 . S
C573 C213 0.767 . S
C578 C209 0.768 . S
C603 C243 0.768 . S
C608 C247 0.767 . S
C633 C33 1.273 . S
C638 C237 1.273 . S
C663 C271 1.275 . S
C668 C67 1.274 . S
C693 C169 1.282 . S
C698 C101 1.282 . S
C723 C135 1.275 . S
C728 C203 1.274 . S
C753 C2 1.783 . S
C758 C138 1.783 . S
C783 C36 1.777 . S
C788 C172 1.777 . S
C813 C70 1.783 . S
C818 C206 1.783 . S
C843 C240 1.789 . S
C848 C104 1.789 . S
